O=C(O)c1cc(N=Nc2ccc(S(=O)(=O)Nc3ccccn3)cc2)ccc1O
Actelion Java MolfileCreator 2.0

  0  0  0  0  0  0              0 V3000
M  V30 BEGIN CTAB
M  V30 COUNTS 42 44 0 0 0
M  V30 BEGIN ATOM
M  V30 1 S 1.9516 -4.5583 0.2438 0
M  V30 2 O 3.0176 -4.8471 1.1803 0
M  V30 3 O 2.0516 -4.9632 -1.143 0
M  V30 4 N 0.5412 -5.1917 0.9059 0
M  V30 5 C 1.6821 -2.7978 0.2837 0
M  V30 6 C -0.6672 -4.7986 0.3044 0
M  V30 7 C 1.8892 -2.1 1.4772 0
M  V30 8 C 1.3085 -2.1229 -0.8817 0
M  V30 9 N -1.3934 -4.0015 1.1066 0
M  V30 10 C -1.0352 -5.1756 -0.975 0
M  V30 11 C 1.6857 -0.7179 1.5076 0
M  V30 12 C 1.1076 -0.7411 -0.8387 0
M  V30 13 C -2.5575 -3.5443 0.595 0
M  V30 14 C -2.2396 -4.6895 -1.4725 0
M  V30 15 C 1.2794 -0.0293 0.3578 0
M  V30 16 C -3.0175 -3.8554 -0.6755 0
M  V30 17 N 1.1064 1.3648 0.4142 0
M  V30 18 N -0.0931 1.6636 0.2213 0
M  V30 19 C -0.2672 3.0574 0.2876 0
M  V30 20 C 0.2977 3.9118 -0.6689 0
M  V30 21 C -1.063 3.6002 1.3023 0
M  V30 22 C 0.0885 5.2962 -0.5997 0
M  V30 23 C -1.2771 4.9775 1.3787 0
M  V30 24 C -0.7018 5.8213 0.432 0
M  V30 25 C 0.6846 6.21 -1.5973 0
M  V30 26 O -0.9626 7.1575 0.5808 0
M  V30 27 O 0.546 7.4218 -1.5863 0
M  V30 28 O 1.4066 5.5865 -2.5416 0
M  V30 29 H 0.5084 -5.0437 1.9121 0
M  V30 30 H 2.2076 -2.6174 2.3792 0
M  V30 31 H 1.1701 -2.6576 -1.8184 0
M  V30 32 H -0.4096 -5.8303 -1.5713 0
M  V30 33 H 1.8431 -0.1685 2.4328 0
M  V30 34 H 0.8156 -0.2101 -1.7415 0
M  V30 35 H -3.1318 -2.898 1.2534 0
M  V30 36 H -2.5679 -4.9597 -2.4723 0
M  V30 37 H -3.9614 -3.4593 -1.0346 0
M  V30 38 H 0.9029 3.4815 -1.4629 0
M  V30 39 H -1.5151 2.9429 2.041 0
M  V30 40 H -1.8917 5.3919 2.1739 0
M  V30 41 H -0.5059 7.6542 -0.1326 0
M  V30 42 H 1.7381 6.3052 -3.1202 0
M  V30 END ATOM
M  V30 BEGIN BOND
M  V30 1 2 1 2
M  V30 2 2 1 3
M  V30 3 1 1 4
M  V30 4 1 1 5
M  V30 5 1 4 6
M  V30 6 2 5 7
M  V30 7 1 5 8
M  V30 8 2 6 9
M  V30 9 1 6 10
M  V30 10 1 7 11
M  V30 11 2 8 12
M  V30 12 1 9 13
M  V30 13 2 10 14
M  V30 14 2 11 15
M  V30 15 2 13 16
M  V30 16 1 15 17
M  V30 17 2 17 18
M  V30 18 1 18 19
M  V30 19 2 19 20
M  V30 20 1 19 21
M  V30 21 1 20 22
M  V30 22 2 21 23
M  V30 23 2 22 24
M  V30 24 1 22 25
M  V30 25 1 24 26
M  V30 26 2 25 27
M  V30 27 1 25 28
M  V30 28 1 12 15
M  V30 29 1 14 16
M  V30 30 1 23 24
M  V30 31 1 4 29
M  V30 32 1 7 30
M  V30 33 1 8 31
M  V30 34 1 10 32
M  V30 35 1 11 33
M  V30 36 1 12 34
M  V30 37 1 13 35
M  V30 38 1 14 36
M  V30 39 1 16 37
M  V30 40 1 20 38
M  V30 41 1 21 39
M  V30 42 1 23 40
M  V30 43 1 26 41
M  V30 44 1 28 42
M  V30 END BOND
M  V30 END CTAB
M  END
>  <NO.>
1

>  <Name>
sulphasalazine

>  <SMILES>
O=C(O)c1cc(N=Nc2ccc(S(=O)(=O)Nc3ccccn3)cc2)ccc1O

>  <logBB>
-2.69

>  <Class>
-1

>  <MW>
398.07

>  <nHBAcc>
7

>  <nHBDon>
3

>  <SLogP>
3.7

>  <TopoPSA>
141.31

>  <MMFF94 Energy>
-53.967

$$$$
Oc1c(I)cc(Cl)c2cccnc12
Actelion Java MolfileCreator 2.0

  0  0  0  0  0  0              0 V3000
M  V30 BEGIN CTAB
M  V30 COUNTS 18 19 0 0 0
M  V30 BEGIN ATOM
M  V30 1 I 3.5712 0.9344 -2.3798 0
M  V30 2 C 1.9706 0.2662 -1.2183 0
M  V30 3 C 0.8977 1.094 -0.8882 0
M  V30 4 C 1.9838 -1.0482 -0.764 0
M  V30 5 O 0.8612 2.4007 -1.3262 0
M  V30 6 C -0.171 0.647 -0.1123 0
M  V30 7 C 0.9241 -1.5194 0.015 0
M  V30 8 N -1.1645 1.5225 0.1551 0
M  V30 9 C -0.1694 -0.6831 0.3542 0
M  V30 10 Cl 1.0089 -3.1669 0.5449 0
M  V30 11 C -2.2027 1.0958 0.9061 0
M  V30 12 C -1.2784 -1.0784 1.1351 0
M  V30 13 C -2.3045 -0.1821 1.4142 0
M  V30 14 H 2.8103 -1.7106 -1.0096 0
M  V30 15 H 0.0204 2.7561 -0.9643 0
M  V30 16 H -2.9762 1.8359 1.0938 0
M  V30 17 H -1.3513 -2.0884 1.5323 0
M  V30 18 H -3.1594 -0.4772 2.0129 0
M  V30 END ATOM
M  V30 BEGIN BOND
M  V30 1 1 1 2
M  V30 2 2 2 3
M  V30 3 1 2 4
M  V30 4 1 3 5
M  V30 5 1 3 6
M  V30 6 2 4 7
M  V30 7 2 6 8
M  V30 8 1 6 9
M  V30 9 1 7 10
M  V30 10 1 8 11
M  V30 11 2 9 12
M  V30 12 2 11 13
M  V30 13 1 7 9
M  V30 14 1 12 13
M  V30 15 1 4 14
M  V30 16 1 5 15
M  V30 17 1 11 16
M  V30 18 1 12 17
M  V30 19 1 13 18
M  V30 END BOND
M  V30 END CTAB
M  END
>  <NO.>
3

>  <Name>
clioquinol

>  <SMILES>
Oc1c(I)cc(Cl)c2cccnc12

>  <logBB>
-2.4

>  <Class>
-1

>  <MW>
304.91

>  <nHBAcc>
2

>  <nHBDon>
1

>  <SLogP>
3.2

>  <TopoPSA>
33.12

>  <MMFF94 Energy>
43.664

$$$$
CCNC(=NCCSCc1ncccc1Br)NC#N
Actelion Java MolfileCreator 2.0

  0  0  0  0  0  0              0 V3000
M  V30 BEGIN CTAB
M  V30 COUNTS 35 35 0 0 0
M  V30 BEGIN ATOM
M  V30 1 Br 2.5022 0.0 0.8873 0
M  V30 2 C 2.0862 -0.898 2.5044 0
M  V30 3 C 1.0244 -0.5453 3.3439 0
M  V30 4 C 2.9068 -1.9681 2.8697 0
M  V30 5 N 0.7966 -1.2064 4.5168 0
M  V30 6 C 0.0646 0.583 3.0454 0
M  V30 7 C 2.6622 -2.6542 4.0537 0
M  V30 8 C 1.6048 -2.2386 4.8388 0
M  V30 9 S -1.6465 0.0414 2.6823 0
M  V30 10 C -1.3957 -0.8279 1.0984 0
M  V30 11 C -1.2977 0.1471 -0.0757 0
M  V30 12 N -0.9399 -0.6084 -1.2727 0
M  V30 13 C -0.8156 -0.003 -2.3938 0
M  V30 14 N -0.4582 -0.74 -3.5296 0
M  V30 15 N -0.9967 1.3258 -2.6265 0
M  V30 16 C -0.2176 -2.038 -3.3462 0
M  V30 17 C -0.8676 2.0518 -3.8681 0
M  V30 18 N 0.0162 -3.1705 -3.2787 0
M  V30 19 C -1.1601 3.5271 -3.6495 0
M  V30 20 H 3.7359 -2.275 2.2374 0
M  V30 21 H 0.408 1.2492 2.2518 0
M  V30 22 H 0.0082 1.2106 3.9432 0
M  V30 23 H 3.2819 -3.4911 4.3553 0
M  V30 24 H 1.3685 -2.7372 5.7748 0
M  V30 25 H -0.5209 -1.4817 1.1556 0
M  V30 26 H -2.2585 -1.4862 0.9448 0
M  V30 27 H -2.2651 0.6459 -0.2141 0
M  V30 28 H -0.5355 0.9091 0.1191 0
M  V30 29 H -0.3413 -0.2989 -4.4324 0
M  V30 30 H -1.2699 1.8783 -1.8247 0
M  V30 31 H 0.1489 1.9439 -4.2618 0
M  V30 32 H -1.5686 1.654 -4.61 0
M  V30 33 H -1.0617 4.0789 -4.5894 0
M  V30 34 H -2.1772 3.674 -3.2705 0
M  V30 35 H -0.4657 3.9617 -2.9224 0
M  V30 END ATOM
M  V30 BEGIN BOND
M  V30 1 1 1 2
M  V30 2 2 2 3
M  V30 3 1 2 4
M  V30 4 1 3 5
M  V30 5 1 3 6
M  V30 6 2 4 7
M  V30 7 2 5 8
M  V30 8 1 6 9
M  V30 9 1 9 10
M  V30 10 1 10 11
M  V30 11 1 11 12
M  V30 12 2 12 13
M  V30 13 1 13 14
M  V30 14 1 13 15
M  V30 15 1 14 16
M  V30 16 1 15 17
M  V30 17 3 16 18
M  V30 18 1 17 19
M  V30 19 1 7 8
M  V30 20 1 4 20
M  V30 21 1 6 21
M  V30 22 1 6 22
M  V30 23 1 7 23
M  V30 24 1 8 24
M  V30 25 1 10 25
M  V30 26 1 10 26
M  V30 27 1 11 27
M  V30 28 1 11 28
M  V30 29 1 14 29
M  V30 30 1 15 30
M  V30 31 1 17 31
M  V30 32 1 17 32
M  V30 33 1 19 33
M  V30 34 1 19 34
M  V30 35 1 19 35
M  V30 END BOND
M  V30 END CTAB
M  END
>  <NO.>
4

>  <Name>
bbcpd11 (cimetidine analog) (y-g13)

>  <SMILES>
CCNC(=NCCSCc1ncccc1Br)NC#N

>  <logBB>
-2.15

>  <Class>
-1

>  <MW>
341.03

>  <nHBAcc>
4

>  <nHBDon>
2

>  <SLogP>
2.11

>  <TopoPSA>
73.1

>  <MMFF94 Energy>
-87.857

$$$$
CS(=O)(=O)N(CCO)c1c(Cl)c(Cl)cc2[nH]c(=O)c(=O)[nH]c12
Actelion Java MolfileCreator 2.0

  0  0  0  0  0  0              0 V3000
M  V30 BEGIN CTAB
M  V30 COUNTS 33 34 0 0 0
M  V30 BEGIN ATOM
M  V30 1 Cl -2.0067 -2.5088 -0.4178 0
M  V30 2 C -1.7409 -0.8429 -0.8399 0
M  V30 3 C -0.672 -0.1353 -0.251 0
M  V30 4 C -2.5771 -0.1979 -1.7634 0
M  V30 5 N 0.1964 -0.8226 0.69 0
M  V30 6 C -0.4737 1.2243 -0.5764 0
M  V30 7 Cl -3.8971 -1.0023 -2.5404 0
M  V30 8 C -2.3585 1.1405 -2.1027 0
M  V30 9 S -0.0171 -0.3529 2.308 0
M  V30 10 C 1.5772 -1.1399 0.2335 0
M  V30 11 N 0.5473 1.9821 0.0238 0
M  V30 12 C -1.3121 1.8446 -1.511 0
M  V30 13 O 1.0122 0.6247 2.5924 0
M  V30 14 O -1.4168 -0.0416 2.5081 0
M  V30 15 C 0.3354 -1.8656 3.1803 0
M  V30 16 C 1.6203 -2.5261 -0.4108 0
M  V30 17 C 0.811 3.2988 -0.2826 0
M  V30 18 N -1.1039 3.1792 -1.8688 0
M  V30 19 O 2.9657 -2.8684 -0.7192 0
M  V30 20 O 1.7163 3.9231 0.2525 0
M  V30 21 C -0.0962 3.959 -1.3455 0
M  V30 22 O 0.069 5.1159 -1.7064 0
M  V30 23 H -3.0109 1.6268 -2.8247 0
M  V30 24 H 2.2835 -1.1212 1.0712 0
M  V30 25 H 1.9501 -0.3911 -0.4745 0
M  V30 26 H 1.1041 1.5987 0.7851 0
M  V30 27 H -0.3535 -2.6391 2.8363 0
M  V30 28 H 0.1805 -1.6797 4.2456 0
M  V30 29 H 1.3722 -2.155 3.0057 0
M  V30 30 H 1.2183 -3.2833 0.2703 0
M  V30 31 H 1.0378 -2.5431 -1.3372 0
M  V30 32 H -1.6946 3.6402 -2.5493 0
M  V30 33 H 2.951 -3.7457 -1.1416 0
M  V30 END ATOM
M  V30 BEGIN BOND
M  V30 1 1 1 2
M  V30 2 2 2 3
M  V30 3 1 2 4
M  V30 4 1 3 5
M  V30 5 1 3 6
M  V30 6 1 4 7
M  V30 7 2 4 8
M  V30 8 1 5 9
M  V30 9 1 5 10
M  V30 10 1 6 11
M  V30 11 2 6 12
M  V30 12 2 9 13
M  V30 13 2 9 14
M  V30 14 1 9 15
M  V30 15 1 10 16
M  V30 16 1 11 17
M  V30 17 1 12 18
M  V30 18 1 16 19
M  V30 19 2 17 20
M  V30 20 1 17 21
M  V30 21 2 21 22
M  V30 22 1 8 12
M  V30 23 1 18 21
M  V30 24 1 8 23
M  V30 25 1 10 24
M  V30 26 1 10 25
M  V30 27 1 11 26
M  V30 28 1 15 27
M  V30 29 1 15 28
M  V30 30 1 15 29
M  V30 31 1 16 30
M  V30 32 1 16 31
M  V30 33 1 18 32
M  V30 34 1 19 33
M  V30 END BOND
M  V30 END CTAB
M  END
>  <NO.>
6

>  <Name>
uk-240,455

>  <SMILES>
CS(=O)(=O)N(CCO)c1c(Cl)c(Cl)cc2[nH]c(=O)c(=O)[nH]c12

>  <logBB>
-2.15

>  <Class>
-1

>  <MW>
366.98

>  <nHBAcc>
5

>  <nHBDon>
3

>  <SLogP>
0.28

>  <TopoPSA>
123.33

>  <MMFF94 Energy>
59.41

$$$$
O=C1CN(/N=C/c2ccc([N+](=O)[O-])o2)C(=O)N1
Actelion Java MolfileCreator 2.0

  0  0  0  0  0  0              0 V3000
M  V30 BEGIN CTAB
M  V30 COUNTS 23 24 0 0 0
M  V30 BEGIN ATOM
M  V30 1 O 3.8665 -1.9318 -1.6096 0
M  V30 2 N 4.3512 -0.8715 -1.1962 0 CHG=1
M  V30 3 O 5.5455 -0.548 -1.2568 0 CHG=-1
M  V30 4 C 3.4729 0.0793 -0.5911 0
M  V30 5 O 2.1604 -0.2627 -0.5181 0
M  V30 6 C 3.7042 1.32 -0.0474 0
M  V30 7 C 1.5191 0.7855 0.0905 0
M  V30 8 C 2.4361 1.7781 0.3948 0
M  V30 9 C 0.0964 0.7135 0.3105 0
M  V30 10 N -0.5731 -0.3281 -0.061 0
M  V30 11 N -1.9219 -0.3939 0.1487 0
M  V30 12 C -2.779 0.5421 0.7431 0
M  V30 13 C -2.6382 -1.5737 -0.2796 0
M  V30 14 O -2.5121 1.6372 1.2118 0
M  V30 15 N -4.0353 0.0198 0.7211 0
M  V30 16 C -4.0447 -1.2085 0.1436 0
M  V30 17 O -5.0398 -1.9013 -0.0053 0
M  V30 18 H 4.6581 1.8254 0.0205 0
M  V30 19 H 2.213 2.7202 0.8789 0
M  V30 20 H -0.3423 1.5925 0.8033 0
M  V30 21 H -2.2796 -2.451 0.2623 0
M  V30 22 H -2.5699 -1.6843 -1.3637 0
M  V30 23 H -4.8464 0.4879 1.0866 0
M  V30 END ATOM
M  V30 BEGIN BOND
M  V30 1 2 1 2
M  V30 2 1 2 3
M  V30 3 1 2 4
M  V30 4 1 4 5
M  V30 5 2 4 6
M  V30 6 1 5 7
M  V30 7 1 6 8
M  V30 8 1 7 9
M  V30 9 2 9 10
M  V30 10 1 10 11
M  V30 11 1 11 12
M  V30 12 1 11 13
M  V30 13 2 12 14
M  V30 14 1 12 15
M  V30 15 1 13 16
M  V30 16 2 16 17
M  V30 17 2 7 8
M  V30 18 1 15 16
M  V30 19 1 6 18
M  V30 20 1 8 19
M  V30 21 1 9 20
M  V30 22 1 13 21
M  V30 23 1 13 22
M  V30 24 1 15 23
M  V30 END BOND
M  V30 END CTAB
M  END
>  <NO.>
8

>  <Name>
nitrofurantoin

>  <SMILES>
O=C1CN(/N=C/c2ccc([N+](=O)[O-])o2)C(=O)N1

>  <logBB>
-2.09

>  <Class>
-1

>  <MW>
238.03

>  <nHBAcc>
6

>  <nHBDon>
1

>  <SLogP>
0.07

>  <TopoPSA>
118.05

>  <MMFF94 Energy>
47.484

$$$$
COc1cccnc1CCCCNc1ncc(Cc2ccc(C)nc2)c(=O)[nH]1
Actelion Java MolfileCreator 2.0

  0  0  0  0  0  0              0 V3000
M  V30 BEGIN CTAB
M  V30 COUNTS 53 55 0 0 0
M  V30 BEGIN ATOM
M  V30 1 O 1.8932 -0.9462 4.7383 0
M  V30 2 C 1.2354 -0.4794 3.8137 0
M  V30 3 N 0.8324 -1.2416 2.758 0
M  V30 4 C 0.8305 0.9438 3.7741 0
M  V30 5 C 0.1041 -0.75 1.7154 0
M  V30 6 C 0.1166 1.3117 2.7005 0
M  V30 7 C 1.2719 1.7862 4.9375 0
M  V30 8 N -0.2548 0.4936 1.667 0
M  V30 9 N -0.2125 -1.6505 0.7447 0
M  V30 10 C 0.8914 3.2432 4.8871 0
M  V30 11 C -1.0079 -1.3088 -0.419 0
M  V30 12 C -0.2958 3.6967 5.4514 0
M  V30 13 C 1.698 4.187 4.2479 0
M  V30 14 C -1.0484 -2.4689 -1.4142 0
M  V30 15 N -0.7062 4.9849 5.4239 0
M  V30 16 C 1.2988 5.5206 4.2056 0
M  V30 17 C 0.305 -2.6989 -2.0999 0
M  V30 18 C 0.0952 5.8811 4.803 0
M  V30 19 C 0.297 -3.8985 -3.0539 0
M  V30 20 C -0.3623 7.3084 4.7732 0
M  V30 21 C -0.6058 -3.7134 -4.2499 0
M  V30 22 N -1.8229 -4.3177 -4.1658 0
M  V30 23 C -0.209 -2.9436 -5.3531 0
M  V30 24 C -2.6656 -4.1634 -5.2067 0
M  V30 25 O 1.0382 -2.3846 -5.3068 0
M  V30 26 C -1.1124 -2.8093 -6.4075 0
M  V30 27 C -2.3592 -3.4275 -6.3359 0
M  V30 28 C 1.4355 -1.5829 -6.4118 0
M  V30 29 H 1.1059 -2.208 2.7804 0
M  V30 30 H -0.2242 2.3385 2.5906 0
M  V30 31 H 2.3645 1.7239 5.0323 0
M  V30 32 H 0.8705 1.3552 5.8647 0
M  V30 33 H 0.0479 -2.6194 0.8543 0
M  V30 34 H -0.6047 -0.4151 -0.9097 0
M  V30 35 H -2.0301 -1.0805 -0.0962 0
M  V30 36 H -0.978 3.0171 5.9562 0
M  V30 37 H 2.6337 3.8911 3.78 0
M  V30 38 H -1.806 -2.237 -2.1716 0
M  V30 39 H -1.369 -3.387 -0.9066 0
M  V30 40 H 1.9181 6.2626 3.7122 0
M  V30 41 H 1.073 -2.8804 -1.3384 0
M  V30 42 H 0.6014 -1.7887 -2.6352 0
M  V30 43 H 1.3181 -4.1011 -3.3995 0
M  V30 44 H -0.0132 -4.7972 -2.5054 0
M  V30 45 H -0.489 7.6432 3.739 0
M  V30 46 H 0.3695 7.9507 5.2727 0
M  V30 47 H -1.3219 7.4211 5.288 0
M  V30 48 H -3.6247 -4.6629 -5.1051 0
M  V30 49 H -0.8787 -2.2334 -7.296 0
M  V30 50 H -3.0751 -3.3356 -7.1451 0
M  V30 51 H 1.4802 -2.1743 -7.3322 0
M  V30 52 H 2.4433 -1.2087 -6.2076 0
M  V30 53 H 0.7763 -0.7163 -6.5286 0
M  V30 END ATOM
M  V30 BEGIN BOND
M  V30 1 2 1 2
M  V30 2 1 2 3
M  V30 3 1 2 4
M  V30 4 1 3 5
M  V30 5 2 4 6
M  V30 6 1 4 7
M  V30 7 2 5 8
M  V30 8 1 5 9
M  V30 9 1 7 10
M  V30 10 1 9 11
M  V30 11 2 10 12
M  V30 12 1 10 13
M  V30 13 1 11 14
M  V30 14 1 12 15
M  V30 15 2 13 16
M  V30 16 1 14 17
M  V30 17 2 15 18
M  V30 18 1 17 19
M  V30 19 1 18 20
M  V30 20 1 19 21
M  V30 21 2 21 22
M  V30 22 1 21 23
M  V30 23 1 22 24
M  V30 24 1 23 25
M  V30 25 2 23 26
M  V30 26 2 24 27
M  V30 27 1 25 28
M  V30 28 1 6 8
M  V30 29 1 16 18
M  V30 30 1 26 27
M  V30 31 1 3 29
M  V30 32 1 6 30
M  V30 33 1 7 31
M  V30 34 1 7 32
M  V30 35 1 9 33
M  V30 36 1 11 34
M  V30 37 1 11 35
M  V30 38 1 12 36
M  V30 39 1 13 37
M  V30 40 1 14 38
M  V30 41 1 14 39
M  V30 42 1 16 40
M  V30 43 1 17 41
M  V30 44 1 17 42
M  V30 45 1 19 43
M  V30 46 1 19 44
M  V30 47 1 20 45
M  V30 48 1 20 46
M  V30 49 1 20 47
M  V30 50 1 24 48
M  V30 51 1 26 49
M  V30 52 1 27 50
M  V30 53 1 28 51
M  V30 54 1 28 52
M  V30 55 1 28 53
M  V30 END BOND
M  V30 END CTAB
M  END
>  <NO.>
11

>  <Name>
icotidine

>  <SMILES>
COc1cccnc1CCCCNc1ncc(Cc2ccc(C)nc2)c(=O)[nH]1

>  <logBB>
-2

>  <Class>
-1

>  <MW>
379.2

>  <nHBAcc>
6

>  <nHBDon>
2

>  <SLogP>
2.9

>  <TopoPSA>
92.79

>  <MMFF94 Energy>
-64.681

$$$$
CCC(CC)O[C@@H]1C=C(C(=O)O)C[C@H](N)[C@@H]1NCOC
Actelion Java MolfileCreator 2.0

  0  0  0  0  0  0              0 V3000
M  V30 BEGIN CTAB
M  V30 COUNTS 46 46 0 0 0
M  V30 BEGIN ATOM
M  V30 1 O 1.0925 4.6108 1.483 0
M  V30 2 C 0.9492 4.2334 0.3341 0
M  V30 3 O 0.8902 5.1151 -0.6777 0
M  V30 4 C 0.8574 2.8352 -0.1355 0
M  V30 5 C 1.0153 1.8605 0.7763 0
M  V30 6 C 0.576 2.5586 -1.5838 0
M  V30 7 C 0.9644 0.3961 0.4587 0 CFG=1
M  V30 8 C 0.142 1.1086 -1.8911 0 CFG=1
M  V30 9 O -0.2387 -0.102 1.0622 0
M  V30 10 C 0.9974 0.0843 -1.0775 0 CFG=2
M  V30 11 N -1.309 0.9405 -1.7195 0
M  V30 12 C -0.0522 -1.209 1.9465 0
M  V30 13 N 0.6373 -1.3341 -1.2935 0
M  V30 14 C 0.4472 -0.7448 3.3275 0
M  V30 15 C -1.3518 -2.0341 2.0051 0
M  V30 16 C 0.7168 -1.7908 -2.6588 0
M  V30 17 C -0.4698 0.219 4.0642 0
M  V30 18 C -2.6497 -1.2446 1.8874 0
M  V30 19 O 0.2846 -3.1422 -2.6942 0
M  V30 20 C 0.4468 -3.7141 -3.9837 0
M  V30 21 H 0.958 5.98 -0.2222 0
M  V30 22 H 1.1812 2.1093 1.8224 0
M  V30 23 H 1.4928 2.7719 -2.1499 0
M  V30 24 H -0.1884 3.2473 -1.9661 0
M  V30 25 H 1.847 -0.075 0.9117 0
M  V30 26 H 0.3405 0.949 -2.9584 0
M  V30 27 H 2.0403 0.2151 -1.401 0
M  V30 28 H -1.8187 1.4984 -2.4009 0
M  V30 29 H -1.5712 -0.032 -1.8624 0
M  V30 30 H 0.7164 -1.8774 1.5353 0
M  V30 31 H -0.304 -1.4889 -0.9335 0
M  V30 32 H 1.4151 -0.2447 3.2045 0
M  V30 33 H 0.6283 -1.6198 3.963 0
M  V30 34 H -1.338 -2.7334 1.1585 0
M  V30 35 H -1.3668 -2.6548 2.9085 0
M  V30 36 H 1.7507 -1.7263 -3.0161 0
M  V30 37 H 0.0682 -1.213 -3.3241 0
M  V30 38 H -1.3739 -0.2861 4.4145 0
M  V30 39 H 0.0402 0.6156 4.9484 0
M  V30 40 H -0.758 1.0663 3.4353 0
M  V30 41 H -3.5048 -1.9247 1.9611 0
M  V30 42 H -2.7537 -0.4951 2.6739 0
M  V30 43 H -2.7186 -0.7378 0.9195 0
M  V30 44 H 0.086 -4.7455 -3.951 0
M  V30 45 H 1.503 -3.7233 -4.2696 0
M  V30 46 H -0.1394 -3.1625 -4.7251 0
M  V30 END ATOM
M  V30 BEGIN BOND
M  V30 1 2 1 2
M  V30 2 1 2 3
M  V30 3 1 2 4
M  V30 4 2 4 5
M  V30 5 1 4 6
M  V30 6 1 5 7
M  V30 7 1 6 8
M  V30 8 1 7 9
M  V30 9 1 7 10
M  V30 10 1 8 11
M  V30 11 1 9 12
M  V30 12 1 10 13
M  V30 13 1 12 14
M  V30 14 1 12 15
M  V30 15 1 13 16
M  V30 16 1 14 17
M  V30 17 1 15 18
M  V30 18 1 16 19
M  V30 19 1 19 20
M  V30 20 1 8 10
M  V30 21 1 3 21
M  V30 22 1 5 22
M  V30 23 1 6 23
M  V30 24 1 6 24
M  V30 25 1 7 25
M  V30 26 1 8 26
M  V30 27 1 10 27
M  V30 28 1 11 28
M  V30 29 1 11 29
M  V30 30 1 12 30
M  V30 31 1 13 31
M  V30 32 1 14 32
M  V30 33 1 14 33
M  V30 34 1 15 34
M  V30 35 1 15 35
M  V30 36 1 16 36
M  V30 37 1 16 37
M  V30 38 1 17 38
M  V30 39 1 17 39
M  V30 40 1 17 40
M  V30 41 1 18 41
M  V30 42 1 18 42
M  V30 43 1 18 43
M  V30 44 1 20 44
M  V30 45 1 20 45
M  V30 46 1 20 46
M  V30 END BOND
M  V30 BEGIN COLLECTION
M  V30 MDLV30/STEABS ATOMS=(3 7 8 10)
M  V30 END COLLECTION
M  V30 END CTAB
M  END
>  <NO.>
12

>  <Name>
ro 64-0802

>  <SMILES>
CCC(CC)O[C@@H]1C=C(C(=O)O)C[C@H](N)[C@@H]1NCOC

>  <logBB>
-1.96

>  <Class>
-1

>  <MW>
286.19

>  <nHBAcc>
5

>  <nHBDon>
3

>  <SLogP>
0.86

>  <TopoPSA>
93.81

>  <MMFF94 Energy>
15.127

$$$$
Cc1ccc(Cc2cnc(NCCCCc3ncc(Br)cc3C)[nH]c2=O)cn1
Actelion Java MolfileCreator 2.0

  0  0  0  0  0  0              0 V3000
M  V30 BEGIN CTAB
M  V30 COUNTS 52 54 0 0 0
M  V30 BEGIN ATOM
M  V30 1 Br -4.7124 -0.6379 2.1544 0
M  V30 2 C -4.0272 -1.332 0.5417 0
M  V30 3 C -3.3274 -2.5224 0.5218 0
M  V30 4 C -4.2136 -0.6569 -0.6576 0
M  V30 5 N -2.8074 -3.0654 -0.6026 0
M  V30 6 C -3.693 -1.1869 -1.8478 0
M  V30 7 C -2.9838 -2.3953 -1.7726 0
M  V30 8 C -3.8963 -0.4431 -3.1351 0
M  V30 9 C -2.3293 -3.0351 -2.9736 0
M  V30 10 C -0.9543 -2.4506 -3.3177 0
M  V30 11 C 0.0872 -2.6554 -2.2134 0
M  V30 12 C 1.4643 -2.1584 -2.6513 0
M  V30 13 N 2.4172 -2.3017 -1.5688 0
M  V30 14 C 2.5633 -1.3886 -0.568 0
M  V30 15 N 1.9051 -0.2734 -0.5288 0
M  V30 16 N 3.4564 -1.7224 0.4067 0
M  V30 17 C 2.1207 0.5657 0.5313 0
M  V30 18 C 3.7209 -0.9283 1.4829 0
M  V30 19 C 2.9661 0.3433 1.5478 0
M  V30 20 O 4.5342 -1.2502 2.3434 0
M  V30 21 C 3.2408 1.2133 2.7418 0
M  V30 22 C 2.4112 2.4661 2.8563 0
M  V30 23 C 2.8582 3.676 2.3368 0
M  V30 24 C 1.151 2.4543 3.4585 0
M  V30 25 N 2.1547 4.8298 2.3864 0
M  V30 26 C 0.4059 3.6291 3.5235 0
M  V30 27 C 0.9387 4.7935 2.9796 0
M  V30 28 C 0.1608 6.0739 3.0334 0
M  V30 29 H -3.1517 -3.0949 1.4275 0
M  V30 30 H -4.7603 0.2827 -0.6707 0
M  V30 31 H -2.9457 -0.0504 -3.5061 0
M  V30 32 H -4.3464 -1.0936 -3.8912 0
M  V30 33 H -4.5746 0.407 -3.0021 0
M  V30 34 H -2.9918 -2.9553 -3.8429 0
M  V30 35 H -2.2239 -4.1119 -2.7868 0
M  V30 36 H -1.0398 -1.3805 -3.5379 0
M  V30 37 H -0.5998 -2.9333 -4.237 0
M  V30 38 H -0.2218 -2.122 -1.3068 0
M  V30 39 H 0.1484 -3.7187 -1.9496 0
M  V30 40 H 1.8135 -2.7531 -3.5032 0
M  V30 41 H 1.4179 -1.1176 -2.9929 0
M  V30 42 H 2.9254 -3.173 -1.5339 0
M  V30 43 H 3.964 -2.5882 0.3611 0
M  V30 44 H 1.5264 1.4757 0.4974 0
M  V30 45 H 4.3023 1.4955 2.742 0
M  V30 46 H 3.0913 0.626 3.6581 0
M  V30 47 H 3.8245 3.758 1.8454 0
M  V30 48 H 0.7434 1.5359 3.8742 0
M  V30 49 H -0.574 3.6312 3.9898 0
M  V30 50 H -0.0412 6.3504 4.073 0
M  V30 51 H -0.788 5.9625 2.4995 0
M  V30 52 H 0.7209 6.8905 2.5664 0
M  V30 END ATOM
M  V30 BEGIN BOND
M  V30 1 1 1 2
M  V30 2 2 2 3
M  V30 3 1 2 4
M  V30 4 1 3 5
M  V30 5 2 4 6
M  V30 6 2 5 7
M  V30 7 1 6 8
M  V30 8 1 7 9
M  V30 9 1 9 10
M  V30 10 1 10 11
M  V30 11 1 11 12
M  V30 12 1 12 13
M  V30 13 1 13 14
M  V30 14 2 14 15
M  V30 15 1 14 16
M  V30 16 1 15 17
M  V30 17 1 16 18
M  V30 18 2 17 19
M  V30 19 2 18 20
M  V30 20 1 19 21
M  V30 21 1 21 22
M  V30 22 2 22 23
M  V30 23 1 22 24
M  V30 24 1 23 25
M  V30 25 2 24 26
M  V30 26 2 25 27
M  V30 27 1 27 28
M  V30 28 1 6 7
M  V30 29 1 18 19
M  V30 30 1 26 27
M  V30 31 1 3 29
M  V30 32 1 4 30
M  V30 33 1 8 31
M  V30 34 1 8 32
M  V30 35 1 8 33
M  V30 36 1 9 34
M  V30 37 1 9 35
M  V30 38 1 10 36
M  V30 39 1 10 37
M  V30 40 1 11 38
M  V30 41 1 11 39
M  V30 42 1 12 40
M  V30 43 1 12 41
M  V30 44 1 13 42
M  V30 45 1 16 43
M  V30 46 1 17 44
M  V30 47 1 21 45
M  V30 48 1 21 46
M  V30 49 1 23 47
M  V30 50 1 24 48
M  V30 51 1 26 49
M  V30 52 1 28 50
M  V30 53 1 28 51
M  V30 54 1 28 52
M  V30 END BOND
M  V30 END CTAB
M  END
>  <NO.>
13

>  <Name>
temelastine

>  <SMILES>
Cc1ccc(Cc2cnc(NCCCCc3ncc(Br)cc3C)[nH]c2=O)cn1

>  <logBB>
-1.9

>  <Class>
-1

>  <MW>
441.12

>  <nHBAcc>
5

>  <nHBDon>
2

>  <SLogP>
3.96

>  <TopoPSA>
83.56

>  <MMFF94 Energy>
-70.125

$$$$
c1ccc(NC2=NCCN2)cc1
Actelion Java MolfileCreator 2.0

  0  0  0  0  0  0              0 V3000
M  V30 BEGIN CTAB
M  V30 COUNTS 23 24 0 0 0
M  V30 BEGIN ATOM
M  V30 1 N 0.3918 1.7249 -0.7837 0
M  V30 2 C 0.6016 1.1708 0.3753 0
M  V30 3 C 0.9129 3.1132 -0.6574 0
M  V30 4 N 1.1717 1.9698 1.3149 0
M  V30 5 N 0.3406 -0.0904 0.8045 0
M  V30 6 C 1.323 3.3036 0.805 0
M  V30 7 C -0.329 -1.1382 0.1485 0
M  V30 8 C -0.9537 -1.0074 -1.0958 0
M  V30 9 C -0.3938 -2.393 0.7796 0
M  V30 10 C -1.613 -2.0871 -1.6945 0
M  V30 11 C -1.0513 -3.4751 0.186 0
M  V30 12 C -1.6614 -3.3212 -1.0539 0
M  V30 13 H 0.1411 3.8328 -0.9486 0
M  V30 14 H 1.7713 3.2388 -1.326 0
M  V30 15 H 1.1224 1.7899 2.3045 0
M  V30 16 H 0.7439 -0.3446 1.691 0
M  V30 17 H 2.3518 3.6621 0.8977 0
M  V30 18 H 0.6498 3.9962 1.3195 0
M  V30 19 H -0.9427 -0.0601 -1.6273 0
M  V30 20 H 0.0736 -2.5438 1.7492 0
M  V30 21 H -2.0872 -1.9552 -2.6635 0
M  V30 22 H -1.0849 -4.4354 0.6932 0
M  V30 23 H -2.1731 -4.1581 -1.5208 0
M  V30 END ATOM
M  V30 BEGIN BOND
M  V30 1 2 1 2
M  V30 2 1 1 3
M  V30 3 1 2 4
M  V30 4 1 2 5
M  V30 5 1 3 6
M  V30 6 1 5 7
M  V30 7 2 7 8
M  V30 8 1 7 9
M  V30 9 1 8 10
M  V30 10 2 9 11
M  V30 11 2 10 12
M  V30 12 1 4 6
M  V30 13 1 11 12
M  V30 14 1 3 13
M  V30 15 1 3 14
M  V30 16 1 4 15
M  V30 17 1 5 16
M  V30 18 1 6 17
M  V30 19 1 6 18
M  V30 20 1 8 19
M  V30 21 1 9 20
M  V30 22 1 10 21
M  V30 23 1 11 22
M  V30 24 1 12 23
M  V30 END BOND
M  V30 END CTAB
M  END
>  <NO.>
16

>  <Name>
1848-75-5

>  <SMILES>
c1ccc(NC2=NCCN2)cc1

>  <logBB>
-1.89

>  <Class>
-1

>  <MW>
161.1

>  <nHBAcc>
3

>  <nHBDon>
2

>  <SLogP>
1.06

>  <TopoPSA>
36.42

>  <MMFF94 Energy>
-37.12

$$$$
Cc1ccc(CC2CNC(NCCCCc3ncc(Br)cc3C)NC2=O)cn1
Actelion Java MolfileCreator 2.0

  0  0  0  0  0  0              0 V3000
M  V30 BEGIN CTAB
M  V30 COUNTS 56 58 0 0 0
M  V30 BEGIN ATOM
M  V30 1 Br 2.3082 6.2976 2.7863 0
M  V30 2 C 3.2352 4.8061 2.1028 0
M  V30 3 C 3.2206 3.5954 2.7674 0
M  V30 4 C 3.9518 4.8983 0.9166 0
M  V30 5 N 3.8659 2.4918 2.3246 0
M  V30 6 C 4.6333 3.7762 0.422 0
M  V30 7 C 4.5682 2.5875 1.1651 0
M  V30 8 C 5.425 3.894 -0.8473 0
M  V30 9 C 5.2567 1.3167 0.7254 0
M  V30 10 C 4.4044 0.4561 -0.214 0
M  V30 11 C 3.2182 -0.2126 0.4905 0
M  V30 12 C 2.4318 -1.1025 -0.4764 0
M  V30 13 N 1.3377 -1.7509 0.2366 0
M  V30 14 C 0.5046 -2.5672 -0.5889 0
M  V30 15 N -0.0776 -3.4973 0.3047 0
M  V30 16 N -0.4726 -1.7615 -1.2524 0
M  V30 17 C -1.3918 -3.6674 0.5968 0
M  V30 18 C -1.6846 -1.4946 -0.4921 0
M  V30 19 O -1.7357 -4.5155 1.4179 0
M  V30 20 C -2.3746 -2.8137 -0.1692 0
M  V30 21 C -3.6601 -2.6278 0.6533 0
M  V30 22 C -4.7321 -1.8427 -0.0548 0
M  V30 23 C -5.383 -2.3532 -1.1728 0
M  V30 24 C -5.115 -0.5742 0.383 0
M  V30 25 N -6.3436 -1.6949 -1.8602 0
M  V30 26 C -6.1061 0.1236 -0.3033 0
M  V30 27 C -6.6948 -0.4658 -1.4172 0
M  V30 28 C -7.765 0.2593 -2.1762 0
M  V30 29 H 2.6796 3.4636 3.6998 0
M  V30 30 H 3.9853 5.8411 0.376 0
M  V30 31 H 6.495 3.8045 -0.6352 0
M  V30 32 H 5.1287 3.1229 -1.5642 0
M  V30 33 H 5.2622 4.8627 -1.3323 0
M  V30 34 H 5.5294 0.7326 1.614 0
M  V30 35 H 6.2063 1.5622 0.2363 0
M  V30 36 H 5.0474 -0.3269 -0.6349 0
M  V30 37 H 4.04 1.0546 -1.0571 0
M  V30 38 H 3.5856 -0.8121 1.333 0
M  V30 39 H 2.5479 0.5513 0.9018 0
M  V30 40 H 3.1014 -1.8618 -0.8973 0
M  V30 41 H 2.0591 -0.4869 -1.303 0
M  V30 42 H 0.7642 -1.0796 0.7342 0
M  V30 43 H 1.0908 -3.1461 -1.3107 0
M  V30 44 H 0.563 -4.0704 0.8312 0
M  V30 45 H -0.0432 -0.8973 -1.5626 0
M  V30 46 H -2.3373 -0.8689 -1.1103 0
M  V30 47 H -1.4617 -0.9216 0.4166 0
M  V30 48 H -2.6055 -3.3504 -1.0995 0
M  V30 49 H -3.4196 -2.1491 1.6125 0
M  V30 50 H -4.0846 -3.6058 0.9178 0
M  V30 51 H -5.1452 -3.3395 -1.5634 0
M  V30 52 H -4.6517 -0.1232 1.2568 0
M  V30 53 H -6.4131 1.1096 0.0301 0
M  V30 54 H -7.3769 1.2053 -2.5664 0
M  V30 55 H -8.6198 0.4625 -1.5236 0
M  V30 56 H -8.1168 -0.3395 -3.0224 0
M  V30 END ATOM
M  V30 BEGIN BOND
M  V30 1 1 1 2
M  V30 2 2 2 3
M  V30 3 1 2 4
M  V30 4 1 3 5
M  V30 5 2 4 6
M  V30 6 2 5 7
M  V30 7 1 6 8
M  V30 8 1 7 9
M  V30 9 1 9 10
M  V30 10 1 10 11
M  V30 11 1 11 12
M  V30 12 1 12 13
M  V30 13 1 13 14
M  V30 14 1 14 15
M  V30 15 1 14 16
M  V30 16 1 15 17
M  V30 17 1 16 18
M  V30 18 2 17 19
M  V30 19 1 17 20
M  V30 20 1 20 21
M  V30 21 1 21 22
M  V30 22 2 22 23
M  V30 23 1 22 24
M  V30 24 1 23 25
M  V30 25 2 24 26
M  V30 26 2 25 27
M  V30 27 1 27 28
M  V30 28 1 6 7
M  V30 29 1 18 20
M  V30 30 1 26 27
M  V30 31 1 3 29
M  V30 32 1 4 30
M  V30 33 1 8 31
M  V30 34 1 8 32
M  V30 35 1 8 33
M  V30 36 1 9 34
M  V30 37 1 9 35
M  V30 38 1 10 36
M  V30 39 1 10 37
M  V30 40 1 11 38
M  V30 41 1 11 39
M  V30 42 1 12 40
M  V30 43 1 12 41
M  V30 44 1 13 42
M  V30 45 1 14 43
M  V30 46 1 15 44
M  V30 47 1 16 45
M  V30 48 1 18 46
M  V30 49 1 18 47
M  V30 50 1 20 48
M  V30 51 1 21 49
M  V30 52 1 21 50
M  V30 53 1 23 51
M  V30 54 1 24 52
M  V30 55 1 26 53
M  V30 56 1 28 54
M  V30 57 1 28 55
M  V30 58 1 28 56
M  V30 END BOND
M  V30 END CTAB
M  END
>  <NO.>
17

>  <Name>
2-[4-(5-bromo-3-methylpyridin-2-yl)butylamino]-5-[(6-methylpyridin-3-yl)methyl]-1,3-diazinan-4-one

>  <SMILES>
Cc1ccc(CC2CNC(NCCCCc3ncc(Br)cc3C)NC2=O)cn1

>  <logBB>
-1.88

>  <Class>
-1

>  <MW>
445.15

>  <nHBAcc>
5

>  <nHBDon>
3

>  <SLogP>
2.63

>  <TopoPSA>
78.94

>  <MMFF94 Energy>
-130.55

$$$$
CN1Cc2c(-c3noc(C(C)(O)CO)n3)ncn2-c2cccc(Cl)c2C1=O
Actelion Java MolfileCreator 2.0

  0  0  0  0  0  0              0 V3000
M  V30 BEGIN CTAB
M  V30 COUNTS 43 46 0 0 0
M  V30 BEGIN ATOM
M  V30 1 Cl -1.5453 4.6414 -3.4184 0
M  V30 2 C -1.9856 2.9716 -3.5402 0
M  V30 3 C -1.8201 2.0515 -2.4901 0
M  V30 4 C -2.4681 2.5464 -4.7853 0
M  V30 5 C -1.427 2.549 -1.1397 0
M  V30 6 C -2.1241 0.6934 -2.7307 0
M  V30 7 C -2.7864 1.2076 -5.0028 0
M  V30 8 O -2.0529 3.496 -0.6704 0
M  V30 9 N -0.4106 1.898 -0.4459 0
M  V30 10 N -1.8852 -0.2958 -1.7497 0
M  V30 11 C -2.6075 0.2771 -3.9826 0
M  V30 12 C 0.2416 0.6995 -0.9371 0
M  V30 13 C -0.0507 2.3521 0.8879 0
M  V30 14 C -0.7828 -0.3626 -0.9236 0
M  V30 15 C -2.6459 -1.4076 -1.4882 0
M  V30 16 C -0.9409 -1.5278 -0.1954 0
M  V30 17 N -2.0992 -2.1738 -0.5722 0
M  V30 18 C -0.0778 -2.0889 0.8537 0
M  V30 19 N -0.259 -3.2851 1.4283 0
M  V30 20 N 1.0016 -1.3788 1.3319 0
M  V30 21 O 0.7873 -3.3675 2.3461 0
M  V30 22 C 1.496 -2.2058 2.2329 0
M  V30 23 C 2.6599 -2.0166 3.1603 0 CFG=1
M  V30 24 O 3.4415 -3.2195 3.1248 0
M  V30 25 C 3.5438 -0.8474 2.6697 0
M  V30 26 C 2.1651 -1.7838 4.5896 0
M  V30 27 O 2.8932 0.4201 2.7405 0
M  V30 28 H -2.5929 3.2616 -5.5965 0
M  V30 29 H -3.1566 0.889 -5.9753 0
M  V30 30 H -2.8261 -0.7687 -4.1923 0
M  V30 31 H 1.1147 0.4702 -0.3218 0
M  V30 32 H 0.6061 0.8801 -1.9551 0
M  V30 33 H 1.0278 2.5317 0.9197 0
M  V30 34 H -0.5687 3.2742 1.1631 0
M  V30 35 H -0.3124 1.5709 1.6079 0
M  V30 36 H -3.5863 -1.6068 -1.9856 0
M  V30 37 H 4.1053 -3.1645 3.8338 0
M  V30 38 H 4.453 -0.7862 3.2791 0
M  V30 39 H 3.879 -1.0092 1.6379 0
M  V30 40 H 3.0083 -1.6351 5.2737 0
M  V30 41 H 1.6151 -2.6563 4.9622 0
M  V30 42 H 1.5044 -0.9128 4.6598 0
M  V30 43 H 2.1274 0.3698 2.1349 0
M  V30 END ATOM
M  V30 BEGIN BOND
M  V30 1 1 1 2
M  V30 2 2 2 3
M  V30 3 1 2 4
M  V30 4 1 3 5
M  V30 5 1 3 6
M  V30 6 2 4 7
M  V30 7 2 5 8
M  V30 8 1 5 9
M  V30 9 1 6 10
M  V30 10 2 6 11
M  V30 11 1 9 12
M  V30 12 1 9 13
M  V30 13 1 10 14
M  V30 14 1 10 15
M  V30 15 2 14 16
M  V30 16 2 15 17
M  V30 17 1 16 18
M  V30 18 2 18 19
M  V30 19 1 18 20
M  V30 20 1 19 21
M  V30 21 2 20 22
M  V30 22 1 22 23
M  V30 23 1 23 24
M  V30 24 1 23 25
M  V30 25 1 23 26
M  V30 26 1 25 27
M  V30 27 1 7 11
M  V30 28 1 12 14
M  V30 29 1 16 17
M  V30 30 1 21 22
M  V30 31 1 4 28
M  V30 32 1 7 29
M  V30 33 1 11 30
M  V30 34 1 12 31
M  V30 35 1 12 32
M  V30 36 1 13 33
M  V30 37 1 13 34
M  V30 38 1 13 35
M  V30 39 1 15 36
M  V30 40 1 24 37
M  V30 41 1 25 38
M  V30 42 1 25 39
M  V30 43 1 26 40
M  V30 44 1 26 41
M  V30 45 1 26 42
M  V30 46 1 27 43
M  V30 END BOND
M  V30 BEGIN COLLECTION
M  V30 MDLV30/STERAC1 ATOMS=(1 23)
M  V30 END COLLECTION
M  V30 END CTAB
M  END
>  <NO.>
18

>  <Name>
m2l-663581

>  <SMILES>
CN1Cc2c(-c3noc(C(C)(O)CO)n3)ncn2-c2cccc(Cl)c2C1=O

>  <logBB>
-1.82

>  <Class>
-1

>  <MW>
389.09

>  <nHBAcc>
7

>  <nHBDon>
2

>  <SLogP>
1.36

>  <TopoPSA>
117.51

>  <MMFF94 Energy>
94.788

$$$$
CN1Cc2c(-c3noc(C(C)(CO)CO)n3)ncn2-c2cccc(Cl)c2C1=O
Actelion Java MolfileCreator 2.0

  0  0  0  0  0  0              0 V3000
M  V30 BEGIN CTAB
M  V30 COUNTS 46 49 0 0 0
M  V30 BEGIN ATOM
M  V30 1 Cl 0.2432 2.6783 -5.8506 0
M  V30 2 C -1.0255 1.7378 -5.1414 0
M  V30 3 C -1.127 1.4955 -3.7602 0
M  V30 4 C -1.939 1.1571 -6.0316 0
M  V30 5 C -0.2229 2.225 -2.8237 0
M  V30 6 C -2.1497 0.6357 -3.301 0
M  V30 7 C -2.957 0.3291 -5.5634 0
M  V30 8 O -0.1223 3.4427 -2.9515 0
M  V30 9 N 0.4265 1.5158 -1.8178 0
M  V30 10 N -2.2447 0.2727 -1.938 0
M  V30 11 C -3.0606 0.0585 -4.2015 0
M  V30 12 C 0.2084 0.102 -1.5773 0
M  V30 13 C 1.2607 2.2259 -0.8623 0
M  V30 14 C -1.185 -0.0235 -1.1084 0
M  V30 15 C -3.389 0.0698 -1.2076 0
M  V30 16 C -1.7532 -0.384 0.0994 0
M  V30 17 N -3.129 -0.3383 0.0135 0
M  V30 18 C -1.086 -0.7632 1.3521 0
M  V30 19 N -1.7096 -1.2458 2.4344 0
M  V30 20 N 0.2754 -0.6233 1.4883 0
M  V30 21 O -0.671 -1.4459 3.3427 0
M  V30 22 C 0.4805 -1.065 2.7119 0
M  V30 23 C 1.7629 -1.1467 3.4946 0
M  V30 24 C 1.7975 0.013 4.5161 0
M  V30 25 C 1.8661 -2.5035 4.226 0
M  V30 26 C 2.9553 -0.972 2.5295 0
M  V30 27 O 0.9202 -0.2219 5.6136 0
M  V30 28 O 2.063 -3.5797 3.3088 0
M  V30 29 H -1.8556 1.3452 -7.1004 0
M  V30 30 H -3.6576 -0.1194 -6.265 0
M  V30 31 H -3.8404 -0.6239 -3.8672 0
M  V30 32 H 0.9461 -0.2763 -0.866 0
M  V30 33 H 0.3571 -0.4482 -2.5137 0
M  V30 34 H 2.2389 1.7381 -0.8157 0
M  V30 35 H 1.4033 3.2731 -1.1404 0
M  V30 36 H 0.7837 2.1835 0.1214 0
M  V30 37 H -4.3798 0.2402 -1.6086 0
M  V30 38 H 2.8048 0.1271 4.9327 0
M  V30 39 H 1.5163 0.9637 4.047 0
M  V30 40 H 0.9695 -2.7243 4.8161 0
M  V30 41 H 2.7239 -2.5016 4.9085 0
M  V30 42 H 2.9447 0.0183 2.0579 0
M  V30 43 H 2.9392 -1.7133 1.722 0
M  V30 44 H 3.9087 -1.0756 3.0599 0
M  V30 45 H 0.869 0.6033 6.129 0
M  V30 46 H 1.9968 -4.4051 3.8211 0
M  V30 END ATOM
M  V30 BEGIN BOND
M  V30 1 1 1 2
M  V30 2 2 2 3
M  V30 3 1 2 4
M  V30 4 1 3 5
M  V30 5 1 3 6
M  V30 6 2 4 7
M  V30 7 2 5 8
M  V30 8 1 5 9
M  V30 9 1 6 10
M  V30 10 2 6 11
M  V30 11 1 9 12
M  V30 12 1 9 13
M  V30 13 1 10 14
M  V30 14 1 10 15
M  V30 15 2 14 16
M  V30 16 2 15 17
M  V30 17 1 16 18
M  V30 18 2 18 19
M  V30 19 1 18 20
M  V30 20 1 19 21
M  V30 21 2 20 22
M  V30 22 1 22 23
M  V30 23 1 23 24
M  V30 24 1 23 25
M  V30 25 1 23 26
M  V30 26 1 24 27
M  V30 27 1 25 28
M  V30 28 1 7 11
M  V30 29 1 12 14
M  V30 30 1 16 17
M  V30 31 1 21 22
M  V30 32 1 4 29
M  V30 33 1 7 30
M  V30 34 1 11 31
M  V30 35 1 12 32
M  V30 36 1 12 33
M  V30 37 1 13 34
M  V30 38 1 13 35
M  V30 39 1 13 36
M  V30 40 1 15 37
M  V30 41 1 24 38
M  V30 42 1 24 39
M  V30 43 1 25 40
M  V30 44 1 25 41
M  V30 45 1 26 42
M  V30 46 1 26 43
M  V30 47 1 26 44
M  V30 48 1 27 45
M  V30 49 1 28 46
M  V30 END BOND
M  V30 END CTAB
M  END
>  <NO.>
20

>  <Name>
bis-hydroxylated-l-663581

>  <SMILES>
CN1Cc2c(-c3noc(C(C)(CO)CO)n3)ncn2-c2cccc(Cl)c2C1=O

>  <logBB>
-1.82

>  <Class>
-1

>  <MW>
403.1

>  <nHBAcc>
7

>  <nHBDon>
2

>  <SLogP>
1.4

>  <TopoPSA>
117.51

>  <MMFF94 Energy>
64.635

$$$$
CN1Cc2c(-c3noc(C(C)(O)O)n3)ncn2-c2cccc(Cl)c2C1=O
Actelion Java MolfileCreator 2.0

  0  0  0  0  0  0              0 V3000
M  V30 BEGIN CTAB
M  V30 COUNTS 40 43 0 0 0
M  V30 BEGIN ATOM
M  V30 1 Cl -0.4073 5.224 -3.426 0
M  V30 2 C -1.0299 3.6092 -3.4623 0
M  V30 3 C -0.937 2.7221 -2.3758 0
M  V30 4 C -1.5902 3.1871 -4.6754 0
M  V30 5 C -0.4553 3.2292 -1.0584 0
M  V30 6 C -1.3946 1.397 -2.5473 0
M  V30 7 C -2.0591 1.8835 -4.8245 0
M  V30 8 O -0.9626 4.2572 -0.6171 0
M  V30 9 N 0.5019 2.4993 -0.36 0
M  V30 10 N -1.2387 0.4309 -1.5275 0
M  V30 11 C -1.9553 0.9833 -3.7672 0
M  V30 12 C 1.008 1.2174 -0.8123 0
M  V30 13 C 0.9445 2.9625 0.9456 0
M  V30 14 C -0.1262 0.2755 -0.7271 0
M  V30 15 C -2.113 -0.5727 -1.1925 0
M  V30 16 C -0.3933 -0.8293 0.0601 0
M  V30 17 N -1.6302 -1.3539 -0.2533 0
M  V30 18 C 0.4259 -1.4463 1.1126 0
M  V30 19 N 1.6305 -1.0012 1.4999 0
M  V30 20 N -0.0177 -2.5591 1.7875 0
M  V30 21 O 1.995 -1.8915 2.5123 0
M  V30 22 C 0.9759 -2.7917 2.6188 0
M  V30 23 C 1.0811 -3.8682 3.6534 0
M  V30 24 O 0.5776 -3.3718 4.8831 0
M  V30 25 O 0.2672 -4.9666 3.2571 0
M  V30 26 C 2.4986 -4.3737 3.8625 0
M  V30 27 H -1.6584 3.8763 -5.5152 0
M  V30 28 H -2.4887 1.5668 -5.7728 0
M  V30 29 H -2.2931 -0.0397 -3.9239 0
M  V30 30 H 1.8668 0.9202 -0.2062 0
M  V30 31 H 1.3614 1.3138 -1.8454 0
M  V30 32 H 2.037 3.0207 0.9476 0
M  V30 33 H 0.5399 3.9476 1.1915 0
M  V30 34 H 0.6147 2.2457 1.7035 0
M  V30 35 H -3.0847 -0.6835 -1.6563 0
M  V30 36 H -0.2999 -3.0035 4.6866 0
M  V30 37 H -0.393 -4.617 2.6293 0
M  V30 38 H 2.922 -4.7738 2.9347 0
M  V30 39 H 3.1591 -3.5853 4.2402 0
M  V30 40 H 2.5115 -5.1841 4.6009 0
M  V30 END ATOM
M  V30 BEGIN BOND
M  V30 1 1 1 2
M  V30 2 2 2 3
M  V30 3 1 2 4
M  V30 4 1 3 5
M  V30 5 1 3 6
M  V30 6 2 4 7
M  V30 7 2 5 8
M  V30 8 1 5 9
M  V30 9 1 6 10
M  V30 10 2 6 11
M  V30 11 1 9 12
M  V30 12 1 9 13
M  V30 13 1 10 14
M  V30 14 1 10 15
M  V30 15 2 14 16
M  V30 16 2 15 17
M  V30 17 1 16 18
M  V30 18 2 18 19
M  V30 19 1 18 20
M  V30 20 1 19 21
M  V30 21 2 20 22
M  V30 22 1 22 23
M  V30 23 1 23 24
M  V30 24 1 23 25
M  V30 25 1 23 26
M  V30 26 1 7 11
M  V30 27 1 12 14
M  V30 28 1 16 17
M  V30 29 1 21 22
M  V30 30 1 4 27
M  V30 31 1 7 28
M  V30 32 1 11 29
M  V30 33 1 12 30
M  V30 34 1 12 31
M  V30 35 1 13 32
M  V30 36 1 13 33
M  V30 37 1 13 34
M  V30 38 1 15 35
M  V30 39 1 24 36
M  V30 40 1 25 37
M  V30 41 1 26 38
M  V30 42 1 26 39
M  V30 43 1 26 40
M  V30 END BOND
M  V30 END CTAB
M  END
>  <NO.>
21

>  <Name>


>  <SMILES>
CN1Cc2c(-c3noc(C(C)(O)O)n3)ncn2-c2cccc(Cl)c2C1=O

>  <logBB>
-1.82

>  <Class>
-1

>  <MW>
375.07

>  <nHBAcc>
7

>  <nHBDon>
2

>  <SLogP>
1.32

>  <TopoPSA>
117.51

>  <MMFF94 Energy>
45.947

$$$$
CCOC(=O)N1CSCC1C(=O)O
Actelion Java MolfileCreator 2.0

  0  0  0  0  0  0              0 V3000
M  V30 BEGIN CTAB
M  V30 COUNTS 24 24 0 0 0
M  V30 BEGIN ATOM
M  V30 1 S 0.3228 -0.8072 -3.2317 0
M  V30 2 C 0.9891 -0.6174 -1.5605 0
M  V30 3 C -1.0079 0.4017 -2.9761 0
M  V30 4 N 0.0772 0.2292 -0.8332 0
M  V30 5 C -1.2194 0.4435 -1.47 0 CFG=2
M  V30 6 C 0.312 0.6735 0.4418 0
M  V30 7 C -2.2807 -0.5833 -1.0629 0
M  V30 8 O -0.4925 1.3356 1.0855 0
M  V30 9 O 1.5354 0.294 0.8972 0
M  V30 10 O -3.4359 -0.6012 -1.4637 0
M  V30 11 O -1.8573 -1.5307 -0.2005 0
M  V30 12 C 1.8641 0.7074 2.2316 0
M  V30 13 C 1.3362 -0.2995 3.2362 0
M  V30 14 H 1.0571 -1.5896 -1.0629 0
M  V30 15 H 1.9823 -0.1594 -1.5889 0
M  V30 16 H -0.6493 1.3703 -3.3395 0
M  V30 17 H -1.8997 0.1248 -3.545 0
M  V30 18 H -1.6145 1.4178 -1.1572 0
M  V30 19 H -2.6532 -2.077 -0.0321 0
M  V30 20 H 1.4926 1.7172 2.4405 0
M  V30 21 H 2.9565 0.7489 2.2926 0
M  V30 22 H 1.633 -0.0254 4.2526 0
M  V30 23 H 0.244 -0.3602 3.1956 0
M  V30 24 H 1.7191 -1.3009 3.014 0
M  V30 END ATOM
M  V30 BEGIN BOND
M  V30 1 1 1 2
M  V30 2 1 1 3
M  V30 3 1 2 4
M  V30 4 1 3 5
M  V30 5 1 4 6
M  V30 6 1 5 7
M  V30 7 2 6 8
M  V30 8 1 6 9
M  V30 9 2 7 10
M  V30 10 1 7 11
M  V30 11 1 9 12
M  V30 12 1 12 13
M  V30 13 1 4 5
M  V30 14 1 2 14
M  V30 15 1 2 15
M  V30 16 1 3 16
M  V30 17 1 3 17
M  V30 18 1 5 18
M  V30 19 1 11 19
M  V30 20 1 12 20
M  V30 21 1 12 21
M  V30 22 1 13 22
M  V30 23 1 13 23
M  V30 24 1 13 24
M  V30 END BOND
M  V30 BEGIN COLLECTION
M  V30 MDLV30/STERAC1 ATOMS=(1 5)
M  V30 END COLLECTION
M  V30 END CTAB
M  END
>  <NO.>
24

>  <Name>
telmesteine

>  <SMILES>
CCOC(=O)N1CSCC1C(=O)O

>  <logBB>
-1.72

>  <Class>
-1

>  <MW>
205.04

>  <nHBAcc>
4

>  <nHBDon>
1

>  <SLogP>
0.6

>  <TopoPSA>
66.84

>  <MMFF94 Energy>
-67.463

$$$$
O=C(O)CCCc1ccc(N(CCCl)CCCl)cc1
Actelion Java MolfileCreator 2.0

  0  0  0  0  0  0              0 V3000
M  V30 BEGIN CTAB
M  V30 COUNTS 38 38 0 0 0
M  V30 BEGIN ATOM
M  V30 1 Cl 2.5647 -3.3673 3.9293 0
M  V30 2 C 1.3347 -2.9175 2.7225 0
M  V30 3 C 0.3717 -1.8767 3.2931 0
M  V30 4 N -0.636 -1.4602 2.2986 0
M  V30 5 C -0.4366 -0.3489 1.4848 0
M  V30 6 C -1.8646 -2.2757 2.2188 0
M  V30 7 C -1.4868 0.2549 0.7725 0
M  V30 8 C 0.8254 0.2472 1.3231 0
M  V30 9 C -1.9345 -3.0874 0.923 0
M  V30 10 C -1.293 1.3707 -0.0556 0
M  V30 11 C 1.0327 1.363 0.4975 0
M  V30 12 Cl -3.3839 -4.1245 0.9108 0
M  V30 13 C -0.027 1.9346 -0.2039 0
M  V30 14 C 0.189 3.1276 -1.0993 0
M  V30 15 C 0.0662 2.8065 -2.5917 0
M  V30 16 C 1.166 1.8691 -3.0924 0
M  V30 17 C 1.0755 1.6591 -4.5793 0
M  V30 18 O 0.2356 2.1021 -5.3433 0
M  V30 19 O 2.0745 0.8788 -5.0374 0
M  V30 20 H 1.8583 -2.5464 1.8372 0
M  V30 21 H 0.8023 -3.8309 2.4411 0
M  V30 22 H 0.9134 -1.0096 3.6912 0
M  V30 23 H -0.1391 -2.3035 4.1665 0
M  V30 24 H -1.8928 -2.9763 3.0638 0
M  V30 25 H -2.7538 -1.6466 2.3453 0
M  V30 26 H -2.5049 -0.114 0.8529 0
M  V30 27 H 1.7019 -0.1456 1.829 0
M  V30 28 H -1.0619 -3.7391 0.8194 0
M  V30 29 H -1.9839 -2.448 0.0379 0
M  V30 30 H -2.1485 1.7955 -0.5767 0
M  V30 31 H 2.0363 1.774 0.4123 0
M  V30 32 H 1.1693 3.5783 -0.8989 0
M  V30 33 H -0.5505 3.8942 -0.834 0
M  V30 34 H 0.116 3.7498 -3.1512 0
M  V30 35 H -0.9174 2.3722 -2.8109 0
M  V30 36 H 2.1488 2.2979 -2.8673 0
M  V30 37 H 1.0823 0.8892 -2.6108 0
M  V30 38 H 1.9024 0.8145 -6.0003 0
M  V30 END ATOM
M  V30 BEGIN BOND
M  V30 1 1 1 2
M  V30 2 1 2 3
M  V30 3 1 3 4
M  V30 4 1 4 5
M  V30 5 1 4 6
M  V30 6 2 5 7
M  V30 7 1 5 8
M  V30 8 1 6 9
M  V30 9 1 7 10
M  V30 10 2 8 11
M  V30 11 1 9 12
M  V30 12 2 10 13
M  V30 13 1 13 14
M  V30 14 1 14 15
M  V30 15 1 15 16
M  V30 16 1 16 17
M  V30 17 2 17 18
M  V30 18 1 17 19
M  V30 19 1 11 13
M  V30 20 1 2 20
M  V30 21 1 2 21
M  V30 22 1 3 22
M  V30 23 1 3 23
M  V30 24 1 6 24
M  V30 25 1 6 25
M  V30 26 1 7 26
M  V30 27 1 8 27
M  V30 28 1 9 28
M  V30 29 1 9 29
M  V30 30 1 10 30
M  V30 31 1 11 31
M  V30 32 1 14 32
M  V30 33 1 14 33
M  V30 34 1 15 34
M  V30 35 1 15 35
M  V30 36 1 16 36
M  V30 37 1 16 37
M  V30 38 1 19 38
M  V30 END BOND
M  V30 END CTAB
M  END
>  <NO.>
25

>  <Name>
chlorambucil

>  <SMILES>
O=C(O)CCCc1ccc(N(CCCl)CCCl)cc1

>  <logBB>
-1.7

>  <Class>
-1

>  <MW>
303.08

>  <nHBAcc>
2

>  <nHBDon>
1

>  <SLogP>
3.38

>  <TopoPSA>
40.54

>  <MMFF94 Energy>
29.347

$$$$
O=C1c2c(O)cc(O)cc2CC(c2ccc(O)c(O)c2)C1O
Actelion Java MolfileCreator 2.0

  0  0  0  0  0  0              0 V3000
M  V30 BEGIN CTAB
M  V30 COUNTS 36 38 0 0 0
M  V30 BEGIN ATOM
M  V30 1 O -0.8817 -0.7214 -3.4503 0
M  V30 2 C -0.3198 -0.5919 -2.3645 0
M  V30 3 C 0.9297 -1.3426 -1.9946 0
M  V30 4 C -0.8502 0.4402 -1.3734 0
M  V30 5 C 1.5273 -2.2594 -2.8763 0
M  V30 6 C 1.5303 -1.1131 -0.7353 0
M  V30 7 O -0.2376 1.6906 -1.686 0
M  V30 8 C -0.5688 -0.0103 0.0642 0
M  V30 9 O 0.9709 -2.5318 -4.0939 0
M  V30 10 C 2.7075 -2.92 -2.5272 0
M  V30 11 C 2.7281 -1.7704 -0.403 0
M  V30 12 C 0.9429 -0.1469 0.2679 0
M  V30 13 C -1.2288 0.8733 1.1128 0
M  V30 14 C 3.3001 -2.6655 -1.2984 0
M  V30 15 C -0.7949 2.1863 1.3542 0
M  V30 16 C -2.3094 0.3718 1.8652 0
M  V30 17 O 4.4562 -3.3247 -1.0044 0
M  V30 18 C -1.4219 2.9562 2.3256 0
M  V30 19 C -2.938 1.1553 2.8396 0
M  V30 20 O -0.9832 4.2298 2.5528 0
M  V30 21 C -2.4855 2.448 3.0643 0
M  V30 22 O -3.0569 3.2625 4.0025 0
M  V30 23 H -1.933 0.538 -1.5204 0
M  V30 24 H -0.5197 1.9076 -2.5954 0
M  V30 25 H -0.9995 -1.0175 0.1782 0
M  V30 26 H 1.5379 -3.1403 -4.5933 0
M  V30 27 H 3.1781 -3.6296 -3.2008 0
M  V30 28 H 3.1994 -1.576 0.5572 0
M  V30 29 H 1.1344 -0.5134 1.2851 0
M  V30 30 H 1.4616 0.814 0.1668 0
M  V30 31 H 0.022 2.6231 0.7853 0
M  V30 32 H -2.6733 -0.6404 1.6972 0
M  V30 33 H 4.7757 -3.0323 -0.1344 0
M  V30 34 H -3.7676 0.74 3.4025 0
M  V30 35 H -1.5731 4.5691 3.2548 0
M  V30 36 H -3.7896 2.7762 4.4179 0
M  V30 END ATOM
M  V30 BEGIN BOND
M  V30 1 2 1 2
M  V30 2 1 2 3
M  V30 3 1 2 4
M  V30 4 2 3 5
M  V30 5 1 3 6
M  V30 6 1 4 7
M  V30 7 1 4 8
M  V30 8 1 5 9
M  V30 9 1 5 10
M  V30 10 2 6 11
M  V30 11 1 6 12
M  V30 12 1 8 13
M  V30 13 2 10 14
M  V30 14 2 13 15
M  V30 15 1 13 16
M  V30 16 1 14 17
M  V30 17 1 15 18
M  V30 18 2 16 19
M  V30 19 1 18 20
M  V30 20 2 18 21
M  V30 21 1 21 22
M  V30 22 1 8 12
M  V30 23 1 11 14
M  V30 24 1 19 21
M  V30 25 1 4 23
M  V30 26 1 7 24
M  V30 27 1 8 25
M  V30 28 1 9 26
M  V30 29 1 10 27
M  V30 30 1 11 28
M  V30 31 1 12 29
M  V30 32 1 12 30
M  V30 33 1 15 31
M  V30 34 1 16 32
M  V30 35 1 17 33
M  V30 36 1 19 34
M  V30 37 1 20 35
M  V30 38 1 22 36
M  V30 END BOND
M  V30 END CTAB
M  END
>  <NO.>
26

>  <Name>
quercetin

>  <SMILES>
O=C1c2c(O)cc(O)cc2CC(c2ccc(O)c(O)c2)C1O

>  <logBB>
-1.7

>  <Class>
-1

>  <MW>
302.08

>  <nHBAcc>
6

>  <nHBDon>
5

>  <SLogP>
1.39

>  <TopoPSA>
118.22

>  <MMFF94 Energy>
72.943

$$$$
CC(C(=O)O)c1ccc(-c2ccccc2)c(F)c1
Actelion Java MolfileCreator 2.0

  0  0  0  0  0  0              0 V3000
M  V30 BEGIN CTAB
M  V30 COUNTS 31 32 0 0 0
M  V30 BEGIN ATOM
M  V30 1 F 0.0797 2.1544 -1.1166 0
M  V30 2 C 0.222 0.9609 -0.5185 0
M  V30 3 C -0.8851 0.1175 -0.3485 0
M  V30 4 C 1.4961 0.606 -0.0707 0
M  V30 5 C -2.2314 0.4901 -0.8199 0
M  V30 6 C -0.6616 -1.1123 0.2937 0
M  V30 7 C 1.7088 -0.6226 0.5678 0
M  V30 8 C -2.4437 0.9444 -2.1327 0
M  V30 9 C -3.3492 0.3952 0.028 0
M  V30 10 C 0.613 -1.4775 0.7454 0
M  V30 11 C 3.0838 -1.0324 1.0632 0 CFG=2
M  V30 12 C -3.7221 1.2882 -2.582 0
M  V30 13 C -4.6284 0.7388 -0.4191 0
M  V30 14 C 3.6113 -0.0772 2.1182 0
M  V30 15 C 4.0859 -1.1666 -0.0856 0
M  V30 16 C -4.8141 1.1843 -1.7249 0
M  V30 17 O 4.3709 0.8626 1.9461 0
M  V30 18 O 3.1325 -0.3457 3.3514 0
M  V30 19 H 2.3111 1.309 -0.2269 0
M  V30 20 H -1.4855 -1.8094 0.438 0
M  V30 21 H -1.6063 1.0329 -2.8224 0
M  V30 22 H -3.2289 0.0632 1.0573 0
M  V30 23 H 0.7376 -2.4406 1.2377 0
M  V30 24 H 3.0244 -2.0215 1.5379 0
M  V30 25 H -3.861 1.6386 -3.6014 0
M  V30 26 H -5.4774 0.6624 0.2552 0
M  V30 27 H 4.2538 -0.2137 -0.6 0
M  V30 28 H 3.735 -1.8909 -0.829 0
M  V30 29 H 5.0574 -1.5082 0.2887 0
M  V30 30 H -5.8076 1.4539 -2.0732 0
M  V30 31 H 3.5168 0.359 3.9142 0
M  V30 END ATOM
M  V30 BEGIN BOND
M  V30 1 1 1 2
M  V30 2 2 2 3
M  V30 3 1 2 4
M  V30 4 1 3 5
M  V30 5 1 3 6
M  V30 6 2 4 7
M  V30 7 2 5 8
M  V30 8 1 5 9
M  V30 9 2 6 10
M  V30 10 1 7 11
M  V30 11 1 8 12
M  V30 12 2 9 13
M  V30 13 1 11 14
M  V30 14 1 11 15
M  V30 15 2 12 16
M  V30 16 2 14 17
M  V30 17 1 14 18
M  V30 18 1 7 10
M  V30 19 1 13 16
M  V30 20 1 4 19
M  V30 21 1 6 20
M  V30 22 1 8 21
M  V30 23 1 9 22
M  V30 24 1 10 23
M  V30 25 1 11 24
M  V30 26 1 12 25
M  V30 27 1 13 26
M  V30 28 1 15 27
M  V30 29 1 15 28
M  V30 30 1 15 29
M  V30 31 1 16 30
M  V30 32 1 18 31
M  V30 END BOND
M  V30 BEGIN COLLECTION
M  V30 MDLV30/STERAC1 ATOMS=(1 11)
M  V30 END COLLECTION
M  V30 END CTAB
M  END
>  <NO.>
28

>  <Name>
flurbiprofen

>  <SMILES>
CC(C(=O)O)c1ccc(-c2ccccc2)c(F)c1

>  <logBB>
-1.68

>  <Class>
-1

>  <MW>
244.09

>  <nHBAcc>
1

>  <nHBDon>
1

>  <SLogP>
3.68

>  <TopoPSA>
37.3

>  <MMFF94 Energy>
45.805

$$$$
C=CCc1cccc(/C=N\NC(=O)CN2CCN(Cc3ccc(S(N)(=O)=O)cc3)CC2)c1O
Actelion Java MolfileCreator 2.0

  0  0  0  0  0  0              0 V3000
M  V30 BEGIN CTAB
M  V30 COUNTS 62 64 0 0 0
M  V30 BEGIN ATOM
M  V30 1 S -2.9659 -5.3757 3.9293 0
M  V30 2 O -4.0962 -5.8158 3.1447 0
M  V30 3 O -3.0656 -4.3057 4.8948 0
M  V30 4 N -2.4477 -6.7231 4.7865 0
M  V30 5 C -1.5935 -5.0717 2.8578 0
M  V30 6 C -0.5763 -4.2069 3.2675 0
M  V30 7 C -1.563 -5.6594 1.5906 0
M  V30 8 C 0.4898 -3.945 2.406 0
M  V30 9 C -0.4935 -5.3934 0.733 0
M  V30 10 C 0.5416 -4.5335 1.1316 0
M  V30 11 C 1.7035 -4.2424 0.2024 0
M  V30 12 N 1.8319 -2.8138 -0.1269 0
M  V30 13 C 0.7266 -2.3579 -0.9966 0
M  V30 14 C 3.1114 -2.5657 -0.8216 0
M  V30 15 C 0.8824 -0.8757 -1.4109 0
M  V30 16 C 3.2747 -1.0834 -1.2246 0
M  V30 17 N 2.1698 -0.6057 -2.0788 0
M  V30 18 C 2.3572 0.8247 -2.3958 0
M  V30 19 C 1.3604 1.3123 -3.4551 0
M  V30 20 O 1.5139 1.1007 -4.656 0
M  V30 21 N 0.2967 2.0205 -2.9006 0
M  V30 22 N -0.7023 2.4969 -3.6967 0
M  V30 23 C -1.6554 3.2094 -3.173 0
M  V30 24 C -1.7336 3.7679 -1.8117 0
M  V30 25 C -0.645 4.4123 -1.206 0
M  V30 26 C -2.9647 3.6909 -1.1563 0
M  V30 27 O 0.558 4.5548 -1.8482 0
M  V30 28 C -0.7668 4.9445 0.0845 0
M  V30 29 C -3.098 4.2276 0.1225 0
M  V30 30 C -2.0082 4.8479 0.7375 0
M  V30 31 C 0.3779 5.6574 0.7686 0
M  V30 32 C 0.3637 7.1379 0.5097 0
M  V30 33 C 0.2199 8.0742 1.4569 0
M  V30 34 H -3.0645 -7.5128 4.5954 0
M  V30 35 H -2.3657 -6.4924 5.7769 0
M  V30 36 H -0.6069 -3.7327 4.2456 0
M  V30 37 H -2.3639 -6.319 1.2641 0
M  V30 38 H 1.2812 -3.2666 2.7203 0
M  V30 39 H -0.4766 -5.8541 -0.2525 0
M  V30 40 H 1.6266 -4.8492 -0.7096 0
M  V30 41 H 2.608 -4.5864 0.7225 0
M  V30 42 H -0.231 -2.4529 -0.4718 0
M  V30 43 H 0.6668 -2.9774 -1.9018 0
M  V30 44 H 3.9443 -2.8302 -0.1587 0
M  V30 45 H 3.194 -3.1946 -1.7185 0
M  V30 46 H 0.053 -0.638 -2.0863 0
M  V30 47 H 0.7734 -0.2427 -0.5197 0
M  V30 48 H 4.224 -0.9809 -1.7642 0
M  V30 49 H 3.3479 -0.4717 -0.3149 0
M  V30 50 H 3.3546 0.9869 -2.824 0
M  V30 51 H 2.2906 1.4467 -1.4944 0
M  V30 52 H 0.2194 2.1017 -1.8911 0
M  V30 53 H -2.5093 3.4513 -3.8305 0
M  V30 54 H -3.8192 3.2103 -1.6269 0
M  V30 55 H 0.4871 4.1901 -2.756 0
M  V30 56 H -4.0519 4.1696 0.6424 0
M  V30 57 H -2.1331 5.2728 1.7326 0
M  V30 58 H 1.3375 5.2437 0.4362 0
M  V30 59 H 0.3345 5.4488 1.8459 0
M  V30 60 H 0.4938 7.4482 -0.5255 0
M  V30 61 H 0.2254 9.1288 1.1977 0
M  V30 62 H 0.0942 7.8156 2.5035 0
M  V30 END ATOM
M  V30 BEGIN BOND
M  V30 1 2 1 2
M  V30 2 2 1 3
M  V30 3 1 1 4
M  V30 4 1 1 5
M  V30 5 2 5 6
M  V30 6 1 5 7
M  V30 7 1 6 8
M  V30 8 2 7 9
M  V30 9 2 8 10
M  V30 10 1 10 11
M  V30 11 1 11 12
M  V30 12 1 12 13
M  V30 13 1 12 14
M  V30 14 1 13 15
M  V30 15 1 14 16
M  V30 16 1 15 17
M  V30 17 1 17 18
M  V30 18 1 18 19
M  V30 19 2 19 20
M  V30 20 1 19 21
M  V30 21 1 21 22
M  V30 22 2 22 23
M  V30 23 1 23 24
M  V30 24 2 24 25
M  V30 25 1 24 26
M  V30 26 1 25 27
M  V30 27 1 25 28
M  V30 28 2 26 29
M  V30 29 2 28 30
M  V30 30 1 28 31
M  V30 31 1 31 32
M  V30 32 2 32 33
M  V30 33 1 9 10
M  V30 34 1 16 17
M  V30 35 1 29 30
M  V30 36 1 4 34
M  V30 37 1 4 35
M  V30 38 1 6 36
M  V30 39 1 7 37
M  V30 40 1 8 38
M  V30 41 1 9 39
M  V30 42 1 11 40
M  V30 43 1 11 41
M  V30 44 1 13 42
M  V30 45 1 13 43
M  V30 46 1 14 44
M  V30 47 1 14 45
M  V30 48 1 15 46
M  V30 49 1 15 47
M  V30 50 1 16 48
M  V30 51 1 16 49
M  V30 52 1 18 50
M  V30 53 1 18 51
M  V30 54 1 21 52
M  V30 55 1 23 53
M  V30 56 1 26 54
M  V30 57 1 27 55
M  V30 58 1 29 56
M  V30 59 1 30 57
M  V30 60 1 31 58
M  V30 61 1 31 59
M  V30 62 1 32 60
M  V30 63 1 33 61
M  V30 64 1 33 62
M  V30 END BOND
M  V30 END CTAB
M  END
>  <NO.>
29

>  <Name>
schembl18285121

>  <SMILES>
C=CCc1cccc(/C=N\NC(=O)CN2CCN(Cc3ccc(S(N)(=O)=O)cc3)CC2)c1O

>  <logBB>
-1.67

>  <Class>
-1

>  <MW>
471.19

>  <nHBAcc>
7

>  <nHBDon>
3

>  <SLogP>
1.04

>  <TopoPSA>
128.33

>  <MMFF94 Energy>
132.98

$$$$
CC(=O)Nc1cccc(-c2csc(N=C(N)N)n2)c1
Actelion Java MolfileCreator 2.0

  0  0  0  0  0  0              0 V3000
M  V30 BEGIN CTAB
M  V30 COUNTS 32 33 0 0 0
M  V30 BEGIN ATOM
M  V30 1 S -1.3535 -3.2668 -1.8316 0
M  V30 2 C -2.3973 -2.5051 -0.6764 0
M  V30 3 C -0.2453 -1.9705 -1.6975 0
M  V30 4 N -1.9387 -1.3503 -0.2247 0
M  V30 5 N -3.55 -3.1504 -0.3591 0
M  V30 6 C -0.7127 -1.0424 -0.7914 0
M  V30 7 C -4.3199 -2.6483 0.5481 0
M  V30 8 C -0.0182 0.1925 -0.4473 0
M  V30 9 N -5.4665 -3.2783 0.8744 0
M  V30 10 N -4.1659 -1.5221 1.2734 0
M  V30 11 C 1.3836 0.2739 -0.4336 0
M  V30 12 C -0.7645 1.3264 -0.1059 0
M  V30 13 C 2.0358 1.471 -0.1006 0
M  V30 14 C -0.1236 2.5184 0.2291 0
M  V30 15 N 3.4465 1.4593 -0.0974 0
M  V30 16 C 1.2709 2.5896 0.2318 0
M  V30 17 C 4.2921 2.55 0.0057 0
M  V30 18 O 3.9702 3.7299 0.0811 0
M  V30 19 C 5.7436 2.1408 -0.0108 0
M  V30 20 H 0.6586 -1.9565 -2.2878 0
M  V30 21 H -6.1947 -2.8233 1.3991 0
M  V30 22 H -5.6913 -4.1277 0.3744 0
M  V30 23 H -3.3208 -0.9794 1.1028 0
M  V30 24 H -4.6816 -1.3436 2.1179 0
M  V30 25 H 1.9731 -0.6066 -0.6733 0
M  V30 26 H -1.8522 1.2888 -0.1059 0
M  V30 27 H -0.7094 3.3962 0.491 0
M  V30 28 H 3.8858 0.5546 -0.2105 0
M  V30 29 H 1.7308 3.5333 0.5098 0
M  V30 30 H 5.9203 1.3428 0.7161 0
M  V30 31 H 6.3713 2.9972 0.2509 0
M  V30 32 H 6.0128 1.7903 -1.0109 0
M  V30 END ATOM
M  V30 BEGIN BOND
M  V30 1 1 1 2
M  V30 2 1 1 3
M  V30 3 2 2 4
M  V30 4 1 2 5
M  V30 5 2 3 6
M  V30 6 2 5 7
M  V30 7 1 6 8
M  V30 8 1 7 9
M  V30 9 1 7 10
M  V30 10 2 8 11
M  V30 11 1 8 12
M  V30 12 1 11 13
M  V30 13 2 12 14
M  V30 14 1 13 15
M  V30 15 2 13 16
M  V30 16 1 15 17
M  V30 17 2 17 18
M  V30 18 1 17 19
M  V30 19 1 4 6
M  V30 20 1 14 16
M  V30 21 1 3 20
M  V30 22 1 9 21
M  V30 23 1 9 22
M  V30 24 1 10 23
M  V30 25 1 10 24
M  V30 26 1 11 25
M  V30 27 1 12 26
M  V30 28 1 14 27
M  V30 29 1 15 28
M  V30 30 1 16 29
M  V30 31 1 19 30
M  V30 32 1 19 31
M  V30 33 1 19 32
M  V30 END BOND
M  V30 END CTAB
M  END
>  <NO.>
32

>  <Name>
compound 34

>  <SMILES>
CC(=O)Nc1cccc(-c2csc(N=C(N)N)n2)c1

>  <logBB>
-1.57

>  <Class>
-1

>  <MW>
275.08

>  <nHBAcc>
4

>  <nHBDon>
3

>  <SLogP>
1.67

>  <TopoPSA>
106.39

>  <MMFF94 Energy>
-118.85

$$$$
O=C(O)c1nc2ccc(C(F)(F)F)cc2nc1NCc1ccc(C(F)(F)F)cc1
Actelion Java MolfileCreator 2.0

  0  0  0  0  0  0              0 V3000
M  V30 BEGIN CTAB
M  V30 COUNTS 40 42 0 0 0
M  V30 BEGIN ATOM
M  V30 1 F 4.7565 -2.2941 -2.5402 0
M  V30 2 C 4.4084 -3.0945 -1.4955 0
M  V30 3 F 5.1218 -2.6497 -0.4258 0
M  V30 4 F 4.9015 -4.3287 -1.7905 0
M  V30 5 C 2.9234 -3.0969 -1.2286 0
M  V30 6 C 2.1771 -1.9154 -1.3655 0
M  V30 7 C 2.2646 -4.255 -0.8077 0
M  V30 8 C 0.8122 -1.8757 -1.108 0
M  V30 9 C 0.8921 -4.2237 -0.5483 0
M  V30 10 N 0.1462 -0.7158 -1.2608 0
M  V30 11 C 0.1555 -3.0553 -0.6924 0
M  V30 12 C -1.1846 -0.6939 -0.9976 0
M  V30 13 N -1.1586 -3.0658 -0.4336 0
M  V30 14 N -1.8706 0.4888 -1.2118 0
M  V30 15 C -1.8183 -1.8803 -0.5933 0
M  V30 16 C -1.1907 1.7276 -1.5131 0
M  V30 17 C -3.2797 -1.8809 -0.2834 0
M  V30 18 C -0.8654 2.4691 -0.2372 0
M  V30 19 O -4.0117 -0.9048 -0.2377 0
M  V30 20 O -3.77 -3.114 -0.0339 0
M  V30 21 C 0.3938 2.3335 0.3618 0
M  V30 22 C -1.829 3.2745 0.3859 0
M  V30 23 C 0.6907 3.0012 1.5523 0
M  V30 24 C -1.5329 3.9432 1.5764 0
M  V30 25 C -0.2718 3.8086 2.1758 0
M  V30 26 C 0.0549 4.5463 3.4503 0
M  V30 27 F 0.9686 3.8983 4.2264 0
M  V30 28 F 0.5756 5.7824 3.2143 0
M  V30 29 F -1.032 4.7458 4.248 0
M  V30 30 H 2.6705 -0.9977 -1.6848 0
M  V30 31 H 2.8111 -5.189 -0.6803 0
M  V30 32 H 0.3841 -5.1303 -0.2249 0
M  V30 33 H -2.7994 0.5591 -0.7981 0
M  V30 34 H -0.2949 1.587 -2.1304 0
M  V30 35 H -1.8591 2.3527 -2.1184 0
M  V30 36 H -4.7185 -2.9761 0.1614 0
M  V30 37 H 1.1484 1.6968 -0.0971 0
M  V30 38 H -2.8187 3.384 -0.0534 0
M  V30 39 H 1.678 2.8821 1.9964 0
M  V30 40 H -2.2955 4.5677 2.0401 0
M  V30 END ATOM
M  V30 BEGIN BOND
M  V30 1 1 1 2
M  V30 2 1 2 3
M  V30 3 1 2 4
M  V30 4 1 2 5
M  V30 5 2 5 6
M  V30 6 1 5 7
M  V30 7 1 6 8
M  V30 8 2 7 9
M  V30 9 2 8 10
M  V30 10 1 8 11
M  V30 11 1 10 12
M  V30 12 2 11 13
M  V30 13 1 12 14
M  V30 14 2 12 15
M  V30 15 1 14 16
M  V30 16 1 15 17
M  V30 17 1 16 18
M  V30 18 2 17 19
M  V30 19 1 17 20
M  V30 20 2 18 21
M  V30 21 1 18 22
M  V30 22 1 21 23
M  V30 23 2 22 24
M  V30 24 2 23 25
M  V30 25 1 25 26
M  V30 26 1 26 27
M  V30 27 1 26 28
M  V30 28 1 26 29
M  V30 29 1 9 11
M  V30 30 1 13 15
M  V30 31 1 24 25
M  V30 32 1 6 30
M  V30 33 1 7 31
M  V30 34 1 9 32
M  V30 35 1 14 33
M  V30 36 1 16 34
M  V30 37 1 16 35
M  V30 38 1 20 36
M  V30 39 1 21 37
M  V30 40 1 22 38
M  V30 41 1 23 39
M  V30 42 1 24 40
M  V30 END BOND
M  V30 END CTAB
M  END
>  <NO.>
33

>  <Name>
y22

>  <SMILES>
O=C(O)c1nc2ccc(C(F)(F)F)cc2nc1NCc1ccc(C(F)(F)F)cc1

>  <logBB>
-1.57

>  <Class>
-1

>  <MW>
415.08

>  <nHBAcc>
4

>  <nHBDon>
2

>  <SLogP>
4.98

>  <TopoPSA>
75.11

>  <MMFF94 Energy>
163.09

$$$$
CN=C(NC#N)Nc1cccc(-c2csc(N=C(N)N)n2)c1
Actelion Java MolfileCreator 2.0

  0  0  0  0  0  0              0 V3000
M  V30 BEGIN CTAB
M  V30 COUNTS 36 37 0 0 0
M  V30 BEGIN ATOM
M  V30 1 S -1.9831 -3.6514 -1.8244 0
M  V30 2 C -3.0929 -2.7168 -0.877 0
M  V30 3 C -0.6823 -2.6947 -1.2595 0
M  V30 4 N -2.5167 -1.7541 -0.1772 0
M  V30 5 N -4.4055 -3.0609 -0.9372 0
M  V30 6 C -1.1487 -1.7268 -0.3954 0
M  V30 7 C -5.2816 -2.2893 -0.3848 0
M  V30 8 C -0.304 -0.748 0.2798 0
M  V30 9 N -6.5881 -2.6175 -0.4382 0
M  V30 10 N -5.1026 -1.1262 0.2736 0
M  V30 11 C 0.8821 -0.2666 -0.2983 0
M  V30 12 C -0.6918 -0.2558 1.5315 0
M  V30 13 C 1.6854 0.682 0.3579 0
M  V30 14 C 0.0929 0.6849 2.196 0
M  V30 15 N 2.8392 1.1574 -0.2935 0
M  V30 16 C 1.2711 1.1502 1.6105 0
M  V30 17 C 3.5248 2.3284 -0.1214 0
M  V30 18 N 4.7841 2.5146 -0.2773 0
M  V30 19 N 2.7047 3.4264 0.1978 0
M  V30 20 C 5.6314 1.3818 -0.6064 0
M  V30 21 C 3.2913 4.6206 0.2437 0
M  V30 22 N 3.7183 5.6959 0.2976 0
M  V30 23 H 0.3285 -2.9024 -1.5766 0
M  V30 24 H -7.3163 -1.9589 -0.2182 0
M  V30 25 H -6.8376 -3.4664 -0.9273 0
M  V30 26 H -4.1422 -0.8086 0.3898 0
M  V30 27 H -5.8103 -0.7207 0.8617 0
M  V30 28 H 1.175 -0.6093 -1.2881 0
M  V30 29 H -1.6071 -0.6122 2.0012 0
M  V30 30 H -0.2106 1.0516 3.1738 0
M  V30 31 H 3.3075 0.4576 -0.8515 0
M  V30 32 H 1.8751 1.865 2.1663 0
M  V30 33 H 1.6956 3.3155 0.1367 0
M  V30 34 H 6.6798 1.6908 -0.5493 0
M  V30 35 H 5.4983 0.5535 0.0976 0
M  V30 36 H 5.4453 1.0326 -1.627 0
M  V30 END ATOM
M  V30 BEGIN BOND
M  V30 1 1 1 2
M  V30 2 1 1 3
M  V30 3 2 2 4
M  V30 4 1 2 5
M  V30 5 2 3 6
M  V30 6 2 5 7
M  V30 7 1 6 8
M  V30 8 1 7 9
M  V30 9 1 7 10
M  V30 10 2 8 11
M  V30 11 1 8 12
M  V30 12 1 11 13
M  V30 13 2 12 14
M  V30 14 1 13 15
M  V30 15 2 13 16
M  V30 16 1 15 17
M  V30 17 2 17 18
M  V30 18 1 17 19
M  V30 19 1 18 20
M  V30 20 1 19 21
M  V30 21 3 21 22
M  V30 22 1 4 6
M  V30 23 1 14 16
M  V30 24 1 3 23
M  V30 25 1 9 24
M  V30 26 1 9 25
M  V30 27 1 10 26
M  V30 28 1 10 27
M  V30 29 1 11 28
M  V30 30 1 12 29
M  V30 31 1 14 30
M  V30 32 1 15 31
M  V30 33 1 16 32
M  V30 34 1 19 33
M  V30 35 1 20 34
M  V30 36 1 20 35
M  V30 37 1 20 36
M  V30 END BOND
M  V30 END CTAB
M  END
>  <NO.>
35

>  <Name>
chebi: 145922

>  <SMILES>
CN=C(NC#N)Nc1cccc(-c2csc(N=C(N)N)n2)c1

>  <logBB>
-1.54

>  <Class>
-1

>  <MW>
314.11

>  <nHBAcc>
5

>  <nHBDon>
4

>  <SLogP>
1.18

>  <TopoPSA>
137.5

>  <MMFF94 Energy>
-213.6

$$$$
NC(N)=Nc1nc(-c2ccc(O)c(O)c2)cs1
Actelion Java MolfileCreator 2.0

  0  0  0  0  0  0              0 V3000
M  V30 BEGIN CTAB
M  V30 COUNTS 27 28 0 0 0
M  V30 BEGIN ATOM
M  V30 1 S 2.0779 -2.3179 1.5181 0
M  V30 2 C 2.2056 -0.6019 1.3123 0
M  V30 3 C 0.5623 -2.3088 0.7245 0
M  V30 4 N 1.1719 -0.0622 0.6894 0
M  V30 5 N 3.3217 0.0014 1.7978 0
M  V30 6 C 0.2373 -1.0243 0.3435 0
M  V30 7 C 3.4867 1.2669 1.5996 0
M  V30 8 C -0.9937 -0.6568 -0.3471 0
M  V30 9 N 4.5902 1.8788 2.0746 0
M  V30 10 N 2.6882 2.1435 0.9579 0
M  V30 11 C -1.627 -1.5341 -1.243 0
M  V30 12 C -1.5523 0.6144 -0.1213 0
M  V30 13 C -2.7977 -1.1347 -1.8819 0
M  V30 14 C -2.7293 1.0048 -0.765 0
M  V30 15 O -3.453 -1.9477 -2.7661 0
M  V30 16 C -3.3425 0.1236 -1.64 0
M  V30 17 O -4.4915 0.5028 -2.2717 0
M  V30 18 H 0.0031 -3.2236 0.5981 0
M  V30 19 H 4.6584 2.8804 2.141 0
M  V30 20 H 5.2509 1.3151 2.5918 0
M  V30 21 H 1.8295 1.7719 0.5554 0
M  V30 22 H 3.0086 3.0431 0.6434 0
M  V30 23 H -1.2004 -2.5097 -1.4503 0
M  V30 24 H -1.0731 1.3074 0.5679 0
M  V30 25 H -3.1595 1.9849 -0.584 0
M  V30 26 H -2.9489 -2.7745 -2.8556 0
M  V30 27 H -4.7311 -0.2645 -2.8282 0
M  V30 END ATOM
M  V30 BEGIN BOND
M  V30 1 1 1 2
M  V30 2 1 1 3
M  V30 3 2 2 4
M  V30 4 1 2 5
M  V30 5 2 3 6
M  V30 6 2 5 7
M  V30 7 1 6 8
M  V30 8 1 7 9
M  V30 9 1 7 10
M  V30 10 2 8 11
M  V30 11 1 8 12
M  V30 12 1 11 13
M  V30 13 2 12 14
M  V30 14 1 13 15
M  V30 15 2 13 16
M  V30 16 1 16 17
M  V30 17 1 4 6
M  V30 18 1 14 16
M  V30 19 1 3 18
M  V30 20 1 9 19
M  V30 21 1 9 20
M  V30 22 1 10 21
M  V30 23 1 10 22
M  V30 24 1 11 23
M  V30 25 1 12 24
M  V30 26 1 14 25
M  V30 27 1 15 26
M  V30 28 1 17 27
M  V30 END BOND
M  V30 END CTAB
M  END
>  <NO.>
36

>  <Name>
guanidinothiazol analogue 17 ac1lbibi -- pubmed

>  <SMILES>
NC(N)=Nc1nc(-c2ccc(O)c(O)c2)cs1

>  <logBB>
-1.54

>  <Class>
-1

>  <MW>
250.05

>  <nHBAcc>
5

>  <nHBDon>
4

>  <SLogP>
1.13

>  <TopoPSA>
117.75

>  <MMFF94 Energy>
-114.25

$$$$
CC(C)CC(=O)c1ccc(OCCCCO)cc1O
Actelion Java MolfileCreator 2.0

  0  0  0  0  0  0              0 V3000
M  V30 BEGIN CTAB
M  V30 COUNTS 41 41 0 0 0
M  V30 BEGIN ATOM
M  V30 1 O -0.7814 4.0685 -0.4687 0
M  V30 2 C -0.6401 3.0709 -1.1814 0
M  V30 3 C -0.5973 1.7312 -0.5207 0
M  V30 4 C -0.5435 3.2058 -2.6905 0
M  V30 5 C -0.9994 1.6089 0.8203 0
M  V30 6 C -0.1546 0.5845 -1.188 0
M  V30 7 C 0.7308 3.9466 -3.1194 0
M  V30 8 O -1.4248 2.6733 1.5749 0
M  V30 9 C -0.9887 0.3731 1.4729 0
M  V30 10 C -0.1399 -0.6513 -0.5304 0
M  V30 11 C 1.9853 3.1054 -2.8786 0
M  V30 12 C 0.64 4.3333 -4.5965 0
M  V30 13 C -0.5589 -0.7654 0.797 0
M  V30 14 O -0.4927 -2.0309 1.3079 0
M  V30 15 C -0.9107 -2.2092 2.6611 0
M  V30 16 C -0.7664 -3.6835 3.0383 0
M  V30 17 C 0.6887 -4.1606 2.9653 0
M  V30 18 C 0.8503 -5.5932 3.4593 0
M  V30 19 O 0.0993 -6.4784 2.6418 0
M  V30 20 H -0.6379 2.2464 -3.2039 0
M  V30 21 H -1.4288 3.7806 -2.9946 0
M  V30 22 H 0.2015 0.6109 -2.212 0
M  V30 23 H 0.8264 4.8698 -2.5337 0
M  V30 24 H -1.2863 3.4921 1.0457 0
M  V30 25 H -1.3176 0.3404 2.506 0
M  V30 26 H 0.2054 -1.5384 -1.0583 0
M  V30 27 H 2.1098 2.8745 -1.816 0
M  V30 28 H 1.9433 2.1608 -3.4312 0
M  V30 29 H 2.8812 3.6454 -3.2035 0
M  V30 30 H -0.2283 4.9754 -4.778 0
M  V30 31 H 0.5467 3.4478 -5.2344 0
M  V30 32 H 1.5328 4.8847 -4.9102 0
M  V30 33 H -1.9643 -1.9236 2.7665 0
M  V30 34 H -0.2941 -1.6 3.3333 0
M  V30 35 H -1.154 -3.8306 4.0531 0
M  V30 36 H -1.3775 -4.2882 2.3575 0
M  V30 37 H 1.3255 -3.502 3.5671 0
M  V30 38 H 1.0345 -4.0992 1.9266 0
M  V30 39 H 1.9033 -5.8884 3.4123 0
M  V30 40 H 0.5047 -5.6912 4.4935 0
M  V30 41 H 0.2558 -7.3782 2.9753 0
M  V30 END ATOM
M  V30 BEGIN BOND
M  V30 1 2 1 2
M  V30 2 1 2 3
M  V30 3 1 2 4
M  V30 4 2 3 5
M  V30 5 1 3 6
M  V30 6 1 4 7
M  V30 7 1 5 8
M  V30 8 1 5 9
M  V30 9 2 6 10
M  V30 10 1 7 11
M  V30 11 1 7 12
M  V30 12 2 9 13
M  V30 13 1 13 14
M  V30 14 1 14 15
M  V30 15 1 15 16
M  V30 16 1 16 17
M  V30 17 1 17 18
M  V30 18 1 18 19
M  V30 19 1 10 13
M  V30 20 1 4 20
M  V30 21 1 4 21
M  V30 22 1 6 22
M  V30 23 1 7 23
M  V30 24 1 8 24
M  V30 25 1 9 25
M  V30 26 1 10 26
M  V30 27 1 11 27
M  V30 28 1 11 28
M  V30 29 1 11 29
M  V30 30 1 12 30
M  V30 31 1 12 31
M  V30 32 1 12 32
M  V30 33 1 15 33
M  V30 34 1 15 34
M  V30 35 1 16 35
M  V30 36 1 16 36
M  V30 37 1 17 37
M  V30 38 1 17 38
M  V30 39 1 18 39
M  V30 40 1 18 40
M  V30 41 1 19 41
M  V30 END BOND
M  V30 END CTAB
M  END
>  <NO.>
37

>  <Name>
cube-2

>  <SMILES>
CC(C)CC(=O)c1ccc(OCCCCO)cc1O

>  <logBB>
-1.52

>  <Class>
-1

>  <MW>
266.15

>  <nHBAcc>
4

>  <nHBDon>
2

>  <SLogP>
2.77

>  <TopoPSA>
66.76

>  <MMFF94 Energy>
36.249

$$$$
CC(C)CC(=O)c1ccc(OCCCCOc2ccc(CCC(=O)O)c(O)c2)cc1O
Actelion Java MolfileCreator 2.0

  0  0  0  0  0  0              0 V3000
M  V30 BEGIN CTAB
M  V30 COUNTS 61 62 0 0 0
M  V30 BEGIN ATOM
M  V30 1 O -9.1668 2.4434 2.2067 0
M  V30 2 C -7.9882 2.4448 2.517 0
M  V30 3 O -7.6179 2.4249 3.8116 0
M  V30 4 C -6.8064 2.4953 1.592 0
M  V30 5 C -7.2374 2.255 0.1468 0
M  V30 6 C -6.0633 2.3071 -0.8001 0
M  V30 7 C -5.4912 3.5023 -1.2471 0
M  V30 8 C -5.4774 1.1023 -1.2197 0
M  V30 9 O -5.9721 4.7336 -0.9024 0
M  V30 10 C -4.3703 3.4955 -2.0773 0
M  V30 11 C -4.3578 1.0943 -2.0613 0
M  V30 12 C -3.7976 2.2931 -2.4947 0
M  V30 13 O -2.7076 2.4356 -3.3056 0
M  V30 14 C -2.062 1.2688 -3.8137 0
M  V30 15 C -1.0284 0.7203 -2.8293 0
M  V30 16 C 0.0606 1.7506 -2.5052 0
M  V30 17 C 1.078 1.2158 -1.4987 0
M  V30 18 O 1.74 0.0871 -2.068 0
M  V30 19 C 2.6727 -0.5486 -1.2978 0
M  V30 20 C 3.2466 -1.676 -1.8865 0
M  V30 21 C 3.0811 -0.1659 -0.0203 0
M  V30 22 C 4.2138 -2.4159 -1.2065 0
M  V30 23 C 4.0527 -0.9087 0.6664 0
M  V30 24 O 4.7164 -3.5024 -1.8735 0
M  V30 25 C 4.6263 -2.0458 0.082 0
M  V30 26 C 5.6597 -2.857 0.7966 0
M  V30 27 O 6.2101 -3.7712 0.1815 0
M  V30 28 C 6.0016 -2.5165 2.2404 0
M  V30 29 C 6.9223 -3.5505 2.9126 0
M  V30 30 C 7.5071 -2.9712 4.2027 0
M  V30 31 C 6.172 -4.848 3.2252 0
M  V30 32 H -8.4633 2.4069 4.3079 0
M  V30 33 H -6.0905 1.724 1.8992 0
M  V30 34 H -6.3315 3.4765 1.7006 0
M  V30 35 H -7.7333 1.2781 0.0675 0
M  V30 36 H -7.9997 2.9795 -0.1644 0
M  V30 37 H -5.8861 0.1492 -0.8884 0
M  V30 38 H -6.8826 4.6482 -0.5818 0
M  V30 39 H -3.942 4.4388 -2.4065 0
M  V30 40 H -3.9485 0.1317 -2.3475 0
M  V30 41 H -1.5474 1.575 -4.7323 0
M  V30 42 H -2.7814 0.5024 -4.123 0
M  V30 43 H -1.5188 0.424 -1.8954 0
M  V30 44 H -0.5771 -0.1801 -3.2609 0
M  V30 45 H -0.3904 2.6627 -2.0984 0
M  V30 46 H 0.5782 2.0203 -3.4338 0
M  V30 47 H 1.8075 2.0061 -1.2855 0
M  V30 48 H 0.5615 0.9298 -0.5744 0
M  V30 49 H 2.9408 -1.9819 -2.8839 0
M  V30 50 H 2.6668 0.709 0.4712 0
M  V30 51 H 4.3435 -0.5669 1.6555 0
M  V30 52 H 5.4191 -3.903 -1.3126 0
M  V30 53 H 5.0753 -2.4289 2.8197 0
M  V30 54 H 6.5041 -1.5417 2.2269 0
M  V30 55 H 7.7577 -3.7884 2.2423 0
M  V30 56 H 8.0894 -2.0674 3.9944 0
M  V30 57 H 6.7173 -2.7093 4.9151 0
M  V30 58 H 8.1744 -3.6927 4.686 0
M  V30 59 H 5.7738 -5.3095 2.3166 0
M  V30 60 H 5.3337 -4.6677 3.907 0
M  V30 61 H 6.8399 -5.5755 3.699 0
M  V30 END ATOM
M  V30 BEGIN BOND
M  V30 1 2 1 2
M  V30 2 1 2 3
M  V30 3 1 2 4
M  V30 4 1 4 5
M  V30 5 1 5 6
M  V30 6 2 6 7
M  V30 7 1 6 8
M  V30 8 1 7 9
M  V30 9 1 7 10
M  V30 10 2 8 11
M  V30 11 2 10 12
M  V30 12 1 12 13
M  V30 13 1 13 14
M  V30 14 1 14 15
M  V30 15 1 15 16
M  V30 16 1 16 17
M  V30 17 1 17 18
M  V30 18 1 18 19
M  V30 19 2 19 20
M  V30 20 1 19 21
M  V30 21 1 20 22
M  V30 22 2 21 23
M  V30 23 1 22 24
M  V30 24 2 22 25
M  V30 25 1 25 26
M  V30 26 2 26 27
M  V30 27 1 26 28
M  V30 28 1 28 29
M  V30 29 1 29 30
M  V30 30 1 29 31
M  V30 31 1 11 12
M  V30 32 1 23 25
M  V30 33 1 3 32
M  V30 34 1 4 33
M  V30 35 1 4 34
M  V30 36 1 5 35
M  V30 37 1 5 36
M  V30 38 1 8 37
M  V30 39 1 9 38
M  V30 40 1 10 39
M  V30 41 1 11 40
M  V30 42 1 14 41
M  V30 43 1 14 42
M  V30 44 1 15 43
M  V30 45 1 15 44
M  V30 46 1 16 45
M  V30 47 1 16 46
M  V30 48 1 17 47
M  V30 49 1 17 48
M  V30 50 1 20 49
M  V30 51 1 21 50
M  V30 52 1 23 51
M  V30 53 1 24 52
M  V30 54 1 28 53
M  V30 55 1 28 54
M  V30 56 1 29 55
M  V30 57 1 30 56
M  V30 58 1 30 57
M  V30 59 1 30 58
M  V30 60 1 31 59
M  V30 61 1 31 60
M  V30 62 1 31 61
M  V30 END BOND
M  V30 END CTAB
M  END
>  <NO.>
38

>  <Name>
cube-6

>  <SMILES>
CC(C)CC(=O)c1ccc(OCCCCOc2ccc(CCC(=O)O)c(O)c2)cc1O

>  <logBB>
-1.52

>  <Class>
-1

>  <MW>
430.2

>  <nHBAcc>
6

>  <nHBDon>
3

>  <SLogP>
4.58

>  <TopoPSA>
113.29

>  <MMFF94 Energy>
21.156

$$$$
CC(C)CC(=O)c1ccc(OCCCCOc2ccc3ccc(=O)oc3c2)cc1O
Actelion Java MolfileCreator 2.0

  0  0  0  0  0  0              0 V3000
M  V30 BEGIN CTAB
M  V30 COUNTS 56 58 0 0 0
M  V30 BEGIN ATOM
M  V30 1 O -3.4989 -9.2448 -4.4548 0
M  V30 2 C -3.8511 -8.0743 -4.5446 0
M  V30 3 O -3.3185 -7.0741 -3.7428 0
M  V30 4 C -4.8737 -7.6703 -5.5255 0
M  V30 5 C -3.7421 -5.7349 -3.8681 0
M  V30 6 C -5.2843 -6.4051 -5.6549 0
M  V30 7 C -4.7105 -5.3769 -4.8033 0
M  V30 8 C -3.1501 -4.7984 -3.0189 0
M  V30 9 C -5.0965 -4.0407 -4.8894 0
M  V30 10 C -3.5376 -3.4632 -3.1076 0
M  V30 11 C -4.5104 -3.0921 -4.0437 0
M  V30 12 O -3.0544 -2.4324 -2.3505 0
M  V30 13 C -2.0511 -2.7486 -1.3849 0
M  V30 14 C -1.6481 -1.4668 -0.6574 0
M  V30 15 C -1.0052 -0.4448 -1.6029 0
M  V30 16 C -0.6018 0.8368 -0.8753 0
M  V30 17 O 0.4001 0.5204 0.0905 0
M  V30 18 C 0.8796 1.5466 0.8562 0
M  V30 19 C 1.8302 1.1665 1.8095 0
M  V30 20 C 0.4986 2.887 0.7627 0
M  V30 21 C 2.3948 2.1121 2.6627 0
M  V30 22 C 1.0776 3.8416 1.6057 0
M  V30 23 O 3.2651 1.645 3.6065 0
M  V30 24 C 2.0415 3.4554 2.542 0
M  V30 25 C 2.6661 4.5112 3.3619 0
M  V30 26 O 1.9495 5.2001 4.0806 0
M  V30 27 C 4.1608 4.7299 3.1969 0
M  V30 28 C 4.8196 5.3257 4.4506 0
M  V30 29 C 4.8395 4.3218 5.6051 0
M  V30 30 C 6.2461 5.7747 4.1289 0
M  V30 31 H -5.2756 -8.4665 -6.14 0
M  V30 32 H -6.0385 -6.1304 -6.3838 0
M  V30 33 H -2.4033 -5.1402 -2.3117 0
M  V30 34 H -5.849 -3.7201 -5.6051 0
M  V30 35 H -4.8152 -2.05 -4.114 0
M  V30 36 H -1.1718 -3.1831 -1.8753 0
M  V30 37 H -2.4531 -3.456 -0.6498 0
M  V30 38 H -2.5374 -1.0154 -0.2009 0
M  V30 39 H -0.9529 -1.7225 0.1499 0
M  V30 40 H -1.7005 -0.1889 -2.4102 0
M  V30 41 H -0.1161 -0.8962 -2.0594 0
M  V30 42 H -0.1989 1.5438 -1.6102 0
M  V30 43 H -1.4814 1.2721 -0.3857 0
M  V30 44 H 2.1169 0.1215 1.8975 0
M  V30 45 H -0.2415 3.2237 0.0441 0
M  V30 46 H 0.78 4.8851 1.5253 0
M  V30 47 H 3.1859 2.1959 4.4055 0
M  V30 48 H 4.66 3.7951 2.9217 0
M  V30 49 H 4.2782 5.4216 2.3534 0
M  V30 50 H 4.2544 6.2082 4.7757 0
M  V30 51 H 3.8251 4.0344 5.8987 0
M  V30 52 H 5.3845 3.4121 5.3315 0
M  V30 53 H 5.3262 4.7543 6.4859 0
M  V30 54 H 6.247 6.5265 3.3327 0
M  V30 55 H 6.864 4.932 3.8007 0
M  V30 56 H 6.7214 6.2212 5.0087 0
M  V30 END ATOM
M  V30 BEGIN BOND
M  V30 1 2 1 2
M  V30 2 1 2 3
M  V30 3 1 2 4
M  V30 4 1 3 5
M  V30 5 2 4 6
M  V30 6 2 5 7
M  V30 7 1 5 8
M  V30 8 1 7 9
M  V30 9 2 8 10
M  V30 10 2 9 11
M  V30 11 1 10 12
M  V30 12 1 12 13
M  V30 13 1 13 14
M  V30 14 1 14 15
M  V30 15 1 15 16
M  V30 16 1 16 17
M  V30 17 1 17 18
M  V30 18 2 18 19
M  V30 19 1 18 20
M  V30 20 1 19 21
M  V30 21 2 20 22
M  V30 22 1 21 23
M  V30 23 2 21 24
M  V30 24 1 24 25
M  V30 25 2 25 26
M  V30 26 1 25 27
M  V30 27 1 27 28
M  V30 28 1 28 29
M  V30 29 1 28 30
M  V30 30 1 6 7
M  V30 31 1 10 11
M  V30 32 1 22 24
M  V30 33 1 4 31
M  V30 34 1 6 32
M  V30 35 1 8 33
M  V30 36 1 9 34
M  V30 37 1 11 35
M  V30 38 1 13 36
M  V30 39 1 13 37
M  V30 40 1 14 38
M  V30 41 1 14 39
M  V30 42 1 15 40
M  V30 43 1 15 41
M  V30 44 1 16 42
M  V30 45 1 16 43
M  V30 46 1 19 44
M  V30 47 1 20 45
M  V30 48 1 22 46
M  V30 49 1 23 47
M  V30 50 1 27 48
M  V30 51 1 27 49
M  V30 52 1 28 50
M  V30 53 1 29 51
M  V30 54 1 29 52
M  V30 55 1 29 53
M  V30 56 1 30 54
M  V30 57 1 30 55
M  V30 58 1 30 56
M  V30 END BOND
M  V30 END CTAB
M  END
>  <NO.>
39

>  <Name>
cube-10

>  <SMILES>
CC(C)CC(=O)c1ccc(OCCCCOc2ccc3ccc(=O)oc3c2)cc1O

>  <logBB>
-1.52

>  <Class>
-1

>  <MW>
410.17

>  <nHBAcc>
6

>  <nHBDon>
1

>  <SLogP>
4.97

>  <TopoPSA>
85.97

>  <MMFF94 Energy>
77.918

$$$$
CCNc1cccnc1N1CCN(C(=O)c2cc3cc(NS(C)(=O)=O)ccc3[nH]2)CC1
Actelion Java MolfileCreator 2.0

  0  0  0  0  0  0              0 V3000
M  V30 BEGIN CTAB
M  V30 COUNTS 57 60 0 0 0
M  V30 BEGIN ATOM
M  V30 1 S -1.2841 -6.3526 4.7415 0
M  V30 2 O -1.9573 -6.9189 5.8919 0
M  V30 3 O -0.9614 -7.1646 3.5908 0
M  V30 4 N -2.2321 -5.0267 4.281 0
M  V30 5 C 0.1908 -5.548 5.3266 0
M  V30 6 C -2.1613 -4.6204 2.9148 0
M  V30 7 C -1.2299 -3.6449 2.5457 0
M  V30 8 C -2.9757 -5.2336 1.9644 0
M  V30 9 C -1.143 -3.2629 1.1932 0
M  V30 10 C -2.8962 -4.8751 0.615 0
M  V30 11 C -1.972 -3.885 0.2641 0
M  V30 12 C -0.3413 -2.3301 0.4774 0
M  V30 13 N -1.6641 -3.3535 -0.9642 0
M  V30 14 C -0.7075 -2.3643 -0.8577 0
M  V30 15 C -0.2345 -1.6672 -2.0383 0
M  V30 16 O -0.3309 -2.2055 -3.1416 0
M  V30 17 N 0.3083 -0.394 -1.9153 0
M  V30 18 C 0.1631 0.4943 -0.7532 0
M  V30 19 C 0.9597 0.1967 -3.0942 0
M  V30 20 C 0.1142 1.9852 -1.1424 0
M  V30 21 C 1.949 1.3068 -2.7115 0
M  V30 22 N 1.2906 2.378 -1.9439 0
M  V30 23 C 1.0565 3.5687 -2.6643 0
M  V30 24 N 0.743 3.4653 -3.9784 0
M  V30 25 C 1.1235 4.8173 -1.984 0
M  V30 26 C 0.4537 4.6019 -4.6431 0
M  V30 27 N 1.4836 4.8617 -0.641 0
M  V30 28 C 0.7906 5.9586 -2.7167 0
M  V30 29 C 0.455 5.8556 -4.063 0
M  V30 30 C 1.657 6.0711 0.1294 0
M  V30 31 C 2.0367 5.721 1.5587 0
M  V30 32 H -3.1804 -5.1689 4.635 0
M  V30 33 H 0.6902 -5.0591 4.4892 0
M  V30 34 H -0.0799 -4.8278 6.1008 0
M  V30 35 H 0.8451 -6.3145 5.7478 0
M  V30 36 H -0.5945 -3.1735 3.2871 0
M  V30 37 H -3.6697 -6.0169 2.259 0
M  V30 38 H -3.5202 -5.3611 -0.1282 0
M  V30 39 H 0.4347 -1.7132 0.908 0
M  V30 40 H -2.0745 -3.6362 -1.8448 0
M  V30 41 H -0.747 0.2438 -0.2009 0
M  V30 42 H 1.0285 0.315 -0.1051 0
M  V30 43 H 0.1643 0.5899 -3.7385 0
M  V30 44 H 1.48 -0.5895 -3.6522 0
M  V30 45 H 0.0534 2.5864 -0.2287 0
M  V30 46 H -0.8084 2.1541 -1.7152 0
M  V30 47 H 2.7264 0.8762 -2.0673 0
M  V30 48 H 2.4719 1.6816 -3.5999 0
M  V30 49 H 0.2055 4.472 -5.6924 0
M  V30 50 H 1.8803 3.9871 -0.3035 0
M  V30 51 H 0.8009 6.9408 -2.2567 0
M  V30 52 H 0.2059 6.7355 -4.6449 0
M  V30 53 H 2.4442 6.693 -0.3109 0
M  V30 54 H 0.7266 6.6499 0.1438 0
M  V30 55 H 2.1622 6.6306 2.154 0
M  V30 56 H 1.2634 5.1056 2.0308 0
M  V30 57 H 2.9763 5.1593 1.5893 0
M  V30 END ATOM
M  V30 BEGIN BOND
M  V30 1 2 1 2
M  V30 2 2 1 3
M  V30 3 1 1 4
M  V30 4 1 1 5
M  V30 5 1 4 6
M  V30 6 2 6 7
M  V30 7 1 6 8
M  V30 8 1 7 9
M  V30 9 2 8 10
M  V30 10 2 9 11
M  V30 11 1 9 12
M  V30 12 1 11 13
M  V30 13 2 12 14
M  V30 14 1 14 15
M  V30 15 2 15 16
M  V30 16 1 15 17
M  V30 17 1 17 18
M  V30 18 1 17 19
M  V30 19 1 18 20
M  V30 20 1 19 21
M  V30 21 1 20 22
M  V30 22 1 22 23
M  V30 23 2 23 24
M  V30 24 1 23 25
M  V30 25 1 24 26
M  V30 26 1 25 27
M  V30 27 2 25 28
M  V30 28 2 26 29
M  V30 29 1 27 30
M  V30 30 1 30 31
M  V30 31 1 10 11
M  V30 32 1 13 14
M  V30 33 1 21 22
M  V30 34 1 28 29
M  V30 35 1 4 32
M  V30 36 1 5 33
M  V30 37 1 5 34
M  V30 38 1 5 35
M  V30 39 1 7 36
M  V30 40 1 8 37
M  V30 41 1 10 38
M  V30 42 1 12 39
M  V30 43 1 13 40
M  V30 44 1 18 41
M  V30 45 1 18 42
M  V30 46 1 19 43
M  V30 47 1 19 44
M  V30 48 1 20 45
M  V30 49 1 20 46
M  V30 50 1 21 47
M  V30 51 1 21 48
M  V30 52 1 26 49
M  V30 53 1 27 50
M  V30 54 1 28 51
M  V30 55 1 29 52
M  V30 56 1 30 53
M  V30 57 1 30 54
M  V30 58 1 31 55
M  V30 59 1 31 56
M  V30 60 1 31 57
M  V30 END BOND
M  V30 END CTAB
M  END
>  <NO.>
40

>  <Name>
chembl151192

>  <SMILES>
CCNc1cccnc1N1CCN(C(=O)c2cc3cc(NS(C)(=O)=O)ccc3[nH]2)CC1

>  <logBB>
-1.52

>  <Class>
-1

>  <MW>
442.18

>  <nHBAcc>
6

>  <nHBDon>
3

>  <SLogP>
2.33

>  <TopoPSA>
110.43

>  <MMFF94 Energy>
13.007

$$$$
NCC(CC(=O)O)c1ccc(Cl)cc1
Actelion Java MolfileCreator 2.0

  0  0  0  0  0  0              0 V3000
M  V30 BEGIN CTAB
M  V30 COUNTS 26 26 0 0 0
M  V30 BEGIN ATOM
M  V30 1 Cl 3.2672 -2.8683 -2.7088 0
M  V30 2 C 2.0853 -1.9597 -1.8502 0
M  V30 3 C 1.2057 -2.6068 -0.9874 0
M  V30 4 C 2.0158 -0.5793 -2.0199 0
M  V30 5 C 0.2472 -1.8674 -0.2904 0
M  V30 6 C 1.0575 0.1606 -1.3222 0
M  V30 7 C 0.1583 -0.4752 -0.4509 0
M  V30 8 C -0.8963 0.306 0.3315 0 CFG=2
M  V30 9 C -1.852 1.0356 -0.6426 0
M  V30 10 C -0.2474 1.2679 1.3409 0
M  V30 11 N -2.9981 1.6519 0.0261 0
M  V30 12 C 0.5059 0.5259 2.4114 0
M  V30 13 O 0.2097 -0.5423 2.9183 0
M  V30 14 O 1.588 1.2073 2.8373 0
M  V30 15 H 1.2604 -3.683 -0.8481 0
M  V30 16 H 2.7046 -0.0732 -2.6908 0
M  V30 17 H -0.4265 -2.3873 0.3892 0
M  V30 18 H 1.0261 1.2382 -1.4668 0
M  V30 19 H -1.5052 -0.4168 0.8934 0
M  V30 20 H -2.2377 0.3157 -1.3748 0
M  V30 21 H -1.3211 1.8093 -1.2092 0
M  V30 22 H -1.0002 1.8722 1.8582 0
M  V30 23 H 0.4359 1.9572 0.8314 0
M  V30 24 H -3.6542 1.989 -0.6788 0
M  V30 25 H -2.7029 2.4786 0.5433 0
M  V30 26 H 1.9739 0.6266 3.5265 0
M  V30 END ATOM
M  V30 BEGIN BOND
M  V30 1 1 1 2
M  V30 2 2 2 3
M  V30 3 1 2 4
M  V30 4 1 3 5
M  V30 5 2 4 6
M  V30 6 2 5 7
M  V30 7 1 7 8
M  V30 8 1 8 9
M  V30 9 1 8 10
M  V30 10 1 9 11
M  V30 11 1 10 12
M  V30 12 2 12 13
M  V30 13 1 12 14
M  V30 14 1 6 7
M  V30 15 1 3 15
M  V30 16 1 4 16
M  V30 17 1 5 17
M  V30 18 1 6 18
M  V30 19 1 8 19
M  V30 20 1 9 20
M  V30 21 1 9 21
M  V30 22 1 10 22
M  V30 23 1 10 23
M  V30 24 1 11 24
M  V30 25 1 11 25
M  V30 26 1 14 26
M  V30 END BOND
M  V30 BEGIN COLLECTION
M  V30 MDLV30/STERAC1 ATOMS=(1 8)
M  V30 END COLLECTION
M  V30 END CTAB
M  END
>  <NO.>
43

>  <Name>
baclofen

>  <SMILES>
NCC(CC(=O)O)c1ccc(Cl)cc1

>  <logBB>
-1.52

>  <Class>
-1

>  <MW>
213.06

>  <nHBAcc>
2

>  <nHBDon>
2

>  <SLogP>
1.86

>  <TopoPSA>
63.32

>  <MMFF94 Energy>
0.68555

$$$$
Cc1ccc(NC(=O)c2ccc(CN3CCN(C)CC3)cc2)cc1Nc1nccc(-c2cccnc2)n1
Actelion Java MolfileCreator 2.0

  0  0  0  0  0  0              0 V3000
M  V30 BEGIN CTAB
M  V30 COUNTS 68 72 0 0 0
M  V30 BEGIN ATOM
M  V30 1 O 3.2657 -1.2734 0.3182 0
M  V30 2 C 2.2045 -0.6764 0.1818 0
M  V30 3 N 0.9405 -1.2351 0.1298 0
M  V30 4 C 2.2397 0.8031 0.0052 0
M  V30 5 C 0.6016 -2.5924 0.3123 0
M  V30 6 C 3.3172 1.3687 -0.684 0
M  V30 7 C 1.2422 1.6316 0.5351 0
M  V30 8 C -0.7031 -2.981 -0.0287 0
M  V30 9 C 1.4728 -3.5404 0.8335 0
M  V30 10 C 3.3822 2.7513 -0.868 0
M  V30 11 C 1.3116 3.0159 0.3512 0
M  V30 12 C -1.1577 -4.3014 0.1242 0
M  V30 13 C 1.0504 -4.8593 0.9987 0
M  V30 14 C 2.3807 3.5886 -0.353 0
M  V30 15 N -2.4634 -4.6908 -0.2114 0
M  V30 16 C -0.2532 -5.2517 0.6513 0
M  V30 17 C 2.4547 5.0885 -0.5595 0
M  V30 18 C -3.5907 -4.0319 -0.694 0
M  V30 19 C -0.6424 -6.6918 0.8583 0
M  V30 20 N 3.6838 5.6888 -0.0198 0
M  V30 21 N -4.6568 -4.8241 -0.8947 0
M  V30 22 N -3.6065 -2.7143 -0.9314 0
M  V30 23 C 3.7069 5.6506 1.4587 0
M  V30 24 C 3.8042 7.0925 -0.465 0
M  V30 25 C -5.7961 -4.2721 -1.373 0
M  V30 26 C -4.7501 -2.1858 -1.3959 0
M  V30 27 C 4.953 6.3543 2.0446 0
M  V30 28 C 5.0522 7.7912 0.1204 0
M  V30 29 C -6.9191 -5.2057 -1.5706 0
M  V30 30 C -5.8829 -2.921 -1.6375 0
M  V30 31 N 5.0641 7.7556 1.5949 0
M  V30 32 C -7.8925 -5.0219 -2.5548 0
M  V30 33 C -7.0728 -6.3525 -0.7762 0
M  V30 34 C 6.2819 8.37 2.1175 0
M  V30 35 N -8.9525 -5.8414 -2.7716 0
M  V30 36 C -8.1459 -7.221 -0.974 0
M  V30 37 C -9.0528 -6.9237 -1.9742 0
M  V30 38 H 0.1769 -0.6288 -0.1398 0
M  V30 39 H 4.1083 0.7343 -1.0783 0
M  V30 40 H 0.4234 1.2199 1.1189 0
M  V30 41 H -1.3734 -2.2304 -0.4331 0
M  V30 42 H 2.4856 -3.284 1.1278 0
M  V30 43 H 4.2271 3.1818 -1.4028 0
M  V30 44 H 0.5332 3.6473 0.7744 0
M  V30 45 H 1.7545 -5.5818 1.4066 0
M  V30 46 H -2.6905 -5.6686 -0.117 0
M  V30 47 H 1.5657 5.5765 -0.1379 0
M  V30 48 H 2.4074 5.2522 -1.6446 0
M  V30 49 H -0.9124 -7.1527 -0.0971 0
M  V30 50 H -1.4863 -6.7613 1.5522 0
M  V30 51 H 0.18 -7.2764 1.2838 0
M  V30 52 H 2.8044 6.1236 1.8695 0
M  V30 53 H 3.7197 4.6122 1.809 0
M  V30 54 H 2.909 7.664 -0.1839 0
M  V30 55 H 3.8807 7.1225 -1.5586 0
M  V30 56 H -4.7281 -1.1142 -1.5712 0
M  V30 57 H 5.8497 5.7853 1.7639 0
M  V30 58 H 4.8782 6.3278 3.1385 0
M  V30 59 H 5.9541 7.3142 -0.2865 0
M  V30 60 H 5.0521 8.8339 -0.2194 0
M  V30 61 H -6.7844 -2.4435 -1.9959 0
M  V30 62 H -7.8511 -4.1831 -3.2449 0
M  V30 63 H -6.3524 -6.573 0.0093 0
M  V30 64 H 7.1878 7.8541 1.7795 0
M  V30 65 H 6.2727 8.3674 3.2131 0
M  V30 66 H 6.3463 9.4184 1.8057 0
M  V30 67 H -8.2672 -8.1064 -0.3603 0
M  V30 68 H -9.906 -7.5672 -2.1679 0
M  V30 END ATOM
M  V30 BEGIN BOND
M  V30 1 2 1 2
M  V30 2 1 2 3
M  V30 3 1 2 4
M  V30 4 1 3 5
M  V30 5 2 4 6
M  V30 6 1 4 7
M  V30 7 2 5 8
M  V30 8 1 5 9
M  V30 9 1 6 10
M  V30 10 2 7 11
M  V30 11 1 8 12
M  V30 12 2 9 13
M  V30 13 2 10 14
M  V30 14 1 12 15
M  V30 15 2 12 16
M  V30 16 1 14 17
M  V30 17 1 15 18
M  V30 18 1 16 19
M  V30 19 1 17 20
M  V30 20 2 18 21
M  V30 21 1 18 22
M  V30 22 1 20 23
M  V30 23 1 20 24
M  V30 24 1 21 25
M  V30 25 2 22 26
M  V30 26 1 23 27
M  V30 27 1 24 28
M  V30 28 1 25 29
M  V30 29 2 25 30
M  V30 30 1 27 31
M  V30 31 2 29 32
M  V30 32 1 29 33
M  V30 33 1 31 34
M  V30 34 1 32 35
M  V30 35 2 33 36
M  V30 36 2 35 37
M  V30 37 1 11 14
M  V30 38 1 13 16
M  V30 39 1 26 30
M  V30 40 1 28 31
M  V30 41 1 36 37
M  V30 42 1 3 38
M  V30 43 1 6 39
M  V30 44 1 7 40
M  V30 45 1 8 41
M  V30 46 1 9 42
M  V30 47 1 10 43
M  V30 48 1 11 44
M  V30 49 1 13 45
M  V30 50 1 15 46
M  V30 51 1 17 47
M  V30 52 1 17 48
M  V30 53 1 19 49
M  V30 54 1 19 50
M  V30 55 1 19 51
M  V30 56 1 23 52
M  V30 57 1 23 53
M  V30 58 1 24 54
M  V30 59 1 24 55
M  V30 60 1 26 56
M  V30 61 1 27 57
M  V30 62 1 27 58
M  V30 63 1 28 59
M  V30 64 1 28 60
M  V30 65 1 30 61
M  V30 66 1 32 62
M  V30 67 1 33 63
M  V30 68 1 34 64
M  V30 69 1 34 65
M  V30 70 1 34 66
M  V30 71 1 36 67
M  V30 72 1 37 68
M  V30 END BOND
M  V30 END CTAB
M  END
>  <NO.>
46

>  <Name>
imatinib

>  <SMILES>
Cc1ccc(NC(=O)c2ccc(CN3CCN(C)CC3)cc2)cc1Nc1nccc(-c2cccnc2)n1

>  <logBB>
-1.5

>  <Class>
-1

>  <MW>
493.26

>  <nHBAcc>
7

>  <nHBDon>
2

>  <SLogP>
4.59

>  <TopoPSA>
86.28

>  <MMFF94 Energy>
66.868

$$$$
Cc1nnc2n1-c1ccc(Cl)cc1C(c1ccccc1)=NC2O
Actelion Java MolfileCreator 2.0

  0  0  0  0  0  0              0 V3000
M  V30 BEGIN CTAB
M  V30 COUNTS 36 39 0 0 0
M  V30 BEGIN ATOM
M  V30 1 Cl -1.1416 -4.0819 2.2027 0
M  V30 2 C -1.2173 -2.7758 1.0865 0
M  V30 3 C -0.5619 -1.5801 1.3766 0
M  V30 4 C -1.9421 -2.9186 -0.0943 0
M  V30 5 C -0.6103 -0.5113 0.4675 0
M  V30 6 C -2.0174 -1.8576 -0.9986 0
M  V30 7 C 0.1125 0.7527 0.8315 0
M  V30 8 C -1.3437 -0.658 -0.7253 0
M  V30 9 N -0.3842 1.9403 0.7202 0
M  V30 10 C 1.5084 0.6463 1.3661 0
M  V30 11 N -1.4806 0.4241 -1.6211 0
M  V30 12 C -1.7207 2.1335 0.1785 0 CFG=2
M  V30 13 C 2.401 -0.3202 0.8849 0
M  V30 14 C 1.9309 1.5553 2.344 0
M  V30 15 C -1.7156 1.7278 -1.2546 0
M  V30 16 C -1.4158 0.4419 -3.0009 0
M  V30 17 O -2.1504 3.4843 0.2381 0
M  V30 18 C 3.6963 -0.3919 1.4025 0
M  V30 19 C 3.2264 1.4795 2.8577 0
M  V30 20 N -1.8448 2.4733 -2.3332 0
M  V30 21 N -1.6689 1.6638 -3.4261 0
M  V30 22 C -1.063 -0.7063 -3.8669 0
M  V30 23 C 4.106 0.5041 2.3899 0
M  V30 24 H -0.0253 -1.4837 2.3188 0
M  V30 25 H -2.4675 -3.8475 -0.3068 0
M  V30 26 H -2.6338 -1.9785 -1.8872 0
M  V30 27 H -2.4602 1.5583 0.7475 0
M  V30 28 H 2.1144 -1.0121 0.0982 0
M  V30 29 H 1.2542 2.3257 2.7084 0
M  V30 30 H -1.5312 3.9566 -0.3457 0
M  V30 31 H 4.3912 -1.1405 1.0296 0
M  V30 32 H 3.5501 2.1864 3.6179 0
M  V30 33 H -0.2829 -1.3275 -3.4167 0
M  V30 34 H -1.9427 -1.3249 -4.0663 0
M  V30 35 H -0.6828 -0.349 -4.8296 0
M  V30 36 H 5.1166 0.4499 2.7881 0
M  V30 END ATOM
M  V30 BEGIN BOND
M  V30 1 1 1 2
M  V30 2 2 2 3
M  V30 3 1 2 4
M  V30 4 1 3 5
M  V30 5 2 4 6
M  V30 6 1 5 7
M  V30 7 2 5 8
M  V30 8 2 7 9
M  V30 9 1 7 10
M  V30 10 1 8 11
M  V30 11 1 9 12
M  V30 12 2 10 13
M  V30 13 1 10 14
M  V30 14 1 11 15
M  V30 15 1 11 16
M  V30 16 1 12 17
M  V30 17 1 13 18
M  V30 18 2 14 19
M  V30 19 2 15 20
M  V30 20 2 16 21
M  V30 21 1 16 22
M  V30 22 2 18 23
M  V30 23 1 6 8
M  V30 24 1 12 15
M  V30 25 1 19 23
M  V30 26 1 20 21
M  V30 27 1 3 24
M  V30 28 1 4 25
M  V30 29 1 6 26
M  V30 30 1 12 27
M  V30 31 1 13 28
M  V30 32 1 14 29
M  V30 33 1 17 30
M  V30 34 1 18 31
M  V30 35 1 19 32
M  V30 36 1 22 33
M  V30 37 1 22 34
M  V30 38 1 22 35
M  V30 39 1 23 36
M  V30 END BOND
M  V30 BEGIN COLLECTION
M  V30 MDLV30/STERAC1 ATOMS=(1 12)
M  V30 END COLLECTION
M  V30 END CTAB
M  END
>  <NO.>
49

>  <Name>
4-hydroxyalprazolam

>  <SMILES>
Cc1nnc2n1-c1ccc(Cl)cc1C(c1ccccc1)=NC2O

>  <logBB>
-1.48

>  <Class>
-1

>  <MW>
324.08

>  <nHBAcc>
4

>  <nHBDon>
1

>  <SLogP>
3.07

>  <TopoPSA>
63.3

>  <MMFF94 Energy>
58.939

$$$$
CCc1cccc2c3c([nH]c12)C(CC)(CC(=O)O)OCC3
Actelion Java MolfileCreator 2.0

  0  0  0  0  0  0              0 V3000
M  V30 BEGIN CTAB
M  V30 COUNTS 42 44 0 0 0
M  V30 BEGIN ATOM
M  V30 1 O 3.2581 -2.0652 1.1116 0
M  V30 2 C 2.4443 -1.9142 0.2165 0
M  V30 3 O 1.2903 -2.6148 0.2198 0
M  V30 4 C 2.5745 -1.0252 -0.9862 0
M  V30 5 C 2.1035 0.4186 -0.7686 0 CFG=2
M  V30 6 O 3.1077 1.1398 0.0119 0
M  V30 7 C 0.7653 0.5449 -0.089 0
M  V30 8 C 2.116 1.2044 -2.1123 0
M  V30 9 C 2.8981 1.2639 1.4279 0
M  V30 10 N -0.3958 -0.0769 -0.4638 0
M  V30 11 C 0.494 1.2596 1.0582 0
M  V30 12 C 1.2064 0.7115 -3.2303 0
M  V30 13 C 1.5833 1.9857 1.7523 0
M  V30 14 C -1.4231 0.2596 0.3963 0
M  V30 15 C -0.8811 1.1051 1.368 0
M  V30 16 C -2.7756 -0.1341 0.387 0
M  V30 17 C -1.7159 1.5892 2.3916 0
M  V30 18 C -3.5762 0.368 1.4308 0
M  V30 19 C -3.3696 -1.0616 -0.6415 0
M  V30 20 C -3.0611 1.2138 2.4113 0
M  V30 21 C -3.1814 -2.521 -0.2567 0
M  V30 22 H 1.3223 -3.111 1.0657 0
M  V30 23 H 3.6305 -1.0464 -1.2838 0
M  V30 24 H 2.0205 -1.5142 -1.7956 0
M  V30 25 H 1.8726 2.2581 -1.9138 0
M  V30 26 H 3.1457 1.2227 -2.4963 0
M  V30 27 H 2.9321 0.2758 1.8947 0
M  V30 28 H 3.7379 1.8391 1.8312 0
M  V30 29 H -0.4983 -0.7132 -1.2417 0
M  V30 30 H 1.3557 1.3306 -4.1217 0
M  V30 31 H 1.4241 -0.3207 -3.5145 0
M  V30 32 H 0.1502 0.7892 -2.9615 0
M  V30 33 H 1.6189 3.0149 1.3768 0
M  V30 34 H 1.4237 2.0139 2.8347 0
M  V30 35 H -1.3212 2.2458 3.1608 0
M  V30 36 H -4.6283 0.092 1.4813 0
M  V30 37 H -2.9044 -0.8748 -1.6165 0
M  V30 38 H -4.4374 -0.8455 -0.7668 0
M  V30 39 H -3.7102 1.5837 3.2009 0
M  V30 40 H -3.6215 -3.1726 -1.0181 0
M  V30 41 H -3.6638 -2.7441 0.701 0
M  V30 42 H -2.1202 -2.7757 -0.1651 0
M  V30 END ATOM
M  V30 BEGIN BOND
M  V30 1 2 1 2
M  V30 2 1 2 3
M  V30 3 1 2 4
M  V30 4 1 4 5
M  V30 5 1 5 6
M  V30 6 1 5 7
M  V30 7 1 5 8
M  V30 8 1 6 9
M  V30 9 1 7 10
M  V30 10 2 7 11
M  V30 11 1 8 12
M  V30 12 1 9 13
M  V30 13 1 10 14
M  V30 14 1 11 15
M  V30 15 1 14 16
M  V30 16 1 15 17
M  V30 17 2 16 18
M  V30 18 1 16 19
M  V30 19 2 17 20
M  V30 20 1 19 21
M  V30 21 1 11 13
M  V30 22 2 14 15
M  V30 23 1 18 20
M  V30 24 1 3 22
M  V30 25 1 4 23
M  V30 26 1 4 24
M  V30 27 1 8 25
M  V30 28 1 8 26
M  V30 29 1 9 27
M  V30 30 1 9 28
M  V30 31 1 10 29
M  V30 32 1 12 30
M  V30 33 1 12 31
M  V30 34 1 12 32
M  V30 35 1 13 33
M  V30 36 1 13 34
M  V30 37 1 17 35
M  V30 38 1 18 36
M  V30 39 1 19 37
M  V30 40 1 19 38
M  V30 41 1 20 39
M  V30 42 1 21 40
M  V30 43 1 21 41
M  V30 44 1 21 42
M  V30 END BOND
M  V30 BEGIN COLLECTION
M  V30 MDLV30/STERAC1 ATOMS=(1 5)
M  V30 END COLLECTION
M  V30 END CTAB
M  END
>  <NO.>
50

>  <Name>
etodolac

>  <SMILES>
CCc1cccc2c3c([nH]c12)C(CC)(CC(=O)O)OCC3

>  <logBB>
-1.42

>  <Class>
-1

>  <MW>
287.15

>  <nHBAcc>
2

>  <nHBDon>
2

>  <SLogP>
3.38

>  <TopoPSA>
62.32

>  <MMFF94 Energy>
15.375

$$$$
CC(C)NC(O)COc1ccc(CC(N)=O)cc1
Actelion Java MolfileCreator 2.0

  0  0  0  0  0  0              0 V3000
M  V30 BEGIN CTAB
M  V30 COUNTS 38 38 0 0 0
M  V30 BEGIN ATOM
M  V30 1 O 3.8928 -1.7892 -5.3752 0
M  V30 2 C 2.8513 -1.2885 -4.9614 0
M  V30 3 N 2.494 -0.0261 -5.335 0
M  V30 4 C 1.8625 -2.0401 -4.0898 0
M  V30 5 C 1.3513 -1.2504 -2.9073 0
M  V30 6 C -0.0073 -0.9273 -2.7961 0
M  V30 7 C 2.2295 -0.831 -1.9012 0
M  V30 8 C -0.4794 -0.1913 -1.7031 0
M  V30 9 C 1.7548 -0.0946 -0.8137 0
M  V30 10 C 0.4006 0.2262 -0.7057 0
M  V30 11 O 0.073 0.9529 0.4041 0
M  V30 12 C -1.3233 1.1523 0.6652 0
M  V30 13 C -1.4959 1.898 2.0116 0 CFG=2
M  V30 14 O -0.9093 3.1827 1.8905 0
M  V30 15 N -0.8614 1.2942 3.1685 0
M  V30 16 C -1.3229 -0.0505 3.5171 0
M  V30 17 C -0.4371 -0.5637 4.6556 0
M  V30 18 C -2.7896 -0.0839 3.9502 0
M  V30 19 H 3.1293 0.4916 -5.927 0
M  V30 20 H 1.6747 0.4403 -4.9698 0
M  V30 21 H 2.3449 -2.9527 -3.7197 0
M  V30 22 H 1.0318 -2.3553 -4.7324 0
M  V30 23 H -0.7141 -1.2464 -3.5595 0
M  V30 24 H 3.2896 -1.0716 -1.9559 0
M  V30 25 H -1.5381 0.0412 -1.665 0
M  V30 26 H 2.4472 0.2273 -0.0393 0
M  V30 27 H -1.8502 0.192 0.6973 0
M  V30 28 H -1.7408 1.7802 -0.1314 0
M  V30 29 H -2.5632 2.061 2.1919 0
M  V30 30 H 0.0414 2.9796 1.8145 0
M  V30 31 H -1.0007 1.9269 3.9554 0
M  V30 32 H -1.1821 -0.7307 2.67 0
M  V30 33 H -0.5316 0.0577 5.5535 0
M  V30 34 H 0.6177 -0.5728 4.3586 0
M  V30 35 H -0.7117 -1.5889 4.9268 0
M  V30 36 H -3.4588 0.1735 3.1233 0
M  V30 37 H -2.9808 0.6127 4.774 0
M  V30 38 H -3.0682 -1.0872 4.2908 0
M  V30 END ATOM
M  V30 BEGIN BOND
M  V30 1 2 1 2
M  V30 2 1 2 3
M  V30 3 1 2 4
M  V30 4 1 4 5
M  V30 5 2 5 6
M  V30 6 1 5 7
M  V30 7 1 6 8
M  V30 8 2 7 9
M  V30 9 2 8 10
M  V30 10 1 10 11
M  V30 11 1 11 12
M  V30 12 1 12 13
M  V30 13 1 13 14
M  V30 14 1 13 15
M  V30 15 1 15 16
M  V30 16 1 16 17
M  V30 17 1 16 18
M  V30 18 1 9 10
M  V30 19 1 3 19
M  V30 20 1 3 20
M  V30 21 1 4 21
M  V30 22 1 4 22
M  V30 23 1 6 23
M  V30 24 1 7 24
M  V30 25 1 8 25
M  V30 26 1 9 26
M  V30 27 1 12 27
M  V30 28 1 12 28
M  V30 29 1 13 29
M  V30 30 1 14 30
M  V30 31 1 15 31
M  V30 32 1 16 32
M  V30 33 1 17 33
M  V30 34 1 17 34
M  V30 35 1 17 35
M  V30 36 1 18 36
M  V30 37 1 18 37
M  V30 38 1 18 38
M  V30 END BOND
M  V30 BEGIN COLLECTION
M  V30 MDLV30/STERAC1 ATOMS=(1 13)
M  V30 END COLLECTION
M  V30 END CTAB
M  END
>  <NO.>
51

>  <Name>
atenolol

>  <SMILES>
CC(C)NC(O)COc1ccc(CC(N)=O)cc1

>  <logBB>
-1.42

>  <Class>
-1

>  <MW>
252.15

>  <nHBAcc>
4

>  <nHBDon>
3

>  <SLogP>
0.41

>  <TopoPSA>
84.58

>  <MMFF94 Energy>
3.8464

$$$$
CN=C(NC#N)NCCSCC1=NC=NC1C
Actelion Java MolfileCreator 2.0

  0  0  0  0  0  0              0 V3000
M  V30 BEGIN CTAB
M  V30 COUNTS 33 33 0 0 0
M  V30 BEGIN ATOM
M  V30 1 S 0.556 0.1588 0.3177 0
M  V30 2 C -0.1542 -0.3343 1.9181 0
M  V30 3 C -0.973 0.706 -0.5288 0
M  V30 4 C -0.6573 0.864 2.6565 0
M  V30 5 C -0.7731 0.86 -2.0403 0
M  V30 6 N -1.8895 1.2591 2.6549 0
M  V30 7 C 0.2349 1.7787 3.4431 0 CFG=1
M  V30 8 N -0.84 -0.4043 -2.7387 0
M  V30 9 C -1.881 2.3978 3.419 0
M  V30 10 N -0.745 2.7858 3.9081 0
M  V30 11 C 0.8715 1.1025 4.6405 0
M  V30 12 C 0.1365 -1.2352 -3.1812 0
M  V30 13 N -0.1984 -2.0692 -4.0982 0
M  V30 14 N 1.3894 -1.0392 -2.5824 0
M  V30 15 C 0.7491 -2.9216 -4.7873 0
M  V30 16 C 2.0847 -2.1517 -2.3375 0
M  V30 17 N 2.7196 -3.0857 -2.081 0
M  V30 18 H -0.9672 -1.0491 1.7603 0
M  V30 19 H 0.6202 -0.8298 2.5085 0
M  V30 20 H -1.7798 -0.0058 -0.325 0
M  V30 21 H -1.25 1.6786 -0.1101 0
M  V30 22 H -1.5979 1.4763 -2.4188 0
M  V30 23 H 0.1422 1.4122 -2.2835 0
M  V30 24 H 0.9791 2.247 2.7924 0
M  V30 25 H -1.7334 -0.6247 -3.1678 0
M  V30 26 H -2.8165 2.9514 3.5975 0
M  V30 27 H 1.6202 0.3694 4.3246 0
M  V30 28 H 0.1269 0.5751 5.2475 0
M  V30 29 H 1.3656 1.8378 5.2843 0
M  V30 30 H 1.4021 -0.339 -1.8401 0
M  V30 31 H 0.3343 -3.1877 -5.7652 0
M  V30 32 H 1.7048 -2.4253 -4.9832 0
M  V30 33 H 0.9082 -3.8564 -4.2421 0
M  V30 END ATOM
M  V30 BEGIN BOND
M  V30 1 1 1 2
M  V30 2 1 1 3
M  V30 3 1 2 4
M  V30 4 1 3 5
M  V30 5 2 4 6
M  V30 6 1 4 7
M  V30 7 1 5 8
M  V30 8 1 6 9
M  V30 9 1 7 10
M  V30 10 1 7 11
M  V30 11 1 8 12
M  V30 12 2 12 13
M  V30 13 1 12 14
M  V30 14 1 13 15
M  V30 15 1 14 16
M  V30 16 3 16 17
M  V30 17 2 9 10
M  V30 18 1 2 18
M  V30 19 1 2 19
M  V30 20 1 3 20
M  V30 21 1 3 21
M  V30 22 1 5 22
M  V30 23 1 5 23
M  V30 24 1 7 24
M  V30 25 1 8 25
M  V30 26 1 9 26
M  V30 27 1 11 27
M  V30 28 1 11 28
M  V30 29 1 11 29
M  V30 30 1 14 30
M  V30 31 1 15 31
M  V30 32 1 15 32
M  V30 33 1 15 33
M  V30 END BOND
M  V30 BEGIN COLLECTION
M  V30 MDLV30/STERAC1 ATOMS=(1 7)
M  V30 END COLLECTION
M  V30 END CTAB
M  END
>  <NO.>
52

>  <Name>
cimetidine

>  <SMILES>
CN=C(NC#N)NCCSCC1=NC=NC1C

>  <logBB>
-1.42

>  <Class>
-1

>  <MW>
252.12

>  <nHBAcc>
5

>  <nHBDon>
2

>  <SLogP>
0.24

>  <TopoPSA>
84.93

>  <MMFF94 Energy>
-97.759

$$$$
CN=C(NC#N)NCCSCc1nc[nH]c1C
Actelion Java MolfileCreator 2.0

  0  0  0  0  0  0              0 V3000
M  V30 BEGIN CTAB
M  V30 COUNTS 33 33 0 0 0
M  V30 BEGIN ATOM
M  V30 1 S -0.869 -2.767 0.4739 0
M  V30 2 C 0.6401 -1.9626 -0.1605 0
M  V30 3 C -1.9197 -1.3326 0.9374 0
M  V30 4 C 1.3175 -1.0902 0.8469 0
M  V30 5 C -2.2805 -0.3649 -0.1973 0
M  V30 6 N 1.2442 0.2921 0.7495 0
M  V30 7 C 2.0725 -1.4463 1.9506 0
M  V30 8 N -1.2051 0.5646 -0.4478 0
M  V30 9 C 1.937 0.7533 1.7665 0
M  V30 10 N 2.453 -0.2591 2.523 0
M  V30 11 C 2.4481 -2.7645 2.5112 0
M  V30 12 C -1.1418 1.4211 -1.49 0
M  V30 13 N -2.1078 1.5839 -2.3165 0
M  V30 14 N 0.1207 2.0346 -1.5356 0
M  V30 15 C -1.9578 2.4075 -3.5023 0
M  V30 16 C 0.0528 3.3683 -1.5207 0
M  V30 17 N 0.0483 4.5258 -1.4818 0
M  V30 18 H 1.3298 -2.7607 -0.4571 0
M  V30 19 H 0.4093 -1.4104 -1.0756 0
M  V30 20 H -2.8499 -1.7712 1.3156 0
M  V30 21 H -1.4572 -0.8083 1.7807 0
M  V30 22 H -2.5393 -0.9205 -1.1061 0
M  V30 23 H -3.1664 0.2073 0.1017 0
M  V30 24 H -0.4229 0.552 0.2038 0
M  V30 25 H 2.0998 1.7959 2.009 0
M  V30 26 H 3.0167 -0.1473 3.3553 0
M  V30 27 H 3.3686 -2.6979 3.1 0
M  V30 28 H 2.6145 -3.4944 1.713 0
M  V30 29 H 1.6519 -3.1408 3.1611 0
M  V30 30 H 0.8101 1.5969 -0.9147 0
M  V30 31 H -0.9593 2.3429 -3.9468 0
M  V30 32 H -2.2046 3.4514 -3.2872 0
M  V30 33 H -2.6617 2.0579 -4.2646 0
M  V30 END ATOM
M  V30 BEGIN BOND
M  V30 1 1 1 2
M  V30 2 1 1 3
M  V30 3 1 2 4
M  V30 4 1 3 5
M  V30 5 1 4 6
M  V30 6 2 4 7
M  V30 7 1 5 8
M  V30 8 2 6 9
M  V30 9 1 7 10
M  V30 10 1 7 11
M  V30 11 1 8 12
M  V30 12 2 12 13
M  V30 13 1 12 14
M  V30 14 1 13 15
M  V30 15 1 14 16
M  V30 16 3 16 17
M  V30 17 1 9 10
M  V30 18 1 2 18
M  V30 19 1 2 19
M  V30 20 1 3 20
M  V30 21 1 3 21
M  V30 22 1 5 22
M  V30 23 1 5 23
M  V30 24 1 8 24
M  V30 25 1 9 25
M  V30 26 1 10 26
M  V30 27 1 11 27
M  V30 28 1 11 28
M  V30 29 1 11 29
M  V30 30 1 14 30
M  V30 31 1 15 31
M  V30 32 1 15 32
M  V30 33 1 15 33
M  V30 END BOND
M  V30 END CTAB
M  END
>  <NO.>
53

>  <Name>
cimetidine (y-g1)

>  <SMILES>
CN=C(NC#N)NCCSCc1nc[nH]c1C

>  <logBB>
-1.4

>  <Class>
-1

>  <MW>
252.12

>  <nHBAcc>
4

>  <nHBDon>
3

>  <SLogP>
0.6

>  <TopoPSA>
88.89

>  <MMFF94 Energy>
-121.27

$$$$
CCCc1nc(C)c2c(=O)[nH]c(-c3cc(S(=O)(=O)N4CCN(CC)CC4)ccc3OCC)nn12
Actelion Java MolfileCreator 2.0

  0  0  0  0  0  0              0 V3000
M  V30 BEGIN CTAB
M  V30 COUNTS 66 69 0 0 0
M  V30 BEGIN ATOM
M  V30 1 S -1.9246 2.7274 -1.2828 0
M  V30 2 O -2.7843 3.224 -2.3369 0
M  V30 3 O -0.8799 3.5564 -0.7212 0
M  V30 4 N -2.9069 2.1761 -0.0203 0
M  V30 5 C -1.1505 1.2431 -1.8924 0
M  V30 6 C -4.0697 1.3254 -0.3896 0
M  V30 7 C -2.2247 1.6671 1.2006 0
M  V30 8 C 0.0312 0.7904 -1.3039 0
M  V30 9 C -1.6868 0.5809 -2.9944 0
M  V30 10 C -5.0433 1.2044 0.8019 0
M  V30 11 C -3.2352 1.5465 2.3583 0
M  V30 12 C 0.6699 -0.3663 -1.7861 0
M  V30 13 C -1.0555 -0.5637 -3.4879 0
M  V30 14 N -4.3853 0.674 2.0182 0
M  V30 15 C 1.9161 -0.7953 -1.0611 0
M  V30 16 C 0.1172 -1.0531 -2.8917 0
M  V30 17 C -5.3112 0.605 3.1606 0
M  V30 18 N 2.237 -0.2292 0.0653 0
M  V30 19 N 2.6775 -1.7886 -1.6425 0
M  V30 20 O 0.773 -2.1747 -3.3323 0
M  V30 21 C -6.3896 -0.4586 2.9867 0
M  V30 22 N 3.3852 -0.6853 0.6301 0
M  V30 23 C 3.8383 -2.2877 -1.1081 0
M  V30 24 C 0.1874 -2.9315 -4.3941 0
M  V30 25 C 4.1853 -1.6612 0.1158 0
M  V30 26 C 3.9638 -0.2635 1.807 0
M  V30 27 O 4.4712 -3.1802 -1.6613 0
M  V30 28 C 1.0708 -4.1411 -4.641 0
M  V30 29 C 5.229 -1.8061 1.0015 0
M  V30 30 N 5.0788 -0.9294 2.0533 0
M  V30 31 C 3.3693 0.8076 2.6567 0
M  V30 32 C 6.3863 -2.7257 0.9366 0
M  V30 33 C 3.7482 2.1993 2.1515 0
M  V30 34 C 3.1438 3.2899 3.0216 0
M  V30 35 H -3.7237 0.3287 -0.6859 0
M  V30 36 H -4.6115 1.7697 -1.2308 0
M  V30 37 H -1.4311 2.3563 1.5065 0
M  V30 38 H -1.7787 0.6867 1.0001 0
M  V30 39 H 0.4567 1.3448 -0.4682 0
M  V30 40 H -2.5884 0.9501 -3.4804 0
M  V30 41 H -5.8549 0.5381 0.4909 0
M  V30 42 H -5.4834 2.1894 1.0073 0
M  V30 43 H -2.7066 1.1333 3.2258 0
M  V30 44 H -3.5885 2.5495 2.6338 0
M  V30 45 H -1.5068 -1.0472 -4.3496 0
M  V30 46 H -4.7453 0.3384 4.0624 0
M  V30 47 H -5.7789 1.5787 3.3539 0
M  V30 48 H 2.3798 -2.2107 -2.5137 0
M  V30 49 H -6.9601 -0.5652 3.9154 0
M  V30 50 H -5.9492 -1.433 2.7512 0
M  V30 51 H -7.0988 -0.1969 2.196 0
M  V30 52 H 0.1426 -2.3285 -5.3079 0
M  V30 53 H -0.8154 -3.2716 -4.1119 0
M  V30 54 H 0.6692 -4.7592 -5.4487 0
M  V30 55 H 2.0866 -3.8288 -4.9053 0
M  V30 56 H 1.1512 -4.7507 -3.7348 0
M  V30 57 H 3.7265 0.6802 3.686 0
M  V30 58 H 2.2784 0.6996 2.6896 0
M  V30 59 H 7.0427 -2.5899 1.8017 0
M  V30 60 H 6.9738 -2.5401 0.0322 0
M  V30 61 H 6.0492 -3.7667 0.9262 0
M  V30 62 H 4.8395 2.3101 2.1396 0
M  V30 63 H 3.4054 2.3356 1.1186 0
M  V30 64 H 3.4287 4.2771 2.6445 0
M  V30 65 H 2.0507 3.2294 3.0228 0
M  V30 66 H 3.4945 3.2068 4.0552 0
M  V30 END ATOM
M  V30 BEGIN BOND
M  V30 1 2 1 2
M  V30 2 2 1 3
M  V30 3 1 1 4
M  V30 4 1 1 5
M  V30 5 1 4 6
M  V30 6 1 4 7
M  V30 7 2 5 8
M  V30 8 1 5 9
M  V30 9 1 6 10
M  V30 10 1 7 11
M  V30 11 1 8 12
M  V30 12 2 9 13
M  V30 13 1 10 14
M  V30 14 1 12 15
M  V30 15 2 12 16
M  V30 16 1 14 17
M  V30 17 2 15 18
M  V30 18 1 15 19
M  V30 19 1 16 20
M  V30 20 1 17 21
M  V30 21 1 18 22
M  V30 22 1 19 23
M  V30 23 1 20 24
M  V30 24 1 22 25
M  V30 25 1 22 26
M  V30 26 2 23 27
M  V30 27 1 24 28
M  V30 28 2 25 29
M  V30 29 2 26 30
M  V30 30 1 26 31
M  V30 31 1 29 32
M  V30 32 1 31 33
M  V30 33 1 33 34
M  V30 34 1 11 14
M  V30 35 1 13 16
M  V30 36 1 23 25
M  V30 37 1 29 30
M  V30 38 1 6 35
M  V30 39 1 6 36
M  V30 40 1 7 37
M  V30 41 1 7 38
M  V30 42 1 8 39
M  V30 43 1 9 40
M  V30 44 1 10 41
M  V30 45 1 10 42
M  V30 46 1 11 43
M  V30 47 1 11 44
M  V30 48 1 13 45
M  V30 49 1 17 46
M  V30 50 1 17 47
M  V30 51 1 19 48
M  V30 52 1 21 49
M  V30 53 1 21 50
M  V30 54 1 21 51
M  V30 55 1 24 52
M  V30 56 1 24 53
M  V30 57 1 28 54
M  V30 58 1 28 55
M  V30 59 1 28 56
M  V30 60 1 31 57
M  V30 61 1 31 58
M  V30 62 1 32 59
M  V30 63 1 32 60
M  V30 64 1 32 61
M  V30 65 1 33 62
M  V30 66 1 33 63
M  V30 67 1 34 64
M  V30 68 1 34 65
M  V30 69 1 34 66
M  V30 END BOND
M  V30 END CTAB
M  END
>  <NO.>
55

>  <Name>
vardenafil

>  <SMILES>
CCCc1nc(C)c2c(=O)[nH]c(-c3cc(S(=O)(=O)N4CCN(CC)CC4)ccc3OCC)nn12

>  <logBB>
-1.4

>  <Class>
-1

>  <MW>
488.22

>  <nHBAcc>
7

>  <nHBDon>
1

>  <SLogP>
2.07

>  <TopoPSA>
112.9

>  <MMFF94 Energy>
-33.522

$$$$
CCCn1c(=O)c2[nH]c(C3CCC(=O)C3)nc2n(CCC)c1=O
Actelion Java MolfileCreator 2.0

  0  0  0  0  0  0              0 V3000
M  V30 BEGIN CTAB
M  V30 COUNTS 45 47 0 0 0
M  V30 BEGIN ATOM
M  V30 1 O -2.6978 2.1419 1.1895 0
M  V30 2 C -2.0482 1.3642 0.4844 0
M  V30 3 N -2.6315 0.1983 -0.0576 0
M  V30 4 N -0.6992 1.5994 0.1967 0
M  V30 5 C -1.9664 -0.7442 -0.8499 0
M  V30 6 C -4.0411 -0.0547 0.2259 0
M  V30 7 C -0.0056 0.6872 -0.5599 0
M  V30 8 C -0.0327 2.7743 0.7486 0
M  V30 9 O -2.4816 -1.7523 -1.3223 0
M  V30 10 C -0.603 -0.4232 -1.0583 0
M  V30 11 C -4.2536 -1.0697 1.3554 0
M  V30 12 N 1.3091 0.7428 -0.9044 0
M  V30 13 C 0.6103 2.4736 2.103 0
M  V30 14 N 0.369 -1.0877 -1.7458 0
M  V30 15 C -3.7858 -0.57 2.714 0
M  V30 16 C 1.5276 -0.3426 -1.6298 0
M  V30 17 C 1.2956 3.702 2.6783 0
M  V30 18 C 2.8592 -0.715 -2.2236 0 CFG=2
M  V30 19 C 2.7956 -1.7218 -3.3688 0
M  V30 20 C 3.7616 -1.3934 -1.1864 0
M  V30 21 C 2.8818 -3.0314 -2.6295 0
M  V30 22 C 3.3699 -2.8668 -1.2145 0
M  V30 23 O 2.5667 -4.1059 -3.1227 0
M  V30 24 H -4.5589 0.8807 0.4657 0
M  V30 25 H -4.5098 -0.4468 -0.685 0
M  V30 26 H 0.7175 3.1299 0.0321 0
M  V30 27 H -0.7661 3.5815 0.8627 0
M  V30 28 H -5.3241 -1.2982 1.4191 0
M  V30 29 H -3.7408 -2.0105 1.1253 0
M  V30 30 H -0.1507 2.1191 2.8083 0
M  V30 31 H 1.3444 1.6659 1.9996 0
M  V30 32 H 0.2415 -1.9633 -2.2394 0
M  V30 33 H -4.0329 -1.3026 3.489 0
M  V30 34 H -2.7022 -0.4199 2.7328 0
M  V30 35 H -4.2729 0.3747 2.9749 0
M  V30 36 H 1.749 3.4649 3.6458 0
M  V30 37 H 2.0864 4.0585 2.0106 0
M  V30 38 H 0.5795 4.5162 2.8292 0
M  V30 39 H 3.3243 0.214 -2.5759 0
M  V30 40 H 3.6763 -1.6401 -4.014 0
M  V30 41 H 1.8841 -1.6585 -3.9677 0
M  V30 42 H 3.6722 -0.9697 -0.1804 0
M  V30 43 H 4.8102 -1.2932 -1.4955 0
M  V30 44 H 4.2225 -3.5181 -1.0114 0
M  V30 45 H 2.5475 -3.0764 -0.5248 0
M  V30 END ATOM
M  V30 BEGIN BOND
M  V30 1 2 1 2
M  V30 2 1 2 3
M  V30 3 1 2 4
M  V30 4 1 3 5
M  V30 5 1 3 6
M  V30 6 1 4 7
M  V30 7 1 4 8
M  V30 8 2 5 9
M  V30 9 1 5 10
M  V30 10 1 6 11
M  V30 11 1 7 12
M  V30 12 1 8 13
M  V30 13 1 10 14
M  V30 14 1 11 15
M  V30 15 2 12 16
M  V30 16 1 13 17
M  V30 17 1 16 18
M  V30 18 1 18 19
M  V30 19 1 18 20
M  V30 20 1 19 21
M  V30 21 1 20 22
M  V30 22 2 21 23
M  V30 23 2 7 10
M  V30 24 1 14 16
M  V30 25 1 21 22
M  V30 26 1 6 24
M  V30 27 1 6 25
M  V30 28 1 8 26
M  V30 29 1 8 27
M  V30 30 1 11 28
M  V30 31 1 11 29
M  V30 32 1 13 30
M  V30 33 1 13 31
M  V30 34 1 14 32
M  V30 35 1 15 33
M  V30 36 1 15 34
M  V30 37 1 15 35
M  V30 38 1 17 36
M  V30 39 1 17 37
M  V30 40 1 17 38
M  V30 41 1 18 39
M  V30 42 1 19 40
M  V30 43 1 19 41
M  V30 44 1 20 42
M  V30 45 1 20 43
M  V30 46 1 22 44
M  V30 47 1 22 45
M  V30 END BOND
M  V30 BEGIN COLLECTION
M  V30 MDLV30/STERAC1 ATOMS=(1 18)
M  V30 END COLLECTION
M  V30 END CTAB
M  END
>  <NO.>
56

>  <Name>
151581-23-6

>  <SMILES>
CCCn1c(=O)c2[nH]c(C3CCC(=O)C3)nc2n(CCC)c1=O

>  <logBB>
-1.4

>  <Class>
-1

>  <MW>
318.17

>  <nHBAcc>
4

>  <nHBDon>
1

>  <SLogP>
1.54

>  <TopoPSA>
89.75

>  <MMFF94 Energy>
-129.96

$$$$
COC(=O)Nc1nc2ccc(C(=O)N3CCN(c4ccccn4)CC3)cc2[nH]1
Actelion Java MolfileCreator 2.0

  0  0  0  0  0  0              0 V3000
M  V30 BEGIN CTAB
M  V30 COUNTS 48 51 0 0 0
M  V30 BEGIN ATOM
M  V30 1 O 4.9422 -4.5429 -1.4329 0
M  V30 2 C 4.6105 -4.8073 -2.5823 0
M  V30 3 O 5.3904 -5.4592 -3.4826 0
M  V30 4 N 3.4161 -4.501 -3.1615 0
M  V30 5 C 6.6741 -5.8351 -2.9812 0
M  V30 6 C 2.4131 -3.8408 -2.5088 0
M  V30 7 N 1.2656 -3.5068 -3.0519 0
M  V30 8 N 2.4769 -3.4464 -1.1959 0
M  V30 9 C 0.5602 -2.876 -2.0559 0
M  V30 10 C 1.3022 -2.8165 -0.8802 0
M  V30 11 C -0.7324 -2.3297 -2.0819 0
M  V30 12 C 0.8344 -2.2262 0.2957 0
M  V30 13 C -1.2335 -1.7292 -0.9187 0
M  V30 14 C -0.4496 -1.662 0.2412 0
M  V30 15 C -0.9877 -1.0382 1.4718 0
M  V30 16 O -1.0164 -1.7209 2.4929 0
M  V30 17 N -1.4225 0.2799 1.4219 0
M  V30 18 C -1.188 1.2106 0.3108 0
M  V30 19 C -2.0755 0.8398 2.608 0
M  V30 20 C -1.0557 2.6789 0.7629 0
M  V30 21 C -2.9545 2.0634 2.2989 0
M  V30 22 N -2.1957 3.0963 1.5794 0
M  V30 23 C -2.6604 4.3942 1.6276 0
M  V30 24 N -3.8983 4.6068 2.1302 0
M  V30 25 C -1.8958 5.4759 1.1884 0
M  V30 26 C -4.3781 5.8699 2.1849 0
M  V30 27 C -2.4051 6.7745 1.2527 0
M  V30 28 C -3.6765 6.9791 1.7599 0
M  V30 29 H 3.2526 -4.769 -4.1199 0
M  V30 30 H 7.2474 -4.9486 -2.6925 0
M  V30 31 H 6.5694 -6.5227 -2.1361 0
M  V30 32 H 7.2125 -6.35 -3.7816 0
M  V30 33 H 3.2712 -3.6062 -0.589 0
M  V30 34 H -1.3283 -2.3863 -2.9864 0
M  V30 35 H 1.4238 -2.2045 1.2068 0
M  V30 36 H -2.2444 -1.3283 -0.9202 0
M  V30 37 H -0.2891 0.9196 -0.2411 0
M  V30 38 H -2.047 1.1154 -0.3639 0
M  V30 39 H -1.2739 1.1229 3.3018 0
M  V30 40 H -2.6729 0.0633 3.0988 0
M  V30 41 H -0.9694 3.2881 -0.1442 0
M  V30 42 H -0.1359 2.805 1.3463 0
M  V30 43 H -3.8116 1.7567 1.6866 0
M  V30 44 H -3.336 2.4419 3.2554 0
M  V30 45 H -0.8904 5.3347 0.8103 0
M  V30 46 H -5.3787 5.9633 2.5965 0
M  V30 47 H -1.8056 7.6137 0.9131 0
M  V30 48 H -4.1064 7.9712 1.8273 0
M  V30 END ATOM
M  V30 BEGIN BOND
M  V30 1 2 1 2
M  V30 2 1 2 3
M  V30 3 1 2 4
M  V30 4 1 3 5
M  V30 5 1 4 6
M  V30 6 2 6 7
M  V30 7 1 6 8
M  V30 8 1 7 9
M  V30 9 1 8 10
M  V30 10 1 9 11
M  V30 11 1 10 12
M  V30 12 2 11 13
M  V30 13 2 12 14
M  V30 14 1 14 15
M  V30 15 2 15 16
M  V30 16 1 15 17
M  V30 17 1 17 18
M  V30 18 1 17 19
M  V30 19 1 18 20
M  V30 20 1 19 21
M  V30 21 1 20 22
M  V30 22 1 22 23
M  V30 23 2 23 24
M  V30 24 1 23 25
M  V30 25 1 24 26
M  V30 26 2 25 27
M  V30 27 2 26 28
M  V30 28 2 9 10
M  V30 29 1 13 14
M  V30 30 1 21 22
M  V30 31 1 27 28
M  V30 32 1 4 29
M  V30 33 1 5 30
M  V30 34 1 5 31
M  V30 35 1 5 32
M  V30 36 1 8 33
M  V30 37 1 11 34
M  V30 38 1 12 35
M  V30 39 1 13 36
M  V30 40 1 18 37
M  V30 41 1 18 38
M  V30 42 1 19 39
M  V30 43 1 19 40
M  V30 44 1 20 41
M  V30 45 1 20 42
M  V30 46 1 21 43
M  V30 47 1 21 44
M  V30 48 1 25 45
M  V30 49 1 26 46
M  V30 50 1 27 47
M  V30 51 1 28 48
M  V30 END BOND
M  V30 END CTAB
M  END
>  <NO.>
58

>  <Name>
chembl12325

>  <SMILES>
COC(=O)Nc1nc2ccc(C(=O)N3CCN(c4ccccn4)CC3)cc2[nH]1

>  <logBB>
-1.4

>  <Class>
-1

>  <MW>
380.16

>  <nHBAcc>
6

>  <nHBDon>
2

>  <SLogP>
2.1

>  <TopoPSA>
103.45

>  <MMFF94 Energy>
-18.08

$$$$
COc1nccc(-c2c(-c3ccc(F)cc3)ncn2C2CCC(O)CC2)n1
Actelion Java MolfileCreator 2.0

  0  0  0  0  0  0              0 V3000
M  V30 BEGIN CTAB
M  V30 COUNTS 48 51 0 0 0
M  V30 BEGIN ATOM
M  V30 1 F 1.4405 0.3999 -6.9774 0
M  V30 2 C 0.9115 0.4131 -5.7469 0
M  V30 3 C 0.9843 -0.7284 -4.9582 0
M  V30 4 C 0.2921 1.5647 -5.2797 0
M  V30 5 C 0.432 -0.7183 -3.6739 0
M  V30 6 C -0.2579 1.5749 -3.9958 0
M  V30 7 C -0.1831 0.4385 -3.1732 0
M  V30 8 C -0.7727 0.4971 -1.8423 0
M  V30 9 N -1.9393 1.1913 -1.6085 0
M  V30 10 C -0.2907 -0.075 -0.6689 0
M  V30 11 C -2.169 1.0672 -0.3258 0
M  V30 12 N -1.1933 0.3365 0.2975 0
M  V30 13 C 0.8947 -0.8805 -0.4171 0
M  V30 14 C -1.116 0.1208 1.7407 0
M  V30 15 N 2.0522 -0.2626 -0.7017 0
M  V30 16 C 0.8184 -2.1665 0.0729 0
M  V30 17 C -1.0667 1.4417 2.5281 0
M  V30 18 C -2.2565 -0.7819 2.2374 0
M  V30 19 C 3.1666 -0.9771 -0.4955 0
M  V30 20 C 2.0229 -2.7996 0.2568 0
M  V30 21 C -0.9708 1.1858 4.0296 0
M  V30 22 C -2.161 -1.0229 3.7412 0
M  V30 23 O 4.3977 -0.4258 -0.7745 0
M  V30 24 N 3.2077 -2.2284 -0.0158 0
M  V30 25 C -2.1026 0.2873 4.5253 0
M  V30 26 C 4.3022 0.8281 -1.4377 0
M  V30 27 O -1.8825 0.0047 5.9006 0
M  V30 28 H 1.4656 -1.6199 -5.3468 0
M  V30 29 H 0.2371 2.4442 -5.9123 0
M  V30 30 H 0.4817 -1.6265 -3.0814 0
M  V30 31 H -0.748 2.4762 -3.6311 0
M  V30 32 H -3.0118 1.4983 0.199 0
M  V30 33 H -0.1705 -0.3966 1.9374 0
M  V30 34 H -0.1205 -2.6577 0.2849 0
M  V30 35 H -1.9614 2.0446 2.3285 0
M  V30 36 H -0.2071 2.0405 2.2031 0
M  V30 37 H -3.2293 -0.3276 2.0095 0
M  V30 38 H -2.232 -1.7442 1.7119 0
M  V30 39 H 2.0749 -3.8164 0.6353 0
M  V30 40 H -0.002 0.7276 4.2681 0
M  V30 41 H -0.9888 2.1376 4.5744 0
M  V30 42 H -3.0168 -1.6194 4.0799 0
M  V30 43 H -1.2724 -1.6276 3.9653 0
M  V30 44 H -3.057 0.8202 4.4376 0
M  V30 45 H 5.3189 1.163 -1.6651 0
M  V30 46 H 3.7628 0.7389 -2.3876 0
M  V30 47 H 3.8412 1.5847 -0.793 0
M  V30 48 H -2.6412 -0.5102 6.2258 0
M  V30 END ATOM
M  V30 BEGIN BOND
M  V30 1 1 1 2
M  V30 2 2 2 3
M  V30 3 1 2 4
M  V30 4 1 3 5
M  V30 5 2 4 6
M  V30 6 2 5 7
M  V30 7 1 7 8
M  V30 8 1 8 9
M  V30 9 2 8 10
M  V30 10 2 9 11
M  V30 11 1 10 12
M  V30 12 1 10 13
M  V30 13 1 12 14
M  V30 14 2 13 15
M  V30 15 1 13 16
M  V30 16 1 14 17
M  V30 17 1 14 18
M  V30 18 1 15 19
M  V30 19 2 16 20
M  V30 20 1 17 21
M  V30 21 1 18 22
M  V30 22 1 19 23
M  V30 23 2 19 24
M  V30 24 1 21 25
M  V30 25 1 23 26
M  V30 26 1 25 27
M  V30 27 1 6 7
M  V30 28 1 11 12
M  V30 29 1 20 24
M  V30 30 1 22 25
M  V30 31 1 3 28
M  V30 32 1 4 29
M  V30 33 1 5 30
M  V30 34 1 6 31
M  V30 35 1 11 32
M  V30 36 1 14 33
M  V30 37 1 16 34
M  V30 38 1 17 35
M  V30 39 1 17 36
M  V30 40 1 18 37
M  V30 41 1 18 38
M  V30 42 1 20 39
M  V30 43 1 21 40
M  V30 44 1 21 41
M  V30 45 1 22 42
M  V30 46 1 22 43
M  V30 47 1 25 44
M  V30 48 1 26 45
M  V30 49 1 26 46
M  V30 50 1 26 47
M  V30 51 1 27 48
M  V30 END BOND
M  V30 END CTAB
M  END
>  <NO.>
59

>  <Name>
sb 239063

>  <SMILES>
COc1nccc(-c2c(-c3ccc(F)cc3)ncn2C2CCC(O)CC2)n1

>  <logBB>
-1.4

>  <Class>
-1

>  <MW>
368.16

>  <nHBAcc>
5

>  <nHBDon>
1

>  <SLogP>
3.63

>  <TopoPSA>
73.06

>  <MMFF94 Energy>
-13.547

$$$$
NCc1c[n+]2ccccc2[nH]1
Actelion Java MolfileCreator 2.0

  0  0  0  0  0  0              0 V3000
M  V30 BEGIN CTAB
M  V30 COUNTS 21 22 0 0 0
M  V30 BEGIN ATOM
M  V30 1 N -0.5473 0.782 0.4691 0 CHG=1
M  V30 2 C -0.9241 -0.4035 0.028 0
M  V30 3 C -1.5301 1.8179 0.8499 0
M  V30 4 C 0.8346 0.8743 0.4941 0
M  V30 5 N 0.1431 -1.117 -0.2422 0
M  V30 6 C -2.2459 -0.7884 -0.1136 0
M  V30 7 C -2.8658 1.4469 0.7146 0
M  V30 8 C 1.3099 -0.3626 0.0336 0
M  V30 9 C -3.2099 0.1709 0.2432 0
M  V30 10 C 2.6951 -0.8418 -0.2166 0
M  V30 11 N 3.1424 -0.4351 -1.5409 0
M  V30 12 H -1.2317 2.797 1.2083 0
M  V30 13 H 1.3119 1.7846 0.8059 0
M  V30 14 H 0.0948 -2.0662 -0.6106 0
M  V30 15 H -2.5229 -1.7698 -0.4789 0
M  V30 16 H -3.6531 2.1537 0.9751 0
M  V30 17 H -4.2667 -0.089 0.1472 0
M  V30 18 H 3.357 -0.4201 0.5465 0
M  V30 19 H 2.7194 -1.9323 -0.1243 0
M  V30 20 H 2.5848 -0.9182 -2.2479 0
M  V30 21 H 4.0986 -0.7641 -1.6879 0
M  V30 END ATOM
M  V30 BEGIN BOND
M  V30 1 2 1 2
M  V30 2 1 1 3
M  V30 3 1 1 4
M  V30 4 1 2 5
M  V30 5 1 2 6
M  V30 6 2 3 7
M  V30 7 2 4 8
M  V30 8 2 6 9
M  V30 9 1 8 10
M  V30 10 1 10 11
M  V30 11 1 5 8
M  V30 12 1 7 9
M  V30 13 1 3 12
M  V30 14 1 4 13
M  V30 15 1 5 14
M  V30 16 1 6 15
M  V30 17 1 7 16
M  V30 18 1 9 17
M  V30 19 1 10 18
M  V30 20 1 10 19
M  V30 21 1 11 20
M  V30 22 1 11 21
M  V30 END BOND
M  V30 END CTAB
M  END
>  <NO.>
60

>  <Name>
sbb079053

>  <SMILES>
NCc1c[n+]2ccccc2[nH]1

>  <logBB>
-1.4

>  <Class>
-1

>  <MW>
148.09

>  <nHBAcc>
1

>  <nHBDon>
2

>  <SLogP>
0.21

>  <TopoPSA>
45.91

>  <MMFF94 Energy>
57.925

$$$$
Nc1ccc(C(=O)O)cc1
Actelion Java MolfileCreator 2.0

  0  0  0  0  0  0              0 V3000
M  V30 BEGIN CTAB
M  V30 COUNTS 17 17 0 0 0
M  V30 BEGIN ATOM
M  V30 1 O -0.8561 0.934 -3.1942 0
M  V30 2 C -0.7427 1.357 -2.0585 0
M  V30 3 O -1.0225 2.6385 -1.761 0
M  V30 4 C -0.3013 0.5745 -0.8792 0
M  V30 5 C 0.0189 -0.7748 -1.0584 0
M  V30 6 C -0.2007 1.1408 0.3952 0
M  V30 7 C 0.4389 -1.5474 0.0292 0
M  V30 8 C 0.2204 0.3596 1.4771 0
M  V30 9 C 0.5529 -0.9858 1.303 0
M  V30 10 N 0.945 -1.758 2.3791 0
M  V30 11 H -1.2952 3.0228 -2.6203 0
M  V30 12 H -0.0588 -1.2323 -2.0424 0
M  V30 13 H -0.449 2.1859 0.5612 0
M  V30 14 H 0.6771 -2.5957 -0.13 0
M  V30 15 H 0.2865 0.8157 2.4616 0
M  V30 16 H 1.0724 -1.3426 3.2915 0
M  V30 17 H 1.2292 -2.7186 2.2461 0
M  V30 END ATOM
M  V30 BEGIN BOND
M  V30 1 2 1 2
M  V30 2 1 2 3
M  V30 3 1 2 4
M  V30 4 2 4 5
M  V30 5 1 4 6
M  V30 6 1 5 7
M  V30 7 2 6 8
M  V30 8 2 7 9
M  V30 9 1 9 10
M  V30 10 1 8 9
M  V30 11 1 3 11
M  V30 12 1 5 12
M  V30 13 1 6 13
M  V30 14 1 7 14
M  V30 15 1 8 15
M  V30 16 1 10 16
M  V30 17 1 10 17
M  V30 END BOND
M  V30 END CTAB
M  END
>  <NO.>
61

>  <Name>
4-aminobenzoic acid

>  <SMILES>
Nc1ccc(C(=O)O)cc1

>  <logBB>
-1.4

>  <Class>
-1

>  <MW>
137.05

>  <nHBAcc>
2

>  <nHBDon>
2

>  <SLogP>
0.97

>  <TopoPSA>
63.32

>  <MMFF94 Energy>
1.9444

$$$$
Cc1ccccc1N=C1N(C)CCN1C
Actelion Java MolfileCreator 2.0

  0  0  0  0  0  0              0 V3000
M  V30 BEGIN CTAB
M  V30 COUNTS 32 33 0 0 0
M  V30 BEGIN ATOM
M  V30 1 N -0.7815 0.7815 0.0781 0
M  V30 2 C -0.2971 0.7243 -1.2311 0
M  V30 3 C -0.1681 0.2142 1.0635 0
M  V30 4 C -0.7223 -0.2745 -2.1257 0
M  V30 5 C 0.5573 1.7357 -1.6863 0
M  V30 6 N -0.6771 0.2806 2.349 0
M  V30 7 N 0.9938 -0.5334 1.1713 0
M  V30 8 C -0.2342 -0.2731 -3.442 0
M  V30 9 C -1.6761 -1.3446 -1.6764 0
M  V30 10 C 1.0329 1.7336 -2.9978 0
M  V30 11 C 0.0429 -0.5252 3.3128 0
M  V30 12 C -1.9492 0.867 2.6834 0
M  V30 13 C 1.3099 -0.9079 2.5447 0
M  V30 14 C 1.941 -0.8456 0.1337 0
M  V30 15 C 0.6412 0.7246 -3.8735 0
M  V30 16 H 0.8501 2.527 -1.0014 0
M  V30 17 H -0.5437 -1.0458 -4.1417 0
M  V30 18 H -2.5768 -0.8985 -1.242 0
M  V30 19 H -1.1975 -1.9929 -0.9355 0
M  V30 20 H -1.9956 -1.9725 -2.5149 0
M  V30 21 H 1.7001 2.5222 -3.3336 0
M  V30 22 H 0.2783 0.0297 4.2264 0
M  V30 23 H -0.5367 -1.417 3.5751 0
M  V30 24 H -2.0592 0.9778 3.7675 0
M  V30 25 H -2.7675 0.2364 2.3214 0
M  V30 26 H -2.0517 1.863 2.2403 0
M  V30 27 H 1.5278 -1.9763 2.6422 0
M  V30 28 H 2.1706 -0.3334 2.9045 0
M  V30 29 H 1.4714 -1.4126 -0.6739 0
M  V30 30 H 2.3974 0.0636 -0.2667 0
M  V30 31 H 2.7565 -1.468 0.5197 0
M  V30 32 H 1.0062 0.7209 -4.8971 0
M  V30 END ATOM
M  V30 BEGIN BOND
M  V30 1 1 1 2
M  V30 2 2 1 3
M  V30 3 2 2 4
M  V30 4 1 2 5
M  V30 5 1 3 6
M  V30 6 1 3 7
M  V30 7 1 4 8
M  V30 8 1 4 9
M  V30 9 2 5 10
M  V30 10 1 6 11
M  V30 11 1 6 12
M  V30 12 1 7 13
M  V30 13 1 7 14
M  V30 14 2 8 15
M  V30 15 1 10 15
M  V30 16 1 11 13
M  V30 17 1 5 16
M  V30 18 1 8 17
M  V30 19 1 9 18
M  V30 20 1 9 19
M  V30 21 1 9 20
M  V30 22 1 10 21
M  V30 23 1 11 22
M  V30 24 1 11 23
M  V30 25 1 12 24
M  V30 26 1 12 25
M  V30 27 1 12 26
M  V30 28 1 13 27
M  V30 29 1 13 28
M  V30 30 1 14 29
M  V30 31 1 14 30
M  V30 32 1 14 31
M  V30 33 1 15 32
M  V30 END BOND
M  V30 END CTAB
M  END
>  <NO.>
63

>  <Name>
1,3-dimethyl-2-(2-methylphenylimino)imidazolidine

>  <SMILES>
Cc1ccccc1N=C1N(C)CCN1C

>  <logBB>
-1.39

>  <Class>
-1

>  <MW>
203.14

>  <nHBAcc>
1

>  <nHBDon>
0

>  <SLogP>
1.86

>  <TopoPSA>
18.84

>  <MMFF94 Energy>
-40.474

$$$$
Cc1ccccc1NC1=NCCN1
Actelion Java MolfileCreator 2.0

  0  0  0  0  0  0              0 V3000
M  V30 BEGIN CTAB
M  V30 COUNTS 26 27 0 0 0
M  V30 BEGIN ATOM
M  V30 1 N -0.5479 2.6636 1.1744 0
M  V30 2 C -0.2719 1.4408 0.8038 0
M  V30 3 C 0.7705 3.2291 1.5927 0
M  V30 4 N 1.0115 1.0469 0.9518 0
M  V30 5 N -1.204 0.5674 0.3617 0
M  V30 6 C 1.7793 2.0728 1.5878 0
M  V30 7 C -1.0385 -0.7042 -0.2063 0
M  V30 8 C -0.2058 -0.9649 -1.3127 0
M  V30 9 C -1.7538 -1.7697 0.3669 0
M  V30 10 C -0.0634 -2.2876 -1.7715 0
M  V30 11 C 0.5386 0.1191 -2.0453 0
M  V30 12 C -1.6179 -3.0741 -0.1092 0
M  V30 13 C -0.7647 -3.3342 -1.1744 0
M  V30 14 H 0.6882 3.6776 2.588 0
M  V30 15 H 1.0649 4.0108 0.8839 0
M  V30 16 H 1.2901 0.0782 0.9136 0
M  V30 17 H -2.1586 0.8908 0.4427 0
M  V30 18 H 2.6837 2.3217 1.0259 0
M  V30 19 H 2.0519 1.7809 2.6067 0
M  V30 20 H -2.4093 -1.5856 1.2156 0
M  V30 21 H 0.5879 -2.5047 -2.6158 0
M  V30 22 H 1.5436 0.2386 -1.6308 0
M  V30 23 H 0.0078 1.0751 -2.0022 0
M  V30 24 H 0.634 -0.1311 -3.1081 0
M  V30 25 H -2.1723 -3.8839 0.3574 0
M  V30 26 H -0.6505 -4.3486 -1.5473 0
M  V30 END ATOM
M  V30 BEGIN BOND
M  V30 1 2 1 2
M  V30 2 1 1 3
M  V30 3 1 2 4
M  V30 4 1 2 5
M  V30 5 1 3 6
M  V30 6 1 5 7
M  V30 7 2 7 8
M  V30 8 1 7 9
M  V30 9 1 8 10
M  V30 10 1 8 11
M  V30 11 2 9 12
M  V30 12 2 10 13
M  V30 13 1 4 6
M  V30 14 1 12 13
M  V30 15 1 3 14
M  V30 16 1 3 15
M  V30 17 1 4 16
M  V30 18 1 5 17
M  V30 19 1 6 18
M  V30 20 1 6 19
M  V30 21 1 9 20
M  V30 22 1 10 21
M  V30 23 1 11 22
M  V30 24 1 11 23
M  V30 25 1 11 24
M  V30 26 1 12 25
M  V30 27 1 13 26
M  V30 END BOND
M  V30 END CTAB
M  END
>  <NO.>
64

>  <Name>
tz-17

>  <SMILES>
Cc1ccccc1NC1=NCCN1

>  <logBB>
-1.39

>  <Class>
-1

>  <MW>
175.11

>  <nHBAcc>
3

>  <nHBDon>
2

>  <SLogP>
1.37

>  <TopoPSA>
36.42

>  <MMFF94 Energy>
-31.75

$$$$
CN1[C@H]2CC[C@H]1[C@@H](CC(=O)O)[C@@H](OC(=O)c1ccccc1)C2
Actelion Java MolfileCreator 2.0

  0  0  0  0  0  0              0 V3000
M  V30 BEGIN CTAB
M  V30 COUNTS 43 45 0 0 0
M  V30 BEGIN ATOM
M  V30 1 O -0.4795 2.0791 -1.9991 0
M  V30 2 C 0.0333 0.994 -1.7791 0
M  V30 3 O 0.0995 0.3756 -0.5728 0
M  V30 4 C 0.6745 0.16 -2.8312 0
M  V30 5 C -0.4748 1.0837 0.5493 0 CFG=2
M  V30 6 C 0.6454 0.6271 -4.1526 0
M  V30 7 C 1.3014 -1.061 -2.5477 0
M  V30 8 C 0.2109 0.6079 1.8581 0 CFG=1
M  V30 9 C -2.002 0.8777 0.575 0
M  V30 10 C 1.2331 -0.1177 -5.1767 0
M  V30 11 C 1.8885 -1.8034 -3.5752 0
M  V30 12 C -0.4485 -0.672 2.4362 0 CFG=1
M  V30 13 C 1.7325 0.4179 1.7087 0
M  V30 14 C -2.4399 -0.4086 1.2997 0 CFG=1
M  V30 15 C 1.8536 -1.3319 -4.887 0
M  V30 16 N -1.8892 -0.5009 2.6535 0
M  V30 17 C -0.4948 -1.847 1.448 0
M  V30 18 C 2.4229 1.7035 1.3438 0
M  V30 19 C -1.811 -1.6617 0.682 0
M  V30 20 C -2.2925 0.538 3.5821 0
M  V30 21 O 2.0945 2.8291 1.6769 0
M  V30 22 O 3.5263 1.4999 0.6006 0
M  V30 23 H -0.2638 2.1536 0.4241 0
M  V30 24 H 0.1635 1.5741 -4.3895 0
M  V30 25 H 1.3433 -1.4477 -1.5333 0
M  V30 26 H 0.0647 1.4058 2.599 0
M  V30 27 H -2.4016 0.8562 -0.4457 0
M  V30 28 H -2.465 1.7398 1.0701 0
M  V30 29 H 1.2063 0.2501 -6.1995 0
M  V30 30 H 2.3742 -2.7502 -3.3516 0
M  V30 31 H 0.0557 -0.9751 3.3612 0
M  V30 32 H 1.9637 -0.3357 0.9492 0
M  V30 33 H 2.1676 0.076 2.6548 0
M  V30 34 H -3.5326 -0.4878 1.2974 0
M  V30 35 H 2.3113 -1.9116 -5.6851 0
M  V30 36 H -0.5317 -2.7982 1.9947 0
M  V30 37 H 0.3652 -1.8993 0.7768 0
M  V30 38 H -2.4518 -2.5362 0.8513 0
M  V30 39 H -1.655 -1.5769 -0.3977 0
M  V30 40 H -1.8486 0.3555 4.5668 0
M  V30 41 H -3.3793 0.5152 3.7189 0
M  V30 42 H -2.0193 1.5509 3.2742 0
M  V30 43 H 3.8753 2.4019 0.4385 0
M  V30 END ATOM
M  V30 BEGIN BOND
M  V30 1 2 1 2
M  V30 2 1 2 3
M  V30 3 1 2 4
M  V30 4 1 3 5
M  V30 5 2 4 6
M  V30 6 1 4 7
M  V30 7 1 5 8
M  V30 8 1 5 9
M  V30 9 1 6 10
M  V30 10 2 7 11
M  V30 11 1 8 12
M  V30 12 1 8 13
M  V30 13 1 9 14
M  V30 14 2 10 15
M  V30 15 1 12 16
M  V30 16 1 12 17
M  V30 17 1 13 18
M  V30 18 1 14 19
M  V30 19 1 16 20
M  V30 20 2 18 21
M  V30 21 1 18 22
M  V30 22 1 11 15
M  V30 23 1 14 16
M  V30 24 1 17 19
M  V30 25 1 5 23
M  V30 26 1 6 24
M  V30 27 1 7 25
M  V30 28 1 8 26
M  V30 29 1 9 27
M  V30 30 1 9 28
M  V30 31 1 10 29
M  V30 32 1 11 30
M  V30 33 1 12 31
M  V30 34 1 13 32
M  V30 35 1 13 33
M  V30 36 1 14 34
M  V30 37 1 15 35
M  V30 38 1 17 36
M  V30 39 1 17 37
M  V30 40 1 19 38
M  V30 41 1 19 39
M  V30 42 1 20 40
M  V30 43 1 20 41
M  V30 44 1 20 42
M  V30 45 1 22 43
M  V30 END BOND
M  V30 BEGIN COLLECTION
M  V30 MDLV30/STEABS ATOMS=(4 5 8 12 14)
M  V30 END COLLECTION
M  V30 END CTAB
M  END
>  <NO.>
66

>  <Name>
benzoylecgonine

>  <SMILES>
CN1[C@H]2CC[C@H]1[C@@H](CC(=O)O)[C@@H](OC(=O)c1ccccc1)C2

>  <logBB>
-1.35

>  <Class>
-1

>  <MW>
303.15

>  <nHBAcc>
4

>  <nHBDon>
1

>  <SLogP>
2.17

>  <TopoPSA>
66.84

>  <MMFF94 Energy>
16.196

$$$$
CN1Cc2c(-c3noc(C(C)(C)O)n3)ncn2-c2cccc(Cl)c2C1=O
Actelion Java MolfileCreator 2.0

  0  0  0  0  0  0              0 V3000
M  V30 BEGIN CTAB
M  V30 COUNTS 42 45 0 0 0
M  V30 BEGIN ATOM
M  V30 1 Cl -0.1624 5.2095 -3.9052 0
M  V30 2 C -1.1189 3.7905 -3.6444 0
M  V30 3 C -0.9636 2.9498 -2.5285 0
M  V30 4 C -2.0383 3.468 -4.6516 0
M  V30 5 C -0.0739 3.3779 -1.4105 0
M  V30 6 C -1.7327 1.7671 -2.4642 0
M  V30 7 C -2.8077 2.3097 -4.5651 0
M  V30 8 O -0.2147 4.514 -0.9658 0
M  V30 9 N 0.8367 2.4676 -0.8826 0
M  V30 10 N -1.5518 0.8316 -1.4202 0
M  V30 11 C -2.652 1.4526 -3.4789 0
M  V30 12 C 0.9179 1.0853 -1.3145 0
M  V30 13 C 1.6733 2.8602 0.2401 0
M  V30 14 C -0.3413 0.446 -0.8839 0
M  V30 15 C -2.5185 0.0786 -0.8024 0
M  V30 16 C -0.6468 -0.5335 0.0431 0
M  V30 17 N -2.0075 -0.7593 0.0701 0
M  V30 18 C 0.2478 -1.2872 0.933 0
M  V30 19 N 1.5745 -1.1026 1.0122 0
M  V30 20 N -0.2457 -2.2592 1.7702 0
M  V30 21 O 1.9725 -2.0258 1.9806 0
M  V30 22 C 0.8422 -2.6785 2.3774 0
M  V30 23 C 0.9711 -3.7249 3.4391 0
M  V30 24 O -0.2612 -4.4646 3.479 0
M  V30 25 C 1.1706 -3.0843 4.8103 0
M  V30 26 C 2.0851 -4.72 3.1263 0
M  V30 27 H -2.1541 4.1203 -5.5152 0
M  V30 28 H -3.5154 2.0683 -5.3556 0
M  V30 29 H -3.237 0.5346 -3.4563 0
M  V30 30 H 1.8104 0.6151 -0.896 0
M  V30 31 H 1.0203 1.0545 -2.4054 0
M  V30 32 H 2.7181 2.653 -0.0088 0
M  V30 33 H 1.5726 3.9224 0.4762 0
M  V30 34 H 1.3828 2.2741 1.1171 0
M  V30 35 H -3.5735 0.1847 -1.0194 0
M  V30 36 H -0.9532 -3.8879 3.096 0
M  V30 37 H 1.1959 -3.8464 5.5975 0
M  V30 38 H 2.0992 -2.5052 4.858 0
M  V30 39 H 0.3388 -2.4128 5.0552 0
M  V30 40 H 1.9207 -5.1993 2.1538 0
M  V30 41 H 2.1089 -5.5254 3.8693 0
M  V30 42 H 3.0698 -4.2407 3.1061 0
M  V30 END ATOM
M  V30 BEGIN BOND
M  V30 1 1 1 2
M  V30 2 2 2 3
M  V30 3 1 2 4
M  V30 4 1 3 5
M  V30 5 1 3 6
M  V30 6 2 4 7
M  V30 7 2 5 8
M  V30 8 1 5 9
M  V30 9 1 6 10
M  V30 10 2 6 11
M  V30 11 1 9 12
M  V30 12 1 9 13
M  V30 13 1 10 14
M  V30 14 1 10 15
M  V30 15 2 14 16
M  V30 16 2 15 17
M  V30 17 1 16 18
M  V30 18 2 18 19
M  V30 19 1 18 20
M  V30 20 1 19 21
M  V30 21 2 20 22
M  V30 22 1 22 23
M  V30 23 1 23 24
M  V30 24 1 23 25
M  V30 25 1 23 26
M  V30 26 1 7 11
M  V30 27 1 12 14
M  V30 28 1 16 17
M  V30 29 1 21 22
M  V30 30 1 4 27
M  V30 31 1 7 28
M  V30 32 1 11 29
M  V30 33 1 12 30
M  V30 34 1 12 31
M  V30 35 1 13 32
M  V30 36 1 13 33
M  V30 37 1 13 34
M  V30 38 1 15 35
M  V30 39 1 24 36
M  V30 40 1 25 37
M  V30 41 1 25 38
M  V30 42 1 25 39
M  V30 43 1 26 40
M  V30 44 1 26 41
M  V30 45 1 26 42
M  V30 END BOND
M  V30 END CTAB
M  END
>  <NO.>
67

>  <Name>
monohydroxy l-663,581 metabolite

>  <SMILES>
CN1Cc2c(-c3noc(C(C)(C)O)n3)ncn2-c2cccc(Cl)c2C1=O

>  <logBB>
-1.34

>  <Class>
-1

>  <MW>
373.09

>  <nHBAcc>
6

>  <nHBDon>
1

>  <SLogP>
2.39

>  <TopoPSA>
97.28

>  <MMFF94 Energy>
66.596

$$$$
O=C(O)c1cc(=O)c2c(Cl)cc(Cl)cc2[nH]1
Actelion Java MolfileCreator 2.0

  0  0  0  0  0  0              0 V3000
M  V30 BEGIN CTAB
M  V30 COUNTS 21 22 0 0 0
M  V30 BEGIN ATOM
M  V30 1 Cl -2.6825 -1.3406 -2.6825 0
M  V30 2 C -1.9179 -0.1522 -1.6882 0
M  V30 3 C -0.8481 -0.4171 -0.8179 0
M  V30 4 C -2.4323 1.1469 -1.79 0
M  V30 5 C -0.2357 -1.7738 -0.6453 0
M  V30 6 C -0.301 0.6386 -0.0511 0
M  V30 7 C -1.8867 2.1769 -1.0314 0
M  V30 8 O -0.6146 -2.7696 -1.2478 0
M  V30 9 C 0.8918 -1.9255 0.3063 0
M  V30 10 N 0.7638 0.4009 0.8223 0
M  V30 11 C -0.8267 1.9303 -0.1647 0
M  V30 12 Cl -2.5261 3.7681 -1.1643 0
M  V30 13 C 1.3187 -0.8483 0.9732 0
M  V30 14 C 2.453 -1.0293 1.923 0
M  V30 15 O 3.0531 -2.0568 2.1737 0
M  V30 16 O 2.77 0.1406 2.5182 0
M  V30 17 H -3.2613 1.3536 -2.4639 0
M  V30 18 H 1.3184 -2.9154 0.4145 0
M  V30 19 H 1.1745 1.1424 1.3842 0
M  V30 20 H -0.4103 2.7454 0.422 0
M  V30 21 H 3.5153 -0.1023 3.1087 0
M  V30 END ATOM
M  V30 BEGIN BOND
M  V30 1 1 1 2
M  V30 2 2 2 3
M  V30 3 1 2 4
M  V30 4 1 3 5
M  V30 5 1 3 6
M  V30 6 2 4 7
M  V30 7 2 5 8
M  V30 8 1 5 9
M  V30 9 1 6 10
M  V30 10 2 6 11
M  V30 11 1 7 12
M  V30 12 2 9 13
M  V30 13 1 13 14
M  V30 14 2 14 15
M  V30 15 1 14 16
M  V30 16 1 7 11
M  V30 17 1 10 13
M  V30 18 1 4 17
M  V30 19 1 9 18
M  V30 20 1 10 19
M  V30 21 1 11 20
M  V30 22 1 16 21
M  V30 END BOND
M  V30 END CTAB
M  END
>  <NO.>
68

>  <Name>
dcka

>  <SMILES>
O=C(O)c1cc(=O)c2c(Cl)cc(Cl)cc2[nH]1

>  <logBB>
-1.33

>  <Class>
-1

>  <MW>
256.96

>  <nHBAcc>
2

>  <nHBDon>
2

>  <SLogP>
2.53

>  <TopoPSA>
70.16

>  <MMFF94 Energy>
13.37

$$$$
CC(C)(C)NCC(O)c1ccc(O)c(CO)c1
Actelion Java MolfileCreator 2.0

  0  0  0  0  0  0              0 V3000
M  V30 BEGIN CTAB
M  V30 COUNTS 38 38 0 0 0
M  V30 BEGIN ATOM
M  V30 1 O -2.8061 -3.0403 -2.8061 0
M  V30 2 C -2.1935 -2.4175 -1.7552 0
M  V30 3 C -2.2405 -2.9258 -0.4541 0
M  V30 4 C -1.5097 -1.2408 -2.0459 0
M  V30 5 C -1.5746 -2.2032 0.5544 0
M  V30 6 C -2.9403 -4.2021 -0.0621 0
M  V30 7 C -0.8558 -0.5385 -1.0322 0
M  V30 8 C -0.8838 -1.0032 0.2869 0
M  V30 9 O -3.6303 -4.801 -1.159 0
M  V30 10 C -0.1898 -0.3003 1.44 0 CFG=1
M  V30 11 O 0.9141 -1.1126 1.8676 0
M  V30 12 C 0.3191 1.1505 1.2094 0
M  V30 13 N 1.5622 1.1886 0.4153 0
M  V30 14 C 2.1131 2.5275 0.137 0
M  V30 15 C 1.1396 3.383 -0.69 0
M  V30 16 C 3.3859 2.2975 -0.7007 0
M  V30 17 C 2.5049 3.2729 1.4233 0
M  V30 18 H -3.2565 -3.8301 -2.4335 0
M  V30 19 H -1.4831 -0.8718 -3.0677 0
M  V30 20 H -1.5843 -2.5828 1.5768 0
M  V30 21 H -2.2053 -4.9244 0.3079 0
M  V30 22 H -3.676 -3.9932 0.7217 0
M  V30 23 H -0.3218 0.3692 -1.3012 0
M  V30 24 H -4.0517 -5.6044 -0.8029 0
M  V30 25 H -0.899 -0.257 2.2765 0
M  V30 26 H 1.3265 -1.4336 1.0447 0
M  V30 27 H -0.478 1.7442 0.7512 0
M  V30 28 H 0.5303 1.5737 2.1982 0
M  V30 29 H 2.2587 0.6374 0.9231 0
M  V30 30 H 0.2504 3.6653 -0.1166 0
M  V30 31 H 1.6179 4.3139 -1.0166 0
M  V30 32 H 0.8079 2.852 -1.5897 0
M  V30 33 H 3.1598 1.7699 -1.6351 0
M  V30 34 H 3.8614 3.2487 -0.9672 0
M  V30 35 H 4.1266 1.7033 -0.1521 0
M  V30 36 H 1.6291 3.5447 2.0222 0
M  V30 37 H 3.1679 2.6657 2.0502 0
M  V30 38 H 3.0355 4.2035 1.1898 0
M  V30 END ATOM
M  V30 BEGIN BOND
M  V30 1 1 1 2
M  V30 2 2 2 3
M  V30 3 1 2 4
M  V30 4 1 3 5
M  V30 5 1 3 6
M  V30 6 2 4 7
M  V30 7 2 5 8
M  V30 8 1 6 9
M  V30 9 1 8 10
M  V30 10 1 10 11
M  V30 11 1 10 12
M  V30 12 1 12 13
M  V30 13 1 13 14
M  V30 14 1 14 15
M  V30 15 1 14 16
M  V30 16 1 14 17
M  V30 17 1 7 8
M  V30 18 1 1 18
M  V30 19 1 4 19
M  V30 20 1 5 20
M  V30 21 1 6 21
M  V30 22 1 6 22
M  V30 23 1 7 23
M  V30 24 1 9 24
M  V30 25 1 10 25
M  V30 26 1 11 26
M  V30 27 1 12 27
M  V30 28 1 12 28
M  V30 29 1 13 29
M  V30 30 1 15 30
M  V30 31 1 15 31
M  V30 32 1 15 32
M  V30 33 1 16 33
M  V30 34 1 16 34
M  V30 35 1 16 35
M  V30 36 1 17 36
M  V30 37 1 17 37
M  V30 38 1 17 38
M  V30 END BOND
M  V30 BEGIN COLLECTION
M  V30 MDLV30/STERAC1 ATOMS=(1 10)
M  V30 END COLLECTION
M  V30 END CTAB
M  END
>  <NO.>
70

>  <Name>
salbutamol 

>  <SMILES>
CC(C)(C)NCC(O)c1ccc(O)c(CO)c1

>  <logBB>
-1.3

>  <Class>
-1

>  <MW>
239.15

>  <nHBAcc>
4

>  <nHBDon>
4

>  <SLogP>
1.31

>  <TopoPSA>
72.72

>  <MMFF94 Energy>
46.325

$$$$
CCCc1nn(C)c2c(=O)[nH]c(-c3cc(S(=O)(=O)N4CCN(C)CC4)ccc3OCC)nc12
Actelion Java MolfileCreator 2.0

  0  0  0  0  0  0              0 V3000
M  V30 BEGIN CTAB
M  V30 COUNTS 63 66 0 0 0
M  V30 BEGIN ATOM
M  V30 1 S -2.0895 -2.9745 -0.4015 0
M  V30 2 O -2.12 -2.3977 -1.7278 0
M  V30 3 O -3.1958 -3.7644 0.0973 0
M  V30 4 N -0.6665 -3.9064 -0.2623 0
M  V30 5 C -1.8134 -1.6729 0.7763 0
M  V30 6 C 0.5839 -3.2245 -0.7338 0
M  V30 7 C -0.7901 -5.2436 -0.9323 0
M  V30 8 C -1.4683 -0.3924 0.3427 0
M  V30 9 C -1.9862 -1.9381 2.1329 0
M  V30 10 C 1.8137 -4.1124 -0.4537 0
M  V30 11 C 0.46 -6.1005 -0.6521 0
M  V30 12 C -1.2626 0.6417 1.2753 0
M  V30 13 C -1.7944 -0.9172 3.0665 0
M  V30 14 N 1.7047 -5.4385 -1.0936 0
M  V30 15 C -0.8567 1.9811 0.7162 0
M  V30 16 C -1.4286 0.3742 2.6551 0
M  V30 17 C 2.8692 -6.2633 -0.7786 0
M  V30 18 N -0.5106 2.0734 -0.5398 0
M  V30 19 N -0.8795 3.0614 1.5925 0
M  V30 20 O -1.2227 1.41 3.532 0
M  V30 21 C -0.1592 3.3623 -0.9421 0
M  V30 22 C -0.537 4.3503 1.2536 0
M  V30 23 C -1.3029 1.1406 4.9334 0
M  V30 24 C -0.1661 4.44 -0.1096 0
M  V30 25 C 0.2593 3.83 -2.198 0
M  V30 26 O -0.5568 5.2762 2.056 0
M  V30 27 C -0.9781 2.4277 5.6706 0
M  V30 28 N 0.237 5.4942 -0.867 0
M  V30 29 N 0.5094 5.1528 -2.1514 0
M  V30 30 C 0.4366 3.0593 -3.46 0
M  V30 31 C 0.3905 6.8634 -0.4378 0
M  V30 32 C 1.8031 2.3767 -3.5314 0
M  V30 33 C 1.9661 1.5896 -4.8218 0
M  V30 34 H 0.5151 -3.0115 -1.8072 0
M  V30 35 H 0.7202 -2.2804 -0.1985 0
M  V30 36 H -1.663 -5.7748 -0.5379 0
M  V30 37 H -0.9213 -5.109 -2.0129 0
M  V30 38 H -1.3579 -0.2 -0.7239 0
M  V30 39 H -2.2738 -2.9336 2.4676 0
M  V30 40 H 1.9345 -4.2222 0.6325 0
M  V30 41 H 2.7029 -3.5951 -0.8334 0
M  V30 42 H 0.5076 -6.3213 0.4228 0
M  V30 43 H 0.3467 -7.0551 -1.1797 0
M  V30 44 H -1.9441 -1.1675 4.1127 0
M  V30 45 H 2.9737 -6.4421 0.2976 0
M  V30 46 H 3.7866 -5.7849 -1.139 0
M  V30 47 H 2.8001 -7.2329 -1.2839 0
M  V30 48 H -1.1445 2.9164 2.5581 0
M  V30 49 H -0.5745 0.3723 5.2164 0
M  V30 50 H -2.3169 0.822 5.2 0
M  V30 51 H -1.0256 2.2801 6.7532 0
M  V30 52 H 0.0234 2.7816 5.4048 0
M  V30 53 H -1.6802 3.2201 5.39 0
M  V30 54 H 0.3128 3.7288 -4.3208 0
M  V30 55 H -0.3576 2.3062 -3.5371 0
M  V30 56 H 1.1391 6.8944 0.3575 0
M  V30 57 H -0.5758 7.2231 -0.0761 0
M  V30 58 H 0.7207 7.4753 -1.2812 0
M  V30 59 H 2.6012 3.126 -3.4623 0
M  V30 60 H 1.9311 1.6986 -2.6787 0
M  V30 61 H 2.9497 1.1106 -4.8518 0
M  V30 62 H 1.2046 0.8072 -4.9026 0
M  V30 63 H 1.8805 2.2449 -5.6945 0
M  V30 END ATOM
M  V30 BEGIN BOND
M  V30 1 2 1 2
M  V30 2 2 1 3
M  V30 3 1 1 4
M  V30 4 1 1 5
M  V30 5 1 4 6
M  V30 6 1 4 7
M  V30 7 2 5 8
M  V30 8 1 5 9
M  V30 9 1 6 10
M  V30 10 1 7 11
M  V30 11 1 8 12
M  V30 12 2 9 13
M  V30 13 1 10 14
M  V30 14 1 12 15
M  V30 15 2 12 16
M  V30 16 1 14 17
M  V30 17 2 15 18
M  V30 18 1 15 19
M  V30 19 1 16 20
M  V30 20 1 18 21
M  V30 21 1 19 22
M  V30 22 1 20 23
M  V30 23 2 21 24
M  V30 24 1 21 25
M  V30 25 2 22 26
M  V30 26 1 23 27
M  V30 27 1 24 28
M  V30 28 2 25 29
M  V30 29 1 25 30
M  V30 30 1 28 31
M  V30 31 1 30 32
M  V30 32 1 32 33
M  V30 33 1 11 14
M  V30 34 1 13 16
M  V30 35 1 22 24
M  V30 36 1 28 29
M  V30 37 1 6 34
M  V30 38 1 6 35
M  V30 39 1 7 36
M  V30 40 1 7 37
M  V30 41 1 8 38
M  V30 42 1 9 39
M  V30 43 1 10 40
M  V30 44 1 10 41
M  V30 45 1 11 42
M  V30 46 1 11 43
M  V30 47 1 13 44
M  V30 48 1 17 45
M  V30 49 1 17 46
M  V30 50 1 17 47
M  V30 51 1 19 48
M  V30 52 1 23 49
M  V30 53 1 23 50
M  V30 54 1 27 51
M  V30 55 1 27 52
M  V30 56 1 27 53
M  V30 57 1 30 54
M  V30 58 1 30 55
M  V30 59 1 31 56
M  V30 60 1 31 57
M  V30 61 1 31 58
M  V30 62 1 32 59
M  V30 63 1 32 60
M  V30 64 1 33 61
M  V30 65 1 33 62
M  V30 66 1 33 63
M  V30 END BOND
M  V30 END CTAB
M  END
>  <NO.>
71

>  <Name>
sildenafil

>  <SMILES>
CCCc1nn(C)c2c(=O)[nH]c(-c3cc(S(=O)(=O)N4CCN(C)CC4)ccc3OCC)nc12

>  <logBB>
-1.3

>  <Class>
-1

>  <MW>
474.2

>  <nHBAcc>
7

>  <nHBDon>
1

>  <SLogP>
1.61

>  <TopoPSA>
113.42

>  <MMFF94 Energy>
-11.241

$$$$
CN(C)Cc1ccc(CSCCNc2nc(=O)c(Cc3ccc4ccccc4c3)c[nH]2)o1
Actelion Java MolfileCreator 2.0

  0  0  0  0  0  0              0 V3000
M  V30 BEGIN CTAB
M  V30 COUNTS 60 63 0 0 0
M  V30 BEGIN ATOM
M  V30 1 S 1.5202 -0.5599 -0.3199 0
M  V30 2 C 1.7171 0.7809 0.9083 0
M  V30 3 C 1.7349 -2.0536 0.7256 0
M  V30 4 C 2.9063 0.6332 1.7801 0
M  V30 5 C 0.6601 -2.2521 1.7982 0
M  V30 6 O 4.126 0.6576 1.1709 0
M  V30 7 C 3.0632 0.4755 3.1423 0
M  V30 8 N -0.4822 -3.0055 1.3271 0
M  V30 9 C 5.0665 0.4879 2.144 0
M  V30 10 C 4.4551 0.3748 3.3752 0
M  V30 11 C -1.592 -2.5932 0.6657 0
M  V30 12 C 6.4908 0.4593 1.702 0
M  V30 13 N -2.6343 -3.3655 0.6566 0
M  V30 14 N -1.5521 -1.3852 0.0547 0
M  V30 15 N 7.1077 -0.8685 1.8859 0
M  V30 16 C -3.7783 -2.9475 0.0048 0
M  V30 17 C -2.6381 -0.9068 -0.6134 0
M  V30 18 C 8.5557 -0.7734 1.6907 0
M  V30 19 C 6.5471 -1.8437 0.9449 0
M  V30 20 O -4.7976 -3.632 -0.0306 0
M  V30 21 C -3.7772 -1.6082 -0.6828 0
M  V30 22 C -5.0553 -1.2293 -1.3772 0
M  V30 23 C -5.055 0.125 -2.0541 0
M  V30 24 C -5.4237 1.2762 -1.3406 0
M  V30 25 C -4.6505 0.2529 -3.3875 0
M  V30 26 C -5.3972 2.5448 -1.9438 0
M  V30 27 C -4.6204 1.5077 -3.9996 0
M  V30 28 C -4.9897 2.6617 -3.2918 0
M  V30 29 C -5.7661 3.7003 -1.2358 0
M  V30 30 C -4.9625 3.93 -3.8939 0
M  V30 31 C -5.7336 4.9539 -1.8487 0
M  V30 32 C -5.3322 5.0686 -3.1762 0
M  V30 33 H 0.8034 0.8395 1.5082 0
M  V30 34 H 1.7894 1.7236 0.3553 0
M  V30 35 H 1.7573 -2.917 0.0512 0
M  V30 36 H 2.724 -2.0033 1.1906 0
M  V30 37 H 1.1118 -2.841 2.606 0
M  V30 38 H 0.3388 -1.314 2.2615 0
M  V30 39 H 2.2722 0.4314 3.8781 0
M  V30 40 H -0.5826 -3.9426 1.707 0
M  V30 41 H 4.9628 0.2302 4.3189 0
M  V30 42 H 6.5755 0.7935 0.6597 0
M  V30 43 H 7.0259 1.1981 2.3131 0
M  V30 44 H -0.6644 -0.9156 -0.0828 0
M  V30 45 H -2.4947 0.0599 -1.0839 0
M  V30 46 H 8.9984 -0.0853 2.4196 0
M  V30 47 H 8.8171 -0.426 0.6845 0
M  V30 48 H 9.0311 -1.747 1.8543 0
M  V30 49 H 6.6879 -1.5408 -0.0989 0
M  V30 50 H 5.4768 -1.9969 1.1196 0
M  V30 51 H 7.0202 -2.8226 1.0835 0
M  V30 52 H -5.8814 -1.2499 -0.6539 0
M  V30 53 H -5.2987 -1.9912 -2.1297 0
M  V30 54 H -5.7334 1.1815 -0.3009 0
M  V30 55 H -4.3538 -0.624 -3.9593 0
M  V30 56 H -4.3043 1.5779 -5.0381 0
M  V30 57 H -6.0851 3.6309 -0.1982 0
M  V30 58 H -4.6532 4.0395 -4.9309 0
M  V30 59 H -6.0239 5.8394 -1.2894 0
M  V30 60 H -5.308 6.0439 -3.6553 0
M  V30 END ATOM
M  V30 BEGIN BOND
M  V30 1 1 1 2
M  V30 2 1 1 3
M  V30 3 1 2 4
M  V30 4 1 3 5
M  V30 5 1 4 6
M  V30 6 2 4 7
M  V30 7 1 5 8
M  V30 8 1 6 9
M  V30 9 1 7 10
M  V30 10 1 8 11
M  V30 11 1 9 12
M  V30 12 2 11 13
M  V30 13 1 11 14
M  V30 14 1 12 15
M  V30 15 1 13 16
M  V30 16 1 14 17
M  V30 17 1 15 18
M  V30 18 1 15 19
M  V30 19 2 16 20
M  V30 20 1 16 21
M  V30 21 1 21 22
M  V30 22 1 22 23
M  V30 23 2 23 24
M  V30 24 1 23 25
M  V30 25 1 24 26
M  V30 26 2 25 27
M  V30 27 1 26 28
M  V30 28 2 26 29
M  V30 29 2 28 30
M  V30 30 1 29 31
M  V30 31 1 30 32
M  V30 32 2 9 10
M  V30 33 2 17 21
M  V30 34 1 27 28
M  V30 35 2 31 32
M  V30 36 1 2 33
M  V30 37 1 2 34
M  V30 38 1 3 35
M  V30 39 1 3 36
M  V30 40 1 5 37
M  V30 41 1 5 38
M  V30 42 1 7 39
M  V30 43 1 8 40
M  V30 44 1 10 41
M  V30 45 1 12 42
M  V30 46 1 12 43
M  V30 47 1 14 44
M  V30 48 1 17 45
M  V30 49 1 18 46
M  V30 50 1 18 47
M  V30 51 1 18 48
M  V30 52 1 19 49
M  V30 53 1 19 50
M  V30 54 1 19 51
M  V30 55 1 22 52
M  V30 56 1 22 53
M  V30 57 1 24 54
M  V30 58 1 25 55
M  V30 59 1 27 56
M  V30 60 1 29 57
M  V30 61 1 30 58
M  V30 62 1 31 59
M  V30 63 1 32 60
M  V30 END BOND
M  V30 END CTAB
M  END
>  <NO.>
72

>  <Name>
sk&f 93319

>  <SMILES>
CN(C)Cc1ccc(CSCCNc2nc(=O)c(Cc3ccc4ccccc4c3)c[nH]2)o1

>  <logBB>
-1.3

>  <Class>
-1

>  <MW>
448.19

>  <nHBAcc>
6

>  <nHBDon>
2

>  <SLogP>
4.51

>  <TopoPSA>
74.16

>  <MMFF94 Energy>
-19.226

$$$$
COc1ccc(NS(=O)(=O)c2sc3ccc(Cl)cc3c2C)cc1N1CCNCC1
Actelion Java MolfileCreator 2.0

  0  0  0  0  0  0              0 V3000
M  V30 BEGIN CTAB
M  V30 COUNTS 51 54 0 0 0
M  V30 BEGIN ATOM
M  V30 1 Cl -4.4563 -4.1257 1.4013 0
M  V30 2 C -3.7048 -2.5975 1.6513 0
M  V30 3 C -2.454 -2.539 2.2715 0
M  V30 4 C -4.3434 -1.4413 1.2316 0
M  V30 5 C -1.8107 -1.2906 2.479 0
M  V30 6 C -3.7401 -0.1977 1.4269 0
M  V30 7 C -2.4771 -0.1394 2.0501 0
M  V30 8 C -0.5272 -0.9739 3.0715 0
M  V30 9 S -1.5649 1.2746 2.3792 0
M  V30 10 C -0.2819 0.3931 3.0677 0
M  V30 11 C 0.4304 -1.9849 3.621 0
M  V30 12 S 1.1346 1.3436 3.6064 0
M  V30 13 O 1.5334 0.7387 4.8603 0
M  V30 14 O 0.7977 2.7493 3.5389 0
M  V30 15 N 2.4084 1.0477 2.5099 0
M  V30 16 C 2.1464 1.4273 1.1551 0
M  V30 17 C 1.5944 0.4871 0.2844 0
M  V30 18 C 2.3558 2.7336 0.733 0
M  V30 19 C 1.2409 0.8237 -1.0333 0
M  V30 20 C 2.0204 3.0981 -0.5714 0
M  V30 21 N 0.6775 -0.1291 -1.8815 0
M  V30 22 C 1.4569 2.1627 -1.4525 0
M  V30 23 C 1.4371 -0.5017 -3.0866 0
M  V30 24 C -0.1924 -1.1874 -1.3502 0
M  V30 25 O 1.0621 2.473 -2.734 0
M  V30 26 C 0.4948 -1.1035 -4.1532 0
M  V30 27 C -1.0857 -1.7682 -2.4693 0
M  V30 28 C 0.9995 3.8469 -3.0889 0
M  V30 29 N -0.3296 -2.2236 -3.6531 0
M  V30 30 H -1.9732 -3.4586 2.5945 0
M  V30 31 H -5.3174 -1.4928 0.751 0
M  V30 32 H -4.2382 0.712 1.1011 0
M  V30 33 H 0.3273 -2.0469 4.709 0
M  V30 34 H 1.4649 -1.7187 3.3824 0
M  V30 35 H 0.2522 -2.9796 3.2023 0
M  V30 36 H 3.2428 1.4928 2.8944 0
M  V30 37 H 1.459 -0.5312 0.635 0
M  V30 38 H 2.7568 3.4829 1.4101 0
M  V30 39 H 2.1962 4.1268 -0.8677 0
M  V30 40 H 1.9648 0.3472 -3.5332 0
M  V30 41 H 2.1998 -1.2417 -2.8114 0
M  V30 42 H -0.8471 -0.7886 -0.5672 0
M  V30 43 H 0.4158 -1.9893 -0.9137 0
M  V30 44 H 1.0947 -1.4628 -4.9963 0
M  V30 45 H -0.1654 -0.3167 -4.5403 0
M  V30 46 H -1.6533 -2.6151 -2.0683 0
M  V30 47 H -1.8169 -1.0109 -2.7804 0
M  V30 48 H 0.3596 4.4096 -2.4007 0
M  V30 49 H 0.5533 3.914 -4.0859 0
M  V30 50 H 2.0022 4.2826 -3.1452 0
M  V30 51 H -0.9898 -2.4946 -4.3805 0
M  V30 END ATOM
M  V30 BEGIN BOND
M  V30 1 1 1 2
M  V30 2 2 2 3
M  V30 3 1 2 4
M  V30 4 1 3 5
M  V30 5 2 4 6
M  V30 6 2 5 7
M  V30 7 1 5 8
M  V30 8 1 7 9
M  V30 9 2 8 10
M  V30 10 1 8 11
M  V30 11 1 10 12
M  V30 12 2 12 13
M  V30 13 2 12 14
M  V30 14 1 12 15
M  V30 15 1 15 16
M  V30 16 2 16 17
M  V30 17 1 16 18
M  V30 18 1 17 19
M  V30 19 2 18 20
M  V30 20 1 19 21
M  V30 21 2 19 22
M  V30 22 1 21 23
M  V30 23 1 21 24
M  V30 24 1 22 25
M  V30 25 1 23 26
M  V30 26 1 24 27
M  V30 27 1 25 28
M  V30 28 1 26 29
M  V30 29 1 6 7
M  V30 30 1 9 10
M  V30 31 1 20 22
M  V30 32 1 27 29
M  V30 33 1 3 30
M  V30 34 1 4 31
M  V30 35 1 6 32
M  V30 36 1 11 33
M  V30 37 1 11 34
M  V30 38 1 11 35
M  V30 39 1 15 36
M  V30 40 1 17 37
M  V30 41 1 18 38
M  V30 42 1 20 39
M  V30 43 1 23 40
M  V30 44 1 23 41
M  V30 45 1 24 42
M  V30 46 1 24 43
M  V30 47 1 26 44
M  V30 48 1 26 45
M  V30 49 1 27 46
M  V30 50 1 27 47
M  V30 51 1 28 48
M  V30 52 1 28 49
M  V30 53 1 28 50
M  V30 54 1 29 51
M  V30 END BOND
M  V30 END CTAB
M  END
>  <NO.>
73

>  <Name>
sb-271406

>  <SMILES>
COc1ccc(NS(=O)(=O)c2sc3ccc(Cl)cc3c2C)cc1N1CCNCC1

>  <logBB>
-1.3

>  <Class>
-1

>  <MW>
451.08

>  <nHBAcc>
6

>  <nHBDon>
2

>  <SLogP>
4.08

>  <TopoPSA>
70.67

>  <MMFF94 Energy>
94.963

$$$$
COc1ccc2c(c1)c(CC(=O)O)c(C)n2C(=O)c1ccc(Cl)cc1
Actelion Java MolfileCreator 2.0

  0  0  0  0  0  0              0 V3000
M  V30 BEGIN CTAB
M  V30 COUNTS 41 43 0 0 0
M  V30 BEGIN ATOM
M  V30 1 Cl 5.4133 -2.825 -2.7442 0
M  V30 2 C 4.0393 -1.8029 -2.5838 0
M  V30 3 C 3.1843 -1.6172 -3.6701 0
M  V30 4 C 3.7927 -1.1609 -1.3698 0
M  V30 5 C 2.0668 -0.7892 -3.5401 0
M  V30 6 C 2.6763 -0.3314 -1.2352 0
M  V30 7 C 1.8008 -0.163 -2.316 0
M  V30 8 C 0.6263 0.7337 -2.2057 0
M  V30 9 O 0.4109 1.4885 -3.1534 0
M  V30 10 N -0.2408 0.8038 -1.083 0
M  V30 11 C -0.5181 -0.2331 -0.1835 0
M  V30 12 C -0.973 1.9267 -0.6866 0
M  V30 13 C -1.3094 0.2902 0.8408 0
M  V30 14 C -0.1731 -1.6 -0.1923 0
M  V30 15 C -1.5974 1.6486 0.521 0
M  V30 16 C -0.9564 3.2088 -1.4555 0
M  V30 17 C -1.6842 -0.5494 1.9134 0
M  V30 18 C -0.568 -2.4132 0.8788 0
M  V30 19 C -2.4406 2.5804 1.3421 0
M  V30 20 C -1.3069 -1.8956 1.934 0
M  V30 21 C -1.6303 3.3777 2.3375 0
M  V30 22 O -1.7421 -2.5898 3.0299 0
M  V30 23 O -0.4189 3.4226 2.4722 0
M  V30 24 O -2.4204 4.1258 3.1405 0
M  V30 25 C -1.3669 -3.9586 3.1166 0
M  V30 26 H 3.3857 -2.1059 -4.62 0
M  V30 27 H 4.4683 -1.2961 -0.5286 0
M  V30 28 H 1.4086 -0.6307 -4.3923 0
M  V30 29 H 2.5052 0.1798 -0.2897 0
M  V30 30 H 0.3793 -2.0495 -1.0111 0
M  V30 31 H 0.0692 3.545 -1.6366 0
M  V30 32 H -1.4601 4.0106 -0.9074 0
M  V30 33 H -1.475 3.091 -2.412 0
M  V30 34 H -2.286 -0.157 2.7289 0
M  V30 35 H -0.2797 -3.4592 0.8466 0
M  V30 36 H -2.9733 3.2813 0.6906 0
M  V30 37 H -3.1919 2.0055 1.8954 0
M  V30 38 H -1.7829 4.5878 3.7253 0
M  V30 39 H -1.7982 -4.538 2.2938 0
M  V30 40 H -1.7714 -4.3573 4.052 0
M  V30 41 H -0.2781 -4.0689 3.1509 0
M  V30 END ATOM
M  V30 BEGIN BOND
M  V30 1 1 1 2
M  V30 2 2 2 3
M  V30 3 1 2 4
M  V30 4 1 3 5
M  V30 5 2 4 6
M  V30 6 2 5 7
M  V30 7 1 7 8
M  V30 8 2 8 9
M  V30 9 1 8 10
M  V30 10 1 10 11
M  V30 11 1 10 12
M  V30 12 2 11 13
M  V30 13 1 11 14
M  V30 14 2 12 15
M  V30 15 1 12 16
M  V30 16 1 13 17
M  V30 17 2 14 18
M  V30 18 1 15 19
M  V30 19 2 17 20
M  V30 20 1 19 21
M  V30 21 1 20 22
M  V30 22 2 21 23
M  V30 23 1 21 24
M  V30 24 1 22 25
M  V30 25 1 6 7
M  V30 26 1 13 15
M  V30 27 1 18 20
M  V30 28 1 3 26
M  V30 29 1 4 27
M  V30 30 1 5 28
M  V30 31 1 6 29
M  V30 32 1 14 30
M  V30 33 1 16 31
M  V30 34 1 16 32
M  V30 35 1 16 33
M  V30 36 1 17 34
M  V30 37 1 18 35
M  V30 38 1 19 36
M  V30 39 1 19 37
M  V30 40 1 24 38
M  V30 41 1 25 39
M  V30 42 1 25 40
M  V30 43 1 25 41
M  V30 END BOND
M  V30 END CTAB
M  END
>  <NO.>
74

>  <Name>
indomethacin

>  <SMILES>
COc1ccc2c(c1)c(CC(=O)O)c(C)n2C(=O)c1ccc(Cl)cc1

>  <logBB>
-1.3

>  <Class>
-1

>  <MW>
357.08

>  <nHBAcc>
3

>  <nHBDon>
1

>  <SLogP>
3.93

>  <TopoPSA>
68.53

>  <MMFF94 Energy>
92.756

$$$$
COc1cccnc1CCCCNc1ncc(Cc2cccc(C)n2)c(=O)[nH]1
Actelion Java MolfileCreator 2.0

  0  0  0  0  0  0              0 V3000
M  V30 BEGIN CTAB
M  V30 COUNTS 53 55 0 0 0
M  V30 BEGIN ATOM
M  V30 1 O 3.1562 -0.3941 4.1045 0
M  V30 2 C 2.3233 -0.1159 3.2474 0
M  V30 3 N 1.9943 -0.9874 2.2504 0
M  V30 4 C 1.6223 1.1803 3.2128 0
M  V30 5 C 1.1031 -0.6923 1.2592 0
M  V30 6 C 0.7725 1.3643 2.1939 0
M  V30 7 C 1.9323 2.1997 4.2641 0
M  V30 8 N 0.4985 0.4526 1.2099 0
M  V30 9 N 0.9052 -1.6774 0.3392 0
M  V30 10 C 1.1066 2.0254 5.5167 0
M  V30 11 C 0.0133 -1.5549 -0.7979 0
M  V30 12 N -0.0603 2.7164 5.5815 0
M  V30 13 C 1.526 1.1747 6.5353 0
M  V30 14 C 0.7201 -0.8387 -1.9487 0
M  V30 15 C -0.8319 2.5634 6.684 0
M  V30 16 C 0.7232 1.0303 7.6612 0
M  V30 17 C -0.172 -0.6422 -3.1771 0
M  V30 18 C -0.4735 1.7331 7.7402 0
M  V30 19 C -2.1181 3.3318 6.734 0
M  V30 20 C -0.5067 -1.9534 -3.8931 0
M  V30 21 C -1.3466 -1.7129 -5.1251 0
M  V30 22 N -2.6915 -1.8271 -4.9488 0
M  V30 23 C -0.7623 -1.3656 -6.3519 0
M  V30 24 C -3.4787 -1.5996 -6.0191 0
M  V30 25 O 0.602 -1.2764 -6.3897 0
M  V30 26 C -1.6139 -1.1411 -7.4338 0
M  V30 27 C -2.9924 -1.259 -7.2675 0
M  V30 28 C 1.1945 -0.8663 -7.6153 0
M  V30 29 H 2.4597 -1.877 2.2705 0
M  V30 30 H 0.2265 2.3017 2.1109 0
M  V30 31 H 3.0002 2.19 4.5159 0
M  V30 32 H 1.7463 3.2076 3.8687 0
M  V30 33 H 1.4096 -2.5479 0.4174 0
M  V30 34 H -0.908 -1.0322 -0.5159 0
M  V30 35 H -0.2774 -2.5646 -1.1048 0
M  V30 36 H 2.4602 0.6265 6.4552 0
M  V30 37 H 1.6259 -1.3895 -2.2317 0
M  V30 38 H 1.0565 0.149 -1.6096 0
M  V30 39 H 1.0277 0.3709 8.4686 0
M  V30 40 H 0.3482 0.0298 -3.8713 0
M  V30 41 H -1.0953 -0.1262 -2.8842 0
M  V30 42 H -1.1139 1.6305 8.6098 0
M  V30 43 H -2.1231 4.0053 7.5966 0
M  V30 44 H -2.247 3.9354 5.8297 0
M  V30 45 H -2.9665 2.6445 6.8087 0
M  V30 46 H 0.4077 -2.4963 -4.1597 0
M  V30 47 H -1.0672 -2.6159 -3.2231 0
M  V30 48 H -4.5452 -1.701 -5.8402 0
M  V30 49 H -1.2393 -0.8733 -8.4153 0
M  V30 50 H -3.6713 -1.0871 -8.0953 0
M  V30 51 H 1.0 -1.5943 -8.4097 0
M  V30 52 H 2.2772 -0.8209 -7.4639 0
M  V30 53 H 0.8564 0.1347 -7.903 0
M  V30 END ATOM
M  V30 BEGIN BOND
M  V30 1 2 1 2
M  V30 2 1 2 3
M  V30 3 1 2 4
M  V30 4 1 3 5
M  V30 5 2 4 6
M  V30 6 1 4 7
M  V30 7 2 5 8
M  V30 8 1 5 9
M  V30 9 1 7 10
M  V30 10 1 9 11
M  V30 11 2 10 12
M  V30 12 1 10 13
M  V30 13 1 11 14
M  V30 14 1 12 15
M  V30 15 2 13 16
M  V30 16 1 14 17
M  V30 17 2 15 18
M  V30 18 1 15 19
M  V30 19 1 17 20
M  V30 20 1 20 21
M  V30 21 2 21 22
M  V30 22 1 21 23
M  V30 23 1 22 24
M  V30 24 1 23 25
M  V30 25 2 23 26
M  V30 26 2 24 27
M  V30 27 1 25 28
M  V30 28 1 6 8
M  V30 29 1 16 18
M  V30 30 1 26 27
M  V30 31 1 3 29
M  V30 32 1 6 30
M  V30 33 1 7 31
M  V30 34 1 7 32
M  V30 35 1 9 33
M  V30 36 1 11 34
M  V30 37 1 11 35
M  V30 38 1 13 36
M  V30 39 1 14 37
M  V30 40 1 14 38
M  V30 41 1 16 39
M  V30 42 1 17 40
M  V30 43 1 17 41
M  V30 44 1 18 42
M  V30 45 1 19 43
M  V30 46 1 19 44
M  V30 47 1 19 45
M  V30 48 1 20 46
M  V30 49 1 20 47
M  V30 50 1 24 48
M  V30 51 1 26 49
M  V30 52 1 27 50
M  V30 53 1 28 51
M  V30 54 1 28 52
M  V30 55 1 28 53
M  V30 END BOND
M  V30 END CTAB
M  END
>  <NO.>
75

>  <Name>
skf 93319

>  <SMILES>
COc1cccnc1CCCCNc1ncc(Cc2cccc(C)n2)c(=O)[nH]1

>  <logBB>
-1.3

>  <Class>
-1

>  <MW>
379.2

>  <nHBAcc>
6

>  <nHBDon>
2

>  <SLogP>
2.9

>  <TopoPSA>
92.79

>  <MMFF94 Energy>
-63.813

$$$$
Cc1ccc(N=C2N(C)CCN2C)c(C)c1
Actelion Java MolfileCreator 2.0

  0  0  0  0  0  0              0 V3000
M  V30 BEGIN CTAB
M  V30 COUNTS 35 36 0 0 0
M  V30 BEGIN ATOM
M  V30 1 N 0.2341 -0.7807 -1.0151 0
M  V30 2 C -0.3091 -1.019 0.2499 0
M  V30 3 C 0.8463 0.3196 -1.3032 0
M  V30 4 C -1.6518 -0.7199 0.5379 0
M  V30 5 C 0.4736 -1.655 1.2189 0
M  V30 6 N 1.3672 0.5319 -2.5677 0
M  V30 7 N 1.1391 1.4725 -0.5917 0
M  V30 8 C -2.1642 -1.0057 1.8148 0
M  V30 9 C -2.5314 -0.0864 -0.5022 0
M  V30 10 C -0.0436 -1.9419 2.4834 0
M  V30 11 C 1.8906 1.866 -2.7756 0
M  V30 12 C 1.1851 -0.3686 -3.6763 0
M  V30 13 C 1.9259 2.4337 -1.355 0
M  V30 14 C 0.8725 1.7437 0.7964 0
M  V30 15 C -1.3625 -1.6021 2.7974 0
M  V30 16 C -1.9349 -1.9393 4.1421 0
M  V30 17 H 1.4974 -1.9254 0.9756 0
M  V30 18 H -3.2019 -0.7689 2.0413 0
M  V30 19 H -3.5706 -0.0227 -0.1622 0
M  V30 20 H -2.1882 0.9294 -0.7218 0
M  V30 21 H -2.5259 -0.6795 -1.4224 0
M  V30 22 H 0.5893 -2.4372 3.2152 0
M  V30 23 H 2.8862 1.8563 -3.2299 0
M  V30 24 H 1.2133 2.4482 -3.4098 0
M  V30 25 H 0.1483 -0.3386 -4.0264 0
M  V30 26 H 1.4292 -1.3971 -3.3913 0
M  V30 27 H 1.8352 -0.0976 -4.5148 0
M  V30 28 H 2.9531 2.4674 -0.9756 0
M  V30 29 H 1.4983 3.4409 -1.3175 0
M  V30 30 H 1.2089 2.7497 1.0724 0
M  V30 31 H 1.4066 1.0418 1.4425 0
M  V30 32 H -0.1985 1.7037 1.0095 0
M  V30 33 H -1.158 -1.92 4.9137 0
M  V30 34 H -2.6998 -1.212 4.4341 0
M  V30 35 H -2.3849 -2.9365 4.118 0
M  V30 END ATOM
M  V30 BEGIN BOND
M  V30 1 1 1 2
M  V30 2 2 1 3
M  V30 3 2 2 4
M  V30 4 1 2 5
M  V30 5 1 3 6
M  V30 6 1 3 7
M  V30 7 1 4 8
M  V30 8 1 4 9
M  V30 9 2 5 10
M  V30 10 1 6 11
M  V30 11 1 6 12
M  V30 12 1 7 13
M  V30 13 1 7 14
M  V30 14 2 8 15
M  V30 15 1 15 16
M  V30 16 1 10 15
M  V30 17 1 11 13
M  V30 18 1 5 17
M  V30 19 1 8 18
M  V30 20 1 9 19
M  V30 21 1 9 20
M  V30 22 1 9 21
M  V30 23 1 10 22
M  V30 24 1 11 23
M  V30 25 1 11 24
M  V30 26 1 12 25
M  V30 27 1 12 26
M  V30 28 1 12 27
M  V30 29 1 13 28
M  V30 30 1 13 29
M  V30 31 1 14 30
M  V30 32 1 14 31
M  V30 33 1 14 32
M  V30 34 1 16 33
M  V30 35 1 16 34
M  V30 36 1 16 35
M  V30 END BOND
M  V30 END CTAB
M  END
>  <NO.>
76

>  <Name>
n-(2,4-dimethylphenyl)-1,3-dimethylimidazolidin-2-imine

>  <SMILES>
Cc1ccc(N=C2N(C)CCN2C)c(C)c1

>  <logBB>
-1.3

>  <Class>
-1

>  <MW>
217.16

>  <nHBAcc>
1

>  <nHBDon>
0

>  <SLogP>
2.17

>  <TopoPSA>
18.84

>  <MMFF94 Energy>
-38.428

$$$$
Cc1ccc(NC2=NCCN2)c(C)c1
Actelion Java MolfileCreator 2.0

  0  0  0  0  0  0              0 V3000
M  V30 BEGIN CTAB
M  V30 COUNTS 29 30 0 0 0
M  V30 BEGIN ATOM
M  V30 1 N 0.2345 -1.6428 2.1126 0
M  V30 2 C 0.1204 -1.965 0.8567 0
M  V30 3 C 0.2641 -2.9343 2.8509 0
M  V30 4 N 0.0398 -3.2965 0.5959 0
M  V30 5 N 0.0717 -1.1826 -0.2521 0
M  V30 6 C 0.0052 -4.0396 1.8243 0
M  V30 7 C -0.0073 0.2208 -0.3633 0
M  V30 8 C 0.1078 0.8398 -1.6317 0
M  V30 9 C -0.2123 1.0501 0.7482 0
M  V30 10 C 0.0233 2.2423 -1.7439 0
M  V30 11 C 0.3225 0.0406 -2.8902 0
M  V30 12 C -0.2939 2.4414 0.6262 0
M  V30 13 C -0.1635 3.0506 -0.6196 0
M  V30 14 C -0.2829 4.5385 -0.7583 0
M  V30 15 H -0.4989 -2.9367 3.6359 0
M  V30 16 H 1.2446 -3.0578 3.3231 0
M  V30 17 H -0.3553 -3.6712 -0.2511 0
M  V30 18 H 0.1861 -1.6699 -1.1233 0
M  V30 19 H 0.7763 -4.8143 1.8547 0
M  V30 20 H -0.9765 -4.499 1.9744 0
M  V30 21 H -0.3218 0.6275 1.7431 0
M  V30 22 H 0.1073 2.7104 -2.7231 0
M  V30 23 H 1.2522 -0.5331 -2.8215 0
M  V30 24 H 0.401 0.6854 -3.772 0
M  V30 25 H -0.5192 -0.6394 -3.0556 0
M  V30 26 H -0.4594 3.0383 1.52 0
M  V30 27 H 0.3301 4.9034 -1.589 0
M  V30 28 H -1.326 4.8151 -0.9397 0
M  V30 29 H 0.0647 5.0454 0.1479 0
M  V30 END ATOM
M  V30 BEGIN BOND
M  V30 1 2 1 2
M  V30 2 1 1 3
M  V30 3 1 2 4
M  V30 4 1 2 5
M  V30 5 1 3 6
M  V30 6 1 5 7
M  V30 7 2 7 8
M  V30 8 1 7 9
M  V30 9 1 8 10
M  V30 10 1 8 11
M  V30 11 2 9 12
M  V30 12 2 10 13
M  V30 13 1 13 14
M  V30 14 1 4 6
M  V30 15 1 12 13
M  V30 16 1 3 15
M  V30 17 1 3 16
M  V30 18 1 4 17
M  V30 19 1 5 18
M  V30 20 1 6 19
M  V30 21 1 6 20
M  V30 22 1 9 21
M  V30 23 1 10 22
M  V30 24 1 11 23
M  V30 25 1 11 24
M  V30 26 1 11 25
M  V30 27 1 12 26
M  V30 28 1 14 27
M  V30 29 1 14 28
M  V30 30 1 14 29
M  V30 END BOND
M  V30 END CTAB
M  END
>  <NO.>
77

>  <Name>
4794-83-6

>  <SMILES>
Cc1ccc(NC2=NCCN2)c(C)c1

>  <logBB>
-1.3

>  <Class>
-1

>  <MW>
189.13

>  <nHBAcc>
3

>  <nHBDon>
2

>  <SLogP>
1.67

>  <TopoPSA>
36.42

>  <MMFF94 Energy>
-30.157

$$$$
Cc1nc(Nc2ncc(C(=O)Nc3c(Cl)cccc3Cl)s2)cc(N2CCN(CCO)CC2)n1
Actelion Java MolfileCreator 2.0

  0  0  0  0  0  0              0 V3000
M  V30 BEGIN CTAB
M  V30 COUNTS 56 59 0 0 0
M  V30 BEGIN ATOM
M  V30 1 Cl 4.6527 -4.244 5.4707 0
M  V30 2 C 5.1522 -2.6858 6.0342 0
M  V30 3 C 4.9195 -1.5104 5.3004 0
M  V30 4 C 5.7343 -2.62 7.3054 0
M  V30 5 N 4.3429 -1.5282 4.0111 0
M  V30 6 C 5.232 -0.2739 5.8887 0
M  V30 7 C 6.0712 -1.3869 7.8635 0
M  V30 8 C 4.948 -2.1314 2.9207 0
M  V30 9 Cl 4.9159 1.2154 5.0659 0
M  V30 10 C 5.8116 -0.2129 7.159 0
M  V30 11 O 6.0281 -2.7126 2.9967 0
M  V30 12 C 4.2376 -1.9922 1.6654 0
M  V30 13 S 2.7451 -1.1755 1.505 0
M  V30 14 C 4.6176 -2.4755 0.4328 0
M  V30 15 C 2.7284 -1.4912 -0.1923 0
M  V30 16 N 3.7567 -2.1999 -0.6117 0
M  V30 17 N 1.7558 -1.126 -1.0556 0
M  V30 18 C 0.7394 -0.167 -0.9003 0
M  V30 19 N 0.7975 0.7509 0.0723 0
M  V30 20 C -0.3467 -0.2267 -1.7599 0
M  V30 21 C -0.2266 1.6096 0.1672 0
M  V30 22 C -1.3682 0.6946 -1.6123 0
M  V30 23 N -1.3082 1.6045 -0.6267 0
M  V30 24 C -0.1853 2.6166 1.2726 0
M  V30 25 N -2.4894 0.6753 -2.4387 0
M  V30 26 C -2.311 0.4891 -3.8866 0
M  V30 27 C -3.5749 1.6032 -2.0759 0
M  V30 28 C -3.6564 0.1707 -4.5778 0
M  V30 29 C -4.8839 1.2594 -2.8242 0
M  V30 30 N -4.7117 1.1657 -4.2898 0
M  V30 31 C -5.965 0.7922 -4.9782 0
M  V30 32 C -7.0449 1.8889 -4.9869 0
M  V30 33 O -6.637 2.9972 -5.7829 0
M  V30 34 H 5.9164 -3.531 7.8714 0
M  V30 35 H 3.5754 -0.8909 3.8301 0
M  V30 36 H 6.5237 -1.342 8.8516 0
M  V30 37 H 6.0639 0.747 7.6035 0
M  V30 38 H 5.5222 -3.0419 0.2417 0
M  V30 39 H 1.9034 -1.4257 -2.0088 0
M  V30 40 H -0.4029 -1.0084 -2.5038 0
M  V30 41 H 0.8483 2.8836 1.5125 0
M  V30 42 H -0.716 3.5287 0.983 0
M  V30 43 H -0.6589 2.2015 2.1669 0
M  V30 44 H -1.6288 -0.3358 -4.1141 0
M  V30 45 H -1.881 1.4015 -4.3194 0
M  V30 46 H -3.2776 2.6328 -2.3142 0
M  V30 47 H -3.7924 1.5504 -1.0015 0
M  V30 48 H -3.4754 0.1304 -5.6588 0
M  V30 49 H -3.9866 -0.829 -4.2645 0
M  V30 50 H -5.2748 0.3111 -2.4313 0
M  V30 51 H -5.6121 2.039 -2.5774 0
M  V30 52 H -6.3824 -0.1217 -4.5375 0
M  V30 53 H -5.73 0.5718 -6.0275 0
M  V30 54 H -7.9632 1.4872 -5.428 0
M  V30 55 H -7.2836 2.2403 -3.9793 0
M  V30 56 H -7.2833 3.7076 -5.638 0
M  V30 END ATOM
M  V30 BEGIN BOND
M  V30 1 1 1 2
M  V30 2 2 2 3
M  V30 3 1 2 4
M  V30 4 1 3 5
M  V30 5 1 3 6
M  V30 6 2 4 7
M  V30 7 1 5 8
M  V30 8 1 6 9
M  V30 9 2 6 10
M  V30 10 2 8 11
M  V30 11 1 8 12
M  V30 12 1 12 13
M  V30 13 2 12 14
M  V30 14 1 13 15
M  V30 15 1 14 16
M  V30 16 1 15 17
M  V30 17 1 17 18
M  V30 18 2 18 19
M  V30 19 1 18 20
M  V30 20 1 19 21
M  V30 21 2 20 22
M  V30 22 2 21 23
M  V30 23 1 21 24
M  V30 24 1 22 25
M  V30 25 1 25 26
M  V30 26 1 25 27
M  V30 27 1 26 28
M  V30 28 1 27 29
M  V30 29 1 28 30
M  V30 30 1 30 31
M  V30 31 1 31 32
M  V30 32 1 32 33
M  V30 33 1 7 10
M  V30 34 2 15 16
M  V30 35 1 22 23
M  V30 36 1 29 30
M  V30 37 1 4 34
M  V30 38 1 5 35
M  V30 39 1 7 36
M  V30 40 1 10 37
M  V30 41 1 14 38
M  V30 42 1 17 39
M  V30 43 1 20 40
M  V30 44 1 24 41
M  V30 45 1 24 42
M  V30 46 1 24 43
M  V30 47 1 26 44
M  V30 48 1 26 45
M  V30 49 1 27 46
M  V30 50 1 27 47
M  V30 51 1 28 48
M  V30 52 1 28 49
M  V30 53 1 29 50
M  V30 54 1 29 51
M  V30 55 1 31 52
M  V30 56 1 31 53
M  V30 57 1 32 54
M  V30 58 1 32 55
M  V30 59 1 33 56
M  V30 END BOND
M  V30 END CTAB
M  END
>  <NO.>
78

>  <Name>
schembl1704876

>  <SMILES>
Cc1nc(Nc2ncc(C(=O)Nc3c(Cl)cccc3Cl)s2)cc(N2CCN(CCO)CC2)n1

>  <logBB>
-1.3

>  <Class>
-1

>  <MW>
507.1

>  <nHBAcc>
9

>  <nHBDon>
3

>  <SLogP>
3.66

>  <TopoPSA>
106.51

>  <MMFF94 Energy>
20.42

$$$$
N#CC(c1ccc(Cl)cc1)c1c(Cl)cc(-n2ncc(=O)[nH]c2=O)cc1Cl
Actelion Java MolfileCreator 2.0

  0  0  0  0  0  0              0 V3000
M  V30 BEGIN CTAB
M  V30 COUNTS 35 37 0 0 0
M  V30 BEGIN ATOM
M  V30 1 Cl 1.1739 -0.5029 -3.1046 0
M  V30 2 C 0.1879 -0.1093 -1.7359 0
M  V30 3 C 0.5765 0.8353 -0.7634 0
M  V30 4 C -1.0307 -0.795 -1.6455 0
M  V30 5 C -0.3262 1.0598 0.2981 0
M  V30 6 C 1.9115 1.5802 -0.8712 0 CFG=1
M  V30 7 C -1.9056 -0.57 -0.5805 0
M  V30 8 Cl -0.0224 2.2041 1.5604 0
M  V30 9 C -1.5438 0.3685 0.3851 0
M  V30 10 C 1.7042 3.0328 -1.0993 0
M  V30 11 C 2.905 1.2133 0.2409 0
M  V30 12 N -3.1461 -1.2675 -0.514 0
M  V30 13 N 1.5453 4.167 -1.2951 0
M  V30 14 C 3.361 -0.1169 0.338 0
M  V30 15 C 3.4005 2.1509 1.165 0
M  V30 16 N -3.755 -1.432 -1.7435 0
M  V30 17 C -3.6772 -1.7407 0.6948 0
M  V30 18 C 4.2687 -0.4969 1.3304 0
M  V30 19 C 4.3083 1.7686 2.1581 0
M  V30 20 C -4.8969 -2.0382 -1.7724 0
M  V30 21 O -3.1414 -1.6479 1.7985 0
M  V30 22 N -4.8915 -2.367 0.6087 0
M  V30 23 C 4.7375 0.4476 2.2376 0
M  V30 24 C -5.574 -2.5655 -0.5491 0
M  V30 25 Cl 5.8543 -0.0191 3.4593 0
M  V30 26 O -6.6526 -3.1263 -0.6474 0
M  V30 27 H -1.2967 -1.5184 -2.4144 0
M  V30 28 H 2.4378 1.2652 -1.7797 0
M  V30 29 H -2.2138 0.5844 1.2156 0
M  V30 30 H 3.0151 -0.875 -0.3628 0
M  V30 31 H 3.0863 3.1937 1.1415 0
M  V30 32 H 4.605 -1.5288 1.3884 0
M  V30 33 H 4.673 2.5089 2.866 0
M  V30 34 H -5.4377 -2.2007 -2.7171 0
M  V30 35 H -5.2921 -2.7106 1.4674 0
M  V30 END ATOM
M  V30 BEGIN BOND
M  V30 1 1 1 2
M  V30 2 2 2 3
M  V30 3 1 2 4
M  V30 4 1 3 5
M  V30 5 1 3 6
M  V30 6 2 4 7
M  V30 7 1 5 8
M  V30 8 2 5 9
M  V30 9 1 6 10
M  V30 10 1 6 11
M  V30 11 1 7 12
M  V30 12 3 10 13
M  V30 13 2 11 14
M  V30 14 1 11 15
M  V30 15 1 12 16
M  V30 16 1 12 17
M  V30 17 1 14 18
M  V30 18 2 15 19
M  V30 19 2 16 20
M  V30 20 2 17 21
M  V30 21 1 17 22
M  V30 22 2 18 23
M  V30 23 1 20 24
M  V30 24 1 23 25
M  V30 25 2 24 26
M  V30 26 1 7 9
M  V30 27 1 19 23
M  V30 28 1 22 24
M  V30 29 1 4 27
M  V30 30 1 6 28
M  V30 31 1 9 29
M  V30 32 1 14 30
M  V30 33 1 15 31
M  V30 34 1 18 32
M  V30 35 1 19 33
M  V30 36 1 20 34
M  V30 37 1 22 35
M  V30 END BOND
M  V30 BEGIN COLLECTION
M  V30 MDLV30/STERAC1 ATOMS=(1 6)
M  V30 END COLLECTION
M  V30 END CTAB
M  END
>  <NO.>
79

>  <Name>
diclazuril

>  <SMILES>
N#CC(c1ccc(Cl)cc1)c1c(Cl)cc(-n2ncc(=O)[nH]c2=O)cc1Cl

>  <logBB>
-1.3

>  <Class>
-1

>  <MW>
405.98

>  <nHBAcc>
4

>  <nHBDon>
1

>  <SLogP>
3.54

>  <TopoPSA>
91.54

>  <MMFF94 Energy>
54.187

$$$$
NCC1(Cc2noc(=O)[nH]2)CCCCC1
Actelion Java MolfileCreator 2.0

  0  0  0  0  0  0              0 V3000
M  V30 BEGIN CTAB
M  V30 COUNTS 32 33 0 0 0
M  V30 BEGIN ATOM
M  V30 1 O 2.0537 -2.7654 3.3983 0
M  V30 2 C 1.2604 -2.6423 2.4798 0
M  V30 3 O 0.0856 -3.335 2.3355 0
M  V30 4 N 1.3892 -1.8031 1.4413 0
M  V30 5 N -0.5061 -2.8623 1.1219 0
M  V30 6 C 0.3188 -1.9764 0.6751 0
M  V30 7 C 0.1249 -1.191 -0.5885 0
M  V30 8 C -0.7005 0.1249 -0.4585 0
M  V30 9 C -0.6495 0.8678 -1.8324 0
M  V30 10 C -0.1408 1.0784 0.6293 0
M  V30 11 C -2.2101 -0.1789 -0.1897 0
M  V30 12 C 0.709 1.4818 -2.1709 0
M  V30 13 C 1.2287 1.6655 0.2878 0
M  V30 14 N -2.5492 -0.7633 1.0975 0
M  V30 15 C 1.2123 2.386 -1.0538 0
M  V30 16 H 2.1741 -1.189 1.3174 0
M  V30 17 H 1.1253 -0.9762 -0.9794 0
M  V30 18 H -0.358 -1.8534 -1.3184 0
M  V30 19 H -0.9458 0.1861 -2.6398 0
M  V30 20 H -1.3888 1.6806 -1.833 0
M  V30 21 H -0.0781 0.5769 1.6011 0
M  V30 22 H -0.8417 1.9131 0.7684 0
M  V30 23 H -2.7854 0.7513 -0.2744 0
M  V30 24 H -2.5946 -0.8406 -0.9756 0
M  V30 25 H 1.4443 0.695 -2.3708 0
M  V30 26 H 0.6225 2.0629 -3.0965 0
M  V30 27 H 1.9881 0.8768 0.271 0
M  V30 28 H 1.5268 2.3695 1.0734 0
M  V30 29 H -2.1485 -1.7027 1.188 0
M  V30 30 H -2.1767 -0.2141 1.8676 0
M  V30 31 H 0.5682 3.2714 -0.9838 0
M  V30 32 H 2.2194 2.7446 -1.2939 0
M  V30 END ATOM
M  V30 BEGIN BOND
M  V30 1 2 1 2
M  V30 2 1 2 3
M  V30 3 1 2 4
M  V30 4 1 3 5
M  V30 5 1 4 6
M  V30 6 1 6 7
M  V30 7 1 7 8
M  V30 8 1 8 9
M  V30 9 1 8 10
M  V30 10 1 8 11
M  V30 11 1 9 12
M  V30 12 1 10 13
M  V30 13 1 11 14
M  V30 14 1 12 15
M  V30 15 2 5 6
M  V30 16 1 13 15
M  V30 17 1 4 16
M  V30 18 1 7 17
M  V30 19 1 7 18
M  V30 20 1 9 19
M  V30 21 1 9 20
M  V30 22 1 10 21
M  V30 23 1 10 22
M  V30 24 1 11 23
M  V30 25 1 11 24
M  V30 26 1 12 25
M  V30 27 1 12 26
M  V30 28 1 13 27
M  V30 29 1 13 28
M  V30 30 1 14 29
M  V30 31 1 14 30
M  V30 32 1 15 31
M  V30 33 1 15 32
M  V30 END BOND
M  V30 END CTAB
M  END
>  <NO.>
80

>  <Name>
compound-9

>  <SMILES>
NCC1(Cc2noc(=O)[nH]2)CCCCC1

>  <logBB>
-1.3

>  <Class>
-1

>  <MW>
211.13

>  <nHBAcc>
4

>  <nHBDon>
2

>  <SLogP>
0.81

>  <TopoPSA>
84.91

>  <MMFF94 Energy>
-6.542

$$$$
NCCc1nc(-c2ccccc2)cs1
Actelion Java MolfileCreator 2.0

  0  0  0  0  0  0              0 V3000
M  V30 BEGIN CTAB
M  V30 COUNTS 26 27 0 0 0
M  V30 BEGIN ATOM
M  V30 1 S 1.5318 -0.2417 2.4194 0
M  V30 2 C 1.5709 -0.7486 0.7793 0
M  V30 3 C 0.2263 0.8075 2.0505 0
M  V30 4 N 0.676 -0.1873 -0.0055 0
M  V30 5 C 2.5661 -1.7683 0.3189 0
M  V30 6 C -0.0979 0.7187 0.71 0
M  V30 7 C 1.9089 -3.1435 0.1789 0
M  V30 8 C -1.1668 1.474 0.0565 0
M  V30 9 N 2.8658 -4.1524 -0.2824 0
M  V30 10 C -1.6217 1.0666 -1.2073 0
M  V30 11 C -1.7557 2.6048 0.6426 0
M  V30 12 C -2.642 1.761 -1.8632 0
M  V30 13 C -2.7769 3.3002 -0.014 0
M  V30 14 C -3.2203 2.8771 -1.2648 0
M  V30 15 H -0.2205 1.4099 2.8269 0
M  V30 16 H 3.4164 -1.824 1.0101 0
M  V30 17 H 2.9699 -1.4479 -0.6499 0
M  V30 18 H 1.0707 -3.0973 -0.5265 0
M  V30 19 H 1.5005 -3.465 1.1441 0
M  V30 20 H 2.3853 -5.0477 -0.3737 0
M  V30 21 H 3.1855 -3.9119 -1.221 0
M  V30 22 H -1.1801 0.1975 -1.6916 0
M  V30 23 H -1.4272 2.9742 1.6097 0
M  V30 24 H -2.9805 1.4286 -2.841 0
M  V30 25 H -3.2227 4.1759 0.4513 0
M  V30 26 H -4.0126 3.4191 -1.7746 0
M  V30 END ATOM
M  V30 BEGIN BOND
M  V30 1 1 1 2
M  V30 2 1 1 3
M  V30 3 2 2 4
M  V30 4 1 2 5
M  V30 5 2 3 6
M  V30 6 1 5 7
M  V30 7 1 6 8
M  V30 8 1 7 9
M  V30 9 2 8 10
M  V30 10 1 8 11
M  V30 11 1 10 12
M  V30 12 2 11 13
M  V30 13 2 12 14
M  V30 14 1 4 6
M  V30 15 1 13 14
M  V30 16 1 3 15
M  V30 17 1 5 16
M  V30 18 1 5 17
M  V30 19 1 7 18
M  V30 20 1 7 19
M  V30 21 1 9 20
M  V30 22 1 9 21
M  V30 23 1 10 22
M  V30 24 1 11 23
M  V30 25 1 12 24
M  V30 26 1 13 25
M  V30 27 1 14 26
M  V30 END BOND
M  V30 END CTAB
M  END
>  <NO.>
81

>  <Name>
yg19

>  <SMILES>
NCCc1nc(-c2ccccc2)cs1

>  <logBB>
-1.3

>  <Class>
-1

>  <MW>
204.07

>  <nHBAcc>
3

>  <nHBDon>
1

>  <SLogP>
2.31

>  <TopoPSA>
38.91

>  <MMFF94 Energy>
36.075

$$$$
Nc1nc(NCCc2ccc(O)cc2)nc2nc(-c3ccco3)nn12
Actelion Java MolfileCreator 2.0

  0  0  0  0  0  0              0 V3000
M  V30 BEGIN CTAB
M  V30 COUNTS 40 43 0 0 0
M  V30 BEGIN ATOM
M  V30 1 O -0.9575 -0.9575 -7.0382 0
M  V30 2 C -0.6314 -1.8086 -6.0182 0
M  V30 3 C -1.0056 -1.6921 -8.1781 0
M  V30 4 C -0.466 -1.3876 -4.5204 0
M  V30 5 C -0.4739 -3.0863 -6.5221 0
M  V30 6 C -0.7155 -3.0095 -7.9154 0
M  V30 7 N -0.1439 -2.263 -3.5509 0
M  V30 8 N -0.6413 -0.0865 -4.0989 0
M  V30 9 N -0.1255 -1.4352 -2.4879 0
M  V30 10 C -0.4186 -0.1465 -2.8045 0
M  V30 11 C 0.1568 -1.807 -1.179 0
M  V30 12 N -0.4379 0.8005 -1.8375 0
M  V30 13 N 0.1341 -0.8896 -0.2602 0
M  V30 14 N 0.4464 -3.1138 -0.9041 0
M  V30 15 C -0.1666 0.4107 -0.6188 0
M  V30 16 N -0.1862 1.3641 0.3498 0
M  V30 17 C 0.0857 1.1326 1.7498 0
M  V30 18 C -0.0325 2.4368 2.5428 0
M  V30 19 C 0.2341 2.2303 4.013 0
M  V30 20 C -0.8167 1.9254 4.8906 0
M  V30 21 C 1.5404 2.3116 4.5153 0
M  V30 22 C -0.5679 1.7145 6.2488 0
M  V30 23 C 1.7884 2.1002 5.8722 0
M  V30 24 C 0.7346 1.8045 6.7278 0
M  V30 25 O 1.0227 1.6056 8.0455 0
M  V30 26 H -1.255 -1.1428 -9.0754 0
M  V30 27 H -0.2152 -3.9628 -5.9448 0
M  V30 28 H -0.6826 -3.8126 -8.6378 0
M  V30 29 H 0.4559 -3.8023 -1.6494 0
M  V30 30 H 0.6558 -3.395 0.0434 0
M  V30 31 H -0.4079 2.299 0.0318 0
M  V30 32 H 1.0942 0.7173 1.8647 0
M  V30 33 H -0.6215 0.3928 2.144 0
M  V30 34 H 0.6661 3.1851 2.146 0
M  V30 35 H -1.0323 2.8706 2.4093 0
M  V30 36 H -1.8375 1.8513 4.521 0
M  V30 37 H 2.3739 2.541 3.8551 0
M  V30 38 H -1.3964 1.4822 6.9104 0
M  V30 39 H 2.8008 2.1661 6.2605 0
M  V30 40 H 0.1947 1.4227 8.5189 0
M  V30 END ATOM
M  V30 BEGIN BOND
M  V30 1 1 1 2
M  V30 2 1 1 3
M  V30 3 1 2 4
M  V30 4 2 2 5
M  V30 5 2 3 6
M  V30 6 2 4 7
M  V30 7 1 4 8
M  V30 8 1 7 9
M  V30 9 2 8 10
M  V30 10 1 9 11
M  V30 11 1 10 12
M  V30 12 2 11 13
M  V30 13 1 11 14
M  V30 14 2 12 15
M  V30 15 1 15 16
M  V30 16 1 16 17
M  V30 17 1 17 18
M  V30 18 1 18 19
M  V30 19 2 19 20
M  V30 20 1 19 21
M  V30 21 1 20 22
M  V30 22 2 21 23
M  V30 23 2 22 24
M  V30 24 1 24 25
M  V30 25 1 5 6
M  V30 26 1 9 10
M  V30 27 1 13 15
M  V30 28 1 23 24
M  V30 29 1 3 26
M  V30 30 1 5 27
M  V30 31 1 6 28
M  V30 32 1 14 29
M  V30 33 1 14 30
M  V30 34 1 16 31
M  V30 35 1 17 32
M  V30 36 1 17 33
M  V30 37 1 18 34
M  V30 38 1 18 35
M  V30 39 1 20 36
M  V30 40 1 21 37
M  V30 41 1 22 38
M  V30 42 1 23 39
M  V30 43 1 25 40
M  V30 END BOND
M  V30 END CTAB
M  END
>  <NO.>
82

>  <Name>
17 zm0241385

>  <SMILES>
Nc1nc(NCCc2ccc(O)cc2)nc2nc(-c3ccco3)nn12

>  <logBB>
-1.3

>  <Class>
-1

>  <MW>
337.13

>  <nHBAcc>
8

>  <nHBDon>
3

>  <SLogP>
1.72

>  <TopoPSA>
127.39

>  <MMFF94 Energy>
-14.158

$$$$
O=C(O)Cc1ccccc1Nc1c(Cl)cccc1Cl
Actelion Java MolfileCreator 2.0

  0  0  0  0  0  0              0 V3000
M  V30 BEGIN CTAB
M  V30 COUNTS 30 31 0 0 0
M  V30 BEGIN ATOM
M  V30 1 Cl 1.9614 -0.3267 2.8613 0
M  V30 2 C 1.9498 -1.4064 1.506 0
M  V30 3 C 1.2118 -1.099 0.3415 0
M  V30 4 C 2.69 -2.5886 1.6189 0
M  V30 5 N 0.433 0.0824 0.3075 0
M  V30 6 C 1.2656 -2.0305 -0.7159 0
M  V30 7 C 2.7138 -3.4974 0.5668 0
M  V30 8 C -0.8998 0.2835 -0.109 0
M  V30 9 Cl 0.5186 -1.7437 -2.2534 0
M  V30 10 C 2.0072 -3.2157 -0.5994 0
M  V30 11 C -1.3003 1.5304 -0.6341 0
M  V30 12 C -1.8552 -0.7364 0.0228 0
M  V30 13 C -2.6458 1.7235 -1.0 0
M  V30 14 C -0.3126 2.6536 -0.8732 0
M  V30 15 C -3.1847 -0.532 -0.3478 0
M  V30 16 C -3.5805 0.6993 -0.856 0
M  V30 17 C 0.2595 3.2578 0.384 0
M  V30 18 O 0.533 2.6846 1.4272 0
M  V30 19 O 0.5348 4.5722 0.2469 0
M  V30 20 H 3.2461 -2.8036 2.5283 0
M  V30 21 H 0.7271 0.7877 0.9922 0
M  V30 22 H 3.2881 -4.4167 0.6498 0
M  V30 23 H 2.0452 -3.9192 -1.4284 0
M  V30 24 H -1.5721 -1.7003 0.4373 0
M  V30 25 H -2.9743 2.6751 -1.413 0
M  V30 26 H 0.5161 2.2917 -1.4925 0
M  V30 27 H -0.8031 3.4529 -1.4429 0
M  V30 28 H -3.9083 -1.3344 -0.2341 0
M  V30 29 H -4.6153 0.8613 -1.1461 0
M  V30 30 H 0.9173 4.8261 1.1133 0
M  V30 END ATOM
M  V30 BEGIN BOND
M  V30 1 1 1 2
M  V30 2 2 2 3
M  V30 3 1 2 4
M  V30 4 1 3 5
M  V30 5 1 3 6
M  V30 6 2 4 7
M  V30 7 1 5 8
M  V30 8 1 6 9
M  V30 9 2 6 10
M  V30 10 2 8 11
M  V30 11 1 8 12
M  V30 12 1 11 13
M  V30 13 1 11 14
M  V30 14 2 12 15
M  V30 15 2 13 16
M  V30 16 1 14 17
M  V30 17 2 17 18
M  V30 18 1 17 19
M  V30 19 1 7 10
M  V30 20 1 15 16
M  V30 21 1 4 20
M  V30 22 1 5 21
M  V30 23 1 7 22
M  V30 24 1 10 23
M  V30 25 1 12 24
M  V30 26 1 13 25
M  V30 27 1 14 26
M  V30 28 1 14 27
M  V30 29 1 15 28
M  V30 30 1 16 29
M  V30 31 1 19 30
M  V30 END BOND
M  V30 END CTAB
M  END
>  <NO.>
83

>  <Name>
diclofenac

>  <SMILES>
O=C(O)Cc1ccccc1Nc1c(Cl)cccc1Cl

>  <logBB>
-1.3

>  <Class>
-1

>  <MW>
295.02

>  <nHBAcc>
2

>  <nHBDon>
2

>  <SLogP>
4.36

>  <TopoPSA>
49.33

>  <MMFF94 Energy>
51.984

$$$$
OCc1nnc2n1-c1ccc(Cl)cc1C(c1ccccc1)=NC2
Actelion Java MolfileCreator 2.0

  0  0  0  0  0  0              0 V3000
M  V30 BEGIN CTAB
M  V30 COUNTS 36 39 0 0 0
M  V30 BEGIN ATOM
M  V30 1 Cl 4.6538 1.2231 -0.163 0
M  V30 2 C 3.2514 0.2282 -0.1276 0
M  V30 3 C 2.0336 0.7343 -0.5779 0
M  V30 4 C 3.346 -1.0812 0.3363 0
M  V30 5 C 0.882 -0.0683 -0.5469 0
M  V30 6 C 2.2135 -1.8975 0.3532 0
M  V30 7 C -0.3979 0.5256 -1.0513 0
M  V30 8 C 0.978 -1.3883 -0.0727 0
M  V30 9 N -1.208 -0.0626 -1.8681 0
M  V30 10 C -0.7729 1.8997 -0.5865 0
M  V30 11 N -0.1409 -2.2459 -0.1089 0
M  V30 12 C -0.956 -1.4306 -2.3204 0
M  V30 13 C -1.4345 2.7602 -1.4705 0
M  V30 14 C -0.5027 2.3217 0.7219 0
M  V30 15 C -1.0129 -2.3561 -1.1654 0
M  V30 16 C -0.6128 -3.1336 0.8377 0
M  V30 17 C -1.7956 4.0441 -1.0591 0
M  V30 18 C -0.8659 3.6074 1.1285 0
M  V30 19 N -1.8575 -3.3396 -0.941 0
M  V30 20 N -1.6082 -3.8257 0.3167 0
M  V30 21 C -0.1494 -3.2291 2.2403 0
M  V30 22 C -1.5074 4.4679 0.2377 0
M  V30 23 O -0.3823 -1.9705 2.8634 0
M  V30 24 H 1.9899 1.7512 -0.9626 0
M  V30 25 H 4.3024 -1.4779 0.6696 0
M  V30 26 H 2.328 -2.9316 0.669 0
M  V30 27 H -0.0016 -1.5039 -2.8547 0
M  V30 28 H -1.7361 -1.7021 -3.0401 0
M  V30 29 H -1.672 2.4332 -2.4803 0
M  V30 30 H -0.0289 1.6594 1.4415 0
M  V30 31 H -2.3081 4.7101 -1.7488 0
M  V30 32 H -0.6576 3.9357 2.144 0
M  V30 33 H -0.7089 -3.9943 2.7882 0
M  V30 34 H 0.9107 -3.4759 2.3179 0
M  V30 35 H -1.7938 5.4669 0.5579 0
M  V30 36 H -1.3511 -1.8585 2.8911 0
M  V30 END ATOM
M  V30 BEGIN BOND
M  V30 1 1 1 2
M  V30 2 2 2 3
M  V30 3 1 2 4
M  V30 4 1 3 5
M  V30 5 2 4 6
M  V30 6 1 5 7
M  V30 7 2 5 8
M  V30 8 2 7 9
M  V30 9 1 7 10
M  V30 10 1 8 11
M  V30 11 1 9 12
M  V30 12 2 10 13
M  V30 13 1 10 14
M  V30 14 1 11 15
M  V30 15 1 11 16
M  V30 16 1 13 17
M  V30 17 2 14 18
M  V30 18 2 15 19
M  V30 19 2 16 20
M  V30 20 1 16 21
M  V30 21 2 17 22
M  V30 22 1 21 23
M  V30 23 1 6 8
M  V30 24 1 12 15
M  V30 25 1 18 22
M  V30 26 1 19 20
M  V30 27 1 3 24
M  V30 28 1 4 25
M  V30 29 1 6 26
M  V30 30 1 12 27
M  V30 31 1 12 28
M  V30 32 1 13 29
M  V30 33 1 14 30
M  V30 34 1 17 31
M  V30 35 1 18 32
M  V30 36 1 21 33
M  V30 37 1 21 34
M  V30 38 1 22 35
M  V30 39 1 23 36
M  V30 END BOND
M  V30 END CTAB
M  END
>  <NO.>
86

>  <Name>
Œ±-hydroxyalprazolam (alpha-hydroxyalprazolam)

>  <SMILES>
OCc1nnc2n1-c1ccc(Cl)cc1C(c1ccccc1)=NC2

>  <logBB>
-1.3

>  <Class>
-1

>  <MW>
324.08

>  <nHBAcc>
4

>  <nHBDon>
1

>  <SLogP>
2.76

>  <TopoPSA>
63.3

>  <MMFF94 Energy>
87.382

$$$$
COc1ccc2c(c1)C(CC(=O)O)C(C)N2C(=O)c1ccc(Cl)cc1
Actelion Java MolfileCreator 2.0

  0  0  0  0  0  0              0 V3000
M  V30 BEGIN CTAB
M  V30 COUNTS 43 45 0 0 0
M  V30 BEGIN ATOM
M  V30 1 Cl 0.3221 -6.2968 2.5797 0
M  V30 2 C 0.1695 -5.0192 1.4376 0
M  V30 3 C -0.8417 -5.0675 0.477 0
M  V30 4 C 1.0631 -3.9477 1.4757 0
M  V30 5 C -0.968 -4.0303 -0.4494 0
M  V30 6 C 0.9407 -2.9085 0.5504 0
M  V30 7 C -0.0913 -2.9405 -0.3961 0
M  V30 8 C -0.2185 -1.8733 -1.4102 0
M  V30 9 O -0.1964 -2.2237 -2.5902 0
M  V30 10 N -0.2921 -0.546 -1.0226 0
M  V30 11 C -0.5505 0.0372 0.2298 0
M  V30 12 C -0.075 0.5428 -2.0005 0
M  V30 13 C -0.2032 1.391 0.1969 0
M  V30 14 C -1.1395 -0.5056 1.356 0
M  V30 15 C 0.3466 1.7777 -1.1554 0
M  V30 16 C -1.3537 0.8191 -2.7999 0
M  V30 17 C -0.3778 2.2165 1.3031 0
M  V30 18 C -1.3167 0.3165 2.4751 0
M  V30 19 C 1.8671 1.9522 -1.0849 0
M  V30 20 C -0.9346 1.6687 2.4595 0
M  V30 21 C 2.4991 2.3236 -2.3979 0
M  V30 22 O -1.1731 2.3372 3.6293 0
M  V30 23 O 3.6785 2.1811 -2.6761 0
M  V30 24 O 1.6635 2.9039 -3.2754 0
M  V30 25 C -0.8035 3.7097 3.6742 0
M  V30 26 H -1.5264 -5.9109 0.4391 0
M  V30 27 H 1.8582 -3.9198 2.2164 0
M  V30 28 H -1.7422 -4.0716 -1.2126 0
M  V30 29 H 1.6485 -2.0835 0.5683 0
M  V30 30 H 0.7075 0.238 -2.7055 0
M  V30 31 H -1.4908 -1.529 1.3973 0
M  V30 32 H -0.1388 2.6927 -1.515 0
M  V30 33 H -2.1881 1.0965 -2.1462 0
M  V30 34 H -1.1928 1.6347 -3.5124 0
M  V30 35 H -1.6622 -0.0658 -3.3656 0
M  V30 36 H -0.0898 3.259 1.2376 0
M  V30 37 H -1.7722 -0.0964 3.3732 0
M  V30 38 H 2.1234 2.7426 -0.3693 0
M  V30 39 H 2.3407 1.0239 -0.7413 0
M  V30 40 H 2.2334 3.1026 -4.05 0
M  V30 41 H 0.2742 3.8336 3.526 0
M  V30 42 H -1.0484 4.0896 4.6709 0
M  V30 43 H -1.3733 4.2954 2.9453 0
M  V30 END ATOM
M  V30 BEGIN BOND
M  V30 1 1 1 2
M  V30 2 2 2 3
M  V30 3 1 2 4
M  V30 4 1 3 5
M  V30 5 2 4 6
M  V30 6 2 5 7
M  V30 7 1 7 8
M  V30 8 2 8 9
M  V30 9 1 8 10
M  V30 10 1 10 11
M  V30 11 1 10 12
M  V30 12 2 11 13
M  V30 13 1 11 14
M  V30 14 1 12 15
M  V30 15 1 12 16
M  V30 16 1 13 17
M  V30 17 2 14 18
M  V30 18 1 15 19
M  V30 19 2 17 20
M  V30 20 1 19 21
M  V30 21 1 20 22
M  V30 22 2 21 23
M  V30 23 1 21 24
M  V30 24 1 22 25
M  V30 25 1 6 7
M  V30 26 1 13 15
M  V30 27 1 18 20
M  V30 28 1 3 26
M  V30 29 1 4 27
M  V30 30 1 5 28
M  V30 31 1 6 29
M  V30 32 1 12 30
M  V30 33 1 14 31
M  V30 34 1 15 32
M  V30 35 1 16 33
M  V30 36 1 16 34
M  V30 37 1 16 35
M  V30 38 1 17 36
M  V30 39 1 18 37
M  V30 40 1 19 38
M  V30 41 1 19 39
M  V30 42 1 24 40
M  V30 43 1 25 41
M  V30 44 1 25 42
M  V30 45 1 25 43
M  V30 END BOND
M  V30 END CTAB
M  END
>  <NO.>
87

>  <Name>
schembl13579049

>  <SMILES>
COc1ccc2c(c1)C(CC(=O)O)C(C)N2C(=O)c1ccc(Cl)cc1

>  <logBB>
-1.26

>  <Class>
-1

>  <MW>
359.09

>  <nHBAcc>
3

>  <nHBDon>
1

>  <SLogP>
3.96

>  <TopoPSA>
66.84

>  <MMFF94 Energy>
30.792

$$$$
O=C(O)c1ccc(-c2ccccc2)cc1
Actelion Java MolfileCreator 2.0

  0  0  0  0  0  0              0 V3000
M  V30 BEGIN CTAB
M  V30 COUNTS 25 26 0 0 0
M  V30 BEGIN ATOM
M  V30 1 O 4.1418 -2.2286 1.9896 0
M  V30 2 C 3.9029 -1.2044 1.3768 0
M  V30 3 O 4.8788 -0.3313 1.0705 0
M  V30 4 C 2.5697 -0.7721 0.8929 0
M  V30 5 C 1.4692 -1.5941 1.1547 0
M  V30 6 C 2.3847 0.4217 0.1892 0
M  V30 7 C 0.1938 -1.2235 0.7149 0
M  V30 8 C 1.1062 0.7876 -0.2473 0
M  V30 9 C -0.0099 -0.0272 0.0071 0
M  V30 10 C -1.3529 0.361 -0.4546 0
M  V30 11 C -2.1313 -0.5117 -1.2333 0
M  V30 12 C -1.8957 1.6156 -0.1302 0
M  V30 13 C -3.406 -0.1437 -1.6726 0
M  V30 14 C -3.1708 1.9847 -0.5677 0
M  V30 15 C -3.925 1.1045 -1.3392 0
M  V30 16 H 5.6855 -0.7419 1.4463 0
M  V30 17 H 1.5969 -2.5249 1.7039 0
M  V30 18 H 3.2259 1.0752 -0.0286 0
M  V30 19 H -0.6489 -1.8746 0.9411 0
M  V30 20 H 0.9878 1.716 -0.8036 0
M  V30 21 H -1.7413 -1.4877 -1.5151 0
M  V30 22 H -1.3288 2.3148 0.4813 0
M  V30 23 H -3.9907 -0.8322 -2.277 0
M  V30 24 H -3.574 2.9586 -0.3027 0
M  V30 25 H -4.9165 1.391 -1.68 0
M  V30 END ATOM
M  V30 BEGIN BOND
M  V30 1 2 1 2
M  V30 2 1 2 3
M  V30 3 1 2 4
M  V30 4 2 4 5
M  V30 5 1 4 6
M  V30 6 1 5 7
M  V30 7 2 6 8
M  V30 8 2 7 9
M  V30 9 1 9 10
M  V30 10 2 10 11
M  V30 11 1 10 12
M  V30 12 1 11 13
M  V30 13 2 12 14
M  V30 14 2 13 15
M  V30 15 1 8 9
M  V30 16 1 14 15
M  V30 17 1 3 16
M  V30 18 1 5 17
M  V30 19 1 6 18
M  V30 20 1 7 19
M  V30 21 1 8 20
M  V30 22 1 11 21
M  V30 23 1 12 22
M  V30 24 1 13 23
M  V30 25 1 14 24
M  V30 26 1 15 25
M  V30 END BOND
M  V30 END CTAB
M  END
>  <NO.>
89

>  <Name>
p-phenylbenzoic acid

>  <SMILES>
O=C(O)c1ccc(-c2ccccc2)cc1

>  <logBB>
-1.26

>  <Class>
-1

>  <MW>
198.07

>  <nHBAcc>
1

>  <nHBDon>
1

>  <SLogP>
3.05

>  <TopoPSA>
37.3

>  <MMFF94 Energy>
34.038

$$$$
CN/C(=C/[N+](=O)[O-])NCCSc1ccc(CN(C)C)o1
Actelion Java MolfileCreator 2.0

  0  0  0  0  0  0              0 V3000
M  V30 BEGIN CTAB
M  V30 COUNTS 40 40 0 0 0
M  V30 BEGIN ATOM
M  V30 1 S 2.6087 1.5804 0.5529 0
M  V30 2 C 1.9449 0.7635 1.9425 0
M  V30 3 C 1.168 1.5736 -0.5603 0
M  V30 4 O 0.6491 0.3371 2.0052 0
M  V30 5 C 2.5885 0.4421 3.1208 0
M  V30 6 C 1.5183 2.2588 -1.8822 0
M  V30 7 C 0.4678 -0.2557 3.2197 0
M  V30 8 C 1.6408 -0.2135 3.9425 0
M  V30 9 N 0.3803 2.2617 -2.7861 0
M  V30 10 C -0.8919 -0.798 3.5042 0
M  V30 11 C -0.1463 1.2505 -3.5629 0
M  V30 12 N -0.8831 -2.2579 3.7172 0
M  V30 13 N 0.5429 0.052 -3.5932 0
M  V30 14 C -1.281 1.3821 -4.2852 0
M  V30 15 C -0.5926 -2.972 2.4701 0
M  V30 16 C -2.1788 -2.6909 4.2438 0
M  V30 17 C 0.2211 -1.1712 -4.2888 0
M  V30 18 N -2.0766 2.5847 -4.3224 0 CHG=1
M  V30 19 O -3.0844 2.5327 -5.0413 0
M  V30 20 O -1.7365 3.5762 -3.6603 0 CHG=-1
M  V30 21 H 0.8583 0.5378 -0.7354 0
M  V30 22 H 0.3334 2.097 -0.08 0
M  V30 23 H 3.622 0.6543 3.3559 0
M  V30 24 H 1.7963 3.3029 -1.6919 0
M  V30 25 H 2.3841 1.79 -2.3643 0
M  V30 26 H 1.7868 -0.6161 4.9352 0
M  V30 27 H -0.1516 3.1391 -2.8005 0
M  V30 28 H -1.2457 -0.2984 4.416 0
M  V30 29 H -1.5902 -0.5214 2.7033 0
M  V30 30 H 1.4211 0.0516 -3.0901 0
M  V30 31 H -1.7275 0.6252 -4.9085 0
M  V30 32 H 0.4057 -2.7268 2.0927 0
M  V30 33 H -1.3241 -2.7482 1.6848 0
M  V30 34 H -0.5954 -4.0547 2.6411 0
M  V30 35 H -3.0023 -2.4664 3.5559 0
M  V30 36 H -2.3875 -2.204 5.2031 0
M  V30 37 H -2.175 -3.7695 4.4373 0
M  V30 38 H 0.1944 -1.0099 -5.3709 0
M  V30 39 H -0.7447 -1.5658 -3.9584 0
M  V30 40 H 0.9834 -1.9278 -4.0792 0
M  V30 END ATOM
M  V30 BEGIN BOND
M  V30 1 1 1 2
M  V30 2 1 1 3
M  V30 3 1 2 4
M  V30 4 2 2 5
M  V30 5 1 3 6
M  V30 6 1 4 7
M  V30 7 1 5 8
M  V30 8 1 6 9
M  V30 9 1 7 10
M  V30 10 1 9 11
M  V30 11 1 10 12
M  V30 12 1 11 13
M  V30 13 2 11 14
M  V30 14 1 12 15
M  V30 15 1 12 16
M  V30 16 1 13 17
M  V30 17 1 14 18
M  V30 18 2 18 19
M  V30 19 1 18 20
M  V30 20 2 7 8
M  V30 21 1 3 21
M  V30 22 1 3 22
M  V30 23 1 5 23
M  V30 24 1 6 24
M  V30 25 1 6 25
M  V30 26 1 8 26
M  V30 27 1 9 27
M  V30 28 1 10 28
M  V30 29 1 10 29
M  V30 30 1 13 30
M  V30 31 1 14 31
M  V30 32 1 15 32
M  V30 33 1 15 33
M  V30 34 1 15 34
M  V30 35 1 16 35
M  V30 36 1 16 36
M  V30 37 1 16 37
M  V30 38 1 17 38
M  V30 39 1 17 39
M  V30 40 1 17 40
M  V30 END BOND
M  V30 END CTAB
M  END
>  <NO.>
90

>  <Name>


>  <SMILES>
CN/C(=C/[N+](=O)[O-])NCCSc1ccc(CN(C)C)o1

>  <logBB>
-1.23

>  <Class>
-1

>  <MW>
300.13

>  <nHBAcc>
7

>  <nHBDon>
2

>  <SLogP>
1.32

>  <TopoPSA>
83.58

>  <MMFF94 Energy>
2.7999

$$$$
CN/C(=C\[N+](=O)[O-])NCCSCc1ccc(CN(C)C)o1
Actelion Java MolfileCreator 2.0

  0  0  0  0  0  0              0 V3000
M  V30 BEGIN CTAB
M  V30 COUNTS 43 43 0 0 0
M  V30 BEGIN ATOM
M  V30 1 S -2.1328 3.0027 -0.0789 0
M  V30 2 C -1.5966 2.3882 -1.7097 0
M  V30 3 C -1.192 1.8995 1.0376 0
M  V30 4 C -1.8839 0.9471 -1.8994 0
M  V30 5 C 0.3254 2.0707 0.9296 0
M  V30 6 O -0.8238 0.0947 -1.7834 0
M  V30 7 C -3.0317 0.2374 -2.1854 0
M  V30 8 N 1.0116 1.2318 1.9001 0
M  V30 9 C -1.2982 -1.167 -1.9977 0
M  V30 10 C -2.6546 -1.1243 -2.2466 0
M  V30 11 C 1.2845 1.4482 3.2393 0
M  V30 12 C -0.308 -2.2802 -1.9194 0
M  V30 13 N 1.9008 0.4185 3.9179 0
M  V30 14 C 0.9511 2.6239 3.8166 0
M  V30 15 N -0.2135 -3.0438 -3.1774 0
M  V30 16 C 2.3203 -0.8758 3.4458 0
M  V30 17 N 1.1995 2.9382 5.2032 0 CHG=1
M  V30 18 C 0.5642 -4.2652 -2.9632 0
M  V30 19 C 0.404 -2.243 -4.2389 0
M  V30 20 O 1.7427 2.1047 5.9429 0
M  V30 21 O 0.8351 4.0655 5.5658 0 CHG=-1
M  V30 22 H -0.5333 2.6054 -1.8499 0
M  V30 23 H -2.1344 2.966 -2.4693 0
M  V30 24 H -1.5179 2.142 2.0553 0
M  V30 25 H -1.4843 0.8579 0.8686 0
M  V30 26 H 0.6698 1.7659 -0.0637 0
M  V30 27 H 0.6195 3.1194 1.0523 0
M  V30 28 H -4.0191 0.6543 -2.3299 0
M  V30 29 H 1.2975 0.3221 1.5591 0
M  V30 30 H -3.284 -1.9786 -2.4553 0
M  V30 31 H 0.6754 -1.8965 -1.6177 0
M  V30 32 H -0.6465 -2.945 -1.1134 0
M  V30 33 H 2.0933 0.6038 4.9082 0
M  V30 34 H 0.4713 3.4585 3.3329 0
M  V30 35 H 3.0618 -0.7786 2.6468 0
M  V30 36 H 1.4664 -1.4525 3.0769 0
M  V30 37 H 2.7789 -1.4394 4.2642 0
M  V30 38 H 0.0855 -4.9001 -2.209 0
M  V30 39 H 1.5885 -4.0524 -2.6358 0
M  V30 40 H 0.612 -4.8581 -3.8835 0
M  V30 41 H 1.4136 -1.91 -3.9715 0
M  V30 42 H -0.1996 -1.3604 -4.4761 0
M  V30 43 H 0.47 -2.8243 -5.1659 0
M  V30 END ATOM
M  V30 BEGIN BOND
M  V30 1 1 1 2
M  V30 2 1 1 3
M  V30 3 1 2 4
M  V30 4 1 3 5
M  V30 5 1 4 6
M  V30 6 2 4 7
M  V30 7 1 5 8
M  V30 8 1 6 9
M  V30 9 1 7 10
M  V30 10 1 8 11
M  V30 11 1 9 12
M  V30 12 1 11 13
M  V30 13 2 11 14
M  V30 14 1 12 15
M  V30 15 1 13 16
M  V30 16 1 14 17
M  V30 17 1 15 18
M  V30 18 1 15 19
M  V30 19 2 17 20
M  V30 20 1 17 21
M  V30 21 2 9 10
M  V30 22 1 2 22
M  V30 23 1 2 23
M  V30 24 1 3 24
M  V30 25 1 3 25
M  V30 26 1 5 26
M  V30 27 1 5 27
M  V30 28 1 7 28
M  V30 29 1 8 29
M  V30 30 1 10 30
M  V30 31 1 12 31
M  V30 32 1 12 32
M  V30 33 1 13 33
M  V30 34 1 14 34
M  V30 35 1 16 35
M  V30 36 1 16 36
M  V30 37 1 16 37
M  V30 38 1 18 38
M  V30 39 1 18 39
M  V30 40 1 18 40
M  V30 41 1 19 41
M  V30 42 1 19 42
M  V30 43 1 19 43
M  V30 END BOND
M  V30 END CTAB
M  END
>  <NO.>
91

>  <Name>
ls-190695

>  <SMILES>
CN/C(=C\[N+](=O)[O-])NCCSCc1ccc(CN(C)C)o1

>  <logBB>
-1.23

>  <Class>
-1

>  <MW>
314.14

>  <nHBAcc>
7

>  <nHBDon>
2

>  <SLogP>
1.46

>  <TopoPSA>
83.58

>  <MMFF94 Energy>
21.705

$$$$
CN/C(=N\C[N+](=O)[O-])NCCSCc1coc(CN(C)C)c1
Actelion Java MolfileCreator 2.0

  0  0  0  0  0  0              0 V3000
M  V30 BEGIN CTAB
M  V30 COUNTS 45 45 0 0 0
M  V30 BEGIN ATOM
M  V30 1 S 0.0 1.4218 2.6078 0
M  V30 2 C 1.5545 0.4911 2.7954 0
M  V30 3 C -0.8932 0.2698 1.5068 0
M  V30 4 C 2.3284 0.4288 1.5278 0
M  V30 5 C -2.3382 0.7289 1.2984 0
M  V30 6 C 2.5628 -0.6862 0.7485 0
M  V30 7 C 2.9965 1.4972 0.8617 0
M  V30 8 N -3.0205 -0.1334 0.3463 0
M  V30 9 O 3.3055 -0.3712 -0.3411 0
M  V30 10 C 3.5602 0.9673 -0.2806 0
M  V30 11 C -3.4889 -1.3783 0.6315 0
M  V30 12 C 4.3748 1.5497 -1.3872 0
M  V30 13 N -3.3628 -1.8377 1.828 0
M  V30 14 N -4.0536 -2.017 -0.4312 0
M  V30 15 N 3.573 1.9085 -2.5731 0
M  V30 16 C -3.8898 -3.1612 2.1664 0
M  V30 17 C -4.2774 -1.5192 -1.7655 0
M  V30 18 C 4.4583 2.2023 -3.7007 0
M  V30 19 C 2.6986 3.0532 -2.3147 0
M  V30 20 N -3.1942 -4.3497 1.5291 0 CHG=1
M  V30 21 O -2.2083 -4.8231 2.1104 0
M  V30 22 O -3.677 -4.7696 0.4643 0 CHG=-1
M  V30 23 H 1.3293 -0.5107 3.1762 0
M  V30 24 H 2.1544 0.9953 3.561 0
M  V30 25 H -0.3816 0.228 0.5397 0
M  V30 26 H -0.8686 -0.7311 1.9487 0
M  V30 27 H -2.8882 0.7566 2.2469 0
M  V30 28 H -2.3506 1.7482 0.8943 0
M  V30 29 H 2.276 -1.7262 0.827 0
M  V30 30 H 3.0426 2.5329 1.1694 0
M  V30 31 H -3.05 0.2051 -0.6017 0
M  V30 32 H 4.9348 2.4185 -1.0169 0
M  V30 33 H 5.1223 0.7951 -1.6668 0
M  V30 34 H -4.3017 -2.9972 -0.3285 0
M  V30 35 H -4.9557 -3.2456 1.9226 0
M  V30 36 H -3.7972 -3.315 3.2474 0
M  V30 37 H -3.329 -1.3 -2.2651 0
M  V30 38 H -4.8972 -0.6173 -1.7484 0
M  V30 39 H -4.8021 -2.2738 -2.3598 0
M  V30 40 H 5.0761 1.3309 -3.9446 0
M  V30 41 H 5.1219 3.0503 -3.4957 0
M  V30 42 H 3.8752 2.4301 -4.6001 0
M  V30 43 H 3.2596 3.9394 -1.9961 0
M  V30 44 H 1.9514 2.8206 -1.5493 0
M  V30 45 H 2.1329 3.3145 -3.2166 0
M  V30 END ATOM
M  V30 BEGIN BOND
M  V30 1 1 1 2
M  V30 2 1 1 3
M  V30 3 1 2 4
M  V30 4 1 3 5
M  V30 5 2 4 6
M  V30 6 1 4 7
M  V30 7 1 5 8
M  V30 8 1 6 9
M  V30 9 2 7 10
M  V30 10 1 8 11
M  V30 11 1 10 12
M  V30 12 2 11 13
M  V30 13 1 11 14
M  V30 14 1 12 15
M  V30 15 1 13 16
M  V30 16 1 14 17
M  V30 17 1 15 18
M  V30 18 1 15 19
M  V30 19 1 16 20
M  V30 20 2 20 21
M  V30 21 1 20 22
M  V30 22 1 9 10
M  V30 23 1 2 23
M  V30 24 1 2 24
M  V30 25 1 3 25
M  V30 26 1 3 26
M  V30 27 1 5 27
M  V30 28 1 5 28
M  V30 29 1 6 29
M  V30 30 1 7 30
M  V30 31 1 8 31
M  V30 32 1 12 32
M  V30 33 1 12 33
M  V30 34 1 14 34
M  V30 35 1 16 35
M  V30 36 1 16 36
M  V30 37 1 17 37
M  V30 38 1 17 38
M  V30 39 1 17 39
M  V30 40 1 18 40
M  V30 41 1 18 41
M  V30 42 1 18 42
M  V30 43 1 19 43
M  V30 44 1 19 44
M  V30 45 1 19 45
M  V30 END BOND
M  V30 END CTAB
M  END
>  <NO.>
92

>  <Name>
ranitidine

>  <SMILES>
CN/C(=N\C[N+](=O)[O-])NCCSCc1coc(CN(C)C)c1

>  <logBB>
-1.23

>  <Class>
-1

>  <MW>
329.15

>  <nHBAcc>
6

>  <nHBDon>
2

>  <SLogP>
0.97

>  <TopoPSA>
95.94

>  <MMFF94 Energy>
-36.167

$$$$
CN=C(C[N+](=O)[O-])NCCCSc1ccc(CN(C)C)o1
Actelion Java MolfileCreator 2.0

  0  0  0  0  0  0              0 V3000
M  V30 BEGIN CTAB
M  V30 COUNTS 43 43 0 0 0
M  V30 BEGIN ATOM
M  V30 1 S -1.03 0.2376 -0.9507 0
M  V30 2 C -1.3021 0.5346 0.7452 0
M  V30 3 C 0.5882 1.0403 -1.1785 0
M  V30 4 O -0.5233 1.3773 1.4862 0
M  V30 5 C -2.2886 -0.0011 1.5484 0
M  V30 6 C 1.1354 0.8481 -2.5946 0
M  V30 7 C -1.0138 1.3786 2.7591 0
M  V30 8 C -2.1043 0.5396 2.8431 0
M  V30 9 C 1.7362 -0.5346 -2.8584 0
M  V30 10 C -0.3056 2.239 3.75 0
M  V30 11 N 0.713 -1.5572 -2.9557 0
M  V30 12 N -1.1785 3.2859 4.3145 0
M  V30 13 C 0.9598 -2.8444 -3.391 0
M  V30 14 C -1.5129 4.2969 3.3066 0
M  V30 15 C -0.5175 3.924 5.4543 0
M  V30 16 N 2.1479 -3.152 -3.8044 0
M  V30 17 C -0.2121 -3.8106 -3.3734 0
M  V30 18 C 2.4482 -4.4935 -4.2743 0
M  V30 19 N -0.3217 -4.3439 -1.9863 0 CHG=1
M  V30 20 O -0.9332 -3.6503 -1.1609 0
M  V30 21 O 0.1638 -5.4611 -1.7645 0 CHG=-1
M  V30 22 H 1.3017 0.6551 -0.442 0
M  V30 23 H 0.4586 2.1124 -0.9931 0
M  V30 24 H -3.0498 -0.7016 1.2341 0
M  V30 25 H 1.9416 1.5806 -2.7321 0
M  V30 26 H 0.371 1.0876 -3.3446 0
M  V30 27 H -2.6921 0.3529 3.7312 0
M  V30 28 H 2.2894 -0.4854 -3.8039 0
M  V30 29 H 2.4509 -0.796 -2.0698 0
M  V30 30 H 0.0359 1.5755 4.5556 0
M  V30 31 H 0.595 2.6783 3.3014 0
M  V30 32 H -0.1772 -1.3413 -2.5074 0
M  V30 33 H -2.0793 3.8615 2.4766 0
M  V30 34 H -0.6204 4.7852 2.8984 0
M  V30 35 H -2.1569 5.0703 3.7412 0
M  V30 36 H 0.4256 4.4052 5.1708 0
M  V30 37 H -0.3079 3.1891 6.2397 0
M  V30 38 H -1.1699 4.6813 5.9038 0
M  V30 39 H -0.1007 -4.6513 -4.0594 0
M  V30 40 H -1.1479 -3.2888 -3.5973 0
M  V30 41 H 2.2507 -5.2494 -3.5091 0
M  V30 42 H 3.5141 -4.553 -4.5165 0
M  V30 43 H 1.8952 -4.73 -5.1886 0
M  V30 END ATOM
M  V30 BEGIN BOND
M  V30 1 1 1 2
M  V30 2 1 1 3
M  V30 3 1 2 4
M  V30 4 2 2 5
M  V30 5 1 3 6
M  V30 6 1 4 7
M  V30 7 1 5 8
M  V30 8 1 6 9
M  V30 9 1 7 10
M  V30 10 1 9 11
M  V30 11 1 10 12
M  V30 12 1 11 13
M  V30 13 1 12 14
M  V30 14 1 12 15
M  V30 15 2 13 16
M  V30 16 1 13 17
M  V30 17 1 16 18
M  V30 18 1 17 19
M  V30 19 2 19 20
M  V30 20 1 19 21
M  V30 21 2 7 8
M  V30 22 1 3 22
M  V30 23 1 3 23
M  V30 24 1 5 24
M  V30 25 1 6 25
M  V30 26 1 6 26
M  V30 27 1 8 27
M  V30 28 1 9 28
M  V30 29 1 9 29
M  V30 30 1 10 30
M  V30 31 1 10 31
M  V30 32 1 11 32
M  V30 33 1 14 33
M  V30 34 1 14 34
M  V30 35 1 14 35
M  V30 36 1 15 36
M  V30 37 1 15 37
M  V30 38 1 15 38
M  V30 39 1 17 39
M  V30 40 1 17 40
M  V30 41 1 18 41
M  V30 42 1 18 42
M  V30 43 1 18 43
M  V30 END BOND
M  V30 END CTAB
M  END
>  <NO.>
93

>  <Name>
n-[3-[5-[(dimethylamino)methyl]furan-2-yl]sulfanylpropyl]-n'-methyl-2-nitroethanimidamide

>  <SMILES>
CN=C(C[N+](=O)[O-])NCCCSc1ccc(CN(C)C)o1

>  <logBB>
-1.23

>  <Class>
-1

>  <MW>
314.14

>  <nHBAcc>
6

>  <nHBDon>
1

>  <SLogP>
1.72

>  <TopoPSA>
83.91

>  <MMFF94 Energy>
3.0968

$$$$
CN=C(C[N+](=O)[O-])NCCSCc1ccc(CN(C)C)o1
Actelion Java MolfileCreator 2.0

  0  0  0  0  0  0              0 V3000
M  V30 BEGIN CTAB
M  V30 COUNTS 43 43 0 0 0
M  V30 BEGIN ATOM
M  V30 1 S -1.9825 1.9825 -1.1098 0
M  V30 2 C -1.0651 1.0154 -2.3543 0
M  V30 3 C -1.5577 1.0557 0.4171 0
M  V30 4 C -1.4809 -0.4067 -2.3858 0
M  V30 5 C -0.0634 1.0291 0.753 0
M  V30 6 O -0.5837 -1.3116 -1.899 0
M  V30 7 C -2.6178 -1.057 -2.8185 0
M  V30 8 N 0.4914 2.3726 0.8103 0
M  V30 9 C -1.1514 -2.5473 -2.0151 0
M  V30 10 C -2.4052 -2.4354 -2.5803 0
M  V30 11 C 1.77 2.6525 1.245 0
M  V30 12 C -0.3339 -3.7122 -1.5624 0
M  V30 13 N 2.5289 1.6758 1.6282 0
M  V30 14 C 2.2039 4.1076 1.2155 0
M  V30 15 N -0.4242 -4.0483 -0.1319 0
M  V30 16 C 3.8814 1.9262 2.0959 0
M  V30 17 N 1.6322 4.7569 2.4284 0 CHG=1
M  V30 18 C -1.7712 -4.4231 0.2836 0
M  V30 19 C 0.1253 -3.0031 0.7259 0
M  V30 20 O 2.3792 4.8988 3.4054 0
M  V30 21 O 0.4579 5.1478 2.3583 0 CHG=-1
M  V30 22 H 0.0095 1.116 -2.1747 0
M  V30 23 H -1.2619 1.4691 -3.3316 0
M  V30 24 H -2.0964 1.5528 1.232 0
M  V30 25 H -1.9566 0.0387 0.3541 0
M  V30 26 H 0.0574 0.5398 1.7268 0
M  V30 27 H 0.4896 0.4316 0.0213 0
M  V30 28 H -3.4924 -0.5894 -3.2498 0
M  V30 29 H -0.1351 3.1234 0.5252 0
M  V30 30 H -3.0798 -3.2526 -2.7952 0
M  V30 31 H -0.624 -4.5943 -2.1479 0
M  V30 32 H 0.7173 -3.5342 -1.8232 0
M  V30 33 H 1.7847 4.618 0.3429 0
M  V30 34 H 3.2852 4.2489 1.2252 0
M  V30 35 H 4.519 2.3018 1.2897 0
M  V30 36 H 3.9003 2.6176 2.9433 0
M  V30 37 H 4.3169 0.9832 2.4411 0
M  V30 38 H -2.1648 -5.2255 -0.3499 0
M  V30 39 H -2.4731 -3.5824 0.2561 0
M  V30 40 H -1.7568 -4.814 1.3074 0
M  V30 41 H -0.4838 -2.0935 0.725 0
M  V30 42 H 1.1439 -2.7403 0.4198 0
M  V30 43 H 0.1933 -3.3592 1.7601 0
M  V30 END ATOM
M  V30 BEGIN BOND
M  V30 1 1 1 2
M  V30 2 1 1 3
M  V30 3 1 2 4
M  V30 4 1 3 5
M  V30 5 1 4 6
M  V30 6 2 4 7
M  V30 7 1 5 8
M  V30 8 1 6 9
M  V30 9 1 7 10
M  V30 10 1 8 11
M  V30 11 1 9 12
M  V30 12 2 11 13
M  V30 13 1 11 14
M  V30 14 1 12 15
M  V30 15 1 13 16
M  V30 16 1 14 17
M  V30 17 1 15 18
M  V30 18 1 15 19
M  V30 19 2 17 20
M  V30 20 1 17 21
M  V30 21 2 9 10
M  V30 22 1 2 22
M  V30 23 1 2 23
M  V30 24 1 3 24
M  V30 25 1 3 25
M  V30 26 1 5 26
M  V30 27 1 5 27
M  V30 28 1 7 28
M  V30 29 1 8 29
M  V30 30 1 10 30
M  V30 31 1 12 31
M  V30 32 1 12 32
M  V30 33 1 14 33
M  V30 34 1 14 34
M  V30 35 1 16 35
M  V30 36 1 16 36
M  V30 37 1 16 37
M  V30 38 1 18 38
M  V30 39 1 18 39
M  V30 40 1 18 40
M  V30 41 1 19 41
M  V30 42 1 19 42
M  V30 43 1 19 43
M  V30 END BOND
M  V30 END CTAB
M  END
>  <NO.>
94

>  <Name>
chembl1907165

>  <SMILES>
CN=C(C[N+](=O)[O-])NCCSCc1ccc(CN(C)C)o1

>  <logBB>
-1.23

>  <Class>
-1

>  <MW>
314.14

>  <nHBAcc>
6

>  <nHBDon>
1

>  <SLogP>
1.47

>  <TopoPSA>
83.91

>  <MMFF94 Energy>
32.796

$$$$
CNC(C[N+](=O)[O-])=NCCSc1ccc(CN(C)C)o1
Actelion Java MolfileCreator 2.0

  0  0  0  0  0  0              0 V3000
M  V30 BEGIN CTAB
M  V30 COUNTS 40 40 0 0 0
M  V30 BEGIN ATOM
M  V30 1 S 3.0177 1.6668 1.3491 0
M  V30 2 C 2.7889 -0.0238 0.9891 0
M  V30 3 C 1.3143 2.2987 1.204 0
M  V30 4 O 1.5621 -0.5722 0.7583 0
M  V30 5 C 3.7532 -1.0046 0.8728 0
M  V30 6 C 0.8523 2.3818 -0.2536 0
M  V30 7 C 1.7388 -1.8951 0.483 0
M  V30 8 C 3.0809 -2.2066 0.5402 0
M  V30 9 N -0.4931 2.9591 -0.2843 0
M  V30 10 C 0.5098 -2.6788 0.1625 0
M  V30 11 C -1.2085 2.9167 -1.3631 0
M  V30 12 N -0.1985 -3.1563 1.3655 0
M  V30 13 N -2.4786 3.4591 -1.3435 0
M  V30 14 C -0.7316 2.3284 -2.6807 0
M  V30 15 C 0.5377 -4.2213 2.0463 0
M  V30 16 C -1.5345 -3.6279 0.9985 0
M  V30 17 C -3.0751 4.0473 -0.1669 0
M  V30 18 N -1.3815 0.9951 -2.8282 0 CHG=1
M  V30 19 O -0.699 -0.007 -2.5785 0
M  V30 20 O -2.5523 0.9827 -3.2378 0 CHG=-1
M  V30 21 H 0.6311 1.6819 1.7987 0
M  V30 22 H 1.2975 3.3002 1.6488 0
M  V30 23 H 4.8166 -0.8634 1.0039 0
M  V30 24 H 1.5341 3.0247 -0.8228 0
M  V30 25 H 0.851 1.3837 -0.7003 0
M  V30 26 H 3.5174 -3.1791 0.3632 0
M  V30 27 H -0.1509 -2.016 -0.4121 0
M  V30 28 H 0.7636 -3.5152 -0.5015 0
M  V30 29 H -3.0937 3.3418 -2.1439 0
M  V30 30 H -1.0679 2.9468 -3.519 0
M  V30 31 H 0.349 2.1997 -2.7482 0
M  V30 32 H 1.5018 -3.8632 2.4214 0
M  V30 33 H 0.717 -5.0833 1.3936 0
M  V30 34 H -0.017 -4.5691 2.9255 0
M  V30 35 H -1.498 -4.4659 0.2928 0
M  V30 36 H -2.1196 -2.8194 0.5457 0
M  V30 37 H -2.088 -3.9498 1.888 0
M  V30 38 H -2.4865 4.901 0.1827 0
M  V30 39 H -4.0826 4.4044 -0.4012 0
M  V30 40 H -3.1549 3.3106 0.6384 0
M  V30 END ATOM
M  V30 BEGIN BOND
M  V30 1 1 1 2
M  V30 2 1 1 3
M  V30 3 1 2 4
M  V30 4 2 2 5
M  V30 5 1 3 6
M  V30 6 1 4 7
M  V30 7 1 5 8
M  V30 8 1 6 9
M  V30 9 1 7 10
M  V30 10 2 9 11
M  V30 11 1 10 12
M  V30 12 1 11 13
M  V30 13 1 11 14
M  V30 14 1 12 15
M  V30 15 1 12 16
M  V30 16 1 13 17
M  V30 17 1 14 18
M  V30 18 2 18 19
M  V30 19 1 18 20
M  V30 20 2 7 8
M  V30 21 1 3 21
M  V30 22 1 3 22
M  V30 23 1 5 23
M  V30 24 1 6 24
M  V30 25 1 6 25
M  V30 26 1 8 26
M  V30 27 1 10 27
M  V30 28 1 10 28
M  V30 29 1 13 29
M  V30 30 1 14 30
M  V30 31 1 14 31
M  V30 32 1 15 32
M  V30 33 1 15 33
M  V30 34 1 15 34
M  V30 35 1 16 35
M  V30 36 1 16 36
M  V30 37 1 16 37
M  V30 38 1 17 38
M  V30 39 1 17 39
M  V30 40 1 17 40
M  V30 END BOND
M  V30 END CTAB
M  END
>  <NO.>
96

>  <Name>


>  <SMILES>
CNC(C[N+](=O)[O-])=NCCSc1ccc(CN(C)C)o1

>  <logBB>
-1.23

>  <Class>
-1

>  <MW>
300.13

>  <nHBAcc>
6

>  <nHBDon>
1

>  <SLogP>
1.33

>  <TopoPSA>
83.91

>  <MMFF94 Energy>
17.725

$$$$
CO[C@H]1CN(CC2Cc3ccc(NC(=O)C(C)C)cc3C2)CCC1n1c(C)nc2cc(C)ccc21
Actelion Java MolfileCreator 2.0

  0  0  0  0  0  0              0 V3000
M  V30 BEGIN CTAB
M  V30 COUNTS 73 77 0 0 0
M  V30 BEGIN ATOM
M  V30 1 O 7.3258 -2.623 -1.0326 0
M  V30 2 C 7.1989 -3.3753 -0.0727 0
M  V30 3 N 6.0985 -3.4539 0.7672 0
M  V30 4 C 8.2999 -4.3619 0.328 0
M  V30 5 C 4.9157 -2.6865 0.7109 0
M  V30 6 C 9.3193 -4.5387 -0.7951 0
M  V30 7 C 8.9911 -3.8868 1.6047 0
M  V30 8 C 4.7298 -1.6087 -0.1586 0
M  V30 9 C 3.8854 -3.0379 1.6086 0
M  V30 10 C 3.5227 -0.9235 -0.1261 0
M  V30 11 C 2.6771 -2.3331 1.6427 0
M  V30 12 C 2.5081 -1.2811 0.7631 0
M  V30 13 C 3.1275 0.2704 -0.9375 0
M  V30 14 C 1.3326 -0.3632 0.6345 0
M  V30 15 C 1.5928 0.2763 -0.7474 0
M  V30 16 C 1.0055 1.6871 -0.8864 0
M  V30 17 N -0.446 1.7584 -0.6218 0
M  V30 18 C -1.2274 1.1083 -1.6883 0
M  V30 19 C -0.8577 3.1643 -0.4851 0
M  V30 20 C -2.7435 1.1052 -1.4044 0 CFG=2
M  V30 21 C -2.3255 3.255 -0.0829 0
M  V30 22 O -3.3888 0.6309 -2.6007 0
M  V30 23 C -3.2266 2.5348 -1.0934 0
M  V30 24 C -4.3101 -0.4242 -2.3507 0
M  V30 25 N -4.6352 2.5826 -0.6941 0
M  V30 26 C -5.1936 2.0412 0.4487 0
M  V30 27 C -5.654 3.1789 -1.4166 0
M  V30 28 C -6.5429 2.371 0.3589 0
M  V30 29 C -4.6847 1.3051 1.5279 0
M  V30 30 N -6.8057 3.0692 -0.7875 0
M  V30 31 C -5.4739 3.8455 -2.7323 0
M  V30 32 C -7.4286 1.9745 1.3736 0
M  V30 33 C -5.5827 0.9165 2.5313 0
M  V30 34 C -6.94 1.2533 2.4742 0
M  V30 35 C -7.8819 0.7951 3.5487 0
M  V30 36 H 6.1309 -4.1564 1.4942 0
M  V30 37 H 7.8303 -5.3356 0.5172 0
M  V30 38 H 10.0693 -5.2895 -0.5252 0
M  V30 39 H 8.8284 -4.8683 -1.7172 0
M  V30 40 H 9.8419 -3.6009 -1.0142 0
M  V30 41 H 8.2853 -3.8182 2.4391 0
M  V30 42 H 9.4334 -2.8937 1.4679 0
M  V30 43 H 9.7874 -4.5787 1.8981 0
M  V30 44 H 5.4971 -1.2865 -0.8528 0
M  V30 45 H 4.014 -3.8686 2.2978 0
M  V30 46 H 1.8958 -2.6079 2.3439 0
M  V30 47 H 3.3935 0.1584 -1.9929 0
M  V30 48 H 3.5999 1.17 -0.5286 0
M  V30 49 H 0.3837 -0.908 0.6474 0
M  V30 50 H 1.3495 0.3766 1.4421 0
M  V30 51 H 1.1708 -0.3843 -1.518 0
M  V30 52 H 1.5257 2.3311 -0.1643 0
M  V30 53 H 1.2366 2.0885 -1.882 0
M  V30 54 H -1.0333 1.5843 -2.6599 0
M  V30 55 H -0.9279 0.0607 -1.8065 0
M  V30 56 H -0.266 3.6542 0.2979 0
M  V30 57 H -0.6862 3.719 -1.4169 0
M  V30 58 H -2.9346 0.4266 -0.5642 0
M  V30 59 H -2.6191 4.3099 -0.0101 0
M  V30 60 H -2.4384 2.838 0.9232 0
M  V30 61 H -3.1596 3.1014 -2.0304 0
M  V30 62 H -5.1089 -0.0976 -1.6805 0
M  V30 63 H -4.7564 -0.7208 -3.3035 0
M  V30 64 H -3.7902 -1.2883 -1.9261 0
M  V30 65 H -3.6381 1.0321 1.6029 0
M  V30 66 H -5.0708 3.1465 -3.4712 0
M  V30 67 H -4.8001 4.7031 -2.6443 0
M  V30 68 H -6.4345 4.212 -3.1084 0
M  V30 69 H -8.4785 2.2337 1.287 0
M  V30 70 H -5.2043 0.3398 3.374 0
M  V30 71 H -7.3724 0.7389 4.5164 0
M  V30 72 H -8.7163 1.4952 3.662 0
M  V30 73 H -8.2804 -0.1931 3.3002 0
M  V30 END ATOM
M  V30 BEGIN BOND
M  V30 1 2 1 2
M  V30 2 1 2 3
M  V30 3 1 2 4
M  V30 4 1 3 5
M  V30 5 1 4 6
M  V30 6 1 4 7
M  V30 7 2 5 8
M  V30 8 1 5 9
M  V30 9 1 8 10
M  V30 10 2 9 11
M  V30 11 2 10 12
M  V30 12 1 10 13
M  V30 13 1 12 14
M  V30 14 1 13 15
M  V30 15 1 15 16
M  V30 16 1 16 17
M  V30 17 1 17 18
M  V30 18 1 17 19
M  V30 19 1 18 20
M  V30 20 1 19 21
M  V30 21 1 20 22
M  V30 22 1 20 23
M  V30 23 1 22 24
M  V30 24 1 23 25
M  V30 25 1 25 26
M  V30 26 1 25 27
M  V30 27 2 26 28
M  V30 28 1 26 29
M  V30 29 2 27 30
M  V30 30 1 27 31
M  V30 31 1 28 32
M  V30 32 2 29 33
M  V30 33 2 32 34
M  V30 34 1 34 35
M  V30 35 1 11 12
M  V30 36 1 14 15
M  V30 37 1 21 23
M  V30 38 1 28 30
M  V30 39 1 33 34
M  V30 40 1 3 36
M  V30 41 1 4 37
M  V30 42 1 6 38
M  V30 43 1 6 39
M  V30 44 1 6 40
M  V30 45 1 7 41
M  V30 46 1 7 42
M  V30 47 1 7 43
M  V30 48 1 8 44
M  V30 49 1 9 45
M  V30 50 1 11 46
M  V30 51 1 13 47
M  V30 52 1 13 48
M  V30 53 1 14 49
M  V30 54 1 14 50
M  V30 55 1 15 51
M  V30 56 1 16 52
M  V30 57 1 16 53
M  V30 58 1 18 54
M  V30 59 1 18 55
M  V30 60 1 19 56
M  V30 61 1 19 57
M  V30 62 1 20 58
M  V30 63 1 21 59
M  V30 64 1 21 60
M  V30 65 1 23 61
M  V30 66 1 24 62
M  V30 67 1 24 63
M  V30 68 1 24 64
M  V30 69 1 29 65
M  V30 70 1 31 66
M  V30 71 1 31 67
M  V30 72 1 31 68
M  V30 73 1 32 69
M  V30 74 1 33 70
M  V30 75 1 35 71
M  V30 76 1 35 72
M  V30 77 1 35 73
M  V30 END BOND
M  V30 BEGIN COLLECTION
M  V30 MDLV30/STEABS ATOMS=(1 20)
M  V30 END COLLECTION
M  V30 END CTAB
M  END
>  <NO.>
98

>  <Name>
compound 5

>  <SMILES>
CO[C@H]1CN(CC2Cc3ccc(NC(=O)C(C)C)cc3C2)CCC1n1c(C)nc2cc(C)ccc21

>  <logBB>
-1.22

>  <Class>
-1

>  <MW>
474.3

>  <nHBAcc>
4

>  <nHBDon>
1

>  <SLogP>
4.92

>  <TopoPSA>
59.39

>  <MMFF94 Energy>
58.167

$$$$
CN(C)CCc1c[nH]c2ccc(O)cc12
Actelion Java MolfileCreator 2.0

  0  0  0  0  0  0              0 V3000
M  V30 BEGIN CTAB
M  V30 COUNTS 31 32 0 0 0
M  V30 BEGIN ATOM
M  V30 1 O 2.3486 3.7599 0.0782 0
M  V30 2 C 1.0616 3.3047 0.0251 0
M  V30 3 C 0.7592 1.97 0.3051 0
M  V30 4 C 0.073 4.218 -0.3163 0
M  V30 5 C -0.5864 1.5488 0.2373 0
M  V30 6 C -1.2656 3.8242 -0.3886 0
M  V30 7 C -1.563 2.4851 -0.1065 0
M  V30 8 C -1.2495 0.296 0.4492 0
M  V30 9 N -2.7722 1.8303 -0.0989 0
M  V30 10 C -2.5963 0.5145 0.2328 0
M  V30 11 C -0.6118 -1.0064 0.8314 0
M  V30 12 C -0.0361 -1.7468 -0.3891 0
M  V30 13 N 0.509 -3.0829 -0.0704 0
M  V30 14 C 1.7232 -2.9991 0.7433 0
M  V30 15 C 0.7961 -3.8103 -1.3103 0
M  V30 16 H 2.9236 3.0235 0.3425 0
M  V30 17 H 1.533 1.2596 0.5714 0
M  V30 18 H 0.3439 5.2493 -0.5279 0
M  V30 19 H -2.0401 4.5363 -0.6538 0
M  V30 20 H -3.66 2.2649 -0.3091 0
M  V30 21 H -3.443 -0.1573 0.2875 0
M  V30 22 H -1.3556 -1.6416 1.3295 0
M  V30 23 H 0.1727 -0.8046 1.5696 0
M  V30 24 H -0.8527 -1.8653 -1.1148 0
M  V30 25 H 0.7262 -1.1279 -0.8815 0
M  V30 26 H 1.5133 -2.5663 1.7263 0
M  V30 27 H 2.5052 -2.4028 0.2593 0
M  V30 28 H 2.1265 -4.0001 0.9358 0
M  V30 29 H 1.5445 -3.2983 -1.9262 0
M  V30 30 H -0.1157 -3.9343 -1.9053 0
M  V30 31 H 1.1618 -4.8195 -1.0894 0
M  V30 END ATOM
M  V30 BEGIN BOND
M  V30 1 1 1 2
M  V30 2 2 2 3
M  V30 3 1 2 4
M  V30 4 1 3 5
M  V30 5 2 4 6
M  V30 6 2 5 7
M  V30 7 1 5 8
M  V30 8 1 7 9
M  V30 9 2 8 10
M  V30 10 1 8 11
M  V30 11 1 11 12
M  V30 12 1 12 13
M  V30 13 1 13 14
M  V30 14 1 13 15
M  V30 15 1 6 7
M  V30 16 1 9 10
M  V30 17 1 1 16
M  V30 18 1 3 17
M  V30 19 1 4 18
M  V30 20 1 6 19
M  V30 21 1 9 20
M  V30 22 1 10 21
M  V30 23 1 11 22
M  V30 24 1 11 23
M  V30 25 1 12 24
M  V30 26 1 12 25
M  V30 27 1 14 26
M  V30 28 1 14 27
M  V30 29 1 14 28
M  V30 30 1 15 29
M  V30 31 1 15 30
M  V30 32 1 15 31
M  V30 END BOND
M  V30 END CTAB
M  END
>  <NO.>
103

>  <Name>
bufotenine

>  <SMILES>
CN(C)CCc1c[nH]c2ccc(O)cc12

>  <logBB>
-1.19

>  <Class>
-1

>  <MW>
204.13

>  <nHBAcc>
2

>  <nHBDon>
2

>  <SLogP>
1.98

>  <TopoPSA>
39.26

>  <MMFF94 Energy>
23.262

$$$$
CC(=O)Oc1ccc(/C=C/C(=O)NCCc2ccccc2)cc1OC(C)=O
Actelion Java MolfileCreator 2.0

  0  0  0  0  0  0              0 V3000
M  V30 BEGIN CTAB
M  V30 COUNTS 48 49 0 0 0
M  V30 BEGIN ATOM
M  V30 1 O 0.3954 -2.7705 -0.079 0
M  V30 2 C -0.0922 -1.7578 -0.563 0
M  V30 3 N -0.9353 -1.7479 -1.6469 0
M  V30 4 C 0.168 -0.4005 -0.0237 0
M  V30 5 C -1.3048 -2.9747 -2.3283 0
M  V30 6 C 0.9501 -0.2514 1.0565 0
M  V30 7 C -2.4057 -3.7375 -1.5879 0
M  V30 8 C 1.2381 1.0535 1.6624 0
M  V30 9 C -2.8164 -4.9836 -2.3315 0
M  V30 10 C 1.5722 2.1711 0.8844 0
M  V30 11 C 1.2109 1.1729 3.0613 0
M  V30 12 C -3.9111 -4.9664 -3.206 0
M  V30 13 C -2.0868 -6.1701 -2.1763 0
M  V30 14 C 1.8259 3.3961 1.5037 0
M  V30 15 C 1.488 2.3953 3.6802 0
M  V30 16 C -4.2733 -6.1183 -3.9062 0
M  V30 17 C -2.4505 -7.3204 -2.8776 0
M  V30 18 O 2.1763 4.5212 0.7486 0
M  V30 19 C 1.8113 3.498 2.8944 0
M  V30 20 C -3.5435 -7.2944 -3.7418 0
M  V30 21 C 1.1829 4.9891 -0.1029 0
M  V30 22 O 2.0507 4.7201 3.5226 0
M  V30 23 O 0.0627 4.5212 -0.2574 0
M  V30 24 C 1.7029 6.1928 -0.8312 0
M  V30 25 C 3.4054 4.9841 3.6821 0
M  V30 26 O 4.342 4.266 3.3599 0
M  V30 27 C 3.5587 6.3255 4.3359 0
M  V30 28 H -1.3115 -0.8758 -1.9926 0
M  V30 29 H -0.2985 0.445 -0.5127 0
M  V30 30 H -0.4085 -3.5967 -2.4382 0
M  V30 31 H -1.6385 -2.6929 -3.3333 0
M  V30 32 H 1.3845 -1.119 1.5506 0
M  V30 33 H -2.0748 -4.0102 -0.5776 0
M  V30 34 H -3.2787 -3.0876 -1.4433 0
M  V30 35 H 1.6323 2.0943 -0.1971 0
M  V30 36 H 0.9634 0.3122 3.6802 0
M  V30 37 H -4.4904 -4.0567 -3.3459 0
M  V30 38 H -1.2298 -6.2028 -1.5056 0
M  V30 39 H 1.4563 2.4775 4.7624 0
M  V30 40 H -5.1257 -6.0986 -4.5802 0
M  V30 41 H -1.8801 -8.2365 -2.7487 0
M  V30 42 H -3.8265 -8.191 -4.2867 0
M  V30 43 H 1.9626 6.976 -0.1143 0
M  V30 44 H 2.5728 5.9153 -1.4317 0
M  V30 45 H 0.9257 6.5759 -1.4987 0
M  V30 46 H 3.1131 7.0984 3.7045 0
M  V30 47 H 3.0875 6.3134 5.322 0
M  V30 48 H 4.6223 6.5483 4.4601 0
M  V30 END ATOM
M  V30 BEGIN BOND
M  V30 1 2 1 2
M  V30 2 1 2 3
M  V30 3 1 2 4
M  V30 4 1 3 5
M  V30 5 2 4 6
M  V30 6 1 5 7
M  V30 7 1 6 8
M  V30 8 1 7 9
M  V30 9 2 8 10
M  V30 10 1 8 11
M  V30 11 2 9 12
M  V30 12 1 9 13
M  V30 13 1 10 14
M  V30 14 2 11 15
M  V30 15 1 12 16
M  V30 16 2 13 17
M  V30 17 1 14 18
M  V30 18 2 14 19
M  V30 19 2 16 20
M  V30 20 1 18 21
M  V30 21 1 19 22
M  V30 22 2 21 23
M  V30 23 1 21 24
M  V30 24 1 22 25
M  V30 25 2 25 26
M  V30 26 1 25 27
M  V30 27 1 15 19
M  V30 28 1 17 20
M  V30 29 1 3 28
M  V30 30 1 4 29
M  V30 31 1 5 30
M  V30 32 1 5 31
M  V30 33 1 6 32
M  V30 34 1 7 33
M  V30 35 1 7 34
M  V30 36 1 10 35
M  V30 37 1 11 36
M  V30 38 1 12 37
M  V30 39 1 13 38
M  V30 40 1 15 39
M  V30 41 1 16 40
M  V30 42 1 17 41
M  V30 43 1 20 42
M  V30 44 1 24 43
M  V30 45 1 24 44
M  V30 46 1 24 45
M  V30 47 1 27 46
M  V30 48 1 27 47
M  V30 49 1 27 48
M  V30 END BOND
M  V30 END CTAB
M  END
>  <NO.>
104

>  <Name>
y12

>  <SMILES>
CC(=O)Oc1ccc(/C=C/C(=O)NCCc2ccccc2)cc1OC(C)=O

>  <logBB>
-1.17

>  <Class>
-1

>  <MW>
367.14

>  <nHBAcc>
5

>  <nHBDon>
1

>  <SLogP>
2.91

>  <TopoPSA>
81.7

>  <MMFF94 Energy>
29.953

$$$$
CN(C)c1cc(-c2n[nH]c(N)n2)ccn1
Actelion Java MolfileCreator 2.0

  0  0  0  0  0  0              0 V3000
M  V30 BEGIN CTAB
M  V30 COUNTS 27 28 0 0 0
M  V30 BEGIN ATOM
M  V30 1 N 1.2488 -0.9365 2.1082 0
M  V30 2 C 0.0527 -0.9239 1.475 0
M  V30 3 C 2.2842 -0.2506 1.5782 0
M  V30 4 N -0.9918 -1.6334 2.0439 0
M  V30 5 C -0.0945 -0.2036 0.291 0
M  V30 6 C 2.2057 0.4773 0.4118 0
M  V30 7 C -2.2534 -1.8391 1.3617 0
M  V30 8 C -0.7063 -2.3879 3.2526 0
M  V30 9 C 0.9853 0.5046 -0.2531 0
M  V30 10 C 0.8233 1.2539 -1.4934 0
M  V30 11 N 1.8061 1.9627 -2.0764 0
M  V30 12 N -0.3745 1.2931 -2.179 0
M  V30 13 N 1.1808 2.4541 -3.1582 0
M  V30 14 C -0.1208 2.0498 -3.2128 0
M  V30 15 N -0.9528 2.4065 -4.1953 0
M  V30 16 H 3.2105 -0.3076 2.1418 0
M  V30 17 H -1.0474 -0.1776 -0.2256 0
M  V30 18 H 3.073 1.008 0.0352 0
M  V30 19 H -2.7524 -0.8848 1.1608 0
M  V30 20 H -2.9475 -2.4342 1.9654 0
M  V30 21 H -2.1047 -2.3741 0.4174 0
M  V30 22 H -0.2862 -1.7452 4.035 0
M  V30 23 H -0.0074 -3.2061 3.0459 0
M  V30 24 H -1.6156 -2.8329 3.6716 0
M  V30 25 H 1.6864 3.0445 -3.8045 0
M  V30 26 H -0.7147 2.9979 -4.981 0
M  V30 27 H -1.9098 2.068 -4.1697 0
M  V30 END ATOM
M  V30 BEGIN BOND
M  V30 1 2 1 2
M  V30 2 1 1 3
M  V30 3 1 2 4
M  V30 4 1 2 5
M  V30 5 2 3 6
M  V30 6 1 4 7
M  V30 7 1 4 8
M  V30 8 2 5 9
M  V30 9 1 9 10
M  V30 10 2 10 11
M  V30 11 1 10 12
M  V30 12 1 11 13
M  V30 13 2 12 14
M  V30 14 1 14 15
M  V30 15 1 6 9
M  V30 16 1 13 14
M  V30 17 1 3 16
M  V30 18 1 5 17
M  V30 19 1 6 18
M  V30 20 1 7 19
M  V30 21 1 7 20
M  V30 22 1 7 21
M  V30 23 1 8 22
M  V30 24 1 8 23
M  V30 25 1 8 24
M  V30 26 1 13 25
M  V30 27 1 15 26
M  V30 28 1 15 27
M  V30 END BOND
M  V30 END CTAB
M  END
>  <NO.>
105

>  <Name>
y-g12 (bbcpd10)

>  <SMILES>
CN(C)c1cc(-c2n[nH]c(N)n2)ccn1

>  <logBB>
-1.17

>  <Class>
-1

>  <MW>
204.11

>  <nHBAcc>
5

>  <nHBDon>
2

>  <SLogP>
0.51

>  <TopoPSA>
83.72

>  <MMFF94 Energy>
-36.636

$$$$
NC(N)=Nc1nc(-c2cccc(N)c2)cs1
Actelion Java MolfileCreator 2.0

  0  0  0  0  0  0              0 V3000
M  V30 BEGIN CTAB
M  V30 COUNTS 27 28 0 0 0
M  V30 BEGIN ATOM
M  V30 1 S -2.0678 1.5903 -2.4658 0
M  V30 2 C -1.1929 2.0641 -1.0472 0
M  V30 3 C -1.6133 -0.0393 -2.2117 0
M  V30 4 N -0.5941 1.06 -0.4305 0
M  V30 5 N -1.2055 3.3826 -0.7182 0
M  V30 6 C -0.8337 -0.1415 -1.0789 0
M  V30 7 C -0.6681 3.7538 0.396 0
M  V30 8 C -0.2636 -1.3888 -0.5812 0
M  V30 9 N -0.6755 5.0577 0.7398 0
M  V30 10 N -0.0549 3.0108 1.3398 0
M  V30 11 C 0.9402 -1.3547 0.1421 0
M  V30 12 C -0.8905 -2.6237 -0.7901 0
M  V30 13 C 1.5295 -2.5246 0.6307 0
M  V30 14 C -0.3214 -3.795 -0.2881 0
M  V30 15 N 2.6995 -2.4695 1.3671 0
M  V30 16 C 0.879 -3.7412 0.422 0
M  V30 17 H -1.9257 -0.8108 -2.8996 0
M  V30 18 H -0.0815 5.4199 1.4668 0
M  V30 19 H -1.0957 5.7089 0.0906 0
M  V30 20 H -0.0038 2.0075 1.1691 0
M  V30 21 H 0.0888 3.3385 2.2795 0
M  V30 22 H 1.4282 -0.3982 0.3171 0
M  V30 23 H -1.8351 -2.6915 -1.323 0
M  V30 24 H -0.8169 -4.75 -0.442 0
M  V30 25 H 3.2063 -1.5985 1.4481 0
M  V30 26 H 3.1624 -3.3204 1.6543 0
M  V30 27 H 1.3027 -4.6619 0.814 0
M  V30 END ATOM
M  V30 BEGIN BOND
M  V30 1 1 1 2
M  V30 2 1 1 3
M  V30 3 2 2 4
M  V30 4 1 2 5
M  V30 5 2 3 6
M  V30 6 2 5 7
M  V30 7 1 6 8
M  V30 8 1 7 9
M  V30 9 1 7 10
M  V30 10 2 8 11
M  V30 11 1 8 12
M  V30 12 1 11 13
M  V30 13 2 12 14
M  V30 14 1 13 15
M  V30 15 2 13 16
M  V30 16 1 4 6
M  V30 17 1 14 16
M  V30 18 1 3 17
M  V30 19 1 9 18
M  V30 20 1 9 19
M  V30 21 1 10 20
M  V30 22 1 10 21
M  V30 23 1 11 22
M  V30 24 1 12 23
M  V30 25 1 14 24
M  V30 26 1 15 25
M  V30 27 1 15 26
M  V30 28 1 16 27
M  V30 END BOND
M  V30 END CTAB
M  END
>  <NO.>
106

>  <Name>
72801-60-6

>  <SMILES>
NC(N)=Nc1nc(-c2cccc(N)c2)cs1

>  <logBB>
-1.15

>  <Class>
-1

>  <MW>
233.07

>  <nHBAcc>
4

>  <nHBDon>
3

>  <SLogP>
1.3

>  <TopoPSA>
103.31

>  <MMFF94 Energy>
-109.48

$$$$
CCS(=O)(=O)n1c2c(c3cc(C(=O)N4CCC(C)CC4)ccc31)CN(C1CCOCC1)CC2
Actelion Java MolfileCreator 2.0

  0  0  0  0  0  0              0 V3000
M  V30 BEGIN CTAB
M  V30 COUNTS 68 72 0 0 0
M  V30 BEGIN ATOM
M  V30 1 S 1.7748 3.8754 -1.0484 0
M  V30 2 O 1.5467 3.9081 -2.4812 0
M  V30 3 O 1.3335 4.9748 -0.2107 0
M  V30 4 N 0.9535 2.4774 -0.4791 0
M  V30 5 C 3.5063 3.5835 -0.7413 0
M  V30 6 C 0.9634 1.2603 -1.1513 0
M  V30 7 C 0.5166 2.3016 0.8106 0
M  V30 8 C 4.3569 4.7533 -1.1928 0
M  V30 9 C 0.4807 0.3009 -0.2445 0
M  V30 10 C 1.3563 0.8966 -2.4557 0
M  V30 11 C 0.2215 0.9635 0.988 0
M  V30 12 C 0.401 3.3133 1.902 0
M  V30 13 C 0.3699 -1.0429 -0.6559 0
M  V30 14 C 1.2385 -0.441 -2.8444 0
M  V30 15 C -0.2745 0.3966 2.2848 0
M  V30 16 C -0.3378 2.6911 3.1175 0
M  V30 17 C 0.7301 -1.3912 -1.9618 0
M  V30 18 N 0.1045 1.3046 3.395 0
M  V30 19 C 0.6293 -2.8077 -2.3679 0
M  V30 20 C -0.3304 0.7666 4.7011 0
M  V30 21 O 1.2965 -3.6191 -1.7304 0
M  V30 22 N -0.1983 -3.1477 -3.4345 0
M  V30 23 C 0.4982 1.3717 5.8481 0
M  V30 24 C -1.829 0.898 5.0211 0
M  V30 25 C -0.1611 -4.5146 -3.9462 0
M  V30 26 C -1.1627 -2.256 -4.0821 0
M  V30 27 C 0.0705 0.7674 7.1799 0
M  V30 28 C -2.1211 0.3177 6.4002 0
M  V30 29 C -1.5463 -5.1562 -3.905 0
M  V30 30 C -2.5682 -2.8594 -4.0559 0
M  V30 31 O -1.3269 0.9581 7.3969 0
M  V30 32 C -2.614 -4.2959 -4.5992 0
M  V30 33 C -2.4724 -4.3309 -6.1226 0
M  V30 34 H 3.6259 3.4165 0.3332 0
M  V30 35 H 3.7915 2.6756 -1.28 0
M  V30 36 H 5.4144 4.5533 -0.9957 0
M  V30 37 H 4.2373 4.9364 -2.2654 0
M  V30 38 H 4.0782 5.6707 -0.6644 0
M  V30 39 H 1.7362 1.6228 -3.1693 0
M  V30 40 H -0.1641 4.1908 1.5733 0
M  V30 41 H 1.4041 3.6302 2.2107 0
M  V30 42 H 0.0171 -1.8079 0.031 0
M  V30 43 H 1.5482 -0.7367 -3.8444 0
M  V30 44 H -1.3614 0.2667 2.2234 0
M  V30 45 H 0.1833 -0.587 2.4411 0
M  V30 46 H -0.1575 3.3478 3.9749 0
M  V30 47 H -1.4188 2.7096 2.9227 0
M  V30 48 H -0.0892 -0.3066 4.7037 0
M  V30 49 H 1.5681 1.1953 5.6878 0
M  V30 50 H 0.3443 2.4558 5.8987 0
M  V30 51 H -2.4414 0.3859 4.272 0
M  V30 52 H -2.1197 1.9554 5.0268 0
M  V30 53 H 0.216 -4.4676 -4.9739 0
M  V30 54 H 0.5433 -5.1309 -3.3785 0
M  V30 55 H -1.202 -1.2807 -3.5925 0
M  V30 56 H -0.8231 -2.0952 -5.111 0
M  V30 57 H 0.305 -0.3024 7.2279 0
M  V30 58 H 0.6048 1.2586 7.9995 0
M  V30 59 H -3.1727 0.482 6.6567 0
M  V30 60 H -1.9402 -0.7632 6.4263 0
M  V30 61 H -1.5074 -6.1552 -4.3542 0
M  V30 62 H -1.8385 -5.2921 -2.8553 0
M  V30 63 H -3.2587 -2.2159 -4.6134 0
M  V30 64 H -2.9207 -2.8731 -3.0159 0
M  V30 65 H -3.5985 -4.7185 -4.3596 0
M  V30 66 H -2.545 -5.3595 -6.4914 0
M  V30 67 H -1.518 -3.92 -6.464 0
M  V30 68 H -3.273 -3.7519 -6.5954 0
M  V30 END ATOM
M  V30 BEGIN BOND
M  V30 1 2 1 2
M  V30 2 2 1 3
M  V30 3 1 1 4
M  V30 4 1 1 5
M  V30 5 1 4 6
M  V30 6 1 4 7
M  V30 7 1 5 8
M  V30 8 2 6 9
M  V30 9 1 6 10
M  V30 10 2 7 11
M  V30 11 1 7 12
M  V30 12 1 9 13
M  V30 13 2 10 14
M  V30 14 1 11 15
M  V30 15 1 12 16
M  V30 16 2 13 17
M  V30 17 1 15 18
M  V30 18 1 17 19
M  V30 19 1 18 20
M  V30 20 2 19 21
M  V30 21 1 19 22
M  V30 22 1 20 23
M  V30 23 1 20 24
M  V30 24 1 22 25
M  V30 25 1 22 26
M  V30 26 1 23 27
M  V30 27 1 24 28
M  V30 28 1 25 29
M  V30 29 1 26 30
M  V30 30 1 27 31
M  V30 31 1 29 32
M  V30 32 1 32 33
M  V30 33 1 9 11
M  V30 34 1 14 17
M  V30 35 1 16 18
M  V30 36 1 28 31
M  V30 37 1 30 32
M  V30 38 1 5 34
M  V30 39 1 5 35
M  V30 40 1 8 36
M  V30 41 1 8 37
M  V30 42 1 8 38
M  V30 43 1 10 39
M  V30 44 1 12 40
M  V30 45 1 12 41
M  V30 46 1 13 42
M  V30 47 1 14 43
M  V30 48 1 15 44
M  V30 49 1 15 45
M  V30 50 1 16 46
M  V30 51 1 16 47
M  V30 52 1 20 48
M  V30 53 1 23 49
M  V30 54 1 23 50
M  V30 55 1 24 51
M  V30 56 1 24 52
M  V30 57 1 25 53
M  V30 58 1 25 54
M  V30 59 1 26 55
M  V30 60 1 26 56
M  V30 61 1 27 57
M  V30 62 1 27 58
M  V30 63 1 28 59
M  V30 64 1 28 60
M  V30 65 1 29 61
M  V30 66 1 29 62
M  V30 67 1 30 63
M  V30 68 1 30 64
M  V30 69 1 32 65
M  V30 70 1 33 66
M  V30 71 1 33 67
M  V30 72 1 33 68
M  V30 END BOND
M  V30 END CTAB
M  END
>  <NO.>
108

>  <Name>
az599

>  <SMILES>
CCS(=O)(=O)n1c2c(c3cc(C(=O)N4CCC(C)CC4)ccc31)CN(C1CCOCC1)CC2

>  <logBB>
-1.15

>  <Class>
-1

>  <MW>
473.23

>  <nHBAcc>
5

>  <nHBDon>
0

>  <SLogP>
3.25

>  <TopoPSA>
71.85

>  <MMFF94 Energy>
113.06

$$$$
Cc1ccc(/C(=C\CN2CCCC2)c2cccc(/C=C/C(=O)O)n2)cc1
Actelion Java MolfileCreator 2.0

  0  0  0  0  0  0              0 V3000
M  V30 BEGIN CTAB
M  V30 COUNTS 50 52 0 0 0
M  V30 BEGIN ATOM
M  V30 1 O -3.6484 6.1925 0.8715 0
M  V30 2 C -2.6155 5.5509 0.9101 0
M  V30 3 O -1.4629 6.0783 1.351 0
M  V30 4 C -2.4214 4.1553 0.5106 0
M  V30 5 C -3.4633 3.4478 0.0464 0
M  V30 6 C -3.3603 2.0469 -0.3767 0
M  V30 7 N -2.1507 1.4556 -0.2597 0
M  V30 8 C -4.4734 1.381 -0.876 0
M  V30 9 C -2.0261 0.1622 -0.6417 0
M  V30 10 C -4.3349 0.0566 -1.2779 0
M  V30 11 C -0.6619 -0.4184 -0.5128 0
M  V30 12 C -3.0942 -0.5625 -1.1649 0
M  V30 13 C 0.5443 0.3432 -0.9124 0
M  V30 14 C -0.5276 -1.6526 0.028 0
M  V30 15 C 1.392 0.8961 0.0554 0
M  V30 16 C 0.8429 0.5265 -2.2671 0
M  V30 17 C 0.7385 -2.4443 0.234 0
M  V30 18 C 2.5273 1.615 -0.326 0
M  V30 19 C 1.9789 1.2463 -2.648 0
M  V30 20 N 1.0132 -2.6378 1.6671 0
M  V30 21 C 2.8233 1.8053 -1.6809 0
M  V30 22 C 2.4065 -3.0522 1.8941 0
M  V30 23 C 0.2261 -3.7339 2.254 0
M  V30 24 C 4.0577 2.5524 -2.0901 0
M  V30 25 C 2.4284 -4.5564 1.6782 0
M  V30 26 C 1.0111 -5.0136 1.9925 0
M  V30 27 H -1.7004 6.9979 1.5885 0
M  V30 28 H -1.4251 3.7384 0.6049 0
M  V30 29 H -4.4443 3.9083 -0.0331 0
M  V30 30 H -5.4346 1.8772 -0.9608 0
M  V30 31 H -5.1849 -0.4863 -1.6809 0
M  V30 32 H -2.9682 -1.5888 -1.4925 0
M  V30 33 H -1.4224 -2.1718 0.3638 0
M  V30 34 H 1.168 0.7649 1.1123 0
M  V30 35 H 0.193 0.1115 -3.033 0
M  V30 36 H 0.6432 -3.401 -0.2956 0
M  V30 37 H 1.5835 -1.9329 -0.2387 0
M  V30 38 H 3.1741 2.0292 0.4437 0
M  V30 39 H 2.1961 1.373 -3.706 0
M  V30 40 H 3.1336 -2.5253 1.2666 0
M  V30 41 H 2.6711 -2.8269 2.9352 0
M  V30 42 H 0.157 -3.5665 3.3365 0
M  V30 43 H -0.8026 -3.7989 1.8855 0
M  V30 44 H 4.3082 3.3254 -1.3558 0
M  V30 45 H 3.9096 3.0548 -3.0519 0
M  V30 46 H 4.9014 1.861 -2.1781 0
M  V30 47 H 3.1674 -5.0484 2.3183 0
M  V30 48 H 2.6734 -4.7943 0.6365 0
M  V30 49 H 0.9871 -5.6767 2.8635 0
M  V30 50 H 0.5969 -5.5626 1.1393 0
M  V30 END ATOM
M  V30 BEGIN BOND
M  V30 1 2 1 2
M  V30 2 1 2 3
M  V30 3 1 2 4
M  V30 4 2 4 5
M  V30 5 1 5 6
M  V30 6 2 6 7
M  V30 7 1 6 8
M  V30 8 1 7 9
M  V30 9 2 8 10
M  V30 10 1 9 11
M  V30 11 2 9 12
M  V30 12 1 11 13
M  V30 13 2 11 14
M  V30 14 2 13 15
M  V30 15 1 13 16
M  V30 16 1 14 17
M  V30 17 1 15 18
M  V30 18 2 16 19
M  V30 19 1 17 20
M  V30 20 2 18 21
M  V30 21 1 20 22
M  V30 22 1 20 23
M  V30 23 1 21 24
M  V30 24 1 22 25
M  V30 25 1 23 26
M  V30 26 1 10 12
M  V30 27 1 19 21
M  V30 28 1 25 26
M  V30 29 1 3 27
M  V30 30 1 4 28
M  V30 31 1 5 29
M  V30 32 1 8 30
M  V30 33 1 10 31
M  V30 34 1 12 32
M  V30 35 1 14 33
M  V30 36 1 15 34
M  V30 37 1 16 35
M  V30 38 1 17 36
M  V30 39 1 17 37
M  V30 40 1 18 38
M  V30 41 1 19 39
M  V30 42 1 22 40
M  V30 43 1 22 41
M  V30 44 1 23 42
M  V30 45 1 23 43
M  V30 46 1 24 44
M  V30 47 1 24 45
M  V30 48 1 24 46
M  V30 49 1 25 47
M  V30 50 1 25 48
M  V30 51 1 26 49
M  V30 52 1 26 50
M  V30 END BOND
M  V30 END CTAB
M  END
>  <NO.>
110

>  <Name>
acrivastine

>  <SMILES>
Cc1ccc(/C(=C\CN2CCCC2)c2cccc(/C=C/C(=O)O)n2)cc1

>  <logBB>
-1.14

>  <Class>
-1

>  <MW>
348.18

>  <nHBAcc>
3

>  <nHBDon>
1

>  <SLogP>
4.02

>  <TopoPSA>
53.43

>  <MMFF94 Energy>
7.9521

$$$$
CN(C)Cc1ccc(CSCCNC2N=CC=C2[N+](=O)[O-])o1
Actelion Java MolfileCreator 2.0

  0  0  0  0  0  0              0 V3000
M  V30 BEGIN CTAB
M  V30 COUNTS 42 43 0 0 0
M  V30 BEGIN ATOM
M  V30 1 S -0.6412 0.4007 0.7214 0
M  V30 2 C -0.2143 -0.6126 -0.729 0
M  V30 3 C -0.147 2.0247 0.0626 0
M  V30 4 C -0.4564 -2.052 -0.4638 0
M  V30 5 C -0.4667 3.1337 1.0728 0
M  V30 6 O 0.6464 -2.8533 -0.3952 0
M  V30 7 C -1.598 -2.8066 -0.2842 0
M  V30 8 N -0.0159 4.4327 0.5529 0
M  V30 9 C 0.2071 -4.1235 -0.1595 0
M  V30 10 C -1.1701 -4.1398 -0.0848 0
M  V30 11 C -0.2948 5.5157 1.4832 0 CFG=1
M  V30 12 C 1.2511 -5.1805 -0.0291 0
M  V30 13 N 0.9393 6.3493 1.493 0
M  V30 14 C -1.3126 6.4801 1.0258 0
M  V30 15 N 1.1068 -6.2491 -1.0372 0
M  V30 16 C 0.545 7.5093 1.0569 0
M  V30 17 N -2.7075 6.1845 1.0716 0 CHG=1
M  V30 18 C -0.8657 7.6989 0.7439 0
M  V30 19 C 1.9877 -7.369 -0.7028 0
M  V30 20 C 1.4236 -5.7533 -2.3798 0
M  V30 21 O -3.0629 5.2005 1.7296 0
M  V30 22 O -3.4755 6.9555 0.4791 0 CHG=-1
M  V30 23 H 0.838 -0.446 -0.981 0
M  V30 24 H -0.8237 -0.2911 -1.5798 0
M  V30 25 H -0.6824 2.2066 -0.8754 0
M  V30 26 H 0.9276 2.0022 -0.148 0
M  V30 27 H 0.036 2.9251 2.0255 0
M  V30 28 H -1.5467 3.1558 1.2519 0
M  V30 29 H -2.6131 -2.4348 -0.2911 0
M  V30 30 H 1.0031 4.413 0.4802 0
M  V30 31 H -1.7813 -5.0144 0.0881 0
M  V30 32 H -0.469 5.1786 2.5126 0
M  V30 33 H 2.2537 -4.7351 -0.0704 0
M  V30 34 H 1.1392 -5.6102 0.9751 0
M  V30 35 H 1.2296 8.3623 0.9334 0
M  V30 36 H -1.3696 8.6018 0.4584 0
M  V30 37 H 1.7292 -7.7835 0.278 0
M  V30 38 H 3.0437 -7.076 -0.6865 0
M  V30 39 H 1.8666 -8.1834 -1.4258 0
M  V30 40 H 2.4447 -5.3603 -2.4458 0
M  V30 41 H 0.729 -4.965 -2.6889 0
M  V30 42 H 1.3186 -6.557 -3.1175 0
M  V30 END ATOM
M  V30 BEGIN BOND
M  V30 1 1 1 2
M  V30 2 1 1 3
M  V30 3 1 2 4
M  V30 4 1 3 5
M  V30 5 1 4 6
M  V30 6 2 4 7
M  V30 7 1 5 8
M  V30 8 1 6 9
M  V30 9 1 7 10
M  V30 10 1 8 11
M  V30 11 1 9 12
M  V30 12 1 11 13
M  V30 13 1 11 14
M  V30 14 1 12 15
M  V30 15 2 13 16
M  V30 16 1 14 17
M  V30 17 2 14 18
M  V30 18 1 15 19
M  V30 19 1 15 20
M  V30 20 2 17 21
M  V30 21 1 17 22
M  V30 22 2 9 10
M  V30 23 1 16 18
M  V30 24 1 2 23
M  V30 25 1 2 24
M  V30 26 1 3 25
M  V30 27 1 3 26
M  V30 28 1 5 27
M  V30 29 1 5 28
M  V30 30 1 7 29
M  V30 31 1 8 30
M  V30 32 1 10 31
M  V30 33 1 11 32
M  V30 34 1 12 33
M  V30 35 1 12 34
M  V30 36 1 16 35
M  V30 37 1 18 36
M  V30 38 1 19 37
M  V30 39 1 19 38
M  V30 40 1 19 39
M  V30 41 1 20 40
M  V30 42 1 20 41
M  V30 43 1 20 42
M  V30 END BOND
M  V30 BEGIN COLLECTION
M  V30 MDLV30/STERAC1 ATOMS=(1 11)
M  V30 END COLLECTION
M  V30 END CTAB
M  END
>  <NO.>
111

>  <Name>
compound 35

>  <SMILES>
CN(C)Cc1ccc(CSCCNC2N=CC=C2[N+](=O)[O-])o1

>  <logBB>
-1.12

>  <Class>
-1

>  <MW>
324.13

>  <nHBAcc>
7

>  <nHBDon>
1

>  <SLogP>
1.74

>  <TopoPSA>
83.91

>  <MMFF94 Energy>
-0.025504

$$$$
CN(C)Cc1ccc(CSCCNc2[nH]ccc2[N+](=O)[O-])o1
Actelion Java MolfileCreator 2.0

  0  0  0  0  0  0              0 V3000
M  V30 BEGIN CTAB
M  V30 COUNTS 42 43 0 0 0
M  V30 BEGIN ATOM
M  V30 1 S -1.7547 0.6378 0.2391 0
M  V30 2 C -1.3009 -0.3322 -1.2372 0
M  V30 3 C -1.1127 2.2662 -0.2695 0
M  V30 4 C -1.6168 -1.7693 -1.0464 0
M  V30 5 C 0.4061 2.3733 -0.0987 0
M  V30 6 O -0.5575 -2.6284 -1.0731 0
M  V30 7 C -2.7885 -2.4743 -0.86 0
M  V30 8 N 0.8721 3.7077 -0.4484 0
M  V30 9 C -1.0499 -3.8856 -0.8749 0
M  V30 10 C -2.4232 -3.8369 -0.748 0
M  V30 11 C 0.8608 4.7941 0.3643 0
M  V30 12 C -0.0604 -5.0033 -0.8582 0
M  V30 13 N 0.4487 4.7197 1.6756 0
M  V30 14 C 1.2251 6.115 0.1297 0
M  V30 15 N 0.7273 -5.0665 0.3871 0
M  V30 16 C 0.5345 5.9512 2.2731 0
M  V30 17 N 1.722 6.6587 -1.1103 0 CHG=1
M  V30 18 C 1.0149 6.8398 1.3388 0
M  V30 19 C 1.8261 -6.0202 0.2347 0
M  V30 20 C -0.0993 -5.4354 1.537 0
M  V30 21 O 2.0058 7.8648 -1.1149 0
M  V30 22 O 1.8273 5.8918 -2.0793 0 CHG=-1
M  V30 23 H -0.2327 -0.2105 -1.4388 0
M  V30 24 H -1.857 0.0526 -2.098 0
M  V30 25 H -1.4084 2.4731 -1.3039 0
M  V30 26 H -1.6121 3.0148 0.3549 0
M  V30 27 H 0.7163 2.1086 0.9191 0
M  V30 28 H 0.907 1.6651 -0.7677 0
M  V30 29 H -3.7816 -2.0509 -0.8008 0
M  V30 30 H 1.2111 3.8148 -1.4102 0
M  V30 31 H -3.0772 -4.6821 -0.5873 0
M  V30 32 H -0.5749 -5.9556 -1.0422 0
M  V30 33 H 0.6151 -4.8437 -1.7091 0
M  V30 34 H 0.1323 3.8788 2.1371 0
M  V30 35 H 0.2497 6.0849 3.3087 0
M  V30 36 H 1.1981 7.8951 1.501 0
M  V30 37 H 2.4868 -5.7208 -0.5864 0
M  V30 38 H 1.4673 -7.0368 0.0366 0
M  V30 39 H 2.4455 -6.043 1.1384 0
M  V30 40 H -0.5935 -6.4038 1.3974 0
M  V30 41 H -0.8659 -4.6796 1.7366 0
M  V30 42 H 0.5113 -5.4922 2.4455 0
M  V30 END ATOM
M  V30 BEGIN BOND
M  V30 1 1 1 2
M  V30 2 1 1 3
M  V30 3 1 2 4
M  V30 4 1 3 5
M  V30 5 1 4 6
M  V30 6 2 4 7
M  V30 7 1 5 8
M  V30 8 1 6 9
M  V30 9 1 7 10
M  V30 10 1 8 11
M  V30 11 1 9 12
M  V30 12 1 11 13
M  V30 13 2 11 14
M  V30 14 1 12 15
M  V30 15 1 13 16
M  V30 16 1 14 17
M  V30 17 1 14 18
M  V30 18 1 15 19
M  V30 19 1 15 20
M  V30 20 2 17 21
M  V30 21 1 17 22
M  V30 22 2 9 10
M  V30 23 2 16 18
M  V30 24 1 2 23
M  V30 25 1 2 24
M  V30 26 1 3 25
M  V30 27 1 3 26
M  V30 28 1 5 27
M  V30 29 1 5 28
M  V30 30 1 7 29
M  V30 31 1 8 30
M  V30 32 1 10 31
M  V30 33 1 12 32
M  V30 34 1 12 33
M  V30 35 1 13 34
M  V30 36 1 16 35
M  V30 37 1 18 36
M  V30 38 1 19 37
M  V30 39 1 19 38
M  V30 40 1 19 39
M  V30 41 1 20 40
M  V30 42 1 20 41
M  V30 43 1 20 42
M  V30 END BOND
M  V30 END CTAB
M  END
>  <NO.>
112

>  <Name>
74188-86-6

>  <SMILES>
CN(C)Cc1ccc(CSCCNc2[nH]ccc2[N+](=O)[O-])o1

>  <logBB>
-1.12

>  <Class>
-1

>  <MW>
324.13

>  <nHBAcc>
6

>  <nHBDon>
2

>  <SLogP>
2.92

>  <TopoPSA>
87.34

>  <MMFF94 Energy>
103.39

$$$$
CN(C)Cc1ccc(SCCNc2[nH]ccc2[N+](=O)[O-])o1
Actelion Java MolfileCreator 2.0

  0  0  0  0  0  0              0 V3000
M  V30 BEGIN CTAB
M  V30 COUNTS 39 40 0 0 0
M  V30 BEGIN ATOM
M  V30 1 S 1.1179 3.0367 -0.8783 0
M  V30 2 C 2.0229 1.5571 -0.9823 0
M  V30 3 C 0.5914 3.012 0.8707 0
M  V30 4 O 1.4089 0.3702 -1.2542 0
M  V30 5 C 3.3765 1.3482 -0.8192 0
M  V30 6 C 0.0787 1.6787 1.4302 0
M  V30 7 C 2.3664 -0.5986 -1.2619 0
M  V30 8 C 3.598 -0.0408 -0.9913 0
M  V30 9 N -0.9529 1.0718 0.6076 0
M  V30 10 C 1.906 -1.9861 -1.5574 0
M  V30 11 C -2.2863 1.2982 0.6708 0
M  V30 12 N 1.9218 -2.8511 -0.3613 0
M  V30 13 N -2.8376 2.1545 1.5947 0
M  V30 14 C -3.3343 0.7933 -0.0897 0
M  V30 15 C 1.7303 -4.2467 -0.7635 0
M  V30 16 C 0.8604 -2.4651 0.5754 0
M  V30 17 C -4.1981 2.2183 1.4352 0
M  V30 18 N -3.2332 -0.1571 -1.1705 0 CHG=1
M  V30 19 C -4.5381 1.3836 0.3955 0
M  V30 20 O -2.1216 -0.6475 -1.4162 0
M  V30 21 O -4.2834 -0.4258 -1.7716 0 CHG=-1
M  V30 22 H 1.4365 3.351 1.4799 0
M  V30 23 H -0.1932 3.7703 0.9685 0
M  V30 24 H 4.115 2.1063 -0.6009 0
M  V30 25 H 0.9134 0.9735 1.5139 0
M  V30 26 H -0.2731 1.822 2.4589 0
M  V30 27 H 4.535 -0.5764 -0.931 0
M  V30 28 H -0.5792 0.4925 -0.1568 0
M  V30 29 H 0.9109 -1.9685 -2.0211 0
M  V30 30 H 2.5943 -2.3926 -2.3103 0
M  V30 31 H -2.317 2.6693 2.2888 0
M  V30 32 H 2.5385 -4.5701 -1.4289 0
M  V30 33 H 0.7751 -4.4038 -1.278 0
M  V30 34 H 1.7645 -4.9072 0.1101 0
M  V30 35 H -0.1346 -2.5057 0.1176 0
M  V30 36 H 1.0237 -1.4551 0.9634 0
M  V30 37 H 0.8621 -3.1281 1.4483 0
M  V30 38 H -4.8025 2.8493 2.0738 0
M  V30 39 H -5.5397 1.2094 0.0217 0
M  V30 END ATOM
M  V30 BEGIN BOND
M  V30 1 1 1 2
M  V30 2 1 1 3
M  V30 3 1 2 4
M  V30 4 2 2 5
M  V30 5 1 3 6
M  V30 6 1 4 7
M  V30 7 1 5 8
M  V30 8 1 6 9
M  V30 9 1 7 10
M  V30 10 1 9 11
M  V30 11 1 10 12
M  V30 12 1 11 13
M  V30 13 2 11 14
M  V30 14 1 12 15
M  V30 15 1 12 16
M  V30 16 1 13 17
M  V30 17 1 14 18
M  V30 18 1 14 19
M  V30 19 2 18 20
M  V30 20 1 18 21
M  V30 21 2 7 8
M  V30 22 2 17 19
M  V30 23 1 3 22
M  V30 24 1 3 23
M  V30 25 1 5 24
M  V30 26 1 6 25
M  V30 27 1 6 26
M  V30 28 1 8 27
M  V30 29 1 9 28
M  V30 30 1 10 29
M  V30 31 1 10 30
M  V30 32 1 13 31
M  V30 33 1 15 32
M  V30 34 1 15 33
M  V30 35 1 15 34
M  V30 36 1 16 35
M  V30 37 1 16 36
M  V30 38 1 16 37
M  V30 39 1 17 38
M  V30 40 1 19 39
M  V30 END BOND
M  V30 END CTAB
M  END
>  <NO.>
113

>  <Name>
bbcpd17

>  <SMILES>
CN(C)Cc1ccc(SCCNc2[nH]ccc2[N+](=O)[O-])o1

>  <logBB>
-1.12

>  <Class>
-1

>  <MW>
310.11

>  <nHBAcc>
6

>  <nHBDon>
2

>  <SLogP>
2.78

>  <TopoPSA>
87.34

>  <MMFF94 Energy>
83.659

$$$$
CCN1CCCC1CNC(=O)c1cc(S(N)(=O)=O)ccc1OC
Actelion Java MolfileCreator 2.0

  0  0  0  0  0  0              0 V3000
M  V30 BEGIN CTAB
M  V30 COUNTS 46 47 0 0 0
M  V30 BEGIN ATOM
M  V30 1 S 2.1591 3.7608 -4.3219 0
M  V30 2 O 1.9524 5.1905 -4.2938 0
M  V30 3 O 1.8809 2.9583 -5.488 0
M  V30 4 N 3.7817 3.536 -3.9595 0
M  V30 5 C 1.3605 3.0324 -2.9241 0
M  V30 6 C 1.4824 1.6589 -2.7096 0
M  V30 7 C 0.6055 3.8186 -2.0583 0
M  V30 8 C 0.8537 1.0517 -1.607 0
M  V30 9 C -0.0271 3.225 -0.9626 0
M  V30 10 C 0.0879 1.8461 -0.7221 0
M  V30 11 C 1.066 -0.4294 -1.467 0
M  V30 12 O -0.5122 1.2209 0.34 0
M  V30 13 O 1.8028 -1.0235 -2.2499 0
M  V30 14 N 0.411 -1.072 -0.4515 0
M  V30 15 C -1.2786 2.0023 1.2479 0
M  V30 16 C 0.4847 -2.5005 -0.2225 0
M  V30 17 C 0.0612 -2.8659 1.2131 0 CFG=2
M  V30 18 N -1.1398 -2.1393 1.6939 0
M  V30 19 C 1.1376 -2.4881 2.2401 0
M  V30 20 C -1.0794 -2.242 3.1543 0
M  V30 21 C -2.3808 -2.6792 1.1302 0
M  V30 22 C 0.3805 -1.9537 3.4485 0
M  V30 23 C -3.5959 -1.8389 1.5068 0
M  V30 24 H 4.2463 4.4393 -3.8644 0
M  V30 25 H 4.2119 2.9203 -4.6506 0
M  V30 26 H 2.0687 1.0565 -3.4025 0
M  V30 27 H 0.5005 4.8889 -2.2249 0
M  V30 28 H -0.6069 3.8728 -0.3118 0
M  V30 29 H -0.2193 -0.5489 0.153 0
M  V30 30 H -0.6571 2.7562 1.7415 0
M  V30 31 H -1.6641 1.3311 2.0214 0
M  V30 32 H -2.1373 2.4597 0.746 0
M  V30 33 H 1.5006 -2.8522 -0.4333 0
M  V30 34 H -0.186 -2.97 -0.9502 0
M  V30 35 H -0.096 -3.952 1.2721 0
M  V30 36 H 1.7284 -3.3697 2.5132 0
M  V30 37 H 1.8336 -1.726 1.8719 0
M  V30 38 H -1.3415 -3.2493 3.5016 0
M  V30 39 H -1.7277 -1.516 3.6543 0
M  V30 40 H -2.3168 -2.6782 0.0361 0
M  V30 41 H -2.5413 -3.719 1.4408 0
M  V30 42 H 0.7124 -2.4199 4.3813 0
M  V30 43 H 0.545 -0.8727 3.536 0
M  V30 44 H -4.4836 -2.2118 0.9852 0
M  V30 45 H -3.4548 -0.7911 1.221 0
M  V30 46 H -3.8026 -1.8808 2.5806 0
M  V30 END ATOM
M  V30 BEGIN BOND
M  V30 1 2 1 2
M  V30 2 2 1 3
M  V30 3 1 1 4
M  V30 4 1 1 5
M  V30 5 2 5 6
M  V30 6 1 5 7
M  V30 7 1 6 8
M  V30 8 2 7 9
M  V30 9 2 8 10
M  V30 10 1 8 11
M  V30 11 1 10 12
M  V30 12 2 11 13
M  V30 13 1 11 14
M  V30 14 1 12 15
M  V30 15 1 14 16
M  V30 16 1 16 17
M  V30 17 1 17 18
M  V30 18 1 17 19
M  V30 19 1 18 20
M  V30 20 1 18 21
M  V30 21 1 19 22
M  V30 22 1 21 23
M  V30 23 1 9 10
M  V30 24 1 20 22
M  V30 25 1 4 24
M  V30 26 1 4 25
M  V30 27 1 6 26
M  V30 28 1 7 27
M  V30 29 1 9 28
M  V30 30 1 14 29
M  V30 31 1 15 30
M  V30 32 1 15 31
M  V30 33 1 15 32
M  V30 34 1 16 33
M  V30 35 1 16 34
M  V30 36 1 17 35
M  V30 37 1 19 36
M  V30 38 1 19 37
M  V30 39 1 20 38
M  V30 40 1 20 39
M  V30 41 1 21 40
M  V30 42 1 21 41
M  V30 43 1 22 42
M  V30 44 1 22 43
M  V30 45 1 23 44
M  V30 46 1 23 45
M  V30 47 1 23 46
M  V30 END BOND
M  V30 BEGIN COLLECTION
M  V30 MDLV30/STERAC1 ATOMS=(1 17)
M  V30 END COLLECTION
M  V30 END CTAB
M  END
>  <NO.>
114

>  <Name>
sulpiride

>  <SMILES>
CCN1CCCC1CNC(=O)c1cc(S(N)(=O)=O)ccc1OC

>  <logBB>
-1.11

>  <Class>
-1

>  <MW>
341.14

>  <nHBAcc>
5

>  <nHBDon>
2

>  <SLogP>
0.56

>  <TopoPSA>
101.73

>  <MMFF94 Energy>
-44.885

$$$$
O=C(O)c1ccccc1O
Actelion Java MolfileCreator 2.0

  0  0  0  0  0  0              0 V3000
M  V30 BEGIN CTAB
M  V30 COUNTS 16 16 0 0 0
M  V30 BEGIN ATOM
M  V30 1 O 0.0785 -1.0216 -2.6735 0
M  V30 2 C 0.0879 0.0059 -2.0158 0
M  V30 3 O 0.177 1.2151 -2.5939 0
M  V30 4 C 0.0048 0.0517 -0.5397 0
M  V30 5 C -0.0921 -1.1451 0.1843 0
M  V30 6 C 0.0211 1.2717 0.1517 0
M  V30 7 O -0.1156 -2.3839 -0.4007 0
M  V30 8 C -0.1715 -1.1239 1.5759 0
M  V30 9 C -0.0585 1.2899 1.5467 0
M  V30 10 C -0.1547 0.0934 2.2569 0
M  V30 11 H 0.2238 1.0273 -3.5548 0
M  V30 12 H 0.0955 2.2144 -0.3851 0
M  V30 13 H -0.0544 -2.2751 -1.3745 0
M  V30 14 H -0.2465 -2.0572 2.1281 0
M  V30 15 H -0.0455 2.2379 2.0794 0
M  V30 16 H -0.2168 0.1073 3.3424 0
M  V30 END ATOM
M  V30 BEGIN BOND
M  V30 1 2 1 2
M  V30 2 1 2 3
M  V30 3 1 2 4
M  V30 4 2 4 5
M  V30 5 1 4 6
M  V30 6 1 5 7
M  V30 7 1 5 8
M  V30 8 2 6 9
M  V30 9 2 8 10
M  V30 10 1 9 10
M  V30 11 1 3 11
M  V30 12 1 6 12
M  V30 13 1 7 13
M  V30 14 1 8 14
M  V30 15 1 9 15
M  V30 16 1 10 16
M  V30 END BOND
M  V30 END CTAB
M  END
>  <NO.>
115

>  <Name>
salicylic acid (2-hydroxybenzoic acid)

>  <SMILES>
O=C(O)c1ccccc1O

>  <logBB>
-1.1

>  <Class>
-1

>  <MW>
138.03

>  <nHBAcc>
2

>  <nHBDon>
2

>  <SLogP>
1.09

>  <TopoPSA>
57.53

>  <MMFF94 Energy>
8.8294

$$$$
CCn1cc(C(=O)O)c(=O)c2cc(F)c(N3CCNCC3)cc21
Actelion Java MolfileCreator 2.0

  0  0  0  0  0  0              0 V3000
M  V30 BEGIN CTAB
M  V30 COUNTS 41 43 0 0 0
M  V30 BEGIN ATOM
M  V30 1 F 2.1609 -1.3601 -2.3211 0
M  V30 2 C 1.145 -0.7092 -1.7308 0
M  V30 3 C 0.9064 -0.863 -0.3536 0
M  V30 4 C 0.3837 0.1399 -2.5228 0
M  V30 5 N 1.6815 -1.711 0.4341 0
M  V30 6 C -0.1469 -0.0998 0.1934 0
M  V30 7 C -0.6533 0.8764 -1.9455 0
M  V30 8 C 1.8126 -1.5047 1.8852 0
M  V30 9 C 1.8459 -3.1118 -0.0043 0
M  V30 10 C -0.9491 0.7744 -0.5709 0
M  V30 11 C -1.4547 1.7738 -2.8181 0
M  V30 12 C 3.0944 -2.1784 2.4258 0
M  V30 13 C 3.125 -3.7329 0.5993 0
M  V30 14 N -2.0132 1.5347 -0.031 0
M  V30 15 O -1.2671 1.7714 -4.0301 0
M  V30 16 C -2.4829 2.615 -2.1687 0
M  V30 17 N 3.2078 -3.604 2.0676 0
M  V30 18 C -2.689 2.4232 -0.8575 0
M  V30 19 C -2.3654 1.4226 1.3958 0
M  V30 20 C -3.298 3.6311 -2.8455 0
M  V30 21 C -1.5013 2.3414 2.2483 0
M  V30 22 O -4.3889 4.032 -2.4708 0
M  V30 23 O -2.7056 4.1669 -3.9222 0
M  V30 24 H 0.614 0.2258 -3.5809 0
M  V30 25 H -0.3484 -0.2163 1.2517 0
M  V30 26 H 1.8747 -0.435 2.1202 0
M  V30 27 H 0.9349 -1.9179 2.3978 0
M  V30 28 H 1.9046 -3.2126 -1.092 0
M  V30 29 H 0.9697 -3.6872 0.3218 0
M  V30 30 H 3.1095 -2.0891 3.5176 0
M  V30 31 H 3.9741 -1.6414 2.0485 0
M  V30 32 H 3.1603 -4.7967 0.3405 0
M  V30 33 H 4.0068 -3.2623 0.1459 0
M  V30 34 H 4.115 -3.9515 2.3761 0
M  V30 35 H -3.4458 3.0063 -0.3337 0
M  V30 36 H -2.3126 0.3869 1.7491 0
M  V30 37 H -3.4158 1.7099 1.5383 0
M  V30 38 H -1.6154 3.3856 1.9382 0
M  V30 39 H -0.4399 2.0869 2.1732 0
M  V30 40 H -1.794 2.2661 3.3002 0
M  V30 41 H -3.3545 4.8059 -4.2791 0
M  V30 END ATOM
M  V30 BEGIN BOND
M  V30 1 1 1 2
M  V30 2 2 2 3
M  V30 3 1 2 4
M  V30 4 1 3 5
M  V30 5 1 3 6
M  V30 6 2 4 7
M  V30 7 1 5 8
M  V30 8 1 5 9
M  V30 9 2 6 10
M  V30 10 1 7 11
M  V30 11 1 8 12
M  V30 12 1 9 13
M  V30 13 1 10 14
M  V30 14 2 11 15
M  V30 15 1 11 16
M  V30 16 1 12 17
M  V30 17 1 14 18
M  V30 18 1 14 19
M  V30 19 1 16 20
M  V30 20 1 19 21
M  V30 21 2 20 22
M  V30 22 1 20 23
M  V30 23 1 7 10
M  V30 24 1 13 17
M  V30 25 2 16 18
M  V30 26 1 4 24
M  V30 27 1 6 25
M  V30 28 1 8 26
M  V30 29 1 8 27
M  V30 30 1 9 28
M  V30 31 1 9 29
M  V30 32 1 12 30
M  V30 33 1 12 31
M  V30 34 1 13 32
M  V30 35 1 13 33
M  V30 36 1 17 34
M  V30 37 1 18 35
M  V30 38 1 19 36
M  V30 39 1 19 37
M  V30 40 1 21 38
M  V30 41 1 21 39
M  V30 42 1 21 40
M  V30 43 1 23 41
M  V30 END BOND
M  V30 END CTAB
M  END
>  <NO.>
116

>  <Name>
norfloxacin

>  <SMILES>
CCn1cc(C(=O)O)c(=O)c2cc(F)c(N3CCNCC3)cc21

>  <logBB>
-1.1

>  <Class>
-1

>  <MW>
319.13

>  <nHBAcc>
4

>  <nHBDon>
2

>  <SLogP>
1.27

>  <TopoPSA>
74.57

>  <MMFF94 Energy>
115.76

$$$$
CC(C)CC1C(=O)N2CCCC2C2(O)OC(NC(=O)C3C=C4c5cccc6[nH]c(Br)c(c56)CC4N(C)C3)(C(C)C)C(=O)N12
Actelion Java MolfileCreator 2.0

  0  0  0  0  0  0              0 V3000
M  V30 BEGIN CTAB
M  V30 COUNTS 83 89 0 0 0
M  V30 BEGIN ATOM
M  V30 1 Br -5.9968 7.4596 1.5371 0
M  V30 2 C -4.8741 6.5369 0.3182 0
M  V30 3 N -4.7853 6.8126 -1.0232 0
M  V30 4 C -4.0204 5.5018 0.6046 0
M  V30 5 C -3.8755 5.9677 -1.6207 0
M  V30 6 C -3.3927 5.1489 -0.6117 0
M  V30 7 C -3.663 4.7661 1.8507 0
M  V30 8 C -3.4327 5.8437 -2.9389 0
M  V30 9 C -2.4349 4.1573 -0.8611 0
M  V30 10 C -3.0683 3.3442 1.5165 0
M  V30 11 C -2.4781 4.8464 -3.195 0
M  V30 12 C -2.0442 3.3799 0.337 0
M  V30 13 C -1.9855 4.0148 -2.1789 0
M  V30 14 N -2.5087 2.7216 2.7575 0
M  V30 15 C -0.8514 2.7587 0.3991 0
M  V30 16 C -1.7042 1.5302 2.4182 0
M  V30 17 C -3.5696 2.3382 3.6942 0
M  V30 18 C -0.4681 1.923 1.5933 0
M  V30 19 C 0.2656 0.6679 1.1112 0
M  V30 20 O -0.281 -0.4209 0.9589 0
M  V30 21 N 1.5948 0.8851 0.8215 0
M  V30 22 C 2.5156 -0.1439 0.3572 0
M  V30 23 O 2.6552 -1.1328 1.3907 0
M  V30 24 C 1.9892 -0.9054 -0.8731 0
M  V30 25 C 3.9163 0.4884 0.0975 0
M  V30 26 C 2.1 -2.3593 0.9193 0
M  V30 27 O 1.7589 -0.4591 -1.985 0
M  V30 28 N 1.7997 -2.196 -0.4577 0
M  V30 29 C 5.0111 -0.5471 -0.1849 0
M  V30 30 C 3.9197 1.5473 -1.013 0
M  V30 31 O 0.9068 -2.6409 1.6084 0
M  V30 32 C 3.0987 -3.5239 1.0591 0
M  V30 33 C 1.3779 -3.3242 -1.293 0
M  V30 34 N 2.6618 -4.7262 0.3488 0
M  V30 35 C 3.3655 -4.0324 2.4748 0
M  V30 36 C 1.8845 -4.7162 -0.7901 0
M  V30 37 C -0.16 -3.3314 -1.4204 0
M  V30 38 C 3.0407 -5.935 1.0507 0
M  V30 39 C 3.8956 -5.4438 2.2147 0
M  V30 40 O 1.5954 -5.7609 -1.3737 0
M  V30 41 C -0.6995 -3.9415 -2.7308 0
M  V30 42 C -2.2158 -4.1304 -2.6248 0
M  V30 43 C -0.3803 -3.0677 -3.9463 0
M  V30 44 H -5.3098 7.5326 -1.498 0
M  V30 45 H -4.5554 4.6641 2.4775 0
M  V30 46 H -2.9253 5.3566 2.4089 0
M  V30 47 H -3.8068 6.4796 -3.7338 0
M  V30 48 H -3.8965 2.714 1.1543 0
M  V30 49 H -2.1136 4.7116 -4.2118 0
M  V30 50 H -1.2607 3.2468 -2.4348 0
M  V30 51 H -0.1338 2.8383 -0.4119 0
M  V30 52 H -2.3224 0.7909 1.8894 0
M  V30 53 H -1.352 1.0432 3.3374 0
M  V30 54 H -3.1413 1.8625 4.5841 0
M  V30 55 H -4.2857 1.64 3.2463 0
M  V30 56 H -4.116 3.2125 4.0599 0
M  V30 57 H 0.2188 2.5064 2.2206 0
M  V30 58 H 1.978 1.7984 1.0217 0
M  V30 59 H 4.2183 0.9972 1.0247 0
M  V30 60 H 5.1584 -1.2074 0.6745 0
M  V30 61 H 4.7729 -1.1605 -1.0594 0
M  V30 62 H 5.9704 -0.0533 -0.3752 0
M  V30 63 H 4.8825 2.0703 -1.0339 0
M  V30 64 H 3.7733 1.1012 -2.0011 0
M  V30 65 H 3.1443 2.3034 -0.8589 0
M  V30 66 H 0.2712 -1.9783 1.2666 0
M  V30 67 H 4.0557 -3.2441 0.6004 0
M  V30 68 H 1.8414 -3.1597 -2.2709 0
M  V30 69 H 4.0808 -3.4076 3.017 0
M  V30 70 H 2.4429 -4.0932 3.0635 0
M  V30 71 H -0.5481 -2.3072 -1.3374 0
M  V30 72 H -0.5808 -3.8805 -0.5673 0
M  V30 73 H 2.1262 -6.4264 1.3999 0
M  V30 74 H 3.5759 -6.6161 0.3829 0
M  V30 75 H 4.9478 -5.3918 1.9098 0
M  V30 76 H 3.8261 -6.0941 3.091 0
M  V30 77 H -0.2539 -4.929 -2.8906 0
M  V30 78 H -2.4681 -4.7905 -1.7881 0
M  V30 79 H -2.7263 -3.1738 -2.4687 0
M  V30 80 H -2.6167 -4.5838 -3.5376 0
M  V30 81 H 0.6965 -2.9975 -4.1216 0
M  V30 82 H -0.7706 -2.0521 -3.8188 0
M  V30 83 H -0.8283 -3.4883 -4.8532 0
M  V30 END ATOM
M  V30 BEGIN BOND
M  V30 1 1 1 2
M  V30 2 1 2 3
M  V30 3 2 2 4
M  V30 4 1 3 5
M  V30 5 1 4 6
M  V30 6 1 4 7
M  V30 7 1 5 8
M  V30 8 1 6 9
M  V30 9 1 7 10
M  V30 10 2 8 11
M  V30 11 1 9 12
M  V30 12 2 9 13
M  V30 13 1 10 14
M  V30 14 2 12 15
M  V30 15 1 14 16
M  V30 16 1 14 17
M  V30 17 1 15 18
M  V30 18 1 18 19
M  V30 19 2 19 20
M  V30 20 1 19 21
M  V30 21 1 21 22
M  V30 22 1 22 23
M  V30 23 1 22 24
M  V30 24 1 22 25
M  V30 25 1 23 26
M  V30 26 2 24 27
M  V30 27 1 24 28
M  V30 28 1 25 29
M  V30 29 1 25 30
M  V30 30 1 26 31
M  V30 31 1 26 32
M  V30 32 1 28 33
M  V30 33 1 32 34
M  V30 34 1 32 35
M  V30 35 1 33 36
M  V30 36 1 33 37
M  V30 37 1 34 38
M  V30 38 1 35 39
M  V30 39 2 36 40
M  V30 40 1 37 41
M  V30 41 1 41 42
M  V30 42 1 41 43
M  V30 43 2 5 6
M  V30 44 1 10 12
M  V30 45 1 11 13
M  V30 46 1 16 18
M  V30 47 1 26 28
M  V30 48 1 34 36
M  V30 49 1 38 39
M  V30 50 1 3 44
M  V30 51 1 7 45
M  V30 52 1 7 46
M  V30 53 1 8 47
M  V30 54 1 10 48
M  V30 55 1 11 49
M  V30 56 1 13 50
M  V30 57 1 15 51
M  V30 58 1 16 52
M  V30 59 1 16 53
M  V30 60 1 17 54
M  V30 61 1 17 55
M  V30 62 1 17 56
M  V30 63 1 18 57
M  V30 64 1 21 58
M  V30 65 1 25 59
M  V30 66 1 29 60
M  V30 67 1 29 61
M  V30 68 1 29 62
M  V30 69 1 30 63
M  V30 70 1 30 64
M  V30 71 1 30 65
M  V30 72 1 31 66
M  V30 73 1 32 67
M  V30 74 1 33 68
M  V30 75 1 35 69
M  V30 76 1 35 70
M  V30 77 1 37 71
M  V30 78 1 37 72
M  V30 79 1 38 73
M  V30 80 1 38 74
M  V30 81 1 39 75
M  V30 82 1 39 76
M  V30 83 1 41 77
M  V30 84 1 42 78
M  V30 85 1 42 79
M  V30 86 1 42 80
M  V30 87 1 43 81
M  V30 88 1 43 82
M  V30 89 1 43 83
M  V30 END BOND
M  V30 END CTAB
M  END
>  <NO.>
117

>  <Name>
bromocriptine

>  <SMILES>
CC(C)CC1C(=O)N2CCCC2C2(O)OC(NC(=O)C3C=C4c5cccc6[nH]c(Br)c(c56)CC4N(C)C3)(C(C)C)C(=O)N12

>  <logBB>
-1.1

>  <Class>
-1

>  <MW>
653.22

>  <nHBAcc>
6

>  <nHBDon>
3

>  <SLogP>
3.19

>  <TopoPSA>
118.21

>  <MMFF94 Energy>
92.089

$$$$
CN1CC(C(=O)NC2(C)OC3(O)C4CCCN4C(=O)C(Cc4ccccc4)N3C2=O)CC2C3=CC=CC4NC=CC(=C34)CC21
Actelion Java MolfileCreator 2.0

  0  0  0  0  0  0              0 V3000
M  V30 BEGIN CTAB
M  V30 COUNTS 83 90 0 0 0
M  V30 BEGIN ATOM
M  V30 1 O -6.551 -2.665 -2.7458 0
M  V30 2 C -5.7713 -2.099 -1.979 0
M  V30 3 N -6.1198 -0.9348 -1.3236 0
M  V30 4 C -4.3063 -2.5937 -1.8055 0
M  V30 5 C -5.2934 -0.2737 -0.311 0
M  V30 6 C -7.3446 -0.2041 -1.579 0
M  V30 7 N -3.5749 -1.8761 -0.7643 0
M  V30 8 C -3.6193 -2.4831 -3.1882 0
M  V30 9 C -3.7845 -0.4931 -0.5291 0
M  V30 10 C -5.8022 1.1648 -0.3439 0
M  V30 11 C -7.2986 0.9669 -0.6008 0
M  V30 12 C -2.6595 -2.3962 0.1094 0
M  V30 13 C -2.1278 -2.7405 -3.2037 0
M  V30 14 O -3.0392 -0.1633 0.6285 0
M  V30 15 O -3.2684 0.2262 -1.6212 0
M  V30 16 O -2.3143 -3.5628 0.1992 0
M  V30 17 C -2.0593 -1.191 0.8375 0
M  V30 18 C -1.2362 -1.7076 -3.5296 0
M  V30 19 C -1.6116 -4.0044 -2.8954 0
M  V30 20 N -0.8269 -0.8412 0.1594 0
M  V30 21 C -1.8871 -1.4749 2.3202 0
M  V30 22 C 0.1412 -1.9324 -3.5401 0
M  V30 23 C -0.2329 -4.2256 -2.8969 0
M  V30 24 C -0.0661 0.2575 0.4663 0
M  V30 25 C 0.643 -3.1912 -3.2199 0
M  V30 26 O -0.4192 1.1001 1.286 0
M  V30 27 C 1.2089 0.3914 -0.3725 0
M  V30 28 C 2.153 -0.8067 -0.2152 0
M  V30 29 C 1.9454 1.7087 -0.098 0
M  V30 30 N 2.8706 -0.8225 1.0715 0
M  V30 31 C 2.7307 1.6691 1.2297 0
M  V30 32 C 3.6704 0.4231 1.2357 0
M  V30 33 C 3.6851 -2.0373 1.1596 0
M  V30 34 C 3.4659 2.9756 1.5238 0
M  V30 35 C 4.5417 0.4523 2.5163 0
M  V30 36 C 4.8236 2.8959 2.0701 0
M  V30 37 C 2.8724 4.1858 1.4407 0
M  V30 38 C 5.2896 1.7536 2.6206 0
M  V30 39 C 5.6528 4.1839 2.0762 0
M  V30 40 C 3.5123 5.4056 1.8898 0
M  V30 41 C 6.5426 1.774 3.3617 0
M  V30 42 N 6.6488 4.137 3.1378 0
M  V30 43 C 4.8154 5.4199 2.2104 0
M  V30 44 C 7.1361 2.948 3.6206 0
M  V30 45 H -4.3479 -3.6481 -1.5065 0
M  V30 46 H -5.5816 -0.7267 0.6489 0
M  V30 47 H -8.2153 -0.8498 -1.4322 0
M  V30 48 H -7.3264 0.136 -2.6198 0
M  V30 49 H -4.0928 -3.1853 -3.8878 0
M  V30 50 H -3.8155 -1.4897 -3.6141 0
M  V30 51 H -5.3636 1.7293 -1.1746 0
M  V30 52 H -5.6026 1.7037 0.5863 0
M  V30 53 H -7.7856 1.8629 -0.9955 0
M  V30 54 H -7.7996 0.6909 0.3349 0
M  V30 55 H -3.087 1.1058 -1.2474 0
M  V30 56 H -1.6137 -0.7173 -3.778 0
M  V30 57 H -2.2778 -4.8241 -2.6342 0
M  V30 58 H -0.5289 -1.4672 -0.5803 0
M  V30 59 H -1.1247 -2.241 2.4964 0
M  V30 60 H -1.6037 -0.5737 2.8733 0
M  V30 61 H -2.8283 -1.825 2.7596 0
M  V30 62 H 0.8199 -1.1269 -3.8075 0
M  V30 63 H 0.1543 -5.21 -2.6464 0
M  V30 64 H 1.7144 -3.3722 -3.2313 0
M  V30 65 H 0.8664 0.4199 -1.4163 0
M  V30 66 H 2.8763 -0.7929 -1.0427 0
M  V30 67 H 1.5872 -1.7393 -0.3206 0
M  V30 68 H 1.2244 2.534 -0.1072 0
M  V30 69 H 2.645 1.9008 -0.923 0
M  V30 70 H 2.0155 1.5385 2.0556 0
M  V30 71 H 4.3559 0.5022 0.3766 0
M  V30 72 H 3.0771 -2.9272 0.959 0
M  V30 73 H 4.5194 -2.0267 0.4495 0
M  V30 74 H 4.0796 -2.1765 2.1708 0
M  V30 75 H 3.9278 0.3037 3.4134 0
M  V30 76 H 5.2718 -0.3643 2.4755 0
M  V30 77 H 1.8387 4.2842 1.121 0
M  V30 78 H 6.1878 4.2489 1.1191 0
M  V30 79 H 2.9048 6.3017 1.968 0
M  V30 80 H 6.9445 0.8485 3.7581 0
M  V30 81 H 7.154 4.9847 3.3596 0
M  V30 82 H 5.2864 6.3417 2.5293 0
M  V30 83 H 8.0325 3.0241 4.2283 0
M  V30 END ATOM
M  V30 BEGIN BOND
M  V30 1 2 1 2
M  V30 2 1 2 3
M  V30 3 1 2 4
M  V30 4 1 3 5
M  V30 5 1 3 6
M  V30 6 1 4 7
M  V30 7 1 4 8
M  V30 8 1 5 9
M  V30 9 1 5 10
M  V30 10 1 6 11
M  V30 11 1 7 12
M  V30 12 1 8 13
M  V30 13 1 9 14
M  V30 14 1 9 15
M  V30 15 2 12 16
M  V30 16 1 12 17
M  V30 17 2 13 18
M  V30 18 1 13 19
M  V30 19 1 17 20
M  V30 20 1 17 21
M  V30 21 1 18 22
M  V30 22 2 19 23
M  V30 23 1 20 24
M  V30 24 2 22 25
M  V30 25 2 24 26
M  V30 26 1 24 27
M  V30 27 1 27 28
M  V30 28 1 27 29
M  V30 29 1 28 30
M  V30 30 1 29 31
M  V30 31 1 30 32
M  V30 32 1 30 33
M  V30 33 1 31 34
M  V30 34 1 32 35
M  V30 35 1 34 36
M  V30 36 2 34 37
M  V30 37 1 35 38
M  V30 38 1 36 39
M  V30 39 1 37 40
M  V30 40 1 38 41
M  V30 41 1 39 42
M  V30 42 1 39 43
M  V30 43 2 41 44
M  V30 44 1 7 9
M  V30 45 1 10 11
M  V30 46 1 14 17
M  V30 47 1 23 25
M  V30 48 1 31 32
M  V30 49 2 36 38
M  V30 50 2 40 43
M  V30 51 1 42 44
M  V30 52 1 4 45
M  V30 53 1 5 46
M  V30 54 1 6 47
M  V30 55 1 6 48
M  V30 56 1 8 49
M  V30 57 1 8 50
M  V30 58 1 10 51
M  V30 59 1 10 52
M  V30 60 1 11 53
M  V30 61 1 11 54
M  V30 62 1 15 55
M  V30 63 1 18 56
M  V30 64 1 19 57
M  V30 65 1 20 58
M  V30 66 1 21 59
M  V30 67 1 21 60
M  V30 68 1 21 61
M  V30 69 1 22 62
M  V30 70 1 23 63
M  V30 71 1 25 64
M  V30 72 1 27 65
M  V30 73 1 28 66
M  V30 74 1 28 67
M  V30 75 1 29 68
M  V30 76 1 29 69
M  V30 77 1 31 70
M  V30 78 1 32 71
M  V30 79 1 33 72
M  V30 80 1 33 73
M  V30 81 1 33 74
M  V30 82 1 35 75
M  V30 83 1 35 76
M  V30 84 1 37 77
M  V30 85 1 39 78
M  V30 86 1 40 79
M  V30 87 1 41 80
M  V30 88 1 42 81
M  V30 89 1 43 82
M  V30 90 1 44 83
M  V30 END BOND
M  V30 END CTAB
M  END
>  <NO.>
119

>  <Name>
ergotamine

>  <SMILES>
CN1CC(C(=O)NC2(C)OC3(O)C4CCCN4C(=O)C(Cc4ccccc4)N3C2=O)CC2C3=CC=CC4NC=CC(=C34)CC21

>  <logBB>
-1.1

>  <Class>
-1

>  <MW>
597.3

>  <nHBAcc>
7

>  <nHBDon>
3

>  <SLogP>
1.56

>  <TopoPSA>
114.45

>  <MMFF94 Energy>
85.977

$$$$
Cc1ccc(Cc2cnc(NCCSCc3ccc(CN(C)C)o3)[nH]c2=O)cn1
Actelion Java MolfileCreator 2.0

  0  0  0  0  0  0              0 V3000
M  V30 BEGIN CTAB
M  V30 COUNTS 56 58 0 0 0
M  V30 BEGIN ATOM
M  V30 1 S 3.5058 -0.9552 -0.0795 0
M  V30 2 C 2.6529 0.5939 0.375 0
M  V30 3 C 2.0784 -1.8798 -0.7368 0
M  V30 4 C 3.6073 1.5587 0.9755 0
M  V30 5 C 1.6944 -1.429 -2.1487 0
M  V30 6 O 3.9298 2.6464 0.2178 0
M  V30 7 C 4.2604 1.621 2.1896 0
M  V30 8 N 0.5589 -2.1891 -2.6461 0
M  V30 9 C 4.7906 3.4102 0.9515 0
M  V30 10 C 5.0285 2.8094 2.171 0
M  V30 11 C -0.7235 -1.9734 -2.2419 0
M  V30 12 C 5.2954 4.6599 0.3102 0
M  V30 13 N -1.0374 -1.0713 -1.3651 0
M  V30 14 N -1.6679 -2.7697 -2.8201 0
M  V30 15 N 4.3327 5.7766 0.3725 0
M  V30 16 C -2.3569 -0.9442 -1.0248 0
M  V30 17 C -3.0003 -2.6794 -2.5378 0
M  V30 18 C 4.7785 6.867 -0.4954 0
M  V30 19 C 4.155 6.2677 1.7396 0
M  V30 20 C -3.3646 -1.6794 -1.5138 0
M  V30 21 O -3.8325 -3.374 -3.1116 0
M  V30 22 C -4.8054 -1.5123 -1.1419 0
M  V30 23 C -5.2671 -2.4928 -0.0964 0
M  V30 24 C -5.1488 -2.2094 1.2598 0
M  V30 25 C -5.8035 -3.7338 -0.4431 0
M  V30 26 N -5.5299 -3.048 2.2501 0
M  V30 27 C -6.2025 -4.6187 0.5555 0
M  V30 28 C -6.0524 -4.2421 1.8862 0
M  V30 29 C -6.4719 -5.1732 2.9836 0
M  V30 30 H 1.8616 0.3668 1.0969 0
M  V30 31 H 2.1899 1.0313 -0.5142 0
M  V30 32 H 2.3559 -2.9397 -0.7586 0
M  V30 33 H 1.2423 -1.7915 -0.0357 0
M  V30 34 H 1.4614 -0.3593 -2.1858 0
M  V30 35 H 2.5379 -1.5927 -2.8299 0
M  V30 36 H 4.1919 0.8917 2.9847 0
M  V30 37 H 0.7627 -2.9044 -3.3296 0
M  V30 38 H 5.6751 3.187 2.9502 0
M  V30 39 H 6.2546 4.9463 0.761 0
M  V30 40 H 5.5054 4.4177 -0.7402 0
M  V30 41 H -1.4109 -3.4543 -3.5092 0
M  V30 42 H -2.5587 -0.1737 -0.2843 0
M  V30 43 H 4.8566 6.5272 -1.5342 0
M  V30 44 H 5.7512 7.2687 -0.1889 0
M  V30 45 H 4.0503 7.686 -0.4912 0
M  V30 46 H 5.0985 6.6046 2.1843 0
M  V30 47 H 3.7207 5.4989 2.3868 0
M  V30 48 H 3.4512 7.108 1.7565 0
M  V30 49 H -5.4423 -1.5929 -2.0324 0
M  V30 50 H -4.9828 -0.4931 -0.7715 0
M  V30 51 H -4.7304 -1.2681 1.6067 0
M  V30 52 H -5.9075 -4.02 -1.4877 0
M  V30 53 H -6.6197 -5.5856 0.2939 0
M  V30 54 H -5.9035 -6.1066 2.9253 0
M  V30 55 H -7.5403 -5.3964 2.9025 0
M  V30 56 H -6.2913 -4.7247 3.9659 0
M  V30 END ATOM
M  V30 BEGIN BOND
M  V30 1 1 1 2
M  V30 2 1 1 3
M  V30 3 1 2 4
M  V30 4 1 3 5
M  V30 5 1 4 6
M  V30 6 2 4 7
M  V30 7 1 5 8
M  V30 8 1 6 9
M  V30 9 1 7 10
M  V30 10 1 8 11
M  V30 11 1 9 12
M  V30 12 2 11 13
M  V30 13 1 11 14
M  V30 14 1 12 15
M  V30 15 1 13 16
M  V30 16 1 14 17
M  V30 17 1 15 18
M  V30 18 1 15 19
M  V30 19 2 16 20
M  V30 20 2 17 21
M  V30 21 1 20 22
M  V30 22 1 22 23
M  V30 23 2 23 24
M  V30 24 1 23 25
M  V30 25 1 24 26
M  V30 26 2 25 27
M  V30 27 2 26 28
M  V30 28 1 28 29
M  V30 29 2 9 10
M  V30 30 1 17 20
M  V30 31 1 27 28
M  V30 32 1 2 30
M  V30 33 1 2 31
M  V30 34 1 3 32
M  V30 35 1 3 33
M  V30 36 1 5 34
M  V30 37 1 5 35
M  V30 38 1 7 36
M  V30 39 1 8 37
M  V30 40 1 10 38
M  V30 41 1 12 39
M  V30 42 1 12 40
M  V30 43 1 14 41
M  V30 44 1 16 42
M  V30 45 1 18 43
M  V30 46 1 18 44
M  V30 47 1 18 45
M  V30 48 1 19 46
M  V30 49 1 19 47
M  V30 50 1 19 48
M  V30 51 1 22 49
M  V30 52 1 22 50
M  V30 53 1 24 51
M  V30 54 1 25 52
M  V30 55 1 27 53
M  V30 56 1 29 54
M  V30 57 1 29 55
M  V30 58 1 29 56
M  V30 END BOND
M  V30 END CTAB
M  END
>  <NO.>
120

>  <Name>
lupitidine (y-g5; skf93479)

>  <SMILES>
Cc1ccc(Cc2cnc(NCCSCc3ccc(CN(C)C)o3)[nH]c2=O)cn1

>  <logBB>
-1.1

>  <Class>
-1

>  <MW>
413.19

>  <nHBAcc>
7

>  <nHBDon>
2

>  <SLogP>
3.06

>  <TopoPSA>
87.05

>  <MMFF94 Energy>
-61.602

$$$$
O=c1cccc2n1CC1CNCC2C1
Actelion Java MolfileCreator 2.0

  0  0  0  0  0  0              0 V3000
M  V30 BEGIN CTAB
M  V30 COUNTS 28 30 0 0 0
M  V30 BEGIN ATOM
M  V30 1 O -0.6414 3.1301 1.4437 0
M  V30 2 C 0.1496 2.1958 1.3374 0
M  V30 3 N -0.1493 0.9662 0.7387 0
M  V30 4 C 1.5226 2.3489 1.8824 0
M  V30 5 C 0.7858 -0.0712 0.6633 0
M  V30 6 C -1.5327 0.7933 0.287 0
M  V30 7 C 2.3908 1.335 1.8091 0
M  V30 8 C 2.0133 0.0943 1.1872 0
M  V30 9 C 0.3993 -1.3687 -0.0271 0
M  V30 10 C -1.8529 -0.5016 -0.4707 0
M  V30 11 C 0.7043 -1.2961 -1.5419 0
M  V30 12 C -1.0882 -1.6545 0.1705 0
M  V30 13 C -1.5076 -0.4083 -1.9695 0
M  V30 14 N -0.0755 -0.2692 -2.2498 0
M  V30 15 H 1.7632 3.3 2.3384 0
M  V30 16 H -2.1495 0.8262 1.1959 0
M  V30 17 H -1.8228 1.6698 -0.3064 0
M  V30 18 H 3.3951 1.4307 2.208 0
M  V30 19 H 2.7614 -0.6914 1.1405 0
M  V30 20 H 0.971 -2.2013 0.4028 0
M  V30 21 H -2.9311 -0.6889 -0.3916 0
M  V30 22 H 1.7701 -1.0939 -1.7026 0
M  V30 23 H 0.5057 -2.2718 -2.0032 0
M  V30 24 H -1.3622 -2.6059 -0.3016 0
M  V30 25 H -1.3348 -1.7411 1.2363 0
M  V30 26 H -1.8786 -1.3046 -2.4826 0
M  V30 27 H -2.0361 0.4397 -2.4204 0
M  V30 28 H 0.2315 0.6468 -1.9125 0
M  V30 END ATOM
M  V30 BEGIN BOND
M  V30 1 2 1 2
M  V30 2 1 2 3
M  V30 3 1 2 4
M  V30 4 1 3 5
M  V30 5 1 3 6
M  V30 6 2 4 7
M  V30 7 2 5 8
M  V30 8 1 5 9
M  V30 9 1 6 10
M  V30 10 1 9 11
M  V30 11 1 9 12
M  V30 12 1 10 13
M  V30 13 1 11 14
M  V30 14 1 7 8
M  V30 15 1 10 12
M  V30 16 1 13 14
M  V30 17 1 4 15
M  V30 18 1 6 16
M  V30 19 1 6 17
M  V30 20 1 7 18
M  V30 21 1 8 19
M  V30 22 1 9 20
M  V30 23 1 10 21
M  V30 24 1 11 22
M  V30 25 1 11 23
M  V30 26 1 12 24
M  V30 27 1 12 25
M  V30 28 1 13 26
M  V30 29 1 13 27
M  V30 30 1 14 28
M  V30 END BOND
M  V30 END CTAB
M  END
>  <NO.>
121

>  <Name>
cytisine

>  <SMILES>
O=c1cccc2n1CC1CNCC2C1

>  <logBB>
-1.09

>  <Class>
-1

>  <MW>
190.11

>  <nHBAcc>
2

>  <nHBDon>
1

>  <SLogP>
0.55

>  <TopoPSA>
34.03

>  <MMFF94 Energy>
23.844

$$$$
Cc1ccc(Cc2cnc(NCCSCc3ccc(C(C)(C)N)o3)[nH]c2=O)cn1
Actelion Java MolfileCreator 2.0

  0  0  0  0  0  0              0 V3000
M  V30 BEGIN CTAB
M  V30 COUNTS 56 58 0 0 0
M  V30 BEGIN ATOM
M  V30 1 S 2.9478 2.6288 1.2739 0
M  V30 2 C 3.3801 1.3925 2.5422 0
M  V30 3 C 1.5311 1.7858 0.4979 0
M  V30 4 C 2.308 1.2053 3.55 0
M  V30 5 C 1.0581 2.5636 -0.7335 0
M  V30 6 O 2.1444 2.2028 4.4641 0
M  V30 7 C 1.4064 0.1915 3.7955 0
M  V30 8 N -0.0456 1.8809 -1.371 0
M  V30 9 C 1.1165 1.8394 5.2924 0
M  V30 10 C 0.6396 0.5995 4.9135 0
M  V30 11 C -0.0296 0.7957 -2.1875 0
M  V30 12 C 0.7634 2.8118 6.3885 0
M  V30 13 N -1.1615 0.2682 -2.5379 0
M  V30 14 N 1.1604 0.2875 -2.6151 0
M  V30 15 N 0.8571 4.1922 5.8831 0
M  V30 16 C 1.7473 2.6562 7.5558 0
M  V30 17 C -0.6721 2.6 6.8886 0
M  V30 18 C -1.1308 -0.8256 -3.3618 0
M  V30 19 C 1.2563 -0.8038 -3.4256 0
M  V30 20 C -0.0261 -1.4159 -3.8403 0
M  V30 21 O 2.3407 -1.2512 -3.7842 0
M  V30 22 C 0.0781 -2.6127 -4.7432 0
M  V30 23 C -1.2226 -3.254 -5.151 0
M  V30 24 C -1.8892 -2.8569 -6.3049 0
M  V30 25 C -1.8234 -4.2465 -4.3738 0
M  V30 26 N -3.0684 -3.3746 -6.7164 0
M  V30 27 C -3.0375 -4.7974 -4.776 0
M  V30 28 C -3.6278 -4.3386 -5.9492 0
M  V30 29 C -4.9351 -4.911 -6.4083 0
M  V30 30 H 4.2943 1.731 3.041 0
M  V30 31 H 3.6179 0.4455 2.0467 0
M  V30 32 H 1.8341 0.7726 0.2147 0
M  V30 33 H 0.7093 1.7088 1.2171 0
M  V30 34 H 0.7142 3.5602 -0.4316 0
M  V30 35 H 1.8729 2.7149 -1.4508 0
M  V30 36 H 1.3124 -0.7296 3.2372 0
M  V30 37 H -0.9799 2.1998 -1.1321 0
M  V30 38 H -0.1636 0.053 5.3882 0
M  V30 39 H 2.0307 0.7147 -2.3527 0
M  V30 40 H 1.7962 4.3085 5.4957 0
M  V30 41 H 0.2384 4.2801 5.0774 0
M  V30 42 H 1.7036 1.6446 7.9769 0
M  V30 43 H 2.783 2.8297 7.2388 0
M  V30 44 H 1.5244 3.3615 8.3652 0
M  V30 45 H -0.9397 3.3337 7.6587 0
M  V30 46 H -0.7985 1.605 7.3317 0
M  V30 47 H -1.4021 2.6908 6.0748 0
M  V30 48 H -2.1157 -1.2078 -3.6199 0
M  V30 49 H 0.6962 -3.3782 -4.2547 0
M  V30 50 H 0.6242 -2.329 -5.6529 0
M  V30 51 H -1.4861 -2.083 -6.9534 0
M  V30 52 H -1.3544 -4.5929 -3.4562 0
M  V30 53 H -3.5129 -5.5702 -4.1808 0
M  V30 54 H -5.7099 -4.7351 -5.6556 0
M  V30 55 H -4.8371 -5.9873 -6.5796 0
M  V30 56 H -5.2575 -4.4447 -7.3447 0
M  V30 END ATOM
M  V30 BEGIN BOND
M  V30 1 1 1 2
M  V30 2 1 1 3
M  V30 3 1 2 4
M  V30 4 1 3 5
M  V30 5 1 4 6
M  V30 6 2 4 7
M  V30 7 1 5 8
M  V30 8 1 6 9
M  V30 9 1 7 10
M  V30 10 1 8 11
M  V30 11 1 9 12
M  V30 12 2 11 13
M  V30 13 1 11 14
M  V30 14 1 12 15
M  V30 15 1 12 16
M  V30 16 1 12 17
M  V30 17 1 13 18
M  V30 18 1 14 19
M  V30 19 2 18 20
M  V30 20 2 19 21
M  V30 21 1 20 22
M  V30 22 1 22 23
M  V30 23 2 23 24
M  V30 24 1 23 25
M  V30 25 1 24 26
M  V30 26 2 25 27
M  V30 27 2 26 28
M  V30 28 1 28 29
M  V30 29 2 9 10
M  V30 30 1 19 20
M  V30 31 1 27 28
M  V30 32 1 2 30
M  V30 33 1 2 31
M  V30 34 1 3 32
M  V30 35 1 3 33
M  V30 36 1 5 34
M  V30 37 1 5 35
M  V30 38 1 7 36
M  V30 39 1 8 37
M  V30 40 1 10 38
M  V30 41 1 14 39
M  V30 42 1 15 40
M  V30 43 1 15 41
M  V30 44 1 16 42
M  V30 45 1 16 43
M  V30 46 1 16 44
M  V30 47 1 17 45
M  V30 48 1 17 46
M  V30 49 1 17 47
M  V30 50 1 18 48
M  V30 51 1 22 49
M  V30 52 1 22 50
M  V30 53 1 24 51
M  V30 54 1 25 52
M  V30 55 1 27 53
M  V30 56 1 29 54
M  V30 57 1 29 55
M  V30 58 1 29 56
M  V30 END BOND
M  V30 END CTAB
M  END
>  <NO.>
123

>  <Name>
lupitidine

>  <SMILES>
Cc1ccc(Cc2cnc(NCCSCc3ccc(C(C)(C)N)o3)[nH]c2=O)cn1

>  <logBB>
-1.06

>  <Class>
-1

>  <MW>
413.19

>  <nHBAcc>
7

>  <nHBDon>
3

>  <SLogP>
3.2

>  <TopoPSA>
109.83

>  <MMFF94 Energy>
-72.546

$$$$
CN(C)CCc1c[nH]c2ccc(C[C@H]3COC(=O)N3)cc12
Actelion Java MolfileCreator 2.0

  0  0  0  0  0  0              0 V3000
M  V30 BEGIN CTAB
M  V30 COUNTS 42 44 0 0 0
M  V30 BEGIN ATOM
M  V30 1 O 0.6319 1.8176 6.4127 0
M  V30 2 C 1.0E-4 1.6349 5.3875 0
M  V30 3 O -0.8306 0.5764 5.1546 0
M  V30 4 N -0.0129 2.4796 4.3146 0
M  V30 5 C -1.2295 0.625 3.7742 0
M  V30 6 C -0.9998 2.0698 3.37 0 CFG=2
M  V30 7 C -0.6589 2.3188 1.8968 0
M  V30 8 C 0.4695 1.4914 1.3244 0
M  V30 9 C 0.1873 0.461 0.4078 0
M  V30 10 C 1.7966 1.7361 1.6942 0
M  V30 11 C 1.2335 -0.3253 -0.1197 0
M  V30 12 C 2.8517 0.9702 1.1869 0
M  V30 13 C 2.5382 -0.0516 0.2858 0
M  V30 14 C 1.2903 -1.4199 -1.042 0
M  V30 15 N 3.3587 -0.9488 -0.3561 0
M  V30 16 C 2.6201 -1.775 -1.1587 0
M  V30 17 C 0.1341 -2.0622 -1.7485 0
M  V30 18 C -0.2797 -1.2791 -3.0073 0
M  V30 19 N -1.3499 -1.9333 -3.7885 0
M  V30 20 C -1.4982 -1.2647 -5.0846 0
M  V30 21 C -2.6307 -1.9223 -3.0795 0
M  V30 22 H 0.4623 3.3702 4.3623 0
M  V30 23 H -2.2818 0.3386 3.6856 0
M  V30 24 H -0.6195 -0.102 3.231 0
M  V30 25 H -1.8945 2.6569 3.6168 0
M  V30 26 H -0.4089 3.3784 1.7525 0
M  V30 27 H -1.5643 2.1452 1.3005 0
M  V30 28 H -0.8345 0.2573 0.1007 0
M  V30 29 H 2.0323 2.5347 2.3948 0
M  V30 30 H 3.8752 1.167 1.4894 0
M  V30 31 H 4.3624 -0.9875 -0.2458 0
M  V30 32 H 3.1008 -2.5472 -1.7448 0
M  V30 33 H -0.7027 -2.1383 -1.0449 0
M  V30 34 H 0.4045 -3.089 -2.0268 0
M  V30 35 H -0.5725 -0.2554 -2.7365 0
M  V30 36 H 0.6119 -1.1864 -3.6426 0
M  V30 37 H -0.5639 -1.3159 -5.6546 0
M  V30 38 H -1.7806 -0.211 -4.9763 0
M  V30 39 H -2.26 -1.766 -5.6921 0
M  V30 40 H -2.9515 -0.9068 -2.8203 0
M  V30 41 H -2.582 -2.5169 -2.1622 0
M  V30 42 H -3.4139 -2.3816 -3.6938 0
M  V30 END ATOM
M  V30 BEGIN BOND
M  V30 1 2 1 2
M  V30 2 1 2 3
M  V30 3 1 2 4
M  V30 4 1 3 5
M  V30 5 1 4 6
M  V30 6 1 6 7
M  V30 7 1 7 8
M  V30 8 2 8 9
M  V30 9 1 8 10
M  V30 10 1 9 11
M  V30 11 2 10 12
M  V30 12 2 11 13
M  V30 13 1 11 14
M  V30 14 1 13 15
M  V30 15 2 14 16
M  V30 16 1 14 17
M  V30 17 1 17 18
M  V30 18 1 18 19
M  V30 19 1 19 20
M  V30 20 1 19 21
M  V30 21 1 5 6
M  V30 22 1 12 13
M  V30 23 1 15 16
M  V30 24 1 4 22
M  V30 25 1 5 23
M  V30 26 1 5 24
M  V30 27 1 6 25
M  V30 28 1 7 26
M  V30 29 1 7 27
M  V30 30 1 9 28
M  V30 31 1 10 29
M  V30 32 1 12 30
M  V30 33 1 15 31
M  V30 34 1 16 32
M  V30 35 1 17 33
M  V30 36 1 17 34
M  V30 37 1 18 35
M  V30 38 1 18 36
M  V30 39 1 20 37
M  V30 40 1 20 38
M  V30 41 1 20 39
M  V30 42 1 21 40
M  V30 43 1 21 41
M  V30 44 1 21 42
M  V30 END BOND
M  V30 BEGIN COLLECTION
M  V30 MDLV30/STEABS ATOMS=(1 6)
M  V30 END COLLECTION
M  V30 END CTAB
M  END
>  <NO.>
124

>  <Name>
zolmitriptan

>  <SMILES>
CN(C)CCc1c[nH]c2ccc(C[C@H]3COC(=O)N3)cc12

>  <logBB>
-1.04

>  <Class>
-1

>  <MW>
287.16

>  <nHBAcc>
3

>  <nHBDon>
2

>  <SLogP>
1.92

>  <TopoPSA>
57.36

>  <MMFF94 Energy>
9.8677

$$$$
CC(C)(C)NC(=O)C1CC2CCCCC2CN1CC(O)C(Cc1ccccc1)NC(=O)C(CC(N)=O)NC(=O)c1ccc2ccccc2n1
Actelion Java MolfileCreator 2.0

  0  0  0  0  0  0              0 V3000
M  V30 BEGIN CTAB
M  V30 COUNTS 99 103 0 0 0
M  V30 BEGIN ATOM
M  V30 1 O 6.2845 0.0793 -0.3174 0
M  V30 2 C 5.2174 0.68 -0.2616 0
M  V30 3 N 4.0097 0.0767 0.0084 0
M  V30 4 C 5.1183 2.1588 -0.4894 0
M  V30 5 C 3.8262 -1.3741 0.1336 0
M  V30 6 N 3.8622 2.6831 -0.4032 0
M  V30 7 C 6.2561 2.8974 -0.7662 0
M  V30 8 C 2.3272 -1.6296 0.3532 0
M  V30 9 C 4.6053 -1.9714 1.3096 0
M  V30 10 C 3.7278 4.0036 -0.6118 0
M  V30 11 C 6.1038 4.2633 -0.9717 0
M  V30 12 O 1.7144 -2.5606 -0.164 0
M  V30 13 N 1.7368 -0.7904 1.2792 0
M  V30 14 C 5.5263 -3.0619 0.8243 0
M  V30 15 C 4.8289 4.8424 -0.8987 0
M  V30 16 C 2.4651 4.577 -0.5469 0
M  V30 17 C 0.3533 -0.9752 1.738 0
M  V30 18 O 5.3311 -4.2524 1.0387 0
M  V30 19 N 6.615 -2.6351 0.1283 0
M  V30 20 C 4.6338 6.2187 -1.1053 0
M  V30 21 C 2.2688 5.9458 -0.7536 0
M  V30 22 C -0.6525 -0.3297 0.7372 0
M  V30 23 C 0.1776 -0.4193 3.1702 0
M  V30 24 C 3.3551 6.7675 -1.032 0
M  V30 25 O -0.3778 -0.7526 -0.6134 0
M  V30 26 C -2.1228 -0.6952 1.0689 0
M  V30 27 C 1.2334 -0.8924 4.1469 0
M  V30 28 N -3.0751 -0.0899 0.1008 0
M  V30 29 C 1.4082 -2.2582 4.4105 0
M  V30 30 C 2.0583 0.0348 4.8001 0
M  V30 31 C -4.3178 -0.9037 -0.0378 0
M  V30 32 C -3.3908 1.2912 0.5007 0
M  V30 33 C 2.4018 -2.6876 5.2916 0
M  V30 34 C 3.0492 -0.3974 5.6832 0
M  V30 35 C -3.9979 -2.3025 -0.6198 0
M  V30 36 C -5.3201 -0.2549 -1.01 0
M  V30 37 C -4.3302 2.0065 -0.4811 0
M  V30 38 C 3.2229 -1.7581 5.9259 0
M  V30 39 O -4.6369 -3.298 -0.2908 0
M  V30 40 N -2.9826 -2.2959 -1.5551 0
M  V30 41 C -5.6301 1.203 -0.6492 0
M  V30 42 C -3.6449 2.2897 -1.8292 0
M  V30 43 C -2.4671 -3.4626 -2.2763 0
M  V30 44 C -6.5644 1.8644 -1.6733 0
M  V30 45 C -4.5971 2.9777 -2.804 0
M  V30 46 C -1.7963 -4.4401 -1.3002 0
M  V30 47 C -3.5856 -4.1754 -3.0537 0
M  V30 48 C -1.4165 -2.9763 -3.2906 0
M  V30 49 C -5.881 2.1793 -3.0027 0
M  V30 50 H 3.1927 0.679 -0.0984 0
M  V30 51 H 4.1053 -1.8118 -0.8318 0
M  V30 52 H 7.2318 2.4266 -0.8224 0
M  V30 53 H 5.2096 -1.2213 1.8336 0
M  V30 54 H 3.9437 -2.419 2.0614 0
M  V30 55 H 6.9788 4.8706 -1.1919 0
M  V30 56 H 2.3138 -0.0813 1.719 0
M  V30 57 H 1.6067 3.9437 -0.335 0
M  V30 58 H 0.1756 -2.0586 1.7483 0
M  V30 59 H 7.2727 -3.3174 -0.2209 0
M  V30 60 H 6.7696 -1.6474 -0.0816 0
M  V30 61 H 5.4765 6.8702 -1.327 0
M  V30 62 H 1.2668 6.3646 -0.6992 0
M  V30 63 H -0.5161 0.7573 0.7489 0
M  V30 64 H -0.7993 -0.7032 3.5778 0
M  V30 65 H 0.1897 0.6778 3.1308 0
M  V30 66 H 3.2073 7.8324 -1.195 0
M  V30 67 H 0.0645 -1.6267 -0.569 0
M  V30 68 H -2.3909 -0.4062 2.0911 0
M  V30 69 H -2.1863 -1.7891 1.0355 0
M  V30 70 H 0.7807 -3.0036 3.9264 0
M  V30 71 H 1.9397 1.1021 4.6272 0
M  V30 72 H -4.7847 -1.0407 0.9464 0
M  V30 73 H -3.8545 1.2973 1.497 0
M  V30 74 H -2.47 1.8809 0.5806 0
M  V30 75 H 2.5365 -3.75 5.4806 0
M  V30 76 H 3.6862 0.3273 6.1838 0
M  V30 77 H -6.2526 -0.835 -1.0054 0
M  V30 78 H -4.937 -0.3224 -2.0358 0
M  V30 79 H -4.5899 2.9782 -0.0371 0
M  V30 80 H 3.996 -2.0957 6.6114 0
M  V30 81 H -2.4471 -1.4252 -1.584 0
M  V30 82 H -6.155 1.1944 0.3165 0
M  V30 83 H -2.7702 2.932 -1.6699 0
M  V30 84 H -3.272 1.3637 -2.2826 0
M  V30 85 H -6.9425 2.8024 -1.246 0
M  V30 86 H -7.4405 1.2298 -1.8518 0
M  V30 87 H -4.845 3.9773 -2.4258 0
M  V30 88 H -4.0977 3.1184 -3.7693 0
M  V30 89 H -2.5127 -4.8487 -0.5795 0
M  V30 90 H -1.3453 -5.2851 -1.8324 0
M  V30 91 H -1.0062 -3.9428 -0.7257 0
M  V30 92 H -3.1822 -4.9837 -3.6743 0
M  V30 93 H -4.3302 -4.6225 -2.3876 0
M  V30 94 H -4.1134 -3.4762 -3.7127 0
M  V30 95 H -0.5797 -2.4775 -2.7894 0
M  V30 96 H -1.851 -2.2551 -3.9928 0
M  V30 97 H -1.0065 -3.8092 -3.8726 0
M  V30 98 H -5.6562 1.2498 -3.538 0
M  V30 99 H -6.5688 2.7468 -3.6403 0
M  V30 END ATOM
M  V30 BEGIN BOND
M  V30 1 2 1 2
M  V30 2 1 2 3
M  V30 3 1 2 4
M  V30 4 1 3 5
M  V30 5 2 4 6
M  V30 6 1 4 7
M  V30 7 1 5 8
M  V30 8 1 5 9
M  V30 9 1 6 10
M  V30 10 2 7 11
M  V30 11 2 8 12
M  V30 12 1 8 13
M  V30 13 1 9 14
M  V30 14 1 10 15
M  V30 15 2 10 16
M  V30 16 1 13 17
M  V30 17 2 14 18
M  V30 18 1 14 19
M  V30 19 2 15 20
M  V30 20 1 16 21
M  V30 21 1 17 22
M  V30 22 1 17 23
M  V30 23 1 20 24
M  V30 24 1 22 25
M  V30 25 1 22 26
M  V30 26 1 23 27
M  V30 27 1 26 28
M  V30 28 2 27 29
M  V30 29 1 27 30
M  V30 30 1 28 31
M  V30 31 1 28 32
M  V30 32 1 29 33
M  V30 33 2 30 34
M  V30 34 1 31 35
M  V30 35 1 31 36
M  V30 36 1 32 37
M  V30 37 2 33 38
M  V30 38 2 35 39
M  V30 39 1 35 40
M  V30 40 1 36 41
M  V30 41 1 37 42
M  V30 42 1 40 43
M  V30 43 1 41 44
M  V30 44 1 42 45
M  V30 45 1 43 46
M  V30 46 1 43 47
M  V30 47 1 43 48
M  V30 48 1 44 49
M  V30 49 1 11 15
M  V30 50 2 21 24
M  V30 51 1 34 38
M  V30 52 1 37 41
M  V30 53 1 45 49
M  V30 54 1 3 50
M  V30 55 1 5 51
M  V30 56 1 7 52
M  V30 57 1 9 53
M  V30 58 1 9 54
M  V30 59 1 11 55
M  V30 60 1 13 56
M  V30 61 1 16 57
M  V30 62 1 17 58
M  V30 63 1 19 59
M  V30 64 1 19 60
M  V30 65 1 20 61
M  V30 66 1 21 62
M  V30 67 1 22 63
M  V30 68 1 23 64
M  V30 69 1 23 65
M  V30 70 1 24 66
M  V30 71 1 25 67
M  V30 72 1 26 68
M  V30 73 1 26 69
M  V30 74 1 29 70
M  V30 75 1 30 71
M  V30 76 1 31 72
M  V30 77 1 32 73
M  V30 78 1 32 74
M  V30 79 1 33 75
M  V30 80 1 34 76
M  V30 81 1 36 77
M  V30 82 1 36 78
M  V30 83 1 37 79
M  V30 84 1 38 80
M  V30 85 1 40 81
M  V30 86 1 41 82
M  V30 87 1 42 83
M  V30 88 1 42 84
M  V30 89 1 44 85
M  V30 90 1 44 86
M  V30 91 1 45 87
M  V30 92 1 45 88
M  V30 93 1 46 89
M  V30 94 1 46 90
M  V30 95 1 46 91
M  V30 96 1 47 92
M  V30 97 1 47 93
M  V30 98 1 47 94
M  V30 99 1 48 95
M  V30 100 1 48 96
M  V30 101 1 48 97
M  V30 102 1 49 98
M  V30 103 1 49 99
M  V30 END BOND
M  V30 END CTAB
M  END
>  <NO.>
125

>  <Name>
127779-20-8

>  <SMILES>
CC(C)(C)NC(=O)C1CC2CCCCC2CN1CC(O)C(Cc1ccccc1)NC(=O)C(CC(N)=O)NC(=O)c1ccc2ccccc2n1

>  <logBB>
-1.03

>  <Class>
-1

>  <MW>
670.38

>  <nHBAcc>
7

>  <nHBDon>
5

>  <SLogP>
3.09

>  <TopoPSA>
166.75

>  <MMFF94 Energy>
124.02

$$$$
CC(C)(C)c1ccc(C(=O)N2CCN(c3ccc(OCCCN4CCCCC4)cc3)C(=O)C2)cc1
Actelion Java MolfileCreator 2.0

  0  0  0  0  0  0              0 V3000
M  V30 BEGIN CTAB
M  V30 COUNTS 74 77 0 0 0
M  V30 BEGIN ATOM
M  V30 1 O -0.7926 -4.127 1.9031 0
M  V30 2 C 0.0131 -3.5805 1.1473 0
M  V30 3 N -0.2473 -2.3992 0.446 0
M  V30 4 C 1.3494 -4.2693 0.8208 0
M  V30 5 C -1.4758 -1.7043 0.5985 0
M  V30 6 C 0.7098 -1.9096 -0.5401 0
M  V30 7 N 2.4435 -3.4436 0.3044 0
M  V30 8 C -1.9604 -1.3937 1.8728 0
M  V30 9 C -2.2056 -1.297 -0.522 0
M  V30 10 C 2.1404 -2.0549 -0.0315 0
M  V30 11 C 3.6797 -4.0587 0.1398 0
M  V30 12 C -3.1571 -0.6832 2.0288 0
M  V30 13 C -3.3987 -0.5863 -0.3633 0
M  V30 14 O 3.8459 -5.2691 0.265 0
M  V30 15 C 4.8534 -3.2302 -0.2101 0
M  V30 16 C -3.8796 -0.273 0.9096 0
M  V30 17 C 5.2616 -2.1822 0.6139 0
M  V30 18 C 5.5858 -3.546 -1.3529 0
M  V30 19 O -5.0567 0.4207 0.9189 0
M  V30 20 C 6.3831 -1.4243 0.2646 0
M  V30 21 C 6.7072 -2.7831 -1.6968 0
M  V30 22 C -5.5679 0.8238 2.1894 0
M  V30 23 C 7.1278 -1.7021 -0.9009 0
M  V30 24 C -6.8584 1.6208 1.9892 0
M  V30 25 C 8.3598 -0.8462 -1.2496 0
M  V30 26 C -6.6322 3.1199 1.725 0
M  V30 27 C 7.939 0.6315 -1.4045 0
M  V30 28 C 9.4065 -0.9609 -0.1207 0
M  V30 29 C 9.0572 -1.2609 -2.5649 0
M  V30 30 N -5.7809 3.4458 0.575 0
M  V30 31 C -5.4035 4.8671 0.5499 0
M  V30 32 C -6.3425 3.0393 -0.7216 0
M  V30 33 C -6.5398 5.8049 0.1342 0
M  V30 34 C -7.5164 3.904 -1.1888 0
M  V30 35 C -7.1443 5.3829 -1.2006 0
M  V30 36 H 1.1435 -5.0453 0.0737 0
M  V30 37 H 1.7054 -4.7662 1.7312 0
M  V30 38 H 0.5716 -2.4974 -1.4556 0
M  V30 39 H 0.5184 -0.854 -0.7642 0
M  V30 40 H -1.4153 -1.7054 2.7606 0
M  V30 41 H -1.8714 -1.5379 -1.5265 0
M  V30 42 H 2.2779 -1.4662 0.883 0
M  V30 43 H 2.8359 -1.683 -0.7892 0
M  V30 44 H -3.4956 -0.4741 3.0377 0
M  V30 45 H -3.9627 -0.2753 -1.2392 0
M  V30 46 H 4.7258 -1.9607 1.533 0
M  V30 47 H 5.29 -4.3879 -1.975 0
M  V30 48 H 6.6785 -0.6133 0.9277 0
M  V30 49 H 7.2439 -3.0672 -2.5981 0
M  V30 50 H -4.8324 1.4254 2.7368 0
M  V30 51 H -5.81 -0.0743 2.7706 0
M  V30 52 H -7.4609 1.1786 1.188 0
M  V30 53 H -7.4511 1.5459 2.9098 0
M  V30 54 H -7.6121 3.6055 1.6459 0
M  V30 55 H -6.1658 3.5294 2.6313 0
M  V30 56 H 7.5339 1.0474 -0.4754 0
M  V30 57 H 8.7926 1.2578 -1.6894 0
M  V30 58 H 7.17 0.7436 -2.178 0
M  V30 59 H 9.7057 -2.0042 0.0351 0
M  V30 60 H 10.3096 -0.3868 -0.3592 0
M  V30 61 H 9.0287 -0.5811 0.8349 0
M  V30 62 H 8.3801 -1.18 -3.4232 0
M  V30 63 H 9.4282 -2.2913 -2.5178 0
M  V30 64 H 9.9209 -0.6181 -2.7737 0
M  V30 65 H -4.5681 4.989 -0.152 0
M  V30 66 H -5.0076 5.1747 1.5257 0
M  V30 67 H -6.6427 1.9866 -0.7151 0
M  V30 68 H -5.5424 3.0985 -1.4715 0
M  V30 69 H -6.1595 6.8299 0.0556 0
M  V30 70 H -7.3201 5.8176 0.9044 0
M  V30 71 H -8.3845 3.7466 -0.5378 0
M  V30 72 H -7.8197 3.5964 -2.1962 0
M  V30 73 H -8.0276 5.9916 -1.4233 0
M  V30 74 H -6.4179 5.5674 -2.0018 0
M  V30 END ATOM
M  V30 BEGIN BOND
M  V30 1 2 1 2
M  V30 2 1 2 3
M  V30 3 1 2 4
M  V30 4 1 3 5
M  V30 5 1 3 6
M  V30 6 1 4 7
M  V30 7 2 5 8
M  V30 8 1 5 9
M  V30 9 1 6 10
M  V30 10 1 7 11
M  V30 11 1 8 12
M  V30 12 2 9 13
M  V30 13 2 11 14
M  V30 14 1 11 15
M  V30 15 2 12 16
M  V30 16 2 15 17
M  V30 17 1 15 18
M  V30 18 1 16 19
M  V30 19 1 17 20
M  V30 20 2 18 21
M  V30 21 1 19 22
M  V30 22 2 20 23
M  V30 23 1 22 24
M  V30 24 1 23 25
M  V30 25 1 24 26
M  V30 26 1 25 27
M  V30 27 1 25 28
M  V30 28 1 25 29
M  V30 29 1 26 30
M  V30 30 1 30 31
M  V30 31 1 30 32
M  V30 32 1 31 33
M  V30 33 1 32 34
M  V30 34 1 33 35
M  V30 35 1 7 10
M  V30 36 1 13 16
M  V30 37 1 21 23
M  V30 38 1 34 35
M  V30 39 1 4 36
M  V30 40 1 4 37
M  V30 41 1 6 38
M  V30 42 1 6 39
M  V30 43 1 8 40
M  V30 44 1 9 41
M  V30 45 1 10 42
M  V30 46 1 10 43
M  V30 47 1 12 44
M  V30 48 1 13 45
M  V30 49 1 17 46
M  V30 50 1 18 47
M  V30 51 1 20 48
M  V30 52 1 21 49
M  V30 53 1 22 50
M  V30 54 1 22 51
M  V30 55 1 24 52
M  V30 56 1 24 53
M  V30 57 1 26 54
M  V30 58 1 26 55
M  V30 59 1 27 56
M  V30 60 1 27 57
M  V30 61 1 27 58
M  V30 62 1 28 59
M  V30 63 1 28 60
M  V30 64 1 28 61
M  V30 65 1 29 62
M  V30 66 1 29 63
M  V30 67 1 29 64
M  V30 68 1 31 65
M  V30 69 1 31 66
M  V30 70 1 32 67
M  V30 71 1 32 68
M  V30 72 1 33 69
M  V30 73 1 33 70
M  V30 74 1 34 71
M  V30 75 1 34 72
M  V30 76 1 35 73
M  V30 77 1 35 74
M  V30 END BOND
M  V30 END CTAB
M  END
>  <NO.>
130

>  <Name>
proc-19m

>  <SMILES>
CC(C)(C)c1ccc(C(=O)N2CCN(c3ccc(OCCCN4CCCCC4)cc3)C(=O)C2)cc1

>  <logBB>
-1

>  <Class>
1

>  <MW>
477.3

>  <nHBAcc>
4

>  <nHBDon>
0

>  <SLogP>
4.73

>  <TopoPSA>
53.09

>  <MMFF94 Energy>
118.83

$$$$
CCOC(=O)C1=C[C@@H](OC(CC)CC)[C@@H](NCOC)[C@@H](N)C1
Actelion Java MolfileCreator 2.0

  0  0  0  0  0  0              0 V3000
M  V30 BEGIN CTAB
M  V30 COUNTS 52 52 0 0 0
M  V30 BEGIN ATOM
M  V30 1 O 0.3901 4.1421 -1.5614 0
M  V30 2 C 0.393 3.3485 -0.6313 0
M  V30 3 O 0.4246 3.6802 0.6842 0
M  V30 4 C 0.3569 1.8713 -0.8225 0
M  V30 5 C 0.4327 5.0895 0.936 0
M  V30 6 C 0.5364 1.0097 0.1954 0
M  V30 7 C 0.0926 1.4135 -2.2312 0
M  V30 8 C 0.4411 5.2997 2.4377 0
M  V30 9 C 0.5103 -0.4878 0.0539 0 CFG=1
M  V30 10 C -0.3511 -0.0585 -2.3486 0 CFG=1
M  V30 11 O -0.6732 -0.9976 0.6982 0
M  V30 12 C 0.5373 -0.9667 -1.4397 0 CFG=2
M  V30 13 N -1.7978 -0.1878 -2.0949 0
M  V30 14 C -0.6044 -1.1029 2.1229 0
M  V30 15 N 0.2086 -2.4145 -1.4806 0
M  V30 16 C -1.9484 -0.6128 2.6911 0
M  V30 17 C -0.3968 -2.5725 2.5293 0
M  V30 18 C 0.1562 -2.9933 -2.8059 0
M  V30 19 C -2.2256 0.8526 2.3833 0
M  V30 20 C 0.9849 -3.1134 2.1941 0
M  V30 21 O 1.339 -2.7452 -3.5542 0
M  V30 22 C 2.4178 -3.5793 -3.151 0
M  V30 23 H -0.4631 5.5493 0.5037 0
M  V30 24 H 1.329 5.5388 0.4942 0
M  V30 25 H 0.7157 1.3801 1.2003 0
M  V30 26 H 1.018 1.547 -2.8076 0
M  V30 27 H -0.6604 2.0546 -2.7078 0
M  V30 28 H 0.4469 6.3655 2.6828 0
M  V30 29 H -0.4383 4.8358 2.8966 0
M  V30 30 H 1.3208 4.8281 2.8879 0
M  V30 31 H 1.3978 -0.9028 0.547 0
M  V30 32 H -0.1942 -0.3499 -3.3945 0
M  V30 33 H 1.5742 -0.8468 -1.7849 0
M  V30 34 H -2.3221 0.2799 -2.8319 0
M  V30 35 H -2.0641 -1.1684 -2.1115 0
M  V30 36 H 0.2025 -0.4858 2.5366 0
M  V30 37 H -0.6862 -2.5256 -0.9997 0
M  V30 38 H -1.9637 -0.7511 3.7786 0
M  V30 39 H -2.7684 -1.2086 2.2713 0
M  V30 40 H -1.1424 -3.2046 2.0316 0
M  V30 41 H -0.5466 -2.6765 3.6108 0
M  V30 42 H -0.6872 -2.5939 -3.3775 0
M  V30 43 H -0.018 -4.0734 -2.7325 0
M  V30 44 H -3.165 1.1633 2.8518 0
M  V30 45 H -2.3193 1.0239 1.3068 0
M  V30 46 H -1.4273 1.4932 2.7708 0
M  V30 47 H 1.7695 -2.4819 2.6223 0
M  V30 48 H 1.1398 -3.18 1.1149 0
M  V30 49 H 1.1015 -4.1217 2.6044 0
M  V30 50 H 3.285 -3.3386 -3.7719 0
M  V30 51 H 2.1661 -4.6334 -3.3026 0
M  V30 52 H 2.6835 -3.4012 -2.1047 0
M  V30 END ATOM
M  V30 BEGIN BOND
M  V30 1 2 1 2
M  V30 2 1 2 3
M  V30 3 1 2 4
M  V30 4 1 3 5
M  V30 5 2 4 6
M  V30 6 1 4 7
M  V30 7 1 5 8
M  V30 8 1 6 9
M  V30 9 1 7 10
M  V30 10 1 9 11
M  V30 11 1 9 12
M  V30 12 1 10 13
M  V30 13 1 11 14
M  V30 14 1 12 15
M  V30 15 1 14 16
M  V30 16 1 14 17
M  V30 17 1 15 18
M  V30 18 1 16 19
M  V30 19 1 17 20
M  V30 20 1 18 21
M  V30 21 1 21 22
M  V30 22 1 10 12
M  V30 23 1 5 23
M  V30 24 1 5 24
M  V30 25 1 6 25
M  V30 26 1 7 26
M  V30 27 1 7 27
M  V30 28 1 8 28
M  V30 29 1 8 29
M  V30 30 1 8 30
M  V30 31 1 9 31
M  V30 32 1 10 32
M  V30 33 1 12 33
M  V30 34 1 13 34
M  V30 35 1 13 35
M  V30 36 1 14 36
M  V30 37 1 15 37
M  V30 38 1 16 38
M  V30 39 1 16 39
M  V30 40 1 17 40
M  V30 41 1 17 41
M  V30 42 1 18 42
M  V30 43 1 18 43
M  V30 44 1 19 44
M  V30 45 1 19 45
M  V30 46 1 19 46
M  V30 47 1 20 47
M  V30 48 1 20 48
M  V30 49 1 20 49
M  V30 50 1 22 50
M  V30 51 1 22 51
M  V30 52 1 22 52
M  V30 END BOND
M  V30 BEGIN COLLECTION
M  V30 MDLV30/STEABS ATOMS=(3 9 10 12)
M  V30 END COLLECTION
M  V30 END CTAB
M  END
>  <NO.>
133

>  <Name>
oseltamivir

>  <SMILES>
CCOC(=O)C1=C[C@@H](OC(CC)CC)[C@@H](NCOC)[C@@H](N)C1

>  <logBB>
-1

>  <Class>
1

>  <MW>
314.22

>  <nHBAcc>
6

>  <nHBDon>
2

>  <SLogP>
1.34

>  <TopoPSA>
82.81

>  <MMFF94 Energy>
30.31

$$$$
CCOC(=O)NNc1ccc(N(CC(C)O)C(C)C)nn1
Actelion Java MolfileCreator 2.0

  0  0  0  0  0  0              0 V3000
M  V30 BEGIN CTAB
M  V30 COUNTS 44 44 0 0 0
M  V30 BEGIN ATOM
M  V30 1 O 0.6996 -0.2331 -5.0618 0
M  V30 2 C 1.352 -1.06 -4.4391 0
M  V30 3 O 1.5828 -2.3369 -4.8392 0
M  V30 4 N 1.9791 -0.8395 -3.2398 0
M  V30 5 C 0.9729 -2.6746 -6.0906 0
M  V30 6 N 1.9067 0.4093 -2.6496 0
M  V30 7 C 1.3065 -4.1201 -6.4045 0
M  V30 8 C 1.3515 0.5573 -1.3804 0
M  V30 9 N 0.9887 1.7887 -0.9963 0
M  V30 10 C 1.1858 -0.483 -0.4873 0
M  V30 11 N 0.4423 2.0167 0.2697 0
M  V30 12 C 0.6372 -0.2402 0.781 0
M  V30 13 C 0.2539 1.0355 1.172 0
M  V30 14 N -0.2887 1.3261 2.414 0
M  V30 15 C -0.8065 2.6761 2.7237 0
M  V30 16 C -0.3492 0.3306 3.4991 0
M  V30 17 C 0.312 3.7106 2.8361 0
M  V30 18 C -1.9311 3.116 1.7859 0
M  V30 19 C -1.7012 -0.4166 3.5152 0 CFG=1
M  V30 20 O -1.7028 -1.4735 2.5517 0
M  V30 21 C -1.9658 -1.0397 4.8797 0
M  V30 22 H 2.5735 -1.5481 -2.8309 0
M  V30 23 H 1.3653 -2.025 -6.881 0
M  V30 24 H -0.1138 -2.554 -6.0178 0
M  V30 25 H 1.8504 1.235 -3.2436 0
M  V30 26 H 0.8608 -4.4257 -7.3552 0
M  V30 27 H 2.3908 -4.262 -6.4602 0
M  V30 28 H 0.939 -4.7812 -5.6127 0
M  V30 29 H 1.4643 -1.4968 -0.7465 0
M  V30 30 H 0.5083 -1.0939 1.4355 0
M  V30 31 H -1.2699 2.6326 3.7192 0
M  V30 32 H 0.4907 -0.3715 3.4501 0
M  V30 33 H -0.2204 0.8595 4.4526 0
M  V30 34 H 0.7756 3.9366 1.872 0
M  V30 35 H -0.0793 4.6523 3.2366 0
M  V30 36 H 1.0996 3.3599 3.5118 0
M  V30 37 H -1.5742 3.3706 0.7845 0
M  V30 38 H -2.6873 2.3303 1.685 0
M  V30 39 H -2.4266 4.0086 2.1839 0
M  V30 40 H -2.5174 0.2706 3.2649 0
M  V30 41 H -2.6331 -1.6992 2.3781 0
M  V30 42 H -2.9126 -1.5905 4.8723 0
M  V30 43 H -1.1833 -1.7617 5.1381 0
M  V30 44 H -2.0138 -0.2776 5.6635 0
M  V30 END ATOM
M  V30 BEGIN BOND
M  V30 1 2 1 2
M  V30 2 1 2 3
M  V30 3 1 2 4
M  V30 4 1 3 5
M  V30 5 1 4 6
M  V30 6 1 5 7
M  V30 7 1 6 8
M  V30 8 2 8 9
M  V30 9 1 8 10
M  V30 10 1 9 11
M  V30 11 2 10 12
M  V30 12 2 11 13
M  V30 13 1 13 14
M  V30 14 1 14 15
M  V30 15 1 14 16
M  V30 16 1 15 17
M  V30 17 1 15 18
M  V30 18 1 16 19
M  V30 19 1 19 20
M  V30 20 1 19 21
M  V30 21 1 12 13
M  V30 22 1 4 22
M  V30 23 1 5 23
M  V30 24 1 5 24
M  V30 25 1 6 25
M  V30 26 1 7 26
M  V30 27 1 7 27
M  V30 28 1 7 28
M  V30 29 1 10 29
M  V30 30 1 12 30
M  V30 31 1 15 31
M  V30 32 1 16 32
M  V30 33 1 16 33
M  V30 34 1 17 34
M  V30 35 1 17 35
M  V30 36 1 17 36
M  V30 37 1 18 37
M  V30 38 1 18 38
M  V30 39 1 18 39
M  V30 40 1 19 40
M  V30 41 1 20 41
M  V30 42 1 21 42
M  V30 43 1 21 43
M  V30 44 1 21 44
M  V30 END BOND
M  V30 BEGIN COLLECTION
M  V30 MDLV30/STERAC1 ATOMS=(1 19)
M  V30 END COLLECTION
M  V30 END CTAB
M  END
>  <NO.>
134

>  <Name>
cadralazine

>  <SMILES>
CCOC(=O)NNc1ccc(N(CC(C)O)C(C)C)nn1

>  <logBB>
-1

>  <Class>
1

>  <MW>
297.18

>  <nHBAcc>
7

>  <nHBDon>
3

>  <SLogP>
1.15

>  <TopoPSA>
99.61

>  <MMFF94 Energy>
40.82

$$$$
CN(C)C(=O)Cn1nc(-c2c(-c3ccccc3)nn3ccccc23)ccc1=O
Actelion Java MolfileCreator 2.0

  0  0  0  0  0  0              0 V3000
M  V30 BEGIN CTAB
M  V30 COUNTS 47 50 0 0 0
M  V30 BEGIN ATOM
M  V30 1 O 0.9596 -3.5221 -2.0801 0
M  V30 2 C 1.0406 -2.5651 -1.3145 0
M  V30 3 N 0.0841 -1.5686 -1.1793 0
M  V30 4 C 2.2268 -2.446 -0.4375 0
M  V30 5 N 0.1638 -0.5319 -0.2693 0
M  V30 6 C -1.0666 -1.5662 -2.0698 0
M  V30 7 C 2.342 -1.4401 0.4316 0
M  V30 8 C 1.2259 -0.4805 0.464 0
M  V30 9 C -0.7391 -0.8939 -3.4116 0
M  V30 10 C 1.3524 0.5809 1.4349 0
M  V30 11 O 0.3908 -0.4689 -3.6687 0
M  V30 12 N -1.7826 -0.7902 -4.3356 0
M  V30 13 C 0.4111 0.996 2.4268 0
M  V30 14 C 2.4082 1.4652 1.5646 0
M  V30 15 C -3.1388 -1.2753 -4.1285 0
M  V30 16 C -1.5275 -0.1514 -5.617 0
M  V30 17 N 0.8735 2.0405 3.131 0
M  V30 18 C -0.9017 0.4264 2.7465 0
M  V30 19 N 2.0854 2.3288 2.6109 0
M  V30 20 C 3.6449 1.6827 0.883 0
M  V30 21 C -1.1093 -0.9593 2.7774 0
M  V30 22 C -1.9758 1.276 3.0504 0
M  V30 23 C 2.9484 3.3453 3.0264 0
M  V30 24 C 4.4665 2.6687 1.29 0
M  V30 25 C -2.3684 -1.482 3.0868 0
M  V30 26 C -3.2335 0.7531 3.3604 0
M  V30 27 C 4.1242 3.5308 2.4063 0
M  V30 28 C -3.4294 -0.6259 3.3758 0
M  V30 29 H 2.9807 -3.2148 -0.5431 0
M  V30 30 H -1.3712 -2.6003 -2.2621 0
M  V30 31 H -1.8849 -1.0288 -1.5787 0
M  V30 32 H 3.1881 -1.335 1.0952 0
M  V30 33 H -3.2733 -1.777 -3.1706 0
M  V30 34 H -3.8241 -0.4237 -4.1771 0
M  V30 35 H -3.3832 -1.9815 -4.9276 0
M  V30 36 H -0.4987 0.2035 -5.7125 0
M  V30 37 H -2.2042 0.7016 -5.7246 0
M  V30 38 H -1.7251 -0.8739 -6.4143 0
M  V30 39 H 3.9106 1.0692 0.0276 0
M  V30 40 H -0.2966 -1.6496 2.5723 0
M  V30 41 H -1.8337 2.355 3.0456 0
M  V30 42 H 2.6055 3.949 3.8559 0
M  V30 43 H 5.4052 2.8558 0.7762 0
M  V30 44 H -2.5182 -2.5582 3.1062 0
M  V30 45 H -4.0561 1.4243 3.5918 0
M  V30 46 H 4.8136 4.3127 2.7046 0
M  V30 47 H -4.4072 -1.0332 3.6188 0
M  V30 END ATOM
M  V30 BEGIN BOND
M  V30 1 2 1 2
M  V30 2 1 2 3
M  V30 3 1 2 4
M  V30 4 1 3 5
M  V30 5 1 3 6
M  V30 6 2 4 7
M  V30 7 2 5 8
M  V30 8 1 6 9
M  V30 9 1 8 10
M  V30 10 2 9 11
M  V30 11 1 9 12
M  V30 12 1 10 13
M  V30 13 2 10 14
M  V30 14 1 12 15
M  V30 15 1 12 16
M  V30 16 2 13 17
M  V30 17 1 13 18
M  V30 18 1 14 19
M  V30 19 1 14 20
M  V30 20 2 18 21
M  V30 21 1 18 22
M  V30 22 1 19 23
M  V30 23 2 20 24
M  V30 24 1 21 25
M  V30 25 2 22 26
M  V30 26 2 23 27
M  V30 27 2 25 28
M  V30 28 1 7 8
M  V30 29 1 17 19
M  V30 30 1 24 27
M  V30 31 1 26 28
M  V30 32 1 4 29
M  V30 33 1 6 30
M  V30 34 1 6 31
M  V30 35 1 7 32
M  V30 36 1 15 33
M  V30 37 1 15 34
M  V30 38 1 15 35
M  V30 39 1 16 36
M  V30 40 1 16 37
M  V30 41 1 16 38
M  V30 42 1 20 39
M  V30 43 1 21 40
M  V30 44 1 22 41
M  V30 45 1 23 42
M  V30 46 1 24 43
M  V30 47 1 25 44
M  V30 48 1 26 45
M  V30 49 1 27 46
M  V30 50 1 28 47
M  V30 END BOND
M  V30 END CTAB
M  END
>  <NO.>
135

>  <Name>
compound 17

>  <SMILES>
CN(C)C(=O)Cn1nc(-c2c(-c3ccccc3)nn3ccccc23)ccc1=O

>  <logBB>
-1

>  <Class>
1

>  <MW>
373.15

>  <nHBAcc>
4

>  <nHBDon>
0

>  <SLogP>
2.31

>  <TopoPSA>
72.5

>  <MMFF94 Energy>
103

$$$$
CN1CC(=O)N2C(Cc3c([nH]c4ccccc34)C2c2ccc3c(c2)OCO3)C1=O
Actelion Java MolfileCreator 2.0

  0  0  0  0  0  0              0 V3000
M  V30 BEGIN CTAB
M  V30 COUNTS 48 53 0 0 0
M  V30 BEGIN ATOM
M  V30 1 O -0.6493 1.8676 3.8193 0
M  V30 2 C -1.2511 1.2005 2.9774 0
M  V30 3 N -2.5978 0.9031 3.0994 0
M  V30 4 C -0.5726 0.7349 1.6657 0
M  V30 5 C -3.3609 0.5403 1.9203 0
M  V30 6 C -3.3307 1.3121 4.282 0
M  V30 7 N -1.2854 -0.3733 0.9635 0
M  V30 8 C 0.8875 0.3813 2.0683 0
M  V30 9 C -2.6651 -0.5162 1.074 0
M  V30 10 C -0.6319 -1.0808 -0.1535 0
M  V30 11 C 1.551 -0.4943 1.0734 0
M  V30 12 O -3.3158 -1.3363 0.427 0
M  V30 13 C -0.9391 -0.4137 -1.4989 0
M  V30 14 C 0.8359 -1.1592 0.1045 0
M  V30 15 C 2.9202 -0.8416 0.9205 0
M  V30 16 C -0.3045 0.7787 -1.8989 0
M  V30 17 C -1.9018 -0.9963 -2.362 0
M  V30 18 N 1.7163 -1.903 -0.6359 0
M  V30 19 C 2.9973 -1.7226 -0.1607 0
M  V30 20 C 4.1058 -0.4951 1.597 0
M  V30 21 C -0.6416 1.3263 -3.1194 0
M  V30 22 C -2.223 -0.417 -3.5945 0
M  V30 23 C 4.2075 -2.2694 -0.6033 0
M  V30 24 C 5.3236 -1.0348 1.1673 0
M  V30 25 O -0.121 2.4664 -3.6473 0
M  V30 26 C -1.5733 0.7445 -3.9442 0
M  V30 27 C 5.3709 -1.9078 0.0826 0
M  V30 28 C -0.8296 2.5319 -4.9024 0
M  V30 29 O -1.7569 1.4437 -5.0955 0
M  V30 30 H -0.5802 1.5915 0.9806 0
M  V30 31 H -3.5112 1.4382 1.3115 0
M  V30 32 H -4.3314 0.1402 2.2321 0
M  V30 33 H -3.8626 2.2421 4.0607 0
M  V30 34 H -4.0476 0.5303 4.5484 0
M  V30 35 H -2.659 1.4794 5.1284 0
M  V30 36 H 1.4634 1.3042 2.2095 0
M  V30 37 H 0.8959 -0.1497 3.0301 0
M  V30 38 H -1.0247 -2.1066 -0.1712 0
M  V30 39 H 0.4429 1.2645 -1.2803 0
M  V30 40 H -2.4219 -1.9056 -2.0606 0
M  V30 41 H 1.476 -2.4802 -1.4306 0
M  V30 42 H 4.0792 0.1844 2.4436 0
M  V30 43 H -2.9639 -0.863 -4.2484 0
M  V30 44 H 4.2487 -2.9511 -1.4463 0
M  V30 45 H 6.2406 -0.7684 1.6871 0
M  V30 46 H 6.3274 -2.316 -0.2356 0
M  V30 47 H -1.3843 3.4764 -4.9427 0
M  V30 48 H -0.0984 2.5186 -5.7189 0
M  V30 END ATOM
M  V30 BEGIN BOND
M  V30 1 2 1 2
M  V30 2 1 2 3
M  V30 3 1 2 4
M  V30 4 1 3 5
M  V30 5 1 3 6
M  V30 6 1 4 7
M  V30 7 1 4 8
M  V30 8 1 5 9
M  V30 9 1 7 10
M  V30 10 1 8 11
M  V30 11 2 9 12
M  V30 12 1 10 13
M  V30 13 1 10 14
M  V30 14 1 11 15
M  V30 15 2 13 16
M  V30 16 1 13 17
M  V30 17 1 14 18
M  V30 18 2 15 19
M  V30 19 1 15 20
M  V30 20 1 16 21
M  V30 21 2 17 22
M  V30 22 1 19 23
M  V30 23 2 20 24
M  V30 24 1 21 25
M  V30 25 2 21 26
M  V30 26 2 23 27
M  V30 27 1 25 28
M  V30 28 1 26 29
M  V30 29 1 7 9
M  V30 30 2 11 14
M  V30 31 1 18 19
M  V30 32 1 22 26
M  V30 33 1 24 27
M  V30 34 1 28 29
M  V30 35 1 4 30
M  V30 36 1 5 31
M  V30 37 1 5 32
M  V30 38 1 6 33
M  V30 39 1 6 34
M  V30 40 1 6 35
M  V30 41 1 8 36
M  V30 42 1 8 37
M  V30 43 1 10 38
M  V30 44 1 16 39
M  V30 45 1 17 40
M  V30 46 1 18 41
M  V30 47 1 20 42
M  V30 48 1 22 43
M  V30 49 1 23 44
M  V30 50 1 24 45
M  V30 51 1 27 46
M  V30 52 1 28 47
M  V30 53 1 28 48
M  V30 END BOND
M  V30 END CTAB
M  END
>  <NO.>
136

>  <Name>
ac1nfq3w

>  <SMILES>
CN1CC(=O)N2C(Cc3c([nH]c4ccccc34)C2c2ccc3c(c2)OCO3)C1=O

>  <logBB>
-1

>  <Class>
1

>  <MW>
389.14

>  <nHBAcc>
4

>  <nHBDon>
1

>  <SLogP>
2.21

>  <TopoPSA>
74.87

>  <MMFF94 Energy>
93.402

$$$$
COC(=O)C1C(=O)C=C(Nc2cccc([N+](=O)[O-])c2)CC1C
Actelion Java MolfileCreator 2.0

  0  0  0  0  0  0              0 V3000
M  V30 BEGIN CTAB
M  V30 COUNTS 38 39 0 0 0
M  V30 BEGIN ATOM
M  V30 1 O -1.3565 -5.5147 -2.6346 0
M  V30 2 N -0.9732 -4.5169 -2.0071 0 CHG=1
M  V30 3 O -0.6245 -4.5268 -0.8181 0 CHG=-1
M  V30 4 C -0.9252 -3.2369 -2.7241 0
M  V30 5 C -0.5268 -2.0757 -2.0435 0
M  V30 6 C -1.2702 -3.1915 -4.0795 0
M  V30 7 C -0.4588 -0.8511 -2.7169 0
M  V30 8 C -1.2109 -1.9753 -4.7542 0
M  V30 9 N -0.0989 0.3547 -2.0887 0
M  V30 10 C -0.8104 -0.8196 -4.0766 0
M  V30 11 C -0.1872 0.7365 -0.7602 0
M  V30 12 C -1.074 0.2596 0.1299 0
M  V30 13 C 0.7761 1.8351 -0.3535 0
M  V30 14 C -1.1624 0.7674 1.5204 0
M  V30 15 C 1.0936 1.8374 1.1488 0
M  V30 16 O -2.0601 0.3333 2.2408 0
M  V30 17 C -0.2071 1.8522 1.9684 0
M  V30 18 C 1.9954 3.0316 1.4791 0
M  V30 19 C 0.0876 1.749 3.4459 0
M  V30 20 O -0.0334 2.6858 4.2265 0
M  V30 21 O 0.5701 0.5184 3.7728 0
M  V30 22 C 0.8491 0.3526 5.1635 0
M  V30 23 H -0.2366 -2.1332 -0.9974 0
M  V30 24 H -1.5826 -4.0846 -4.6167 0
M  V30 25 H -1.4808 -1.9218 -5.8066 0
M  V30 26 H 0.3365 1.033 -2.7091 0
M  V30 27 H -0.788 0.1215 -4.6228 0
M  V30 28 H -1.8185 -0.4846 -0.127 0
M  V30 29 H 0.3545 2.8013 -0.661 0
M  V30 30 H 1.7195 1.7116 -0.9022 0
M  V30 31 H 1.6577 0.9221 1.3783 0
M  V30 32 H -0.7358 2.8018 1.8063 0
M  V30 33 H 2.3237 3.0059 2.5229 0
M  V30 34 H 1.4758 3.9807 1.309 0
M  V30 35 H 2.8948 3.0222 0.8541 0
M  V30 36 H 1.1841 -0.6761 5.3213 0
M  V30 37 H 1.6504 1.03 5.4747 0
M  V30 38 H -0.0535 0.5181 5.76 0
M  V30 END ATOM
M  V30 BEGIN BOND
M  V30 1 2 1 2
M  V30 2 1 2 3
M  V30 3 1 2 4
M  V30 4 2 4 5
M  V30 5 1 4 6
M  V30 6 1 5 7
M  V30 7 2 6 8
M  V30 8 1 7 9
M  V30 9 2 7 10
M  V30 10 1 9 11
M  V30 11 2 11 12
M  V30 12 1 11 13
M  V30 13 1 12 14
M  V30 14 1 13 15
M  V30 15 2 14 16
M  V30 16 1 14 17
M  V30 17 1 15 18
M  V30 18 1 17 19
M  V30 19 2 19 20
M  V30 20 1 19 21
M  V30 21 1 21 22
M  V30 22 1 8 10
M  V30 23 1 15 17
M  V30 24 1 5 23
M  V30 25 1 6 24
M  V30 26 1 8 25
M  V30 27 1 9 26
M  V30 28 1 10 27
M  V30 29 1 12 28
M  V30 30 1 13 29
M  V30 31 1 13 30
M  V30 32 1 15 31
M  V30 33 1 17 32
M  V30 34 1 18 33
M  V30 35 1 18 34
M  V30 36 1 18 35
M  V30 37 1 22 36
M  V30 38 1 22 37
M  V30 39 1 22 38
M  V30 END BOND
M  V30 END CTAB
M  END
>  <NO.>
137

>  <Name>
156154-71-1

>  <SMILES>
COC(=O)C1C(=O)C=C(Nc2cccc([N+](=O)[O-])c2)CC1C

>  <logBB>
-1

>  <Class>
1

>  <MW>
304.11

>  <nHBAcc>
6

>  <nHBDon>
1

>  <SLogP>
2.29

>  <TopoPSA>
98.54

>  <MMFF94 Energy>
37.309

$$$$
COc1cc(N)cn[n+]1-c1ccccc1
Actelion Java MolfileCreator 2.0

  0  0  0  0  0  0              0 V3000
M  V30 BEGIN CTAB
M  V30 COUNTS 27 28 0 0 0
M  V30 BEGIN ATOM
M  V30 1 O 0.2368 -1.2637 -1.5798 0
M  V30 2 C 0.1603 -1.1454 -0.2022 0
M  V30 3 C -1.0708 -1.4502 -2.1312 0
M  V30 4 N 0.1308 0.0469 0.4405 0 CHG=1
M  V30 5 C 0.1172 -2.3471 0.5183 0
M  V30 6 N -0.0876 0.0355 1.9655 0
M  V30 7 C 0.2756 1.3357 -0.1981 0
M  V30 8 C -0.0163 -2.3807 1.9008 0
M  V30 9 C -0.1412 -1.1691 2.557 0
M  V30 10 C -0.2545 2.446 0.4704 0
M  V30 11 C 0.9549 1.501 -1.4082 0
M  V30 12 N -0.1047 -3.5867 2.5673 0
M  V30 13 C -0.136 3.7176 -0.0934 0
M  V30 14 C 1.0697 2.778 -1.9647 0
M  V30 15 C 0.5211 3.881 -1.3113 0
M  V30 16 H -1.4726 -2.4323 -1.8612 0
M  V30 17 H -1.7543 -0.6561 -1.8106 0
M  V30 18 H -0.9833 -1.4055 -3.2207 0
M  V30 19 H 0.18 -3.2848 -0.0327 0
M  V30 20 H -0.2887 -1.1351 3.6345 0
M  V30 21 H -0.7765 2.3493 1.4187 0
M  V30 22 H 1.4427 0.6846 -1.93 0
M  V30 23 H -0.1449 -3.635 3.5809 0
M  V30 24 H 0.0537 -4.4701 2.0934 0
M  V30 25 H -0.5535 4.5852 0.4157 0
M  V30 26 H 1.6007 2.92 -2.9053 0
M  V30 27 H 0.6167 4.8745 -1.7481 0
M  V30 END ATOM
M  V30 BEGIN BOND
M  V30 1 1 1 2
M  V30 2 1 1 3
M  V30 3 2 2 4
M  V30 4 1 2 5
M  V30 5 1 4 6
M  V30 6 1 4 7
M  V30 7 2 5 8
M  V30 8 2 6 9
M  V30 9 2 7 10
M  V30 10 1 7 11
M  V30 11 1 8 12
M  V30 12 1 10 13
M  V30 13 2 11 14
M  V30 14 2 13 15
M  V30 15 1 8 9
M  V30 16 1 14 15
M  V30 17 1 3 16
M  V30 18 1 3 17
M  V30 19 1 3 18
M  V30 20 1 5 19
M  V30 21 1 9 20
M  V30 22 1 10 21
M  V30 23 1 11 22
M  V30 24 1 12 23
M  V30 25 1 12 24
M  V30 26 1 13 25
M  V30 27 1 14 26
M  V30 28 1 15 27
M  V30 END BOND
M  V30 END CTAB
M  END
>  <NO.>
139

>  <Name>
amezinium

>  <SMILES>
COc1cc(N)cn[n+]1-c1ccccc1

>  <logBB>
-1

>  <Class>
1

>  <MW>
202.1

>  <nHBAcc>
3

>  <nHBDon>
1

>  <SLogP>
0.95

>  <TopoPSA>
52.02

>  <MMFF94 Energy>
107.59

$$$$
COc1cc2c(cc1CNC1C3CCN(C3)C1C(c1ccccc1)c1ccccc1)N(S(C)(=O)=O)CC2
Actelion Java MolfileCreator 2.0

  0  0  0  0  0  0              0 V3000
M  V30 BEGIN CTAB
M  V30 COUNTS 72 77 0 0 0
M  V30 BEGIN ATOM
M  V30 1 S 1.7818 3.4038 2.5115 0
M  V30 2 O 2.9975 3.7627 1.8104 0
M  V30 3 O 0.5673 3.0937 1.7868 0
M  V30 4 N 2.1394 2.1482 3.604 0
M  V30 5 C 1.3812 4.7278 3.6316 0
M  V30 6 C 2.3026 0.827 3.0634 0
M  V30 7 C 3.3199 2.3744 4.5062 0
M  V30 8 C 3.3062 0.1444 3.7417 0
M  V30 9 C 1.5394 0.179 2.1108 0
M  V30 10 C 3.8962 0.9868 4.8234 0
M  V30 11 C 3.6152 -1.1763 3.4442 0
M  V30 12 C 1.8519 -1.1513 1.7546 0
M  V30 13 C 2.8912 -1.8306 2.4401 0
M  V30 14 C 1.0233 -1.8767 0.7068 0
M  V30 15 O 3.0971 -3.1356 2.0693 0
M  V30 16 N 0.4992 -0.9745 -0.3211 0
M  V30 17 C 4.1612 -3.839 2.6972 0
M  V30 18 C -0.357 -1.6526 -1.2944 0
M  V30 19 C -1.0328 -0.6763 -2.3142 0
M  V30 20 C 0.3541 -2.637 -2.2453 0
M  V30 21 N -0.7525 -1.3432 -3.6527 0
M  V30 22 C -2.5708 -0.4709 -2.0654 0
M  V30 23 C -0.711 -2.7896 -3.3148 0
M  V30 24 C 1.4655 -1.9617 -3.0539 0
M  V30 25 C 0.6683 -1.0656 -4.0009 0
M  V30 26 C -2.9702 -1.0E-4 -0.6638 0
M  V30 27 C -3.2084 0.4189 -3.1387 0
M  V30 28 C -4.1767 -0.462 -0.1064 0
M  V30 29 C -2.2034 0.9067 0.0813 0
M  V30 30 C -2.8566 1.7711 -3.2789 0
M  V30 31 C -4.1734 -0.1146 -4.0088 0
M  V30 32 C -4.5871 -0.05 1.1632 0
M  V30 33 C -2.6134 1.3161 1.3527 0
M  V30 34 C -3.4543 2.5659 -4.2592 0
M  V30 35 C -4.7691 0.6815 -4.9893 0
M  V30 36 C -3.8025 0.8367 1.8947 0
M  V30 37 C -4.4101 2.0215 -5.1136 0
M  V30 38 H 0.5603 4.4096 4.2771 0
M  V30 39 H 1.0679 5.5874 3.0345 0
M  V30 40 H 2.2638 4.9923 4.2156 0
M  V30 41 H 3.0113 2.8898 5.421 0
M  V30 42 H 4.0855 2.9786 4.0062 0
M  V30 43 H 0.6999 0.6777 1.6373 0
M  V30 44 H 4.9897 0.9939 4.8014 0
M  V30 45 H 3.5498 0.6368 5.8016 0
M  V30 46 H 4.3966 -1.6693 4.01 0
M  V30 47 H 0.1986 -2.3784 1.2272 0
M  V30 48 H 1.6393 -2.6385 0.2181 0
M  V30 49 H 1.2733 -0.4972 -0.7776 0
M  V30 50 H 5.1238 -3.3527 2.5077 0
M  V30 51 H 4.2031 -4.8407 2.2591 0
M  V30 52 H 3.978 -3.9534 3.7706 0
M  V30 53 H -1.1405 -2.202 -0.7541 0
M  V30 54 H -0.5453 0.3078 -2.2984 0
M  V30 55 H 0.6634 -3.57 -1.7688 0
M  V30 56 H -3.0196 -1.47 -2.1687 0
M  V30 57 H -0.4014 -3.4046 -4.1682 0
M  V30 58 H -1.6699 -3.1693 -2.946 0
M  V30 59 H 2.0255 -2.7099 -3.6274 0
M  V30 60 H 2.1782 -1.4025 -2.4432 0
M  V30 61 H 0.9293 -0.0061 -3.9042 0
M  V30 62 H 0.8537 -1.349 -5.0437 0
M  V30 63 H -4.8111 -1.1453 -0.6668 0
M  V30 64 H -1.2709 1.3088 -0.3074 0
M  V30 65 H -2.1157 2.2191 -2.6217 0
M  V30 66 H -4.4614 -1.16 -3.9331 0
M  V30 67 H -5.5216 -0.4182 1.5773 0
M  V30 68 H -1.9959 2.0127 1.9149 0
M  V30 69 H -3.1722 3.6109 -4.3532 0
M  V30 70 H -5.511 0.2534 -5.6574 0
M  V30 71 H -4.1181 1.1595 2.8825 0
M  V30 72 H -4.8731 2.6407 -5.8766 0
M  V30 END ATOM
M  V30 BEGIN BOND
M  V30 1 2 1 2
M  V30 2 2 1 3
M  V30 3 1 1 4
M  V30 4 1 1 5
M  V30 5 1 4 6
M  V30 6 1 4 7
M  V30 7 2 6 8
M  V30 8 1 6 9
M  V30 9 1 7 10
M  V30 10 1 8 11
M  V30 11 2 9 12
M  V30 12 2 11 13
M  V30 13 1 12 14
M  V30 14 1 13 15
M  V30 15 1 14 16
M  V30 16 1 15 17
M  V30 17 1 16 18
M  V30 18 1 18 19
M  V30 19 1 18 20
M  V30 20 1 19 21
M  V30 21 1 19 22
M  V30 22 1 20 23
M  V30 23 1 20 24
M  V30 24 1 21 25
M  V30 25 1 22 26
M  V30 26 1 22 27
M  V30 27 2 26 28
M  V30 28 1 26 29
M  V30 29 2 27 30
M  V30 30 1 27 31
M  V30 31 1 28 32
M  V30 32 2 29 33
M  V30 33 1 30 34
M  V30 34 2 31 35
M  V30 35 2 32 36
M  V30 36 2 34 37
M  V30 37 1 8 10
M  V30 38 1 12 13
M  V30 39 1 21 23
M  V30 40 1 24 25
M  V30 41 1 33 36
M  V30 42 1 35 37
M  V30 43 1 5 38
M  V30 44 1 5 39
M  V30 45 1 5 40
M  V30 46 1 7 41
M  V30 47 1 7 42
M  V30 48 1 9 43
M  V30 49 1 10 44
M  V30 50 1 10 45
M  V30 51 1 11 46
M  V30 52 1 14 47
M  V30 53 1 14 48
M  V30 54 1 16 49
M  V30 55 1 17 50
M  V30 56 1 17 51
M  V30 57 1 17 52
M  V30 58 1 18 53
M  V30 59 1 19 54
M  V30 60 1 20 55
M  V30 61 1 22 56
M  V30 62 1 23 57
M  V30 63 1 23 58
M  V30 64 1 24 59
M  V30 65 1 24 60
M  V30 66 1 25 61
M  V30 67 1 25 62
M  V30 68 1 28 63
M  V30 69 1 29 64
M  V30 70 1 30 65
M  V30 71 1 31 66
M  V30 72 1 32 67
M  V30 73 1 33 68
M  V30 74 1 34 69
M  V30 75 1 35 70
M  V30 76 1 36 71
M  V30 77 1 37 72
M  V30 END BOND
M  V30 END CTAB
M  END
>  <NO.>
140

>  <Name>
-

>  <SMILES>
COc1cc2c(cc1CNC1C3CCN(C3)C1C(c1ccccc1)c1ccccc1)N(S(C)(=O)=O)CC2

>  <logBB>
-1

>  <Class>
1

>  <MW>
517.24

>  <nHBAcc>
5

>  <nHBDon>
1

>  <SLogP>
4.01

>  <TopoPSA>
61.88

>  <MMFF94 Energy>
112.98

$$$$
CSc1nn2c(N3CCNCC3)c3c(nc2c1S(=O)(=O)c1ccccc1)CCC3
Actelion Java MolfileCreator 2.0

  0  0  0  0  0  0              0 V3000
M  V30 BEGIN CTAB
M  V30 COUNTS 52 56 0 0 0
M  V30 BEGIN ATOM
M  V30 1 S -2.7979 1.8097 -1.7274 0
M  V30 2 O -3.0953 1.4496 -3.1001 0
M  V30 3 O -2.553 3.1892 -1.3586 0
M  V30 4 C -4.0793 1.1971 -0.6689 0
M  V30 5 C -1.4022 0.9108 -1.3182 0
M  V30 6 C -5.156 0.4875 -1.2064 0
M  V30 7 C -4.0071 1.4594 0.7034 0
M  V30 8 C -1.1669 -0.4463 -1.5817 0
M  V30 9 C -0.3015 1.3428 -0.6047 0
M  V30 10 C -6.1563 0.0158 -0.3567 0
M  V30 11 C -5.0124 0.9854 1.5452 0
M  V30 12 S -2.2424 -1.5854 -2.3671 0
M  V30 13 N 0.0155 -0.8554 -1.1283 0
M  V30 14 N -5.0E-4 2.5416 -0.016 0
M  V30 15 N 0.5804 0.2443 -0.5532 0
M  V30 16 C -6.0829 0.2623 1.0156 0
M  V30 17 C -1.2981 -3.1216 -2.2918 0
M  V30 18 C 1.157 2.6104 0.5538 0
M  V30 19 C 1.8659 0.3418 0.0777 0
M  V30 20 C 2.1763 1.5294 0.6266 0
M  V30 21 C 1.6581 3.845 1.2369 0
M  V30 22 N 2.7231 -0.7719 0.087 0
M  V30 23 C 3.368 2.0868 1.3251 0
M  V30 24 C 2.792 3.2805 2.0932 0
M  V30 25 C 2.9807 -1.5959 -1.1122 0
M  V30 26 C 3.3733 -1.2815 1.3067 0
M  V30 27 C 2.6746 -3.0837 -0.8415 0
M  V30 28 C 3.0817 -2.7887 1.5016 0
M  V30 29 N 3.4083 -3.6214 0.326 0
M  V30 30 H -5.2219 0.2951 -2.2752 0
M  V30 31 H -3.182 2.0368 1.1165 0
M  V30 32 H -6.996 -0.542 -0.7644 0
M  V30 33 H -4.9668 1.1843 2.6131 0
M  V30 34 H -6.8671 -0.1045 1.6738 0
M  V30 35 H -0.3517 -3.0252 -2.8312 0
M  V30 36 H -1.8788 -3.9195 -2.7627 0
M  V30 37 H -1.1034 -3.4089 -1.2547 0
M  V30 38 H 2.0271 4.548 0.484 0
M  V30 39 H 0.8802 4.3173 1.8417 0
M  V30 40 H 3.8514 1.3861 2.0084 0
M  V30 41 H 4.1033 2.4302 0.5893 0
M  V30 42 H 3.5547 4.0356 2.3077 0
M  V30 43 H 2.3891 2.9381 3.0557 0
M  V30 44 H 2.4177 -1.2479 -1.9846 0
M  V30 45 H 4.0407 -1.488 -1.3759 0
M  V30 46 H 3.0163 -0.7513 2.1968 0
M  V30 47 H 4.4545 -1.1164 1.2301 0
M  V30 48 H 1.5994 -3.228 -0.6837 0
M  V30 49 H 2.9467 -3.6736 -1.7234 0
M  V30 50 H 2.0219 -2.9278 1.7501 0
M  V30 51 H 3.6554 -3.1563 2.3595 0
M  V30 52 H 4.4067 -3.5305 0.1392 0
M  V30 END ATOM
M  V30 BEGIN BOND
M  V30 1 2 1 2
M  V30 2 2 1 3
M  V30 3 1 1 4
M  V30 4 1 1 5
M  V30 5 2 4 6
M  V30 6 1 4 7
M  V30 7 1 5 8
M  V30 8 2 5 9
M  V30 9 1 6 10
M  V30 10 2 7 11
M  V30 11 1 8 12
M  V30 12 2 8 13
M  V30 13 1 9 14
M  V30 14 1 9 15
M  V30 15 2 10 16
M  V30 16 1 12 17
M  V30 17 2 14 18
M  V30 18 1 15 19
M  V30 19 1 18 20
M  V30 20 1 18 21
M  V30 21 1 19 22
M  V30 22 1 20 23
M  V30 23 1 21 24
M  V30 24 1 22 25
M  V30 25 1 22 26
M  V30 26 1 25 27
M  V30 27 1 26 28
M  V30 28 1 27 29
M  V30 29 1 11 16
M  V30 30 1 13 15
M  V30 31 2 19 20
M  V30 32 1 23 24
M  V30 33 1 28 29
M  V30 34 1 6 30
M  V30 35 1 7 31
M  V30 36 1 10 32
M  V30 37 1 11 33
M  V30 38 1 16 34
M  V30 39 1 17 35
M  V30 40 1 17 36
M  V30 41 1 17 37
M  V30 42 1 21 38
M  V30 43 1 21 39
M  V30 44 1 23 40
M  V30 45 1 23 41
M  V30 46 1 24 42
M  V30 47 1 24 43
M  V30 48 1 25 44
M  V30 49 1 25 45
M  V30 50 1 26 46
M  V30 51 1 26 47
M  V30 52 1 27 48
M  V30 53 1 27 49
M  V30 54 1 28 50
M  V30 55 1 28 51
M  V30 56 1 29 52
M  V30 END BOND
M  V30 END CTAB
M  END
>  <NO.>
141

>  <Name>
ro65-7674

>  <SMILES>
CSc1nn2c(N3CCNCC3)c3c(nc2c1S(=O)(=O)c1ccccc1)CCC3

>  <logBB>
-1

>  <Class>
1

>  <MW>
429.13

>  <nHBAcc>
7

>  <nHBDon>
1

>  <SLogP>
2.18

>  <TopoPSA>
79.6

>  <MMFF94 Energy>
195.8

$$$$
Cc1cc2ccccc2n1CCNC(=O)/C=C/c1ccc(OCCO)c(OCCO)c1
Actelion Java MolfileCreator 2.0

  0  0  0  0  0  0              0 V3000
M  V30 BEGIN CTAB
M  V30 COUNTS 59 61 0 0 0
M  V30 BEGIN ATOM
M  V30 1 O 2.4456 1.1828 -3.1565 0
M  V30 2 C 1.512 1.8229 -2.6932 0
M  V30 3 N 1.5468 3.1699 -2.419 0
M  V30 4 C 0.218 1.2053 -2.3236 0
M  V30 5 C 2.7988 3.904 -2.4349 0
M  V30 6 C 0.1852 -0.1068 -2.0516 0
M  V30 7 C 3.3604 4.1593 -1.0307 0
M  V30 8 C -1.0238 -0.7684 -1.5616 0
M  V30 9 N 3.6322 2.9509 -0.2641 0
M  V30 10 C -0.9859 -1.4061 -0.3158 0
M  V30 11 C -2.2052 -0.7793 -2.3045 0
M  V30 12 C 2.7498 2.3783 0.6405 0
M  V30 13 C 4.8033 2.2218 -0.3102 0
M  V30 14 C -2.1234 -2.0419 0.1953 0
M  V30 15 C -3.3465 -1.4114 -1.8033 0
M  V30 16 C 3.3723 1.238 1.1526 0
M  V30 17 C 1.4549 2.7505 1.0444 0
M  V30 18 C 4.6551 1.1556 0.5541 0
M  V30 19 C 5.9626 2.5658 -1.1753 0
M  V30 20 O -2.1732 -2.6755 1.4133 0
M  V30 21 C -3.316 -2.0439 -0.5557 0
M  V30 22 C 2.6854 0.441 2.0903 0
M  V30 23 C 0.7908 1.9422 1.9726 0
M  V30 24 C -0.9394 -2.8616 2.1128 0
M  V30 25 O -4.3897 -2.6805 0.0159 0
M  V30 26 C 1.3961 0.8029 2.4913 0
M  V30 27 C -1.218 -3.6606 3.3846 0
M  V30 28 C -5.5533 -2.8771 -0.7916 0
M  V30 29 O -1.7515 -2.8079 4.397 0
M  V30 30 C -6.5659 -3.6937 0.0098 0
M  V30 31 O -7.2508 -2.8568 0.9406 0
M  V30 32 H 0.721 3.6255 -2.0568 0
M  V30 33 H -0.652 1.8388 -2.218 0
M  V30 34 H 2.5937 4.8638 -2.9204 0
M  V30 35 H 3.5325 3.3719 -3.0486 0
M  V30 36 H 1.0855 -0.7154 -2.1089 0
M  V30 37 H 4.2932 4.7296 -1.0971 0
M  V30 38 H 2.6649 4.7744 -0.449 0
M  V30 39 H -0.0584 -1.3723 0.2475 0
M  V30 40 H -2.2483 -0.2991 -3.2792 0
M  V30 41 H -4.2456 -1.3851 -2.409 0
M  V30 42 H 0.968 3.6361 0.653 0
M  V30 43 H 5.3959 0.3877 0.7337 0
M  V30 44 H 5.6718 2.5865 -2.2296 0
M  V30 45 H 6.3738 3.5426 -0.9026 0
M  V30 46 H 6.7626 1.8261 -1.0661 0
M  V30 47 H 3.1557 -0.4472 2.5005 0
M  V30 48 H -0.2132 2.2083 2.2954 0
M  V30 49 H -0.5114 -1.8892 2.3796 0
M  V30 50 H -0.2493 -3.4331 1.4817 0
M  V30 51 H 0.8646 0.1915 3.2165 0
M  V30 52 H -1.9382 -4.4626 3.1931 0
M  V30 53 H -0.2895 -4.0873 3.7748 0
M  V30 54 H -5.2787 -3.4419 -1.6898 0
M  V30 55 H -5.9906 -1.9083 -1.0581 0
M  V30 56 H -2.1536 -3.3825 5.0699 0
M  V30 57 H -7.319 -4.1234 -0.6569 0
M  V30 58 H -6.069 -4.4951 0.5659 0
M  V30 59 H -7.6606 -3.4405 1.601 0
M  V30 END ATOM
M  V30 BEGIN BOND
M  V30 1 2 1 2
M  V30 2 1 2 3
M  V30 3 1 2 4
M  V30 4 1 3 5
M  V30 5 2 4 6
M  V30 6 1 5 7
M  V30 7 1 6 8
M  V30 8 1 7 9
M  V30 9 2 8 10
M  V30 10 1 8 11
M  V30 11 1 9 12
M  V30 12 1 9 13
M  V30 13 1 10 14
M  V30 14 2 11 15
M  V30 15 2 12 16
M  V30 16 1 12 17
M  V30 17 2 13 18
M  V30 18 1 13 19
M  V30 19 1 14 20
M  V30 20 2 14 21
M  V30 21 1 16 22
M  V30 22 2 17 23
M  V30 23 1 20 24
M  V30 24 1 21 25
M  V30 25 2 22 26
M  V30 26 1 24 27
M  V30 27 1 25 28
M  V30 28 1 27 29
M  V30 29 1 28 30
M  V30 30 1 30 31
M  V30 31 1 15 21
M  V30 32 1 16 18
M  V30 33 1 23 26
M  V30 34 1 3 32
M  V30 35 1 4 33
M  V30 36 1 5 34
M  V30 37 1 5 35
M  V30 38 1 6 36
M  V30 39 1 7 37
M  V30 40 1 7 38
M  V30 41 1 10 39
M  V30 42 1 11 40
M  V30 43 1 15 41
M  V30 44 1 17 42
M  V30 45 1 18 43
M  V30 46 1 19 44
M  V30 47 1 19 45
M  V30 48 1 19 46
M  V30 49 1 22 47
M  V30 50 1 23 48
M  V30 51 1 24 49
M  V30 52 1 24 50
M  V30 53 1 26 51
M  V30 54 1 27 52
M  V30 55 1 27 53
M  V30 56 1 28 54
M  V30 57 1 28 55
M  V30 58 1 29 56
M  V30 59 1 30 57
M  V30 60 1 30 58
M  V30 61 1 31 59
M  V30 END BOND
M  V30 END CTAB
M  END
>  <NO.>
142

>  <Name>
chembl3264225

>  <SMILES>
Cc1cc2ccccc2n1CCNC(=O)/C=C/c1ccc(OCCO)c(OCCO)c1

>  <logBB>
-1

>  <Class>
1

>  <MW>
424.2

>  <nHBAcc>
5

>  <nHBDon>
3

>  <SLogP>
2.52

>  <TopoPSA>
92.95

>  <MMFF94 Energy>
71.845

$$$$
Cc1ccc(-c2cc(C(F)(F)F)nn2-c2ccc(S(N)(=O)=O)cc2)cc1
Actelion Java MolfileCreator 2.0

  0  0  0  0  0  0              0 V3000
M  V30 BEGIN CTAB
M  V30 COUNTS 40 42 0 0 0
M  V30 BEGIN ATOM
M  V30 1 S 3.1195 -3.5305 -1.9693 0
M  V30 2 O 2.3092 -4.1634 -2.9833 0
M  V30 3 O 4.0971 -4.2555 -1.1925 0
M  V30 4 N 3.967 -2.3108 -2.7534 0
M  V30 5 C 2.0759 -2.6048 -0.8811 0
M  V30 6 C 2.5206 -2.3019 0.4096 0
M  V30 7 C 0.7964 -2.2302 -1.3045 0
M  V30 8 C 1.6876 -1.5917 1.2759 0
M  V30 9 C -0.0383 -1.5209 -0.4383 0
M  V30 10 C 0.4158 -1.1874 0.8449 0
M  V30 11 N -0.4201 -0.4731 1.7415 0
M  V30 12 N -0.4917 -0.8834 3.0339 0
M  V30 13 C -1.2661 0.6014 1.4827 0
M  V30 14 C -1.463 -0.1407 3.5911 0
M  V30 15 C -1.3159 1.4022 0.2532 0
M  V30 16 C -1.9742 0.7906 2.6573 0
M  V30 17 C -1.8904 -0.3018 5.0252 0
M  V30 18 C -0.1452 1.8361 -0.3828 0
M  V30 19 C -2.544 1.8853 -0.218 0
M  V30 20 F -2.3738 -1.5445 5.2882 0
M  V30 21 F -0.8756 -0.073 5.9 0
M  V30 22 F -2.8834 0.5716 5.3546 0
M  V30 23 C -0.2049 2.6676 -1.506 0
M  V30 24 C -2.6061 2.7164 -1.341 0
M  V30 25 C -1.4358 3.119 -1.9903 0
M  V30 26 C -1.5022 3.9839 -3.2139 0
M  V30 27 H 3.7567 -2.3341 -3.7515 0
M  V30 28 H 4.9617 -2.3941 -2.5414 0
M  V30 29 H 3.5047 -2.6185 0.7485 0
M  V30 30 H 0.4415 -2.4916 -2.2992 0
M  V30 31 H 2.0327 -1.3618 2.2828 0
M  V30 32 H -1.0377 -1.2521 -0.7734 0
M  V30 33 H -2.7303 1.5437 2.84 0
M  V30 34 H 0.834 1.5423 -0.012 0
M  V30 35 H -3.4735 1.601 0.2703 0
M  V30 36 H 0.7205 2.9704 -1.991 0
M  V30 37 H -3.5767 3.0522 -1.6999 0
M  V30 38 H -0.6118 4.6161 -3.2943 0
M  V30 39 H -1.575 3.3594 -4.1095 0
M  V30 40 H -2.3705 4.6501 -3.1751 0
M  V30 END ATOM
M  V30 BEGIN BOND
M  V30 1 2 1 2
M  V30 2 2 1 3
M  V30 3 1 1 4
M  V30 4 1 1 5
M  V30 5 2 5 6
M  V30 6 1 5 7
M  V30 7 1 6 8
M  V30 8 2 7 9
M  V30 9 2 8 10
M  V30 10 1 10 11
M  V30 11 1 11 12
M  V30 12 1 11 13
M  V30 13 2 12 14
M  V30 14 1 13 15
M  V30 15 2 13 16
M  V30 16 1 14 17
M  V30 17 2 15 18
M  V30 18 1 15 19
M  V30 19 1 17 20
M  V30 20 1 17 21
M  V30 21 1 17 22
M  V30 22 1 18 23
M  V30 23 2 19 24
M  V30 24 2 23 25
M  V30 25 1 25 26
M  V30 26 1 9 10
M  V30 27 1 14 16
M  V30 28 1 24 25
M  V30 29 1 4 27
M  V30 30 1 4 28
M  V30 31 1 6 29
M  V30 32 1 7 30
M  V30 33 1 8 31
M  V30 34 1 9 32
M  V30 35 1 16 33
M  V30 36 1 18 34
M  V30 37 1 19 35
M  V30 38 1 23 36
M  V30 39 1 24 37
M  V30 40 1 26 38
M  V30 41 1 26 39
M  V30 42 1 26 40
M  V30 END BOND
M  V30 END CTAB
M  END
>  <NO.>
143

>  <Name>
celecoxib, celebrex

>  <SMILES>
Cc1ccc(-c2cc(C(F)(F)F)nn2-c2ccc(S(N)(=O)=O)cc2)cc1

>  <logBB>
-1

>  <Class>
1

>  <MW>
381.08

>  <nHBAcc>
3

>  <nHBDon>
1

>  <SLogP>
3.51

>  <TopoPSA>
77.98

>  <MMFF94 Energy>
62.578

$$$$
Clc1cccc(C(c2ccc3nc[nH]c3c2)n2ccnc2)c1
Actelion Java MolfileCreator 2.0

  0  0  0  0  0  0              0 V3000
M  V30 BEGIN CTAB
M  V30 COUNTS 35 38 0 0 0
M  V30 BEGIN ATOM
M  V30 1 Cl 2.0299 5.04 -1.2988 0
M  V30 2 C 1.3253 3.787 -0.3536 0
M  V30 3 C 0.908 2.607 -0.9709 0
M  V30 4 C 1.1762 3.9575 1.0193 0
M  V30 5 C 0.3353 1.5668 -0.2145 0
M  V30 6 C 0.6019 2.9421 1.7814 0
M  V30 7 C 0.1818 1.7577 1.1703 0
M  V30 8 C -0.1255 0.2939 -0.9236 0 CFG=1
M  V30 9 N -1.4452 0.455 -1.555 0
M  V30 10 C -0.0106 -0.9883 -0.0915 0
M  V30 11 C -1.8263 -0.1655 -2.7166 0
M  V30 12 C -2.5021 1.226 -1.1459 0
M  V30 13 C 1.2704 -1.566 0.0632 0
M  V30 14 C -1.1178 -1.5794 0.5483 0
M  V30 15 N -3.0462 0.1707 -3.0679 0
M  V30 16 C -3.4763 1.0358 -2.0976 0
M  V30 17 C 1.3712 -2.7189 0.8464 0
M  V30 18 C -0.9848 -2.7391 1.3271 0
M  V30 19 N 2.4345 -3.5132 1.1945 0
M  V30 20 C 0.2833 -3.3123 1.4746 0
M  V30 21 C 1.9655 -4.5206 1.9894 0
M  V30 22 N 0.6697 -4.4259 2.1782 0
M  V30 23 H 1.0236 2.5022 -2.0481 0
M  V30 24 H 1.4997 4.877 1.4998 0
M  V30 25 H 0.4778 3.0724 2.8541 0
M  V30 26 H -0.2694 0.988 1.7945 0
M  V30 27 H 0.5543 0.1506 -1.7783 0
M  V30 28 H -1.1833 -0.8481 -3.2573 0
M  V30 29 H -2.483 1.8296 -0.2495 0
M  V30 30 H 2.1493 -1.1284 -0.401 0
M  V30 31 H -2.1143 -1.1501 0.4564 0
M  V30 32 H -4.4643 1.4764 -2.1346 0
M  V30 33 H -1.8439 -3.19 1.8122 0
M  V30 34 H 3.395 -3.3799 0.914 0
M  V30 35 H 2.6105 -5.2872 2.3977 0
M  V30 END ATOM
M  V30 BEGIN BOND
M  V30 1 1 1 2
M  V30 2 2 2 3
M  V30 3 1 2 4
M  V30 4 1 3 5
M  V30 5 2 4 6
M  V30 6 2 5 7
M  V30 7 1 5 8
M  V30 8 1 8 9
M  V30 9 1 8 10
M  V30 10 1 9 11
M  V30 11 1 9 12
M  V30 12 2 10 13
M  V30 13 1 10 14
M  V30 14 2 11 15
M  V30 15 2 12 16
M  V30 16 1 13 17
M  V30 17 2 14 18
M  V30 18 1 17 19
M  V30 19 2 17 20
M  V30 20 1 19 21
M  V30 21 1 20 22
M  V30 22 1 6 7
M  V30 23 1 15 16
M  V30 24 1 18 20
M  V30 25 2 21 22
M  V30 26 1 3 23
M  V30 27 1 4 24
M  V30 28 1 6 25
M  V30 29 1 7 26
M  V30 30 1 8 27
M  V30 31 1 11 28
M  V30 32 1 12 29
M  V30 33 1 13 30
M  V30 34 1 14 31
M  V30 35 1 16 32
M  V30 36 1 18 33
M  V30 37 1 19 34
M  V30 38 1 21 35
M  V30 END BOND
M  V30 BEGIN COLLECTION
M  V30 MDLV30/STERAC1 ATOMS=(1 8)
M  V30 END COLLECTION
M  V30 END CTAB
M  END
>  <NO.>
144

>  <Name>
liarozole

>  <SMILES>
Clc1cccc(C(c2ccc3nc[nH]c3c2)n2ccnc2)c1

>  <logBB>
-1

>  <Class>
1

>  <MW>
308.08

>  <nHBAcc>
2

>  <nHBDon>
1

>  <SLogP>
4.05

>  <TopoPSA>
46.5

>  <MMFF94 Energy>
67.016

$$$$
O=C(O)CCCCO/N=C(\c1cccnc1)c1cccc(C(F)(F)F)c1
Actelion Java MolfileCreator 2.0

  0  0  0  0  0  0              0 V3000
M  V30 BEGIN CTAB
M  V30 COUNTS 43 44 0 0 0
M  V30 BEGIN ATOM
M  V30 1 F 2.6502 5.0641 2.6502 0
M  V30 2 C 3.0099 3.9816 3.3945 0
M  V30 3 F 2.3043 4.0722 4.5544 0
M  V30 4 F 4.3145 4.18 3.7315 0
M  V30 5 C 2.772 2.6726 2.6811 0
M  V30 6 C 1.6822 2.5295 1.8029 0
M  V30 7 C 3.6139 1.5736 2.9071 0
M  V30 8 C 1.444 1.311 1.1505 0
M  V30 9 C 3.3871 0.3628 2.2542 0
M  V30 10 C 0.2949 1.1317 0.2021 0
M  V30 11 C 2.31 0.2335 1.3767 0
M  V30 12 N 0.3666 0.1754 -0.6803 0
M  V30 13 C -0.8627 2.0479 0.323 0
M  V30 14 O -0.7909 0.0914 -1.469 0
M  V30 15 C -1.6517 2.0315 1.4645 0
M  V30 16 C -1.1681 2.9522 -0.6925 0
M  V30 17 C -0.6627 -1.0089 -2.3704 0
M  V30 18 N -2.6992 2.8676 1.658 0
M  V30 19 C -2.248 3.8136 -0.5229 0
M  V30 20 C -1.0479 -2.3064 -1.6663 0
M  V30 21 C -2.9743 3.7357 0.6573 0
M  V30 22 C -0.9796 -3.5016 -2.6131 0
M  V30 23 C -1.3614 -4.7978 -1.901 0
M  V30 24 C -1.2988 -5.98 -2.8295 0
M  V30 25 O -1.0091 -5.9807 -4.0131 0
M  V30 26 O -1.6157 -7.129 -2.2006 0
M  V30 27 H 1.0384 3.3903 1.6288 0
M  V30 28 H 4.458 1.6601 3.5907 0
M  V30 29 H 4.0494 -0.4825 2.4265 0
M  V30 30 H 2.148 -0.7179 0.8738 0
M  V30 31 H -1.464 1.3345 2.2759 0
M  V30 32 H -0.5772 2.9781 -1.6035 0
M  V30 33 H 0.3552 -1.0537 -2.776 0
M  V30 34 H -1.3425 -0.8202 -3.2079 0
M  V30 35 H -2.5198 4.5273 -1.2928 0
M  V30 36 H -0.3863 -2.47 -0.8068 0
M  V30 37 H -2.0588 -2.2067 -1.2518 0
M  V30 38 H -3.8251 4.3887 0.8335 0
M  V30 39 H 0.0339 -3.5909 -3.0234 0
M  V30 40 H -1.6506 -3.3369 -3.4654 0
M  V30 41 H -0.6738 -4.9799 -1.0678 0
M  V30 42 H -2.3828 -4.7221 -1.5121 0
M  V30 43 H -1.5408 -7.8112 -2.9003 0
M  V30 END ATOM
M  V30 BEGIN BOND
M  V30 1 1 1 2
M  V30 2 1 2 3
M  V30 3 1 2 4
M  V30 4 1 2 5
M  V30 5 2 5 6
M  V30 6 1 5 7
M  V30 7 1 6 8
M  V30 8 2 7 9
M  V30 9 1 8 10
M  V30 10 2 8 11
M  V30 11 2 10 12
M  V30 12 1 10 13
M  V30 13 1 12 14
M  V30 14 2 13 15
M  V30 15 1 13 16
M  V30 16 1 14 17
M  V30 17 1 15 18
M  V30 18 2 16 19
M  V30 19 1 17 20
M  V30 20 2 18 21
M  V30 21 1 20 22
M  V30 22 1 22 23
M  V30 23 1 23 24
M  V30 24 2 24 25
M  V30 25 1 24 26
M  V30 26 1 9 11
M  V30 27 1 19 21
M  V30 28 1 6 27
M  V30 29 1 7 28
M  V30 30 1 9 29
M  V30 31 1 11 30
M  V30 32 1 15 31
M  V30 33 1 16 32
M  V30 34 1 17 33
M  V30 35 1 17 34
M  V30 36 1 19 35
M  V30 37 1 20 36
M  V30 38 1 20 37
M  V30 39 1 21 38
M  V30 40 1 22 39
M  V30 41 1 22 40
M  V30 42 1 23 41
M  V30 43 1 23 42
M  V30 44 1 26 43
M  V30 END BOND
M  V30 END CTAB
M  END
>  <NO.>
145

>  <Name>
ridogrel

>  <SMILES>
O=C(O)CCCCO/N=C(\c1cccnc1)c1cccc(C(F)(F)F)c1

>  <logBB>
-1

>  <Class>
1

>  <MW>
366.12

>  <nHBAcc>
4

>  <nHBDon>
1

>  <SLogP>
4.12

>  <TopoPSA>
71.78

>  <MMFF94 Energy>
78.198

$$$$
O=C(c1ccc(C(=O)N2CCN(c3ccc(OC4CCN(C5CCC5)CC4)cc3)C(=O)C2)cc1)N1CCC1
Actelion Java MolfileCreator 2.0

  0  0  0  0  0  0              0 V3000
M  V30 BEGIN CTAB
M  V30 COUNTS 74 79 0 0 0
M  V30 BEGIN ATOM
M  V30 1 O -3.2908 0.8018 -2.5677 0
M  V30 2 C -2.7575 1.4697 -1.6796 0
M  V30 3 N -1.4157 1.3462 -1.3056 0
M  V30 4 C -3.5372 2.6099 -1.0022 0
M  V30 5 C -0.5655 0.386 -1.9142 0
M  V30 6 C -0.8354 2.2829 -0.3491 0
M  V30 7 N -3.0735 3.0816 0.3049 0
M  V30 8 C -0.9617 -0.9511 -2.0101 0
M  V30 9 C 0.69 0.7562 -2.4034 0
M  V30 10 C -1.8013 2.5603 0.7984 0
M  V30 11 C -3.8682 4.0136 0.9613 0
M  V30 12 C -0.1182 -1.9079 -2.5889 0
M  V30 13 C 1.5304 -0.2015 -2.9782 0
M  V30 14 O -4.8466 4.5475 0.4469 0
M  V30 15 C -3.5283 4.3908 2.349 0
M  V30 16 C 1.1316 -1.5364 -3.0792 0
M  V30 17 C -3.2355 5.7285 2.6316 0
M  V30 18 C -3.5411 3.4309 3.3682 0
M  V30 19 O 2.0548 -2.3586 -3.6589 0
M  V30 20 C -2.9209 6.1035 3.939 0
M  V30 21 C -3.2314 3.8088 4.6768 0
M  V30 22 C 1.6883 -3.7092 -3.9765 0
M  V30 23 C -2.9325 5.1473 4.9631 0
M  V30 24 C 2.5368 -4.1414 -5.1737 0
M  V30 25 C 1.9678 -4.6323 -2.7908 0
M  V30 26 C -2.5745 5.5804 6.3338 0
M  V30 27 C 4.0131 -4.2871 -4.8004 0
M  V30 28 C 3.4676 -4.7533 -2.5123 0
M  V30 29 O -1.5817 6.2846 6.4922 0
M  V30 30 N -3.3917 5.1877 7.3558 0
M  V30 31 N 4.1877 -5.2599 -3.7001 0
M  V30 32 C -3.3134 5.5097 8.7673 0
M  V30 33 C -4.6889 4.5529 7.4431 0
M  V30 34 C 5.6318 -5.3811 -3.3808 0
M  V30 35 C -4.8165 5.2131 8.8217 0
M  V30 36 C 5.8841 -6.6069 -2.4547 0
M  V30 37 C 6.3685 -6.192 -4.4868 0
M  V30 38 C 6.0478 -7.4807 -3.7102 0
M  V30 39 H -4.5797 2.2881 -0.8921 0
M  V30 40 H -3.5214 3.4684 -1.6845 0
M  V30 41 H -0.6117 3.2112 -0.8888 0
M  V30 42 H 0.0965 1.8779 0.0614 0
M  V30 43 H -1.9347 -1.265 -1.639 0
M  V30 44 H 1.0249 1.7885 -2.364 0
M  V30 45 H -1.344 3.2649 1.499 0
M  V30 46 H -2.0239 1.6327 1.3388 0
M  V30 47 H -0.4748 -2.9311 -2.6333 0
M  V30 48 H 2.5029 0.0983 -3.3614 0
M  V30 49 H -3.2503 6.473 1.8386 0
M  V30 50 H -3.7961 2.3974 3.1476 0
M  V30 51 H -2.674 7.1397 4.163 0
M  V30 52 H -3.2111 3.0575 5.4616 0
M  V30 53 H 0.6382 -3.7668 -4.2858 0
M  V30 54 H 2.4491 -3.4017 -5.9787 0
M  V30 55 H 2.1634 -5.0971 -5.5631 0
M  V30 56 H 1.5542 -5.6275 -2.9973 0
M  V30 57 H 1.4781 -4.2597 -1.8845 0
M  V30 58 H 4.5397 -4.619 -5.7007 0
M  V30 59 H 4.4341 -3.3087 -4.5321 0
M  V30 60 H 3.8715 -3.7845 -2.1886 0
M  V30 61 H 3.5814 -5.4392 -1.6669 0
M  V30 62 H -2.6755 4.8156 9.3213 0
M  V30 63 H -3.0359 6.5443 8.9821 0
M  V30 64 H -4.6311 3.4612 7.4583 0
M  V30 65 H -5.4166 4.8926 6.7025 0
M  V30 66 H 6.1251 -4.4526 -3.0736 0
M  V30 67 H -5.1339 4.5498 9.6312 0
M  V30 68 H -5.446 6.1104 8.8277 0
M  V30 69 H 5.0997 -6.9336 -1.7683 0
M  V30 70 H 6.8128 -6.5146 -1.8764 0
M  V30 71 H 5.9921 -6.1693 -5.5119 0
M  V30 72 H 7.4439 -5.974 -4.524 0
M  V30 73 H 5.1229 -7.9734 -4.0312 0
M  V30 74 H 6.8485 -8.2234 -3.6709 0
M  V30 END ATOM
M  V30 BEGIN BOND
M  V30 1 2 1 2
M  V30 2 1 2 3
M  V30 3 1 2 4
M  V30 4 1 3 5
M  V30 5 1 3 6
M  V30 6 1 4 7
M  V30 7 2 5 8
M  V30 8 1 5 9
M  V30 9 1 6 10
M  V30 10 1 7 11
M  V30 11 1 8 12
M  V30 12 2 9 13
M  V30 13 2 11 14
M  V30 14 1 11 15
M  V30 15 2 12 16
M  V30 16 2 15 17
M  V30 17 1 15 18
M  V30 18 1 16 19
M  V30 19 1 17 20
M  V30 20 2 18 21
M  V30 21 1 19 22
M  V30 22 2 20 23
M  V30 23 1 22 24
M  V30 24 1 22 25
M  V30 25 1 23 26
M  V30 26 1 24 27
M  V30 27 1 25 28
M  V30 28 2 26 29
M  V30 29 1 26 30
M  V30 30 1 27 31
M  V30 31 1 30 32
M  V30 32 1 30 33
M  V30 33 1 31 34
M  V30 34 1 32 35
M  V30 35 1 34 36
M  V30 36 1 34 37
M  V30 37 1 36 38
M  V30 38 1 7 10
M  V30 39 1 13 16
M  V30 40 1 21 23
M  V30 41 1 28 31
M  V30 42 1 33 35
M  V30 43 1 37 38
M  V30 44 1 4 39
M  V30 45 1 4 40
M  V30 46 1 6 41
M  V30 47 1 6 42
M  V30 48 1 8 43
M  V30 49 1 9 44
M  V30 50 1 10 45
M  V30 51 1 10 46
M  V30 52 1 12 47
M  V30 53 1 13 48
M  V30 54 1 17 49
M  V30 55 1 18 50
M  V30 56 1 20 51
M  V30 57 1 21 52
M  V30 58 1 22 53
M  V30 59 1 24 54
M  V30 60 1 24 55
M  V30 61 1 25 56
M  V30 62 1 25 57
M  V30 63 1 27 58
M  V30 64 1 27 59
M  V30 65 1 28 60
M  V30 66 1 28 61
M  V30 67 1 32 62
M  V30 68 1 32 63
M  V30 69 1 33 64
M  V30 70 1 33 65
M  V30 71 1 34 66
M  V30 72 1 35 67
M  V30 73 1 35 68
M  V30 74 1 36 69
M  V30 75 1 36 70
M  V30 76 1 37 71
M  V30 77 1 37 72
M  V30 78 1 38 73
M  V30 79 1 38 74
M  V30 END BOND
M  V30 END CTAB
M  END
>  <NO.>
146

>  <Name>
chembl1185227

>  <SMILES>
O=C(c1ccc(C(=O)N2CCN(c3ccc(OC4CCN(C5CCC5)CC4)cc3)C(=O)C2)cc1)N1CCC1

>  <logBB>
-1

>  <Class>
1

>  <MW>
516.27

>  <nHBAcc>
5

>  <nHBDon>
0

>  <SLogP>
3.42

>  <TopoPSA>
73.4

>  <MMFF94 Energy>
128.53

$$$$
CC(C)(C)NCC(O)COc1cccc2c1CC(O)C(O)C2
Actelion Java MolfileCreator 2.0

  0  0  0  0  0  0              0 V3000
M  V30 BEGIN CTAB
M  V30 COUNTS 49 50 0 0 0
M  V30 BEGIN ATOM
M  V30 1 O 1.1799 0.5505 -0.3145 0
M  V30 2 C 1.8734 1.2913 0.6067 0
M  V30 3 C 1.1233 1.0344 -1.6538 0
M  V30 4 C 1.9541 0.7341 1.901 0
M  V30 5 C 2.4782 2.5225 0.3413 0
M  V30 6 C 0.333 0.0423 -2.5172 0
M  V30 7 C 2.6764 1.4067 2.9078 0
M  V30 8 C 1.3266 -0.6119 2.1797 0
M  V30 9 C 3.172 3.1967 1.3454 0
M  V30 10 O 0.3691 0.4668 -3.8897 0
M  V30 11 C -1.1393 -0.0519 -2.0591 0
M  V30 12 C 3.2706 2.6435 2.6187 0
M  V30 13 C 2.8001 0.8647 4.3159 0
M  V30 14 C 1.0914 -0.8793 3.6672 0
M  V30 15 N -1.8624 -1.0066 -2.9132 0
M  V30 16 C 2.3509 -0.5859 4.4849 0
M  V30 17 O 0.7459 -2.2589 3.8603 0
M  V30 18 C -3.3228 -1.0629 -2.7332 0
M  V30 19 O 3.4037 -1.481 4.1006 0
M  V30 20 C -3.717 -1.3441 -1.2742 0
M  V30 21 C -3.8129 -2.2348 -3.6049 0
M  V30 22 C -4.0062 0.2252 -3.2226 0
M  V30 23 H 0.6361 2.0172 -1.6922 0
M  V30 24 H 2.1355 1.132 -2.0664 0
M  V30 25 H 2.4317 2.9873 -0.6374 0
M  V30 26 H 0.789 -0.9537 -2.4528 0
M  V30 27 H 0.357 -0.6953 1.6722 0
M  V30 28 H 1.9655 -1.3948 1.7508 0
M  V30 29 H 3.6416 4.1538 1.1329 0
M  V30 30 H 1.2493 0.2318 -4.2321 0
M  V30 31 H -1.1774 -0.3761 -1.0143 0
M  V30 32 H -1.5902 0.9427 -2.1386 0
M  V30 33 H 3.821 3.1797 3.3894 0
M  V30 34 H 2.1788 1.5004 4.9597 0
M  V30 35 H 3.8428 0.9611 4.6429 0
M  V30 36 H 0.261 -0.2666 4.0394 0
M  V30 37 H -1.6422 -0.7668 -3.8847 0
M  V30 38 H 2.1659 -0.7909 5.5459 0
M  V30 39 H -0.0456 -2.4342 3.3203 0
M  V30 40 H 2.9782 -2.3604 4.055 0
M  V30 41 H -3.4708 -0.5047 -0.6146 0
M  V30 42 H -4.7963 -1.5158 -1.1864 0
M  V30 43 H -3.2103 -2.2369 -0.8896 0
M  V30 44 H -3.3556 -3.1822 -3.2951 0
M  V30 45 H -4.9001 -2.355 -3.5309 0
M  V30 46 H -3.5717 -2.0775 -4.6631 0
M  V30 47 H -3.7595 1.0866 -2.5932 0
M  V30 48 H -3.715 0.4657 -4.2517 0
M  V30 49 H -5.0973 0.1183 -3.2075 0
M  V30 END ATOM
M  V30 BEGIN BOND
M  V30 1 1 1 2
M  V30 2 1 1 3
M  V30 3 2 2 4
M  V30 4 1 2 5
M  V30 5 1 3 6
M  V30 6 1 4 7
M  V30 7 1 4 8
M  V30 8 2 5 9
M  V30 9 1 6 10
M  V30 10 1 6 11
M  V30 11 2 7 12
M  V30 12 1 7 13
M  V30 13 1 8 14
M  V30 14 1 11 15
M  V30 15 1 13 16
M  V30 16 1 14 17
M  V30 17 1 15 18
M  V30 18 1 16 19
M  V30 19 1 18 20
M  V30 20 1 18 21
M  V30 21 1 18 22
M  V30 22 1 9 12
M  V30 23 1 14 16
M  V30 24 1 3 23
M  V30 25 1 3 24
M  V30 26 1 5 25
M  V30 27 1 6 26
M  V30 28 1 8 27
M  V30 29 1 8 28
M  V30 30 1 9 29
M  V30 31 1 10 30
M  V30 32 1 11 31
M  V30 33 1 11 32
M  V30 34 1 12 33
M  V30 35 1 13 34
M  V30 36 1 13 35
M  V30 37 1 14 36
M  V30 38 1 15 37
M  V30 39 1 16 38
M  V30 40 1 17 39
M  V30 41 1 19 40
M  V30 42 1 20 41
M  V30 43 1 20 42
M  V30 44 1 20 43
M  V30 45 1 21 44
M  V30 46 1 21 45
M  V30 47 1 21 46
M  V30 48 1 22 47
M  V30 49 1 22 48
M  V30 50 1 22 49
M  V30 END BOND
M  V30 END CTAB
M  END
>  <NO.>
149

>  <Name>
anabet

>  <SMILES>
CC(C)(C)NCC(O)COc1cccc2c1CC(O)C(O)C2

>  <logBB>
-0.95

>  <Class>
1

>  <MW>
309.19

>  <nHBAcc>
5

>  <nHBDon>
4

>  <SLogP>
0.63

>  <TopoPSA>
81.95

>  <MMFF94 Energy>
101.52

$$$$
COC(=O)C1C(=O)C=C(Nc2ccc(Cl)cc2)CC1C
Actelion Java MolfileCreator 2.0

  0  0  0  0  0  0              0 V3000
M  V30 BEGIN CTAB
M  V30 COUNTS 36 37 0 0 0
M  V30 BEGIN ATOM
M  V30 1 Cl -6.9218 0.0802 1.6064 0
M  V30 2 C -5.2417 -0.2462 1.4401 0
M  V30 3 C -4.395 0.723 0.9119 0
M  V30 4 C -4.7328 -1.4789 1.8359 0
M  V30 5 C -3.0284 0.4546 0.7772 0
M  V30 6 C -3.3656 -1.7403 1.7002 0
M  V30 7 C -2.4914 -0.7767 1.1733 0
M  V30 8 N -1.1324 -1.109 1.0271 0
M  V30 9 C -0.1802 -0.6118 0.1522 0
M  V30 10 C -0.4421 -0.0995 -1.0633 0
M  V30 11 C 1.2548 -0.7503 0.6325 0
M  V30 12 C 0.6217 0.4241 -1.952 0
M  V30 13 C 2.3126 -0.7233 -0.4835 0
M  V30 14 O 0.3127 0.8631 -3.0593 0
M  V30 15 C 2.0506 0.4269 -1.4673 0
M  V30 16 C 2.3843 -2.0708 -1.215 0
M  V30 17 C 2.4113 1.7533 -0.8442 0
M  V30 18 O 1.6232 2.5128 -0.2983 0
M  V30 19 O 3.7578 1.9573 -0.9268 0
M  V30 20 C 4.1955 3.1912 -0.3548 0
M  V30 21 H -4.7848 1.6902 0.6062 0
M  V30 22 H -5.3902 -2.2413 2.2444 0
M  V30 23 H -2.3849 1.2396 0.3883 0
M  V30 24 H -2.9883 -2.7151 1.9993 0
M  V30 25 H -0.7918 -1.7609 1.728 0
M  V30 26 H -1.4448 -0.041 -1.4695 0
M  V30 27 H 1.3713 -1.6815 1.2023 0
M  V30 28 H 1.4508 0.0666 1.3395 0
M  V30 29 H 3.2903 -0.5753 -0.0052 0
M  V30 30 H 2.6784 0.2968 -2.3594 0
M  V30 31 H 3.1756 -2.0557 -1.972 0
M  V30 32 H 2.6156 -2.8783 -0.5122 0
M  V30 33 H 1.4445 -2.3226 -1.7161 0
M  V30 34 H 5.2772 3.2648 -0.4959 0
M  V30 35 H 3.7216 4.0386 -0.8602 0
M  V30 36 H 3.9836 3.2107 0.7186 0
M  V30 END ATOM
M  V30 BEGIN BOND
M  V30 1 1 1 2
M  V30 2 2 2 3
M  V30 3 1 2 4
M  V30 4 1 3 5
M  V30 5 2 4 6
M  V30 6 2 5 7
M  V30 7 1 7 8
M  V30 8 1 8 9
M  V30 9 2 9 10
M  V30 10 1 9 11
M  V30 11 1 10 12
M  V30 12 1 11 13
M  V30 13 2 12 14
M  V30 14 1 12 15
M  V30 15 1 13 16
M  V30 16 1 15 17
M  V30 17 2 17 18
M  V30 18 1 17 19
M  V30 19 1 19 20
M  V30 20 1 6 7
M  V30 21 1 13 15
M  V30 22 1 3 21
M  V30 23 1 4 22
M  V30 24 1 5 23
M  V30 25 1 6 24
M  V30 26 1 8 25
M  V30 27 1 10 26
M  V30 28 1 11 27
M  V30 29 1 11 28
M  V30 30 1 13 29
M  V30 31 1 15 30
M  V30 32 1 16 31
M  V30 33 1 16 32
M  V30 34 1 16 33
M  V30 35 1 20 34
M  V30 36 1 20 35
M  V30 37 1 20 36
M  V30 END BOND
M  V30 END CTAB
M  END
>  <NO.>
150

>  <Name>
156154-42-6

>  <SMILES>
COC(=O)C1C(=O)C=C(Nc2ccc(Cl)cc2)CC1C

>  <logBB>
-0.95

>  <Class>
1

>  <MW>
293.08

>  <nHBAcc>
4

>  <nHBDon>
1

>  <SLogP>
3.03

>  <TopoPSA>
55.4

>  <MMFF94 Energy>
6.5396

$$$$
Cc1c(O)cccc1C(=O)NC(CSc1ccccc1)C(O)CN1CC2CCCCC2CC1C(=O)NC(C)(C)C
Actelion Java MolfileCreator 2.0

  0  0  0  0  0  0              0 V3000
M  V30 BEGIN CTAB
M  V30 COUNTS 85 88 0 0 0
M  V30 BEGIN ATOM
M  V30 1 S 0.0 -2.2343 -2.4739 0
M  V30 2 C -0.6162 -3.8957 -2.2699 0
M  V30 3 C -0.8602 -1.3969 -1.0847 0
M  V30 4 C -0.5024 -4.5832 -1.0574 0
M  V30 5 C -1.201 -4.5377 -3.3661 0
M  V30 6 C -0.7223 0.1396 -1.102 0
M  V30 7 C -0.989 -5.8869 -0.9364 0
M  V30 8 C -1.6876 -5.8413 -3.2451 0
M  V30 9 N -1.2676 0.6548 -2.3775 0
M  V30 10 C 0.693 0.7287 -0.8296 0
M  V30 11 C -1.584 -6.5142 -2.0293 0
M  V30 12 C -1.8351 1.8962 -2.5216 0
M  V30 13 O 1.4241 0.8635 -2.068 0
M  V30 14 C 1.6065 -0.0517 0.143 0
M  V30 15 O -1.855 2.7516 -1.649 0
M  V30 16 C -2.3588 2.1973 -3.8778 0
M  V30 17 N 1.0345 -0.4653 1.4439 0
M  V30 18 C -3.2489 1.3493 -4.5662 0
M  V30 19 C -1.912 3.3935 -4.4609 0
M  V30 20 C 1.2054 0.5641 2.51 0
M  V30 21 C 1.6841 -1.7277 1.8638 0
M  V30 22 C -3.6045 1.7054 -5.8754 0
M  V30 23 C -3.8101 0.0967 -3.9502 0
M  V30 24 C -2.3041 3.7346 -5.7531 0
M  V30 25 C 0.4649 1.8789 2.1792 0
M  V30 26 C 0.6292 0.076 3.8549 0
M  V30 27 C 1.0861 -2.2869 3.1665 0
M  V30 28 O -4.4272 0.8723 -6.5829 0
M  V30 29 C -3.1427 2.883 -6.4675 0
M  V30 30 O -0.7574 1.9454 2.0906 0
M  V30 31 N 1.3075 2.9658 2.0216 0
M  V30 32 C 1.1973 -1.2694 4.3124 0
M  V30 33 C 1.7202 -3.6316 3.556 0
M  V30 34 C 0.8628 4.3553 1.823 0
M  V30 35 C 2.6339 -1.1381 4.844 0
M  V30 36 C 3.1403 -3.4958 4.099 0
M  V30 37 C 0.0447 4.5107 0.5337 0
M  V30 38 C 0.0406 4.838 3.029 0
M  V30 39 C 2.1168 5.2423 1.7074 0
M  V30 40 C 3.2084 -2.4935 5.2457 0
M  V30 41 H -1.9252 -1.6443 -1.1775 0
M  V30 42 H -0.5246 -1.8152 -0.1355 0
M  V30 43 H -0.0261 -4.12 -0.1979 0
M  V30 44 H -1.2853 -4.0279 -4.3229 0
M  V30 45 H -1.3763 0.5126 -0.3026 0
M  V30 46 H -0.8988 -6.414 0.0099 0
M  V30 47 H -2.1449 -6.3308 -4.101 0
M  V30 48 H -1.1788 0.0487 -3.1866 0
M  V30 49 H 0.5684 1.752 -0.4686 0
M  V30 50 H -1.9615 -7.5292 -1.9354 0
M  V30 51 H 0.7951 1.2834 -2.6831 0
M  V30 52 H 2.5372 0.5135 0.2943 0
M  V30 53 H 1.9419 -0.9399 -0.4105 0
M  V30 54 H -1.2504 4.0555 -3.9048 0
M  V30 55 H 2.2736 0.7783 2.6411 0
M  V30 56 H 1.535 -2.4856 1.0842 0
M  V30 57 H 2.7672 -1.5807 1.9576 0
M  V30 58 H -3.1615 -0.7564 -4.1703 0
M  V30 59 H -4.8133 -0.1207 -4.3319 0
M  V30 60 H -3.9214 0.1976 -2.8659 0
M  V30 61 H -1.9508 4.6593 -6.202 0
M  V30 62 H 0.7963 0.8363 4.6291 0
M  V30 63 H -0.4618 -0.0271 3.7693 0
M  V30 64 H 0.019 -2.4759 2.9792 0
M  V30 65 H -4.6147 1.2721 -7.4479 0
M  V30 66 H -3.4314 3.1543 -7.4786 0
M  V30 67 H 2.3045 2.7984 2.0394 0
M  V30 68 H 0.5767 -1.6254 5.1468 0
M  V30 69 H 1.7179 -4.3146 2.6983 0
M  V30 70 H 1.0959 -4.1015 4.3272 0
M  V30 71 H 2.6449 -0.4713 5.7147 0
M  V30 72 H 3.2908 -0.6819 4.0952 0
M  V30 73 H 3.4929 -4.4735 4.4469 0
M  V30 74 H 3.8199 -3.1851 3.2972 0
M  V30 75 H -0.8933 3.95 0.5775 0
M  V30 76 H -0.2142 5.5604 0.3538 0
M  V30 77 H 0.6061 4.1523 -0.336 0
M  V30 78 H -0.218 5.8987 2.933 0
M  V30 79 H -0.8968 4.2823 3.1336 0
M  V30 80 H 0.6005 4.7112 3.9627 0
M  V30 81 H 2.7407 4.9342 0.8603 0
M  V30 82 H 2.7357 5.1708 2.6096 0
M  V30 83 H 1.8517 6.2958 1.5644 0
M  V30 84 H 4.2488 -2.372 5.5678 0
M  V30 85 H 2.6523 -2.8847 6.1066 0
M  V30 END ATOM
M  V30 BEGIN BOND
M  V30 1 1 1 2
M  V30 2 1 1 3
M  V30 3 2 2 4
M  V30 4 1 2 5
M  V30 5 1 3 6
M  V30 6 1 4 7
M  V30 7 2 5 8
M  V30 8 1 6 9
M  V30 9 1 6 10
M  V30 10 2 7 11
M  V30 11 1 9 12
M  V30 12 1 10 13
M  V30 13 1 10 14
M  V30 14 2 12 15
M  V30 15 1 12 16
M  V30 16 1 14 17
M  V30 17 2 16 18
M  V30 18 1 16 19
M  V30 19 1 17 20
M  V30 20 1 17 21
M  V30 21 1 18 22
M  V30 22 1 18 23
M  V30 23 2 19 24
M  V30 24 1 20 25
M  V30 25 1 20 26
M  V30 26 1 21 27
M  V30 27 1 22 28
M  V30 28 2 22 29
M  V30 29 2 25 30
M  V30 30 1 25 31
M  V30 31 1 26 32
M  V30 32 1 27 33
M  V30 33 1 31 34
M  V30 34 1 32 35
M  V30 35 1 33 36
M  V30 36 1 34 37
M  V30 37 1 34 38
M  V30 38 1 34 39
M  V30 39 1 35 40
M  V30 40 1 8 11
M  V30 41 1 24 29
M  V30 42 1 27 32
M  V30 43 1 36 40
M  V30 44 1 3 41
M  V30 45 1 3 42
M  V30 46 1 4 43
M  V30 47 1 5 44
M  V30 48 1 6 45
M  V30 49 1 7 46
M  V30 50 1 8 47
M  V30 51 1 9 48
M  V30 52 1 10 49
M  V30 53 1 11 50
M  V30 54 1 13 51
M  V30 55 1 14 52
M  V30 56 1 14 53
M  V30 57 1 19 54
M  V30 58 1 20 55
M  V30 59 1 21 56
M  V30 60 1 21 57
M  V30 61 1 23 58
M  V30 62 1 23 59
M  V30 63 1 23 60
M  V30 64 1 24 61
M  V30 65 1 26 62
M  V30 66 1 26 63
M  V30 67 1 27 64
M  V30 68 1 28 65
M  V30 69 1 29 66
M  V30 70 1 31 67
M  V30 71 1 32 68
M  V30 72 1 33 69
M  V30 73 1 33 70
M  V30 74 1 35 71
M  V30 75 1 35 72
M  V30 76 1 36 73
M  V30 77 1 36 74
M  V30 78 1 37 75
M  V30 79 1 37 76
M  V30 80 1 37 77
M  V30 81 1 38 78
M  V30 82 1 38 79
M  V30 83 1 38 80
M  V30 84 1 39 81
M  V30 85 1 39 82
M  V30 86 1 39 83
M  V30 87 1 40 84
M  V30 88 1 40 85
M  V30 END BOND
M  V30 END CTAB
M  END
>  <NO.>
151

>  <Name>
nelfinavir mesylate

>  <SMILES>
Cc1c(O)cccc1C(=O)NC(CSc1ccccc1)C(O)CN1CC2CCCCC2CC1C(=O)NC(C)(C)C

>  <logBB>
-0.93

>  <Class>
1

>  <MW>
567.31

>  <nHBAcc>
6

>  <nHBDon>
4

>  <SLogP>
4.75

>  <TopoPSA>
101.9

>  <MMFF94 Energy>
116.26

$$$$
Cc1c(O)cccc1C(=O)N[C@@H](CSc1ccccc1)[C@@H](O)CN1CC2CCCCC2C[C@H]1C(=O)CNC(C)(C)C
Actelion Java MolfileCreator 2.0

  0  0  0  0  0  0              0 V3000
M  V30 BEGIN CTAB
M  V30 COUNTS 88 91 0 0 0
M  V30 BEGIN ATOM
M  V30 1 S 2.3934 3.3521 2.633 0
M  V30 2 C 3.9024 3.9458 3.3744 0
M  V30 3 C 3.0924 2.2667 1.3305 0
M  V30 4 C 4.1324 3.7105 4.7334 0
M  V30 5 C 4.8455 4.6658 2.6345 0
M  V30 6 C 2.044 1.441 0.5567 0 CFG=2
M  V30 7 C 5.3036 4.1694 5.3402 0
M  V30 8 C 6.0164 5.1248 3.242 0
M  V30 9 N 1.0793 2.3145 -0.114 0
M  V30 10 C 1.31 0.381 1.4343 0 CFG=1
M  V30 11 C 6.2463 4.8736 4.5936 0
M  V30 12 C 0.6801 2.1145 -1.4151 0
M  V30 13 O 0.3681 1.0109 2.3133 0
M  V30 14 C 0.5617 -0.6437 0.5343 0
M  V30 15 O 1.202 1.3075 -2.1739 0
M  V30 16 C -0.4904 2.9197 -1.8413 0
M  V30 17 N -0.2208 -1.7046 1.2158 0
M  V30 18 C -0.4579 3.6905 -3.0179 0
M  V30 19 C -1.6539 2.8471 -1.0566 0
M  V30 20 C -0.9693 -2.535 0.2299 0 CFG=2
M  V30 21 C 0.6255 -2.5348 2.0856 0
M  V30 22 C -1.6269 4.3726 -3.3818 0
M  V30 23 C 0.7681 3.7432 -3.8865 0
M  V30 24 C -2.7953 3.5494 -1.4348 0
M  V30 25 C -1.9443 -1.685 -0.6131 0
M  V30 26 C -1.8005 -3.6322 0.9134 0
M  V30 27 C -0.1847 -3.6172 2.8165 0
M  V30 28 O -1.6316 5.1076 -4.5353 0
M  V30 29 C -2.7829 4.3141 -2.599 0
M  V30 30 O -2.8665 -1.0271 -0.1184 0
M  V30 31 C -1.6654 -1.6583 -2.1217 0
M  V30 32 C -0.9247 -4.5082 1.8084 0
M  V30 33 C 0.7126 -4.4662 3.7271 0
M  V30 34 N -2.9146 -1.3848 -2.8444 0
M  V30 35 C -1.7464 -5.5836 2.5277 0
M  V30 36 C -0.0888 -5.5559 4.4375 0
M  V30 37 C -2.7669 -0.9708 -4.2488 0
M  V30 38 C -0.8673 -6.4235 3.4522 0
M  V30 39 C -2.1798 0.4456 -4.3607 0
M  V30 40 C -4.1887 -0.9555 -4.8406 0
M  V30 41 C -1.912 -1.9595 -5.0576 0
M  V30 42 H 3.6341 2.8999 0.6192 0
M  V30 43 H 3.8176 1.5884 1.7938 0
M  V30 44 H 3.4038 3.169 5.3323 0
M  V30 45 H 4.6753 4.8896 1.5846 0
M  V30 46 H 2.6036 0.8949 -0.2136 0
M  V30 47 H 5.4769 3.9811 6.3968 0
M  V30 48 H 6.7453 5.6852 2.662 0
M  V30 49 H 0.5754 2.9784 0.4653 0
M  V30 50 H 2.0518 -0.1399 2.0487 0
M  V30 51 H 7.1561 5.2342 5.0671 0
M  V30 52 H 0.8488 1.6682 2.8477 0
M  V30 53 H 1.2786 -1.1024 -0.1588 0
M  V30 54 H -0.148 -0.0632 -0.06 0
M  V30 55 H -1.6868 2.219 -0.1667 0
M  V30 56 H -0.2507 -3.0143 -0.4479 0
M  V30 57 H 1.4322 -2.9987 1.5028 0
M  V30 58 H 1.0955 -1.9115 2.854 0
M  V30 59 H 1.6781 3.7964 -3.2798 0
M  V30 60 H 0.7788 4.6321 -4.5253 0
M  V30 61 H 0.811 2.8573 -4.5275 0
M  V30 62 H -3.6972 3.4837 -0.8307 0
M  V30 63 H -2.2902 -4.2517 0.1511 0
M  V30 64 H -2.6074 -3.1816 1.5076 0
M  V30 65 H -0.9265 -3.1127 3.4537 0
M  V30 66 H -2.5133 5.4949 -4.6599 0
M  V30 67 H -3.6842 4.8472 -2.8871 0
M  V30 68 H -1.2831 -2.6378 -2.4231 0
M  V30 69 H -0.9014 -0.8951 -2.2897 0
M  V30 70 H -0.1853 -5.0156 1.1723 0
M  V30 71 H 1.5128 -4.9307 3.1372 0
M  V30 72 H 1.1978 -3.8286 4.4756 0
M  V30 73 H -3.4297 -0.6702 -2.3186 0
M  V30 74 H -2.5466 -5.1156 3.115 0
M  V30 75 H -2.2313 -6.2382 1.794 0
M  V30 76 H -0.7883 -5.0905 5.1429 0
M  V30 77 H 0.5873 -6.1847 5.0275 0
M  V30 78 H -0.1629 -7.0103 2.8498 0
M  V30 79 H -1.489 -7.1388 4.0024 0
M  V30 80 H -1.1435 0.4903 -4.0115 0
M  V30 81 H -2.1835 0.7898 -5.4015 0
M  V30 82 H -2.7654 1.1645 -3.7772 0
M  V30 83 H -4.839 -0.2511 -4.3079 0
M  V30 84 H -4.1748 -0.6555 -5.8949 0
M  V30 85 H -4.6551 -1.9465 -4.7868 0
M  V30 86 H -0.8669 -1.96 -4.7291 0
M  V30 87 H -2.295 -2.9827 -4.9682 0
M  V30 88 H -1.915 -1.6995 -6.1226 0
M  V30 END ATOM
M  V30 BEGIN BOND
M  V30 1 1 1 2
M  V30 2 1 1 3
M  V30 3 2 2 4
M  V30 4 1 2 5
M  V30 5 1 3 6
M  V30 6 1 4 7
M  V30 7 2 5 8
M  V30 8 1 6 9
M  V30 9 1 6 10
M  V30 10 2 7 11
M  V30 11 1 9 12
M  V30 12 1 10 13
M  V30 13 1 10 14
M  V30 14 2 12 15
M  V30 15 1 12 16
M  V30 16 1 14 17
M  V30 17 2 16 18
M  V30 18 1 16 19
M  V30 19 1 17 20
M  V30 20 1 17 21
M  V30 21 1 18 22
M  V30 22 1 18 23
M  V30 23 2 19 24
M  V30 24 1 20 25
M  V30 25 1 20 26
M  V30 26 1 21 27
M  V30 27 1 22 28
M  V30 28 2 22 29
M  V30 29 2 25 30
M  V30 30 1 25 31
M  V30 31 1 26 32
M  V30 32 1 27 33
M  V30 33 1 31 34
M  V30 34 1 32 35
M  V30 35 1 33 36
M  V30 36 1 34 37
M  V30 37 1 35 38
M  V30 38 1 37 39
M  V30 39 1 37 40
M  V30 40 1 37 41
M  V30 41 1 8 11
M  V30 42 1 24 29
M  V30 43 1 27 32
M  V30 44 1 36 38
M  V30 45 1 3 42
M  V30 46 1 3 43
M  V30 47 1 4 44
M  V30 48 1 5 45
M  V30 49 1 6 46
M  V30 50 1 7 47
M  V30 51 1 8 48
M  V30 52 1 9 49
M  V30 53 1 10 50
M  V30 54 1 11 51
M  V30 55 1 13 52
M  V30 56 1 14 53
M  V30 57 1 14 54
M  V30 58 1 19 55
M  V30 59 1 20 56
M  V30 60 1 21 57
M  V30 61 1 21 58
M  V30 62 1 23 59
M  V30 63 1 23 60
M  V30 64 1 23 61
M  V30 65 1 24 62
M  V30 66 1 26 63
M  V30 67 1 26 64
M  V30 68 1 27 65
M  V30 69 1 28 66
M  V30 70 1 29 67
M  V30 71 1 31 68
M  V30 72 1 31 69
M  V30 73 1 32 70
M  V30 74 1 33 71
M  V30 75 1 33 72
M  V30 76 1 34 73
M  V30 77 1 35 74
M  V30 78 1 35 75
M  V30 79 1 36 76
M  V30 80 1 36 77
M  V30 81 1 38 78
M  V30 82 1 38 79
M  V30 83 1 39 80
M  V30 84 1 39 81
M  V30 85 1 39 82
M  V30 86 1 40 83
M  V30 87 1 40 84
M  V30 88 1 40 85
M  V30 89 1 41 86
M  V30 90 1 41 87
M  V30 91 1 41 88
M  V30 END BOND
M  V30 BEGIN COLLECTION
M  V30 MDLV30/STEABS ATOMS=(3 6 10 20)
M  V30 END COLLECTION
M  V30 END CTAB
M  END
>  <NO.>
152

>  <Name>
nelfinavir

>  <SMILES>
Cc1c(O)cccc1C(=O)N[C@@H](CSc1ccccc1)[C@@H](O)CN1CC2CCCCC2C[C@H]1C(=O)CNC(C)(C)C

>  <logBB>
-0.93

>  <Class>
1

>  <MW>
581.33

>  <nHBAcc>
7

>  <nHBDon>
4

>  <SLogP>
4.79

>  <TopoPSA>
101.9

>  <MMFF94 Energy>
150.55

$$$$
COn1cc(C(=O)O)c(=O)c2cc3c(cc21)OCO3
Actelion Java MolfileCreator 2.0

  0  0  0  0  0  0              0 V3000
M  V30 BEGIN CTAB
M  V30 COUNTS 28 30 0 0 0
M  V30 BEGIN ATOM
M  V30 1 O 1.6212 -1.2157 -2.4326 0
M  V30 2 C 0.8118 -1.1553 -1.5144 0
M  V30 3 C -0.288 -2.1436 -1.3531 0
M  V30 4 C 0.9066 -0.0475 -0.5262 0
M  V30 5 C -0.3891 -3.3496 -2.1928 0
M  V30 6 C -1.1846 -1.905 -0.3823 0
M  V30 7 C -0.1005 0.0888 0.4634 0
M  V30 8 C 1.9902 0.8409 -0.5917 0
M  V30 9 O 0.4866 -3.8504 -2.8727 0
M  V30 10 O -1.6121 -3.9187 -2.158 0
M  V30 11 N -1.1854 -0.8279 0.48 0
M  V30 12 C 7.0E-4 1.1262 1.4038 0
M  V30 13 C 2.0434 1.8458 0.3473 0
M  V30 14 O -2.1714 -0.7532 1.4711 0
M  V30 15 C 1.0784 1.9835 1.3171 0
M  V30 16 O 3.0129 2.7938 0.4432 0
M  V30 17 C -3.2841 -0.0355 0.9331 0
M  V30 18 O 1.3215 3.036 2.1438 0
M  V30 19 C 2.5533 3.5426 1.5874 0
M  V30 20 H -2.0103 -2.5844 -0.1885 0
M  V30 21 H 2.7619 0.7429 -1.3486 0
M  V30 22 H -1.5148 -4.685 -2.7637 0
M  V30 23 H -0.7386 1.2581 2.1859 0
M  V30 24 H -3.7362 -0.5873 0.1028 0
M  V30 25 H -4.0318 0.0685 1.7243 0
M  V30 26 H -2.9869 0.966 0.6061 0
M  V30 27 H 2.3991 4.5851 1.286 0
M  V30 28 H 3.3277 3.5106 2.3625 0
M  V30 END ATOM
M  V30 BEGIN BOND
M  V30 1 2 1 2
M  V30 2 1 2 3
M  V30 3 1 2 4
M  V30 4 1 3 5
M  V30 5 2 3 6
M  V30 6 2 4 7
M  V30 7 1 4 8
M  V30 8 2 5 9
M  V30 9 1 5 10
M  V30 10 1 6 11
M  V30 11 1 7 12
M  V30 12 2 8 13
M  V30 13 1 11 14
M  V30 14 2 12 15
M  V30 15 1 13 16
M  V30 16 1 14 17
M  V30 17 1 15 18
M  V30 18 1 16 19
M  V30 19 1 7 11
M  V30 20 1 13 15
M  V30 21 1 18 19
M  V30 22 1 6 20
M  V30 23 1 8 21
M  V30 24 1 10 22
M  V30 25 1 12 23
M  V30 26 1 17 24
M  V30 27 1 17 25
M  V30 28 1 17 26
M  V30 29 1 19 27
M  V30 30 1 19 28
M  V30 END BOND
M  V30 END CTAB
M  END
>  <NO.>
153

>  <Name>
miloxacin

>  <SMILES>
COn1cc(C(=O)O)c(=O)c2cc3c(cc21)OCO3

>  <logBB>
-0.92

>  <Class>
1

>  <MW>
263.04

>  <nHBAcc>
5

>  <nHBDon>
1

>  <SLogP>
0.49

>  <TopoPSA>
86.99

>  <MMFF94 Energy>
6.8543

$$$$
CC(C)NCC(O)COc1ccc(CC(N)=O)cc1
Actelion Java MolfileCreator 2.0

  0  0  0  0  0  0              0 V3000
M  V30 BEGIN CTAB
M  V30 COUNTS 41 41 0 0 0
M  V30 BEGIN ATOM
M  V30 1 O 7.0979 -1.8681 3.0371 0
M  V30 2 C 6.0584 -1.2181 3.0841 0
M  V30 3 N 6.069 0.1285 2.8639 0
M  V30 4 C 4.7149 -1.8233 3.4433 0
M  V30 5 C 3.6325 -1.5521 2.4247 0
M  V30 6 C 2.4825 -0.8335 2.776 0
M  V30 7 C 3.7566 -2.0279 1.1142 0
M  V30 8 C 1.479 -0.5851 1.832 0
M  V30 9 C 2.754 -1.7771 0.1751 0
M  V30 10 C 1.6119 -1.0548 0.5261 0
M  V30 11 O 0.7107 -0.8842 -0.4876 0
M  V30 12 C -0.4711 -0.1289 -0.1907 0
M  V30 13 C -1.3189 -0.0776 -1.4695 0 CFG=1
M  V30 14 O -1.7312 -1.4098 -1.8032 0
M  V30 15 C -2.5508 0.8317 -1.2689 0
M  V30 16 N -3.3485 0.9711 -2.4953 0
M  V30 17 C -4.3214 2.066 -2.4477 0
M  V30 18 C -4.9435 2.2192 -3.8379 0
M  V30 19 C -5.4224 1.8172 -1.4155 0
M  V30 20 H 6.9516 0.5638 2.6316 0
M  V30 21 H 5.2247 0.6832 2.8341 0
M  V30 22 H 4.4281 -1.4331 4.4273 0
M  V30 23 H 4.8344 -2.9078 3.5526 0
M  V30 24 H 2.3514 -0.465 3.7915 0
M  V30 25 H 4.6341 -2.5981 0.8138 0
M  V30 26 H 0.6054 -0.0286 2.1546 0
M  V30 27 H 2.8653 -2.1523 -0.8393 0
M  V30 28 H -0.1959 0.887 0.115 0
M  V30 29 H -1.0353 -0.6342 0.6025 0
M  V30 30 H -0.7078 0.287 -2.3038 0
M  V30 31 H -0.921 -1.9519 -1.808 0
M  V30 32 H -3.1822 0.4008 -0.4839 0
M  V30 33 H -2.2041 1.8177 -0.9372 0
M  V30 34 H -2.7339 1.0717 -3.3013 0
M  V30 35 H -3.8092 3.0058 -2.2074 0
M  V30 36 H -5.4721 1.3096 -4.1449 0
M  V30 37 H -4.1777 2.437 -4.5908 0
M  V30 38 H -5.6618 3.0462 -3.8513 0
M  V30 39 H -5.0244 1.8099 -0.3958 0
M  V30 40 H -5.9273 0.8607 -1.5916 0
M  V30 41 H -6.1796 2.6078 -1.4608 0
M  V30 END ATOM
M  V30 BEGIN BOND
M  V30 1 2 1 2
M  V30 2 1 2 3
M  V30 3 1 2 4
M  V30 4 1 4 5
M  V30 5 2 5 6
M  V30 6 1 5 7
M  V30 7 1 6 8
M  V30 8 2 7 9
M  V30 9 2 8 10
M  V30 10 1 10 11
M  V30 11 1 11 12
M  V30 12 1 12 13
M  V30 13 1 13 14
M  V30 14 1 13 15
M  V30 15 1 15 16
M  V30 16 1 16 17
M  V30 17 1 17 18
M  V30 18 1 17 19
M  V30 19 1 9 10
M  V30 20 1 3 20
M  V30 21 1 3 21
M  V30 22 1 4 22
M  V30 23 1 4 23
M  V30 24 1 6 24
M  V30 25 1 7 25
M  V30 26 1 8 26
M  V30 27 1 9 27
M  V30 28 1 12 28
M  V30 29 1 12 29
M  V30 30 1 13 30
M  V30 31 1 14 31
M  V30 32 1 15 32
M  V30 33 1 15 33
M  V30 34 1 16 34
M  V30 35 1 17 35
M  V30 36 1 18 36
M  V30 37 1 18 37
M  V30 38 1 18 38
M  V30 39 1 19 39
M  V30 40 1 19 40
M  V30 41 1 19 41
M  V30 END BOND
M  V30 BEGIN COLLECTION
M  V30 MDLV30/STERAC1 ATOMS=(1 13)
M  V30 END COLLECTION
M  V30 END CTAB
M  END
>  <NO.>
155

>  <Name>
atenolol 

>  <SMILES>
CC(C)NCC(O)COc1ccc(CC(N)=O)cc1

>  <logBB>
-0.9

>  <Class>
1

>  <MW>
266.16

>  <nHBAcc>
4

>  <nHBDon>
3

>  <SLogP>
0.45

>  <TopoPSA>
84.58

>  <MMFF94 Energy>
51.285

$$$$
COc1cc2nc(N3CCN(C(=O)c4ccco4)CC3)nc(N)c2cc1OC
Actelion Java MolfileCreator 2.0

  0  0  0  0  0  0              0 V3000
M  V30 BEGIN CTAB
M  V30 COUNTS 49 52 0 0 0
M  V30 BEGIN ATOM
M  V30 1 O -1.6716 4.9416 -3.0265 0
M  V30 2 C -1.2673 3.8666 -3.4777 0
M  V30 3 N -1.1218 2.7686 -2.6245 0
M  V30 4 C -0.9456 3.7386 -4.8926 0
M  V30 5 C -0.8841 1.3853 -3.0564 0
M  V30 6 C -1.2784 2.9787 -1.1827 0
M  V30 7 O -0.1802 2.7063 -5.3688 0
M  V30 8 C -1.2533 4.5861 -5.9447 0
M  V30 9 C -1.2955 0.3264 -2.0148 0
M  V30 10 C -0.4449 2.002 -0.336 0
M  V30 11 C -0.0297 2.8892 -6.7048 0
M  V30 12 C -0.6733 4.0326 -7.11 0
M  V30 13 N -0.716 0.6174 -0.7093 0
M  V30 14 C -0.442 -0.3973 0.1732 0
M  V30 15 N -0.8011 -1.6463 -0.1486 0
M  V30 16 N 0.1712 -0.095 1.326 0
M  V30 17 C -0.5365 -2.6261 0.7246 0
M  V30 18 C 0.4576 -1.0805 2.182 0
M  V30 19 N -0.9405 -3.89 0.3177 0
M  V30 20 C 0.1299 -2.4101 1.9315 0
M  V30 21 C 1.1094 -0.7657 3.368 0
M  V30 22 C 0.4804 -3.4156 2.8674 0
M  V30 23 C 1.4533 -1.7439 4.3089 0
M  V30 24 C 1.1405 -3.0884 4.0524 0
M  V30 25 O 2.0959 -1.4888 5.495 0
M  V30 26 O 1.5128 -3.9932 5.0128 0
M  V30 27 C 2.4342 -0.14 5.7864 0
M  V30 28 C 1.3084 -5.3718 4.7391 0
M  V30 29 H -1.4297 1.1928 -3.9854 0
M  V30 30 H 0.1904 1.2982 -3.2561 0
M  V30 31 H -2.3452 2.8482 -0.9621 0
M  V30 32 H -1.0135 4.0082 -0.9183 0
M  V30 33 H -1.8291 5.4983 -5.8603 0
M  V30 34 H -2.3882 0.3069 -1.9211 0
M  V30 35 H -0.9769 -0.6499 -2.3991 0
M  V30 36 H -0.6874 2.1886 0.7172 0
M  V30 37 H 0.6223 2.209 -0.4804 0
M  V30 38 H 0.5555 2.138 -7.2168 0
M  V30 39 H -0.7106 4.4241 -8.1168 0
M  V30 40 H -1.3765 -3.8713 -0.5966 0
M  V30 41 H -1.3702 -4.488 1.0073 0
M  V30 42 H 1.3456 0.2805 3.5335 0
M  V30 43 H 0.2323 -4.4451 2.6361 0
M  V30 44 H 3.1354 0.2598 5.0468 0
M  V30 45 H 2.9336 -0.1235 6.76 0
M  V30 46 H 1.5381 0.4845 5.8624 0
M  V30 47 H 0.2413 -5.6018 4.6546 0
M  V30 48 H 1.7052 -5.9431 5.5837 0
M  V30 49 H 1.8532 -5.683 3.8417 0
M  V30 END ATOM
M  V30 BEGIN BOND
M  V30 1 2 1 2
M  V30 2 1 2 3
M  V30 3 1 2 4
M  V30 4 1 3 5
M  V30 5 1 3 6
M  V30 6 1 4 7
M  V30 7 2 4 8
M  V30 8 1 5 9
M  V30 9 1 6 10
M  V30 10 1 7 11
M  V30 11 1 8 12
M  V30 12 1 9 13
M  V30 13 1 13 14
M  V30 14 1 14 15
M  V30 15 2 14 16
M  V30 16 2 15 17
M  V30 17 1 16 18
M  V30 18 1 17 19
M  V30 19 1 17 20
M  V30 20 2 18 21
M  V30 21 2 20 22
M  V30 22 1 21 23
M  V30 23 1 22 24
M  V30 24 1 23 25
M  V30 25 1 24 26
M  V30 26 1 25 27
M  V30 27 1 26 28
M  V30 28 1 10 13
M  V30 29 2 11 12
M  V30 30 1 18 20
M  V30 31 2 23 24
M  V30 32 1 5 29
M  V30 33 1 5 30
M  V30 34 1 6 31
M  V30 35 1 6 32
M  V30 36 1 8 33
M  V30 37 1 9 34
M  V30 38 1 9 35
M  V30 39 1 10 36
M  V30 40 1 10 37
M  V30 41 1 11 38
M  V30 42 1 12 39
M  V30 43 1 19 40
M  V30 44 1 19 41
M  V30 45 1 21 42
M  V30 46 1 22 43
M  V30 47 1 27 44
M  V30 48 1 27 45
M  V30 49 1 27 46
M  V30 50 1 28 47
M  V30 51 1 28 48
M  V30 52 1 28 49
M  V30 END BOND
M  V30 END CTAB
M  END
>  <NO.>
156

>  <Name>
prazosin

>  <SMILES>
COc1cc2nc(N3CCN(C(=O)c4ccco4)CC3)nc(N)c2cc1OC

>  <logBB>
-0.9

>  <Class>
1

>  <MW>
383.16

>  <nHBAcc>
8

>  <nHBDon>
1

>  <SLogP>
1.78

>  <TopoPSA>
106.95

>  <MMFF94 Energy>
-9.9526

$$$$
COc1ccc(Cl)cc1C(=O)NCCc1ccc(S(=O)(=O)NC(=O)NC2CCCCC2)cc1
Actelion Java MolfileCreator 2.0

  0  0  0  0  0  0              0 V3000
M  V30 BEGIN CTAB
M  V30 COUNTS 61 63 0 0 0
M  V30 BEGIN ATOM
M  V30 1 Cl 1.2084 7.9963 3.3057 0
M  V30 2 C 1.2672 6.464 4.0856 0
M  V30 3 C 0.8236 5.3296 3.4089 0
M  V30 4 C 1.7531 6.3707 5.3901 0
M  V30 5 C 0.8715 4.0842 4.0482 0
M  V30 6 C 1.8035 5.1285 6.0256 0
M  V30 7 C 1.3804 3.9821 5.3481 0
M  V30 8 C 0.4109 2.885 3.3147 0
M  V30 9 O 1.3692 2.7889 6.0185 0
M  V30 10 O 1.1485 1.9197 3.1662 0
M  V30 11 N -0.8677 2.9693 2.8043 0
M  V30 12 C 2.6738 2.2057 6.0232 0
M  V30 13 C -1.46 1.867 2.0715 0
M  V30 14 C -0.9517 1.7916 0.6301 0
M  V30 15 C -1.5819 0.6483 -0.1273 0
M  V30 16 C -1.0625 -0.6485 6.0E-4 0
M  V30 17 C -2.7052 0.8625 -0.9385 0
M  V30 18 C -1.6462 -1.7161 -0.6822 0
M  V30 19 C -3.2929 -0.2007 -1.6252 0
M  V30 20 C -2.7512 -1.4834 -1.5032 0
M  V30 21 S -3.5102 -2.8277 -2.3793 0
M  V30 22 O -4.9428 -2.6688 -2.2654 0
M  V30 23 O -2.842 -4.052 -1.9877 0
M  V30 24 N -3.101 -2.4949 -3.9427 0
M  V30 25 C -1.8836 -2.6521 -4.5854 0
M  V30 26 O -1.7268 -2.1342 -5.6803 0
M  V30 27 N -0.9426 -3.4081 -3.958 0
M  V30 28 C 0.3765 -3.6598 -4.5203 0
M  V30 29 C 1.2963 -2.4383 -4.3746 0
M  V30 30 C 1.0108 -4.9021 -3.8808 0
M  V30 31 C 1.7357 -2.202 -2.9307 0
M  V30 32 C 1.4544 -4.6625 -2.4372 0
M  V30 33 C 2.3697 -3.4481 -2.3222 0
M  V30 34 H 0.461 5.4097 2.3877 0
M  V30 35 H 2.0876 7.2599 5.9188 0
M  V30 36 H 2.1598 5.0571 7.05 0
M  V30 37 H -1.4402 3.7769 3.0148 0
M  V30 38 H 3.1215 2.1905 5.0233 0
M  V30 39 H 2.5772 1.1722 6.3687 0
M  V30 40 H 3.3288 2.7376 6.7213 0
M  V30 41 H -2.5456 2.0155 2.0903 0
M  V30 42 H -1.2427 0.9369 2.61 0
M  V30 43 H -1.1562 2.738 0.1127 0
M  V30 44 H 0.1394 1.6784 0.6087 0
M  V30 45 H -0.1979 -0.8305 0.638 0
M  V30 46 H -3.1297 1.8596 -1.0387 0
M  V30 47 H -1.2314 -2.7142 -0.565 0
M  V30 48 H -4.169 -0.0229 -2.2445 0
M  V30 49 H -3.8194 -2.0162 -4.4759 0
M  V30 50 H -1.2251 -3.9036 -3.1178 0
M  V30 51 H 0.231 -3.8559 -5.59 0
M  V30 52 H 2.1902 -2.5944 -4.992 0
M  V30 53 H 0.8068 -1.5342 -4.7546 0
M  V30 54 H 1.8865 -5.1976 -4.4727 0
M  V30 55 H 0.3095 -5.7448 -3.9099 0
M  V30 56 H 2.4517 -1.3729 -2.8968 0
M  V30 57 H 0.8729 -1.8982 -2.3282 0
M  V30 58 H 0.5764 -4.52 -1.796 0
M  V30 59 H 1.9758 -5.551 -2.0631 0
M  V30 60 H 2.6073 -3.2639 -1.2684 0
M  V30 61 H 3.3185 -3.6586 -2.8309 0
M  V30 END ATOM
M  V30 BEGIN BOND
M  V30 1 1 1 2
M  V30 2 2 2 3
M  V30 3 1 2 4
M  V30 4 1 3 5
M  V30 5 2 4 6
M  V30 6 2 5 7
M  V30 7 1 5 8
M  V30 8 1 7 9
M  V30 9 2 8 10
M  V30 10 1 8 11
M  V30 11 1 9 12
M  V30 12 1 11 13
M  V30 13 1 13 14
M  V30 14 1 14 15
M  V30 15 2 15 16
M  V30 16 1 15 17
M  V30 17 1 16 18
M  V30 18 2 17 19
M  V30 19 2 18 20
M  V30 20 1 20 21
M  V30 21 2 21 22
M  V30 22 2 21 23
M  V30 23 1 21 24
M  V30 24 1 24 25
M  V30 25 2 25 26
M  V30 26 1 25 27
M  V30 27 1 27 28
M  V30 28 1 28 29
M  V30 29 1 28 30
M  V30 30 1 29 31
M  V30 31 1 30 32
M  V30 32 1 31 33
M  V30 33 1 6 7
M  V30 34 1 19 20
M  V30 35 1 32 33
M  V30 36 1 3 34
M  V30 37 1 4 35
M  V30 38 1 6 36
M  V30 39 1 11 37
M  V30 40 1 12 38
M  V30 41 1 12 39
M  V30 42 1 12 40
M  V30 43 1 13 41
M  V30 44 1 13 42
M  V30 45 1 14 43
M  V30 46 1 14 44
M  V30 47 1 16 45
M  V30 48 1 17 46
M  V30 49 1 18 47
M  V30 50 1 19 48
M  V30 51 1 24 49
M  V30 52 1 27 50
M  V30 53 1 28 51
M  V30 54 1 29 52
M  V30 55 1 29 53
M  V30 56 1 30 54
M  V30 57 1 30 55
M  V30 58 1 31 56
M  V30 59 1 31 57
M  V30 60 1 32 58
M  V30 61 1 32 59
M  V30 62 1 33 60
M  V30 63 1 33 61
M  V30 END BOND
M  V30 END CTAB
M  END
>  <NO.>
157

>  <Name>
glibenclamide

>  <SMILES>
COc1ccc(Cl)cc1C(=O)NCCc1ccc(S(=O)(=O)NC(=O)NC2CCCCC2)cc1

>  <logBB>
-0.9

>  <Class>
1

>  <MW>
493.14

>  <nHBAcc>
5

>  <nHBDon>
3

>  <SLogP>
3.64

>  <TopoPSA>
113.6

>  <MMFF94 Energy>
-135.87

$$$$
C[C@]12CC(=O)[C@H]3[C@@H](CCC4=CC(=O)C=C[C@@]43C)[C@@H]1CCC2(O)C(=O)CO
Actelion Java MolfileCreator 2.0

  0  0  0  0  0  0              0 V3000
M  V30 BEGIN CTAB
M  V30 COUNTS 52 55 0 0 0
M  V30 BEGIN ATOM
M  V30 1 O 2.2674 4.9448 3.8894 0
M  V30 2 C 1.723 4.3177 2.9899 0
M  V30 3 C 2.5116 3.6198 1.9551 0
M  V30 4 C 0.2561 4.2115 2.9032 0
M  V30 5 C 1.9286 2.9407 0.9508 0
M  V30 6 C -0.328 3.5382 1.9034 0
M  V30 7 C 0.4029 2.8331 0.7645 0 CFG=2
M  V30 8 C 2.7785 2.1836 -0.0385 0
M  V30 9 C 0.0454 1.3084 0.7408 0 CFG=1
M  V30 10 C 0.0197 3.5667 -0.5407 0
M  V30 11 C 2.4015 0.7059 -0.0378 0
M  V30 12 C -1.4447 0.9703 0.5325 0
M  V30 13 C 0.8995 0.5012 -0.2893 0 CFG=1
M  V30 14 O -2.3213 1.8211 0.3929 0
M  V30 15 C -1.8119 -0.5085 0.555 0
M  V30 16 C 0.5162 -0.983 -0.1944 0 CFG=1
M  V30 17 C -0.9816 -1.2544 -0.4973 0 CFG=1
M  V30 18 C 1.2465 -1.9825 -1.086 0
M  V30 19 C -0.9883 -2.8113 -0.3984 0
M  V30 20 C -1.407 -0.779 -1.9155 0
M  V30 21 C 0.3075 -3.2046 -1.1522 0
M  V30 22 O -0.8314 -3.1885 0.9763 0
M  V30 23 C -2.2696 -3.4864 -0.9333 0
M  V30 24 O -3.3819 -2.9537 -0.8743 0
M  V30 25 C -2.145 -4.9019 -1.4876 0
M  V30 26 O -3.4084 -5.5403 -1.5917 0
M  V30 27 H 3.5869 3.6808 2.0787 0
M  V30 28 H -0.3127 4.7116 3.6776 0
M  V30 29 H -1.417 3.5195 1.8839 0
M  V30 30 H 2.65 2.607 -1.041 0
M  V30 31 H 3.8455 2.2763 0.1979 0
M  V30 32 H 0.2738 0.913 1.7445 0
M  V30 33 H -1.0643 3.6451 -0.672 0
M  V30 34 H 0.4141 3.0728 -1.4336 0
M  V30 35 H 0.4096 4.593 -0.5441 0
M  V30 36 H 2.6834 0.2567 0.9236 0
M  V30 37 H 2.9868 0.193 -0.8099 0
M  V30 38 H 0.6872 0.8581 -1.303 0
M  V30 39 H -2.8846 -0.6114 0.359 0
M  V30 40 H -1.6288 -0.8734 1.5716 0
M  V30 41 H 0.7284 -1.2861 0.8437 0
M  V30 42 H 2.2222 -2.257 -0.6717 0
M  V30 43 H 1.4168 -1.5784 -2.0901 0
M  V30 44 H -0.858 -1.2874 -2.7135 0
M  V30 45 H -1.2581 0.2953 -2.0585 0
M  V30 46 H -2.4722 -0.9608 -2.0908 0
M  V30 47 H 0.7929 -4.0742 -0.6948 0
M  V30 48 H 0.1188 -3.4447 -2.2041 0
M  V30 49 H -0.7229 -4.1531 1.041 0
M  V30 50 H -1.7009 -4.8595 -2.4848 0
M  V30 51 H -1.5192 -5.5037 -0.8242 0
M  V30 52 H -4.0783 -4.8258 -1.6202 0
M  V30 END ATOM
M  V30 BEGIN BOND
M  V30 1 2 1 2
M  V30 2 1 2 3
M  V30 3 1 2 4
M  V30 4 2 3 5
M  V30 5 2 4 6
M  V30 6 1 5 7
M  V30 7 1 5 8
M  V30 8 1 7 9
M  V30 9 1 7 10
M  V30 10 1 8 11
M  V30 11 1 9 12
M  V30 12 1 9 13
M  V30 13 2 12 14
M  V30 14 1 12 15
M  V30 15 1 13 16
M  V30 16 1 15 17
M  V30 17 1 16 18
M  V30 18 1 17 19
M  V30 19 1 17 20
M  V30 20 1 18 21
M  V30 21 1 19 22
M  V30 22 1 19 23
M  V30 23 2 23 24
M  V30 24 1 23 25
M  V30 25 1 25 26
M  V30 26 1 6 7
M  V30 27 1 11 13
M  V30 28 1 16 17
M  V30 29 1 19 21
M  V30 30 1 3 27
M  V30 31 1 4 28
M  V30 32 1 6 29
M  V30 33 1 8 30
M  V30 34 1 8 31
M  V30 35 1 9 32
M  V30 36 1 10 33
M  V30 37 1 10 34
M  V30 38 1 10 35
M  V30 39 1 11 36
M  V30 40 1 11 37
M  V30 41 1 13 38
M  V30 42 1 15 39
M  V30 43 1 15 40
M  V30 44 1 16 41
M  V30 45 1 18 42
M  V30 46 1 18 43
M  V30 47 1 20 44
M  V30 48 1 20 45
M  V30 49 1 20 46
M  V30 50 1 21 47
M  V30 51 1 21 48
M  V30 52 1 22 49
M  V30 53 1 25 50
M  V30 54 1 25 51
M  V30 55 1 26 52
M  V30 END BOND
M  V30 BEGIN COLLECTION
M  V30 MDLV30/STEABS ATOMS=(5 7 9 13 16 17)
M  V30 END COLLECTION
M  V30 END CTAB
M  END
>  <NO.>
158

>  <Name>
prednisone

>  <SMILES>
C[C@]12CC(=O)[C@H]3[C@@H](CCC4=CC(=O)C=C[C@@]43C)[C@@H]1CCC2(O)C(=O)CO

>  <logBB>
-0.9

>  <Class>
1

>  <MW>
358.18

>  <nHBAcc>
5

>  <nHBDon>
2

>  <SLogP>
1.77

>  <TopoPSA>
91.67

>  <MMFF94 Energy>
122.52

$$$$
Nc1cccc(CN2CCC(NC(=O)C(O)(c3ccccc3)C3CCC(F)(F)C3)CC2)n1
Actelion Java MolfileCreator 2.0

  0  0  0  0  0  0              0 V3000
M  V30 BEGIN CTAB
M  V30 COUNTS 62 65 0 0 0
M  V30 BEGIN ATOM
M  V30 1 F 4.1587 3.0377 -2.4776 0
M  V30 2 C 4.9633 2.6735 -1.4513 0
M  V30 3 F 5.9435 3.5883 -1.355 0
M  V30 4 C 4.1567 2.5603 -0.1767 0
M  V30 5 C 5.5032 1.2785 -1.6858 0
M  V30 6 C 3.4093 1.239 -0.3982 0
M  V30 7 C 4.4349 0.3392 -1.1147 0
M  V30 8 C 2.7059 0.6369 0.842 0
M  V30 9 O 1.7557 1.6451 1.2964 0
M  V30 10 C 3.6317 0.3145 2.0229 0
M  V30 11 C 1.803 -0.5529 0.3501 0
M  V30 12 C 3.9188 1.3024 2.9902 0
M  V30 13 C 4.257 -0.9325 2.1837 0
M  V30 14 O 2.1731 -1.7163 0.2271 0
M  V30 15 N 0.5272 -0.1503 -0.0129 0
M  V30 16 C 4.767 1.0479 4.0712 0
M  V30 17 C 5.1056 -1.1897 3.266 0
M  V30 18 C -0.4888 -1.0689 -0.5015 0
M  V30 19 C 5.3581 -0.2015 4.2107 0
M  V30 20 C -1.2175 -1.7429 0.6634 0
M  V30 21 C -1.4793 -0.3411 -1.4116 0
M  V30 22 C -2.3609 -2.6207 0.1542 0
M  V30 23 C -2.6122 -1.2748 -1.8381 0
M  V30 24 N -3.3084 -1.9104 -0.7149 0
M  V30 25 C -4.1861 -1.0038 0.0539 0
M  V30 26 C -5.4082 -0.5064 -0.7028 0
M  V30 27 N -6.4856 -1.3323 -0.7641 0
M  V30 28 C -5.4051 0.7557 -1.2926 0
M  V30 29 C -7.5697 -0.9164 -1.4381 0
M  V30 30 C -6.5427 1.178 -1.9687 0
M  V30 31 N -8.6498 -1.7744 -1.4524 0
M  V30 32 C -7.643 0.3305 -2.0388 0
M  V30 33 H 4.8303 2.5295 0.6841 0
M  V30 34 H 3.4688 3.4021 -0.0535 0
M  V30 35 H 6.451 1.1385 -1.1539 0
M  V30 36 H 5.679 1.0826 -2.7477 0
M  V30 37 H 2.6222 1.4635 -1.1364 0
M  V30 38 H 4.9111 -0.3848 -0.4493 0
M  V30 39 H 3.948 -0.2303 -1.9143 0
M  V30 40 H 1.4243 1.3213 2.1556 0
M  V30 41 H 3.4903 2.3006 2.9049 0
M  V30 42 H 4.109 -1.7382 1.4679 0
M  V30 43 H 0.3055 0.8302 0.1442 0
M  V30 44 H 4.9689 1.8292 4.7996 0
M  V30 45 H 5.5713 -2.1674 3.3649 0
M  V30 46 H 0.0193 -1.8448 -1.0887 0
M  V30 47 H 6.0192 -0.4038 5.049 0
M  V30 48 H -1.6011 -0.9859 1.3592 0
M  V30 49 H -0.5159 -2.3583 1.2395 0
M  V30 50 H -1.8862 0.5426 -0.9043 0
M  V30 51 H -0.958 0.032 -2.3017 0
M  V30 52 H -1.9391 -3.4631 -0.4095 0
M  V30 53 H -2.8858 -3.0764 1.0027 0
M  V30 54 H -2.1934 -2.0674 -2.4726 0
M  V30 55 H -3.3115 -0.7391 -2.4885 0
M  V30 56 H -3.6342 -0.1482 0.4615 0
M  V30 57 H -4.5784 -1.5439 0.9264 0
M  V30 58 H -4.536 1.4009 -1.2275 0
M  V30 59 H -6.5762 2.1585 -2.4338 0
M  V30 60 H -9.1929 -1.837 -2.299 0
M  V30 61 H -8.4509 -2.6384 -0.9628 0
M  V30 62 H -8.5458 0.645 -2.5496 0
M  V30 END ATOM
M  V30 BEGIN BOND
M  V30 1 1 1 2
M  V30 2 1 2 3
M  V30 3 1 2 4
M  V30 4 1 2 5
M  V30 5 1 4 6
M  V30 6 1 5 7
M  V30 7 1 6 8
M  V30 8 1 8 9
M  V30 9 1 8 10
M  V30 10 1 8 11
M  V30 11 2 10 12
M  V30 12 1 10 13
M  V30 13 2 11 14
M  V30 14 1 11 15
M  V30 15 1 12 16
M  V30 16 2 13 17
M  V30 17 1 15 18
M  V30 18 2 16 19
M  V30 19 1 18 20
M  V30 20 1 18 21
M  V30 21 1 20 22
M  V30 22 1 21 23
M  V30 23 1 22 24
M  V30 24 1 24 25
M  V30 25 1 25 26
M  V30 26 2 26 27
M  V30 27 1 26 28
M  V30 28 1 27 29
M  V30 29 2 28 30
M  V30 30 1 29 31
M  V30 31 2 29 32
M  V30 32 1 6 7
M  V30 33 1 17 19
M  V30 34 1 23 24
M  V30 35 1 30 32
M  V30 36 1 4 33
M  V30 37 1 4 34
M  V30 38 1 5 35
M  V30 39 1 5 36
M  V30 40 1 6 37
M  V30 41 1 7 38
M  V30 42 1 7 39
M  V30 43 1 9 40
M  V30 44 1 12 41
M  V30 45 1 13 42
M  V30 46 1 15 43
M  V30 47 1 16 44
M  V30 48 1 17 45
M  V30 49 1 18 46
M  V30 50 1 19 47
M  V30 51 1 20 48
M  V30 52 1 20 49
M  V30 53 1 21 50
M  V30 54 1 21 51
M  V30 55 1 22 52
M  V30 56 1 22 53
M  V30 57 1 23 54
M  V30 58 1 23 55
M  V30 59 1 25 56
M  V30 60 1 25 57
M  V30 61 1 28 58
M  V30 62 1 30 59
M  V30 63 1 31 60
M  V30 64 1 31 61
M  V30 65 1 32 62
M  V30 END BOND
M  V30 END CTAB
M  END
>  <NO.>
160

>  <Name>
l001588

>  <SMILES>
Nc1cccc(CN2CCC(NC(=O)C(O)(c3ccccc3)C3CCC(F)(F)C3)CC2)n1

>  <logBB>
-0.89

>  <Class>
1

>  <MW>
444.23

>  <nHBAcc>
5

>  <nHBDon>
3

>  <SLogP>
3.07

>  <TopoPSA>
91.48

>  <MMFF94 Energy>
64.831

$$$$
CC1CCN(CCC2CCN2S(=O)(=O)C2=CC(O)=CCC2)CC1
Actelion Java MolfileCreator 2.0

  0  0  0  0  0  0              0 V3000
M  V30 BEGIN CTAB
M  V30 COUNTS 51 53 0 0 0
M  V30 BEGIN ATOM
M  V30 1 S -0.3215 -1.9302 3.3798 0
M  V30 2 O 1.0224 -2.4748 3.3978 0
M  V30 3 O -1.0189 -1.695 4.6293 0
M  V30 4 N -0.2149 -0.4156 2.6035 0
M  V30 5 C -1.3491 -2.8799 2.3515 0
M  V30 6 C 0.6063 -0.1363 1.365 0 CFG=2
M  V30 7 C 0.4468 0.7567 3.2605 0
M  V30 8 C -0.8154 -3.8638 1.6085 0
M  V30 9 C -2.8135 -2.5516 2.3314 0
M  V30 10 C 0.8349 1.3059 1.8824 0
M  V30 11 C -0.2149 -0.3066 0.094 0
M  V30 12 C -1.641 -4.6579 0.7378 0
M  V30 13 C -3.5764 -3.1481 1.1341 0
M  V30 14 C 0.642 -0.0556 -1.1544 0
M  V30 15 O -1.0001 -5.7188 0.159 0
M  V30 16 C -2.92 -4.3422 0.4958 0
M  V30 17 N 1.1374 1.3258 -1.2725 0
M  V30 18 C 0.0645 2.2601 -1.6534 0
M  V30 19 C 2.2423 1.3862 -2.2446 0
M  V30 20 C 0.5803 3.7006 -1.719 0
M  V30 21 C 2.8327 2.7956 -2.3314 0
M  V30 22 C 1.7794 3.859 -2.6599 0
M  V30 23 C 1.3584 3.8062 -4.1305 0
M  V30 24 H 1.5231 -0.7413 1.3652 0
M  V30 25 H -0.2476 1.3717 3.8377 0
M  V30 26 H 1.2958 0.4641 3.8872 0
M  V30 27 H 0.2456 -4.0993 1.6374 0
M  V30 28 H -2.9642 -1.4654 2.3303 0
M  V30 29 H -3.2616 -2.9276 3.2602 0
M  V30 30 H 0.1337 2.0556 1.502 0
M  V30 31 H 1.8567 1.6837 1.7974 0
M  V30 32 H -1.1068 0.329 0.1068 0
M  V30 33 H -0.5785 -1.3378 0.0302 0
M  V30 34 H -3.6979 -2.3777 0.362 0
M  V30 35 H -4.5867 -3.4225 1.4602 0
M  V30 36 H 1.4957 -0.7444 -1.1012 0
M  V30 37 H 0.0727 -0.3365 -2.0499 0
M  V30 38 H -1.642 -6.204 -0.3854 0
M  V30 39 H -3.5234 -4.9298 -0.1878 0
M  V30 40 H -0.7412 2.2396 -0.9122 0
M  V30 41 H -0.3805 1.9747 -2.6146 0
M  V30 42 H 3.0467 0.7101 -1.9294 0
M  V30 43 H 1.9114 1.0506 -3.2354 0
M  V30 44 H -0.2333 4.3699 -2.0228 0
M  V30 45 H 0.8793 4.014 -0.7096 0
M  V30 46 H 3.2958 3.0438 -1.3669 0
M  V30 47 H 3.6378 2.8131 -3.0754 0
M  V30 48 H 2.2232 4.8481 -2.4887 0
M  V30 49 H 2.2243 3.9591 -4.7833 0
M  V30 50 H 0.6335 4.5972 -4.3509 0
M  V30 51 H 0.9013 2.85 -4.4008 0
M  V30 END ATOM
M  V30 BEGIN BOND
M  V30 1 2 1 2
M  V30 2 2 1 3
M  V30 3 1 1 4
M  V30 4 1 1 5
M  V30 5 1 4 6
M  V30 6 1 4 7
M  V30 7 2 5 8
M  V30 8 1 5 9
M  V30 9 1 6 10
M  V30 10 1 6 11
M  V30 11 1 8 12
M  V30 12 1 9 13
M  V30 13 1 11 14
M  V30 14 1 12 15
M  V30 15 2 12 16
M  V30 16 1 14 17
M  V30 17 1 17 18
M  V30 18 1 17 19
M  V30 19 1 18 20
M  V30 20 1 19 21
M  V30 21 1 20 22
M  V30 22 1 22 23
M  V30 23 1 7 10
M  V30 24 1 13 16
M  V30 25 1 21 22
M  V30 26 1 6 24
M  V30 27 1 7 25
M  V30 28 1 7 26
M  V30 29 1 8 27
M  V30 30 1 9 28
M  V30 31 1 9 29
M  V30 32 1 10 30
M  V30 33 1 10 31
M  V30 34 1 11 32
M  V30 35 1 11 33
M  V30 36 1 13 34
M  V30 37 1 13 35
M  V30 38 1 14 36
M  V30 39 1 14 37
M  V30 40 1 15 38
M  V30 41 1 16 39
M  V30 42 1 18 40
M  V30 43 1 18 41
M  V30 44 1 19 42
M  V30 45 1 19 43
M  V30 46 1 20 44
M  V30 47 1 20 45
M  V30 48 1 21 46
M  V30 49 1 21 47
M  V30 50 1 22 48
M  V30 51 1 23 49
M  V30 52 1 23 50
M  V30 53 1 23 51
M  V30 END BOND
M  V30 BEGIN COLLECTION
M  V30 MDLV30/STERAC1 ATOMS=(1 6)
M  V30 END COLLECTION
M  V30 END CTAB
M  END
>  <NO.>
162

>  <Name>
s118

>  <SMILES>
CC1CCN(CCC2CCN2S(=O)(=O)C2=CC(O)=CCC2)CC1

>  <logBB>
-0.89

>  <Class>
1

>  <MW>
340.18

>  <nHBAcc>
4

>  <nHBDon>
1

>  <SLogP>
2.63

>  <TopoPSA>
60.85

>  <MMFF94 Energy>
-64.122

$$$$
Cc1cc(Cl)ccc1NC1=NCCN1
Actelion Java MolfileCreator 2.0

  0  0  0  0  0  0              0 V3000
M  V30 BEGIN CTAB
M  V30 COUNTS 26 27 0 0 0
M  V30 BEGIN ATOM
M  V30 1 Cl 4.1539 0.3988 3.434 0
M  V30 2 C 2.8965 0.2859 2.2656 0
M  V30 3 C 3.2059 0.0094 0.9375 0
M  V30 4 C 1.5764 0.4718 2.6474 0
M  V30 5 C 2.1875 -0.0861 -0.031 0
M  V30 6 C 0.5588 0.3801 1.6922 0
M  V30 7 C 0.833 0.1021 0.3431 0
M  V30 8 C 2.5857 -0.3939 -1.4507 0
M  V30 9 N -0.1859 0.0086 -0.6263 0
M  V30 10 C -1.5345 -0.0155 -0.4655 0
M  V30 11 N -2.2508 -0.0919 0.6185 0
M  V30 12 N -2.2321 0.0432 -1.6299 0
M  V30 13 C -3.6655 -0.1132 0.1561 0
M  V30 14 C -3.6418 0.0995 -1.3597 0
M  V30 15 H 4.2458 -0.135 0.6535 0
M  V30 16 H 1.3214 0.6884 3.681 0
M  V30 17 H -0.4618 0.5397 2.0302 0
M  V30 18 H 2.1097 -1.3209 -1.7861 0
M  V30 19 H 2.297 0.4291 -2.1122 0
M  V30 20 H 3.6683 -0.5289 -1.5477 0
M  V30 21 H 0.133 -0.1319 -1.5692 0
M  V30 22 H -1.8515 0.4045 -2.4896 0
M  V30 23 H -4.2368 0.6748 0.6573 0
M  V30 24 H -4.1144 -1.0793 0.4107 0
M  V30 25 H -4.1904 -0.6833 -1.8907 0
M  V30 26 H -4.0521 1.0773 -1.6302 0
M  V30 END ATOM
M  V30 BEGIN BOND
M  V30 1 1 1 2
M  V30 2 2 2 3
M  V30 3 1 2 4
M  V30 4 1 3 5
M  V30 5 2 4 6
M  V30 6 2 5 7
M  V30 7 1 5 8
M  V30 8 1 7 9
M  V30 9 1 9 10
M  V30 10 2 10 11
M  V30 11 1 10 12
M  V30 12 1 11 13
M  V30 13 1 12 14
M  V30 14 1 6 7
M  V30 15 1 13 14
M  V30 16 1 3 15
M  V30 17 1 4 16
M  V30 18 1 6 17
M  V30 19 1 8 18
M  V30 20 1 8 19
M  V30 21 1 8 20
M  V30 22 1 9 21
M  V30 23 1 12 22
M  V30 24 1 13 23
M  V30 25 1 13 24
M  V30 26 1 14 25
M  V30 27 1 14 26
M  V30 END BOND
M  V30 END CTAB
M  END
>  <NO.>
163

>  <Name>
4201-26-7

>  <SMILES>
Cc1cc(Cl)ccc1NC1=NCCN1

>  <logBB>
-0.87

>  <Class>
1

>  <MW>
209.07

>  <nHBAcc>
3

>  <nHBDon>
2

>  <SLogP>
2.02

>  <TopoPSA>
36.42

>  <MMFF94 Energy>
-35.486

$$$$
CN(C)CCOc1ccc(-c2nc(-c3ccc4c(c3)CC/C4=N\CO)c(-c3ccncc3)[nH]2)cc1
Actelion Java MolfileCreator 2.0

  0  0  0  0  0  0              0 V3000
M  V30 BEGIN CTAB
M  V30 COUNTS 64 68 0 0 0
M  V30 BEGIN ATOM
M  V30 1 O 2.0712 -5.0243 2.3104 0
M  V30 2 C 1.8416 -3.7311 1.936 0
M  V30 3 C 3.0901 -5.2564 3.2839 0
M  V30 4 C 0.7971 -3.5637 1.0277 0
M  V30 5 C 2.5513 -2.6109 2.3641 0
M  V30 6 C 3.1779 -6.7648 3.5909 0
M  V30 7 C 0.457 -2.2911 0.5592 0
M  V30 8 C 2.2097 -1.3332 1.8948 0
M  V30 9 N 1.9788 -7.3585 4.2194 0
M  V30 10 C 1.1429 -1.1529 1.0028 0
M  V30 11 C 1.727 -6.8242 5.5567 0
M  V30 12 C 2.1106 -8.8155 4.2782 0
M  V30 13 C 0.7826 0.1588 0.4529 0
M  V30 14 N -0.0404 0.3774 -0.5537 0
M  V30 15 N 1.2395 1.3612 0.9364 0
M  V30 16 C -0.0953 1.7419 -0.7305 0
M  V30 17 C 0.6627 2.3966 0.2294 0
M  V30 18 C -0.8813 2.3325 -1.8005 0
M  V30 19 C 0.9071 3.8002 0.5612 0
M  V30 20 C -2.1661 1.8237 -2.0601 0
M  V30 21 C -0.3648 3.375 -2.6002 0
M  V30 22 C 2.1953 4.2458 0.8698 0
M  V30 23 C -0.1141 4.7479 0.4715 0
M  V30 24 C -2.9193 2.3819 -3.083 0
M  V30 25 C -1.1272 3.9329 -3.6299 0
M  V30 26 C 2.3928 5.596 1.1147 0
M  V30 27 C 0.1809 6.0756 0.7358 0
M  V30 28 C -2.3935 3.4193 -3.8414 0
M  V30 29 C -4.287 1.9799 -3.5301 0
M  V30 30 N 1.412 6.5192 1.0632 0
M  V30 31 C -3.3824 3.8116 -4.8353 0
M  V30 32 C -4.6359 2.9902 -4.6353 0
M  V30 33 N -3.1539 4.7236 -5.7137 0
M  V30 34 C -4.2183 5.0361 -6.6517 0
M  V30 35 O -5.4207 5.5237 -6.0805 0
M  V30 36 H 2.893 -4.6864 4.1983 0
M  V30 37 H 4.0577 -4.9422 2.873 0
M  V30 38 H 0.2427 -4.4311 0.6773 0
M  V30 39 H 3.3826 -2.6943 3.0558 0
M  V30 40 H 3.347 -7.2732 2.6327 0
M  V30 41 H 4.0602 -6.9473 4.2177 0
M  V30 42 H -0.3563 -2.1912 -0.1578 0
M  V30 43 H 2.8044 -0.4931 2.2398 0
M  V30 44 H 1.4886 -5.7569 5.5196 0
M  V30 45 H 2.582 -6.9687 6.2267 0
M  V30 46 H 0.854 -7.31 6.0078 0
M  V30 47 H 2.9634 -9.1282 4.8915 0
M  V30 48 H 2.2357 -9.2333 3.2731 0
M  V30 49 H 1.2028 -9.269 4.6918 0
M  V30 50 H 1.8339 1.4731 1.7421 0
M  V30 51 H -2.5586 1.0004 -1.4681 0
M  V30 52 H 0.6415 3.7513 -2.4303 0
M  V30 53 H 3.0437 3.5718 0.9001 0
M  V30 54 H -1.1312 4.4678 0.2173 0
M  V30 55 H -0.7417 4.7368 -4.2479 0
M  V30 56 H 3.3785 5.9829 1.3573 0
M  V30 57 H -0.5903 6.8392 0.6864 0
M  V30 58 H -4.2763 0.9602 -3.9287 0
M  V30 59 H -5.0079 2.0362 -2.7083 0
M  V30 60 H -5.4581 3.6371 -4.3139 0
M  V30 61 H -4.9209 2.4792 -5.5594 0
M  V30 62 H -3.8432 5.8117 -7.3284 0
M  V30 63 H -4.4532 4.1656 -7.2748 0
M  V30 64 H -5.9317 5.9063 -6.8117 0
M  V30 END ATOM
M  V30 BEGIN BOND
M  V30 1 1 1 2
M  V30 2 1 1 3
M  V30 3 2 2 4
M  V30 4 1 2 5
M  V30 5 1 3 6
M  V30 6 1 4 7
M  V30 7 2 5 8
M  V30 8 1 6 9
M  V30 9 2 7 10
M  V30 10 1 9 11
M  V30 11 1 9 12
M  V30 12 1 10 13
M  V30 13 2 13 14
M  V30 14 1 13 15
M  V30 15 1 14 16
M  V30 16 1 15 17
M  V30 17 1 16 18
M  V30 18 1 17 19
M  V30 19 2 18 20
M  V30 20 1 18 21
M  V30 21 2 19 22
M  V30 22 1 19 23
M  V30 23 1 20 24
M  V30 24 2 21 25
M  V30 25 1 22 26
M  V30 26 2 23 27
M  V30 27 2 24 28
M  V30 28 1 24 29
M  V30 29 2 26 30
M  V30 30 1 28 31
M  V30 31 1 29 32
M  V30 32 2 31 33
M  V30 33 1 33 34
M  V30 34 1 34 35
M  V30 35 1 8 10
M  V30 36 2 16 17
M  V30 37 1 25 28
M  V30 38 1 27 30
M  V30 39 1 31 32
M  V30 40 1 3 36
M  V30 41 1 3 37
M  V30 42 1 4 38
M  V30 43 1 5 39
M  V30 44 1 6 40
M  V30 45 1 6 41
M  V30 46 1 7 42
M  V30 47 1 8 43
M  V30 48 1 11 44
M  V30 49 1 11 45
M  V30 50 1 11 46
M  V30 51 1 12 47
M  V30 52 1 12 48
M  V30 53 1 12 49
M  V30 54 1 15 50
M  V30 55 1 20 51
M  V30 56 1 21 52
M  V30 57 1 22 53
M  V30 58 1 23 54
M  V30 59 1 25 55
M  V30 60 1 26 56
M  V30 61 1 27 57
M  V30 62 1 29 58
M  V30 63 1 29 59
M  V30 64 1 32 60
M  V30 65 1 32 61
M  V30 66 1 34 62
M  V30 67 1 34 63
M  V30 68 1 35 64
M  V30 END BOND
M  V30 END CTAB
M  END
>  <NO.>
164

>  <Name>
takle-1; sb-590885

>  <SMILES>
CN(C)CCOc1ccc(-c2nc(-c3ccc4c(c3)CC/C4=N\CO)c(-c3ccncc3)[nH]2)cc1

>  <logBB>
-0.85

>  <Class>
1

>  <MW>
467.23

>  <nHBAcc>
6

>  <nHBDon>
2

>  <SLogP>
4.43

>  <TopoPSA>
86.63

>  <MMFF94 Energy>
89.05

$$$$
COc1ccc(NS(=O)(=O)c2ccc(N)cc2)nn1
Actelion Java MolfileCreator 2.0

  0  0  0  0  0  0              0 V3000
M  V30 BEGIN CTAB
M  V30 COUNTS 31 32 0 0 0
M  V30 BEGIN ATOM
M  V30 1 S -1.6982 -1.7791 0.4041 0
M  V30 2 O -0.89 -2.7188 -0.3418 0
M  V30 3 O -2.9003 -2.1949 1.0937 0
M  V30 4 N -0.7456 -1.0057 1.5329 0
M  V30 5 C -2.176 -0.4592 -0.6837 0
M  V30 6 C 0.6428 -0.8647 1.3429 0
M  V30 7 C -2.7538 0.6943 -0.15 0
M  V30 8 C -1.963 -0.5758 -2.0582 0
M  V30 9 N 1.3221 -0.9068 2.5073 0
M  V30 10 C 1.2632 -0.5453 0.1504 0
M  V30 11 C -3.1123 1.7402 -1.0043 0
M  V30 12 C -2.3271 0.4782 -2.9002 0
M  V30 13 N 2.6761 -0.7 2.5173 0
M  V30 14 C 2.6396 -0.3337 0.1585 0
M  V30 15 C -2.9175 1.6365 -2.3851 0
M  V30 16 C 3.3136 -0.4251 1.3603 0
M  V30 17 N -3.2334 2.6929 -3.2192 0
M  V30 18 O 4.675 -0.2082 1.3336 0
M  V30 19 C 5.2846 -0.3439 2.6141 0
M  V30 20 H -1.0047 -1.2271 2.4925 0
M  V30 21 H -2.9275 0.7879 0.9191 0
M  V30 22 H -1.5182 -1.473 -2.4825 0
M  V30 23 H 0.72 -0.4552 -0.7803 0
M  V30 24 H -3.5519 2.6404 -0.5816 0
M  V30 25 H -2.1499 0.3857 -3.969 0
M  V30 26 H 3.1728 -0.096 -0.7548 0
M  V30 27 H -3.1755 2.585 -4.2228 0
M  V30 28 H -3.7368 3.4928 -2.8596 0
M  V30 29 H 5.1576 -1.3581 3.0084 0
M  V30 30 H 6.3574 -0.1653 2.493 0
M  V30 31 H 4.8996 0.4028 3.3172 0
M  V30 END ATOM
M  V30 BEGIN BOND
M  V30 1 2 1 2
M  V30 2 2 1 3
M  V30 3 1 1 4
M  V30 4 1 1 5
M  V30 5 1 4 6
M  V30 6 2 5 7
M  V30 7 1 5 8
M  V30 8 2 6 9
M  V30 9 1 6 10
M  V30 10 1 7 11
M  V30 11 2 8 12
M  V30 12 1 9 13
M  V30 13 2 10 14
M  V30 14 2 11 15
M  V30 15 2 13 16
M  V30 16 1 15 17
M  V30 17 1 16 18
M  V30 18 1 18 19
M  V30 19 1 12 15
M  V30 20 1 14 16
M  V30 21 1 4 20
M  V30 22 1 7 21
M  V30 23 1 8 22
M  V30 24 1 10 23
M  V30 25 1 11 24
M  V30 26 1 12 25
M  V30 27 1 14 26
M  V30 28 1 17 27
M  V30 29 1 17 28
M  V30 30 1 19 29
M  V30 31 1 19 30
M  V30 32 1 19 31
M  V30 END BOND
M  V30 END CTAB
M  END
>  <NO.>
165

>  <Name>
sulfamethoxypyridazine

>  <SMILES>
COc1ccc(NS(=O)(=O)c2ccc(N)cc2)nn1

>  <logBB>
-0.85

>  <Class>
1

>  <MW>
280.06

>  <nHBAcc>
6

>  <nHBDon>
2

>  <SLogP>
0.87

>  <TopoPSA>
107.2

>  <MMFF94 Energy>
-45.63

$$$$
Nc1ccccc1NC(=O)c1ccc(CNC(=O)OCc2ccccc2)cc1
Actelion Java MolfileCreator 2.0

  0  0  0  0  0  0              0 V3000
M  V30 BEGIN CTAB
M  V30 COUNTS 49 51 0 0 0
M  V30 BEGIN ATOM
M  V30 1 O -2.293 -3.0847 0.9483 0
M  V30 2 C -1.1292 -3.2002 1.3007 0
M  V30 3 O -0.6828 -3.1061 2.5734 0
M  V30 4 N -0.0738 -3.4378 0.4798 0
M  V30 5 C -1.7163 -2.8472 3.5256 0
M  V30 6 C -0.2006 -3.5594 -0.9481 0
M  V30 7 C -1.0795 -2.7585 4.8886 0
M  V30 8 C 0.1382 -2.2589 -1.6303 0
M  V30 9 C -1.0309 -3.88 5.7283 0
M  V30 10 C -0.4926 -1.5604 5.3206 0
M  V30 11 C 1.4304 -2.0206 -2.117 0
M  V30 12 C -0.8343 -1.256 -1.7604 0
M  V30 13 C -0.4255 -3.7981 6.9836 0
M  V30 14 C 0.1123 -1.4808 6.576 0
M  V30 15 C 1.7411 -0.8044 -2.7305 0
M  V30 16 C -0.5257 -0.0381 -2.3729 0
M  V30 17 C 0.1435 -2.5985 7.4077 0
M  V30 18 C 0.7692 0.1965 -2.8496 0
M  V30 19 C 1.1519 1.4776 -3.5097 0
M  V30 20 O 1.9878 1.4441 -4.4057 0
M  V30 21 N 0.5204 2.603 -3.0198 0
M  V30 22 C 0.7127 3.9363 -3.4463 0
M  V30 23 C -0.3124 4.865 -3.1629 0
M  V30 24 C 1.8968 4.3689 -4.0497 0
M  V30 25 N -1.5042 4.467 -2.5457 0
M  V30 26 C -0.0886 6.2226 -3.418 0
M  V30 27 C 2.0828 5.7207 -4.3452 0
M  V30 28 C 1.0966 6.6479 -4.0198 0
M  V30 29 H 0.8364 -3.4667 0.9152 0
M  V30 30 H -2.4587 -3.6548 3.5079 0
M  V30 31 H -2.2226 -1.902 3.2922 0
M  V30 32 H 0.4817 -4.3523 -1.2733 0
M  V30 33 H -1.2152 -3.875 -1.2177 0
M  V30 34 H -1.4627 -4.8255 5.408 0
M  V30 35 H -0.5013 -0.6832 4.6774 0
M  V30 36 H 2.2044 -2.7798 -2.0266 0
M  V30 37 H -1.8433 -1.4262 -1.3851 0
M  V30 38 H -0.3949 -4.6717 7.6295 0
M  V30 39 H 0.5626 -0.5473 6.9034 0
M  V30 40 H 2.7461 -0.6353 -3.1131 0
M  V30 41 H -1.314 0.6989 -2.4904 0
M  V30 42 H 0.6159 -2.5363 8.3845 0
M  V30 43 H -0.1173 2.5146 -2.24 0
M  V30 44 H 2.7021 3.6754 -4.2727 0
M  V30 45 H -2.2146 5.1737 -2.3976 0
M  V30 46 H -1.8429 3.5396 -2.7655 0
M  V30 47 H -0.8452 6.961 -3.1676 0
M  V30 48 H 3.0086 6.0484 -4.8109 0
M  V30 49 H 1.2509 7.7026 -4.2318 0
M  V30 END ATOM
M  V30 BEGIN BOND
M  V30 1 2 1 2
M  V30 2 1 2 3
M  V30 3 1 2 4
M  V30 4 1 3 5
M  V30 5 1 4 6
M  V30 6 1 5 7
M  V30 7 1 6 8
M  V30 8 2 7 9
M  V30 9 1 7 10
M  V30 10 2 8 11
M  V30 11 1 8 12
M  V30 12 1 9 13
M  V30 13 2 10 14
M  V30 14 1 11 15
M  V30 15 2 12 16
M  V30 16 2 13 17
M  V30 17 2 15 18
M  V30 18 1 18 19
M  V30 19 2 19 20
M  V30 20 1 19 21
M  V30 21 1 21 22
M  V30 22 2 22 23
M  V30 23 1 22 24
M  V30 24 1 23 25
M  V30 25 1 23 26
M  V30 26 2 24 27
M  V30 27 2 26 28
M  V30 28 1 14 17
M  V30 29 1 16 18
M  V30 30 1 27 28
M  V30 31 1 4 29
M  V30 32 1 5 30
M  V30 33 1 5 31
M  V30 34 1 6 32
M  V30 35 1 6 33
M  V30 36 1 9 34
M  V30 37 1 10 35
M  V30 38 1 11 36
M  V30 39 1 12 37
M  V30 40 1 13 38
M  V30 41 1 14 39
M  V30 42 1 15 40
M  V30 43 1 16 41
M  V30 44 1 17 42
M  V30 45 1 21 43
M  V30 46 1 24 44
M  V30 47 1 25 45
M  V30 48 1 25 46
M  V30 49 1 26 47
M  V30 50 1 27 48
M  V30 51 1 28 49
M  V30 END BOND
M  V30 END CTAB
M  END
>  <NO.>
167

>  <Name>
chembl357268

>  <SMILES>
Nc1ccccc1NC(=O)c1ccc(CNC(=O)OCc2ccccc2)cc1

>  <logBB>
-0.85

>  <Class>
1

>  <MW>
375.16

>  <nHBAcc>
4

>  <nHBDon>
3

>  <SLogP>
3.95

>  <TopoPSA>
93.45

>  <MMFF94 Energy>
-10.328

$$$$
COc1ccc2nc([S+]([O-])Cc3ncc(C)c(OC)c3C)[nH]c2c1
Actelion Java MolfileCreator 2.0

  0  0  0  0  0  0              0 V3000
M  V30 BEGIN CTAB
M  V30 COUNTS 43 45 0 0 0
M  V30 BEGIN ATOM
M  V30 1 S 0.9674 0.6449 0.403 0 CFG=2
M  V30 2 O 1.4505 -0.7239 0.7984 0
M  V30 3 C -0.3842 0.9952 1.543 0
M  V30 4 C -0.0511 0.5201 -1.0975 0
M  V30 5 N -1.3477 1.8662 1.3413 0
M  V30 6 N -0.523 0.3554 2.7444 0
M  V30 7 C 0.7981 0.2401 -2.3114 0
M  V30 8 C -2.1392 1.7871 2.462 0
M  V30 9 C -1.646 0.8444 3.3588 0
M  V30 10 N 1.2526 1.3525 -2.951 0
M  V30 11 C 1.1221 -1.0548 -2.7397 0
M  V30 12 C -3.3051 2.4914 2.7858 0
M  V30 13 C -2.2551 0.5505 4.5849 0
M  V30 14 C 2.0298 1.1917 -4.0427 0
M  V30 15 C 1.9895 -1.1638 -3.8403 0
M  V30 16 C 0.6138 -2.2841 -2.0407 0
M  V30 17 C -3.9334 2.216 4.0085 0
M  V30 18 C -3.4214 1.2621 4.8971 0
M  V30 19 C 2.4183 -0.0368 -4.5452 0
M  V30 20 O 2.3758 -2.4055 -4.2869 0
M  V30 21 O -4.1563 1.1155 6.0449 0
M  V30 22 C 3.2937 -0.1231 -5.7552 0
M  V30 23 C 3.5636 -2.8253 -3.6102 0
M  V30 24 C -3.6891 0.1653 6.994 0
M  V30 25 H -0.8309 -0.232 -0.9539 0
M  V30 26 H -0.5568 1.4825 -1.2391 0
M  V30 27 H 0.1003 -0.3631 3.0852 0
M  V30 28 H -3.7079 3.2313 2.1032 0
M  V30 29 H -1.8266 -0.1941 5.2429 0
M  V30 30 H 2.3408 2.1199 -4.5154 0
M  V30 31 H -0.4357 -2.1771 -1.7532 0
M  V30 32 H 0.6508 -3.1646 -2.6905 0
M  V30 33 H 1.2152 -2.4925 -1.1518 0
M  V30 34 H -4.8402 2.7575 4.2708 0
M  V30 35 H 4.3386 -0.2537 -5.4579 0
M  V30 36 H 3.2192 0.7863 -6.3613 0
M  V30 37 H 2.9952 -0.9585 -6.3969 0
M  V30 38 H 4.3935 -2.1346 -3.7932 0
M  V30 39 H 3.8448 -3.8047 -4.0084 0
M  V30 40 H 3.3942 -2.9341 -2.5338 0
M  V30 41 H -3.6902 -0.8456 6.5735 0
M  V30 42 H -4.3798 0.1733 7.8429 0
M  V30 43 H -2.6971 0.4373 7.3695 0
M  V30 END ATOM
M  V30 BEGIN BOND
M  V30 1 2 1 2
M  V30 2 1 1 3
M  V30 3 1 1 4
M  V30 4 2 3 5
M  V30 5 1 3 6
M  V30 6 1 4 7
M  V30 7 1 5 8
M  V30 8 1 6 9
M  V30 9 2 7 10
M  V30 10 1 7 11
M  V30 11 1 8 12
M  V30 12 1 9 13
M  V30 13 1 10 14
M  V30 14 2 11 15
M  V30 15 1 11 16
M  V30 16 2 12 17
M  V30 17 2 13 18
M  V30 18 2 14 19
M  V30 19 1 15 20
M  V30 20 1 18 21
M  V30 21 1 19 22
M  V30 22 1 20 23
M  V30 23 1 21 24
M  V30 24 2 8 9
M  V30 25 1 15 19
M  V30 26 1 17 18
M  V30 27 1 4 25
M  V30 28 1 4 26
M  V30 29 1 6 27
M  V30 30 1 12 28
M  V30 31 1 13 29
M  V30 32 1 14 30
M  V30 33 1 16 31
M  V30 34 1 16 32
M  V30 35 1 16 33
M  V30 36 1 17 34
M  V30 37 1 22 35
M  V30 38 1 22 36
M  V30 39 1 22 37
M  V30 40 1 23 38
M  V30 41 1 23 39
M  V30 42 1 23 40
M  V30 43 1 24 41
M  V30 44 1 24 42
M  V30 45 1 24 43
M  V30 END BOND
M  V30 BEGIN COLLECTION
M  V30 MDLV30/STERAC1 ATOMS=(1 1)
M  V30 END COLLECTION
M  V30 END CTAB
M  END
>  <NO.>
170

>  <Name>
omeprazole

>  <SMILES>
COc1ccc2nc([S+]([O-])Cc3ncc(C)c(OC)c3C)[nH]c2c1

>  <logBB>
-0.82

>  <Class>
1

>  <MW>
345.11

>  <nHBAcc>
5

>  <nHBDon>
1

>  <SLogP>
2.9

>  <TopoPSA>
83.09

>  <MMFF94 Energy>
45.331

$$$$
O=c1[nH]c2ccccc2n1CCCN1CCC(n2c(=O)[nH]c3cc(Cl)ccc32)CC1
Actelion Java MolfileCreator 2.0

  0  0  0  0  0  0              0 V3000
M  V30 BEGIN CTAB
M  V30 COUNTS 54 58 0 0 0
M  V30 BEGIN ATOM
M  V30 1 Cl 2.7376 4.4313 -5.8848 0
M  V30 2 C 2.2771 2.89 -5.2697 0
M  V30 3 C 2.5836 1.7421 -6.0 0
M  V30 4 C 1.5967 2.8158 -4.0375 0
M  V30 5 C 2.1867 0.5436 -5.4516 0
M  V30 6 C 1.2051 1.5798 -3.5051 0
M  V30 7 N 2.3577 -0.7371 -5.9586 0
M  V30 8 C 1.5117 0.4485 -4.231 0
M  V30 9 C 1.7945 -1.6617 -5.069 0
M  V30 10 N 1.268 -0.9151 -3.9879 0
M  V30 11 O 1.7764 -2.8705 -5.2271 0
M  V30 12 C 0.596 -1.516 -2.8506 0
M  V30 13 C 1.3313 -1.2887 -1.5254 0
M  V30 14 C -0.8843 -1.1314 -2.7584 0
M  V30 15 C 0.5717 -1.9435 -0.3714 0
M  V30 16 C -1.5381 -1.7894 -1.5424 0
M  V30 17 N -0.8366 -1.5293 -0.2756 0
M  V30 18 C -1.0367 -0.1525 0.1953 0
M  V30 19 C -0.5358 0.1221 1.6184 0
M  V30 20 C -1.1132 -0.8455 2.6511 0
M  V30 21 N -0.7145 -0.4865 3.9901 0
M  V30 22 C 0.4639 -0.924 4.6286 0
M  V30 23 C -1.3839 0.4037 4.8406 0
M  V30 24 O 1.3172 -1.6789 4.1944 0
M  V30 25 N 0.4873 -0.3024 5.8878 0
M  V30 26 C -0.6351 0.5072 6.0136 0
M  V30 27 C -2.5568 1.1066 4.6716 0
M  V30 28 C -1.0146 1.3072 7.0664 0
M  V30 29 C -2.9659 1.9282 5.7289 0
M  V30 30 C -2.2035 2.0271 6.913 0
M  V30 31 H 3.1055 1.7919 -6.9471 0
M  V30 32 H 1.3709 3.728 -3.4889 0
M  V30 33 H 0.6831 1.5396 -2.5581 0
M  V30 34 H 2.8064 -1.0015 -6.8202 0
M  V30 35 H 0.6166 -2.601 -3.0262 0
M  V30 36 H 1.4662 -0.2228 -1.3182 0
M  V30 37 H 2.3399 -1.7159 -1.5863 0
M  V30 38 H -1.4061 -1.4505 -3.6691 0
M  V30 39 H -1.0114 -0.0456 -2.702 0
M  V30 40 H 1.1026 -1.7659 0.5696 0
M  V30 41 H 0.5981 -3.0333 -0.504 0
M  V30 42 H -1.5754 -2.8753 -1.7006 0
M  V30 43 H -2.586 -1.4733 -1.469 0
M  V30 44 H -2.1129 0.066 0.19 0
M  V30 45 H -0.5742 0.5748 -0.4812 0
M  V30 46 H 0.5597 0.0983 1.6533 0
M  V30 47 H -0.8165 1.1494 1.8849 0
M  V30 48 H -0.7429 -1.8584 2.4578 0
M  V30 49 H -2.2068 -0.8789 2.5967 0
M  V30 50 H 1.2232 -0.4363 6.5607 0
M  V30 51 H -3.1463 1.0334 3.7664 0
M  V30 52 H -0.4259 1.3807 7.9723 0
M  V30 53 H -3.8876 2.5001 5.6394 0
M  V30 54 H -2.5486 2.6739 7.7173 0
M  V30 END ATOM
M  V30 BEGIN BOND
M  V30 1 1 1 2
M  V30 2 2 2 3
M  V30 3 1 2 4
M  V30 4 1 3 5
M  V30 5 2 4 6
M  V30 6 1 5 7
M  V30 7 2 5 8
M  V30 8 1 7 9
M  V30 9 1 8 10
M  V30 10 2 9 11
M  V30 11 1 10 12
M  V30 12 1 12 13
M  V30 13 1 12 14
M  V30 14 1 13 15
M  V30 15 1 14 16
M  V30 16 1 15 17
M  V30 17 1 17 18
M  V30 18 1 18 19
M  V30 19 1 19 20
M  V30 20 1 20 21
M  V30 21 1 21 22
M  V30 22 1 21 23
M  V30 23 2 22 24
M  V30 24 1 22 25
M  V30 25 2 23 26
M  V30 26 1 23 27
M  V30 27 1 26 28
M  V30 28 2 27 29
M  V30 29 2 28 30
M  V30 30 1 6 8
M  V30 31 1 9 10
M  V30 32 1 16 17
M  V30 33 1 25 26
M  V30 34 1 29 30
M  V30 35 1 3 31
M  V30 36 1 4 32
M  V30 37 1 6 33
M  V30 38 1 7 34
M  V30 39 1 12 35
M  V30 40 1 13 36
M  V30 41 1 13 37
M  V30 42 1 14 38
M  V30 43 1 14 39
M  V30 44 1 15 40
M  V30 45 1 15 41
M  V30 46 1 16 42
M  V30 47 1 16 43
M  V30 48 1 18 44
M  V30 49 1 18 45
M  V30 50 1 19 46
M  V30 51 1 19 47
M  V30 52 1 20 48
M  V30 53 1 20 49
M  V30 54 1 25 50
M  V30 55 1 27 51
M  V30 56 1 28 52
M  V30 57 1 29 53
M  V30 58 1 30 54
M  V30 END BOND
M  V30 END CTAB
M  END
>  <NO.>
172

>  <Name>
domperidone

>  <SMILES>
O=c1[nH]c2ccccc2n1CCCN1CCC(n2c(=O)[nH]c3cc(Cl)ccc32)CC1

>  <logBB>
-0.8

>  <Class>
1

>  <MW>
425.16

>  <nHBAcc>
3

>  <nHBDon>
2

>  <SLogP>
3.35

>  <TopoPSA>
78.82

>  <MMFF94 Energy>
-43.423

$$$$
CN/C(=N\CCSCc1csc(NC(=N)N)n1)NC#N
Actelion Java MolfileCreator 2.0

  0  0  0  0  0  0              0 V3000
M  V30 BEGIN CTAB
M  V30 COUNTS 36 36 0 0 0
M  V30 BEGIN ATOM
M  V30 1 S -0.1596 2.3171 2.3171 0
M  V30 2 C 0.1984 1.0306 3.4075 0
M  V30 3 C 0.3476 1.3558 0.9998 0
M  V30 4 N 0.6728 -0.0494 2.8241 0
M  V30 5 N 0.0294 1.0743 4.748 0
M  V30 6 C 0.7489 0.1121 1.4449 0
M  V30 7 C -0.4437 2.0296 5.5841 0
M  V30 8 C 1.2589 -1.0107 0.5993 0
M  V30 9 N -0.9059 3.1974 5.3024 0
M  V30 10 N -0.4202 1.6796 6.8831 0
M  V30 11 S 0.1099 -2.4283 0.5319 0
M  V30 12 C -1.3043 -1.6835 -0.3566 0
M  V30 13 C -1.1443 -1.6944 -1.879 0
M  V30 14 N -0.1861 -0.6772 -2.3074 0
M  V30 15 C 0.103 -0.5781 -3.5525 0
M  V30 16 N 1.0273 0.391 -3.9636 0
M  V30 17 N -0.4004 -1.3271 -4.5708 0
M  V30 18 C 1.5924 1.1205 -3.004 0
M  V30 19 C -0.1099 -1.2526 -5.9774 0
M  V30 20 N 2.1242 1.7851 -2.2183 0
M  V30 21 H 0.3245 1.7294 -0.0142 0
M  V30 22 H 0.2966 0.2092 5.1924 0
M  V30 23 H 2.1928 -1.3771 1.0404 0
M  V30 24 H 1.5092 -0.6765 -0.4092 0
M  V30 25 H -0.8665 3.3296 4.2876 0
M  V30 26 H -0.7646 2.3725 7.5361 0
M  V30 27 H 0.003 0.8435 7.2488 0
M  V30 28 H -2.1731 -2.301 -0.1026 0
M  V30 29 H -1.5154 -0.6777 0.0165 0
M  V30 30 H -0.8407 -2.6941 -2.2134 0
M  V30 31 H -2.1244 -1.4723 -2.3197 0
M  V30 32 H 1.2941 0.4876 -4.9352 0
M  V30 33 H -1.0694 -2.0406 -4.3147 0
M  V30 34 H 0.9487 -1.4514 -6.1694 0
M  V30 35 H -0.3729 -0.2696 -6.38 0
M  V30 36 H -0.6949 -2.003 -6.5181 0
M  V30 END ATOM
M  V30 BEGIN BOND
M  V30 1 1 1 2
M  V30 2 1 1 3
M  V30 3 2 2 4
M  V30 4 1 2 5
M  V30 5 2 3 6
M  V30 6 1 5 7
M  V30 7 1 6 8
M  V30 8 2 7 9
M  V30 9 1 7 10
M  V30 10 1 8 11
M  V30 11 1 11 12
M  V30 12 1 12 13
M  V30 13 1 13 14
M  V30 14 2 14 15
M  V30 15 1 15 16
M  V30 16 1 15 17
M  V30 17 1 16 18
M  V30 18 1 17 19
M  V30 19 3 18 20
M  V30 20 1 4 6
M  V30 21 1 3 21
M  V30 22 1 5 22
M  V30 23 1 8 23
M  V30 24 1 8 24
M  V30 25 1 9 25
M  V30 26 1 10 26
M  V30 27 1 10 27
M  V30 28 1 12 28
M  V30 29 1 12 29
M  V30 30 1 13 30
M  V30 31 1 13 31
M  V30 32 1 16 32
M  V30 33 1 17 33
M  V30 34 1 19 34
M  V30 35 1 19 35
M  V30 36 1 19 36
M  V30 END BOND
M  V30 END CTAB
M  END
>  <NO.>
174

>  <Name>
tiotidine (skb10, y-g10)

>  <SMILES>
CN/C(=N\CCSCc1csc(NC(=N)N)n1)NC#N

>  <logBB>
-0.8

>  <Class>
1

>  <MW>
312.09

>  <nHBAcc>
6

>  <nHBDon>
5

>  <SLogP>
0.33

>  <TopoPSA>
135

>  <MMFF94 Energy>
-252.03

$$$$
C=C(C)C(=O)/C(=C/C(=O)O)OC
Actelion Java MolfileCreator 2.0

  0  0  0  0  0  0              0 V3000
M  V30 BEGIN CTAB
M  V30 COUNTS 22 21 0 0 0
M  V30 BEGIN ATOM
M  V30 1 O -0.6206 -1.785 1.0862 0
M  V30 2 C -0.0262 -1.026 0.3215 0
M  V30 3 C -0.0158 0.4557 0.5668 0
M  V30 4 C 0.6727 -1.5765 -0.8886 0
M  V30 5 O 0.0714 1.3427 -0.4886 0
M  V30 6 C -0.0479 0.8439 1.8512 0
M  V30 7 C 1.7187 -0.9666 -1.47 0
M  V30 8 C 0.1552 -2.9008 -1.3686 0
M  V30 9 C -1.1745 1.4326 -1.1778 0
M  V30 10 C -0.0489 2.2517 2.2559 0
M  V30 11 O -0.1981 3.2416 1.5682 0
M  V30 12 O 0.1343 2.3385 3.5848 0
M  V30 13 H -0.0839 0.1192 2.658 0
M  V30 14 H 2.2143 -1.4046 -2.3315 0
M  V30 15 H 2.1308 -0.0294 -1.1088 0
M  V30 16 H 0.6713 -3.2378 -2.274 0
M  V30 17 H 0.2934 -3.671 -0.6027 0
M  V30 18 H -0.9117 -2.8299 -1.6051 0
M  V30 19 H -1.4379 0.4803 -1.6494 0
M  V30 20 H -1.0697 2.1844 -1.9655 0
M  V30 21 H -1.9745 1.7551 -0.5022 0
M  V30 22 H 0.1171 3.3027 3.7595 0
M  V30 END ATOM
M  V30 BEGIN BOND
M  V30 1 2 1 2
M  V30 2 1 2 3
M  V30 3 1 2 4
M  V30 4 1 3 5
M  V30 5 2 3 6
M  V30 6 2 4 7
M  V30 7 1 4 8
M  V30 8 1 5 9
M  V30 9 1 6 10
M  V30 10 2 10 11
M  V30 11 1 10 12
M  V30 12 1 6 13
M  V30 13 1 7 14
M  V30 14 1 7 15
M  V30 15 1 8 16
M  V30 16 1 8 17
M  V30 17 1 8 18
M  V30 18 1 9 19
M  V30 19 1 9 20
M  V30 20 1 9 21
M  V30 21 1 12 22
M  V30 END BOND
M  V30 END CTAB
M  END
>  <NO.>
175

>  <Name>
penicillic acid

>  <SMILES>
C=C(C)C(=O)/C(=C/C(=O)O)OC

>  <logBB>
-0.8

>  <Class>
1

>  <MW>
170.06

>  <nHBAcc>
3

>  <nHBDon>
1

>  <SLogP>
0.75

>  <TopoPSA>
63.6

>  <MMFF94 Energy>
5.0458

$$$$
CCc1ccc(-n2cnc3c(sc4nccc(N(C)CCc5ccccn5)c43)c2=O)cc1
Actelion Java MolfileCreator 2.0

  0  0  0  0  0  0              0 V3000
M  V30 BEGIN CTAB
M  V30 COUNTS 55 59 0 0 0
M  V30 BEGIN ATOM
M  V30 1 S 0.8079 3.0728 -2.9109 0
M  V30 2 C -0.7563 3.3709 -2.2902 0
M  V30 3 C 1.1564 2.0111 -1.6446 0
M  V30 4 N -1.5818 4.1873 -2.9753 0
M  V30 5 C -1.0242 2.7051 -1.0888 0
M  V30 6 C 2.3998 1.2984 -1.5186 0
M  V30 7 C 0.1178 1.8949 -0.7606 0
M  V30 8 C -2.785 4.3468 -2.4079 0
M  V30 9 C -2.312 2.9214 -0.5081 0
M  V30 10 O 3.3377 1.4157 -2.3052 0
M  V30 11 N 2.4146 0.463 -0.3955 0
M  V30 12 N 0.1938 1.0242 0.3382 0
M  V30 13 C -3.1866 3.7574 -1.2256 0
M  V30 14 N -2.771 2.3952 0.699 0
M  V30 15 C 3.5645 -0.3177 -0.1026 0
M  V30 16 C 1.3136 0.3781 0.442 0
M  V30 17 C -3.8721 1.4241 0.6752 0
M  V30 18 C -1.9494 2.4763 1.8952 0
M  V30 19 C 4.1831 -0.2154 1.1494 0
M  V30 20 C 4.0752 -1.2112 -1.0497 0
M  V30 21 C -3.3871 0.0344 0.2542 0
M  V30 22 C 5.2996 -1.0001 1.4492 0
M  V30 23 C 5.1919 -1.9946 -0.7479 0
M  V30 24 C -4.5419 -0.9273 0.1583 0
M  V30 25 C 5.8157 -1.8928 0.5018 0
M  V30 26 N -5.0337 -1.4169 1.3228 0
M  V30 27 C -5.08 -1.2655 -1.0811 0
M  V30 28 C 7.0131 -2.7485 0.8295 0
M  V30 29 C -6.0782 -2.2709 1.2457 0
M  V30 30 C -6.1573 -2.1459 -1.1283 0
M  V30 31 C 6.6059 -4.0758 1.4507 0
M  V30 32 C -6.6682 -2.6612 0.0562 0
M  V30 33 H -3.4611 5.0046 -2.9483 0
M  V30 34 H -4.1758 3.9744 -0.8337 0
M  V30 35 H 1.4323 -0.3325 1.2773 0
M  V30 36 H -4.6728 1.7665 0.0072 0
M  V30 37 H -4.3258 1.372 1.6737 0
M  V30 38 H -2.576 2.7654 2.7465 0
M  V30 39 H -1.1617 3.2329 1.8098 0
M  V30 40 H -1.4991 1.5109 2.1404 0
M  V30 41 H 3.8162 0.4821 1.8984 0
M  V30 42 H 3.6151 -1.3052 -2.0308 0
M  V30 43 H -2.8579 0.078 -0.7052 0
M  V30 44 H -2.6647 -0.3528 0.9831 0
M  V30 45 H 5.7694 -0.9067 2.4263 0
M  V30 46 H 5.5753 -2.6825 -1.4988 0
M  V30 47 H -4.6709 -0.8536 -1.9982 0
M  V30 48 H 7.6773 -2.2069 1.5142 0
M  V30 49 H 7.598 -2.9288 -0.0805 0
M  V30 50 H -6.4404 -2.645 2.199 0
M  V30 51 H -6.5932 -2.4272 -2.0826 0
M  V30 52 H 7.4931 -4.6752 1.678 0
M  V30 53 H 5.9705 -4.654 0.7714 0
M  V30 54 H 6.0506 -3.9246 2.3827 0
M  V30 55 H -7.5053 -3.3499 0.0532 0
M  V30 END ATOM
M  V30 BEGIN BOND
M  V30 1 1 1 2
M  V30 2 1 1 3
M  V30 3 2 2 4
M  V30 4 1 2 5
M  V30 5 1 3 6
M  V30 6 2 3 7
M  V30 7 1 4 8
M  V30 8 2 5 9
M  V30 9 2 6 10
M  V30 10 1 6 11
M  V30 11 1 7 12
M  V30 12 2 8 13
M  V30 13 1 9 14
M  V30 14 1 11 15
M  V30 15 1 11 16
M  V30 16 1 14 17
M  V30 17 1 14 18
M  V30 18 2 15 19
M  V30 19 1 15 20
M  V30 20 1 17 21
M  V30 21 1 19 22
M  V30 22 2 20 23
M  V30 23 1 21 24
M  V30 24 2 22 25
M  V30 25 2 24 26
M  V30 26 1 24 27
M  V30 27 1 25 28
M  V30 28 1 26 29
M  V30 29 2 27 30
M  V30 30 1 28 31
M  V30 31 2 29 32
M  V30 32 1 5 7
M  V30 33 1 9 13
M  V30 34 2 12 16
M  V30 35 1 23 25
M  V30 36 1 30 32
M  V30 37 1 8 33
M  V30 38 1 13 34
M  V30 39 1 16 35
M  V30 40 1 17 36
M  V30 41 1 17 37
M  V30 42 1 18 38
M  V30 43 1 18 39
M  V30 44 1 18 40
M  V30 45 1 19 41
M  V30 46 1 20 42
M  V30 47 1 21 43
M  V30 48 1 21 44
M  V30 49 1 22 45
M  V30 50 1 23 46
M  V30 51 1 27 47
M  V30 52 1 28 48
M  V30 53 1 28 49
M  V30 54 1 29 50
M  V30 55 1 30 51
M  V30 56 1 31 52
M  V30 57 1 31 53
M  V30 58 1 31 54
M  V30 59 1 32 55
M  V30 END BOND
M  V30 END CTAB
M  END
>  <NO.>
176

>  <Name>
chembl213760

>  <SMILES>
CCc1ccc(-n2cnc3c(sc4nccc(N(C)CCc5ccccn5)c43)c2=O)cc1

>  <logBB>
-0.8

>  <Class>
1

>  <MW>
441.16

>  <nHBAcc>
6

>  <nHBDon>
0

>  <SLogP>
4.63

>  <TopoPSA>
63.91

>  <MMFF94 Energy>
70.114

$$$$
CCn1nnc(NC(=O)C2c3ccccc3Oc3ccccc32)n1
Actelion Java MolfileCreator 2.0

  0  0  0  0  0  0              0 V3000
M  V30 BEGIN CTAB
M  V30 COUNTS 39 42 0 0 0
M  V30 BEGIN ATOM
M  V30 1 O 0.2411 -0.1607 -1.5278 0
M  V30 2 C -0.1209 -0.0739 -0.3576 0
M  V30 3 N -0.6697 1.0536 0.2175 0
M  V30 4 C 0.0077 -1.2417 0.6401 0
M  V30 5 C -0.8951 2.22 -0.4561 0
M  V30 6 C -0.7938 -2.4368 0.1777 0
M  V30 7 C 1.4606 -1.5756 0.8917 0
M  V30 8 N -0.9741 2.3531 -1.8135 0
M  V30 9 N -1.141 3.3587 0.2035 0
M  V30 10 C -0.1437 -3.622 -0.172 0
M  V30 11 C -2.1949 -2.3748 0.0834 0
M  V30 12 C 1.9714 -2.8139 0.4969 0
M  V30 13 C 2.3184 -0.6524 1.5144 0
M  V30 14 N -1.2505 3.6281 -2.0544 0
M  V30 15 N -1.3295 4.19 -0.8404 0
M  V30 16 O 1.2165 -3.7931 -0.0999 0
M  V30 17 C -0.8752 -4.7235 -0.6227 0
M  V30 18 C -2.924 -3.4785 -0.3622 0
M  V30 19 C 3.3181 -3.1221 0.7034 0
M  V30 20 C 3.6626 -0.965 1.7246 0
M  V30 21 C -1.6022 5.598 -0.6684 0
M  V30 22 C -2.2642 -4.6525 -0.7173 0
M  V30 23 C 4.1634 -2.199 1.3171 0
M  V30 24 C -0.3301 6.4247 -0.6281 0
M  V30 25 H -0.8798 1.105 1.2014 0
M  V30 26 H -0.4134 -0.9491 1.6126 0
M  V30 27 H -2.7297 -1.4643 0.3439 0
M  V30 28 H 1.9524 0.321 1.832 0
M  V30 29 H -0.359 -5.6386 -0.9003 0
M  V30 30 H -4.0068 -3.4199 -0.4413 0
M  V30 31 H 3.7073 -4.0856 0.385 0
M  V30 32 H 4.3219 -0.2426 2.1996 0
M  V30 33 H -2.2447 5.9178 -1.4959 0
M  V30 34 H -2.1686 5.716 0.2617 0
M  V30 35 H -2.8291 -5.5108 -1.0713 0
M  V30 36 H 5.2109 -2.4422 1.4738 0
M  V30 37 H 0.241 6.3152 -1.556 0
M  V30 38 H -0.569 7.4845 -0.4963 0
M  V30 39 H 0.3161 6.114 0.1997 0
M  V30 END ATOM
M  V30 BEGIN BOND
M  V30 1 2 1 2
M  V30 2 1 2 3
M  V30 3 1 2 4
M  V30 4 1 3 5
M  V30 5 1 4 6
M  V30 6 1 4 7
M  V30 7 1 5 8
M  V30 8 2 5 9
M  V30 9 2 6 10
M  V30 10 1 6 11
M  V30 11 2 7 12
M  V30 12 1 7 13
M  V30 13 2 8 14
M  V30 14 1 9 15
M  V30 15 1 10 16
M  V30 16 1 10 17
M  V30 17 2 11 18
M  V30 18 1 12 19
M  V30 19 2 13 20
M  V30 20 1 15 21
M  V30 21 2 17 22
M  V30 22 2 19 23
M  V30 23 1 21 24
M  V30 24 1 12 16
M  V30 25 1 14 15
M  V30 26 1 18 22
M  V30 27 1 20 23
M  V30 28 1 3 25
M  V30 29 1 4 26
M  V30 30 1 11 27
M  V30 31 1 13 28
M  V30 32 1 17 29
M  V30 33 1 18 30
M  V30 34 1 19 31
M  V30 35 1 20 32
M  V30 36 1 21 33
M  V30 37 1 21 34
M  V30 38 1 22 35
M  V30 39 1 23 36
M  V30 40 1 24 37
M  V30 41 1 24 38
M  V30 42 1 24 39
M  V30 END BOND
M  V30 END CTAB
M  END
>  <NO.>
177

>  <Name>
compound 4b [pmid: 16099654]

>  <SMILES>
CCn1nnc(NC(=O)C2c3ccccc3Oc3ccccc32)n1

>  <logBB>
-0.8

>  <Class>
1

>  <MW>
321.12

>  <nHBAcc>
5

>  <nHBDon>
1

>  <SLogP>
2.57

>  <TopoPSA>
81.93

>  <MMFF94 Energy>
20.629

$$$$
CN1CCN(Cc2ccc(Nc3ncc(Cl)c(Nc4ccccc4S(=O)(=O)N(C)C)n3)cc2)CC1
Actelion Java MolfileCreator 2.0

  0  0  0  0  0  0              0 V3000
M  V30 BEGIN CTAB
M  V30 COUNTS 65 68 0 0 0
M  V30 BEGIN ATOM
M  V30 1 Cl 3.7133 3.875 -1.936 0
M  V30 2 C 2.8344 2.6422 -1.1227 0
M  V30 3 C 2.2379 2.8167 0.1194 0
M  V30 4 C 2.6838 1.4044 -1.698 0
M  V30 5 N 1.545 1.8132 0.7008 0
M  V30 6 N 2.3388 4.0745 0.7637 0
M  V30 7 N 2.0033 0.3934 -1.1254 0
M  V30 8 C 1.4517 0.629 0.0712 0
M  V30 9 C 1.6356 4.6467 1.844 0
M  V30 10 N 0.7362 -0.3424 0.7625 0
M  V30 11 C 2.071 5.8241 2.4904 0
M  V30 12 C 0.4191 4.1029 2.2914 0
M  V30 13 C 0.377 -1.6668 0.4924 0
M  V30 14 S 3.5557 6.6808 1.9894 0
M  V30 15 C 1.3773 6.3572 3.5937 0
M  V30 16 C -0.2894 4.6485 3.3689 0
M  V30 17 C 0.6872 -2.3348 -0.6943 0
M  V30 18 C -0.3389 -2.3788 1.4687 0
M  V30 19 O 4.3355 5.7674 1.1757 0
M  V30 20 O 4.1296 7.293 3.1693 0
M  V30 21 N 2.9773 7.9164 0.9706 0
M  V30 22 C 0.1967 5.7678 4.0303 0
M  V30 23 C 0.2986 -3.6642 -0.9027 0
M  V30 24 C -0.7308 -3.7075 1.2677 0
M  V30 25 C 2.4039 7.4991 -0.3211 0
M  V30 26 C 2.2349 9.0201 1.6022 0
M  V30 27 C -0.4171 -4.3644 0.0747 0
M  V30 28 C -0.8229 -5.8056 -0.1489 0
M  V30 29 N -1.659 -5.9976 -1.3444 0
M  V30 30 C -1.8174 -7.4384 -1.6292 0
M  V30 31 C -2.9975 -5.3915 -1.176 0
M  V30 32 C -2.7354 -7.7002 -2.8445 0
M  V30 33 C -3.9178 -5.6573 -2.3899 0
M  V30 34 N -4.0709 -7.0986 -2.669 0
M  V30 35 C -4.8939 -7.3099 -3.8569 0
M  V30 36 H 3.1157 1.1734 -2.6671 0
M  V30 37 H 3.2558 4.4988 0.5802 0
M  V30 38 H 0.4418 0.037 1.6501 0
M  V30 39 H -0.0108 3.2322 1.8041 0
M  V30 40 H 1.7552 7.2347 4.1154 0
M  V30 41 H -1.2194 4.1858 3.6908 0
M  V30 42 H 1.2358 -1.8394 -1.4889 0
M  V30 43 H -0.6011 -1.9011 2.4098 0
M  V30 44 H -0.343 6.1807 4.8788 0
M  V30 45 H 0.5517 -4.1514 -1.8423 0
M  V30 46 H -1.2834 -4.2208 2.0509 0
M  V30 47 H 3.0733 6.8102 -0.8414 0
M  V30 48 H 1.4246 7.0319 -0.1859 0
M  V30 49 H 2.2824 8.3719 -0.9713 0
M  V30 50 H 2.7098 9.3393 2.5337 0
M  V30 51 H 1.1977 8.7358 1.7995 0
M  V30 52 H 2.2343 9.8885 0.935 0
M  V30 53 H -1.3251 -6.2034 0.7431 0
M  V30 54 H 0.1099 -6.3759 -0.2541 0
M  V30 55 H -0.8357 -7.8773 -1.845 0
M  V30 56 H -2.2246 -7.9621 -0.7534 0
M  V30 57 H -2.9084 -4.305 -1.0619 0
M  V30 58 H -3.4832 -5.7772 -0.2692 0
M  V30 59 H -2.8376 -8.785 -2.9693 0
M  V30 60 H -2.2508 -7.3107 -3.7501 0
M  V30 61 H -3.5123 -5.1344 -3.2668 0
M  V30 62 H -4.9013 -5.2216 -2.1756 0
M  V30 63 H -4.4564 -6.8566 -4.7538 0
M  V30 64 H -5.0293 -8.3809 -4.0436 0
M  V30 65 H -5.894 -6.8869 -3.7105 0
M  V30 END ATOM
M  V30 BEGIN BOND
M  V30 1 1 1 2
M  V30 2 2 2 3
M  V30 3 1 2 4
M  V30 4 1 3 5
M  V30 5 1 3 6
M  V30 6 2 4 7
M  V30 7 2 5 8
M  V30 8 1 6 9
M  V30 9 1 8 10
M  V30 10 2 9 11
M  V30 11 1 9 12
M  V30 12 1 10 13
M  V30 13 1 11 14
M  V30 14 1 11 15
M  V30 15 2 12 16
M  V30 16 2 13 17
M  V30 17 1 13 18
M  V30 18 2 14 19
M  V30 19 2 14 20
M  V30 20 1 14 21
M  V30 21 2 15 22
M  V30 22 1 17 23
M  V30 23 2 18 24
M  V30 24 1 21 25
M  V30 25 1 21 26
M  V30 26 2 23 27
M  V30 27 1 27 28
M  V30 28 1 28 29
M  V30 29 1 29 30
M  V30 30 1 29 31
M  V30 31 1 30 32
M  V30 32 1 31 33
M  V30 33 1 32 34
M  V30 34 1 34 35
M  V30 35 1 7 8
M  V30 36 1 16 22
M  V30 37 1 24 27
M  V30 38 1 33 34
M  V30 39 1 4 36
M  V30 40 1 6 37
M  V30 41 1 10 38
M  V30 42 1 12 39
M  V30 43 1 15 40
M  V30 44 1 16 41
M  V30 45 1 17 42
M  V30 46 1 18 43
M  V30 47 1 22 44
M  V30 48 1 23 45
M  V30 49 1 24 46
M  V30 50 1 25 47
M  V30 51 1 25 48
M  V30 52 1 25 49
M  V30 53 1 26 50
M  V30 54 1 26 51
M  V30 55 1 26 52
M  V30 56 1 28 53
M  V30 57 1 28 54
M  V30 58 1 30 55
M  V30 59 1 30 56
M  V30 60 1 31 57
M  V30 61 1 31 58
M  V30 62 1 32 59
M  V30 63 1 32 60
M  V30 64 1 33 61
M  V30 65 1 33 62
M  V30 66 1 35 63
M  V30 67 1 35 64
M  V30 68 1 35 65
M  V30 END BOND
M  V30 END CTAB
M  END
>  <NO.>
178

>  <Name>
compound 13

>  <SMILES>
CN1CCN(Cc2ccc(Nc3ncc(Cl)c(Nc4ccccc4S(=O)(=O)N(C)C)n3)cc2)CC1

>  <logBB>
-0.8

>  <Class>
1

>  <MW>
515.19

>  <nHBAcc>
8

>  <nHBDon>
2

>  <SLogP>
3.61

>  <TopoPSA>
93.7

>  <MMFF94 Energy>
15.709

$$$$
COc1cc2c(c(OC)c1OC)-c1ccc(OC)c(=O)cc1C(NC(C)=O)CC2
Actelion Java MolfileCreator 2.0

  0  0  0  0  0  0              0 V3000
M  V30 BEGIN CTAB
M  V30 COUNTS 54 56 0 0 0
M  V30 BEGIN ATOM
M  V30 1 O -2.2286 -4.1418 0.4772 0
M  V30 2 C -2.021 -3.027 0.9517 0
M  V30 3 C -1.7906 -2.824 2.4172 0
M  V30 4 C -2.2059 -1.8342 0.0908 0
M  V30 5 O -2.536 -3.6667 3.2244 0
M  V30 6 C -0.9181 -1.9003 2.8563 0
M  V30 7 C -1.4875 -0.6938 0.0711 0
M  V30 8 C -2.3074 -3.6492 4.626 0
M  V30 9 C -0.0302 -1.0807 2.0671 0
M  V30 10 C -0.2466 -0.5413 0.8522 0
M  V30 11 C -1.7849 0.4555 -0.9109 0 CFG=1
M  V30 12 C 0.8633 0.3238 0.3529 0
M  V30 13 N -3.0532 0.2353 -1.6069 0
M  V30 14 C -1.8392 1.8739 -0.2917 0
M  V30 15 C 2.1006 -0.2029 -0.0512 0
M  V30 16 C 0.6398 1.713 0.2474 0
M  V30 17 C -3.2261 0.5686 -2.9305 0
M  V30 18 C -0.699 2.2822 0.6449 0
M  V30 19 O 2.3276 -1.5546 0.0565 0
M  V30 20 C 3.1197 0.6513 -0.4951 0
M  V30 21 C 1.6545 2.5536 -0.2419 0
M  V30 22 O -2.3556 1.0748 -3.6286 0
M  V30 23 C -4.6123 0.2926 -3.446 0
M  V30 24 C 2.1661 -2.1825 -1.2168 0
M  V30 25 O 4.3297 0.1212 -0.8802 0
M  V30 26 C 2.895 2.031 -0.6206 0
M  V30 27 C 5.2112 0.0701 0.2404 0
M  V30 28 O 3.9443 2.7762 -1.0929 0
M  V30 29 C 3.6631 4.1092 -1.4976 0
M  V30 30 H -3.004 -2.0074 -0.6235 0
M  V30 31 H -0.7571 -1.7722 3.923 0
M  V30 32 H -1.2691 -3.9068 4.8586 0
M  V30 33 H -2.9517 -4.4069 5.0818 0
M  V30 34 H -2.5771 -2.6786 5.0542 0
M  V30 35 H 0.9149 -0.8747 2.5742 0
M  V30 36 H -0.9979 0.4433 -1.6772 0
M  V30 37 H -3.862 -0.0391 -1.0658 0
M  V30 38 H -2.787 2.0128 0.2463 0
M  V30 39 H -1.8702 2.5959 -1.1202 0
M  V30 40 H -0.6515 3.3778 0.6888 0
M  V30 41 H -0.9275 1.9717 1.6729 0
M  V30 42 H 1.4539 3.6182 -0.3134 0
M  V30 43 H -5.0365 -0.5951 -2.9684 0
M  V30 44 H -4.5716 0.1194 -4.5248 0
M  V30 45 H -5.2512 1.1549 -3.2385 0
M  V30 46 H 1.1942 -1.9441 -1.6635 0
M  V30 47 H 2.2087 -3.2646 -1.0614 0
M  V30 48 H 2.9755 -1.9084 -1.9005 0
M  V30 49 H 5.4026 1.0701 0.6449 0
M  V30 50 H 6.1644 -0.3428 -0.1027 0
M  V30 51 H 4.8213 -0.5879 1.0246 0
M  V30 52 H 2.8534 4.1417 -2.2343 0
M  V30 53 H 4.5627 4.5106 -1.974 0
M  V30 54 H 3.4363 4.74 -0.6322 0
M  V30 END ATOM
M  V30 BEGIN BOND
M  V30 1 2 1 2
M  V30 2 1 2 3
M  V30 3 1 2 4
M  V30 4 1 3 5
M  V30 5 2 3 6
M  V30 6 2 4 7
M  V30 7 1 5 8
M  V30 8 1 6 9
M  V30 9 1 7 10
M  V30 10 1 7 11
M  V30 11 1 10 12
M  V30 12 1 11 13
M  V30 13 1 11 14
M  V30 14 2 12 15
M  V30 15 1 12 16
M  V30 16 1 13 17
M  V30 17 1 14 18
M  V30 18 1 15 19
M  V30 19 1 15 20
M  V30 20 2 16 21
M  V30 21 2 17 22
M  V30 22 1 17 23
M  V30 23 1 19 24
M  V30 24 1 20 25
M  V30 25 2 20 26
M  V30 26 1 25 27
M  V30 27 1 26 28
M  V30 28 1 28 29
M  V30 29 2 9 10
M  V30 30 1 16 18
M  V30 31 1 21 26
M  V30 32 1 4 30
M  V30 33 1 6 31
M  V30 34 1 8 32
M  V30 35 1 8 33
M  V30 36 1 8 34
M  V30 37 1 9 35
M  V30 38 1 11 36
M  V30 39 1 13 37
M  V30 40 1 14 38
M  V30 41 1 14 39
M  V30 42 1 18 40
M  V30 43 1 18 41
M  V30 44 1 21 42
M  V30 45 1 23 43
M  V30 46 1 23 44
M  V30 47 1 23 45
M  V30 48 1 24 46
M  V30 49 1 24 47
M  V30 50 1 24 48
M  V30 51 1 27 49
M  V30 52 1 27 50
M  V30 53 1 27 51
M  V30 54 1 29 52
M  V30 55 1 29 53
M  V30 56 1 29 54
M  V30 END BOND
M  V30 BEGIN COLLECTION
M  V30 MDLV30/STERAC1 ATOMS=(1 11)
M  V30 END COLLECTION
M  V30 END CTAB
M  END
>  <NO.>
179

>  <Name>
colchicine

>  <SMILES>
COc1cc2c(c(OC)c1OC)-c1ccc(OC)c(=O)cc1C(NC(C)=O)CC2

>  <logBB>
-0.8

>  <Class>
1

>  <MW>
399.17

>  <nHBAcc>
6

>  <nHBDon>
1

>  <SLogP>
2.87

>  <TopoPSA>
83.09

>  <MMFF94 Energy>
110.19

$$$$
Cc1nc2n(c(=O)c1CCN1CCC(c3coc4cc(F)ccc34)CC1)CCCC2O
Actelion Java MolfileCreator 2.0

  0  0  0  0  0  0              0 V3000
M  V30 BEGIN CTAB
M  V30 COUNTS 59 63 0 0 0
M  V30 BEGIN ATOM
M  V30 1 F -0.3208 7.1581 -5.6267 0
M  V30 2 C -0.4772 6.0241 -4.9299 0
M  V30 3 C -1.3199 6.0243 -3.822 0
M  V30 4 C 0.2091 4.8832 -5.3385 0
M  V30 5 C -1.4343 4.8132 -3.147 0
M  V30 6 C 0.0715 3.6782 -4.6354 0
M  V30 7 O -2.202 4.5986 -2.0474 0
M  V30 8 C -0.7737 3.6433 -3.5077 0
M  V30 9 C -2.0409 3.2987 -1.6973 0
M  V30 10 C -1.1712 2.6476 -2.5531 0
M  V30 11 C -0.7221 1.2062 -2.5203 0
M  V30 12 C -0.0243 0.8123 -1.2115 0
M  V30 13 C -1.8407 0.2205 -2.8823 0
M  V30 14 C -0.9892 0.3722 -0.1061 0
M  V30 15 C -2.7309 -0.1364 -1.6915 0
M  V30 16 N -1.9891 -0.6233 -0.5191 0
M  V30 17 C -1.4285 -1.9714 -0.7356 0
M  V30 18 C -1.464 -2.8564 0.5273 0
M  V30 19 C -0.4424 -2.5318 1.5861 0
M  V30 20 C 0.9601 -2.9174 1.2774 0
M  V30 21 C -0.6745 -1.9669 2.7848 0
M  V30 22 O 1.2447 -3.3783 0.1724 0
M  V30 23 N 1.891 -2.7071 2.2757 0
M  V30 24 N 0.3049 -1.7392 3.7178 0
M  V30 25 C -2.0352 -1.4913 3.2283 0
M  V30 26 C 1.5205 -2.0949 3.445 0
M  V30 27 C 3.2759 -3.0421 1.966 0
M  V30 28 C 2.5636 -1.8742 4.5478 0 CFG=1
M  V30 29 C 4.185 -3.1588 3.1766 0
M  V30 30 O 2.3612 -2.8839 5.5381 0
M  V30 31 C 4.0002 -1.9391 4.0629 0
M  V30 32 H -1.8526 6.9108 -3.5065 0
M  V30 33 H 0.8544 4.9365 -6.2108 0
M  V30 34 H 0.6097 2.7933 -4.961 0
M  V30 35 H -2.6069 2.9926 -0.8285 0
M  V30 36 H 0.0378 1.1115 -3.3087 0
M  V30 37 H 0.599 1.6363 -0.8423 0
M  V30 38 H 0.6664 -0.0137 -1.4229 0
M  V30 39 H -1.3841 -0.6998 -3.269 0
M  V30 40 H -2.4605 0.6189 -3.6952 0
M  V30 41 H -1.5215 1.248 0.2823 0
M  V30 42 H -0.4042 0.013 0.7444 0
M  V30 43 H -3.4757 -0.8805 -2.001 0
M  V30 44 H -3.3221 0.7373 -1.3938 0
M  V30 45 H -0.4272 -1.9387 -1.1769 0
M  V30 46 H -2.0495 -2.5026 -1.47 0
M  V30 47 H -2.4806 -2.8595 0.9367 0
M  V30 48 H -1.305 -3.8979 0.2139 0
M  V30 49 H -1.9492 -0.5284 3.7451 0
M  V30 50 H -2.7319 -1.3338 2.4018 0
M  V30 51 H -2.4762 -2.2125 3.9238 0
M  V30 52 H 3.3057 -3.9784 1.3962 0
M  V30 53 H 3.6465 -2.2551 1.2965 0
M  V30 54 H 2.378 -0.9062 5.0269 0
M  V30 55 H 5.2281 -3.2376 2.8518 0
M  V30 56 H 3.9505 -4.0729 3.7351 0
M  V30 57 H 1.4241 -2.8059 5.8032 0
M  V30 58 H 4.2472 -1.0326 3.4976 0
M  V30 59 H 4.6877 -2.0034 4.9139 0
M  V30 END ATOM
M  V30 BEGIN BOND
M  V30 1 1 1 2
M  V30 2 2 2 3
M  V30 3 1 2 4
M  V30 4 1 3 5
M  V30 5 2 4 6
M  V30 6 1 5 7
M  V30 7 2 5 8
M  V30 8 1 7 9
M  V30 9 1 8 10
M  V30 10 1 10 11
M  V30 11 1 11 12
M  V30 12 1 11 13
M  V30 13 1 12 14
M  V30 14 1 13 15
M  V30 15 1 14 16
M  V30 16 1 16 17
M  V30 17 1 17 18
M  V30 18 1 18 19
M  V30 19 1 19 20
M  V30 20 2 19 21
M  V30 21 2 20 22
M  V30 22 1 20 23
M  V30 23 1 21 24
M  V30 24 1 21 25
M  V30 25 1 23 26
M  V30 26 1 23 27
M  V30 27 1 26 28
M  V30 28 1 27 29
M  V30 29 1 28 30
M  V30 30 1 28 31
M  V30 31 1 6 8
M  V30 32 2 9 10
M  V30 33 1 15 16
M  V30 34 2 24 26
M  V30 35 1 29 31
M  V30 36 1 3 32
M  V30 37 1 4 33
M  V30 38 1 6 34
M  V30 39 1 9 35
M  V30 40 1 11 36
M  V30 41 1 12 37
M  V30 42 1 12 38
M  V30 43 1 13 39
M  V30 44 1 13 40
M  V30 45 1 14 41
M  V30 46 1 14 42
M  V30 47 1 15 43
M  V30 48 1 15 44
M  V30 49 1 17 45
M  V30 50 1 17 46
M  V30 51 1 18 47
M  V30 52 1 18 48
M  V30 53 1 25 49
M  V30 54 1 25 50
M  V30 55 1 25 51
M  V30 56 1 27 52
M  V30 57 1 27 53
M  V30 58 1 28 54
M  V30 59 1 29 55
M  V30 60 1 29 56
M  V30 61 1 30 57
M  V30 62 1 31 58
M  V30 63 1 31 59
M  V30 END BOND
M  V30 BEGIN COLLECTION
M  V30 MDLV30/STERAC1 ATOMS=(1 28)
M  V30 END COLLECTION
M  V30 END CTAB
M  END
>  <NO.>
180

>  <Name>
risperidone-9-oh

>  <SMILES>
Cc1nc2n(c(=O)c1CCN1CCC(c3coc4cc(F)ccc34)CC1)CCCC2O

>  <logBB>
-0.8

>  <Class>
1

>  <MW>
425.21

>  <nHBAcc>
5

>  <nHBDon>
1

>  <SLogP>
3.69

>  <TopoPSA>
71.5

>  <MMFF94 Energy>
6.8364

$$$$
N[C@@H](Cc1ccc(O)c(O)c1)C(=O)O
Actelion Java MolfileCreator 2.0

  0  0  0  0  0  0              0 V3000
M  V30 BEGIN CTAB
M  V30 COUNTS 25 25 0 0 0
M  V30 BEGIN ATOM
M  V30 1 O -2.7392 0.9385 2.1909 0
M  V30 2 C -1.9193 0.0395 2.0735 0
M  V30 3 O -2.2848 -1.1417 1.5274 0
M  V30 4 C -0.4339 0.1314 2.4384 0 CFG=1
M  V30 5 N 0.1963 -1.2099 2.4981 0
M  V30 6 C 0.285 1.1205 1.5016 0
M  V30 7 C 0.3517 0.7056 0.0477 0
M  V30 8 C 1.4404 -0.0374 -0.4326 0
M  V30 9 C -0.678 1.0627 -0.8412 0
M  V30 10 C 1.4809 -0.4147 -1.7686 0
M  V30 11 C -0.6353 0.664 -2.1796 0
M  V30 12 O 2.5778 -1.083 -2.2306 0
M  V30 13 C 0.4374 -0.0902 -2.629 0
M  V30 14 O 0.4402 -0.5326 -3.92 0
M  V30 15 H -3.243 -1.0388 1.3549 0
M  V30 16 H -0.3962 0.5293 3.4596 0
M  V30 17 H -0.1544 -1.7452 1.6976 0
M  V30 18 H 1.2012 -1.126 2.3637 0
M  V30 19 H -0.2047 2.1021 1.5603 0
M  V30 20 H 1.3072 1.288 1.8671 0
M  V30 21 H 2.2658 -0.3063 0.2206 0
M  V30 22 H -1.5263 1.6517 -0.4951 0
M  V30 23 H -1.4416 0.928 -2.8574 0
M  V30 24 H 2.7368 -0.7439 -3.131 0
M  V30 25 H 0.8158 -1.4318 -3.8938 0
M  V30 END ATOM
M  V30 BEGIN BOND
M  V30 1 2 1 2
M  V30 2 1 2 3
M  V30 3 1 2 4
M  V30 4 1 4 5
M  V30 5 1 4 6
M  V30 6 1 6 7
M  V30 7 2 7 8
M  V30 8 1 7 9
M  V30 9 1 8 10
M  V30 10 2 9 11
M  V30 11 1 10 12
M  V30 12 2 10 13
M  V30 13 1 13 14
M  V30 14 1 11 13
M  V30 15 1 3 15
M  V30 16 1 4 16
M  V30 17 1 5 17
M  V30 18 1 5 18
M  V30 19 1 6 19
M  V30 20 1 6 20
M  V30 21 1 8 21
M  V30 22 1 9 22
M  V30 23 1 11 23
M  V30 24 1 12 24
M  V30 25 1 14 25
M  V30 END BOND
M  V30 BEGIN COLLECTION
M  V30 MDLV30/STEABS ATOMS=(1 4)
M  V30 END COLLECTION
M  V30 END CTAB
M  END
>  <NO.>
181

>  <Name>
levodopa

>  <SMILES>
N[C@@H](Cc1ccc(O)c(O)c1)C(=O)O

>  <logBB>
-0.8

>  <Class>
1

>  <MW>
197.07

>  <nHBAcc>
4

>  <nHBDon>
4

>  <SLogP>
0.05

>  <TopoPSA>
103.78

>  <MMFF94 Energy>
45.458

$$$$
N[C@H](Cc1ccccc1)C(=O)ON1CCC[C@H]1C(=O)O
Actelion Java MolfileCreator 2.0

  0  0  0  0  0  0              0 V3000
M  V30 BEGIN CTAB
M  V30 COUNTS 38 39 0 0 0
M  V30 BEGIN ATOM
M  V30 1 O -4.5366 -0.7947 2.0673 0
M  V30 2 C -3.6064 -0.3691 2.7373 0
M  V30 3 O -3.8542 0.1956 3.938 0
M  V30 4 C -2.1328 -0.3964 2.3334 0 CFG=1
M  V30 5 N -1.6887 0.9598 1.9323 0
M  V30 6 C -1.2078 -0.8345 3.4682 0
M  V30 7 O -0.5094 0.7357 1.0834 0
M  V30 8 C -1.1576 1.5664 3.1623 0
M  V30 9 C -0.4953 0.4327 3.9282 0
M  V30 10 C -0.5886 1.4579 -0.0902 0
M  V30 11 O -1.4768 2.2366 -0.4237 0
M  V30 12 C 0.6019 1.0818 -0.9797 0 CFG=2
M  V30 13 N 1.0614 2.2722 -1.736 0
M  V30 14 C 0.1463 -0.0731 -1.8894 0
M  V30 15 C 1.2583 -0.6643 -2.7238 0
M  V30 16 C 1.305 -0.4384 -4.1063 0
M  V30 17 C 2.2613 -1.4411 -2.1276 0
M  V30 18 C 2.3382 -0.9747 -4.8759 0
M  V30 19 C 3.2934 -1.9762 -2.8996 0
M  V30 20 C 3.3322 -1.7422 -4.2726 0
M  V30 21 H -4.833 0.1935 3.9918 0
M  V30 22 H -2.0646 -1.1032 1.4964 0
M  V30 23 H -1.7433 -1.3074 4.2983 0
M  V30 24 H -0.4645 -1.5532 3.1035 0
M  V30 25 H -0.4611 2.3868 2.957 0
M  V30 26 H -1.9815 1.9915 3.7464 0
M  V30 27 H -0.5762 0.5741 5.0106 0
M  V30 28 H 0.57 0.3697 3.6775 0
M  V30 29 H 1.4344 0.7727 -0.3372 0
M  V30 30 H 0.2498 2.6984 -2.1913 0
M  V30 31 H 1.6873 1.9741 -2.4846 0
M  V30 32 H -0.6708 0.2638 -2.5419 0
M  V30 33 H -0.2886 -0.8794 -1.2828 0
M  V30 34 H 0.5366 0.1563 -4.5958 0
M  V30 35 H 2.2469 -1.6379 -1.0582 0
M  V30 36 H 2.3665 -0.7951 -5.9475 0
M  V30 37 H 4.0678 -2.5773 -2.4301 0
M  V30 38 H 4.1359 -2.1601 -4.8731 0
M  V30 END ATOM
M  V30 BEGIN BOND
M  V30 1 2 1 2
M  V30 2 1 2 3
M  V30 3 1 2 4
M  V30 4 1 4 5
M  V30 5 1 4 6
M  V30 6 1 5 7
M  V30 7 1 5 8
M  V30 8 1 6 9
M  V30 9 1 7 10
M  V30 10 2 10 11
M  V30 11 1 10 12
M  V30 12 1 12 13
M  V30 13 1 12 14
M  V30 14 1 14 15
M  V30 15 2 15 16
M  V30 16 1 15 17
M  V30 17 1 16 18
M  V30 18 2 17 19
M  V30 19 2 18 20
M  V30 20 1 8 9
M  V30 21 1 19 20
M  V30 22 1 3 21
M  V30 23 1 4 22
M  V30 24 1 6 23
M  V30 25 1 6 24
M  V30 26 1 8 25
M  V30 27 1 8 26
M  V30 28 1 9 27
M  V30 29 1 9 28
M  V30 30 1 12 29
M  V30 31 1 13 30
M  V30 32 1 13 31
M  V30 33 1 14 32
M  V30 34 1 14 33
M  V30 35 1 16 34
M  V30 36 1 17 35
M  V30 37 1 18 36
M  V30 38 1 19 37
M  V30 39 1 20 38
M  V30 END BOND
M  V30 BEGIN COLLECTION
M  V30 MDLV30/STEABS ATOMS=(2 4 12)
M  V30 END COLLECTION
M  V30 END CTAB
M  END
>  <NO.>
182

>  <Name>
d-phenylalanine-l-proline

>  <SMILES>
N[C@H](Cc1ccccc1)C(=O)ON1CCC[C@H]1C(=O)O

>  <logBB>
-0.8

>  <Class>
1

>  <MW>
278.13

>  <nHBAcc>
5

>  <nHBDon>
2

>  <SLogP>
0.56

>  <TopoPSA>
92.86

>  <MMFF94 Energy>
135.54

$$$$
CNC(=O)c1c(NCC2CCC3(CCC3)CC2)nc(C#N)nc1OCC1CCN(C(C)=O)CC1
Actelion Java MolfileCreator 2.0

  0  0  0  0  0  0              0 V3000
M  V30 BEGIN CTAB
M  V30 COUNTS 70 73 0 0 0
M  V30 BEGIN ATOM
M  V30 1 O -0.4773 -0.2386 -1.9901 0
M  V30 2 C 0.3492 -0.7406 -1.2314 0
M  V30 3 N 1.2065 -1.738 -1.646 0
M  V30 4 C 0.4455 -0.2807 0.1824 0
M  V30 5 C 1.1722 -2.2469 -2.9931 0
M  V30 6 C 1.5912 -0.4016 0.9569 0
M  V30 7 C -0.6364 0.351 0.801 0
M  V30 8 O 2.704 -1.0079 0.4035 0
M  V30 9 N 1.692 0.0318 2.2283 0
M  V30 10 N -0.5637 0.7895 2.076 0
M  V30 11 N -1.8577 0.4827 0.1618 0
M  V30 12 C 3.8804 -0.9617 1.2199 0
M  V30 13 C 0.5934 0.6133 2.7286 0
M  V30 14 C -2.9869 1.1255 0.8035 0
M  V30 15 C 5.0343 -1.6181 0.4412 0
M  V30 16 C 0.6612 1.0873 4.0854 0
M  V30 17 C -4.228 1.0638 -0.105 0
M  V30 18 C 5.3383 -0.8999 -0.8866 0
M  V30 19 C 6.3124 -1.7008 1.2895 0
M  V30 20 N 0.7281 1.4674 5.1832 0
M  V30 21 C -4.7144 -0.3835 -0.3023 0
M  V30 22 C -5.3556 1.9274 0.4853 0
M  V30 23 C 6.0261 0.4482 -0.679 0
M  V30 24 C 6.9897 -0.3422 1.4626 0
M  V30 25 C -5.9828 -0.4449 -1.1534 0
M  V30 26 C -6.6154 1.875 -0.3762 0
M  V30 27 N 7.2067 0.3085 0.1726 0
M  V30 28 C -7.0863 0.4275 -0.5387 0
M  V30 29 C 8.464 0.8236 -0.1143 0
M  V30 30 C -8.4537 0.3098 -1.2797 0
M  V30 31 C -7.8153 -0.1776 0.7038 0
M  V30 32 O 9.4179 0.7221 0.6576 0
M  V30 33 C 8.6411 1.528 -1.4351 0
M  V30 34 C -8.8651 -0.7649 -0.257 0
M  V30 35 H 1.9126 -2.0904 -1.0088 0
M  V30 36 H 1.5186 -1.4666 -3.6759 0
M  V30 37 H 0.1493 -2.5318 -3.2537 0
M  V30 38 H 1.8303 -3.1163 -3.0559 0
M  V30 39 H -1.8286 0.4464 -0.8606 0
M  V30 40 H 3.7067 -1.528 2.1437 0
M  V30 41 H 4.1209 0.0773 1.4715 0
M  V30 42 H -3.2102 0.6398 1.7617 0
M  V30 43 H -2.7372 2.1739 1.0081 0
M  V30 44 H 4.7163 -2.6391 0.1905 0
M  V30 45 H -3.9625 1.474 -1.0894 0
M  V30 46 H 6.0022 -1.5416 -1.4809 0
M  V30 47 H 4.4264 -0.764 -1.4784 0
M  V30 48 H 7.0157 -2.3814 0.792 0
M  V30 49 H 6.0944 -2.1358 2.2717 0
M  V30 50 H -3.936 -0.9821 -0.7893 0
M  V30 51 H -4.9038 -0.8449 0.6747 0
M  V30 52 H -5.0223 2.9688 0.5679 0
M  V30 53 H -5.5904 1.5859 1.5015 0
M  V30 54 H 5.3529 1.1602 -0.1886 0
M  V30 55 H 6.2779 0.8712 -1.6534 0
M  V30 56 H 7.9319 -0.4768 2.0032 0
M  V30 57 H 6.3701 0.3297 2.067 0
M  V30 58 H -5.7562 -0.096 -2.1688 0
M  V30 59 H -6.3045 -1.4888 -1.2436 0
M  V30 60 H -7.3953 2.492 0.086 0
M  V30 61 H -6.4067 2.314 -1.3599 0
M  V30 62 H -8.4163 -0.0245 -2.3204 0
M  V30 63 H -9.0779 1.2104 -1.2289 0
M  V30 64 H -8.2323 0.5678 1.3918 0
M  V30 65 H -7.2594 -0.9142 1.2901 0
M  V30 66 H 8.4547 0.8347 -2.2594 0
M  V30 67 H 7.9694 2.3881 -1.4983 0
M  V30 68 H 9.6699 1.8911 -1.5186 0
M  V30 69 H -9.9011 -0.7179 0.0881 0
M  V30 70 H -8.6468 -1.7892 -0.5788 0
M  V30 END ATOM
M  V30 BEGIN BOND
M  V30 1 2 1 2
M  V30 2 1 2 3
M  V30 3 1 2 4
M  V30 4 1 3 5
M  V30 5 2 4 6
M  V30 6 1 4 7
M  V30 7 1 6 8
M  V30 8 1 6 9
M  V30 9 2 7 10
M  V30 10 1 7 11
M  V30 11 1 8 12
M  V30 12 2 9 13
M  V30 13 1 11 14
M  V30 14 1 12 15
M  V30 15 1 13 16
M  V30 16 1 14 17
M  V30 17 1 15 18
M  V30 18 1 15 19
M  V30 19 3 16 20
M  V30 20 1 17 21
M  V30 21 1 17 22
M  V30 22 1 18 23
M  V30 23 1 19 24
M  V30 24 1 21 25
M  V30 25 1 22 26
M  V30 26 1 23 27
M  V30 27 1 25 28
M  V30 28 1 27 29
M  V30 29 1 28 30
M  V30 30 1 28 31
M  V30 31 2 29 32
M  V30 32 1 29 33
M  V30 33 1 30 34
M  V30 34 1 10 13
M  V30 35 1 24 27
M  V30 36 1 26 28
M  V30 37 1 31 34
M  V30 38 1 3 35
M  V30 39 1 5 36
M  V30 40 1 5 37
M  V30 41 1 5 38
M  V30 42 1 11 39
M  V30 43 1 12 40
M  V30 44 1 12 41
M  V30 45 1 14 42
M  V30 46 1 14 43
M  V30 47 1 15 44
M  V30 48 1 17 45
M  V30 49 1 18 46
M  V30 50 1 18 47
M  V30 51 1 19 48
M  V30 52 1 19 49
M  V30 53 1 21 50
M  V30 54 1 21 51
M  V30 55 1 22 52
M  V30 56 1 22 53
M  V30 57 1 23 54
M  V30 58 1 23 55
M  V30 59 1 24 56
M  V30 60 1 24 57
M  V30 61 1 25 58
M  V30 62 1 25 59
M  V30 63 1 26 60
M  V30 64 1 26 61
M  V30 65 1 30 62
M  V30 66 1 30 63
M  V30 67 1 31 64
M  V30 68 1 31 65
M  V30 69 1 33 66
M  V30 70 1 33 67
M  V30 71 1 33 68
M  V30 72 1 34 69
M  V30 73 1 34 70
M  V30 END BOND
M  V30 END CTAB
M  END
>  <NO.>
185

>  <Name>
irie-16c

>  <SMILES>
CNC(=O)c1c(NCC2CCC3(CCC3)CC2)nc(C#N)nc1OCC1CCN(C(C)=O)CC1

>  <logBB>
-0.79

>  <Class>
1

>  <MW>
468.28

>  <nHBAcc>
7

>  <nHBDon>
2

>  <SLogP>
3.12

>  <TopoPSA>
120.24

>  <MMFF94 Energy>
0.84979

$$$$
Cc1c(CCOC(=O)c2cc(=O)c3c(Cl)cc(Cl)cc3[nH]2)sc[n+]1C
Actelion Java MolfileCreator 2.0

  0  0  0  0  0  0              0 V3000
M  V30 BEGIN CTAB
M  V30 COUNTS 40 42 0 0 0
M  V30 BEGIN ATOM
M  V30 1 Cl 4.3843 -0.5782 3.3904 0
M  V30 2 C 2.7293 -0.4582 3.8681 0
M  V30 3 C 1.6962 -0.0402 3.0154 0
M  V30 4 C 2.4438 -0.7954 5.1962 0
M  V30 5 C 1.9032 0.3105 1.5775 0
M  V30 6 C 0.3729 0.042 3.5078 0
M  V30 7 C 1.138 -0.7179 5.6711 0
M  V30 8 O 2.9384 0.1115 0.9546 0
M  V30 9 C 0.7648 0.8798 0.8209 0
M  V30 10 N -0.6694 0.4683 2.6744 0
M  V30 11 C 0.1041 -0.3013 4.8366 0
M  V30 12 Cl 0.7965 -1.1384 7.3028 0
M  V30 13 C -0.4492 0.8973 1.3844 0
M  V30 14 C -1.645 1.3318 0.5897 0
M  V30 15 O -2.7867 1.2195 1.0109 0
M  V30 16 O -1.2919 1.7685 -0.6444 0
M  V30 17 C -2.3683 2.1024 -1.5395 0
M  V30 18 C -2.7416 0.8813 -2.3858 0
M  V30 19 C -1.5811 0.3971 -3.2197 0
M  V30 20 S -1.2375 1.1438 -4.7327 0
M  V30 21 C -0.6628 -0.6099 -2.9745 0
M  V30 22 C 0.1231 0.1428 -4.9874 0
M  V30 23 N 0.284 -0.706 -3.9892 0 CHG=1
M  V30 24 C -0.5751 -1.5363 -1.8177 0
M  V30 25 C 1.3938 -1.6557 -3.9807 0
M  V30 26 H 3.2419 -1.1179 5.8623 0
M  V30 27 H 0.9829 1.2006 -0.1884 0
M  V30 28 H -1.6256 0.5228 3.0227 0
M  V30 29 H -0.9091 -0.242 5.2276 0
M  V30 30 H -2.0128 2.9227 -2.1726 0
M  V30 31 H -3.2404 2.4782 -0.992 0
M  V30 32 H -3.5888 1.1331 -3.0349 0
M  V30 33 H -3.0769 0.0676 -1.7327 0
M  V30 34 H 0.7601 0.2109 -5.8612 0
M  V30 35 H 0.391 -1.4391 -1.314 0
M  V30 36 H -1.3532 -1.3346 -1.0763 0
M  V30 37 H -0.6969 -2.5729 -2.1467 0
M  V30 38 H 2.0348 -1.4571 -3.1167 0
M  V30 39 H 1.0011 -2.6753 -3.9308 0
M  V30 40 H 1.9962 -1.5609 -4.8894 0
M  V30 END ATOM
M  V30 BEGIN BOND
M  V30 1 1 1 2
M  V30 2 2 2 3
M  V30 3 1 2 4
M  V30 4 1 3 5
M  V30 5 1 3 6
M  V30 6 2 4 7
M  V30 7 2 5 8
M  V30 8 1 5 9
M  V30 9 1 6 10
M  V30 10 2 6 11
M  V30 11 1 7 12
M  V30 12 2 9 13
M  V30 13 1 13 14
M  V30 14 2 14 15
M  V30 15 1 14 16
M  V30 16 1 16 17
M  V30 17 1 17 18
M  V30 18 1 18 19
M  V30 19 1 19 20
M  V30 20 2 19 21
M  V30 21 1 20 22
M  V30 22 1 21 23
M  V30 23 1 21 24
M  V30 24 1 23 25
M  V30 25 1 7 11
M  V30 26 1 10 13
M  V30 27 2 22 23
M  V30 28 1 4 26
M  V30 29 1 9 27
M  V30 30 1 10 28
M  V30 31 1 11 29
M  V30 32 1 17 30
M  V30 33 1 17 31
M  V30 34 1 18 32
M  V30 35 1 18 33
M  V30 36 1 22 34
M  V30 37 1 24 35
M  V30 38 1 24 36
M  V30 39 1 24 37
M  V30 40 1 25 38
M  V30 41 1 25 39
M  V30 42 1 25 40
M  V30 END BOND
M  V30 END CTAB
M  END
>  <NO.>
191

>  <Name>
n-methylthiazolium-dcka

>  <SMILES>
Cc1c(CCOC(=O)c2cc(=O)c3c(Cl)cc(Cl)cc3[nH]2)sc[n+]1C

>  <logBB>
-0.78

>  <Class>
1

>  <MW>
397.02

>  <nHBAcc>
4

>  <nHBDon>
1

>  <SLogP>
3.43

>  <TopoPSA>
63.04

>  <MMFF94 Energy>
68.802

$$$$
CC1COc2c(N3CCN(C)CC3)c(F)cc3c(=O)c(C(=O)O)cn1c23
Actelion Java MolfileCreator 2.0

  0  0  0  0  0  0              0 V3000
M  V30 BEGIN CTAB
M  V30 COUNTS 46 49 0 0 0
M  V30 BEGIN ATOM
M  V30 1 F -1.1283 2.4998 -2.2577 0
M  V30 2 C -0.9062 1.8717 -1.0906 0
M  V30 3 C -0.2611 0.6171 -1.0759 0
M  V30 4 C -1.3704 2.4938 0.0616 0
M  V30 5 N 0.1655 0.0466 -2.2762 0
M  V30 6 C -0.117 0.0022 0.1946 0
M  V30 7 C -1.1913 1.8738 1.2965 0
M  V30 8 C 1.0927 0.8163 -3.1229 0
M  V30 9 C 0.1687 -1.406 -2.4871 0
M  V30 10 O 0.5397 -1.2122 0.242 0
M  V30 11 C -0.5581 0.6237 1.3932 0
M  V30 12 C -1.6731 2.5598 2.5209 0
M  V30 13 C 0.9668 0.3982 -4.6075 0
M  V30 14 C 0.0678 -1.7446 -3.995 0
M  V30 15 C 0.1401 -1.9855 1.3714 0
M  V30 16 N -0.3675 0.0372 2.6747 0
M  V30 17 O -2.3254 3.5926 2.4185 0
M  V30 18 C -1.3433 1.9503 3.8317 0
M  V30 19 N 1.0402 -1.0566 -4.8737 0
M  V30 20 C 0.4078 -1.2242 2.6725 0 CFG=1
M  V30 21 C -0.7201 0.7607 3.8033 0
M  V30 22 C -1.646 2.624 5.1082 0
M  V30 23 C 2.3945 -1.5698 -4.6849 0
M  V30 24 C 0.0604 -2.1377 3.8501 0
M  V30 25 O -1.9357 3.7938 5.2761 0
M  V30 26 O -1.5699 1.8015 6.1759 0
M  V30 27 H -1.8665 3.4572 -0.0191 0
M  V30 28 H 0.9203 1.8958 -3.0625 0
M  V30 29 H 2.1172 0.6455 -2.7702 0
M  V30 30 H -0.6888 -1.8709 -1.9857 0
M  V30 31 H 1.0864 -1.8445 -2.0792 0
M  V30 32 H -0.0016 0.7546 -4.9833 0
M  V30 33 H 1.7243 0.9247 -5.201 0
M  V30 34 H -0.9389 -1.475 -4.3415 0
M  V30 35 H 0.1441 -2.8303 -4.1312 0
M  V30 36 H -0.9161 -2.2689 1.2659 0
M  V30 37 H 0.7261 -2.9109 1.3463 0
M  V30 38 H 1.4732 -0.9631 2.7208 0
M  V30 39 H -0.4324 0.2832 4.7349 0
M  V30 40 H 3.0873 -1.0743 -5.3741 0
M  V30 41 H 2.7752 -1.4356 -3.6676 0
M  V30 42 H 2.4316 -2.6387 -4.9226 0
M  V30 43 H 0.5553 -3.1098 3.749 0
M  V30 44 H -1.0192 -2.3112 3.9171 0
M  V30 45 H 0.3953 -1.7121 4.8012 0
M  V30 46 H -1.8101 2.3929 6.9215 0
M  V30 END ATOM
M  V30 BEGIN BOND
M  V30 1 1 1 2
M  V30 2 2 2 3
M  V30 3 1 2 4
M  V30 4 1 3 5
M  V30 5 1 3 6
M  V30 6 2 4 7
M  V30 7 1 5 8
M  V30 8 1 5 9
M  V30 9 1 6 10
M  V30 10 2 6 11
M  V30 11 1 7 12
M  V30 12 1 8 13
M  V30 13 1 9 14
M  V30 14 1 10 15
M  V30 15 1 11 16
M  V30 16 2 12 17
M  V30 17 1 12 18
M  V30 18 1 13 19
M  V30 19 1 15 20
M  V30 20 1 16 21
M  V30 21 1 18 22
M  V30 22 1 19 23
M  V30 23 1 20 24
M  V30 24 2 22 25
M  V30 25 1 22 26
M  V30 26 1 7 11
M  V30 27 1 14 19
M  V30 28 1 16 20
M  V30 29 2 18 21
M  V30 30 1 4 27
M  V30 31 1 8 28
M  V30 32 1 8 29
M  V30 33 1 9 30
M  V30 34 1 9 31
M  V30 35 1 13 32
M  V30 36 1 13 33
M  V30 37 1 14 34
M  V30 38 1 14 35
M  V30 39 1 15 36
M  V30 40 1 15 37
M  V30 41 1 20 38
M  V30 42 1 21 39
M  V30 43 1 23 40
M  V30 44 1 23 41
M  V30 45 1 23 42
M  V30 46 1 24 43
M  V30 47 1 24 44
M  V30 48 1 24 45
M  V30 49 1 26 46
M  V30 END BOND
M  V30 BEGIN COLLECTION
M  V30 MDLV30/STERAC1 ATOMS=(1 20)
M  V30 END COLLECTION
M  V30 END CTAB
M  END
>  <NO.>
194

>  <Name>
ofloxacin

>  <SMILES>
CC1COc2c(N3CCN(C)CC3)c(F)cc3c(=O)c(C(=O)O)cn1c23

>  <logBB>
-0.76

>  <Class>
1

>  <MW>
361.14

>  <nHBAcc>
5

>  <nHBDon>
1

>  <SLogP>
1.54

>  <TopoPSA>
75.01

>  <MMFF94 Energy>
170.14

$$$$
CC(C)(C)NC(=O)C1CN(Cc2cccnc2)CCN1CC(O)CC(Cc1ccccc1)C(=O)NC1c2ccccc2CC1O
Actelion Java MolfileCreator 2.0

  0  0  0  0  0  0              0 V3000
M  V30 BEGIN CTAB
M  V30 COUNTS 92 96 0 0 0
M  V30 BEGIN ATOM
M  V30 1 O 2.942 -0.0794 -0.1588 0
M  V30 2 C 2.6314 0.9025 -0.8299 0
M  V30 3 N 2.2665 0.8332 -2.1623 0
M  V30 4 C 2.6247 2.3301 -0.2513 0
M  V30 5 C 2.2037 -0.4063 -2.9541 0
M  V30 6 N 2.0044 2.3681 1.1088 0
M  V30 7 C 4.1228 2.7516 -0.2468 0
M  V30 8 C 3.5828 -1.0802 -3.0293 0
M  V30 9 C 1.1675 -1.3826 -2.3741 0
M  V30 10 C 1.769 -0.0351 -4.3842 0
M  V30 11 C 2.3065 3.6793 1.7365 0
M  V30 12 C 0.5285 2.191 1.104 0
M  V30 13 N 4.3535 4.0762 0.3664 0
M  V30 14 C 3.8048 4.0441 1.7376 0
M  V30 15 C 0.0233 0.7545 0.841 0
M  V30 16 C 5.7923 4.3891 0.3715 0
M  V30 17 O 0.7084 -0.1641 1.6865 0
M  V30 18 C -1.4906 0.6438 1.0746 0
M  V30 19 C 6.0892 5.8162 0.7543 0
M  V30 20 C -2.0141 -0.7894 0.8271 0
M  V30 21 C 5.5635 6.8786 0.024 0
M  V30 22 C 6.9157 6.1301 1.8368 0
M  V30 23 C -3.4234 -0.7418 0.2352 0
M  V30 24 C -2.0328 -1.6182 2.1301 0
M  V30 25 N 5.8024 8.1828 0.2954 0
M  V30 26 C 7.1758 7.4631 2.1429 0
M  V30 27 O -4.1704 0.2241 0.3563 0
M  V30 28 N -3.7761 -1.8857 -0.442 0
M  V30 29 C -1.9391 -3.1086 1.8849 0
M  V30 30 C 6.6022 8.4436 1.3505 0
M  V30 31 C -5.0973 -2.0777 -1.0125 0
M  V30 32 C -3.046 -3.9407 2.095 0
M  V30 33 C -0.7422 -3.6723 1.4219 0
M  V30 34 C -5.9787 -2.8315 -0.0524 0
M  V30 35 C -5.0719 -3.0442 -2.2324 0
M  V30 36 C -2.9645 -5.3071 1.8253 0
M  V30 37 C -0.6611 -5.0396 1.1572 0
M  V30 38 C -6.1351 -4.1664 -0.4383 0
M  V30 39 C -6.5726 -2.3505 1.1053 0
M  V30 40 O -6.059 -2.652 -3.1981 0
M  V30 41 C -5.3738 -4.4589 -1.6937 0
M  V30 42 C -1.7733 -5.8561 1.3551 0
M  V30 43 C -6.8762 -5.0497 0.3298 0
M  V30 44 C -7.3302 -3.2304 1.8799 0
M  V30 45 C -7.4797 -4.5714 1.4951 0
M  V30 46 H 2.016 1.6948 -2.6318 0
M  V30 47 H 2.0735 3.0057 -0.9188 0
M  V30 48 H 4.722 1.988 0.2703 0
M  V30 49 H 4.4754 2.7746 -1.2865 0
M  V30 50 H 3.9216 -1.4325 -2.0499 0
M  V30 51 H 3.5625 -1.9486 -3.6973 0
M  V30 52 H 4.3405 -0.3833 -3.4056 0
M  V30 53 H 1.0689 -2.2739 -3.0038 0
M  V30 54 H 1.4393 -1.7225 -1.3697 0
M  V30 55 H 0.1802 -0.9118 -2.3034 0
M  V30 56 H 2.479 0.6623 -4.8439 0
M  V30 57 H 0.7876 0.4535 -4.384 0
M  V30 58 H 1.7036 -0.9205 -5.0262 0
M  V30 59 H 1.9692 3.6641 2.7804 0
M  V30 60 H 1.7513 4.4792 1.2269 0
M  V30 61 H 0.0563 2.8871 0.3988 0
M  V30 62 H 0.1652 2.4607 2.1053 0
M  V30 63 H 4.3527 3.3259 2.3623 0
M  V30 64 H 3.9041 5.0291 2.2082 0
M  V30 65 H 0.2174 0.4714 -0.1955 0
M  V30 66 H 6.3387 3.6962 1.0254 0
M  V30 67 H 6.2051 4.2463 -0.6363 0
M  V30 68 H 1.6631 -0.0267 1.4997 0
M  V30 69 H -1.9808 1.3584 0.4019 0
M  V30 70 H -1.7389 0.9503 2.0988 0
M  V30 71 H -1.373 -1.2631 0.0716 0
M  V30 72 H 4.9101 6.7021 -0.8266 0
M  V30 73 H 7.357 5.3446 2.4444 0
M  V30 74 H -2.9418 -1.3954 2.7047 0
M  V30 75 H -1.1986 -1.3466 2.7873 0
M  V30 76 H 7.8115 7.7314 2.979 0
M  V30 77 H -3.1684 -2.6928 -0.3714 0
M  V30 78 H 6.7764 9.497 1.5495 0
M  V30 79 H -5.5494 -1.1151 -1.2764 0
M  V30 80 H -3.9852 -3.5292 2.4598 0
M  V30 81 H 0.1349 -3.0437 1.2719 0
M  V30 82 H -4.1091 -3.0186 -2.7547 0
M  V30 83 H -3.8329 -5.9406 1.9871 0
M  V30 84 H 0.2735 -5.4672 0.8043 0
M  V30 85 H -6.4463 -1.3129 1.4031 0
M  V30 86 H -6.0847 -3.3334 -3.8904 0
M  V30 87 H -5.9674 -5.0545 -2.393 0
M  V30 88 H -4.4472 -4.9821 -1.4354 0
M  V30 89 H -1.7081 -6.9218 1.154 0
M  V30 90 H -6.99 -6.0887 0.0382 0
M  V30 91 H -7.8064 -2.8735 2.7898 0
M  V30 92 H -8.0718 -5.2431 2.1119 0
M  V30 END ATOM
M  V30 BEGIN BOND
M  V30 1 2 1 2
M  V30 2 1 2 3
M  V30 3 1 2 4
M  V30 4 1 3 5
M  V30 5 1 4 6
M  V30 6 1 4 7
M  V30 7 1 5 8
M  V30 8 1 5 9
M  V30 9 1 5 10
M  V30 10 1 6 11
M  V30 11 1 6 12
M  V30 12 1 7 13
M  V30 13 1 11 14
M  V30 14 1 12 15
M  V30 15 1 13 16
M  V30 16 1 15 17
M  V30 17 1 15 18
M  V30 18 1 16 19
M  V30 19 1 18 20
M  V30 20 2 19 21
M  V30 21 1 19 22
M  V30 22 1 20 23
M  V30 23 1 20 24
M  V30 24 1 21 25
M  V30 25 2 22 26
M  V30 26 2 23 27
M  V30 27 1 23 28
M  V30 28 1 24 29
M  V30 29 2 25 30
M  V30 30 1 28 31
M  V30 31 2 29 32
M  V30 32 1 29 33
M  V30 33 1 31 34
M  V30 34 1 31 35
M  V30 35 1 32 36
M  V30 36 2 33 37
M  V30 37 2 34 38
M  V30 38 1 34 39
M  V30 39 1 35 40
M  V30 40 1 35 41
M  V30 41 2 36 42
M  V30 42 1 38 43
M  V30 43 2 39 44
M  V30 44 2 43 45
M  V30 45 1 13 14
M  V30 46 1 26 30
M  V30 47 1 37 42
M  V30 48 1 38 41
M  V30 49 1 44 45
M  V30 50 1 3 46
M  V30 51 1 4 47
M  V30 52 1 7 48
M  V30 53 1 7 49
M  V30 54 1 8 50
M  V30 55 1 8 51
M  V30 56 1 8 52
M  V30 57 1 9 53
M  V30 58 1 9 54
M  V30 59 1 9 55
M  V30 60 1 10 56
M  V30 61 1 10 57
M  V30 62 1 10 58
M  V30 63 1 11 59
M  V30 64 1 11 60
M  V30 65 1 12 61
M  V30 66 1 12 62
M  V30 67 1 14 63
M  V30 68 1 14 64
M  V30 69 1 15 65
M  V30 70 1 16 66
M  V30 71 1 16 67
M  V30 72 1 17 68
M  V30 73 1 18 69
M  V30 74 1 18 70
M  V30 75 1 20 71
M  V30 76 1 21 72
M  V30 77 1 22 73
M  V30 78 1 24 74
M  V30 79 1 24 75
M  V30 80 1 26 76
M  V30 81 1 28 77
M  V30 82 1 30 78
M  V30 83 1 31 79
M  V30 84 1 32 80
M  V30 85 1 33 81
M  V30 86 1 35 82
M  V30 87 1 36 83
M  V30 88 1 37 84
M  V30 89 1 39 85
M  V30 90 1 40 86
M  V30 91 1 41 87
M  V30 92 1 41 88
M  V30 93 1 42 89
M  V30 94 1 43 90
M  V30 95 1 44 91
M  V30 96 1 45 92
M  V30 END BOND
M  V30 END CTAB
M  END
>  <NO.>
195

>  <Name>
indinavir

>  <SMILES>
CC(C)(C)NC(=O)C1CN(Cc2cccnc2)CCN1CC(O)CC(Cc1ccccc1)C(=O)NC1c2ccccc2CC1O

>  <logBB>
-0.74

>  <Class>
1

>  <MW>
613.36

>  <nHBAcc>
7

>  <nHBDon>
4

>  <SLogP>
2.87

>  <TopoPSA>
118.03

>  <MMFF94 Energy>
186.22

$$$$
CN(C)Cc1ccc(CSCCNc2[nH]cc(Cc3ccccc3)c2[N+](=O)[O-])o1
Actelion Java MolfileCreator 2.0

  0  0  0  0  0  0              0 V3000
M  V30 BEGIN CTAB
M  V30 COUNTS 55 57 0 0 0
M  V30 BEGIN ATOM
M  V30 1 S 0.4791 -1.6778 0.9585 0
M  V30 2 C 0.8072 -0.2378 2.0346 0
M  V30 3 C 1.4467 -1.243 -0.5403 0
M  V30 4 C 2.2457 0.079 2.1965 0
M  V30 5 C 0.9523 0.0016 -1.2868 0
M  V30 6 O 2.9938 -0.8109 2.9073 0
M  V30 7 C 3.0338 1.1355 1.788 0
M  V30 8 N 0.0506 -0.3069 -2.3899 0
M  V30 9 C 4.268 -0.3253 2.9545 0
M  V30 10 C 4.3394 0.8683 2.2655 0
M  V30 11 C -1.2837 -0.5396 -2.2987 0
M  V30 12 C 5.2749 -1.1522 3.6835 0
M  V30 13 N -1.8879 -0.8178 -1.1008 0
M  V30 14 C -2.2743 -0.5894 -3.276 0
M  V30 15 N 5.2535 -0.9363 5.1424 0
M  V30 16 C -3.2316 -1.0033 -1.2751 0
M  V30 17 N -2.0338 -0.4096 -4.6908 0 CHG=1
M  V30 18 C -3.5316 -0.8454 -2.6187 0
M  V30 19 C 5.7653 0.3849 5.5077 0
M  V30 20 C 6.0362 -1.9762 5.8115 0
M  V30 21 O -2.8727 -0.8748 -5.4738 0
M  V30 22 O -0.9922 0.1737 -5.0291 0 CHG=-1
M  V30 23 C -4.9024 -0.9529 -3.2139 0
M  V30 24 C -5.4154 0.4607 -3.363 0
M  V30 25 C -5.8718 1.1839 -2.2486 0
M  V30 26 C -5.4615 1.074 -4.624 0
M  V30 27 C -6.3476 2.4887 -2.391 0
M  V30 28 C -5.9369 2.3793 -4.7647 0
M  V30 29 C -6.3783 3.0866 -3.6487 0
M  V30 30 H 0.3736 -0.4586 3.0161 0
M  V30 31 H 0.2626 0.6268 1.6429 0
M  V30 32 H 2.4907 -1.111 -0.2404 0
M  V30 33 H 1.4268 -2.1161 -1.202 0
M  V30 34 H 0.5147 0.7583 -0.6276 0
M  V30 35 H 1.8325 0.4793 -1.7355 0
M  V30 36 H 2.7077 1.9949 1.2188 0
M  V30 37 H 0.4448 -0.1319 -3.32 0
M  V30 38 H 5.2251 1.4747 2.1382 0
M  V30 39 H 5.0428 -2.2034 3.4656 0
M  V30 40 H 6.2762 -0.9644 3.2745 0
M  V30 41 H -1.3966 -0.9268 -0.2231 0
M  V30 42 H -3.8651 -1.2321 -0.4277 0
M  V30 43 H 5.1333 1.183 5.1055 0
M  V30 44 H 6.7913 0.543 5.1561 0
M  V30 45 H 5.7547 0.5125 6.5964 0
M  V30 46 H 7.0879 -1.9649 5.5031 0
M  V30 47 H 5.6237 -2.9686 5.5976 0
M  V30 48 H 5.9942 -1.8513 6.8994 0
M  V30 49 H -5.5725 -1.5171 -2.5533 0
M  V30 50 H -4.8968 -1.486 -4.1689 0
M  V30 51 H -5.8558 0.7323 -1.2593 0
M  V30 52 H -5.1294 0.5376 -5.5108 0
M  V30 53 H -6.6941 3.0382 -1.5198 0
M  V30 54 H -5.9632 2.8423 -5.7478 0
M  V30 55 H -6.7481 4.1023 -3.7601 0
M  V30 END ATOM
M  V30 BEGIN BOND
M  V30 1 1 1 2
M  V30 2 1 1 3
M  V30 3 1 2 4
M  V30 4 1 3 5
M  V30 5 1 4 6
M  V30 6 2 4 7
M  V30 7 1 5 8
M  V30 8 1 6 9
M  V30 9 1 7 10
M  V30 10 1 8 11
M  V30 11 1 9 12
M  V30 12 1 11 13
M  V30 13 2 11 14
M  V30 14 1 12 15
M  V30 15 1 13 16
M  V30 16 1 14 17
M  V30 17 1 14 18
M  V30 18 1 15 19
M  V30 19 1 15 20
M  V30 20 2 17 21
M  V30 21 1 17 22
M  V30 22 1 18 23
M  V30 23 1 23 24
M  V30 24 2 24 25
M  V30 25 1 24 26
M  V30 26 1 25 27
M  V30 27 2 26 28
M  V30 28 2 27 29
M  V30 29 2 9 10
M  V30 30 2 16 18
M  V30 31 1 28 29
M  V30 32 1 2 30
M  V30 33 1 2 31
M  V30 34 1 3 32
M  V30 35 1 3 33
M  V30 36 1 5 34
M  V30 37 1 5 35
M  V30 38 1 7 36
M  V30 39 1 8 37
M  V30 40 1 10 38
M  V30 41 1 12 39
M  V30 42 1 12 40
M  V30 43 1 13 41
M  V30 44 1 16 42
M  V30 45 1 19 43
M  V30 46 1 19 44
M  V30 47 1 19 45
M  V30 48 1 20 46
M  V30 49 1 20 47
M  V30 50 1 20 48
M  V30 51 1 23 49
M  V30 52 1 23 50
M  V30 53 1 25 51
M  V30 54 1 26 52
M  V30 55 1 27 53
M  V30 56 1 28 54
M  V30 57 1 29 55
M  V30 END BOND
M  V30 END CTAB
M  END
>  <NO.>
196

>  <Name>
chembl344991

>  <SMILES>
CN(C)Cc1ccc(CSCCNc2[nH]cc(Cc3ccccc3)c2[N+](=O)[O-])o1

>  <logBB>
-0.73

>  <Class>
1

>  <MW>
414.17

>  <nHBAcc>
6

>  <nHBDon>
2

>  <SLogP>
4.51

>  <TopoPSA>
87.34

>  <MMFF94 Energy>
133.22

$$$$
CN(C)Cc1ccc(SCCNc2[nH]cc(Cc3ccccc3)c2[N+](=O)[O-])o1
Actelion Java MolfileCreator 2.0

  0  0  0  0  0  0              0 V3000
M  V30 BEGIN CTAB
M  V30 COUNTS 52 54 0 0 0
M  V30 BEGIN ATOM
M  V30 1 S 1.0394 -2.2397 4.4031 0
M  V30 2 C 2.213 -2.5923 3.1632 0
M  V30 3 C -0.3797 -1.6807 3.4092 0
M  V30 4 O 1.9609 -2.4242 1.8323 0
M  V30 5 C 3.4992 -3.0662 3.327 0
M  V30 6 C -0.1962 -0.2467 2.9011 0
M  V30 7 C 3.0803 -2.7946 1.1484 0
M  V30 8 C 4.0582 -3.1961 2.033 0
M  V30 9 N -1.3651 0.185 2.1418 0
M  V30 10 C 3.0196 -2.6951 -0.3386 0
M  V30 11 C -1.5108 1.41 1.5759 0
M  V30 12 N 3.2369 -3.9957 -0.9993 0
M  V30 13 N -0.5562 2.3844 1.72 0
M  V30 14 C -2.5337 1.9484 0.8013 0
M  V30 15 C 3.4246 -3.7967 -2.4377 0
M  V30 16 C 2.1044 -4.8994 -0.7709 0
M  V30 17 C -0.9324 3.5193 1.0549 0
M  V30 18 N -3.7486 1.246 0.4537 0 CHG=1
M  V30 19 C -2.154 3.2914 0.4407 0
M  V30 20 O -3.7278 0.006 0.4893 0
M  V30 21 O -4.7391 1.9323 0.1681 0 CHG=-1
M  V30 22 C -2.8916 4.2824 -0.4074 0
M  V30 23 C -2.5749 3.9355 -1.8436 0
M  V30 24 C -1.3314 4.2645 -2.4079 0
M  V30 25 C -3.5261 3.2907 -2.6484 0
M  V30 26 C -1.0438 3.9446 -3.736 0
M  V30 27 C -3.2367 2.9707 -3.9762 0
M  V30 28 C -1.9959 3.2963 -4.519 0
M  V30 29 H -0.5589 -2.3747 2.5804 0
M  V30 30 H -1.267 -1.727 4.051 0
M  V30 31 H 3.9738 -3.2969 4.2704 0
M  V30 32 H -0.054 0.4268 3.7554 0
M  V30 33 H 0.6899 -0.1754 2.261 0
M  V30 34 H 5.0445 -3.5503 1.7671 0
M  V30 35 H -2.0721 -0.5312 1.9487 0
M  V30 36 H 2.0682 -2.2472 -0.6542 0
M  V30 37 H 3.8114 -1.9962 -0.6391 0
M  V30 38 H 0.3027 2.2772 2.2395 0
M  V30 39 H 4.2984 -3.1636 -2.6284 0
M  V30 40 H 2.5514 -3.3316 -2.9098 0
M  V30 41 H 3.6186 -4.7528 -2.9367 0
M  V30 42 H 1.1609 -4.4832 -1.1429 0
M  V30 43 H 1.9851 -5.1291 0.2932 0
M  V30 44 H 2.2757 -5.8592 -1.2717 0
M  V30 45 H -0.293 4.3926 1.0591 0
M  V30 46 H -2.556 5.3051 -0.1954 0
M  V30 47 H -3.9683 4.2692 -0.2143 0
M  V30 48 H -0.5766 4.7719 -1.8114 0
M  V30 49 H -4.5052 3.0344 -2.2479 0
M  V30 50 H -0.0765 4.2018 -4.159 0
M  V30 51 H -3.9828 2.4681 -4.5863 0
M  V30 52 H -1.7727 3.0468 -5.5527 0
M  V30 END ATOM
M  V30 BEGIN BOND
M  V30 1 1 1 2
M  V30 2 1 1 3
M  V30 3 1 2 4
M  V30 4 2 2 5
M  V30 5 1 3 6
M  V30 6 1 4 7
M  V30 7 1 5 8
M  V30 8 1 6 9
M  V30 9 1 7 10
M  V30 10 1 9 11
M  V30 11 1 10 12
M  V30 12 1 11 13
M  V30 13 2 11 14
M  V30 14 1 12 15
M  V30 15 1 12 16
M  V30 16 1 13 17
M  V30 17 1 14 18
M  V30 18 1 14 19
M  V30 19 2 18 20
M  V30 20 1 18 21
M  V30 21 1 19 22
M  V30 22 1 22 23
M  V30 23 2 23 24
M  V30 24 1 23 25
M  V30 25 1 24 26
M  V30 26 2 25 27
M  V30 27 2 26 28
M  V30 28 2 7 8
M  V30 29 2 17 19
M  V30 30 1 27 28
M  V30 31 1 3 29
M  V30 32 1 3 30
M  V30 33 1 5 31
M  V30 34 1 6 32
M  V30 35 1 6 33
M  V30 36 1 8 34
M  V30 37 1 9 35
M  V30 38 1 10 36
M  V30 39 1 10 37
M  V30 40 1 13 38
M  V30 41 1 15 39
M  V30 42 1 15 40
M  V30 43 1 15 41
M  V30 44 1 16 42
M  V30 45 1 16 43
M  V30 46 1 16 44
M  V30 47 1 17 45
M  V30 48 1 22 46
M  V30 49 1 22 47
M  V30 50 1 24 48
M  V30 51 1 25 49
M  V30 52 1 26 50
M  V30 53 1 27 51
M  V30 54 1 28 52
M  V30 END BOND
M  V30 END CTAB
M  END
>  <NO.>
197

>  <Name>
-

>  <SMILES>
CN(C)Cc1ccc(SCCNc2[nH]cc(Cc3ccccc3)c2[N+](=O)[O-])o1

>  <logBB>
-0.73

>  <Class>
1

>  <MW>
400.16

>  <nHBAcc>
6

>  <nHBDon>
2

>  <SLogP>
4.37

>  <TopoPSA>
87.34

>  <MMFF94 Energy>
109.11

$$$$
CN(C)Cc1ccc(CSCCNc2[nH]ccc2Cc2ccccc2)o1
Actelion Java MolfileCreator 2.0

  0  0  0  0  0  0              0 V3000
M  V30 BEGIN CTAB
M  V30 COUNTS 53 55 0 0 0
M  V30 BEGIN ATOM
M  V30 1 S -0.8744 -0.8744 1.6699 0
M  V30 2 C 0.163 0.6117 1.4715 0
M  V30 3 C -0.0023 -2.0086 0.5252 0
M  V30 4 C -0.1553 1.6157 2.5166 0
M  V30 5 C 0.1231 -1.5045 -0.9199 0
M  V30 6 O 0.7317 1.7262 3.548 0
M  V30 7 C -1.1862 2.5181 2.6829 0
M  V30 8 N -1.1599 -1.068 -1.4424 0
M  V30 9 C 0.2562 2.6929 4.3857 0
M  V30 10 C -0.9212 3.211 3.8873 0
M  V30 11 C -1.3508 -0.5796 -2.6887 0
M  V30 12 C 1.0665 2.98 5.6049 0
M  V30 13 N -2.6085 -0.1069 -2.9826 0
M  V30 14 C -0.5698 -0.4165 -3.8267 0
M  V30 15 N 0.2873 2.8465 6.8515 0
M  V30 16 C -2.6548 0.3867 -4.2543 0
M  V30 17 C -1.4097 0.2136 -4.8045 0
M  V30 18 C 0.8658 -0.7637 -4.0646 0
M  V30 19 C 1.0585 3.3729 7.9786 0
M  V30 20 C -0.0654 1.4456 7.1043 0
M  V30 21 C 0.893 -1.9198 -5.0398 0
M  V30 22 C 0.3964 -3.1847 -4.6861 0
M  V30 23 C 1.4514 -1.7517 -6.3167 0
M  V30 24 C 0.4494 -4.2492 -5.5876 0
M  V30 25 C 1.5049 -2.8178 -7.2168 0
M  V30 26 C 1.0043 -4.0656 -6.852 0
M  V30 27 H -0.0167 1.049 0.4847 0
M  V30 28 H 1.218 0.3259 1.5355 0
M  V30 29 H 0.9892 -2.2291 0.9339 0
M  V30 30 H -0.5684 -2.9467 0.5304 0
M  V30 31 H 0.8458 -0.682 -0.9597 0
M  V30 32 H 0.5161 -2.3279 -1.5256 0
M  V30 33 H -2.0295 2.6495 2.0196 0
M  V30 34 H -1.9075 -1.0602 -0.7475 0
M  V30 35 H -1.5152 3.9849 4.3532 0
M  V30 36 H 1.9582 2.3401 5.6304 0
M  V30 37 H 1.4232 4.014 5.5082 0
M  V30 38 H -3.3823 -0.1175 -2.3359 0
M  V30 39 H -3.5646 0.8093 -4.6576 0
M  V30 40 H -1.1231 0.4932 -5.8103 0
M  V30 41 H 1.4084 -1.0389 -3.1592 0
M  V30 42 H 1.385 0.1084 -4.4807 0
M  V30 43 H 1.2873 4.4338 7.8274 0
M  V30 44 H 2.0015 2.8335 8.1246 0
M  V30 45 H 0.4778 3.3095 8.9059 0
M  V30 46 H 0.8196 0.8044 7.1868 0
M  V30 47 H -0.7094 1.0463 6.3137 0
M  V30 48 H -0.6379 1.359 8.035 0
M  V30 49 H -0.0518 -3.3411 -3.7075 0
M  V30 50 H 1.8463 -0.7849 -6.6203 0
M  V30 51 H 0.0517 -5.2195 -5.3033 0
M  V30 52 H 1.9357 -2.673 -8.2039 0
M  V30 53 H 1.0426 -4.8938 -7.5542 0
M  V30 END ATOM
M  V30 BEGIN BOND
M  V30 1 1 1 2
M  V30 2 1 1 3
M  V30 3 1 2 4
M  V30 4 1 3 5
M  V30 5 1 4 6
M  V30 6 2 4 7
M  V30 7 1 5 8
M  V30 8 1 6 9
M  V30 9 1 7 10
M  V30 10 1 8 11
M  V30 11 1 9 12
M  V30 12 1 11 13
M  V30 13 2 11 14
M  V30 14 1 12 15
M  V30 15 1 13 16
M  V30 16 1 14 17
M  V30 17 1 14 18
M  V30 18 1 15 19
M  V30 19 1 15 20
M  V30 20 1 18 21
M  V30 21 2 21 22
M  V30 22 1 21 23
M  V30 23 1 22 24
M  V30 24 2 23 25
M  V30 25 2 24 26
M  V30 26 2 9 10
M  V30 27 2 16 17
M  V30 28 1 25 26
M  V30 29 1 2 27
M  V30 30 1 2 28
M  V30 31 1 3 29
M  V30 32 1 3 30
M  V30 33 1 5 31
M  V30 34 1 5 32
M  V30 35 1 7 33
M  V30 36 1 8 34
M  V30 37 1 10 35
M  V30 38 1 12 36
M  V30 39 1 12 37
M  V30 40 1 13 38
M  V30 41 1 16 39
M  V30 42 1 17 40
M  V30 43 1 18 41
M  V30 44 1 18 42
M  V30 45 1 19 43
M  V30 46 1 19 44
M  V30 47 1 19 45
M  V30 48 1 20 46
M  V30 49 1 20 47
M  V30 50 1 20 48
M  V30 51 1 22 49
M  V30 52 1 23 50
M  V30 53 1 24 51
M  V30 54 1 25 52
M  V30 55 1 26 53
M  V30 END BOND
M  V30 END CTAB
M  END
>  <NO.>
198

>  <Name>
b-057

>  <SMILES>
CN(C)Cc1ccc(CSCCNc2[nH]ccc2Cc2ccccc2)o1

>  <logBB>
-0.73

>  <Class>
1

>  <MW>
369.19

>  <nHBAcc>
4

>  <nHBDon>
2

>  <SLogP>
4.61

>  <TopoPSA>
44.2

>  <MMFF94 Energy>
72.07

$$$$
CN(C)Cc1ccc(CSCCNc2cc(Cc3ccccc3)c[nH]2)o1
Actelion Java MolfileCreator 2.0

  0  0  0  0  0  0              0 V3000
M  V30 BEGIN CTAB
M  V30 COUNTS 53 55 0 0 0
M  V30 BEGIN ATOM
M  V30 1 S 2.7044 0.2384 2.6248 0
M  V30 2 C 1.533 1.4979 2.0189 0
M  V30 3 C 3.964 0.3236 1.296 0
M  V30 4 C 0.5141 1.8069 3.0537 0
M  V30 5 C 3.437 0.0827 -0.1244 0
M  V30 6 O -0.7536 1.3622 2.8135 0
M  V30 7 C 0.5537 2.4896 4.2529 0
M  V30 8 N 2.636 -1.1297 -0.1974 0
M  V30 9 C -1.5244 1.7507 3.8703 0
M  V30 10 C -0.759 2.4522 4.7789 0
M  V30 11 C 2.1669 -1.5998 -1.3702 0
M  V30 12 C -2.9639 1.3613 3.8268 0
M  V30 13 N 1.3355 -2.6875 -1.3785 0
M  V30 14 C 2.34 -1.2061 -2.6782 0
M  V30 15 N -3.3871 0.6072 5.0236 0
M  V30 16 C 0.9798 -2.9948 -2.6656 0
M  V30 17 C 1.5797 -2.0807 -3.5136 0
M  V30 18 C -2.7663 -0.721 5.0548 0
M  V30 19 C -4.8445 0.4718 5.0354 0
M  V30 20 C 1.4834 -2.0384 -5.0034 0
M  V30 21 C 0.4555 -0.9846 -5.3389 0
M  V30 22 C -0.9138 -1.2926 -5.3371 0
M  V30 23 C 0.8518 0.3227 -5.6611 0
M  V30 24 C -1.8623 -0.318 -5.6526 0
M  V30 25 C -0.0981 1.2959 -5.9768 0
M  V30 26 C -1.4542 0.9751 -5.9732 0
M  V30 27 H 1.0438 1.1303 1.1118 0
M  V30 28 H 2.0835 2.4109 1.7695 0
M  V30 29 H 4.4663 1.2951 1.3499 0
M  V30 30 H 4.7135 -0.4392 1.5344 0
M  V30 31 H 2.8434 0.943 -0.4555 0
M  V30 32 H 4.2988 0.0064 -0.7989 0
M  V30 33 H 1.4271 2.947 4.6959 0
M  V30 34 H 2.3593 -1.521 0.7031 0
M  V30 35 H -1.1137 2.8693 5.7111 0
M  V30 36 H -3.5394 2.2944 3.7629 0
M  V30 37 H -3.1792 0.795 2.9112 0
M  V30 38 H 1.0346 -3.1838 -0.5533 0
M  V30 39 H 2.9424 -0.3729 -3.0123 0
M  V30 40 H 0.327 -3.8327 -2.8687 0
M  V30 41 H -1.6756 -0.6513 5.1243 0
M  V30 42 H -3.0195 -1.317 4.1703 0
M  V30 43 H -3.0928 -1.2732 5.9436 0
M  V30 44 H -5.2185 -0.0698 4.159 0
M  V30 45 H -5.3232 1.4573 5.0625 0
M  V30 46 H -5.1748 -0.0585 5.9358 0
M  V30 47 H 1.1809 -3.0096 -5.4123 0
M  V30 48 H 2.4547 -1.7932 -5.4485 0
M  V30 49 H -1.2468 -2.296 -5.0816 0
M  V30 50 H 1.906 0.5897 -5.6639 0
M  V30 51 H -2.9198 -0.5681 -5.644 0
M  V30 52 H 0.2204 2.3053 -6.2228 0
M  V30 53 H -2.1933 1.7337 -6.2163 0
M  V30 END ATOM
M  V30 BEGIN BOND
M  V30 1 1 1 2
M  V30 2 1 1 3
M  V30 3 1 2 4
M  V30 4 1 3 5
M  V30 5 1 4 6
M  V30 6 2 4 7
M  V30 7 1 5 8
M  V30 8 1 6 9
M  V30 9 1 7 10
M  V30 10 1 8 11
M  V30 11 1 9 12
M  V30 12 1 11 13
M  V30 13 2 11 14
M  V30 14 1 12 15
M  V30 15 1 13 16
M  V30 16 1 14 17
M  V30 17 1 15 18
M  V30 18 1 15 19
M  V30 19 1 17 20
M  V30 20 1 20 21
M  V30 21 2 21 22
M  V30 22 1 21 23
M  V30 23 1 22 24
M  V30 24 2 23 25
M  V30 25 2 24 26
M  V30 26 2 9 10
M  V30 27 2 16 17
M  V30 28 1 25 26
M  V30 29 1 2 27
M  V30 30 1 2 28
M  V30 31 1 3 29
M  V30 32 1 3 30
M  V30 33 1 5 31
M  V30 34 1 5 32
M  V30 35 1 7 33
M  V30 36 1 8 34
M  V30 37 1 10 35
M  V30 38 1 12 36
M  V30 39 1 12 37
M  V30 40 1 13 38
M  V30 41 1 14 39
M  V30 42 1 16 40
M  V30 43 1 18 41
M  V30 44 1 18 42
M  V30 45 1 18 43
M  V30 46 1 19 44
M  V30 47 1 19 45
M  V30 48 1 19 46
M  V30 49 1 20 47
M  V30 50 1 20 48
M  V30 51 1 22 49
M  V30 52 1 23 50
M  V30 53 1 24 51
M  V30 54 1 25 52
M  V30 55 1 26 53
M  V30 END BOND
M  V30 END CTAB
M  END
>  <NO.>
199

>  <Name>


>  <SMILES>
CN(C)Cc1ccc(CSCCNc2cc(Cc3ccccc3)c[nH]2)o1

>  <logBB>
-0.73

>  <Class>
1

>  <MW>
369.19

>  <nHBAcc>
4

>  <nHBDon>
2

>  <SLogP>
4.61

>  <TopoPSA>
44.2

>  <MMFF94 Energy>
70.557

$$$$
CCC(CO)Nc1nc(NCc2ccccc2)c2ncn(C(C)C)c2n1
Actelion Java MolfileCreator 2.0

  0  0  0  0  0  0              0 V3000
M  V30 BEGIN CTAB
M  V30 COUNTS 52 54 0 0 0
M  V30 BEGIN ATOM
M  V30 1 O 0.0785 -3.853 0.9425 0
M  V30 2 C -0.8078 -4.2116 -0.1166 0
M  V30 3 C -1.841 -3.0939 -0.3867 0 CFG=1
M  V30 4 N -1.1805 -1.9561 -1.0076 0
M  V30 5 C -2.9467 -3.56 -1.3536 0
M  V30 6 C -0.7069 -0.8859 -0.2949 0
M  V30 7 C -3.8805 -4.6022 -0.7547 0
M  V30 8 N 0.1202 -0.0795 -0.9942 0
M  V30 9 N -1.0945 -0.7019 0.9766 0
M  V30 10 C 0.6607 1.022 -0.4077 0
M  V30 11 C -0.5396 0.3825 1.5315 0
M  V30 12 N 1.5085 1.8514 -1.1089 0
M  V30 13 C 0.3243 1.2779 0.9312 0
M  V30 14 N -0.6986 0.8449 2.8094 0
M  V30 15 C 1.8397 1.5824 -2.4814 0
M  V30 16 N 0.6874 2.2783 1.8131 0
M  V30 17 C 0.0556 1.9836 2.93 0
M  V30 18 C -1.5142 0.2263 3.8442 0
M  V30 19 C 2.781 2.6501 -2.9874 0
M  V30 20 C -0.6634 -0.2446 5.0238 0
M  V30 21 C -2.6387 1.1541 4.3048 0
M  V30 22 C 2.2798 3.8211 -3.5745 0
M  V30 23 C 4.1678 2.5071 -2.8343 0
M  V30 24 C 3.1496 4.8173 -4.021 0
M  V30 25 C 5.0359 3.5045 -3.2814 0
M  V30 26 C 4.5267 4.6574 -3.8768 0
M  V30 27 H 0.8321 -4.4648 0.9083 0
M  V30 28 H -0.2092 -4.4086 -1.0133 0
M  V30 29 H -1.2975 -5.1414 0.1837 0
M  V30 30 H -2.3125 -2.8006 0.5593 0
M  V30 31 H -0.7784 -2.0225 -1.9296 0
M  V30 32 H -2.5028 -3.9562 -2.2756 0
M  V30 33 H -3.5526 -2.6938 -1.6507 0
M  V30 34 H -3.3636 -5.5459 -0.5607 0
M  V30 35 H -4.3171 -4.2459 0.1836 0
M  V30 36 H -4.7001 -4.8131 -1.4494 0
M  V30 37 H 1.884 2.6591 -0.628 0
M  V30 38 H 2.318 0.6001 -2.5845 0
M  V30 39 H 0.9382 1.5674 -3.1069 0
M  V30 40 H 0.1097 2.5554 3.8477 0
M  V30 41 H -1.9798 -0.6603 3.3966 0
M  V30 42 H -0.1902 0.596 5.5429 0
M  V30 43 H -1.2774 -0.7858 5.7515 0
M  V30 44 H 0.1323 -0.918 4.6868 0
M  V30 45 H -2.2477 2.0517 4.7964 0
M  V30 46 H -3.2493 1.4794 3.4552 0
M  V30 47 H -3.2957 0.6417 5.0156 0
M  V30 48 H 1.206 3.9623 -3.6801 0
M  V30 49 H 4.575 1.6173 -2.3589 0
M  V30 50 H 2.7518 5.7205 -4.4762 0
M  V30 51 H 6.1091 3.3839 -3.1598 0
M  V30 52 H 5.203 5.4348 -4.2221 0
M  V30 END ATOM
M  V30 BEGIN BOND
M  V30 1 1 1 2
M  V30 2 1 2 3
M  V30 3 1 3 4
M  V30 4 1 3 5
M  V30 5 1 4 6
M  V30 6 1 5 7
M  V30 7 2 6 8
M  V30 8 1 6 9
M  V30 9 1 8 10
M  V30 10 2 9 11
M  V30 11 1 10 12
M  V30 12 2 10 13
M  V30 13 1 11 14
M  V30 14 1 12 15
M  V30 15 1 13 16
M  V30 16 1 14 17
M  V30 17 1 14 18
M  V30 18 1 15 19
M  V30 19 1 18 20
M  V30 20 1 18 21
M  V30 21 2 19 22
M  V30 22 1 19 23
M  V30 23 1 22 24
M  V30 24 2 23 25
M  V30 25 2 24 26
M  V30 26 1 11 13
M  V30 27 2 16 17
M  V30 28 1 25 26
M  V30 29 1 1 27
M  V30 30 1 2 28
M  V30 31 1 2 29
M  V30 32 1 3 30
M  V30 33 1 4 31
M  V30 34 1 5 32
M  V30 35 1 5 33
M  V30 36 1 7 34
M  V30 37 1 7 35
M  V30 38 1 7 36
M  V30 39 1 12 37
M  V30 40 1 15 38
M  V30 41 1 15 39
M  V30 42 1 17 40
M  V30 43 1 18 41
M  V30 44 1 20 42
M  V30 45 1 20 43
M  V30 46 1 20 44
M  V30 47 1 21 45
M  V30 48 1 21 46
M  V30 49 1 21 47
M  V30 50 1 22 48
M  V30 51 1 23 49
M  V30 52 1 24 50
M  V30 53 1 25 51
M  V30 54 1 26 52
M  V30 END BOND
M  V30 BEGIN COLLECTION
M  V30 MDLV30/STERAC1 ATOMS=(1 3)
M  V30 END COLLECTION
M  V30 END CTAB
M  END
>  <NO.>
201

>  <Name>
roscovitine

>  <SMILES>
CCC(CO)Nc1nc(NCc2ccccc2)c2ncn(C(C)C)c2n1

>  <logBB>
-0.72

>  <Class>
1

>  <MW>
354.22

>  <nHBAcc>
6

>  <nHBDon>
3

>  <SLogP>
3.2

>  <TopoPSA>
87.89

>  <MMFF94 Energy>
-20.524

$$$$
CCCC(=O)N(c1ccccc1)C1(COC)CCN(CCn2nnn(CC)c2=O)CC1
Actelion Java MolfileCreator 2.0

  0  0  0  0  0  0              0 V3000
M  V30 BEGIN CTAB
M  V30 COUNTS 65 67 0 0 0
M  V30 BEGIN ATOM
M  V30 1 O -1.5806 1.2643 -4.9855 0
M  V30 2 C -0.5827 0.5737 -5.0908 0
M  V30 3 N -0.3956 -0.7411 -4.7154 0
M  V30 4 N 0.642 0.9121 -5.6292 0
M  V30 5 N 0.8619 -1.1473 -5.0712 0
M  V30 6 C -1.3785 -1.629 -4.1477 0
M  V30 7 N 1.4755 -0.1707 -5.6024 0
M  V30 8 C 1.015 2.1687 -6.2202 0
M  V30 9 C -0.8812 -2.4461 -2.9393 0
M  V30 10 C 0.8677 2.1444 -7.7313 0
M  V30 11 N -0.9714 -1.7759 -1.6217 0
M  V30 12 C -0.6827 -2.7435 -0.5551 0
M  V30 13 C -0.0962 -0.6025 -1.526 0
M  V30 14 C -0.7938 -2.1266 0.8397 0
M  V30 15 C -0.2197 0.0755 -0.1597 0
M  V30 16 C 0.0954 -0.8707 1.0386 0
M  V30 17 N -0.2208 -0.2482 2.3928 0
M  V30 18 C 1.6116 -1.2616 0.9942 0
M  V30 19 C -0.6803 1.0917 2.4288 0
M  V30 20 C -0.0218 -0.961 3.5849 0
M  V30 21 O 2.4375 -0.0894 1.0594 0
M  V30 22 C -2.0534 1.3539 2.4453 0
M  V30 23 C 0.2375 2.1445 2.46 0
M  V30 24 O 0.3734 -2.129 3.6043 0
M  V30 25 C -0.3221 -0.2286 4.8939 0
M  V30 26 C 3.8175 -0.4247 1.1135 0
M  V30 27 C -2.5064 2.6724 2.4921 0
M  V30 28 C -0.2196 3.4614 2.5069 0
M  V30 29 C -0.0429 -1.0943 6.1228 0
M  V30 30 C -1.59 3.7244 2.5235 0
M  V30 31 C -0.344 -0.346 7.4113 0
M  V30 32 H -2.2798 -1.0616 -3.8887 0
M  V30 33 H -1.6614 -2.3206 -4.9504 0
M  V30 34 H 2.0498 2.3897 -5.9385 0
M  V30 35 H 0.3728 2.9537 -5.8065 0
M  V30 36 H -1.5304 -3.331 -2.896 0
M  V30 37 H 0.137 -2.8158 -3.1144 0
M  V30 38 H -0.1657 1.9274 -8.021 0
M  V30 39 H 1.5072 1.3752 -8.1764 0
M  V30 40 H 1.1482 3.1123 -8.1577 0
M  V30 41 H -1.4067 -3.5665 -0.6073 0
M  V30 42 H 0.3084 -3.1929 -0.6912 0
M  V30 43 H -0.3969 0.1462 -2.2644 0
M  V30 44 H 0.9467 -0.8628 -1.7397 0
M  V30 45 H -1.843 -1.8571 1.0255 0
M  V30 46 H -0.5507 -2.908 1.5667 0
M  V30 47 H 0.4325 0.9566 -0.1502 0
M  V30 48 H -1.2483 0.4512 -0.0803 0
M  V30 49 H 1.859 -1.7906 0.0689 0
M  V30 50 H 1.8798 -1.9303 1.8169 0
M  V30 51 H -2.7692 0.5371 2.4154 0
M  V30 52 H 1.3052 1.9417 2.441 0
M  V30 53 H -1.3769 0.066 4.8996 0
M  V30 54 H 0.2984 0.6721 4.9464 0
M  V30 55 H 4.3953 0.5026 1.1472 0
M  V30 56 H 4.1107 -0.9873 0.2222 0
M  V30 57 H 4.0356 -1.0044 2.0155 0
M  V30 58 H -3.5732 2.8802 2.5001 0
M  V30 59 H 0.4927 4.2819 2.5265 0
M  V30 60 H -0.651 -2.0059 6.0844 0
M  V30 61 H 1.0065 -1.4114 6.1262 0
M  V30 62 H -1.9446 4.7517 2.5568 0
M  V30 63 H -0.1378 -0.9833 8.2768 0
M  V30 64 H 0.2742 0.5531 7.4964 0
M  V30 65 H -1.3958 -0.0454 7.4538 0
M  V30 END ATOM
M  V30 BEGIN BOND
M  V30 1 2 1 2
M  V30 2 1 2 3
M  V30 3 1 2 4
M  V30 4 1 3 5
M  V30 5 1 3 6
M  V30 6 1 4 7
M  V30 7 1 4 8
M  V30 8 1 6 9
M  V30 9 1 8 10
M  V30 10 1 9 11
M  V30 11 1 11 12
M  V30 12 1 11 13
M  V30 13 1 12 14
M  V30 14 1 13 15
M  V30 15 1 14 16
M  V30 16 1 16 17
M  V30 17 1 16 18
M  V30 18 1 17 19
M  V30 19 1 17 20
M  V30 20 1 18 21
M  V30 21 2 19 22
M  V30 22 1 19 23
M  V30 23 2 20 24
M  V30 24 1 20 25
M  V30 25 1 21 26
M  V30 26 1 22 27
M  V30 27 2 23 28
M  V30 28 1 25 29
M  V30 29 2 27 30
M  V30 30 1 29 31
M  V30 31 2 5 7
M  V30 32 1 15 16
M  V30 33 1 28 30
M  V30 34 1 6 32
M  V30 35 1 6 33
M  V30 36 1 8 34
M  V30 37 1 8 35
M  V30 38 1 9 36
M  V30 39 1 9 37
M  V30 40 1 10 38
M  V30 41 1 10 39
M  V30 42 1 10 40
M  V30 43 1 12 41
M  V30 44 1 12 42
M  V30 45 1 13 43
M  V30 46 1 13 44
M  V30 47 1 14 45
M  V30 48 1 14 46
M  V30 49 1 15 47
M  V30 50 1 15 48
M  V30 51 1 18 49
M  V30 52 1 18 50
M  V30 53 1 22 51
M  V30 54 1 23 52
M  V30 55 1 25 53
M  V30 56 1 25 54
M  V30 57 1 26 55
M  V30 58 1 26 56
M  V30 59 1 26 57
M  V30 60 1 27 58
M  V30 61 1 28 59
M  V30 62 1 29 60
M  V30 63 1 29 61
M  V30 64 1 30 62
M  V30 65 1 31 63
M  V30 66 1 31 64
M  V30 67 1 31 65
M  V30 END BOND
M  V30 END CTAB
M  END
>  <NO.>
205

>  <Name>
alfentanil, rapifen

>  <SMILES>
CCCC(=O)N(c1ccccc1)C1(COC)CCN(CCn2nnn(CC)c2=O)CC1

>  <logBB>
-0.71

>  <Class>
1

>  <MW>
430.27

>  <nHBAcc>
6

>  <nHBDon>
0

>  <SLogP>
1.77

>  <TopoPSA>
85.49

>  <MMFF94 Energy>
30.901

$$$$
S=c1nc[nH]c2nc[nH]c12
Actelion Java MolfileCreator 2.0

  0  0  0  0  0  0              0 V3000
M  V30 BEGIN CTAB
M  V30 COUNTS 14 15 0 0 0
M  V30 BEGIN ATOM
M  V30 1 S -2.0304 1.7053 1.7053 0
M  V30 2 C -1.458 0.5704 0.6204 0
M  V30 3 N -2.2293 -0.2933 -0.1374 0
M  V30 4 C -0.0459 0.438 0.4181 0
M  V30 5 C -1.6282 -1.1202 -0.9382 0
M  V30 6 N 1.0397 1.0794 0.952 0
M  V30 7 C 0.4976 -0.4659 -0.4508 0
M  V30 8 N -0.2849 -1.2775 -1.1597 0
M  V30 9 C 2.1568 0.5265 0.3764 0
M  V30 10 N 1.8493 -0.4222 -0.4863 0
M  V30 11 H -2.2356 -1.8121 -1.5459 0
M  V30 12 H 1.0168 1.8205 1.6408 0
M  V30 13 H 0.0841 -1.9566 -1.8104 0
M  V30 14 H 3.1569 0.8565 0.6263 0
M  V30 END ATOM
M  V30 BEGIN BOND
M  V30 1 2 1 2
M  V30 2 1 2 3
M  V30 3 1 2 4
M  V30 4 2 3 5
M  V30 5 1 4 6
M  V30 6 2 4 7
M  V30 7 1 5 8
M  V30 8 1 6 9
M  V30 9 1 7 10
M  V30 10 1 7 8
M  V30 11 2 9 10
M  V30 12 1 5 11
M  V30 13 1 6 12
M  V30 14 1 8 13
M  V30 15 1 9 14
M  V30 END BOND
M  V30 END CTAB
M  END
>  <NO.>
206

>  <Name>
6-mercaptopurine

>  <SMILES>
S=c1nc[nH]c2nc[nH]c12

>  <logBB>
-0.71

>  <Class>
1

>  <MW>
152.02

>  <nHBAcc>
3

>  <nHBDon>
2

>  <SLogP>
1.02

>  <TopoPSA>
57.36

>  <MMFF94 Energy>
-78.943

$$$$
C=CC1C[C@@H]2CC[C@H]1C[C@@H]2[C@@H](O)c1ccnc2ccc(OC)cc12
Actelion Java MolfileCreator 2.0

  0  0  0  0  0  0              0 V3000
M  V30 BEGIN CTAB
M  V30 COUNTS 49 52 0 0 0
M  V30 BEGIN ATOM
M  V30 1 O -4.4869 0.8801 -2.4819 0
M  V30 2 C -3.4003 1.6457 -2.1664 0
M  V30 3 C -4.6476 -0.3441 -1.7772 0
M  V30 4 C -2.438 1.3562 -1.198 0
M  V30 5 C -3.2785 2.8162 -2.9034 0
M  V30 6 C -1.3395 2.226 -0.953 0
M  V30 7 C -2.2065 3.6805 -2.6765 0
M  V30 8 C -1.2383 3.4106 -1.7227 0
M  V30 9 C -0.3223 1.9895 0.0178 0
M  V30 10 N -0.2439 4.2991 -1.5822 0
M  V30 11 C 0.7113 2.928 0.1438 0
M  V30 12 C -0.3122 0.7458 0.8998 0 CFG=2
M  V30 13 C 0.705 4.0469 -0.6621 0
M  V30 14 O 0.4081 1.0161 2.1018 0
M  V30 15 C 0.2698 -0.4842 0.1578 0 CFG=2
M  V30 16 C -0.0948 -1.8471 0.8136 0 CFG=2
M  V30 17 C 1.8012 -0.4281 -0.0606 0
M  V30 18 C 0.7501 -2.1251 2.0722 0
M  V30 19 C 0.2322 -2.9533 -0.2138 0
M  V30 20 C 2.4374 -1.8057 0.2217 0 CFG=1
M  V30 21 C 2.2511 -2.1924 1.7124 0
M  V30 22 C 1.7059 -2.8582 -0.6362 0
M  V30 23 C 3.0801 -1.3482 2.6499 0
M  V30 24 C 4.0748 -1.827 3.4083 0
M  V30 25 H -3.8027 -1.0172 -1.9569 0
M  V30 26 H -5.5497 -0.8331 -2.1573 0
M  V30 27 H -4.791 -0.1664 -0.7062 0
M  V30 28 H -2.5273 0.4439 -0.6209 0
M  V30 29 H -4.0172 3.0626 -3.6619 0
M  V30 30 H -2.125 4.5921 -3.2644 0
M  V30 31 H 1.5132 2.7921 0.8633 0
M  V30 32 H -1.3442 0.5431 1.2097 0
M  V30 33 H 1.4894 4.7945 -0.5869 0
M  V30 34 H -0.0971 0.6287 2.8358 0
M  V30 35 H -0.1923 -0.4992 -0.84 0
M  V30 36 H -1.1619 -1.8825 1.0606 0
M  V30 37 H 2.0003 -0.1401 -1.1011 0
M  V30 38 H 2.2794 0.34 0.5543 0
M  V30 39 H 0.5437 -1.3875 2.8527 0
M  V30 40 H 0.4475 -3.0897 2.502 0
M  V30 41 H 0.0307 -3.9414 0.2179 0
M  V30 42 H -0.4134 -2.8627 -1.0956 0
M  V30 43 H 3.501 -1.7856 -0.043 0
M  V30 44 H 2.5717 -3.2383 1.8257 0
M  V30 45 H 1.7725 -2.59 -1.6976 0
M  V30 46 H 2.1852 -3.8387 -0.5309 0
M  V30 47 H 2.8459 -0.2864 2.7124 0
M  V30 48 H 4.355 -2.8754 3.3911 0
M  V30 49 H 4.6356 -1.1693 4.0657 0
M  V30 END ATOM
M  V30 BEGIN BOND
M  V30 1 1 1 2
M  V30 2 1 1 3
M  V30 3 2 2 4
M  V30 4 1 2 5
M  V30 5 1 4 6
M  V30 6 2 5 7
M  V30 7 1 6 8
M  V30 8 2 6 9
M  V30 9 2 8 10
M  V30 10 1 9 11
M  V30 11 1 9 12
M  V30 12 1 10 13
M  V30 13 1 12 14
M  V30 14 1 12 15
M  V30 15 1 15 16
M  V30 16 1 15 17
M  V30 17 1 16 18
M  V30 18 1 16 19
M  V30 19 1 17 20
M  V30 20 1 18 21
M  V30 21 1 19 22
M  V30 22 1 21 23
M  V30 23 2 23 24
M  V30 24 1 7 8
M  V30 25 2 11 13
M  V30 26 1 20 21
M  V30 27 1 20 22
M  V30 28 1 3 25
M  V30 29 1 3 26
M  V30 30 1 3 27
M  V30 31 1 4 28
M  V30 32 1 5 29
M  V30 33 1 7 30
M  V30 34 1 11 31
M  V30 35 1 12 32
M  V30 36 1 13 33
M  V30 37 1 14 34
M  V30 38 1 15 35
M  V30 39 1 16 36
M  V30 40 1 17 37
M  V30 41 1 17 38
M  V30 42 1 18 39
M  V30 43 1 18 40
M  V30 44 1 19 41
M  V30 45 1 19 42
M  V30 46 1 20 43
M  V30 47 1 21 44
M  V30 48 1 22 45
M  V30 49 1 22 46
M  V30 50 1 23 47
M  V30 51 1 24 48
M  V30 52 1 24 49
M  V30 END BOND
M  V30 BEGIN COLLECTION
M  V30 MDLV30/STEABS ATOMS=(4 12 15 16 20)
M  V30 END COLLECTION
M  V30 END CTAB
M  END
>  <NO.>
209

>  <Name>
quinidine

>  <SMILES>
C=CC1C[C@@H]2CC[C@H]1C[C@@H]2[C@@H](O)c1ccnc2ccc(OC)cc12

>  <logBB>
-0.7

>  <Class>
1

>  <MW>
323.19

>  <nHBAcc>
3

>  <nHBDon>
1

>  <SLogP>
4.52

>  <TopoPSA>
42.35

>  <MMFF94 Energy>
80.399

$$$$
CC1CN(C2CCC(C#N)(c3ccc(F)cc3)CC2)CCC1(C(=O)O)c1ccccc1
Actelion Java MolfileCreator 2.0

  0  0  0  0  0  0              0 V3000
M  V30 BEGIN CTAB
M  V30 COUNTS 60 63 0 0 0
M  V30 BEGIN ATOM
M  V30 1 F -2.7357 -7.5772 -4.2669 0
M  V30 2 C -2.1999 -6.5523 -3.5918 0
M  V30 3 C -2.2648 -5.2727 -4.1224 0
M  V30 4 C -1.582 -6.7815 -2.3728 0
M  V30 5 C -1.7062 -4.1983 -3.4214 0
M  V30 6 C -1.024 -5.7098 -1.6707 0
M  V30 7 C -1.0797 -4.3893 -2.1742 0
M  V30 8 C -0.4461 -3.2307 -1.3632 0
M  V30 9 C 1.0156 -3.4944 -1.2186 0
M  V30 10 C -0.6236 -1.8402 -2.0388 0
M  V30 11 C -1.1086 -3.1763 0.0434 0
M  V30 12 N 2.154 -3.6837 -1.0882 0
M  V30 13 C -0.15 -0.6609 -1.179 0
M  V30 14 C -0.656 -1.99 0.9042 0
M  V30 15 C -0.8596 -0.6454 0.1847 0
M  V30 16 N -0.5082 0.4778 1.0752 0
M  V30 17 C 0.9304 0.6663 1.3019 0
M  V30 18 C -1.132 1.7363 0.6461 0
M  V30 19 C 1.201 1.721 2.401 0
M  V30 20 C -0.9466 2.8258 1.7032 0
M  V30 21 C 0.5532 3.104 2.0183 0
M  V30 22 C 0.7287 1.159 3.7617 0
M  V30 23 C 1.2312 3.8495 0.8321 0
M  V30 24 C 0.623 4.0498 3.2299 0
M  V30 25 C 2.4861 3.4857 0.3134 0
M  V30 26 C 0.617 4.9908 0.2733 0
M  V30 27 O -0.3007 4.6808 3.7217 0
M  V30 28 O 1.869 4.1928 3.7328 0
M  V30 29 C 3.0712 4.1909 -0.7444 0
M  V30 30 C 1.2016 5.6964 -0.7824 0
M  V30 31 C 2.4265 5.2913 -1.297 0
M  V30 32 H -2.7471 -5.1163 -5.0827 0
M  V30 33 H -1.5315 -7.7909 -1.9768 0
M  V30 34 H -1.7749 -3.218 -3.8859 0
M  V30 35 H -0.5314 -5.9266 -0.7234 0
M  V30 36 H -1.6851 -1.6699 -2.2653 0
M  V30 37 H -0.0852 -1.8056 -2.9956 0
M  V30 38 H -2.2005 -3.1224 -0.0718 0
M  V30 39 H -0.9072 -4.093 0.6125 0
M  V30 40 H 0.9371 -0.722 -1.0561 0
M  V30 41 H -0.3537 0.2676 -1.7245 0
M  V30 42 H 0.394 -2.1366 1.1801 0
M  V30 43 H -1.2281 -1.9989 1.841 0
M  V30 44 H -1.9403 -0.5807 -0.0086 0
M  V30 45 H 1.4306 0.9565 0.3725 0
M  V30 46 H 1.3977 -0.2723 1.619 0
M  V30 47 H -0.7347 2.0727 -0.3187 0
M  V30 48 H -2.2111 1.5892 0.514 0
M  V30 49 H 2.2871 1.8354 2.5041 0
M  V30 50 H -1.4726 2.52 2.6182 0
M  V30 51 H -1.4784 3.7269 1.3784 0
M  V30 52 H 1.2088 0.1935 3.9585 0
M  V30 53 H -0.3524 0.9996 3.8021 0
M  V30 54 H 1.0031 1.8203 4.5888 0
M  V30 55 H 3.0532 2.6529 0.7178 0
M  V30 56 H -0.3256 5.3683 0.6654 0
M  V30 57 H 1.7609 4.8566 4.4453 0
M  V30 58 H 4.04 3.8814 -1.1289 0
M  V30 59 H 0.7011 6.5697 -1.1934 0
M  V30 60 H 2.885 5.8401 -2.1148 0
M  V30 END ATOM
M  V30 BEGIN BOND
M  V30 1 1 1 2
M  V30 2 2 2 3
M  V30 3 1 2 4
M  V30 4 1 3 5
M  V30 5 2 4 6
M  V30 6 2 5 7
M  V30 7 1 7 8
M  V30 8 1 8 9
M  V30 9 1 8 10
M  V30 10 1 8 11
M  V30 11 3 9 12
M  V30 12 1 10 13
M  V30 13 1 11 14
M  V30 14 1 13 15
M  V30 15 1 15 16
M  V30 16 1 16 17
M  V30 17 1 16 18
M  V30 18 1 17 19
M  V30 19 1 18 20
M  V30 20 1 19 21
M  V30 21 1 19 22
M  V30 22 1 21 23
M  V30 23 1 21 24
M  V30 24 2 23 25
M  V30 25 1 23 26
M  V30 26 2 24 27
M  V30 27 1 24 28
M  V30 28 1 25 29
M  V30 29 2 26 30
M  V30 30 2 29 31
M  V30 31 1 6 7
M  V30 32 1 14 15
M  V30 33 1 20 21
M  V30 34 1 30 31
M  V30 35 1 3 32
M  V30 36 1 4 33
M  V30 37 1 5 34
M  V30 38 1 6 35
M  V30 39 1 10 36
M  V30 40 1 10 37
M  V30 41 1 11 38
M  V30 42 1 11 39
M  V30 43 1 13 40
M  V30 44 1 13 41
M  V30 45 1 14 42
M  V30 46 1 14 43
M  V30 47 1 15 44
M  V30 48 1 17 45
M  V30 49 1 17 46
M  V30 50 1 18 47
M  V30 51 1 18 48
M  V30 52 1 19 49
M  V30 53 1 20 50
M  V30 54 1 20 51
M  V30 55 1 22 52
M  V30 56 1 22 53
M  V30 57 1 22 54
M  V30 58 1 25 55
M  V30 59 1 26 56
M  V30 60 1 28 57
M  V30 61 1 29 58
M  V30 62 1 30 59
M  V30 63 1 31 60
M  V30 END BOND
M  V30 END CTAB
M  END
>  <NO.>
211

>  <Name>
levocabastine hydrochloride

>  <SMILES>
CC1CN(C2CCC(C#N)(c3ccc(F)cc3)CC2)CCC1(C(=O)O)c1ccccc1

>  <logBB>
-0.7

>  <Class>
1

>  <MW>
420.22

>  <nHBAcc>
3

>  <nHBDon>
1

>  <SLogP>
4.89

>  <TopoPSA>
64.33

>  <MMFF94 Energy>
76.074

$$$$
CC1N=C(N)Nc2cccc(Cl)c21
Actelion Java MolfileCreator 2.0

  0  0  0  0  0  0              0 V3000
M  V30 BEGIN CTAB
M  V30 COUNTS 23 24 0 0 0
M  V30 BEGIN ATOM
M  V30 1 Cl 1.6802 -2.5612 -1.6802 0
M  V30 2 C 0.2332 -1.7407 -1.2109 0
M  V30 3 C 0.253 -0.5503 -0.4665 0
M  V30 4 C -0.9803 -2.3005 -1.6236 0
M  V30 5 C -0.9657 0.0847 -0.1762 0
M  V30 6 C 1.5247 0.0813 0.0728 0 CFG=1
M  V30 7 C -2.1846 -1.6769 -1.3065 0
M  V30 8 N -0.9391 1.321 0.4713 0
M  V30 9 C -2.1761 -0.4821 -0.5905 0
M  V30 10 N 1.4199 1.4852 0.5332 0
M  V30 11 C 2.0738 -0.7138 1.2642 0
M  V30 12 C 0.2355 1.9518 0.7119 0
M  V30 13 N 0.0895 3.2086 1.1776 0
M  V30 14 H -0.9913 -3.2237 -2.1979 0
M  V30 15 H 2.2691 0.0865 -0.732 0
M  V30 16 H -3.1258 -2.1133 -1.6306 0
M  V30 17 H -1.8096 1.7444 0.7409 0
M  V30 18 H -3.1197 0.0101 -0.3712 0
M  V30 19 H 3.0055 -0.2664 1.6286 0
M  V30 20 H 1.3627 -0.7141 2.099 0
M  V30 21 H 2.2839 -1.7564 1.011 0
M  V30 22 H -0.7858 3.7032 1.1919 0
M  V30 23 H 0.9407 3.7252 1.3569 0
M  V30 END ATOM
M  V30 BEGIN BOND
M  V30 1 1 1 2
M  V30 2 2 2 3
M  V30 3 1 2 4
M  V30 4 1 3 5
M  V30 5 1 3 6
M  V30 6 2 4 7
M  V30 7 1 5 8
M  V30 8 2 5 9
M  V30 9 1 6 10
M  V30 10 1 6 11
M  V30 11 1 8 12
M  V30 12 1 12 13
M  V30 13 1 7 9
M  V30 14 2 10 12
M  V30 15 1 4 14
M  V30 16 1 6 15
M  V30 17 1 7 16
M  V30 18 1 8 17
M  V30 19 1 9 18
M  V30 20 1 11 19
M  V30 21 1 11 20
M  V30 22 1 11 21
M  V30 23 1 13 22
M  V30 24 1 13 23
M  V30 END BOND
M  V30 BEGIN COLLECTION
M  V30 MDLV30/STERAC1 ATOMS=(1 6)
M  V30 END COLLECTION
M  V30 END CTAB
M  END
>  <NO.>
212

>  <Name>
5-chloro-4-methyl-1,4-dihydroquinazolin-2-amine

>  <SMILES>
CC1N=C(N)Nc2cccc(Cl)c21

>  <logBB>
-0.7

>  <Class>
1

>  <MW>
195.06

>  <nHBAcc>
3

>  <nHBDon>
2

>  <SLogP>
2.14

>  <TopoPSA>
50.41

>  <MMFF94 Energy>
-84.9

$$$$
N#Cc1ccc(C(=O)N2CCN(c3ccc(OC4CCN(C5CCC5)CC4)cc3)C(=O)C2)cc1
Actelion Java MolfileCreator 2.0

  0  0  0  0  0  0              0 V3000
M  V30 BEGIN CTAB
M  V30 COUNTS 64 68 0 0 0
M  V30 BEGIN ATOM
M  V30 1 O 3.0533 -0.7225 -1.9275 0
M  V30 2 C 2.8587 -1.7278 -1.2419 0
M  V30 3 N 1.8152 -1.8572 -0.3201 0
M  V30 4 C 3.8721 -2.8847 -1.268 0
M  V30 5 C 0.8569 -0.8256 -0.1406 0
M  V30 6 C 1.7553 -3.0226 0.5549 0
M  V30 7 N 3.4223 -4.2066 -0.8224 0
M  V30 8 C 0.1979 -0.2716 -1.2419 0
M  V30 9 C 0.5416 -0.3628 1.1395 0
M  V30 10 C 2.0994 -4.297 -0.2098 0
M  V30 11 C 4.3103 -5.2635 -0.9828 0
M  V30 12 C -0.7653 0.7308 -1.07 0
M  V30 13 C -0.4212 0.6366 1.3076 0
M  V30 14 O 5.4773 -5.1118 -1.3327 0
M  V30 15 C 3.847 -6.643 -0.7178 0
M  V30 16 C -1.0821 1.1879 0.2071 0
M  V30 17 C 2.7606 -7.1808 -1.4167 0
M  V30 18 C 4.5581 -7.4273 0.1958 0
M  V30 19 O -1.9905 2.1567 0.524 0
M  V30 20 C 2.361 -8.497 -1.1687 0
M  V30 21 C 4.1563 -8.7427 0.4422 0
M  V30 22 C -2.7564 2.7745 -0.5202 0
M  V30 23 C 3.0547 -9.2792 -0.236 0
M  V30 24 C -4.0418 3.3097 0.1166 0
M  V30 25 C -1.9785 3.9292 -1.1541 0
M  V30 26 C 2.6424 -10.6293 0.017 0
M  V30 27 C -3.763 4.4854 1.0541 0
M  V30 28 C -1.7739 5.0793 -0.1667 0
M  V30 29 N 2.301 -11.7184 0.2253 0
M  V30 30 N -3.0686 5.5728 0.3397 0
M  V30 31 C -2.8292 6.6888 1.2717 0
M  V30 32 C -2.4084 7.9604 0.4846 0
M  V30 33 C -4.1598 7.4366 1.5616 0
M  V30 34 C -3.3593 8.7473 1.4111 0
M  V30 35 H 4.7166 -2.5944 -0.6314 0
M  V30 36 H 4.2445 -2.9855 -2.2943 0
M  V30 37 H 2.4733 -2.8632 1.3685 0
M  V30 38 H 0.7515 -3.1253 0.9829 0
M  V30 39 H 0.4317 -0.6071 -2.2496 0
M  V30 40 H 1.0483 -0.7526 2.0172 0
M  V30 41 H 1.3802 -4.4557 -1.0218 0
M  V30 42 H 2.0498 -5.1545 0.4673 0
M  V30 43 H -1.2335 1.1348 -1.9607 0
M  V30 44 H -0.6536 0.9955 2.3076 0
M  V30 45 H 2.2387 -6.5893 -2.1651 0
M  V30 46 H 5.4268 -7.0169 0.7073 0
M  V30 47 H 1.5154 -8.9118 -1.7154 0
M  V30 48 H 4.7137 -9.3463 1.1569 0
M  V30 49 H -3.0528 2.0349 -1.2727 0
M  V30 50 H -4.7368 3.6279 -0.6707 0
M  V30 51 H -4.5344 2.5137 0.688 0
M  V30 52 H -2.5238 4.2963 -2.0328 0
M  V30 53 H -0.9955 3.5935 -1.5011 0
M  V30 54 H -4.7281 4.8387 1.436 0
M  V30 55 H -3.1813 4.1477 1.9222 0
M  V30 56 H -1.1221 4.7589 0.657 0
M  V30 57 H -1.2457 5.8797 -0.6981 0
M  V30 58 H -2.2199 6.4737 2.1582 0
M  V30 59 H -2.7123 7.9957 -0.5692 0
M  V30 60 H -1.3526 8.2356 0.5572 0
M  V30 61 H -4.9472 7.3273 0.8051 0
M  V30 62 H -4.5942 7.2661 2.5506 0
M  V30 63 H -2.8902 9.0899 2.3406 0
M  V30 64 H -3.8926 9.582 0.9498 0
M  V30 END ATOM
M  V30 BEGIN BOND
M  V30 1 2 1 2
M  V30 2 1 2 3
M  V30 3 1 2 4
M  V30 4 1 3 5
M  V30 5 1 3 6
M  V30 6 1 4 7
M  V30 7 2 5 8
M  V30 8 1 5 9
M  V30 9 1 6 10
M  V30 10 1 7 11
M  V30 11 1 8 12
M  V30 12 2 9 13
M  V30 13 2 11 14
M  V30 14 1 11 15
M  V30 15 2 12 16
M  V30 16 2 15 17
M  V30 17 1 15 18
M  V30 18 1 16 19
M  V30 19 1 17 20
M  V30 20 2 18 21
M  V30 21 1 19 22
M  V30 22 2 20 23
M  V30 23 1 22 24
M  V30 24 1 22 25
M  V30 25 1 23 26
M  V30 26 1 24 27
M  V30 27 1 25 28
M  V30 28 3 26 29
M  V30 29 1 27 30
M  V30 30 1 30 31
M  V30 31 1 31 32
M  V30 32 1 31 33
M  V30 33 1 32 34
M  V30 34 1 7 10
M  V30 35 1 13 16
M  V30 36 1 21 23
M  V30 37 1 28 30
M  V30 38 1 33 34
M  V30 39 1 4 35
M  V30 40 1 4 36
M  V30 41 1 6 37
M  V30 42 1 6 38
M  V30 43 1 8 39
M  V30 44 1 9 40
M  V30 45 1 10 41
M  V30 46 1 10 42
M  V30 47 1 12 43
M  V30 48 1 13 44
M  V30 49 1 17 45
M  V30 50 1 18 46
M  V30 51 1 20 47
M  V30 52 1 21 48
M  V30 53 1 22 49
M  V30 54 1 24 50
M  V30 55 1 24 51
M  V30 56 1 25 52
M  V30 57 1 25 53
M  V30 58 1 27 54
M  V30 59 1 27 55
M  V30 60 1 28 56
M  V30 61 1 28 57
M  V30 62 1 31 58
M  V30 63 1 32 59
M  V30 64 1 32 60
M  V30 65 1 33 61
M  V30 66 1 33 62
M  V30 67 1 34 63
M  V30 68 1 34 64
M  V30 END BOND
M  V30 END CTAB
M  END
>  <NO.>
217

>  <Name>
chembl239099

>  <SMILES>
N#Cc1ccc(C(=O)N2CCN(c3ccc(OC4CCN(C5CCC5)CC4)cc3)C(=O)C2)cc1

>  <logBB>
-0.7

>  <Class>
1

>  <MW>
458.23

>  <nHBAcc>
5

>  <nHBDon>
0

>  <SLogP>
3.44

>  <TopoPSA>
76.88

>  <MMFF94 Energy>
122.6

$$$$
Cc1nc2n(c(=O)c1CCN1CCC(c3noc4cc(F)ccc34)CC1)CCCC2O
Actelion Java MolfileCreator 2.0

  0  0  0  0  0  0              0 V3000
M  V30 BEGIN CTAB
M  V30 COUNTS 58 62 0 0 0
M  V30 BEGIN ATOM
M  V30 1 F 7.4973 -3.1388 -2.6554 0
M  V30 2 C 6.2296 -2.705 -2.678 0
M  V30 3 C 5.9843 -1.3549 -2.9176 0
M  V30 4 C 5.2007 -3.621 -2.4599 0
M  V30 5 C 4.6448 -0.9822 -2.9252 0
M  V30 6 C 3.8606 -3.2084 -2.4752 0
M  V30 7 O 4.1633 0.2703 -3.1327 0
M  V30 8 C 3.5861 -1.8498 -2.7168 0
M  V30 9 N 2.7821 0.2542 -3.0632 0
M  V30 10 C 2.4361 -1.0176 -2.8179 0
M  V30 11 C 0.9952 -1.4294 -2.6671 0
M  V30 12 C 0.4954 -1.2672 -1.2264 0
M  V30 13 C 0.0391 -0.748 -3.656 0
M  V30 14 C 0.0826 0.1692 -0.9084 0
M  V30 15 C -0.4046 0.6486 -3.2134 0
M  V30 16 N -0.9568 0.6233 -1.8485 0
M  V30 17 C -1.4648 1.9599 -1.4706 0
M  V30 18 C -2.7885 1.8826 -0.6848 0
M  V30 19 C -2.6696 1.3418 0.7165 0
M  V30 20 C -2.0877 2.2698 1.722 0
M  V30 21 C -3.0631 0.1314 1.152 0
M  V30 22 O -1.7816 3.4174 1.4002 0
M  V30 23 N -1.9366 1.7737 3.002 0
M  V30 24 N -2.9451 -0.2801 2.4556 0
M  V30 25 C -3.6422 -0.9286 0.2494 0
M  V30 26 C -2.4098 0.5266 3.3171 0
M  V30 27 C -1.3913 2.6849 4.0011 0
M  V30 28 C -2.2396 -0.0098 4.7441 0 CFG=1
M  V30 29 C -0.8905 2.0081 5.2646 0
M  V30 30 O -1.1511 -0.9357 4.7243 0
M  V30 31 C -1.9589 1.0608 5.7824 0
M  V30 32 H 6.7836 -0.6461 -3.085 0
M  V30 33 H 5.4497 -4.6628 -2.2767 0
M  V30 34 H 3.0623 -3.9242 -2.3038 0
M  V30 35 H 0.965 -2.5036 -2.8995 0
M  V30 36 H 1.2559 -1.598 -0.5085 0
M  V30 37 H -0.3752 -1.9209 -1.0794 0
M  V30 38 H -0.8586 -1.3744 -3.7516 0
M  V30 39 H 0.4848 -0.694 -4.6568 0
M  V30 40 H -0.292 0.1811 0.1191 0
M  V30 41 H 0.9559 0.8334 -0.9301 0
M  V30 42 H 0.4187 1.3678 -3.2921 0
M  V30 43 H -1.1807 0.9798 -3.9153 0
M  V30 44 H -1.6936 2.5395 -2.3754 0
M  V30 45 H -0.7085 2.5458 -0.9332 0
M  V30 46 H -3.2156 2.8936 -0.6324 0
M  V30 47 H -3.5234 1.3184 -1.2703 0
M  V30 48 H -4.724 -0.9997 0.4015 0
M  V30 49 H -3.4535 -0.752 -0.8116 0
M  V30 50 H -3.2002 -1.9042 0.4825 0
M  V30 51 H -0.5788 3.2708 3.5549 0
M  V30 52 H -2.1911 3.3945 4.2496 0
M  V30 53 H -3.1383 -0.5706 5.0245 0
M  V30 54 H -0.6536 2.7633 6.0221 0
M  V30 55 H 0.0348 1.4586 5.0548 0
M  V30 56 H -1.3782 -1.5879 4.0335 0
M  V30 57 H -2.8751 1.6233 5.9986 0
M  V30 58 H -1.6153 0.6049 6.7179 0
M  V30 END ATOM
M  V30 BEGIN BOND
M  V30 1 1 1 2
M  V30 2 2 2 3
M  V30 3 1 2 4
M  V30 4 1 3 5
M  V30 5 2 4 6
M  V30 6 1 5 7
M  V30 7 2 5 8
M  V30 8 1 7 9
M  V30 9 1 8 10
M  V30 10 1 10 11
M  V30 11 1 11 12
M  V30 12 1 11 13
M  V30 13 1 12 14
M  V30 14 1 13 15
M  V30 15 1 14 16
M  V30 16 1 16 17
M  V30 17 1 17 18
M  V30 18 1 18 19
M  V30 19 1 19 20
M  V30 20 2 19 21
M  V30 21 2 20 22
M  V30 22 1 20 23
M  V30 23 1 21 24
M  V30 24 1 21 25
M  V30 25 1 23 26
M  V30 26 1 23 27
M  V30 27 1 26 28
M  V30 28 1 27 29
M  V30 29 1 28 30
M  V30 30 1 28 31
M  V30 31 1 6 8
M  V30 32 2 9 10
M  V30 33 1 15 16
M  V30 34 2 24 26
M  V30 35 1 29 31
M  V30 36 1 3 32
M  V30 37 1 4 33
M  V30 38 1 6 34
M  V30 39 1 11 35
M  V30 40 1 12 36
M  V30 41 1 12 37
M  V30 42 1 13 38
M  V30 43 1 13 39
M  V30 44 1 14 40
M  V30 45 1 14 41
M  V30 46 1 15 42
M  V30 47 1 15 43
M  V30 48 1 17 44
M  V30 49 1 17 45
M  V30 50 1 18 46
M  V30 51 1 18 47
M  V30 52 1 25 48
M  V30 53 1 25 49
M  V30 54 1 25 50
M  V30 55 1 27 51
M  V30 56 1 27 52
M  V30 57 1 28 53
M  V30 58 1 29 54
M  V30 59 1 29 55
M  V30 60 1 30 56
M  V30 61 1 31 57
M  V30 62 1 31 58
M  V30 END BOND
M  V30 BEGIN COLLECTION
M  V30 MDLV30/STERAC1 ATOMS=(1 28)
M  V30 END COLLECTION
M  V30 END CTAB
M  END
>  <NO.>
218

>  <Name>
paliperidone

>  <SMILES>
Cc1nc2n(c(=O)c1CCN1CCC(c3noc4cc(F)ccc34)CC1)CCCC2O

>  <logBB>
-0.7

>  <Class>
1

>  <MW>
426.21

>  <nHBAcc>
6

>  <nHBDon>
1

>  <SLogP>
3.08

>  <TopoPSA>
84.39

>  <MMFF94 Energy>
4.3699

$$$$
CN1C2CCCC1CC(NC(=O)c1nn(C)c3ccccc13)C2
Actelion Java MolfileCreator 2.0

  0  0  0  0  0  0              0 V3000
M  V30 BEGIN CTAB
M  V30 COUNTS 47 50 0 0 0
M  V30 BEGIN ATOM
M  V30 1 O 1.5944 -1.3551 -0.5578 0
M  V30 2 C 1.3073 -0.387 0.14 0
M  V30 3 N 0.1417 0.336 -0.0046 0
M  V30 4 C 2.1646 0.1194 1.2242 0
M  V30 5 C -0.8988 0.0024 -0.965 0
M  V30 6 N 1.7893 1.1772 1.9781 0
M  V30 7 C 3.4343 -0.3841 1.632 0
M  V30 8 C -1.8074 -1.1009 -0.4127 0
M  V30 9 C -1.6809 1.257 -1.3629 0
M  V30 10 N 2.81 1.3362 2.8426 0
M  V30 11 C 3.8284 0.4312 2.6895 0
M  V30 12 C 4.2846 -1.431 1.2251 0
M  V30 13 C -3.133 -1.2645 -1.1766 0
M  V30 14 C -3.0121 0.9673 -2.0785 0
M  V30 15 C 2.7538 2.3982 3.8198 0
M  V30 16 C 5.0419 0.2528 3.3693 0
M  V30 17 C 5.4994 -1.6231 1.8927 0
M  V30 18 N -3.8503 0.007 -1.348 0
M  V30 19 C -2.9694 -1.9075 -2.5677 0
M  V30 20 C -2.8401 0.4477 -3.5193 0
M  V30 21 C 5.8698 -0.7924 2.9483 0
M  V30 22 C -4.3926 0.5384 -0.1016 0
M  V30 23 C -2.3464 -0.9946 -3.6228 0
M  V30 24 H 0.0164 1.0849 0.6727 0
M  V30 25 H -0.3754 -0.3804 -1.844 0
M  V30 26 H -1.2642 -2.0545 -0.4031 0
M  V30 27 H -2.0322 -0.8866 0.641 0
M  V30 28 H -1.8893 1.8541 -0.4647 0
M  V30 29 H -1.0486 1.8958 -1.9929 0
M  V30 30 H 4.0022 -2.0833 0.4022 0
M  V30 31 H -3.762 -1.9548 -0.5982 0
M  V30 32 H -3.552 1.9201 -2.1648 0
M  V30 33 H 1.8273 2.9643 3.6927 0
M  V30 34 H 2.7817 1.9513 4.8166 0
M  V30 35 H 3.6133 3.0551 3.6657 0
M  V30 36 H 5.337 0.8957 4.1921 0
M  V30 37 H 6.1585 -2.4302 1.5815 0
M  V30 38 H -2.387 -2.8336 -2.4932 0
M  V30 39 H -3.9654 -2.2033 -2.9259 0
M  V30 40 H -3.8162 0.5047 -4.021 0
M  V30 41 H -2.1703 1.1067 -4.0845 0
M  V30 42 H 6.8189 -0.9599 3.4531 0
M  V30 43 H -5.0749 -0.1867 0.3556 0
M  V30 44 H -4.9853 1.4387 -0.2984 0
M  V30 45 H -3.6265 0.7933 0.6367 0
M  V30 46 H -2.5729 -1.3859 -4.6222 0
M  V30 47 H -1.2563 -1.0253 -3.5504 0
M  V30 END ATOM
M  V30 BEGIN BOND
M  V30 1 2 1 2
M  V30 2 1 2 3
M  V30 3 1 2 4
M  V30 4 1 3 5
M  V30 5 2 4 6
M  V30 6 1 4 7
M  V30 7 1 5 8
M  V30 8 1 5 9
M  V30 9 1 6 10
M  V30 10 2 7 11
M  V30 11 1 7 12
M  V30 12 1 8 13
M  V30 13 1 9 14
M  V30 14 1 10 15
M  V30 15 1 11 16
M  V30 16 2 12 17
M  V30 17 1 13 18
M  V30 18 1 13 19
M  V30 19 1 14 20
M  V30 20 2 16 21
M  V30 21 1 18 22
M  V30 22 1 19 23
M  V30 23 1 10 11
M  V30 24 1 14 18
M  V30 25 1 17 21
M  V30 26 1 20 23
M  V30 27 1 3 24
M  V30 28 1 5 25
M  V30 29 1 8 26
M  V30 30 1 8 27
M  V30 31 1 9 28
M  V30 32 1 9 29
M  V30 33 1 12 30
M  V30 34 1 13 31
M  V30 35 1 14 32
M  V30 36 1 15 33
M  V30 37 1 15 34
M  V30 38 1 15 35
M  V30 39 1 16 36
M  V30 40 1 17 37
M  V30 41 1 19 38
M  V30 42 1 19 39
M  V30 43 1 20 40
M  V30 44 1 20 41
M  V30 45 1 21 42
M  V30 46 1 22 43
M  V30 47 1 22 44
M  V30 48 1 22 45
M  V30 49 1 23 46
M  V30 50 1 23 47
M  V30 END BOND
M  V30 END CTAB
M  END
>  <NO.>
219

>  <Name>
granisetron

>  <SMILES>
CN1C2CCCC1CC(NC(=O)c1nn(C)c3ccccc13)C2

>  <logBB>
-0.69

>  <Class>
1

>  <MW>
312.2

>  <nHBAcc>
3

>  <nHBDon>
1

>  <SLogP>
2.32

>  <TopoPSA>
50.16

>  <MMFF94 Energy>
49.869

$$$$
CNC(=O)c1c(NCC2CCC3(CCC3)CC2)nc(C#N)nc1OCC1CCNCC1
Actelion Java MolfileCreator 2.0

  0  0  0  0  0  0              0 V3000
M  V30 BEGIN CTAB
M  V30 COUNTS 65 68 0 0 0
M  V30 BEGIN ATOM
M  V30 1 O 2.1484 -1.5115 -1.1931 0
M  V30 2 C 1.2207 -1.3987 -0.4021 0
M  V30 3 N -0.0232 -1.9603 -0.6061 0
M  V30 4 C 1.3748 -0.6049 0.8314 0
M  V30 5 C -0.2978 -2.7648 -1.7688 0
M  V30 6 C 2.4501 -0.8117 1.6803 0
M  V30 7 C 0.4705 0.3876 1.1992 0
M  V30 8 O 3.3462 -1.8165 1.3765 0
M  V30 9 N 2.6392 -0.1169 2.8195 0
M  V30 10 N 0.6265 1.0813 2.3442 0
M  V30 11 N -0.6609 0.6562 0.4348 0
M  V30 12 C 4.3789 -2.0108 2.3392 0
M  V30 13 C 1.7084 0.807 3.0938 0
M  V30 14 C -1.6296 1.6386 0.8992 0
M  V30 15 C 5.3274 -3.1574 1.9374 0
M  V30 16 C 1.8704 1.5629 4.3075 0
M  V30 17 C -2.8334 1.7055 -0.0594 0
M  V30 18 C 4.6065 -4.5045 1.7692 0
M  V30 19 C 6.1576 -2.8371 0.6847 0
M  V30 20 N 1.9997 2.1725 5.2905 0
M  V30 21 C -3.9928 2.4663 0.6082 0
M  V30 22 C -2.463 2.3772 -1.395 0
M  V30 23 C 3.938 -4.6836 0.4068 0
M  V30 24 C 5.4136 -3.0819 -0.6249 0
M  V30 25 C -5.2026 2.59 -0.3169 0
M  V30 26 C -3.6714 2.4865 -2.3238 0
M  V30 27 N 4.8767 -4.4418 -0.6872 0
M  V30 28 C -4.8009 3.2596 -1.6383 0
M  V30 29 C -6.0098 3.5408 -2.583 0
M  V30 30 C -4.6066 4.8091 -1.5815 0
M  V30 31 C -6.0819 4.962 -1.9948 0
M  V30 32 H -0.7702 -1.7781 0.0567 0
M  V30 33 H 0.4857 -3.5173 -1.8915 0
M  V30 34 H -0.3221 -2.1167 -2.6487 0
M  V30 35 H -1.267 -3.2511 -1.6374 0
M  V30 36 H -0.5571 0.5391 -0.5686 0
M  V30 37 H 3.9319 -2.2609 3.3106 0
M  V30 38 H 4.9664 -1.0899 2.449 0
M  V30 39 H -1.9862 1.3453 1.8947 0
M  V30 40 H -1.1617 2.6271 0.9858 0
M  V30 41 H 6.0314 -3.2616 2.7747 0
M  V30 42 H -3.1726 0.6816 -0.2699 0
M  V30 43 H 3.8666 -4.6444 2.5662 0
M  V30 44 H 5.3474 -5.3059 1.8954 0
M  V30 45 H 6.518 -1.8021 0.7182 0
M  V30 46 H 7.0534 -3.473 0.6958 0
M  V30 47 H -3.6534 3.4656 0.9085 0
M  V30 48 H -4.2986 1.9474 1.5247 0
M  V30 49 H -2.0551 3.3781 -1.2044 0
M  V30 50 H -1.6803 1.8074 -1.9073 0
M  V30 51 H 3.0581 -4.0399 0.307 0
M  V30 52 H 3.5729 -5.714 0.3287 0
M  V30 53 H 4.6184 -2.3448 -0.7688 0
M  V30 54 H 6.1132 -2.947 -1.4574 0
M  V30 55 H -5.6122 1.5916 -0.5159 0
M  V30 56 H -5.9895 3.1571 0.1939 0
M  V30 57 H -4.0169 1.4815 -2.5966 0
M  V30 58 H -3.3675 2.9798 -3.2548 0
M  V30 59 H 4.3766 -4.5438 -1.5711 0
M  V30 60 H -5.7637 3.5318 -3.6519 0
M  V30 61 H -6.901 2.9253 -2.4298 0
M  V30 62 H -3.9081 5.2056 -2.3283 0
M  V30 63 H -4.3507 5.2379 -0.6089 0
M  V30 64 H -6.7714 5.0566 -1.1484 0
M  V30 65 H -6.2923 5.7605 -2.7109 0
M  V30 END ATOM
M  V30 BEGIN BOND
M  V30 1 2 1 2
M  V30 2 1 2 3
M  V30 3 1 2 4
M  V30 4 1 3 5
M  V30 5 2 4 6
M  V30 6 1 4 7
M  V30 7 1 6 8
M  V30 8 1 6 9
M  V30 9 2 7 10
M  V30 10 1 7 11
M  V30 11 1 8 12
M  V30 12 2 9 13
M  V30 13 1 11 14
M  V30 14 1 12 15
M  V30 15 1 13 16
M  V30 16 1 14 17
M  V30 17 1 15 18
M  V30 18 1 15 19
M  V30 19 3 16 20
M  V30 20 1 17 21
M  V30 21 1 17 22
M  V30 22 1 18 23
M  V30 23 1 19 24
M  V30 24 1 21 25
M  V30 25 1 22 26
M  V30 26 1 23 27
M  V30 27 1 25 28
M  V30 28 1 28 29
M  V30 29 1 28 30
M  V30 30 1 29 31
M  V30 31 1 10 13
M  V30 32 1 24 27
M  V30 33 1 26 28
M  V30 34 1 30 31
M  V30 35 1 3 32
M  V30 36 1 5 33
M  V30 37 1 5 34
M  V30 38 1 5 35
M  V30 39 1 11 36
M  V30 40 1 12 37
M  V30 41 1 12 38
M  V30 42 1 14 39
M  V30 43 1 14 40
M  V30 44 1 15 41
M  V30 45 1 17 42
M  V30 46 1 18 43
M  V30 47 1 18 44
M  V30 48 1 19 45
M  V30 49 1 19 46
M  V30 50 1 21 47
M  V30 51 1 21 48
M  V30 52 1 22 49
M  V30 53 1 22 50
M  V30 54 1 23 51
M  V30 55 1 23 52
M  V30 56 1 24 53
M  V30 57 1 24 54
M  V30 58 1 25 55
M  V30 59 1 25 56
M  V30 60 1 26 57
M  V30 61 1 26 58
M  V30 62 1 27 59
M  V30 63 1 29 60
M  V30 64 1 29 61
M  V30 65 1 30 62
M  V30 66 1 30 63
M  V30 67 1 31 64
M  V30 68 1 31 65
M  V30 END BOND
M  V30 END CTAB
M  END
>  <NO.>
221

>  <Name>
chembl476130

>  <SMILES>
CNC(=O)c1c(NCC2CCC3(CCC3)CC2)nc(C#N)nc1OCC1CCNCC1

>  <logBB>
-0.67

>  <Class>
1

>  <MW>
426.27

>  <nHBAcc>
7

>  <nHBDon>
3

>  <SLogP>
2.86

>  <TopoPSA>
111.96

>  <MMFF94 Energy>
14.229

$$$$
Cc1nc2n(c(=O)c1CCN1CCC(c3noc4cc(F)ccc34)CC1)CC(O)CC2
Actelion Java MolfileCreator 2.0

  0  0  0  0  0  0              0 V3000
M  V30 BEGIN CTAB
M  V30 COUNTS 58 62 0 0 0
M  V30 BEGIN ATOM
M  V30 1 F -4.1858 5.4764 6.6875 0
M  V30 2 C -3.7146 4.6273 5.7642 0
M  V30 3 C -3.2944 3.3614 6.1659 0
M  V30 4 C -3.6611 5.0416 4.4335 0
M  V30 5 C -2.8184 2.5388 5.151 0
M  V30 6 C -3.1748 4.1839 3.4364 0
M  V30 7 O -2.3546 1.2713 5.2997 0
M  V30 8 C -2.7451 2.8989 3.8159 0
M  V30 9 N -1.9656 0.7723 4.0699 0
M  V30 10 C -2.2034 1.7468 3.18 0
M  V30 11 C -1.8952 1.5678 1.7168 0
M  V30 12 C -0.4005 1.7197 1.4109 0
M  V30 13 C -2.4498 0.2668 1.121 0
M  V30 14 C 0.3933 0.4396 1.6714 0
M  V30 15 C -1.552 -0.947 1.3697 0
M  V30 16 N -0.1764 -0.6866 0.9147 0
M  V30 17 C 0.6758 -1.8842 1.0739 0
M  V30 18 C 0.4543 -2.9453 -0.0232 0
M  V30 19 C 0.831 -2.4596 -1.4039 0
M  V30 20 C 2.2927 -2.384 -1.6793 0
M  V30 21 C 0.0036 -2.1104 -2.4062 0
M  V30 22 O 3.1024 -2.7763 -0.8392 0
M  V30 23 N 2.6648 -1.8813 -2.9112 0
M  V30 24 N 0.4399 -1.6724 -3.6321 0
M  V30 25 C -1.5002 -2.137 -2.3088 0
M  V30 26 C 1.7107 -1.5724 -3.8436 0
M  V30 27 C 4.0939 -1.8565 -3.2045 0
M  V30 28 C 2.1405 -1.0137 -5.1875 0
M  V30 29 C 4.4872 -1.0088 -4.4102 0 CFG=2
M  V30 30 C 3.5669 -1.3444 -5.5701 0
M  V30 31 O 5.8352 -1.2858 -4.7746 0
M  V30 32 H -3.3358 3.0427 7.1985 0
M  V30 33 H -4.0019 6.0412 4.1763 0
M  V30 34 H -3.1343 4.5111 2.4017 0
M  V30 35 H -2.4108 2.3884 1.1974 0
M  V30 36 H -0.287 1.9868 0.3512 0
M  V30 37 H 0.0348 2.546 1.9866 0
M  V30 38 H -2.5494 0.3998 0.0348 0
M  V30 39 H -3.4587 0.0633 1.501 0
M  V30 40 H 0.4358 0.2183 2.7451 0
M  V30 41 H 1.424 0.6223 1.3423 0
M  V30 42 H -1.9843 -1.7873 0.8171 0
M  V30 43 H -1.5699 -1.2329 2.4279 0
M  V30 44 H 0.5181 -2.3407 2.06 0
M  V30 45 H 1.7323 -1.5888 1.0465 0
M  V30 46 H 1.0631 -3.8264 0.2204 0
M  V30 47 H -0.5721 -3.3189 0.0134 0
M  V30 48 H -1.8821 -2.6331 -1.4162 0
M  V30 49 H -1.8924 -1.1143 -2.318 0
M  V30 50 H -1.9214 -2.6707 -3.1684 0
M  V30 51 H 4.6451 -1.5101 -2.3207 0
M  V30 52 H 4.4107 -2.8977 -3.3547 0
M  V30 53 H 2.0109 0.0749 -5.1369 0
M  V30 54 H 1.4541 -1.3791 -5.9603 0
M  V30 55 H 4.4134 0.0559 -4.1582 0
M  V30 56 H 3.8601 -0.7877 -6.4678 0
M  V30 57 H 3.6597 -2.4073 -5.8283 0
M  V30 58 H 6.0631 -0.7173 -5.531 0
M  V30 END ATOM
M  V30 BEGIN BOND
M  V30 1 1 1 2
M  V30 2 2 2 3
M  V30 3 1 2 4
M  V30 4 1 3 5
M  V30 5 2 4 6
M  V30 6 1 5 7
M  V30 7 2 5 8
M  V30 8 1 7 9
M  V30 9 1 8 10
M  V30 10 1 10 11
M  V30 11 1 11 12
M  V30 12 1 11 13
M  V30 13 1 12 14
M  V30 14 1 13 15
M  V30 15 1 14 16
M  V30 16 1 16 17
M  V30 17 1 17 18
M  V30 18 1 18 19
M  V30 19 1 19 20
M  V30 20 2 19 21
M  V30 21 2 20 22
M  V30 22 1 20 23
M  V30 23 1 21 24
M  V30 24 1 21 25
M  V30 25 1 23 26
M  V30 26 1 23 27
M  V30 27 1 26 28
M  V30 28 1 27 29
M  V30 29 1 28 30
M  V30 30 1 29 31
M  V30 31 1 6 8
M  V30 32 2 9 10
M  V30 33 1 15 16
M  V30 34 2 24 26
M  V30 35 1 29 30
M  V30 36 1 3 32
M  V30 37 1 4 33
M  V30 38 1 6 34
M  V30 39 1 11 35
M  V30 40 1 12 36
M  V30 41 1 12 37
M  V30 42 1 13 38
M  V30 43 1 13 39
M  V30 44 1 14 40
M  V30 45 1 14 41
M  V30 46 1 15 42
M  V30 47 1 15 43
M  V30 48 1 17 44
M  V30 49 1 17 45
M  V30 50 1 18 46
M  V30 51 1 18 47
M  V30 52 1 25 48
M  V30 53 1 25 49
M  V30 54 1 25 50
M  V30 55 1 27 51
M  V30 56 1 27 52
M  V30 57 1 28 53
M  V30 58 1 28 54
M  V30 59 1 29 55
M  V30 60 1 30 56
M  V30 61 1 30 57
M  V30 62 1 31 58
M  V30 END BOND
M  V30 BEGIN COLLECTION
M  V30 MDLV30/STERAC1 ATOMS=(1 29)
M  V30 END COLLECTION
M  V30 END CTAB
M  END
>  <NO.>
222

>  <Name>
7-hydroxy risperidone

>  <SMILES>
Cc1nc2n(c(=O)c1CCN1CCC(c3noc4cc(F)ccc34)CC1)CC(O)CC2

>  <logBB>
-0.67

>  <Class>
1

>  <MW>
426.21

>  <nHBAcc>
6

>  <nHBDon>
1

>  <SLogP>
2.56

>  <TopoPSA>
84.39

>  <MMFF94 Energy>
-5.7574

$$$$
O=C(O)c1cc[nH]c1NCCSCc1ncccc1Br
Actelion Java MolfileCreator 2.0

  0  0  0  0  0  0              0 V3000
M  V30 BEGIN CTAB
M  V30 COUNTS 34 35 0 0 0
M  V30 BEGIN ATOM
M  V30 1 Br 4.3317 -0.2448 2.2867 0
M  V30 2 C 3.1399 -1.5518 1.6027 0
M  V30 3 C 1.8886 -1.2481 1.0532 0
M  V30 4 C 3.5391 -2.8876 1.6733 0
M  V30 5 N 1.0491 -2.2297 0.587 0
M  V30 6 C 1.3736 0.1739 0.9474 0
M  V30 7 C 2.6931 -3.8865 1.2061 0
M  V30 8 C 1.4708 -3.5134 0.6801 0
M  V30 9 S 2.0654 1.074 -0.4853 0
M  V30 10 C 0.9687 2.5465 -0.4625 0
M  V30 11 C -8.0E-4 2.5847 -1.654 0
M  V30 12 N -0.864 1.4161 -1.6741 0
M  V30 13 C -2.071 1.3215 -1.07 0
M  V30 14 N -2.9382 2.3795 -0.9958 0
M  V30 15 C -2.6743 0.2258 -0.4674 0
M  V30 16 C -4.0786 2.0021 -0.3366 0
M  V30 17 C -2.0929 -1.0944 -0.2868 0
M  V30 18 C -3.9424 0.6766 0.009 0
M  V30 19 O -2.5432 -1.9655 0.4446 0
M  V30 20 O -0.9323 -1.2816 -0.9582 0
M  V30 21 H 4.5044 -3.1583 2.0936 0
M  V30 22 H 1.5861 0.7279 1.8675 0
M  V30 23 H 0.2849 0.1468 0.8555 0
M  V30 24 H 2.9808 -4.9311 1.254 0
M  V30 25 H 0.7752 -4.2619 0.3083 0
M  V30 26 H 0.4183 2.5878 0.4833 0
M  V30 27 H 1.6135 3.4306 -0.502 0
M  V30 28 H -0.5791 3.5148 -1.6243 0
M  V30 29 H 0.5693 2.6101 -2.5903 0
M  V30 30 H -0.3527 0.538 -1.8295 0
M  V30 31 H -2.7749 3.2874 -1.4044 0
M  V30 32 H -4.8859 2.7039 -0.1764 0
M  V30 33 H -4.6701 0.0812 0.5466 0
M  V30 34 H -0.475 -2.0174 -0.4872 0
M  V30 END ATOM
M  V30 BEGIN BOND
M  V30 1 1 1 2
M  V30 2 2 2 3
M  V30 3 1 2 4
M  V30 4 1 3 5
M  V30 5 1 3 6
M  V30 6 2 4 7
M  V30 7 2 5 8
M  V30 8 1 6 9
M  V30 9 1 9 10
M  V30 10 1 10 11
M  V30 11 1 11 12
M  V30 12 1 12 13
M  V30 13 1 13 14
M  V30 14 2 13 15
M  V30 15 1 14 16
M  V30 16 1 15 17
M  V30 17 1 15 18
M  V30 18 2 17 19
M  V30 19 1 17 20
M  V30 20 1 7 8
M  V30 21 2 16 18
M  V30 22 1 4 21
M  V30 23 1 6 22
M  V30 24 1 6 23
M  V30 25 1 7 24
M  V30 26 1 8 25
M  V30 27 1 10 26
M  V30 28 1 10 27
M  V30 29 1 11 28
M  V30 30 1 11 29
M  V30 31 1 12 30
M  V30 32 1 14 31
M  V30 33 1 16 32
M  V30 34 1 18 33
M  V30 35 1 20 34
M  V30 END BOND
M  V30 END CTAB
M  END
>  <NO.>
224

>  <Name>
-

>  <SMILES>
O=C(O)c1cc[nH]c1NCCSCc1ncccc1Br

>  <logBB>
-0.67

>  <Class>
1

>  <MW>
355

>  <nHBAcc>
4

>  <nHBDon>
3

>  <SLogP>
3.22

>  <TopoPSA>
78.01

>  <MMFF94 Energy>
58.552

$$$$
O=[N+]([O-])c1cc[nH]c1NCCSCc1ncccc1Br
Actelion Java MolfileCreator 2.0

  0  0  0  0  0  0              0 V3000
M  V30 BEGIN CTAB
M  V30 COUNTS 33 34 0 0 0
M  V30 BEGIN ATOM
M  V30 1 Br 2.8719 -1.9687 4.5981 0
M  V30 2 C 2.415 -2.9481 3.0391 0
M  V30 3 C 2.0682 -2.3395 1.8259 0
M  V30 4 C 2.4296 -4.3418 3.1225 0
M  V30 5 N 1.7411 -3.0866 0.7332 0
M  V30 6 C 2.055 -0.8258 1.6994 0
M  V30 7 C 2.1038 -5.1001 2.0047 0
M  V30 8 C 1.7705 -4.4329 0.8422 0
M  V30 9 S 1.6212 -0.1171 0.0755 0
M  V30 10 C -0.1484 -0.574 0.0134 0
M  V30 11 C -0.8769 0.1473 -1.1292 0
M  V30 12 N -0.8933 1.5894 -0.9221 0
M  V30 13 C -1.6231 2.4792 -1.6373 0
M  V30 14 N -2.4728 2.0747 -2.6405 0
M  V30 15 C -1.7018 3.865 -1.5733 0
M  V30 16 C -3.0892 3.1589 -3.2107 0
M  V30 17 N -0.9823 4.7258 -0.6665 0 CHG=1
M  V30 18 C -2.6311 4.2871 -2.5694 0
M  V30 19 O -0.2148 4.1995 0.1525 0
M  V30 20 O -1.1916 5.943 -0.7736 0 CHG=-1
M  V30 21 H 2.6963 -4.8422 4.0498 0
M  V30 22 H 3.0618 -0.4561 1.9226 0
M  V30 23 H 1.368 -0.3993 2.4382 0
M  V30 24 H 2.1123 -6.1837 2.04 0
M  V30 25 H 1.511 -4.9761 -0.0622 0
M  V30 26 H -0.2413 -1.6527 -0.1364 0
M  V30 27 H -0.6157 -0.3124 0.969 0
M  V30 28 H -0.41 -0.0893 -2.0928 0
M  V30 29 H -1.9062 -0.2306 -1.1574 0
M  V30 30 H -0.1925 1.9365 -0.2565 0
M  V30 31 H -2.6145 1.116 -2.9223 0
M  V30 32 H -3.7949 3.0325 -4.0213 0
M  V30 33 H -2.9259 5.3063 -2.7878 0
M  V30 END ATOM
M  V30 BEGIN BOND
M  V30 1 1 1 2
M  V30 2 2 2 3
M  V30 3 1 2 4
M  V30 4 1 3 5
M  V30 5 1 3 6
M  V30 6 2 4 7
M  V30 7 2 5 8
M  V30 8 1 6 9
M  V30 9 1 9 10
M  V30 10 1 10 11
M  V30 11 1 11 12
M  V30 12 1 12 13
M  V30 13 1 13 14
M  V30 14 2 13 15
M  V30 15 1 14 16
M  V30 16 1 15 17
M  V30 17 1 15 18
M  V30 18 2 17 19
M  V30 19 1 17 20
M  V30 20 1 7 8
M  V30 21 2 16 18
M  V30 22 1 4 21
M  V30 23 1 6 22
M  V30 24 1 6 23
M  V30 25 1 7 24
M  V30 26 1 8 25
M  V30 27 1 10 26
M  V30 28 1 10 27
M  V30 29 1 11 28
M  V30 30 1 11 29
M  V30 31 1 12 30
M  V30 32 1 14 31
M  V30 33 1 16 32
M  V30 34 1 18 33
M  V30 END BOND
M  V30 END CTAB
M  END
>  <NO.>
225

>  <Name>
bbcpd12 (cimetidine derivative) (skb15)

>  <SMILES>
O=[N+]([O-])c1cc[nH]c1NCCSCc1ncccc1Br

>  <logBB>
-0.67

>  <Class>
1

>  <MW>
355.99

>  <nHBAcc>
5

>  <nHBDon>
2

>  <SLogP>
3.43

>  <TopoPSA>
83.85

>  <MMFF94 Energy>
119.74

$$$$
Nc1cc(N)c(N)cc1N
Actelion Java MolfileCreator 2.0

  0  0  0  0  0  0              0 V3000
M  V30 BEGIN CTAB
M  V30 COUNTS 20 20 0 0 0
M  V30 BEGIN ATOM
M  V30 1 N 1.9734 -0.9104 1.7455 0
M  V30 2 C 0.9997 -0.439 0.859 0
M  V30 3 C 0.493 -1.2703 -0.1596 0
M  V30 4 C 0.441 0.8299 1.0485 0
M  V30 5 N 1.0147 -2.5525 -0.3589 0
M  V30 6 C -0.4637 -0.7623 -1.0454 0
M  V30 7 C -0.5157 1.3379 0.1627 0
M  V30 8 C -1.0224 0.5066 -0.8559 0
M  V30 9 N -1.0375 2.6202 0.3621 0
M  V30 10 N -1.9961 0.978 -1.7424 0
M  V30 11 H 2.3825 -0.2582 2.4003 0
M  V30 12 H 2.5761 -1.6418 1.3924 0
M  V30 13 H 0.7899 1.449 1.8688 0
M  V30 14 H 1.4159 -2.9982 0.4555 0
M  V30 15 H 0.5632 -3.155 -1.033 0
M  V30 16 H -0.8127 -1.3813 -1.8657 0
M  V30 17 H -0.5861 3.2228 1.0363 0
M  V30 18 H -1.4387 3.0659 -0.4522 0
M  V30 19 H -2.4053 0.3258 -2.3971 0
M  V30 20 H -2.5988 1.7094 -1.3892 0
M  V30 END ATOM
M  V30 BEGIN BOND
M  V30 1 1 1 2
M  V30 2 2 2 3
M  V30 3 1 2 4
M  V30 4 1 3 5
M  V30 5 1 3 6
M  V30 6 2 4 7
M  V30 7 2 6 8
M  V30 8 1 7 9
M  V30 9 1 8 10
M  V30 10 1 7 8
M  V30 11 1 1 11
M  V30 12 1 1 12
M  V30 13 1 4 13
M  V30 14 1 5 14
M  V30 15 1 5 15
M  V30 16 1 6 16
M  V30 17 1 9 17
M  V30 18 1 9 18
M  V30 19 1 10 19
M  V30 20 1 10 20
M  V30 END BOND
M  V30 END CTAB
M  END
>  <NO.>
227

>  <Name>
y15

>  <SMILES>
Nc1cc(N)c(N)cc1N

>  <logBB>
-0.67

>  <Class>
1

>  <MW>
138.09

>  <nHBAcc>
4

>  <nHBDon>
4

>  <SLogP>
0.02

>  <TopoPSA>
104.08

>  <MMFF94 Energy>
23.441

$$$$
O=[N+]([O-])C1=CC=NC1NCCSCc1ncccc1Br
Actelion Java MolfileCreator 2.0

  0  0  0  0  0  0              0 V3000
M  V30 BEGIN CTAB
M  V30 COUNTS 33 34 0 0 0
M  V30 BEGIN ATOM
M  V30 1 Br -5.0409 -1.4855 -0.5775 0
M  V30 2 C -4.3884 0.2885 -0.4395 0
M  V30 3 C -3.053 0.6004 -0.1672 0
M  V30 4 C -5.3006 1.3315 -0.6089 0
M  V30 5 N -2.6246 1.8928 -0.0567 0
M  V30 6 C -1.9832 -0.4488 0.0163 0
M  V30 7 C -4.868 2.6489 -0.5051 0
M  V30 8 C -3.5328 2.8774 -0.2303 0
M  V30 9 S -1.3451 -1.0725 -1.5776 0
M  V30 10 C 0.0682 -2.0493 -0.9644 0
M  V30 11 C 1.2901 -1.1641 -0.6827 0
M  V30 12 N 2.3817 -1.9693 -0.1293 0
M  V30 13 C 3.6212 -1.2433 0.1142 0 CFG=1
M  V30 14 N 4.1633 -0.6627 -1.1415 0
M  V30 15 C 3.5939 -0.0714 1.0144 0
M  V30 16 C 4.347 0.5928 -0.86 0
M  V30 17 N 3.2348 -0.1938 2.3898 0 CHG=1
M  V30 18 C 4.024 1.0666 0.4822 0
M  V30 19 O 2.8631 -1.3067 2.782 0
M  V30 20 O 3.3135 0.8182 3.0983 0 CHG=-1
M  V30 21 H -6.3462 1.1269 -0.8234 0
M  V30 22 H -2.3528 -1.2807 0.6238 0
M  V30 23 H -1.1554 0.0012 0.5742 0
M  V30 24 H -5.5565 3.4762 -0.6362 0
M  V30 25 H -3.1442 3.8879 -0.1397 0
M  V30 26 H 0.3178 -2.7876 -1.7343 0
M  V30 27 H -0.2403 -2.6027 -0.0707 0
M  V30 28 H 1.0234 -0.3716 0.0243 0
M  V30 29 H 1.6036 -0.6915 -1.6208 0
M  V30 30 H 2.0899 -2.4136 0.743 0
M  V30 31 H 4.3633 -1.965 0.4787 0
M  V30 32 H 4.743 1.3147 -1.5905 0
M  V30 33 H 4.1529 2.0507 0.8895 0
M  V30 END ATOM
M  V30 BEGIN BOND
M  V30 1 1 1 2
M  V30 2 2 2 3
M  V30 3 1 2 4
M  V30 4 1 3 5
M  V30 5 1 3 6
M  V30 6 2 4 7
M  V30 7 2 5 8
M  V30 8 1 6 9
M  V30 9 1 9 10
M  V30 10 1 10 11
M  V30 11 1 11 12
M  V30 12 1 12 13
M  V30 13 1 13 14
M  V30 14 1 13 15
M  V30 15 2 14 16
M  V30 16 1 15 17
M  V30 17 2 15 18
M  V30 18 2 17 19
M  V30 19 1 17 20
M  V30 20 1 7 8
M  V30 21 1 16 18
M  V30 22 1 4 21
M  V30 23 1 6 22
M  V30 24 1 6 23
M  V30 25 1 7 24
M  V30 26 1 8 25
M  V30 27 1 10 26
M  V30 28 1 10 27
M  V30 29 1 11 28
M  V30 30 1 11 29
M  V30 31 1 12 30
M  V30 32 1 13 31
M  V30 33 1 16 32
M  V30 34 1 18 33
M  V30 END BOND
M  V30 BEGIN COLLECTION
M  V30 MDLV30/STERAC1 ATOMS=(1 13)
M  V30 END COLLECTION
M  V30 END CTAB
M  END
>  <NO.>
228

>  <Name>
compound 31

>  <SMILES>
O=[N+]([O-])C1=CC=NC1NCCSCc1ncccc1Br

>  <logBB>
-0.67

>  <Class>
1

>  <MW>
355.99

>  <nHBAcc>
6

>  <nHBDon>
1

>  <SLogP>
2.24

>  <TopoPSA>
80.42

>  <MMFF94 Energy>
22.382

$$$$
O=[N+]([O-])c1[nH]ccc1NCCSCc1ncccc1Br
Actelion Java MolfileCreator 2.0

  0  0  0  0  0  0              0 V3000
M  V30 BEGIN CTAB
M  V30 COUNTS 33 34 0 0 0
M  V30 BEGIN ATOM
M  V30 1 Br 3.6064 -0.9007 3.032 0
M  V30 2 C 3.9023 0.6347 1.9606 0
M  V30 3 C 2.9847 1.1046 1.016 0
M  V30 4 C 5.109 1.3177 2.1228 0
M  V30 5 N 3.2442 2.2027 0.2471 0
M  V30 6 C 1.6443 0.4526 0.7744 0
M  V30 7 C 5.3733 2.4426 1.3491 0
M  V30 8 C 4.4188 2.8431 0.4329 0
M  V30 9 S 0.3976 0.9502 2.0137 0
M  V30 10 C -1.044 0.0517 1.3502 0
M  V30 11 C -1.6826 0.7702 0.1574 0
M  V30 12 N -2.8278 0.022 -0.342 0
M  V30 13 C -2.7541 -1.0148 -1.2044 0
M  V30 14 C -3.8139 -1.7611 -1.6642 0
M  V30 15 C -1.5906 -1.5501 -1.8171 0
M  V30 16 N -5.2113 -1.6879 -1.3986 0 CHG=1
M  V30 17 N -3.3445 -2.7203 -2.5224 0
M  V30 18 C -1.982 -2.6015 -2.6227 0
M  V30 19 O -5.6025 -0.818 -0.6105 0
M  V30 20 O -5.9246 -2.5146 -1.985 0 CHG=-1
M  V30 21 H 5.8448 0.983 2.8492 0
M  V30 22 H 1.7429 -0.6372 0.7542 0
M  V30 23 H 1.2881 0.7541 -0.2163 0
M  V30 24 H 6.3009 2.9931 1.4596 0
M  V30 25 H 4.5753 3.7156 -0.1952 0
M  V30 26 H -0.7433 -0.9695 1.0938 0
M  V30 27 H -1.7794 -0.0324 2.1585 0
M  V30 28 H -2.0398 1.757 0.4769 0
M  V30 29 H -0.9636 0.9483 -0.6493 0
M  V30 30 H -3.7343 0.3228 0.0261 0
M  V30 31 H -0.5697 -1.2131 -1.6973 0
M  V30 32 H -3.9275 -3.3993 -2.9988 0
M  V30 33 H -1.4107 -3.267 -3.2568 0
M  V30 END ATOM
M  V30 BEGIN BOND
M  V30 1 1 1 2
M  V30 2 2 2 3
M  V30 3 1 2 4
M  V30 4 1 3 5
M  V30 5 1 3 6
M  V30 6 2 4 7
M  V30 7 2 5 8
M  V30 8 1 6 9
M  V30 9 1 9 10
M  V30 10 1 10 11
M  V30 11 1 11 12
M  V30 12 1 12 13
M  V30 13 2 13 14
M  V30 14 1 13 15
M  V30 15 1 14 16
M  V30 16 1 14 17
M  V30 17 2 15 18
M  V30 18 2 16 19
M  V30 19 1 16 20
M  V30 20 1 7 8
M  V30 21 1 17 18
M  V30 22 1 4 21
M  V30 23 1 6 22
M  V30 24 1 6 23
M  V30 25 1 7 24
M  V30 26 1 8 25
M  V30 27 1 10 26
M  V30 28 1 10 27
M  V30 29 1 11 28
M  V30 30 1 11 29
M  V30 31 1 12 30
M  V30 32 1 15 31
M  V30 33 1 17 32
M  V30 34 1 18 33
M  V30 END BOND
M  V30 END CTAB
M  END
>  <NO.>
229

>  <Name>
b-049

>  <SMILES>
O=[N+]([O-])c1[nH]ccc1NCCSCc1ncccc1Br

>  <logBB>
-0.67

>  <Class>
1

>  <MW>
355.99

>  <nHBAcc>
5

>  <nHBDon>
2

>  <SLogP>
3.43

>  <TopoPSA>
83.85

>  <MMFF94 Energy>
68.781

$$$$
CCn1cc(C(=O)O)c(=O)c2ccc(C)nc21
Actelion Java MolfileCreator 2.0

  0  0  0  0  0  0              0 V3000
M  V30 BEGIN CTAB
M  V30 COUNTS 29 30 0 0 0
M  V30 BEGIN ATOM
M  V30 1 O -1.8295 -0.7951 -2.8647 0
M  V30 2 C -1.4702 -0.63 -1.7037 0
M  V30 3 C -2.4116 -0.7021 -0.5551 0
M  V30 4 C -0.0432 -0.3503 -1.4221 0
M  V30 5 C -3.8576 -0.9385 -0.7331 0
M  V30 6 C -1.8754 -0.5311 0.6645 0
M  V30 7 C 0.3944 -0.1882 -0.1049 0
M  V30 8 C 0.8718 -0.2466 -2.4727 0
M  V30 9 O -4.4705 -1.0261 -1.7805 0
M  V30 10 O -4.527 -1.0614 0.4326 0
M  V30 11 N -0.5414 -0.2979 0.947 0
M  V30 12 N 1.6983 0.0708 0.1674 0
M  V30 13 C 2.2047 0.0183 -2.187 0
M  V30 14 C -0.0275 -0.0941 2.306 0
M  V30 15 C 2.5794 0.171 -0.8586 0
M  V30 16 C -0.0026 1.385 2.6651 0
M  V30 17 C 4.0088 0.4587 -0.5087 0
M  V30 18 H -2.4936 -0.564 1.559 0
M  V30 19 H 0.5473 -0.3708 -3.5031 0
M  V30 20 H -5.4504 -1.2145 0.1376 0
M  V30 21 H 2.932 0.1034 -2.9881 0
M  V30 22 H 0.9652 -0.5405 2.4403 0
M  V30 23 H -0.6754 -0.6143 3.0235 0
M  V30 24 H -1.0023 1.8253 2.5872 0
M  V30 25 H 0.6629 1.9489 2.0041 0
M  V30 26 H 0.3484 1.5185 3.6931 0
M  V30 27 H 4.1334 0.5511 0.575 0
M  V30 28 H 4.6543 -0.3528 -0.8581 0
M  V30 29 H 4.3292 1.3982 -0.9696 0
M  V30 END ATOM
M  V30 BEGIN BOND
M  V30 1 2 1 2
M  V30 2 1 2 3
M  V30 3 1 2 4
M  V30 4 1 3 5
M  V30 5 2 3 6
M  V30 6 2 4 7
M  V30 7 1 4 8
M  V30 8 2 5 9
M  V30 9 1 5 10
M  V30 10 1 6 11
M  V30 11 1 7 12
M  V30 12 2 8 13
M  V30 13 1 11 14
M  V30 14 2 12 15
M  V30 15 1 14 16
M  V30 16 1 15 17
M  V30 17 1 7 11
M  V30 18 1 13 15
M  V30 19 1 6 18
M  V30 20 1 8 19
M  V30 21 1 10 20
M  V30 22 1 13 21
M  V30 23 1 14 22
M  V30 24 1 14 23
M  V30 25 1 16 24
M  V30 26 1 16 25
M  V30 27 1 16 26
M  V30 28 1 17 27
M  V30 29 1 17 28
M  V30 30 1 17 29
M  V30 END BOND
M  V30 END CTAB
M  END
>  <NO.>
230

>  <Name>
nalidixicacid

>  <SMILES>
CCn1cc(C(=O)O)c(=O)c2ccc(C)nc21

>  <logBB>
-0.66

>  <Class>
1

>  <MW>
232.08

>  <nHBAcc>
3

>  <nHBDon>
1

>  <SLogP>
1.42

>  <TopoPSA>
72.19

>  <MMFF94 Energy>
4.1564

$$$$
O=[N+]([O-])c1cc[nH]c1NCCSCc1ccccn1
Actelion Java MolfileCreator 2.0

  0  0  0  0  0  0              0 V3000
M  V30 BEGIN CTAB
M  V30 COUNTS 33 34 0 0 0
M  V30 BEGIN ATOM
M  V30 1 S 1.368 -0.4022 0.8045 0
M  V30 2 C 1.1437 -1.7219 2.0426 0
M  V30 3 C -0.3921 -0.0662 0.4286 0
M  V30 4 C 0.4758 -1.2429 3.3083 0
M  V30 5 C -0.5494 0.8612 -0.784 0
M  V30 6 N -0.8494 -1.5055 3.4494 0
M  V30 7 C 1.2023 -0.5404 4.2689 0
M  V30 8 N -0.0128 0.2538 -1.994 0
M  V30 9 C -1.4521 -1.072 4.5787 0
M  V30 10 C 0.5516 -0.1033 5.4191 0
M  V30 11 C -0.1694 0.7331 -3.2514 0
M  V30 12 C -0.801 -0.3744 5.5812 0
M  V30 13 N -0.9286 1.8511 -3.5083 0
M  V30 14 C 0.3291 0.2927 -4.4711 0
M  V30 15 C -0.9283 2.1309 -4.8505 0
M  V30 16 N 1.1798 -0.8514 -4.6893 0 CHG=1
M  V30 17 C -0.1553 1.1801 -5.4767 0
M  V30 18 O 1.5145 -1.526 -3.7047 0
M  V30 19 O 1.5153 -1.0773 -5.8609 0 CHG=-1
M  V30 20 H 0.5652 -2.5368 1.5938 0
M  V30 21 H 2.1281 -2.1364 2.2864 0
M  V30 22 H -0.8984 -1.017 0.2312 0
M  V30 23 H -0.857 0.407 1.2986 0
M  V30 24 H -1.6202 1.0595 -0.9144 0
M  V30 25 H -0.0547 1.8218 -0.5962 0
M  V30 26 H 2.2579 -0.3317 4.1241 0
M  V30 27 H 0.6294 -0.5311 -1.8328 0
M  V30 28 H -2.5093 -1.3087 4.6591 0
M  V30 29 H 1.0972 0.4449 6.1818 0
M  V30 30 H -1.3353 -0.0496 6.4669 0
M  V30 31 H -1.4131 2.3909 -2.8066 0
M  V30 32 H -1.4754 2.9795 -5.2399 0
M  V30 33 H 0.0447 1.1231 -6.5397 0
M  V30 END ATOM
M  V30 BEGIN BOND
M  V30 1 1 1 2
M  V30 2 1 1 3
M  V30 3 1 2 4
M  V30 4 1 3 5
M  V30 5 2 4 6
M  V30 6 1 4 7
M  V30 7 1 5 8
M  V30 8 1 6 9
M  V30 9 2 7 10
M  V30 10 1 8 11
M  V30 11 2 9 12
M  V30 12 1 11 13
M  V30 13 2 11 14
M  V30 14 1 13 15
M  V30 15 1 14 16
M  V30 16 1 14 17
M  V30 17 2 16 18
M  V30 18 1 16 19
M  V30 19 1 10 12
M  V30 20 2 15 17
M  V30 21 1 2 20
M  V30 22 1 2 21
M  V30 23 1 3 22
M  V30 24 1 3 23
M  V30 25 1 5 24
M  V30 26 1 5 25
M  V30 27 1 7 26
M  V30 28 1 8 27
M  V30 29 1 9 28
M  V30 30 1 10 29
M  V30 31 1 12 30
M  V30 32 1 13 31
M  V30 33 1 15 32
M  V30 34 1 17 33
M  V30 END BOND
M  V30 END CTAB
M  END
>  <NO.>
231

>  <Name>
112598-30-8

>  <SMILES>
O=[N+]([O-])c1cc[nH]c1NCCSCc1ccccn1

>  <logBB>
-0.66

>  <Class>
1

>  <MW>
278.08

>  <nHBAcc>
5

>  <nHBDon>
2

>  <SLogP>
2.66

>  <TopoPSA>
83.85

>  <MMFF94 Energy>
107.07

$$$$
COc1cc2nc(N3CCN(C(=O)c4ccco4)CC3)nc(C)c2cc1OC
Actelion Java MolfileCreator 2.0

  0  0  0  0  0  0              0 V3000
M  V30 BEGIN CTAB
M  V30 COUNTS 50 53 0 0 0
M  V30 BEGIN ATOM
M  V30 1 O 3.7508 -4.4703 -2.313 0
M  V30 2 C 2.9692 -4.4014 -1.3607 0
M  V30 3 N 2.2624 -3.2176 -1.1289 0
M  V30 4 C 2.7792 -5.5481 -0.4823 0
M  V30 5 C 1.14 -3.0698 -0.1933 0
M  V30 6 C 2.6079 -2.0316 -1.9173 0
M  V30 7 O 2.2116 -5.4216 0.7587 0
M  V30 8 C 3.158 -6.8682 -0.6654 0
M  V30 9 C 0.2187 -1.8747 -0.5065 0
M  V30 10 C 2.3545 -0.7127 -1.1677 0
M  V30 11 C 2.2113 -6.6489 1.3371 0
M  V30 12 C 2.7821 -7.5759 0.5001 0
M  V30 13 N 0.9857 -0.6458 -0.6658 0
M  V30 14 C 0.4199 0.5708 -0.3812 0
M  V30 15 N -0.8708 0.6162 -0.025 0
M  V30 16 N 1.1799 1.6698 -0.4702 0
M  V30 17 C -1.4255 1.8011 0.2531 0
M  V30 18 C 0.6202 2.866 -0.1883 0
M  V30 19 C -0.7176 3.0012 0.1903 0
M  V30 20 C -2.7646 1.8347 0.6204 0
M  V30 21 C 1.5379 4.048 -0.31 0
M  V30 22 C -1.3676 4.2226 0.4992 0
M  V30 23 C -3.4216 3.0319 0.9282 0
M  V30 24 C -2.7139 4.2426 0.8673 0
M  V30 25 O -4.7412 3.1213 1.2964 0
M  V30 26 O -3.4201 5.3749 1.1819 0
M  V30 27 C -5.4923 1.9172 1.361 0
M  V30 28 C -2.7388 6.62 1.1312 0
M  V30 29 H 0.5393 -3.9846 -0.1947 0
M  V30 30 H 1.5765 -2.9384 0.8039 0
M  V30 31 H 1.9924 -2.0699 -2.8247 0
M  V30 32 H 3.6563 -2.0769 -2.2313 0
M  V30 33 H 3.6521 -7.2567 -1.546 0
M  V30 34 H -0.3357 -2.0695 -1.4325 0
M  V30 35 H -0.5106 -1.8024 0.3093 0
M  V30 36 H 2.5684 0.1078 -1.8632 0
M  V30 37 H 3.0491 -0.6309 -0.3228 0
M  V30 38 H 1.7839 -6.6986 2.3291 0
M  V30 39 H 2.92 -8.6276 0.7081 0
M  V30 40 H -3.2847 0.8829 0.6589 0
M  V30 41 H 2.5406 3.7323 -0.6171 0
M  V30 42 H 1.6304 4.5612 0.6522 0
M  V30 43 H 1.1633 4.7471 -1.0641 0
M  V30 44 H -0.7996 5.1445 0.4447 0
M  V30 45 H -5.5486 1.4337 0.3803 0
M  V30 46 H -6.512 2.1752 1.6628 0
M  V30 47 H -5.0845 1.2375 2.1162 0
M  V30 48 H -1.915 6.6488 1.8518 0
M  V30 49 H -3.451 7.4028 1.4095 0
M  V30 50 H -2.3866 6.8362 0.1174 0
M  V30 END ATOM
M  V30 BEGIN BOND
M  V30 1 2 1 2
M  V30 2 1 2 3
M  V30 3 1 2 4
M  V30 4 1 3 5
M  V30 5 1 3 6
M  V30 6 1 4 7
M  V30 7 2 4 8
M  V30 8 1 5 9
M  V30 9 1 6 10
M  V30 10 1 7 11
M  V30 11 1 8 12
M  V30 12 1 9 13
M  V30 13 1 13 14
M  V30 14 2 14 15
M  V30 15 1 14 16
M  V30 16 1 15 17
M  V30 17 2 16 18
M  V30 18 1 17 19
M  V30 19 2 17 20
M  V30 20 1 18 21
M  V30 21 2 19 22
M  V30 22 1 20 23
M  V30 23 1 22 24
M  V30 24 1 23 25
M  V30 25 1 24 26
M  V30 26 1 25 27
M  V30 27 1 26 28
M  V30 28 1 10 13
M  V30 29 2 11 12
M  V30 30 1 18 19
M  V30 31 2 23 24
M  V30 32 1 5 29
M  V30 33 1 5 30
M  V30 34 1 6 31
M  V30 35 1 6 32
M  V30 36 1 8 33
M  V30 37 1 9 34
M  V30 38 1 9 35
M  V30 39 1 10 36
M  V30 40 1 10 37
M  V30 41 1 11 38
M  V30 42 1 12 39
M  V30 43 1 20 40
M  V30 44 1 21 41
M  V30 45 1 21 42
M  V30 46 1 21 43
M  V30 47 1 22 44
M  V30 48 1 27 45
M  V30 49 1 27 46
M  V30 50 1 27 47
M  V30 51 1 28 48
M  V30 52 1 28 49
M  V30 53 1 28 50
M  V30 END BOND
M  V30 END CTAB
M  END
>  <NO.>
232

>  <Name>
prazosin

>  <SMILES>
COc1cc2nc(N3CCN(C(=O)c4ccco4)CC3)nc(C)c2cc1OC

>  <logBB>
-0.66

>  <Class>
1

>  <MW>
382.16

>  <nHBAcc>
7

>  <nHBDon>
0

>  <SLogP>
2.51

>  <TopoPSA>
80.93

>  <MMFF94 Energy>
27.144

$$$$
Cc1cccc(COc2cccc(/C=C3\C(=O)NN(c4ccccc4)C3=O)c2)c1
Actelion Java MolfileCreator 2.0

  0  0  0  0  0  0              0 V3000
M  V30 BEGIN CTAB
M  V30 COUNTS 49 52 0 0 0
M  V30 BEGIN ATOM
M  V30 1 O 0.8791 3.4399 -3.4399 0
M  V30 2 C 0.1061 2.5818 -3.051 0
M  V30 3 N -0.7878 1.7754 -3.7616 0
M  V30 4 C -0.0667 2.1571 -1.6311 0
M  V30 5 N -1.4779 0.9249 -2.901 0
M  V30 6 C -1.0011 1.7776 -5.1551 0
M  V30 7 C -1.1033 1.0985 -1.5878 0
M  V30 8 C 0.6383 2.7361 -0.6477 0
M  V30 9 C -1.404 0.6057 -5.8116 0
M  V30 10 C -0.825 2.9439 -5.909 0
M  V30 11 O -1.5476 0.501 -0.6282 0
M  V30 12 C 0.5699 2.4553 0.7915 0
M  V30 13 C -1.6296 0.6039 -7.191 0
M  V30 14 C -1.0516 2.9412 -7.2882 0
M  V30 15 C 0.6647 1.155 1.3062 0
M  V30 16 C 0.4827 3.535 1.6797 0
M  V30 17 C -1.4551 1.7723 -7.9281 0
M  V30 18 C 0.6203 0.9313 2.685 0
M  V30 19 C 0.464 3.318 3.0574 0
M  V30 20 O 0.6773 -0.2915 3.2959 0
M  V30 21 C 0.5333 2.0185 3.5556 0
M  V30 22 C 0.3685 -1.421 2.4783 0
M  V30 23 C 0.2631 -2.6406 3.3628 0
M  V30 24 C 1.3818 -3.093 4.0804 0
M  V30 25 C -0.9448 -3.3399 3.4778 0
M  V30 26 C 1.3058 -4.2333 4.8913 0
M  V30 27 C -1.0321 -4.4676 4.2942 0
M  V30 28 C 0.0862 -4.9099 5.0007 0
M  V30 29 C 2.4984 -4.6818 5.6822 0
M  V30 30 H -2.2276 0.3188 -3.2023 0
M  V30 31 H 1.3369 3.5316 -0.9085 0
M  V30 32 H -1.5229 -0.3281 -5.2702 0
M  V30 33 H -0.5173 3.875 -5.4387 0
M  V30 34 H -1.9343 -0.312 -7.6912 0
M  V30 35 H -0.9104 3.8548 -7.8607 0
M  V30 36 H 0.7754 0.3253 0.6167 0
M  V30 37 H 0.4268 4.5556 1.3071 0
M  V30 38 H -1.6277 1.7714 -9.0015 0
M  V30 39 H 0.3933 4.1587 3.7421 0
M  V30 40 H 0.5119 1.8482 4.6292 0
M  V30 41 H 1.1677 -1.595 1.7474 0
M  V30 42 H -0.5784 -1.2617 1.9473 0
M  V30 43 H 2.3181 -2.5419 4.0088 0
M  V30 44 H -1.8284 -3.0054 2.9391 0
M  V30 45 H -1.9756 -4.9992 4.385 0
M  V30 46 H -8.0E-4 -5.7847 5.6408 0
M  V30 47 H 3.4279 -4.4504 5.1517 0
M  V30 48 H 2.477 -5.7649 5.8414 0
M  V30 49 H 2.5118 -4.1814 6.6553 0
M  V30 END ATOM
M  V30 BEGIN BOND
M  V30 1 2 1 2
M  V30 2 1 2 3
M  V30 3 1 2 4
M  V30 4 1 3 5
M  V30 5 1 3 6
M  V30 6 1 4 7
M  V30 7 2 4 8
M  V30 8 2 6 9
M  V30 9 1 6 10
M  V30 10 2 7 11
M  V30 11 1 8 12
M  V30 12 1 9 13
M  V30 13 2 10 14
M  V30 14 2 12 15
M  V30 15 1 12 16
M  V30 16 2 13 17
M  V30 17 1 15 18
M  V30 18 2 16 19
M  V30 19 1 18 20
M  V30 20 2 18 21
M  V30 21 1 20 22
M  V30 22 1 22 23
M  V30 23 2 23 24
M  V30 24 1 23 25
M  V30 25 1 24 26
M  V30 26 2 25 27
M  V30 27 2 26 28
M  V30 28 1 26 29
M  V30 29 1 5 7
M  V30 30 1 14 17
M  V30 31 1 19 21
M  V30 32 1 27 28
M  V30 33 1 5 30
M  V30 34 1 8 31
M  V30 35 1 9 32
M  V30 36 1 10 33
M  V30 37 1 13 34
M  V30 38 1 14 35
M  V30 39 1 15 36
M  V30 40 1 16 37
M  V30 41 1 17 38
M  V30 42 1 19 39
M  V30 43 1 21 40
M  V30 44 1 22 41
M  V30 45 1 22 42
M  V30 46 1 24 43
M  V30 47 1 25 44
M  V30 48 1 27 45
M  V30 49 1 28 46
M  V30 50 1 29 47
M  V30 51 1 29 48
M  V30 52 1 29 49
M  V30 END BOND
M  V30 END CTAB
M  END
>  <NO.>
233

>  <Name>
y16

>  <SMILES>
Cc1cccc(COc2cccc(/C=C3\C(=O)NN(c4ccccc4)C3=O)c2)c1

>  <logBB>
-0.66

>  <Class>
1

>  <MW>
384.15

>  <nHBAcc>
3

>  <nHBDon>
1

>  <SLogP>
4.04

>  <TopoPSA>
58.64

>  <MMFF94 Energy>
85.375

$$$$
O=[N+]([O-])C1=CC=NC1NCCSCc1ccccn1
Actelion Java MolfileCreator 2.0

  0  0  0  0  0  0              0 V3000
M  V30 BEGIN CTAB
M  V30 COUNTS 33 34 0 0 0
M  V30 BEGIN ATOM
M  V30 1 S -1.7016 -0.6479 -1.0531 0
M  V30 2 C -0.5741 0.4398 -1.9935 0
M  V30 3 C -0.494 -1.8788 -0.4574 0
M  V30 4 C -1.2872 1.6348 -2.5823 0
M  V30 5 C 0.3398 -1.3477 0.716 0
M  V30 6 N -1.0062 2.8509 -2.0458 0
M  V30 7 C -2.1828 1.4781 -3.6404 0
M  V30 8 N 1.2498 -2.3891 1.1992 0
M  V30 9 C -1.6391 3.9235 -2.5704 0
M  V30 10 C -2.8165 2.6031 -4.1606 0
M  V30 11 C 2.1533 -1.9712 2.2636 0 CFG=1
M  V30 12 C -2.542 3.8514 -3.6169 0
M  V30 13 N 3.0227 -0.8488 1.8211 0
M  V30 14 C 1.5776 -1.4454 3.519 0
M  V30 15 C 2.858 0.0612 2.7349 0
M  V30 16 N 0.7613 -2.256 4.3631 0 CHG=1
M  V30 17 C 1.9682 -0.2219 3.8571 0
M  V30 18 O 0.4988 -3.3989 3.9694 0
M  V30 19 O 0.3705 -1.7651 5.4304 0 CHG=-1
M  V30 20 H 0.2198 0.7962 -1.3304 0
M  V30 21 H -0.105 -0.1329 -2.8008 0
M  V30 22 H 0.1448 -2.1923 -1.2903 0
M  V30 23 H -1.0648 -2.7576 -0.137 0
M  V30 24 H -0.3299 -1.0299 1.5239 0
M  V30 25 H 0.9143 -0.4767 0.3861 0
M  V30 26 H -2.3921 0.4947 -4.0498 0
M  V30 27 H 0.718 -3.199 1.5251 0
M  V30 28 H -1.3923 4.876 -2.1105 0
M  V30 29 H -3.522 2.5039 -4.9805 0
M  V30 30 H 2.8148 -2.8169 2.491 0
M  V30 31 H -3.0215 4.7461 -3.9972 0
M  V30 32 H 3.3679 1.0363 2.7022 0
M  V30 33 H 1.759 0.392 4.7117 0
M  V30 END ATOM
M  V30 BEGIN BOND
M  V30 1 1 1 2
M  V30 2 1 1 3
M  V30 3 1 2 4
M  V30 4 1 3 5
M  V30 5 2 4 6
M  V30 6 1 4 7
M  V30 7 1 5 8
M  V30 8 1 6 9
M  V30 9 2 7 10
M  V30 10 1 8 11
M  V30 11 2 9 12
M  V30 12 1 11 13
M  V30 13 1 11 14
M  V30 14 2 13 15
M  V30 15 1 14 16
M  V30 16 2 14 17
M  V30 17 2 16 18
M  V30 18 1 16 19
M  V30 19 1 10 12
M  V30 20 1 15 17
M  V30 21 1 2 20
M  V30 22 1 2 21
M  V30 23 1 3 22
M  V30 24 1 3 23
M  V30 25 1 5 24
M  V30 26 1 5 25
M  V30 27 1 7 26
M  V30 28 1 8 27
M  V30 29 1 9 28
M  V30 30 1 10 29
M  V30 31 1 11 30
M  V30 32 1 12 31
M  V30 33 1 15 32
M  V30 34 1 17 33
M  V30 END BOND
M  V30 BEGIN COLLECTION
M  V30 MDLV30/STERAC1 ATOMS=(1 11)
M  V30 END COLLECTION
M  V30 END CTAB
M  END
>  <NO.>
235

>  <Name>
compound 32

>  <SMILES>
O=[N+]([O-])C1=CC=NC1NCCSCc1ccccn1

>  <logBB>
-0.66

>  <Class>
1

>  <MW>
278.08

>  <nHBAcc>
6

>  <nHBDon>
1

>  <SLogP>
1.48

>  <TopoPSA>
80.42

>  <MMFF94 Energy>
12.685

$$$$
Cc1ccc(NC2=NCCN2)c(Cl)c1
Actelion Java MolfileCreator 2.0

  0  0  0  0  0  0              0 V3000
M  V30 BEGIN CTAB
M  V30 COUNTS 26 27 0 0 0
M  V30 BEGIN ATOM
M  V30 1 Cl 2.5552 1.9958 0.7979 0
M  V30 2 C 1.3464 1.5485 -0.3632 0
M  V30 3 C 0.4516 0.4917 -0.0917 0
M  V30 4 C 1.2976 2.2661 -1.5641 0
M  V30 5 N 0.5468 -0.2035 1.1313 0
M  V30 6 C -0.4854 0.1801 -1.0826 0
M  V30 7 C 0.3412 1.9512 -2.5325 0
M  V30 8 C -0.2195 -1.205 1.628 0
M  V30 9 C -0.5396 0.8949 -2.287 0
M  V30 10 C 0.3006 2.6909 -3.8361 0
M  V30 11 N -1.289 -1.7633 1.1388 0
M  V30 12 N 0.2063 -1.6948 2.82 0
M  V30 13 C -1.6953 -2.7833 2.1452 0
M  V30 14 C -0.6069 -2.8063 3.2223 0
M  V30 15 H 2.0064 3.0712 -1.7417 0
M  V30 16 H 1.2676 0.161 1.7382 0
M  V30 17 H -1.1956 -0.6303 -0.9426 0
M  V30 18 H -1.2829 0.6126 -3.0303 0
M  V30 19 H 0.6272 3.7282 -3.7068 0
M  V30 20 H -0.7177 2.7193 -4.2377 0
M  V30 21 H 0.9548 2.202 -4.5644 0
M  V30 22 H 1.1254 -1.5419 3.2019 0
M  V30 23 H -1.7989 -3.7624 1.6666 0
M  V30 24 H -2.6648 -2.5036 2.5717 0
M  V30 25 H -1.0216 -2.6678 4.2247 0
M  V30 26 H -0.0363 -3.7395 3.1911 0
M  V30 END ATOM
M  V30 BEGIN BOND
M  V30 1 1 1 2
M  V30 2 2 2 3
M  V30 3 1 2 4
M  V30 4 1 3 5
M  V30 5 1 3 6
M  V30 6 2 4 7
M  V30 7 1 5 8
M  V30 8 2 6 9
M  V30 9 1 7 10
M  V30 10 2 8 11
M  V30 11 1 8 12
M  V30 12 1 11 13
M  V30 13 1 12 14
M  V30 14 1 7 9
M  V30 15 1 13 14
M  V30 16 1 4 15
M  V30 17 1 5 16
M  V30 18 1 6 17
M  V30 19 1 9 18
M  V30 20 1 10 19
M  V30 21 1 10 20
M  V30 22 1 10 21
M  V30 23 1 12 22
M  V30 24 1 13 23
M  V30 25 1 13 24
M  V30 26 1 14 25
M  V30 27 1 14 26
M  V30 END BOND
M  V30 END CTAB
M  END
>  <NO.>
236

>  <Name>
tolonidine

>  <SMILES>
Cc1ccc(NC2=NCCN2)c(Cl)c1

>  <logBB>
-0.65

>  <Class>
1

>  <MW>
209.07

>  <nHBAcc>
3

>  <nHBDon>
2

>  <SLogP>
2.02

>  <TopoPSA>
36.42

>  <MMFF94 Energy>
-25.098

$$$$
COc1ccc(CCNCCCC(C#N)(c2ccc(OC)c(OC)c2)C(C)C)cc1OC
Actelion Java MolfileCreator 2.0

  0  0  0  0  0  0              0 V3000
M  V30 BEGIN CTAB
M  V30 COUNTS 68 69 0 0 0
M  V30 BEGIN ATOM
M  V30 1 O 3.9373 2.2821 3.1489 0
M  V30 2 C 2.9889 3.0049 2.4676 0
M  V30 3 C 4.6103 1.2452 2.451 0
M  V30 4 C 2.2482 3.924 3.2309 0
M  V30 5 C 2.7384 2.8841 1.0928 0
M  V30 6 O 2.555 3.9892 4.567 0
M  V30 7 C 1.269 4.697 2.6053 0
M  V30 8 C 1.7493 3.6578 0.4461 0
M  V30 9 C 1.8101 4.8926 5.3708 0
M  V30 10 C 1.0226 4.5658 1.2335 0
M  V30 11 C 1.505 3.4985 -1.0779 0 CFG=1
M  V30 12 C 0.3664 4.3255 -1.5784 0
M  V30 13 C 2.8188 3.9301 -1.8575 0
M  V30 14 C 1.1548 2.0028 -1.4025 0
M  V30 15 N -0.5215 4.9586 -1.979 0
M  V30 16 C 2.7591 3.6933 -3.3766 0
M  V30 17 C 3.2176 5.3973 -1.6094 0
M  V30 18 C -0.027 1.4176 -0.6053 0
M  V30 19 C -0.3405 -0.0109 -1.0622 0
M  V30 20 N -1.4436 -0.5485 -0.2678 0
M  V30 21 C -1.7842 -1.9113 -0.6896 0
M  V30 22 C -2.9319 -2.4654 0.165 0
M  V30 23 C -3.3009 -3.8721 -0.2422 0
M  V30 24 C -2.6362 -4.9713 0.3221 0
M  V30 25 C -4.2862 -4.0957 -1.208 0
M  V30 26 C -2.9556 -6.2793 -0.0641 0
M  V30 27 C -4.6112 -5.3964 -1.6012 0
M  V30 28 O -2.3521 -7.4058 0.4392 0
M  V30 29 C -3.953 -6.4936 -1.0362 0
M  V30 30 C -1.3909 -7.2337 1.47 0
M  V30 31 O -4.2059 -7.8031 -1.3637 0
M  V30 32 C -5.2272 -8.0582 -2.3164 0
M  V30 33 H 3.9042 0.5047 2.0608 0
M  V30 34 H 5.2672 0.735 3.162 0
M  V30 35 H 5.2388 1.653 1.6527 0
M  V30 36 H 3.3182 2.182 0.5031 0
M  V30 37 H 0.6737 5.4182 3.1561 0
M  V30 38 H 1.9644 5.9276 5.0486 0
M  V30 39 H 2.1773 4.807 6.3982 0
M  V30 40 H 0.7463 4.633 5.376 0
M  V30 41 H 0.2471 5.2009 0.8076 0
M  V30 42 H 3.6539 3.3163 -1.4934 0
M  V30 43 H 2.0347 1.3672 -1.2398 0
M  V30 44 H 0.9048 1.9089 -2.4676 0
M  V30 45 H 2.6496 2.6313 -3.6139 0
M  V30 46 H 1.9353 4.241 -3.8447 0
M  V30 47 H 3.6882 4.0262 -3.8532 0
M  V30 48 H 4.1597 5.6284 -2.1194 0
M  V30 49 H 2.4613 6.0935 -1.9858 0
M  V30 50 H 3.3741 5.602 -0.5463 0
M  V30 51 H 0.2067 1.4073 0.4654 0
M  V30 52 H -0.917 2.0445 -0.7373 0
M  V30 53 H 0.5511 -0.6361 -0.9354 0
M  V30 54 H -0.6052 -0.0052 -2.1263 0
M  V30 55 H -2.2619 0.0536 -0.3645 0
M  V30 56 H -2.0766 -1.9152 -1.7472 0
M  V30 57 H -0.9062 -2.561 -0.5863 0
M  V30 58 H -2.6541 -2.4572 1.2272 0
M  V30 59 H -3.816 -1.8199 0.0802 0
M  V30 60 H -1.8673 -4.7784 1.0636 0
M  V30 61 H -4.8104 -3.2581 -1.6634 0
M  V30 62 H -5.3831 -5.5186 -2.3533 0
M  V30 63 H -0.5216 -6.6742 1.1091 0
M  V30 64 H -1.0436 -8.2263 1.7725 0
M  V30 65 H -1.8338 -6.755 2.3498 0
M  V30 66 H -6.1984 -7.6969 -1.9623 0
M  V30 67 H -5.3031 -9.1425 -2.4432 0
M  V30 68 H -4.9749 -7.6273 -3.2908 0
M  V30 END ATOM
M  V30 BEGIN BOND
M  V30 1 1 1 2
M  V30 2 1 1 3
M  V30 3 2 2 4
M  V30 4 1 2 5
M  V30 5 1 4 6
M  V30 6 1 4 7
M  V30 7 2 5 8
M  V30 8 1 6 9
M  V30 9 2 7 10
M  V30 10 1 8 11
M  V30 11 1 11 12
M  V30 12 1 11 13
M  V30 13 1 11 14
M  V30 14 3 12 15
M  V30 15 1 13 16
M  V30 16 1 13 17
M  V30 17 1 14 18
M  V30 18 1 18 19
M  V30 19 1 19 20
M  V30 20 1 20 21
M  V30 21 1 21 22
M  V30 22 1 22 23
M  V30 23 2 23 24
M  V30 24 1 23 25
M  V30 25 1 24 26
M  V30 26 2 25 27
M  V30 27 1 26 28
M  V30 28 2 26 29
M  V30 29 1 28 30
M  V30 30 1 29 31
M  V30 31 1 31 32
M  V30 32 1 8 10
M  V30 33 1 27 29
M  V30 34 1 3 33
M  V30 35 1 3 34
M  V30 36 1 3 35
M  V30 37 1 5 36
M  V30 38 1 7 37
M  V30 39 1 9 38
M  V30 40 1 9 39
M  V30 41 1 9 40
M  V30 42 1 10 41
M  V30 43 1 13 42
M  V30 44 1 14 43
M  V30 45 1 14 44
M  V30 46 1 16 45
M  V30 47 1 16 46
M  V30 48 1 16 47
M  V30 49 1 17 48
M  V30 50 1 17 49
M  V30 51 1 17 50
M  V30 52 1 18 51
M  V30 53 1 18 52
M  V30 54 1 19 53
M  V30 55 1 19 54
M  V30 56 1 20 55
M  V30 57 1 21 56
M  V30 58 1 21 57
M  V30 59 1 22 58
M  V30 60 1 22 59
M  V30 61 1 24 60
M  V30 62 1 25 61
M  V30 63 1 27 62
M  V30 64 1 30 63
M  V30 65 1 30 64
M  V30 66 1 30 65
M  V30 67 1 32 66
M  V30 68 1 32 67
M  V30 69 1 32 68
M  V30 END BOND
M  V30 BEGIN COLLECTION
M  V30 MDLV30/STERAC1 ATOMS=(1 11)
M  V30 END COLLECTION
M  V30 END CTAB
M  END
>  <NO.>
239

>  <Name>
norverapamil

>  <SMILES>
COc1ccc(CCNCCCC(C#N)(c2ccc(OC)c(OC)c2)C(C)C)cc1OC

>  <logBB>
-0.64

>  <Class>
1

>  <MW>
440.27

>  <nHBAcc>
6

>  <nHBDon>
1

>  <SLogP>
4.75

>  <TopoPSA>
72.74

>  <MMFF94 Energy>
129.04

$$$$
CC(=O)N1CCN(c2ccc(OCC3CO[C@@](Cn4ccnc4)(c4ccc(Cl)cc4Cl)O3)cc2)CC1
Actelion Java MolfileCreator 2.0

  0  0  0  0  0  0              0 V3000
M  V30 BEGIN CTAB
M  V30 COUNTS 64 68 0 0 0
M  V30 BEGIN ATOM
M  V30 1 Cl 3.5719 -3.8158 -0.1621 0
M  V30 2 C 3.1126 -4.9678 1.0445 0
M  V30 3 C 2.6409 -4.5996 2.3227 0
M  V30 4 C 3.2534 -6.3156 0.6864 0
M  V30 5 C 2.3374 -5.6445 3.2253 0
M  V30 6 C 2.4678 -3.139 2.7688 0 CFG=1
M  V30 7 C 2.9344 -7.3166 1.5961 0
M  V30 8 C 2.4796 -6.9876 2.8661 0
M  V30 9 O 1.7588 -2.4095 1.7551 0
M  V30 10 O 1.6814 -3.1063 3.9861 0
M  V30 11 C 3.8494 -2.5036 3.0475 0
M  V30 12 Cl 3.1113 -8.9682 1.1516 0
M  V30 13 C 0.4063 -2.3219 2.2209 0
M  V30 14 C 0.5803 -2.2364 3.7137 0
M  V30 15 N 3.7689 -1.1158 3.4713 0
M  V30 16 C -0.3036 -1.1072 1.6326 0
M  V30 17 C 3.7038 -0.6737 4.7618 0
M  V30 18 C 3.7701 -0.018 2.6564 0
M  V30 19 O -0.6224 -1.3919 0.2671 0
M  V30 20 N 3.6315 0.6373 4.8148 0
M  V30 21 C 3.6815 1.0561 3.51 0
M  V30 22 C -1.2455 -0.4069 -0.4446 0
M  V30 23 C -1.6052 0.8503 0.0267 0
M  V30 24 C -1.537 -0.7326 -1.7653 0
M  V30 25 C -2.2465 1.7679 -0.822 0
M  V30 26 C -2.1757 0.1895 -2.6043 0
M  V30 27 C -2.54 1.4688 -2.1601 0
M  V30 28 N -3.1717 2.3633 -3.0064 0
M  V30 29 C -3.9673 3.4997 -2.5148 0
M  V30 30 C -2.6887 2.5417 -4.3919 0
M  V30 31 C -3.1593 4.8097 -2.6114 0
M  V30 32 C -1.8666 3.8428 -4.4965 0
M  V30 33 N -2.5928 5.0046 -3.9573 0
M  V30 34 C -2.6152 6.1835 -4.6793 0
M  V30 35 O -2.1039 6.2908 -5.7941 0
M  V30 36 C -3.3075 7.3661 -4.0518 0
M  V30 37 H 3.6144 -6.5823 -0.3041 0
M  V30 38 H 1.9793 -5.4235 4.2307 0
M  V30 39 H 2.232 -7.7668 3.5832 0
M  V30 40 H 4.3704 -3.046 3.8468 0
M  V30 41 H 4.4972 -2.5114 2.1653 0
M  V30 42 H -0.0979 -3.2518 1.9304 0
M  V30 43 H 0.8497 -1.2284 4.0457 0
M  V30 44 H -0.3043 -2.5623 4.2675 0
M  V30 45 H -1.2298 -0.9199 2.1889 0
M  V30 46 H 0.3593 -0.2347 1.6802 0
M  V30 47 H 3.6988 -1.3402 5.615 0
M  V30 48 H 3.8215 -0.0886 1.5782 0
M  V30 49 H 3.6504 2.1074 3.2546 0
M  V30 50 H -1.4018 1.1614 1.0455 0
M  V30 51 H -1.2738 -1.7143 -2.1506 0
M  V30 52 H -2.4877 2.7412 -0.406 0
M  V30 53 H -2.4148 -0.1291 -3.6153 0
M  V30 54 H -4.3442 3.3435 -1.4981 0
M  V30 55 H -4.8557 3.59 -3.1535 0
M  V30 56 H -2.0831 1.7054 -4.754 0
M  V30 57 H -3.561 2.6122 -5.0538 0
M  V30 58 H -2.3116 4.786 -1.9168 0
M  V30 59 H -3.7982 5.6466 -2.3216 0
M  V30 60 H -1.5775 4.0081 -5.539 0
M  V30 61 H -0.9447 3.7503 -3.9095 0
M  V30 62 H -4.3734 7.1555 -3.9304 0
M  V30 63 H -2.8531 7.6033 -3.0861 0
M  V30 64 H -3.2005 8.2388 -4.7033 0
M  V30 END ATOM
M  V30 BEGIN BOND
M  V30 1 1 1 2
M  V30 2 2 2 3
M  V30 3 1 2 4
M  V30 4 1 3 5
M  V30 5 1 3 6
M  V30 6 2 4 7
M  V30 7 2 5 8
M  V30 8 1 6 9
M  V30 9 1 6 10
M  V30 10 1 6 11
M  V30 11 1 7 12
M  V30 12 1 9 13
M  V30 13 1 10 14
M  V30 14 1 11 15
M  V30 15 1 13 16
M  V30 16 1 15 17
M  V30 17 1 15 18
M  V30 18 1 16 19
M  V30 19 2 17 20
M  V30 20 2 18 21
M  V30 21 1 19 22
M  V30 22 2 22 23
M  V30 23 1 22 24
M  V30 24 1 23 25
M  V30 25 2 24 26
M  V30 26 2 25 27
M  V30 27 1 27 28
M  V30 28 1 28 29
M  V30 29 1 28 30
M  V30 30 1 29 31
M  V30 31 1 30 32
M  V30 32 1 31 33
M  V30 33 1 33 34
M  V30 34 2 34 35
M  V30 35 1 34 36
M  V30 36 1 7 8
M  V30 37 1 13 14
M  V30 38 1 20 21
M  V30 39 1 26 27
M  V30 40 1 32 33
M  V30 41 1 4 37
M  V30 42 1 5 38
M  V30 43 1 8 39
M  V30 44 1 11 40
M  V30 45 1 11 41
M  V30 46 1 13 42
M  V30 47 1 14 43
M  V30 48 1 14 44
M  V30 49 1 16 45
M  V30 50 1 16 46
M  V30 51 1 17 47
M  V30 52 1 18 48
M  V30 53 1 21 49
M  V30 54 1 23 50
M  V30 55 1 24 51
M  V30 56 1 25 52
M  V30 57 1 26 53
M  V30 58 1 29 54
M  V30 59 1 29 55
M  V30 60 1 30 56
M  V30 61 1 30 57
M  V30 62 1 31 58
M  V30 63 1 31 59
M  V30 64 1 32 60
M  V30 65 1 32 61
M  V30 66 1 36 62
M  V30 67 1 36 63
M  V30 68 1 36 64
M  V30 END BOND
M  V30 BEGIN COLLECTION
M  V30 MDLV30/STEABS ATOMS=(1 6)
M  V30 END COLLECTION
M  V30 END CTAB
M  END
>  <NO.>
240

>  <Name>
ketoconazole

>  <SMILES>
CC(=O)N1CCN(c2ccc(OCC3CO[C@@](Cn4ccnc4)(c4ccc(Cl)cc4Cl)O3)cc2)CC1

>  <logBB>
-0.63

>  <Class>
1

>  <MW>
530.15

>  <nHBAcc>
6

>  <nHBDon>
0

>  <SLogP>
4.21

>  <TopoPSA>
69.06

>  <MMFF94 Energy>
119.41

$$$$
CC(=O)N1CCc2ccc(N(C(=O)/C=C/c3cccc(C#N)c3)N3CCN(CCC4CCCC4)CC3)cc21
Actelion Java MolfileCreator 2.0

  0  0  0  0  0  0              0 V3000
M  V30 BEGIN CTAB
M  V30 COUNTS 75 79 0 0 0
M  V30 BEGIN ATOM
M  V30 1 O -2.7944 -3.354 -1.1968 0
M  V30 2 C -1.7989 -2.6962 -0.889 0
M  V30 3 N -1.8012 -1.3066 -0.6798 0
M  V30 4 C -0.4815 -3.3844 -0.7101 0
M  V30 5 N -0.6316 -0.6259 -0.2247 0
M  V30 6 C -3.0187 -0.5903 -0.8409 0
M  V30 7 C -0.409 -4.7242 -0.7581 0
M  V30 8 C -0.0932 0.3634 -1.1706 0
M  V30 9 C -0.7613 -0.0375 1.1163 0
M  V30 10 C -3.2566 0.1254 -2.0206 0
M  V30 11 C -3.9921 -0.638 0.1749 0
M  V30 12 C 0.8382 -5.486 -0.6117 0
M  V30 13 C 1.262 0.9112 -0.6753 0
M  V30 14 C 0.5917 0.5217 1.6118 0
M  V30 15 C -4.4531 0.8091 -2.1468 0
M  V30 16 C -5.2001 0.0467 0.0328 0
M  V30 17 C 1.8584 -5.0938 0.2658 0
M  V30 18 C 0.9907 -6.6755 -1.3362 0
M  V30 19 N 1.1788 1.5046 0.6781 0
M  V30 20 N -4.9176 1.5917 -3.2206 0
M  V30 21 C -5.4145 0.763 -1.1348 0
M  V30 22 C 3.0218 -5.8636 0.3945 0
M  V30 23 C 2.1493 -7.4454 -1.2103 0
M  V30 24 C 2.5099 1.9641 1.1092 0
M  V30 25 C -4.1915 1.9286 -4.3482 0
M  V30 26 C -6.3115 1.9756 -2.9394 0
M  V30 27 C -6.6154 1.5788 -1.4895 0
M  V30 28 C 4.06 -5.4461 1.2903 0
M  V30 29 C 3.1662 -7.0389 -0.3477 0
M  V30 30 C 2.4607 2.8201 2.3832 0
M  V30 31 O -3.0122 1.6378 -4.5455 0
M  V30 32 C -4.9436 2.7297 -5.3839 0
M  V30 33 N 4.8984 -5.1023 2.0155 0
M  V30 34 C 3.8171 3.4506 2.7116 0
M  V30 35 C 3.7723 4.3155 3.9695 0
M  V30 36 C 4.9147 2.4428 3.0504 0
M  V30 37 C 5.2408 4.5063 4.323 0
M  V30 38 C 5.9498 3.2417 3.8401 0
M  V30 39 H 0.3981 -2.7726 -0.5699 0
M  V30 40 H -1.3084 -5.3119 -0.9371 0
M  V30 41 H 0.0589 -0.103 -2.1511 0
M  V30 42 H -0.7836 1.2052 -1.3034 0
M  V30 43 H -1.5045 0.7701 1.1238 0
M  V30 44 H -1.0971 -0.8028 1.8264 0
M  V30 45 H -2.5185 0.1256 -2.8134 0
M  V30 46 H -3.8071 -1.2198 1.0742 0
M  V30 47 H 2.0027 0.1 -0.6908 0
M  V30 48 H 1.5988 1.6744 -1.3874 0
M  V30 49 H 0.4113 0.9889 2.5858 0
M  V30 50 H 1.2859 -0.3143 1.7717 0
M  V30 51 H -5.9495 0.0101 0.8169 0
M  V30 52 H 1.7491 -4.1913 0.8645 0
M  V30 53 H 0.2077 -7.0096 -2.0152 0
M  V30 54 H 2.2556 -8.3621 -1.7856 0
M  V30 55 H 2.9425 2.584 0.3132 0
M  V30 56 H 3.1839 1.11 1.2503 0
M  V30 57 H -6.9589 1.4356 -3.6404 0
M  V30 58 H -6.4525 3.0488 -3.1039 0
M  V30 59 H -7.5436 1.0044 -1.4192 0
M  V30 60 H -6.6782 2.4632 -0.8472 0
M  V30 61 H 4.0651 -7.6454 -0.2559 0
M  V30 62 H 1.7214 3.6211 2.2549 0
M  V30 63 H 2.1298 2.2149 3.2353 0
M  V30 64 H -5.8638 2.2153 -5.6724 0
M  V30 65 H -5.1759 3.723 -4.9909 0
M  V30 66 H -4.3226 2.8454 -6.2772 0
M  V30 67 H 4.1455 4.0702 1.866 0
M  V30 68 H 3.2566 3.7948 4.7857 0
M  V30 69 H 3.2638 5.27 3.802 0
M  V30 70 H 5.3532 1.9882 2.1566 0
M  V30 71 H 4.52 1.6335 3.6768 0
M  V30 72 H 5.3834 4.675 5.3947 0
M  V30 73 H 5.6439 5.3787 3.7951 0
M  V30 74 H 6.3359 2.6532 4.679 0
M  V30 75 H 6.8034 3.5074 3.2068 0
M  V30 END ATOM
M  V30 BEGIN BOND
M  V30 1 2 1 2
M  V30 2 1 2 3
M  V30 3 1 2 4
M  V30 4 1 3 5
M  V30 5 1 3 6
M  V30 6 2 4 7
M  V30 7 1 5 8
M  V30 8 1 5 9
M  V30 9 2 6 10
M  V30 10 1 6 11
M  V30 11 1 7 12
M  V30 12 1 8 13
M  V30 13 1 9 14
M  V30 14 1 10 15
M  V30 15 2 11 16
M  V30 16 2 12 17
M  V30 17 1 12 18
M  V30 18 1 13 19
M  V30 19 1 15 20
M  V30 20 2 15 21
M  V30 21 1 17 22
M  V30 22 2 18 23
M  V30 23 1 19 24
M  V30 24 1 20 25
M  V30 25 1 20 26
M  V30 26 1 21 27
M  V30 27 1 22 28
M  V30 28 2 22 29
M  V30 29 1 24 30
M  V30 30 2 25 31
M  V30 31 1 25 32
M  V30 32 3 28 33
M  V30 33 1 30 34
M  V30 34 1 34 35
M  V30 35 1 34 36
M  V30 36 1 35 37
M  V30 37 1 36 38
M  V30 38 1 14 19
M  V30 39 1 16 21
M  V30 40 1 23 29
M  V30 41 1 26 27
M  V30 42 1 37 38
M  V30 43 1 4 39
M  V30 44 1 7 40
M  V30 45 1 8 41
M  V30 46 1 8 42
M  V30 47 1 9 43
M  V30 48 1 9 44
M  V30 49 1 10 45
M  V30 50 1 11 46
M  V30 51 1 13 47
M  V30 52 1 13 48
M  V30 53 1 14 49
M  V30 54 1 14 50
M  V30 55 1 16 51
M  V30 56 1 17 52
M  V30 57 1 18 53
M  V30 58 1 23 54
M  V30 59 1 24 55
M  V30 60 1 24 56
M  V30 61 1 26 57
M  V30 62 1 26 58
M  V30 63 1 27 59
M  V30 64 1 27 60
M  V30 65 1 29 61
M  V30 66 1 30 62
M  V30 67 1 30 63
M  V30 68 1 32 64
M  V30 69 1 32 65
M  V30 70 1 32 66
M  V30 71 1 34 67
M  V30 72 1 35 68
M  V30 73 1 35 69
M  V30 74 1 36 70
M  V30 75 1 36 71
M  V30 76 1 37 72
M  V30 77 1 37 73
M  V30 78 1 38 74
M  V30 79 1 38 75
M  V30 END BOND
M  V30 END CTAB
M  END
>  <NO.>
241

>  <Name>
jnj-5207787

>  <SMILES>
CC(=O)N1CCc2ccc(N(C(=O)/C=C/c3cccc(C#N)c3)N3CCN(CCC4CCCC4)CC3)cc21

>  <logBB>
-0.63

>  <Class>
1

>  <MW>
511.29

>  <nHBAcc>
5

>  <nHBDon>
0

>  <SLogP>
4.63

>  <TopoPSA>
70.89

>  <MMFF94 Energy>
161.18

$$$$
CC(=O)Cc1ccc(C(=O)Nc2cc(-c3cccs3)ccc2N)cc1
Actelion Java MolfileCreator 2.0

  0  0  0  0  0  0              0 V3000
M  V30 BEGIN CTAB
M  V30 COUNTS 43 45 0 0 0
M  V30 BEGIN ATOM
M  V30 1 S 0.7245 -6.9395 1.1272 0
M  V30 2 C 0.8335 -5.2299 1.3188 0
M  V30 3 C 2.1898 -7.2129 1.9568 0
M  V30 4 C -0.207 -4.3302 0.7726 0
M  V30 5 C 1.9886 -4.9034 2.0139 0
M  V30 6 C 2.7669 -6.0401 2.3806 0
M  V30 7 C 0.0876 -2.978 0.5273 0
M  V30 8 C -1.5308 -4.7517 0.5762 0
M  V30 9 C -0.8879 -2.0925 0.0495 0
M  V30 10 C -2.51 -3.8731 0.0971 0
M  V30 11 N -0.6402 -0.7099 -0.0977 0
M  V30 12 C -2.1922 -2.5513 -0.2141 0
M  V30 13 C 0.5789 -0.1137 -0.3455 0
M  V30 14 N -3.1915 -1.6889 -0.6745 0
M  V30 15 O 1.6386 -0.6904 -0.5605 0
M  V30 16 C 0.5487 1.3742 -0.3973 0
M  V30 17 C 1.3904 2.0279 -1.3032 0
M  V30 18 C -0.2831 2.1239 0.4425 0
M  V30 19 C 1.3791 3.4217 -1.3927 0
M  V30 20 C -0.2892 3.5184 0.354 0
M  V30 21 C 0.539 4.1792 -0.5647 0
M  V30 22 C 0.5153 5.6852 -0.668 0
M  V30 23 C -0.6604 6.2425 -1.4539 0
M  V30 24 O -1.6599 5.5856 -1.7442 0
M  V30 25 C -0.5637 7.698 -1.8354 0
M  V30 26 H 2.5584 -8.22 2.0934 0
M  V30 27 H 2.2715 -3.8868 2.2594 0
M  V30 28 H 3.7014 -5.9952 2.9258 0
M  V30 29 H 1.0902 -2.6078 0.7192 0
M  V30 30 H -1.8326 -5.7715 0.8023 0
M  V30 31 H -3.5221 -4.2432 -0.0416 0
M  V30 32 H -1.471 -0.1334 -0.0667 0
M  V30 33 H -4.0995 -2.0878 -0.8806 0
M  V30 34 H -2.9029 -0.9291 -1.2783 0
M  V30 35 H 2.0496 1.4504 -1.9484 0
M  V30 36 H -0.9165 1.6428 1.1828 0
M  V30 37 H 2.0314 3.9071 -2.1154 0
M  V30 38 H -0.9519 4.0885 1.0026 0
M  V30 39 H 0.4915 6.1205 0.3379 0
M  V30 40 H 1.44 6.0306 -1.1454 0
M  V30 41 H -1.4561 7.9936 -2.3942 0
M  V30 42 H -0.4927 8.3089 -0.9322 0
M  V30 43 H 0.3139 7.854 -2.4673 0
M  V30 END ATOM
M  V30 BEGIN BOND
M  V30 1 1 1 2
M  V30 2 1 1 3
M  V30 3 1 2 4
M  V30 4 2 2 5
M  V30 5 2 3 6
M  V30 6 2 4 7
M  V30 7 1 4 8
M  V30 8 1 7 9
M  V30 9 2 8 10
M  V30 10 1 9 11
M  V30 11 2 9 12
M  V30 12 1 11 13
M  V30 13 1 12 14
M  V30 14 2 13 15
M  V30 15 1 13 16
M  V30 16 2 16 17
M  V30 17 1 16 18
M  V30 18 1 17 19
M  V30 19 2 18 20
M  V30 20 2 19 21
M  V30 21 1 21 22
M  V30 22 1 22 23
M  V30 23 2 23 24
M  V30 24 1 23 25
M  V30 25 1 5 6
M  V30 26 1 10 12
M  V30 27 1 20 21
M  V30 28 1 3 26
M  V30 29 1 5 27
M  V30 30 1 6 28
M  V30 31 1 7 29
M  V30 32 1 8 30
M  V30 33 1 10 31
M  V30 34 1 11 32
M  V30 35 1 14 33
M  V30 36 1 14 34
M  V30 37 1 17 35
M  V30 38 1 18 36
M  V30 39 1 19 37
M  V30 40 1 20 38
M  V30 41 1 22 39
M  V30 42 1 22 40
M  V30 43 1 25 41
M  V30 44 1 25 42
M  V30 45 1 25 43
M  V30 END BOND
M  V30 END CTAB
M  END
>  <NO.>
242

>  <Name>


>  <SMILES>
CC(=O)Cc1ccc(C(=O)Nc2cc(-c3cccs3)ccc2N)cc1

>  <logBB>
-0.62

>  <Class>
1

>  <MW>
350.11

>  <nHBAcc>
4

>  <nHBDon>
2

>  <SLogP>
4.38

>  <TopoPSA>
72.19

>  <MMFF94 Energy>
69.361

$$$$
NC(=O)C(c1ccccc1)(c1ccccc1)C1CCN(CCc2ccc3c(c2)CCO3)C1
Actelion Java MolfileCreator 2.0

  0  0  0  0  0  0              0 V3000
M  V30 BEGIN CTAB
M  V30 COUNTS 62 66 0 0 0
M  V30 BEGIN ATOM
M  V30 1 O 2.6444 -1.2814 2.083 0
M  V30 2 C 2.0434 -0.8155 3.0476 0
M  V30 3 N 2.5762 -1.0212 4.2955 0
M  V30 4 C 0.6562 -0.0635 2.9759 0
M  V30 5 C -0.5195 -1.0846 3.2143 0
M  V30 6 C 0.6663 1.0884 4.048 0
M  V30 7 C 0.4511 0.5494 1.5288 0 CFG=2
M  V30 8 C -0.2992 -2.4128 3.6244 0
M  V30 9 C -1.8628 -0.6954 3.0004 0
M  V30 10 C -0.2851 1.1901 5.0812 0
M  V30 11 C 1.7048 2.0445 4.0515 0
M  V30 12 C 0.2057 -0.4781 0.3994 0
M  V30 13 C 1.5335 1.4564 0.9336 0
M  V30 14 C -1.3632 -3.3017 3.8147 0
M  V30 15 C -2.9239 -1.5842 3.1916 0
M  V30 16 C -0.2306 2.2174 6.0306 0
M  V30 17 C 1.7609 3.0708 4.9996 0
M  V30 18 N 0.9235 0.0226 -0.7829 0
M  V30 19 C 1.2161 1.431 -0.5524 0
M  V30 20 C -2.6733 -2.8884 3.5994 0
M  V30 21 C 0.7875 3.1617 5.9858 0
M  V30 22 C 0.2169 -0.2599 -2.0345 0
M  V30 23 C 1.0586 0.0637 -3.2789 0
M  V30 24 C 0.333 -0.3055 -4.5534 0
M  V30 25 C -0.4928 0.6324 -5.1942 0
M  V30 26 C 0.4551 -1.6091 -5.0828 0
M  V30 27 C -1.1511 0.2512 -6.3502 0
M  V30 28 C -0.2267 -1.9791 -6.2447 0
M  V30 29 C -1.0145 -1.03 -6.8594 0
M  V30 30 C -2.1134 1.005 -7.1832 0
M  V30 31 O -1.746 -1.251 -7.9976 0
M  V30 32 C -2.1571 0.0772 -8.3982 0
M  V30 33 H 2.1434 -0.6706 5.1405 0
M  V30 34 H 3.4575 -1.5119 4.3594 0
M  V30 35 H -0.4457 1.1878 1.5664 0
M  V30 36 H 0.7012 -2.8038 3.791 0
M  V30 37 H -2.1045 0.3206 2.694 0
M  V30 38 H -1.0902 0.4689 5.1928 0
M  V30 39 H 2.5145 1.9918 3.3269 0
M  V30 40 H 0.5729 -1.4806 0.6366 0
M  V30 41 H -0.8735 -0.5545 0.2155 0
M  V30 42 H 2.5435 1.0727 1.1095 0
M  V30 43 H 1.4765 2.4805 1.3138 0
M  V30 44 H -1.1621 -4.3244 4.1249 0
M  V30 45 H -3.9457 -1.2548 3.0209 0
M  V30 46 H -0.9865 2.2717 6.8106 0
M  V30 47 H 2.5732 3.7928 4.969 0
M  V30 48 H 2.0683 1.7828 -1.1414 0
M  V30 49 H 0.3486 2.0685 -0.765 0
M  V30 50 H -3.4957 -3.5835 3.7451 0
M  V30 51 H 0.8288 3.9576 6.7244 0
M  V30 52 H -0.7349 0.2867 -2.0722 0
M  V30 53 H -0.0353 -1.3285 -2.06 0
M  V30 54 H 1.31 1.1309 -3.3136 0
M  V30 55 H 2.0156 -0.4724 -3.2393 0
M  V30 56 H -0.6194 1.6326 -4.791 0
M  V30 57 H 1.0836 -2.3428 -4.5813 0
M  V30 58 H -0.139 -2.9793 -6.653 0
M  V30 59 H -3.0883 1.0526 -6.6872 0
M  V30 60 H -1.7776 2.0103 -7.4498 0
M  V30 61 H -3.1613 0.0299 -8.8323 0
M  V30 62 H -1.467 0.4185 -9.1806 0
M  V30 END ATOM
M  V30 BEGIN BOND
M  V30 1 2 1 2
M  V30 2 1 2 3
M  V30 3 1 2 4
M  V30 4 1 4 5
M  V30 5 1 4 6
M  V30 6 1 4 7
M  V30 7 2 5 8
M  V30 8 1 5 9
M  V30 9 2 6 10
M  V30 10 1 6 11
M  V30 11 1 7 12
M  V30 12 1 7 13
M  V30 13 1 8 14
M  V30 14 2 9 15
M  V30 15 1 10 16
M  V30 16 2 11 17
M  V30 17 1 12 18
M  V30 18 1 13 19
M  V30 19 2 14 20
M  V30 20 2 16 21
M  V30 21 1 18 22
M  V30 22 1 22 23
M  V30 23 1 23 24
M  V30 24 2 24 25
M  V30 25 1 24 26
M  V30 26 1 25 27
M  V30 27 2 26 28
M  V30 28 2 27 29
M  V30 29 1 27 30
M  V30 30 1 29 31
M  V30 31 1 30 32
M  V30 32 1 15 20
M  V30 33 1 17 21
M  V30 34 1 18 19
M  V30 35 1 28 29
M  V30 36 1 31 32
M  V30 37 1 3 33
M  V30 38 1 3 34
M  V30 39 1 7 35
M  V30 40 1 8 36
M  V30 41 1 9 37
M  V30 42 1 10 38
M  V30 43 1 11 39
M  V30 44 1 12 40
M  V30 45 1 12 41
M  V30 46 1 13 42
M  V30 47 1 13 43
M  V30 48 1 14 44
M  V30 49 1 15 45
M  V30 50 1 16 46
M  V30 51 1 17 47
M  V30 52 1 19 48
M  V30 53 1 19 49
M  V30 54 1 20 50
M  V30 55 1 21 51
M  V30 56 1 22 52
M  V30 57 1 22 53
M  V30 58 1 23 54
M  V30 59 1 23 55
M  V30 60 1 25 56
M  V30 61 1 26 57
M  V30 62 1 28 58
M  V30 63 1 30 59
M  V30 64 1 30 60
M  V30 65 1 32 61
M  V30 66 1 32 62
M  V30 END BOND
M  V30 BEGIN COLLECTION
M  V30 MDLV30/STERAC1 ATOMS=(1 7)
M  V30 END COLLECTION
M  V30 END CTAB
M  END
>  <NO.>
243

>  <Name>
darifenacin

>  <SMILES>
NC(=O)C(c1ccccc1)(c1ccccc1)C1CCN(CCc2ccc3c(c2)CCO3)C1

>  <logBB>
-0.62

>  <Class>
1

>  <MW>
426.23

>  <nHBAcc>
3

>  <nHBDon>
1

>  <SLogP>
3.96

>  <TopoPSA>
55.56

>  <MMFF94 Energy>
126.8

$$$$
CSC(=N)N
Actelion Java MolfileCreator 2.0

  0  0  0  0  0  0              0 V3000
M  V30 BEGIN CTAB
M  V30 COUNTS 11 10 0 0 0
M  V30 BEGIN ATOM
M  V30 1 S -0.9366 0.4682 -0.7805 0
M  V30 2 C 0.3622 0.8089 0.3129 0
M  V30 3 C -0.6478 -1.3024 -0.9901 0
M  V30 4 N 1.5539 0.9431 -0.1413 0
M  V30 5 N 0.0505 0.9265 1.6113 0
M  V30 6 H -0.7067 -1.8158 -0.0264 0
M  V30 7 H 0.3346 -1.4816 -1.4349 0
M  V30 8 H -1.4111 -1.7175 -1.6534 0
M  V30 9 H 1.5039 0.8345 -1.1598 0
M  V30 10 H 0.7861 1.1622 2.2616 0
M  V30 11 H -0.9064 0.8831 1.9255 0
M  V30 END ATOM
M  V30 BEGIN BOND
M  V30 1 1 1 2
M  V30 2 1 1 3
M  V30 3 2 2 4
M  V30 4 1 2 5
M  V30 5 1 3 6
M  V30 6 1 3 7
M  V30 7 1 3 8
M  V30 8 1 4 9
M  V30 9 1 5 10
M  V30 10 1 5 11
M  V30 END BOND
M  V30 END CTAB
M  END
>  <NO.>
246

>  <Name>
s-methylisothiourea

>  <SMILES>
CSC(=N)N

>  <logBB>
-0.6

>  <Class>
1

>  <MW>
90.03

>  <nHBAcc>
2

>  <nHBDon>
2

>  <SLogP>
0.24

>  <TopoPSA>
49.87

>  <MMFF94 Energy>
-91.251

$$$$
COc1ccc2c3c1O[C@@H]1C(O)CC[C@@]4(O)C(C2)NCC[C@]314
Actelion Java MolfileCreator 2.0

  0  0  0  0  0  0              0 V3000
M  V30 BEGIN CTAB
M  V30 COUNTS 43 47 0 0 0
M  V30 BEGIN ATOM
M  V30 1 O -2.0313 0.4872 -0.6497 0
M  V30 2 C -1.6152 -0.4744 0.2877 0
M  V30 3 C -0.8317 1.2952 -0.6107 0 CFG=1
M  V30 4 C -2.3702 -1.216 1.1669 0
M  V30 5 C -0.2178 -0.5073 0.347 0
M  V30 6 C 0.332 0.3198 -0.7618 0 CFG=2
M  V30 7 C -0.5796 2.5389 -1.4342 0
M  V30 8 O -3.7232 -1.1435 1.0404 0
M  V30 9 C -1.6522 -1.9424 2.1383 0
M  V30 10 C 0.511 -1.1419 1.3195 0
M  V30 11 C 1.7068 0.9499 -0.5378 0 CFG=2
M  V30 12 C 0.4356 -0.6317 -1.9721 0
M  V30 13 O -1.7012 3.4184 -1.3873 0
M  V30 14 C 0.6513 3.2504 -0.7677 0
M  V30 15 C -4.4955 -1.916 1.9487 0
M  V30 16 C -0.2306 -1.8861 2.2312 0
M  V30 17 C 1.9929 -0.887 1.3527 0
M  V30 18 O 2.3317 1.2939 -1.8106 0
M  V30 19 C 2.5672 -0.2006 0.0643 0
M  V30 20 C 1.5651 2.3185 0.1248 0
M  V30 21 C 1.544 -1.6861 -1.6994 0
M  V30 22 N 2.7831 -1.171 -1.0702 0
M  V30 23 H -0.8932 1.7342 0.4089 0
M  V30 24 H -0.3845 2.3001 -2.4846 0
M  V30 25 H -2.1714 -2.5435 2.8799 0
M  V30 26 H 0.6679 -0.0715 -2.8859 0
M  V30 27 H -0.5045 -1.1576 -2.1825 0
M  V30 28 H -2.4935 2.8716 -1.5468 0
M  V30 29 H 1.2591 3.6953 -1.5659 0
M  V30 30 H 0.316 4.0926 -0.1491 0
M  V30 31 H -4.2795 -2.9843 1.8427 0
M  V30 32 H -5.5514 -1.764 1.7043 0
M  V30 33 H -4.3415 -1.5824 2.9803 0
M  V30 34 H 0.2672 -2.4233 3.0357 0
M  V30 35 H 2.1946 -0.225 2.2045 0
M  V30 36 H 2.5247 -1.828 1.5374 0
M  V30 37 H 2.8347 0.4907 -2.0713 0
M  V30 38 H 3.5647 0.1883 0.3037 0
M  V30 39 H 2.5429 2.8041 0.2302 0
M  V30 40 H 1.1449 2.229 1.1332 0
M  V30 41 H 1.8166 -2.1569 -2.6507 0
M  V30 42 H 1.1392 -2.492 -1.0756 0
M  V30 43 H 3.3325 -1.9643 -0.734 0
M  V30 END ATOM
M  V30 BEGIN BOND
M  V30 1 1 1 2
M  V30 2 1 1 3
M  V30 3 2 2 4
M  V30 4 1 2 5
M  V30 5 1 3 6
M  V30 6 1 3 7
M  V30 7 1 4 8
M  V30 8 1 4 9
M  V30 9 2 5 10
M  V30 10 1 6 11
M  V30 11 1 6 12
M  V30 12 1 7 13
M  V30 13 1 7 14
M  V30 14 1 8 15
M  V30 15 2 9 16
M  V30 16 1 10 17
M  V30 17 1 11 18
M  V30 18 1 11 19
M  V30 19 1 11 20
M  V30 20 1 12 21
M  V30 21 1 19 22
M  V30 22 1 5 6
M  V30 23 1 10 16
M  V30 24 1 14 20
M  V30 25 1 17 19
M  V30 26 1 21 22
M  V30 27 1 3 23
M  V30 28 1 7 24
M  V30 29 1 9 25
M  V30 30 1 12 26
M  V30 31 1 12 27
M  V30 32 1 13 28
M  V30 33 1 14 29
M  V30 34 1 14 30
M  V30 35 1 15 31
M  V30 36 1 15 32
M  V30 37 1 15 33
M  V30 38 1 16 34
M  V30 39 1 17 35
M  V30 40 1 17 36
M  V30 41 1 18 37
M  V30 42 1 19 38
M  V30 43 1 20 39
M  V30 44 1 20 40
M  V30 45 1 21 41
M  V30 46 1 21 42
M  V30 47 1 22 43
M  V30 END BOND
M  V30 BEGIN COLLECTION
M  V30 MDLV30/STEABS ATOMS=(3 3 6 11)
M  V30 END COLLECTION
M  V30 END CTAB
M  END
>  <NO.>
247

>  <Name>
beta-oxycodol

>  <SMILES>
COc1ccc2c3c1O[C@@H]1C(O)CC[C@@]4(O)C(C2)NCC[C@]314

>  <logBB>
-0.6

>  <Class>
1

>  <MW>
303.15

>  <nHBAcc>
5

>  <nHBDon>
3

>  <SLogP>
0.5

>  <TopoPSA>
70.95

>  <MMFF94 Energy>
154.22

$$$$
COc1ccc2c3c1O[C@H]1[C@H](O)CC[C@@]4(O)C(C2)N(C)CC[C@]314
Actelion Java MolfileCreator 2.0

  0  0  0  0  0  0              0 V3000
M  V30 BEGIN CTAB
M  V30 COUNTS 46 50 0 0 0
M  V30 BEGIN ATOM
M  V30 1 O 0.4853 -1.7806 -1.6996 0
M  V30 2 C 0.6718 -1.7358 -0.3333 0
M  V30 3 C -0.3912 -0.6183 -1.9677 0 CFG=2
M  V30 4 C 1.0999 -2.7592 0.4902 0
M  V30 5 C 0.3222 -0.5035 0.1858 0
M  V30 6 C -0.0249 0.4404 -0.9141 0 CFG=2
M  V30 7 C -1.8599 -1.116 -1.9149 0 CFG=2
M  V30 8 O 1.4396 -3.9339 -0.1114 0
M  V30 9 C 1.1175 -2.4972 1.8704 0
M  V30 10 C 0.2838 -0.2294 1.5382 0
M  V30 11 C -1.1283 1.4023 -0.4523 0 CFG=2
M  V30 12 C 1.2463 1.2387 -1.2914 0
M  V30 13 O -2.2167 -1.6697 -3.1877 0
M  V30 14 C -2.8712 -0.0285 -1.5619 0
M  V30 15 C 1.9225 -4.9734 0.7267 0
M  V30 16 C 0.697 -1.2498 2.392 0
M  V30 17 C -0.2732 1.0927 1.9961 0
M  V30 18 O -1.3364 2.4216 -1.4554 0
M  V30 19 C -0.5848 2.1064 0.8409 0
M  V30 20 C -2.4856 0.7113 -0.2803 0
M  V30 21 C 1.6821 2.1971 -0.1685 0
M  V30 22 N 0.5569 2.9667 0.3896 0
M  V30 23 C 1.0185 3.8863 1.4277 0
M  V30 24 H -0.1561 -0.2696 -2.9807 0
M  V30 25 H -1.9513 -1.9361 -1.192 0
M  V30 26 H 1.4311 -3.2554 2.5815 0
M  V30 27 H 1.0545 1.8193 -2.2033 0
M  V30 28 H 2.0862 0.573 -1.5291 0
M  V30 29 H -3.072 -2.1189 -3.0799 0
M  V30 30 H -3.863 -0.4815 -1.4393 0
M  V30 31 H -2.9758 0.6716 -2.4002 0
M  V30 32 H 2.8332 -4.6678 1.2524 0
M  V30 33 H 2.1762 -5.8265 0.0902 0
M  V30 34 H 1.1512 -5.3018 1.4312 0
M  V30 35 H 0.6903 -1.1011 3.4696 0
M  V30 36 H 0.3965 1.5362 2.7394 0
M  V30 37 H -1.2177 0.8834 2.5156 0
M  V30 38 H -0.6802 3.1205 -1.244 0
M  V30 39 H -1.3619 2.7968 1.197 0
M  V30 40 H -2.4844 0.0071 0.5584 0
M  V30 41 H -3.2587 1.4604 -0.0688 0
M  V30 42 H 2.2019 1.6377 0.6189 0
M  V30 43 H 2.4212 2.8895 -0.5907 0
M  V30 44 H 1.7269 4.6072 1.0046 0
M  V30 45 H 1.5159 3.376 2.2583 0
M  V30 46 H 0.1831 4.4705 1.8286 0
M  V30 END ATOM
M  V30 BEGIN BOND
M  V30 1 1 1 2
M  V30 2 1 1 3
M  V30 3 2 2 4
M  V30 4 1 2 5
M  V30 5 1 3 6
M  V30 6 1 3 7
M  V30 7 1 4 8
M  V30 8 1 4 9
M  V30 9 2 5 10
M  V30 10 1 6 11
M  V30 11 1 6 12
M  V30 12 1 7 13
M  V30 13 1 7 14
M  V30 14 1 8 15
M  V30 15 2 9 16
M  V30 16 1 10 17
M  V30 17 1 11 18
M  V30 18 1 11 19
M  V30 19 1 11 20
M  V30 20 1 12 21
M  V30 21 1 19 22
M  V30 22 1 22 23
M  V30 23 1 5 6
M  V30 24 1 10 16
M  V30 25 1 14 20
M  V30 26 1 17 19
M  V30 27 1 21 22
M  V30 28 1 3 24
M  V30 29 1 7 25
M  V30 30 1 9 26
M  V30 31 1 12 27
M  V30 32 1 12 28
M  V30 33 1 13 29
M  V30 34 1 14 30
M  V30 35 1 14 31
M  V30 36 1 15 32
M  V30 37 1 15 33
M  V30 38 1 15 34
M  V30 39 1 16 35
M  V30 40 1 17 36
M  V30 41 1 17 37
M  V30 42 1 18 38
M  V30 43 1 19 39
M  V30 44 1 20 40
M  V30 45 1 20 41
M  V30 46 1 21 42
M  V30 47 1 21 43
M  V30 48 1 23 44
M  V30 49 1 23 45
M  V30 50 1 23 46
M  V30 END BOND
M  V30 BEGIN COLLECTION
M  V30 MDLV30/STEABS ATOMS=(4 3 6 7 11)
M  V30 END COLLECTION
M  V30 END CTAB
M  END
>  <NO.>
248

>  <Name>
(4as,7r,7ar,12bs)-9-methoxy-3-methyl-1,2,4,5,6,7,7a,13-octahydro-4,12-methanobenzofuro[3,2-e]isoquinoline-4a,7-diol

>  <SMILES>
COc1ccc2c3c1O[C@H]1[C@H](O)CC[C@@]4(O)C(C2)N(C)CC[C@]314

>  <logBB>
-0.6

>  <Class>
1

>  <MW>
317.16

>  <nHBAcc>
5

>  <nHBDon>
2

>  <SLogP>
0.84

>  <TopoPSA>
62.16

>  <MMFF94 Energy>
125.35

$$$$
C[C@@H]1CCCN1CCCOc1ccc(N2CCN(C(=O)c3ccc(F)cc3F)CC2=O)cc1
Actelion Java MolfileCreator 2.0

  0  0  0  0  0  0              0 V3000
M  V30 BEGIN CTAB
M  V30 COUNTS 62 65 0 0 0
M  V30 BEGIN ATOM
M  V30 1 F -3.5205 7.5326 2.2392 0
M  V30 2 C -3.8104 7.054 3.4575 0
M  V30 3 C -4.3096 5.7601 3.6173 0
M  V30 4 C -3.607 7.8761 4.5608 0
M  V30 5 C -4.5672 4.8902 2.4542 0
M  V30 6 C -4.6488 5.2954 4.8949 0
M  V30 7 C -3.9247 7.3976 5.8263 0
M  V30 8 O -5.7004 4.4269 2.342 0
M  V30 9 N -3.5416 4.6035 1.5651 0
M  V30 10 C -4.4462 6.1182 6.0044 0
M  V30 11 F -3.7341 8.1835 6.8935 0
M  V30 12 C -2.1238 4.8936 1.7767 0
M  V30 13 C -3.8368 3.8743 0.3426 0
M  V30 14 C -1.1216 3.8235 1.2954 0
M  V30 15 C -3.0708 2.5597 0.3589 0
M  V30 16 O 0.0757 3.9737 1.5537 0
M  V30 17 N -1.6286 2.769 0.5298 0
M  V30 18 C -0.7578 1.781 -0.0049 0
M  V30 19 C -0.9971 0.4212 0.222 0
M  V30 20 C 0.3331 2.1562 -0.7921 0
M  V30 21 C -0.1554 -0.5524 -0.3309 0
M  V30 22 C 1.1703 1.1825 -1.3436 0
M  V30 23 C 0.932 -0.1747 -1.118 0
M  V30 24 O 1.8252 -1.0183 -1.7172 0
M  V30 25 C 1.6558 -2.4175 -1.4886 0
M  V30 26 C 2.7696 -3.1538 -2.2296 0
M  V30 27 C 2.6347 -4.6699 -2.0602 0
M  V30 28 N 3.7502 -5.4067 -2.6649 0
M  V30 29 C 3.6697 -6.8604 -2.448 0 CFG=1
M  V30 30 C 3.819 -5.2454 -4.1227 0
M  V30 31 C 4.7096 -7.3884 -3.4331 0
M  V30 32 C 3.9889 -7.2909 -1.0211 0
M  V30 33 C 4.6676 -6.4151 -4.6019 0
M  V30 34 H -3.2143 8.8788 4.436 0
M  V30 35 H -5.074 4.302 5.0219 0
M  V30 36 H -4.6989 5.7751 7.0037 0
M  V30 37 H -1.8996 5.8138 1.2257 0
M  V30 38 H -1.9269 5.0603 2.8396 0
M  V30 39 H -4.9093 3.6867 0.2331 0
M  V30 40 H -3.5189 4.5001 -0.4998 0
M  V30 41 H -3.4129 1.9398 1.1968 0
M  V30 42 H -3.2559 2.0225 -0.5785 0
M  V30 43 H -1.8274 0.0999 0.8444 0
M  V30 44 H 0.5464 3.205 -0.9813 0
M  V30 45 H -0.3765 -1.5935 -0.1225 0
M  V30 46 H 2.0196 1.4872 -1.9503 0
M  V30 47 H 0.6828 -2.7438 -1.8754 0
M  V30 48 H 1.7249 -2.6343 -0.4157 0
M  V30 49 H 2.7353 -2.8704 -3.2886 0
M  V30 50 H 3.742 -2.8105 -1.8537 0
M  V30 51 H 2.606 -4.8801 -0.9847 0
M  V30 52 H 1.6756 -5.005 -2.4762 0
M  V30 53 H 2.6791 -7.2407 -2.7336 0
M  V30 54 H 4.2738 -4.2917 -4.4087 0
M  V30 55 H 2.8242 -5.3068 -4.5826 0
M  V30 56 H 5.7156 -7.3878 -2.9947 0
M  V30 57 H 4.4869 -8.4122 -3.7513 0
M  V30 58 H 3.2114 -6.9677 -0.3219 0
M  V30 59 H 4.9437 -6.8757 -0.6798 0
M  V30 60 H 4.0571 -8.3823 -0.957 0
M  V30 61 H 5.682 -6.0929 -4.862 0
M  V30 62 H 4.2243 -6.88 -5.489 0
M  V30 END ATOM
M  V30 BEGIN BOND
M  V30 1 1 1 2
M  V30 2 2 2 3
M  V30 3 1 2 4
M  V30 4 1 3 5
M  V30 5 1 3 6
M  V30 6 2 4 7
M  V30 7 2 5 8
M  V30 8 1 5 9
M  V30 9 2 6 10
M  V30 10 1 7 11
M  V30 11 1 9 12
M  V30 12 1 9 13
M  V30 13 1 12 14
M  V30 14 1 13 15
M  V30 15 2 14 16
M  V30 16 1 14 17
M  V30 17 1 17 18
M  V30 18 2 18 19
M  V30 19 1 18 20
M  V30 20 1 19 21
M  V30 21 2 20 22
M  V30 22 2 21 23
M  V30 23 1 23 24
M  V30 24 1 24 25
M  V30 25 1 25 26
M  V30 26 1 26 27
M  V30 27 1 27 28
M  V30 28 1 28 29
M  V30 29 1 28 30
M  V30 30 1 29 31
M  V30 31 1 29 32
M  V30 32 1 30 33
M  V30 33 1 7 10
M  V30 34 1 15 17
M  V30 35 1 22 23
M  V30 36 1 31 33
M  V30 37 1 4 34
M  V30 38 1 6 35
M  V30 39 1 10 36
M  V30 40 1 12 37
M  V30 41 1 12 38
M  V30 42 1 13 39
M  V30 43 1 13 40
M  V30 44 1 15 41
M  V30 45 1 15 42
M  V30 46 1 19 43
M  V30 47 1 20 44
M  V30 48 1 21 45
M  V30 49 1 22 46
M  V30 50 1 25 47
M  V30 51 1 25 48
M  V30 52 1 26 49
M  V30 53 1 26 50
M  V30 54 1 27 51
M  V30 55 1 27 52
M  V30 56 1 29 53
M  V30 57 1 30 54
M  V30 58 1 30 55
M  V30 59 1 31 56
M  V30 60 1 31 57
M  V30 61 1 32 58
M  V30 62 1 32 59
M  V30 63 1 32 60
M  V30 64 1 33 61
M  V30 65 1 33 62
M  V30 END BOND
M  V30 BEGIN COLLECTION
M  V30 MDLV30/STEABS ATOMS=(1 29)
M  V30 END COLLECTION
M  V30 END CTAB
M  END
>  <NO.>
249

>  <Name>
chembl239299

>  <SMILES>
C[C@@H]1CCCN1CCCOc1ccc(N2CCN(C(=O)c3ccc(F)cc3F)CC2=O)cc1

>  <logBB>
-0.6

>  <Class>
1

>  <MW>
457.22

>  <nHBAcc>
4

>  <nHBDon>
0

>  <SLogP>
3.71

>  <TopoPSA>
53.09

>  <MMFF94 Energy>
83.846

$$$$
O=S1(=O)N[C@H]2CCCN2c2ccccc21
Actelion Java MolfileCreator 2.0

  0  0  0  0  0  0              0 V3000
M  V30 BEGIN CTAB
M  V30 COUNTS 27 29 0 0 0
M  V30 BEGIN ATOM
M  V30 1 S 1.2312 0.3282 1.9705 0
M  V30 2 O 1.7122 1.606 2.4482 0
M  V30 3 O 1.6056 -0.9049 2.6306 0
M  V30 4 N -0.4554 0.3934 2.0151 0
M  V30 5 C 1.6155 0.1689 0.263 0
M  V30 6 C -1.0144 -0.65 1.175 0 CFG=2
M  V30 7 C 0.5839 -0.1333 -0.6335 0
M  V30 8 C 2.9304 0.4222 -0.1488 0
M  V30 9 N -0.7 -0.3615 -0.2071 0
M  V30 10 C -2.5464 -0.6288 1.2242 0
M  V30 11 C 0.9327 -0.1793 -1.9907 0
M  V30 12 C 3.2437 0.3607 -1.5015 0
M  V30 13 C -1.8872 -0.0862 -1.0029 0
M  V30 14 C -2.9404 0.2518 0.0474 0
M  V30 15 C 2.2443 0.0597 -2.4224 0
M  V30 16 H -0.7337 0.2694 2.9866 0
M  V30 17 H -0.6654 -1.6417 1.4875 0
M  V30 18 H 3.6979 0.674 0.5792 0
M  V30 19 H -2.9542 -0.2668 2.1731 0
M  V30 20 H -2.932 -1.6422 1.055 0
M  V30 21 H 0.1836 -0.421 -2.7405 0
M  V30 22 H 4.2591 0.5531 -1.838 0
M  V30 23 H -2.1707 -0.9776 -1.5732 0
M  V30 24 H -1.7592 0.7562 -1.6914 0
M  V30 25 H -2.8649 1.3086 0.3308 0
M  V30 26 H -3.9586 0.0629 -0.3037 0
M  V30 27 H 2.4803 0.0105 -3.4826 0
M  V30 END ATOM
M  V30 BEGIN BOND
M  V30 1 2 1 2
M  V30 2 2 1 3
M  V30 3 1 1 4
M  V30 4 1 1 5
M  V30 5 1 4 6
M  V30 6 2 5 7
M  V30 7 1 5 8
M  V30 8 1 6 9
M  V30 9 1 6 10
M  V30 10 1 7 11
M  V30 11 2 8 12
M  V30 12 1 9 13
M  V30 13 1 10 14
M  V30 14 2 11 15
M  V30 15 1 7 9
M  V30 16 1 12 15
M  V30 17 1 13 14
M  V30 18 1 4 16
M  V30 19 1 6 17
M  V30 20 1 8 18
M  V30 21 1 10 19
M  V30 22 1 10 20
M  V30 23 1 11 21
M  V30 24 1 12 22
M  V30 25 1 13 23
M  V30 26 1 13 24
M  V30 27 1 14 25
M  V30 28 1 14 26
M  V30 29 1 15 27
M  V30 END BOND
M  V30 BEGIN COLLECTION
M  V30 MDLV30/STEABS ATOMS=(1 6)
M  V30 END COLLECTION
M  V30 END CTAB
M  END
>  <NO.>
250

>  <Name>
s 18986

>  <SMILES>
O=S1(=O)N[C@H]2CCCN2c2ccccc21

>  <logBB>
-0.6

>  <Class>
1

>  <MW>
224.06

>  <nHBAcc>
3

>  <nHBDon>
1

>  <SLogP>
0.9

>  <TopoPSA>
49.41

>  <MMFF94 Energy>
-112.07

$$$$
CC(C)CC1C(=O)N2CCC[C@H]2C2O[C@](NC(=O)[C@@H]3C=C4c5cccc6[nH]c(Br)c(c56)C[C@H]4N(C)C3)(C(C)C)C(=O)N12
Actelion Java MolfileCreator 2.0

  0  0  0  0  0  0              0 V3000
M  V30 BEGIN CTAB
M  V30 COUNTS 82 88 0 0 0
M  V30 BEGIN ATOM
M  V30 1 Br 8.3533 -2.3466 4.6973 0
M  V30 2 C 7.1818 -0.8972 4.3445 0
M  V30 3 N 7.3107 0.3589 4.8799 0
M  V30 4 C 6.0705 -0.9113 3.5405 0
M  V30 5 C 6.2847 1.1677 4.4415 0
M  V30 6 C 5.509 0.3858 3.5979 0
M  V30 7 C 5.394 -1.9638 2.7346 0
M  V30 8 C 5.969 2.502 4.7031 0
M  V30 9 C 4.3701 0.8963 2.9569 0
M  V30 10 C 4.4967 -1.3204 1.6106 0 CFG=2
M  V30 11 C 4.8319 3.0193 4.0651 0
M  V30 12 C 3.6855 -0.061 2.0529 0
M  V30 13 C 4.0475 2.2373 3.2051 0
M  V30 14 N 3.6906 -2.3391 0.868 0
M  V30 15 C 2.44 0.178 1.5953 0
M  V30 16 C 2.799 -1.6613 -0.0928 0
M  V30 17 C 2.9452 -3.2535 1.7325 0
M  V30 18 C 1.7847 -0.7053 0.5635 0 CFG=2
M  V30 19 C 1.1134 0.1229 -0.5427 0
M  V30 20 O 1.4582 1.2645 -0.8272 0
M  V30 21 N 0.0846 -0.5425 -1.1697 0
M  V30 22 C -0.657 -0.0471 -2.3179 0 CFG=2
M  V30 23 O -1.0659 1.3145 -2.0993 0
M  V30 24 C -2.0071 -0.8012 -2.3257 0
M  V30 25 C 0.0672 -0.1848 -3.6797 0
M  V30 26 C -2.3565 1.3241 -1.5119 0
M  V30 27 O -2.1878 -1.989 -2.5442 0
M  V30 28 N -2.9537 0.0841 -1.8818 0
M  V30 29 C 1.1363 0.8876 -3.9199 0
M  V30 30 C 0.6861 -1.5691 -3.9065 0
M  V30 31 C -3.2088 2.4605 -2.0597 0 CFG=1
M  V30 32 C -4.3731 -0.1915 -1.6237 0
M  V30 33 N -4.6178 2.3029 -1.7274 0
M  V30 34 C -2.8788 3.8529 -1.5347 0
M  V30 35 C -5.2699 1.0892 -1.659 0
M  V30 36 C -4.5047 -0.8949 -0.2548 0
M  V30 37 C -5.2691 3.5835 -1.5322 0
M  V30 38 C -4.1774 4.6132 -1.8152 0
M  V30 39 O -6.4936 1.0283 -1.5425 0
M  V30 40 C -5.8316 -1.6388 0.0028 0
M  V30 41 C -6.0809 -2.7603 -1.0062 0
M  V30 42 C -5.8257 -2.218 1.4216 0
M  V30 43 H 8.0457 0.6423 5.511 0
M  V30 44 H 4.7876 -2.5525 3.4323 0
M  V30 45 H 6.1286 -2.6356 2.276 0
M  V30 46 H 6.5722 3.118 5.3612 0
M  V30 47 H 5.2132 -0.9298 0.8694 0
M  V30 48 H 4.5568 4.0589 4.2335 0
M  V30 49 H 3.1947 2.7001 2.7161 0
M  V30 50 H 1.8712 1.0459 1.9153 0
M  V30 51 H 2.2682 -2.4134 -0.6915 0
M  V30 52 H 3.4171 -1.1162 -0.8207 0
M  V30 53 H 2.3496 -2.7379 2.4932 0
M  V30 54 H 3.6228 -3.9518 2.234 0
M  V30 55 H 2.2689 -3.8815 1.1406 0
M  V30 56 H 1.0005 -1.2793 1.0746 0
M  V30 57 H -0.1164 -1.4986 -0.9016 0
M  V30 58 H -0.6873 -0.0319 -4.4646 0
M  V30 59 H -2.2676 1.3602 -0.4193 0
M  V30 60 H 1.4989 0.8363 -4.9528 0
M  V30 61 H 0.7407 1.8962 -3.7664 0
M  V30 62 H 2.0028 0.7488 -3.2672 0
M  V30 63 H 1.1222 -1.6334 -4.9096 0
M  V30 64 H -0.0582 -2.3655 -3.8278 0
M  V30 65 H 1.4848 -1.7758 -3.1868 0
M  V30 66 H -3.1481 2.4704 -3.1575 0
M  V30 67 H -4.7032 -0.8524 -2.4306 0
M  V30 68 H -2.0131 4.299 -2.0321 0
M  V30 69 H -2.6883 3.8323 -0.4548 0
M  V30 70 H -4.3588 -0.1482 0.538 0
M  V30 71 H -3.6848 -1.6166 -0.1376 0
M  V30 72 H -5.6137 3.6326 -0.4938 0
M  V30 73 H -6.1322 3.683 -2.197 0
M  V30 74 H -4.21 4.9087 -2.8709 0
M  V30 75 H -4.2834 5.5156 -1.2067 0
M  V30 76 H -6.6671 -0.9334 -0.0534 0
M  V30 77 H -6.2469 -2.3635 -2.0118 0
M  V30 78 H -5.2343 -3.4539 -1.0465 0
M  V30 79 H -6.9743 -3.334 -0.7366 0
M  V30 80 H -5.6857 -1.4257 2.1648 0
M  V30 81 H -5.0212 -2.9502 1.5495 0
M  V30 82 H -6.7756 -2.7164 1.6426 0
M  V30 END ATOM
M  V30 BEGIN BOND
M  V30 1 1 1 2
M  V30 2 1 2 3
M  V30 3 2 2 4
M  V30 4 1 3 5
M  V30 5 1 4 6
M  V30 6 1 4 7
M  V30 7 1 5 8
M  V30 8 1 6 9
M  V30 9 1 7 10
M  V30 10 2 8 11
M  V30 11 1 9 12
M  V30 12 2 9 13
M  V30 13 1 10 14
M  V30 14 2 12 15
M  V30 15 1 14 16
M  V30 16 1 14 17
M  V30 17 1 15 18
M  V30 18 1 18 19
M  V30 19 2 19 20
M  V30 20 1 19 21
M  V30 21 1 21 22
M  V30 22 1 22 23
M  V30 23 1 22 24
M  V30 24 1 22 25
M  V30 25 1 23 26
M  V30 26 2 24 27
M  V30 27 1 24 28
M  V30 28 1 25 29
M  V30 29 1 25 30
M  V30 30 1 26 31
M  V30 31 1 28 32
M  V30 32 1 31 33
M  V30 33 1 31 34
M  V30 34 1 32 35
M  V30 35 1 32 36
M  V30 36 1 33 37
M  V30 37 1 34 38
M  V30 38 2 35 39
M  V30 39 1 36 40
M  V30 40 1 40 41
M  V30 41 1 40 42
M  V30 42 2 5 6
M  V30 43 1 10 12
M  V30 44 1 11 13
M  V30 45 1 16 18
M  V30 46 1 26 28
M  V30 47 1 33 35
M  V30 48 1 37 38
M  V30 49 1 3 43
M  V30 50 1 7 44
M  V30 51 1 7 45
M  V30 52 1 8 46
M  V30 53 1 10 47
M  V30 54 1 11 48
M  V30 55 1 13 49
M  V30 56 1 15 50
M  V30 57 1 16 51
M  V30 58 1 16 52
M  V30 59 1 17 53
M  V30 60 1 17 54
M  V30 61 1 17 55
M  V30 62 1 18 56
M  V30 63 1 21 57
M  V30 64 1 25 58
M  V30 65 1 26 59
M  V30 66 1 29 60
M  V30 67 1 29 61
M  V30 68 1 29 62
M  V30 69 1 30 63
M  V30 70 1 30 64
M  V30 71 1 30 65
M  V30 72 1 31 66
M  V30 73 1 32 67
M  V30 74 1 34 68
M  V30 75 1 34 69
M  V30 76 1 36 70
M  V30 77 1 36 71
M  V30 78 1 37 72
M  V30 79 1 37 73
M  V30 80 1 38 74
M  V30 81 1 38 75
M  V30 82 1 40 76
M  V30 83 1 41 77
M  V30 84 1 41 78
M  V30 85 1 41 79
M  V30 86 1 42 80
M  V30 87 1 42 81
M  V30 88 1 42 82
M  V30 END BOND
M  V30 BEGIN COLLECTION
M  V30 MDLV30/STEABS ATOMS=(4 10 18 22 31)
M  V30 END COLLECTION
M  V30 END CTAB
M  END
>  <NO.>
251

>  <Name>
bromocriptine

>  <SMILES>
CC(C)CC1C(=O)N2CCC[C@H]2C2O[C@](NC(=O)[C@@H]3C=C4c5cccc6[nH]c(Br)c(c56)C[C@H]4N(C)C3)(C(C)C)C(=O)N12

>  <logBB>
-0.59

>  <Class>
1

>  <MW>
637.23

>  <nHBAcc>
5

>  <nHBDon>
2

>  <SLogP>
3.87

>  <TopoPSA>
97.98

>  <MMFF94 Energy>
151.48

$$$$
Cc1nc(N2CCc3ccccc3CC2)c([N+](=O)[O-])c(=O)[nH]1
Actelion Java MolfileCreator 2.0

  0  0  0  0  0  0              0 V3000
M  V30 BEGIN CTAB
M  V30 COUNTS 38 40 0 0 0
M  V30 BEGIN ATOM
M  V30 1 O 0.5592 -3.6794 -2.1584 0
M  V30 2 N -0.1077 -2.7144 -2.5604 0 CHG=1
M  V30 3 O -1.2944 -2.7596 -2.9154 0 CHG=-1
M  V30 4 C 0.5552 -1.4578 -2.634 0
M  V30 5 C 0.2938 -0.4797 -1.7382 0
M  V30 6 C 1.417 -1.2285 -3.7921 0
M  V30 7 N 0.8554 0.7776 -1.9314 0
M  V30 8 N -0.5399 -0.6236 -0.6127 0
M  V30 9 O 1.6665 -2.0602 -4.6564 0
M  V30 10 N 1.9422 0.0324 -3.861 0
M  V30 11 C 1.636 0.9867 -2.9393 0
M  V30 12 C -0.3133 -1.6263 0.4456 0
M  V30 13 C -1.4884 0.4494 -0.2538 0
M  V30 14 C 2.2562 2.3382 -3.1472 0
M  V30 15 C 0.5179 -1.0576 1.6031 0
M  V30 16 C -0.9057 1.4431 0.7567 0
M  V30 17 C -0.2915 -0.2335 2.5802 0
M  V30 18 C -0.9592 0.9409 2.1837 0
M  V30 19 C -0.3637 -0.6428 3.923 0
M  V30 20 C -1.6797 1.6769 3.1404 0
M  V30 21 C -1.0886 0.0942 4.8587 0
M  V30 22 C -1.7464 1.2544 4.4674 0
M  V30 23 H 2.5472 0.2231 -4.648 0
M  V30 24 H -1.2753 -2.0152 0.802 0
M  V30 25 H 0.2356 -2.4825 0.0466 0
M  V30 26 H -1.7708 0.9941 -1.1643 0
M  V30 27 H -2.417 0.0051 0.1271 0
M  V30 28 H 2.9037 2.3569 -4.0274 0
M  V30 29 H 1.4625 3.0811 -3.2705 0
M  V30 30 H 2.8443 2.603 -2.2635 0
M  V30 31 H 0.9671 -1.9039 2.1386 0
M  V30 32 H 1.3562 -0.4546 1.2324 0
M  V30 33 H 0.1288 1.7132 0.5158 0
M  V30 34 H -1.4867 2.3714 0.6834 0
M  V30 35 H 0.1483 -1.5444 4.253 0
M  V30 36 H -2.1972 2.5911 2.857 0
M  V30 37 H -1.1357 -0.2362 5.8929 0
M  V30 38 H -2.309 1.8334 5.195 0
M  V30 END ATOM
M  V30 BEGIN BOND
M  V30 1 2 1 2
M  V30 2 1 2 3
M  V30 3 1 2 4
M  V30 4 2 4 5
M  V30 5 1 4 6
M  V30 6 1 5 7
M  V30 7 1 5 8
M  V30 8 2 6 9
M  V30 9 1 6 10
M  V30 10 2 7 11
M  V30 11 1 8 12
M  V30 12 1 8 13
M  V30 13 1 11 14
M  V30 14 1 12 15
M  V30 15 1 13 16
M  V30 16 1 15 17
M  V30 17 1 16 18
M  V30 18 1 17 19
M  V30 19 1 18 20
M  V30 20 2 19 21
M  V30 21 2 20 22
M  V30 22 1 10 11
M  V30 23 2 17 18
M  V30 24 1 21 22
M  V30 25 1 10 23
M  V30 26 1 12 24
M  V30 27 1 12 25
M  V30 28 1 13 26
M  V30 29 1 13 27
M  V30 30 1 14 28
M  V30 31 1 14 29
M  V30 32 1 14 30
M  V30 33 1 15 31
M  V30 34 1 15 32
M  V30 35 1 16 33
M  V30 36 1 16 34
M  V30 37 1 19 35
M  V30 38 1 20 36
M  V30 39 1 21 37
M  V30 40 1 22 38
M  V30 END BOND
M  V30 END CTAB
M  END
>  <NO.>
252

>  <Name>
schembl6949469

>  <SMILES>
Cc1nc(N2CCc3ccccc3CC2)c([N+](=O)[O-])c(=O)[nH]1

>  <logBB>
-0.59

>  <Class>
1

>  <MW>
300.12

>  <nHBAcc>
5

>  <nHBDon>
1

>  <SLogP>
1.59

>  <TopoPSA>
92.13

>  <MMFF94 Energy>
17.397

$$$$
NC(=O)N1c2ccccc2CC(O)c2ccccc21
Actelion Java MolfileCreator 2.0

  0  0  0  0  0  0              0 V3000
M  V30 BEGIN CTAB
M  V30 COUNTS 33 35 0 0 0
M  V30 BEGIN ATOM
M  V30 1 O -1.1155 2.9502 -1.2749 0
M  V30 2 C -0.2431 2.0937 -1.4046 0
M  V30 3 N -0.2354 0.8489 -0.7829 0
M  V30 4 N 0.8284 2.3847 -2.194 0
M  V30 5 C -1.2231 0.5408 0.1859 0
M  V30 6 C 0.6679 -0.2053 -1.0763 0
M  V30 7 C -0.8598 0.4661 1.5433 0
M  V30 8 C -2.5514 0.3489 -0.2114 0
M  V30 9 C 1.4902 -0.7945 -0.0981 0
M  V30 10 C 0.7162 -0.676 -2.4023 0
M  V30 11 C -1.8614 0.2071 2.4909 0
M  V30 12 C 0.5927 0.6859 1.9033 0 CFG=2
M  V30 13 C -3.5301 0.0772 0.7419 0
M  V30 14 C 2.3705 -1.8224 -0.4968 0
M  V30 15 C 1.4932 -0.4452 1.3757 0
M  V30 16 C 1.5917 -1.6947 -2.7727 0
M  V30 17 C -3.1858 0.0092 2.0904 0
M  V30 18 O 0.7783 0.7859 3.3215 0
M  V30 19 C 2.4249 -2.264 -1.8191 0
M  V30 20 H 0.8433 3.2926 -2.6359 0
M  V30 21 H 1.6411 1.7915 -2.2544 0
M  V30 22 H -2.8265 0.4272 -1.2596 0
M  V30 23 H 0.0576 -0.2489 -3.1565 0
M  V30 24 H -1.6322 0.175 3.5527 0
M  V30 25 H 0.9179 1.6503 1.495 0
M  V30 26 H -4.563 -0.0631 0.4348 0
M  V30 27 H 3.0201 -2.297 0.2376 0
M  V30 28 H 1.2412 -1.3645 1.925 0
M  V30 29 H 2.526 -0.2047 1.6649 0
M  V30 30 H 1.6165 -2.0455 -3.801 0
M  V30 31 H -3.9536 -0.184 2.8357 0
M  V30 32 H 0.6021 -0.0915 3.6993 0
M  V30 33 H 3.1085 -3.0619 -2.0983 0
M  V30 END ATOM
M  V30 BEGIN BOND
M  V30 1 2 1 2
M  V30 2 1 2 3
M  V30 3 1 2 4
M  V30 4 1 3 5
M  V30 5 1 3 6
M  V30 6 2 5 7
M  V30 7 1 5 8
M  V30 8 2 6 9
M  V30 9 1 6 10
M  V30 10 1 7 11
M  V30 11 1 7 12
M  V30 12 2 8 13
M  V30 13 1 9 14
M  V30 14 1 9 15
M  V30 15 2 10 16
M  V30 16 2 11 17
M  V30 17 1 12 18
M  V30 18 2 14 19
M  V30 19 1 12 15
M  V30 20 1 13 17
M  V30 21 1 16 19
M  V30 22 1 4 20
M  V30 23 1 4 21
M  V30 24 1 8 22
M  V30 25 1 10 23
M  V30 26 1 11 24
M  V30 27 1 12 25
M  V30 28 1 13 26
M  V30 29 1 14 27
M  V30 30 1 15 28
M  V30 31 1 15 29
M  V30 32 1 16 30
M  V30 33 1 17 31
M  V30 34 1 18 32
M  V30 35 1 19 33
M  V30 END BOND
M  V30 BEGIN COLLECTION
M  V30 MDLV30/STERAC1 ATOMS=(1 12)
M  V30 END COLLECTION
M  V30 END CTAB
M  END
>  <NO.>
253

>  <Name>
s-licarbizine

>  <SMILES>
NC(=O)N1c2ccccc2CC(O)c2ccccc21

>  <logBB>
-0.59

>  <Class>
1

>  <MW>
254.11

>  <nHBAcc>
2

>  <nHBDon>
2

>  <SLogP>
2.49

>  <TopoPSA>
66.56

>  <MMFF94 Energy>
24.227

$$$$
CC(=O)Nc1ccc(C(=O)Nc2ccccc2N)cc1
Actelion Java MolfileCreator 2.0

  0  0  0  0  0  0              0 V3000
M  V30 BEGIN CTAB
M  V30 COUNTS 35 36 0 0 0
M  V30 BEGIN ATOM
M  V30 1 O -1.572 0.3142 -2.2013 0
M  V30 2 C -0.7426 -0.0537 -1.3767 0
M  V30 3 N 0.2807 -0.9525 -1.5966 0
M  V30 4 C -0.7786 0.545 -0.0116 0
M  V30 5 C 0.5025 -1.696 -2.776 0
M  V30 6 C -0.3647 -0.1615 1.1227 0
M  V30 7 C -1.2712 1.8464 0.1335 0
M  V30 8 C 1.8181 -2.135 -3.0372 0
M  V30 9 C -0.5432 -2.0749 -3.6227 0
M  V30 10 C -0.4133 0.4431 2.3854 0
M  V30 11 C -1.3191 2.4455 1.3964 0
M  V30 12 N 2.8818 -1.7879 -2.197 0
M  V30 13 C 2.0384 -3.0147 -4.1027 0
M  V30 14 C -0.2963 -2.9117 -4.7119 0
M  V30 15 C -0.8783 1.7525 2.5299 0
M  V30 16 C 0.9902 -3.39 -4.9454 0
M  V30 17 N -0.9663 2.415 3.77 0
M  V30 18 C -0.3531 2.0451 4.954 0
M  V30 19 O 0.4068 1.0983 5.1223 0
M  V30 20 C -0.69 2.984 6.0849 0
M  V30 21 H 0.9896 -1.0828 -0.8875 0
M  V30 22 H -0.0304 -1.1934 1.0558 0
M  V30 23 H -1.6168 2.3988 -0.7386 0
M  V30 24 H -1.5628 -1.7502 -3.4348 0
M  V30 25 H -0.0981 -0.1431 3.2445 0
M  V30 26 H -1.7007 3.4605 1.4743 0
M  V30 27 H 3.8079 -2.1072 -2.4543 0
M  V30 28 H 2.8374 -0.8809 -1.75 0
M  V30 29 H 3.0344 -3.4019 -4.2982 0
M  V30 30 H -1.1151 -3.2043 -5.3642 0
M  V30 31 H 1.1781 -4.0578 -5.782 0
M  V30 32 H -1.4988 3.2762 3.7801 0
M  V30 33 H -0.1504 3.9253 5.9491 0
M  V30 34 H -0.3961 2.5336 7.0372 0
M  V30 35 H -1.7659 3.1804 6.1102 0
M  V30 END ATOM
M  V30 BEGIN BOND
M  V30 1 2 1 2
M  V30 2 1 2 3
M  V30 3 1 2 4
M  V30 4 1 3 5
M  V30 5 2 4 6
M  V30 6 1 4 7
M  V30 7 2 5 8
M  V30 8 1 5 9
M  V30 9 1 6 10
M  V30 10 2 7 11
M  V30 11 1 8 12
M  V30 12 1 8 13
M  V30 13 2 9 14
M  V30 14 2 10 15
M  V30 15 2 13 16
M  V30 16 1 15 17
M  V30 17 1 17 18
M  V30 18 2 18 19
M  V30 19 1 18 20
M  V30 20 1 11 15
M  V30 21 1 14 16
M  V30 22 1 3 21
M  V30 23 1 6 22
M  V30 24 1 7 23
M  V30 25 1 9 24
M  V30 26 1 10 25
M  V30 27 1 11 26
M  V30 28 1 12 27
M  V30 29 1 12 28
M  V30 30 1 13 29
M  V30 31 1 14 30
M  V30 32 1 16 31
M  V30 33 1 17 32
M  V30 34 1 20 33
M  V30 35 1 20 34
M  V30 36 1 20 35
M  V30 END BOND
M  V30 END CTAB
M  END
>  <NO.>
255

>  <Name>
tacedinaline

>  <SMILES>
CC(=O)Nc1ccc(C(=O)Nc2ccccc2N)cc1

>  <logBB>
-0.58

>  <Class>
1

>  <MW>
269.12

>  <nHBAcc>
3

>  <nHBDon>
3

>  <SLogP>
2.48

>  <TopoPSA>
84.22

>  <MMFF94 Energy>
24.222

$$$$
CC(C)CN(CC(O)C(Cc1ccccc1)NC(=O)OC1CCOC1)S(=O)(=O)c1ccc(N)cc1
Actelion Java MolfileCreator 2.0

  0  0  0  0  0  0              0 V3000
M  V30 BEGIN CTAB
M  V30 COUNTS 70 72 0 0 0
M  V30 BEGIN ATOM
M  V30 1 S -3.1134 -1.1966 0.3987 0
M  V30 2 O -4.0934 -1.8639 -0.4309 0
M  V30 3 O -2.7693 -1.6924 1.7148 0
M  V30 4 N -1.6616 -1.0687 -0.491 0
M  V30 5 C -3.6474 0.4886 0.5623 0
M  V30 6 C -0.5209 -0.3654 0.1844 0
M  V30 7 C -1.2767 -2.2686 -1.2992 0
M  V30 8 C -3.7285 1.0805 1.8239 0
M  V30 9 C -4.0249 1.1971 -0.5792 0
M  V30 10 C 0.2838 0.4606 -0.8406 0
M  V30 11 C -1.3009 -3.6281 -0.5733 0
M  V30 12 C -4.1856 2.3964 1.9364 0
M  V30 13 C -4.4726 2.5146 -0.4524 0
M  V30 14 O -0.5885 1.3971 -1.4756 0
M  V30 15 C 1.5323 1.1649 -0.2331 0
M  V30 16 C -1.1008 -4.7463 -1.6045 0
M  V30 17 C -0.2318 -3.7553 0.5115 0
M  V30 18 C -4.5796 3.1174 0.8049 0
M  V30 19 N 2.4826 0.1841 0.3059 0
M  V30 20 C 1.2289 2.2286 0.848 0
M  V30 21 N -4.9819 4.4364 0.9189 0
M  V30 22 C 3.2068 -0.6661 -0.4693 0
M  V30 23 C 0.6762 3.5368 0.3407 0
M  V30 24 O 3.1421 -0.7492 -1.6843 0
M  V30 25 O 3.9918 -1.4238 0.3296 0
M  V30 26 C 1.4917 4.4249 -0.3748 0
M  V30 27 C -0.6555 3.8921 0.5872 0
M  V30 28 C 4.8237 -2.3842 -0.3503 0
M  V30 29 C 0.9828 5.6402 -0.8365 0
M  V30 30 C -1.1636 5.1064 0.1233 0
M  V30 31 C 5.8556 -2.9141 0.6351 0
M  V30 32 C 4.0377 -3.6362 -0.6697 0
M  V30 33 C -0.3449 5.9806 -0.5876 0
M  V30 34 O 5.2589 -4.0323 1.3189 0
M  V30 35 C 4.0225 -4.3486 0.6665 0
M  V30 36 H 0.1234 -1.0846 0.6921 0
M  V30 37 H -0.923 0.3117 0.9429 0
M  V30 38 H -0.2844 -2.1188 -1.7376 0
M  V30 39 H -1.9674 -2.2976 -2.1523 0
M  V30 40 H -3.4479 0.5313 2.7194 0
M  V30 41 H -3.9785 0.7335 -1.5613 0
M  V30 42 H 0.6324 -0.1987 -1.641 0
M  V30 43 H -2.2775 -3.798 -0.1085 0
M  V30 44 H -4.238 2.855 2.9208 0
M  V30 45 H -4.747 3.0668 -1.3477 0
M  V30 46 H -1.3631 0.8829 -1.7689 0
M  V30 47 H 2.0504 1.6632 -1.0638 0
M  V30 48 H -0.1286 -4.6593 -2.1016 0
M  V30 49 H -1.8806 -4.7116 -2.3727 0
M  V30 50 H -1.1504 -5.7307 -1.127 0
M  V30 51 H 0.7602 -3.5024 0.1245 0
M  V30 52 H -0.4476 -3.1039 1.3621 0
M  V30 53 H -0.1897 -4.7788 0.8999 0
M  V30 54 H 2.6636 0.1268 1.3001 0
M  V30 55 H 2.16 2.4714 1.3809 0
M  V30 56 H 0.5755 1.8137 1.6246 0
M  V30 57 H -5.3627 4.9169 0.1145 0
M  V30 58 H -5.163 4.8328 1.8314 0
M  V30 59 H 2.5303 4.176 -0.5792 0
M  V30 60 H -1.3152 3.2211 1.1303 0
M  V30 61 H 5.3039 -1.9176 -1.2171 0
M  V30 62 H 1.622 6.3194 -1.3939 0
M  V30 63 H -2.2027 5.3629 0.3128 0
M  V30 64 H 6.1644 -2.1725 1.3775 0
M  V30 65 H 6.7403 -3.2934 0.1133 0
M  V30 66 H 4.5873 -4.24 -1.401 0
M  V30 67 H 3.0267 -3.4615 -1.0462 0
M  V30 68 H -0.7431 6.9237 -0.9511 0
M  V30 69 H 3.2059 -3.9883 1.3016 0
M  V30 70 H 3.9281 -5.433 0.562 0
M  V30 END ATOM
M  V30 BEGIN BOND
M  V30 1 2 1 2
M  V30 2 2 1 3
M  V30 3 1 1 4
M  V30 4 1 1 5
M  V30 5 1 4 6
M  V30 6 1 4 7
M  V30 7 2 5 8
M  V30 8 1 5 9
M  V30 9 1 6 10
M  V30 10 1 7 11
M  V30 11 1 8 12
M  V30 12 2 9 13
M  V30 13 1 10 14
M  V30 14 1 10 15
M  V30 15 1 11 16
M  V30 16 1 11 17
M  V30 17 2 12 18
M  V30 18 1 15 19
M  V30 19 1 15 20
M  V30 20 1 18 21
M  V30 21 1 19 22
M  V30 22 1 20 23
M  V30 23 2 22 24
M  V30 24 1 22 25
M  V30 25 2 23 26
M  V30 26 1 23 27
M  V30 27 1 25 28
M  V30 28 1 26 29
M  V30 29 2 27 30
M  V30 30 1 28 31
M  V30 31 1 28 32
M  V30 32 2 29 33
M  V30 33 1 31 34
M  V30 34 1 32 35
M  V30 35 1 13 18
M  V30 36 1 30 33
M  V30 37 1 34 35
M  V30 38 1 6 36
M  V30 39 1 6 37
M  V30 40 1 7 38
M  V30 41 1 7 39
M  V30 42 1 8 40
M  V30 43 1 9 41
M  V30 44 1 10 42
M  V30 45 1 11 43
M  V30 46 1 12 44
M  V30 47 1 13 45
M  V30 48 1 14 46
M  V30 49 1 15 47
M  V30 50 1 16 48
M  V30 51 1 16 49
M  V30 52 1 16 50
M  V30 53 1 17 51
M  V30 54 1 17 52
M  V30 55 1 17 53
M  V30 56 1 19 54
M  V30 57 1 20 55
M  V30 58 1 20 56
M  V30 59 1 21 57
M  V30 60 1 21 58
M  V30 61 1 26 59
M  V30 62 1 27 60
M  V30 63 1 28 61
M  V30 64 1 29 62
M  V30 65 1 30 63
M  V30 66 1 31 64
M  V30 67 1 31 65
M  V30 68 1 32 66
M  V30 69 1 32 67
M  V30 70 1 33 68
M  V30 71 1 35 69
M  V30 72 1 35 70
M  V30 END BOND
M  V30 END CTAB
M  END
>  <NO.>
258

>  <Name>
chembl195725

>  <SMILES>
CC(C)CN(CC(O)C(Cc1ccccc1)NC(=O)OC1CCOC1)S(=O)(=O)c1ccc(N)cc1

>  <logBB>
-0.56

>  <Class>
1

>  <MW>
505.22

>  <nHBAcc>
7

>  <nHBDon>
3

>  <SLogP>
2.4

>  <TopoPSA>
131.19

>  <MMFF94 Energy>
-7.9455

$$$$
CN1CN(c2ccc(Br)cc2)C2(CCN(CCCC(=O)c3ccc(F)cc3)CC2)C1=O
Actelion Java MolfileCreator 2.0

  0  0  0  0  0  0              0 V3000
M  V30 BEGIN CTAB
M  V30 COUNTS 58 61 0 0 0
M  V30 BEGIN ATOM
M  V30 1 Br 2.6631 -4.7652 -2.4208 0
M  V30 2 C 2.113 -3.9228 -0.8217 0
M  V30 3 C 2.6768 -2.7079 -0.4486 0
M  V30 4 C 1.1465 -4.5205 -0.0201 0
M  V30 5 C 2.2621 -2.087 0.7341 0
M  V30 6 C 0.7413 -3.8908 1.1614 0
M  V30 7 C 1.284 -2.6595 1.5557 0
M  V30 8 N 0.8846 -2.0343 2.7127 0
M  V30 9 C -0.089 -0.9084 2.7808 0
M  V30 10 C 1.0285 -2.7135 3.9836 0
M  V30 11 C -0.3443 -0.8225 4.3028 0
M  V30 12 C 0.5252 0.4069 2.2892 0
M  V30 13 C -1.4054 -1.2621 2.0722 0
M  V30 14 N 0.3321 -1.8687 4.9024 0
M  V30 15 O -1.0304 0.0017 4.8885 0
M  V30 16 C -0.5188 1.5142 2.1354 0
M  V30 17 C -2.33 -0.0512 1.926 0
M  V30 18 C 0.324 -2.1449 6.3171 0
M  V30 19 N -1.6772 1.1197 1.3238 0
M  V30 20 C -1.3939 0.9202 -0.1051 0
M  V30 21 C -0.9207 2.1926 -0.8196 0
M  V30 22 C -0.8293 1.9665 -2.3312 0
M  V30 23 C -0.3085 3.1907 -3.0656 0
M  V30 24 O 0.0837 4.1951 -2.4756 0
M  V30 25 C -0.2624 3.1634 -4.5609 0
M  V30 26 C 0.1461 4.3253 -5.2364 0
M  V30 27 C -0.6067 2.0237 -5.3023 0
M  V30 28 C 0.2068 4.3489 -6.6314 0
M  V30 29 C -0.5443 2.0517 -6.699 0
M  V30 30 C -0.1393 3.2118 -7.3495 0
M  V30 31 F -0.0816 3.2315 -8.687 0
M  V30 32 H 3.441 -2.2364 -1.0603 0
M  V30 33 H 0.6988 -5.4694 -0.3023 0
M  V30 34 H 2.7336 -1.1514 1.0249 0
M  V30 35 H -0.0291 -4.3648 1.7647 0
M  V30 36 H 0.5552 -3.7007 3.9976 0
M  V30 37 H 2.0795 -2.7906 4.2801 0
M  V30 38 H 1.0131 0.2702 1.3198 0
M  V30 39 H 1.3091 0.746 2.9786 0
M  V30 40 H -1.9374 -2.0519 2.6185 0
M  V30 41 H -1.2088 -1.6683 1.0733 0
M  V30 42 H -0.876 1.8283 3.1238 0
M  V30 43 H -0.0427 2.4124 1.7278 0
M  V30 44 H -2.7308 0.2321 2.907 0
M  V30 45 H -3.2102 -0.3347 1.3353 0
M  V30 46 H -0.2538 -1.3915 6.8586 0
M  V30 47 H -0.1226 -3.1292 6.482 0
M  V30 48 H 1.354 -2.1435 6.684 0
M  V30 49 H -2.3201 0.5938 -0.5959 0
M  V30 50 H -0.6589 0.1233 -0.2673 0
M  V30 51 H 0.0639 2.4958 -0.4461 0
M  V30 52 H -1.6127 3.0192 -0.6145 0
M  V30 53 H -1.8265 1.7248 -2.7156 0
M  V30 54 H -0.1498 1.1306 -2.5319 0
M  V30 55 H 0.4186 5.2191 -4.6768 0
M  V30 56 H -0.9228 1.1026 -4.8222 0
M  V30 57 H 0.5213 5.2451 -7.1571 0
M  V30 58 H -0.8081 1.1757 -7.2842 0
M  V30 END ATOM
M  V30 BEGIN BOND
M  V30 1 1 1 2
M  V30 2 2 2 3
M  V30 3 1 2 4
M  V30 4 1 3 5
M  V30 5 2 4 6
M  V30 6 2 5 7
M  V30 7 1 7 8
M  V30 8 1 8 9
M  V30 9 1 8 10
M  V30 10 1 9 11
M  V30 11 1 9 12
M  V30 12 1 9 13
M  V30 13 1 10 14
M  V30 14 2 11 15
M  V30 15 1 12 16
M  V30 16 1 13 17
M  V30 17 1 14 18
M  V30 18 1 16 19
M  V30 19 1 19 20
M  V30 20 1 20 21
M  V30 21 1 21 22
M  V30 22 1 22 23
M  V30 23 2 23 24
M  V30 24 1 23 25
M  V30 25 2 25 26
M  V30 26 1 25 27
M  V30 27 1 26 28
M  V30 28 2 27 29
M  V30 29 2 28 30
M  V30 30 1 30 31
M  V30 31 1 6 7
M  V30 32 1 11 14
M  V30 33 1 17 19
M  V30 34 1 29 30
M  V30 35 1 3 32
M  V30 36 1 4 33
M  V30 37 1 5 34
M  V30 38 1 6 35
M  V30 39 1 10 36
M  V30 40 1 10 37
M  V30 41 1 12 38
M  V30 42 1 12 39
M  V30 43 1 13 40
M  V30 44 1 13 41
M  V30 45 1 16 42
M  V30 46 1 16 43
M  V30 47 1 17 44
M  V30 48 1 17 45
M  V30 49 1 18 46
M  V30 50 1 18 47
M  V30 51 1 18 48
M  V30 52 1 20 49
M  V30 53 1 20 50
M  V30 54 1 21 51
M  V30 55 1 21 52
M  V30 56 1 22 53
M  V30 57 1 22 54
M  V30 58 1 26 55
M  V30 59 1 27 56
M  V30 60 1 28 57
M  V30 61 1 29 58
M  V30 END BOND
M  V30 END CTAB
M  END
>  <NO.>
261

>  <Name>
bmsp

>  <SMILES>
CN1CN(c2ccc(Br)cc2)C2(CCN(CCCC(=O)c3ccc(F)cc3)CC2)C1=O

>  <logBB>
-0.55

>  <Class>
1

>  <MW>
487.13

>  <nHBAcc>
4

>  <nHBDon>
0

>  <SLogP>
4.32

>  <TopoPSA>
43.86

>  <MMFF94 Energy>
43.09

$$$$
CC(=O)Nc1ccc(OC[C@@H](O)CNC(C)C)cc1
Actelion Java MolfileCreator 2.0

  0  0  0  0  0  0              0 V3000
M  V30 BEGIN CTAB
M  V30 COUNTS 41 41 0 0 0
M  V30 BEGIN ATOM
M  V30 1 O 4.7519 -2.1011 -2.1011 0
M  V30 2 C 4.1593 -3.1435 -2.3529 0
M  V30 3 N 2.8685 -3.4817 -1.9867 0
M  V30 4 C 4.8167 -4.2324 -3.1631 0
M  V30 5 C 1.9665 -2.7132 -1.2232 0
M  V30 6 C 0.6579 -3.1965 -1.0976 0
M  V30 7 C 2.3058 -1.5242 -0.5797 0
M  V30 8 C -0.2996 -2.4983 -0.3501 0
M  V30 9 C 1.3489 -0.8286 0.1683 0
M  V30 10 C 0.043 -1.3056 0.2814 0
M  V30 11 O -0.7856 -0.5353 1.0457 0
M  V30 12 C -2.1873 -0.801 0.9562 0
M  V30 13 C -2.9738 0.28 1.7176 0 CFG=1
M  V30 14 O -2.5279 0.326 3.0814 0
M  V30 15 C -2.8712 1.6918 1.0973 0
M  V30 16 N -1.5803 2.3383 1.365 0
M  V30 17 C -1.38 3.5772 0.6071 0
M  V30 18 C -2.2703 4.7191 1.0998 0
M  V30 19 C 0.0924 3.9701 0.7416 0
M  V30 20 H 2.5214 -4.3719 -2.3196 0
M  V30 21 H 4.7448 -5.1889 -2.6373 0
M  V30 22 H 5.8732 -3.994 -3.3141 0
M  V30 23 H 4.3248 -4.3125 -4.1365 0
M  V30 24 H 0.3602 -4.1244 -1.5788 0
M  V30 25 H 3.3072 -1.1091 -0.6321 0
M  V30 26 H -1.2965 -2.9186 -0.2731 0
M  V30 27 H 1.6273 0.0996 0.6623 0
M  V30 28 H -2.3867 -1.7697 1.4302 0
M  V30 29 H -2.5149 -0.8215 -0.09 0
M  V30 30 H -4.0305 -0.0107 1.7334 0
M  V30 31 H -1.5568 0.4272 3.0078 0
M  V30 32 H -3.0623 1.6237 0.02 0
M  V30 33 H -3.6644 2.3062 1.5395 0
M  V30 34 H -1.513 2.5297 2.3659 0
M  V30 35 H -1.5781 3.3973 -0.4565 0
M  V30 36 H -2.1249 4.9088 2.1692 0
M  V30 37 H -3.3303 4.5025 0.9339 0
M  V30 38 H -2.0404 5.6458 0.5624 0
M  V30 39 H 0.7468 3.1726 0.3717 0
M  V30 40 H 0.363 4.1744 1.7839 0
M  V30 41 H 0.307 4.871 0.1563 0
M  V30 END ATOM
M  V30 BEGIN BOND
M  V30 1 2 1 2
M  V30 2 1 2 3
M  V30 3 1 2 4
M  V30 4 1 3 5
M  V30 5 2 5 6
M  V30 6 1 5 7
M  V30 7 1 6 8
M  V30 8 2 7 9
M  V30 9 2 8 10
M  V30 10 1 10 11
M  V30 11 1 11 12
M  V30 12 1 12 13
M  V30 13 1 13 14
M  V30 14 1 13 15
M  V30 15 1 15 16
M  V30 16 1 16 17
M  V30 17 1 17 18
M  V30 18 1 17 19
M  V30 19 1 9 10
M  V30 20 1 3 20
M  V30 21 1 4 21
M  V30 22 1 4 22
M  V30 23 1 4 23
M  V30 24 1 6 24
M  V30 25 1 7 25
M  V30 26 1 8 26
M  V30 27 1 9 27
M  V30 28 1 12 28
M  V30 29 1 12 29
M  V30 30 1 13 30
M  V30 31 1 14 31
M  V30 32 1 15 32
M  V30 33 1 15 33
M  V30 34 1 16 34
M  V30 35 1 17 35
M  V30 36 1 18 36
M  V30 37 1 18 37
M  V30 38 1 18 38
M  V30 39 1 19 39
M  V30 40 1 19 40
M  V30 41 1 19 41
M  V30 END BOND
M  V30 BEGIN COLLECTION
M  V30 MDLV30/STEABS ATOMS=(1 13)
M  V30 END COLLECTION
M  V30 END CTAB
M  END
>  <NO.>
262

>  <Name>
practolol

>  <SMILES>
CC(=O)Nc1ccc(OC[C@@H](O)CNC(C)C)cc1

>  <logBB>
-0.55

>  <Class>
1

>  <MW>
266.16

>  <nHBAcc>
4

>  <nHBDon>
3

>  <SLogP>
1.38

>  <TopoPSA>
70.59

>  <MMFF94 Energy>
37.834

$$$$
CC(C)CC(CN)CC(=O)O
Actelion Java MolfileCreator 2.0

  0  0  0  0  0  0              0 V3000
M  V30 BEGIN CTAB
M  V30 COUNTS 28 27 0 0 0
M  V30 BEGIN ATOM
M  V30 1 O -1.9189 -1.8421 2.6873 0
M  V30 2 C -0.906 -1.2743 2.3097 0
M  V30 3 O 0.311 -1.6711 2.7225 0
M  V30 4 C -0.8549 -0.1102 1.3625 0
M  V30 5 C -0.4757 -0.525 -0.0684 0 CFG=1
M  V30 6 C -1.6313 -1.2652 -0.7869 0
M  V30 7 C -0.0876 0.706 -0.9265 0
M  V30 8 N -1.9235 -2.5748 -0.2186 0
M  V30 9 C 1.131 1.525 -0.4518 0
M  V30 10 C 2.3902 0.672 -0.299 0
M  V30 11 C 1.3971 2.6672 -1.4378 0
M  V30 12 H 0.1317 -2.4578 3.2781 0
M  V30 13 H -1.8292 0.3926 1.3805 0
M  V30 14 H -0.1415 0.6022 1.7886 0
M  V30 15 H 0.3817 -1.2088 -0.0351 0
M  V30 16 H -1.362 -1.4191 -1.8383 0
M  V30 17 H -2.541 -0.6534 -0.7769 0
M  V30 18 H 0.1102 0.364 -1.9517 0
M  V30 19 H -0.9552 1.3767 -0.9924 0
M  V30 20 H -2.6282 -3.0409 -0.7902 0
M  V30 21 H -2.3577 -2.4771 0.7046 0
M  V30 22 H 0.9069 1.9854 0.5167 0
M  V30 23 H 2.2781 -0.0617 0.5047 0
M  V30 24 H 2.6204 0.1346 -1.2249 0
M  V30 25 H 3.2543 1.2962 -0.0471 0
M  V30 26 H 0.516 3.3101 -1.5352 0
M  V30 27 H 1.6503 2.2843 -2.4322 0
M  V30 28 H 2.2284 3.2919 -1.0941 0
M  V30 END ATOM
M  V30 BEGIN BOND
M  V30 1 2 1 2
M  V30 2 1 2 3
M  V30 3 1 2 4
M  V30 4 1 4 5
M  V30 5 1 5 6
M  V30 6 1 5 7
M  V30 7 1 6 8
M  V30 8 1 7 9
M  V30 9 1 9 10
M  V30 10 1 9 11
M  V30 11 1 3 12
M  V30 12 1 4 13
M  V30 13 1 4 14
M  V30 14 1 5 15
M  V30 15 1 6 16
M  V30 16 1 6 17
M  V30 17 1 7 18
M  V30 18 1 7 19
M  V30 19 1 8 20
M  V30 20 1 8 21
M  V30 21 1 9 22
M  V30 22 1 10 23
M  V30 23 1 10 24
M  V30 24 1 10 25
M  V30 25 1 11 26
M  V30 26 1 11 27
M  V30 27 1 11 28
M  V30 END BOND
M  V30 BEGIN COLLECTION
M  V30 MDLV30/STERAC1 ATOMS=(1 5)
M  V30 END COLLECTION
M  V30 END CTAB
M  END
>  <NO.>
264

>  <Name>
pregabalin

>  <SMILES>
CC(C)CC(CN)CC(=O)O

>  <logBB>
-0.54

>  <Class>
1

>  <MW>
159.13

>  <nHBAcc>
2

>  <nHBDon>
2

>  <SLogP>
1.08

>  <TopoPSA>
63.32

>  <MMFF94 Energy>
-23.067

$$$$
CC1=CN2C(CC(=O)N(C)C)=C(c3ccc(C)cc3)NC2C=C1
Actelion Java MolfileCreator 2.0

  0  0  0  0  0  0              0 V3000
M  V30 BEGIN CTAB
M  V30 COUNTS 46 48 0 0 0
M  V30 BEGIN ATOM
M  V30 1 O 0.5521 2.4468 0.8676 0
M  V30 2 C 0.3652 2.2522 -0.3355 0
M  V30 3 N 0.519 3.2805 -1.2677 0
M  V30 4 C -0.0116 0.8752 -0.8884 0
M  V30 5 C 0.7385 4.6367 -0.7923 0
M  V30 6 C 0.4557 3.1104 -2.711 0
M  V30 7 C -0.5903 -0.0263 0.1549 0
M  V30 8 N -1.9477 -0.0096 0.5417 0
M  V30 9 C 0.0168 -1.0567 0.7926 0
M  V30 10 C -3.0357 0.5148 -0.1262 0
M  V30 11 C -2.1461 -0.982 1.6425 0 CFG=2
M  V30 12 N -0.908 -1.7287 1.5839 0
M  V30 13 C 1.4051 -1.5035 0.72 0
M  V30 14 C -4.2369 -0.0951 -0.1015 0
M  V30 15 C -3.3546 -1.8231 1.3783 0
M  V30 16 C 2.4576 -0.6344 1.0273 0
M  V30 17 C 1.6993 -2.8254 0.3673 0
M  V30 18 C -4.3495 -1.3822 0.583 0
M  V30 19 C -5.4418 0.4224 -0.8208 0
M  V30 20 C 3.783 -1.0737 0.9631 0
M  V30 21 C 3.0242 -3.2658 0.3018 0
M  V30 22 C 4.0772 -2.3888 0.5857 0
M  V30 23 C 5.4974 -2.8691 0.5505 0
M  V30 24 H -0.7354 0.9823 -1.7027 0
M  V30 25 H 0.8938 0.438 -1.324 0
M  V30 26 H 0.693 4.7109 0.2969 0
M  V30 27 H 1.7246 4.9703 -1.1283 0
M  V30 28 H -0.0306 5.2872 -1.2196 0
M  V30 29 H 0.6349 2.0774 -3.0129 0
M  V30 30 H 1.2175 3.7389 -3.1822 0
M  V30 31 H -0.5353 3.4229 -3.0519 0
M  V30 32 H -2.8449 1.4171 -0.6958 0
M  V30 33 H -2.233 -0.4643 2.6057 0
M  V30 34 H -0.5888 -2.3012 2.3484 0
M  V30 35 H -3.4255 -2.784 1.871 0
M  V30 36 H 2.2511 0.3888 1.3362 0
M  V30 37 H 0.892 -3.5168 0.1355 0
M  V30 38 H -5.2317 -1.9894 0.4078 0
M  V30 39 H -5.7815 -0.2961 -1.5742 0
M  V30 40 H -6.2612 0.6004 -0.1162 0
M  V30 41 H -5.2335 1.3678 -1.3332 0
M  V30 42 H 4.582 -0.3803 1.2157 0
M  V30 43 H 3.2264 -4.2983 0.0269 0
M  V30 44 H 6.1786 -2.0545 0.283 0
M  V30 45 H 5.7837 -3.2627 1.5306 0
M  V30 46 H 5.6245 -3.6575 -0.1987 0
M  V30 END ATOM
M  V30 BEGIN BOND
M  V30 1 2 1 2
M  V30 2 1 2 3
M  V30 3 1 2 4
M  V30 4 1 3 5
M  V30 5 1 3 6
M  V30 6 1 4 7
M  V30 7 1 7 8
M  V30 8 2 7 9
M  V30 9 1 8 10
M  V30 10 1 8 11
M  V30 11 1 9 12
M  V30 12 1 9 13
M  V30 13 2 10 14
M  V30 14 1 11 15
M  V30 15 2 13 16
M  V30 16 1 13 17
M  V30 17 1 14 18
M  V30 18 1 14 19
M  V30 19 1 16 20
M  V30 20 2 17 21
M  V30 21 2 20 22
M  V30 22 1 22 23
M  V30 23 1 11 12
M  V30 24 2 15 18
M  V30 25 1 21 22
M  V30 26 1 4 24
M  V30 27 1 4 25
M  V30 28 1 5 26
M  V30 29 1 5 27
M  V30 30 1 5 28
M  V30 31 1 6 29
M  V30 32 1 6 30
M  V30 33 1 6 31
M  V30 34 1 10 32
M  V30 35 1 11 33
M  V30 36 1 12 34
M  V30 37 1 15 35
M  V30 38 1 16 36
M  V30 39 1 17 37
M  V30 40 1 18 38
M  V30 41 1 19 39
M  V30 42 1 19 40
M  V30 43 1 19 41
M  V30 44 1 20 42
M  V30 45 1 21 43
M  V30 46 1 23 44
M  V30 47 1 23 45
M  V30 48 1 23 46
M  V30 END BOND
M  V30 BEGIN COLLECTION
M  V30 MDLV30/STERAC1 ATOMS=(1 11)
M  V30 END COLLECTION
M  V30 END CTAB
M  END
>  <NO.>
265

>  <Name>
zolpidem

>  <SMILES>
CC1=CN2C(CC(=O)N(C)C)=C(c3ccc(C)cc3)NC2C=C1

>  <logBB>
-0.54

>  <Class>
1

>  <MW>
309.18

>  <nHBAcc>
3

>  <nHBDon>
1

>  <SLogP>
2.85

>  <TopoPSA>
35.58

>  <MMFF94 Energy>
54.248

$$$$
Cc1ccc(C(=O)NC2CC2)cc1-c1ccc(C(=O)NCC2CC2)cc1
Actelion Java MolfileCreator 2.0

  0  0  0  0  0  0              0 V3000
M  V30 BEGIN CTAB
M  V30 COUNTS 50 53 0 0 0
M  V30 BEGIN ATOM
M  V30 1 O -1.1916 3.9763 4.4543 0
M  V30 2 C -0.7432 2.9367 3.9824 0
M  V30 3 N 0.511 2.4336 4.2742 0
M  V30 4 C -1.5794 2.1218 3.0601 0
M  V30 5 C 1.4181 3.1151 5.1422 0
M  V30 6 C -1.0193 1.348 2.0367 0
M  V30 7 C -2.9668 2.1606 3.214 0
M  V30 8 C 1.6153 2.6445 6.5563 0
M  V30 9 C 2.7168 2.4757 5.5515 0
M  V30 10 C -1.833 0.5856 1.1764 0
M  V30 11 C -3.7869 1.4109 2.3704 0
M  V30 12 C -1.1936 -0.2117 0.1213 0
M  V30 13 C -3.235 0.6196 1.3499 0
M  V30 14 C -0.8129 0.3824 -1.0919 0
M  V30 15 C -0.9291 -1.5754 0.315 0
M  V30 16 C -4.1579 -0.1733 0.4617 0
M  V30 17 C -0.1929 -0.3694 -2.0956 0
M  V30 18 C -0.3087 -2.3301 -0.6844 0
M  V30 19 C 0.0493 -1.7335 -1.8984 0
M  V30 20 C 0.7128 -2.5758 -2.931 0
M  V30 21 O 1.3951 -3.534 -2.5873 0
M  V30 22 N 0.4824 -2.2244 -4.2429 0
M  V30 23 C 1.105 -2.921 -5.3443 0
M  V30 24 C 2.1709 -2.05 -5.9305 0
M  V30 25 C 3.5185 -1.94 -5.263 0
M  V30 26 C 3.3878 -2.6633 -6.5751 0
M  V30 27 H 0.7816 1.5254 3.9215 0
M  V30 28 H 1.4383 4.1915 4.9787 0
M  V30 29 H 0.0562 1.3467 1.8753 0
M  V30 30 H -3.4132 2.7739 3.995 0
M  V30 31 H 1.0779 1.7625 6.8837 0
M  V30 32 H 1.7304 3.4022 7.3229 0
M  V30 33 H 3.5868 3.1163 5.6414 0
M  V30 34 H 2.9394 1.4723 5.2102 0
M  V30 35 H -4.8652 1.4535 2.5138 0
M  V30 36 H -0.994 1.4435 -1.2568 0
M  V30 37 H -1.2038 -2.0585 1.251 0
M  V30 38 H -3.9929 -1.246 0.6024 0
M  V30 39 H -5.2091 0.0317 0.6917 0
M  V30 40 H -3.9993 0.0889 -0.5891 0
M  V30 41 H 0.1196 0.1316 -3.007 0
M  V30 42 H -0.1061 -3.3861 -0.5147 0
M  V30 43 H -0.1585 -1.4773 -4.4636 0
M  V30 44 H 0.3284 -3.11 -6.0923 0
M  V30 45 H 1.5023 -3.8866 -5.0142 0
M  V30 46 H 1.7617 -1.1571 -6.3895 0
M  V30 47 H 3.7007 -2.5311 -4.3711 0
M  V30 48 H 4.0061 -0.9723 -5.2592 0
M  V30 49 H 3.4978 -3.7421 -6.5667 0
M  V30 50 H 3.7913 -2.1841 -7.4598 0
M  V30 END ATOM
M  V30 BEGIN BOND
M  V30 1 2 1 2
M  V30 2 1 2 3
M  V30 3 1 2 4
M  V30 4 1 3 5
M  V30 5 2 4 6
M  V30 6 1 4 7
M  V30 7 1 5 8
M  V30 8 1 5 9
M  V30 9 1 6 10
M  V30 10 2 7 11
M  V30 11 1 10 12
M  V30 12 2 10 13
M  V30 13 2 12 14
M  V30 14 1 12 15
M  V30 15 1 13 16
M  V30 16 1 14 17
M  V30 17 2 15 18
M  V30 18 2 17 19
M  V30 19 1 19 20
M  V30 20 2 20 21
M  V30 21 1 20 22
M  V30 22 1 22 23
M  V30 23 1 23 24
M  V30 24 1 24 25
M  V30 25 1 24 26
M  V30 26 1 8 9
M  V30 27 1 11 13
M  V30 28 1 18 19
M  V30 29 1 25 26
M  V30 30 1 3 27
M  V30 31 1 5 28
M  V30 32 1 6 29
M  V30 33 1 7 30
M  V30 34 1 8 31
M  V30 35 1 8 32
M  V30 36 1 9 33
M  V30 37 1 9 34
M  V30 38 1 11 35
M  V30 39 1 14 36
M  V30 40 1 15 37
M  V30 41 1 16 38
M  V30 42 1 16 39
M  V30 43 1 16 40
M  V30 44 1 17 41
M  V30 45 1 18 42
M  V30 46 1 22 43
M  V30 47 1 23 44
M  V30 48 1 23 45
M  V30 49 1 24 46
M  V30 50 1 25 47
M  V30 51 1 25 48
M  V30 52 1 26 49
M  V30 53 1 26 50
M  V30 END BOND
M  V30 END CTAB
M  END
>  <NO.>
266

>  <Name>
515134-70-0

>  <SMILES>
Cc1ccc(C(=O)NC2CC2)cc1-c1ccc(C(=O)NCC2CC2)cc1

>  <logBB>
-0.52

>  <Class>
1

>  <MW>
348.18

>  <nHBAcc>
2

>  <nHBDon>
2

>  <SLogP>
3.69

>  <TopoPSA>
58.2

>  <MMFF94 Energy>
50.891

$$$$
CN(C)c1ccc(O)c2c1C[C@H]1C[C@H]3[C@@H](N(C)C)C(=O)C(C(N)=O)=C(O)[C@@]3(O)C(=O)C1=C2O
Actelion Java MolfileCreator 2.0

  0  0  0  0  0  0              0 V3000
M  V30 BEGIN CTAB
M  V30 COUNTS 60 63 0 0 0
M  V30 BEGIN ATOM
M  V30 1 O -1.2823 -3.5295 0.9616 0
M  V30 2 C -1.1234 -2.3478 0.6291 0
M  V30 3 C 0.17 -1.6592 0.9007 0
M  V30 4 C -2.2423 -1.5755 -0.1032 0 CFG=2
M  V30 5 C 1.2897 -2.3895 1.0766 0
M  V30 6 C 0.1724 -0.1631 1.0324 0 CFG=1
M  V30 7 O -3.4832 -2.2271 0.2048 0
M  V30 8 C -2.1039 -1.6477 -1.6104 0
M  V30 9 C -2.3091 -0.1264 0.393 0 CFG=1
M  V30 10 O 1.3262 -3.7622 0.9429 0
M  V30 11 C 2.5727 -1.7274 1.4414 0
M  V30 12 C 1.5347 0.4207 0.6116 0
M  V30 13 C -0.9368 0.5532 0.2426 0
M  V30 14 O -1.3437 -2.7189 -2.0639 0
M  V30 15 C -2.6896 -0.7502 -2.4372 0
M  V30 16 C -3.4794 0.5903 -0.3249 0 CFG=2
M  V30 17 C 3.6598 -2.4029 2.026 0
M  V30 18 C 2.7071 -0.3339 1.2017 0
M  V30 19 C -3.5229 0.3491 -1.8483 0
M  V30 20 C -2.5153 -0.9113 -3.9131 0
M  V30 21 N -3.5651 2.0256 0.0772 0
M  V30 22 O 3.5683 -3.7274 2.3606 0
M  V30 23 C 4.8507 -1.7384 2.3194 0
M  V30 24 C 3.9199 0.3431 1.4757 0
M  V30 25 O -4.2558 1.0113 -2.591 0
M  V30 26 O -1.7839 -1.7779 -4.388 0
M  V30 27 N -3.1933 -0.0601 -4.7204 0
M  V30 28 C -4.9557 2.4296 0.3119 0
M  V30 29 C -2.9293 2.9838 -0.8303 0
M  V30 30 C 4.9784 -0.3809 2.0368 0
M  V30 31 N 4.0648 1.6994 1.1656 0
M  V30 32 C 4.5007 1.9662 -0.2003 0
M  V30 33 C 4.5769 2.5775 2.2088 0
M  V30 34 H 0.0119 0.0559 2.0986 0
M  V30 35 H -3.2693 -3.1846 0.2384 0
M  V30 36 H -2.5545 -0.1353 1.4663 0
M  V30 37 H 0.4061 -4.0986 0.9253 0
M  V30 38 H 1.6416 0.3969 -0.481 0
M  V30 39 H 1.5551 1.4728 0.9208 0
M  V30 40 H -0.6609 0.6225 -0.8167 0
M  V30 41 H -0.9849 1.5813 0.6203 0
M  V30 42 H -1.2996 -2.7064 -3.0495 0
M  V30 43 H -4.3904 0.0915 0.0394 0
M  V30 44 H 4.4435 -4.0648 2.6011 0
M  V30 45 H 5.6882 -2.2612 2.7705 0
M  V30 46 H -3.8333 0.6384 -4.3432 0
M  V30 47 H -3.1041 -0.1488 -5.7229 0
M  V30 48 H -5.57 2.3526 -0.5917 0
M  V30 49 H -5.4098 1.8115 1.0947 0
M  V30 50 H -5.0014 3.4637 0.6724 0
M  V30 51 H -3.5203 3.1811 -1.7308 0
M  V30 52 H -1.9329 2.663 -1.1453 0
M  V30 53 H -2.7962 3.9416 -0.3138 0
M  V30 54 H 5.9246 0.1083 2.2495 0
M  V30 55 H 5.5482 1.6764 -0.3396 0
M  V30 56 H 4.4109 3.0346 -0.4248 0
M  V30 57 H 3.8899 1.4293 -0.9341 0
M  V30 58 H 4.0769 2.3877 3.1653 0
M  V30 59 H 4.3851 3.6235 1.9456 0
M  V30 60 H 5.6575 2.458 2.3415 0
M  V30 END ATOM
M  V30 BEGIN BOND
M  V30 1 2 1 2
M  V30 2 1 2 3
M  V30 3 1 2 4
M  V30 4 2 3 5
M  V30 5 1 3 6
M  V30 6 1 4 7
M  V30 7 1 4 8
M  V30 8 1 4 9
M  V30 9 1 5 10
M  V30 10 1 5 11
M  V30 11 1 6 12
M  V30 12 1 6 13
M  V30 13 1 8 14
M  V30 14 2 8 15
M  V30 15 1 9 16
M  V30 16 2 11 17
M  V30 17 1 11 18
M  V30 18 1 15 19
M  V30 19 1 15 20
M  V30 20 1 16 21
M  V30 21 1 17 22
M  V30 22 1 17 23
M  V30 23 2 18 24
M  V30 24 2 19 25
M  V30 25 2 20 26
M  V30 26 1 20 27
M  V30 27 1 21 28
M  V30 28 1 21 29
M  V30 29 2 23 30
M  V30 30 1 24 31
M  V30 31 1 31 32
M  V30 32 1 31 33
M  V30 33 1 9 13
M  V30 34 1 12 18
M  V30 35 1 16 19
M  V30 36 1 24 30
M  V30 37 1 6 34
M  V30 38 1 7 35
M  V30 39 1 9 36
M  V30 40 1 10 37
M  V30 41 1 12 38
M  V30 42 1 12 39
M  V30 43 1 13 40
M  V30 44 1 13 41
M  V30 45 1 14 42
M  V30 46 1 16 43
M  V30 47 1 22 44
M  V30 48 1 23 45
M  V30 49 1 27 46
M  V30 50 1 27 47
M  V30 51 1 28 48
M  V30 52 1 28 49
M  V30 53 1 28 50
M  V30 54 1 29 51
M  V30 55 1 29 52
M  V30 56 1 29 53
M  V30 57 1 30 54
M  V30 58 1 32 55
M  V30 59 1 32 56
M  V30 60 1 32 57
M  V30 61 1 33 58
M  V30 62 1 33 59
M  V30 63 1 33 60
M  V30 END BOND
M  V30 BEGIN COLLECTION
M  V30 MDLV30/STEABS ATOMS=(4 4 6 9 16)
M  V30 END COLLECTION
M  V30 END CTAB
M  END
>  <NO.>
268

>  <Name>
4-epiminocycline

>  <SMILES>
CN(C)c1ccc(O)c2c1C[C@H]1C[C@H]3[C@@H](N(C)C)C(=O)C(C(N)=O)=C(O)[C@@]3(O)C(=O)C1=C2O

>  <logBB>
-0.52

>  <Class>
1

>  <MW>
457.18

>  <nHBAcc>
9

>  <nHBDon>
5

>  <SLogP>
0.03

>  <TopoPSA>
164.63

>  <MMFF94 Energy>
105.5

$$$$
CN1CCC[C@H]1Cc1c[nH]c2ccc(CCS(=O)(=O)c3ccccc3)cc12
Actelion Java MolfileCreator 2.0

  0  0  0  0  0  0              0 V3000
M  V30 BEGIN CTAB
M  V30 COUNTS 53 56 0 0 0
M  V30 BEGIN ATOM
M  V30 1 S -2.4194 2.0158 3.6308 0
M  V30 2 O -2.2225 3.3602 4.1405 0
M  V30 3 O -3.0543 1.0035 4.4541 0
M  V30 4 C -3.3765 2.1315 2.1372 0
M  V30 5 C -0.8469 1.3832 3.096 0
M  V30 6 C -3.6279 3.3803 1.5632 0
M  V30 7 C -3.8903 0.9631 1.5666 0
M  V30 8 C -0.0938 2.3671 2.2145 0
M  V30 9 C -4.3775 3.4542 0.3896 0
M  V30 10 C -4.6395 1.0467 0.3937 0
M  V30 11 C 1.1912 1.761 1.708 0
M  V30 12 C -4.8787 2.2897 -0.1951 0
M  V30 13 C 1.2052 1.0719 0.4821 0
M  V30 14 C 2.3614 1.8454 2.4689 0
M  V30 15 C 2.3949 0.4681 0.0218 0
M  V30 16 C 3.5547 1.2613 2.0336 0
M  V30 17 C 3.539 0.5822 0.8105 0
M  V30 18 C 2.7459 -0.2904 -1.1437 0
M  V30 19 N 4.5502 -0.0754 0.1522 0
M  V30 20 C 4.0911 -0.5881 -1.0297 0
M  V30 21 C 1.8477 -0.6596 -2.2882 0
M  V30 22 C 1.7428 -2.1753 -2.5579 0 CFG=1
M  V30 23 N 1.0999 -3.052 -1.5493 0
M  V30 24 C 0.9763 -2.4683 -3.8521 0
M  V30 25 C 0.8422 -4.3026 -2.2785 0
M  V30 26 C -0.1334 -2.512 -0.9816 0
M  V30 27 C 0.4691 -3.8961 -3.6969 0
M  V30 28 H -1.0305 0.4313 2.586 0
M  V30 29 H -0.2763 1.1634 4.0056 0
M  V30 30 H -3.2511 4.2935 2.0189 0
M  V30 31 H -3.7242 -0.0058 2.0322 0
M  V30 32 H -0.7023 2.678 1.3576 0
M  V30 33 H 0.129 3.2887 2.7666 0
M  V30 34 H -4.5791 4.4209 -0.0662 0
M  V30 35 H -5.0478 0.1454 -0.0572 0
M  V30 36 H -5.4687 2.3529 -1.1066 0
M  V30 37 H 0.3018 0.9963 -0.1157 0
M  V30 38 H 2.3571 2.3729 3.4213 0
M  V30 39 H 4.4581 1.3339 2.6304 0
M  V30 40 H 5.4966 -0.1596 0.4951 0
M  V30 41 H 4.7563 -1.1336 -1.6853 0
M  V30 42 H 0.8501 -0.2284 -2.1453 0
M  V30 43 H 2.2484 -0.1731 -3.1882 0
M  V30 44 H 2.7653 -2.5581 -2.6905 0
M  V30 45 H 1.6207 -2.367 -4.7318 0
M  V30 46 H 0.1265 -1.7872 -3.9817 0
M  V30 47 H 0.0808 -4.9364 -1.8105 0
M  V30 48 H 1.7684 -4.8905 -2.299 0
M  V30 49 H 0.0712 -1.6281 -0.3718 0
M  V30 50 H -0.5886 -3.2423 -0.3025 0
M  V30 51 H -0.8786 -2.2461 -1.7389 0
M  V30 52 H 0.9245 -4.5661 -4.4331 0
M  V30 53 H -0.6167 -3.9243 -3.8414 0
M  V30 END ATOM
M  V30 BEGIN BOND
M  V30 1 2 1 2
M  V30 2 2 1 3
M  V30 3 1 1 4
M  V30 4 1 1 5
M  V30 5 2 4 6
M  V30 6 1 4 7
M  V30 7 1 5 8
M  V30 8 1 6 9
M  V30 9 2 7 10
M  V30 10 1 8 11
M  V30 11 2 9 12
M  V30 12 2 11 13
M  V30 13 1 11 14
M  V30 14 1 13 15
M  V30 15 2 14 16
M  V30 16 2 15 17
M  V30 17 1 15 18
M  V30 18 1 17 19
M  V30 19 2 18 20
M  V30 20 1 18 21
M  V30 21 1 21 22
M  V30 22 1 22 23
M  V30 23 1 22 24
M  V30 24 1 23 25
M  V30 25 1 23 26
M  V30 26 1 24 27
M  V30 27 1 10 12
M  V30 28 1 16 17
M  V30 29 1 19 20
M  V30 30 1 25 27
M  V30 31 1 5 28
M  V30 32 1 5 29
M  V30 33 1 6 30
M  V30 34 1 7 31
M  V30 35 1 8 32
M  V30 36 1 8 33
M  V30 37 1 9 34
M  V30 38 1 10 35
M  V30 39 1 12 36
M  V30 40 1 13 37
M  V30 41 1 14 38
M  V30 42 1 16 39
M  V30 43 1 19 40
M  V30 44 1 20 41
M  V30 45 1 21 42
M  V30 46 1 21 43
M  V30 47 1 22 44
M  V30 48 1 24 45
M  V30 49 1 24 46
M  V30 50 1 25 47
M  V30 51 1 25 48
M  V30 52 1 26 49
M  V30 53 1 26 50
M  V30 54 1 26 51
M  V30 55 1 27 52
M  V30 56 1 27 53
M  V30 END BOND
M  V30 BEGIN COLLECTION
M  V30 MDLV30/STEABS ATOMS=(1 22)
M  V30 END COLLECTION
M  V30 END CTAB
M  END
>  <NO.>
270

>  <Name>
eletriptan

>  <SMILES>
CN1CCC[C@H]1Cc1c[nH]c2ccc(CCS(=O)(=O)c3ccccc3)cc12

>  <logBB>
-0.52

>  <Class>
1

>  <MW>
382.17

>  <nHBAcc>
3

>  <nHBDon>
1

>  <SLogP>
3.82

>  <TopoPSA>
53.17

>  <MMFF94 Energy>
78.885

$$$$
COc1cc(/C=C/C(=O)NCCn2c(C)cc3ccccc32)cc(OC)c1OC
Actelion Java MolfileCreator 2.0

  0  0  0  0  0  0              0 V3000
M  V30 BEGIN CTAB
M  V30 COUNTS 55 57 0 0 0
M  V30 BEGIN ATOM
M  V30 1 O 3.3936 -0.7095 0.2364 0
M  V30 2 C 2.5111 -0.4118 -0.5569 0
M  V30 3 N 2.6404 0.5498 -1.5251 0
M  V30 4 C 1.155 -1.009 -0.5236 0
M  V30 5 C 3.8196 1.3917 -1.6095 0
M  V30 6 C 0.821 -1.8532 0.4636 0
M  V30 7 C 3.7975 2.5547 -0.6115 0
M  V30 8 C -0.5225 -2.4293 0.5945 0
M  V30 9 N 2.6713 3.4569 -0.8335 0
M  V30 10 C -1.6695 -1.6254 0.4979 0
M  V30 11 C -0.652 -3.7972 0.8714 0
M  V30 12 C 1.4503 3.3655 -0.1828 0
M  V30 13 C 2.6488 4.4999 -1.7388 0
M  V30 14 C -2.9417 -2.1796 0.6517 0
M  V30 15 C -1.9151 -4.3735 1.0264 0
M  V30 16 C 0.6178 4.3406 -0.7353 0
M  V30 17 C 0.9995 2.5071 0.8358 0
M  V30 18 C 1.3803 5.0443 -1.7023 0
M  V30 19 C 3.815 4.907 -2.5679 0
M  V30 20 O -4.1164 -1.4769 0.5704 0
M  V30 21 C -3.0521 -3.5522 0.9311 0
M  V30 22 O -2.1442 -5.7003 1.2865 0
M  V30 23 C -0.7083 4.4547 -0.2722 0
M  V30 24 C -0.32 2.6374 1.2795 0
M  V30 25 C -4.0409 -0.1203 0.1538 0
M  V30 26 O -4.3043 -4.1177 1.0419 0
M  V30 27 C -1.0297 -6.5797 1.2311 0
M  V30 28 C -1.1658 3.596 0.7325 0
M  V30 29 C -4.7267 -4.0916 2.4041 0
M  V30 30 H 1.847 0.7968 -2.1036 0
M  V30 31 H 0.4504 -0.7202 -1.293 0
M  V30 32 H 3.8706 1.7585 -2.6394 0
M  V30 33 H 4.7056 0.7736 -1.4277 0
M  V30 34 H 1.5487 -2.1448 1.2188 0
M  V30 35 H 3.7462 2.1937 0.4205 0
M  V30 36 H 4.7167 3.144 -0.6942 0
M  V30 37 H -1.546 -0.5625 0.3163 0
M  V30 38 H 0.25 -4.395 0.9556 0
M  V30 39 H 1.65 1.7607 1.2816 0
M  V30 40 H 1.0372 5.8765 -2.3035 0
M  V30 41 H 4.6518 5.216 -1.9339 0
M  V30 42 H 4.144 4.0866 -3.212 0
M  V30 43 H 3.5568 5.7532 -3.2132 0
M  V30 44 H -1.3692 5.2103 -0.6866 0
M  V30 45 H -0.6831 1.9852 2.0707 0
M  V30 46 H -3.5194 0.4902 0.8982 0
M  V30 47 H -5.0631 0.2608 0.0695 0
M  V30 48 H -3.5707 -0.0318 -0.8311 0
M  V30 49 H -0.5419 -6.5428 0.2514 0
M  V30 50 H -1.4003 -7.5985 1.3798 0
M  V30 51 H -0.3197 -6.3639 2.036 0
M  V30 52 H -2.186 3.6902 1.0958 0
M  V30 53 H -4.0575 -4.679 3.0422 0
M  V30 54 H -5.7219 -4.5435 2.4541 0
M  V30 55 H -4.8035 -3.0654 2.7798 0
M  V30 END ATOM
M  V30 BEGIN BOND
M  V30 1 2 1 2
M  V30 2 1 2 3
M  V30 3 1 2 4
M  V30 4 1 3 5
M  V30 5 2 4 6
M  V30 6 1 5 7
M  V30 7 1 6 8
M  V30 8 1 7 9
M  V30 9 2 8 10
M  V30 10 1 8 11
M  V30 11 1 9 12
M  V30 12 1 9 13
M  V30 13 1 10 14
M  V30 14 2 11 15
M  V30 15 2 12 16
M  V30 16 1 12 17
M  V30 17 2 13 18
M  V30 18 1 13 19
M  V30 19 1 14 20
M  V30 20 2 14 21
M  V30 21 1 15 22
M  V30 22 1 16 23
M  V30 23 2 17 24
M  V30 24 1 20 25
M  V30 25 1 21 26
M  V30 26 1 22 27
M  V30 27 2 23 28
M  V30 28 1 26 29
M  V30 29 1 15 21
M  V30 30 1 16 18
M  V30 31 1 24 28
M  V30 32 1 3 30
M  V30 33 1 4 31
M  V30 34 1 5 32
M  V30 35 1 5 33
M  V30 36 1 6 34
M  V30 37 1 7 35
M  V30 38 1 7 36
M  V30 39 1 10 37
M  V30 40 1 11 38
M  V30 41 1 17 39
M  V30 42 1 18 40
M  V30 43 1 19 41
M  V30 44 1 19 42
M  V30 45 1 19 43
M  V30 46 1 23 44
M  V30 47 1 24 45
M  V30 48 1 25 46
M  V30 49 1 25 47
M  V30 50 1 25 48
M  V30 51 1 27 49
M  V30 52 1 27 50
M  V30 53 1 27 51
M  V30 54 1 28 52
M  V30 55 1 29 53
M  V30 56 1 29 54
M  V30 57 1 29 55
M  V30 END BOND
M  V30 END CTAB
M  END
>  <NO.>
271

>  <Name>
tg4-155

>  <SMILES>
COc1cc(/C=C/C(=O)NCCn2c(C)cc3ccccc32)cc(OC)c1OC

>  <logBB>
-0.52

>  <Class>
1

>  <MW>
394.19

>  <nHBAcc>
4

>  <nHBDon>
1

>  <SLogP>
3.81

>  <TopoPSA>
61.72

>  <MMFF94 Energy>
48.724

$$$$
COc1ccc(S(=O)(=O)Nc2cc(Br)cc(F)c2Br)cc1N1CCNCC1
Actelion Java MolfileCreator 2.0

  0  0  0  0  0  0              0 V3000
M  V30 BEGIN CTAB
M  V30 COUNTS 45 47 0 0 0
M  V30 BEGIN ATOM
M  V30 1 Br 0.7473 -3.2413 -0.332 0
M  V30 2 C 1.0723 -2.5711 -2.0786 0
M  V30 3 C 2.389 -2.3824 -2.5003 0
M  V30 4 C 0.0162 -2.2662 -2.9503 0
M  V30 5 F 3.4152 -2.6618 -1.6832 0
M  V30 6 C 2.6722 -1.9018 -3.7742 0
M  V30 7 N -1.3457 -2.4233 -2.5318 0
M  V30 8 C 0.2977 -1.7979 -4.2378 0
M  V30 9 C 1.6217 -1.6145 -4.6395 0
M  V30 10 S -2.3465 -1.0589 -2.4421 0
M  V30 11 Br 1.9925 -0.9674 -6.3759 0
M  V30 12 O -2.4757 -0.4827 -3.7631 0
M  V30 13 O -3.5088 -1.4568 -1.6775 0
M  V30 14 C -1.4004 0.0627 -1.4425 0
M  V30 15 C -1.3845 -0.1119 -0.056 0
M  V30 16 C -0.689 1.0997 -2.04 0
M  V30 17 C -0.6133 0.7228 0.7674 0
M  V30 18 C 0.0689 1.9543 -1.2413 0
M  V30 19 N -0.5688 0.5116 2.1443 0
M  V30 20 C 0.1106 1.7796 0.1507 0
M  V30 21 C -1.7354 -0.014 2.8675 0
M  V30 22 C 0.7321 0.1428 2.7305 0
M  V30 23 O 0.8183 2.6063 0.9941 0
M  V30 24 C -1.6359 0.3251 4.3726 0
M  V30 25 C 0.7586 0.4769 4.2385 0
M  V30 26 C 1.3114 3.8266 0.4604 0
M  V30 27 N -0.3685 -0.1075 4.9945 0
M  V30 28 H 3.707 -1.7649 -4.0727 0
M  V30 29 H -1.5087 -3.0437 -1.7359 0
M  V30 30 H -0.5123 -1.5843 -4.9323 0
M  V30 31 H -1.9527 -0.9291 0.3804 0
M  V30 32 H -0.7144 1.2499 -3.1171 0
M  V30 33 H 0.6182 2.7508 -1.7325 0
M  V30 34 H -2.6613 0.4267 2.4784 0
M  V30 35 H -1.7943 -1.1023 2.7413 0
M  V30 36 H 1.5729 0.6536 2.2501 0
M  V30 37 H 0.8926 -0.934 2.5904 0
M  V30 38 H -2.4667 -0.1545 4.9015 0
M  V30 39 H -1.7508 1.408 4.5095 0
M  V30 40 H 1.6952 0.1063 4.6691 0
M  V30 41 H 0.7528 1.5665 4.37 0
M  V30 42 H 2.1208 3.6423 -0.253 0
M  V30 43 H 1.7267 4.4093 1.2884 0
M  V30 44 H 0.5094 4.4189 0.0074 0
M  V30 45 H -0.3363 0.2402 5.9518 0
M  V30 END ATOM
M  V30 BEGIN BOND
M  V30 1 1 1 2
M  V30 2 2 2 3
M  V30 3 1 2 4
M  V30 4 1 3 5
M  V30 5 1 3 6
M  V30 6 1 4 7
M  V30 7 2 4 8
M  V30 8 2 6 9
M  V30 9 1 7 10
M  V30 10 1 9 11
M  V30 11 2 10 12
M  V30 12 2 10 13
M  V30 13 1 10 14
M  V30 14 2 14 15
M  V30 15 1 14 16
M  V30 16 1 15 17
M  V30 17 2 16 18
M  V30 18 1 17 19
M  V30 19 2 17 20
M  V30 20 1 19 21
M  V30 21 1 19 22
M  V30 22 1 20 23
M  V30 23 1 21 24
M  V30 24 1 22 25
M  V30 25 1 23 26
M  V30 26 1 24 27
M  V30 27 1 8 9
M  V30 28 1 18 20
M  V30 29 1 25 27
M  V30 30 1 6 28
M  V30 31 1 7 29
M  V30 32 1 8 30
M  V30 33 1 15 31
M  V30 34 1 16 32
M  V30 35 1 18 33
M  V30 36 1 21 34
M  V30 37 1 21 35
M  V30 38 1 22 36
M  V30 39 1 22 37
M  V30 40 1 24 38
M  V30 41 1 24 39
M  V30 42 1 25 40
M  V30 43 1 25 41
M  V30 44 1 26 42
M  V30 45 1 26 43
M  V30 46 1 26 44
M  V30 47 1 27 45
M  V30 END BOND
M  V30 END CTAB
M  END
>  <NO.>
272

>  <Name>
sb-357134

>  <SMILES>
COc1ccc(S(=O)(=O)Nc2cc(Br)cc(F)c2Br)cc1N1CCNCC1

>  <logBB>
-0.52

>  <Class>
1

>  <MW>
520.94

>  <nHBAcc>
5

>  <nHBDon>
2

>  <SLogP>
3.57

>  <TopoPSA>
70.67

>  <MMFF94 Energy>
89.612

$$$$
O=NN(CCCl)C(=O)NCCCl
Actelion Java MolfileCreator 2.0

  0  0  0  0  0  0              0 V3000
M  V30 BEGIN CTAB
M  V30 COUNTS 21 20 0 0 0
M  V30 BEGIN ATOM
M  V30 1 Cl 2.4422 -2.6867 1.3019 0
M  V30 2 C 2.7596 -1.2183 0.3429 0
M  V30 3 C 1.9971 -1.2301 -0.9801 0
M  V30 4 N 0.5523 -1.095 -0.8174 0
M  V30 5 N -0.2326 -2.3585 -1.0167 0
M  V30 6 C 0.0328 0.1562 -0.5029 0
M  V30 7 O -1.4542 -2.2495 -0.8897 0
M  V30 8 O 0.7591 1.1412 -0.3486 0
M  V30 9 N -1.3217 0.2601 -0.354 0
M  V30 10 C -1.9895 1.513 -0.0522 0
M  V30 11 C -1.817 1.9364 1.4031 0
M  V30 12 Cl -2.7639 3.4047 1.7436 0
M  V30 13 H 2.4973 -0.3575 0.9642 0
M  V30 14 H 3.8365 -1.1886 0.1528 0
M  V30 15 H 2.3439 -0.3844 -1.5871 0
M  V30 16 H 2.2205 -2.1397 -1.5511 0
M  V30 17 H -1.8805 -0.573 -0.4981 0
M  V30 18 H -3.0494 1.3673 -0.2881 0
M  V30 19 H -1.5955 2.2841 -0.7244 0
M  V30 20 H -0.7705 2.1501 1.6395 0
M  V30 21 H -2.1639 1.1508 2.0819 0
M  V30 END ATOM
M  V30 BEGIN BOND
M  V30 1 1 1 2
M  V30 2 1 2 3
M  V30 3 1 3 4
M  V30 4 1 4 5
M  V30 5 1 4 6
M  V30 6 2 5 7
M  V30 7 2 6 8
M  V30 8 1 6 9
M  V30 9 1 9 10
M  V30 10 1 10 11
M  V30 11 1 11 12
M  V30 12 1 2 13
M  V30 13 1 2 14
M  V30 14 1 3 15
M  V30 15 1 3 16
M  V30 16 1 9 17
M  V30 17 1 10 18
M  V30 18 1 10 19
M  V30 19 1 11 20
M  V30 20 1 11 21
M  V30 END BOND
M  V30 END CTAB
M  END
>  <NO.>
273

>  <Name>
bis(chloroethyl)nitrosourea (carmustine) (bcnu)

>  <SMILES>
O=NN(CCCl)C(=O)NCCCl

>  <logBB>
-0.52

>  <Class>
1

>  <MW>
213.01

>  <nHBAcc>
3

>  <nHBDon>
1

>  <SLogP>
1.16

>  <TopoPSA>
61.77

>  <MMFF94 Energy>
-36.006

$$$$
O=c1[nH]c2ccc([S+]([O-])CCN3CCC(Cc4ccc(F)cc4)CC3)cc2o1
Actelion Java MolfileCreator 2.0

  0  0  0  0  0  0              0 V3000
M  V30 BEGIN CTAB
M  V30 COUNTS 51 54 0 0 0
M  V30 BEGIN ATOM
M  V30 1 S 0.2435 -4.3097 0.2435 0 CFG=2
M  V30 2 O -0.5998 -5.0683 -0.7397 0
M  V30 3 C -0.7484 -4.2426 1.7567 0
M  V30 4 C 0.1206 -2.5422 -0.2161 0
M  V30 5 C -2.1492 -4.2842 1.6907 0
M  V30 6 C -0.0905 -4.1679 3.008 0
M  V30 7 C 1.1032 -1.6933 0.5959 0
M  V30 8 C -2.8417 -4.2284 2.88 0
M  V30 9 C -0.8178 -4.1145 4.2024 0
M  V30 10 N 1.1452 -0.2514 0.3002 0
M  V30 11 O -4.22 -4.2476 3.0213 0
M  V30 12 C -2.1872 -4.1451 4.0907 0
M  V30 13 C 1.6067 0.04 -1.0611 0
M  V30 14 C -0.1196 0.4293 0.5951 0
M  V30 15 C -4.3768 -4.1713 4.4116 0
M  V30 16 N -3.1585 -4.1098 5.0473 0
M  V30 17 C 1.8258 1.543 -1.2501 0
M  V30 18 C 0.0418 1.9451 0.4666 0
M  V30 19 O -5.4597 -4.1575 4.9779 0
M  V30 20 C 0.5541 2.3439 -0.9262 0
M  V30 21 C 0.7916 3.8647 -0.9855 0
M  V30 22 C 1.0961 4.3763 -2.3742 0
M  V30 23 C 2.3996 4.766 -2.7185 0
M  V30 24 C 0.0791 4.4623 -3.338 0
M  V30 25 C 2.6802 5.2312 -4.0039 0
M  V30 26 C 0.3621 4.9279 -4.6226 0
M  V30 27 C 1.6595 5.3076 -4.9434 0
M  V30 28 F 1.9303 5.7538 -6.1771 0
M  V30 29 H 0.3613 -2.4947 -1.2826 0
M  V30 30 H -0.9159 -2.2171 -0.0886 0
M  V30 31 H -2.6722 -4.3647 0.7431 0
M  V30 32 H 0.9971 -4.1561 3.053 0
M  V30 33 H 2.117 -2.0974 0.4725 0
M  V30 34 H 0.8921 -1.8029 1.6664 0
M  V30 35 H -0.3195 -4.057 5.1629 0
M  V30 36 H 2.5591 -0.4694 -1.2505 0
M  V30 37 H 0.8891 -0.3171 -1.8099 0
M  V30 38 H -0.4354 0.2056 1.6213 0
M  V30 39 H -0.92 0.0923 -0.0748 0
M  V30 40 H -3.0522 -4.055 6.0467 0
M  V30 41 H 2.6507 1.8745 -0.6058 0
M  V30 42 H 2.1372 1.7242 -2.2852 0
M  V30 43 H -0.9235 2.4281 0.6608 0
M  V30 44 H 0.7367 2.3036 1.2378 0
M  V30 45 H -0.2175 2.0711 -1.6593 0
M  V30 46 H 1.601 4.1455 -0.2989 0
M  V30 47 H -0.0995 4.394 -0.6219 0
M  V30 48 H 3.2036 4.7064 -1.988 0
M  V30 49 H -0.9386 4.1684 -3.091 0
M  V30 50 H 3.6858 5.5336 -4.2774 0
M  V30 51 H -0.4189 4.9976 -5.3726 0
M  V30 END ATOM
M  V30 BEGIN BOND
M  V30 1 2 1 2
M  V30 2 1 1 3
M  V30 3 1 1 4
M  V30 4 2 3 5
M  V30 5 1 3 6
M  V30 6 1 4 7
M  V30 7 1 5 8
M  V30 8 2 6 9
M  V30 9 1 7 10
M  V30 10 1 8 11
M  V30 11 2 8 12
M  V30 12 1 10 13
M  V30 13 1 10 14
M  V30 14 1 11 15
M  V30 15 1 12 16
M  V30 16 1 13 17
M  V30 17 1 14 18
M  V30 18 2 15 19
M  V30 19 1 17 20
M  V30 20 1 20 21
M  V30 21 1 21 22
M  V30 22 2 22 23
M  V30 23 1 22 24
M  V30 24 1 23 25
M  V30 25 2 24 26
M  V30 26 2 25 27
M  V30 27 1 27 28
M  V30 28 1 9 12
M  V30 29 1 15 16
M  V30 30 1 18 20
M  V30 31 1 26 27
M  V30 32 1 4 29
M  V30 33 1 4 30
M  V30 34 1 5 31
M  V30 35 1 6 32
M  V30 36 1 7 33
M  V30 37 1 7 34
M  V30 38 1 9 35
M  V30 39 1 13 36
M  V30 40 1 13 37
M  V30 41 1 14 38
M  V30 42 1 14 39
M  V30 43 1 16 40
M  V30 44 1 17 41
M  V30 45 1 17 42
M  V30 46 1 18 43
M  V30 47 1 18 44
M  V30 48 1 20 45
M  V30 49 1 21 46
M  V30 50 1 21 47
M  V30 51 1 23 48
M  V30 52 1 24 49
M  V30 53 1 25 50
M  V30 54 1 26 51
M  V30 END BOND
M  V30 BEGIN COLLECTION
M  V30 MDLV30/STERAC1 ATOMS=(1 1)
M  V30 END COLLECTION
M  V30 END CTAB
M  END
>  <NO.>
274

>  <Name>
besonprodil

>  <SMILES>
O=c1[nH]c2ccc([S+]([O-])CCN3CCC(Cc4ccc(F)cc4)CC3)cc2o1

>  <logBB>
-0.52

>  <Class>
1

>  <MW>
402.14

>  <nHBAcc>
4

>  <nHBDon>
1

>  <SLogP>
3.32

>  <TopoPSA>
72.3

>  <MMFF94 Energy>
36.008

$$$$
CCCCc1c(O)n(-c2ccccc2)n(-c2ccccc2)c1=O
Actelion Java MolfileCreator 2.0

  0  0  0  0  0  0              0 V3000
M  V30 BEGIN CTAB
M  V30 COUNTS 43 45 0 0 0
M  V30 BEGIN ATOM
M  V30 1 O 1.2671 -0.2374 -2.139 0
M  V30 2 C 0.5842 -0.3456 -1.132 0
M  V30 3 N 0.9546 -0.2638 0.2129 0
M  V30 4 C -0.8693 -0.6792 -1.1696 0
M  V30 5 N -0.1858 -0.5182 0.9898 0
M  V30 6 C 2.2723 -0.4768 0.679 0
M  V30 7 C -1.2306 -0.7864 0.119 0
M  V30 8 C -1.6082 -0.8735 -2.4427 0
M  V30 9 C -0.3357 0.0921 2.267 0
M  V30 10 C 3.3375 0.2103 0.0829 0
M  V30 11 C 2.5438 -1.365 1.7285 0
M  V30 12 O -2.495 -1.0658 0.5637 0
M  V30 13 C -1.981 0.461 -3.0924 0
M  V30 14 C -1.2048 -0.4682 3.2195 0
M  V30 15 C 0.3646 1.254 2.6357 0
M  V30 16 C 4.6467 0.0199 0.5319 0
M  V30 17 C 3.853 -1.5538 2.1782 0
M  V30 18 C -2.7459 0.2467 -4.3988 0
M  V30 19 C -1.3657 0.102 4.486 0
M  V30 20 C 0.2066 1.8275 3.9018 0
M  V30 21 C 4.9034 -0.8605 1.5805 0
M  V30 22 C -3.1197 1.5692 -5.049 0
M  V30 23 C -0.6582 1.2505 4.8268 0
M  V30 24 H -2.5177 -1.4596 -2.2653 0
M  V30 25 H -0.9968 -1.4681 -3.1326 0
M  V30 26 H 3.1576 0.9019 -0.7371 0
M  V30 27 H 1.7421 -1.9248 2.2031 0
M  V30 28 H -3.0873 -1.127 -0.2021 0
M  V30 29 H -1.0754 1.0471 -3.293 0
M  V30 30 H -2.5966 1.0505 -2.4008 0
M  V30 31 H -1.7583 -1.3734 2.9807 0
M  V30 32 H 1.0354 1.7411 1.933 0
M  V30 33 H 5.4643 0.5582 0.0594 0
M  V30 34 H 4.0505 -2.2443 2.994 0
M  V30 35 H -2.1344 -0.3368 -5.0967 0
M  V30 36 H -3.6584 -0.3294 -4.206 0
M  V30 37 H -2.0425 -0.3549 5.2029 0
M  V30 38 H 0.7599 2.7265 4.1604 0
M  V30 39 H 5.922 -1.0094 1.9292 0
M  V30 40 H -3.6657 1.3925 -5.9809 0
M  V30 41 H -3.7586 2.1643 -4.3886 0
M  V30 42 H -2.2267 2.1568 -5.2845 0
M  V30 43 H -0.7811 1.6956 5.8105 0
M  V30 END ATOM
M  V30 BEGIN BOND
M  V30 1 2 1 2
M  V30 2 1 2 3
M  V30 3 1 2 4
M  V30 4 1 3 5
M  V30 5 1 3 6
M  V30 6 2 4 7
M  V30 7 1 4 8
M  V30 8 1 5 9
M  V30 9 2 6 10
M  V30 10 1 6 11
M  V30 11 1 7 12
M  V30 12 1 8 13
M  V30 13 2 9 14
M  V30 14 1 9 15
M  V30 15 1 10 16
M  V30 16 2 11 17
M  V30 17 1 13 18
M  V30 18 1 14 19
M  V30 19 2 15 20
M  V30 20 2 16 21
M  V30 21 1 18 22
M  V30 22 2 19 23
M  V30 23 1 5 7
M  V30 24 1 17 21
M  V30 25 1 20 23
M  V30 26 1 8 24
M  V30 27 1 8 25
M  V30 28 1 10 26
M  V30 29 1 11 27
M  V30 30 1 12 28
M  V30 31 1 13 29
M  V30 32 1 13 30
M  V30 33 1 14 31
M  V30 34 1 15 32
M  V30 35 1 16 33
M  V30 36 1 17 34
M  V30 37 1 18 35
M  V30 38 1 18 36
M  V30 39 1 19 37
M  V30 40 1 20 38
M  V30 41 1 21 39
M  V30 42 1 22 40
M  V30 43 1 22 41
M  V30 44 1 22 42
M  V30 45 1 23 43
M  V30 END BOND
M  V30 END CTAB
M  END
>  <NO.>
275

>  <Name>
chembl2111136

>  <SMILES>
CCCCc1c(O)n(-c2ccccc2)n(-c2ccccc2)c1=O

>  <logBB>
-0.52

>  <Class>
1

>  <MW>
308.15

>  <nHBAcc>
2

>  <nHBDon>
1

>  <SLogP>
3.68

>  <TopoPSA>
47.16

>  <MMFF94 Energy>
55.826

$$$$
CN(C(=O)C(c1ccccc1)c1ccccc1)C(CN1CCC(O)C1)c1ccccc1
Actelion Java MolfileCreator 2.0

  0  0  0  0  0  0              0 V3000
M  V30 BEGIN CTAB
M  V30 COUNTS 61 64 0 0 0
M  V30 BEGIN ATOM
M  V30 1 O -0.7163 -0.3183 -1.5127 0
M  V30 2 C 0.3551 0.1391 -1.1011 0
M  V30 3 N 0.651 0.132 0.2663 0
M  V30 4 C 1.3826 0.7855 -2.0689 0
M  V30 5 C -0.3908 -0.3578 1.2093 0
M  V30 6 C 1.9531 0.5027 0.8085 0
M  V30 7 C 1.4316 0.0884 -3.4308 0
M  V30 8 C 1.2102 2.3029 -2.1858 0
M  V30 9 C -0.5742 0.6158 2.3748 0
M  V30 10 C -0.1149 -1.8627 1.5419 0
M  V30 11 C 2.5574 -0.6739 -3.788 0
M  V30 12 C 0.3734 0.1849 -4.3484 0
M  V30 13 C 2.3349 3.105 -2.448 0
M  V30 14 C -0.0418 2.9281 -2.0678 0
M  V30 15 C -0.9991 1.9287 2.0922 0
M  V30 16 C -0.3347 0.2746 3.7136 0
M  V30 17 N -1.1438 -2.5651 2.3249 0
M  V30 18 C 2.6229 -1.3134 -5.0277 0
M  V30 19 C 0.4406 -0.4559 -5.5869 0
M  V30 20 C 2.2134 4.4909 -2.5638 0
M  V30 21 C -0.1604 4.3147 -2.1831 0
M  V30 22 C -1.1708 2.8669 3.1113 0
M  V30 23 C -0.5094 1.214 4.734 0
M  V30 24 C -2.4619 -2.6044 1.6649 0
M  V30 25 C -0.7923 -3.9587 2.5934 0
M  V30 26 C 1.5651 -1.2033 -5.9268 0
M  V30 27 C 0.9664 5.0955 -2.4275 0
M  V30 28 C -0.925 2.5087 4.4333 0
M  V30 29 C -3.145 -3.8732 2.1986 0
M  V30 30 C -2.1051 -4.5211 3.1036 0
M  V30 31 O -4.3336 -3.5794 2.9191 0
M  V30 32 H 2.373 0.6344 -1.6272 0
M  V30 33 H -1.353 -0.338 0.6816 0
M  V30 34 H 2.1301 1.5651 0.621 0
M  V30 35 H 2.0153 0.3071 1.8813 0
M  V30 36 H 2.7296 -0.0895 0.3166 0
M  V30 37 H 0.8362 -1.9266 2.0871 0
M  V30 38 H 0.0483 -2.3981 0.5958 0
M  V30 39 H 3.3968 -0.7762 -3.1043 0
M  V30 40 H -0.5205 0.7533 -4.0998 0
M  V30 41 H 3.3162 2.6518 -2.5714 0
M  V30 42 H -0.9438 2.3443 -1.8925 0
M  V30 43 H -1.1972 2.2249 1.0636 0
M  V30 44 H -0.0192 -0.7281 3.989 0
M  V30 45 H 3.4996 -1.8986 -5.2918 0
M  V30 46 H -0.3896 -0.3729 -6.2832 0
M  V30 47 H 3.0916 5.098 -2.7669 0
M  V30 48 H -1.1364 4.784 -2.0883 0
M  V30 49 H -1.4995 3.8743 2.8712 0
M  V30 50 H -0.3267 0.9289 5.7668 0
M  V30 51 H -2.354 -2.6958 0.5768 0
M  V30 52 H -3.0381 -1.7004 1.8864 0
M  V30 53 H -0.4805 -4.4858 1.6829 0
M  V30 54 H 0.0 -4.0457 3.343 0
M  V30 55 H 1.6146 -1.702 -6.8908 0
M  V30 56 H 0.8709 6.1739 -2.521 0
M  V30 57 H -1.0633 3.2351 5.2293 0
M  V30 58 H -3.4019 -4.5379 1.366 0
M  V30 59 H -2.2703 -4.2462 4.1531 0
M  V30 60 H -2.1364 -5.6133 3.04 0
M  V30 61 H -4.6235 -4.399 3.3531 0
M  V30 END ATOM
M  V30 BEGIN BOND
M  V30 1 2 1 2
M  V30 2 1 2 3
M  V30 3 1 2 4
M  V30 4 1 3 5
M  V30 5 1 3 6
M  V30 6 1 4 7
M  V30 7 1 4 8
M  V30 8 1 5 9
M  V30 9 1 5 10
M  V30 10 2 7 11
M  V30 11 1 7 12
M  V30 12 2 8 13
M  V30 13 1 8 14
M  V30 14 2 9 15
M  V30 15 1 9 16
M  V30 16 1 10 17
M  V30 17 1 11 18
M  V30 18 2 12 19
M  V30 19 1 13 20
M  V30 20 2 14 21
M  V30 21 1 15 22
M  V30 22 2 16 23
M  V30 23 1 17 24
M  V30 24 1 17 25
M  V30 25 2 18 26
M  V30 26 2 20 27
M  V30 27 2 22 28
M  V30 28 1 24 29
M  V30 29 1 25 30
M  V30 30 1 29 31
M  V30 31 1 19 26
M  V30 32 1 21 27
M  V30 33 1 23 28
M  V30 34 1 29 30
M  V30 35 1 4 32
M  V30 36 1 5 33
M  V30 37 1 6 34
M  V30 38 1 6 35
M  V30 39 1 6 36
M  V30 40 1 10 37
M  V30 41 1 10 38
M  V30 42 1 11 39
M  V30 43 1 12 40
M  V30 44 1 13 41
M  V30 45 1 14 42
M  V30 46 1 15 43
M  V30 47 1 16 44
M  V30 48 1 18 45
M  V30 49 1 19 46
M  V30 50 1 20 47
M  V30 51 1 21 48
M  V30 52 1 22 49
M  V30 53 1 23 50
M  V30 54 1 24 51
M  V30 55 1 24 52
M  V30 56 1 25 53
M  V30 57 1 25 54
M  V30 58 1 26 55
M  V30 59 1 27 56
M  V30 60 1 28 57
M  V30 61 1 29 58
M  V30 62 1 30 59
M  V30 63 1 30 60
M  V30 64 1 31 61
M  V30 END BOND
M  V30 END CTAB
M  END
>  <NO.>
276

>  <Name>
schembl8717354

>  <SMILES>
CN(C(=O)C(c1ccccc1)c1ccccc1)C(CN1CCC(O)C1)c1ccccc1

>  <logBB>
-0.51

>  <Class>
1

>  <MW>
414.23

>  <nHBAcc>
3

>  <nHBDon>
1

>  <SLogP>
4.08

>  <TopoPSA>
43.78

>  <MMFF94 Energy>
155.79

$$$$
O=C(CF)NCCCCCC(=O)Nc1ccccc1
Actelion Java MolfileCreator 2.0

  0  0  0  0  0  0              0 V3000
M  V30 BEGIN CTAB
M  V30 COUNTS 38 38 0 0 0
M  V30 BEGIN ATOM
M  V30 1 F 3.7621 -4.94 2.1932 0
M  V30 2 C 3.0948 -4.2116 3.1392 0
M  V30 3 C 3.2576 -2.7183 2.9323 0
M  V30 4 O 2.7288 -1.89 3.6681 0
M  V30 5 N 4.043 -2.3946 1.8473 0
M  V30 6 C 4.3503 -1.033 1.4668 0
M  V30 7 C 3.4773 -0.5372 0.3149 0
M  V30 8 C 2.0147 -0.3349 0.7191 0
M  V30 9 C 1.1943 0.2469 -0.4327 0
M  V30 10 C -0.2612 0.4599 -0.0227 0
M  V30 11 C -1.109 1.0321 -1.1498 0
M  V30 12 O -0.6476 1.2604 -2.2614 0
M  V30 13 N -2.4163 1.239 -0.7375 0
M  V30 14 C -3.489 1.7488 -1.4978 0
M  V30 15 C -3.394 2.1055 -2.8437 0
M  V30 16 C -4.7207 1.8969 -0.8455 0
M  V30 17 C -4.5093 2.6029 -3.5261 0
M  V30 18 C -5.835 2.3938 -1.5271 0
M  V30 19 C -5.7286 2.7473 -2.869 0
M  V30 20 H 2.0349 -4.4707 3.0776 0
M  V30 21 H 3.4937 -4.4859 4.1189 0
M  V30 22 H 4.425 -3.1627 1.3028 0
M  V30 23 H 5.3996 -1.0293 1.1535 0
M  V30 24 H 4.2581 -0.372 2.3354 0
M  V30 25 H 3.5328 -1.2425 -0.5232 0
M  V30 26 H 3.8847 0.4173 -0.0398 0
M  V30 27 H 1.9623 0.3386 1.5831 0
M  V30 28 H 1.5753 -1.2912 1.0244 0
M  V30 29 H 1.2409 -0.4278 -1.2963 0
M  V30 30 H 1.6299 1.2015 -0.7529 0
M  V30 31 H -0.7057 -0.4933 0.2877 0
M  V30 32 H -0.3117 1.1494 0.8286 0
M  V30 33 H -2.6301 1.0035 0.2231 0
M  V30 34 H -2.4649 2.0086 -3.396 0
M  V30 35 H -4.8323 1.6296 0.2017 0
M  V30 36 H -4.4194 2.8768 -4.5743 0
M  V30 37 H -6.7844 2.5048 -1.0099 0
M  V30 38 H -6.5924 3.1343 -3.403 0
M  V30 END ATOM
M  V30 BEGIN BOND
M  V30 1 1 1 2
M  V30 2 1 2 3
M  V30 3 2 3 4
M  V30 4 1 3 5
M  V30 5 1 5 6
M  V30 6 1 6 7
M  V30 7 1 7 8
M  V30 8 1 8 9
M  V30 9 1 9 10
M  V30 10 1 10 11
M  V30 11 2 11 12
M  V30 12 1 11 13
M  V30 13 1 13 14
M  V30 14 2 14 15
M  V30 15 1 14 16
M  V30 16 1 15 17
M  V30 17 2 16 18
M  V30 18 2 17 19
M  V30 19 1 18 19
M  V30 20 1 2 20
M  V30 21 1 2 21
M  V30 22 1 5 22
M  V30 23 1 6 23
M  V30 24 1 6 24
M  V30 25 1 7 25
M  V30 26 1 7 26
M  V30 27 1 8 27
M  V30 28 1 8 28
M  V30 29 1 9 29
M  V30 30 1 9 30
M  V30 31 1 10 31
M  V30 32 1 10 32
M  V30 33 1 13 33
M  V30 34 1 15 34
M  V30 35 1 16 35
M  V30 36 1 17 36
M  V30 37 1 18 37
M  V30 38 1 19 38
M  V30 END BOND
M  V30 END CTAB
M  END
>  <NO.>
277

>  <Name>
faha

>  <SMILES>
O=C(CF)NCCCCCC(=O)Nc1ccccc1

>  <logBB>
-0.51

>  <Class>
1

>  <MW>
266.14

>  <nHBAcc>
2

>  <nHBDon>
2

>  <SLogP>
2.27

>  <TopoPSA>
58.2

>  <MMFF94 Energy>
4.3466

$$$$
CC(=O)Oc1ccccc1C(=O)O
Actelion Java MolfileCreator 2.0

  0  0  0  0  0  0              0 V3000
M  V30 BEGIN CTAB
M  V30 COUNTS 21 21 0 0 0
M  V30 BEGIN ATOM
M  V30 1 O 0.8698 2.2943 -2.136 0
M  V30 2 C 0.7572 1.2321 -1.5484 0
M  V30 3 O 0.9155 0.0754 -2.2136 0
M  V30 4 C 0.4874 1.0853 -0.0961 0
M  V30 5 C 0.2398 -0.1285 0.559 0
M  V30 6 C 0.4908 2.2656 0.666 0
M  V30 7 O 0.2325 -1.3587 -0.1022 0
M  V30 8 C 0.0403 -0.1713 1.9446 0
M  V30 9 C 0.2728 2.2276 2.0465 0
M  V30 10 C -0.9897 -1.6342 -0.7034 0
M  V30 11 C 0.052 1.0091 2.6852 0
M  V30 12 O -2.0022 -0.9479 -0.6577 0
M  V30 13 C -0.888 -2.944 -1.4264 0
M  V30 14 H 1.0968 0.3691 -3.1314 0
M  V30 15 H 0.6678 3.227 0.1858 0
M  V30 16 H -0.1334 -1.1208 2.4435 0
M  V30 17 H 0.2779 3.1508 2.6214 0
M  V30 18 H -0.1142 0.9797 3.7593 0
M  V30 19 H -0.0996 -2.8913 -2.1813 0
M  V30 20 H -0.6857 -3.7461 -0.7125 0
M  V30 21 H -1.8361 -3.1538 -1.9298 0
M  V30 END ATOM
M  V30 BEGIN BOND
M  V30 1 2 1 2
M  V30 2 1 2 3
M  V30 3 1 2 4
M  V30 4 2 4 5
M  V30 5 1 4 6
M  V30 6 1 5 7
M  V30 7 1 5 8
M  V30 8 2 6 9
M  V30 9 1 7 10
M  V30 10 2 8 11
M  V30 11 2 10 12
M  V30 12 1 10 13
M  V30 13 1 9 11
M  V30 14 1 3 14
M  V30 15 1 6 15
M  V30 16 1 8 16
M  V30 17 1 9 17
M  V30 18 1 11 18
M  V30 19 1 13 19
M  V30 20 1 13 20
M  V30 21 1 13 21
M  V30 END BOND
M  V30 END CTAB
M  END
>  <NO.>
278

>  <Name>
50-78-2

>  <SMILES>
CC(=O)Oc1ccccc1C(=O)O

>  <logBB>
-0.5

>  <Class>
1

>  <MW>
180.04

>  <nHBAcc>
3

>  <nHBDon>
1

>  <SLogP>
1.31

>  <TopoPSA>
63.6

>  <MMFF94 Energy>
20.833

$$$$
CCCCC1C(=O)N(c2ccccc2)N(c2ccccc2)C1=O
Actelion Java MolfileCreator 2.0

  0  0  0  0  0  0              0 V3000
M  V30 BEGIN CTAB
M  V30 COUNTS 43 45 0 0 0
M  V30 BEGIN ATOM
M  V30 1 O -0.3178 2.7038 -0.9536 0
M  V30 2 C -0.0031 1.5434 -0.729 0
M  V30 3 N 0.5423 0.9996 0.4353 0
M  V30 4 C -0.1994 0.4024 -1.7 0
M  V30 5 N 0.7584 -0.3797 0.284 0
M  V30 6 C 0.5332 1.6832 1.6733 0
M  V30 7 C 0.3125 -0.8148 -0.966 0
M  V30 8 C -1.6731 0.2651 -2.0873 0
M  V30 9 C 1.6085 -1.1571 1.1043 0
M  V30 10 C 0.0203 1.0768 2.8273 0
M  V30 11 C 1.0362 2.9873 1.7562 0
M  V30 12 O 0.3516 -1.9428 -1.4361 0
M  V30 13 C -1.8629 -0.5323 -3.3816 0
M  V30 14 C 2.8006 -0.6266 1.6138 0
M  V30 15 C 1.2648 -2.4787 1.4135 0
M  V30 16 C 0.0247 1.7593 4.0461 0
M  V30 17 C 1.0381 3.6691 2.9751 0
M  V30 18 C -3.3411 -0.6279 -3.7616 0
M  V30 19 C 3.6271 -1.4017 2.4306 0
M  V30 20 C 2.0932 -3.2532 2.2288 0
M  V30 21 C 0.5348 3.0539 4.1196 0
M  V30 22 C -3.536 -1.4174 -5.0462 0
M  V30 23 C 3.2722 -2.7135 2.7389 0
M  V30 24 H 0.4428 0.5899 -2.5676 0
M  V30 25 H -2.1187 1.2588 -2.223 0
M  V30 26 H -2.2328 -0.2178 -1.2757 0
M  V30 27 H -0.3947 0.0732 2.7922 0
M  V30 28 H 1.43 3.4861 0.8735 0
M  V30 29 H -1.4539 -1.5419 -3.2664 0
M  V30 30 H -1.3071 -0.049 -4.1942 0
M  V30 31 H 3.1048 0.3893 1.3769 0
M  V30 32 H 0.3504 -2.9193 1.0224 0
M  V30 33 H -0.3735 1.2805 4.9372 0
M  V30 34 H 1.4287 4.6822 3.0286 0
M  V30 35 H -3.9026 -1.1113 -2.9537 0
M  V30 36 H -3.7587 0.3773 -3.8909 0
M  V30 37 H 4.5496 -0.9816 2.8233 0
M  V30 38 H 1.8187 -4.2791 2.4611 0
M  V30 39 H 0.535 3.5859 5.0678 0
M  V30 40 H -4.5995 -1.4729 -5.2992 0
M  V30 41 H -3.0123 -0.9423 -5.8818 0
M  V30 42 H -3.1583 -2.4392 -4.9397 0
M  V30 43 H 3.9174 -3.3174 3.372 0
M  V30 END ATOM
M  V30 BEGIN BOND
M  V30 1 2 1 2
M  V30 2 1 2 3
M  V30 3 1 2 4
M  V30 4 1 3 5
M  V30 5 1 3 6
M  V30 6 1 4 7
M  V30 7 1 4 8
M  V30 8 1 5 9
M  V30 9 2 6 10
M  V30 10 1 6 11
M  V30 11 2 7 12
M  V30 12 1 8 13
M  V30 13 2 9 14
M  V30 14 1 9 15
M  V30 15 1 10 16
M  V30 16 2 11 17
M  V30 17 1 13 18
M  V30 18 1 14 19
M  V30 19 2 15 20
M  V30 20 2 16 21
M  V30 21 1 18 22
M  V30 22 2 19 23
M  V30 23 1 5 7
M  V30 24 1 17 21
M  V30 25 1 20 23
M  V30 26 1 4 24
M  V30 27 1 8 25
M  V30 28 1 8 26
M  V30 29 1 10 27
M  V30 30 1 11 28
M  V30 31 1 13 29
M  V30 32 1 13 30
M  V30 33 1 14 31
M  V30 34 1 15 32
M  V30 35 1 16 33
M  V30 36 1 17 34
M  V30 37 1 18 35
M  V30 38 1 18 36
M  V30 39 1 19 37
M  V30 40 1 20 38
M  V30 41 1 21 39
M  V30 42 1 22 40
M  V30 43 1 22 41
M  V30 44 1 22 42
M  V30 45 1 23 43
M  V30 END BOND
M  V30 END CTAB
M  END
>  <NO.>
279

>  <Name>
phenylbutazone

>  <SMILES>
CCCCC1C(=O)N(c2ccccc2)N(c2ccccc2)C1=O

>  <logBB>
-0.5

>  <Class>
1

>  <MW>
308.15

>  <nHBAcc>
2

>  <nHBDon>
0

>  <SLogP>
3.79

>  <TopoPSA>
40.62

>  <MMFF94 Energy>
51.029

$$$$
COc1cc2ncnc(Nc3ccc(F)c(Cl)c3)c2cc1OCCCN1CCOCC1
Actelion Java MolfileCreator 2.0

  0  0  0  0  0  0              0 V3000
M  V30 BEGIN CTAB
M  V30 COUNTS 55 58 0 0 0
M  V30 BEGIN ATOM
M  V30 1 Cl -2.0119 -7.4999 -4.3496 0
M  V30 2 C -0.7526 -6.5615 -3.642 0
M  V30 3 C 0.4302 -7.1639 -3.227 0
M  V30 4 C -0.9286 -5.1847 -3.4785 0
M  V30 5 F 0.6193 -8.4836 -3.3721 0
M  V30 6 C 1.4379 -6.4051 -2.6451 0
M  V30 7 C 0.0795 -4.394 -2.9091 0
M  V30 8 C 1.2594 -5.0284 -2.4827 0
M  V30 9 N -0.0604 -3.0097 -2.702 0
M  V30 10 C -0.9604 -2.0851 -3.2799 0
M  V30 11 N -1.4851 -2.3677 -4.4858 0
M  V30 12 C -1.2809 -0.8994 -2.5854 0
M  V30 13 C -2.3006 -1.4557 -5.0189 0
M  V30 14 C -2.1444 -0.0249 -3.2566 0
M  V30 15 C -0.8129 -0.5536 -1.2899 0
M  V30 16 N -2.648 -0.2907 -4.4643 0
M  V30 17 C -2.5005 1.1715 -2.648 0
M  V30 18 C -1.1811 0.651 -0.688 0
M  V30 19 C -2.033 1.5266 -1.3782 0
M  V30 20 O -0.7779 1.0577 0.5567 0
M  V30 21 O -2.3473 2.6967 -0.7329 0
M  V30 22 C 0.1218 0.2273 1.284 0
M  V30 23 C -3.2591 3.5798 -1.3718 0
M  V30 24 C 0.4478 0.8895 2.6234 0
M  V30 25 C 1.1241 2.2544 2.436 0
M  V30 26 N 1.4432 2.9071 3.7187 0
M  V30 27 C 2.5751 2.258 4.4158 0
M  V30 28 C 1.7889 4.3296 3.4892 0
M  V30 29 C 2.954 3.0135 5.7012 0
M  V30 30 C 2.1829 5.0346 4.7962 0
M  V30 31 O 3.2925 4.3779 5.4227 0
M  V30 32 H -1.8659 -4.7348 -3.7941 0
M  V30 33 H 2.3542 -6.8887 -2.3212 0
M  V30 34 H 2.0597 -4.4525 -2.0238 0
M  V30 35 H 0.7521 -2.5574 -2.3049 0
M  V30 36 H -2.7182 -1.6802 -5.9945 0
M  V30 37 H -0.1781 -1.2554 -0.761 0
M  V30 38 H -3.1653 1.8257 -3.204 0
M  V30 39 H 1.0485 0.0819 0.7158 0
M  V30 40 H -0.3457 -0.7445 1.4819 0
M  V30 41 H -2.8467 3.9586 -2.3126 0
M  V30 42 H -3.4148 4.4365 -0.7088 0
M  V30 43 H -4.2309 3.1001 -1.5286 0
M  V30 44 H -0.4798 1.0289 3.1926 0
M  V30 45 H 1.0889 0.2082 3.192 0
M  V30 46 H 2.0246 2.1501 1.817 0
M  V30 47 H 0.4301 2.8971 1.8792 0
M  V30 48 H 2.3193 1.2307 4.6931 0
M  V30 49 H 3.4505 2.2243 3.7542 0
M  V30 50 H 2.6258 4.3991 2.7817 0
M  V30 51 H 0.9319 4.8567 3.0542 0
M  V30 52 H 3.8296 2.5438 6.1608 0
M  V30 53 H 2.1385 2.9845 6.4343 0
M  V30 54 H 2.4861 6.065 4.5841 0
M  V30 55 H 1.3408 5.0735 5.4978 0
M  V30 END ATOM
M  V30 BEGIN BOND
M  V30 1 1 1 2
M  V30 2 2 2 3
M  V30 3 1 2 4
M  V30 4 1 3 5
M  V30 5 1 3 6
M  V30 6 2 4 7
M  V30 7 2 6 8
M  V30 8 1 7 9
M  V30 9 1 9 10
M  V30 10 2 10 11
M  V30 11 1 10 12
M  V30 12 1 11 13
M  V30 13 1 12 14
M  V30 14 2 12 15
M  V30 15 2 13 16
M  V30 16 2 14 17
M  V30 17 1 15 18
M  V30 18 1 17 19
M  V30 19 1 18 20
M  V30 20 1 19 21
M  V30 21 1 20 22
M  V30 22 1 21 23
M  V30 23 1 22 24
M  V30 24 1 24 25
M  V30 25 1 25 26
M  V30 26 1 26 27
M  V30 27 1 26 28
M  V30 28 1 27 29
M  V30 29 1 28 30
M  V30 30 1 29 31
M  V30 31 1 7 8
M  V30 32 1 14 16
M  V30 33 2 18 19
M  V30 34 1 30 31
M  V30 35 1 4 32
M  V30 36 1 6 33
M  V30 37 1 8 34
M  V30 38 1 9 35
M  V30 39 1 13 36
M  V30 40 1 15 37
M  V30 41 1 17 38
M  V30 42 1 22 39
M  V30 43 1 22 40
M  V30 44 1 23 41
M  V30 45 1 23 42
M  V30 46 1 23 43
M  V30 47 1 24 44
M  V30 48 1 24 45
M  V30 49 1 25 46
M  V30 50 1 25 47
M  V30 51 1 27 48
M  V30 52 1 27 49
M  V30 53 1 28 50
M  V30 54 1 28 51
M  V30 55 1 29 52
M  V30 56 1 29 53
M  V30 57 1 30 54
M  V30 58 1 30 55
M  V30 END BOND
M  V30 END CTAB
M  END
>  <NO.>
280

>  <Name>
gefitinib

>  <SMILES>
COc1cc2ncnc(Nc3ccc(F)c(Cl)c3)c2cc1OCCCN1CCOCC1

>  <logBB>
-0.5

>  <Class>
1

>  <MW>
446.15

>  <nHBAcc>
7

>  <nHBDon>
1

>  <SLogP>
4.28

>  <TopoPSA>
68.74

>  <MMFF94 Energy>
82.333

$$$$
C[C@]12C[C@@H](O)[C@H]3[C@@H](CCC4=CC(=O)CC[C@@]43C)[C@@H]1CC[C@@H]2C(=O)CO
Actelion Java MolfileCreator 2.0

  0  0  0  0  0  0              0 V3000
M  V30 BEGIN CTAB
M  V30 COUNTS 55 58 0 0 0
M  V30 BEGIN ATOM
M  V30 1 O -2.5755 4.7525 3.7038 0
M  V30 2 C -2.3358 3.6796 3.1564 0
M  V30 3 C -2.4887 3.5587 1.6905 0
M  V30 4 C -1.9755 2.4407 3.9263 0
M  V30 5 C -2.1806 2.4252 1.0347 0
M  V30 6 C -1.0235 1.5716 3.1163 0
M  V30 7 C -1.5487 1.1877 1.6996 0 CFG=2
M  V30 8 C -2.4857 2.3294 -0.4399 0
M  V30 9 C -0.3426 0.6643 0.804 0 CFG=1
M  V30 10 C -2.6482 0.1128 1.8584 0
M  V30 11 C -1.2753 1.868 -1.2358 0
M  V30 12 C 0.3516 -0.6374 1.3177 0 CFG=2
M  V30 13 C -0.7465 0.5308 -0.7035 0 CFG=1
M  V30 14 O 0.9529 -0.4325 2.594 0
M  V30 15 C 1.4632 -1.1686 0.3879 0
M  V30 16 C 0.4611 0.0524 -1.5158 0 CFG=1
M  V30 17 C 0.9911 -1.3236 -1.0591 0 CFG=1
M  V30 18 C 0.3132 -0.1087 -3.0258 0
M  V30 19 C 2.1206 -1.5142 -2.1014 0 CFG=2
M  V30 20 C -0.0571 -2.4607 -1.1452 0
M  V30 21 C 1.5041 -0.9971 -3.4222 0
M  V30 22 C 2.6823 -2.926 -2.2402 0
M  V30 23 O 2.0587 -3.8352 -2.79 0
M  V30 24 C 4.0794 -3.1668 -1.6808 0
M  V30 25 O 4.1591 -2.9388 -0.2879 0
M  V30 26 H -2.9191 4.4256 1.2005 0
M  V30 27 H -1.4834 2.7406 4.8582 0
M  V30 28 H -2.8952 1.9059 4.1837 0
M  V30 29 H -0.8212 0.6739 3.7104 0
M  V30 30 H -0.0723 2.1127 3.0177 0
M  V30 31 H -2.8232 3.293 -0.8412 0
M  V30 32 H -3.316 1.6282 -0.5886 0
M  V30 33 H 0.4255 1.4534 0.8522 0
M  V30 34 H -2.2985 -0.7344 2.4574 0
M  V30 35 H -3.5345 0.5157 2.3627 0
M  V30 36 H -2.9859 -0.2833 0.896 0
M  V30 37 H -1.5683 1.7698 -2.2874 0
M  V30 38 H -0.4874 2.6312 -1.1942 0
M  V30 39 H -0.3964 -1.4238 1.4519 0
M  V30 40 H -1.5544 -0.2018 -0.8033 0
M  V30 41 H 1.676 0.2103 2.4904 0
M  V30 42 H 2.3246 -0.4882 0.4353 0
M  V30 43 H 1.8313 -2.1236 0.7826 0
M  V30 44 H 1.2577 0.8005 -1.3651 0
M  V30 45 H -0.6328 -0.5956 -3.2873 0
M  V30 46 H 0.3467 0.8525 -3.5484 0
M  V30 47 H 2.9621 -0.8511 -1.8553 0
M  V30 48 H 0.3601 -3.3997 -0.7639 0
M  V30 49 H -0.3916 -2.6447 -2.1709 0
M  V30 50 H -0.953 -2.2587 -0.5523 0
M  V30 51 H 1.1704 -1.8021 -4.0858 0
M  V30 52 H 2.2493 -0.4157 -3.9776 0
M  V30 53 H 4.3842 -4.1969 -1.891 0
M  V30 54 H 4.7788 -2.4986 -2.1923 0
M  V30 55 H 3.6885 -3.6736 0.1467 0
M  V30 END ATOM
M  V30 BEGIN BOND
M  V30 1 2 1 2
M  V30 2 1 2 3
M  V30 3 1 2 4
M  V30 4 2 3 5
M  V30 5 1 4 6
M  V30 6 1 5 7
M  V30 7 1 5 8
M  V30 8 1 7 9
M  V30 9 1 7 10
M  V30 10 1 8 11
M  V30 11 1 9 12
M  V30 12 1 9 13
M  V30 13 1 12 14
M  V30 14 1 12 15
M  V30 15 1 13 16
M  V30 16 1 15 17
M  V30 17 1 16 18
M  V30 18 1 17 19
M  V30 19 1 17 20
M  V30 20 1 18 21
M  V30 21 1 19 22
M  V30 22 2 22 23
M  V30 23 1 22 24
M  V30 24 1 24 25
M  V30 25 1 6 7
M  V30 26 1 11 13
M  V30 27 1 16 17
M  V30 28 1 19 21
M  V30 29 1 3 26
M  V30 30 1 4 27
M  V30 31 1 4 28
M  V30 32 1 6 29
M  V30 33 1 6 30
M  V30 34 1 8 31
M  V30 35 1 8 32
M  V30 36 1 9 33
M  V30 37 1 10 34
M  V30 38 1 10 35
M  V30 39 1 10 36
M  V30 40 1 11 37
M  V30 41 1 11 38
M  V30 42 1 12 39
M  V30 43 1 13 40
M  V30 44 1 14 41
M  V30 45 1 15 42
M  V30 46 1 15 43
M  V30 47 1 16 44
M  V30 48 1 18 45
M  V30 49 1 18 46
M  V30 50 1 19 47
M  V30 51 1 20 48
M  V30 52 1 20 49
M  V30 53 1 20 50
M  V30 54 1 21 51
M  V30 55 1 21 52
M  V30 56 1 24 53
M  V30 57 1 24 54
M  V30 58 1 25 55
M  V30 END BOND
M  V30 BEGIN COLLECTION
M  V30 MDLV30/STEABS ATOMS=(7 7 9 12 13 16 17 19)
M  V30 END COLLECTION
M  V30 END CTAB
M  END
>  <NO.>
281

>  <Name>
epicorticosterone

>  <SMILES>
C[C@]12C[C@@H](O)[C@H]3[C@@H](CCC4=CC(=O)CC[C@@]43C)[C@@H]1CC[C@@H]2C(=O)CO

>  <logBB>
-0.5

>  <Class>
1

>  <MW>
346.21

>  <nHBAcc>
4

>  <nHBDon>
2

>  <SLogP>
2.67

>  <TopoPSA>
74.6

>  <MMFF94 Energy>
101.98

$$$$
NC(Cc1ccc(N(CCCl)CCCl)cc1)C(=O)O
Actelion Java MolfileCreator 2.0

  0  0  0  0  0  0              0 V3000
M  V30 BEGIN CTAB
M  V30 COUNTS 37 37 0 0 0
M  V30 BEGIN ATOM
M  V30 1 Cl 1.2028 -4.0138 3.2904 0
M  V30 2 C 0.2767 -2.7024 2.5125 0
M  V30 3 C -0.5429 -3.2481 1.3401 0
M  V30 4 N -1.364 -2.2053 0.6922 0
M  V30 5 C -0.7885 -1.1572 -0.0204 0
M  V30 6 C -2.829 -2.3732 0.7499 0
M  V30 7 C -1.496 0.0172 -0.3267 0
M  V30 8 C 0.538 -1.205 -0.4806 0
M  V30 9 C -3.4666 -1.7075 1.9728 0
M  V30 10 C -0.9176 1.0809 -1.0349 0
M  V30 11 C 1.128 -0.1495 -1.1917 0
M  V30 12 Cl -3.3157 -2.7084 3.4424 0
M  V30 13 C 0.4037 1.007 -1.4738 0
M  V30 14 C 1.0328 2.1577 -2.2218 0
M  V30 15 C 1.4652 3.3121 -1.306 0 CFG=2
M  V30 16 N 1.76 4.5202 -2.1264 0
M  V30 17 C 2.706 2.9131 -0.4975 0
M  V30 18 O 2.7269 2.3949 0.6063 0
M  V30 19 O 3.8683 3.1783 -1.1403 0
M  V30 20 H -0.3646 -2.2513 3.2742 0
M  V30 21 H 0.998 -1.9455 2.1944 0
M  V30 22 H -1.193 -4.0488 1.7153 0
M  V30 23 H 0.1018 -3.7366 0.5997 0
M  V30 24 H -3.2873 -1.9686 -0.1614 0
M  V30 25 H -3.0842 -3.4408 0.7275 0
M  V30 26 H -2.5234 0.1518 -0.0044 0
M  V30 27 H 1.1569 -2.0813 -0.3126 0
M  V30 28 H -4.5389 -1.573 1.8027 0
M  V30 29 H -3.0255 -0.7313 2.1921 0
M  V30 30 H -1.5152 1.9678 -1.2361 0
M  V30 31 H 2.1606 -0.2503 -1.5177 0
M  V30 32 H 0.2997 2.5159 -2.9579 0
M  V30 33 H 1.886 1.7906 -2.8081 0
M  V30 34 H 0.6743 3.5846 -0.5982 0
M  V30 35 H 2.6236 4.3276 -2.6435 0
M  V30 36 H 2.0102 5.2814 -1.4936 0
M  V30 37 H 4.5531 2.8667 -0.5107 0
M  V30 END ATOM
M  V30 BEGIN BOND
M  V30 1 1 1 2
M  V30 2 1 2 3
M  V30 3 1 3 4
M  V30 4 1 4 5
M  V30 5 1 4 6
M  V30 6 2 5 7
M  V30 7 1 5 8
M  V30 8 1 6 9
M  V30 9 1 7 10
M  V30 10 2 8 11
M  V30 11 1 9 12
M  V30 12 2 10 13
M  V30 13 1 13 14
M  V30 14 1 14 15
M  V30 15 1 15 16
M  V30 16 1 15 17
M  V30 17 2 17 18
M  V30 18 1 17 19
M  V30 19 1 11 13
M  V30 20 1 2 20
M  V30 21 1 2 21
M  V30 22 1 3 22
M  V30 23 1 3 23
M  V30 24 1 6 24
M  V30 25 1 6 25
M  V30 26 1 7 26
M  V30 27 1 8 27
M  V30 28 1 9 28
M  V30 29 1 9 29
M  V30 30 1 10 30
M  V30 31 1 11 31
M  V30 32 1 14 32
M  V30 33 1 14 33
M  V30 34 1 15 34
M  V30 35 1 16 35
M  V30 36 1 16 36
M  V30 37 1 19 37
M  V30 END BOND
M  V30 BEGIN COLLECTION
M  V30 MDLV30/STERAC1 ATOMS=(1 15)
M  V30 END COLLECTION
M  V30 END CTAB
M  END
>  <NO.>
282

>  <Name>
melphalan

>  <SMILES>
NC(Cc1ccc(N(CCCl)CCCl)cc1)C(=O)O

>  <logBB>
-0.5

>  <Class>
1

>  <MW>
304.07

>  <nHBAcc>
3

>  <nHBDon>
2

>  <SLogP>
1.92

>  <TopoPSA>
66.56

>  <MMFF94 Energy>
89.271

$$$$
Cc1ccc(-c2nc3ccc(C)cn3c2CC(=O)N(C)C)cc1
Actelion Java MolfileCreator 2.0

  0  0  0  0  0  0              0 V3000
M  V30 BEGIN CTAB
M  V30 COUNTS 44 46 0 0 0
M  V30 BEGIN ATOM
M  V30 1 O 2.7679 0.237 2.1347 0
M  V30 2 C 1.7333 0.6784 1.6232 0
M  V30 3 N 1.6851 1.939 1.0438 0
M  V30 4 C 0.4767 -0.1907 1.6295 0
M  V30 5 C 2.9169 2.6997 0.908 0
M  V30 6 C 0.5005 2.5446 0.4557 0
M  V30 7 C 0.209 -0.787 0.2825 0
M  V30 8 N 1.0721 -1.6708 -0.3512 0
M  V30 9 C -0.8501 -0.6425 -0.6027 0
M  V30 10 C 0.5329 -1.9235 -1.61 0
M  V30 11 C 2.2634 -2.2551 0.0872 0
M  V30 12 N -0.6118 -1.3039 -1.7813 0
M  V30 13 C -2.0591 0.1349 -0.403 0
M  V30 14 C 1.2599 -2.7849 -2.4772 0
M  V30 15 C 2.9487 -3.0807 -0.7273 0
M  V30 16 C -2.4949 0.9982 -1.4146 0
M  V30 17 C -2.8207 0.0181 0.7647 0
M  V30 18 C 2.4135 -3.3395 -2.0606 0
M  V30 19 C 4.2323 -3.7467 -0.3432 0
M  V30 20 C -3.6518 1.7636 -1.2458 0
M  V30 21 C -3.9785 0.7836 0.9342 0
M  V30 22 C -4.393 1.6749 -0.0622 0
M  V30 23 C -5.6565 2.4663 0.1036 0
M  V30 24 H 0.6257 -0.9982 2.3576 0
M  V30 25 H -0.3629 0.3927 2.012 0
M  V30 26 H 3.7795 2.1813 1.3334 0
M  V30 27 H 3.1036 2.8753 -0.1556 0
M  V30 28 H 2.7964 3.6593 1.4195 0
M  V30 29 H -0.4156 2.1689 0.908 0
M  V30 30 H 0.4995 2.3335 -0.617 0
M  V30 31 H 0.5308 3.6275 0.6109 0
M  V30 32 H 2.601 -2.0209 1.0886 0
M  V30 33 H 0.8592 -2.9799 -3.4651 0
M  V30 34 H -1.9337 1.071 -2.3443 0
M  V30 35 H -2.5335 -0.6833 1.5437 0
M  V30 36 H 2.9695 -3.9993 -2.7204 0
M  V30 37 H 5.0383 -3.4492 -1.0223 0
M  V30 38 H 4.5393 -3.4799 0.6737 0
M  V30 39 H 4.1278 -4.836 -0.3839 0
M  V30 40 H -3.9733 2.4222 -2.0494 0
M  V30 41 H -4.5607 0.6708 1.8461 0
M  V30 42 H -5.5949 3.4175 -0.4354 0
M  V30 43 H -6.5083 1.8964 -0.2798 0
M  V30 44 H -5.8337 2.7021 1.1582 0
M  V30 END ATOM
M  V30 BEGIN BOND
M  V30 1 2 1 2
M  V30 2 1 2 3
M  V30 3 1 2 4
M  V30 4 1 3 5
M  V30 5 1 3 6
M  V30 6 1 4 7
M  V30 7 1 7 8
M  V30 8 2 7 9
M  V30 9 1 8 10
M  V30 10 1 8 11
M  V30 11 1 9 12
M  V30 12 1 9 13
M  V30 13 1 10 14
M  V30 14 2 11 15
M  V30 15 2 13 16
M  V30 16 1 13 17
M  V30 17 2 14 18
M  V30 18 1 15 19
M  V30 19 1 16 20
M  V30 20 2 17 21
M  V30 21 2 20 22
M  V30 22 1 22 23
M  V30 23 2 10 12
M  V30 24 1 15 18
M  V30 25 1 21 22
M  V30 26 1 4 24
M  V30 27 1 4 25
M  V30 28 1 5 26
M  V30 29 1 5 27
M  V30 30 1 5 28
M  V30 31 1 6 29
M  V30 32 1 6 30
M  V30 33 1 6 31
M  V30 34 1 11 32
M  V30 35 1 14 33
M  V30 36 1 16 34
M  V30 37 1 17 35
M  V30 38 1 18 36
M  V30 39 1 19 37
M  V30 40 1 19 38
M  V30 41 1 19 39
M  V30 42 1 20 40
M  V30 43 1 21 41
M  V30 44 1 23 42
M  V30 45 1 23 43
M  V30 46 1 23 44
M  V30 END BOND
M  V30 END CTAB
M  END
>  <NO.>
286

>  <Name>
zolpidem

>  <SMILES>
Cc1ccc(-c2nc3ccc(C)cn3c2CC(=O)N(C)C)cc1

>  <logBB>
-0.48

>  <Class>
1

>  <MW>
307.17

>  <nHBAcc>
2

>  <nHBDon>
0

>  <SLogP>
3.25

>  <TopoPSA>
37.61

>  <MMFF94 Energy>
47.482

$$$$
CN(C)CCCN1c2ccccc2[S+]([O-])c2ccccc21
Actelion Java MolfileCreator 2.0

  0  0  0  0  0  0              0 V3000
M  V30 BEGIN CTAB
M  V30 COUNTS 41 43 0 0 0
M  V30 BEGIN ATOM
M  V30 1 S -3.0703 0.3228 0.8072 0
M  V30 2 O -4.5688 0.2183 0.8103 0
M  V30 3 C -2.4412 -1.3631 0.8273 0
M  V30 4 C -2.5921 0.7279 -0.8795 0
M  V30 5 C -1.2763 -1.7125 0.1197 0
M  V30 6 C -3.0725 -2.2939 1.6696 0
M  V30 7 C -1.4167 0.2038 -1.4477 0
M  V30 8 C -3.3597 1.678 -1.5743 0
M  V30 9 N -0.682 -0.8071 -0.7883 0
M  V30 10 C -0.7819 -3.0198 0.2812 0
M  V30 11 C -2.5606 -3.5801 1.8154 0
M  V30 12 C -1.055 0.6537 -2.731 0
M  V30 13 C -2.9761 2.1124 -2.8399 0
M  V30 14 C 0.7907 -0.6934 -0.7806 0
M  V30 15 C -1.4126 -3.9421 1.1225 0
M  V30 16 C -1.8214 1.6007 -3.4178 0
M  V30 17 C 1.256 0.2124 0.3682 0
M  V30 18 C 2.7801 0.3778 0.3431 0
M  V30 19 N 3.3018 1.1132 1.5072 0
M  V30 20 C 2.8844 2.5174 1.5112 0
M  V30 21 C 4.7653 1.0354 1.5368 0
M  V30 22 H -3.968 -2.0098 2.2197 0
M  V30 23 H -4.2631 2.0833 -1.1213 0
M  V30 24 H 0.0787 -3.363 -0.2848 0
M  V30 25 H -3.0587 -4.2946 2.4655 0
M  V30 26 H -0.1946 0.2347 -3.2445 0
M  V30 27 H -3.5805 2.8424 -3.3719 0
M  V30 28 H 1.1713 -0.294 -1.7265 0
M  V30 29 H 1.2715 -1.673 -0.6891 0
M  V30 30 H -1.0139 -4.9489 1.2193 0
M  V30 31 H -1.5241 1.9205 -4.4133 0
M  V30 32 H 0.9452 -0.2167 1.329 0
M  V30 33 H 0.7643 1.1877 0.2782 0
M  V30 34 H 3.2205 -0.6279 0.3388 0
M  V30 35 H 3.0878 0.8634 -0.5923 0
M  V30 36 H 1.7997 2.6097 1.6235 0
M  V30 37 H 3.1873 3.0407 0.5971 0
M  V30 38 H 3.3196 3.0456 2.3676 0
M  V30 39 H 5.2209 1.4927 0.651 0
M  V30 40 H 5.0952 -0.0077 1.5962 0
M  V30 41 H 5.1607 1.5369 2.4274 0
M  V30 END ATOM
M  V30 BEGIN BOND
M  V30 1 2 1 2
M  V30 2 1 1 3
M  V30 3 1 1 4
M  V30 4 2 3 5
M  V30 5 1 3 6
M  V30 6 2 4 7
M  V30 7 1 4 8
M  V30 8 1 5 9
M  V30 9 1 5 10
M  V30 10 2 6 11
M  V30 11 1 7 12
M  V30 12 2 8 13
M  V30 13 1 9 14
M  V30 14 2 10 15
M  V30 15 2 12 16
M  V30 16 1 14 17
M  V30 17 1 17 18
M  V30 18 1 18 19
M  V30 19 1 19 20
M  V30 20 1 19 21
M  V30 21 1 7 9
M  V30 22 1 11 15
M  V30 23 1 13 16
M  V30 24 1 6 22
M  V30 25 1 8 23
M  V30 26 1 10 24
M  V30 27 1 11 25
M  V30 28 1 12 26
M  V30 29 1 13 27
M  V30 30 1 14 28
M  V30 31 1 14 29
M  V30 32 1 15 30
M  V30 33 1 16 31
M  V30 34 1 17 32
M  V30 35 1 17 33
M  V30 36 1 18 34
M  V30 37 1 18 35
M  V30 38 1 20 36
M  V30 39 1 20 37
M  V30 40 1 20 38
M  V30 41 1 21 39
M  V30 42 1 21 40
M  V30 43 1 21 41
M  V30 END BOND
M  V30 END CTAB
M  END
>  <NO.>
288

>  <Name>
phenothiazine

>  <SMILES>
CN(C)CCCN1c2ccccc2[S+]([O-])c2ccccc21

>  <logBB>
-0.48

>  <Class>
1

>  <MW>
300.13

>  <nHBAcc>
3

>  <nHBDon>
0

>  <SLogP>
3.26

>  <TopoPSA>
29.54

>  <MMFF94 Energy>
82.317

$$$$
CCc1ccc(-n2cnc3c(sc4nccc(N(C)C)c43)c2=O)cc1
Actelion Java MolfileCreator 2.0

  0  0  0  0  0  0              0 V3000
M  V30 BEGIN CTAB
M  V30 COUNTS 43 46 0 0 0
M  V30 BEGIN ATOM
M  V30 1 S -0.6467 3.156 -1.9412 0
M  V30 2 C -2.2411 3.2647 -1.334 0
M  V30 3 C -0.3694 1.7253 -1.0852 0
M  V30 4 N -3.0076 4.3161 -1.6865 0
M  V30 5 C -2.5961 2.2031 -0.4975 0
M  V30 6 C 0.8792 1.0117 -1.0995 0
M  V30 7 C -1.4637 1.3275 -0.3662 0
M  V30 8 C -4.232 4.3024 -1.1396 0
M  V30 9 C -3.9163 2.2196 0.0489 0
M  V30 10 O 1.8614 1.3656 -1.7494 0
M  V30 11 N 0.844 -0.1248 -0.2825 0
M  V30 12 N -1.4372 0.1653 0.4239 0
M  V30 13 C -4.7181 3.3202 -0.2963 0
M  V30 14 N -4.4114 1.2161 0.8808 0
M  V30 15 C 1.9945 -0.9481 -0.157 0
M  V30 16 C -0.306 -0.468 0.4117 0
M  V30 17 C -4.6514 -0.0796 0.2604 0
M  V30 18 C -5.2205 1.5671 2.0361 0
M  V30 19 C 2.5295 -1.219 1.1083 0
M  V30 20 C 2.5923 -1.5099 -1.2897 0
M  V30 21 C 3.6472 -2.0471 1.2375 0
M  V30 22 C 3.7101 -2.3374 -1.1582 0
M  V30 23 C 4.2425 -2.6187 0.1062 0
M  V30 24 C 5.4629 -3.4932 0.2434 0
M  V30 25 C 6.749 -2.6838 0.1785 0
M  V30 26 H -4.8602 5.1469 -1.4124 0
M  V30 27 H -5.7352 3.4036 0.0704 0
M  V30 28 H -0.219 -1.3947 1.0034 0
M  V30 29 H -5.6256 -0.0819 -0.2414 0
M  V30 30 H -4.6597 -0.8683 1.0203 0
M  V30 31 H -3.8941 -0.3485 -0.4819 0
M  V30 32 H -4.7975 2.4249 2.5709 0
M  V30 33 H -5.2551 0.7315 2.7435 0
M  V30 34 H -6.2496 1.8011 1.7436 0
M  V30 35 H 2.0971 -0.7774 2.003 0
M  V30 36 H 2.2019 -1.3051 -2.284 0
M  V30 37 H 4.057 -2.2379 2.2273 0
M  V30 38 H 4.1677 -2.7559 -2.0524 0
M  V30 39 H 5.4627 -4.2532 -0.5472 0
M  V30 40 H 5.418 -4.0424 1.1918 0
M  V30 41 H 7.6165 -3.3432 0.2808 0
M  V30 42 H 6.7915 -1.9401 0.9816 0
M  V30 43 H 6.8367 -2.153 -0.7754 0
M  V30 END ATOM
M  V30 BEGIN BOND
M  V30 1 1 1 2
M  V30 2 1 1 3
M  V30 3 2 2 4
M  V30 4 1 2 5
M  V30 5 1 3 6
M  V30 6 2 3 7
M  V30 7 1 4 8
M  V30 8 2 5 9
M  V30 9 2 6 10
M  V30 10 1 6 11
M  V30 11 1 7 12
M  V30 12 2 8 13
M  V30 13 1 9 14
M  V30 14 1 11 15
M  V30 15 1 11 16
M  V30 16 1 14 17
M  V30 17 1 14 18
M  V30 18 2 15 19
M  V30 19 1 15 20
M  V30 20 1 19 21
M  V30 21 2 20 22
M  V30 22 2 21 23
M  V30 23 1 23 24
M  V30 24 1 24 25
M  V30 25 1 5 7
M  V30 26 1 9 13
M  V30 27 2 12 16
M  V30 28 1 22 23
M  V30 29 1 8 26
M  V30 30 1 13 27
M  V30 31 1 16 28
M  V30 32 1 17 29
M  V30 33 1 17 30
M  V30 34 1 17 31
M  V30 35 1 18 32
M  V30 36 1 18 33
M  V30 37 1 18 34
M  V30 38 1 19 35
M  V30 39 1 20 36
M  V30 40 1 21 37
M  V30 41 1 22 38
M  V30 42 1 24 39
M  V30 43 1 24 40
M  V30 44 1 25 41
M  V30 45 1 25 42
M  V30 46 1 25 43
M  V30 END BOND
M  V30 END CTAB
M  END
>  <NO.>
289

>  <Name>
chembl385336

>  <SMILES>
CCc1ccc(-n2cnc3c(sc4nccc(N(C)C)c43)c2=O)cc1

>  <logBB>
-0.47

>  <Class>
1

>  <MW>
350.12

>  <nHBAcc>
5

>  <nHBDon>
0

>  <SLogP>
3.62

>  <TopoPSA>
51.02

>  <MMFF94 Energy>
47.086

$$$$
NC(=O)c1ccc(S(=O)(=O)C2CCN(CCc3ccc(F)cc3F)CC2)cc1
Actelion Java MolfileCreator 2.0

  0  0  0  0  0  0              0 V3000
M  V30 BEGIN CTAB
M  V30 COUNTS 50 52 0 0 0
M  V30 BEGIN ATOM
M  V30 1 S -1.1356 3.0846 0.8921 0
M  V30 2 O -1.7319 3.977 -0.0856 0
M  V30 3 O -0.0712 3.5496 1.7601 0
M  V30 4 C -2.4701 2.5316 1.9354 0
M  V30 5 C -0.5955 1.6061 0.037 0
M  V30 6 C -2.238 2.2872 3.2909 0
M  V30 7 C -3.7499 2.3874 1.39 0
M  V30 8 C 0.4978 1.9578 -0.9723 0
M  V30 9 C -0.1006 0.5234 0.9926 0
M  V30 10 C -3.2941 1.8647 4.1008 0
M  V30 11 C -4.8053 1.9705 2.2061 0
M  V30 12 C 1.0239 0.7101 -1.6764 0
M  V30 13 C 0.4439 -0.6775 0.2227 0
M  V30 14 C -4.5818 1.713 3.566 0
M  V30 15 N 1.5121 -0.277 -0.7037 0
M  V30 16 C -5.6675 1.2578 4.4735 0
M  V30 17 C 2.0776 -1.4711 -1.3661 0
M  V30 18 O -5.4251 0.6087 5.4826 0
M  V30 19 N -6.9479 1.6126 4.1568 0
M  V30 20 C 3.4377 -1.2075 -2.0354 0
M  V30 21 C 4.006 -2.4606 -2.6576 0
M  V30 22 C 4.6639 -3.4113 -1.8667 0
M  V30 23 C 3.8667 -2.7063 -4.0313 0
M  V30 24 F 4.7953 -3.2038 -0.549 0
M  V30 25 C 5.1829 -4.5772 -2.415 0
M  V30 26 C 4.3863 -3.8759 -4.5894 0
M  V30 27 C 5.0389 -4.7979 -3.7766 0
M  V30 28 F 5.5329 -5.9182 -4.3191 0
M  V30 29 H -1.4729 1.2375 -0.5098 0
M  V30 30 H -1.2487 2.4201 3.7247 0
M  V30 31 H -3.9344 2.6011 0.3389 0
M  V30 32 H 0.11 2.6596 -1.7204 0
M  V30 33 H 1.3277 2.4702 -0.4679 0
M  V30 34 H 0.6825 0.9227 1.6496 0
M  V30 35 H -0.9126 0.1842 1.6447 0
M  V30 36 H -3.1156 1.6632 5.1563 0
M  V30 37 H -5.7874 1.8344 1.7627 0
M  V30 38 H 0.2342 0.2797 -2.3059 0
M  V30 39 H 1.8314 1.0298 -2.3428 0
M  V30 40 H -0.3732 -1.175 -0.3159 0
M  V30 41 H 0.8337 -1.3944 0.9558 0
M  V30 42 H 1.3652 -1.8814 -2.0947 0
M  V30 43 H 2.2305 -2.2555 -0.6126 0
M  V30 44 H -7.1987 2.2276 3.3978 0
M  V30 45 H -7.6785 1.3084 4.7879 0
M  V30 46 H 3.3527 -0.4394 -2.8121 0
M  V30 47 H 4.1518 -0.8155 -1.2997 0
M  V30 48 H 3.3575 -1.9901 -4.6726 0
M  V30 49 H 5.6902 -5.3014 -1.7894 0
M  V30 50 H 4.2873 -4.0746 -5.6523 0
M  V30 END ATOM
M  V30 BEGIN BOND
M  V30 1 2 1 2
M  V30 2 2 1 3
M  V30 3 1 1 4
M  V30 4 1 1 5
M  V30 5 2 4 6
M  V30 6 1 4 7
M  V30 7 1 5 8
M  V30 8 1 5 9
M  V30 9 1 6 10
M  V30 10 2 7 11
M  V30 11 1 8 12
M  V30 12 1 9 13
M  V30 13 2 10 14
M  V30 14 1 12 15
M  V30 15 1 14 16
M  V30 16 1 15 17
M  V30 17 2 16 18
M  V30 18 1 16 19
M  V30 19 1 17 20
M  V30 20 1 20 21
M  V30 21 2 21 22
M  V30 22 1 21 23
M  V30 23 1 22 24
M  V30 24 1 22 25
M  V30 25 2 23 26
M  V30 26 2 25 27
M  V30 27 1 27 28
M  V30 28 1 11 14
M  V30 29 1 13 15
M  V30 30 1 26 27
M  V30 31 1 5 29
M  V30 32 1 6 30
M  V30 33 1 7 31
M  V30 34 1 8 32
M  V30 35 1 8 33
M  V30 36 1 9 34
M  V30 37 1 9 35
M  V30 38 1 10 36
M  V30 39 1 11 37
M  V30 40 1 12 38
M  V30 41 1 12 39
M  V30 42 1 13 40
M  V30 43 1 13 41
M  V30 44 1 17 42
M  V30 45 1 17 43
M  V30 46 1 19 44
M  V30 47 1 19 45
M  V30 48 1 20 46
M  V30 49 1 20 47
M  V30 50 1 23 48
M  V30 51 1 25 49
M  V30 52 1 26 50
M  V30 END BOND
M  V30 END CTAB
M  END
>  <NO.>
291

>  <Name>
chembl148058

>  <SMILES>
NC(=O)c1ccc(S(=O)(=O)C2CCN(CCc3ccc(F)cc3F)CC2)cc1

>  <logBB>
-0.47

>  <Class>
1

>  <MW>
408.13

>  <nHBAcc>
4

>  <nHBDon>
1

>  <SLogP>
2.54

>  <TopoPSA>
80.47

>  <MMFF94 Energy>
35.185

$$$$
CC(=O)NCCCOc1cccc(CN2CCCCC2)c1
Actelion Java MolfileCreator 2.0

  0  0  0  0  0  0              0 V3000
M  V30 BEGIN CTAB
M  V30 COUNTS 47 48 0 0 0
M  V30 BEGIN ATOM
M  V30 1 O 1.098 0.0 4.6338 0
M  V30 2 C 0.3924 -0.7478 5.3012 0
M  V30 3 N -0.3316 -1.791 4.7719 0
M  V30 4 C 0.2074 -0.5724 6.7837 0
M  V30 5 C -0.2868 -2.1293 3.3637 0
M  V30 6 C -1.4648 -1.5565 2.5854 0
M  V30 7 C -1.3945 -0.0389 2.4252 0
M  V30 8 O -2.5091 0.4247 1.657 0
M  V30 9 C -2.3656 0.5423 0.3027 0
M  V30 10 C -1.3028 0.0602 -0.4615 0
M  V30 11 C -3.4199 1.1985 -0.3365 0
M  V30 12 C -1.2749 0.2464 -1.8565 0
M  V30 13 C -3.41 1.3856 -1.7187 0
M  V30 14 C -2.3415 0.9108 -2.4768 0
M  V30 15 C -0.1264 -0.2989 -2.6829 0
M  V30 16 N 1.1999 0.0919 -2.1776 0
M  V30 17 C 1.4689 1.5341 -2.2986 0
M  V30 18 C 2.2759 -0.6897 -2.8031 0
M  V30 19 C 1.7289 2.0051 -3.7321 0
M  V30 20 C 2.5616 -0.3068 -4.2574 0
M  V30 21 C 2.8338 1.1873 -4.392 0
M  V30 22 H -0.9123 -2.3509 5.3832 0
M  V30 23 H -0.6802 0.0392 6.9653 0
M  V30 24 H 1.0855 -0.0745 7.2041 0
M  V30 25 H 0.0875 -1.5401 7.2789 0
M  V30 26 H -0.3165 -3.2229 3.311 0
M  V30 27 H 0.6633 -1.8016 2.9284 0
M  V30 28 H -2.4116 -1.8248 3.0711 0
M  V30 29 H -1.4965 -2.0285 1.5967 0
M  V30 30 H -1.4955 0.4327 3.4089 0
M  V30 31 H -0.4359 0.3067 2.0221 0
M  V30 32 H -0.4699 -0.4663 -0.0062 0
M  V30 33 H -4.2549 1.5716 0.251 0
M  V30 34 H -4.2356 1.9013 -2.2013 0
M  V30 35 H -2.3463 1.0623 -3.5535 0
M  V30 36 H -0.2538 -0.0165 -3.7344 0
M  V30 37 H -0.2252 -1.3924 -2.6477 0
M  V30 38 H 2.352 1.7656 -1.6881 0
M  V30 39 H 0.6588 2.127 -1.8588 0
M  V30 40 H 2.0546 -1.7621 -2.7391 0
M  V30 41 H 3.191 -0.5479 -2.2132 0
M  V30 42 H 2.0143 3.0634 -3.7234 0
M  V30 43 H 0.8109 1.9332 -4.3268 0
M  V30 44 H 1.7146 -0.5862 -4.8951 0
M  V30 45 H 3.4282 -0.8704 -4.6213 0
M  V30 46 H 2.9234 1.4599 -5.4492 0
M  V30 47 H 3.7938 1.4253 -3.9173 0
M  V30 END ATOM
M  V30 BEGIN BOND
M  V30 1 2 1 2
M  V30 2 1 2 3
M  V30 3 1 2 4
M  V30 4 1 3 5
M  V30 5 1 5 6
M  V30 6 1 6 7
M  V30 7 1 7 8
M  V30 8 1 8 9
M  V30 9 2 9 10
M  V30 10 1 9 11
M  V30 11 1 10 12
M  V30 12 2 11 13
M  V30 13 2 12 14
M  V30 14 1 12 15
M  V30 15 1 15 16
M  V30 16 1 16 17
M  V30 17 1 16 18
M  V30 18 1 17 19
M  V30 19 1 18 20
M  V30 20 1 19 21
M  V30 21 1 13 14
M  V30 22 1 20 21
M  V30 23 1 3 22
M  V30 24 1 4 23
M  V30 25 1 4 24
M  V30 26 1 4 25
M  V30 27 1 5 26
M  V30 28 1 5 27
M  V30 29 1 6 28
M  V30 30 1 6 29
M  V30 31 1 7 30
M  V30 32 1 7 31
M  V30 33 1 10 32
M  V30 34 1 11 33
M  V30 35 1 13 34
M  V30 36 1 14 35
M  V30 37 1 15 36
M  V30 38 1 15 37
M  V30 39 1 17 38
M  V30 40 1 17 39
M  V30 41 1 18 40
M  V30 42 1 18 41
M  V30 43 1 19 42
M  V30 44 1 19 43
M  V30 45 1 20 44
M  V30 46 1 20 45
M  V30 47 1 21 46
M  V30 48 1 21 47
M  V30 END BOND
M  V30 END CTAB
M  END
>  <NO.>
292

>  <Name>
skb30 (npropylacetamide33npiperidinylmethylphenoxy)

>  <SMILES>
CC(=O)NCCCOc1cccc(CN2CCCCC2)c1

>  <logBB>
-0.46

>  <Class>
1

>  <MW>
290.2

>  <nHBAcc>
3

>  <nHBDon>
1

>  <SLogP>
2.58

>  <TopoPSA>
41.57

>  <MMFF94 Energy>
-1.3233

$$$$
CNS(=O)(=O)CCc1ccc2[nH]cc(C3CCN(C)CC3)c2c1
Actelion Java MolfileCreator 2.0

  0  0  0  0  0  0              0 V3000
M  V30 BEGIN CTAB
M  V30 COUNTS 48 50 0 0 0
M  V30 BEGIN ATOM
M  V30 1 S 2.7261 1.8435 -4.011 0
M  V30 2 O 2.5866 3.154 -4.6061 0
M  V30 3 O 1.9024 0.7302 -4.422 0
M  V30 4 N 4.3088 1.3295 -4.2743 0
M  V30 5 C 2.7016 1.9893 -2.2274 0
M  V30 6 C 5.337 2.3503 -4.4661 0
M  V30 7 C 1.4143 2.6285 -1.7219 0
M  V30 8 C 0.2639 1.659 -1.6053 0
M  V30 9 C 0.1712 0.8104 -0.4867 0
M  V30 10 C -0.7075 1.5862 -2.6078 0
M  V30 11 C -0.8973 -0.106 -0.3758 0
M  V30 12 C -1.7736 0.6851 -2.525 0
M  V30 13 C -1.8398 -0.1438 -1.4005 0
M  V30 14 C -1.2781 -1.0835 0.6112 0
M  V30 15 N -2.7559 -1.1101 -1.0679 0
M  V30 16 C -2.4296 -1.6813 0.1334 0
M  V30 17 C -0.5202 -1.3664 1.8931 0
M  V30 18 C -0.7492 -0.2803 2.9543 0
M  V30 19 C -0.7504 -2.7605 2.4956 0
M  V30 20 C -2.0559 -0.4781 3.7194 0
M  V30 21 C -2.0165 -2.8633 3.3508 0
M  V30 22 N -2.0782 -1.7994 4.3606 0
M  V30 23 C -3.2792 -1.946 5.1835 0
M  V30 24 H 4.3284 0.5356 -4.9169 0
M  V30 25 H 2.8749 0.9955 -1.8039 0
M  V30 26 H 3.5423 2.6411 -1.9668 0
M  V30 27 H 5.2398 2.8086 -5.4538 0
M  V30 28 H 6.3206 1.8753 -4.4084 0
M  V30 29 H 5.2872 3.1172 -3.6889 0
M  V30 30 H 1.5979 3.0445 -0.7223 0
M  V30 31 H 1.1226 3.4833 -2.344 0
M  V30 32 H 0.9187 0.8554 0.3 0
M  V30 33 H -0.6394 2.2285 -3.4848 0
M  V30 34 H -2.5145 0.6316 -3.3159 0
M  V30 35 H -3.5508 -1.3636 -1.6375 0
M  V30 36 H -3.0503 -2.4705 0.5316 0
M  V30 37 H 0.543 -1.3275 1.6139 0
M  V30 38 H 0.0835 -0.3078 3.6704 0
M  V30 39 H -0.7374 0.721 2.5082 0
M  V30 40 H -0.7681 -3.5288 1.7133 0
M  V30 41 H 0.1085 -2.9985 3.1385 0
M  V30 42 H -2.1188 0.3041 4.4859 0
M  V30 43 H -2.9156 -0.3442 3.0504 0
M  V30 44 H -2.0031 -3.8402 3.8505 0
M  V30 45 H -2.9113 -2.8485 2.7195 0
M  V30 46 H -3.3036 -1.1813 5.9678 0
M  V30 47 H -4.1993 -1.8643 4.5935 0
M  V30 48 H -3.2806 -2.9163 5.6925 0
M  V30 END ATOM
M  V30 BEGIN BOND
M  V30 1 2 1 2
M  V30 2 2 1 3
M  V30 3 1 1 4
M  V30 4 1 1 5
M  V30 5 1 4 6
M  V30 6 1 5 7
M  V30 7 1 7 8
M  V30 8 2 8 9
M  V30 9 1 8 10
M  V30 10 1 9 11
M  V30 11 2 10 12
M  V30 12 2 11 13
M  V30 13 1 11 14
M  V30 14 1 13 15
M  V30 15 2 14 16
M  V30 16 1 14 17
M  V30 17 1 17 18
M  V30 18 1 17 19
M  V30 19 1 18 20
M  V30 20 1 19 21
M  V30 21 1 20 22
M  V30 22 1 22 23
M  V30 23 1 12 13
M  V30 24 1 15 16
M  V30 25 1 21 22
M  V30 26 1 4 24
M  V30 27 1 5 25
M  V30 28 1 5 26
M  V30 29 1 6 27
M  V30 30 1 6 28
M  V30 31 1 6 29
M  V30 32 1 7 30
M  V30 33 1 7 31
M  V30 34 1 9 32
M  V30 35 1 10 33
M  V30 36 1 12 34
M  V30 37 1 15 35
M  V30 38 1 16 36
M  V30 39 1 17 37
M  V30 40 1 18 38
M  V30 41 1 18 39
M  V30 42 1 19 40
M  V30 43 1 19 41
M  V30 44 1 20 42
M  V30 45 1 20 43
M  V30 46 1 21 44
M  V30 47 1 21 45
M  V30 48 1 23 46
M  V30 49 1 23 47
M  V30 50 1 23 48
M  V30 END BOND
M  V30 END CTAB
M  END
>  <NO.>
294

>  <Name>
naratriptan

>  <SMILES>
CNS(=O)(=O)CCc1ccc2[nH]cc(C3CCN(C)CC3)c2c1

>  <logBB>
-0.46

>  <Class>
1

>  <MW>
335.17

>  <nHBAcc>
3

>  <nHBDon>
2

>  <SLogP>
2.07

>  <TopoPSA>
65.2

>  <MMFF94 Energy>
-58.588

$$$$
O=C(c1ccc(F)cc1)N1CCN(c2ccc(OCCCN3CCCCC3)cc2)C(=O)C1
Actelion Java MolfileCreator 2.0

  0  0  0  0  0  0              0 V3000
M  V30 BEGIN CTAB
M  V30 COUNTS 62 65 0 0 0
M  V30 BEGIN ATOM
M  V30 1 F 5.9898 -5.1096 -7.111 0
M  V30 2 C 4.694 -4.8831 -6.8607 0
M  V30 3 C 3.8089 -5.9568 -6.8123 0
M  V30 4 C 4.2554 -3.5764 -6.6612 0
M  V30 5 C 2.4583 -5.7238 -6.5515 0
M  V30 6 C 2.9063 -3.3358 -6.3992 0
M  V30 7 C 2.0161 -4.4154 -6.3261 0
M  V30 8 C 0.5805 -4.1788 -6.0759 0
M  V30 9 O -0.2088 -4.4928 -6.9617 0
M  V30 10 N 0.1923 -3.6155 -4.8678 0
M  V30 11 C -1.2256 -3.3158 -4.6804 0
M  V30 12 C 1.0163 -3.5083 -3.6701 0
M  V30 13 C -1.6006 -2.2917 -3.5925 0
M  V30 14 C 0.8365 -2.1284 -3.0534 0
M  V30 15 O -2.7813 -1.9646 -3.4486 0
M  V30 16 N -0.5683 -1.8361 -2.769 0
M  V30 17 C -0.829 -0.8785 -1.7585 0
M  V30 18 C -1.3531 0.3724 -2.0859 0
M  V30 19 C -0.5374 -1.1775 -0.4249 0
M  V30 20 C -1.5766 1.3179 -1.0821 0
M  V30 21 C -0.765 -0.2281 0.5782 0
M  V30 22 C -1.2847 1.0251 0.2525 0
M  V30 23 O -1.5492 2.0401 1.1295 0
M  V30 24 C -1.3413 1.7749 2.5168 0
M  V30 25 C -1.7371 3.0253 3.3002 0
M  V30 26 C -1.5098 2.8277 4.802 0
M  V30 27 N -2.0193 3.9434 5.6142 0
M  V30 28 C -1.2973 5.2107 5.4239 0
M  V30 29 C -2.0708 3.5984 7.0449 0
M  V30 30 C 0.1077 5.2241 6.0312 0
M  V30 31 C -0.6977 3.544 7.7197 0
M  V30 32 C 0.0751 4.8413 7.5072 0
M  V30 33 H 4.1748 -6.9635 -6.988 0
M  V30 34 H 4.9654 -2.7575 -6.7235 0
M  V30 35 H 1.7532 -6.5515 -6.5314 0
M  V30 36 H 2.55 -2.3174 -6.2683 0
M  V30 37 H -1.7176 -4.2607 -4.4204 0
M  V30 38 H -1.6481 -2.9637 -5.6283 0
M  V30 39 H 2.0708 -3.7008 -3.8734 0
M  V30 40 H 0.6751 -4.2864 -2.9762 0
M  V30 41 H 1.4327 -2.0604 -2.137 0
M  V30 42 H 1.189 -1.3584 -3.7507 0
M  V30 43 H -1.5993 0.6187 -3.115 0
M  V30 44 H -0.1467 -2.1537 -0.1524 0
M  V30 45 H -1.9908 2.289 -1.3424 0
M  V30 46 H -0.5304 -0.5014 1.6011 0
M  V30 47 H -0.2835 1.5508 2.6992 0
M  V30 48 H -1.9643 0.9307 2.8359 0
M  V30 49 H -1.1568 3.8726 2.918 0
M  V30 50 H -2.79 3.2596 3.0984 0
M  V30 51 H -2.0443 1.9138 5.0925 0
M  V30 52 H -0.4469 2.639 4.9912 0
M  V30 53 H -1.8878 6.011 5.8903 0
M  V30 54 H -1.2459 5.4847 4.3654 0
M  V30 55 H -2.5926 2.6444 7.189 0
M  V30 56 H -2.6897 4.3463 7.5581 0
M  V30 57 H 0.5436 6.224 5.9239 0
M  V30 58 H 0.7632 4.5361 5.4849 0
M  V30 59 H -0.1173 2.7008 7.3271 0
M  V30 60 H -0.8237 3.3655 8.7937 0
M  V30 61 H 1.0955 4.7392 7.8922 0
M  V30 62 H -0.4037 5.6457 8.0793 0
M  V30 END ATOM
M  V30 BEGIN BOND
M  V30 1 1 1 2
M  V30 2 2 2 3
M  V30 3 1 2 4
M  V30 4 1 3 5
M  V30 5 2 4 6
M  V30 6 2 5 7
M  V30 7 1 7 8
M  V30 8 2 8 9
M  V30 9 1 8 10
M  V30 10 1 10 11
M  V30 11 1 10 12
M  V30 12 1 11 13
M  V30 13 1 12 14
M  V30 14 2 13 15
M  V30 15 1 13 16
M  V30 16 1 16 17
M  V30 17 2 17 18
M  V30 18 1 17 19
M  V30 19 1 18 20
M  V30 20 2 19 21
M  V30 21 2 20 22
M  V30 22 1 22 23
M  V30 23 1 23 24
M  V30 24 1 24 25
M  V30 25 1 25 26
M  V30 26 1 26 27
M  V30 27 1 27 28
M  V30 28 1 27 29
M  V30 29 1 28 30
M  V30 30 1 29 31
M  V30 31 1 30 32
M  V30 32 1 6 7
M  V30 33 1 14 16
M  V30 34 1 21 22
M  V30 35 1 31 32
M  V30 36 1 3 33
M  V30 37 1 4 34
M  V30 38 1 5 35
M  V30 39 1 6 36
M  V30 40 1 11 37
M  V30 41 1 11 38
M  V30 42 1 12 39
M  V30 43 1 12 40
M  V30 44 1 14 41
M  V30 45 1 14 42
M  V30 46 1 18 43
M  V30 47 1 19 44
M  V30 48 1 20 45
M  V30 49 1 21 46
M  V30 50 1 24 47
M  V30 51 1 24 48
M  V30 52 1 25 49
M  V30 53 1 25 50
M  V30 54 1 26 51
M  V30 55 1 26 52
M  V30 56 1 28 53
M  V30 57 1 28 54
M  V30 58 1 29 55
M  V30 59 1 29 56
M  V30 60 1 30 57
M  V30 61 1 30 58
M  V30 62 1 31 59
M  V30 63 1 31 60
M  V30 64 1 32 61
M  V30 65 1 32 62
M  V30 END BOND
M  V30 END CTAB
M  END
>  <NO.>
295

>  <Name>
chembl239975

>  <SMILES>
O=C(c1ccc(F)cc1)N1CCN(c2ccc(OCCCN3CCCCC3)cc2)C(=O)C1

>  <logBB>
-0.46

>  <Class>
1

>  <MW>
439.23

>  <nHBAcc>
4

>  <nHBDon>
0

>  <SLogP>
3.57

>  <TopoPSA>
53.09

>  <MMFF94 Energy>
96.847

$$$$
O=C(NCCN1CCN(c2cccc3c2OCC(CO)O3)CC1)c1ccc(F)cc1
Actelion Java MolfileCreator 2.0

  0  0  0  0  0  0              0 V3000
M  V30 BEGIN CTAB
M  V30 COUNTS 56 59 0 0 0
M  V30 BEGIN ATOM
M  V30 1 F 7.7728 -0.6393 3.8405 0
M  V30 2 C 6.9997 -1.2292 2.92 0
M  V30 3 C 6.9866 -2.6154 2.8229 0
M  V30 4 C 6.2274 -0.4437 2.0707 0
M  V30 5 C 6.181 -3.2291 1.8617 0
M  V30 6 C 5.419 -1.0536 1.1074 0
M  V30 7 C 5.3839 -2.4527 1.0064 0
M  V30 8 C 4.5435 -3.1564 -0.0035 0
M  V30 9 O 4.8414 -4.2862 -0.3742 0
M  V30 10 N 3.4303 -2.487 -0.4502 0
M  V30 11 C 2.5098 -3.0715 -1.407 0
M  V30 12 C 1.6019 -1.9952 -2.0278 0
M  V30 13 N 1.0243 -1.0663 -1.0274 0
M  V30 14 C 0.3589 0.0659 -1.7237 0
M  V30 15 C 0.0113 -1.7478 -0.1801 0
M  V30 16 C -0.311 1.0659 -0.7546 0
M  V30 17 C -0.6752 -0.7976 0.8308 0
M  V30 18 N -1.2433 0.3661 0.1418 0
M  V30 19 C -2.2551 1.1196 0.7346 0
M  V30 20 C -3.2541 1.7644 -0.0329 0
M  V30 21 C -2.3204 1.2717 2.1312 0
M  V30 22 O -3.222 1.5937 -1.4025 0
M  V30 23 C -4.272 2.5084 0.5891 0
M  V30 24 C -3.317 2.0382 2.7444 0
M  V30 25 C -4.0439 2.5431 -2.0841 0
M  V30 26 O -5.2935 3.1227 -0.0925 0
M  V30 27 C -4.2909 2.6602 1.972 0
M  V30 28 C -5.416 2.6147 -1.4339 0 CFG=1
M  V30 29 C -6.336 3.5658 -2.1981 0
M  V30 30 O -7.6432 3.5591 -1.6243 0
M  V30 31 H 7.6033 -3.2092 3.4902 0
M  V30 32 H 6.2668 0.6376 2.1584 0
M  V30 33 H 6.1728 -4.3146 1.7797 0
M  V30 34 H 4.8474 -0.4244 0.4315 0
M  V30 35 H 3.1239 -1.6183 -0.0289 0
M  V30 36 H 1.9224 -3.8297 -0.8783 0
M  V30 37 H 3.0813 -3.5821 -2.1898 0
M  V30 38 H 2.2287 -1.4097 -2.7134 0
M  V30 39 H 0.8221 -2.4716 -2.6349 0
M  V30 40 H 1.1023 0.6149 -2.3141 0
M  V30 41 H -0.3999 -0.3138 -2.4213 0
M  V30 42 H -0.7602 -2.2062 -0.8133 0
M  V30 43 H 0.4834 -2.5514 0.3952 0
M  V30 44 H -0.7985 1.8449 -1.3495 0
M  V30 45 H 0.4587 1.5638 -0.1507 0
M  V30 46 H 0.058 -0.4694 1.5782 0
M  V30 47 H -1.4608 -1.3621 1.3479 0
M  V30 48 H -1.57 0.8117 2.7682 0
M  V30 49 H -3.3298 2.1449 3.8259 0
M  V30 50 H -3.534 3.515 -2.0741 0
M  V30 51 H -4.1255 2.2154 -3.1256 0
M  V30 52 H -5.072 3.2467 2.4471 0
M  V30 53 H -5.8808 1.6219 -1.3661 0
M  V30 54 H -6.4302 3.2685 -3.2467 0
M  V30 55 H -5.9661 4.5957 -2.1552 0
M  V30 56 H -7.5209 3.6901 -0.6647 0
M  V30 END ATOM
M  V30 BEGIN BOND
M  V30 1 1 1 2
M  V30 2 2 2 3
M  V30 3 1 2 4
M  V30 4 1 3 5
M  V30 5 2 4 6
M  V30 6 2 5 7
M  V30 7 1 7 8
M  V30 8 2 8 9
M  V30 9 1 8 10
M  V30 10 1 10 11
M  V30 11 1 11 12
M  V30 12 1 12 13
M  V30 13 1 13 14
M  V30 14 1 13 15
M  V30 15 1 14 16
M  V30 16 1 15 17
M  V30 17 1 16 18
M  V30 18 1 18 19
M  V30 19 2 19 20
M  V30 20 1 19 21
M  V30 21 1 20 22
M  V30 22 1 20 23
M  V30 23 2 21 24
M  V30 24 1 22 25
M  V30 25 1 23 26
M  V30 26 2 23 27
M  V30 27 1 25 28
M  V30 28 1 28 29
M  V30 29 1 29 30
M  V30 30 1 6 7
M  V30 31 1 17 18
M  V30 32 1 24 27
M  V30 33 1 26 28
M  V30 34 1 3 31
M  V30 35 1 4 32
M  V30 36 1 5 33
M  V30 37 1 6 34
M  V30 38 1 10 35
M  V30 39 1 11 36
M  V30 40 1 11 37
M  V30 41 1 12 38
M  V30 42 1 12 39
M  V30 43 1 14 40
M  V30 44 1 14 41
M  V30 45 1 15 42
M  V30 46 1 15 43
M  V30 47 1 16 44
M  V30 48 1 16 45
M  V30 49 1 17 46
M  V30 50 1 17 47
M  V30 51 1 21 48
M  V30 52 1 24 49
M  V30 53 1 25 50
M  V30 54 1 25 51
M  V30 55 1 27 52
M  V30 56 1 28 53
M  V30 57 1 29 54
M  V30 58 1 29 55
M  V30 59 1 30 56
M  V30 END BOND
M  V30 BEGIN COLLECTION
M  V30 MDLV30/STERAC1 ATOMS=(1 28)
M  V30 END COLLECTION
M  V30 END CTAB
M  END
>  <NO.>
296

>  <Name>
flesinoxan

>  <SMILES>
O=C(NCCN1CCN(c2cccc3c2OCC(CO)O3)CC1)c1ccc(F)cc1

>  <logBB>
-0.45

>  <Class>
1

>  <MW>
415.19

>  <nHBAcc>
6

>  <nHBDon>
2

>  <SLogP>
1.51

>  <TopoPSA>
74.27

>  <MMFF94 Energy>
176.98

$$$$
O=C(O)CNC(=O)c1ccccc1O
Actelion Java MolfileCreator 2.0

  0  0  0  0  0  0              0 V3000
M  V30 BEGIN CTAB
M  V30 COUNTS 23 23 0 0 0
M  V30 BEGIN ATOM
M  V30 1 O 0.0 1.6504 -1.5718 0
M  V30 2 C 0.3336 0.7856 -0.7733 0
M  V30 3 N 1.1749 -0.26 -1.0773 0
M  V30 4 C -0.1876 0.7894 0.6123 0
M  V30 5 C 1.5183 -0.5728 -2.4534 0
M  V30 6 C -0.5769 -0.3883 1.2639 0
M  V30 7 C -0.2979 2.0185 1.2733 0
M  V30 8 C 0.5076 -1.5309 -3.0743 0
M  V30 9 O -0.5714 -1.6212 0.6666 0
M  V30 10 C -1.0195 -0.3433 2.5841 0
M  V30 11 C -0.7543 2.0622 2.592 0
M  V30 12 O 0.5252 -1.9412 -4.2243 0
M  V30 13 O -0.4491 -1.9701 -2.218 0
M  V30 14 C -1.1066 0.8817 3.2482 0
M  V30 15 H 1.4538 -0.9072 -0.347 0
M  V30 16 H 2.4984 -1.0567 -2.4431 0
M  V30 17 H 1.5463 0.3433 -3.0495 0
M  V30 18 H -0.0213 2.9397 0.7643 0
M  V30 19 H -0.6048 -1.5121 -0.3083 0
M  V30 20 H -1.313 -1.259 3.0908 0
M  V30 21 H -0.8344 3.0164 3.1076 0
M  V30 22 H -1.0009 -2.5492 -2.7897 0
M  V30 23 H -1.4609 0.9164 4.2759 0
M  V30 END ATOM
M  V30 BEGIN BOND
M  V30 1 2 1 2
M  V30 2 1 2 3
M  V30 3 1 2 4
M  V30 4 1 3 5
M  V30 5 2 4 6
M  V30 6 1 4 7
M  V30 7 1 5 8
M  V30 8 1 6 9
M  V30 9 1 6 10
M  V30 10 2 7 11
M  V30 11 2 8 12
M  V30 12 1 8 13
M  V30 13 2 10 14
M  V30 14 1 11 14
M  V30 15 1 3 15
M  V30 16 1 5 16
M  V30 17 1 5 17
M  V30 18 1 7 18
M  V30 19 1 9 19
M  V30 20 1 10 20
M  V30 21 1 11 21
M  V30 22 1 13 22
M  V30 23 1 14 23
M  V30 END BOND
M  V30 END CTAB
M  END
>  <NO.>
298

>  <Name>
salicyluric acid (salicylurate)

>  <SMILES>
O=C(O)CNC(=O)c1ccccc1O

>  <logBB>
-0.44

>  <Class>
1

>  <MW>
195.05

>  <nHBAcc>
3

>  <nHBDon>
3

>  <SLogP>
0.21

>  <TopoPSA>
86.63

>  <MMFF94 Energy>
15.474

$$$$
CCCN(CCC)CCc1cc(O)c2c(c1)CC(=O)N2
Actelion Java MolfileCreator 2.0

  0  0  0  0  0  0              0 V3000
M  V30 BEGIN CTAB
M  V30 COUNTS 44 45 0 0 0
M  V30 BEGIN ATOM
M  V30 1 O -3.5315 -5.8913 -2.7459 0
M  V30 2 C -2.9092 -5.0742 -2.0881 0
M  V30 3 N -3.0833 -4.8322 -0.7303 0
M  V30 4 C -1.8089 -4.1364 -2.5921 0
M  V30 5 C -2.2205 -3.8389 -0.2829 0
M  V30 6 C -1.4405 -3.3883 -1.3466 0
M  V30 7 C -2.0851 -3.3128 0.9854 0
M  V30 8 C -0.4966 -2.3918 -1.1667 0
M  V30 9 O -2.8276 -3.7231 2.0479 0
M  V30 10 C -1.1406 -2.3089 1.1866 0
M  V30 11 C -0.3387 -1.8448 0.1182 0
M  V30 12 C 0.6669 -0.7395 0.3556 0
M  V30 13 C 0.0209 0.6509 0.2204 0
M  V30 14 N 1.0099 1.7405 0.3849 0
M  V30 15 C 1.2846 1.9768 1.8176 0
M  V30 16 C 0.5298 2.9786 -0.2636 0
M  V30 17 C 2.6492 2.6464 2.0273 0
M  V30 18 C 0.7739 2.9517 -1.7784 0
M  V30 19 C 2.9517 2.8294 3.5078 0
M  V30 20 C 0.332 4.2537 -2.4312 0
M  V30 21 H -3.7646 -5.3404 -0.1907 0
M  V30 22 H -2.2164 -3.4684 -3.3549 0
M  V30 23 H -0.969 -4.7247 -2.9696 0
M  V30 24 H 0.1063 -2.0421 -2.0003 0
M  V30 25 H -3.414 -4.4346 1.7473 0
M  V30 26 H -1.0245 -1.8839 2.1815 0
M  V30 27 H 1.4912 -0.8398 -0.3625 0
M  V30 28 H 1.1141 -0.8818 1.3462 0
M  V30 29 H -0.4348 0.6965 -0.7758 0
M  V30 30 H -0.808 0.769 0.9318 0
M  V30 31 H 1.3099 1.0275 2.365 0
M  V30 32 H 0.4844 2.5727 2.2764 0
M  V30 33 H 1.0654 3.8509 0.1283 0
M  V30 34 H -0.5325 3.1489 -0.0439 0
M  V30 35 H 3.4371 2.031 1.5763 0
M  V30 36 H 2.689 3.6271 1.5421 0
M  V30 37 H 1.8411 2.797 -1.9789 0
M  V30 38 H 0.234 2.1259 -2.2531 0
M  V30 39 H 3.9289 3.3048 3.6388 0
M  V30 40 H 2.1982 3.4635 3.986 0
M  V30 41 H 2.9711 1.8659 4.0272 0
M  V30 42 H 0.5162 4.2184 -3.5095 0
M  V30 43 H -0.7374 4.4271 -2.2743 0
M  V30 44 H 0.883 5.1061 -2.0209 0
M  V30 END ATOM
M  V30 BEGIN BOND
M  V30 1 2 1 2
M  V30 2 1 2 3
M  V30 3 1 2 4
M  V30 4 1 3 5
M  V30 5 1 4 6
M  V30 6 1 5 7
M  V30 7 1 6 8
M  V30 8 1 7 9
M  V30 9 2 7 10
M  V30 10 2 8 11
M  V30 11 1 11 12
M  V30 12 1 12 13
M  V30 13 1 13 14
M  V30 14 1 14 15
M  V30 15 1 14 16
M  V30 16 1 15 17
M  V30 17 1 16 18
M  V30 18 1 17 19
M  V30 19 1 18 20
M  V30 20 2 5 6
M  V30 21 1 10 11
M  V30 22 1 3 21
M  V30 23 1 4 22
M  V30 24 1 4 23
M  V30 25 1 8 24
M  V30 26 1 9 25
M  V30 27 1 10 26
M  V30 28 1 12 27
M  V30 29 1 12 28
M  V30 30 1 13 29
M  V30 31 1 13 30
M  V30 32 1 15 31
M  V30 33 1 15 32
M  V30 34 1 16 33
M  V30 35 1 16 34
M  V30 36 1 17 35
M  V30 37 1 17 36
M  V30 38 1 18 37
M  V30 39 1 18 38
M  V30 40 1 19 39
M  V30 41 1 19 40
M  V30 42 1 19 41
M  V30 43 1 20 42
M  V30 44 1 20 43
M  V30 45 1 20 44
M  V30 END BOND
M  V30 END CTAB
M  END
>  <NO.>
299

>  <Name>
-

>  <SMILES>
CCCN(CCC)CCc1cc(O)c2c(c1)CC(=O)N2

>  <logBB>
-0.43

>  <Class>
1

>  <MW>
276.18

>  <nHBAcc>
3

>  <nHBDon>
2

>  <SLogP>
2.55

>  <TopoPSA>
52.57

>  <MMFF94 Energy>
28.913

$$$$
CCCN(CCC)CCc1ccc(O)c2c1CC(=O)N2
Actelion Java MolfileCreator 2.0

  0  0  0  0  0  0              0 V3000
M  V30 BEGIN CTAB
M  V30 COUNTS 44 45 0 0 0
M  V30 BEGIN ATOM
M  V30 1 O -2.1177 -0.8623 -4.8682 0
M  V30 2 C -1.8483 -1.3997 -3.8068 0
M  V30 3 N -2.3744 -2.5941 -3.3397 0
M  V30 4 C -0.8708 -0.8831 -2.7439 0
M  V30 5 C -1.8589 -2.9214 -2.0945 0
M  V30 6 C -0.9567 -1.9425 -1.6811 0
M  V30 7 C -2.155 -4.0287 -1.3283 0
M  V30 8 C -0.3077 -2.0493 -0.4573 0
M  V30 9 O -3.0454 -4.9494 -1.7873 0
M  V30 10 C -1.5217 -4.1578 -0.0962 0
M  V30 11 C -0.6082 -3.1741 0.3349 0
M  V30 12 C 0.6554 -0.9977 0.0325 0
M  V30 13 C -0.0663 0.1103 0.82 0
M  V30 14 N 0.8625 1.1872 1.2264 0
M  V30 15 C 1.6086 0.7989 2.44 0
M  V30 16 C 0.1359 2.4551 1.4384 0
M  V30 17 C 2.9103 1.591 2.635 0
M  V30 18 C -0.1603 3.1622 0.1087 0
M  V30 19 C 3.8771 1.4445 1.4679 0
M  V30 20 C -0.8553 4.4969 0.3371 0
M  V30 21 H -3.0478 -3.1576 -3.8377 0
M  V30 22 H 0.1335 -0.825 -3.1708 0
M  V30 23 H -1.2141 0.0858 -2.3731 0
M  V30 24 H -3.1225 -5.6599 -1.1294 0
M  V30 25 H -1.719 -5.009 0.5487 0
M  V30 26 H -0.1277 -3.2965 1.3049 0
M  V30 27 H 1.1884 -0.5641 -0.8233 0
M  V30 28 H 1.4246 -1.4835 0.6442 0
M  V30 29 H -0.8541 0.5095 0.1706 0
M  V30 30 H -0.5871 -0.3057 1.6934 0
M  V30 31 H 1.8927 -0.2589 2.3934 0
M  V30 32 H 0.9761 0.9021 3.3316 0
M  V30 33 H 0.7383 3.1477 2.0369 0
M  V30 34 H -0.7896 2.2858 2.0042 0
M  V30 35 H 2.7057 2.6533 2.8047 0
M  V30 36 H 3.4028 1.2246 3.5441 0
M  V30 37 H 0.7764 3.3368 -0.4344 0
M  V30 38 H -0.7963 2.5469 -0.536 0
M  V30 39 H 4.816 1.9616 1.6904 0
M  V30 40 H 4.1073 0.3911 1.2789 0
M  V30 41 H 3.4662 1.8786 0.5511 0
M  V30 42 H -1.0555 4.9884 -0.62 0
M  V30 43 H -1.8101 4.3578 0.8543 0
M  V30 44 H -0.2322 5.1669 0.9383 0
M  V30 END ATOM
M  V30 BEGIN BOND
M  V30 1 2 1 2
M  V30 2 1 2 3
M  V30 3 1 2 4
M  V30 4 1 3 5
M  V30 5 1 4 6
M  V30 6 1 5 7
M  V30 7 1 6 8
M  V30 8 1 7 9
M  V30 9 2 7 10
M  V30 10 2 8 11
M  V30 11 1 8 12
M  V30 12 1 12 13
M  V30 13 1 13 14
M  V30 14 1 14 15
M  V30 15 1 14 16
M  V30 16 1 15 17
M  V30 17 1 16 18
M  V30 18 1 17 19
M  V30 19 1 18 20
M  V30 20 2 5 6
M  V30 21 1 10 11
M  V30 22 1 3 21
M  V30 23 1 4 22
M  V30 24 1 4 23
M  V30 25 1 9 24
M  V30 26 1 10 25
M  V30 27 1 11 26
M  V30 28 1 12 27
M  V30 29 1 12 28
M  V30 30 1 13 29
M  V30 31 1 13 30
M  V30 32 1 15 31
M  V30 33 1 15 32
M  V30 34 1 16 33
M  V30 35 1 16 34
M  V30 36 1 17 35
M  V30 37 1 17 36
M  V30 38 1 18 37
M  V30 39 1 18 38
M  V30 40 1 19 39
M  V30 41 1 19 40
M  V30 42 1 19 41
M  V30 43 1 20 42
M  V30 44 1 20 43
M  V30 45 1 20 44
M  V30 END BOND
M  V30 END CTAB
M  END
>  <NO.>
300

>  <Name>
skf 89124

>  <SMILES>
CCCN(CCC)CCc1ccc(O)c2c1CC(=O)N2

>  <logBB>
-0.43

>  <Class>
1

>  <MW>
276.18

>  <nHBAcc>
3

>  <nHBDon>
2

>  <SLogP>
2.55

>  <TopoPSA>
52.57

>  <MMFF94 Energy>
27.824

$$$$
CCN1CN(c2ccc(Br)cc2)C2(CCN(CCCC(=O)c3ccc(F)cc3)CC2)C1=O
Actelion Java MolfileCreator 2.0

  0  0  0  0  0  0              0 V3000
M  V30 BEGIN CTAB
M  V30 COUNTS 61 64 0 0 0
M  V30 BEGIN ATOM
M  V30 1 Br -4.8377 4.0301 -1.8523 0
M  V30 2 C -4.0088 2.884 -0.5999 0
M  V30 3 C -3.9003 1.5246 -0.8699 0
M  V30 4 C -3.5106 3.4023 0.5904 0
M  V30 5 C -3.2831 0.6818 0.0601 0
M  V30 6 C -2.8971 2.5491 1.5137 0
M  V30 7 C -2.7655 1.1756 1.2634 0
M  V30 8 N -2.1635 0.3321 2.1667 0
M  V30 9 C -0.769 -0.1783 2.0535 0
M  V30 10 C -2.6649 0.2547 3.5232 0
M  V30 11 C -0.5759 -0.8335 3.4397 0
M  V30 12 C -0.6251 -1.2323 0.9562 0
M  V30 13 C 0.2381 0.964 1.8861 0
M  V30 14 N -1.7065 -0.5698 4.1929 0
M  V30 15 O 0.3986 -1.4592 3.8305 0
M  V30 16 C 0.8313 -1.6394 0.7241 0
M  V30 17 C 1.6516 0.4504 1.6129 0
M  V30 18 C -1.8755 -0.9746 5.5733 0
M  V30 19 N 1.6717 -0.4605 0.4573 0
M  V30 20 C -1.4664 0.1221 6.5418 0
M  V30 21 C 3.0618 -0.8459 0.1501 0
M  V30 22 C 3.2315 -1.5454 -1.2051 0
M  V30 23 C 2.6561 -0.7289 -2.3649 0
M  V30 24 C 2.9231 -1.3781 -3.7112 0
M  V30 25 O 3.5779 -2.4124 -3.8259 0
M  V30 26 C 2.3705 -0.7272 -4.9403 0
M  V30 27 C 2.6088 -1.3371 -6.1829 0
M  V30 28 C 1.629 0.4625 -4.8907 0
M  V30 29 C 2.1132 -0.7673 -7.3576 0
M  V30 30 C 1.1343 1.0295 -6.0693 0
M  V30 31 C 1.3805 0.4107 -7.2896 0
M  V30 32 F 0.9042 0.9586 -8.4147 0
M  V30 33 H -4.2932 1.1062 -1.7923 0
M  V30 34 H -3.5874 4.4635 0.8102 0
M  V30 35 H -3.2298 -0.3822 -0.1554 0
M  V30 36 H -2.496 2.9782 2.4285 0
M  V30 37 H -3.6494 -0.2224 3.5613 0
M  V30 38 H -2.6939 1.2292 4.0208 0
M  V30 39 H -1.218 -2.1245 1.1938 0
M  V30 40 H -1.0093 -0.8466 0.0054 0
M  V30 41 H 0.2537 1.6038 2.7779 0
M  V30 42 H -0.0556 1.6086 1.0476 0
M  V30 43 H 1.2164 -2.2176 1.572 0
M  V30 44 H 0.8365 -2.3124 -0.1403 0
M  V30 45 H 2.0708 -0.0308 2.5046 0
M  V30 46 H 2.2815 1.3242 1.4032 0
M  V30 47 H -1.2576 -1.86 5.7581 0
M  V30 48 H -2.9222 -1.2573 5.7272 0
M  V30 49 H -2.0847 1.0161 6.4116 0
M  V30 50 H -0.4222 0.4128 6.3869 0
M  V30 51 H -1.578 -0.2212 7.5749 0
M  V30 52 H 3.475 -1.482 0.9436 0
M  V30 53 H 3.6849 0.0578 0.1194 0
M  V30 54 H 2.7754 -2.5421 -1.1867 0
M  V30 55 H 4.3038 -1.7106 -1.3717 0
M  V30 56 H 3.1112 0.2679 -2.3666 0
M  V30 57 H 1.5717 -0.6353 -2.242 0
M  V30 58 H 3.1826 -2.2608 -6.2402 0
M  V30 59 H 1.4212 0.9682 -3.952 0
M  V30 60 H 2.2949 -1.2354 -8.3199 0
M  V30 61 H 0.5585 1.9499 -6.0428 0
M  V30 END ATOM
M  V30 BEGIN BOND
M  V30 1 1 1 2
M  V30 2 2 2 3
M  V30 3 1 2 4
M  V30 4 1 3 5
M  V30 5 2 4 6
M  V30 6 2 5 7
M  V30 7 1 7 8
M  V30 8 1 8 9
M  V30 9 1 8 10
M  V30 10 1 9 11
M  V30 11 1 9 12
M  V30 12 1 9 13
M  V30 13 1 10 14
M  V30 14 2 11 15
M  V30 15 1 12 16
M  V30 16 1 13 17
M  V30 17 1 14 18
M  V30 18 1 16 19
M  V30 19 1 18 20
M  V30 20 1 19 21
M  V30 21 1 21 22
M  V30 22 1 22 23
M  V30 23 1 23 24
M  V30 24 2 24 25
M  V30 25 1 24 26
M  V30 26 2 26 27
M  V30 27 1 26 28
M  V30 28 1 27 29
M  V30 29 2 28 30
M  V30 30 2 29 31
M  V30 31 1 31 32
M  V30 32 1 6 7
M  V30 33 1 11 14
M  V30 34 1 17 19
M  V30 35 1 30 31
M  V30 36 1 3 33
M  V30 37 1 4 34
M  V30 38 1 5 35
M  V30 39 1 6 36
M  V30 40 1 10 37
M  V30 41 1 10 38
M  V30 42 1 12 39
M  V30 43 1 12 40
M  V30 44 1 13 41
M  V30 45 1 13 42
M  V30 46 1 16 43
M  V30 47 1 16 44
M  V30 48 1 17 45
M  V30 49 1 17 46
M  V30 50 1 18 47
M  V30 51 1 18 48
M  V30 52 1 20 49
M  V30 53 1 20 50
M  V30 54 1 20 51
M  V30 55 1 21 52
M  V30 56 1 21 53
M  V30 57 1 22 54
M  V30 58 1 22 55
M  V30 59 1 23 56
M  V30 60 1 23 57
M  V30 61 1 27 58
M  V30 62 1 28 59
M  V30 63 1 29 60
M  V30 64 1 30 61
M  V30 END BOND
M  V30 END CTAB
M  END
>  <NO.>
301

>  <Name>
besp

>  <SMILES>
CCN1CN(c2ccc(Br)cc2)C2(CCN(CCCC(=O)c3ccc(F)cc3)CC2)C1=O

>  <logBB>
-0.43

>  <Class>
1

>  <MW>
501.14

>  <nHBAcc>
4

>  <nHBDon>
0

>  <SLogP>
4.71

>  <TopoPSA>
43.86

>  <MMFF94 Energy>
35.095

$$$$
CN1CCN(c2c(F)cc3c(=O)c(C(=O)O)cn(CCF)c3c2F)CC1
Actelion Java MolfileCreator 2.0

  0  0  0  0  0  0              0 V3000
M  V30 BEGIN CTAB
M  V30 COUNTS 44 46 0 0 0
M  V30 BEGIN ATOM
M  V30 1 F 0.0805 -0.0805 1.5321 0
M  V30 2 C 0.3326 0.1703 0.2355 0
M  V30 3 C -0.6273 -0.2817 -0.7063 0
M  V30 4 C 1.4912 0.9109 -0.1032 0
M  V30 5 N -1.752 -1.0071 -0.2973 0
M  V30 6 C -0.3874 0.0678 -2.0437 0
M  V30 7 N 2.4674 1.3613 0.8218 0
M  V30 8 C 1.6565 1.2146 -1.4696 0
M  V30 9 C -2.9795 -0.9973 -1.1124 0
M  V30 10 C -1.5403 -2.2287 0.5029 0
M  V30 11 F -1.2283 -0.3188 -3.0159 0
M  V30 12 C 0.7291 0.7982 -2.4291 0
M  V30 13 C 3.5145 2.1533 0.3675 0
M  V30 14 C 2.3665 1.0111 2.2556 0
M  V30 15 C 2.8383 1.989 -1.9317 0
M  V30 16 C -4.2093 -1.423 -0.2739 0
M  V30 17 C -2.82 -2.6152 1.2828 0
M  V30 18 C 3.7568 2.5139 -0.9007 0
M  V30 19 C 1.489 1.9875 3.0305 0
M  V30 20 O 3.0292 2.1432 -3.1328 0
M  V30 21 N -4.0621 -2.6857 0.4825 0
M  V30 22 C 4.9128 3.382 -1.1565 0
M  V30 23 F 1.5202 1.6562 4.3511 0
M  V30 24 C -4.07 -3.8483 -0.4019 0
M  V30 25 O 5.8906 3.4917 -0.4342 0
M  V30 26 O 4.785 4.1352 -2.2577 0
M  V30 27 H -3.1752 0.011 -1.4974 0
M  V30 28 H -2.8657 -1.6744 -1.967 0
M  V30 29 H -0.73 -2.12 1.2299 0
M  V30 30 H -1.2497 -3.0459 -0.1686 0
M  V30 31 H 0.8666 1.0328 -3.482 0
M  V30 32 H 4.1747 2.4955 1.1647 0
M  V30 33 H 3.368 1.0372 2.7074 0
M  V30 34 H 2.0538 -0.0273 2.4093 0
M  V30 35 H -4.4232 -0.6263 0.4514 0
M  V30 36 H -5.0932 -1.4751 -0.9216 0
M  V30 37 H -2.9777 -1.87 2.0742 0
M  V30 38 H -2.657 -3.5668 1.8037 0
M  V30 39 H 1.8589 3.0133 2.9362 0
M  V30 40 H 0.4471 1.9695 2.7013 0
M  V30 41 H -5.0157 -3.8995 -0.953 0
M  V30 42 H -3.2528 -3.8483 -1.13 0
M  V30 43 H -4.0019 -4.7714 0.1844 0
M  V30 44 H 5.6174 4.6461 -2.317 0
M  V30 END ATOM
M  V30 BEGIN BOND
M  V30 1 1 1 2
M  V30 2 2 2 3
M  V30 3 1 2 4
M  V30 4 1 3 5
M  V30 5 1 3 6
M  V30 6 1 4 7
M  V30 7 2 4 8
M  V30 8 1 5 9
M  V30 9 1 5 10
M  V30 10 1 6 11
M  V30 11 2 6 12
M  V30 12 1 7 13
M  V30 13 1 7 14
M  V30 14 1 8 15
M  V30 15 1 9 16
M  V30 16 1 10 17
M  V30 17 2 13 18
M  V30 18 1 14 19
M  V30 19 2 15 20
M  V30 20 1 16 21
M  V30 21 1 18 22
M  V30 22 1 19 23
M  V30 23 1 21 24
M  V30 24 2 22 25
M  V30 25 1 22 26
M  V30 26 1 8 12
M  V30 27 1 15 18
M  V30 28 1 17 21
M  V30 29 1 9 27
M  V30 30 1 9 28
M  V30 31 1 10 29
M  V30 32 1 10 30
M  V30 33 1 12 31
M  V30 34 1 13 32
M  V30 35 1 14 33
M  V30 36 1 14 34
M  V30 37 1 16 35
M  V30 38 1 16 36
M  V30 39 1 17 37
M  V30 40 1 17 38
M  V30 41 1 19 39
M  V30 42 1 19 40
M  V30 43 1 24 41
M  V30 44 1 24 42
M  V30 45 1 24 43
M  V30 46 1 26 44
M  V30 END BOND
M  V30 END CTAB
M  END
>  <NO.>
302

>  <Name>
fleroxacin

>  <SMILES>
CN1CCN(c2c(F)cc3c(=O)c(C(=O)O)cn(CCF)c3c2F)CC1

>  <logBB>
-0.43

>  <Class>
1

>  <MW>
369.13

>  <nHBAcc>
4

>  <nHBDon>
1

>  <SLogP>
1.7

>  <TopoPSA>
65.78

>  <MMFF94 Energy>
161.97

$$$$
NC1(C(=O)O)CCCC1
Actelion Java MolfileCreator 2.0

  0  0  0  0  0  0              0 V3000
M  V30 BEGIN CTAB
M  V30 COUNTS 20 20 0 0 0
M  V30 BEGIN ATOM
M  V30 1 O 0.4695 1.2525 2.3494 0
M  V30 2 C -0.0281 1.4448 1.2517 0
M  V30 3 O -0.6834 2.6038 1.0057 0
M  V30 4 C -0.0399 0.4756 0.0584 0
M  V30 5 N -0.3723 1.1738 -1.2094 0
M  V30 6 C -1.0259 -0.6697 0.302 0
M  V30 7 C 1.2868 -0.274 -0.0878 0
M  V30 8 C -0.5439 -1.8082 -0.5957 0
M  V30 9 C 0.9373 -1.5403 -0.8668 0
M  V30 10 H -0.6073 3.0954 1.8508 0
M  V30 11 H -1.2209 1.7207 -1.0381 0
M  V30 12 H 0.3454 1.8778 -1.3855 0
M  V30 13 H -2.0658 -0.3966 0.0895 0
M  V30 14 H -0.9938 -0.9921 1.3511 0
M  V30 15 H 1.691 -0.5522 0.894 0
M  V30 16 H 2.062 0.3139 -0.5919 0
M  V30 17 H -0.6983 -2.7805 -0.1165 0
M  V30 18 H -1.1009 -1.8171 -1.5397 0
M  V30 19 H 1.0977 -1.3867 -1.9403 0
M  V30 20 H 1.5656 -2.3826 -0.5601 0
M  V30 END ATOM
M  V30 BEGIN BOND
M  V30 1 2 1 2
M  V30 2 1 2 3
M  V30 3 1 2 4
M  V30 4 1 4 5
M  V30 5 1 4 6
M  V30 6 1 4 7
M  V30 7 1 6 8
M  V30 8 1 7 9
M  V30 9 1 8 9
M  V30 10 1 3 10
M  V30 11 1 5 11
M  V30 12 1 5 12
M  V30 13 1 6 13
M  V30 14 1 6 14
M  V30 15 1 7 15
M  V30 16 1 7 16
M  V30 17 1 8 17
M  V30 18 1 8 18
M  V30 19 1 9 19
M  V30 20 1 9 20
M  V30 END BOND
M  V30 END CTAB
M  END
>  <NO.>
303

>  <Name>
cycloleucine

>  <SMILES>
NC1(C(=O)O)CCCC1

>  <logBB>
-0.43

>  <Class>
1

>  <MW>
129.08

>  <nHBAcc>
2

>  <nHBDon>
2

>  <SLogP>
0.34

>  <TopoPSA>
63.32

>  <MMFF94 Energy>
31.269

$$$$
CC1=C(C(=O)OC(C)(C)C)C(c2cccc([N+](=O)[O-])c2)C(C(=O)OC(C)(C)C)=C(C)N1
Actelion Java MolfileCreator 2.0

  0  0  0  0  0  0              0 V3000
M  V30 BEGIN CTAB
M  V30 COUNTS 61 62 0 0 0
M  V30 BEGIN ATOM
M  V30 1 O 4.1165 0.3161 -1.0279 0
M  V30 2 N 4.0855 1.1433 -0.1046 0 CHG=1
M  V30 3 O 5.0664 1.787 0.2938 0 CHG=-1
M  V30 4 C 2.7978 1.3746 0.5609 0
M  V30 5 C 1.6642 0.6656 0.1391 0
M  V30 6 C 2.7131 2.2988 1.6084 0
M  V30 7 C 0.4266 0.8787 0.7687 0
M  V30 8 C 1.4857 2.5124 2.2352 0
M  V30 9 C 0.3523 1.8094 1.82 0
M  V30 10 C -0.8114 0.1014 0.3047 0
M  V30 11 C -1.3389 -0.8053 1.4144 0
M  V30 12 C -1.8722 1.0436 -0.2601 0
M  V30 13 C -2.6091 -0.6974 1.8664 0
M  V30 14 C -0.3906 -1.7829 2.0008 0
M  V30 15 C -3.1227 1.0833 0.2535 0
M  V30 16 C -1.464 1.9385 -1.3697 0
M  V30 17 N -3.4576 0.2422 1.3028 0
M  V30 18 C -3.2128 -1.5667 2.9409 0
M  V30 19 O -0.3022 -2.0242 3.1931 0
M  V30 20 O 0.3367 -2.3417 1.0042 0
M  V30 21 C -4.2321 1.967 -0.2595 0
M  V30 22 O -1.7837 3.1122 -1.4589 0
M  V30 23 O -0.6961 1.2389 -2.2388 0
M  V30 24 C 1.3546 -3.3334 1.2956 0
M  V30 25 C -0.1478 1.875 -3.4219 0
M  V30 26 C 2.4676 -2.7531 2.1753 0
M  V30 27 C 1.95 -3.6925 -0.0739 0
M  V30 28 C 0.7371 -4.5937 1.9105 0
M  V30 29 C -1.262 2.3369 -4.3667 0
M  V30 30 C 0.6624 0.7701 -4.1162 0
M  V30 31 C 0.8022 3.0199 -3.0537 0
M  V30 32 H 1.7344 -0.0527 -0.6764 0
M  V30 33 H 3.5847 2.8557 1.9457 0
M  V30 34 H 1.4084 3.2287 3.0507 0
M  V30 35 H -0.5958 1.9936 2.3254 0
M  V30 36 H -0.5233 -0.564 -0.5217 0
M  V30 37 H -4.403 0.3051 1.6734 0
M  V30 38 H -3.1412 -1.069 3.9131 0
M  V30 39 H -4.2725 -1.7549 2.7328 0
M  V30 40 H -2.7391 -2.55 3.0077 0
M  V30 41 H -4.116 2.224 -1.316 0
M  V30 42 H -5.199 1.4574 -0.1764 0
M  V30 43 H -4.2827 2.8886 0.3286 0
M  V30 44 H 2.116 -2.5304 3.1871 0
M  V30 45 H 3.3067 -3.4511 2.2667 0
M  V30 46 H 2.8431 -1.812 1.7594 0
M  V30 47 H 2.3691 -2.8044 -0.5614 0
M  V30 48 H 2.7399 -4.446 0.0104 0
M  V30 49 H 1.1748 -4.0769 -0.7471 0
M  V30 50 H 0.3509 -4.4094 2.9176 0
M  V30 51 H -0.1091 -4.9448 1.3095 0
M  V30 52 H 1.472 -5.4026 1.9838 0
M  V30 53 H -1.8351 3.1689 -3.9461 0
M  V30 54 H -0.8568 2.6703 -5.328 0
M  V30 55 H -1.9759 1.5263 -4.5515 0
M  V30 56 H 0.0232 -0.0857 -4.3621 0
M  V30 57 H 1.1317 1.128 -5.0385 0
M  V30 58 H 1.448 0.3883 -3.4535 0
M  V30 59 H 0.2712 3.865 -2.6055 0
M  V30 60 H 1.5443 2.6902 -2.3186 0
M  V30 61 H 1.3314 3.3966 -3.9356 0
M  V30 END ATOM
M  V30 BEGIN BOND
M  V30 1 2 1 2
M  V30 2 1 2 3
M  V30 3 1 2 4
M  V30 4 2 4 5
M  V30 5 1 4 6
M  V30 6 1 5 7
M  V30 7 2 6 8
M  V30 8 2 7 9
M  V30 9 1 7 10
M  V30 10 1 10 11
M  V30 11 1 10 12
M  V30 12 2 11 13
M  V30 13 1 11 14
M  V30 14 2 12 15
M  V30 15 1 12 16
M  V30 16 1 13 17
M  V30 17 1 13 18
M  V30 18 2 14 19
M  V30 19 1 14 20
M  V30 20 1 15 21
M  V30 21 2 16 22
M  V30 22 1 16 23
M  V30 23 1 20 24
M  V30 24 1 23 25
M  V30 25 1 24 26
M  V30 26 1 24 27
M  V30 27 1 24 28
M  V30 28 1 25 29
M  V30 29 1 25 30
M  V30 30 1 25 31
M  V30 31 1 8 9
M  V30 32 1 15 17
M  V30 33 1 5 32
M  V30 34 1 6 33
M  V30 35 1 8 34
M  V30 36 1 9 35
M  V30 37 1 10 36
M  V30 38 1 17 37
M  V30 39 1 18 38
M  V30 40 1 18 39
M  V30 41 1 18 40
M  V30 42 1 21 41
M  V30 43 1 21 42
M  V30 44 1 21 43
M  V30 45 1 26 44
M  V30 46 1 26 45
M  V30 47 1 26 46
M  V30 48 1 27 47
M  V30 49 1 27 48
M  V30 50 1 27 49
M  V30 51 1 28 50
M  V30 52 1 28 51
M  V30 53 1 28 52
M  V30 54 1 29 53
M  V30 55 1 29 54
M  V30 56 1 29 55
M  V30 57 1 30 56
M  V30 58 1 30 57
M  V30 59 1 30 58
M  V30 60 1 31 59
M  V30 61 1 31 60
M  V30 62 1 31 61
M  V30 END BOND
M  V30 END CTAB
M  END
>  <NO.>
304

>  <Name>
dibudipine

>  <SMILES>
CC1=C(C(=O)OC(C)(C)C)C(c2cccc([N+](=O)[O-])c2)C(C(=O)OC(C)(C)C)=C(C)N1

>  <logBB>
-0.42

>  <Class>
1

>  <MW>
430.21

>  <nHBAcc>
7

>  <nHBDon>
1

>  <SLogP>
4.51

>  <TopoPSA>
107.77

>  <MMFF94 Energy>
62.274

$$$$
CC[C@@]1(O)C(=O)OCc2c1cc1n(c2=O)Cc2cc3c(CN(C)C)c(O)ccc3nc2-1
Actelion Java MolfileCreator 2.0

  0  0  0  0  0  0              0 V3000
M  V30 BEGIN CTAB
M  V30 COUNTS 54 58 0 0 0
M  V30 BEGIN ATOM
M  V30 1 O 1.0458 0.0 4.2689 0
M  V30 2 C 1.2461 -0.5247 3.1789 0
M  V30 3 N 0.6438 -0.1303 2.0126 0
M  V30 4 C 2.208 -1.6653 3.0349 0
M  V30 5 C 0.8859 -0.7099 0.7814 0
M  V30 6 C -0.3372 0.9559 1.9063 0
M  V30 7 C 2.4395 -2.2219 1.8306 0
M  V30 8 C 2.8873 -2.115 4.2797 0
M  V30 9 C 0.0696 -0.0225 -0.2121 0
M  V30 10 C 1.747 -1.7224 0.6491 0
M  V30 11 C -0.6504 0.9621 0.4437 0
M  V30 12 C 3.4531 -3.3314 1.6959 0 CFG=2
M  V30 13 O 3.5255 -3.4063 4.1823 0
M  V30 14 N 0.0218 -0.2856 -1.5215 0
M  V30 15 C -1.5026 1.7557 -0.2925 0
M  V30 16 O 3.0042 -4.2455 0.6859 0
M  V30 17 C 3.5873 -4.1035 3.028 0
M  V30 18 C 4.8253 -2.759 1.2791 0
M  V30 19 C -0.8154 0.485 -2.2393 0
M  V30 20 C -1.6134 1.5349 -1.686 0
M  V30 21 O 3.8037 -5.3165 3.0326 0
M  V30 22 C 5.8884 -3.8143 0.9879 0
M  V30 23 C -0.8935 0.2306 -3.5971 0
M  V30 24 C -2.4679 2.2975 -2.5397 0
M  V30 25 C -1.7256 0.967 -4.4383 0
M  V30 26 C -2.5023 1.9901 -3.9092 0
M  V30 27 C -3.3267 3.4344 -2.0041 0
M  V30 28 O -3.3167 2.7091 -4.7397 0
M  V30 29 N -4.3977 2.9955 -1.0843 0
M  V30 30 C -5.4167 2.2172 -1.795 0
M  V30 31 C -5.0203 4.1629 -0.456 0
M  V30 32 H 0.1243 1.8898 2.2413 0
M  V30 33 H -1.2087 0.713 2.5218 0
M  V30 34 H 2.1666 -2.2011 5.1 0
M  V30 35 H 3.6532 -1.392 4.5799 0
M  V30 36 H 1.9306 -2.178 -0.3201 0
M  V30 37 H -2.0829 2.5238 0.2086 0
M  V30 38 H 3.3348 -5.1283 0.9501 0
M  V30 39 H 5.2084 -2.0851 2.0562 0
M  V30 40 H 4.71 -2.1609 0.3654 0
M  V30 41 H 6.8161 -3.3285 0.668 0
M  V30 42 H 6.1171 -4.4095 1.8766 0
M  V30 43 H 5.5739 -4.4901 0.1869 0
M  V30 44 H -0.287 -0.5696 -4.0159 0
M  V30 45 H -1.7493 0.7245 -5.4962 0
M  V30 46 H -3.7514 4.0355 -2.8182 0
M  V30 47 H -2.645 4.1188 -1.4796 0
M  V30 48 H -3.2361 2.3618 -5.6437 0
M  V30 49 H -4.9989 1.2884 -2.1971 0
M  V30 50 H -5.8698 2.7809 -2.6187 0
M  V30 51 H -6.2156 1.9162 -1.1072 0
M  V30 52 H -5.4794 4.835 -1.1902 0
M  V30 53 H -4.2799 4.7317 0.1177 0
M  V30 54 H -5.7923 3.8507 0.2563 0
M  V30 END ATOM
M  V30 BEGIN BOND
M  V30 1 2 1 2
M  V30 2 1 2 3
M  V30 3 1 2 4
M  V30 4 1 3 5
M  V30 5 1 3 6
M  V30 6 2 4 7
M  V30 7 1 4 8
M  V30 8 1 5 9
M  V30 9 2 5 10
M  V30 10 1 6 11
M  V30 11 1 7 12
M  V30 12 1 8 13
M  V30 13 2 9 14
M  V30 14 2 11 15
M  V30 15 1 12 16
M  V30 16 1 12 17
M  V30 17 1 12 18
M  V30 18 1 14 19
M  V30 19 1 15 20
M  V30 20 2 17 21
M  V30 21 1 18 22
M  V30 22 2 19 23
M  V30 23 2 20 24
M  V30 24 1 23 25
M  V30 25 1 24 26
M  V30 26 1 24 27
M  V30 27 1 26 28
M  V30 28 1 27 29
M  V30 29 1 29 30
M  V30 30 1 29 31
M  V30 31 1 7 10
M  V30 32 1 9 11
M  V30 33 1 13 17
M  V30 34 1 19 20
M  V30 35 2 25 26
M  V30 36 1 6 32
M  V30 37 1 6 33
M  V30 38 1 8 34
M  V30 39 1 8 35
M  V30 40 1 10 36
M  V30 41 1 15 37
M  V30 42 1 16 38
M  V30 43 1 18 39
M  V30 44 1 18 40
M  V30 45 1 22 41
M  V30 46 1 22 42
M  V30 47 1 22 43
M  V30 48 1 23 44
M  V30 49 1 25 45
M  V30 50 1 27 46
M  V30 51 1 27 47
M  V30 52 1 28 48
M  V30 53 1 30 49
M  V30 54 1 30 50
M  V30 55 1 30 51
M  V30 56 1 31 52
M  V30 57 1 31 53
M  V30 58 1 31 54
M  V30 END BOND
M  V30 BEGIN COLLECTION
M  V30 MDLV30/STEABS ATOMS=(1 12)
M  V30 END COLLECTION
M  V30 END CTAB
M  END
>  <NO.>
305

>  <Name>
topotecan

>  <SMILES>
CC[C@@]1(O)C(=O)OCc2c1cc1n(c2=O)Cc2cc3c(CN(C)C)c(O)ccc3nc2-1

>  <logBB>
-0.42

>  <Class>
1

>  <MW>
421.16

>  <nHBAcc>
7

>  <nHBDon>
2

>  <SLogP>
1.85

>  <TopoPSA>
104.89

>  <MMFF94 Energy>
73.227

$$$$
CC[S@@]1(O)C(=O)OCc2c1cc1n(c2=O)Cc2cc3cc(CN(C)C)c(O)cc3nc2-1
Actelion Java MolfileCreator 2.0

  0  0  0  0  0  0              0 V3000
M  V30 BEGIN CTAB
M  V30 COUNTS 54 58 0 0 0
M  V30 BEGIN ATOM
M  V30 1 S 4.0658 1.5435 3.2517 0 CFG=2
M  V30 2 O 2.971 2.4771 3.9966 0
M  V30 3 C 5.512 2.4734 3.2358 0
M  V30 4 C 3.5311 1.307 1.6776 0
M  V30 5 C 4.1194 0.099 4.2147 0
M  V30 6 O 5.7616 3.1163 4.2467 0
M  V30 7 O 6.2792 2.5208 2.1225 0
M  V30 8 C 4.4755 1.4212 0.7266 0
M  V30 9 C 2.1585 0.9715 1.3884 0
M  V30 10 C 4.6013 0.3324 5.6304 0
M  V30 11 C 5.9248 1.7734 0.9338 0
M  V30 12 C 4.0788 1.1545 -0.7005 0
M  V30 13 C 1.8198 0.7515 0.1165 0
M  V30 14 O 4.9029 1.2074 -1.6081 0
M  V30 15 N 2.7568 0.8414 -0.896 0
M  V30 16 C 0.5369 0.3996 -0.4788 0
M  V30 17 C 2.1553 0.559 -2.2037 0
M  V30 18 N -0.6163 0.2128 0.1736 0
M  V30 19 C 0.7272 0.2839 -1.85 0
M  V30 20 C -1.674 -0.1106 -0.5955 0
M  V30 21 C -0.3501 -0.0474 -2.6417 0
M  V30 22 C -1.5887 -0.2533 -2.0114 0
M  V30 23 C -2.9036 -0.3152 0.006 0
M  V30 24 C -2.7319 -0.591 -2.7584 0
M  V30 25 C -4.0284 -0.6576 -0.7432 0
M  V30 26 C -3.9681 -0.8061 -2.1328 0
M  V30 27 O -5.1936 -0.8565 -0.0534 0
M  V30 28 C -5.1922 -1.0956 -2.9796 0
M  V30 29 N -6.1304 -2.0529 -2.3514 0
M  V30 30 C -5.5932 -3.4209 -2.4068 0
M  V30 31 C -7.4209 -2.011 -3.0492 0
M  V30 32 H 3.3641 3.1615 4.6005 0
M  V30 33 H 3.1117 -0.3277 4.2261 0
M  V30 34 H 4.7813 -0.6076 3.7049 0
M  V30 35 H 1.4316 0.915 2.1928 0
M  V30 36 H 4.5842 -0.6044 6.1958 0
M  V30 37 H 3.9681 1.0564 6.1527 0
M  V30 38 H 5.6271 0.7131 5.6419 0
M  V30 39 H 6.5339 0.8627 0.9266 0
M  V30 40 H 6.2714 2.4009 0.1055 0
M  V30 41 H 2.2664 1.4375 -2.8465 0
M  V30 42 H 2.6522 -0.3092 -2.6467 0
M  V30 43 H -0.238 -0.1449 -3.7166 0
M  V30 44 H -2.9926 -0.2111 1.0842 0
M  V30 45 H -2.6581 -0.6813 -3.8406 0
M  V30 46 H -5.813 -1.3052 -0.6714 0
M  V30 47 H -4.8978 -1.4498 -3.9763 0
M  V30 48 H -5.6931 -0.1282 -3.1202 0
M  V30 49 H -4.6498 -3.4991 -1.8565 0
M  V30 50 H -5.4217 -3.7568 -3.4359 0
M  V30 51 H -6.2878 -4.1205 -1.9281 0
M  V30 52 H -7.3279 -2.2732 -4.1093 0
M  V30 53 H -7.8636 -1.0114 -2.9769 0
M  V30 54 H -8.1324 -2.7013 -2.5823 0
M  V30 END ATOM
M  V30 BEGIN BOND
M  V30 1 1 1 2
M  V30 2 1 1 3
M  V30 3 1 1 4
M  V30 4 1 1 5
M  V30 5 2 3 6
M  V30 6 1 3 7
M  V30 7 2 4 8
M  V30 8 1 4 9
M  V30 9 1 5 10
M  V30 10 1 7 11
M  V30 11 1 8 12
M  V30 12 2 9 13
M  V30 13 2 12 14
M  V30 14 1 12 15
M  V30 15 1 13 16
M  V30 16 1 15 17
M  V30 17 2 16 18
M  V30 18 1 16 19
M  V30 19 1 18 20
M  V30 20 2 19 21
M  V30 21 1 20 22
M  V30 22 2 20 23
M  V30 23 2 22 24
M  V30 24 1 23 25
M  V30 25 1 24 26
M  V30 26 1 25 27
M  V30 27 1 26 28
M  V30 28 1 28 29
M  V30 29 1 29 30
M  V30 30 1 29 31
M  V30 31 1 8 11
M  V30 32 1 13 15
M  V30 33 1 17 19
M  V30 34 1 21 22
M  V30 35 2 25 26
M  V30 36 1 2 32
M  V30 37 1 5 33
M  V30 38 1 5 34
M  V30 39 1 9 35
M  V30 40 1 10 36
M  V30 41 1 10 37
M  V30 42 1 10 38
M  V30 43 1 11 39
M  V30 44 1 11 40
M  V30 45 1 17 41
M  V30 46 1 17 42
M  V30 47 1 21 43
M  V30 48 1 23 44
M  V30 49 1 24 45
M  V30 50 1 27 46
M  V30 51 1 28 47
M  V30 52 1 28 48
M  V30 53 1 30 49
M  V30 54 1 30 50
M  V30 55 1 30 51
M  V30 56 1 31 52
M  V30 57 1 31 53
M  V30 58 1 31 54
M  V30 END BOND
M  V30 BEGIN COLLECTION
M  V30 MDLV30/STEABS ATOMS=(1 1)
M  V30 END COLLECTION
M  V30 END CTAB
M  END
>  <NO.>
306

>  <Name>
topotecan

>  <SMILES>
CC[S@@]1(O)C(=O)OCc2c1cc1n(c2=O)Cc2cc3cc(CN(C)C)c(O)cc3nc2-1

>  <logBB>
-0.42

>  <Class>
1

>  <MW>
441.14

>  <nHBAcc>
7

>  <nHBDon>
2

>  <SLogP>
3.5

>  <TopoPSA>
104.89

>  <MMFF94 Energy>
46.829

$$$$
COc1cc2c(cc1CNC1CCCNC1c1ccccc1)N(S(C)(=O)=O)C(C)C2
Actelion Java MolfileCreator 2.0

  0  0  0  0  0  0              0 V3000
M  V30 BEGIN CTAB
M  V30 COUNTS 61 64 0 0 0
M  V30 BEGIN ATOM
M  V30 1 S 1.2053 2.8947 -4.3445 0
M  V30 2 O 2.3494 2.4028 -3.6052 0
M  V30 3 O 1.2373 2.9508 -5.7925 0
M  V30 4 N -0.1765 2.0349 -3.8962 0
M  V30 5 C 0.8448 4.5402 -3.756 0
M  V30 6 C -0.5034 1.8789 -2.5167 0
M  V30 7 C -1.4479 2.2919 -4.6518 0
M  V30 8 C -1.8648 2.0826 -2.3158 0
M  V30 9 C 0.3269 1.4946 -1.4782 0
M  V30 10 C -2.5505 2.4825 -3.5823 0
M  V30 11 C -1.7274 1.0912 -5.551 0
M  V30 12 C -2.4255 1.9546 -1.0558 0
M  V30 13 C -0.2134 1.3585 -0.1855 0
M  V30 14 C -1.5946 1.5735 0.0023 0
M  V30 15 C 0.689 0.9372 0.9509 0
M  V30 16 O -2.1395 1.4742 1.257 0
M  V30 17 N 0.811 -0.5172 0.9941 0
M  V30 18 C -2.7662 0.1989 1.419 0
M  V30 19 C 1.643 -1.0024 2.1092 0
M  V30 20 C 1.3344 -2.5131 2.4323 0
M  V30 21 C 3.1378 -0.8385 1.7741 0
M  V30 22 N 2.2387 -3.0738 3.4576 0
M  V30 23 C -0.1105 -2.7545 2.8655 0
M  V30 24 C 4.0139 -1.4636 2.8552 0
M  V30 25 C 3.6415 -2.9231 3.0864 0
M  V30 26 C -0.882 -3.7267 2.2077 0
M  V30 27 C -0.6946 -2.0517 3.9332 0
M  V30 28 C -2.2008 -3.9768 2.5939 0
M  V30 29 C -2.013 -2.305 4.3204 0
M  V30 30 C -2.7663 -3.2652 3.6492 0
M  V30 31 H -0.0679 4.905 -4.2289 0
M  V30 32 H 1.6829 5.1827 -4.0362 0
M  V30 33 H 0.7468 4.5235 -2.6694 0
M  V30 34 H -1.3836 3.1932 -5.2711 0
M  V30 35 H 1.3774 1.2843 -1.6527 0
M  V30 36 H -3.4378 1.8725 -3.7775 0
M  V30 37 H -2.8423 3.5369 -3.5222 0
M  V30 38 H -1.8091 0.1646 -4.9719 0
M  V30 39 H -0.9198 0.9546 -6.278 0
M  V30 40 H -2.6618 1.2312 -6.1041 0
M  V30 41 H -3.4807 2.1426 -0.8873 0
M  V30 42 H 0.2929 1.3203 1.8988 0
M  V30 43 H 1.6669 1.4132 0.8122 0
M  V30 44 H 1.1674 -0.8628 0.1048 0
M  V30 45 H -3.6829 0.1401 0.8224 0
M  V30 46 H -3.0425 0.0959 2.4723 0
M  V30 47 H -2.0935 -0.6244 1.1586 0
M  V30 48 H 1.4261 -0.4093 3.0078 0
M  V30 49 H 1.5019 -3.0844 1.5074 0
M  V30 50 H 3.4011 0.2204 1.6742 0
M  V30 51 H 3.3637 -1.3159 0.8114 0
M  V30 52 H 2.0634 -2.5976 4.3408 0
M  V30 53 H 3.9061 -0.8981 3.7895 0
M  V30 54 H 5.0669 -1.3945 2.5596 0
M  V30 55 H 4.2645 -3.3344 3.8882 0
M  V30 56 H 3.8552 -3.5178 2.1901 0
M  V30 57 H -0.4546 -4.3 1.3883 0
M  V30 58 H -0.1271 -1.3014 4.4766 0
M  V30 59 H -2.7825 -4.7329 2.0736 0
M  V30 60 H -2.4498 -1.753 5.1484 0
M  V30 61 H -3.7903 -3.4641 3.9528 0
M  V30 END ATOM
M  V30 BEGIN BOND
M  V30 1 2 1 2
M  V30 2 2 1 3
M  V30 3 1 1 4
M  V30 4 1 1 5
M  V30 5 1 4 6
M  V30 6 1 4 7
M  V30 7 2 6 8
M  V30 8 1 6 9
M  V30 9 1 7 10
M  V30 10 1 7 11
M  V30 11 1 8 12
M  V30 12 2 9 13
M  V30 13 2 12 14
M  V30 14 1 13 15
M  V30 15 1 14 16
M  V30 16 1 15 17
M  V30 17 1 16 18
M  V30 18 1 17 19
M  V30 19 1 19 20
M  V30 20 1 19 21
M  V30 21 1 20 22
M  V30 22 1 20 23
M  V30 23 1 21 24
M  V30 24 1 22 25
M  V30 25 2 23 26
M  V30 26 1 23 27
M  V30 27 1 26 28
M  V30 28 2 27 29
M  V30 29 2 28 30
M  V30 30 1 8 10
M  V30 31 1 13 14
M  V30 32 1 24 25
M  V30 33 1 29 30
M  V30 34 1 5 31
M  V30 35 1 5 32
M  V30 36 1 5 33
M  V30 37 1 7 34
M  V30 38 1 9 35
M  V30 39 1 10 36
M  V30 40 1 10 37
M  V30 41 1 11 38
M  V30 42 1 11 39
M  V30 43 1 11 40
M  V30 44 1 12 41
M  V30 45 1 15 42
M  V30 46 1 15 43
M  V30 47 1 17 44
M  V30 48 1 18 45
M  V30 49 1 18 46
M  V30 50 1 18 47
M  V30 51 1 19 48
M  V30 52 1 20 49
M  V30 53 1 21 50
M  V30 54 1 21 51
M  V30 55 1 22 52
M  V30 56 1 24 53
M  V30 57 1 24 54
M  V30 58 1 25 55
M  V30 59 1 25 56
M  V30 60 1 26 57
M  V30 61 1 27 58
M  V30 62 1 28 59
M  V30 63 1 29 60
M  V30 64 1 30 61
M  V30 END BOND
M  V30 END CTAB
M  END
>  <NO.>
307

>  <Name>
pfizer compound 14

>  <SMILES>
COc1cc2c(cc1CNC1CCCNC1c1ccccc1)N(S(C)(=O)=O)C(C)C2

>  <logBB>
-0.42

>  <Class>
1

>  <MW>
429.21

>  <nHBAcc>
5

>  <nHBDon>
2

>  <SLogP>
2.99

>  <TopoPSA>
70.67

>  <MMFF94 Energy>
46.094

$$$$
CNS(=O)(=O)Cc1ccc2[nH]cc(CCN(C)C)c2c1
Actelion Java MolfileCreator 2.0

  0  0  0  0  0  0              0 V3000
M  V30 BEGIN CTAB
M  V30 COUNTS 41 42 0 0 0
M  V30 BEGIN ATOM
M  V30 1 S 0.9567 4.071 -0.558 0
M  V30 2 O 1.7161 4.9567 0.3001 0
M  V30 3 O 0.6546 4.452 -1.9219 0
M  V30 4 N 1.8029 2.6299 -0.6609 0
M  V30 5 C -0.5699 3.6255 0.2877 0
M  V30 6 C 2.6253 2.2096 0.4648 0
M  V30 7 C -1.2463 2.4608 -0.3883 0
M  V30 8 C -1.0742 1.1591 0.1174 0
M  V30 9 C -2.0464 2.6576 -1.5206 0
M  V30 10 C -1.6924 0.0638 -0.5203 0
M  V30 11 C -2.6788 1.5885 -2.1652 0
M  V30 12 C -2.481 0.3064 -1.6428 0
M  V30 13 C -1.6988 -1.3483 -0.2844 0
M  V30 14 N -2.9639 -0.9091 -2.0669 0
M  V30 15 C -2.4981 -1.9123 -1.2596 0
M  V30 16 C -0.9696 -2.0738 0.8064 0
M  V30 17 C 0.5101 -2.3096 0.4516 0
M  V30 18 N 1.3131 -2.8521 1.5677 0
M  V30 19 C 2.7333 -2.8473 1.205 0
M  V30 20 C 0.902 -4.2116 1.9256 0
M  V30 21 H 2.1362 2.4343 -1.6046 0
M  V30 22 H -1.2155 4.51 0.2839 0
M  V30 23 H -0.319 3.3981 1.3289 0
M  V30 24 H 3.5736 2.7532 0.4661 0
M  V30 25 H 2.843 1.1421 0.3663 0
M  V30 26 H 2.1079 2.3598 1.4161 0
M  V30 27 H -0.455 0.9832 0.993 0
M  V30 28 H -2.1797 3.6598 -1.9277 0
M  V30 29 H -3.292 1.7565 -3.0446 0
M  V30 30 H -3.5704 -1.0365 -2.865 0
M  V30 31 H -2.7731 -2.9416 -1.4479 0
M  V30 32 H -1.4747 -3.029 0.9926 0
M  V30 33 H -1.0426 -1.4927 1.7346 0
M  V30 34 H 0.5807 -2.9618 -0.4297 0
M  V30 35 H 0.9419 -1.3438 0.1558 0
M  V30 36 H 3.0724 -1.8281 0.9878 0
M  V30 37 H 2.939 -3.4744 0.3299 0
M  V30 38 H 3.3456 -3.2066 2.0398 0
M  V30 39 H 0.9605 -4.8991 1.0742 0
M  V30 40 H -0.1199 -4.2263 2.3169 0
M  V30 41 H 1.5363 -4.606 2.728 0
M  V30 END ATOM
M  V30 BEGIN BOND
M  V30 1 2 1 2
M  V30 2 2 1 3
M  V30 3 1 1 4
M  V30 4 1 1 5
M  V30 5 1 4 6
M  V30 6 1 5 7
M  V30 7 2 7 8
M  V30 8 1 7 9
M  V30 9 1 8 10
M  V30 10 2 9 11
M  V30 11 2 10 12
M  V30 12 1 10 13
M  V30 13 1 12 14
M  V30 14 2 13 15
M  V30 15 1 13 16
M  V30 16 1 16 17
M  V30 17 1 17 18
M  V30 18 1 18 19
M  V30 19 1 18 20
M  V30 20 1 11 12
M  V30 21 1 14 15
M  V30 22 1 4 21
M  V30 23 1 5 22
M  V30 24 1 5 23
M  V30 25 1 6 24
M  V30 26 1 6 25
M  V30 27 1 6 26
M  V30 28 1 8 27
M  V30 29 1 9 28
M  V30 30 1 11 29
M  V30 31 1 14 30
M  V30 32 1 15 31
M  V30 33 1 16 32
M  V30 34 1 16 33
M  V30 35 1 17 34
M  V30 36 1 17 35
M  V30 37 1 19 36
M  V30 38 1 19 37
M  V30 39 1 19 38
M  V30 40 1 20 39
M  V30 41 1 20 40
M  V30 42 1 20 41
M  V30 END BOND
M  V30 END CTAB
M  END
>  <NO.>
309

>  <Name>
sumatriptan

>  <SMILES>
CNS(=O)(=O)Cc1ccc2[nH]cc(CCN(C)C)c2c1

>  <logBB>
-0.4

>  <Class>
1

>  <MW>
295.14

>  <nHBAcc>
3

>  <nHBDon>
2

>  <SLogP>
1.32

>  <TopoPSA>
65.2

>  <MMFF94 Energy>
1.1384

$$$$
CC(C)(C)NCC(O)COc1cccc2c1CCC(=O)N2
Actelion Java MolfileCreator 2.0

  0  0  0  0  0  0              0 V3000
M  V30 BEGIN CTAB
M  V30 COUNTS 45 46 0 0 0
M  V30 BEGIN ATOM
M  V30 1 O 5.3515 0.0785 5.3515 0
M  V30 2 C 4.3748 0.1329 4.608 0
M  V30 3 N 3.4424 1.1267 4.7384 0
M  V30 4 C 4.079 -0.9292 3.5778 0
M  V30 5 C 2.3313 1.2725 3.9015 0
M  V30 6 C 3.4241 -0.3405 2.3378 0
M  V30 7 C 2.2613 0.5475 2.7027 0
M  V30 8 C 1.3205 2.1602 4.2608 0
M  V30 9 C 1.1636 0.734 1.845 0
M  V30 10 C 0.2224 2.3244 3.4207 0
M  V30 11 O 1.1864 0.015 0.6796 0
M  V30 12 C 0.1435 1.6153 2.2187 0
M  V30 13 C 0.125 0.2424 -0.2599 0
M  V30 14 C 0.4066 -0.6404 -1.4828 0 CFG=1
M  V30 15 O 0.3308 -2.0276 -1.1068 0
M  V30 16 C -0.5748 -0.3791 -2.6417 0
M  V30 17 N -1.9573 -0.6619 -2.2333 0
M  V30 18 C -2.9754 -0.6002 -3.2966 0
M  V30 19 C -2.9883 0.7634 -4.0055 0
M  V30 20 C -4.3329 -0.7966 -2.5948 0
M  V30 21 C -2.7942 -1.7267 -4.3278 0
M  V30 22 H 3.6037 1.7855 5.4893 0
M  V30 23 H 5.0125 -1.4316 3.3033 0
M  V30 24 H 3.4197 -1.6692 4.0475 0
M  V30 25 H 3.1041 -1.1671 1.694 0
M  V30 26 H 4.1502 0.2601 1.7762 0
M  V30 27 H 1.3723 2.7223 5.1888 0
M  V30 28 H -0.5752 3.0096 3.6978 0
M  V30 29 H -0.7298 1.7788 1.595 0
M  V30 30 H 0.1091 1.2968 -0.5589 0
M  V30 31 H -0.8248 -0.0494 0.2027 0
M  V30 32 H 1.4315 -0.47 -1.8326 0
M  V30 33 H 0.849 -2.105 -0.2834 0
M  V30 34 H -0.4724 0.6628 -2.9616 0
M  V30 35 H -0.2883 -1.0306 -3.4734 0
M  V30 36 H -1.9577 -1.599 -1.8162 0
M  V30 37 H -2.0815 0.9253 -4.5981 0
M  V30 38 H -3.8389 0.8392 -4.693 0
M  V30 39 H -3.0739 1.5858 -3.2857 0
M  V30 40 H -4.5137 -0.0146 -1.8474 0
M  V30 41 H -5.1591 -0.7606 -3.3144 0
M  V30 42 H -4.3853 -1.7655 -2.0838 0
M  V30 43 H -1.8822 -1.599 -4.9199 0
M  V30 44 H -2.7466 -2.7084 -3.8426 0
M  V30 45 H -3.634 -1.7498 -5.0322 0
M  V30 END ATOM
M  V30 BEGIN BOND
M  V30 1 2 1 2
M  V30 2 1 2 3
M  V30 3 1 2 4
M  V30 4 1 3 5
M  V30 5 1 4 6
M  V30 6 2 5 7
M  V30 7 1 5 8
M  V30 8 1 7 9
M  V30 9 2 8 10
M  V30 10 1 9 11
M  V30 11 2 9 12
M  V30 12 1 11 13
M  V30 13 1 13 14
M  V30 14 1 14 15
M  V30 15 1 14 16
M  V30 16 1 16 17
M  V30 17 1 17 18
M  V30 18 1 18 19
M  V30 19 1 18 20
M  V30 20 1 18 21
M  V30 21 1 6 7
M  V30 22 1 10 12
M  V30 23 1 3 22
M  V30 24 1 4 23
M  V30 25 1 4 24
M  V30 26 1 6 25
M  V30 27 1 6 26
M  V30 28 1 8 27
M  V30 29 1 10 28
M  V30 30 1 12 29
M  V30 31 1 13 30
M  V30 32 1 13 31
M  V30 33 1 14 32
M  V30 34 1 15 33
M  V30 35 1 16 34
M  V30 36 1 16 35
M  V30 37 1 17 36
M  V30 38 1 19 37
M  V30 39 1 19 38
M  V30 40 1 19 39
M  V30 41 1 20 40
M  V30 42 1 20 41
M  V30 43 1 20 42
M  V30 44 1 21 43
M  V30 45 1 21 44
M  V30 46 1 21 45
M  V30 END BOND
M  V30 BEGIN COLLECTION
M  V30 MDLV30/STERAC1 ATOMS=(1 14)
M  V30 END COLLECTION
M  V30 END CTAB
M  END
>  <NO.>
310

>  <Name>
carteolol

>  <SMILES>
CC(C)(C)NCC(O)COc1cccc2c1CCC(=O)N2

>  <logBB>
-0.4

>  <Class>
1

>  <MW>
292.18

>  <nHBAcc>
4

>  <nHBDon>
3

>  <SLogP>
1.7

>  <TopoPSA>
70.59

>  <MMFF94 Energy>
29.757

$$$$
C=CC#N
Actelion Java MolfileCreator 2.0

  0  0  0  0  0  0              0 V3000
M  V30 BEGIN CTAB
M  V30 COUNTS 7 6 0 0 0
M  V30 BEGIN ATOM
M  V30 1 N -0.1495 2.3945 0.673 0
M  V30 2 C -0.2616 1.2567 0.4794 0
M  V30 3 C -0.404 -0.138 0.2456 0
M  V30 4 C 0.4484 -0.8291 -0.5212 0
M  V30 5 H -1.2434 -0.6359 0.7184 0
M  V30 6 H 1.2974 -0.3545 -1.0063 0
M  V30 7 H 0.3124 -1.8943 -0.6805 0
M  V30 END ATOM
M  V30 BEGIN BOND
M  V30 1 3 1 2
M  V30 2 1 2 3
M  V30 3 2 3 4
M  V30 4 1 3 5
M  V30 5 1 4 6
M  V30 6 1 4 7
M  V30 END BOND
M  V30 END CTAB
M  END
>  <NO.>
311

>  <Name>
acrylonitrile

>  <SMILES>
C=CC#N

>  <logBB>
-0.4

>  <Class>
1

>  <MW>
53.03

>  <nHBAcc>
1

>  <nHBDon>
0

>  <SLogP>
0.7

>  <TopoPSA>
23.79

>  <MMFF94 Energy>
8.6468

$$$$
CC1CN(Cc2ncccn2)CC1c1nc2c(cnn2C2CCOCC2)c(=O)[nH]1
Actelion Java MolfileCreator 2.0

  0  0  0  0  0  0              0 V3000
M  V30 BEGIN CTAB
M  V30 COUNTS 54 58 0 0 0
M  V30 BEGIN ATOM
M  V30 1 O 2.0044 -4.5746 2.486 0
M  V30 2 C 1.3893 -3.6042 2.0621 0
M  V30 3 N 1.6968 -2.3045 2.4259 0
M  V30 4 C 0.2915 -3.6696 1.1466 0
M  V30 5 C 1.0085 -1.1857 1.9671 0
M  V30 6 C -0.3128 -2.501 0.7566 0
M  V30 7 C -0.3859 -4.6885 0.4717 0
M  V30 8 N 0.0084 -1.2397 1.1331 0
M  V30 9 C 1.5524 0.1415 2.4675 0
M  V30 10 N -1.3027 -2.865 -0.1178 0
M  V30 11 N -1.3606 -4.2076 -0.3119 0
M  V30 12 C 2.6053 0.6898 1.4936 0
M  V30 13 C 0.4841 1.2396 2.5492 0
M  V30 14 C -2.1928 -1.9627 -0.8345 0
M  V30 15 C 2.3081 2.1857 1.4514 0
M  V30 16 C 4.0372 0.3933 1.9188 0
M  V30 17 N 0.8491 2.2946 1.5858 0
M  V30 18 C -1.6561 -1.648 -2.2326 0
M  V30 19 C -3.637 -2.4693 -0.9143 0
M  V30 20 C 0.138 2.0889 0.2957 0
M  V30 21 C -2.6145 -0.7154 -2.9564 0
M  V30 22 C -4.4826 -1.4865 -1.7093 0
M  V30 23 C 0.3396 3.1882 -0.741 0
M  V30 24 O -3.926 -1.2744 -3.0058 0
M  V30 25 N -0.4105 4.3065 -0.6376 0
M  V30 26 N 1.2554 2.9727 -1.7124 0
M  V30 27 C -0.2006 5.2591 -1.564 0
M  V30 28 C 1.4185 3.9609 -2.6116 0
M  V30 29 C 0.7109 5.1385 -2.5848 0
M  V30 30 H 2.4728 -2.2134 3.0644 0
M  V30 31 H -0.2129 -5.7566 0.506 0
M  V30 32 H 1.9887 -0.0095 3.4634 0
M  V30 33 H 2.4592 0.2631 0.4921 0
M  V30 34 H 0.531 1.6882 3.5505 0
M  V30 35 H -0.547 0.8867 2.4371 0
M  V30 36 H -2.2075 -1.0293 -0.2545 0
M  V30 37 H 2.7139 2.6661 0.556 0
M  V30 38 H 2.7693 2.6931 2.309 0
M  V30 39 H 4.7475 0.843 1.2172 0
M  V30 40 H 4.2507 0.7922 2.9162 0
M  V30 41 H 4.221 -0.6854 1.9399 0
M  V30 42 H -1.5569 -2.5797 -2.8044 0
M  V30 43 H -0.6599 -1.1941 -2.1764 0
M  V30 44 H -4.0564 -2.6084 0.0886 0
M  V30 45 H -3.6635 -3.4436 -1.4184 0
M  V30 46 H -0.9415 2.0515 0.493 0
M  V30 47 H 0.4002 1.1304 -0.1665 0
M  V30 48 H -2.2782 -0.5621 -3.9867 0
M  V30 49 H -2.656 0.268 -2.4732 0
M  V30 50 H -5.4931 -1.8862 -1.8416 0
M  V30 51 H -4.5734 -0.525 -1.1902 0
M  V30 52 H -0.809 6.1522 -1.4555 0
M  V30 53 H 2.1615 3.7704 -3.3804 0
M  V30 54 H 0.8612 5.9183 -3.3173 0
M  V30 END ATOM
M  V30 BEGIN BOND
M  V30 1 2 1 2
M  V30 2 1 2 3
M  V30 3 1 2 4
M  V30 4 1 3 5
M  V30 5 2 4 6
M  V30 6 1 4 7
M  V30 7 2 5 8
M  V30 8 1 5 9
M  V30 9 1 6 10
M  V30 10 2 7 11
M  V30 11 1 9 12
M  V30 12 1 9 13
M  V30 13 1 10 14
M  V30 14 1 12 15
M  V30 15 1 12 16
M  V30 16 1 13 17
M  V30 17 1 14 18
M  V30 18 1 14 19
M  V30 19 1 17 20
M  V30 20 1 18 21
M  V30 21 1 19 22
M  V30 22 1 20 23
M  V30 23 1 21 24
M  V30 24 2 23 25
M  V30 25 1 23 26
M  V30 26 1 25 27
M  V30 27 2 26 28
M  V30 28 2 27 29
M  V30 29 1 6 8
M  V30 30 1 10 11
M  V30 31 1 15 17
M  V30 32 1 22 24
M  V30 33 1 28 29
M  V30 34 1 3 30
M  V30 35 1 7 31
M  V30 36 1 9 32
M  V30 37 1 12 33
M  V30 38 1 13 34
M  V30 39 1 13 35
M  V30 40 1 14 36
M  V30 41 1 15 37
M  V30 42 1 15 38
M  V30 43 1 16 39
M  V30 44 1 16 40
M  V30 45 1 16 41
M  V30 46 1 18 42
M  V30 47 1 18 43
M  V30 48 1 19 44
M  V30 49 1 19 45
M  V30 50 1 20 46
M  V30 51 1 20 47
M  V30 52 1 21 48
M  V30 53 1 21 49
M  V30 54 1 22 50
M  V30 55 1 22 51
M  V30 56 1 27 52
M  V30 57 1 28 53
M  V30 58 1 29 54
M  V30 END BOND
M  V30 END CTAB
M  END
>  <NO.>
312

>  <Name>
pf-4447943

>  <SMILES>
CC1CN(Cc2ncccn2)CC1c1nc2c(cnn2C2CCOCC2)c(=O)[nH]1

>  <logBB>
-0.4

>  <Class>
1

>  <MW>
395.21

>  <nHBAcc>
7

>  <nHBDon>
1

>  <SLogP>
1.5

>  <TopoPSA>
101.82

>  <MMFF94 Energy>
11.531

$$$$
CCCN(CCC)S(=O)(=O)c1ccc(C(=O)O)cc1
Actelion Java MolfileCreator 2.0

  0  0  0  0  0  0              0 V3000
M  V30 BEGIN CTAB
M  V30 COUNTS 38 38 0 0 0
M  V30 BEGIN ATOM
M  V30 1 S -0.9578 1.3571 -1.1974 0
M  V30 2 O -0.1463 2.1464 -2.1003 0
M  V30 3 O -2.3886 1.5618 -1.108 0
M  V30 4 N -0.6726 -0.276 -1.5081 0
M  V30 5 C -0.2879 1.595 0.4374 0
M  V30 6 C -1.5607 -1.319 -0.9616 0
M  V30 7 C 0.6285 -0.7038 -2.051 0
M  V30 8 C -1.1484 1.6433 1.54 0
M  V30 9 C 1.0841 1.8114 0.5978 0
M  V30 10 C -1.0575 -1.8938 0.3602 0
M  V30 11 C 0.519 -0.8668 -3.5656 0
M  V30 12 C -0.6256 1.8634 2.8175 0
M  V30 13 C 1.6033 2.0307 1.8764 0
M  V30 14 C -2.0011 -2.9634 0.8896 0
M  V30 15 C 1.843 -1.2961 -4.1762 0
M  V30 16 C 0.7523 2.0528 2.9908 0
M  V30 17 C 1.3524 2.2884 4.3268 0
M  V30 18 O 2.5359 2.454 4.556 0
M  V30 19 O 0.4396 2.3009 5.3138 0
M  V30 20 H -1.65 -2.1199 -1.7061 0
M  V30 21 H -2.5745 -0.9235 -0.8356 0
M  V30 22 H 0.9451 -1.649 -1.5989 0
M  V30 23 H 1.4094 0.0223 -1.8051 0
M  V30 24 H -2.2214 1.5103 1.4149 0
M  V30 25 H 1.7503 1.8243 -0.2616 0
M  V30 26 H -0.0616 -2.3326 0.2401 0
M  V30 27 H -0.963 -1.1076 1.1129 0
M  V30 28 H -0.2484 -1.6115 -3.8079 0
M  V30 29 H 0.199 0.0755 -4.0254 0
M  V30 30 H -1.3015 1.8924 3.6696 0
M  V30 31 H 2.6725 2.1955 2.0007 0
M  V30 32 H -1.6256 -3.365 1.8362 0
M  V30 33 H -2.9998 -2.552 1.0682 0
M  V30 34 H -2.0914 -3.7927 0.1808 0
M  V30 35 H 1.7419 -1.4084 -5.2602 0
M  V30 36 H 2.6232 -0.5528 -3.983 0
M  V30 37 H 2.1721 -2.2555 -3.7645 0
M  V30 38 H 0.9682 2.4699 6.1222 0
M  V30 END ATOM
M  V30 BEGIN BOND
M  V30 1 2 1 2
M  V30 2 2 1 3
M  V30 3 1 1 4
M  V30 4 1 1 5
M  V30 5 1 4 6
M  V30 6 1 4 7
M  V30 7 2 5 8
M  V30 8 1 5 9
M  V30 9 1 6 10
M  V30 10 1 7 11
M  V30 11 1 8 12
M  V30 12 2 9 13
M  V30 13 1 10 14
M  V30 14 1 11 15
M  V30 15 2 12 16
M  V30 16 1 16 17
M  V30 17 2 17 18
M  V30 18 1 17 19
M  V30 19 1 13 16
M  V30 20 1 6 20
M  V30 21 1 6 21
M  V30 22 1 7 22
M  V30 23 1 7 23
M  V30 24 1 8 24
M  V30 25 1 9 25
M  V30 26 1 10 26
M  V30 27 1 10 27
M  V30 28 1 11 28
M  V30 29 1 11 29
M  V30 30 1 12 30
M  V30 31 1 13 31
M  V30 32 1 14 32
M  V30 33 1 14 33
M  V30 34 1 14 34
M  V30 35 1 15 35
M  V30 36 1 15 36
M  V30 37 1 15 37
M  V30 38 1 19 38
M  V30 END BOND
M  V30 END CTAB
M  END
>  <NO.>
313

>  <Name>
probenecid

>  <SMILES>
CCCN(CCC)S(=O)(=O)c1ccc(C(=O)O)cc1

>  <logBB>
-0.4

>  <Class>
1

>  <MW>
285.1

>  <nHBAcc>
3

>  <nHBDon>
1

>  <SLogP>
2.2

>  <TopoPSA>
74.68

>  <MMFF94 Energy>
-23.573

$$$$
CN1CCCCC1CCN1c2ccccc2Sc2ccc([S+](C)[O-])cc21
Actelion Java MolfileCreator 2.0

  0  0  0  0  0  0              0 V3000
M  V30 BEGIN CTAB
M  V30 COUNTS 52 55 0 0 0
M  V30 BEGIN ATOM
M  V30 1 S -2.6161 -3.2709 -2.8616 0
M  V30 2 O -3.4353 -3.0663 -4.1022 0
M  V30 3 C -1.283 -2.0532 -2.9389 0
M  V30 4 C -1.5885 -4.738 -3.1347 0
M  V30 5 C -0.4716 -1.8467 -1.815 0
M  V30 6 C -1.0516 -1.3154 -4.0958 0
M  V30 7 C 0.5823 -0.9105 -1.8194 0
M  V30 8 C 0.0061 -0.4094 -4.1374 0
M  V30 9 N 1.3795 -0.7099 -0.6607 0
M  V30 10 C 0.8338 -0.2175 -3.0191 0
M  V30 11 C 2.691 -0.1635 -0.6771 0
M  V30 12 C 0.6288 -0.5296 0.6093 0
M  V30 13 S 2.1706 0.9443 -3.2038 0
M  V30 14 C 3.1606 0.6001 -1.7633 0
M  V30 15 C 3.5855 -0.3975 0.3866 0
M  V30 16 C 0.0643 0.8972 0.7242 0
M  V30 17 C 4.4535 1.1512 -1.7402 0
M  V30 18 C 4.8739 0.1447 0.399 0
M  V30 19 C -0.7092 1.1315 2.0477 0
M  V30 20 C 5.3055 0.9283 -0.6616 0
M  V30 21 N -2.1805 0.9915 1.9205 0
M  V30 22 C -0.3752 2.5566 2.5469 0
M  V30 23 C -2.8619 1.2509 3.2014 0
M  V30 24 C -2.6139 -0.3033 1.3992 0
M  V30 25 C -1.0775 2.8875 3.8573 0
M  V30 26 C -2.573 2.6556 3.7229 0
M  V30 27 H -1.0259 -4.6345 -4.0658 0
M  V30 28 H -2.2436 -5.6097 -3.2043 0
M  V30 29 H -0.9041 -4.8705 -2.2935 0
M  V30 30 H -0.6514 -2.4522 -0.9318 0
M  V30 31 H -1.6801 -1.4487 -4.9738 0
M  V30 32 H 0.1849 0.1453 -5.0564 0
M  V30 33 H 1.2628 -0.7284 1.4798 0
M  V30 34 H -0.1692 -1.2685 0.7069 0
M  V30 35 H 3.3049 -1.0404 1.2158 0
M  V30 36 H 0.9063 1.5986 0.6584 0
M  V30 37 H -0.5729 1.1346 -0.137 0
M  V30 38 H 4.807 1.755 -2.5733 0
M  V30 39 H 5.5395 -0.0556 1.2347 0
M  V30 40 H -0.3446 0.4217 2.8035 0
M  V30 41 H 6.3052 1.354 -0.6592 0
M  V30 42 H 0.7069 2.6561 2.6967 0
M  V30 43 H -0.6608 3.2951 1.7857 0
M  V30 44 H -2.5653 0.5076 3.9532 0
M  V30 45 H -3.9478 1.1636 3.0711 0
M  V30 46 H -3.7082 -0.3635 1.366 0
M  V30 47 H -2.2858 -0.4437 0.3657 0
M  V30 48 H -2.2471 -1.136 2.0093 0
M  V30 49 H -0.8815 3.9284 4.137 0
M  V30 50 H -0.6759 2.2566 4.6595 0
M  V30 51 H -3.0594 2.7985 4.6945 0
M  V30 52 H -3.001 3.3988 3.0383 0
M  V30 END ATOM
M  V30 BEGIN BOND
M  V30 1 2 1 2
M  V30 2 1 1 3
M  V30 3 1 1 4
M  V30 4 2 3 5
M  V30 5 1 3 6
M  V30 6 1 5 7
M  V30 7 2 6 8
M  V30 8 1 7 9
M  V30 9 2 7 10
M  V30 10 1 9 11
M  V30 11 1 9 12
M  V30 12 1 10 13
M  V30 13 2 11 14
M  V30 14 1 11 15
M  V30 15 1 12 16
M  V30 16 1 14 17
M  V30 17 2 15 18
M  V30 18 1 16 19
M  V30 19 2 17 20
M  V30 20 1 19 21
M  V30 21 1 19 22
M  V30 22 1 21 23
M  V30 23 1 21 24
M  V30 24 1 22 25
M  V30 25 1 23 26
M  V30 26 1 8 10
M  V30 27 1 13 14
M  V30 28 1 18 20
M  V30 29 1 25 26
M  V30 30 1 4 27
M  V30 31 1 4 28
M  V30 32 1 4 29
M  V30 33 1 5 30
M  V30 34 1 6 31
M  V30 35 1 8 32
M  V30 36 1 12 33
M  V30 37 1 12 34
M  V30 38 1 15 35
M  V30 39 1 16 36
M  V30 40 1 16 37
M  V30 41 1 17 38
M  V30 42 1 18 39
M  V30 43 1 19 40
M  V30 44 1 20 41
M  V30 45 1 22 42
M  V30 46 1 22 43
M  V30 47 1 23 44
M  V30 48 1 23 45
M  V30 49 1 24 46
M  V30 50 1 24 47
M  V30 51 1 24 48
M  V30 52 1 25 49
M  V30 53 1 25 50
M  V30 54 1 26 51
M  V30 55 1 26 52
M  V30 END BOND
M  V30 END CTAB
M  END
>  <NO.>
314

>  <Name>
mesoridazine

>  <SMILES>
CN1CCCCC1CCN1c2ccccc2Sc2ccc([S+](C)[O-])cc21

>  <logBB>
-0.4

>  <Class>
1

>  <MW>
386.15

>  <nHBAcc>
4

>  <nHBDon>
0

>  <SLogP>
4.9

>  <TopoPSA>
29.54

>  <MMFF94 Energy>
82.257

$$$$
Cc1nc(NC(=O)C2c3ccccc3Oc3ccccc32)no1
Actelion Java MolfileCreator 2.0

  0  0  0  0  0  0              0 V3000
M  V30 BEGIN CTAB
M  V30 COUNTS 36 39 0 0 0
M  V30 BEGIN ATOM
M  V30 1 O 0.7268 0.9692 -0.8884 0
M  V30 2 C -0.2826 0.5852 -0.3016 0
M  V30 3 N -1.4425 1.3231 -0.1717 0
M  V30 4 C -0.3872 -0.803 0.3572 0
M  V30 5 C -1.5522 2.5897 -0.6713 0
M  V30 6 C -0.3305 -1.8984 -0.6833 0
M  V30 7 C 0.657 -0.9676 1.4376 0
M  V30 8 N -2.6099 2.9966 -1.3823 0
M  V30 9 N -0.6666 3.5745 -0.3435 0
M  V30 10 C 0.7283 -2.809 -0.6831 0
M  V30 11 C -1.3306 -2.0186 -1.664 0
M  V30 12 C 1.6533 -1.9369 1.307 0
M  V30 13 C 0.6475 -0.1508 2.5816 0
M  V30 14 O -2.3321 4.3451 -1.6221 0
M  V30 15 C -1.1583 4.6116 -0.979 0
M  V30 16 O 1.7451 -2.7947 0.2391 0
M  V30 17 C 0.7993 -3.8123 -1.6528 0
M  V30 18 C -1.2599 -3.025 -2.6289 0
M  V30 19 C 2.6322 -2.0827 2.293 0
M  V30 20 C 1.6241 -0.3012 3.5677 0
M  V30 21 C -0.6443 5.9876 -1.0786 0
M  V30 22 C -0.1937 -3.9209 -2.6249 0
M  V30 23 C 2.6176 -1.2663 3.4231 0
M  V30 24 H -2.2996 0.9209 0.171 0
M  V30 25 H -1.3613 -0.9038 0.8571 0
M  V30 26 H -2.1682 -1.3256 -1.6939 0
M  V30 27 H -0.1113 0.618 2.7088 0
M  V30 28 H 1.6317 -4.5109 -1.6479 0
M  V30 29 H -2.0332 -3.106 -3.3889 0
M  V30 30 H 3.4077 -2.8353 2.1782 0
M  V30 31 H 1.6148 0.3407 4.4451 0
M  V30 32 H 0.3009 6.0874 -0.5369 0
M  V30 33 H -1.3599 6.6964 -0.6514 0
M  V30 34 H -0.4695 6.2574 -2.1243 0
M  V30 35 H -0.1333 -4.7016 -3.3784 0
M  V30 36 H 3.3827 -1.3811 4.1862 0
M  V30 END ATOM
M  V30 BEGIN BOND
M  V30 1 2 1 2
M  V30 2 1 2 3
M  V30 3 1 2 4
M  V30 4 1 3 5
M  V30 5 1 4 6
M  V30 6 1 4 7
M  V30 7 2 5 8
M  V30 8 1 5 9
M  V30 9 2 6 10
M  V30 10 1 6 11
M  V30 11 2 7 12
M  V30 12 1 7 13
M  V30 13 1 8 14
M  V30 14 2 9 15
M  V30 15 1 10 16
M  V30 16 1 10 17
M  V30 17 2 11 18
M  V30 18 1 12 19
M  V30 19 2 13 20
M  V30 20 1 15 21
M  V30 21 2 17 22
M  V30 22 2 19 23
M  V30 23 1 12 16
M  V30 24 1 14 15
M  V30 25 1 18 22
M  V30 26 1 20 23
M  V30 27 1 3 24
M  V30 28 1 4 25
M  V30 29 1 11 26
M  V30 30 1 13 27
M  V30 31 1 17 28
M  V30 32 1 18 29
M  V30 33 1 19 30
M  V30 34 1 20 31
M  V30 35 1 21 32
M  V30 36 1 21 33
M  V30 37 1 21 34
M  V30 38 1 22 35
M  V30 39 1 23 36
M  V30 END BOND
M  V30 END CTAB
M  END
>  <NO.>
315

>  <Name>
compound 3a [pmid: 16099654]

>  <SMILES>
Cc1nc(NC(=O)C2c3ccccc3Oc3ccccc32)no1

>  <logBB>
-0.4

>  <Class>
1

>  <MW>
307.1

>  <nHBAcc>
5

>  <nHBDon>
1

>  <SLogP>
3.25

>  <TopoPSA>
77.25

>  <MMFF94 Energy>
17.441

$$$$
O=C(c1ccc(Cl)cc1)N1CCN(c2ccc(OC3CCN(C4CCC4)CC3)cc2)C(=O)C1
Actelion Java MolfileCreator 2.0

  0  0  0  0  0  0              0 V3000
M  V30 BEGIN CTAB
M  V30 COUNTS 63 67 0 0 0
M  V30 BEGIN ATOM
M  V30 1 Cl -2.9055 9.71 4.927 0
M  V30 2 C -2.8648 8.7046 3.5317 0
M  V30 3 C -1.8605 8.8844 2.5793 0
M  V30 4 C -3.8415 7.7235 3.3574 0
M  V30 5 C -1.8257 8.0704 1.4446 0
M  V30 6 C -3.81 6.9077 2.2242 0
M  V30 7 C -2.7903 7.0689 1.2796 0
M  V30 8 C -2.7939 6.2087 0.0744 0
M  V30 9 O -3.8321 6.1476 -0.5791 0
M  V30 10 N -1.6417 5.5125 -0.2638 0
M  V30 11 C -0.498 5.2891 0.6208 0
M  V30 12 C -1.5834 4.8018 -1.5307 0
M  V30 13 C 0.1649 3.8965 0.5623 0
M  V30 14 C -1.4594 3.3112 -1.2508 0
M  V30 15 O 1.0861 3.6457 1.3443 0
M  V30 16 N -0.2871 3.012 -0.4211 0
M  V30 17 C 0.3054 1.7287 -0.5671 0
M  V30 18 C -0.4853 0.5749 -0.5679 0
M  V30 19 C 1.6849 1.605 -0.7415 0
M  V30 20 C 0.0956 -0.6883 -0.7419 0
M  V30 21 C 2.2604 0.3435 -0.9163 0
M  V30 22 C 1.4723 -0.8099 -0.9207 0
M  V30 23 O 2.1721 -1.9681 -1.1017 0
M  V30 24 C 1.4731 -3.2154 -1.1461 0
M  V30 25 C 2.343 -4.1955 -1.9322 0
M  V30 26 C 1.2552 -3.7643 0.262 0
M  V30 27 C 1.7409 -5.598 -1.9137 0
M  V30 28 C 0.6874 -5.1811 0.2128 0
M  V30 29 N 1.5806 -6.0933 -0.5307 0
M  V30 30 C 0.9855 -7.4522 -0.5591 0
M  V30 31 C 2.0329 -8.4981 -1.0418 0
M  V30 32 C 1.1021 -8.1299 0.8377 0
M  V30 33 C 2.4768 -8.6796 0.4199 0
M  V30 34 H -1.1112 9.661 2.7112 0
M  V30 35 H -4.6311 7.5946 4.0933 0
M  V30 36 H -1.06 8.2313 0.6902 0
M  V30 37 H -4.5791 6.1528 2.0756 0
M  V30 38 H 0.2676 6.0215 0.3413 0
M  V30 39 H -0.7874 5.4588 1.6621 0
M  V30 40 H -2.4667 5.0005 -2.1453 0
M  V30 41 H -0.7062 5.1704 -2.0756 0
M  V30 42 H -2.3446 2.9569 -0.7084 0
M  V30 43 H -1.3851 2.7706 -2.2014 0
M  V30 44 H -1.5589 0.6382 -0.4141 0
M  V30 45 H 2.3261 2.4824 -0.7387 0
M  V30 46 H -0.5602 -1.551 -0.7207 0
M  V30 47 H 3.337 0.2602 -1.0451 0
M  V30 48 H 0.5234 -3.1192 -1.687 0
M  V30 49 H 3.3605 -4.2133 -1.5189 0
M  V30 50 H 2.4491 -3.8456 -2.9665 0
M  V30 51 H 2.2021 -3.7541 0.8183 0
M  V30 52 H 0.5761 -3.1155 0.8264 0
M  V30 53 H 0.7775 -5.5944 -2.4412 0
M  V30 54 H 2.4132 -6.2453 -2.4852 0
M  V30 55 H 0.5633 -5.5145 1.2479 0
M  V30 56 H -0.3142 -5.162 -0.2376 0
M  V30 57 H 6.0E-4 -7.5232 -1.0329 0
M  V30 58 H 2.8261 -8.1903 -1.7265 0
M  V30 59 H 1.5666 -9.3999 -1.4597 0
M  V30 60 H 1.1103 -7.5116 1.7381 0
M  V30 61 H 0.3551 -8.9207 0.9864 0
M  V30 62 H 2.6915 -9.7061 0.7274 0
M  V30 63 H 3.3175 -8.0395 0.7109 0
M  V30 END ATOM
M  V30 BEGIN BOND
M  V30 1 1 1 2
M  V30 2 2 2 3
M  V30 3 1 2 4
M  V30 4 1 3 5
M  V30 5 2 4 6
M  V30 6 2 5 7
M  V30 7 1 7 8
M  V30 8 2 8 9
M  V30 9 1 8 10
M  V30 10 1 10 11
M  V30 11 1 10 12
M  V30 12 1 11 13
M  V30 13 1 12 14
M  V30 14 2 13 15
M  V30 15 1 13 16
M  V30 16 1 16 17
M  V30 17 2 17 18
M  V30 18 1 17 19
M  V30 19 1 18 20
M  V30 20 2 19 21
M  V30 21 2 20 22
M  V30 22 1 22 23
M  V30 23 1 23 24
M  V30 24 1 24 25
M  V30 25 1 24 26
M  V30 26 1 25 27
M  V30 27 1 26 28
M  V30 28 1 27 29
M  V30 29 1 29 30
M  V30 30 1 30 31
M  V30 31 1 30 32
M  V30 32 1 31 33
M  V30 33 1 6 7
M  V30 34 1 14 16
M  V30 35 1 21 22
M  V30 36 1 28 29
M  V30 37 1 32 33
M  V30 38 1 3 34
M  V30 39 1 4 35
M  V30 40 1 5 36
M  V30 41 1 6 37
M  V30 42 1 11 38
M  V30 43 1 11 39
M  V30 44 1 12 40
M  V30 45 1 12 41
M  V30 46 1 14 42
M  V30 47 1 14 43
M  V30 48 1 18 44
M  V30 49 1 19 45
M  V30 50 1 20 46
M  V30 51 1 21 47
M  V30 52 1 24 48
M  V30 53 1 25 49
M  V30 54 1 25 50
M  V30 55 1 26 51
M  V30 56 1 26 52
M  V30 57 1 27 53
M  V30 58 1 27 54
M  V30 59 1 28 55
M  V30 60 1 28 56
M  V30 61 1 30 57
M  V30 62 1 31 58
M  V30 63 1 31 59
M  V30 64 1 32 60
M  V30 65 1 32 61
M  V30 66 1 33 62
M  V30 67 1 33 63
M  V30 END BOND
M  V30 END CTAB
M  END
>  <NO.>
317

>  <Name>
chembl1190347

>  <SMILES>
O=C(c1ccc(Cl)cc1)N1CCN(c2ccc(OC3CCN(C4CCC4)CC3)cc2)C(=O)C1

>  <logBB>
-0.4

>  <Class>
1

>  <MW>
467.2

>  <nHBAcc>
4

>  <nHBDon>
0

>  <SLogP>
4.22

>  <TopoPSA>
53.09

>  <MMFF94 Energy>
109.01

$$$$
COc1cc(Nc2nn3c(NC(CO)C(C)C)cc(C4CC4)nc3c2C(N)=O)cc(OC)c1
Actelion Java MolfileCreator 2.0

  0  0  0  0  0  0              0 V3000
M  V30 BEGIN CTAB
M  V30 COUNTS 63 66 0 0 0
M  V30 BEGIN ATOM
M  V30 1 O 1.8967 -4.5093 -1.2641 0
M  V30 2 C 1.8209 -4.0097 -0.1448 0
M  V30 3 N 2.2191 -4.7008 0.9613 0
M  V30 4 C 1.316 -2.6725 0.0874 0
M  V30 5 C 1.1997 -2.0154 1.299 0
M  V30 6 C 0.8293 -1.7519 -0.8857 0
M  V30 7 N 1.5004 -2.3952 2.5831 0
M  V30 8 N 0.6762 -0.7574 1.0035 0
M  V30 9 N 0.4544 -0.6 -0.3268 0
M  V30 10 N 0.7941 -2.0702 -2.2065 0
M  V30 11 C 1.2583 -1.5049 3.4969 0
M  V30 12 C 0.4315 0.2055 2.0207 0
M  V30 13 C 0.2968 -1.3821 -3.3361 0
M  V30 14 C 0.7126 -0.1384 3.2896 0
M  V30 15 C 1.5723 -1.8575 4.9024 0
M  V30 16 N -0.0725 1.4325 1.6021 0
M  V30 17 C 0.5651 -1.9059 -4.6112 0
M  V30 18 C -0.4269 -0.1859 -3.2592 0
M  V30 19 C 0.4673 -1.967 5.9283 0
M  V30 20 C 1.1727 -3.2042 5.4614 0
M  V30 21 C -0.3869 2.6271 2.3865 0 CFG=2
M  V30 22 C 0.1229 -1.2692 -5.775 0
M  V30 23 C -0.8793 0.4617 -4.4129 0
M  V30 24 C -1.5379 3.391 1.6695 0
M  V30 25 C 0.8943 3.4829 2.5413 0
M  V30 26 O 0.4625 -1.9037 -6.9391 0
M  V30 27 C -0.5999 -0.0839 -5.6686 0
M  V30 28 O -1.5995 1.6277 -4.447 0
M  V30 29 C -2.7897 2.5089 1.5356 0
M  V30 30 C -1.9309 4.683 2.3948 0
M  V30 31 O 1.8243 2.8583 3.4322 0
M  V30 32 C 0.0329 -1.2945 -8.1502 0
M  V30 33 C -1.9444 2.2036 -3.1926 0
M  V30 34 H 2.1568 -4.2773 1.8832 0
M  V30 35 H 2.5804 -5.6361 0.8565 0
M  V30 36 H 1.1706 -2.9882 -2.4552 0
M  V30 37 H 0.5837 0.5185 4.1366 0
M  V30 38 H 2.524 -1.4622 5.2472 0
M  V30 39 H -0.1379 1.5031 0.583 0
M  V30 40 H 1.1338 -2.828 -4.7114 0
M  V30 41 H -0.6451 0.2292 -2.2843 0
M  V30 42 H -0.56 -1.8266 5.6106 0
M  V30 43 H 0.672 -1.6133 6.9325 0
M  V30 44 H 1.8597 -3.6907 6.1442 0
M  V30 45 H 0.6267 -3.8894 4.8221 0
M  V30 46 H -0.7364 2.3252 3.3819 0
M  V30 47 H -1.2122 3.6594 0.6554 0
M  V30 48 H 0.6774 4.4635 2.9697 0
M  V30 49 H 1.3851 3.6235 1.5716 0
M  V30 50 H -0.9634 0.4436 -6.5437 0
M  V30 51 H -3.6023 3.0586 1.0479 0
M  V30 52 H -2.5937 1.6204 0.9272 0
M  V30 53 H -3.1465 2.1786 2.5172 0
M  V30 54 H -2.8204 5.132 1.939 0
M  V30 55 H -1.1375 5.4337 2.3376 0
M  V30 56 H -2.1525 4.4933 3.4504 0
M  V30 57 H 2.6789 3.3034 3.2993 0
M  V30 58 H -1.0599 -1.2482 -8.2031 0
M  V30 59 H 0.3796 -1.9187 -8.9793 0
M  V30 60 H 0.4782 -0.3015 -8.2724 0
M  V30 61 H -2.5747 1.5271 -2.6056 0
M  V30 62 H -2.5254 3.1098 -3.3902 0
M  V30 63 H -1.0501 2.4986 -2.6335 0
M  V30 END ATOM
M  V30 BEGIN BOND
M  V30 1 2 1 2
M  V30 2 1 2 3
M  V30 3 1 2 4
M  V30 4 2 4 5
M  V30 5 1 4 6
M  V30 6 1 5 7
M  V30 7 1 5 8
M  V30 8 2 6 9
M  V30 9 1 6 10
M  V30 10 2 7 11
M  V30 11 1 8 12
M  V30 12 1 10 13
M  V30 13 1 11 14
M  V30 14 1 11 15
M  V30 15 1 12 16
M  V30 16 2 13 17
M  V30 17 1 13 18
M  V30 18 1 15 19
M  V30 19 1 15 20
M  V30 20 1 16 21
M  V30 21 1 17 22
M  V30 22 2 18 23
M  V30 23 1 21 24
M  V30 24 1 21 25
M  V30 25 1 22 26
M  V30 26 2 22 27
M  V30 27 1 23 28
M  V30 28 1 24 29
M  V30 29 1 24 30
M  V30 30 1 25 31
M  V30 31 1 26 32
M  V30 32 1 28 33
M  V30 33 1 8 9
M  V30 34 2 12 14
M  V30 35 1 19 20
M  V30 36 1 23 27
M  V30 37 1 3 34
M  V30 38 1 3 35
M  V30 39 1 10 36
M  V30 40 1 14 37
M  V30 41 1 15 38
M  V30 42 1 16 39
M  V30 43 1 17 40
M  V30 44 1 18 41
M  V30 45 1 19 42
M  V30 46 1 19 43
M  V30 47 1 20 44
M  V30 48 1 20 45
M  V30 49 1 21 46
M  V30 50 1 24 47
M  V30 51 1 25 48
M  V30 52 1 25 49
M  V30 53 1 27 50
M  V30 54 1 29 51
M  V30 55 1 29 52
M  V30 56 1 29 53
M  V30 57 1 30 54
M  V30 58 1 30 55
M  V30 59 1 30 56
M  V30 60 1 31 57
M  V30 61 1 32 58
M  V30 62 1 32 59
M  V30 63 1 32 60
M  V30 64 1 33 61
M  V30 65 1 33 62
M  V30 66 1 33 63
M  V30 END BOND
M  V30 BEGIN COLLECTION
M  V30 MDLV30/STERAC1 ATOMS=(1 21)
M  V30 END COLLECTION
M  V30 END CTAB
M  END
>  <NO.>
318

>  <Name>
compound 6h

>  <SMILES>
COc1cc(Nc2nn3c(NC(CO)C(C)C)cc(C4CC4)nc3c2C(N)=O)cc(OC)c1

>  <logBB>
-0.39

>  <Class>
1

>  <MW>
454.23

>  <nHBAcc>
8

>  <nHBDon>
4

>  <SLogP>
2.9

>  <TopoPSA>
136.03

>  <MMFF94 Energy>
73.546

$$$$
Cc1ccc2c(OCCN3CCC(Cc4ccc5c(c4)NC(=O)CO5)CC3)cccc2n1
Actelion Java MolfileCreator 2.0

  0  0  0  0  0  0              0 V3000
M  V30 BEGIN CTAB
M  V30 COUNTS 61 65 0 0 0
M  V30 BEGIN ATOM
M  V30 1 O -3.2786 4.8809 6.8866 0
M  V30 2 C -2.5061 3.95 6.6728 0
M  V30 3 N -2.0166 3.7007 5.421 0
M  V30 4 C -1.9617 3.0407 7.7734 0
M  V30 5 C -1.1681 2.6222 5.1727 0
M  V30 6 O -1.4512 1.7599 7.4332 0
M  V30 7 C -0.9113 1.6887 6.1786 0
M  V30 8 C -0.6068 2.466 3.9044 0
M  V30 9 C -0.1012 0.5883 5.9107 0
M  V30 10 C 0.2197 1.3659 3.6302 0
M  V30 11 C 0.4674 0.4301 4.6449 0
M  V30 12 C 0.8297 1.1877 2.2587 0
M  V30 13 C -0.1935 0.8103 1.1646 0
M  V30 14 C 0.457 0.8379 -0.2264 0
M  V30 15 C -0.8333 -0.5699 1.3752 0
M  V30 16 C 1.3946 -0.3495 -0.468 0
M  V30 17 C 0.1421 -1.7163 1.1038 0
M  V30 18 N 0.7096 -1.6298 -0.2498 0
M  V30 19 C 1.5891 -2.7928 -0.5062 0
M  V30 20 C 2.0662 -2.9518 -1.9628 0
M  V30 21 O 0.9324 -3.1672 -2.8146 0
M  V30 22 C 1.12 -2.6267 -4.0627 0
M  V30 23 C 0.2502 -1.6036 -4.5002 0
M  V30 24 C 2.1168 -3.1288 -4.899 0
M  V30 25 C 0.4183 -1.055 -5.787 0
M  V30 26 C -0.7872 -1.0823 -3.7087 0
M  V30 27 C 2.2769 -2.5863 -6.1679 0
M  V30 28 N -0.3629 -0.0677 -6.2628 0
M  V30 29 C 1.4323 -1.5567 -6.5934 0
M  V30 30 C -1.5983 -0.0657 -4.1982 0
M  V30 31 C -1.3554 0.4139 -5.4765 0
M  V30 32 C -2.2079 1.5095 -6.0429 0
M  V30 33 H -2.3175 4.315 4.6768 0
M  V30 34 H -2.7746 2.8791 8.4901 0
M  V30 35 H -1.1705 3.5938 8.2939 0
M  V30 36 H -0.8089 3.1951 3.1237 0
M  V30 37 H 0.0889 -0.1469 6.6881 0
M  V30 38 H 1.1006 -0.4341 4.4561 0
M  V30 39 H 1.3184 2.1342 1.9906 0
M  V30 40 H 1.6389 0.4503 2.3118 0
M  V30 41 H -0.9961 1.5596 1.1717 0
M  V30 42 H 1.0057 1.776 -0.3725 0
M  V30 43 H -0.3354 0.8232 -0.9867 0
M  V30 44 H -1.2433 -0.6648 2.3865 0
M  V30 45 H -1.6887 -0.6676 0.6927 0
M  V30 46 H 1.7397 -0.2734 -1.5044 0
M  V30 47 H 2.2813 -0.2671 0.1722 0
M  V30 48 H -0.4132 -2.6564 1.2099 0
M  V30 49 H 0.9355 -1.7271 1.8613 0
M  V30 50 H 1.0292 -3.7039 -0.2576 0
M  V30 51 H 2.4647 -2.757 0.1542 0
M  V30 52 H 2.6658 -2.0857 -2.2697 0
M  V30 53 H 2.7069 -3.8396 -2.0251 0
M  V30 54 H 2.755 -3.9441 -4.5731 0
M  V30 55 H -0.961 -1.4696 -2.7066 0
M  V30 56 H 3.0487 -2.9638 -6.8331 0
M  V30 57 H 1.5614 -1.1371 -7.5887 0
M  V30 58 H -2.4002 0.337 -3.5889 0
M  V30 59 H -1.8845 1.7711 -7.0556 0
M  V30 60 H -2.1347 2.4062 -5.4197 0
M  V30 61 H -3.2532 1.1887 -6.0912 0
M  V30 END ATOM
M  V30 BEGIN BOND
M  V30 1 2 1 2
M  V30 2 1 2 3
M  V30 3 1 2 4
M  V30 4 1 3 5
M  V30 5 1 4 6
M  V30 6 2 5 7
M  V30 7 1 5 8
M  V30 8 1 7 9
M  V30 9 2 8 10
M  V30 10 2 9 11
M  V30 11 1 10 12
M  V30 12 1 12 13
M  V30 13 1 13 14
M  V30 14 1 13 15
M  V30 15 1 14 16
M  V30 16 1 15 17
M  V30 17 1 16 18
M  V30 18 1 18 19
M  V30 19 1 19 20
M  V30 20 1 20 21
M  V30 21 1 21 22
M  V30 22 1 22 23
M  V30 23 2 22 24
M  V30 24 1 23 25
M  V30 25 2 23 26
M  V30 26 1 24 27
M  V30 27 2 25 28
M  V30 28 1 25 29
M  V30 29 1 26 30
M  V30 30 1 28 31
M  V30 31 1 31 32
M  V30 32 1 6 7
M  V30 33 1 10 11
M  V30 34 1 17 18
M  V30 35 2 27 29
M  V30 36 2 30 31
M  V30 37 1 3 33
M  V30 38 1 4 34
M  V30 39 1 4 35
M  V30 40 1 8 36
M  V30 41 1 9 37
M  V30 42 1 11 38
M  V30 43 1 12 39
M  V30 44 1 12 40
M  V30 45 1 13 41
M  V30 46 1 14 42
M  V30 47 1 14 43
M  V30 48 1 15 44
M  V30 49 1 15 45
M  V30 50 1 16 46
M  V30 51 1 16 47
M  V30 52 1 17 48
M  V30 53 1 17 49
M  V30 54 1 19 50
M  V30 55 1 19 51
M  V30 56 1 20 52
M  V30 57 1 20 53
M  V30 58 1 24 54
M  V30 59 1 26 55
M  V30 60 1 27 56
M  V30 61 1 29 57
M  V30 62 1 30 58
M  V30 63 1 32 59
M  V30 64 1 32 60
M  V30 65 1 32 61
M  V30 END BOND
M  V30 END CTAB
M  END
>  <NO.>
319

>  <Name>
sb 649915

>  <SMILES>
Cc1ccc2c(OCCN3CCC(Cc4ccc5c(c4)NC(=O)CO5)CC3)cccc2n1

>  <logBB>
-0.39

>  <Class>
1

>  <MW>
431.22

>  <nHBAcc>
5

>  <nHBDon>
1

>  <SLogP>
4.21

>  <TopoPSA>
63.69

>  <MMFF94 Energy>
109.42

$$$$
CC(C)(C)/[N+]([O-])=C/c1cc[n+]([O-])cc1
Actelion Java MolfileCreator 2.0

  0  0  0  0  0  0              0 V3000
M  V30 BEGIN CTAB
M  V30 COUNTS 28 28 0 0 0
M  V30 BEGIN ATOM
M  V30 1 O -0.8618 2.6658 5.0226 0 CHG=-1
M  V30 2 N -0.6792 2.0202 3.9486 0 CHG=1
M  V30 3 C -0.0344 2.598 2.8707 0
M  V30 4 C -1.1126 0.712 3.8285 0
M  V30 5 C 0.1802 1.8945 1.6834 0
M  V30 6 C -0.9145 -0.0175 2.6555 0
M  V30 7 C -0.2753 0.5831 1.5698 0
M  V30 8 C -0.0811 -0.2613 0.379 0
M  V30 9 N 0.0889 0.1626 -0.8598 0 CHG=1
M  V30 10 O 0.0622 1.4113 -1.1225 0 CHG=-1
M  V30 11 C 0.2871 -0.8054 -2.01 0
M  V30 12 C -0.976 -1.6611 -2.1263 0
M  V30 13 C 0.4954 -0.0112 -3.3082 0
M  V30 14 C 1.5363 -1.6398 -1.7164 0
M  V30 15 H 0.2768 3.6157 3.0503 0
M  V30 16 H -1.6006 0.3398 4.7164 0
M  V30 17 H 0.7103 2.3938 0.8777 0
M  V30 18 H -1.2718 -1.0425 2.6055 0
M  V30 19 H -0.1028 -1.3519 0.5258 0
M  V30 20 H -1.1327 -2.2924 -1.2456 0
M  V30 21 H -0.9159 -2.3277 -2.9939 0
M  V30 22 H -1.8684 -1.0357 -2.2444 0
M  V30 23 H -0.3729 0.6152 -3.5433 0
M  V30 24 H 1.3734 0.6421 -3.2452 0
M  V30 25 H 0.6496 -0.6868 -4.1574 0
M  V30 26 H 1.7715 -2.2981 -2.5603 0
M  V30 27 H 2.4073 -0.9991 -1.5373 0
M  V30 28 H 1.4127 -2.2793 -0.8364 0
M  V30 END ATOM
M  V30 BEGIN BOND
M  V30 1 1 1 2
M  V30 2 2 2 3
M  V30 3 1 2 4
M  V30 4 1 3 5
M  V30 5 2 4 6
M  V30 6 2 5 7
M  V30 7 1 7 8
M  V30 8 2 8 9
M  V30 9 1 9 10
M  V30 10 1 9 11
M  V30 11 1 11 12
M  V30 12 1 11 13
M  V30 13 1 11 14
M  V30 14 1 6 7
M  V30 15 1 3 15
M  V30 16 1 4 16
M  V30 17 1 5 17
M  V30 18 1 6 18
M  V30 19 1 8 19
M  V30 20 1 12 20
M  V30 21 1 12 21
M  V30 22 1 12 22
M  V30 23 1 13 23
M  V30 24 1 13 24
M  V30 25 1 13 25
M  V30 26 1 14 26
M  V30 27 1 14 27
M  V30 28 1 14 28
M  V30 END BOND
M  V30 END CTAB
M  END
>  <NO.>
320

>  <Name>
alpha-(4-pyridyl-1-oxide)-n-tert-butylnitrone

>  <SMILES>
CC(C)(C)/[N+]([O-])=C/c1cc[n+]([O-])cc1

>  <logBB>
-0.38

>  <Class>
1

>  <MW>
194.11

>  <nHBAcc>
2

>  <nHBDon>
0

>  <SLogP>
1.05

>  <TopoPSA>
53.01

>  <MMFF94 Energy>
28.302

$$$$
CC(C)(C)[N+](=O)C=C1C=CN([O-])C=C1
Actelion Java MolfileCreator 2.0

  0  0  0  0  0  0              0 V3000
M  V30 BEGIN CTAB
M  V30 COUNTS 28 28 0 0 0
M  V30 BEGIN ATOM
M  V30 1 O 1.7391 0.7902 1.8974 0
M  V30 2 N 0.5245 0.3859 1.2493 0 CHG=1
M  V30 3 C 0.487 -0.9705 0.7772 0
M  V30 4 C -0.6958 1.2379 1.3433 0
M  V30 5 C 0.8379 -1.2319 -0.4937 0
M  V30 6 C -1.2104 1.0978 2.7759 0
M  V30 7 C -1.7557 0.7987 0.332 0
M  V30 8 C -0.2559 2.6743 1.05 0
M  V30 9 C 0.6907 -2.615 -0.982 0
M  V30 10 C 1.3367 -0.214 -1.435 0
M  V30 11 C 0.9078 -2.8547 -2.2884 0
M  V30 12 C 1.5236 -0.5754 -2.7184 0
M  V30 13 N 1.2903 -1.8611 -3.1691 0
M  V30 14 O 1.482 -2.1727 -4.5418 0 CHG=-1
M  V30 15 H 0.1256 -1.7197 1.4666 0
M  V30 16 H -1.4832 0.0607 3.0025 0
M  V30 17 H -2.098 1.7199 2.9363 0
M  V30 18 H -0.4537 1.4028 3.5078 0
M  V30 19 H -2.6382 1.4465 0.3935 0
M  V30 20 H -2.0997 -0.2257 0.5126 0
M  V30 21 H -1.3843 0.8549 -0.6966 0
M  V30 22 H -1.1104 3.3597 1.0824 0
M  V30 23 H 0.4781 3.034 1.7798 0
M  V30 24 H 0.2015 2.7553 0.0575 0
M  V30 25 H 0.3963 -3.4144 -0.3169 0
M  V30 26 H 1.5608 0.7943 -1.1177 0
M  V30 27 H 0.8037 -3.838 -2.732 0
M  V30 28 H 1.8829 0.1114 -3.476 0
M  V30 END ATOM
M  V30 BEGIN BOND
M  V30 1 2 1 2
M  V30 2 1 2 3
M  V30 3 1 2 4
M  V30 4 2 3 5
M  V30 5 1 4 6
M  V30 6 1 4 7
M  V30 7 1 4 8
M  V30 8 1 5 9
M  V30 9 1 5 10
M  V30 10 2 9 11
M  V30 11 2 10 12
M  V30 12 1 11 13
M  V30 13 1 13 14
M  V30 14 1 12 13
M  V30 15 1 3 15
M  V30 16 1 6 16
M  V30 17 1 6 17
M  V30 18 1 6 18
M  V30 19 1 7 19
M  V30 20 1 7 20
M  V30 21 1 7 21
M  V30 22 1 8 22
M  V30 23 1 8 23
M  V30 24 1 8 24
M  V30 25 1 9 25
M  V30 26 1 10 26
M  V30 27 1 11 27
M  V30 28 1 12 28
M  V30 END BOND
M  V30 END CTAB
M  END
>  <NO.>
322

>  <Name>
alpha-(4-pyridyl-1-oxide)-n-tert-butylnitrone

>  <SMILES>
CC(C)(C)[N+](=O)C=C1C=CN([O-])C=C1

>  <logBB>
-0.38

>  <Class>
1

>  <MW>
194.11

>  <nHBAcc>
3

>  <nHBDon>
0

>  <SLogP>
2.29

>  <TopoPSA>
46.38

>  <MMFF94 Energy>
8.9912

$$$$
CN(C)CCC[C@@]1(c2ccc(F)cc2)OCc2cc(C#N)ccc21
Actelion Java MolfileCreator 2.0

  0  0  0  0  0  0              0 V3000
M  V30 BEGIN CTAB
M  V30 COUNTS 45 47 0 0 0
M  V30 BEGIN ATOM
M  V30 1 F 4.7244 2.4802 1.2795 0
M  V30 2 C 3.5467 1.8479 1.1954 0
M  V30 3 C 2.3699 2.5737 1.2998 0
M  V30 4 C 3.5196 0.4734 1.0045 0
M  V30 5 C 1.1448 1.9102 1.2104 0
M  V30 6 C 2.2927 -0.1915 0.9141 0
M  V30 7 C 1.0789 0.5131 1.016 0
M  V30 8 C -0.2934 -0.1652 0.9017 0 CFG=2
M  V30 9 O -1.0871 0.3356 2.0369 0
M  V30 10 C -0.3292 -1.6564 1.1504 0
M  V30 11 C -1.0783 0.2943 -0.3533 0
M  V30 12 C -1.0545 -0.6081 3.1215 0
M  V30 13 C -0.7769 -1.897 2.4471 0
M  V30 14 C 0.0101 -2.7245 0.3292 0
M  V30 15 C -0.382 0.0902 -1.7061 0
M  V30 16 C -0.8928 -3.181 2.9608 0
M  V30 17 C -0.1081 -4.0284 0.8251 0
M  V30 18 C -1.1612 0.7175 -2.8751 0
M  V30 19 C -0.5583 -4.2591 2.1362 0
M  V30 20 N -1.3701 2.1695 -2.76 0
M  V30 21 C -0.6688 -5.6011 2.629 0
M  V30 22 C -2.2983 2.6275 -3.7974 0
M  V30 23 C -0.1149 2.918 -2.8554 0
M  V30 24 N -0.7562 -6.6876 3.0275 0
M  V30 25 H 2.4086 3.6475 1.4514 0
M  V30 26 H 4.4532 -0.0747 0.9278 0
M  V30 27 H 0.2263 2.4901 1.2976 0
M  V30 28 H 2.311 -1.2673 0.766 0
M  V30 29 H -1.3217 1.3587 -0.2348 0
M  V30 30 H -2.0545 -0.2104 -0.3754 0
M  V30 31 H -2.0247 -0.5956 3.6247 0
M  V30 32 H -0.2562 -0.332 3.8169 0
M  V30 33 H 0.3834 -2.5732 -0.6774 0
M  V30 34 H 0.6384 0.4846 -1.687 0
M  V30 35 H -0.2947 -0.9783 -1.9185 0
M  V30 36 H -1.2388 -3.3396 3.9791 0
M  V30 37 H 0.159 -4.8669 0.1835 0
M  V30 38 H -0.647 0.4772 -3.815 0
M  V30 39 H -2.1377 0.2168 -2.9168 0
M  V30 40 H -3.2648 2.1199 -3.7018 0
M  V30 41 H -1.9111 2.4476 -4.8069 0
M  V30 42 H -2.499 3.6994 -3.6898 0
M  V30 43 H 0.4168 2.715 -3.7918 0
M  V30 44 H 0.5509 2.6861 -2.0187 0
M  V30 45 H -0.3053 3.996 -2.7969 0
M  V30 END ATOM
M  V30 BEGIN BOND
M  V30 1 1 1 2
M  V30 2 2 2 3
M  V30 3 1 2 4
M  V30 4 1 3 5
M  V30 5 2 4 6
M  V30 6 2 5 7
M  V30 7 1 7 8
M  V30 8 1 8 9
M  V30 9 1 8 10
M  V30 10 1 8 11
M  V30 11 1 9 12
M  V30 12 2 10 13
M  V30 13 1 10 14
M  V30 14 1 11 15
M  V30 15 1 13 16
M  V30 16 2 14 17
M  V30 17 1 15 18
M  V30 18 2 16 19
M  V30 19 1 18 20
M  V30 20 1 19 21
M  V30 21 1 20 22
M  V30 22 1 20 23
M  V30 23 3 21 24
M  V30 24 1 6 7
M  V30 25 1 12 13
M  V30 26 1 17 19
M  V30 27 1 3 25
M  V30 28 1 4 26
M  V30 29 1 5 27
M  V30 30 1 6 28
M  V30 31 1 11 29
M  V30 32 1 11 30
M  V30 33 1 12 31
M  V30 34 1 12 32
M  V30 35 1 14 33
M  V30 36 1 15 34
M  V30 37 1 15 35
M  V30 38 1 16 36
M  V30 39 1 17 37
M  V30 40 1 18 38
M  V30 41 1 18 39
M  V30 42 1 22 40
M  V30 43 1 22 41
M  V30 44 1 22 42
M  V30 45 1 23 43
M  V30 46 1 23 44
M  V30 47 1 23 45
M  V30 END BOND
M  V30 BEGIN COLLECTION
M  V30 MDLV30/STEABS ATOMS=(1 8)
M  V30 END COLLECTION
M  V30 END CTAB
M  END
>  <NO.>
324

>  <Name>
escitalopram

>  <SMILES>
CN(C)CCC[C@@]1(c2ccc(F)cc2)OCc2cc(C#N)ccc21

>  <logBB>
-0.37

>  <Class>
1

>  <MW>
324.16

>  <nHBAcc>
3

>  <nHBDon>
0

>  <SLogP>
3.81

>  <TopoPSA>
36.26

>  <MMFF94 Energy>
87.585

$$$$
COc1ccc(N(c2nc(C)c(C)s2)S(C)(=O)=O)cc1CNC1CCCNC1c1ccccc1
Actelion Java MolfileCreator 2.0

  0  0  0  0  0  0              0 V3000
M  V30 BEGIN CTAB
M  V30 COUNTS 66 69 0 0 0
M  V30 BEGIN ATOM
M  V30 1 S 1.2135 -1.5373 3.3196 0
M  V30 2 O 0.8475 -2.2678 4.5189 0
M  V30 3 O 0.9556 -2.1053 2.011 0
M  V30 4 N 0.6212 0.0562 3.4361 0
M  V30 5 C 2.9658 -1.2457 3.4362 0
M  V30 6 C 0.9615 0.9633 2.3717 0
M  V30 7 C -0.8104 0.0319 3.7618 0
M  V30 8 C 0.6116 0.7535 1.0384 0
M  V30 9 C 1.6543 2.124 2.7153 0
M  V30 10 S -1.3631 0.1801 5.3759 0
M  V30 11 N -1.7466 -0.0338 2.8453 0
M  V30 12 C 0.9966 1.6611 0.0317 0
M  V30 13 C 2.0312 3.0429 1.7299 0
M  V30 14 C -2.9843 0.0941 4.8198 0
M  V30 15 C -2.9981 -8.0E-4 3.4378 0
M  V30 16 C 1.7188 2.8148 0.3848 0
M  V30 17 C 0.637 1.3301 -1.4018 0
M  V30 18 C -4.1145 0.1457 5.7848 0
M  V30 19 C -4.1917 -0.0719 2.5552 0
M  V30 20 O 2.0514 3.6601 -0.6393 0
M  V30 21 N 1.507 0.2658 -1.9178 0
M  V30 22 C 2.9183 4.7462 -0.343 0
M  V30 23 C 1.0734 -0.1928 -3.2559 0
M  V30 24 C 0.4773 -1.6472 -3.2696 0
M  V30 25 C 2.3186 -0.1385 -4.1572 0
M  V30 26 N 0.222 -2.1248 -4.6438 0
M  V30 27 C -0.8009 -1.7421 -2.4455 0
M  V30 28 C 2.0162 -0.6967 -5.5441 0
M  V30 29 C 1.434 -2.1032 -5.4568 0
M  V30 30 C -0.7793 -2.3383 -1.1749 0
M  V30 31 C -2.0139 -1.2129 -2.9169 0
M  V30 32 C -1.9358 -2.3949 -0.3949 0
M  V30 33 C -3.1717 -1.2801 -2.1402 0
M  V30 34 C -3.1315 -1.8702 -0.8791 0
M  V30 35 H 3.3051 -0.6929 2.5591 0
M  V30 36 H 3.4642 -2.2173 3.4685 0
M  V30 37 H 3.1747 -0.6961 4.3561 0
M  V30 38 H 0.0261 -0.1216 0.763 0
M  V30 39 H 1.9076 2.3227 3.7536 0
M  V30 40 H 2.5663 3.9319 2.0474 0
M  V30 41 H 0.7156 2.2176 -2.0393 0
M  V30 42 H -0.4169 1.0271 -1.4241 0
M  V30 43 H -5.0275 -0.2679 5.3449 0
M  V30 44 H -3.8956 -0.4327 6.6884 0
M  V30 45 H -4.3176 1.1811 6.0768 0
M  V30 46 H -4.9677 0.6238 2.889 0
M  V30 47 H -4.6047 -1.085 2.5588 0
M  V30 48 H -3.9295 0.1896 1.5255 0
M  V30 49 H 1.4631 -0.5161 -1.2657 0
M  V30 50 H 2.4295 5.4686 0.3186 0
M  V30 51 H 3.1456 5.2583 -1.2829 0
M  V30 52 H 3.8646 4.3959 0.0821 0
M  V30 53 H 0.3303 0.4986 -3.6787 0
M  V30 54 H 1.2162 -2.3283 -2.8228 0
M  V30 55 H 3.1364 -0.7201 -3.7106 0
M  V30 56 H 2.6759 0.8945 -4.2509 0
M  V30 57 H -0.1353 -3.0785 -4.5872 0
M  V30 58 H 1.3113 -0.0336 -6.0615 0
M  V30 59 H 2.9349 -0.7144 -6.1412 0
M  V30 60 H 1.1883 -2.4521 -6.4656 0
M  V30 61 H 2.1772 -2.7995 -5.0499 0
M  V30 62 H 0.1423 -2.7492 -0.7672 0
M  V30 63 H -2.0575 -0.7456 -3.8988 0
M  V30 64 H -1.895 -2.8394 0.5971 0
M  V30 65 H -4.1028 -0.8686 -2.5195 0
M  V30 66 H -4.0296 -1.9179 -0.2704 0
M  V30 END ATOM
M  V30 BEGIN BOND
M  V30 1 2 1 2
M  V30 2 2 1 3
M  V30 3 1 1 4
M  V30 4 1 1 5
M  V30 5 1 4 6
M  V30 6 1 4 7
M  V30 7 2 6 8
M  V30 8 1 6 9
M  V30 9 1 7 10
M  V30 10 2 7 11
M  V30 11 1 8 12
M  V30 12 2 9 13
M  V30 13 1 10 14
M  V30 14 1 11 15
M  V30 15 2 12 16
M  V30 16 1 12 17
M  V30 17 1 14 18
M  V30 18 1 15 19
M  V30 19 1 16 20
M  V30 20 1 17 21
M  V30 21 1 20 22
M  V30 22 1 21 23
M  V30 23 1 23 24
M  V30 24 1 23 25
M  V30 25 1 24 26
M  V30 26 1 24 27
M  V30 27 1 25 28
M  V30 28 1 26 29
M  V30 29 2 27 30
M  V30 30 1 27 31
M  V30 31 1 30 32
M  V30 32 2 31 33
M  V30 33 2 32 34
M  V30 34 1 13 16
M  V30 35 2 14 15
M  V30 36 1 28 29
M  V30 37 1 33 34
M  V30 38 1 5 35
M  V30 39 1 5 36
M  V30 40 1 5 37
M  V30 41 1 8 38
M  V30 42 1 9 39
M  V30 43 1 13 40
M  V30 44 1 17 41
M  V30 45 1 17 42
M  V30 46 1 18 43
M  V30 47 1 18 44
M  V30 48 1 18 45
M  V30 49 1 19 46
M  V30 50 1 19 47
M  V30 51 1 19 48
M  V30 52 1 21 49
M  V30 53 1 22 50
M  V30 54 1 22 51
M  V30 55 1 22 52
M  V30 56 1 23 53
M  V30 57 1 24 54
M  V30 58 1 25 55
M  V30 59 1 25 56
M  V30 60 1 26 57
M  V30 61 1 28 58
M  V30 62 1 28 59
M  V30 63 1 29 60
M  V30 64 1 29 61
M  V30 65 1 30 62
M  V30 66 1 31 63
M  V30 67 1 32 64
M  V30 68 1 33 65
M  V30 69 1 34 66
M  V30 END BOND
M  V30 END CTAB
M  END
>  <NO.>
326

>  <Name>
pfizer compound 18

>  <SMILES>
COc1ccc(N(c2nc(C)c(C)s2)S(C)(=O)=O)cc1CNC1CCCNC1c1ccccc1

>  <logBB>
-0.37

>  <Class>
1

>  <MW>
500.19

>  <nHBAcc>
7

>  <nHBDon>
2

>  <SLogP>
4.45

>  <TopoPSA>
83.56

>  <MMFF94 Energy>
30.265

$$$$
O=C(OCc1ccccc1)N1CCC(CNc2ncccn2)CC1
Actelion Java MolfileCreator 2.0

  0  0  0  0  0  0              0 V3000
M  V30 BEGIN CTAB
M  V30 COUNTS 46 48 0 0 0
M  V30 BEGIN ATOM
M  V30 1 O 3.3261 1.5036 0.1581 0
M  V30 2 C 2.6334 0.5594 -0.2035 0
M  V30 3 O 2.8054 -0.0814 -1.3881 0
M  V30 4 N 1.5958 0.0284 0.541 0
M  V30 5 C 3.8669 0.4454 -2.1849 0
M  V30 6 C 0.8048 -1.1252 0.1262 0
M  V30 7 C 1.2968 0.571 1.8582 0
M  V30 8 C 3.9281 -0.3568 -3.4593 0
M  V30 9 C -0.6884 -0.8243 0.2271 0
M  V30 10 C -0.1876 0.9008 1.9916 0
M  V30 11 C 4.7461 -1.4918 -3.548 0
M  V30 12 C 3.1361 -0.0025 -4.5606 0
M  V30 13 C -1.0661 -0.3112 1.628 0
M  V30 14 C 4.7873 -2.2441 -4.723 0
M  V30 15 C 3.1787 -0.7561 -5.7347 0
M  V30 16 C -2.5624 0.0376 1.6788 0
M  V30 17 C 4.0058 -1.8747 -5.8163 0
M  V30 18 N -2.9764 0.2879 3.0346 0
M  V30 19 C -4.2541 0.6698 3.3337 0
M  V30 20 N -5.1467 0.8748 2.3542 0
M  V30 21 N -4.5303 0.8139 4.637 0
M  V30 22 C -6.385 1.2508 2.7245 0
M  V30 23 C -5.7822 1.1912 4.9582 0
M  V30 24 C -6.7649 1.4273 4.0307 0
M  V30 25 H 4.8203 0.3684 -1.6476 0
M  V30 26 H 3.6812 1.5011 -2.4188 0
M  V30 27 H 1.0438 -1.4376 -0.8939 0
M  V30 28 H 1.071 -1.9561 0.7903 0
M  V30 29 H 1.5861 -0.1863 2.5965 0
M  V30 30 H 1.8922 1.4669 2.061 0
M  V30 31 H -1.258 -1.7307 -0.0089 0
M  V30 32 H -0.9555 -0.0699 -0.5243 0
M  V30 33 H -0.43 1.7411 1.3281 0
M  V30 34 H -0.3907 1.2311 3.0165 0
M  V30 35 H 5.3538 -1.7972 -2.6991 0
M  V30 36 H 2.4786 0.8624 -4.5065 0
M  V30 37 H -0.8649 -1.1131 2.3522 0
M  V30 38 H 5.4269 -3.1207 -4.7838 0
M  V30 39 H 2.5635 -0.472 -6.5844 0
M  V30 40 H -3.1429 -0.8002 1.2729 0
M  V30 41 H -2.7577 0.9138 1.0474 0
M  V30 42 H 4.0375 -2.4617 -6.7302 0
M  V30 43 H -2.3901 0.1171 3.8353 0
M  V30 44 H -7.083 1.4106 1.9084 0
M  V30 45 H -5.9734 1.3008 6.0214 0
M  V30 46 H -7.7638 1.73 4.3084 0
M  V30 END ATOM
M  V30 BEGIN BOND
M  V30 1 2 1 2
M  V30 2 1 2 3
M  V30 3 1 2 4
M  V30 4 1 3 5
M  V30 5 1 4 6
M  V30 6 1 4 7
M  V30 7 1 5 8
M  V30 8 1 6 9
M  V30 9 1 7 10
M  V30 10 2 8 11
M  V30 11 1 8 12
M  V30 12 1 9 13
M  V30 13 1 11 14
M  V30 14 2 12 15
M  V30 15 1 13 16
M  V30 16 2 14 17
M  V30 17 1 16 18
M  V30 18 1 18 19
M  V30 19 2 19 20
M  V30 20 1 19 21
M  V30 21 1 20 22
M  V30 22 2 21 23
M  V30 23 2 22 24
M  V30 24 1 10 13
M  V30 25 1 15 17
M  V30 26 1 23 24
M  V30 27 1 5 25
M  V30 28 1 5 26
M  V30 29 1 6 27
M  V30 30 1 6 28
M  V30 31 1 7 29
M  V30 32 1 7 30
M  V30 33 1 9 31
M  V30 34 1 9 32
M  V30 35 1 10 33
M  V30 36 1 10 34
M  V30 37 1 11 35
M  V30 38 1 12 36
M  V30 39 1 13 37
M  V30 40 1 14 38
M  V30 41 1 15 39
M  V30 42 1 16 40
M  V30 43 1 16 41
M  V30 44 1 17 42
M  V30 45 1 18 43
M  V30 46 1 22 44
M  V30 47 1 23 45
M  V30 48 1 24 46
M  V30 END BOND
M  V30 END CTAB
M  END
>  <NO.>
327

>  <Name>
liv-20a

>  <SMILES>
O=C(OCc1ccccc1)N1CCC(CNc2ncccn2)CC1

>  <logBB>
-0.37

>  <Class>
1

>  <MW>
326.17

>  <nHBAcc>
5

>  <nHBDon>
1

>  <SLogP>
2.94

>  <TopoPSA>
67.35

>  <MMFF94 Energy>
-115.59

$$$$
CC(=O)C1CSc2ccccc2N1CCC1CCCCN1C
Actelion Java MolfileCreator 2.0

  0  0  0  0  0  0              0 V3000
M  V30 BEGIN CTAB
M  V30 COUNTS 48 50 0 0 0
M  V30 BEGIN ATOM
M  V30 1 S 0.8035 2.7341 -1.688 0
M  V30 2 C 1.8387 1.3061 -1.3301 0
M  V30 3 C -0.798 1.9187 -1.986 0
M  V30 4 C 1.3926 -0.0378 -1.3897 0
M  V30 5 C 3.1625 1.6007 -0.9602 0
M  V30 6 C -0.599 0.5636 -2.6574 0
M  V30 7 N 0.0841 -0.3861 -1.7486 0
M  V30 8 C 2.3338 -1.0409 -1.0942 0
M  V30 9 C 4.0619 0.5831 -0.6546 0
M  V30 10 C -1.929 0.0334 -3.1972 0
M  V30 11 C -0.6525 -1.4055 -0.9812 0
M  V30 12 C 3.6482 -0.739 -0.7264 0
M  V30 13 O -3.0204 0.3516 -2.7212 0
M  V30 14 C -1.8458 -0.9147 -4.3679 0
M  V30 15 C -1.4703 -0.8404 0.1901 0
M  V30 16 C -0.6637 -0.2424 1.3713 0
M  V30 17 N -1.5491 0.316 2.4362 0
M  V30 18 C 0.2375 -1.3308 1.9986 0
M  V30 19 C -0.7533 0.8911 3.538 0
M  V30 20 C -2.4608 1.3509 1.9351 0
M  V30 21 C 1.0564 -0.7987 3.1678 0
M  V30 22 C 0.1442 -0.1517 4.1944 0
M  V30 23 H -1.3977 2.585 -2.6155 0
M  V30 24 H -1.3166 1.8285 -1.0281 0
M  V30 25 H 3.5014 2.6333 -0.9063 0
M  V30 26 H 0.0243 0.7057 -3.5534 0
M  V30 27 H 2.0622 -2.0899 -1.1739 0
M  V30 28 H 5.0824 0.8243 -0.3701 0
M  V30 29 H -0.0025 -2.2136 -0.6352 0
M  V30 30 H -1.3504 -1.915 -1.6555 0
M  V30 31 H 4.3466 -1.5419 -0.5052 0
M  V30 32 H -1.1756 -1.7443 -4.1314 0
M  V30 33 H -2.8384 -1.319 -4.5844 0
M  V30 34 H -1.4812 -0.3767 -5.2463 0
M  V30 35 H -2.1043 -1.6498 0.5769 0
M  V30 36 H -2.1564 -0.0955 -0.2186 0
M  V30 37 H -0.0297 0.5675 0.9921 0
M  V30 38 H -0.3803 -2.171 2.3425 0
M  V30 39 H 0.9354 -1.7381 1.2639 0
M  V30 40 H -1.4225 1.2857 4.3129 0
M  V30 41 H -0.1438 1.7309 3.1783 0
M  V30 42 H -3.2183 0.9293 1.2683 0
M  V30 43 H -1.9274 2.1518 1.4116 0
M  V30 44 H -3.0259 1.8023 2.7595 0
M  V30 45 H 1.6246 -1.6132 3.6302 0
M  V30 46 H 1.7843 -0.0641 2.8022 0
M  V30 47 H -0.4728 -0.9201 4.677 0
M  V30 48 H 0.7449 0.317 4.982 0
M  V30 END ATOM
M  V30 BEGIN BOND
M  V30 1 1 1 2
M  V30 2 1 1 3
M  V30 3 2 2 4
M  V30 4 1 2 5
M  V30 5 1 3 6
M  V30 6 1 4 7
M  V30 7 1 4 8
M  V30 8 2 5 9
M  V30 9 1 6 10
M  V30 10 1 7 11
M  V30 11 2 8 12
M  V30 12 2 10 13
M  V30 13 1 10 14
M  V30 14 1 11 15
M  V30 15 1 15 16
M  V30 16 1 16 17
M  V30 17 1 16 18
M  V30 18 1 17 19
M  V30 19 1 17 20
M  V30 20 1 18 21
M  V30 21 1 19 22
M  V30 22 1 6 7
M  V30 23 1 9 12
M  V30 24 1 21 22
M  V30 25 1 3 23
M  V30 26 1 3 24
M  V30 27 1 5 25
M  V30 28 1 6 26
M  V30 29 1 8 27
M  V30 30 1 9 28
M  V30 31 1 11 29
M  V30 32 1 11 30
M  V30 33 1 12 31
M  V30 34 1 14 32
M  V30 35 1 14 33
M  V30 36 1 14 34
M  V30 37 1 15 35
M  V30 38 1 15 36
M  V30 39 1 16 37
M  V30 40 1 18 38
M  V30 41 1 18 39
M  V30 42 1 19 40
M  V30 43 1 19 41
M  V30 44 1 20 42
M  V30 45 1 20 43
M  V30 46 1 20 44
M  V30 47 1 21 45
M  V30 48 1 21 46
M  V30 49 1 22 47
M  V30 50 1 22 48
M  V30 END BOND
M  V30 END CTAB
M  END
>  <NO.>
328

>  <Name>
mesoridazine

>  <SMILES>
CC(=O)C1CSc2ccccc2N1CCC1CCCCN1C

>  <logBB>
-0.36

>  <Class>
1

>  <MW>
318.18

>  <nHBAcc>
4

>  <nHBDon>
0

>  <SLogP>
3.43

>  <TopoPSA>
23.55

>  <MMFF94 Energy>
94.184

$$$$
CC(=O)O[C@H]1Cc2ccccc2[C@@H](C(N)=O)c2ccccc21
Actelion Java MolfileCreator 2.0

  0  0  0  0  0  0              0 V3000
M  V30 BEGIN CTAB
M  V30 COUNTS 39 41 0 0 0
M  V30 BEGIN ATOM
M  V30 1 O 4.012 0.5609 -0.4807 0
M  V30 2 C 2.9801 0.8442 -1.0859 0
M  V30 3 N 3.0841 1.383 -2.3422 0
M  V30 4 C 1.5377 0.6295 -0.558 0 CFG=1
M  V30 5 C 1.1118 -0.8451 -0.6069 0
M  V30 6 C 1.1874 1.3413 0.7601 0
M  V30 7 C -0.2638 -1.1772 -0.7058 0
M  V30 8 C 2.0533 -1.8893 -0.5473 0
M  V30 9 C -0.1202 1.3272 1.3139 0
M  V30 10 C 2.1707 2.1039 1.4319 0
M  V30 11 C -0.6395 -2.5285 -0.7983 0
M  V30 12 C -1.2988 -0.066 -0.6113 0 CFG=2
M  V30 13 C 1.6592 -3.224 -0.6368 0
M  V30 14 C -0.3698 2.0462 2.5082 0
M  V30 15 C -1.3233 0.543 0.8005 0
M  V30 16 C 1.8958 2.8107 2.6047 0
M  V30 17 C 0.3155 -3.5429 -0.7732 0
M  V30 18 O -2.5999 -0.4265 -1.153 0
M  V30 19 C 0.6228 2.7824 3.145 0
M  V30 20 C -3.5664 -0.9917 -0.3884 0
M  V30 21 O -3.476 -1.2979 0.7894 0
M  V30 22 C -4.7961 -1.2125 -1.2166 0
M  V30 23 H 4.0155 1.5239 -2.7117 0
M  V30 24 H 2.2917 1.615 -2.9237 0
M  V30 25 H 0.9381 1.1579 -1.3113 0
M  V30 26 H 3.1155 -1.688 -0.423 0
M  V30 27 H 3.1924 2.167 1.0636 0
M  V30 28 H -1.6836 -2.8189 -0.8646 0
M  V30 29 H -1.0068 0.725 -1.3083 0
M  V30 30 H 2.4054 -4.013 -0.5915 0
M  V30 31 H -1.3616 2.0209 2.9593 0
M  V30 32 H -2.1979 1.2066 0.8534 0
M  V30 33 H -1.4881 -0.2547 1.5366 0
M  V30 34 H 2.6849 3.3762 3.0935 0
M  V30 35 H 0.0063 -4.583 -0.8343 0
M  V30 36 H 0.4027 3.3209 4.0623 0
M  V30 37 H -5.1497 -0.2592 -1.6178 0
M  V30 38 H -4.5766 -1.9136 -2.0256 0
M  V30 39 H -5.5847 -1.6377 -0.5891 0
M  V30 END ATOM
M  V30 BEGIN BOND
M  V30 1 2 1 2
M  V30 2 1 2 3
M  V30 3 1 2 4
M  V30 4 1 4 5
M  V30 5 1 4 6
M  V30 6 2 5 7
M  V30 7 1 5 8
M  V30 8 2 6 9
M  V30 9 1 6 10
M  V30 10 1 7 11
M  V30 11 1 7 12
M  V30 12 2 8 13
M  V30 13 1 9 14
M  V30 14 1 9 15
M  V30 15 2 10 16
M  V30 16 2 11 17
M  V30 17 1 12 18
M  V30 18 2 14 19
M  V30 19 1 18 20
M  V30 20 2 20 21
M  V30 21 1 20 22
M  V30 22 1 12 15
M  V30 23 1 13 17
M  V30 24 1 16 19
M  V30 25 1 3 23
M  V30 26 1 3 24
M  V30 27 1 4 25
M  V30 28 1 8 26
M  V30 29 1 10 27
M  V30 30 1 11 28
M  V30 31 1 12 29
M  V30 32 1 13 30
M  V30 33 1 14 31
M  V30 34 1 15 32
M  V30 35 1 15 33
M  V30 36 1 16 34
M  V30 37 1 17 35
M  V30 38 1 19 36
M  V30 39 1 22 37
M  V30 40 1 22 38
M  V30 41 1 22 39
M  V30 END BOND
M  V30 BEGIN COLLECTION
M  V30 MDLV30/STEABS ATOMS=(2 4 12)
M  V30 END COLLECTION
M  V30 END CTAB
M  END
>  <NO.>
329

>  <Name>
[(2r,9s)-2-carbamoyl-9-tricyclo[9.4.0.03,8]pentadeca-1(15),3,5,7,11,13-hexaenyl] acetate

>  <SMILES>
CC(=O)O[C@H]1Cc2ccccc2[C@@H](C(N)=O)c2ccccc21

>  <logBB>
-0.34

>  <Class>
1

>  <MW>
295.12

>  <nHBAcc>
3

>  <nHBDon>
1

>  <SLogP>
2.46

>  <TopoPSA>
69.39

>  <MMFF94 Energy>
86.84

$$$$
CC1c2ccccc2N(C(N)=O)c2ccccc2C1C
Actelion Java MolfileCreator 2.0

  0  0  0  0  0  0              0 V3000
M  V30 BEGIN CTAB
M  V30 COUNTS 38 40 0 0 0
M  V30 BEGIN ATOM
M  V30 1 O 0.7941 -3.4977 -0.7146 0
M  V30 2 C 1.2786 -2.4915 -0.1993 0
M  V30 3 N 0.559 -1.3951 0.2694 0
M  V30 4 N 2.6358 -2.4153 -0.1024 0
M  V30 5 C -0.8282 -1.3142 0.0039 0
M  V30 6 C 1.1079 -0.3161 1.0147 0
M  V30 7 C -1.288 -0.4054 -0.9661 0
M  V30 8 C -1.7159 -2.1661 0.6703 0
M  V30 9 C 1.0375 1.0324 0.6026 0
M  V30 10 C 1.7717 -0.6448 2.2151 0
M  V30 11 C -2.6626 -0.3629 -1.2401 0
M  V30 12 C -0.2636 0.5037 -1.6264 0
M  V30 13 C -3.0776 -2.1104 0.3844 0
M  V30 14 C 1.7283 1.9912 1.3812 0
M  V30 15 C 0.2613 1.5638 -0.6123 0
M  V30 16 C 2.4169 0.3259 2.9769 0
M  V30 17 C -3.5491 -1.2099 -0.5683 0
M  V30 18 C -0.724 1.1399 -2.9476 0
M  V30 19 C 2.4081 1.6448 2.5498 0
M  V30 20 C -0.8654 2.5044 -0.1295 0
M  V30 21 H 3.1688 -3.1971 -0.454 0
M  V30 22 H 3.1148 -1.5753 0.1819 0
M  V30 23 H -1.3452 -2.8808 1.3996 0
M  V30 24 H 1.7899 -1.6775 2.5597 0
M  V30 25 H -3.0708 0.3277 -1.972 0
M  V30 26 H 0.5869 -0.126 -1.9259 0
M  V30 27 H -3.7678 -2.7747 0.8969 0
M  V30 28 H 1.7301 3.0383 1.0812 0
M  V30 29 H 0.9807 2.1814 -1.1704 0
M  V30 30 H 2.9266 0.0498 3.8959 0
M  V30 31 H -4.612 -1.1686 -0.7935 0
M  V30 32 H -1.5819 1.8073 -2.8273 0
M  V30 33 H 0.0884 1.7232 -3.3944 0
M  V30 34 H -1.0085 0.3655 -3.6691 0
M  V30 35 H 2.9156 2.4108 3.1308 0
M  V30 36 H -1.5703 1.9855 0.5292 0
M  V30 37 H -0.4675 3.354 0.4357 0
M  V30 38 H -1.4277 2.9301 -0.9647 0
M  V30 END ATOM
M  V30 BEGIN BOND
M  V30 1 2 1 2
M  V30 2 1 2 3
M  V30 3 1 2 4
M  V30 4 1 3 5
M  V30 5 1 3 6
M  V30 6 2 5 7
M  V30 7 1 5 8
M  V30 8 2 6 9
M  V30 9 1 6 10
M  V30 10 1 7 11
M  V30 11 1 7 12
M  V30 12 2 8 13
M  V30 13 1 9 14
M  V30 14 1 9 15
M  V30 15 2 10 16
M  V30 16 2 11 17
M  V30 17 1 12 18
M  V30 18 2 14 19
M  V30 19 1 15 20
M  V30 20 1 12 15
M  V30 21 1 13 17
M  V30 22 1 16 19
M  V30 23 1 4 21
M  V30 24 1 4 22
M  V30 25 1 8 23
M  V30 26 1 10 24
M  V30 27 1 11 25
M  V30 28 1 12 26
M  V30 29 1 13 27
M  V30 30 1 14 28
M  V30 31 1 15 29
M  V30 32 1 16 30
M  V30 33 1 17 31
M  V30 34 1 18 32
M  V30 35 1 18 33
M  V30 36 1 18 34
M  V30 37 1 19 35
M  V30 38 1 20 36
M  V30 39 1 20 37
M  V30 40 1 20 38
M  V30 END BOND
M  V30 END CTAB
M  END
>  <NO.>
330

>  <Name>
schembl11119364

>  <SMILES>
CC1c2ccccc2N(C(N)=O)c2ccccc2C1C

>  <logBB>
-0.34

>  <Class>
1

>  <MW>
266.14

>  <nHBAcc>
1

>  <nHBDon>
1

>  <SLogP>
4.12

>  <TopoPSA>
46.33

>  <MMFF94 Energy>
26.581

$$$$
NC(=O)C1c2ccccc2C2OC2c2ccccc21
Actelion Java MolfileCreator 2.0

  0  0  0  0  0  0              0 V3000
M  V30 BEGIN CTAB
M  V30 COUNTS 32 35 0 0 0
M  V30 BEGIN ATOM
M  V30 1 O 1.3795 1.5419 -2.1917 0
M  V30 2 C 1.4124 1.5308 -0.964 0
M  V30 3 N 1.7513 2.6816 -0.3007 0
M  V30 4 C 1.1663 0.2942 -0.0774 0
M  V30 5 C 0.7037 -0.9474 -0.8375 0
M  V30 6 C 0.2463 0.581 1.1123 0
M  V30 7 C -0.5275 -0.9625 -1.5347 0
M  V30 8 C 1.5009 -2.1091 -0.7958 0
M  V30 9 C -1.0931 0.9902 0.9118 0
M  V30 10 C 0.743 0.4045 2.4193 0
M  V30 11 C -0.925 -2.1707 -2.1391 0
M  V30 12 C -1.4394 0.2358 -1.6177 0
M  V30 13 C 1.0887 -3.2818 -1.4247 0
M  V30 14 C -1.8941 1.1867 2.0527 0
M  V30 15 C -1.7037 1.1666 -0.4565 0
M  V30 16 C -0.0713 0.6284 3.5266 0
M  V30 17 C -0.1281 -3.315 -2.0925 0
M  V30 18 O -2.668 0.1852 -0.8726 0
M  V30 19 C -1.3919 1.0174 3.3438 0
M  V30 20 H 1.9384 3.5073 -0.8541 0
M  V30 21 H 1.756 2.7558 0.7078 0
M  V30 22 H 2.1668 0.076 0.3259 0
M  V30 23 H 2.4487 -2.1099 -0.2623 0
M  V30 24 H 1.7668 0.074 2.5822 0
M  V30 25 H -1.8804 -2.2136 -2.6597 0
M  V30 26 H -1.4949 0.694 -2.6026 0
M  V30 27 H 1.7121 -4.1708 -1.3841 0
M  V30 28 H -2.9379 1.4711 1.9258 0
M  V30 29 H -1.9247 2.196 -0.7288 0
M  V30 30 H 0.3188 0.482 4.5306 0
M  V30 31 H -0.4624 -4.2288 -2.5758 0
M  V30 32 H -2.0393 1.1764 4.2024 0
M  V30 END ATOM
M  V30 BEGIN BOND
M  V30 1 2 1 2
M  V30 2 1 2 3
M  V30 3 1 2 4
M  V30 4 1 4 5
M  V30 5 1 4 6
M  V30 6 2 5 7
M  V30 7 1 5 8
M  V30 8 2 6 9
M  V30 9 1 6 10
M  V30 10 1 7 11
M  V30 11 1 7 12
M  V30 12 2 8 13
M  V30 13 1 9 14
M  V30 14 1 9 15
M  V30 15 2 10 16
M  V30 16 2 11 17
M  V30 17 1 12 18
M  V30 18 2 14 19
M  V30 19 1 12 15
M  V30 20 1 13 17
M  V30 21 1 15 18
M  V30 22 1 16 19
M  V30 23 1 3 20
M  V30 24 1 3 21
M  V30 25 1 4 22
M  V30 26 1 8 23
M  V30 27 1 10 24
M  V30 28 1 11 25
M  V30 29 1 12 26
M  V30 30 1 13 27
M  V30 31 1 14 28
M  V30 32 1 15 29
M  V30 33 1 16 30
M  V30 34 1 17 31
M  V30 35 1 19 32
M  V30 END BOND
M  V30 END CTAB
M  END
>  <NO.>
331

>  <Name>
carbamazepine, 9,10-epoxide

>  <SMILES>
NC(=O)C1c2ccccc2C2OC2c2ccccc21

>  <logBB>
-0.34

>  <Class>
1

>  <MW>
251.09

>  <nHBAcc>
2

>  <nHBDon>
1

>  <SLogP>
2.43

>  <TopoPSA>
55.62

>  <MMFF94 Energy>
54.348

$$$$
NC(=O)N1c2ccccc2C2CC2c2ccccc21
Actelion Java MolfileCreator 2.0

  0  0  0  0  0  0              0 V3000
M  V30 BEGIN CTAB
M  V30 COUNTS 33 36 0 0 0
M  V30 BEGIN ATOM
M  V30 1 O 2.0084 1.7672 -2.2496 0
M  V30 2 C 1.1245 1.8966 -1.4045 0
M  V30 3 N 0.7029 0.9134 -0.5232 0
M  V30 4 N 0.4863 3.0979 -1.3208 0
M  V30 5 C 1.2531 -0.3942 -0.5739 0
M  V30 6 C -0.2233 1.1114 0.5321 0
M  V30 7 C 0.447 -1.4863 -0.9612 0
M  V30 8 C 2.5984 -0.5784 -0.2203 0
M  V30 9 C -1.502 0.5195 0.4756 0
M  V30 10 C 0.1644 1.896 1.6304 0
M  V30 11 C 1.0332 -2.7653 -0.9251 0
M  V30 12 C -1.0053 -1.3341 -1.3561 0
M  V30 13 C 3.1549 -1.8549 -0.2173 0
M  V30 14 C -2.3571 0.728 1.5736 0
M  V30 15 C -1.9433 -0.3659 -0.667 0
M  V30 16 C -0.713 2.0991 2.692 0
M  V30 17 C 2.37 -2.9499 -0.5627 0
M  V30 18 C -2.0877 -1.8508 -0.4415 0
M  V30 19 C -1.974 1.5132 2.6645 0
M  V30 20 H 0.7738 3.8215 -1.9631 0
M  V30 21 H -0.3069 3.2525 -0.7189 0
M  V30 22 H 3.2124 0.2755 0.053 0
M  V30 23 H 1.1578 2.3369 1.6625 0
M  V30 24 H 0.4361 -3.6332 -1.1975 0
M  V30 25 H -1.1843 -1.4605 -2.4232 0
M  V30 26 H 4.1973 -1.9928 0.0554 0
M  V30 27 H -3.3432 0.2671 1.576 0
M  V30 28 H -2.685 0.0907 -1.3209 0
M  V30 29 H -0.4087 2.7016 3.5439 0
M  V30 30 H 2.7973 -3.9492 -0.557 0
M  V30 31 H -1.7989 -2.2601 0.5205 0
M  V30 32 H -2.9349 -2.3521 -0.8947 0
M  V30 33 H -2.6598 1.6568 3.4959 0
M  V30 END ATOM
M  V30 BEGIN BOND
M  V30 1 2 1 2
M  V30 2 1 2 3
M  V30 3 1 2 4
M  V30 4 1 3 5
M  V30 5 1 3 6
M  V30 6 2 5 7
M  V30 7 1 5 8
M  V30 8 2 6 9
M  V30 9 1 6 10
M  V30 10 1 7 11
M  V30 11 1 7 12
M  V30 12 2 8 13
M  V30 13 1 9 14
M  V30 14 1 9 15
M  V30 15 2 10 16
M  V30 16 2 11 17
M  V30 17 1 12 18
M  V30 18 2 14 19
M  V30 19 1 12 15
M  V30 20 1 13 17
M  V30 21 1 15 18
M  V30 22 1 16 19
M  V30 23 1 4 20
M  V30 24 1 4 21
M  V30 25 1 8 22
M  V30 26 1 10 23
M  V30 27 1 11 24
M  V30 28 1 12 25
M  V30 29 1 13 26
M  V30 30 1 14 27
M  V30 31 1 15 28
M  V30 32 1 16 29
M  V30 33 1 17 30
M  V30 34 1 18 31
M  V30 35 1 18 32
M  V30 36 1 19 33
M  V30 END BOND
M  V30 END CTAB
M  END
>  <NO.>
332

>  <Name>
cbz-epo

>  <SMILES>
NC(=O)N1c2ccccc2C2CC2c2ccccc21

>  <logBB>
-0.34

>  <Class>
1

>  <MW>
250.11

>  <nHBAcc>
1

>  <nHBDon>
1

>  <SLogP>
3.49

>  <TopoPSA>
46.33

>  <MMFF94 Energy>
5.2495

$$$$
CN1C(=O)CC[C@H]1c1cccnc1
Actelion Java MolfileCreator 2.0

  0  0  0  0  0  0              0 V3000
M  V30 BEGIN CTAB
M  V30 COUNTS 25 26 0 0 0
M  V30 BEGIN ATOM
M  V30 1 O 2.0606 -0.5544 -2.8541 0
M  V30 2 C 1.0664 -0.4672 -2.1537 0
M  V30 3 N 0.6755 0.6254 -1.3966 0
M  V30 4 C 0.0648 -1.5703 -1.9214 0
M  V30 5 C -0.5457 0.3926 -0.6566 0 CFG=1
M  V30 6 C 1.3889 1.8823 -1.3447 0
M  V30 7 C -1.1435 -0.8236 -1.3649 0
M  V30 8 C -0.354 0.1609 0.823 0
M  V30 9 C 0.8015 -0.3924 1.369 0
M  V30 10 C -1.3854 0.4745 1.7184 0
M  V30 11 N 0.9841 -0.6329 2.6887 0
M  V30 12 C -1.2242 0.2405 3.0815 0
M  V30 13 C -0.0315 -0.3095 3.5146 0
M  V30 14 H 0.4749 -2.2772 -1.194 0
M  V30 15 H -0.172 -2.0872 -2.8545 0
M  V30 16 H -1.1952 1.265 -0.804 0
M  V30 17 H 1.6892 2.085 -0.3134 0
M  V30 18 H 0.7257 2.6773 -1.6963 0
M  V30 19 H 2.2783 1.8472 -1.9792 0
M  V30 20 H -1.7611 -0.4837 -2.207 0
M  V30 21 H -1.7721 -1.4563 -0.7302 0
M  V30 22 H 1.65 -0.6704 0.7487 0
M  V30 23 H -2.3195 0.9018 1.3607 0
M  V30 24 H -2.0108 0.4798 3.7886 0
M  V30 25 H 0.1442 -0.5121 4.5672 0
M  V30 END ATOM
M  V30 BEGIN BOND
M  V30 1 2 1 2
M  V30 2 1 2 3
M  V30 3 1 2 4
M  V30 4 1 3 5
M  V30 5 1 3 6
M  V30 6 1 4 7
M  V30 7 1 5 8
M  V30 8 2 8 9
M  V30 9 1 8 10
M  V30 10 1 9 11
M  V30 11 2 10 12
M  V30 12 2 11 13
M  V30 13 1 5 7
M  V30 14 1 12 13
M  V30 15 1 4 14
M  V30 16 1 4 15
M  V30 17 1 5 16
M  V30 18 1 6 17
M  V30 19 1 6 18
M  V30 20 1 6 19
M  V30 21 1 7 20
M  V30 22 1 7 21
M  V30 23 1 9 22
M  V30 24 1 10 23
M  V30 25 1 12 24
M  V30 26 1 13 25
M  V30 END BOND
M  V30 BEGIN COLLECTION
M  V30 MDLV30/STEABS ATOMS=(1 5)
M  V30 END COLLECTION
M  V30 END CTAB
M  END
>  <NO.>
334

>  <Name>
cotinine

>  <SMILES>
CN1C(=O)CC[C@H]1c1cccnc1

>  <logBB>
-0.32

>  <Class>
1

>  <MW>
176.09

>  <nHBAcc>
2

>  <nHBDon>
0

>  <SLogP>
1.37

>  <TopoPSA>
33.2

>  <MMFF94 Energy>
0.033059

$$$$
Cc1nc2n(c(=O)c1CCN1CCC(c3coc4cc(F)ccc34)CC1)CCCC2
Actelion Java MolfileCreator 2.0

  0  0  0  0  0  0              0 V3000
M  V30 BEGIN CTAB
M  V30 COUNTS 58 62 0 0 0
M  V30 BEGIN ATOM
M  V30 1 F 0.481 9.0091 -3.2908 0
M  V30 2 C 0.6178 7.7332 -2.904 0
M  V30 3 C 1.8974 7.1989 -2.7836 0
M  V30 4 C -0.526 6.9851 -2.6356 0
M  V30 5 C 1.9636 5.8696 -2.3781 0
M  V30 6 C -0.4237 5.6475 -2.2288 0
M  V30 7 O 3.1085 5.1615 -2.1989 0
M  V30 8 C 0.8574 5.0743 -2.097 0
M  V30 9 C 2.7477 3.9155 -1.8039 0
M  V30 10 C 1.3729 3.7886 -1.7205 0
M  V30 11 C 0.5629 2.5775 -1.3222 0
M  V30 12 C 0.7409 1.3893 -2.2788 0
M  V30 13 C 0.7716 2.1677 0.1428 0
M  V30 14 C 1.9512 0.514 -1.9448 0
M  V30 15 C 1.9833 1.257 0.3486 0
M  V30 16 N 2.0157 0.0866 -0.5393 0
M  V30 17 C 0.9911 -0.9299 -0.2316 0
M  V30 18 C 1.208 -1.6223 1.1257 0
M  V30 19 C 0.2515 -2.7718 1.3242 0
M  V30 20 C -1.1174 -2.4136 1.7816 0
M  V30 21 C 0.5183 -4.0781 1.1506 0
M  V30 22 O -1.4488 -1.2314 1.8691 0
M  V30 23 N -1.9673 -3.4663 2.0637 0
M  V30 24 N -0.3905 -5.0751 1.3938 0
M  V30 25 C 1.8443 -4.5928 0.6507 0
M  V30 26 C -1.5664 -4.7565 1.8283 0
M  V30 27 C -3.3288 -3.1206 2.4557 0
M  V30 28 C -2.5148 -5.8973 2.1489 0
M  V30 29 C -4.1173 -4.2625 3.0725 0
M  V30 30 C -3.9749 -5.4946 2.2008 0
M  V30 31 H 2.7842 7.7812 -2.9918 0
M  V30 32 H -1.5018 7.4502 -2.7444 0
M  V30 33 H -1.3202 5.0713 -2.0207 0
M  V30 34 H 3.5744 3.2428 -1.6232 0
M  V30 35 H -0.4902 2.8804 -1.4068 0
M  V30 36 H 0.8172 1.7358 -3.317 0
M  V30 37 H -0.1632 0.7683 -2.2338 0
M  V30 38 H -0.127 1.6428 0.4915 0
M  V30 39 H 0.8697 3.0542 0.7819 0
M  V30 40 H 2.8746 1.0518 -2.188 0
M  V30 41 H 1.959 -0.3623 -2.6051 0
M  V30 42 H 2.0362 0.9535 1.3995 0
M  V30 43 H 2.9029 1.8328 0.1908 0
M  V30 44 H 1.039 -1.7088 -1.0048 0
M  V30 45 H -0.0194 -0.5096 -0.2834 0
M  V30 46 H 2.2468 -1.9626 1.2061 0
M  V30 47 H 1.0792 -0.9117 1.9508 0
M  V30 48 H 1.6885 -5.4057 -0.0678 0
M  V30 49 H 2.4343 -3.8326 0.1324 0
M  V30 50 H 2.4343 -4.9842 1.4856 0
M  V30 51 H -3.3023 -2.2749 3.1535 0
M  V30 52 H -3.8363 -2.7647 1.5498 0
M  V30 53 H -2.375 -6.6948 1.41 0
M  V30 54 H -2.2059 -6.3058 3.1195 0
M  V30 55 H -3.7436 -4.4738 4.0819 0
M  V30 56 H -5.1713 -3.9801 3.1679 0
M  V30 57 H -4.5752 -6.317 2.6046 0
M  V30 58 H -4.345 -5.2847 1.19 0
M  V30 END ATOM
M  V30 BEGIN BOND
M  V30 1 1 1 2
M  V30 2 2 2 3
M  V30 3 1 2 4
M  V30 4 1 3 5
M  V30 5 2 4 6
M  V30 6 1 5 7
M  V30 7 2 5 8
M  V30 8 1 7 9
M  V30 9 1 8 10
M  V30 10 1 10 11
M  V30 11 1 11 12
M  V30 12 1 11 13
M  V30 13 1 12 14
M  V30 14 1 13 15
M  V30 15 1 14 16
M  V30 16 1 16 17
M  V30 17 1 17 18
M  V30 18 1 18 19
M  V30 19 1 19 20
M  V30 20 2 19 21
M  V30 21 2 20 22
M  V30 22 1 20 23
M  V30 23 1 21 24
M  V30 24 1 21 25
M  V30 25 1 23 26
M  V30 26 1 23 27
M  V30 27 1 26 28
M  V30 28 1 27 29
M  V30 29 1 28 30
M  V30 30 1 6 8
M  V30 31 2 9 10
M  V30 32 1 15 16
M  V30 33 2 24 26
M  V30 34 1 29 30
M  V30 35 1 3 31
M  V30 36 1 4 32
M  V30 37 1 6 33
M  V30 38 1 9 34
M  V30 39 1 11 35
M  V30 40 1 12 36
M  V30 41 1 12 37
M  V30 42 1 13 38
M  V30 43 1 13 39
M  V30 44 1 14 40
M  V30 45 1 14 41
M  V30 46 1 15 42
M  V30 47 1 15 43
M  V30 48 1 17 44
M  V30 49 1 17 45
M  V30 50 1 18 46
M  V30 51 1 18 47
M  V30 52 1 25 48
M  V30 53 1 25 49
M  V30 54 1 25 50
M  V30 55 1 27 51
M  V30 56 1 27 52
M  V30 57 1 28 53
M  V30 58 1 28 54
M  V30 59 1 29 55
M  V30 60 1 29 56
M  V30 61 1 30 57
M  V30 62 1 30 58
M  V30 END BOND
M  V30 END CTAB
M  END
>  <NO.>
335

>  <Name>
risperidone

>  <SMILES>
Cc1nc2n(c(=O)c1CCN1CCC(c3coc4cc(F)ccc34)CC1)CCCC2

>  <logBB>
-0.32

>  <Class>
1

>  <MW>
409.22

>  <nHBAcc>
4

>  <nHBDon>
0

>  <SLogP>
4.2

>  <TopoPSA>
51.27

>  <MMFF94 Energy>
-20.279

$$$$
CC(=O)Cn1nc(-c2c(-c3ccccc3)nn3ccccc23)ccc1=O
Actelion Java MolfileCreator 2.0

  0  0  0  0  0  0              0 V3000
M  V30 BEGIN CTAB
M  V30 COUNTS 42 45 0 0 0
M  V30 BEGIN ATOM
M  V30 1 O -0.7233 -3.2179 -2.8152 0
M  V30 2 C -0.512 -2.3488 -1.9732 0
M  V30 3 N 0.4071 -1.3201 -2.1223 0
M  V30 4 C -1.2615 -2.3712 -0.6987 0
M  V30 5 N 0.632 -0.3391 -1.1798 0
M  V30 6 C 1.2175 -1.2686 -3.3263 0
M  V30 7 C -1.0485 -1.4453 0.2385 0
M  V30 8 C -0.0506 -0.4117 -0.0836 0
M  V30 9 C 2.3703 -2.2606 -3.2286 0
M  V30 10 C 0.1806 0.5751 0.9464 0
M  V30 11 O 3.0318 -2.4309 -2.2025 0
M  V30 12 C 2.7091 -3.0071 -4.4926 0
M  V30 13 C -0.7466 1.3586 1.6975 0
M  V30 14 C 1.4193 0.9663 1.4181 0
M  V30 15 N -0.1255 2.1123 2.6159 0
M  V30 16 C -2.2027 1.4159 1.5662 0
M  V30 17 N 1.1974 1.8989 2.4284 0
M  V30 18 C 2.7708 0.6179 1.1164 0
M  V30 19 C -3.0136 1.3776 2.7085 0
M  V30 20 C -2.806 1.513 0.3044 0
M  V30 21 C 2.2477 2.4926 3.1321 0
M  V30 22 C 3.7755 1.1964 1.801 0
M  V30 23 C -4.4046 1.4116 2.5902 0
M  V30 24 C -4.1976 1.5466 0.1883 0
M  V30 25 C 3.5196 2.1703 2.8473 0
M  V30 26 C -4.9953 1.4918 1.3303 0
M  V30 27 H -1.9679 -3.1802 -0.5666 0
M  V30 28 H 0.5898 -1.5269 -4.1856 0
M  V30 29 H 1.6213 -0.2621 -3.4742 0
M  V30 30 H -1.5622 -1.4519 1.1895 0
M  V30 31 H 3.5511 -3.6804 -4.3095 0
M  V30 32 H 1.8479 -3.6001 -4.8098 0
M  V30 33 H 2.9874 -2.2955 -5.2737 0
M  V30 34 H 2.9791 -0.108 0.334 0
M  V30 35 H -2.5616 1.3249 3.6972 0
M  V30 36 H -2.2015 1.5816 -0.5972 0
M  V30 37 H 1.9656 3.2045 3.8956 0
M  V30 38 H 4.8089 0.944 1.582 0
M  V30 39 H -5.025 1.383 3.4823 0
M  V30 40 H -4.6589 1.626 -0.7928 0
M  V30 41 H 4.3569 2.6133 3.3747 0
M  V30 42 H -6.0782 1.5243 1.2394 0
M  V30 END ATOM
M  V30 BEGIN BOND
M  V30 1 2 1 2
M  V30 2 1 2 3
M  V30 3 1 2 4
M  V30 4 1 3 5
M  V30 5 1 3 6
M  V30 6 2 4 7
M  V30 7 2 5 8
M  V30 8 1 6 9
M  V30 9 1 8 10
M  V30 10 2 9 11
M  V30 11 1 9 12
M  V30 12 1 10 13
M  V30 13 2 10 14
M  V30 14 2 13 15
M  V30 15 1 13 16
M  V30 16 1 14 17
M  V30 17 1 14 18
M  V30 18 2 16 19
M  V30 19 1 16 20
M  V30 20 1 17 21
M  V30 21 2 18 22
M  V30 22 1 19 23
M  V30 23 2 20 24
M  V30 24 2 21 25
M  V30 25 2 23 26
M  V30 26 1 7 8
M  V30 27 1 15 17
M  V30 28 1 22 25
M  V30 29 1 24 26
M  V30 30 1 4 27
M  V30 31 1 6 28
M  V30 32 1 6 29
M  V30 33 1 7 30
M  V30 34 1 12 31
M  V30 35 1 12 32
M  V30 36 1 12 33
M  V30 37 1 18 34
M  V30 38 1 19 35
M  V30 39 1 20 36
M  V30 40 1 21 37
M  V30 41 1 22 38
M  V30 42 1 23 39
M  V30 43 1 24 40
M  V30 44 1 25 41
M  V30 45 1 26 42
M  V30 END BOND
M  V30 END CTAB
M  END
>  <NO.>
336

>  <Name>
schembl8639797

>  <SMILES>
CC(=O)Cn1nc(-c2c(-c3ccccc3)nn3ccccc23)ccc1=O

>  <logBB>
-0.31

>  <Class>
1

>  <MW>
344.13

>  <nHBAcc>
4

>  <nHBDon>
0

>  <SLogP>
2.81

>  <TopoPSA>
69.26

>  <MMFF94 Energy>
98.585

$$$$
CC(=O)Nc1ccc(O)cc1
Actelion Java MolfileCreator 2.0

  0  0  0  0  0  0              0 V3000
M  V30 BEGIN CTAB
M  V30 COUNTS 20 20 0 0 0
M  V30 BEGIN ATOM
M  V30 1 O -1.3997 -1.1663 2.1001 0
M  V30 2 C -1.8163 -1.2177 0.949 0
M  V30 3 N -1.2298 -0.6711 -0.1785 0
M  V30 4 C -3.1027 -1.9331 0.6207 0
M  V30 5 C -0.0284 0.0627 -0.2522 0
M  V30 6 C 0.7771 0.356 0.851 0
M  V30 7 C 0.3658 0.5178 -1.518 0
M  V30 8 C 1.9578 1.0916 0.6955 0
M  V30 9 C 1.5439 1.2521 -1.6756 0
M  V30 10 C 2.3307 1.5334 -0.5677 0
M  V30 11 O 3.4718 2.252 -0.7627 0
M  V30 12 H -1.7161 -0.8117 -1.0549 0
M  V30 13 H -3.8153 -1.2311 0.1784 0
M  V30 14 H -3.537 -2.3512 1.5331 0
M  V30 15 H -2.9056 -2.7467 -0.0829 0
M  V30 16 H 0.5149 0.0261 1.8515 0
M  V30 17 H -0.2343 0.3096 -2.3994 0
M  V30 18 H 2.5635 1.3043 1.5708 0
M  V30 19 H 1.845 1.6025 -2.6586 0
M  V30 20 H 3.9127 2.3688 0.095 0
M  V30 END ATOM
M  V30 BEGIN BOND
M  V30 1 2 1 2
M  V30 2 1 2 3
M  V30 3 1 2 4
M  V30 4 1 3 5
M  V30 5 2 5 6
M  V30 6 1 5 7
M  V30 7 1 6 8
M  V30 8 2 7 9
M  V30 9 2 8 10
M  V30 10 1 10 11
M  V30 11 1 9 10
M  V30 12 1 3 12
M  V30 13 1 4 13
M  V30 14 1 4 14
M  V30 15 1 4 15
M  V30 16 1 6 16
M  V30 17 1 7 17
M  V30 18 1 8 18
M  V30 19 1 9 19
M  V30 20 1 11 20
M  V30 END BOND
M  V30 END CTAB
M  END
>  <NO.>
337

>  <Name>
acetaminophen (p-acetamidophenol)

>  <SMILES>
CC(=O)Nc1ccc(O)cc1

>  <logBB>
-0.3

>  <Class>
1

>  <MW>
151.06

>  <nHBAcc>
2

>  <nHBDon>
2

>  <SLogP>
1.35

>  <TopoPSA>
49.33

>  <MMFF94 Energy>
-12.32

$$$$
CNCCc1ccccn1
Actelion Java MolfileCreator 2.0

  0  0  0  0  0  0              0 V3000
M  V30 BEGIN CTAB
M  V30 COUNTS 22 22 0 0 0
M  V30 BEGIN ATOM
M  V30 1 N 1.0075 1.0851 -1.3177 0
M  V30 2 C -0.1873 0.5567 -0.9551 0
M  V30 3 C 1.196 2.4043 -1.0946 0
M  V30 4 C -1.1937 1.3194 -0.3666 0
M  V30 5 C -0.3866 -0.9169 -1.1988 0
M  V30 6 C 0.2482 3.2321 -0.518 0
M  V30 7 C -0.9689 2.6753 -0.147 0
M  V30 8 C 0.317 -1.7947 -0.1563 0
M  V30 9 N -0.3292 -1.716 1.1635 0
M  V30 10 C 0.3226 -2.6138 2.1094 0
M  V30 11 H 2.1631 2.791 -1.4024 0
M  V30 12 H -2.1375 0.8663 -0.0794 0
M  V30 13 H 0.0197 -1.1527 -2.1906 0
M  V30 14 H -1.456 -1.158 -1.2458 0
M  V30 15 H 0.4538 4.2849 -0.3623 0
M  V30 16 H -1.7387 3.2909 0.3093 0
M  V30 17 H 1.3741 -1.5122 -0.0767 0
M  V30 18 H 0.2757 -2.8319 -0.5107 0
M  V30 19 H -0.2376 -0.7592 1.5099 0
M  V30 20 H 1.3793 -2.36 2.2419 0
M  V30 21 H 0.2414 -3.6564 1.7857 0
M  V30 22 H -0.1677 -2.5328 3.0845 0
M  V30 END ATOM
M  V30 BEGIN BOND
M  V30 1 2 1 2
M  V30 2 1 1 3
M  V30 3 1 2 4
M  V30 4 1 2 5
M  V30 5 2 3 6
M  V30 6 2 4 7
M  V30 7 1 5 8
M  V30 8 1 8 9
M  V30 9 1 9 10
M  V30 10 1 6 7
M  V30 11 1 3 11
M  V30 12 1 4 12
M  V30 13 1 5 13
M  V30 14 1 5 14
M  V30 15 1 6 15
M  V30 16 1 7 16
M  V30 17 1 8 17
M  V30 18 1 8 18
M  V30 19 1 9 19
M  V30 20 1 10 20
M  V30 21 1 10 21
M  V30 22 1 10 22
M  V30 END BOND
M  V30 END CTAB
M  END
>  <NO.>
338

>  <Name>
betahistine (y-g 14)

>  <SMILES>
CNCCc1ccccn1

>  <logBB>
-0.3

>  <Class>
1

>  <MW>
136.1

>  <nHBAcc>
2

>  <nHBDon>
1

>  <SLogP>
0.84

>  <TopoPSA>
24.92

>  <MMFF94 Energy>
27.141

$$$$
NC(=O)N1c2ccccc2C2OC2c2ccccc21
Actelion Java MolfileCreator 2.0

  0  0  0  0  0  0              0 V3000
M  V30 BEGIN CTAB
M  V30 COUNTS 31 34 0 0 0
M  V30 BEGIN ATOM
M  V30 1 O 3.2332 0.8075 -0.2422 0
M  V30 2 C 2.1043 1.0615 -0.6579 0
M  V30 3 N 0.9537 0.3579 -0.3367 0
M  V30 4 N 1.9493 2.1315 -1.4869 0
M  V30 5 C -0.3268 0.5894 -0.9023 0
M  V30 6 C 0.9996 -0.7415 0.5627 0
M  V30 7 C -1.3681 1.1144 -0.1089 0
M  V30 8 C -0.5366 0.269 -2.2532 0
M  V30 9 C 0.3537 -0.6592 1.8155 0
M  V30 10 C 1.6764 -1.9078 0.1752 0
M  V30 11 C -2.6245 1.281 -0.7197 0
M  V30 12 C -1.1887 1.4426 1.3507 0
M  V30 13 C -1.7872 0.4643 -2.8335 0
M  V30 14 C 0.3723 -1.8064 2.6301 0
M  V30 15 C -0.3614 0.5833 2.2809 0
M  V30 16 C 1.6961 -3.0192 1.0147 0
M  V30 17 C -2.8323 0.9683 -2.0658 0
M  V30 18 O -1.799 0.5537 2.3016 0
M  V30 19 C 1.0369 -2.9715 2.2389 0
M  V30 20 H 2.7777 2.6591 -1.722 0
M  V30 21 H 1.0515 2.4436 -1.8217 0
M  V30 22 H 0.272 -0.1486 -2.8483 0
M  V30 23 H 2.187 -1.9507 -0.7832 0
M  V30 24 H -3.4587 1.6555 -0.1283 0
M  V30 25 H -1.2225 2.5009 1.5954 0
M  V30 26 H -1.9506 0.2083 -3.8772 0
M  V30 27 H -0.1386 -1.7858 3.5911 0
M  V30 28 H 0.1161 1.1059 3.1056 0
M  V30 29 H 2.221 -3.9208 0.711 0
M  V30 30 H -3.8161 1.1071 -2.5082 0
M  V30 31 H 1.0412 -3.8391 2.8939 0
M  V30 END ATOM
M  V30 BEGIN BOND
M  V30 1 2 1 2
M  V30 2 1 2 3
M  V30 3 1 2 4
M  V30 4 1 3 5
M  V30 5 1 3 6
M  V30 6 2 5 7
M  V30 7 1 5 8
M  V30 8 2 6 9
M  V30 9 1 6 10
M  V30 10 1 7 11
M  V30 11 1 7 12
M  V30 12 2 8 13
M  V30 13 1 9 14
M  V30 14 1 9 15
M  V30 15 2 10 16
M  V30 16 2 11 17
M  V30 17 1 12 18
M  V30 18 2 14 19
M  V30 19 1 12 15
M  V30 20 1 13 17
M  V30 21 1 15 18
M  V30 22 1 16 19
M  V30 23 1 4 20
M  V30 24 1 4 21
M  V30 25 1 8 22
M  V30 26 1 10 23
M  V30 27 1 11 24
M  V30 28 1 12 25
M  V30 29 1 13 26
M  V30 30 1 14 27
M  V30 31 1 15 28
M  V30 32 1 16 29
M  V30 33 1 17 30
M  V30 34 1 19 31
M  V30 END BOND
M  V30 END CTAB
M  END
>  <NO.>
340

>  <Name>
b-096

>  <SMILES>
NC(=O)N1c2ccccc2C2OC2c2ccccc21

>  <logBB>
-0.3

>  <Class>
1

>  <MW>
252.09

>  <nHBAcc>
2

>  <nHBDon>
1

>  <SLogP>
3.03

>  <TopoPSA>
58.86

>  <MMFF94 Energy>
1.4778

$$$$
ClCCl
Actelion Java MolfileCreator 2.0

  0  0  0  0  0  0              0 V3000
M  V30 BEGIN CTAB
M  V30 COUNTS 5 4 0 0 0
M  V30 BEGIN ATOM
M  V30 1 Cl -1.1623 -0.6257 -0.9834 0
M  V30 2 C 0.0325 -0.0367 0.1777 0
M  V30 3 Cl 1.2046 1.0327 -0.6004 0
M  V30 4 H 0.5612 -0.8907 0.6081 0
M  V30 5 H -0.4818 0.5148 0.9686 0
M  V30 END ATOM
M  V30 BEGIN BOND
M  V30 1 1 1 2
M  V30 2 1 2 3
M  V30 3 1 2 4
M  V30 4 1 2 5
M  V30 END BOND
M  V30 END CTAB
M  END
>  <NO.>
341

>  <Name>
dichloromethane

>  <SMILES>
ClCCl

>  <logBB>
-0.3

>  <Class>
1

>  <MW>
83.95

>  <nHBAcc>
0

>  <nHBDon>
0

>  <SLogP>
1.42

>  <TopoPSA>
0

>  <MMFF94 Energy>
0.048507

$$$$
CN1CC[C@]23c4c5ccc(O)c4O[C@H]2[C@@H](O)C=C[C@H]3[C@H]1C5
Actelion Java MolfileCreator 2.0

  0  0  0  0  0  0              0 V3000
M  V30 BEGIN CTAB
M  V30 COUNTS 40 44 0 0 0
M  V30 BEGIN ATOM
M  V30 1 O -1.381 -0.8121 2.2753 0
M  V30 2 C -0.9767 -1.5405 1.1883 0
M  V30 3 C -0.7468 0.5114 2.0774 0 CFG=2
M  V30 4 C -1.056 -2.9065 1.0445 0
M  V30 5 C -0.3811 -0.7701 0.2192 0
M  V30 6 C -0.4649 0.6793 0.5675 0 CFG=2
M  V30 7 C 0.5088 0.6534 2.9883 0 CFG=1
M  V30 8 O -1.6642 -3.6855 1.9787 0
M  V30 9 C -0.4704 -3.497 -0.0743 0
M  V30 10 C 0.2781 -1.3183 -0.8673 0
M  V30 11 C 0.8481 1.3612 0.1549 0 CFG=1
M  V30 12 C -1.6429 1.331 -0.1837 0
M  V30 13 O 0.5083 -0.306 4.0427 0
M  V30 14 C 1.8409 0.5841 2.2982 0
M  V30 15 C 0.2153 -2.7068 -1.02 0
M  V30 16 C 1.1152 -0.4149 -1.7353 0
M  V30 17 C 2.0122 0.9162 1.0088 0
M  V30 18 C 1.0129 1.112 -1.3818 0 CFG=1
M  V30 19 C -1.4243 1.3695 -1.7037 0
M  V30 20 N -0.0853 1.8559 -2.0567 0
M  V30 21 C 0.0808 1.9369 -3.5054 0
M  V30 22 H -1.4884 1.2453 2.4188 0
M  V30 23 H 0.468 1.6382 3.4705 0
M  V30 24 H -2.0373 -3.0744 2.6412 0
M  V30 25 H -0.512 -4.576 -0.1971 0
M  V30 26 H 0.7655 2.4472 0.3156 0
M  V30 27 H -2.587 0.8109 0.0245 0
M  V30 28 H -1.7674 2.36 0.1803 0
M  V30 29 H 0.1153 -1.1159 3.668 0
M  V30 30 H 2.7013 0.3118 2.9047 0
M  V30 31 H 0.7156 -3.192 -1.8548 0
M  V30 32 H 2.1626 -0.7142 -1.5942 0
M  V30 33 H 0.8811 -0.5969 -2.7887 0
M  V30 34 H 3.0093 0.9128 0.5765 0
M  V30 35 H 1.9548 1.583 -1.6957 0
M  V30 36 H -1.6112 0.3786 -2.1354 0
M  V30 37 H -2.1817 2.0381 -2.1324 0
M  V30 38 H -0.0604 0.9736 -4.0055 0
M  V30 39 H 1.0745 2.3196 -3.7626 0
M  V30 40 H -0.6425 2.6428 -3.9291 0
M  V30 END ATOM
M  V30 BEGIN BOND
M  V30 1 1 1 2
M  V30 2 1 1 3
M  V30 3 2 2 4
M  V30 4 1 2 5
M  V30 5 1 3 6
M  V30 6 1 3 7
M  V30 7 1 4 8
M  V30 8 1 4 9
M  V30 9 2 5 10
M  V30 10 1 6 11
M  V30 11 1 6 12
M  V30 12 1 7 13
M  V30 13 1 7 14
M  V30 14 2 9 15
M  V30 15 1 10 16
M  V30 16 1 11 17
M  V30 17 1 11 18
M  V30 18 1 12 19
M  V30 19 1 18 20
M  V30 20 1 20 21
M  V30 21 1 5 6
M  V30 22 1 10 15
M  V30 23 2 14 17
M  V30 24 1 16 18
M  V30 25 1 19 20
M  V30 26 1 3 22
M  V30 27 1 7 23
M  V30 28 1 8 24
M  V30 29 1 9 25
M  V30 30 1 11 26
M  V30 31 1 12 27
M  V30 32 1 12 28
M  V30 33 1 13 29
M  V30 34 1 14 30
M  V30 35 1 15 31
M  V30 36 1 16 32
M  V30 37 1 16 33
M  V30 38 1 17 34
M  V30 39 1 18 35
M  V30 40 1 19 36
M  V30 41 1 19 37
M  V30 42 1 21 38
M  V30 43 1 21 39
M  V30 44 1 21 40
M  V30 END BOND
M  V30 BEGIN COLLECTION
M  V30 MDLV30/STEABS ATOMS=(5 3 6 7 11 18)
M  V30 END COLLECTION
M  V30 END CTAB
M  END
>  <NO.>
342

>  <Name>
morphine

>  <SMILES>
CN1CC[C@]23c4c5ccc(O)c4O[C@H]2[C@@H](O)C=C[C@H]3[C@H]1C5

>  <logBB>
-0.3

>  <Class>
1

>  <MW>
285.14

>  <nHBAcc>
4

>  <nHBDon>
2

>  <SLogP>
1.2

>  <TopoPSA>
52.93

>  <MMFF94 Energy>
94.321

$$$$
CC12CCC3c4ccc(O)cc4CCC3C1CC(F)C2O
Actelion Java MolfileCreator 2.0

  0  0  0  0  0  0              0 V3000
M  V30 BEGIN CTAB
M  V30 COUNTS 44 47 0 0 0
M  V30 BEGIN ATOM
M  V30 1 F 1.6909 4.5141 0.8854 0
M  V30 2 C 0.953 3.4117 1.1841 0
M  V30 3 C -0.4658 3.5976 0.6405 0
M  V30 4 C 1.5299 2.1903 0.4714 0
M  V30 5 O -1.3494 4.1337 1.6159 0
M  V30 6 C -0.8919 2.1889 0.1791 0
M  V30 7 C 0.4172 1.6856 -0.468 0
M  V30 8 C -1.3265 1.2863 1.356 0
M  V30 9 C -2.0362 2.2938 -0.8424 0
M  V30 10 C 0.4169 0.1728 -0.7535 0
M  V30 11 C -1.3388 -0.2055 1.0105 0
M  V30 12 C 0.0265 -0.6835 0.4774 0
M  V30 13 C 1.7588 -0.3096 -1.3103 0
M  V30 14 C 0.1024 -2.1788 0.1691 0
M  V30 15 C 1.6134 -1.7294 -1.8474 0
M  V30 16 C 0.8836 -2.6562 -0.9062 0
M  V30 17 C -0.5278 -3.1217 1.003 0
M  V30 18 C 0.962 -4.0374 -1.1556 0
M  V30 19 C -0.435 -4.4936 0.7522 0
M  V30 20 C 0.3058 -4.9398 -0.3309 0
M  V30 21 O 0.4215 -6.2673 -0.6177 0
M  V30 22 H 0.9727 3.2931 2.2723 0
M  V30 23 H -0.4439 4.2975 -0.2045 0
M  V30 24 H 1.8019 1.4372 1.2173 0
M  V30 25 H 2.4371 2.4395 -0.0891 0
M  V30 26 H -1.007 5.0152 1.8521 0
M  V30 27 H 0.5553 2.2043 -1.4289 0
M  V30 28 H -2.3242 1.5785 1.708 0
M  V30 29 H -0.6558 1.4259 2.2135 0
M  V30 30 H -2.313 1.3175 -1.2516 0
M  V30 31 H -1.7557 2.9317 -1.6883 0
M  V30 32 H -2.9313 2.73 -0.385 0
M  V30 33 H -0.3389 0.0023 -1.5353 0
M  V30 34 H -1.6116 -0.7439 1.9245 0
M  V30 35 H -2.1276 -0.422 0.2798 0
M  V30 36 H 0.768 -0.5211 1.2717 0
M  V30 37 H 2.1054 0.3463 -2.1176 0
M  V30 38 H 2.5266 -0.2884 -0.5265 0
M  V30 39 H 1.0592 -1.7028 -2.7944 0
M  V30 40 H 2.613 -2.1267 -2.0614 0
M  V30 41 H -1.0975 -2.8065 1.8729 0
M  V30 42 H 1.5415 -4.4128 -1.9956 0
M  V30 43 H -0.9414 -5.1886 1.4142 0
M  V30 44 H -0.0918 -6.769 0.0362 0
M  V30 END ATOM
M  V30 BEGIN BOND
M  V30 1 1 1 2
M  V30 2 1 2 3
M  V30 3 1 2 4
M  V30 4 1 3 5
M  V30 5 1 3 6
M  V30 6 1 4 7
M  V30 7 1 6 8
M  V30 8 1 6 9
M  V30 9 1 7 10
M  V30 10 1 8 11
M  V30 11 1 10 12
M  V30 12 1 10 13
M  V30 13 1 12 14
M  V30 14 1 13 15
M  V30 15 2 14 16
M  V30 16 1 14 17
M  V30 17 1 16 18
M  V30 18 2 17 19
M  V30 19 2 18 20
M  V30 20 1 20 21
M  V30 21 1 6 7
M  V30 22 1 11 12
M  V30 23 1 15 16
M  V30 24 1 19 20
M  V30 25 1 2 22
M  V30 26 1 3 23
M  V30 27 1 4 24
M  V30 28 1 4 25
M  V30 29 1 5 26
M  V30 30 1 7 27
M  V30 31 1 8 28
M  V30 32 1 8 29
M  V30 33 1 9 30
M  V30 34 1 9 31
M  V30 35 1 9 32
M  V30 36 1 10 33
M  V30 37 1 11 34
M  V30 38 1 11 35
M  V30 39 1 12 36
M  V30 40 1 13 37
M  V30 41 1 13 38
M  V30 42 1 15 39
M  V30 43 1 15 40
M  V30 44 1 17 41
M  V30 45 1 18 42
M  V30 46 1 19 43
M  V30 47 1 21 44
M  V30 END BOND
M  V30 END CTAB
M  END
>  <NO.>
343

>  <Name>
16a-fluoroestradiol

>  <SMILES>
CC12CCC3c4ccc(O)cc4CCC3C1CC(F)C2O

>  <logBB>
-0.3

>  <Class>
1

>  <MW>
290.17

>  <nHBAcc>
2

>  <nHBDon>
2

>  <SLogP>
3.56

>  <TopoPSA>
40.46

>  <MMFF94 Energy>
73.416

$$$$
CCC1(C2=CCCCC2)C(=O)NC(=O)NC1=O
Actelion Java MolfileCreator 2.0

  0  0  0  0  0  0              0 V3000
M  V30 BEGIN CTAB
M  V30 COUNTS 33 34 0 0 0
M  V30 BEGIN ATOM
M  V30 1 O 2.0652 -3.7356 -1.5883 0
M  V30 2 C 1.5881 -2.9289 -0.7976 0
M  V30 3 N 0.3251 -3.0609 -0.3197 0
M  V30 4 N 2.319 -1.8994 -0.3015 0
M  V30 5 C -0.2881 -2.2384 0.5859 0
M  V30 6 C 1.8957 -0.9853 0.6226 0
M  V30 7 O -1.3521 -2.5995 1.088 0
M  V30 8 C 0.3754 -0.8696 0.8452 0
M  V30 9 O 2.7282 -0.2663 1.1764 0
M  V30 10 C -0.132 0.2111 -0.1527 0
M  V30 11 C 0.1182 -0.4655 2.3277 0
M  V30 12 C -1.1522 0.0257 -1.0192 0
M  V30 13 C 0.5727 1.5631 -0.1022 0
M  V30 14 C -1.2692 0.0918 2.641 0
M  V30 15 C -1.6479 1.0564 -1.9955 0
M  V30 16 C -0.1969 2.6979 -0.782 0
M  V30 17 C -0.7193 2.2575 -2.1405 0
M  V30 18 H -0.1732 -3.898 -0.5861 0
M  V30 19 H 3.2979 -1.88 -0.5497 0
M  V30 20 H 0.8486 0.2831 2.6591 0
M  V30 21 H 0.2898 -1.3396 2.9708 0
M  V30 22 H -1.7115 -0.9069 -1.0462 0
M  V30 23 H 1.5503 1.4646 -0.5897 0
M  V30 24 H 0.7571 1.8622 0.9348 0
M  V30 25 H -1.4416 1.0489 2.1401 0
M  V30 26 H -1.3592 0.2693 3.7181 0
M  V30 27 H -2.0678 -0.5959 2.3537 0
M  V30 28 H -1.7841 0.5894 -2.9775 0
M  V30 29 H -2.6369 1.3938 -1.6622 0
M  V30 30 H 0.4572 3.5698 -0.895 0
M  V30 31 H -1.0362 3.0082 -0.1466 0
M  V30 32 H 0.1254 1.9952 -2.7899 0
M  V30 33 H -1.2519 3.0815 -2.6282 0
M  V30 END ATOM
M  V30 BEGIN BOND
M  V30 1 2 1 2
M  V30 2 1 2 3
M  V30 3 1 2 4
M  V30 4 1 3 5
M  V30 5 1 4 6
M  V30 6 2 5 7
M  V30 7 1 5 8
M  V30 8 2 6 9
M  V30 9 1 8 10
M  V30 10 1 8 11
M  V30 11 2 10 12
M  V30 12 1 10 13
M  V30 13 1 11 14
M  V30 14 1 12 15
M  V30 15 1 13 16
M  V30 16 1 15 17
M  V30 17 1 6 8
M  V30 18 1 16 17
M  V30 19 1 3 18
M  V30 20 1 4 19
M  V30 21 1 11 20
M  V30 22 1 11 21
M  V30 23 1 12 22
M  V30 24 1 13 23
M  V30 25 1 13 24
M  V30 26 1 14 25
M  V30 27 1 14 26
M  V30 28 1 14 27
M  V30 29 1 15 28
M  V30 30 1 15 29
M  V30 31 1 16 30
M  V30 32 1 16 31
M  V30 33 1 17 32
M  V30 34 1 17 33
M  V30 END BOND
M  V30 END CTAB
M  END
>  <NO.>
344

>  <Name>
cyclobarbital

>  <SMILES>
CCC1(C2=CCCCC2)C(=O)NC(=O)NC1=O

>  <logBB>
-0.3

>  <Class>
1

>  <MW>
236.12

>  <nHBAcc>
3

>  <nHBDon>
2

>  <SLogP>
1.25

>  <TopoPSA>
75.27

>  <MMFF94 Energy>
-84.454

$$$$
CC(C)c1nc(-c2ncn3c2CN(C)C(=O)c2c(Cl)cccc2-3)no1
Actelion Java MolfileCreator 2.0

  0  0  0  0  0  0              0 V3000
M  V30 BEGIN CTAB
M  V30 COUNTS 41 44 0 0 0
M  V30 BEGIN ATOM
M  V30 1 Cl -0.9747 4.4736 -3.4963 0
M  V30 2 C -1.6048 2.8611 -3.5082 0
M  V30 3 C -1.5419 1.9999 -2.3989 0
M  V30 4 C -2.1387 2.4128 -4.7239 0
M  V30 5 C -1.0892 2.5374 -1.0826 0
M  V30 6 C -2.0018 0.6727 -2.5501 0
M  V30 7 C -2.6103 1.1081 -4.8532 0
M  V30 8 O -1.5999 3.5795 -0.6799 0
M  V30 9 N -0.1539 1.82 -0.3428 0
M  V30 10 N -1.8738 -0.2705 -1.505 0
M  V30 11 C -2.5356 0.2328 -3.773 0
M  V30 12 C 0.3567 0.5257 -0.7525 0
M  V30 13 C 0.2453 2.3015 0.9697 0
M  V30 14 C -0.783 -0.4084 -0.6737 0
M  V30 15 C -2.7568 -1.2664 -1.1699 0
M  V30 16 C -1.0729 -1.4911 0.1361 0
M  V30 17 N -2.2997 -2.0245 -0.1995 0
M  V30 18 C -0.2754 -2.0658 1.2284 0
M  V30 19 N -0.6228 -3.1474 1.9398 0
M  V30 20 N 0.922 -1.4969 1.598 0
M  V30 21 O 0.4259 -3.288 2.8477 0
M  V30 22 C 1.3006 -2.2743 2.5876 0
M  V30 23 C 2.519 -2.2042 3.4403 0
M  V30 24 C 3.7735 -2.4305 2.5987 0
M  V30 25 C 2.5889 -0.8608 4.1647 0
M  V30 26 H -2.1837 3.0821 -5.5811 0
M  V30 27 H -3.0191 0.7706 -5.8036 0
M  V30 28 H -2.8742 -0.7923 -3.9132 0
M  V30 29 H 1.2023 0.241 -0.1225 0
M  V30 30 H 0.7338 0.5971 -1.7794 0
M  V30 31 H 1.3374 2.3495 1.0111 0
M  V30 32 H -0.1583 3.2944 1.1834 0
M  V30 33 H -0.1188 1.6013 1.7275 0
M  V30 34 H -3.7158 -1.3894 -1.6564 0
M  V30 35 H 2.4705 -2.9961 4.1984 0
M  V30 36 H 4.6708 -2.4142 3.2266 0
M  V30 37 H 3.7352 -3.4015 2.0923 0
M  V30 38 H 3.8863 -1.6593 1.828 0
M  V30 39 H 1.6978 -0.7025 4.7829 0
M  V30 40 H 2.6547 -0.0246 3.4589 0
M  V30 41 H 3.4647 -0.8183 4.821 0
M  V30 END ATOM
M  V30 BEGIN BOND
M  V30 1 1 1 2
M  V30 2 2 2 3
M  V30 3 1 2 4
M  V30 4 1 3 5
M  V30 5 1 3 6
M  V30 6 2 4 7
M  V30 7 2 5 8
M  V30 8 1 5 9
M  V30 9 1 6 10
M  V30 10 2 6 11
M  V30 11 1 9 12
M  V30 12 1 9 13
M  V30 13 1 10 14
M  V30 14 1 10 15
M  V30 15 2 14 16
M  V30 16 2 15 17
M  V30 17 1 16 18
M  V30 18 2 18 19
M  V30 19 1 18 20
M  V30 20 1 19 21
M  V30 21 2 20 22
M  V30 22 1 22 23
M  V30 23 1 23 24
M  V30 24 1 23 25
M  V30 25 1 7 11
M  V30 26 1 12 14
M  V30 27 1 16 17
M  V30 28 1 21 22
M  V30 29 1 4 26
M  V30 30 1 7 27
M  V30 31 1 11 28
M  V30 32 1 12 29
M  V30 33 1 12 30
M  V30 34 1 13 31
M  V30 35 1 13 32
M  V30 36 1 13 33
M  V30 37 1 15 34
M  V30 38 1 23 35
M  V30 39 1 24 36
M  V30 40 1 24 37
M  V30 41 1 24 38
M  V30 42 1 25 39
M  V30 43 1 25 40
M  V30 44 1 25 41
M  V30 END BOND
M  V30 END CTAB
M  END
>  <NO.>
345

>  <Name>
fg-8205

>  <SMILES>
CC(C)c1nc(-c2ncn3c2CN(C)C(=O)c2c(Cl)cccc2-3)no1

>  <logBB>
-0.3

>  <Class>
1

>  <MW>
357.1

>  <nHBAcc>
5

>  <nHBDon>
0

>  <SLogP>
3.28

>  <TopoPSA>
77.05

>  <MMFF94 Energy>
43.991

$$$$
CC(C)c1nc(-c2ncn3c2CNC(=O)c2c(Cl)cccc2-3)no1
Actelion Java MolfileCreator 2.0

  0  0  0  0  0  0              0 V3000
M  V30 BEGIN CTAB
M  V30 COUNTS 38 41 0 0 0
M  V30 BEGIN ATOM
M  V30 1 Cl 4.8118 0.1628 4.5667 0
M  V30 2 C 4.5525 -0.0683 2.8708 0
M  V30 3 C 3.2796 -0.2415 2.2983 0
M  V30 4 C 5.6934 -0.011 2.059 0
M  V30 5 C 2.0956 -0.3973 3.1871 0
M  V30 6 C 3.1798 -0.3332 0.8923 0
M  V30 7 C 5.5845 -0.1188 0.6749 0
M  V30 8 O 2.133 -1.1428 4.1595 0
M  V30 9 N 0.9379 0.2703 2.8887 0
M  V30 10 N 1.9271 -0.4422 0.2423 0
M  V30 11 C 4.3313 -0.2718 0.0882 0
M  V30 12 C 0.7066 1.1173 1.7502 0
M  V30 13 C 0.7721 0.2402 0.5686 0
M  V30 14 C 1.6438 -1.1885 -0.8748 0
M  V30 15 C -0.1503 -0.1182 -0.3996 0
M  V30 16 N 0.4139 -1.0034 -1.2942 0
M  V30 17 C -1.5495 0.307 -0.559 0
M  V30 18 N -2.1696 1.191 0.2374 0
M  V30 19 N -2.3283 -0.1883 -1.5767 0
M  V30 20 O -3.454 1.2668 -0.3037 0
M  V30 21 C -3.4727 0.4214 -1.375 0
M  V30 22 C -4.751 0.3221 -2.1315 0
M  V30 23 C -4.5553 0.776 -3.5769 0
M  V30 24 C -5.2944 -1.1045 -2.0811 0
M  V30 25 H 6.6763 0.1264 2.5061 0
M  V30 26 H 6.4769 -0.0675 0.0544 0
M  V30 27 H 0.1767 0.102 3.5362 0
M  V30 28 H 4.2725 -0.3184 -0.9981 0
M  V30 29 H 1.4719 1.9001 1.7165 0
M  V30 30 H -0.2636 1.5966 1.8873 0
M  V30 31 H 2.365 -1.8493 -1.3377 0
M  V30 32 H -5.4927 0.9837 -1.6661 0
M  V30 33 H -5.5017 0.7397 -4.127 0
M  V30 34 H -4.1828 1.806 -3.6167 0
M  V30 35 H -3.8334 0.1421 -4.1044 0
M  V30 36 H -5.4533 -1.4266 -1.0457 0
M  V30 37 H -4.6029 -1.816 -2.5468 0
M  V30 38 H -6.2537 -1.1737 -2.6051 0
M  V30 END ATOM
M  V30 BEGIN BOND
M  V30 1 1 1 2
M  V30 2 2 2 3
M  V30 3 1 2 4
M  V30 4 1 3 5
M  V30 5 1 3 6
M  V30 6 2 4 7
M  V30 7 2 5 8
M  V30 8 1 5 9
M  V30 9 1 6 10
M  V30 10 2 6 11
M  V30 11 1 9 12
M  V30 12 1 10 13
M  V30 13 1 10 14
M  V30 14 2 13 15
M  V30 15 2 14 16
M  V30 16 1 15 17
M  V30 17 2 17 18
M  V30 18 1 17 19
M  V30 19 1 18 20
M  V30 20 2 19 21
M  V30 21 1 21 22
M  V30 22 1 22 23
M  V30 23 1 22 24
M  V30 24 1 7 11
M  V30 25 1 12 13
M  V30 26 1 15 16
M  V30 27 1 20 21
M  V30 28 1 4 25
M  V30 29 1 7 26
M  V30 30 1 9 27
M  V30 31 1 11 28
M  V30 32 1 12 29
M  V30 33 1 12 30
M  V30 34 1 14 31
M  V30 35 1 22 32
M  V30 36 1 23 33
M  V30 37 1 23 34
M  V30 38 1 23 35
M  V30 39 1 24 36
M  V30 40 1 24 37
M  V30 41 1 24 38
M  V30 END BOND
M  V30 END CTAB
M  END
>  <NO.>
348

>  <Name>


>  <SMILES>
CC(C)c1nc(-c2ncn3c2CNC(=O)c2c(Cl)cccc2-3)no1

>  <logBB>
-0.3

>  <Class>
1

>  <MW>
343.08

>  <nHBAcc>
5

>  <nHBDon>
1

>  <SLogP>
2.94

>  <TopoPSA>
85.84

>  <MMFF94 Energy>
33.716

$$$$
CCC1(C)CC(=O)NC1=O
Actelion Java MolfileCreator 2.0

  0  0  0  0  0  0              0 V3000
M  V30 BEGIN CTAB
M  V30 COUNTS 21 21 0 0 0
M  V30 BEGIN ATOM
M  V30 1 O -0.5475 2.2697 -0.2346 0
M  V30 2 C 0.1438 1.3198 -0.5633 0
M  V30 3 N 1.0826 1.3607 -1.5406 0
M  V30 4 C 0.1398 -0.0628 0.0696 0 CFG=2
M  V30 5 C 1.6824 0.1691 -1.7657 0
M  V30 6 C 1.0482 -0.8671 -0.8862 0
M  V30 7 C -1.2756 -0.6735 0.0978 0
M  V30 8 C 0.7849 0.0309 1.4571 0
M  V30 9 O 2.5695 -0.0345 -2.577 0
M  V30 10 C -2.2255 -0.1021 1.1441 0
M  V30 11 H 1.3024 2.1964 -2.0585 0
M  V30 12 H 1.8223 -1.4339 -0.3599 0
M  V30 13 H 0.4798 -1.5507 -1.5264 0
M  V30 14 H -1.1972 -1.7539 0.2757 0
M  V30 15 H -1.7442 -0.553 -0.8877 0
M  V30 16 H 0.7985 -0.9463 1.9514 0
M  V30 17 H 0.2528 0.7367 2.1042 0
M  V30 18 H 1.8194 0.3887 1.3916 0
M  V30 19 H -3.2114 -0.5682 1.0424 0
M  V30 20 H -1.8728 -0.3057 2.1595 0
M  V30 21 H -2.3571 0.9768 1.0303 0
M  V30 END ATOM
M  V30 BEGIN BOND
M  V30 1 2 1 2
M  V30 2 1 2 3
M  V30 3 1 2 4
M  V30 4 1 3 5
M  V30 5 1 4 6
M  V30 6 1 4 7
M  V30 7 1 4 8
M  V30 8 2 5 9
M  V30 9 1 7 10
M  V30 10 1 5 6
M  V30 11 1 3 11
M  V30 12 1 6 12
M  V30 13 1 6 13
M  V30 14 1 7 14
M  V30 15 1 7 15
M  V30 16 1 8 16
M  V30 17 1 8 17
M  V30 18 1 8 18
M  V30 19 1 10 19
M  V30 20 1 10 20
M  V30 21 1 10 21
M  V30 END BOND
M  V30 BEGIN COLLECTION
M  V30 MDLV30/STERAC1 ATOMS=(1 4)
M  V30 END COLLECTION
M  V30 END CTAB
M  END
>  <NO.>
352

>  <Name>
ethosuximide

>  <SMILES>
CCC1(C)CC(=O)NC1=O

>  <logBB>
-0.3

>  <Class>
1

>  <MW>
141.08

>  <nHBAcc>
2

>  <nHBDon>
1

>  <SLogP>
0.45

>  <TopoPSA>
46.17

>  <MMFF94 Energy>
-43.033

$$$$
CCOC(=O)c1ncn2c1CN(C)C(=O)c1cc(F)ccc1-2
Actelion Java MolfileCreator 2.0

  0  0  0  0  0  0              0 V3000
M  V30 BEGIN CTAB
M  V30 COUNTS 36 38 0 0 0
M  V30 BEGIN ATOM
M  V30 1 F 2.0876 5.7892 -1.0433 0
M  V30 2 C 1.8542 4.4709 -1.0452 0
M  V30 3 C 1.4723 3.8413 0.1328 0
M  V30 4 C 1.9969 3.7554 -2.2267 0
M  V30 5 C 1.2135 2.4613 0.145 0
M  V30 6 C 1.7599 2.3809 -2.234 0
M  V30 7 C 0.857 1.8785 1.4733 0
M  V30 8 C 1.374 1.729 -1.0484 0
M  V30 9 O 1.4078 2.3513 2.4656 0
M  V30 10 N -0.0762 0.8522 1.5463 0
M  V30 11 N 1.1465 0.3346 -1.0957 0
M  V30 12 C -0.8237 0.3746 0.4007 0
M  V30 13 C -0.349 0.2186 2.8261 0
M  V30 14 C 0.1339 -0.3495 -0.4567 0
M  V30 15 C 1.8587 -0.5896 -1.8141 0
M  V30 16 C 0.2952 -1.6854 -0.8086 0
M  V30 17 N 1.3696 -1.7987 -1.6795 0
M  V30 18 C -0.4803 -2.8615 -0.3883 0
M  V30 19 O -0.3087 -3.9856 -0.8461 0
M  V30 20 O -1.4129 -2.5706 0.5684 0
M  V30 21 C -2.1931 -3.6789 1.0395 0
M  V30 22 C -3.4049 -3.8806 0.1493 0
M  V30 23 H 1.3839 4.4332 1.0412 0
M  V30 24 H 2.2933 4.2743 -3.134 0
M  V30 25 H 1.8663 1.8429 -3.1743 0
M  V30 26 H -1.6693 -0.2312 0.7316 0
M  V30 27 H -1.2488 1.2344 -0.1314 0
M  V30 28 H -1.3965 0.3944 3.0882 0
M  V30 29 H -0.1711 -0.8568 2.7329 0
M  V30 30 H 0.2859 0.6114 3.6242 0
M  V30 31 H 2.7273 -0.3338 -2.4071 0
M  V30 32 H -2.521 -3.4286 2.0539 0
M  V30 33 H -1.5908 -4.5915 1.1142 0
M  V30 34 H -4.0396 -4.6838 0.5343 0
M  V30 35 H -3.9957 -2.9605 0.0905 0
M  V30 36 H -3.1047 -4.1318 -0.8727 0
M  V30 END ATOM
M  V30 BEGIN BOND
M  V30 1 1 1 2
M  V30 2 2 2 3
M  V30 3 1 2 4
M  V30 4 1 3 5
M  V30 5 2 4 6
M  V30 6 1 5 7
M  V30 7 2 5 8
M  V30 8 2 7 9
M  V30 9 1 7 10
M  V30 10 1 8 11
M  V30 11 1 10 12
M  V30 12 1 10 13
M  V30 13 1 11 14
M  V30 14 1 11 15
M  V30 15 2 14 16
M  V30 16 2 15 17
M  V30 17 1 16 18
M  V30 18 2 18 19
M  V30 19 1 18 20
M  V30 20 1 20 21
M  V30 21 1 21 22
M  V30 22 1 6 8
M  V30 23 1 12 14
M  V30 24 1 16 17
M  V30 25 1 3 23
M  V30 26 1 4 24
M  V30 27 1 6 25
M  V30 28 1 12 26
M  V30 29 1 12 27
M  V30 30 1 13 28
M  V30 31 1 13 29
M  V30 32 1 13 30
M  V30 33 1 15 31
M  V30 34 1 21 32
M  V30 35 1 21 33
M  V30 36 1 22 34
M  V30 37 1 22 35
M  V30 38 1 22 36
M  V30 END BOND
M  V30 END CTAB
M  END
>  <NO.>
353

>  <Name>
78755-81-4

>  <SMILES>
CCOC(=O)c1ncn2c1CN(C)C(=O)c1cc(F)ccc1-2

>  <logBB>
-0.3

>  <Class>
1

>  <MW>
303.1

>  <nHBAcc>
4

>  <nHBDon>
0

>  <SLogP>
1.77

>  <TopoPSA>
64.43

>  <MMFF94 Energy>
36.538

$$$$
Cc1ncc2n1-c1ccc(Cl)cc1C(c1ccccc1F)=NC2O
Actelion Java MolfileCreator 2.0

  0  0  0  0  0  0              0 V3000
M  V30 BEGIN CTAB
M  V30 COUNTS 37 40 0 0 0
M  V30 BEGIN ATOM
M  V30 1 Cl -4.3327 -1.5516 1.7968 0
M  V30 2 C -2.6366 -1.3616 1.5816 0
M  V30 3 C -2.1477 -0.8323 0.3882 0
M  V30 4 C -1.7645 -1.7522 2.5951 0
M  V30 5 C -0.7655 -0.6687 0.2066 0
M  V30 6 C -0.3867 -1.6129 2.4196 0
M  V30 7 C -0.2882 -0.1048 -1.0974 0
M  V30 8 C 0.1135 -1.0581 1.2327 0
M  V30 9 N 0.6761 -0.6001 -1.8027 0
M  V30 10 C -0.9706 1.1071 -1.6415 0
M  V30 11 N 1.5128 -0.9764 1.0473 0
M  V30 12 C 1.4176 -1.7487 -1.3165 0 CFG=2
M  V30 13 C -1.3696 2.1563 -0.8098 0
M  V30 14 C -1.1823 1.2084 -3.0225 0
M  V30 15 C 2.1652 -1.3476 -0.1077 0
M  V30 16 C 2.4853 -0.5451 1.9369 0
M  V30 17 O 2.3729 -2.1768 -2.2638 0
M  V30 18 F -1.1426 2.1154 0.5114 0
M  V30 19 C -1.999 3.2818 -1.3366 0
M  V30 20 C -1.8135 2.3367 -3.5528 0
M  V30 21 C 3.5053 -1.2265 0.1791 0
M  V30 22 N 3.6938 -0.7378 1.4427 0
M  V30 23 C 2.2092 0.0958 3.249 0
M  V30 24 C -2.2249 3.3707 -2.7101 0
M  V30 25 H -2.8482 -0.5602 -0.3977 0
M  V30 26 H -2.1502 -2.1822 3.5169 0
M  V30 27 H 0.2761 -1.9716 3.204 0
M  V30 28 H 0.7597 -2.6038 -1.1245 0
M  V30 29 H -0.8577 0.4116 -3.6883 0
M  V30 30 H 2.4154 -1.4112 -2.862 0
M  V30 31 H -2.3013 4.0872 -0.6738 0
M  V30 32 H -1.9784 2.4111 -4.6256 0
M  V30 33 H 4.3415 -1.4489 -0.4717 0
M  V30 34 H 1.3262 0.7406 3.2074 0
M  V30 35 H 2.0664 -0.6604 4.026 0
M  V30 36 H 3.0575 0.7214 3.5461 0
M  V30 37 H -2.7117 4.2501 -3.126 0
M  V30 END ATOM
M  V30 BEGIN BOND
M  V30 1 1 1 2
M  V30 2 2 2 3
M  V30 3 1 2 4
M  V30 4 1 3 5
M  V30 5 2 4 6
M  V30 6 1 5 7
M  V30 7 2 5 8
M  V30 8 2 7 9
M  V30 9 1 7 10
M  V30 10 1 8 11
M  V30 11 1 9 12
M  V30 12 2 10 13
M  V30 13 1 10 14
M  V30 14 1 11 15
M  V30 15 1 11 16
M  V30 16 1 12 17
M  V30 17 1 13 18
M  V30 18 1 13 19
M  V30 19 2 14 20
M  V30 20 2 15 21
M  V30 21 2 16 22
M  V30 22 1 16 23
M  V30 23 2 19 24
M  V30 24 1 6 8
M  V30 25 1 12 15
M  V30 26 1 20 24
M  V30 27 1 21 22
M  V30 28 1 3 25
M  V30 29 1 4 26
M  V30 30 1 6 27
M  V30 31 1 12 28
M  V30 32 1 14 29
M  V30 33 1 17 30
M  V30 34 1 19 31
M  V30 35 1 20 32
M  V30 36 1 21 33
M  V30 37 1 23 34
M  V30 38 1 23 35
M  V30 39 1 23 36
M  V30 40 1 24 37
M  V30 END BOND
M  V30 BEGIN COLLECTION
M  V30 MDLV30/STERAC1 ATOMS=(1 12)
M  V30 END COLLECTION
M  V30 END CTAB
M  END
>  <NO.>
354

>  <Name>
59468-85-8

>  <SMILES>
Cc1ncc2n1-c1ccc(Cl)cc1C(c1ccccc1F)=NC2O

>  <logBB>
-0.3

>  <Class>
1

>  <MW>
341.07

>  <nHBAcc>
3

>  <nHBDon>
1

>  <SLogP>
3.82

>  <TopoPSA>
50.41

>  <MMFF94 Energy>
24.655

$$$$
N#Cc1cc(C2=Nc3ccc(-c4ccccc4F)cc3NC(=O)C2)ccn1
Actelion Java MolfileCreator 2.0

  0  0  0  0  0  0              0 V3000
M  V30 BEGIN CTAB
M  V30 COUNTS 40 43 0 0 0
M  V30 BEGIN ATOM
M  V30 1 F -1.1353 -4.7099 1.1353 0
M  V30 2 C 0.1926 -4.8708 1.2465 0
M  V30 3 C 1.0602 -3.8005 0.9752 0
M  V30 4 C 0.6673 -6.1197 1.6461 0
M  V30 5 C 0.5587 -2.48 0.5544 0
M  V30 6 C 2.4398 -4.0362 1.1185 0
M  V30 7 C 2.0366 -6.3288 1.7831 0
M  V30 8 C 0.9724 -1.3051 1.2052 0
M  V30 9 C -0.3438 -2.3501 -0.5083 0
M  V30 10 C 2.9231 -5.2871 1.5184 0
M  V30 11 C 0.5165 -0.0386 0.8013 0
M  V30 12 C -0.8169 -1.0937 -0.9015 0
M  V30 13 N 1.0033 1.0591 1.5327 0
M  V30 14 C -0.3976 0.0783 -0.2632 0
M  V30 15 C 1.275 2.3054 1.0483 0
M  V30 16 N -1.0185 1.2655 -0.6956 0
M  V30 17 O 1.7122 3.1814 1.794 0
M  V30 18 C 1.0719 2.546 -0.4203 0
M  V30 19 C -0.3806 2.3918 -0.7877 0
M  V30 20 C -1.1436 3.5863 -1.2576 0
M  V30 21 C -2.5096 3.6544 -0.971 0
M  V30 22 C -0.5443 4.605 -1.9959 0
M  V30 23 C -3.2181 4.756 -1.4209 0
M  V30 24 C -1.3359 5.6662 -2.4006 0
M  V30 25 N -2.6534 5.7662 -2.1273 0
M  V30 26 C -4.6246 4.8837 -1.1532 0
M  V30 27 N -5.7608 4.955 -0.9183 0
M  V30 28 H -0.0387 -6.919 1.849 0
M  V30 29 H 3.1561 -3.2448 0.905 0
M  V30 30 H 2.4119 -7.3007 2.0937 0
M  V30 31 H 1.6639 -1.3806 2.0428 0
M  V30 32 H -0.7006 -3.2317 -1.0385 0
M  V30 33 H 3.9943 -5.4471 1.6193 0
M  V30 34 H -1.5398 -1.0282 -1.712 0
M  V30 35 H 1.2351 0.9269 2.5097 0
M  V30 36 H 1.6792 1.8449 -1.0031 0
M  V30 37 H 1.4477 3.5485 -0.638 0
M  V30 38 H -3.0047 2.8666 -0.4095 0
M  V30 39 H 0.5004 4.586 -2.2821 0
M  V30 40 H -0.92 6.4874 -2.9796 0
M  V30 END ATOM
M  V30 BEGIN BOND
M  V30 1 1 1 2
M  V30 2 2 2 3
M  V30 3 1 2 4
M  V30 4 1 3 5
M  V30 5 1 3 6
M  V30 6 2 4 7
M  V30 7 2 5 8
M  V30 8 1 5 9
M  V30 9 2 6 10
M  V30 10 1 8 11
M  V30 11 2 9 12
M  V30 12 1 11 13
M  V30 13 2 11 14
M  V30 14 1 13 15
M  V30 15 1 14 16
M  V30 16 2 15 17
M  V30 17 1 15 18
M  V30 18 2 16 19
M  V30 19 1 19 20
M  V30 20 2 20 21
M  V30 21 1 20 22
M  V30 22 1 21 23
M  V30 23 2 22 24
M  V30 24 2 23 25
M  V30 25 1 23 26
M  V30 26 3 26 27
M  V30 27 1 7 10
M  V30 28 1 12 14
M  V30 29 1 18 19
M  V30 30 1 24 25
M  V30 31 1 4 28
M  V30 32 1 6 29
M  V30 33 1 7 30
M  V30 34 1 8 31
M  V30 35 1 9 32
M  V30 36 1 10 33
M  V30 37 1 12 34
M  V30 38 1 13 35
M  V30 39 1 18 36
M  V30 40 1 18 37
M  V30 41 1 21 38
M  V30 42 1 22 39
M  V30 43 1 24 40
M  V30 END BOND
M  V30 END CTAB
M  END
>  <NO.>
356

>  <Name>
schembl5869149

>  <SMILES>
N#Cc1cc(C2=Nc3ccc(-c4ccccc4F)cc3NC(=O)C2)ccn1

>  <logBB>
-0.3

>  <Class>
1

>  <MW>
356.11

>  <nHBAcc>
4

>  <nHBDon>
1

>  <SLogP>
4.22

>  <TopoPSA>
78.14

>  <MMFF94 Energy>
80.165

$$$$
CCOC(=O)N1CCC(=C2c3ccc(Cl)cc3CCc3cccnc32)CC1
Actelion Java MolfileCreator 2.0

  0  0  0  0  0  0              0 V3000
M  V30 BEGIN CTAB
M  V30 COUNTS 50 53 0 0 0
M  V30 BEGIN ATOM
M  V30 1 Cl 2.4222 -5.9829 2.8263 0
M  V30 2 C 1.7191 -4.4657 2.4228 0
M  V30 3 C 2.2223 -3.2953 2.9891 0
M  V30 4 C 0.6426 -4.4129 1.5497 0
M  V30 5 C 1.6677 -2.0331 2.6807 0
M  V30 6 C 0.0795 -3.177 1.2316 0
M  V30 7 C 0.5956 -1.9775 1.7634 0
M  V30 8 C 2.2582 -0.851 3.4337 0
M  V30 9 C -0.0654 -0.7002 1.3808 0
M  V30 10 C 1.8421 0.5813 3.0775 0
M  V30 11 C -0.5608 0.1982 2.451 0
M  V30 12 C -0.0922 -0.2779 0.0852 0
M  V30 13 C 0.3715 0.8257 3.2801 0
M  V30 14 N -1.901 0.3415 2.5794 0
M  V30 15 C 0.5591 -1.0352 -1.0683 0
M  V30 16 C -0.7255 1.0423 -0.3497 0
M  V30 17 C -0.1126 1.658 4.2903 0
M  V30 18 C -2.3302 1.1507 3.5704 0
M  V30 19 C 1.0188 -0.105 -2.1963 0
M  V30 20 C -1.1657 1.0391 -1.8184 0
M  V30 21 C -1.4862 1.8245 4.4386 0
M  V30 22 N -0.0777 0.6927 -2.7305 0
M  V30 23 C -0.0629 1.0668 -4.0595 0
M  V30 24 O 0.8543 0.8149 -4.8321 0
M  V30 25 O -1.1881 1.743 -4.4189 0
M  V30 26 C -1.2227 2.147 -5.7919 0
M  V30 27 C -2.526 2.8827 -6.0348 0
M  V30 28 H 3.0494 -3.363 3.6938 0
M  V30 29 H 0.2304 -5.3214 1.1204 0
M  V30 30 H -0.7813 -3.1508 0.5653 0
M  V30 31 H 2.0445 -1.0121 4.4997 0
M  V30 32 H 3.3493 -0.9022 3.3176 0
M  V30 33 H 2.1212 0.8226 2.0441 0
M  V30 34 H 2.4155 1.2753 3.7055 0
M  V30 35 H 1.4335 -1.6019 -0.7318 0
M  V30 36 H -0.1719 -1.746 -1.4733 0
M  V30 37 H 0.0151 1.8393 -0.2043 0
M  V30 38 H -1.604 1.2925 0.2508 0
M  V30 39 H 0.5677 2.1709 4.9645 0
M  V30 40 H -3.409 1.2473 3.6528 0
M  V30 41 H 1.7792 0.5955 -1.8299 0
M  V30 42 H 1.4784 -0.6931 -2.9983 0
M  V30 43 H -1.5701 2.0228 -2.0807 0
M  V30 44 H -1.9641 0.3039 -1.977 0
M  V30 45 H -1.8909 2.4618 5.2171 0
M  V30 46 H -1.1709 1.2645 -6.4393 0
M  V30 47 H -0.3783 2.8123 -6.004 0
M  V30 48 H -2.5998 3.2131 -7.0746 0
M  V30 49 H -3.381 2.2377 -5.807 0
M  V30 50 H -2.6032 3.7566 -5.3795 0
M  V30 END ATOM
M  V30 BEGIN BOND
M  V30 1 1 1 2
M  V30 2 2 2 3
M  V30 3 1 2 4
M  V30 4 1 3 5
M  V30 5 2 4 6
M  V30 6 2 5 7
M  V30 7 1 5 8
M  V30 8 1 7 9
M  V30 9 1 8 10
M  V30 10 1 9 11
M  V30 11 2 9 12
M  V30 12 1 10 13
M  V30 13 1 11 14
M  V30 14 1 12 15
M  V30 15 1 12 16
M  V30 16 1 13 17
M  V30 17 2 14 18
M  V30 18 1 15 19
M  V30 19 1 16 20
M  V30 20 2 17 21
M  V30 21 1 19 22
M  V30 22 1 22 23
M  V30 23 2 23 24
M  V30 24 1 23 25
M  V30 25 1 25 26
M  V30 26 1 26 27
M  V30 27 1 6 7
M  V30 28 2 11 13
M  V30 29 1 18 21
M  V30 30 1 20 22
M  V30 31 1 3 28
M  V30 32 1 4 29
M  V30 33 1 6 30
M  V30 34 1 8 31
M  V30 35 1 8 32
M  V30 36 1 10 33
M  V30 37 1 10 34
M  V30 38 1 15 35
M  V30 39 1 15 36
M  V30 40 1 16 37
M  V30 41 1 16 38
M  V30 42 1 17 39
M  V30 43 1 18 40
M  V30 44 1 19 41
M  V30 45 1 19 42
M  V30 46 1 20 43
M  V30 47 1 20 44
M  V30 48 1 21 45
M  V30 49 1 26 46
M  V30 50 1 26 47
M  V30 51 1 27 48
M  V30 52 1 27 49
M  V30 53 1 27 50
M  V30 END BOND
M  V30 END CTAB
M  END
>  <NO.>
359

>  <Name>
loratadine

>  <SMILES>
CCOC(=O)N1CCC(=C2c3ccc(Cl)cc3CCc3cccnc32)CC1

>  <logBB>
-0.3

>  <Class>
1

>  <MW>
382.14

>  <nHBAcc>
3

>  <nHBDon>
0

>  <SLogP>
4.89

>  <TopoPSA>
42.43

>  <MMFF94 Energy>
39.949

$$$$
CC[C@@]1(O)C(=O)OCc2c1cc1n(c2=O)Cc2cc3ccccc3nc2-1
Actelion Java MolfileCreator 2.0

  0  0  0  0  0  0              0 V3000
M  V30 BEGIN CTAB
M  V30 COUNTS 42 46 0 0 0
M  V30 BEGIN ATOM
M  V30 1 O 2.9248 -1.7866 1.9491 0
M  V30 2 C 2.2405 -1.1733 1.1371 0
M  V30 3 N 0.8704 -1.2045 1.1081 0
M  V30 4 C 2.8709 -0.3065 0.09 0
M  V30 5 C 0.0989 -0.4992 0.2039 0
M  V30 6 C 0.0359 -1.9883 2.025 0
M  V30 7 C 2.1109 0.3918 -0.7756 0
M  V30 8 C 4.3578 -0.2626 0.0679 0
M  V30 9 C -1.3037 -0.7846 0.4825 0
M  V30 10 C 0.6585 0.282 -0.7237 0
M  V30 11 C -1.3484 -1.6639 1.558 0
M  V30 12 C 2.7732 1.2973 -1.7827 0 CFG=2
M  V30 13 O 4.9147 0.1746 -1.191 0
M  V30 14 N -2.3598 -0.2862 -0.1723 0
M  V30 15 C -2.5766 -2.0863 2.0171 0
M  V30 16 O 1.9836 1.3332 -2.9808 0
M  V30 17 C 4.1697 0.751 -2.1596 0
M  V30 18 C 2.9712 2.7458 -1.2831 0
M  V30 19 C -3.5624 -0.6973 0.272 0
M  V30 20 C -3.7216 -1.5984 1.3658 0
M  V30 21 O 4.6156 0.8963 -3.299 0
M  V30 22 C 1.6852 3.5036 -0.9733 0
M  V30 23 C -4.7059 -0.2272 -0.3572 0
M  V30 24 C -5.008 -1.9848 1.7768 0
M  V30 25 C -5.9849 -0.6142 0.0545 0
M  V30 26 C -6.1355 -1.4929 1.1216 0
M  V30 27 H 0.2791 -3.0492 1.9127 0
M  V30 28 H 0.2213 -1.6559 3.051 0
M  V30 29 H 4.7376 0.4021 0.8509 0
M  V30 30 H 4.7751 -1.2599 0.2422 0
M  V30 31 H 0.047 0.8281 -1.4372 0
M  V30 32 H -2.6509 -2.773 2.8541 0
M  V30 33 H 2.6064 1.5184 -3.7131 0
M  V30 34 H 3.5045 3.3165 -2.0556 0
M  V30 35 H 3.6137 2.7586 -0.3933 0
M  V30 36 H 1.9183 4.5435 -0.7209 0
M  V30 37 H 1.0074 3.5129 -1.8323 0
M  V30 38 H 1.1604 3.0701 -0.1171 0
M  V30 39 H -4.5998 0.4601 -1.1934 0
M  V30 40 H -5.1403 -2.6718 2.6097 0
M  V30 41 H -6.8594 -0.2264 -0.4622 0
M  V30 42 H -7.1292 -1.7952 1.443 0
M  V30 END ATOM
M  V30 BEGIN BOND
M  V30 1 2 1 2
M  V30 2 1 2 3
M  V30 3 1 2 4
M  V30 4 1 3 5
M  V30 5 1 3 6
M  V30 6 2 4 7
M  V30 7 1 4 8
M  V30 8 1 5 9
M  V30 9 2 5 10
M  V30 10 1 6 11
M  V30 11 1 7 12
M  V30 12 1 8 13
M  V30 13 2 9 14
M  V30 14 2 11 15
M  V30 15 1 12 16
M  V30 16 1 12 17
M  V30 17 1 12 18
M  V30 18 1 14 19
M  V30 19 1 15 20
M  V30 20 2 17 21
M  V30 21 1 18 22
M  V30 22 2 19 23
M  V30 23 2 20 24
M  V30 24 1 23 25
M  V30 25 1 24 26
M  V30 26 1 7 10
M  V30 27 1 9 11
M  V30 28 1 13 17
M  V30 29 1 19 20
M  V30 30 2 25 26
M  V30 31 1 6 27
M  V30 32 1 6 28
M  V30 33 1 8 29
M  V30 34 1 8 30
M  V30 35 1 10 31
M  V30 36 1 15 32
M  V30 37 1 16 33
M  V30 38 1 18 34
M  V30 39 1 18 35
M  V30 40 1 22 36
M  V30 41 1 22 37
M  V30 42 1 22 38
M  V30 43 1 23 39
M  V30 44 1 24 40
M  V30 45 1 25 41
M  V30 46 1 26 42
M  V30 END BOND
M  V30 BEGIN COLLECTION
M  V30 MDLV30/STEABS ATOMS=(1 12)
M  V30 END COLLECTION
M  V30 END CTAB
M  END
>  <NO.>
360

>  <Name>
camptothecin

>  <SMILES>
CC[C@@]1(O)C(=O)OCc2c1cc1n(c2=O)Cc2cc3ccccc3nc2-1

>  <logBB>
-0.29

>  <Class>
1

>  <MW>
348.11

>  <nHBAcc>
5

>  <nHBDon>
1

>  <SLogP>
2.08

>  <TopoPSA>
81.42

>  <MMFF94 Energy>
74.942

$$$$
CC[S@@]1(O)C(=O)OCc2c1cc1n(c2=O)Cc2cc3ccccc3nc2-1
Actelion Java MolfileCreator 2.0

  0  0  0  0  0  0              0 V3000
M  V30 BEGIN CTAB
M  V30 COUNTS 42 46 0 0 0
M  V30 BEGIN ATOM
M  V30 1 S 1.6438 2.7956 -1.2326 0 CFG=2
M  V30 2 O 3.0692 2.273 -0.6667 0
M  V30 3 C 1.5787 4.4626 -0.8153 0
M  V30 4 C 0.4422 1.9625 -0.4066 0
M  V30 5 C 1.7105 2.4563 -2.9348 0
M  V30 6 O 2.6185 5.0975 -0.931 0
M  V30 7 O 0.4367 4.998 -0.3255 0
M  V30 8 C -0.5978 2.7108 0.003 0
M  V30 9 C 0.5214 0.5387 -0.1913 0
M  V30 10 C 2.7999 3.2155 -3.6612 0
M  V30 11 C -0.7606 4.1981 -0.1695 0
M  V30 12 C -1.7431 2.016 0.6895 0
M  V30 13 C -0.4954 -0.0601 0.4316 0
M  V30 14 O -2.7361 2.6388 1.0532 0
M  V30 15 N -1.5951 0.6617 0.8576 0
M  V30 16 C -0.7021 -1.4586 0.7867 0
M  V30 17 C -2.5811 -0.2062 1.5112 0
M  V30 18 N 0.1361 -2.4722 0.5382 0
M  V30 19 C -1.9332 -1.5525 1.4251 0
M  V30 20 C -0.2768 -3.6813 0.9627 0
M  V30 21 C -2.3607 -2.7876 1.8599 0
M  V30 22 C -1.5201 -3.8891 1.6296 0
M  V30 23 C 0.5384 -4.7823 0.7451 0
M  V30 24 C -1.8879 -5.1794 2.045 0
M  V30 25 C 0.169 -6.0653 1.1601 0
M  V30 26 C -1.0442 -6.2634 1.81 0
M  V30 27 H 3.7472 2.9905 -0.5513 0
M  V30 28 H 1.8614 1.3787 -3.0508 0
M  V30 29 H 0.7324 2.7091 -3.3558 0
M  V30 30 H 1.3958 -0.0128 -0.5222 0
M  V30 31 H 2.8131 2.9389 -4.7199 0
M  V30 32 H 3.7863 2.9974 -3.2402 0
M  V30 33 H 2.6391 4.2962 -3.5982 0
M  V30 34 H -1.4066 4.4047 -1.0302 0
M  V30 35 H -1.2545 4.618 0.7135 0
M  V30 36 H -3.5237 -0.1581 0.9575 0
M  V30 37 H -2.7224 0.1262 2.5441 0
M  V30 38 H -3.3158 -2.8998 2.363 0
M  V30 39 H 1.4899 -4.6385 0.2384 0
M  V30 40 H -2.8339 -5.3486 2.5547 0
M  V30 41 H 0.8331 -6.9055 0.9735 0
M  V30 42 H -1.3331 -7.2602 2.1338 0
M  V30 END ATOM
M  V30 BEGIN BOND
M  V30 1 1 1 2
M  V30 2 1 1 3
M  V30 3 1 1 4
M  V30 4 1 1 5
M  V30 5 2 3 6
M  V30 6 1 3 7
M  V30 7 2 4 8
M  V30 8 1 4 9
M  V30 9 1 5 10
M  V30 10 1 7 11
M  V30 11 1 8 12
M  V30 12 2 9 13
M  V30 13 2 12 14
M  V30 14 1 12 15
M  V30 15 1 13 16
M  V30 16 1 15 17
M  V30 17 2 16 18
M  V30 18 1 16 19
M  V30 19 1 18 20
M  V30 20 2 19 21
M  V30 21 1 20 22
M  V30 22 2 20 23
M  V30 23 2 22 24
M  V30 24 1 23 25
M  V30 25 1 24 26
M  V30 26 1 8 11
M  V30 27 1 13 15
M  V30 28 1 17 19
M  V30 29 1 21 22
M  V30 30 2 25 26
M  V30 31 1 2 27
M  V30 32 1 5 28
M  V30 33 1 5 29
M  V30 34 1 9 30
M  V30 35 1 10 31
M  V30 36 1 10 32
M  V30 37 1 10 33
M  V30 38 1 11 34
M  V30 39 1 11 35
M  V30 40 1 17 36
M  V30 41 1 17 37
M  V30 42 1 21 38
M  V30 43 1 23 39
M  V30 44 1 24 40
M  V30 45 1 25 41
M  V30 46 1 26 42
M  V30 END BOND
M  V30 BEGIN COLLECTION
M  V30 MDLV30/STEABS ATOMS=(1 1)
M  V30 END COLLECTION
M  V30 END CTAB
M  END
>  <NO.>
361

>  <Name>
camptothecin

>  <SMILES>
CC[S@@]1(O)C(=O)OCc2c1cc1n(c2=O)Cc2cc3ccccc3nc2-1

>  <logBB>
-0.29

>  <Class>
1

>  <MW>
368.08

>  <nHBAcc>
5

>  <nHBDon>
1

>  <SLogP>
3.73

>  <TopoPSA>
81.42

>  <MMFF94 Energy>
53.472

$$$$
CC(C)NCC(O)c1ccc(NS(C)(=O)=O)cc1
Actelion Java MolfileCreator 2.0

  0  0  0  0  0  0              0 V3000
M  V30 BEGIN CTAB
M  V30 COUNTS 38 38 0 0 0
M  V30 BEGIN ATOM
M  V30 1 S 2.3061 4.7758 0.2383 0
M  V30 2 O 3.6524 5.2261 -0.0471 0
M  V30 3 O 1.2293 4.9629 -0.7065 0
M  V30 4 N 2.4618 3.141 0.6577 0
M  V30 5 C 1.8287 5.48 1.8003 0
M  V30 6 C 1.4423 2.2527 0.2034 0
M  V30 7 C 1.6445 1.5058 -0.9548 0
M  V30 8 C 0.2273 2.1778 0.8794 0
M  V30 9 C 0.6373 0.6561 -1.4212 0
M  V30 10 C -0.7795 1.3291 0.4107 0
M  V30 11 C -0.5868 0.55 -0.7426 0
M  V30 12 C -1.6958 -0.3726 -1.2194 0 CFG=1
M  V30 13 O -1.4366 -0.8479 -2.5463 0
M  V30 14 C -1.9151 -1.5967 -0.2892 0
M  V30 15 N -0.8334 -2.5898 -0.4744 0
M  V30 16 C -0.9554 -3.7361 0.4388 0
M  V30 17 C -2.1161 -4.6541 0.0529 0
M  V30 18 C 0.3568 -4.524 0.3985 0
M  V30 19 H 3.4146 2.8442 0.4364 0
M  V30 20 H 0.8496 5.0927 2.0852 0
M  V30 21 H 2.5838 5.2315 2.5484 0
M  V30 22 H 1.7741 6.564 1.6766 0
M  V30 23 H 2.5718 1.5847 -1.5148 0
M  V30 24 H 0.0535 2.7679 1.7733 0
M  V30 25 H 0.8105 0.0886 -2.3338 0
M  V30 26 H -1.7237 1.2873 0.9502 0
M  V30 27 H -2.6228 0.2105 -1.2744 0
M  V30 28 H -1.1433 -1.7743 -2.4234 0
M  V30 29 H -1.989 -1.2837 0.7581 0
M  V30 30 H -2.8646 -2.0591 -0.5802 0
M  V30 31 H 0.0562 -2.1174 -0.2899 0
M  V30 32 H -1.0989 -3.3817 1.4672 0
M  V30 33 H -2.0346 -4.9858 -0.9882 0
M  V30 34 H -3.0836 -4.1577 0.1772 0
M  V30 35 H -2.1288 -5.5472 0.6875 0
M  V30 36 H 1.2021 -3.8982 0.7066 0
M  V30 37 H 0.5663 -4.9059 -0.6071 0
M  V30 38 H 0.3155 -5.3796 1.0814 0
M  V30 END ATOM
M  V30 BEGIN BOND
M  V30 1 2 1 2
M  V30 2 2 1 3
M  V30 3 1 1 4
M  V30 4 1 1 5
M  V30 5 1 4 6
M  V30 6 2 6 7
M  V30 7 1 6 8
M  V30 8 1 7 9
M  V30 9 2 8 10
M  V30 10 2 9 11
M  V30 11 1 11 12
M  V30 12 1 12 13
M  V30 13 1 12 14
M  V30 14 1 14 15
M  V30 15 1 15 16
M  V30 16 1 16 17
M  V30 17 1 16 18
M  V30 18 1 10 11
M  V30 19 1 4 19
M  V30 20 1 5 20
M  V30 21 1 5 21
M  V30 22 1 5 22
M  V30 23 1 7 23
M  V30 24 1 8 24
M  V30 25 1 9 25
M  V30 26 1 10 26
M  V30 27 1 12 27
M  V30 28 1 13 28
M  V30 29 1 14 29
M  V30 30 1 14 30
M  V30 31 1 15 31
M  V30 32 1 16 32
M  V30 33 1 17 33
M  V30 34 1 17 34
M  V30 35 1 17 35
M  V30 36 1 18 36
M  V30 37 1 18 37
M  V30 38 1 18 38
M  V30 END BOND
M  V30 BEGIN COLLECTION
M  V30 MDLV30/STERAC1 ATOMS=(1 12)
M  V30 END COLLECTION
M  V30 END CTAB
M  END
>  <NO.>
365

>  <Name>
sotalol

>  <SMILES>
CC(C)NCC(O)c1ccc(NS(C)(=O)=O)cc1

>  <logBB>
-0.28

>  <Class>
1

>  <MW>
272.12

>  <nHBAcc>
4

>  <nHBDon>
3

>  <SLogP>
1.09

>  <TopoPSA>
78.43

>  <MMFF94 Energy>
-4.5618

$$$$
CC(Cl)Cl
Actelion Java MolfileCreator 2.0

  0  0  0  0  0  0              0 V3000
M  V30 BEGIN CTAB
M  V30 COUNTS 8 7 0 0 0
M  V30 BEGIN ATOM
M  V30 1 Cl -1.3515 1.1825 -1.0135 0
M  V30 2 C -0.2657 0.5964 0.2675 0
M  V30 3 Cl -1.2067 0.1927 1.722 0
M  V30 4 C 0.5091 -0.6173 -0.2126 0
M  V30 5 H 0.4165 1.4111 0.5262 0
M  V30 6 H -0.1569 -1.4464 -0.4773 0
M  V30 7 H 1.1966 -0.9728 0.5626 0
M  V30 8 H 1.1088 -0.3726 -1.0961 0
M  V30 END ATOM
M  V30 BEGIN BOND
M  V30 1 1 1 2
M  V30 2 1 2 3
M  V30 3 1 2 4
M  V30 4 1 2 5
M  V30 5 1 4 6
M  V30 6 1 4 7
M  V30 7 1 4 8
M  V30 END BOND
M  V30 END CTAB
M  END
>  <NO.>
366

>  <Name>
1,1-dichloroethane (ethylidene chloride)

>  <SMILES>
CC(Cl)Cl

>  <logBB>
-0.28

>  <Class>
1

>  <MW>
97.97

>  <nHBAcc>
0

>  <nHBDon>
0

>  <SLogP>
1.81

>  <TopoPSA>
0

>  <MMFF94 Energy>
0.43763

$$$$
CN(C)Cc1ccnc(-c2cccc(NC3N=CC=C3[N+](=O)[O-])c2)c1
Actelion Java MolfileCreator 2.0

  0  0  0  0  0  0              0 V3000
M  V30 BEGIN CTAB
M  V30 COUNTS 44 46 0 0 0
M  V30 BEGIN ATOM
M  V30 1 O 1.273 3.1051 3.5038 0
M  V30 2 N 0.1076 3.3319 3.8549 0 CHG=1
M  V30 3 O -0.4053 2.9284 4.9075 0 CHG=-1
M  V30 4 C -0.6894 4.1489 3.0011 0
M  V30 5 C -1.8719 4.6302 3.3652 0
M  V30 6 C -0.1729 4.6427 1.7116 0 CFG=2
M  V30 7 C -2.1156 5.5221 2.2356 0
M  V30 8 N -1.2217 5.6092 1.2943 0
M  V30 9 N 0.1227 3.5601 0.7899 0
M  V30 10 C -0.7817 2.6747 0.234 0
M  V30 11 C -0.4402 1.3112 0.1731 0
M  V30 12 C -2.0412 3.0469 -0.2332 0
M  V30 13 C -1.3154 0.3263 -0.3307 0
M  V30 14 C -2.9355 2.0991 -0.7322 0
M  V30 15 C -0.9424 -1.1028 -0.3858 0
M  V30 16 C -2.5767 0.7532 -0.7726 0
M  V30 17 N -1.9593 -1.9829 -0.1988 0
M  V30 18 C 0.3636 -1.536 -0.625 0
M  V30 19 C -1.6688 -3.3014 -0.2362 0
M  V30 20 C 0.6463 -2.9073 -0.6649 0
M  V30 21 C -0.4008 -3.8055 -0.4568 0
M  V30 22 C 2.0538 -3.4034 -0.9091 0
M  V30 23 N 2.1558 -4.3259 -2.0533 0
M  V30 24 C 3.4724 -4.9666 -2.0634 0
M  V30 25 C 1.934 -3.6299 -3.3242 0
M  V30 26 H -2.4638 4.496 4.2498 0
M  V30 27 H 0.7476 5.2186 1.87 0
M  V30 28 H -3.0459 6.1108 2.2252 0
M  V30 29 H 1.0821 3.2322 0.8487 0
M  V30 30 H 0.5281 1.0054 0.5644 0
M  V30 31 H -2.3389 4.0902 -0.2574 0
M  V30 32 H -3.9098 2.4111 -1.0986 0
M  V30 33 H -3.2879 0.0268 -1.1634 0
M  V30 34 H 1.1566 -0.8161 -0.8001 0
M  V30 35 H -2.5137 -3.9654 -0.0791 0
M  V30 36 H -0.2315 -4.8772 -0.4824 0
M  V30 37 H 2.3614 -3.9177 0.0117 0
M  V30 38 H 2.7435 -2.5576 -1.0328 0
M  V30 39 H 3.6304 -5.5373 -1.1413 0
M  V30 40 H 4.2864 -4.2394 -2.1637 0
M  V30 41 H 3.5458 -5.6834 -2.8889 0
M  V30 42 H 2.6556 -2.8202 -3.4836 0
M  V30 43 H 0.9245 -3.2088 -3.3777 0
M  V30 44 H 2.0158 -4.3309 -4.1627 0
M  V30 END ATOM
M  V30 BEGIN BOND
M  V30 1 2 1 2
M  V30 2 1 2 3
M  V30 3 1 2 4
M  V30 4 2 4 5
M  V30 5 1 4 6
M  V30 6 1 5 7
M  V30 7 1 6 8
M  V30 8 1 6 9
M  V30 9 1 9 10
M  V30 10 2 10 11
M  V30 11 1 10 12
M  V30 12 1 11 13
M  V30 13 2 12 14
M  V30 14 1 13 15
M  V30 15 2 13 16
M  V30 16 2 15 17
M  V30 17 1 15 18
M  V30 18 1 17 19
M  V30 19 2 18 20
M  V30 20 2 19 21
M  V30 21 1 20 22
M  V30 22 1 22 23
M  V30 23 1 23 24
M  V30 24 1 23 25
M  V30 25 2 7 8
M  V30 26 1 14 16
M  V30 27 1 20 21
M  V30 28 1 5 26
M  V30 29 1 6 27
M  V30 30 1 7 28
M  V30 31 1 9 29
M  V30 32 1 11 30
M  V30 33 1 12 31
M  V30 34 1 14 32
M  V30 35 1 16 33
M  V30 36 1 18 34
M  V30 37 1 19 35
M  V30 38 1 21 36
M  V30 39 1 22 37
M  V30 40 1 22 38
M  V30 41 1 24 39
M  V30 42 1 24 40
M  V30 43 1 24 41
M  V30 44 1 25 42
M  V30 45 1 25 43
M  V30 46 1 25 44
M  V30 END BOND
M  V30 BEGIN COLLECTION
M  V30 MDLV30/STERAC1 ATOMS=(1 6)
M  V30 END COLLECTION
M  V30 END CTAB
M  END
>  <NO.>
367

>  <Name>
compound 38

>  <SMILES>
CN(C)Cc1ccnc(-c2cccc(NC3N=CC=C3[N+](=O)[O-])c2)c1

>  <logBB>
-0.28

>  <Class>
1

>  <MW>
337.15

>  <nHBAcc>
6

>  <nHBDon>
1

>  <SLogP>
2.79

>  <TopoPSA>
83.66

>  <MMFF94 Energy>
6.5485

$$$$
CN(C)Cc1ccnc(-c2cccc(NC3NC=CC3[N+](=O)[O-])c2)c1
Actelion Java MolfileCreator 2.0

  0  0  0  0  0  0              0 V3000
M  V30 BEGIN CTAB
M  V30 COUNTS 46 48 0 0 0
M  V30 BEGIN ATOM
M  V30 1 O -0.0792 6.9122 1.8237 0
M  V30 2 N 0.0078 5.8199 2.4047 0 CHG=1
M  V30 3 O -0.851 5.3642 3.1736 0 CHG=-1
M  V30 4 C 1.2196 4.9689 2.1735 0
M  V30 5 C 2.4715 5.7286 2.5755 0
M  V30 6 C 1.3767 4.7587 0.6466 0
M  V30 7 C 3.263 5.8712 1.5071 0
M  V30 8 N 2.7016 5.3074 0.4013 0
M  V30 9 N 1.4875 3.3701 0.2837 0
M  V30 10 C 0.4458 2.4755 0.178 0
M  V30 11 C 0.7405 1.1166 -0.0197 0
M  V30 12 C -0.8999 2.8414 0.241 0
M  V30 13 C -0.254 0.1232 -0.1403 0
M  V30 14 C -1.911 1.8838 0.1369 0
M  V30 15 C 0.1185 -1.2926 -0.3454 0
M  V30 16 C -1.5905 0.5389 -0.0469 0
M  V30 17 N 1.2802 -1.6853 0.2375 0
M  V30 18 C -0.6565 -2.1782 -1.0978 0
M  V30 19 C 1.6607 -2.9722 0.0845 0
M  V30 20 C -0.2464 -3.5092 -1.2472 0
M  V30 21 C 0.9444 -3.907 -0.6388 0
M  V30 22 C -1.0576 -4.4839 -2.0715 0
M  V30 23 N -1.4201 -5.708 -1.3362 0
M  V30 24 C -1.9574 -6.7074 -2.2616 0
M  V30 25 C -2.4008 -5.4307 -0.2826 0
M  V30 26 H 1.1049 4.0406 2.7429 0
M  V30 27 H 2.6809 6.0913 3.5702 0
M  V30 28 H 0.6454 5.2797 0.0184 0
M  V30 29 H 4.2222 6.3711 1.4491 0
M  V30 30 H 3.0524 5.4583 -0.5351 0
M  V30 31 H 2.4383 3.0242 0.2571 0
M  V30 32 H 1.7843 0.8085 -0.0813 0
M  V30 33 H -1.2032 3.8757 0.3694 0
M  V30 34 H -2.9526 2.1888 0.2041 0
M  V30 35 H -2.4024 -0.1823 -0.0994 0
M  V30 36 H -1.567 -1.8367 -1.5795 0
M  V30 37 H 2.5905 -3.2409 0.5773 0
M  V30 38 H 1.3008 -4.9288 -0.7225 0
M  V30 39 H -0.4361 -4.7415 -2.9399 0
M  V30 40 H -1.9562 -3.9946 -2.4709 0
M  V30 41 H -1.2136 -6.9665 -3.0234 0
M  V30 42 H -2.8641 -6.3576 -2.7686 0
M  V30 43 H -2.1949 -7.6361 -1.7306 0
M  V30 44 H -3.3255 -4.9982 -0.6819 0
M  V30 45 H -1.9956 -4.7456 0.4695 0
M  V30 46 H -2.6575 -6.3523 0.2522 0
M  V30 END ATOM
M  V30 BEGIN BOND
M  V30 1 2 1 2
M  V30 2 1 2 3
M  V30 3 1 2 4
M  V30 4 1 4 5
M  V30 5 1 4 6
M  V30 6 2 5 7
M  V30 7 1 6 8
M  V30 8 1 6 9
M  V30 9 1 9 10
M  V30 10 2 10 11
M  V30 11 1 10 12
M  V30 12 1 11 13
M  V30 13 2 12 14
M  V30 14 1 13 15
M  V30 15 2 13 16
M  V30 16 2 15 17
M  V30 17 1 15 18
M  V30 18 1 17 19
M  V30 19 2 18 20
M  V30 20 2 19 21
M  V30 21 1 20 22
M  V30 22 1 22 23
M  V30 23 1 23 24
M  V30 24 1 23 25
M  V30 25 1 7 8
M  V30 26 1 14 16
M  V30 27 1 20 21
M  V30 28 1 4 26
M  V30 29 1 5 27
M  V30 30 1 6 28
M  V30 31 1 7 29
M  V30 32 1 8 30
M  V30 33 1 9 31
M  V30 34 1 11 32
M  V30 35 1 12 33
M  V30 36 1 14 34
M  V30 37 1 16 35
M  V30 38 1 18 36
M  V30 39 1 19 37
M  V30 40 1 21 38
M  V30 41 1 22 39
M  V30 42 1 22 40
M  V30 43 1 24 41
M  V30 44 1 24 42
M  V30 45 1 24 43
M  V30 46 1 25 44
M  V30 47 1 25 45
M  V30 48 1 25 46
M  V30 END BOND
M  V30 END CTAB
M  END
>  <NO.>
368

>  <Name>
bbcpd19 (ranitidine analog)

>  <SMILES>
CN(C)Cc1ccnc(-c2cccc(NC3NC=CC3[N+](=O)[O-])c2)c1

>  <logBB>
-0.28

>  <Class>
1

>  <MW>
339.17

>  <nHBAcc>
6

>  <nHBDon>
2

>  <SLogP>
2.31

>  <TopoPSA>
83.33

>  <MMFF94 Energy>
54.388

$$$$
CN(C)Cc1ccnc(-c2cccc(Nc3[nH]ccc3[N+](=O)[O-])c2)c1
Actelion Java MolfileCreator 2.0

  0  0  0  0  0  0              0 V3000
M  V30 BEGIN CTAB
M  V30 COUNTS 44 46 0 0 0
M  V30 BEGIN ATOM
M  V30 1 O 2.2195 4.4429 4.6019 0
M  V30 2 N 1.2699 4.2299 3.836 0 CHG=1
M  V30 3 O 0.0868 4.5339 4.0504 0 CHG=-1
M  V30 4 C 1.577 3.5862 2.5845 0
M  V30 5 C 0.6555 3.158 1.6382 0
M  V30 6 C 2.8767 3.2649 2.096 0
M  V30 7 N 1.376 2.656 0.5783 0
M  V30 8 N -0.6986 3.2398 1.6036 0
M  V30 9 C 2.7184 2.6907 0.8548 0
M  V30 10 C -1.6196 2.5012 0.8311 0
M  V30 11 C -1.3672 1.1977 0.3749 0
M  V30 12 C -2.8258 3.1099 0.4663 0
M  V30 13 C -2.2817 0.4934 -0.4355 0
M  V30 14 C -3.755 2.4361 -0.3241 0
M  V30 15 C -2.0082 -0.8794 -0.9102 0
M  V30 16 C -3.4829 1.1419 -0.7681 0
M  V30 17 N -3.0928 -1.6824 -1.0562 0
M  V30 18 C -0.7226 -1.3346 -1.2048 0
M  V30 19 C -2.8888 -2.9504 -1.4735 0
M  V30 20 C -0.5258 -2.6563 -1.6286 0
M  V30 21 C -1.6437 -3.4774 -1.7687 0
M  V30 22 C 0.858 -3.1628 -1.9713 0
M  V30 23 N 1.8715 -2.8389 -0.9503 0
M  V30 24 C 3.2124 -3.1092 -1.4738 0
M  V30 25 C 1.6568 -3.6111 0.2779 0
M  V30 26 H 3.8202 3.4496 2.5953 0
M  V30 27 H 0.9642 2.3324 -0.2864 0
M  V30 28 H -1.1628 3.8327 2.2983 0
M  V30 29 H 3.4405 2.318 0.1399 0
M  V30 30 H -0.4654 0.6912 0.7107 0
M  V30 31 H -3.0485 4.1232 0.7924 0
M  V30 32 H -4.6909 2.9169 -0.5963 0
M  V30 33 H -4.2219 0.6284 -1.382 0
M  V30 34 H 0.1355 -0.6761 -1.1116 0
M  V30 35 H -3.7877 -3.5532 -1.5683 0
M  V30 36 H -1.5563 -4.5056 -2.1022 0
M  V30 37 H 1.1274 -2.6885 -2.9248 0
M  V30 38 H 0.8341 -4.2452 -2.1561 0
M  V30 39 H 3.4094 -2.4985 -2.362 0
M  V30 40 H 3.3481 -4.1634 -1.7418 0
M  V30 41 H 3.9758 -2.8392 -0.7354 0
M  V30 42 H 1.7019 -4.6918 0.1001 0
M  V30 43 H 0.6888 -3.3763 0.7333 0
M  V30 44 H 2.4156 -3.3554 1.0264 0
M  V30 END ATOM
M  V30 BEGIN BOND
M  V30 1 2 1 2
M  V30 2 1 2 3
M  V30 3 1 2 4
M  V30 4 2 4 5
M  V30 5 1 4 6
M  V30 6 1 5 7
M  V30 7 1 5 8
M  V30 8 2 6 9
M  V30 9 1 8 10
M  V30 10 2 10 11
M  V30 11 1 10 12
M  V30 12 1 11 13
M  V30 13 2 12 14
M  V30 14 1 13 15
M  V30 15 2 13 16
M  V30 16 2 15 17
M  V30 17 1 15 18
M  V30 18 1 17 19
M  V30 19 2 18 20
M  V30 20 2 19 21
M  V30 21 1 20 22
M  V30 22 1 22 23
M  V30 23 1 23 24
M  V30 24 1 23 25
M  V30 25 1 7 9
M  V30 26 1 14 16
M  V30 27 1 20 21
M  V30 28 1 6 26
M  V30 29 1 7 27
M  V30 30 1 8 28
M  V30 31 1 9 29
M  V30 32 1 11 30
M  V30 33 1 12 31
M  V30 34 1 14 32
M  V30 35 1 16 33
M  V30 36 1 18 34
M  V30 37 1 19 35
M  V30 38 1 21 36
M  V30 39 1 22 37
M  V30 40 1 22 38
M  V30 41 1 24 39
M  V30 42 1 24 40
M  V30 43 1 24 41
M  V30 44 1 25 42
M  V30 45 1 25 43
M  V30 46 1 25 44
M  V30 END BOND
M  V30 END CTAB
M  END
>  <NO.>
369

>  <Name>
112598-49-9

>  <SMILES>
CN(C)Cc1ccnc(-c2cccc(Nc3[nH]ccc3[N+](=O)[O-])c2)c1

>  <logBB>
-0.28

>  <Class>
1

>  <MW>
337.15

>  <nHBAcc>
5

>  <nHBDon>
2

>  <SLogP>
3.79

>  <TopoPSA>
87.09

>  <MMFF94 Energy>
91.108

$$$$
Cc1cc(Br)cc(C)c1NC1=NCCN1
Actelion Java MolfileCreator 2.0

  0  0  0  0  0  0              0 V3000
M  V30 BEGIN CTAB
M  V30 COUNTS 29 30 0 0 0
M  V30 BEGIN ATOM
M  V30 1 Br -2.9584 4.0795 -1.8382 0
M  V30 2 C -2.09 2.4691 -1.3624 0
M  V30 3 C -2.118 2.0332 -0.0415 0
M  V30 4 C -1.434 1.7242 -2.3362 0
M  V30 5 C -1.4849 0.8336 0.3263 0
M  V30 6 C -0.7785 0.5323 -1.9906 0
M  V30 7 C -0.7764 0.0916 -0.646 0
M  V30 8 C -1.585 0.391 1.7627 0
M  V30 9 C -0.0568 -0.2432 -3.0613 0
M  V30 10 N -0.1086 -1.1016 -0.3249 0
M  V30 11 C 0.9059 -1.2968 0.5465 0
M  V30 12 N 1.3582 -2.4779 0.8749 0
M  V30 13 N 1.5478 -0.2384 1.0863 0
M  V30 14 C 2.4648 -2.1945 1.8387 0
M  V30 15 C 2.6736 -0.6741 1.8538 0
M  V30 16 H -2.6465 2.6175 0.7087 0
M  V30 17 H -1.4252 2.0711 -3.3669 0
M  V30 18 H -0.7338 0.7675 2.3369 0
M  V30 19 H -1.6297 -0.6993 1.8445 0
M  V30 20 H -2.5033 0.7726 2.2232 0
M  V30 21 H 1.0114 -0.3045 -2.8301 0
M  V30 22 H -0.4721 -1.2526 -3.1448 0
M  V30 23 H -0.1563 0.2353 -4.0413 0
M  V30 24 H -0.4606 -1.9388 -0.7688 0
M  V30 25 H 1.4206 0.7069 0.7595 0
M  V30 26 H 3.3758 -2.7152 1.527 0
M  V30 27 H 2.1781 -2.5616 2.8302 0
M  V30 28 H 2.6619 -0.2705 2.87 0
M  V30 29 H 3.6116 -0.398 1.3628 0
M  V30 END ATOM
M  V30 BEGIN BOND
M  V30 1 1 1 2
M  V30 2 2 2 3
M  V30 3 1 2 4
M  V30 4 1 3 5
M  V30 5 2 4 6
M  V30 6 2 5 7
M  V30 7 1 5 8
M  V30 8 1 6 9
M  V30 9 1 7 10
M  V30 10 1 10 11
M  V30 11 2 11 12
M  V30 12 1 11 13
M  V30 13 1 12 14
M  V30 14 1 13 15
M  V30 15 1 6 7
M  V30 16 1 14 15
M  V30 17 1 3 16
M  V30 18 1 4 17
M  V30 19 1 8 18
M  V30 20 1 8 19
M  V30 21 1 8 20
M  V30 22 1 9 21
M  V30 23 1 9 22
M  V30 24 1 9 23
M  V30 25 1 10 24
M  V30 26 1 13 25
M  V30 27 1 14 26
M  V30 28 1 14 27
M  V30 29 1 15 28
M  V30 30 1 15 29
M  V30 END BOND
M  V30 END CTAB
M  END
>  <NO.>
370

>  <Name>
65936-23-4

>  <SMILES>
Cc1cc(Br)cc(C)c1NC1=NCCN1

>  <logBB>
-0.28

>  <Class>
1

>  <MW>
267.04

>  <nHBAcc>
3

>  <nHBDon>
2

>  <SLogP>
2.44

>  <TopoPSA>
36.42

>  <MMFF94 Energy>
-29.641

$$$$
N=C(N)SCCF
Actelion Java MolfileCreator 2.0

  0  0  0  0  0  0              0 V3000
M  V30 BEGIN CTAB
M  V30 COUNTS 14 13 0 0 0
M  V30 BEGIN ATOM
M  V30 1 S -0.1584 -1.2684 0.634 0
M  V30 2 C 0.9768 0.0129 0.9322 0
M  V30 3 C -1.5082 -0.3792 -0.1974 0
M  V30 4 N 0.7787 1.1958 0.4815 0
M  V30 5 N 2.0499 -0.3491 1.6554 0
M  V30 6 C -1.1993 -0.0644 -1.6506 0
M  V30 7 F -2.33 0.429 -2.2345 0
M  V30 8 H -2.3949 -1.0217 -0.1609 0
M  V30 9 H -1.7784 0.5297 0.3503 0
M  V30 10 H 1.5558 1.794 0.7676 0
M  V30 11 H 2.7818 0.297 1.9046 0
M  V30 12 H 2.1221 -1.3057 1.9758 0
M  V30 13 H -0.9158 -0.962 -2.2085 0
M  V30 14 H -0.416 0.6875 -1.7686 0
M  V30 END ATOM
M  V30 BEGIN BOND
M  V30 1 1 1 2
M  V30 2 1 1 3
M  V30 3 2 2 4
M  V30 4 1 2 5
M  V30 5 1 3 6
M  V30 6 1 6 7
M  V30 7 1 3 8
M  V30 8 1 3 9
M  V30 9 1 4 10
M  V30 10 1 5 11
M  V30 11 1 5 12
M  V30 12 1 6 13
M  V30 13 1 6 14
M  V30 END BOND
M  V30 END CTAB
M  END
>  <NO.>
371

>  <Name>
unii-13w6wjx09r

>  <SMILES>
N=C(N)SCCF

>  <logBB>
-0.27

>  <Class>
1

>  <MW>
122.03

>  <nHBAcc>
2

>  <nHBDon>
2

>  <SLogP>
0.58

>  <TopoPSA>
49.87

>  <MMFF94 Energy>
-85.14

$$$$
CN(C)Cc1ccc(-c2cccc(Nc3[nH]ccc3[N+](=O)[O-])c2)o1
Actelion Java MolfileCreator 2.0

  0  0  0  0  0  0              0 V3000
M  V30 BEGIN CTAB
M  V30 COUNTS 42 44 0 0 0
M  V30 BEGIN ATOM
M  V30 1 O 1.8233 -5.796 -0.3169 0
M  V30 2 N 2.7795 -6.0641 0.426 0 CHG=1
M  V30 3 O 3.2774 -7.1867 0.5844 0 CHG=-1
M  V30 4 C 3.3771 -4.9789 1.161 0
M  V30 5 C 2.9089 -3.6726 1.2133 0
M  V30 6 C 4.548 -5.0489 1.9702 0
M  V30 7 N 3.8047 -2.9571 1.975 0
M  V30 8 N 1.8504 -3.0747 0.6105 0
M  V30 9 C 4.786 -3.7837 2.4583 0
M  V30 10 C 1.2026 -1.8652 0.9388 0
M  V30 11 C 0.6245 -1.1116 -0.0968 0
M  V30 12 C 1.1464 -1.3574 2.2409 0
M  V30 13 C 0.0012 0.1242 0.1447 0
M  V30 14 C 0.5288 -0.1344 2.5036 0
M  V30 15 C -0.5905 0.8869 -0.9525 0
M  V30 16 C -0.0363 0.6009 1.4616 0
M  V30 17 O -1.018 2.1498 -0.6497 0
M  V30 18 C -0.8314 0.6342 -2.2897 0
M  V30 19 C -1.5437 2.6943 -1.7842 0
M  V30 20 C -1.4416 1.7954 -2.8245 0
M  V30 21 C -2.073 4.0859 -1.6805 0
M  V30 22 N -3.3854 4.1611 -1.0116 0
M  V30 23 C -4.4444 3.5522 -1.8174 0
M  V30 24 C -3.7183 5.5559 -0.7209 0
M  V30 25 H 5.1545 -5.9268 2.1574 0
M  V30 26 H 3.7506 -1.9591 2.1282 0
M  V30 27 H 1.3613 -3.5925 -0.1254 0
M  V30 28 H 5.5731 -3.3966 3.0925 0
M  V30 29 H 0.6813 -1.4946 -1.1129 0
M  V30 30 H 1.5405 -1.9287 3.0768 0
M  V30 31 H 0.4753 0.2424 3.5218 0
M  V30 32 H -0.519 1.5501 1.6886 0
M  V30 33 H -0.6021 -0.2792 -2.8189 0
M  V30 34 H -1.772 1.9569 -3.8407 0
M  V30 35 H -1.3373 4.6651 -1.1064 0
M  V30 36 H -2.1176 4.5408 -2.6788 0
M  V30 37 H -4.2711 2.4807 -1.9604 0
M  V30 38 H -4.5378 4.024 -2.8023 0
M  V30 39 H -5.4107 3.6356 -1.3064 0
M  V30 40 H -3.7926 6.1621 -1.6311 0
M  V30 41 H -2.9627 6.0057 -0.0669 0
M  V30 42 H -4.6715 5.6216 -0.184 0
M  V30 END ATOM
M  V30 BEGIN BOND
M  V30 1 2 1 2
M  V30 2 1 2 3
M  V30 3 1 2 4
M  V30 4 2 4 5
M  V30 5 1 4 6
M  V30 6 1 5 7
M  V30 7 1 5 8
M  V30 8 2 6 9
M  V30 9 1 8 10
M  V30 10 2 10 11
M  V30 11 1 10 12
M  V30 12 1 11 13
M  V30 13 2 12 14
M  V30 14 1 13 15
M  V30 15 2 13 16
M  V30 16 1 15 17
M  V30 17 2 15 18
M  V30 18 1 17 19
M  V30 19 1 18 20
M  V30 20 1 19 21
M  V30 21 1 21 22
M  V30 22 1 22 23
M  V30 23 1 22 24
M  V30 24 1 7 9
M  V30 25 1 14 16
M  V30 26 2 19 20
M  V30 27 1 6 25
M  V30 28 1 7 26
M  V30 29 1 8 27
M  V30 30 1 9 28
M  V30 31 1 11 29
M  V30 32 1 12 30
M  V30 33 1 14 31
M  V30 34 1 16 32
M  V30 35 1 18 33
M  V30 36 1 20 34
M  V30 37 1 21 35
M  V30 38 1 21 36
M  V30 39 1 23 37
M  V30 40 1 23 38
M  V30 41 1 23 39
M  V30 42 1 24 40
M  V30 43 1 24 41
M  V30 44 1 24 42
M  V30 END BOND
M  V30 END CTAB
M  END
>  <NO.>
372

>  <Name>
chembl358151

>  <SMILES>
CN(C)Cc1ccc(-c2cccc(Nc3[nH]ccc3[N+](=O)[O-])c2)o1

>  <logBB>
-0.27

>  <Class>
1

>  <MW>
326.14

>  <nHBAcc>
5

>  <nHBDon>
2

>  <SLogP>
3.99

>  <TopoPSA>
87.34

>  <MMFF94 Energy>
83.463

$$$$
CN(C)Cc1ccc(-c2cccc(NC3N=CC=C3[N+](=O)[O-])c2)o1
Actelion Java MolfileCreator 2.0

  0  0  0  0  0  0              0 V3000
M  V30 BEGIN CTAB
M  V30 COUNTS 42 44 0 0 0
M  V30 BEGIN ATOM
M  V30 1 O 5.1019 -3.665 1.9108 0
M  V30 2 N 5.1965 -2.7668 1.0646 0 CHG=1
M  V30 3 O 6.0772 -1.8961 1.052 0 CHG=-1
M  V30 4 C 4.2416 -2.7566 0.0068 0
M  V30 5 C 4.3768 -1.9993 -1.0749 0
M  V30 6 C 3.1157 -3.7079 -0.02 0 CFG=2
M  V30 7 C 3.2702 -2.5276 -1.8662 0
M  V30 8 N 2.5394 -3.4837 -1.3719 0
M  V30 9 N 2.2189 -3.5284 1.108 0
M  V30 10 C 1.4501 -2.4151 1.3903 0
M  V30 11 C 0.7631 -1.6789 0.4188 0
M  V30 12 C 1.3836 -1.9626 2.7142 0
M  V30 13 C 0.0376 -0.5146 0.7319 0
M  V30 14 C 0.6723 -0.8109 3.053 0
M  V30 15 C -0.6691 0.2205 -0.3151 0
M  V30 16 C 0.0075 -0.0886 2.0647 0
M  V30 17 O -1.1767 1.4413 0.0364 0
M  V30 18 C -0.959 -0.0276 -1.6435 0
M  V30 19 C -1.7913 1.965 -1.0623 0
M  V30 20 C -1.6787 1.0928 -2.1236 0
M  V30 21 C -2.4237 3.3057 -0.8993 0
M  V30 22 N -3.8546 3.3065 -1.2613 0
M  V30 23 C -4.3503 4.6824 -1.325 0
M  V30 24 C -4.6439 2.5414 -0.2905 0
M  V30 25 H 5.1098 -1.2687 -1.3567 0
M  V30 26 H 3.4914 -4.7386 9.0E-4 0
M  V30 27 H 3.0978 -2.1087 -2.8695 0
M  V30 28 H 2.4456 -4.118 1.9036 0
M  V30 29 H 0.7537 -2.0373 -0.6047 0
M  V30 30 H 1.905 -2.5008 3.5028 0
M  V30 31 H 0.6392 -0.4761 4.0863 0
M  V30 32 H -0.5445 0.8051 2.3462 0
M  V30 33 H -0.6949 -0.9155 -2.1998 0
M  V30 34 H -2.0827 1.2491 -3.1139 0
M  V30 35 H -2.2783 3.6759 0.1239 0
M  V30 36 H -1.8802 3.9915 -1.5626 0
M  V30 37 H -3.8034 5.2545 -2.0827 0
M  V30 38 H -4.2561 5.2026 -0.3648 0
M  V30 39 H -5.4043 4.6986 -1.6243 0
M  V30 40 H -4.5513 2.9418 0.7256 0
M  V30 41 H -4.3465 1.4876 -0.2752 0
M  V30 42 H -5.7043 2.554 -0.5672 0
M  V30 END ATOM
M  V30 BEGIN BOND
M  V30 1 2 1 2
M  V30 2 1 2 3
M  V30 3 1 2 4
M  V30 4 2 4 5
M  V30 5 1 4 6
M  V30 6 1 5 7
M  V30 7 1 6 8
M  V30 8 1 6 9
M  V30 9 1 9 10
M  V30 10 2 10 11
M  V30 11 1 10 12
M  V30 12 1 11 13
M  V30 13 2 12 14
M  V30 14 1 13 15
M  V30 15 2 13 16
M  V30 16 1 15 17
M  V30 17 2 15 18
M  V30 18 1 17 19
M  V30 19 1 18 20
M  V30 20 1 19 21
M  V30 21 1 21 22
M  V30 22 1 22 23
M  V30 23 1 22 24
M  V30 24 2 7 8
M  V30 25 1 14 16
M  V30 26 2 19 20
M  V30 27 1 5 25
M  V30 28 1 6 26
M  V30 29 1 7 27
M  V30 30 1 9 28
M  V30 31 1 11 29
M  V30 32 1 12 30
M  V30 33 1 14 31
M  V30 34 1 16 32
M  V30 35 1 18 33
M  V30 36 1 20 34
M  V30 37 1 21 35
M  V30 38 1 21 36
M  V30 39 1 23 37
M  V30 40 1 23 38
M  V30 41 1 23 39
M  V30 42 1 24 40
M  V30 43 1 24 41
M  V30 44 1 24 42
M  V30 END BOND
M  V30 BEGIN COLLECTION
M  V30 MDLV30/STERAC1 ATOMS=(1 6)
M  V30 END COLLECTION
M  V30 END CTAB
M  END
>  <NO.>
373

>  <Name>
compound 37

>  <SMILES>
CN(C)Cc1ccc(-c2cccc(NC3N=CC=C3[N+](=O)[O-])c2)o1

>  <logBB>
-0.27

>  <Class>
1

>  <MW>
326.14

>  <nHBAcc>
6

>  <nHBDon>
1

>  <SLogP>
2.99

>  <TopoPSA>
83.91

>  <MMFF94 Energy>
-3.7971

$$$$
CN(C)c1ccc(-c2cccc(Nc3[nH]ccc3[N+](=O)[O-])c2)o1
Actelion Java MolfileCreator 2.0

  0  0  0  0  0  0              0 V3000
M  V30 BEGIN CTAB
M  V30 COUNTS 39 41 0 0 0
M  V30 BEGIN ATOM
M  V30 1 O 4.5203 -4.5203 -1.188 0
M  V30 2 N 3.9858 -3.806 -0.3291 0 CHG=1
M  V30 3 O 4.5533 -3.319 0.6602 0 CHG=-1
M  V30 4 C 2.5809 -3.5337 -0.4933 0
M  V30 5 C 1.8186 -2.6751 0.288 0
M  V30 6 C 1.7236 -4.0876 -1.4876 0
M  V30 7 N 0.5253 -2.7549 -0.1774 0
M  V30 8 N 2.1452 -1.9226 1.3697 0
M  V30 9 C 0.4607 -3.587 -1.2655 0
M  V30 10 C 1.4616 -0.8277 1.9382 0
M  V30 11 C 0.6206 0.0192 1.2028 0
M  V30 12 C 1.5845 -0.6034 3.3147 0
M  V30 13 C -0.0981 1.0645 1.8097 0
M  V30 14 C 0.8877 0.4325 3.9372 0
M  V30 15 C -0.9782 1.9269 1.0242 0
M  V30 16 C 0.0487 1.2587 3.1888 0
M  V30 17 O -1.1529 1.5782 -0.2852 0
M  V30 18 C -1.722 3.0578 1.294 0
M  V30 19 C -1.9991 2.4797 -0.8579 0
M  V30 20 C -2.3756 3.4103 0.0868 0
M  V30 21 N -2.3012 2.3144 -2.1687 0
M  V30 22 C -1.5974 1.3101 -2.9491 0
M  V30 23 C -3.059 3.3269 -2.8802 0
M  V30 24 H 2.0022 -4.7862 -2.267 0
M  V30 25 H -0.2625 -2.279 0.2418 0
M  V30 26 H 3.058 -2.0815 1.8057 0
M  V30 27 H -0.4788 -3.7584 -1.7745 0
M  V30 28 H 0.5511 -0.1035 0.1248 0
M  V30 29 H 2.218 -1.2489 3.9188 0
M  V30 30 H 0.9928 0.5904 5.0075 0
M  V30 31 H -0.4882 2.054 3.6993 0
M  V30 32 H -1.7889 3.5718 2.2416 0
M  V30 33 H -3.0407 4.2456 -0.0716 0
M  V30 34 H -1.6107 0.3347 -2.4496 0
M  V30 35 H -0.5564 1.6101 -3.1107 0
M  V30 36 H -2.0622 1.1679 -3.9307 0
M  V30 37 H -2.4376 4.209 -3.0686 0
M  V30 38 H -3.9455 3.6347 -2.3147 0
M  V30 39 H -3.4164 2.9536 -3.846 0
M  V30 END ATOM
M  V30 BEGIN BOND
M  V30 1 2 1 2
M  V30 2 1 2 3
M  V30 3 1 2 4
M  V30 4 2 4 5
M  V30 5 1 4 6
M  V30 6 1 5 7
M  V30 7 1 5 8
M  V30 8 2 6 9
M  V30 9 1 8 10
M  V30 10 2 10 11
M  V30 11 1 10 12
M  V30 12 1 11 13
M  V30 13 2 12 14
M  V30 14 1 13 15
M  V30 15 2 13 16
M  V30 16 1 15 17
M  V30 17 2 15 18
M  V30 18 1 17 19
M  V30 19 1 18 20
M  V30 20 1 19 21
M  V30 21 1 21 22
M  V30 22 1 21 23
M  V30 23 1 7 9
M  V30 24 1 14 16
M  V30 25 2 19 20
M  V30 26 1 6 24
M  V30 27 1 7 25
M  V30 28 1 8 26
M  V30 29 1 9 27
M  V30 30 1 11 28
M  V30 31 1 12 29
M  V30 32 1 14 30
M  V30 33 1 16 31
M  V30 34 1 18 32
M  V30 35 1 20 33
M  V30 36 1 22 34
M  V30 37 1 22 35
M  V30 38 1 22 36
M  V30 39 1 23 37
M  V30 40 1 23 38
M  V30 41 1 23 39
M  V30 END BOND
M  V30 END CTAB
M  END
>  <NO.>
374

>  <Name>
bbcpd18 (ranitidine analog)

>  <SMILES>
CN(C)c1ccc(-c2cccc(Nc3[nH]ccc3[N+](=O)[O-])c2)o1

>  <logBB>
-0.27

>  <Class>
1

>  <MW>
312.12

>  <nHBAcc>
5

>  <nHBDon>
2

>  <SLogP>
3.99

>  <TopoPSA>
87.34

>  <MMFF94 Energy>
51.257

$$$$
CN1CN(c2ccccc2)C2(CCN(CCCC(=O)c3csc(I)c3)CC2)C1=O
Actelion Java MolfileCreator 2.0

  0  0  0  0  0  0              0 V3000
M  V30 BEGIN CTAB
M  V30 COUNTS 55 58 0 0 0
M  V30 BEGIN ATOM
M  V30 1 I -3.2649 9.0798 -4.2459 0
M  V30 2 C -3.1098 7.2105 -3.3227 0
M  V30 3 S -4.2351 6.6436 -2.1938 0
M  V30 4 C -2.0943 6.3221 -3.5659 0
M  V30 5 C -3.3714 5.1743 -2.0045 0
M  V30 6 C -2.235 5.1133 -2.7949 0
M  V30 7 C -1.2973 3.982 -2.8484 0
M  V30 8 O -0.3127 4.0319 -3.5848 0
M  V30 9 C -1.5825 2.7628 -1.9843 0
M  V30 10 C -0.5031 1.6877 -2.1206 0
M  V30 11 C -0.8338 0.4124 -1.3345 0
M  V30 12 N -1.1064 0.6433 0.0924 0
M  V30 13 C 0.0566 1.1024 0.8651 0
M  V30 14 C -1.7011 -0.5361 0.7382 0
M  V30 15 C 1.1385 0.0366 1.0529 0
M  V30 16 C -0.7278 -1.7036 0.9127 0
M  V30 17 C 0.5736 -1.2756 1.6057 0
M  V30 18 N 1.5853 -2.3671 1.5889 0
M  V30 19 C 0.3159 -1.1284 3.1231 0
M  V30 20 C 1.9974 -3.0381 0.4611 0
M  V30 21 C 1.7527 -2.9831 2.8882 0
M  V30 22 O -0.3964 -0.3004 3.6716 0
M  V30 23 N 1.0283 -2.1212 3.7694 0
M  V30 24 C 2.9422 -2.4739 -0.4028 0
M  V30 25 C 1.5021 -4.3096 0.1396 0
M  V30 26 C 1.0313 -2.3327 5.1951 0
M  V30 27 C 3.3703 -3.1441 -1.5527 0
M  V30 28 C 1.9237 -4.9862 -1.0089 0
M  V30 29 C 2.8584 -4.4013 -1.8569 0
M  V30 30 H -1.2771 6.5006 -4.2563 0
M  V30 31 H -3.7531 4.4335 -1.3145 0
M  V30 32 H -1.6465 3.0962 -0.9426 0
M  V30 33 H -2.5519 2.349 -2.2853 0
M  V30 34 H -0.3923 1.4163 -3.1785 0
M  V30 35 H 0.469 2.0903 -1.8126 0
M  V30 36 H -1.7288 -0.0229 -1.7986 0
M  V30 37 H -0.0278 -0.3145 -1.485 0
M  V30 38 H -0.2936 1.4527 1.8436 0
M  V30 39 H 0.5006 1.9926 0.4059 0
M  V30 40 H -2.104 -0.2377 1.7138 0
M  V30 41 H -2.5756 -0.8739 0.1677 0
M  V30 42 H 1.6212 -0.1252 0.0849 0
M  V30 43 H 1.9175 0.4301 1.7185 0
M  V30 44 H -1.2248 -2.4992 1.483 0
M  V30 45 H -0.5166 -2.1274 -0.076 0
M  V30 46 H 1.3128 -3.9839 2.9497 0
M  V30 47 H 2.8059 -3.0111 3.186 0
M  V30 48 H 3.378 -1.5055 -0.1718 0
M  V30 49 H 0.7563 -4.7811 0.7744 0
M  V30 50 H 0.4282 -1.5756 5.703 0
M  V30 51 H 0.6189 -3.3233 5.406 0
M  V30 52 H 2.0609 -2.2791 5.559 0
M  V30 53 H 4.1077 -2.6829 -2.2044 0
M  V30 54 H 1.5172 -5.967 -1.2406 0
M  V30 55 H 3.1889 -4.9238 -2.7504 0
M  V30 END ATOM
M  V30 BEGIN BOND
M  V30 1 1 1 2
M  V30 2 1 2 3
M  V30 3 2 2 4
M  V30 4 1 3 5
M  V30 5 1 4 6
M  V30 6 1 6 7
M  V30 7 2 7 8
M  V30 8 1 7 9
M  V30 9 1 9 10
M  V30 10 1 10 11
M  V30 11 1 11 12
M  V30 12 1 12 13
M  V30 13 1 12 14
M  V30 14 1 13 15
M  V30 15 1 14 16
M  V30 16 1 15 17
M  V30 17 1 17 18
M  V30 18 1 17 19
M  V30 19 1 18 20
M  V30 20 1 18 21
M  V30 21 2 19 22
M  V30 22 1 19 23
M  V30 23 2 20 24
M  V30 24 1 20 25
M  V30 25 1 23 26
M  V30 26 1 24 27
M  V30 27 2 25 28
M  V30 28 2 27 29
M  V30 29 2 5 6
M  V30 30 1 16 17
M  V30 31 1 21 23
M  V30 32 1 28 29
M  V30 33 1 4 30
M  V30 34 1 5 31
M  V30 35 1 9 32
M  V30 36 1 9 33
M  V30 37 1 10 34
M  V30 38 1 10 35
M  V30 39 1 11 36
M  V30 40 1 11 37
M  V30 41 1 13 38
M  V30 42 1 13 39
M  V30 43 1 14 40
M  V30 44 1 14 41
M  V30 45 1 15 42
M  V30 46 1 15 43
M  V30 47 1 16 44
M  V30 48 1 16 45
M  V30 49 1 21 46
M  V30 50 1 21 47
M  V30 51 1 24 48
M  V30 52 1 25 49
M  V30 53 1 26 50
M  V30 54 1 26 51
M  V30 55 1 26 52
M  V30 56 1 27 53
M  V30 57 1 28 54
M  V30 58 1 29 55
M  V30 END BOND
M  V30 END CTAB
M  END
>  <NO.>
377

>  <Name>
i-1

>  <SMILES>
CN1CN(c2ccccc2)C2(CCN(CCCC(=O)c3csc(I)c3)CC2)C1=O

>  <logBB>
-0.25

>  <Class>
1

>  <MW>
523.08

>  <nHBAcc>
5

>  <nHBDon>
0

>  <SLogP>
4.09

>  <TopoPSA>
43.86

>  <MMFF94 Energy>
25.097

$$$$
CN1CN(c2ccccc2)C2(CCN(CCCC(=O)c3ccc(I)s3)CC2)C1=O
Actelion Java MolfileCreator 2.0

  0  0  0  0  0  0              0 V3000
M  V30 BEGIN CTAB
M  V30 COUNTS 55 58 0 0 0
M  V30 BEGIN ATOM
M  V30 1 I 0.3262 -1.0604 -8.6715 0
M  V30 2 C -0.5808 -0.2163 -6.9866 0
M  V30 3 S -0.4205 -0.866 -5.4329 0
M  V30 4 C -1.3604 0.9105 -7.0257 0
M  V30 5 C -1.4074 0.365 -4.7483 0
M  V30 6 C -1.8418 1.2489 -5.7231 0
M  V30 7 C -1.6662 0.3528 -3.3101 0
M  V30 8 O -1.2643 -0.536 -2.559 0
M  V30 9 C -2.4853 1.5204 -2.7637 0
M  V30 10 C -2.6184 1.5252 -1.2376 0
M  V30 11 C -1.2859 1.8365 -0.5386 0
M  V30 12 N -1.4162 2.0869 0.9023 0
M  V30 13 C -0.1497 2.5411 1.4965 0
M  V30 14 C -1.9761 0.9805 1.6882 0
M  V30 15 C 0.9099 1.4426 1.6431 0
M  V30 16 C -1.0448 -0.2243 1.8518 0
M  V30 17 C 0.3562 0.1852 2.3289 0
M  V30 18 N 1.3327 -0.9524 2.292 0
M  V30 19 C 0.2662 0.4808 3.8473 0
M  V30 20 C 1.8177 -1.6544 1.2031 0
M  V30 21 C 1.7773 -1.3002 3.6332 0
M  V30 22 O -0.4088 1.3409 4.3946 0
M  V30 23 N 1.0923 -0.4028 4.5017 0
M  V30 24 C 2.7755 -2.6804 1.3451 0
M  V30 25 C 1.4043 -1.4153 -0.1137 0
M  V30 26 C 1.2827 -0.4488 5.93 0
M  V30 27 C 3.2769 -3.4113 0.257 0
M  V30 28 C 1.8904 -2.1406 -1.2122 0
M  V30 29 C 2.8308 -3.1412 -1.0269 0
M  V30 30 H -1.5832 1.4709 -7.9259 0
M  V30 31 H -2.4786 2.104 -5.5282 0
M  V30 32 H -2.031 2.4622 -3.0922 0
M  V30 33 H -3.4894 1.4511 -3.1991 0
M  V30 34 H -3.3579 2.2869 -0.9601 0
M  V30 35 H -3.0098 0.5562 -0.9082 0
M  V30 36 H -0.5686 1.0397 -0.7361 0
M  V30 37 H -0.8766 2.7425 -1.0045 0
M  V30 38 H -0.3638 2.9852 2.4761 0
M  V30 39 H 0.2667 3.3676 0.9065 0
M  V30 40 H -2.248 1.3689 2.6774 0
M  V30 41 H -2.932 0.6464 1.2704 0
M  V30 42 H 1.3134 1.2128 0.6527 0
M  V30 43 H 1.757 1.846 2.214 0
M  V30 44 H -1.4983 -0.9246 2.5661 0
M  V30 45 H -1.0134 -0.7641 0.9026 0
M  V30 46 H 1.4972 -2.3244 3.9038 0
M  V30 47 H 2.8542 -1.1439 3.7604 0
M  V30 48 H 3.1698 -2.9508 2.3202 0
M  V30 49 H 0.671 -0.6551 -0.3434 0
M  V30 50 H 0.676 0.3107 6.4299 0
M  V30 51 H 0.9934 -1.4386 6.2938 0
M  V30 52 H 2.3385 -0.2709 6.152 0
M  V30 53 H 4.0132 -4.1929 0.4236 0
M  V30 54 H 1.5154 -1.9156 -2.2082 0
M  V30 55 H 3.2073 -3.7056 -1.8745 0
M  V30 END ATOM
M  V30 BEGIN BOND
M  V30 1 1 1 2
M  V30 2 1 2 3
M  V30 3 2 2 4
M  V30 4 1 3 5
M  V30 5 1 4 6
M  V30 6 1 5 7
M  V30 7 2 7 8
M  V30 8 1 7 9
M  V30 9 1 9 10
M  V30 10 1 10 11
M  V30 11 1 11 12
M  V30 12 1 12 13
M  V30 13 1 12 14
M  V30 14 1 13 15
M  V30 15 1 14 16
M  V30 16 1 15 17
M  V30 17 1 17 18
M  V30 18 1 17 19
M  V30 19 1 18 20
M  V30 20 1 18 21
M  V30 21 2 19 22
M  V30 22 1 19 23
M  V30 23 2 20 24
M  V30 24 1 20 25
M  V30 25 1 23 26
M  V30 26 1 24 27
M  V30 27 2 25 28
M  V30 28 2 27 29
M  V30 29 2 5 6
M  V30 30 1 16 17
M  V30 31 1 21 23
M  V30 32 1 28 29
M  V30 33 1 4 30
M  V30 34 1 6 31
M  V30 35 1 9 32
M  V30 36 1 9 33
M  V30 37 1 10 34
M  V30 38 1 10 35
M  V30 39 1 11 36
M  V30 40 1 11 37
M  V30 41 1 13 38
M  V30 42 1 13 39
M  V30 43 1 14 40
M  V30 44 1 14 41
M  V30 45 1 15 42
M  V30 46 1 15 43
M  V30 47 1 16 44
M  V30 48 1 16 45
M  V30 49 1 21 46
M  V30 50 1 21 47
M  V30 51 1 24 48
M  V30 52 1 25 49
M  V30 53 1 26 50
M  V30 54 1 26 51
M  V30 55 1 26 52
M  V30 56 1 27 53
M  V30 57 1 28 54
M  V30 58 1 29 55
M  V30 END BOND
M  V30 END CTAB
M  END
>  <NO.>
379

>  <Name>
8-[4-(5-(123i)iodanylthiophen-2-yl)-4-oxobutyl]-3-methyl-1-phenyl-1,3,8-triazaspiro[4.5]decan-4-one

>  <SMILES>
CN1CN(c2ccccc2)C2(CCN(CCCC(=O)c3ccc(I)s3)CC2)C1=O

>  <logBB>
-0.25

>  <Class>
1

>  <MW>
523.08

>  <nHBAcc>
5

>  <nHBDon>
0

>  <SLogP>
4.09

>  <TopoPSA>
43.86

>  <MMFF94 Energy>
25.148

$$$$
CN1Cc2c(C(=O)OC(C)(C)C)ncn2-c2ccsc2C1=O
Actelion Java MolfileCreator 2.0

  0  0  0  0  0  0              0 V3000
M  V30 BEGIN CTAB
M  V30 COUNTS 39 41 0 0 0
M  V30 BEGIN ATOM
M  V30 1 S 2.9143 1.2135 4.5361 0
M  V30 2 C 2.1205 0.7277 3.0854 0
M  V30 3 C 4.0487 2.1649 3.6925 0
M  V30 4 C 1.071 -0.2911 3.1906 0
M  V30 5 C 2.7032 1.3378 1.9813 0
M  V30 6 C 3.8402 2.133 2.3332 0
M  V30 7 O 1.0 -1.062 4.1494 0
M  V30 8 N 0.1593 -0.4058 2.1395 0
M  V30 9 N 2.263 1.1564 0.6381 0
M  V30 10 C -0.1006 0.671 1.2119 0
M  V30 11 C -0.7225 -1.5584 2.0794 0
M  V30 12 C 1.0035 0.7594 0.2367 0
M  V30 13 C 2.9852 1.3717 -0.5071 0
M  V30 14 C 1.0685 0.619 -1.1455 0
M  V30 15 N 2.3165 1.0346 -1.5839 0
M  V30 16 C 0.0324 0.1693 -2.0878 0
M  V30 17 O 0.1593 0.2316 -3.3039 0
M  V30 18 O -1.0706 -0.3276 -1.4567 0
M  V30 19 C -2.2006 -0.8281 -2.2172 0
M  V30 20 C -2.8436 0.2806 -3.0576 0
M  V30 21 C -3.2133 -1.282 -1.1538 0
M  V30 22 C -1.8092 -2.0421 -3.0664 0
M  V30 23 H 4.8188 2.699 4.2333 0
M  V30 24 H 4.4658 2.6866 1.6427 0
M  V30 25 H -0.1756 1.6087 1.7781 0
M  V30 26 H -1.0782 0.529 0.7457 0
M  V30 27 H -0.7393 -1.9381 1.0539 0
M  V30 28 H -0.3907 -2.3619 2.7421 0
M  V30 29 H -1.7291 -1.2466 2.3736 0
M  V30 30 H 4.0038 1.735 -0.501 0
M  V30 31 H -2.1984 0.5968 -3.8826 0
M  V30 32 H -3.7923 -0.0498 -3.4942 0
M  V30 33 H -3.0322 1.171 -2.4472 0
M  V30 34 H -3.4819 -0.4508 -0.4911 0
M  V30 35 H -4.1301 -1.6747 -1.606 0
M  V30 36 H -2.7838 -2.061 -0.5135 0
M  V30 37 H -1.1442 -1.7685 -3.8909 0
M  V30 38 H -1.2724 -2.782 -2.462 0
M  V30 39 H -2.6908 -2.5229 -3.5039 0
M  V30 END ATOM
M  V30 BEGIN BOND
M  V30 1 1 1 2
M  V30 2 1 1 3
M  V30 3 1 2 4
M  V30 4 2 2 5
M  V30 5 2 3 6
M  V30 6 2 4 7
M  V30 7 1 4 8
M  V30 8 1 5 9
M  V30 9 1 8 10
M  V30 10 1 8 11
M  V30 11 1 9 12
M  V30 12 1 9 13
M  V30 13 2 12 14
M  V30 14 2 13 15
M  V30 15 1 14 16
M  V30 16 2 16 17
M  V30 17 1 16 18
M  V30 18 1 18 19
M  V30 19 1 19 20
M  V30 20 1 19 21
M  V30 21 1 19 22
M  V30 22 1 5 6
M  V30 23 1 10 12
M  V30 24 1 14 15
M  V30 25 1 3 23
M  V30 26 1 6 24
M  V30 27 1 10 25
M  V30 28 1 10 26
M  V30 29 1 11 27
M  V30 30 1 11 28
M  V30 31 1 11 29
M  V30 32 1 13 30
M  V30 33 1 20 31
M  V30 34 1 20 32
M  V30 35 1 20 33
M  V30 36 1 21 34
M  V30 37 1 21 35
M  V30 38 1 21 36
M  V30 39 1 22 37
M  V30 40 1 22 38
M  V30 41 1 22 39
M  V30 END BOND
M  V30 END CTAB
M  END
>  <NO.>
380

>  <Name>
99632-94-7

>  <SMILES>
CN1Cc2c(C(=O)OC(C)(C)C)ncn2-c2ccsc2C1=O

>  <logBB>
-0.25

>  <Class>
1

>  <MW>
319.1

>  <nHBAcc>
5

>  <nHBDon>
0

>  <SLogP>
2.47

>  <TopoPSA>
64.43

>  <MMFF94 Energy>
35.381

$$$$
CNC(=O)c1c(NCC2CCC3(CCC3)CC2)nc(C#N)nc1OC1CC(C)(C)NC(C)(C)C1
Actelion Java MolfileCreator 2.0

  0  0  0  0  0  0              0 V3000
M  V30 BEGIN CTAB
M  V30 COUNTS 74 77 0 0 0
M  V30 BEGIN ATOM
M  V30 1 O -0.7939 -0.2381 -2.7808 0
M  V30 2 C 0.2972 -0.1087 -2.2289 0
M  V30 3 N 1.4753 -0.3891 -2.8886 0
M  V30 4 C 0.3772 0.3654 -0.8152 0
M  V30 5 C 1.4834 -0.8462 -4.2547 0
M  V30 6 C 1.4912 0.1984 -0.0016 0
M  V30 7 C -0.7164 0.9966 -0.2133 0
M  V30 8 O 2.6063 -0.4298 -0.5248 0
M  V30 9 N 1.5565 0.6088 1.2793 0
M  V30 10 N -0.6729 1.4213 1.068 0
M  V30 11 N -1.872 1.2776 -0.9208 0
M  V30 12 C 3.7135 -0.6303 0.373 0
M  V30 13 C 0.4563 1.2056 1.7548 0
M  V30 14 C -3.0067 1.937 -0.3052 0
M  V30 15 C 3.5005 -1.8992 1.1992 0
M  V30 16 C 4.9532 -0.8287 -0.501 0
M  V30 17 C 0.4911 1.6537 3.1215 0
M  V30 18 C -4.1504 2.1118 -1.3262 0
M  V30 19 C 4.7252 -2.2525 2.0604 0
M  V30 20 C 6.2105 -1.1681 0.3181 0
M  V30 21 N 0.5296 2.0108 4.2285 0
M  V30 22 C -4.8232 0.7799 -1.7119 0
M  V30 23 C -5.2125 3.0993 -0.809 0
M  V30 24 N 5.9719 -2.2658 1.2723 0
M  V30 25 C 4.5335 -3.6868 2.606 0
M  V30 26 C 4.8349 -1.3256 3.2841 0
M  V30 27 C 6.7785 0.0782 1.0197 0
M  V30 28 C 7.3026 -1.6619 -0.6591 0
M  V30 29 C -5.6835 0.1918 -0.5919 0
M  V30 30 C -6.0521 2.5229 0.3302 0
M  V30 31 C -6.7209 1.2182 -0.1129 0
M  V30 32 C -7.9681 1.3962 -1.0379 0
M  V30 33 C -7.7096 0.6486 0.9507 0
M  V30 34 C -8.6884 0.3288 -0.1938 0
M  V30 35 H 2.3561 -0.3287 -2.3889 0
M  V30 36 H 0.8906 -0.1675 -4.874 0
M  V30 37 H 1.0507 -1.8492 -4.296 0
M  V30 38 H 2.5161 -0.8705 -4.6097 0
M  V30 39 H -2.0002 0.7614 -1.7946 0
M  V30 40 H 3.8686 0.2553 0.9986 0
M  V30 41 H -2.6916 2.9273 0.0466 0
M  V30 42 H -3.3446 1.3688 0.5679 0
M  V30 43 H 2.6098 -1.7977 1.8317 0
M  V30 44 H 3.2659 -2.7262 0.5132 0
M  V30 45 H 5.1178 0.0711 -1.1088 0
M  V30 46 H 4.7456 -1.6278 -1.2276 0
M  V30 47 H -3.7177 2.5427 -2.2398 0
M  V30 48 H -4.0761 0.0406 -2.02 0
M  V30 49 H -5.4565 0.9565 -2.5907 0
M  V30 50 H -4.7355 4.0297 -0.4789 0
M  V30 51 H -5.8751 3.369 -1.6416 0
M  V30 52 H 6.0259 -3.1529 0.7683 0
M  V30 53 H 3.6207 -3.7613 3.2089 0
M  V30 54 H 5.3753 -3.9893 3.2404 0
M  V30 55 H 4.448 -4.4198 1.7948 0
M  V30 56 H 4.0019 -1.497 3.977 0
M  V30 57 H 4.803 -0.266 3.0266 0
M  V30 58 H 5.7613 -1.5103 3.8404 0
M  V30 59 H 7.157 0.7989 0.2845 0
M  V30 60 H 7.6164 -0.1833 1.6766 0
M  V30 61 H 6.0386 0.6122 1.6172 0
M  V30 62 H 6.9827 -2.5588 -1.2032 0
M  V30 63 H 7.5394 -0.8954 -1.4063 0
M  V30 64 H 8.2313 -1.9076 -0.1302 0
M  V30 65 H -6.1706 -0.719 -0.9598 0
M  V30 66 H -5.048 -0.1165 0.2463 0
M  V30 67 H -5.4231 2.3444 1.2104 0
M  V30 68 H -6.8037 3.2632 0.631 0
M  V30 69 H -8.4415 2.3837 -0.9759 0
M  V30 70 H -7.8381 1.1427 -2.0934 0
M  V30 71 H -8.1014 1.3944 1.6533 0
M  V30 72 H -7.3625 -0.2154 1.5246 0
M  V30 73 H -9.743 0.5247 0.0168 0
M  V30 74 H -8.5908 -0.6884 -0.5888 0
M  V30 END ATOM
M  V30 BEGIN BOND
M  V30 1 2 1 2
M  V30 2 1 2 3
M  V30 3 1 2 4
M  V30 4 1 3 5
M  V30 5 2 4 6
M  V30 6 1 4 7
M  V30 7 1 6 8
M  V30 8 1 6 9
M  V30 9 2 7 10
M  V30 10 1 7 11
M  V30 11 1 8 12
M  V30 12 2 9 13
M  V30 13 1 11 14
M  V30 14 1 12 15
M  V30 15 1 12 16
M  V30 16 1 13 17
M  V30 17 1 14 18
M  V30 18 1 15 19
M  V30 19 1 16 20
M  V30 20 3 17 21
M  V30 21 1 18 22
M  V30 22 1 18 23
M  V30 23 1 19 24
M  V30 24 1 19 25
M  V30 25 1 19 26
M  V30 26 1 20 27
M  V30 27 1 20 28
M  V30 28 1 22 29
M  V30 29 1 23 30
M  V30 30 1 29 31
M  V30 31 1 31 32
M  V30 32 1 31 33
M  V30 33 1 32 34
M  V30 34 1 10 13
M  V30 35 1 20 24
M  V30 36 1 30 31
M  V30 37 1 33 34
M  V30 38 1 3 35
M  V30 39 1 5 36
M  V30 40 1 5 37
M  V30 41 1 5 38
M  V30 42 1 11 39
M  V30 43 1 12 40
M  V30 44 1 14 41
M  V30 45 1 14 42
M  V30 46 1 15 43
M  V30 47 1 15 44
M  V30 48 1 16 45
M  V30 49 1 16 46
M  V30 50 1 18 47
M  V30 51 1 22 48
M  V30 52 1 22 49
M  V30 53 1 23 50
M  V30 54 1 23 51
M  V30 55 1 24 52
M  V30 56 1 25 53
M  V30 57 1 25 54
M  V30 58 1 25 55
M  V30 59 1 26 56
M  V30 60 1 26 57
M  V30 61 1 26 58
M  V30 62 1 27 59
M  V30 63 1 27 60
M  V30 64 1 27 61
M  V30 65 1 28 62
M  V30 66 1 28 63
M  V30 67 1 28 64
M  V30 68 1 29 65
M  V30 69 1 29 66
M  V30 70 1 30 67
M  V30 71 1 30 68
M  V30 72 1 32 69
M  V30 73 1 32 70
M  V30 74 1 33 71
M  V30 75 1 33 72
M  V30 76 1 34 73
M  V30 77 1 34 74
M  V30 END BOND
M  V30 END CTAB
M  END
>  <NO.>
381

>  <Name>
chembl478224

>  <SMILES>
CNC(=O)c1c(NCC2CCC3(CCC3)CC2)nc(C#N)nc1OC1CC(C)(C)NC(C)(C)C1

>  <logBB>
-0.24

>  <Class>
1

>  <MW>
468.32

>  <nHBAcc>
7

>  <nHBDon>
3

>  <SLogP>
4.17

>  <TopoPSA>
111.96

>  <MMFF94 Energy>
23.284

$$$$
NC(=O)c1ccccc1
Actelion Java MolfileCreator 2.0

  0  0  0  0  0  0              0 V3000
M  V30 BEGIN CTAB
M  V30 COUNTS 16 16 0 0 0
M  V30 BEGIN ATOM
M  V30 1 O 1.1676 0.4669 2.5703 0
M  V30 2 C 1.1633 -0.2143 1.5524 0
M  V30 3 N 2.0688 -1.225 1.3901 0
M  V30 4 C 0.2057 0.0447 0.4435 0
M  V30 5 C -0.1307 -0.9317 -0.5028 0
M  V30 6 C -0.3904 1.3106 0.3693 0
M  V30 7 C -1.0385 -0.6336 -1.523 0
M  V30 8 C -1.2958 1.6048 -0.6517 0
M  V30 9 C -1.6165 0.6335 -1.5987 0
M  V30 10 H 2.1792 -1.7615 0.5439 0
M  V30 11 H 2.7193 -1.3835 2.1486 0
M  V30 12 H 0.2794 -1.9348 -0.4498 0
M  V30 13 H -0.1477 2.0723 1.1082 0
M  V30 14 H -1.3025 -1.393 -2.2551 0
M  V30 15 H -1.752 2.5903 -0.7043 0
M  V30 16 H -2.3244 0.8621 -2.3918 0
M  V30 END ATOM
M  V30 BEGIN BOND
M  V30 1 2 1 2
M  V30 2 1 2 3
M  V30 3 1 2 4
M  V30 4 2 4 5
M  V30 5 1 4 6
M  V30 6 1 5 7
M  V30 7 2 6 8
M  V30 8 2 7 9
M  V30 9 1 8 9
M  V30 10 1 3 10
M  V30 11 1 3 11
M  V30 12 1 5 12
M  V30 13 1 6 13
M  V30 14 1 7 14
M  V30 15 1 8 15
M  V30 16 1 9 16
M  V30 END BOND
M  V30 END CTAB
M  END
>  <NO.>
382

>  <Name>
benzamide

>  <SMILES>
NC(=O)c1ccccc1

>  <logBB>
-0.24

>  <Class>
1

>  <MW>
121.05

>  <nHBAcc>
1

>  <nHBDon>
1

>  <SLogP>
0.79

>  <TopoPSA>
43.09

>  <MMFF94 Energy>
4.6388

$$$$
O=C(NCCCOc1cccc(CN2CCCCC2)c1)c1ccccc1
Actelion Java MolfileCreator 2.0

  0  0  0  0  0  0              0 V3000
M  V30 BEGIN CTAB
M  V30 COUNTS 54 56 0 0 0
M  V30 BEGIN ATOM
M  V30 1 O -4.1122 0.0 2.6081 0
M  V30 2 C -3.6695 0.9163 3.2921 0
M  V30 3 N -2.6095 0.7669 4.1625 0
M  V30 4 C -4.2416 2.2853 3.1726 0
M  V30 5 C -1.9809 -0.5178 4.3958 0
M  V30 6 C -4.8208 2.6584 1.9531 0
M  V30 7 C -4.2383 3.1894 4.2431 0
M  V30 8 C -0.7562 -0.7449 3.5176 0
M  V30 9 C -5.3679 3.933 1.7963 0
M  V30 10 C -4.7883 4.4637 4.082 0
M  V30 11 C -1.1041 -0.9376 2.0439 0
M  V30 12 C -5.3477 4.8353 2.8592 0
M  V30 13 O 0.1065 -1.2519 1.3499 0
M  V30 14 C 0.0056 -1.4516 -7.0E-4 0
M  V30 15 C 1.2169 -1.7351 -0.6398 0
M  V30 16 C -1.1682 -1.3961 -0.7527 0
M  V30 17 C 1.2709 -1.9603 -2.0238 0
M  V30 18 C -1.1285 -1.6207 -2.1311 0
M  V30 19 C 0.0823 -1.902 -2.7629 0
M  V30 20 C 2.5871 -2.2787 -2.7018 0
M  V30 21 N 2.935 -1.3338 -3.7767 0
M  V30 22 C 4.0435 -1.8333 -4.6028 0
M  V30 23 C 3.2235 0.0242 -3.2885 0
M  V30 24 C 5.41 -1.7777 -3.9147 0
M  V30 25 C 4.5595 0.1552 -2.5519 0
M  V30 26 C 5.7121 -0.3752 -3.3977 0
M  V30 27 H -2.2149 1.5779 4.619 0
M  V30 28 H -2.7136 -1.3204 4.256 0
M  V30 29 H -1.6777 -0.5246 5.4483 0
M  V30 30 H -4.8441 1.9562 1.122 0
M  V30 31 H -3.8408 2.9105 5.2142 0
M  V30 32 H -0.221 -1.6345 3.8732 0
M  V30 33 H -0.0508 0.0895 3.6191 0
M  V30 34 H -5.8128 4.219 0.8463 0
M  V30 35 H -4.7905 5.1649 4.9132 0
M  V30 36 H -1.8187 -1.7628 1.9406 0
M  V30 37 H -1.5265 -0.0116 1.6384 0
M  V30 38 H -5.7779 5.8267 2.737 0
M  V30 39 H 2.1263 -1.776 -0.0449 0
M  V30 40 H -2.1306 -1.1808 -0.2991 0
M  V30 41 H -2.0448 -1.5742 -2.7139 0
M  V30 42 H 0.1038 -2.068 -3.8381 0
M  V30 43 H 2.4745 -3.2877 -3.1217 0
M  V30 44 H 3.3861 -2.3538 -1.9549 0
M  V30 45 H 4.085 -1.2329 -5.5212 0
M  V30 46 H 3.8385 -2.8579 -4.9369 0
M  V30 47 H 2.4138 0.3973 -2.6511 0
M  V30 48 H 3.234 0.6994 -4.1547 0
M  V30 49 H 6.1894 -2.082 -4.6226 0
M  V30 50 H 5.444 -2.4922 -3.0837 0
M  V30 51 H 4.5214 -0.385 -1.5987 0
M  V30 52 H 4.7411 1.2083 -2.3077 0
M  V30 53 H 6.6375 -0.3813 -2.8112 0
M  V30 54 H 5.8768 0.2972 -4.2488 0
M  V30 END ATOM
M  V30 BEGIN BOND
M  V30 1 2 1 2
M  V30 2 1 2 3
M  V30 3 1 2 4
M  V30 4 1 3 5
M  V30 5 2 4 6
M  V30 6 1 4 7
M  V30 7 1 5 8
M  V30 8 1 6 9
M  V30 9 2 7 10
M  V30 10 1 8 11
M  V30 11 2 9 12
M  V30 12 1 11 13
M  V30 13 1 13 14
M  V30 14 2 14 15
M  V30 15 1 14 16
M  V30 16 1 15 17
M  V30 17 2 16 18
M  V30 18 2 17 19
M  V30 19 1 17 20
M  V30 20 1 20 21
M  V30 21 1 21 22
M  V30 22 1 21 23
M  V30 23 1 22 24
M  V30 24 1 23 25
M  V30 25 1 24 26
M  V30 26 1 10 12
M  V30 27 1 18 19
M  V30 28 1 25 26
M  V30 29 1 3 27
M  V30 30 1 5 28
M  V30 31 1 5 29
M  V30 32 1 6 30
M  V30 33 1 7 31
M  V30 34 1 8 32
M  V30 35 1 8 33
M  V30 36 1 9 34
M  V30 37 1 10 35
M  V30 38 1 11 36
M  V30 39 1 11 37
M  V30 40 1 12 38
M  V30 41 1 15 39
M  V30 42 1 16 40
M  V30 43 1 18 41
M  V30 44 1 19 42
M  V30 45 1 20 43
M  V30 46 1 20 44
M  V30 47 1 22 45
M  V30 48 1 22 46
M  V30 49 1 23 47
M  V30 50 1 23 48
M  V30 51 1 24 49
M  V30 52 1 24 50
M  V30 53 1 25 51
M  V30 54 1 25 52
M  V30 55 1 26 53
M  V30 56 1 26 54
M  V30 END BOND
M  V30 END CTAB
M  END
>  <NO.>
383

>  <Name>
bbcpd21

>  <SMILES>
O=C(NCCCOc1cccc(CN2CCCCC2)c1)c1ccccc1

>  <logBB>
-0.24

>  <Class>
1

>  <MW>
352.22

>  <nHBAcc>
3

>  <nHBDon>
1

>  <SLogP>
3.87

>  <TopoPSA>
41.57

>  <MMFF94 Energy>
29.096

$$$$
O=[N+]([O-])c1nccn1CCCF
Actelion Java MolfileCreator 2.0

  0  0  0  0  0  0              0 V3000
M  V30 BEGIN CTAB
M  V30 COUNTS 20 20 0 0 0
M  V30 BEGIN ATOM
M  V30 1 F 3.4863 1.1082 -0.3165 0
M  V30 2 C 2.1987 0.9631 0.0964 0
M  V30 3 C 1.8699 -0.5196 0.1108 0
M  V30 4 C 0.4549 -0.8115 0.6114 0
M  V30 5 N -0.6354 -0.3285 -0.218 0
M  V30 6 C -1.8767 0.0993 0.1858 0
M  V30 7 C -0.623 -0.2234 -1.5888 0
M  V30 8 N -2.3554 0.0505 1.539 0 CHG=1
M  V30 9 N -2.6052 0.5444 -0.8194 0
M  V30 10 C -1.8334 0.337 -1.9302 0
M  V30 11 O -3.1218 0.95 1.9042 0
M  V30 12 O -1.9498 -0.884 2.2452 0 CHG=-1
M  V30 13 H 2.1144 1.4034 1.0943 0
M  V30 14 H 1.5633 1.5232 -0.5942 0
M  V30 15 H 2.0395 -0.9435 -0.885 0
M  V30 16 H 2.5885 -1.0245 0.7683 0
M  V30 17 H 0.3521 -0.3647 1.6054 0
M  V30 18 H 0.3102 -1.8941 0.7021 0
M  V30 19 H 0.2146 -0.5301 -2.2004 0
M  V30 20 H -2.1902 0.5937 -2.9205 0
M  V30 END ATOM
M  V30 BEGIN BOND
M  V30 1 1 1 2
M  V30 2 1 2 3
M  V30 3 1 3 4
M  V30 4 1 4 5
M  V30 5 1 5 6
M  V30 6 1 5 7
M  V30 7 1 6 8
M  V30 8 2 6 9
M  V30 9 2 7 10
M  V30 10 2 8 11
M  V30 11 1 8 12
M  V30 12 1 9 10
M  V30 13 1 2 13
M  V30 14 1 2 14
M  V30 15 1 3 15
M  V30 16 1 3 16
M  V30 17 1 4 17
M  V30 18 1 4 18
M  V30 19 1 7 19
M  V30 20 1 10 20
M  V30 END BOND
M  V30 END CTAB
M  END
>  <NO.>
384

>  <Name>
1-(3-fluoropropyl)-2-nitroimidazole (fpn)

>  <SMILES>
O=[N+]([O-])c1nccn1CCCF

>  <logBB>
-0.24

>  <Class>
1

>  <MW>
173.06

>  <nHBAcc>
3

>  <nHBDon>
0

>  <SLogP>
1.15

>  <TopoPSA>
60.96

>  <MMFF94 Energy>
49.721

$$$$
C=CCc1ccccc1OCC(O)CNC(C)C
Actelion Java MolfileCreator 2.0

  0  0  0  0  0  0              0 V3000
M  V30 BEGIN CTAB
M  V30 COUNTS 41 41 0 0 0
M  V30 BEGIN ATOM
M  V30 1 O 0.1555 1.1674 0.3112 0
M  V30 2 C 0.8105 1.1957 1.5169 0
M  V30 3 C -0.2953 2.4199 -0.2203 0
M  V30 4 C 1.4213 -0.0076 1.9224 0
M  V30 5 C 0.8942 2.3213 2.345 0
M  V30 6 C -0.8444 2.2499 -1.6485 0 CFG=1
M  V30 7 C 2.1304 -0.0437 3.1366 0
M  V30 8 C 1.3654 -1.2602 1.0749 0
M  V30 9 C 1.5918 2.2652 3.5544 0
M  V30 10 O 0.2359 1.9631 -2.5499 0
M  V30 11 C -1.9099 1.1404 -1.7843 0
M  V30 12 C 2.2129 1.0854 3.9483 0
M  V30 13 C 2.3771 -1.2561 -0.036 0
M  V30 14 N -1.2741 -0.1866 -1.7628 0
M  V30 15 C 3.3515 -2.1639 -0.1794 0
M  V30 16 C -2.2323 -1.291 -1.8695 0
M  V30 17 C -1.4433 -2.5541 -2.2192 0
M  V30 18 C -3.0126 -1.5118 -0.5722 0
M  V30 19 H 0.5432 3.1261 -0.2552 0
M  V30 20 H -1.0962 2.8123 0.4174 0
M  V30 21 H 0.4277 3.2641 2.08 0
M  V30 22 H -1.2757 3.2053 -1.9674 0
M  V30 23 H 2.6265 -0.9591 3.4524 0
M  V30 24 H 0.3604 -1.3774 0.6554 0
M  V30 25 H 1.5042 -2.1397 1.7175 0
M  V30 26 H 1.6535 3.1477 4.1862 0
M  V30 27 H 0.2746 0.983 -2.5759 0
M  V30 28 H -2.6596 1.2555 -0.9951 0
M  V30 29 H -2.4083 1.2625 -2.7533 0
M  V30 30 H 2.7631 1.0438 4.8846 0
M  V30 31 H 2.2905 -0.4562 -0.7696 0
M  V30 32 H -0.7409 -0.2737 -0.8912 0
M  V30 33 H 3.4801 -2.9815 0.5222 0
M  V30 34 H 4.0475 -2.0999 -1.0103 0
M  V30 35 H -2.9353 -1.0991 -2.6892 0
M  V30 36 H -0.7224 -2.8113 -1.4346 0
M  V30 37 H -0.8912 -2.4252 -3.157 0
M  V30 38 H -2.1177 -3.4077 -2.348 0
M  V30 39 H -3.6504 -0.6552 -0.3334 0
M  V30 40 H -2.3407 -1.6813 0.2767 0
M  V30 41 H -3.6651 -2.3875 -0.6605 0
M  V30 END ATOM
M  V30 BEGIN BOND
M  V30 1 1 1 2
M  V30 2 1 1 3
M  V30 3 2 2 4
M  V30 4 1 2 5
M  V30 5 1 3 6
M  V30 6 1 4 7
M  V30 7 1 4 8
M  V30 8 2 5 9
M  V30 9 1 6 10
M  V30 10 1 6 11
M  V30 11 2 7 12
M  V30 12 1 8 13
M  V30 13 1 11 14
M  V30 14 2 13 15
M  V30 15 1 14 16
M  V30 16 1 16 17
M  V30 17 1 16 18
M  V30 18 1 9 12
M  V30 19 1 3 19
M  V30 20 1 3 20
M  V30 21 1 5 21
M  V30 22 1 6 22
M  V30 23 1 7 23
M  V30 24 1 8 24
M  V30 25 1 8 25
M  V30 26 1 9 26
M  V30 27 1 10 27
M  V30 28 1 11 28
M  V30 29 1 11 29
M  V30 30 1 12 30
M  V30 31 1 13 31
M  V30 32 1 14 32
M  V30 33 1 15 33
M  V30 34 1 15 34
M  V30 35 1 16 35
M  V30 36 1 17 36
M  V30 37 1 17 37
M  V30 38 1 17 38
M  V30 39 1 18 39
M  V30 40 1 18 40
M  V30 41 1 18 41
M  V30 END BOND
M  V30 BEGIN COLLECTION
M  V30 MDLV30/STERAC1 ATOMS=(1 6)
M  V30 END COLLECTION
M  V30 END CTAB
M  END
>  <NO.>
386

>  <Name>
alprenolol

>  <SMILES>
C=CCc1ccccc1OCC(O)CNC(C)C

>  <logBB>
-0.23

>  <Class>
1

>  <MW>
249.17

>  <nHBAcc>
3

>  <nHBDon>
2

>  <SLogP>
2.15

>  <TopoPSA>
41.49

>  <MMFF94 Energy>
67.026

$$$$
CC(C)(O)Cn1nc(-c2c(-c3ccccc3)nn3ccccc23)ccc1=O
Actelion Java MolfileCreator 2.0

  0  0  0  0  0  0              0 V3000
M  V30 BEGIN CTAB
M  V30 COUNTS 47 50 0 0 0
M  V30 BEGIN ATOM
M  V30 1 O -1.4392 -1.9993 -3.4407 0
M  V30 2 C -1.1421 -1.3183 -2.4635 0
M  V30 3 N -0.1055 -1.5985 -1.5789 0
M  V30 4 C -1.9251 -0.0954 -2.1814 0
M  V30 5 N 0.2253 -0.7962 -0.4987 0
M  V30 6 C 0.7155 -2.7988 -1.7728 0
M  V30 7 C -1.6351 0.6856 -1.1398 0
M  V30 8 C -0.5029 0.256 -0.3056 0
M  V30 9 C 2.1827 -2.4661 -2.1327 0
M  V30 10 C -0.1968 1.1231 0.8076 0
M  V30 11 O 2.7982 -1.7508 -1.0514 0
M  V30 12 C 2.2891 -1.5997 -3.3887 0
M  V30 13 C 2.9771 -3.7595 -2.3194 0
M  V30 14 C -1.0494 1.5983 1.8494 0
M  V30 15 C 1.0356 1.681 1.0888 0
M  V30 16 N -0.4046 2.443 2.6656 0
M  V30 17 C -2.4564 1.2742 2.0883 0
M  V30 18 N 0.8755 2.4673 2.2294 0
M  V30 19 C 2.3307 1.6357 0.4898 0
M  V30 20 C -2.9129 -0.0487 2.0064 0
M  V30 21 C -3.3674 2.2909 2.4056 0
M  V30 22 C 1.9357 3.1797 2.7939 0
M  V30 23 C 3.3456 2.3255 1.0436 0
M  V30 24 C -4.2623 -0.344 2.2148 0
M  V30 25 C -4.7158 1.9934 2.6139 0
M  V30 26 C 3.1568 3.1277 2.2387 0
M  V30 27 C -5.1627 0.6771 2.5141 0
M  V30 28 H -2.7342 0.1267 -2.8654 0
M  V30 29 H 0.272 -3.4346 -2.5469 0
M  V30 30 H 0.6761 -3.3523 -0.8263 0
M  V30 31 H -2.1837 1.5909 -0.919 0
M  V30 32 H 2.0698 -1.2511 -0.6223 0
M  V30 33 H 1.8312 -0.6163 -3.2357 0
M  V30 34 H 3.3388 -1.4066 -3.6387 0
M  V30 35 H 1.8117 -2.0788 -4.2494 0
M  V30 36 H 4.0333 -3.5452 -2.5192 0
M  V30 37 H 2.5825 -4.3601 -3.1452 0
M  V30 38 H 2.9531 -4.3657 -1.4066 0
M  V30 39 H 2.496 1.0445 -0.4057 0
M  V30 40 H -2.2238 -0.8645 1.7996 0
M  V30 41 H -3.0271 3.3208 2.4956 0
M  V30 42 H 1.7038 3.7542 3.6805 0
M  V30 43 H 4.3385 2.2957 0.6038 0
M  V30 44 H -4.6086 -1.3728 2.154 0
M  V30 45 H -5.4143 2.7888 2.8614 0
M  V30 46 H 4.0007 3.667 2.654 0
M  V30 47 H -6.2116 0.4453 2.6825 0
M  V30 END ATOM
M  V30 BEGIN BOND
M  V30 1 2 1 2
M  V30 2 1 2 3
M  V30 3 1 2 4
M  V30 4 1 3 5
M  V30 5 1 3 6
M  V30 6 2 4 7
M  V30 7 2 5 8
M  V30 8 1 6 9
M  V30 9 1 8 10
M  V30 10 1 9 11
M  V30 11 1 9 12
M  V30 12 1 9 13
M  V30 13 1 10 14
M  V30 14 2 10 15
M  V30 15 2 14 16
M  V30 16 1 14 17
M  V30 17 1 15 18
M  V30 18 1 15 19
M  V30 19 2 17 20
M  V30 20 1 17 21
M  V30 21 1 18 22
M  V30 22 2 19 23
M  V30 23 1 20 24
M  V30 24 2 21 25
M  V30 25 2 22 26
M  V30 26 2 24 27
M  V30 27 1 7 8
M  V30 28 1 16 18
M  V30 29 1 23 26
M  V30 30 1 25 27
M  V30 31 1 4 28
M  V30 32 1 6 29
M  V30 33 1 6 30
M  V30 34 1 7 31
M  V30 35 1 11 32
M  V30 36 1 12 33
M  V30 37 1 12 34
M  V30 38 1 12 35
M  V30 39 1 13 36
M  V30 40 1 13 37
M  V30 41 1 13 38
M  V30 42 1 19 39
M  V30 43 1 20 40
M  V30 44 1 21 41
M  V30 45 1 22 42
M  V30 46 1 23 43
M  V30 47 1 24 44
M  V30 48 1 25 45
M  V30 49 1 26 46
M  V30 50 1 27 47
M  V30 END BOND
M  V30 END CTAB
M  END
>  <NO.>
387

>  <Name>
222722-65-8

>  <SMILES>
CC(C)(O)Cn1nc(-c2c(-c3ccccc3)nn3ccccc23)ccc1=O

>  <logBB>
-0.23

>  <Class>
1

>  <MW>
360.16

>  <nHBAcc>
4

>  <nHBDon>
1

>  <SLogP>
3

>  <TopoPSA>
72.42

>  <MMFF94 Energy>
102.78

$$$$
C=CCC1(CC=C)C(=O)NC(=O)NC1=O
Actelion Java MolfileCreator 2.0

  0  0  0  0  0  0              0 V3000
M  V30 BEGIN CTAB
M  V30 COUNTS 27 27 0 0 0
M  V30 BEGIN ATOM
M  V30 1 O 3.8526 0.8638 -0.3925 0
M  V30 2 C 2.6792 0.5633 -0.2024 0
M  V30 3 N 2.3293 -0.615 0.3759 0
M  V30 4 N 1.6653 1.4087 -0.5208 0
M  V30 5 C 1.0589 -1.0527 0.6274 0
M  V30 6 C 0.3383 1.2017 -0.2688 0
M  V30 7 O 0.8904 -2.1255 1.2064 0
M  V30 8 C -0.0802 -0.2239 0.053 0
M  V30 9 O -0.4476 2.1448 -0.3464 0
M  V30 10 C -0.4381 -0.9379 -1.2839 0
M  V30 11 C -1.2744 -0.2325 1.0356 0
M  V30 12 C -1.5778 -0.3479 -2.0716 0
M  V30 13 C -0.9871 0.428 2.3633 0
M  V30 14 C -1.4425 0.2016 -3.2851 0
M  V30 15 C -0.804 -0.2402 3.5086 0
M  V30 16 H 3.0855 -1.2094 0.6861 0
M  V30 17 H 1.9301 2.3293 -0.8428 0
M  V30 18 H 0.4551 -0.982 -1.9236 0
M  V30 19 H -0.6969 -1.9863 -1.0791 0
M  V30 20 H -2.1354 0.2931 0.604 0
M  V30 21 H -1.6104 -1.2646 1.2046 0
M  V30 22 H -2.5719 -0.3906 -1.6295 0
M  V30 23 H -0.9632 1.5174 2.3788 0
M  V30 24 H -0.4825 0.2679 -3.787 0
M  V30 25 H -2.3049 0.6072 -3.8071 0
M  V30 26 H -0.8306 -1.3261 3.5466 0
M  V30 27 H -0.6204 0.2876 4.4396 0
M  V30 END ATOM
M  V30 BEGIN BOND
M  V30 1 2 1 2
M  V30 2 1 2 3
M  V30 3 1 2 4
M  V30 4 1 3 5
M  V30 5 1 4 6
M  V30 6 2 5 7
M  V30 7 1 5 8
M  V30 8 2 6 9
M  V30 9 1 8 10
M  V30 10 1 8 11
M  V30 11 1 10 12
M  V30 12 1 11 13
M  V30 13 2 12 14
M  V30 14 2 13 15
M  V30 15 1 6 8
M  V30 16 1 3 16
M  V30 17 1 4 17
M  V30 18 1 10 18
M  V30 19 1 10 19
M  V30 20 1 11 20
M  V30 21 1 11 21
M  V30 22 1 12 22
M  V30 23 1 13 23
M  V30 24 1 14 24
M  V30 25 1 14 25
M  V30 26 1 15 26
M  V30 27 1 15 27
M  V30 END BOND
M  V30 END CTAB
M  END
>  <NO.>
388

>  <Name>
allobarbital

>  <SMILES>
C=CCC1(CC=C)C(=O)NC(=O)NC1=O

>  <logBB>
-0.22

>  <Class>
1

>  <MW>
208.08

>  <nHBAcc>
3

>  <nHBDon>
2

>  <SLogP>
0.49

>  <TopoPSA>
75.27

>  <MMFF94 Energy>
-112.64

$$$$
COc1cc(N)c(Cl)cc1C(=O)NC1CCNCC1OC
Actelion Java MolfileCreator 2.0

  0  0  0  0  0  0              0 V3000
M  V30 BEGIN CTAB
M  V30 COUNTS 41 42 0 0 0
M  V30 BEGIN ATOM
M  V30 1 Cl 4.8533 1.4302 -0.7943 0
M  V30 2 C 3.8731 0.3874 0.179 0
M  V30 3 C 4.4559 -0.6608 0.9171 0
M  V30 4 C 2.4963 0.6175 0.2101 0
M  V30 5 N 5.8161 -0.9362 0.8586 0
M  V30 6 C 3.6178 -1.4865 1.6745 0
M  V30 7 C 1.6762 -0.2116 0.9822 0
M  V30 8 C 2.2396 -1.2498 1.7285 0
M  V30 9 C 0.2208 0.0515 1.0145 0
M  V30 10 O 1.4516 -2.1221 2.4315 0
M  V30 11 O -0.3566 0.234 2.0782 0
M  V30 12 N -0.3834 0.1036 -0.2214 0
M  V30 13 C 1.4669 -1.7965 3.8229 0
M  V30 14 C -1.794 0.4585 -0.3866 0
M  V30 15 C -2.1016 0.8537 -1.8501 0
M  V30 16 C -2.7106 -0.6878 0.0515 0
M  V30 17 O -1.3022 2.0031 -2.181 0
M  V30 18 C -3.6074 1.1498 -1.99 0
M  V30 19 C -4.1759 -0.321 -0.1568 0
M  V30 20 C -1.2206 2.2515 -3.5777 0
M  V30 21 N -4.4471 0.0319 -1.5508 0
M  V30 22 H 2.0668 1.4445 -0.3498 0
M  V30 23 H 6.2376 -1.6345 1.4546 0
M  V30 24 H 6.4212 -0.3007 0.3503 0
M  V30 25 H 4.0315 -2.3301 2.2202 0
M  V30 26 H 0.1643 -0.058 -1.0561 0
M  V30 27 H 2.4179 -2.0965 4.2754 0
M  V30 28 H 0.6665 -2.3628 4.3081 0
M  V30 29 H 1.2856 -0.7306 3.9997 0
M  V30 30 H -1.9672 1.3284 0.2618 0
M  V30 31 H -1.8177 0.0221 -2.5099 0
M  V30 32 H -2.4689 -1.5972 -0.5144 0
M  V30 33 H -2.5481 -0.9302 1.108 0
M  V30 34 H -3.8448 1.3599 -3.0381 0
M  V30 35 H -3.8647 2.0634 -1.4384 0
M  V30 36 H -4.8027 -1.1764 0.1176 0
M  V30 37 H -4.4586 0.5079 0.5036 0
M  V30 38 H -0.5201 3.0762 -3.7355 0
M  V30 39 H -2.1921 2.5491 -3.9801 0
M  V30 40 H -0.843 1.3715 -4.1066 0
M  V30 41 H -5.4297 0.2926 -1.6431 0
M  V30 END ATOM
M  V30 BEGIN BOND
M  V30 1 1 1 2
M  V30 2 2 2 3
M  V30 3 1 2 4
M  V30 4 1 3 5
M  V30 5 1 3 6
M  V30 6 2 4 7
M  V30 7 2 6 8
M  V30 8 1 7 9
M  V30 9 1 8 10
M  V30 10 2 9 11
M  V30 11 1 9 12
M  V30 12 1 10 13
M  V30 13 1 12 14
M  V30 14 1 14 15
M  V30 15 1 14 16
M  V30 16 1 15 17
M  V30 17 1 15 18
M  V30 18 1 16 19
M  V30 19 1 17 20
M  V30 20 1 18 21
M  V30 21 1 7 8
M  V30 22 1 19 21
M  V30 23 1 4 22
M  V30 24 1 5 23
M  V30 25 1 5 24
M  V30 26 1 6 25
M  V30 27 1 12 26
M  V30 28 1 13 27
M  V30 29 1 13 28
M  V30 30 1 13 29
M  V30 31 1 14 30
M  V30 32 1 15 31
M  V30 33 1 16 32
M  V30 34 1 16 33
M  V30 35 1 18 34
M  V30 36 1 18 35
M  V30 37 1 19 36
M  V30 38 1 19 37
M  V30 39 1 20 38
M  V30 40 1 20 39
M  V30 41 1 20 40
M  V30 42 1 21 41
M  V30 END BOND
M  V30 END CTAB
M  END
>  <NO.>
390

>  <Name>
ticalopride

>  <SMILES>
COc1cc(N)c(Cl)cc1C(=O)NC1CCNCC1OC

>  <logBB>
-0.22

>  <Class>
1

>  <MW>
313.12

>  <nHBAcc>
5

>  <nHBDon>
3

>  <SLogP>
1.04

>  <TopoPSA>
85.61

>  <MMFF94 Energy>
68.968

$$$$
COc1ccc(N2CCCC2=O)cc1CNC1CCCNC1c1ccccc1
Actelion Java MolfileCreator 2.0

  0  0  0  0  0  0              0 V3000
M  V30 BEGIN CTAB
M  V30 COUNTS 57 60 0 0 0
M  V30 BEGIN ATOM
M  V30 1 O -0.556 -2.4644 4.2162 0
M  V30 2 C -0.0354 -1.6244 4.9342 0
M  V30 3 N 0.1525 -0.2563 4.6977 0
M  V30 4 C 0.4801 -1.9174 6.3242 0
M  V30 5 C -0.2397 0.4452 3.5338 0
M  V30 6 C 0.7369 0.3975 5.8426 0
M  V30 7 C 1.3886 -0.7344 6.61 0
M  V30 8 C -0.319 -0.2014 2.2932 0
M  V30 9 C -0.5458 1.8104 3.595 0
M  V30 10 C -0.6986 0.4861 1.1226 0
M  V30 11 C -0.9157 2.5101 2.4438 0
M  V30 12 C -0.9689 1.855 1.2139 0
M  V30 13 C -0.7833 -0.2705 -0.1829 0
M  V30 14 O -1.3694 2.5708 0.1169 0
M  V30 15 N 0.5445 -0.4365 -0.7722 0
M  V30 16 C -0.2387 3.1942 -0.4974 0
M  V30 17 C 0.5977 -1.2784 -1.9856 0
M  V30 18 C -0.3701 -0.9 -3.1674 0
M  V30 19 C 0.436 -2.7687 -1.6189 0
M  V30 20 N -0.2017 -1.8179 -4.3148 0
M  V30 21 C -0.2008 0.5313 -3.6648 0
M  V30 22 C 0.5435 -3.6535 -2.8578 0
M  V30 23 C -0.4326 -3.2086 -3.941 0
M  V30 24 C -1.3037 1.4006 -3.6985 0
M  V30 25 C 1.0334 1.0008 -4.1416 0
M  V30 26 C -1.1715 2.7045 -4.1815 0
M  V30 27 C 1.1654 2.3059 -4.6209 0
M  V30 28 C 0.0633 3.1576 -4.6399 0
M  V30 29 H -0.3681 -1.9508 7.0151 0
M  V30 30 H 1.0239 -2.8647 6.3499 0
M  V30 31 H -0.0631 0.8607 6.4312 0
M  V30 32 H 1.4708 1.1526 5.5438 0
M  V30 33 H 2.3888 -0.9327 6.2048 0
M  V30 34 H 1.4921 -0.5215 7.6776 0
M  V30 35 H -0.083 -1.2604 2.2143 0
M  V30 36 H -0.5221 2.352 4.5357 0
M  V30 37 H -1.1678 3.5649 2.5065 0
M  V30 38 H -1.4535 0.2591 -0.8667 0
M  V30 39 H -1.2566 -1.2377 0.021 0
M  V30 40 H 1.1738 -0.8227 -0.0705 0
M  V30 41 H 0.275 3.8657 0.1998 0
M  V30 42 H -0.6042 3.7985 -1.3323 0
M  V30 43 H 0.4612 2.4518 -0.8924 0
M  V30 44 H 1.6258 -1.167 -2.3572 0
M  V30 45 H -1.403 -1.0155 -2.8106 0
M  V30 46 H 1.2022 -3.0683 -0.8933 0
M  V30 47 H -0.5378 -2.9498 -1.1492 0
M  V30 48 H -0.8585 -1.5416 -5.0444 0
M  V30 49 H 1.5697 -3.6194 -3.2451 0
M  V30 50 H 0.3408 -4.6951 -2.5837 0
M  V30 51 H -0.2963 -3.8396 -4.826 0
M  V30 52 H -1.4676 -3.3473 -3.6055 0
M  V30 53 H -2.2764 1.0691 -3.3425 0
M  V30 54 H 1.8989 0.3424 -4.1528 0
M  V30 55 H -2.0334 3.3664 -4.196 0
M  V30 56 H 2.1284 2.6525 -4.9857 0
M  V30 57 H 0.1659 4.1718 -5.0157 0
M  V30 END ATOM
M  V30 BEGIN BOND
M  V30 1 2 1 2
M  V30 2 1 2 3
M  V30 3 1 2 4
M  V30 4 1 3 5
M  V30 5 1 3 6
M  V30 6 1 4 7
M  V30 7 2 5 8
M  V30 8 1 5 9
M  V30 9 1 8 10
M  V30 10 2 9 11
M  V30 11 2 10 12
M  V30 12 1 10 13
M  V30 13 1 12 14
M  V30 14 1 13 15
M  V30 15 1 14 16
M  V30 16 1 15 17
M  V30 17 1 17 18
M  V30 18 1 17 19
M  V30 19 1 18 20
M  V30 20 1 18 21
M  V30 21 1 19 22
M  V30 22 1 20 23
M  V30 23 2 21 24
M  V30 24 1 21 25
M  V30 25 1 24 26
M  V30 26 2 25 27
M  V30 27 2 26 28
M  V30 28 1 6 7
M  V30 29 1 11 12
M  V30 30 1 22 23
M  V30 31 1 27 28
M  V30 32 1 4 29
M  V30 33 1 4 30
M  V30 34 1 6 31
M  V30 35 1 6 32
M  V30 36 1 7 33
M  V30 37 1 7 34
M  V30 38 1 8 35
M  V30 39 1 9 36
M  V30 40 1 11 37
M  V30 41 1 13 38
M  V30 42 1 13 39
M  V30 43 1 15 40
M  V30 44 1 16 41
M  V30 45 1 16 42
M  V30 46 1 16 43
M  V30 47 1 17 44
M  V30 48 1 18 45
M  V30 49 1 19 46
M  V30 50 1 19 47
M  V30 51 1 20 48
M  V30 52 1 22 49
M  V30 53 1 22 50
M  V30 54 1 23 51
M  V30 55 1 23 52
M  V30 56 1 24 53
M  V30 57 1 25 54
M  V30 58 1 26 55
M  V30 59 1 27 56
M  V30 60 1 28 57
M  V30 END BOND
M  V30 END CTAB
M  END
>  <NO.>
392

>  <Name>
pfizer compound 16

>  <SMILES>
COc1ccc(N2CCCC2=O)cc1CNC1CCCNC1c1ccccc1

>  <logBB>
-0.22

>  <Class>
1

>  <MW>
379.23

>  <nHBAcc>
4

>  <nHBDon>
2

>  <SLogP>
3.4

>  <TopoPSA>
53.6

>  <MMFF94 Energy>
63.6

$$$$
C[C@]12C[C@H](O)[C@H]3[C@@H](CCC4=CC(=O)CC[C@@]43C)[C@@H]1CC[C@]2(O)C(=O)CO
Actelion Java MolfileCreator 2.0

  0  0  0  0  0  0              0 V3000
M  V30 BEGIN CTAB
M  V30 COUNTS 56 59 0 0 0
M  V30 BEGIN ATOM
M  V30 1 O 4.0315 -3.4664 -3.2242 0
M  V30 2 C 3.3552 -2.5239 -2.8213 0
M  V30 3 C 2.0195 -2.2739 -3.4121 0
M  V30 4 C 3.7777 -1.6633 -1.6581 0
M  V30 5 C 1.2841 -1.2105 -3.0426 0
M  V30 6 C 3.3129 -0.2353 -1.8845 0
M  V30 7 C 1.7786 -0.1003 -2.1033 0 CFG=2
M  V30 8 C -0.1718 -1.1238 -3.4249 0
M  V30 9 C 0.9408 -0.2751 -0.7802 0 CFG=1
M  V30 10 C 1.579 1.2786 -2.7827 0
M  V30 11 C -1.0237 -1.2191 -2.1587 0
M  V30 12 C 1.3582 0.628 0.4146 0 CFG=1
M  V30 13 C -0.6041 -0.2128 -1.0644 0 CFG=1
M  V30 14 O 1.3743 1.9962 0.0439 0
M  V30 15 C 0.4677 0.4347 1.6636 0
M  V30 16 C -1.358 -0.4871 0.2457 0 CFG=1
M  V30 17 C -1.0454 0.5309 1.3677 0 CFG=1
M  V30 18 C -2.882 -0.5229 0.2088 0
M  V30 19 C -2.0204 0.0094 2.4792 0 CFG=1
M  V30 20 C -1.4221 1.9904 0.9866 0
M  V30 21 C -3.3086 -0.3423 1.6787 0
M  V30 22 O -1.5769 -1.2299 3.0426 0
M  V30 23 C -2.3192 1.0362 3.5984 0
M  V30 24 O -3.2234 1.8745 3.5262 0
M  V30 25 C -1.4239 1.0042 4.8305 0
M  V30 26 O -1.53 2.1987 5.5899 0
M  V30 27 H 1.6462 -3.0534 -4.0667 0
M  V30 28 H 3.3697 -2.0854 -0.7345 0
M  V30 29 H 4.8709 -1.6817 -1.5913 0
M  V30 30 H 3.8357 0.1398 -2.7772 0
M  V30 31 H 3.6547 0.401 -1.0617 0
M  V30 32 H -0.4563 -1.9344 -4.1068 0
M  V30 33 H -0.3765 -0.1907 -3.9602 0
M  V30 34 H 1.1301 -1.3017 -0.426 0
M  V30 35 H 2.1337 2.0686 -2.266 0
M  V30 36 H 0.5336 1.5932 -2.8299 0
M  V30 37 H 1.9531 1.2618 -3.8143 0
M  V30 38 H -2.0742 -1.0596 -2.4292 0
M  V30 39 H -0.9555 -2.2404 -1.7603 0
M  V30 40 H 2.3822 0.3721 0.7086 0
M  V30 41 H -0.8709 0.7836 -1.4286 0
M  V30 42 H 1.7327 2.511 0.7878 0
M  V30 43 H 0.7117 -0.5516 2.0732 0
M  V30 44 H 0.7383 1.1738 2.4268 0
M  V30 45 H -1.0365 -1.4865 0.5814 0
M  V30 46 H -3.2874 0.287 -0.4078 0
M  V30 47 H -3.2593 -1.4668 -0.1976 0
M  V30 48 H -1.0779 2.6899 1.7571 0
M  V30 49 H -2.5024 2.1328 0.882 0
M  V30 50 H -0.9864 2.3177 0.0414 0
M  V30 51 H -3.7656 -1.2677 2.0493 0
M  V30 52 H -4.0758 0.4374 1.7302 0
M  V30 53 H -0.6771 -1.1405 3.3934 0
M  V30 54 H -1.7179 0.1609 5.4609 0
M  V30 55 H -0.38 0.8946 4.5309 0
M  V30 56 H -2.4434 2.5254 5.4561 0
M  V30 END ATOM
M  V30 BEGIN BOND
M  V30 1 2 1 2
M  V30 2 1 2 3
M  V30 3 1 2 4
M  V30 4 2 3 5
M  V30 5 1 4 6
M  V30 6 1 5 7
M  V30 7 1 5 8
M  V30 8 1 7 9
M  V30 9 1 7 10
M  V30 10 1 8 11
M  V30 11 1 9 12
M  V30 12 1 9 13
M  V30 13 1 12 14
M  V30 14 1 12 15
M  V30 15 1 13 16
M  V30 16 1 15 17
M  V30 17 1 16 18
M  V30 18 1 17 19
M  V30 19 1 17 20
M  V30 20 1 18 21
M  V30 21 1 19 22
M  V30 22 1 19 23
M  V30 23 2 23 24
M  V30 24 1 23 25
M  V30 25 1 25 26
M  V30 26 1 6 7
M  V30 27 1 11 13
M  V30 28 1 16 17
M  V30 29 1 19 21
M  V30 30 1 3 27
M  V30 31 1 4 28
M  V30 32 1 4 29
M  V30 33 1 6 30
M  V30 34 1 6 31
M  V30 35 1 8 32
M  V30 36 1 8 33
M  V30 37 1 9 34
M  V30 38 1 10 35
M  V30 39 1 10 36
M  V30 40 1 10 37
M  V30 41 1 11 38
M  V30 42 1 11 39
M  V30 43 1 12 40
M  V30 44 1 13 41
M  V30 45 1 14 42
M  V30 46 1 15 43
M  V30 47 1 15 44
M  V30 48 1 16 45
M  V30 49 1 18 46
M  V30 50 1 18 47
M  V30 51 1 20 48
M  V30 52 1 20 49
M  V30 53 1 20 50
M  V30 54 1 21 51
M  V30 55 1 21 52
M  V30 56 1 22 53
M  V30 57 1 25 54
M  V30 58 1 25 55
M  V30 59 1 26 56
M  V30 END BOND
M  V30 BEGIN COLLECTION
M  V30 MDLV30/STEABS ATOMS=(7 7 9 12 13 16 17 19)
M  V30 END COLLECTION
M  V30 END CTAB
M  END
>  <NO.>
393

>  <Name>
cortisol

>  <SMILES>
C[C@]12C[C@H](O)[C@H]3[C@@H](CCC4=CC(=O)CC[C@@]43C)[C@@H]1CC[C@]2(O)C(=O)CO

>  <logBB>
-0.22

>  <Class>
1

>  <MW>
362.21

>  <nHBAcc>
5

>  <nHBDon>
3

>  <SLogP>
1.78

>  <TopoPSA>
94.83

>  <MMFF94 Energy>
133.02

$$$$
Cc1cccc(Cl)c1Nc1nc2ccc(N3CCNC(C)C3)nc2n2cncc12
Actelion Java MolfileCreator 2.0

  0  0  0  0  0  0              0 V3000
M  V30 BEGIN CTAB
M  V30 COUNTS 51 55 0 0 0
M  V30 BEGIN ATOM
M  V30 1 Cl -4.3581 3.7116 3.55 0
M  V30 2 C -4.7139 3.5113 1.864 0
M  V30 3 C -3.6685 3.3476 0.924 0
M  V30 4 C -6.0558 3.517 1.4783 0
M  V30 5 N -2.3396 3.2749 1.4002 0
M  V30 6 C -4.0155 3.2208 -0.4379 0
M  V30 7 C -6.3865 3.355 0.1387 0
M  V30 8 C -1.399 2.3048 1.1287 0
M  V30 9 C -5.3753 3.2086 -0.8091 0
M  V30 10 C -2.9995 3.1187 -1.5446 0
M  V30 11 N -1.682 1.2355 0.4273 0
M  V30 12 C -0.0559 2.4293 1.6511 0
M  V30 13 C -0.6966 0.2511 0.1891 0
M  V30 14 N 0.8878 1.4629 1.4166 0
M  V30 15 C 0.5999 3.3808 2.4014 0
M  V30 16 C 0.6112 0.3178 0.6661 0
M  V30 17 C -1.0048 -0.8656 -0.5676 0
M  V30 18 C 2.0462 1.8495 2.0259 0
M  V30 19 N 1.9043 3.0111 2.6327 0
M  V30 20 N 1.5837 -0.6054 0.4564 0
M  V30 21 C -0.0244 -1.8381 -0.7997 0
M  V30 22 C 1.263 -1.7002 -0.2678 0
M  V30 23 N 2.2444 -2.6565 -0.5027 0
M  V30 24 C 3.6095 -2.3083 -0.0676 0
M  V30 25 C 1.8997 -4.077 -0.3412 0
M  V30 26 C 4.6696 -3.2577 -0.6911 0 CFG=1
M  V30 27 C 2.9794 -4.9849 -0.9693 0
M  V30 28 N 4.3502 -4.6928 -0.5202 0
M  V30 29 C 4.9282 -2.9097 -2.1628 0
M  V30 30 H -6.8431 3.6378 2.2175 0
M  V30 31 H -2.1796 3.8508 2.2185 0
M  V30 32 H -7.4287 3.3487 -0.1706 0
M  V30 33 H -5.6505 3.0944 -1.8568 0
M  V30 34 H -2.8402 2.0728 -1.822 0
M  V30 35 H -2.0455 3.5768 -1.268 0
M  V30 36 H -3.349 3.6583 -2.4325 0
M  V30 37 H 0.2143 4.3146 2.79 0
M  V30 38 H -2.0008 -0.9804 -0.9849 0
M  V30 39 H 2.948 1.2521 1.9922 0
M  V30 40 H -0.2791 -2.6853 -1.4266 0
M  V30 41 H 3.8638 -1.2783 -0.35 0
M  V30 42 H 3.6671 -2.3789 1.027 0
M  V30 43 H 0.9469 -4.3299 -0.8171 0
M  V30 44 H 1.8035 -4.3062 0.728 0
M  V30 45 H 5.6119 -3.0818 -0.1571 0
M  V30 46 H 2.9267 -4.9079 -2.062 0
M  V30 47 H 2.7496 -6.0272 -0.7207 0
M  V30 48 H 5.0075 -5.2547 -1.0591 0
M  V30 49 H 4.0244 -2.9924 -2.7749 0
M  V30 50 H 5.2947 -1.881 -2.252 0
M  V30 51 H 5.6921 -3.5671 -2.5924 0
M  V30 END ATOM
M  V30 BEGIN BOND
M  V30 1 1 1 2
M  V30 2 2 2 3
M  V30 3 1 2 4
M  V30 4 1 3 5
M  V30 5 1 3 6
M  V30 6 2 4 7
M  V30 7 1 5 8
M  V30 8 2 6 9
M  V30 9 1 6 10
M  V30 10 2 8 11
M  V30 11 1 8 12
M  V30 12 1 11 13
M  V30 13 1 12 14
M  V30 14 2 12 15
M  V30 15 2 13 16
M  V30 16 1 13 17
M  V30 17 1 14 18
M  V30 18 1 15 19
M  V30 19 1 16 20
M  V30 20 2 17 21
M  V30 21 2 20 22
M  V30 22 1 22 23
M  V30 23 1 23 24
M  V30 24 1 23 25
M  V30 25 1 24 26
M  V30 26 1 25 27
M  V30 27 1 26 28
M  V30 28 1 26 29
M  V30 29 1 7 9
M  V30 30 1 14 16
M  V30 31 2 18 19
M  V30 32 1 21 22
M  V30 33 1 27 28
M  V30 34 1 4 30
M  V30 35 1 5 31
M  V30 36 1 7 32
M  V30 37 1 9 33
M  V30 38 1 10 34
M  V30 39 1 10 35
M  V30 40 1 10 36
M  V30 41 1 15 37
M  V30 42 1 17 38
M  V30 43 1 18 39
M  V30 44 1 21 40
M  V30 45 1 24 41
M  V30 46 1 24 42
M  V30 47 1 25 43
M  V30 48 1 25 44
M  V30 49 1 26 45
M  V30 50 1 27 46
M  V30 51 1 27 47
M  V30 52 1 28 48
M  V30 53 1 29 49
M  V30 54 1 29 50
M  V30 55 1 29 51
M  V30 END BOND
M  V30 BEGIN COLLECTION
M  V30 MDLV30/STERAC1 ATOMS=(1 26)
M  V30 END COLLECTION
M  V30 END CTAB
M  END
>  <NO.>
395

>  <Name>
schembl4036207

>  <SMILES>
Cc1cccc(Cl)c1Nc1nc2ccc(N3CCNC(C)C3)nc2n2cncc12

>  <logBB>
-0.22

>  <Class>
1

>  <MW>
407.16

>  <nHBAcc>
6

>  <nHBDon>
2

>  <SLogP>
3.78

>  <TopoPSA>
70.38

>  <MMFF94 Energy>
85.262

$$$$
Nc1nc(NC2CC2)c2ncn([C@H]3C=C[C@@H](CO)C3)c2n1
Actelion Java MolfileCreator 2.0

  0  0  0  0  0  0              0 V3000
M  V30 BEGIN CTAB
M  V30 COUNTS 39 42 0 0 0
M  V30 BEGIN ATOM
M  V30 1 O 1.1131 -4.6179 -3.5017 0
M  V30 2 C 1.884 -4.5994 -2.3063 0
M  V30 3 C 2.4228 -3.1941 -2.0403 0 CFG=2
M  V30 4 C 3.232 -3.0875 -0.7824 0
M  V30 5 C 1.2982 -2.1661 -1.8138 0
M  V30 6 C 2.9095 -1.9978 -0.0766 0
M  V30 7 C 1.8229 -1.1995 -0.74 0 CFG=2
M  V30 8 N 0.7882 -0.7511 0.1723 0
M  V30 9 C 0.205 0.4873 0.1615 0
M  V30 10 C 0.1914 -1.476 1.1724 0
M  V30 11 N 0.4676 1.5139 -0.6591 0
M  V30 12 C -0.7228 0.4546 1.1857 0
M  V30 13 N -0.7216 -0.7759 1.8134 0
M  V30 14 C -0.2942 2.5827 -0.3823 0
M  V30 15 C -1.4752 1.6234 1.4008 0
M  V30 16 N -1.2247 2.6812 0.5821 0
M  V30 17 N -0.1085 3.6898 -1.1593 0
M  V30 18 N -2.4347 1.6595 2.4241 0
M  V30 19 C -3.3026 2.7648 2.7938 0
M  V30 20 C -2.8849 4.2059 2.7673 0
M  V30 21 C -3.9295 3.7058 1.8071 0
M  V30 22 H 1.7164 -4.4478 -4.2456 0
M  V30 23 H 1.243 -4.9423 -1.4866 0
M  V30 24 H 2.7007 -5.322 -2.4118 0
M  V30 25 H 3.0365 -2.8742 -2.8922 0
M  V30 26 H 4.0193 -3.7798 -0.5118 0
M  V30 27 H 0.3731 -2.6612 -1.4894 0
M  V30 28 H 1.0572 -1.6322 -2.7407 0
M  V30 29 H 3.3988 -1.693 0.8397 0
M  V30 30 H 2.2773 -0.3153 -1.2032 0
M  V30 31 H 0.4576 -2.5035 1.3878 0
M  V30 32 H 0.5759 3.6535 -1.8921 0
M  V30 33 H -0.6782 4.4937 -0.9595 0
M  V30 34 H -2.4819 0.7753 2.9262 0
M  V30 35 H -3.9363 2.4795 3.6322 0
M  V30 36 H -1.9089 4.4595 2.3731 0
M  V30 37 H -3.2066 4.8397 3.5847 0
M  V30 38 H -4.9582 4.0009 1.9747 0
M  V30 39 H -3.6623 3.6197 0.7614 0
M  V30 END ATOM
M  V30 BEGIN BOND
M  V30 1 1 1 2
M  V30 2 1 2 3
M  V30 3 1 3 4
M  V30 4 1 3 5
M  V30 5 2 4 6
M  V30 6 1 5 7
M  V30 7 1 7 8
M  V30 8 1 8 9
M  V30 9 1 8 10
M  V30 10 2 9 11
M  V30 11 1 9 12
M  V30 12 2 10 13
M  V30 13 1 11 14
M  V30 14 2 12 15
M  V30 15 2 14 16
M  V30 16 1 14 17
M  V30 17 1 15 18
M  V30 18 1 18 19
M  V30 19 1 19 20
M  V30 20 1 19 21
M  V30 21 1 6 7
M  V30 22 1 12 13
M  V30 23 1 15 16
M  V30 24 1 20 21
M  V30 25 1 1 22
M  V30 26 1 2 23
M  V30 27 1 2 24
M  V30 28 1 3 25
M  V30 29 1 4 26
M  V30 30 1 5 27
M  V30 31 1 5 28
M  V30 32 1 6 29
M  V30 33 1 7 30
M  V30 34 1 10 31
M  V30 35 1 17 32
M  V30 36 1 17 33
M  V30 37 1 18 34
M  V30 38 1 19 35
M  V30 39 1 20 36
M  V30 40 1 20 37
M  V30 41 1 21 38
M  V30 42 1 21 39
M  V30 END BOND
M  V30 BEGIN COLLECTION
M  V30 MDLV30/STEABS ATOMS=(2 3 7)
M  V30 END COLLECTION
M  V30 END CTAB
M  END
>  <NO.>
396

>  <Name>
abacavir

>  <SMILES>
Nc1nc(NC2CC2)c2ncn([C@H]3C=C[C@@H](CO)C3)c2n1

>  <logBB>
-0.22

>  <Class>
1

>  <MW>
286.15

>  <nHBAcc>
6

>  <nHBDon>
3

>  <SLogP>
1.09

>  <TopoPSA>
101.88

>  <MMFF94 Energy>
-32.108

$$$$
OC(Cn1cncn1)(Cn1cncn1)c1ccc(F)cc1F
Actelion Java MolfileCreator 2.0

  0  0  0  0  0  0              0 V3000
M  V30 BEGIN CTAB
M  V30 COUNTS 34 36 0 0 0
M  V30 BEGIN ATOM
M  V30 1 F -2.259 -0.7257 -0.5644 0
M  V30 2 C -1.452 0.2852 -0.9164 0
M  V30 3 C -0.1652 0.3714 -0.3598 0
M  V30 4 C -1.9295 1.2243 -1.8229 0
M  V30 5 C 0.6474 1.4468 -0.7617 0
M  V30 6 C 0.334 -0.6916 0.6195 0
M  V30 7 C -1.1066 2.2754 -2.1933 0
M  V30 8 C 0.1759 2.3957 -1.6731 0
M  V30 9 O 1.6292 -0.3243 1.1487 0
M  V30 10 C 0.5211 -2.0637 -0.074 0
M  V30 11 C -0.6227 -0.905 1.8259 0
M  V30 12 F -1.5531 3.1875 -3.0661 0
M  V30 13 N 1.3139 -2.0171 -1.2848 0
M  V30 14 N -0.9176 0.3196 2.542 0
M  V30 15 N 0.7453 -2.235 -2.4861 0
M  V30 16 C 2.655 -1.8281 -1.4054 0
M  V30 17 N 0.082 1.06 3.0638 0
M  V30 18 C -2.1277 0.887 2.7789 0
M  V30 19 C 1.8036 -2.1386 -3.2956 0
M  V30 20 N 2.9939 -1.8945 -2.6725 0
M  V30 21 C -0.6053 2.0661 3.6157 0
M  V30 22 N -1.9603 1.9965 3.4605 0
M  V30 23 H -2.9261 1.1353 -2.2385 0
M  V30 24 H 1.6622 1.555 -0.382 0
M  V30 25 H 0.8061 3.2236 -1.9847 0
M  V30 26 H 1.4735 0.371 1.8295 0
M  V30 27 H -0.445 -2.5109 -0.3386 0
M  V30 28 H 1.0357 -2.765 0.5953 0
M  V30 29 H -1.5775 -1.3518 1.5304 0
M  V30 30 H -0.1608 -1.5732 2.5642 0
M  V30 31 H 3.3137 -1.6462 -0.5673 0
M  V30 32 H -3.0689 0.4714 2.4457 0
M  V30 33 H 1.707 -2.253 -4.3676 0
M  V30 34 H -0.1086 2.8711 4.143 0
M  V30 END ATOM
M  V30 BEGIN BOND
M  V30 1 1 1 2
M  V30 2 2 2 3
M  V30 3 1 2 4
M  V30 4 1 3 5
M  V30 5 1 3 6
M  V30 6 2 4 7
M  V30 7 2 5 8
M  V30 8 1 6 9
M  V30 9 1 6 10
M  V30 10 1 6 11
M  V30 11 1 7 12
M  V30 12 1 10 13
M  V30 13 1 11 14
M  V30 14 1 13 15
M  V30 15 1 13 16
M  V30 16 1 14 17
M  V30 17 1 14 18
M  V30 18 2 15 19
M  V30 19 2 16 20
M  V30 20 2 17 21
M  V30 21 2 18 22
M  V30 22 1 7 8
M  V30 23 1 19 20
M  V30 24 1 21 22
M  V30 25 1 4 23
M  V30 26 1 5 24
M  V30 27 1 8 25
M  V30 28 1 9 26
M  V30 29 1 10 27
M  V30 30 1 10 28
M  V30 31 1 11 29
M  V30 32 1 11 30
M  V30 33 1 16 31
M  V30 34 1 18 32
M  V30 35 1 19 33
M  V30 36 1 21 34
M  V30 END BOND
M  V30 END CTAB
M  END
>  <NO.>
398

>  <Name>
fluconazole

>  <SMILES>
OC(Cn1cncn1)(Cn1cncn1)c1ccc(F)cc1F

>  <logBB>
-0.22

>  <Class>
1

>  <MW>
306.1

>  <nHBAcc>
5

>  <nHBDon>
1

>  <SLogP>
0.74

>  <TopoPSA>
81.65

>  <MMFF94 Energy>
28.515

$$$$
C=C[C@H]1CN2CCC1C[C@@H]2[C@@H](O)c1ccnc2ccc(OC)cc12
Actelion Java MolfileCreator 2.0

  0  0  0  0  0  0              0 V3000
M  V30 BEGIN CTAB
M  V30 COUNTS 48 51 0 0 0
M  V30 BEGIN ATOM
M  V30 1 O -2.083 -3.6073 0.1601 0
M  V30 2 C -1.2403 -3.2982 -0.871 0
M  V30 3 C -2.3705 -4.9855 0.362 0
M  V30 4 C -0.9659 -1.9354 -1.0175 0
M  V30 5 C -0.6595 -4.1972 -1.7518 0
M  V30 6 C -0.1122 -1.4396 -2.0349 0
M  V30 7 C 0.1845 -3.726 -2.7616 0
M  V30 8 C 0.469 -2.3776 -2.9213 0
M  V30 9 C 0.206 -0.0663 -2.2349 0
M  V30 10 N 1.2917 -2.037 -3.9245 0
M  V30 11 C 1.0738 0.2684 -3.286 0
M  V30 12 C -0.3244 1.0549 -1.3502 0 CFG=2
M  V30 13 C 1.5776 -0.7327 -4.0891 0
M  V30 14 O -0.6614 2.1595 -2.2098 0
M  V30 15 C 0.7197 1.5203 -0.2812 0 CFG=2
M  V30 16 N 1.0404 0.5063 0.7707 0
M  V30 17 C 0.3285 2.8634 0.3915 0
M  V30 18 C -0.0215 0.4951 1.81 0
M  V30 19 C 2.3127 0.91 1.4153 0
M  V30 20 C 0.7872 2.8562 1.8662 0
M  V30 21 C -0.0517 1.8083 2.6425 0 CFG=1
M  V30 22 C 2.2514 2.3713 1.8944 0
M  V30 23 C -1.4721 2.1805 3.0146 0
M  V30 24 C -2.0815 3.3626 2.8544 0
M  V30 25 H -2.8878 -5.4114 -0.5039 0
M  V30 26 H -3.042 -5.0641 1.2225 0
M  V30 27 H -1.4611 -5.5486 0.5967 0
M  V30 28 H -1.4339 -1.2608 -0.3092 0
M  V30 29 H -0.8344 -5.2654 -1.6899 0
M  V30 30 H 0.6373 -4.4375 -3.4488 0
M  V30 31 H 1.3464 1.3013 -3.4795 0
M  V30 32 H -1.2652 0.7625 -0.8767 0
M  V30 33 H 2.2464 -0.5045 -4.9133 0
M  V30 34 H -1.3962 2.6331 -1.7853 0
M  V30 35 H 1.6457 1.7175 -0.8429 0
M  V30 36 H -0.7511 3.0356 0.3353 0
M  V30 37 H 0.8143 3.6901 -0.1413 0
M  V30 38 H 0.1513 -0.354 2.4842 0
M  V30 39 H -0.9943 0.298 1.3458 0
M  V30 40 H 2.5304 0.2417 2.2581 0
M  V30 41 H 3.1467 0.781 0.7146 0
M  V30 42 H 0.7141 3.8551 2.3082 0
M  V30 43 H 0.4597 1.615 3.5968 0
M  V30 44 H 2.6599 2.4466 2.9089 0
M  V30 45 H 2.8669 3.0084 1.2477 0
M  V30 46 H -2.0444 1.3854 3.4944 0
M  V30 47 H -1.5915 4.2223 2.4111 0
M  V30 48 H -3.1082 3.5004 3.183 0
M  V30 END ATOM
M  V30 BEGIN BOND
M  V30 1 1 1 2
M  V30 2 1 1 3
M  V30 3 2 2 4
M  V30 4 1 2 5
M  V30 5 1 4 6
M  V30 6 2 5 7
M  V30 7 1 6 8
M  V30 8 2 6 9
M  V30 9 2 8 10
M  V30 10 1 9 11
M  V30 11 1 9 12
M  V30 12 1 10 13
M  V30 13 1 12 14
M  V30 14 1 12 15
M  V30 15 1 15 16
M  V30 16 1 15 17
M  V30 17 1 16 18
M  V30 18 1 16 19
M  V30 19 1 17 20
M  V30 20 1 18 21
M  V30 21 1 19 22
M  V30 22 1 21 23
M  V30 23 2 23 24
M  V30 24 1 7 8
M  V30 25 2 11 13
M  V30 26 1 20 21
M  V30 27 1 20 22
M  V30 28 1 3 25
M  V30 29 1 3 26
M  V30 30 1 3 27
M  V30 31 1 4 28
M  V30 32 1 5 29
M  V30 33 1 7 30
M  V30 34 1 11 31
M  V30 35 1 12 32
M  V30 36 1 13 33
M  V30 37 1 14 34
M  V30 38 1 15 35
M  V30 39 1 17 36
M  V30 40 1 17 37
M  V30 41 1 18 38
M  V30 42 1 18 39
M  V30 43 1 19 40
M  V30 44 1 19 41
M  V30 45 1 20 42
M  V30 46 1 21 43
M  V30 47 1 22 44
M  V30 48 1 22 45
M  V30 49 1 23 46
M  V30 50 1 24 47
M  V30 51 1 24 48
M  V30 END BOND
M  V30 BEGIN COLLECTION
M  V30 MDLV30/STEABS ATOMS=(3 12 15 21)
M  V30 END COLLECTION
M  V30 END CTAB
M  END
>  <NO.>
399

>  <Name>
quinidine

>  <SMILES>
C=C[C@H]1CN2CCC1C[C@@H]2[C@@H](O)c1ccnc2ccc(OC)cc12

>  <logBB>
-0.21

>  <Class>
1

>  <MW>
324.18

>  <nHBAcc>
4

>  <nHBDon>
1

>  <SLogP>
3.17

>  <TopoPSA>
45.59

>  <MMFF94 Energy>
117.02

$$$$
CCCC(CCC)C(=O)O
Actelion Java MolfileCreator 2.0

  0  0  0  0  0  0              0 V3000
M  V30 BEGIN CTAB
M  V30 COUNTS 26 25 0 0 0
M  V30 BEGIN ATOM
M  V30 1 O 1.612 1.7657 0.6906 0
M  V30 2 C 1.3388 0.6929 1.2012 0
M  V30 3 O 1.7975 0.3888 2.4318 0
M  V30 4 C 0.4884 -0.4148 0.6132 0
M  V30 5 C -0.9177 -0.3843 1.2403 0
M  V30 6 C 0.4556 -0.35 -0.9236 0
M  V30 7 C -1.7618 0.8384 0.8659 0
M  V30 8 C 1.7982 -0.7399 -1.5518 0
M  V30 9 C -3.1112 0.8135 1.5689 0
M  V30 10 C 1.7344 -0.6924 -3.0705 0
M  V30 11 H 2.3156 1.1791 2.6919 0
M  V30 12 H 0.9606 -1.3655 0.8959 0
M  V30 13 H -0.8251 -0.4303 2.3332 0
M  V30 14 H -1.4555 -1.292 0.9379 0
M  V30 15 H -0.3169 -1.0339 -1.297 0
M  V30 16 H 0.1834 0.6574 -1.2614 0
M  V30 17 H -1.2383 1.761 1.1392 0
M  V30 18 H -1.9326 0.8666 -0.2153 0
M  V30 19 H 2.5905 -0.0655 -1.2086 0
M  V30 20 H 2.0753 -1.7526 -1.237 0
M  V30 21 H -3.7015 1.691 1.2868 0
M  V30 22 H -3.6799 -0.0807 1.2949 0
M  V30 23 H -2.9875 0.8232 2.6565 0
M  V30 24 H 2.7003 -0.9767 -3.4993 0
M  V30 25 H 0.9764 -1.3831 -3.4533 0
M  V30 26 H 1.4903 0.3153 -3.4213 0
M  V30 END ATOM
M  V30 BEGIN BOND
M  V30 1 2 1 2
M  V30 2 1 2 3
M  V30 3 1 2 4
M  V30 4 1 4 5
M  V30 5 1 4 6
M  V30 6 1 5 7
M  V30 7 1 6 8
M  V30 8 1 7 9
M  V30 9 1 8 10
M  V30 10 1 3 11
M  V30 11 1 4 12
M  V30 12 1 5 13
M  V30 13 1 5 14
M  V30 14 1 6 15
M  V30 15 1 6 16
M  V30 16 1 7 17
M  V30 17 1 7 18
M  V30 18 1 8 19
M  V30 19 1 8 20
M  V30 20 1 9 21
M  V30 21 1 9 22
M  V30 22 1 9 23
M  V30 23 1 10 24
M  V30 24 1 10 25
M  V30 25 1 10 26
M  V30 END BOND
M  V30 END CTAB
M  END
>  <NO.>
401

>  <Name>
valproate

>  <SMILES>
CCCC(CCC)C(=O)O

>  <logBB>
-0.2

>  <Class>
1

>  <MW>
144.12

>  <nHBAcc>
1

>  <nHBDon>
1

>  <SLogP>
2.29

>  <TopoPSA>
37.3

>  <MMFF94 Energy>
-24.011

$$$$
Cn1ncnc1COc1nn2c(-c3cc(F)ccc3F)nnc2cc1C(C)(C)C
Actelion Java MolfileCreator 2.0

  0  0  0  0  0  0              0 V3000
M  V30 BEGIN CTAB
M  V30 COUNTS 48 51 0 0 0
M  V30 BEGIN ATOM
M  V30 1 F 0.4824 -4.5094 -4.1061 0
M  V30 2 C 0.4791 -4.6872 -2.7767 0
M  V30 3 C 0.054 -3.6612 -1.918 0
M  V30 4 C 0.9457 -5.9099 -2.2879 0
M  V30 5 C -0.5218 -2.4307 -2.4682 0
M  V30 6 C 0.0467 -3.9301 -0.5407 0
M  V30 7 C 0.9686 -6.1421 -0.9163 0
M  V30 8 N -1.1506 -2.3177 -3.6283 0
M  V30 9 N -0.5196 -1.1858 -1.8599 0
M  V30 10 C 0.5135 -5.1512 -0.0564 0
M  V30 11 N -1.5696 -1.0183 -3.7852 0
M  V30 12 N 0.033 -0.8334 -0.6634 0
M  V30 13 C -1.1831 -0.3487 -2.7259 0
M  V30 14 F 0.5098 -5.3757 1.2638 0
M  V30 15 C -0.1228 0.4192 -0.3864 0
M  V30 16 C -1.3257 1.0051 -2.3601 0
M  V30 17 O 0.3583 0.9243 0.7685 0
M  V30 18 C -0.8205 1.4758 -1.2 0
M  V30 19 C 1.1992 0.0639 1.5531 0
M  V30 20 C -0.9241 2.9459 -0.7442 0
M  V30 21 C 1.662 0.8677 2.7133 0
M  V30 22 C -1.6773 3.8354 -1.7709 0
M  V30 23 C -1.7135 3.0609 0.577 0
M  V30 24 C 0.4761 3.5762 -0.5829 0
M  V30 25 N 2.8824 1.3253 2.9229 0
M  V30 26 N 0.865 1.253 3.7582 0
M  V30 27 C 2.7753 1.9852 4.1113 0
M  V30 28 N 1.5619 1.9654 4.6634 0
M  V30 29 C -0.5343 1.0022 3.9853 0
M  V30 30 H 1.2827 -6.6695 -2.9868 0
M  V30 31 H -0.3289 -3.2106 0.1797 0
M  V30 32 H 1.3244 -7.086 -0.5159 0
M  V30 33 H -1.8539 1.6318 -3.0688 0
M  V30 34 H 0.6394 -0.815 1.8915 0
M  V30 35 H 2.0617 -0.2548 0.9569 0
M  V30 36 H -2.7067 3.4911 -1.9251 0
M  V30 37 H -1.7378 4.8749 -1.4255 0
M  V30 38 H -1.1679 3.8516 -2.7415 0
M  V30 39 H -1.1869 2.619 1.4262 0
M  V30 40 H -1.8932 4.1107 0.8385 0
M  V30 41 H -2.69 2.569 0.4975 0
M  V30 42 H 1.0697 3.4562 -1.4967 0
M  V30 43 H 1.0466 3.1437 0.2431 0
M  V30 44 H 0.4022 4.6508 -0.3765 0
M  V30 45 H 3.6047 2.4922 4.5877 0
M  V30 46 H -1.0483 1.9638 4.0618 0
M  V30 47 H -0.6359 0.4419 4.9182 0
M  V30 48 H -0.9576 0.4244 3.1624 0
M  V30 END ATOM
M  V30 BEGIN BOND
M  V30 1 1 1 2
M  V30 2 2 2 3
M  V30 3 1 2 4
M  V30 4 1 3 5
M  V30 5 1 3 6
M  V30 6 2 4 7
M  V30 7 2 5 8
M  V30 8 1 5 9
M  V30 9 2 6 10
M  V30 10 1 8 11
M  V30 11 1 9 12
M  V30 12 1 9 13
M  V30 13 1 10 14
M  V30 14 2 12 15
M  V30 15 1 13 16
M  V30 16 1 15 17
M  V30 17 1 15 18
M  V30 18 1 17 19
M  V30 19 1 18 20
M  V30 20 1 19 21
M  V30 21 1 20 22
M  V30 22 1 20 23
M  V30 23 1 20 24
M  V30 24 2 21 25
M  V30 25 1 21 26
M  V30 26 1 25 27
M  V30 27 1 26 28
M  V30 28 1 26 29
M  V30 29 1 7 10
M  V30 30 2 11 13
M  V30 31 2 16 18
M  V30 32 2 27 28
M  V30 33 1 4 30
M  V30 34 1 6 31
M  V30 35 1 7 32
M  V30 36 1 16 33
M  V30 37 1 19 34
M  V30 38 1 19 35
M  V30 39 1 22 36
M  V30 40 1 22 37
M  V30 41 1 22 38
M  V30 42 1 23 39
M  V30 43 1 23 40
M  V30 44 1 23 41
M  V30 45 1 24 42
M  V30 46 1 24 43
M  V30 47 1 24 44
M  V30 48 1 27 45
M  V30 49 1 29 46
M  V30 50 1 29 47
M  V30 51 1 29 48
M  V30 END BOND
M  V30 END CTAB
M  END
>  <NO.>
405

>  <Name>
l-838417

>  <SMILES>
Cn1ncnc1COc1nn2c(-c3cc(F)ccc3F)nnc2cc1C(C)(C)C

>  <logBB>
-0.2

>  <Class>
1

>  <MW>
399.16

>  <nHBAcc>
6

>  <nHBDon>
0

>  <SLogP>
3.07

>  <TopoPSA>
83.02

>  <MMFF94 Energy>
57.236

$$$$
O=c1n(CCCN2CCN(c3cccc(Cl)c3)CC2)nc2ccccn12
Actelion Java MolfileCreator 2.0

  0  0  0  0  0  0              0 V3000
M  V30 BEGIN CTAB
M  V30 COUNTS 48 51 0 0 0
M  V30 BEGIN ATOM
M  V30 1 Cl 1.0446 -3.9416 -6.7644 0
M  V30 2 C -0.2665 -3.0886 -6.0439 0
M  V30 3 C -0.2339 -2.7922 -4.6786 0
M  V30 4 C -1.3503 -2.7069 -6.8254 0
M  V30 5 C -1.2839 -2.1004 -4.0537 0
M  V30 6 C -2.409 -2.0296 -6.2311 0
M  V30 7 N -1.2364 -1.8208 -2.6913 0
M  V30 8 C -2.3733 -1.7362 -4.8622 0
M  V30 9 C -0.0298 -1.1571 -2.1606 0
M  V30 10 C -2.4697 -1.5137 -1.9491 0
M  V30 11 C 0.0958 -1.3555 -0.6314 0
M  V30 12 C -2.2701 -1.7144 -0.43 0
M  V30 13 N -1.1204 -0.9531 0.1138 0
M  V30 14 C -0.9905 -1.2007 1.5582 0
M  V30 15 C 0.0412 -0.3127 2.2618 0
M  V30 16 C -0.2314 1.1761 2.0632 0
M  V30 17 N 0.6894 1.9824 2.8307 0
M  V30 18 N 1.9778 2.2543 2.4066 0
M  V30 19 C 0.4546 2.5364 4.1 0
M  V30 20 C 2.4734 2.9559 3.3792 0
M  V30 21 O -0.566 2.458 4.767 0
M  V30 22 N 1.6308 3.1702 4.4234 0
M  V30 23 C 3.8304 3.5337 3.4742 0
M  V30 24 C 1.9497 3.8757 5.5499 0
M  V30 25 C 4.139 4.2283 4.5827 0
M  V30 26 C 3.1767 4.4085 5.6561 0
M  V30 27 H 0.6119 -3.1372 -4.0912 0
M  V30 28 H -1.3774 -2.9358 -7.8865 0
M  V30 29 H -3.2646 -1.7241 -6.8276 0
M  V30 30 H -3.2145 -1.1907 -4.4431 0
M  V30 31 H -0.0848 -0.0846 -2.3882 0
M  V30 32 H 0.889 -1.5375 -2.6187 0
M  V30 33 H -3.2855 -2.1757 -2.2646 0
M  V30 34 H -2.773 -0.4776 -2.1461 0
M  V30 35 H 0.9538 -0.7615 -0.2987 0
M  V30 36 H 0.3283 -2.4099 -0.4306 0
M  V30 37 H -2.1407 -2.7865 -0.2284 0
M  V30 38 H -3.1907 -1.3963 0.0745 0
M  V30 39 H -0.7471 -2.2535 1.7513 0
M  V30 40 H -1.9597 -1.0123 2.0387 0
M  V30 41 H 0.019 -0.544 3.3348 0
M  V30 42 H 1.0563 -0.5573 1.9279 0
M  V30 43 H -1.2497 1.4147 2.3899 0
M  V30 44 H -0.1321 1.4664 1.0121 0
M  V30 45 H 4.5145 3.3752 2.6525 0
M  V30 46 H 1.1834 3.9704 6.3119 0
M  V30 47 H 5.1218 4.6739 4.7022 0
M  V30 48 H 3.4719 4.9762 6.5325 0
M  V30 END ATOM
M  V30 BEGIN BOND
M  V30 1 1 1 2
M  V30 2 2 2 3
M  V30 3 1 2 4
M  V30 4 1 3 5
M  V30 5 2 4 6
M  V30 6 1 5 7
M  V30 7 2 5 8
M  V30 8 1 7 9
M  V30 9 1 7 10
M  V30 10 1 9 11
M  V30 11 1 10 12
M  V30 12 1 11 13
M  V30 13 1 13 14
M  V30 14 1 14 15
M  V30 15 1 15 16
M  V30 16 1 16 17
M  V30 17 1 17 18
M  V30 18 1 17 19
M  V30 19 2 18 20
M  V30 20 2 19 21
M  V30 21 1 19 22
M  V30 22 1 20 23
M  V30 23 1 22 24
M  V30 24 2 23 25
M  V30 25 2 24 26
M  V30 26 1 6 8
M  V30 27 1 12 13
M  V30 28 1 20 22
M  V30 29 1 25 26
M  V30 30 1 3 27
M  V30 31 1 4 28
M  V30 32 1 6 29
M  V30 33 1 8 30
M  V30 34 1 9 31
M  V30 35 1 9 32
M  V30 36 1 10 33
M  V30 37 1 10 34
M  V30 38 1 11 35
M  V30 39 1 11 36
M  V30 40 1 12 37
M  V30 41 1 12 38
M  V30 42 1 14 39
M  V30 43 1 14 40
M  V30 44 1 15 41
M  V30 45 1 15 42
M  V30 46 1 16 43
M  V30 47 1 16 44
M  V30 48 1 23 45
M  V30 49 1 24 46
M  V30 50 1 25 47
M  V30 51 1 26 48
M  V30 END BOND
M  V30 END CTAB
M  END
>  <NO.>
406

>  <Name>
trazodone

>  <SMILES>
O=c1n(CCCN2CCN(c3cccc(Cl)c3)CC2)nc2ccccn12

>  <logBB>
-0.2

>  <Class>
1

>  <MW>
371.15

>  <nHBAcc>
4

>  <nHBDon>
0

>  <SLogP>
2.36

>  <TopoPSA>
45.78

>  <MMFF94 Energy>
110.38

$$$$
CC(C)Cc1ccc(C(C)C(=O)O)cc1
Actelion Java MolfileCreator 2.0

  0  0  0  0  0  0              0 V3000
M  V30 BEGIN CTAB
M  V30 COUNTS 33 33 0 0 0
M  V30 BEGIN ATOM
M  V30 1 O 3.206 2.3451 2.1104 0
M  V30 2 C 2.2966 3.1429 1.9531 0
M  V30 3 O 2.5315 4.4632 2.1274 0
M  V30 4 C 0.8417 2.8587 1.6201 0 CFG=1
M  V30 5 C 0.6492 1.62 0.7587 0
M  V30 6 C 0.0324 2.7827 2.9151 0
M  V30 7 C 0.9932 0.3402 1.2168 0
M  V30 8 C 0.1043 1.7429 -0.5283 0
M  V30 9 C 0.7973 -0.7846 0.4115 0
M  V30 10 C -0.0926 0.6174 -1.3331 0
M  V30 11 C 0.2505 -0.6573 -0.8702 0
M  V30 12 C 0.0365 -1.8749 -1.737 0
M  V30 13 C -1.1266 -2.7732 -1.2724 0
M  V30 14 C -2.4832 -2.0802 -1.4249 0
M  V30 15 C -1.1228 -4.0797 -2.0699 0
M  V30 16 H 3.4872 4.4997 2.3438 0
M  V30 17 H 0.4783 3.7225 1.0465 0
M  V30 18 H 0.3918 1.9849 3.5748 0
M  V30 19 H -1.0273 2.5978 2.708 0
M  V30 20 H 0.1081 3.7214 3.4754 0
M  V30 21 H 1.4325 0.2056 2.2035 0
M  V30 22 H -0.1764 2.7186 -0.9194 0
M  V30 23 H 1.0813 -1.7632 0.792 0
M  V30 24 H -0.5197 0.7447 -2.3253 0
M  V30 25 H 0.9721 -2.4502 -1.7392 0
M  V30 26 H -0.1222 -1.5679 -2.7792 0
M  V30 27 H -0.9923 -3.0285 -0.2135 0
M  V30 28 H -2.5502 -1.1916 -0.7894 0
M  V30 29 H -2.6579 -1.7723 -2.4614 0
M  V30 30 H -3.2967 -2.7525 -1.1313 0
M  V30 31 H -0.1755 -4.6131 -1.9381 0
M  V30 32 H -1.2615 -3.8929 -3.1403 0
M  V30 33 H -1.9273 -4.7429 -1.7346 0
M  V30 END ATOM
M  V30 BEGIN BOND
M  V30 1 2 1 2
M  V30 2 1 2 3
M  V30 3 1 2 4
M  V30 4 1 4 5
M  V30 5 1 4 6
M  V30 6 2 5 7
M  V30 7 1 5 8
M  V30 8 1 7 9
M  V30 9 2 8 10
M  V30 10 2 9 11
M  V30 11 1 11 12
M  V30 12 1 12 13
M  V30 13 1 13 14
M  V30 14 1 13 15
M  V30 15 1 10 11
M  V30 16 1 3 16
M  V30 17 1 4 17
M  V30 18 1 6 18
M  V30 19 1 6 19
M  V30 20 1 6 20
M  V30 21 1 7 21
M  V30 22 1 8 22
M  V30 23 1 9 23
M  V30 24 1 10 24
M  V30 25 1 12 25
M  V30 26 1 12 26
M  V30 27 1 13 27
M  V30 28 1 14 28
M  V30 29 1 14 29
M  V30 30 1 14 30
M  V30 31 1 15 31
M  V30 32 1 15 32
M  V30 33 1 15 33
M  V30 END BOND
M  V30 BEGIN COLLECTION
M  V30 MDLV30/STERAC1 ATOMS=(1 4)
M  V30 END COLLECTION
M  V30 END CTAB
M  END
>  <NO.>
407

>  <Name>
ibuprofen 

>  <SMILES>
CC(C)Cc1ccc(C(C)C(=O)O)cc1

>  <logBB>
-0.2

>  <Class>
1

>  <MW>
206.13

>  <nHBAcc>
1

>  <nHBDon>
1

>  <SLogP>
3.07

>  <TopoPSA>
37.3

>  <MMFF94 Energy>
24.065

$$$$
Fc1cccc(F)c1N=C1NCCN1
Actelion Java MolfileCreator 2.0

  0  0  0  0  0  0              0 V3000
M  V30 BEGIN CTAB
M  V30 COUNTS 23 24 0 0 0
M  V30 BEGIN ATOM
M  V30 1 F -0.0796 2.7889 -0.1592 0
M  V30 2 C -0.8787 1.8893 -0.7543 0
M  V30 3 C -1.2002 0.6916 -0.1053 0
M  V30 4 C -1.3619 2.1805 -2.0316 0
M  V30 5 N -0.7265 0.4142 1.1902 0
M  V30 6 C -2.0405 -0.2031 -0.7776 0
M  V30 7 C -2.1909 1.2704 -2.6858 0
M  V30 8 C 0.3923 -0.2081 1.3024 0
M  V30 9 F -2.3871 -1.367 -0.2054 0
M  V30 10 C -2.5311 0.0747 -2.0551 0
M  V30 11 N 0.9475 -0.5296 2.5032 0
M  V30 12 N 1.2596 -0.679 0.3584 0
M  V30 13 C 2.2073 -1.2281 2.4216 0
M  V30 14 C 2.4305 -1.3351 0.9012 0
M  V30 15 H -1.0885 3.1205 -2.5015 0
M  V30 16 H -2.5737 1.494 -3.6784 0
M  V30 17 H -3.1798 -0.6461 -2.5435 0
M  V30 18 H 0.4863 -0.2832 3.3656 0
M  V30 19 H 1.0993 -0.579 -0.6307 0
M  V30 20 H 3.0071 -0.6574 2.9028 0
M  V30 21 H 2.1414 -2.2167 2.8854 0
M  V30 22 H 3.346 -0.8199 0.5955 0
M  V30 23 H 2.4803 -2.3791 0.5781 0
M  V30 END ATOM
M  V30 BEGIN BOND
M  V30 1 1 1 2
M  V30 2 2 2 3
M  V30 3 1 2 4
M  V30 4 1 3 5
M  V30 5 1 3 6
M  V30 6 2 4 7
M  V30 7 2 5 8
M  V30 8 1 6 9
M  V30 9 2 6 10
M  V30 10 1 8 11
M  V30 11 1 8 12
M  V30 12 1 11 13
M  V30 13 1 12 14
M  V30 14 1 7 10
M  V30 15 1 13 14
M  V30 16 1 4 15
M  V30 17 1 7 16
M  V30 18 1 10 17
M  V30 19 1 11 18
M  V30 20 1 12 19
M  V30 21 1 13 20
M  V30 22 1 13 21
M  V30 23 1 14 22
M  V30 24 1 14 23
M  V30 END BOND
M  V30 END CTAB
M  END
>  <NO.>
410

>  <Name>
tz-3

>  <SMILES>
Fc1cccc(F)c1N=C1NCCN1

>  <logBB>
-0.2

>  <Class>
1

>  <MW>
197.08

>  <nHBAcc>
1

>  <nHBDon>
2

>  <SLogP>
1.15

>  <TopoPSA>
36.42

>  <MMFF94 Energy>
-34.357

$$$$
NNCCc1ccccc1
Actelion Java MolfileCreator 2.0

  0  0  0  0  0  0              0 V3000
M  V30 BEGIN CTAB
M  V30 COUNTS 22 22 0 0 0
M  V30 BEGIN ATOM
M  V30 1 N -2.7906 -0.6196 -1.317 0
M  V30 2 N -3.6199 0.466 -0.8321 0
M  V30 3 C -1.5648 -0.7119 -0.4988 0
M  V30 4 C -0.549 0.3932 -0.8177 0
M  V30 5 C 0.7336 0.2119 -0.0404 0
M  V30 6 C 0.8421 0.694 1.271 0
M  V30 7 C 1.8211 -0.4637 -0.6095 0
M  V30 8 C 2.0204 0.511 1.9961 0
M  V30 9 C 2.9986 -0.6454 0.1173 0
M  V30 10 C 3.0983 -0.1577 1.4191 0
M  V30 11 H -3.2856 -1.5133 -1.2131 0
M  V30 12 H -3.2013 1.3734 -1.059 0
M  V30 13 H -4.5198 0.477 -1.3231 0
M  V30 14 H -1.8144 -0.7249 0.5703 0
M  V30 15 H -1.103 -1.6839 -0.7148 0
M  V30 16 H -0.3254 0.4005 -1.8924 0
M  V30 17 H -0.9615 1.3837 -0.5888 0
M  V30 18 H 0.0072 1.2149 1.735 0
M  V30 19 H 1.7571 -0.8524 -1.6233 0
M  V30 20 H 2.0966 0.8899 3.0119 0
M  V30 21 H 3.8384 -1.1684 -0.3323 0
M  V30 22 H 4.0155 -0.2996 1.9843 0
M  V30 END ATOM
M  V30 BEGIN BOND
M  V30 1 1 1 2
M  V30 2 1 1 3
M  V30 3 1 3 4
M  V30 4 1 4 5
M  V30 5 2 5 6
M  V30 6 1 5 7
M  V30 7 1 6 8
M  V30 8 2 7 9
M  V30 9 2 8 10
M  V30 10 1 9 10
M  V30 11 1 1 11
M  V30 12 1 2 12
M  V30 13 1 2 13
M  V30 14 1 3 14
M  V30 15 1 3 15
M  V30 16 1 4 16
M  V30 17 1 4 17
M  V30 18 1 6 18
M  V30 19 1 7 19
M  V30 20 1 8 20
M  V30 21 1 9 21
M  V30 22 1 10 22
M  V30 END BOND
M  V30 END CTAB
M  END
>  <NO.>
411

>  <Name>
phenelzine

>  <SMILES>
NNCCc1ccccc1

>  <logBB>
-0.2

>  <Class>
1

>  <MW>
136.1

>  <nHBAcc>
2

>  <nHBDon>
2

>  <SLogP>
0.69

>  <TopoPSA>
38.05

>  <MMFF94 Energy>
70.712

$$$$
O=C(Cc1ccc(OCc2ccccc2)cc1)Nc1ccc2cnn(CCN3CCCC3)c2c1
Actelion Java MolfileCreator 2.0

  0  0  0  0  0  0              0 V3000
M  V30 BEGIN CTAB
M  V30 COUNTS 64 68 0 0 0
M  V30 BEGIN ATOM
M  V30 1 O 1.1156 -0.7967 -3.5893 0
M  V30 2 C 1.4004 -1.4139 -2.5663 0
M  V30 3 N 2.0957 -0.9153 -1.4766 0
M  V30 4 C 1.0594 -2.8934 -2.4402 0
M  V30 5 C 2.5709 0.3991 -1.2906 0
M  V30 6 C 0.3594 -3.2649 -1.153 0
M  V30 7 C 2.1847 1.4757 -2.0978 0
M  V30 8 C 3.4495 0.6076 -0.2199 0
M  V30 9 C -0.8421 -2.6446 -0.7911 0
M  V30 10 C 0.892 -4.249 -0.31 0
M  V30 11 C 2.7167 2.7446 -1.8071 0
M  V30 12 C 3.9725 1.8778 0.0615 0
M  V30 13 C -1.4825 -2.9909 0.4005 0
M  V30 14 C 0.2453 -4.5952 0.8823 0
M  V30 15 N 2.5406 3.9808 -2.3866 0
M  V30 16 C 3.5959 2.9589 -0.7505 0
M  V30 17 C -0.9451 -3.9652 1.2436 0
M  V30 18 N 3.2567 4.9648 -1.7945 0
M  V30 19 C 1.749 4.3016 -3.5567 0
M  V30 20 C 3.8873 4.3381 -0.8 0
M  V30 21 O -1.6748 -4.2044 2.3742 0
M  V30 22 C 0.5472 5.2193 -3.279 0
M  V30 23 C -1.1993 -5.219 3.2543 0
M  V30 24 N -0.6877 4.4901 -2.9095 0
M  V30 25 C -2.163 -5.329 4.4098 0
M  V30 26 C -1.8834 5.3306 -3.0993 0
M  V30 27 C -0.7368 4.1568 -1.4751 0
M  V30 28 C -3.2887 -6.1601 4.3193 0
M  V30 29 C -1.9683 -4.5742 5.5753 0
M  V30 30 C -1.9927 6.1891 -1.8502 0
M  V30 31 C -1.2943 5.384 -0.7651 0
M  V30 32 C -4.1877 -6.2526 5.3832 0
M  V30 33 C -2.8686 -4.6682 6.638 0
M  V30 34 C -3.9757 -5.5093 6.5429 0
M  V30 35 H 2.2792 -1.5645 -0.721 0
M  V30 36 H 1.9964 -3.4535 -2.5468 0
M  V30 37 H 0.4162 -3.1799 -3.281 0
M  V30 38 H 1.4832 1.3579 -2.9153 0
M  V30 39 H 3.7505 -0.2209 0.4168 0
M  V30 40 H -1.2906 -1.8857 -1.4305 0
M  V30 41 H 1.8143 -4.7628 -0.5745 0
M  V30 42 H 4.656 2.0189 0.8932 0
M  V30 43 H -2.4136 -2.4983 0.6729 0
M  V30 44 H 0.6979 -5.363 1.5008 0
M  V30 45 H 2.4352 4.8049 -4.2501 0
M  V30 46 H 1.4357 3.3753 -4.0485 0
M  V30 47 H 4.5368 4.9094 -0.1502 0
M  V30 48 H 0.7973 6.0047 -2.5551 0
M  V30 49 H 0.3532 5.731 -4.2313 0
M  V30 50 H -0.2026 -4.9633 3.6355 0
M  V30 51 H -1.143 -6.1858 2.7382 0
M  V30 52 H -1.8633 5.926 -4.0185 0
M  V30 53 H -2.7603 4.6745 -3.1715 0
M  V30 54 H -1.4294 3.3158 -1.3426 0
M  V30 55 H 0.2154 3.8393 -1.0473 0
M  V30 56 H -3.4743 -6.7344 3.4144 0
M  V30 57 H -1.1167 -3.9027 5.6583 0
M  V30 58 H -3.0354 6.4012 -1.5934 0
M  V30 59 H -1.4793 7.1472 -1.9918 0
M  V30 60 H -1.9869 5.099 0.0334 0
M  V30 61 H -0.4899 5.9784 -0.3172 0
M  V30 62 H -5.0574 -6.8995 5.3041 0
M  V30 63 H -2.7097 -4.0796 7.5378 0
M  V30 64 H -4.6783 -5.5789 7.3691 0
M  V30 END ATOM
M  V30 BEGIN BOND
M  V30 1 2 1 2
M  V30 2 1 2 3
M  V30 3 1 2 4
M  V30 4 1 3 5
M  V30 5 1 4 6
M  V30 6 2 5 7
M  V30 7 1 5 8
M  V30 8 2 6 9
M  V30 9 1 6 10
M  V30 10 1 7 11
M  V30 11 2 8 12
M  V30 12 1 9 13
M  V30 13 2 10 14
M  V30 14 1 11 15
M  V30 15 2 11 16
M  V30 16 2 13 17
M  V30 17 1 15 18
M  V30 18 1 15 19
M  V30 19 1 16 20
M  V30 20 1 17 21
M  V30 21 1 19 22
M  V30 22 1 21 23
M  V30 23 1 22 24
M  V30 24 1 23 25
M  V30 25 1 24 26
M  V30 26 1 24 27
M  V30 27 2 25 28
M  V30 28 1 25 29
M  V30 29 1 26 30
M  V30 30 1 27 31
M  V30 31 1 28 32
M  V30 32 2 29 33
M  V30 33 2 32 34
M  V30 34 1 12 16
M  V30 35 1 14 17
M  V30 36 2 18 20
M  V30 37 1 30 31
M  V30 38 1 33 34
M  V30 39 1 3 35
M  V30 40 1 4 36
M  V30 41 1 4 37
M  V30 42 1 7 38
M  V30 43 1 8 39
M  V30 44 1 9 40
M  V30 45 1 10 41
M  V30 46 1 12 42
M  V30 47 1 13 43
M  V30 48 1 14 44
M  V30 49 1 19 45
M  V30 50 1 19 46
M  V30 51 1 20 47
M  V30 52 1 22 48
M  V30 53 1 22 49
M  V30 54 1 23 50
M  V30 55 1 23 51
M  V30 56 1 26 52
M  V30 57 1 26 53
M  V30 58 1 27 54
M  V30 59 1 27 55
M  V30 60 1 28 56
M  V30 61 1 29 57
M  V30 62 1 30 58
M  V30 63 1 30 59
M  V30 64 1 31 60
M  V30 65 1 31 61
M  V30 66 1 32 62
M  V30 67 1 33 63
M  V30 68 1 34 64
M  V30 END BOND
M  V30 END CTAB
M  END
>  <NO.>
412

>  <Name>
indole-based mchr1 antagonist(7a)

>  <SMILES>
O=C(Cc1ccc(OCc2ccccc2)cc1)Nc1ccc2cnn(CCN3CCCC3)c2c1

>  <logBB>
-0.2

>  <Class>
1

>  <MW>
454.24

>  <nHBAcc>
4

>  <nHBDon>
1

>  <SLogP>
4.89

>  <TopoPSA>
59.39

>  <MMFF94 Energy>
99.716

$$$$
O=C(OCc1ccccc1)N1CCC(CNc2ccncn2)CC1
Actelion Java MolfileCreator 2.0

  0  0  0  0  0  0              0 V3000
M  V30 BEGIN CTAB
M  V30 COUNTS 46 48 0 0 0
M  V30 BEGIN ATOM
M  V30 1 O 3.4855 0.9496 0.633 0
M  V30 2 C 2.725 0.1817 0.0546 0
M  V30 3 O 2.8659 -0.1887 -1.2438 0
M  V30 4 N 1.6235 -0.4026 0.6536 0
M  V30 5 C 3.9475 0.4185 -1.9577 0
M  V30 6 C 0.6933 -1.2919 -0.0333 0
M  V30 7 C 1.3063 -0.1072 2.0417 0
M  V30 8 C 3.4279 1.5873 -2.7541 0
M  V30 9 C -0.7236 -0.7253 0.0265 0
M  V30 10 C -0.0951 0.4887 2.1513 0
M  V30 11 C 2.8159 1.386 -3.999 0
M  V30 12 C 3.5118 2.8887 -2.2405 0
M  V30 13 C -1.1437 -0.4164 1.4778 0
M  V30 14 C 2.3179 2.4688 -4.7256 0
M  V30 15 C 3.0129 3.9701 -2.9681 0
M  V30 16 C -2.5287 0.2469 1.5382 0
M  V30 17 C 2.4188 3.7603 -4.2112 0
M  V30 18 N -3.562 -0.6384 1.0541 0
M  V30 19 C -4.1505 -1.6764 1.7204 0
M  V30 20 N -4.9914 -2.4123 0.977 0
M  V30 21 C -3.9246 -1.9697 3.0485 0
M  V30 22 C -5.5974 -3.445 1.5832 0
M  V30 23 C -4.5978 -3.052 3.5712 0
M  V30 24 N -5.443 -3.8138 2.8606 0
M  V30 25 H 4.3552 -0.3375 -2.6388 0
M  V30 26 H 4.78 0.7114 -1.3065 0
M  V30 27 H 0.9781 -1.455 -1.0761 0
M  V30 28 H 0.7365 -2.2641 0.4716 0
M  V30 29 H 1.3668 -1.0476 2.602 0
M  V30 30 H 2.0357 0.5816 2.4792 0
M  V30 31 H -1.4152 -1.4428 -0.429 0
M  V30 32 H -0.7692 0.1937 -0.5718 0
M  V30 33 H -0.1044 1.4779 1.6755 0
M  V30 34 H -0.3473 0.6356 3.208 0
M  V30 35 H 2.721 0.3821 -4.4065 0
M  V30 36 H 3.9616 3.0639 -1.2644 0
M  V30 37 H -1.1732 -1.3651 2.0302 0
M  V30 38 H 1.8476 2.3043 -5.6913 0
M  V30 39 H 3.0846 4.9755 -2.5617 0
M  V30 40 H -2.5285 1.1485 0.9135 0
M  V30 41 H -2.7585 0.5864 2.5551 0
M  V30 42 H 2.0295 4.6029 -4.7764 0
M  V30 43 H -3.8535 -0.5721 0.0857 0
M  V30 44 H -3.2585 -1.3898 3.6695 0
M  V30 45 H -6.2763 -4.0363 0.9791 0
M  V30 46 H -4.4705 -3.342 4.6098 0
M  V30 END ATOM
M  V30 BEGIN BOND
M  V30 1 2 1 2
M  V30 2 1 2 3
M  V30 3 1 2 4
M  V30 4 1 3 5
M  V30 5 1 4 6
M  V30 6 1 4 7
M  V30 7 1 5 8
M  V30 8 1 6 9
M  V30 9 1 7 10
M  V30 10 2 8 11
M  V30 11 1 8 12
M  V30 12 1 9 13
M  V30 13 1 11 14
M  V30 14 2 12 15
M  V30 15 1 13 16
M  V30 16 2 14 17
M  V30 17 1 16 18
M  V30 18 1 18 19
M  V30 19 2 19 20
M  V30 20 1 19 21
M  V30 21 1 20 22
M  V30 22 2 21 23
M  V30 23 2 22 24
M  V30 24 1 10 13
M  V30 25 1 15 17
M  V30 26 1 23 24
M  V30 27 1 5 25
M  V30 28 1 5 26
M  V30 29 1 6 27
M  V30 30 1 6 28
M  V30 31 1 7 29
M  V30 32 1 7 30
M  V30 33 1 9 31
M  V30 34 1 9 32
M  V30 35 1 10 33
M  V30 36 1 10 34
M  V30 37 1 11 35
M  V30 38 1 12 36
M  V30 39 1 13 37
M  V30 40 1 14 38
M  V30 41 1 15 39
M  V30 42 1 16 40
M  V30 43 1 16 41
M  V30 44 1 17 42
M  V30 45 1 18 43
M  V30 46 1 21 44
M  V30 47 1 22 45
M  V30 48 1 23 46
M  V30 END BOND
M  V30 END CTAB
M  END
>  <NO.>
413

>  <Name>
liv-21

>  <SMILES>
O=C(OCc1ccccc1)N1CCC(CNc2ccncn2)CC1

>  <logBB>
-0.2

>  <Class>
1

>  <MW>
326.17

>  <nHBAcc>
5

>  <nHBDon>
1

>  <SLogP>
2.94

>  <TopoPSA>
67.35

>  <MMFF94 Energy>
-84.302

$$$$
S=C(NC1CCCCC1)N1CCC(c2cnc[nH]2)CC1
Actelion Java MolfileCreator 2.0

  0  0  0  0  0  0              0 V3000
M  V30 BEGIN CTAB
M  V30 COUNTS 44 46 0 0 0
M  V30 BEGIN ATOM
M  V30 1 S -2.6297 1.1149 -1.5134 0
M  V30 2 C -1.4134 0.4416 -0.5705 0
M  V30 3 N -0.0832 0.3049 -0.9916 0
M  V30 4 N -1.6232 -0.0335 0.7081 0
M  V30 5 C 0.3057 0.2819 -2.4076 0
M  V30 6 C 1.0618 0.3485 -0.0744 0
M  V30 7 C -2.85 0.0325 1.5146 0
M  V30 8 C 1.116 1.5222 -2.7698 0
M  V30 9 C 1.9279 1.5781 -0.3547 0
M  V30 10 C -3.7234 -1.2107 1.2932 0
M  V30 11 C -2.5015 0.2075 3.0002 0
M  V30 12 C 2.3132 1.7453 -1.833 0
M  V30 13 C -3.126 -2.4693 1.922 0
M  V30 14 C -1.9228 -1.0571 3.6343 0
M  V30 15 C 3.5055 0.9151 -2.216 0
M  V30 16 C -2.8208 -2.2677 3.4026 0
M  V30 17 N 4.66 1.4798 -2.7102 0
M  V30 18 C 3.7761 -0.4385 -2.201 0
M  V30 19 C 5.5483 0.4744 -2.9577 0
M  V30 20 N 5.0417 -0.6971 -2.6578 0
M  V30 21 H -0.915 -0.6656 1.0485 0
M  V30 22 H -0.5614 0.1946 -3.0671 0
M  V30 23 H 0.8938 -0.6283 -2.5664 0
M  V30 24 H 1.6269 -0.5801 -0.1978 0
M  V30 25 H 0.7463 0.4023 0.9709 0
M  V30 26 H -3.415 0.9174 1.2026 0
M  V30 27 H 0.4571 2.3976 -2.6956 0
M  V30 28 H 1.4416 1.4609 -3.8152 0
M  V30 29 H 2.8192 1.5559 0.284 0
M  V30 30 H 1.3524 2.4656 -0.0569 0
M  V30 31 H -4.7112 -1.0318 1.7373 0
M  V30 32 H -3.8861 -1.3867 0.2239 0
M  V30 33 H -3.4132 0.4846 3.5452 0
M  V30 34 H -1.7926 1.0346 3.1282 0
M  V30 35 H 2.6165 2.7956 -1.9582 0
M  V30 36 H -3.826 -3.3043 1.8033 0
M  V30 37 H -2.2076 -2.749 1.3921 0
M  V30 38 H -0.9255 -1.2569 3.225 0
M  V30 39 H -1.7929 -0.8986 4.7112 0
M  V30 40 H -2.3398 -3.166 3.8058 0
M  V30 41 H -3.7603 -2.1348 3.9533 0
M  V30 42 H 4.8281 2.4644 -2.8657 0
M  V30 43 H 3.1326 -1.2499 -1.8873 0
M  V30 44 H 6.539 0.6555 -3.3528 0
M  V30 END ATOM
M  V30 BEGIN BOND
M  V30 1 2 1 2
M  V30 2 1 2 3
M  V30 3 1 2 4
M  V30 4 1 3 5
M  V30 5 1 3 6
M  V30 6 1 4 7
M  V30 7 1 5 8
M  V30 8 1 6 9
M  V30 9 1 7 10
M  V30 10 1 7 11
M  V30 11 1 8 12
M  V30 12 1 10 13
M  V30 13 1 11 14
M  V30 14 1 12 15
M  V30 15 1 13 16
M  V30 16 1 15 17
M  V30 17 2 15 18
M  V30 18 1 17 19
M  V30 19 1 18 20
M  V30 20 1 9 12
M  V30 21 1 14 16
M  V30 22 2 19 20
M  V30 23 1 4 21
M  V30 24 1 5 22
M  V30 25 1 5 23
M  V30 26 1 6 24
M  V30 27 1 6 25
M  V30 28 1 7 26
M  V30 29 1 8 27
M  V30 30 1 8 28
M  V30 31 1 9 29
M  V30 32 1 9 30
M  V30 33 1 10 31
M  V30 34 1 10 32
M  V30 35 1 11 33
M  V30 36 1 11 34
M  V30 37 1 12 35
M  V30 38 1 13 36
M  V30 39 1 13 37
M  V30 40 1 14 38
M  V30 41 1 14 39
M  V30 42 1 16 40
M  V30 43 1 16 41
M  V30 44 1 17 42
M  V30 45 1 18 43
M  V30 46 1 19 44
M  V30 END BOND
M  V30 END CTAB
M  END
>  <NO.>
414

>  <Name>
thioperamide

>  <SMILES>
S=C(NC1CCCCC1)N1CCC(c2cnc[nH]2)CC1

>  <logBB>
-0.2

>  <Class>
1

>  <MW>
292.17

>  <nHBAcc>
2

>  <nHBDon>
2

>  <SLogP>
2.8

>  <TopoPSA>
43.95

>  <MMFF94 Energy>
-44.09

$$$$
NCC1(CC(=O)O)CCCCC1
Actelion Java MolfileCreator 2.0

  0  0  0  0  0  0              0 V3000
M  V30 BEGIN CTAB
M  V30 COUNTS 29 29 0 0 0
M  V30 BEGIN ATOM
M  V30 1 O 2.8146 -1.2501 1.0938 0
M  V30 2 C 2.1885 -0.4231 1.7368 0
M  V30 3 O 2.2746 -0.3958 3.0822 0
M  V30 4 C 1.3267 0.6875 1.19 0
M  V30 5 C 0.1399 0.2554 0.2823 0
M  V30 6 C 0.6537 -0.498 -0.9735 0
M  V30 7 C -0.5535 1.5697 -0.1929 0
M  V30 8 C -0.8913 -0.5807 1.0982 0
M  V30 9 C -0.4192 -0.7163 -2.0411 0
M  V30 10 C -1.6199 1.3621 -1.2681 0
M  V30 11 N -0.3725 -1.8333 1.6341 0
M  V30 12 C -1.071 0.594 -2.463 0
M  V30 13 H 2.8055 -1.1916 3.2901 0
M  V30 14 H 2.0027 1.3624 0.649 0
M  V30 15 H 0.9379 1.2704 2.0361 0
M  V30 16 H 1.0754 -1.4731 -0.7103 0
M  V30 17 H 1.4745 0.0755 -1.4252 0
M  V30 18 H -1.0052 2.089 0.662 0
M  V30 19 H 0.205 2.253 -0.5989 0
M  V30 20 H -1.7703 -0.8178 0.4911 0
M  V30 21 H -1.2538 0.0189 1.9421 0
M  V30 22 H 0.0344 -1.1933 -2.9177 0
M  V30 23 H -1.1834 -1.4092 -1.6711 0
M  V30 24 H -2.4826 0.8316 -0.8502 0
M  V30 25 H -1.991 2.3378 -1.6033 0
M  V30 26 H -1.1191 -2.3296 2.1201 0
M  V30 27 H -0.0772 -2.4465 0.874 0
M  V30 28 H -1.8783 0.3933 -3.1764 0
M  V30 29 H -0.3327 1.2148 -2.9856 0
M  V30 END ATOM
M  V30 BEGIN BOND
M  V30 1 2 1 2
M  V30 2 1 2 3
M  V30 3 1 2 4
M  V30 4 1 4 5
M  V30 5 1 5 6
M  V30 6 1 5 7
M  V30 7 1 5 8
M  V30 8 1 6 9
M  V30 9 1 7 10
M  V30 10 1 8 11
M  V30 11 1 9 12
M  V30 12 1 10 12
M  V30 13 1 3 13
M  V30 14 1 4 14
M  V30 15 1 4 15
M  V30 16 1 6 16
M  V30 17 1 6 17
M  V30 18 1 7 18
M  V30 19 1 7 19
M  V30 20 1 8 20
M  V30 21 1 8 21
M  V30 22 1 9 22
M  V30 23 1 9 23
M  V30 24 1 10 24
M  V30 25 1 10 25
M  V30 26 1 11 26
M  V30 27 1 11 27
M  V30 28 1 12 28
M  V30 29 1 12 29
M  V30 END BOND
M  V30 END CTAB
M  END
>  <NO.>
415

>  <Name>
gabapentin

>  <SMILES>
NCC1(CC(=O)O)CCCCC1

>  <logBB>
-0.19

>  <Class>
1

>  <MW>
171.13

>  <nHBAcc>
2

>  <nHBDon>
2

>  <SLogP>
1.37

>  <TopoPSA>
63.32

>  <MMFF94 Energy>
-15.741

$$$$
CCNC(=O)C(C(N)=O)c1ccccc1
Actelion Java MolfileCreator 2.0

  0  0  0  0  0  0              0 V3000
M  V30 BEGIN CTAB
M  V30 COUNTS 29 29 0 0 0
M  V30 BEGIN ATOM
M  V30 1 O -1.4047 -1.8733 -0.39 0
M  V30 2 C -1.0786 -0.8171 0.1508 0
M  V30 3 N -0.7723 -0.7393 1.4982 0
M  V30 4 C -0.946 0.5097 -0.5969 0 CFG=1
M  V30 5 C -0.8058 -1.9062 2.3539 0
M  V30 6 C 0.5092 0.8355 -0.9159 0
M  V30 7 C -1.8242 0.6591 -1.8354 0
M  V30 8 C -0.9266 -1.5194 3.8149 0
M  V30 9 C 1.0028 2.1291 -0.682 0
M  V30 10 C 1.3695 -0.1232 -1.4742 0
M  V30 11 O -2.2287 1.7556 -2.2233 0
M  V30 12 N -2.1178 -0.457 -2.5577 0
M  V30 13 C 2.3298 2.447 -0.9751 0
M  V30 14 C 2.6965 0.1977 -1.7647 0
M  V30 15 C 3.1769 1.4807 -1.5123 0
M  V30 16 H -0.3585 0.1142 1.8554 0
M  V30 17 H -1.3224 1.2712 0.1037 0
M  V30 18 H -1.6453 -2.5455 2.0608 0
M  V30 19 H 0.1197 -2.4654 2.1822 0
M  V30 20 H -0.9458 -2.4123 4.4469 0
M  V30 21 H -0.0821 -0.8959 4.1269 0
M  V30 22 H -1.8449 -0.9504 3.994 0
M  V30 23 H 0.3523 2.9055 -0.2832 0
M  V30 24 H 1.0161 -1.1297 -1.6922 0
M  V30 25 H -2.6806 -0.3651 -3.3917 0
M  V30 26 H -1.884 -1.3872 -2.2163 0
M  V30 27 H 2.6997 3.453 -0.7939 0
M  V30 28 H 3.3541 -0.553 -2.1953 0
M  V30 29 H 4.2086 1.7306 -1.7451 0
M  V30 END ATOM
M  V30 BEGIN BOND
M  V30 1 2 1 2
M  V30 2 1 2 3
M  V30 3 1 2 4
M  V30 4 1 3 5
M  V30 5 1 4 6
M  V30 6 1 4 7
M  V30 7 1 5 8
M  V30 8 2 6 9
M  V30 9 1 6 10
M  V30 10 2 7 11
M  V30 11 1 7 12
M  V30 12 1 9 13
M  V30 13 2 10 14
M  V30 14 2 13 15
M  V30 15 1 14 15
M  V30 16 1 3 16
M  V30 17 1 4 17
M  V30 18 1 5 18
M  V30 19 1 5 19
M  V30 20 1 8 20
M  V30 21 1 8 21
M  V30 22 1 8 22
M  V30 23 1 9 23
M  V30 24 1 10 24
M  V30 25 1 12 25
M  V30 26 1 12 26
M  V30 27 1 13 27
M  V30 28 1 14 28
M  V30 29 1 15 29
M  V30 END BOND
M  V30 BEGIN COLLECTION
M  V30 MDLV30/STERAC1 ATOMS=(1 4)
M  V30 END COLLECTION
M  V30 END CTAB
M  END
>  <NO.>
416

>  <Name>
chembl3527030

>  <SMILES>
CCNC(=O)C(C(N)=O)c1ccccc1

>  <logBB>
-0.19

>  <Class>
1

>  <MW>
206.11

>  <nHBAcc>
2

>  <nHBDon>
2

>  <SLogP>
0.39

>  <TopoPSA>
72.19

>  <MMFF94 Energy>
11.357

$$$$
NC(=O)OCC(COC(N)=O)c1ccccc1
Actelion Java MolfileCreator 2.0

  0  0  0  0  0  0              0 V3000
M  V30 BEGIN CTAB
M  V30 COUNTS 31 31 0 0 0
M  V30 BEGIN ATOM
M  V30 1 O -2.0279 3.0431 1.4036 0
M  V30 2 C -1.3202 2.8587 0.4275 0
M  V30 3 O -0.6967 1.7085 0.0921 0
M  V30 4 N -1.0532 3.8103 -0.4928 0
M  V30 5 C -0.9218 0.6303 1.0133 0
M  V30 6 C -0.2261 -0.6603 0.5378 0
M  V30 7 C 1.2778 -0.6168 0.7665 0
M  V30 8 C -0.5752 -1.0123 -0.9172 0
M  V30 9 C 1.8562 -1.4433 1.7429 0
M  V30 10 C 2.1149 0.2349 0.0302 0
M  V30 11 O -1.9921 -1.2326 -1.0171 0
M  V30 12 C 3.2332 -1.4207 1.9725 0
M  V30 13 C 3.4918 0.2562 0.2611 0
M  V30 14 C -2.4303 -1.449 -2.2764 0
M  V30 15 C 4.0507 -0.5715 1.2314 0
M  V30 16 O -1.7487 -1.481 -3.2872 0
M  V30 17 N -3.7685 -1.6308 -2.2711 0
M  V30 18 H -1.452 4.7292 -0.3768 0
M  V30 19 H -0.4656 3.5978 -1.2831 0
M  V30 20 H -0.5524 0.9171 2.0061 0
M  V30 21 H -2.0022 0.4499 1.0821 0
M  V30 22 H -0.6361 -1.463 1.1674 0
M  V30 23 H -0.2766 -0.2116 -1.6046 0
M  V30 24 H -0.0584 -1.9347 -1.2109 0
M  V30 25 H 1.2391 -2.115 2.3359 0
M  V30 26 H 1.7048 0.8956 -0.7301 0
M  V30 27 H 3.6676 -2.0665 2.7312 0
M  V30 28 H 4.1281 0.9213 -0.3168 0
M  V30 29 H 5.1223 -0.5538 1.4104 0
M  V30 30 H -4.2428 -1.8032 -3.1442 0
M  V30 31 H -4.2809 -1.5877 -1.4044 0
M  V30 END ATOM
M  V30 BEGIN BOND
M  V30 1 2 1 2
M  V30 2 1 2 3
M  V30 3 1 2 4
M  V30 4 1 3 5
M  V30 5 1 5 6
M  V30 6 1 6 7
M  V30 7 1 6 8
M  V30 8 2 7 9
M  V30 9 1 7 10
M  V30 10 1 8 11
M  V30 11 1 9 12
M  V30 12 2 10 13
M  V30 13 1 11 14
M  V30 14 2 12 15
M  V30 15 2 14 16
M  V30 16 1 14 17
M  V30 17 1 13 15
M  V30 18 1 4 18
M  V30 19 1 4 19
M  V30 20 1 5 20
M  V30 21 1 5 21
M  V30 22 1 6 22
M  V30 23 1 8 23
M  V30 24 1 8 24
M  V30 25 1 9 25
M  V30 26 1 10 26
M  V30 27 1 12 27
M  V30 28 1 13 28
M  V30 29 1 15 29
M  V30 30 1 17 30
M  V30 31 1 17 31
M  V30 END BOND
M  V30 END CTAB
M  END
>  <NO.>
417

>  <Name>
felbamate

>  <SMILES>
NC(=O)OCC(COC(N)=O)c1ccccc1

>  <logBB>
-0.19

>  <Class>
1

>  <MW>
238.1

>  <nHBAcc>
4

>  <nHBDon>
2

>  <SLogP>
0.96

>  <TopoPSA>
104.64

>  <MMFF94 Energy>
-113.28

$$$$
CCCC(C)(COC(N)=O)COC(=O)NC
Actelion Java MolfileCreator 2.0

  0  0  0  0  0  0              0 V3000
M  V30 BEGIN CTAB
M  V30 COUNTS 36 35 0 0 0
M  V30 BEGIN ATOM
M  V30 1 O -0.6154 -3.1573 -0.9232 0
M  V30 2 C -1.3338 -2.5321 -0.159 0
M  V30 3 O -1.3344 -1.186 -0.0045 0
M  V30 4 N -2.2594 -3.0721 0.6786 0
M  V30 5 C -0.3882 -0.4941 -0.8345 0
M  V30 6 C -2.4914 -4.4865 0.7695 0
M  V30 7 C -0.4471 1.0261 -0.5512 0 CFG=2
M  V30 8 C 0.5651 1.7645 -1.4604 0
M  V30 9 C -0.2142 1.3427 0.9576 0
M  V30 10 C -1.8592 1.5504 -0.9067 0
M  V30 11 O 1.8711 1.1848 -1.3578 0
M  V30 12 C 1.1056 0.8624 1.5688 0
M  V30 13 C 2.8166 1.8105 -2.0929 0
M  V30 14 C 1.1561 1.153 3.0631 0
M  V30 15 O 2.6532 2.7887 -2.8028 0
M  V30 16 N 4.0049 1.1892 -1.9345 0
M  V30 17 H -2.7574 -2.425 1.273 0
M  V30 18 H -0.6356 -0.6852 -1.8868 0
M  V30 19 H 0.6138 -0.8932 -0.6408 0
M  V30 20 H -1.7736 -4.9115 1.4758 0
M  V30 21 H -2.3656 -4.9603 -0.2075 0
M  V30 22 H -3.5077 -4.6501 1.1354 0
M  V30 23 H 0.2414 1.6938 -2.507 0
M  V30 24 H 0.6121 2.8254 -1.1824 0
M  V30 25 H -1.0385 0.9115 1.5419 0
M  V30 26 H -0.285 2.4294 1.1045 0
M  V30 27 H -2.1096 1.3351 -1.9516 0
M  V30 28 H -2.6315 1.0908 -0.28 0
M  V30 29 H -1.923 2.6357 -0.7671 0
M  V30 30 H 1.2327 -0.2143 1.4212 0
M  V30 31 H 1.9529 1.3674 1.0964 0
M  V30 32 H 2.1079 0.8126 3.4829 0
M  V30 33 H 1.0635 2.2263 3.2576 0
M  V30 34 H 0.3483 0.6361 3.5912 0
M  V30 35 H 4.8119 1.5406 -2.4265 0
M  V30 36 H 4.0748 0.3796 -1.3383 0
M  V30 END ATOM
M  V30 BEGIN BOND
M  V30 1 2 1 2
M  V30 2 1 2 3
M  V30 3 1 2 4
M  V30 4 1 3 5
M  V30 5 1 4 6
M  V30 6 1 5 7
M  V30 7 1 7 8
M  V30 8 1 7 9
M  V30 9 1 7 10
M  V30 10 1 8 11
M  V30 11 1 9 12
M  V30 12 1 11 13
M  V30 13 1 12 14
M  V30 14 2 13 15
M  V30 15 1 13 16
M  V30 16 1 4 17
M  V30 17 1 5 18
M  V30 18 1 5 19
M  V30 19 1 6 20
M  V30 20 1 6 21
M  V30 21 1 6 22
M  V30 22 1 8 23
M  V30 23 1 8 24
M  V30 24 1 9 25
M  V30 25 1 9 26
M  V30 26 1 10 27
M  V30 27 1 10 28
M  V30 28 1 10 29
M  V30 29 1 12 30
M  V30 30 1 12 31
M  V30 31 1 14 32
M  V30 32 1 14 33
M  V30 33 1 14 34
M  V30 34 1 16 35
M  V30 35 1 16 36
M  V30 END BOND
M  V30 BEGIN COLLECTION
M  V30 MDLV30/STERAC1 ATOMS=(1 7)
M  V30 END COLLECTION
M  V30 END CTAB
M  END
>  <NO.>
420

>  <Name>
carisoprodol

>  <SMILES>
CCCC(C)(COC(N)=O)COC(=O)NC

>  <logBB>
-0.18

>  <Class>
1

>  <MW>
232.14

>  <nHBAcc>
4

>  <nHBDon>
2

>  <SLogP>
1.24

>  <TopoPSA>
90.65

>  <MMFF94 Energy>
-126.65

$$$$
C[C@]12CC(O)[C@H]3[C@@H](CCC4=CC(=O)C=C[C@@]43C)[C@@H]1CC[C@]2(O)C(=O)CO
Actelion Java MolfileCreator 2.0

  0  0  0  0  0  0              0 V3000
M  V30 BEGIN CTAB
M  V30 COUNTS 54 57 0 0 0
M  V30 BEGIN ATOM
M  V30 1 O 5.9794 0.4031 -2.7439 0
M  V30 2 C 4.817 0.103 -2.5039 0
M  V30 3 C 4.4735 -0.8373 -1.4198 0
M  V30 4 C 3.7005 0.6676 -3.2803 0
M  V30 5 C 3.2002 -1.1702 -1.1396 0
M  V30 6 C 2.4327 0.3356 -3.0035 0
M  V30 7 C 1.982 -0.6216 -1.9048 0 CFG=2
M  V30 8 C 2.9075 -2.079 0.0252 0
M  V30 9 C 1.0332 0.0861 -0.8494 0 CFG=1
M  V30 10 C 1.275 -1.7871 -2.6342 0
M  V30 11 C 2.0016 -1.372 1.0251 0
M  V30 12 C -0.2809 0.6998 -1.4263 0
M  V30 13 C 0.7126 -0.8635 0.3604 0 CFG=1
M  V30 14 O -0.0076 1.7518 -2.35 0
M  V30 15 C -1.213 1.3044 -0.3546 0
M  V30 16 C -0.1765 -0.1255 1.3693 0 CFG=1
M  V30 17 C -1.5364 0.3213 0.7787 0 CFG=1
M  V30 18 C -0.5642 -0.8506 2.6524 0
M  V30 19 C -2.2028 0.9197 2.0567 0 CFG=1
M  V30 20 C -2.3877 -0.8535 0.2285 0
M  V30 21 C -1.7951 -0.0859 3.1717 0
M  V30 22 O -1.604 2.1822 2.3694 0
M  V30 23 C -3.732 1.1143 1.9722 0
M  V30 24 O -4.5279 0.4342 2.6286 0
M  V30 25 C -4.2591 2.1887 1.0265 0
M  V30 26 O -5.6143 2.5086 1.3199 0
M  V30 27 H 5.319 -1.2198 -0.8592 0
M  V30 28 H 3.9629 1.3407 -4.0873 0
M  V30 29 H 1.6619 0.7526 -3.6489 0
M  V30 30 H 2.4357 -3.0021 -0.3301 0
M  V30 31 H 3.8283 -2.3846 0.5369 0
M  V30 32 H 1.6112 0.935 -0.4478 0
M  V30 33 H 1.9743 -2.329 -3.2842 0
M  V30 34 H 0.8474 -2.5223 -1.9464 0
M  V30 35 H 0.4582 -1.4314 -3.2728 0
M  V30 36 H 2.5409 -0.5333 1.4848 0
M  V30 37 H 1.7608 -2.074 1.8319 0
M  V30 38 H -0.8313 -0.0636 -1.9833 0
M  V30 39 H 0.1739 -1.7447 -0.0036 0
M  V30 40 H 0.4995 2.4394 -1.8823 0
M  V30 41 H -0.7402 2.2126 0.0421 0
M  V30 42 H -2.1286 1.655 -0.8441 0
M  V30 43 H 0.3862 0.7697 1.6805 0
M  V30 44 H -0.8201 -1.8986 2.46 0
M  V30 45 H 0.2455 -0.8393 3.3893 0
M  V30 46 H -1.8774 -1.419 -0.5549 0
M  V30 47 H -3.3188 -0.4833 -0.2145 0
M  V30 48 H -2.6648 -1.5709 1.0074 0
M  V30 49 H -2.5832 -0.8114 3.4004 0
M  V30 50 H -1.5462 0.4287 4.107 0
M  V30 51 H -1.8675 2.4257 3.2766 0
M  V30 52 H -3.6704 3.1033 1.1225 0
M  V30 53 H -4.2153 1.8201 3.0E-4 0
M  V30 54 H -6.0107 1.6994 1.7015 0
M  V30 END ATOM
M  V30 BEGIN BOND
M  V30 1 2 1 2
M  V30 2 1 2 3
M  V30 3 1 2 4
M  V30 4 2 3 5
M  V30 5 2 4 6
M  V30 6 1 5 7
M  V30 7 1 5 8
M  V30 8 1 7 9
M  V30 9 1 7 10
M  V30 10 1 8 11
M  V30 11 1 9 12
M  V30 12 1 9 13
M  V30 13 1 12 14
M  V30 14 1 12 15
M  V30 15 1 13 16
M  V30 16 1 15 17
M  V30 17 1 16 18
M  V30 18 1 17 19
M  V30 19 1 17 20
M  V30 20 1 18 21
M  V30 21 1 19 22
M  V30 22 1 19 23
M  V30 23 2 23 24
M  V30 24 1 23 25
M  V30 25 1 25 26
M  V30 26 1 6 7
M  V30 27 1 11 13
M  V30 28 1 16 17
M  V30 29 1 19 21
M  V30 30 1 3 27
M  V30 31 1 4 28
M  V30 32 1 6 29
M  V30 33 1 8 30
M  V30 34 1 8 31
M  V30 35 1 9 32
M  V30 36 1 10 33
M  V30 37 1 10 34
M  V30 38 1 10 35
M  V30 39 1 11 36
M  V30 40 1 11 37
M  V30 41 1 12 38
M  V30 42 1 13 39
M  V30 43 1 14 40
M  V30 44 1 15 41
M  V30 45 1 15 42
M  V30 46 1 16 43
M  V30 47 1 18 44
M  V30 48 1 18 45
M  V30 49 1 20 46
M  V30 50 1 20 47
M  V30 51 1 20 48
M  V30 52 1 21 49
M  V30 53 1 21 50
M  V30 54 1 22 51
M  V30 55 1 25 52
M  V30 56 1 25 53
M  V30 57 1 26 54
M  V30 END BOND
M  V30 BEGIN COLLECTION
M  V30 MDLV30/STEABS ATOMS=(6 7 9 13 16 17 19)
M  V30 END COLLECTION
M  V30 END CTAB
M  END
>  <NO.>
421

>  <Name>
prednisolone

>  <SMILES>
C[C@]12CC(O)[C@H]3[C@@H](CCC4=CC(=O)C=C[C@@]43C)[C@@H]1CC[C@]2(O)C(=O)CO

>  <logBB>
-0.18

>  <Class>
1

>  <MW>
360.19

>  <nHBAcc>
5

>  <nHBDon>
3

>  <SLogP>
1.56

>  <TopoPSA>
94.83

>  <MMFF94 Energy>
129.75

$$$$
C=CC=C
Actelion Java MolfileCreator 2.0

  0  0  0  0  0  0              0 V3000
M  V30 BEGIN CTAB
M  V30 COUNTS 10 9 0 0 0
M  V30 BEGIN ATOM
M  V30 1 C -0.3693 -0.2954 -0.5171 0
M  V30 2 C 0.3849 0.3227 0.545 0
M  V30 3 C -0.8886 0.3951 -1.5387 0
M  V30 4 C 0.9041 -0.3677 1.5667 0
M  V30 5 H -0.5175 -1.3726 -0.4769 0
M  V30 6 H 0.533 1.4 0.5049 0
M  V30 7 H -0.7716 1.4703 -1.6289 0
M  V30 8 H -1.45 -0.1122 -2.317 0
M  V30 9 H 0.7871 -1.4429 1.657 0
M  V30 10 H 1.4655 0.1396 2.345 0
M  V30 END ATOM
M  V30 BEGIN BOND
M  V30 1 1 1 2
M  V30 2 2 1 3
M  V30 3 2 2 4
M  V30 4 1 1 5
M  V30 5 1 2 6
M  V30 6 1 3 7
M  V30 7 1 3 8
M  V30 8 1 4 9
M  V30 9 1 4 10
M  V30 END BOND
M  V30 END CTAB
M  END
>  <NO.>
423

>  <Name>
1,3-butadiene (divinyl)

>  <SMILES>
C=CC=C

>  <logBB>
-0.17

>  <Class>
1

>  <MW>
54.05

>  <nHBAcc>
0

>  <nHBDon>
0

>  <SLogP>
1.36

>  <TopoPSA>
0

>  <MMFF94 Energy>
4.7838

$$$$
C=CCc1cccc(/C=N\NC(=O)CN2CCN(Cc3ccccc3)CC2)c1O
Actelion Java MolfileCreator 2.0

  0  0  0  0  0  0              0 V3000
M  V30 BEGIN CTAB
M  V30 COUNTS 57 59 0 0 0
M  V30 BEGIN ATOM
M  V30 1 O 0.0791 -0.3165 -4.3589 0
M  V30 2 C -0.3211 -0.3425 -3.1971 0
M  V30 3 N -0.9435 -1.4338 -2.5947 0
M  V30 4 C -0.1951 0.8576 -2.2498 0
M  V30 5 N -1.1038 -2.5999 -3.2825 0
M  V30 6 N 1.1794 1.0103 -1.7325 0
M  V30 7 C -1.7597 -3.5816 -2.7384 0
M  V30 8 C 1.2983 2.275 -0.9793 0
M  V30 9 C 1.592 -0.1129 -0.8709 0
M  V30 10 C -2.5603 -3.5691 -1.5015 0
M  V30 11 C 2.7048 2.4763 -0.3715 0
M  V30 12 C 2.9993 0.0961 -0.2654 0
M  V30 13 C -3.4604 -2.535 -1.2051 0
M  V30 14 C -2.4417 -4.6698 -0.6498 0
M  V30 15 N 3.0953 1.3516 0.5054 0
M  V30 16 O -3.6432 -1.472 -2.0515 0
M  V30 17 C -4.2157 -2.5713 -0.0254 0
M  V30 18 C -3.1977 -4.7198 0.5194 0
M  V30 19 C 4.4637 1.5237 1.0215 0
M  V30 20 C -4.076 -3.6789 0.8291 0
M  V30 21 C -5.2061 -1.4835 0.3255 0
M  V30 22 C 4.5916 2.6609 2.0137 0
M  V30 23 C -6.5885 -1.7865 -0.1805 0
M  V30 24 C 5.4836 3.7172 1.7792 0
M  V30 25 C 3.8306 2.6664 3.1927 0
M  V30 26 C -7.6634 -1.959 0.6001 0
M  V30 27 C 5.6073 4.7578 2.7021 0
M  V30 28 C 3.9553 3.7074 4.1139 0
M  V30 29 C 4.8437 4.7525 3.8682 0
M  V30 30 H -1.2021 -1.3874 -1.6135 0
M  V30 31 H -0.4737 1.7391 -2.8412 0
M  V30 32 H -0.9225 0.7772 -1.4323 0
M  V30 33 H -1.7403 -4.5459 -3.2763 0
M  V30 34 H 1.0943 3.1189 -1.6496 0
M  V30 35 H 0.5535 2.3112 -0.1723 0
M  V30 36 H 0.8693 -0.2573 -0.0564 0
M  V30 37 H 1.6214 -1.041 -1.4524 0
M  V30 38 H 3.4318 2.6029 -1.1852 0
M  V30 39 H 2.6862 3.4121 0.1989 0
M  V30 40 H 3.7437 0.0795 -1.0732 0
M  V30 41 H 3.2134 -0.7541 0.3935 0
M  V30 42 H -1.7616 -5.4856 -0.8829 0
M  V30 43 H -3.1002 -1.6008 -2.8582 0
M  V30 44 H -3.1107 -5.5718 1.1901 0
M  V30 45 H 4.7755 0.6143 1.5531 0
M  V30 46 H 5.1766 1.6545 0.1964 0
M  V30 47 H -4.6689 -3.7395 1.7407 0
M  V30 48 H -4.8765 -0.5211 -0.084 0
M  V30 49 H -5.2107 -1.344 1.4147 0
M  V30 50 H -6.7033 -1.8527 -1.261 0
M  V30 51 H 6.0863 3.7376 0.8744 0
M  V30 52 H 3.1304 1.8569 3.388 0
M  V30 53 H -8.6355 -2.1693 0.1643 0
M  V30 54 H -7.6018 -1.8952 1.6819 0
M  V30 55 H 6.2998 5.5732 2.5106 0
M  V30 56 H 3.3576 3.7026 5.0213 0
M  V30 57 H 4.9404 5.5634 4.5852 0
M  V30 END ATOM
M  V30 BEGIN BOND
M  V30 1 2 1 2
M  V30 2 1 2 3
M  V30 3 1 2 4
M  V30 4 1 3 5
M  V30 5 1 4 6
M  V30 6 2 5 7
M  V30 7 1 6 8
M  V30 8 1 6 9
M  V30 9 1 7 10
M  V30 10 1 8 11
M  V30 11 1 9 12
M  V30 12 2 10 13
M  V30 13 1 10 14
M  V30 14 1 11 15
M  V30 15 1 13 16
M  V30 16 1 13 17
M  V30 17 2 14 18
M  V30 18 1 15 19
M  V30 19 2 17 20
M  V30 20 1 17 21
M  V30 21 1 19 22
M  V30 22 1 21 23
M  V30 23 2 22 24
M  V30 24 1 22 25
M  V30 25 2 23 26
M  V30 26 1 24 27
M  V30 27 2 25 28
M  V30 28 2 27 29
M  V30 29 1 12 15
M  V30 30 1 18 20
M  V30 31 1 28 29
M  V30 32 1 3 30
M  V30 33 1 4 31
M  V30 34 1 4 32
M  V30 35 1 7 33
M  V30 36 1 8 34
M  V30 37 1 8 35
M  V30 38 1 9 36
M  V30 39 1 9 37
M  V30 40 1 11 38
M  V30 41 1 11 39
M  V30 42 1 12 40
M  V30 43 1 12 41
M  V30 44 1 14 42
M  V30 45 1 16 43
M  V30 46 1 18 44
M  V30 47 1 19 45
M  V30 48 1 19 46
M  V30 49 1 20 47
M  V30 50 1 21 48
M  V30 51 1 21 49
M  V30 52 1 23 50
M  V30 53 1 24 51
M  V30 54 1 25 52
M  V30 55 1 26 53
M  V30 56 1 26 54
M  V30 57 1 27 55
M  V30 58 1 28 56
M  V30 59 1 29 57
M  V30 END BOND
M  V30 END CTAB
M  END
>  <NO.>
424

>  <Name>
pac-1

>  <SMILES>
C=CCc1cccc(/C=N\NC(=O)CN2CCN(Cc3ccccc3)CC2)c1O

>  <logBB>
-0.17

>  <Class>
1

>  <MW>
392.22

>  <nHBAcc>
5

>  <nHBDon>
2

>  <SLogP>
2.39

>  <TopoPSA>
68.17

>  <MMFF94 Energy>
208.31

$$$$
CC(C)CO
Actelion Java MolfileCreator 2.0

  0  0  0  0  0  0              0 V3000
M  V30 BEGIN CTAB
M  V30 COUNTS 15 14 0 0 0
M  V30 BEGIN ATOM
M  V30 1 O 0.1503 -2.0316 -0.9777 0
M  V30 2 C -0.6429 -1.0312 -0.3527 0
M  V30 3 C 0.1311 0.2884 -0.2965 0
M  V30 4 C -0.7562 1.4039 0.2516 0
M  V30 5 C 1.4 0.1548 0.548 0
M  V30 6 H -0.3789 -2.8471 -0.993 0
M  V30 7 H -0.9103 -1.3757 0.652 0
M  V30 8 H -1.5616 -0.9135 -0.9371 0
M  V30 9 H 0.4418 0.5544 -1.3149 0
M  V30 10 H -1.0858 1.1847 1.2729 0
M  V30 11 H -1.6473 1.5336 -0.3716 0
M  V30 12 H -0.2181 2.3576 0.2667 0
M  V30 13 H 1.1625 -0.1332 1.5778 0
M  V30 14 H 2.0746 -0.6001 0.1317 0
M  V30 15 H 1.9458 1.1038 0.58 0
M  V30 END ATOM
M  V30 BEGIN BOND
M  V30 1 1 1 2
M  V30 2 1 2 3
M  V30 3 1 3 4
M  V30 4 1 3 5
M  V30 5 1 1 6
M  V30 6 1 2 7
M  V30 7 1 2 8
M  V30 8 1 3 9
M  V30 9 1 4 10
M  V30 10 1 4 11
M  V30 11 1 4 12
M  V30 12 1 5 13
M  V30 13 1 5 14
M  V30 14 1 5 15
M  V30 END BOND
M  V30 END CTAB
M  END
>  <NO.>
425

>  <Name>
2-methylpropan-1-ol

>  <SMILES>
CC(C)CO

>  <logBB>
-0.17

>  <Class>
1

>  <MW>
74.07

>  <nHBAcc>
1

>  <nHBDon>
1

>  <SLogP>
0.63

>  <TopoPSA>
20.23

>  <MMFF94 Energy>
2.8559

$$$$
CC1CCN(CC[C@H]2CCCN2S(=O)(=O)c2cccc(O)c2)CC1
Actelion Java MolfileCreator 2.0

  0  0  0  0  0  0              0 V3000
M  V30 BEGIN CTAB
M  V30 COUNTS 52 54 0 0 0
M  V30 BEGIN ATOM
M  V30 1 S 1.5243 2.5683 -1.3638 0
M  V30 2 O 2.452 1.7253 -0.6401 0
M  V30 3 O 1.9827 3.4267 -2.4372 0
M  V30 4 N 0.2902 1.6155 -1.9553 0
M  V30 5 C 0.7137 3.6317 -0.189 0
M  V30 6 C -0.1972 0.3422 -1.3635 0 CFG=2
M  V30 7 C -0.6254 2.0973 -2.9938 0
M  V30 8 C 0.8876 3.4237 1.1806 0
M  V30 9 C -0.0301 4.7237 -0.6519 0
M  V30 10 C -1.5386 0.1109 -2.0843 0
M  V30 11 C -0.3628 0.3671 0.1563 0
M  V30 12 C -1.3722 0.8382 -3.4058 0
M  V30 13 C 0.2692 4.2845 2.079 0
M  V30 14 C -0.6424 5.5814 0.2632 0
M  V30 15 C -0.9911 -0.9066 0.746 0
M  V30 16 O 0.4429 4.0418 3.4092 0
M  V30 17 C -0.4983 5.3584 1.6338 0
M  V30 18 N -0.3413 -2.1591 0.3268 0
M  V30 19 C -1.1502 -3.3129 0.7537 0
M  V30 20 C 1.0338 -2.2666 0.8445 0
M  V30 21 C -0.5452 -4.6325 0.2698 0
M  V30 22 C 1.711 -3.5546 0.3671 0
M  V30 23 C 0.9095 -4.8131 0.7156 0
M  V30 24 C 1.0102 -5.157 2.2036 0
M  V30 25 H 0.5112 -0.4394 -1.6634 0
M  V30 26 H -1.318 2.8343 -2.5761 0
M  V30 27 H -0.096 2.528 -3.8472 0
M  V30 28 H 1.4988 2.6057 1.5521 0
M  V30 29 H -0.124 4.9167 -1.718 0
M  V30 30 H -2.3693 0.5607 -1.526 0
M  V30 31 H -1.7586 -0.952 -2.2216 0
M  V30 32 H -0.9944 1.2171 0.4436 0
M  V30 33 H 0.6041 0.532 0.6388 0
M  V30 34 H -2.326 1.057 -3.8935 0
M  V30 35 H -0.7615 0.2384 -4.0913 0
M  V30 36 H -1.2232 6.4293 -0.0919 0
M  V30 37 H -0.9976 -0.8242 1.841 0
M  V30 38 H -2.0441 -0.928 0.4374 0
M  V30 39 H 0.0137 4.7504 3.9166 0
M  V30 40 H -0.9794 6.0341 2.3346 0
M  V30 41 H -2.1574 -3.2334 0.3258 0
M  V30 42 H -1.2668 -3.3274 1.8447 0
M  V30 43 H 1.644 -1.4325 0.4819 0
M  V30 44 H 1.0434 -2.2181 1.9405 0
M  V30 45 H -0.5845 -4.6574 -0.8273 0
M  V30 46 H -1.1587 -5.4704 0.6213 0
M  V30 47 H 2.7212 -3.6175 0.7888 0
M  V30 48 H 1.8327 -3.5046 -0.7232 0
M  V30 49 H 1.337 -5.6583 0.1613 0
M  V30 50 H 0.6077 -4.367 2.8441 0
M  V30 51 H 0.4596 -6.078 2.4229 0
M  V30 52 H 2.0548 -5.3193 2.49 0
M  V30 END ATOM
M  V30 BEGIN BOND
M  V30 1 2 1 2
M  V30 2 2 1 3
M  V30 3 1 1 4
M  V30 4 1 1 5
M  V30 5 1 4 6
M  V30 6 1 4 7
M  V30 7 2 5 8
M  V30 8 1 5 9
M  V30 9 1 6 10
M  V30 10 1 6 11
M  V30 11 1 7 12
M  V30 12 1 8 13
M  V30 13 2 9 14
M  V30 14 1 11 15
M  V30 15 1 13 16
M  V30 16 2 13 17
M  V30 17 1 15 18
M  V30 18 1 18 19
M  V30 19 1 18 20
M  V30 20 1 19 21
M  V30 21 1 20 22
M  V30 22 1 21 23
M  V30 23 1 23 24
M  V30 24 1 10 12
M  V30 25 1 14 17
M  V30 26 1 22 23
M  V30 27 1 6 25
M  V30 28 1 7 26
M  V30 29 1 7 27
M  V30 30 1 8 28
M  V30 31 1 9 29
M  V30 32 1 10 30
M  V30 33 1 10 31
M  V30 34 1 11 32
M  V30 35 1 11 33
M  V30 36 1 12 34
M  V30 37 1 12 35
M  V30 38 1 14 36
M  V30 39 1 15 37
M  V30 40 1 15 38
M  V30 41 1 16 39
M  V30 42 1 17 40
M  V30 43 1 19 41
M  V30 44 1 19 42
M  V30 45 1 20 43
M  V30 46 1 20 44
M  V30 47 1 21 45
M  V30 48 1 21 46
M  V30 49 1 22 47
M  V30 50 1 22 48
M  V30 51 1 23 49
M  V30 52 1 24 50
M  V30 53 1 24 51
M  V30 54 1 24 52
M  V30 END BOND
M  V30 BEGIN COLLECTION
M  V30 MDLV30/STEABS ATOMS=(1 6)
M  V30 END COLLECTION
M  V30 END CTAB
M  END
>  <NO.>
427

>  <Name>
201038-74-6

>  <SMILES>
CC1CCN(CC[C@H]2CCCN2S(=O)(=O)c2cccc(O)c2)CC1

>  <logBB>
-0.17

>  <Class>
1

>  <MW>
352.18

>  <nHBAcc>
4

>  <nHBDon>
1

>  <SLogP>
2.67

>  <TopoPSA>
60.85

>  <MMFF94 Energy>
-22.548

$$$$
COC(=O)C1C(=O)C=C(Nc2cccc(OC(F)(F)F)c2)CC1C
Actelion Java MolfileCreator 2.0

  0  0  0  0  0  0              0 V3000
M  V30 BEGIN CTAB
M  V30 COUNTS 40 41 0 0 0
M  V30 BEGIN ATOM
M  V30 1 F -3.9384 1.0437 -0.6422 0
M  V30 2 C -4.5958 0.7044 0.4864 0
M  V30 3 F -4.1982 -0.518 0.8973 0
M  V30 4 F -5.9159 0.6412 0.2007 0
M  V30 5 O -4.401 1.6722 1.5041 0
M  V30 6 C -3.1215 1.9169 1.9162 0
M  V30 7 C -1.9634 1.2783 1.4606 0
M  V30 8 C -3.0134 2.9086 2.8939 0
M  V30 9 C -0.6995 1.6173 1.9695 0
M  V30 10 C -1.7689 3.2603 3.4102 0
M  V30 11 N 0.4962 1.0304 1.5119 0
M  V30 12 C -0.6207 2.6189 2.9471 0
M  V30 13 C 0.7949 0.4417 0.2938 0
M  V30 14 C 0.2012 0.7413 -0.8755 0
M  V30 15 C 1.9387 -0.5583 0.3386 0
M  V30 16 C 0.5658 0.0724 -2.147 0
M  V30 17 C 2.6329 -0.8044 -1.0115 0
M  V30 18 O 0.0013 0.4135 -3.186 0
M  V30 19 C 1.6043 -1.0221 -2.1314 0
M  V30 20 C 3.595 0.3401 -1.3594 0
M  V30 21 C 0.961 -2.3815 -2.0069 0
M  V30 22 O -0.1084 -2.6072 -1.458 0
M  V30 23 O 1.7756 -3.3348 -2.5451 0
M  V30 24 C 1.249 -4.6608 -2.4673 0
M  V30 25 H -2.0218 0.48 0.7274 0
M  V30 26 H -3.9062 3.4134 3.2569 0
M  V30 27 H -1.6927 4.037 4.1666 0
M  V30 28 H 1.2234 0.9781 2.2198 0
M  V30 29 H 0.3447 2.9184 3.3476 0
M  V30 30 H -0.5752 1.4923 -0.9629 0
M  V30 31 H 2.6939 -0.2319 1.0657 0
M  V30 32 H 1.538 -1.5069 0.7201 0
M  V30 33 H 3.2483 -1.708 -0.9042 0
M  V30 34 H 2.1095 -0.9809 -3.1063 0
M  V30 35 H 3.0782 1.2983 -1.472 0
M  V30 36 H 4.1206 0.1291 -2.2969 0
M  V30 37 H 4.3518 0.4581 -0.5763 0
M  V30 38 H 1.9628 -5.337 -2.9458 0
M  V30 39 H 1.131 -4.9639 -1.4222 0
M  V30 40 H 0.2962 -4.7279 -3.0019 0
M  V30 END ATOM
M  V30 BEGIN BOND
M  V30 1 1 1 2
M  V30 2 1 2 3
M  V30 3 1 2 4
M  V30 4 1 2 5
M  V30 5 1 5 6
M  V30 6 2 6 7
M  V30 7 1 6 8
M  V30 8 1 7 9
M  V30 9 2 8 10
M  V30 10 1 9 11
M  V30 11 2 9 12
M  V30 12 1 11 13
M  V30 13 2 13 14
M  V30 14 1 13 15
M  V30 15 1 14 16
M  V30 16 1 15 17
M  V30 17 2 16 18
M  V30 18 1 16 19
M  V30 19 1 17 20
M  V30 20 1 19 21
M  V30 21 2 21 22
M  V30 22 1 21 23
M  V30 23 1 23 24
M  V30 24 1 10 12
M  V30 25 1 17 19
M  V30 26 1 7 25
M  V30 27 1 8 26
M  V30 28 1 10 27
M  V30 29 1 11 28
M  V30 30 1 12 29
M  V30 31 1 14 30
M  V30 32 1 15 31
M  V30 33 1 15 32
M  V30 34 1 17 33
M  V30 35 1 19 34
M  V30 36 1 20 35
M  V30 37 1 20 36
M  V30 38 1 20 37
M  V30 39 1 24 38
M  V30 40 1 24 39
M  V30 41 1 24 40
M  V30 END BOND
M  V30 END CTAB
M  END
>  <NO.>
428

>  <Name>
2-oxo-4-[3-(trifluoromethoxy)anilino]-6-methyl-3-cyclohexene-1-carboxylic acid methyl ester

>  <SMILES>
COC(=O)C1C(=O)C=C(Nc2cccc(OC(F)(F)F)c2)CC1C

>  <logBB>
-0.17

>  <Class>
1

>  <MW>
343.1

>  <nHBAcc>
5

>  <nHBDon>
1

>  <SLogP>
3.28

>  <TopoPSA>
64.63

>  <MMFF94 Energy>
14.32

$$$$
C[n+]1ccccc1/C=N/O
Actelion Java MolfileCreator 2.0

  0  0  0  0  0  0              0 V3000
M  V30 BEGIN CTAB
M  V30 COUNTS 19 19 0 0 0
M  V30 BEGIN ATOM
M  V30 1 O -1.9458 -1.1671 -3.1147 0
M  V30 2 N -0.8835 -0.4677 -2.5318 0
M  V30 3 C -0.9461 -0.6175 -1.2469 0
M  V30 4 C 0.0424 0.0034 -0.3407 0
M  V30 5 N -0.0526 -0.1744 1.007 0 CHG=1
M  V30 6 C 1.0794 0.777 -0.8752 0
M  V30 7 C 0.8584 0.3985 1.8329 0
M  V30 8 C -1.1303 -0.9821 1.6097 0
M  V30 9 C 2.0127 1.3642 -0.0322 0
M  V30 10 C 1.8994 1.1721 1.3347 0
M  V30 11 H -1.8234 -1.0021 -4.0714 0
M  V30 12 H -1.7571 -1.2237 -0.8131 0
M  V30 13 H 1.1636 0.925 -1.9513 0
M  V30 14 H 0.7507 0.2348 2.9026 0
M  V30 15 H -2.087 -0.5227 1.3486 0
M  V30 16 H -1.0461 -2.0022 1.2268 0
M  V30 17 H -1.0263 -0.9985 2.6976 0
M  V30 18 H 2.822 1.9675 -0.4419 0
M  V30 19 H 2.6216 1.6244 2.0124 0
M  V30 END ATOM
M  V30 BEGIN BOND
M  V30 1 1 1 2
M  V30 2 2 2 3
M  V30 3 1 3 4
M  V30 4 2 4 5
M  V30 5 1 4 6
M  V30 6 1 5 7
M  V30 7 1 5 8
M  V30 8 2 6 9
M  V30 9 2 7 10
M  V30 10 1 9 10
M  V30 11 1 1 11
M  V30 12 1 3 12
M  V30 13 1 6 13
M  V30 14 1 7 14
M  V30 15 1 8 15
M  V30 16 1 8 16
M  V30 17 1 8 17
M  V30 18 1 9 18
M  V30 19 1 10 19
M  V30 END BOND
M  V30 END CTAB
M  END
>  <NO.>
430

>  <Name>
pralidoxime

>  <SMILES>
C[n+]1ccccc1/C=N/O

>  <logBB>
-0.17

>  <Class>
1

>  <MW>
137.07

>  <nHBAcc>
2

>  <nHBDon>
1

>  <SLogP>
0.32

>  <TopoPSA>
36.47

>  <MMFF94 Energy>
64.379

$$$$
O=[N+]([O-])c1nccn1CCCCCCCCF
Actelion Java MolfileCreator 2.0

  0  0  0  0  0  0              0 V3000
M  V30 BEGIN CTAB
M  V30 COUNTS 35 35 0 0 0
M  V30 BEGIN ATOM
M  V30 1 F -6.2916 -2.0414 1.6485 0
M  V30 2 C -5.3903 -2.0597 0.6303 0
M  V30 3 C -4.1846 -1.2321 1.0375 0
M  V30 4 C -3.1178 -1.2111 -0.0542 0
M  V30 5 C -1.9095 -0.3701 0.3645 0
M  V30 6 C -0.8371 -0.3599 -0.7268 0
M  V30 7 C 0.3407 0.5701 -0.4183 0
M  V30 8 C 1.1872 0.1065 0.7704 0
M  V30 9 C 2.3609 1.0415 1.0791 0
M  V30 10 N 3.413 1.0153 0.0817 0
M  V30 11 C 3.6417 1.8413 -0.9873 0
M  V30 12 C 4.405 0.0596 0.0525 0
M  V30 13 N 2.8394 2.979 -1.3378 0 CHG=1
M  V30 14 N 4.6836 1.4565 -1.7009 0
M  V30 15 C 5.1682 0.3515 -1.0537 0
M  V30 16 O 2.6634 3.1979 -2.5429 0
M  V30 17 O 2.3706 3.6519 -0.4097 0 CHG=-1
M  V30 18 H -5.1181 -3.102 0.4406 0
M  V30 19 H -5.8782 -1.6504 -0.259 0
M  V30 20 H -4.5127 -0.2118 1.2694 0
M  V30 21 H -3.7696 -1.6382 1.9677 0
M  V30 22 H -3.5464 -0.8046 -0.9783 0
M  V30 23 H -2.7942 -2.2363 -0.2714 0
M  V30 24 H -1.4966 -0.7767 1.2942 0
M  V30 25 H -2.2326 0.6569 0.5729 0
M  V30 26 H -1.2915 -0.0308 -1.6697 0
M  V30 27 H -0.4677 -1.379 -0.8937 0
M  V30 28 H -0.0308 1.5857 -0.2372 0
M  V30 29 H 0.9678 0.6146 -1.3157 0
M  V30 30 H 0.5605 0.0582 1.6678 0
M  V30 31 H 1.5556 -0.9095 0.5833 0
M  V30 32 H 2.825 0.7271 2.0229 0
M  V30 33 H 2.0195 2.0644 1.2422 0
M  V30 34 H 4.4756 -0.7274 0.7915 0
M  V30 35 H 6.0395 -0.1784 -1.4188 0
M  V30 END ATOM
M  V30 BEGIN BOND
M  V30 1 1 1 2
M  V30 2 1 2 3
M  V30 3 1 3 4
M  V30 4 1 4 5
M  V30 5 1 5 6
M  V30 6 1 6 7
M  V30 7 1 7 8
M  V30 8 1 8 9
M  V30 9 1 9 10
M  V30 10 1 10 11
M  V30 11 1 10 12
M  V30 12 1 11 13
M  V30 13 2 11 14
M  V30 14 2 12 15
M  V30 15 2 13 16
M  V30 16 1 13 17
M  V30 17 1 14 15
M  V30 18 1 2 18
M  V30 19 1 2 19
M  V30 20 1 3 20
M  V30 21 1 3 21
M  V30 22 1 4 22
M  V30 23 1 4 23
M  V30 24 1 5 24
M  V30 25 1 5 25
M  V30 26 1 6 26
M  V30 27 1 6 27
M  V30 28 1 7 28
M  V30 29 1 7 29
M  V30 30 1 8 30
M  V30 31 1 8 31
M  V30 32 1 9 32
M  V30 33 1 9 33
M  V30 34 1 12 34
M  V30 35 1 15 35
M  V30 END BOND
M  V30 END CTAB
M  END
>  <NO.>
431

>  <Name>
1-(8-fluorooctyl)-2-nitroimidazole (fon)

>  <SMILES>
O=[N+]([O-])c1nccn1CCCCCCCCF

>  <logBB>
-0.17

>  <Class>
1

>  <MW>
243.14

>  <nHBAcc>
3

>  <nHBDon>
0

>  <SLogP>
3.1

>  <TopoPSA>
60.96

>  <MMFF94 Energy>
55.524

$$$$
CCCO
Actelion Java MolfileCreator 2.0

  0  0  0  0  0  0              0 V3000
M  V30 BEGIN CTAB
M  V30 COUNTS 12 11 0 0 0
M  V30 BEGIN ATOM
M  V30 1 O -0.2978 -1.788 0.1489 0
M  V30 2 C -0.7686 -0.6209 -0.5096 0
M  V30 3 C 0.3399 0.4208 -0.5754 0
M  V30 4 C 0.7663 0.9008 0.8047 0
M  V30 5 H -1.0334 -2.4238 0.1635 0
M  V30 6 H -1.6374 -0.2351 0.0334 0
M  V30 7 H -1.0816 -0.8991 -1.5208 0
M  V30 8 H 1.2149 -0.005 -1.0799 0
M  V30 9 H -0.0016 1.2783 -1.1656 0
M  V30 10 H 1.5443 1.6655 0.7143 0
M  V30 11 H -0.0789 1.3392 1.3449 0
M  V30 12 H 1.1698 0.0796 1.4052 0
M  V30 END ATOM
M  V30 BEGIN BOND
M  V30 1 1 1 2
M  V30 2 1 2 3
M  V30 3 1 3 4
M  V30 4 1 1 5
M  V30 5 1 2 6
M  V30 6 1 2 7
M  V30 7 1 3 8
M  V30 8 1 3 9
M  V30 9 1 4 10
M  V30 10 1 4 11
M  V30 11 1 4 12
M  V30 END BOND
M  V30 END CTAB
M  END
>  <NO.>
432

>  <Name>
propan-1-ol

>  <SMILES>
CCCO

>  <logBB>
-0.16

>  <Class>
1

>  <MW>
60.06

>  <nHBAcc>
1

>  <nHBDon>
1

>  <SLogP>
0.39

>  <TopoPSA>
20.23

>  <MMFF94 Energy>
-1.5242

$$$$
CCn1cc(C(=O)O)c(=O)c2cc(F)c(N3CCN(C)CC3)cc21
Actelion Java MolfileCreator 2.0

  0  0  0  0  0  0              0 V3000
M  V30 BEGIN CTAB
M  V30 COUNTS 44 46 0 0 0
M  V30 BEGIN ATOM
M  V30 1 F -3.2786 0.2396 -0.0798 0
M  V30 2 C -2.0823 -0.3704 -0.0604 0
M  V30 3 C -0.902 0.3824 0.0678 0
M  V30 4 C -2.0704 -1.757 -0.1319 0
M  V30 5 N -0.9235 1.7735 0.1393 0
M  V30 6 C 0.3051 -0.3447 0.137 0
M  V30 7 C -0.8538 -2.4413 -0.0704 0
M  V30 8 C 0.1666 2.5273 0.7776 0
M  V30 9 C -1.6469 2.5147 -0.9135 0
M  V30 10 C 0.3669 -1.7534 0.0701 0
M  V30 11 C -0.8713 -3.9245 -0.1527 0
M  V30 12 C -0.3124 3.9284 1.2245 0
M  V30 13 C -2.0698 3.9159 -0.4164 0
M  V30 14 N 1.5729 -2.4887 0.1336 0
M  V30 15 O -1.9441 -4.513 -0.2312 0
M  V30 16 C 0.4288 -4.6362 -0.1284 0
M  V30 17 N -0.9365 4.6985 0.1272 0
M  V30 18 C 1.5239 -3.8721 0.0109 0
M  V30 19 C 2.8646 -1.7942 0.2833 0
M  V30 20 C 0.5277 -6.1024 -0.2631 0
M  V30 21 C -1.3981 5.9988 0.6096 0
M  V30 22 C 3.4049 -1.3446 -1.0668 0
M  V30 23 O -0.3619 -6.8832 -0.5453 0
M  V30 24 O 1.7719 -6.5777 -0.0408 0
M  V30 25 H -3.0123 -2.2902 -0.2268 0
M  V30 26 H 1.2241 0.2242 0.2137 0
M  V30 27 H 0.5299 2.0012 1.669 0
M  V30 28 H 1.0042 2.6304 0.0763 0
M  V30 29 H -2.5466 1.9953 -1.2565 0
M  V30 30 H -0.9884 2.6184 -1.7858 0
M  V30 31 H -1.0211 3.8108 2.0558 0
M  V30 32 H 0.5549 4.4777 1.6104 0
M  V30 33 H -2.5146 4.4571 -1.2603 0
M  V30 34 H -2.8514 3.7991 0.3469 0
M  V30 35 H 2.5118 -4.328 0.0318 0
M  V30 36 H 3.5976 -2.4748 0.7368 0
M  V30 37 H 2.7984 -0.9547 0.9845 0
M  V30 38 H -0.5558 6.5865 0.9912 0
M  V30 39 H -2.144 5.9078 1.4076 0
M  V30 40 H -1.8395 6.5767 -0.2099 0
M  V30 41 H 2.7306 -0.6379 -1.5598 0
M  V30 42 H 3.54 -2.1989 -1.7387 0
M  V30 43 H 4.3757 -0.8551 -0.9409 0
M  V30 44 H 1.6563 -7.5449 -0.1608 0
M  V30 END ATOM
M  V30 BEGIN BOND
M  V30 1 1 1 2
M  V30 2 2 2 3
M  V30 3 1 2 4
M  V30 4 1 3 5
M  V30 5 1 3 6
M  V30 6 2 4 7
M  V30 7 1 5 8
M  V30 8 1 5 9
M  V30 9 2 6 10
M  V30 10 1 7 11
M  V30 11 1 8 12
M  V30 12 1 9 13
M  V30 13 1 10 14
M  V30 14 2 11 15
M  V30 15 1 11 16
M  V30 16 1 12 17
M  V30 17 1 14 18
M  V30 18 1 14 19
M  V30 19 1 16 20
M  V30 20 1 17 21
M  V30 21 1 19 22
M  V30 22 2 20 23
M  V30 23 1 20 24
M  V30 24 1 7 10
M  V30 25 1 13 17
M  V30 26 2 16 18
M  V30 27 1 4 25
M  V30 28 1 6 26
M  V30 29 1 8 27
M  V30 30 1 8 28
M  V30 31 1 9 29
M  V30 32 1 9 30
M  V30 33 1 12 31
M  V30 34 1 12 32
M  V30 35 1 13 33
M  V30 36 1 13 34
M  V30 37 1 18 35
M  V30 38 1 19 36
M  V30 39 1 19 37
M  V30 40 1 21 38
M  V30 41 1 21 39
M  V30 42 1 21 40
M  V30 43 1 22 41
M  V30 44 1 22 42
M  V30 45 1 22 43
M  V30 46 1 24 44
M  V30 END BOND
M  V30 END CTAB
M  END
>  <NO.>
433

>  <Name>
pefloxacin

>  <SMILES>
CCn1cc(C(=O)O)c(=O)c2cc(F)c(N3CCN(C)CC3)cc21

>  <logBB>
-0.16

>  <Class>
1

>  <MW>
333.15

>  <nHBAcc>
4

>  <nHBDon>
1

>  <SLogP>
1.61

>  <TopoPSA>
65.78

>  <MMFF94 Energy>
118.14

$$$$
Cn1nnc2ccc(C(c3ccc(Cl)cc3)n3cncn3)cc21
Actelion Java MolfileCreator 2.0

  0  0  0  0  0  0              0 V3000
M  V30 BEGIN CTAB
M  V30 COUNTS 36 39 0 0 0
M  V30 BEGIN ATOM
M  V30 1 Cl -3.8313 -2.852 -3.5048 0
M  V30 2 C -2.7854 -1.7016 -2.7699 0
M  V30 3 C -3.3216 -0.6309 -2.0615 0
M  V30 4 C -1.4063 -1.8482 -2.8809 0
M  V30 5 C -2.4704 0.3025 -1.464 0
M  V30 6 C -0.5537 -0.9152 -2.282 0
M  V30 7 C -1.0704 0.1826 -1.5722 0
M  V30 8 C -0.1895 1.2255 -0.8786 0 CFG=2
M  V30 9 N 1.1131 1.4323 -1.5327 0
M  V30 10 C -0.0591 1.0237 0.6326 0
M  V30 11 N 2.1873 0.6311 -1.3291 0
M  V30 12 C 1.4216 2.4223 -2.421 0
M  V30 13 C 0.405 -0.1987 1.1629 0
M  V30 14 C -0.4087 2.0732 1.5057 0
M  V30 15 C 3.1047 1.2148 -2.1039 0
M  V30 16 N 2.6742 2.3095 -2.7951 0
M  V30 17 C 0.4929 -0.3116 2.5555 0
M  V30 18 C -0.3156 1.9321 2.8982 0
M  V30 19 N 0.8948 -1.3027 3.4095 0
M  V30 20 C 0.1422 0.7165 3.4208 0
M  V30 21 N 0.7855 -0.9294 4.6988 0
M  V30 22 C 1.3876 -2.6167 3.0958 0
M  V30 23 N 0.3261 0.315 4.7159 0
M  V30 24 H -4.3986 -0.5193 -1.9657 0
M  V30 25 H -0.9847 -2.6874 -3.4284 0
M  V30 26 H -2.9128 1.1248 -0.903 0
M  V30 27 H 0.5195 -1.0705 -2.3784 0
M  V30 28 H -0.7026 2.1871 -1.0342 0
M  V30 29 H 0.7184 3.1747 -2.7499 0
M  V30 30 H 0.7001 -1.0177 0.5136 0
M  V30 31 H -0.7618 3.0257 1.1135 0
M  V30 32 H 4.1144 0.8303 -2.1708 0
M  V30 33 H -0.587 2.7434 3.5652 0
M  V30 34 H 1.4616 -2.7414 2.0138 0
M  V30 35 H 0.692 -3.3527 3.5065 0
M  V30 36 H 2.376 -2.7329 3.5475 0
M  V30 END ATOM
M  V30 BEGIN BOND
M  V30 1 1 1 2
M  V30 2 2 2 3
M  V30 3 1 2 4
M  V30 4 1 3 5
M  V30 5 2 4 6
M  V30 6 2 5 7
M  V30 7 1 7 8
M  V30 8 1 8 9
M  V30 9 1 8 10
M  V30 10 1 9 11
M  V30 11 1 9 12
M  V30 12 2 10 13
M  V30 13 1 10 14
M  V30 14 2 11 15
M  V30 15 2 12 16
M  V30 16 1 13 17
M  V30 17 2 14 18
M  V30 18 1 17 19
M  V30 19 2 17 20
M  V30 20 1 19 21
M  V30 21 1 19 22
M  V30 22 1 20 23
M  V30 23 1 6 7
M  V30 24 1 15 16
M  V30 25 1 18 20
M  V30 26 2 21 23
M  V30 27 1 3 24
M  V30 28 1 4 25
M  V30 29 1 5 26
M  V30 30 1 6 27
M  V30 31 1 8 28
M  V30 32 1 12 29
M  V30 33 1 13 30
M  V30 34 1 14 31
M  V30 35 1 15 32
M  V30 36 1 18 33
M  V30 37 1 22 34
M  V30 38 1 22 35
M  V30 39 1 22 36
M  V30 END BOND
M  V30 BEGIN COLLECTION
M  V30 MDLV30/STERAC1 ATOMS=(1 8)
M  V30 END COLLECTION
M  V30 END CTAB
M  END
>  <NO.>
434

>  <Name>
vorozole

>  <SMILES>
Cn1nnc2ccc(C(c3ccc(Cl)cc3)n3cncn3)cc21

>  <logBB>
-0.16

>  <Class>
1

>  <MW>
324.09

>  <nHBAcc>
4

>  <nHBDon>
0

>  <SLogP>
2.85

>  <TopoPSA>
61.42

>  <MMFF94 Energy>
101.23

$$$$
NC1=NCC2c3ccccc3Cc3ccccc3N12
Actelion Java MolfileCreator 2.0

  0  0  0  0  0  0              0 V3000
M  V30 BEGIN CTAB
M  V30 COUNTS 34 37 0 0 0
M  V30 BEGIN ATOM
M  V30 1 N 0.1603 -0.2405 -3.3719 0
M  V30 2 C -0.0399 0.7702 -2.5702 0
M  V30 3 C 0.2143 -1.4103 -2.4423 0
M  V30 4 N -0.1973 0.511 -1.2419 0
M  V30 5 N -0.0766 2.0374 -3.0138 0
M  V30 6 C -0.3025 -0.9308 -1.0596 0 CFG=2
M  V30 7 C -0.7559 1.3186 -0.2474 0
M  V30 8 C 0.4254 -1.5725 0.1134 0
M  V30 9 C -0.1377 1.3668 1.0131 0
M  V30 10 C -1.9276 2.0581 -0.4574 0
M  V30 11 C 1.0627 -0.8718 1.1619 0
M  V30 12 C 0.3983 -2.9855 0.1772 0
M  V30 13 C -0.705 2.1301 2.0441 0
M  V30 14 C 1.1684 0.6374 1.2118 0
M  V30 15 C -2.4851 2.8209 0.5699 0
M  V30 16 C 1.68 -1.5996 2.2009 0
M  V30 17 C 1.0065 -3.6866 1.2178 0
M  V30 18 C -1.8761 2.8529 1.8214 0
M  V30 19 C 1.6518 -2.992 2.2293 0
M  V30 20 H -0.41 -2.221 -2.8332 0
M  V30 21 H 1.2512 -1.7645 -2.4001 0
M  V30 22 H 0.0839 2.2029 -3.9965 0
M  V30 23 H -0.0576 2.8134 -2.3701 0
M  V30 24 H -1.3676 -1.1938 -0.9765 0
M  V30 25 H -2.4287 2.0216 -1.4221 0
M  V30 26 H -0.1105 -3.5596 -0.5959 0
M  V30 27 H -0.2329 2.1715 3.0228 0
M  V30 28 H 1.8949 0.968 0.4574 0
M  V30 29 H 1.5983 0.9484 2.1731 0
M  V30 30 H -3.3999 3.3809 0.3946 0
M  V30 31 H 2.192 -1.0768 3.0069 0
M  V30 32 H 0.973 -4.7726 1.2367 0
M  V30 33 H -2.312 3.4429 2.6236 0
M  V30 34 H 2.131 -3.5303 3.0426 0
M  V30 END ATOM
M  V30 BEGIN BOND
M  V30 1 2 1 2
M  V30 2 1 1 3
M  V30 3 1 2 4
M  V30 4 1 2 5
M  V30 5 1 3 6
M  V30 6 1 4 7
M  V30 7 1 6 8
M  V30 8 2 7 9
M  V30 9 1 7 10
M  V30 10 2 8 11
M  V30 11 1 8 12
M  V30 12 1 9 13
M  V30 13 1 9 14
M  V30 14 2 10 15
M  V30 15 1 11 16
M  V30 16 2 12 17
M  V30 17 2 13 18
M  V30 18 2 16 19
M  V30 19 1 4 6
M  V30 20 1 11 14
M  V30 21 1 15 18
M  V30 22 1 17 19
M  V30 23 1 3 20
M  V30 24 1 3 21
M  V30 25 1 5 22
M  V30 26 1 5 23
M  V30 27 1 6 24
M  V30 28 1 10 25
M  V30 29 1 12 26
M  V30 30 1 13 27
M  V30 31 1 14 28
M  V30 32 1 14 29
M  V30 33 1 15 30
M  V30 34 1 16 31
M  V30 35 1 17 32
M  V30 36 1 18 33
M  V30 37 1 19 34
M  V30 END BOND
M  V30 BEGIN COLLECTION
M  V30 MDLV30/STERAC1 ATOMS=(1 6)
M  V30 END COLLECTION
M  V30 END CTAB
M  END
>  <NO.>
436

>  <Name>
epinastine

>  <SMILES>
NC1=NCC2c3ccccc3Cc3ccccc3N12

>  <logBB>
-0.16

>  <Class>
1

>  <MW>
249.13

>  <nHBAcc>
3

>  <nHBDon>
1

>  <SLogP>
2.47

>  <TopoPSA>
41.62

>  <MMFF94 Energy>
14.834

$$$$
C[C@@H]1C[C@H]2[C@@H]3CCC4=CC(=O)C=C[C@]4(C)[C@@]3(F)[C@@H](O)C[C@]2(C)[C@@]1(O)C(=O)CO
Actelion Java MolfileCreator 2.0

  0  0  0  0  0  0              0 V3000
M  V30 BEGIN CTAB
M  V30 COUNTS 57 60 0 0 0
M  V30 BEGIN ATOM
M  V30 1 F -0.4041 1.7791 -1.2128 0
M  V30 2 C -0.8943 0.48 -1.2076 0 CFG=2
M  V30 3 C -1.6306 0.2783 -2.5955 0 CFG=2
M  V30 4 C -1.8085 0.4172 0.0563 0 CFG=1
M  V30 5 C 0.3632 -0.4429 -1.0724 0 CFG=2
M  V30 6 C -0.5807 0.4447 -3.7099 0
M  V30 7 C -2.7643 1.2904 -2.7632 0
M  V30 8 C -2.279 -1.1153 -2.7634 0
M  V30 9 O -2.5854 -0.772 0.1159 0
M  V30 10 C -1.0209 0.5925 1.3777 0
M  V30 11 C 1.0774 -0.1332 0.254 0 CFG=1
M  V30 12 C 1.3249 -0.244 -2.2596 0
M  V30 13 C -0.6806 1.3474 -4.702 0
M  V30 14 C 0.6346 -0.4401 -3.6049 0
M  V30 15 C -2.8586 2.1882 -3.753 0
M  V30 16 C 0.1931 -0.3548 1.503 0 CFG=1
M  V30 17 C 2.3698 -0.8841 0.5754 0
M  V30 18 C -1.8264 2.2737 -4.8026 0
M  V30 19 C 1.2425 -0.0267 2.6254 0 CFG=1
M  V30 20 C -0.2997 -1.8232 1.6453 0
M  V30 21 C 2.5218 -0.7798 2.1152 0 CFG=2
M  V30 22 O -1.9169 3.0799 -5.7197 0
M  V30 23 O 1.5584 1.3672 2.6675 0
M  V30 24 C 0.8249 -0.5232 4.0313 0
M  V30 25 C 3.845 -0.1308 2.5153 0
M  V30 26 O 1.0407 -1.6701 4.436 0
M  V30 27 C 0.0936 0.465 4.9312 0
M  V30 28 O -0.5788 -0.193 5.9945 0
M  V30 29 H -2.5184 1.2514 0.0107 0
M  V30 30 H 0.0515 -1.4922 -1.0788 0
M  V30 31 H -3.572 1.2574 -2.0353 0
M  V30 32 H -3.1986 -1.2209 -2.178 0
M  V30 33 H -2.5635 -1.2947 -3.8088 0
M  V30 34 H -1.6104 -1.9302 -2.4711 0
M  V30 35 H -3.1867 -0.7043 0.8795 0
M  V30 36 H -0.6947 1.6375 1.4121 0
M  V30 37 H -1.6924 0.44 2.2311 0
M  V30 38 H 1.3549 0.9322 0.2102 0
M  V30 39 H 1.7635 0.7619 -2.2197 0
M  V30 40 H 2.1584 -0.9527 -2.1899 0
M  V30 41 H 0.0745 1.4626 -5.4711 0
M  V30 42 H 0.3418 -1.489 -3.7288 0
M  V30 43 H 1.3532 -0.2269 -4.4057 0
M  V30 44 H -3.6894 2.8778 -3.8386 0
M  V30 45 H 3.2231 -0.4535 0.0406 0
M  V30 46 H 2.2955 -1.9369 0.2788 0
M  V30 47 H -1.014 -1.9102 2.4722 0
M  V30 48 H -0.7991 -2.1993 0.7509 0
M  V30 49 H 0.5118 -2.5284 1.8461 0
M  V30 50 H 2.5449 -1.805 2.5059 0
M  V30 51 H 0.7531 1.9048 2.7211 0
M  V30 52 H 3.9119 -0.025 3.6029 0
M  V30 53 H 4.6866 -0.7494 2.1858 0
M  V30 54 H 3.9685 0.8587 2.0633 0
M  V30 55 H 0.819 1.1653 5.3536 0
M  V30 56 H -0.6557 1.0116 4.3553 0
M  V30 57 H -0.0342 -0.9757 6.2164 0
M  V30 END ATOM
M  V30 BEGIN BOND
M  V30 1 1 1 2
M  V30 2 1 2 3
M  V30 3 1 2 4
M  V30 4 1 2 5
M  V30 5 1 3 6
M  V30 6 1 3 7
M  V30 7 1 3 8
M  V30 8 1 4 9
M  V30 9 1 4 10
M  V30 10 1 5 11
M  V30 11 1 5 12
M  V30 12 2 6 13
M  V30 13 1 6 14
M  V30 14 2 7 15
M  V30 15 1 10 16
M  V30 16 1 11 17
M  V30 17 1 13 18
M  V30 18 1 16 19
M  V30 19 1 16 20
M  V30 20 1 17 21
M  V30 21 2 18 22
M  V30 22 1 19 23
M  V30 23 1 19 24
M  V30 24 1 21 25
M  V30 25 2 24 26
M  V30 26 1 24 27
M  V30 27 1 27 28
M  V30 28 1 11 16
M  V30 29 1 12 14
M  V30 30 1 15 18
M  V30 31 1 19 21
M  V30 32 1 4 29
M  V30 33 1 5 30
M  V30 34 1 7 31
M  V30 35 1 8 32
M  V30 36 1 8 33
M  V30 37 1 8 34
M  V30 38 1 9 35
M  V30 39 1 10 36
M  V30 40 1 10 37
M  V30 41 1 11 38
M  V30 42 1 12 39
M  V30 43 1 12 40
M  V30 44 1 13 41
M  V30 45 1 14 42
M  V30 46 1 14 43
M  V30 47 1 15 44
M  V30 48 1 17 45
M  V30 49 1 17 46
M  V30 50 1 20 47
M  V30 51 1 20 48
M  V30 52 1 20 49
M  V30 53 1 21 50
M  V30 54 1 23 51
M  V30 55 1 25 52
M  V30 56 1 25 53
M  V30 57 1 25 54
M  V30 58 1 27 55
M  V30 59 1 27 56
M  V30 60 1 28 57
M  V30 END BOND
M  V30 BEGIN COLLECTION
M  V30 MDLV30/STEABS ATOMS=(8 2 3 4 5 11 16 19 21)
M  V30 END COLLECTION
M  V30 END CTAB
M  END
>  <NO.>
438

>  <Name>
dexamethasone

>  <SMILES>
C[C@@H]1C[C@H]2[C@@H]3CCC4=CC(=O)C=C[C@]4(C)[C@@]3(F)[C@@H](O)C[C@]2(C)[C@@]1(O)C(=O)CO

>  <logBB>
-0.15

>  <Class>
1

>  <MW>
392.2

>  <nHBAcc>
5

>  <nHBDon>
3

>  <SLogP>
1.9

>  <TopoPSA>
94.83

>  <MMFF94 Energy>
176.96

$$$$
CCCC(C)(COC(N)=O)COC(N)=O
Actelion Java MolfileCreator 2.0

  0  0  0  0  0  0              0 V3000
M  V30 BEGIN CTAB
M  V30 COUNTS 33 32 0 0 0
M  V30 BEGIN ATOM
M  V30 1 O 2.3846 -3.3859 -1.9227 0
M  V30 2 C 1.7137 -3.3172 -0.9064 0
M  V30 3 O 1.0368 -2.2348 -0.4629 0
M  V30 4 N 1.5428 -4.3471 -0.0501 0
M  V30 5 C 1.1463 -1.084 -1.3128 0
M  V30 6 C 0.3636 0.1116 -0.7041 0
M  V30 7 C -1.1156 -0.3159 -0.5336 0
M  V30 8 C 1.0184 0.4771 0.6634 0
M  V30 9 C 0.4744 1.2918 -1.6891 0
M  V30 10 O -1.9513 0.8154 -0.2521 0
M  V30 11 C 0.4205 1.6646 1.4251 0
M  V30 12 C -3.2507 0.509 -0.0463 0
M  V30 13 C 1.2232 1.9699 2.6831 0
M  V30 14 O -3.7499 -0.603 -0.0837 0
M  V30 15 N -3.9501 1.6343 0.2158 0
M  V30 16 H 1.9867 -5.2301 -0.2503 0
M  V30 17 H 0.9697 -4.231 0.7706 0
M  V30 18 H 2.2053 -0.8194 -1.4278 0
M  V30 19 H 0.7406 -1.3348 -2.3015 0
M  V30 20 H -1.4746 -0.7802 -1.4612 0
M  V30 21 H -1.2078 -1.0455 0.2807 0
M  V30 22 H 0.9839 -0.3981 1.3254 0
M  V30 23 H 2.0841 0.6819 0.4916 0
M  V30 24 H -0.0822 2.1714 -1.3525 0
M  V30 25 H 0.0788 1.0167 -2.6735 0
M  V30 26 H 1.5192 1.5933 -1.8243 0
M  V30 27 H 0.4044 2.5613 0.7985 0
M  V30 28 H -0.6087 1.447 1.7249 0
M  V30 29 H 0.7782 2.8132 3.2205 0
M  V30 30 H 1.239 1.1078 3.3574 0
M  V30 31 H 2.2564 2.2327 2.4354 0
M  V30 32 H -4.9407 1.5662 0.3915 0
M  V30 33 H -3.4803 2.5254 0.2335 0
M  V30 END ATOM
M  V30 BEGIN BOND
M  V30 1 2 1 2
M  V30 2 1 2 3
M  V30 3 1 2 4
M  V30 4 1 3 5
M  V30 5 1 5 6
M  V30 6 1 6 7
M  V30 7 1 6 8
M  V30 8 1 6 9
M  V30 9 1 7 10
M  V30 10 1 8 11
M  V30 11 1 10 12
M  V30 12 1 11 13
M  V30 13 2 12 14
M  V30 14 1 12 15
M  V30 15 1 4 16
M  V30 16 1 4 17
M  V30 17 1 5 18
M  V30 18 1 5 19
M  V30 19 1 7 20
M  V30 20 1 7 21
M  V30 21 1 8 22
M  V30 22 1 8 23
M  V30 23 1 9 24
M  V30 24 1 9 25
M  V30 25 1 9 26
M  V30 26 1 11 27
M  V30 27 1 11 28
M  V30 28 1 13 29
M  V30 29 1 13 30
M  V30 30 1 13 31
M  V30 31 1 15 32
M  V30 32 1 15 33
M  V30 END BOND
M  V30 END CTAB
M  END
>  <NO.>
439

>  <Name>
meprobamate

>  <SMILES>
CCCC(C)(COC(N)=O)COC(N)=O

>  <logBB>
-0.15

>  <Class>
1

>  <MW>
218.13

>  <nHBAcc>
4

>  <nHBDon>
2

>  <SLogP>
0.98

>  <TopoPSA>
104.64

>  <MMFF94 Energy>
-132.13

$$$$
CC(C)=O
Actelion Java MolfileCreator 2.0

  0  0  0  0  0  0              0 V3000
M  V30 BEGIN CTAB
M  V30 COUNTS 10 9 0 0 0
M  V30 BEGIN ATOM
M  V30 1 O -1.0502 0.9751 1.2003 0
M  V30 2 C -0.3492 0.3456 0.4095 0
M  V30 3 C -0.2864 0.707 -1.0498 0
M  V30 4 C 0.4872 -0.8234 0.854 0
M  V30 5 H 0.7399 0.9689 -1.3183 0
M  V30 6 H -0.6301 -0.138 -1.6514 0
M  V30 7 H -0.9335 1.5666 -1.2452 0
M  V30 8 H 0.3558 -0.9839 1.9277 0
M  V30 9 H 1.5414 -0.6164 0.654 0
M  V30 10 H 0.1713 -1.7234 0.3209 0
M  V30 END ATOM
M  V30 BEGIN BOND
M  V30 1 2 1 2
M  V30 2 1 2 3
M  V30 3 1 2 4
M  V30 4 1 3 5
M  V30 5 1 3 6
M  V30 6 1 3 7
M  V30 7 1 4 8
M  V30 8 1 4 9
M  V30 9 1 4 10
M  V30 END BOND
M  V30 END CTAB
M  END
>  <NO.>
440

>  <Name>
propan-2-one (acetone)

>  <SMILES>
CC(C)=O

>  <logBB>
-0.15

>  <Class>
1

>  <MW>
58.04

>  <nHBAcc>
1

>  <nHBDon>
0

>  <SLogP>
0.6

>  <TopoPSA>
17.07

>  <MMFF94 Energy>
1.6523

$$$$
c1ccc(-c2nnc(N3CCN(c4ncccn4)CC3)cc2-c2ccncc2)cc1
Actelion Java MolfileCreator 2.0

  0  0  0  0  0  0              0 V3000
M  V30 BEGIN CTAB
M  V30 COUNTS 51 55 0 0 0
M  V30 BEGIN ATOM
M  V30 1 N -0.4014 -1.9282 -0.803 0
M  V30 2 N -1.3212 -1.1028 -0.1853 0
M  V30 3 C 0.8374 -2.0893 -0.2884 0
M  V30 4 C -1.0186 -0.4114 0.9291 0
M  V30 5 C 1.2128 -1.4089 0.8746 0
M  V30 6 C 1.6945 -3.0119 -1.0528 0
M  V30 7 N -1.968 0.4097 1.5247 0
M  V30 8 C 0.249 -0.5727 1.4736 0
M  V30 9 C 2.5515 -1.4975 1.4838 0
M  V30 10 C 2.3319 -4.1093 -0.4484 0
M  V30 11 C 1.8839 -2.8235 -2.4339 0
M  V30 12 C -3.3313 0.3766 0.959 0
M  V30 13 C -1.5878 1.7568 1.9833 0
M  V30 14 C 3.6941 -1.0773 0.7932 0
M  V30 15 C 2.7186 -1.9934 2.7829 0
M  V30 16 C 3.1488 -4.9677 -1.1895 0
M  V30 17 C 2.6984 -3.6819 -3.1767 0
M  V30 18 C -3.4756 1.3657 -0.2201 0
M  V30 19 C -1.6747 2.7795 0.8262 0
M  V30 20 C 4.9289 -1.1796 1.4139 0
M  V30 21 C 3.9948 -2.0541 3.3199 0
M  V30 22 C 3.3339 -4.7513 -2.5523 0
M  V30 23 N -2.9651 2.701 0.1305 0
M  V30 24 N 5.1035 -1.6572 2.6634 0
M  V30 25 C -3.2984 3.7467 -0.7096 0
M  V30 26 N -4.3122 3.5862 -1.5778 0
M  V30 27 N -2.607 4.8971 -0.6208 0
M  V30 28 C -4.6269 4.621 -2.3793 0
M  V30 29 C -2.9559 5.9066 -1.4409 0
M  V30 30 C -3.9728 5.8238 -2.3544 0
M  V30 31 H 0.5063 -0.0549 2.3923 0
M  V30 32 H 2.1912 -4.3122 0.6111 0
M  V30 33 H 1.3874 -1.9972 -2.941 0
M  V30 34 H -3.6347 -0.6346 0.6624 0
M  V30 35 H -4.0301 0.6765 1.7514 0
M  V30 36 H -2.291 2.0578 2.7709 0
M  V30 37 H -0.5936 1.7919 2.4391 0
M  V30 38 H 3.6323 -0.6782 -0.2143 0
M  V30 39 H 1.8723 -2.3375 3.3695 0
M  V30 40 H 3.6354 -5.8081 -0.701 0
M  V30 41 H 2.8299 -3.5166 -4.2428 0
M  V30 42 H -4.5403 1.4003 -0.4811 0
M  V30 43 H -2.9282 0.9899 -1.093 0
M  V30 44 H -0.8656 2.5911 0.1094 0
M  V30 45 H -1.5138 3.7722 1.2638 0
M  V30 46 H 5.837 -0.869 0.9051 0
M  V30 47 H 4.1623 -2.4367 4.3227 0
M  V30 48 H 3.9658 -5.4215 -3.129 0
M  V30 49 H -5.451 4.4411 -3.0628 0
M  V30 50 H -2.3692 6.8135 -1.3322 0
M  V30 51 H -4.2391 6.6439 -3.0044 0
M  V30 END ATOM
M  V30 BEGIN BOND
M  V30 1 2 1 2
M  V30 2 1 1 3
M  V30 3 1 2 4
M  V30 4 2 3 5
M  V30 5 1 3 6
M  V30 6 1 4 7
M  V30 7 2 4 8
M  V30 8 1 5 9
M  V30 9 2 6 10
M  V30 10 1 6 11
M  V30 11 1 7 12
M  V30 12 1 7 13
M  V30 13 2 9 14
M  V30 14 1 9 15
M  V30 15 1 10 16
M  V30 16 2 11 17
M  V30 17 1 12 18
M  V30 18 1 13 19
M  V30 19 1 14 20
M  V30 20 2 15 21
M  V30 21 2 16 22
M  V30 22 1 18 23
M  V30 23 2 20 24
M  V30 24 1 23 25
M  V30 25 2 25 26
M  V30 26 1 25 27
M  V30 27 1 26 28
M  V30 28 2 27 29
M  V30 29 2 28 30
M  V30 30 1 5 8
M  V30 31 1 17 22
M  V30 32 1 19 23
M  V30 33 1 21 24
M  V30 34 1 29 30
M  V30 35 1 8 31
M  V30 36 1 10 32
M  V30 37 1 11 33
M  V30 38 1 12 34
M  V30 39 1 12 35
M  V30 40 1 13 36
M  V30 41 1 13 37
M  V30 42 1 14 38
M  V30 43 1 15 39
M  V30 44 1 16 40
M  V30 45 1 17 41
M  V30 46 1 18 42
M  V30 47 1 18 43
M  V30 48 1 19 44
M  V30 49 1 19 45
M  V30 50 1 20 46
M  V30 51 1 21 47
M  V30 52 1 22 48
M  V30 53 1 28 49
M  V30 54 1 29 50
M  V30 55 1 30 51
M  V30 END BOND
M  V30 END CTAB
M  END
>  <NO.>
441

>  <Name>
minokine, mw01-2-069srm

>  <SMILES>
c1ccc(-c2nnc(N3CCN(c4ncccn4)CC3)cc2-c2ccncc2)cc1

>  <logBB>
-0.15

>  <Class>
1

>  <MW>
395.19

>  <nHBAcc>
7

>  <nHBDon>
0

>  <SLogP>
3.32

>  <TopoPSA>
70.93

>  <MMFF94 Energy>
65.291

$$$$
CCCC(=O)Nc1ccc(OCC(O)CNC(C)C)c(C(C)=O)c1
Actelion Java MolfileCreator 2.0

  0  0  0  0  0  0              0 V3000
M  V30 BEGIN CTAB
M  V30 COUNTS 52 52 0 0 0
M  V30 BEGIN ATOM
M  V30 1 O 2.812 0.7024 3.9073 0
M  V30 2 C 1.965 1.4033 4.4489 0
M  V30 3 N 0.6633 1.5946 4.0111 0
M  V30 4 C 2.2313 2.152 5.7482 0
M  V30 5 C 0.0781 1.0716 2.8413 0
M  V30 6 C 3.7017 2.1708 6.1594 0
M  V30 7 C -1.3127 1.1283 2.7355 0
M  V30 8 C 0.8074 0.5355 1.783 0
M  V30 9 C 4.5383 3.1002 5.2911 0
M  V30 10 C -1.9718 0.635 1.5946 0
M  V30 11 C 0.1594 0.0598 0.6342 0
M  V30 12 C -1.2338 0.1078 0.5229 0
M  V30 13 C -3.4589 0.7278 1.6017 0
M  V30 14 O -1.9267 -0.2914 -0.587 0
M  V30 15 O -3.9971 1.666 2.1894 0
M  V30 16 C -4.2777 -0.3406 0.9264 0
M  V30 17 C -1.1858 -0.8806 -1.6677 0
M  V30 18 C -2.1993 -1.2763 -2.7507 0 CFG=1
M  V30 19 O -2.816 -0.0961 -3.2955 0
M  V30 20 C -1.5555 -2.0789 -3.8968 0
M  V30 21 N -0.509 -1.2942 -4.5708 0
M  V30 22 C -0.0219 -1.9267 -5.8037 0
M  V30 23 C 0.835 -0.9079 -6.5596 0
M  V30 24 C 0.8052 -3.1799 -5.5136 0
M  V30 25 H 0.0528 2.1348 4.6131 0
M  V30 26 H 1.6502 1.649 6.5311 0
M  V30 27 H 1.8501 3.1765 5.661 0
M  V30 28 H 3.7716 2.5128 7.1989 0
M  V30 29 H 4.1249 1.1603 6.1263 0
M  V30 30 H -1.9069 1.5479 3.5455 0
M  V30 31 H 1.8932 0.4902 1.809 0
M  V30 32 H 5.5756 3.1095 5.6409 0
M  V30 33 H 4.5395 2.7808 4.2448 0
M  V30 34 H 4.1578 4.1258 5.3361 0
M  V30 35 H 0.7889 -0.3279 -0.1614 0
M  V30 36 H -4.5068 -0.0424 -0.0993 0
M  V30 37 H -3.7619 -1.3044 0.9421 0
M  V30 38 H -5.2136 -0.4691 1.4794 0
M  V30 39 H -0.655 -1.7717 -1.3133 0
M  V30 40 H -0.4857 -0.1357 -2.0633 0
M  V30 41 H -3.0059 -1.8689 -2.303 0
M  V30 42 H -3.0777 0.4503 -2.5309 0
M  V30 43 H -1.1403 -3.0075 -3.492 0
M  V30 44 H -2.3402 -2.3325 -4.6199 0
M  V30 45 H -0.9318 -0.3887 -4.8039 0
M  V30 46 H -0.8687 -2.1929 -6.4486 0
M  V30 47 H 1.703 -0.5941 -5.9684 0
M  V30 48 H 0.2543 -0.0129 -6.8105 0
M  V30 49 H 1.2042 -1.3341 -7.4988 0
M  V30 50 H 0.1957 -3.9715 -5.0666 0
M  V30 51 H 1.6351 -2.9627 -4.8316 0
M  V30 52 H 1.2306 -3.5837 -6.439 0
M  V30 END ATOM
M  V30 BEGIN BOND
M  V30 1 2 1 2
M  V30 2 1 2 3
M  V30 3 1 2 4
M  V30 4 1 3 5
M  V30 5 1 4 6
M  V30 6 2 5 7
M  V30 7 1 5 8
M  V30 8 1 6 9
M  V30 9 1 7 10
M  V30 10 2 8 11
M  V30 11 2 10 12
M  V30 12 1 10 13
M  V30 13 1 12 14
M  V30 14 2 13 15
M  V30 15 1 13 16
M  V30 16 1 14 17
M  V30 17 1 17 18
M  V30 18 1 18 19
M  V30 19 1 18 20
M  V30 20 1 20 21
M  V30 21 1 21 22
M  V30 22 1 22 23
M  V30 23 1 22 24
M  V30 24 1 11 12
M  V30 25 1 3 25
M  V30 26 1 4 26
M  V30 27 1 4 27
M  V30 28 1 6 28
M  V30 29 1 6 29
M  V30 30 1 7 30
M  V30 31 1 8 31
M  V30 32 1 9 32
M  V30 33 1 9 33
M  V30 34 1 9 34
M  V30 35 1 11 35
M  V30 36 1 16 36
M  V30 37 1 16 37
M  V30 38 1 16 38
M  V30 39 1 17 39
M  V30 40 1 17 40
M  V30 41 1 18 41
M  V30 42 1 19 42
M  V30 43 1 20 43
M  V30 44 1 20 44
M  V30 45 1 21 45
M  V30 46 1 22 46
M  V30 47 1 23 47
M  V30 48 1 23 48
M  V30 49 1 23 49
M  V30 50 1 24 50
M  V30 51 1 24 51
M  V30 52 1 24 52
M  V30 END BOND
M  V30 BEGIN COLLECTION
M  V30 MDLV30/STERAC1 ATOMS=(1 18)
M  V30 END COLLECTION
M  V30 END CTAB
M  END
>  <NO.>
442

>  <Name>
acebutolol

>  <SMILES>
CCCC(=O)Nc1ccc(OCC(O)CNC(C)C)c(C(C)=O)c1

>  <logBB>
-0.15

>  <Class>
1

>  <MW>
336.2

>  <nHBAcc>
5

>  <nHBDon>
3

>  <SLogP>
2.37

>  <TopoPSA>
87.66

>  <MMFF94 Energy>
51.342

$$$$
COc1ccc(S(C)(=O)=O)cc1CNC1CCCNC1c1ccccc1
Actelion Java MolfileCreator 2.0

  0  0  0  0  0  0              0 V3000
M  V30 BEGIN CTAB
M  V30 COUNTS 52 54 0 0 0
M  V30 BEGIN ATOM
M  V30 1 S -2.8133 -3.0547 1.6068 0
M  V30 2 O -1.666 -3.5258 2.3584 0
M  V30 3 O -4.161 -3.4216 2.0027 0
M  V30 4 C -2.7274 -1.2827 1.5722 0
M  V30 5 C -2.6119 -3.5224 -0.0925 0
M  V30 6 C -1.5331 -0.6722 1.1965 0
M  V30 7 C -3.8356 -0.5127 1.9162 0
M  V30 8 C -1.4393 0.7309 1.1373 0
M  V30 9 C -3.7497 0.8827 1.8616 0
M  V30 10 C -2.5613 1.5138 1.4682 0
M  V30 11 C -0.1243 1.334 0.6922 0
M  V30 12 O -2.3981 2.8707 1.3716 0
M  V30 13 N 0.0601 1.1056 -0.7401 0
M  V30 14 C -3.4973 3.6927 1.7444 0
M  V30 15 C 1.4346 1.2741 -1.2404 0
M  V30 16 C 2.5132 0.2927 -0.6429 0
M  V30 17 C 1.9202 2.7292 -1.118 0
M  V30 18 N 3.841 0.4969 -1.2577 0
M  V30 19 C 2.1293 -1.1805 -0.7446 0
M  V30 20 C 3.3154 2.878 -1.7214 0
M  V30 21 C 4.2948 1.8781 -1.1129 0
M  V30 22 C 2.2291 -2.0034 0.3901 0
M  V30 23 C 1.6924 -1.7581 -1.9478 0
M  V30 24 C 1.8753 -3.353 0.331 0
M  V30 25 C 1.3458 -3.1104 -2.0076 0
M  V30 26 C 1.4342 -3.9063 -0.8679 0
M  V30 27 H -1.6359 -3.1902 -0.4477 0
M  V30 28 H -3.413 -3.0721 -0.6819 0
M  V30 29 H -2.6747 -4.6111 -0.1527 0
M  V30 30 H -0.665 -1.2766 0.9377 0
M  V30 31 H -4.7674 -0.9815 2.2253 0
M  V30 32 H -4.6354 1.4496 2.1312 0
M  V30 33 H 0.6615 0.8612 1.291 0
M  V30 34 H -0.0781 2.4041 0.9195 0
M  V30 35 H -0.5741 1.726 -1.2421 0
M  V30 36 H -4.3555 3.5256 1.0855 0
M  V30 37 H -3.1879 4.736 1.6285 0
M  V30 38 H -3.7666 3.5408 2.7949 0
M  V30 39 H 1.3674 1.0643 -2.3168 0
M  V30 40 H 2.6253 0.5279 0.4238 0
M  V30 41 H 1.2281 3.4085 -1.63 0
M  V30 42 H 1.9569 3.0372 -0.0659 0
M  V30 43 H 3.7828 0.2531 -2.2452 0
M  V30 44 H 3.2628 2.7303 -2.8074 0
M  V30 45 H 3.6798 3.8983 -1.5557 0
M  V30 46 H 4.4561 2.1047 -0.0519 0
M  V30 47 H 5.2691 1.9813 -1.6031 0
M  V30 48 H 2.5824 -1.5943 1.3343 0
M  V30 49 H 1.6169 -1.1604 -2.8517 0
M  V30 50 H 1.948 -3.9715 1.2223 0
M  V30 51 H 1.0108 -3.5422 -2.9468 0
M  V30 52 H 1.1674 -4.9585 -0.9139 0
M  V30 END ATOM
M  V30 BEGIN BOND
M  V30 1 2 1 2
M  V30 2 2 1 3
M  V30 3 1 1 4
M  V30 4 1 1 5
M  V30 5 2 4 6
M  V30 6 1 4 7
M  V30 7 1 6 8
M  V30 8 2 7 9
M  V30 9 2 8 10
M  V30 10 1 8 11
M  V30 11 1 10 12
M  V30 12 1 11 13
M  V30 13 1 12 14
M  V30 14 1 13 15
M  V30 15 1 15 16
M  V30 16 1 15 17
M  V30 17 1 16 18
M  V30 18 1 16 19
M  V30 19 1 17 20
M  V30 20 1 18 21
M  V30 21 2 19 22
M  V30 22 1 19 23
M  V30 23 1 22 24
M  V30 24 2 23 25
M  V30 25 2 24 26
M  V30 26 1 9 10
M  V30 27 1 20 21
M  V30 28 1 25 26
M  V30 29 1 5 27
M  V30 30 1 5 28
M  V30 31 1 5 29
M  V30 32 1 6 30
M  V30 33 1 7 31
M  V30 34 1 9 32
M  V30 35 1 11 33
M  V30 36 1 11 34
M  V30 37 1 13 35
M  V30 38 1 14 36
M  V30 39 1 14 37
M  V30 40 1 14 38
M  V30 41 1 15 39
M  V30 42 1 16 40
M  V30 43 1 17 41
M  V30 44 1 17 42
M  V30 45 1 18 43
M  V30 46 1 20 44
M  V30 47 1 20 45
M  V30 48 1 21 46
M  V30 49 1 21 47
M  V30 50 1 22 48
M  V30 51 1 23 49
M  V30 52 1 24 50
M  V30 53 1 25 51
M  V30 54 1 26 52
M  V30 END BOND
M  V30 END CTAB
M  END
>  <NO.>
443

>  <Name>
145741-95-3

>  <SMILES>
COc1ccc(S(C)(=O)=O)cc1CNC1CCCNC1c1ccccc1

>  <logBB>
-0.15

>  <Class>
1

>  <MW>
374.17

>  <nHBAcc>
5

>  <nHBDon>
2

>  <SLogP>
2.68

>  <TopoPSA>
67.43

>  <MMFF94 Energy>
96.982

$$$$
O=c1c(-c2ccc(O)cc2)coc2cc(O)ccc12
Actelion Java MolfileCreator 2.0

  0  0  0  0  0  0              0 V3000
M  V30 BEGIN CTAB
M  V30 COUNTS 29 31 0 0 0
M  V30 BEGIN ATOM
M  V30 1 O -1.5278 -0.5627 1.206 0
M  V30 2 C -0.5003 -0.6617 0.5456 0
M  V30 3 C 0.1015 0.4843 -0.1933 0
M  V30 4 C 0.2031 -1.9535 0.4462 0
M  V30 5 C -0.486 1.8367 -0.1703 0
M  V30 6 C 1.2372 0.2447 -0.8682 0
M  V30 7 C 1.3707 -2.0324 -0.3087 0
M  V30 8 C -0.2928 -3.0881 1.1001 0
M  V30 9 C -0.8229 2.445 1.0473 0
M  V30 10 C -0.7209 2.5427 -1.3624 0
M  V30 11 O 1.9012 -0.9539 -0.9679 0
M  V30 12 C 2.0509 -3.2444 -0.4162 0
M  V30 13 C 0.3868 -4.3032 0.9937 0
M  V30 14 C -1.3695 3.7304 1.0743 0
M  V30 15 C -1.2692 3.829 -1.3368 0
M  V30 16 C 1.5535 -4.369 0.2355 0
M  V30 17 C -1.5869 4.4122 -0.1155 0
M  V30 18 O 2.2481 -5.5346 0.1051 0
M  V30 19 O -2.1225 5.6635 -0.0429 0
M  V30 20 H 1.7816 1.0001 -1.4227 0
M  V30 21 H -1.2055 -3.0252 1.6894 0
M  V30 22 H -0.6692 1.9211 1.9888 0
M  V30 23 H -0.4899 2.0925 -2.3254 0
M  V30 24 H 2.9624 -3.3143 -1.0026 0
M  V30 25 H -0.0056 -5.1775 1.5042 0
M  V30 26 H -1.6298 4.1925 2.0225 0
M  V30 27 H -1.4423 4.3514 -2.2722 0
M  V30 28 H 1.7941 -6.2308 0.6084 0
M  V30 29 H -2.2498 6.0004 -0.9445 0
M  V30 END ATOM
M  V30 BEGIN BOND
M  V30 1 2 1 2
M  V30 2 1 2 3
M  V30 3 1 2 4
M  V30 4 1 3 5
M  V30 5 2 3 6
M  V30 6 2 4 7
M  V30 7 1 4 8
M  V30 8 2 5 9
M  V30 9 1 5 10
M  V30 10 1 6 11
M  V30 11 1 7 12
M  V30 12 2 8 13
M  V30 13 1 9 14
M  V30 14 2 10 15
M  V30 15 2 12 16
M  V30 16 2 14 17
M  V30 17 1 16 18
M  V30 18 1 17 19
M  V30 19 1 7 11
M  V30 20 1 13 16
M  V30 21 1 15 17
M  V30 22 1 6 20
M  V30 23 1 8 21
M  V30 24 1 9 22
M  V30 25 1 10 23
M  V30 26 1 12 24
M  V30 27 1 13 25
M  V30 28 1 14 26
M  V30 29 1 15 27
M  V30 30 1 18 28
M  V30 31 1 19 29
M  V30 END BOND
M  V30 END CTAB
M  END
>  <NO.>
444

>  <Name>
daidzein ok

>  <SMILES>
O=c1c(-c2ccc(O)cc2)coc2cc(O)ccc12

>  <logBB>
-0.15

>  <Class>
1

>  <MW>
254.06

>  <nHBAcc>
4

>  <nHBDon>
2

>  <SLogP>
2.87

>  <TopoPSA>
70.67

>  <MMFF94 Energy>
43.418

$$$$
CC(=O)/C=C/c1cccs1
Actelion Java MolfileCreator 2.0

  0  0  0  0  0  0              0 V3000
M  V30 BEGIN CTAB
M  V30 COUNTS 18 18 0 0 0
M  V30 BEGIN ATOM
M  V30 1 S 0.6477 1.5389 -1.5389 0
M  V30 2 C -0.3511 1.21 -0.171 0
M  V30 3 C 0.1214 3.158 -1.6463 0
M  V30 4 C -1.0651 2.3497 0.172 0
M  V30 5 C -0.4109 -0.057 0.4877 0
M  V30 6 C -0.7961 3.466 -0.6713 0
M  V30 7 C 0.2929 -1.1377 0.1195 0
M  V30 8 C 0.1483 -2.4086 0.8836 0
M  V30 9 O -0.6288 -2.5061 1.8307 0
M  V30 10 C 0.9754 -3.5799 0.4241 0
M  V30 11 H 0.5097 3.8071 -2.4191 0
M  V30 12 H -1.76 2.3808 1.0036 0
M  V30 13 H -1.0804 -0.129 1.3445 0
M  V30 14 H -1.2533 4.4423 -0.5657 0
M  V30 15 H 0.9771 -1.151 -0.7183 0
M  V30 16 H 0.3559 -4.2434 -0.1841 0
M  V30 17 H 1.8378 -3.2498 -0.1612 0
M  V30 18 H 1.3511 -4.1186 1.2987 0
M  V30 END ATOM
M  V30 BEGIN BOND
M  V30 1 1 1 2
M  V30 2 1 1 3
M  V30 3 2 2 4
M  V30 4 1 2 5
M  V30 5 2 3 6
M  V30 6 2 5 7
M  V30 7 1 7 8
M  V30 8 2 8 9
M  V30 9 1 8 10
M  V30 10 1 4 6
M  V30 11 1 3 11
M  V30 12 1 4 12
M  V30 13 1 5 13
M  V30 14 1 6 14
M  V30 15 1 7 15
M  V30 16 1 10 16
M  V30 17 1 10 17
M  V30 18 1 10 18
M  V30 END BOND
M  V30 END CTAB
M  END
>  <NO.>
446

>  <Name>
sr-4688

>  <SMILES>
CC(=O)/C=C/c1cccs1

>  <logBB>
-0.14

>  <Class>
1

>  <MW>
152.03

>  <nHBAcc>
2

>  <nHBDon>
0

>  <SLogP>
2.35

>  <TopoPSA>
17.07

>  <MMFF94 Energy>
10.612

$$$$
CC(C)Nc1cccnc1N1CCNCC1
Actelion Java MolfileCreator 2.0

  0  0  0  0  0  0              0 V3000
M  V30 BEGIN CTAB
M  V30 COUNTS 36 37 0 0 0
M  V30 BEGIN ATOM
M  V30 1 N -2.1929 0.7827 0.313 0
M  V30 2 C -1.0475 0.077 0.1526 0
M  V30 3 C -2.4261 1.3378 1.5191 0
M  V30 4 N -0.7629 -0.4582 -1.1152 0
M  V30 5 C -0.1238 -0.1345 1.2185 0
M  V30 6 C -1.57 1.2281 2.5967 0
M  V30 7 C -1.9203 -0.8165 -1.9493 0
M  V30 8 C 0.3071 0.234 -1.8548 0
M  V30 9 N 0.9935 -0.935 1.017 0
M  V30 10 C -0.4066 0.4822 2.4391 0
M  V30 11 C -2.42 0.3767 -2.7982 0
M  V30 12 C -0.2563 1.4227 -2.6688 0
M  V30 13 C 2.0677 -1.1998 1.9527 0
M  V30 14 N -1.3517 1.0363 -3.5821 0
M  V30 15 C 2.7446 -2.5149 1.5655 0
M  V30 16 C 3.0793 -0.0573 1.9202 0
M  V30 17 H -3.3531 1.8982 1.5971 0
M  V30 18 H -1.8058 1.7007 3.5431 0
M  V30 19 H -1.6058 -1.6185 -2.6296 0
M  V30 20 H -2.7388 -1.2321 -1.3483 0
M  V30 21 H 0.7661 -0.4853 -2.5448 0
M  V30 22 H 1.1104 0.5916 -1.2003 0
M  V30 23 H 0.9867 -1.4095 0.1154 0
M  V30 24 H 0.2601 0.3775 3.2873 0
M  V30 25 H -3.1846 0.0162 -3.4953 0
M  V30 26 H -2.9061 1.1237 -2.1603 0
M  V30 27 H -0.6103 2.2068 -1.9878 0
M  V30 28 H 0.5528 1.858 -3.2653 0
M  V30 29 H 1.6773 -1.3227 2.9693 0
M  V30 30 H -1.7371 1.8795 -4.0052 0
M  V30 31 H 3.1664 -2.4664 0.5551 0
M  V30 32 H 2.0251 -3.3411 1.5836 0
M  V30 33 H 3.5547 -2.7565 2.2616 0
M  V30 34 H 3.9125 -0.2555 2.6026 0
M  V30 35 H 3.4895 0.0826 0.9136 0
M  V30 36 H 2.6191 0.8896 2.2211 0
M  V30 END ATOM
M  V30 BEGIN BOND
M  V30 1 2 1 2
M  V30 2 1 1 3
M  V30 3 1 2 4
M  V30 4 1 2 5
M  V30 5 2 3 6
M  V30 6 1 4 7
M  V30 7 1 4 8
M  V30 8 1 5 9
M  V30 9 2 5 10
M  V30 10 1 7 11
M  V30 11 1 8 12
M  V30 12 1 9 13
M  V30 13 1 11 14
M  V30 14 1 13 15
M  V30 15 1 13 16
M  V30 16 1 6 10
M  V30 17 1 12 14
M  V30 18 1 3 17
M  V30 19 1 6 18
M  V30 20 1 7 19
M  V30 21 1 7 20
M  V30 22 1 8 21
M  V30 23 1 8 22
M  V30 24 1 9 23
M  V30 25 1 10 24
M  V30 26 1 11 25
M  V30 27 1 11 26
M  V30 28 1 12 27
M  V30 29 1 12 28
M  V30 30 1 13 29
M  V30 31 1 14 30
M  V30 32 1 15 31
M  V30 33 1 15 32
M  V30 34 1 15 33
M  V30 35 1 16 34
M  V30 36 1 16 35
M  V30 37 1 16 36
M  V30 END BOND
M  V30 END CTAB
M  END
>  <NO.>
447

>  <Name>
u 88703

>  <SMILES>
CC(C)Nc1cccnc1N1CCNCC1

>  <logBB>
-0.14

>  <Class>
1

>  <MW>
220.17

>  <nHBAcc>
4

>  <nHBDon>
2

>  <SLogP>
1.31

>  <TopoPSA>
40.19

>  <MMFF94 Energy>
95.447

$$$$
CCC1(CC)C(=O)NC(=O)NC1=O
Actelion Java MolfileCreator 2.0

  0  0  0  0  0  0              0 V3000
M  V30 BEGIN CTAB
M  V30 COUNTS 25 25 0 0 0
M  V30 BEGIN ATOM
M  V30 1 O 3.4497 1.3317 1.3317 0
M  V30 2 C 2.4063 0.8653 0.8879 0
M  V30 3 N 2.1073 -0.4546 1.007 0
M  V30 4 N 1.5141 1.6322 0.2085 0
M  V30 5 C 0.9914 -1.0784 0.525 0
M  V30 6 C 0.3584 1.1972 -0.3756 0
M  V30 7 O 0.9085 -2.3046 0.571 0
M  V30 8 C -0.1396 -0.1799 0.0399 0
M  V30 9 O -0.25 1.9345 -1.1487 0
M  V30 10 C -0.8959 -0.861 -1.1265 0
M  V30 11 C -1.0625 0.0046 1.2834 0
M  V30 12 C -0.0253 -1.1656 -2.3447 0
M  V30 13 C -2.3824 0.7269 1.0356 0
M  V30 14 H 2.8154 -1.0429 1.4241 0
M  V30 15 H 1.7897 2.5865 0.0222 0
M  V30 16 H -1.7217 -0.2258 -1.469 0
M  V30 17 H -1.3465 -1.8005 -0.7817 0
M  V30 18 H -1.2957 -0.9784 1.7147 0
M  V30 19 H -0.5212 0.5522 2.0671 0
M  V30 20 H 0.7815 -1.8633 -2.1032 0
M  V30 21 H 0.4191 -0.256 -2.7593 0
M  V30 22 H -0.6348 -1.6251 -3.1299 0
M  V30 23 H -3.0302 0.1626 0.3589 0
M  V30 24 H -2.2269 1.7267 0.6216 0
M  V30 25 H -2.9228 0.8423 1.9813 0
M  V30 END ATOM
M  V30 BEGIN BOND
M  V30 1 2 1 2
M  V30 2 1 2 3
M  V30 3 1 2 4
M  V30 4 1 3 5
M  V30 5 1 4 6
M  V30 6 2 5 7
M  V30 7 1 5 8
M  V30 8 2 6 9
M  V30 9 1 8 10
M  V30 10 1 8 11
M  V30 11 1 10 12
M  V30 12 1 11 13
M  V30 13 1 6 8
M  V30 14 1 3 14
M  V30 15 1 4 15
M  V30 16 1 10 16
M  V30 17 1 10 17
M  V30 18 1 11 18
M  V30 19 1 11 19
M  V30 20 1 12 20
M  V30 21 1 12 21
M  V30 22 1 12 22
M  V30 23 1 13 23
M  V30 24 1 13 24
M  V30 25 1 13 25
M  V30 END BOND
M  V30 END CTAB
M  END
>  <NO.>
448

>  <Name>
barbital

>  <SMILES>
CCC1(CC)C(=O)NC(=O)NC1=O

>  <logBB>
-0.14

>  <Class>
1

>  <MW>
184.08

>  <nHBAcc>
3

>  <nHBDon>
2

>  <SLogP>
0.16

>  <TopoPSA>
75.27

>  <MMFF94 Energy>
-128.16

$$$$
CCOC(=O)c1ncn2c1CN(CCF)C(=O)c1cc(F)ccc1-2
Actelion Java MolfileCreator 2.0

  0  0  0  0  0  0              0 V3000
M  V30 BEGIN CTAB
M  V30 COUNTS 39 41 0 0 0
M  V30 BEGIN ATOM
M  V30 1 F 5.8854 -2.1737 -0.4022 0
M  V30 2 C 4.7732 -1.6098 0.0848 0
M  V30 3 C 3.8316 -1.0847 -0.7913 0
M  V30 4 C 4.5787 -1.5618 1.4585 0
M  V30 5 C 2.6538 -0.4993 -0.2982 0
M  V30 6 C 3.4236 -0.9715 1.9714 0
M  V30 7 C 1.7334 0.0696 -1.3286 0
M  V30 8 C 2.4612 -0.4328 1.0973 0
M  V30 9 O 2.2285 0.5442 -2.3488 0
M  V30 10 N 0.3603 0.03 -1.1273 0
M  V30 11 N 1.3077 0.1611 1.6612 0
M  V30 12 C -0.2605 -0.7064 -0.0445 0
M  V30 13 C -0.5145 0.702 -2.0902 0
M  V30 14 C 0.0172 0.0558 1.1861 0
M  V30 15 C 1.2483 0.916 2.804 0
M  V30 16 C -0.8928 -0.1864 -3.2666 0
M  V30 17 C -0.7753 0.7829 2.0683 0
M  V30 18 N 0.0224 1.2875 3.0844 0
M  V30 19 F -1.8504 0.4388 -4.0039 0
M  V30 20 C -2.2216 1.0427 2.0233 0
M  V30 21 O -2.8376 1.6246 2.9093 0
M  V30 22 O -2.8102 0.5725 0.8827 0
M  V30 23 C -4.2144 0.8399 0.7881 0
M  V30 24 C -4.7068 0.2901 -0.5365 0
M  V30 25 H 4.0274 -1.1312 -1.8603 0
M  V30 26 H 5.3296 -1.9836 2.1207 0
M  V30 27 H 3.2879 -0.9565 3.0516 0
M  V30 28 H 0.186 -1.7068 0.0089 0
M  V30 29 H -1.3219 -0.8553 -0.2495 0
M  V30 30 H -0.0128 1.5986 -2.4734 0
M  V30 31 H -1.4128 1.0569 -1.5729 0
M  V30 32 H 2.1232 1.175 3.3863 0
M  V30 33 H -0.0346 -0.3876 -3.9143 0
M  V30 34 H -1.3048 -1.1423 -2.9292 0
M  V30 35 H -4.3909 1.9207 0.828 0
M  V30 36 H -4.7409 0.3466 1.6127 0
M  V30 37 H -5.7791 0.4668 -0.6583 0
M  V30 38 H -4.1739 0.7591 -1.3704 0
M  V30 39 H -4.5152 -0.7859 -0.6022 0
M  V30 END ATOM
M  V30 BEGIN BOND
M  V30 1 1 1 2
M  V30 2 2 2 3
M  V30 3 1 2 4
M  V30 4 1 3 5
M  V30 5 2 4 6
M  V30 6 1 5 7
M  V30 7 2 5 8
M  V30 8 2 7 9
M  V30 9 1 7 10
M  V30 10 1 8 11
M  V30 11 1 10 12
M  V30 12 1 10 13
M  V30 13 1 11 14
M  V30 14 1 11 15
M  V30 15 1 13 16
M  V30 16 2 14 17
M  V30 17 2 15 18
M  V30 18 1 16 19
M  V30 19 1 17 20
M  V30 20 2 20 21
M  V30 21 1 20 22
M  V30 22 1 22 23
M  V30 23 1 23 24
M  V30 24 1 6 8
M  V30 25 1 12 14
M  V30 26 1 17 18
M  V30 27 1 3 25
M  V30 28 1 4 26
M  V30 29 1 6 27
M  V30 30 1 12 28
M  V30 31 1 12 29
M  V30 32 1 13 30
M  V30 33 1 13 31
M  V30 34 1 15 32
M  V30 35 1 16 33
M  V30 36 1 16 34
M  V30 37 1 23 35
M  V30 38 1 23 36
M  V30 39 1 24 37
M  V30 40 1 24 38
M  V30 41 1 24 39
M  V30 END BOND
M  V30 END CTAB
M  END
>  <NO.>
449

>  <Name>
fluoroethylflumazenil f-18

>  <SMILES>
CCOC(=O)c1ncn2c1CN(CCF)C(=O)c1cc(F)ccc1-2

>  <logBB>
-0.14

>  <Class>
1

>  <MW>
335.11

>  <nHBAcc>
4

>  <nHBDon>
0

>  <SLogP>
2.11

>  <TopoPSA>
64.43

>  <MMFF94 Energy>
46.99

$$$$
ClCCCl
Actelion Java MolfileCreator 2.0

  0  0  0  0  0  0              0 V3000
M  V30 BEGIN CTAB
M  V30 COUNTS 8 7 0 0 0
M  V30 BEGIN ATOM
M  V30 1 Cl -0.5069 -1.4367 -1.4367 0
M  V30 2 C -0.0926 0.1594 -0.7626 0
M  V30 3 C -0.0511 0.1463 0.7572 0
M  V30 4 Cl 1.3283 -0.791 1.3829 0
M  V30 5 H 0.8657 0.4701 -1.19 0
M  V30 6 H -0.8612 0.8575 -1.1076 0
M  V30 7 H 0.0625 1.1668 1.135 0
M  V30 8 H -0.968 -0.2736 1.1826 0
M  V30 END ATOM
M  V30 BEGIN BOND
M  V30 1 1 1 2
M  V30 2 1 2 3
M  V30 3 1 3 4
M  V30 4 1 2 5
M  V30 5 1 2 6
M  V30 6 1 3 7
M  V30 7 1 3 8
M  V30 END BOND
M  V30 END CTAB
M  END
>  <NO.>
450

>  <Name>
1,2-dichloroethane

>  <SMILES>
ClCCCl

>  <logBB>
-0.14

>  <Class>
1

>  <MW>
97.97

>  <nHBAcc>
0

>  <nHBDon>
0

>  <SLogP>
1.46

>  <TopoPSA>
0

>  <MMFF94 Energy>
6.2512

$$$$
N#Cc1ccsc1C1=Nc2ccc(Cl)cc2NC(=O)C1
Actelion Java MolfileCreator 2.0

  0  0  0  0  0  0              0 V3000
M  V30 BEGIN CTAB
M  V30 COUNTS 28 30 0 0 0
M  V30 BEGIN ATOM
M  V30 1 Cl -3.4319 -4.6058 -1.3382 0
M  V30 2 C -2.315 -3.3365 -1.0218 0
M  V30 3 C -2.7766 -2.0293 -0.8773 0
M  V30 4 C -0.959 -3.6205 -0.9132 0
M  V30 5 C -1.8755 -0.9905 -0.6062 0
M  V30 6 C -0.0573 -2.584 -0.6653 0
M  V30 7 N -2.4277 0.2969 -0.4705 0
M  V30 8 C -0.4929 -1.2608 -0.5053 0
M  V30 9 C -1.99 1.2907 0.3595 0
M  V30 10 N 0.5232 -0.3013 -0.3599 0
M  V30 11 O -2.5737 2.3723 0.3965 0
M  V30 12 C -0.8201 0.9851 1.2445 0
M  V30 13 C 0.4087 0.7322 0.4151 0
M  V30 14 C 1.5387 1.6532 0.4538 0
M  V30 15 S 1.2891 3.3308 0.7265 0
M  V30 16 C 2.8824 1.3816 0.2428 0
M  V30 17 C 2.9512 3.6847 0.5795 0
M  V30 18 C 3.4186 0.0711 6.0E-4 0
M  V30 19 C 3.6941 2.5563 0.3209 0
M  V30 20 N 3.8949 -0.9738 -0.1686 0
M  V30 21 H -3.8413 -1.8274 -0.9622 0
M  V30 22 H -0.5919 -4.6363 -1.0337 0
M  V30 23 H 1.0083 -2.803 -0.6121 0
M  V30 24 H -3.2733 0.5214 -0.9822 0
M  V30 25 H -0.6809 1.8041 1.9549 0
M  V30 26 H -1.0419 0.0981 1.8497 0
M  V30 27 H 3.3046 4.702 0.6864 0
M  V30 28 H 4.7707 2.5722 0.193 0
M  V30 END ATOM
M  V30 BEGIN BOND
M  V30 1 1 1 2
M  V30 2 2 2 3
M  V30 3 1 2 4
M  V30 4 1 3 5
M  V30 5 2 4 6
M  V30 6 1 5 7
M  V30 7 2 5 8
M  V30 8 1 7 9
M  V30 9 1 8 10
M  V30 10 2 9 11
M  V30 11 1 9 12
M  V30 12 2 10 13
M  V30 13 1 13 14
M  V30 14 1 14 15
M  V30 15 2 14 16
M  V30 16 1 15 17
M  V30 17 1 16 18
M  V30 18 1 16 19
M  V30 19 3 18 20
M  V30 20 1 6 8
M  V30 21 1 12 13
M  V30 22 2 17 19
M  V30 23 1 3 21
M  V30 24 1 4 22
M  V30 25 1 6 23
M  V30 26 1 7 24
M  V30 27 1 12 25
M  V30 28 1 12 26
M  V30 29 1 17 27
M  V30 30 1 19 28
M  V30 END BOND
M  V30 END CTAB
M  END
>  <NO.>
451

>  <Name>


>  <SMILES>
N#Cc1ccsc1C1=Nc2ccc(Cl)cc2NC(=O)C1

>  <logBB>
-0.14

>  <Class>
1

>  <MW>
301.01

>  <nHBAcc>
4

>  <nHBDon>
1

>  <SLogP>
3.74

>  <TopoPSA>
65.25

>  <MMFF94 Energy>
20.648

$$$$
O=c1cc(NC2CCN(Cc3ccc4c(c3)CCO4)CC2)c2cc(Cl)ccc2o1
Actelion Java MolfileCreator 2.0

  0  0  0  0  0  0              0 V3000
M  V30 BEGIN CTAB
M  V30 COUNTS 52 56 0 0 0
M  V30 BEGIN ATOM
M  V30 1 Cl -2.5126 0.5669 6.0872 0
M  V30 2 C -1.0019 -0.2465 5.9434 0
M  V30 3 C -0.47 -0.4953 4.6725 0
M  V30 4 C -0.3277 -0.6513 7.0922 0
M  V30 5 C 0.7628 -1.1512 4.5245 0
M  V30 6 C 0.8844 -1.3216 6.9687 0
M  V30 7 C 1.3961 -1.4419 3.2164 0
M  V30 8 C 1.4061 -1.5663 5.6952 0
M  V30 9 N 0.8043 -0.9484 2.0648 0
M  V30 10 C 2.5275 -2.1616 3.2369 0
M  V30 11 O 2.6158 -2.2811 5.6612 0
M  V30 12 C 1.1892 -1.1864 0.6757 0
M  V30 13 C 3.1882 -2.6377 4.4574 0
M  V30 14 C -0.0543 -1.108 -0.2139 0
M  V30 15 C 2.2262 -0.153 0.2344 0
M  V30 16 O 4.215 -3.3044 4.3932 0
M  V30 17 C 0.3308 -1.216 -1.6891 0
M  V30 18 C 2.5285 -0.2947 -1.2572 0
M  V30 19 N 1.3382 -0.234 -2.1156 0
M  V30 20 C 0.8151 1.1379 -2.2331 0
M  V30 21 C -0.2128 1.299 -3.3362 0
M  V30 22 C -1.5019 1.7763 -3.0425 0
M  V30 23 C 0.1239 0.9769 -4.6716 0
M  V30 24 C -2.4056 1.9232 -4.0811 0
M  V30 25 C -0.8052 1.1209 -5.7049 0
M  V30 26 C -2.0561 1.6007 -5.3827 0
M  V30 27 C -3.8259 2.3362 -4.048 0
M  V30 28 O -3.0696 1.7864 -6.2871 0
M  V30 29 C -4.0497 2.5503 -5.5458 0
M  V30 30 H -1.0482 -0.1804 3.8104 0
M  V30 31 H -0.7437 -0.458 8.0773 0
M  V30 32 H 1.4179 -1.659 7.8535 0
M  V30 33 H 0.1152 -0.2152 2.1916 0
M  V30 34 H 3.0572 -2.4227 2.3302 0
M  V30 35 H 1.6083 -2.1954 0.5711 0
M  V30 36 H -0.6017 -0.1741 -0.0331 0
M  V30 37 H -0.7452 -1.9204 0.0438 0
M  V30 38 H 1.8721 0.8622 0.4548 0
M  V30 39 H 3.154 -0.2817 0.8047 0
M  V30 40 H 0.7358 -2.2198 -1.8746 0
M  V30 41 H -0.5699 -1.1577 -2.3104 0
M  V30 42 H 3.0273 -1.2578 -1.4282 0
M  V30 43 H 3.2584 0.4655 -1.5616 0
M  V30 44 H 0.4029 1.4939 -1.2814 0
M  V30 45 H 1.6355 1.825 -2.4811 0
M  V30 46 H -1.7919 2.0175 -2.0246 0
M  V30 47 H 1.1188 0.5976 -4.8982 0
M  V30 48 H -0.5522 0.8652 -6.7273 0
M  V30 49 H -4.4491 1.5201 -3.6682 0
M  V30 50 H -4.0097 3.248 -3.474 0
M  V30 51 H -5.0552 2.2418 -5.8505 0
M  V30 52 H -3.9241 3.6066 -5.8166 0
M  V30 END ATOM
M  V30 BEGIN BOND
M  V30 1 1 1 2
M  V30 2 2 2 3
M  V30 3 1 2 4
M  V30 4 1 3 5
M  V30 5 2 4 6
M  V30 6 1 5 7
M  V30 7 2 5 8
M  V30 8 1 7 9
M  V30 9 2 7 10
M  V30 10 1 8 11
M  V30 11 1 9 12
M  V30 12 1 10 13
M  V30 13 1 12 14
M  V30 14 1 12 15
M  V30 15 2 13 16
M  V30 16 1 14 17
M  V30 17 1 15 18
M  V30 18 1 17 19
M  V30 19 1 19 20
M  V30 20 1 20 21
M  V30 21 2 21 22
M  V30 22 1 21 23
M  V30 23 1 22 24
M  V30 24 2 23 25
M  V30 25 2 24 26
M  V30 26 1 24 27
M  V30 27 1 26 28
M  V30 28 1 27 29
M  V30 29 1 6 8
M  V30 30 1 11 13
M  V30 31 1 18 19
M  V30 32 1 25 26
M  V30 33 1 28 29
M  V30 34 1 3 30
M  V30 35 1 4 31
M  V30 36 1 6 32
M  V30 37 1 9 33
M  V30 38 1 10 34
M  V30 39 1 12 35
M  V30 40 1 14 36
M  V30 41 1 14 37
M  V30 42 1 15 38
M  V30 43 1 15 39
M  V30 44 1 17 40
M  V30 45 1 17 41
M  V30 46 1 18 42
M  V30 47 1 18 43
M  V30 48 1 20 44
M  V30 49 1 20 45
M  V30 50 1 22 46
M  V30 51 1 23 47
M  V30 52 1 25 48
M  V30 53 1 27 49
M  V30 54 1 27 50
M  V30 55 1 29 51
M  V30 56 1 29 52
M  V30 END BOND
M  V30 END CTAB
M  END
>  <NO.>
452

>  <Name>
mchr antagonist 8

>  <SMILES>
O=c1cc(NC2CCN(Cc3ccc4c(c3)CCO4)CC2)c2cc(Cl)ccc2o1

>  <logBB>
-0.14

>  <Class>
1

>  <MW>
410.14

>  <nHBAcc>
5

>  <nHBDon>
1

>  <SLogP>
4.46

>  <TopoPSA>
54.71

>  <MMFF94 Energy>
56.138

$$$$
COC(C)=O
Actelion Java MolfileCreator 2.0

  0  0  0  0  0  0              0 V3000
M  V30 BEGIN CTAB
M  V30 COUNTS 11 10 0 0 0
M  V30 BEGIN ATOM
M  V30 1 O -0.8302 -0.7547 1.2078 0
M  V30 2 C 0.0734 -0.376 0.4764 0
M  V30 3 O -0.0655 0.4708 -0.5802 0
M  V30 4 C 1.5075 -0.7848 0.6203 0
M  V30 5 C -1.4062 0.9143 -0.7939 0
M  V30 6 H 1.8365 -1.3065 -0.2818 0
M  V30 7 H 2.1275 0.0962 0.8039 0
M  V30 8 H 1.6068 -1.4643 1.4716 0
M  V30 9 H -1.4078 1.584 -1.6584 0
M  V30 10 H -2.061 0.0649 -1.0125 0
M  V30 11 H -1.7693 1.471 0.0758 0
M  V30 END ATOM
M  V30 BEGIN BOND
M  V30 1 2 1 2
M  V30 2 1 2 3
M  V30 3 1 2 4
M  V30 4 1 3 5
M  V30 5 1 4 6
M  V30 6 1 4 7
M  V30 7 1 4 8
M  V30 8 1 5 9
M  V30 9 1 5 10
M  V30 10 1 5 11
M  V30 END BOND
M  V30 END CTAB
M  END
>  <NO.>
453

>  <Name>
methyl acetate

>  <SMILES>
COC(C)=O

>  <logBB>
-0.13

>  <Class>
1

>  <MW>
74.04

>  <nHBAcc>
2

>  <nHBDon>
0

>  <SLogP>
0.18

>  <TopoPSA>
26.3

>  <MMFF94 Energy>
-8.8492

$$$$
C=CCn1c2c(c3cc(C(=O)N4CCC(C)CC4)ccc31)CN(CC1CC1)CC2
Actelion Java MolfileCreator 2.0

  0  0  0  0  0  0              0 V3000
M  V30 BEGIN CTAB
M  V30 COUNTS 62 66 0 0 0
M  V30 BEGIN ATOM
M  V30 1 O -2.7873 3.4252 0.4774 0
M  V30 2 C -2.4627 2.3677 -0.0576 0
M  V30 3 N -2.7043 2.0703 -1.3972 0
M  V30 4 C -1.7744 1.3671 0.7835 0
M  V30 5 C -2.5281 0.7576 -2.021 0
M  V30 6 C -3.2177 3.1215 -2.2699 0
M  V30 7 C -0.4624 0.9805 0.4757 0
M  V30 8 C -2.4331 0.8644 1.904 0
M  V30 9 C -3.8217 0.2927 -2.6921 0
M  V30 10 C -4.5267 2.698 -2.9325 0
M  V30 11 C 0.1801 0.0305 1.2944 0
M  V30 12 C -1.8099 -0.0745 2.7298 0
M  V30 13 C -4.4128 1.3418 -3.6463 0
M  V30 14 C -0.5033 -0.4821 2.4062 0
M  V30 15 C 1.4627 -0.5852 1.2637 0
M  V30 16 C -3.6078 1.4461 -4.9437 0
M  V30 17 N 0.3487 -1.3787 3.0338 0
M  V30 18 C 1.5216 -1.4564 2.3313 0
M  V30 19 C 2.5814 -0.4118 0.2805 0
M  V30 20 C 0.0506 -2.093 4.272 0
M  V30 21 C 2.717 -2.2851 2.6473 0
M  V30 22 N 3.8556 -0.9305 0.8444 0
M  V30 23 C -0.6943 -3.3715 4.0135 0
M  V30 24 C 3.6721 -2.2838 1.4269 0
M  V30 25 C 4.9076 -0.9634 -0.1782 0
M  V30 26 C -1.8691 -3.6929 4.572 0
M  V30 27 C 5.3087 0.4257 -0.5793 0
M  V30 28 C 6.2099 0.6278 -1.7724 0
M  V30 29 C 4.7742 1.0648 -1.8382 0
M  V30 30 H -1.7167 0.8466 -2.7514 0
M  V30 31 H -2.2324 4.0E-4 -1.2918 0
M  V30 32 H -3.3734 4.0541 -1.718 0
M  V30 33 H -2.448 3.3244 -3.0229 0
M  V30 34 H 0.0503 1.4096 -0.3792 0
M  V30 35 H -3.4386 1.2065 2.1392 0
M  V30 36 H -3.6469 -0.6515 -3.2205 0
M  V30 37 H -4.5628 0.083 -1.9093 0
M  V30 38 H -4.8573 3.4735 -3.6331 0
M  V30 39 H -5.3017 2.6192 -2.1587 0
M  V30 40 H -2.3299 -0.4699 3.5965 0
M  V30 41 H -5.4247 1.018 -3.9227 0
M  V30 42 H -3.5831 0.4795 -5.4581 0
M  V30 43 H -2.5739 1.758 -4.771 0
M  V30 44 H -4.0672 2.1717 -5.6234 0
M  V30 45 H 2.6816 0.6554 0.055 0
M  V30 46 H 2.3173 -0.9398 -0.6447 0
M  V30 47 H -0.5055 -1.4107 4.9243 0
M  V30 48 H 1.0002 -2.311 4.7721 0
M  V30 49 H 2.4333 -3.315 2.8881 0
M  V30 50 H 3.2317 -1.8585 3.5165 0
M  V30 51 H -0.2319 -4.0715 3.3208 0
M  V30 52 H 3.2903 -2.9722 0.6601 0
M  V30 53 H 4.6358 -2.684 1.766 0
M  V30 54 H 4.603 -1.5613 -1.047 0
M  V30 55 H 5.8046 -1.4393 0.2376 0
M  V30 56 H -2.3749 -3.03 5.2676 0
M  V30 57 H -2.3553 -4.6352 4.3367 0
M  V30 58 H 5.4937 1.0599 0.2819 0
M  V30 59 H 6.5044 -0.2366 -2.356 0
M  V30 60 H 6.9719 1.3964 -1.705 0
M  V30 61 H 4.1 0.4957 -2.4674 0
M  V30 62 H 4.5631 2.128 -1.8103 0
M  V30 END ATOM
M  V30 BEGIN BOND
M  V30 1 2 1 2
M  V30 2 1 2 3
M  V30 3 1 2 4
M  V30 4 1 3 5
M  V30 5 1 3 6
M  V30 6 2 4 7
M  V30 7 1 4 8
M  V30 8 1 5 9
M  V30 9 1 6 10
M  V30 10 1 7 11
M  V30 11 2 8 12
M  V30 12 1 9 13
M  V30 13 2 11 14
M  V30 14 1 11 15
M  V30 15 1 13 16
M  V30 16 1 14 17
M  V30 17 2 15 18
M  V30 18 1 15 19
M  V30 19 1 17 20
M  V30 20 1 18 21
M  V30 21 1 19 22
M  V30 22 1 20 23
M  V30 23 1 21 24
M  V30 24 1 22 25
M  V30 25 2 23 26
M  V30 26 1 25 27
M  V30 27 1 27 28
M  V30 28 1 27 29
M  V30 29 1 10 13
M  V30 30 1 12 14
M  V30 31 1 17 18
M  V30 32 1 22 24
M  V30 33 1 28 29
M  V30 34 1 5 30
M  V30 35 1 5 31
M  V30 36 1 6 32
M  V30 37 1 6 33
M  V30 38 1 7 34
M  V30 39 1 8 35
M  V30 40 1 9 36
M  V30 41 1 9 37
M  V30 42 1 10 38
M  V30 43 1 10 39
M  V30 44 1 12 40
M  V30 45 1 13 41
M  V30 46 1 16 42
M  V30 47 1 16 43
M  V30 48 1 16 44
M  V30 49 1 19 45
M  V30 50 1 19 46
M  V30 51 1 20 47
M  V30 52 1 20 48
M  V30 53 1 21 49
M  V30 54 1 21 50
M  V30 55 1 23 51
M  V30 56 1 24 52
M  V30 57 1 24 53
M  V30 58 1 25 54
M  V30 59 1 25 55
M  V30 60 1 26 56
M  V30 61 1 26 57
M  V30 62 1 27 58
M  V30 63 1 28 59
M  V30 64 1 28 60
M  V30 65 1 29 61
M  V30 66 1 29 62
M  V30 END BOND
M  V30 END CTAB
M  END
>  <NO.>
454

>  <Name>
chembl1950330

>  <SMILES>
C=CCn1c2c(c3cc(C(=O)N4CCC(C)CC4)ccc31)CN(CC1CC1)CC2

>  <logBB>
-0.13

>  <Class>
1

>  <MW>
391.26

>  <nHBAcc>
2

>  <nHBDon>
0

>  <SLogP>
4.47

>  <TopoPSA>
28.48

>  <MMFF94 Energy>
87.751

$$$$
CC(C)NCCCOc1cccc(CN2CCCCC2)c1
Actelion Java MolfileCreator 2.0

  0  0  0  0  0  0              0 V3000
M  V30 BEGIN CTAB
M  V30 COUNTS 51 52 0 0 0
M  V30 BEGIN ATOM
M  V30 1 O -2.3475 -0.6255 0.782 0
M  V30 2 C -2.1674 -0.8753 -0.5507 0
M  V30 3 C -1.1807 -0.3182 1.5455 0
M  V30 4 C -0.9432 -0.9274 -1.2189 0
M  V30 5 C -3.3454 -1.0961 -1.267 0
M  V30 6 C -1.619 -0.0316 2.9795 0
M  V30 7 C -0.8886 -1.1869 -2.6008 0
M  V30 8 C -3.3065 -1.36 -2.6359 0
M  V30 9 C -0.4188 0.2826 3.8704 0
M  V30 10 C -2.0825 -1.4063 -3.3011 0
M  V30 11 C 0.4462 -1.2565 -3.3159 0
M  V30 12 N -0.8772 0.5721 5.2276 0
M  V30 13 N 1.2785 -0.0573 -3.1201 0
M  V30 14 C 0.2051 0.9588 6.1383 0
M  V30 15 C 0.7204 1.1487 -3.7532 0
M  V30 16 C 2.6639 -0.278 -3.5596 0
M  V30 17 C -0.4323 1.5723 7.3866 0
M  V30 18 C 1.0858 -0.2267 6.5366 0
M  V30 19 C 0.8217 1.1599 -5.2808 0
M  V30 20 C 2.8374 -0.3269 -5.0796 0
M  V30 21 C 2.2542 0.9161 -5.7426 0
M  V30 22 H -0.682 0.5671 1.133 0
M  V30 23 H -0.4945 -1.1735 1.5388 0
M  V30 24 H -0.0055 -0.7613 -0.6975 0
M  V30 25 H -4.3021 -1.0588 -0.7521 0
M  V30 26 H -2.3294 0.8053 2.9797 0
M  V30 27 H -2.172 -0.8964 3.3685 0
M  V30 28 H -4.2311 -1.5284 -3.1812 0
M  V30 29 H 0.1157 1.1489 3.4635 0
M  V30 30 H 0.265 -0.5726 3.8646 0
M  V30 31 H -2.0664 -1.6126 -4.3685 0
M  V30 32 H 0.2918 -1.4704 -4.3799 0
M  V30 33 H 0.9627 -2.1338 -2.9034 0
M  V30 34 H -1.3855 -0.2273 5.6053 0
M  V30 35 H 0.8278 1.7314 5.6707 0
M  V30 36 H 1.2634 2.0186 -3.3599 0
M  V30 37 H -0.3215 1.3079 -3.4528 0
M  V30 38 H 3.0642 -1.1956 -3.1114 0
M  V30 39 H 3.2848 0.5339 -3.1584 0
M  V30 40 H -1.0662 0.85 7.9137 0
M  V30 41 H -1.0504 2.4391 7.1263 0
M  V30 42 H 0.3383 1.9152 8.0855 0
M  V30 43 H 1.6256 -0.6347 5.6767 0
M  V30 44 H 0.4939 -1.0346 6.9813 0
M  V30 45 H 1.8355 0.0815 7.2735 0
M  V30 46 H 0.475 2.1268 -5.6634 0
M  V30 47 H 0.1605 0.3982 -5.71 0
M  V30 48 H 2.3541 -1.2229 -5.4864 0
M  V30 49 H 3.9027 -0.406 -5.3245 0
M  V30 50 H 2.2854 0.8112 -6.8325 0
M  V30 51 H 2.8708 1.7866 -5.4867 0
M  V30 END ATOM
M  V30 BEGIN BOND
M  V30 1 1 1 2
M  V30 2 1 1 3
M  V30 3 2 2 4
M  V30 4 1 2 5
M  V30 5 1 3 6
M  V30 6 1 4 7
M  V30 7 2 5 8
M  V30 8 1 6 9
M  V30 9 2 7 10
M  V30 10 1 7 11
M  V30 11 1 9 12
M  V30 12 1 11 13
M  V30 13 1 12 14
M  V30 14 1 13 15
M  V30 15 1 13 16
M  V30 16 1 14 17
M  V30 17 1 14 18
M  V30 18 1 15 19
M  V30 19 1 16 20
M  V30 20 1 19 21
M  V30 21 1 8 10
M  V30 22 1 20 21
M  V30 23 1 3 22
M  V30 24 1 3 23
M  V30 25 1 4 24
M  V30 26 1 5 25
M  V30 27 1 6 26
M  V30 28 1 6 27
M  V30 29 1 8 28
M  V30 30 1 9 29
M  V30 31 1 9 30
M  V30 32 1 10 31
M  V30 33 1 11 32
M  V30 34 1 11 33
M  V30 35 1 12 34
M  V30 36 1 14 35
M  V30 37 1 15 36
M  V30 38 1 15 37
M  V30 39 1 16 38
M  V30 40 1 16 39
M  V30 41 1 17 40
M  V30 42 1 17 41
M  V30 43 1 17 42
M  V30 44 1 18 43
M  V30 45 1 18 44
M  V30 46 1 18 45
M  V30 47 1 19 46
M  V30 48 1 19 47
M  V30 49 1 20 48
M  V30 50 1 20 49
M  V30 51 1 21 50
M  V30 52 1 21 51
M  V30 END BOND
M  V30 END CTAB
M  END
>  <NO.>
455

>  <Name>


>  <SMILES>
CC(C)NCCCOc1cccc(CN2CCCCC2)c1

>  <logBB>
-0.13

>  <Class>
1

>  <MW>
290.24

>  <nHBAcc>
3

>  <nHBDon>
1

>  <SLogP>
3.44

>  <TopoPSA>
24.5

>  <MMFF94 Energy>
19.47

$$$$
Cl/C=C\Cl
Actelion Java MolfileCreator 2.0

  0  0  0  0  0  0              0 V3000
M  V30 BEGIN CTAB
M  V30 COUNTS 6 5 0 0 0
M  V30 BEGIN ATOM
M  V30 1 Cl -1.1252 -1.6448 -0.3461 0
M  V30 2 C -0.5924 -0.1285 0.2453 0
M  V30 3 C 0.5638 0.4584 -0.0575 0
M  V30 4 Cl 1.7612 -0.1795 -1.1023 0
M  V30 5 H -1.3182 0.3173 0.9134 0
M  V30 6 H 0.8551 1.4205 0.3439 0
M  V30 END ATOM
M  V30 BEGIN BOND
M  V30 1 1 1 2
M  V30 2 2 2 3
M  V30 3 1 3 4
M  V30 4 1 2 5
M  V30 5 1 3 6
M  V30 END BOND
M  V30 END CTAB
M  END
>  <NO.>
456

>  <Name>
cis-1,2-dichloroethylene

>  <SMILES>
Cl/C=C\Cl

>  <logBB>
-0.13

>  <Class>
1

>  <MW>
95.95

>  <nHBAcc>
0

>  <nHBDon>
0

>  <SLogP>
1.94

>  <TopoPSA>
0

>  <MMFF94 Energy>
3.1872

$$$$
CCC1(c2ccccc2)C(=O)NC(=O)NC1=O
Actelion Java MolfileCreator 2.0

  0  0  0  0  0  0              0 V3000
M  V30 BEGIN CTAB
M  V30 COUNTS 29 30 0 0 0
M  V30 BEGIN ATOM
M  V30 1 O 3.5058 -1.0348 2.3096 0
M  V30 2 C 2.3556 -0.9369 1.8966 0
M  V30 3 N 1.8632 -1.7787 0.9514 0
M  V30 4 N 1.4819 -0.039 2.4188 0
M  V30 5 C 0.5809 -1.7871 0.4699 0
M  V30 6 C 0.1626 0.0801 2.0767 0
M  V30 7 O 0.1937 -2.7643 -0.1688 0
M  V30 8 C -0.2528 -0.5166 0.7129 0
M  V30 9 O -0.6006 0.688 2.8276 0
M  V30 10 C -0.0163 0.5529 -0.3834 0
M  V30 11 C -1.7661 -0.8854 0.79 0
M  V30 12 C 0.618 0.2512 -1.6026 0
M  V30 13 C -0.4778 1.8718 -0.1966 0
M  V30 14 C -2.4539 -1.2336 -0.5294 0
M  V30 15 C 0.8119 1.2351 -2.5766 0
M  V30 16 C -0.282 2.8526 -1.1716 0
M  V30 17 C 0.3672 2.5353 -2.3593 0
M  V30 18 H 2.4626 -2.5438 0.6757 0
M  V30 19 H 1.797 0.4787 3.2272 0
M  V30 20 H -2.3362 -0.0577 1.2324 0
M  V30 21 H -1.8919 -1.7325 1.478 0
M  V30 22 H 0.9602 -0.7548 -1.8365 0
M  V30 23 H -1.0078 2.1566 0.7121 0
M  V30 24 H -2.4871 -0.3744 -1.2057 0
M  V30 25 H -3.4901 -1.5308 -0.3345 0
M  V30 26 H -1.9687 -2.0627 -1.0485 0
M  V30 27 H 1.3041 0.981 -3.5125 0
M  V30 28 H -0.6443 3.864 -1.0035 0
M  V30 29 H 0.516 3.2972 -3.12 0
M  V30 END ATOM
M  V30 BEGIN BOND
M  V30 1 2 1 2
M  V30 2 1 2 3
M  V30 3 1 2 4
M  V30 4 1 3 5
M  V30 5 1 4 6
M  V30 6 2 5 7
M  V30 7 1 5 8
M  V30 8 2 6 9
M  V30 9 1 8 10
M  V30 10 1 8 11
M  V30 11 2 10 12
M  V30 12 1 10 13
M  V30 13 1 11 14
M  V30 14 1 12 15
M  V30 15 2 13 16
M  V30 16 2 15 17
M  V30 17 1 6 8
M  V30 18 1 16 17
M  V30 19 1 3 18
M  V30 20 1 4 19
M  V30 21 1 11 20
M  V30 22 1 11 21
M  V30 23 1 12 22
M  V30 24 1 13 23
M  V30 25 1 14 24
M  V30 26 1 14 25
M  V30 27 1 14 26
M  V30 28 1 15 27
M  V30 29 1 16 28
M  V30 30 1 17 29
M  V30 END BOND
M  V30 END CTAB
M  END
>  <NO.>
457

>  <Name>
phenobarbital

>  <SMILES>
CCC1(c2ccccc2)C(=O)NC(=O)NC1=O

>  <logBB>
-0.12

>  <Class>
1

>  <MW>
232.08

>  <nHBAcc>
3

>  <nHBDon>
2

>  <SLogP>
0.7

>  <TopoPSA>
75.27

>  <MMFF94 Energy>
-74.424

$$$$
CC(C)(c1ccc(O)cc1)c1ccc(O)cc1
Actelion Java MolfileCreator 2.0

  0  0  0  0  0  0              0 V3000
M  V30 BEGIN CTAB
M  V30 COUNTS 33 34 0 0 0
M  V30 BEGIN ATOM
M  V30 1 O 4.1093 -0.9471 2.9226 0
M  V30 2 C 3.1558 -0.8441 1.9539 0
M  V30 3 C 3.4834 -0.5132 0.6453 0
M  V30 4 C 1.838 -1.0811 2.3127 0
M  V30 5 C 2.4738 -0.4176 -0.3197 0
M  V30 6 C 0.8316 -0.986 1.3491 0
M  V30 7 C 1.1265 -0.6489 0.0109 0
M  V30 8 C -0.0209 -0.5648 -1.0255 0
M  V30 9 C -1.1419 0.3867 -0.5395 0
M  V30 10 C -0.5 -2.0213 -1.2628 0
M  V30 11 C 0.4298 -0.0331 -2.4117 0
M  V30 12 C -2.4938 0.0046 -0.4737 0
M  V30 13 C -0.8171 1.7052 -0.1551 0
M  V30 14 C -3.4791 0.8985 -0.0374 0
M  V30 15 C -1.7991 2.5976 0.2805 0
M  V30 16 C -3.1222 2.1878 0.3361 0
M  V30 17 O -4.0514 3.0878 0.7663 0
M  V30 18 H 4.9729 -0.7441 2.5282 0
M  V30 19 H 4.5123 -0.327 0.354 0
M  V30 20 H 1.5896 -1.3368 3.3386 0
M  V30 21 H 2.7707 -0.1595 -1.3324 0
M  V30 22 H -0.1965 -1.1704 1.6558 0
M  V30 23 H -1.256 -2.0749 -2.0554 0
M  V30 24 H -0.9353 -2.4678 -0.3608 0
M  V30 25 H 0.3331 -2.6656 -1.5708 0
M  V30 26 H 1.1638 -0.6987 -2.8815 0
M  V30 27 H -0.4207 0.043 -3.101 0
M  V30 28 H 0.8818 0.9638 -2.3476 0
M  V30 29 H -2.8134 -0.9934 -0.7598 0
M  V30 30 H 0.2158 2.0478 -0.1845 0
M  V30 31 H -4.5124 0.5684 0.0011 0
M  V30 32 H -1.5278 3.6067 0.5768 0
M  V30 33 H -4.922 2.658 0.7626 0
M  V30 END ATOM
M  V30 BEGIN BOND
M  V30 1 1 1 2
M  V30 2 2 2 3
M  V30 3 1 2 4
M  V30 4 1 3 5
M  V30 5 2 4 6
M  V30 6 2 5 7
M  V30 7 1 7 8
M  V30 8 1 8 9
M  V30 9 1 8 10
M  V30 10 1 8 11
M  V30 11 2 9 12
M  V30 12 1 9 13
M  V30 13 1 12 14
M  V30 14 2 13 15
M  V30 15 2 14 16
M  V30 16 1 16 17
M  V30 17 1 6 7
M  V30 18 1 15 16
M  V30 19 1 1 18
M  V30 20 1 3 19
M  V30 21 1 4 20
M  V30 22 1 5 21
M  V30 23 1 6 22
M  V30 24 1 10 23
M  V30 25 1 10 24
M  V30 26 1 10 25
M  V30 27 1 11 26
M  V30 28 1 11 27
M  V30 29 1 11 28
M  V30 30 1 12 29
M  V30 31 1 13 30
M  V30 32 1 14 31
M  V30 33 1 15 32
M  V30 34 1 17 33
M  V30 END BOND
M  V30 END CTAB
M  END
>  <NO.>
458

>  <Name>
bisphenol a

>  <SMILES>
CC(C)(c1ccc(O)cc1)c1ccc(O)cc1

>  <logBB>
-0.12

>  <Class>
1

>  <MW>
228.12

>  <nHBAcc>
2

>  <nHBDon>
2

>  <SLogP>
3.42

>  <TopoPSA>
40.46

>  <MMFF94 Energy>
43.209

$$$$
CC(C)n1nnc(NC(=O)C2c3ccccc3Oc3ccccc32)n1
Actelion Java MolfileCreator 2.0

  0  0  0  0  0  0              0 V3000
M  V30 BEGIN CTAB
M  V30 COUNTS 42 45 0 0 0
M  V30 BEGIN ATOM
M  V30 1 O 1.6051 0.2406 -0.0802 0
M  V30 2 C 0.5159 -0.2964 0.102 0
M  V30 3 N -0.7016 0.3505 0.0531 0
M  V30 4 C 0.3723 -1.8011 0.4042 0
M  V30 5 C -0.8453 1.6867 -0.1902 0
M  V30 6 C 0.8248 -2.6315 -0.7751 0
M  V30 7 C 1.0903 -2.1647 1.6837 0
M  V30 8 N 0.1327 2.6299 -0.0543 0
M  V30 9 N -2.0357 2.2004 -0.5223 0
M  V30 10 C 1.9441 -3.4584 -0.6589 0
M  V30 11 C 0.1393 -2.5818 -2.0012 0
M  V30 12 C 2.1926 -3.0211 1.6479 0
M  V30 13 C 0.6711 -1.6452 2.9206 0
M  V30 14 N -0.4257 3.7993 -0.3368 0
M  V30 15 N -1.7037 3.5043 -0.6217 0
M  V30 16 O 2.6722 -3.5955 0.4969 0
M  V30 17 C 2.384 -4.2112 -1.7503 0
M  V30 18 C 0.5776 -3.3393 -3.0888 0
M  V30 19 C 2.8761 -3.3438 2.8227 0
M  V30 20 C 1.3526 -1.9732 4.094 0
M  V30 21 C -2.6729 4.5218 -0.9937 0
M  V30 22 C 1.7014 -4.1523 -2.9643 0
M  V30 23 C 2.4565 -2.821 4.0451 0
M  V30 24 C -2.8913 5.5242 0.1381 0
M  V30 25 C -2.2739 5.2244 -2.2901 0
M  V30 26 H -1.5751 -0.1449 0.131 0
M  V30 27 H -0.6862 -2.0491 0.567 0
M  V30 28 H -0.7345 -1.9467 -2.125 0
M  V30 29 H -0.1807 -0.9719 2.9808 0
M  V30 30 H 3.2611 -4.8453 -1.6516 0
M  V30 31 H 0.047 -3.2894 -4.0364 0
M  V30 32 H 3.7379 -4.0046 2.7829 0
M  V30 33 H 1.0279 -1.5601 5.0458 0
M  V30 34 H -3.6196 3.995 -1.1697 0
M  V30 35 H 2.0485 -4.738 -3.8113 0
M  V30 36 H 2.993 -3.0722 4.9562 0
M  V30 37 H -3.1862 5.0127 1.0611 0
M  V30 38 H -3.6829 6.2352 -0.1213 0
M  V30 39 H -1.9814 6.0959 0.352 0
M  V30 40 H -3.0519 5.9281 -2.6046 0
M  V30 41 H -2.128 4.4989 -3.0981 0
M  V30 42 H -1.3394 5.7845 -2.1744 0
M  V30 END ATOM
M  V30 BEGIN BOND
M  V30 1 2 1 2
M  V30 2 1 2 3
M  V30 3 1 2 4
M  V30 4 1 3 5
M  V30 5 1 4 6
M  V30 6 1 4 7
M  V30 7 1 5 8
M  V30 8 2 5 9
M  V30 9 2 6 10
M  V30 10 1 6 11
M  V30 11 2 7 12
M  V30 12 1 7 13
M  V30 13 2 8 14
M  V30 14 1 9 15
M  V30 15 1 10 16
M  V30 16 1 10 17
M  V30 17 2 11 18
M  V30 18 1 12 19
M  V30 19 2 13 20
M  V30 20 1 15 21
M  V30 21 2 17 22
M  V30 22 2 19 23
M  V30 23 1 21 24
M  V30 24 1 21 25
M  V30 25 1 12 16
M  V30 26 1 14 15
M  V30 27 1 18 22
M  V30 28 1 20 23
M  V30 29 1 3 26
M  V30 30 1 4 27
M  V30 31 1 11 28
M  V30 32 1 13 29
M  V30 33 1 17 30
M  V30 34 1 18 31
M  V30 35 1 19 32
M  V30 36 1 20 33
M  V30 37 1 21 34
M  V30 38 1 22 35
M  V30 39 1 23 36
M  V30 40 1 24 37
M  V30 41 1 24 38
M  V30 42 1 24 39
M  V30 43 1 25 40
M  V30 44 1 25 41
M  V30 45 1 25 42
M  V30 END BOND
M  V30 END CTAB
M  END
>  <NO.>
459

>  <Name>
9h-xanthene-9-carboxamide, n-[2-(1-methylethyl)-2h-tetrazol-5-yl]-

>  <SMILES>
CC(C)n1nnc(NC(=O)C2c3ccccc3Oc3ccccc32)n1

>  <logBB>
-0.12

>  <Class>
1

>  <MW>
335.14

>  <nHBAcc>
5

>  <nHBDon>
1

>  <SLogP>
3.13

>  <TopoPSA>
81.93

>  <MMFF94 Energy>
23.779

$$$$
CN1C[C@H](CCn2c3c(c4ccccc42)C(=O)NCC3)CC1=O
Actelion Java MolfileCreator 2.0

  0  0  0  0  0  0              0 V3000
M  V30 BEGIN CTAB
M  V30 COUNTS 44 47 0 0 0
M  V30 BEGIN ATOM
M  V30 1 O -1.9954 -2.5546 -3.274 0
M  V30 2 C -1.9291 -1.48 -2.6875 0
M  V30 3 N -3.0631 -0.7235 -2.4594 0
M  V30 4 C -0.6917 -0.8907 -2.1924 0
M  V30 5 C -3.1015 0.4283 -1.5671 0
M  V30 6 C 0.628 -1.416 -2.1365 0
M  V30 7 C -0.6432 0.3978 -1.6879 0
M  V30 8 C -1.8314 1.2979 -1.6198 0
M  V30 9 C 1.4504 -0.4203 -1.592 0
M  V30 10 C 1.2053 -2.6482 -2.5074 0
M  V30 11 N 0.6448 0.6713 -1.3076 0
M  V30 12 C 2.8316 -0.6192 -1.4211 0
M  V30 13 C 2.5763 -2.8541 -2.3308 0
M  V30 14 C 1.1187 1.9209 -0.7404 0
M  V30 15 C 3.3766 -1.8506 -1.7964 0
M  V30 16 C 1.4942 1.8628 0.7453 0
M  V30 17 C 0.3354 1.5469 1.6968 0 CFG=1
M  V30 18 C -0.0563 0.0719 1.7679 0
M  V30 19 C 0.6938 1.8758 3.1548 0
M  V30 20 N -0.5798 -0.0742 3.1015 0
M  V30 21 C -0.1706 0.9342 3.9535 0
M  V30 22 C -1.3192 -1.245 3.5103 0
M  V30 23 O -0.4126 1.0383 5.1439 0
M  V30 24 H -3.9208 -1.1387 -2.7981 0
M  V30 25 H -3.987 1.0219 -1.8145 0
M  V30 26 H -3.235 0.0285 -0.5544 0
M  V30 27 H -1.8067 1.9581 -0.7481 0
M  V30 28 H -1.85 1.9225 -2.5207 0
M  V30 29 H 0.5861 -3.4332 -2.9352 0
M  V30 30 H 3.4731 0.1551 -1.0136 0
M  V30 31 H 3.0167 -3.8047 -2.6208 0
M  V30 32 H 1.9933 2.2221 -1.3299 0
M  V30 33 H 0.3589 2.6914 -0.9071 0
M  V30 34 H 4.443 -2.0246 -1.6722 0
M  V30 35 H 1.9012 2.8477 1.0101 0
M  V30 36 H 2.308 1.146 0.9053 0
M  V30 37 H -0.5458 2.1429 1.4236 0
M  V30 38 H 0.7986 -0.603 1.6578 0
M  V30 39 H -0.8349 -0.1879 1.0478 0
M  V30 40 H 1.7433 1.663 3.3833 0
M  V30 41 H 0.4618 2.9155 3.4009 0
M  V30 42 H -2.2002 -1.3482 2.8713 0
M  V30 43 H -1.6323 -1.159 4.554 0
M  V30 44 H -0.6772 -2.1228 3.3969 0
M  V30 END ATOM
M  V30 BEGIN BOND
M  V30 1 2 1 2
M  V30 2 1 2 3
M  V30 3 1 2 4
M  V30 4 1 3 5
M  V30 5 1 4 6
M  V30 6 2 4 7
M  V30 7 1 5 8
M  V30 8 2 6 9
M  V30 9 1 6 10
M  V30 10 1 7 11
M  V30 11 1 9 12
M  V30 12 2 10 13
M  V30 13 1 11 14
M  V30 14 2 12 15
M  V30 15 1 14 16
M  V30 16 1 16 17
M  V30 17 1 17 18
M  V30 18 1 17 19
M  V30 19 1 18 20
M  V30 20 1 19 21
M  V30 21 1 20 22
M  V30 22 2 21 23
M  V30 23 1 7 8
M  V30 24 1 9 11
M  V30 25 1 13 15
M  V30 26 1 20 21
M  V30 27 1 3 24
M  V30 28 1 5 25
M  V30 29 1 5 26
M  V30 30 1 8 27
M  V30 31 1 8 28
M  V30 32 1 10 29
M  V30 33 1 12 30
M  V30 34 1 13 31
M  V30 35 1 14 32
M  V30 36 1 14 33
M  V30 37 1 15 34
M  V30 38 1 16 35
M  V30 39 1 16 36
M  V30 40 1 17 37
M  V30 41 1 18 38
M  V30 42 1 18 39
M  V30 43 1 19 40
M  V30 44 1 19 41
M  V30 45 1 22 42
M  V30 46 1 22 43
M  V30 47 1 22 44
M  V30 END BOND
M  V30 BEGIN COLLECTION
M  V30 MDLV30/STEABS ATOMS=(1 17)
M  V30 END COLLECTION
M  V30 END CTAB
M  END
>  <NO.>
460

>  <Name>
y17

>  <SMILES>
CN1C[C@H](CCn2c3c(c4ccccc42)C(=O)NCC3)CC1=O

>  <logBB>
-0.12

>  <Class>
1

>  <MW>
311.16

>  <nHBAcc>
2

>  <nHBDon>
1

>  <SLogP>
1.8

>  <TopoPSA>
54.34

>  <MMFF94 Energy>
12.862

$$$$
O=[N+]([O-])c1c(Cc2ccccc2)c[nH]c1NCCSCc1ccccn1
Actelion Java MolfileCreator 2.0

  0  0  0  0  0  0              0 V3000
M  V30 BEGIN CTAB
M  V30 COUNTS 46 48 0 0 0
M  V30 BEGIN ATOM
M  V30 1 S 1.2059 2.9766 1.4472 0
M  V30 2 C 1.0169 4.1445 0.059 0
M  V30 3 C -0.5561 2.6672 1.8379 0
M  V30 4 C 2.304 4.8571 -0.2816 0
M  V30 5 C -1.4053 2.1128 0.6867 0
M  V30 6 N 2.3502 6.1944 -0.048 0
M  V30 7 C 3.3792 4.1606 -0.8337 0
M  V30 8 N -0.8438 0.8994 0.1178 0
M  V30 9 C 3.4964 6.8399 -0.3572 0
M  V30 10 C 4.5445 4.8553 -1.1449 0
M  V30 11 C -0.991 -0.3606 0.5984 0
M  V30 12 C 4.608 6.2212 -0.902 0
M  V30 13 N -1.8923 -0.66 1.587 0
M  V30 14 C -0.3457 -1.5463 0.2578 0
M  V30 15 C -1.8473 -1.9951 1.8822 0
M  V30 16 N 0.713 -1.6445 -0.7234 0 CHG=1
M  V30 17 C -0.9112 -2.6022 1.0597 0
M  V30 18 O 1.4703 -2.621 -0.6464 0
M  V30 19 O 0.8103 -0.7342 -1.5612 0 CHG=-1
M  V30 20 C -0.5854 -4.0649 1.058 0
M  V30 21 C -1.3816 -4.6793 -0.0696 0
M  V30 22 C -2.7597 -4.9151 0.0649 0
M  V30 23 C -0.7544 -5.0425 -1.2708 0
M  V30 24 C -3.4913 -5.485 -0.9786 0
M  V30 25 C -1.4874 -5.6117 -2.3138 0
M  V30 26 C -2.8552 -5.8314 -2.1682 0
M  V30 27 H 0.6669 3.6067 -0.828 0
M  V30 28 H 0.2567 4.887 0.3255 0
M  V30 29 H -0.5708 1.9613 2.6754 0
M  V30 30 H -0.9948 3.6021 2.2026 0
M  V30 31 H -2.433 1.9475 1.0304 0
M  V30 32 H -1.485 2.8623 -0.1086 0
M  V30 33 H 3.3165 3.0914 -1.0125 0
M  V30 34 H -0.1725 1.0523 -0.6414 0
M  V30 35 H 3.4971 7.9058 -0.1478 0
M  V30 36 H 5.3961 4.3317 -1.5693 0
M  V30 37 H 5.5023 6.7896 -1.1298 0
M  V30 38 H -2.5122 0.0031 2.0268 0
M  V30 39 H -2.4975 -2.4095 2.6419 0
M  V30 40 H -0.8768 -4.5309 2.0076 0
M  V30 41 H 0.4868 -4.249 0.9459 0
M  V30 42 H -3.2727 -4.6518 0.987 0
M  V30 43 H 0.3145 -4.8876 -1.4038 0
M  V30 44 H -4.5578 -5.6581 -0.8627 0
M  V30 45 H -0.988 -5.8843 -3.2398 0
M  V30 46 H -3.4242 -6.2741 -2.9811 0
M  V30 END ATOM
M  V30 BEGIN BOND
M  V30 1 1 1 2
M  V30 2 1 1 3
M  V30 3 1 2 4
M  V30 4 1 3 5
M  V30 5 2 4 6
M  V30 6 1 4 7
M  V30 7 1 5 8
M  V30 8 1 6 9
M  V30 9 2 7 10
M  V30 10 1 8 11
M  V30 11 2 9 12
M  V30 12 1 11 13
M  V30 13 2 11 14
M  V30 14 1 13 15
M  V30 15 1 14 16
M  V30 16 1 14 17
M  V30 17 2 16 18
M  V30 18 1 16 19
M  V30 19 1 17 20
M  V30 20 1 20 21
M  V30 21 2 21 22
M  V30 22 1 21 23
M  V30 23 1 22 24
M  V30 24 2 23 25
M  V30 25 2 24 26
M  V30 26 1 10 12
M  V30 27 2 15 17
M  V30 28 1 25 26
M  V30 29 1 2 27
M  V30 30 1 2 28
M  V30 31 1 3 29
M  V30 32 1 3 30
M  V30 33 1 5 31
M  V30 34 1 5 32
M  V30 35 1 7 33
M  V30 36 1 8 34
M  V30 37 1 9 35
M  V30 38 1 10 36
M  V30 39 1 12 37
M  V30 40 1 13 38
M  V30 41 1 15 39
M  V30 42 1 20 40
M  V30 43 1 20 41
M  V30 44 1 22 42
M  V30 45 1 23 43
M  V30 46 1 24 44
M  V30 47 1 25 45
M  V30 48 1 26 46
M  V30 END BOND
M  V30 END CTAB
M  END
>  <NO.>
461

>  <Name>
chebi: 337303

>  <SMILES>
O=[N+]([O-])c1c(Cc2ccccc2)c[nH]c1NCCSCc1ccccn1

>  <logBB>
-0.12

>  <Class>
1

>  <MW>
368.13

>  <nHBAcc>
5

>  <nHBDon>
2

>  <SLogP>
4.25

>  <TopoPSA>
83.85

>  <MMFF94 Energy>
139.97

$$$$
CN(C)C1CCN(Cc2ccc(C(=O)Nc3cc(-c4ccccc4)ccc3N)cc2)CC1
Actelion Java MolfileCreator 2.0

  0  0  0  0  0  0              0 V3000
M  V30 BEGIN CTAB
M  V30 COUNTS 64 67 0 0 0
M  V30 BEGIN ATOM
M  V30 1 O 0.4746 3.7231 -1.6622 0
M  V30 2 C 0.8898 2.6014 -1.3912 0
M  V30 3 N 1.6683 1.7967 -2.1973 0
M  V30 4 C 0.5023 1.9958 -0.0867 0
M  V30 5 C 2.199 2.1026 -3.4759 0
M  V30 6 C 1.3785 1.1728 0.6303 0
M  V30 7 C -0.7631 2.2858 0.4354 0
M  V30 8 C 2.6069 3.3824 -3.9023 0
M  V30 9 C 2.3798 0.9982 -4.3303 0
M  V30 10 C 0.9748 0.6218 1.8488 0
M  V30 11 C -1.164 1.7322 1.6536 0
M  V30 12 N 2.5784 4.5078 -3.0795 0
M  V30 13 C 3.2383 3.4991 -5.1485 0
M  V30 14 C 2.9687 1.1261 -5.5987 0
M  V30 15 C -0.3011 0.8897 2.3687 0
M  V30 16 C 3.4022 2.3959 -5.9909 0
M  V30 17 C 3.1382 -0.0418 -6.4771 0
M  V30 18 C -0.7275 0.2962 3.6969 0
M  V30 19 C 2.0406 -0.8426 -6.8343 0
M  V30 20 C 4.4015 -0.3902 -6.9828 0
M  V30 21 N -0.6921 -1.1756 3.7101 0
M  V30 22 C 2.2001 -1.9531 -7.6674 0
M  V30 23 C 4.5628 -1.5011 -7.8149 0
M  V30 24 C -1.7062 -1.7923 2.8406 0
M  V30 25 C -0.7887 -1.7112 5.0749 0
M  V30 26 C 3.4616 -2.2819 -8.1567 0
M  V30 27 C -3.1397 -1.6843 3.3693 0
M  V30 28 C -2.1828 -1.5933 5.6993 0
M  V30 29 C -3.2397 -2.2522 4.7964 0
M  V30 30 N -4.6332 -2.2035 5.2907 0
M  V30 31 C -4.8488 -3.1226 6.4098 0
M  V30 32 C -5.1158 -0.8686 5.6408 0
M  V30 33 H 1.7912 0.8378 -1.9007 0
M  V30 34 H 2.3842 0.9726 0.2714 0
M  V30 35 H -1.4407 2.941 -0.1084 0
M  V30 36 H 2.0641 0.0097 -4.0023 0
M  V30 37 H 1.6576 -0.0216 2.4014 0
M  V30 38 H -2.1545 1.9637 2.0392 0
M  V30 39 H 2.7344 5.4164 -3.4907 0
M  V30 40 H 1.8559 4.4885 -2.3556 0
M  V30 41 H 3.608 4.4667 -5.4791 0
M  V30 42 H 3.8722 2.5412 -6.9612 0
M  V30 43 H -1.713 0.6817 3.9835 0
M  V30 44 H -0.024 0.6894 4.4435 0
M  V30 45 H 1.044 -0.5954 -6.4734 0
M  V30 46 H 5.2766 0.2009 -6.72 0
M  V30 47 H 1.3376 -2.5573 -7.936 0
M  V30 48 H 5.549 -1.7556 -8.1938 0
M  V30 49 H -1.6579 -1.3816 1.8256 0
M  V30 50 H -1.453 -2.8547 2.7254 0
M  V30 51 H -0.4986 -2.77 5.0511 0
M  V30 52 H -0.0509 -1.2263 5.7261 0
M  V30 53 H 3.5862 -3.145 -8.8051 0
M  V30 54 H -3.4615 -0.638 3.3318 0
M  V30 55 H -3.8076 -2.2417 2.7007 0
M  V30 56 H -2.1673 -2.0757 6.6833 0
M  V30 57 H -2.4136 -0.5354 5.8683 0
M  V30 58 H -2.9716 -3.3152 4.7051 0
M  V30 59 H -4.29 -2.8312 7.3055 0
M  V30 60 H -5.9123 -3.1638 6.6714 0
M  V30 61 H -4.5594 -4.1435 6.1371 0
M  V30 62 H -5.0075 -0.1658 4.8098 0
M  V30 63 H -6.188 -0.9042 5.8671 0
M  V30 64 H -4.6064 -0.4527 6.5167 0
M  V30 END ATOM
M  V30 BEGIN BOND
M  V30 1 2 1 2
M  V30 2 1 2 3
M  V30 3 1 2 4
M  V30 4 1 3 5
M  V30 5 2 4 6
M  V30 6 1 4 7
M  V30 7 2 5 8
M  V30 8 1 5 9
M  V30 9 1 6 10
M  V30 10 2 7 11
M  V30 11 1 8 12
M  V30 12 1 8 13
M  V30 13 2 9 14
M  V30 14 2 10 15
M  V30 15 2 13 16
M  V30 16 1 14 17
M  V30 17 1 15 18
M  V30 18 2 17 19
M  V30 19 1 17 20
M  V30 20 1 18 21
M  V30 21 1 19 22
M  V30 22 2 20 23
M  V30 23 1 21 24
M  V30 24 1 21 25
M  V30 25 2 22 26
M  V30 26 1 24 27
M  V30 27 1 25 28
M  V30 28 1 27 29
M  V30 29 1 29 30
M  V30 30 1 30 31
M  V30 31 1 30 32
M  V30 32 1 11 15
M  V30 33 1 14 16
M  V30 34 1 23 26
M  V30 35 1 28 29
M  V30 36 1 3 33
M  V30 37 1 6 34
M  V30 38 1 7 35
M  V30 39 1 9 36
M  V30 40 1 10 37
M  V30 41 1 11 38
M  V30 42 1 12 39
M  V30 43 1 12 40
M  V30 44 1 13 41
M  V30 45 1 16 42
M  V30 46 1 18 43
M  V30 47 1 18 44
M  V30 48 1 19 45
M  V30 49 1 20 46
M  V30 50 1 22 47
M  V30 51 1 23 48
M  V30 52 1 24 49
M  V30 53 1 24 50
M  V30 54 1 25 51
M  V30 55 1 25 52
M  V30 56 1 26 53
M  V30 57 1 27 54
M  V30 58 1 27 55
M  V30 59 1 28 56
M  V30 60 1 28 57
M  V30 61 1 29 58
M  V30 62 1 31 59
M  V30 63 1 31 60
M  V30 64 1 31 61
M  V30 65 1 32 62
M  V30 66 1 32 63
M  V30 67 1 32 64
M  V30 END BOND
M  V30 END CTAB
M  END
>  <NO.>
462

>  <Name>


>  <SMILES>
CN(C)C1CCN(Cc2ccc(C(=O)Nc3cc(-c4ccccc4)ccc3N)cc2)CC1

>  <logBB>
-0.11

>  <Class>
1

>  <MW>
428.26

>  <nHBAcc>
4

>  <nHBDon>
2

>  <SLogP>
4.71

>  <TopoPSA>
61.6

>  <MMFF94 Energy>
78.729

$$$$
O=C1NC(=O)C(c2ccccc2)(c2ccccc2)N1
Actelion Java MolfileCreator 2.0

  0  0  0  0  0  0              0 V3000
M  V30 BEGIN CTAB
M  V30 COUNTS 31 33 0 0 0
M  V30 BEGIN ATOM
M  V30 1 O -3.4483 -1.282 2.1642 0
M  V30 2 C -2.4602 -0.6509 1.8356 0
M  V30 3 N -1.9518 0.4201 2.4767 0
M  V30 4 N -1.6888 -0.9212 0.7403 0
M  V30 5 C -0.8511 0.891 1.8272 0
M  V30 6 C -0.5652 -0.0102 0.5829 0
M  V30 7 O -0.2185 1.8726 2.1982 0
M  V30 8 C 0.7924 -0.7071 0.759 0
M  V30 9 C -0.7095 0.6921 -0.7745 0
M  V30 10 C 0.9092 -2.0785 1.0517 0
M  V30 11 C 1.9791 0.0429 0.6385 0
M  V30 12 C -0.5542 -0.057 -1.9604 0
M  V30 13 C -1.0048 2.0604 -0.9003 0
M  V30 14 C 2.1634 -2.6756 1.206 0
M  V30 15 C 3.2307 -0.5562 0.7931 0
M  V30 16 C -0.6873 0.5386 -3.2163 0
M  V30 17 C -1.1379 2.6543 -2.1592 0
M  V30 18 C 3.3222 -1.9156 1.0751 0
M  V30 19 C -0.9802 1.8947 -3.3149 0
M  V30 20 H -2.3426 0.8201 3.3116 0
M  V30 21 H -1.9261 -1.6613 0.0971 0
M  V30 22 H 0.0295 -2.7066 1.1718 0
M  V30 23 H 1.9365 1.111 0.4256 0
M  V30 24 H -0.3165 -1.1185 -1.9132 0
M  V30 25 H -1.1322 2.699 -0.0287 0
M  V30 26 H 2.2346 -3.7365 1.4334 0
M  V30 27 H 4.1333 0.0421 0.6963 0
M  V30 28 H -0.5589 -0.0565 -4.1168 0
M  V30 29 H -1.3637 3.7155 -2.2352 0
M  V30 30 H 4.2965 -2.3815 1.1978 0
M  V30 31 H -1.0829 2.361 -4.2912 0
M  V30 END ATOM
M  V30 BEGIN BOND
M  V30 1 2 1 2
M  V30 2 1 2 3
M  V30 3 1 2 4
M  V30 4 1 3 5
M  V30 5 1 4 6
M  V30 6 2 5 7
M  V30 7 1 6 8
M  V30 8 1 6 9
M  V30 9 2 8 10
M  V30 10 1 8 11
M  V30 11 2 9 12
M  V30 12 1 9 13
M  V30 13 1 10 14
M  V30 14 2 11 15
M  V30 15 1 12 16
M  V30 16 2 13 17
M  V30 17 2 14 18
M  V30 18 2 16 19
M  V30 19 1 5 6
M  V30 20 1 15 18
M  V30 21 1 17 19
M  V30 22 1 3 20
M  V30 23 1 4 21
M  V30 24 1 10 22
M  V30 25 1 11 23
M  V30 26 1 12 24
M  V30 27 1 13 25
M  V30 28 1 14 26
M  V30 29 1 15 27
M  V30 30 1 16 28
M  V30 31 1 17 29
M  V30 32 1 18 30
M  V30 33 1 19 31
M  V30 END BOND
M  V30 END CTAB
M  END
>  <NO.>
464

>  <Name>
phenytoin

>  <SMILES>
O=C1NC(=O)C(c2ccccc2)(c2ccccc2)N1

>  <logBB>
-0.1

>  <Class>
1

>  <MW>
252.09

>  <nHBAcc>
2

>  <nHBDon>
2

>  <SLogP>
1.77

>  <TopoPSA>
58.2

>  <MMFF94 Energy>
-1.2041

$$$$
CCCC(C)C1(CC)C(=O)NC(=S)NC1=O
Actelion Java MolfileCreator 2.0

  0  0  0  0  0  0              0 V3000
M  V30 BEGIN CTAB
M  V30 COUNTS 34 34 0 0 0
M  V30 BEGIN ATOM
M  V30 1 S 1.9776 3.7998 -3.4034 0
M  V30 2 C 1.4044 2.6796 -2.3191 0
M  V30 3 N 0.3038 1.9328 -2.5892 0
M  V30 4 N 1.991 2.5029 -1.1086 0
M  V30 5 C -0.2551 0.9908 -1.7663 0
M  V30 6 C 1.5763 1.6315 -0.1382 0
M  V30 7 O -1.3329 0.4919 -2.0827 0
M  V30 8 C 0.571 0.5509 -0.5544 0
M  V30 9 O 2.0639 1.7123 0.9883 0
M  V30 10 C -0.3481 0.2029 0.6773 0 CFG=2
M  V30 11 C 1.4241 -0.6537 -1.0655 0
M  V30 12 C -1.2107 -1.0755 0.5101 0
M  V30 13 C -1.2359 1.4022 1.067 0
M  V30 14 C 2.2752 -1.3616 -0.0153 0
M  V30 15 C -1.852 -1.5472 1.8219 0
M  V30 16 C -2.5831 -2.8691 1.6373 0
M  V30 17 H -0.2027 2.1262 -3.4445 0
M  V30 18 H 2.7417 3.1309 -0.8484 0
M  V30 19 H 0.3114 0.0225 1.5375 0
M  V30 20 H 0.7733 -1.3964 -1.5447 0
M  V30 21 H 2.1006 -0.3143 -1.8625 0
M  V30 22 H -2.0071 -0.9088 -0.2227 0
M  V30 23 H -0.5985 -1.8973 0.1272 0
M  V30 24 H -2.0448 1.5565 0.3457 0
M  V30 25 H -1.6917 1.25 2.0504 0
M  V30 26 H -0.66 2.3306 1.1312 0
M  V30 27 H 1.6705 -1.7752 0.7956 0
M  V30 28 H 2.8145 -2.1943 -0.4794 0
M  V30 29 H 3.0225 -0.6905 0.417 0
M  V30 30 H -1.0812 -1.6695 2.5914 0
M  V30 31 H -2.5678 -0.804 2.1881 0
M  V30 32 H -3.0375 -3.1856 2.5815 0
M  V30 33 H -3.3788 -2.7762 0.8912 0
M  V30 34 H -1.8955 -3.656 1.3113 0
M  V30 END ATOM
M  V30 BEGIN BOND
M  V30 1 2 1 2
M  V30 2 1 2 3
M  V30 3 1 2 4
M  V30 4 1 3 5
M  V30 5 1 4 6
M  V30 6 2 5 7
M  V30 7 1 5 8
M  V30 8 2 6 9
M  V30 9 1 8 10
M  V30 10 1 8 11
M  V30 11 1 10 12
M  V30 12 1 10 13
M  V30 13 1 11 14
M  V30 14 1 12 15
M  V30 15 1 15 16
M  V30 16 1 6 8
M  V30 17 1 3 17
M  V30 18 1 4 18
M  V30 19 1 10 19
M  V30 20 1 11 20
M  V30 21 1 11 21
M  V30 22 1 12 22
M  V30 23 1 12 23
M  V30 24 1 13 24
M  V30 25 1 13 25
M  V30 26 1 13 26
M  V30 27 1 14 27
M  V30 28 1 14 28
M  V30 29 1 14 29
M  V30 30 1 15 30
M  V30 31 1 15 31
M  V30 32 1 16 32
M  V30 33 1 16 33
M  V30 34 1 16 34
M  V30 END BOND
M  V30 BEGIN COLLECTION
M  V30 MDLV30/STERAC1 ATOMS=(1 10)
M  V30 END COLLECTION
M  V30 END CTAB
M  END
>  <NO.>
465

>  <Name>
thiopental (thiopentone)

>  <SMILES>
CCCC(C)C1(CC)C(=O)NC(=S)NC1=O

>  <logBB>
-0.1

>  <Class>
1

>  <MW>
242.11

>  <nHBAcc>
3

>  <nHBDon>
2

>  <SLogP>
1.35

>  <TopoPSA>
58.2

>  <MMFF94 Energy>
-91.267

$$$$
Cc1cc(=O)n(-c2ccccc2)n1C
Actelion Java MolfileCreator 2.0

  0  0  0  0  0  0              0 V3000
M  V30 BEGIN CTAB
M  V30 COUNTS 26 27 0 0 0
M  V30 BEGIN ATOM
M  V30 1 O 2.0508 -0.7095 2.0508 0
M  V30 2 C 1.643 -0.7678 0.9027 0
M  V30 3 N 0.5581 -0.1369 0.2913 0
M  V30 4 C 2.2567 -1.634 -0.1323 0
M  V30 5 N 0.48 -0.5619 -1.0487 0
M  V30 6 C -0.5053 0.4847 0.9684 0
M  V30 7 C 1.5253 -1.459 -1.2434 0
M  V30 8 C 0.0168 0.3791 -2.0587 0
M  V30 9 C -0.2378 1.4478 1.9472 0
M  V30 10 C -1.8347 0.1384 0.6963 0
M  V30 11 C 1.7883 -2.1056 -2.56 0
M  V30 12 C -1.285 2.0711 2.6298 0
M  V30 13 C -2.8818 0.7618 1.379 0
M  V30 14 C -2.6061 1.7302 2.3431 0
M  V30 15 H 3.1206 -2.2479 0.0371 0
M  V30 16 H -0.9077 0.8837 -1.7657 0
M  V30 17 H -0.1899 -0.1387 -3.0012 0
M  V30 18 H 0.7785 1.1438 -2.2454 0
M  V30 19 H 0.7884 1.7165 2.1872 0
M  V30 20 H -2.0605 -0.6317 -0.0362 0
M  V30 21 H 2.6168 -2.8191 -2.4982 0
M  V30 22 H 0.9027 -2.6514 -2.9009 0
M  V30 23 H 2.0484 -1.3565 -3.3144 0
M  V30 24 H -1.0669 2.8169 3.39 0
M  V30 25 H -3.9106 0.4846 1.1649 0
M  V30 26 H -3.4199 2.2121 2.879 0
M  V30 END ATOM
M  V30 BEGIN BOND
M  V30 1 2 1 2
M  V30 2 1 2 3
M  V30 3 1 2 4
M  V30 4 1 3 5
M  V30 5 1 3 6
M  V30 6 2 4 7
M  V30 7 1 5 8
M  V30 8 2 6 9
M  V30 9 1 6 10
M  V30 10 1 7 11
M  V30 11 1 9 12
M  V30 12 2 10 13
M  V30 13 2 12 14
M  V30 14 1 5 7
M  V30 15 1 13 14
M  V30 16 1 4 15
M  V30 17 1 8 16
M  V30 18 1 8 17
M  V30 19 1 8 18
M  V30 20 1 9 19
M  V30 21 1 10 20
M  V30 22 1 11 21
M  V30 23 1 11 22
M  V30 24 1 11 23
M  V30 25 1 12 24
M  V30 26 1 13 25
M  V30 27 1 14 26
M  V30 END BOND
M  V30 END CTAB
M  END
>  <NO.>
466

>  <Name>
antipyrine ok

>  <SMILES>
Cc1cc(=O)n(-c2ccccc2)n1C

>  <logBB>
-0.1

>  <Class>
1

>  <MW>
188.09

>  <nHBAcc>
1

>  <nHBDon>
0

>  <SLogP>
1.48

>  <TopoPSA>
26.93

>  <MMFF94 Energy>
62.235

$$$$
CC(C)O
Actelion Java MolfileCreator 2.0

  0  0  0  0  0  0              0 V3000
M  V30 BEGIN CTAB
M  V30 COUNTS 12 11 0 0 0
M  V30 BEGIN ATOM
M  V30 1 O -0.5957 -0.2978 1.49 0
M  V30 2 C -0.216 -0.3721 0.1195 0
M  V30 3 C -1.0815 0.5983 -0.668 0
M  V30 4 C 1.2619 -0.0374 -0.012 0
M  V30 5 H -0.0466 -0.9323 1.9814 0
M  V30 6 H -0.4017 -1.3938 -0.2286 0
M  V30 7 H -0.9539 1.6239 -0.3039 0
M  V30 8 H -0.8398 0.5718 -1.7349 0
M  V30 9 H -2.1416 0.3513 -0.544 0
M  V30 10 H 1.4751 0.9614 0.3846 0
M  V30 11 H 1.5876 -0.0784 -1.0559 0
M  V30 12 H 1.8672 -0.7415 0.569 0
M  V30 END ATOM
M  V30 BEGIN BOND
M  V30 1 1 1 2
M  V30 2 1 2 3
M  V30 3 1 2 4
M  V30 4 1 1 5
M  V30 5 1 2 6
M  V30 6 1 3 7
M  V30 7 1 3 8
M  V30 8 1 3 9
M  V30 9 1 4 10
M  V30 10 1 4 11
M  V30 11 1 4 12
M  V30 END BOND
M  V30 END CTAB
M  END
>  <NO.>
467

>  <Name>
2-propanol (isopropanol)

>  <SMILES>
CC(C)O

>  <logBB>
-0.1

>  <Class>
1

>  <MW>
60.06

>  <nHBAcc>
1

>  <nHBDon>
1

>  <SLogP>
0.39

>  <TopoPSA>
20.23

>  <MMFF94 Energy>
0.99634

$$$$
CCC(C)=O
Actelion Java MolfileCreator 2.0

  0  0  0  0  0  0              0 V3000
M  V30 BEGIN CTAB
M  V30 COUNTS 13 12 0 0 0
M  V30 BEGIN ATOM
M  V30 1 O 0.6053 0.3026 -1.6655 0
M  V30 2 C -0.224 0.2432 -0.7591 0
M  V30 3 C 0.1172 -0.2391 0.6387 0
M  V30 4 C -1.6555 0.6538 -0.988 0
M  V30 5 C 1.5765 -0.6317 0.7817 0
M  V30 6 H -0.5179 -1.1013 0.8672 0
M  V30 7 H -0.1162 0.5652 1.3442 0
M  V30 8 H -1.7845 0.9813 -2.0234 0
M  V30 9 H -2.315 -0.1973 -0.8021 0
M  V30 10 H -1.9102 1.4816 -0.3215 0
M  V30 11 H 1.7814 -0.9728 1.8011 0
M  V30 12 H 2.2348 0.2162 0.5657 0
M  V30 13 H 1.8352 -1.4413 0.0913 0
M  V30 END ATOM
M  V30 BEGIN BOND
M  V30 1 2 1 2
M  V30 2 1 2 3
M  V30 3 1 2 4
M  V30 4 1 3 5
M  V30 5 1 3 6
M  V30 6 1 3 7
M  V30 7 1 4 8
M  V30 8 1 4 9
M  V30 9 1 4 10
M  V30 10 1 5 11
M  V30 11 1 5 12
M  V30 12 1 5 13
M  V30 END BOND
M  V30 END CTAB
M  END
>  <NO.>
468

>  <Name>
2-butanone

>  <SMILES>
CCC(C)=O

>  <logBB>
-0.1

>  <Class>
1

>  <MW>
72.06

>  <nHBAcc>
1

>  <nHBDon>
0

>  <SLogP>
0.99

>  <TopoPSA>
17.07

>  <MMFF94 Energy>
0.45496

$$$$
CC(C)NCC(O)COc1cccc2[nH]ccc12
Actelion Java MolfileCreator 2.0

  0  0  0  0  0  0              0 V3000
M  V30 BEGIN CTAB
M  V30 COUNTS 38 39 0 0 0
M  V30 BEGIN ATOM
M  V30 1 O -0.1566 1.8021 -0.6265 0
M  V30 2 C -0.1588 2.3018 0.6582 0
M  V30 3 C -1.3781 1.0802 -0.8715 0
M  V30 4 C 0.219 1.5122 1.7647 0
M  V30 5 C -0.4669 3.654 0.8375 0
M  V30 6 C -1.2654 0.3954 -2.2407 0 CFG=1
M  V30 7 C 0.2306 2.1061 3.0285 0
M  V30 8 C 0.6262 0.1589 1.9374 0
M  V30 9 C -0.4469 4.2156 2.1127 0
M  V30 10 O -1.0005 1.3894 -3.2433 0
M  V30 11 C -0.1542 -0.6737 -2.2956 0
M  V30 12 N 0.6195 1.1383 3.9275 0
M  V30 13 C -0.1035 3.4512 3.2338 0
M  V30 14 C 0.8626 -0.0427 3.2778 0
M  V30 15 N -0.4506 -1.8255 -1.4368 0
M  V30 16 C 0.6768 -2.758 -1.3168 0
M  V30 17 C 0.3547 -3.7337 -0.1829 0
M  V30 18 C 0.9402 -3.5337 -2.6085 0
M  V30 19 H -2.2025 1.8039 -0.9016 0
M  V30 20 H -1.5785 0.3402 -0.0882 0
M  V30 21 H -0.7251 4.2667 -0.0213 0
M  V30 22 H -2.2269 -0.064 -2.4965 0
M  V30 23 H 0.7278 -0.5823 1.1555 0
M  V30 24 H -0.6969 5.2667 2.2389 0
M  V30 25 H -0.2843 1.9455 -2.8788 0
M  V30 26 H -0.0415 -0.9963 -3.3375 0
M  V30 27 H 0.8012 -0.2149 -2.0127 0
M  V30 28 H 0.7168 1.2868 4.9223 0
M  V30 29 H -0.0864 3.8954 4.2239 0
M  V30 30 H 1.1826 -0.9209 3.8218 0
M  V30 31 H -1.266 -2.3195 -1.8012 0
M  V30 32 H 1.5831 -2.2091 -1.0329 0
M  V30 33 H -0.5398 -4.3276 -0.4026 0
M  V30 34 H 0.1838 -3.2 0.7587 0
M  V30 35 H 1.1871 -4.4273 -0.022 0
M  V30 36 H 1.2647 -2.8711 -3.4168 0
M  V30 37 H 0.045 -4.0685 -2.9451 0
M  V30 38 H 1.7338 -4.2737 -2.4578 0
M  V30 END ATOM
M  V30 BEGIN BOND
M  V30 1 1 1 2
M  V30 2 1 1 3
M  V30 3 2 2 4
M  V30 4 1 2 5
M  V30 5 1 3 6
M  V30 6 1 4 7
M  V30 7 1 4 8
M  V30 8 2 5 9
M  V30 9 1 6 10
M  V30 10 1 6 11
M  V30 11 1 7 12
M  V30 12 2 7 13
M  V30 13 2 8 14
M  V30 14 1 11 15
M  V30 15 1 15 16
M  V30 16 1 16 17
M  V30 17 1 16 18
M  V30 18 1 9 13
M  V30 19 1 12 14
M  V30 20 1 3 19
M  V30 21 1 3 20
M  V30 22 1 5 21
M  V30 23 1 6 22
M  V30 24 1 8 23
M  V30 25 1 9 24
M  V30 26 1 10 25
M  V30 27 1 11 26
M  V30 28 1 11 27
M  V30 29 1 12 28
M  V30 30 1 13 29
M  V30 31 1 14 30
M  V30 32 1 15 31
M  V30 33 1 16 32
M  V30 34 1 17 33
M  V30 35 1 17 34
M  V30 36 1 17 35
M  V30 37 1 18 36
M  V30 38 1 18 37
M  V30 39 1 18 38
M  V30 END BOND
M  V30 BEGIN COLLECTION
M  V30 MDLV30/STERAC1 ATOMS=(1 6)
M  V30 END COLLECTION
M  V30 END CTAB
M  END
>  <NO.>
469

>  <Name>
pindolol

>  <SMILES>
CC(C)NCC(O)COc1cccc2[nH]ccc12

>  <logBB>
-0.1

>  <Class>
1

>  <MW>
248.15

>  <nHBAcc>
3

>  <nHBDon>
3

>  <SLogP>
1.91

>  <TopoPSA>
57.28

>  <MMFF94 Energy>
61.521

$$$$
NC(=O)N1c2ccccc2C=Cc2ccccc21
Actelion Java MolfileCreator 2.0

  0  0  0  0  0  0              0 V3000
M  V30 BEGIN CTAB
M  V30 COUNTS 30 32 0 0 0
M  V30 BEGIN ATOM
M  V30 1 O -0.5578 3.271 0.0796 0
M  V30 2 C 0.1332 2.3517 0.5156 0
M  V30 3 N -0.0797 0.9993 0.2844 0
M  V30 4 N 1.2134 2.6746 1.2816 0
M  V30 5 C 0.6426 -0.0518 0.9085 0
M  V30 6 C -1.0926 0.5697 -0.616 0
M  V30 7 C 1.451 -0.9282 0.1611 0
M  V30 8 C 0.5455 -0.2025 2.3017 0
M  V30 9 C -0.7703 -0.1625 -1.7757 0
M  V30 10 C -2.43 0.8975 -0.3449 0
M  V30 11 C 1.5938 -0.8352 -1.2992 0
M  V30 12 C 2.1862 -1.9134 0.8378 0
M  V30 13 C 1.2698 -1.1974 2.9565 0
M  V30 14 C 0.6121 -0.5021 -2.1517 0
M  V30 15 C -1.8028 -0.5377 -2.6495 0
M  V30 16 C -3.4452 0.5049 -1.2167 0
M  V30 17 C 2.0943 -2.0482 2.2254 0
M  V30 18 C -3.1318 -0.2119 -2.3681 0
M  V30 19 H 1.387 3.6557 1.4444 0
M  V30 20 H 1.9027 1.9956 1.5626 0
M  V30 21 H -0.099 0.4572 2.8783 0
M  V30 22 H -2.6819 1.4727 0.5426 0
M  V30 23 H 2.5707 -1.0917 -1.7013 0
M  V30 24 H 2.8263 -2.5983 0.2855 0
M  V30 25 H 1.1888 -1.3094 4.0348 0
M  V30 26 H 0.8254 -0.4951 -3.2181 0
M  V30 27 H -1.5805 -1.0934 -3.5577 0
M  V30 28 H -4.4771 0.7689 -1.0009 0
M  V30 29 H 2.6605 -2.8255 2.733 0
M  V30 30 H -3.9209 -0.5121 -3.0527 0
M  V30 END ATOM
M  V30 BEGIN BOND
M  V30 1 2 1 2
M  V30 2 1 2 3
M  V30 3 1 2 4
M  V30 4 1 3 5
M  V30 5 1 3 6
M  V30 6 2 5 7
M  V30 7 1 5 8
M  V30 8 2 6 9
M  V30 9 1 6 10
M  V30 10 1 7 11
M  V30 11 1 7 12
M  V30 12 2 8 13
M  V30 13 1 9 14
M  V30 14 1 9 15
M  V30 15 2 10 16
M  V30 16 2 12 17
M  V30 17 2 15 18
M  V30 18 2 11 14
M  V30 19 1 13 17
M  V30 20 1 16 18
M  V30 21 1 4 19
M  V30 22 1 4 20
M  V30 23 1 8 21
M  V30 24 1 10 22
M  V30 25 1 11 23
M  V30 26 1 12 24
M  V30 27 1 13 25
M  V30 28 1 14 26
M  V30 29 1 15 27
M  V30 30 1 16 28
M  V30 31 1 17 29
M  V30 32 1 18 30
M  V30 END BOND
M  V30 END CTAB
M  END
>  <NO.>
470

>  <Name>
carbamazepine

>  <SMILES>
NC(=O)N1c2ccccc2C=Cc2ccccc21

>  <logBB>
-0.1

>  <Class>
1

>  <MW>
236.09

>  <nHBAcc>
1

>  <nHBDon>
1

>  <SLogP>
3.39

>  <TopoPSA>
46.33

>  <MMFF94 Energy>
21.384

$$$$
C=CCC1(C(C)C#CCC)C(=O)NC(=O)N(C)C1=O
Actelion Java MolfileCreator 2.0

  0  0  0  0  0  0              0 V3000
M  V30 BEGIN CTAB
M  V30 COUNTS 37 37 0 0 0
M  V30 BEGIN ATOM
M  V30 1 O -1.8075 3.9327 -0.5498 0
M  V30 2 C -1.6099 2.7201 -0.5559 0
M  V30 3 N -2.5384 1.7824 -0.1487 0
M  V30 4 N -0.4399 2.232 -1.0557 0
M  V30 5 C -2.3372 0.4102 -0.2398 0
M  V30 6 C -3.8648 2.2559 0.2055 0
M  V30 7 C -0.1169 0.9125 -1.2084 0
M  V30 8 O -3.2774 -0.3853 -0.2068 0
M  V30 9 C -0.8753 -0.0542 -0.303 0
M  V30 10 O 0.7429 0.5983 -2.0257 0
M  V30 11 C -0.3292 0.0577 1.1626 0
M  V30 12 C -0.8611 -1.4908 -0.908 0
M  V30 13 C 1.147 -0.0078 1.2368 0
M  V30 14 C -0.9298 -0.9684 2.1344 0
M  V30 15 C 0.4372 -2.2576 -0.9045 0
M  V30 16 C 2.3464 -0.0555 1.277 0
M  V30 17 C 1.1196 -2.5831 -2.0096 0
M  V30 18 C 3.8133 -0.1265 1.2924 0
M  V30 19 C 4.3337 -0.9447 0.1226 0
M  V30 20 H 0.1576 2.9029 -1.5185 0
M  V30 21 H -4.3618 1.5521 0.8799 0
M  V30 22 H -3.8137 3.2365 0.6878 0
M  V30 23 H -4.4541 2.3444 -0.7127 0
M  V30 24 H -0.6011 1.0439 1.5659 0
M  V30 25 H -1.5847 -2.1262 -0.3797 0
M  V30 26 H -1.24 -1.4343 -1.9391 0
M  V30 27 H -2.022 -0.9092 2.1573 0
M  V30 28 H -0.5739 -0.7827 3.1552 0
M  V30 29 H -0.6472 -1.9951 1.8826 0
M  V30 30 H 0.8232 -2.595 0.0546 0
M  V30 31 H 0.7873 -2.2769 -2.9969 0
M  V30 32 H 2.0455 -3.1458 -1.946 0
M  V30 33 H 4.1536 -0.5759 2.2318 0
M  V30 34 H 4.2339 0.884 1.2459 0
M  V30 35 H 3.9537 -1.9716 0.1584 0
M  V30 36 H 5.4272 -0.9855 0.1435 0
M  V30 37 H 4.0268 -0.5073 -0.8338 0
M  V30 END ATOM
M  V30 BEGIN BOND
M  V30 1 2 1 2
M  V30 2 1 2 3
M  V30 3 1 2 4
M  V30 4 1 3 5
M  V30 5 1 3 6
M  V30 6 1 4 7
M  V30 7 2 5 8
M  V30 8 1 5 9
M  V30 9 2 7 10
M  V30 10 1 9 11
M  V30 11 1 9 12
M  V30 12 1 11 13
M  V30 13 1 11 14
M  V30 14 1 12 15
M  V30 15 3 13 16
M  V30 16 2 15 17
M  V30 17 1 16 18
M  V30 18 1 18 19
M  V30 19 1 7 9
M  V30 20 1 4 20
M  V30 21 1 6 21
M  V30 22 1 6 22
M  V30 23 1 6 23
M  V30 24 1 11 24
M  V30 25 1 12 25
M  V30 26 1 12 26
M  V30 27 1 14 27
M  V30 28 1 14 28
M  V30 29 1 14 29
M  V30 30 1 15 30
M  V30 31 1 17 31
M  V30 32 1 17 32
M  V30 33 1 18 33
M  V30 34 1 18 34
M  V30 35 1 19 35
M  V30 36 1 19 36
M  V30 37 1 19 37
M  V30 END BOND
M  V30 END CTAB
M  END
>  <NO.>
471

>  <Name>
151-83-7

>  <SMILES>
C=CCC1(C(C)C#CCC)C(=O)NC(=O)N(C)C1=O

>  <logBB>
-0.1

>  <Class>
1

>  <MW>
262.13

>  <nHBAcc>
3

>  <nHBDon>
1

>  <SLogP>
1.31

>  <TopoPSA>
66.48

>  <MMFF94 Energy>
-109.47

$$$$
CC(=O)[C@H]1CC[C@H]2[C@@H]3CCC4=CC(=O)CC[C@]4(C)[C@H]3CC[C@]12C
Actelion Java MolfileCreator 2.0

  0  0  0  0  0  0              0 V3000
M  V30 BEGIN CTAB
M  V30 COUNTS 53 56 0 0 0
M  V30 BEGIN ATOM
M  V30 1 O 0.884 0.5625 -5.9586 0
M  V30 2 C 1.0282 0.3849 -4.7522 0
M  V30 3 C 1.2573 1.5469 -3.8618 0
M  V30 4 C 0.8717 -0.9678 -4.1068 0
M  V30 5 C 1.5023 1.3806 -2.5498 0
M  V30 6 C 1.8531 -1.0946 -2.9549 0
M  V30 7 C 1.7029 0.0168 -1.8758 0 CFG=2
M  V30 8 C 1.4271 2.5623 -1.6151 0
M  V30 9 C 0.4555 -0.1816 -0.9412 0 CFG=2
M  V30 10 C 3.0306 -0.0053 -1.0767 0
M  V30 11 C 0.2469 2.3679 -0.6605 0
M  V30 12 C 0.2923 1.0108 0.0676 0 CFG=1
M  V30 13 C 0.4067 -1.5479 -0.2129 0
M  V30 14 C -0.9704 0.772 0.9022 0 CFG=1
M  V30 15 C -0.8057 -1.7003 0.725 0
M  V30 16 C -0.9152 -0.5376 1.7228 0 CFG=2
M  V30 17 C -1.3796 1.8203 1.9277 0
M  V30 18 C -2.2674 -0.4276 2.4699 0 CFG=2
M  V30 19 C 0.2599 -0.6012 2.7313 0
M  V30 20 C -2.3759 1.0764 2.8313 0
M  V30 21 C -2.4322 -1.3482 3.6773 0
M  V30 22 O -2.3106 -0.9498 4.8358 0
M  V30 23 C -2.7145 -2.8024 3.4003 0
M  V30 24 H 1.103 2.5187 -4.3174 0
M  V30 25 H 1.0893 -1.7375 -4.8551 0
M  V30 26 H -0.1648 -1.0903 -3.7784 0
M  V30 27 H 2.8655 -1.0424 -3.3832 0
M  V30 28 H 1.7795 -2.0936 -2.5141 0
M  V30 29 H 1.2876 3.501 -2.165 0
M  V30 30 H 2.363 2.6726 -1.0575 0
M  V30 31 H -0.4358 -0.1622 -1.588 0
M  V30 32 H 3.8752 0.2851 -1.7138 0
M  V30 33 H 3.0354 0.6736 -0.2204 0
M  V30 34 H 3.2459 -1.0088 -0.6934 0
M  V30 35 H 0.2465 3.1856 0.0698 0
M  V30 36 H -0.6914 2.4502 -1.225 0
M  V30 37 H 1.1553 1.042 0.7402 0
M  V30 38 H 1.327 -1.7078 0.3574 0
M  V30 39 H 0.3519 -2.36 -0.9454 0
M  V30 40 H -1.8097 0.6996 0.19 0
M  V30 41 H -0.7281 -2.6587 1.2494 0
M  V30 42 H -1.7154 -1.7557 0.1132 0
M  V30 43 H -1.8436 2.6958 1.4624 0
M  V30 44 H -0.5201 2.1708 2.5095 0
M  V30 45 H -3.0959 -0.6553 1.7845 0
M  V30 46 H 1.2367 -0.5008 2.2514 0
M  V30 47 H 0.2677 -1.5634 3.2559 0
M  V30 48 H 0.1981 0.1807 3.4948 0
M  V30 49 H -2.1552 1.2918 3.8817 0
M  V30 50 H -3.3976 1.4271 2.6437 0
M  V30 51 H -3.3733 -2.901 2.5341 0
M  V30 52 H -1.7772 -3.3328 3.2229 0
M  V30 53 H -3.2213 -3.2439 4.2632 0
M  V30 END ATOM
M  V30 BEGIN BOND
M  V30 1 2 1 2
M  V30 2 1 2 3
M  V30 3 1 2 4
M  V30 4 2 3 5
M  V30 5 1 4 6
M  V30 6 1 5 7
M  V30 7 1 5 8
M  V30 8 1 7 9
M  V30 9 1 7 10
M  V30 10 1 8 11
M  V30 11 1 9 12
M  V30 12 1 9 13
M  V30 13 1 12 14
M  V30 14 1 13 15
M  V30 15 1 14 16
M  V30 16 1 14 17
M  V30 17 1 16 18
M  V30 18 1 16 19
M  V30 19 1 17 20
M  V30 20 1 18 21
M  V30 21 2 21 22
M  V30 22 1 21 23
M  V30 23 1 6 7
M  V30 24 1 11 12
M  V30 25 1 15 16
M  V30 26 1 18 20
M  V30 27 1 3 24
M  V30 28 1 4 25
M  V30 29 1 4 26
M  V30 30 1 6 27
M  V30 31 1 6 28
M  V30 32 1 8 29
M  V30 33 1 8 30
M  V30 34 1 9 31
M  V30 35 1 10 32
M  V30 36 1 10 33
M  V30 37 1 10 34
M  V30 38 1 11 35
M  V30 39 1 11 36
M  V30 40 1 12 37
M  V30 41 1 13 38
M  V30 42 1 13 39
M  V30 43 1 14 40
M  V30 44 1 15 41
M  V30 45 1 15 42
M  V30 46 1 17 43
M  V30 47 1 17 44
M  V30 48 1 18 45
M  V30 49 1 19 46
M  V30 50 1 19 47
M  V30 51 1 19 48
M  V30 52 1 20 49
M  V30 53 1 20 50
M  V30 54 1 23 51
M  V30 55 1 23 52
M  V30 56 1 23 53
M  V30 END BOND
M  V30 BEGIN COLLECTION
M  V30 MDLV30/STEABS ATOMS=(6 7 9 12 14 16 18)
M  V30 END COLLECTION
M  V30 END CTAB
M  END
>  <NO.>
472

>  <Name>
progesterone

>  <SMILES>
CC(=O)[C@H]1CC[C@H]2[C@@H]3CCC4=CC(=O)CC[C@]4(C)[C@H]3CC[C@]12C

>  <logBB>
-0.1

>  <Class>
1

>  <MW>
314.22

>  <nHBAcc>
2

>  <nHBDon>
0

>  <SLogP>
4.72

>  <TopoPSA>
34.14

>  <MMFF94 Energy>
76.657

$$$$
CC(F)OC(=O)c1ncn2c1CN(C)C(=O)c1cc(F)ccc1-2
Actelion Java MolfileCreator 2.0

  0  0  0  0  0  0              0 V3000
M  V30 BEGIN CTAB
M  V30 COUNTS 36 38 0 0 0
M  V30 BEGIN ATOM
M  V30 1 F 1.936 5.9787 -1.129 0
M  V30 2 C 1.6563 4.6698 -1.1034 0
M  V30 3 C 1.2146 4.0867 0.0775 0
M  V30 4 C 1.8124 3.9172 -2.26 0
M  V30 5 C 0.9073 2.7173 0.1183 0
M  V30 6 C 1.5275 2.5522 -2.2386 0
M  V30 7 C 0.4944 2.183 1.4509 0
M  V30 8 C 1.0803 1.9478 -1.0496 0
M  V30 9 O 1.0345 2.6654 2.4446 0
M  V30 10 N -0.4724 1.1888 1.5267 0
M  V30 11 N 0.8009 0.5635 -1.0677 0
M  V30 12 C -1.2111 0.704 0.378 0
M  V30 13 C -0.8076 0.6089 2.8174 0
M  V30 14 C -0.2556 -0.0602 -0.4447 0
M  V30 15 C 1.4963 -0.4125 -1.7358 0
M  V30 16 C -0.1452 -1.4065 -0.7613 0
M  V30 17 N 0.9523 -1.5978 -1.5838 0
M  V30 18 C -1.0188 -2.4945 -0.3142 0
M  V30 19 O -1.9748 -2.3258 0.4357 0
M  V30 20 O -0.6472 -3.7009 -0.8193 0
M  V30 21 C -1.4614 -4.7865 -0.3993 0 CFG=1
M  V30 22 F -1.2875 -5.7699 -1.3266 0
M  V30 23 C -1.0026 -5.3271 0.9407 0
M  V30 24 H 1.1184 4.7063 0.9665 0
M  V30 25 H 2.1561 4.4003 -3.1702 0
M  V30 26 H 1.6447 1.9848 -3.16 0
M  V30 27 H -2.0673 0.1103 0.7076 0
M  V30 28 H -1.6103 1.5601 -0.1785 0
M  V30 29 H -1.8495 0.8492 3.0492 0
M  V30 30 H -0.6869 -0.4769 2.759 0
M  V30 31 H -0.1699 0.9907 3.6185 0
M  V30 32 H 2.3938 -0.209 -2.3055 0
M  V30 33 H -2.527 -4.5325 -0.4001 0
M  V30 34 H -1.113 -4.5826 1.7345 0
M  V30 35 H -1.5712 -6.2225 1.2085 0
M  V30 36 H 0.0557 -5.6047 0.8969 0
M  V30 END ATOM
M  V30 BEGIN BOND
M  V30 1 1 1 2
M  V30 2 2 2 3
M  V30 3 1 2 4
M  V30 4 1 3 5
M  V30 5 2 4 6
M  V30 6 1 5 7
M  V30 7 2 5 8
M  V30 8 2 7 9
M  V30 9 1 7 10
M  V30 10 1 8 11
M  V30 11 1 10 12
M  V30 12 1 10 13
M  V30 13 1 11 14
M  V30 14 1 11 15
M  V30 15 2 14 16
M  V30 16 2 15 17
M  V30 17 1 16 18
M  V30 18 2 18 19
M  V30 19 1 18 20
M  V30 20 1 20 21
M  V30 21 1 21 22
M  V30 22 1 21 23
M  V30 23 1 6 8
M  V30 24 1 12 14
M  V30 25 1 16 17
M  V30 26 1 3 24
M  V30 27 1 4 25
M  V30 28 1 6 26
M  V30 29 1 12 27
M  V30 30 1 12 28
M  V30 31 1 13 29
M  V30 32 1 13 30
M  V30 33 1 13 31
M  V30 34 1 15 32
M  V30 35 1 21 33
M  V30 36 1 23 34
M  V30 37 1 23 35
M  V30 38 1 23 36
M  V30 END BOND
M  V30 BEGIN COLLECTION
M  V30 MDLV30/STERAC1 ATOMS=(1 21)
M  V30 END COLLECTION
M  V30 END CTAB
M  END
>  <NO.>
473

>  <Name>
-

>  <SMILES>
CC(F)OC(=O)c1ncn2c1CN(C)C(=O)c1cc(F)ccc1-2

>  <logBB>
-0.1

>  <Class>
1

>  <MW>
321.09

>  <nHBAcc>
4

>  <nHBDon>
0

>  <SLogP>
2.07

>  <TopoPSA>
64.43

>  <MMFF94 Energy>
12.278

$$$$
CN(C)Cc1ccc(-c2c[nH]c(=O)c3cccc(O)c23)cc1
Actelion Java MolfileCreator 2.0

  0  0  0  0  0  0              0 V3000
M  V30 BEGIN CTAB
M  V30 COUNTS 40 42 0 0 0
M  V30 BEGIN ATOM
M  V30 1 O -5.0865 0.8728 -3.3358 0
M  V30 2 C -4.0419 0.7477 -2.7069 0
M  V30 3 N -3.7844 -0.3686 -1.952 0
M  V30 4 C -2.9849 1.7896 -2.7166 0
M  V30 5 C -2.639 -0.5653 -1.2316 0
M  V30 6 C -1.8009 1.5944 -1.9768 0
M  V30 7 C -3.2 2.953 -3.471 0
M  V30 8 C -1.6384 0.3347 -1.195 0
M  V30 9 C -0.8412 2.6214 -2.0276 0
M  V30 10 C -2.2312 3.9499 -3.5011 0
M  V30 11 C -0.4845 -0.0617 -0.3634 0
M  V30 12 O 0.3339 2.5068 -1.3367 0
M  V30 13 C -1.0519 3.7849 -2.7797 0
M  V30 14 C -0.4633 0.2348 1.0041 0
M  V30 15 C 0.5823 -0.7707 -0.9285 0
M  V30 16 C 0.614 -0.1702 1.7952 0
M  V30 17 C 1.66 -1.1753 -0.136 0
M  V30 18 C 1.6845 -0.883 1.2349 0
M  V30 19 C 2.8593 -1.3045 2.0932 0
M  V30 20 N 2.4772 -2.1438 3.2434 0
M  V30 21 C 3.615 -2.2956 4.1513 0
M  V30 22 C 2.0068 -3.4619 2.8106 0
M  V30 23 H -4.5121 -1.0734 -1.9503 0
M  V30 24 H -2.5934 -1.506 -0.6875 0
M  V30 25 H -4.1236 3.0782 -4.0329 0
M  V30 26 H -2.3961 4.8519 -4.0849 0
M  V30 27 H 0.866 3.3094 -1.4516 0
M  V30 28 H -0.304 4.5722 -2.8135 0
M  V30 29 H -1.2828 0.7854 1.4593 0
M  V30 30 H 0.5809 -1.0043 -1.9902 0
M  V30 31 H 0.6169 0.0638 2.8579 0
M  V30 32 H 2.4792 -1.7204 -0.5979 0
M  V30 33 H 3.3265 -0.3764 2.4502 0
M  V30 34 H 3.6166 -1.8126 1.4813 0
M  V30 35 H 3.9427 -1.3193 4.5257 0
M  V30 36 H 4.4685 -2.7847 3.668 0
M  V30 37 H 3.331 -2.8858 5.0298 0
M  V30 38 H 2.7672 -4.0047 2.2375 0
M  V30 39 H 1.103 -3.3819 2.1975 0
M  V30 40 H 1.7318 -4.073 3.6779 0
M  V30 END ATOM
M  V30 BEGIN BOND
M  V30 1 2 1 2
M  V30 2 1 2 3
M  V30 3 1 2 4
M  V30 4 1 3 5
M  V30 5 2 4 6
M  V30 6 1 4 7
M  V30 7 2 5 8
M  V30 8 1 6 9
M  V30 9 2 7 10
M  V30 10 1 8 11
M  V30 11 1 9 12
M  V30 12 2 9 13
M  V30 13 2 11 14
M  V30 14 1 11 15
M  V30 15 1 14 16
M  V30 16 2 15 17
M  V30 17 2 16 18
M  V30 18 1 18 19
M  V30 19 1 19 20
M  V30 20 1 20 21
M  V30 21 1 20 22
M  V30 22 1 6 8
M  V30 23 1 10 13
M  V30 24 1 17 18
M  V30 25 1 3 23
M  V30 26 1 5 24
M  V30 27 1 7 25
M  V30 28 1 10 26
M  V30 29 1 12 27
M  V30 30 1 13 28
M  V30 31 1 14 29
M  V30 32 1 15 30
M  V30 33 1 16 31
M  V30 34 1 17 32
M  V30 35 1 19 33
M  V30 36 1 19 34
M  V30 37 1 21 35
M  V30 38 1 21 36
M  V30 39 1 21 37
M  V30 40 1 22 38
M  V30 41 1 22 39
M  V30 42 1 22 40
M  V30 END BOND
M  V30 END CTAB
M  END
>  <NO.>
474

>  <Name>
kcl-440

>  <SMILES>
CN(C)Cc1ccc(-c2c[nH]c(=O)c3cccc(O)c23)cc1

>  <logBB>
-0.1

>  <Class>
1

>  <MW>
294.14

>  <nHBAcc>
3

>  <nHBDon>
2

>  <SLogP>
2.96

>  <TopoPSA>
56.33

>  <MMFF94 Energy>
61.028

$$$$
COCCCN1CCC(NC(=O)c2cc(Cl)c(N)c3c2OCC3)CC1
Actelion Java MolfileCreator 2.0

  0  0  0  0  0  0              0 V3000
M  V30 BEGIN CTAB
M  V30 COUNTS 51 53 0 0 0
M  V30 BEGIN ATOM
M  V30 1 Cl 2.0731 -2.1529 6.9499 0
M  V30 2 C 2.1734 -1.3043 5.4431 0
M  V30 3 C 3.1174 -0.2723 5.2703 0
M  V30 4 C 1.2895 -1.676 4.4167 0
M  V30 5 N 3.9576 0.1381 6.2922 0
M  V30 6 C 3.127 0.3634 4.0365 0
M  V30 7 C 1.3151 -1.0193 3.1785 0
M  V30 8 C 2.2498 -0.0047 3.0151 0
M  V30 9 C 3.9346 1.524 3.5872 0
M  V30 10 C 0.347 -1.4509 2.1299 0
M  V30 11 O 2.4091 0.7604 1.88 0
M  V30 12 C 3.6651 1.4437 2.09 0
M  V30 13 O -0.44 -2.363 2.3616 0
M  V30 14 N 0.3856 -0.782 0.928 0
M  V30 15 C -0.5337 -1.0733 -0.1623 0
M  V30 16 C -1.8451 -0.3051 0.0126 0
M  V30 17 C 0.1086 -0.7433 -1.5096 0
M  V30 18 C -2.7668 -0.5363 -1.1835 0
M  V30 19 C -0.889 -0.928 -2.6543 0
M  V30 20 N -2.1521 -0.1995 -2.4759 0
M  V30 21 C -2.0424 1.2519 -2.6783 0
M  V30 22 C -1.935 1.6779 -4.1519 0
M  V30 23 C -3.2718 1.7005 -4.9 0
M  V30 24 O -3.9566 0.4557 -4.9534 0
M  V30 25 C -3.3455 -0.492 -5.815 0
M  V30 26 H 0.5735 -2.4779 4.5888 0
M  V30 27 H 3.9429 -0.3752 7.1674 0
M  V30 28 H 4.6819 0.8256 6.1486 0
M  V30 29 H 3.5326 2.4491 4.013 0
M  V30 30 H 5.0012 1.4397 3.8097 0
M  V30 31 H 3.6179 2.4378 1.6337 0
M  V30 32 H 4.4472 0.8716 1.5748 0
M  V30 33 H 1.0335 -0.0055 0.832 0
M  V30 34 H -0.754 -2.1486 -0.1351 0
M  V30 35 H -1.6442 0.7668 0.1356 0
M  V30 36 H -2.3515 -0.6291 0.93 0
M  V30 37 H 0.4956 0.2832 -1.5061 0
M  V30 38 H 0.9769 -1.3933 -1.6737 0
M  V30 39 H -3.0646 -1.5929 -1.2068 0
M  V30 40 H -3.7013 0.0218 -1.0474 0
M  V30 41 H -1.1233 -1.9968 -2.7473 0
M  V30 42 H -0.4089 -0.6602 -3.6012 0
M  V30 43 H -1.1823 1.6552 -2.1313 0
M  V30 44 H -2.9229 1.757 -2.2597 0
M  V30 45 H -1.2106 1.0566 -4.6867 0
M  V30 46 H -1.53 2.6978 -4.1764 0
M  V30 47 H -3.9441 2.4078 -4.4011 0
M  V30 48 H -3.1249 2.08 -5.9184 0
M  V30 49 H -3.9749 -1.3857 -5.8402 0
M  V30 50 H -2.3574 -0.7817 -5.4498 0
M  V30 51 H -3.2687 -0.0945 -6.8315 0
M  V30 END ATOM
M  V30 BEGIN BOND
M  V30 1 1 1 2
M  V30 2 2 2 3
M  V30 3 1 2 4
M  V30 4 1 3 5
M  V30 5 1 3 6
M  V30 6 2 4 7
M  V30 7 2 6 8
M  V30 8 1 6 9
M  V30 9 1 7 10
M  V30 10 1 8 11
M  V30 11 1 9 12
M  V30 12 2 10 13
M  V30 13 1 10 14
M  V30 14 1 14 15
M  V30 15 1 15 16
M  V30 16 1 15 17
M  V30 17 1 16 18
M  V30 18 1 17 19
M  V30 19 1 18 20
M  V30 20 1 20 21
M  V30 21 1 21 22
M  V30 22 1 22 23
M  V30 23 1 23 24
M  V30 24 1 24 25
M  V30 25 1 7 8
M  V30 26 1 11 12
M  V30 27 1 19 20
M  V30 28 1 4 26
M  V30 29 1 5 27
M  V30 30 1 5 28
M  V30 31 1 9 29
M  V30 32 1 9 30
M  V30 33 1 12 31
M  V30 34 1 12 32
M  V30 35 1 14 33
M  V30 36 1 15 34
M  V30 37 1 16 35
M  V30 38 1 16 36
M  V30 39 1 17 37
M  V30 40 1 17 38
M  V30 41 1 18 39
M  V30 42 1 18 40
M  V30 43 1 19 41
M  V30 44 1 19 42
M  V30 45 1 21 43
M  V30 46 1 21 44
M  V30 47 1 22 45
M  V30 48 1 22 46
M  V30 49 1 23 47
M  V30 50 1 23 48
M  V30 51 1 25 49
M  V30 52 1 25 50
M  V30 53 1 25 51
M  V30 END BOND
M  V30 END CTAB
M  END
>  <NO.>
475

>  <Name>
prucalopride

>  <SMILES>
COCCCN1CCC(NC(=O)c2cc(Cl)c(N)c3c2OCC3)CC1

>  <logBB>
-0.1

>  <Class>
1

>  <MW>
367.17

>  <nHBAcc>
5

>  <nHBDon>
2

>  <SLogP>
2.09

>  <TopoPSA>
76.82

>  <MMFF94 Energy>
40.747

$$$$
CS(=O)(=O)c1ccc(C2=C(c3ccccc3)C(=O)OC2)cc1
Actelion Java MolfileCreator 2.0

  0  0  0  0  0  0              0 V3000
M  V30 BEGIN CTAB
M  V30 COUNTS 36 38 0 0 0
M  V30 BEGIN ATOM
M  V30 1 S 1.9641 3.1112 -2.6195 0
M  V30 2 O 1.8132 2.85 -4.0381 0
M  V30 3 O 1.2811 4.2251 -1.9904 0
M  V30 4 C 1.4886 1.6356 -1.7504 0
M  V30 5 C 3.6965 3.2508 -2.2667 0
M  V30 6 C 1.4542 0.4144 -2.4247 0
M  V30 7 C 1.113 1.7179 -0.4095 0
M  V30 8 C 1.0591 -0.7392 -1.7411 0
M  V30 9 C 0.7217 0.5595 0.2666 0
M  V30 10 C 0.6826 -0.6803 -0.3907 0
M  V30 11 C 0.2773 -1.8967 0.3248 0
M  V30 12 C -0.7855 -2.0924 1.1187 0
M  V30 13 C 1.0933 -3.1288 0.2255 0
M  V30 14 C -1.8737 -1.1779 1.4776 0
M  V30 15 C -0.6601 -3.4794 1.6201 0
M  V30 16 O 0.4491 -4.0597 1.0859 0
M  V30 17 C -2.266 -1.0317 2.8154 0
M  V30 18 C -2.5548 -0.4429 0.4957 0
M  V30 19 O -1.417 -4.0339 2.3973 0
M  V30 20 C -3.2994 -0.1585 3.1649 0
M  V30 21 C -3.5862 0.432 0.8457 0
M  V30 22 C -3.9564 0.5755 2.1805 0
M  V30 23 H 4.2095 2.3641 -2.6436 0
M  V30 24 H 3.8348 3.351 -1.1886 0
M  V30 25 H 4.0744 4.1416 -2.7732 0
M  V30 26 H 1.7178 0.3505 -3.4786 0
M  V30 27 H 1.1101 2.6717 0.1145 0
M  V30 28 H 1.0239 -1.6777 -2.2906 0
M  V30 29 H 0.4396 0.6407 1.3155 0
M  V30 30 H 2.1182 -2.9743 0.5775 0
M  V30 31 H 1.1127 -3.5466 -0.7852 0
M  V30 32 H -1.7751 -1.6006 3.603 0
M  V30 33 H -2.2937 -0.5448 -0.5552 0
M  V30 34 H -3.5943 -0.058 4.2065 0
M  V30 35 H -4.1029 0.9977 0.0745 0
M  V30 36 H -4.7619 1.2527 2.4527 0
M  V30 END ATOM
M  V30 BEGIN BOND
M  V30 1 2 1 2
M  V30 2 2 1 3
M  V30 3 1 1 4
M  V30 4 1 1 5
M  V30 5 2 4 6
M  V30 6 1 4 7
M  V30 7 1 6 8
M  V30 8 2 7 9
M  V30 9 2 8 10
M  V30 10 1 10 11
M  V30 11 2 11 12
M  V30 12 1 11 13
M  V30 13 1 12 14
M  V30 14 1 12 15
M  V30 15 1 13 16
M  V30 16 2 14 17
M  V30 17 1 14 18
M  V30 18 2 15 19
M  V30 19 1 17 20
M  V30 20 2 18 21
M  V30 21 2 20 22
M  V30 22 1 9 10
M  V30 23 1 15 16
M  V30 24 1 21 22
M  V30 25 1 5 23
M  V30 26 1 5 24
M  V30 27 1 5 25
M  V30 28 1 6 26
M  V30 29 1 7 27
M  V30 30 1 8 28
M  V30 31 1 9 29
M  V30 32 1 13 30
M  V30 33 1 13 31
M  V30 34 1 17 32
M  V30 35 1 18 33
M  V30 36 1 20 34
M  V30 37 1 21 35
M  V30 38 1 22 36
M  V30 END BOND
M  V30 END CTAB
M  END
>  <NO.>
476

>  <Name>
rofecoxib, vioxx

>  <SMILES>
CS(=O)(=O)c1ccc(C2=C(c3ccccc3)C(=O)OC2)cc1

>  <logBB>
-0.1

>  <Class>
1

>  <MW>
314.06

>  <nHBAcc>
4

>  <nHBDon>
0

>  <SLogP>
2.56

>  <TopoPSA>
60.44

>  <MMFF94 Energy>
70.675

$$$$
Cc1c(I)c(=O)n(-c2ccccc2)n1C
Actelion Java MolfileCreator 2.0

  0  0  0  0  0  0              0 V3000
M  V30 BEGIN CTAB
M  V30 COUNTS 26 27 0 0 0
M  V30 BEGIN ATOM
M  V30 1 I -0.4052 3.4077 -3.2453 0
M  V30 2 C 0.0222 1.994 -1.901 0
M  V30 3 C -0.9765 1.4731 -0.9119 0
M  V30 4 C 1.1648 1.3283 -1.6458 0
M  V30 5 O -2.1463 1.82 -0.8479 0
M  V30 6 N -0.3036 0.5144 -0.148 0
M  V30 7 N 1.0242 0.4216 -0.5932 0
M  V30 8 C 2.4836 1.4865 -2.3341 0
M  V30 9 C -0.9231 -0.4729 0.6383 0
M  V30 10 C 2.0707 0.1327 0.3794 0
M  V30 11 C -0.6165 -1.8286 0.4659 0
M  V30 12 C -1.8764 -0.1045 1.5936 0
M  V30 13 C -1.2409 -2.7997 1.2519 0
M  V30 14 C -2.5005 -1.0761 2.3793 0
M  V30 15 C -2.1803 -2.4222 2.2102 0
M  V30 16 H 3.2241 1.9115 -1.6486 0
M  V30 17 H 2.849 0.5127 -2.6772 0
M  V30 18 H 2.4325 2.1382 -3.2101 0
M  V30 19 H 2.2624 1.0117 1.0044 0
M  V30 20 H 1.8115 -0.7017 1.0366 0
M  V30 21 H 3.0024 -0.1409 -0.1264 0
M  V30 22 H 0.0974 -2.137 -0.293 0
M  V30 23 H -2.1432 0.9412 1.7298 0
M  V30 24 H -1.0011 -3.8502 1.1097 0
M  V30 25 H -3.242 -0.7805 3.1173 0
M  V30 26 H -2.6711 -3.1777 2.8187 0
M  V30 END ATOM
M  V30 BEGIN BOND
M  V30 1 1 1 2
M  V30 2 1 2 3
M  V30 3 2 2 4
M  V30 4 2 3 5
M  V30 5 1 3 6
M  V30 6 1 4 7
M  V30 7 1 4 8
M  V30 8 1 6 9
M  V30 9 1 7 10
M  V30 10 2 9 11
M  V30 11 1 9 12
M  V30 12 1 11 13
M  V30 13 2 12 14
M  V30 14 2 13 15
M  V30 15 1 6 7
M  V30 16 1 14 15
M  V30 17 1 8 16
M  V30 18 1 8 17
M  V30 19 1 8 18
M  V30 20 1 10 19
M  V30 21 1 10 20
M  V30 22 1 10 21
M  V30 23 1 11 22
M  V30 24 1 12 23
M  V30 25 1 13 24
M  V30 26 1 14 25
M  V30 27 1 15 26
M  V30 END BOND
M  V30 END CTAB
M  END
>  <NO.>
477

>  <Name>
iodoantipyrine

>  <SMILES>
Cc1c(I)c(=O)n(-c2ccccc2)n1C

>  <logBB>
-0.1

>  <Class>
1

>  <MW>
313.99

>  <nHBAcc>
1

>  <nHBDon>
0

>  <SLogP>
2.09

>  <TopoPSA>
26.93

>  <MMFF94 Energy>
84.168

$$$$
Cc1cc(-c2cc(N)n3nc(-c4ccccn4)nc3c2)ccn1
Actelion Java MolfileCreator 2.0

  0  0  0  0  0  0              0 V3000
M  V30 BEGIN CTAB
M  V30 COUNTS 37 40 0 0 0
M  V30 BEGIN ATOM
M  V30 1 N -0.8008 3.6077 -3.2063 0
M  V30 2 C -0.5545 2.3151 -3.5501 0
M  V30 3 C -1.0652 4.4788 -4.2032 0
M  V30 4 C -0.2671 1.3717 -2.4562 0
M  V30 5 C -0.5695 1.8855 -4.8769 0
M  V30 6 C -1.0987 4.1311 -5.5428 0
M  V30 7 N -0.0029 0.0656 -2.6488 0
M  V30 8 N -0.2464 1.7601 -1.1319 0
M  V30 9 C -0.8456 2.8085 -5.8838 0
M  V30 10 N 0.1952 -0.3947 -1.3814 0
M  V30 11 C 0.0399 0.657 -0.4846 0
M  V30 12 C 0.5127 -1.7178 -0.9703 0
M  V30 13 C 0.2048 0.3906 0.9008 0
M  V30 14 N 0.6468 -2.6865 -1.9341 0
M  V30 15 C 0.6659 -1.9439 0.3495 0
M  V30 16 C 0.5084 -0.8579 1.3198 0
M  V30 17 C 0.6635 -1.0796 2.7682 0
M  V30 18 C -0.3358 -1.7367 3.4893 0
M  V30 19 C 1.8122 -0.6537 3.4336 0
M  V30 20 C -0.1549 -1.9408 4.8535 0
M  V30 21 C 1.9084 -0.8999 4.7913 0
M  V30 22 N 0.9552 -1.5312 5.5101 0
M  V30 23 C -1.2116 -2.6379 5.657 0
M  V30 24 H -1.2562 5.4996 -3.8842 0
M  V30 25 H -0.3698 0.8485 -5.128 0
M  V30 26 H -1.3169 4.8741 -6.3017 0
M  V30 27 H -0.8623 2.4952 -6.9237 0
M  V30 28 H 0.0732 1.2194 1.5897 0
M  V30 29 H 0.5148 -2.4104 -2.9048 0
M  V30 30 H 0.8786 -3.6413 -1.6969 0
M  V30 31 H 0.9129 -2.9313 0.7266 0
M  V30 32 H -1.2422 -2.0796 2.9996 0
M  V30 33 H 2.6164 -0.1449 2.9133 0
M  V30 34 H 2.7822 -0.5879 5.3565 0
M  V30 35 H -1.3737 -3.6494 5.2717 0
M  V30 36 H -2.1519 -2.0797 5.6103 0
M  V30 37 H -0.9139 -2.7169 6.7076 0
M  V30 END ATOM
M  V30 BEGIN BOND
M  V30 1 2 1 2
M  V30 2 1 1 3
M  V30 3 1 2 4
M  V30 4 1 2 5
M  V30 5 2 3 6
M  V30 6 2 4 7
M  V30 7 1 4 8
M  V30 8 2 5 9
M  V30 9 1 7 10
M  V30 10 2 8 11
M  V30 11 1 10 12
M  V30 12 1 11 13
M  V30 13 1 12 14
M  V30 14 2 12 15
M  V30 15 2 13 16
M  V30 16 1 16 17
M  V30 17 2 17 18
M  V30 18 1 17 19
M  V30 19 1 18 20
M  V30 20 2 19 21
M  V30 21 2 20 22
M  V30 22 1 20 23
M  V30 23 1 6 9
M  V30 24 1 10 11
M  V30 25 1 15 16
M  V30 26 1 21 22
M  V30 27 1 3 24
M  V30 28 1 5 25
M  V30 29 1 6 26
M  V30 30 1 9 27
M  V30 31 1 13 28
M  V30 32 1 14 29
M  V30 33 1 14 30
M  V30 34 1 15 31
M  V30 35 1 18 32
M  V30 36 1 19 33
M  V30 37 1 21 34
M  V30 38 1 23 35
M  V30 39 1 23 36
M  V30 40 1 23 37
M  V30 END BOND
M  V30 END CTAB
M  END
>  <NO.>
478

>  <Name>
schembl7481790

>  <SMILES>
Cc1cc(-c2cc(N)n3nc(-c4ccccn4)nc3c2)ccn1

>  <logBB>
-0.1

>  <Class>
1

>  <MW>
302.13

>  <nHBAcc>
5

>  <nHBDon>
1

>  <SLogP>
2.74

>  <TopoPSA>
81.99

>  <MMFF94 Energy>
128.69

$$$$
Cc1nc(C)c(C)nc1C
Actelion Java MolfileCreator 2.0

  0  0  0  0  0  0              0 V3000
M  V30 BEGIN CTAB
M  V30 COUNTS 22 22 0 0 0
M  V30 BEGIN ATOM
M  V30 1 N -0.1553 -1.3214 -0.5439 0
M  V30 2 C 0.6748 -0.4038 -1.1009 0
M  V30 3 C -0.8398 -0.9414 0.5645 0
M  V30 4 C 0.8184 0.8743 -0.5577 0
M  V30 5 C 1.4236 -0.8375 -2.3239 0
M  V30 6 C -0.6962 0.3367 1.1077 0
M  V30 7 C -1.7524 -1.9647 1.1683 0
M  V30 8 N 0.1339 1.2543 0.5507 0
M  V30 9 C 1.7309 1.8976 -1.1614 0
M  V30 10 C -1.4451 0.7704 2.3308 0
M  V30 11 H 1.1642 -0.2026 -3.1765 0
M  V30 12 H 2.5026 -0.7896 -2.1489 0
M  V30 13 H 1.1724 -1.8704 -2.5869 0
M  V30 14 H -2.7857 -1.6044 1.1667 0
M  V30 15 H -1.7222 -2.8977 0.5959 0
M  V30 16 H -1.4474 -2.1916 2.1944 0
M  V30 17 H 1.4258 2.1247 -2.1874 0
M  V30 18 H 2.7642 1.5375 -1.1597 0
M  V30 19 H 1.7007 2.8308 -0.589 0
M  V30 20 H -1.1858 0.1356 3.1835 0
M  V30 21 H -2.5242 0.7228 2.1558 0
M  V30 22 H -1.1939 1.8034 2.5939 0
M  V30 END ATOM
M  V30 BEGIN BOND
M  V30 1 2 1 2
M  V30 2 1 1 3
M  V30 3 1 2 4
M  V30 4 1 2 5
M  V30 5 2 3 6
M  V30 6 1 3 7
M  V30 7 2 4 8
M  V30 8 1 4 9
M  V30 9 1 6 10
M  V30 10 1 6 8
M  V30 11 1 5 11
M  V30 12 1 5 12
M  V30 13 1 5 13
M  V30 14 1 7 14
M  V30 15 1 7 15
M  V30 16 1 7 16
M  V30 17 1 9 17
M  V30 18 1 9 18
M  V30 19 1 9 19
M  V30 20 1 10 20
M  V30 21 1 10 21
M  V30 22 1 10 22
M  V30 END BOND
M  V30 END CTAB
M  END
>  <NO.>
479

>  <Name>
2,3,5,6-tetramethylpyrazine

>  <SMILES>
Cc1nc(C)c(C)nc1C

>  <logBB>
-0.1

>  <Class>
1

>  <MW>
136.1

>  <nHBAcc>
2

>  <nHBDon>
0

>  <SLogP>
1.71

>  <TopoPSA>
25.78

>  <MMFF94 Energy>
61.095

$$$$
ClCC(Cl)Cl
Actelion Java MolfileCreator 2.0

  0  0  0  0  0  0              0 V3000
M  V30 BEGIN CTAB
M  V30 COUNTS 8 7 0 0 0
M  V30 BEGIN ATOM
M  V30 1 Cl 1.4533 1.4533 -0.5448 0
M  V30 2 C 0.3029 0.0939 -0.6698 0
M  V30 3 Cl 1.1896 -1.3552 -1.2261 0
M  V30 4 C -0.3788 -0.1996 0.6622 0
M  V30 5 Cl -1.4676 1.1238 1.1667 0
M  V30 6 H -0.4274 0.3436 -1.4451 0
M  V30 7 H 0.3478 -0.3548 1.4667 0
M  V30 8 H -1.001 -1.0974 0.5901 0
M  V30 END ATOM
M  V30 BEGIN BOND
M  V30 1 1 1 2
M  V30 2 1 2 3
M  V30 3 1 2 4
M  V30 4 1 4 5
M  V30 5 1 2 6
M  V30 6 1 4 7
M  V30 7 1 4 8
M  V30 END BOND
M  V30 END CTAB
M  END
>  <NO.>
480

>  <Name>
vinyltrichloride

>  <SMILES>
ClCC(Cl)Cl

>  <logBB>
-0.1

>  <Class>
1

>  <MW>
131.93

>  <nHBAcc>
0

>  <nHBDon>
0

>  <SLogP>
2.03

>  <TopoPSA>
0

>  <MMFF94 Energy>
13.564

$$$$
O=S(=O)(c1ccc2cc[nH]c2c1)N1CCCC1CCN1CCC(Oc2ccc(Cl)cc2)CC1
Actelion Java MolfileCreator 2.0

  0  0  0  0  0  0              0 V3000
M  V30 BEGIN CTAB
M  V30 COUNTS 63 67 0 0 0
M  V30 BEGIN ATOM
M  V30 1 Cl 6.5159 7.1692 1.1379 0
M  V30 2 C 5.5437 5.7599 1.3019 0
M  V30 3 C 6.0078 4.5375 0.8214 0
M  V30 4 C 4.296 5.8449 1.9114 0
M  V30 5 C 5.2197 3.3878 0.9521 0
M  V30 6 C 3.5125 4.6957 2.0397 0
M  V30 7 C 3.9686 3.4612 1.5655 0
M  V30 8 O 3.0948 2.4294 1.7562 0
M  V30 9 C 3.4895 1.096 1.4038 0
M  V30 10 C 2.6845 0.1348 2.2815 0
M  V30 11 C 3.19 0.8156 -0.0692 0
M  V30 12 C 1.1999 0.1462 1.9185 0
M  V30 13 C 1.6857 0.8047 -0.3501 0
M  V30 14 N 0.9988 -0.1858 0.4958 0
M  V30 15 C -0.4456 -0.2544 0.2044 0
M  V30 16 C -0.8157 -0.8953 -1.1418 0
M  V30 17 C -0.6998 -2.423 -1.268 0 CFG=2
M  V30 18 N -1.5722 -3.1253 -0.2641 0
M  V30 19 C 0.7045 -2.999 -1.0614 0
M  V30 20 S -3.0303 -3.8144 -0.8271 0
M  V30 21 C -0.7218 -4.1018 0.4742 0
M  V30 22 C 0.6894 -3.565 0.3439 0
M  V30 23 O -2.721 -4.5917 -2.0095 0
M  V30 24 O -3.6989 -4.4189 0.3066 0
M  V30 25 C -3.9853 -2.3973 -1.3088 0
M  V30 26 C -4.5188 -1.5823 -0.2994 0
M  V30 27 C -4.2067 -2.1348 -2.6621 0
M  V30 28 C -5.2641 -0.471 -0.7091 0
M  V30 29 C -4.9568 -1.0163 -3.0441 0
M  V30 30 N -5.8987 0.4967 0.0374 0
M  V30 31 C -5.4911 -0.1683 -2.0528 0
M  V30 32 C -6.5085 1.4048 -0.7868 0
M  V30 33 C -6.2751 1.0177 -2.0867 0
M  V30 34 H 6.981 4.4705 0.342 0
M  V30 35 H 3.9264 6.7949 2.2873 0
M  V30 36 H 5.6137 2.4581 0.5564 0
M  V30 37 H 2.5366 4.7619 2.5158 0
M  V30 38 H 4.5488 0.9309 1.6317 0
M  V30 39 H 3.0794 -0.8828 2.1694 0
M  V30 40 H 2.7908 0.4146 3.3365 0
M  V30 41 H 3.6188 -0.155 -0.349 0
M  V30 42 H 3.6549 1.5714 -0.7114 0
M  V30 43 H 0.7567 1.1211 2.1607 0
M  V30 44 H 0.6989 -0.6 2.5476 0
M  V30 45 H 1.2668 1.8085 -0.201 0
M  V30 46 H 1.5605 0.5581 -1.4092 0
M  V30 47 H -0.8724 0.7574 0.238 0
M  V30 48 H -0.9572 -0.8199 0.9934 0
M  V30 49 H -1.8546 -0.6131 -1.3452 0
M  V30 50 H -0.2422 -0.4356 -1.9542 0
M  V30 51 H -1.0125 -2.6812 -2.2872 0
M  V30 52 H 0.8612 -3.8215 -1.7716 0
M  V30 53 H 1.5092 -2.2783 -1.2282 0
M  V30 54 H -0.7838 -5.0964 0.0179 0
M  V30 55 H -1.03 -4.165 1.5216 0
M  V30 56 H 1.444 -4.3434 0.4899 0
M  V30 57 H 0.8672 -2.7864 1.09 0
M  V30 58 H -4.355 -1.8047 0.7509 0
M  V30 59 H -3.8009 -2.7904 -3.4295 0
M  V30 60 H -5.1289 -0.8069 -4.0963 0
M  V30 61 H -5.9119 0.5252 1.048 0
M  V30 62 H -7.0588 2.2422 -0.3789 0
M  V30 63 H -6.6328 1.5298 -2.9704 0
M  V30 END ATOM
M  V30 BEGIN BOND
M  V30 1 1 1 2
M  V30 2 2 2 3
M  V30 3 1 2 4
M  V30 4 1 3 5
M  V30 5 2 4 6
M  V30 6 2 5 7
M  V30 7 1 7 8
M  V30 8 1 8 9
M  V30 9 1 9 10
M  V30 10 1 9 11
M  V30 11 1 10 12
M  V30 12 1 11 13
M  V30 13 1 12 14
M  V30 14 1 14 15
M  V30 15 1 15 16
M  V30 16 1 16 17
M  V30 17 1 17 18
M  V30 18 1 17 19
M  V30 19 1 18 20
M  V30 20 1 18 21
M  V30 21 1 19 22
M  V30 22 2 20 23
M  V30 23 2 20 24
M  V30 24 1 20 25
M  V30 25 2 25 26
M  V30 26 1 25 27
M  V30 27 1 26 28
M  V30 28 2 27 29
M  V30 29 1 28 30
M  V30 30 2 28 31
M  V30 31 1 30 32
M  V30 32 1 31 33
M  V30 33 1 6 7
M  V30 34 1 13 14
M  V30 35 1 21 22
M  V30 36 1 29 31
M  V30 37 2 32 33
M  V30 38 1 3 34
M  V30 39 1 4 35
M  V30 40 1 5 36
M  V30 41 1 6 37
M  V30 42 1 9 38
M  V30 43 1 10 39
M  V30 44 1 10 40
M  V30 45 1 11 41
M  V30 46 1 11 42
M  V30 47 1 12 43
M  V30 48 1 12 44
M  V30 49 1 13 45
M  V30 50 1 13 46
M  V30 51 1 15 47
M  V30 52 1 15 48
M  V30 53 1 16 49
M  V30 54 1 16 50
M  V30 55 1 17 51
M  V30 56 1 19 52
M  V30 57 1 19 53
M  V30 58 1 21 54
M  V30 59 1 21 55
M  V30 60 1 22 56
M  V30 61 1 22 57
M  V30 62 1 26 58
M  V30 63 1 27 59
M  V30 64 1 29 60
M  V30 65 1 30 61
M  V30 66 1 32 62
M  V30 67 1 33 63
M  V30 END BOND
M  V30 BEGIN COLLECTION
M  V30 MDLV30/STERAC1 ATOMS=(1 17)
M  V30 END COLLECTION
M  V30 END CTAB
M  END
>  <NO.>
482

>  <Name>
sb 656104a

>  <SMILES>
O=S(=O)(c1ccc2cc[nH]c2c1)N1CCCC1CCN1CCC(Oc2ccc(Cl)cc2)CC1

>  <logBB>
-0.1

>  <Class>
1

>  <MW>
487.17

>  <nHBAcc>
4

>  <nHBDon>
1

>  <SLogP>
4.91

>  <TopoPSA>
65.64

>  <MMFF94 Energy>
4.1728

$$$$
OCc1ncc2n1-c1ccc(Cl)cc1C(c1ccccc1F)=NC2
Actelion Java MolfileCreator 2.0

  0  0  0  0  0  0              0 V3000
M  V30 BEGIN CTAB
M  V30 COUNTS 37 40 0 0 0
M  V30 BEGIN ATOM
M  V30 1 Cl -4.7428 0.4082 -0.6531 0
M  V30 2 C -3.194 0.2897 0.0855 0
M  V30 3 C -2.1415 -0.3046 -0.6088 0
M  V30 4 C -3.006 0.7771 1.3757 0
M  V30 5 C -0.8722 -0.4047 -0.0164 0
M  V30 6 C -1.7524 0.6763 1.9809 0
M  V30 7 C 0.2177 -1.0633 -0.8056 0
M  V30 8 C -0.6786 0.105 1.2811 0
M  V30 9 N 1.0724 -1.9108 -0.3402 0
M  V30 10 C 0.3416 -0.6971 -2.2388 0
M  V30 11 N 0.5744 -0.0147 1.9275 0
M  V30 12 C 1.0204 -2.3117 1.0586 0
M  V30 13 C 0.2677 -1.6839 -3.221 0
M  V30 14 C 0.5436 0.6397 -2.6014 0
M  V30 15 C 1.3592 -1.1451 1.8968 0
M  V30 16 C 1.2504 0.909 2.7108 0
M  V30 17 F 0.0338 -2.964 -2.8983 0
M  V30 18 C 0.3875 -1.3465 -4.5663 0
M  V30 19 C 0.6651 0.977 -3.9513 0
M  V30 20 C 2.4114 -0.8931 2.7436 0
M  V30 21 N 2.3253 0.369 3.2609 0
M  V30 22 C 0.8482 2.3281 2.8994 0
M  V30 23 C 0.5871 -0.0144 -4.9322 0
M  V30 24 O 0.2254 2.4216 4.1755 0
M  V30 25 H -2.3252 -0.7058 -1.6028 0
M  V30 26 H -3.8333 1.2238 1.923 0
M  V30 27 H -1.6433 1.0274 3.0061 0
M  V30 28 H 1.754 -3.1104 1.2156 0
M  V30 29 H 0.0439 -2.7365 1.3208 0
M  V30 30 H 0.6255 1.4155 -1.8451 0
M  V30 31 H 0.3225 -2.1247 -5.3205 0
M  V30 32 H 0.8292 2.0129 -4.2403 0
M  V30 33 H 3.235 -1.5503 2.9927 0
M  V30 34 H 1.7288 2.9784 2.8966 0
M  V30 35 H 0.1618 2.6949 2.133 0
M  V30 36 H 0.6851 0.2507 -5.9824 0
M  V30 37 H 0.8693 2.0383 4.8025 0
M  V30 END ATOM
M  V30 BEGIN BOND
M  V30 1 1 1 2
M  V30 2 2 2 3
M  V30 3 1 2 4
M  V30 4 1 3 5
M  V30 5 2 4 6
M  V30 6 1 5 7
M  V30 7 2 5 8
M  V30 8 2 7 9
M  V30 9 1 7 10
M  V30 10 1 8 11
M  V30 11 1 9 12
M  V30 12 2 10 13
M  V30 13 1 10 14
M  V30 14 1 11 15
M  V30 15 1 11 16
M  V30 16 1 13 17
M  V30 17 1 13 18
M  V30 18 2 14 19
M  V30 19 2 15 20
M  V30 20 2 16 21
M  V30 21 1 16 22
M  V30 22 2 18 23
M  V30 23 1 22 24
M  V30 24 1 6 8
M  V30 25 1 12 15
M  V30 26 1 19 23
M  V30 27 1 20 21
M  V30 28 1 3 25
M  V30 29 1 4 26
M  V30 30 1 6 27
M  V30 31 1 12 28
M  V30 32 1 12 29
M  V30 33 1 14 30
M  V30 34 1 18 31
M  V30 35 1 19 32
M  V30 36 1 20 33
M  V30 37 1 22 34
M  V30 38 1 22 35
M  V30 39 1 23 36
M  V30 40 1 24 37
M  V30 END BOND
M  V30 END CTAB
M  END
>  <NO.>
483

>  <Name>
59468-90-5

>  <SMILES>
OCc1ncc2n1-c1ccc(Cl)cc1C(c1ccccc1F)=NC2

>  <logBB>
-0.1

>  <Class>
1

>  <MW>
341.07

>  <nHBAcc>
3

>  <nHBDon>
1

>  <SLogP>
3.51

>  <TopoPSA>
50.41

>  <MMFF94 Energy>
77.194

$$$$
CC(C)(C)OC(=O)c1ncn2c1C1CCCN1C(=O)c1c(Br)cccc1-2
Actelion Java MolfileCreator 2.0

  0  0  0  0  0  0              0 V3000
M  V30 BEGIN CTAB
M  V30 COUNTS 46 49 0 0 0
M  V30 BEGIN ATOM
M  V30 1 Br 2.1925 -5.3658 2.1925 0
M  V30 2 C 1.227 -3.8634 2.8528 0
M  V30 3 C 0.459 -3.0118 2.0385 0
M  V30 4 C 1.3742 -3.5933 4.2206 0
M  V30 5 C 0.2191 -3.3594 0.6122 0
M  V30 6 C -0.1299 -1.872 2.6238 0
M  V30 7 C 0.7688 -2.4756 4.7907 0
M  V30 8 O -0.1329 -4.4978 0.3202 0
M  V30 9 N 0.3688 -2.3667 -0.3311 0
M  V30 10 N -0.8465 -0.9274 1.8508 0
M  V30 11 C 0.0246 -1.6087 3.9958 0
M  V30 12 C 0.7188 -0.9734 -0.0835 0 CFG=2
M  V30 13 C 0.1571 -2.6379 -1.7439 0
M  V30 14 C -0.4611 -0.3965 0.6266 0
M  V30 15 C -2.0122 -0.3076 2.2168 0
M  V30 16 C 1.0549 -0.4577 -1.479 0
M  V30 17 C 0.1509 -1.2678 -2.4012 0
M  V30 18 C -1.3958 0.6046 0.3697 0
M  V30 19 N -2.3617 0.6221 1.3638 0
M  V30 20 C -1.4578 1.5538 -0.7389 0
M  V30 21 O -2.3946 1.6115 -1.5238 0
M  V30 22 O -0.3748 2.3826 -0.7435 0
M  V30 23 C -0.3049 3.5002 -1.6662 0
M  V30 24 C -0.2897 3.0381 -3.128 0
M  V30 25 C 1.0396 4.1754 -1.3544 0
M  V30 26 C -1.4307 4.5057 -1.3986 0
M  V30 27 H 1.9695 -4.2505 4.852 0
M  V30 28 H 0.893 -2.2733 5.8527 0
M  V30 29 H -0.4079 -0.7228 4.4586 0
M  V30 30 H 1.604 -0.9168 0.5611 0
M  V30 31 H -0.774 -3.1904 -1.9019 0
M  V30 32 H 0.9949 -3.2498 -2.096 0
M  V30 33 H -2.5596 -0.5697 3.1132 0
M  V30 34 H 0.9647 0.6163 -1.6148 0
M  V30 35 H 2.0978 -0.7143 -1.7112 0
M  V30 36 H -0.863 -0.853 -2.4049 0
M  V30 37 H 0.5106 -1.2969 -3.4333 0
M  V30 38 H -1.2442 2.5983 -3.4309 0
M  V30 39 H -0.087 3.8746 -3.8058 0
M  V30 40 H 0.475 2.2711 -3.289 0
M  V30 41 H 1.8697 3.4736 -1.4975 0
M  V30 42 H 1.213 5.0506 -1.9892 0
M  V30 43 H 1.0821 4.4941 -0.3062 0
M  V30 44 H -2.4121 4.0993 -1.6617 0
M  V30 45 H -1.4744 4.7668 -0.3351 0
M  V30 46 H -1.2903 5.4251 -1.9773 0
M  V30 END ATOM
M  V30 BEGIN BOND
M  V30 1 1 1 2
M  V30 2 2 2 3
M  V30 3 1 2 4
M  V30 4 1 3 5
M  V30 5 1 3 6
M  V30 6 2 4 7
M  V30 7 2 5 8
M  V30 8 1 5 9
M  V30 9 1 6 10
M  V30 10 2 6 11
M  V30 11 1 9 12
M  V30 12 1 9 13
M  V30 13 1 10 14
M  V30 14 1 10 15
M  V30 15 1 12 16
M  V30 16 1 13 17
M  V30 17 2 14 18
M  V30 18 2 15 19
M  V30 19 1 18 20
M  V30 20 2 20 21
M  V30 21 1 20 22
M  V30 22 1 22 23
M  V30 23 1 23 24
M  V30 24 1 23 25
M  V30 25 1 23 26
M  V30 26 1 7 11
M  V30 27 1 12 14
M  V30 28 1 16 17
M  V30 29 1 18 19
M  V30 30 1 4 27
M  V30 31 1 7 28
M  V30 32 1 11 29
M  V30 33 1 12 30
M  V30 34 1 13 31
M  V30 35 1 13 32
M  V30 36 1 15 33
M  V30 37 1 16 34
M  V30 38 1 16 35
M  V30 39 1 17 36
M  V30 40 1 17 37
M  V30 41 1 24 38
M  V30 42 1 24 39
M  V30 43 1 24 40
M  V30 44 1 25 41
M  V30 45 1 25 42
M  V30 46 1 25 43
M  V30 47 1 26 44
M  V30 48 1 26 45
M  V30 49 1 26 46
M  V30 END BOND
M  V30 BEGIN COLLECTION
M  V30 MDLV30/STERAC1 ATOMS=(1 12)
M  V30 END COLLECTION
M  V30 END CTAB
M  END
>  <NO.>
484

>  <Name>
84379-13-5

>  <SMILES>
CC(C)(C)OC(=O)c1ncn2c1C1CCCN1C(=O)c1c(Br)cccc1-2

>  <logBB>
-0.09

>  <Class>
1

>  <MW>
417.07

>  <nHBAcc>
4

>  <nHBDon>
0

>  <SLogP>
3.88

>  <TopoPSA>
64.43

>  <MMFF94 Energy>
71.175

$$$$
CC(C)(C)OC(=O)c1ncn2c1C1CCCN1C(=O)c1cc(Br)ccc1-2
Actelion Java MolfileCreator 2.0

  0  0  0  0  0  0              0 V3000
M  V30 BEGIN CTAB
M  V30 COUNTS 46 49 0 0 0
M  V30 BEGIN ATOM
M  V30 1 Br -4.2253 6.506 -1.055 0
M  V30 2 C -3.3751 4.8814 -0.5973 0
M  V30 3 C -2.0382 4.6807 -0.9344 0
M  V30 4 C -4.0921 3.893 0.0718 0
M  V30 5 C -1.3983 3.4731 -0.6087 0
M  V30 6 C -3.4649 2.6947 0.4179 0
M  V30 7 C 0.0315 3.3611 -1.0039 0
M  V30 8 C -2.1152 2.484 0.0858 0
M  V30 9 O 0.7349 4.3671 -0.9657 0
M  V30 10 N 0.4987 2.1411 -1.4339 0
M  V30 11 N -1.5081 1.27 0.4894 0
M  V30 12 C -0.2867 0.9293 -1.6297 0 CFG=2
M  V30 13 C 1.8736 1.9755 -1.8747 0
M  V30 14 C -0.6565 0.462 -0.2594 0
M  V30 15 C -1.6807 0.6733 1.7078 0
M  V30 16 C 0.601 0.0836 -2.529 0
M  V30 17 C 2.0174 0.484 -2.1288 0
M  V30 18 C -0.3704 -0.6215 0.5787 0
M  V30 19 N -1.0346 -0.4583 1.7915 0
M  V30 20 C 0.4714 -1.8114 0.3709 0
M  V30 21 O 0.9862 -2.1213 -0.6936 0
M  V30 22 O 0.6041 -2.5393 1.518 0
M  V30 23 C 1.3931 -3.7535 1.5561 0
M  V30 24 C 0.8082 -4.8278 0.633 0
M  V30 25 C 1.2839 -4.2432 3.0084 0
M  V30 26 C 2.867 -3.4702 1.2457 0
M  V30 27 H -1.484 5.4617 -1.4533 0
M  V30 28 H -5.1372 4.0475 0.3314 0
M  V30 29 H -4.0493 1.9357 0.9356 0
M  V30 30 H -1.204 1.1745 -2.1809 0
M  V30 31 H 2.0054 2.5552 -2.7953 0
M  V30 32 H 2.5703 2.3515 -1.1193 0
M  V30 33 H -2.2777 1.1088 2.4989 0
M  V30 34 H 0.449 0.4018 -3.5706 0
M  V30 35 H 0.3931 -0.9843 -2.5169 0
M  V30 36 H 2.3242 -0.0204 -1.2073 0
M  V30 37 H 2.7577 0.2615 -2.9022 0
M  V30 38 H 0.922 -4.5666 -0.4232 0
M  V30 39 H 1.3 -5.7946 0.7854 0
M  V30 40 H -0.2658 -4.9511 0.812 0
M  V30 41 H 0.2373 -4.422 3.2817 0
M  V30 42 H 1.8463 -5.1689 3.1695 0
M  V30 43 H 1.6594 -3.4843 3.7049 0
M  V30 44 H 3.018 -3.1838 0.2006 0
M  V30 45 H 3.2399 -2.6396 1.8557 0
M  V30 46 H 3.4905 -4.3502 1.4368 0
M  V30 END ATOM
M  V30 BEGIN BOND
M  V30 1 1 1 2
M  V30 2 2 2 3
M  V30 3 1 2 4
M  V30 4 1 3 5
M  V30 5 2 4 6
M  V30 6 1 5 7
M  V30 7 2 5 8
M  V30 8 2 7 9
M  V30 9 1 7 10
M  V30 10 1 8 11
M  V30 11 1 10 12
M  V30 12 1 10 13
M  V30 13 1 11 14
M  V30 14 1 11 15
M  V30 15 1 12 16
M  V30 16 1 13 17
M  V30 17 2 14 18
M  V30 18 2 15 19
M  V30 19 1 18 20
M  V30 20 2 20 21
M  V30 21 1 20 22
M  V30 22 1 22 23
M  V30 23 1 23 24
M  V30 24 1 23 25
M  V30 25 1 23 26
M  V30 26 1 6 8
M  V30 27 1 12 14
M  V30 28 1 16 17
M  V30 29 1 18 19
M  V30 30 1 3 27
M  V30 31 1 4 28
M  V30 32 1 6 29
M  V30 33 1 12 30
M  V30 34 1 13 31
M  V30 35 1 13 32
M  V30 36 1 15 33
M  V30 37 1 16 34
M  V30 38 1 16 35
M  V30 39 1 17 36
M  V30 40 1 17 37
M  V30 41 1 24 38
M  V30 42 1 24 39
M  V30 43 1 24 40
M  V30 44 1 25 41
M  V30 45 1 25 42
M  V30 46 1 25 43
M  V30 47 1 26 44
M  V30 48 1 26 45
M  V30 49 1 26 46
M  V30 END BOND
M  V30 BEGIN COLLECTION
M  V30 MDLV30/STERAC1 ATOMS=(1 12)
M  V30 END COLLECTION
M  V30 END CTAB
M  END
>  <NO.>
486

>  <Name>
bretazenil

>  <SMILES>
CC(C)(C)OC(=O)c1ncn2c1C1CCCN1C(=O)c1cc(Br)ccc1-2

>  <logBB>
-0.09

>  <Class>
1

>  <MW>
417.07

>  <nHBAcc>
4

>  <nHBDon>
0

>  <SLogP>
3.88

>  <TopoPSA>
64.43

>  <MMFF94 Energy>
60.019

$$$$
COC1/C=C\C=C(\C)C(=O)NC2=CC(=O)C(NCCN(C)C)=C(CC(C)CC(OC)C(O)C(C)/C=C(/C)C1OC(N)=O)C2=O
Actelion Java MolfileCreator 2.0

  0  0  0  0  0  0              0 V3000
M  V30 BEGIN CTAB
M  V30 COUNTS 92 93 0 0 0
M  V30 BEGIN ATOM
M  V30 1 O 3.3853 0.6291 3.7007 0
M  V30 2 C 3.4044 0.9848 2.5328 0
M  V30 3 N 3.4252 0.1814 1.4131 0
M  V30 4 C 3.5578 2.4228 2.1683 0
M  V30 5 C 2.9934 -1.1259 1.3107 0
M  V30 6 C 2.5144 3.1275 1.6874 0
M  V30 7 C 4.9186 2.9939 2.4075 0
M  V30 8 C 1.8238 -1.6397 2.0971 0
M  V30 9 C 3.5495 -1.9155 0.3902 0
M  V30 10 C 1.154 2.6427 1.5757 0
M  V30 11 O 1.3116 -1.0058 3.0124 0
M  V30 12 C 1.1769 -2.9092 1.6189 0
M  V30 13 C 3.1194 -3.3018 0.1705 0
M  V30 14 C 0.0983 3.3039 1.0756 0
M  V30 15 C 1.7748 -3.7215 0.7194 0
M  V30 16 C -0.2194 -3.1437 2.1764 0
M  V30 17 O 3.8462 -4.0324 -0.4974 0
M  V30 18 C 0.0175 4.6611 0.4229 0
M  V30 19 N 1.2004 -4.8853 0.2238 0
M  V30 20 C -1.31 -2.1226 1.7252 0
M  V30 21 O -0.717 5.525 1.3169 0
M  V30 22 C -0.7803 4.6087 -0.9231 0
M  V30 23 C 1.7008 -5.7797 -0.8108 0
M  V30 24 C -1.1466 -1.6454 0.2642 0
M  V30 25 C -2.6927 -2.7402 1.9539 0
M  V30 26 C 0.081 6.0582 2.3653 0
M  V30 27 O -0.8566 5.9632 -1.4402 0
M  V30 28 C -0.1515 3.732 -2.0092 0
M  V30 29 C 0.6887 -6.9311 -1.0364 0
M  V30 30 C -1.9659 -0.396 -0.1706 0
M  V30 31 C -2.0458 6.3331 -1.957 0
M  V30 32 C -0.6107 2.5165 -2.3819 0
M  V30 33 C 1.0563 4.3118 -2.7047 0
M  V30 34 N -0.7297 -6.4944 -1.0892 0
M  V30 35 O -2.1209 0.4893 0.9405 0
M  V30 36 C -1.1681 0.331 -1.2997 0
M  V30 37 O -3.048 5.6474 -2.0763 0
M  V30 38 N -1.986 7.624 -2.3552 0
M  V30 39 C -1.7329 1.709 -1.7458 0
M  V30 40 C -1.609 -7.6666 -1.1064 0
M  V30 41 C -0.9878 -5.6638 -2.269 0
M  V30 42 C -3.4623 0.9083 1.1612 0
M  V30 43 O -0.989 -0.5432 -2.4246 0
M  V30 44 C -2.9099 1.5992 -2.7145 0
M  V30 45 H 3.8486 0.591 0.5898 0
M  V30 46 H 2.6798 4.1703 1.4287 0
M  V30 47 H 5.1887 2.9134 3.4656 0
M  V30 48 H 5.6677 2.4568 1.8165 0
M  V30 49 H 4.9713 4.0519 2.1299 0
M  V30 50 H 4.3905 -1.5996 -0.2154 0
M  V30 51 H 0.9412 1.6611 2.0067 0
M  V30 52 H -0.864 2.7992 1.162 0
M  V30 53 H -0.5692 -4.1544 1.9449 0
M  V30 54 H -0.1654 -3.1336 3.2743 0
M  V30 55 H 1.001 5.1051 0.2335 0
M  V30 56 H 0.2316 -5.0855 0.4658 0
M  V30 57 H -1.2195 -1.2532 2.3877 0
M  V30 58 H -1.7955 4.2755 -0.6811 0
M  V30 59 H 2.6586 -6.2179 -0.5104 0
M  V30 60 H 1.8437 -5.2272 -1.746 0
M  V30 61 H -1.3504 -2.4713 -0.4298 0
M  V30 62 H -0.0939 -1.3905 0.1125 0
M  V30 63 H -3.4945 -2.0395 1.7145 0
M  V30 64 H -2.8346 -3.6303 1.3309 0
M  V30 65 H -2.8142 -3.038 3.0009 0
M  V30 66 H 0.9248 6.6237 1.9582 0
M  V30 67 H -0.54 6.7406 2.9521 0
M  V30 68 H 0.4399 5.2671 3.0291 0
M  V30 69 H 0.9681 -7.4922 -1.9373 0
M  V30 70 H 0.7991 -7.6175 -0.1859 0
M  V30 71 H -2.9384 -0.738 -0.5474 0
M  V30 72 H -0.1022 1.9964 -3.1959 0
M  V30 73 H 1.8302 4.5731 -1.9761 0
M  V30 74 H 0.7868 5.2105 -3.2684 0
M  V30 75 H 1.5047 3.6058 -3.4122 0
M  V30 76 H -0.1624 0.5232 -0.8996 0
M  V30 77 H -2.8063 8.0477 -2.7602 0
M  V30 78 H -1.1386 8.1522 -2.2232 0
M  V30 79 H -2.0827 2.2362 -0.8582 0
M  V30 80 H -1.4628 -8.271 -0.2042 0
M  V30 81 H -1.4339 -8.3028 -1.9816 0
M  V30 82 H -2.6607 -7.3586 -1.1075 0
M  V30 83 H -0.7482 -6.1861 -3.2022 0
M  V30 84 H -0.4124 -4.7331 -2.2343 0
M  V30 85 H -2.0423 -5.366 -2.3035 0
M  V30 86 H -3.4649 1.6201 1.9912 0
M  V30 87 H -3.8728 1.4034 0.2773 0
M  V30 88 H -4.0945 0.0598 1.4316 0
M  V30 89 H -1.8697 -0.792 -2.7527 0
M  V30 90 H -2.6133 1.1673 -3.6765 0
M  V30 91 H -3.7067 0.9779 -2.2932 0
M  V30 92 H -3.334 2.5893 -2.9178 0
M  V30 END ATOM
M  V30 BEGIN BOND
M  V30 1 2 1 2
M  V30 2 1 2 3
M  V30 3 1 2 4
M  V30 4 1 3 5
M  V30 5 2 4 6
M  V30 6 1 4 7
M  V30 7 1 5 8
M  V30 8 2 5 9
M  V30 9 1 6 10
M  V30 10 2 8 11
M  V30 11 1 8 12
M  V30 12 1 9 13
M  V30 13 2 10 14
M  V30 14 2 12 15
M  V30 15 1 12 16
M  V30 16 2 13 17
M  V30 17 1 14 18
M  V30 18 1 15 19
M  V30 19 1 16 20
M  V30 20 1 18 21
M  V30 21 1 18 22
M  V30 22 1 19 23
M  V30 23 1 20 24
M  V30 24 1 20 25
M  V30 25 1 21 26
M  V30 26 1 22 27
M  V30 27 1 22 28
M  V30 28 1 23 29
M  V30 29 1 24 30
M  V30 30 1 27 31
M  V30 31 2 28 32
M  V30 32 1 28 33
M  V30 33 1 29 34
M  V30 34 1 30 35
M  V30 35 1 30 36
M  V30 36 2 31 37
M  V30 37 1 31 38
M  V30 38 1 32 39
M  V30 39 1 34 40
M  V30 40 1 34 41
M  V30 41 1 35 42
M  V30 42 1 36 43
M  V30 43 1 39 44
M  V30 44 1 13 15
M  V30 45 1 36 39
M  V30 46 1 3 45
M  V30 47 1 6 46
M  V30 48 1 7 47
M  V30 49 1 7 48
M  V30 50 1 7 49
M  V30 51 1 9 50
M  V30 52 1 10 51
M  V30 53 1 14 52
M  V30 54 1 16 53
M  V30 55 1 16 54
M  V30 56 1 18 55
M  V30 57 1 19 56
M  V30 58 1 20 57
M  V30 59 1 22 58
M  V30 60 1 23 59
M  V30 61 1 23 60
M  V30 62 1 24 61
M  V30 63 1 24 62
M  V30 64 1 25 63
M  V30 65 1 25 64
M  V30 66 1 25 65
M  V30 67 1 26 66
M  V30 68 1 26 67
M  V30 69 1 26 68
M  V30 70 1 29 69
M  V30 71 1 29 70
M  V30 72 1 30 71
M  V30 73 1 32 72
M  V30 74 1 33 73
M  V30 75 1 33 74
M  V30 76 1 33 75
M  V30 77 1 36 76
M  V30 78 1 38 77
M  V30 79 1 38 78
M  V30 80 1 39 79
M  V30 81 1 40 80
M  V30 82 1 40 81
M  V30 83 1 40 82
M  V30 84 1 41 83
M  V30 85 1 41 84
M  V30 86 1 41 85
M  V30 87 1 42 86
M  V30 88 1 42 87
M  V30 89 1 42 88
M  V30 90 1 43 89
M  V30 91 1 44 90
M  V30 92 1 44 91
M  V30 93 1 44 92
M  V30 END BOND
M  V30 END CTAB
M  END
>  <NO.>
487

>  <Name>
17-(dimethylaminoethylamino)-17-demethoxygeldamycin

>  <SMILES>
COC1/C=C\C=C(\C)C(=O)NC2=CC(=O)C(NCCN(C)C)=C(CC(C)CC(OC)C(O)C(C)/C=C(/C)C1OC(N)=O)C2=O

>  <logBB>
-0.09

>  <Class>
1

>  <MW>
616.35

>  <nHBAcc>
10

>  <nHBDon>
4

>  <SLogP>
1.91

>  <TopoPSA>
169.52

>  <MMFF94 Energy>
126.47

$$$$
Cn1nc(CC(=O)NC2CC[N+]3(C)CCCC2C3)c2ccccc21
Actelion Java MolfileCreator 2.0

  0  0  0  0  0  0              0 V3000
M  V30 BEGIN CTAB
M  V30 COUNTS 51 54 0 0 0
M  V30 BEGIN ATOM
M  V30 1 O 2.5475 -1.1139 1.5916 0
M  V30 2 C 1.7441 -0.2114 1.3726 0
M  V30 3 N 0.5662 -0.4182 0.6744 0
M  V30 4 C 1.9154 1.1905 1.9306 0
M  V30 5 C 0.255 -1.6806 0.0081 0
M  V30 6 C 1.6808 2.2409 0.8963 0
M  V30 7 C -0.904 -1.4764 -0.9881 0
M  V30 8 C -0.0143 -2.797 1.0252 0
M  V30 9 N 0.4387 2.459 0.4233 0
M  V30 10 C 2.6423 3.0916 0.2883 0
M  V30 11 C -2.219 -1.3009 -0.2443 0
M  V30 12 C -1.0453 -2.6156 -2.0081 0
M  V30 13 C -1.4242 -2.7982 1.5905 0
M  V30 14 N 0.6062 3.5006 -0.4252 0
M  V30 15 C 1.9097 3.9008 -0.5742 0
M  V30 16 C 4.036 3.2676 0.3763 0
M  V30 17 N -2.5144 -2.5717 0.5347 0 CHG=1
M  V30 18 C -1.5793 -3.9222 -1.4304 0
M  V30 19 C -0.5399 4.0779 -1.0878 0
M  V30 20 C 2.506 4.8923 -1.3661 0
M  V30 21 C 4.647 4.2512 -0.41 0
M  V30 22 C -2.7103 -3.7537 -0.4223 0
M  V30 23 C -3.8394 -2.374 1.2917 0
M  V30 24 C 3.8918 5.0496 -1.2668 0
M  V30 25 H 0.0799 0.4476 0.4216 0
M  V30 26 H 2.9264 1.2752 2.3439 0
M  V30 27 H 1.21 1.3159 2.7605 0
M  V30 28 H 1.1615 -1.9452 -0.5517 0
M  V30 29 H -0.7084 -0.5582 -1.5589 0
M  V30 30 H 0.6829 -2.7401 1.869 0
M  V30 31 H 0.2035 -3.7679 0.5751 0
M  V30 32 H -3.0531 -1.1309 -0.9361 0
M  V30 33 H -2.1852 -0.4675 0.4673 0
M  V30 34 H -0.088 -2.7984 -2.5103 0
M  V30 35 H -1.74 -2.2847 -2.792 0
M  V30 36 H -1.6454 -3.7453 2.0957 0
M  V30 37 H -1.5212 -1.9878 2.3238 0
M  V30 38 H 4.6392 2.654 1.0397 0
M  V30 39 H -0.7645 -4.5028 -0.9919 0
M  V30 40 H -1.9384 -4.551 -2.2554 0
M  V30 41 H -1.4536 3.6203 -0.6994 0
M  V30 42 H -0.451 3.8826 -2.1592 0
M  V30 43 H -0.5523 5.1524 -0.8889 0
M  V30 44 H 1.9257 5.5223 -2.0327 0
M  V30 45 H 5.7239 4.3947 -0.3495 0
M  V30 46 H -3.6448 -3.5652 -0.9652 0
M  V30 47 H -2.8412 -4.6573 0.1836 0
M  V30 48 H -3.7312 -1.5212 1.9688 0
M  V30 49 H -4.0518 -3.2881 1.8539 0
M  V30 50 H -4.631 -2.1773 0.5624 0
M  V30 51 H 4.3889 5.8101 -1.8663 0
M  V30 END ATOM
M  V30 BEGIN BOND
M  V30 1 2 1 2
M  V30 2 1 2 3
M  V30 3 1 2 4
M  V30 4 1 3 5
M  V30 5 1 4 6
M  V30 6 1 5 7
M  V30 7 1 5 8
M  V30 8 2 6 9
M  V30 9 1 6 10
M  V30 10 1 7 11
M  V30 11 1 7 12
M  V30 12 1 8 13
M  V30 13 1 9 14
M  V30 14 2 10 15
M  V30 15 1 10 16
M  V30 16 1 11 17
M  V30 17 1 12 18
M  V30 18 1 14 19
M  V30 19 1 15 20
M  V30 20 2 16 21
M  V30 21 1 17 22
M  V30 22 1 17 23
M  V30 23 2 20 24
M  V30 24 1 13 17
M  V30 25 1 14 15
M  V30 26 1 18 22
M  V30 27 1 21 24
M  V30 28 1 3 25
M  V30 29 1 4 26
M  V30 30 1 4 27
M  V30 31 1 5 28
M  V30 32 1 7 29
M  V30 33 1 8 30
M  V30 34 1 8 31
M  V30 35 1 11 32
M  V30 36 1 11 33
M  V30 37 1 12 34
M  V30 38 1 12 35
M  V30 39 1 13 36
M  V30 40 1 13 37
M  V30 41 1 16 38
M  V30 42 1 18 39
M  V30 43 1 18 40
M  V30 44 1 19 41
M  V30 45 1 19 42
M  V30 46 1 19 43
M  V30 47 1 20 44
M  V30 48 1 21 45
M  V30 49 1 22 46
M  V30 50 1 22 47
M  V30 51 1 23 48
M  V30 52 1 23 49
M  V30 53 1 23 50
M  V30 54 1 24 51
M  V30 END BOND
M  V30 END CTAB
M  END
>  <NO.>
489

>  <Name>
s121

>  <SMILES>
Cn1nc(CC(=O)NC2CC[N+]3(C)CCCC2C3)c2ccccc21

>  <logBB>
-0.08

>  <Class>
1

>  <MW>
327.22

>  <nHBAcc>
2

>  <nHBDon>
1

>  <SLogP>
1.86

>  <TopoPSA>
46.92

>  <MMFF94 Energy>
42.288

$$$$
CC1CCN(CCC2CCN2S(=O)(=O)c2cccc(O)c2)CC1
Actelion Java MolfileCreator 2.0

  0  0  0  0  0  0              0 V3000
M  V30 BEGIN CTAB
M  V30 COUNTS 49 51 0 0 0
M  V30 BEGIN ATOM
M  V30 1 S 1.4489 2.2546 1.8517 0
M  V30 2 O 1.7631 2.3892 0.4458 0
M  V30 3 O 1.3647 3.4095 2.7218 0
M  V30 4 N -0.0159 1.4046 1.9903 0
M  V30 5 C 2.5936 1.1007 2.5555 0
M  V30 6 C -1.3007 1.906 1.3939 0 CFG=2
M  V30 7 C -0.7196 1.1612 3.2859 0
M  V30 8 C 2.8244 -0.1069 1.8931 0
M  V30 9 C 3.2578 1.4046 3.7476 0
M  V30 10 C -1.943 1.9439 2.7956 0
M  V30 11 C -1.8991 0.8968 0.4166 0
M  V30 12 C 3.7209 -1.0138 2.4422 0
M  V30 13 C 4.1568 0.482 4.2846 0
M  V30 14 C -1.0845 0.8621 -0.8827 0
M  V30 15 O 3.9219 -2.1866 1.7775 0
M  V30 16 C 4.3891 -0.7313 3.6321 0
M  V30 17 N -1.7376 0.0673 -1.9419 0
M  V30 18 C -1.7048 -1.3731 -1.6404 0
M  V30 19 C -1.0811 0.34 -3.2331 0
M  V30 20 C -2.3971 -2.1913 -2.7349 0
M  V30 21 C -1.7553 -0.418 -4.3788 0
M  V30 22 C -1.8195 -1.9282 -4.1293 0
M  V30 23 C -0.4538 -2.5942 -4.3137 0
M  V30 24 H -1.2013 2.9072 0.9562 0
M  V30 25 H -0.8943 0.0929 3.4479 0
M  V30 26 H -0.2166 1.5844 4.1592 0
M  V30 27 H 2.3143 -0.3383 0.9616 0
M  V30 28 H 3.0848 2.3498 4.2576 0
M  V30 29 H -2.9013 1.4294 2.9053 0
M  V30 30 H -2.0224 2.9509 3.2185 0
M  V30 31 H -2.9312 1.1926 0.1904 0
M  V30 32 H -1.9432 -0.0965 0.8772 0
M  V30 33 H 4.6793 0.7101 5.2107 0
M  V30 34 H -0.9772 1.8984 -1.23 0
M  V30 35 H -0.0698 0.4916 -0.6897 0
M  V30 36 H 4.5989 -2.7012 2.2469 0
M  V30 37 H 5.0916 -1.4382 4.063 0
M  V30 38 H -2.2369 -1.5776 -0.7053 0
M  V30 39 H -0.6735 -1.7221 -1.5049 0
M  V30 40 H -1.1491 1.4112 -3.4604 0
M  V30 41 H -0.0136 0.0894 -3.1905 0
M  V30 42 H -2.3345 -3.2586 -2.4917 0
M  V30 43 H -3.4656 -1.937 -2.7418 0
M  V30 44 H -2.7777 -0.0361 -4.5016 0
M  V30 45 H -1.2311 -0.2085 -5.3186 0
M  V30 46 H -2.4955 -2.3716 -4.8716 0
M  V30 47 H -0.0769 -2.4224 -5.3275 0
M  V30 48 H -0.5322 -3.6768 -4.1682 0
M  V30 49 H 0.2942 -2.2164 -3.6109 0
M  V30 END ATOM
M  V30 BEGIN BOND
M  V30 1 2 1 2
M  V30 2 2 1 3
M  V30 3 1 1 4
M  V30 4 1 1 5
M  V30 5 1 4 6
M  V30 6 1 4 7
M  V30 7 2 5 8
M  V30 8 1 5 9
M  V30 9 1 6 10
M  V30 10 1 6 11
M  V30 11 1 8 12
M  V30 12 2 9 13
M  V30 13 1 11 14
M  V30 14 1 12 15
M  V30 15 2 12 16
M  V30 16 1 14 17
M  V30 17 1 17 18
M  V30 18 1 17 19
M  V30 19 1 18 20
M  V30 20 1 19 21
M  V30 21 1 20 22
M  V30 22 1 22 23
M  V30 23 1 7 10
M  V30 24 1 13 16
M  V30 25 1 21 22
M  V30 26 1 6 24
M  V30 27 1 7 25
M  V30 28 1 7 26
M  V30 29 1 8 27
M  V30 30 1 9 28
M  V30 31 1 10 29
M  V30 32 1 10 30
M  V30 33 1 11 31
M  V30 34 1 11 32
M  V30 35 1 13 33
M  V30 36 1 14 34
M  V30 37 1 14 35
M  V30 38 1 15 36
M  V30 39 1 16 37
M  V30 40 1 18 38
M  V30 41 1 18 39
M  V30 42 1 19 40
M  V30 43 1 19 41
M  V30 44 1 20 42
M  V30 45 1 20 43
M  V30 46 1 21 44
M  V30 47 1 21 45
M  V30 48 1 22 46
M  V30 49 1 23 47
M  V30 50 1 23 48
M  V30 51 1 23 49
M  V30 END BOND
M  V30 BEGIN COLLECTION
M  V30 MDLV30/STERAC1 ATOMS=(1 6)
M  V30 END COLLECTION
M  V30 END CTAB
M  END
>  <NO.>
490

>  <Name>
s118

>  <SMILES>
CC1CCN(CCC2CCN2S(=O)(=O)c2cccc(O)c2)CC1

>  <logBB>
-0.08

>  <Class>
1

>  <MW>
338.17

>  <nHBAcc>
4

>  <nHBDon>
1

>  <SLogP>
2.28

>  <TopoPSA>
60.85

>  <MMFF94 Energy>
-16.947

$$$$
CC1(O)NC=C2CN=C(c3ccccc3F)c3cc(Cl)ccc3N21
Actelion Java MolfileCreator 2.0

  0  0  0  0  0  0              0 V3000
M  V30 BEGIN CTAB
M  V30 COUNTS 39 42 0 0 0
M  V30 BEGIN ATOM
M  V30 1 Cl 2.2756 -2.601 -3.5777 0
M  V30 2 C 1.6961 -2.0676 -2.0496 0
M  V30 3 C 1.3984 -0.726 -1.8499 0
M  V30 4 C 1.5153 -2.9788 -1.0216 0
M  V30 5 C 0.9137 -0.2814 -0.6031 0
M  V30 6 C 1.0539 -2.5379 0.2231 0
M  V30 7 C 0.4895 1.1587 -0.529 0
M  V30 8 C 0.7575 -1.1834 0.4793 0
M  V30 9 N 0.7155 1.9838 0.4369 0
M  V30 10 C -0.3041 1.6866 -1.6694 0
M  V30 11 N 0.3651 -0.7767 1.7541 0
M  V30 12 C 1.4376 1.5245 1.6133 0
M  V30 13 C 0.1664 2.7687 -2.4115 0
M  V30 14 C -1.5355 1.1006 -1.9853 0
M  V30 15 C 0.6373 0.4839 2.3173 0
M  V30 16 C -0.4142 -1.5799 2.7161 0 CFG=1
M  V30 17 F 1.3603 3.3201 -2.1503 0
M  V30 18 C -0.58 3.2671 -3.4758 0
M  V30 19 C -2.2841 1.6019 -3.0523 0
M  V30 20 C 0.0824 0.5471 3.5396 0
M  V30 21 O 0.3334 -2.6525 3.2127 0
M  V30 22 N -0.5415 -0.6412 3.8097 0
M  V30 23 C -1.772 -2.0071 2.197 0
M  V30 24 C -1.8069 2.6835 -3.7967 0
M  V30 25 H 1.5442 -0.026 -2.669 0
M  V30 26 H 1.744 -4.0314 -1.1677 0
M  V30 27 H 0.9629 -3.2854 1.0076 0
M  V30 28 H 2.4345 1.1508 1.3504 0
M  V30 29 H 1.5996 2.3846 2.2731 0
M  V30 30 H -1.9206 0.2719 -1.397 0
M  V30 31 H -0.1985 4.1063 -4.0491 0
M  V30 32 H -3.2443 1.1548 -3.2994 0
M  V30 33 H 0.0863 1.3657 4.2452 0
M  V30 34 H 1.0975 -2.1699 3.5684 0
M  V30 35 H -1.088 -0.8254 4.6347 0
M  V30 36 H -2.3539 -2.4939 2.9881 0
M  V30 37 H -2.3521 -1.1563 1.8229 0
M  V30 38 H -1.6774 -2.7378 1.387 0
M  V30 39 H -2.393 3.0739 -4.6254 0
M  V30 END ATOM
M  V30 BEGIN BOND
M  V30 1 1 1 2
M  V30 2 2 2 3
M  V30 3 1 2 4
M  V30 4 1 3 5
M  V30 5 2 4 6
M  V30 6 1 5 7
M  V30 7 2 5 8
M  V30 8 2 7 9
M  V30 9 1 7 10
M  V30 10 1 8 11
M  V30 11 1 9 12
M  V30 12 2 10 13
M  V30 13 1 10 14
M  V30 14 1 11 15
M  V30 15 1 11 16
M  V30 16 1 13 17
M  V30 17 1 13 18
M  V30 18 2 14 19
M  V30 19 2 15 20
M  V30 20 1 16 21
M  V30 21 1 16 22
M  V30 22 1 16 23
M  V30 23 2 18 24
M  V30 24 1 6 8
M  V30 25 1 12 15
M  V30 26 1 19 24
M  V30 27 1 20 22
M  V30 28 1 3 25
M  V30 29 1 4 26
M  V30 30 1 6 27
M  V30 31 1 12 28
M  V30 32 1 12 29
M  V30 33 1 14 30
M  V30 34 1 18 31
M  V30 35 1 19 32
M  V30 36 1 20 33
M  V30 37 1 21 34
M  V30 38 1 22 35
M  V30 39 1 23 36
M  V30 40 1 23 37
M  V30 41 1 23 38
M  V30 42 1 24 39
M  V30 END BOND
M  V30 BEGIN COLLECTION
M  V30 MDLV30/STERAC1 ATOMS=(1 16)
M  V30 END COLLECTION
M  V30 END CTAB
M  END
>  <NO.>
492

>  <Name>
1-hydroxymidazolam

>  <SMILES>
CC1(O)NC=C2CN=C(c3ccccc3F)c3cc(Cl)ccc3N21

>  <logBB>
-0.07

>  <Class>
1

>  <MW>
343.09

>  <nHBAcc>
4

>  <nHBDon>
2

>  <SLogP>
3.25

>  <TopoPSA>
47.86

>  <MMFF94 Energy>
53.588

$$$$
CCC1(c2ccccc2)C(=O)NCNC1=O
Actelion Java MolfileCreator 2.0

  0  0  0  0  0  0              0 V3000
M  V30 BEGIN CTAB
M  V30 COUNTS 30 31 0 0 0
M  V30 BEGIN ATOM
M  V30 1 O -1.2681 -0.3169 -2.3788 0
M  V30 2 C -1.1941 -0.5849 -1.1801 0
M  V30 3 N -1.6046 -1.8181 -0.7496 0
M  V30 4 C -0.6012 0.3591 -0.107 0
M  V30 5 C -1.4102 -2.2412 0.5922 0
M  V30 6 C -1.3438 0.1089 1.2273 0
M  V30 7 C 0.9246 0.1085 0.0601 0
M  V30 8 C -0.7723 1.8404 -0.5444 0
M  V30 9 N -1.7428 -1.1775 1.4728 0
M  V30 10 O -1.5457 0.9693 2.0836 0
M  V30 11 C 1.7177 -0.3118 -1.0248 0
M  V30 12 C 1.5741 0.3539 1.2853 0
M  V30 13 C -2.2163 2.2896 -0.7636 0
M  V30 14 C 3.0912 -0.5231 -0.8771 0
M  V30 15 C 2.9477 0.1418 1.4304 0
M  V30 16 C 3.7047 -0.3026 0.3515 0
M  V30 17 H -1.9462 -2.4539 -1.4584 0
M  V30 18 H -0.3646 -2.527 0.7396 0
M  V30 19 H -2.0615 -3.0944 0.7977 0
M  V30 20 H -0.3246 2.5059 0.2061 0
M  V30 21 H -0.22 2.0208 -1.4766 0
M  V30 22 H -2.1839 -1.3515 2.3665 0
M  V30 23 H 1.2849 -0.4691 -2.0116 0
M  V30 24 H 1.0264 0.7298 2.1483 0
M  V30 25 H -2.2326 3.3416 -1.0677 0
M  V30 26 H -2.7082 1.7129 -1.5515 0
M  V30 27 H -2.8138 2.2027 0.148 0
M  V30 28 H 3.6826 -0.8494 -1.729 0
M  V30 29 H 3.4268 0.3367 2.3868 0
M  V30 30 H 4.774 -0.4607 0.4636 0
M  V30 END ATOM
M  V30 BEGIN BOND
M  V30 1 2 1 2
M  V30 2 1 2 3
M  V30 3 1 2 4
M  V30 4 1 3 5
M  V30 5 1 4 6
M  V30 6 1 4 7
M  V30 7 1 4 8
M  V30 8 1 5 9
M  V30 9 2 6 10
M  V30 10 2 7 11
M  V30 11 1 7 12
M  V30 12 1 8 13
M  V30 13 1 11 14
M  V30 14 2 12 15
M  V30 15 2 14 16
M  V30 16 1 6 9
M  V30 17 1 15 16
M  V30 18 1 3 17
M  V30 19 1 5 18
M  V30 20 1 5 19
M  V30 21 1 8 20
M  V30 22 1 8 21
M  V30 23 1 9 22
M  V30 24 1 11 23
M  V30 25 1 12 24
M  V30 26 1 13 25
M  V30 27 1 13 26
M  V30 28 1 13 27
M  V30 29 1 14 28
M  V30 30 1 15 29
M  V30 31 1 16 30
M  V30 END BOND
M  V30 END CTAB
M  END
>  <NO.>
493

>  <Name>
primidone

>  <SMILES>
CCC1(c2ccccc2)C(=O)NCNC1=O

>  <logBB>
-0.07

>  <Class>
1

>  <MW>
218.11

>  <nHBAcc>
2

>  <nHBDon>
2

>  <SLogP>
0.54

>  <TopoPSA>
58.2

>  <MMFF94 Energy>
-36.786

$$$$
CC[C@H](C)C(=O)O[C@H]1C[C@@H](C)C=C2C=C[C@H](C)[C@H](CC[C@@H]3C[C@@H](O)CC(=O)O3)[C@H]21
Actelion Java MolfileCreator 2.0

  0  0  0  0  0  0              0 V3000
M  V30 BEGIN CTAB
M  V30 COUNTS 65 67 0 0 0
M  V30 BEGIN ATOM
M  V30 1 O 4.7697 -1.9852 2.3826 0
M  V30 2 C 4.1183 -1.0175 2.7626 0
M  V30 3 O 2.7651 -1.0306 2.7268 0
M  V30 4 C 4.7666 0.1674 3.4171 0
M  V30 5 C 1.9901 0.179 2.5973 0 CFG=1
M  V30 6 C 4.0635 1.4692 3.1057 0 CFG=1
M  V30 7 C 2.5816 1.331 3.3964 0
M  V30 8 C 1.8287 0.5086 1.1023 0
M  V30 9 O 4.612 2.4981 3.9254 0
M  V30 10 C 1.0588 -0.5942 0.3568 0
M  V30 11 C 0.7797 -0.2567 -1.1283 0 CFG=2
M  V30 12 C -0.1097 -1.3307 -1.8383 0 CFG=2
M  V30 13 C 2.0783 0.0038 -1.9532 0 CFG=2
M  V30 14 C -0.4052 -0.9179 -3.2805 0
M  V30 15 C -1.4094 -1.6744 -1.0605 0 CFG=1
M  V30 16 C 1.7687 0.1999 -3.4149 0
M  V30 17 C 3.1484 -1.0855 -1.8209 0
M  V30 18 C 0.6344 -0.207 -3.998 0
M  V30 19 C -1.5723 -1.1908 -3.891 0
M  V30 20 O -2.0725 -0.4555 -0.6673 0
M  V30 21 C -2.343 -2.5526 -1.9026 0
M  V30 22 C -2.72 -1.9269 -3.2538 0 CFG=1
M  V30 23 C -2.8672 -0.5209 0.4365 0
M  V30 24 C -3.9394 -1.0067 -3.1515 0
M  V30 25 O -3.0656 -1.5257 1.1042 0
M  V30 26 C -3.4389 0.8539 0.7364 0 CFG=2
M  V30 27 C -2.3884 1.667 1.5054 0
M  V30 28 C -4.7588 0.7153 1.4931 0
M  V30 29 C -2.7913 3.1164 1.7304 0
M  V30 30 H 4.7989 -0.0149 4.4981 0
M  V30 31 H 5.8078 0.2326 3.0796 0
M  V30 32 H 0.9998 -0.0416 3.0139 0
M  V30 33 H 4.2346 1.7515 2.0612 0
M  V30 34 H 2.0533 2.2706 3.1955 0
M  V30 35 H 2.4492 1.1368 4.4695 0
M  V30 36 H 2.8163 0.6268 0.6466 0
M  V30 37 H 1.2943 1.4596 0.9915 0
M  V30 38 H 4.1897 3.3399 3.6796 0
M  V30 39 H 1.5895 -1.5501 0.4303 0
M  V30 40 H 0.1104 -0.7313 0.8862 0
M  V30 41 H 0.2129 0.6877 -1.1324 0
M  V30 42 H 0.4696 -2.2636 -1.9003 0
M  V30 43 H 2.5146 0.9467 -1.5984 0
M  V30 44 H -1.1262 -2.2415 -0.1643 0
M  V30 45 H 2.5175 0.7102 -4.0168 0
M  V30 46 H 2.7732 -2.0672 -2.1281 0
M  V30 47 H 4.0181 -0.855 -2.4477 0
M  V30 48 H 3.514 -1.1701 -0.7934 0
M  V30 49 H 0.4827 -0.0023 -5.0557 0
M  V30 50 H -1.7345 -0.8732 -4.92 0
M  V30 51 H -3.2532 -2.7937 -1.3409 0
M  V30 52 H -1.8333 -3.5073 -2.0914 0
M  V30 53 H -2.9985 -2.7515 -3.9234 0
M  V30 54 H -4.2695 -0.6917 -4.1482 0
M  V30 55 H -3.7288 -0.0991 -2.5776 0
M  V30 56 H -4.7799 -1.5234 -2.6758 0
M  V30 57 H -3.6594 1.3377 -0.2239 0
M  V30 58 H -2.1798 1.194 2.4735 0
M  V30 59 H -1.4412 1.6561 0.9517 0
M  V30 60 H -5.2649 1.6808 1.5888 0
M  V30 61 H -4.6018 0.3107 2.4992 0
M  V30 62 H -5.4393 0.0364 0.9669 0
M  V30 63 H -1.969 3.6654 2.2009 0
M  V30 64 H -3.0289 3.6097 0.7827 0
M  V30 65 H -3.6604 3.1939 2.3902 0
M  V30 END ATOM
M  V30 BEGIN BOND
M  V30 1 2 1 2
M  V30 2 1 2 3
M  V30 3 1 2 4
M  V30 4 1 3 5
M  V30 5 1 4 6
M  V30 6 1 5 7
M  V30 7 1 5 8
M  V30 8 1 6 9
M  V30 9 1 8 10
M  V30 10 1 10 11
M  V30 11 1 11 12
M  V30 12 1 11 13
M  V30 13 1 12 14
M  V30 14 1 12 15
M  V30 15 1 13 16
M  V30 16 1 13 17
M  V30 17 1 14 18
M  V30 18 2 14 19
M  V30 19 1 15 20
M  V30 20 1 15 21
M  V30 21 1 19 22
M  V30 22 1 20 23
M  V30 23 1 22 24
M  V30 24 2 23 25
M  V30 25 1 23 26
M  V30 26 1 26 27
M  V30 27 1 26 28
M  V30 28 1 27 29
M  V30 29 1 6 7
M  V30 30 2 16 18
M  V30 31 1 21 22
M  V30 32 1 4 30
M  V30 33 1 4 31
M  V30 34 1 5 32
M  V30 35 1 6 33
M  V30 36 1 7 34
M  V30 37 1 7 35
M  V30 38 1 8 36
M  V30 39 1 8 37
M  V30 40 1 9 38
M  V30 41 1 10 39
M  V30 42 1 10 40
M  V30 43 1 11 41
M  V30 44 1 12 42
M  V30 45 1 13 43
M  V30 46 1 15 44
M  V30 47 1 16 45
M  V30 48 1 17 46
M  V30 49 1 17 47
M  V30 50 1 17 48
M  V30 51 1 18 49
M  V30 52 1 19 50
M  V30 53 1 21 51
M  V30 54 1 21 52
M  V30 55 1 22 53
M  V30 56 1 24 54
M  V30 57 1 24 55
M  V30 58 1 24 56
M  V30 59 1 26 57
M  V30 60 1 27 58
M  V30 61 1 27 59
M  V30 62 1 28 60
M  V30 63 1 28 61
M  V30 64 1 28 62
M  V30 65 1 29 63
M  V30 66 1 29 64
M  V30 67 1 29 65
M  V30 END BOND
M  V30 BEGIN COLLECTION
M  V30 MDLV30/STEABS ATOMS=(8 5 6 11 12 13 15 22 26)
M  V30 END COLLECTION
M  V30 END CTAB
M  END
>  <NO.>
494

>  <Name>
lovastatin

>  <SMILES>
CC[C@H](C)C(=O)O[C@H]1C[C@@H](C)C=C2C=C[C@H](C)[C@H](CC[C@@H]3C[C@@H](O)CC(=O)O3)[C@H]21

>  <logBB>
-0.07

>  <Class>
1

>  <MW>
404.26

>  <nHBAcc>
5

>  <nHBDon>
1

>  <SLogP>
4.2

>  <TopoPSA>
72.83

>  <MMFF94 Energy>
20.514

$$$$
COc1cc2c(cc1OC)[C@@H]1Cc3ccc(OC)c(OC)c3CN1CC2
Actelion Java MolfileCreator 2.0

  0  0  0  0  0  0              0 V3000
M  V30 BEGIN CTAB
M  V30 COUNTS 51 54 0 0 0
M  V30 BEGIN ATOM
M  V30 1 O 3.7552 2.3157 1.357 0
M  V30 2 C 2.3937 2.5059 1.4333 0
M  V30 3 C 4.4059 3.3063 0.5618 0
M  V30 4 C 1.8255 3.6726 1.9812 0
M  V30 5 C 1.5844 1.4321 1.0099 0
M  V30 6 O 2.6919 4.6401 2.4187 0
M  V30 7 C 0.4345 3.7728 2.0565 0
M  V30 8 C 0.1895 1.5411 1.1262 0
M  V30 9 C 2.2147 0.1494 0.5144 0
M  V30 10 C 2.1448 5.7357 3.14 0
M  V30 11 C -0.376 2.7186 1.6295 0
M  V30 12 C -0.7102 0.4247 0.6591 0
M  V30 13 N 1.3411 -0.7274 -0.2791 0
M  V30 14 C 0.0324 -0.9065 0.3805 0 CFG=2
M  V30 15 C 1.1831 -0.2811 -1.6658 0
M  V30 16 C -0.8795 -1.8334 -0.4164 0
M  V30 17 C 0.4856 -1.3692 -2.4957 0
M  V30 18 C -0.6943 -2.0039 -1.7981 0
M  V30 19 C -1.9492 -2.4868 0.2199 0
M  V30 20 C -1.5697 -2.8275 -2.5226 0
M  V30 21 C -2.8258 -3.3043 -0.5029 0
M  V30 22 C -2.637 -3.4728 -1.888 0
M  V30 23 O -3.8957 -3.9688 0.0457 0
M  V30 24 O -3.541 -4.2877 -2.5249 0
M  V30 25 C -4.0411 -3.9314 1.4575 0
M  V30 26 C -3.3665 -4.5039 -3.9171 0
M  V30 27 H 3.7532 3.7321 -0.2093 0
M  V30 28 H 5.2479 2.8236 0.0559 0
M  V30 29 H 4.8127 4.0955 1.2007 0
M  V30 30 H -0.0555 4.6575 2.4489 0
M  V30 31 H 3.1192 0.3648 -0.0673 0
M  V30 32 H 2.5484 -0.4129 1.3964 0
M  V30 33 H 1.5134 6.3542 2.4941 0
M  V30 34 H 2.9769 6.3578 3.4837 0
M  V30 35 H 1.5961 5.3964 4.025 0
M  V30 36 H -1.4575 2.819 1.6991 0
M  V30 37 H -1.2266 0.7732 -0.2456 0
M  V30 38 H -1.4819 0.2483 1.4202 0
M  V30 39 H 0.2339 -1.4016 1.3416 0
M  V30 40 H 2.1622 -0.0907 -2.1228 0
M  V30 41 H 0.6203 0.6578 -1.7328 0
M  V30 42 H 1.2072 -2.1654 -2.7199 0
M  V30 43 H 0.1623 -0.9335 -3.4486 0
M  V30 44 H -2.0792 -2.3363 1.2867 0
M  V30 45 H -1.3896 -2.9531 -3.5852 0
M  V30 46 H -3.1584 -4.3412 1.9596 0
M  V30 47 H -4.8958 -4.5613 1.7226 0
M  V30 48 H -4.2584 -2.9156 1.8036 0
M  V30 49 H -3.4637 -3.5684 -4.4777 0
M  V30 50 H -4.1622 -5.1757 -4.2534 0
M  V30 51 H -2.4094 -4.9936 -4.1247 0
M  V30 END ATOM
M  V30 BEGIN BOND
M  V30 1 1 1 2
M  V30 2 1 1 3
M  V30 3 2 2 4
M  V30 4 1 2 5
M  V30 5 1 4 6
M  V30 6 1 4 7
M  V30 7 2 5 8
M  V30 8 1 5 9
M  V30 9 1 6 10
M  V30 10 2 7 11
M  V30 11 1 8 12
M  V30 12 1 9 13
M  V30 13 1 12 14
M  V30 14 1 13 15
M  V30 15 1 14 16
M  V30 16 1 15 17
M  V30 17 2 16 18
M  V30 18 1 16 19
M  V30 19 1 18 20
M  V30 20 2 19 21
M  V30 21 2 20 22
M  V30 22 1 21 23
M  V30 23 1 22 24
M  V30 24 1 23 25
M  V30 25 1 24 26
M  V30 26 1 8 11
M  V30 27 1 13 14
M  V30 28 1 17 18
M  V30 29 1 21 22
M  V30 30 1 3 27
M  V30 31 1 3 28
M  V30 32 1 3 29
M  V30 33 1 7 30
M  V30 34 1 9 31
M  V30 35 1 9 32
M  V30 36 1 10 33
M  V30 37 1 10 34
M  V30 38 1 10 35
M  V30 39 1 11 36
M  V30 40 1 12 37
M  V30 41 1 12 38
M  V30 42 1 14 39
M  V30 43 1 15 40
M  V30 44 1 15 41
M  V30 45 1 17 42
M  V30 46 1 17 43
M  V30 47 1 19 44
M  V30 48 1 20 45
M  V30 49 1 25 46
M  V30 50 1 25 47
M  V30 51 1 25 48
M  V30 52 1 26 49
M  V30 53 1 26 50
M  V30 54 1 26 51
M  V30 END BOND
M  V30 BEGIN COLLECTION
M  V30 MDLV30/STEABS ATOMS=(1 14)
M  V30 END COLLECTION
M  V30 END CTAB
M  END
>  <NO.>
496

>  <Name>
tetrahydropalmatine

>  <SMILES>
COc1cc2c(cc1OC)[C@@H]1Cc3ccc(OC)c(OC)c3CN1CC2

>  <logBB>
-0.07

>  <Class>
1

>  <MW>
355.18

>  <nHBAcc>
5

>  <nHBDon>
0

>  <SLogP>
3.38

>  <TopoPSA>
40.16

>  <MMFF94 Energy>
124.94

$$$$
C=CC
Actelion Java MolfileCreator 2.0

  0  0  0  0  0  0              0 V3000
M  V30 BEGIN CTAB
M  V30 COUNTS 9 8 0 0 0
M  V30 BEGIN ATOM
M  V30 1 C 0.2929 -0.2197 0.3662 0
M  V30 2 C -0.4404 0.5007 1.2235 0
M  V30 3 C 0.1352 -0.1718 -1.118 0
M  V30 4 H 1.0576 -0.8885 0.7551 0
M  V30 5 H -1.2144 1.1811 0.8819 0
M  V30 6 H -0.2788 0.4228 2.2944 0
M  V30 7 H -0.1174 -1.1662 -1.4983 0
M  V30 8 H -0.6521 0.5227 -1.4277 0
M  V30 9 H 1.0735 0.1464 -1.5824 0
M  V30 END ATOM
M  V30 BEGIN BOND
M  V30 1 2 1 2
M  V30 2 1 1 3
M  V30 3 1 1 4
M  V30 4 1 2 5
M  V30 5 1 2 6
M  V30 6 1 3 7
M  V30 7 1 3 8
M  V30 8 1 3 9
M  V30 END BOND
M  V30 END CTAB
M  END
>  <NO.>
498

>  <Name>
propene

>  <SMILES>
C=CC

>  <logBB>
-0.06

>  <Class>
1

>  <MW>
42.05

>  <nHBAcc>
0

>  <nHBDon>
0

>  <SLogP>
1.19

>  <TopoPSA>
0

>  <MMFF94 Energy>
6.4832

$$$$
C=CCC1(C(C)CCCC)C(=O)NC(=O)N(C)C1=O
Actelion Java MolfileCreator 2.0

  0  0  0  0  0  0              0 V3000
M  V30 BEGIN CTAB
M  V30 COUNTS 41 41 0 0 0
M  V30 BEGIN ATOM
M  V30 1 O 2.0366 -2.115 3.0562 0
M  V30 2 C 1.787 -1.1893 2.2871 0
M  V30 3 N 2.3019 -1.0796 1.0174 0
M  V30 4 N 0.9737 -0.1844 2.704 0
M  V30 5 C 2.1239 0.0228 0.1995 0
M  V30 6 C 3.2365 -2.1017 0.5779 0
M  V30 7 C 0.5217 0.8748 1.9796 0
M  V30 8 O 2.8405 0.2006 -0.7899 0
M  V30 9 C 0.9829 0.9892 0.5339 0
M  V30 10 O -0.278 1.6479 2.5054 0
M  V30 11 C -0.249 0.6864 -0.4075 0
M  V30 12 C 1.5617 2.435 0.3536 0
M  V30 13 C -0.8491 -0.729 -0.1786 0
M  V30 14 C 0.0628 0.8897 -1.9008 0
M  V30 15 C 0.5773 3.5806 0.3396 0
M  V30 16 C -2.1564 -0.9767 -0.9425 0
M  V30 17 C 0.437 4.4404 -0.6775 0
M  V30 18 C -2.7735 -2.323 -0.5588 0
M  V30 19 C -4.0659 -2.5798 -1.3173 0
M  V30 20 H 0.6265 -0.2607 3.6502 0
M  V30 21 H 3.0268 -3.0639 1.054 0
M  V30 22 H 3.188 -2.226 -0.5081 0
M  V30 23 H 4.2474 -1.7831 0.8519 0
M  V30 24 H -1.0417 1.4024 -0.1486 0
M  V30 25 H 2.2689 2.6315 1.1727 0
M  V30 26 H 2.1697 2.4926 -0.5583 0
M  V30 27 H -0.1215 -1.4965 -0.4681 0
M  V30 28 H -1.0564 -0.8721 0.8873 0
M  V30 29 H 0.6668 0.0687 -2.3 0
M  V30 30 H 0.5934 1.8237 -2.095 0
M  V30 31 H -0.8609 0.9348 -2.4869 0
M  V30 32 H -0.036 3.7294 1.2271 0
M  V30 33 H -1.9708 -0.9681 -2.022 0
M  V30 34 H -2.8686 -0.1719 -0.7246 0
M  V30 35 H 1.0291 4.3601 -1.5838 0
M  V30 36 H -0.2809 5.2533 -0.62 0
M  V30 37 H -2.0644 -3.1313 -0.7716 0
M  V30 38 H -2.9789 -2.3461 0.5177 0
M  V30 39 H -4.49 -3.5461 -1.0272 0
M  V30 40 H -4.808 -1.8045 -1.1014 0
M  V30 41 H -3.8902 -2.5964 -2.3976 0
M  V30 END ATOM
M  V30 BEGIN BOND
M  V30 1 2 1 2
M  V30 2 1 2 3
M  V30 3 1 2 4
M  V30 4 1 3 5
M  V30 5 1 3 6
M  V30 6 1 4 7
M  V30 7 2 5 8
M  V30 8 1 5 9
M  V30 9 2 7 10
M  V30 10 1 9 11
M  V30 11 1 9 12
M  V30 12 1 11 13
M  V30 13 1 11 14
M  V30 14 1 12 15
M  V30 15 1 13 16
M  V30 16 2 15 17
M  V30 17 1 16 18
M  V30 18 1 18 19
M  V30 19 1 7 9
M  V30 20 1 4 20
M  V30 21 1 6 21
M  V30 22 1 6 22
M  V30 23 1 6 23
M  V30 24 1 11 24
M  V30 25 1 12 25
M  V30 26 1 12 26
M  V30 27 1 13 27
M  V30 28 1 13 28
M  V30 29 1 14 29
M  V30 30 1 14 30
M  V30 31 1 14 31
M  V30 32 1 15 32
M  V30 33 1 16 33
M  V30 34 1 16 34
M  V30 35 1 17 35
M  V30 36 1 17 36
M  V30 37 1 18 37
M  V30 38 1 18 38
M  V30 39 1 19 39
M  V30 40 1 19 40
M  V30 41 1 19 41
M  V30 END BOND
M  V30 END CTAB
M  END
>  <NO.>
499

>  <Name>
5-allyl-1-methyl-5-(1-methylpentyl)barbituric acid

>  <SMILES>
C=CCC1(C(C)CCCC)C(=O)NC(=O)N(C)C1=O

>  <logBB>
-0.06

>  <Class>
1

>  <MW>
266.16

>  <nHBAcc>
3

>  <nHBDon>
1

>  <SLogP>
2.08

>  <TopoPSA>
66.48

>  <MMFF94 Energy>
-98.668

$$$$
CN1C2CCC1CC(OC(=O)C(CO)c1ccccc1)C2
Actelion Java MolfileCreator 2.0

  0  0  0  0  0  0              0 V3000
M  V30 BEGIN CTAB
M  V30 COUNTS 44 46 0 0 0
M  V30 BEGIN ATOM
M  V30 1 O 1.5942 0.0 1.8335 0
M  V30 2 C 0.6303 0.66 1.4624 0
M  V30 3 O 0.0514 0.5562 0.2314 0
M  V30 4 C -0.0946 1.6687 2.3379 0
M  V30 5 C 0.6423 -0.3972 -0.6731 0
M  V30 6 C -1.2609 1.0386 3.0867 0
M  V30 7 C -0.4953 2.9136 1.5333 0
M  V30 8 C -0.4176 -0.78 -1.7175 0
M  V30 9 C 1.8983 0.1933 -1.334 0
M  V30 10 C -1.2567 1.0165 4.4902 0
M  V30 11 C -2.3533 0.4702 2.4113 0
M  V30 12 O -0.6312 4.0404 2.4015 0
M  V30 13 C 0.1989 -1.4541 -2.9557 0
M  V30 14 C 2.299 -0.5702 -2.6087 0
M  V30 15 C -2.313 0.4399 5.1981 0
M  V30 16 C -3.4086 -0.1063 3.1214 0
M  V30 17 N 1.1454 -0.4762 -3.5224 0
M  V30 18 C 1.0692 -2.6594 -2.5837 0
M  V30 19 C 2.464 -2.0722 -2.352 0
M  V30 20 C -3.388 -0.1218 4.5139 0
M  V30 21 C 1.4989 -0.7698 -4.91 0
M  V30 22 H 0.6516 1.9984 3.0753 0
M  V30 23 H 0.9059 -1.3043 -0.1137 0
M  V30 24 H -1.4397 2.7768 0.9957 0
M  V30 25 H 0.2783 3.1692 0.8007 0
M  V30 26 H -0.9785 0.1144 -2.022 0
M  V30 27 H -1.1564 -1.4445 -1.2518 0
M  V30 28 H 2.7291 0.183 -0.618 0
M  V30 29 H 1.7269 1.2521 -1.5716 0
M  V30 30 H -0.429 1.454 5.0455 0
M  V30 31 H -2.3968 0.4686 1.3244 0
M  V30 32 H -0.9848 4.7725 1.867 0
M  V30 33 H -0.6032 -1.7236 -3.6518 0
M  V30 34 H 3.2082 -0.1202 -3.023 0
M  V30 35 H -2.2956 0.4315 6.2849 0
M  V30 36 H -4.2479 -0.5433 2.5868 0
M  V30 37 H 0.6992 -3.1937 -1.7025 0
M  V30 38 H 1.1088 -3.3775 -3.4113 0
M  V30 39 H 3.1683 -2.5116 -3.0683 0
M  V30 40 H 2.8376 -2.2917 -1.3464 0
M  V30 41 H -4.2097 -0.57 5.0661 0
M  V30 42 H 1.9409 -1.7608 -5.0554 0
M  V30 43 H 2.2103 -0.0239 -5.2811 0
M  V30 44 H 0.6097 -0.699 -5.5461 0
M  V30 END ATOM
M  V30 BEGIN BOND
M  V30 1 2 1 2
M  V30 2 1 2 3
M  V30 3 1 2 4
M  V30 4 1 3 5
M  V30 5 1 4 6
M  V30 6 1 4 7
M  V30 7 1 5 8
M  V30 8 1 5 9
M  V30 9 2 6 10
M  V30 10 1 6 11
M  V30 11 1 7 12
M  V30 12 1 8 13
M  V30 13 1 9 14
M  V30 14 1 10 15
M  V30 15 2 11 16
M  V30 16 1 13 17
M  V30 17 1 13 18
M  V30 18 1 14 19
M  V30 19 2 15 20
M  V30 20 1 17 21
M  V30 21 1 14 17
M  V30 22 1 16 20
M  V30 23 1 18 19
M  V30 24 1 4 22
M  V30 25 1 5 23
M  V30 26 1 7 24
M  V30 27 1 7 25
M  V30 28 1 8 26
M  V30 29 1 8 27
M  V30 30 1 9 28
M  V30 31 1 9 29
M  V30 32 1 10 30
M  V30 33 1 11 31
M  V30 34 1 12 32
M  V30 35 1 13 33
M  V30 36 1 14 34
M  V30 37 1 15 35
M  V30 38 1 16 36
M  V30 39 1 18 37
M  V30 40 1 18 38
M  V30 41 1 19 39
M  V30 42 1 19 40
M  V30 43 1 20 41
M  V30 44 1 21 42
M  V30 45 1 21 43
M  V30 46 1 21 44
M  V30 END BOND
M  V30 END CTAB
M  END
>  <NO.>
500

>  <Name>
l-hyoscyamine

>  <SMILES>
CN1C2CCC1CC(OC(=O)C(CO)c1ccccc1)C2

>  <logBB>
-0.06

>  <Class>
1

>  <MW>
289.17

>  <nHBAcc>
4

>  <nHBDon>
1

>  <SLogP>
1.93

>  <TopoPSA>
49.77

>  <MMFF94 Energy>
52.464

$$$$
CCOc1ccccc1C(N)=O
Actelion Java MolfileCreator 2.0

  0  0  0  0  0  0              0 V3000
M  V30 BEGIN CTAB
M  V30 COUNTS 23 23 0 0 0
M  V30 BEGIN ATOM
M  V30 1 O 0.6224 1.5566 -1.7123 0
M  V30 2 C 0.209 0.4253 -1.9238 0
M  V30 3 N 0.3884 -0.186 -3.1342 0
M  V30 4 C -0.5317 -0.3567 -0.9076 0
M  V30 5 C -0.0496 -0.4828 0.3994 0
M  V30 6 C -1.7512 -0.954 -1.2588 0
M  V30 7 O 1.1693 0.0266 0.7597 0
M  V30 8 C -0.76 -1.2363 1.3379 0
M  V30 9 C -2.4693 -1.6875 -0.3118 0
M  V30 10 C 1.0068 1.2624 1.4674 0
M  V30 11 C -1.9717 -1.8314 0.9834 0
M  V30 12 C 2.3661 1.9297 1.5635 0
M  V30 13 H 0.1143 -1.14 -3.3185 0
M  V30 14 H 0.8986 0.324 -3.8427 0
M  V30 15 H -2.1556 -0.834 -2.2606 0
M  V30 16 H -0.3641 -1.3685 2.3412 0
M  V30 17 H -3.4171 -2.1463 -0.5831 0
M  V30 18 H 0.6276 1.0621 2.4764 0
M  V30 19 H 0.3082 1.931 0.9497 0
M  V30 20 H -2.5254 -2.4115 1.7178 0
M  V30 21 H 2.2984 2.8761 2.1072 0
M  V30 22 H 3.0806 1.2776 2.0764 0
M  V30 23 H 2.7711 2.1238 0.5649 0
M  V30 END ATOM
M  V30 BEGIN BOND
M  V30 1 2 1 2
M  V30 2 1 2 3
M  V30 3 1 2 4
M  V30 4 2 4 5
M  V30 5 1 4 6
M  V30 6 1 5 7
M  V30 7 1 5 8
M  V30 8 2 6 9
M  V30 9 1 7 10
M  V30 10 2 8 11
M  V30 11 1 10 12
M  V30 12 1 9 11
M  V30 13 1 3 13
M  V30 14 1 3 14
M  V30 15 1 6 15
M  V30 16 1 8 16
M  V30 17 1 9 17
M  V30 18 1 10 18
M  V30 19 1 10 19
M  V30 20 1 11 20
M  V30 21 1 12 21
M  V30 22 1 12 22
M  V30 23 1 12 23
M  V30 END BOND
M  V30 END CTAB
M  END
>  <NO.>
504

>  <Name>
ethenzamide

>  <SMILES>
CCOc1ccccc1C(N)=O

>  <logBB>
-0.05

>  <Class>
1

>  <MW>
165.08

>  <nHBAcc>
2

>  <nHBDon>
1

>  <SLogP>
1.18

>  <TopoPSA>
52.32

>  <MMFF94 Energy>
18.904

$$$$
Cc1c(F)c(=O)n(-c2ccccc2)n1C
Actelion Java MolfileCreator 2.0

  0  0  0  0  0  0              0 V3000
M  V30 BEGIN CTAB
M  V30 COUNTS 26 27 0 0 0
M  V30 BEGIN ATOM
M  V30 1 F 2.4656 3.2619 0.1589 0
M  V30 2 C 1.6514 2.2258 -0.0682 0
M  V30 3 C 0.9264 1.5184 1.0104 0
M  V30 4 C 1.315 1.6645 -1.2342 0
M  V30 5 O 1.0262 1.7649 2.2009 0
M  V30 6 N 0.1796 0.5281 0.3512 0
M  V30 7 N 0.4153 0.6146 -1.0449 0
M  V30 8 C 1.7832 2.0971 -2.5782 0
M  V30 9 C -0.3863 -0.602 0.9663 0
M  V30 10 C -0.6729 0.302 -1.9612 0
M  V30 11 C -1.2019 -0.4454 2.092 0
M  V30 12 C -0.1273 -1.8908 0.4838 0
M  V30 13 C -1.7676 -1.5604 2.7146 0
M  V30 14 C -0.6932 -3.0055 1.1067 0
M  V30 15 C -1.5157 -2.8391 2.2198 0
M  V30 16 H 2.5213 2.9029 -2.507 0
M  V30 17 H 0.946 2.4637 -3.1806 0
M  V30 18 H 2.2522 1.2608 -3.1063 0
M  V30 19 H -1.433 1.0904 -1.9332 0
M  V30 20 H -0.2996 0.2192 -2.9873 0
M  V30 21 H -1.1577 -0.6482 -1.7226 0
M  V30 22 H -1.4 0.5453 2.4952 0
M  V30 23 H 0.5308 -2.0355 -0.3688 0
M  V30 24 H -2.3984 -1.4291 3.5902 0
M  V30 25 H -0.4844 -4.003 0.7291 0
M  V30 26 H -1.9521 -3.7064 2.7089 0
M  V30 END ATOM
M  V30 BEGIN BOND
M  V30 1 1 1 2
M  V30 2 1 2 3
M  V30 3 2 2 4
M  V30 4 2 3 5
M  V30 5 1 3 6
M  V30 6 1 4 7
M  V30 7 1 4 8
M  V30 8 1 6 9
M  V30 9 1 7 10
M  V30 10 2 9 11
M  V30 11 1 9 12
M  V30 12 1 11 13
M  V30 13 2 12 14
M  V30 14 2 13 15
M  V30 15 1 6 7
M  V30 16 1 14 15
M  V30 17 1 8 16
M  V30 18 1 8 17
M  V30 19 1 8 18
M  V30 20 1 10 19
M  V30 21 1 10 20
M  V30 22 1 10 21
M  V30 23 1 11 22
M  V30 24 1 12 23
M  V30 25 1 13 24
M  V30 26 1 14 25
M  V30 27 1 15 26
M  V30 END BOND
M  V30 END CTAB
M  END
>  <NO.>
505

>  <Name>
56924-65-3

>  <SMILES>
Cc1c(F)c(=O)n(-c2ccccc2)n1C

>  <logBB>
-0.05

>  <Class>
1

>  <MW>
206.09

>  <nHBAcc>
1

>  <nHBDon>
0

>  <SLogP>
1.62

>  <TopoPSA>
26.93

>  <MMFF94 Energy>
90.5

$$$$
Cc1cc(=O)n(-c2ccc(F)cc2)n1C
Actelion Java MolfileCreator 2.0

  0  0  0  0  0  0              0 V3000
M  V30 BEGIN CTAB
M  V30 COUNTS 26 27 0 0 0
M  V30 BEGIN ATOM
M  V30 1 F -2.5428 3.6569 2.7019 0
M  V30 2 C -1.8601 2.6579 2.1276 0
M  V30 3 C -1.0989 2.9135 0.993 0
M  V30 4 C -1.9192 1.3829 2.6776 0
M  V30 5 C -0.3871 1.8723 0.3935 0
M  V30 6 C -1.2075 0.3411 2.0785 0
M  V30 7 C -0.4448 0.5765 0.9269 0
M  V30 8 N 0.2703 -0.48 0.3375 0
M  V30 9 N 0.5043 -0.5785 -1.047 0
M  V30 10 C 1.169 -1.3128 1.0075 0
M  V30 11 C 1.5541 -1.477 -1.2104 0
M  V30 12 C -0.6247 -0.4738 -1.961 0
M  V30 13 O 1.3319 -1.5019 2.2015 0
M  V30 14 C 2.0014 -1.9532 -0.0384 0
M  V30 15 C 2.0718 -1.8651 -2.553 0
M  V30 16 H -1.0574 3.9196 0.5884 0
M  V30 17 H -2.511 1.2071 3.5701 0
M  V30 18 H 0.2263 2.0791 -0.4796 0
M  V30 19 H -1.2484 -0.6535 2.5173 0
M  V30 20 H -1.2423 -1.3771 -1.9092 0
M  V30 21 H -0.2754 -0.3531 -2.9918 0
M  V30 22 H -1.2614 0.387 -1.7393 0
M  V30 23 H 2.7855 -2.6566 0.1679 0
M  V30 24 H 2.9325 -2.5375 -2.4722 0
M  V30 25 H 1.2989 -2.3801 -3.1322 0
M  V30 26 H 2.3922 -0.9783 -3.1094 0
M  V30 END ATOM
M  V30 BEGIN BOND
M  V30 1 1 1 2
M  V30 2 2 2 3
M  V30 3 1 2 4
M  V30 4 1 3 5
M  V30 5 2 4 6
M  V30 6 2 5 7
M  V30 7 1 7 8
M  V30 8 1 8 9
M  V30 9 1 8 10
M  V30 10 1 9 11
M  V30 11 1 9 12
M  V30 12 2 10 13
M  V30 13 1 10 14
M  V30 14 1 11 15
M  V30 15 1 6 7
M  V30 16 2 11 14
M  V30 17 1 3 16
M  V30 18 1 4 17
M  V30 19 1 5 18
M  V30 20 1 6 19
M  V30 21 1 12 20
M  V30 22 1 12 21
M  V30 23 1 12 22
M  V30 24 1 14 23
M  V30 25 1 15 24
M  V30 26 1 15 25
M  V30 27 1 15 26
M  V30 END BOND
M  V30 END CTAB
M  END
>  <NO.>
506

>  <Name>
4-fluoroantipyrine

>  <SMILES>
Cc1cc(=O)n(-c2ccc(F)cc2)n1C

>  <logBB>
-0.05

>  <Class>
1

>  <MW>
206.09

>  <nHBAcc>
1

>  <nHBDon>
0

>  <SLogP>
1.62

>  <TopoPSA>
26.93

>  <MMFF94 Energy>
58.501

$$$$
O=c1c(Br)ccc2n1CC1CNCC2C1
Actelion Java MolfileCreator 2.0

  0  0  0  0  0  0              0 V3000
M  V30 BEGIN CTAB
M  V30 COUNTS 28 30 0 0 0
M  V30 BEGIN ATOM
M  V30 1 Br -0.2455 -5.0024 1.3922 0
M  V30 2 C 0.2046 -3.242 0.9699 0
M  V30 3 C -0.7169 -2.4468 0.0875 0
M  V30 4 C 1.3291 -2.6697 1.4211 0
M  V30 5 O -1.7434 -2.9465 -0.3723 0
M  V30 6 N -0.3317 -1.1204 -0.1821 0
M  V30 7 C 1.6598 -1.3096 1.0919 0
M  V30 8 C 0.8455 -0.5654 0.3253 0
M  V30 9 C -1.1911 -0.3832 -1.1152 0
M  V30 10 C 1.1809 0.8834 0.0096 0
M  V30 11 C -0.8533 1.0957 -1.344 0
M  V30 12 C 0.5581 1.8332 1.0599 0
M  V30 13 C 0.6619 1.26 -1.3764 0
M  V30 14 C -1.4607 2.013 -0.2649 0
M  V30 15 N -0.9119 1.806 1.0781 0
M  V30 16 H 2.0207 -3.2142 2.0565 0
M  V30 17 H 2.5801 -0.904 1.5028 0
M  V30 18 H -2.2355 -0.4942 -0.7967 0
M  V30 19 H -1.1093 -0.9107 -2.0756 0
M  V30 20 H 2.2698 1.0216 0.0195 0
M  V30 21 H -1.275 1.3995 -2.3103 0
M  V30 22 H 0.8905 2.8612 0.8673 0
M  V30 23 H 0.9221 1.5779 2.0624 0
M  V30 24 H 1.1069 0.6225 -2.1505 0
M  V30 25 H 0.9302 2.2957 -1.6184 0
M  V30 26 H -1.302 3.0609 -0.5496 0
M  V30 27 H -2.547 1.871 -0.2247 0
M  V30 28 H -1.2093 0.8861 1.4116 0
M  V30 END ATOM
M  V30 BEGIN BOND
M  V30 1 1 1 2
M  V30 2 1 2 3
M  V30 3 2 2 4
M  V30 4 2 3 5
M  V30 5 1 3 6
M  V30 6 1 4 7
M  V30 7 1 6 8
M  V30 8 1 6 9
M  V30 9 1 8 10
M  V30 10 1 9 11
M  V30 11 1 10 12
M  V30 12 1 10 13
M  V30 13 1 11 14
M  V30 14 1 12 15
M  V30 15 2 7 8
M  V30 16 1 11 13
M  V30 17 1 14 15
M  V30 18 1 4 16
M  V30 19 1 7 17
M  V30 20 1 9 18
M  V30 21 1 9 19
M  V30 22 1 10 20
M  V30 23 1 11 21
M  V30 24 1 12 22
M  V30 25 1 12 23
M  V30 26 1 13 24
M  V30 27 1 13 25
M  V30 28 1 14 26
M  V30 29 1 14 27
M  V30 30 1 15 28
M  V30 END BOND
M  V30 END CTAB
M  END
>  <NO.>
507

>  <Name>
bromocytisine

>  <SMILES>
O=c1c(Br)ccc2n1CC1CNCC2C1

>  <logBB>
-0.05

>  <Class>
1

>  <MW>
268.02

>  <nHBAcc>
2

>  <nHBDon>
1

>  <SLogP>
1.32

>  <TopoPSA>
34.03

>  <MMFF94 Energy>
46.449

$$$$
O=c1cccc2n1CC1CNC(Br)C2C1
Actelion Java MolfileCreator 2.0

  0  0  0  0  0  0              0 V3000
M  V30 BEGIN CTAB
M  V30 COUNTS 28 30 0 0 0
M  V30 BEGIN ATOM
M  V30 1 Br -1.2298 -3.4463 1.3938 0
M  V30 2 C -0.7753 -1.547 1.2124 0
M  V30 3 N 0.5264 -1.2874 1.8356 0
M  V30 4 C -0.8988 -1.095 -0.262 0
M  V30 5 C 1.6508 -1.6599 0.9733 0
M  V30 6 C -0.8885 0.4263 -0.3192 0
M  V30 7 C 0.252 -1.6421 -1.108 0
M  V30 8 C 1.5467 -1.149 -0.4746 0
M  V30 9 N 0.3361 1.0975 -0.3913 0
M  V30 10 C -2.0355 1.1277 -0.2841 0
M  V30 11 C 1.6027 0.3812 -0.566 0
M  V30 12 C 0.4192 2.4956 -0.4092 0
M  V30 13 C -2.0233 2.5659 -0.2954 0
M  V30 14 O 1.469 3.1293 -0.4823 0
M  V30 15 C -0.8669 3.2345 -0.344 0
M  V30 16 H -1.5487 -1.0613 1.8193 0
M  V30 17 H 0.5827 -0.2817 2.0085 0
M  V30 18 H -1.8405 -1.4674 -0.6872 0
M  V30 19 H 1.7505 -2.7521 0.9645 0
M  V30 20 H 2.5741 -1.284 1.4299 0
M  V30 21 H 0.1729 -1.2957 -2.1464 0
M  V30 22 H 0.235 -2.7371 -1.1421 0
M  V30 23 H 2.4019 -1.5562 -1.0283 0
M  V30 24 H -3.0029 0.6365 -0.2273 0
M  V30 25 H 1.9642 0.6553 -1.5667 0
M  V30 26 H 2.3374 0.7859 0.1414 0
M  V30 27 H -2.9708 3.0932 -0.2554 0
M  V30 28 H -0.81 4.3149 -0.3518 0
M  V30 END ATOM
M  V30 BEGIN BOND
M  V30 1 1 1 2
M  V30 2 1 2 3
M  V30 3 1 2 4
M  V30 4 1 3 5
M  V30 5 1 4 6
M  V30 6 1 4 7
M  V30 7 1 5 8
M  V30 8 1 6 9
M  V30 9 2 6 10
M  V30 10 1 8 11
M  V30 11 1 9 12
M  V30 12 1 10 13
M  V30 13 2 12 14
M  V30 14 1 12 15
M  V30 15 1 7 8
M  V30 16 1 9 11
M  V30 17 2 13 15
M  V30 18 1 2 16
M  V30 19 1 3 17
M  V30 20 1 4 18
M  V30 21 1 5 19
M  V30 22 1 5 20
M  V30 23 1 7 21
M  V30 24 1 7 22
M  V30 25 1 8 23
M  V30 26 1 10 24
M  V30 27 1 11 25
M  V30 28 1 11 26
M  V30 29 1 13 27
M  V30 30 1 15 28
M  V30 END BOND
M  V30 END CTAB
M  END
>  <NO.>
508

>  <Name>
3-bromocytisine

>  <SMILES>
O=c1cccc2n1CC1CNC(Br)C2C1

>  <logBB>
-0.05

>  <Class>
1

>  <MW>
268.02

>  <nHBAcc>
2

>  <nHBDon>
1

>  <SLogP>
1.28

>  <TopoPSA>
34.03

>  <MMFF94 Energy>
20.169

$$$$
CNCc1ccc(C(=O)Nc2cc(-c3ccccc3)ccc2N)cc1
Actelion Java MolfileCreator 2.0

  0  0  0  0  0  0              0 V3000
M  V30 BEGIN CTAB
M  V30 COUNTS 46 48 0 0 0
M  V30 BEGIN ATOM
M  V30 1 O -1.4211 0.0 -0.3156 0
M  V30 2 C -0.3867 -0.2873 0.2759 0
M  V30 3 N 0.8895 -0.2582 -0.2489 0
M  V30 4 C -0.4774 -0.6945 1.7081 0
M  V30 5 C 1.2588 0.1115 -1.5624 0
M  V30 6 C 0.4019 -1.6228 2.2778 0
M  V30 7 C -1.5 -0.1434 2.4902 0
M  V30 8 C 2.4968 -0.361 -2.0432 0
M  V30 9 C 0.4898 0.9824 -2.3443 0
M  V30 10 C 0.2733 -1.9703 3.6258 0
M  V30 11 C -1.627 -0.494 3.8371 0
M  V30 12 N 3.2948 -1.2196 -1.2795 0
M  V30 13 C 2.9738 0.1195 -3.2641 0
M  V30 14 C 0.9426 1.4284 -3.5984 0
M  V30 15 C -0.7377 -1.4068 4.4195 0
M  V30 16 C 2.2008 0.9903 -4.0379 0
M  V30 17 C 0.1346 2.3494 -4.4174 0
M  V30 18 C -0.8696 -1.7932 5.8753 0
M  V30 19 C -0.1502 2.0617 -5.7631 0
M  V30 20 C -0.374 3.5438 -3.8793 0
M  V30 21 N -1.2147 -3.208 6.0093 0
M  V30 22 C -0.9134 2.9356 -6.5427 0
M  V30 23 C -1.1369 4.4192 -4.6575 0
M  V30 24 C -1.3946 -3.5721 7.407 0
M  V30 25 C -1.4057 4.1146 -5.9892 0
M  V30 26 H 1.6765 -0.4727 0.3486 0
M  V30 27 H 1.1697 -2.1118 1.6871 0
M  V30 28 H -2.2021 0.5626 2.05 0
M  V30 29 H -0.4688 1.3411 -1.9784 0
M  V30 30 H 0.9521 -2.7028 4.0601 0
M  V30 31 H -2.429 -0.0514 4.424 0
M  V30 32 H 4.1577 -1.5517 -1.693 0
M  V30 33 H 2.8118 -1.8759 -0.6797 0
M  V30 34 H 3.9462 -0.1902 -3.6364 0
M  V30 35 H 2.5984 1.3402 -4.9887 0
M  V30 36 H -1.6336 -1.1685 6.3551 0
M  V30 37 H 0.0834 -1.5798 6.3753 0
M  V30 38 H 0.2113 1.1388 -6.2118 0
M  V30 39 H -0.1711 3.8053 -2.8426 0
M  V30 40 H -2.0805 -3.3821 5.4988 0
M  V30 41 H -1.1268 2.6906 -7.5797 0
M  V30 42 H -1.5204 5.3374 -4.2204 0
M  V30 43 H -2.2091 -3.0049 7.8694 0
M  V30 44 H -0.4755 -3.4104 7.9796 0
M  V30 45 H -1.6434 -4.6355 7.4775 0
M  V30 46 H -2.0013 4.7935 -6.5936 0
M  V30 END ATOM
M  V30 BEGIN BOND
M  V30 1 2 1 2
M  V30 2 1 2 3
M  V30 3 1 2 4
M  V30 4 1 3 5
M  V30 5 2 4 6
M  V30 6 1 4 7
M  V30 7 2 5 8
M  V30 8 1 5 9
M  V30 9 1 6 10
M  V30 10 2 7 11
M  V30 11 1 8 12
M  V30 12 1 8 13
M  V30 13 2 9 14
M  V30 14 2 10 15
M  V30 15 2 13 16
M  V30 16 1 14 17
M  V30 17 1 15 18
M  V30 18 2 17 19
M  V30 19 1 17 20
M  V30 20 1 18 21
M  V30 21 1 19 22
M  V30 22 2 20 23
M  V30 23 1 21 24
M  V30 24 2 22 25
M  V30 25 1 11 15
M  V30 26 1 14 16
M  V30 27 1 23 25
M  V30 28 1 3 26
M  V30 29 1 6 27
M  V30 30 1 7 28
M  V30 31 1 9 29
M  V30 32 1 10 30
M  V30 33 1 11 31
M  V30 34 1 12 32
M  V30 35 1 12 33
M  V30 36 1 13 34
M  V30 37 1 16 35
M  V30 38 1 18 36
M  V30 39 1 18 37
M  V30 40 1 19 38
M  V30 41 1 20 39
M  V30 42 1 21 40
M  V30 43 1 22 41
M  V30 44 1 23 42
M  V30 45 1 24 43
M  V30 46 1 24 44
M  V30 47 1 24 45
M  V30 48 1 25 46
M  V30 END BOND
M  V30 END CTAB
M  END
>  <NO.>
511

>  <Name>


>  <SMILES>
CNCc1ccc(C(=O)Nc2cc(-c3ccccc3)ccc2N)cc1

>  <logBB>
-0.05

>  <Class>
1

>  <MW>
331.17

>  <nHBAcc>
3

>  <nHBDon>
3

>  <SLogP>
3.91

>  <TopoPSA>
67.15

>  <MMFF94 Energy>
62.776

$$$$
CO[C@@H]1CN(CC2Cc3ccc(C#N)cc3C2)CCC1n1c(C(C)(C)O)nc2cc(C)ccc21
Actelion Java MolfileCreator 2.0

  0  0  0  0  0  0              0 V3000
M  V30 BEGIN CTAB
M  V30 COUNTS 68 72 0 0 0
M  V30 BEGIN ATOM
M  V30 1 O 0.958 2.3165 -0.7185 0
M  V30 2 C 0.3561 1.1133 -0.2031 0 CFG=1
M  V30 3 C 2.3768 2.3215 -0.6195 0
M  V30 4 C -0.321 1.3923 1.1576 0
M  V30 5 C -0.7075 0.6859 -1.238 0
M  V30 6 N 0.6235 1.6843 2.2386 0
M  V30 7 C -1.2947 0.2803 1.566 0
M  V30 8 N -1.5444 -0.4361 -0.7774 0
M  V30 9 C 1.6276 0.8384 2.6853 0
M  V30 10 C 0.6745 2.8422 3.0081 0
M  V30 11 C -2.2706 -0.0453 0.4422 0
M  V30 12 C -2.5051 -0.8638 -1.8135 0
M  V30 13 C 2.2963 1.5777 3.6528 0
M  V30 14 C 2.0251 -0.465 2.3524 0
M  V30 15 N 1.7153 2.8004 3.8243 0
M  V30 16 C -0.2848 4.0118 2.9426 0
M  V30 17 C -1.8514 -1.5745 -3.0062 0
M  V30 18 C 3.4106 1.031 4.309 0
M  V30 19 C 3.1367 -0.9987 3.0187 0
M  V30 20 O -1.6144 3.4935 2.8164 0
M  V30 21 C 0.0249 4.923 1.7544 0
M  V30 22 C -0.2361 4.8259 4.2447 0
M  V30 23 C -2.9023 -2.0912 -4.0162 0
M  V30 24 C -1.0101 -2.805 -2.6002 0
M  V30 25 C 3.8409 -0.263 3.9779 0
M  V30 26 C -2.1789 -3.2469 -4.6342 0
M  V30 27 C -1.1075 -3.6518 -3.8323 0
M  V30 28 C 5.0069 -0.8737 4.6983 0
M  V30 29 C -2.4857 -3.9154 -5.8086 0
M  V30 30 C -0.3177 -4.7332 -4.1837 0
M  V30 31 C -1.6874 -5.004 -6.1829 0
M  V30 32 C -0.6091 -5.4086 -5.3722 0
M  V30 33 C -1.9733 -5.7149 -7.395 0
M  V30 34 N -2.2056 -6.29 -8.3761 0
M  V30 35 H 1.1 0.3124 -0.1352 0
M  V30 36 H 2.8017 1.4803 -1.1752 0
M  V30 37 H 2.745 3.2503 -1.0636 0
M  V30 38 H 2.7001 2.2893 0.4225 0
M  V30 39 H -0.9094 2.299 1.0009 0
M  V30 40 H -0.1653 0.4154 -2.1514 0
M  V30 41 H -1.3295 1.5514 -1.5081 0
M  V30 42 H -1.8573 0.5853 2.4574 0
M  V30 43 H -0.759 -0.6342 1.8437 0
M  V30 44 H -2.929 0.8128 0.2527 0
M  V30 45 H -2.9058 -0.8731 0.7808 0
M  V30 46 H -3.2177 -1.5682 -1.363 0
M  V30 47 H -3.0969 -0.0098 -2.1691 0
M  V30 48 H 1.5006 -1.0622 1.6151 0
M  V30 49 H -1.1997 -0.8755 -3.5494 0
M  V30 50 H 3.9175 1.6196 5.0663 0
M  V30 51 H 3.451 -2.013 2.7773 0
M  V30 52 H -2.2235 4.2423 2.9335 0
M  V30 53 H -0.6768 5.7642 1.7164 0
M  V30 54 H -0.0802 4.3983 0.8 0
M  V30 55 H 1.0431 5.3238 1.8079 0
M  V30 56 H 0.753 5.264 4.4177 0
M  V30 57 H -0.9707 5.6396 4.227 0
M  V30 58 H -0.4896 4.1991 5.1084 0
M  V30 59 H -3.8137 -2.4451 -3.5224 0
M  V30 60 H -3.1539 -1.3212 -4.7519 0
M  V30 61 H -1.4438 -3.3395 -1.7481 0
M  V30 62 H 0.0234 -2.5232 -2.3776 0
M  V30 63 H 4.6594 -1.4034 5.5907 0
M  V30 64 H 5.5389 -1.5793 4.0517 0
M  V30 65 H 5.726 -0.1049 5.0002 0
M  V30 66 H -3.3268 -3.6004 -6.4203 0
M  V30 67 H 0.5071 -5.0524 -3.5537 0
M  V30 68 H 0.0055 -6.2586 -5.664 0
M  V30 END ATOM
M  V30 BEGIN BOND
M  V30 1 1 1 2
M  V30 2 1 1 3
M  V30 3 1 2 4
M  V30 4 1 2 5
M  V30 5 1 4 6
M  V30 6 1 4 7
M  V30 7 1 5 8
M  V30 8 1 6 9
M  V30 9 1 6 10
M  V30 10 1 7 11
M  V30 11 1 8 12
M  V30 12 2 9 13
M  V30 13 1 9 14
M  V30 14 2 10 15
M  V30 15 1 10 16
M  V30 16 1 12 17
M  V30 17 1 13 18
M  V30 18 2 14 19
M  V30 19 1 16 20
M  V30 20 1 16 21
M  V30 21 1 16 22
M  V30 22 1 17 23
M  V30 23 1 17 24
M  V30 24 2 18 25
M  V30 25 1 23 26
M  V30 26 1 24 27
M  V30 27 1 25 28
M  V30 28 1 26 29
M  V30 29 1 27 30
M  V30 30 2 29 31
M  V30 31 2 30 32
M  V30 32 1 31 33
M  V30 33 3 33 34
M  V30 34 1 8 11
M  V30 35 1 13 15
M  V30 36 1 19 25
M  V30 37 2 26 27
M  V30 38 1 31 32
M  V30 39 1 2 35
M  V30 40 1 3 36
M  V30 41 1 3 37
M  V30 42 1 3 38
M  V30 43 1 4 39
M  V30 44 1 5 40
M  V30 45 1 5 41
M  V30 46 1 7 42
M  V30 47 1 7 43
M  V30 48 1 11 44
M  V30 49 1 11 45
M  V30 50 1 12 46
M  V30 51 1 12 47
M  V30 52 1 14 48
M  V30 53 1 17 49
M  V30 54 1 18 50
M  V30 55 1 19 51
M  V30 56 1 20 52
M  V30 57 1 21 53
M  V30 58 1 21 54
M  V30 59 1 21 55
M  V30 60 1 22 56
M  V30 61 1 22 57
M  V30 62 1 22 58
M  V30 63 1 23 59
M  V30 64 1 23 60
M  V30 65 1 24 61
M  V30 66 1 24 62
M  V30 67 1 28 63
M  V30 68 1 28 64
M  V30 69 1 28 65
M  V30 70 1 29 66
M  V30 71 1 30 67
M  V30 72 1 32 68
M  V30 END BOND
M  V30 BEGIN COLLECTION
M  V30 MDLV30/STEABS ATOMS=(1 2)
M  V30 END COLLECTION
M  V30 END CTAB
M  END
>  <NO.>
512

>  <Name>
compound-10

>  <SMILES>
CO[C@@H]1CN(CC2Cc3ccc(C#N)cc3C2)CCC1n1c(C(C)(C)O)nc2cc(C)ccc21

>  <logBB>
-0.05

>  <Class>
1

>  <MW>
458.27

>  <nHBAcc>
5

>  <nHBDon>
1

>  <SLogP>
4.12

>  <TopoPSA>
74.31

>  <MMFF94 Energy>
98.345

$$$$
O=C1CCC(N2C(=O)c3ccccc3C2=O)C(=O)N1
Actelion Java MolfileCreator 2.0

  0  0  0  0  0  0              0 V3000
M  V30 BEGIN CTAB
M  V30 COUNTS 29 31 0 0 0
M  V30 BEGIN ATOM
M  V30 1 O -1.2108 -2.3419 -1.7762 0
M  V30 2 C -0.3975 -2.4147 -0.8555 0
M  V30 3 N -0.5636 -3.3384 0.1466 0
M  V30 4 C 0.7798 -1.4521 -0.7229 0 CFG=1
M  V30 5 C 0.1301 -3.4567 1.3232 0
M  V30 6 N 0.2788 -0.0922 -0.5758 0
M  V30 7 C 1.8096 -1.8812 0.3185 0
M  V30 8 O -0.1413 -4.346 2.1259 0
M  V30 9 C 1.2 -2.4292 1.5954 0
M  V30 10 C -0.5446 0.3465 0.423 0
M  V30 11 C 0.59 0.9179 -1.4468 0
M  V30 12 O -1.0199 -0.2782 1.3507 0
M  V30 13 C -0.7971 1.7632 0.1718 0
M  V30 14 O 1.3212 0.8945 -2.4179 0
M  V30 15 C -0.107 2.1116 -0.9738 0
M  V30 16 C -1.5616 2.6757 0.8718 0
M  V30 17 C -0.1375 3.3941 -1.4849 0
M  V30 18 C -1.6104 3.9818 0.3741 0
M  V30 19 C -0.9042 4.3381 -0.794 0
M  V30 20 H -1.3333 -3.9828 0.0295 0
M  V30 21 H 1.2935 -1.4964 -1.693 0
M  V30 22 H 2.4214 -2.68 -0.1229 0
M  V30 23 H 2.4938 -1.0573 0.5524 0
M  V30 24 H 1.987 -2.9085 2.1892 0
M  V30 25 H 0.7758 -1.6344 2.213 0
M  V30 26 H -2.1019 2.388 1.768 0
M  V30 27 H 0.4096 3.6541 -2.3851 0
M  V30 28 H -2.202 4.7349 0.8925 0
M  V30 29 H -0.9594 5.3614 -1.1619 0
M  V30 END ATOM
M  V30 BEGIN BOND
M  V30 1 2 1 2
M  V30 2 1 2 3
M  V30 3 1 2 4
M  V30 4 1 3 5
M  V30 5 1 4 6
M  V30 6 1 4 7
M  V30 7 2 5 8
M  V30 8 1 5 9
M  V30 9 1 6 10
M  V30 10 1 6 11
M  V30 11 2 10 12
M  V30 12 1 10 13
M  V30 13 2 11 14
M  V30 14 1 11 15
M  V30 15 1 13 16
M  V30 16 1 15 17
M  V30 17 2 16 18
M  V30 18 2 17 19
M  V30 19 1 7 9
M  V30 20 2 13 15
M  V30 21 1 18 19
M  V30 22 1 3 20
M  V30 23 1 4 21
M  V30 24 1 7 22
M  V30 25 1 7 23
M  V30 26 1 9 24
M  V30 27 1 9 25
M  V30 28 1 16 26
M  V30 29 1 17 27
M  V30 30 1 18 28
M  V30 31 1 19 29
M  V30 END BOND
M  V30 BEGIN COLLECTION
M  V30 MDLV30/STERAC1 ATOMS=(1 4)
M  V30 END COLLECTION
M  V30 END CTAB
M  END
>  <NO.>
514

>  <Name>
thalidomide

>  <SMILES>
O=C1CCC(N2C(=O)c3ccccc3C2=O)C(=O)N1

>  <logBB>
-0.05

>  <Class>
1

>  <MW>
258.06

>  <nHBAcc>
4

>  <nHBDon>
1

>  <SLogP>
0.09

>  <TopoPSA>
83.55

>  <MMFF94 Energy>
-39.071

$$$$
O=S(=O)(c1ccc2cc[nH]c2c1)N1CCCC1CCN1CCC(Oc2cccc(Cl)c2)CC1
Actelion Java MolfileCreator 2.0

  0  0  0  0  0  0              0 V3000
M  V30 BEGIN CTAB
M  V30 COUNTS 63 67 0 0 0
M  V30 BEGIN ATOM
M  V30 1 Cl -4.1487 7.9018 -1.788 0
M  V30 2 C -3.792 6.9679 -0.3851 0
M  V30 3 C -2.5735 6.2895 -0.2998 0
M  V30 4 C -4.7242 6.8983 0.6482 0
M  V30 5 C -2.2811 5.5328 0.8337 0
M  V30 6 C -4.4371 6.1403 1.7803 0
M  V30 7 O -1.1413 4.8151 1.0612 0
M  V30 8 C -3.2204 5.4615 1.8684 0
M  V30 9 C -0.076 4.8561 0.1012 0
M  V30 10 C 1.2211 4.5346 0.8463 0
M  V30 11 C -0.2993 3.8234 -1.0039 0
M  V30 12 C 1.258 3.0805 1.3154 0
M  V30 13 C -0.2083 2.3915 -0.4713 0
M  V30 14 N 1.0906 2.1498 0.1842 0
M  V30 15 C 1.1967 0.757 0.6722 0
M  V30 16 C 1.371 -0.258 -0.4658 0
M  V30 17 C 1.5713 -1.7142 -0.0207 0 CFG=2
M  V30 18 N 0.4459 -2.1841 0.8302 0
M  V30 19 C 2.8287 -1.9533 0.8283 0
M  V30 20 S -0.9245 -2.8793 0.1261 0
M  V30 21 C 0.9802 -2.7876 2.0664 0
M  V30 22 C 2.3193 -2.0956 2.2524 0
M  V30 23 O -1.8622 -3.1765 1.1892 0
M  V30 24 O -1.3154 -2.0655 -1.0056 0
M  V30 25 C -0.3361 -4.4372 -0.517 0
M  V30 26 C 0.1032 -4.5014 -1.8474 0
M  V30 27 C -0.3954 -5.5771 0.2886 0
M  V30 28 C 0.5331 -5.7482 -2.3174 0
M  V30 29 C 0.0401 -6.8124 -0.205 0
M  V30 30 N 1.0156 -6.1123 -3.555 0
M  V30 31 C 0.518 -6.8988 -1.5275 0
M  V30 32 C 1.3212 -7.4473 -3.5682 0
M  V30 33 C 1.0205 -7.9613 -2.3277 0
M  V30 34 H -1.883 6.3645 -1.1316 0
M  V30 35 H -5.6708 7.427 0.576 0
M  V30 36 H -5.1566 6.0746 2.5924 0
M  V30 37 H -3.0 4.8679 2.7533 0
M  V30 38 H 0.0323 5.8645 -0.3142 0
M  V30 39 H 2.0792 4.7285 0.1903 0
M  V30 40 H 1.3214 5.1889 1.7207 0
M  V30 41 H 0.4516 3.9663 -1.7913 0
M  V30 42 H -1.2826 3.9564 -1.4681 0
M  V30 43 H 0.4901 2.9099 2.0816 0
M  V30 44 H 2.2315 2.9104 1.792 0
M  V30 45 H -1.0397 2.193 0.2176 0
M  V30 46 H -0.335 1.7247 -1.3301 0
M  V30 47 H 0.3314 0.4994 1.2957 0
M  V30 48 H 2.0854 0.6919 1.3098 0
M  V30 49 H 0.5012 -0.224 -1.1289 0
M  V30 50 H 2.2336 0.0379 -1.0773 0
M  V30 51 H 1.6585 -2.3295 -0.9219 0
M  V30 52 H 3.2962 -2.8975 0.5206 0
M  V30 53 H 3.584 -1.1685 0.7256 0
M  V30 54 H 1.1343 -3.8633 1.9472 0
M  V30 55 H 0.3188 -2.6026 2.9171 0
M  V30 56 H 3.0004 -2.6704 2.8866 0
M  V30 57 H 2.1787 -1.1128 2.7145 0
M  V30 58 H 0.1057 -3.6247 -2.4883 0
M  V30 59 H -0.7839 -5.5188 1.3035 0
M  V30 60 H -9.0E-4 -7.6981 0.423 0
M  V30 61 H 1.1236 -5.4819 -4.338 0
M  V30 62 H 1.7175 -7.9166 -4.4587 0
M  V30 63 H 1.1425 -8.9938 -2.0271 0
M  V30 END ATOM
M  V30 BEGIN BOND
M  V30 1 1 1 2
M  V30 2 2 2 3
M  V30 3 1 2 4
M  V30 4 1 3 5
M  V30 5 2 4 6
M  V30 6 1 5 7
M  V30 7 2 5 8
M  V30 8 1 7 9
M  V30 9 1 9 10
M  V30 10 1 9 11
M  V30 11 1 10 12
M  V30 12 1 11 13
M  V30 13 1 12 14
M  V30 14 1 14 15
M  V30 15 1 15 16
M  V30 16 1 16 17
M  V30 17 1 17 18
M  V30 18 1 17 19
M  V30 19 1 18 20
M  V30 20 1 18 21
M  V30 21 1 19 22
M  V30 22 2 20 23
M  V30 23 2 20 24
M  V30 24 1 20 25
M  V30 25 2 25 26
M  V30 26 1 25 27
M  V30 27 1 26 28
M  V30 28 2 27 29
M  V30 29 1 28 30
M  V30 30 2 28 31
M  V30 31 1 30 32
M  V30 32 1 31 33
M  V30 33 1 6 8
M  V30 34 1 13 14
M  V30 35 1 21 22
M  V30 36 1 29 31
M  V30 37 2 32 33
M  V30 38 1 3 34
M  V30 39 1 4 35
M  V30 40 1 6 36
M  V30 41 1 8 37
M  V30 42 1 9 38
M  V30 43 1 10 39
M  V30 44 1 10 40
M  V30 45 1 11 41
M  V30 46 1 11 42
M  V30 47 1 12 43
M  V30 48 1 12 44
M  V30 49 1 13 45
M  V30 50 1 13 46
M  V30 51 1 15 47
M  V30 52 1 15 48
M  V30 53 1 16 49
M  V30 54 1 16 50
M  V30 55 1 17 51
M  V30 56 1 19 52
M  V30 57 1 19 53
M  V30 58 1 21 54
M  V30 59 1 21 55
M  V30 60 1 22 56
M  V30 61 1 22 57
M  V30 62 1 26 58
M  V30 63 1 27 59
M  V30 64 1 29 60
M  V30 65 1 30 61
M  V30 66 1 32 62
M  V30 67 1 33 63
M  V30 END BOND
M  V30 BEGIN COLLECTION
M  V30 MDLV30/STERAC1 ATOMS=(1 17)
M  V30 END COLLECTION
M  V30 END CTAB
M  END
>  <NO.>
517

>  <Name>
sb-656104-a

>  <SMILES>
O=S(=O)(c1ccc2cc[nH]c2c1)N1CCCC1CCN1CCC(Oc2cccc(Cl)c2)CC1

>  <logBB>
-0.04

>  <Class>
1

>  <MW>
487.17

>  <nHBAcc>
4

>  <nHBDon>
1

>  <SLogP>
4.91

>  <TopoPSA>
65.64

>  <MMFF94 Energy>
-0.65477

$$$$
Cc1cnc(N=C(N)N)s1
Actelion Java MolfileCreator 2.0

  0  0  0  0  0  0              0 V3000
M  V30 BEGIN CTAB
M  V30 COUNTS 18 18 0 0 0
M  V30 BEGIN ATOM
M  V30 1 S -0.6325 0.9489 1.5819 0
M  V30 2 C 0.1136 0.4859 0.0857 0
M  V30 3 C -1.2399 -0.6363 1.787 0
M  V30 4 N -0.0818 -0.7828 -0.2354 0
M  V30 5 N 0.8075 1.4427 -0.5848 0
M  V30 6 C -0.8461 -1.4164 0.7236 0
M  V30 7 C -2.0554 -0.9948 2.9742 0
M  V30 8 C 1.3336 1.1506 -1.727 0
M  V30 9 N 2.0256 2.0896 -2.4036 0
M  V30 10 N 1.3021 -0.0104 -2.4117 0
M  V30 11 H -1.0894 -2.464 0.5945 0
M  V30 12 H -1.4876 -0.8407 3.8977 0
M  V30 13 H -2.3568 -2.0469 2.9385 0
M  V30 14 H -2.9656 -0.3877 3.0192 0
M  V30 15 H 2.2491 1.9864 -3.3791 0
M  V30 16 H 2.0939 3.0083 -1.9871 0
M  V30 17 H 0.8144 -0.7867 -1.9668 0
M  V30 18 H 1.9489 -0.2206 -3.152 0
M  V30 END ATOM
M  V30 BEGIN BOND
M  V30 1 1 1 2
M  V30 2 1 1 3
M  V30 3 2 2 4
M  V30 4 1 2 5
M  V30 5 2 3 6
M  V30 6 1 3 7
M  V30 7 2 5 8
M  V30 8 1 8 9
M  V30 9 1 8 10
M  V30 10 1 4 6
M  V30 11 1 6 11
M  V30 12 1 7 12
M  V30 13 1 7 13
M  V30 14 1 7 14
M  V30 15 1 9 15
M  V30 16 1 9 16
M  V30 17 1 10 17
M  V30 18 1 10 18
M  V30 END BOND
M  V30 END CTAB
M  END
>  <NO.>
518

>  <Name>
ici 17148

>  <SMILES>
Cc1cnc(N=C(N)N)s1

>  <logBB>
-0.04

>  <Class>
1

>  <MW>
156.05

>  <nHBAcc>
3

>  <nHBDon>
2

>  <SLogP>
0.36

>  <TopoPSA>
77.29

>  <MMFF94 Energy>
-118.82

$$$$
Cc1csc(N=C(N)N)n1
Actelion Java MolfileCreator 2.0

  0  0  0  0  0  0              0 V3000
M  V30 BEGIN CTAB
M  V30 COUNTS 18 18 0 0 0
M  V30 BEGIN ATOM
M  V30 1 S -2.136 0.6325 -1.3444 0
M  V30 2 C -0.9067 0.4917 -0.1304 0
M  V30 3 C -1.3516 -0.5561 -2.289 0
M  V30 4 N 0.0293 -0.3966 -0.423 0
M  V30 5 N -1.0252 1.2802 0.97 0
M  V30 6 C -0.2134 -0.9961 -1.6477 0
M  V30 7 C -0.1013 1.2405 1.8711 0
M  V30 8 C 0.7412 -2.0225 -2.1353 0
M  V30 9 N -0.2046 2.0163 2.9693 0
M  V30 10 N 1.0325 0.5114 1.9019 0
M  V30 11 H -1.7516 -0.8672 -3.243 0
M  V30 12 H 1.7551 -1.6117 -2.1678 0
M  V30 13 H 0.4803 -2.3667 -3.141 0
M  V30 14 H 0.7394 -2.8879 -1.4655 0
M  V30 15 H 0.5819 2.1946 3.5706 0
M  V30 16 H -1.0115 2.6215 3.0376 0
M  V30 17 H 1.1853 -0.1211 1.1177 0
M  V30 18 H 1.5481 0.3477 2.7492 0
M  V30 END ATOM
M  V30 BEGIN BOND
M  V30 1 1 1 2
M  V30 2 1 1 3
M  V30 3 2 2 4
M  V30 4 1 2 5
M  V30 5 2 3 6
M  V30 6 2 5 7
M  V30 7 1 6 8
M  V30 8 1 7 9
M  V30 9 1 7 10
M  V30 10 1 4 6
M  V30 11 1 3 11
M  V30 12 1 8 12
M  V30 13 1 8 13
M  V30 14 1 8 14
M  V30 15 1 9 15
M  V30 16 1 9 16
M  V30 17 1 10 17
M  V30 18 1 10 18
M  V30 END BOND
M  V30 END CTAB
M  END
>  <NO.>
519

>  <Name>
b-038, ici17148

>  <SMILES>
Cc1csc(N=C(N)N)n1

>  <logBB>
-0.04

>  <Class>
1

>  <MW>
156.05

>  <nHBAcc>
3

>  <nHBDon>
2

>  <SLogP>
0.36

>  <TopoPSA>
77.29

>  <MMFF94 Energy>
-118.64

$$$$
Cc1ncc(-c2csc(N=C(N)N)n2)[nH]1
Actelion Java MolfileCreator 2.0

  0  0  0  0  0  0              0 V3000
M  V30 BEGIN CTAB
M  V30 COUNTS 25 26 0 0 0
M  V30 BEGIN ATOM
M  V30 1 S 2.7157 -1.6767 0.2394 0
M  V30 2 C 1.0736 -2.0174 0.684 0
M  V30 3 C 2.2516 -0.1255 -0.3133 0
M  V30 4 N 0.2366 -1.025 0.4326 0
M  V30 5 N 0.8201 -3.2333 1.2343 0
M  V30 6 C 0.8992 0.0439 -0.1308 0
M  V30 7 C -0.397 -3.5447 1.5333 0
M  V30 8 C 0.1336 1.3304 -0.5173 0
M  V30 9 N -0.6631 -4.7478 2.0806 0
M  V30 10 N -1.5272 -2.8269 1.3746 0
M  V30 11 N 0.6413 2.4679 -1.0802 0
M  V30 12 C -1.2096 1.5749 -0.3669 0
M  V30 13 C -0.3971 3.3514 -1.2498 0
M  V30 14 N -1.529 2.8301 -0.8237 0
M  V30 15 C -0.2039 4.6964 -1.8393 0
M  V30 16 H 2.9796 0.5536 -0.7284 0
M  V30 17 H -1.5978 -5.117 2.1308 0
M  V30 18 H 0.1135 -5.3777 2.2271 0
M  V30 19 H -1.4256 -1.8926 0.9818 0
M  V30 20 H -2.3847 -3.048 1.8509 0
M  V30 21 H 1.6043 2.6374 -1.3297 0
M  V30 22 H -1.9626 0.9161 0.0449 0
M  V30 23 H -1.1542 5.2374 -1.8844 0
M  V30 24 H 0.4948 5.2844 -1.2364 0
M  V30 25 H 0.1922 4.6178 -2.8562 0
M  V30 END ATOM
M  V30 BEGIN BOND
M  V30 1 1 1 2
M  V30 2 1 1 3
M  V30 3 2 2 4
M  V30 4 1 2 5
M  V30 5 2 3 6
M  V30 6 2 5 7
M  V30 7 1 6 8
M  V30 8 1 7 9
M  V30 9 1 7 10
M  V30 10 1 8 11
M  V30 11 2 8 12
M  V30 12 1 11 13
M  V30 13 1 12 14
M  V30 14 1 13 15
M  V30 15 1 4 6
M  V30 16 2 13 14
M  V30 17 1 3 16
M  V30 18 1 9 17
M  V30 19 1 9 18
M  V30 20 1 10 19
M  V30 21 1 10 20
M  V30 22 1 11 21
M  V30 23 1 12 22
M  V30 24 1 15 23
M  V30 25 1 15 24
M  V30 26 1 15 25
M  V30 END BOND
M  V30 END CTAB
M  END
>  <NO.>
520

>  <Name>
zaltidine

>  <SMILES>
Cc1ncc(-c2csc(N=C(N)N)n2)[nH]1

>  <logBB>
-0.04

>  <Class>
1

>  <MW>
222.07

>  <nHBAcc>
4

>  <nHBDon>
3

>  <SLogP>
0.75

>  <TopoPSA>
105.97

>  <MMFF94 Energy>
-129.44

$$$$
Oc1ccc2c(c1)OCO2
Actelion Java MolfileCreator 2.0

  0  0  0  0  0  0              0 V3000
M  V30 BEGIN CTAB
M  V30 COUNTS 16 17 0 0 0
M  V30 BEGIN ATOM
M  V30 1 O 0.3193 1.4378 1.5977 0
M  V30 2 C 0.1608 0.4233 0.7052 0
M  V30 3 C -0.1248 2.5635 0.8109 0
M  V30 4 C -0.3275 0.8615 -0.505 0
M  V30 5 C 0.4434 -0.9057 0.9411 0
M  V30 6 O -0.5366 2.2049 -0.5241 0
M  V30 7 C -0.5616 -0.0057 -1.5506 0
M  V30 8 C 0.2123 -1.7964 -0.1057 0
M  V30 9 C -0.2849 -1.3595 -1.3422 0
M  V30 10 O 0.4623 -3.1309 0.0341 0
M  V30 11 H 0.6948 3.288 0.7424 0
M  V30 12 H -0.9703 3.037 1.3234 0
M  V30 13 H 0.8265 -1.2223 1.9025 0
M  V30 14 H -0.9464 0.35 -2.4993 0
M  V30 15 H -0.4545 -2.0791 -2.139 0
M  V30 16 H 0.7995 -3.2917 0.9311 0
M  V30 END ATOM
M  V30 BEGIN BOND
M  V30 1 1 1 2
M  V30 2 1 1 3
M  V30 3 2 2 4
M  V30 4 1 2 5
M  V30 5 1 3 6
M  V30 6 1 4 7
M  V30 7 2 5 8
M  V30 8 2 7 9
M  V30 9 1 8 10
M  V30 10 1 4 6
M  V30 11 1 8 9
M  V30 12 1 3 11
M  V30 13 1 3 12
M  V30 14 1 5 13
M  V30 15 1 7 14
M  V30 16 1 9 15
M  V30 17 1 10 16
M  V30 END BOND
M  V30 END CTAB
M  END
>  <NO.>
522

>  <Name>
sesamol

>  <SMILES>
Oc1ccc2c(c1)OCO2

>  <logBB>
-0.04

>  <Class>
1

>  <MW>
138.03

>  <nHBAcc>
3

>  <nHBDon>
1

>  <SLogP>
1.12

>  <TopoPSA>
38.69

>  <MMFF94 Energy>
5.8547

$$$$
C1CCc2nnnn2CC1
Actelion Java MolfileCreator 2.0

  0  0  0  0  0  0              0 V3000
M  V30 BEGIN CTAB
M  V30 COUNTS 20 21 0 0 0
M  V30 BEGIN ATOM
M  V30 1 N 0.0 3.1856 1.0344 0
M  V30 2 N -0.8077 2.2451 1.5036 0
M  V30 3 N 0.6813 2.7422 -0.074 0
M  V30 4 N -0.6342 1.1986 0.6847 0
M  V30 5 C 0.2785 1.5058 -0.2815 0
M  V30 6 C -1.353 -0.0338 0.8799 0
M  V30 7 C 0.7061 0.5773 -1.3524 0
M  V30 8 C -0.4358 -1.2421 1.047 0
M  V30 9 C 1.2884 -0.7251 -0.8056 0
M  V30 10 C 0.2409 -1.6945 -0.2495 0
M  V30 11 H -1.9688 0.0804 1.7797 0
M  V30 12 H -2.0306 -0.1582 0.028 0
M  V30 13 H -0.1338 0.37 -2.0256 0
M  V30 14 H 1.4748 1.0758 -1.9554 0
M  V30 15 H 0.3246 -1.0419 1.8119 0
M  V30 16 H -1.0423 -2.0786 1.4156 0
M  V30 17 H 2.0473 -0.5182 -0.0406 0
M  V30 18 H 1.8046 -1.2342 -1.6293 0
M  V30 19 H -0.519 -1.8989 -1.0136 0
M  V30 20 H 0.7418 -2.6502 -0.0496 0
M  V30 END ATOM
M  V30 BEGIN BOND
M  V30 1 2 1 2
M  V30 2 1 1 3
M  V30 3 1 2 4
M  V30 4 2 3 5
M  V30 5 1 4 6
M  V30 6 1 5 7
M  V30 7 1 6 8
M  V30 8 1 7 9
M  V30 9 1 8 10
M  V30 10 1 4 5
M  V30 11 1 9 10
M  V30 12 1 6 11
M  V30 13 1 6 12
M  V30 14 1 7 13
M  V30 15 1 7 14
M  V30 16 1 8 15
M  V30 17 1 8 16
M  V30 18 1 9 17
M  V30 19 1 9 18
M  V30 20 1 10 19
M  V30 21 1 10 20
M  V30 END BOND
M  V30 END CTAB
M  END
>  <NO.>
523

>  <Name>
pentylenetetrazole (metrazole)

>  <SMILES>
C1CCc2nnnn2CC1

>  <logBB>
-0.03

>  <Class>
1

>  <MW>
138.09

>  <nHBAcc>
3

>  <nHBDon>
0

>  <SLogP>
0.4

>  <TopoPSA>
43.6

>  <MMFF94 Energy>
-2.5659

$$$$
O=c1[nH]c(CCCN2CCC(c3ccccc3)CC2)nc2c(Cl)cccc12
Actelion Java MolfileCreator 2.0

  0  0  0  0  0  0              0 V3000
M  V30 BEGIN CTAB
M  V30 COUNTS 51 54 0 0 0
M  V30 BEGIN ATOM
M  V30 1 Cl -2.253 -0.6433 5.1554 0
M  V30 2 C -1.2161 -1.9931 5.4649 0
M  V30 3 C -0.1663 -2.3194 4.5915 0
M  V30 4 C -1.4594 -2.7528 6.6169 0
M  V30 5 N 0.077 -1.5529 3.4313 0
M  V30 6 C 0.6231 -3.4296 4.9144 0
M  V30 7 C -0.6569 -3.8538 6.916 0
M  V30 8 C 1.0591 -1.8888 2.6625 0
M  V30 9 C 1.7234 -3.7769 3.9987 0
M  V30 10 C 0.3888 -4.196 6.0631 0
M  V30 11 N 1.8689 -2.9623 2.9073 0
M  V30 12 C 1.3507 -1.1148 1.4013 0
M  V30 13 O 2.4611 -4.7342 4.1983 0
M  V30 14 C 0.5084 -1.6675 0.251 0
M  V30 15 C 0.8512 -1.0346 -1.1046 0
M  V30 16 N 0.8054 0.4327 -1.1148 0
M  V30 17 C 1.411 1.0031 -2.3272 0
M  V30 18 C -0.5344 0.9977 -0.9109 0
M  V30 19 C 0.5713 0.7954 -3.589 0
M  V30 20 C -1.4723 0.857 -2.1166 0
M  V30 21 C -0.8582 1.3534 -3.4409 0
M  V30 22 C -0.9199 2.8547 -3.7186 0
M  V30 23 C -0.608 3.3102 -5.0145 0
M  V30 24 C -1.3023 3.8124 -2.7698 0
M  V30 25 C -0.6506 4.668 -5.3395 0
M  V30 26 C -1.3448 5.1729 -3.0939 0
M  V30 27 C -1.0161 5.6011 -4.3761 0
M  V30 28 H -2.2762 -2.4873 7.2843 0
M  V30 29 H -0.8474 -4.4419 7.8109 0
M  V30 30 H 1.019 -5.0538 6.2893 0
M  V30 31 H 2.6253 -3.1973 2.2809 0
M  V30 32 H 2.4169 -1.195 1.1611 0
M  V30 33 H 1.1206 -0.0592 1.5824 0
M  V30 34 H 0.6658 -2.7512 0.1717 0
M  V30 35 H -0.5575 -1.5424 0.4758 0
M  V30 36 H 1.8702 -1.3575 -1.3555 0
M  V30 37 H 0.1952 -1.4681 -1.868 0
M  V30 38 H 1.5727 2.0772 -2.1687 0
M  V30 39 H 2.4121 0.5813 -2.4792 0
M  V30 40 H -1.0146 0.5641 -0.0271 0
M  V30 41 H -0.4094 2.0559 -0.6567 0
M  V30 42 H 1.0954 1.2394 -4.4428 0
M  V30 43 H 0.5085 -0.278 -3.8083 0
M  V30 44 H -1.7232 -0.2056 -2.2334 0
M  V30 45 H -2.4239 1.3611 -1.9106 0
M  V30 46 H -1.4698 0.9036 -4.2374 0
M  V30 47 H -0.3316 2.6004 -5.7918 0
M  V30 48 H -1.5841 3.5332 -1.76 0
M  V30 49 H -0.4017 4.9936 -6.3459 0
M  V30 50 H -1.6403 5.8982 -2.3397 0
M  V30 51 H -1.0516 6.6582 -4.6243 0
M  V30 END ATOM
M  V30 BEGIN BOND
M  V30 1 1 1 2
M  V30 2 2 2 3
M  V30 3 1 2 4
M  V30 4 1 3 5
M  V30 5 1 3 6
M  V30 6 2 4 7
M  V30 7 2 5 8
M  V30 8 1 6 9
M  V30 9 2 6 10
M  V30 10 1 8 11
M  V30 11 1 8 12
M  V30 12 2 9 13
M  V30 13 1 12 14
M  V30 14 1 14 15
M  V30 15 1 15 16
M  V30 16 1 16 17
M  V30 17 1 16 18
M  V30 18 1 17 19
M  V30 19 1 18 20
M  V30 20 1 19 21
M  V30 21 1 21 22
M  V30 22 2 22 23
M  V30 23 1 22 24
M  V30 24 1 23 25
M  V30 25 2 24 26
M  V30 26 2 25 27
M  V30 27 1 7 10
M  V30 28 1 9 11
M  V30 29 1 20 21
M  V30 30 1 26 27
M  V30 31 1 4 28
M  V30 32 1 7 29
M  V30 33 1 10 30
M  V30 34 1 11 31
M  V30 35 1 12 32
M  V30 36 1 12 33
M  V30 37 1 14 34
M  V30 38 1 14 35
M  V30 39 1 15 36
M  V30 40 1 15 37
M  V30 41 1 17 38
M  V30 42 1 17 39
M  V30 43 1 18 40
M  V30 44 1 18 41
M  V30 45 1 19 42
M  V30 46 1 19 43
M  V30 47 1 20 44
M  V30 48 1 20 45
M  V30 49 1 21 46
M  V30 50 1 23 47
M  V30 51 1 24 48
M  V30 52 1 25 49
M  V30 53 1 26 50
M  V30 54 1 27 51
M  V30 END BOND
M  V30 END CTAB
M  END
>  <NO.>
526

>  <Name>
compound-5d

>  <SMILES>
O=c1[nH]c(CCCN2CCC(c3ccccc3)CC2)nc2c(Cl)cccc12

>  <logBB>
-0.03

>  <Class>
1

>  <MW>
381.16

>  <nHBAcc>
3

>  <nHBDon>
1

>  <SLogP>
4.39

>  <TopoPSA>
48.99

>  <MMFF94 Energy>
17.599

$$$$
CCCCO
Actelion Java MolfileCreator 2.0

  0  0  0  0  0  0              0 V3000
M  V30 BEGIN CTAB
M  V30 COUNTS 15 14 0 0 0
M  V30 BEGIN ATOM
M  V30 1 O -2.4806 -0.9766 -0.9014 0
M  V30 2 C -1.1512 -0.5304 -1.1304 0
M  V30 3 C -0.5145 -0.1747 0.2055 0
M  V30 4 C 0.9205 0.3142 0.0332 0
M  V30 5 C 1.5528 0.6684 1.3696 0
M  V30 6 H -2.8613 -1.1959 -1.7689 0
M  V30 7 H -1.1856 0.3416 -1.7912 0
M  V30 8 H -0.5956 -1.3323 -1.6268 0
M  V30 9 H -1.1202 0.5926 0.7037 0
M  V30 10 H -0.5408 -1.0511 0.8652 0
M  V30 11 H 1.5221 -0.4612 -0.4549 0
M  V30 12 H 0.9378 1.1961 -0.6176 0
M  V30 13 H 2.5801 1.0161 1.2226 0
M  V30 14 H 0.9929 1.4651 1.8698 0
M  V30 15 H 1.5804 -0.2015 2.0335 0
M  V30 END ATOM
M  V30 BEGIN BOND
M  V30 1 1 1 2
M  V30 2 1 2 3
M  V30 3 1 3 4
M  V30 4 1 4 5
M  V30 5 1 1 6
M  V30 6 1 2 7
M  V30 7 1 2 8
M  V30 8 1 3 9
M  V30 9 1 3 10
M  V30 10 1 4 11
M  V30 11 1 4 12
M  V30 12 1 5 13
M  V30 13 1 5 14
M  V30 14 1 5 15
M  V30 END BOND
M  V30 END CTAB
M  END
>  <NO.>
527

>  <Name>
1-butanol

>  <SMILES>
CCCCO

>  <logBB>
-0.02

>  <Class>
1

>  <MW>
74.07

>  <nHBAcc>
1

>  <nHBDon>
1

>  <SLogP>
0.78

>  <TopoPSA>
20.23

>  <MMFF94 Energy>
-2.0143

$$$$
FC(F)=CCl
Actelion Java MolfileCreator 2.0

  0  0  0  0  0  0              0 V3000
M  V30 BEGIN CTAB
M  V30 COUNTS 6 5 0 0 0
M  V30 BEGIN ATOM
M  V30 1 Cl -0.3411 -0.3411 2.0481 0
M  V30 2 C -0.0149 -0.5638 0.383 0
M  V30 3 C -0.0016 0.4222 -0.5111 0
M  V30 4 F 0.2675 0.1399 -1.8031 0
M  V30 5 F -0.253 1.6962 -0.144 0
M  V30 6 H 0.1813 -1.595 0.1264 0
M  V30 END ATOM
M  V30 BEGIN BOND
M  V30 1 1 1 2
M  V30 2 2 2 3
M  V30 3 1 3 4
M  V30 4 1 3 5
M  V30 5 1 2 6
M  V30 END BOND
M  V30 END CTAB
M  END
>  <NO.>
528

>  <Name>
1-chloro-2,2-difluoroethylene

>  <SMILES>
FC(F)=CCl

>  <logBB>
-0.02

>  <Class>
1

>  <MW>
97.97

>  <nHBAcc>
0

>  <nHBDon>
0

>  <SLogP>
1.96

>  <TopoPSA>
0

>  <MMFF94 Energy>
0.12853

$$$$
O=C(OCc1ccccc1)N1CCC(CNc2ccccn2)CC1
Actelion Java MolfileCreator 2.0

  0  0  0  0  0  0              0 V3000
M  V30 BEGIN CTAB
M  V30 COUNTS 47 49 0 0 0
M  V30 BEGIN ATOM
M  V30 1 O 2.6903 -0.3952 -2.5319 0
M  V30 2 C 2.4202 -0.1834 -1.3554 0
M  V30 3 O 3.112 0.6866 -0.5758 0
M  V30 4 N 1.384 -0.7964 -0.6747 0
M  V30 5 C 4.1895 1.3394 -1.2484 0
M  V30 6 C 0.5582 -1.7873 -1.3493 0
M  V30 7 C 1.0932 -0.5726 0.7371 0
M  V30 8 C 4.8491 2.2715 -0.2646 0
M  V30 9 C -0.9248 -1.4645 -1.1865 0
M  V30 10 C -0.3796 -0.2242 0.9371 0
M  V30 11 C 4.4287 3.6043 -0.1541 0
M  V30 12 C 5.865 1.8072 0.5826 0
M  V30 13 C -1.2994 -1.2788 0.2965 0
M  V30 14 C 5.0284 4.4611 0.7703 0
M  V30 15 C 6.4634 2.6656 1.5065 0
M  V30 16 C -2.7715 -0.8679 0.4611 0
M  V30 17 C 6.0467 3.9924 1.5983 0
M  V30 18 N -3.6454 -1.9551 0.0944 0
M  V30 19 C -5.0117 -1.9188 0.0901 0
M  V30 20 N -5.6028 -3.0865 -0.2313 0
M  V30 21 C -5.7604 -0.7857 0.3856 0
M  V30 22 C -6.9538 -3.1308 -0.2602 0
M  V30 23 C -7.1531 -0.8514 0.3511 0
M  V30 24 C -7.7669 -2.0496 0.021 0
M  V30 25 H 3.8136 1.9078 -2.1082 0
M  V30 26 H 4.9174 0.6014 -1.6075 0
M  V30 27 H 0.8065 -1.8503 -2.4135 0
M  V30 28 H 0.7871 -2.7621 -0.9027 0
M  V30 29 H 1.3412 -1.498 1.2703 0
M  V30 30 H 1.7146 0.2209 1.1609 0
M  V30 31 H -1.518 -2.2682 -1.6367 0
M  V30 32 H -1.155 -0.5449 -1.7401 0
M  V30 33 H -0.5814 0.7583 0.4912 0
M  V30 34 H -0.5906 -0.1413 2.0098 0
M  V30 35 H 3.6287 3.9811 -0.7875 0
M  V30 36 H 6.1929 0.7715 0.5279 0
M  V30 37 H -1.1378 -2.2339 0.8156 0
M  V30 38 H 4.6986 5.494 0.8465 0
M  V30 39 H 7.2526 2.2978 2.1569 0
M  V30 40 H -2.979 0.0151 -0.1556 0
M  V30 41 H -2.9574 -0.5961 1.5074 0
M  V30 42 H 6.5124 4.6598 2.3185 0
M  V30 43 H -3.2784 -2.871 -0.1312 0
M  V30 44 H -5.2812 0.1511 0.6423 0
M  V30 45 H -7.3764 -4.0953 -0.5256 0
M  V30 46 H -7.748 0.0277 0.5796 0
M  V30 47 H -8.846 -2.1395 -0.017 0
M  V30 END ATOM
M  V30 BEGIN BOND
M  V30 1 2 1 2
M  V30 2 1 2 3
M  V30 3 1 2 4
M  V30 4 1 3 5
M  V30 5 1 4 6
M  V30 6 1 4 7
M  V30 7 1 5 8
M  V30 8 1 6 9
M  V30 9 1 7 10
M  V30 10 2 8 11
M  V30 11 1 8 12
M  V30 12 1 9 13
M  V30 13 1 11 14
M  V30 14 2 12 15
M  V30 15 1 13 16
M  V30 16 2 14 17
M  V30 17 1 16 18
M  V30 18 1 18 19
M  V30 19 2 19 20
M  V30 20 1 19 21
M  V30 21 1 20 22
M  V30 22 2 21 23
M  V30 23 2 22 24
M  V30 24 1 10 13
M  V30 25 1 15 17
M  V30 26 1 23 24
M  V30 27 1 5 25
M  V30 28 1 5 26
M  V30 29 1 6 27
M  V30 30 1 6 28
M  V30 31 1 7 29
M  V30 32 1 7 30
M  V30 33 1 9 31
M  V30 34 1 9 32
M  V30 35 1 10 33
M  V30 36 1 10 34
M  V30 37 1 11 35
M  V30 38 1 12 36
M  V30 39 1 13 37
M  V30 40 1 14 38
M  V30 41 1 15 39
M  V30 42 1 16 40
M  V30 43 1 16 41
M  V30 44 1 17 42
M  V30 45 1 18 43
M  V30 46 1 21 44
M  V30 47 1 22 45
M  V30 48 1 23 46
M  V30 49 1 24 47
M  V30 END BOND
M  V30 END CTAB
M  END
>  <NO.>
529

>  <Name>
chembl218017

>  <SMILES>
O=C(OCc1ccccc1)N1CCC(CNc2ccccn2)CC1

>  <logBB>
-0.02

>  <Class>
1

>  <MW>
325.18

>  <nHBAcc>
4

>  <nHBDon>
1

>  <SLogP>
3.54

>  <TopoPSA>
54.46

>  <MMFF94 Energy>
-59.167

$$$$
OCCCOc1cccc(CN2CCCCC2)c1
Actelion Java MolfileCreator 2.0

  0  0  0  0  0  0              0 V3000
M  V30 BEGIN CTAB
M  V30 COUNTS 41 42 0 0 0
M  V30 BEGIN ATOM
M  V30 1 O -2.3571 -0.157 2.5144 0
M  V30 2 C -2.1148 -0.5757 1.2347 0
M  V30 3 C -1.2291 0.2831 3.2751 0
M  V30 4 C -0.8638 -0.6665 0.6227 0
M  V30 5 C -3.2546 -0.9377 0.5139 0
M  V30 6 C -1.7404 0.7431 4.6379 0
M  V30 7 C -0.745 -1.1079 -0.7079 0
M  V30 8 C -3.1518 -1.3802 -0.8047 0
M  V30 9 C -0.6385 1.3474 5.4919 0
M  V30 10 C -1.9013 -1.4657 -1.4142 0
M  V30 11 C 0.6195 -1.2147 -1.3589 0
M  V30 12 O 0.3773 0.3845 5.7299 0
M  V30 13 N 1.3653 0.0549 -1.3624 0
M  V30 14 C 0.7605 1.085 -2.2218 0
M  V30 15 C 2.7794 -0.1451 -1.7108 0
M  V30 16 C 0.9252 0.826 -3.7218 0
M  V30 17 C 3.0199 -0.4564 -3.1901 0
M  V30 18 C 2.3885 0.6022 -4.0876 0
M  V30 19 H -0.7413 1.1235 2.7667 0
M  V30 20 H -0.5201 -0.543 3.4036 0
M  V30 21 H 0.0456 -0.395 1.1505 0
M  V30 22 H -4.2316 -0.8721 0.9859 0
M  V30 23 H -2.1834 -0.1188 5.1522 0
M  V30 24 H -2.5482 1.4724 4.5036 0
M  V30 25 H -4.0471 -1.6578 -1.3541 0
M  V30 26 H -0.1905 2.2147 4.9966 0
M  V30 27 H -1.0453 1.6672 6.4566 0
M  V30 28 H -1.8346 -1.8116 -2.4427 0
M  V30 29 H 0.5227 -1.6297 -2.3689 0
M  V30 30 H 1.1729 -1.9652 -0.7781 0
M  V30 31 H 1.0303 0.797 6.3215 0
M  V30 32 H 1.2316 2.047 -1.979 0
M  V30 33 H -0.3008 1.2244 -1.9869 0
M  V30 34 H 3.2169 -0.9363 -1.0897 0
M  V30 35 H 3.3305 0.7672 -1.4468 0
M  V30 36 H 0.5352 1.6812 -4.2858 0
M  V30 37 H 0.3316 -0.0447 -4.0234 0
M  V30 38 H 2.6115 -1.4428 -3.4399 0
M  V30 39 H 4.0976 -0.5044 -3.384 0
M  V30 40 H 2.4722 0.3037 -5.1382 0
M  V30 41 H 2.938 1.5453 -3.9777 0
M  V30 END ATOM
M  V30 BEGIN BOND
M  V30 1 1 1 2
M  V30 2 1 1 3
M  V30 3 2 2 4
M  V30 4 1 2 5
M  V30 5 1 3 6
M  V30 6 1 4 7
M  V30 7 2 5 8
M  V30 8 1 6 9
M  V30 9 2 7 10
M  V30 10 1 7 11
M  V30 11 1 9 12
M  V30 12 1 11 13
M  V30 13 1 13 14
M  V30 14 1 13 15
M  V30 15 1 14 16
M  V30 16 1 15 17
M  V30 17 1 16 18
M  V30 18 1 8 10
M  V30 19 1 17 18
M  V30 20 1 3 19
M  V30 21 1 3 20
M  V30 22 1 4 21
M  V30 23 1 5 22
M  V30 24 1 6 23
M  V30 25 1 6 24
M  V30 26 1 8 25
M  V30 27 1 9 26
M  V30 28 1 9 27
M  V30 29 1 10 28
M  V30 30 1 11 29
M  V30 31 1 11 30
M  V30 32 1 12 31
M  V30 33 1 14 32
M  V30 34 1 14 33
M  V30 35 1 15 34
M  V30 36 1 15 35
M  V30 37 1 16 36
M  V30 38 1 16 37
M  V30 39 1 17 38
M  V30 40 1 17 39
M  V30 41 1 18 40
M  V30 42 1 18 41
M  V30 END BOND
M  V30 END CTAB
M  END
>  <NO.>
530

>  <Name>
bbcpd22 (ranitidine analog) skb34 (propanol33npiperidinylmethylp henoxy)

>  <SMILES>
OCCCOc1cccc(CN2CCCCC2)c1

>  <logBB>
-0.02

>  <Class>
1

>  <MW>
249.17

>  <nHBAcc>
3

>  <nHBDon>
1

>  <SLogP>
2.43

>  <TopoPSA>
32.7

>  <MMFF94 Energy>
22.454

$$$$
CC(C)(C)c1cnc(CSc2cnc(NC(=O)C3CCNCC3)s2)o1
Actelion Java MolfileCreator 2.0

  0  0  0  0  0  0              0 V3000
M  V30 BEGIN CTAB
M  V30 COUNTS 49 51 0 0 0
M  V30 BEGIN ATOM
M  V30 1 S -0.3243 0.2432 1.379 0
M  V30 2 C -1.5048 -0.1244 2.5465 0
M  V30 3 C 0.1814 -1.3912 1.3645 0
M  V30 4 N -1.5474 -1.3722 2.9487 0
M  V30 5 N -2.3672 0.8059 3.0662 0
M  V30 6 S 1.4779 -2.063 0.3933 0
M  V30 7 C -0.5798 -2.0976 2.2761 0
M  V30 8 C -2.5039 2.1231 2.6833 0
M  V30 9 C 1.5916 -0.9043 -1.0052 0
M  V30 10 O -1.9218 2.6716 1.7548 0
M  V30 11 C -3.531 2.8697 3.5466 0
M  V30 12 C 2.5358 -1.411 -2.0354 0
M  V30 13 C -3.0466 3.0208 4.9959 0
M  V30 14 C -3.8983 4.2393 2.9579 0
M  V30 15 O 2.0275 -2.29 -2.955 0
M  V30 16 N 3.8092 -1.1174 -2.213 0
M  V30 17 C -1.9882 4.1141 5.1334 0
M  V30 18 C -2.8194 5.2948 3.2054 0
M  V30 19 C 3.0903 -2.5843 -3.7695 0
M  V30 20 C 4.1686 -1.8632 -3.306 0
M  V30 21 N -2.4756 5.3936 4.6247 0
M  V30 22 C 2.8481 -3.5522 -4.8911 0
M  V30 23 C 2.3874 -4.9043 -4.3184 0
M  V30 24 C 4.1333 -3.7777 -5.7083 0
M  V30 25 C 1.7613 -2.9977 -5.829 0
M  V30 26 H -2.9485 0.4305 3.8023 0
M  V30 27 H -0.4718 -3.1544 2.4906 0
M  V30 28 H 0.6021 -0.7686 -1.4546 0
M  V30 29 H 1.9444 0.0678 -0.6464 0
M  V30 30 H -4.4381 2.2496 3.5438 0
M  V30 31 H -2.6421 2.0801 5.3854 0
M  V30 32 H -3.9064 3.2746 5.6304 0
M  V30 33 H -4.0921 4.1596 1.8817 0
M  V30 34 H -4.8354 4.5787 3.4193 0
M  V30 35 H -1.065 3.8281 4.6156 0
M  V30 36 H -1.727 4.2331 6.1909 0
M  V30 37 H -3.1861 6.2699 2.8653 0
M  V30 38 H -1.9179 5.0868 2.6189 0
M  V30 39 H 5.1764 -1.8397 -3.6967 0
M  V30 40 H -3.2989 5.6829 5.1525 0
M  V30 41 H 1.4503 -4.8064 -3.7575 0
M  V30 42 H 2.219 -5.6362 -5.1165 0
M  V30 43 H 3.1355 -5.3214 -3.6338 0
M  V30 44 H 4.4976 -2.8421 -6.1492 0
M  V30 45 H 3.9618 -4.484 -6.5288 0
M  V30 46 H 4.9385 -4.1848 -5.0853 0
M  V30 47 H 1.5762 -3.6787 -6.6675 0
M  V30 48 H 0.8096 -2.8552 -5.3036 0
M  V30 49 H 2.0533 -2.026 -6.2449 0
M  V30 END ATOM
M  V30 BEGIN BOND
M  V30 1 1 1 2
M  V30 2 1 1 3
M  V30 3 2 2 4
M  V30 4 1 2 5
M  V30 5 1 3 6
M  V30 6 2 3 7
M  V30 7 1 5 8
M  V30 8 1 6 9
M  V30 9 2 8 10
M  V30 10 1 8 11
M  V30 11 1 9 12
M  V30 12 1 11 13
M  V30 13 1 11 14
M  V30 14 1 12 15
M  V30 15 2 12 16
M  V30 16 1 13 17
M  V30 17 1 14 18
M  V30 18 1 15 19
M  V30 19 1 16 20
M  V30 20 1 17 21
M  V30 21 1 19 22
M  V30 22 1 22 23
M  V30 23 1 22 24
M  V30 24 1 22 25
M  V30 25 1 4 7
M  V30 26 1 18 21
M  V30 27 2 19 20
M  V30 28 1 5 26
M  V30 29 1 7 27
M  V30 30 1 9 28
M  V30 31 1 9 29
M  V30 32 1 11 30
M  V30 33 1 13 31
M  V30 34 1 13 32
M  V30 35 1 14 33
M  V30 36 1 14 34
M  V30 37 1 17 35
M  V30 38 1 17 36
M  V30 39 1 18 37
M  V30 40 1 18 38
M  V30 41 1 20 39
M  V30 42 1 21 40
M  V30 43 1 23 41
M  V30 44 1 23 42
M  V30 45 1 23 43
M  V30 46 1 24 44
M  V30 47 1 24 45
M  V30 48 1 24 46
M  V30 49 1 25 47
M  V30 50 1 25 48
M  V30 51 1 25 49
M  V30 END BOND
M  V30 END CTAB
M  END
>  <NO.>
531

>  <Name>
sns-032

>  <SMILES>
CC(C)(C)c1cnc(CSc2cnc(NC(=O)C3CCNCC3)s2)o1

>  <logBB>
-0.01

>  <Class>
1

>  <MW>
380.13

>  <nHBAcc>
7

>  <nHBDon>
2

>  <SLogP>
3.66

>  <TopoPSA>
80.05

>  <MMFF94 Energy>
-19.834

$$$$
CCC(C)(C)C(=O)O[C@H]1C[C@@H](C)C=C2C=C[C@H](C)[C@H](CC[C@@H]3C[C@@H](O)CC(=O)O3)[C@H]21
Actelion Java MolfileCreator 2.0

  0  0  0  0  0  0              0 V3000
M  V30 BEGIN CTAB
M  V30 COUNTS 68 70 0 0 0
M  V30 BEGIN ATOM
M  V30 1 O 3.4149 4.3695 -2.0637 0
M  V30 2 C 3.8276 3.3321 -1.5557 0
M  V30 3 O 3.1939 2.1541 -1.7637 0
M  V30 4 C 5.1243 3.2792 -0.8019 0
M  V30 5 C 3.2459 1.0765 -0.8064 0 CFG=1
M  V30 6 C 5.1013 2.2876 0.339 0 CFG=1
M  V30 7 C 4.6189 0.9414 -0.1646 0
M  V30 8 C 2.1199 1.2724 0.2248 0
M  V30 9 O 6.4209 2.1522 0.8598 0
M  V30 10 C 0.7309 1.2187 -0.4325 0
M  V30 11 C -0.4363 1.3099 0.5807 0 CFG=2
M  V30 12 C -1.8383 1.1262 -0.0905 0 CFG=2
M  V30 13 C -0.4085 2.6165 1.4328 0 CFG=2
M  V30 14 C -2.9497 1.1696 0.9573 0
M  V30 15 C -1.9378 -0.1427 -0.9805 0 CFG=1
M  V30 16 C -1.6279 2.7232 2.3115 0
M  V30 17 C -0.277 3.9081 0.6178 0
M  V30 18 C -2.7644 2.0499 2.0939 0
M  V30 19 C -4.0727 0.4367 0.8563 0
M  V30 20 O -1.4123 -1.2765 -0.2593 0
M  V30 21 C -3.3808 -0.3943 -1.4343 0
M  V30 22 C -4.3852 -0.5014 -0.2776 0 CFG=1
M  V30 23 C -0.8921 -2.288 -1.0023 0
M  V30 24 C -4.5158 -1.9324 0.2468 0
M  V30 25 O -0.907 -2.3236 -2.2271 0
M  V30 26 C -0.2179 -3.3557 -0.1317 0
M  V30 27 C -0.641 -4.7615 -0.6258 0
M  V30 28 C 1.2993 -3.1883 -0.3387 0
M  V30 29 C -0.5161 -3.194 1.3685 0
M  V30 30 C -2.1256 -5.0747 -0.4738 0
M  V30 31 H 5.9238 3.0429 -1.5143 0
M  V30 32 H 5.344 4.2775 -0.4049 0
M  V30 33 H 3.0477 0.1551 -1.3671 0
M  V30 34 H 4.462 2.6566 1.1485 0
M  V30 35 H 4.612 0.2001 0.643 0
M  V30 36 H 5.3342 0.5664 -0.9091 0
M  V30 37 H 2.2443 2.2395 0.7209 0
M  V30 38 H 2.1854 0.4925 0.9927 0
M  V30 39 H 6.3849 1.554 1.6267 0
M  V30 40 H 0.6326 2.0062 -1.1883 0
M  V30 41 H 0.6739 0.2692 -0.9739 0
M  V30 42 H -0.3027 0.4752 1.2868 0
M  V30 43 H -2.0111 1.9857 -0.7548 0
M  V30 44 H 0.4558 2.5564 2.1068 0
M  V30 45 H -1.329 0.0301 -1.8774 0
M  V30 46 H -1.5634 3.3847 3.1726 0
M  V30 47 H -0.2958 4.7863 1.2742 0
M  V30 48 H -1.092 4.0208 -0.1046 0
M  V30 49 H 0.6684 3.9449 0.0692 0
M  V30 50 H -3.5893 2.1691 2.7932 0
M  V30 51 H -4.8361 0.504 1.6302 0
M  V30 52 H -3.4357 -1.2952 -2.0565 0
M  V30 53 H -3.6835 0.444 -2.0767 0
M  V30 54 H -5.3684 -0.2199 -0.6778 0
M  V30 55 H -4.7542 -2.6259 -0.5664 0
M  V30 56 H -5.3231 -2.003 0.9851 0
M  V30 57 H -3.5995 -2.2782 0.7316 0
M  V30 58 H -0.3779 -4.8768 -1.6853 0
M  V30 59 H -0.0707 -5.5272 -0.0842 0
M  V30 60 H 1.8639 -3.923 0.2458 0
M  V30 61 H 1.6315 -2.1882 -0.036 0
M  V30 62 H 1.5757 -3.3146 -1.392 0
M  V30 63 H -0.1098 -2.2524 1.7569 0
M  V30 64 H -1.5904 -3.1871 1.5756 0
M  V30 65 H -0.0677 -4.0081 1.9491 0
M  V30 66 H -2.7458 -4.3488 -1.0074 0
M  V30 67 H -2.43 -5.0884 0.5764 0
M  V30 68 H -2.3402 -6.0645 -0.8901 0
M  V30 END ATOM
M  V30 BEGIN BOND
M  V30 1 2 1 2
M  V30 2 1 2 3
M  V30 3 1 2 4
M  V30 4 1 3 5
M  V30 5 1 4 6
M  V30 6 1 5 7
M  V30 7 1 5 8
M  V30 8 1 6 9
M  V30 9 1 8 10
M  V30 10 1 10 11
M  V30 11 1 11 12
M  V30 12 1 11 13
M  V30 13 1 12 14
M  V30 14 1 12 15
M  V30 15 1 13 16
M  V30 16 1 13 17
M  V30 17 1 14 18
M  V30 18 2 14 19
M  V30 19 1 15 20
M  V30 20 1 15 21
M  V30 21 1 19 22
M  V30 22 1 20 23
M  V30 23 1 22 24
M  V30 24 2 23 25
M  V30 25 1 23 26
M  V30 26 1 26 27
M  V30 27 1 26 28
M  V30 28 1 26 29
M  V30 29 1 27 30
M  V30 30 1 6 7
M  V30 31 2 16 18
M  V30 32 1 21 22
M  V30 33 1 4 31
M  V30 34 1 4 32
M  V30 35 1 5 33
M  V30 36 1 6 34
M  V30 37 1 7 35
M  V30 38 1 7 36
M  V30 39 1 8 37
M  V30 40 1 8 38
M  V30 41 1 9 39
M  V30 42 1 10 40
M  V30 43 1 10 41
M  V30 44 1 11 42
M  V30 45 1 12 43
M  V30 46 1 13 44
M  V30 47 1 15 45
M  V30 48 1 16 46
M  V30 49 1 17 47
M  V30 50 1 17 48
M  V30 51 1 17 49
M  V30 52 1 18 50
M  V30 53 1 19 51
M  V30 54 1 21 52
M  V30 55 1 21 53
M  V30 56 1 22 54
M  V30 57 1 24 55
M  V30 58 1 24 56
M  V30 59 1 24 57
M  V30 60 1 27 58
M  V30 61 1 27 59
M  V30 62 1 28 60
M  V30 63 1 28 61
M  V30 64 1 28 62
M  V30 65 1 29 63
M  V30 66 1 29 64
M  V30 67 1 29 65
M  V30 68 1 30 66
M  V30 69 1 30 67
M  V30 70 1 30 68
M  V30 END BOND
M  V30 BEGIN COLLECTION
M  V30 MDLV30/STEABS ATOMS=(7 5 6 11 12 13 15 22)
M  V30 END COLLECTION
M  V30 END CTAB
M  END
>  <NO.>
533

>  <Name>
simvastatin

>  <SMILES>
CCC(C)(C)C(=O)O[C@H]1C[C@@H](C)C=C2C=C[C@H](C)[C@H](CC[C@@H]3C[C@@H](O)CC(=O)O3)[C@H]21

>  <logBB>
-0.01

>  <Class>
1

>  <MW>
418.27

>  <nHBAcc>
5

>  <nHBDon>
1

>  <SLogP>
4.59

>  <TopoPSA>
72.83

>  <MMFF94 Energy>
29.616

$$$$
CCCC(C)=O
Actelion Java MolfileCreator 2.0

  0  0  0  0  0  0              0 V3000
M  V30 BEGIN CTAB
M  V30 COUNTS 16 15 0 0 0
M  V30 BEGIN ATOM
M  V30 1 O -0.3803 0.4563 -1.7504 0
M  V30 2 C -0.9281 0.1353 -0.697 0
M  V30 3 C -0.2999 0.3704 0.6667 0
M  V30 4 C -2.2988 -0.4907 -0.696 0
M  V30 5 C 1.1631 0.8027 0.6061 0
M  V30 6 C 2.0949 -0.3383 0.2228 0
M  V30 7 H -0.8857 1.157 1.1559 0
M  V30 8 H -0.3967 -0.5456 1.2596 0
M  V30 9 H -2.6481 -0.6162 -1.7246 0
M  V30 10 H -2.253 -1.4723 -0.2179 0
M  V30 11 H -2.997 0.1578 -0.1612 0
M  V30 12 H 1.2915 1.6317 -0.0992 0
M  V30 13 H 1.4607 1.1742 1.5939 0
M  V30 14 H 3.1335 0.0074 0.2247 0
M  V30 15 H 2.0135 -1.1659 0.9348 0
M  V30 16 H 1.8707 -0.7227 -0.7765 0
M  V30 END ATOM
M  V30 BEGIN BOND
M  V30 1 2 1 2
M  V30 2 1 2 3
M  V30 3 1 2 4
M  V30 4 1 3 5
M  V30 5 1 5 6
M  V30 6 1 3 7
M  V30 7 1 3 8
M  V30 8 1 4 9
M  V30 9 1 4 10
M  V30 10 1 4 11
M  V30 11 1 5 12
M  V30 12 1 5 13
M  V30 13 1 6 14
M  V30 14 1 6 15
M  V30 15 1 6 16
M  V30 END BOND
M  V30 END CTAB
M  END
>  <NO.>
534

>  <Name>
2-pentanone

>  <SMILES>
CCCC(C)=O

>  <logBB>
-0.01

>  <Class>
1

>  <MW>
86.07

>  <nHBAcc>
1

>  <nHBDon>
0

>  <SLogP>
1.38

>  <TopoPSA>
17.07

>  <MMFF94 Energy>
0.30037

$$$$
CCN1CN(c2ccccc2)C2(CCN(CCCC(=O)c3ccc(F)cc3)CC2)C1=O
Actelion Java MolfileCreator 2.0

  0  0  0  0  0  0              0 V3000
M  V30 BEGIN CTAB
M  V30 COUNTS 61 64 0 0 0
M  V30 BEGIN ATOM
M  V30 1 F 1.8348 -10.3244 2.3937 0
M  V30 2 C 1.6594 -8.9981 2.3377 0
M  V30 3 C 2.1828 -8.194 3.3417 0
M  V30 4 C 0.9537 -8.4456 1.2748 0
M  V30 5 C 1.9977 -6.8111 3.2808 0
M  V30 6 C 0.766 -7.0614 1.2099 0
M  V30 7 C 1.2902 -6.2337 2.2135 0
M  V30 8 C 1.1186 -4.7476 2.1973 0
M  V30 9 O 1.4887 -4.0953 3.1709 0
M  V30 10 C 0.4733 -4.1021 0.982 0
M  V30 11 C 0.5541 -2.5737 1.0259 0
M  V30 12 C -0.1694 -1.9521 -0.176 0
M  V30 13 N 0.0605 -0.5029 -0.3142 0
M  V30 14 C -0.5628 0.264 0.766 0
M  V30 15 C -0.479 -0.0336 -1.5936 0
M  V30 16 C -0.1719 1.7379 0.7256 0
M  V30 17 C -0.0732 1.4019 -1.9023 0
M  V30 18 C 0.0486 2.3313 -0.6794 0
M  V30 19 N -0.7301 3.5977 -0.8696 0
M  V30 20 C 1.5087 2.8506 -0.6902 0
M  V30 21 C -2.1009 3.7463 -0.9515 0
M  V30 22 C 0.1532 4.7481 -0.9723 0
M  V30 23 O 2.5292 2.1827 -0.5977 0
M  V30 24 N 1.471 4.2222 -0.8269 0
M  V30 25 C -2.7039 5.0027 -1.156 0
M  V30 26 C -2.9883 2.6673 -0.8379 0
M  V30 27 C 2.647 5.0634 -0.9063 0
M  V30 28 C -4.0935 5.1695 -1.2416 0
M  V30 29 C -4.3799 2.8184 -0.9211 0
M  V30 30 C 3.0517 5.3405 -2.3441 0
M  V30 31 C -4.9343 4.0733 -1.1237 0
M  V30 32 H 2.7299 -8.6439 4.1643 0
M  V30 33 H 0.5529 -9.097 0.504 0
M  V30 34 H 2.4092 -6.1837 4.0702 0
M  V30 35 H 0.2056 -6.6589 0.3717 0
M  V30 36 H 0.9855 -4.4563 0.0806 0
M  V30 37 H -0.5771 -4.412 0.9479 0
M  V30 38 H 0.1111 -2.2198 1.9635 0
M  V30 39 H 1.6074 -2.2659 1.0317 0
M  V30 40 H 0.2091 -2.452 -1.0772 0
M  V30 41 H -1.2435 -2.1727 -0.1185 0
M  V30 42 H -0.2555 -0.1136 1.7472 0
M  V30 43 H -1.655 0.1617 0.7358 0
M  V30 44 H -1.5721 -0.1307 -1.615 0
M  V30 45 H -0.1076 -0.6601 -2.4151 0
M  V30 46 H 0.7418 1.8451 1.3273 0
M  V30 47 H -0.9285 2.3067 1.2813 0
M  V30 48 H -0.7797 1.8059 -2.6385 0
M  V30 49 H 0.8829 1.3584 -2.4423 0
M  V30 50 H 0.0734 5.2314 -1.9517 0
M  V30 51 H -0.0209 5.4707 -0.1676 0
M  V30 52 H -2.1046 5.9028 -1.2572 0
M  V30 53 H -2.6212 1.6637 -0.6767 0
M  V30 54 H 3.4751 4.5602 -0.3953 0
M  V30 55 H 2.4428 5.9983 -0.3739 0
M  V30 56 H -4.5105 6.1605 -1.4002 0
M  V30 57 H -5.0238 1.9481 -0.825 0
M  V30 58 H 2.2612 5.8731 -2.8824 0
M  V30 59 H 3.2518 4.408 -2.8818 0
M  V30 60 H 3.9567 5.9549 -2.373 0
M  V30 61 H -6.0115 4.1956 -1.1884 0
M  V30 END ATOM
M  V30 BEGIN BOND
M  V30 1 1 1 2
M  V30 2 2 2 3
M  V30 3 1 2 4
M  V30 4 1 3 5
M  V30 5 2 4 6
M  V30 6 2 5 7
M  V30 7 1 7 8
M  V30 8 2 8 9
M  V30 9 1 8 10
M  V30 10 1 10 11
M  V30 11 1 11 12
M  V30 12 1 12 13
M  V30 13 1 13 14
M  V30 14 1 13 15
M  V30 15 1 14 16
M  V30 16 1 15 17
M  V30 17 1 16 18
M  V30 18 1 18 19
M  V30 19 1 18 20
M  V30 20 1 19 21
M  V30 21 1 19 22
M  V30 22 2 20 23
M  V30 23 1 20 24
M  V30 24 2 21 25
M  V30 25 1 21 26
M  V30 26 1 24 27
M  V30 27 1 25 28
M  V30 28 2 26 29
M  V30 29 1 27 30
M  V30 30 2 28 31
M  V30 31 1 6 7
M  V30 32 1 17 18
M  V30 33 1 22 24
M  V30 34 1 29 31
M  V30 35 1 3 32
M  V30 36 1 4 33
M  V30 37 1 5 34
M  V30 38 1 6 35
M  V30 39 1 10 36
M  V30 40 1 10 37
M  V30 41 1 11 38
M  V30 42 1 11 39
M  V30 43 1 12 40
M  V30 44 1 12 41
M  V30 45 1 14 42
M  V30 46 1 14 43
M  V30 47 1 15 44
M  V30 48 1 15 45
M  V30 49 1 16 46
M  V30 50 1 16 47
M  V30 51 1 17 48
M  V30 52 1 17 49
M  V30 53 1 22 50
M  V30 54 1 22 51
M  V30 55 1 25 52
M  V30 56 1 26 53
M  V30 57 1 27 54
M  V30 58 1 27 55
M  V30 59 1 28 56
M  V30 60 1 29 57
M  V30 61 1 30 58
M  V30 62 1 30 59
M  V30 63 1 30 60
M  V30 64 1 31 61
M  V30 END BOND
M  V30 END CTAB
M  END
>  <NO.>
536

>  <Name>
chembl136942

>  <SMILES>
CCN1CN(c2ccccc2)C2(CCN(CCCC(=O)c3ccc(F)cc3)CC2)C1=O

>  <logBB>
-0.01

>  <Class>
1

>  <MW>
423.23

>  <nHBAcc>
4

>  <nHBDon>
0

>  <SLogP>
3.95

>  <TopoPSA>
43.86

>  <MMFF94 Energy>
45.861

$$$$
CCNc1cccnc1N1CCN(C(=O)c2cc3cc(OC)ccc3[nH]2)CC1
Actelion Java MolfileCreator 2.0

  0  0  0  0  0  0              0 V3000
M  V30 BEGIN CTAB
M  V30 COUNTS 53 56 0 0 0
M  V30 BEGIN ATOM
M  V30 1 O -0.634 -2.4587 2.8557 0
M  V30 2 C -0.6111 -1.977 1.7251 0
M  V30 3 N -0.6494 -0.5997 1.5284 0
M  V30 4 C -0.5547 -2.8231 0.5516 0
M  V30 5 C -0.8961 0.2606 2.6952 0
M  V30 6 C -0.2644 0.0934 0.2882 0
M  V30 7 N -1.312 -2.6609 -0.5862 0
M  V30 8 C 0.1697 -3.9892 0.3742 0
M  V30 9 C -1.3986 1.6528 2.2869 0
M  V30 10 C 0.4041 1.4567 0.5515 0
M  V30 11 C -1.0296 -3.6393 -1.5099 0
M  V30 12 C -0.0997 -4.4954 -0.926 0
M  V30 13 N -0.4523 2.3284 1.3815 0
M  V30 14 C -1.5335 -3.8389 -2.7976 0
M  V30 15 C 0.3571 -5.6121 -1.6575 0
M  V30 16 C 0.2906 3.3731 1.9728 0
M  V30 17 C -1.0607 -4.9497 -3.5047 0
M  V30 18 C -0.1291 -5.8312 -2.9519 0
M  V30 19 N 0.6622 3.234 3.2682 0
M  V30 20 C 0.6482 4.5039 1.1855 0
M  V30 21 O 0.227 -6.8674 -3.7741 0
M  V30 22 C 1.431 4.2024 3.8054 0
M  V30 23 N 0.2082 4.6055 -0.13 0
M  V30 24 C 1.4645 5.464 1.7873 0
M  V30 25 C 1.1547 -7.8102 -3.2524 0
M  V30 26 C 1.8602 5.3182 3.1133 0
M  V30 27 C 0.4511 5.7335 -0.9989 0
M  V30 28 C -0.1678 5.4756 -2.3628 0
M  V30 29 H -1.6275 -0.2235 3.3519 0
M  V30 30 H 0.0481 0.3346 3.2477 0
M  V30 31 H -1.1836 0.2421 -0.2903 0
M  V30 32 H 0.4148 -0.5324 -0.2982 0
M  V30 33 H -1.9985 -1.932 -0.7172 0
M  V30 34 H 0.8362 -4.4206 1.1109 0
M  V30 35 H -1.6402 2.2516 3.1736 0
M  V30 36 H -2.343 1.5366 1.7397 0
M  V30 37 H 1.3618 1.272 1.0579 0
M  V30 38 H 0.622 1.9341 -0.4099 0
M  V30 39 H -2.263 -3.1685 -3.2391 0
M  V30 40 H 1.0773 -6.273 -1.1913 0
M  V30 41 H -1.4324 -5.1338 -4.5107 0
M  V30 42 H 1.7082 4.0483 4.8441 0
M  V30 43 H -0.5246 3.9385 -0.3613 0
M  V30 44 H 1.7919 6.3414 1.2403 0
M  V30 45 H 2.1177 -7.3371 -3.0342 0
M  V30 46 H 1.3247 -8.5712 -4.02 0
M  V30 47 H 0.7511 -8.3143 -2.368 0
M  V30 48 H 2.4848 6.0621 3.5943 0
M  V30 49 H 0.0157 6.6436 -0.5714 0
M  V30 50 H 1.528 5.8918 -1.1249 0
M  V30 51 H 0.0177 6.3211 -3.0322 0
M  V30 52 H 0.2544 4.5752 -2.8214 0
M  V30 53 H -1.2508 5.3338 -2.2823 0
M  V30 END ATOM
M  V30 BEGIN BOND
M  V30 1 2 1 2
M  V30 2 1 2 3
M  V30 3 1 2 4
M  V30 4 1 3 5
M  V30 5 1 3 6
M  V30 6 1 4 7
M  V30 7 2 4 8
M  V30 8 1 5 9
M  V30 9 1 6 10
M  V30 10 1 7 11
M  V30 11 1 8 12
M  V30 12 1 9 13
M  V30 13 1 11 14
M  V30 14 1 12 15
M  V30 15 1 13 16
M  V30 16 2 14 17
M  V30 17 2 15 18
M  V30 18 2 16 19
M  V30 19 1 16 20
M  V30 20 1 18 21
M  V30 21 1 19 22
M  V30 22 1 20 23
M  V30 23 2 20 24
M  V30 24 1 21 25
M  V30 25 2 22 26
M  V30 26 1 23 27
M  V30 27 1 27 28
M  V30 28 1 10 13
M  V30 29 2 11 12
M  V30 30 1 17 18
M  V30 31 1 24 26
M  V30 32 1 5 29
M  V30 33 1 5 30
M  V30 34 1 6 31
M  V30 35 1 6 32
M  V30 36 1 7 33
M  V30 37 1 8 34
M  V30 38 1 9 35
M  V30 39 1 9 36
M  V30 40 1 10 37
M  V30 41 1 10 38
M  V30 42 1 14 39
M  V30 43 1 15 40
M  V30 44 1 17 41
M  V30 45 1 22 42
M  V30 46 1 23 43
M  V30 47 1 24 44
M  V30 48 1 25 45
M  V30 49 1 25 46
M  V30 50 1 25 47
M  V30 51 1 26 48
M  V30 52 1 27 49
M  V30 53 1 27 50
M  V30 54 1 28 51
M  V30 55 1 28 52
M  V30 56 1 28 53
M  V30 END BOND
M  V30 END CTAB
M  END
>  <NO.>
537

>  <Name>
atevirdine

>  <SMILES>
CCNc1cccnc1N1CCN(C(=O)c2cc3cc(OC)ccc3[nH]2)CC1

>  <logBB>
-0.01

>  <Class>
1

>  <MW>
379.2

>  <nHBAcc>
5

>  <nHBDon>
2

>  <SLogP>
2.97

>  <TopoPSA>
73.49

>  <MMFF94 Energy>
74.019

$$$$
O=[N+]([O-])c1nccn1CC(O)CF
Actelion Java MolfileCreator 2.0

  0  0  0  0  0  0              0 V3000
M  V30 BEGIN CTAB
M  V30 COUNTS 21 21 0 0 0
M  V30 BEGIN ATOM
M  V30 1 F 0.6349 -2.8597 -0.6349 0
M  V30 2 C 1.2835 -1.7116 -0.9651 0
M  V30 3 C 1.4525 -0.8514 0.2836 0 CFG=1
M  V30 4 O 2.123 0.3588 -0.0669 0
M  V30 5 C 0.1183 -0.5893 0.9999 0
M  V30 6 N -0.8417 0.1833 0.2318 0
M  V30 7 C -0.9769 1.5433 0.0926 0
M  V30 8 C -1.8691 -0.3877 -0.4871 0
M  V30 9 N -0.1332 2.5439 0.7014 0 CHG=1
M  V30 10 N -2.0046 1.8564 -0.6767 0
M  V30 11 C -2.5618 0.6614 -1.0423 0
M  V30 12 O -0.3675 3.7287 0.4319 0
M  V30 13 O 0.7684 2.1567 1.4619 0 CHG=-1
M  V30 14 H 0.7178 -1.1989 -1.749 0
M  V30 15 H 2.2578 -1.9754 -1.3891 0
M  V30 16 H 2.102 -1.3932 0.9812 0
M  V30 17 H 2.2129 0.9087 0.7384 0
M  V30 18 H 0.2752 -0.0756 1.9527 0
M  V30 19 H -0.3609 -1.543 1.2548 0
M  V30 20 H -2.012 -1.4593 -0.5473 0
M  V30 21 H -3.4343 0.618 -1.6829 0
M  V30 END ATOM
M  V30 BEGIN BOND
M  V30 1 1 1 2
M  V30 2 1 2 3
M  V30 3 1 3 4
M  V30 4 1 3 5
M  V30 5 1 5 6
M  V30 6 1 6 7
M  V30 7 1 6 8
M  V30 8 1 7 9
M  V30 9 2 7 10
M  V30 10 2 8 11
M  V30 11 2 9 12
M  V30 12 1 9 13
M  V30 13 1 10 11
M  V30 14 1 2 14
M  V30 15 1 2 15
M  V30 16 1 3 16
M  V30 17 1 4 17
M  V30 18 1 5 18
M  V30 19 1 5 19
M  V30 20 1 8 20
M  V30 21 1 11 21
M  V30 END BOND
M  V30 BEGIN COLLECTION
M  V30 MDLV30/STERAC1 ATOMS=(1 3)
M  V30 END COLLECTION
M  V30 END CTAB
M  END
>  <NO.>
538

>  <Name>
fluoromisonidazole

>  <SMILES>
O=[N+]([O-])c1nccn1CC(O)CF

>  <logBB>
-0.01

>  <Class>
1

>  <MW>
189.05

>  <nHBAcc>
4

>  <nHBDon>
1

>  <SLogP>
0.12

>  <TopoPSA>
81.19

>  <MMFF94 Energy>
73.99

$$$$
O=[N+]([O-])c1nccn1CC(O)COCF
Actelion Java MolfileCreator 2.0

  0  0  0  0  0  0              0 V3000
M  V30 BEGIN CTAB
M  V30 COUNTS 25 25 0 0 0
M  V30 BEGIN ATOM
M  V30 1 F -1.6654 3.3331 -0.6342 0
M  V30 2 C -1.1821 2.5633 0.3713 0
M  V30 3 O -0.5484 1.4315 -0.2172 0
M  V30 4 C -1.4744 0.6445 -0.9677 0
M  V30 5 C -0.7228 -0.5141 -1.6343 0 CFG=1
M  V30 6 O 0.3245 0.0035 -2.4641 0
M  V30 7 C -0.159 -1.5812 -0.681 0
M  V30 8 N 0.8979 -1.1515 0.2163 0
M  V30 9 C 0.8378 -0.6675 1.4984 0
M  V30 10 C 2.2368 -1.2111 -0.1085 0
M  V30 11 N -0.3711 -0.4097 2.2314 0 CHG=1
M  V30 12 N 2.0348 -0.4047 1.9906 0
M  V30 13 C 2.9105 -0.7434 0.9947 0
M  V30 14 O -1.3706 -1.0841 1.9454 0
M  V30 15 O -0.3432 0.4915 3.0802 0 CHG=-1
M  V30 16 H -2.0016 2.2631 1.0312 0
M  V30 17 H -0.4411 3.1393 0.9305 0
M  V30 18 H -1.9164 1.2731 -1.7494 0
M  V30 19 H -2.2708 0.2689 -0.3167 0
M  V30 20 H -1.425 -1.0212 -2.3065 0
M  V30 21 H 0.7042 0.7684 -1.9855 0
M  V30 22 H 0.2827 -2.3823 -1.2896 0
M  V30 23 H -0.9543 -2.0585 -0.1056 0
M  V30 24 H 2.5818 -1.56 -1.0733 0
M  V30 25 H 3.9804 -0.6314 1.1214 0
M  V30 END ATOM
M  V30 BEGIN BOND
M  V30 1 1 1 2
M  V30 2 1 2 3
M  V30 3 1 3 4
M  V30 4 1 4 5
M  V30 5 1 5 6
M  V30 6 1 5 7
M  V30 7 1 7 8
M  V30 8 1 8 9
M  V30 9 1 8 10
M  V30 10 1 9 11
M  V30 11 2 9 12
M  V30 12 2 10 13
M  V30 13 2 11 14
M  V30 14 1 11 15
M  V30 15 1 12 13
M  V30 16 1 2 16
M  V30 17 1 2 17
M  V30 18 1 4 18
M  V30 19 1 4 19
M  V30 20 1 5 20
M  V30 21 1 6 21
M  V30 22 1 7 22
M  V30 23 1 7 23
M  V30 24 1 10 24
M  V30 25 1 13 25
M  V30 END BOND
M  V30 BEGIN COLLECTION
M  V30 MDLV30/STERAC1 ATOMS=(1 5)
M  V30 END COLLECTION
M  V30 END CTAB
M  END
>  <NO.>
539

>  <Name>
misonidazole,fluoro

>  <SMILES>
O=[N+]([O-])c1nccn1CC(O)COCF

>  <logBB>
-0.01

>  <Class>
1

>  <MW>
219.07

>  <nHBAcc>
5

>  <nHBDon>
1

>  <SLogP>
0.1

>  <TopoPSA>
90.42

>  <MMFF94 Energy>
71.016

$$$$
c1ccc2c(c1)CCC(CNCCCNC1=NCCCN1)O2
Actelion Java MolfileCreator 2.0

  0  0  0  0  0  0              0 V3000
M  V30 BEGIN CTAB
M  V30 COUNTS 48 50 0 0 0
M  V30 BEGIN ATOM
M  V30 1 O 4.4863 0.1571 0.7859 0
M  V30 2 C 4.2556 -0.9005 -0.0462 0
M  V30 3 C 3.6775 0.2488 1.9664 0 CFG=2
M  V30 4 C 3.4821 -2.0133 0.2889 0
M  V30 5 C 4.8792 -0.8302 -1.2936 0
M  V30 6 C 3.3623 -1.1033 2.6046 0
M  V30 7 C 2.484 1.2163 1.7495 0
M  V30 8 C 3.316 -3.0392 -0.654 0
M  V30 9 C 2.8043 -2.1153 1.6194 0
M  V30 10 C 4.7177 -1.8573 -2.2227 0
M  V30 11 N 1.3977 0.7274 0.8911 0
M  V30 12 C 3.9326 -2.9617 -1.9033 0
M  V30 13 C 0.4166 1.7753 0.6139 0
M  V30 14 C -0.6195 1.3352 -0.4244 0
M  V30 15 C -1.4908 0.1735 0.0442 0
M  V30 16 N -2.5343 -0.0966 -0.9115 0
M  V30 17 C -3.7541 0.4632 -1.0742 0
M  V30 18 N -4.5037 0.0068 -2.0202 0
M  V30 19 N -4.0892 1.4494 -0.2089 0
M  V30 20 C -5.8179 0.6343 -2.1913 0
M  V30 21 C -5.3637 2.1158 -0.2734 0
M  V30 22 C -6.3794 1.1689 -0.883 0
M  V30 23 H 4.3216 0.7686 2.6893 0
M  V30 24 H 5.487 0.0351 -1.5432 0
M  V30 25 H 2.6925 -0.9912 3.4645 0
M  V30 26 H 4.3055 -1.5116 2.9941 0
M  V30 27 H 2.0663 1.4751 2.7304 0
M  V30 28 H 2.891 2.1351 1.3082 0
M  V30 29 H 2.7046 -3.9068 -0.4171 0
M  V30 30 H 1.7271 -1.9767 1.4861 0
M  V30 31 H 2.9438 -3.1218 2.0328 0
M  V30 32 H 5.2003 -1.7918 -3.1936 0
M  V30 33 H 0.9463 -0.0663 1.336 0
M  V30 34 H 3.7995 -3.7618 -2.6263 0
M  V30 35 H -0.0907 2.0727 1.5394 0
M  V30 36 H 0.9247 2.6626 0.217 0
M  V30 37 H -1.2523 2.2 -0.6606 0
M  V30 38 H -0.116 1.0634 -1.3614 0
M  V30 39 H -0.8797 -0.7306 0.1421 0
M  V30 40 H -1.9124 0.3688 1.0366 0
M  V30 41 H -2.3379 -0.8125 -1.6027 0
M  V30 42 H -3.404 1.811 0.4323 0
M  V30 43 H -6.5085 -0.1131 -2.5966 0
M  V30 44 H -5.7387 1.4348 -2.9361 0
M  V30 45 H -5.2701 3.0221 -0.882 0
M  V30 46 H -5.6791 2.42 0.7297 0
M  V30 47 H -7.3313 1.6828 -1.0532 0
M  V30 48 H -6.5716 0.3349 -0.1963 0
M  V30 END ATOM
M  V30 BEGIN BOND
M  V30 1 1 1 2
M  V30 2 1 1 3
M  V30 3 2 2 4
M  V30 4 1 2 5
M  V30 5 1 3 6
M  V30 6 1 3 7
M  V30 7 1 4 8
M  V30 8 1 4 9
M  V30 9 2 5 10
M  V30 10 1 7 11
M  V30 11 2 8 12
M  V30 12 1 11 13
M  V30 13 1 13 14
M  V30 14 1 14 15
M  V30 15 1 15 16
M  V30 16 1 16 17
M  V30 17 2 17 18
M  V30 18 1 17 19
M  V30 19 1 18 20
M  V30 20 1 19 21
M  V30 21 1 20 22
M  V30 22 1 6 9
M  V30 23 1 10 12
M  V30 24 1 21 22
M  V30 25 1 3 23
M  V30 26 1 5 24
M  V30 27 1 6 25
M  V30 28 1 6 26
M  V30 29 1 7 27
M  V30 30 1 7 28
M  V30 31 1 8 29
M  V30 32 1 9 30
M  V30 33 1 9 31
M  V30 34 1 10 32
M  V30 35 1 11 33
M  V30 36 1 12 34
M  V30 37 1 13 35
M  V30 38 1 13 36
M  V30 39 1 14 37
M  V30 40 1 14 38
M  V30 41 1 15 39
M  V30 42 1 15 40
M  V30 43 1 16 41
M  V30 44 1 19 42
M  V30 45 1 20 43
M  V30 46 1 20 44
M  V30 47 1 21 45
M  V30 48 1 21 46
M  V30 49 1 22 47
M  V30 50 1 22 48
M  V30 END BOND
M  V30 BEGIN COLLECTION
M  V30 MDLV30/STERAC1 ATOMS=(1 3)
M  V30 END COLLECTION
M  V30 END CTAB
M  END
>  <NO.>
540

>  <Name>
alniditan dihydrochloride

>  <SMILES>
c1ccc2c(c1)CCC(CNCCCNC1=NCCCN1)O2

>  <logBB>
-0.01

>  <Class>
1

>  <MW>
302.21

>  <nHBAcc>
5

>  <nHBDon>
3

>  <SLogP>
1.3

>  <TopoPSA>
57.68

>  <MMFF94 Energy>
-86.64

$$$$
Cc1nc2n(c(=O)c1CCN1CCC(c3noc4cc(F)ccc34)CC1)CCCC2
Actelion Java MolfileCreator 2.0

  0  0  0  0  0  0              0 V3000
M  V30 BEGIN CTAB
M  V30 COUNTS 57 61 0 0 0
M  V30 BEGIN ATOM
M  V30 1 F 5.3132 -3.2981 -6.1201 0
M  V30 2 C 4.7778 -2.7406 -5.0252 0
M  V30 3 C 4.6349 -1.3559 -4.976 0
M  V30 4 C 4.3822 -3.5672 -3.9738 0
M  V30 5 C 4.0716 -0.8532 -3.8083 0
M  V30 6 C 3.8174 -3.0241 -2.8107 0
M  V30 7 O 3.8329 0.455 -3.5337 0
M  V30 8 C 3.6629 -1.6274 -2.7353 0
M  V30 9 N 3.2627 0.5695 -2.279 0
M  V30 10 C 3.1634 -0.6788 -1.7993 0
M  V30 11 C 2.5765 -0.9536 -0.4397 0
M  V30 12 C 3.2341 -0.1468 0.6873 0
M  V30 13 C 1.0512 -0.7967 -0.414 0
M  V30 14 C 2.6692 1.2673 0.8345 0
M  V30 15 C 0.6064 0.6557 -0.2441 0
M  V30 16 N 1.2047 1.2401 0.9664 0
M  V30 17 C 0.6751 2.5903 1.2326 0
M  V30 18 C -0.4412 2.6039 2.2975 0
M  V30 19 C -1.7182 1.9146 1.8923 0
M  V30 20 C -1.9478 0.5499 2.442 0
M  V30 21 C -2.6807 2.4256 1.1024 0
M  V30 22 O -1.1995 0.0763 3.296 0
M  V30 23 N -3.0612 -0.121 1.9658 0
M  V30 24 N -3.8116 1.739 0.7424 0
M  V30 25 C -2.6161 3.8022 0.4901 0
M  V30 26 C -3.9639 0.5254 1.1624 0
M  V30 27 C -3.3048 -1.4481 2.5182 0
M  V30 28 C -5.1883 -0.2244 0.6699 0
M  V30 29 C -4.3288 -2.2691 1.7546 0
M  V30 30 C -5.5649 -1.4243 1.5155 0
M  V30 31 H 4.9417 -0.7169 -5.7927 0
M  V30 32 H 4.5168 -4.6417 -4.0656 0
M  V30 33 H 3.5108 -3.6714 -1.9945 0
M  V30 34 H 2.7889 -2.011 -0.2267 0
M  V30 35 H 4.3212 -0.097 0.5491 0
M  V30 36 H 3.067 -0.6795 1.6339 0
M  V30 37 H 0.6531 -1.3803 0.4276 0
M  V30 38 H 0.6003 -1.2156 -1.3221 0
M  V30 39 H 3.1115 1.7 1.741 0
M  V30 40 H 2.9789 1.9041 -0.0023 0
M  V30 41 H 0.8596 1.2438 -1.1348 0
M  V30 42 H -0.4855 0.6549 -0.1744 0
M  V30 43 H 0.3458 3.0821 0.3084 0
M  V30 44 H 1.471 3.2332 1.6331 0
M  V30 45 H -0.0472 2.1829 3.231 0
M  V30 46 H -0.6632 3.6479 2.5544 0
M  V30 47 H -3.4758 4.3972 0.8176 0
M  V30 48 H -1.7149 4.361 0.7513 0
M  V30 49 H -2.6481 3.7272 -0.6023 0
M  V30 50 H -2.3577 -1.9988 2.5684 0
M  V30 51 H -3.6408 -1.3033 3.5534 0
M  V30 52 H -6.0337 0.4713 0.6141 0
M  V30 53 H -4.9732 -0.5454 -0.3571 0
M  V30 54 H -3.9081 -2.5961 0.7959 0
M  V30 55 H -4.5846 -3.17 2.3229 0
M  V30 56 H -6.3352 -2.0135 1.0061 0
M  V30 57 H -5.9856 -1.0941 2.4731 0
M  V30 END ATOM
M  V30 BEGIN BOND
M  V30 1 1 1 2
M  V30 2 2 2 3
M  V30 3 1 2 4
M  V30 4 1 3 5
M  V30 5 2 4 6
M  V30 6 1 5 7
M  V30 7 2 5 8
M  V30 8 1 7 9
M  V30 9 1 8 10
M  V30 10 1 10 11
M  V30 11 1 11 12
M  V30 12 1 11 13
M  V30 13 1 12 14
M  V30 14 1 13 15
M  V30 15 1 14 16
M  V30 16 1 16 17
M  V30 17 1 17 18
M  V30 18 1 18 19
M  V30 19 1 19 20
M  V30 20 2 19 21
M  V30 21 2 20 22
M  V30 22 1 20 23
M  V30 23 1 21 24
M  V30 24 1 21 25
M  V30 25 1 23 26
M  V30 26 1 23 27
M  V30 27 1 26 28
M  V30 28 1 27 29
M  V30 29 1 28 30
M  V30 30 1 6 8
M  V30 31 2 9 10
M  V30 32 1 15 16
M  V30 33 2 24 26
M  V30 34 1 29 30
M  V30 35 1 3 31
M  V30 36 1 4 32
M  V30 37 1 6 33
M  V30 38 1 11 34
M  V30 39 1 12 35
M  V30 40 1 12 36
M  V30 41 1 13 37
M  V30 42 1 13 38
M  V30 43 1 14 39
M  V30 44 1 14 40
M  V30 45 1 15 41
M  V30 46 1 15 42
M  V30 47 1 17 43
M  V30 48 1 17 44
M  V30 49 1 18 45
M  V30 50 1 18 46
M  V30 51 1 25 47
M  V30 52 1 25 48
M  V30 53 1 25 49
M  V30 54 1 27 50
M  V30 55 1 27 51
M  V30 56 1 28 52
M  V30 57 1 28 53
M  V30 58 1 29 54
M  V30 59 1 29 55
M  V30 60 1 30 56
M  V30 61 1 30 57
M  V30 END BOND
M  V30 END CTAB
M  END
>  <NO.>
541

>  <Name>
risperidone

>  <SMILES>
Cc1nc2n(c(=O)c1CCN1CCC(c3noc4cc(F)ccc34)CC1)CCCC2

>  <logBB>
0

>  <Class>
1

>  <MW>
410.21

>  <nHBAcc>
5

>  <nHBDon>
0

>  <SLogP>
3.59

>  <TopoPSA>
64.16

>  <MMFF94 Energy>
-16.315

$$$$
CC(C)(C)/[N+]([O-])=C/c1ccccc1
Actelion Java MolfileCreator 2.0

  0  0  0  0  0  0              0 V3000
M  V30 BEGIN CTAB
M  V30 COUNTS 28 28 0 0 0
M  V30 BEGIN ATOM
M  V30 1 O 0.156 1.4054 -1.171 0 CHG=-1
M  V30 2 N 0.148 0.1582 -0.8987 0 CHG=1
M  V30 3 C -0.045 -0.2616 0.3378 0
M  V30 4 C 0.3359 -0.8193 -2.0441 0
M  V30 5 C -0.2328 0.5774 1.5339 0
M  V30 6 C -0.9446 -1.6476 -2.1702 0
M  V30 7 C 0.5738 -0.0355 -3.3438 0
M  V30 8 C 1.564 -1.6796 -1.736 0
M  V30 9 C 0.2173 1.8932 1.653 0
M  V30 10 C -0.8612 -0.0362 2.6251 0
M  V30 11 C 0.0173 2.5975 2.8439 0
M  V30 12 C -1.0594 0.6696 3.814 0
M  V30 13 C -0.622 1.9878 3.9219 0
M  V30 14 H -0.0904 -1.3516 0.4817 0
M  V30 15 H -1.1234 -2.2735 -1.2898 0
M  V30 16 H -0.8912 -2.3176 -3.0358 0
M  V30 17 H -1.822 -1.0031 -2.2979 0
M  V30 18 H -0.278 0.609 -3.5897 0
M  V30 19 H 1.4657 0.5982 -3.2756 0
M  V30 20 H 0.7207 -0.7182 -4.1887 0
M  V30 21 H 1.7931 -2.3453 -2.5758 0
M  V30 22 H 2.4468 -1.0572 -1.5503 0
M  V30 23 H 1.4184 -2.3138 -0.8555 0
M  V30 24 H 0.7356 2.3938 0.8405 0
M  V30 25 H -1.2103 -1.0636 2.5606 0
M  V30 26 H 0.3652 3.6243 2.9269 0
M  V30 27 H -1.5551 0.1912 4.6548 0
M  V30 28 H -0.7759 2.54 4.8455 0
M  V30 END ATOM
M  V30 BEGIN BOND
M  V30 1 1 1 2
M  V30 2 2 2 3
M  V30 3 1 2 4
M  V30 4 1 3 5
M  V30 5 1 4 6
M  V30 6 1 4 7
M  V30 7 1 4 8
M  V30 8 2 5 9
M  V30 9 1 5 10
M  V30 10 1 9 11
M  V30 11 2 10 12
M  V30 12 2 11 13
M  V30 13 1 12 13
M  V30 14 1 3 14
M  V30 15 1 6 15
M  V30 16 1 6 16
M  V30 17 1 6 17
M  V30 18 1 7 18
M  V30 19 1 7 19
M  V30 20 1 7 20
M  V30 21 1 8 21
M  V30 22 1 8 22
M  V30 23 1 8 23
M  V30 24 1 9 24
M  V30 25 1 10 25
M  V30 26 1 11 26
M  V30 27 1 12 27
M  V30 28 1 13 28
M  V30 END BOND
M  V30 END CTAB
M  END
>  <NO.>
542

>  <Name>
phenyl-n-tert-butylnitrone

>  <SMILES>
CC(C)(C)/[N+]([O-])=C/c1ccccc1

>  <logBB>
0

>  <Class>
1

>  <MW>
177.12

>  <nHBAcc>
1

>  <nHBDon>
0

>  <SLogP>
2.41

>  <TopoPSA>
26.07

>  <MMFF94 Energy>
39.404

$$$$
Cc1nnc2n1-c1ccc(Cl)cc1C(c1ccccc1)=NC2
Actelion Java MolfileCreator 2.0

  0  0  0  0  0  0              0 V3000
M  V30 BEGIN CTAB
M  V30 COUNTS 35 38 0 0 0
M  V30 BEGIN ATOM
M  V30 1 Cl 1.3048 2.4476 3.8366 0
M  V30 2 C 1.004 2.0716 2.1857 0
M  V30 3 C 0.1177 1.0462 1.8607 0
M  V30 4 C 1.6394 2.8017 1.185 0
M  V30 5 C -0.1288 0.7244 0.5156 0
M  V30 6 C 1.3874 2.5088 -0.1563 0
M  V30 7 C -1.0893 -0.3911 0.2316 0
M  V30 8 C 0.5132 1.4638 -0.4942 0
M  V30 9 N -2.038 -0.3388 -0.6429 0
M  V30 10 C -0.9564 -1.6619 1.0161 0
M  V30 11 N 0.2215 1.2314 -1.8555 0
M  V30 12 C -2.2158 0.8361 -1.4936 0
M  V30 13 C -2.1134 -2.3709 1.3614 0
M  V30 14 C 0.2996 -2.1647 1.3797 0
M  V30 15 C -1.0341 1.0109 -2.3681 0
M  V30 16 C 1.0636 1.2177 -2.9507 0
M  V30 17 C -2.0169 -3.5571 2.0907 0
M  V30 18 C 0.3909 -3.352 2.1096 0
M  V30 19 N -0.9762 0.9782 -3.6819 0
M  V30 20 N 0.3391 1.1092 -4.0468 0
M  V30 21 C 2.5429 1.267 -2.9067 0
M  V30 22 C -0.7659 -4.0441 2.4677 0
M  V30 23 H -0.3874 0.5082 2.6607 0
M  V30 24 H 2.3156 3.6141 1.4428 0
M  V30 25 H 1.8541 3.1319 -0.9163 0
M  V30 26 H -2.4133 1.7334 -0.895 0
M  V30 27 H -3.1045 0.6772 -2.1145 0
M  V30 28 H -3.0926 -2.0032 1.0621 0
M  V30 29 H 1.2154 -1.658 1.0893 0
M  V30 30 H -2.9179 -4.1041 2.3573 0
M  V30 31 H 1.3651 -3.7444 2.3912 0
M  V30 32 H 2.8946 2.3024 -2.8803 0
M  V30 33 H 2.9406 0.7317 -2.0393 0
M  V30 34 H 2.9614 0.7964 -3.8024 0
M  V30 35 H -0.6925 -4.9712 3.0313 0
M  V30 END ATOM
M  V30 BEGIN BOND
M  V30 1 1 1 2
M  V30 2 2 2 3
M  V30 3 1 2 4
M  V30 4 1 3 5
M  V30 5 2 4 6
M  V30 6 1 5 7
M  V30 7 2 5 8
M  V30 8 2 7 9
M  V30 9 1 7 10
M  V30 10 1 8 11
M  V30 11 1 9 12
M  V30 12 2 10 13
M  V30 13 1 10 14
M  V30 14 1 11 15
M  V30 15 1 11 16
M  V30 16 1 13 17
M  V30 17 2 14 18
M  V30 18 2 15 19
M  V30 19 2 16 20
M  V30 20 1 16 21
M  V30 21 2 17 22
M  V30 22 1 6 8
M  V30 23 1 12 15
M  V30 24 1 18 22
M  V30 25 1 19 20
M  V30 26 1 3 23
M  V30 27 1 4 24
M  V30 28 1 6 25
M  V30 29 1 12 26
M  V30 30 1 12 27
M  V30 31 1 13 28
M  V30 32 1 14 29
M  V30 33 1 17 30
M  V30 34 1 18 31
M  V30 35 1 21 32
M  V30 36 1 21 33
M  V30 37 1 21 34
M  V30 38 1 22 35
M  V30 END BOND
M  V30 END CTAB
M  END
>  <NO.>
543

>  <Name>
alprazolam

>  <SMILES>
Cc1nnc2n1-c1ccc(Cl)cc1C(c1ccccc1)=NC2

>  <logBB>
0

>  <Class>
1

>  <MW>
308.08

>  <nHBAcc>
3

>  <nHBDon>
0

>  <SLogP>
3.58

>  <TopoPSA>
43.07

>  <MMFF94 Energy>
87.11

$$$$
CCOCC
Actelion Java MolfileCreator 2.0

  0  0  0  0  0  0              0 V3000
M  V30 BEGIN CTAB
M  V30 COUNTS 15 14 0 0 0
M  V30 BEGIN ATOM
M  V30 1 O 0.0 -0.6765 0.4509 0
M  V30 2 C 0.9637 -1.0194 -0.5422 0
M  V30 3 C -0.112 0.7276 0.6693 0
M  V30 4 C 0.4117 -0.8317 -1.9442 0
M  V30 5 C -1.1103 0.9569 1.7876 0
M  V30 6 H 1.2057 -2.0774 -0.3971 0
M  V30 7 H 1.8888 -0.45 -0.3978 0
M  V30 8 H -0.4609 1.2264 -0.2398 0
M  V30 9 H 0.8627 1.1384 0.9544 0
M  V30 10 H 1.1161 -1.2126 -2.6894 0
M  V30 11 H -0.542 -1.3574 -2.0568 0
M  V30 12 H 0.2246 0.2241 -2.1606 0
M  V30 13 H -1.2278 2.0247 1.993 0
M  V30 14 H -2.0872 0.538 1.5242 0
M  V30 15 H -0.7847 0.4544 2.7045 0
M  V30 END ATOM
M  V30 BEGIN BOND
M  V30 1 1 1 2
M  V30 2 1 1 3
M  V30 3 1 2 4
M  V30 4 1 3 5
M  V30 5 1 2 6
M  V30 6 1 2 7
M  V30 7 1 3 8
M  V30 8 1 3 9
M  V30 9 1 4 10
M  V30 10 1 4 11
M  V30 11 1 4 12
M  V30 12 1 5 13
M  V30 13 1 5 14
M  V30 14 1 5 15
M  V30 END BOND
M  V30 END CTAB
M  END
>  <NO.>
544

>  <Name>
diethylether (ether)

>  <SMILES>
CCOCC

>  <logBB>
0

>  <Class>
1

>  <MW>
74.07

>  <nHBAcc>
1

>  <nHBDon>
0

>  <SLogP>
1.04

>  <TopoPSA>
9.23

>  <MMFF94 Energy>
3.1434

$$$$
C
Actelion Java MolfileCreator 2.0

  0  0  0  0  0  0              0 V3000
M  V30 BEGIN CTAB
M  V30 COUNTS 5 4 0 0 0
M  V30 BEGIN ATOM
M  V30 1 C 0.0 0.0 0.0 0
M  V30 2 H 0.7975 0.2796 0.6917 0
M  V30 3 H -0.543 -0.8595 0.3988 0
M  V30 4 H 0.4326 -0.26 -0.9684 0
M  V30 5 H -0.6872 0.84 -0.1219 0
M  V30 END ATOM
M  V30 BEGIN BOND
M  V30 1 1 1 2
M  V30 2 1 1 3
M  V30 3 1 1 4
M  V30 4 1 1 5
M  V30 END BOND
M  V30 END CTAB
M  END
>  <NO.>
545

>  <Name>
methane

>  <SMILES>
C

>  <logBB>
0

>  <Class>
1

>  <MW>
16.03

>  <nHBAcc>
0

>  <nHBDon>
0

>  <SLogP>
0.64

>  <TopoPSA>
0

>  <MMFF94 Energy>
0.026383

$$$$
C=CCC(N)c1ccccc1-c1noc2ccccc12
Actelion Java MolfileCreator 2.0

  0  0  0  0  0  0              0 V3000
M  V30 BEGIN CTAB
M  V30 COUNTS 36 38 0 0 0
M  V30 BEGIN ATOM
M  V30 1 O -1.0365 0.7175 -2.9522 0
M  V30 2 N -1.0609 0.9812 -1.5935 0
M  V30 3 C 0.2075 0.3127 -3.316 0
M  V30 4 C 0.1791 0.7298 -1.1431 0
M  V30 5 C 1.0287 0.3002 -2.2035 0
M  V30 6 C 0.6155 -0.0403 -4.5995 0
M  V30 7 C 0.5358 0.9086 0.2609 0
M  V30 8 C 2.3692 -0.0981 -2.358 0
M  V30 9 C 1.9519 -0.4311 -4.7376 0
M  V30 10 C -0.0179 0.1179 1.2951 0
M  V30 11 C 1.4895 1.8984 0.5663 0
M  V30 12 C 2.815 -0.4608 -3.6376 0
M  V30 13 C 0.4208 0.3566 2.6134 0
M  V30 14 C -1.0665 -0.9589 1.029 0 CFG=1
M  V30 15 C 1.9015 2.1136 1.88 0
M  V30 16 C 1.368 1.3405 2.9031 0
M  V30 17 N -0.7873 -2.1976 1.7777 0
M  V30 18 C -2.5252 -0.442 1.2015 0
M  V30 19 C -3.096 -0.0797 2.5539 0
M  V30 20 C -2.8213 -0.626 3.7445 0
M  V30 21 H -0.0675 -0.0123 -5.4398 0
M  V30 22 H 3.0463 -0.1279 -1.509 0
M  V30 23 H 2.325 -0.7176 -5.7192 0
M  V30 24 H 1.9102 2.5182 -0.2234 0
M  V30 25 H 3.8493 -0.771 -3.7751 0
M  V30 26 H 0.0209 -0.2364 3.4334 0
M  V30 27 H -0.9785 -1.2667 -0.0194 0
M  V30 28 H 2.6334 2.885 2.1038 0
M  V30 29 H 1.6819 1.5014 3.9314 0
M  V30 30 H -1.4916 -2.8911 1.5329 0
M  V30 31 H 0.1095 -2.567 1.4678 0
M  V30 32 H -3.207 -1.1828 0.7614 0
M  V30 33 H -2.6337 0.456 0.5793 0
M  V30 34 H -3.84 0.7161 2.5293 0
M  V30 35 H -2.1134 -1.4388 3.861 0
M  V30 36 H -3.3161 -0.27 4.6429 0
M  V30 END ATOM
M  V30 BEGIN BOND
M  V30 1 1 1 2
M  V30 2 1 1 3
M  V30 3 2 2 4
M  V30 4 2 3 5
M  V30 5 1 3 6
M  V30 6 1 4 7
M  V30 7 1 5 8
M  V30 8 2 6 9
M  V30 9 2 7 10
M  V30 10 1 7 11
M  V30 11 2 8 12
M  V30 12 1 10 13
M  V30 13 1 10 14
M  V30 14 2 11 15
M  V30 15 2 13 16
M  V30 16 1 14 17
M  V30 17 1 14 18
M  V30 18 1 18 19
M  V30 19 2 19 20
M  V30 20 1 4 5
M  V30 21 1 9 12
M  V30 22 1 15 16
M  V30 23 1 6 21
M  V30 24 1 8 22
M  V30 25 1 9 23
M  V30 26 1 11 24
M  V30 27 1 12 25
M  V30 28 1 13 26
M  V30 29 1 14 27
M  V30 30 1 15 28
M  V30 31 1 16 29
M  V30 32 1 17 30
M  V30 33 1 17 31
M  V30 34 1 18 32
M  V30 35 1 18 33
M  V30 36 1 19 34
M  V30 37 1 20 35
M  V30 38 1 20 36
M  V30 END BOND
M  V30 BEGIN COLLECTION
M  V30 MDLV30/STERAC1 ATOMS=(1 14)
M  V30 END COLLECTION
M  V30 END CTAB
M  END
>  <NO.>
546

>  <Name>
198968-25-1

>  <SMILES>
C=CCC(N)c1ccccc1-c1noc2ccccc12

>  <logBB>
0

>  <Class>
1

>  <MW>
264.13

>  <nHBAcc>
3

>  <nHBDon>
1

>  <SLogP>
4.07

>  <TopoPSA>
52.05

>  <MMFF94 Energy>
79.66

$$$$
CC(=O)[C@]1(O)Cc2c(O)c3c(c(O)c2[C@@H](O[C@H]2C[C@H](N)[C@H](O)[C@H](C)O2)C1)C(=O)c1ccccc1C3=O
Actelion Java MolfileCreator 2.0

  0  0  0  0  0  0              0 V3000
M  V30 BEGIN CTAB
M  V30 COUNTS 63 67 0 0 0
M  V30 BEGIN ATOM
M  V30 1 O 2.5048 -2.8283 -1.2922 0
M  V30 2 C 2.1524 -1.9512 -2.0763 0
M  V30 3 C 0.9042 -1.1996 -1.8238 0
M  V30 4 C 2.9655 -1.6451 -3.2662 0
M  V30 5 C 0.1308 -1.4645 -0.6817 0
M  V30 6 C 0.4873 -0.2209 -2.7232 0
M  V30 7 C 2.5492 -0.6666 -4.164 0
M  V30 8 C 4.1583 -2.3425 -3.4943 0
M  V30 9 O 0.4741 -2.4558 0.2052 0
M  V30 10 C -1.0391 -0.7324 -0.4059 0
M  V30 11 C 1.2932 0.0665 -3.9283 0
M  V30 12 C -0.7098 0.4738 -2.4842 0
M  V30 13 C 3.3229 -0.3795 -5.2954 0
M  V30 14 C 4.9292 -2.0552 -4.6219 0
M  V30 15 C -1.4817 0.2297 -1.334 0
M  V30 16 C -1.7972 -0.9598 0.8864 0 CFG=1
M  V30 17 O 0.9086 0.9161 -4.7272 0
M  V30 18 O -1.1894 1.4164 -3.3612 0
M  V30 19 C 4.512 -1.0746 -5.5214 0
M  V30 20 C -2.7955 0.971 -1.1601 0
M  V30 21 O -1.3334 -0.2979 2.0742 0
M  V30 22 C -3.2936 -0.6741 0.707 0
M  V30 23 C -3.5632 0.7295 0.1524 0 CFG=1
M  V30 24 C -0.4147 0.7859 1.9444 0 CFG=2
M  V30 25 O -3.1909 1.7204 1.1188 0
M  V30 26 C -5.0747 0.9251 -0.103 0
M  V30 27 O 0.9255 0.3521 1.7114 0
M  V30 28 C -0.4889 1.6329 3.2197 0
M  V30 29 O -5.8965 0.0266 0.0917 0
M  V30 30 C -5.53 2.2787 -0.5975 0
M  V30 31 C 1.462 -0.4405 2.7786 0 CFG=2
M  V30 32 C 0.0551 0.8497 4.4191 0 CFG=1
M  V30 33 C 1.4779 0.3434 4.1067 0 CFG=2
M  V30 34 C 2.8593 -0.8782 2.3513 0
M  V30 35 N 0.0619 1.69 5.633 0
M  V30 36 O 2.3547 1.4856 4.0386 0
M  V30 37 H 4.4917 -3.1098 -2.7977 0
M  V30 38 H 1.3268 -2.8537 -0.0823 0
M  V30 39 H 3.0049 0.3841 -6.0032 0
M  V30 40 H 5.856 -2.5969 -4.7987 0
M  V30 41 H -1.7485 -2.0292 1.1277 0
M  V30 42 H -0.5499 1.5101 -4.1041 0
M  V30 43 H 5.1131 -0.8511 -6.4003 0
M  V30 44 H -2.5957 2.0461 -1.2609 0
M  V30 45 H -3.4291 0.6667 -2.0047 0
M  V30 46 H -3.7962 -0.7914 1.6764 0
M  V30 47 H -3.7207 -1.4232 0.026 0
M  V30 48 H -0.6985 1.4334 1.1104 0
M  V30 49 H -3.5304 1.425 1.9847 0
M  V30 50 H -1.5272 1.9275 3.4143 0
M  V30 51 H 0.0977 2.5492 3.0758 0
M  V30 52 H -6.6227 2.2978 -0.6484 0
M  V30 53 H -5.2054 3.0599 0.0935 0
M  V30 54 H -5.1331 2.468 -1.597 0
M  V30 55 H 0.8457 -1.3407 2.8948 0
M  V30 56 H -0.5975 -0.0092 4.6152 0
M  V30 57 H 1.8373 -0.2952 4.9224 0
M  V30 58 H 3.356 -1.4503 3.1405 0
M  V30 59 H 2.804 -1.5043 1.455 0
M  V30 60 H 3.4851 -0.0204 2.0831 0
M  V30 61 H 0.8534 2.3348 5.5383 0
M  V30 62 H -0.7729 2.272 5.6554 0
M  V30 63 H 3.262 1.1488 3.955 0
M  V30 END ATOM
M  V30 BEGIN BOND
M  V30 1 2 1 2
M  V30 2 1 2 3
M  V30 3 1 2 4
M  V30 4 2 3 5
M  V30 5 1 3 6
M  V30 6 2 4 7
M  V30 7 1 4 8
M  V30 8 1 5 9
M  V30 9 1 5 10
M  V30 10 1 6 11
M  V30 11 2 6 12
M  V30 12 1 7 13
M  V30 13 2 8 14
M  V30 14 2 10 15
M  V30 15 1 10 16
M  V30 16 2 11 17
M  V30 17 1 12 18
M  V30 18 2 13 19
M  V30 19 1 15 20
M  V30 20 1 16 21
M  V30 21 1 16 22
M  V30 22 1 20 23
M  V30 23 1 21 24
M  V30 24 1 23 25
M  V30 25 1 23 26
M  V30 26 1 24 27
M  V30 27 1 24 28
M  V30 28 2 26 29
M  V30 29 1 26 30
M  V30 30 1 27 31
M  V30 31 1 28 32
M  V30 32 1 31 33
M  V30 33 1 31 34
M  V30 34 1 32 35
M  V30 35 1 33 36
M  V30 36 1 7 11
M  V30 37 1 12 15
M  V30 38 1 14 19
M  V30 39 1 22 23
M  V30 40 1 32 33
M  V30 41 1 8 37
M  V30 42 1 9 38
M  V30 43 1 13 39
M  V30 44 1 14 40
M  V30 45 1 16 41
M  V30 46 1 18 42
M  V30 47 1 19 43
M  V30 48 1 20 44
M  V30 49 1 20 45
M  V30 50 1 22 46
M  V30 51 1 22 47
M  V30 52 1 24 48
M  V30 53 1 25 49
M  V30 54 1 28 50
M  V30 55 1 28 51
M  V30 56 1 30 52
M  V30 57 1 30 53
M  V30 58 1 30 54
M  V30 59 1 31 55
M  V30 60 1 32 56
M  V30 61 1 33 57
M  V30 62 1 34 58
M  V30 63 1 34 59
M  V30 64 1 34 60
M  V30 65 1 35 61
M  V30 66 1 35 62
M  V30 67 1 36 63
M  V30 END BOND
M  V30 BEGIN COLLECTION
M  V30 MDLV30/STEABS ATOMS=(6 16 23 24 31 32 33)
M  V30 END COLLECTION
M  V30 END CTAB
M  END
>  <NO.>
547

>  <Name>
dm5

>  <SMILES>
CC(=O)[C@]1(O)Cc2c(O)c3c(c(O)c2[C@@H](O[C@H]2C[C@H](N)[C@H](O)[C@H](C)O2)C1)C(=O)c1ccccc1C3=O

>  <logBB>
0

>  <Class>
1

>  <MW>
497.17

>  <nHBAcc>
10

>  <nHBDon>
5

>  <SLogP>
1.02

>  <TopoPSA>
176.61

>  <MMFF94 Energy>
120.57

$$$$
CC(C)CC(N)C(=O)O
Actelion Java MolfileCreator 2.0

  0  0  0  0  0  0              0 V3000
M  V30 BEGIN CTAB
M  V30 COUNTS 22 21 0 0 0
M  V30 BEGIN ATOM
M  V30 1 O 1.8389 -2.0689 -0.3062 0
M  V30 2 C 1.7638 -1.2151 0.5625 0
M  V30 3 O 2.8883 -0.6078 1.0075 0
M  V30 4 C 0.489 -0.7425 1.282 0 CFG=1
M  V30 5 N 0.7076 0.5406 1.9853 0
M  V30 6 C -0.7122 -0.6965 0.321 0
M  V30 7 C -0.6286 0.3447 -0.8192 0
M  V30 8 C -1.3171 -0.1992 -2.0761 0
M  V30 9 C -1.2863 1.6736 -0.4344 0
M  V30 10 H 3.6004 -1.0239 0.4771 0
M  V30 11 H 0.2848 -1.4973 2.0512 0
M  V30 12 H 1.0122 1.2338 1.3008 0
M  V30 13 H 1.5311 0.4188 2.5815 0
M  V30 14 H -0.8147 -1.699 -0.116 0
M  V30 15 H -1.63 -0.5335 0.9015 0
M  V30 16 H 0.4196 0.5366 -1.0761 0
M  V30 17 H -0.8303 -1.1187 -2.4181 0
M  V30 18 H -2.3726 -0.4227 -1.8866 0
M  V30 19 H -1.2649 0.5264 -2.8948 0
M  V30 20 H -0.8067 2.1334 0.4324 0
M  V30 21 H -2.3472 1.5368 -0.1976 0
M  V30 22 H -1.219 2.3897 -1.2608 0
M  V30 END ATOM
M  V30 BEGIN BOND
M  V30 1 2 1 2
M  V30 2 1 2 3
M  V30 3 1 2 4
M  V30 4 1 4 5
M  V30 5 1 4 6
M  V30 6 1 6 7
M  V30 7 1 7 8
M  V30 8 1 7 9
M  V30 9 1 3 10
M  V30 10 1 4 11
M  V30 11 1 5 12
M  V30 12 1 5 13
M  V30 13 1 6 14
M  V30 14 1 6 15
M  V30 15 1 7 16
M  V30 16 1 8 17
M  V30 17 1 8 18
M  V30 18 1 8 19
M  V30 19 1 9 20
M  V30 20 1 9 21
M  V30 21 1 9 22
M  V30 END BOND
M  V30 BEGIN COLLECTION
M  V30 MDLV30/STERAC1 ATOMS=(1 4)
M  V30 END COLLECTION
M  V30 END CTAB
M  END
>  <NO.>
548

>  <Name>
leucine

>  <SMILES>
CC(C)CC(N)C(=O)O

>  <logBB>
0

>  <Class>
1

>  <MW>
131.09

>  <nHBAcc>
2

>  <nHBDon>
2

>  <SLogP>
0.44

>  <TopoPSA>
63.32

>  <MMFF94 Energy>
28.401

$$$$
CC12CCC(=O)C=C1CCC1C2CCC2(C)C(O)CCC12
Actelion Java MolfileCreator 2.0

  0  0  0  0  0  0              0 V3000
M  V30 BEGIN CTAB
M  V30 COUNTS 49 52 0 0 0
M  V30 BEGIN ATOM
M  V30 1 O -3.8593 -3.3763 -2.1694 0
M  V30 2 C -3.0997 -2.7876 -1.4048 0
M  V30 3 C -3.4836 -1.4616 -0.8667 0
M  V30 4 C -1.7258 -3.3055 -1.0663 0
M  V30 5 C -2.7164 -0.8299 0.0393 0
M  V30 6 C -1.3991 -2.9657 0.3777 0
M  V30 7 C -1.4757 -1.4437 0.7007 0
M  V30 8 C -2.9559 0.6274 0.3427 0
M  V30 9 C -0.2439 -0.6293 0.1557 0
M  V30 10 C -1.588 -1.3575 2.2446 0
M  V30 11 C -1.7595 1.4329 -0.1645 0
M  V30 12 C -0.4146 0.9078 0.3791 0
M  V30 13 C 1.1132 -1.086 0.7253 0
M  V30 14 C 0.7702 1.7334 -0.167 0
M  V30 15 C 2.2802 -0.3061 0.1167 0
M  V30 16 C 2.1522 1.2241 0.2935 0
M  V30 17 C 0.888 1.7985 -1.7013 0
M  V30 18 C 3.0855 2.0024 -0.6575 0
M  V30 19 C 2.4505 1.6069 1.7525 0
M  V30 20 C 2.375 1.9843 -2.0095 0
M  V30 21 O 4.3768 1.4284 -0.7378 0
M  V30 22 H -4.3489 -1.0039 -1.3331 0
M  V30 23 H -0.9996 -2.877 -1.7638 0
M  V30 24 H -1.7235 -4.3937 -1.1921 0
M  V30 25 H -2.1234 -3.5017 1.0096 0
M  V30 26 H -0.4231 -3.3838 0.6418 0
M  V30 27 H -3.8663 0.9956 -0.1459 0
M  V30 28 H -3.1034 0.7817 1.4167 0
M  V30 29 H -0.2041 -0.8007 -0.9289 0
M  V30 30 H -2.5352 -1.7881 2.593 0
M  V30 31 H -0.7815 -1.9165 2.7325 0
M  V30 32 H -1.5469 -0.3343 2.6267 0
M  V30 33 H -1.8881 2.4843 0.1202 0
M  V30 34 H -1.7582 1.4032 -1.2614 0
M  V30 35 H -0.4267 1.0852 1.4625 0
M  V30 36 H 1.2817 -2.1459 0.5117 0
M  V30 37 H 1.1308 -0.9792 1.8149 0
M  V30 38 H 0.6423 2.7683 0.1855 0
M  V30 39 H 2.3417 -0.5672 -0.9472 0
M  V30 40 H 3.217 -0.6605 0.5653 0
M  V30 41 H 0.5288 0.8854 -2.1865 0
M  V30 42 H 0.2975 2.6293 -2.1032 0
M  V30 43 H 3.1961 3.0415 -0.3215 0
M  V30 44 H 1.7519 1.1387 2.4525 0
M  V30 45 H 2.3782 2.6904 1.901 0
M  V30 46 H 3.4637 1.3032 2.0379 0
M  V30 47 H 2.7423 1.1741 -2.6501 0
M  V30 48 H 2.5546 2.9184 -2.5533 0
M  V30 49 H 4.878 1.928 -1.4048 0
M  V30 END ATOM
M  V30 BEGIN BOND
M  V30 1 2 1 2
M  V30 2 1 2 3
M  V30 3 1 2 4
M  V30 4 2 3 5
M  V30 5 1 4 6
M  V30 6 1 5 7
M  V30 7 1 5 8
M  V30 8 1 7 9
M  V30 9 1 7 10
M  V30 10 1 8 11
M  V30 11 1 9 12
M  V30 12 1 9 13
M  V30 13 1 12 14
M  V30 14 1 13 15
M  V30 15 1 14 16
M  V30 16 1 14 17
M  V30 17 1 16 18
M  V30 18 1 16 19
M  V30 19 1 17 20
M  V30 20 1 18 21
M  V30 21 1 6 7
M  V30 22 1 11 12
M  V30 23 1 15 16
M  V30 24 1 18 20
M  V30 25 1 3 22
M  V30 26 1 4 23
M  V30 27 1 4 24
M  V30 28 1 6 25
M  V30 29 1 6 26
M  V30 30 1 8 27
M  V30 31 1 8 28
M  V30 32 1 9 29
M  V30 33 1 10 30
M  V30 34 1 10 31
M  V30 35 1 10 32
M  V30 36 1 11 33
M  V30 37 1 11 34
M  V30 38 1 12 35
M  V30 39 1 13 36
M  V30 40 1 13 37
M  V30 41 1 14 38
M  V30 42 1 15 39
M  V30 43 1 15 40
M  V30 44 1 17 41
M  V30 45 1 17 42
M  V30 46 1 18 43
M  V30 47 1 19 44
M  V30 48 1 19 45
M  V30 49 1 19 46
M  V30 50 1 20 47
M  V30 51 1 20 48
M  V30 52 1 21 49
M  V30 END BOND
M  V30 END CTAB
M  END
>  <NO.>
549

>  <Name>
testosterone

>  <SMILES>
CC12CCC(=O)C=C1CCC1C2CCC2(C)C(O)CCC12

>  <logBB>
0

>  <Class>
1

>  <MW>
288.21

>  <nHBAcc>
2

>  <nHBDon>
1

>  <SLogP>
3.88

>  <TopoPSA>
37.3

>  <MMFF94 Energy>
70.594

$$$$
CCOC(C)=O
Actelion Java MolfileCreator 2.0

  0  0  0  0  0  0              0 V3000
M  V30 BEGIN CTAB
M  V30 COUNTS 14 13 0 0 0
M  V30 BEGIN ATOM
M  V30 1 O 0.2277 2.1268 0.0 0
M  V30 2 C -0.3728 1.1913 0.5092 0
M  V30 3 O -0.2067 -0.122 0.193 0
M  V30 4 C -1.4081 1.3325 1.5828 0
M  V30 5 C 0.7681 -0.3593 -0.8295 0
M  V30 6 C 0.844 -1.8538 -1.0738 0
M  V30 7 H -2.3654 0.9421 1.2284 0
M  V30 8 H -1.0846 0.8022 2.4819 0
M  V30 9 H -1.5332 2.3911 1.8287 0
M  V30 10 H 1.7456 0.012 -0.5018 0
M  V30 11 H 0.4686 0.1514 -1.7515 0
M  V30 12 H 1.5785 -2.0854 -1.8501 0
M  V30 13 H 1.122 -2.381 -0.1551 0
M  V30 14 H -0.1315 -2.2441 -1.382 0
M  V30 END ATOM
M  V30 BEGIN BOND
M  V30 1 2 1 2
M  V30 2 1 2 3
M  V30 3 1 2 4
M  V30 4 1 3 5
M  V30 5 1 5 6
M  V30 6 1 4 7
M  V30 7 1 4 8
M  V30 8 1 4 9
M  V30 9 1 5 10
M  V30 10 1 5 11
M  V30 11 1 6 12
M  V30 12 1 6 13
M  V30 13 1 6 14
M  V30 END BOND
M  V30 END CTAB
M  END
>  <NO.>
551

>  <Name>
ethyl acetate

>  <SMILES>
CCOC(C)=O

>  <logBB>
0

>  <Class>
1

>  <MW>
88.05

>  <nHBAcc>
2

>  <nHBDon>
0

>  <SLogP>
0.57

>  <TopoPSA>
26.3

>  <MMFF94 Energy>
-11.098

$$$$
CN1CCC23CCCCC2C1Cc1ccc(O)cc13
Actelion Java MolfileCreator 2.0

  0  0  0  0  0  0              0 V3000
M  V30 BEGIN CTAB
M  V30 COUNTS 42 45 0 0 0
M  V30 BEGIN ATOM
M  V30 1 O -4.4958 0.5611 -1.3631 0
M  V30 2 C -3.3595 0.7043 -0.6216 0
M  V30 3 C -2.2256 0.0111 -1.0356 0
M  V30 4 C -3.3321 1.5077 0.5081 0
M  V30 5 C -1.015 0.1161 -0.3274 0
M  V30 6 C -2.1513 1.6059 1.2401 0
M  V30 7 C -0.9962 0.9079 0.8437 0
M  V30 8 C 0.2397 -0.6688 -0.7576 0
M  V30 9 C 0.2479 1.0558 1.693 0
M  V30 10 C 1.5313 0.0076 -0.2208 0
M  V30 11 C 0.1516 -2.0791 -0.1161 0
M  V30 12 C 0.3929 -0.8221 -2.2966 0
M  V30 13 C 1.4223 0.1255 1.3107 0
M  V30 14 C 1.8394 1.3461 -0.9215 0
M  V30 15 C 0.2445 -2.0444 1.4151 0
M  V30 16 C 0.6881 0.5019 -3.0036 0
M  V30 17 N 1.3874 -1.2468 1.8741 0
M  V30 18 C 1.9346 1.1709 -2.4345 0
M  V30 19 C 1.4971 -1.2753 3.3296 0
M  V30 20 H -5.1954 1.1018 -0.9619 0
M  V30 21 H -2.3128 -0.6173 -1.9163 0
M  V30 22 H -4.2104 2.053 0.837 0
M  V30 23 H -2.1315 2.2286 2.1324 0
M  V30 24 H -0.0163 0.9299 2.7488 0
M  V30 25 H 0.5881 2.0955 1.5923 0
M  V30 26 H 2.3861 -0.6508 -0.4444 0
M  V30 27 H 0.9733 -2.7035 -0.4936 0
M  V30 28 H -0.7776 -2.5847 -0.409 0
M  V30 29 H 1.2275 -1.5058 -2.5068 0
M  V30 30 H -0.4846 -1.294 -2.7506 0
M  V30 31 H 2.3468 0.5923 1.6774 0
M  V30 32 H 2.788 1.7475 -0.5452 0
M  V30 33 H 1.0754 2.101 -0.7068 0
M  V30 34 H 0.3594 -3.0786 1.7639 0
M  V30 35 H -0.6953 -1.6803 1.8474 0
M  V30 36 H -0.1684 1.1798 -2.9138 0
M  V30 37 H 0.8326 0.3178 -4.0745 0
M  V30 38 H 2.8161 0.5641 -2.6756 0
M  V30 39 H 2.0811 2.1467 -2.9112 0
M  V30 40 H 0.6037 -0.89 3.8316 0
M  V30 41 H 1.6583 -2.3025 3.6762 0
M  V30 42 H 2.3628 -0.695 3.6672 0
M  V30 END ATOM
M  V30 BEGIN BOND
M  V30 1 1 1 2
M  V30 2 2 2 3
M  V30 3 1 2 4
M  V30 4 1 3 5
M  V30 5 2 4 6
M  V30 6 2 5 7
M  V30 7 1 5 8
M  V30 8 1 7 9
M  V30 9 1 8 10
M  V30 10 1 8 11
M  V30 11 1 8 12
M  V30 12 1 9 13
M  V30 13 1 10 14
M  V30 14 1 11 15
M  V30 15 1 12 16
M  V30 16 1 13 17
M  V30 17 1 14 18
M  V30 18 1 17 19
M  V30 19 1 6 7
M  V30 20 1 10 13
M  V30 21 1 15 17
M  V30 22 1 16 18
M  V30 23 1 1 20
M  V30 24 1 3 21
M  V30 25 1 4 22
M  V30 26 1 6 23
M  V30 27 1 9 24
M  V30 28 1 9 25
M  V30 29 1 10 26
M  V30 30 1 11 27
M  V30 31 1 11 28
M  V30 32 1 12 29
M  V30 33 1 12 30
M  V30 34 1 13 31
M  V30 35 1 14 32
M  V30 36 1 14 33
M  V30 37 1 15 34
M  V30 38 1 15 35
M  V30 39 1 16 36
M  V30 40 1 16 37
M  V30 41 1 18 38
M  V30 42 1 18 39
M  V30 43 1 19 40
M  V30 44 1 19 41
M  V30 45 1 19 42
M  V30 END BOND
M  V30 END CTAB
M  END
>  <NO.>
552

>  <Name>
dl-morphan

>  <SMILES>
CN1CCC23CCCCC2C1Cc1ccc(O)cc13

>  <logBB>
0

>  <Class>
1

>  <MW>
257.18

>  <nHBAcc>
2

>  <nHBDon>
1

>  <SLogP>
3.08

>  <TopoPSA>
23.47

>  <MMFF94 Energy>
45.999

$$$$
Cc1c(N(C)C)c(=O)n(-c2ccccc2)n1C
Actelion Java MolfileCreator 2.0

  0  0  0  0  0  0              0 V3000
M  V30 BEGIN CTAB
M  V30 COUNTS 34 35 0 0 0
M  V30 BEGIN ATOM
M  V30 1 O -0.6276 1.6481 -1.4126 0
M  V30 2 C -0.4249 0.8423 -0.5141 0
M  V30 3 N 0.1857 -0.4091 -0.6007 0
M  V30 4 C -0.7807 1.0561 0.9593 0
M  V30 5 N 0.2256 -0.9901 0.6696 0
M  V30 6 C 0.9748 -0.8565 -1.6751 0
M  V30 7 N -1.4299 2.2011 1.4213 0
M  V30 8 C -0.3417 -0.0744 1.5584 0
M  V30 9 C 0.0406 -2.4324 0.7746 0
M  V30 10 C 2.2663 -1.3543 -1.4609 0
M  V30 11 C 0.4772 -0.7902 -2.9808 0
M  V30 12 C -2.1743 2.2561 2.6714 0
M  V30 13 C -1.4766 3.4266 0.6215 0
M  V30 14 C -0.38 -0.3992 3.0173 0
M  V30 15 C 3.0413 -1.7958 -2.5356 0
M  V30 16 C 1.2524 -1.2319 -4.0554 0
M  V30 17 C 2.5323 -1.7369 -3.8319 0
M  V30 18 H 0.6797 -2.985 0.0807 0
M  V30 19 H 0.2896 -2.7851 1.7807 0
M  V30 20 H -1.0011 -2.699 0.5651 0
M  V30 21 H 2.6808 -1.3842 -0.4566 0
M  V30 22 H -0.5165 -0.3904 -3.1695 0
M  V30 23 H -2.6247 1.2883 2.9149 0
M  V30 24 H -3.0008 2.9737 2.6113 0
M  V30 25 H -1.5179 2.566 3.4904 0
M  V30 26 H -0.5014 3.6431 0.1725 0
M  V30 27 H -1.7312 4.2953 1.2397 0
M  V30 28 H -2.2333 3.3413 -0.1648 0
M  V30 29 H 0.5426 -0.9058 3.321 0
M  V30 30 H -1.2244 -1.0581 3.2414 0
M  V30 31 H -0.454 0.4921 3.6437 0
M  V30 32 H 4.044 -2.1763 -2.3611 0
M  V30 33 H 0.8576 -1.1738 -5.0664 0
M  V30 34 H 3.1365 -2.0751 -4.6697 0
M  V30 END ATOM
M  V30 BEGIN BOND
M  V30 1 2 1 2
M  V30 2 1 2 3
M  V30 3 1 2 4
M  V30 4 1 3 5
M  V30 5 1 3 6
M  V30 6 1 4 7
M  V30 7 2 4 8
M  V30 8 1 5 9
M  V30 9 2 6 10
M  V30 10 1 6 11
M  V30 11 1 7 12
M  V30 12 1 7 13
M  V30 13 1 8 14
M  V30 14 1 10 15
M  V30 15 2 11 16
M  V30 16 2 15 17
M  V30 17 1 5 8
M  V30 18 1 16 17
M  V30 19 1 9 18
M  V30 20 1 9 19
M  V30 21 1 9 20
M  V30 22 1 10 21
M  V30 23 1 11 22
M  V30 24 1 12 23
M  V30 25 1 12 24
M  V30 26 1 12 25
M  V30 27 1 13 26
M  V30 28 1 13 27
M  V30 29 1 13 28
M  V30 30 1 14 29
M  V30 31 1 14 30
M  V30 32 1 14 31
M  V30 33 1 15 32
M  V30 34 1 16 33
M  V30 35 1 17 34
M  V30 END BOND
M  V30 END CTAB
M  END
>  <NO.>
555

>  <Name>
aminophenazone

>  <SMILES>
Cc1c(N(C)C)c(=O)n(-c2ccccc2)n1C

>  <logBB>
0

>  <Class>
1

>  <MW>
231.14

>  <nHBAcc>
2

>  <nHBDon>
0

>  <SLogP>
1.55

>  <TopoPSA>
30.17

>  <MMFF94 Energy>
118.6

$$$$
Cc1ccnc2c1NC(=O)c1cccnc1N2C1CC1
Actelion Java MolfileCreator 2.0

  0  0  0  0  0  0              0 V3000
M  V30 BEGIN CTAB
M  V30 COUNTS 34 37 0 0 0
M  V30 BEGIN ATOM
M  V30 1 O 2.3311 2.1702 1.2856 0
M  V30 2 C 1.3761 1.4738 0.9341 0
M  V30 3 N 1.2038 0.27 1.5496 0
M  V30 4 C 0.4387 2.0017 -0.0663 0
M  V30 5 C 0.205 -0.7025 1.3972 0
M  V30 6 C -0.2425 1.2211 -0.9938 0
M  V30 7 C 0.3394 3.4045 -0.1476 0
M  V30 8 C -0.4258 -0.981 0.173 0
M  V30 9 C -0.0754 -1.5206 2.5166 0
M  V30 10 N -0.9802 1.8221 -1.9793 0
M  V30 11 N -0.2078 -0.1952 -0.9898 0
M  V30 12 C -0.4321 3.9995 -1.1344 0
M  V30 13 N -1.2674 -2.0486 0.0546 0
M  V30 14 C -0.9557 -2.5936 2.3687 0
M  V30 15 C 0.5586 -1.2928 3.863 0
M  V30 16 C -1.0663 3.168 -2.0277 0
M  V30 17 C -0.5101 -0.8567 -2.2871 0
M  V30 18 C -1.5162 -2.8165 1.131 0
M  V30 19 C 0.4042 -0.7072 -3.4789 0
M  V30 20 C 0.3035 -2.0282 -2.7813 0
M  V30 21 H 1.9103 0.1097 2.2569 0
M  V30 22 H 0.8829 4.0338 0.555 0
M  V30 23 H -0.5179 5.0772 -1.2115 0
M  V30 24 H -1.1967 -3.2522 3.1967 0
M  V30 25 H 0.0697 -1.8878 4.6421 0
M  V30 26 H 0.4676 -0.2426 4.1595 0
M  V30 27 H 1.6153 -1.5764 3.8358 0
M  V30 28 H -1.677 3.5645 -2.8336 0
M  V30 29 H -1.5791 -0.8818 -2.489 0
M  V30 30 H -2.2013 -3.6424 0.9627 0
M  V30 31 H -0.062 -0.6 -4.4506 0
M  V30 32 H 1.3145 -0.1333 -3.3555 0
M  V30 33 H 1.1443 -2.354 -2.1813 0
M  V30 34 H -0.2322 -2.8314 -3.2721 0
M  V30 END ATOM
M  V30 BEGIN BOND
M  V30 1 2 1 2
M  V30 2 1 2 3
M  V30 3 1 2 4
M  V30 4 1 3 5
M  V30 5 2 4 6
M  V30 6 1 4 7
M  V30 7 2 5 8
M  V30 8 1 5 9
M  V30 9 1 6 10
M  V30 10 1 6 11
M  V30 11 2 7 12
M  V30 12 1 8 13
M  V30 13 2 9 14
M  V30 14 1 9 15
M  V30 15 2 10 16
M  V30 16 1 11 17
M  V30 17 2 13 18
M  V30 18 1 17 19
M  V30 19 1 17 20
M  V30 20 1 8 11
M  V30 21 1 12 16
M  V30 22 1 14 18
M  V30 23 1 19 20
M  V30 24 1 3 21
M  V30 25 1 7 22
M  V30 26 1 12 23
M  V30 27 1 14 24
M  V30 28 1 15 25
M  V30 29 1 15 26
M  V30 30 1 15 27
M  V30 31 1 16 28
M  V30 32 1 17 29
M  V30 33 1 18 30
M  V30 34 1 19 31
M  V30 35 1 19 32
M  V30 36 1 20 33
M  V30 37 1 20 34
M  V30 END BOND
M  V30 END CTAB
M  END
>  <NO.>
556

>  <Name>
129618-40-2

>  <SMILES>
Cc1ccnc2c1NC(=O)c1cccnc1N2C1CC1

>  <logBB>
0

>  <Class>
1

>  <MW>
266.12

>  <nHBAcc>
4

>  <nHBDon>
1

>  <SLogP>
2.65

>  <TopoPSA>
58.12

>  <MMFF94 Energy>
63.299

$$$$
N#Cc1c(COc2ccccn2)nc(N)nc1-c1ccco1
Actelion Java MolfileCreator 2.0

  0  0  0  0  0  0              0 V3000
M  V30 BEGIN CTAB
M  V30 COUNTS 33 35 0 0 0
M  V30 BEGIN ATOM
M  V30 1 O -0.8006 3.2858 3.1254 0
M  V30 2 C -1.1685 2.8026 1.8973 0
M  V30 3 C -1.9065 3.8159 3.7051 0
M  V30 4 C -0.0989 2.1807 1.1151 0
M  V30 5 C -2.5191 3.0354 1.7073 0
M  V30 6 C -2.9922 3.6865 2.8743 0
M  V30 7 N 1.1032 2.7855 1.2743 0
M  V30 8 C -0.2833 1.0926 0.2808 0
M  V30 9 C 2.1328 2.2959 0.5919 0
M  V30 10 C -1.5461 0.4481 0.1227 0
M  V30 11 C 0.8493 0.654 -0.3891 0
M  V30 12 N 2.0557 1.2574 -0.2393 0
M  V30 13 N 3.3438 2.8964 0.7482 0
M  V30 14 N -2.5798 -0.0585 -0.0256 0
M  V30 15 C 0.814 -0.5351 -1.3265 0
M  V30 16 O 0.5019 -1.7008 -0.5633 0
M  V30 17 C 0.3737 -2.8299 -1.3455 0
M  V30 18 N 0.583 -2.751 -2.6768 0
M  V30 19 C 0.029 -3.9991 -0.686 0
M  V30 20 C 0.439 -3.8969 -3.3783 0
M  V30 21 C -0.1118 -5.1624 -1.4359 0
M  V30 22 C 0.0967 -5.1138 -2.8097 0
M  V30 23 H -1.7599 4.2394 4.6891 0
M  V30 24 H -3.1039 2.7795 0.8343 0
M  V30 25 H -3.9989 4.0222 3.0811 0
M  V30 26 H 3.4078 3.6637 1.3947 0
M  V30 27 H 4.1327 2.5174 0.2554 0
M  V30 28 H 0.062 -0.3458 -2.1039 0
M  V30 29 H 1.7993 -0.6482 -1.7972 0
M  V30 30 H -0.1289 -4.0021 0.3863 0
M  V30 31 H 0.6114 -3.81 -4.4474 0
M  V30 32 H -0.3831 -6.0964 -0.9524 0
M  V30 33 H -0.0059 -6.002 -3.4231 0
M  V30 END ATOM
M  V30 BEGIN BOND
M  V30 1 1 1 2
M  V30 2 1 1 3
M  V30 3 1 2 4
M  V30 4 2 2 5
M  V30 5 2 3 6
M  V30 6 2 4 7
M  V30 7 1 4 8
M  V30 8 1 7 9
M  V30 9 1 8 10
M  V30 10 2 8 11
M  V30 11 2 9 12
M  V30 12 1 9 13
M  V30 13 3 10 14
M  V30 14 1 11 15
M  V30 15 1 15 16
M  V30 16 1 16 17
M  V30 17 2 17 18
M  V30 18 1 17 19
M  V30 19 1 18 20
M  V30 20 2 19 21
M  V30 21 2 20 22
M  V30 22 1 5 6
M  V30 23 1 11 12
M  V30 24 1 21 22
M  V30 25 1 3 23
M  V30 26 1 5 24
M  V30 27 1 6 25
M  V30 28 1 13 26
M  V30 29 1 13 27
M  V30 30 1 15 28
M  V30 31 1 15 29
M  V30 32 1 19 30
M  V30 33 1 20 31
M  V30 34 1 21 32
M  V30 35 1 22 33
M  V30 END BOND
M  V30 END CTAB
M  END
>  <NO.>
557

>  <Name>


>  <SMILES>
N#Cc1c(COc2ccccn2)nc(N)nc1-c1ccco1

>  <logBB>
0

>  <Class>
1

>  <MW>
293.09

>  <nHBAcc>
7

>  <nHBDon>
1

>  <SLogP>
2.16

>  <TopoPSA>
110.85

>  <MMFF94 Energy>
-80.834

$$$$
N#Cc1c(N2CCc3ccccc3CC2)ncn(CCO)c1=O
Actelion Java MolfileCreator 2.0

  0  0  0  0  0  0              0 V3000
M  V30 BEGIN CTAB
M  V30 COUNTS 41 43 0 0 0
M  V30 BEGIN ATOM
M  V30 1 O 2.4762 -2.3163 -3.116 0
M  V30 2 C 1.8969 -1.381 -2.566 0
M  V30 3 N 2.2072 -0.0582 -2.7917 0
M  V30 4 C 0.8281 -1.6343 -1.5695 0
M  V30 5 C 1.59 0.9137 -2.0633 0
M  V30 6 C 3.1858 0.3011 -3.8156 0
M  V30 7 C 0.3843 -2.9753 -1.4192 0
M  V30 8 C 0.2989 -0.5876 -0.8903 0
M  V30 9 N 0.6957 0.7064 -1.163 0
M  V30 10 C 2.5189 0.8509 -5.0822 0
M  V30 11 N 0.0147 -4.0673 -1.27 0
M  V30 12 N -0.7028 -0.7458 0.0869 0
M  V30 13 O 1.6632 -0.1252 -5.6601 0
M  V30 14 C -0.5393 -1.5958 1.2826 0
M  V30 15 C -1.8273 0.2074 0.1552 0
M  V30 16 C -0.0089 -0.7995 2.4823 0
M  V30 17 C -1.5639 1.3696 1.1185 0
M  V30 18 C -1.0789 -0.0128 3.2074 0
M  V30 19 C -1.8084 1.0073 2.5678 0
M  V30 20 C -1.3381 -0.2964 4.5594 0
M  V30 21 C -2.7764 1.7193 3.297 0
M  V30 22 C -2.3068 0.414 5.2673 0
M  V30 23 C -3.0257 1.4223 4.6362 0
M  V30 24 H 1.9114 1.9422 -2.2933 0
M  V30 25 H 3.7924 -0.5732 -4.0725 0
M  V30 26 H 3.8476 1.0698 -3.4002 0
M  V30 27 H 1.9214 1.7403 -4.8581 0
M  V30 28 H 3.2848 1.1195 -5.8166 0
M  V30 29 H 1.3244 0.2349 -6.4979 0
M  V30 30 H -1.4906 -2.0869 1.5226 0
M  V30 31 H 0.1803 -2.3961 1.0869 0
M  V30 32 H -2.0121 0.613 -0.848 0
M  V30 33 H -2.7445 -0.3279 0.4325 0
M  V30 34 H 0.4429 -1.5134 3.183 0
M  V30 35 H 0.7972 -0.1183 2.1829 0
M  V30 36 H -0.5452 1.7617 1.0191 0
M  V30 37 H -2.2344 2.1923 0.8389 0
M  V30 38 H -0.7831 -1.0773 5.075 0
M  V30 39 H -3.3464 2.5161 2.8239 0
M  V30 40 H -2.4963 0.1818 6.3119 0
M  V30 41 H -3.7785 1.9806 5.1862 0
M  V30 END ATOM
M  V30 BEGIN BOND
M  V30 1 2 1 2
M  V30 2 1 2 3
M  V30 3 1 2 4
M  V30 4 1 3 5
M  V30 5 1 3 6
M  V30 6 1 4 7
M  V30 7 2 4 8
M  V30 8 2 5 9
M  V30 9 1 6 10
M  V30 10 3 7 11
M  V30 11 1 8 12
M  V30 12 1 10 13
M  V30 13 1 12 14
M  V30 14 1 12 15
M  V30 15 1 14 16
M  V30 16 1 15 17
M  V30 17 1 16 18
M  V30 18 1 17 19
M  V30 19 1 18 20
M  V30 20 1 19 21
M  V30 21 2 20 22
M  V30 22 2 21 23
M  V30 23 1 8 9
M  V30 24 2 18 19
M  V30 25 1 22 23
M  V30 26 1 5 24
M  V30 27 1 6 25
M  V30 28 1 6 26
M  V30 29 1 10 27
M  V30 30 1 10 28
M  V30 31 1 13 29
M  V30 32 1 14 30
M  V30 33 1 14 31
M  V30 34 1 15 32
M  V30 35 1 15 33
M  V30 36 1 16 34
M  V30 37 1 16 35
M  V30 38 1 17 36
M  V30 39 1 17 37
M  V30 40 1 20 38
M  V30 41 1 21 39
M  V30 42 1 22 40
M  V30 43 1 23 41
M  V30 END BOND
M  V30 END CTAB
M  END
>  <NO.>
558

>  <Name>
schembl6949318

>  <SMILES>
N#Cc1c(N2CCc3ccccc3CC2)ncn(CCO)c1=O

>  <logBB>
0

>  <Class>
1

>  <MW>
310.14

>  <nHBAcc>
5

>  <nHBDon>
1

>  <SLogP>
0.71

>  <TopoPSA>
82.15

>  <MMFF94 Energy>
8.4323

$$$$
NC(=Nc1ccccc1)Nc1ccccc1
Actelion Java MolfileCreator 2.0

  0  0  0  0  0  0              0 V3000
M  V30 BEGIN CTAB
M  V30 COUNTS 29 30 0 0 0
M  V30 BEGIN ATOM
M  V30 1 N 0.6249 -0.0781 -0.2343 0
M  V30 2 C 1.7757 0.1187 -1.0058 0
M  V30 3 C -0.5342 -0.1835 -0.806 0
M  V30 4 C 2.5205 -0.9749 -1.4536 0
M  V30 5 C 2.2112 1.4117 -1.307 0
M  V30 6 N -1.7215 -0.3871 -0.1558 0
M  V30 7 N -0.7489 -0.1351 -2.151 0
M  V30 8 C 3.6719 -0.7808 -2.2188 0
M  V30 9 C 3.3622 1.6101 -2.0719 0
M  V30 10 C -2.0261 -0.3023 1.2153 0
M  V30 11 C 4.0902 0.5126 -2.5305 0
M  V30 12 C -1.1595 0.2255 2.1779 0
M  V30 13 C -3.2816 -0.7603 1.6529 0
M  V30 14 C -1.5248 0.2888 3.5276 0
M  V30 15 C -3.6518 -0.6991 3.0002 0
M  V30 16 C -2.7707 -0.174 3.939 0
M  V30 17 H 2.1971 -1.9801 -1.1979 0
M  V30 18 H 1.6479 2.2639 -0.9372 0
M  V30 19 H -2.4693 -0.7529 -0.7218 0
M  V30 20 H 0.0474 -0.0046 -2.7611 0
M  V30 21 H -1.6526 0.0999 -2.5287 0
M  V30 22 H 4.2448 -1.6378 -2.5622 0
M  V30 23 H 3.6937 2.6193 -2.3006 0
M  V30 24 H 4.9903 0.6653 -3.1204 0
M  V30 25 H -0.181 0.6053 1.8985 0
M  V30 26 H -3.9906 -1.1789 0.9432 0
M  V30 27 H -0.8285 0.7017 4.2528 0
M  V30 28 H -4.6265 -1.0635 3.3133 0
M  V30 29 H -3.0515 -0.1252 4.9874 0
M  V30 END ATOM
M  V30 BEGIN BOND
M  V30 1 1 1 2
M  V30 2 2 1 3
M  V30 3 2 2 4
M  V30 4 1 2 5
M  V30 5 1 3 6
M  V30 6 1 3 7
M  V30 7 1 4 8
M  V30 8 2 5 9
M  V30 9 1 6 10
M  V30 10 2 8 11
M  V30 11 2 10 12
M  V30 12 1 10 13
M  V30 13 1 12 14
M  V30 14 2 13 15
M  V30 15 2 14 16
M  V30 16 1 9 11
M  V30 17 1 15 16
M  V30 18 1 4 17
M  V30 19 1 5 18
M  V30 20 1 6 19
M  V30 21 1 7 20
M  V30 22 1 7 21
M  V30 23 1 8 22
M  V30 24 1 9 23
M  V30 25 1 11 24
M  V30 26 1 12 25
M  V30 27 1 13 26
M  V30 28 1 14 27
M  V30 29 1 15 28
M  V30 30 1 16 29
M  V30 END BOND
M  V30 END CTAB
M  END
>  <NO.>
559

>  <Name>
1,3-diphenylguanidine

>  <SMILES>
NC(=Nc1ccccc1)Nc1ccccc1

>  <logBB>
0

>  <Class>
1

>  <MW>
211.11

>  <nHBAcc>
1

>  <nHBDon>
2

>  <SLogP>
2.74

>  <TopoPSA>
50.41

>  <MMFF94 Energy>
-56.306

$$$$
NC(=O)C1c2ccccc2C=Cc2ccccc21
Actelion Java MolfileCreator 2.0

  0  0  0  0  0  0              0 V3000
M  V30 BEGIN CTAB
M  V30 COUNTS 31 33 0 0 0
M  V30 BEGIN ATOM
M  V30 1 O 2.9659 -0.1601 1.1214 0
M  V30 2 C 2.3237 -0.0841 0.0747 0
M  V30 3 N 2.9075 0.5239 -1.0039 0
M  V30 4 C 0.9382 -0.7307 -0.1415 0
M  V30 5 C 0.1412 -0.8696 1.1503 0
M  V30 6 C 0.1077 -0.0898 -1.2529 0
M  V30 7 C -0.3839 0.2532 1.8183 0
M  V30 8 C -0.0643 -2.1509 1.6981 0
M  V30 9 C -0.416 1.2118 -1.1288 0
M  V30 10 C -0.1198 -0.8111 -2.4416 0
M  V30 11 C -0.1989 1.6309 1.3392 0
M  V30 12 C -1.0795 0.0713 3.0243 0
M  V30 13 C -0.7701 -2.3156 2.8894 0
M  V30 14 C -0.2134 2.047 0.0631 0
M  V30 15 C -1.1234 1.7712 -2.2043 0
M  V30 16 C -0.8377 -0.2458 -3.4945 0
M  V30 17 C -1.2763 -1.2044 3.5538 0
M  V30 18 C -1.3361 1.0466 -3.3775 0
M  V30 19 H 3.8224 0.9322 -0.8713 0
M  V30 20 H 2.4348 0.6541 -1.8879 0
M  V30 21 H 1.1902 -1.7473 -0.4789 0
M  V30 22 H 0.3356 -3.0327 1.2027 0
M  V30 23 H 0.2628 -1.8236 -2.555 0
M  V30 24 H -0.0601 2.3755 2.1211 0
M  V30 25 H -1.4827 0.9275 3.5605 0
M  V30 26 H -0.9165 -3.3102 3.3019 0
M  V30 27 H -0.0904 3.1114 -0.1276 0
M  V30 28 H -1.5307 2.7776 -2.1301 0
M  V30 29 H -1.0093 -0.815 -4.4046 0
M  V30 30 H -1.8208 -1.3275 4.486 0
M  V30 31 H -1.8976 1.4907 -4.1955 0
M  V30 END ATOM
M  V30 BEGIN BOND
M  V30 1 2 1 2
M  V30 2 1 2 3
M  V30 3 1 2 4
M  V30 4 1 4 5
M  V30 5 1 4 6
M  V30 6 2 5 7
M  V30 7 1 5 8
M  V30 8 2 6 9
M  V30 9 1 6 10
M  V30 10 1 7 11
M  V30 11 1 7 12
M  V30 12 2 8 13
M  V30 13 1 9 14
M  V30 14 1 9 15
M  V30 15 2 10 16
M  V30 16 2 12 17
M  V30 17 2 15 18
M  V30 18 2 11 14
M  V30 19 1 13 17
M  V30 20 1 16 18
M  V30 21 1 3 19
M  V30 22 1 3 20
M  V30 23 1 4 21
M  V30 24 1 8 22
M  V30 25 1 10 23
M  V30 26 1 11 24
M  V30 27 1 12 25
M  V30 28 1 13 26
M  V30 29 1 14 27
M  V30 30 1 15 28
M  V30 31 1 16 29
M  V30 32 1 17 30
M  V30 33 1 18 31
M  V30 END BOND
M  V30 END CTAB
M  END
>  <NO.>
560

>  <Name>
citenamide

>  <SMILES>
NC(=O)C1c2ccccc2C=Cc2ccccc21

>  <logBB>
0

>  <Class>
1

>  <MW>
235.1

>  <nHBAcc>
1

>  <nHBDon>
1

>  <SLogP>
2.79

>  <TopoPSA>
43.09

>  <MMFF94 Energy>
63.742

$$$$
C1CO1
Actelion Java MolfileCreator 2.0

  0  0  0  0  0  0              0 V3000
M  V30 BEGIN CTAB
M  V30 COUNTS 7 7 0 0 0
M  V30 BEGIN ATOM
M  V30 1 O -0.1553 -1.0879 0.3884 0
M  V30 2 C 0.6482 0.0975 0.3291 0
M  V30 3 C -0.6611 -0.0039 -0.4014 0
M  V30 4 H 0.6965 0.7128 1.2185 0
M  V30 5 H 1.5644 0.051 -0.2452 0
M  V30 6 H -0.644 -0.1201 -1.4774 0
M  V30 7 H -1.512 0.5415 -0.0137 0
M  V30 END ATOM
M  V30 BEGIN BOND
M  V30 1 1 1 2
M  V30 2 1 1 3
M  V30 3 1 2 3
M  V30 4 1 2 4
M  V30 5 1 2 5
M  V30 6 1 3 6
M  V30 7 1 3 7
M  V30 END BOND
M  V30 END CTAB
M  END
>  <NO.>
562

>  <Name>
oxirane

>  <SMILES>
C1CO1

>  <logBB>
0.01

>  <Class>
1

>  <MW>
44.03

>  <nHBAcc>
1

>  <nHBDon>
0

>  <SLogP>
0.02

>  <TopoPSA>
12.53

>  <MMFF94 Energy>
6.0513

$$$$
CCCCCCCC1(CC)C(=O)NC(=O)NC1=O
Actelion Java MolfileCreator 2.0

  0  0  0  0  0  0              0 V3000
M  V30 BEGIN CTAB
M  V30 COUNTS 40 40 0 0 0
M  V30 BEGIN ATOM
M  V30 1 O 0.234 -4.9234 0.7802 0
M  V30 2 C -0.3769 -3.9453 0.3636 0
M  V30 3 N -0.2448 -3.5167 -0.9169 0
M  V30 4 N -1.2175 -3.239 1.1611 0
M  V30 5 C -0.8689 -2.4472 -1.4884 0
M  V30 6 C -1.945 -2.1401 0.8105 0
M  V30 7 O -0.6513 -2.1723 -2.6678 0
M  V30 8 C -1.8154 -1.6422 -0.617 0
M  V30 9 O -2.6692 -1.5963 1.6436 0
M  V30 10 C -1.3179 -0.1693 -0.5809 0
M  V30 11 C -3.2237 -1.6643 -1.2731 0
M  V30 12 C 0.073 0.0149 0.0455 0
M  V30 13 C -3.8506 -3.0522 -1.381 0
M  V30 14 C 0.4873 1.4887 0.0426 0
M  V30 15 C 1.8715 1.6783 0.6652 0
M  V30 16 C 2.2859 3.1507 0.6625 0
M  V30 17 C 3.669 3.34 1.2846 0
M  V30 18 C 4.0847 4.8024 1.2839 0
M  V30 19 H 0.3823 -4.0447 -1.5075 0
M  V30 20 H -1.3129 -3.5608 2.1144 0
M  V30 21 H -1.2958 0.2353 -1.6017 0
M  V30 22 H -2.0353 0.4464 -0.0217 0
M  V30 23 H -3.9107 -1.0254 -0.7028 0
M  V30 24 H -3.1712 -1.2365 -2.2828 0
M  V30 25 H 0.8166 -0.5676 -0.5097 0
M  V30 26 H 0.074 -0.3556 1.0769 0
M  V30 27 H -4.8363 -2.9783 -1.8522 0
M  V30 28 H -3.2408 -3.7231 -1.9932 0
M  V30 29 H -3.9879 -3.5097 -0.3968 0
M  V30 30 H -0.25 2.0788 0.6004 0
M  V30 31 H 0.4929 1.8667 -0.9868 0
M  V30 32 H 2.6089 1.0882 0.1078 0
M  V30 33 H 1.8661 1.3002 1.6948 0
M  V30 34 H 1.5484 3.7411 1.2199 0
M  V30 35 H 2.2911 3.529 -0.3668 0
M  V30 36 H 3.668 2.9671 2.3155 0
M  V30 37 H 4.4107 2.7551 0.7286 0
M  V30 38 H 5.0764 4.9148 1.7331 0
M  V30 39 H 4.1269 5.1978 0.264 0
M  V30 40 H 3.3801 5.411 1.8597 0
M  V30 END ATOM
M  V30 BEGIN BOND
M  V30 1 2 1 2
M  V30 2 1 2 3
M  V30 3 1 2 4
M  V30 4 1 3 5
M  V30 5 1 4 6
M  V30 6 2 5 7
M  V30 7 1 5 8
M  V30 8 2 6 9
M  V30 9 1 8 10
M  V30 10 1 8 11
M  V30 11 1 10 12
M  V30 12 1 11 13
M  V30 13 1 12 14
M  V30 14 1 14 15
M  V30 15 1 15 16
M  V30 16 1 16 17
M  V30 17 1 17 18
M  V30 18 1 6 8
M  V30 19 1 3 19
M  V30 20 1 4 20
M  V30 21 1 10 21
M  V30 22 1 10 22
M  V30 23 1 11 23
M  V30 24 1 11 24
M  V30 25 1 12 25
M  V30 26 1 12 26
M  V30 27 1 13 27
M  V30 28 1 13 28
M  V30 29 1 13 29
M  V30 30 1 14 30
M  V30 31 1 14 31
M  V30 32 1 15 32
M  V30 33 1 15 33
M  V30 34 1 16 34
M  V30 35 1 16 35
M  V30 36 1 17 36
M  V30 37 1 17 37
M  V30 38 1 18 38
M  V30 39 1 18 39
M  V30 40 1 18 40
M  V30 END BOND
M  V30 END CTAB
M  END
>  <NO.>
564

>  <Name>
5-ethyl-5-heptyl-1,3-
diazinane-2,4,6-trione

>  <SMILES>
CCCCCCCC1(CC)C(=O)NC(=O)NC1=O

>  <logBB>
0.02

>  <Class>
1

>  <MW>
254.16

>  <nHBAcc>
3

>  <nHBDon>
2

>  <SLogP>
2.11

>  <TopoPSA>
75.27

>  <MMFF94 Energy>
-130.45

$$$$
C=CCOc1ccccc1OCC(O)CNC(C)C
Actelion Java MolfileCreator 2.0

  0  0  0  0  0  0              0 V3000
M  V30 BEGIN CTAB
M  V30 COUNTS 42 42 0 0 0
M  V30 BEGIN ATOM
M  V30 1 O 1.7133 -0.5449 -0.2335 0
M  V30 2 C 2.007 0.2692 0.8309 0
M  V30 3 C 2.3711 -1.807 -0.2942 0
M  V30 4 C 1.4921 1.5757 0.7693 0
M  V30 5 C 2.7449 -0.1172 1.954 0
M  V30 6 C 2.1103 -2.4866 -1.6121 0
M  V30 7 O 0.7758 1.9215 -0.3494 0
M  V30 8 C 1.7603 2.4911 1.792 0
M  V30 9 C 2.9905 0.7939 2.9856 0
M  V30 10 C 1.4538 -1.9749 -2.6624 0
M  V30 11 C -0.4103 2.6825 -0.0757 0
M  V30 12 C 2.5054 2.0968 2.9021 0
M  V30 13 C -1.4522 2.358 -1.1548 0 CFG=1
M  V30 14 O -0.9476 2.7924 -2.4288 0
M  V30 15 C -1.8054 0.8571 -1.2533 0
M  V30 16 N -2.2441 0.2832 0.024 0
M  V30 17 C -2.8689 -1.0378 -0.1263 0
M  V30 18 C -1.8749 -2.118 -0.5561 0
M  V30 19 C -3.4901 -1.4127 1.2208 0
M  V30 20 H 1.9925 -2.4545 0.5053 0
M  V30 21 H 3.4559 -1.6831 -0.1916 0
M  V30 22 H 3.1419 -1.1208 2.0619 0
M  V30 23 H 2.512 -3.4937 -1.6991 0
M  V30 24 H 1.4091 3.5165 1.73 0
M  V30 25 H 3.5688 0.4864 3.8537 0
M  V30 26 H 1.0376 -0.9721 -2.6398 0
M  V30 27 H 1.3225 -2.5499 -3.5732 0
M  V30 28 H -0.1465 3.7451 -0.1302 0
M  V30 29 H -0.8225 2.463 0.9169 0
M  V30 30 H 2.7116 2.8072 3.6988 0
M  V30 31 H -2.3626 2.9352 -0.9569 0
M  V30 32 H -0.0452 2.4242 -2.496 0
M  V30 33 H -2.5959 0.7559 -2.0081 0
M  V30 34 H -0.9428 0.3066 -1.646 0
M  V30 35 H -1.4256 0.1886 0.6304 0
M  V30 36 H -3.6814 -0.981 -0.8609 0
M  V30 37 H -1.0203 -2.1724 0.1272 0
M  V30 38 H -1.4951 -1.9322 -1.5651 0
M  V30 39 H -2.356 -3.1022 -0.5678 0
M  V30 40 H -4.2242 -0.663 1.5372 0
M  V30 41 H -2.7306 -1.4963 2.0067 0
M  V30 42 H -4.0099 -2.3745 1.1526 0
M  V30 END ATOM
M  V30 BEGIN BOND
M  V30 1 1 1 2
M  V30 2 1 1 3
M  V30 3 2 2 4
M  V30 4 1 2 5
M  V30 5 1 3 6
M  V30 6 1 4 7
M  V30 7 1 4 8
M  V30 8 2 5 9
M  V30 9 2 6 10
M  V30 10 1 7 11
M  V30 11 2 8 12
M  V30 12 1 11 13
M  V30 13 1 13 14
M  V30 14 1 13 15
M  V30 15 1 15 16
M  V30 16 1 16 17
M  V30 17 1 17 18
M  V30 18 1 17 19
M  V30 19 1 9 12
M  V30 20 1 3 20
M  V30 21 1 3 21
M  V30 22 1 5 22
M  V30 23 1 6 23
M  V30 24 1 8 24
M  V30 25 1 9 25
M  V30 26 1 10 26
M  V30 27 1 10 27
M  V30 28 1 11 28
M  V30 29 1 11 29
M  V30 30 1 12 30
M  V30 31 1 13 31
M  V30 32 1 14 32
M  V30 33 1 15 33
M  V30 34 1 15 34
M  V30 35 1 16 35
M  V30 36 1 17 36
M  V30 37 1 18 37
M  V30 38 1 18 38
M  V30 39 1 18 39
M  V30 40 1 19 40
M  V30 41 1 19 41
M  V30 42 1 19 42
M  V30 END BOND
M  V30 BEGIN COLLECTION
M  V30 MDLV30/STERAC1 ATOMS=(1 13)
M  V30 END COLLECTION
M  V30 END CTAB
M  END
>  <NO.>
565

>  <Name>
oxprenolol

>  <SMILES>
C=CCOc1ccccc1OCC(O)CNC(C)C

>  <logBB>
0.02

>  <Class>
1

>  <MW>
265.17

>  <nHBAcc>
4

>  <nHBDon>
2

>  <SLogP>
1.99

>  <TopoPSA>
50.72

>  <MMFF94 Energy>
79.958

$$$$
COc1ccc2c(c1)[C@]13CCCC[C@@H]1[C@H](C2)N(C)CC3
Actelion Java MolfileCreator 2.0

  0  0  0  0  0  0              0 V3000
M  V30 BEGIN CTAB
M  V30 COUNTS 45 48 0 0 0
M  V30 BEGIN ATOM
M  V30 1 O 1.8416 3.1243 2.563 0
M  V30 2 C 1.0095 2.1483 2.0864 0
M  V30 3 C 2.9379 3.4975 1.7385 0
M  V30 4 C 1.1648 1.4464 0.8878 0
M  V30 5 C -0.0735 1.8574 2.9105 0
M  V30 6 C 0.237 0.4625 0.4845 0
M  V30 7 C -0.9883 0.8713 2.55 0
M  V30 8 C -0.8367 0.1597 1.3504 0
M  V30 9 C 0.4229 -0.3294 -0.8264 0 CFG=2
M  V30 10 C -1.8617 -0.9044 1.0237 0
M  V30 11 C -0.9313 -0.9017 -1.3293 0 CFG=1
M  V30 12 C 1.3521 -1.5332 -0.5168 0
M  V30 13 C 1.0402 0.4998 -1.9873 0
M  V30 14 C -1.5395 -1.772 -0.2143 0 CFG=1
M  V30 15 C -1.8862 0.1926 -1.8469 0
M  V30 16 C 0.713 -2.5494 0.4389 0
M  V30 17 C 0.1068 1.5977 -2.5003 0
M  V30 18 N -0.6364 -2.9287 0.0064 0
M  V30 19 C -1.2331 1.0239 -2.9475 0
M  V30 20 C -1.2053 -3.9419 0.8905 0
M  V30 21 H 3.6328 2.662 1.6055 0
M  V30 22 H 3.479 4.3019 2.2461 0
M  V30 23 H 2.5942 3.8852 0.7737 0
M  V30 24 H 2.0216 1.6517 0.2583 0
M  V30 25 H -0.2024 2.3981 3.8445 0
M  V30 26 H -1.8217 0.6555 3.215 0
M  V30 27 H -2.8163 -0.3917 0.8432 0
M  V30 28 H -2.0243 -1.5347 1.9049 0
M  V30 29 H -0.7316 -1.5574 -2.1922 0
M  V30 30 H 1.5987 -2.0537 -1.4526 0
M  V30 31 H 2.3062 -1.1924 -0.0945 0
M  V30 32 H 1.2595 -0.1718 -2.8294 0
M  V30 33 H 2.0059 0.9363 -1.7124 0
M  V30 34 H -2.4883 -2.1807 -0.5881 0
M  V30 35 H -2.2025 0.8671 -1.0442 0
M  V30 36 H -2.7982 -0.2721 -2.2402 0
M  V30 37 H 1.3542 -3.4398 0.4532 0
M  V30 38 H 0.7093 -2.1607 1.4644 0
M  V30 39 H 0.5802 2.1124 -3.3443 0
M  V30 40 H -0.0554 2.3527 -1.7225 0
M  V30 41 H -1.083 0.3976 -3.8356 0
M  V30 42 H -1.9041 1.8382 -3.2435 0
M  V30 43 H -0.591 -4.8491 0.8695 0
M  V30 44 H -1.2737 -3.609 1.9311 0
M  V30 45 H -2.2051 -4.2368 0.5535 0
M  V30 END ATOM
M  V30 BEGIN BOND
M  V30 1 1 1 2
M  V30 2 1 1 3
M  V30 3 2 2 4
M  V30 4 1 2 5
M  V30 5 1 4 6
M  V30 6 2 5 7
M  V30 7 2 6 8
M  V30 8 1 6 9
M  V30 9 1 8 10
M  V30 10 1 9 11
M  V30 11 1 9 12
M  V30 12 1 9 13
M  V30 13 1 10 14
M  V30 14 1 11 15
M  V30 15 1 12 16
M  V30 16 1 13 17
M  V30 17 1 14 18
M  V30 18 1 15 19
M  V30 19 1 18 20
M  V30 20 1 7 8
M  V30 21 1 11 14
M  V30 22 1 16 18
M  V30 23 1 17 19
M  V30 24 1 3 21
M  V30 25 1 3 22
M  V30 26 1 3 23
M  V30 27 1 4 24
M  V30 28 1 5 25
M  V30 29 1 7 26
M  V30 30 1 10 27
M  V30 31 1 10 28
M  V30 32 1 11 29
M  V30 33 1 12 30
M  V30 34 1 12 31
M  V30 35 1 13 32
M  V30 36 1 13 33
M  V30 37 1 14 34
M  V30 38 1 15 35
M  V30 39 1 15 36
M  V30 40 1 16 37
M  V30 41 1 16 38
M  V30 42 1 17 39
M  V30 43 1 17 40
M  V30 44 1 19 41
M  V30 45 1 19 42
M  V30 46 1 20 43
M  V30 47 1 20 44
M  V30 48 1 20 45
M  V30 END BOND
M  V30 BEGIN COLLECTION
M  V30 MDLV30/STEABS ATOMS=(3 9 11 14)
M  V30 END COLLECTION
M  V30 END CTAB
M  END
>  <NO.>
567

>  <Name>
dextromethorphan

>  <SMILES>
COc1ccc2c(c1)[C@]13CCCC[C@@H]1[C@H](C2)N(C)CC3

>  <logBB>
0.02

>  <Class>
1

>  <MW>
271.19

>  <nHBAcc>
2

>  <nHBDon>
0

>  <SLogP>
3.38

>  <TopoPSA>
12.47

>  <MMFF94 Energy>
60.816

$$$$
N#N
Actelion Java MolfileCreator 2.0

  0  0  0  0  0  0              0 V3000
M  V30 BEGIN CTAB
M  V30 COUNTS 2 1 0 0 0
M  V30 BEGIN ATOM
M  V30 1 N 0.365 -0.6389 -0.0912 0
M  V30 2 N -0.3497 0.6124 0.1432 0
M  V30 END ATOM
M  V30 BEGIN BOND
M  V30 1 3 1 2
M  V30 END BOND
M  V30 END CTAB
M  END
>  <NO.>
569

>  <Name>
nitrogen

>  <SMILES>
N#N

>  <logBB>
0.03

>  <Class>
1

>  <MW>
28.01

>  <nHBAcc>
2

>  <nHBDon>
0

>  <SLogP>
0.03

>  <TopoPSA>
47.58

>  <MMFF94 Energy>
6.1913e-17

$$$$
CCCCNC(=S)Nc1ccccc1
Actelion Java MolfileCreator 2.0

  0  0  0  0  0  0              0 V3000
M  V30 BEGIN CTAB
M  V30 COUNTS 30 30 0 0 0
M  V30 BEGIN ATOM
M  V30 1 S -0.7049 -0.4699 -2.1944 0
M  V30 2 C -0.7956 0.2124 -0.6682 0
M  V30 3 N -0.214 1.4107 -0.2692 0
M  V30 4 N -1.4988 -0.3422 0.3929 0
M  V30 5 C 0.7073 2.2056 -0.9771 0
M  V30 6 C -2.2848 -1.5715 0.3865 0
M  V30 7 C 1.8767 1.6707 -1.5208 0
M  V30 8 C 0.4806 3.5829 -1.0428 0
M  V30 9 C -1.4454 -2.8088 0.7067 0
M  V30 10 C 2.7944 2.5038 -2.1645 0
M  V30 11 C 1.3987 4.4148 -1.6872 0
M  V30 12 C -0.882 -2.7838 2.1297 0
M  V30 13 C 2.5536 3.8745 -2.2507 0
M  V30 14 C -0.1001 -4.051 2.4392 0
M  V30 15 H -0.6115 1.8466 0.5506 0
M  V30 16 H -1.4007 0.1053 1.2924 0
M  V30 17 H -2.775 -1.6904 -0.5845 0
M  V30 18 H -3.0745 -1.4459 1.1357 0
M  V30 19 H 2.0929 0.609 -1.441 0
M  V30 20 H -0.4171 4.0181 -0.6129 0
M  V30 21 H -0.6211 -2.9041 -0.0092 0
M  V30 22 H -2.078 -3.6968 0.587 0
M  V30 23 H 3.6979 2.0811 -2.5958 0
M  V30 24 H 1.2119 5.4836 -1.7517 0
M  V30 25 H -0.2214 -1.9193 2.2608 0
M  V30 26 H -1.6999 -2.681 2.8523 0
M  V30 27 H 3.2676 4.5207 -2.7547 0
M  V30 28 H 0.2937 -4.0135 3.4597 0
M  V30 29 H -0.7379 -4.9365 2.3538 0
M  V30 30 H 0.7446 -4.1678 1.7529 0
M  V30 END ATOM
M  V30 BEGIN BOND
M  V30 1 2 1 2
M  V30 2 1 2 3
M  V30 3 1 2 4
M  V30 4 1 3 5
M  V30 5 1 4 6
M  V30 6 2 5 7
M  V30 7 1 5 8
M  V30 8 1 6 9
M  V30 9 1 7 10
M  V30 10 2 8 11
M  V30 11 1 9 12
M  V30 12 2 10 13
M  V30 13 1 12 14
M  V30 14 1 11 13
M  V30 15 1 3 15
M  V30 16 1 4 16
M  V30 17 1 6 17
M  V30 18 1 6 18
M  V30 19 1 7 19
M  V30 20 1 8 20
M  V30 21 1 9 21
M  V30 22 1 9 22
M  V30 23 1 10 23
M  V30 24 1 11 24
M  V30 25 1 12 25
M  V30 26 1 12 26
M  V30 27 1 13 27
M  V30 28 1 14 28
M  V30 29 1 14 29
M  V30 30 1 14 30
M  V30 END BOND
M  V30 END CTAB
M  END
>  <NO.>
572

>  <Name>
1-butyl-3-phenylthiourea

>  <SMILES>
CCCCNC(=S)Nc1ccccc1

>  <logBB>
0.03

>  <Class>
1

>  <MW>
208.1

>  <nHBAcc>
1

>  <nHBDon>
2

>  <SLogP>
2.77

>  <TopoPSA>
24.06

>  <MMFF94 Energy>
-32.213

$$$$
N#[N+]O
Actelion Java MolfileCreator 2.0

  0  0  0  0  0  0              0 V3000
M  V30 BEGIN CTAB
M  V30 COUNTS 4 3 0 0 0
M  V30 BEGIN ATOM
M  V30 1 O 0.3616 0.8681 0.0 0
M  V30 2 N 0.0982 -0.5106 0.1941 0 CHG=1
M  V30 3 N -0.1227 -1.5638 0.3304 0
M  V30 4 H -0.3522 1.2495 -0.5337 0
M  V30 END ATOM
M  V30 BEGIN BOND
M  V30 1 1 1 2
M  V30 2 3 2 3
M  V30 3 1 1 4
M  V30 END BOND
M  V30 END CTAB
M  END
>  <NO.>
573

>  <Name>
nitrous oxide, 99%

>  <SMILES>
N#[N+]O

>  <logBB>
0.03

>  <Class>
1

>  <MW>
45.01

>  <nHBAcc>
2

>  <nHBDon>
1

>  <SLogP>
0.23

>  <TopoPSA>
48.38

>  <MMFF94 Energy>
-16.229

$$$$
CC(C)CCO
Actelion Java MolfileCreator 2.0

  0  0  0  0  0  0              0 V3000
M  V30 BEGIN CTAB
M  V30 COUNTS 18 17 0 0 0
M  V30 BEGIN ATOM
M  V30 1 O -2.1954 -0.8323 0.6809 0
M  V30 2 C -1.0404 -0.5988 1.4727 0
M  V30 3 C 0.2207 -0.7152 0.6215 0
M  V30 4 C 0.5168 0.521 -0.2525 0
M  V30 5 C 1.8713 0.3465 -0.9461 0
M  V30 6 C -0.5632 0.7928 -1.2995 0
M  V30 7 H -2.9659 -0.7531 1.2689 0
M  V30 8 H -1.0218 -1.3578 2.2616 0
M  V30 9 H -1.1168 0.3881 1.94 0
M  V30 10 H 1.0702 -0.8651 1.2998 0
M  V30 11 H 0.1518 -1.6048 -0.0171 0
M  V30 12 H 0.5878 1.4007 0.3998 0
M  V30 13 H 2.6693 0.1961 -0.2112 0
M  V30 14 H 1.8637 -0.5162 -1.6209 0
M  V30 15 H 2.1255 1.2349 -1.5342 0
M  V30 16 H -1.5047 1.0933 -0.8304 0
M  V30 17 H -0.751 -0.0921 -1.9167 0
M  V30 18 H -0.2635 1.6103 -1.9645 0
M  V30 END ATOM
M  V30 BEGIN BOND
M  V30 1 1 1 2
M  V30 2 1 2 3
M  V30 3 1 3 4
M  V30 4 1 4 5
M  V30 5 1 4 6
M  V30 6 1 1 7
M  V30 7 1 2 8
M  V30 8 1 2 9
M  V30 9 1 3 10
M  V30 10 1 3 11
M  V30 11 1 4 12
M  V30 12 1 5 13
M  V30 13 1 5 14
M  V30 14 1 5 15
M  V30 15 1 6 16
M  V30 16 1 6 17
M  V30 17 1 6 18
M  V30 END BOND
M  V30 END CTAB
M  END
>  <NO.>
576

>  <Name>
3-methyl-1-butanol (isopentanol)

>  <SMILES>
CC(C)CCO

>  <logBB>
0.04

>  <Class>
1

>  <MW>
88.09

>  <nHBAcc>
1

>  <nHBDon>
1

>  <SLogP>
1.02

>  <TopoPSA>
20.23

>  <MMFF94 Energy>
4.7055

$$$$
CCC(C)CO
Actelion Java MolfileCreator 2.0

  0  0  0  0  0  0              0 V3000
M  V30 BEGIN CTAB
M  V30 COUNTS 18 17 0 0 0
M  V30 BEGIN ATOM
M  V30 1 O -1.6651 -1.9681 0.1512 0
M  V30 2 C -1.0417 -0.8442 -0.4586 0
M  V30 3 C 0.0611 -0.2962 0.4557 0 CFG=2
M  V30 4 C 0.7397 0.953 -0.1336 0
M  V30 5 C 1.1189 -1.3724 0.7319 0
M  V30 6 C -0.1945 2.1459 -0.2786 0
M  V30 7 H -2.3504 -2.2823 -0.4628 0
M  V30 8 H -0.6317 -1.1564 -1.425 0
M  V30 9 H -1.8187 -0.0947 -0.6337 0
M  V30 10 H -0.3887 -0.0355 1.4228 0
M  V30 11 H 1.5701 1.2515 0.5186 0
M  V30 12 H 1.1769 0.718 -1.1117 0
M  V30 13 H 1.5948 -1.7066 -0.1962 0
M  V30 14 H 1.9018 -0.9866 1.3938 0
M  V30 15 H 0.6783 -2.2466 1.2219 0
M  V30 16 H -0.6862 2.3784 0.6712 0
M  V30 17 H -0.9642 1.9658 -1.0343 0
M  V30 18 H 0.3719 3.0292 -0.5912 0
M  V30 END ATOM
M  V30 BEGIN BOND
M  V30 1 1 1 2
M  V30 2 1 2 3
M  V30 3 1 3 4
M  V30 4 1 3 5
M  V30 5 1 4 6
M  V30 6 1 1 7
M  V30 7 1 2 8
M  V30 8 1 2 9
M  V30 9 1 3 10
M  V30 10 1 4 11
M  V30 11 1 4 12
M  V30 12 1 5 13
M  V30 13 1 5 14
M  V30 14 1 5 15
M  V30 15 1 6 16
M  V30 16 1 6 17
M  V30 17 1 6 18
M  V30 END BOND
M  V30 BEGIN COLLECTION
M  V30 MDLV30/STERAC1 ATOMS=(1 3)
M  V30 END COLLECTION
M  V30 END CTAB
M  END
>  <NO.>
577

>  <Name>
2-methyl-1-butanol

>  <SMILES>
CCC(C)CO

>  <logBB>
0.04

>  <Class>
1

>  <MW>
88.09

>  <nHBAcc>
1

>  <nHBDon>
1

>  <SLogP>
1.02

>  <TopoPSA>
20.23

>  <MMFF94 Energy>
3.7786

$$$$
CCC(O)(CC(N)=O)c1ccccc1
Actelion Java MolfileCreator 2.0

  0  0  0  0  0  0              0 V3000
M  V30 BEGIN CTAB
M  V30 COUNTS 29 29 0 0 0
M  V30 BEGIN ATOM
M  V30 1 O -0.3121 0.0 -3.4381 0
M  V30 2 C 0.2641 0.8636 -2.7861 0
M  V30 3 N 1.0447 1.7989 -3.3991 0
M  V30 4 C 0.1485 1.0193 -1.2854 0
M  V30 5 C -0.4419 -0.221 -0.5754 0 CFG=2
M  V30 6 O -1.7373 -0.4727 -1.158 0
M  V30 7 C -0.689 0.0202 0.9248 0
M  V30 8 C 0.4026 -1.5096 -0.7609 0
M  V30 9 C -1.7058 -0.6924 1.5911 0
M  V30 10 C 0.0879 0.9055 1.693 0
M  V30 11 C 1.8549 -1.4177 -0.3112 0
M  V30 12 C -1.9463 -0.5178 2.9562 0
M  V30 13 C -0.1517 1.0802 3.0604 0
M  V30 14 C -1.1691 0.3705 3.6909 0
M  V30 15 H 1.1399 1.7495 -4.4057 0
M  V30 16 H 1.5054 2.5508 -2.9057 0
M  V30 17 H 1.14 1.2755 -0.8969 0
M  V30 18 H -0.505 1.8867 -1.1204 0
M  V30 19 H -1.5915 -0.6365 -2.1132 0
M  V30 20 H -0.0764 -2.3423 -0.228 0
M  V30 21 H 0.3879 -1.8188 -1.813 0
M  V30 22 H -2.3289 -1.3933 1.0371 0
M  V30 23 H 0.9032 1.471 1.2527 0
M  V30 24 H 2.3529 -2.3798 -0.472 0
M  V30 25 H 2.4063 -0.6651 -0.8816 0
M  V30 26 H 1.9362 -1.1806 0.7529 0
M  V30 27 H -2.7427 -1.0768 3.4401 0
M  V30 28 H 0.4607 1.7709 3.6342 0
M  V30 29 H -1.355 0.5078 4.7525 0
M  V30 END ATOM
M  V30 BEGIN BOND
M  V30 1 2 1 2
M  V30 2 1 2 3
M  V30 3 1 2 4
M  V30 4 1 4 5
M  V30 5 1 5 6
M  V30 6 1 5 7
M  V30 7 1 5 8
M  V30 8 2 7 9
M  V30 9 1 7 10
M  V30 10 1 8 11
M  V30 11 1 9 12
M  V30 12 2 10 13
M  V30 13 2 12 14
M  V30 14 1 13 14
M  V30 15 1 3 15
M  V30 16 1 3 16
M  V30 17 1 4 17
M  V30 18 1 4 18
M  V30 19 1 6 19
M  V30 20 1 8 20
M  V30 21 1 8 21
M  V30 22 1 9 22
M  V30 23 1 10 23
M  V30 24 1 11 24
M  V30 25 1 11 25
M  V30 26 1 11 26
M  V30 27 1 12 27
M  V30 28 1 13 28
M  V30 29 1 14 29
M  V30 END BOND
M  V30 BEGIN COLLECTION
M  V30 MDLV30/STERAC1 ATOMS=(1 5)
M  V30 END COLLECTION
M  V30 END CTAB
M  END
>  <NO.>
578

>  <Name>
hepp (beta-ethyl-beta-hydroxybenzenepropanamide) (3-hydroxy-3-phenylpentamide)

>  <SMILES>
CCC(O)(CC(N)=O)c1ccccc1

>  <logBB>
0.04

>  <Class>
1

>  <MW>
193.11

>  <nHBAcc>
2

>  <nHBDon>
2

>  <SLogP>
1.16

>  <TopoPSA>
63.32

>  <MMFF94 Energy>
1.1827

$$$$
CCC1(CCC(C)C)C(=O)NC(=O)NC1=O
Actelion Java MolfileCreator 2.0

  0  0  0  0  0  0              0 V3000
M  V30 BEGIN CTAB
M  V30 COUNTS 34 34 0 0 0
M  V30 BEGIN ATOM
M  V30 1 O 3.3646 2.4247 2.503 0
M  V30 2 C 2.3812 1.8711 2.0239 0
M  V30 3 N 2.1582 0.5418 2.1924 0
M  V30 4 N 1.4859 2.5458 1.2566 0
M  V30 5 C 1.1307 -0.1777 1.6522 0
M  V30 6 C 0.3789 2.0199 0.6531 0
M  V30 7 O 1.1569 -1.4061 1.695 0
M  V30 8 C -0.0353 0.6185 1.0842 0
M  V30 9 O -0.2704 2.7038 -0.1361 0
M  V30 10 C -0.683 -0.1351 -0.106 0
M  V30 11 C -1.0606 0.847 2.2373 0
M  V30 12 C 0.2545 -0.3243 -1.3134 0
M  V30 13 C -1.7819 -0.3947 2.7494 0
M  V30 14 C -0.4456 -0.9524 -2.5347 0
M  V30 15 C 0.5105 -0.9648 -3.7302 0
M  V30 16 C -0.9433 -2.3721 -2.2594 0
M  V30 17 H 2.8814 0.0201 2.668 0
M  V30 18 H 1.704 3.5107 1.0497 0
M  V30 19 H -1.5809 0.4031 -0.4363 0
M  V30 20 H -1.0134 -1.1251 0.2264 0
M  V30 21 H -1.8247 1.5653 1.9101 0
M  V30 22 H -0.5558 1.3187 3.0914 0
M  V30 23 H 1.11 -0.9469 -1.0253 0
M  V30 24 H 0.6637 0.6469 -1.6144 0
M  V30 25 H -2.4178 -0.8388 1.9785 0
M  V30 26 H -1.0809 -1.1532 3.1076 0
M  V30 27 H -2.4314 -0.1239 3.5888 0
M  V30 28 H -1.3095 -0.3312 -2.8031 0
M  V30 29 H 0.8451 0.0495 -3.9718 0
M  V30 30 H 1.3966 -1.5745 -3.524 0
M  V30 31 H 0.0175 -1.3722 -4.6191 0
M  V30 32 H -1.732 -2.3786 -1.5013 0
M  V30 33 H -0.1295 -3.0177 -1.9124 0
M  V30 34 H -1.365 -2.8184 -3.1666 0
M  V30 END ATOM
M  V30 BEGIN BOND
M  V30 1 2 1 2
M  V30 2 1 2 3
M  V30 3 1 2 4
M  V30 4 1 3 5
M  V30 5 1 4 6
M  V30 6 2 5 7
M  V30 7 1 5 8
M  V30 8 2 6 9
M  V30 9 1 8 10
M  V30 10 1 8 11
M  V30 11 1 10 12
M  V30 12 1 11 13
M  V30 13 1 12 14
M  V30 14 1 14 15
M  V30 15 1 14 16
M  V30 16 1 6 8
M  V30 17 1 3 17
M  V30 18 1 4 18
M  V30 19 1 10 19
M  V30 20 1 10 20
M  V30 21 1 11 21
M  V30 22 1 11 22
M  V30 23 1 12 23
M  V30 24 1 12 24
M  V30 25 1 13 25
M  V30 26 1 13 26
M  V30 27 1 13 27
M  V30 28 1 14 28
M  V30 29 1 15 29
M  V30 30 1 15 30
M  V30 31 1 15 31
M  V30 32 1 16 32
M  V30 33 1 16 33
M  V30 34 1 16 34
M  V30 END BOND
M  V30 END CTAB
M  END
>  <NO.>
579

>  <Name>
amobarbital

>  <SMILES>
CCC1(CCC(C)C)C(=O)NC(=O)NC1=O

>  <logBB>
0.04

>  <Class>
1

>  <MW>
226.13

>  <nHBAcc>
3

>  <nHBDon>
2

>  <SLogP>
1.18

>  <TopoPSA>
75.27

>  <MMFF94 Energy>
-123.23

$$$$
CCC1(CCC(C)C)CNC(=O)NC1=O
Actelion Java MolfileCreator 2.0

  0  0  0  0  0  0              0 V3000
M  V30 BEGIN CTAB
M  V30 COUNTS 35 35 0 0 0
M  V30 BEGIN ATOM
M  V30 1 O 4.131 1.7131 -0.2334 0
M  V30 2 C 3.1772 1.0444 -0.6111 0
M  V30 3 N 2.9432 -0.2179 -0.1575 0
M  V30 4 N 2.2827 1.5236 -1.5136 0
M  V30 5 C 1.8398 -0.9905 -0.4128 0
M  V30 6 C 1.2732 0.6902 -2.1163 0
M  V30 7 O 1.8075 -2.1606 -0.0346 0
M  V30 8 C 0.6608 -0.3014 -1.1119 0 CFG=2
M  V30 9 C -0.1674 0.4782 -0.0466 0
M  V30 10 C -0.1695 -1.3696 -1.8717 0
M  V30 11 C -0.8977 -0.3979 0.9842 0
M  V30 12 C -1.3833 -0.8377 -2.6239 0
M  V30 13 C -1.7412 0.415 1.9875 0
M  V30 14 C -2.5691 -0.5354 2.8568 0
M  V30 15 C -0.8855 1.3133 2.8823 0
M  V30 16 H 3.6649 -0.629 0.415 0
M  V30 17 H 2.4734 2.4541 -1.8673 0
M  V30 18 H 1.7619 0.1602 -2.943 0
M  V30 19 H 0.5177 1.3575 -2.5438 0
M  V30 20 H -0.9054 1.1131 -0.5531 0
M  V30 21 H 0.4972 1.1616 0.4938 0
M  V30 22 H -0.5058 -2.1545 -1.1835 0
M  V30 23 H 0.4808 -1.8838 -2.5925 0
M  V30 24 H -0.1729 -1.0111 1.5325 0
M  V30 25 H -1.5687 -1.0888 0.4622 0
M  V30 26 H -1.8967 -1.663 -3.1284 0
M  V30 27 H -2.1033 -0.3666 -1.9491 0
M  V30 28 H -1.0971 -0.1121 -3.3903 0
M  V30 29 H -2.439 1.0507 1.4278 0
M  V30 30 H -3.2238 -1.1585 2.2383 0
M  V30 31 H -1.9255 -1.1985 3.4449 0
M  V30 32 H -3.2039 0.0248 3.5515 0
M  V30 33 H -0.3894 2.0981 2.304 0
M  V30 34 H -0.1163 0.7354 3.4056 0
M  V30 35 H -1.504 1.8123 3.6364 0
M  V30 END ATOM
M  V30 BEGIN BOND
M  V30 1 2 1 2
M  V30 2 1 2 3
M  V30 3 1 2 4
M  V30 4 1 3 5
M  V30 5 1 4 6
M  V30 6 2 5 7
M  V30 7 1 5 8
M  V30 8 1 8 9
M  V30 9 1 8 10
M  V30 10 1 9 11
M  V30 11 1 10 12
M  V30 12 1 11 13
M  V30 13 1 13 14
M  V30 14 1 13 15
M  V30 15 1 6 8
M  V30 16 1 3 16
M  V30 17 1 4 17
M  V30 18 1 6 18
M  V30 19 1 6 19
M  V30 20 1 9 20
M  V30 21 1 9 21
M  V30 22 1 10 22
M  V30 23 1 10 23
M  V30 24 1 11 24
M  V30 25 1 11 25
M  V30 26 1 12 26
M  V30 27 1 12 27
M  V30 28 1 12 28
M  V30 29 1 13 29
M  V30 30 1 14 30
M  V30 31 1 14 31
M  V30 32 1 14 32
M  V30 33 1 15 33
M  V30 34 1 15 34
M  V30 35 1 15 35
M  V30 END BOND
M  V30 BEGIN COLLECTION
M  V30 MDLV30/STERAC1 ATOMS=(1 8)
M  V30 END COLLECTION
M  V30 END CTAB
M  END
>  <NO.>
581

>  <Name>
5-ethyl-5-isopentyl-5,6-dihydropyrimidine-2,4(1h,3h)-dione

>  <SMILES>
CCC1(CCC(C)C)CNC(=O)NC1=O

>  <logBB>
0.04

>  <Class>
1

>  <MW>
212.15

>  <nHBAcc>
2

>  <nHBDon>
2

>  <SLogP>
1.66

>  <TopoPSA>
58.2

>  <MMFF94 Energy>
-102.56

$$$$
CCn1c(C)nc(N2CCc3ccccc3CC2)c([N+](=O)[O-])c1=O
Actelion Java MolfileCreator 2.0

  0  0  0  0  0  0              0 V3000
M  V30 BEGIN CTAB
M  V30 COUNTS 44 46 0 0 0
M  V30 BEGIN ATOM
M  V30 1 O -2.471 -1.1153 -2.9498 0
M  V30 2 N -1.4481 -1.6606 -2.5087 0 CHG=1
M  V30 3 O -1.3089 -2.8773 -2.3168 0 CHG=-1
M  V30 4 C -0.341 -0.8153 -2.2137 0
M  V30 5 C -0.0242 -0.523 -0.9371 0
M  V30 6 C 0.4985 -0.4059 -3.3384 0
M  V30 7 N 1.139 0.1809 -0.6878 0
M  V30 8 N -0.7787 -0.9043 0.1879 0
M  V30 9 O 0.2333 -0.7107 -4.4992 0
M  V30 10 N 1.62 0.3389 -2.9885 0
M  V30 11 C 1.8921 0.5801 -1.6613 0
M  V30 12 C -0.1002 -1.4272 1.3901 0
M  V30 13 C -2.1851 -0.509 0.3939 0
M  V30 14 C 2.4827 0.7947 -4.0825 0
M  V30 15 C 3.1316 1.3625 -1.2953 0
M  V30 16 C 0.2108 -0.3348 2.4188 0
M  V30 17 C -2.3019 0.7795 1.2186 0
M  V30 18 C 3.4952 -0.2698 -4.4837 0
M  V30 19 C -0.9828 0.0357 3.2728 0
M  V30 20 C -2.1625 0.5578 2.7087 0
M  V30 21 C -0.9035 -0.1296 4.6664 0
M  V30 22 C -3.2333 0.8989 3.553 0
M  V30 23 C -1.9767 0.2082 5.4899 0
M  V30 24 C -3.1419 0.7222 4.9331 0
M  V30 25 H -0.7099 -2.2224 1.8379 0
M  V30 26 H 0.8397 -1.9068 1.0873 0
M  V30 27 H -2.6707 -0.3204 -0.5664 0
M  V30 28 H -2.7381 -1.3318 0.8637 0
M  V30 29 H 3.0071 1.7103 -3.7957 0
M  V30 30 H 1.8621 1.0456 -4.9508 0
M  V30 31 H 3.0207 2.3989 -1.6271 0
M  V30 32 H 4.0167 0.9258 -1.7631 0
M  V30 33 H 3.2769 1.3607 -0.2106 0
M  V30 34 H 1.012 -0.7086 3.069 0
M  V30 35 H 0.6027 0.5732 1.9464 0
M  V30 36 H -1.5661 1.5267 0.896 0
M  V30 37 H -3.2875 1.2178 1.0151 0
M  V30 38 H 2.9957 -1.1793 -4.8326 0
M  V30 39 H 4.1364 -0.5473 -3.6415 0
M  V30 40 H 4.1327 0.0995 -5.2927 0
M  V30 41 H 0.001 -0.5248 5.1237 0
M  V30 42 H -4.1527 1.3086 3.1396 0
M  V30 43 H -1.9007 0.0728 6.5654 0
M  V30 44 H -3.9792 0.9896 5.5723 0
M  V30 END ATOM
M  V30 BEGIN BOND
M  V30 1 2 1 2
M  V30 2 1 2 3
M  V30 3 1 2 4
M  V30 4 2 4 5
M  V30 5 1 4 6
M  V30 6 1 5 7
M  V30 7 1 5 8
M  V30 8 2 6 9
M  V30 9 1 6 10
M  V30 10 2 7 11
M  V30 11 1 8 12
M  V30 12 1 8 13
M  V30 13 1 10 14
M  V30 14 1 11 15
M  V30 15 1 12 16
M  V30 16 1 13 17
M  V30 17 1 14 18
M  V30 18 1 16 19
M  V30 19 1 17 20
M  V30 20 1 19 21
M  V30 21 1 20 22
M  V30 22 2 21 23
M  V30 23 2 22 24
M  V30 24 1 10 11
M  V30 25 2 19 20
M  V30 26 1 23 24
M  V30 27 1 12 25
M  V30 28 1 12 26
M  V30 29 1 13 27
M  V30 30 1 13 28
M  V30 31 1 14 29
M  V30 32 1 14 30
M  V30 33 1 15 31
M  V30 34 1 15 32
M  V30 35 1 15 33
M  V30 36 1 16 34
M  V30 37 1 16 35
M  V30 38 1 17 36
M  V30 39 1 17 37
M  V30 40 1 18 38
M  V30 41 1 18 39
M  V30 42 1 18 40
M  V30 43 1 21 41
M  V30 44 1 22 42
M  V30 45 1 23 43
M  V30 46 1 24 44
M  V30 END BOND
M  V30 END CTAB
M  END
>  <NO.>
582

>  <Name>
schembl6946348

>  <SMILES>
CCn1c(C)nc(N2CCc3ccccc3CC2)c([N+](=O)[O-])c1=O

>  <logBB>
0.04

>  <Class>
1

>  <MW>
328.15

>  <nHBAcc>
5

>  <nHBDon>
0

>  <SLogP>
2.09

>  <TopoPSA>
81.27

>  <MMFF94 Energy>
26.784

$$$$
CCN(CC)CCOC(=O)c1ccc(N)cc1
Actelion Java MolfileCreator 2.0

  0  0  0  0  0  0              0 V3000
M  V30 BEGIN CTAB
M  V30 COUNTS 37 37 0 0 0
M  V30 BEGIN ATOM
M  V30 1 O 0.2331 -2.1777 -1.7886 0
M  V30 2 C -0.3763 -1.8356 -0.7877 0
M  V30 3 O -0.2816 -0.6304 -0.1737 0
M  V30 4 C -1.3437 -2.713 -0.0743 0
M  V30 5 C 0.6443 0.2785 -0.7953 0
M  V30 6 C -1.5786 -3.994 -0.5864 0
M  V30 7 C -2.0242 -2.305 1.0785 0
M  V30 8 C 0.6121 1.6017 -0.0138 0
M  V30 9 C -2.4799 -4.8543 0.0494 0
M  V30 10 C -2.924 -3.1732 1.7078 0
M  V30 11 N 1.6002 2.5958 -0.4867 0
M  V30 12 C -3.1511 -4.4569 1.2072 0
M  V30 13 C 1.8453 3.6185 0.5493 0
M  V30 14 C 1.1424 3.2236 -1.7422 0
M  V30 15 N -4.0613 -5.2986 1.8164 0
M  V30 16 C 2.7594 3.1057 1.6587 0
M  V30 17 C 2.2894 3.8663 -2.517 0
M  V30 18 H 0.3483 0.4279 -1.8385 0
M  V30 19 H 1.6512 -0.1536 -0.7568 0
M  V30 20 H -1.0641 -4.3297 -1.4847 0
M  V30 21 H -1.8695 -1.3158 1.5008 0
M  V30 22 H -0.4042 2.0184 -0.0248 0
M  V30 23 H 0.7977 1.3394 1.0344 0
M  V30 24 H -2.651 -5.8417 -0.3712 0
M  V30 25 H -3.4475 -2.8346 2.5983 0
M  V30 26 H 2.351 4.4898 0.1198 0
M  V30 27 H 0.9025 3.9864 0.9737 0
M  V30 28 H 0.709 2.4731 -2.4116 0
M  V30 29 H 0.3528 3.9612 -1.5509 0
M  V30 30 H -4.5059 -5.0342 2.6846 0
M  V30 31 H -4.1854 -6.2454 1.4852 0
M  V30 32 H 3.0035 3.923 2.3456 0
M  V30 33 H 3.6997 2.7242 1.247 0
M  V30 34 H 2.2946 2.3115 2.2492 0
M  V30 35 H 1.9284 4.2196 -3.4887 0
M  V30 36 H 3.0912 3.1436 -2.702 0
M  V30 37 H 2.7153 4.7273 -1.9949 0
M  V30 END ATOM
M  V30 BEGIN BOND
M  V30 1 2 1 2
M  V30 2 1 2 3
M  V30 3 1 2 4
M  V30 4 1 3 5
M  V30 5 2 4 6
M  V30 6 1 4 7
M  V30 7 1 5 8
M  V30 8 1 6 9
M  V30 9 2 7 10
M  V30 10 1 8 11
M  V30 11 2 9 12
M  V30 12 1 11 13
M  V30 13 1 11 14
M  V30 14 1 12 15
M  V30 15 1 13 16
M  V30 16 1 14 17
M  V30 17 1 10 12
M  V30 18 1 5 18
M  V30 19 1 5 19
M  V30 20 1 6 20
M  V30 21 1 7 21
M  V30 22 1 8 22
M  V30 23 1 8 23
M  V30 24 1 9 24
M  V30 25 1 10 25
M  V30 26 1 13 26
M  V30 27 1 13 27
M  V30 28 1 14 28
M  V30 29 1 14 29
M  V30 30 1 15 30
M  V30 31 1 15 31
M  V30 32 1 16 32
M  V30 33 1 16 33
M  V30 34 1 16 34
M  V30 35 1 17 35
M  V30 36 1 17 36
M  V30 37 1 17 37
M  V30 END BOND
M  V30 END CTAB
M  END
>  <NO.>
585

>  <Name>
procaine

>  <SMILES>
CCN(CC)CCOC(=O)c1ccc(N)cc1

>  <logBB>
0.05

>  <Class>
1

>  <MW>
236.15

>  <nHBAcc>
4

>  <nHBDon>
1

>  <SLogP>
1.77

>  <TopoPSA>
55.56

>  <MMFF94 Energy>
38.129

$$$$
CN1CCC(n2nc(-c3c(-c4ccccc4)nn4ccccc34)ccc2=O)CC1
Actelion Java MolfileCreator 2.0

  0  0  0  0  0  0              0 V3000
M  V30 BEGIN CTAB
M  V30 COUNTS 52 56 0 0 0
M  V30 BEGIN ATOM
M  V30 1 O -2.0058 -3.1304 -1.6044 0
M  V30 2 C -1.6851 -2.1695 -0.9096 0
M  V30 3 N -0.4606 -1.5093 -0.9685 0
M  V30 4 C -2.6538 -1.6569 0.0842 0
M  V30 5 N -0.1186 -0.462 -0.1342 0
M  V30 6 C 0.5826 -1.9949 -1.8835 0
M  V30 7 C -2.3476 -0.6362 0.8867 0
M  V30 8 C -1.0076 -0.0551 0.7117 0
M  V30 9 C 1.4015 -0.8672 -2.5212 0
M  V30 10 C 1.5122 -2.9828 -1.1728 0
M  V30 11 C -0.6774 1.0427 1.5956 0
M  V30 12 C 2.4824 -1.442 -3.4346 0
M  V30 13 C 2.5951 -3.4845 -2.1257 0
M  V30 14 C -1.4418 2.1931 1.9622 0
M  V30 15 C 0.5166 1.1994 2.2759 0
M  V30 16 N 3.3566 -2.3683 -2.7017 0
M  V30 17 N -0.8049 2.94 2.8748 0
M  V30 18 C -2.754 2.6101 1.4672 0
M  V30 19 N 0.4032 2.3563 3.0439 0
M  V30 20 C 1.7386 0.4647 2.3573 0
M  V30 21 C 4.4187 -2.8689 -3.5747 0
M  V30 22 C -3.7451 3.0269 2.3661 0
M  V30 23 C -3.0365 2.6039 0.0939 0
M  V30 24 C 1.435 2.7994 3.8748 0
M  V30 25 C 2.7276 0.902 3.1595 0
M  V30 26 C -5.0059 3.4076 1.9017 0
M  V30 27 C -4.2985 2.9846 -0.3682 0
M  V30 28 C 2.5838 2.109 3.9535 0
M  V30 29 C -5.2828 3.3819 0.5357 0
M  V30 30 H -3.6083 -2.1652 0.1318 0
M  V30 31 H 0.0791 -2.5362 -2.6958 0
M  V30 32 H -3.0306 -0.2652 1.6376 0
M  V30 33 H 0.7431 -0.2052 -3.0964 0
M  V30 34 H 1.877 -0.2465 -1.7506 0
M  V30 35 H 1.9777 -2.5043 -0.3009 0
M  V30 36 H 0.9376 -3.835 -0.79 0
M  V30 37 H 3.0748 -0.6073 -3.8288 0
M  V30 38 H 2.0143 -1.9421 -4.2928 0
M  V30 39 H 3.2691 -4.1399 -1.5606 0
M  V30 40 H 2.137 -4.0937 -2.9161 0
M  V30 41 H 1.8673 -0.4348 1.7617 0
M  V30 42 H 5.1021 -3.5179 -3.0158 0
M  V30 43 H 5.0211 -2.0397 -3.9622 0
M  V30 44 H 4.0227 -3.4352 -4.4254 0
M  V30 45 H -3.535 3.0604 3.4335 0
M  V30 46 H -2.2749 2.3198 -0.6291 0
M  V30 47 H 1.2421 3.7084 4.4282 0
M  V30 48 H 3.6662 0.3593 3.2254 0
M  V30 49 H -5.7679 3.7312 2.6062 0
M  V30 50 H -4.5099 2.9809 -1.4347 0
M  V30 51 H 3.4037 2.4276 4.5873 0
M  V30 52 H -6.2627 3.6842 0.1744 0
M  V30 END ATOM
M  V30 BEGIN BOND
M  V30 1 2 1 2
M  V30 2 1 2 3
M  V30 3 1 2 4
M  V30 4 1 3 5
M  V30 5 1 3 6
M  V30 6 2 4 7
M  V30 7 2 5 8
M  V30 8 1 6 9
M  V30 9 1 6 10
M  V30 10 1 8 11
M  V30 11 1 9 12
M  V30 12 1 10 13
M  V30 13 1 11 14
M  V30 14 2 11 15
M  V30 15 1 12 16
M  V30 16 2 14 17
M  V30 17 1 14 18
M  V30 18 1 15 19
M  V30 19 1 15 20
M  V30 20 1 16 21
M  V30 21 2 18 22
M  V30 22 1 18 23
M  V30 23 1 19 24
M  V30 24 2 20 25
M  V30 25 1 22 26
M  V30 26 2 23 27
M  V30 27 2 24 28
M  V30 28 2 26 29
M  V30 29 1 7 8
M  V30 30 1 13 16
M  V30 31 1 17 19
M  V30 32 1 25 28
M  V30 33 1 27 29
M  V30 34 1 4 30
M  V30 35 1 6 31
M  V30 36 1 7 32
M  V30 37 1 9 33
M  V30 38 1 9 34
M  V30 39 1 10 35
M  V30 40 1 10 36
M  V30 41 1 12 37
M  V30 42 1 12 38
M  V30 43 1 13 39
M  V30 44 1 13 40
M  V30 45 1 20 41
M  V30 46 1 21 42
M  V30 47 1 21 43
M  V30 48 1 21 44
M  V30 49 1 22 45
M  V30 50 1 23 46
M  V30 51 1 24 47
M  V30 52 1 25 48
M  V30 53 1 26 49
M  V30 54 1 27 50
M  V30 55 1 28 51
M  V30 56 1 29 52
M  V30 END BOND
M  V30 END CTAB
M  END
>  <NO.>
587

>  <Name>
compound 32

>  <SMILES>
CN1CCC(n2nc(-c3c(-c4ccccc4)nn4ccccc34)ccc2=O)CC1

>  <logBB>
0.06

>  <Class>
1

>  <MW>
385.19

>  <nHBAcc>
4

>  <nHBDon>
0

>  <SLogP>
3.49

>  <TopoPSA>
55.43

>  <MMFF94 Energy>
79.84

$$$$
CCC(C)(C)O
Actelion Java MolfileCreator 2.0

  0  0  0  0  0  0              0 V3000
M  V30 BEGIN CTAB
M  V30 COUNTS 18 17 0 0 0
M  V30 BEGIN ATOM
M  V30 1 O -0.5297 1.4383 1.3625 0
M  V30 2 C -0.2958 0.5399 0.2699 0
M  V30 3 C 0.9177 -0.3329 0.6431 0
M  V30 4 C -1.5684 -0.2849 0.0672 0
M  V30 5 C -0.0262 1.4085 -0.9593 0
M  V30 6 C 1.343 -1.3486 -0.4067 0
M  V30 7 H -0.7297 0.9054 2.1511 0
M  V30 8 H 1.7713 0.3183 0.8731 0
M  V30 9 H 0.7056 -0.8635 1.5807 0
M  V30 10 H -2.4393 0.3698 -0.0543 0
M  V30 11 H -1.7725 -0.9089 0.9446 0
M  V30 12 H -1.5039 -0.9328 -0.8119 0
M  V30 13 H -0.8463 2.1182 -1.1203 0
M  V30 14 H 0.0898 0.8121 -1.8691 0
M  V30 15 H 0.8784 2.0109 -0.8193 0
M  V30 16 H 0.5443 -2.0641 -0.6214 0
M  V30 17 H 2.2062 -1.9168 -0.0448 0
M  V30 18 H 1.6374 -0.8627 -1.3411 0
M  V30 END ATOM
M  V30 BEGIN BOND
M  V30 1 1 1 2
M  V30 2 1 2 3
M  V30 3 1 2 4
M  V30 4 1 2 5
M  V30 5 1 3 6
M  V30 6 1 1 7
M  V30 7 1 3 8
M  V30 8 1 3 9
M  V30 9 1 4 10
M  V30 10 1 4 11
M  V30 11 1 4 12
M  V30 12 1 5 13
M  V30 13 1 5 14
M  V30 14 1 5 15
M  V30 15 1 6 16
M  V30 16 1 6 17
M  V30 17 1 6 18
M  V30 END BOND
M  V30 END CTAB
M  END
>  <NO.>
590

>  <Name>
amylene-hydrate (tertiary-amyl alcohol)

>  <SMILES>
CCC(C)(C)O

>  <logBB>
0.07

>  <Class>
1

>  <MW>
88.09

>  <nHBAcc>
1

>  <nHBDon>
1

>  <SLogP>
1.17

>  <TopoPSA>
20.23

>  <MMFF94 Energy>
9.1531

$$$$
CCCN(CCC)c1cc(C)nc2c(-c3cnc(N(C)C)cc3C)c(C)nn12
Actelion Java MolfileCreator 2.0

  0  0  0  0  0  0              0 V3000
M  V30 BEGIN CTAB
M  V30 COUNTS 60 62 0 0 0
M  V30 BEGIN ATOM
M  V30 1 N 1.8059 -0.1569 -0.5493 0
M  V30 2 C 2.3103 -1.3298 -0.3116 0
M  V30 3 C 0.5001 0.0322 -0.1878 0
M  V30 4 C 1.582 -2.4621 0.3278 0
M  V30 5 C 3.7469 -1.5683 -0.7052 0
M  V30 6 N -0.2635 -0.9735 0.4285 0
M  V30 7 C -0.3335 1.1245 -0.3194 0
M  V30 8 C 0.3057 -2.2544 0.7061 0
M  V30 9 N -1.5474 -0.5472 0.6418 0
M  V30 10 C 0.0546 2.38 -0.9248 0
M  V30 11 C -1.5801 0.7115 0.1992 0
M  V30 12 N -0.4621 -3.2671 1.3249 0
M  V30 13 C 0.8717 3.3156 -0.2876 0
M  V30 14 C -0.4199 2.7053 -2.1875 0
M  V30 15 C -2.8369 1.497 0.285 0
M  V30 16 C -1.3119 -3.0028 2.5 0
M  V30 17 C -0.5969 -4.6069 0.7303 0
M  V30 18 C 1.176 4.5072 -0.9719 0
M  V30 19 C 1.458 3.0772 1.0749 0
M  V30 20 N -0.1463 3.8615 -2.8394 0
M  V30 21 C -0.6587 -3.583 3.7583 0
M  V30 22 C -1.5576 -4.5673 -0.4599 0
M  V30 23 C 0.6601 4.7685 -2.2453 0
M  V30 24 C -1.5012 -3.3164 4.9956 0
M  V30 25 C -1.7429 -5.9467 -1.071 0
M  V30 26 N 0.9369 5.9418 -2.9286 0
M  V30 27 C 0.3861 6.0733 -4.2678 0
M  V30 28 C 1.9766 6.8574 -2.5046 0
M  V30 29 H 2.1024 -3.3929 0.4972 0
M  V30 30 H 3.8608 -1.3899 -1.7785 0
M  V30 31 H 4.3898 -0.8725 -0.1581 0
M  V30 32 H 4.0622 -2.5906 -0.4824 0
M  V30 33 H -1.0591 2.0223 -2.7407 0
M  V30 34 H -2.6438 2.4897 0.7041 0
M  V30 35 H -3.5763 1.0028 0.9239 0
M  V30 36 H -3.2758 1.6204 -0.71 0
M  V30 37 H -2.3065 -3.4394 2.3481 0
M  V30 38 H -1.46 -1.9319 2.6652 0
M  V30 39 H -0.9699 -5.3203 1.4749 0
M  V30 40 H 0.3812 -4.9858 0.4129 0
M  V30 41 H 1.82 5.2315 -0.4861 0
M  V30 42 H 1.8539 4.004 1.5044 0
M  V30 43 H 0.6972 2.7075 1.77 0
M  V30 44 H 2.279 2.3566 1.0141 0
M  V30 45 H -0.5122 -4.6638 3.6529 0
M  V30 46 H 0.3359 -3.1423 3.8965 0
M  V30 47 H -2.5327 -4.1789 -0.1421 0
M  V30 48 H -1.1802 -3.8828 -1.2286 0
M  V30 49 H -1.0167 -3.7376 5.882 0
M  V30 50 H -1.6309 -2.2417 5.1584 0
M  V30 51 H -2.4919 -3.7723 4.9007 0
M  V30 52 H -2.4315 -5.8956 -1.9202 0
M  V30 53 H -0.7897 -6.3474 -1.4301 0
M  V30 54 H -2.1574 -6.6475 -0.3394 0
M  V30 55 H 0.8477 5.3525 -4.9519 0
M  V30 56 H 0.5646 7.0744 -4.6755 0
M  V30 57 H -0.7003 5.9279 -4.2709 0
M  V30 58 H 1.7614 7.2661 -1.5113 0
M  V30 59 H 2.0606 7.7144 -3.182 0
M  V30 60 H 2.9525 6.3601 -2.4864 0
M  V30 END ATOM
M  V30 BEGIN BOND
M  V30 1 2 1 2
M  V30 2 1 1 3
M  V30 3 1 2 4
M  V30 4 1 2 5
M  V30 5 1 3 6
M  V30 6 2 3 7
M  V30 7 2 4 8
M  V30 8 1 6 9
M  V30 9 1 7 10
M  V30 10 1 7 11
M  V30 11 1 8 12
M  V30 12 2 10 13
M  V30 13 1 10 14
M  V30 14 1 11 15
M  V30 15 1 12 16
M  V30 16 1 12 17
M  V30 17 1 13 18
M  V30 18 1 13 19
M  V30 19 2 14 20
M  V30 20 1 16 21
M  V30 21 1 17 22
M  V30 22 2 18 23
M  V30 23 1 21 24
M  V30 24 1 22 25
M  V30 25 1 23 26
M  V30 26 1 26 27
M  V30 27 1 26 28
M  V30 28 1 6 8
M  V30 29 2 9 11
M  V30 30 1 20 23
M  V30 31 1 4 29
M  V30 32 1 5 30
M  V30 33 1 5 31
M  V30 34 1 5 32
M  V30 35 1 14 33
M  V30 36 1 15 34
M  V30 37 1 15 35
M  V30 38 1 15 36
M  V30 39 1 16 37
M  V30 40 1 16 38
M  V30 41 1 17 39
M  V30 42 1 17 40
M  V30 43 1 18 41
M  V30 44 1 19 42
M  V30 45 1 19 43
M  V30 46 1 19 44
M  V30 47 1 21 45
M  V30 48 1 21 46
M  V30 49 1 22 47
M  V30 50 1 22 48
M  V30 51 1 24 49
M  V30 52 1 24 50
M  V30 53 1 24 51
M  V30 54 1 25 52
M  V30 55 1 25 53
M  V30 56 1 25 54
M  V30 57 1 27 55
M  V30 58 1 27 56
M  V30 59 1 27 57
M  V30 60 1 28 58
M  V30 61 1 28 59
M  V30 62 1 28 60
M  V30 END BOND
M  V30 END CTAB
M  END
>  <NO.>
591

>  <Name>
195055-03-9

>  <SMILES>
CCCN(CCC)c1cc(C)nc2c(-c3cnc(N(C)C)cc3C)c(C)nn12

>  <logBB>
0.07

>  <Class>
1

>  <MW>
380.27

>  <nHBAcc>
5

>  <nHBDon>
0

>  <SLogP>
4.41

>  <TopoPSA>
49.56

>  <MMFF94 Energy>
98.83

$$$$
O=C(CCCN1CCC2(CC1)C(=O)NCN2c1ccc(Br)cc1)c1ccc(F)cc1
Actelion Java MolfileCreator 2.0

  0  0  0  0  0  0              0 V3000
M  V30 BEGIN CTAB
M  V30 COUNTS 55 58 0 0 0
M  V30 BEGIN ATOM
M  V30 1 Br -0.2422 3.9627 6.2325 0
M  V30 2 C -0.2029 2.2849 5.3653 0
M  V30 3 C -1.3937 1.6328 5.0632 0
M  V30 4 C 1.017 1.7039 5.0352 0
M  V30 5 C -1.358 0.3922 4.4196 0
M  V30 6 C 1.0402 0.4621 4.3929 0
M  V30 7 C -0.1453 -0.2073 4.0624 0
M  V30 8 N -0.1304 -1.4298 3.4433 0
M  V30 9 C -0.2509 -1.6768 1.9831 0
M  V30 10 C 0.4043 -2.5713 4.1545 0
M  V30 11 C 0.0114 -3.1954 1.9281 0
M  V30 12 C -1.6563 -1.4188 1.4364 0
M  V30 13 C 0.8537 -0.9979 1.1665 0
M  V30 14 N 0.3688 -3.6117 3.1896 0
M  V30 15 O -0.0538 -3.9377 0.9612 0
M  V30 16 C -1.8651 0.0072 0.9358 0
M  V30 17 C 0.4895 0.412 0.7125 0
M  V30 18 N -0.8004 0.4151 0.0068 0
M  V30 19 C -1.1095 1.7441 -0.5529 0
M  V30 20 C -0.2189 2.1484 -1.7353 0
M  V30 21 C -0.2122 1.1035 -2.8537 0
M  V30 22 C 0.5798 1.5661 -4.0638 0
M  V30 23 O 1.1084 2.6749 -4.1201 0
M  V30 24 C 0.7129 0.6366 -5.229 0
M  V30 25 C 1.4347 1.0737 -6.3519 0
M  V30 26 C 0.1446 -0.6456 -5.2348 0
M  V30 27 C 1.5858 0.2421 -7.4636 0
M  V30 28 C 0.2988 -1.4753 -6.3498 0
M  V30 29 C 1.0164 -1.0245 -7.4519 0
M  V30 30 F 1.1602 -1.8234 -8.5167 0
M  V30 31 H -2.3519 2.0734 5.3245 0
M  V30 32 H 1.9526 2.2043 5.2693 0
M  V30 33 H -2.2948 -0.1157 4.2036 0
M  V30 34 H 2.0017 0.0247 4.1355 0
M  V30 35 H 1.443 -2.4316 4.4698 0
M  V30 36 H -0.2173 -2.8553 5.009 0
M  V30 37 H -2.4191 -1.6597 2.1875 0
M  V30 38 H -1.8528 -2.0927 0.5907 0
M  V30 39 H 1.0632 -1.5916 0.2653 0
M  V30 40 H 1.7975 -0.9705 1.7256 0
M  V30 41 H 0.5941 -4.5777 3.3738 0
M  V30 42 H -2.8342 0.0333 0.421 0
M  V30 43 H -1.9406 0.7101 1.7718 0
M  V30 44 H 0.4758 1.1065 1.5601 0
M  V30 45 H 1.2921 0.7471 0.0466 0
M  V30 46 H -1.0562 2.5175 0.2243 0
M  V30 47 H -2.1438 1.7441 -0.9221 0
M  V30 48 H 0.8062 2.343 -1.3994 0
M  V30 49 H -0.5897 3.1033 -2.13 0
M  V30 50 H -1.2424 0.9059 -3.1707 0
M  V30 51 H 0.2409 0.1774 -2.4845 0
M  V30 52 H 1.8829 2.066 -6.3646 0
M  V30 53 H -0.4199 -1.0252 -4.3877 0
M  V30 54 H 2.1428 0.5757 -8.3334 0
M  V30 55 H -0.1355 -2.4704 -6.3643 0
M  V30 END ATOM
M  V30 BEGIN BOND
M  V30 1 1 1 2
M  V30 2 2 2 3
M  V30 3 1 2 4
M  V30 4 1 3 5
M  V30 5 2 4 6
M  V30 6 2 5 7
M  V30 7 1 7 8
M  V30 8 1 8 9
M  V30 9 1 8 10
M  V30 10 1 9 11
M  V30 11 1 9 12
M  V30 12 1 9 13
M  V30 13 1 10 14
M  V30 14 2 11 15
M  V30 15 1 12 16
M  V30 16 1 13 17
M  V30 17 1 16 18
M  V30 18 1 18 19
M  V30 19 1 19 20
M  V30 20 1 20 21
M  V30 21 1 21 22
M  V30 22 2 22 23
M  V30 23 1 22 24
M  V30 24 2 24 25
M  V30 25 1 24 26
M  V30 26 1 25 27
M  V30 27 2 26 28
M  V30 28 2 27 29
M  V30 29 1 29 30
M  V30 30 1 6 7
M  V30 31 1 11 14
M  V30 32 1 17 18
M  V30 33 1 28 29
M  V30 34 1 3 31
M  V30 35 1 4 32
M  V30 36 1 5 33
M  V30 37 1 6 34
M  V30 38 1 10 35
M  V30 39 1 10 36
M  V30 40 1 12 37
M  V30 41 1 12 38
M  V30 42 1 13 39
M  V30 43 1 13 40
M  V30 44 1 14 41
M  V30 45 1 16 42
M  V30 46 1 16 43
M  V30 47 1 17 44
M  V30 48 1 17 45
M  V30 49 1 19 46
M  V30 50 1 19 47
M  V30 51 1 20 48
M  V30 52 1 20 49
M  V30 53 1 21 50
M  V30 54 1 21 51
M  V30 55 1 25 52
M  V30 56 1 26 53
M  V30 57 1 27 54
M  V30 58 1 28 55
M  V30 END BOND
M  V30 END CTAB
M  END
>  <NO.>
593

>  <Name>
p-bromospiperone

>  <SMILES>
O=C(CCCN1CCC2(CC1)C(=O)NCN2c1ccc(Br)cc1)c1ccc(F)cc1

>  <logBB>
0.07

>  <Class>
1

>  <MW>
473.11

>  <nHBAcc>
4

>  <nHBDon>
1

>  <SLogP>
3.98

>  <TopoPSA>
52.65

>  <MMFF94 Energy>
30.165

$$$$
CNC(=O)c1c(NCC2CCC3(CCC3)CC2)nc(C#N)nc1OCC1CCN(C(C)C)CC1
Actelion Java MolfileCreator 2.0

  0  0  0  0  0  0              0 V3000
M  V30 BEGIN CTAB
M  V30 COUNTS 74 77 0 0 0
M  V30 BEGIN ATOM
M  V30 1 O 1.1107 0.4759 -2.9375 0
M  V30 2 C 0.1656 0.5409 -2.1612 0
M  V30 3 N -1.0628 -0.0358 -2.4114 0
M  V30 4 C 0.2819 1.286 -0.8928 0
M  V30 5 C -1.2971 -0.8021 -3.6077 0
M  V30 6 C 1.364 1.0825 -0.0518 0
M  V30 7 C -0.6539 2.2331 -0.4874 0
M  V30 8 O 2.2831 0.1118 -0.3908 0
M  V30 9 N 1.5304 1.7319 1.1169 0
M  V30 10 N -0.5194 2.8823 0.686 0
M  V30 11 N -1.7881 2.503 -1.2437 0
M  V30 12 C 3.4295 0.047 0.4604 0
M  V30 13 C 0.5685 2.6107 1.4276 0
M  V30 14 C -2.8214 3.4094 -0.7635 0
M  V30 15 C 4.3977 -0.999 -0.1055 0
M  V30 16 C 0.7025 3.3199 2.6726 0
M  V30 17 C -3.7581 2.7232 0.2472 0
M  V30 18 C 5.6958 -1.0348 0.706 0
M  V30 19 C 3.766 -2.3975 -0.1362 0
M  V30 20 N 0.8087 3.8935 3.6797 0
M  V30 21 C -4.7131 3.7606 0.8622 0
M  V30 22 C -4.5612 1.5845 -0.4074 0
M  V30 23 C 6.6328 -2.1395 0.2145 0
M  V30 24 C 4.7719 -3.4539 -0.6001 0
M  V30 25 C -5.6911 3.1206 1.8467 0
M  V30 26 C -5.528 0.938 0.5831 0
M  V30 27 N 5.9673 -3.4494 0.2539 0
M  V30 28 C -6.4753 1.9903 1.1656 0
M  V30 29 C 6.9114 -4.5557 -0.0076 0
M  V30 30 C -7.5881 1.3764 2.0698 0
M  V30 31 C -7.6298 2.4435 0.2152 0
M  V30 32 C 6.3373 -5.8849 0.5001 0
M  V30 33 C 7.3685 -4.7035 -1.4636 0
M  V30 34 C -8.5924 2.3408 1.4125 0
M  V30 35 H -1.8182 0.086 -1.745 0
M  V30 36 H -0.5497 -1.5963 -3.6848 0
M  V30 37 H -1.2181 -0.142 -4.4755 0
M  V30 38 H -2.2991 -1.234 -3.5571 0
M  V30 39 H -1.6855 2.4293 -2.2521 0
M  V30 40 H 3.1272 -0.2353 1.477 0
M  V30 41 H 3.93 1.0235 0.4857 0
M  V30 42 H -2.373 4.3148 -0.3357 0
M  V30 43 H -3.4076 3.7448 -1.6281 0
M  V30 44 H 4.635 -0.7208 -1.1417 0
M  V30 45 H -3.16 2.2921 1.0608 0
M  V30 46 H 6.2076 -0.0676 0.6348 0
M  V30 47 H 5.4694 -1.1963 1.7683 0
M  V30 48 H 3.394 -2.6625 0.8622 0
M  V30 49 H 2.9011 -2.4085 -0.8101 0
M  V30 50 H -4.1353 4.5324 1.3848 0
M  V30 51 H -5.2708 4.2676 0.0651 0
M  V30 52 H -3.8835 0.8136 -0.7902 0
M  V30 53 H -5.1215 1.9732 -1.2671 0
M  V30 54 H 7.5131 -2.144 0.8686 0
M  V30 55 H 6.9802 -1.8998 -0.7977 0
M  V30 56 H 5.0321 -3.2646 -1.6488 0
M  V30 57 H 4.2682 -4.4252 -0.559 0
M  V30 58 H -5.1351 2.7222 2.7049 0
M  V30 59 H -6.3638 3.8925 2.2383 0
M  V30 60 H -6.0884 0.1442 0.0748 0
M  V30 61 H -4.9604 0.4573 1.3898 0
M  V30 62 H 7.8093 -4.3773 0.5996 0
M  V30 63 H -7.4606 1.4982 3.1494 0
M  V30 64 H -7.8104 0.3219 1.8654 0
M  V30 65 H -7.863 1.7314 -0.5855 0
M  V30 66 H -7.5422 3.4403 -0.2251 0
M  V30 67 H 6.0017 -5.796 1.5393 0
M  V30 68 H 7.1048 -6.6664 0.4701 0
M  V30 69 H 5.4936 -6.2316 -0.1048 0
M  V30 70 H 8.1316 -5.486 -1.5425 0
M  V30 71 H 6.5436 -4.9857 -2.1258 0
M  V30 72 H 7.8139 -3.7788 -1.8428 0
M  V30 73 H -9.5774 1.921 1.193 0
M  V30 74 H -8.7237 3.2825 1.9571 0
M  V30 END ATOM
M  V30 BEGIN BOND
M  V30 1 2 1 2
M  V30 2 1 2 3
M  V30 3 1 2 4
M  V30 4 1 3 5
M  V30 5 2 4 6
M  V30 6 1 4 7
M  V30 7 1 6 8
M  V30 8 1 6 9
M  V30 9 2 7 10
M  V30 10 1 7 11
M  V30 11 1 8 12
M  V30 12 2 9 13
M  V30 13 1 11 14
M  V30 14 1 12 15
M  V30 15 1 13 16
M  V30 16 1 14 17
M  V30 17 1 15 18
M  V30 18 1 15 19
M  V30 19 3 16 20
M  V30 20 1 17 21
M  V30 21 1 17 22
M  V30 22 1 18 23
M  V30 23 1 19 24
M  V30 24 1 21 25
M  V30 25 1 22 26
M  V30 26 1 23 27
M  V30 27 1 25 28
M  V30 28 1 27 29
M  V30 29 1 28 30
M  V30 30 1 28 31
M  V30 31 1 29 32
M  V30 32 1 29 33
M  V30 33 1 30 34
M  V30 34 1 10 13
M  V30 35 1 24 27
M  V30 36 1 26 28
M  V30 37 1 31 34
M  V30 38 1 3 35
M  V30 39 1 5 36
M  V30 40 1 5 37
M  V30 41 1 5 38
M  V30 42 1 11 39
M  V30 43 1 12 40
M  V30 44 1 12 41
M  V30 45 1 14 42
M  V30 46 1 14 43
M  V30 47 1 15 44
M  V30 48 1 17 45
M  V30 49 1 18 46
M  V30 50 1 18 47
M  V30 51 1 19 48
M  V30 52 1 19 49
M  V30 53 1 21 50
M  V30 54 1 21 51
M  V30 55 1 22 52
M  V30 56 1 22 53
M  V30 57 1 23 54
M  V30 58 1 23 55
M  V30 59 1 24 56
M  V30 60 1 24 57
M  V30 61 1 25 58
M  V30 62 1 25 59
M  V30 63 1 26 60
M  V30 64 1 26 61
M  V30 65 1 29 62
M  V30 66 1 30 63
M  V30 67 1 30 64
M  V30 68 1 31 65
M  V30 69 1 31 66
M  V30 70 1 32 67
M  V30 71 1 32 68
M  V30 72 1 32 69
M  V30 73 1 33 70
M  V30 74 1 33 71
M  V30 75 1 33 72
M  V30 76 1 34 73
M  V30 77 1 34 74
M  V30 END BOND
M  V30 END CTAB
M  END
>  <NO.>
594

>  <Name>
irie-16a

>  <SMILES>
CNC(=O)c1c(NCC2CCC3(CCC3)CC2)nc(C#N)nc1OCC1CCN(C(C)C)CC1

>  <logBB>
0.08

>  <Class>
1

>  <MW>
468.32

>  <nHBAcc>
7

>  <nHBDon>
2

>  <SLogP>
3.98

>  <TopoPSA>
103.17

>  <MMFF94 Energy>
20.378

$$$$
CNC(=O)Oc1ccc2c(c1)C1(C)CCN(C)C1N2C
Actelion Java MolfileCreator 2.0

  0  0  0  0  0  0              0 V3000
M  V30 BEGIN CTAB
M  V30 COUNTS 41 43 0 0 0
M  V30 BEGIN ATOM
M  V30 1 O 2.6922 1.4246 2.2959 0
M  V30 2 C 1.9335 2.0418 3.0307 0
M  V30 3 O 0.5539 1.9144 3.088 0
M  V30 4 N 2.3342 2.9795 3.9418 0
M  V30 5 C -0.034 1.0054 2.1955 0
M  V30 6 C 3.7173 3.3188 4.126 0
M  V30 7 C 0.1154 1.1407 0.8171 0
M  V30 8 C -0.8501 0.0103 2.7452 0
M  V30 9 C -0.5427 0.226 0.0047 0
M  V30 10 C -1.5082 -0.8947 1.9065 0
M  V30 11 C -1.3508 -0.7855 0.5336 0
M  V30 12 C -0.5156 0.1201 -1.5004 0
M  V30 13 N -1.9138 -1.5677 -0.4502 0
M  V30 14 C -1.3854 -1.1714 -1.7574 0
M  V30 15 C 0.8721 -0.2355 -2.0393 0
M  V30 16 C -1.0951 1.37 -2.1614 0
M  V30 17 C -2.5367 -2.8475 -0.2411 0
M  V30 18 N -0.5157 -2.1183 -2.4912 0
M  V30 19 C 0.855 -1.7538 -2.1118 0
M  V30 20 C -0.725 -2.0324 -3.9335 0
M  V30 21 H 1.6139 3.4097 4.5045 0
M  V30 22 H 4.1745 3.5439 3.1586 0
M  V30 23 H 4.2335 2.4702 4.5825 0
M  V30 24 H 3.7812 4.1901 4.7816 0
M  V30 25 H 0.7357 1.9219 0.393 0
M  V30 26 H -0.9727 -0.0625 3.8216 0
M  V30 27 H -2.1364 -1.6671 2.3356 0
M  V30 28 H -2.2593 -0.9207 -2.3745 0
M  V30 29 H 1.0192 0.1762 -3.0454 0
M  V30 30 H 1.6952 0.1267 -1.4146 0
M  V30 31 H -1.1733 1.2444 -3.2466 0
M  V30 32 H -2.0982 1.595 -1.7806 0
M  V30 33 H -0.4664 2.2473 -1.9718 0
M  V30 34 H -1.7995 -3.5911 0.0789 0
M  V30 35 H -3.3237 -2.7848 0.5175 0
M  V30 36 H -3.0059 -3.2082 -1.1627 0
M  V30 37 H 1.0792 -2.1815 -1.1266 0
M  V30 38 H 1.6094 -2.1439 -2.8038 0
M  V30 39 H -0.0527 -2.7209 -4.4573 0
M  V30 40 H -0.5665 -1.0267 -4.3368 0
M  V30 41 H -1.7451 -2.3429 -4.1862 0
M  V30 END ATOM
M  V30 BEGIN BOND
M  V30 1 2 1 2
M  V30 2 1 2 3
M  V30 3 1 2 4
M  V30 4 1 3 5
M  V30 5 1 4 6
M  V30 6 2 5 7
M  V30 7 1 5 8
M  V30 8 1 7 9
M  V30 9 2 8 10
M  V30 10 2 9 11
M  V30 11 1 9 12
M  V30 12 1 11 13
M  V30 13 1 12 14
M  V30 14 1 12 15
M  V30 15 1 12 16
M  V30 16 1 13 17
M  V30 17 1 14 18
M  V30 18 1 15 19
M  V30 19 1 18 20
M  V30 20 1 10 11
M  V30 21 1 13 14
M  V30 22 1 18 19
M  V30 23 1 4 21
M  V30 24 1 6 22
M  V30 25 1 6 23
M  V30 26 1 6 24
M  V30 27 1 7 25
M  V30 28 1 8 26
M  V30 29 1 10 27
M  V30 30 1 14 28
M  V30 31 1 15 29
M  V30 32 1 15 30
M  V30 33 1 16 31
M  V30 34 1 16 32
M  V30 35 1 16 33
M  V30 36 1 17 34
M  V30 37 1 17 35
M  V30 38 1 17 36
M  V30 39 1 19 37
M  V30 40 1 19 38
M  V30 41 1 20 39
M  V30 42 1 20 40
M  V30 43 1 20 41
M  V30 END BOND
M  V30 END CTAB
M  END
>  <NO.>
595

>  <Name>
1,3a,8-trimethyl-1,2,3,3a,8,8a-hexahydropyrrolo[2,3-b]indol-5-yl methylcarbamate

>  <SMILES>
CNC(=O)Oc1ccc2c(c1)C1(C)CCN(C)C1N2C

>  <logBB>
0.08

>  <Class>
1

>  <MW>
275.16

>  <nHBAcc>
4

>  <nHBDon>
1

>  <SLogP>
1.77

>  <TopoPSA>
44.81

>  <MMFF94 Energy>
-18.891

$$$$
CN(CC=CC#CC(C)(C)C)Cc1cccc2ccccc12
Actelion Java MolfileCreator 2.0

  0  0  0  0  0  0              0 V3000
M  V30 BEGIN CTAB
M  V30 COUNTS 47 48 0 0 0
M  V30 BEGIN ATOM
M  V30 1 N 1.884 0.6277 -1.4913 0
M  V30 2 C 2.2454 -0.0511 -2.7516 0
M  V30 3 C 2.02 -0.2701 -0.3351 0
M  V30 4 C 2.7055 1.8323 -1.3415 0
M  V30 5 C 1.3136 -1.1865 -3.1512 0
M  V30 6 C 1.3795 0.2882 0.9047 0
M  V30 7 C -0.0528 -0.9761 -3.4957 0
M  V30 8 C 1.8481 -2.489 -3.1937 0
M  V30 9 C 0.261 -0.2073 1.4541 0
M  V30 10 C -0.8423 -2.0929 -3.8732 0
M  V30 11 C -0.6809 0.2904 -3.4862 0
M  V30 12 C 1.06 -3.5732 -3.5625 0
M  V30 13 C -0.2885 0.3464 2.6401 0
M  V30 14 C -0.275 -3.3749 -3.8999 0
M  V30 15 C -2.1922 -1.9166 -4.2207 0
M  V30 16 C -2.0247 0.4502 -3.833 0
M  V30 17 C -0.7559 0.8139 3.6429 0
M  V30 18 C -2.7804 -0.6535 -4.2015 0
M  V30 19 C -1.3319 1.3936 4.8765 0
M  V30 20 C -0.5131 2.6238 5.2918 0
M  V30 21 C -2.786 1.8093 4.6137 0
M  V30 22 C -1.2916 0.3471 5.9987 0
M  V30 23 H 2.2327 0.6663 -3.5836 0
M  V30 24 H 3.281 -0.4142 -2.6961 0
M  V30 25 H 3.0759 -0.4872 -0.1276 0
M  V30 26 H 1.5488 -1.2377 -0.5432 0
M  V30 27 H 2.3958 2.4248 -0.4748 0
M  V30 28 H 3.7705 1.5952 -1.2378 0
M  V30 29 H 2.5847 2.4905 -2.2097 0
M  V30 30 H 1.8803 1.1262 1.3817 0
M  V30 31 H 2.8899 -2.6642 -2.9342 0
M  V30 32 H -0.2606 -1.0421 0.9952 0
M  V30 33 H -0.1267 1.1787 -3.1918 0
M  V30 34 H 1.4846 -4.573 -3.5887 0
M  V30 35 H -0.875 -4.2356 -4.1868 0
M  V30 36 H -2.8012 -2.7703 -4.51 0
M  V30 37 H -2.4756 1.4385 -3.8077 0
M  V30 38 H -3.8262 -0.5347 -4.4701 0
M  V30 39 H -0.9146 3.0781 6.2047 0
M  V30 40 H 0.534 2.3603 5.4822 0
M  V30 41 H -0.5181 3.3898 4.5071 0
M  V30 42 H -2.8492 2.5545 3.8118 0
M  V30 43 H -3.3974 0.9515 4.3095 0
M  V30 44 H -3.2427 2.2438 5.5102 0
M  V30 45 H -0.2643 0.0253 6.2073 0
M  V30 46 H -1.7121 0.7461 6.9287 0
M  V30 47 H -1.8647 -0.5482 5.7299 0
M  V30 END ATOM
M  V30 BEGIN BOND
M  V30 1 1 1 2
M  V30 2 1 1 3
M  V30 3 1 1 4
M  V30 4 1 2 5
M  V30 5 1 3 6
M  V30 6 1 5 7
M  V30 7 2 5 8
M  V30 8 2 6 9
M  V30 9 1 7 10
M  V30 10 2 7 11
M  V30 11 1 8 12
M  V30 12 1 9 13
M  V30 13 1 10 14
M  V30 14 2 10 15
M  V30 15 1 11 16
M  V30 16 3 13 17
M  V30 17 1 15 18
M  V30 18 1 17 19
M  V30 19 1 19 20
M  V30 20 1 19 21
M  V30 21 1 19 22
M  V30 22 2 12 14
M  V30 23 2 16 18
M  V30 24 1 2 23
M  V30 25 1 2 24
M  V30 26 1 3 25
M  V30 27 1 3 26
M  V30 28 1 4 27
M  V30 29 1 4 28
M  V30 30 1 4 29
M  V30 31 1 6 30
M  V30 32 1 8 31
M  V30 33 1 9 32
M  V30 34 1 11 33
M  V30 35 1 12 34
M  V30 36 1 14 35
M  V30 37 1 15 36
M  V30 38 1 16 37
M  V30 39 1 18 38
M  V30 40 1 20 39
M  V30 41 1 20 40
M  V30 42 1 20 41
M  V30 43 1 21 42
M  V30 44 1 21 43
M  V30 45 1 21 44
M  V30 46 1 22 45
M  V30 47 1 22 46
M  V30 48 1 22 47
M  V30 END BOND
M  V30 END CTAB
M  END
>  <NO.>
596

>  <Name>
terbinafine

>  <SMILES>
CN(CC=CC#CC(C)(C)C)Cc1cccc2ccccc12

>  <logBB>
0.08

>  <Class>
1

>  <MW>
291.2

>  <nHBAcc>
1

>  <nHBDon>
0

>  <SLogP>
4.88

>  <TopoPSA>
3.24

>  <MMFF94 Energy>
40.313

$$$$
COCCOC(=O)C1=C(C)NC(C)=C(C(=O)OC(C)C)C1c1cccc([N+](=O)[O-])c1
Actelion Java MolfileCreator 2.0

  0  0  0  0  0  0              0 V3000
M  V30 BEGIN CTAB
M  V30 COUNTS 56 57 0 0 0
M  V30 BEGIN ATOM
M  V30 1 O 2.9331 2.219 -4.0447 0
M  V30 2 N 2.3958 2.2902 -2.9302 0 CHG=1
M  V30 3 O 2.6853 3.1239 -2.0592 0 CHG=-1
M  V30 4 C 1.3309 1.3311 -2.6254 0
M  V30 5 C 0.9508 1.1221 -1.2933 0
M  V30 6 C 0.6956 0.649 -3.6692 0
M  V30 7 C -0.0913 0.2287 -0.9947 0
M  V30 8 C -0.3357 -0.2419 -3.3748 0
M  V30 9 C -0.7291 -0.4479 -2.0502 0
M  V30 10 C -0.517 0.0119 0.4641 0 CFG=2
M  V30 11 C -0.3014 -1.4381 0.8824 0
M  V30 12 C -1.9463 0.4994 0.6976 0
M  V30 13 C -1.3139 -2.1983 1.3549 0
M  V30 14 C 1.0926 -1.9126 0.7566 0
M  V30 15 C -2.904 -0.3353 1.1638 0
M  V30 16 C -2.2474 1.9117 0.3565 0
M  V30 17 N -2.5838 -1.653 1.455 0
M  V30 18 C -1.1654 -3.6144 1.8484 0
M  V30 19 O 2.0559 -1.2771 1.1554 0
M  V30 20 O 1.1255 -3.0789 0.0658 0
M  V30 21 C -4.3291 0.0712 1.4453 0
M  V30 22 O -3.289 2.2996 -0.149 0
M  V30 23 O -1.1861 2.69 0.6766 0
M  V30 24 C 2.4332 -3.6108 -0.2118 0
M  V30 25 C -1.352 4.0864 0.376 0
M  V30 26 C 2.9123 -4.4315 0.9795 0
M  V30 27 C 2.3063 -4.483 -1.4544 0
M  V30 28 C -0.0123 4.7907 0.5703 0
M  V30 29 O 0.3071 4.8259 1.9646 0
M  V30 30 C 1.589 5.398 2.1904 0
M  V30 31 H 1.4571 1.6486 -0.4848 0
M  V30 32 H 0.985 0.8058 -4.706 0
M  V30 33 H -0.8407 -0.7745 -4.1778 0
M  V30 34 H -1.5423 -1.1439 -1.8441 0
M  V30 35 H 0.1328 0.6128 1.1171 0
M  V30 36 H -3.3262 -2.2485 1.8139 0
M  V30 37 H -1.5004 -4.3181 1.08 0
M  V30 38 H -0.1382 -3.8622 2.1296 0
M  V30 39 H -1.7752 -3.7724 2.7453 0
M  V30 40 H -4.9554 -0.1148 0.5673 0
M  V30 41 H -4.7381 -0.5067 2.2819 0
M  V30 42 H -4.4184 1.1223 1.734 0
M  V30 43 H 3.1404 -2.8007 -0.4275 0
M  V30 44 H -2.105 4.5022 1.0546 0
M  V30 45 H -1.6729 4.2029 -0.6651 0
M  V30 46 H 3.8865 -4.8881 0.7799 0
M  V30 47 H 3.0018 -3.8055 1.8733 0
M  V30 48 H 2.1956 -5.2237 1.2227 0
M  V30 49 H 3.2679 -4.9264 -1.7296 0
M  V30 50 H 1.9409 -3.8893 -2.2995 0
M  V30 51 H 1.5791 -5.2876 -1.2983 0
M  V30 52 H 0.7758 4.2511 0.034 0
M  V30 53 H -0.0764 5.8177 0.1951 0
M  V30 54 H 1.7748 5.4116 3.2676 0
M  V30 55 H 1.621 6.4259 1.8166 0
M  V30 56 H 2.3664 4.7967 1.7095 0
M  V30 END ATOM
M  V30 BEGIN BOND
M  V30 1 2 1 2
M  V30 2 1 2 3
M  V30 3 1 2 4
M  V30 4 2 4 5
M  V30 5 1 4 6
M  V30 6 1 5 7
M  V30 7 2 6 8
M  V30 8 2 7 9
M  V30 9 1 7 10
M  V30 10 1 10 11
M  V30 11 1 10 12
M  V30 12 2 11 13
M  V30 13 1 11 14
M  V30 14 2 12 15
M  V30 15 1 12 16
M  V30 16 1 13 17
M  V30 17 1 13 18
M  V30 18 2 14 19
M  V30 19 1 14 20
M  V30 20 1 15 21
M  V30 21 2 16 22
M  V30 22 1 16 23
M  V30 23 1 20 24
M  V30 24 1 23 25
M  V30 25 1 24 26
M  V30 26 1 24 27
M  V30 27 1 25 28
M  V30 28 1 28 29
M  V30 29 1 29 30
M  V30 30 1 8 9
M  V30 31 1 15 17
M  V30 32 1 5 31
M  V30 33 1 6 32
M  V30 34 1 8 33
M  V30 35 1 9 34
M  V30 36 1 10 35
M  V30 37 1 17 36
M  V30 38 1 18 37
M  V30 39 1 18 38
M  V30 40 1 18 39
M  V30 41 1 21 40
M  V30 42 1 21 41
M  V30 43 1 21 42
M  V30 44 1 24 43
M  V30 45 1 25 44
M  V30 46 1 25 45
M  V30 47 1 26 46
M  V30 48 1 26 47
M  V30 49 1 26 48
M  V30 50 1 27 49
M  V30 51 1 27 50
M  V30 52 1 27 51
M  V30 53 1 28 52
M  V30 54 1 28 53
M  V30 55 1 30 54
M  V30 56 1 30 55
M  V30 57 1 30 56
M  V30 END BOND
M  V30 BEGIN COLLECTION
M  V30 MDLV30/STERAC1 ATOMS=(1 10)
M  V30 END COLLECTION
M  V30 END CTAB
M  END
>  <NO.>
599

>  <Name>
nimodipine

>  <SMILES>
COCCOC(=O)C1=C(C)NC(C)=C(C(=O)OC(C)C)C1c1cccc([N+](=O)[O-])c1

>  <logBB>
0.08

>  <Class>
1

>  <MW>
418.17

>  <nHBAcc>
8

>  <nHBDon>
1

>  <SLogP>
2.97

>  <TopoPSA>
117

>  <MMFF94 Energy>
60.015

$$$$
FCC(Cl)(Cl)Cl
Actelion Java MolfileCreator 2.0

  0  0  0  0  0  0              0 V3000
M  V30 BEGIN CTAB
M  V30 COUNTS 8 7 0 0 0
M  V30 BEGIN ATOM
M  V30 1 Cl 0.9337 -1.6812 1.0272 0
M  V30 2 C 0.0767 -0.6993 -0.1987 0
M  V30 3 Cl 0.9799 -0.8031 -1.745 0
M  V30 4 Cl -1.5606 -1.3755 -0.45 0
M  V30 5 C -0.0062 0.7617 0.2436 0
M  V30 6 F -0.6873 0.8819 1.4183 0
M  V30 7 H -0.5264 1.3779 -0.4977 0
M  V30 8 H 0.9888 1.1923 0.3997 0
M  V30 END ATOM
M  V30 BEGIN BOND
M  V30 1 1 1 2
M  V30 2 1 2 3
M  V30 3 1 2 4
M  V30 4 1 2 5
M  V30 5 1 5 6
M  V30 6 1 5 7
M  V30 7 1 5 8
M  V30 END BOND
M  V30 END CTAB
M  END
>  <NO.>
600

>  <Name>
1,1,1-trichloro-2-fluoroethane

>  <SMILES>
FCC(Cl)(Cl)Cl

>  <logBB>
0.08

>  <Class>
1

>  <MW>
149.92

>  <nHBAcc>
0

>  <nHBDon>
0

>  <SLogP>
2.33

>  <TopoPSA>
0

>  <MMFF94 Energy>
25.14

$$$$
CCCC1(CC)C(=O)NC(=O)NC1=O
Actelion Java MolfileCreator 2.0

  0  0  0  0  0  0              0 V3000
M  V30 BEGIN CTAB
M  V30 COUNTS 28 28 0 0 0
M  V30 BEGIN ATOM
M  V30 1 O 3.9172 1.4088 -0.3129 0
M  V30 2 C 2.7478 1.1251 -0.0777 0
M  V30 3 N 2.4029 -0.0507 0.5085 0
M  V30 4 N 1.7359 1.9918 -0.3442 0
M  V30 5 C 1.1412 -0.4318 0.8677 0
M  V30 6 C 0.4081 1.7868 -0.0957 0
M  V30 7 O 0.9826 -1.4119 1.5929 0
M  V30 8 C -0.0087 0.3672 0.2701 0
M  V30 9 O -0.392 2.7081 -0.2491 0
M  V30 10 C -0.3931 -0.2966 -1.0893 0
M  V30 11 C -1.2123 0.4018 1.2432 0
M  V30 12 C -1.0287 -1.6895 -0.9998 0
M  V30 13 C -0.9366 1.1339 2.5559 0
M  V30 14 C -1.2936 -2.2632 -2.385 0
M  V30 15 H 3.1633 -0.6438 0.8106 0
M  V30 16 H 2.0007 2.9049 -0.6872 0
M  V30 17 H -1.0906 0.3617 -1.6263 0
M  V30 18 H 0.5003 -0.3634 -1.726 0
M  V30 19 H -2.0726 0.8792 0.7567 0
M  V30 20 H -1.5247 -0.6171 1.501 0
M  V30 21 H -0.3739 -2.3778 -0.4563 0
M  V30 22 H -1.98 -1.6411 -0.4598 0
M  V30 23 H -0.1107 0.6746 3.107 0
M  V30 24 H -0.6958 2.1879 2.3909 0
M  V30 25 H -1.8248 1.0949 3.1953 0
M  V30 26 H -1.7527 -3.2534 -2.3031 0
M  V30 27 H -1.973 -1.6196 -2.953 0
M  V30 28 H -0.3627 -2.3665 -2.9516 0
M  V30 END ATOM
M  V30 BEGIN BOND
M  V30 1 2 1 2
M  V30 2 1 2 3
M  V30 3 1 2 4
M  V30 4 1 3 5
M  V30 5 1 4 6
M  V30 6 2 5 7
M  V30 7 1 5 8
M  V30 8 2 6 9
M  V30 9 1 8 10
M  V30 10 1 8 11
M  V30 11 1 10 12
M  V30 12 1 11 13
M  V30 13 1 12 14
M  V30 14 1 6 8
M  V30 15 1 3 15
M  V30 16 1 4 16
M  V30 17 1 10 17
M  V30 18 1 10 18
M  V30 19 1 11 19
M  V30 20 1 11 20
M  V30 21 1 12 21
M  V30 22 1 12 22
M  V30 23 1 13 23
M  V30 24 1 13 24
M  V30 25 1 13 25
M  V30 26 1 14 26
M  V30 27 1 14 27
M  V30 28 1 14 28
M  V30 END BOND
M  V30 END CTAB
M  END
>  <NO.>
601

>  <Name>
5-propyl-5-ethyl barbituric acid (5-ethyl-5-propyl-1,3-diazinane-2,4,6-trione)

>  <SMILES>
CCCC1(CC)C(=O)NC(=O)NC1=O

>  <logBB>
0.09

>  <Class>
1

>  <MW>
198.1

>  <nHBAcc>
3

>  <nHBDon>
2

>  <SLogP>
0.55

>  <TopoPSA>
75.27

>  <MMFF94 Energy>
-128.34

$$$$
CCCCCC1(CC)C(=O)NC(=O)NC1=O
Actelion Java MolfileCreator 2.0

  0  0  0  0  0  0              0 V3000
M  V30 BEGIN CTAB
M  V30 COUNTS 34 34 0 0 0
M  V30 BEGIN ATOM
M  V30 1 O 4.1478 3.0509 1.8766 0
M  V30 2 C 3.2069 2.4321 1.3922 0
M  V30 3 N 3.0809 1.0879 1.5445 0
M  V30 4 N 2.2711 3.0431 0.6199 0
M  V30 5 C 2.1076 0.3038 0.9883 0
M  V30 6 C 1.2331 2.424 -0.0184 0
M  V30 7 O 2.2508 -0.9159 0.9801 0
M  V30 8 C 0.8572 1.0284 0.4856 0
M  V30 9 O 0.6211 3.0224 -0.9009 0
M  V30 10 C 0.2026 0.2327 -0.6789 0
M  V30 11 C -0.0729 1.2095 1.7187 0
M  V30 12 C -0.5416 -1.0583 -0.3015 0
M  V30 13 C -1.3954 1.9178 1.4411 0
M  V30 14 C -1.0782 -1.7656 -1.5504 0
M  V30 15 C -1.8273 -3.0472 -1.1854 0
M  V30 16 C -2.3612 -3.7517 -2.4223 0
M  V30 17 H 3.8483 0.6121 1.9983 0
M  V30 18 H 2.4405 4.012 0.388 0
M  V30 19 H 0.9826 -0.0129 -1.4131 0
M  V30 20 H -0.51 0.8745 -1.2134 0
M  V30 21 H -0.2856 0.2312 2.1687 0
M  V30 22 H 0.4477 1.7782 2.5013 0
M  V30 23 H -1.3825 -0.8325 0.3622 0
M  V30 24 H 0.1162 -1.745 0.2384 0
M  V30 25 H -1.986 1.4052 0.6778 0
M  V30 26 H -1.2358 2.9505 1.1171 0
M  V30 27 H -1.9956 1.9518 2.3565 0
M  V30 28 H -0.2456 -2.0062 -2.2225 0
M  V30 29 H -1.7498 -1.0907 -2.0951 0
M  V30 30 H -1.1596 -3.7276 -0.6441 0
M  V30 31 H -2.6634 -2.8124 -0.5163 0
M  V30 32 H -2.8931 -4.6651 -2.1383 0
M  V30 33 H -3.0582 -3.109 -2.9696 0
M  V30 34 H -1.5461 -4.0292 -3.0982 0
M  V30 END ATOM
M  V30 BEGIN BOND
M  V30 1 2 1 2
M  V30 2 1 2 3
M  V30 3 1 2 4
M  V30 4 1 3 5
M  V30 5 1 4 6
M  V30 6 2 5 7
M  V30 7 1 5 8
M  V30 8 2 6 9
M  V30 9 1 8 10
M  V30 10 1 8 11
M  V30 11 1 10 12
M  V30 12 1 11 13
M  V30 13 1 12 14
M  V30 14 1 14 15
M  V30 15 1 15 16
M  V30 16 1 6 8
M  V30 17 1 3 17
M  V30 18 1 4 18
M  V30 19 1 10 19
M  V30 20 1 10 20
M  V30 21 1 11 21
M  V30 22 1 11 22
M  V30 23 1 12 23
M  V30 24 1 12 24
M  V30 25 1 13 25
M  V30 26 1 13 26
M  V30 27 1 13 27
M  V30 28 1 14 28
M  V30 29 1 14 29
M  V30 30 1 15 30
M  V30 31 1 15 31
M  V30 32 1 16 32
M  V30 33 1 16 33
M  V30 34 1 16 34
M  V30 END BOND
M  V30 END CTAB
M  END
>  <NO.>
602

>  <Name>
5-ethyl-5-pentylbarbituric acid

>  <SMILES>
CCCCCC1(CC)C(=O)NC(=O)NC1=O

>  <logBB>
0.09

>  <Class>
1

>  <MW>
226.13

>  <nHBAcc>
3

>  <nHBDon>
2

>  <SLogP>
1.33

>  <TopoPSA>
75.27

>  <MMFF94 Energy>
-126.55

$$$$
CCN(CC)CCCC(=O)c1cc(Cl)c(N)cc1OC
Actelion Java MolfileCreator 2.0

  0  0  0  0  0  0              0 V3000
M  V30 BEGIN CTAB
M  V30 COUNTS 43 43 0 0 0
M  V30 BEGIN ATOM
M  V30 1 Cl -1.1802 2.6766 2.8343 0
M  V30 2 C 0.2041 2.4392 1.8225 0
M  V30 3 C 0.8981 3.5417 1.2883 0
M  V30 4 C 0.6057 1.1283 1.5536 0
M  V30 5 N 0.481 4.8497 1.5015 0
M  V30 6 C 1.9924 3.2949 0.4532 0
M  V30 7 C 1.7119 0.9009 0.7303 0
M  V30 8 C 2.4116 1.9855 0.1926 0
M  V30 9 C 2.1294 -0.4912 0.4319 0
M  V30 10 O 3.4367 1.7887 -0.6945 0
M  V30 11 O 3.2926 -0.8332 0.6297 0
M  V30 12 C 1.0766 -1.4632 -0.0606 0
M  V30 13 C 4.6979 1.9838 -0.0507 0
M  V30 14 C 0.4626 -1.0192 -1.389 0
M  V30 15 C -0.7522 -1.8701 -1.7834 0
M  V30 16 N -1.8415 -1.7915 -0.7876 0
M  V30 17 C -2.7414 -2.956 -0.9051 0
M  V30 18 C -2.598 -0.5319 -0.9359 0
M  V30 19 C -2.1425 -4.205 -0.2642 0
M  V30 20 C -3.3395 -0.1618 0.3456 0
M  V30 21 H 0.0568 0.2984 1.99 0
M  V30 22 H -0.2774 5.0187 2.1535 0
M  V30 23 H 1.0376 5.6351 1.1943 0
M  V30 24 H 2.5175 4.1226 -0.0159 0
M  V30 25 H 1.5545 -2.4418 -0.1925 0
M  V30 26 H 0.3271 -1.5908 0.7265 0
M  V30 27 H 4.8832 3.0507 0.1132 0
M  V30 28 H 5.4767 1.6026 -0.7177 0
M  V30 29 H 4.7649 1.4394 0.8978 0
M  V30 30 H 0.1919 0.0409 -1.365 0
M  V30 31 H 1.2238 -1.1069 -2.1751 0
M  V30 32 H -1.1122 -1.5699 -2.7762 0
M  V30 33 H -0.3924 -2.8996 -1.8897 0
M  V30 34 H -3.6859 -2.7687 -0.3826 0
M  V30 35 H -3.001 -3.1522 -1.9531 0
M  V30 36 H -1.9226 0.3039 -1.1473 0
M  V30 37 H -3.2969 -0.5852 -1.7802 0
M  V30 38 H -2.8758 -5.0183 -0.2798 0
M  V30 39 H -1.8734 -4.0183 0.781 0
M  V30 40 H -1.2514 -4.5578 -0.7905 0
M  V30 41 H -3.7996 0.826 0.2367 0
M  V30 42 H -2.6524 -0.1174 1.1974 0
M  V30 43 H -4.1375 -0.8704 0.5845 0
M  V30 END ATOM
M  V30 BEGIN BOND
M  V30 1 1 1 2
M  V30 2 2 2 3
M  V30 3 1 2 4
M  V30 4 1 3 5
M  V30 5 1 3 6
M  V30 6 2 4 7
M  V30 7 2 6 8
M  V30 8 1 7 9
M  V30 9 1 8 10
M  V30 10 2 9 11
M  V30 11 1 9 12
M  V30 12 1 10 13
M  V30 13 1 12 14
M  V30 14 1 14 15
M  V30 15 1 15 16
M  V30 16 1 16 17
M  V30 17 1 16 18
M  V30 18 1 17 19
M  V30 19 1 18 20
M  V30 20 1 7 8
M  V30 21 1 4 21
M  V30 22 1 5 22
M  V30 23 1 5 23
M  V30 24 1 6 24
M  V30 25 1 12 25
M  V30 26 1 12 26
M  V30 27 1 13 27
M  V30 28 1 13 28
M  V30 29 1 13 29
M  V30 30 1 14 30
M  V30 31 1 14 31
M  V30 32 1 15 32
M  V30 33 1 15 33
M  V30 34 1 17 34
M  V30 35 1 17 35
M  V30 36 1 18 36
M  V30 37 1 18 37
M  V30 38 1 19 38
M  V30 39 1 19 39
M  V30 40 1 19 40
M  V30 41 1 20 41
M  V30 42 1 20 42
M  V30 43 1 20 43
M  V30 END BOND
M  V30 END CTAB
M  END
>  <NO.>
603

>  <Name>
1-(4-amino-5-chloro-2-methoxyphenyl)-4-(diethylamino)butan-1-one

>  <SMILES>
CCN(CC)CCCC(=O)c1cc(Cl)c(N)cc1OC

>  <logBB>
0.09

>  <Class>
1

>  <MW>
298.14

>  <nHBAcc>
4

>  <nHBDon>
1

>  <SLogP>
3.24

>  <TopoPSA>
55.56

>  <MMFF94 Energy>
56.039

$$$$
COc1ccccc1N1CCN(CCN(C(=O)c2ccc(F)cc2)c2ccccn2)CC1
Actelion Java MolfileCreator 2.0

  0  0  0  0  0  0              0 V3000
M  V30 BEGIN CTAB
M  V30 COUNTS 59 62 0 0 0
M  V30 BEGIN ATOM
M  V30 1 F 3.9925 -0.8773 -3.4328 0
M  V30 2 C 3.2852 -1.6248 -2.576 0
M  V30 3 C 3.8729 -2.0358 -1.3821 0
M  V30 4 C 1.9781 -1.9812 -2.8975 0
M  V30 5 C 3.1382 -2.811 -0.4843 0
M  V30 6 C 1.2375 -2.7565 -2.005 0
M  V30 7 C 1.8139 -3.1483 -0.7911 0
M  V30 8 C 1.0274 -3.9829 0.1406 0
M  V30 9 O 0.8321 -5.1407 -0.2224 0
M  V30 10 N 0.5653 -3.4001 1.3232 0
M  V30 11 C -0.1552 -4.1771 2.2762 0
M  V30 12 C 0.6227 -1.9502 1.5962 0
M  V30 13 N -1.1723 -3.5742 2.9371 0
M  V30 14 C 0.2191 -5.4888 2.5612 0
M  V30 15 C -0.541 -1.1741 0.9416 0
M  V30 16 C -1.8438 -4.2953 3.8626 0
M  V30 17 C -0.4871 -6.2103 3.5229 0
M  V30 18 N -0.3488 0.2918 0.9606 0
M  V30 19 C -1.5433 -5.6047 4.1869 0
M  V30 20 C 0.6236 0.7299 -0.0715 0
M  V30 21 C -1.6444 0.9697 0.6956 0
M  V30 22 C 0.7999 2.2662 -0.1266 0
M  V30 23 C -1.5338 2.511 0.6477 0
M  V30 24 N -0.4967 2.9275 -0.3148 0
M  V30 25 C -0.5645 4.2458 -0.7654 0
M  V30 26 C -1.6798 4.7385 -1.4805 0
M  V30 27 C 0.4716 5.1608 -0.5115 0
M  V30 28 O -2.7435 3.9426 -1.8449 0
M  V30 29 C -1.7804 6.0833 -1.8566 0
M  V30 30 C 0.3877 6.5011 -0.9103 0
M  V30 31 C -2.3529 3.0249 -2.8668 0
M  V30 32 C -0.7424 6.9646 -1.575 0
M  V30 33 H 4.8993 -1.7561 -1.1652 0
M  V30 34 H 1.5501 -1.6607 -3.8424 0
M  V30 35 H 3.593 -3.1503 0.4429 0
M  V30 36 H 0.2217 -3.0567 -2.2521 0
M  V30 37 H 1.5821 -1.5726 1.2393 0
M  V30 38 H 0.6345 -1.7775 2.6806 0
M  V30 39 H 1.0526 -5.9613 2.0524 0
M  V30 40 H -0.7164 -1.5233 -0.0832 0
M  V30 41 H -1.4525 -1.4211 1.4997 0
M  V30 42 H -2.6581 -3.7706 4.3543 0
M  V30 43 H -0.2103 -7.2367 3.7459 0
M  V30 44 H -2.1152 -6.1377 4.9378 0
M  V30 45 H 1.6083 0.2953 0.1278 0
M  V30 46 H 0.3043 0.3784 -1.062 0
M  V30 47 H -2.0646 0.6158 -0.2556 0
M  V30 48 H -2.3587 0.7094 1.4863 0
M  V30 49 H 1.4748 2.5006 -0.959 0
M  V30 50 H 1.2688 2.6124 0.8031 0
M  V30 51 H -1.2717 2.8915 1.6437 0
M  V30 52 H -2.5218 2.913 0.4008 0
M  V30 53 H 1.3565 4.8523 0.0373 0
M  V30 54 H -2.6645 6.4317 -2.3827 0
M  V30 55 H 1.2034 7.1831 -0.6846 0
M  V30 56 H -1.7174 3.4963 -3.6258 0
M  V30 57 H -3.2637 2.6773 -3.3641 0
M  V30 58 H -1.8543 2.1493 -2.4421 0
M  V30 59 H -0.8141 8.0065 -1.8742 0
M  V30 END ATOM
M  V30 BEGIN BOND
M  V30 1 1 1 2
M  V30 2 2 2 3
M  V30 3 1 2 4
M  V30 4 1 3 5
M  V30 5 2 4 6
M  V30 6 2 5 7
M  V30 7 1 7 8
M  V30 8 2 8 9
M  V30 9 1 8 10
M  V30 10 1 10 11
M  V30 11 1 10 12
M  V30 12 2 11 13
M  V30 13 1 11 14
M  V30 14 1 12 15
M  V30 15 1 13 16
M  V30 16 2 14 17
M  V30 17 1 15 18
M  V30 18 2 16 19
M  V30 19 1 18 20
M  V30 20 1 18 21
M  V30 21 1 20 22
M  V30 22 1 21 23
M  V30 23 1 22 24
M  V30 24 1 24 25
M  V30 25 2 25 26
M  V30 26 1 25 27
M  V30 27 1 26 28
M  V30 28 1 26 29
M  V30 29 2 27 30
M  V30 30 1 28 31
M  V30 31 2 29 32
M  V30 32 1 6 7
M  V30 33 1 17 19
M  V30 34 1 23 24
M  V30 35 1 30 32
M  V30 36 1 3 33
M  V30 37 1 4 34
M  V30 38 1 5 35
M  V30 39 1 6 36
M  V30 40 1 12 37
M  V30 41 1 12 38
M  V30 42 1 14 39
M  V30 43 1 15 40
M  V30 44 1 15 41
M  V30 45 1 16 42
M  V30 46 1 17 43
M  V30 47 1 19 44
M  V30 48 1 20 45
M  V30 49 1 20 46
M  V30 50 1 21 47
M  V30 51 1 21 48
M  V30 52 1 22 49
M  V30 53 1 22 50
M  V30 54 1 23 51
M  V30 55 1 23 52
M  V30 56 1 27 53
M  V30 57 1 29 54
M  V30 58 1 30 55
M  V30 59 1 31 56
M  V30 60 1 31 57
M  V30 61 1 31 58
M  V30 62 1 32 59
M  V30 END BOND
M  V30 END CTAB
M  END
>  <NO.>
604

>  <Name>
mppf

>  <SMILES>
COc1ccccc1N1CCN(CCN(C(=O)c2ccc(F)cc2)c2ccccn2)CC1

>  <logBB>
0.09

>  <Class>
1

>  <MW>
434.21

>  <nHBAcc>
5

>  <nHBDon>
0

>  <SLogP>
3.7

>  <TopoPSA>
48.91

>  <MMFF94 Energy>
153.75

$$$$
O=C(O)c1ccccc1C(=O)OC1CCc2ccccc2C1
Actelion Java MolfileCreator 2.0

  0  0  0  0  0  0              0 V3000
M  V30 BEGIN CTAB
M  V30 COUNTS 38 40 0 0 0
M  V30 BEGIN ATOM
M  V30 1 O 1.1222 -0.8816 -2.406 0
M  V30 2 C 1.1615 0.1263 -1.7219 0
M  V30 3 O 0.3806 0.4277 -0.6565 0
M  V30 4 C 1.9988 1.2968 -2.0415 0
M  V30 5 C -0.5448 -0.5993 -0.2505 0 CFG=2
M  V30 6 C 2.8018 1.9443 -1.0949 0
M  V30 7 C 1.9422 1.7758 -3.3593 0
M  V30 8 C -1.66 0.0762 0.5558 0
M  V30 9 C 0.1643 -1.6343 0.6218 0
M  V30 10 C 2.9755 1.3926 0.2648 0
M  V30 11 C 3.5174 3.0934 -1.4691 0
M  V30 12 C 2.661 2.915 -3.7232 0
M  V30 13 C -2.5381 -0.8963 1.302 0
M  V30 14 C -0.8041 -2.739 1.0299 0
M  V30 15 O 2.9792 0.2182 0.5757 0
M  V30 16 O 3.1432 2.3648 1.1793 0
M  V30 17 C 3.4413 3.5776 -2.7772 0
M  V30 18 C -2.1172 -2.2138 1.5574 0
M  V30 19 C -3.7761 -0.4596 1.7967 0
M  V30 20 C -2.9597 -3.079 2.271 0
M  V30 21 C -4.5998 -1.3265 2.5139 0
M  V30 22 C -4.1929 -2.6365 2.7487 0
M  V30 23 H -0.9865 -1.0796 -1.1343 0
M  V30 24 H 1.3295 1.2653 -4.1005 0
M  V30 25 H -2.2665 0.6832 -0.1285 0
M  V30 26 H -1.222 0.7756 1.2805 0
M  V30 27 H 0.5775 -1.1427 1.5128 0
M  V30 28 H 1.0226 -2.0687 0.097 0
M  V30 29 H 4.1514 3.607 -0.749 0
M  V30 30 H 2.6105 3.2864 -4.7444 0
M  V30 31 H -1.0162 -3.3748 0.1614 0
M  V30 32 H -0.3224 -3.3657 1.7899 0
M  V30 33 H 3.2266 1.8802 2.0278 0
M  V30 34 H 4.0022 4.4656 -3.0608 0
M  V30 35 H -4.1053 0.5626 1.6236 0
M  V30 36 H -2.6559 -4.1066 2.4585 0
M  V30 37 H -5.5588 -0.9794 2.8889 0
M  V30 38 H -4.8353 -3.3148 3.3037 0
M  V30 END ATOM
M  V30 BEGIN BOND
M  V30 1 2 1 2
M  V30 2 1 2 3
M  V30 3 1 2 4
M  V30 4 1 3 5
M  V30 5 2 4 6
M  V30 6 1 4 7
M  V30 7 1 5 8
M  V30 8 1 5 9
M  V30 9 1 6 10
M  V30 10 1 6 11
M  V30 11 2 7 12
M  V30 12 1 8 13
M  V30 13 1 9 14
M  V30 14 2 10 15
M  V30 15 1 10 16
M  V30 16 2 11 17
M  V30 17 2 13 18
M  V30 18 1 13 19
M  V30 19 1 18 20
M  V30 20 2 19 21
M  V30 21 2 20 22
M  V30 22 1 12 17
M  V30 23 1 14 18
M  V30 24 1 21 22
M  V30 25 1 5 23
M  V30 26 1 7 24
M  V30 27 1 8 25
M  V30 28 1 8 26
M  V30 29 1 9 27
M  V30 30 1 9 28
M  V30 31 1 11 29
M  V30 32 1 12 30
M  V30 33 1 14 31
M  V30 34 1 14 32
M  V30 35 1 16 33
M  V30 36 1 17 34
M  V30 37 1 19 35
M  V30 38 1 20 36
M  V30 39 1 21 37
M  V30 40 1 22 38
M  V30 END BOND
M  V30 BEGIN COLLECTION
M  V30 MDLV30/STERAC1 ATOMS=(1 5)
M  V30 END COLLECTION
M  V30 END CTAB
M  END
>  <NO.>
605

>  <Name>
8/7/61

>  <SMILES>
O=C(O)c1ccccc1C(=O)OC1CCc2ccccc2C1

>  <logBB>
0.09

>  <Class>
1

>  <MW>
296.1

>  <nHBAcc>
3

>  <nHBDon>
1

>  <SLogP>
3.1

>  <TopoPSA>
63.6

>  <MMFF94 Energy>
30.812

$$$$
CN1C(=O)NC(=O)C(C)(C2=CCCCC2)C1=O
Actelion Java MolfileCreator 2.0

  0  0  0  0  0  0              0 V3000
M  V30 BEGIN CTAB
M  V30 COUNTS 33 34 0 0 0
M  V30 BEGIN ATOM
M  V30 1 O -2.6227 2.9409 -1.3504 0
M  V30 2 C -2.2028 1.8391 -1.0026 0
M  V30 3 N -1.66 0.9106 -1.863 0
M  V30 4 N -2.3159 1.4735 0.3027 0
M  V30 5 C -1.1914 -0.3407 -1.479 0
M  V30 6 C -1.6444 1.2124 -3.2841 0
M  V30 7 C -1.9243 0.2961 0.8669 0
M  V30 8 O -0.8683 -1.1896 -2.3164 0
M  V30 9 C -1.0227 -0.5946 0.0263 0 CFG=2
M  V30 10 O -2.27 0.0353 2.0193 0
M  V30 11 C 0.4364 -0.3205 0.4837 0
M  V30 12 C -1.426 -2.0661 0.265 0
M  V30 13 C 1.3122 0.4499 -0.199 0
M  V30 14 C 0.8706 -0.9682 1.7931 0
M  V30 15 C 2.7369 0.701 0.2126 0
M  V30 16 C 2.1553 -0.3886 2.3902 0
M  V30 17 C 3.2242 -0.2258 1.3212 0
M  V30 18 H -2.8155 2.1166 0.9007 0
M  V30 19 H -2.4153 0.6085 -3.774 0
M  V30 20 H -1.8372 2.269 -3.487 0
M  V30 21 H -0.672 0.9406 -3.7074 0
M  V30 22 H -0.7227 -2.7592 -0.2117 0
M  V30 23 H -2.4202 -2.2684 -0.153 0
M  V30 24 H -1.4759 -2.3235 1.3289 0
M  V30 25 H 1.0334 0.9437 -1.1263 0
M  V30 26 H 0.0845 -0.8717 2.5491 0
M  V30 27 H 1.019 -2.0407 1.6155 0
M  V30 28 H 2.8186 1.7444 0.5406 0
M  V30 29 H 3.3911 0.5883 -0.6594 0
M  V30 30 H 1.9424 0.5852 2.8495 0
M  V30 31 H 2.5184 -1.0451 3.189 0
M  V30 32 H 4.1443 0.174 1.7617 0
M  V30 33 H 3.4728 -1.208 0.8997 0
M  V30 END ATOM
M  V30 BEGIN BOND
M  V30 1 2 1 2
M  V30 2 1 2 3
M  V30 3 1 2 4
M  V30 4 1 3 5
M  V30 5 1 3 6
M  V30 6 1 4 7
M  V30 7 2 5 8
M  V30 8 1 5 9
M  V30 9 2 7 10
M  V30 10 1 9 11
M  V30 11 1 9 12
M  V30 12 2 11 13
M  V30 13 1 11 14
M  V30 14 1 13 15
M  V30 15 1 14 16
M  V30 16 1 15 17
M  V30 17 1 7 9
M  V30 18 1 16 17
M  V30 19 1 4 18
M  V30 20 1 6 19
M  V30 21 1 6 20
M  V30 22 1 6 21
M  V30 23 1 12 22
M  V30 24 1 12 23
M  V30 25 1 12 24
M  V30 26 1 13 25
M  V30 27 1 14 26
M  V30 28 1 14 27
M  V30 29 1 15 28
M  V30 30 1 15 29
M  V30 31 1 16 30
M  V30 32 1 16 31
M  V30 33 1 17 32
M  V30 34 1 17 33
M  V30 END BOND
M  V30 BEGIN COLLECTION
M  V30 MDLV30/STERAC1 ATOMS=(1 9)
M  V30 END COLLECTION
M  V30 END CTAB
M  END
>  <NO.>
606

>  <Name>
56-29-1

>  <SMILES>
CN1C(=O)NC(=O)C(C)(C2=CCCCC2)C1=O

>  <logBB>
0.1

>  <Class>
1

>  <MW>
236.12

>  <nHBAcc>
3

>  <nHBDon>
1

>  <SLogP>
1.2

>  <TopoPSA>
66.48

>  <MMFF94 Energy>
-73.046

$$$$
C1CC1
Actelion Java MolfileCreator 2.0

  0  0  0  0  0  0              0 V3000
M  V30 BEGIN CTAB
M  V30 COUNTS 9 9 0 0 0
M  V30 BEGIN ATOM
M  V30 1 C 0.4588 -0.3058 0.6883 0
M  V30 2 C 0.4132 0.0162 -0.7782 0
M  V30 3 C -0.7838 0.2872 0.0877 0
M  V30 4 H 1.0649 0.3241 1.3291 0
M  V30 5 H 0.4344 -1.3491 0.9812 0
M  V30 6 H 0.358 -0.8088 -1.4788 0
M  V30 7 H 0.9885 0.8644 -1.1309 0
M  V30 8 H -1.6501 -0.3542 -0.0261 0
M  V30 9 H -1.0196 1.319 0.3217 0
M  V30 END ATOM
M  V30 BEGIN BOND
M  V30 1 1 1 2
M  V30 2 1 1 3
M  V30 3 1 2 3
M  V30 4 1 1 4
M  V30 5 1 1 5
M  V30 6 1 2 6
M  V30 7 1 2 7
M  V30 8 1 3 8
M  V30 9 1 3 9
M  V30 END BOND
M  V30 END CTAB
M  END
>  <NO.>
607

>  <Name>
cyclopropane (trimethylene)

>  <SMILES>
C1CC1

>  <logBB>
0.1

>  <Class>
1

>  <MW>
42.05

>  <nHBAcc>
0

>  <nHBDon>
0

>  <SLogP>
1.17

>  <TopoPSA>
0

>  <MMFF94 Energy>
15.551

$$$$
C=COC=C
Actelion Java MolfileCreator 2.0

  0  0  0  0  0  0              0 V3000
M  V30 BEGIN CTAB
M  V30 COUNTS 11 10 0 0 0
M  V30 BEGIN ATOM
M  V30 1 O -0.2234 0.7451 -0.447 0
M  V30 2 C -0.5715 0.306 0.8044 0
M  V30 3 C 0.8741 0.2282 -1.0894 0
M  V30 4 C -1.7333 0.6384 1.3704 0
M  V30 5 C 1.3387 -1.0251 -1.0317 0
M  V30 6 H 0.1697 -0.2993 1.3065 0
M  V30 7 H 1.3108 0.9864 -1.7288 0
M  V30 8 H -1.9863 0.2949 2.3669 0
M  V30 9 H -2.4502 1.26 0.8447 0
M  V30 10 H 0.8619 -1.7898 -0.4294 0
M  V30 11 H 2.2052 -1.315 -1.6164 0
M  V30 END ATOM
M  V30 BEGIN BOND
M  V30 1 1 1 2
M  V30 2 1 1 3
M  V30 3 2 2 4
M  V30 4 2 3 5
M  V30 5 1 2 6
M  V30 6 1 3 7
M  V30 7 1 4 8
M  V30 8 1 4 9
M  V30 9 1 5 10
M  V30 10 1 5 11
M  V30 END BOND
M  V30 END CTAB
M  END
>  <NO.>
608

>  <Name>
divinylether

>  <SMILES>
C=COC=C

>  <logBB>
0.1

>  <Class>
1

>  <MW>
70.04

>  <nHBAcc>
1

>  <nHBDon>
0

>  <SLogP>
1.29

>  <TopoPSA>
9.23

>  <MMFF94 Energy>
9.74

$$$$
CCCC(C)C1(CC)C(=O)NC(=O)NC1=O
Actelion Java MolfileCreator 2.0

  0  0  0  0  0  0              0 V3000
M  V30 BEGIN CTAB
M  V30 COUNTS 34 34 0 0 0
M  V30 BEGIN ATOM
M  V30 1 O -3.7599 1.4086 -2.3486 0
M  V30 2 C -2.8667 0.9428 -1.65 0
M  V30 3 N -2.4596 1.5557 -0.5098 0
M  V30 4 N -2.1999 -0.1855 -2.003 0
M  V30 5 C -1.4362 1.153 0.2988 0
M  V30 6 C -1.175 -0.7737 -1.3167 0
M  V30 7 O -1.0214 1.9156 1.1705 0
M  V30 8 C -0.9169 -0.2751 0.1063 0
M  V30 9 O -0.5757 -1.7148 -1.8322 0
M  V30 10 C 0.6163 -0.319 0.4649 0 CFG=2
M  V30 11 C -1.8035 -1.183 1.0173 0
M  V30 12 C 1.4591 0.5206 -0.5356 0
M  V30 13 C 1.202 -1.7349 0.6052 0
M  V30 14 C -1.6614 -0.9621 2.5203 0
M  V30 15 C 2.9 0.7592 -0.0716 0
M  V30 16 C 3.6391 1.6931 -1.0186 0
M  V30 17 H -2.8758 2.4541 -0.3072 0
M  V30 18 H -2.4353 -0.5869 -2.9001 0
M  V30 19 H 0.7368 0.154 1.4494 0
M  V30 20 H -1.6025 -2.24 0.8006 0
M  V30 21 H -2.8629 -1.0381 0.7625 0
M  V30 22 H 1.4801 0.0282 -1.5153 0
M  V30 23 H 0.9851 1.4972 -0.6883 0
M  V30 24 H 1.3241 -2.2282 -0.3626 0
M  V30 25 H 2.1902 -1.6968 1.0755 0
M  V30 26 H 0.59 -2.3785 1.2412 0
M  V30 27 H -2.3154 -1.6571 3.0577 0
M  V30 28 H -0.6406 -1.1387 2.8681 0
M  V30 29 H -1.9558 0.0507 2.8087 0
M  V30 30 H 2.901 1.1949 0.934 0
M  V30 31 H 3.4479 -0.1871 -0.0209 0
M  V30 32 H 4.6666 1.8465 -0.6739 0
M  V30 33 H 3.6782 1.2754 -2.0296 0
M  V30 34 H 3.1488 2.6706 -1.0686 0
M  V30 END ATOM
M  V30 BEGIN BOND
M  V30 1 2 1 2
M  V30 2 1 2 3
M  V30 3 1 2 4
M  V30 4 1 3 5
M  V30 5 1 4 6
M  V30 6 2 5 7
M  V30 7 1 5 8
M  V30 8 2 6 9
M  V30 9 1 8 10
M  V30 10 1 8 11
M  V30 11 1 10 12
M  V30 12 1 10 13
M  V30 13 1 11 14
M  V30 14 1 12 15
M  V30 15 1 15 16
M  V30 16 1 6 8
M  V30 17 1 3 17
M  V30 18 1 4 18
M  V30 19 1 10 19
M  V30 20 1 11 20
M  V30 21 1 11 21
M  V30 22 1 12 22
M  V30 23 1 12 23
M  V30 24 1 13 24
M  V30 25 1 13 25
M  V30 26 1 13 26
M  V30 27 1 14 27
M  V30 28 1 14 28
M  V30 29 1 14 29
M  V30 30 1 15 30
M  V30 31 1 15 31
M  V30 32 1 16 32
M  V30 33 1 16 33
M  V30 34 1 16 34
M  V30 END BOND
M  V30 BEGIN COLLECTION
M  V30 MDLV30/STERAC1 ATOMS=(1 10)
M  V30 END COLLECTION
M  V30 END CTAB
M  END
>  <NO.>
609

>  <Name>
pentobarbital

>  <SMILES>
CCCC(C)C1(CC)C(=O)NC(=O)NC1=O

>  <logBB>
0.1

>  <Class>
1

>  <MW>
226.13

>  <nHBAcc>
3

>  <nHBDon>
2

>  <SLogP>
1.18

>  <TopoPSA>
75.27

>  <MMFF94 Energy>
-120.2

$$$$
CN1C(=O)CN=C(c2ccccc2F)c2cc([N+](=O)[O-])ccc21
Actelion Java MolfileCreator 2.0

  0  0  0  0  0  0              0 V3000
M  V30 BEGIN CTAB
M  V30 COUNTS 35 37 0 0 0
M  V30 BEGIN ATOM
M  V30 1 F -2.3498 -2.8365 0.2428 0
M  V30 2 C -2.7959 -1.5833 0.0756 0
M  V30 3 C -1.9276 -0.5555 -0.2893 0
M  V30 4 C -4.1386 -1.3125 0.3235 0
M  V30 5 C -0.499 -0.8487 -0.5525 0
M  V30 6 C -2.4021 0.7549 -0.4153 0
M  V30 7 C -4.6166 -0.0066 0.2008 0
M  V30 8 N -0.2265 -1.6707 -1.5079 0
M  V30 9 C 0.5181 -0.1654 0.2961 0
M  V30 10 C -3.7499 1.0253 -0.1682 0
M  V30 11 C 1.1789 -1.9561 -1.8058 0
M  V30 12 C 1.6794 0.409 -0.256 0
M  V30 13 C 0.2929 -0.1227 1.6839 0
M  V30 14 C 1.8041 -0.7307 -2.459 0
M  V30 15 N 1.9539 0.4002 -1.6521 0
M  V30 16 C 2.6034 1.0241 0.6083 0
M  V30 17 C 1.2248 0.5014 2.5206 0
M  V30 18 O 2.1765 -0.7551 -3.6347 0
M  V30 19 C 2.4904 1.6052 -2.2677 0
M  V30 20 C 2.3818 1.0754 1.9878 0
M  V30 21 N 0.9873 0.5507 3.9693 0 CHG=1
M  V30 22 O -0.087 0.101 4.3903 0
M  V30 23 O 1.873 1.045 4.6802 0 CHG=-1
M  V30 24 H -4.803 -2.121 0.6132 0
M  V30 25 H -1.7396 1.5595 -0.7231 0
M  V30 26 H -5.6665 0.2064 0.3901 0
M  V30 27 H -4.1294 2.0397 -0.2717 0
M  V30 28 H 1.7466 -2.2714 -0.9234 0
M  V30 29 H 1.2211 -2.7848 -2.5209 0
M  V30 30 H -0.5939 -0.5912 2.1078 0
M  V30 31 H 3.5226 1.459 0.2197 0
M  V30 32 H 3.5824 1.5837 -2.1983 0
M  V30 33 H 2.2137 1.6545 -3.3255 0
M  V30 34 H 2.0963 2.4981 -1.7717 0
M  V30 35 H 3.1213 1.5575 2.6256 0
M  V30 END ATOM
M  V30 BEGIN BOND
M  V30 1 1 1 2
M  V30 2 2 2 3
M  V30 3 1 2 4
M  V30 4 1 3 5
M  V30 5 1 3 6
M  V30 6 2 4 7
M  V30 7 2 5 8
M  V30 8 1 5 9
M  V30 9 2 6 10
M  V30 10 1 8 11
M  V30 11 2 9 12
M  V30 12 1 9 13
M  V30 13 1 11 14
M  V30 14 1 12 15
M  V30 15 1 12 16
M  V30 16 2 13 17
M  V30 17 2 14 18
M  V30 18 1 15 19
M  V30 19 2 16 20
M  V30 20 1 17 21
M  V30 21 2 21 22
M  V30 22 1 21 23
M  V30 23 1 7 10
M  V30 24 1 14 15
M  V30 25 1 17 20
M  V30 26 1 4 24
M  V30 27 1 6 25
M  V30 28 1 7 26
M  V30 29 1 10 27
M  V30 30 1 11 28
M  V30 31 1 11 29
M  V30 32 1 13 30
M  V30 33 1 16 31
M  V30 34 1 19 32
M  V30 35 1 19 33
M  V30 36 1 19 34
M  V30 37 1 20 35
M  V30 END BOND
M  V30 END CTAB
M  END
>  <NO.>
610

>  <Name>
1622-62-4

>  <SMILES>
CN1C(=O)CN=C(c2ccccc2F)c2cc([N+](=O)[O-])ccc21

>  <logBB>
0.1

>  <Class>
1

>  <MW>
313.09

>  <nHBAcc>
4

>  <nHBDon>
0

>  <SLogP>
2.55

>  <TopoPSA>
75.81

>  <MMFF94 Energy>
141.52

$$$$
O=C(O)c1cc(O)ccc1O
Actelion Java MolfileCreator 2.0

  0  0  0  0  0  0              0 V3000
M  V30 BEGIN CTAB
M  V30 COUNTS 17 17 0 0 0
M  V30 BEGIN ATOM
M  V30 1 O 1.7275 2.2776 1.1776 0
M  V30 2 C 1.3479 1.7537 0.1431 0
M  V30 3 O 1.7124 2.2196 -1.0618 0
M  V30 4 C 0.4623 0.5713 0.0879 0
M  V30 5 C 0.0108 -0.0106 1.2821 0
M  V30 6 C 0.0643 0.0197 -1.1359 0
M  V30 7 O 0.3456 0.4572 2.5256 0
M  V30 8 C -0.8252 -1.1265 1.2543 0
M  V30 9 C -0.7703 -1.094 -1.1509 0
M  V30 10 C -1.2192 -1.6728 0.0326 0
M  V30 11 O -1.1316 -1.5967 -2.3656 0
M  V30 12 H 2.2872 2.9899 -0.8707 0
M  V30 13 H 0.3961 0.4464 -2.0785 0
M  V30 14 H 0.9322 1.2381 2.4231 0
M  V30 15 H -1.168 -1.5678 2.1868 0
M  V30 16 H -1.8703 -2.5415 0.026 0
M  V30 17 H -1.7098 -2.3656 -2.2287 0
M  V30 END ATOM
M  V30 BEGIN BOND
M  V30 1 2 1 2
M  V30 2 1 2 3
M  V30 3 1 2 4
M  V30 4 2 4 5
M  V30 5 1 4 6
M  V30 6 1 5 7
M  V30 7 1 5 8
M  V30 8 2 6 9
M  V30 9 2 8 10
M  V30 10 1 9 11
M  V30 11 1 9 10
M  V30 12 1 3 12
M  V30 13 1 6 13
M  V30 14 1 7 14
M  V30 15 1 8 15
M  V30 16 1 10 16
M  V30 17 1 11 17
M  V30 END BOND
M  V30 END CTAB
M  END
>  <NO.>
613

>  <Name>
2,5-dihydroxybenzoic acid

>  <SMILES>
O=C(O)c1cc(O)ccc1O

>  <logBB>
0.1

>  <Class>
1

>  <MW>
154.03

>  <nHBAcc>
3

>  <nHBDon>
3

>  <SLogP>
0.8

>  <TopoPSA>
77.76

>  <MMFF94 Energy>
-8.1935

$$$$
C=COCC(F)(F)F
Actelion Java MolfileCreator 2.0

  0  0  0  0  0  0              0 V3000
M  V30 BEGIN CTAB
M  V30 COUNTS 13 12 0 0 0
M  V30 BEGIN ATOM
M  V30 1 F 1.501 -0.0789 -1.0268 0
M  V30 2 C 1.6293 -0.0694 0.3172 0
M  V30 3 F 2.1759 1.1124 0.6779 0
M  V30 4 F 2.5262 -1.0367 0.6343 0
M  V30 5 C 0.3118 -0.3294 1.0335 0
M  V30 6 O -0.644 0.7274 0.8835 0
M  V30 7 C -1.4631 0.7337 -0.2052 0
M  V30 8 C -1.5307 -0.1246 -1.228 0
M  V30 9 H -0.1138 -1.3009 0.7582 0
M  V30 10 H 0.5223 -0.3902 2.1074 0
M  V30 11 H -2.1209 1.5964 -0.1483 0
M  V30 12 H -0.8917 -0.9918 -1.3329 0
M  V30 13 H -2.2543 0.0413 -2.0211 0
M  V30 END ATOM
M  V30 BEGIN BOND
M  V30 1 1 1 2
M  V30 2 1 2 3
M  V30 3 1 2 4
M  V30 4 1 2 5
M  V30 5 1 5 6
M  V30 6 1 6 7
M  V30 7 2 7 8
M  V30 8 1 5 9
M  V30 9 1 5 10
M  V30 10 1 7 11
M  V30 11 1 8 12
M  V30 12 1 8 13
M  V30 END BOND
M  V30 END CTAB
M  END
>  <NO.>
616

>  <Name>
fluoromar

>  <SMILES>
C=COCC(F)(F)F

>  <logBB>
0.1

>  <Class>
1

>  <MW>
126.03

>  <nHBAcc>
1

>  <nHBDon>
0

>  <SLogP>
1.71

>  <TopoPSA>
9.23

>  <MMFF94 Energy>
42.453

$$$$
CN1CC(C)(C2=CCCCC2)C(=O)NC1=O
Actelion Java MolfileCreator 2.0

  0  0  0  0  0  0              0 V3000
M  V30 BEGIN CTAB
M  V30 COUNTS 34 35 0 0 0
M  V30 BEGIN ATOM
M  V30 1 O 0.1579 -3.4803 -1.8971 0
M  V30 2 C 0.585 -2.4885 -1.3138 0
M  V30 3 N 0.7245 -1.2509 -1.8944 0
M  V30 4 N 0.9364 -2.5716 0.0031 0
M  V30 5 C 1.4411 -0.1824 -1.2203 0
M  V30 6 C 0.3945 -1.0643 -3.2959 0
M  V30 7 C 1.2423 -1.5541 0.8673 0
M  V30 8 C 1.2327 -0.1274 0.3048 0 CFG=2
M  V30 9 O 1.4579 -1.8111 2.0529 0
M  V30 10 C -0.1 0.5678 0.7051 0
M  V30 11 C 2.4821 0.5711 0.8998 0
M  V30 12 C -0.1578 1.7407 1.3743 0
M  V30 13 C -1.3973 -0.1398 0.3332 0
M  V30 14 C -1.4215 2.4051 1.8441 0
M  V30 15 C -2.6631 0.7072 0.497 0
M  V30 16 C -2.6371 1.4869 1.8006 0
M  V30 17 H 0.8808 -3.4937 0.4087 0
M  V30 18 H 2.4996 -0.3458 -1.4624 0
M  V30 19 H 1.152 0.7749 -1.6718 0
M  V30 20 H 1.3242 -0.9691 -3.8642 0
M  V30 21 H -0.1797 -1.9057 -3.692 0
M  V30 22 H -0.1968 -0.1504 -3.4029 0
M  V30 23 H 3.3912 -0.0088 0.6967 0
M  V30 24 H 2.6286 1.5686 0.4697 0
M  V30 25 H 2.417 0.6709 1.9899 0
M  V30 26 H 0.7442 2.284 1.6412 0
M  V30 27 H -1.4948 -1.0376 0.9555 0
M  V30 28 H -1.3749 -0.4654 -0.7089 0
M  V30 29 H -1.5988 3.2888 1.2196 0
M  V30 30 H -1.2826 2.7618 2.8711 0
M  V30 31 H -2.7489 1.4054 -0.3454 0
M  V30 32 H -3.5461 0.059 0.4625 0
M  V30 33 H -2.606 0.7882 2.6461 0
M  V30 34 H -3.5533 2.0782 1.9084 0
M  V30 END ATOM
M  V30 BEGIN BOND
M  V30 1 2 1 2
M  V30 2 1 2 3
M  V30 3 1 2 4
M  V30 4 1 3 5
M  V30 5 1 3 6
M  V30 6 1 4 7
M  V30 7 1 5 8
M  V30 8 2 7 9
M  V30 9 1 8 10
M  V30 10 1 8 11
M  V30 11 2 10 12
M  V30 12 1 10 13
M  V30 13 1 12 14
M  V30 14 1 13 15
M  V30 15 1 14 16
M  V30 16 1 7 8
M  V30 17 1 15 16
M  V30 18 1 4 17
M  V30 19 1 5 18
M  V30 20 1 5 19
M  V30 21 1 6 20
M  V30 22 1 6 21
M  V30 23 1 6 22
M  V30 24 1 11 23
M  V30 25 1 11 24
M  V30 26 1 11 25
M  V30 27 1 12 26
M  V30 28 1 13 27
M  V30 29 1 13 28
M  V30 30 1 14 29
M  V30 31 1 14 30
M  V30 32 1 15 31
M  V30 33 1 15 32
M  V30 34 1 16 33
M  V30 35 1 16 34
M  V30 END BOND
M  V30 BEGIN COLLECTION
M  V30 MDLV30/STERAC1 ATOMS=(1 8)
M  V30 END COLLECTION
M  V30 END CTAB
M  END
>  <NO.>
617

>  <Name>
schembl15974503

>  <SMILES>
CN1CC(C)(C2=CCCCC2)C(=O)NC1=O

>  <logBB>
0.1

>  <Class>
1

>  <MW>
222.14

>  <nHBAcc>
2

>  <nHBDon>
1

>  <SLogP>
1.67

>  <TopoPSA>
49.41

>  <MMFF94 Energy>
-61.833

$$$$
COc1ccc2cc([C@H](C)C(=O)O)ccc2c1
Actelion Java MolfileCreator 2.0

  0  0  0  0  0  0              0 V3000
M  V30 BEGIN CTAB
M  V30 COUNTS 31 32 0 0 0
M  V30 BEGIN ATOM
M  V30 1 O 2.2182 3.1701 -2.0597 0
M  V30 2 C 2.6 3.1295 -0.9019 0
M  V30 3 O 3.8313 3.5923 -0.5895 0
M  V30 4 C 1.8394 2.6516 0.3236 0 CFG=2
M  V30 5 C 0.8238 1.5603 0.019 0
M  V30 6 C 1.1928 3.8508 1.0177 0
M  V30 7 C 0.9744 0.2858 0.592 0
M  V30 8 C -0.2773 1.7893 -0.8157 0
M  V30 9 C 0.0497 -0.7446 0.3443 0
M  V30 10 C -1.2027 0.7743 -1.0717 0
M  V30 11 C -1.0531 -0.4962 -0.4981 0
M  V30 12 C 0.1969 -2.0179 0.9162 0
M  V30 13 C -1.9754 -1.5269 -0.7447 0
M  V30 14 C -0.7307 -3.0342 0.6612 0
M  V30 15 C -1.821 -2.7923 -0.1709 0
M  V30 16 O -2.7966 -3.6925 -0.5014 0
M  V30 17 C -2.6809 -4.9978 0.05 0
M  V30 18 H 4.1985 3.8721 -1.4548 0
M  V30 19 H 2.5874 2.2288 1.0083 0
M  V30 20 H 0.4861 4.3702 0.3607 0
M  V30 21 H 1.952 4.5826 1.3155 0
M  V30 22 H 0.6513 3.5408 1.9182 0
M  V30 23 H 1.8233 0.0886 1.2447 0
M  V30 24 H -0.4213 2.7586 -1.2897 0
M  V30 25 H -2.043 0.9846 -1.7299 0
M  V30 26 H 1.0405 -2.2311 1.5691 0
M  V30 27 H -2.8302 -1.349 -1.3937 0
M  V30 28 H -0.5694 -3.9994 1.1286 0
M  V30 29 H -1.7631 -5.4897 -0.2884 0
M  V30 30 H -3.5278 -5.5894 -0.3106 0
M  V30 31 H -2.7357 -4.9706 1.1434 0
M  V30 END ATOM
M  V30 BEGIN BOND
M  V30 1 2 1 2
M  V30 2 1 2 3
M  V30 3 1 2 4
M  V30 4 1 4 5
M  V30 5 1 4 6
M  V30 6 2 5 7
M  V30 7 1 5 8
M  V30 8 1 7 9
M  V30 9 2 8 10
M  V30 10 1 9 11
M  V30 11 2 9 12
M  V30 12 2 11 13
M  V30 13 1 12 14
M  V30 14 1 13 15
M  V30 15 1 15 16
M  V30 16 1 16 17
M  V30 17 1 10 11
M  V30 18 2 14 15
M  V30 19 1 3 18
M  V30 20 1 4 19
M  V30 21 1 6 20
M  V30 22 1 6 21
M  V30 23 1 6 22
M  V30 24 1 7 23
M  V30 25 1 8 24
M  V30 26 1 10 25
M  V30 27 1 12 26
M  V30 28 1 13 27
M  V30 29 1 14 28
M  V30 30 1 17 29
M  V30 31 1 17 30
M  V30 32 1 17 31
M  V30 END BOND
M  V30 BEGIN COLLECTION
M  V30 MDLV30/STEABS ATOMS=(1 4)
M  V30 END COLLECTION
M  V30 END CTAB
M  END
>  <NO.>
618

>  <Name>
naproxen

>  <SMILES>
COc1ccc2cc([C@H](C)C(=O)O)ccc2c1

>  <logBB>
0.1

>  <Class>
1

>  <MW>
230.09

>  <nHBAcc>
2

>  <nHBDon>
1

>  <SLogP>
3.04

>  <TopoPSA>
46.53

>  <MMFF94 Energy>
35.092

$$$$
Clc1cccc(Cl)c1NC1=NCCN1
Actelion Java MolfileCreator 2.0

  0  0  0  0  0  0              0 V3000
M  V30 BEGIN CTAB
M  V30 COUNTS 23 24 0 0 0
M  V30 BEGIN ATOM
M  V30 1 Cl 0.1636 -1.2279 3.195 0
M  V30 2 C -0.0129 -1.8668 1.5927 0
M  V30 3 C 0.3563 -1.0984 0.4681 0
M  V30 4 C -0.5276 -3.1611 1.4624 0
M  V30 5 N 0.7881 0.2341 0.6541 0
M  V30 6 C 0.2028 -1.695 -0.7993 0
M  V30 7 C -0.6865 -3.7211 0.1987 0
M  V30 8 C 0.2446 1.3184 0.0466 0
M  V30 9 Cl 0.7656 -0.9384 -2.2546 0
M  V30 10 C -0.3152 -2.9918 -0.9286 0
M  V30 11 N -0.8464 1.395 -0.6598 0
M  V30 12 N 0.9287 2.474 0.231 0
M  V30 13 C -0.9531 2.8318 -1.0387 0
M  V30 14 C 0.3247 3.521 -0.5461 0
M  V30 15 H -0.8115 -3.7318 2.3433 0
M  V30 16 H 1.2316 0.4092 1.5455 0
M  V30 17 H -1.0894 -4.7252 0.091 0
M  V30 18 H -0.4203 -3.4408 -1.9139 0
M  V30 19 H 1.9149 2.4828 0.4412 0
M  V30 20 H -1.8403 3.2644 -0.5634 0
M  V30 21 H -1.0612 2.9281 -2.1238 0
M  V30 22 H 0.9693 3.805 -1.3837 0
M  V30 23 H 0.1052 4.4052 0.0587 0
M  V30 END ATOM
M  V30 BEGIN BOND
M  V30 1 1 1 2
M  V30 2 2 2 3
M  V30 3 1 2 4
M  V30 4 1 3 5
M  V30 5 1 3 6
M  V30 6 2 4 7
M  V30 7 1 5 8
M  V30 8 1 6 9
M  V30 9 2 6 10
M  V30 10 2 8 11
M  V30 11 1 8 12
M  V30 12 1 11 13
M  V30 13 1 12 14
M  V30 14 1 7 10
M  V30 15 1 13 14
M  V30 16 1 4 15
M  V30 17 1 5 16
M  V30 18 1 7 17
M  V30 19 1 10 18
M  V30 20 1 12 19
M  V30 21 1 13 20
M  V30 22 1 13 21
M  V30 23 1 14 22
M  V30 24 1 14 23
M  V30 END BOND
M  V30 END CTAB
M  END
>  <NO.>
619

>  <Name>
2pnc

>  <SMILES>
Clc1cccc(Cl)c1NC1=NCCN1

>  <logBB>
0.1

>  <Class>
1

>  <MW>
229.02

>  <nHBAcc>
3

>  <nHBDon>
2

>  <SLogP>
2.36

>  <TopoPSA>
36.42

>  <MMFF94 Energy>
-14.308

$$$$
CC(C)(C)O
Actelion Java MolfileCreator 2.0

  0  0  0  0  0  0              0 V3000
M  V30 BEGIN CTAB
M  V30 COUNTS 15 14 0 0 0
M  V30 BEGIN ATOM
M  V30 1 O 0.6769 -1.3543 0.6769 0
M  V30 2 C 0.1223 -0.148 0.1508 0
M  V30 3 C 0.3243 0.946 1.1971 0
M  V30 4 C -1.3661 -0.3715 -0.1125 0
M  V30 5 C 0.858 0.202 -1.1419 0
M  V30 6 H 0.5516 -2.0559 0.0153 0
M  V30 7 H 1.3886 1.0769 1.4243 0
M  V30 8 H -0.079 1.9067 0.8607 0
M  V30 9 H -0.162 0.677 2.1418 0
M  V30 10 H -1.5183 -1.1826 -0.8337 0
M  V30 11 H -1.8471 0.5318 -0.5017 0
M  V30 12 H -1.8832 -0.6731 0.8055 0
M  V30 13 H 1.9334 0.311 -0.9607 0
M  V30 14 H 0.4831 1.1327 -1.5801 0
M  V30 15 H 0.7488 -0.598 -1.8829 0
M  V30 END ATOM
M  V30 BEGIN BOND
M  V30 1 1 1 2
M  V30 2 1 2 3
M  V30 3 1 2 4
M  V30 4 1 2 5
M  V30 5 1 1 6
M  V30 6 1 3 7
M  V30 7 1 3 8
M  V30 8 1 3 9
M  V30 9 1 4 10
M  V30 10 1 4 11
M  V30 11 1 4 12
M  V30 12 1 5 13
M  V30 13 1 5 14
M  V30 14 1 5 15
M  V30 END BOND
M  V30 END CTAB
M  END
>  <NO.>
621

>  <Name>
tert-butylalcohol

>  <SMILES>
CC(C)(C)O

>  <logBB>
0.11

>  <Class>
1

>  <MW>
74.07

>  <nHBAcc>
1

>  <nHBDon>
1

>  <SLogP>
0.78

>  <TopoPSA>
20.23

>  <MMFF94 Energy>
8.0048

$$$$
CN1C2=C3N=c4ccccc4=C3CCN2C(=O)c2ccccc21
Actelion Java MolfileCreator 2.0

  0  0  0  0  0  0              0 V3000
M  V30 BEGIN CTAB
M  V30 COUNTS 38 42 0 0 0
M  V30 BEGIN ATOM
M  V30 1 O -0.3237 -1.7814 3.4841 0
M  V30 2 C -0.5195 -0.9246 2.6222 0
M  V30 3 N 0.149 -0.8978 1.4016 0
M  V30 4 C -1.5367 0.1224 2.8638 0
M  V30 5 C -0.0226 0.1508 0.4798 0
M  V30 6 C 1.1756 -1.9211 1.166 0
M  V30 7 C -1.6371 1.2026 1.974 0
M  V30 8 C -2.375 0.0097 3.9862 0
M  V30 9 N -0.7606 1.2848 0.8686 0
M  V30 10 C 0.5397 -0.0058 -0.7509 0
M  V30 11 C 1.2258 -2.3953 -0.2804 0
M  V30 12 C -2.6469 2.148 2.2356 0
M  V30 13 C -3.3502 0.971 4.2291 0
M  V30 14 C -0.6878 2.5654 0.1601 0
M  V30 15 N 0.5596 0.8909 -1.8068 0
M  V30 16 C 1.2113 -1.2206 -1.1859 0
M  V30 17 C -3.49 2.0372 3.3491 0
M  V30 18 C 1.2328 0.2894 -2.7383 0
M  V30 19 C 1.6987 -1.0694 -2.4151 0
M  V30 20 C 1.5734 0.8018 -4.0813 0
M  V30 21 C 2.4189 -1.867 -3.3535 0
M  V30 22 C 2.2671 0.0076 -4.9159 0
M  V30 23 C 2.6929 -1.3383 -4.5583 0
M  V30 24 H 1.0159 -2.786 1.8195 0
M  V30 25 H 2.1368 -1.478 1.4593 0
M  V30 26 H -2.2678 -0.8326 4.6662 0
M  V30 27 H 0.3407 -3.0099 -0.4875 0
M  V30 28 H 2.1101 -3.0209 -0.4416 0
M  V30 29 H -2.8195 2.9861 1.5667 0
M  V30 30 H -4.0016 0.8825 5.0945 0
M  V30 31 H -1.4475 2.6172 -0.6267 0
M  V30 32 H 0.3009 2.7326 -0.2788 0
M  V30 33 H -0.8152 3.4196 0.8357 0
M  V30 34 H -4.2594 2.7862 3.5212 0
M  V30 35 H 1.2482 1.8001 -4.3404 0
M  V30 36 H 2.7279 -2.8706 -3.0869 0
M  V30 37 H 2.5293 0.361 -5.9093 0
M  V30 38 H 3.2386 -1.9093 -5.3041 0
M  V30 END ATOM
M  V30 BEGIN BOND
M  V30 1 2 1 2
M  V30 2 1 2 3
M  V30 3 1 2 4
M  V30 4 1 3 5
M  V30 5 1 3 6
M  V30 6 2 4 7
M  V30 7 1 4 8
M  V30 8 1 5 9
M  V30 9 2 5 10
M  V30 10 1 6 11
M  V30 11 1 7 12
M  V30 12 2 8 13
M  V30 13 1 9 14
M  V30 14 1 10 15
M  V30 15 1 10 16
M  V30 16 2 12 17
M  V30 17 2 15 18
M  V30 18 2 16 19
M  V30 19 1 18 20
M  V30 20 1 19 21
M  V30 21 2 20 22
M  V30 22 2 21 23
M  V30 23 1 7 9
M  V30 24 1 11 16
M  V30 25 1 13 17
M  V30 26 1 18 19
M  V30 27 1 22 23
M  V30 28 1 6 24
M  V30 29 1 6 25
M  V30 30 1 8 26
M  V30 31 1 11 27
M  V30 32 1 11 28
M  V30 33 1 12 29
M  V30 34 1 13 30
M  V30 35 1 14 31
M  V30 36 1 14 32
M  V30 37 1 14 33
M  V30 38 1 17 34
M  V30 39 1 20 35
M  V30 40 1 21 36
M  V30 41 1 22 37
M  V30 42 1 23 38
M  V30 END BOND
M  V30 END CTAB
M  END
>  <NO.>
622

>  <Name>
dehydroevodiamine

>  <SMILES>
CN1C2=C3N=c4ccccc4=C3CCN2C(=O)c2ccccc21

>  <logBB>
0.11

>  <Class>
1

>  <MW>
301.12

>  <nHBAcc>
3

>  <nHBDon>
0

>  <SLogP>
1.64

>  <TopoPSA>
35.91

>  <MMFF94 Energy>
64.766

$$$$
COc1ccc(-n2nc(C)cc2C)cc1CNC1CCCNC1c1ccccc1
Actelion Java MolfileCreator 2.0

  0  0  0  0  0  0              0 V3000
M  V30 BEGIN CTAB
M  V30 COUNTS 59 62 0 0 0
M  V30 BEGIN ATOM
M  V30 1 O -1.5057 -1.7436 1.585 0
M  V30 2 C -1.67 -1.5645 0.2351 0
M  V30 3 C -1.2347 -3.0721 2.0173 0
M  V30 4 C -1.4323 -0.2641 -0.2527 0
M  V30 5 C -2.0663 -2.5771 -0.6452 0
M  V30 6 C -1.555 -0.0101 -1.6309 0
M  V30 7 C -0.9744 0.848 0.6669 0
M  V30 8 C -2.2063 -2.3126 -2.0101 0
M  V30 9 C -1.9589 -1.0272 -2.5005 0
M  V30 10 N 0.4832 0.8245 0.8057 0
M  V30 11 N -2.0884 -0.7834 -3.8891 0
M  V30 12 C 0.9689 1.7478 1.8522 0
M  V30 13 N -1.6149 -1.6945 -4.7765 0
M  V30 14 C -2.6933 0.2879 -4.5282 0
M  V30 15 C 2.4145 1.361 2.3463 0
M  V30 16 C 0.9789 3.189 1.3127 0
M  V30 17 C -1.8376 -1.1566 -5.978 0
M  V30 18 C -2.5068 0.0776 -5.8791 0
M  V30 19 C -3.4137 1.3886 -3.841 0
M  V30 20 N 2.9665 2.3359 3.3082 0
M  V30 21 C 2.4706 -0.0369 2.9607 0
M  V30 22 C 1.6002 4.1483 2.3243 0
M  V30 23 C -1.4087 -1.8703 -7.2039 0
M  V30 24 C 2.9898 3.6837 2.7461 0
M  V30 25 C 3.3718 -0.9853 2.4503 0
M  V30 26 C 1.6426 -0.4121 4.0323 0
M  V30 27 C 3.4327 -2.274 2.9847 0
M  V30 28 C 1.7063 -1.701 4.5667 0
M  V30 29 C 2.599 -2.632 4.0413 0
M  V30 30 H -2.1386 -3.6876 1.972 0
M  V30 31 H -0.9195 -3.0243 3.064 0
M  V30 32 H -0.4186 -3.524 1.4431 0
M  V30 33 H -2.2771 -3.5833 -0.2985 0
M  V30 34 H -1.2968 0.9756 -2.0096 0
M  V30 35 H -1.4728 0.7444 1.6387 0
M  V30 36 H -1.3056 1.8078 0.2533 0
M  V30 37 H -2.5045 -3.1135 -2.6841 0
M  V30 38 H 0.7325 -0.1307 1.0782 0
M  V30 39 H 0.2928 1.707 2.7171 0
M  V30 40 H 3.074 1.3631 1.4661 0
M  V30 41 H -0.0378 3.5281 1.0839 0
M  V30 42 H 1.55 3.2358 0.3761 0
M  V30 43 H -2.8366 0.718 -6.6855 0
M  V30 44 H -4.0012 1.0208 -2.994 0
M  V30 45 H -2.7123 2.1497 -3.4864 0
M  V30 46 H -4.1109 1.8781 -4.5299 0
M  V30 47 H 2.3936 2.327 4.15 0
M  V30 48 H 1.6644 5.1513 1.8872 0
M  V30 49 H 0.9502 4.2246 3.2052 0
M  V30 50 H -1.6311 -1.2831 -8.1007 0
M  V30 51 H -0.3305 -2.0589 -7.1821 0
M  V30 52 H -1.9275 -2.8305 -7.2901 0
M  V30 53 H 3.3898 4.3721 3.4988 0
M  V30 54 H 3.6791 3.72 1.8938 0
M  V30 55 H 4.0353 -0.7229 1.6288 0
M  V30 56 H 0.9407 0.2965 4.4638 0
M  V30 57 H 4.136 -2.9955 2.5772 0
M  V30 58 H 1.0604 -1.9761 5.3964 0
M  V30 59 H 2.6513 -3.6333 4.4597 0
M  V30 END ATOM
M  V30 BEGIN BOND
M  V30 1 1 1 2
M  V30 2 1 1 3
M  V30 3 2 2 4
M  V30 4 1 2 5
M  V30 5 1 4 6
M  V30 6 1 4 7
M  V30 7 2 5 8
M  V30 8 2 6 9
M  V30 9 1 7 10
M  V30 10 1 9 11
M  V30 11 1 10 12
M  V30 12 1 11 13
M  V30 13 1 11 14
M  V30 14 1 12 15
M  V30 15 1 12 16
M  V30 16 2 13 17
M  V30 17 2 14 18
M  V30 18 1 14 19
M  V30 19 1 15 20
M  V30 20 1 15 21
M  V30 21 1 16 22
M  V30 22 1 17 23
M  V30 23 1 20 24
M  V30 24 2 21 25
M  V30 25 1 21 26
M  V30 26 1 25 27
M  V30 27 2 26 28
M  V30 28 2 27 29
M  V30 29 1 8 9
M  V30 30 1 17 18
M  V30 31 1 22 24
M  V30 32 1 28 29
M  V30 33 1 3 30
M  V30 34 1 3 31
M  V30 35 1 3 32
M  V30 36 1 5 33
M  V30 37 1 6 34
M  V30 38 1 7 35
M  V30 39 1 7 36
M  V30 40 1 8 37
M  V30 41 1 10 38
M  V30 42 1 12 39
M  V30 43 1 15 40
M  V30 44 1 16 41
M  V30 45 1 16 42
M  V30 46 1 18 43
M  V30 47 1 19 44
M  V30 48 1 19 45
M  V30 49 1 19 46
M  V30 50 1 20 47
M  V30 51 1 22 48
M  V30 52 1 22 49
M  V30 53 1 23 50
M  V30 54 1 23 51
M  V30 55 1 23 52
M  V30 56 1 24 53
M  V30 57 1 24 54
M  V30 58 1 25 55
M  V30 59 1 26 56
M  V30 60 1 27 57
M  V30 61 1 28 58
M  V30 62 1 29 59
M  V30 END BOND
M  V30 END CTAB
M  END
>  <NO.>
623

>  <Name>
pfizer compound 20

>  <SMILES>
COc1ccc(-n2nc(C)cc2C)cc1CNC1CCCNC1c1ccccc1

>  <logBB>
0.11

>  <Class>
1

>  <MW>
390.24

>  <nHBAcc>
4

>  <nHBDon>
2

>  <SLogP>
4.08

>  <TopoPSA>
51.11

>  <MMFF94 Energy>
97.505

$$$$
COc1ccc2c3c1O[C@H]1C(=O)CC[C@@]4(O)[C@@H](C2)N(C)CC[C@]314
Actelion Java MolfileCreator 2.0

  0  0  0  0  0  0              0 V3000
M  V30 BEGIN CTAB
M  V30 COUNTS 44 48 0 0 0
M  V30 BEGIN ATOM
M  V30 1 O -3.5785 1.3814 1.2188 0
M  V30 2 C -2.3478 1.4308 1.2865 0
M  V30 3 C -1.4648 1.7413 0.0628 0 CFG=2
M  V30 4 C -1.6654 1.2843 2.6274 0
M  V30 5 O -2.0966 1.1942 -1.1381 0
M  V30 6 C -0.0572 1.1358 0.1344 0 CFG=2
M  V30 7 C -0.4607 0.355 2.5296 0
M  V30 8 C -1.5325 -0.0578 -1.2592 0
M  V30 9 C -0.3868 -0.1725 -0.4953 0
M  V30 10 C 0.5547 0.9018 1.5211 0 CFG=2
M  V30 11 C 0.9513 1.884 -0.7706 0
M  V30 12 C -2.0045 -1.1265 -1.996 0
M  V30 13 C 0.3071 -1.3544 -0.3312 0
M  V30 14 O 1.0042 2.1626 2.0611 0
M  V30 15 C 1.8079 -0.0171 1.3013 0 CFG=1
M  V30 16 C 2.3272 1.1956 -0.7995 0
M  V30 17 O -3.1214 -0.9117 -2.7466 0
M  V30 18 C -1.2926 -2.3332 -1.8905 0
M  V30 19 C -0.1574 -2.4522 -1.0523 0
M  V30 20 C 1.4376 -1.4025 0.6635 0
M  V30 21 N 2.7946 0.8185 0.545 0
M  V30 22 C -3.6683 -2.0316 -3.4273 0
M  V30 23 C 4.1212 0.2064 0.4812 0
M  V30 24 H -1.4278 2.833 -0.0321 0
M  V30 25 H -2.3844 0.8667 3.3412 0
M  V30 26 H -1.3866 2.2815 2.9833 0
M  V30 27 H -0.7984 -0.6518 2.2613 0
M  V30 28 H 0.0021 0.2856 3.5217 0
M  V30 29 H 1.074 2.9125 -0.406 0
M  V30 30 H 0.5815 1.9707 -1.8007 0
M  V30 31 H 1.928 2.2596 1.7399 0
M  V30 32 H 2.2602 -0.2065 2.2845 0
M  V30 33 H 2.2953 0.3229 -1.4632 0
M  V30 34 H 3.0408 1.8972 -1.2496 0
M  V30 35 H -1.6068 -3.2186 -2.4353 0
M  V30 36 H 0.3408 -3.4157 -0.9696 0
M  V30 37 H 2.3126 -1.8713 0.2028 0
M  V30 38 H 1.1224 -2.0667 1.4792 0
M  V30 39 H -2.9726 -2.4111 -4.1829 0
M  V30 40 H -4.5733 -1.6998 -3.9454 0
M  V30 41 H -3.9571 -2.8205 -2.7247 0
M  V30 42 H 4.4758 -0.0568 1.4836 0
M  V30 43 H 4.1462 -0.6918 -0.1434 0
M  V30 44 H 4.8459 0.9196 0.0726 0
M  V30 END ATOM
M  V30 BEGIN BOND
M  V30 1 2 1 2
M  V30 2 1 2 3
M  V30 3 1 2 4
M  V30 4 1 3 5
M  V30 5 1 3 6
M  V30 6 1 4 7
M  V30 7 1 5 8
M  V30 8 1 6 9
M  V30 9 1 6 10
M  V30 10 1 6 11
M  V30 11 1 8 12
M  V30 12 1 9 13
M  V30 13 1 10 14
M  V30 14 1 10 15
M  V30 15 1 11 16
M  V30 16 1 12 17
M  V30 17 2 12 18
M  V30 18 2 13 19
M  V30 19 1 13 20
M  V30 20 1 15 21
M  V30 21 1 17 22
M  V30 22 1 21 23
M  V30 23 1 7 10
M  V30 24 2 8 9
M  V30 25 1 15 20
M  V30 26 1 16 21
M  V30 27 1 18 19
M  V30 28 1 3 24
M  V30 29 1 4 25
M  V30 30 1 4 26
M  V30 31 1 7 27
M  V30 32 1 7 28
M  V30 33 1 11 29
M  V30 34 1 11 30
M  V30 35 1 14 31
M  V30 36 1 15 32
M  V30 37 1 16 33
M  V30 38 1 16 34
M  V30 39 1 18 35
M  V30 40 1 19 36
M  V30 41 1 20 37
M  V30 42 1 20 38
M  V30 43 1 22 39
M  V30 44 1 22 40
M  V30 45 1 22 41
M  V30 46 1 23 42
M  V30 47 1 23 43
M  V30 48 1 23 44
M  V30 END BOND
M  V30 BEGIN COLLECTION
M  V30 MDLV30/STEABS ATOMS=(4 3 6 10 15)
M  V30 END COLLECTION
M  V30 END CTAB
M  END
>  <NO.>
624

>  <Name>
oxycodone

>  <SMILES>
COc1ccc2c3c1O[C@H]1C(=O)CC[C@@]4(O)[C@@H](C2)N(C)CC[C@]314

>  <logBB>
0.11

>  <Class>
1

>  <MW>
315.15

>  <nHBAcc>
5

>  <nHBDon>
1

>  <SLogP>
1.05

>  <TopoPSA>
59

>  <MMFF94 Energy>
113.35

$$$$
C[n+]1c2n(c(=O)c3ccccc31)CCC1c3ccccc3NC21
Actelion Java MolfileCreator 2.0

  0  0  0  0  0  0              0 V3000
M  V30 BEGIN CTAB
M  V30 COUNTS 41 45 0 0 0
M  V30 BEGIN ATOM
M  V30 1 O 2.336 -2.2553 -1.3688 0
M  V30 2 C 2.0955 -1.3305 -0.613 0
M  V30 3 N 0.8424 -0.6644 -0.6762 0
M  V30 4 C 3.0552 -0.83 0.3588 0
M  V30 5 C 0.517 0.3005 0.1856 0
M  V30 6 C -0.1174 -1.124 -1.7029 0
M  V30 7 C 2.6447 0.2049 1.2016 0
M  V30 8 C 4.3469 -1.3823 0.3982 0
M  V30 9 N 1.3545 0.7212 1.1611 0 CHG=1
M  V30 10 C -0.8782 0.9104 0.0682 0
M  V30 11 C -0.6788 0.1072 -2.3862 0
M  V30 12 C 3.6265 0.6998 2.0836 0
M  V30 13 C 5.2804 -0.8831 1.2959 0
M  V30 14 C 0.9447 1.6926 2.2091 0
M  V30 15 N -1.8228 0.1105 0.8601 0
M  V30 16 C -1.4367 0.9725 -1.3895 0
M  V30 17 C 4.9219 0.1635 2.1347 0
M  V30 18 C -3.0022 0.0345 0.1268 0
M  V30 19 C -2.8477 0.4972 -1.1793 0
M  V30 20 C -4.1967 -0.5183 0.5431 0
M  V30 21 C -3.8978 0.471 -2.0842 0
M  V30 22 C -5.2645 -0.5551 -0.3577 0
M  V30 23 C -5.1174 -0.0583 -1.6613 0
M  V30 24 H 0.3789 -1.7401 -2.4594 0
M  V30 25 H -0.8869 -1.7395 -1.2256 0
M  V30 26 H 4.6287 -2.1942 -0.272 0
M  V30 27 H -0.8816 1.943 0.4373 0
M  V30 28 H 0.1569 0.6915 -2.7926 0
M  V30 29 H -1.3071 -0.1814 -3.2362 0
M  V30 30 H 3.431 1.5311 2.7556 0
M  V30 31 H 6.2856 -1.3003 1.3354 0
M  V30 32 H -0.1384 1.719 2.3381 0
M  V30 33 H 1.3063 2.6892 1.9398 0
M  V30 34 H 1.3337 1.3913 3.1872 0
M  V30 35 H -1.852 0.0834 1.8709 0
M  V30 36 H -1.4578 2.012 -1.7394 0
M  V30 37 H 5.6533 0.5705 2.8326 0
M  V30 38 H -4.3177 -0.9161 1.5453 0
M  V30 39 H -3.7869 0.8447 -3.0975 0
M  V30 40 H -6.2192 -0.9757 -0.0478 0
M  V30 41 H -5.9614 -0.0941 -2.3476 0
M  V30 END ATOM
M  V30 BEGIN BOND
M  V30 1 2 1 2
M  V30 2 1 2 3
M  V30 3 1 2 4
M  V30 4 1 3 5
M  V30 5 1 3 6
M  V30 6 2 4 7
M  V30 7 1 4 8
M  V30 8 2 5 9
M  V30 9 1 5 10
M  V30 10 1 6 11
M  V30 11 1 7 12
M  V30 12 2 8 13
M  V30 13 1 9 14
M  V30 14 1 10 15
M  V30 15 1 10 16
M  V30 16 2 12 17
M  V30 17 1 15 18
M  V30 18 1 16 19
M  V30 19 1 18 20
M  V30 20 1 19 21
M  V30 21 2 20 22
M  V30 22 2 21 23
M  V30 23 1 7 9
M  V30 24 1 11 16
M  V30 25 1 13 17
M  V30 26 2 18 19
M  V30 27 1 22 23
M  V30 28 1 6 24
M  V30 29 1 6 25
M  V30 30 1 8 26
M  V30 31 1 10 27
M  V30 32 1 11 28
M  V30 33 1 11 29
M  V30 34 1 12 30
M  V30 35 1 13 31
M  V30 36 1 14 32
M  V30 37 1 14 33
M  V30 38 1 14 34
M  V30 39 1 15 35
M  V30 40 1 16 36
M  V30 41 1 17 37
M  V30 42 1 20 38
M  V30 43 1 21 39
M  V30 44 1 22 40
M  V30 45 1 23 41
M  V30 END BOND
M  V30 END CTAB
M  END
>  <NO.>
625

>  <Name>
dehydroevodiamine

>  <SMILES>
C[n+]1c2n(c(=O)c3ccccc31)CCC1c3ccccc3NC21

>  <logBB>
0.11

>  <Class>
1

>  <MW>
304.14

>  <nHBAcc>
2

>  <nHBDon>
1

>  <SLogP>
2.48

>  <TopoPSA>
37.91

>  <MMFF94 Energy>
36.8

$$$$
Cc1ccc2c(OCCN3CCC(Cc4ccc5c(c4)N(C)C(=O)CO5)CC3)cccc2n1
Actelion Java MolfileCreator 2.0

  0  0  0  0  0  0              0 V3000
M  V30 BEGIN CTAB
M  V30 COUNTS 64 68 0 0 0
M  V30 BEGIN ATOM
M  V30 1 O -2.7167 -2.1569 7.8459 0
M  V30 2 C -2.7435 -1.1917 7.0821 0
M  V30 3 N -1.9898 -1.0992 5.9187 0
M  V30 4 C -3.697 -0.0242 7.3127 0
M  V30 5 C -2.0698 0.0719 5.1167 0
M  V30 6 C -1.0893 -2.1808 5.5644 0
M  V30 7 O -3.2882 1.256 6.8653 0
M  V30 8 C -2.7072 1.2108 5.6266 0
M  V30 9 C -1.5035 0.138 3.8353 0
M  V30 10 C -2.7443 2.3973 4.8948 0
M  V30 11 C -1.5564 1.3217 3.0788 0
M  V30 12 C -2.1754 2.4522 3.6241 0
M  V30 13 C -0.9478 1.3754 1.696 0
M  V30 14 C -1.9906 1.4563 0.5591 0
M  V30 15 C -1.3065 1.6937 -0.7947 0
M  V30 16 C -2.8707 0.2034 0.4437 0
M  V30 17 C -0.584 0.4501 -1.3237 0
M  V30 18 C -2.1036 -1.0019 -0.101 0
M  V30 19 N -1.4845 -0.7094 -1.4038 0
M  V30 20 C -0.7954 -1.9196 -1.9098 0
M  V30 21 C -0.2185 -1.7961 -3.3334 0
M  V30 22 O 1.0954 -1.2367 -3.2607 0
M  V30 23 C 1.7395 -0.9553 -4.4408 0
M  V30 24 C 2.9778 -0.2707 -4.3263 0
M  V30 25 C 1.2554 -1.3072 -5.7023 0
M  V30 26 C 3.7118 0.0588 -5.4848 0
M  V30 27 C 3.5369 0.1146 -3.0935 0
M  V30 28 C 1.9845 -0.9793 -6.8413 0
M  V30 29 N 4.8894 0.7085 -5.4451 0
M  V30 30 C 3.1981 -0.3024 -6.7202 0
M  V30 31 C 4.7538 0.7859 -3.0477 0
M  V30 32 C 5.3983 1.0643 -4.2426 0
M  V30 33 C 6.7122 1.7858 -4.24 0
M  V30 34 H -4.6594 -0.274 6.8486 0
M  V30 35 H -3.8656 0.0538 8.3925 0
M  V30 36 H -1.4484 -2.6634 4.6502 0
M  V30 37 H -0.08 -1.7853 5.4133 0
M  V30 38 H -1.0407 -2.9396 6.3506 0
M  V30 39 H -1.0139 -0.7288 3.4018 0
M  V30 40 H -3.2238 3.278 5.314 0
M  V30 41 H -2.218 3.3831 3.0627 0
M  V30 42 H -0.2959 2.2586 1.6567 0
M  V30 43 H -0.2793 0.5182 1.5568 0
M  V30 44 H -2.6472 2.314 0.7561 0
M  V30 45 H -0.5984 2.528 -0.7234 0
M  V30 46 H -2.0675 1.9972 -1.5263 0
M  V30 47 H -3.323 -0.0512 1.4082 0
M  V30 48 H -3.7077 0.4231 -0.2331 0
M  V30 49 H -0.212 0.7083 -2.3207 0
M  V30 50 H 0.2888 0.2258 -0.6985 0
M  V30 51 H -2.8172 -1.8276 -0.2129 0
M  V30 52 H -1.3501 -1.3287 0.6262 0
M  V30 53 H -1.5367 -2.728 -1.943 0
M  V30 54 H -0.0024 -2.2229 -1.214 0
M  V30 55 H -0.1487 -2.8032 -3.7618 0
M  V30 56 H -0.8804 -1.1804 -3.9549 0
M  V30 57 H 0.3188 -1.8382 -5.8341 0
M  V30 58 H 3.0218 -0.1103 -2.1629 0
M  V30 59 H 1.6124 -1.2495 -7.8262 0
M  V30 60 H 3.7618 -0.0497 -7.6154 0
M  V30 61 H 5.1837 1.0814 -2.0968 0
M  V30 62 H 7.0824 1.9253 -5.2607 0
M  V30 63 H 7.4582 1.211 -3.6826 0
M  V30 64 H 6.6009 2.7728 -3.7803 0
M  V30 END ATOM
M  V30 BEGIN BOND
M  V30 1 2 1 2
M  V30 2 1 2 3
M  V30 3 1 2 4
M  V30 4 1 3 5
M  V30 5 1 3 6
M  V30 6 1 4 7
M  V30 7 2 5 8
M  V30 8 1 5 9
M  V30 9 1 8 10
M  V30 10 2 9 11
M  V30 11 2 10 12
M  V30 12 1 11 13
M  V30 13 1 13 14
M  V30 14 1 14 15
M  V30 15 1 14 16
M  V30 16 1 15 17
M  V30 17 1 16 18
M  V30 18 1 17 19
M  V30 19 1 19 20
M  V30 20 1 20 21
M  V30 21 1 21 22
M  V30 22 1 22 23
M  V30 23 1 23 24
M  V30 24 2 23 25
M  V30 25 1 24 26
M  V30 26 2 24 27
M  V30 27 1 25 28
M  V30 28 2 26 29
M  V30 29 1 26 30
M  V30 30 1 27 31
M  V30 31 1 29 32
M  V30 32 1 32 33
M  V30 33 1 7 8
M  V30 34 1 11 12
M  V30 35 1 18 19
M  V30 36 2 28 30
M  V30 37 2 31 32
M  V30 38 1 4 34
M  V30 39 1 4 35
M  V30 40 1 6 36
M  V30 41 1 6 37
M  V30 42 1 6 38
M  V30 43 1 9 39
M  V30 44 1 10 40
M  V30 45 1 12 41
M  V30 46 1 13 42
M  V30 47 1 13 43
M  V30 48 1 14 44
M  V30 49 1 15 45
M  V30 50 1 15 46
M  V30 51 1 16 47
M  V30 52 1 16 48
M  V30 53 1 17 49
M  V30 54 1 17 50
M  V30 55 1 18 51
M  V30 56 1 18 52
M  V30 57 1 20 53
M  V30 58 1 20 54
M  V30 59 1 21 55
M  V30 60 1 21 56
M  V30 61 1 25 57
M  V30 62 1 27 58
M  V30 63 1 28 59
M  V30 64 1 30 60
M  V30 65 1 31 61
M  V30 66 1 33 62
M  V30 67 1 33 63
M  V30 68 1 33 64
M  V30 END BOND
M  V30 END CTAB
M  END
>  <NO.>
626

>  <Name>
chembl246597

>  <SMILES>
Cc1ccc2c(OCCN3CCC(Cc4ccc5c(c4)N(C)C(=O)CO5)CC3)cccc2n1

>  <logBB>
0.11

>  <Class>
1

>  <MW>
445.24

>  <nHBAcc>
5

>  <nHBDon>
0

>  <SLogP>
4.23

>  <TopoPSA>
54.9

>  <MMFF94 Energy>
118.61

$$$$
Clc1cccc(Cl)c1NC1N=CCN1
Actelion Java MolfileCreator 2.0

  0  0  0  0  0  0              0 V3000
M  V30 BEGIN CTAB
M  V30 COUNTS 23 24 0 0 0
M  V30 BEGIN ATOM
M  V30 1 Cl -1.0686 -2.2203 1.6443 0
M  V30 2 C -1.0063 -0.4929 1.7884 0
M  V30 3 C -0.9899 0.3537 0.6608 0
M  V30 4 C -1.0496 0.0285 3.0897 0
M  V30 5 N -0.879 -0.117 -0.6555 0
M  V30 6 C -1.0342 1.745 0.9059 0
M  V30 7 C -1.0798 1.405 3.2984 0
M  V30 8 C 0.3348 -0.7596 -1.0784 0 CFG=2
M  V30 9 Cl -1.046 2.8769 -0.4086 0
M  V30 10 C -1.078 2.2645 2.2048 0
M  V30 11 N 1.4715 0.183 -1.116 0
M  V30 12 N 0.2448 -1.4123 -2.3793 0
M  V30 13 C 2.1412 -0.1882 -2.1551 0
M  V30 14 C 1.5854 -1.342 -2.9181 0
M  V30 15 H -1.0712 -0.6412 3.9464 0
M  V30 16 H -1.1854 0.5465 -1.358 0
M  V30 17 H -1.1144 1.8048 4.3087 0
M  V30 18 H 0.6165 -1.5364 -0.3584 0
M  V30 19 H -1.1087 3.3395 2.3643 0
M  V30 20 H -0.0696 -2.3667 -2.2381 0
M  V30 21 H 3.0834 0.2837 -2.4673 0
M  V30 22 H 1.5891 -1.1322 -3.9897 0
M  V30 23 H 2.1808 -2.2346 -2.706 0
M  V30 END ATOM
M  V30 BEGIN BOND
M  V30 1 1 1 2
M  V30 2 2 2 3
M  V30 3 1 2 4
M  V30 4 1 3 5
M  V30 5 1 3 6
M  V30 6 2 4 7
M  V30 7 1 5 8
M  V30 8 1 6 9
M  V30 9 2 6 10
M  V30 10 1 8 11
M  V30 11 1 8 12
M  V30 12 2 11 13
M  V30 13 1 12 14
M  V30 14 1 7 10
M  V30 15 1 13 14
M  V30 16 1 4 15
M  V30 17 1 5 16
M  V30 18 1 7 17
M  V30 19 1 8 18
M  V30 20 1 10 19
M  V30 21 1 12 20
M  V30 22 1 13 21
M  V30 23 1 14 22
M  V30 24 1 14 23
M  V30 END BOND
M  V30 BEGIN COLLECTION
M  V30 MDLV30/STERAC1 ATOMS=(1 8)
M  V30 END COLLECTION
M  V30 END CTAB
M  END
>  <NO.>
627

>  <Name>
184886-95-1

>  <SMILES>
Clc1cccc(Cl)c1NC1N=CCN1

>  <logBB>
0.11

>  <Class>
1

>  <MW>
229.02

>  <nHBAcc>
3

>  <nHBDon>
2

>  <SLogP>
2.36

>  <TopoPSA>
36.42

>  <MMFF94 Energy>
-39.251

$$$$
FC(F)OC(F)C(F)(F)F
Actelion Java MolfileCreator 2.0

  0  0  0  0  0  0              0 V3000
M  V30 BEGIN CTAB
M  V30 COUNTS 12 11 0 0 0
M  V30 BEGIN ATOM
M  V30 1 F -2.0037 -1.586 1.1684 0
M  V30 2 C -0.7879 -0.9947 1.2726 0
M  V30 3 F 0.1313 -1.9734 1.4206 0
M  V30 4 F -0.8045 -0.2685 2.4172 0
M  V30 5 C -0.5096 -0.1034 0.0573 0 CFG=2
M  V30 6 F -0.5269 -0.8404 -1.0873 0
M  V30 7 O 0.7502 0.5519 0.1401 0
M  V30 8 C 1.096 1.1136 -1.1029 0
M  V30 9 F 1.9096 2.1659 -0.8485 0
M  V30 10 F 1.8261 0.2038 -1.7847 0
M  V30 11 H -1.299 0.6525 -0.0217 0
M  V30 12 H 0.2451 1.4582 -1.7008 0
M  V30 END ATOM
M  V30 BEGIN BOND
M  V30 1 1 1 2
M  V30 2 1 2 3
M  V30 3 1 2 4
M  V30 4 1 2 5
M  V30 5 1 5 6
M  V30 6 1 5 7
M  V30 7 1 7 8
M  V30 8 1 8 9
M  V30 9 1 8 10
M  V30 10 1 5 11
M  V30 11 1 8 12
M  V30 END BOND
M  V30 BEGIN COLLECTION
M  V30 MDLV30/STERAC1 ATOMS=(1 5)
M  V30 END COLLECTION
M  V30 END CTAB
M  END
>  <NO.>
629

>  <Name>
desflurane (suprane)

>  <SMILES>
FC(F)OC(F)C(F)(F)F

>  <logBB>
0.11

>  <Class>
1

>  <MW>
168

>  <nHBAcc>
1

>  <nHBDon>
0

>  <SLogP>
2.08

>  <TopoPSA>
9.23

>  <MMFF94 Energy>
26.243

$$$$
NCCn1ncc2cc(Cl)c(Cl)cc21
Actelion Java MolfileCreator 2.0

  0  0  0  0  0  0              0 V3000
M  V30 BEGIN CTAB
M  V30 COUNTS 23 24 0 0 0
M  V30 BEGIN ATOM
M  V30 1 Cl 2.1324 -0.2458 -3.6106 0
M  V30 2 C 1.925 -0.3961 -1.8991 0
M  V30 3 C 3.0113 -0.5397 -1.0279 0
M  V30 4 C 0.6106 -0.3664 -1.4113 0
M  V30 5 Cl 4.6466 -0.5804 -1.5917 0
M  V30 6 C 2.8089 -0.6547 0.3554 0
M  V30 7 C 0.4277 -0.4863 -0.0255 0
M  V30 8 C 1.4958 -0.625 0.8566 0
M  V30 9 N -0.6978 -0.4972 0.766 0
M  V30 10 C 0.8982 -0.7031 2.1325 0
M  V30 11 N -0.4322 -0.62 2.0841 0
M  V30 12 C -2.0798 -0.4082 0.334 0
M  V30 13 C -2.6413 1.013 0.4201 0
M  V30 14 N -2.1181 1.9097 -0.617 0
M  V30 15 H -0.2341 -0.2482 -2.0839 0
M  V30 16 H 3.6512 -0.7643 1.0325 0
M  V30 17 H 1.3812 -0.8154 3.0947 0
M  V30 18 H -2.1537 -0.8081 -0.6829 0
M  V30 19 H -2.659 -1.0761 0.983 0
M  V30 20 H -2.4468 1.4507 1.4058 0
M  V30 21 H -3.7286 0.9619 0.2955 0
M  V30 22 H -2.5827 2.8156 -0.5357 0
M  V30 23 H -1.1311 2.0993 -0.4323 0
M  V30 END ATOM
M  V30 BEGIN BOND
M  V30 1 1 1 2
M  V30 2 2 2 3
M  V30 3 1 2 4
M  V30 4 1 3 5
M  V30 5 1 3 6
M  V30 6 2 4 7
M  V30 7 2 6 8
M  V30 8 1 7 9
M  V30 9 1 8 10
M  V30 10 1 9 11
M  V30 11 1 9 12
M  V30 12 1 12 13
M  V30 13 1 13 14
M  V30 14 1 7 8
M  V30 15 2 10 11
M  V30 16 1 4 15
M  V30 17 1 6 16
M  V30 18 1 10 17
M  V30 19 1 12 18
M  V30 20 1 12 19
M  V30 21 1 13 20
M  V30 22 1 13 21
M  V30 23 1 14 22
M  V30 24 1 14 23
M  V30 END BOND
M  V30 END CTAB
M  END
>  <NO.>
630

>  <Name>
2-(5,6-dichloroindazol-1-yl)ethanamine

>  <SMILES>
NCCn1ncc2cc(Cl)c(Cl)cc21

>  <logBB>
0.11

>  <Class>
1

>  <MW>
229.02

>  <nHBAcc>
2

>  <nHBDon>
1

>  <SLogP>
2.3

>  <TopoPSA>
43.84

>  <MMFF94 Energy>
46.517

$$$$
CCCOC(C)=O
Actelion Java MolfileCreator 2.0

  0  0  0  0  0  0              0 V3000
M  V30 BEGIN CTAB
M  V30 COUNTS 17 16 0 0 0
M  V30 BEGIN ATOM
M  V30 1 O -0.5335 -0.2286 2.0593 0
M  V30 2 C 0.6099 -0.0639 1.6596 0
M  V30 3 O 0.9641 0.4713 0.4592 0
M  V30 4 C 1.8376 -0.434 2.4345 0
M  V30 5 C -0.1226 0.8769 -0.3879 0
M  V30 6 C -0.5937 -0.3016 -1.2328 0
M  V30 7 C -1.707 0.098 -2.1847 0
M  V30 8 H 2.4088 -1.1872 1.8861 0
M  V30 9 H 2.4457 0.4563 2.6134 0
M  V30 10 H 1.5434 -0.8541 3.4007 0
M  V30 11 H 0.2616 1.6729 -1.0352 0
M  V30 12 H -0.9407 1.3108 0.1996 0
M  V30 13 H 0.2529 -0.7076 -1.7991 0
M  V30 14 H -0.9389 -1.1146 -0.5836 0
M  V30 15 H -2.0249 -0.7636 -2.7799 0
M  V30 16 H -2.5773 0.4711 -1.6353 0
M  V30 17 H -1.3728 0.8813 -2.8726 0
M  V30 END ATOM
M  V30 BEGIN BOND
M  V30 1 2 1 2
M  V30 2 1 2 3
M  V30 3 1 2 4
M  V30 4 1 3 5
M  V30 5 1 5 6
M  V30 6 1 6 7
M  V30 7 1 4 8
M  V30 8 1 4 9
M  V30 9 1 4 10
M  V30 10 1 5 11
M  V30 11 1 5 12
M  V30 12 1 6 13
M  V30 13 1 6 14
M  V30 14 1 7 15
M  V30 15 1 7 16
M  V30 16 1 7 17
M  V30 END BOND
M  V30 END CTAB
M  END
>  <NO.>
631

>  <Name>
propyl acetate 

>  <SMILES>
CCCOC(C)=O

>  <logBB>
0.12

>  <Class>
1

>  <MW>
102.07

>  <nHBAcc>
2

>  <nHBDon>
0

>  <SLogP>
0.96

>  <TopoPSA>
26.3

>  <MMFF94 Energy>
-11.028

$$$$
C=COCCCCOC=C
Actelion Java MolfileCreator 2.0

  0  0  0  0  0  0              0 V3000
M  V30 BEGIN CTAB
M  V30 COUNTS 24 23 0 0 0
M  V30 BEGIN ATOM
M  V30 1 O -2.2945 0.7643 -0.2292 0
M  V30 2 C -3.1281 1.4017 -1.1049 0
M  V30 3 C -1.762 -0.4504 -0.7615 0
M  V30 4 C -3.4831 2.6744 -0.9261 0
M  V30 5 C -0.7894 -1.0525 0.2499 0
M  V30 6 C 0.4329 -0.1613 0.4764 0
M  V30 7 C 1.3966 -0.7832 1.4854 0
M  V30 8 O 2.52 0.0702 1.7099 0
M  V30 9 C 3.5912 -0.0039 0.8691 0
M  V30 10 C 3.7823 -0.7816 -0.202 0
M  V30 11 H -3.4903 0.8075 -1.9333 0
M  V30 12 H -1.246 -0.2553 -1.71 0
M  V30 13 H -2.5794 -1.1602 -0.939 0
M  V30 14 H -3.1091 3.2404 -0.0793 0
M  V30 15 H -4.1519 3.1715 -1.6192 0
M  V30 16 H -1.3063 -1.1976 1.2064 0
M  V30 17 H -0.4655 -2.0369 -0.107 0
M  V30 18 H 0.1285 0.8284 0.8386 0
M  V30 19 H 0.9453 0.0149 -0.4762 0
M  V30 20 H 0.8851 -0.8789 2.4505 0
M  V30 21 H 1.7065 -1.7963 1.204 0
M  V30 22 H 4.3443 0.7065 1.1958 0
M  V30 23 H 3.0511 -1.4962 -0.5568 0
M  V30 24 H 4.7087 -0.7076 -0.7631 0
M  V30 END ATOM
M  V30 BEGIN BOND
M  V30 1 1 1 2
M  V30 2 1 1 3
M  V30 3 2 2 4
M  V30 4 1 3 5
M  V30 5 1 5 6
M  V30 6 1 6 7
M  V30 7 1 7 8
M  V30 8 1 8 9
M  V30 9 2 9 10
M  V30 10 1 2 11
M  V30 11 1 3 12
M  V30 12 1 3 13
M  V30 13 1 4 14
M  V30 14 1 4 15
M  V30 15 1 5 16
M  V30 16 1 5 17
M  V30 17 1 6 18
M  V30 18 1 6 19
M  V30 19 1 7 20
M  V30 20 1 7 21
M  V30 21 1 9 22
M  V30 22 1 10 23
M  V30 23 1 10 24
M  V30 END BOND
M  V30 END CTAB
M  END
>  <NO.>
632

>  <Name>
3891-33-6

>  <SMILES>
C=COCCCCOC=C

>  <logBB>
0.12

>  <Class>
1

>  <MW>
142.1

>  <nHBAcc>
2

>  <nHBDon>
0

>  <SLogP>
2.09

>  <TopoPSA>
18.46

>  <MMFF94 Energy>
17.366

$$$$
F/C=C/O/C=C/F
Actelion Java MolfileCreator 2.0

  0  0  0  0  0  0              0 V3000
M  V30 BEGIN CTAB
M  V30 COUNTS 11 10 0 0 0
M  V30 BEGIN ATOM
M  V30 1 F 3.2619 -1.2416 -0.0775 0
M  V30 2 C 1.9253 -1.3218 -0.2053 0
M  V30 3 C 1.1428 -0.2649 -0.006 0
M  V30 4 O -0.2197 -0.335 -0.1334 0
M  V30 5 C -0.9699 0.7906 0.0856 0
M  V30 6 C -2.2955 0.7871 -0.0223 0
M  V30 7 F -3.022 1.8981 0.195 0
M  V30 8 H 1.6092 -2.3175 -0.4782 0
M  V30 9 H 1.5482 0.6984 0.266 0
M  V30 10 H -0.4243 1.684 0.3516 0
M  V30 11 H -2.9205 -0.0542 -0.2817 0
M  V30 END ATOM
M  V30 BEGIN BOND
M  V30 1 1 1 2
M  V30 2 2 2 3
M  V30 3 1 3 4
M  V30 4 1 4 5
M  V30 5 2 5 6
M  V30 6 1 6 7
M  V30 7 1 2 8
M  V30 8 1 3 9
M  V30 9 1 5 10
M  V30 10 1 6 11
M  V30 END BOND
M  V30 END CTAB
M  END
>  <NO.>
634

>  <Name>
s111

>  <SMILES>
F/C=C/O/C=C/F

>  <logBB>
0.13

>  <Class>
1

>  <MW>
106.02

>  <nHBAcc>
1

>  <nHBDon>
0

>  <SLogP>
1.88

>  <TopoPSA>
9.23

>  <MMFF94 Energy>
6.6182

$$$$
O=C(OCc1ccccc1)N1CCC(CNc2ccncc2)CC1
Actelion Java MolfileCreator 2.0

  0  0  0  0  0  0              0 V3000
M  V30 BEGIN CTAB
M  V30 COUNTS 47 49 0 0 0
M  V30 BEGIN ATOM
M  V30 1 O -2.2164 -2.5334 -1.5828 0
M  V30 2 C -2.108 -1.3799 -1.183 0
M  V30 3 O -3.116 -0.7014 -0.5774 0
M  V30 4 N -0.9539 -0.626 -1.2953 0
M  V30 5 C -4.3233 -1.4521 -0.442 0
M  V30 6 C 0.2167 -1.1865 -1.9534 0
M  V30 7 C -0.8435 0.7615 -0.8587 0
M  V30 8 C -5.335 -0.5755 0.2504 0
M  V30 9 C 1.4608 -1.0298 -1.0829 0
M  V30 10 C 0.3803 0.9525 0.0334 0
M  V30 11 C -5.4362 -0.5731 1.6487 0
M  V30 12 C -6.1609 0.2803 -0.4917 0
M  V30 13 C 1.6598 0.4342 -0.6468 0
M  V30 14 C -6.3608 0.253 2.2899 0
M  V30 15 C -7.0848 1.1057 0.1512 0
M  V30 16 C 2.8606 0.5842 0.3014 0
M  V30 17 C -7.1862 1.0899 1.5412 0
M  V30 18 N 4.105 0.3346 -0.4042 0
M  V30 19 C 5.3489 0.3472 0.2011 0
M  V30 20 C 5.5432 0.578 1.5622 0
M  V30 21 C 6.4837 0.0921 -0.5716 0
M  V30 22 C 6.8321 0.5568 2.0785 0
M  V30 23 C 7.734 0.0901 0.0302 0
M  V30 24 N 7.9357 0.3195 1.3423 0
M  V30 25 H -4.1451 -2.3575 0.1512 0
M  V30 26 H -4.7002 -1.7486 -1.4287 0
M  V30 27 H 0.3457 -0.6514 -2.9017 0
M  V30 28 H 0.0668 -2.2437 -2.1941 0
M  V30 29 H -1.7377 1.0934 -0.324 0
M  V30 30 H -0.7571 1.3793 -1.7604 0
M  V30 31 H 2.3341 -1.3895 -1.6381 0
M  V30 32 H 1.3594 -1.666 -0.1941 0
M  V30 33 H 0.4878 2.0153 0.2795 0
M  V30 34 H 0.2242 0.4163 0.9785 0
M  V30 35 H -4.792 -1.2145 2.246 0
M  V30 36 H -6.0858 0.3095 -1.5764 0
M  V30 37 H 1.8394 1.0412 -1.5452 0
M  V30 38 H -6.4351 0.2455 3.3742 0
M  V30 39 H -7.7235 1.7633 -0.4323 0
M  V30 40 H 2.7528 -0.1111 1.1428 0
M  V30 41 H 2.8777 1.6038 0.7054 0
M  V30 42 H -7.9052 1.7335 2.0411 0
M  V30 43 H 4.0731 0.2256 -1.4108 0
M  V30 44 H 4.7165 0.7763 2.2328 0
M  V30 45 H 6.4055 -0.1056 -1.6344 0
M  V30 46 H 7.0107 0.7359 3.1347 0
M  V30 47 H 8.6312 -0.104 -0.5496 0
M  V30 END ATOM
M  V30 BEGIN BOND
M  V30 1 2 1 2
M  V30 2 1 2 3
M  V30 3 1 2 4
M  V30 4 1 3 5
M  V30 5 1 4 6
M  V30 6 1 4 7
M  V30 7 1 5 8
M  V30 8 1 6 9
M  V30 9 1 7 10
M  V30 10 2 8 11
M  V30 11 1 8 12
M  V30 12 1 9 13
M  V30 13 1 11 14
M  V30 14 2 12 15
M  V30 15 1 13 16
M  V30 16 2 14 17
M  V30 17 1 16 18
M  V30 18 1 18 19
M  V30 19 2 19 20
M  V30 20 1 19 21
M  V30 21 1 20 22
M  V30 22 2 21 23
M  V30 23 2 22 24
M  V30 24 1 10 13
M  V30 25 1 15 17
M  V30 26 1 23 24
M  V30 27 1 5 25
M  V30 28 1 5 26
M  V30 29 1 6 27
M  V30 30 1 6 28
M  V30 31 1 7 29
M  V30 32 1 7 30
M  V30 33 1 9 31
M  V30 34 1 9 32
M  V30 35 1 10 33
M  V30 36 1 10 34
M  V30 37 1 11 35
M  V30 38 1 12 36
M  V30 39 1 13 37
M  V30 40 1 14 38
M  V30 41 1 15 39
M  V30 42 1 16 40
M  V30 43 1 16 41
M  V30 44 1 17 42
M  V30 45 1 18 43
M  V30 46 1 20 44
M  V30 47 1 21 45
M  V30 48 1 22 46
M  V30 49 1 23 47
M  V30 END BOND
M  V30 END CTAB
M  END
>  <NO.>
637

>  <Name>
chembl219060

>  <SMILES>
O=C(OCc1ccccc1)N1CCC(CNc2ccncc2)CC1

>  <logBB>
0.13

>  <Class>
1

>  <MW>
325.18

>  <nHBAcc>
4

>  <nHBDon>
1

>  <SLogP>
3.54

>  <TopoPSA>
54.46

>  <MMFF94 Energy>
-25.803

$$$$
CCN(CC)CCNC(=O)c1ccc(N)c(Cl)c1
Actelion Java MolfileCreator 2.0

  0  0  0  0  0  0              0 V3000
M  V30 BEGIN CTAB
M  V30 COUNTS 38 38 0 0 0
M  V30 BEGIN ATOM
M  V30 1 Cl -3.1437 2.4357 1.5709 0
M  V30 2 C -2.8484 2.1285 -0.1078 0
M  V30 3 C -3.7993 2.4927 -1.0792 0
M  V30 4 C -1.644 1.5124 -0.4617 0
M  V30 5 N -4.9899 3.1246 -0.749 0
M  V30 6 C -3.5 2.245 -2.4213 0
M  V30 7 C -1.3701 1.2487 -1.8068 0
M  V30 8 C -2.2975 1.6296 -2.7842 0
M  V30 9 C -0.105 0.6002 -2.2524 0
M  V30 10 O 0.3094 0.7812 -3.3922 0
M  V30 11 N 0.532 -0.2038 -1.34 0
M  V30 12 C 1.8052 -0.8405 -1.6207 0
M  V30 13 C 2.0692 -1.9964 -0.6368 0
M  V30 14 N 1.7978 -1.6237 0.7763 0
M  V30 15 C 2.8353 -0.7098 1.2936 0
M  V30 16 C 1.6862 -2.8492 1.5919 0
M  V30 17 C 2.1891 0.5118 1.9349 0
M  V30 18 C 1.1867 -2.5917 3.0096 0
M  V30 19 H -0.9266 1.2719 0.3159 0
M  V30 20 H -5.6893 3.3327 -1.4471 0
M  V30 21 H -5.2111 3.2749 0.2287 0
M  V30 22 H -4.2003 2.5316 -3.2019 0
M  V30 23 H -2.0861 1.4478 -3.8368 0
M  V30 24 H 0.1678 -0.3662 -0.4088 0
M  V30 25 H 2.5775 -0.0677 -1.5492 0
M  V30 26 H 1.8033 -1.2142 -2.6504 0
M  V30 27 H 1.3845 -2.8054 -0.9244 0
M  V30 28 H 3.0886 -2.3817 -0.763 0
M  V30 29 H 3.4961 -1.2048 2.0159 0
M  V30 30 H 3.4998 -0.3529 0.4979 0
M  V30 31 H 0.9587 -3.5252 1.1247 0
M  V30 32 H 2.6426 -3.3862 1.6269 0
M  V30 33 H 2.9624 1.1832 2.3224 0
M  V30 34 H 1.5356 0.2401 2.769 0
M  V30 35 H 1.5962 1.0735 1.2058 0
M  V30 36 H 1.01 -3.5442 3.5204 0
M  V30 37 H 0.2419 -2.038 3.0002 0
M  V30 38 H 1.9138 -2.0314 3.6048 0
M  V30 END ATOM
M  V30 BEGIN BOND
M  V30 1 1 1 2
M  V30 2 2 2 3
M  V30 3 1 2 4
M  V30 4 1 3 5
M  V30 5 1 3 6
M  V30 6 2 4 7
M  V30 7 2 6 8
M  V30 8 1 7 9
M  V30 9 2 9 10
M  V30 10 1 9 11
M  V30 11 1 11 12
M  V30 12 1 12 13
M  V30 13 1 13 14
M  V30 14 1 14 15
M  V30 15 1 14 16
M  V30 16 1 15 17
M  V30 17 1 16 18
M  V30 18 1 7 8
M  V30 19 1 4 19
M  V30 20 1 5 20
M  V30 21 1 5 21
M  V30 22 1 6 22
M  V30 23 1 8 23
M  V30 24 1 11 24
M  V30 25 1 12 25
M  V30 26 1 12 26
M  V30 27 1 13 27
M  V30 28 1 13 28
M  V30 29 1 15 29
M  V30 30 1 15 30
M  V30 31 1 16 31
M  V30 32 1 16 32
M  V30 33 1 17 33
M  V30 34 1 17 34
M  V30 35 1 17 35
M  V30 36 1 18 36
M  V30 37 1 18 37
M  V30 38 1 18 38
M  V30 END BOND
M  V30 END CTAB
M  END
>  <NO.>
639

>  <Name>
declopramide

>  <SMILES>
CCN(CC)CCNC(=O)c1ccc(N)c(Cl)c1

>  <logBB>
0.14

>  <Class>
1

>  <MW>
269.13

>  <nHBAcc>
3

>  <nHBDon>
2

>  <SLogP>
1.99

>  <TopoPSA>
58.36

>  <MMFF94 Energy>
32.713

$$$$
O=C(O)COc1ccc(Cl)cc1Cl
Actelion Java MolfileCreator 2.0

  0  0  0  0  0  0              0 V3000
M  V30 BEGIN CTAB
M  V30 COUNTS 19 19 0 0 0
M  V30 BEGIN ATOM
M  V30 1 Cl 0.9931 1.9042 -2.3185 0
M  V30 2 C 0.4645 1.7269 -0.6806 0
M  V30 3 C 0.1325 0.466 -0.152 0
M  V30 4 C 0.3776 2.8808 0.1023 0
M  V30 5 O 0.249 -0.6065 -0.9961 0
M  V30 6 C -0.2889 0.3854 1.1801 0
M  V30 7 C -0.0431 2.7802 1.4236 0
M  V30 8 C -0.0797 -1.893 -0.4889 0
M  V30 9 C -0.3761 1.5408 1.9651 0
M  V30 10 Cl -0.1539 4.1938 2.3974 0
M  V30 11 C 0.1084 -2.9522 -1.5597 0
M  V30 12 O 0.4826 -2.8063 -2.7107 0
M  V30 13 O -0.1976 -4.1883 -1.1037 0
M  V30 14 H 0.6369 3.8485 -0.3181 0
M  V30 15 H -0.5583 -0.5582 1.6438 0
M  V30 16 H -1.1326 -1.9183 -0.1859 0
M  V30 17 H 0.5855 -2.1485 0.3436 0
M  V30 18 H -0.705 1.4652 2.9992 0
M  V30 19 H -0.0351 -4.7646 -1.8815 0
M  V30 END ATOM
M  V30 BEGIN BOND
M  V30 1 1 1 2
M  V30 2 2 2 3
M  V30 3 1 2 4
M  V30 4 1 3 5
M  V30 5 1 3 6
M  V30 6 2 4 7
M  V30 7 1 5 8
M  V30 8 2 6 9
M  V30 9 1 7 10
M  V30 10 1 8 11
M  V30 11 2 11 12
M  V30 12 1 11 13
M  V30 13 1 7 9
M  V30 14 1 4 14
M  V30 15 1 6 15
M  V30 16 1 8 16
M  V30 17 1 8 17
M  V30 18 1 9 18
M  V30 19 1 13 19
M  V30 END BOND
M  V30 END CTAB
M  END
>  <NO.>
643

>  <Name>
2,4-dichlorophenoxyacetic acid

>  <SMILES>
O=C(O)COc1ccc(Cl)cc1Cl

>  <logBB>
0.15

>  <Class>
1

>  <MW>
219.97

>  <nHBAcc>
2

>  <nHBDon>
1

>  <SLogP>
2.46

>  <TopoPSA>
46.53

>  <MMFF94 Energy>
28.304

$$$$
Cc1ccc(C)c(C)c1
Actelion Java MolfileCreator 2.0

  0  0  0  0  0  0              0 V3000
M  V30 BEGIN CTAB
M  V30 COUNTS 21 21 0 0 0
M  V30 BEGIN ATOM
M  V30 1 C -0.3874 -0.775 0.3099 0
M  V30 2 C -0.9168 -0.1508 -0.8364 0
M  V30 3 C 0.75 -0.2283 0.928 0
M  V30 4 C -1.0149 -2.014 0.8881 0
M  V30 5 C -0.2998 1.0076 -1.331 0
M  V30 6 C -2.1327 -0.6936 -1.5357 0
M  V30 7 C 1.3716 0.9192 0.4204 0
M  V30 8 C 0.8293 1.5401 -0.7065 0
M  V30 9 C 2.5646 1.507 1.1137 0
M  V30 10 H 1.1589 -0.7036 1.8181 0
M  V30 11 H -2.0508 -1.8149 1.1807 0
M  V30 12 H -0.991 -2.8286 0.1574 0
M  V30 13 H -0.4812 -2.3567 1.7811 0
M  V30 14 H -0.6976 1.5091 -2.2106 0
M  V30 15 H -2.996 -0.6793 -0.8628 0
M  V30 16 H -2.3906 -0.0959 -2.4166 0
M  V30 17 H -1.9509 -1.7179 -1.8762 0
M  V30 18 H 1.2822 2.4433 -1.1085 0
M  V30 19 H 3.1713 0.7229 1.5788 0
M  V30 20 H 3.2085 2.0365 0.4034 0
M  V30 21 H 2.2394 2.2094 1.8874 0
M  V30 END ATOM
M  V30 BEGIN BOND
M  V30 1 2 1 2
M  V30 2 1 1 3
M  V30 3 1 1 4
M  V30 4 1 2 5
M  V30 5 1 2 6
M  V30 6 2 3 7
M  V30 7 2 5 8
M  V30 8 1 7 9
M  V30 9 1 7 8
M  V30 10 1 3 10
M  V30 11 1 4 11
M  V30 12 1 4 12
M  V30 13 1 4 13
M  V30 14 1 5 14
M  V30 15 1 6 15
M  V30 16 1 6 16
M  V30 17 1 6 17
M  V30 18 1 8 18
M  V30 19 1 9 19
M  V30 20 1 9 20
M  V30 21 1 9 21
M  V30 END BOND
M  V30 END CTAB
M  END
>  <NO.>
645

>  <Name>
1,2,4-trimethylbenzene

>  <SMILES>
Cc1ccc(C)c(C)c1

>  <logBB>
0.16

>  <Class>
1

>  <MW>
120.09

>  <nHBAcc>
0

>  <nHBDon>
0

>  <SLogP>
2.61

>  <TopoPSA>
0

>  <MMFF94 Energy>
24.213

$$$$
Clc1ccc(NC2=NCCN2)c(Cl)c1
Actelion Java MolfileCreator 2.0

  0  0  0  0  0  0              0 V3000
M  V30 BEGIN CTAB
M  V30 COUNTS 23 24 0 0 0
M  V30 BEGIN ATOM
M  V30 1 Cl -0.2451 3.2728 1.3081 0
M  V30 2 C -1.14 1.7885 1.3727 0
M  V30 3 C -0.6803 0.647 0.6779 0
M  V30 4 C -2.3154 1.769 2.1285 0
M  V30 5 N 0.5152 0.7214 -0.0651 0
M  V30 6 C -1.45 -0.5187 0.7807 0
M  V30 7 C -3.0554 0.5956 2.2042 0
M  V30 8 C 1.1161 -0.2108 -0.8442 0
M  V30 9 C -2.6291 -0.5471 1.5357 0
M  V30 10 Cl -4.5038 0.5555 3.1309 0
M  V30 11 N 0.7252 -1.4107 -1.1633 0
M  V30 12 N 2.3071 0.1778 -1.3644 0
M  V30 13 C 1.787 -1.9433 -2.0624 0
M  V30 14 C 2.906 -0.8984 -2.1005 0
M  V30 15 H -2.6478 2.6607 2.6519 0
M  V30 16 H 0.9415 1.6376 -0.0453 0
M  V30 17 H -1.1493 -1.433 0.276 0
M  V30 18 H -3.2035 -1.4685 1.5925 0
M  V30 19 H 2.8457 0.9633 -1.0373 0
M  V30 20 H 1.3667 -2.1062 -3.0606 0
M  V30 21 H 2.1539 -2.902 -1.682 0
M  V30 22 H 3.8073 -1.2621 -1.5979 0
M  V30 23 H 3.1547 -0.6042 -3.1239 0
M  V30 END ATOM
M  V30 BEGIN BOND
M  V30 1 1 1 2
M  V30 2 2 2 3
M  V30 3 1 2 4
M  V30 4 1 3 5
M  V30 5 1 3 6
M  V30 6 2 4 7
M  V30 7 1 5 8
M  V30 8 2 6 9
M  V30 9 1 7 10
M  V30 10 2 8 11
M  V30 11 1 8 12
M  V30 12 1 11 13
M  V30 13 1 12 14
M  V30 14 1 7 9
M  V30 15 1 13 14
M  V30 16 1 4 15
M  V30 17 1 5 16
M  V30 18 1 6 17
M  V30 19 1 9 18
M  V30 20 1 12 19
M  V30 21 1 13 20
M  V30 22 1 13 21
M  V30 23 1 14 22
M  V30 24 1 14 23
M  V30 END BOND
M  V30 END CTAB
M  END
>  <NO.>
646

>  <Name>
st 363

>  <SMILES>
Clc1ccc(NC2=NCCN2)c(Cl)c1

>  <logBB>
0.16

>  <Class>
1

>  <MW>
229.02

>  <nHBAcc>
3

>  <nHBDon>
2

>  <SLogP>
2.36

>  <TopoPSA>
36.42

>  <MMFF94 Energy>
-36.845

$$$$
O=C1CCCN1CCCCN1CCN(c2cc(C(F)(F)F)cc(Cl)n2)CC1
Actelion Java MolfileCreator 2.0

  0  0  0  0  0  0              0 V3000
M  V30 BEGIN CTAB
M  V30 COUNTS 51 53 0 0 0
M  V30 BEGIN ATOM
M  V30 1 Cl 0.1612 0.5643 -6.221 0
M  V30 2 C -1.2176 0.8996 -5.2578 0
M  V30 3 N -0.989 0.8914 -3.9307 0
M  V30 4 C -2.439 1.1574 -5.84 0
M  V30 5 C -2.0155 1.14 -3.091 0
M  V30 6 C -3.5081 1.4301 -4.9919 0
M  V30 7 N -1.7732 1.1434 -1.722 0
M  V30 8 C -3.2791 1.4304 -3.6066 0
M  V30 9 C -4.8651 1.7661 -5.5419 0
M  V30 10 C -2.7553 0.5365 -0.8098 0
M  V30 11 C -0.367 0.9545 -1.3182 0
M  V30 12 F -5.0291 3.1034 -5.7289 0
M  V30 13 F -5.1082 1.185 -6.7489 0
M  V30 14 F -5.8824 1.3721 -4.7272 0
M  V30 15 C -2.4648 0.9125 0.6624 0
M  V30 16 C -0.157 1.321 0.1677 0
M  V30 17 N -1.0805 0.6038 1.0777 0
M  V30 18 C -0.8454 0.9677 2.4812 0
M  V30 19 C -0.171 -0.1731 3.2551 0
M  V30 20 C 1.2254 -0.5364 2.7484 0
M  V30 21 C 1.8853 -1.5784 3.6506 0
M  V30 22 N 3.1946 -1.9666 3.1583 0
M  V30 23 C 3.4733 -3.1776 2.543 0
M  V30 24 C 4.3719 -1.1569 3.3402 0
M  V30 25 O 2.688 -4.0796 2.3052 0
M  V30 26 C 4.9562 -3.2151 2.2666 0
M  V30 27 C 5.3577 -1.7477 2.3511 0
M  V30 28 H -2.5546 1.1541 -6.9189 0
M  V30 29 H -4.0981 1.6887 -2.9419 0
M  V30 30 H -3.7766 0.8641 -1.0274 0
M  V30 31 H -2.7275 -0.5549 -0.9226 0
M  V30 32 H 0.2994 1.5975 -1.907 0
M  V30 33 H -0.0704 -0.0894 -1.4835 0
M  V30 34 H -2.6718 1.9822 0.804 0
M  V30 35 H -3.1681 0.3561 1.2943 0
M  V30 36 H -0.286 2.4063 0.2824 0
M  V30 37 H 0.882 1.0911 0.4278 0
M  V30 38 H -1.7948 1.1765 2.9924 0
M  V30 39 H -0.2529 1.8868 2.5751 0
M  V30 40 H -0.8131 -1.0629 3.2267 0
M  V30 41 H -0.103 0.127 4.3086 0
M  V30 42 H 1.1665 -0.9338 1.7283 0
M  V30 43 H 1.8473 0.3654 2.7055 0
M  V30 44 H 1.2516 -2.4709 3.7036 0
M  V30 45 H 2.0087 -1.1949 4.6696 0
M  V30 46 H 4.164 -0.104 3.1322 0
M  V30 47 H 4.7126 -1.2714 4.3744 0
M  V30 48 H 5.4452 -3.8103 3.044 0
M  V30 49 H 5.1624 -3.6384 1.2808 0
M  V30 50 H 5.224 -1.2768 1.369 0
M  V30 51 H 6.3993 -1.6061 2.6523 0
M  V30 END ATOM
M  V30 BEGIN BOND
M  V30 1 1 1 2
M  V30 2 2 2 3
M  V30 3 1 2 4
M  V30 4 1 3 5
M  V30 5 2 4 6
M  V30 6 1 5 7
M  V30 7 2 5 8
M  V30 8 1 6 9
M  V30 9 1 7 10
M  V30 10 1 7 11
M  V30 11 1 9 12
M  V30 12 1 9 13
M  V30 13 1 9 14
M  V30 14 1 10 15
M  V30 15 1 11 16
M  V30 16 1 15 17
M  V30 17 1 17 18
M  V30 18 1 18 19
M  V30 19 1 19 20
M  V30 20 1 20 21
M  V30 21 1 21 22
M  V30 22 1 22 23
M  V30 23 1 22 24
M  V30 24 2 23 25
M  V30 25 1 23 26
M  V30 26 1 24 27
M  V30 27 1 6 8
M  V30 28 1 16 17
M  V30 29 1 26 27
M  V30 30 1 4 28
M  V30 31 1 8 29
M  V30 32 1 10 30
M  V30 33 1 10 31
M  V30 34 1 11 32
M  V30 35 1 11 33
M  V30 36 1 15 34
M  V30 37 1 15 35
M  V30 38 1 16 36
M  V30 39 1 16 37
M  V30 40 1 18 38
M  V30 41 1 18 39
M  V30 42 1 19 40
M  V30 43 1 19 41
M  V30 44 1 20 42
M  V30 45 1 20 43
M  V30 46 1 21 44
M  V30 47 1 21 45
M  V30 48 1 24 46
M  V30 49 1 24 47
M  V30 50 1 26 48
M  V30 51 1 26 49
M  V30 52 1 27 50
M  V30 53 1 27 51
M  V30 END BOND
M  V30 END CTAB
M  END
>  <NO.>
647

>  <Name>
7-k08

>  <SMILES>
O=C1CCCN1CCCCN1CCN(c2cc(C(F)(F)F)cc(Cl)n2)CC1

>  <logBB>
0.16

>  <Class>
1

>  <MW>
404.16

>  <nHBAcc>
4

>  <nHBDon>
0

>  <SLogP>
3.28

>  <TopoPSA>
39.68

>  <MMFF94 Energy>
40.466

$$$$
O=C1CCCN1CCCCN1CCN(c2cc(C(F)(F)F)ccn2)CC1
Actelion Java MolfileCreator 2.0

  0  0  0  0  0  0              0 V3000
M  V30 BEGIN CTAB
M  V30 COUNTS 51 53 0 0 0
M  V30 BEGIN ATOM
M  V30 1 F 4.8815 -1.4385 6.7268 0
M  V30 2 C 3.5987 -1.893 6.7169 0
M  V30 3 F 2.8378 -0.8795 7.2169 0
M  V30 4 F 3.5471 -2.8878 7.6463 0
M  V30 5 C 3.1597 -2.3391 5.351 0
M  V30 6 C 2.644 -1.4111 4.4329 0
M  V30 7 C 3.2949 -3.6657 4.9507 0
M  V30 8 C 2.2542 -1.8146 3.1572 0
M  V30 9 C 2.9081 -3.9945 3.6689 0
M  V30 10 N 2.4058 -3.1054 2.7853 0
M  V30 11 N 1.7471 -0.9056 2.2351 0
M  V30 12 C 0.7367 0.0671 2.6742 0
M  V30 13 C 1.545 -1.4216 0.8713 0
M  V30 14 C 0.529 1.1726 1.6137 0
M  V30 15 C 1.3076 -0.2727 -0.1361 0
M  V30 16 N 0.2144 0.6435 0.266 0
M  V30 17 C 0.047 1.7566 -0.683 0
M  V30 18 C -0.5699 1.3051 -2.0137 0
M  V30 19 C -0.839 2.5037 -2.9275 0
M  V30 20 C -1.3397 2.106 -4.3177 0
M  V30 21 N -2.6764 1.5418 -4.3184 0
M  V30 22 C -3.8361 2.2917 -4.1875 0
M  V30 23 C -2.9384 0.1248 -4.3482 0
M  V30 24 O -3.9155 3.5042 -4.0831 0
M  V30 25 C -4.9966 1.329 -4.1362 0
M  V30 26 C -4.4067 0.0522 -4.7228 0
M  V30 27 H 2.5798 -0.3666 4.7216 0
M  V30 28 H 3.6975 -4.4238 5.6152 0
M  V30 29 H 2.9944 -5.012 3.2987 0
M  V30 30 H -0.2134 -0.4521 2.8547 0
M  V30 31 H 1.0215 0.5647 3.6068 0
M  V30 32 H 2.4273 -1.9772 0.5285 0
M  V30 33 H 0.6841 -2.103 0.8555 0
M  V30 34 H 1.4329 1.7959 1.5715 0
M  V30 35 H -0.293 1.8134 1.9556 0
M  V30 36 H 1.0781 -0.7336 -1.1025 0
M  V30 37 H 2.2437 0.2896 -0.2558 0
M  V30 38 H 1.0015 2.2686 -0.8612 0
M  V30 39 H -0.6332 2.4981 -0.2433 0
M  V30 40 H -1.5077 0.7776 -1.8086 0
M  V30 41 H 0.0965 0.6075 -2.5319 0
M  V30 42 H -1.5602 3.1761 -2.4471 0
M  V30 43 H 0.0918 3.0711 -3.0511 0
M  V30 44 H -0.6547 1.4019 -4.8021 0
M  V30 45 H -1.3743 3.0115 -4.9353 0
M  V30 46 H -2.3021 -0.3717 -5.086 0
M  V30 47 H -2.7572 -0.2954 -3.3554 0
M  V30 48 H -5.2948 1.1909 -3.0923 0
M  V30 49 H -5.8402 1.697 -4.7249 0
M  V30 50 H -4.5121 0.0705 -5.8149 0
M  V30 51 H -4.8958 -0.8533 -4.3534 0
M  V30 END ATOM
M  V30 BEGIN BOND
M  V30 1 1 1 2
M  V30 2 1 2 3
M  V30 3 1 2 4
M  V30 4 1 2 5
M  V30 5 2 5 6
M  V30 6 1 5 7
M  V30 7 1 6 8
M  V30 8 2 7 9
M  V30 9 2 8 10
M  V30 10 1 8 11
M  V30 11 1 11 12
M  V30 12 1 11 13
M  V30 13 1 12 14
M  V30 14 1 13 15
M  V30 15 1 14 16
M  V30 16 1 16 17
M  V30 17 1 17 18
M  V30 18 1 18 19
M  V30 19 1 19 20
M  V30 20 1 20 21
M  V30 21 1 21 22
M  V30 22 1 21 23
M  V30 23 2 22 24
M  V30 24 1 22 25
M  V30 25 1 23 26
M  V30 26 1 9 10
M  V30 27 1 15 16
M  V30 28 1 25 26
M  V30 29 1 6 27
M  V30 30 1 7 28
M  V30 31 1 9 29
M  V30 32 1 12 30
M  V30 33 1 12 31
M  V30 34 1 13 32
M  V30 35 1 13 33
M  V30 36 1 14 34
M  V30 37 1 14 35
M  V30 38 1 15 36
M  V30 39 1 15 37
M  V30 40 1 17 38
M  V30 41 1 17 39
M  V30 42 1 18 40
M  V30 43 1 18 41
M  V30 44 1 19 42
M  V30 45 1 19 43
M  V30 46 1 20 44
M  V30 47 1 20 45
M  V30 48 1 23 46
M  V30 49 1 23 47
M  V30 50 1 25 48
M  V30 51 1 25 49
M  V30 52 1 26 50
M  V30 53 1 26 51
M  V30 END BOND
M  V30 END CTAB
M  END
>  <NO.>
648

>  <Name>
org13011

>  <SMILES>
O=C1CCCN1CCCCN1CCN(c2cc(C(F)(F)F)ccn2)CC1

>  <logBB>
0.16

>  <Class>
1

>  <MW>
370.2

>  <nHBAcc>
4

>  <nHBDon>
0

>  <SLogP>
2.63

>  <TopoPSA>
39.68

>  <MMFF94 Energy>
48.679

$$$$
CCC(C)(C)OC
Actelion Java MolfileCreator 2.0

  0  0  0  0  0  0              0 V3000
M  V30 BEGIN CTAB
M  V30 COUNTS 21 20 0 0 0
M  V30 BEGIN ATOM
M  V30 1 O -0.3802 1.4456 0.8367 0
M  V30 2 C -0.3194 0.316 -0.0571 0
M  V30 3 C 0.841 1.8917 1.4056 0
M  V30 4 C 0.2008 -0.9372 0.6869 0
M  V30 5 C -1.7753 0.1167 -0.5089 0
M  V30 6 C 0.5316 0.6491 -1.2912 0
M  V30 7 C 0.1281 -2.2456 -0.0894 0
M  V30 8 H 0.6228 2.7744 2.0141 0
M  V30 9 H 1.559 2.1868 0.6369 0
M  V30 10 H 1.2723 1.1347 2.0648 0
M  V30 11 H 1.247 -0.7836 0.9779 0
M  V30 12 H -0.3501 -1.0513 1.6296 0
M  V30 13 H -1.8736 -0.6605 -1.2727 0
M  V30 14 H -2.4133 -0.1482 0.3422 0
M  V30 15 H -2.1835 1.0473 -0.9216 0
M  V30 16 H 0.2638 1.6326 -1.6941 0
M  V30 17 H 0.405 -0.0923 -2.0865 0
M  V30 18 H 1.5976 0.687 -1.0433 0
M  V30 19 H 0.6864 -2.1889 -1.028 0
M  V30 20 H 0.5639 -3.0544 0.5065 0
M  V30 21 H -0.9052 -2.5258 -0.3123 0
M  V30 END ATOM
M  V30 BEGIN BOND
M  V30 1 1 1 2
M  V30 2 1 1 3
M  V30 3 1 2 4
M  V30 4 1 2 5
M  V30 5 1 2 6
M  V30 6 1 4 7
M  V30 7 1 3 8
M  V30 8 1 3 9
M  V30 9 1 3 10
M  V30 10 1 4 11
M  V30 11 1 4 12
M  V30 12 1 5 13
M  V30 13 1 5 14
M  V30 14 1 5 15
M  V30 15 1 6 16
M  V30 16 1 6 17
M  V30 17 1 6 18
M  V30 18 1 7 19
M  V30 19 1 7 20
M  V30 20 1 7 21
M  V30 END BOND
M  V30 END CTAB
M  END
>  <NO.>
649

>  <Name>
tert-amylmethylether

>  <SMILES>
CCC(C)(C)OC

>  <logBB>
0.17

>  <Class>
1

>  <MW>
102.1

>  <nHBAcc>
1

>  <nHBDon>
0

>  <SLogP>
1.82

>  <TopoPSA>
9.23

>  <MMFF94 Energy>
18.503

$$$$
FC(F)(F)c1ccc(Cl)cc1
Actelion Java MolfileCreator 2.0

  0  0  0  0  0  0              0 V3000
M  V30 BEGIN CTAB
M  V30 COUNTS 15 15 0 0 0
M  V30 BEGIN ATOM
M  V30 1 Cl 1.6726 -0.6688 3.3473 0
M  V30 2 C 0.9103 -0.3603 1.8366 0
M  V30 3 C -0.4783 -0.4167 1.7374 0
M  V30 4 C 1.6852 -0.0581 0.7189 0
M  V30 5 C -1.0981 -0.1666 0.5102 0
M  V30 6 C 1.0663 0.192 -0.5087 0
M  V30 7 C -0.3328 0.1482 -0.6246 0
M  V30 8 C -1.001 0.3961 -1.9565 0
M  V30 9 F -1.1517 -0.7472 -2.679 0
M  V30 10 F -2.2477 0.9316 -1.8367 0
M  V30 11 F -0.3034 1.2537 -2.7521 0
M  V30 12 H -1.0828 -0.6556 2.6089 0
M  V30 13 H 2.7688 -0.0173 0.7957 0
M  V30 14 H -2.1844 -0.2165 0.4423 0
M  V30 15 H 1.6813 0.424 -1.3775 0
M  V30 END ATOM
M  V30 BEGIN BOND
M  V30 1 1 1 2
M  V30 2 2 2 3
M  V30 3 1 2 4
M  V30 4 1 3 5
M  V30 5 2 4 6
M  V30 6 2 5 7
M  V30 7 1 7 8
M  V30 8 1 8 9
M  V30 9 1 8 10
M  V30 10 1 8 11
M  V30 11 1 6 7
M  V30 12 1 3 12
M  V30 13 1 4 13
M  V30 14 1 5 14
M  V30 15 1 6 15
M  V30 END BOND
M  V30 END CTAB
M  END
>  <NO.>
650

>  <Name>
4-chlorobenzotrifluoride

>  <SMILES>
FC(F)(F)c1ccc(Cl)cc1

>  <logBB>
0.17

>  <Class>
1

>  <MW>
180

>  <nHBAcc>
0

>  <nHBDon>
0

>  <SLogP>
3.36

>  <TopoPSA>
0

>  <MMFF94 Energy>
42.871

$$$$
Cc1cc(-c2ccccc2)nnc1N1CCN(c2ncccn2)CC1
Actelion Java MolfileCreator 2.0

  0  0  0  0  0  0              0 V3000
M  V30 BEGIN CTAB
M  V30 COUNTS 45 48 0 0 0
M  V30 BEGIN ATOM
M  V30 1 N -0.1597 -0.2396 -1.1188 0
M  V30 2 N -1.4864 -0.1163 -1.4915 0
M  V30 3 C 0.6335 0.8371 -0.9358 0
M  V30 4 C -2.0296 1.0975 -1.7009 0
M  V30 5 N 1.9509 0.6532 -0.5249 0
M  V30 6 C 0.1112 2.1096 -1.1824 0
M  V30 7 C -3.4543 1.1274 -2.0825 0
M  V30 8 C -1.242 2.2293 -1.5461 0
M  V30 9 C 2.5872 -0.6265 -0.894 0
M  V30 10 C 2.2821 1.0841 0.8455 0
M  V30 11 C 0.9321 3.3638 -1.0778 0
M  V30 12 C -4.3388 0.1277 -1.6339 0
M  V30 13 C -3.9889 2.1361 -2.9062 0
M  V30 14 C 2.3107 -1.7536 0.1273 0
M  V30 15 C 1.9564 -0.0096 1.8878 0
M  V30 16 C -5.6938 0.1406 -1.979 0
M  V30 17 C -5.3443 2.1513 -3.2538 0
M  V30 18 N 2.5364 -1.3011 1.5071 0
M  V30 19 C -6.1963 1.1547 -2.7876 0
M  V30 20 C 2.63 -2.2722 2.4858 0
M  V30 21 N 2.8635 -3.5448 2.1196 0
M  V30 22 N 2.5037 -1.9103 3.7753 0
M  V30 23 C 2.9608 -4.4732 3.0896 0
M  V30 24 C 2.6087 -2.8712 4.7128 0
M  V30 25 C 2.8394 -4.1897 4.4238 0
M  V30 26 H -1.666 3.2165 -1.7016 0
M  V30 27 H 2.2995 -0.9422 -1.9046 0
M  V30 28 H 3.671 -0.4539 -0.9291 0
M  V30 29 H 3.3588 1.2945 0.8802 0
M  V30 30 H 1.7769 2.0135 1.127 0
M  V30 31 H 1.9881 3.178 -1.2971 0
M  V30 32 H 0.8412 3.7935 -0.0757 0
M  V30 33 H 0.5915 4.1096 -1.8049 0
M  V30 34 H -3.9707 -0.6787 -1.0 0
M  V30 35 H -3.3508 2.9191 -3.3093 0
M  V30 36 H 2.9733 -2.5878 -0.134 0
M  V30 37 H 1.2788 -2.1106 0.03 0
M  V30 38 H 0.8684 -0.1149 1.986 0
M  V30 39 H 2.3477 0.3417 2.8503 0
M  V30 40 H -6.3514 -0.645 -1.616 0
M  V30 41 H -5.7311 2.9391 -3.8952 0
M  V30 42 H -7.2485 1.1641 -3.0593 0
M  V30 43 H 3.1462 -5.4849 2.7424 0
M  V30 44 H 2.497 -2.5302 5.7374 0
M  V30 45 H 2.9205 -4.9474 5.1889 0
M  V30 END ATOM
M  V30 BEGIN BOND
M  V30 1 2 1 2
M  V30 2 1 1 3
M  V30 3 1 2 4
M  V30 4 1 3 5
M  V30 5 2 3 6
M  V30 6 1 4 7
M  V30 7 2 4 8
M  V30 8 1 5 9
M  V30 9 1 5 10
M  V30 10 1 6 11
M  V30 11 2 7 12
M  V30 12 1 7 13
M  V30 13 1 9 14
M  V30 14 1 10 15
M  V30 15 1 12 16
M  V30 16 2 13 17
M  V30 17 1 14 18
M  V30 18 2 16 19
M  V30 19 1 18 20
M  V30 20 2 20 21
M  V30 21 1 20 22
M  V30 22 1 21 23
M  V30 23 2 22 24
M  V30 24 2 23 25
M  V30 25 1 6 8
M  V30 26 1 15 18
M  V30 27 1 17 19
M  V30 28 1 24 25
M  V30 29 1 8 26
M  V30 30 1 9 27
M  V30 31 1 9 28
M  V30 32 1 10 29
M  V30 33 1 10 30
M  V30 34 1 11 31
M  V30 35 1 11 32
M  V30 36 1 11 33
M  V30 37 1 12 34
M  V30 38 1 13 35
M  V30 39 1 14 36
M  V30 40 1 14 37
M  V30 41 1 15 38
M  V30 42 1 15 39
M  V30 43 1 16 40
M  V30 44 1 17 41
M  V30 45 1 19 42
M  V30 46 1 23 43
M  V30 47 1 24 44
M  V30 48 1 25 45
M  V30 END BOND
M  V30 END CTAB
M  END
>  <NO.>
652

>  <Name>
minozac free base

>  <SMILES>
Cc1cc(-c2ccccc2)nnc1N1CCN(c2ncccn2)CC1

>  <logBB>
0.18

>  <Class>
1

>  <MW>
332.17

>  <nHBAcc>
6

>  <nHBDon>
0

>  <SLogP>
2.57

>  <TopoPSA>
58.04

>  <MMFF94 Energy>
52.049

$$$$
CCOc1ccc(-c2nn3ncccc3c2-c2ccc(S(C)(=O)=O)cc2)cc1
Actelion Java MolfileCreator 2.0

  0  0  0  0  0  0              0 V3000
M  V30 BEGIN CTAB
M  V30 COUNTS 47 50 0 0 0
M  V30 BEGIN ATOM
M  V30 1 S 5.1232 0.487 -1.543 0
M  V30 2 O 5.331 1.9176 -1.6603 0
M  V30 3 O 6.1801 -0.3807 -1.0591 0
M  V30 4 C 3.707 0.2397 -0.4972 0
M  V30 5 C 4.5805 -0.1285 -3.1154 0
M  V30 6 C 3.6209 -0.9102 0.2916 0
M  V30 7 C 2.7109 1.2184 -0.4485 0
M  V30 8 C 2.5122 -1.0921 1.1209 0
M  V30 9 C 1.604 1.0301 0.3813 0
M  V30 10 C 1.4994 -0.1242 1.1687 0
M  V30 11 C 0.3424 -0.3149 2.0212 0
M  V30 12 C -1.0509 -0.4137 1.7069 0
M  V30 13 C 0.4004 -0.3599 3.3996 0
M  V30 14 N -1.7877 -0.5106 2.8248 0
M  V30 15 C -1.7003 -0.4078 0.3931 0
M  V30 16 N -0.9027 -0.4908 3.8276 0
M  V30 17 C 1.4127 -0.286 4.3862 0
M  V30 18 C -1.1267 -1.0523 -0.7077 0
M  V30 19 C -2.9273 0.2474 0.2205 0
M  V30 20 N -1.3418 -0.5792 5.1044 0
M  V30 21 C 1.0614 -0.3641 5.6753 0
M  V30 22 C -1.7605 -1.0212 -1.9542 0
M  V30 23 C -3.5609 0.2758 -1.0286 0
M  V30 24 C -0.3831 -0.5194 5.97 0
M  V30 25 C -2.9797 -0.3605 -2.1229 0
M  V30 26 O -3.4774 -0.4078 -3.3941 0
M  V30 27 C -4.7958 0.0827 -3.634 0
M  V30 28 C -4.7636 1.5575 -3.9954 0
M  V30 29 H 3.7207 0.4547 -3.4503 0
M  V30 30 H 4.3186 -1.1834 -3.0139 0
M  V30 31 H 5.4032 -0.0169 -3.8248 0
M  V30 32 H 4.4066 -1.6627 0.272 0
M  V30 33 H 2.789 2.1276 -1.0414 0
M  V30 34 H 2.4422 -1.9936 1.7267 0
M  V30 35 H 0.8284 1.7937 0.4159 0
M  V30 36 H 2.4513 -0.1614 4.0966 0
M  V30 37 H -0.1932 -1.5993 -0.612 0
M  V30 38 H -3.4007 0.7442 1.0665 0
M  V30 39 H 1.7645 -0.3136 6.4951 0
M  V30 40 H -1.3036 -1.5272 -2.8012 0
M  V30 41 H -4.5021 0.8089 -1.1035 0
M  V30 42 H -0.6337 -0.5842 7.0421 0
M  V30 43 H -5.483 -0.1312 -2.808 0
M  V30 44 H -5.1808 -0.4749 -4.4954 0
M  V30 45 H -5.7658 1.9155 -4.2478 0
M  V30 46 H -4.3745 2.1636 -3.1719 0
M  V30 47 H -4.1034 1.7272 -4.8525 0
M  V30 END ATOM
M  V30 BEGIN BOND
M  V30 1 2 1 2
M  V30 2 2 1 3
M  V30 3 1 1 4
M  V30 4 1 1 5
M  V30 5 2 4 6
M  V30 6 1 4 7
M  V30 7 1 6 8
M  V30 8 2 7 9
M  V30 9 2 8 10
M  V30 10 1 10 11
M  V30 11 1 11 12
M  V30 12 2 11 13
M  V30 13 2 12 14
M  V30 14 1 12 15
M  V30 15 1 13 16
M  V30 16 1 13 17
M  V30 17 2 15 18
M  V30 18 1 15 19
M  V30 19 1 16 20
M  V30 20 2 17 21
M  V30 21 1 18 22
M  V30 22 2 19 23
M  V30 23 2 20 24
M  V30 24 2 22 25
M  V30 25 1 25 26
M  V30 26 1 26 27
M  V30 27 1 27 28
M  V30 28 1 9 10
M  V30 29 1 14 16
M  V30 30 1 21 24
M  V30 31 1 23 25
M  V30 32 1 5 29
M  V30 33 1 5 30
M  V30 34 1 5 31
M  V30 35 1 6 32
M  V30 36 1 7 33
M  V30 37 1 8 34
M  V30 38 1 9 35
M  V30 39 1 17 36
M  V30 40 1 18 37
M  V30 41 1 19 38
M  V30 42 1 21 39
M  V30 43 1 22 40
M  V30 44 1 23 41
M  V30 45 1 24 42
M  V30 46 1 27 43
M  V30 47 1 27 44
M  V30 48 1 28 45
M  V30 49 1 28 46
M  V30 50 1 28 47
M  V30 END BOND
M  V30 END CTAB
M  END
>  <NO.>
653

>  <Name>
gw406381

>  <SMILES>
CCOc1ccc(-c2nn3ncccc3c2-c2ccc(S(C)(=O)=O)cc2)cc1

>  <logBB>
0.18

>  <Class>
1

>  <MW>
393.11

>  <nHBAcc>
5

>  <nHBDon>
0

>  <SLogP>
3.87

>  <TopoPSA>
73.56

>  <MMFF94 Energy>
69.754

$$$$
COc1ccc2c3c1O[C@H]1C[C@@H](O)C=C[C@@]31CCNC2
Actelion Java MolfileCreator 2.0

  0  0  0  0  0  0              0 V3000
M  V30 BEGIN CTAB
M  V30 COUNTS 39 42 0 0 0
M  V30 BEGIN ATOM
M  V30 1 O 0.3214 1.8495 0.1607 0
M  V30 2 C 0.9008 0.6862 0.618 0
M  V30 3 C -1.0633 1.4664 -0.0482 0 CFG=2
M  V30 4 C 2.1321 0.6287 1.2536 0
M  V30 5 C 0.1311 -0.4484 0.3595 0
M  V30 6 C -1.0998 -0.0558 -0.3971 0 CFG=2
M  V30 7 C -1.6786 2.361 -1.1253 0
M  V30 8 O 2.7895 1.8115 1.4283 0
M  V30 9 C 2.5768 -0.6298 1.6589 0
M  V30 10 C 0.561 -1.7089 0.756 0
M  V30 11 C -0.9197 -0.3101 -1.8872 0
M  V30 12 C -2.397 -0.6849 0.1423 0
M  V30 13 C -1.0623 2.1125 -2.5019 0 CFG=2
M  V30 14 C 4.0558 1.7575 2.0697 0
M  V30 15 C 1.8012 -1.7807 1.4139 0
M  V30 16 C -0.2152 -2.9597 0.446 0
M  V30 17 C -0.8843 0.6613 -2.8129 0
M  V30 18 C -2.5043 -2.208 0.0352 0
M  V30 19 O 0.2135 2.7289 -2.6036 0
M  V30 20 N -1.5981 -2.9339 0.9251 0
M  V30 21 H -1.5807 1.6687 0.9017 0
M  V30 22 H -1.53 3.4121 -0.8493 0
M  V30 23 H -2.758 2.1709 -1.1702 0
M  V30 24 H 3.5256 -0.7602 2.169 0
M  V30 25 H -0.7595 -1.3355 -2.211 0
M  V30 26 H -3.2523 -0.2509 -0.3937 0
M  V30 27 H -2.5369 -0.4089 1.1974 0
M  V30 28 H -1.7039 2.569 -3.2632 0
M  V30 29 H 3.9638 1.3822 3.0943 0
M  V30 30 H 4.4477 2.7779 2.1234 0
M  V30 31 H 4.7666 1.1581 1.4915 0
M  V30 32 H 2.1878 -2.7443 1.7421 0
M  V30 33 H -0.1582 -3.1846 -0.6259 0
M  V30 34 H 0.2746 -3.8033 0.9486 0
M  V30 35 H -0.6948 0.408 -3.853 0
M  V30 36 H -2.4074 -2.5533 -1.0001 0
M  V30 37 H -3.5247 -2.4758 0.338 0
M  V30 38 H 0.7243 2.4536 -1.8161 0
M  V30 39 H -1.9222 -3.8993 0.9839 0
M  V30 END ATOM
M  V30 BEGIN BOND
M  V30 1 1 1 2
M  V30 2 1 1 3
M  V30 3 2 2 4
M  V30 4 1 2 5
M  V30 5 1 3 6
M  V30 6 1 3 7
M  V30 7 1 4 8
M  V30 8 1 4 9
M  V30 9 2 5 10
M  V30 10 1 6 11
M  V30 11 1 6 12
M  V30 12 1 7 13
M  V30 13 1 8 14
M  V30 14 2 9 15
M  V30 15 1 10 16
M  V30 16 2 11 17
M  V30 17 1 12 18
M  V30 18 1 13 19
M  V30 19 1 16 20
M  V30 20 1 5 6
M  V30 21 1 10 15
M  V30 22 1 13 17
M  V30 23 1 18 20
M  V30 24 1 3 21
M  V30 25 1 7 22
M  V30 26 1 7 23
M  V30 27 1 9 24
M  V30 28 1 11 25
M  V30 29 1 12 26
M  V30 30 1 12 27
M  V30 31 1 13 28
M  V30 32 1 14 29
M  V30 33 1 14 30
M  V30 34 1 14 31
M  V30 35 1 15 32
M  V30 36 1 16 33
M  V30 37 1 16 34
M  V30 38 1 17 35
M  V30 39 1 18 36
M  V30 40 1 18 37
M  V30 41 1 19 38
M  V30 42 1 20 39
M  V30 END BOND
M  V30 BEGIN COLLECTION
M  V30 MDLV30/STEABS ATOMS=(3 3 6 13)
M  V30 END COLLECTION
M  V30 END CTAB
M  END
>  <NO.>
654

>  <Name>
norgalanthamine

>  <SMILES>
COc1ccc2c3c1O[C@H]1C[C@@H](O)C=C[C@@]31CCNC2

>  <logBB>
0.18

>  <Class>
1

>  <MW>
273.14

>  <nHBAcc>
4

>  <nHBDon>
2

>  <SLogP>
1.51

>  <TopoPSA>
50.72

>  <MMFF94 Energy>
53.602

$$$$
O=C1c2ccccc2S(=O)(=O)N1CCCCN[C@H]1CCc2ccccc2O1
Actelion Java MolfileCreator 2.0

  0  0  0  0  0  0              0 V3000
M  V30 BEGIN CTAB
M  V30 COUNTS 49 52 0 0 0
M  V30 BEGIN ATOM
M  V30 1 S 3.8971 0.8109 2.3531 0
M  V30 2 O 4.8536 1.6752 1.704 0
M  V30 3 O 2.6827 1.2856 2.9731 0
M  V30 4 N 3.5316 -0.476 1.3354 0
M  V30 5 C 4.7415 -0.2022 3.4865 0
M  V30 6 C 4.0184 -1.7214 1.7882 0
M  V30 7 C 2.7689 -0.2293 0.1134 0
M  V30 8 C 4.7312 -1.5252 3.0645 0
M  V30 9 C 5.3543 0.2041 4.6577 0
M  V30 10 O 3.8733 -2.7886 1.2238 0
M  V30 11 C 1.3076 -0.6176 0.3214 0
M  V30 12 C 5.3492 -2.5091 3.8202 0
M  V30 13 C 5.9797 -0.7806 5.4255 0
M  V30 14 C 0.4767 -0.3408 -0.932 0
M  V30 15 C 5.9774 -2.1262 5.0107 0
M  V30 16 C -0.9873 -0.7344 -0.7228 0
M  V30 17 N -1.7364 -0.452 -1.9383 0
M  V30 18 C -3.1175 -0.9371 -1.9223 0 CFG=2
M  V30 19 O -3.7404 -0.6636 -3.188 0
M  V30 20 C -4.0054 -0.4467 -0.7722 0
M  V30 21 C -4.2922 0.5815 -3.3355 0
M  V30 22 C -4.212 1.0569 -0.8609 0
M  V30 23 C -4.548 1.4505 -2.2691 0
M  V30 24 C -4.6215 0.9518 -4.6395 0
M  V30 25 C -5.1032 2.7104 -2.532 0
M  V30 26 C -5.184 2.2025 -4.8925 0
M  V30 27 C -5.421 3.0833 -3.8389 0
M  V30 28 H 3.209 -0.8077 -0.7069 0
M  V30 29 H 2.8443 0.8253 -0.1752 0
M  V30 30 H 5.3505 1.2445 4.968 0
M  V30 31 H 0.8912 -0.0587 1.1686 0
M  V30 32 H 1.2384 -1.6807 0.5826 0
M  V30 33 H 5.3463 -3.5466 3.4977 0
M  V30 34 H 6.4757 -0.5073 6.3556 0
M  V30 35 H 0.5432 0.7251 -1.1847 0
M  V30 36 H 0.8948 -0.9008 -1.7782 0
M  V30 37 H 6.4717 -2.8771 5.6252 0
M  V30 38 H -1.3913 -0.17 0.1247 0
M  V30 39 H -1.0432 -1.8023 -0.4813 0
M  V30 40 H -1.7417 0.5443 -2.1464 0
M  V30 41 H -3.0773 -2.0314 -1.8596 0
M  V30 42 H -3.6031 -0.7222 0.208 0
M  V30 43 H -4.9847 -0.9382 -0.8579 0
M  V30 44 H -5.0207 1.3498 -0.1811 0
M  V30 45 H -3.3046 1.5874 -0.5495 0
M  V30 46 H -4.43 0.2654 -5.4599 0
M  V30 47 H -5.2969 3.4057 -1.7182 0
M  V30 48 H -5.4335 2.4891 -5.9105 0
M  V30 49 H -5.8561 4.06 -4.035 0
M  V30 END ATOM
M  V30 BEGIN BOND
M  V30 1 2 1 2
M  V30 2 2 1 3
M  V30 3 1 1 4
M  V30 4 1 1 5
M  V30 5 1 4 6
M  V30 6 1 4 7
M  V30 7 2 5 8
M  V30 8 1 5 9
M  V30 9 2 6 10
M  V30 10 1 7 11
M  V30 11 1 8 12
M  V30 12 2 9 13
M  V30 13 1 11 14
M  V30 14 2 12 15
M  V30 15 1 14 16
M  V30 16 1 16 17
M  V30 17 1 17 18
M  V30 18 1 18 19
M  V30 19 1 18 20
M  V30 20 1 19 21
M  V30 21 1 20 22
M  V30 22 2 21 23
M  V30 23 1 21 24
M  V30 24 1 23 25
M  V30 25 2 24 26
M  V30 26 2 25 27
M  V30 27 1 6 8
M  V30 28 1 13 15
M  V30 29 1 22 23
M  V30 30 1 26 27
M  V30 31 1 7 28
M  V30 32 1 7 29
M  V30 33 1 9 30
M  V30 34 1 11 31
M  V30 35 1 11 32
M  V30 36 1 12 33
M  V30 37 1 13 34
M  V30 38 1 14 35
M  V30 39 1 14 36
M  V30 40 1 15 37
M  V30 41 1 16 38
M  V30 42 1 16 39
M  V30 43 1 17 40
M  V30 44 1 18 41
M  V30 45 1 20 42
M  V30 46 1 20 43
M  V30 47 1 22 44
M  V30 48 1 22 45
M  V30 49 1 24 46
M  V30 50 1 25 47
M  V30 51 1 26 48
M  V30 52 1 27 49
M  V30 END BOND
M  V30 BEGIN COLLECTION
M  V30 MDLV30/STEABS ATOMS=(1 18)
M  V30 END COLLECTION
M  V30 END CTAB
M  END
>  <NO.>
655

>  <Name>
repinotan

>  <SMILES>
O=C1c2ccccc2S(=O)(=O)N1CCCCN[C@H]1CCc2ccccc2O1

>  <logBB>
0.18

>  <Class>
1

>  <MW>
386.13

>  <nHBAcc>
5

>  <nHBDon>
1

>  <SLogP>
2.55

>  <TopoPSA>
75.71

>  <MMFF94 Energy>
-70.439

$$$$
CCCCC1(CC)C(=O)NC(=O)NC1=O
Actelion Java MolfileCreator 2.0

  0  0  0  0  0  0              0 V3000
M  V30 BEGIN CTAB
M  V30 COUNTS 31 31 0 0 0
M  V30 BEGIN ATOM
M  V30 1 O 3.365 1.7987 2.425 0
M  V30 2 C 2.3624 1.3065 1.9193 0
M  V30 3 N 2.0958 -0.0222 2.012 0
M  V30 4 N 1.488 2.0536 1.1964 0
M  V30 5 C 1.0276 -0.6736 1.4634 0
M  V30 6 C 0.3804 1.5911 0.5446 0
M  V30 7 O 0.977 -1.9018 1.4978 0
M  V30 8 C -0.0987 0.1958 0.9189 0
M  V30 9 O -0.2056 2.3184 -0.2549 0
M  V30 10 C -0.7646 -0.4964 -0.2968 0
M  V30 11 C -1.0982 0.3409 2.1072 0
M  V30 12 C 0.1929 -0.762 -1.4705 0
M  V30 13 C -2.4232 1.0244 1.7881 0
M  V30 14 C -0.5393 -1.4278 -2.6372 0
M  V30 15 C 0.3985 -1.6957 -3.8033 0
M  V30 16 H 2.7955 -0.5934 2.465 0
M  V30 17 H 1.7453 3.0172 1.0337 0
M  V30 18 H -1.2065 -1.4503 0.02 0
M  V30 19 H -1.5906 0.1192 -0.6737 0
M  V30 20 H -0.6208 0.8977 2.9251 0
M  V30 21 H -1.3255 -0.6525 2.5171 0
M  V30 22 H 1.0172 -1.4087 -1.1504 0
M  V30 23 H 0.6373 0.1787 -1.8144 0
M  V30 24 H -3.0135 0.4457 1.0722 0
M  V30 25 H -2.2754 2.0316 1.3896 0
M  V30 26 H -3.0202 1.1161 2.7018 0
M  V30 27 H -0.9821 -2.3746 -2.3071 0
M  V30 28 H -1.3603 -0.7858 -2.9769 0
M  V30 29 H -0.1452 -2.1712 -4.6255 0
M  V30 30 H 0.8344 -0.7642 -4.1781 0
M  V30 31 H 1.2144 -2.3618 -3.5055 0
M  V30 END ATOM
M  V30 BEGIN BOND
M  V30 1 2 1 2
M  V30 2 1 2 3
M  V30 3 1 2 4
M  V30 4 1 3 5
M  V30 5 1 4 6
M  V30 6 2 5 7
M  V30 7 1 5 8
M  V30 8 2 6 9
M  V30 9 1 8 10
M  V30 10 1 8 11
M  V30 11 1 10 12
M  V30 12 1 11 13
M  V30 13 1 12 14
M  V30 14 1 14 15
M  V30 15 1 6 8
M  V30 16 1 3 16
M  V30 17 1 4 17
M  V30 18 1 10 18
M  V30 19 1 10 19
M  V30 20 1 11 20
M  V30 21 1 11 21
M  V30 22 1 12 22
M  V30 23 1 12 23
M  V30 24 1 13 24
M  V30 25 1 13 25
M  V30 26 1 13 26
M  V30 27 1 14 27
M  V30 28 1 14 28
M  V30 29 1 15 29
M  V30 30 1 15 30
M  V30 31 1 15 31
M  V30 END BOND
M  V30 END CTAB
M  END
>  <NO.>
656

>  <Name>
5-butyl-5-ethyl barbituric acid (butethal)

>  <SMILES>
CCCCC1(CC)C(=O)NC(=O)NC1=O

>  <logBB>
0.19

>  <Class>
1

>  <MW>
212.12

>  <nHBAcc>
3

>  <nHBDon>
2

>  <SLogP>
0.94

>  <TopoPSA>
75.27

>  <MMFF94 Energy>
-128.68

$$$$
Nc1ccc(-c2nc3ccc(O)cc3s2)cc1I
Actelion Java MolfileCreator 2.0

  0  0  0  0  0  0              0 V3000
M  V30 BEGIN CTAB
M  V30 COUNTS 27 29 0 0 0
M  V30 BEGIN ATOM
M  V30 1 I -2.0918 -2.6781 4.5224 0
M  V30 2 C -1.551 -2.5371 2.4936 0
M  V30 3 C -1.7289 -3.6179 1.6167 0
M  V30 4 C -1.0006 -1.3221 2.0538 0
M  V30 5 N -2.296 -4.8202 2.0089 0
M  V30 6 C -1.3616 -3.4402 0.2821 0
M  V30 7 C -0.6185 -1.1489 0.715 0
M  V30 8 C -0.8125 -2.23 -0.1599 0
M  V30 9 C -0.0342 0.1014 0.1815 0
M  V30 10 S 0.2536 1.4788 1.1767 0
M  V30 11 N 0.311 0.2614 -1.0823 0
M  V30 12 C 0.8789 2.3459 -0.1676 0
M  V30 13 C 0.8286 1.5265 -1.2942 0
M  V30 14 C 1.3787 3.6566 -0.2249 0
M  V30 15 C 1.2945 2.0333 -2.5255 0
M  V30 16 C 1.8312 4.1269 -1.4568 0
M  V30 17 C 1.7957 3.3378 -2.5988 0
M  V30 18 O 2.3144 5.4033 -1.4971 0
M  V30 19 H -0.8783 -0.5155 2.7716 0
M  V30 20 H -2.35 -5.6052 1.3758 0
M  V30 21 H -2.5228 -4.9649 2.9852 0
M  V30 22 H -1.4986 -4.245 -0.4357 0
M  V30 23 H -0.536 -2.1365 -1.2099 0
M  V30 24 H 1.4134 4.2864 0.6581 0
M  V30 25 H 1.2592 1.4024 -3.4082 0
M  V30 26 H 2.1501 3.7118 -3.5546 0
M  V30 27 H 2.594 5.6062 -2.4051 0
M  V30 END ATOM
M  V30 BEGIN BOND
M  V30 1 1 1 2
M  V30 2 2 2 3
M  V30 3 1 2 4
M  V30 4 1 3 5
M  V30 5 1 3 6
M  V30 6 2 4 7
M  V30 7 2 6 8
M  V30 8 1 7 9
M  V30 9 1 9 10
M  V30 10 2 9 11
M  V30 11 1 10 12
M  V30 12 1 11 13
M  V30 13 1 12 14
M  V30 14 1 13 15
M  V30 15 2 14 16
M  V30 16 2 15 17
M  V30 17 1 16 18
M  V30 18 1 7 8
M  V30 19 2 12 13
M  V30 20 1 16 17
M  V30 21 1 4 19
M  V30 22 1 5 20
M  V30 23 1 5 21
M  V30 24 1 6 22
M  V30 25 1 8 23
M  V30 26 1 14 24
M  V30 27 1 15 25
M  V30 28 1 17 26
M  V30 29 1 18 27
M  V30 END BOND
M  V30 END CTAB
M  END
>  <NO.>
659

>  <Name>
2-(3'-iodo-4'-aminophenyl)-6-hydroxybenzothiazole

>  <SMILES>
Nc1ccc(-c2nc3ccc(O)cc3s2)cc1I

>  <logBB>
0.2

>  <Class>
1

>  <MW>
367.95

>  <nHBAcc>
4

>  <nHBDon>
2

>  <SLogP>
3.86

>  <TopoPSA>
59.14

>  <MMFF94 Energy>
39.41

$$$$
CCCN(CCC)CCc1cccc2c1CC(=O)N2
Actelion Java MolfileCreator 2.0

  0  0  0  0  0  0              0 V3000
M  V30 BEGIN CTAB
M  V30 COUNTS 43 44 0 0 0
M  V30 BEGIN ATOM
M  V30 1 O 0.3134 -5.2604 1.9603 0
M  V30 2 C -0.1734 -4.5899 1.0653 0
M  V30 3 N -1.2091 -4.9816 0.2282 0
M  V30 4 C 0.2385 -3.1724 0.6568 0
M  V30 5 C -1.5244 -3.9859 -0.6818 0
M  V30 6 C -0.6974 -2.88 -0.4814 0
M  V30 7 C -2.4973 -4.0226 -1.6562 0
M  V30 8 C -0.82 -1.7461 -1.2741 0
M  V30 9 C -2.6386 -2.8899 -2.4585 0
M  V30 10 C -1.813 -1.7651 -2.269 0
M  V30 11 C 0.0417 -0.527 -1.0681 0
M  V30 12 C -0.5865 0.447 -0.0538 0
M  V30 13 N 0.2272 1.6215 0.316 0
M  V30 14 C 0.5103 2.4791 -0.8455 0
M  V30 15 C 1.4245 1.248 1.084 0
M  V30 16 C 1.0332 3.8686 -0.4643 0
M  V30 17 C 1.5396 2.0444 2.3904 0
M  V30 18 C 1.1702 4.7624 -1.6887 0
M  V30 19 C 0.3802 1.7964 3.3461 0
M  V30 20 H -1.6572 -5.8825 0.2974 0
M  V30 21 H 0.0772 -2.4894 1.4945 0
M  V30 22 H 1.2805 -3.1767 0.3276 0
M  V30 23 H -3.1321 -4.889 -1.7985 0
M  V30 24 H -3.3963 -2.8722 -3.2388 0
M  V30 25 H -1.9567 -0.8975 -2.9115 0
M  V30 26 H 0.187 -0.031 -2.0356 0
M  V30 27 H 1.0399 -0.8433 -0.7437 0
M  V30 28 H -1.5489 0.8025 -0.4466 0
M  V30 29 H -0.8506 -0.0919 0.8661 0
M  V30 30 H -0.4188 2.6225 -1.4124 0
M  V30 31 H 1.2248 1.9963 -1.5238 0
M  V30 32 H 2.3378 1.3775 0.49 0
M  V30 33 H 1.4046 0.1848 1.3579 0
M  V30 34 H 0.3507 4.3442 0.2498 0
M  V30 35 H 2.0149 3.7918 0.0148 0
M  V30 36 H 2.4717 1.7549 2.8906 0
M  V30 37 H 1.6152 3.118 2.1907 0
M  V30 38 H 1.5507 5.7467 -1.3983 0
M  V30 39 H 1.866 4.3292 -2.4142 0
M  V30 40 H 0.2031 4.9047 -2.1816 0
M  V30 41 H 0.5487 2.3289 4.2875 0
M  V30 42 H -0.5667 2.1506 2.9273 0
M  V30 43 H 0.2804 0.7304 3.5735 0
M  V30 END ATOM
M  V30 BEGIN BOND
M  V30 1 2 1 2
M  V30 2 1 2 3
M  V30 3 1 2 4
M  V30 4 1 3 5
M  V30 5 1 4 6
M  V30 6 1 5 7
M  V30 7 1 6 8
M  V30 8 2 7 9
M  V30 9 2 8 10
M  V30 10 1 8 11
M  V30 11 1 11 12
M  V30 12 1 12 13
M  V30 13 1 13 14
M  V30 14 1 13 15
M  V30 15 1 14 16
M  V30 16 1 15 17
M  V30 17 1 16 18
M  V30 18 1 17 19
M  V30 19 2 5 6
M  V30 20 1 9 10
M  V30 21 1 3 20
M  V30 22 1 4 21
M  V30 23 1 4 22
M  V30 24 1 7 23
M  V30 25 1 9 24
M  V30 26 1 10 25
M  V30 27 1 11 26
M  V30 28 1 11 27
M  V30 29 1 12 28
M  V30 30 1 12 29
M  V30 31 1 14 30
M  V30 32 1 14 31
M  V30 33 1 15 32
M  V30 34 1 15 33
M  V30 35 1 16 34
M  V30 36 1 16 35
M  V30 37 1 17 36
M  V30 38 1 17 37
M  V30 39 1 18 38
M  V30 40 1 18 39
M  V30 41 1 18 40
M  V30 42 1 19 41
M  V30 43 1 19 42
M  V30 44 1 19 43
M  V30 END BOND
M  V30 END CTAB
M  END
>  <NO.>
660

>  <Name>
ropinirole (skf101468)

>  <SMILES>
CCCN(CCC)CCc1cccc2c1CC(=O)N2

>  <logBB>
0.2

>  <Class>
1

>  <MW>
260.19

>  <nHBAcc>
2

>  <nHBDon>
1

>  <SLogP>
2.85

>  <TopoPSA>
32.34

>  <MMFF94 Energy>
28.468

$$$$
COC(F)(F)C(Cl)Cl
Actelion Java MolfileCreator 2.0

  0  0  0  0  0  0              0 V3000
M  V30 BEGIN CTAB
M  V30 COUNTS 12 11 0 0 0
M  V30 BEGIN ATOM
M  V30 1 Cl -0.599 2.6546 -0.7701 0
M  V30 2 C -0.7425 0.946 -1.2946 0
M  V30 3 Cl -0.3159 0.8458 -3.0317 0
M  V30 4 C 0.1138 0.0025 -0.4382 0
M  V30 5 F 1.4258 0.3425 -0.4726 0
M  V30 6 F 0.0183 -1.2712 -0.9033 0
M  V30 7 O -0.3179 -0.0155 0.9219 0
M  V30 8 C 0.5177 -0.8381 1.7218 0
M  V30 9 H -1.7989 0.6756 -1.2081 0
M  V30 10 H 0.5197 -1.869 1.3553 0
M  V30 11 H 1.5381 -0.4445 1.7516 0
M  V30 12 H 0.1217 -0.8371 2.7413 0
M  V30 END ATOM
M  V30 BEGIN BOND
M  V30 1 1 1 2
M  V30 2 1 2 3
M  V30 3 1 2 4
M  V30 4 1 4 5
M  V30 5 1 4 6
M  V30 6 1 4 7
M  V30 7 1 7 8
M  V30 8 1 2 9
M  V30 9 1 8 10
M  V30 10 1 8 11
M  V30 11 1 8 12
M  V30 END BOND
M  V30 END CTAB
M  END
>  <NO.>
662

>  <Name>
methoxyflurane

>  <SMILES>
COC(F)(F)C(Cl)Cl

>  <logBB>
0.2

>  <Class>
1

>  <MW>
163.96

>  <nHBAcc>
1

>  <nHBDon>
0

>  <SLogP>
2.03

>  <TopoPSA>
9.23

>  <MMFF94 Energy>
43.373

$$$$
CN1CCCCC1CCN1c2ccccc2Sc2ccc(S(C)(=O)=O)cc21
Actelion Java MolfileCreator 2.0

  0  0  0  0  0  0              0 V3000
M  V30 BEGIN CTAB
M  V30 COUNTS 53 56 0 0 0
M  V30 BEGIN ATOM
M  V30 1 S 1.6346 0.7353 4.3362 0
M  V30 2 O 0.3107 0.2778 4.713 0
M  V30 3 O 2.7628 0.5761 5.233 0
M  V30 4 C 2.0618 -0.0491 2.8007 0
M  V30 5 C 1.512 2.4491 3.8953 0
M  V30 6 C 1.0661 -0.6703 2.0373 0
M  V30 7 C 3.3894 -0.0649 2.3898 0
M  V30 8 C 1.3661 -1.2914 0.8083 0
M  V30 9 C 3.7118 -0.6934 1.1912 0
M  V30 10 N 0.3475 -1.8942 0.0204 0
M  V30 11 C 2.718 -1.3076 0.4056 0
M  V30 12 C 0.5801 -2.8564 -0.9982 0
M  V30 13 C -0.9481 -1.1692 -0.0452 0
M  V30 14 S 3.2686 -2.0539 -1.1143 0
M  V30 15 C 1.8477 -3.0143 -1.5914 0
M  V30 16 C -0.4405 -3.7307 -1.4256 0
M  V30 17 C -0.8062 0.1263 -0.8642 0
M  V30 18 C 2.0464 -3.9552 -2.6177 0
M  V30 19 C -0.2352 -4.6719 -2.4394 0
M  V30 20 C -2.1511 0.8631 -1.0825 0 CFG=2
M  V30 21 C 1.0075 -4.7763 -3.0452 0
M  V30 22 N -2.0579 2.0656 -1.9403 0
M  V30 23 C -2.8434 1.2772 0.2331 0
M  V30 24 C -1.2993 3.1635 -1.3296 0
M  V30 25 C -1.5772 1.7813 -3.2899 0
M  V30 26 C -2.0998 2.401 0.9486 0
M  V30 27 C -1.9077 3.5852 0.0086 0
M  V30 28 H 0.7371 2.5672 3.1356 0
M  V30 29 H 2.4781 2.793 3.5214 0
M  V30 30 H 1.2407 3.0108 4.7918 0
M  V30 31 H 0.0549 -0.6907 2.4329 0
M  V30 32 H 4.1735 0.3871 2.9928 0
M  V30 33 H 4.7522 -0.7126 0.8711 0
M  V30 34 H -1.3188 -0.9591 0.9605 0
M  V30 35 H -1.7444 -1.7695 -0.4944 0
M  V30 36 H -1.4153 -3.7269 -0.9463 0
M  V30 37 H -0.3758 -0.1401 -1.8369 0
M  V30 38 H -0.0792 0.7878 -0.3814 0
M  V30 39 H 3.024 -4.0607 -3.0835 0
M  V30 40 H -1.0466 -5.329 -2.7419 0
M  V30 41 H -2.8326 0.1588 -1.579 0
M  V30 42 H 1.1758 -5.5059 -3.8325 0
M  V30 43 H -2.9675 0.4246 0.9074 0
M  V30 44 H -3.862 1.6207 0.0041 0
M  V30 45 H -0.2458 2.8921 -1.1915 0
M  V30 46 H -1.3145 4.0377 -1.9925 0
M  V30 47 H -0.5123 1.5279 -3.3157 0
M  V30 48 H -1.7285 2.6539 -3.9354 0
M  V30 49 H -2.1435 0.9593 -3.7411 0
M  V30 50 H -1.1268 2.0445 1.3044 0
M  V30 51 H -2.6641 2.7178 1.8328 0
M  V30 52 H -1.2696 4.3376 0.4858 0
M  V30 53 H -2.8799 4.0623 -0.171 0
M  V30 END ATOM
M  V30 BEGIN BOND
M  V30 1 2 1 2
M  V30 2 2 1 3
M  V30 3 1 1 4
M  V30 4 1 1 5
M  V30 5 2 4 6
M  V30 6 1 4 7
M  V30 7 1 6 8
M  V30 8 2 7 9
M  V30 9 1 8 10
M  V30 10 2 8 11
M  V30 11 1 10 12
M  V30 12 1 10 13
M  V30 13 1 11 14
M  V30 14 2 12 15
M  V30 15 1 12 16
M  V30 16 1 13 17
M  V30 17 1 15 18
M  V30 18 2 16 19
M  V30 19 1 17 20
M  V30 20 2 18 21
M  V30 21 1 20 22
M  V30 22 1 20 23
M  V30 23 1 22 24
M  V30 24 1 22 25
M  V30 25 1 23 26
M  V30 26 1 24 27
M  V30 27 1 9 11
M  V30 28 1 14 15
M  V30 29 1 19 21
M  V30 30 1 26 27
M  V30 31 1 5 28
M  V30 32 1 5 29
M  V30 33 1 5 30
M  V30 34 1 6 31
M  V30 35 1 7 32
M  V30 36 1 9 33
M  V30 37 1 13 34
M  V30 38 1 13 35
M  V30 39 1 16 36
M  V30 40 1 17 37
M  V30 41 1 17 38
M  V30 42 1 18 39
M  V30 43 1 19 40
M  V30 44 1 20 41
M  V30 45 1 21 42
M  V30 46 1 23 43
M  V30 47 1 23 44
M  V30 48 1 24 45
M  V30 49 1 24 46
M  V30 50 1 25 47
M  V30 51 1 25 48
M  V30 52 1 25 49
M  V30 53 1 26 50
M  V30 54 1 26 51
M  V30 55 1 27 52
M  V30 56 1 27 53
M  V30 END BOND
M  V30 BEGIN COLLECTION
M  V30 MDLV30/STERAC1 ATOMS=(1 20)
M  V30 END COLLECTION
M  V30 END CTAB
M  END
>  <NO.>
663

>  <Name>
sulforidazine

>  <SMILES>
CN1CCCCC1CCN1c2ccccc2Sc2ccc(S(C)(=O)=O)cc21

>  <logBB>
0.2

>  <Class>
1

>  <MW>
402.14

>  <nHBAcc>
5

>  <nHBDon>
0

>  <SLogP>
4.57

>  <TopoPSA>
40.62

>  <MMFF94 Energy>
93.303

$$$$
CCc1ccccc1
Actelion Java MolfileCreator 2.0

  0  0  0  0  0  0              0 V3000
M  V30 BEGIN CTAB
M  V30 COUNTS 18 18 0 0 0
M  V30 BEGIN ATOM
M  V30 1 C 0.0 0.0775 -0.3876 0
M  V30 2 C 0.435 1.2421 0.2587 0
M  V30 3 C 0.7787 -1.0835 -0.2932 0
M  V30 4 C -1.3012 0.0657 -1.148 0
M  V30 5 C 1.6323 1.2479 0.9762 0
M  V30 6 C 1.9758 -1.076 0.4247 0
M  V30 7 C -2.4732 -0.3186 -0.2578 0
M  V30 8 C 2.4027 0.0895 1.0582 0
M  V30 9 H -0.1579 2.1524 0.2072 0
M  V30 10 H 0.4559 -2.0015 -0.7786 0
M  V30 11 H -1.2302 -0.6335 -1.9899 0
M  V30 12 H -1.4795 1.0539 -1.5893 0
M  V30 13 H 1.9629 2.1564 1.4726 0
M  V30 14 H 2.5742 -1.9806 0.4907 0
M  V30 15 H -3.403 -0.3188 -0.8355 0
M  V30 16 H -2.5897 0.3863 0.5722 0
M  V30 17 H -2.3378 -1.3187 0.1675 0
M  V30 18 H 3.3343 0.0945 1.6174 0
M  V30 END ATOM
M  V30 BEGIN BOND
M  V30 1 2 1 2
M  V30 2 1 1 3
M  V30 3 1 1 4
M  V30 4 1 2 5
M  V30 5 2 3 6
M  V30 6 1 4 7
M  V30 7 2 5 8
M  V30 8 1 6 8
M  V30 9 1 2 9
M  V30 10 1 3 10
M  V30 11 1 4 11
M  V30 12 1 4 12
M  V30 13 1 5 13
M  V30 14 1 6 14
M  V30 15 1 7 15
M  V30 16 1 7 16
M  V30 17 1 7 17
M  V30 18 1 8 18
M  V30 END BOND
M  V30 END CTAB
M  END
>  <NO.>
664

>  <Name>
ethylbenzene

>  <SMILES>
CCc1ccccc1

>  <logBB>
0.2

>  <Class>
1

>  <MW>
106.08

>  <nHBAcc>
0

>  <nHBDon>
0

>  <SLogP>
2.25

>  <TopoPSA>
0

>  <MMFF94 Energy>
18.057

$$$$
C=CCC1(C(C)CCC)C(=O)NC(=O)NC1=O
Actelion Java MolfileCreator 2.0

  0  0  0  0  0  0              0 V3000
M  V30 BEGIN CTAB
M  V30 COUNTS 35 35 0 0 0
M  V30 BEGIN ATOM
M  V30 1 O -2.2721 1.9585 -3.6059 0
M  V30 2 C -1.7681 1.3164 -2.6908 0
M  V30 3 N -1.6878 1.8143 -1.4321 0
M  V30 4 N -1.2667 0.0722 -2.8881 0
M  V30 5 C -1.171 1.1884 -0.3358 0
M  V30 6 C -0.6879 -0.7311 -1.9508 0
M  V30 7 O -1.2181 1.7557 0.7555 0
M  V30 8 C -0.5469 -0.1859 -0.534 0
M  V30 9 O -0.2928 -1.8511 -2.276 0
M  V30 10 C 1.0038 -0.1252 -0.2228 0 CFG=2
M  V30 11 C -1.2888 -1.1749 0.4091 0
M  V30 12 C 1.3542 0.0246 1.2802 0
M  V30 13 C 1.7096 0.9559 -1.0637 0
M  V30 14 C -2.7303 -1.4397 0.0391 0
M  V30 15 C 2.8583 -0.0341 1.5753 0
M  V30 16 C -3.7765 -0.8958 0.673 0
M  V30 17 C 3.1291 -0.0509 3.0728 0
M  V30 18 H -2.0834 2.7322 -1.2838 0
M  V30 19 H -1.3409 -0.301 -3.8239 0
M  V30 20 H 1.4349 -1.0867 -0.5379 0
M  V30 21 H -1.2656 -0.8052 1.4424 0
M  V30 22 H -0.77 -2.1425 0.4217 0
M  V30 23 H 0.9595 0.9681 1.6717 0
M  V30 24 H 0.8787 -0.783 1.8465 0
M  V30 25 H 1.4708 1.9622 -0.7046 0
M  V30 26 H 1.4314 0.8952 -2.1199 0
M  V30 27 H 2.7967 0.8359 -1.026 0
M  V30 28 H -2.9136 -2.1436 -0.772 0
M  V30 29 H 3.2934 -0.9319 1.1221 0
M  V30 30 H 3.3667 0.8342 1.1438 0
M  V30 31 H -3.6478 -0.2032 1.5008 0
M  V30 32 H -4.7939 -1.1384 0.3798 0
M  V30 33 H 4.2065 -0.0838 3.2624 0
M  V30 34 H 2.7262 0.846 3.554 0
M  V30 35 H 2.6749 -0.928 3.5445 0
M  V30 END ATOM
M  V30 BEGIN BOND
M  V30 1 2 1 2
M  V30 2 1 2 3
M  V30 3 1 2 4
M  V30 4 1 3 5
M  V30 5 1 4 6
M  V30 6 2 5 7
M  V30 7 1 5 8
M  V30 8 2 6 9
M  V30 9 1 8 10
M  V30 10 1 8 11
M  V30 11 1 10 12
M  V30 12 1 10 13
M  V30 13 1 11 14
M  V30 14 1 12 15
M  V30 15 2 14 16
M  V30 16 1 15 17
M  V30 17 1 6 8
M  V30 18 1 3 18
M  V30 19 1 4 19
M  V30 20 1 10 20
M  V30 21 1 11 21
M  V30 22 1 11 22
M  V30 23 1 12 23
M  V30 24 1 12 24
M  V30 25 1 13 25
M  V30 26 1 13 26
M  V30 27 1 13 27
M  V30 28 1 14 28
M  V30 29 1 15 29
M  V30 30 1 15 30
M  V30 31 1 16 31
M  V30 32 1 16 32
M  V30 33 1 17 33
M  V30 34 1 17 34
M  V30 35 1 17 35
M  V30 END BOND
M  V30 BEGIN COLLECTION
M  V30 MDLV30/STERAC1 ATOMS=(1 10)
M  V30 END COLLECTION
M  V30 END CTAB
M  END
>  <NO.>
665

>  <Name>
secobarbital

>  <SMILES>
C=CCC1(C(C)CCC)C(=O)NC(=O)NC1=O

>  <logBB>
0.2

>  <Class>
1

>  <MW>
238.13

>  <nHBAcc>
3

>  <nHBDon>
2

>  <SLogP>
1.35

>  <TopoPSA>
75.27

>  <MMFF94 Energy>
-113.46

$$$$
CCC(=O)N(c1ccccc1)C1(COC)CCN(CCc2cccs2)CC1
Actelion Java MolfileCreator 2.0

  0  0  0  0  0  0              0 V3000
M  V30 BEGIN CTAB
M  V30 COUNTS 57 59 0 0 0
M  V30 BEGIN ATOM
M  V30 1 S 0.7195 -2.4802 -6.2495 0
M  V30 2 C -0.7277 -2.0214 -5.4548 0
M  V30 3 C -0.1328 -3.4262 -7.3902 0
M  V30 4 C -1.8368 -2.581 -6.0579 0
M  V30 5 C -0.682 -1.1127 -4.2572 0
M  V30 6 C -1.4924 -3.3942 -7.1757 0
M  V30 7 C -0.4855 -1.9089 -2.9544 0
M  V30 8 N -0.5982 -1.0853 -1.7308 0
M  V30 9 C -0.6982 -1.9552 -0.5523 0
M  V30 10 C 0.5199 -0.1433 -1.5976 0
M  V30 11 C -0.8591 -1.157 0.7426 0
M  V30 12 C 0.363 0.72 -0.3445 0
M  V30 13 C 0.2616 -0.1081 0.9741 0
M  V30 14 N -0.0959 0.7413 2.1879 0
M  V30 15 C 1.6311 -0.8233 1.2333 0
M  V30 16 C -0.226 2.1419 2.0171 0
M  V30 17 C -0.2516 0.1654 3.4581 0
M  V30 18 O 2.6934 0.1378 1.3244 0
M  V30 19 C -1.4858 2.6968 1.7723 0
M  V30 20 C 0.9 2.9643 2.1055 0
M  V30 21 O -0.1527 -1.0477 3.6564 0
M  V30 22 C -0.56 1.1108 4.6193 0
M  V30 23 C 3.9299 -0.4798 1.6561 0
M  V30 24 C -1.6164 4.0768 1.6154 0
M  V30 25 C 0.765 4.3436 1.9478 0
M  V30 26 C -0.6771 0.3804 5.9482 0
M  V30 27 C -0.4919 4.8987 1.7038 0
M  V30 28 H 0.4035 -3.9584 -8.1635 0
M  V30 29 H -2.8506 -2.415 -5.7126 0
M  V30 30 H -1.622 -0.5482 -4.2038 0
M  V30 31 H 0.1179 -0.3755 -4.3914 0
M  V30 32 H -2.2058 -3.9273 -7.792 0
M  V30 33 H -1.2624 -2.6855 -2.9253 0
M  V30 34 H 0.4773 -2.4371 -2.9734 0
M  V30 35 H -1.581 -2.5998 -0.6509 0
M  V30 36 H 0.1688 -2.6233 -0.4819 0
M  V30 37 H 0.5374 0.5421 -2.4519 0
M  V30 38 H 1.4839 -0.6652 -1.5936 0
M  V30 39 H -1.8315 -0.6448 0.7242 0
M  V30 40 H -0.9122 -1.8739 1.5682 0
M  V30 41 H 1.1994 1.4276 -0.3037 0
M  V30 42 H -0.5452 1.3218 -0.4809 0
M  V30 43 H 1.8782 -1.5152 0.4224 0
M  V30 44 H 1.6091 -1.4157 2.1524 0
M  V30 45 H -2.3621 2.0586 1.6983 0
M  V30 46 H 1.8806 2.533 2.2902 0
M  V30 47 H -1.5054 1.6255 4.4209 0
M  V30 48 H 0.2399 1.8536 4.7007 0
M  V30 49 H 4.7007 0.2943 1.6963 0
M  V30 50 H 4.2093 -1.2125 0.893 0
M  V30 51 H 3.8668 -0.9604 2.637 0
M  V30 52 H -2.5937 4.5113 1.4218 0
M  V30 53 H 1.6403 4.9845 2.0124 0
M  V30 54 H -0.8949 1.0887 6.7536 0
M  V30 55 H 0.2538 -0.1408 6.1938 0
M  V30 56 H -1.4816 -0.3619 5.9196 0
M  V30 57 H -0.5948 5.9739 1.5793 0
M  V30 END ATOM
M  V30 BEGIN BOND
M  V30 1 1 1 2
M  V30 2 1 1 3
M  V30 3 2 2 4
M  V30 4 1 2 5
M  V30 5 2 3 6
M  V30 6 1 5 7
M  V30 7 1 7 8
M  V30 8 1 8 9
M  V30 9 1 8 10
M  V30 10 1 9 11
M  V30 11 1 10 12
M  V30 12 1 11 13
M  V30 13 1 13 14
M  V30 14 1 13 15
M  V30 15 1 14 16
M  V30 16 1 14 17
M  V30 17 1 15 18
M  V30 18 2 16 19
M  V30 19 1 16 20
M  V30 20 2 17 21
M  V30 21 1 17 22
M  V30 22 1 18 23
M  V30 23 1 19 24
M  V30 24 2 20 25
M  V30 25 1 22 26
M  V30 26 2 24 27
M  V30 27 1 4 6
M  V30 28 1 12 13
M  V30 29 1 25 27
M  V30 30 1 3 28
M  V30 31 1 4 29
M  V30 32 1 5 30
M  V30 33 1 5 31
M  V30 34 1 6 32
M  V30 35 1 7 33
M  V30 36 1 7 34
M  V30 37 1 9 35
M  V30 38 1 9 36
M  V30 39 1 10 37
M  V30 40 1 10 38
M  V30 41 1 11 39
M  V30 42 1 11 40
M  V30 43 1 12 41
M  V30 44 1 12 42
M  V30 45 1 15 43
M  V30 46 1 15 44
M  V30 47 1 19 45
M  V30 48 1 20 46
M  V30 49 1 22 47
M  V30 50 1 22 48
M  V30 51 1 23 49
M  V30 52 1 23 50
M  V30 53 1 23 51
M  V30 54 1 24 52
M  V30 55 1 25 53
M  V30 56 1 26 54
M  V30 57 1 26 55
M  V30 58 1 26 56
M  V30 59 1 27 57
M  V30 END BOND
M  V30 END CTAB
M  END
>  <NO.>
667

>  <Name>
sufentanil

>  <SMILES>
CCC(=O)N(c1ccccc1)C1(COC)CCN(CCc2cccs2)CC1

>  <logBB>
0.2

>  <Class>
1

>  <MW>
386.2

>  <nHBAcc>
4

>  <nHBDon>
0

>  <SLogP>
4.21

>  <TopoPSA>
32.78

>  <MMFF94 Energy>
54.462

$$$$
CCCCCO
Actelion Java MolfileCreator 2.0

  0  0  0  0  0  0              0 V3000
M  V30 BEGIN CTAB
M  V30 COUNTS 18 17 0 0 0
M  V30 BEGIN ATOM
M  V30 1 O -2.2686 0.9825 -1.3606 0
M  V30 2 C -1.7081 -0.3032 -1.5837 0
M  V30 3 C -0.9566 -0.7657 -0.3413 0
M  V30 4 C 0.244 0.1303 -0.0232 0
M  V30 5 C 1.0014 -0.3731 1.2057 0
M  V30 6 C 2.1956 0.5119 1.5256 0
M  V30 7 H -2.7396 1.2335 -2.1734 0
M  V30 8 H -1.0403 -0.2521 -2.4496 0
M  V30 9 H -2.5226 -0.9988 -1.8089 0
M  V30 10 H -1.6393 -0.7612 0.5172 0
M  V30 11 H -0.6174 -1.7971 -0.4917 0
M  V30 12 H -0.0935 1.1587 0.1531 0
M  V30 13 H 0.9206 0.1559 -0.8861 0
M  V30 14 H 0.3303 -0.3984 2.0723 0
M  V30 15 H 1.3495 -1.3984 1.0347 0
M  V30 16 H 2.7225 0.1336 2.4072 0
M  V30 17 H 2.9028 0.5334 0.6903 0
M  V30 18 H 1.8783 1.5387 1.7341 0
M  V30 END ATOM
M  V30 BEGIN BOND
M  V30 1 1 1 2
M  V30 2 1 2 3
M  V30 3 1 3 4
M  V30 4 1 4 5
M  V30 5 1 5 6
M  V30 6 1 1 7
M  V30 7 1 2 8
M  V30 8 1 2 9
M  V30 9 1 3 10
M  V30 10 1 3 11
M  V30 11 1 4 12
M  V30 12 1 4 13
M  V30 13 1 5 14
M  V30 14 1 5 15
M  V30 15 1 6 16
M  V30 16 1 6 17
M  V30 17 1 6 18
M  V30 END BOND
M  V30 END CTAB
M  END
>  <NO.>
668

>  <Name>
1-pentanol

>  <SMILES>
CCCCCO

>  <logBB>
0.2

>  <Class>
1

>  <MW>
88.09

>  <nHBAcc>
1

>  <nHBDon>
1

>  <SLogP>
1.17

>  <TopoPSA>
20.23

>  <MMFF94 Energy>
-1.8901

$$$$
CN(C)Cc1ccccc1Sc1cc(F)c(Cl)cc1N
Actelion Java MolfileCreator 2.0

  0  0  0  0  0  0              0 V3000
M  V30 BEGIN CTAB
M  V30 COUNTS 36 37 0 0 0
M  V30 BEGIN ATOM
M  V30 1 Cl 1.7065 -4.2297 3.4152 0
M  V30 2 C 1.5983 -2.6729 2.6879 0
M  V30 3 C 0.8457 -1.665 3.2775 0
M  V30 4 C 2.2823 -2.4214 1.4986 0
M  V30 5 F 0.1829 -1.8843 4.4228 0
M  V30 6 C 0.7633 -0.4095 2.6878 0
M  V30 7 C 2.2033 -1.1661 0.8754 0
M  V30 8 C 1.4228 -0.1511 1.4764 0
M  V30 9 N 2.976 -0.9445 -0.2572 0
M  V30 10 S 1.2376 1.5042 0.8192 0
M  V30 11 C 0.7258 1.2842 -0.8838 0
M  V30 12 C -0.3671 0.5154 -1.3366 0
M  V30 13 C 1.489 2.0058 -1.8234 0
M  V30 14 C -0.6175 0.453 -2.7262 0
M  V30 15 C -1.3265 -0.2361 -0.4291 0
M  V30 16 C 1.2201 1.9341 -3.1899 0
M  V30 17 C 0.1696 1.1495 -3.6425 0
M  V30 18 N -2.0907 0.6152 0.4998 0
M  V30 19 C -2.8743 -0.2183 1.4137 0
M  V30 20 C -2.9771 1.5405 -0.209 0
M  V30 21 H 2.8921 -3.2058 1.0578 0
M  V30 22 H 0.1626 0.3566 3.171 0
M  V30 23 H 3.4294 -1.7053 -0.7425 0
M  V30 24 H 2.9089 -0.0524 -0.7311 0
M  V30 25 H 2.3139 2.6351 -1.4921 0
M  V30 26 H -1.4515 -0.1354 -3.1051 0
M  V30 27 H -0.7467 -0.9842 0.1212 0
M  V30 28 H -2.0265 -0.8255 -1.0386 0
M  V30 29 H 1.8279 2.4951 -3.8947 0
M  V30 30 H -0.0496 1.09 -4.7054 0
M  V30 31 H -2.2238 -0.8924 1.9811 0
M  V30 32 H -3.6189 -0.8247 0.8851 0
M  V30 33 H -3.3956 0.4035 2.1501 0
M  V30 34 H -3.6903 1.0165 -0.8556 0
M  V30 35 H -2.4084 2.2485 -0.8208 0
M  V30 36 H -3.5458 2.1482 0.5044 0
M  V30 END ATOM
M  V30 BEGIN BOND
M  V30 1 1 1 2
M  V30 2 2 2 3
M  V30 3 1 2 4
M  V30 4 1 3 5
M  V30 5 1 3 6
M  V30 6 2 4 7
M  V30 7 2 6 8
M  V30 8 1 7 9
M  V30 9 1 8 10
M  V30 10 1 10 11
M  V30 11 2 11 12
M  V30 12 1 11 13
M  V30 13 1 12 14
M  V30 14 1 12 15
M  V30 15 2 13 16
M  V30 16 2 14 17
M  V30 17 1 15 18
M  V30 18 1 18 19
M  V30 19 1 18 20
M  V30 20 1 7 8
M  V30 21 1 16 17
M  V30 22 1 4 21
M  V30 23 1 6 22
M  V30 24 1 9 23
M  V30 25 1 9 24
M  V30 26 1 13 25
M  V30 27 1 14 26
M  V30 28 1 15 27
M  V30 29 1 15 28
M  V30 30 1 16 29
M  V30 31 1 17 30
M  V30 32 1 19 31
M  V30 33 1 19 32
M  V30 34 1 19 33
M  V30 35 1 20 34
M  V30 36 1 20 35
M  V30 37 1 20 36
M  V30 END BOND
M  V30 END CTAB
M  END
>  <NO.>
669

>  <Name>
chembl142158

>  <SMILES>
CN(C)Cc1ccccc1Sc1cc(F)c(Cl)cc1N

>  <logBB>
0.2

>  <Class>
1

>  <MW>
310.07

>  <nHBAcc>
3

>  <nHBDon>
1

>  <SLogP>
4.27

>  <TopoPSA>
29.26

>  <MMFF94 Energy>
59.658

$$$$
CN(C)Cc1ccccc1Sc1ccc(F)cc1N
Actelion Java MolfileCreator 2.0

  0  0  0  0  0  0              0 V3000
M  V30 BEGIN CTAB
M  V30 COUNTS 36 37 0 0 0
M  V30 BEGIN ATOM
M  V30 1 S 1.3634 1.7647 0.8821 0
M  V30 2 C 1.3833 0.0657 1.481 0
M  V30 3 C 1.0113 1.581 -0.8641 0
M  V30 4 C 0.9255 -0.2161 2.7911 0
M  V30 5 C 1.8892 -0.976 0.6851 0
M  V30 6 C -0.2404 1.1899 -1.3838 0
M  V30 7 C 2.0642 1.8872 -1.7449 0
M  V30 8 N 0.3711 0.7716 3.6027 0
M  V30 9 C 0.924 -1.5412 3.2405 0
M  V30 10 C 1.9044 -2.2875 1.16 0
M  V30 11 C -0.3883 1.1155 -2.7854 0
M  V30 12 C -1.4672 0.9483 -0.5161 0
M  V30 13 C 1.8982 1.7897 -3.1261 0
M  V30 14 C 1.416 -2.5576 2.4296 0
M  V30 15 C 0.6708 1.401 -3.6466 0
M  V30 16 N -2.2771 -0.2198 -0.9281 0
M  V30 17 F 1.4159 -3.8188 2.8807 0
M  V30 18 C -3.575 -0.1875 -0.2503 0
M  V30 19 C -1.5894 -1.475 -0.6125 0
M  V30 20 H 2.2787 -0.782 -0.3106 0
M  V30 21 H 3.0306 2.2036 -1.357 0
M  V30 22 H 0.1894 0.5935 4.5805 0
M  V30 23 H 0.4666 1.7354 3.2999 0
M  V30 24 H 0.5422 -1.7962 4.2237 0
M  V30 25 H 2.2893 -3.0954 0.5462 0
M  V30 26 H -1.3507 0.8327 -3.2108 0
M  V30 27 H -2.0736 1.8601 -0.6091 0
M  V30 28 H -1.2182 0.8571 0.5448 0
M  V30 29 H 2.7241 2.0246 -3.792 0
M  V30 30 H 0.5292 1.33 -4.7218 0
M  V30 31 H -4.1261 0.7215 -0.5163 0
M  V30 32 H -3.475 -0.2242 0.8407 0
M  V30 33 H -4.1967 -1.0319 -0.5685 0
M  V30 34 H -1.3926 -1.5812 0.4602 0
M  V30 35 H -0.6395 -1.5542 -1.1509 0
M  V30 36 H -2.1938 -2.3309 -0.9338 0
M  V30 END ATOM
M  V30 BEGIN BOND
M  V30 1 1 1 2
M  V30 2 1 1 3
M  V30 3 2 2 4
M  V30 4 1 2 5
M  V30 5 2 3 6
M  V30 6 1 3 7
M  V30 7 1 4 8
M  V30 8 1 4 9
M  V30 9 2 5 10
M  V30 10 1 6 11
M  V30 11 1 6 12
M  V30 12 2 7 13
M  V30 13 2 9 14
M  V30 14 2 11 15
M  V30 15 1 12 16
M  V30 16 1 14 17
M  V30 17 1 16 18
M  V30 18 1 16 19
M  V30 19 1 10 14
M  V30 20 1 13 15
M  V30 21 1 5 20
M  V30 22 1 7 21
M  V30 23 1 8 22
M  V30 24 1 8 23
M  V30 25 1 9 24
M  V30 26 1 10 25
M  V30 27 1 11 26
M  V30 28 1 12 27
M  V30 29 1 12 28
M  V30 30 1 13 29
M  V30 31 1 15 30
M  V30 32 1 18 31
M  V30 33 1 18 32
M  V30 34 1 18 33
M  V30 35 1 19 34
M  V30 36 1 19 35
M  V30 37 1 19 36
M  V30 END BOND
M  V30 END CTAB
M  END
>  <NO.>
670

>  <Name>
chembl190860

>  <SMILES>
CN(C)Cc1ccccc1Sc1ccc(F)cc1N

>  <logBB>
0.2

>  <Class>
1

>  <MW>
276.11

>  <nHBAcc>
3

>  <nHBDon>
1

>  <SLogP>
3.62

>  <TopoPSA>
29.26

>  <MMFF94 Energy>
53.893

$$$$
COCCn1c(C)nc(N2CCC(c3ccc(F)cc3)CC2)c([N+](=O)[O-])c1=O
Actelion Java MolfileCreator 2.0

  0  0  0  0  0  0              0 V3000
M  V30 BEGIN CTAB
M  V30 COUNTS 51 53 0 0 0
M  V30 BEGIN ATOM
M  V30 1 F 4.8736 3.8334 -5.1938 0
M  V30 2 C 3.8715 3.0896 -4.7073 0
M  V30 3 C 2.8449 2.6875 -5.5515 0
M  V30 4 C 3.8736 2.7313 -3.3658 0
M  V30 5 C 1.7997 1.9125 -5.0453 0
M  V30 6 C 2.8294 1.9564 -2.8579 0
M  V30 7 C 1.7782 1.5374 -3.6914 0
M  V30 8 C 0.6317 0.6927 -3.1609 0
M  V30 9 C 1.1145 -0.679 -2.6605 0
M  V30 10 C -0.1613 1.4227 -2.0636 0
M  V30 11 C -0.0507 -1.5088 -2.12 0
M  V30 12 C -1.2927 0.5391 -1.5466 0
M  V30 13 N -0.7585 -0.748 -1.08 0
M  V30 14 C -0.6216 -1.0116 0.2928 0
M  V30 15 N -0.1409 0.0209 1.0757 0
M  V30 16 C -0.9341 -2.1821 0.8814 0
M  V30 17 C -0.0347 -0.1227 2.3574 0
M  V30 18 N -1.5385 -3.2258 0.1244 0 CHG=1
M  V30 19 C -0.7864 -2.3971 2.3193 0
M  V30 20 N -0.368 -1.275 3.0316 0
M  V30 21 C 0.5127 1.0524 3.1341 0
M  V30 22 O -2.7511 -3.1305 -0.1169 0
M  V30 23 O -0.8059 -4.1575 -0.241 0 CHG=-1
M  V30 24 O -0.9885 -3.4948 2.8331 0
M  V30 25 C -0.3323 -1.3903 4.4973 0
M  V30 26 C -1.6272 -0.884 5.1508 0
M  V30 27 O -2.7375 -1.6517 4.692 0
M  V30 28 C -3.9561 -1.2474 5.3007 0
M  V30 29 H 2.8639 2.9787 -6.5966 0
M  V30 30 H 4.686 3.0561 -2.724 0
M  V30 31 H 1.0019 1.6036 -5.7175 0
M  V30 32 H 2.843 1.6821 -1.8051 0
M  V30 33 H -0.0641 0.5064 -3.9918 0
M  V30 34 H 1.8615 -0.556 -1.8658 0
M  V30 35 H 1.6066 -1.2263 -3.4737 0
M  V30 36 H -0.5771 2.3585 -2.4567 0
M  V30 37 H 0.4951 1.6959 -1.2283 0
M  V30 38 H -0.7495 -1.7581 -2.9273 0
M  V30 39 H 0.351 -2.4509 -1.737 0
M  V30 40 H -2.0188 0.3535 -2.3479 0
M  V30 41 H -1.8405 1.0558 -0.7492 0
M  V30 42 H 1.4609 0.7743 3.6027 0
M  V30 43 H -0.191 1.3693 3.9057 0
M  V30 44 H 0.6944 1.8995 2.4654 0
M  V30 45 H 0.5172 -0.8244 4.8902 0
M  V30 46 H -0.1793 -2.4389 4.7753 0
M  V30 47 H -1.5414 -0.9823 6.239 0
M  V30 48 H -1.8001 0.1688 4.9067 0
M  V30 49 H -4.7623 -1.8712 4.9055 0
M  V30 50 H -4.174 -0.2018 5.0629 0
M  V30 51 H -3.9064 -1.385 6.3851 0
M  V30 END ATOM
M  V30 BEGIN BOND
M  V30 1 1 1 2
M  V30 2 2 2 3
M  V30 3 1 2 4
M  V30 4 1 3 5
M  V30 5 2 4 6
M  V30 6 2 5 7
M  V30 7 1 7 8
M  V30 8 1 8 9
M  V30 9 1 8 10
M  V30 10 1 9 11
M  V30 11 1 10 12
M  V30 12 1 11 13
M  V30 13 1 13 14
M  V30 14 1 14 15
M  V30 15 2 14 16
M  V30 16 2 15 17
M  V30 17 1 16 18
M  V30 18 1 16 19
M  V30 19 1 17 20
M  V30 20 1 17 21
M  V30 21 2 18 22
M  V30 22 1 18 23
M  V30 23 2 19 24
M  V30 24 1 20 25
M  V30 25 1 25 26
M  V30 26 1 26 27
M  V30 27 1 27 28
M  V30 28 1 6 7
M  V30 29 1 12 13
M  V30 30 1 19 20
M  V30 31 1 3 29
M  V30 32 1 4 30
M  V30 33 1 5 31
M  V30 34 1 6 32
M  V30 35 1 8 33
M  V30 36 1 9 34
M  V30 37 1 9 35
M  V30 38 1 10 36
M  V30 39 1 10 37
M  V30 40 1 11 38
M  V30 41 1 11 39
M  V30 42 1 12 40
M  V30 43 1 12 41
M  V30 44 1 21 42
M  V30 45 1 21 43
M  V30 46 1 21 44
M  V30 47 1 25 45
M  V30 48 1 25 46
M  V30 49 1 26 47
M  V30 50 1 26 48
M  V30 51 1 28 49
M  V30 52 1 28 50
M  V30 53 1 28 51
M  V30 END BOND
M  V30 END CTAB
M  END
>  <NO.>
671

>  <Name>
schembl4414781

>  <SMILES>
COCCn1c(C)nc(N2CCC(c3ccc(F)cc3)CC2)c([N+](=O)[O-])c1=O

>  <logBB>
0.2

>  <Class>
1

>  <MW>
390.17

>  <nHBAcc>
6

>  <nHBDon>
0

>  <SLogP>
2.63

>  <TopoPSA>
90.5

>  <MMFF94 Energy>
12.875

$$$$
COc1ccc2c3c1OC1CC(O)C=C(CN(C)C2)C31
Actelion Java MolfileCreator 2.0

  0  0  0  0  0  0              0 V3000
M  V30 BEGIN CTAB
M  V30 COUNTS 39 42 0 0 0
M  V30 BEGIN ATOM
M  V30 1 O -2.2496 -0.0802 0.0 0
M  V30 2 C -1.3024 0.6179 0.7077 0
M  V30 3 C -1.7383 -1.435 -0.0642 0
M  V30 4 C -1.4478 1.9275 1.1425 0
M  V30 5 C -0.1267 -0.0918 0.8943 0
M  V30 6 C -0.2331 -1.4495 0.2986 0
M  V30 7 C -2.043 -2.0359 -1.4311 0
M  V30 8 O -2.6535 2.5222 0.9063 0
M  V30 9 C -0.3499 2.5162 1.7783 0
M  V30 10 C 0.9932 0.4954 1.467 0
M  V30 11 C 0.7508 -1.6168 -0.8351 0
M  V30 12 C -1.0974 -1.5208 -2.5161 0
M  V30 13 C -2.7945 3.8784 1.3044 0
M  V30 14 C 0.8608 1.8111 1.9304 0
M  V30 15 C 2.3084 -0.2425 1.5106 0
M  V30 16 C 0.3426 -1.6333 -2.1182 0
M  V30 17 C 2.2016 -1.776 -0.4329 0
M  V30 18 O -1.2865 -2.3034 -3.6919 0
M  V30 19 N 2.8555 -0.6323 0.2035 0
M  V30 20 C 3.0526 0.4917 -0.7052 0
M  V30 21 H -2.3004 -1.9986 0.6939 0
M  V30 22 H -0.063 -2.2315 1.0488 0
M  V30 23 H -1.9665 -3.13 -1.369 0
M  V30 24 H -3.0771 -1.82 -1.7274 0
M  V30 25 H -0.3891 3.5353 2.1493 0
M  V30 26 H -1.3253 -0.4808 -2.7725 0
M  V30 27 H -2.6985 3.9827 2.3903 0
M  V30 28 H -3.8011 4.206 1.027 0
M  V30 29 H -2.0794 4.5213 0.7807 0
M  V30 30 H 1.7074 2.3158 2.3919 0
M  V30 31 H 3.0557 0.3805 2.0193 0
M  V30 32 H 2.1996 -1.1258 2.1537 0
M  V30 33 H 1.0706 -1.7011 -2.9232 0
M  V30 34 H 2.2751 -2.6413 0.2398 0
M  V30 35 H 2.7968 -2.0705 -1.3079 0
M  V30 36 H -1.0169 -3.2137 -3.4845 0
M  V30 37 H 2.1138 0.9333 -1.056 0
M  V30 38 H 3.6416 1.2793 -0.2218 0
M  V30 39 H 3.6246 0.1755 -1.5849 0
M  V30 END ATOM
M  V30 BEGIN BOND
M  V30 1 1 1 2
M  V30 2 1 1 3
M  V30 3 2 2 4
M  V30 4 1 2 5
M  V30 5 1 3 6
M  V30 6 1 3 7
M  V30 7 1 4 8
M  V30 8 1 4 9
M  V30 9 2 5 10
M  V30 10 1 6 11
M  V30 11 1 7 12
M  V30 12 1 8 13
M  V30 13 2 9 14
M  V30 14 1 10 15
M  V30 15 2 11 16
M  V30 16 1 11 17
M  V30 17 1 12 18
M  V30 18 1 15 19
M  V30 19 1 19 20
M  V30 20 1 5 6
M  V30 21 1 10 14
M  V30 22 1 12 16
M  V30 23 1 17 19
M  V30 24 1 3 21
M  V30 25 1 6 22
M  V30 26 1 7 23
M  V30 27 1 7 24
M  V30 28 1 9 25
M  V30 29 1 12 26
M  V30 30 1 13 27
M  V30 31 1 13 28
M  V30 32 1 13 29
M  V30 33 1 14 30
M  V30 34 1 15 31
M  V30 35 1 15 32
M  V30 36 1 16 33
M  V30 37 1 17 34
M  V30 38 1 17 35
M  V30 39 1 18 36
M  V30 40 1 20 37
M  V30 41 1 20 38
M  V30 42 1 20 39
M  V30 END BOND
M  V30 END CTAB
M  END
>  <NO.>
672

>  <Name>
schembl10031243

>  <SMILES>
COc1ccc2c3c1OC1CC(O)C=C(CN(C)C2)C31

>  <logBB>
0.2

>  <Class>
1

>  <MW>
273.14

>  <nHBAcc>
4

>  <nHBDon>
1

>  <SLogP>
1.68

>  <TopoPSA>
41.93

>  <MMFF94 Energy>
46.5

$$$$
FC(F)OC(F)(F)[C@H](F)Cl
Actelion Java MolfileCreator 2.0

  0  0  0  0  0  0              0 V3000
M  V30 BEGIN CTAB
M  V30 COUNTS 12 11 0 0 0
M  V30 BEGIN ATOM
M  V30 1 Cl -1.804 2.0619 0.8587 0
M  V30 2 C -1.0301 0.5336 1.3645 0 CFG=1
M  V30 3 F -1.9869 -0.2591 1.9257 0
M  V30 4 C -0.3546 -0.1938 0.1958 0
M  V30 5 F -1.2414 -0.4809 -0.7896 0
M  V30 6 F 0.156 -1.3766 0.6237 0
M  V30 7 O 0.6964 0.5617 -0.3684 0
M  V30 8 C 1.3521 -0.2147 -1.3358 0
M  V30 9 F 2.0207 0.6468 -2.1409 0
M  V30 10 F 2.29 -0.9578 -0.7042 0
M  V30 11 H -0.299 0.7762 2.1412 0
M  V30 12 H 0.7046 -0.8472 -1.9521 0
M  V30 END ATOM
M  V30 BEGIN BOND
M  V30 1 1 1 2
M  V30 2 1 2 3
M  V30 3 1 2 4
M  V30 4 1 4 5
M  V30 5 1 4 6
M  V30 6 1 4 7
M  V30 7 1 7 8
M  V30 8 1 8 9
M  V30 9 1 8 10
M  V30 10 1 2 11
M  V30 11 1 8 12
M  V30 END BOND
M  V30 BEGIN COLLECTION
M  V30 MDLV30/STEABS ATOMS=(1 2)
M  V30 END COLLECTION
M  V30 END CTAB
M  END
>  <NO.>
674

>  <Name>
(r)-enflurane

>  <SMILES>
FC(F)OC(F)(F)[C@H](F)Cl

>  <logBB>
0.2

>  <Class>
1

>  <MW>
183.97

>  <nHBAcc>
1

>  <nHBDon>
0

>  <SLogP>
2.35

>  <TopoPSA>
9.23

>  <MMFF94 Energy>
-7.6004

$$$$
Cc1cccc(C)c1
Actelion Java MolfileCreator 2.0

  0  0  0  0  0  0              0 V3000
M  V30 BEGIN CTAB
M  V30 COUNTS 18 18 0 0 0
M  V30 BEGIN ATOM
M  V30 1 C 0.8524 0.6974 -0.5423 0
M  V30 2 C 0.5607 -0.0844 0.5838 0
M  V30 3 C -0.1156 0.8387 -1.5426 0
M  V30 4 C 2.207 1.3212 -0.7026 0
M  V30 5 C -0.6938 -0.6917 0.7324 0
M  V30 6 C -1.3614 0.2258 -1.4096 0
M  V30 7 C -1.6487 -0.5385 -0.2787 0
M  V30 8 C -0.9856 -1.5472 1.9294 0
M  V30 9 H 1.3177 -0.2204 1.3539 0
M  V30 10 H 0.0962 1.4249 -2.4337 0
M  V30 11 H 2.6323 1.5863 0.2711 0
M  V30 12 H 2.146 2.2426 -1.2913 0
M  V30 13 H 2.8829 0.6235 -1.2064 0
M  V30 14 H -2.1079 0.3394 -2.1912 0
M  V30 15 H -2.6216 -1.0168 -0.193 0
M  V30 16 H -2.0537 -1.5306 2.171 0
M  V30 17 H -0.4484 -1.1815 2.8109 0
M  V30 18 H -0.6832 -2.5805 1.7335 0
M  V30 END ATOM
M  V30 BEGIN BOND
M  V30 1 2 1 2
M  V30 2 1 1 3
M  V30 3 1 1 4
M  V30 4 1 2 5
M  V30 5 2 3 6
M  V30 6 2 5 7
M  V30 7 1 5 8
M  V30 8 1 6 7
M  V30 9 1 2 9
M  V30 10 1 3 10
M  V30 11 1 4 11
M  V30 12 1 4 12
M  V30 13 1 4 13
M  V30 14 1 6 14
M  V30 15 1 7 15
M  V30 16 1 8 16
M  V30 17 1 8 17
M  V30 18 1 8 18
M  V30 END BOND
M  V30 END CTAB
M  END
>  <NO.>
676

>  <Name>
m-xylene

>  <SMILES>
Cc1cccc(C)c1

>  <logBB>
0.2

>  <Class>
1

>  <MW>
106.08

>  <nHBAcc>
0

>  <nHBDon>
0

>  <SLogP>
2.3

>  <TopoPSA>
0

>  <MMFF94 Energy>
20.616

$$$$
CCOC(C)(C)C
Actelion Java MolfileCreator 2.0

  0  0  0  0  0  0              0 V3000
M  V30 BEGIN CTAB
M  V30 COUNTS 21 20 0 0 0
M  V30 BEGIN ATOM
M  V30 1 O 0.5318 -0.3038 0.5318 0
M  V30 2 C -0.096 0.8086 -0.1227 0
M  V30 3 C 0.0888 -1.6065 0.1673 0
M  V30 4 C 0.1506 0.7857 -1.6356 0
M  V30 5 C 0.5808 2.0532 0.4692 0
M  V30 6 C -1.5968 0.8705 0.1846 0
M  V30 7 C 0.8836 -2.6139 0.9774 0
M  V30 8 H 0.2614 -1.7878 -0.897 0
M  V30 9 H -0.9748 -1.7278 0.3907 0
M  V30 10 H -0.3902 -0.0343 -2.1192 0
M  V30 11 H -0.1774 1.7176 -2.1086 0
M  V30 12 H 1.2139 0.6383 -1.8551 0
M  V30 13 H 1.6623 2.03 0.2911 0
M  V30 14 H 0.18 2.9781 0.0414 0
M  V30 15 H 0.4471 2.089 1.5567 0
M  V30 16 H -2.1403 0.0505 -0.2963 0
M  V30 17 H -1.7783 0.7836 1.2617 0
M  V30 18 H -2.0393 1.808 -0.1691 0
M  V30 19 H 0.5805 -3.6361 0.7342 0
M  V30 20 H 1.9555 -2.5067 0.7812 0
M  V30 21 H 0.7375 -2.4476 2.0499 0
M  V30 END ATOM
M  V30 BEGIN BOND
M  V30 1 1 1 2
M  V30 2 1 1 3
M  V30 3 1 2 4
M  V30 4 1 2 5
M  V30 5 1 2 6
M  V30 6 1 3 7
M  V30 7 1 3 8
M  V30 8 1 3 9
M  V30 9 1 4 10
M  V30 10 1 4 11
M  V30 11 1 4 12
M  V30 12 1 5 13
M  V30 13 1 5 14
M  V30 14 1 5 15
M  V30 15 1 6 16
M  V30 16 1 6 17
M  V30 17 1 6 18
M  V30 18 1 7 19
M  V30 19 1 7 20
M  V30 20 1 7 21
M  V30 END BOND
M  V30 END CTAB
M  END
>  <NO.>
677

>  <Name>
ethyl t-butyl ether

>  <SMILES>
CCOC(C)(C)C

>  <logBB>
0.22

>  <Class>
1

>  <MW>
102.1

>  <nHBAcc>
1

>  <nHBDon>
0

>  <SLogP>
1.82

>  <TopoPSA>
9.23

>  <MMFF94 Energy>
14.703

$$$$
CNCCCC1(c2ccccc2)SC(C)(C)c2ccccc21
Actelion Java MolfileCreator 2.0

  0  0  0  0  0  0              0 V3000
M  V30 BEGIN CTAB
M  V30 COUNTS 47 49 0 0 0
M  V30 BEGIN ATOM
M  V30 1 S 0.8032 -1.1247 0.8032 0
M  V30 2 C 0.2691 0.6451 0.5767 0 CFG=2
M  V30 3 C -0.796 -1.8717 0.2827 0
M  V30 4 C 0.3569 1.3334 1.9639 0
M  V30 5 C -1.1701 0.5683 0.0703 0
M  V30 6 C 1.1794 1.3153 -0.5062 0
M  V30 7 C -1.7097 -0.7218 -0.0779 0
M  V30 8 C -0.5303 -2.7806 -0.9226 0
M  V30 9 C -1.3485 -2.6836 1.4596 0
M  V30 10 C -0.6307 1.0999 2.9465 0
M  V30 11 C 1.4218 2.1815 2.322 0
M  V30 12 C -1.948 1.6922 -0.2356 0
M  V30 13 C 1.114 0.7875 -1.956 0
M  V30 14 C -3.0222 -0.8758 -0.5361 0
M  V30 15 C -0.569 1.6999 4.2074 0
M  V30 16 C 1.4837 2.782 3.5849 0
M  V30 17 C -3.255 1.5283 -0.6919 0
M  V30 18 C 2.2588 -0.1687 -2.3076 0
M  V30 19 C -3.7898 0.2484 -0.8425 0
M  V30 20 C 0.4878 2.5438 4.5256 0
M  V30 21 N 2.1592 -0.5477 -3.7194 0
M  V30 22 C 3.2205 -1.476 -4.0851 0
M  V30 23 H 0.907 2.3802 -0.5534 0
M  V30 24 H 2.2292 1.299 -0.1865 0
M  V30 25 H -0.1497 -2.2206 -1.7847 0
M  V30 26 H -1.4496 -3.2797 -1.2515 0
M  V30 27 H 0.1926 -3.5695 -0.6833 0
M  V30 28 H -2.2963 -3.1678 1.1957 0
M  V30 29 H -1.5473 -2.0558 2.3364 0
M  V30 30 H -0.6571 -3.4792 1.7619 0
M  V30 31 H -1.4706 0.4393 2.7406 0
M  V30 32 H 2.2353 2.3942 1.6351 0
M  V30 33 H -1.545 2.6948 -0.1125 0
M  V30 34 H 0.1483 0.3243 -2.1801 0
M  V30 35 H 1.19 1.6575 -2.6233 0
M  V30 36 H -3.457 -1.8646 -0.6573 0
M  V30 37 H -1.3474 1.5015 4.9395 0
M  V30 38 H 2.318 3.4333 3.8331 0
M  V30 39 H -3.8599 2.4002 -0.9283 0
M  V30 40 H 2.2208 -1.064 -1.6822 0
M  V30 41 H 3.2176 0.3314 -2.1272 0
M  V30 42 H -4.8101 0.1277 -1.1982 0
M  V30 43 H 0.5394 3.0089 5.5061 0
M  V30 44 H 1.255 -0.9885 -3.8876 0
M  V30 45 H 3.1606 -2.403 -3.5055 0
M  V30 46 H 4.2078 -1.0256 -3.9406 0
M  V30 47 H 3.1286 -1.735 -5.1444 0
M  V30 END ATOM
M  V30 BEGIN BOND
M  V30 1 1 1 2
M  V30 2 1 1 3
M  V30 3 1 2 4
M  V30 4 1 2 5
M  V30 5 1 2 6
M  V30 6 1 3 7
M  V30 7 1 3 8
M  V30 8 1 3 9
M  V30 9 2 4 10
M  V30 10 1 4 11
M  V30 11 1 5 12
M  V30 12 1 6 13
M  V30 13 1 7 14
M  V30 14 1 10 15
M  V30 15 2 11 16
M  V30 16 2 12 17
M  V30 17 1 13 18
M  V30 18 2 14 19
M  V30 19 2 15 20
M  V30 20 1 18 21
M  V30 21 1 21 22
M  V30 22 2 5 7
M  V30 23 1 16 20
M  V30 24 1 17 19
M  V30 25 1 6 23
M  V30 26 1 6 24
M  V30 27 1 8 25
M  V30 28 1 8 26
M  V30 29 1 8 27
M  V30 30 1 9 28
M  V30 31 1 9 29
M  V30 32 1 9 30
M  V30 33 1 10 31
M  V30 34 1 11 32
M  V30 35 1 12 33
M  V30 36 1 13 34
M  V30 37 1 13 35
M  V30 38 1 14 36
M  V30 39 1 15 37
M  V30 40 1 16 38
M  V30 41 1 17 39
M  V30 42 1 18 40
M  V30 43 1 18 41
M  V30 44 1 19 42
M  V30 45 1 20 43
M  V30 46 1 21 44
M  V30 47 1 22 45
M  V30 48 1 22 46
M  V30 49 1 22 47
M  V30 END BOND
M  V30 BEGIN COLLECTION
M  V30 MDLV30/STERAC1 ATOMS=(1 2)
M  V30 END COLLECTION
M  V30 END CTAB
M  END
>  <NO.>
678

>  <Name>
talsupram

>  <SMILES>
CNCCCC1(c2ccccc2)SC(C)(C)c2ccccc21

>  <logBB>
0.22

>  <Class>
1

>  <MW>
311.17

>  <nHBAcc>
2

>  <nHBDon>
1

>  <SLogP>
4.91

>  <TopoPSA>
12.03

>  <MMFF94 Energy>
75.743

$$$$
c1cc(CN2CCCCC2)cc(OCCCNc2nc3ccccc3o2)c1
Actelion Java MolfileCreator 2.0

  0  0  0  0  0  0              0 V3000
M  V30 BEGIN CTAB
M  V30 COUNTS 54 57 0 0 0
M  V30 BEGIN ATOM
M  V30 1 O -5.004 -1.6658 3.4928 0
M  V30 2 C -4.3261 -0.4802 3.4722 0
M  V30 3 C -6.3052 -1.295 3.6633 0
M  V30 4 N -5.0737 0.5922 3.613 0
M  V30 5 N -3.0024 -0.5822 3.3112 0
M  V30 6 C -6.3423 0.0872 3.7363 0
M  V30 7 C -7.4164 -2.1242 3.752 0
M  V30 8 C -2.1637 0.592 3.3824 0
M  V30 9 C -7.5777 0.7236 3.9123 0
M  V30 10 C -8.6444 -1.4741 3.9278 0
M  V30 11 C -0.7944 0.316 2.7725 0
M  V30 12 C -8.7264 -0.0773 4.0068 0
M  V30 13 C -0.8627 0.1315 1.2584 0
M  V30 14 O 0.47 -0.0786 0.7885 0
M  V30 15 C 0.6316 -0.2611 -0.5579 0
M  V30 16 C 1.9564 -0.4502 -0.9643 0
M  V30 17 C -0.385 -0.2725 -1.5127 0
M  V30 18 C 2.2789 -0.6476 -2.3154 0
M  V30 19 C -0.0776 -0.4706 -2.8611 0
M  V30 20 C 1.245 -0.6583 -3.2602 0
M  V30 21 C 3.7163 -0.8628 -2.741 0
M  V30 22 N 4.1848 0.1187 -3.7335 0
M  V30 23 C 5.4571 -0.2905 -4.3455 0
M  V30 24 C 4.2838 1.4866 -3.1993 0
M  V30 25 C 6.669 -0.1503 -3.4208 0
M  V30 26 C 5.4518 1.6995 -2.2326 0
M  V30 27 C 6.7729 1.2622 -2.8558 0
M  V30 28 H -2.5769 -1.5002 3.2928 0
M  V30 29 H -7.3323 -3.2014 3.6887 0
M  V30 30 H -2.0363 0.8768 4.4334 0
M  V30 31 H -2.6257 1.4423 2.865 0
M  V30 32 H -7.6368 1.8045 3.973 0
M  V30 33 H -9.5541 -2.0672 4.0047 0
M  V30 34 H -0.3346 -0.5684 3.2312 0
M  V30 35 H -0.122 1.1535 2.9971 0
M  V30 36 H -9.6965 0.3966 4.1438 0
M  V30 37 H -1.4833 -0.7392 1.017 0
M  V30 38 H -1.2843 1.0334 0.7986 0
M  V30 39 H 2.7424 -0.4385 -0.2127 0
M  V30 40 H -1.4262 -0.1298 -1.2445 0
M  V30 41 H -0.8714 -0.4757 -3.6036 0
M  V30 42 H 1.4752 -0.8036 -4.3138 0
M  V30 43 H 3.7551 -1.8714 -3.1748 0
M  V30 44 H 4.369 -0.8913 -1.8606 0
M  V30 45 H 5.6214 0.3244 -5.2401 0
M  V30 46 H 5.389 -1.3218 -4.7129 0
M  V30 47 H 3.3478 1.7935 -2.7187 0
M  V30 48 H 4.4027 2.1731 -4.0483 0
M  V30 49 H 7.5832 -0.3899 -3.9758 0
M  V30 50 H 6.6025 -0.8723 -2.5984 0
M  V30 51 H 5.2804 1.1447 -1.3028 0
M  V30 52 H 5.5113 2.7591 -1.9583 0
M  V30 53 H 7.5749 1.3118 -2.1112 0
M  V30 54 H 7.0407 1.9563 -3.6619 0
M  V30 END ATOM
M  V30 BEGIN BOND
M  V30 1 1 1 2
M  V30 2 1 1 3
M  V30 3 2 2 4
M  V30 4 1 2 5
M  V30 5 2 3 6
M  V30 6 1 3 7
M  V30 7 1 5 8
M  V30 8 1 6 9
M  V30 9 2 7 10
M  V30 10 1 8 11
M  V30 11 2 9 12
M  V30 12 1 11 13
M  V30 13 1 13 14
M  V30 14 1 14 15
M  V30 15 2 15 16
M  V30 16 1 15 17
M  V30 17 1 16 18
M  V30 18 2 17 19
M  V30 19 2 18 20
M  V30 20 1 18 21
M  V30 21 1 21 22
M  V30 22 1 22 23
M  V30 23 1 22 24
M  V30 24 1 23 25
M  V30 25 1 24 26
M  V30 26 1 25 27
M  V30 27 1 4 6
M  V30 28 1 10 12
M  V30 29 1 19 20
M  V30 30 1 26 27
M  V30 31 1 5 28
M  V30 32 1 7 29
M  V30 33 1 8 30
M  V30 34 1 8 31
M  V30 35 1 9 32
M  V30 36 1 10 33
M  V30 37 1 11 34
M  V30 38 1 11 35
M  V30 39 1 12 36
M  V30 40 1 13 37
M  V30 41 1 13 38
M  V30 42 1 16 39
M  V30 43 1 17 40
M  V30 44 1 19 41
M  V30 45 1 20 42
M  V30 46 1 21 43
M  V30 47 1 21 44
M  V30 48 1 23 45
M  V30 49 1 23 46
M  V30 50 1 24 47
M  V30 51 1 24 48
M  V30 52 1 25 49
M  V30 53 1 25 50
M  V30 54 1 26 51
M  V30 55 1 26 52
M  V30 56 1 27 53
M  V30 57 1 27 54
M  V30 END BOND
M  V30 END CTAB
M  END
>  <NO.>
680

>  <Name>
b-066, skb-42

>  <SMILES>
c1cc(CN2CCCCC2)cc(OCCCNc2nc3ccccc3o2)c1

>  <logBB>
0.22

>  <Class>
1

>  <MW>
365.21

>  <nHBAcc>
5

>  <nHBDon>
1

>  <SLogP>
4.69

>  <TopoPSA>
50.53

>  <MMFF94 Energy>
-12.275

$$$$
CN1C2CC(OC(=O)C(CO)c3ccccc3)CC1C1OC12
Actelion Java MolfileCreator 2.0

  0  0  0  0  0  0              0 V3000
M  V30 BEGIN CTAB
M  V30 COUNTS 43 46 0 0 0
M  V30 BEGIN ATOM
M  V30 1 O -0.6436 -1.9318 -1.2875 0
M  V30 2 C -0.1807 -1.5364 -0.224 0
M  V30 3 O 0.258 -0.2626 -0.0027 0
M  V30 4 C -0.0642 -2.3956 1.0236 0
M  V30 5 C 0.1359 0.6542 -1.1093 0
M  V30 6 C -1.2853 -2.2586 1.9223 0
M  V30 7 C 1.2597 -2.1335 1.7553 0
M  V30 8 C 1.2879 0.437 -2.116 0
M  V30 9 C 0.0804 2.0848 -0.5299 0
M  V30 10 C -2.1 -3.3758 2.1636 0
M  V30 11 C -1.6312 -1.0359 2.5206 0
M  V30 12 O 1.6294 -3.2752 2.5296 0
M  V30 13 C 1.5173 1.6682 -3.0099 0
M  V30 14 C 0.4282 3.1523 -1.5816 0
M  V30 15 C -3.2291 -3.2731 2.9784 0
M  V30 16 C -2.7612 -0.9355 3.335 0
M  V30 17 N 1.7438 2.8652 -2.1799 0
M  V30 18 C 0.2209 2.0499 -3.7064 0
M  V30 19 C -0.4735 2.9963 -2.7955 0
M  V30 20 C -3.5598 -2.0533 3.5633 0
M  V30 21 C 2.8844 2.8441 -1.2897 0
M  V30 22 O 0.0287 3.4266 -4.0708 0
M  V30 23 H -0.0198 -3.4312 0.6568 0
M  V30 24 H -0.8226 0.4741 -1.6154 0
M  V30 25 H 1.204 -1.267 2.4227 0
M  V30 26 H 2.0714 -1.9586 1.0403 0
M  V30 27 H 2.2078 0.1659 -1.5839 0
M  V30 28 H 1.0499 -0.4308 -2.7437 0
M  V30 29 H 0.7434 2.1681 0.3401 0
M  V30 30 H -0.9303 2.2605 -0.1389 0
M  V30 31 H -1.859 -4.34 1.7202 0
M  V30 32 H -1.0269 -0.146 2.3608 0
M  V30 33 H 2.4046 -3.0255 3.0616 0
M  V30 34 H 2.3231 1.5102 -3.7329 0
M  V30 35 H 0.3728 4.1668 -1.1755 0
M  V30 36 H -3.8495 -4.1476 3.1567 0
M  V30 37 H -3.0187 0.0162 3.7924 0
M  V30 38 H -0.3067 1.2765 -4.2384 0
M  V30 39 H -1.5361 2.9526 -2.6271 0
M  V30 40 H -4.4387 -1.9751 4.1975 0
M  V30 41 H 2.9844 3.8106 -0.7839 0
M  V30 42 H 3.8056 2.6928 -1.8627 0
M  V30 43 H 2.8405 2.0687 -0.5197 0
M  V30 END ATOM
M  V30 BEGIN BOND
M  V30 1 2 1 2
M  V30 2 1 2 3
M  V30 3 1 2 4
M  V30 4 1 3 5
M  V30 5 1 4 6
M  V30 6 1 4 7
M  V30 7 1 5 8
M  V30 8 1 5 9
M  V30 9 2 6 10
M  V30 10 1 6 11
M  V30 11 1 7 12
M  V30 12 1 8 13
M  V30 13 1 9 14
M  V30 14 1 10 15
M  V30 15 2 11 16
M  V30 16 1 13 17
M  V30 17 1 13 18
M  V30 18 1 14 19
M  V30 19 2 15 20
M  V30 20 1 17 21
M  V30 21 1 18 22
M  V30 22 1 14 17
M  V30 23 1 16 20
M  V30 24 1 18 19
M  V30 25 1 19 22
M  V30 26 1 4 23
M  V30 27 1 5 24
M  V30 28 1 7 25
M  V30 29 1 7 26
M  V30 30 1 8 27
M  V30 31 1 8 28
M  V30 32 1 9 29
M  V30 33 1 9 30
M  V30 34 1 10 31
M  V30 35 1 11 32
M  V30 36 1 12 33
M  V30 37 1 13 34
M  V30 38 1 14 35
M  V30 39 1 15 36
M  V30 40 1 16 37
M  V30 41 1 18 38
M  V30 42 1 19 39
M  V30 43 1 20 40
M  V30 44 1 21 41
M  V30 45 1 21 42
M  V30 46 1 21 43
M  V30 END BOND
M  V30 END CTAB
M  END
>  <NO.>
681

>  <Name>
scopolamine

>  <SMILES>
CN1C2CC(OC(=O)C(CO)c3ccccc3)CC1C1OC12

>  <logBB>
0.23

>  <Class>
1

>  <MW>
303.15

>  <nHBAcc>
5

>  <nHBDon>
1

>  <SLogP>
0.92

>  <TopoPSA>
62.3

>  <MMFF94 Energy>
77.843

$$$$
COc1cc(/C=C/C(=O)NCCn2c(C(F)(F)F)cc3ccccc32)cc(OC)c1OC
Actelion Java MolfileCreator 2.0

  0  0  0  0  0  0              0 V3000
M  V30 BEGIN CTAB
M  V30 COUNTS 55 57 0 0 0
M  V30 BEGIN ATOM
M  V30 1 F 4.6297 4.9496 0.3187 0
M  V30 2 C 3.9778 5.5165 -0.7272 0
M  V30 3 F 4.8163 5.4578 -1.7907 0
M  V30 4 F 3.8096 6.8269 -0.4234 0
M  V30 5 C 2.6901 4.8314 -1.005 0
M  V30 6 N 2.5817 3.4766 -1.2558 0
M  V30 7 C 1.4145 5.3621 -1.0709 0
M  V30 8 C 1.2672 3.1571 -1.5632 0
M  V30 9 C 3.6749 2.5075 -1.2015 0
M  V30 10 C 0.5146 4.324 -1.4178 0
M  V30 11 C 0.6704 1.9441 -1.9497 0
M  V30 12 C 3.8803 1.9189 0.2005 0
M  V30 13 C -0.8762 4.278 -1.6384 0
M  V30 14 C -0.7109 1.9208 -2.1643 0
M  V30 15 N 2.7401 1.1599 0.6802 0
M  V30 16 C -1.4772 3.0703 -2.0072 0
M  V30 17 C 2.5035 -0.1231 0.259 0
M  V30 18 O 3.2428 -0.743 -0.4931 0
M  V30 19 C 1.2165 -0.6627 0.7585 0
M  V30 20 C 0.7822 -1.8562 0.3271 0
M  V30 21 C -0.5032 -2.4325 0.7396 0
M  V30 22 C -1.6828 -1.6716 0.717 0
M  V30 23 C -0.5524 -3.7827 1.1137 0
M  V30 24 C -2.9032 -2.2407 1.0866 0
M  V30 25 C -1.762 -4.3719 1.4897 0
M  V30 26 O -4.1038 -1.5783 1.0999 0
M  V30 27 C -2.9336 -3.596 1.4562 0
M  V30 28 O -1.9089 -5.6776 1.8816 0
M  V30 29 C -4.0813 -0.1759 0.8727 0
M  V30 30 O -4.1255 -4.1551 1.8645 0
M  V30 31 C -0.7257 -6.4397 2.0763 0
M  V30 32 C -4.7932 -4.7378 0.7468 0
M  V30 33 H 1.161 6.4028 -0.9069 0
M  V30 34 H 4.5863 3.0144 -1.534 0
M  V30 35 H 3.4668 1.7239 -1.9373 0
M  V30 36 H 1.2547 1.0399 -2.0918 0
M  V30 37 H 4.7558 1.2602 0.1912 0
M  V30 38 H 4.061 2.7072 0.9374 0
M  V30 39 H -1.4786 5.176 -1.5341 0
M  V30 40 H -1.1877 0.9916 -2.4687 0
M  V30 41 H 2.061 1.6382 1.2585 0
M  V30 42 H -2.5489 3.0364 -2.1868 0
M  V30 43 H 0.6438 -0.0614 1.4529 0
M  V30 44 H 1.3831 -2.4547 -0.3554 0
M  V30 45 H -1.6291 -0.6377 0.3921 0
M  V30 46 H 0.3705 -4.354 1.1099 0
M  V30 47 H -3.4468 0.3359 1.6039 0
M  V30 48 H -5.1016 0.1994 0.9975 0
M  V30 49 H -3.7674 0.0505 -0.1514 0
M  V30 50 H -0.2019 -6.5992 1.1284 0
M  V30 51 H -1.0196 -7.4205 2.4623 0
M  V30 52 H -0.0694 -5.9732 2.8186 0
M  V30 53 H -5.0333 -3.9855 -0.0124 0
M  V30 54 H -5.734 -5.166 1.1056 0
M  V30 55 H -4.2019 -5.5468 0.3043 0
M  V30 END ATOM
M  V30 BEGIN BOND
M  V30 1 1 1 2
M  V30 2 1 2 3
M  V30 3 1 2 4
M  V30 4 1 2 5
M  V30 5 1 5 6
M  V30 6 2 5 7
M  V30 7 1 6 8
M  V30 8 1 6 9
M  V30 9 1 7 10
M  V30 10 1 8 11
M  V30 11 1 9 12
M  V30 12 1 10 13
M  V30 13 2 11 14
M  V30 14 1 12 15
M  V30 15 2 13 16
M  V30 16 1 15 17
M  V30 17 2 17 18
M  V30 18 1 17 19
M  V30 19 2 19 20
M  V30 20 1 20 21
M  V30 21 2 21 22
M  V30 22 1 21 23
M  V30 23 1 22 24
M  V30 24 2 23 25
M  V30 25 1 24 26
M  V30 26 2 24 27
M  V30 27 1 25 28
M  V30 28 1 26 29
M  V30 29 1 27 30
M  V30 30 1 28 31
M  V30 31 1 30 32
M  V30 32 2 8 10
M  V30 33 1 14 16
M  V30 34 1 25 27
M  V30 35 1 7 33
M  V30 36 1 9 34
M  V30 37 1 9 35
M  V30 38 1 11 36
M  V30 39 1 12 37
M  V30 40 1 12 38
M  V30 41 1 13 39
M  V30 42 1 14 40
M  V30 43 1 15 41
M  V30 44 1 16 42
M  V30 45 1 19 43
M  V30 46 1 20 44
M  V30 47 1 22 45
M  V30 48 1 23 46
M  V30 49 1 29 47
M  V30 50 1 29 48
M  V30 51 1 29 49
M  V30 52 1 31 50
M  V30 53 1 31 51
M  V30 54 1 31 52
M  V30 55 1 32 53
M  V30 56 1 32 54
M  V30 57 1 32 55
M  V30 END BOND
M  V30 END CTAB
M  END
>  <NO.>
684

>  <Name>
5d

>  <SMILES>
COc1cc(/C=C/C(=O)NCCn2c(C(F)(F)F)cc3ccccc32)cc(OC)c1OC

>  <logBB>
0.23

>  <Class>
1

>  <MW>
448.16

>  <nHBAcc>
4

>  <nHBDon>
1

>  <SLogP>
4.52

>  <TopoPSA>
61.72

>  <MMFF94 Energy>
52.17

$$$$
c1cc2ccc3cccc4ccc(c1)c2c34
Actelion Java MolfileCreator 2.0

  0  0  0  0  0  0              0 V3000
M  V30 BEGIN CTAB
M  V30 COUNTS 26 29 0 0 0
M  V30 BEGIN ATOM
M  V30 1 C -0.2427 -0.6473 0.0809 0
M  V30 2 C 0.2238 0.6877 -0.0079 0
M  V30 3 C 0.6794 -1.711 0.2153 0
M  V30 4 C -1.6305 -0.9156 0.0352 0
M  V30 5 C 1.6115 0.9561 0.0378 0
M  V30 6 C -0.6984 1.7514 -0.1423 0
M  V30 7 C 2.0509 -1.4266 0.2589 0
M  V30 8 C 0.2018 -3.027 0.3021 0
M  V30 9 C -2.5301 0.1506 -0.0982 0
M  V30 10 C -2.0767 -2.2424 0.1244 0
M  V30 11 C 2.5111 -0.1101 0.1714 0
M  V30 12 C 2.0577 2.2829 -0.0513 0
M  V30 13 C -2.07 1.4671 -0.1858 0
M  V30 14 C -0.2209 3.0675 -0.229 0
M  V30 15 C -1.1667 -3.2906 0.257 0
M  V30 16 C 1.1475 3.3312 -0.1838 0
M  V30 17 H 2.7765 -2.2303 0.362 0
M  V30 18 H 0.895 -3.8587 0.4059 0
M  V30 19 H -3.6014 -0.0343 -0.1353 0
M  V30 20 H -3.14 -2.4693 0.0912 0
M  V30 21 H 3.5822 0.0749 0.2085 0
M  V30 22 H 3.1209 2.5099 -0.018 0
M  V30 23 H -2.7957 2.2709 -0.2888 0
M  V30 24 H -0.9142 3.8993 -0.3328 0
M  V30 25 H -1.5247 -4.3146 0.3252 0
M  V30 26 H 1.5054 4.3553 -0.252 0
M  V30 END ATOM
M  V30 BEGIN BOND
M  V30 1 2 1 2
M  V30 2 1 1 3
M  V30 3 1 1 4
M  V30 4 1 2 5
M  V30 5 1 2 6
M  V30 6 1 3 7
M  V30 7 2 3 8
M  V30 8 2 4 9
M  V30 9 1 4 10
M  V30 10 1 5 11
M  V30 11 2 5 12
M  V30 12 2 6 13
M  V30 13 1 6 14
M  V30 14 1 8 15
M  V30 15 1 12 16
M  V30 16 2 7 11
M  V30 17 1 9 13
M  V30 18 2 10 15
M  V30 19 2 14 16
M  V30 20 1 7 17
M  V30 21 1 8 18
M  V30 22 1 9 19
M  V30 23 1 10 20
M  V30 24 1 11 21
M  V30 25 1 12 22
M  V30 26 1 13 23
M  V30 27 1 14 24
M  V30 28 1 15 25
M  V30 29 1 16 26
M  V30 END BOND
M  V30 END CTAB
M  END
>  <NO.>
686

>  <Name>
pyrene

>  <SMILES>
c1cc2ccc3cccc4ccc(c1)c2c34

>  <logBB>
0.23

>  <Class>
1

>  <MW>
202.08

>  <nHBAcc>
0

>  <nHBDon>
0

>  <SLogP>
4.58

>  <TopoPSA>
0

>  <MMFF94 Energy>
59.539

$$$$
CN1CCCC1c1cccnc1
Actelion Java MolfileCreator 2.0

  0  0  0  0  0  0              0 V3000
M  V30 BEGIN CTAB
M  V30 COUNTS 26 27 0 0 0
M  V30 BEGIN ATOM
M  V30 1 N -1.7357 -2.5255 1.8147 0
M  V30 2 C -1.6658 -1.523 0.9082 0
M  V30 3 C -0.5784 -2.8816 2.4114 0
M  V30 4 C -0.4957 -0.8503 0.5648 0
M  V30 5 C 0.6419 -2.2866 2.1414 0
M  V30 6 C 0.6806 -1.26 1.2024 0
M  V30 7 C -0.5199 0.237 -0.4801 0 CFG=1
M  V30 8 N 0.3797 1.369 -0.182 0
M  V30 9 C -0.0415 -0.2743 -1.8494 0
M  V30 10 C 0.6968 1.976 -1.4742 0
M  V30 11 C -0.2055 2.3297 0.7452 0
M  V30 12 C 0.9678 0.7583 -2.3352 0
M  V30 13 H -2.6176 -1.2696 0.4482 0
M  V30 14 H -0.6599 -3.6861 3.1364 0
M  V30 15 H 1.5424 -2.6127 2.6488 0
M  V30 16 H 1.6262 -0.7752 0.97 0
M  V30 17 H -1.5482 0.6088 -0.5989 0
M  V30 18 H -0.8894 -0.3227 -2.5436 0
M  V30 19 H 0.4172 -1.2691 -1.8202 0
M  V30 20 H 1.5707 2.6325 -1.4189 0
M  V30 21 H -0.1502 2.545 -1.8783 0
M  V30 22 H 0.4973 3.1479 0.9371 0
M  V30 23 H -1.1379 2.7626 0.3649 0
M  V30 24 H -0.4145 1.8603 1.7125 0
M  V30 25 H 0.8613 0.9696 -3.4034 0
M  V30 26 H 1.9865 0.389 -2.1627 0
M  V30 END ATOM
M  V30 BEGIN BOND
M  V30 1 2 1 2
M  V30 2 1 1 3
M  V30 3 1 2 4
M  V30 4 2 3 5
M  V30 5 2 4 6
M  V30 6 1 4 7
M  V30 7 1 7 8
M  V30 8 1 7 9
M  V30 9 1 8 10
M  V30 10 1 8 11
M  V30 11 1 9 12
M  V30 12 1 5 6
M  V30 13 1 10 12
M  V30 14 1 2 13
M  V30 15 1 3 14
M  V30 16 1 5 15
M  V30 17 1 6 16
M  V30 18 1 7 17
M  V30 19 1 9 18
M  V30 20 1 9 19
M  V30 21 1 10 20
M  V30 22 1 10 21
M  V30 23 1 11 22
M  V30 24 1 11 23
M  V30 25 1 11 24
M  V30 26 1 12 25
M  V30 27 1 12 26
M  V30 END BOND
M  V30 BEGIN COLLECTION
M  V30 MDLV30/STERAC1 ATOMS=(1 7)
M  V30 END COLLECTION
M  V30 END CTAB
M  END
>  <NO.>
688

>  <Name>
nicotine

>  <SMILES>
CN1CCCC1c1cccnc1

>  <logBB>
0.24

>  <Class>
1

>  <MW>
162.12

>  <nHBAcc>
2

>  <nHBDon>
0

>  <SLogP>
1.85

>  <TopoPSA>
16.13

>  <MMFF94 Energy>
25.143

$$$$
COc1ccc(-n2nnnc2C(F)(F)F)cc1CNC1CCCNC1c1ccccc1
Actelion Java MolfileCreator 2.0

  0  0  0  0  0  0              0 V3000
M  V30 BEGIN CTAB
M  V30 COUNTS 54 57 0 0 0
M  V30 BEGIN ATOM
M  V30 1 F -3.1406 6.4504 3.7858 0
M  V30 2 C -2.3858 5.3635 3.4794 0
M  V30 3 F -3.2525 4.4061 3.0581 0
M  V30 4 F -1.857 4.9233 4.6513 0
M  V30 5 C -1.3503 5.6589 2.4858 0
M  V30 6 N -0.9374 6.8369 2.0507 0
M  V30 7 N -0.6696 4.6832 1.7999 0
M  V30 8 N -0.0246 6.581 1.0647 0
M  V30 9 N 0.1282 5.2782 0.8871 0
M  V30 10 C -0.7272 3.2822 1.9068 0
M  V30 11 C -0.9567 2.5245 0.7541 0
M  V30 12 C -0.5305 2.6565 3.1392 0
M  V30 13 C -1.0294 1.1233 0.8349 0
M  V30 14 C -0.584 1.2617 3.2198 0
M  V30 15 C -0.8234 0.4902 2.0769 0
M  V30 16 C -1.2607 0.3183 -0.4272 0
M  V30 17 O -0.8878 -0.879 2.0712 0
M  V30 18 N 0.0191 -0.1097 -0.9946 0
M  V30 19 C -0.2776 -1.5561 3.1635 0
M  V30 20 C -0.1464 -1.0458 -2.1262 0
M  V30 21 C 1.1627 -1.8838 -2.3859 0
M  V30 22 C -0.5168 -0.2658 -3.4 0
M  V30 23 N 1.0587 -2.7445 -3.5806 0
M  V30 24 C 1.5623 -2.7396 -1.1845 0
M  V30 25 C -0.5653 -1.1903 -4.6134 0
M  V30 26 C 0.7391 -1.9635 -4.7726 0
M  V30 27 C 2.8495 -2.6124 -0.6374 0
M  V30 28 C 0.6783 -3.6641 -0.6028 0
M  V30 29 C 3.2359 -3.3743 0.4671 0
M  V30 30 C 1.067 -4.4265 0.501 0
M  V30 31 C 2.3442 -4.2796 1.0371 0
M  V30 32 H -1.075 3.0097 -0.2145 0
M  V30 33 H -0.3068 3.2193 4.0427 0
M  V30 34 H -0.4335 0.8017 4.1918 0
M  V30 35 H -1.8139 0.9349 -1.1451 0
M  V30 36 H -1.9053 -0.5389 -0.1965 0
M  V30 37 H 0.5196 -0.5974 -0.2459 0
M  V30 38 H 0.7548 -1.2235 3.3151 0
M  V30 39 H -0.2528 -2.6231 2.923 0
M  V30 40 H -0.8703 -1.4362 4.0758 0
M  V30 41 H -0.9604 -1.7484 -1.9018 0
M  V30 42 H 1.9785 -1.1691 -2.5688 0
M  V30 43 H 0.2199 0.5276 -3.5824 0
M  V30 44 H -1.4915 0.2228 -3.2902 0
M  V30 45 H 0.3316 -3.4397 -3.4228 0
M  V30 46 H -1.4027 -1.8915 -4.5073 0
M  V30 47 H -0.7558 -0.5999 -5.5168 0
M  V30 48 H 0.6557 -2.6439 -5.6273 0
M  V30 49 H 1.5638 -1.2774 -5.0006 0
M  V30 50 H 3.5628 -1.9162 -1.0739 0
M  V30 51 H -0.3212 -3.8031 -1.0059 0
M  V30 52 H 4.2367 -3.2644 0.8764 0
M  V30 53 H 0.3731 -5.1394 0.9384 0
M  V30 54 H 2.6484 -4.8773 1.892 0
M  V30 END ATOM
M  V30 BEGIN BOND
M  V30 1 1 1 2
M  V30 2 1 2 3
M  V30 3 1 2 4
M  V30 4 1 2 5
M  V30 5 2 5 6
M  V30 6 1 5 7
M  V30 7 1 6 8
M  V30 8 1 7 9
M  V30 9 1 7 10
M  V30 10 2 10 11
M  V30 11 1 10 12
M  V30 12 1 11 13
M  V30 13 2 12 14
M  V30 14 2 13 15
M  V30 15 1 13 16
M  V30 16 1 15 17
M  V30 17 1 16 18
M  V30 18 1 17 19
M  V30 19 1 18 20
M  V30 20 1 20 21
M  V30 21 1 20 22
M  V30 22 1 21 23
M  V30 23 1 21 24
M  V30 24 1 22 25
M  V30 25 1 23 26
M  V30 26 2 24 27
M  V30 27 1 24 28
M  V30 28 1 27 29
M  V30 29 2 28 30
M  V30 30 2 29 31
M  V30 31 2 8 9
M  V30 32 1 14 15
M  V30 33 1 25 26
M  V30 34 1 30 31
M  V30 35 1 11 32
M  V30 36 1 12 33
M  V30 37 1 14 34
M  V30 38 1 16 35
M  V30 39 1 16 36
M  V30 40 1 18 37
M  V30 41 1 19 38
M  V30 42 1 19 39
M  V30 43 1 19 40
M  V30 44 1 20 41
M  V30 45 1 21 42
M  V30 46 1 22 43
M  V30 47 1 22 44
M  V30 48 1 23 45
M  V30 49 1 25 46
M  V30 50 1 25 47
M  V30 51 1 26 48
M  V30 52 1 26 49
M  V30 53 1 27 50
M  V30 54 1 28 51
M  V30 55 1 29 52
M  V30 56 1 30 53
M  V30 57 1 31 54
M  V30 END BOND
M  V30 END CTAB
M  END
>  <NO.>
690

>  <Name>
gr 205171, vofopitant

>  <SMILES>
COc1ccc(-n2nnnc2C(F)(F)F)cc1CNC1CCCNC1c1ccccc1

>  <logBB>
0.24

>  <Class>
1

>  <MW>
432.19

>  <nHBAcc>
6

>  <nHBDon>
2

>  <SLogP>
3.27

>  <TopoPSA>
76.89

>  <MMFF94 Energy>
76.311

$$$$
CCCN(CCC)CCc1ccc2c(c1)CC(=O)N2
Actelion Java MolfileCreator 2.0

  0  0  0  0  0  0              0 V3000
M  V30 BEGIN CTAB
M  V30 COUNTS 43 44 0 0 0
M  V30 BEGIN ATOM
M  V30 1 O -4.4754 -5.3409 -2.5106 0
M  V30 2 C -3.5804 -4.6834 -2.0061 0
M  V30 3 N -2.8907 -5.0076 -0.8439 0
M  V30 4 C -3.011 -3.3585 -2.5272 0
M  V30 5 C -1.9361 -4.0498 -0.5428 0
M  V30 6 C -1.9593 -3.0445 -1.5061 0
M  V30 7 C -1.0689 -4.0321 0.5263 0
M  V30 8 C -1.0952 -1.9683 -1.4263 0
M  V30 9 C -0.1899 -2.9493 0.6191 0
M  V30 10 C -0.1923 -1.9187 -0.3508 0
M  V30 11 C 0.7573 -0.7487 -0.2121 0
M  V30 12 C 0.1456 0.3769 0.6407 0
M  V30 13 N 1.043 1.5501 0.7331 0
M  V30 14 C 2.0925 1.3212 1.7467 0
M  V30 15 C 0.2753 2.7735 1.0407 0
M  V30 16 C 3.3244 2.2203 1.5621 0
M  V30 17 C -0.3982 3.3461 -0.2136 0
M  V30 18 C 3.9906 2.0461 0.2042 0
M  V30 19 C -1.1351 4.6407 0.0985 0
M  V30 20 H -3.0816 -5.8409 -0.309 0
M  V30 21 H -2.5751 -3.5105 -3.5177 0
M  V30 22 H -3.7976 -2.5999 -2.5383 0
M  V30 23 H -1.0618 -4.8202 1.2699 0
M  V30 24 H -1.1158 -1.1831 -2.1766 0
M  V30 25 H 0.5071 -2.9052 1.4541 0
M  V30 26 H 1.0086 -0.3671 -1.2105 0
M  V30 27 H 1.6992 -1.1113 0.215 0
M  V30 28 H -0.8034 0.6576 0.1688 0
M  V30 29 H -0.1183 0.0105 1.6422 0
M  V30 30 H 2.4532 0.2871 1.6999 0
M  V30 31 H 1.6872 1.4531 2.7587 0
M  V30 32 H 0.9383 3.5557 1.4276 0
M  V30 33 H -0.4658 2.583 1.8281 0
M  V30 34 H 3.0701 3.2753 1.708 0
M  V30 35 H 4.053 1.9697 2.3429 0
M  V30 36 H 0.3583 3.5436 -0.9827 0
M  V30 37 H -1.1133 2.6353 -0.6403 0
M  V30 38 H 4.9038 2.6477 0.1537 0
M  V30 39 H 4.2642 1.0002 0.0328 0
M  V30 40 H 3.3328 2.3692 -0.6085 0
M  V30 41 H -1.6061 5.0362 -0.8067 0
M  V30 42 H -1.9186 4.4751 0.845 0
M  V30 43 H -0.4481 5.4013 0.4831 0
M  V30 END ATOM
M  V30 BEGIN BOND
M  V30 1 2 1 2
M  V30 2 1 2 3
M  V30 3 1 2 4
M  V30 4 1 3 5
M  V30 5 1 4 6
M  V30 6 1 5 7
M  V30 7 1 6 8
M  V30 8 2 7 9
M  V30 9 2 8 10
M  V30 10 1 10 11
M  V30 11 1 11 12
M  V30 12 1 12 13
M  V30 13 1 13 14
M  V30 14 1 13 15
M  V30 15 1 14 16
M  V30 16 1 15 17
M  V30 17 1 16 18
M  V30 18 1 17 19
M  V30 19 2 5 6
M  V30 20 1 9 10
M  V30 21 1 3 20
M  V30 22 1 4 21
M  V30 23 1 4 22
M  V30 24 1 7 23
M  V30 25 1 8 24
M  V30 26 1 9 25
M  V30 27 1 11 26
M  V30 28 1 11 27
M  V30 29 1 12 28
M  V30 30 1 12 29
M  V30 31 1 14 30
M  V30 32 1 14 31
M  V30 33 1 15 32
M  V30 34 1 15 33
M  V30 35 1 16 34
M  V30 36 1 16 35
M  V30 37 1 17 36
M  V30 38 1 17 37
M  V30 39 1 18 38
M  V30 40 1 18 39
M  V30 41 1 18 40
M  V30 42 1 19 41
M  V30 43 1 19 42
M  V30 44 1 19 43
M  V30 END BOND
M  V30 END CTAB
M  END
>  <NO.>
692

>  <Name>
chembl368590

>  <SMILES>
CCCN(CCC)CCc1ccc2c(c1)CC(=O)N2

>  <logBB>
0.25

>  <Class>
1

>  <MW>
260.19

>  <nHBAcc>
2

>  <nHBDon>
1

>  <SLogP>
2.85

>  <TopoPSA>
32.34

>  <MMFF94 Energy>
26.257

$$$$
CCCN1CCC[C@@H]2Cc3nc(N)ncc3C[C@H]21
Actelion Java MolfileCreator 2.0

  0  0  0  0  0  0              0 V3000
M  V30 BEGIN CTAB
M  V30 COUNTS 40 42 0 0 0
M  V30 BEGIN ATOM
M  V30 1 N -3.5628 0.5535 1.6614 0
M  V30 2 C -4.5385 0.8394 0.7941 0
M  V30 3 C -2.3158 0.4058 1.1645 0
M  V30 4 N -4.3687 0.9838 -0.5215 0
M  V30 5 N -5.7983 0.9948 1.2897 0
M  V30 6 C -2.0352 0.5135 -0.1827 0
M  V30 7 C -1.2397 0.0535 2.1534 0
M  V30 8 C -3.1151 0.8222 -0.9825 0
M  V30 9 C -0.6521 0.3795 -0.7414 0
M  V30 10 C 0.1825 0.2927 1.621 0 CFG=2
M  V30 11 C 0.3425 -0.3351 0.211 0 CFG=2
M  V30 12 C 1.2037 -0.2618 2.6171 0
M  V30 13 N 1.7441 -0.2385 -0.2752 0
M  V30 14 C 2.6082 -0.1413 2.0526 0
M  V30 15 C 2.6964 -0.8156 0.6888 0
M  V30 16 C 1.9424 -0.8636 -1.5988 0
M  V30 17 C 2.1352 0.2142 -2.6701 0
M  V30 18 C 2.3509 -0.4038 -4.0435 0
M  V30 19 H -5.9283 0.8971 2.2803 0
M  V30 20 H -6.5327 1.2193 0.643 0
M  V30 21 H -1.388 0.6375 3.0702 0
M  V30 22 H -1.369 -1.004 2.4173 0
M  V30 23 H -3.0051 0.9556 -2.0551 0
M  V30 24 H -0.2871 1.3913 -0.9622 0
M  V30 25 H -0.7142 -0.1674 -1.6895 0
M  V30 26 H 0.3454 1.378 1.5369 0
M  V30 27 H 0.0622 -1.3974 0.2763 0
M  V30 28 H 0.9891 -1.3161 2.8338 0
M  V30 29 H 1.1388 0.2796 3.5682 0
M  V30 30 H 2.8857 0.9166 1.9652 0
M  V30 31 H 3.3241 -0.6042 2.7413 0
M  V30 32 H 2.5277 -1.8952 0.7984 0
M  V30 33 H 3.7208 -0.68 0.3195 0
M  V30 34 H 1.1155 -1.5347 -1.8626 0
M  V30 35 H 2.8384 -1.4994 -1.6062 0
M  V30 36 H 1.2673 0.8797 -2.7184 0
M  V30 37 H 3.0032 0.8361 -2.4193 0
M  V30 38 H 2.4919 0.3803 -4.7939 0
M  V30 39 H 3.2384 -1.0444 -4.0511 0
M  V30 40 H 1.4875 -1.0075 -4.341 0
M  V30 END ATOM
M  V30 BEGIN BOND
M  V30 1 2 1 2
M  V30 2 1 1 3
M  V30 3 1 2 4
M  V30 4 1 2 5
M  V30 5 2 3 6
M  V30 6 1 3 7
M  V30 7 2 4 8
M  V30 8 1 6 9
M  V30 9 1 7 10
M  V30 10 1 9 11
M  V30 11 1 10 12
M  V30 12 1 11 13
M  V30 13 1 12 14
M  V30 14 1 13 15
M  V30 15 1 13 16
M  V30 16 1 16 17
M  V30 17 1 17 18
M  V30 18 1 6 8
M  V30 19 1 10 11
M  V30 20 1 14 15
M  V30 21 1 5 19
M  V30 22 1 5 20
M  V30 23 1 7 21
M  V30 24 1 7 22
M  V30 25 1 8 23
M  V30 26 1 9 24
M  V30 27 1 9 25
M  V30 28 1 10 26
M  V30 29 1 11 27
M  V30 30 1 12 28
M  V30 31 1 12 29
M  V30 32 1 14 30
M  V30 33 1 14 31
M  V30 34 1 15 32
M  V30 35 1 15 33
M  V30 36 1 16 34
M  V30 37 1 16 35
M  V30 38 1 17 36
M  V30 39 1 17 37
M  V30 40 1 18 38
M  V30 41 1 18 39
M  V30 42 1 18 40
M  V30 END BOND
M  V30 BEGIN COLLECTION
M  V30 MDLV30/STEABS ATOMS=(2 10 11)
M  V30 END COLLECTION
M  V30 END CTAB
M  END
>  <NO.>
693

>  <Name>
ropinirole hydrochloride

>  <SMILES>
CCCN1CCC[C@@H]2Cc3nc(N)ncc3C[C@H]21

>  <logBB>
0.25

>  <Class>
1

>  <MW>
246.18

>  <nHBAcc>
4

>  <nHBDon>
1

>  <SLogP>
1.65

>  <TopoPSA>
55.04

>  <MMFF94 Energy>
-72.935

$$$$
O=C(CCCN1CCC2(CC1)C(=O)NCN2c1ccccc1)c1ccc(F)cc1
Actelion Java MolfileCreator 2.0

  0  0  0  0  0  0              0 V3000
M  V30 BEGIN CTAB
M  V30 COUNTS 55 58 0 0 0
M  V30 BEGIN ATOM
M  V30 1 F 1.6786 6.567 -7.0488 0
M  V30 2 C 1.4681 5.4551 -6.3333 0
M  V30 3 C 1.2416 4.2512 -6.9874 0
M  V30 4 C 1.4781 5.5228 -4.9445 0
M  V30 5 C 1.0218 3.0932 -6.2383 0
M  V30 6 C 1.2585 4.3657 -4.1906 0
M  V30 7 C 1.03 3.1407 -4.8343 0
M  V30 8 C 0.7878 1.8716 -4.0795 0
M  V30 9 O 0.5078 0.8513 -4.7049 0
M  V30 10 C 0.8845 1.8966 -2.563 0
M  V30 11 C 0.7445 0.5005 -1.9502 0
M  V30 12 C 0.7919 0.5678 -0.4182 0
M  V30 13 N 0.8608 -0.7562 0.2269 0
M  V30 14 C -0.3765 -1.5266 0.0357 0
M  V30 15 C 1.1181 -0.5889 1.6661 0
M  V30 16 C -0.2759 -2.9249 0.6425 0
M  V30 17 C 1.3468 -1.9327 2.3477 0
M  V30 18 C 0.2202 -2.9369 2.0888 0
M  V30 19 N -0.8739 -2.8577 3.0906 0
M  V30 20 C 0.7817 -4.3415 2.391 0
M  V30 21 C -1.6443 -1.7593 3.3719 0
M  V30 22 C -0.8377 -3.9472 4.0411 0
M  V30 23 O 1.6607 -4.9484 1.7998 0
M  V30 24 N 0.128 -4.8335 3.497 0
M  V30 25 C -2.7914 -1.4831 2.6211 0
M  V30 26 C -1.3405 -0.9047 4.4395 0
M  V30 27 C -3.5975 -0.3776 2.9066 0
M  V30 28 C -2.1407 0.2035 4.7314 0
M  V30 29 C -3.2696 0.4683 3.9619 0
M  V30 30 H 1.2367 4.2184 -8.0724 0
M  V30 31 H 1.6561 6.4772 -4.4579 0
M  V30 32 H 0.8443 2.151 -6.755 0
M  V30 33 H 1.268 4.4501 -3.1081 0
M  V30 34 H 1.8583 2.3121 -2.2804 0
M  V30 35 H 0.0879 2.5436 -2.1785 0
M  V30 36 H -0.2008 0.0589 -2.285 0
M  V30 37 H 1.5507 -0.1437 -2.323 0
M  V30 38 H 1.6911 1.1354 -0.1444 0
M  V30 39 H -0.0687 1.1384 -0.0447 0
M  V30 40 H -0.5783 -1.6656 -1.0317 0
M  V30 41 H -1.2348 -0.9846 0.4449 0
M  V30 42 H 0.3022 -0.0386 2.1484 0
M  V30 43 H 2.0266 0.0093 1.8115 0
M  V30 44 H -1.246 -3.4311 0.5583 0
M  V30 45 H 0.4139 -3.5036 0.0125 0
M  V30 46 H 2.2968 -2.3386 1.9721 0
M  V30 47 H 1.4978 -1.7776 3.4235 0
M  V30 48 H -0.4977 -3.6386 5.0348 0
M  V30 49 H -1.7981 -4.4665 4.113 0
M  V30 50 H 0.3513 -5.7439 3.8693 0
M  V30 51 H -3.0726 -2.1435 1.8045 0
M  V30 52 H -0.4603 -1.0904 5.0497 0
M  V30 53 H -4.4826 -0.1839 2.3066 0
M  V30 54 H -1.8806 0.8573 5.5596 0
M  V30 55 H -3.8951 1.3279 4.1869 0
M  V30 END ATOM
M  V30 BEGIN BOND
M  V30 1 1 1 2
M  V30 2 2 2 3
M  V30 3 1 2 4
M  V30 4 1 3 5
M  V30 5 2 4 6
M  V30 6 2 5 7
M  V30 7 1 7 8
M  V30 8 2 8 9
M  V30 9 1 8 10
M  V30 10 1 10 11
M  V30 11 1 11 12
M  V30 12 1 12 13
M  V30 13 1 13 14
M  V30 14 1 13 15
M  V30 15 1 14 16
M  V30 16 1 15 17
M  V30 17 1 16 18
M  V30 18 1 18 19
M  V30 19 1 18 20
M  V30 20 1 19 21
M  V30 21 1 19 22
M  V30 22 2 20 23
M  V30 23 1 20 24
M  V30 24 2 21 25
M  V30 25 1 21 26
M  V30 26 1 25 27
M  V30 27 2 26 28
M  V30 28 2 27 29
M  V30 29 1 6 7
M  V30 30 1 17 18
M  V30 31 1 22 24
M  V30 32 1 28 29
M  V30 33 1 3 30
M  V30 34 1 4 31
M  V30 35 1 5 32
M  V30 36 1 6 33
M  V30 37 1 10 34
M  V30 38 1 10 35
M  V30 39 1 11 36
M  V30 40 1 11 37
M  V30 41 1 12 38
M  V30 42 1 12 39
M  V30 43 1 14 40
M  V30 44 1 14 41
M  V30 45 1 15 42
M  V30 46 1 15 43
M  V30 47 1 16 44
M  V30 48 1 16 45
M  V30 49 1 17 46
M  V30 50 1 17 47
M  V30 51 1 22 48
M  V30 52 1 22 49
M  V30 53 1 24 50
M  V30 54 1 25 51
M  V30 55 1 26 52
M  V30 56 1 27 53
M  V30 57 1 28 54
M  V30 58 1 29 55
M  V30 END BOND
M  V30 END CTAB
M  END
>  <NO.>
694

>  <Name>
spiperone

>  <SMILES>
O=C(CCCN1CCC2(CC1)C(=O)NCN2c1ccccc1)c1ccc(F)cc1

>  <logBB>
0.26

>  <Class>
1

>  <MW>
395.2

>  <nHBAcc>
4

>  <nHBDon>
1

>  <SLogP>
3.22

>  <TopoPSA>
52.65

>  <MMFF94 Energy>
34.688

$$$$
CCCN1CCOC2c3cc(O)ccc3CCC21
Actelion Java MolfileCreator 2.0

  0  0  0  0  0  0              0 V3000
M  V30 BEGIN CTAB
M  V30 COUNTS 39 41 0 0 0
M  V30 BEGIN ATOM
M  V30 1 O 0.7163 2.3893 0.4775 0
M  V30 2 C 1.3531 1.1991 -0.0186 0
M  V30 3 C -0.6897 2.1971 0.642 0
M  V30 4 C 1.1246 1.0071 -1.5118 0
M  V30 5 C 1.0296 -0.0541 0.869 0
M  V30 6 C -0.9792 1.0652 1.63 0
M  V30 7 C 0.9878 -0.2814 -2.0649 0
M  V30 8 C 1.1158 2.1242 -2.3668 0
M  V30 9 N -0.4274 -0.2279 1.171 0
M  V30 10 C 1.6522 -1.272 0.1627 0
M  V30 11 C 0.7915 -0.4243 -3.4477 0
M  V30 12 C 1.0037 -1.5168 -1.1983 0
M  V30 13 C 0.9315 1.9576 -3.7355 0
M  V30 14 C -0.6631 -1.2904 2.1687 0
M  V30 15 C 0.7652 0.6934 -4.2804 0
M  V30 16 O 0.9076 3.0256 -4.583 0
M  V30 17 C -2.1503 -1.6023 2.3922 0
M  V30 18 C -2.3304 -2.8152 3.2947 0
M  V30 19 H 2.4305 1.3893 0.0843 0
M  V30 20 H -1.1661 2.0133 -0.3277 0
M  V30 21 H -1.1014 3.1344 1.0309 0
M  V30 22 H 1.5444 0.0994 1.8284 0
M  V30 23 H -0.5515 1.3261 2.6067 0
M  V30 24 H -2.0663 1.0018 1.7384 0
M  V30 25 H 1.2479 3.1167 -1.9441 0
M  V30 26 H 2.7267 -1.0886 0.023 0
M  V30 27 H 1.5912 -2.1783 0.7728 0
M  V30 28 H 0.6607 -1.412 -3.8838 0
M  V30 29 H -0.0268 -1.8689 -1.0705 0
M  V30 30 H 1.5611 -2.3125 -1.7072 0
M  V30 31 H -0.1912 -1.0337 3.1259 0
M  V30 32 H -0.2025 -2.2222 1.8273 0
M  V30 33 H 0.6172 0.5768 -5.3497 0
M  V30 34 H 1.0194 3.8341 -4.0564 0
M  V30 35 H -2.6613 -0.7538 2.8591 0
M  V30 36 H -2.6408 -1.7961 1.431 0
M  V30 37 H -3.3949 -3.0172 3.4493 0
M  V30 38 H -1.8775 -3.7069 2.85 0
M  V30 39 H -1.8704 -2.6466 4.2736 0
M  V30 END ATOM
M  V30 BEGIN BOND
M  V30 1 1 1 2
M  V30 2 1 1 3
M  V30 3 1 2 4
M  V30 4 1 2 5
M  V30 5 1 3 6
M  V30 6 2 4 7
M  V30 7 1 4 8
M  V30 8 1 5 9
M  V30 9 1 5 10
M  V30 10 1 7 11
M  V30 11 1 7 12
M  V30 12 2 8 13
M  V30 13 1 9 14
M  V30 14 2 11 15
M  V30 15 1 13 16
M  V30 16 1 14 17
M  V30 17 1 17 18
M  V30 18 1 6 9
M  V30 19 1 10 12
M  V30 20 1 13 15
M  V30 21 1 2 19
M  V30 22 1 3 20
M  V30 23 1 3 21
M  V30 24 1 5 22
M  V30 25 1 6 23
M  V30 26 1 6 24
M  V30 27 1 8 25
M  V30 28 1 10 26
M  V30 29 1 10 27
M  V30 30 1 11 28
M  V30 31 1 12 29
M  V30 32 1 12 30
M  V30 33 1 14 31
M  V30 34 1 14 32
M  V30 35 1 15 33
M  V30 36 1 16 34
M  V30 37 1 17 35
M  V30 38 1 17 36
M  V30 39 1 18 37
M  V30 40 1 18 38
M  V30 41 1 18 39
M  V30 END BOND
M  V30 END CTAB
M  END
>  <NO.>
695

>  <Name>
(+)-4-propyl- 3,4,4a,5,6,10b-hexahydro- 2h-naphtho[1,2-b][1,4]oxazin-9-ol

>  <SMILES>
CCCN1CCOC2c3cc(O)ccc3CCC21

>  <logBB>
0.26

>  <Class>
1

>  <MW>
247.16

>  <nHBAcc>
3

>  <nHBDon>
1

>  <SLogP>
2.49

>  <TopoPSA>
32.7

>  <MMFF94 Energy>
84.119

$$$$
FC(Br)C(F)(F)F
Actelion Java MolfileCreator 2.0

  0  0  0  0  0  0              0 V3000
M  V30 BEGIN CTAB
M  V30 COUNTS 8 7 0 0 0
M  V30 BEGIN ATOM
M  V30 1 Br -1.4277 -1.1599 -1.3384 0
M  V30 2 C 0.1379 -0.1961 -0.6828 0 CFG=2
M  V30 3 F 1.2287 -1.0031 -0.7941 0
M  V30 4 C -0.0579 0.2671 0.7504 0
M  V30 5 F -1.1237 1.0976 0.8634 0
M  V30 6 F -0.2467 -0.7576 1.6114 0
M  V30 7 F 1.0213 0.9653 1.1831 0
M  V30 8 H 0.2766 0.6555 -1.354 0
M  V30 END ATOM
M  V30 BEGIN BOND
M  V30 1 1 1 2
M  V30 2 1 2 3
M  V30 3 1 2 4
M  V30 4 1 4 5
M  V30 5 1 4 6
M  V30 6 1 4 7
M  V30 7 1 2 8
M  V30 END BOND
M  V30 BEGIN COLLECTION
M  V30 MDLV30/STERAC1 ATOMS=(1 2)
M  V30 END COLLECTION
M  V30 END CTAB
M  END
>  <NO.>
696

>  <Name>
teflurane

>  <SMILES>
FC(Br)C(F)(F)F

>  <logBB>
0.27

>  <Class>
1

>  <MW>
179.92

>  <nHBAcc>
0

>  <nHBDon>
0

>  <SLogP>
2.24

>  <TopoPSA>
0

>  <MMFF94 Energy>
46.546

$$$$
CCCBr
Actelion Java MolfileCreator 2.0

  0  0  0  0  0  0              0 V3000
M  V30 BEGIN CTAB
M  V30 COUNTS 11 10 0 0 0
M  V30 BEGIN ATOM
M  V30 1 Br -2.2154 1.8195 0.3953 0
M  V30 2 C -1.1372 0.3241 -0.2295 0
M  V30 3 C 0.268 0.4329 0.3343 0
M  V30 4 C 1.1393 -0.7211 -0.1342 0
M  V30 5 H -1.1451 0.3682 -1.322 0
M  V30 6 H -1.6431 -0.5864 0.103 0
M  V30 7 H 0.7291 1.3789 0.0258 0
M  V30 8 H 0.2382 0.4379 1.4306 0
M  V30 9 H 1.2209 -0.7328 -1.2257 0
M  V30 10 H 2.1478 -0.6276 0.2807 0
M  V30 11 H 0.726 -1.6814 0.1903 0
M  V30 END ATOM
M  V30 BEGIN BOND
M  V30 1 1 1 2
M  V30 2 1 2 3
M  V30 3 1 3 4
M  V30 4 1 2 5
M  V30 5 1 2 6
M  V30 6 1 3 7
M  V30 7 1 3 8
M  V30 8 1 4 9
M  V30 9 1 4 10
M  V30 10 1 4 11
M  V30 END BOND
M  V30 END CTAB
M  END
>  <NO.>
697

>  <Name>
1-bromopropane (n- propylbromide)

>  <SMILES>
CCCBr

>  <logBB>
0.27

>  <Class>
1

>  <MW>
121.97

>  <nHBAcc>
0

>  <nHBDon>
0

>  <SLogP>
1.79

>  <TopoPSA>
0

>  <MMFF94 Energy>
-2.1417

$$$$
CCOC(=O)Cc1cc2c(c(N)n1)N=C(c1ccccc1)C(C)N2
Actelion Java MolfileCreator 2.0

  0  0  0  0  0  0              0 V3000
M  V30 BEGIN CTAB
M  V30 COUNTS 44 46 0 0 0
M  V30 BEGIN ATOM
M  V30 1 O -2.3813 -2.0635 -2.7786 0
M  V30 2 C -3.4137 -1.8783 -2.1477 0
M  V30 3 O -4.6697 -2.061 -2.6558 0
M  V30 4 C -3.5108 -1.5016 -0.69 0
M  V30 5 C -4.6978 -2.4371 -4.0381 0
M  V30 6 C -2.2973 -0.7793 -0.167 0
M  V30 7 C -6.1471 -2.5737 -4.4621 0
M  V30 8 N -2.478 0.5083 0.2133 0
M  V30 9 C -1.0697 -1.4288 -0.0512 0
M  V30 10 C -1.4173 1.1668 0.7248 0
M  V30 11 C 0.0319 -0.7333 0.4454 0
M  V30 12 N -1.6357 2.4892 1.0784 0
M  V30 13 C -0.139 0.5948 0.8609 0
M  V30 14 N 1.2609 -1.3707 0.567 0
M  V30 15 N 0.9133 1.3383 1.4515 0
M  V30 16 C 2.444 -0.5559 0.8338 0 CFG=2
M  V30 17 C 2.1034 0.8068 1.4755 0
M  V30 18 C 3.1941 -0.3366 -0.4794 0
M  V30 19 C 3.2126 1.6002 2.1037 0
M  V30 20 C 3.0921 2.9972 2.1473 0
M  V30 21 C 4.3529 0.9978 2.6482 0
M  V30 22 C 4.1008 3.7795 2.713 0
M  V30 23 C 5.3608 1.7845 3.2148 0
M  V30 24 C 5.2358 3.1724 3.2447 0
M  V30 25 H -4.3867 -0.8544 -0.5577 0
M  V30 26 H -3.6767 -2.4128 -0.1048 0
M  V30 27 H -4.1821 -3.3948 -4.1701 0
M  V30 28 H -4.2067 -1.6658 -4.6419 0
M  V30 29 H -6.2203 -2.8615 -5.5145 0
M  V30 30 H -6.6577 -3.3269 -3.8529 0
M  V30 31 H -6.6822 -1.6295 -4.3154 0
M  V30 32 H -0.9681 -2.4629 -0.3637 0
M  V30 33 H -2.5867 2.8108 0.9987 0
M  V30 34 H -1.0052 2.8649 1.7735 0
M  V30 35 H 1.3815 -2.2948 0.1748 0
M  V30 36 H 3.0716 -1.1363 1.5143 0
M  V30 37 H 2.5948 0.2482 -1.1868 0
M  V30 38 H 3.4332 -1.2928 -0.9573 0
M  V30 39 H 4.1327 0.2033 -0.3187 0
M  V30 40 H 2.2121 3.4861 1.7334 0
M  V30 41 H 4.4807 -0.0789 2.6674 0
M  V30 42 H 3.9974 4.8614 2.7384 0
M  V30 43 H 6.2433 1.3126 3.6407 0
M  V30 44 H 6.0203 3.7809 3.6878 0
M  V30 END ATOM
M  V30 BEGIN BOND
M  V30 1 2 1 2
M  V30 2 1 2 3
M  V30 3 1 2 4
M  V30 4 1 3 5
M  V30 5 1 4 6
M  V30 6 1 5 7
M  V30 7 2 6 8
M  V30 8 1 6 9
M  V30 9 1 8 10
M  V30 10 2 9 11
M  V30 11 1 10 12
M  V30 12 2 10 13
M  V30 13 1 11 14
M  V30 14 1 13 15
M  V30 15 1 14 16
M  V30 16 2 15 17
M  V30 17 1 16 18
M  V30 18 1 17 19
M  V30 19 2 19 20
M  V30 20 1 19 21
M  V30 21 1 20 22
M  V30 22 2 21 23
M  V30 23 2 22 24
M  V30 24 1 11 13
M  V30 25 1 16 17
M  V30 26 1 23 24
M  V30 27 1 4 25
M  V30 28 1 4 26
M  V30 29 1 5 27
M  V30 30 1 5 28
M  V30 31 1 7 29
M  V30 32 1 7 30
M  V30 33 1 7 31
M  V30 34 1 9 32
M  V30 35 1 12 33
M  V30 36 1 12 34
M  V30 37 1 14 35
M  V30 38 1 16 36
M  V30 39 1 18 37
M  V30 40 1 18 38
M  V30 41 1 18 39
M  V30 42 1 20 40
M  V30 43 1 21 41
M  V30 44 1 22 42
M  V30 45 1 23 43
M  V30 46 1 24 44
M  V30 END BOND
M  V30 BEGIN COLLECTION
M  V30 MDLV30/STERAC1 ATOMS=(1 16)
M  V30 END COLLECTION
M  V30 END CTAB
M  END
>  <NO.>
698

>  <Name>
nsc 350386

>  <SMILES>
CCOC(=O)Cc1cc2c(c(N)n1)N=C(c1ccccc1)C(C)N2

>  <logBB>
0.27

>  <Class>
1

>  <MW>
324.16

>  <nHBAcc>
6

>  <nHBDon>
2

>  <SLogP>
2.7

>  <TopoPSA>
89.6

>  <MMFF94 Energy>
104.73

$$$$
CCOC(=O)c1ccc(N)cc1
Actelion Java MolfileCreator 2.0

  0  0  0  0  0  0              0 V3000
M  V30 BEGIN CTAB
M  V30 COUNTS 23 23 0 0 0
M  V30 BEGIN ATOM
M  V30 1 O -0.389 -0.3112 -2.492 0
M  V30 2 C -0.2924 0.1616 -1.3704 0
M  V30 3 O -0.5421 1.4507 -1.0295 0
M  V30 4 C 0.1249 -0.6251 -0.1783 0
M  V30 5 C -0.9513 2.2784 -2.1248 0
M  V30 6 C 0.422 -1.9818 -0.3505 0
M  V30 7 C 0.2265 -0.0622 1.0989 0
M  V30 8 C -1.1924 3.6783 -1.5946 0
M  V30 9 C 0.8182 -2.7618 0.741 0
M  V30 10 C 0.6239 -0.8508 2.1849 0
M  V30 11 C 0.9322 -2.2022 2.0149 0
M  V30 12 N 1.3009 -2.9806 3.0946 0
M  V30 13 H -1.8755 1.884 -2.5616 0
M  V30 14 H -0.1631 2.3016 -2.8856 0
M  V30 15 H 0.3446 -2.4409 -1.334 0
M  V30 16 H -0.0017 0.9866 1.2691 0
M  V30 17 H -1.5082 4.3506 -2.3971 0
M  V30 18 H -1.9635 3.6685 -0.8172 0
M  V30 19 H -0.2825 4.0785 -1.1352 0
M  V30 20 H 1.0378 -3.8145 0.5837 0
M  V30 21 H 0.6906 -0.3956 3.1697 0
M  V30 22 H 1.428 -2.5678 4.0082 0
M  V30 23 H 1.5667 -3.9469 2.9645 0
M  V30 END ATOM
M  V30 BEGIN BOND
M  V30 1 2 1 2
M  V30 2 1 2 3
M  V30 3 1 2 4
M  V30 4 1 3 5
M  V30 5 2 4 6
M  V30 6 1 4 7
M  V30 7 1 5 8
M  V30 8 1 6 9
M  V30 9 2 7 10
M  V30 10 2 9 11
M  V30 11 1 11 12
M  V30 12 1 10 11
M  V30 13 1 5 13
M  V30 14 1 5 14
M  V30 15 1 6 15
M  V30 16 1 7 16
M  V30 17 1 8 17
M  V30 18 1 8 18
M  V30 19 1 8 19
M  V30 20 1 9 20
M  V30 21 1 10 21
M  V30 22 1 12 22
M  V30 23 1 12 23
M  V30 END BOND
M  V30 END CTAB
M  END
>  <NO.>
699

>  <Name>
ethyl 4-aminobenzoate (benzocaine)

>  <SMILES>
CCOC(=O)c1ccc(N)cc1

>  <logBB>
0.27

>  <Class>
1

>  <MW>
165.08

>  <nHBAcc>
3

>  <nHBDon>
1

>  <SLogP>
1.45

>  <TopoPSA>
52.32

>  <MMFF94 Energy>
18.179

$$$$
FC(Br)CC(F)(F)F
Actelion Java MolfileCreator 2.0

  0  0  0  0  0  0              0 V3000
M  V30 BEGIN CTAB
M  V30 COUNTS 11 10 0 0 0
M  V30 BEGIN ATOM
M  V30 1 Br -1.0239 -0.0852 2.7321 0
M  V30 2 C 0.1007 -0.3711 1.1637 0 CFG=2
M  V30 3 F 1.3464 0.0887 1.4354 0
M  V30 4 C -0.476 0.376 -0.0087 0
M  V30 5 C 0.2893 0.0043 -1.2455 0
M  V30 6 F 1.587 0.354 -1.1728 0
M  V30 7 F 0.2244 -1.326 -1.4707 0
M  V30 8 F -0.24 0.6221 -2.3254 0
M  V30 9 H 0.1468 -1.4529 1.011 0
M  V30 10 H -0.4044 1.4582 0.1494 0
M  V30 11 H -1.5344 0.1302 -0.1522 0
M  V30 END ATOM
M  V30 BEGIN BOND
M  V30 1 1 1 2
M  V30 2 1 2 3
M  V30 3 1 2 4
M  V30 4 1 4 5
M  V30 5 1 5 6
M  V30 6 1 5 7
M  V30 7 1 5 8
M  V30 8 1 2 9
M  V30 9 1 4 10
M  V30 10 1 4 11
M  V30 END BOND
M  V30 BEGIN COLLECTION
M  V30 MDLV30/STERAC1 ATOMS=(1 2)
M  V30 END COLLECTION
M  V30 END CTAB
M  END
>  <NO.>
700

>  <Name>
lin_train_55

>  <SMILES>
FC(Br)CC(F)(F)F

>  <logBB>
0.27

>  <Class>
1

>  <MW>
193.94

>  <nHBAcc>
0

>  <nHBDon>
0

>  <SLogP>
2.63

>  <TopoPSA>
0

>  <MMFF94 Energy>
-31.348

$$$$
Cc1cccc(OCC(O)CNC(C)C)c1
Actelion Java MolfileCreator 2.0

  0  0  0  0  0  0              0 V3000
M  V30 BEGIN CTAB
M  V30 COUNTS 37 37 0 0 0
M  V30 BEGIN ATOM
M  V30 1 O 1.4766 0.6215 0.0776 0
M  V30 2 C 1.3465 1.3644 1.2186 0
M  V30 3 C 1.2718 -0.7872 0.1899 0
M  V30 4 C 0.9779 0.8835 2.477 0
M  V30 5 C 1.6125 2.7261 1.0589 0
M  V30 6 C 1.4918 -1.4342 -1.1854 0 CFG=1
M  V30 7 C 0.8884 1.7534 3.5763 0
M  V30 8 C 1.5129 3.601 2.1405 0
M  V30 9 O 1.5533 -2.8657 -1.068 0
M  V30 10 C 0.3869 -1.0653 -2.2004 0
M  V30 11 C 1.1474 3.1167 3.395 0
M  V30 12 C 0.4561 1.2363 4.9172 0
M  V30 13 N -0.9085 -1.6503 -1.8132 0
M  V30 14 C -1.9281 -1.5354 -2.8618 0
M  V30 15 C -3.1208 -2.4116 -2.4699 0
M  V30 16 C -2.392 -0.0902 -3.0503 0
M  V30 17 H 0.2624 -1.0098 0.5565 0
M  V30 18 H 1.9949 -1.2126 0.8976 0
M  V30 19 H 0.748 -0.1657 2.632 0
M  V30 20 H 1.8946 3.109 0.0816 0
M  V30 21 H 2.4504 -1.0962 -1.5975 0
M  V30 22 H 1.7155 4.6596 2.0024 0
M  V30 23 H 2.3244 -3.0738 -0.5127 0
M  V30 24 H 0.3149 0.0234 -2.2869 0
M  V30 25 H 0.6808 -1.4706 -3.1764 0
M  V30 26 H 1.0637 3.8092 4.2296 0
M  V30 27 H -0.6355 1.2547 4.9908 0
M  V30 28 H 0.8053 0.2097 5.0701 0
M  V30 29 H 0.8753 1.8449 5.7254 0
M  V30 30 H -0.7305 -2.6394 -1.6128 0
M  V30 31 H -1.5341 -1.916 -3.8122 0
M  V30 32 H -3.5652 -2.0867 -1.522 0
M  V30 33 H -2.8211 -3.4601 -2.362 0
M  V30 34 H -3.9004 -2.3699 -3.2383 0
M  V30 35 H -1.5871 0.5455 -3.4323 0
M  V30 36 H -2.7494 0.3416 -2.1087 0
M  V30 37 H -3.2136 -0.0401 -3.7735 0
M  V30 END ATOM
M  V30 BEGIN BOND
M  V30 1 1 1 2
M  V30 2 1 1 3
M  V30 3 2 2 4
M  V30 4 1 2 5
M  V30 5 1 3 6
M  V30 6 1 4 7
M  V30 7 2 5 8
M  V30 8 1 6 9
M  V30 9 1 6 10
M  V30 10 2 7 11
M  V30 11 1 7 12
M  V30 12 1 10 13
M  V30 13 1 13 14
M  V30 14 1 14 15
M  V30 15 1 14 16
M  V30 16 1 8 11
M  V30 17 1 3 17
M  V30 18 1 3 18
M  V30 19 1 4 19
M  V30 20 1 5 20
M  V30 21 1 6 21
M  V30 22 1 8 22
M  V30 23 1 9 23
M  V30 24 1 10 24
M  V30 25 1 10 25
M  V30 26 1 11 26
M  V30 27 1 12 27
M  V30 28 1 12 28
M  V30 29 1 12 29
M  V30 30 1 13 30
M  V30 31 1 14 31
M  V30 32 1 15 32
M  V30 33 1 15 33
M  V30 34 1 15 34
M  V30 35 1 16 35
M  V30 36 1 16 36
M  V30 37 1 16 37
M  V30 END BOND
M  V30 BEGIN COLLECTION
M  V30 MDLV30/STERAC1 ATOMS=(1 6)
M  V30 END COLLECTION
M  V30 END CTAB
M  END
>  <NO.>
702

>  <Name>
toliprolol

>  <SMILES>
Cc1cccc(OCC(O)CNC(C)C)c1

>  <logBB>
0.28

>  <Class>
1

>  <MW>
223.16

>  <nHBAcc>
3

>  <nHBDon>
2

>  <SLogP>
1.73

>  <TopoPSA>
41.49

>  <MMFF94 Energy>
56.64

$$$$
CCCCOC(C)=O
Actelion Java MolfileCreator 2.0

  0  0  0  0  0  0              0 V3000
M  V30 BEGIN CTAB
M  V30 COUNTS 20 19 0 0 0
M  V30 BEGIN ATOM
M  V30 1 O 2.2179 -0.9937 2.1414 0
M  V30 2 C 2.2366 0.0575 1.5173 0
M  V30 3 O 1.2939 0.4645 0.6238 0
M  V30 4 C 3.3145 1.0915 1.6309 0
M  V30 5 C 0.215 -0.463 0.4454 0
M  V30 6 C -0.7514 0.1272 -0.5755 0
M  V30 7 C -1.938 -0.7982 -0.8291 0
M  V30 8 C -2.8989 -0.2058 -1.8475 0
M  V30 9 H 3.799 1.2299 0.6611 0
M  V30 10 H 2.8891 2.0331 1.987 0
M  V30 11 H 4.0658 0.7542 2.3508 0
M  V30 12 H -0.2961 -0.6175 1.4029 0
M  V30 13 H 0.6109 -1.4183 0.0812 0
M  V30 14 H -1.1011 1.105 -0.2209 0
M  V30 15 H -0.2148 0.3226 -1.5123 0
M  V30 16 H -1.582 -1.769 -1.1929 0
M  V30 17 H -2.4755 -0.9803 0.1087 0
M  V30 18 H -3.741 -0.8849 -2.0139 0
M  V30 19 H -3.2986 0.7518 -1.4989 0
M  V30 20 H -2.4001 -0.0411 -2.8079 0
M  V30 END ATOM
M  V30 BEGIN BOND
M  V30 1 2 1 2
M  V30 2 1 2 3
M  V30 3 1 2 4
M  V30 4 1 3 5
M  V30 5 1 5 6
M  V30 6 1 6 7
M  V30 7 1 7 8
M  V30 8 1 4 9
M  V30 9 1 4 10
M  V30 10 1 4 11
M  V30 11 1 5 12
M  V30 12 1 5 13
M  V30 13 1 6 14
M  V30 14 1 6 15
M  V30 15 1 7 16
M  V30 16 1 7 17
M  V30 17 1 8 18
M  V30 18 1 8 19
M  V30 19 1 8 20
M  V30 END BOND
M  V30 END CTAB
M  END
>  <NO.>
703

>  <Name>
butyl acetate

>  <SMILES>
CCCCOC(C)=O

>  <logBB>
0.28

>  <Class>
1

>  <MW>
116.08

>  <nHBAcc>
2

>  <nHBDon>
0

>  <SLogP>
1.35

>  <TopoPSA>
26.3

>  <MMFF94 Energy>
-11.641

$$$$
CC(C)=CCN1Cc2cc(Cl)cc3[nH]c(=S)n(c23)CC1C
Actelion Java MolfileCreator 2.0

  0  0  0  0  0  0              0 V3000
M  V30 BEGIN CTAB
M  V30 COUNTS 41 43 0 0 0
M  V30 BEGIN ATOM
M  V30 1 Cl 3.8768 -3.6342 -2.8257 0
M  V30 2 C 2.6849 -3.1402 -1.6855 0
M  V30 3 C 1.9403 -1.969 -1.9274 0
M  V30 4 C 2.458 -3.9119 -0.5545 0
M  V30 5 C 0.9437 -1.5048 -1.0309 0
M  V30 6 C 1.485 -3.456 0.304 0
M  V30 7 C 0.7482 -2.277 0.0999 0
M  V30 8 C 0.127 -0.3146 -1.4642 0
M  V30 9 N 1.0577 -4.0519 1.4833 0
M  V30 10 N -0.1356 -2.1502 1.1925 0
M  V30 11 N -0.4568 0.5312 -0.42 0
M  V30 12 C 0.0698 -3.2501 2.0619 0
M  V30 13 C -0.8432 -0.9373 1.5421 0
M  V30 14 C -1.4915 -0.1414 0.3967 0 CFG=2
M  V30 15 C -0.9445 1.7875 -1.0148 0
M  V30 16 S -0.6398 -3.6039 3.5169 0
M  V30 17 C -2.5348 -0.9763 -0.3599 0
M  V30 18 C -1.1304 2.8749 0.0101 0
M  V30 19 C -0.2155 3.7738 0.4256 0
M  V30 20 C -0.5736 4.8297 1.437 0
M  V30 21 C 1.217 3.8076 -0.0303 0
M  V30 22 H 2.1336 -1.414 -2.8453 0
M  V30 23 H 3.0109 -4.8219 -0.3616 0
M  V30 24 H -0.6336 -0.6505 -2.1805 0
M  V30 25 H 0.819 0.3173 -2.0388 0
M  V30 26 H 1.4133 -4.9022 1.893 0
M  V30 27 H -1.6276 -1.1892 2.2654 0
M  V30 28 H -0.1344 -0.301 2.0894 0
M  V30 29 H -2.0641 0.6351 0.9202 0
M  V30 30 H -1.8879 1.634 -1.5537 0
M  V30 31 H -0.2448 2.1589 -1.7739 0
M  V30 32 H -3.3103 -1.325 0.3315 0
M  V30 33 H -3.0333 -0.3821 -1.1323 0
M  V30 34 H -2.1052 -1.8625 -0.8358 0
M  V30 35 H -2.1363 2.9341 0.4221 0
M  V30 36 H 0.0428 4.7203 2.3351 0
M  V30 37 H -1.6228 4.7714 1.745 0
M  V30 38 H -0.4054 5.8272 1.0182 0
M  V30 39 H 1.4849 2.9694 -0.6782 0
M  V30 40 H 1.4149 4.7336 -0.5798 0
M  V30 41 H 1.8878 3.7696 0.8345 0
M  V30 END ATOM
M  V30 BEGIN BOND
M  V30 1 1 1 2
M  V30 2 2 2 3
M  V30 3 1 2 4
M  V30 4 1 3 5
M  V30 5 2 4 6
M  V30 6 2 5 7
M  V30 7 1 5 8
M  V30 8 1 6 9
M  V30 9 1 7 10
M  V30 10 1 8 11
M  V30 11 1 9 12
M  V30 12 1 10 13
M  V30 13 1 11 14
M  V30 14 1 11 15
M  V30 15 2 12 16
M  V30 16 1 14 17
M  V30 17 1 15 18
M  V30 18 2 18 19
M  V30 19 1 19 20
M  V30 20 1 19 21
M  V30 21 1 6 7
M  V30 22 1 10 12
M  V30 23 1 13 14
M  V30 24 1 3 22
M  V30 25 1 4 23
M  V30 26 1 8 24
M  V30 27 1 8 25
M  V30 28 1 9 26
M  V30 29 1 13 27
M  V30 30 1 13 28
M  V30 31 1 14 29
M  V30 32 1 15 30
M  V30 33 1 15 31
M  V30 34 1 17 32
M  V30 35 1 17 33
M  V30 36 1 17 34
M  V30 37 1 18 35
M  V30 38 1 20 36
M  V30 39 1 20 37
M  V30 40 1 20 38
M  V30 41 1 21 39
M  V30 42 1 21 40
M  V30 43 1 21 41
M  V30 END BOND
M  V30 BEGIN COLLECTION
M  V30 MDLV30/STERAC1 ATOMS=(1 14)
M  V30 END COLLECTION
M  V30 END CTAB
M  END
>  <NO.>
704

>  <Name>
r82913

>  <SMILES>
CC(C)=CCN1Cc2cc(Cl)cc3[nH]c(=S)n(c23)CC1C

>  <logBB>
0.28

>  <Class>
1

>  <MW>
321.11

>  <nHBAcc>
2

>  <nHBDon>
1

>  <SLogP>
4.52

>  <TopoPSA>
23.96

>  <MMFF94 Energy>
22.369

$$$$
CC1=C(CC2CCc3c(c4ccccc4n3C)C2=O)CC=N1
Actelion Java MolfileCreator 2.0

  0  0  0  0  0  0              0 V3000
M  V30 BEGIN CTAB
M  V30 COUNTS 42 45 0 0 0
M  V30 BEGIN ATOM
M  V30 1 O 2.3227 -0.3201 0.6403 0
M  V30 2 C 1.1432 -0.2699 0.2982 0
M  V30 3 C 0.461 -1.4178 -0.2895 0
M  V30 4 C 0.2778 0.9873 0.5254 0 CFG=2
M  V30 5 C 0.9195 -2.7386 -0.55 0
M  V30 6 C -0.8494 -1.338 -0.7223 0
M  V30 7 C -0.8044 1.1231 -0.5724 0
M  V30 8 C 1.1891 2.2264 0.6074 0
M  V30 9 C -0.1465 -3.4405 -1.1259 0
M  V30 10 C 2.1452 -3.4077 -0.3516 0
M  V30 11 N -1.2196 -2.5698 -1.1977 0
M  V30 12 C -1.7033 -0.1201 -0.6679 0
M  V30 13 C 0.472 3.5098 0.8832 0
M  V30 14 C -0.0218 -4.7849 -1.5158 0
M  V30 15 C 2.2754 -4.746 -0.7344 0
M  V30 16 C -2.5273 -2.9225 -1.708 0
M  V30 17 C -0.0207 3.9741 2.0419 0
M  V30 18 C 0.2528 4.5265 -0.1896 0
M  V30 19 C 1.2051 -5.4225 -1.3096 0
M  V30 20 N -0.6021 5.2125 1.9222 0
M  V30 21 C 0.0044 3.3214 3.3828 0
M  V30 22 C -0.4485 5.5313 0.6764 0
M  V30 23 H -0.2222 0.8431 1.4928 0
M  V30 24 H -1.4444 1.9916 -0.3822 0
M  V30 25 H -0.3157 1.2878 -1.5424 0
M  V30 26 H 1.9431 2.0781 1.3918 0
M  V30 27 H 1.7639 2.3258 -0.3229 0
M  V30 28 H 2.9868 -2.884 0.0952 0
M  V30 29 H -2.3585 -0.1739 0.2092 0
M  V30 30 H -2.3359 -0.0381 -1.5582 0
M  V30 31 H -0.8477 -5.3253 -1.9664 0
M  V30 32 H 3.2222 -5.2571 -0.5805 0
M  V30 33 H -2.4997 -2.8393 -2.797 0
M  V30 34 H -2.7693 -3.944 -1.4047 0
M  V30 35 H -3.2798 -2.2481 -1.293 0
M  V30 36 H 1.1789 4.9469 -0.5864 0
M  V30 37 H -0.4069 4.1881 -0.9901 0
M  V30 38 H 1.3235 -6.4629 -1.6031 0
M  V30 39 H 0.5277 2.3613 3.3681 0
M  V30 40 H 0.5117 3.9655 4.1083 0
M  V30 41 H -1.0162 3.1423 3.7357 0
M  V30 42 H -0.804 6.48 0.2488 0
M  V30 END ATOM
M  V30 BEGIN BOND
M  V30 1 2 1 2
M  V30 2 1 2 3
M  V30 3 1 2 4
M  V30 4 1 3 5
M  V30 5 2 3 6
M  V30 6 1 4 7
M  V30 7 1 4 8
M  V30 8 2 5 9
M  V30 9 1 5 10
M  V30 10 1 6 11
M  V30 11 1 6 12
M  V30 12 1 8 13
M  V30 13 1 9 14
M  V30 14 2 10 15
M  V30 15 1 11 16
M  V30 16 2 13 17
M  V30 17 1 13 18
M  V30 18 2 14 19
M  V30 19 1 17 20
M  V30 20 1 17 21
M  V30 21 1 18 22
M  V30 22 1 7 12
M  V30 23 1 9 11
M  V30 24 1 15 19
M  V30 25 2 20 22
M  V30 26 1 4 23
M  V30 27 1 7 24
M  V30 28 1 7 25
M  V30 29 1 8 26
M  V30 30 1 8 27
M  V30 31 1 10 28
M  V30 32 1 12 29
M  V30 33 1 12 30
M  V30 34 1 14 31
M  V30 35 1 15 32
M  V30 36 1 16 33
M  V30 37 1 16 34
M  V30 38 1 16 35
M  V30 39 1 18 36
M  V30 40 1 18 37
M  V30 41 1 19 38
M  V30 42 1 21 39
M  V30 43 1 21 40
M  V30 44 1 21 41
M  V30 45 1 22 42
M  V30 END BOND
M  V30 BEGIN COLLECTION
M  V30 MDLV30/STERAC1 ATOMS=(1 4)
M  V30 END COLLECTION
M  V30 END CTAB
M  END
>  <NO.>
706

>  <Name>
ondansetron

>  <SMILES>
CC1=C(CC2CCc3c(c4ccccc4n3C)C2=O)CC=N1

>  <logBB>
0.28

>  <Class>
1

>  <MW>
292.16

>  <nHBAcc>
2

>  <nHBDon>
0

>  <SLogP>
4.06

>  <TopoPSA>
34.36

>  <MMFF94 Energy>
55.618

$$$$
Cc1nccn1CC1CCc2c(c3ccccc3n2C)C1=O
Actelion Java MolfileCreator 2.0

  0  0  0  0  0  0              0 V3000
M  V30 BEGIN CTAB
M  V30 COUNTS 41 44 0 0 0
M  V30 BEGIN ATOM
M  V30 1 O -0.9586 1.5981 1.838 0
M  V30 2 C -0.3134 1.0597 0.9407 0
M  V30 3 C -0.7086 1.1214 -0.461 0
M  V30 4 C 0.9082 0.1999 1.2677 0 CFG=2
M  V30 5 C -1.8253 1.7419 -1.0844 0
M  V30 6 C 0.0443 0.5186 -1.453 0
M  V30 7 C 1.9255 0.198 0.1035 0
M  V30 8 C 0.3826 -1.1841 1.6626 0
M  V30 9 C -1.7274 1.4845 -2.4572 0
M  V30 10 C -2.9151 2.5018 -0.6109 0
M  V30 11 N -0.5891 0.722 -2.6526 0
M  V30 12 C 1.3219 -0.2204 -1.2459 0
M  V30 13 N 1.4063 -2.0637 2.194 0
M  V30 14 C -2.6795 1.9701 -3.3698 0
M  V30 15 C -3.8678 2.985 -1.5129 0
M  V30 16 C -0.1459 0.2306 -3.9401 0
M  V30 17 C 1.8914 -2.0914 3.4817 0
M  V30 18 C 2.0342 -3.0554 1.4896 0
M  V30 19 C -3.7485 2.7223 -2.8734 0
M  V30 20 N 2.8195 -3.0203 3.6021 0
M  V30 21 C 1.4237 -1.1971 4.5716 0
M  V30 22 C 2.9113 -3.6257 2.3786 0
M  V30 23 H 1.4041 0.6683 2.1272 0
M  V30 24 H 2.7866 -0.4372 0.3365 0
M  V30 25 H 2.3201 1.219 -3.0E-4 0
M  V30 26 H -0.3993 -1.1036 2.4278 0
M  V30 27 H -0.0835 -1.6959 0.8119 0
M  V30 28 H -3.0135 2.7151 0.4508 0
M  V30 29 H 1.1292 -1.2986 -1.2601 0
M  V30 30 H 2.0395 0.0019 -2.043 0
M  V30 31 H -2.599 1.7749 -4.4341 0
M  V30 32 H -4.7053 3.5722 -1.1444 0
M  V30 33 H -1.0152 -0.0773 -4.5262 0
M  V30 34 H 0.5058 -0.6346 -3.8011 0
M  V30 35 H 0.3931 1.037 -4.443 0
M  V30 36 H 1.8186 -3.2675 0.4524 0
M  V30 37 H -4.497 3.1078 -3.5619 0
M  V30 38 H 1.659 -0.153 4.3481 0
M  V30 39 H 0.3442 -1.2937 4.7209 0
M  V30 40 H 1.9161 -1.4571 5.5142 0
M  V30 41 H 3.5998 -4.4423 2.2056 0
M  V30 END ATOM
M  V30 BEGIN BOND
M  V30 1 2 1 2
M  V30 2 1 2 3
M  V30 3 1 2 4
M  V30 4 1 3 5
M  V30 5 2 3 6
M  V30 6 1 4 7
M  V30 7 1 4 8
M  V30 8 2 5 9
M  V30 9 1 5 10
M  V30 10 1 6 11
M  V30 11 1 6 12
M  V30 12 1 8 13
M  V30 13 1 9 14
M  V30 14 2 10 15
M  V30 15 1 11 16
M  V30 16 1 13 17
M  V30 17 1 13 18
M  V30 18 2 14 19
M  V30 19 2 17 20
M  V30 20 1 17 21
M  V30 21 2 18 22
M  V30 22 1 7 12
M  V30 23 1 9 11
M  V30 24 1 15 19
M  V30 25 1 20 22
M  V30 26 1 4 23
M  V30 27 1 7 24
M  V30 28 1 7 25
M  V30 29 1 8 26
M  V30 30 1 8 27
M  V30 31 1 10 28
M  V30 32 1 12 29
M  V30 33 1 12 30
M  V30 34 1 14 31
M  V30 35 1 15 32
M  V30 36 1 16 33
M  V30 37 1 16 34
M  V30 38 1 16 35
M  V30 39 1 18 36
M  V30 40 1 19 37
M  V30 41 1 21 38
M  V30 42 1 21 39
M  V30 43 1 21 40
M  V30 44 1 22 41
M  V30 END BOND
M  V30 BEGIN COLLECTION
M  V30 MDLV30/STERAC1 ATOMS=(1 4)
M  V30 END COLLECTION
M  V30 END CTAB
M  END
>  <NO.>
707

>  <Name>
ondansetron

>  <SMILES>
Cc1nccn1CC1CCc2c(c3ccccc3n2C)C1=O

>  <logBB>
0.28

>  <Class>
1

>  <MW>
293.15

>  <nHBAcc>
2

>  <nHBDon>
0

>  <SLogP>
3.13

>  <TopoPSA>
39.82

>  <MMFF94 Energy>
32.262

$$$$
Cl/C(=C\n1cncn1)c1ccc(Cl)cc1Cl
Actelion Java MolfileCreator 2.0

  0  0  0  0  0  0              0 V3000
M  V30 BEGIN CTAB
M  V30 COUNTS 22 23 0 0 0
M  V30 BEGIN ATOM
M  V30 1 Cl -0.3374 2.786 0.928 0
M  V30 2 C 0.4494 2.0911 -0.4466 0
M  V30 3 C 0.2006 0.7664 -0.8496 0
M  V30 4 C 1.3499 2.8929 -1.1535 0
M  V30 5 C -0.7341 -0.1203 -0.1327 0
M  V30 6 C 0.8755 0.2623 -1.9743 0
M  V30 7 C 2.0073 2.3749 -2.2663 0
M  V30 8 Cl -2.3259 -0.1488 -0.7855 0
M  V30 9 C -0.2899 -0.8272 0.9175 0
M  V30 10 C 1.7752 1.0649 -2.6801 0
M  V30 11 Cl 3.1163 3.3597 -3.1377 0
M  V30 12 N -0.9225 -1.7289 1.7754 0
M  V30 13 N -0.2617 -2.3757 2.7824 0
M  V30 14 C -2.2399 -2.1522 1.8189 0
M  V30 15 C -1.2086 -3.1261 3.3398 0
M  V30 16 N -2.4371 -3.0244 2.7803 0
M  V30 17 H 1.5369 3.9164 -0.838 0
M  V30 18 H 0.7016 -0.7587 -2.3111 0
M  V30 19 H 0.7558 -0.7127 1.1988 0
M  V30 20 H 2.2891 0.6631 -3.5504 0
M  V30 21 H -3.0047 -1.8009 1.1458 0
M  V30 22 H -0.991 -3.7688 4.1837 0
M  V30 END ATOM
M  V30 BEGIN BOND
M  V30 1 1 1 2
M  V30 2 2 2 3
M  V30 3 1 2 4
M  V30 4 1 3 5
M  V30 5 1 3 6
M  V30 6 2 4 7
M  V30 7 1 5 8
M  V30 8 2 5 9
M  V30 9 2 6 10
M  V30 10 1 7 11
M  V30 11 1 9 12
M  V30 12 1 12 13
M  V30 13 1 12 14
M  V30 14 2 13 15
M  V30 15 2 14 16
M  V30 16 1 7 10
M  V30 17 1 15 16
M  V30 18 1 4 17
M  V30 19 1 6 18
M  V30 20 1 9 19
M  V30 21 1 10 20
M  V30 22 1 14 21
M  V30 23 1 15 22
M  V30 END BOND
M  V30 END CTAB
M  END
>  <NO.>
708

>  <Name>
loreclezole

>  <SMILES>
Cl/C(=C\n1cncn1)c1ccc(Cl)cc1Cl

>  <logBB>
0.28

>  <Class>
1

>  <MW>
272.96

>  <nHBAcc>
2

>  <nHBDon>
0

>  <SLogP>
3.78

>  <TopoPSA>
30.71

>  <MMFF94 Energy>
25.244

$$$$
ClC=C(Cl)Cl
Actelion Java MolfileCreator 2.0

  0  0  0  0  0  0              0 V3000
M  V30 BEGIN CTAB
M  V30 COUNTS 6 5 0 0 0
M  V30 BEGIN ATOM
M  V30 1 Cl 0.4744 -1.6135 1.3287 0
M  V30 2 C 0.5162 -0.1965 0.3359 0
M  V30 3 Cl 1.979 0.7193 0.3331 0
M  V30 4 C -0.5608 0.1357 -0.3803 0
M  V30 5 Cl -0.6992 1.4971 -1.4136 0
M  V30 6 H -1.4757 -0.443 -0.3741 0
M  V30 END ATOM
M  V30 BEGIN BOND
M  V30 1 1 1 2
M  V30 2 1 2 3
M  V30 3 2 2 4
M  V30 4 1 4 5
M  V30 5 1 4 6
M  V30 END BOND
M  V30 END CTAB
M  END
>  <NO.>
709

>  <Name>
trichloroethene

>  <SMILES>
ClC=C(Cl)Cl

>  <logBB>
0.3

>  <Class>
1

>  <MW>
129.91

>  <nHBAcc>
0

>  <nHBDon>
0

>  <SLogP>
2.5

>  <TopoPSA>
0

>  <MMFF94 Energy>
2.1824

$$$$
FC(F)(F)C(Cl)Br
Actelion Java MolfileCreator 2.0

  0  0  0  0  0  0              0 V3000
M  V30 BEGIN CTAB
M  V30 COUNTS 8 7 0 0 0
M  V30 BEGIN ATOM
M  V30 1 Br -0.1859 -0.9302 -2.0472 0
M  V30 2 C -0.6101 -0.2299 -0.271 0 CFG=2
M  V30 3 Cl -1.6854 1.1786 -0.466 0
M  V30 4 C 0.6555 0.0995 0.5034 0
M  V30 5 F 1.4335 -0.999 0.664 0
M  V30 6 F 0.3614 0.5448 1.7501 0
M  V30 7 F 1.4096 1.047 -0.0963 0
M  V30 8 H -1.1775 -1.0167 0.2333 0
M  V30 END ATOM
M  V30 BEGIN BOND
M  V30 1 1 1 2
M  V30 2 1 2 3
M  V30 3 1 2 4
M  V30 4 1 4 5
M  V30 5 1 4 6
M  V30 6 1 4 7
M  V30 7 1 2 8
M  V30 END BOND
M  V30 BEGIN COLLECTION
M  V30 MDLV30/STERAC1 ATOMS=(1 2)
M  V30 END COLLECTION
M  V30 END CTAB
M  END
>  <NO.>
710

>  <Name>
halothane

>  <SMILES>
FC(F)(F)C(Cl)Br

>  <logBB>
0.3

>  <Class>
1

>  <MW>
195.89

>  <nHBAcc>
0

>  <nHBDon>
0

>  <SLogP>
2.51

>  <TopoPSA>
0

>  <MMFF94 Energy>
42.411

$$$$
ClC(Cl)Cl
Actelion Java MolfileCreator 2.0

  0  0  0  0  0  0              0 V3000
M  V30 BEGIN CTAB
M  V30 COUNTS 5 4 0 0 0
M  V30 BEGIN ATOM
M  V30 1 Cl 1.4023 1.0015 -0.1001 0
M  V30 2 C -0.0038 -0.0696 0.0184 0
M  V30 3 Cl -1.2118 0.3503 -1.2074 0
M  V30 4 Cl -0.7105 0.0075 1.6412 0
M  V30 5 H 0.3286 -1.0948 -0.1633 0
M  V30 END ATOM
M  V30 BEGIN BOND
M  V30 1 1 1 2
M  V30 2 1 2 3
M  V30 3 1 2 4
M  V30 4 1 2 5
M  V30 END BOND
M  V30 END CTAB
M  END
>  <NO.>
711

>  <Name>
trichloromethane (chloroform)

>  <SMILES>
ClC(Cl)Cl

>  <logBB>
0.3

>  <Class>
1

>  <MW>
117.91

>  <nHBAcc>
0

>  <nHBDon>
0

>  <SLogP>
1.99

>  <TopoPSA>
0

>  <MMFF94 Energy>
0.00208

$$$$
CC(C)(C)c1nc(N2CCN(CCCSc3nccc(=O)[nH]3)CC2)cc(C(F)(F)F)n1
Actelion Java MolfileCreator 2.0

  0  0  0  0  0  0              0 V3000
M  V30 BEGIN CTAB
M  V30 COUNTS 58 60 0 0 0
M  V30 BEGIN ATOM
M  V30 1 S -2.9015 4.5162 -3.9508 0
M  V30 2 C -4.2821 3.4807 -4.1451 0
M  V30 3 C -1.5375 3.3278 -4.1334 0
M  V30 4 N -4.2187 2.296 -4.6543 0
M  V30 5 N -5.4273 4.069 -3.7091 0
M  V30 6 C -1.3545 2.4815 -2.8727 0
M  V30 7 C -5.4027 1.6095 -4.7378 0
M  V30 8 C -6.6295 3.4346 -3.7711 0
M  V30 9 C -0.1857 1.5023 -3.0513 0
M  V30 10 C -6.5896 2.0789 -4.3406 0
M  V30 11 O -7.6777 3.9371 -3.3867 0
M  V30 12 N -0.028 0.5855 -1.9099 0
M  V30 13 C 0.477 1.2776 -0.7011 0
M  V30 14 C 0.9229 -0.4955 -2.2561 0
M  V30 15 C 0.701 0.3283 0.4987 0
M  V30 16 C 1.1525 -1.5018 -1.1053 0
M  V30 17 N 1.5562 -0.8135 0.1297 0
M  V30 18 C 2.0643 -1.5595 1.1888 0
M  V30 19 N 1.6648 -1.2632 2.4383 0
M  V30 20 C 2.9948 -2.5574 0.9848 0
M  V30 21 C 2.1439 -1.9751 3.475 0
M  V30 22 C 3.466 -3.2476 2.09 0
M  V30 23 N 3.048 -2.9573 3.3444 0
M  V30 24 C 1.6966 -1.5798 4.8805 0
M  V30 25 C 4.5125 -4.3273 1.882 0
M  V30 26 C 0.2293 -1.108 4.8735 0
M  V30 27 C 1.8086 -2.7678 5.8562 0
M  V30 28 C 2.597 -0.4352 5.3723 0
M  V30 29 F 5.7527 -3.8129 1.638 0
M  V30 30 F 4.66 -5.177 2.9374 0
M  V30 31 F 4.2338 -5.1245 0.807 0
M  V30 32 H -0.6271 3.9107 -4.3129 0
M  V30 33 H -1.6911 2.7036 -5.0196 0
M  V30 34 H -5.3963 5.0011 -3.3282 0
M  V30 35 H -2.2673 1.9145 -2.653 0
M  V30 36 H -1.1663 3.1447 -2.0206 0
M  V30 37 H -5.3348 0.6112 -5.1635 0
M  V30 38 H -0.3916 0.9096 -3.9525 0
M  V30 39 H 0.7438 2.0548 -3.2409 0
M  V30 40 H -7.5128 1.5226 -4.4142 0
M  V30 41 H 1.4231 1.7875 -0.9287 0
M  V30 42 H -0.2363 2.0427 -0.3769 0
M  V30 43 H 0.5413 -1.0557 -3.1186 0
M  V30 44 H 1.8909 -0.0657 -2.5482 0
M  V30 45 H -0.269 -0.0371 0.8607 0
M  V30 46 H 1.1629 0.9204 1.2993 0
M  V30 47 H 1.9115 -2.2132 -1.446 0
M  V30 48 H 0.2297 -2.0669 -0.9207 0
M  V30 49 H 3.38 -2.785 -5.0E-4 0
M  V30 50 H -0.4356 -1.8866 4.4813 0
M  V30 51 H -0.1099 -0.8569 5.8852 0
M  V30 52 H 0.0911 -0.2134 4.2548 0
M  V30 53 H 1.2105 -3.6205 5.5139 0
M  V30 54 H 2.8445 -3.1109 5.9622 0
M  V30 55 H 1.4549 -2.4923 6.8566 0
M  V30 56 H 2.5282 0.4396 4.7149 0
M  V30 57 H 3.65 -0.7397 5.4011 0
M  V30 58 H 2.3149 -0.1152 6.3819 0
M  V30 END ATOM
M  V30 BEGIN BOND
M  V30 1 1 1 2
M  V30 2 1 1 3
M  V30 3 2 2 4
M  V30 4 1 2 5
M  V30 5 1 3 6
M  V30 6 1 4 7
M  V30 7 1 5 8
M  V30 8 1 6 9
M  V30 9 2 7 10
M  V30 10 2 8 11
M  V30 11 1 9 12
M  V30 12 1 12 13
M  V30 13 1 12 14
M  V30 14 1 13 15
M  V30 15 1 14 16
M  V30 16 1 15 17
M  V30 17 1 17 18
M  V30 18 2 18 19
M  V30 19 1 18 20
M  V30 20 1 19 21
M  V30 21 2 20 22
M  V30 22 2 21 23
M  V30 23 1 21 24
M  V30 24 1 22 25
M  V30 25 1 24 26
M  V30 26 1 24 27
M  V30 27 1 24 28
M  V30 28 1 25 29
M  V30 29 1 25 30
M  V30 30 1 25 31
M  V30 31 1 8 10
M  V30 32 1 16 17
M  V30 33 1 22 23
M  V30 34 1 3 32
M  V30 35 1 3 33
M  V30 36 1 5 34
M  V30 37 1 6 35
M  V30 38 1 6 36
M  V30 39 1 7 37
M  V30 40 1 9 38
M  V30 41 1 9 39
M  V30 42 1 10 40
M  V30 43 1 13 41
M  V30 44 1 13 42
M  V30 45 1 14 43
M  V30 46 1 14 44
M  V30 47 1 15 45
M  V30 48 1 15 46
M  V30 49 1 16 47
M  V30 50 1 16 48
M  V30 51 1 20 49
M  V30 52 1 26 50
M  V30 53 1 26 51
M  V30 54 1 26 52
M  V30 55 1 27 53
M  V30 56 1 27 54
M  V30 57 1 27 55
M  V30 58 1 28 56
M  V30 59 1 28 57
M  V30 60 1 28 58
M  V30 END BOND
M  V30 END CTAB
M  END
>  <NO.>
712

>  <Name>
364079-69-6

>  <SMILES>
CC(C)(C)c1nc(N2CCN(CCCSc3nccc(=O)[nH]3)CC2)cc(C(F)(F)F)n1

>  <logBB>
0.3

>  <Class>
1

>  <MW>
456.19

>  <nHBAcc>
7

>  <nHBDon>
1

>  <SLogP>
3.18

>  <TopoPSA>
78.01

>  <MMFF94 Energy>
-1.592

$$$$
CCCN1CC(CSC)CC2c3cccc4[nH]cc(c34)CC21
Actelion Java MolfileCreator 2.0

  0  0  0  0  0  0              0 V3000
M  V30 BEGIN CTAB
M  V30 COUNTS 48 51 0 0 0
M  V30 BEGIN ATOM
M  V30 1 S 2.6616 3.3884 -1.6124 0
M  V30 2 C 2.5137 2.067 -0.3609 0
M  V30 3 C 1.9372 4.7623 -0.6822 0
M  V30 4 C 1.4038 1.0476 -0.678 0
M  V30 5 C -0.0071 1.6539 -0.5596 0
M  V30 6 C 1.5417 -0.1535 0.2729 0
M  V30 7 N -1.1129 0.7023 -0.7695 0
M  V30 8 C 0.4216 -1.1767 0.0487 0
M  V30 9 C -0.997 -0.4799 0.1259 0
M  V30 10 C -1.2765 0.2899 -2.1767 0
M  V30 11 C 0.53 -2.3072 1.0511 0
M  V30 12 C -1.4613 -0.1148 1.5918 0
M  V30 13 C -1.7172 1.4354 -3.0982 0
M  V30 14 C -0.2895 -2.2516 2.1831 0
M  V30 15 C 1.4092 -3.3912 0.9572 0
M  V30 16 C -1.2488 -1.2727 2.5115 0
M  V30 17 C -2.042 0.9251 -4.4952 0
M  V30 18 C -0.2618 -3.2175 3.1688 0
M  V30 19 C 1.439 -4.3726 1.9594 0
M  V30 20 C -1.8037 -1.6488 3.7127 0
M  V30 21 N -1.1999 -2.8292 4.1008 0
M  V30 22 C 0.6031 -4.31 3.089 0
M  V30 23 H 3.4816 1.5534 -0.35 0
M  V30 24 H 2.3767 2.502 0.6352 0
M  V30 25 H 1.9318 5.6563 -1.3114 0
M  V30 26 H 2.5331 4.9716 0.2098 0
M  V30 27 H 0.9082 4.5378 -0.3926 0
M  V30 28 H 1.5563 0.6822 -1.7021 0
M  V30 29 H -0.1193 2.1017 0.4357 0
M  V30 30 H -0.1196 2.5011 -1.2412 0
M  V30 31 H 2.5174 -0.6329 0.1198 0
M  V30 32 H 1.5338 0.1969 1.3141 0
M  V30 33 H 0.5312 -1.6109 -0.9538 0
M  V30 34 H -1.7306 -1.2315 -0.2058 0
M  V30 35 H -2.0607 -0.4767 -2.2274 0
M  V30 36 H -0.3651 -0.1713 -2.5732 0
M  V30 37 H -2.5209 0.167 1.5799 0
M  V30 38 H -0.896 0.738 1.9829 0
M  V30 39 H -2.6034 1.9305 -2.6837 0
M  V30 40 H -0.9294 2.1903 -3.1879 0
M  V30 41 H 2.0759 -3.4793 0.1031 0
M  V30 42 H -2.348 1.7551 -5.1398 0
M  V30 43 H -1.1693 0.4454 -4.9495 0
M  V30 44 H -2.8598 0.198 -4.468 0
M  V30 45 H 2.1299 -5.2079 1.8612 0
M  V30 46 H -2.5685 -1.1942 4.3278 0
M  V30 47 H -1.4134 -3.3387 4.9467 0
M  V30 48 H 0.6356 -5.0754 3.8558 0
M  V30 END ATOM
M  V30 BEGIN BOND
M  V30 1 1 1 2
M  V30 2 1 1 3
M  V30 3 1 2 4
M  V30 4 1 4 5
M  V30 5 1 4 6
M  V30 6 1 5 7
M  V30 7 1 6 8
M  V30 8 1 7 9
M  V30 9 1 7 10
M  V30 10 1 8 11
M  V30 11 1 9 12
M  V30 12 1 10 13
M  V30 13 2 11 14
M  V30 14 1 11 15
M  V30 15 1 12 16
M  V30 16 1 13 17
M  V30 17 1 14 18
M  V30 18 2 15 19
M  V30 19 2 16 20
M  V30 20 1 18 21
M  V30 21 2 18 22
M  V30 22 1 8 9
M  V30 23 1 14 16
M  V30 24 1 19 22
M  V30 25 1 20 21
M  V30 26 1 2 23
M  V30 27 1 2 24
M  V30 28 1 3 25
M  V30 29 1 3 26
M  V30 30 1 3 27
M  V30 31 1 4 28
M  V30 32 1 5 29
M  V30 33 1 5 30
M  V30 34 1 6 31
M  V30 35 1 6 32
M  V30 36 1 8 33
M  V30 37 1 9 34
M  V30 38 1 10 35
M  V30 39 1 10 36
M  V30 40 1 12 37
M  V30 41 1 12 38
M  V30 42 1 13 39
M  V30 43 1 13 40
M  V30 44 1 15 41
M  V30 45 1 17 42
M  V30 46 1 17 43
M  V30 47 1 17 44
M  V30 48 1 19 45
M  V30 49 1 20 46
M  V30 50 1 21 47
M  V30 51 1 22 48
M  V30 END BOND
M  V30 END CTAB
M  END
>  <NO.>
715

>  <Name>
66104-22-1

>  <SMILES>
CCCN1CC(CSC)CC2c3cccc4[nH]cc(c34)CC21

>  <logBB>
0.3

>  <Class>
1

>  <MW>
314.18

>  <nHBAcc>
2

>  <nHBDon>
1

>  <SLogP>
4.27

>  <TopoPSA>
19.03

>  <MMFF94 Energy>
63.988

$$$$
COc1ccc(C2Sc3ccccc3N(CCN(C)C)C(=O)C2OC(C)=O)cc1
Actelion Java MolfileCreator 2.0

  0  0  0  0  0  0              0 V3000
M  V30 BEGIN CTAB
M  V30 COUNTS 55 57 0 0 0
M  V30 BEGIN ATOM
M  V30 1 S -2.1704 0.5623 1.7682 0
M  V30 2 C -2.9714 0.3277 0.1911 0
M  V30 3 C -0.7976 1.7069 1.2752 0
M  V30 4 C -2.3361 -0.2922 -0.9033 0
M  V30 5 C -4.2995 0.7566 0.0672 0
M  V30 6 C 0.2399 1.7615 2.3952 0
M  V30 7 C -0.2099 1.5021 -0.1424 0
M  V30 8 N -0.9998 -0.7772 -0.817 0
M  V30 9 C -3.0366 -0.4428 -2.1083 0
M  V30 10 C -4.9866 0.5976 -1.1364 0
M  V30 11 C 1.0044 0.644 2.764 0
M  V30 12 C 0.4541 2.9645 3.0865 0
M  V30 13 O 0.9665 2.3198 -0.299 0
M  V30 14 C 0.0786 0.0158 -0.4229 0
M  V30 15 C -0.7734 -2.2049 -1.0826 0
M  V30 16 C -4.3543 0.0026 -2.2241 0
M  V30 17 C 1.9588 0.7262 3.786 0
M  V30 18 C 1.4062 3.0425 4.1069 0
M  V30 19 C 1.4283 2.4088 -1.5748 0
M  V30 20 O 1.2227 -0.4383 -0.3255 0
M  V30 21 C -0.0328 -2.4605 -2.414 0
M  V30 22 C 2.1648 1.9271 4.4617 0
M  V30 23 O 0.861 1.9621 -2.5622 0
M  V30 24 C 2.723 3.1601 -1.6027 0
M  V30 25 N 0.0878 -3.8944 -2.7543 0
M  V30 26 O 3.061 2.1409 5.4724 0
M  V30 27 C 1.1014 -4.0732 -3.7987 0
M  V30 28 C -1.1871 -4.4549 -3.2075 0
M  V30 29 C 3.8611 1.032 5.8629 0
M  V30 30 H -1.276 2.6958 1.2491 0
M  V30 31 H -4.8115 1.2188 0.9093 0
M  V30 32 H -0.9449 1.8696 -0.8705 0
M  V30 33 H -2.5635 -0.8969 -2.9742 0
M  V30 34 H -6.0161 0.9375 -1.2233 0
M  V30 35 H 0.87 -0.3137 2.2652 0
M  V30 36 H -0.1156 3.8574 2.8389 0
M  V30 37 H -1.7366 -2.7255 -1.0498 0
M  V30 38 H -0.1711 -2.6078 -0.2579 0
M  V30 39 H -4.8875 -0.1174 -3.1643 0
M  V30 40 H 2.5216 -0.1701 4.0245 0
M  V30 41 H 1.5585 3.9834 4.6302 0
M  V30 42 H -0.5113 -1.9118 -3.2346 0
M  V30 43 H 0.9731 -2.0332 -2.3161 0
M  V30 44 H 2.5607 4.1898 -1.2745 0
M  V30 45 H 3.4544 2.6621 -0.9611 0
M  V30 46 H 3.1122 3.1732 -2.6248 0
M  V30 47 H 2.0789 -3.7188 -3.4526 0
M  V30 48 H 0.8445 -3.5374 -4.7199 0
M  V30 49 H 1.2243 -5.1353 -4.0389 0
M  V30 50 H -1.5814 -3.9292 -4.0848 0
M  V30 51 H -1.9422 -4.4211 -2.4164 0
M  V30 52 H -1.0693 -5.5132 -3.4677 0
M  V30 53 H 3.2427 0.2166 6.2528 0
M  V30 54 H 4.5208 1.364 6.6705 0
M  V30 55 H 4.493 0.6901 5.0365 0
M  V30 END ATOM
M  V30 BEGIN BOND
M  V30 1 1 1 2
M  V30 2 1 1 3
M  V30 3 2 2 4
M  V30 4 1 2 5
M  V30 5 1 3 6
M  V30 6 1 3 7
M  V30 7 1 4 8
M  V30 8 1 4 9
M  V30 9 2 5 10
M  V30 10 2 6 11
M  V30 11 1 6 12
M  V30 12 1 7 13
M  V30 13 1 7 14
M  V30 14 1 8 15
M  V30 15 2 9 16
M  V30 16 1 11 17
M  V30 17 2 12 18
M  V30 18 1 13 19
M  V30 19 2 14 20
M  V30 20 1 15 21
M  V30 21 2 17 22
M  V30 22 2 19 23
M  V30 23 1 19 24
M  V30 24 1 21 25
M  V30 25 1 22 26
M  V30 26 1 25 27
M  V30 27 1 25 28
M  V30 28 1 26 29
M  V30 29 1 8 14
M  V30 30 1 10 16
M  V30 31 1 18 22
M  V30 32 1 3 30
M  V30 33 1 5 31
M  V30 34 1 7 32
M  V30 35 1 9 33
M  V30 36 1 10 34
M  V30 37 1 11 35
M  V30 38 1 12 36
M  V30 39 1 15 37
M  V30 40 1 15 38
M  V30 41 1 16 39
M  V30 42 1 17 40
M  V30 43 1 18 41
M  V30 44 1 21 42
M  V30 45 1 21 43
M  V30 46 1 24 44
M  V30 47 1 24 45
M  V30 48 1 24 46
M  V30 49 1 27 47
M  V30 50 1 27 48
M  V30 51 1 27 49
M  V30 52 1 28 50
M  V30 53 1 28 51
M  V30 54 1 28 52
M  V30 55 1 29 53
M  V30 56 1 29 54
M  V30 57 1 29 55
M  V30 END BOND
M  V30 END CTAB
M  END
>  <NO.>
718

>  <Name>
34933-06-7

>  <SMILES>
COc1ccc(C2Sc3ccccc3N(CCN(C)C)C(=O)C2OC(C)=O)cc1

>  <logBB>
0.3

>  <Class>
1

>  <MW>
414.16

>  <nHBAcc>
6

>  <nHBDon>
0

>  <SLogP>
3.37

>  <TopoPSA>
59.08

>  <MMFF94 Energy>
94.982

$$$$
Cc1cc(-c2ccccc2)nnc1NCCN1CCOCC1
Actelion Java MolfileCreator 2.0

  0  0  0  0  0  0              0 V3000
M  V30 BEGIN CTAB
M  V30 COUNTS 44 46 0 0 0
M  V30 BEGIN ATOM
M  V30 1 O 0.0 -4.8471 -2.3021 0
M  V30 2 C -0.4756 -5.4756 -1.1034 0
M  V30 3 C 1.3508 -4.3986 -2.1219 0
M  V30 4 C -0.3937 -4.523 0.1025 0
M  V30 5 C 1.4573 -3.4161 -0.9431 0
M  V30 6 N 0.9901 -4.0518 0.3007 0
M  V30 7 C 1.1455 -3.2112 1.5009 0
M  V30 8 C 0.4332 -1.8385 1.5783 0
M  V30 9 N 1.087 -0.845 0.738 0
M  V30 10 C 0.5202 0.4196 0.6464 0
M  V30 11 N -0.5551 0.734 1.3975 0
M  V30 12 C 1.0186 1.3529 -0.2628 0
M  V30 13 N -1.1573 1.975 1.3133 0
M  V30 14 C 0.4027 2.6124 -0.3433 0
M  V30 15 C 2.1941 1.0483 -1.1457 0
M  V30 16 C -0.6948 2.9058 0.4553 0
M  V30 17 C -1.4036 4.1995 0.4398 0
M  V30 18 C -2.0227 4.6934 1.6041 0
M  V30 19 C -1.5006 4.9867 -0.7231 0
M  V30 20 C -2.6943 5.9198 1.6119 0
M  V30 21 C -2.1727 6.2141 -0.7185 0
M  V30 22 C -2.7668 6.6808 0.4499 0
M  V30 23 H -1.5168 -5.7671 -1.2744 0
M  V30 24 H 0.1008 -6.3914 -0.9249 0
M  V30 25 H 1.6587 -3.9011 -3.0471 0
M  V30 26 H 2.004 -5.2676 -1.9775 0
M  V30 27 H -0.7437 -5.0553 0.9941 0
M  V30 28 H -1.066 -3.6751 -0.075 0
M  V30 29 H 0.8475 -2.5372 -1.181 0
M  V30 30 H 2.5009 -3.0997 -0.839 0
M  V30 31 H 2.2203 -3.0584 1.6663 0
M  V30 32 H 0.8097 -3.8054 2.3611 0
M  V30 33 H -0.6221 -1.9484 1.3055 0
M  V30 34 H 0.4683 -1.5016 2.6221 0
M  V30 35 H 2.0913 -0.8999 0.647 0
M  V30 36 H 0.7965 3.3593 -1.025 0
M  V30 37 H 2.0151 0.1345 -1.7218 0
M  V30 38 H 3.0995 0.9277 -0.5425 0
M  V30 39 H 2.3769 1.8541 -1.8646 0
M  V30 40 H -1.9821 4.1164 2.5276 0
M  V30 41 H -1.0699 4.6451 -1.6614 0
M  V30 42 H -3.1617 6.2745 2.527 0
M  V30 43 H -2.2373 6.8005 -1.6315 0
M  V30 44 H -3.2916 7.6325 0.4536 0
M  V30 END ATOM
M  V30 BEGIN BOND
M  V30 1 1 1 2
M  V30 2 1 1 3
M  V30 3 1 2 4
M  V30 4 1 3 5
M  V30 5 1 4 6
M  V30 6 1 6 7
M  V30 7 1 7 8
M  V30 8 1 8 9
M  V30 9 1 9 10
M  V30 10 2 10 11
M  V30 11 1 10 12
M  V30 12 1 11 13
M  V30 13 2 12 14
M  V30 14 1 12 15
M  V30 15 2 13 16
M  V30 16 1 16 17
M  V30 17 2 17 18
M  V30 18 1 17 19
M  V30 19 1 18 20
M  V30 20 2 19 21
M  V30 21 2 20 22
M  V30 22 1 5 6
M  V30 23 1 14 16
M  V30 24 1 21 22
M  V30 25 1 2 23
M  V30 26 1 2 24
M  V30 27 1 3 25
M  V30 28 1 3 26
M  V30 29 1 4 27
M  V30 30 1 4 28
M  V30 31 1 5 29
M  V30 32 1 5 30
M  V30 33 1 7 31
M  V30 34 1 7 32
M  V30 35 1 8 33
M  V30 36 1 8 34
M  V30 37 1 9 35
M  V30 38 1 14 36
M  V30 39 1 15 37
M  V30 40 1 15 38
M  V30 41 1 15 39
M  V30 42 1 18 40
M  V30 43 1 19 41
M  V30 44 1 20 42
M  V30 45 1 21 43
M  V30 46 1 22 44
M  V30 END BOND
M  V30 END CTAB
M  END
>  <NO.>
720

>  <Name>
minaprine

>  <SMILES>
Cc1cc(-c2ccccc2)nnc1NCCN1CCOCC1

>  <logBB>
0.3

>  <Class>
1

>  <MW>
298.18

>  <nHBAcc>
5

>  <nHBDon>
1

>  <SLogP>
2.2

>  <TopoPSA>
50.28

>  <MMFF94 Energy>
124.58

$$$$
Cc1cn(-c2cccc(Nc3ncnc4c3CCc3ccccc3-4)c2)cn1
Actelion Java MolfileCreator 2.0

  0  0  0  0  0  0              0 V3000
M  V30 BEGIN CTAB
M  V30 COUNTS 46 50 0 0 0
M  V30 BEGIN ATOM
M  V30 1 N -0.6413 -2.4068 0.7215 0
M  V30 2 C 0.1434 -1.3153 0.7293 0
M  V30 3 C -0.2711 -3.4369 1.4898 0
M  V30 4 N -0.1854 -0.2214 -0.0968 0
M  V30 5 C 1.2678 -1.2429 1.5462 0
M  V30 6 N 0.807 -3.487 2.2745 0
M  V30 7 C -1.4144 0.1681 -0.6607 0
M  V30 8 C 1.5707 -2.3775 2.2969 0
M  V30 9 C 2.1903 -0.0543 1.6021 0
M  V30 10 C -1.417 1.1231 -1.6909 0
M  V30 11 C -2.6486 -0.3162 -0.2118 0
M  V30 12 C 2.7674 -2.4078 3.1623 0
M  V30 13 C 2.8643 0.1011 2.9698 0
M  V30 14 C -2.6217 1.5548 -2.2685 0
M  V30 15 C -3.8504 0.1107 -0.7863 0
M  V30 16 C 3.4346 -1.202 3.4724 0
M  V30 17 C 3.2798 -3.6032 3.6939 0
M  V30 18 N -2.601 2.5106 -3.3089 0
M  V30 19 C -3.8417 1.0443 -1.8191 0
M  V30 20 C 4.5654 -1.2058 4.3018 0
M  V30 21 C 4.4154 -3.6037 4.5076 0
M  V30 22 C -1.7388 3.5739 -3.4365 0
M  V30 23 C -3.4412 2.5679 -4.3966 0
M  V30 24 C 5.0565 -2.406 4.8109 0
M  V30 25 N -1.9692 4.276 -4.5241 0
M  V30 26 C -3.0327 3.6589 -5.1345 0
M  V30 27 C -3.5742 4.1798 -6.4085 0
M  V30 28 H -0.9062 -4.3156 1.4695 0
M  V30 29 H 0.6259 0.1915 -0.5356 0
M  V30 30 H 2.9536 -0.1812 0.8236 0
M  V30 31 H 1.6517 0.8757 1.388 0
M  V30 32 H -0.4681 1.5071 -2.0568 0
M  V30 33 H -2.6957 -1.0348 0.6023 0
M  V30 34 H 3.6507 0.8613 2.8922 0
M  V30 35 H 2.1334 0.4568 3.7077 0
M  V30 36 H -4.7929 -0.2864 -0.4172 0
M  V30 37 H 2.7905 -4.5504 3.4733 0
M  V30 38 H -4.7889 1.3729 -2.2393 0
M  V30 39 H 5.0648 -0.2745 4.5587 0
M  V30 40 H 4.7934 -4.5412 4.9073 0
M  V30 41 H -0.9756 3.7978 -2.7038 0
M  V30 42 H -4.2211 1.8396 -4.5657 0
M  V30 43 H 5.9351 -2.4071 5.451 0
M  V30 44 H -2.8129 4.1293 -7.1929 0
M  V30 45 H -3.8823 5.2235 -6.292 0
M  V30 46 H -4.4435 3.6019 -6.7373 0
M  V30 END ATOM
M  V30 BEGIN BOND
M  V30 1 2 1 2
M  V30 2 1 1 3
M  V30 3 1 2 4
M  V30 4 1 2 5
M  V30 5 2 3 6
M  V30 6 1 4 7
M  V30 7 2 5 8
M  V30 8 1 5 9
M  V30 9 2 7 10
M  V30 10 1 7 11
M  V30 11 1 8 12
M  V30 12 1 9 13
M  V30 13 1 10 14
M  V30 14 2 11 15
M  V30 15 2 12 16
M  V30 16 1 12 17
M  V30 17 1 14 18
M  V30 18 2 14 19
M  V30 19 1 16 20
M  V30 20 2 17 21
M  V30 21 1 18 22
M  V30 22 1 18 23
M  V30 23 2 20 24
M  V30 24 2 22 25
M  V30 25 2 23 26
M  V30 26 1 26 27
M  V30 27 1 6 8
M  V30 28 1 13 16
M  V30 29 1 15 19
M  V30 30 1 21 24
M  V30 31 1 25 26
M  V30 32 1 3 28
M  V30 33 1 4 29
M  V30 34 1 9 30
M  V30 35 1 9 31
M  V30 36 1 10 32
M  V30 37 1 11 33
M  V30 38 1 13 34
M  V30 39 1 13 35
M  V30 40 1 15 36
M  V30 41 1 17 37
M  V30 42 1 19 38
M  V30 43 1 20 39
M  V30 44 1 21 40
M  V30 45 1 22 41
M  V30 46 1 23 42
M  V30 47 1 24 43
M  V30 48 1 27 44
M  V30 49 1 27 45
M  V30 50 1 27 46
M  V30 END BOND
M  V30 END CTAB
M  END
>  <NO.>
722

>  <Name>
fr260010

>  <SMILES>
Cc1cn(-c2cccc(Nc3ncnc4c3CCc3ccccc3-4)c2)cn1

>  <logBB>
0.3

>  <Class>
1

>  <MW>
353.16

>  <nHBAcc>
4

>  <nHBDon>
1

>  <SLogP>
4.48

>  <TopoPSA>
55.63

>  <MMFF94 Energy>
21.408

$$$$
FCOC(C(F)(F)F)C(F)(F)F
Actelion Java MolfileCreator 2.0

  0  0  0  0  0  0              0 V3000
M  V30 BEGIN CTAB
M  V30 COUNTS 15 14 0 0 0
M  V30 BEGIN ATOM
M  V30 1 F 2.2489 -1.0823 -0.999 0
M  V30 2 C 1.4467 0.0022 -1.1356 0
M  V30 3 F 2.265 1.0786 -1.139 0
M  V30 4 F 0.8653 -0.0766 -2.3492 0
M  V30 5 C 0.4446 0.0682 -0.0041 0
M  V30 6 O -0.3166 -1.1618 0.0678 0
M  V30 7 C -0.3841 1.3099 -0.2532 0
M  V30 8 C -1.2458 -1.1978 1.1389 0
M  V30 9 F -1.126 1.2308 -1.3745 0
M  V30 10 F -1.2474 1.5012 0.7786 0
M  V30 11 F 0.3685 2.4268 -0.3228 0
M  V30 12 F -1.5157 -2.5071 1.364 0
M  V30 13 H 0.995 0.1747 0.9381 0
M  V30 14 H -0.8287 -0.7769 2.0581 0
M  V30 15 H -2.1772 -0.6996 0.8594 0
M  V30 END ATOM
M  V30 BEGIN BOND
M  V30 1 1 1 2
M  V30 2 1 2 3
M  V30 3 1 2 4
M  V30 4 1 2 5
M  V30 5 1 5 6
M  V30 6 1 5 7
M  V30 7 1 6 8
M  V30 8 1 7 9
M  V30 9 1 7 10
M  V30 10 1 7 11
M  V30 11 1 8 12
M  V30 12 1 5 13
M  V30 13 1 8 14
M  V30 14 1 8 15
M  V30 END BOND
M  V30 END CTAB
M  END
>  <NO.>
724

>  <Name>
sevoflurane

>  <SMILES>
FCOC(C(F)(F)F)C(F)(F)F

>  <logBB>
0.3

>  <Class>
1

>  <MW>
200.01

>  <nHBAcc>
1

>  <nHBDon>
0

>  <SLogP>
2.42

>  <TopoPSA>
9.23

>  <MMFF94 Energy>
12.926

$$$$
N#Cc1cccc(C2=Nc3ccc(C#Cc4ccccc4)cc3NC(=O)C2)c1
Actelion Java MolfileCreator 2.0

  0  0  0  0  0  0              0 V3000
M  V30 BEGIN CTAB
M  V30 COUNTS 43 46 0 0 0
M  V30 BEGIN ATOM
M  V30 1 O 3.468 -0.3222 2.6607 0
M  V30 2 C 2.739 -0.3483 1.6694 0
M  V30 3 N 1.4187 -0.0212 1.778 0
M  V30 4 C 3.2696 -0.6807 0.3043 0
M  V30 5 C 0.472 0.0108 0.7393 0
M  V30 6 C 2.6071 -1.9196 -0.2378 0
M  V30 7 C 0.4735 -0.8895 -0.3465 0
M  V30 8 C -0.5267 0.9912 0.8405 0
M  V30 9 N 1.3398 -1.986 -0.5103 0
M  V30 10 C 3.4339 -3.1439 -0.4526 0
M  V30 11 C -0.5311 -0.7621 -1.3159 0
M  V30 12 C -1.5113 1.1041 -0.1426 0
M  V30 13 C 2.8398 -4.3962 -0.2421 0
M  V30 14 C 4.762 -3.0703 -0.886 0
M  V30 15 C -1.5118 0.2286 -1.2247 0
M  V30 16 C -2.5174 2.1144 -0.0364 0
M  V30 17 C 3.5775 -5.5671 -0.4419 0
M  V30 18 C 5.4988 -4.2403 -1.0842 0
M  V30 19 C -3.3628 2.9632 0.0541 0
M  V30 20 C 2.9707 -6.847 -0.2213 0
M  V30 21 C 4.9098 -5.4857 -0.8598 0
M  V30 22 C -4.3698 3.9729 0.1629 0
M  V30 23 N 2.4875 -7.8872 -0.0446 0
M  V30 24 C -5.5914 3.6798 0.7737 0
M  V30 25 C -4.1336 5.2541 -0.3408 0
M  V30 26 C -6.574 4.6662 0.8801 0
M  V30 27 C -5.1171 6.2395 -0.2336 0
M  V30 28 C -6.3364 5.9451 0.3765 0
M  V30 29 H 1.1356 0.279 2.7029 0
M  V30 30 H 3.1019 0.1595 -0.3782 0
M  V30 31 H 4.3513 -0.8027 0.3998 0
M  V30 32 H -0.5329 1.6817 1.6811 0
M  V30 33 H -0.555 -1.4613 -2.1492 0
M  V30 34 H 1.8009 -4.4557 0.0807 0
M  V30 35 H 5.2378 -2.1167 -1.098 0
M  V30 36 H -2.2768 0.2982 -1.9945 0
M  V30 37 H 6.5316 -4.1817 -1.4211 0
M  V30 38 H 5.4943 -6.3904 -1.0194 0
M  V30 39 H -5.7851 2.6856 1.1686 0
M  V30 40 H -3.1863 5.4921 -0.8182 0
M  V30 41 H -7.5242 4.4368 1.3554 0
M  V30 42 H -4.9324 7.2361 -0.6262 0
M  V30 43 H -7.1019 6.7125 0.4596 0
M  V30 END ATOM
M  V30 BEGIN BOND
M  V30 1 2 1 2
M  V30 2 1 2 3
M  V30 3 1 2 4
M  V30 4 1 3 5
M  V30 5 1 4 6
M  V30 6 2 5 7
M  V30 7 1 5 8
M  V30 8 2 6 9
M  V30 9 1 6 10
M  V30 10 1 7 11
M  V30 11 2 8 12
M  V30 12 2 10 13
M  V30 13 1 10 14
M  V30 14 2 11 15
M  V30 15 1 12 16
M  V30 16 1 13 17
M  V30 17 2 14 18
M  V30 18 3 16 19
M  V30 19 1 17 20
M  V30 20 2 17 21
M  V30 21 1 19 22
M  V30 22 3 20 23
M  V30 23 2 22 24
M  V30 24 1 22 25
M  V30 25 1 24 26
M  V30 26 2 25 27
M  V30 27 2 26 28
M  V30 28 1 7 9
M  V30 29 1 12 15
M  V30 30 1 18 21
M  V30 31 1 27 28
M  V30 32 1 3 29
M  V30 33 1 4 30
M  V30 34 1 4 31
M  V30 35 1 8 32
M  V30 36 1 11 33
M  V30 37 1 13 34
M  V30 38 1 14 35
M  V30 39 1 15 36
M  V30 40 1 18 37
M  V30 41 1 21 38
M  V30 42 1 24 39
M  V30 43 1 25 40
M  V30 44 1 26 41
M  V30 45 1 27 42
M  V30 46 1 28 43
M  V30 END BOND
M  V30 END CTAB
M  END
>  <NO.>
725

>  <Name>
chembl401446

>  <SMILES>
N#Cc1cccc(C2=Nc3ccc(C#Cc4ccccc4)cc3NC(=O)C2)c1

>  <logBB>
0.3

>  <Class>
1

>  <MW>
361.12

>  <nHBAcc>
3

>  <nHBDon>
1

>  <SLogP>
4.42

>  <TopoPSA>
65.25

>  <MMFF94 Energy>
66.77

$$$$
Nc1nc2ccc(OC(F)(F)F)cc2s1
Actelion Java MolfileCreator 2.0

  0  0  0  0  0  0              0 V3000
M  V30 BEGIN CTAB
M  V30 COUNTS 20 21 0 0 0
M  V30 BEGIN ATOM
M  V30 1 S -1.7502 -1.6668 1.5834 0
M  V30 2 C -1.5264 -0.494 2.8137 0
M  V30 3 C -0.7089 -0.7764 0.5429 0
M  V30 4 N -0.7388 0.5052 2.5094 0
M  V30 5 N -2.1276 -0.6113 4.0021 0
M  V30 6 C -0.2645 0.3591 1.2182 0
M  V30 7 C -0.3114 -1.0577 -0.7748 0
M  V30 8 C 0.6067 1.2406 0.5496 0
M  V30 9 C 0.5565 -0.17 -1.4266 0
M  V30 10 C 1.0101 0.9695 -0.7661 0
M  V30 11 O 0.8743 -0.5451 -2.7025 0
M  V30 12 C 1.7475 0.2898 -3.4441 0
M  V30 13 F 1.2205 1.5219 -3.6075 0
M  V30 14 F 2.9523 0.3897 -2.8434 0
M  V30 15 F 1.9316 -0.254 -4.6673 0
M  V30 16 H -2.7344 -1.3865 4.2285 0
M  V30 17 H -1.9774 0.096 4.7098 0
M  V30 18 H -0.6719 -1.9498 -1.2796 0
M  V30 19 H 0.961 2.1294 1.0636 0
M  V30 20 H 1.683 1.6834 -1.2334 0
M  V30 END ATOM
M  V30 BEGIN BOND
M  V30 1 1 1 2
M  V30 2 1 1 3
M  V30 3 2 2 4
M  V30 4 1 2 5
M  V30 5 2 3 6
M  V30 6 1 3 7
M  V30 7 1 6 8
M  V30 8 2 7 9
M  V30 9 2 8 10
M  V30 10 1 9 11
M  V30 11 1 11 12
M  V30 12 1 12 13
M  V30 13 1 12 14
M  V30 14 1 12 15
M  V30 15 1 4 6
M  V30 16 1 9 10
M  V30 17 1 5 16
M  V30 18 1 5 17
M  V30 19 1 7 18
M  V30 20 1 8 19
M  V30 21 1 10 20
M  V30 END BOND
M  V30 END CTAB
M  END
>  <NO.>
726

>  <Name>
riluzole

>  <SMILES>
Nc1nc2ccc(OC(F)(F)F)cc2s1

>  <logBB>
0.3

>  <Class>
1

>  <MW>
234.01

>  <nHBAcc>
4

>  <nHBDon>
1

>  <SLogP>
2.78

>  <TopoPSA>
48.14

>  <MMFF94 Energy>
-20.014

$$$$
C=C
Actelion Java MolfileCreator 2.0

  0  0  0  0  0  0              0 V3000
M  V30 BEGIN CTAB
M  V30 COUNTS 6 5 0 0 0
M  V30 BEGIN ATOM
M  V30 1 C 0.4259 -0.4259 0.2129 0
M  V30 2 C -0.4521 0.4647 -0.2561 0
M  V30 3 H 1.4831 -0.1888 0.2784 0
M  V30 4 H 0.1046 -1.4095 0.5408 0
M  V30 5 H -0.1309 1.4484 -0.584 0
M  V30 6 H -1.5094 0.2277 -0.3215 0
M  V30 END ATOM
M  V30 BEGIN BOND
M  V30 1 2 1 2
M  V30 2 1 1 3
M  V30 3 1 1 4
M  V30 4 1 2 5
M  V30 5 1 2 6
M  V30 END BOND
M  V30 END CTAB
M  END
>  <NO.>
727

>  <Name>
ethylene

>  <SMILES>
C=C

>  <logBB>
0.3

>  <Class>
1

>  <MW>
28.03

>  <nHBAcc>
0

>  <nHBDon>
0

>  <SLogP>
0.8

>  <TopoPSA>
0

>  <MMFF94 Energy>
8.2001

$$$$
CN1C(=O)CC(=O)N(c2ccccc2)c2cc(Cl)ccc21
Actelion Java MolfileCreator 2.0

  0  0  0  0  0  0              0 V3000
M  V30 BEGIN CTAB
M  V30 COUNTS 34 36 0 0 0
M  V30 BEGIN ATOM
M  V30 1 Cl -3.6515 -1.3782 -2.5144 0
M  V30 2 C -2.737 -1.0388 -1.0982 0
M  V30 3 C -1.361 -0.8444 -1.191 0
M  V30 4 C -3.3745 -0.9673 0.1337 0
M  V30 5 C -0.5949 -0.5629 -0.0426 0
M  V30 6 C -2.6287 -0.7002 1.283 0
M  V30 7 N 0.8139 -0.3694 -0.1904 0
M  V30 8 C -1.2393 -0.4953 1.2128 0
M  V30 9 C 1.7667 -1.0011 0.6128 0
M  V30 10 C 1.2236 0.5129 -1.2333 0
M  V30 11 N -0.5338 -0.237 2.4211 0
M  V30 12 O 2.9854 -0.9184 0.445 0
M  V30 13 C 1.2223 -1.8239 1.7473 0
M  V30 14 C 0.7174 1.8196 -1.2919 0
M  V30 15 C 2.1246 0.0838 -2.2156 0
M  V30 16 C 0.6258 -0.9146 2.7839 0
M  V30 17 C -1.1014 0.7123 3.3684 0
M  V30 18 C 1.1002 2.6782 -2.3243 0
M  V30 19 C 2.5062 0.945 -3.2462 0
M  V30 20 O 1.1427 -0.7986 3.896 0
M  V30 21 C 1.9923 2.2397 -3.3015 0
M  V30 22 H -0.8836 -0.9185 -2.166 0
M  V30 23 H -4.4475 -1.1258 0.2102 0
M  V30 24 H -3.148 -0.6733 2.2385 0
M  V30 25 H 0.4989 -2.5665 1.3975 0
M  V30 26 H 2.0482 -2.3814 2.2042 0
M  V30 27 H 0.0322 2.1829 -0.5305 0
M  V30 28 H 2.5405 -0.9202 -2.1832 0
M  V30 29 H -1.7769 0.1795 4.0449 0
M  V30 30 H -0.3104 1.1753 3.9668 0
M  V30 31 H -1.6405 1.5054 2.8406 0
M  V30 32 H 0.7081 3.6913 -2.3625 0
M  V30 33 H 3.2109 0.6062 -4.0014 0
M  V30 34 H 2.2949 2.9101 -4.1021 0
M  V30 END ATOM
M  V30 BEGIN BOND
M  V30 1 1 1 2
M  V30 2 2 2 3
M  V30 3 1 2 4
M  V30 4 1 3 5
M  V30 5 2 4 6
M  V30 6 1 5 7
M  V30 7 2 5 8
M  V30 8 1 7 9
M  V30 9 1 7 10
M  V30 10 1 8 11
M  V30 11 2 9 12
M  V30 12 1 9 13
M  V30 13 2 10 14
M  V30 14 1 10 15
M  V30 15 1 11 16
M  V30 16 1 11 17
M  V30 17 1 14 18
M  V30 18 2 15 19
M  V30 19 2 16 20
M  V30 20 2 18 21
M  V30 21 1 6 8
M  V30 22 1 13 16
M  V30 23 1 19 21
M  V30 24 1 3 22
M  V30 25 1 4 23
M  V30 26 1 6 24
M  V30 27 1 13 25
M  V30 28 1 13 26
M  V30 29 1 14 27
M  V30 30 1 15 28
M  V30 31 1 17 29
M  V30 32 1 17 30
M  V30 33 1 17 31
M  V30 34 1 18 32
M  V30 35 1 19 33
M  V30 36 1 21 34
M  V30 END BOND
M  V30 END CTAB
M  END
>  <NO.>
728

>  <Name>
22316-47-8

>  <SMILES>
CN1C(=O)CC(=O)N(c2ccccc2)c2cc(Cl)ccc21

>  <logBB>
0.3

>  <Class>
1

>  <MW>
300.07

>  <nHBAcc>
2

>  <nHBDon>
0

>  <SLogP>
3.37

>  <TopoPSA>
40.62

>  <MMFF94 Energy>
40.264

$$$$
CCCCN1CC2Cc3cc(OC)c(OC)cc3C2C1
Actelion Java MolfileCreator 2.0

  0  0  0  0  0  0              0 V3000
M  V30 BEGIN CTAB
M  V30 COUNTS 45 47 0 0 0
M  V30 BEGIN ATOM
M  V30 1 O 3.0086 4.0395 -0.6328 0
M  V30 2 C 2.0307 3.2345 -0.0975 0
M  V30 3 C 3.0314 4.1968 -2.0434 0
M  V30 4 C 2.0655 3.0753 1.312 0
M  V30 5 C 1.0408 2.5912 -0.8526 0
M  V30 6 O 3.0746 3.7437 1.9646 0
M  V30 7 C 1.1099 2.2749 1.9517 0
M  V30 8 C 0.1026 1.805 -0.1981 0
M  V30 9 C 3.163 3.5851 3.3728 0
M  V30 10 C 0.1345 1.6544 1.1853 0
M  V30 11 C -1.0307 1.042 -0.8088 0
M  V30 12 C -0.9445 0.7356 1.6617 0
M  V30 13 C -1.8553 0.6002 0.4202 0
M  V30 14 C -0.6522 -0.2615 -1.5202 0
M  V30 15 C -2.2373 -0.8395 0.1009 0
M  V30 16 N -1.0551 -1.3419 -0.6029 0
M  V30 17 C -1.2652 -2.6094 -1.3043 0
M  V30 18 C -1.5006 -3.7757 -0.3366 0
M  V30 19 C -1.6133 -5.1026 -1.0897 0
M  V30 20 C -1.8485 -6.265 -0.1383 0
M  V30 21 H 3.1925 3.2377 -2.5465 0
M  V30 22 H 3.8745 4.848 -2.2938 0
M  V30 23 H 2.1186 4.6843 -2.4013 0
M  V30 24 H 0.9819 2.6891 -1.9295 0
M  V30 25 H 1.1078 2.1201 3.0236 0
M  V30 26 H 2.2698 3.9758 3.8715 0
M  V30 27 H 4.0197 4.1697 3.722 0
M  V30 28 H 3.3432 2.5394 3.643 0
M  V30 29 H -1.6278 1.6904 -1.4607 0
M  V30 30 H -0.5137 -0.2203 1.9776 0
M  V30 31 H -1.499 1.1729 2.4983 0
M  V30 32 H -2.7464 1.2284 0.544 0
M  V30 33 H 0.4136 -0.3263 -1.7631 0
M  V30 34 H -1.2196 -0.3214 -2.4583 0
M  V30 35 H -3.1219 -0.8547 -0.5486 0
M  V30 36 H -2.4594 -1.4079 1.0094 0
M  V30 37 H -0.369 -2.8353 -1.8965 0
M  V30 38 H -2.104 -2.5344 -2.0085 0
M  V30 39 H -2.4201 -3.6138 0.238 0
M  V30 40 H -0.6733 -3.8326 0.382 0
M  V30 41 H -2.4393 -5.0533 -1.8087 0
M  V30 42 H -0.6959 -5.2862 -1.6609 0
M  V30 43 H -1.9253 -7.2027 -0.6973 0
M  V30 44 H -1.0238 -6.3611 0.575 0
M  V30 45 H -2.7769 -6.1287 0.4257 0
M  V30 END ATOM
M  V30 BEGIN BOND
M  V30 1 1 1 2
M  V30 2 1 1 3
M  V30 3 2 2 4
M  V30 4 1 2 5
M  V30 5 1 4 6
M  V30 6 1 4 7
M  V30 7 2 5 8
M  V30 8 1 6 9
M  V30 9 2 7 10
M  V30 10 1 8 11
M  V30 11 1 10 12
M  V30 12 1 11 13
M  V30 13 1 11 14
M  V30 14 1 13 15
M  V30 15 1 14 16
M  V30 16 1 16 17
M  V30 17 1 17 18
M  V30 18 1 18 19
M  V30 19 1 19 20
M  V30 20 1 8 10
M  V30 21 1 12 13
M  V30 22 1 15 16
M  V30 23 1 3 21
M  V30 24 1 3 22
M  V30 25 1 3 23
M  V30 26 1 5 24
M  V30 27 1 7 25
M  V30 28 1 9 26
M  V30 29 1 9 27
M  V30 30 1 9 28
M  V30 31 1 11 29
M  V30 32 1 12 30
M  V30 33 1 12 31
M  V30 34 1 13 32
M  V30 35 1 14 33
M  V30 36 1 14 34
M  V30 37 1 15 35
M  V30 38 1 15 36
M  V30 39 1 17 37
M  V30 40 1 17 38
M  V30 41 1 18 39
M  V30 42 1 18 40
M  V30 43 1 19 41
M  V30 44 1 19 42
M  V30 45 1 20 43
M  V30 46 1 20 44
M  V30 47 1 20 45
M  V30 END BOND
M  V30 END CTAB
M  END
>  <NO.>
729

>  <Name>
ar-1d9859

>  <SMILES>
CCCCN1CC2Cc3cc(OC)c(OC)cc3C2C1

>  <logBB>
0.31

>  <Class>
1

>  <MW>
275.19

>  <nHBAcc>
3

>  <nHBDon>
0

>  <SLogP>
3.08

>  <TopoPSA>
21.7

>  <MMFF94 Energy>
66.928

$$$$
COc1ccc2c3c1OC1CC(O)C=CC31CCN(C)C2
Actelion Java MolfileCreator 2.0

  0  0  0  0  0  0              0 V3000
M  V30 BEGIN CTAB
M  V30 COUNTS 42 45 0 0 0
M  V30 BEGIN ATOM
M  V30 1 O 0.1604 1.0433 2.0072 0
M  V30 2 C 1.0571 0.4865 1.122 0
M  V30 3 C -1.0095 1.2822 1.1815 0
M  V30 4 C 2.4198 0.3836 1.3574 0
M  V30 5 C 0.454 0.0105 -0.0428 0
M  V30 6 C -1.0252 0.2162 0.0391 0
M  V30 7 C -2.2613 1.2642 2.0601 0
M  V30 8 O 2.8774 0.8741 2.5456 0
M  V30 9 C 3.1919 -0.2031 0.355 0
M  V30 10 C 1.2074 -0.5802 -1.0482 0
M  V30 11 C -1.7279 -1.0673 0.4568 0
M  V30 12 C -1.6361 0.8258 -1.2333 0
M  V30 13 C -2.5477 -0.126 2.627 0
M  V30 14 C 4.2709 0.7608 2.7968 0
M  V30 15 C 2.5934 -0.6766 -0.8299 0
M  V30 16 C 0.5837 -1.1625 -2.2921 0
M  V30 17 C -2.3848 -1.2167 1.6179 0
M  V30 18 C -1.5818 -0.036 -2.5 0
M  V30 19 O -1.6802 -0.4183 3.7134 0
M  V30 20 N -0.2305 -0.2042 -3.0602 0
M  V30 21 C -0.3384 -0.6661 -4.45 0
M  V30 22 H -0.8915 2.2981 0.7753 0
M  V30 23 H -2.1304 1.9705 2.889 0
M  V30 24 H -3.1188 1.5969 1.4623 0
M  V30 25 H 4.2665 -0.3143 0.4567 0
M  V30 26 H -1.6478 -1.9278 -0.2026 0
M  V30 27 H -2.6912 1.0639 -1.0387 0
M  V30 28 H -1.1525 1.7873 -1.4589 0
M  V30 29 H -3.5714 -0.1442 3.0163 0
M  V30 30 H 4.5847 -0.288 2.8193 0
M  V30 31 H 4.469 1.1885 3.7845 0
M  V30 32 H 4.8517 1.3316 2.0646 0
M  V30 33 H 3.2324 -1.1337 -1.5837 0
M  V30 34 H 1.4093 -1.5105 -2.9279 0
M  V30 35 H 0.0159 -2.0659 -2.0336 0
M  V30 36 H -2.8139 -2.1823 1.8741 0
M  V30 37 H -2.0767 -1.003 -2.3473 0
M  V30 38 H -2.1975 0.4969 -3.238 0
M  V30 39 H -0.7708 -0.2247 3.4096 0
M  V30 40 H -0.8304 -1.643 -4.5225 0
M  V30 41 H -0.9027 0.0526 -5.0552 0
M  V30 42 H 0.6526 -0.7404 -4.912 0
M  V30 END ATOM
M  V30 BEGIN BOND
M  V30 1 1 1 2
M  V30 2 1 1 3
M  V30 3 2 2 4
M  V30 4 1 2 5
M  V30 5 1 3 6
M  V30 6 1 3 7
M  V30 7 1 4 8
M  V30 8 1 4 9
M  V30 9 2 5 10
M  V30 10 1 6 11
M  V30 11 1 6 12
M  V30 12 1 7 13
M  V30 13 1 8 14
M  V30 14 2 9 15
M  V30 15 1 10 16
M  V30 16 2 11 17
M  V30 17 1 12 18
M  V30 18 1 13 19
M  V30 19 1 16 20
M  V30 20 1 20 21
M  V30 21 1 5 6
M  V30 22 1 10 15
M  V30 23 1 13 17
M  V30 24 1 18 20
M  V30 25 1 3 22
M  V30 26 1 7 23
M  V30 27 1 7 24
M  V30 28 1 9 25
M  V30 29 1 11 26
M  V30 30 1 12 27
M  V30 31 1 12 28
M  V30 32 1 13 29
M  V30 33 1 14 30
M  V30 34 1 14 31
M  V30 35 1 14 32
M  V30 36 1 15 33
M  V30 37 1 16 34
M  V30 38 1 16 35
M  V30 39 1 17 36
M  V30 40 1 18 37
M  V30 41 1 18 38
M  V30 42 1 19 39
M  V30 43 1 21 40
M  V30 44 1 21 41
M  V30 45 1 21 42
M  V30 END BOND
M  V30 END CTAB
M  END
>  <NO.>
730

>  <Name>
357-70-0

>  <SMILES>
COc1ccc2c3c1OC1CC(O)C=CC31CCN(C)C2

>  <logBB>
0.32

>  <Class>
1

>  <MW>
287.15

>  <nHBAcc>
4

>  <nHBDon>
1

>  <SLogP>
1.85

>  <TopoPSA>
41.93

>  <MMFF94 Energy>
62.58

$$$$
Cc1nc2cc(CNC3CCCNC3c3ccccc3)c(OC(C)C)cc2s1
Actelion Java MolfileCreator 2.0

  0  0  0  0  0  0              0 V3000
M  V30 BEGIN CTAB
M  V30 COUNTS 57 60 0 0 0
M  V30 BEGIN ATOM
M  V30 1 S -1.1223 2.2457 5.541 0
M  V30 2 C -1.2116 1.6517 3.927 0
M  V30 3 C -1.1151 0.6352 6.1331 0
M  V30 4 C -1.2378 0.2586 3.9591 0
M  V30 5 C -1.26 2.3694 2.721 0
M  V30 6 N -1.1798 -0.3089 5.2211 0
M  V30 7 C -1.0412 0.3827 7.5977 0
M  V30 8 C -1.3277 -0.4439 2.7419 0
M  V30 9 C -1.3174 1.6488 1.5206 0
M  V30 10 C -1.3832 0.2492 1.516 0
M  V30 11 O -1.385 2.291 0.3107 0
M  V30 12 C -1.4796 -0.5484 0.234 0
M  V30 13 C -0.353 3.2615 0.0654 0
M  V30 14 N -0.1643 -1.0228 -0.193 0
M  V30 15 C 1.0224 2.6072 -0.0465 0
M  V30 16 C -0.713 3.9451 -1.2516 0
M  V30 17 C -0.2253 -1.9167 -1.3645 0
M  V30 18 C 1.1511 -1.9635 -2.1317 0
M  V30 19 C -0.6165 -3.3411 -0.9211 0
M  V30 20 N 1.1571 -2.9551 -3.2276 0
M  V30 21 C 1.5955 -0.619 -2.7037 0
M  V30 22 C -0.5632 -4.3154 -2.093 0
M  V30 23 C 0.8051 -4.2907 -2.7612 0
M  V30 24 C 2.9261 -0.2005 -2.5333 0
M  V30 25 C 0.7318 0.2012 -3.4486 0
M  V30 26 C 3.3722 1.01 -3.0684 0
M  V30 27 C 1.1796 1.4116 -3.9844 0
M  V30 28 C 2.4979 1.817 -3.7918 0
M  V30 29 H -1.2695 3.453 2.7344 0
M  V30 30 H -1.0458 -0.6928 7.801 0
M  V30 31 H -0.1216 0.8009 8.019 0
M  V30 32 H -1.899 0.8264 8.1132 0
M  V30 33 H -1.3583 -1.529 2.7695 0
M  V30 34 H -1.9378 0.0567 -0.5566 0
M  V30 35 H -2.167 -1.3841 0.4111 0
M  V30 36 H -0.3437 4.0317 0.8445 0
M  V30 37 H 0.312 -1.4809 0.5809 0
M  V30 38 H 1.7827 3.3314 -0.3552 0
M  V30 39 H 1.3358 2.1792 0.9111 0
M  V30 40 H 1.0039 1.7862 -0.7674 0
M  V30 41 H 0.0218 4.7106 -1.5186 0
M  V30 42 H -1.6978 4.4191 -1.1772 0
M  V30 43 H -0.776 3.2171 -2.0677 0
M  V30 44 H -0.9943 -1.5536 -2.0589 0
M  V30 45 H 1.9133 -2.277 -1.4032 0
M  V30 46 H -1.6265 -3.3557 -0.4969 0
M  V30 47 H 0.0643 -3.6918 -0.1342 0
M  V30 48 H 0.4965 -2.6508 -3.9412 0
M  V30 49 H -1.3408 -4.0574 -2.8229 0
M  V30 50 H -0.7815 -5.3289 -1.738 0
M  V30 51 H 1.5735 -4.6579 -2.0704 0
M  V30 52 H 0.8042 -4.9746 -3.6169 0
M  V30 53 H 3.6268 -0.824 -1.9828 0
M  V30 54 H -0.2994 -0.0916 -3.6214 0
M  V30 55 H 4.4039 1.3179 -2.9237 0
M  V30 56 H 0.4968 2.0369 -4.5531 0
M  V30 57 H 2.8452 2.7576 -4.2099 0
M  V30 END ATOM
M  V30 BEGIN BOND
M  V30 1 1 1 2
M  V30 2 1 1 3
M  V30 3 2 2 4
M  V30 4 1 2 5
M  V30 5 2 3 6
M  V30 6 1 3 7
M  V30 7 1 4 8
M  V30 8 2 5 9
M  V30 9 2 8 10
M  V30 10 1 9 11
M  V30 11 1 10 12
M  V30 12 1 11 13
M  V30 13 1 12 14
M  V30 14 1 13 15
M  V30 15 1 13 16
M  V30 16 1 14 17
M  V30 17 1 17 18
M  V30 18 1 17 19
M  V30 19 1 18 20
M  V30 20 1 18 21
M  V30 21 1 19 22
M  V30 22 1 20 23
M  V30 23 2 21 24
M  V30 24 1 21 25
M  V30 25 1 24 26
M  V30 26 2 25 27
M  V30 27 2 26 28
M  V30 28 1 4 6
M  V30 29 1 9 10
M  V30 30 1 22 23
M  V30 31 1 27 28
M  V30 32 1 5 29
M  V30 33 1 7 30
M  V30 34 1 7 31
M  V30 35 1 7 32
M  V30 36 1 8 33
M  V30 37 1 12 34
M  V30 38 1 12 35
M  V30 39 1 13 36
M  V30 40 1 14 37
M  V30 41 1 15 38
M  V30 42 1 15 39
M  V30 43 1 15 40
M  V30 44 1 16 41
M  V30 45 1 16 42
M  V30 46 1 16 43
M  V30 47 1 17 44
M  V30 48 1 18 45
M  V30 49 1 19 46
M  V30 50 1 19 47
M  V30 51 1 20 48
M  V30 52 1 22 49
M  V30 53 1 22 50
M  V30 54 1 23 51
M  V30 55 1 23 52
M  V30 56 1 24 53
M  V30 57 1 25 54
M  V30 58 1 26 55
M  V30 59 1 27 56
M  V30 60 1 28 57
M  V30 END BOND
M  V30 END CTAB
M  END
>  <NO.>
732

>  <Name>
-

>  <SMILES>
Cc1nc2cc(CNC3CCCNC3c3ccccc3)c(OC(C)C)cc2s1

>  <logBB>
0.32

>  <Class>
1

>  <MW>
395.2

>  <nHBAcc>
5

>  <nHBDon>
2

>  <SLogP>
4.97

>  <TopoPSA>
46.18

>  <MMFF94 Energy>
74.451

$$$$
c1cncc(C2CCCN2)c1
Actelion Java MolfileCreator 2.0

  0  0  0  0  0  0              0 V3000
M  V30 BEGIN CTAB
M  V30 COUNTS 23 24 0 0 0
M  V30 BEGIN ATOM
M  V30 1 N -1.7389 -2.926 -0.1579 0
M  V30 2 C -1.2874 -1.7832 0.4126 0
M  V30 3 C -1.5912 -3.0339 -1.4927 0
M  V30 4 C -0.6793 -0.7344 -0.2787 0
M  V30 5 C -1.0203 -2.0512 -2.2814 0
M  V30 6 C -0.5666 -0.8863 -1.6651 0
M  V30 7 C -0.2521 0.5093 0.4591 0 CFG=1
M  V30 8 N 0.4891 0.2126 1.7011 0
M  V30 9 C 0.7205 1.4367 -0.2668 0
M  V30 10 C 1.0675 1.4935 2.1199 0
M  V30 11 C 1.3241 2.2808 0.8444 0
M  V30 12 H -1.4339 -1.7299 1.4897 0
M  V30 13 H -1.9599 -3.9583 -1.9268 0
M  V30 14 H -0.9349 -2.1856 -3.3537 0
M  V30 15 H -0.1333 -0.1062 -2.2845 0
M  V30 16 H -1.1629 1.0688 0.7147 0
M  V30 17 H 1.2538 -0.4227 1.4648 0
M  V30 18 H 0.2262 2.0557 -1.0228 0
M  V30 19 H 1.5203 0.873 -0.7645 0
M  V30 20 H 0.3573 2.0264 2.7622 0
M  V30 21 H 1.9847 1.3406 2.6972 0
M  V30 22 H 0.8344 3.2596 0.896 0
M  V30 23 H 2.3927 2.4447 0.6715 0
M  V30 END ATOM
M  V30 BEGIN BOND
M  V30 1 2 1 2
M  V30 2 1 1 3
M  V30 3 1 2 4
M  V30 4 2 3 5
M  V30 5 2 4 6
M  V30 6 1 4 7
M  V30 7 1 7 8
M  V30 8 1 7 9
M  V30 9 1 8 10
M  V30 10 1 9 11
M  V30 11 1 5 6
M  V30 12 1 10 11
M  V30 13 1 2 12
M  V30 14 1 3 13
M  V30 15 1 5 14
M  V30 16 1 6 15
M  V30 17 1 7 16
M  V30 18 1 8 17
M  V30 19 1 9 18
M  V30 20 1 9 19
M  V30 21 1 10 20
M  V30 22 1 10 21
M  V30 23 1 11 22
M  V30 24 1 11 23
M  V30 END BOND
M  V30 BEGIN COLLECTION
M  V30 MDLV30/STERAC1 ATOMS=(1 7)
M  V30 END COLLECTION
M  V30 END CTAB
M  END
>  <NO.>
733

>  <Name>
494-97-3

>  <SMILES>
c1cncc(C2CCCN2)c1

>  <logBB>
0.32

>  <Class>
1

>  <MW>
148.1

>  <nHBAcc>
2

>  <nHBDon>
1

>  <SLogP>
1.51

>  <TopoPSA>
24.92

>  <MMFF94 Energy>
18.718

$$$$
COc1ccc2c3c1O[C@H]1C(=O)CC[C@H]4[C@@H](C2)N(C)CC[C@]314
Actelion Java MolfileCreator 2.0

  0  0  0  0  0  0              0 V3000
M  V30 BEGIN CTAB
M  V30 COUNTS 43 47 0 0 0
M  V30 BEGIN ATOM
M  V30 1 O 1.0553 3.7379 0.3246 0
M  V30 2 C 1.2626 2.5394 0.5264 0
M  V30 3 C 1.2978 1.5009 -0.611 0 CFG=2
M  V30 4 C 1.6227 2.0635 1.9172 0
M  V30 5 O 0.3379 1.8683 -1.6463 0
M  V30 6 C 0.9514 0.0732 -0.1614 0 CFG=2
M  V30 7 C 0.8659 0.7932 2.2788 0
M  V30 8 C -0.7982 1.172 -1.294 0
M  V30 9 C -0.5163 0.1663 -0.3895 0
M  V30 10 C 1.2248 -0.3215 1.2908 0 CFG=1
M  V30 11 C 1.5588 -1.0058 -1.0842 0
M  V30 12 C -2.0936 1.41 -1.7122 0
M  V30 13 C -1.488 -0.5943 0.2306 0
M  V30 14 C 0.4767 -1.6635 1.5421 0 CFG=1
M  V30 15 C 1.0427 -2.4149 -0.748 0
M  V30 16 O -2.2715 2.4008 -2.6313 0
M  V30 17 C -3.1016 0.6165 -1.1392 0
M  V30 18 C -2.8046 -0.3649 -0.1631 0
M  V30 19 C -1.0777 -1.5411 1.3299 0
M  V30 20 N 1.0306 -2.7456 0.6856 0
M  V30 21 C -3.6078 2.6991 -3.0085 0
M  V30 22 C 2.3367 -3.2202 1.1401 0
M  V30 23 H 2.3048 1.5458 -1.0429 0
M  V30 24 H 2.7061 1.9065 1.9563 0
M  V30 25 H 1.3701 2.8528 2.6338 0
M  V30 26 H -0.2103 0.9976 2.2891 0
M  V30 27 H 1.1383 0.4843 3.2949 0
M  V30 28 H 2.3044 -0.4837 1.4131 0
M  V30 29 H 2.6519 -0.9892 -0.9837 0
M  V30 30 H 1.342 -0.7962 -2.1397 0
M  V30 31 H 0.6155 -1.9654 2.5891 0
M  V30 32 H 1.6258 -3.1566 -1.3091 0
M  V30 33 H 0.0228 -2.5273 -1.1356 0
M  V30 34 H -4.144 0.7483 -1.4135 0
M  V30 35 H -3.6175 -0.9329 0.2841 0
M  V30 36 H -1.5142 -2.5315 1.1506 0
M  V30 37 H -1.5148 -1.1662 2.2648 0
M  V30 38 H -4.0767 1.8446 -3.5074 0
M  V30 39 H -3.5772 3.5263 -3.7243 0
M  V30 40 H -4.1991 3.0266 -2.1467 0
M  V30 41 H 3.134 -2.4831 1.0042 0
M  V30 42 H 2.6208 -4.1264 0.5931 0
M  V30 43 H 2.3017 -3.5 2.1988 0
M  V30 END ATOM
M  V30 BEGIN BOND
M  V30 1 2 1 2
M  V30 2 1 2 3
M  V30 3 1 2 4
M  V30 4 1 3 5
M  V30 5 1 3 6
M  V30 6 1 4 7
M  V30 7 1 5 8
M  V30 8 1 6 9
M  V30 9 1 6 10
M  V30 10 1 6 11
M  V30 11 1 8 12
M  V30 12 1 9 13
M  V30 13 1 10 14
M  V30 14 1 11 15
M  V30 15 1 12 16
M  V30 16 2 12 17
M  V30 17 2 13 18
M  V30 18 1 13 19
M  V30 19 1 14 20
M  V30 20 1 16 21
M  V30 21 1 20 22
M  V30 22 1 7 10
M  V30 23 2 8 9
M  V30 24 1 14 19
M  V30 25 1 15 20
M  V30 26 1 17 18
M  V30 27 1 3 23
M  V30 28 1 4 24
M  V30 29 1 4 25
M  V30 30 1 7 26
M  V30 31 1 7 27
M  V30 32 1 10 28
M  V30 33 1 11 29
M  V30 34 1 11 30
M  V30 35 1 14 31
M  V30 36 1 15 32
M  V30 37 1 15 33
M  V30 38 1 17 34
M  V30 39 1 18 35
M  V30 40 1 19 36
M  V30 41 1 19 37
M  V30 42 1 21 38
M  V30 43 1 21 39
M  V30 44 1 21 40
M  V30 45 1 22 41
M  V30 46 1 22 42
M  V30 47 1 22 43
M  V30 END BOND
M  V30 BEGIN COLLECTION
M  V30 MDLV30/STEABS ATOMS=(4 3 6 10 14)
M  V30 END COLLECTION
M  V30 END CTAB
M  END
>  <NO.>
734

>  <Name>
hydrocodone

>  <SMILES>
COc1ccc2c3c1O[C@H]1C(=O)CC[C@H]4[C@@H](C2)N(C)CC[C@]314

>  <logBB>
0.32

>  <Class>
1

>  <MW>
299.15

>  <nHBAcc>
4

>  <nHBDon>
0

>  <SLogP>
1.93

>  <TopoPSA>
38.77

>  <MMFF94 Energy>
97.059

$$$$
Cc1cnn(C2CCN(c3nc4ccccc4n3Cc3ccc(F)cc3)CC2)c1
Actelion Java MolfileCreator 2.0

  0  0  0  0  0  0              0 V3000
M  V30 BEGIN CTAB
M  V30 COUNTS 53 57 0 0 0
M  V30 BEGIN ATOM
M  V30 1 F -5.6881 0.1598 5.1262 0
M  V30 2 C -5.0304 0.027 3.9671 0
M  V30 3 C -5.5763 -0.755 2.9569 0
M  V30 4 C -3.8156 0.6762 3.7904 0
M  V30 5 C -4.8941 -0.8944 1.747 0
M  V30 6 C -3.1315 0.5395 2.5818 0
M  V30 7 C -3.6588 -0.2552 1.5491 0
M  V30 8 C -2.9287 -0.3939 0.2316 0
M  V30 9 N -1.6042 -0.9721 0.3878 0
M  V30 10 C -0.3992 -0.3033 0.3207 0
M  V30 11 C -1.3398 -2.2953 0.6757 0
M  V30 12 N 0.5959 -1.0967 0.6433 0
M  V30 13 N -0.3086 1.0148 -1.0E-4 0
M  V30 14 C 0.0403 -2.3329 0.8431 0
M  V30 15 C -2.1489 -3.4289 0.8259 0
M  V30 16 C -0.4903 1.3996 -1.4023 0
M  V30 17 C 0.6768 1.8159 0.734 0
M  V30 18 C 0.6638 -3.5452 1.1739 0
M  V30 19 C -1.5092 -4.6302 1.1529 0
M  V30 20 C 0.8388 1.3118 -2.1455 0
M  V30 21 C 2.0382 1.7656 0.0483 0
M  V30 22 C -0.1256 -4.691 1.325 0
M  V30 23 C 1.9054 2.1493 -1.4299 0
M  V30 24 N 3.1845 2.0901 -2.126 0
M  V30 25 N 3.6664 3.2005 -2.7172 0
M  V30 26 C 3.9972 1.0033 -2.2864 0
M  V30 27 C 4.8206 2.7981 -3.253 0
M  V30 28 C 5.0835 1.4301 -3.0201 0
M  V30 29 C 6.2577 0.6459 -3.4592 0
M  V30 30 H -6.5286 -1.2499 3.1185 0
M  V30 31 H -3.4077 1.2825 4.5929 0
M  V30 32 H -5.3335 -1.5074 0.9632 0
M  V30 33 H -2.1798 1.0524 2.4521 0
M  V30 34 H -2.8561 0.5904 -0.2385 0
M  V30 35 H -3.4766 -1.0393 -0.465 0
M  V30 36 H -3.2252 -3.3893 0.7039 0
M  V30 37 H -1.2316 0.7672 -1.905 0
M  V30 38 H -0.8757 2.4259 -1.4434 0
M  V30 39 H 0.3234 2.854 0.7742 0
M  V30 40 H 0.7624 1.4818 1.7758 0
M  V30 41 H 1.7389 -3.5828 1.3081 0
M  V30 42 H -2.1034 -5.5329 1.2808 0
M  V30 43 H 0.7081 1.6633 -3.1762 0
M  V30 44 H 1.157 0.2632 -2.2092 0
M  V30 45 H 2.7314 2.4475 0.5558 0
M  V30 46 H 2.4662 0.7607 0.1456 0
M  V30 47 H 0.3465 -5.6359 1.5824 0
M  V30 48 H 1.5892 3.2019 -1.4725 0
M  V30 49 H 3.7421 0.037 -1.8724 0
M  V30 50 H 5.4243 3.5162 -3.7933 0
M  V30 51 H 6.0502 -0.4284 -3.4277 0
M  V30 52 H 7.1146 0.8481 -2.8088 0
M  V30 53 H 6.5354 0.9052 -4.4858 0
M  V30 END ATOM
M  V30 BEGIN BOND
M  V30 1 1 1 2
M  V30 2 2 2 3
M  V30 3 1 2 4
M  V30 4 1 3 5
M  V30 5 2 4 6
M  V30 6 2 5 7
M  V30 7 1 7 8
M  V30 8 1 8 9
M  V30 9 1 9 10
M  V30 10 1 9 11
M  V30 11 2 10 12
M  V30 12 1 10 13
M  V30 13 2 11 14
M  V30 14 1 11 15
M  V30 15 1 13 16
M  V30 16 1 13 17
M  V30 17 1 14 18
M  V30 18 2 15 19
M  V30 19 1 16 20
M  V30 20 1 17 21
M  V30 21 2 18 22
M  V30 22 1 20 23
M  V30 23 1 23 24
M  V30 24 1 24 25
M  V30 25 1 24 26
M  V30 26 2 25 27
M  V30 27 2 26 28
M  V30 28 1 28 29
M  V30 29 1 6 7
M  V30 30 1 12 14
M  V30 31 1 19 22
M  V30 32 1 21 23
M  V30 33 1 27 28
M  V30 34 1 3 30
M  V30 35 1 4 31
M  V30 36 1 5 32
M  V30 37 1 6 33
M  V30 38 1 8 34
M  V30 39 1 8 35
M  V30 40 1 15 36
M  V30 41 1 16 37
M  V30 42 1 16 38
M  V30 43 1 17 39
M  V30 44 1 17 40
M  V30 45 1 18 41
M  V30 46 1 19 42
M  V30 47 1 20 43
M  V30 48 1 20 44
M  V30 49 1 21 45
M  V30 50 1 21 46
M  V30 51 1 22 47
M  V30 52 1 23 48
M  V30 53 1 26 49
M  V30 54 1 27 50
M  V30 55 1 29 51
M  V30 56 1 29 52
M  V30 57 1 29 53
M  V30 END BOND
M  V30 END CTAB
M  END
>  <NO.>
735

>  <Name>
antihistamine-1

>  <SMILES>
Cc1cnn(C2CCN(c3nc4ccccc4n3Cc3ccc(F)cc3)CC2)c1

>  <logBB>
0.32

>  <Class>
1

>  <MW>
389.2

>  <nHBAcc>
3

>  <nHBDon>
0

>  <SLogP>
4.57

>  <TopoPSA>
38.88

>  <MMFF94 Energy>
15.367

$$$$
O=C1CN=C(c2ccccc2)c2cc([N+](=O)[O-])ccc2N1
Actelion Java MolfileCreator 2.0

  0  0  0  0  0  0              0 V3000
M  V30 BEGIN CTAB
M  V30 COUNTS 32 34 0 0 0
M  V30 BEGIN ATOM
M  V30 1 O 0.3229 -3.3138 -2.5856 0
M  V30 2 N -0.5275 -2.5633 -3.0826 0 CHG=1
M  V30 3 O -1.0523 -2.7281 -4.1923 0 CHG=-1
M  V30 4 C -0.9413 -1.3903 -2.3008 0
M  V30 5 C -0.3833 -1.1654 -1.0358 0
M  V30 6 C -1.8831 -0.5015 -2.8302 0
M  V30 7 C -0.7718 -0.0379 -0.2913 0
M  V30 8 C -2.2832 0.6056 -2.0778 0
M  V30 9 C -0.0942 0.2159 1.0166 0
M  V30 10 C -1.7528 0.8304 -0.7999 0
M  V30 11 N -0.6998 0.5749 2.0984 0
M  V30 12 C 1.3914 0.0463 1.0951 0
M  V30 13 N -2.2464 1.9408 -0.1036 0
M  V30 14 C -2.1454 0.7903 2.0835 0
M  V30 15 C 1.9511 -0.5065 2.2528 0
M  V30 16 C 2.2247 0.457 0.0467 0
M  V30 17 C -2.4761 2.0159 1.247 0
M  V30 18 C 3.3327 -0.6776 2.3484 0
M  V30 19 C 3.6066 0.2836 0.1473 0
M  V30 20 O -2.9876 3.0318 1.7183 0
M  V30 21 C 4.1583 -0.287 1.2944 0
M  V30 22 H 0.3504 -1.8592 -0.6276 0
M  V30 23 H -2.3217 -0.66 -3.8143 0
M  V30 24 H -3.0342 1.2774 -2.4909 0
M  V30 25 H -2.571 2.752 -0.616 0
M  V30 26 H -2.6938 -0.0871 1.7231 0
M  V30 27 H -2.4808 0.9777 3.1093 0
M  V30 28 H 1.3132 -0.8038 3.0824 0
M  V30 29 H 1.8183 0.9304 -0.8422 0
M  V30 30 H 3.7645 -1.1094 3.2479 0
M  V30 31 H 4.2562 0.6025 -0.6642 0
M  V30 32 H 5.2351 -0.4172 1.3728 0
M  V30 END ATOM
M  V30 BEGIN BOND
M  V30 1 2 1 2
M  V30 2 1 2 3
M  V30 3 1 2 4
M  V30 4 2 4 5
M  V30 5 1 4 6
M  V30 6 1 5 7
M  V30 7 2 6 8
M  V30 8 1 7 9
M  V30 9 2 7 10
M  V30 10 2 9 11
M  V30 11 1 9 12
M  V30 12 1 10 13
M  V30 13 1 11 14
M  V30 14 2 12 15
M  V30 15 1 12 16
M  V30 16 1 13 17
M  V30 17 1 15 18
M  V30 18 2 16 19
M  V30 19 2 17 20
M  V30 20 2 18 21
M  V30 21 1 8 10
M  V30 22 1 14 17
M  V30 23 1 19 21
M  V30 24 1 5 22
M  V30 25 1 6 23
M  V30 26 1 8 24
M  V30 27 1 13 25
M  V30 28 1 14 26
M  V30 29 1 14 27
M  V30 30 1 15 28
M  V30 31 1 16 29
M  V30 32 1 18 30
M  V30 33 1 19 31
M  V30 34 1 21 32
M  V30 END BOND
M  V30 END CTAB
M  END
>  <NO.>
736

>  <Name>
nitrazepam

>  <SMILES>
O=C1CN=C(c2ccccc2)c2cc([N+](=O)[O-])ccc2N1

>  <logBB>
0.32

>  <Class>
1

>  <MW>
281.08

>  <nHBAcc>
4

>  <nHBDon>
1

>  <SLogP>
2.38

>  <TopoPSA>
84.6

>  <MMFF94 Energy>
128.63

$$$$
OC1CNCc2ccccc21
Actelion Java MolfileCreator 2.0

  0  0  0  0  0  0              0 V3000
M  V30 BEGIN CTAB
M  V30 COUNTS 22 23 0 0 0
M  V30 BEGIN ATOM
M  V30 1 O -0.3169 0.6339 -2.6172 0
M  V30 2 C 0.1709 0.9683 -1.3173 0 CFG=2
M  V30 3 C 0.3819 -0.2881 -0.5006 0
M  V30 4 C -0.8174 1.9351 -0.6305 0
M  V30 5 C 0.0414 -0.3001 0.8674 0
M  V30 6 C 0.9829 -1.4209 -1.0712 0
M  V30 7 N -0.4945 2.1445 0.7835 0
M  V30 8 C 0.2814 -1.4573 1.6255 0
M  V30 9 C -0.6477 0.8802 1.5158 0
M  V30 10 C 1.223 -2.5604 -0.304 0
M  V30 11 C 0.8721 -2.5788 1.043 0
M  V30 12 H -0.3015 1.4527 -3.1394 0
M  V30 13 H 1.1459 1.4584 -1.434 0
M  V30 14 H -1.849 1.573 -0.7394 0
M  V30 15 H -0.7881 2.8979 -1.1547 0
M  V30 16 H 1.2601 -1.4152 -2.1232 0
M  V30 17 H -1.1366 2.8272 1.1821 0
M  V30 18 H 0.0071 -1.4895 2.6775 0
M  V30 19 H -1.7141 0.6439 1.6208 0
M  V30 20 H -0.2398 1.0284 2.5222 0
M  V30 21 H 1.683 -3.4329 -0.7598 0
M  V30 22 H 1.0564 -3.468 1.6398 0
M  V30 END ATOM
M  V30 BEGIN BOND
M  V30 1 1 1 2
M  V30 2 1 2 3
M  V30 3 1 2 4
M  V30 4 2 3 5
M  V30 5 1 3 6
M  V30 6 1 4 7
M  V30 7 1 5 8
M  V30 8 1 5 9
M  V30 9 2 6 10
M  V30 10 2 8 11
M  V30 11 1 7 9
M  V30 12 1 10 11
M  V30 13 1 1 12
M  V30 14 1 2 13
M  V30 15 1 4 14
M  V30 16 1 4 15
M  V30 17 1 6 16
M  V30 18 1 7 17
M  V30 19 1 8 18
M  V30 20 1 9 19
M  V30 21 1 9 20
M  V30 22 1 10 21
M  V30 23 1 11 22
M  V30 END BOND
M  V30 BEGIN COLLECTION
M  V30 MDLV30/STERAC1 ATOMS=(1 2)
M  V30 END COLLECTION
M  V30 END CTAB
M  END
>  <NO.>
737

>  <Name>
4-oh-tiq

>  <SMILES>
OC1CNCc2ccccc21

>  <logBB>
0.32

>  <Class>
1

>  <MW>
149.08

>  <nHBAcc>
2

>  <nHBDon>
2

>  <SLogP>
0.82

>  <TopoPSA>
32.26

>  <MMFF94 Energy>
56.383

$$$$
Brc1cccc(Br)c1NC1=NCCN1
Actelion Java MolfileCreator 2.0

  0  0  0  0  0  0              0 V3000
M  V30 BEGIN CTAB
M  V30 COUNTS 23 24 0 0 0
M  V30 BEGIN ATOM
M  V30 1 Br -0.4136 -1.6552 2.1522 0
M  V30 2 C -1.0443 -1.5981 0.3539 0
M  V30 3 C -0.2786 -1.0634 -0.7014 0
M  V30 4 C -2.2759 -2.2226 0.1088 0
M  V30 5 N 0.9225 -0.3494 -0.5016 0
M  V30 6 C -0.7954 -1.1987 -2.0078 0
M  V30 7 C -2.7668 -2.3295 -1.19 0
M  V30 8 C 1.0478 0.7521 0.2807 0
M  V30 9 Br 0.1598 -0.5291 -3.5142 0
M  V30 10 C -2.0232 -1.8241 -2.2514 0
M  V30 11 N 0.1166 1.4442 0.8721 0
M  V30 12 N 2.3209 1.1891 0.4426 0
M  V30 13 C 0.8423 2.5491 1.5585 0
M  V30 14 C 2.3407 2.2824 1.3748 0
M  V30 15 H -2.855 -2.6381 0.9306 0
M  V30 16 H 1.5772 -0.4131 -1.2683 0
M  V30 17 H -3.7234 -2.8126 -1.3731 0
M  V30 18 H -2.4091 -1.9136 -3.2638 0
M  V30 19 H 3.1134 0.574 0.3427 0
M  V30 20 H 0.5723 2.5754 2.6191 0
M  V30 21 H 0.5552 3.5042 1.1053 0
M  V30 22 H 2.8648 3.1537 0.9727 0
M  V30 23 H 2.8075 1.981 2.3176 0
M  V30 END ATOM
M  V30 BEGIN BOND
M  V30 1 1 1 2
M  V30 2 2 2 3
M  V30 3 1 2 4
M  V30 4 1 3 5
M  V30 5 1 3 6
M  V30 6 2 4 7
M  V30 7 1 5 8
M  V30 8 1 6 9
M  V30 9 2 6 10
M  V30 10 2 8 11
M  V30 11 1 8 12
M  V30 12 1 11 13
M  V30 13 1 12 14
M  V30 14 1 7 10
M  V30 15 1 13 14
M  V30 16 1 4 15
M  V30 17 1 5 16
M  V30 18 1 7 17
M  V30 19 1 10 18
M  V30 20 1 12 19
M  V30 21 1 13 20
M  V30 22 1 13 21
M  V30 23 1 14 22
M  V30 24 1 14 23
M  V30 END BOND
M  V30 END CTAB
M  END
>  <NO.>
739

>  <Name>
4205-93-0

>  <SMILES>
Brc1cccc(Br)c1NC1=NCCN1

>  <logBB>
0.33

>  <Class>
1

>  <MW>
316.92

>  <nHBAcc>
3

>  <nHBDon>
2

>  <SLogP>
2.58

>  <TopoPSA>
36.42

>  <MMFF94 Energy>
-14.701

$$$$
CCc1cc2cc(C(=O)C3CCC(OC)CC3)ccc2nc1C
Actelion Java MolfileCreator 2.0

  0  0  0  0  0  0              0 V3000
M  V30 BEGIN CTAB
M  V30 COUNTS 48 50 0 0 0
M  V30 BEGIN ATOM
M  V30 1 O -1.8265 -2.5419 -1.906 0
M  V30 2 C -1.3466 -1.5992 -1.2763 0
M  V30 3 C 0.1363 -1.5563 -1.0662 0
M  V30 4 C -2.2325 -0.4972 -0.6961 0
M  V30 5 C 0.7711 -0.5993 -0.2686 0
M  V30 6 C 0.9202 -2.5259 -1.6991 0
M  V30 7 C -3.5025 -0.3215 -1.544 0
M  V30 8 C -2.6049 -0.8341 0.7518 0
M  V30 9 C 2.1726 -0.6124 -0.1105 0
M  V30 10 C 2.3106 -2.5307 -1.5378 0
M  V30 11 C -4.434 0.7322 -0.9509 0
M  V30 12 C -3.5361 0.2172 1.3456 0
M  V30 13 C 2.9555 -1.5875 -0.7526 0
M  V30 14 C 2.8352 0.3324 0.6826 0
M  V30 15 C -4.8002 0.4152 0.5031 0
M  V30 16 N 4.2912 -1.632 -0.63 0
M  V30 17 C 4.228 0.296 0.8262 0
M  V30 18 O -5.5296 1.4941 1.095 0
M  V30 19 C 4.9184 -0.7064 0.1407 0
M  V30 20 C 4.911 1.3402 1.6722 0
M  V30 21 C -6.8938 1.5416 0.6982 0
M  V30 22 C 6.412 -0.8413 0.2165 0
M  V30 23 C 5.2317 2.5971 0.8763 0
M  V30 24 H -1.6932 0.456 -0.7378 0
M  V30 25 H 0.2025 0.1661 0.2503 0
M  V30 26 H 0.4595 -3.2882 -2.3256 0
M  V30 27 H -3.2298 -0.0357 -2.5673 0
M  V30 28 H -4.0452 -1.2726 -1.6216 0
M  V30 29 H -1.7063 -0.9122 1.3741 0
M  V30 30 H -3.0909 -1.8178 0.7936 0
M  V30 31 H 2.9044 -3.292 -2.039 0
M  V30 32 H -3.9641 1.7227 -1.0061 0
M  V30 33 H -5.3386 0.7976 -1.5655 0
M  V30 34 H -3.0026 1.1721 1.4433 0
M  V30 35 H -3.8176 -0.0681 2.3668 0
M  V30 36 H 2.2663 1.1065 1.1944 0
M  V30 37 H -5.3986 -0.504 0.55 0
M  V30 38 H 5.8266 0.9384 2.1197 0
M  V30 39 H 4.264 1.6013 2.5194 0
M  V30 40 H -7.3837 2.3422 1.2597 0
M  V30 41 H -7.3974 0.5984 0.9307 0
M  V30 42 H -6.985 1.7677 -0.3671 0
M  V30 43 H 6.7209 -1.0831 1.238 0
M  V30 44 H 6.7626 -1.6467 -0.4377 0
M  V30 45 H 6.9006 0.0828 -0.1055 0
M  V30 46 H 5.7242 3.3349 1.5177 0
M  V30 47 H 4.322 3.0544 0.4721 0
M  V30 48 H 5.8986 2.3793 0.0358 0
M  V30 END ATOM
M  V30 BEGIN BOND
M  V30 1 2 1 2
M  V30 2 1 2 3
M  V30 3 1 2 4
M  V30 4 2 3 5
M  V30 5 1 3 6
M  V30 6 1 4 7
M  V30 7 1 4 8
M  V30 8 1 5 9
M  V30 9 2 6 10
M  V30 10 1 7 11
M  V30 11 1 8 12
M  V30 12 1 9 13
M  V30 13 2 9 14
M  V30 14 1 11 15
M  V30 15 2 13 16
M  V30 16 1 14 17
M  V30 17 1 15 18
M  V30 18 1 16 19
M  V30 19 1 17 20
M  V30 20 1 18 21
M  V30 21 1 19 22
M  V30 22 1 20 23
M  V30 23 1 10 13
M  V30 24 1 12 15
M  V30 25 2 17 19
M  V30 26 1 4 24
M  V30 27 1 5 25
M  V30 28 1 6 26
M  V30 29 1 7 27
M  V30 30 1 7 28
M  V30 31 1 8 29
M  V30 32 1 8 30
M  V30 33 1 10 31
M  V30 34 1 11 32
M  V30 35 1 11 33
M  V30 36 1 12 34
M  V30 37 1 12 35
M  V30 38 1 14 36
M  V30 39 1 15 37
M  V30 40 1 20 38
M  V30 41 1 20 39
M  V30 42 1 21 40
M  V30 43 1 21 41
M  V30 44 1 21 42
M  V30 45 1 22 43
M  V30 46 1 22 44
M  V30 47 1 22 45
M  V30 48 1 23 46
M  V30 49 1 23 47
M  V30 50 1 23 48
M  V30 END BOND
M  V30 END CTAB
M  END
>  <NO.>
740

>  <Name>
jnj-16567083

>  <SMILES>
CCc1cc2cc(C(=O)C3CCC(OC)CC3)ccc2nc1C

>  <logBB>
0.33

>  <Class>
1

>  <MW>
311.19

>  <nHBAcc>
3

>  <nHBDon>
0

>  <SLogP>
4.49

>  <TopoPSA>
39.19

>  <MMFF94 Energy>
70.316

$$$$
ClCC(Cl)(Cl)Cl
Actelion Java MolfileCreator 2.0

  0  0  0  0  0  0              0 V3000
M  V30 BEGIN CTAB
M  V30 COUNTS 8 7 0 0 0
M  V30 BEGIN ATOM
M  V30 1 Cl -0.9734 1.4604 -1.1682 0
M  V30 2 C 0.1191 0.7029 0.0319 0
M  V30 3 Cl 1.8073 1.1561 -0.4009 0
M  V30 4 Cl -0.2261 1.3748 1.6561 0
M  V30 5 C 0.0035 -0.8272 0.0161 0
M  V30 6 Cl -1.6235 -1.4517 0.4278 0
M  V30 7 H 0.2465 -1.2277 -0.9742 0
M  V30 8 H 0.6983 -1.2794 0.7325 0
M  V30 END ATOM
M  V30 BEGIN BOND
M  V30 1 1 1 2
M  V30 2 1 2 3
M  V30 3 1 2 4
M  V30 4 1 2 5
M  V30 5 1 5 6
M  V30 6 1 5 7
M  V30 7 1 5 8
M  V30 END BOND
M  V30 END CTAB
M  END
>  <NO.>
741

>  <Name>
1.1.1.2-tetrachloroethane

>  <SMILES>
ClCC(Cl)(Cl)Cl

>  <logBB>
0.33

>  <Class>
1

>  <MW>
165.89

>  <nHBAcc>
0

>  <nHBDon>
0

>  <SLogP>
2.6

>  <TopoPSA>
0

>  <MMFF94 Energy>
22.249

$$$$
CCN(CC)CC(=O)Nc1c(C)cccc1C
Actelion Java MolfileCreator 2.0

  0  0  0  0  0  0              0 V3000
M  V30 BEGIN CTAB
M  V30 COUNTS 39 39 0 0 0
M  V30 BEGIN ATOM
M  V30 1 O -1.0876 -0.1553 -1.2431 0
M  V30 2 C -0.5217 -0.4589 -0.1955 0
M  V30 3 N -0.4917 0.3396 0.9413 0
M  V30 4 C 0.1885 -1.8097 0.012 0
M  V30 5 C -1.1481 1.5834 1.0409 0
M  V30 6 N 0.9985 -2.1998 -1.1647 0
M  V30 7 C -0.3781 2.7318 1.3218 0
M  V30 8 C -2.5518 1.6744 0.9427 0
M  V30 9 C 0.9574 -3.6637 -1.3338 0
M  V30 10 C 2.3806 -1.6956 -1.1098 0
M  V30 11 C -1.0207 3.9738 1.4409 0
M  V30 12 C 1.1212 2.6844 1.4277 0
M  V30 13 C -3.161 2.9347 1.0569 0
M  V30 14 C -3.4369 0.4838 0.692 0
M  V30 15 C 1.5441 -4.1504 -2.6557 0
M  V30 16 C 2.512 -0.1822 -0.9852 0
M  V30 17 C -2.4022 4.0751 1.3055 0
M  V30 18 H 0.1452 0.1028 1.6887 0
M  V30 19 H 0.7909 -1.8159 0.9281 0
M  V30 20 H -0.6343 -2.5178 0.1791 0
M  V30 21 H 1.46 -4.1677 -0.4986 0
M  V30 22 H -0.0888 -3.9953 -1.3246 0
M  V30 23 H 2.9299 -2.1681 -0.2855 0
M  V30 24 H 2.9003 -1.9649 -2.0356 0
M  V30 25 H -0.4442 4.877 1.6289 0
M  V30 26 H 1.5599 2.5013 0.4423 0
M  V30 27 H 1.5263 3.6299 1.8049 0
M  V30 28 H 1.4399 1.9027 2.1241 0
M  V30 29 H -4.2399 3.0316 0.9538 0
M  V30 30 H -3.048 -0.4156 1.179 0
M  V30 31 H -3.5391 0.3049 -0.382 0
M  V30 32 H -4.4376 0.6495 1.1069 0
M  V30 33 H 1.3239 -5.2149 -2.7896 0
M  V30 34 H 2.6317 -4.0382 -2.6879 0
M  V30 35 H 1.1102 -3.6102 -3.5036 0
M  V30 36 H 3.5571 0.1127 -1.1284 0
M  V30 37 H 2.2141 0.1643 0.0071 0
M  V30 38 H 1.9142 0.3357 -1.7419 0
M  V30 39 H -2.8886 5.0435 1.3899 0
M  V30 END ATOM
M  V30 BEGIN BOND
M  V30 1 2 1 2
M  V30 2 1 2 3
M  V30 3 1 2 4
M  V30 4 1 3 5
M  V30 5 1 4 6
M  V30 6 2 5 7
M  V30 7 1 5 8
M  V30 8 1 6 9
M  V30 9 1 6 10
M  V30 10 1 7 11
M  V30 11 1 7 12
M  V30 12 2 8 13
M  V30 13 1 8 14
M  V30 14 1 9 15
M  V30 15 1 10 16
M  V30 16 2 11 17
M  V30 17 1 13 17
M  V30 18 1 3 18
M  V30 19 1 4 19
M  V30 20 1 4 20
M  V30 21 1 9 21
M  V30 22 1 9 22
M  V30 23 1 10 23
M  V30 24 1 10 24
M  V30 25 1 11 25
M  V30 26 1 12 26
M  V30 27 1 12 27
M  V30 28 1 12 28
M  V30 29 1 13 29
M  V30 30 1 14 30
M  V30 31 1 14 31
M  V30 32 1 14 32
M  V30 33 1 15 33
M  V30 34 1 15 34
M  V30 35 1 15 35
M  V30 36 1 16 36
M  V30 37 1 16 37
M  V30 38 1 16 38
M  V30 39 1 17 39
M  V30 END BOND
M  V30 END CTAB
M  END
>  <NO.>
742

>  <Name>
lidocaine

>  <SMILES>
CCN(CC)CC(=O)Nc1c(C)cccc1C

>  <logBB>
0.34

>  <Class>
1

>  <MW>
234.17

>  <nHBAcc>
2

>  <nHBDon>
1

>  <SLogP>
2.58

>  <TopoPSA>
32.34

>  <MMFF94 Energy>
60.375

$$$$
FC(F)(F)CC(Cl)Br
Actelion Java MolfileCreator 2.0

  0  0  0  0  0  0              0 V3000
M  V30 BEGIN CTAB
M  V30 COUNTS 11 10 0 0 0
M  V30 BEGIN ATOM
M  V30 1 Br 1.056 0.6159 2.2889 0
M  V30 2 C 1.2639 -0.0094 0.4583 0 CFG=2
M  V30 3 Cl 1.902 1.291 -0.5554 0
M  V30 4 C 0.0076 -0.6709 -0.071 0
M  V30 5 C -1.1463 0.2517 -0.3747 0
M  V30 6 F -1.5301 0.9742 0.6935 0
M  V30 7 F -0.8772 1.0986 -1.3863 0
M  V30 8 F -2.2168 -0.4876 -0.7579 0
M  V30 9 H 2.0549 -0.7625 0.5306 0
M  V30 10 H 0.2577 -1.2108 -0.9931 0
M  V30 11 H -0.3332 -1.4323 0.6416 0
M  V30 END ATOM
M  V30 BEGIN BOND
M  V30 1 1 1 2
M  V30 2 1 2 3
M  V30 3 1 2 4
M  V30 4 1 4 5
M  V30 5 1 5 6
M  V30 6 1 5 7
M  V30 7 1 5 8
M  V30 8 1 2 9
M  V30 9 1 4 10
M  V30 10 1 4 11
M  V30 END BOND
M  V30 BEGIN COLLECTION
M  V30 MDLV30/STERAC1 ATOMS=(1 2)
M  V30 END COLLECTION
M  V30 END CTAB
M  END
>  <NO.>
744

>  <Name>
lin_train_45

>  <SMILES>
FC(F)(F)CC(Cl)Br

>  <logBB>
0.35

>  <Class>
1

>  <MW>
209.91

>  <nHBAcc>
0

>  <nHBDon>
0

>  <SLogP>
2.9

>  <TopoPSA>
0

>  <MMFF94 Energy>
-23.071

$$$$
CN1CC[C@]23c4c5ccc(O)c4O[C@H]2C(=O)CC[C@@]3(O)[C@H]1C5
Actelion Java MolfileCreator 2.0

  0  0  0  0  0  0              0 V3000
M  V30 BEGIN CTAB
M  V30 COUNTS 41 45 0 0 0
M  V30 BEGIN ATOM
M  V30 1 O 3.996 1.059 0.0814 0
M  V30 2 C 3.053 0.2828 -0.0933 0
M  V30 3 C 1.9432 0.5656 -1.1213 0 CFG=2
M  V30 4 C 3.0113 -1.0353 0.6443 0
M  V30 5 O 1.7378 2.0188 -1.1932 0
M  V30 6 C 0.586 -0.0614 -0.7706 0 CFG=2
M  V30 7 C 1.6183 -1.3037 1.2048 0
M  V30 8 C 0.7248 2.2321 -0.2899 0
M  V30 9 C 0.0627 1.0706 0.0401 0
M  V30 10 C 0.5838 -1.3408 0.0748 0 CFG=2
M  V30 11 C -0.3171 -0.2439 -2.0138 0
M  V30 12 C 0.3721 3.4202 0.3014 0
M  V30 13 C -0.9064 0.9997 1.0229 0
M  V30 14 O 0.9545 -2.4581 -0.7596 0
M  V30 15 C -0.8962 -1.5489 0.5562 0 CFG=1
M  V30 16 C -1.7223 -0.7492 -1.6417 0
M  V30 17 O 1.0074 4.5818 -0.0037 0
M  V30 18 C -0.6413 3.4116 1.2612 0
M  V30 19 C -1.2688 2.2019 1.6352 0
M  V30 20 C -1.4254 -0.3554 1.4295 0
M  V30 21 N -1.6808 -1.8637 -0.6804 0
M  V30 22 C -3.03 -2.3447 -0.3847 0
M  V30 23 H 2.3103 0.2192 -2.0942 0
M  V30 24 H 3.7301 -0.9959 1.4703 0
M  V30 25 H 3.3365 -1.8246 -0.041 0
M  V30 26 H 1.3742 -0.5425 1.9538 0
M  V30 27 H 1.6361 -2.2705 1.7227 0
M  V30 28 H -0.4195 0.6921 -2.5782 0
M  V30 29 H 0.1501 -0.9617 -2.7006 0
M  V30 30 H 0.1062 -2.7885 -1.1301 0
M  V30 31 H -0.9224 -2.4577 1.1728 0
M  V30 32 H -2.3285 0.0796 -1.256 0
M  V30 33 H -2.2113 -1.0827 -2.5654 0
M  V30 34 H 1.7278 4.3405 -0.6175 0
M  V30 35 H -0.9257 4.3416 1.7471 0
M  V30 36 H -2.0237 2.2177 2.4182 0
M  V30 37 H -1.0943 -0.5317 2.4615 0
M  V30 38 H -2.5193 -0.3378 1.4535 0
M  V30 39 H -2.9973 -3.1856 0.3163 0
M  V30 40 H -3.6772 -1.5679 0.034 0
M  V30 41 H -3.5045 -2.7202 -1.2983 0
M  V30 END ATOM
M  V30 BEGIN BOND
M  V30 1 2 1 2
M  V30 2 1 2 3
M  V30 3 1 2 4
M  V30 4 1 3 5
M  V30 5 1 3 6
M  V30 6 1 4 7
M  V30 7 1 5 8
M  V30 8 1 6 9
M  V30 9 1 6 10
M  V30 10 1 6 11
M  V30 11 1 8 12
M  V30 12 1 9 13
M  V30 13 1 10 14
M  V30 14 1 10 15
M  V30 15 1 11 16
M  V30 16 1 12 17
M  V30 17 2 12 18
M  V30 18 2 13 19
M  V30 19 1 13 20
M  V30 20 1 15 21
M  V30 21 1 21 22
M  V30 22 1 7 10
M  V30 23 2 8 9
M  V30 24 1 15 20
M  V30 25 1 16 21
M  V30 26 1 18 19
M  V30 27 1 3 23
M  V30 28 1 4 24
M  V30 29 1 4 25
M  V30 30 1 7 26
M  V30 31 1 7 27
M  V30 32 1 11 28
M  V30 33 1 11 29
M  V30 34 1 14 30
M  V30 35 1 15 31
M  V30 36 1 16 32
M  V30 37 1 16 33
M  V30 38 1 17 34
M  V30 39 1 18 35
M  V30 40 1 19 36
M  V30 41 1 20 37
M  V30 42 1 20 38
M  V30 43 1 22 39
M  V30 44 1 22 40
M  V30 45 1 22 41
M  V30 END BOND
M  V30 BEGIN COLLECTION
M  V30 MDLV30/STEABS ATOMS=(4 3 6 10 15)
M  V30 END COLLECTION
M  V30 END CTAB
M  END
>  <NO.>
745

>  <Name>
oxymorphone

>  <SMILES>
CN1CC[C@]23c4c5ccc(O)c4O[C@H]2C(=O)CC[C@@]3(O)[C@H]1C5

>  <logBB>
0.35

>  <Class>
1

>  <MW>
301.13

>  <nHBAcc>
5

>  <nHBDon>
2

>  <SLogP>
0.75

>  <TopoPSA>
70

>  <MMFF94 Energy>
93.511

$$$$
FC(F)(F)CCC(Cl)Br
Actelion Java MolfileCreator 2.0

  0  0  0  0  0  0              0 V3000
M  V30 BEGIN CTAB
M  V30 COUNTS 14 13 0 0 0
M  V30 BEGIN ATOM
M  V30 1 Br -1.1997 -2.4864 0.1713 0
M  V30 2 C 0.0079 -1.4617 -0.9512 0 CFG=2
M  V30 3 Cl 1.6876 -1.7562 -0.4889 0
M  V30 4 C -0.3683 0.019 -1.0 0
M  V30 5 C -0.5817 0.8052 0.3028 0
M  V30 6 C 0.5985 0.8966 1.2439 0
M  V30 7 F 0.8456 -0.2743 1.858 0
M  V30 8 F 1.7116 1.2934 0.5953 0
M  V30 9 F 0.3441 1.8085 2.2112 0
M  V30 10 H -0.1121 -1.89 -1.9512 0
M  V30 11 H -1.3092 0.0992 -1.5627 0
M  V30 12 H 0.3759 0.5512 -1.6074 0
M  V30 13 H -1.4434 0.4057 0.8488 0
M  V30 14 H -0.8625 1.8282 0.0203 0
M  V30 END ATOM
M  V30 BEGIN BOND
M  V30 1 1 1 2
M  V30 2 1 2 3
M  V30 3 1 2 4
M  V30 4 1 4 5
M  V30 5 1 5 6
M  V30 6 1 6 7
M  V30 7 1 6 8
M  V30 8 1 6 9
M  V30 9 1 2 10
M  V30 10 1 4 11
M  V30 11 1 4 12
M  V30 12 1 5 13
M  V30 13 1 5 14
M  V30 END BOND
M  V30 BEGIN COLLECTION
M  V30 MDLV30/STERAC1 ATOMS=(1 2)
M  V30 END COLLECTION
M  V30 END CTAB
M  END
>  <NO.>
746

>  <Name>
4-bromo-4-chloro-1,1,1- trifluoro-butane

>  <SMILES>
FC(F)(F)CCC(Cl)Br

>  <logBB>
0.35

>  <Class>
1

>  <MW>
223.92

>  <nHBAcc>
0

>  <nHBDon>
0

>  <SLogP>
3.29

>  <TopoPSA>
0

>  <MMFF94 Energy>
2.2513

$$$$
CCOC(=O)Nc1cc2c(c(N)n1)N=C(CN(C)c1ccc(OC)cc1)CN2
Actelion Java MolfileCreator 2.0

  0  0  0  0  0  0              0 V3000
M  V30 BEGIN CTAB
M  V30 COUNTS 52 54 0 0 0
M  V30 BEGIN ATOM
M  V30 1 O 4.7284 1.2592 2.2832 0
M  V30 2 C 4.568 2.4663 2.1858 0
M  V30 3 O 5.5543 3.3817 2.388 0
M  V30 4 N 3.4286 3.1317 1.8664 0
M  V30 5 C 6.8247 2.8174 2.7355 0
M  V30 6 C 2.1656 2.6246 1.5744 0
M  V30 7 C 7.81 3.9536 2.9283 0
M  V30 8 N 1.2704 3.5792 1.2466 0
M  V30 9 C 1.8454 1.2749 1.6214 0
M  V30 10 C 0.0124 3.1892 0.9585 0
M  V30 11 C 0.5492 0.8701 1.3006 0
M  V30 12 N -0.8933 4.2007 0.6912 0
M  V30 13 C -0.4057 1.847 0.976 0
M  V30 14 N 0.2048 -0.4777 1.3567 0
M  V30 15 N -1.7579 1.5161 0.6977 0
M  V30 16 C -1.0392 -0.8835 0.7209 0
M  V30 17 C -2.0557 0.2483 0.6229 0
M  V30 18 C -3.5005 -0.1503 0.3509 0
M  V30 19 N -3.6759 -0.5245 -1.0612 0
M  V30 20 C -3.4699 -1.8282 -1.4914 0
M  V30 21 C -3.6818 0.58 -2.0185 0
M  V30 22 C -3.8251 -2.9312 -0.7019 0
M  V30 23 C -2.905 -2.1208 -2.7433 0
M  V30 24 C -3.6037 -4.2484 -1.1263 0
M  V30 25 C -2.6784 -3.4373 -3.1761 0
M  V30 26 C -3.0252 -4.5098 -2.3641 0
M  V30 27 O -2.8605 -5.8337 -2.6565 0
M  V30 28 C -2.2943 -6.1453 -3.9231 0
M  V30 29 H 3.4925 4.1371 1.8213 0
M  V30 30 H 7.1708 2.1609 1.9295 0
M  V30 31 H 6.7336 2.2456 3.6658 0
M  V30 32 H 8.7988 3.5713 3.196 0
M  V30 33 H 7.8964 4.5483 2.013 0
M  V30 34 H 7.4673 4.6314 3.7171 0
M  V30 35 H 2.5782 0.5281 1.8985 0
M  V30 36 H -0.5374 5.1417 0.6629 0
M  V30 37 H -1.7603 3.935 0.2465 0
M  V30 38 H 0.9232 -1.1727 1.5147 0
M  V30 39 H -0.8227 -1.2344 -0.2931 0
M  V30 40 H -1.4756 -1.7126 1.2861 0
M  V30 41 H -4.1481 0.7038 0.5851 0
M  V30 42 H -3.7852 -0.9384 1.0531 0
M  V30 43 H -4.3106 0.3486 -2.8854 0
M  V30 44 H -2.6661 0.8086 -2.3586 0
M  V30 45 H -4.0942 1.4891 -1.5666 0
M  V30 46 H -4.3225 -2.7973 0.2538 0
M  V30 47 H -2.6024 -1.3209 -3.4138 0
M  V30 48 H -3.8998 -5.075 -0.4851 0
M  V30 49 H -2.2281 -3.5793 -4.1525 0
M  V30 50 H -2.9279 -5.7824 -4.7391 0
M  V30 51 H -2.2377 -7.235 -4.0049 0
M  V30 52 H -1.276 -5.7517 -4.0075 0
M  V30 END ATOM
M  V30 BEGIN BOND
M  V30 1 2 1 2
M  V30 2 1 2 3
M  V30 3 1 2 4
M  V30 4 1 3 5
M  V30 5 1 4 6
M  V30 6 1 5 7
M  V30 7 2 6 8
M  V30 8 1 6 9
M  V30 9 1 8 10
M  V30 10 2 9 11
M  V30 11 1 10 12
M  V30 12 2 10 13
M  V30 13 1 11 14
M  V30 14 1 13 15
M  V30 15 1 14 16
M  V30 16 2 15 17
M  V30 17 1 17 18
M  V30 18 1 18 19
M  V30 19 1 19 20
M  V30 20 1 19 21
M  V30 21 2 20 22
M  V30 22 1 20 23
M  V30 23 1 22 24
M  V30 24 2 23 25
M  V30 25 2 24 26
M  V30 26 1 26 27
M  V30 27 1 27 28
M  V30 28 1 11 13
M  V30 29 1 16 17
M  V30 30 1 25 26
M  V30 31 1 4 29
M  V30 32 1 5 30
M  V30 33 1 5 31
M  V30 34 1 7 32
M  V30 35 1 7 33
M  V30 36 1 7 34
M  V30 37 1 9 35
M  V30 38 1 12 36
M  V30 39 1 12 37
M  V30 40 1 14 38
M  V30 41 1 16 39
M  V30 42 1 16 40
M  V30 43 1 18 41
M  V30 44 1 18 42
M  V30 45 1 21 43
M  V30 46 1 21 44
M  V30 47 1 21 45
M  V30 48 1 22 46
M  V30 49 1 23 47
M  V30 50 1 24 48
M  V30 51 1 25 49
M  V30 52 1 28 50
M  V30 53 1 28 51
M  V30 54 1 28 52
M  V30 END BOND
M  V30 END CTAB
M  END
>  <NO.>
749

>  <Name>
nsc 269416

>  <SMILES>
CCOC(=O)Nc1cc2c(c(N)n1)N=C(CN(C)c1ccc(OC)cc1)CN2

>  <logBB>
0.36

>  <Class>
1

>  <MW>
384.19

>  <nHBAcc>
8

>  <nHBDon>
3

>  <SLogP>
2.88

>  <TopoPSA>
114.1

>  <MMFF94 Energy>
29.3

$$$$
COC(C)(C)C
Actelion Java MolfileCreator 2.0

  0  0  0  0  0  0              0 V3000
M  V30 BEGIN CTAB
M  V30 COUNTS 18 17 0 0 0
M  V30 BEGIN ATOM
M  V30 1 O 0.6817 -0.6817 0.8332 0
M  V30 2 C 0.0527 0.3607 0.0724 0
M  V30 3 C 0.2615 -2.012 0.5723 0
M  V30 4 C 0.3303 0.2092 -1.428 0
M  V30 5 C 0.7002 1.6627 0.5659 0
M  V30 6 C -1.4551 0.4255 0.3442 0
M  V30 7 H 0.472 -2.3015 -0.4599 0
M  V30 8 H 0.8313 -2.6772 1.2277 0
M  V30 9 H -0.7983 -2.1476 0.801 0
M  V30 10 H -0.1865 -0.6605 -1.8469 0
M  V30 11 H -0.0038 1.0897 -1.9875 0
M  V30 12 H 1.4002 0.063 -1.6137 0
M  V30 13 H 1.7853 1.641 0.4112 0
M  V30 14 H 0.2953 2.5404 0.051 0
M  V30 15 H 0.5438 1.7914 1.6435 0
M  V30 16 H -1.9764 -0.4437 -0.0703 0
M  V30 17 H -1.6573 0.4334 1.4212 0
M  V30 18 H -1.9039 1.3199 -0.1015 0
M  V30 END ATOM
M  V30 BEGIN BOND
M  V30 1 1 1 2
M  V30 2 1 1 3
M  V30 3 1 2 4
M  V30 4 1 2 5
M  V30 5 1 2 6
M  V30 6 1 3 7
M  V30 7 1 3 8
M  V30 8 1 3 9
M  V30 9 1 4 10
M  V30 10 1 4 11
M  V30 11 1 4 12
M  V30 12 1 5 13
M  V30 13 1 5 14
M  V30 14 1 5 15
M  V30 15 1 6 16
M  V30 16 1 6 17
M  V30 17 1 6 18
M  V30 END BOND
M  V30 END CTAB
M  END
>  <NO.>
750

>  <Name>
tert-butylmethylether

>  <SMILES>
COC(C)(C)C

>  <logBB>
0.36

>  <Class>
1

>  <MW>
88.09

>  <nHBAcc>
1

>  <nHBDon>
0

>  <SLogP>
1.43

>  <TopoPSA>
9.23

>  <MMFF94 Energy>
16.978

$$$$
COc1ccc(-c2nccs2)cc1CNC1CCCNC1c1ccccc1
Actelion Java MolfileCreator 2.0

  0  0  0  0  0  0              0 V3000
M  V30 BEGIN CTAB
M  V30 COUNTS 52 55 0 0 0
M  V30 BEGIN ATOM
M  V30 1 S -5.2434 -1.6917 -1.9336 0
M  V30 2 C -3.7546 -1.2595 -1.1661 0
M  V30 3 C -6.1219 -1.0249 -0.6268 0
M  V30 4 N -3.9099 -0.6509 -0.0026 0
M  V30 5 C -2.4398 -1.558 -1.7757 0
M  V30 6 C -5.2474 -0.5186 0.3055 0
M  V30 7 C -1.2713 -1.2575 -1.0566 0
M  V30 8 C -2.2831 -2.1128 -3.0521 0
M  V30 9 C 0.0212 -1.4837 -1.5813 0
M  V30 10 C -1.0108 -2.3723 -3.5808 0
M  V30 11 C 0.1432 -2.071 -2.8525 0
M  V30 12 C 1.248 -1.1636 -0.7438 0
M  V30 13 O 1.4195 -2.3137 -3.2884 0
M  V30 14 N 1.0616 0.038 0.059 0
M  V30 15 C 1.5766 -2.9 -4.5738 0
M  V30 16 C 2.0892 0.2864 1.0851 0
M  V30 17 C 1.7386 1.5687 1.9274 0
M  V30 18 C 3.4908 0.5137 0.48 0
M  V30 19 N 1.734 2.7759 1.0654 0
M  V30 20 C 0.4436 1.4353 2.7199 0
M  V30 21 C 3.5584 1.8152 -0.3223 0
M  V30 22 C 3.0594 3.0097 0.4924 0
M  V30 23 C 0.4896 1.1277 4.0899 0
M  V30 24 C -0.8139 1.5876 2.1151 0
M  V30 25 C -0.6865 0.98 4.8296 0
M  V30 26 C -1.989 1.4306 2.852 0
M  V30 27 C -1.9252 1.1298 4.21 0
M  V30 28 H -7.2016 -1.0349 -0.602 0
M  V30 29 H -5.531 -0.0394 1.2344 0
M  V30 30 H -1.3633 -0.8322 -0.0553 0
M  V30 31 H -3.1432 -2.3623 -3.6679 0
M  V30 32 H -0.9622 -2.8151 -4.5702 0
M  V30 33 H 2.1139 -1.0204 -1.3969 0
M  V30 34 H 1.4418 -2.0304 -0.1008 0
M  V30 35 H 0.9631 0.8643 -0.5309 0
M  V30 36 H 1.1217 -3.8952 -4.6123 0
M  V30 37 H 2.6488 -3.018 -4.7578 0
M  V30 38 H 1.1751 -2.2485 -5.3569 0
M  V30 39 H 2.125 -0.5765 1.7621 0
M  V30 40 H 2.5389 1.7098 2.6691 0
M  V30 41 H 4.2221 0.5661 1.2975 0
M  V30 42 H 3.804 -0.3294 -0.1442 0
M  V30 43 H 1.463 3.5732 1.6404 0
M  V30 44 H 2.9647 1.7193 -1.2395 0
M  V30 45 H 4.5926 1.9956 -0.6372 0
M  V30 46 H 3.0136 3.891 -0.1566 0
M  V30 47 H 3.7754 3.2421 1.2904 0
M  V30 48 H 1.4445 0.9946 4.5925 0
M  V30 49 H -0.884 1.8105 1.0522 0
M  V30 50 H -0.6356 0.7391 5.8879 0
M  V30 51 H -2.9507 1.5304 2.3556 0
M  V30 52 H -2.8403 1.0034 4.7813 0
M  V30 END ATOM
M  V30 BEGIN BOND
M  V30 1 1 1 2
M  V30 2 1 1 3
M  V30 3 2 2 4
M  V30 4 1 2 5
M  V30 5 2 3 6
M  V30 6 2 5 7
M  V30 7 1 5 8
M  V30 8 1 7 9
M  V30 9 2 8 10
M  V30 10 2 9 11
M  V30 11 1 9 12
M  V30 12 1 11 13
M  V30 13 1 12 14
M  V30 14 1 13 15
M  V30 15 1 14 16
M  V30 16 1 16 17
M  V30 17 1 16 18
M  V30 18 1 17 19
M  V30 19 1 17 20
M  V30 20 1 18 21
M  V30 21 1 19 22
M  V30 22 2 20 23
M  V30 23 1 20 24
M  V30 24 1 23 25
M  V30 25 2 24 26
M  V30 26 2 25 27
M  V30 27 1 4 6
M  V30 28 1 10 11
M  V30 29 1 21 22
M  V30 30 1 26 27
M  V30 31 1 3 28
M  V30 32 1 6 29
M  V30 33 1 7 30
M  V30 34 1 8 31
M  V30 35 1 10 32
M  V30 36 1 12 33
M  V30 37 1 12 34
M  V30 38 1 14 35
M  V30 39 1 15 36
M  V30 40 1 15 37
M  V30 41 1 15 38
M  V30 42 1 16 39
M  V30 43 1 17 40
M  V30 44 1 18 41
M  V30 45 1 18 42
M  V30 46 1 19 43
M  V30 47 1 21 44
M  V30 48 1 21 45
M  V30 49 1 22 46
M  V30 50 1 22 47
M  V30 51 1 23 48
M  V30 52 1 24 49
M  V30 53 1 25 50
M  V30 54 1 26 51
M  V30 55 1 27 52
M  V30 END BOND
M  V30 END CTAB
M  END
>  <NO.>
751

>  <Name>
161499-49-6

>  <SMILES>
COc1ccc(-c2nccs2)cc1CNC1CCCNC1c1ccccc1

>  <logBB>
0.36

>  <Class>
1

>  <MW>
379.17

>  <nHBAcc>
5

>  <nHBDon>
2

>  <SLogP>
4.4

>  <TopoPSA>
46.18

>  <MMFF94 Energy>
93.184

$$$$
Cc1ccc(Cn2c([C@H]3CNCCO3)nc3ccccc32)cc1
Actelion Java MolfileCreator 2.0

  0  0  0  0  0  0              0 V3000
M  V30 BEGIN CTAB
M  V30 COUNTS 44 47 0 0 0
M  V30 BEGIN ATOM
M  V30 1 O 1.1971 -1.6763 1.1971 0
M  V30 2 C 1.218 -0.6535 2.2116 0 CFG=1
M  V30 3 C 2.182 -2.6796 1.4779 0
M  V30 4 C 0.1544 0.3463 1.8501 0
M  V30 5 C 0.9739 -1.2766 3.6077 0
M  V30 6 C 1.9435 -3.3327 2.8467 0
M  V30 7 N -0.8558 0.7057 2.624 0
M  V30 8 N 0.1235 1.0509 0.6592 0
M  V30 9 N 1.9579 -2.3367 3.9302 0
M  V30 10 C -1.5488 1.661 1.9292 0
M  V30 11 C -0.9559 1.9102 0.6975 0
M  V30 12 C 1.1017 0.9831 -0.4201 0
M  V30 13 C -2.7003 2.3709 2.3007 0
M  V30 14 C -1.464 2.855 -0.2039 0
M  V30 15 C 0.5397 0.4432 -1.7149 0
M  V30 16 C -3.2248 3.3184 1.414 0
M  V30 17 C -2.6139 3.554 0.1819 0
M  V30 18 C 0.8203 1.099 -2.9231 0
M  V30 19 C -0.22 -0.7339 -1.755 0
M  V30 20 C 0.3336 0.6031 -4.1355 0
M  V30 21 C -0.707 -1.2287 -2.9675 0
M  V30 22 C -0.4255 -0.5703 -4.1684 0
M  V30 23 C -0.9793 -1.0835 -5.4641 0
M  V30 24 H 2.196 -0.1546 2.1954 0
M  V30 25 H 3.1806 -2.2303 1.4195 0
M  V30 26 H 2.1128 -3.4368 0.6904 0
M  V30 27 H -0.0319 -1.7146 3.6572 0
M  V30 28 H 1.0297 -0.5013 4.3804 0
M  V30 29 H 0.9745 -3.8466 2.8452 0
M  V30 30 H 2.7184 -4.082 3.0374 0
M  V30 31 H 1.6765 -2.7846 4.8026 0
M  V30 32 H 1.4709 2.0081 -0.5519 0
M  V30 33 H 1.957 0.3771 -0.1109 0
M  V30 34 H -3.1675 2.1813 3.2603 0
M  V30 35 H -1.0025 3.0363 -1.1682 0
M  V30 36 H -4.1182 3.8729 1.69 0
M  V30 37 H -3.0411 4.291 -0.4948 0
M  V30 38 H 1.4172 2.0085 -2.9323 0
M  V30 39 H -0.4495 -1.2769 -0.8395 0
M  V30 40 H 0.5535 1.1391 -5.0561 0
M  V30 41 H -1.3084 -2.1351 -2.9645 0
M  V30 42 H -1.0747 -2.1742 -5.4435 0
M  V30 43 H -1.9649 -0.6454 -5.6493 0
M  V30 44 H -0.3172 -0.8315 -6.299 0
M  V30 END ATOM
M  V30 BEGIN BOND
M  V30 1 1 1 2
M  V30 2 1 1 3
M  V30 3 1 2 4
M  V30 4 1 2 5
M  V30 5 1 3 6
M  V30 6 2 4 7
M  V30 7 1 4 8
M  V30 8 1 5 9
M  V30 9 1 7 10
M  V30 10 1 8 11
M  V30 11 1 8 12
M  V30 12 1 10 13
M  V30 13 1 11 14
M  V30 14 1 12 15
M  V30 15 2 13 16
M  V30 16 2 14 17
M  V30 17 2 15 18
M  V30 18 1 15 19
M  V30 19 1 18 20
M  V30 20 2 19 21
M  V30 21 2 20 22
M  V30 22 1 22 23
M  V30 23 1 6 9
M  V30 24 2 10 11
M  V30 25 1 16 17
M  V30 26 1 21 22
M  V30 27 1 2 24
M  V30 28 1 3 25
M  V30 29 1 3 26
M  V30 30 1 5 27
M  V30 31 1 5 28
M  V30 32 1 6 29
M  V30 33 1 6 30
M  V30 34 1 9 31
M  V30 35 1 12 32
M  V30 36 1 12 33
M  V30 37 1 13 34
M  V30 38 1 14 35
M  V30 39 1 16 36
M  V30 40 1 17 37
M  V30 41 1 18 38
M  V30 42 1 19 39
M  V30 43 1 20 40
M  V30 44 1 21 41
M  V30 45 1 23 42
M  V30 46 1 23 43
M  V30 47 1 23 44
M  V30 END BOND
M  V30 BEGIN COLLECTION
M  V30 MDLV30/STEABS ATOMS=(1 2)
M  V30 END COLLECTION
M  V30 END CTAB
M  END
>  <NO.>
752

>  <Name>
chembl1935441

>  <SMILES>
Cc1ccc(Cn2c([C@H]3CNCCO3)nc3ccccc32)cc1

>  <logBB>
0.36

>  <Class>
1

>  <MW>
307.17

>  <nHBAcc>
3

>  <nHBDon>
1

>  <SLogP>
3.05

>  <TopoPSA>
39.08

>  <MMFF94 Energy>
122.75

$$$$
Cc1nc2c(c(-n3ccc(C(F)(F)F)n3)n1)CCN2c1ccc(Cl)cc1Cl
Actelion Java MolfileCreator 2.0

  0  0  0  0  0  0              0 V3000
M  V30 BEGIN CTAB
M  V30 COUNTS 39 42 0 0 0
M  V30 BEGIN ATOM
M  V30 1 Cl 2.5761 4.0741 -0.6643 0
M  V30 2 C 0.8684 4.1518 -0.9561 0
M  V30 3 C -0.0093 3.0521 -0.8046 0
M  V30 4 C 0.3963 5.4284 -1.3096 0
M  V30 5 N 0.364 1.7453 -0.481 0
M  V30 6 C -1.3795 3.327 -1.019 0
M  V30 7 C -0.9592 5.6429 -1.5151 0
M  V30 8 C -0.3681 0.7192 0.1965 0
M  V30 9 C 1.6716 1.1429 -0.7647 0
M  V30 10 C -1.8536 4.5962 -1.3691 0
M  V30 11 Cl -1.5279 7.2068 -1.9463 0
M  V30 12 N -1.5255 0.9011 0.8418 0
M  V30 13 C 0.2692 -0.504 0.1219 0
M  V30 14 C 1.504 -0.3827 -0.6918 0
M  V30 15 C -2.0583 -0.1834 1.4252 0
M  V30 16 C -0.3488 -1.5701 0.7275 0
M  V30 17 N -1.5157 -1.416 1.4024 0
M  V30 18 C -3.3301 0.0 2.1926 0
M  V30 19 N 0.2009 -2.8863 0.6654 0
M  V30 20 N 1.3094 -3.1959 -0.0575 0
M  V30 21 C -0.3083 -4.0013 1.2974 0
M  V30 22 C 1.5007 -4.5178 0.1272 0
M  V30 23 C 0.5025 -5.0594 0.9742 0
M  V30 24 C 2.6408 -5.2697 -0.509 0
M  V30 25 F 2.578 -5.2507 -1.8667 0
M  V30 26 F 3.8533 -4.7642 -0.1594 0
M  V30 27 F 2.6503 -6.581 -0.1422 0
M  V30 28 H 1.0922 6.2574 -1.4127 0
M  V30 29 H -2.1137 2.5277 -0.935 0
M  V30 30 H 2.0589 1.4259 -1.7501 0
M  V30 31 H 2.3943 1.4436 0.0039 0
M  V30 32 H -2.9183 4.7473 -1.5257 0
M  V30 33 H 2.3839 -0.8343 -0.2258 0
M  V30 34 H 1.3466 -0.8029 -1.6907 0
M  V30 35 H -3.9365 0.7953 1.7484 0
M  V30 36 H -3.1001 0.2675 3.2279 0
M  V30 37 H -3.9191 -0.9221 2.1887 0
M  V30 38 H -1.1948 -3.9322 1.9134 0
M  V30 39 H 0.3949 -6.0859 1.2995 0
M  V30 END ATOM
M  V30 BEGIN BOND
M  V30 1 1 1 2
M  V30 2 2 2 3
M  V30 3 1 2 4
M  V30 4 1 3 5
M  V30 5 1 3 6
M  V30 6 2 4 7
M  V30 7 1 5 8
M  V30 8 1 5 9
M  V30 9 2 6 10
M  V30 10 1 7 11
M  V30 11 2 8 12
M  V30 12 1 8 13
M  V30 13 1 9 14
M  V30 14 1 12 15
M  V30 15 2 13 16
M  V30 16 2 15 17
M  V30 17 1 15 18
M  V30 18 1 16 19
M  V30 19 1 19 20
M  V30 20 1 19 21
M  V30 21 2 20 22
M  V30 22 2 21 23
M  V30 23 1 22 24
M  V30 24 1 24 25
M  V30 25 1 24 26
M  V30 26 1 24 27
M  V30 27 1 7 10
M  V30 28 1 13 14
M  V30 29 1 16 17
M  V30 30 1 22 23
M  V30 31 1 4 28
M  V30 32 1 6 29
M  V30 33 1 9 30
M  V30 34 1 9 31
M  V30 35 1 10 32
M  V30 36 1 14 33
M  V30 37 1 14 34
M  V30 38 1 18 35
M  V30 39 1 18 36
M  V30 40 1 18 37
M  V30 41 1 21 38
M  V30 42 1 23 39
M  V30 END BOND
M  V30 END CTAB
M  END
>  <NO.>
753

>  <Name>
compound-4fi

>  <SMILES>
Cc1nc2c(c(-n3ccc(C(F)(F)F)n3)n1)CCN2c1ccc(Cl)cc1Cl

>  <logBB>
0.36

>  <Class>
1

>  <MW>
413.04

>  <nHBAcc>
4

>  <nHBDon>
0

>  <SLogP>
4.99

>  <TopoPSA>
46.84

>  <MMFF94 Energy>
96.896

$$$$
O=c1[nH]c(C2=CC(N3CCC(c4ccccc4)CC3)CC2)nc2c(Cl)cccc12
Actelion Java MolfileCreator 2.0

  0  0  0  0  0  0              0 V3000
M  V30 BEGIN CTAB
M  V30 COUNTS 53 57 0 0 0
M  V30 BEGIN ATOM
M  V30 1 Cl -3.8871 -4.3738 -1.8611 0
M  V30 2 C -2.8057 -4.5256 -3.2031 0
M  V30 3 C -1.9133 -3.4949 -3.5381 0
M  V30 4 C -2.8495 -5.7125 -3.9464 0
M  V30 5 N -1.8713 -2.3005 -2.7895 0
M  V30 6 C -1.0733 -3.698 -4.6375 0
M  V30 7 C -2.0006 -5.8896 -5.0388 0
M  V30 8 C -1.0337 -1.3748 -3.1267 0
M  V30 9 C -0.1367 -2.6183 -4.9871 0
M  V30 10 C -1.1078 -4.88 -5.3881 0
M  V30 11 N -0.1818 -1.5059 -4.1892 0
M  V30 12 C -0.9323 -0.0961 -2.3949 0
M  V30 13 O 0.6364 -2.7078 -5.9333 0
M  V30 14 C -1.545 0.1185 -1.2224 0
M  V30 15 C -0.152 1.099 -2.8171 0
M  V30 16 C -1.2692 1.4854 -0.657 0 CFG=2
M  V30 17 C -0.7591 2.1902 -1.9356 0
M  V30 18 N -0.2779 1.4751 0.4402 0
M  V30 19 C -0.1065 2.8331 0.9985 0
M  V30 20 C -0.6631 0.5465 1.5237 0
M  V30 21 C 0.9707 2.8706 2.0839 0
M  V30 22 C 0.3875 0.5 2.636 0
M  V30 23 C 0.6365 1.8951 3.2165 0
M  V30 24 C 1.6976 1.889 4.3018 0
M  V30 25 C 1.3635 2.2829 5.6065 0
M  V30 26 C 3.0193 1.4979 4.0391 0
M  V30 27 C 2.3245 2.2852 6.6197 0
M  V30 28 C 3.9794 1.5006 5.053 0
M  V30 29 C 3.632 1.8942 6.3428 0
M  V30 30 H -3.5461 -6.5021 -3.6745 0
M  V30 31 H -2.0356 -6.8116 -5.6144 0
M  V30 32 H -0.4416 -5.0102 -6.2383 0
M  V30 33 H 0.4753 -0.7808 -4.4315 0
M  V30 34 H -2.1658 -0.6129 -0.7207 0
M  V30 35 H -0.2848 1.344 -3.8749 0
M  V30 36 H 0.9137 0.9603 -2.6073 0
M  V30 37 H -2.2091 1.9465 -0.3277 0
M  V30 38 H -0.043 2.9986 -1.7681 0
M  V30 39 H -1.6146 2.645 -2.4558 0
M  V30 40 H -1.0552 3.2039 1.4093 0
M  V30 41 H 0.2013 3.5414 0.2238 0
M  V30 42 H -1.6382 0.8251 1.9448 0
M  V30 43 H -0.7526 -0.4767 1.1434 0
M  V30 44 H 1.0538 3.8907 2.4794 0
M  V30 45 H 1.942 2.631 1.6323 0
M  V30 46 H 1.3144 0.0729 2.2317 0
M  V30 47 H 0.0501 -0.1813 3.427 0
M  V30 48 H -0.308 2.232 3.6677 0
M  V30 49 H 0.3486 2.5917 5.8465 0
M  V30 50 H 3.3139 1.1858 3.0398 0
M  V30 51 H 2.0511 2.5922 7.6257 0
M  V30 52 H 4.9988 1.1942 4.8342 0
M  V30 53 H 4.3795 1.8955 7.1314 0
M  V30 END ATOM
M  V30 BEGIN BOND
M  V30 1 1 1 2
M  V30 2 2 2 3
M  V30 3 1 2 4
M  V30 4 1 3 5
M  V30 5 1 3 6
M  V30 6 2 4 7
M  V30 7 2 5 8
M  V30 8 1 6 9
M  V30 9 2 6 10
M  V30 10 1 8 11
M  V30 11 1 8 12
M  V30 12 2 9 13
M  V30 13 2 12 14
M  V30 14 1 12 15
M  V30 15 1 14 16
M  V30 16 1 15 17
M  V30 17 1 16 18
M  V30 18 1 18 19
M  V30 19 1 18 20
M  V30 20 1 19 21
M  V30 21 1 20 22
M  V30 22 1 21 23
M  V30 23 1 23 24
M  V30 24 2 24 25
M  V30 25 1 24 26
M  V30 26 1 25 27
M  V30 27 2 26 28
M  V30 28 2 27 29
M  V30 29 1 7 10
M  V30 30 1 9 11
M  V30 31 1 16 17
M  V30 32 1 22 23
M  V30 33 1 28 29
M  V30 34 1 4 30
M  V30 35 1 7 31
M  V30 36 1 10 32
M  V30 37 1 11 33
M  V30 38 1 14 34
M  V30 39 1 15 35
M  V30 40 1 15 36
M  V30 41 1 16 37
M  V30 42 1 17 38
M  V30 43 1 17 39
M  V30 44 1 19 40
M  V30 45 1 19 41
M  V30 46 1 20 42
M  V30 47 1 20 43
M  V30 48 1 21 44
M  V30 49 1 21 45
M  V30 50 1 22 46
M  V30 51 1 22 47
M  V30 52 1 23 48
M  V30 53 1 25 49
M  V30 54 1 26 50
M  V30 55 1 27 51
M  V30 56 1 28 52
M  V30 57 1 29 53
M  V30 END BOND
M  V30 BEGIN COLLECTION
M  V30 MDLV30/STERAC1 ATOMS=(1 16)
M  V30 END COLLECTION
M  V30 END CTAB
M  END
>  <NO.>
754

>  <Name>
compound-s16d

>  <SMILES>
O=c1[nH]c(C2=CC(N3CCC(c4ccccc4)CC3)CC2)nc2c(Cl)cccc12

>  <logBB>
0.36

>  <Class>
1

>  <MW>
405.16

>  <nHBAcc>
3

>  <nHBDon>
1

>  <SLogP>
5

>  <TopoPSA>
48.99

>  <MMFF94 Energy>
3.9477

$$$$
CNC(=O)c1c(NCC2CCC3(CCC3)CC2)nc(C#N)nc1OCC1CCN(C)CC1
Actelion Java MolfileCreator 2.0

  0  0  0  0  0  0              0 V3000
M  V30 BEGIN CTAB
M  V30 COUNTS 68 71 0 0 0
M  V30 BEGIN ATOM
M  V30 1 O -0.2383 -0.9537 -1.1127 0
M  V30 2 C 0.8979 -0.6107 -0.7954 0
M  V30 3 N 1.9873 -0.81 -1.6097 0
M  V30 4 C 1.1296 0.0793 0.4966 0
M  V30 5 C 1.8697 -1.4697 -2.8854 0
M  V30 6 C 2.2732 -0.0773 1.2665 0
M  V30 7 C 0.1425 0.9141 1.0285 0
M  V30 8 O 3.2874 -0.914 0.8227 0
M  V30 9 N 2.4705 0.5568 2.4402 0
M  V30 10 N 0.3203 1.5599 2.2 0
M  V30 11 N -1.0289 1.1775 0.3351 0
M  V30 12 C 4.2246 -1.2564 1.8499 0
M  V30 13 C 1.4727 1.3517 2.8506 0
M  V30 14 C -2.0415 2.0635 0.8752 0
M  V30 15 C 5.2699 -2.2991 1.402 0
M  V30 16 C 1.6554 2.0419 4.0999 0
M  V30 17 C -3.2282 2.1898 -0.0978 0
M  V30 18 C 4.6511 -3.6194 0.924 0
M  V30 19 C 6.2589 -1.7579 0.3607 0
M  V30 20 N 1.8133 2.5947 5.1117 0
M  V30 21 C -4.0591 0.894 -0.153 0
M  V30 22 C -4.1228 3.3714 0.3164 0
M  V30 23 C 4.1823 -3.5904 -0.5314 0
M  V30 24 C 5.7258 -1.7923 -1.0701 0
M  V30 25 C -5.2737 1.0366 -1.0705 0
M  V30 26 C -5.3269 3.5204 -0.611 0
M  V30 27 N 5.1794 -3.0878 -1.4831 0
M  V30 28 C -6.1417 2.2249 -0.6336 0
M  V30 29 C 6.2306 -4.0703 -1.7433 0
M  V30 30 C -7.4695 2.3526 -1.442 0
M  V30 31 C -7.0401 1.9828 0.6216 0
M  V30 32 C -8.1719 1.5528 -0.3294 0
M  V30 33 H 2.913 -0.5709 -1.2786 0
M  V30 34 H 1.0664 -1.0089 -3.4664 0
M  V30 35 H 1.6389 -2.525 -2.7184 0
M  V30 36 H 2.8188 -1.375 -3.4176 0
M  V30 37 H -1.3048 0.4643 -0.3437 0
M  V30 38 H 3.684 -1.6746 2.7102 0
M  V30 39 H 4.759 -0.3546 2.1766 0
M  V30 40 H -1.6002 3.056 1.0304 0
M  V30 41 H -2.3925 1.697 1.8479 0
M  V30 42 H 5.8541 -2.5232 2.3058 0
M  V30 43 H -2.8376 2.3928 -1.1047 0
M  V30 44 H 3.8137 -3.902 1.5733 0
M  V30 45 H 5.4005 -4.4136 1.0364 0
M  V30 46 H 6.5569 -0.7339 0.6159 0
M  V30 47 H 7.1768 -2.3579 0.41 0
M  V30 48 H -3.4458 0.061 -0.5139 0
M  V30 49 H -4.3912 0.6264 0.8577 0
M  V30 50 H -3.5425 4.3017 0.2986 0
M  V30 51 H -4.468 3.2302 1.3486 0
M  V30 52 H 3.8545 -4.5952 -0.827 0
M  V30 53 H 3.2823 -2.9752 -0.608 0
M  V30 54 H 4.95 -1.0299 -1.183 0
M  V30 55 H 6.52 -1.4826 -1.7612 0
M  V30 56 H -4.9338 1.1848 -2.1032 0
M  V30 57 H -5.8448 0.101 -1.0582 0
M  V30 58 H -5.9406 4.3643 -0.2737 0
M  V30 59 H -4.9828 3.7647 -1.6238 0
M  V30 60 H 5.7977 -4.9988 -2.1322 0
M  V30 61 H 6.9149 -3.7022 -2.5158 0
M  V30 62 H 6.821 -4.3166 -0.8552 0
M  V30 63 H -7.4834 1.8881 -2.4321 0
M  V30 64 H -7.848 3.3778 -1.5365 0
M  V30 65 H -7.2783 2.8901 1.19 0
M  V30 66 H -6.7074 1.214 1.3241 0
M  V30 67 H -9.1734 1.8971 -0.0592 0
M  V30 68 H -8.2081 0.4736 -0.5152 0
M  V30 END ATOM
M  V30 BEGIN BOND
M  V30 1 2 1 2
M  V30 2 1 2 3
M  V30 3 1 2 4
M  V30 4 1 3 5
M  V30 5 2 4 6
M  V30 6 1 4 7
M  V30 7 1 6 8
M  V30 8 1 6 9
M  V30 9 2 7 10
M  V30 10 1 7 11
M  V30 11 1 8 12
M  V30 12 2 9 13
M  V30 13 1 11 14
M  V30 14 1 12 15
M  V30 15 1 13 16
M  V30 16 1 14 17
M  V30 17 1 15 18
M  V30 18 1 15 19
M  V30 19 3 16 20
M  V30 20 1 17 21
M  V30 21 1 17 22
M  V30 22 1 18 23
M  V30 23 1 19 24
M  V30 24 1 21 25
M  V30 25 1 22 26
M  V30 26 1 23 27
M  V30 27 1 25 28
M  V30 28 1 27 29
M  V30 29 1 28 30
M  V30 30 1 28 31
M  V30 31 1 30 32
M  V30 32 1 10 13
M  V30 33 1 24 27
M  V30 34 1 26 28
M  V30 35 1 31 32
M  V30 36 1 3 33
M  V30 37 1 5 34
M  V30 38 1 5 35
M  V30 39 1 5 36
M  V30 40 1 11 37
M  V30 41 1 12 38
M  V30 42 1 12 39
M  V30 43 1 14 40
M  V30 44 1 14 41
M  V30 45 1 15 42
M  V30 46 1 17 43
M  V30 47 1 18 44
M  V30 48 1 18 45
M  V30 49 1 19 46
M  V30 50 1 19 47
M  V30 51 1 21 48
M  V30 52 1 21 49
M  V30 53 1 22 50
M  V30 54 1 22 51
M  V30 55 1 23 52
M  V30 56 1 23 53
M  V30 57 1 24 54
M  V30 58 1 24 55
M  V30 59 1 25 56
M  V30 60 1 25 57
M  V30 61 1 26 58
M  V30 62 1 26 59
M  V30 63 1 29 60
M  V30 64 1 29 61
M  V30 65 1 29 62
M  V30 66 1 30 63
M  V30 67 1 30 64
M  V30 68 1 31 65
M  V30 69 1 31 66
M  V30 70 1 32 67
M  V30 71 1 32 68
M  V30 END BOND
M  V30 END CTAB
M  END
>  <NO.>
755

>  <Name>
chembl515025

>  <SMILES>
CNC(=O)c1c(NCC2CCC3(CCC3)CC2)nc(C#N)nc1OCC1CCN(C)CC1

>  <logBB>
0.37

>  <Class>
1

>  <MW>
440.29

>  <nHBAcc>
7

>  <nHBDon>
2

>  <SLogP>
3.2

>  <TopoPSA>
103.17

>  <MMFF94 Energy>
21.17

$$$$
ClC(Cl)=C(Cl)Cl
Actelion Java MolfileCreator 2.0

  0  0  0  0  0  0              0 V3000
M  V30 BEGIN CTAB
M  V30 COUNTS 6 5 0 0 0
M  V30 BEGIN ATOM
M  V30 1 Cl -0.2074 2.1792 0.1037 0
M  V30 2 C 0.382 0.5444 0.133 0
M  V30 3 Cl 2.0927 0.3913 0.3992 0
M  V30 4 C -0.4226 -0.5187 -0.0368 0
M  V30 5 Cl -2.1335 -0.3655 -0.3029 0
M  V30 6 Cl 0.1667 -2.1535 -0.0074 0
M  V30 END ATOM
M  V30 BEGIN BOND
M  V30 1 1 1 2
M  V30 2 1 2 3
M  V30 3 2 2 4
M  V30 4 1 4 5
M  V30 5 1 4 6
M  V30 END BOND
M  V30 END CTAB
M  END
>  <NO.>
757

>  <Name>
tetrachloroethylene

>  <SMILES>
ClC(Cl)=C(Cl)Cl

>  <logBB>
0.37

>  <Class>
1

>  <MW>
163.88

>  <nHBAcc>
0

>  <nHBDon>
0

>  <SLogP>
3.07

>  <TopoPSA>
0

>  <MMFF94 Energy>
10.685

$$$$
CC(C)(C)NCC(O)COc1ccccc1C#N
Actelion Java MolfileCreator 2.0

  0  0  0  0  0  0              0 V3000
M  V30 BEGIN CTAB
M  V30 COUNTS 38 38 0 0 0
M  V30 BEGIN ATOM
M  V30 1 O 0.5477 1.0174 1.6439 0
M  V30 2 C 0.084 1.9883 2.4918 0
M  V30 3 C 0.2643 -0.3437 1.9659 0
M  V30 4 C 0.271 3.318 2.0766 0
M  V30 5 C -0.5398 1.7407 3.7193 0
M  V30 6 C 0.8065 -1.2475 0.8554 0 CFG=1
M  V30 7 C 0.9031 3.6176 0.8229 0
M  V30 8 C -0.1674 4.3776 2.884 0
M  V30 9 C -0.9745 2.8023 4.5195 0
M  V30 10 O 0.5508 -2.6179 1.1902 0
M  V30 11 C 0.1636 -0.9367 -0.5139 0
M  V30 12 N 1.4061 3.8865 -0.1888 0
M  V30 13 C -0.7898 4.1185 4.1038 0
M  V30 14 N 0.6284 -1.9412 -1.4909 0
M  V30 15 C 0.0203 -1.849 -2.8349 0
M  V30 16 C -1.4965 -2.0962 -2.7922 0
M  V30 17 C 0.6681 -2.9687 -3.673 0
M  V30 18 C 0.3148 -0.5004 -3.5124 0
M  V30 19 H -0.8171 -0.501 2.0694 0
M  V30 20 H 0.7471 -0.6202 2.9116 0
M  V30 21 H -0.7003 0.7323 4.0885 0
M  V30 22 H 1.8932 -1.1191 0.7781 0
M  V30 23 H -0.0257 5.4088 2.5649 0
M  V30 24 H -1.4579 2.5981 5.4727 0
M  V30 25 H 0.5548 -3.0819 0.3257 0
M  V30 26 H -0.9235 -1.0009 -0.4044 0
M  V30 27 H 0.4312 0.0766 -0.8288 0
M  V30 28 H -1.129 4.9409 4.7296 0
M  V30 29 H 1.6422 -1.8434 -1.5881 0
M  V30 30 H -2.0337 -1.2786 -2.3 0
M  V30 31 H -1.907 -2.1833 -3.8051 0
M  V30 32 H -1.7336 -3.0254 -2.2612 0
M  V30 33 H 0.4842 -3.9558 -3.232 0
M  V30 34 H 0.2645 -2.9837 -4.6922 0
M  V30 35 H 1.7536 -2.8349 -3.7527 0
M  V30 36 H -0.1926 0.3298 -3.0096 0
M  V30 37 H 1.3894 -0.2844 -3.5207 0
M  V30 38 H -0.0276 -0.5032 -4.5538 0
M  V30 END ATOM
M  V30 BEGIN BOND
M  V30 1 1 1 2
M  V30 2 1 1 3
M  V30 3 2 2 4
M  V30 4 1 2 5
M  V30 5 1 3 6
M  V30 6 1 4 7
M  V30 7 1 4 8
M  V30 8 2 5 9
M  V30 9 1 6 10
M  V30 10 1 6 11
M  V30 11 3 7 12
M  V30 12 2 8 13
M  V30 13 1 11 14
M  V30 14 1 14 15
M  V30 15 1 15 16
M  V30 16 1 15 17
M  V30 17 1 15 18
M  V30 18 1 9 13
M  V30 19 1 3 19
M  V30 20 1 3 20
M  V30 21 1 5 21
M  V30 22 1 6 22
M  V30 23 1 8 23
M  V30 24 1 9 24
M  V30 25 1 10 25
M  V30 26 1 11 26
M  V30 27 1 11 27
M  V30 28 1 13 28
M  V30 29 1 14 29
M  V30 30 1 16 30
M  V30 31 1 16 31
M  V30 32 1 16 32
M  V30 33 1 17 33
M  V30 34 1 17 34
M  V30 35 1 17 35
M  V30 36 1 18 36
M  V30 37 1 18 37
M  V30 38 1 18 38
M  V30 END BOND
M  V30 BEGIN COLLECTION
M  V30 MDLV30/STERAC1 ATOMS=(1 6)
M  V30 END COLLECTION
M  V30 END CTAB
M  END
>  <NO.>
758

>  <Name>
bunitrolol

>  <SMILES>
CC(C)(C)NCC(O)COc1ccccc1C#N

>  <logBB>
0.38

>  <Class>
1

>  <MW>
248.15

>  <nHBAcc>
4

>  <nHBDon>
2

>  <SLogP>
1.69

>  <TopoPSA>
65.28

>  <MMFF94 Energy>
73.981

$$$$
CN(C)c1ccc(O)c(CNc2cccc3ccc(CO)nc23)c1
Actelion Java MolfileCreator 2.0

  0  0  0  0  0  0              0 V3000
M  V30 BEGIN CTAB
M  V30 COUNTS 45 47 0 0 0
M  V30 BEGIN ATOM
M  V30 1 O 0.9466 -4.2651 1.578 0
M  V30 2 C -0.1043 -3.4006 1.4549 0
M  V30 3 C 0.1489 -2.0384 1.2995 0
M  V30 4 C -1.4074 -3.8812 1.4917 0
M  V30 5 C -0.958 -1.1651 1.2162 0
M  V30 6 C 1.5708 -1.5205 1.3021 0
M  V30 7 C -2.482 -2.9901 1.3843 0
M  V30 8 C -2.2955 -1.6056 1.2439 0
M  V30 9 N 1.7296 -0.2546 0.6115 0
M  V30 10 N -3.3653 -0.7227 1.1414 0
M  V30 11 C 1.7317 -0.0449 -0.7657 0
M  V30 12 C -4.7418 -1.1822 1.2601 0
M  V30 13 C -3.1428 0.6907 0.8594 0
M  V30 14 C 1.8226 1.2817 -1.246 0
M  V30 15 C 1.6433 -1.1068 -1.6789 0
M  V30 16 N 1.8986 2.3202 -0.3744 0
M  V30 17 C 1.828 1.5 -2.6424 0
M  V30 18 C 1.6481 -0.8779 -3.0525 0
M  V30 19 C 1.9852 3.5884 -0.8622 0
M  V30 20 C 1.9195 2.8153 -3.1147 0
M  V30 21 C 1.7419 0.4215 -3.5343 0
M  V30 22 C 2.0001 3.8733 -2.2183 0
M  V30 23 C 2.0695 4.7075 0.1514 0
M  V30 24 O 1.9957 4.2013 1.4842 0
M  V30 25 H 0.5971 -5.165 1.688 0
M  V30 26 H -1.6159 -4.9402 1.6051 0
M  V30 27 H -0.746 -0.1032 1.124 0
M  V30 28 H 2.2669 -2.2544 0.8807 0
M  V30 29 H 1.8644 -1.3769 2.3491 0
M  V30 30 H -3.4811 -3.4145 1.4122 0
M  V30 31 H 1.8 0.5912 1.169 0
M  V30 32 H -5.0011 -1.8503 0.4316 0
M  V30 33 H -5.4541 -0.3502 1.2376 0
M  V30 34 H -4.901 -1.7034 2.2108 0
M  V30 35 H -2.6074 1.1728 1.6847 0
M  V30 36 H -4.0853 1.2345 0.7313 0
M  V30 37 H -2.5762 0.8214 -0.0693 0
M  V30 38 H 1.5639 -2.1324 -1.3297 0
M  V30 39 H 1.5764 -1.7151 -3.7417 0
M  V30 40 H 1.928 3.0213 -4.1822 0
M  V30 41 H 1.7445 0.5877 -4.6089 0
M  V30 42 H 2.0716 4.8946 -2.5773 0
M  V30 43 H 1.2406 5.4075 0.0093 0
M  V30 44 H 3.0189 5.2403 0.0429 0
M  V30 45 H 1.9417 3.2293 1.3729 0
M  V30 END ATOM
M  V30 BEGIN BOND
M  V30 1 1 1 2
M  V30 2 2 2 3
M  V30 3 1 2 4
M  V30 4 1 3 5
M  V30 5 1 3 6
M  V30 6 2 4 7
M  V30 7 2 5 8
M  V30 8 1 6 9
M  V30 9 1 8 10
M  V30 10 1 9 11
M  V30 11 1 10 12
M  V30 12 1 10 13
M  V30 13 1 11 14
M  V30 14 2 11 15
M  V30 15 2 14 16
M  V30 16 1 14 17
M  V30 17 1 15 18
M  V30 18 1 16 19
M  V30 19 2 17 20
M  V30 20 1 17 21
M  V30 21 2 19 22
M  V30 22 1 19 23
M  V30 23 1 23 24
M  V30 24 1 7 8
M  V30 25 2 18 21
M  V30 26 1 20 22
M  V30 27 1 1 25
M  V30 28 1 4 26
M  V30 29 1 5 27
M  V30 30 1 6 28
M  V30 31 1 6 29
M  V30 32 1 7 30
M  V30 33 1 9 31
M  V30 34 1 12 32
M  V30 35 1 12 33
M  V30 36 1 12 34
M  V30 37 1 13 35
M  V30 38 1 13 36
M  V30 39 1 13 37
M  V30 40 1 15 38
M  V30 41 1 18 39
M  V30 42 1 20 40
M  V30 43 1 21 41
M  V30 44 1 22 42
M  V30 45 1 23 43
M  V30 46 1 23 44
M  V30 47 1 24 45
M  V30 END BOND
M  V30 END CTAB
M  END
>  <NO.>
759

>  <Name>
ml

>  <SMILES>
CN(C)c1ccc(O)c(CNc2cccc3ccc(CO)nc23)c1

>  <logBB>
0.38

>  <Class>
1

>  <MW>
323.16

>  <nHBAcc>
5

>  <nHBDon>
3

>  <SLogP>
3.11

>  <TopoPSA>
68.62

>  <MMFF94 Energy>
87.029

$$$$
Clc1ccc(Cl)c(N=C2NCCN2)c1
Actelion Java MolfileCreator 2.0

  0  0  0  0  0  0              0 V3000
M  V30 BEGIN CTAB
M  V30 COUNTS 23 24 0 0 0
M  V30 BEGIN ATOM
M  V30 1 Cl -0.0816 2.9414 0.2448 0
M  V30 2 C -0.9609 1.7561 -0.6552 0
M  V30 3 C -1.2151 0.4744 -0.1341 0
M  V30 4 C -1.413 2.1064 -1.932 0
M  V30 5 N -0.8036 0.0777 1.1498 0
M  V30 6 C -1.9485 -0.4352 -0.9058 0
M  V30 7 C -2.1304 1.1843 -2.6954 0
M  V30 8 C 0.3882 -0.3835 1.2929 0
M  V30 9 C -2.3966 -0.0815 -2.1772 0
M  V30 10 N 0.8923 -0.7879 2.4909 0
M  V30 11 N 1.3895 -0.5815 0.3861 0
M  V30 12 Cl -3.2843 -1.2164 -3.1176 0
M  V30 13 C 2.2619 -1.2419 2.4496 0
M  V30 14 C 2.6155 -1.0985 0.9571 0
M  V30 15 H -1.2135 3.0973 -2.3322 0
M  V30 16 H -2.1638 -1.4194 -0.4982 0
M  V30 17 H -2.4831 1.4606 -3.6858 0
M  V30 18 H 0.3429 -0.7133 3.3336 0
M  V30 19 H 1.2998 -0.3412 -0.5881 0
M  V30 20 H 2.9047 -0.6137 3.0735 0
M  V30 21 H 2.3433 -2.2813 2.7809 0
M  V30 22 H 3.4432 -0.3983 0.8091 0
M  V30 23 H 2.8774 -2.0641 0.5147 0
M  V30 END ATOM
M  V30 BEGIN BOND
M  V30 1 1 1 2
M  V30 2 2 2 3
M  V30 3 1 2 4
M  V30 4 1 3 5
M  V30 5 1 3 6
M  V30 6 2 4 7
M  V30 7 2 5 8
M  V30 8 2 6 9
M  V30 9 1 8 10
M  V30 10 1 8 11
M  V30 11 1 9 12
M  V30 12 1 10 13
M  V30 13 1 11 14
M  V30 14 1 7 9
M  V30 15 1 13 14
M  V30 16 1 4 15
M  V30 17 1 6 16
M  V30 18 1 7 17
M  V30 19 1 10 18
M  V30 20 1 11 19
M  V30 21 1 13 20
M  V30 22 1 13 21
M  V30 23 1 14 22
M  V30 24 1 14 23
M  V30 END BOND
M  V30 END CTAB
M  END
>  <NO.>
760

>  <Name>
tz-11

>  <SMILES>
Clc1ccc(Cl)c(N=C2NCCN2)c1

>  <logBB>
0.38

>  <Class>
1

>  <MW>
229.02

>  <nHBAcc>
1

>  <nHBDon>
2

>  <SLogP>
2.17

>  <TopoPSA>
36.42

>  <MMFF94 Energy>
-51.675

$$$$
O=c1ccc(-c2c(-c3ccccc3)nn3ccccc23)nn1CCN1CCCCC1
Actelion Java MolfileCreator 2.0

  0  0  0  0  0  0              0 V3000
M  V30 BEGIN CTAB
M  V30 COUNTS 55 59 0 0 0
M  V30 BEGIN ATOM
M  V30 1 O -1.9226 -0.9609 -3.8481 0
M  V30 2 C -1.5128 -0.2809 -2.9118 0
M  V30 3 N -0.1926 -0.2097 -2.4796 0
M  V30 4 C -2.4858 0.5437 -2.1611 0
M  V30 5 N 0.2356 0.6145 -1.4537 0
M  V30 6 C 0.8494 -0.9649 -3.1762 0
M  V30 7 C -2.0997 1.3234 -1.1501 0
M  V30 8 C -0.6636 1.3069 -0.8333 0
M  V30 9 C 1.7385 -1.8352 -2.2595 0
M  V30 10 C -0.2537 2.1688 0.2541 0
M  V30 11 N 1.2575 -3.2128 -2.0164 0
M  V30 12 C -0.8167 2.3359 1.5568 0
M  V30 13 C 0.8276 3.0305 0.2389 0
M  V30 14 C -0.0046 -3.2869 -1.2685 0
M  V30 15 C 2.2857 -4.0358 -1.3566 0
M  V30 16 N -0.1842 3.293 2.2495 0
M  V30 17 C -1.9316 1.6101 2.1659 0
M  V30 18 N 0.8386 3.6968 1.4628 0
M  V30 19 C 1.8424 3.3634 -0.7087 0
M  V30 20 C 0.1229 -2.8976 0.2055 0
M  V30 21 C 2.5057 -3.6958 0.1207 0
M  V30 22 C -2.0049 0.2125 2.0857 0
M  V30 23 C -2.9405 2.3084 2.8426 0
M  V30 24 C 1.8015 4.6596 1.7743 0
M  V30 25 C 2.7663 4.2922 -0.3977 0
M  V30 26 C 1.1955 -3.7291 0.9012 0
M  V30 27 C -3.0831 -0.4717 2.6512 0
M  V30 28 C -4.0176 1.6225 3.408 0
M  V30 29 C 2.7575 4.9725 0.885 0
M  V30 30 C -4.0902 0.2339 3.308 0
M  V30 31 H -3.5164 0.4853 -2.4872 0
M  V30 32 H 0.4175 -1.5768 -3.9761 0
M  V30 33 H 1.4812 -0.2143 -3.668 0
M  V30 34 H -2.7911 1.9502 -0.6049 0
M  V30 35 H 2.6966 -1.9256 -2.789 0
M  V30 36 H 1.959 -1.3103 -1.3238 0
M  V30 37 H -0.3728 -4.3203 -1.3258 0
M  V30 38 H -0.7861 -2.6928 -1.7479 0
M  V30 39 H 3.2369 -3.9649 -1.8983 0
M  V30 40 H 1.986 -5.0892 -1.4365 0
M  V30 41 H 1.8664 2.8594 -1.6707 0
M  V30 42 H -0.8389 -3.0466 0.7095 0
M  V30 43 H 0.3654 -1.8331 0.2982 0
M  V30 44 H 2.965 -2.7048 0.216 0
M  V30 45 H 3.2108 -4.4108 0.56 0
M  V30 46 H -1.2173 -0.3572 1.5989 0
M  V30 47 H -2.8877 3.3916 2.9347 0
M  V30 48 H 1.7185 5.1156 2.7515 0
M  V30 49 H 3.548 4.5539 -1.105 0
M  V30 50 H 1.3549 -3.3612 1.9208 0
M  V30 51 H 0.8509 -4.7673 0.9856 0
M  V30 52 H -3.1319 -1.556 2.5879 0
M  V30 53 H -4.7951 2.1724 3.9324 0
M  V30 54 H 3.5191 5.7144 1.0974 0
M  V30 55 H -4.9264 -0.2995 3.7535 0
M  V30 END ATOM
M  V30 BEGIN BOND
M  V30 1 2 1 2
M  V30 2 1 2 3
M  V30 3 1 2 4
M  V30 4 1 3 5
M  V30 5 1 3 6
M  V30 6 2 4 7
M  V30 7 2 5 8
M  V30 8 1 6 9
M  V30 9 1 8 10
M  V30 10 1 9 11
M  V30 11 1 10 12
M  V30 12 2 10 13
M  V30 13 1 11 14
M  V30 14 1 11 15
M  V30 15 2 12 16
M  V30 16 1 12 17
M  V30 17 1 13 18
M  V30 18 1 13 19
M  V30 19 1 14 20
M  V30 20 1 15 21
M  V30 21 2 17 22
M  V30 22 1 17 23
M  V30 23 1 18 24
M  V30 24 2 19 25
M  V30 25 1 20 26
M  V30 26 1 22 27
M  V30 27 2 23 28
M  V30 28 2 24 29
M  V30 29 2 27 30
M  V30 30 1 7 8
M  V30 31 1 16 18
M  V30 32 1 21 26
M  V30 33 1 25 29
M  V30 34 1 28 30
M  V30 35 1 4 31
M  V30 36 1 6 32
M  V30 37 1 6 33
M  V30 38 1 7 34
M  V30 39 1 9 35
M  V30 40 1 9 36
M  V30 41 1 14 37
M  V30 42 1 14 38
M  V30 43 1 15 39
M  V30 44 1 15 40
M  V30 45 1 19 41
M  V30 46 1 20 42
M  V30 47 1 20 43
M  V30 48 1 21 44
M  V30 49 1 21 45
M  V30 50 1 22 46
M  V30 51 1 23 47
M  V30 52 1 24 48
M  V30 53 1 25 49
M  V30 54 1 26 50
M  V30 55 1 26 51
M  V30 56 1 27 52
M  V30 57 1 28 53
M  V30 58 1 29 54
M  V30 59 1 30 55
M  V30 END BOND
M  V30 END CTAB
M  END
>  <NO.>
761

>  <Name>
141060-39-1

>  <SMILES>
O=c1ccc(-c2c(-c3ccccc3)nn3ccccc23)nn1CCN1CCCCC1

>  <logBB>
0.38

>  <Class>
1

>  <MW>
399.21

>  <nHBAcc>
4

>  <nHBDon>
0

>  <SLogP>
3.71

>  <TopoPSA>
55.43

>  <MMFF94 Energy>
105.74

$$$$
CC(C)NCC(O)COc1ccc(CCOCC2CC2)cc1
Actelion Java MolfileCreator 2.0

  0  0  0  0  0  0              0 V3000
M  V30 BEGIN CTAB
M  V30 COUNTS 51 52 0 0 0
M  V30 BEGIN ATOM
M  V30 1 O 2.3502 -0.3914 1.2529 0
M  V30 2 C 1.1317 -0.8415 0.828 0
M  V30 3 C 3.0496 -1.1975 2.2079 0
M  V30 4 C 0.441 0.0408 -0.0041 0
M  V30 5 C 0.5538 -2.0694 1.1457 0
M  V30 6 C 4.3417 -0.4951 2.6626 0 CFG=1
M  V30 7 C -0.8188 -0.2918 -0.5073 0
M  V30 8 C -0.708 -2.4057 0.6409 0
M  V30 9 O 5.2884 -0.4776 1.5841 0
M  V30 10 C 4.1227 0.9535 3.1539 0
M  V30 11 C -1.4075 -1.5205 -0.1895 0
M  V30 12 N 3.8762 1.8593 2.0189 0
M  V30 13 C -2.7721 -1.8871 -0.7291 0
M  V30 14 C 3.6122 3.2413 2.4317 0
M  V30 15 C -2.7769 -2.1446 -2.2411 0
M  V30 16 C 3.7816 4.1323 1.1998 0
M  V30 17 C 2.2047 3.416 3.0056 0
M  V30 18 O -2.7515 -0.9323 -2.9981 0
M  V30 19 C -4.0303 -0.3263 -3.1747 0
M  V30 20 C -4.6843 -0.8777 -4.4018 0
M  V30 21 C -5.7417 -1.9496 -4.3137 0
M  V30 22 C -6.1254 -0.5488 -4.7001 0
M  V30 23 H 3.3113 -2.1562 1.7446 0
M  V30 24 H 2.4147 -1.3615 3.0871 0
M  V30 25 H 0.8862 0.9962 -0.2695 0
M  V30 26 H 1.0583 -2.7935 1.776 0
M  V30 27 H 4.7915 -1.086 3.4681 0
M  V30 28 H -1.3325 0.4124 -1.1583 0
M  V30 29 H -1.137 -3.3708 0.9014 0
M  V30 30 H 5.0933 0.3558 1.1048 0
M  V30 31 H 3.3047 0.9693 3.8811 0
M  V30 32 H 5.038 1.2849 3.6585 0
M  V30 33 H 3.0774 1.4997 1.4832 0
M  V30 34 H -3.4723 -1.0893 -0.4568 0
M  V30 35 H -3.1205 -2.7959 -0.2231 0
M  V30 36 H 4.3518 3.5586 3.1769 0
M  V30 37 H -1.894 -2.7263 -2.5288 0
M  V30 38 H -3.6547 -2.738 -2.5186 0
M  V30 39 H 3.0649 3.8735 0.4119 0
M  V30 40 H 4.791 4.0389 0.7836 0
M  V30 41 H 3.6283 5.1853 1.4603 0
M  V30 42 H 2.0728 2.85 3.9326 0
M  V30 43 H 1.4378 3.0865 2.2954 0
M  V30 44 H 2.0125 4.4693 3.2382 0
M  V30 45 H -3.855 0.7439 -3.3268 0
M  V30 46 H -4.6552 -0.4308 -2.2808 0
M  V30 47 H -3.9997 -0.9005 -5.2429 0
M  V30 48 H -6.049 -2.3055 -3.3373 0
M  V30 49 H -5.7512 -2.7113 -5.0854 0
M  V30 50 H -6.6858 0.04 -3.9828 0
M  V30 51 H -6.3982 -0.3635 -5.7331 0
M  V30 END ATOM
M  V30 BEGIN BOND
M  V30 1 1 1 2
M  V30 2 1 1 3
M  V30 3 2 2 4
M  V30 4 1 2 5
M  V30 5 1 3 6
M  V30 6 1 4 7
M  V30 7 2 5 8
M  V30 8 1 6 9
M  V30 9 1 6 10
M  V30 10 2 7 11
M  V30 11 1 10 12
M  V30 12 1 11 13
M  V30 13 1 12 14
M  V30 14 1 13 15
M  V30 15 1 14 16
M  V30 16 1 14 17
M  V30 17 1 15 18
M  V30 18 1 18 19
M  V30 19 1 19 20
M  V30 20 1 20 21
M  V30 21 1 20 22
M  V30 22 1 8 11
M  V30 23 1 21 22
M  V30 24 1 3 23
M  V30 25 1 3 24
M  V30 26 1 4 25
M  V30 27 1 5 26
M  V30 28 1 6 27
M  V30 29 1 7 28
M  V30 30 1 8 29
M  V30 31 1 9 30
M  V30 32 1 10 31
M  V30 33 1 10 32
M  V30 34 1 12 33
M  V30 35 1 13 34
M  V30 36 1 13 35
M  V30 37 1 14 36
M  V30 38 1 15 37
M  V30 39 1 15 38
M  V30 40 1 16 39
M  V30 41 1 16 40
M  V30 42 1 16 41
M  V30 43 1 17 42
M  V30 44 1 17 43
M  V30 45 1 17 44
M  V30 46 1 19 45
M  V30 47 1 19 46
M  V30 48 1 20 47
M  V30 49 1 21 48
M  V30 50 1 21 49
M  V30 51 1 22 50
M  V30 52 1 22 51
M  V30 END BOND
M  V30 BEGIN COLLECTION
M  V30 MDLV30/STERAC1 ATOMS=(1 6)
M  V30 END COLLECTION
M  V30 END CTAB
M  END
>  <NO.>
762

>  <Name>
betaxolol

>  <SMILES>
CC(C)NCC(O)COc1ccc(CCOCC2CC2)cc1

>  <logBB>
0.39

>  <Class>
1

>  <MW>
307.21

>  <nHBAcc>
4

>  <nHBDon>
2

>  <SLogP>
2.39

>  <TopoPSA>
50.72

>  <MMFF94 Energy>
86.888

$$$$
COc1cc2c(c(CNC3CCCNC3c3ccccc3)c1)OCC2
Actelion Java MolfileCreator 2.0

  0  0  0  0  0  0              0 V3000
M  V30 BEGIN CTAB
M  V30 COUNTS 51 54 0 0 0
M  V30 BEGIN ATOM
M  V30 1 O -3.0265 -0.1591 -0.1591 0
M  V30 2 C -2.0404 -0.5954 -1.0088 0
M  V30 3 C -3.4549 -1.3605 0.5203 0
M  V30 4 C -1.164 0.235 -1.6877 0
M  V30 5 C -1.9992 -1.9758 -1.1374 0
M  V30 6 C -3.0864 -2.5745 -0.3311 0
M  V30 7 C -0.2208 -0.3881 -2.5213 0
M  V30 8 C -1.1914 1.7301 -1.5125 0
M  V30 9 C -1.0751 -2.5937 -1.9646 0
M  V30 10 C -0.1703 -1.7888 -2.6616 0
M  V30 11 N -0.7347 2.1665 -0.1877 0
M  V30 12 O 0.8098 -2.2341 -3.5074 0
M  V30 13 C 0.7248 2.0595 0.0069 0
M  V30 14 C 0.8947 -3.6391 -3.709 0
M  V30 15 C 1.1143 1.8797 1.5231 0
M  V30 16 C 1.3899 3.3319 -0.5483 0
M  V30 17 N 2.5747 1.9195 1.7429 0
M  V30 18 C 0.5638 0.5943 2.1399 0
M  V30 19 C 2.8878 3.3365 -0.26 0
M  V30 20 C 3.1612 3.1534 1.2282 0
M  V30 21 C -0.1229 0.6501 3.3637 0
M  V30 22 C 0.7511 -0.6615 1.5388 0
M  V30 23 C -0.6212 -0.5108 3.959 0
M  V30 24 C 0.2517 -1.8219 2.1348 0
M  V30 25 C -0.4343 -1.7464 3.3442 0
M  V30 26 H -4.5338 -1.309 0.7003 0
M  V30 27 H -2.9537 -1.3916 1.4952 0
M  V30 28 H -3.9183 -2.8711 -0.9778 0
M  V30 29 H -2.7675 -3.4203 0.283 0
M  V30 30 H 0.4963 0.2178 -3.0717 0
M  V30 31 H -2.2259 2.0705 -1.6463 0
M  V30 32 H -0.6237 2.2261 -2.3081 0
M  V30 33 H -1.0806 -3.673 -2.0512 0
M  V30 34 H -1.2182 1.5798 0.4981 0
M  V30 35 H 1.1258 1.2016 -0.5448 0
M  V30 36 H 1.1311 -4.158 -2.7742 0
M  V30 37 H 1.7134 -3.8272 -4.4101 0
M  V30 38 H -0.0244 -4.0301 -4.1577 0
M  V30 39 H 0.6763 2.7247 2.0745 0
M  V30 40 H 0.9358 4.2231 -0.0949 0
M  V30 41 H 1.2361 3.412 -1.6305 0
M  V30 42 H 2.9938 1.1196 1.2714 0
M  V30 43 H 3.3243 4.2822 -0.6009 0
M  V30 44 H 3.3749 2.5355 -0.83 0
M  V30 45 H 2.7793 4.0115 1.7947 0
M  V30 46 H 4.2431 3.126 1.3978 0
M  V30 47 H -0.266 1.6044 3.8664 0
M  V30 48 H 1.2896 -0.7524 0.5991 0
M  V30 49 H -1.1476 -0.4484 4.9076 0
M  V30 50 H 0.4044 -2.7838 1.6534 0
M  V30 51 H -0.8164 -2.6495 3.8114 0
M  V30 END ATOM
M  V30 BEGIN BOND
M  V30 1 1 1 2
M  V30 2 1 1 3
M  V30 3 2 2 4
M  V30 4 1 2 5
M  V30 5 1 3 6
M  V30 6 1 4 7
M  V30 7 1 4 8
M  V30 8 2 5 9
M  V30 9 2 7 10
M  V30 10 1 8 11
M  V30 11 1 10 12
M  V30 12 1 11 13
M  V30 13 1 12 14
M  V30 14 1 13 15
M  V30 15 1 13 16
M  V30 16 1 15 17
M  V30 17 1 15 18
M  V30 18 1 16 19
M  V30 19 1 17 20
M  V30 20 2 18 21
M  V30 21 1 18 22
M  V30 22 1 21 23
M  V30 23 2 22 24
M  V30 24 2 23 25
M  V30 25 1 5 6
M  V30 26 1 9 10
M  V30 27 1 19 20
M  V30 28 1 24 25
M  V30 29 1 3 26
M  V30 30 1 3 27
M  V30 31 1 6 28
M  V30 32 1 6 29
M  V30 33 1 7 30
M  V30 34 1 8 31
M  V30 35 1 8 32
M  V30 36 1 9 33
M  V30 37 1 11 34
M  V30 38 1 13 35
M  V30 39 1 14 36
M  V30 40 1 14 37
M  V30 41 1 14 38
M  V30 42 1 15 39
M  V30 43 1 16 40
M  V30 44 1 16 41
M  V30 45 1 17 42
M  V30 46 1 19 43
M  V30 47 1 19 44
M  V30 48 1 20 45
M  V30 49 1 20 46
M  V30 50 1 21 47
M  V30 51 1 22 48
M  V30 52 1 23 49
M  V30 53 1 24 50
M  V30 54 1 25 51
M  V30 END BOND
M  V30 END CTAB
M  END
>  <NO.>
763

>  <Name>
l015600

>  <SMILES>
COc1cc2c(c(CNC3CCCNC3c3ccccc3)c1)OCC2

>  <logBB>
0.39

>  <Class>
1

>  <MW>
338.2

>  <nHBAcc>
4

>  <nHBDon>
2

>  <SLogP>
3.21

>  <TopoPSA>
42.52

>  <MMFF94 Energy>
74.218

$$$$
Clc1ccc2c(c1)C1CNCC1c1ccccc1O2
Actelion Java MolfileCreator 2.0

  0  0  0  0  0  0              0 V3000
M  V30 BEGIN CTAB
M  V30 COUNTS 33 36 0 0 0
M  V30 BEGIN ATOM
M  V30 1 Cl -3.9238 -3.4327 -1.797 0
M  V30 2 C -2.4144 -2.7416 -1.3432 0
M  V30 3 C -2.3723 -1.773 -0.3373 0
M  V30 4 C -1.2459 -3.1586 -1.9772 0
M  V30 5 C -1.1491 -1.2008 0.0434 0
M  V30 6 C -0.025 -2.5979 -1.6058 0
M  V30 7 C 0.0119 -1.6155 -0.6147 0
M  V30 8 C -1.0837 -0.1717 1.1361 0
M  V30 9 O 1.2367 -1.1165 -0.2471 0
M  V30 10 C -0.4841 1.1909 0.7515 0
M  V30 11 C -0.3213 -0.5969 2.4026 0
M  V30 12 C 1.4609 0.1824 -0.6377 0
M  V30 13 C 0.6915 1.2721 -0.2084 0
M  V30 14 C -0.1278 1.7412 2.1416 0
M  V30 15 N 0.3735 0.5941 2.9014 0
M  V30 16 C 2.5666 0.368 -1.4782 0
M  V30 17 C 1.0419 2.5489 -0.6969 0
M  V30 18 C 2.898 1.6387 -1.9401 0
M  V30 19 C 2.1299 2.7305 -1.5538 0
M  V30 20 H -3.2957 -1.4689 0.1498 0
M  V30 21 H -1.2785 -3.9172 -2.754 0
M  V30 22 H 0.894 -2.9197 -2.0871 0
M  V30 23 H -2.1152 0.0354 1.4636 0
M  V30 24 H -1.2867 1.7963 0.3061 0
M  V30 25 H 0.4093 -1.3922 2.2273 0
M  V30 26 H -1.0268 -0.9706 3.1543 0
M  V30 27 H 0.6088 2.55 2.1266 0
M  V30 28 H -1.0339 2.1224 2.6297 0
M  V30 29 H 0.2322 0.7184 3.9016 0
M  V30 30 H 3.1658 -0.4878 -1.777 0
M  V30 31 H 0.4653 3.4232 -0.3997 0
M  V30 32 H 3.7521 1.7747 -2.5972 0
M  V30 33 H 2.3807 3.7262 -1.91 0
M  V30 END ATOM
M  V30 BEGIN BOND
M  V30 1 1 1 2
M  V30 2 2 2 3
M  V30 3 1 2 4
M  V30 4 1 3 5
M  V30 5 2 4 6
M  V30 6 2 5 7
M  V30 7 1 5 8
M  V30 8 1 7 9
M  V30 9 1 8 10
M  V30 10 1 8 11
M  V30 11 1 9 12
M  V30 12 1 10 13
M  V30 13 1 10 14
M  V30 14 1 11 15
M  V30 15 1 12 16
M  V30 16 1 13 17
M  V30 17 2 16 18
M  V30 18 2 17 19
M  V30 19 1 6 7
M  V30 20 2 12 13
M  V30 21 1 14 15
M  V30 22 1 18 19
M  V30 23 1 3 20
M  V30 24 1 4 21
M  V30 25 1 6 22
M  V30 26 1 8 23
M  V30 27 1 10 24
M  V30 28 1 11 25
M  V30 29 1 11 26
M  V30 30 1 14 27
M  V30 31 1 14 28
M  V30 32 1 15 29
M  V30 33 1 16 30
M  V30 34 1 17 31
M  V30 35 1 18 32
M  V30 36 1 19 33
M  V30 END BOND
M  V30 END CTAB
M  END
>  <NO.>
764

>  <Name>
128915-56-0

>  <SMILES>
Clc1ccc2c(c1)C1CNCC1c1ccccc1O2

>  <logBB>
0.39

>  <Class>
1

>  <MW>
271.08

>  <nHBAcc>
2

>  <nHBDon>
1

>  <SLogP>
3.92

>  <TopoPSA>
21.26

>  <MMFF94 Energy>
83.569

$$$$
Cc1cccc2c1Oc1ccccc1C1(O)CNCC21
Actelion Java MolfileCreator 2.0

  0  0  0  0  0  0              0 V3000
M  V30 BEGIN CTAB
M  V30 COUNTS 37 40 0 0 0
M  V30 BEGIN ATOM
M  V30 1 O 1.1266 0.2413 -0.8046 0
M  V30 2 C 1.2343 0.4094 0.5581 0
M  V30 3 C 0.4318 -0.8944 -1.1518 0
M  V30 4 C 0.1114 0.8107 1.2944 0
M  V30 5 C 2.4865 0.2273 1.1683 0
M  V30 6 C -0.9528 -1.0014 -0.9634 0
M  V30 7 C 1.1686 -1.9191 -1.7569 0
M  V30 8 C 0.2477 0.9779 2.6808 0
M  V30 9 C -1.2028 1.1277 0.6255 0
M  V30 10 C 2.5873 0.3856 2.5558 0
M  V30 11 C 3.6938 -0.1853 0.3781 0
M  V30 12 C -1.5682 -2.1992 -1.3792 0
M  V30 13 C -1.7899 0.1477 -0.4336 0
M  V30 14 C 0.5376 -3.0947 -2.1516 0
M  V30 15 C 1.4738 0.7569 3.3074 0
M  V30 16 C -1.1648 2.4833 -0.097 0
M  V30 17 C -0.8316 -3.237 -1.9572 0
M  V30 18 O -3.0005 -0.4033 0.1398 0
M  V30 19 C -2.1889 1.0833 -1.6101 0
M  V30 20 N -2.2897 2.4433 -1.0434 0
M  V30 21 H 2.2365 -1.7999 -1.9141 0
M  V30 22 H -0.6014 1.2861 3.2871 0
M  V30 23 H -1.9531 1.2251 1.4256 0
M  V30 24 H 3.537 0.223 3.0603 0
M  V30 25 H 3.7287 0.332 -0.5859 0
M  V30 26 H 3.68 -1.266 0.2086 0
M  V30 27 H 4.6176 0.069 0.9087 0
M  V30 28 H -2.6423 -2.3321 -1.2596 0
M  V30 29 H 1.1109 -3.895 -2.6106 0
M  V30 30 H 1.5638 0.8824 4.3835 0
M  V30 31 H -0.2308 2.6416 -0.6492 0
M  V30 32 H -1.2738 3.3187 0.603 0
M  V30 33 H -1.3339 -4.151 -2.2634 0
M  V30 34 H -3.6354 0.3255 0.2336 0
M  V30 35 H -1.4266 1.1019 -2.3986 0
M  V30 36 H -3.1416 0.7961 -2.0682 0
M  V30 37 H -3.164 2.5357 -0.5281 0
M  V30 END ATOM
M  V30 BEGIN BOND
M  V30 1 1 1 2
M  V30 2 1 1 3
M  V30 3 2 2 4
M  V30 4 1 2 5
M  V30 5 2 3 6
M  V30 6 1 3 7
M  V30 7 1 4 8
M  V30 8 1 4 9
M  V30 9 2 5 10
M  V30 10 1 5 11
M  V30 11 1 6 12
M  V30 12 1 6 13
M  V30 13 2 7 14
M  V30 14 2 8 15
M  V30 15 1 9 16
M  V30 16 2 12 17
M  V30 17 1 13 18
M  V30 18 1 13 19
M  V30 19 1 16 20
M  V30 20 1 9 13
M  V30 21 1 10 15
M  V30 22 1 14 17
M  V30 23 1 19 20
M  V30 24 1 7 21
M  V30 25 1 8 22
M  V30 26 1 9 23
M  V30 27 1 10 24
M  V30 28 1 11 25
M  V30 29 1 11 26
M  V30 30 1 11 27
M  V30 31 1 12 28
M  V30 32 1 14 29
M  V30 33 1 15 30
M  V30 34 1 16 31
M  V30 35 1 16 32
M  V30 36 1 17 33
M  V30 37 1 18 34
M  V30 38 1 19 35
M  V30 39 1 19 36
M  V30 40 1 20 37
M  V30 END BOND
M  V30 END CTAB
M  END
>  <NO.>
767

>  <Name>
org-30526

>  <SMILES>
Cc1cccc2c1Oc1ccccc1C1(O)CNCC21

>  <logBB>
0.39

>  <Class>
1

>  <MW>
267.13

>  <nHBAcc>
3

>  <nHBDon>
2

>  <SLogP>
2.68

>  <TopoPSA>
41.49

>  <MMFF94 Energy>
113.93

$$$$
Clc1ccc2c(c1)C1CCNCC1c1ccccc1O2
Actelion Java MolfileCreator 2.0

  0  0  0  0  0  0              0 V3000
M  V30 BEGIN CTAB
M  V30 COUNTS 36 39 0 0 0
M  V30 BEGIN ATOM
M  V30 1 Cl 0.0814 -5.2216 1.548 0
M  V30 2 C 0.6337 -3.6126 1.2819 0
M  V30 3 C -0.2906 -2.5638 1.2359 0
M  V30 4 C 1.9975 -3.3719 1.121 0
M  V30 5 C 0.1446 -1.2494 1.024 0
M  V30 6 C 2.4441 -2.0711 0.902 0
M  V30 7 C 1.5168 -1.0311 0.8379 0
M  V30 8 C -0.7605 -0.0339 0.9771 0
M  V30 9 O 1.9779 0.2494 0.6338 0
M  V30 10 C -0.8649 0.5466 -0.4608 0
M  V30 11 C -2.1688 -0.2624 1.5563 0
M  V30 12 C 1.7293 0.7336 -0.6314 0
M  V30 13 C 0.446 0.862 -1.1887 0
M  V30 14 C -1.7608 1.814 -0.3988 0
M  V30 15 C -2.9796 1.0283 1.5382 0
M  V30 16 C 2.8719 1.1137 -1.3488 0
M  V30 17 C 0.3692 1.2964 -2.5295 0
M  V30 18 N -3.083 1.5546 0.1814 0
M  V30 19 C 2.7632 1.5729 -2.6577 0
M  V30 20 C 1.5107 1.6511 -3.2534 0
M  V30 21 H -1.3441 -2.7911 1.3685 0
M  V30 22 H 2.7115 -4.1894 1.1633 0
M  V30 23 H 3.5028 -1.8679 0.773 0
M  V30 24 H -0.2954 0.7237 1.6276 0
M  V30 25 H -1.3739 -0.208 -1.0805 0
M  V30 26 H -2.1003 -0.6281 2.5883 0
M  V30 27 H -2.7047 -1.0272 0.9792 0
M  V30 28 H -1.2552 2.6086 0.1663 0
M  V30 29 H -1.9305 2.2147 -1.4037 0
M  V30 30 H -2.5295 1.7747 2.2038 0
M  V30 31 H -3.987 0.8261 1.9182 0
M  V30 32 H 3.8521 1.0299 -0.8867 0
M  V30 33 H -0.5953 1.3618 -3.0306 0
M  V30 34 H -3.6177 2.4237 0.1973 0
M  V30 35 H 3.653 1.8534 -3.214 0
M  V30 36 H 1.417 1.9898 -4.282 0
M  V30 END ATOM
M  V30 BEGIN BOND
M  V30 1 1 1 2
M  V30 2 2 2 3
M  V30 3 1 2 4
M  V30 4 1 3 5
M  V30 5 2 4 6
M  V30 6 2 5 7
M  V30 7 1 5 8
M  V30 8 1 7 9
M  V30 9 1 8 10
M  V30 10 1 8 11
M  V30 11 1 9 12
M  V30 12 1 10 13
M  V30 13 1 10 14
M  V30 14 1 11 15
M  V30 15 1 12 16
M  V30 16 1 13 17
M  V30 17 1 14 18
M  V30 18 2 16 19
M  V30 19 2 17 20
M  V30 20 1 6 7
M  V30 21 2 12 13
M  V30 22 1 15 18
M  V30 23 1 19 20
M  V30 24 1 3 21
M  V30 25 1 4 22
M  V30 26 1 6 23
M  V30 27 1 8 24
M  V30 28 1 10 25
M  V30 29 1 11 26
M  V30 30 1 11 27
M  V30 31 1 14 28
M  V30 32 1 14 29
M  V30 33 1 15 30
M  V30 34 1 15 31
M  V30 35 1 16 32
M  V30 36 1 17 33
M  V30 37 1 18 34
M  V30 38 1 19 35
M  V30 39 1 20 36
M  V30 END BOND
M  V30 END CTAB
M  END
>  <NO.>
768

>  <Name>
b-106, org30526

>  <SMILES>
Clc1ccc2c(c1)C1CCNCC1c1ccccc1O2

>  <logBB>
0.39

>  <Class>
1

>  <MW>
285.09

>  <nHBAcc>
2

>  <nHBDon>
1

>  <SLogP>
4.31

>  <TopoPSA>
21.26

>  <MMFF94 Energy>
67.521

$$$$
Fc1ccc(Cn2c([C@@H]3CCCNC3)nc3ccccc32)cc1
Actelion Java MolfileCreator 2.0

  0  0  0  0  0  0              0 V3000
M  V30 BEGIN CTAB
M  V30 COUNTS 43 46 0 0 0
M  V30 BEGIN ATOM
M  V30 1 F 1.2005 5.5314 -0.24 0
M  V30 2 C 0.5816 4.388 0.0811 0
M  V30 3 C 1.1152 3.5745 1.0717 0
M  V30 4 C -0.59 4.0363 -0.5765 0
M  V30 5 C 0.4683 2.3845 1.4101 0
M  V30 6 C -1.2388 2.8466 -0.2411 0
M  V30 7 C -0.7097 1.9982 0.7472 0
M  V30 8 C -1.4374 0.7238 1.1105 0
M  V30 9 N -0.561 -0.4392 1.1495 0
M  V30 10 C -0.1649 -1.0964 2.2966 0
M  V30 11 C -0.0187 -1.1031 0.0647 0
M  V30 12 C 0.6202 -2.1464 1.8333 0
M  V30 13 C -0.4018 -0.883 3.6618 0
M  V30 14 N 0.6981 -2.1351 0.4668 0
M  V30 15 C -0.1993 -0.6972 -1.3722 0 CFG=1
M  V30 16 C 1.2026 -3.0346 2.7493 0
M  V30 17 C 0.1874 -1.7789 4.5621 0
M  V30 18 C 1.1084 -0.1111 -1.9394 0
M  V30 19 C -0.6548 -1.8899 -2.2276 0
M  V30 20 C 0.9772 -2.839 4.1164 0
M  V30 21 N 0.9841 0.2715 -3.3558 0
M  V30 22 C -0.7164 -1.4999 -3.7033 0
M  V30 23 C 0.6013 -0.8835 -4.1706 0
M  V30 24 H 2.0309 3.8701 1.5742 0
M  V30 25 H -0.9905 4.6923 -1.343 0
M  V30 26 H 0.9001 1.7598 2.1905 0
M  V30 27 H -2.1595 2.5876 -0.7605 0
M  V30 28 H -2.2348 0.4932 0.3944 0
M  V30 29 H -1.9165 0.8463 2.0872 0
M  V30 30 H -1.0101 -0.061 4.0229 0
M  V30 31 H -0.9783 0.0691 -1.4517 0
M  V30 32 H 1.8157 -3.8545 2.3926 0
M  V30 33 H 0.0269 -1.6454 5.6302 0
M  V30 34 H 1.9373 -0.8225 -1.8281 0
M  V30 35 H 1.3969 0.7795 -1.3687 0
M  V30 36 H -1.6386 -2.2433 -1.8956 0
M  V30 37 H 0.0379 -2.7336 -2.1107 0
M  V30 38 H 1.4244 -3.5213 4.8352 0
M  V30 39 H 0.2761 0.9992 -3.4456 0
M  V30 40 H -0.9463 -2.3839 -4.3086 0
M  V30 41 H -1.534 -0.7845 -3.8583 0
M  V30 42 H 0.5029 -0.5623 -5.2133 0
M  V30 43 H 1.4008 -1.6339 -4.1486 0
M  V30 END ATOM
M  V30 BEGIN BOND
M  V30 1 1 1 2
M  V30 2 2 2 3
M  V30 3 1 2 4
M  V30 4 1 3 5
M  V30 5 2 4 6
M  V30 6 2 5 7
M  V30 7 1 7 8
M  V30 8 1 8 9
M  V30 9 1 9 10
M  V30 10 1 9 11
M  V30 11 2 10 12
M  V30 12 1 10 13
M  V30 13 2 11 14
M  V30 14 1 11 15
M  V30 15 1 12 16
M  V30 16 2 13 17
M  V30 17 1 15 18
M  V30 18 1 15 19
M  V30 19 2 16 20
M  V30 20 1 18 21
M  V30 21 1 19 22
M  V30 22 1 21 23
M  V30 23 1 6 7
M  V30 24 1 12 14
M  V30 25 1 17 20
M  V30 26 1 22 23
M  V30 27 1 3 24
M  V30 28 1 4 25
M  V30 29 1 5 26
M  V30 30 1 6 27
M  V30 31 1 8 28
M  V30 32 1 8 29
M  V30 33 1 13 30
M  V30 34 1 15 31
M  V30 35 1 16 32
M  V30 36 1 17 33
M  V30 37 1 18 34
M  V30 38 1 18 35
M  V30 39 1 19 36
M  V30 40 1 19 37
M  V30 41 1 20 38
M  V30 42 1 21 39
M  V30 43 1 22 40
M  V30 44 1 22 41
M  V30 45 1 23 42
M  V30 46 1 23 43
M  V30 END BOND
M  V30 BEGIN COLLECTION
M  V30 MDLV30/STEABS ATOMS=(1 15)
M  V30 END COLLECTION
M  V30 END CTAB
M  END
>  <NO.>
769

>  <Name>
chembl1935437

>  <SMILES>
Fc1ccc(Cn2c([C@@H]3CCCNC3)nc3ccccc32)cc1

>  <logBB>
0.39

>  <Class>
1

>  <MW>
309.16

>  <nHBAcc>
2

>  <nHBDon>
1

>  <SLogP>
3.69

>  <TopoPSA>
29.85

>  <MMFF94 Energy>
55.687

$$$$
OCCOCCN1CCN([C@@H](c2ccccc2)c2ccc(Cl)cc2)CC1
Actelion Java MolfileCreator 2.0

  0  0  0  0  0  0              0 V3000
M  V30 BEGIN CTAB
M  V30 COUNTS 53 55 0 0 0
M  V30 BEGIN ATOM
M  V30 1 Cl 1.839 5.0436 4.8832 0
M  V30 2 C 0.9665 3.9442 3.8877 0
M  V30 3 C 1.0336 2.5772 4.1426 0
M  V30 4 C 0.1976 4.4281 2.8318 0
M  V30 5 C 0.3259 1.6858 3.333 0
M  V30 6 C -0.5102 3.5365 2.0215 0
M  V30 7 C -0.4513 2.1514 2.2566 0
M  V30 8 C -1.2547 1.1897 1.3657 0 CFG=1
M  V30 9 N -0.4669 0.0032 0.9131 0
M  V30 10 C -2.5661 0.824 2.0759 0
M  V30 11 C 0.7454 0.4217 0.1642 0
M  V30 12 C -1.2709 -0.8515 0.0012 0
M  V30 13 C -3.7533 1.4997 1.7438 0
M  V30 14 C -2.6148 -0.1559 3.0829 0
M  V30 15 C 1.5546 -0.7761 -0.3874 0
M  V30 16 C -0.4689 -2.054 -0.5449 0
M  V30 17 C -4.9526 1.1956 2.3916 0
M  V30 18 C -3.8148 -0.4586 3.7288 0
M  V30 19 N 0.7483 -1.6384 -1.2675 0
M  V30 20 C -4.9828 0.2168 3.3826 0
M  V30 21 C 1.4929 -2.8274 -1.7335 0
M  V30 22 C 2.668 -2.5334 -2.685 0
M  V30 23 O 2.1834 -2.005 -3.9206 0
M  V30 24 C 3.2528 -1.6311 -4.7943 0
M  V30 25 C 2.6731 -1.2167 -6.1441 0
M  V30 26 O 2.3254 -2.3736 -6.9049 0
M  V30 27 H 1.6305 2.1977 4.9672 0
M  V30 28 H 0.1413 5.4955 2.6365 0
M  V30 29 H 0.3873 0.619 3.5373 0
M  V30 30 H -1.1128 3.9307 1.206 0
M  V30 31 H -1.5259 1.7456 0.4553 0
M  V30 32 H 0.4721 1.0813 -0.6711 0
M  V30 33 H 1.4234 0.9861 0.8133 0
M  V30 34 H -1.6507 -0.2612 -0.8441 0
M  V30 35 H -2.1396 -1.2645 0.5246 0
M  V30 36 H -3.7511 2.2715 0.9777 0
M  V30 37 H -1.7124 -0.6961 3.3599 0
M  V30 38 H 1.9592 -1.3532 0.4549 0
M  V30 39 H 2.4048 -0.3638 -0.9412 0
M  V30 40 H -1.1228 -2.6147 -1.2241 0
M  V30 41 H -0.2138 -2.7222 0.289 0
M  V30 42 H -5.8634 1.7254 2.1248 0
M  V30 43 H -3.836 -1.2212 4.5027 0
M  V30 44 H -5.9162 -0.0179 3.8872 0
M  V30 45 H 0.7951 -3.4748 -2.2805 0
M  V30 46 H 1.8657 -3.3997 -0.8745 0
M  V30 47 H 3.3872 -1.8432 -2.232 0
M  V30 48 H 3.1908 -3.4745 -2.8933 0
M  V30 49 H 3.9394 -2.4762 -4.9175 0
M  V30 50 H 3.7832 -0.7839 -4.3462 0
M  V30 51 H 1.7733 -0.6071 -6.0111 0
M  V30 52 H 3.4142 -0.6559 -6.721 0
M  V30 53 H 1.7049 -2.0814 -7.5936 0
M  V30 END ATOM
M  V30 BEGIN BOND
M  V30 1 1 1 2
M  V30 2 2 2 3
M  V30 3 1 2 4
M  V30 4 1 3 5
M  V30 5 2 4 6
M  V30 6 2 5 7
M  V30 7 1 7 8
M  V30 8 1 8 9
M  V30 9 1 8 10
M  V30 10 1 9 11
M  V30 11 1 9 12
M  V30 12 2 10 13
M  V30 13 1 10 14
M  V30 14 1 11 15
M  V30 15 1 12 16
M  V30 16 1 13 17
M  V30 17 2 14 18
M  V30 18 1 15 19
M  V30 19 2 17 20
M  V30 20 1 19 21
M  V30 21 1 21 22
M  V30 22 1 22 23
M  V30 23 1 23 24
M  V30 24 1 24 25
M  V30 25 1 25 26
M  V30 26 1 6 7
M  V30 27 1 16 19
M  V30 28 1 18 20
M  V30 29 1 3 27
M  V30 30 1 4 28
M  V30 31 1 5 29
M  V30 32 1 6 30
M  V30 33 1 8 31
M  V30 34 1 11 32
M  V30 35 1 11 33
M  V30 36 1 12 34
M  V30 37 1 12 35
M  V30 38 1 13 36
M  V30 39 1 14 37
M  V30 40 1 15 38
M  V30 41 1 15 39
M  V30 42 1 16 40
M  V30 43 1 16 41
M  V30 44 1 17 42
M  V30 45 1 18 43
M  V30 46 1 20 44
M  V30 47 1 21 45
M  V30 48 1 21 46
M  V30 49 1 22 47
M  V30 50 1 22 48
M  V30 51 1 24 49
M  V30 52 1 24 50
M  V30 53 1 25 51
M  V30 54 1 25 52
M  V30 55 1 26 53
M  V30 END BOND
M  V30 BEGIN COLLECTION
M  V30 MDLV30/STEABS ATOMS=(1 8)
M  V30 END COLLECTION
M  V30 END CTAB
M  END
>  <NO.>
770

>  <Name>
(s)-hydroxyzine

>  <SMILES>
OCCOCCN1CCN([C@@H](c2ccccc2)c2ccc(Cl)cc2)CC1

>  <logBB>
0.39

>  <Class>
1

>  <MW>
374.18

>  <nHBAcc>
4

>  <nHBDon>
1

>  <SLogP>
3.06

>  <TopoPSA>
35.94

>  <MMFF94 Energy>
159.56

$$$$
CC(Cl)(Cl)Cl
Actelion Java MolfileCreator 2.0

  0  0  0  0  0  0              0 V3000
M  V30 BEGIN CTAB
M  V30 COUNTS 8 7 0 0 0
M  V30 BEGIN ATOM
M  V30 1 Cl -1.9986 -0.454 0.5448 0
M  V30 2 C -0.2183 -0.4897 0.4165 0
M  V30 3 Cl 0.2984 -2.1066 -0.1363 0
M  V30 4 Cl 0.4929 -0.1623 2.0211 0
M  V30 5 C 0.2467 0.5664 -0.5769 0
M  V30 6 H -0.0564 1.5727 -0.264 0
M  V30 7 H -0.1745 0.3921 -1.5741 0
M  V30 8 H 1.3385 0.5691 -0.6777 0
M  V30 END ATOM
M  V30 BEGIN BOND
M  V30 1 1 1 2
M  V30 2 1 2 3
M  V30 3 1 2 4
M  V30 4 1 2 5
M  V30 5 1 5 6
M  V30 6 1 5 7
M  V30 7 1 5 8
M  V30 END BOND
M  V30 END CTAB
M  END
>  <NO.>
771

>  <Name>
methylchloroform

>  <SMILES>
CC(Cl)(Cl)Cl

>  <logBB>
0.4

>  <Class>
1

>  <MW>
131.93

>  <nHBAcc>
0

>  <nHBDon>
0

>  <SLogP>
2.38

>  <TopoPSA>
0

>  <MMFF94 Energy>
3.0703

$$$$
O=C1CC(=O)N(c2ccccc2)c2cc(Cl)ccc2N1
Actelion Java MolfileCreator 2.0

  0  0  0  0  0  0              0 V3000
M  V30 BEGIN CTAB
M  V30 COUNTS 31 33 0 0 0
M  V30 BEGIN ATOM
M  V30 1 Cl -3.2535 -2.765 1.5444 0
M  V30 2 C -2.6161 -1.6284 0.422 0
M  V30 3 C -1.2552 -1.3261 0.4384 0
M  V30 4 C -3.4633 -1.0114 -0.4904 0
M  V30 5 C -0.7114 -0.3927 -0.4663 0
M  V30 6 C -2.9413 -0.099 -1.4069 0
M  V30 7 N 0.675 -0.049 -0.3549 0
M  V30 8 C -1.5702 0.1964 -1.4179 0
M  V30 9 C 1.5476 0.094 -1.4358 0
M  V30 10 C 1.1555 0.1917 0.9677 0
M  V30 11 N -1.1439 1.0967 -2.4048 0
M  V30 12 O 2.7489 0.3531 -1.3279 0
M  V30 13 C 0.9534 -0.1012 -2.7985 0
M  V30 14 C 0.5472 1.1633 1.7756 0
M  V30 15 C 2.2325 -0.5461 1.4744 0
M  V30 16 C 0.0151 1.0187 -3.1253 0
M  V30 17 C 1.0044 1.3828 3.0765 0
M  V30 18 C 2.6876 -0.3233 2.7754 0
M  V30 19 O 0.2268 1.8214 -4.0322 0
M  V30 20 C 2.072 0.6381 3.5759 0
M  V30 21 H -0.6181 -1.8184 1.1706 0
M  V30 22 H -4.5261 -1.2413 -0.5003 0
M  V30 23 H -3.6141 0.3607 -2.1283 0
M  V30 24 H -1.7814 1.8167 -2.7268 0
M  V30 25 H 1.762 -0.106 -3.5385 0
M  V30 26 H 0.4498 -1.0703 -2.8725 0
M  V30 27 H -0.2766 1.7622 1.3967 0
M  V30 28 H 2.7284 -1.2923 0.8586 0
M  V30 29 H 0.5324 2.1396 3.6981 0
M  V30 30 H 3.5282 -0.895 3.1604 0
M  V30 31 H 2.4315 0.8136 4.5869 0
M  V30 END ATOM
M  V30 BEGIN BOND
M  V30 1 1 1 2
M  V30 2 2 2 3
M  V30 3 1 2 4
M  V30 4 1 3 5
M  V30 5 2 4 6
M  V30 6 1 5 7
M  V30 7 2 5 8
M  V30 8 1 7 9
M  V30 9 1 7 10
M  V30 10 1 8 11
M  V30 11 2 9 12
M  V30 12 1 9 13
M  V30 13 2 10 14
M  V30 14 1 10 15
M  V30 15 1 11 16
M  V30 16 1 14 17
M  V30 17 2 15 18
M  V30 18 2 16 19
M  V30 19 2 17 20
M  V30 20 1 6 8
M  V30 21 1 13 16
M  V30 22 1 18 20
M  V30 23 1 3 21
M  V30 24 1 4 22
M  V30 25 1 6 23
M  V30 26 1 11 24
M  V30 27 1 13 25
M  V30 28 1 13 26
M  V30 29 1 14 27
M  V30 30 1 15 28
M  V30 31 1 17 29
M  V30 32 1 18 30
M  V30 33 1 20 31
M  V30 END BOND
M  V30 END CTAB
M  END
>  <NO.>
772

>  <Name>
desmethylclobazam;          norclobazam; nordiazepam

>  <SMILES>
O=C1CC(=O)N(c2ccccc2)c2cc(Cl)ccc2N1

>  <logBB>
0.4

>  <Class>
1

>  <MW>
286.05

>  <nHBAcc>
2

>  <nHBDon>
1

>  <SLogP>
3.35

>  <TopoPSA>
49.41

>  <MMFF94 Energy>
29.694

$$$$
c1ccccc1
Actelion Java MolfileCreator 2.0

  0  0  0  0  0  0              0 V3000
M  V30 BEGIN CTAB
M  V30 COUNTS 12 12 0 0 0
M  V30 BEGIN ATOM
M  V30 1 C 1.319 0.3102 -0.1551 0
M  V30 2 C 0.7763 0.1023 1.1129 0
M  V30 3 C 0.5138 0.1855 -1.2871 0
M  V30 4 C -0.5713 -0.2303 1.2488 0
M  V30 5 C -0.8339 -0.1471 -1.1512 0
M  V30 6 C -1.3765 -0.355 0.1168 0
M  V30 7 H 2.3689 0.5694 -0.2609 0
M  V30 8 H 1.4036 0.1995 1.995 0
M  V30 9 H 0.9365 0.3475 -2.275 0
M  V30 10 H -0.9941 -0.3923 2.2368 0
M  V30 11 H -1.4612 -0.2442 -2.0332 0
M  V30 12 H -2.4266 -0.6142 0.2227 0
M  V30 END ATOM
M  V30 BEGIN BOND
M  V30 1 2 1 2
M  V30 2 1 1 3
M  V30 3 1 2 4
M  V30 4 2 3 5
M  V30 5 2 4 6
M  V30 6 1 5 6
M  V30 7 1 1 7
M  V30 8 1 2 8
M  V30 9 1 3 9
M  V30 10 1 4 10
M  V30 11 1 5 11
M  V30 12 1 6 12
M  V30 END BOND
M  V30 END CTAB
M  END
>  <NO.>
774

>  <Name>
benzene

>  <SMILES>
c1ccccc1

>  <logBB>
0.4

>  <Class>
1

>  <MW>
78.05

>  <nHBAcc>
0

>  <nHBDon>
0

>  <SLogP>
1.69

>  <TopoPSA>
0

>  <MMFF94 Energy>
16.227

$$$$
Cc1ccccc1
Actelion Java MolfileCreator 2.0

  0  0  0  0  0  0              0 V3000
M  V30 BEGIN CTAB
M  V30 COUNTS 15 15 0 0 0
M  V30 BEGIN ATOM
M  V30 1 C 0.31 -0.465 -0.465 0
M  V30 2 C -0.965 -0.7445 0.0419 0
M  V30 3 C 0.9539 0.7153 -0.074 0
M  V30 4 C 0.9507 -1.3863 -1.4599 0
M  V30 5 C -1.5745 0.1292 0.9439 0
M  V30 6 C 0.3434 1.5884 0.828 0
M  V30 7 C -0.9194 1.2943 1.3384 0
M  V30 8 H -1.4913 -1.6461 -0.2625 0
M  V30 9 H 1.9365 0.9615 -0.4696 0
M  V30 10 H 0.6676 -1.0949 -2.4759 0
M  V30 11 H 2.0419 -1.3562 -1.3737 0
M  V30 12 H 0.6404 -2.4224 -1.289 0
M  V30 13 H -2.562 -0.098 1.3364 0
M  V30 14 H 0.8526 2.4996 1.1301 0
M  V30 15 H -1.3946 1.9746 2.0399 0
M  V30 END ATOM
M  V30 BEGIN BOND
M  V30 1 2 1 2
M  V30 2 1 1 3
M  V30 3 1 1 4
M  V30 4 1 2 5
M  V30 5 2 3 6
M  V30 6 2 5 7
M  V30 7 1 6 7
M  V30 8 1 2 8
M  V30 9 1 3 9
M  V30 10 1 4 10
M  V30 11 1 4 11
M  V30 12 1 4 12
M  V30 13 1 5 13
M  V30 14 1 6 14
M  V30 15 1 7 15
M  V30 END BOND
M  V30 END CTAB
M  END
>  <NO.>
775

>  <Name>
toluene

>  <SMILES>
Cc1ccccc1

>  <logBB>
0.4

>  <Class>
1

>  <MW>
92.06

>  <nHBAcc>
0

>  <nHBDon>
0

>  <SLogP>
2

>  <TopoPSA>
0

>  <MMFF94 Energy>
18.417

$$$$
Cc1ccc(C)cc1
Actelion Java MolfileCreator 2.0

  0  0  0  0  0  0              0 V3000
M  V30 BEGIN CTAB
M  V30 COUNTS 18 18 0 0 0
M  V30 BEGIN ATOM
M  V30 1 C -0.2323 0.2323 -1.395 0
M  V30 2 C 1.0694 0.0608 -0.9123 0
M  V30 3 C -1.3027 0.1679 -0.4963 0
M  V30 4 C -0.4726 0.5373 -2.8433 0
M  V30 5 C 1.2956 -0.1921 0.4429 0
M  V30 6 C -1.0765 -0.085 0.8589 0
M  V30 7 C 0.2252 -0.2566 1.3415 0
M  V30 8 C 0.4654 -0.5614 2.79 0
M  V30 9 H 1.918 0.1194 -1.5898 0
M  V30 10 H -2.3225 0.3107 -0.8461 0
M  V30 11 H 0.2916 0.0701 -3.473 0
M  V30 12 H -1.4431 0.1482 -3.1688 0
M  V30 13 H -0.4525 1.6192 -3.0062 0
M  V30 14 H 2.3153 -0.3349 0.7928 0
M  V30 15 H -1.9252 -0.1435 1.5364 0
M  V30 16 H -0.2988 -0.0941 3.4197 0
M  V30 17 H 0.4452 -1.6433 2.953 0
M  V30 18 H 1.4358 -0.1723 3.1155 0
M  V30 END ATOM
M  V30 BEGIN BOND
M  V30 1 2 1 2
M  V30 2 1 1 3
M  V30 3 1 1 4
M  V30 4 1 2 5
M  V30 5 2 3 6
M  V30 6 2 5 7
M  V30 7 1 7 8
M  V30 8 1 6 7
M  V30 9 1 2 9
M  V30 10 1 3 10
M  V30 11 1 4 11
M  V30 12 1 4 12
M  V30 13 1 4 13
M  V30 14 1 5 14
M  V30 15 1 6 15
M  V30 16 1 8 16
M  V30 17 1 8 17
M  V30 18 1 8 18
M  V30 END BOND
M  V30 END CTAB
M  END
>  <NO.>
776

>  <Name>
p-xylene 

>  <SMILES>
Cc1ccc(C)cc1

>  <logBB>
0.4

>  <Class>
1

>  <MW>
106.08

>  <nHBAcc>
0

>  <nHBDon>
0

>  <SLogP>
2.3

>  <TopoPSA>
0

>  <MMFF94 Energy>
20.617

$$$$
Cc1ncc2n1-c1ccc(Cl)cc1C(c1ccccc1F)=NC2
Actelion Java MolfileCreator 2.0

  0  0  0  0  0  0              0 V3000
M  V30 BEGIN CTAB
M  V30 COUNTS 36 39 0 0 0
M  V30 BEGIN ATOM
M  V30 1 Cl -3.6783 2.9418 0.8982 0
M  V30 2 C -2.3081 1.9346 1.1579 0
M  V30 3 C -1.469 1.6208 0.0898 0
M  V30 4 C -2.0401 1.4517 2.4359 0
M  V30 5 C -0.3481 0.7984 0.2901 0
M  V30 6 C -0.9256 0.6397 2.6521 0
M  V30 7 C 0.525 0.507 -0.8923 0
M  V30 8 C -0.0897 0.2947 1.5789 0
M  V30 9 N 1.8156 0.5055 -0.892 0
M  V30 10 C -0.1479 0.1699 -2.1708 0
M  V30 11 N 1.0474 -0.5095 1.8273 0
M  V30 12 C 2.5492 0.8054 0.3296 0
M  V30 13 C 0.0629 0.9584 -3.301 0
M  V30 14 C -0.986 -0.9488 -2.2404 0
M  V30 15 C 2.2986 -0.2717 1.3067 0
M  V30 16 C 1.1563 -1.6506 2.6105 0
M  V30 17 F 0.8298 2.0568 -3.2436 0
M  V30 18 C -0.5633 0.643 -4.5037 0
M  V30 19 C -1.6127 -1.2654 -3.4479 0
M  V30 20 C 3.1206 -1.22 1.8658 0
M  V30 21 N 2.4109 -2.0564 2.6812 0
M  V30 22 C 0.014 -2.3605 3.2427 0
M  V30 23 C -1.4019 -0.4706 -4.5776 0
M  V30 24 H -1.6842 2.0394 -0.8906 0
M  V30 25 H -2.6853 1.7166 3.2707 0
M  V30 26 H -0.7113 0.3139 3.6676 0
M  V30 27 H 2.2831 1.7921 0.7278 0
M  V30 28 H 3.6172 0.8502 0.0883 0
M  V30 29 H -1.1385 -1.5843 -1.3721 0
M  V30 30 H -0.3944 1.2685 -5.3749 0
M  V30 31 H -2.2593 -2.138 -3.5122 0
M  V30 32 H 4.1829 -1.3556 1.7069 0
M  V30 33 H -0.2257 -1.919 4.2142 0
M  V30 34 H 0.2733 -3.4112 3.411 0
M  V30 35 H -0.8768 -2.342 2.6079 0
M  V30 36 H -1.8884 -0.7218 -5.5175 0
M  V30 END ATOM
M  V30 BEGIN BOND
M  V30 1 1 1 2
M  V30 2 2 2 3
M  V30 3 1 2 4
M  V30 4 1 3 5
M  V30 5 2 4 6
M  V30 6 1 5 7
M  V30 7 2 5 8
M  V30 8 2 7 9
M  V30 9 1 7 10
M  V30 10 1 8 11
M  V30 11 1 9 12
M  V30 12 2 10 13
M  V30 13 1 10 14
M  V30 14 1 11 15
M  V30 15 1 11 16
M  V30 16 1 13 17
M  V30 17 1 13 18
M  V30 18 2 14 19
M  V30 19 2 15 20
M  V30 20 2 16 21
M  V30 21 1 16 22
M  V30 22 2 18 23
M  V30 23 1 6 8
M  V30 24 1 12 15
M  V30 25 1 19 23
M  V30 26 1 20 21
M  V30 27 1 3 24
M  V30 28 1 4 25
M  V30 29 1 6 26
M  V30 30 1 12 27
M  V30 31 1 12 28
M  V30 32 1 14 29
M  V30 33 1 18 30
M  V30 34 1 19 31
M  V30 35 1 20 32
M  V30 36 1 22 33
M  V30 37 1 22 34
M  V30 38 1 22 35
M  V30 39 1 23 36
M  V30 END BOND
M  V30 END CTAB
M  END
>  <NO.>
777

>  <Name>
midazolam

>  <SMILES>
Cc1ncc2n1-c1ccc(Cl)cc1C(c1ccccc1F)=NC2

>  <logBB>
0.4

>  <Class>
1

>  <MW>
325.08

>  <nHBAcc>
2

>  <nHBDon>
0

>  <SLogP>
4.32

>  <TopoPSA>
30.18

>  <MMFF94 Energy>
75.73

$$$$
FS(F)(F)(F)(F)F
Actelion Java MolfileCreator 2.0

  0  0  0  0  0  0              0 V3000
M  V30 BEGIN CTAB
M  V30 COUNTS 7 6 0 0 0
M  V30 BEGIN ATOM
M  V30 1 S 0.0 0.0 0.0 0
M  V30 2 F 1.5007 0.7227 -0.1378 0
M  V30 3 F -0.71 1.4572 0.4287 0
M  V30 4 F 0.4064 -0.353 1.663 0
M  V30 5 F -1.5508 -0.7878 0.2664 0
M  V30 6 F 0.5558 -1.4879 -0.5258 0
M  V30 7 F -0.4468 0.2912 -1.5759 0
M  V30 END ATOM
M  V30 BEGIN BOND
M  V30 1 1 1 2
M  V30 2 1 1 3
M  V30 3 1 1 4
M  V30 4 1 1 5
M  V30 5 1 1 6
M  V30 6 1 1 7
M  V30 END BOND
M  V30 END CTAB
M  END
>  <NO.>
778

>  <Name>
elegas

>  <SMILES>
FS(F)(F)(F)(F)F

>  <logBB>
0.4

>  <Class>
1

>  <MW>
145.96

>  <nHBAcc>
0

>  <nHBDon>
0

>  <SLogP>
3.17

>  <TopoPSA>
0

>  <MMFF94 Energy>
Couldn't assign an atom type to atom 0 (S)

$$$$
Cc1ccccc1C
Actelion Java MolfileCreator 2.0

  0  0  0  0  0  0              0 V3000
M  V30 BEGIN CTAB
M  V30 COUNTS 18 18 0 0 0
M  V30 BEGIN ATOM
M  V30 1 C 0.5427 0.31 0.31 0
M  V30 2 C -0.6599 -0.4024 0.1268 0
M  V30 3 C 1.2671 0.7347 -0.8149 0
M  V30 4 C 1.0661 0.6251 1.6845 0
M  V30 5 C -1.1064 -0.6716 -1.1766 0
M  V30 6 C -1.4748 -0.8803 1.2973 0
M  V30 7 C 0.8107 0.4597 -2.1037 0
M  V30 8 C -0.3757 -0.2431 -2.2845 0
M  V30 9 H 2.1971 1.2858 -0.6936 0
M  V30 10 H 0.3463 1.2402 2.234 0
M  V30 11 H 2.0078 1.1825 1.6384 0
M  V30 12 H 1.2572 -0.2985 2.2397 0
M  V30 13 H -2.0319 -1.22 -1.3381 0
M  V30 14 H -1.7994 -0.0311 1.9069 0
M  V30 15 H -0.8885 -1.5699 1.9128 0
M  V30 16 H -2.3739 -1.4137 0.9706 0
M  V30 17 H 1.3818 0.7946 -2.9652 0
M  V30 18 H -0.7334 -0.4586 -3.2876 0
M  V30 END ATOM
M  V30 BEGIN BOND
M  V30 1 2 1 2
M  V30 2 1 1 3
M  V30 3 1 1 4
M  V30 4 1 2 5
M  V30 5 1 2 6
M  V30 6 2 3 7
M  V30 7 2 5 8
M  V30 8 1 7 8
M  V30 9 1 3 9
M  V30 10 1 4 10
M  V30 11 1 4 11
M  V30 12 1 4 12
M  V30 13 1 5 13
M  V30 14 1 6 14
M  V30 15 1 6 15
M  V30 16 1 6 16
M  V30 17 1 7 17
M  V30 18 1 8 18
M  V30 END BOND
M  V30 END CTAB
M  END
>  <NO.>
779

>  <Name>
xylene

>  <SMILES>
Cc1ccccc1C

>  <logBB>
0.4

>  <Class>
1

>  <MW>
106.08

>  <nHBAcc>
0

>  <nHBDon>
0

>  <SLogP>
2.3

>  <TopoPSA>
0

>  <MMFF94 Energy>
21.995

$$$$
CC(=O)OC(C)C
Actelion Java MolfileCreator 2.0

  0  0  0  0  0  0              0 V3000
M  V30 BEGIN CTAB
M  V30 COUNTS 17 16 0 0 0
M  V30 BEGIN ATOM
M  V30 1 O -2.1364 -0.3049 0.3812 0
M  V30 2 C -1.1331 -0.1778 1.0681 0
M  V30 3 O 0.1482 -0.1586 0.6097 0
M  V30 4 C -1.1433 -0.017 2.5576 0
M  V30 5 C 0.3132 -0.3022 -0.8134 0
M  V30 6 C 0.1544 1.0569 -1.4855 0
M  V30 7 C 1.7114 -0.8604 -1.0495 0
M  V30 8 H -0.5966 -0.8407 3.0232 0
M  V30 9 H -0.6985 0.9434 2.8297 0
M  V30 10 H -2.1761 -0.0372 2.9173 0
M  V30 11 H -0.4172 -1.0153 -1.2146 0
M  V30 12 H 0.3232 0.9872 -2.5644 0
M  V30 13 H -0.8501 1.4594 -1.32 0
M  V30 14 H 0.8568 1.7856 -1.0658 0
M  V30 15 H 1.9104 -0.9975 -2.1167 0
M  V30 16 H 1.8249 -1.8268 -0.5463 0
M  V30 17 H 2.4764 -0.1967 -0.6311 0
M  V30 END ATOM
M  V30 BEGIN BOND
M  V30 1 2 1 2
M  V30 2 1 2 3
M  V30 3 1 2 4
M  V30 4 1 3 5
M  V30 5 1 5 6
M  V30 6 1 5 7
M  V30 7 1 4 8
M  V30 8 1 4 9
M  V30 9 1 4 10
M  V30 10 1 5 11
M  V30 11 1 6 12
M  V30 12 1 6 13
M  V30 13 1 6 14
M  V30 14 1 7 15
M  V30 15 1 7 16
M  V30 16 1 7 17
M  V30 END BOND
M  V30 END CTAB
M  END
>  <NO.>
780

>  <Name>
isopropyl acetate

>  <SMILES>
CC(=O)OC(C)C

>  <logBB>
0.4

>  <Class>
1

>  <MW>
102.07

>  <nHBAcc>
2

>  <nHBDon>
0

>  <SLogP>
0.96

>  <TopoPSA>
26.3

>  <MMFF94 Energy>
-8.1623

$$$$
C#CC1(O)CCC2C3C(C)CC4=C(CCC(=O)C4)C3CCC21
Actelion Java MolfileCreator 2.0

  0  0  0  0  0  0              0 V3000
M  V30 BEGIN CTAB
M  V30 COUNTS 48 51 0 0 0
M  V30 BEGIN ATOM
M  V30 1 O -2.6579 3.6257 4.2714 0
M  V30 2 C -1.8277 3.0436 3.5717 0
M  V30 3 C -1.5809 1.5531 3.7041 0
M  V30 4 C -0.9175 3.7985 2.6429 0
M  V30 5 C -1.0447 0.925 2.4383 0
M  V30 6 C -0.923 3.1354 1.2749 0
M  V30 7 C -0.7481 1.6322 1.3283 0
M  V30 8 C -0.9161 -0.5768 2.5026 0
M  V30 9 C -0.2859 0.9693 0.0379 0
M  V30 10 C -0.193 -1.2269 1.3068 0
M  V30 11 C -0.6393 -0.5446 -0.0177 0
M  V30 12 C 1.222 1.2058 -0.1737 0
M  V30 13 C -0.4418 -2.7389 1.3477 0
M  V30 14 C -0.0683 -1.2233 -1.2795 0
M  V30 15 C 1.7176 0.5923 -1.4769 0
M  V30 16 C 1.4055 -0.9087 -1.5768 0
M  V30 17 C -0.7747 -0.8457 -2.5897 0
M  V30 18 C 1.577 -1.4601 -3.0108 0
M  V30 19 C 0.2389 -1.141 -3.705 0
M  V30 20 O 2.6478 -0.8218 -3.6902 0
M  V30 21 C 1.8391 -2.9149 -2.9971 0
M  V30 22 C 2.0585 -4.0961 -2.9888 0
M  V30 23 H -0.8683 1.4046 4.5226 0
M  V30 24 H -2.5334 1.0806 3.9697 0
M  V30 25 H -1.2572 4.8363 2.5599 0
M  V30 26 H 0.088 3.8041 3.0784 0
M  V30 27 H -1.8706 3.348 0.7634 0
M  V30 28 H -0.1308 3.5964 0.6759 0
M  V30 29 H -0.3811 -0.8524 3.4208 0
M  V30 30 H -1.9287 -0.9939 2.5891 0
M  V30 31 H -0.8268 1.4594 -0.7828 0
M  V30 32 H 0.8859 -1.0809 1.4438 0
M  V30 33 H -1.735 -0.6341 -0.0718 0
M  V30 34 H 1.4421 2.2796 -0.1998 0
M  V30 35 H 1.8022 0.8006 0.6642 0
M  V30 36 H -0.2668 -3.1347 2.3545 0
M  V30 37 H 0.2375 -3.2742 0.6777 0
M  V30 38 H -1.4717 -2.9801 1.0638 0
M  V30 39 H -0.1892 -2.3086 -1.1853 0
M  V30 40 H 2.8008 0.7471 -1.5551 0
M  V30 41 H 1.268 1.1408 -2.3142 0
M  V30 42 H 2.0538 -1.4372 -0.8654 0
M  V30 43 H -1.0516 0.2131 -2.6208 0
M  V30 44 H -1.6962 -1.4223 -2.7247 0
M  V30 45 H -0.1134 -1.9712 -4.3288 0
M  V30 46 H 0.3254 -0.2683 -4.3638 0
M  V30 47 H 2.7528 -1.2779 -4.5426 0
M  V30 48 H 2.2576 -5.1431 -2.9773 0
M  V30 END ATOM
M  V30 BEGIN BOND
M  V30 1 2 1 2
M  V30 2 1 2 3
M  V30 3 1 2 4
M  V30 4 1 3 5
M  V30 5 1 4 6
M  V30 6 2 5 7
M  V30 7 1 5 8
M  V30 8 1 7 9
M  V30 9 1 8 10
M  V30 10 1 9 11
M  V30 11 1 9 12
M  V30 12 1 10 13
M  V30 13 1 11 14
M  V30 14 1 12 15
M  V30 15 1 14 16
M  V30 16 1 14 17
M  V30 17 1 16 18
M  V30 18 1 17 19
M  V30 19 1 18 20
M  V30 20 1 18 21
M  V30 21 3 21 22
M  V30 22 1 6 7
M  V30 23 1 10 11
M  V30 24 1 15 16
M  V30 25 1 18 19
M  V30 26 1 3 23
M  V30 27 1 3 24
M  V30 28 1 4 25
M  V30 29 1 4 26
M  V30 30 1 6 27
M  V30 31 1 6 28
M  V30 32 1 8 29
M  V30 33 1 8 30
M  V30 34 1 9 31
M  V30 35 1 10 32
M  V30 36 1 11 33
M  V30 37 1 12 34
M  V30 38 1 12 35
M  V30 39 1 13 36
M  V30 40 1 13 37
M  V30 41 1 13 38
M  V30 42 1 14 39
M  V30 43 1 15 40
M  V30 44 1 15 41
M  V30 45 1 16 42
M  V30 46 1 17 43
M  V30 47 1 17 44
M  V30 48 1 19 45
M  V30 49 1 19 46
M  V30 50 1 20 47
M  V30 51 1 22 48
M  V30 END BOND
M  V30 END CTAB
M  END
>  <NO.>
781

>  <Name>
tibolone

>  <SMILES>
C#CC1(O)CCC2C3C(C)CC4=C(CCC(=O)C4)C3CCC21

>  <logBB>
0.4

>  <Class>
1

>  <MW>
298.19

>  <nHBAcc>
2

>  <nHBDon>
1

>  <SLogP>
3.49

>  <TopoPSA>
37.3

>  <MMFF94 Energy>
57.138

$$$$
C#CC1(O)CCC2C3C(C)CC4=C(CCC(=O)C4)C3CCC21C
Actelion Java MolfileCreator 2.0

  0  0  0  0  0  0              0 V3000
M  V30 BEGIN CTAB
M  V30 COUNTS 51 54 0 0 0
M  V30 BEGIN ATOM
M  V30 1 O -2.173 3.4624 3.7043 0
M  V30 2 C -1.3437 3.2407 2.8208 0
M  V30 3 C -0.1672 2.3136 3.0472 0
M  V30 4 C -1.3672 3.9866 1.5173 0
M  V30 5 C 0.3778 1.7155 1.7696 0
M  V30 6 C -1.2382 3.0004 0.3676 0
M  V30 7 C -0.1344 1.9771 0.5447 0
M  V30 8 C 1.5468 0.7817 1.994 0
M  V30 9 C 0.392 1.3051 -0.7327 0
M  V30 10 C 2.2977 0.3834 0.715 0
M  V30 11 C 1.3099 0.0731 -0.4328 0
M  V30 12 C -0.7087 0.9443 -1.7708 0
M  V30 13 C 3.3127 1.4648 0.3161 0
M  V30 14 C 0.4378 -1.1648 -0.1304 0
M  V30 15 C -1.4856 -0.3443 -1.4647 0
M  V30 16 C -0.534 -1.5379 -1.2748 0
M  V30 17 C 1.1308 -2.4878 0.1892 0
M  V30 18 C -1.1645 -2.8288 -0.6747 0
M  V30 19 C 0.1909 -1.8537 -2.6145 0
M  V30 20 C 0.0483 -3.5628 -0.0505 0
M  V30 21 O -2.064 -2.4924 0.3841 0
M  V30 22 C -1.8916 -3.6669 -1.6407 0
M  V30 23 C -2.4958 -4.3538 -2.4194 0
M  V30 24 H 0.6152 2.8943 3.548 0
M  V30 25 H -0.4964 1.5081 3.7131 0
M  V30 26 H -0.5405 4.7061 1.5195 0
M  V30 27 H -2.3041 4.5468 1.4307 0
M  V30 28 H -2.1883 2.4669 0.2395 0
M  V30 29 H -1.0597 3.583 -0.5441 0
M  V30 30 H 1.171 -0.121 2.4921 0
M  V30 31 H 2.2544 1.243 2.6949 0
M  V30 32 H 1.0136 2.0705 -1.2197 0
M  V30 33 H 2.8865 -0.5165 0.9335 0
M  V30 34 H 1.9098 -0.1325 -1.3276 0
M  V30 35 H -1.4244 1.7636 -1.8971 0
M  V30 36 H -0.2307 0.8497 -2.7536 0
M  V30 37 H 2.8474 2.4444 0.1709 0
M  V30 38 H 4.0748 1.5765 1.0953 0
M  V30 39 H 3.8269 1.1903 -0.6108 0
M  V30 40 H -0.1678 -0.9226 0.7553 0
M  V30 41 H -2.1911 -0.5479 -2.2792 0
M  V30 42 H -2.0913 -0.1779 -0.5657 0
M  V30 43 H 1.493 -2.5202 1.2219 0
M  V30 44 H 1.9905 -2.6595 -0.4681 0
M  V30 45 H 0.8344 -1.0394 -2.9556 0
M  V30 46 H -0.5368 -2.0313 -3.4147 0
M  V30 47 H 0.8242 -2.7443 -2.55 0
M  V30 48 H -0.2168 -4.0473 0.8965 0
M  V30 49 H 0.4548 -4.3357 -0.7139 0
M  V30 50 H -2.4972 -3.3176 0.6617 0
M  V30 51 H -3.035 -4.9581 -3.1123 0
M  V30 END ATOM
M  V30 BEGIN BOND
M  V30 1 2 1 2
M  V30 2 1 2 3
M  V30 3 1 2 4
M  V30 4 1 3 5
M  V30 5 1 4 6
M  V30 6 2 5 7
M  V30 7 1 5 8
M  V30 8 1 7 9
M  V30 9 1 8 10
M  V30 10 1 9 11
M  V30 11 1 9 12
M  V30 12 1 10 13
M  V30 13 1 11 14
M  V30 14 1 12 15
M  V30 15 1 14 16
M  V30 16 1 14 17
M  V30 17 1 16 18
M  V30 18 1 16 19
M  V30 19 1 17 20
M  V30 20 1 18 21
M  V30 21 1 18 22
M  V30 22 3 22 23
M  V30 23 1 6 7
M  V30 24 1 10 11
M  V30 25 1 15 16
M  V30 26 1 18 20
M  V30 27 1 3 24
M  V30 28 1 3 25
M  V30 29 1 4 26
M  V30 30 1 4 27
M  V30 31 1 6 28
M  V30 32 1 6 29
M  V30 33 1 8 30
M  V30 34 1 8 31
M  V30 35 1 9 32
M  V30 36 1 10 33
M  V30 37 1 11 34
M  V30 38 1 12 35
M  V30 39 1 12 36
M  V30 40 1 13 37
M  V30 41 1 13 38
M  V30 42 1 13 39
M  V30 43 1 14 40
M  V30 44 1 15 41
M  V30 45 1 15 42
M  V30 46 1 17 43
M  V30 47 1 17 44
M  V30 48 1 19 45
M  V30 49 1 19 46
M  V30 50 1 19 47
M  V30 51 1 20 48
M  V30 52 1 20 49
M  V30 53 1 21 50
M  V30 54 1 23 51
M  V30 END BOND
M  V30 END CTAB
M  END
>  <NO.>
782

>  <Name>
tibolone

>  <SMILES>
C#CC1(O)CCC2C3C(C)CC4=C(CCC(=O)C4)C3CCC21C

>  <logBB>
0.4

>  <Class>
1

>  <MW>
312.21

>  <nHBAcc>
2

>  <nHBDon>
1

>  <SLogP>
3.88

>  <TopoPSA>
37.3

>  <MMFF94 Energy>
72.076

$$$$
CCCCCOC(C)=O
Actelion Java MolfileCreator 2.0

  0  0  0  0  0  0              0 V3000
M  V30 BEGIN CTAB
M  V30 COUNTS 23 22 0 0 0
M  V30 BEGIN ATOM
M  V30 1 O 2.7597 -0.8426 2.376 0
M  V30 2 C 2.7915 0.215 1.7631 0
M  V30 3 O 1.8564 0.6411 0.8706 0
M  V30 4 C 3.8798 1.2363 1.8912 0
M  V30 5 C 0.7685 -0.2732 0.6786 0
M  V30 6 C -0.1881 0.3378 -0.3394 0
M  V30 7 C -1.3843 -0.573 -0.6071 0
M  V30 8 C -2.3376 0.0469 -1.6283 0
M  V30 9 C -3.5301 -0.857 -1.8977 0
M  V30 10 H 4.3693 1.3798 0.9247 0
M  V30 11 H 3.4629 2.1786 2.2557 0
M  V30 12 H 4.6249 0.8838 2.6103 0
M  V30 13 H 0.2522 -0.4324 1.6327 0
M  V30 14 H 1.1557 -1.2287 0.3058 0
M  V30 15 H -0.5289 1.3154 0.0243 0
M  V30 16 H 0.354 0.5372 -1.2722 0
M  V30 17 H -1.9213 -0.7596 0.3308 0
M  V30 18 H -1.0314 -1.5439 -0.9759 0
M  V30 19 H -2.6966 1.016 -1.2625 0
M  V30 20 H -1.8066 0.2317 -2.5694 0
M  V30 21 H -4.1986 -0.3943 -2.6306 0
M  V30 22 H -3.2071 -1.8243 -2.2956 0
M  V30 23 H -4.1021 -1.0356 -0.9815 0
M  V30 END ATOM
M  V30 BEGIN BOND
M  V30 1 2 1 2
M  V30 2 1 2 3
M  V30 3 1 2 4
M  V30 4 1 3 5
M  V30 5 1 5 6
M  V30 6 1 6 7
M  V30 7 1 7 8
M  V30 8 1 8 9
M  V30 9 1 4 10
M  V30 10 1 4 11
M  V30 11 1 4 12
M  V30 12 1 5 13
M  V30 13 1 5 14
M  V30 14 1 6 15
M  V30 15 1 6 16
M  V30 16 1 7 17
M  V30 17 1 7 18
M  V30 18 1 8 19
M  V30 19 1 8 20
M  V30 20 1 9 21
M  V30 21 1 9 22
M  V30 22 1 9 23
M  V30 END BOND
M  V30 END CTAB
M  END
>  <NO.>
784

>  <Name>
pentyl acetate

>  <SMILES>
CCCCCOC(C)=O

>  <logBB>
0.4

>  <Class>
1

>  <MW>
130.1

>  <nHBAcc>
2

>  <nHBDon>
0

>  <SLogP>
1.74

>  <TopoPSA>
26.3

>  <MMFF94 Energy>
-11.845

$$$$
c1ccc(C2(N3CCCCC3)CCCCC2)cc1
Actelion Java MolfileCreator 2.0

  0  0  0  0  0  0              0 V3000
M  V30 BEGIN CTAB
M  V30 COUNTS 43 45 0 0 0
M  V30 BEGIN ATOM
M  V30 1 N 1.27 -0.238 -0.1586 0
M  V30 2 C -0.1957 -0.6057 -0.1959 0
M  V30 3 C 1.6454 0.8822 -1.043 0
M  V30 4 C 1.8333 -0.0203 1.1855 0
M  V30 5 C -1.1008 0.5929 0.2093 0
M  V30 6 C -0.5046 -1.1454 -1.6449 0
M  V30 7 C -0.4384 -1.8582 0.7296 0
M  V30 8 C 3.1658 1.0261 -1.1574 0
M  V30 9 C 3.3602 0.1034 1.1466 0
M  V30 10 C -1.4012 0.8675 1.5587 0
M  V30 11 C -1.6274 1.485 -0.7461 0
M  V30 12 C -1.8916 -1.7762 -1.8083 0
M  V30 13 C -1.8297 -2.4847 0.5928 0
M  V30 14 C 3.8074 1.2128 0.2082 0
M  V30 15 C -2.2063 1.9501 1.9296 0
M  V30 16 C -2.433 2.5684 -0.3778 0
M  V30 17 C -2.1069 -2.9224 -0.835 0
M  V30 18 C -2.7262 2.7985 0.9603 0
M  V30 19 H 1.2768 0.7353 -2.061 0
M  V30 20 H 1.2281 1.8287 -0.6781 0
M  V30 21 H 1.4147 0.881 1.6481 0
M  V30 22 H 1.6221 -0.8605 1.8517 0
M  V30 23 H 0.2426 -1.9101 -1.9038 0
M  V30 24 H -0.4063 -0.3747 -2.4144 0
M  V30 25 H -0.2907 -1.6352 1.7901 0
M  V30 26 H 0.3047 -2.6311 0.4849 0
M  V30 27 H 3.4082 1.8816 -1.798 0
M  V30 28 H 3.5836 0.135 -1.6426 0
M  V30 29 H 3.7399 0.2995 2.1559 0
M  V30 30 H 3.7961 -0.8498 0.8218 0
M  V30 31 H -1.0045 0.2485 2.3579 0
M  V30 32 H -1.4157 1.3642 -1.8042 0
M  V30 33 H -1.9999 -2.1489 -2.8336 0
M  V30 34 H -2.6739 -1.0222 -1.6678 0
M  V30 35 H -2.6001 -1.7775 0.9202 0
M  V30 36 H -1.9014 -3.354 1.2567 0
M  V30 37 H 3.5163 2.1858 0.6226 0
M  V30 38 H 4.8989 1.214 0.1166 0
M  V30 39 H -2.4207 2.1297 2.98 0
M  V30 40 H -2.8261 3.234 -1.1419 0
M  V30 41 H -3.1336 -3.2957 -0.9187 0
M  V30 42 H -1.4431 -3.7551 -1.0978 0
M  V30 43 H -3.3503 3.64 1.2471 0
M  V30 END ATOM
M  V30 BEGIN BOND
M  V30 1 1 1 2
M  V30 2 1 1 3
M  V30 3 1 1 4
M  V30 4 1 2 5
M  V30 5 1 2 6
M  V30 6 1 2 7
M  V30 7 1 3 8
M  V30 8 1 4 9
M  V30 9 2 5 10
M  V30 10 1 5 11
M  V30 11 1 6 12
M  V30 12 1 7 13
M  V30 13 1 8 14
M  V30 14 1 10 15
M  V30 15 2 11 16
M  V30 16 1 12 17
M  V30 17 2 15 18
M  V30 18 1 9 14
M  V30 19 1 13 17
M  V30 20 1 16 18
M  V30 21 1 3 19
M  V30 22 1 3 20
M  V30 23 1 4 21
M  V30 24 1 4 22
M  V30 25 1 6 23
M  V30 26 1 6 24
M  V30 27 1 7 25
M  V30 28 1 7 26
M  V30 29 1 8 27
M  V30 30 1 8 28
M  V30 31 1 9 29
M  V30 32 1 9 30
M  V30 33 1 10 31
M  V30 34 1 11 32
M  V30 35 1 12 33
M  V30 36 1 12 34
M  V30 37 1 13 35
M  V30 38 1 13 36
M  V30 39 1 14 37
M  V30 40 1 14 38
M  V30 41 1 15 39
M  V30 42 1 16 40
M  V30 43 1 17 41
M  V30 44 1 17 42
M  V30 45 1 18 43
M  V30 END BOND
M  V30 END CTAB
M  END
>  <NO.>
787

>  <Name>
phencyclidine

>  <SMILES>
c1ccc(C2(N3CCCCC3)CCCCC2)cc1

>  <logBB>
0.4

>  <Class>
1

>  <MW>
243.2

>  <nHBAcc>
1

>  <nHBDon>
0

>  <SLogP>
4.33

>  <TopoPSA>
3.24

>  <MMFF94 Energy>
37.428

$$$$
CC(C)Oc1ccc(OC(F)(F)F)cc1CNC1CCCNC1c1ccccc1
Actelion Java MolfileCreator 2.0

  0  0  0  0  0  0              0 V3000
M  V30 BEGIN CTAB
M  V30 COUNTS 56 58 0 0 0
M  V30 BEGIN ATOM
M  V30 1 F -2.5517 -1.5942 5.2684 0
M  V30 2 C -1.2649 -1.5367 5.6746 0
M  V30 3 F -0.5192 -2.3779 4.9263 0
M  V30 4 F -1.2118 -1.9582 6.9578 0
M  V30 5 O -0.7662 -0.2123 5.6098 0
M  V30 6 C -0.7317 0.3962 4.3889 0
M  V30 7 C -1.1456 -0.1482 3.1749 0
M  V30 8 C -0.2228 1.6944 4.4037 0
M  V30 9 C -1.0558 0.5956 1.9777 0
M  V30 10 C -0.1209 2.4413 3.2255 0
M  V30 11 C -0.5269 1.8997 2.0049 0
M  V30 12 C -1.5047 -0.0564 0.6853 0
M  V30 13 O -0.468 2.5472 0.8019 0
M  V30 14 N -0.4387 -0.8783 0.1189 0
M  V30 15 C 0.2241 3.7937 0.6879 0
M  V30 16 C -0.8087 -1.5372 -1.1456 0
M  V30 17 C 1.7332 3.571 0.6273 0
M  V30 18 C -0.2562 4.4347 -0.6131 0
M  V30 19 C 0.4646 -2.0161 -1.946 0
M  V30 20 C -1.7292 -2.7431 -0.8669 0
M  V30 21 N 0.0909 -2.7751 -3.1606 0
M  V30 22 C 1.4547 -0.9276 -2.3652 0
M  V30 23 C -2.0373 -3.5076 -2.1496 0
M  V30 24 C -0.7555 -3.9219 -2.8582 0
M  V30 25 C 2.7591 -1.3133 -2.7308 0
M  V30 26 C 1.1253 0.4332 -2.4494 0
M  V30 27 C 3.7012 -0.373 -3.1527 0
M  V30 28 C 2.0684 1.3743 -2.8747 0
M  V30 29 C 3.355 0.9726 -3.2239 0
M  V30 30 H -1.5466 -1.1563 3.1129 0
M  V30 31 H 0.1044 2.1369 5.3422 0
M  V30 32 H 0.2856 3.4432 3.304 0
M  V30 33 H -1.8244 0.7078 -0.0325 0
M  V30 34 H -2.3964 -0.6566 0.9015 0
M  V30 35 H -0.1106 -1.5588 0.8004 0
M  V30 36 H -0.045 4.4768 1.5008 0
M  V30 37 H -1.3597 -0.8286 -1.7792 0
M  V30 38 H 2.2648 4.5117 0.4525 0
M  V30 39 H 2.1106 3.1366 1.5579 0
M  V30 40 H 1.993 2.8679 -0.1705 0
M  V30 41 H 0.226 5.4022 -0.783 0
M  V30 42 H -1.3408 4.5868 -0.5839 0
M  V30 43 H -0.054 3.7844 -1.4713 0
M  V30 44 H 1.0221 -2.6944 -1.2823 0
M  V30 45 H -1.2521 -3.4236 -0.1492 0
M  V30 46 H -2.6752 -2.4195 -0.4189 0
M  V30 47 H -0.3902 -2.1391 -3.7961 0
M  V30 48 H -2.6327 -4.3969 -1.9136 0
M  V30 49 H -2.6464 -2.8819 -2.8141 0
M  V30 50 H -1.0064 -4.4326 -3.7943 0
M  V30 51 H -0.1992 -4.6446 -2.2492 0
M  V30 52 H 3.0383 -2.3647 -2.6976 0
M  V30 53 H 0.1368 0.7902 -2.1753 0
M  V30 54 H 4.7009 -0.6951 -3.4302 0
M  V30 55 H 1.795 2.4246 -2.9275 0
M  V30 56 H 4.0851 1.7066 -3.5524 0
M  V30 END ATOM
M  V30 BEGIN BOND
M  V30 1 1 1 2
M  V30 2 1 2 3
M  V30 3 1 2 4
M  V30 4 1 2 5
M  V30 5 1 5 6
M  V30 6 2 6 7
M  V30 7 1 6 8
M  V30 8 1 7 9
M  V30 9 2 8 10
M  V30 10 2 9 11
M  V30 11 1 9 12
M  V30 12 1 11 13
M  V30 13 1 12 14
M  V30 14 1 13 15
M  V30 15 1 14 16
M  V30 16 1 15 17
M  V30 17 1 15 18
M  V30 18 1 16 19
M  V30 19 1 16 20
M  V30 20 1 19 21
M  V30 21 1 19 22
M  V30 22 1 20 23
M  V30 23 1 21 24
M  V30 24 2 22 25
M  V30 25 1 22 26
M  V30 26 1 25 27
M  V30 27 2 26 28
M  V30 28 2 27 29
M  V30 29 1 10 11
M  V30 30 1 23 24
M  V30 31 1 28 29
M  V30 32 1 7 30
M  V30 33 1 8 31
M  V30 34 1 10 32
M  V30 35 1 12 33
M  V30 36 1 12 34
M  V30 37 1 14 35
M  V30 38 1 15 36
M  V30 39 1 16 37
M  V30 40 1 17 38
M  V30 41 1 17 39
M  V30 42 1 17 40
M  V30 43 1 18 41
M  V30 44 1 18 42
M  V30 45 1 18 43
M  V30 46 1 19 44
M  V30 47 1 20 45
M  V30 48 1 20 46
M  V30 49 1 21 47
M  V30 50 1 23 48
M  V30 51 1 23 49
M  V30 52 1 24 50
M  V30 53 1 24 51
M  V30 54 1 25 52
M  V30 55 1 26 53
M  V30 56 1 27 54
M  V30 57 1 28 55
M  V30 58 1 29 56
M  V30 END BOND
M  V30 END CTAB
M  END
>  <NO.>
788

>  <Name>
pfizer compound 11

>  <SMILES>
CC(C)Oc1ccc(OC(F)(F)F)cc1CNC1CCCNC1c1ccccc1

>  <logBB>
0.41

>  <Class>
1

>  <MW>
408.2

>  <nHBAcc>
4

>  <nHBDon>
2

>  <SLogP>
4.96

>  <TopoPSA>
42.52

>  <MMFF94 Energy>
80.348

$$$$
C[C@H]1CN(c2c(F)c(N)c3c(=O)c(C(=O)O)cn(C4CC4)c3c2F)C[C@@H](C)N1
Actelion Java MolfileCreator 2.0

  0  0  0  0  0  0              0 V3000
M  V30 BEGIN CTAB
M  V30 COUNTS 50 53 0 0 0
M  V30 BEGIN ATOM
M  V30 1 F -0.8032 -0.8836 0.9639 0
M  V30 2 C -0.4254 0.2144 0.2838 0
M  V30 3 C 0.8522 0.2003 -0.3165 0
M  V30 4 C -1.2841 1.3358 0.2688 0
M  V30 5 N 1.656 -0.9436 -0.2637 0
M  V30 6 C 1.2553 1.4013 -0.9245 0
M  V30 7 N -2.5801 1.3322 0.8717 0
M  V30 8 C -0.8182 2.5127 -0.3569 0
M  V30 9 C 3.1207 -0.8408 -0.3934 0
M  V30 10 C 1.0912 -2.2101 -0.7717 0
M  V30 11 F 2.4603 1.4768 -1.5212 0
M  V30 12 C 0.4468 2.5526 -0.9752 0
M  V30 13 C -3.2672 2.5207 1.0138 0
M  V30 14 C -3.1807 0.1112 1.4422 0
M  V30 15 C -1.7043 3.7205 -0.3694 0
M  V30 16 C 3.8135 -2.0942 0.2096 0 CFG=1
M  V30 17 C 1.83 -3.4264 -0.1517 0 CFG=2
M  V30 18 N 0.9703 3.7187 -1.5385 0
M  V30 19 C -2.9131 3.6985 0.4842 0
M  V30 20 C -4.6409 -0.2371 1.2672 0
M  V30 21 C -3.5976 -1.0409 0.5596 0
M  V30 22 O -1.4522 4.68 -1.0939 0
M  V30 23 N 3.2958 -3.365 -0.3446 0
M  V30 24 C 5.3209 -2.0329 -0.0301 0
M  V30 25 C 1.3111 -4.7284 -0.7593 0
M  V30 26 C -3.7662 4.8587 0.7637 0
M  V30 27 O -4.9527 4.819 1.0463 0
M  V30 28 O -3.0981 6.0217 0.7585 0
M  V30 29 H 3.4907 0.0399 0.1464 0
M  V30 30 H 3.3903 -0.7379 -1.4522 0
M  V30 31 H 0.0229 -2.3087 -0.5533 0
M  V30 32 H 1.1919 -2.2249 -1.8653 0
M  V30 33 H -4.1641 2.4398 1.6255 0
M  V30 34 H -2.742 -0.14 2.4061 0
M  V30 35 H 3.6411 -2.0969 1.2946 0
M  V30 36 H 1.6227 -3.4467 0.9267 0
M  V30 37 H 1.823 3.6749 -2.0827 0
M  V30 38 H 0.3339 4.507 -1.6792 0
M  V30 39 H -5.2705 0.4019 0.6594 0
M  V30 40 H -5.1533 -0.6942 2.1057 0
M  V30 41 H -3.3896 -2.0427 0.916 0
M  V30 42 H -3.5085 -0.9236 -0.5137 0
M  V30 43 H 3.7323 -4.1465 0.1429 0
M  V30 44 H 5.829 -2.8837 0.4371 0
M  V30 45 H 5.5575 -2.0428 -1.1 0
M  V30 46 H 5.7435 -1.1184 0.3999 0
M  V30 47 H 1.7898 -5.5979 -0.2952 0
M  V30 48 H 1.5015 -4.7719 -1.8375 0
M  V30 49 H 0.231 -4.8236 -0.6038 0
M  V30 50 H -3.7756 6.7038 0.9416 0
M  V30 END ATOM
M  V30 BEGIN BOND
M  V30 1 1 1 2
M  V30 2 2 2 3
M  V30 3 1 2 4
M  V30 4 1 3 5
M  V30 5 1 3 6
M  V30 6 1 4 7
M  V30 7 2 4 8
M  V30 8 1 5 9
M  V30 9 1 5 10
M  V30 10 1 6 11
M  V30 11 2 6 12
M  V30 12 1 7 13
M  V30 13 1 7 14
M  V30 14 1 8 15
M  V30 15 1 9 16
M  V30 16 1 10 17
M  V30 17 1 12 18
M  V30 18 2 13 19
M  V30 19 1 14 20
M  V30 20 1 14 21
M  V30 21 2 15 22
M  V30 22 1 16 23
M  V30 23 1 16 24
M  V30 24 1 17 25
M  V30 25 1 19 26
M  V30 26 2 26 27
M  V30 27 1 26 28
M  V30 28 1 8 12
M  V30 29 1 15 19
M  V30 30 1 17 23
M  V30 31 1 20 21
M  V30 32 1 9 29
M  V30 33 1 9 30
M  V30 34 1 10 31
M  V30 35 1 10 32
M  V30 36 1 13 33
M  V30 37 1 14 34
M  V30 38 1 16 35
M  V30 39 1 17 36
M  V30 40 1 18 37
M  V30 41 1 18 38
M  V30 42 1 20 39
M  V30 43 1 20 40
M  V30 44 1 21 41
M  V30 45 1 21 42
M  V30 46 1 23 43
M  V30 47 1 24 44
M  V30 48 1 24 45
M  V30 49 1 24 46
M  V30 50 1 25 47
M  V30 51 1 25 48
M  V30 52 1 25 49
M  V30 53 1 28 50
M  V30 END BOND
M  V30 BEGIN COLLECTION
M  V30 MDLV30/STEABS ATOMS=(2 16 17)
M  V30 END COLLECTION
M  V30 END CTAB
M  END
>  <NO.>
789

>  <Name>
sparfloxacin

>  <SMILES>
C[C@H]1CN(c2c(F)c(N)c3c(=O)c(C(=O)O)cn(C4CC4)c3c2F)C[C@@H](C)N1

>  <logBB>
0.41

>  <Class>
1

>  <MW>
392.17

>  <nHBAcc>
5

>  <nHBDon>
3

>  <SLogP>
2.08

>  <TopoPSA>
100.59

>  <MMFF94 Energy>
167.75

$$$$
Clc1cc(Br)cc(Cl)c1NC1=NCCN1
Actelion Java MolfileCreator 2.0

  0  0  0  0  0  0              0 V3000
M  V30 BEGIN CTAB
M  V30 COUNTS 23 24 0 0 0
M  V30 BEGIN ATOM
M  V30 1 Br -4.5376 1.175 -3.1075 0
M  V30 2 C -2.9767 0.5198 -2.2669 0
M  V30 3 C -3.0131 0.1671 -0.9219 0
M  V30 4 C -1.8059 0.3786 -3.0021 0
M  V30 5 C -1.8589 -0.3209 -0.2967 0
M  V30 6 C -0.6562 -0.1064 -2.3737 0
M  V30 7 Cl -2.0376 -0.868 1.3391 0
M  V30 8 C -0.6491 -0.4593 -1.0075 0
M  V30 9 Cl 0.7787 -0.2674 -3.333 0
M  V30 10 N 0.5643 -0.8543 -0.4023 0
M  V30 11 C 1.1063 -0.2653 0.693 0
M  V30 12 N 0.7415 0.8342 1.2874 0
M  V30 13 N 2.1838 -0.9046 1.2087 0
M  V30 14 C 1.7135 1.0011 2.4044 0
M  V30 15 C 2.5978 -0.2513 2.4199 0
M  V30 16 H -3.9372 0.2581 -0.3559 0
M  V30 17 H -1.7803 0.6481 -4.0546 0
M  V30 18 H 1.2216 -1.3007 -1.0273 0
M  V30 19 H 2.34 -1.8908 1.0686 0
M  V30 20 H 1.18 1.1204 3.3528 0
M  V30 21 H 2.3118 1.9017 2.2289 0
M  V30 22 H 3.662 -4.0E-4 2.4061 0
M  V30 23 H 2.3834 -0.8765 3.2921 0
M  V30 END ATOM
M  V30 BEGIN BOND
M  V30 1 1 1 2
M  V30 2 2 2 3
M  V30 3 1 2 4
M  V30 4 1 3 5
M  V30 5 2 4 6
M  V30 6 1 5 7
M  V30 7 2 5 8
M  V30 8 1 6 9
M  V30 9 1 8 10
M  V30 10 1 10 11
M  V30 11 2 11 12
M  V30 12 1 11 13
M  V30 13 1 12 14
M  V30 14 1 13 15
M  V30 15 1 6 8
M  V30 16 1 14 15
M  V30 17 1 3 16
M  V30 18 1 4 17
M  V30 19 1 10 18
M  V30 20 1 13 19
M  V30 21 1 14 20
M  V30 22 1 14 21
M  V30 23 1 15 22
M  V30 24 1 15 23
M  V30 END BOND
M  V30 END CTAB
M  END
>  <NO.>
790

>  <Name>
tz-21

>  <SMILES>
Clc1cc(Br)cc(Cl)c1NC1=NCCN1

>  <logBB>
0.41

>  <Class>
1

>  <MW>
306.93

>  <nHBAcc>
3

>  <nHBDon>
2

>  <SLogP>
3.13

>  <TopoPSA>
36.42

>  <MMFF94 Energy>
-27.621

$$$$
FC(F)OC(Cl)C(F)(F)F
Actelion Java MolfileCreator 2.0

  0  0  0  0  0  0              0 V3000
M  V30 BEGIN CTAB
M  V30 COUNTS 12 11 0 0 0
M  V30 BEGIN ATOM
M  V30 1 Cl -0.9462 2.1514 1.2043 0
M  V30 2 C -0.5258 0.5653 0.4644 0 CFG=2
M  V30 3 O 0.7902 0.2486 0.9256 0
M  V30 4 C -0.6875 0.6313 -1.0649 0
M  V30 5 C 1.2215 -1.0223 0.4854 0
M  V30 6 F -1.9339 1.0055 -1.4306 0
M  V30 7 F -0.4624 -0.5819 -1.6278 0
M  V30 8 F 0.19 1.4904 -1.631 0
M  V30 9 F 2.1641 -1.4501 1.3546 0
M  V30 10 F 0.1858 -1.8877 0.5664 0
M  V30 11 H -1.2439 -0.1459 0.8851 0
M  V30 12 H 1.6352 -0.9976 -0.5266 0
M  V30 END ATOM
M  V30 BEGIN BOND
M  V30 1 1 1 2
M  V30 2 1 2 3
M  V30 3 1 2 4
M  V30 4 1 3 5
M  V30 5 1 4 6
M  V30 6 1 4 7
M  V30 7 1 4 8
M  V30 8 1 5 9
M  V30 9 1 5 10
M  V30 10 1 2 11
M  V30 11 1 5 12
M  V30 END BOND
M  V30 BEGIN COLLECTION
M  V30 MDLV30/STERAC1 ATOMS=(1 2)
M  V30 END COLLECTION
M  V30 END CTAB
M  END
>  <NO.>
791

>  <Name>
isoflurane

>  <SMILES>
FC(F)OC(Cl)C(F)(F)F

>  <logBB>
0.42

>  <Class>
1

>  <MW>
183.97

>  <nHBAcc>
1

>  <nHBDon>
0

>  <SLogP>
2.35

>  <TopoPSA>
9.23

>  <MMFF94 Energy>
22.981

$$$$
CCCCOC(=O)c1ccc(N)cc1
Actelion Java MolfileCreator 2.0

  0  0  0  0  0  0              0 V3000
M  V30 BEGIN CTAB
M  V30 COUNTS 29 29 0 0 0
M  V30 BEGIN ATOM
M  V30 1 O -0.5444 -1.7896 0.5444 0
M  V30 2 C -0.5321 -0.5692 0.5123 0
M  V30 3 O 0.4846 0.2285 0.9245 0
M  V30 4 C -1.6633 0.2494 -0.0028 0
M  V30 5 C 1.6382 -0.4499 1.4459 0
M  V30 6 C -2.8025 -0.4147 -0.4718 0
M  V30 7 C -1.6275 1.6481 -0.0388 0
M  V30 8 C 2.5909 -0.807 0.309 0
M  V30 9 C -3.8907 0.3122 -0.9663 0
M  V30 10 C -2.7214 2.3668 -0.5353 0
M  V30 11 C 3.8572 -1.4815 0.8291 0
M  V30 12 C -3.8643 1.7078 -0.9934 0
M  V30 13 C 4.8062 -1.8343 -0.3047 0
M  V30 14 N -4.9307 2.4217 -1.5042 0
M  V30 15 H 1.3477 -1.3328 2.0278 0
M  V30 16 H 2.1254 0.2435 2.14 0
M  V30 17 H -2.8495 -1.5019 -0.458 0
M  V30 18 H -0.7568 2.1958 0.3121 0
M  V30 19 H 2.0828 -1.4634 -0.4076 0
M  V30 20 H 2.846 0.1032 -0.2478 0
M  V30 21 H -4.7617 -0.2261 -1.3307 0
M  V30 22 H -2.6707 3.4524 -0.5602 0
M  V30 23 H 4.3705 -0.8172 1.5341 0
M  V30 24 H 3.5947 -2.3946 1.3758 0
M  V30 25 H 5.7061 -2.3159 0.0902 0
M  V30 26 H 4.3339 -2.5241 -1.0112 0
M  V30 27 H 5.1133 -0.9377 -0.8525 0
M  V30 28 H -4.9325 3.4321 -1.4823 0
M  V30 29 H -5.7749 1.9475 -1.7939 0
M  V30 END ATOM
M  V30 BEGIN BOND
M  V30 1 2 1 2
M  V30 2 1 2 3
M  V30 3 1 2 4
M  V30 4 1 3 5
M  V30 5 2 4 6
M  V30 6 1 4 7
M  V30 7 1 5 8
M  V30 8 1 6 9
M  V30 9 2 7 10
M  V30 10 1 8 11
M  V30 11 2 9 12
M  V30 12 1 11 13
M  V30 13 1 12 14
M  V30 14 1 10 12
M  V30 15 1 5 15
M  V30 16 1 5 16
M  V30 17 1 6 17
M  V30 18 1 7 18
M  V30 19 1 8 19
M  V30 20 1 8 20
M  V30 21 1 9 21
M  V30 22 1 10 22
M  V30 23 1 11 23
M  V30 24 1 11 24
M  V30 25 1 13 25
M  V30 26 1 13 26
M  V30 27 1 13 27
M  V30 28 1 14 28
M  V30 29 1 14 29
M  V30 END BOND
M  V30 END CTAB
M  END
>  <NO.>
792

>  <Name>
butyl 4-aminobenzoate (butamben)

>  <SMILES>
CCCCOC(=O)c1ccc(N)cc1

>  <logBB>
0.42

>  <Class>
1

>  <MW>
193.11

>  <nHBAcc>
3

>  <nHBDon>
1

>  <SLogP>
2.23

>  <TopoPSA>
52.32

>  <MMFF94 Energy>
17.999

$$$$
CCN(CCC#N)c1ccccc1
Actelion Java MolfileCreator 2.0

  0  0  0  0  0  0              0 V3000
M  V30 BEGIN CTAB
M  V30 COUNTS 27 27 0 0 0
M  V30 BEGIN ATOM
M  V30 1 N -1.2487 -1.9517 3.2805 0
M  V30 2 C -0.3108 -1.6015 2.6931 0
M  V30 3 C 0.898 -1.1993 1.966 0
M  V30 4 C 0.8563 -1.6543 0.5031 0
M  V30 5 N 0.6109 -0.5343 -0.4237 0
M  V30 6 C -0.6293 0.0896 -0.5058 0
M  V30 7 C 1.7419 -0.0816 -1.244 0
M  V30 8 C -1.82 -0.5664 -0.1523 0
M  V30 9 C -0.7689 1.4163 -0.9499 0
M  V30 10 C 2.6795 0.8157 -0.45 0
M  V30 11 C -3.0704 0.0627 -0.2212 0
M  V30 12 C -2.0142 2.0549 -1.0246 0
M  V30 13 C -3.1678 1.3767 -0.6569 0
M  V30 14 H 1.7564 -1.6748 2.4564 0
M  V30 15 H 1.0488 -0.1174 2.0504 0
M  V30 16 H 0.1528 -2.4771 0.3291 0
M  V30 17 H 1.8407 -2.0825 0.2713 0
M  V30 18 H 1.4064 0.4259 -2.1561 0
M  V30 19 H 2.3047 -0.954 -1.5988 0
M  V30 20 H -1.8159 -1.6037 0.168 0
M  V30 21 H 0.1 2.0029 -1.2312 0
M  V30 22 H 3.1191 0.2769 0.3956 0
M  V30 23 H 2.1607 1.6925 -0.0513 0
M  V30 24 H 3.4981 1.164 -1.0875 0
M  V30 25 H -3.9645 -0.4847 0.0656 0
M  V30 26 H -2.0738 3.0846 -1.3662 0
M  V30 27 H -4.1354 1.8669 -0.7102 0
M  V30 END ATOM
M  V30 BEGIN BOND
M  V30 1 3 1 2
M  V30 2 1 2 3
M  V30 3 1 3 4
M  V30 4 1 4 5
M  V30 5 1 5 6
M  V30 6 1 5 7
M  V30 7 2 6 8
M  V30 8 1 6 9
M  V30 9 1 7 10
M  V30 10 1 8 11
M  V30 11 2 9 12
M  V30 12 2 11 13
M  V30 13 1 12 13
M  V30 14 1 3 14
M  V30 15 1 3 15
M  V30 16 1 4 16
M  V30 17 1 4 17
M  V30 18 1 7 18
M  V30 19 1 7 19
M  V30 20 1 8 20
M  V30 21 1 9 21
M  V30 22 1 10 22
M  V30 23 1 10 23
M  V30 24 1 10 24
M  V30 25 1 11 25
M  V30 26 1 12 26
M  V30 27 1 13 27
M  V30 END BOND
M  V30 END CTAB
M  END
>  <NO.>
793

>  <Name>
n-(2-cyanoethyl)-2-phenylethylamine

>  <SMILES>
CCN(CCC#N)c1ccccc1

>  <logBB>
0.42

>  <Class>
1

>  <MW>
174.12

>  <nHBAcc>
2

>  <nHBDon>
0

>  <SLogP>
2.43

>  <TopoPSA>
27.03

>  <MMFF94 Energy>
24.789

$$$$
COc1ccc(C=C2CCCN=C2c2cccnc2)c(OC)c1
Actelion Java MolfileCreator 2.0

  0  0  0  0  0  0              0 V3000
M  V30 BEGIN CTAB
M  V30 COUNTS 43 45 0 0 0
M  V30 BEGIN ATOM
M  V30 1 O 0.2384 -2.4658 -0.2384 0
M  V30 2 C 0.5049 -1.848 0.9591 0
M  V30 3 C 0.1878 -3.8857 -0.2556 0
M  V30 4 C 0.49 -0.4389 0.9408 0
M  V30 5 C 0.7821 -2.5231 2.1572 0
M  V30 6 C 0.7728 0.2697 2.1147 0
M  V30 7 C 0.2203 0.2983 -0.3054 0
M  V30 8 C 1.0497 -1.8081 3.3285 0
M  V30 9 C 1.0455 -0.4134 3.2992 0
M  V30 10 C -0.833 1.1141 -0.5093 0
M  V30 11 O 1.3326 -2.3463 4.5544 0
M  V30 12 C -1.0349 1.7458 -1.8618 0
M  V30 13 C -1.9589 1.3153 0.4727 0
M  V30 14 C 1.3444 -3.7645 4.6545 0
M  V30 15 N -2.2001 1.9365 -2.3898 0
M  V30 16 C 0.1557 2.1987 -2.6281 0
M  V30 17 C -3.1793 1.9831 -0.1531 0
M  V30 18 C -3.3534 1.5187 -1.5894 0
M  V30 19 C 0.1655 2.068 -4.0114 0
M  V30 20 C 1.2583 2.8032 -2.0201 0
M  V30 21 N 1.2 2.4545 -4.8009 0
M  V30 22 C 2.331 3.2159 -2.8082 0
M  V30 23 C 2.2575 3.0187 -4.1787 0
M  V30 24 H 1.1615 -4.3175 -0.0024 0
M  V30 25 H -0.0593 -4.1988 -1.2745 0
M  V30 26 H -0.5982 -4.2616 0.4074 0
M  V30 27 H 0.793 -3.6045 2.1767 0
M  V30 28 H 0.7871 1.3568 2.1163 0
M  V30 29 H 0.934 0.0808 -1.0973 0
M  V30 30 H 1.2602 0.1457 4.2069 0
M  V30 31 H -2.2699 0.341 0.8711 0
M  V30 32 H -1.6204 1.9235 1.3192 0
M  V30 33 H 0.3611 -4.1851 4.4192 0
M  V30 34 H 1.5779 -4.0246 5.6914 0
M  V30 35 H 2.1234 -4.198 4.0189 0
M  V30 36 H -3.0506 3.0731 -0.1316 0
M  V30 37 H -4.074 1.7546 0.4365 0
M  V30 38 H -3.4899 0.4327 -1.6536 0
M  V30 39 H -4.2513 1.9835 -2.0108 0
M  V30 40 H -0.6778 1.632 -4.5409 0
M  V30 41 H 1.2869 2.9684 -0.9473 0
M  V30 42 H 3.2016 3.6865 -2.3649 0
M  V30 43 H 3.0694 3.3242 -4.8328 0
M  V30 END ATOM
M  V30 BEGIN BOND
M  V30 1 1 1 2
M  V30 2 1 1 3
M  V30 3 2 2 4
M  V30 4 1 2 5
M  V30 5 1 4 6
M  V30 6 1 4 7
M  V30 7 2 5 8
M  V30 8 2 6 9
M  V30 9 2 7 10
M  V30 10 1 8 11
M  V30 11 1 10 12
M  V30 12 1 10 13
M  V30 13 1 11 14
M  V30 14 2 12 15
M  V30 15 1 12 16
M  V30 16 1 13 17
M  V30 17 1 15 18
M  V30 18 2 16 19
M  V30 19 1 16 20
M  V30 20 1 19 21
M  V30 21 2 20 22
M  V30 22 2 21 23
M  V30 23 1 8 9
M  V30 24 1 17 18
M  V30 25 1 22 23
M  V30 26 1 3 24
M  V30 27 1 3 25
M  V30 28 1 3 26
M  V30 29 1 5 27
M  V30 30 1 6 28
M  V30 31 1 7 29
M  V30 32 1 9 30
M  V30 33 1 13 31
M  V30 34 1 13 32
M  V30 35 1 14 33
M  V30 36 1 14 34
M  V30 37 1 14 35
M  V30 38 1 17 36
M  V30 39 1 17 37
M  V30 40 1 18 38
M  V30 41 1 18 39
M  V30 42 1 19 40
M  V30 43 1 20 41
M  V30 44 1 22 42
M  V30 45 1 23 43
M  V30 END BOND
M  V30 END CTAB
M  END
>  <NO.>
794

>  <Name>
148372-04-7

>  <SMILES>
COc1ccc(C=C2CCCN=C2c2cccnc2)c(OC)c1

>  <logBB>
0.42

>  <Class>
1

>  <MW>
308.15

>  <nHBAcc>
4

>  <nHBDon>
0

>  <SLogP>
3.77

>  <TopoPSA>
43.71

>  <MMFF94 Energy>
84.11

$$$$
N#CCCNCCc1ccccc1
Actelion Java MolfileCreator 2.0

  0  0  0  0  0  0              0 V3000
M  V30 BEGIN CTAB
M  V30 COUNTS 27 27 0 0 0
M  V30 BEGIN ATOM
M  V30 1 N 3.3642 -3.6776 2.581 0
M  V30 2 C 3.6078 -2.7458 1.933 0
M  V30 3 C 3.969 -1.5851 1.1086 0
M  V30 4 C 2.8277 -1.1593 0.1808 0
M  V30 5 N 1.7437 -0.4904 0.9092 0
M  V30 6 C 0.6297 -0.1577 0.0119 0
M  V30 7 C -0.5038 0.5222 0.7911 0
M  V30 8 C -1.6583 0.8853 -0.1108 0
M  V30 9 C -1.7152 2.144 -0.7238 0
M  V30 10 C -2.6744 -0.0443 -0.3697 0
M  V30 11 C -2.7739 2.4689 -1.5733 0
M  V30 12 C -3.7319 0.2825 -1.2195 0
M  V30 13 C -3.7818 1.5387 -1.8205 0
M  V30 14 H 4.2782 -0.7482 1.7457 0
M  V30 15 H 4.8385 -1.8483 0.4945 0
M  V30 16 H 2.4406 -2.0371 -0.3515 0
M  V30 17 H 3.2316 -0.4678 -0.5687 0
M  V30 18 H 2.0867 0.3629 1.3513 0
M  V30 19 H 0.9798 0.5073 -0.7873 0
M  V30 20 H 0.2488 -1.0717 -0.4602 0
M  V30 21 H -0.863 -0.1362 1.5927 0
M  V30 22 H -0.134 1.4284 1.2884 0
M  V30 23 H -0.9363 2.8807 -0.5419 0
M  V30 24 H -2.6477 -1.0294 0.0913 0
M  V30 25 H -2.8131 3.4486 -2.0421 0
M  V30 26 H -4.5173 -0.4436 -1.4119 0
M  V30 27 H -4.6064 1.7927 -2.4811 0
M  V30 END ATOM
M  V30 BEGIN BOND
M  V30 1 3 1 2
M  V30 2 1 2 3
M  V30 3 1 3 4
M  V30 4 1 4 5
M  V30 5 1 5 6
M  V30 6 1 6 7
M  V30 7 1 7 8
M  V30 8 2 8 9
M  V30 9 1 8 10
M  V30 10 1 9 11
M  V30 11 2 10 12
M  V30 12 2 11 13
M  V30 13 1 12 13
M  V30 14 1 3 14
M  V30 15 1 3 15
M  V30 16 1 4 16
M  V30 17 1 4 17
M  V30 18 1 5 18
M  V30 19 1 6 19
M  V30 20 1 6 20
M  V30 21 1 7 21
M  V30 22 1 7 22
M  V30 23 1 9 23
M  V30 24 1 10 24
M  V30 25 1 11 25
M  V30 26 1 12 26
M  V30 27 1 13 27
M  V30 END BOND
M  V30 END CTAB
M  END
>  <NO.>
796

>  <Name>
3-[(2-phenylethyl)amino]propanenitrile

>  <SMILES>
N#CCCNCCc1ccccc1

>  <logBB>
0.42

>  <Class>
1

>  <MW>
174.12

>  <nHBAcc>
2

>  <nHBDon>
1

>  <SLogP>
1.73

>  <TopoPSA>
35.82

>  <MMFF94 Energy>
39.747

$$$$
CC(C)(C)c1ccccc1
Actelion Java MolfileCreator 2.0

  0  0  0  0  0  0              0 V3000
M  V30 BEGIN CTAB
M  V30 COUNTS 24 24 0 0 0
M  V30 BEGIN ATOM
M  V30 1 C -0.2333 -0.2333 0.2333 0
M  V30 2 C -1.1292 0.1644 1.2403 0
M  V30 3 C -0.2494 -1.5914 -0.1425 0
M  V30 4 C 0.737 0.7455 -0.4505 0
M  V30 5 C -1.9994 -0.7509 1.8427 0
M  V30 6 C -1.1183 -2.5066 0.4586 0
M  V30 7 C 0.6326 2.1964 0.0719 0
M  V30 8 C 2.1913 0.2812 -0.2198 0
M  V30 9 C 0.451 0.7854 -1.9673 0
M  V30 10 C -1.9941 -2.0857 1.4524 0
M  V30 11 H -1.1754 1.1942 1.5834 0
M  V30 12 H 0.4212 -1.9583 -0.9163 0
M  V30 13 H -2.6823 -0.416 2.6194 0
M  V30 14 H -1.1079 -3.5479 0.1478 0
M  V30 15 H 0.859 2.257 1.1428 0
M  V30 16 H 1.3419 2.8544 -0.4446 0
M  V30 17 H -0.3685 2.6127 -0.0898 0
M  V30 18 H 2.3876 -0.702 -0.661 0
M  V30 19 H 2.9057 0.9816 -0.668 0
M  V30 20 H 2.4183 0.2127 0.8507 0
M  V30 21 H -0.5855 1.083 -2.1656 0
M  V30 22 H 0.6109 -0.1872 -2.4451 0
M  V30 23 H 1.1068 1.5028 -2.4744 0
M  V30 24 H -2.6705 -2.7948 1.9214 0
M  V30 END ATOM
M  V30 BEGIN BOND
M  V30 1 2 1 2
M  V30 2 1 1 3
M  V30 3 1 1 4
M  V30 4 1 2 5
M  V30 5 2 3 6
M  V30 6 1 4 7
M  V30 7 1 4 8
M  V30 8 1 4 9
M  V30 9 2 5 10
M  V30 10 1 6 10
M  V30 11 1 2 11
M  V30 12 1 3 12
M  V30 13 1 5 13
M  V30 14 1 6 14
M  V30 15 1 7 15
M  V30 16 1 7 16
M  V30 17 1 7 17
M  V30 18 1 8 18
M  V30 19 1 8 19
M  V30 20 1 8 20
M  V30 21 1 9 21
M  V30 22 1 9 22
M  V30 23 1 9 23
M  V30 24 1 10 24
M  V30 END BOND
M  V30 END CTAB
M  END
>  <NO.>
797

>  <Name>
tert-butylbenzene

>  <SMILES>
CC(C)(C)c1ccccc1

>  <logBB>
0.43

>  <Class>
1

>  <MW>
134.11

>  <nHBAcc>
0

>  <nHBDon>
0

>  <SLogP>
2.98

>  <TopoPSA>
0

>  <MMFF94 Energy>
34.485

$$$$
CN(C)c1ccnc2sc3c(=O)n(C4CCCCCC4)cnc3c12
Actelion Java MolfileCreator 2.0

  0  0  0  0  0  0              0 V3000
M  V30 BEGIN CTAB
M  V30 COUNTS 46 49 0 0 0
M  V30 BEGIN ATOM
M  V30 1 S -3.5558 0.0 -1.1303 0
M  V30 2 C -3.9501 0.8645 0.2911 0
M  V30 3 C -1.9234 -0.0529 -0.6984 0
M  V30 4 N -5.2369 1.1928 0.524 0
M  V30 5 C -2.8456 1.151 1.0981 0
M  V30 6 C -0.9068 -0.6985 -1.479 0
M  V30 7 C -1.6758 0.5814 0.4872 0
M  V30 8 C -5.4277 1.8557 1.674 0
M  V30 9 C -3.0924 1.8752 2.3051 0
M  V30 10 O -1.1125 -1.2625 -2.5515 0
M  V30 11 N 0.3579 -0.6192 -0.8886 0
M  V30 12 N -0.3803 0.6348 1.0272 0
M  V30 13 C -4.4323 2.206 2.5677 0
M  V30 14 N -2.0843 2.2478 3.1935 0
M  V30 15 C 0.5254 0.0401 0.3181 0
M  V30 16 C 1.511 -1.2463 -1.5707 0
M  V30 17 C -2.3061 2.1463 4.6261 0
M  V30 18 C -1.151 3.264 2.7271 0
M  V30 19 C 2.5354 -0.1824 -2.0014 0
M  V30 20 C 2.088 -2.3948 -0.7253 0
M  V30 21 C 3.7812 -0.6863 -2.7336 0
M  V30 22 C 3.2794 -3.1516 -1.3173 0
M  V30 23 C 3.5737 -1.9295 -3.594 0
M  V30 24 C 3.3034 -3.2408 -2.8406 0
M  V30 25 H -6.4618 2.1237 1.8769 0
M  V30 26 H -4.7031 2.7617 3.4587 0
M  V30 27 H 1.5615 0.0432 0.6906 0
M  V30 28 H 1.1268 -1.6995 -2.4909 0
M  V30 29 H -2.9075 2.9842 4.9948 0
M  V30 30 H -1.35 2.1597 5.1605 0
M  V30 31 H -2.8068 1.2066 4.8846 0
M  V30 32 H -0.9041 3.1687 1.6655 0
M  V30 33 H -0.2125 3.2033 3.2885 0
M  V30 34 H -1.5746 4.2628 2.8816 0
M  V30 35 H 2.8669 0.4122 -1.1417 0
M  V30 36 H 2.0186 0.528 -2.6615 0
M  V30 37 H 1.2792 -3.1185 -0.5526 0
M  V30 38 H 2.3752 -2.0407 0.272 0
M  V30 39 H 4.1442 0.1261 -3.3765 0
M  V30 40 H 4.5901 -0.8583 -2.0144 0
M  V30 41 H 3.2666 -4.1703 -0.9084 0
M  V30 42 H 4.2155 -2.714 -0.9523 0
M  V30 43 H 4.4737 -2.0718 -4.2061 0
M  V30 44 H 2.7621 -1.7491 -4.3102 0
M  V30 45 H 4.0819 -3.9602 -3.1259 0
M  V30 46 H 2.3619 -3.6768 -3.1978 0
M  V30 END ATOM
M  V30 BEGIN BOND
M  V30 1 1 1 2
M  V30 2 1 1 3
M  V30 3 2 2 4
M  V30 4 1 2 5
M  V30 5 1 3 6
M  V30 6 2 3 7
M  V30 7 1 4 8
M  V30 8 2 5 9
M  V30 9 2 6 10
M  V30 10 1 6 11
M  V30 11 1 7 12
M  V30 12 2 8 13
M  V30 13 1 9 14
M  V30 14 1 11 15
M  V30 15 1 11 16
M  V30 16 1 14 17
M  V30 17 1 14 18
M  V30 18 1 16 19
M  V30 19 1 16 20
M  V30 20 1 19 21
M  V30 21 1 20 22
M  V30 22 1 21 23
M  V30 23 1 22 24
M  V30 24 1 5 7
M  V30 25 1 9 13
M  V30 26 2 12 15
M  V30 27 1 23 24
M  V30 28 1 8 25
M  V30 29 1 13 26
M  V30 30 1 15 27
M  V30 31 1 16 28
M  V30 32 1 17 29
M  V30 33 1 17 30
M  V30 34 1 17 31
M  V30 35 1 18 32
M  V30 36 1 18 33
M  V30 37 1 18 34
M  V30 38 1 19 35
M  V30 39 1 19 36
M  V30 40 1 20 37
M  V30 41 1 20 38
M  V30 42 1 21 39
M  V30 43 1 21 40
M  V30 44 1 22 41
M  V30 45 1 22 42
M  V30 46 1 23 43
M  V30 47 1 23 44
M  V30 48 1 24 45
M  V30 49 1 24 46
M  V30 END BOND
M  V30 END CTAB
M  END
>  <NO.>
798

>  <Name>
chembl225032

>  <SMILES>
CN(C)c1ccnc2sc3c(=O)n(C4CCCCCC4)cnc3c12

>  <logBB>
0.43

>  <Class>
1

>  <MW>
342.15

>  <nHBAcc>
5

>  <nHBDon>
0

>  <SLogP>
3.97

>  <TopoPSA>
51.02

>  <MMFF94 Energy>
17.709

$$$$
CN(C)c1ccnc2sc3c(=O)n(N4CCCCCC4)cnc3c12
Actelion Java MolfileCreator 2.0

  0  0  0  0  0  0              0 V3000
M  V30 BEGIN CTAB
M  V30 COUNTS 45 48 0 0 0
M  V30 BEGIN ATOM
M  V30 1 S 1.2913 1.5335 -3.3923 0
M  V30 2 C 0.4437 0.2511 -4.1385 0
M  V30 3 C 0.8321 1.0033 -1.8553 0
M  V30 4 N 0.456 0.1548 -5.4835 0
M  V30 5 C -0.2005 -0.5987 -3.2333 0
M  V30 6 C 1.218 1.6621 -0.636 0
M  V30 7 C 0.052 -0.1225 -1.9011 0
M  V30 8 C -0.2397 -0.8865 -5.964 0
M  V30 9 C -0.9265 -1.6904 -3.7955 0
M  V30 10 O 1.9165 2.6734 -0.5821 0
M  V30 11 N 0.6957 1.0045 0.4893 0
M  V30 12 N -0.438 -0.7279 -0.7284 0
M  V30 13 C -0.924 -1.8053 -5.1944 0
M  V30 14 N -1.6468 -2.6664 -3.0898 0
M  V30 15 N 0.9867 1.5359 1.7741 0
M  V30 16 C -0.0888 -0.1329 0.3697 0
M  V30 17 C -0.8489 -3.6459 -2.3701 0
M  V30 18 C -2.8953 -2.2228 -2.4906 0
M  V30 19 C -0.1303 2.2042 2.4246 0
M  V30 20 C 1.9506 0.7557 2.5338 0
M  V30 21 C -0.7297 1.5111 3.6488 0
M  V30 22 C 2.3661 1.3588 3.8764 0
M  V30 23 C 0.0593 1.7609 4.9306 0
M  V30 24 C 1.3956 1.0369 5.0087 0
M  V30 25 H -0.2375 -0.9751 -7.0475 0
M  V30 26 H -1.4616 -2.6189 -5.6713 0
M  V30 27 H -0.4323 -0.5454 1.331 0
M  V30 28 H -0.0672 -4.0651 -3.0137 0
M  V30 29 H -1.4801 -4.4803 -2.0457 0
M  V30 30 H -0.3761 -3.2199 -1.4813 0
M  V30 31 H -2.7305 -1.5826 -1.62 0
M  V30 32 H -3.4837 -3.087 -2.1636 0
M  V30 33 H -3.5061 -1.6737 -3.2162 0
M  V30 34 H 0.1947 3.2139 2.7059 0
M  V30 35 H -0.9387 2.367 1.6988 0
M  V30 36 H 2.8595 0.6645 1.9249 0
M  V30 37 H 1.5863 -0.2668 2.693 0
M  V30 38 H -0.8592 0.437 3.4756 0
M  V30 39 H -1.738 1.9181 3.7997 0
M  V30 40 H 2.5217 2.441 3.7913 0
M  V30 41 H 3.3403 0.9313 4.1464 0
M  V30 42 H -0.5524 1.4354 5.7814 0
M  V30 43 H 0.2176 2.8383 5.0638 0
M  V30 44 H 1.2234 -0.0456 5.0507 0
M  V30 45 H 1.8725 1.3069 5.9593 0
M  V30 END ATOM
M  V30 BEGIN BOND
M  V30 1 1 1 2
M  V30 2 1 1 3
M  V30 3 2 2 4
M  V30 4 1 2 5
M  V30 5 1 3 6
M  V30 6 2 3 7
M  V30 7 1 4 8
M  V30 8 2 5 9
M  V30 9 2 6 10
M  V30 10 1 6 11
M  V30 11 1 7 12
M  V30 12 2 8 13
M  V30 13 1 9 14
M  V30 14 1 11 15
M  V30 15 1 11 16
M  V30 16 1 14 17
M  V30 17 1 14 18
M  V30 18 1 15 19
M  V30 19 1 15 20
M  V30 20 1 19 21
M  V30 21 1 20 22
M  V30 22 1 21 23
M  V30 23 1 22 24
M  V30 24 1 5 7
M  V30 25 1 9 13
M  V30 26 2 12 16
M  V30 27 1 23 24
M  V30 28 1 8 25
M  V30 29 1 13 26
M  V30 30 1 16 27
M  V30 31 1 17 28
M  V30 32 1 17 29
M  V30 33 1 17 30
M  V30 34 1 18 31
M  V30 35 1 18 32
M  V30 36 1 18 33
M  V30 37 1 19 34
M  V30 38 1 19 35
M  V30 39 1 20 36
M  V30 40 1 20 37
M  V30 41 1 21 38
M  V30 42 1 21 39
M  V30 43 1 22 40
M  V30 44 1 22 41
M  V30 45 1 23 42
M  V30 46 1 23 43
M  V30 47 1 24 44
M  V30 48 1 24 45
M  V30 END BOND
M  V30 END CTAB
M  END
>  <NO.>
799

>  <Name>
869802-58-4

>  <SMILES>
CN(C)c1ccnc2sc3c(=O)n(N4CCCCCC4)cnc3c12

>  <logBB>
0.43

>  <Class>
1

>  <MW>
343.15

>  <nHBAcc>
6

>  <nHBDon>
0

>  <SLogP>
2.58

>  <TopoPSA>
54.26

>  <MMFF94 Energy>
82.723

$$$$
CN1CCC[C@@H](c2nc3ccccc3n2Cc2ccc(F)cc2)C1
Actelion Java MolfileCreator 2.0

  0  0  0  0  0  0              0 V3000
M  V30 BEGIN CTAB
M  V30 COUNTS 46 49 0 0 0
M  V30 BEGIN ATOM
M  V30 1 F 1.2786 5.4428 -2.8787 0
M  V30 2 C 0.6333 4.473 -2.2178 0
M  V30 3 C -0.6019 4.7416 -1.6432 0
M  V30 4 C 1.2056 3.2119 -2.1206 0
M  V30 5 C -1.2767 3.7315 -0.9552 0
M  V30 6 C 0.5328 2.1994 -1.4335 0
M  V30 7 C -0.7126 2.4495 -0.8315 0
M  V30 8 C -1.4743 1.364 -0.1048 0
M  V30 9 N -0.6716 0.6858 0.9036 0
M  V30 10 C -0.3615 1.2057 2.1434 0
M  V30 11 C -0.1536 -0.5936 0.8335 0
M  V30 12 C 0.3438 0.1879 2.7743 0
M  V30 13 C -0.6204 2.4366 2.7608 0
M  V30 14 N 0.4579 -0.9072 1.9599 0
M  V30 15 C -0.2791 -1.5056 -0.3565 0 CFG=1
M  V30 16 C 0.8212 0.3811 4.0789 0
M  V30 17 C -0.1355 2.6132 4.0621 0
M  V30 18 C 0.9945 -2.3566 -0.5415 0
M  V30 19 C -1.5047 -2.4163 -0.2097 0
M  V30 20 C 0.5735 1.6035 4.7139 0
M  V30 21 N 0.8679 -3.2559 -1.7072 0
M  V30 22 C -1.5752 -3.4114 -1.3645 0
M  V30 23 C -0.2621 -4.1789 -1.5266 0
M  V30 24 C 2.1102 -4.0057 -1.9005 0
M  V30 25 H -1.0315 5.7341 -1.7361 0
M  V30 26 H 2.1712 3.0232 -2.5789 0
M  V30 27 H -2.2461 3.9557 -0.5142 0
M  V30 28 H 0.9984 1.218 -1.3694 0
M  V30 29 H -1.8594 0.6347 -0.8225 0
M  V30 30 H -2.3456 1.7758 0.4192 0
M  V30 31 H -1.164 3.2297 2.2599 0
M  V30 32 H -0.3956 -0.905 -1.2672 0
M  V30 33 H 1.3717 -0.4088 4.5767 0
M  V30 34 H -0.3127 3.5571 4.5737 0
M  V30 35 H 1.8458 -1.6803 -0.6955 0
M  V30 36 H 1.2074 -2.9371 0.367 0
M  V30 37 H -1.4567 -2.9667 0.7393 0
M  V30 38 H -2.4256 -1.8215 -0.1793 0
M  V30 39 H 0.9406 1.7655 5.7244 0
M  V30 40 H -1.8048 -2.8752 -2.2941 0
M  V30 41 H -2.396 -4.1169 -1.1927 0
M  V30 42 H -0.1043 -4.8273 -0.6547 0
M  V30 43 H -0.3531 -4.8296 -2.4047 0
M  V30 44 H 2.0376 -4.6465 -2.7862 0
M  V30 45 H 2.948 -3.322 -2.0763 0
M  V30 46 H 2.3537 -4.6359 -1.0375 0
M  V30 END ATOM
M  V30 BEGIN BOND
M  V30 1 1 1 2
M  V30 2 2 2 3
M  V30 3 1 2 4
M  V30 4 1 3 5
M  V30 5 2 4 6
M  V30 6 2 5 7
M  V30 7 1 7 8
M  V30 8 1 8 9
M  V30 9 1 9 10
M  V30 10 1 9 11
M  V30 11 2 10 12
M  V30 12 1 10 13
M  V30 13 2 11 14
M  V30 14 1 11 15
M  V30 15 1 12 16
M  V30 16 2 13 17
M  V30 17 1 15 18
M  V30 18 1 15 19
M  V30 19 2 16 20
M  V30 20 1 18 21
M  V30 21 1 19 22
M  V30 22 1 21 23
M  V30 23 1 21 24
M  V30 24 1 6 7
M  V30 25 1 12 14
M  V30 26 1 17 20
M  V30 27 1 22 23
M  V30 28 1 3 25
M  V30 29 1 4 26
M  V30 30 1 5 27
M  V30 31 1 6 28
M  V30 32 1 8 29
M  V30 33 1 8 30
M  V30 34 1 13 31
M  V30 35 1 15 32
M  V30 36 1 16 33
M  V30 37 1 17 34
M  V30 38 1 18 35
M  V30 39 1 18 36
M  V30 40 1 19 37
M  V30 41 1 19 38
M  V30 42 1 20 39
M  V30 43 1 22 40
M  V30 44 1 22 41
M  V30 45 1 23 42
M  V30 46 1 23 43
M  V30 47 1 24 44
M  V30 48 1 24 45
M  V30 49 1 24 46
M  V30 END BOND
M  V30 BEGIN COLLECTION
M  V30 MDLV30/STEABS ATOMS=(1 15)
M  V30 END COLLECTION
M  V30 END CTAB
M  END
>  <NO.>
800

>  <Name>
chembl1095819

>  <SMILES>
CN1CCC[C@@H](c2nc3ccccc3n2Cc2ccc(F)cc2)C1

>  <logBB>
0.43

>  <Class>
1

>  <MW>
323.18

>  <nHBAcc>
2

>  <nHBDon>
0

>  <SLogP>
4.03

>  <TopoPSA>
21.06

>  <MMFF94 Energy>
58.8

$$$$
O=C1Nc2ccc(Cl)cc2C(c2ccccc2Cl)=NC1O
Actelion Java MolfileCreator 2.0

  0  0  0  0  0  0              0 V3000
M  V30 BEGIN CTAB
M  V30 COUNTS 31 33 0 0 0
M  V30 BEGIN ATOM
M  V30 1 Cl -1.4884 0.0 2.316 0
M  V30 2 C -0.7728 1.4562 1.724 0
M  V30 3 C 0.1915 1.4746 0.7077 0
M  V30 4 C -1.1616 2.656 2.3296 0
M  V30 5 C 0.6524 0.2478 -0.007 0
M  V30 6 C 0.7847 2.6897 0.3324 0
M  V30 7 C -0.5846 3.8652 1.9358 0
M  V30 8 N 1.9259 0.0359 -0.0192 0
M  V30 9 C -0.372 -0.6145 -0.6716 0
M  V30 10 C 0.3921 3.8815 0.9424 0
M  V30 11 C 2.4486 -1.1316 -0.7189 0 CFG=1
M  V30 12 C -0.3332 -2.0174 -0.5835 0
M  V30 13 C -1.4268 0.0103 -1.3562 0
M  V30 14 O 3.8585 -1.0866 -0.8566 0
M  V30 15 C 2.0204 -2.3922 0.0802 0
M  V30 16 N 0.689 -2.728 0.0589 0
M  V30 17 C -1.377 -2.7731 -1.1308 0
M  V30 18 C -2.446 -0.7581 -1.9141 0
M  V30 19 O 2.8151 -3.1022 0.7001 0
M  V30 20 C -2.4303 -2.1449 -1.798 0
M  V30 21 Cl -3.7393 0.0143 -2.7436 0
M  V30 22 H -1.9073 2.6557 3.1216 0
M  V30 23 H 1.5565 2.7078 -0.435 0
M  V30 24 H -0.8872 4.7934 2.4157 0
M  V30 25 H 0.8545 4.8207 0.6469 0
M  V30 26 H 2.0525 -1.1988 -1.7383 0
M  V30 27 H -1.4636 1.0922 -1.456 0
M  V30 28 H 4.1787 -1.0567 0.0621 0
M  V30 29 H 0.476 -3.6056 0.5171 0
M  V30 30 H -1.3732 -3.8588 -1.0593 0
M  V30 31 H -3.2302 -2.7432 -2.2279 0
M  V30 END ATOM
M  V30 BEGIN BOND
M  V30 1 1 1 2
M  V30 2 2 2 3
M  V30 3 1 2 4
M  V30 4 1 3 5
M  V30 5 1 3 6
M  V30 6 2 4 7
M  V30 7 2 5 8
M  V30 8 1 5 9
M  V30 9 2 6 10
M  V30 10 1 8 11
M  V30 11 2 9 12
M  V30 12 1 9 13
M  V30 13 1 11 14
M  V30 14 1 11 15
M  V30 15 1 12 16
M  V30 16 1 12 17
M  V30 17 2 13 18
M  V30 18 2 15 19
M  V30 19 2 17 20
M  V30 20 1 18 21
M  V30 21 1 7 10
M  V30 22 1 15 16
M  V30 23 1 18 20
M  V30 24 1 4 22
M  V30 25 1 6 23
M  V30 26 1 7 24
M  V30 27 1 10 25
M  V30 28 1 11 26
M  V30 29 1 13 27
M  V30 30 1 14 28
M  V30 31 1 16 29
M  V30 32 1 17 30
M  V30 33 1 20 31
M  V30 END BOND
M  V30 BEGIN COLLECTION
M  V30 MDLV30/STERAC1 ATOMS=(1 11)
M  V30 END COLLECTION
M  V30 END CTAB
M  END
>  <NO.>
801

>  <Name>
lorazepam

>  <SMILES>
O=C1Nc2ccc(Cl)cc2C(c2ccccc2Cl)=NC1O

>  <logBB>
0.44

>  <Class>
1

>  <MW>
320.01

>  <nHBAcc>
3

>  <nHBDon>
2

>  <SLogP>
3.1

>  <TopoPSA>
61.69

>  <MMFF94 Energy>
96.79

$$$$
O=C(Nc1ccc(Cl)nc1)c1ccc(F)c(F)c1
Actelion Java MolfileCreator 2.0

  0  0  0  0  0  0              0 V3000
M  V30 BEGIN CTAB
M  V30 COUNTS 25 26 0 0 0
M  V30 BEGIN ATOM
M  V30 1 Cl -2.1316 -6.0759 0.6555 0
M  V30 2 C -1.5734 -4.4639 0.4881 0
M  V30 3 N -2.5056 -3.5849 0.0704 0
M  V30 4 C -0.2622 -4.1305 0.7763 0
M  V30 5 C -2.0916 -2.304 -0.0715 0
M  V30 6 C 0.1284 -2.7988 0.6236 0
M  V30 7 C -0.7952 -1.8529 0.1829 0
M  V30 8 N -0.5051 -0.4816 0.0147 0
M  V30 9 C 0.755 0.0844 -0.0508 0
M  V30 10 O 1.8228 -0.5147 -0.0504 0
M  V30 11 C 0.7791 1.5681 -0.1806 0
M  V30 12 C 1.7985 2.1506 -0.9449 0
M  V30 13 C -0.1641 2.383 0.4675 0
M  V30 14 C 1.8507 3.5339 -1.0777 0
M  V30 15 C -0.0992 3.7727 0.3264 0
M  V30 16 F 2.8203 4.0864 -1.8189 0
M  V30 17 C 0.9072 4.3395 -0.45 0
M  V30 18 F 0.9618 5.6716 -0.5811 0
M  V30 19 H 0.4456 -4.8787 1.1144 0
M  V30 20 H -2.869 -1.6264 -0.4141 0
M  V30 21 H 1.1533 -2.5311 0.8621 0
M  V30 22 H -1.2994 0.1232 -0.1534 0
M  V30 23 H 2.5495 1.5376 -1.4366 0
M  V30 24 H -0.9313 1.9568 1.1094 0
M  V30 25 H -0.8171 4.4182 0.8246 0
M  V30 END ATOM
M  V30 BEGIN BOND
M  V30 1 1 1 2
M  V30 2 2 2 3
M  V30 3 1 2 4
M  V30 4 1 3 5
M  V30 5 2 4 6
M  V30 6 2 5 7
M  V30 7 1 7 8
M  V30 8 1 8 9
M  V30 9 2 9 10
M  V30 10 1 9 11
M  V30 11 2 11 12
M  V30 12 1 11 13
M  V30 13 1 12 14
M  V30 14 2 13 15
M  V30 15 1 14 16
M  V30 16 2 14 17
M  V30 17 1 17 18
M  V30 18 1 6 7
M  V30 19 1 15 17
M  V30 20 1 4 19
M  V30 21 1 5 20
M  V30 22 1 6 21
M  V30 23 1 8 22
M  V30 24 1 12 23
M  V30 25 1 13 24
M  V30 26 1 15 25
M  V30 END BOND
M  V30 END CTAB
M  END
>  <NO.>
802

>  <Name>
ica-27243

>  <SMILES>
O=C(Nc1ccc(Cl)nc1)c1ccc(F)c(F)c1

>  <logBB>
0.44

>  <Class>
1

>  <MW>
268.02

>  <nHBAcc>
2

>  <nHBDon>
1

>  <SLogP>
3.27

>  <TopoPSA>
41.99

>  <MMFF94 Energy>
39.832

$$$$
c1cc(CN2CCCCC2)cc(OCCCNc2nccs2)c1
Actelion Java MolfileCreator 2.0

  0  0  0  0  0  0              0 V3000
M  V30 BEGIN CTAB
M  V30 COUNTS 48 50 0 0 0
M  V30 BEGIN ATOM
M  V30 1 S -1.597 -2.796 5.6782 0
M  V30 2 C -1.4413 -1.1606 6.2142 0
M  V30 3 C -2.3198 -3.2223 7.1684 0
M  V30 4 N -1.8946 -0.9465 7.4294 0
M  V30 5 N -0.9064 -0.1535 5.4923 0
M  V30 6 C -2.3956 -2.1108 7.9748 0
M  V30 7 C -0.4316 -0.2481 4.1323 0
M  V30 8 C -1.5702 -0.0261 3.1435 0
M  V30 9 C -1.0717 -0.1051 1.7043 0
M  V30 10 O -2.1837 0.1289 0.8415 0
M  V30 11 C -1.9448 0.1128 -0.5052 0
M  V30 12 C -0.7157 -0.1368 -1.12 0
M  V30 13 C -3.0655 0.3751 -1.2965 0
M  V30 14 C -0.6008 -0.1217 -2.5216 0
M  V30 15 C -2.9657 0.3925 -2.6871 0
M  V30 16 C -1.7383 0.1445 -3.2972 0
M  V30 17 C 0.7307 -0.4025 -3.189 0
M  V30 18 N 1.2054 0.7061 -4.0325 0
M  V30 19 C 2.3253 0.2965 -4.8924 0
M  V30 20 C 1.553 1.9164 -3.2713 0
M  V30 21 C 3.6488 0.1104 -4.1458 0
M  V30 22 C 2.8475 1.7964 -2.4626 0
M  V30 23 C 4.0114 1.3557 -3.3438 0
M  V30 24 H -2.644 -4.2309 7.3774 0
M  V30 25 H -0.8994 0.7607 5.9312 0
M  V30 26 H -2.8086 -2.0907 8.9757 0
M  V30 27 H 0.0788 -1.1997 3.9446 0
M  V30 28 H 0.3248 0.5321 3.9845 0
M  V30 29 H -2.0401 0.9508 3.3168 0
M  V30 30 H -2.369 -0.7632 3.2915 0
M  V30 31 H -0.3029 0.6598 1.5412 0
M  V30 32 H -0.6549 -1.1021 1.5175 0
M  V30 33 H 0.172 -0.3439 -0.5324 0
M  V30 34 H -4.0249 0.5702 -0.8237 0
M  V30 35 H -3.8428 0.6023 -3.2931 0
M  V30 36 H -1.6616 0.1676 -4.3824 0
M  V30 37 H 0.5761 -1.2965 -3.8085 0
M  V30 38 H 1.4758 -0.6872 -2.4369 0
M  V30 39 H 2.4607 1.0616 -5.6681 0
M  V30 40 H 2.0733 -0.623 -5.4347 0
M  V30 41 H 0.7327 2.2188 -2.6104 0
M  V30 42 H 1.6608 2.7452 -3.9839 0
M  V30 43 H 4.4475 -0.1069 -4.8643 0
M  V30 44 H 3.5858 -0.7545 -3.475 0
M  V30 45 H 2.716 1.0835 -1.6402 0
M  V30 46 H 3.0834 2.7636 -2.0038 0
M  V30 47 H 4.897 1.1627 -2.7286 0
M  V30 48 H 4.2715 2.1681 -4.0337 0
M  V30 END ATOM
M  V30 BEGIN BOND
M  V30 1 1 1 2
M  V30 2 1 1 3
M  V30 3 2 2 4
M  V30 4 1 2 5
M  V30 5 2 3 6
M  V30 6 1 5 7
M  V30 7 1 7 8
M  V30 8 1 8 9
M  V30 9 1 9 10
M  V30 10 1 10 11
M  V30 11 2 11 12
M  V30 12 1 11 13
M  V30 13 1 12 14
M  V30 14 2 13 15
M  V30 15 2 14 16
M  V30 16 1 14 17
M  V30 17 1 17 18
M  V30 18 1 18 19
M  V30 19 1 18 20
M  V30 20 1 19 21
M  V30 21 1 20 22
M  V30 22 1 21 23
M  V30 23 1 4 6
M  V30 24 1 15 16
M  V30 25 1 22 23
M  V30 26 1 3 24
M  V30 27 1 5 25
M  V30 28 1 6 26
M  V30 29 1 7 27
M  V30 30 1 7 28
M  V30 31 1 8 29
M  V30 32 1 8 30
M  V30 33 1 9 31
M  V30 34 1 9 32
M  V30 35 1 12 33
M  V30 36 1 13 34
M  V30 37 1 15 35
M  V30 38 1 16 36
M  V30 39 1 17 37
M  V30 40 1 17 38
M  V30 41 1 19 39
M  V30 42 1 19 40
M  V30 43 1 20 41
M  V30 44 1 20 42
M  V30 45 1 21 43
M  V30 46 1 21 44
M  V30 47 1 22 45
M  V30 48 1 22 46
M  V30 49 1 23 47
M  V30 50 1 23 48
M  V30 END BOND
M  V30 END CTAB
M  END
>  <NO.>
803

>  <Name>
chebi: 338961

>  <SMILES>
c1cc(CN2CCCCC2)cc(OCCCNc2nccs2)c1

>  <logBB>
0.44

>  <Class>
1

>  <MW>
331.17

>  <nHBAcc>
5

>  <nHBDon>
1

>  <SLogP>
4.01

>  <TopoPSA>
37.39

>  <MMFF94 Energy>
-6.6835

$$$$
CC(=O)OCC(C)C
Actelion Java MolfileCreator 2.0

  0  0  0  0  0  0              0 V3000
M  V30 BEGIN CTAB
M  V30 COUNTS 20 19 0 0 0
M  V30 BEGIN ATOM
M  V30 1 O -1.607 -2.4496 0.0 0
M  V30 2 C -1.7736 -1.3596 -0.5283 0
M  V30 3 O -0.9841 -0.2654 -0.3516 0
M  V30 4 C -2.8904 -1.0374 -1.473 0
M  V30 5 C 0.1217 -0.4738 0.5381 0
M  V30 6 C 0.9402 0.8199 0.6319 0
M  V30 7 C 2.0489 0.6751 1.672 0
M  V30 8 C 1.5317 1.2045 -0.7259 0
M  V30 9 H -3.5074 -0.2363 -1.0583 0
M  V30 10 H -2.4821 -0.7459 -2.4439 0
M  V30 11 H -3.5162 -1.9238 -1.6102 0
M  V30 12 H -0.2656 -0.7406 1.5289 0
M  V30 13 H 0.7461 -1.2938 0.1625 0
M  V30 14 H 0.2718 1.6338 0.941 0
M  V30 15 H 2.7469 -0.1241 1.4008 0
M  V30 16 H 1.6304 0.4402 2.6564 0
M  V30 17 H 2.619 1.6055 1.7655 0
M  V30 18 H 2.194 0.4196 -1.1065 0
M  V30 19 H 0.7442 1.3727 -1.4675 0
M  V30 20 H 2.1137 2.129 -0.6469 0
M  V30 END ATOM
M  V30 BEGIN BOND
M  V30 1 2 1 2
M  V30 2 1 2 3
M  V30 3 1 2 4
M  V30 4 1 3 5
M  V30 5 1 5 6
M  V30 6 1 6 7
M  V30 7 1 6 8
M  V30 8 1 4 9
M  V30 9 1 4 10
M  V30 10 1 4 11
M  V30 11 1 5 12
M  V30 12 1 5 13
M  V30 13 1 6 14
M  V30 14 1 7 15
M  V30 15 1 7 16
M  V30 16 1 7 17
M  V30 17 1 8 18
M  V30 18 1 8 19
M  V30 19 1 8 20
M  V30 END BOND
M  V30 END CTAB
M  END
>  <NO.>
804

>  <Name>
isobutyl acetate

>  <SMILES>
CC(=O)OCC(C)C

>  <logBB>
0.45

>  <Class>
1

>  <MW>
116.08

>  <nHBAcc>
2

>  <nHBDon>
0

>  <SLogP>
1.21

>  <TopoPSA>
26.3

>  <MMFF94 Energy>
-6.8534

$$$$
C=Cc1ccccc1
Actelion Java MolfileCreator 2.0

  0  0  0  0  0  0              0 V3000
M  V30 BEGIN CTAB
M  V30 COUNTS 16 16 0 0 0
M  V30 BEGIN ATOM
M  V30 1 C 0.2331 -0.3885 0.1554 0
M  V30 2 C -0.0446 0.9598 0.4181 0
M  V30 3 C -0.237 -0.9386 -1.0472 0
M  V30 4 C 0.991 -1.2583 1.0726 0
M  V30 5 C -0.7701 1.7343 -0.4934 0
M  V30 6 C -0.9622 -0.1657 -1.959 0
M  V30 7 C 1.5139 -0.9117 2.2564 0
M  V30 8 C -1.2286 1.1716 -1.6813 0
M  V30 9 H 0.2956 1.4347 1.3333 0
M  V30 10 H -0.0435 -1.9811 -1.2901 0
M  V30 11 H 1.132 -2.2852 0.7397 0
M  V30 12 H -0.9757 2.7785 -0.272 0
M  V30 13 H -1.3174 -0.6105 -2.8847 0
M  V30 14 H 1.4303 0.0824 2.6784 0
M  V30 15 H 2.0554 -1.6453 2.8464 0
M  V30 16 H -1.792 1.7743 -2.3885 0
M  V30 END ATOM
M  V30 BEGIN BOND
M  V30 1 2 1 2
M  V30 2 1 1 3
M  V30 3 1 1 4
M  V30 4 1 2 5
M  V30 5 2 3 6
M  V30 6 2 4 7
M  V30 7 2 5 8
M  V30 8 1 6 8
M  V30 9 1 2 9
M  V30 10 1 3 10
M  V30 11 1 4 11
M  V30 12 1 5 12
M  V30 13 1 6 13
M  V30 14 1 7 14
M  V30 15 1 7 15
M  V30 16 1 8 16
M  V30 END BOND
M  V30 END CTAB
M  END
>  <NO.>
805

>  <Name>
styrene

>  <SMILES>
C=Cc1ccccc1

>  <logBB>
0.45

>  <Class>
1

>  <MW>
104.06

>  <nHBAcc>
0

>  <nHBDon>
0

>  <SLogP>
2.33

>  <TopoPSA>
0

>  <MMFF94 Energy>
22.529

$$$$
CCC(=O)OC(Cc1ccccc1)(c1ccccc1)[C@H](C)CN(C)C
Actelion Java MolfileCreator 2.0

  0  0  0  0  0  0              0 V3000
M  V30 BEGIN CTAB
M  V30 COUNTS 54 55 0 0 0
M  V30 BEGIN ATOM
M  V30 1 O 1.1026 0.3149 2.6006 0
M  V30 2 C 0.5814 -0.5865 1.9617 0
M  V30 3 O 0.0939 -0.4977 0.6986 0
M  V30 4 C 0.3848 -1.9998 2.4569 0
M  V30 5 C 0.0812 0.7606 -0.0473 0
M  V30 6 C 0.9646 -2.2038 3.8452 0
M  V30 7 C -0.7801 1.8111 0.6995 0
M  V30 8 C -0.5882 0.424 -1.4494 0 CFG=1
M  V30 9 C 1.5779 1.2311 -0.2388 0
M  V30 10 C -1.8973 1.4113 1.4603 0
M  V30 11 C -0.5051 3.1893 0.6378 0
M  V30 12 C -2.0137 -0.2131 -1.4109 0
M  V30 13 C -0.6628 1.6349 -2.4017 0
M  V30 14 C 2.5669 0.2159 -0.7886 0
M  V30 15 C -2.6965 2.3405 2.1309 0
M  V30 16 C -1.3048 4.1202 1.3094 0
M  V30 17 N -2.1729 -1.4828 -0.6795 0
M  V30 18 C 3.3596 -0.5461 0.0822 0
M  V30 19 C 2.7388 0.0438 -2.1693 0
M  V30 20 C -2.3992 3.6962 2.0558 0
M  V30 21 C -1.427 -2.576 -1.3059 0
M  V30 22 C -3.591 -1.8386 -0.5873 0
M  V30 23 C 4.2717 -1.48 -0.4125 0
M  V30 24 C 3.651 -0.8906 -2.6645 0
M  V30 25 C 4.4135 -1.656 -1.7861 0
M  V30 26 H 0.8756 -2.6843 1.7568 0
M  V30 27 H -0.689 -2.214 2.4748 0
M  V30 28 H 0.8112 -3.2359 4.1747 0
M  V30 29 H 0.488 -1.5377 4.5722 0
M  V30 30 H 2.0399 -1.9966 3.8561 0
M  V30 31 H 0.048 -0.3182 -1.9431 0
M  V30 32 H 1.9784 1.5863 0.7199 0
M  V30 33 H 1.6331 2.1159 -0.8829 0
M  V30 34 H -2.1608 0.3577 1.536 0
M  V30 35 H 0.334 3.5743 0.066 0
M  V30 36 H -2.3494 -0.3661 -2.4471 0
M  V30 37 H -2.7056 0.5295 -0.9948 0
M  V30 38 H 0.3056 2.1167 -2.5474 0
M  V30 39 H -1.005 1.3162 -3.3931 0
M  V30 40 H -1.3701 2.3893 -2.0431 0
M  V30 41 H -3.5485 2.0005 2.7134 0
M  V30 42 H -1.0675 5.1794 1.2503 0
M  V30 43 H 3.2845 -0.4072 1.1588 0
M  V30 44 H 2.1684 0.6391 -2.877 0
M  V30 45 H -3.0164 4.4203 2.5802 0
M  V30 46 H -0.3492 -2.3889 -1.287 0
M  V30 47 H -1.7329 -2.7422 -2.345 0
M  V30 48 H -1.5787 -3.5093 -0.7514 0
M  V30 49 H -4.0445 -1.9911 -1.5734 0
M  V30 50 H -4.1524 -1.0554 -0.0655 0
M  V30 51 H -3.7208 -2.7555 -0.0014 0
M  V30 52 H 4.8768 -2.063 0.2766 0
M  V30 53 H 3.7701 -1.0163 -3.7373 0
M  V30 54 H 5.1257 -2.3804 -2.1713 0
M  V30 END ATOM
M  V30 BEGIN BOND
M  V30 1 2 1 2
M  V30 2 1 2 3
M  V30 3 1 2 4
M  V30 4 1 3 5
M  V30 5 1 4 6
M  V30 6 1 5 7
M  V30 7 1 5 8
M  V30 8 1 5 9
M  V30 9 2 7 10
M  V30 10 1 7 11
M  V30 11 1 8 12
M  V30 12 1 8 13
M  V30 13 1 9 14
M  V30 14 1 10 15
M  V30 15 2 11 16
M  V30 16 1 12 17
M  V30 17 2 14 18
M  V30 18 1 14 19
M  V30 19 2 15 20
M  V30 20 1 17 21
M  V30 21 1 17 22
M  V30 22 1 18 23
M  V30 23 2 19 24
M  V30 24 2 23 25
M  V30 25 1 16 20
M  V30 26 1 24 25
M  V30 27 1 4 26
M  V30 28 1 4 27
M  V30 29 1 6 28
M  V30 30 1 6 29
M  V30 31 1 6 30
M  V30 32 1 8 31
M  V30 33 1 9 32
M  V30 34 1 9 33
M  V30 35 1 10 34
M  V30 36 1 11 35
M  V30 37 1 12 36
M  V30 38 1 12 37
M  V30 39 1 13 38
M  V30 40 1 13 39
M  V30 41 1 13 40
M  V30 42 1 15 41
M  V30 43 1 16 42
M  V30 44 1 18 43
M  V30 45 1 19 44
M  V30 46 1 20 45
M  V30 47 1 21 46
M  V30 48 1 21 47
M  V30 49 1 21 48
M  V30 50 1 22 49
M  V30 51 1 22 50
M  V30 52 1 22 51
M  V30 53 1 23 52
M  V30 54 1 24 53
M  V30 55 1 25 54
M  V30 END BOND
M  V30 BEGIN COLLECTION
M  V30 MDLV30/STEABS ATOMS=(1 8)
M  V30 END COLLECTION
M  V30 END CTAB
M  END
>  <NO.>
806

>  <Name>
propoxyphene

>  <SMILES>
CCC(=O)OC(Cc1ccccc1)(c1ccccc1)[C@H](C)CN(C)C

>  <logBB>
0.46

>  <Class>
1

>  <MW>
339.22

>  <nHBAcc>
3

>  <nHBDon>
0

>  <SLogP>
4.28

>  <TopoPSA>
29.54

>  <MMFF94 Energy>
71.041

$$$$
CN1CN(c2ccccc2)C2(CCN(CCCC(=O)c3ccc(F)cc3)CC2)C1=O
Actelion Java MolfileCreator 2.0

  0  0  0  0  0  0              0 V3000
M  V30 BEGIN CTAB
M  V30 COUNTS 58 61 0 0 0
M  V30 BEGIN ATOM
M  V30 1 F -7.7629 2.1561 -0.4788 0
M  V30 2 C -6.5748 2.3144 -1.0759 0
M  V30 3 C -6.5236 2.7031 -2.4082 0
M  V30 4 C -5.4094 2.0846 -0.3538 0
M  V30 5 C -5.2832 2.8664 -3.0291 0
M  V30 6 C -4.1655 2.247 -0.9721 0
M  V30 7 C -4.0937 2.6433 -2.3154 0
M  V30 8 C -2.7953 2.8288 -3.036 0
M  V30 9 O -2.8011 3.0208 -4.2519 0
M  V30 10 C -1.4904 2.7548 -2.273 0
M  V30 11 C -0.9309 1.3343 -2.3144 0
M  V30 12 C 0.2761 1.154 -1.3868 0
M  V30 13 N -0.065 1.3466 0.0323 0
M  V30 14 C 1.1221 1.632 0.8516 0
M  V30 15 C -0.8253 0.2352 0.6235 0
M  V30 16 C 2.0515 0.431 1.032 0
M  V30 17 C -0.0162 -1.0503 0.8164 0
M  V30 18 C 1.304 -0.8048 1.5522 0
M  V30 19 N 2.1769 -2.01 1.5501 0
M  V30 20 C 1.0304 -0.6365 3.0646 0
M  V30 21 C 2.8722 -2.4722 0.4567 0
M  V30 22 C 2.6194 -2.3689 2.8814 0
M  V30 23 O 0.2782 0.1705 3.5907 0
M  V30 24 N 1.8072 -1.5612 3.7375 0
M  V30 25 C 4.2381 -2.2064 0.2861 0
M  V30 26 C 2.2345 -3.2416 -0.5225 0
M  V30 27 C 1.8559 -1.7039 5.171 0
M  V30 28 C 4.9377 -2.6791 -0.8283 0
M  V30 29 C 2.9268 -3.7195 -1.6392 0
M  V30 30 C 4.2801 -3.4358 -1.7929 0
M  V30 31 H -7.4446 2.8759 -2.9561 0
M  V30 32 H -5.4749 1.7794 0.6864 0
M  V30 33 H -5.2474 3.1698 -4.0744 0
M  V30 34 H -3.2741 2.0516 -0.383 0
M  V30 35 H -0.787 3.4508 -2.7475 0
M  V30 36 H -1.6247 3.1322 -1.2556 0
M  V30 37 H -1.7117 0.6013 -2.0834 0
M  V30 38 H -0.6165 1.1111 -3.3424 0
M  V30 39 H 0.7312 0.174 -1.5684 0
M  V30 40 H 1.0249 1.8983 -1.6887 0
M  V30 41 H 0.7936 2.0011 1.8309 0
M  V30 42 H 1.6858 2.4667 0.4157 0
M  V30 43 H -1.2285 0.5674 1.5878 0
M  V30 44 H -1.7138 0.011 0.0233 0
M  V30 45 H 2.5278 0.2152 0.0681 0
M  V30 46 H 2.8631 0.7081 1.7174 0
M  V30 47 H -0.6292 -1.7804 1.3607 0
M  V30 48 H 0.1647 -1.4854 -0.1707 0
M  V30 49 H 2.4364 -3.4275 3.0931 0
M  V30 50 H 3.6689 -2.1183 3.0678 0
M  V30 51 H 4.7717 -1.6017 1.0149 0
M  V30 52 H 1.1845 -3.4992 -0.4101 0
M  V30 53 H 1.1678 -1.0065 5.6559 0
M  V30 54 H 1.5784 -2.7282 5.4346 0
M  V30 55 H 2.875 -1.5008 5.5117 0
M  V30 56 H 5.9941 -2.4511 -0.9423 0
M  V30 57 H 2.407 -4.3174 -2.3831 0
M  V30 58 H 4.8204 -3.8051 -2.6603 0
M  V30 END ATOM
M  V30 BEGIN BOND
M  V30 1 1 1 2
M  V30 2 2 2 3
M  V30 3 1 2 4
M  V30 4 1 3 5
M  V30 5 2 4 6
M  V30 6 2 5 7
M  V30 7 1 7 8
M  V30 8 2 8 9
M  V30 9 1 8 10
M  V30 10 1 10 11
M  V30 11 1 11 12
M  V30 12 1 12 13
M  V30 13 1 13 14
M  V30 14 1 13 15
M  V30 15 1 14 16
M  V30 16 1 15 17
M  V30 17 1 16 18
M  V30 18 1 18 19
M  V30 19 1 18 20
M  V30 20 1 19 21
M  V30 21 1 19 22
M  V30 22 2 20 23
M  V30 23 1 20 24
M  V30 24 2 21 25
M  V30 25 1 21 26
M  V30 26 1 24 27
M  V30 27 1 25 28
M  V30 28 2 26 29
M  V30 29 2 28 30
M  V30 30 1 6 7
M  V30 31 1 17 18
M  V30 32 1 22 24
M  V30 33 1 29 30
M  V30 34 1 3 31
M  V30 35 1 4 32
M  V30 36 1 5 33
M  V30 37 1 6 34
M  V30 38 1 10 35
M  V30 39 1 10 36
M  V30 40 1 11 37
M  V30 41 1 11 38
M  V30 42 1 12 39
M  V30 43 1 12 40
M  V30 44 1 14 41
M  V30 45 1 14 42
M  V30 46 1 15 43
M  V30 47 1 15 44
M  V30 48 1 16 45
M  V30 49 1 16 46
M  V30 50 1 17 47
M  V30 51 1 17 48
M  V30 52 1 22 49
M  V30 53 1 22 50
M  V30 54 1 25 51
M  V30 55 1 26 52
M  V30 56 1 27 53
M  V30 57 1 27 54
M  V30 58 1 27 55
M  V30 59 1 28 56
M  V30 60 1 29 57
M  V30 61 1 30 58
M  V30 END BOND
M  V30 END CTAB
M  END
>  <NO.>
807

>  <Name>
n-methylspiperone

>  <SMILES>
CN1CN(c2ccccc2)C2(CCN(CCCC(=O)c3ccc(F)cc3)CC2)C1=O

>  <logBB>
0.46

>  <Class>
1

>  <MW>
409.22

>  <nHBAcc>
4

>  <nHBDon>
0

>  <SLogP>
3.56

>  <TopoPSA>
43.86

>  <MMFF94 Energy>
43.503

$$$$
Clc1cc(Cl)c(NC2=NCCN2)c(Cl)c1
Actelion Java MolfileCreator 2.0

  0  0  0  0  0  0              0 V3000
M  V30 BEGIN CTAB
M  V30 COUNTS 23 24 0 0 0
M  V30 BEGIN ATOM
M  V30 1 Cl 2.8394 -0.5006 2.0037 0
M  V30 2 C 2.3333 -0.7748 0.3679 0
M  V30 3 C 1.2521 -0.0489 -0.1842 0
M  V30 4 C 3.0339 -1.7348 -0.3666 0
M  V30 5 N 0.5556 0.8528 0.6432 0
M  V30 6 C 0.9245 -0.3188 -1.5273 0
M  V30 7 C 2.6678 -1.9871 -1.681 0
M  V30 8 C -0.7638 1.0066 0.8899 0
M  V30 9 Cl -0.2736 0.5831 -2.3944 0
M  V30 10 C 1.6234 -1.2819 -2.2673 0
M  V30 11 Cl 3.5222 -3.1662 -2.5954 0
M  V30 12 N -1.2106 1.8947 1.7397 0
M  V30 13 N -1.6888 0.1985 0.3298 0
M  V30 14 C -2.6882 1.6883 1.7593 0
M  V30 15 C -3.0069 0.6189 0.7089 0
M  V30 16 H 3.8569 -2.2806 0.0877 0
M  V30 17 H 1.1361 1.3583 1.3044 0
M  V30 18 H 1.3615 -1.4681 -3.3065 0
M  V30 19 H -1.5254 -0.3005 -0.53 0
M  V30 20 H -3.2012 2.629 1.5351 0
M  V30 21 H -2.9916 1.3591 2.759 0
M  V30 22 H -3.5937 -0.203 1.128 0
M  V30 23 H -3.5408 1.0478 -0.1444 0
M  V30 END ATOM
M  V30 BEGIN BOND
M  V30 1 1 1 2
M  V30 2 2 2 3
M  V30 3 1 2 4
M  V30 4 1 3 5
M  V30 5 1 3 6
M  V30 6 2 4 7
M  V30 7 1 5 8
M  V30 8 1 6 9
M  V30 9 2 6 10
M  V30 10 1 7 11
M  V30 11 2 8 12
M  V30 12 1 8 13
M  V30 13 1 12 14
M  V30 14 1 13 15
M  V30 15 1 7 10
M  V30 16 1 14 15
M  V30 17 1 4 16
M  V30 18 1 5 17
M  V30 19 1 10 18
M  V30 20 1 13 19
M  V30 21 1 14 20
M  V30 22 1 14 21
M  V30 23 1 15 22
M  V30 24 1 15 23
M  V30 END BOND
M  V30 END CTAB
M  END
>  <NO.>
809

>  <Name>
21571-08-4

>  <SMILES>
Clc1cc(Cl)c(NC2=NCCN2)c(Cl)c1

>  <logBB>
0.47

>  <Class>
1

>  <MW>
262.98

>  <nHBAcc>
3

>  <nHBDon>
2

>  <SLogP>
3.02

>  <TopoPSA>
36.42

>  <MMFF94 Energy>
-31.869

$$$$
Nc1nnc(-c2cccc(Cl)c2Cl)c(N)n1
Actelion Java MolfileCreator 2.0

  0  0  0  0  0  0              0 V3000
M  V30 BEGIN CTAB
M  V30 COUNTS 23 24 0 0 0
M  V30 BEGIN ATOM
M  V30 1 Cl 2.795 -0.0821 0.1642 0
M  V30 2 C 1.6284 1.2052 0.0816 0
M  V30 3 C 2.0559 2.5321 -0.1003 0
M  V30 4 C 0.2524 0.9219 0.2178 0
M  V30 5 Cl 3.7235 2.9575 -0.2864 0
M  V30 6 C 1.1268 3.5761 -0.1386 0
M  V30 7 C -0.2673 -0.4358 0.3999 0
M  V30 8 C -0.6617 1.9955 0.1895 0
M  V30 9 C -0.2306 3.3094 0.0104 0
M  V30 10 N -0.7214 -0.7254 1.6367 0
M  V30 11 C -0.3577 -1.3942 -0.6105 0
M  V30 12 N -1.2191 -1.9691 1.8716 0
M  V30 13 N -0.8367 -2.6284 -0.3726 0
M  V30 14 N 0.0699 -1.1721 -1.9098 0
M  V30 15 C -1.2517 -2.8759 0.8751 0
M  V30 16 N -1.74 -4.127 1.1345 0
M  V30 17 H 1.4586 4.6031 -0.2756 0
M  V30 18 H -1.7279 1.8037 0.316 0
M  V30 19 H -0.9525 4.1232 -0.0063 0
M  V30 20 H -0.0396 -1.9775 -2.5137 0
M  V30 21 H -0.0423 -0.2574 -2.3204 0
M  V30 22 H -1.7214 -4.7996 0.3879 0
M  V30 23 H -2.024 -4.3468 2.0734 0
M  V30 END ATOM
M  V30 BEGIN BOND
M  V30 1 1 1 2
M  V30 2 2 2 3
M  V30 3 1 2 4
M  V30 4 1 3 5
M  V30 5 1 3 6
M  V30 6 1 4 7
M  V30 7 2 4 8
M  V30 8 2 6 9
M  V30 9 2 7 10
M  V30 10 1 7 11
M  V30 11 1 10 12
M  V30 12 2 11 13
M  V30 13 1 11 14
M  V30 14 2 12 15
M  V30 15 1 15 16
M  V30 16 1 8 9
M  V30 17 1 13 15
M  V30 18 1 6 17
M  V30 19 1 8 18
M  V30 20 1 9 19
M  V30 21 1 14 20
M  V30 22 1 14 21
M  V30 23 1 16 22
M  V30 24 1 16 23
M  V30 END BOND
M  V30 END CTAB
M  END
>  <NO.>
810

>  <Name>
lamotrigine

>  <SMILES>
Nc1nnc(-c2cccc(Cl)c2Cl)c(N)n1

>  <logBB>
0.48

>  <Class>
1

>  <MW>
255.01

>  <nHBAcc>
5

>  <nHBDon>
2

>  <SLogP>
2.01

>  <TopoPSA>
90.71

>  <MMFF94 Energy>
7.5158

$$$$
COc1cc2sc(C)nc2cc1CNC1CCCNC1c1ccccc1
Actelion Java MolfileCreator 2.0

  0  0  0  0  0  0              0 V3000
M  V30 BEGIN CTAB
M  V30 COUNTS 51 54 0 0 0
M  V30 BEGIN ATOM
M  V30 1 S 3.6253 4.2709 2.4157 0
M  V30 2 C 2.3636 3.2758 1.7929 0
M  V30 3 C 4.6658 2.9085 2.484 0
M  V30 4 C 2.8322 1.9685 1.683 0
M  V30 5 C 1.0539 3.6361 1.4253 0
M  V30 6 N 4.1446 1.7721 2.0798 0
M  V30 7 C 6.0607 3.0621 2.9783 0
M  V30 8 C 1.9594 0.9813 1.1911 0
M  V30 9 C 0.1949 2.6411 0.937 0
M  V30 10 C 0.6372 1.3112 0.8299 0
M  V30 11 O -1.0949 2.8727 0.5271 0
M  V30 12 C -0.2608 0.2126 0.2929 0
M  V30 13 C -1.5984 4.1968 0.6536 0
M  V30 14 N -0.1422 0.1252 -1.1637 0
M  V30 15 C -1.1839 -0.7135 -1.8008 0
M  V30 16 C -1.0054 -2.2771 -1.6587 0
M  V30 17 C -1.1539 -0.3242 -3.2972 0
M  V30 18 N -1.9091 -3.0482 -2.5424 0
M  V30 19 C -1.2014 -2.8089 -0.2413 0
M  V30 20 C -2.098 -1.1813 -4.129 0
M  V30 21 C -1.7845 -2.6574 -3.9399 0
M  V30 22 C -0.2119 -3.6183 0.3412 0
M  V30 23 C -2.3671 -2.5426 0.4983 0
M  V30 24 C -0.3691 -4.1206 1.6343 0
M  V30 25 C -2.5221 -3.0461 1.7917 0
M  V30 26 C -1.5221 -3.8314 2.3602 0
M  V30 27 H 0.7486 4.6706 1.5242 0
M  V30 28 H 6.5824 2.1 2.9558 0
M  V30 29 H 6.6208 3.7635 2.3519 0
M  V30 30 H 6.0702 3.4261 4.0107 0
M  V30 31 H 2.3222 -0.0378 1.091 0
M  V30 32 H -1.295 0.4019 0.6042 0
M  V30 33 H 0.0463 -0.7243 0.7643 0
M  V30 34 H -1.6012 4.5207 1.6996 0
M  V30 35 H -2.6353 4.194 0.304 0
M  V30 36 H -1.0371 4.8936 0.0227 0
M  V30 37 H -0.235 1.0792 -1.5167 0
M  V30 38 H -2.169 -0.4169 -1.4167 0
M  V30 39 H 0.0241 -2.5106 -1.9657 0
M  V30 40 H -0.1352 -0.435 -3.6938 0
M  V30 41 H -1.4292 0.731 -3.4209 0
M  V30 42 H -2.8687 -2.9077 -2.232 0
M  V30 43 H -3.1369 -0.9755 -3.8424 0
M  V30 44 H -1.9994 -0.9156 -5.1875 0
M  V30 45 H -2.4799 -3.2568 -4.5375 0
M  V30 46 H -0.7775 -2.8889 -4.307 0
M  V30 47 H 0.6918 -3.8605 -0.2137 0
M  V30 48 H -3.1656 -1.9404 0.0736 0
M  V30 49 H 0.4083 -4.741 2.072 0
M  V30 50 H -3.4263 -2.8289 2.3542 0
M  V30 51 H -1.644 -4.2248 3.3657 0
M  V30 END ATOM
M  V30 BEGIN BOND
M  V30 1 1 1 2
M  V30 2 1 1 3
M  V30 3 2 2 4
M  V30 4 1 2 5
M  V30 5 2 3 6
M  V30 6 1 3 7
M  V30 7 1 4 8
M  V30 8 2 5 9
M  V30 9 2 8 10
M  V30 10 1 9 11
M  V30 11 1 10 12
M  V30 12 1 11 13
M  V30 13 1 12 14
M  V30 14 1 14 15
M  V30 15 1 15 16
M  V30 16 1 15 17
M  V30 17 1 16 18
M  V30 18 1 16 19
M  V30 19 1 17 20
M  V30 20 1 18 21
M  V30 21 2 19 22
M  V30 22 1 19 23
M  V30 23 1 22 24
M  V30 24 2 23 25
M  V30 25 2 24 26
M  V30 26 1 4 6
M  V30 27 1 9 10
M  V30 28 1 20 21
M  V30 29 1 25 26
M  V30 30 1 5 27
M  V30 31 1 7 28
M  V30 32 1 7 29
M  V30 33 1 7 30
M  V30 34 1 8 31
M  V30 35 1 12 32
M  V30 36 1 12 33
M  V30 37 1 13 34
M  V30 38 1 13 35
M  V30 39 1 13 36
M  V30 40 1 14 37
M  V30 41 1 15 38
M  V30 42 1 16 39
M  V30 43 1 17 40
M  V30 44 1 17 41
M  V30 45 1 18 42
M  V30 46 1 20 43
M  V30 47 1 20 44
M  V30 48 1 21 45
M  V30 49 1 21 46
M  V30 50 1 22 47
M  V30 51 1 23 48
M  V30 52 1 24 49
M  V30 53 1 25 50
M  V30 54 1 26 51
M  V30 END BOND
M  V30 END CTAB
M  END
>  <NO.>
812

>  <Name>
pfizer compound 17

>  <SMILES>
COc1cc2sc(C)nc2cc1CNC1CCCNC1c1ccccc1

>  <logBB>
0.48

>  <Class>
1

>  <MW>
367.17

>  <nHBAcc>
5

>  <nHBDon>
2

>  <SLogP>
4.2

>  <TopoPSA>
46.18

>  <MMFF94 Energy>
71.632

$$$$
CCN(CC)Cc1ccc2c(c1)CCC(N1CCN(CCc3ccc(F)cc3)CC1=O)C2
Actelion Java MolfileCreator 2.0

  0  0  0  0  0  0              0 V3000
M  V30 BEGIN CTAB
M  V30 COUNTS 68 71 0 0 0
M  V30 BEGIN ATOM
M  V30 1 F -0.3973 -6.2925 -5.8933 0
M  V30 2 C -0.966 -5.0873 -6.0308 0
M  V30 3 C -0.2714 -3.9529 -5.6307 0
M  V30 4 C -2.2431 -4.9909 -6.5698 0
M  V30 5 C -0.8632 -2.6974 -5.7749 0
M  V30 6 C -2.8372 -3.7361 -6.7136 0
M  V30 7 C -2.15 -2.5766 -6.3214 0
M  V30 8 C -2.7966 -1.2179 -6.4681 0
M  V30 9 C -3.539 -0.7464 -5.2023 0
M  V30 10 N -2.6615 -0.4159 -4.063 0
M  V30 11 C -3.468 -0.3216 -2.8235 0
M  V30 12 C -1.954 0.8546 -4.2526 0
M  V30 13 C -2.6686 0.1053 -1.5819 0
M  V30 14 C -0.9633 1.0572 -3.1033 0
M  V30 15 O -3.087 -0.1946 -0.4615 0
M  V30 16 N -1.548 0.9111 -1.7728 0
M  V30 17 C -0.7406 1.3814 -0.6313 0 CFG=2
M  V30 18 C -0.0375 0.2401 0.1237 0
M  V30 19 C -1.5302 2.2541 0.3518 0
M  V30 20 C 0.7289 0.7307 1.3308 0
M  V30 21 C -0.5756 2.9191 1.3432 0
M  V30 22 C 0.4474 1.9736 1.9259 0
M  V30 23 C 1.704 -0.0997 1.9001 0
M  V30 24 C 1.1727 2.3752 3.0603 0
M  V30 25 C 2.4118 0.3065 3.0315 0
M  V30 26 C 2.1497 1.5453 3.629 0
M  V30 27 C 2.936 2.002 4.8433 0
M  V30 28 N 2.9931 0.9953 5.927 0
M  V30 29 C 1.6703 0.8651 6.572 0
M  V30 30 C 4.0292 1.3507 6.9139 0
M  V30 31 C 1.5322 -0.4411 7.3491 0
M  V30 32 C 5.4409 1.081 6.4002 0
M  V30 33 H 0.7214 -4.0524 -5.2049 0
M  V30 34 H -2.7677 -5.8916 -6.8712 0
M  V30 35 H -0.3217 -1.8128 -5.4484 0
M  V30 36 H -3.8389 -3.669 -7.1319 0
M  V30 37 H -3.5197 -1.2636 -7.2935 0
M  V30 38 H -2.0461 -0.4876 -6.7917 0
M  V30 39 H -4.1625 0.1207 -5.4578 0
M  V30 40 H -4.2289 -1.5488 -4.9078 0
M  V30 41 H -3.896 -1.3065 -2.6011 0
M  V30 42 H -4.2899 0.3963 -2.9401 0
M  V30 43 H -2.6596 1.695 -4.2931 0
M  V30 44 H -1.3846 0.8605 -5.1875 0
M  V30 45 H -0.1469 0.3284 -3.1769 0
M  V30 46 H -0.5321 2.0614 -3.1857 0
M  V30 47 H 0.0415 2.0261 -1.0579 0
M  V30 48 H 0.6479 -0.2685 -0.5659 0
M  V30 49 H -0.7603 -0.5078 0.469 0
M  V30 50 H -2.2592 1.654 0.9087 0
M  V30 51 H -2.0983 3.0244 -0.1833 0
M  V30 52 H -0.0366 3.7293 0.836 0
M  V30 53 H -1.1659 3.3708 2.1497 0
M  V30 54 H 1.9154 -1.0747 1.4665 0
M  V30 55 H 0.9666 3.3457 3.5078 0
M  V30 56 H 3.1642 -0.353 3.4593 0
M  V30 57 H 2.5302 2.9467 5.2298 0
M  V30 58 H 3.9395 2.2308 4.4668 0
M  V30 59 H 1.4644 1.7202 7.2283 0
M  V30 60 H 0.8735 0.8523 5.8191 0
M  V30 61 H 3.9357 2.3983 7.2274 0
M  V30 62 H 3.9179 0.7453 7.8196 0
M  V30 63 H 0.5032 -0.5522 7.7076 0
M  V30 64 H 2.1871 -0.4774 8.2239 0
M  V30 65 H 1.7578 -1.3027 6.7118 0
M  V30 66 H 6.1646 1.2324 7.2082 0
M  V30 67 H 5.7217 1.7511 5.583 0
M  V30 68 H 5.5417 0.0477 6.0515 0
M  V30 END ATOM
M  V30 BEGIN BOND
M  V30 1 1 1 2
M  V30 2 2 2 3
M  V30 3 1 2 4
M  V30 4 1 3 5
M  V30 5 2 4 6
M  V30 6 2 5 7
M  V30 7 1 7 8
M  V30 8 1 8 9
M  V30 9 1 9 10
M  V30 10 1 10 11
M  V30 11 1 10 12
M  V30 12 1 11 13
M  V30 13 1 12 14
M  V30 14 2 13 15
M  V30 15 1 13 16
M  V30 16 1 16 17
M  V30 17 1 17 18
M  V30 18 1 17 19
M  V30 19 1 18 20
M  V30 20 1 19 21
M  V30 21 2 20 22
M  V30 22 1 20 23
M  V30 23 1 22 24
M  V30 24 2 23 25
M  V30 25 2 24 26
M  V30 26 1 26 27
M  V30 27 1 27 28
M  V30 28 1 28 29
M  V30 29 1 28 30
M  V30 30 1 29 31
M  V30 31 1 30 32
M  V30 32 1 6 7
M  V30 33 1 14 16
M  V30 34 1 21 22
M  V30 35 1 25 26
M  V30 36 1 3 33
M  V30 37 1 4 34
M  V30 38 1 5 35
M  V30 39 1 6 36
M  V30 40 1 8 37
M  V30 41 1 8 38
M  V30 42 1 9 39
M  V30 43 1 9 40
M  V30 44 1 11 41
M  V30 45 1 11 42
M  V30 46 1 12 43
M  V30 47 1 12 44
M  V30 48 1 14 45
M  V30 49 1 14 46
M  V30 50 1 17 47
M  V30 51 1 18 48
M  V30 52 1 18 49
M  V30 53 1 19 50
M  V30 54 1 19 51
M  V30 55 1 21 52
M  V30 56 1 21 53
M  V30 57 1 23 54
M  V30 58 1 24 55
M  V30 59 1 25 56
M  V30 60 1 27 57
M  V30 61 1 27 58
M  V30 62 1 29 59
M  V30 63 1 29 60
M  V30 64 1 30 61
M  V30 65 1 30 62
M  V30 66 1 31 63
M  V30 67 1 31 64
M  V30 68 1 31 65
M  V30 69 1 32 66
M  V30 70 1 32 67
M  V30 71 1 32 68
M  V30 END BOND
M  V30 BEGIN COLLECTION
M  V30 MDLV30/STERAC1 ATOMS=(1 17)
M  V30 END COLLECTION
M  V30 END CTAB
M  END
>  <NO.>
814

>  <Name>
chembl506480

>  <SMILES>
CCN(CC)Cc1ccc2c(c1)CCC(N1CCN(CCc3ccc(F)cc3)CC1=O)C2

>  <logBB>
0.48

>  <Class>
1

>  <MW>
437.28

>  <nHBAcc>
3

>  <nHBDon>
0

>  <SLogP>
3.91

>  <TopoPSA>
26.79

>  <MMFF94 Energy>
135.75

$$$$
O=S(=O)(c1cccc(Cl)c1)n1ccc2c(N3CCNCC3)c(Cl)ccc21
Actelion Java MolfileCreator 2.0

  0  0  0  0  0  0              0 V3000
M  V30 BEGIN CTAB
M  V30 COUNTS 43 46 0 0 0
M  V30 BEGIN ATOM
M  V30 1 Cl 2.9899 0.0 2.7405 0
M  V30 2 C 2.0415 -0.305 1.321 0
M  V30 3 C 1.3903 0.736 0.6153 0
M  V30 4 C 1.957 -1.6378 0.9108 0
M  V30 5 N 1.4257 2.08 0.9612 0
M  V30 6 C 0.6441 0.3531 -0.536 0
M  V30 7 C 1.2235 -2.0048 -0.2171 0
M  V30 8 C 0.6704 2.5059 2.1467 0
M  V30 9 C 2.6747 2.8141 0.7184 0
M  V30 10 C 0.5705 -0.9906 -0.9316 0
M  V30 11 C -0.1326 1.1104 -1.4706 0
M  V30 12 C 0.4537 4.0371 2.1123 0
M  V30 13 C 2.4023 4.3368 0.7258 0
M  V30 14 N -0.2197 -1.0131 -2.0655 0
M  V30 15 C -0.6669 0.2405 -2.3904 0
M  V30 16 N 1.7009 4.8088 1.9373 0
M  V30 17 S -0.7799 -2.4273 -2.8365 0
M  V30 18 O -1.509 -1.9949 -4.0132 0
M  V30 19 O 0.3665 -3.3114 -2.9199 0
M  V30 20 C -1.9519 -3.1029 -1.6926 0
M  V30 21 C -3.0771 -2.3516 -1.3401 0
M  V30 22 C -1.75 -4.3833 -1.167 0
M  V30 23 C -3.9904 -2.8876 -0.4357 0
M  V30 24 C -2.6734 -4.908 -0.2625 0
M  V30 25 Cl -5.3756 -1.9736 0.0173 0
M  V30 26 C -3.7927 -4.1583 0.106 0
M  V30 27 H 2.476 -2.4119 1.4731 0
M  V30 28 H 1.1899 -3.0469 -0.5221 0
M  V30 29 H -0.3099 2.0147 2.1748 0
M  V30 30 H 1.2074 2.239 3.0639 0
M  V30 31 H 3.0992 2.5399 -0.255 0
M  V30 32 H 3.4174 2.5768 1.4886 0
M  V30 33 H -0.2804 2.1832 -1.4448 0
M  V30 34 H -0.0247 4.351 3.0464 0
M  V30 35 H -0.2376 4.2871 1.2972 0
M  V30 36 H 3.3554 4.8703 0.6421 0
M  V30 37 H 1.8066 4.6024 -0.1569 0
M  V30 38 H -1.3129 0.413 -3.2423 0
M  V30 39 H 1.4689 5.7945 1.8239 0
M  V30 40 H -3.2513 -1.3674 -1.7679 0
M  V30 41 H -0.8842 -4.9777 -1.4539 0
M  V30 42 H -2.5247 -5.9021 0.1537 0
M  V30 43 H -4.5098 -4.5727 0.8109 0
M  V30 END ATOM
M  V30 BEGIN BOND
M  V30 1 1 1 2
M  V30 2 2 2 3
M  V30 3 1 2 4
M  V30 4 1 3 5
M  V30 5 1 3 6
M  V30 6 2 4 7
M  V30 7 1 5 8
M  V30 8 1 5 9
M  V30 9 2 6 10
M  V30 10 1 6 11
M  V30 11 1 8 12
M  V30 12 1 9 13
M  V30 13 1 10 14
M  V30 14 2 11 15
M  V30 15 1 12 16
M  V30 16 1 14 17
M  V30 17 2 17 18
M  V30 18 2 17 19
M  V30 19 1 17 20
M  V30 20 2 20 21
M  V30 21 1 20 22
M  V30 22 1 21 23
M  V30 23 2 22 24
M  V30 24 1 23 25
M  V30 25 2 23 26
M  V30 26 1 7 10
M  V30 27 1 13 16
M  V30 28 1 14 15
M  V30 29 1 24 26
M  V30 30 1 4 27
M  V30 31 1 7 28
M  V30 32 1 8 29
M  V30 33 1 8 30
M  V30 34 1 9 31
M  V30 35 1 9 32
M  V30 36 1 11 33
M  V30 37 1 12 34
M  V30 38 1 12 35
M  V30 39 1 13 36
M  V30 40 1 13 37
M  V30 41 1 15 38
M  V30 42 1 16 39
M  V30 43 1 21 40
M  V30 44 1 22 41
M  V30 45 1 24 42
M  V30 46 1 26 43
M  V30 END BOND
M  V30 END CTAB
M  END
>  <NO.>
816

>  <Name>
chembl193400

>  <SMILES>
O=S(=O)(c1cccc(Cl)c1)n1ccc2c(N3CCNCC3)c(Cl)ccc21

>  <logBB>
0.48

>  <Class>
1

>  <MW>
409.04

>  <nHBAcc>
4

>  <nHBDon>
1

>  <SLogP>
3.59

>  <TopoPSA>
54.34

>  <MMFF94 Energy>
220.54

$$$$
c1ccc2c(c1)[nH]c1cnccc12
Actelion Java MolfileCreator 2.0

  0  0  0  0  0  0              0 V3000
M  V30 BEGIN CTAB
M  V30 COUNTS 21 23 0 0 0
M  V30 BEGIN ATOM
M  V30 1 N -1.602 1.2013 3.0455 0
M  V30 2 C -0.8801 1.875 2.1216 0
M  V30 3 C -1.8051 -0.124 2.8789 0
M  V30 4 C -0.3689 1.1864 1.0295 0
M  V30 5 C -1.3241 -0.8711 1.8141 0
M  V30 6 N 0.3837 1.6265 -0.0323 0
M  V30 7 C -0.5741 -0.1801 0.8508 0
M  V30 8 C 0.6727 0.5922 -0.8919 0
M  V30 9 C 0.0838 -0.5562 -0.363 0
M  V30 10 C 1.404 0.5884 -2.0856 0
M  V30 11 C 0.2326 -1.7719 -1.0621 0
M  V30 12 C 1.5367 -0.6293 -2.7592 0
M  V30 13 C 0.9606 -1.794 -2.2573 0
M  V30 14 H -0.7365 2.9357 2.2858 0
M  V30 15 H -2.3937 -0.5967 3.6609 0
M  V30 16 H -1.5212 -1.9328 1.7367 0
M  V30 17 H 0.6858 2.5803 -0.1666 0
M  V30 18 H 1.8547 1.4931 -2.4806 0
M  V30 19 H -0.2128 -2.6851 -0.679 0
M  V30 20 H 2.0988 -0.6669 -3.6897 0
M  V30 21 H 1.0763 -2.7305 -2.7976 0
M  V30 END ATOM
M  V30 BEGIN BOND
M  V30 1 2 1 2
M  V30 2 1 1 3
M  V30 3 1 2 4
M  V30 4 2 3 5
M  V30 5 1 4 6
M  V30 6 2 4 7
M  V30 7 1 6 8
M  V30 8 1 7 9
M  V30 9 1 8 10
M  V30 10 1 9 11
M  V30 11 2 10 12
M  V30 12 2 11 13
M  V30 13 1 5 7
M  V30 14 2 8 9
M  V30 15 1 12 13
M  V30 16 1 2 14
M  V30 17 1 3 15
M  V30 18 1 5 16
M  V30 19 1 6 17
M  V30 20 1 10 18
M  V30 21 1 11 19
M  V30 22 1 12 20
M  V30 23 1 13 21
M  V30 END BOND
M  V30 END CTAB
M  END
>  <NO.>
817

>  <Name>
9h-pyrido[3,4-b]indole

>  <SMILES>
c1ccc2c(c1)[nH]c1cnccc12

>  <logBB>
0.48

>  <Class>
1

>  <MW>
168.07

>  <nHBAcc>
1

>  <nHBDon>
1

>  <SLogP>
2.72

>  <TopoPSA>
28.68

>  <MMFF94 Energy>
22.731

$$$$
CCc1nc(N)nc(N)c1-c1ccc(Cl)cc1
Actelion Java MolfileCreator 2.0

  0  0  0  0  0  0              0 V3000
M  V30 BEGIN CTAB
M  V30 COUNTS 30 31 0 0 0
M  V30 BEGIN ATOM
M  V30 1 Cl -1.4294 -3.4969 -4.1337 0
M  V30 2 C -0.9612 -2.3208 -2.9691 0
M  V30 3 C -1.9349 -1.6258 -2.2563 0
M  V30 4 C 0.39 -2.0665 -2.7469 0
M  V30 5 C -1.5531 -0.6702 -1.3107 0
M  V30 6 C 0.7702 -1.1103 -1.801 0
M  V30 7 C -0.1961 -0.4034 -1.0655 0
M  V30 8 C 0.2034 0.6066 -0.0761 0
M  V30 9 C 0.2081 1.9709 -0.3709 0
M  V30 10 C 0.6082 0.291 1.2196 0
M  V30 11 N 0.5506 2.9177 0.516 0
M  V30 12 N -0.2101 2.4565 -1.5996 0
M  V30 13 N 0.9683 1.2361 2.1197 0
M  V30 14 C 0.6349 -1.1228 1.7484 0
M  V30 15 C 0.9228 2.5088 1.7273 0
M  V30 16 C -0.6902 -1.5128 2.3857 0
M  V30 17 N 1.2808 3.4597 2.636 0
M  V30 18 H -2.9902 -1.8189 -2.431 0
M  V30 19 H 1.1509 -2.6063 -3.3044 0
M  V30 20 H -2.3231 -0.1272 -0.7639 0
M  V30 21 H 1.8299 -0.9189 -1.6385 0
M  V30 22 H -0.0219 1.9091 -2.4263 0
M  V30 23 H -0.1602 3.4644 -1.6718 0
M  V30 24 H 1.4273 -1.1994 2.5039 0
M  V30 25 H 0.9053 -1.8377 0.9652 0
M  V30 26 H -0.6325 -2.5307 2.784 0
M  V30 27 H -1.5105 -1.4792 1.6619 0
M  V30 28 H -0.9456 -0.8399 3.2116 0
M  V30 29 H 1.5457 3.1548 3.5554 0
M  V30 30 H 1.2314 4.4225 2.3553 0
M  V30 END ATOM
M  V30 BEGIN BOND
M  V30 1 1 1 2
M  V30 2 2 2 3
M  V30 3 1 2 4
M  V30 4 1 3 5
M  V30 5 2 4 6
M  V30 6 2 5 7
M  V30 7 1 7 8
M  V30 8 2 8 9
M  V30 9 1 8 10
M  V30 10 1 9 11
M  V30 11 1 9 12
M  V30 12 2 10 13
M  V30 13 1 10 14
M  V30 14 2 11 15
M  V30 15 1 14 16
M  V30 16 1 15 17
M  V30 17 1 6 7
M  V30 18 1 13 15
M  V30 19 1 3 18
M  V30 20 1 4 19
M  V30 21 1 5 20
M  V30 22 1 6 21
M  V30 23 1 12 22
M  V30 24 1 12 23
M  V30 25 1 14 24
M  V30 26 1 14 25
M  V30 27 1 16 26
M  V30 28 1 16 27
M  V30 29 1 16 28
M  V30 30 1 17 29
M  V30 31 1 17 30
M  V30 END BOND
M  V30 END CTAB
M  END
>  <NO.>
818

>  <Name>
pyrimethamine

>  <SMILES>
CCc1nc(N)nc(N)c1-c1ccc(Cl)cc1

>  <logBB>
0.49

>  <Class>
1

>  <MW>
248.08

>  <nHBAcc>
4

>  <nHBDon>
2

>  <SLogP>
2.52

>  <TopoPSA>
77.82

>  <MMFF94 Energy>
-87.086

$$$$
COc1cc2oc(C)nc2cc1CNC1CCCNC1c1ccccc1
Actelion Java MolfileCreator 2.0

  0  0  0  0  0  0              0 V3000
M  V30 BEGIN CTAB
M  V30 COUNTS 51 54 0 0 0
M  V30 BEGIN ATOM
M  V30 1 O 0.4775 3.6658 -4.3044 0
M  V30 2 C 0.6604 2.5213 -3.5838 0
M  V30 3 C 0.5946 4.6616 -3.3705 0
M  V30 4 C 0.8793 2.8818 -2.2649 0
M  V30 5 C 0.6388 1.2175 -4.056 0
M  V30 6 N 0.8326 4.2474 -2.1408 0
M  V30 7 C 0.4398 6.0428 -3.8673 0
M  V30 8 C 1.1058 1.8776 -1.3149 0
M  V30 9 C 0.8447 0.2252 -3.0876 0
M  V30 10 C 1.1022 0.5282 -1.7355 0
M  V30 11 O 0.8639 -1.0841 -3.5044 0
M  V30 12 C 1.3401 -0.558 -0.7097 0
M  V30 13 C -0.4702 -1.5859 -3.605 0
M  V30 14 N 0.1031 -0.8511 0.021 0
M  V30 15 C 0.3035 -1.8687 1.0788 0
M  V30 16 C -0.8442 -1.8286 2.155 0
M  V30 17 C 0.358 -3.2719 0.4467 0
M  V30 18 N -0.7026 -2.9073 3.1522 0
M  V30 19 C -0.9013 -0.4816 2.8701 0
M  V30 20 C 0.4276 -4.3574 1.5175 0
M  V30 21 C -0.7111 -4.2234 2.5217 0
M  V30 22 C -1.9705 0.3971 2.6331 0
M  V30 23 C 0.1142 -0.0815 3.7538 0
M  V30 24 C -2.0179 1.6443 3.2586 0
M  V30 25 C 0.0639 1.1648 4.3796 0
M  V30 26 C -1.0009 2.0278 4.1303 0
M  V30 27 H 0.4764 0.9884 -5.1002 0
M  V30 28 H -0.549 6.1802 -4.3143 0
M  V30 29 H 0.5495 6.7618 -3.05 0
M  V30 30 H 1.1984 6.2649 -4.6235 0
M  V30 31 H 1.282 2.1475 -0.2788 0
M  V30 32 H 2.123 -0.2185 -0.0192 0
M  V30 33 H 1.7337 -1.4516 -1.2043 0
M  V30 34 H -1.0326 -1.4368 -2.6769 0
M  V30 35 H -0.4087 -2.6618 -3.7936 0
M  V30 36 H -0.9974 -1.1241 -4.4466 0
M  V30 37 H -0.1975 0.0185 0.4655 0
M  V30 38 H 1.2554 -1.6737 1.5926 0
M  V30 39 H -1.8042 -1.9788 1.6395 0
M  V30 40 H -0.5323 -3.4378 -0.1741 0
M  V30 41 H 1.228 -3.374 -0.2109 0
M  V30 42 H -1.4798 -2.8386 3.8094 0
M  V30 43 H 1.3913 -4.2956 2.0388 0
M  V30 44 H 0.385 -5.3441 1.0425 0
M  V30 45 H -0.5964 -4.9879 3.2978 0
M  V30 46 H -1.6758 -4.4059 2.033 0
M  V30 47 H -2.771 0.1187 1.951 0
M  V30 48 H 0.9482 -0.7489 3.962 0
M  V30 49 H -2.8486 2.318 3.0643 0
M  V30 50 H 0.8556 1.4604 5.063 0
M  V30 51 H -1.0391 2.9987 4.6172 0
M  V30 END ATOM
M  V30 BEGIN BOND
M  V30 1 1 1 2
M  V30 2 1 1 3
M  V30 3 2 2 4
M  V30 4 1 2 5
M  V30 5 2 3 6
M  V30 6 1 3 7
M  V30 7 1 4 8
M  V30 8 2 5 9
M  V30 9 2 8 10
M  V30 10 1 9 11
M  V30 11 1 10 12
M  V30 12 1 11 13
M  V30 13 1 12 14
M  V30 14 1 14 15
M  V30 15 1 15 16
M  V30 16 1 15 17
M  V30 17 1 16 18
M  V30 18 1 16 19
M  V30 19 1 17 20
M  V30 20 1 18 21
M  V30 21 2 19 22
M  V30 22 1 19 23
M  V30 23 1 22 24
M  V30 24 2 23 25
M  V30 25 2 24 26
M  V30 26 1 4 6
M  V30 27 1 9 10
M  V30 28 1 20 21
M  V30 29 1 25 26
M  V30 30 1 5 27
M  V30 31 1 7 28
M  V30 32 1 7 29
M  V30 33 1 7 30
M  V30 34 1 8 31
M  V30 35 1 12 32
M  V30 36 1 12 33
M  V30 37 1 13 34
M  V30 38 1 13 35
M  V30 39 1 13 36
M  V30 40 1 14 37
M  V30 41 1 15 38
M  V30 42 1 16 39
M  V30 43 1 17 40
M  V30 44 1 17 41
M  V30 45 1 18 42
M  V30 46 1 20 43
M  V30 47 1 20 44
M  V30 48 1 21 45
M  V30 49 1 21 46
M  V30 50 1 22 47
M  V30 51 1 23 48
M  V30 52 1 24 49
M  V30 53 1 25 50
M  V30 54 1 26 51
M  V30 END BOND
M  V30 END CTAB
M  END
>  <NO.>
819

>  <Name>
pfizer compound 19

>  <SMILES>
COc1cc2oc(C)nc2cc1CNC1CCCNC1c1ccccc1

>  <logBB>
0.49

>  <Class>
1

>  <MW>
351.19

>  <nHBAcc>
5

>  <nHBDon>
2

>  <SLogP>
3.73

>  <TopoPSA>
59.32

>  <MMFF94 Energy>
65.036

$$$$
CN1C(=O)CN=C(c2ccccc2)c2cc(Cl)ccc21
Actelion Java MolfileCreator 2.0

  0  0  0  0  0  0              0 V3000
M  V30 BEGIN CTAB
M  V30 COUNTS 33 35 0 0 0
M  V30 BEGIN ATOM
M  V30 1 Cl 3.6574 -1.7055 2.2745 0
M  V30 2 C 2.1337 -0.9336 2.0775 0
M  V30 3 C 1.7487 -0.4719 0.8227 0
M  V30 4 C 1.2949 -0.7699 3.1744 0
M  V30 5 C 0.5002 0.1514 0.6567 0
M  V30 6 C 0.0612 -0.1322 3.0168 0
M  V30 7 C 0.1368 0.631 -0.7079 0
M  V30 8 C -0.3523 0.3401 1.7598 0
M  V30 9 N -0.3271 1.8122 -0.9522 0
M  V30 10 C 0.3302 -0.2919 -1.8714 0
M  V30 11 N -1.6072 1.0008 1.6539 0
M  V30 12 C -0.5791 2.7145 0.1751 0
M  V30 13 C 0.6865 0.2466 -3.1137 0
M  V30 14 C 0.1326 -1.6732 -1.7462 0
M  V30 15 C -1.7811 2.2014 0.9611 0
M  V30 16 C -2.7512 0.4488 2.3629 0
M  V30 17 C 0.8725 -0.5914 -4.2142 0
M  V30 18 C 0.32 -2.508 -2.85 0
M  V30 19 O -2.8382 2.8364 0.9951 0
M  V30 20 C 0.6934 -1.9677 -4.0805 0
M  V30 21 H 2.425 -0.5884 -0.0212 0
M  V30 22 H 1.5973 -1.123 4.1576 0
M  V30 23 H -0.5613 0.0096 3.8975 0
M  V30 24 H 0.2957 2.847 0.821 0
M  V30 25 H -0.8292 3.7041 -0.2227 0
M  V30 26 H 0.8188 1.3204 -3.2279 0
M  V30 27 H -0.1846 -2.1134 -0.8051 0
M  V30 28 H -3.6845 0.72 1.8593 0
M  V30 29 H -2.7746 0.8619 3.3761 0
M  V30 30 H -2.6888 -0.6432 2.4004 0
M  V30 31 H 1.1503 -0.1683 -5.1762 0
M  V30 32 H 0.1655 -3.58 -2.7538 0
M  V30 33 H 0.8341 -2.6186 -4.94 0
M  V30 END ATOM
M  V30 BEGIN BOND
M  V30 1 1 1 2
M  V30 2 2 2 3
M  V30 3 1 2 4
M  V30 4 1 3 5
M  V30 5 2 4 6
M  V30 6 1 5 7
M  V30 7 2 5 8
M  V30 8 2 7 9
M  V30 9 1 7 10
M  V30 10 1 8 11
M  V30 11 1 9 12
M  V30 12 2 10 13
M  V30 13 1 10 14
M  V30 14 1 11 15
M  V30 15 1 11 16
M  V30 16 1 13 17
M  V30 17 2 14 18
M  V30 18 2 15 19
M  V30 19 2 17 20
M  V30 20 1 6 8
M  V30 21 1 12 15
M  V30 22 1 18 20
M  V30 23 1 3 21
M  V30 24 1 4 22
M  V30 25 1 6 23
M  V30 26 1 12 24
M  V30 27 1 12 25
M  V30 28 1 13 26
M  V30 29 1 14 27
M  V30 30 1 16 28
M  V30 31 1 16 29
M  V30 32 1 16 30
M  V30 33 1 17 31
M  V30 34 1 18 32
M  V30 35 1 20 33
M  V30 END BOND
M  V30 END CTAB
M  END
>  <NO.>
820

>  <Name>
diazepam

>  <SMILES>
CN1C(=O)CN=C(c2ccccc2)c2cc(Cl)ccc21

>  <logBB>
0.5

>  <Class>
1

>  <MW>
284.07

>  <nHBAcc>
2

>  <nHBDon>
0

>  <SLogP>
3.15

>  <TopoPSA>
32.67

>  <MMFF94 Energy>
106.36

$$$$
O=C1CC2(CCCC2)CC(=O)N1CCCCN1CCN(c2ncccn2)CC1
Actelion Java MolfileCreator 2.0

  0  0  0  0  0  0              0 V3000
M  V30 BEGIN CTAB
M  V30 COUNTS 59 62 0 0 0
M  V30 BEGIN ATOM
M  V30 1 O 2.5493 -0.6368 3.9057 0
M  V30 2 C 2.4867 0.3079 3.1176 0
M  V30 3 N 2.7435 0.1846 1.7537 0
M  V30 4 C 2.0511 1.6672 3.6119 0
M  V30 5 C 2.6918 1.2225 0.8261 0
M  V30 6 C 3.1287 -1.1409 1.2685 0
M  V30 7 C 2.6588 2.8051 2.8039 0
M  V30 8 O 2.9177 1.0716 -0.375 0
M  V30 9 C 2.2763 2.5829 1.3399 0
M  V30 10 C 1.9344 -2.0871 1.0873 0
M  V30 11 C 2.1619 4.1711 3.3045 0
M  V30 12 C 4.1767 2.947 3.0097 0
M  V30 13 C 0.9906 -1.6589 -0.041 0
M  V30 14 C 3.1977 5.1761 2.809 0
M  V30 15 C 4.4966 4.3918 2.6322 0
M  V30 16 C -0.1536 -2.6678 -0.2117 0
M  V30 17 N -0.9995 -2.3845 -1.3821 0
M  V30 18 C -1.7955 -1.1468 -1.2151 0
M  V30 19 C -1.9388 -3.5095 -1.6079 0
M  V30 20 C -2.7311 -0.8496 -2.41 0
M  V30 21 C -2.8724 -3.3004 -2.8201 0
M  V30 22 N -3.553 -2.0096 -2.7468 0
M  V30 23 C -4.6344 -1.8073 -3.5824 0
M  V30 24 N -5.0832 -0.5537 -3.7747 0
M  V30 25 N -5.214 -2.8715 -4.1664 0
M  V30 26 C -6.1452 -0.3808 -4.5838 0
M  V30 27 C -6.2735 -2.6526 -4.9676 0
M  V30 28 C -6.7903 -1.4093 -5.2172 0
M  V30 29 H 0.9553 1.6973 3.5641 0
M  V30 30 H 2.3338 1.751 4.6684 0
M  V30 31 H 3.6829 -1.06 0.3268 0
M  V30 32 H 3.8166 -1.5857 1.9982 0
M  V30 33 H 1.1891 2.6562 1.2094 0
M  V30 34 H 2.7314 3.3389 0.6898 0
M  V30 35 H 1.3689 -2.1667 2.0232 0
M  V30 36 H 2.324 -3.0883 0.8661 0
M  V30 37 H 1.1551 4.4187 2.952 0
M  V30 38 H 2.1394 4.1931 4.4018 0
M  V30 39 H 4.4353 2.7897 4.0647 0
M  V30 40 H 4.7703 2.2403 2.4216 0
M  V30 41 H 0.5845 -0.6686 0.1886 0
M  V30 42 H 1.5552 -1.5768 -0.9777 0
M  V30 43 H 2.8874 5.6059 1.8497 0
M  V30 44 H 3.316 6.0052 3.514 0
M  V30 45 H 5.3011 4.7943 3.2562 0
M  V30 46 H 4.831 4.4524 1.5904 0
M  V30 47 H 0.2983 -3.6599 -0.3395 0
M  V30 48 H -0.7548 -2.7085 0.706 0
M  V30 49 H -2.4013 -1.212 -0.3011 0
M  V30 50 H -1.133 -0.2817 -1.1053 0
M  V30 51 H -1.3712 -4.4325 -1.7778 0
M  V30 52 H -2.555 -3.6674 -0.7119 0
M  V30 53 H -2.1291 -0.5621 -3.2815 0
M  V30 54 H -3.3477 0.0128 -2.1282 0
M  V30 55 H -3.5862 -4.1333 -2.8241 0
M  V30 56 H -2.2868 -3.3543 -3.7467 0
M  V30 57 H -6.4683 0.6481 -4.707 0
M  V30 58 H -6.7051 -3.5426 -5.4147 0
M  V30 59 H -7.6415 -1.2521 -5.8627 0
M  V30 END ATOM
M  V30 BEGIN BOND
M  V30 1 2 1 2
M  V30 2 1 2 3
M  V30 3 1 2 4
M  V30 4 1 3 5
M  V30 5 1 3 6
M  V30 6 1 4 7
M  V30 7 2 5 8
M  V30 8 1 5 9
M  V30 9 1 6 10
M  V30 10 1 7 11
M  V30 11 1 7 12
M  V30 12 1 10 13
M  V30 13 1 11 14
M  V30 14 1 12 15
M  V30 15 1 13 16
M  V30 16 1 16 17
M  V30 17 1 17 18
M  V30 18 1 17 19
M  V30 19 1 18 20
M  V30 20 1 19 21
M  V30 21 1 20 22
M  V30 22 1 22 23
M  V30 23 2 23 24
M  V30 24 1 23 25
M  V30 25 1 24 26
M  V30 26 2 25 27
M  V30 27 2 26 28
M  V30 28 1 7 9
M  V30 29 1 14 15
M  V30 30 1 21 22
M  V30 31 1 27 28
M  V30 32 1 4 29
M  V30 33 1 4 30
M  V30 34 1 6 31
M  V30 35 1 6 32
M  V30 36 1 9 33
M  V30 37 1 9 34
M  V30 38 1 10 35
M  V30 39 1 10 36
M  V30 40 1 11 37
M  V30 41 1 11 38
M  V30 42 1 12 39
M  V30 43 1 12 40
M  V30 44 1 13 41
M  V30 45 1 13 42
M  V30 46 1 14 43
M  V30 47 1 14 44
M  V30 48 1 15 45
M  V30 49 1 15 46
M  V30 50 1 16 47
M  V30 51 1 16 48
M  V30 52 1 18 49
M  V30 53 1 18 50
M  V30 54 1 19 51
M  V30 55 1 19 52
M  V30 56 1 20 53
M  V30 57 1 20 54
M  V30 58 1 21 55
M  V30 59 1 21 56
M  V30 60 1 26 57
M  V30 61 1 27 58
M  V30 62 1 28 59
M  V30 END BOND
M  V30 END CTAB
M  END
>  <NO.>
821

>  <Name>
buspirone

>  <SMILES>
O=C1CC2(CCCC2)CC(=O)N1CCCCN1CCN(c2ncccn2)CC1

>  <logBB>
0.5

>  <Class>
1

>  <MW>
385.25

>  <nHBAcc>
6

>  <nHBDon>
0

>  <SLogP>
2.09

>  <TopoPSA>
69.64

>  <MMFF94 Energy>
-21.222

$$$$
CN1CCN2c3ncccc3Cc3ccccc3C2C1
Actelion Java MolfileCreator 2.0

  0  0  0  0  0  0              0 V3000
M  V30 BEGIN CTAB
M  V30 COUNTS 39 42 0 0 0
M  V30 BEGIN ATOM
M  V30 1 N 1.5236 -2.4868 0.8818 0
M  V30 2 C 0.5147 -1.5773 0.8255 0
M  V30 3 C 1.2888 -3.7318 1.3437 0
M  V30 4 N 0.8744 -0.3234 0.3691 0
M  V30 5 C -0.7813 -1.946 1.2311 0
M  V30 6 C 0.0593 -4.1615 1.779 0
M  V30 7 C 0.0396 0.8717 0.542 0 CFG=2
M  V30 8 C 1.8741 -0.2758 -0.7108 0
M  V30 9 C -0.9847 -3.2539 1.7228 0
M  V30 10 C -1.9941 -1.0399 1.2074 0
M  V30 11 C -1.1803 0.7708 -0.3616 0
M  V30 12 C 0.8926 2.1815 0.4302 0
M  V30 13 C 2.6807 1.0391 -0.6885 0
M  V30 14 C -2.1617 -0.1895 -0.0328 0
M  V30 15 C -1.3503 1.543 -1.5204 0
M  V30 16 N 1.8236 2.2415 -0.7207 0
M  V30 17 C -3.2931 -0.3396 -0.8496 0
M  V30 18 C -2.4803 1.3849 -2.3247 0
M  V30 19 C 2.6336 3.4559 -0.6705 0
M  V30 20 C -3.4514 0.4469 -1.9888 0
M  V30 21 H 2.1523 -4.3893 1.3545 0
M  V30 22 H -0.0846 -5.1698 2.1469 0
M  V30 23 H -0.3186 0.9078 1.5801 0
M  V30 24 H 2.6037 -1.0916 -0.6514 0
M  V30 25 H 1.3622 -0.3787 -1.6763 0
M  V30 26 H -1.97 -3.57 2.0581 0
M  V30 27 H -2.9 -1.6517 1.3182 0
M  V30 28 H -1.9839 -0.3985 2.0979 0
M  V30 29 H 1.4783 2.2684 1.3574 0
M  V30 30 H 0.2196 3.0483 0.4053 0
M  V30 31 H 3.3165 1.0491 0.2074 0
M  V30 32 H 3.3466 1.0443 -1.5601 0
M  V30 33 H -0.5986 2.2667 -1.8256 0
M  V30 34 H -4.056 -1.0755 -0.6071 0
M  V30 35 H -2.5943 1.9892 -3.2209 0
M  V30 36 H 3.2435 3.515 0.2381 0
M  V30 37 H 3.3018 3.5063 -1.5372 0
M  V30 38 H 1.9938 4.3443 -0.714 0
M  V30 39 H -4.3271 0.3213 -2.6198 0
M  V30 END ATOM
M  V30 BEGIN BOND
M  V30 1 2 1 2
M  V30 2 1 1 3
M  V30 3 1 2 4
M  V30 4 1 2 5
M  V30 5 2 3 6
M  V30 6 1 4 7
M  V30 7 1 4 8
M  V30 8 2 5 9
M  V30 9 1 5 10
M  V30 10 1 7 11
M  V30 11 1 7 12
M  V30 12 1 8 13
M  V30 13 1 10 14
M  V30 14 1 11 15
M  V30 15 1 12 16
M  V30 16 1 14 17
M  V30 17 2 15 18
M  V30 18 1 16 19
M  V30 19 2 17 20
M  V30 20 1 6 9
M  V30 21 2 11 14
M  V30 22 1 13 16
M  V30 23 1 18 20
M  V30 24 1 3 21
M  V30 25 1 6 22
M  V30 26 1 7 23
M  V30 27 1 8 24
M  V30 28 1 8 25
M  V30 29 1 9 26
M  V30 30 1 10 27
M  V30 31 1 10 28
M  V30 32 1 12 29
M  V30 33 1 12 30
M  V30 34 1 13 31
M  V30 35 1 13 32
M  V30 36 1 15 33
M  V30 37 1 17 34
M  V30 38 1 18 35
M  V30 39 1 19 36
M  V30 40 1 19 37
M  V30 41 1 19 38
M  V30 42 1 20 39
M  V30 END BOND
M  V30 BEGIN COLLECTION
M  V30 MDLV30/STERAC1 ATOMS=(1 7)
M  V30 END COLLECTION
M  V30 END CTAB
M  END
>  <NO.>
822

>  <Name>
mirtazapine

>  <SMILES>
CN1CCN2c3ncccc3Cc3ccccc3C2C1

>  <logBB>
0.5

>  <Class>
1

>  <MW>
265.16

>  <nHBAcc>
3

>  <nHBDon>
0

>  <SLogP>
2.48

>  <TopoPSA>
19.37

>  <MMFF94 Energy>
111.78

$$$$
COc1ccc(CN(CCN(C)C)c2ccccn2)cc1
Actelion Java MolfileCreator 2.0

  0  0  0  0  0  0              0 V3000
M  V30 BEGIN CTAB
M  V30 COUNTS 44 45 0 0 0
M  V30 BEGIN ATOM
M  V30 1 O -2.5071 3.9195 1.488 0
M  V30 2 C -1.6418 3.2183 0.6938 0
M  V30 3 C -3.7638 4.2638 0.9194 0
M  V30 4 C -1.8807 2.8063 -0.6169 0
M  V30 5 C -0.4202 2.9068 1.2933 0
M  V30 6 C -0.9048 2.0892 -1.3192 0
M  V30 7 C 0.5546 2.191 0.5948 0
M  V30 8 C 0.3233 1.7728 -0.7211 0
M  V30 9 C 1.3746 0.9855 -1.475 0
M  V30 10 N 1.4816 -0.3925 -0.9895 0
M  V30 11 C 2.5525 -0.7342 -0.1828 0
M  V30 12 C 0.4186 -1.3327 -1.3618 0
M  V30 13 N 3.4187 0.2389 0.1828 0
M  V30 14 C 2.7762 -2.041 0.2571 0
M  V30 15 C -0.5822 -1.5772 -0.2071 0
M  V30 16 C 4.475 -0.0672 0.97 0
M  V30 17 C 3.8712 -2.3443 1.0705 0
M  V30 18 N -1.681 -2.5051 -0.562 0
M  V30 19 C 4.7423 -1.3354 1.4383 0
M  V30 20 C -2.7442 -2.4153 0.4441 0
M  V30 21 C -1.2098 -3.8882 -0.6557 0
M  V30 22 H -3.6385 4.9177 0.0501 0
M  V30 23 H -4.3311 4.8182 1.6732 0
M  V30 24 H -4.3394 3.3685 0.6622 0
M  V30 25 H -2.8153 3.0221 -1.1231 0
M  V30 26 H -0.2245 3.221 2.3153 0
M  V30 27 H -1.1156 1.7706 -2.3377 0
M  V30 28 H 1.4972 1.9521 1.0834 0
M  V30 29 H 2.3225 1.5378 -1.4517 0
M  V30 30 H 1.1123 0.9622 -2.5414 0
M  V30 31 H 0.8613 -2.2677 -1.721 0
M  V30 32 H -0.1393 -0.9383 -2.2214 0
M  V30 33 H 2.1147 -2.8522 -0.0206 0
M  V30 34 H -0.0636 -1.9285 0.6934 0
M  V30 35 H -1.0188 -0.6073 0.0582 0
M  V30 36 H 5.1199 0.7702 1.2185 0
M  V30 37 H 4.0348 -3.3636 1.4071 0
M  V30 38 H 5.6028 -1.53 2.0668 0
M  V30 39 H -3.1515 -1.3988 0.4854 0
M  V30 40 H -2.3907 -2.6881 1.4451 0
M  V30 41 H -3.5799 -3.0735 0.181 0
M  V30 42 H -0.7506 -4.2336 0.2776 0
M  V30 43 H -0.4821 -4.0061 -1.464 0
M  V30 44 H -2.0412 -4.5607 -0.8968 0
M  V30 END ATOM
M  V30 BEGIN BOND
M  V30 1 1 1 2
M  V30 2 1 1 3
M  V30 3 2 2 4
M  V30 4 1 2 5
M  V30 5 1 4 6
M  V30 6 2 5 7
M  V30 7 2 6 8
M  V30 8 1 8 9
M  V30 9 1 9 10
M  V30 10 1 10 11
M  V30 11 1 10 12
M  V30 12 2 11 13
M  V30 13 1 11 14
M  V30 14 1 12 15
M  V30 15 1 13 16
M  V30 16 2 14 17
M  V30 17 1 15 18
M  V30 18 2 16 19
M  V30 19 1 18 20
M  V30 20 1 18 21
M  V30 21 1 7 8
M  V30 22 1 17 19
M  V30 23 1 3 22
M  V30 24 1 3 23
M  V30 25 1 3 24
M  V30 26 1 4 25
M  V30 27 1 5 26
M  V30 28 1 6 27
M  V30 29 1 7 28
M  V30 30 1 9 29
M  V30 31 1 9 30
M  V30 32 1 12 31
M  V30 33 1 12 32
M  V30 34 1 14 33
M  V30 35 1 15 34
M  V30 36 1 15 35
M  V30 37 1 16 36
M  V30 38 1 17 37
M  V30 39 1 19 38
M  V30 40 1 20 39
M  V30 41 1 20 40
M  V30 42 1 20 41
M  V30 43 1 21 42
M  V30 44 1 21 43
M  V30 45 1 21 44
M  V30 END BOND
M  V30 END CTAB
M  END
>  <NO.>
823

>  <Name>
mepyramine (pyrilamine)

>  <SMILES>
COc1ccc(CN(CCN(C)C)c2ccccn2)cc1

>  <logBB>
0.5

>  <Class>
1

>  <MW>
285.18

>  <nHBAcc>
4

>  <nHBDon>
0

>  <SLogP>
2.66

>  <TopoPSA>
28.6

>  <MMFF94 Energy>
39.888

$$$$
O=C1CN=C(c2ccccc2)c2c(Cl)cccc2N1
Actelion Java MolfileCreator 2.0

  0  0  0  0  0  0              0 V3000
M  V30 BEGIN CTAB
M  V30 COUNTS 30 32 0 0 0
M  V30 BEGIN ATOM
M  V30 1 Cl 0.9776 2.6085 0.7331 0
M  V30 2 C 0.4924 1.1635 1.5517 0
M  V30 3 C -0.3176 0.1774 0.96 0
M  V30 4 C 0.8999 1.0357 2.8847 0
M  V30 5 C -0.6462 0.212 -0.4983 0
M  V30 6 C -0.788 -0.8844 1.7551 0
M  V30 7 C 0.4963 -0.0611 3.641 0
M  V30 8 N -1.8395 0.0833 -0.9787 0
M  V30 9 C 0.4711 0.3462 -1.4885 0
M  V30 10 N -1.7155 -1.8397 1.3116 0
M  V30 11 C -0.3513 -1.0136 3.08 0
M  V30 12 C -2.9482 -0.1892 -0.0652 0
M  V30 13 C 1.7228 -0.2386 -1.2559 0
M  V30 14 C 0.2399 1.0354 -2.6853 0
M  V30 15 C -2.7931 -1.5975 0.4944 0
M  V30 16 C 2.7414 -0.1054 -2.2022 0
M  V30 17 C 1.2609 1.166 -3.6276 0
M  V30 18 O -3.6089 -2.4958 0.2858 0
M  V30 19 C 2.5112 0.5992 -3.3837 0
M  V30 20 H 1.5297 1.7962 3.3423 0
M  V30 21 H 0.8171 -0.1575 4.676 0
M  V30 22 H -1.7094 -2.7695 1.7124 0
M  V30 23 H -0.695 -1.8402 3.6991 0
M  V30 24 H -3.0241 0.5488 0.7408 0
M  V30 25 H -3.8857 -0.1473 -0.6298 0
M  V30 26 H 1.9182 -0.8123 -0.355 0
M  V30 27 H -0.7351 1.4744 -2.8843 0
M  V30 28 H 3.7134 -0.5574 -2.0222 0
M  V30 29 H 1.0776 1.7063 -4.5527 0
M  V30 30 H 3.3046 0.6997 -4.1202 0
M  V30 END ATOM
M  V30 BEGIN BOND
M  V30 1 1 1 2
M  V30 2 2 2 3
M  V30 3 1 2 4
M  V30 4 1 3 5
M  V30 5 1 3 6
M  V30 6 2 4 7
M  V30 7 2 5 8
M  V30 8 1 5 9
M  V30 9 1 6 10
M  V30 10 2 6 11
M  V30 11 1 8 12
M  V30 12 2 9 13
M  V30 13 1 9 14
M  V30 14 1 10 15
M  V30 15 1 13 16
M  V30 16 2 14 17
M  V30 17 2 15 18
M  V30 18 2 16 19
M  V30 19 1 7 11
M  V30 20 1 12 15
M  V30 21 1 17 19
M  V30 22 1 4 20
M  V30 23 1 7 21
M  V30 24 1 10 22
M  V30 25 1 11 23
M  V30 26 1 12 24
M  V30 27 1 12 25
M  V30 28 1 13 26
M  V30 29 1 14 27
M  V30 30 1 16 28
M  V30 31 1 17 29
M  V30 32 1 19 30
M  V30 END BOND
M  V30 END CTAB
M  END
>  <NO.>
824

>  <Name>
chembl351067

>  <SMILES>
O=C1CN=C(c2ccccc2)c2c(Cl)cccc2N1

>  <logBB>
0.5

>  <Class>
1

>  <MW>
270.06

>  <nHBAcc>
2

>  <nHBDon>
1

>  <SLogP>
3.13

>  <TopoPSA>
41.46

>  <MMFF94 Energy>
104.95

$$$$
O=C1CN=C(c2ccccc2)c2cc(Cl)ccc2N1
Actelion Java MolfileCreator 2.0

  0  0  0  0  0  0              0 V3000
M  V30 BEGIN CTAB
M  V30 COUNTS 30 32 0 0 0
M  V30 BEGIN ATOM
M  V30 1 Cl -3.504 1.4656 2.4436 0
M  V30 2 C -2.8059 0.8409 1.0016 0
M  V30 3 C -1.4231 0.8651 0.8356 0
M  V30 4 C -3.6263 0.3057 0.0129 0
M  V30 5 C -0.8465 0.3454 -0.3349 0
M  V30 6 C -3.0606 -0.1908 -1.1631 0
M  V30 7 C 0.6439 0.3089 -0.4361 0
M  V30 8 C -1.6736 -0.1514 -1.3556 0
M  V30 9 N 1.3156 0.64 -1.4879 0
M  V30 10 C 1.4303 -0.1424 0.7567 0
M  V30 11 N -1.1957 -0.6308 -2.5819 0
M  V30 12 C 0.6065 1.0592 -2.6957 0
M  V30 13 C 0.9784 -1.1882 1.5719 0
M  V30 14 C 2.6542 0.477 1.0369 0
M  V30 15 C -0.1388 -0.1231 -3.2942 0
M  V30 16 C 1.7338 -1.5871 2.6767 0
M  V30 17 C 3.4057 0.0746 2.1421 0
M  V30 18 O 0.1288 -0.5943 -4.3998 0
M  V30 19 C 2.943 -0.9532 2.9631 0
M  V30 20 H -0.7984 1.2859 1.6206 0
M  V30 21 H -4.7055 0.2822 0.1448 0
M  V30 22 H -3.7172 -0.5844 -1.9364 0
M  V30 23 H -1.7081 -1.3541 -3.0711 0
M  V30 24 H -0.0754 1.8966 -2.5095 0
M  V30 25 H 1.3425 1.4043 -3.4298 0
M  V30 26 H 0.0535 -1.7136 1.3508 0
M  V30 27 H 3.0254 1.2723 0.3943 0
M  V30 28 H 1.385 -2.3997 3.3096 0
M  V30 29 H 4.355 0.5589 2.3571 0
M  V30 30 H 3.5324 -1.2688 3.8209 0
M  V30 END ATOM
M  V30 BEGIN BOND
M  V30 1 1 1 2
M  V30 2 2 2 3
M  V30 3 1 2 4
M  V30 4 1 3 5
M  V30 5 2 4 6
M  V30 6 1 5 7
M  V30 7 2 5 8
M  V30 8 2 7 9
M  V30 9 1 7 10
M  V30 10 1 8 11
M  V30 11 1 9 12
M  V30 12 2 10 13
M  V30 13 1 10 14
M  V30 14 1 11 15
M  V30 15 1 13 16
M  V30 16 2 14 17
M  V30 17 2 15 18
M  V30 18 2 16 19
M  V30 19 1 6 8
M  V30 20 1 12 15
M  V30 21 1 17 19
M  V30 22 1 3 20
M  V30 23 1 4 21
M  V30 24 1 6 22
M  V30 25 1 11 23
M  V30 26 1 12 24
M  V30 27 1 12 25
M  V30 28 1 13 26
M  V30 29 1 14 27
M  V30 30 1 16 28
M  V30 31 1 17 29
M  V30 32 1 19 30
M  V30 END BOND
M  V30 END CTAB
M  END
>  <NO.>
825

>  <Name>
1088-11-5

>  <SMILES>
O=C1CN=C(c2ccccc2)c2cc(Cl)ccc2N1

>  <logBB>
0.5

>  <Class>
1

>  <MW>
270.06

>  <nHBAcc>
2

>  <nHBDon>
1

>  <SLogP>
3.13

>  <TopoPSA>
41.46

>  <MMFF94 Energy>
95.397

$$$$
CC(C)=CCN1CC[C@@]2(C)c3cc(O)ccc3CC1C2C
Actelion Java MolfileCreator 2.0

  0  0  0  0  0  0              0 V3000
M  V30 BEGIN CTAB
M  V30 COUNTS 48 50 0 0 0
M  V30 BEGIN ATOM
M  V30 1 O -2.9338 3.3307 -4.0456 0
M  V30 2 C -2.327 2.264 -3.4494 0
M  V30 3 C -1.8925 2.4182 -2.1358 0
M  V30 4 C -2.1437 1.0675 -4.1265 0
M  V30 5 C -1.2633 1.3604 -1.4559 0
M  V30 6 C -1.5072 0.012 -3.4774 0
M  V30 7 C -1.0557 0.1478 -2.1526 0
M  V30 8 C -0.7483 1.5218 -0.0159 0 CFG=1
M  V30 9 C -0.3721 -1.041 -1.5086 0
M  V30 10 C -0.6977 0.1463 0.7095 0
M  V30 11 C 0.7052 2.0669 -0.0776 0
M  V30 12 C -1.5972 2.5098 0.8154 0
M  V30 13 C 0.2249 -0.7871 -0.1016 0
M  V30 14 C -2.0726 -0.4895 0.9757 0
M  V30 15 C 1.6892 1.0858 -0.7272 0
M  V30 16 N 1.6238 -0.2836 -0.1937 0
M  V30 17 C 2.3742 -0.3975 1.0668 0
M  V30 18 C 2.6291 -1.8326 1.4391 0
M  V30 19 C 2.2757 -2.4862 2.5644 0
M  V30 20 C 2.6372 -3.9373 2.7489 0
M  V30 21 C 1.5082 -1.8923 3.7124 0
M  V30 22 H -3.1784 3.0782 -4.9508 0
M  V30 23 H -2.0487 3.382 -1.6603 0
M  V30 24 H -2.4794 0.9384 -5.1499 0
M  V30 25 H -1.3559 -0.925 -4.0094 0
M  V30 26 H -1.122 -1.8395 -1.4239 0
M  V30 27 H 0.4093 -1.4223 -2.1792 0
M  V30 28 H -0.2584 0.2944 1.705 0
M  V30 29 H 1.0536 2.2936 0.9391 0
M  V30 30 H 0.7376 3.015 -0.6306 0
M  V30 31 H -1.303 2.4887 1.8714 0
M  V30 32 H -2.6663 2.2759 0.7594 0
M  V30 33 H -1.4691 3.544 0.4761 0
M  V30 34 H 0.2528 -1.7713 0.3819 0
M  V30 35 H -2.6415 0.1026 1.6999 0
M  V30 36 H -1.9525 -1.4903 1.4051 0
M  V30 37 H -2.6833 -0.5835 0.0735 0
M  V30 38 H 2.7076 1.4859 -0.6379 0
M  V30 39 H 1.5167 1.0508 -1.8094 0
M  V30 40 H 1.909 0.1743 1.8725 0
M  V30 41 H 3.3698 0.0459 0.9297 0
M  V30 42 H 3.1809 -2.3798 0.6748 0
M  V30 43 H 3.261 -4.0618 3.6402 0
M  V30 44 H 3.1929 -4.3402 1.8957 0
M  V30 45 H 1.7316 -4.5409 2.8702 0
M  V30 46 H 1.2316 -0.8473 3.5611 0
M  V30 47 H 0.5805 -2.4522 3.8726 0
M  V30 48 H 2.1044 -1.9441 4.6296 0
M  V30 END ATOM
M  V30 BEGIN BOND
M  V30 1 1 1 2
M  V30 2 2 2 3
M  V30 3 1 2 4
M  V30 4 1 3 5
M  V30 5 2 4 6
M  V30 6 2 5 7
M  V30 7 1 5 8
M  V30 8 1 7 9
M  V30 9 1 8 10
M  V30 10 1 8 11
M  V30 11 1 8 12
M  V30 12 1 9 13
M  V30 13 1 10 14
M  V30 14 1 11 15
M  V30 15 1 13 16
M  V30 16 1 16 17
M  V30 17 1 17 18
M  V30 18 2 18 19
M  V30 19 1 19 20
M  V30 20 1 19 21
M  V30 21 1 6 7
M  V30 22 1 10 13
M  V30 23 1 15 16
M  V30 24 1 1 22
M  V30 25 1 3 23
M  V30 26 1 4 24
M  V30 27 1 6 25
M  V30 28 1 9 26
M  V30 29 1 9 27
M  V30 30 1 10 28
M  V30 31 1 11 29
M  V30 32 1 11 30
M  V30 33 1 12 31
M  V30 34 1 12 32
M  V30 35 1 12 33
M  V30 36 1 13 34
M  V30 37 1 14 35
M  V30 38 1 14 36
M  V30 39 1 14 37
M  V30 40 1 15 38
M  V30 41 1 15 39
M  V30 42 1 17 40
M  V30 43 1 17 41
M  V30 44 1 18 42
M  V30 45 1 20 43
M  V30 46 1 20 44
M  V30 47 1 20 45
M  V30 48 1 21 46
M  V30 49 1 21 47
M  V30 50 1 21 48
M  V30 END BOND
M  V30 BEGIN COLLECTION
M  V30 MDLV30/STEABS ATOMS=(1 8)
M  V30 END COLLECTION
M  V30 END CTAB
M  END
>  <NO.>
826

>  <Name>
schembl680675

>  <SMILES>
CC(C)=CCN1CC[C@@]2(C)c3cc(O)ccc3CC1C2C

>  <logBB>
0.51

>  <Class>
1

>  <MW>
285.21

>  <nHBAcc>
2

>  <nHBDon>
1

>  <SLogP>
3.88

>  <TopoPSA>
23.47

>  <MMFF94 Energy>
44.919

$$$$
CCc1cc2c(s1)N(C)C(=O)CN=C2c1ccccc1Cl
Actelion Java MolfileCreator 2.0

  0  0  0  0  0  0              0 V3000
M  V30 BEGIN CTAB
M  V30 COUNTS 36 38 0 0 0
M  V30 BEGIN ATOM
M  V30 1 Cl -2.0505 -1.5581 -2.9537 0
M  V30 2 C -1.5159 -2.4123 -1.5527 0
M  V30 3 C -1.2331 -1.768 -0.345 0
M  V30 4 C -1.3256 -3.7927 -1.6547 0
M  V30 5 C -1.4279 -0.3147 -0.1826 0
M  V30 6 C -0.7659 -2.4962 0.7572 0
M  V30 7 C -0.8588 -4.5211 -0.5572 0
M  V30 8 N -2.6236 0.1454 -0.04 0
M  V30 9 C -0.2352 0.5239 -0.1697 0
M  V30 10 C -0.579 -3.8739 0.6466 0
M  V30 11 C -2.8142 1.6 0.0477 0
M  V30 12 C -0.0919 1.6308 0.6441 0
M  V30 13 C 0.9443 0.3319 -0.969 0
M  V30 14 C -2.3264 2.1304 1.3944 0
M  V30 15 S 1.3892 2.4374 0.4091 0
M  V30 16 N -0.9474 2.1312 1.6236 0
M  V30 17 C 1.9031 1.302 -0.7586 0
M  V30 18 O -3.1343 2.5614 2.2233 0
M  V30 19 C -0.4714 2.5741 2.9282 0
M  V30 20 C 3.2426 1.4394 -1.4175 0
M  V30 21 C 4.313 0.6446 -0.6849 0
M  V30 22 H -1.5389 -4.3093 -2.5876 0
M  V30 23 H -0.5607 -1.9971 1.7015 0
M  V30 24 H -0.7168 -5.5963 -0.6413 0
M  V30 25 H -0.2225 -4.4451 1.5011 0
M  V30 26 H -2.3435 2.1373 -0.7837 0
M  V30 27 H -3.8882 1.8057 -0.0252 0
M  V30 28 H 1.0751 -0.4716 -1.6849 0
M  V30 29 H -1.2645 2.5351 3.6805 0
M  V30 30 H 0.347 1.9296 3.2641 0
M  V30 31 H -0.1238 3.6083 2.8451 0
M  V30 32 H 3.5414 2.4931 -1.4721 0
M  V30 33 H 3.1741 1.0824 -2.4523 0
M  V30 34 H 5.2766 0.7494 -1.1932 0
M  V30 35 H 4.0619 -0.4209 -0.6499 0
M  V30 36 H 4.4333 0.995 0.3458 0
M  V30 END ATOM
M  V30 BEGIN BOND
M  V30 1 1 1 2
M  V30 2 2 2 3
M  V30 3 1 2 4
M  V30 4 1 3 5
M  V30 5 1 3 6
M  V30 6 2 4 7
M  V30 7 2 5 8
M  V30 8 1 5 9
M  V30 9 2 6 10
M  V30 10 1 8 11
M  V30 11 2 9 12
M  V30 12 1 9 13
M  V30 13 1 11 14
M  V30 14 1 12 15
M  V30 15 1 12 16
M  V30 16 2 13 17
M  V30 17 2 14 18
M  V30 18 1 16 19
M  V30 19 1 17 20
M  V30 20 1 20 21
M  V30 21 1 7 10
M  V30 22 1 14 16
M  V30 23 1 15 17
M  V30 24 1 4 22
M  V30 25 1 6 23
M  V30 26 1 7 24
M  V30 27 1 10 25
M  V30 28 1 11 26
M  V30 29 1 11 27
M  V30 30 1 13 28
M  V30 31 1 19 29
M  V30 32 1 19 30
M  V30 33 1 19 31
M  V30 34 1 20 32
M  V30 35 1 20 33
M  V30 36 1 21 34
M  V30 37 1 21 35
M  V30 38 1 21 36
M  V30 END BOND
M  V30 END CTAB
M  END
>  <NO.>
827

>  <Name>
clotiazepam

>  <SMILES>
CCc1cc2c(s1)N(C)C(=O)CN=C2c1ccccc1Cl

>  <logBB>
0.51

>  <Class>
1

>  <MW>
318.06

>  <nHBAcc>
3

>  <nHBDon>
0

>  <SLogP>
3.78

>  <TopoPSA>
32.67

>  <MMFF94 Energy>
87.92

$$$$
CCCCCCCCC
Actelion Java MolfileCreator 2.0

  0  0  0  0  0  0              0 V3000
M  V30 BEGIN CTAB
M  V30 COUNTS 29 28 0 0 0
M  V30 BEGIN ATOM
M  V30 1 C -0.3048 -0.9911 0.0762 0
M  V30 2 C 0.9008 -0.1038 0.394 0
M  V30 3 C -1.0719 -0.5549 -1.1765 0
M  V30 4 C 1.6969 -0.6556 1.5792 0
M  V30 5 C -1.78 0.793 -1.0162 0
M  V30 6 C 2.8999 0.2304 1.9018 0
M  V30 7 C -2.553 1.2225 -2.2663 0
M  V30 8 C 3.6937 -0.3146 3.0784 0
M  V30 9 C -3.7467 0.3339 -2.5804 0
M  V30 10 H -0.986 -1.0138 0.9356 0
M  V30 11 H 0.0415 -2.0205 -0.0787 0
M  V30 12 H 0.5686 0.913 0.63 0
M  V30 13 H 1.5516 -0.0384 -0.4861 0
M  V30 14 H -1.8116 -1.3323 -1.3985 0
M  V30 15 H -0.3869 -0.5152 -2.0319 0
M  V30 16 H 2.0406 -1.6717 1.3504 0
M  V30 17 H 1.0451 -0.7251 2.4587 0
M  V30 18 H -1.041 1.5726 -0.8002 0
M  V30 19 H -2.4615 0.7546 -0.1578 0
M  V30 20 H 3.5563 0.3004 1.0266 0
M  V30 21 H 2.562 1.2467 2.1361 0
M  V30 22 H -2.9148 2.2466 -2.1142 0
M  V30 23 H -1.8798 1.2499 -3.1309 0
M  V30 24 H 4.5489 0.3341 3.2917 0
M  V30 25 H 3.0739 -0.3669 3.9792 0
M  V30 26 H 4.0739 -1.3183 2.8637 0
M  V30 27 H -4.3147 0.7515 -3.4181 0
M  V30 28 H -3.4336 -0.6746 -2.8647 0
M  V30 29 H -4.4188 0.2593 -1.7198 0
M  V30 END ATOM
M  V30 BEGIN BOND
M  V30 1 1 1 2
M  V30 2 1 1 3
M  V30 3 1 2 4
M  V30 4 1 3 5
M  V30 5 1 4 6
M  V30 6 1 5 7
M  V30 7 1 6 8
M  V30 8 1 7 9
M  V30 9 1 1 10
M  V30 10 1 1 11
M  V30 11 1 2 12
M  V30 12 1 2 13
M  V30 13 1 3 14
M  V30 14 1 3 15
M  V30 15 1 4 16
M  V30 16 1 4 17
M  V30 17 1 5 18
M  V30 18 1 5 19
M  V30 19 1 6 20
M  V30 20 1 6 21
M  V30 21 1 7 22
M  V30 22 1 7 23
M  V30 23 1 8 24
M  V30 24 1 8 25
M  V30 25 1 8 26
M  V30 26 1 9 27
M  V30 27 1 9 28
M  V30 28 1 9 29
M  V30 END BOND
M  V30 END CTAB
M  END
>  <NO.>
828

>  <Name>
nonane

>  <SMILES>
CCCCCCCCC

>  <logBB>
0.52

>  <Class>
1

>  <MW>
128.16

>  <nHBAcc>
0

>  <nHBDon>
0

>  <SLogP>
3.76

>  <TopoPSA>
0

>  <MMFF94 Energy>
-4.2592

$$$$
Cc1cccc2c1Oc1ccccc1C1(O)CCNCC21
Actelion Java MolfileCreator 2.0

  0  0  0  0  0  0              0 V3000
M  V30 BEGIN CTAB
M  V30 COUNTS 40 43 0 0 0
M  V30 BEGIN ATOM
M  V30 1 O 0.4817 -0.5621 1.7674 0
M  V30 2 C 1.4776 -0.0114 0.9887 0
M  V30 3 C -0.3332 -1.4502 1.0999 0
M  V30 4 C 1.1337 0.9972 0.0748 0
M  V30 5 C 2.8044 -0.4271 1.1704 0
M  V30 6 C -1.0994 -1.1278 -0.0333 0
M  V30 7 C -0.3709 -2.7368 1.6576 0
M  V30 8 C 2.1472 1.5523 -0.7145 0
M  V30 9 C -0.3325 1.3934 -0.0023 0
M  V30 10 C 3.796 0.1428 0.365 0
M  V30 11 C 3.1615 -1.4929 2.1638 0
M  V30 12 C -1.8307 -2.1812 -0.6297 0
M  V30 13 C -1.19 0.271 -0.6622 0
M  V30 14 C -1.1233 -3.7452 1.0638 0
M  V30 15 C 3.4685 1.1239 -0.5712 0
M  V30 16 C -0.592 2.7525 -0.684 0
M  V30 17 C -1.8446 -3.4699 -0.09 0
M  V30 18 O -0.7767 0.128 -2.0397 0
M  V30 19 C -2.6649 0.7452 -0.6744 0
M  V30 20 N -2.0082 3.1288 -0.6145 0
M  V30 21 C -2.8297 2.1308 -1.2959 0
M  V30 22 H 0.206 -2.9531 2.5532 0
M  V30 23 H 1.9352 2.3194 -1.454 0
M  V30 24 H -0.6721 1.5227 1.0381 0
M  V30 25 H 4.8327 -0.1716 0.4625 0
M  V30 26 H 4.2352 -1.4898 2.3797 0
M  V30 27 H 2.6431 -1.3289 3.1142 0
M  V30 28 H 2.8934 -2.4782 1.7706 0
M  V30 29 H -2.4052 -1.9988 -1.5371 0
M  V30 30 H -1.1379 -4.7423 1.495 0
M  V30 31 H 4.2485 1.5608 -1.1903 0
M  V30 32 H -0.2681 2.7489 -1.7321 0
M  V30 33 H -0.0112 3.5326 -0.1768 0
M  V30 34 H -2.4251 -4.2532 -0.5709 0
M  V30 35 H 0.0383 -0.4067 -2.0244 0
M  V30 36 H -3.0616 0.7543 0.35 0
M  V30 37 H -3.2962 0.0607 -1.2535 0
M  V30 38 H -2.1353 4.032 -1.0718 0
M  V30 39 H -3.8805 2.4317 -1.2173 0
M  V30 40 H -2.5895 2.1058 -2.3657 0
M  V30 END ATOM
M  V30 BEGIN BOND
M  V30 1 1 1 2
M  V30 2 1 1 3
M  V30 3 2 2 4
M  V30 4 1 2 5
M  V30 5 2 3 6
M  V30 6 1 3 7
M  V30 7 1 4 8
M  V30 8 1 4 9
M  V30 9 2 5 10
M  V30 10 1 5 11
M  V30 11 1 6 12
M  V30 12 1 6 13
M  V30 13 2 7 14
M  V30 14 2 8 15
M  V30 15 1 9 16
M  V30 16 2 12 17
M  V30 17 1 13 18
M  V30 18 1 13 19
M  V30 19 1 16 20
M  V30 20 1 19 21
M  V30 21 1 9 13
M  V30 22 1 10 15
M  V30 23 1 14 17
M  V30 24 1 20 21
M  V30 25 1 7 22
M  V30 26 1 8 23
M  V30 27 1 9 24
M  V30 28 1 10 25
M  V30 29 1 11 26
M  V30 30 1 11 27
M  V30 31 1 11 28
M  V30 32 1 12 29
M  V30 33 1 14 30
M  V30 34 1 15 31
M  V30 35 1 16 32
M  V30 36 1 16 33
M  V30 37 1 17 34
M  V30 38 1 18 35
M  V30 39 1 19 36
M  V30 40 1 19 37
M  V30 41 1 20 38
M  V30 42 1 21 39
M  V30 43 1 21 40
M  V30 END BOND
M  V30 END CTAB
M  END
>  <NO.>
829

>  <Name>
org-32104

>  <SMILES>
Cc1cccc2c1Oc1ccccc1C1(O)CCNCC21

>  <logBB>
0.52

>  <Class>
1

>  <MW>
281.14

>  <nHBAcc>
3

>  <nHBDon>
2

>  <SLogP>
3.07

>  <TopoPSA>
41.49

>  <MMFF94 Energy>
79.292

$$$$
Fc1ccc([C@@H]2CCNCC2COc2ccc3c(c2)OCO3)cc1
Actelion Java MolfileCreator 2.0

  0  0  0  0  0  0              0 V3000
M  V30 BEGIN CTAB
M  V30 COUNTS 44 47 0 0 0
M  V30 BEGIN ATOM
M  V30 1 F 3.1359 2.8944 3.619 0
M  V30 2 C 2.855 1.9763 2.685 0
M  V30 3 C 1.9196 0.9868 2.9564 0
M  V30 4 C 3.5014 2.0299 1.4568 0
M  V30 5 C 1.6268 0.0308 1.9827 0
M  V30 6 C 3.2087 1.0756 0.4807 0
M  V30 7 C 2.2701 0.0608 0.7332 0
M  V30 8 C 1.9164 -0.9846 -0.3154 0 CFG=1
M  V30 9 C 1.2263 -0.3757 -1.564 0
M  V30 10 C 3.1591 -1.7947 -0.7312 0
M  V30 11 C 0.9709 -1.4837 -2.6022 0
M  V30 12 C -0.0951 0.3402 -1.2231 0
M  V30 13 C 2.8103 -2.8226 -1.8035 0
M  V30 14 N 2.2005 -2.1902 -2.9729 0
M  V30 15 O -0.9865 -0.5736 -0.5828 0
M  V30 16 C -2.1847 -0.0772 -0.1465 0
M  V30 17 C -2.6333 1.2361 -0.3079 0
M  V30 18 C -2.9964 -1.0214 0.515 0
M  V30 19 C -3.8762 1.557 0.2016 0
M  V30 20 C -4.2514 -0.6689 1.0213 0
M  V30 21 O -4.4662 2.7818 0.1347 0
M  V30 22 C -4.6628 0.6328 0.8479 0
M  V30 23 C -5.7119 2.5209 0.815 0
M  V30 24 O -5.8437 1.1579 1.2689 0
M  V30 25 H 1.422 0.9661 3.9207 0
M  V30 26 H 4.2272 2.814 1.2667 0
M  V30 27 H 0.8844 -0.7344 2.2025 0
M  V30 28 H 3.7193 1.1343 -0.4774 0
M  V30 29 H 1.2199 -1.7023 0.1418 0
M  V30 30 H 1.8923 0.3694 -2.0213 0
M  V30 31 H 3.9465 -1.1341 -1.116 0
M  V30 32 H 3.5821 -2.3076 0.1416 0
M  V30 33 H 0.2336 -2.2087 -2.2354 0
M  V30 34 H 0.5439 -1.0434 -3.511 0
M  V30 35 H -0.5515 0.712 -2.1493 0
M  V30 36 H 0.1102 1.1936 -0.5659 0
M  V30 37 H 3.721 -3.3439 -2.1183 0
M  V30 38 H 2.1373 -3.5875 -1.3973 0
M  V30 39 H 2.8612 -1.5297 -3.3825 0
M  V30 40 H -2.0564 2.0021 -0.8088 0
M  V30 41 H -2.6397 -2.0424 0.6329 0
M  V30 42 H -4.877 -1.3928 1.5302 0
M  V30 43 H -5.7841 3.1878 1.682 0
M  V30 44 H -6.5384 2.7439 0.1303 0
M  V30 END ATOM
M  V30 BEGIN BOND
M  V30 1 1 1 2
M  V30 2 2 2 3
M  V30 3 1 2 4
M  V30 4 1 3 5
M  V30 5 2 4 6
M  V30 6 2 5 7
M  V30 7 1 7 8
M  V30 8 1 8 9
M  V30 9 1 8 10
M  V30 10 1 9 11
M  V30 11 1 9 12
M  V30 12 1 10 13
M  V30 13 1 11 14
M  V30 14 1 12 15
M  V30 15 1 15 16
M  V30 16 2 16 17
M  V30 17 1 16 18
M  V30 18 1 17 19
M  V30 19 2 18 20
M  V30 20 1 19 21
M  V30 21 2 19 22
M  V30 22 1 21 23
M  V30 23 1 22 24
M  V30 24 1 6 7
M  V30 25 1 13 14
M  V30 26 1 20 22
M  V30 27 1 23 24
M  V30 28 1 3 25
M  V30 29 1 4 26
M  V30 30 1 5 27
M  V30 31 1 6 28
M  V30 32 1 8 29
M  V30 33 1 9 30
M  V30 34 1 10 31
M  V30 35 1 10 32
M  V30 36 1 11 33
M  V30 37 1 11 34
M  V30 38 1 12 35
M  V30 39 1 12 36
M  V30 40 1 13 37
M  V30 41 1 13 38
M  V30 42 1 14 39
M  V30 43 1 17 40
M  V30 44 1 18 41
M  V30 45 1 20 42
M  V30 46 1 23 43
M  V30 47 1 23 44
M  V30 END BOND
M  V30 BEGIN COLLECTION
M  V30 MDLV30/STEABS ATOMS=(1 8)
M  V30 END COLLECTION
M  V30 END CTAB
M  END
>  <NO.>
831

>  <Name>
schembl12537969

>  <SMILES>
Fc1ccc([C@@H]2CCNCC2COc2ccc3c(c2)OCO3)cc1

>  <logBB>
0.52

>  <Class>
1

>  <MW>
329.14

>  <nHBAcc>
4

>  <nHBDon>
1

>  <SLogP>
3.33

>  <TopoPSA>
39.72

>  <MMFF94 Energy>
36.991

$$$$
CNCCCN1c2ccccc2CCc2cc(O)ccc21
Actelion Java MolfileCreator 2.0

  0  0  0  0  0  0              0 V3000
M  V30 BEGIN CTAB
M  V30 COUNTS 43 45 0 0 0
M  V30 BEGIN ATOM
M  V30 1 O -3.875 -4.1919 0.0 0
M  V30 2 C -2.9859 -3.1615 0.0634 0
M  V30 3 C -3.4823 -1.8846 0.2835 0
M  V30 4 C -1.6274 -3.3655 -0.0825 0
M  V30 5 C -2.6237 -0.7624 0.3545 0
M  V30 6 C -0.7661 -2.2692 0.0029 0
M  V30 7 C -1.2311 -0.9505 0.225 0
M  V30 8 C -3.3105 0.5694 0.5735 0
M  V30 9 N -0.269 0.0829 0.3431 0
M  V30 10 C -2.5739 1.812 0.0827 0
M  V30 11 C -0.3595 1.2528 1.1289 0
M  V30 12 C 0.6579 0.2154 -0.8065 0
M  V30 13 C -1.437 2.1425 1.0081 0
M  V30 14 C 0.6568 1.5567 2.0482 0
M  V30 15 C 2.0987 -0.1703 -0.4579 0
M  V30 16 C -1.4659 3.323 1.7698 0
M  V30 17 C 0.6225 2.7276 2.808 0
M  V30 18 C 2.9482 -0.2746 -1.7262 0
M  V30 19 C -0.4369 3.6155 2.6624 0
M  V30 20 N 4.318 -0.6549 -1.3787 0
M  V30 21 C 5.1559 -0.7435 -2.5672 0
M  V30 22 H -3.3803 -5.0182 -0.1239 0
M  V30 23 H -4.5572 -1.7581 0.3975 0
M  V30 24 H -1.2145 -4.355 -0.2455 0
M  V30 25 H 0.3008 -2.4606 -0.0728 0
M  V30 26 H -4.2684 0.5458 0.0358 0
M  V30 27 H -3.549 0.6605 1.6416 0
M  V30 28 H -3.2806 2.6511 0.0556 0
M  V30 29 H -2.2054 1.6894 -0.9431 0
M  V30 30 H 0.6405 1.2457 -1.1901 0
M  V30 31 H 0.3111 -0.3977 -1.6499 0
M  V30 32 H 1.4764 0.8591 2.1963 0
M  V30 33 H 2.1226 -1.1212 0.0864 0
M  V30 34 H 2.5382 0.5839 0.2038 0
M  V30 35 H -2.2992 4.0158 1.6787 0
M  V30 36 H 1.4186 2.9378 3.5167 0
M  V30 37 H 2.9428 0.6888 -2.2502 0
M  V30 38 H 2.5141 -1.0281 -2.3942 0
M  V30 39 H -0.4704 4.5269 3.2533 0
M  V30 40 H 4.7145 0.0335 -0.7386 0
M  V30 41 H 5.221 0.2189 -3.085 0
M  V30 42 H 4.778 -1.5001 -3.2623 0
M  V30 43 H 6.169 -1.0394 -2.2774 0
M  V30 END ATOM
M  V30 BEGIN BOND
M  V30 1 1 1 2
M  V30 2 2 2 3
M  V30 3 1 2 4
M  V30 4 1 3 5
M  V30 5 2 4 6
M  V30 6 2 5 7
M  V30 7 1 5 8
M  V30 8 1 7 9
M  V30 9 1 8 10
M  V30 10 1 9 11
M  V30 11 1 9 12
M  V30 12 1 10 13
M  V30 13 1 11 14
M  V30 14 1 12 15
M  V30 15 1 13 16
M  V30 16 2 14 17
M  V30 17 1 15 18
M  V30 18 2 16 19
M  V30 19 1 18 20
M  V30 20 1 20 21
M  V30 21 1 6 7
M  V30 22 2 11 13
M  V30 23 1 17 19
M  V30 24 1 1 22
M  V30 25 1 3 23
M  V30 26 1 4 24
M  V30 27 1 6 25
M  V30 28 1 8 26
M  V30 29 1 8 27
M  V30 30 1 10 28
M  V30 31 1 10 29
M  V30 32 1 12 30
M  V30 33 1 12 31
M  V30 34 1 14 32
M  V30 35 1 15 33
M  V30 36 1 15 34
M  V30 37 1 16 35
M  V30 38 1 17 36
M  V30 39 1 18 37
M  V30 40 1 18 38
M  V30 41 1 19 39
M  V30 42 1 20 40
M  V30 43 1 21 41
M  V30 44 1 21 42
M  V30 45 1 21 43
M  V30 END BOND
M  V30 END CTAB
M  END
>  <NO.>
832

>  <Name>
1977-15-7

>  <SMILES>
CNCCCN1c2ccccc2CCc2cc(O)ccc21

>  <logBB>
0.53

>  <Class>
1

>  <MW>
282.17

>  <nHBAcc>
3

>  <nHBDon>
2

>  <SLogP>
3.24

>  <TopoPSA>
35.5

>  <MMFF94 Energy>
45.869

$$$$
CCCOC(=O)c1ccc(N)cc1
Actelion Java MolfileCreator 2.0

  0  0  0  0  0  0              0 V3000
M  V30 BEGIN CTAB
M  V30 COUNTS 26 26 0 0 0
M  V30 BEGIN ATOM
M  V30 1 O -0.1555 -0.778 -2.4914 0
M  V30 2 C -0.0318 -0.3064 -1.372 0
M  V30 3 O -0.2531 0.9865 -1.0273 0
M  V30 4 C 0.3919 -1.0991 -0.1859 0
M  V30 5 C -0.6744 1.8224 -2.1128 0
M  V30 6 C 0.6728 -2.4586 -0.3632 0
M  V30 7 C 0.5136 -0.5388 1.0908 0
M  V30 8 C -0.9032 3.2372 -1.5906 0
M  V30 9 C 1.0736 -3.244 0.7228 0
M  V30 10 C 0.9155 -1.3329 2.1713 0
M  V30 11 C -2.0275 3.3014 -0.5663 0
M  V30 12 C 1.2082 -2.6872 1.9961 0
M  V30 13 N 1.5809 -3.4709 3.0707 0
M  V30 14 H -1.5988 1.4266 -2.55 0
M  V30 15 H 0.1097 1.8421 -2.8785 0
M  V30 16 H 0.579 -2.9156 -1.3464 0
M  V30 17 H 0.2974 0.512 1.265 0
M  V30 18 H 0.0152 3.6079 -1.1208 0
M  V30 19 H -1.1407 3.9003 -2.4297 0
M  V30 20 H 1.2803 -4.2989 0.5617 0
M  V30 21 H 0.9979 -0.8797 3.156 0
M  V30 22 H -2.1793 4.3344 -0.2372 0
M  V30 23 H -2.968 2.94 -0.9944 0
M  V30 24 H -1.7971 2.6977 0.3171 0
M  V30 25 H 1.7238 -3.0604 3.9831 0
M  V30 26 H 1.8363 -4.4395 2.9361 0
M  V30 END ATOM
M  V30 BEGIN BOND
M  V30 1 2 1 2
M  V30 2 1 2 3
M  V30 3 1 2 4
M  V30 4 1 3 5
M  V30 5 2 4 6
M  V30 6 1 4 7
M  V30 7 1 5 8
M  V30 8 1 6 9
M  V30 9 2 7 10
M  V30 10 1 8 11
M  V30 11 2 9 12
M  V30 12 1 12 13
M  V30 13 1 10 12
M  V30 14 1 5 14
M  V30 15 1 5 15
M  V30 16 1 6 16
M  V30 17 1 7 17
M  V30 18 1 8 18
M  V30 19 1 8 19
M  V30 20 1 9 20
M  V30 21 1 10 21
M  V30 22 1 11 22
M  V30 23 1 11 23
M  V30 24 1 11 24
M  V30 25 1 13 25
M  V30 26 1 13 26
M  V30 END BOND
M  V30 END CTAB
M  END
>  <NO.>
835

>  <Name>
propyl-4-aminobenzoate

>  <SMILES>
CCCOC(=O)c1ccc(N)cc1

>  <logBB>
0.55

>  <Class>
1

>  <MW>
179.09

>  <nHBAcc>
3

>  <nHBDon>
1

>  <SLogP>
1.84

>  <TopoPSA>
52.32

>  <MMFF94 Energy>
17.965

$$$$
CN(C)c1ccccc1Sc1ccc(CCF)cc1N
Actelion Java MolfileCreator 2.0

  0  0  0  0  0  0              0 V3000
M  V30 BEGIN CTAB
M  V30 COUNTS 39 40 0 0 0
M  V30 BEGIN ATOM
M  V30 1 S 1.758 1.4382 -1.0385 0
M  V30 2 C 1.8387 -0.1111 -1.9538 0
M  V30 3 C 0.2269 1.3164 -0.1025 0
M  V30 4 C 1.651 -1.3973 -1.3847 0
M  V30 5 C 2.105 0.0156 -3.3296 0
M  V30 6 C 0.1691 1.7962 1.2231 0
M  V30 7 C -0.9367 0.8137 -0.7032 0
M  V30 8 N 1.4522 -1.5896 -0.0165 0
M  V30 9 C 1.6982 -2.5079 -2.2489 0
M  V30 10 C 2.1536 -1.1047 -4.1569 0
M  V30 11 N 1.2992 2.2785 1.8822 0
M  V30 12 C -1.0344 1.6871 1.934 0
M  V30 13 C -2.1351 0.7374 0.0103 0
M  V30 14 C 2.6164 -1.4209 0.8424 0
M  V30 15 C 0.4189 -2.5086 0.4306 0
M  V30 16 C 1.9438 -2.3666 -3.617 0
M  V30 17 C -2.1943 1.1681 1.3387 0
M  V30 18 C -3.4822 1.0737 2.122 0
M  V30 19 C -4.0782 2.437 2.4467 0
M  V30 20 F -3.3624 3.0237 3.4454 0
M  V30 21 H 2.2628 0.9982 -3.7692 0
M  V30 22 H -0.9189 0.4703 -1.7341 0
M  V30 23 H 1.5708 -3.5112 -1.8511 0
M  V30 24 H 2.3534 -0.9893 -5.2187 0
M  V30 25 H 1.2064 2.7734 2.757 0
M  V30 26 H 2.1321 2.4204 1.3221 0
M  V30 27 H -1.0715 2.018 2.9704 0
M  V30 28 H -3.0151 0.3326 -0.4835 0
M  V30 29 H 3.254 -2.3108 0.7954 0
M  V30 30 H 2.3039 -1.2827 1.8832 0
M  V30 31 H 3.2265 -0.5544 0.5702 0
M  V30 32 H -0.4933 -2.4054 -0.1674 0
M  V30 33 H 0.1476 -2.2958 1.4706 0
M  V30 34 H 0.7618 -3.5474 0.3789 0
M  V30 35 H 1.9831 -3.2463 -4.2538 0
M  V30 36 H -4.2151 0.4935 1.5487 0
M  V30 37 H -3.2887 0.5183 3.0476 0
M  V30 38 H -5.104 2.3267 2.8107 0
M  V30 39 H -4.0796 3.1098 1.5837 0
M  V30 END ATOM
M  V30 BEGIN BOND
M  V30 1 1 1 2
M  V30 2 1 1 3
M  V30 3 2 2 4
M  V30 4 1 2 5
M  V30 5 2 3 6
M  V30 6 1 3 7
M  V30 7 1 4 8
M  V30 8 1 4 9
M  V30 9 2 5 10
M  V30 10 1 6 11
M  V30 11 1 6 12
M  V30 12 2 7 13
M  V30 13 1 8 14
M  V30 14 1 8 15
M  V30 15 2 9 16
M  V30 16 2 12 17
M  V30 17 1 17 18
M  V30 18 1 18 19
M  V30 19 1 19 20
M  V30 20 1 10 16
M  V30 21 1 13 17
M  V30 22 1 5 21
M  V30 23 1 7 22
M  V30 24 1 9 23
M  V30 25 1 10 24
M  V30 26 1 11 25
M  V30 27 1 11 26
M  V30 28 1 12 27
M  V30 29 1 13 28
M  V30 30 1 14 29
M  V30 31 1 14 30
M  V30 32 1 14 31
M  V30 33 1 15 32
M  V30 34 1 15 33
M  V30 35 1 15 34
M  V30 36 1 16 35
M  V30 37 1 18 36
M  V30 38 1 18 37
M  V30 39 1 19 38
M  V30 40 1 19 39
M  V30 END BOND
M  V30 END CTAB
M  END
>  <NO.>
836

>  <Name>
afe

>  <SMILES>
CN(C)c1ccccc1Sc1ccc(CCF)cc1N

>  <logBB>
0.55

>  <Class>
1

>  <MW>
290.13

>  <nHBAcc>
3

>  <nHBDon>
1

>  <SLogP>
4

>  <TopoPSA>
29.26

>  <MMFF94 Energy>
83.686

$$$$
CC(=O)OCCC(C)C
Actelion Java MolfileCreator 2.0

  0  0  0  0  0  0              0 V3000
M  V30 BEGIN CTAB
M  V30 COUNTS 23 22 0 0 0
M  V30 BEGIN ATOM
M  V30 1 O 3.4537 0.0 0.4599 0
M  V30 2 C 2.4701 0.2948 1.1235 0
M  V30 3 O 1.1964 -0.1153 0.8766 0
M  V30 4 C 2.4982 1.17 2.3387 0
M  V30 5 C 1.0601 -0.9527 -0.2775 0
M  V30 6 C -0.4135 -1.3025 -0.4835 0
M  V30 7 C -1.2509 -0.181 -1.1323 0
M  V30 8 C -2.6677 -0.6933 -1.4082 0
M  V30 9 C -1.3217 1.0889 -0.2845 0
M  V30 10 H 1.8724 2.051 2.1754 0
M  V30 11 H 2.1514 0.6071 3.2089 0
M  V30 12 H 3.524 1.501 2.5234 0
M  V30 13 H 1.6222 -1.8773 -0.101 0
M  V30 14 H 1.4635 -0.4497 -1.1641 0
M  V30 15 H -0.8619 -1.5822 0.478 0
M  V30 16 H -0.461 -2.1842 -1.1347 0
M  V30 17 H -0.7974 0.0789 -2.0972 0
M  V30 18 H -2.6438 -1.5781 -2.0529 0
M  V30 19 H -3.1803 -0.9638 -0.4787 0
M  V30 20 H -3.2666 0.0704 -1.9156 0
M  V30 21 H -0.346 1.5793 -0.2213 0
M  V30 22 H -1.6662 0.8707 0.7317 0
M  V30 23 H -2.0138 1.814 -0.7266 0
M  V30 END ATOM
M  V30 BEGIN BOND
M  V30 1 2 1 2
M  V30 2 1 2 3
M  V30 3 1 2 4
M  V30 4 1 3 5
M  V30 5 1 5 6
M  V30 6 1 6 7
M  V30 7 1 7 8
M  V30 8 1 7 9
M  V30 9 1 4 10
M  V30 10 1 4 11
M  V30 11 1 4 12
M  V30 12 1 5 13
M  V30 13 1 5 14
M  V30 14 1 6 15
M  V30 15 1 6 16
M  V30 16 1 7 17
M  V30 17 1 8 18
M  V30 18 1 8 19
M  V30 19 1 8 20
M  V30 20 1 9 21
M  V30 21 1 9 22
M  V30 22 1 9 23
M  V30 END BOND
M  V30 END CTAB
M  END
>  <NO.>
837

>  <Name>
isopentylacetate 

>  <SMILES>
CC(=O)OCCC(C)C

>  <logBB>
0.55

>  <Class>
1

>  <MW>
130.1

>  <nHBAcc>
2

>  <nHBDon>
0

>  <SLogP>
1.6

>  <TopoPSA>
26.3

>  <MMFF94 Energy>
-5.1368

$$$$
COc1ccc2c3c1O[C@H]1[C@@H](O)C=C[C@H]4C(C2)N(C)CCC341
Actelion Java MolfileCreator 2.0

  0  0  0  0  0  0              0 V3000
M  V30 BEGIN CTAB
M  V30 COUNTS 43 47 0 0 0
M  V30 BEGIN ATOM
M  V30 1 O -2.0262 1.3774 -0.729 0
M  V30 2 C -1.8123 0.2009 -0.0563 0
M  V30 3 C -0.6884 1.9583 -0.91 0 CFG=2
M  V30 4 C -2.7642 -0.5656 0.5934 0
M  V30 5 C -0.4788 -0.1482 -0.035 0
M  V30 6 C 0.3345 0.8029 -0.8522 0
M  V30 7 C -0.3988 3.1112 0.0984 0 CFG=1
M  V30 8 O -4.0625 -0.1613 0.4814 0
M  V30 9 C -2.3039 -1.6766 1.3173 0
M  V30 10 C 0.0104 -1.1875 0.7346 0
M  V30 11 C 1.6612 1.061 -0.1194 0 CFG=1
M  V30 12 C 0.6173 0.1998 -2.242 0
M  V30 13 O -1.5961 3.7259 0.5611 0
M  V30 14 C 0.4831 2.7538 1.2671 0
M  V30 15 C -5.0364 -0.9092 1.1937 0
M  V30 16 C -0.9255 -1.973 1.4063 0
M  V30 17 C 1.5001 -1.3308 0.902 0
M  V30 18 C 1.4529 1.83 1.1667 0
M  V30 19 C 2.3549 -0.3325 0.0431 0
M  V30 20 C 1.5335 -1.0303 -2.1782 0
M  V30 21 N 2.706 -0.8015 -1.3247 0
M  V30 22 C 3.5917 -1.9624 -1.3251 0
M  V30 23 H -0.7056 2.4072 -1.9118 0
M  V30 24 H 0.1448 3.8911 -0.4516 0
M  V30 25 H -2.9908 -2.3203 1.8575 0
M  V30 26 H 2.3112 1.6942 -0.7422 0
M  V30 27 H -0.3133 -0.0785 -2.7531 0
M  V30 28 H 1.0991 0.9646 -2.8663 0
M  V30 29 H -1.356 4.4083 1.2067 0
M  V30 30 H 0.3692 3.3058 2.195 0
M  V30 31 H -5.0863 -1.9405 0.8292 0
M  V30 32 H -6.0117 -0.4461 1.0147 0
M  V30 33 H -4.8477 -0.88 2.2721 0
M  V30 34 H -0.6 -2.8062 2.0247 0
M  V30 35 H 1.7258 -1.1296 1.958 0
M  V30 36 H 1.7926 -2.3689 0.717 0
M  V30 37 H 2.1158 1.641 2.0066 0
M  V30 38 H 3.3022 -0.1717 0.5763 0
M  V30 39 H 0.9645 -1.9058 -1.842 0
M  V30 40 H 1.8631 -1.2536 -3.2007 0
M  V30 41 H 4.4734 -1.7796 -0.7013 0
M  V30 42 H 3.963 -2.153 -2.3384 0
M  V30 43 H 3.1003 -2.8747 -0.9726 0
M  V30 END ATOM
M  V30 BEGIN BOND
M  V30 1 1 1 2
M  V30 2 1 1 3
M  V30 3 2 2 4
M  V30 4 1 2 5
M  V30 5 1 3 6
M  V30 6 1 3 7
M  V30 7 1 4 8
M  V30 8 1 4 9
M  V30 9 2 5 10
M  V30 10 1 6 11
M  V30 11 1 6 12
M  V30 12 1 7 13
M  V30 13 1 7 14
M  V30 14 1 8 15
M  V30 15 2 9 16
M  V30 16 1 10 17
M  V30 17 1 11 18
M  V30 18 1 11 19
M  V30 19 1 12 20
M  V30 20 1 19 21
M  V30 21 1 21 22
M  V30 22 1 5 6
M  V30 23 1 10 16
M  V30 24 2 14 18
M  V30 25 1 17 19
M  V30 26 1 20 21
M  V30 27 1 3 23
M  V30 28 1 7 24
M  V30 29 1 9 25
M  V30 30 1 11 26
M  V30 31 1 12 27
M  V30 32 1 12 28
M  V30 33 1 13 29
M  V30 34 1 14 30
M  V30 35 1 15 31
M  V30 36 1 15 32
M  V30 37 1 15 33
M  V30 38 1 16 34
M  V30 39 1 17 35
M  V30 40 1 17 36
M  V30 41 1 18 37
M  V30 42 1 19 38
M  V30 43 1 20 39
M  V30 44 1 20 40
M  V30 45 1 22 41
M  V30 46 1 22 42
M  V30 47 1 22 43
M  V30 END BOND
M  V30 BEGIN COLLECTION
M  V30 MDLV30/STEABS ATOMS=(3 3 7 11)
M  V30 END COLLECTION
M  V30 END CTAB
M  END
>  <NO.>
838

>  <Name>
codeine

>  <SMILES>
COc1ccc2c3c1O[C@H]1[C@@H](O)C=C[C@H]4C(C2)N(C)CCC341

>  <logBB>
0.55

>  <Class>
1

>  <MW>
299.15

>  <nHBAcc>
4

>  <nHBDon>
1

>  <SLogP>
1.5

>  <TopoPSA>
41.93

>  <MMFF94 Energy>
120.35

$$$$
COc1ccc2c3c1O[C@H]1[C@@H](O)CC[C@H]4[C@@H](C2)N(C)CC[C@]314
Actelion Java MolfileCreator 2.0

  0  0  0  0  0  0              0 V3000
M  V30 BEGIN CTAB
M  V30 COUNTS 45 49 0 0 0
M  V30 BEGIN ATOM
M  V30 1 O 0.8891 0.8891 2.1836 0
M  V30 2 C 0.5329 1.4607 0.975 0
M  V30 3 C 0.4244 -0.5017 2.0533 0 CFG=2
M  V30 4 C 0.4115 2.8086 0.6953 0
M  V30 5 C 0.1904 0.5046 0.0376 0
M  V30 6 C 0.479 -0.8571 0.5577 0 CFG=2
M  V30 7 C -0.9696 -0.6441 2.7304 0 CFG=1
M  V30 8 O 0.7715 3.676 1.6842 0
M  V30 9 C -0.1062 3.1503 -0.565 0
M  V30 10 C -0.3755 0.8057 -1.1838 0
M  V30 11 C -0.5244 -1.8776 0.0196 0 CFG=2
M  V30 12 C 1.8905 -1.2777 0.0887 0
M  V30 13 O -1.7836 0.5256 2.5865 0
M  V30 14 C -1.7776 -1.8211 2.1851 0
M  V30 15 C 0.6675 5.0625 1.3912 0
M  V30 16 C -0.5149 2.1582 -1.4894 0
M  V30 17 C -0.8877 -0.3241 -2.0386 0
M  V30 18 C -0.5 -1.7614 -1.5322 0 CFG=1
M  V30 19 C -1.9093 -1.7524 0.6586 0
M  V30 20 C 1.9602 -1.4664 -1.4367 0
M  V30 21 N 0.8366 -2.2557 -1.959 0
M  V30 22 C 0.9482 -2.4396 -3.403 0
M  V30 23 H 1.1275 -1.1401 2.6037 0
M  V30 24 H -0.8222 -0.7684 3.8094 0
M  V30 25 H -0.2431 4.1878 -0.8547 0
M  V30 26 H -0.1733 -2.8861 0.2911 0
M  V30 27 H 2.6531 -0.5478 0.3903 0
M  V30 28 H 2.1596 -2.2248 0.5758 0
M  V30 29 H -1.2045 1.2881 2.7811 0
M  V30 30 H -1.3012 -2.7654 2.4745 0
M  V30 31 H -2.7842 -1.8131 2.6203 0
M  V30 32 H 1.3104 5.3386 0.5487 0
M  V30 33 H 1.0132 5.6171 2.269 0
M  V30 34 H -0.3728 5.3492 1.2053 0
M  V30 35 H -0.9579 2.4632 -2.4348 0
M  V30 36 H -0.572 -0.1736 -3.0757 0
M  V30 37 H -1.984 -0.2586 -2.036 0
M  V30 38 H -1.2439 -2.4635 -1.9321 0
M  V30 39 H -2.4119 -0.8248 0.3638 0
M  V30 40 H -2.5451 -2.5767 0.3142 0
M  V30 41 H 2.0161 -0.4888 -1.9316 0
M  V30 42 H 2.903 -1.9789 -1.6657 0
M  V30 43 H 0.1212 -3.0492 -3.7835 0
M  V30 44 H 1.8697 -2.9814 -3.6444 0
M  V30 45 H 0.9635 -1.4931 -3.9526 0
M  V30 END ATOM
M  V30 BEGIN BOND
M  V30 1 1 1 2
M  V30 2 1 1 3
M  V30 3 2 2 4
M  V30 4 1 2 5
M  V30 5 1 3 6
M  V30 6 1 3 7
M  V30 7 1 4 8
M  V30 8 1 4 9
M  V30 9 2 5 10
M  V30 10 1 6 11
M  V30 11 1 6 12
M  V30 12 1 7 13
M  V30 13 1 7 14
M  V30 14 1 8 15
M  V30 15 2 9 16
M  V30 16 1 10 17
M  V30 17 1 11 18
M  V30 18 1 11 19
M  V30 19 1 12 20
M  V30 20 1 18 21
M  V30 21 1 21 22
M  V30 22 1 5 6
M  V30 23 1 10 16
M  V30 24 1 14 19
M  V30 25 1 17 18
M  V30 26 1 20 21
M  V30 27 1 3 23
M  V30 28 1 7 24
M  V30 29 1 9 25
M  V30 30 1 11 26
M  V30 31 1 12 27
M  V30 32 1 12 28
M  V30 33 1 13 29
M  V30 34 1 14 30
M  V30 35 1 14 31
M  V30 36 1 15 32
M  V30 37 1 15 33
M  V30 38 1 15 34
M  V30 39 1 16 35
M  V30 40 1 17 36
M  V30 41 1 17 37
M  V30 42 1 18 38
M  V30 43 1 19 39
M  V30 44 1 19 40
M  V30 45 1 20 41
M  V30 46 1 20 42
M  V30 47 1 22 43
M  V30 48 1 22 44
M  V30 49 1 22 45
M  V30 END BOND
M  V30 BEGIN COLLECTION
M  V30 MDLV30/STEABS ATOMS=(5 3 6 7 11 18)
M  V30 END COLLECTION
M  V30 END CTAB
M  END
>  <NO.>
839

>  <Name>
dihydrocodeine

>  <SMILES>
COc1ccc2c3c1O[C@H]1[C@@H](O)CC[C@H]4[C@@H](C2)N(C)CC[C@]314

>  <logBB>
0.55

>  <Class>
1

>  <MW>
301.17

>  <nHBAcc>
4

>  <nHBDon>
1

>  <SLogP>
1.73

>  <TopoPSA>
41.93

>  <MMFF94 Energy>
102.1

$$$$
CC(C)Br
Actelion Java MolfileCreator 2.0

  0  0  0  0  0  0              0 V3000
M  V30 BEGIN CTAB
M  V30 COUNTS 11 10 0 0 0
M  V30 BEGIN ATOM
M  V30 1 Br 2.0592 -0.7916 -0.6332 0
M  V30 2 C 0.5368 0.1728 0.1289 0
M  V30 3 C -0.265 0.7963 -1.0002 0
M  V30 4 C -0.2916 -0.7931 0.9578 0
M  V30 5 H 0.9674 0.9512 0.7665 0
M  V30 6 H 0.3512 1.4836 -1.5903 0
M  V30 7 H -0.6612 0.0364 -1.6832 0
M  V30 8 H -1.1119 1.3659 -0.603 0
M  V30 9 H 0.3055 -1.2372 1.7618 0
M  V30 10 H -0.6888 -1.6125 0.3481 0
M  V30 11 H -1.1395 -0.2759 1.4196 0
M  V30 END ATOM
M  V30 BEGIN BOND
M  V30 1 1 1 2
M  V30 2 1 2 3
M  V30 3 1 2 4
M  V30 4 1 2 5
M  V30 5 1 3 6
M  V30 6 1 3 7
M  V30 7 1 3 8
M  V30 8 1 4 9
M  V30 9 1 4 10
M  V30 10 1 4 11
M  V30 END BOND
M  V30 END CTAB
M  END
>  <NO.>
841

>  <Name>
2-bromopropane

>  <SMILES>
CC(C)Br

>  <logBB>
0.56

>  <Class>
1

>  <MW>
121.97

>  <nHBAcc>
0

>  <nHBDon>
0

>  <SLogP>
1.79

>  <TopoPSA>
0

>  <MMFF94 Energy>
0.64718

$$$$
CN1CCN(Cc2ccc(C(=O)Nc3cc(-c4ccccc4)ccc3N)cc2)CC1
Actelion Java MolfileCreator 2.0

  0  0  0  0  0  0              0 V3000
M  V30 BEGIN CTAB
M  V30 COUNTS 58 61 0 0 0
M  V30 BEGIN ATOM
M  V30 1 O 1.9042 -0.5551 -1.7454 0
M  V30 2 C 0.7125 -0.7817 -1.5671 0
M  V30 3 N -0.278 -0.7071 -2.5255 0
M  V30 4 C 0.2584 -1.2369 -0.2222 0
M  V30 5 C -0.1152 -0.252 -3.8516 0
M  V30 6 C 1.1486 -1.9733 0.5679 0
M  V30 7 C -1.0134 -0.9265 0.2738 0
M  V30 8 C -0.9776 -0.7722 -4.8354 0
M  V30 9 C 0.806 0.7501 -4.1792 0
M  V30 10 C 0.7632 -2.42 1.8344 0
M  V30 11 C -1.3962 -1.3752 1.5407 0
M  V30 12 N -1.9246 -1.7544 -4.5294 0
M  V30 13 C -0.9456 -0.2166 -6.1155 0
M  V30 14 C 0.8795 1.2754 -5.4804 0
M  V30 15 C -0.5132 -2.1252 2.3331 0
M  V30 16 C -0.0189 0.7806 -6.438 0
M  V30 17 C 1.8586 2.3237 -5.8216 0
M  V30 18 C -0.9367 -2.6121 3.7047 0
M  V30 19 C 1.4697 3.4923 -6.4987 0
M  V30 20 C 3.2143 2.1863 -5.4774 0
M  V30 21 N -1.3565 -1.524 4.6014 0
M  V30 22 C 2.4003 4.4842 -6.822 0
M  V30 23 C 4.1464 3.1767 -5.8 0
M  V30 24 C -0.2104 -0.6768 5.0002 0
M  V30 25 C -1.9844 -2.0805 5.8179 0
M  V30 26 C 3.7386 4.3251 -6.4729 0
M  V30 27 C -0.6155 0.4197 6.0125 0
M  V30 28 C -2.3921 -0.9816 6.8254 0
M  V30 29 N -1.2453 -0.1438 7.2224 0
M  V30 30 C -1.6697 0.9209 8.1278 0
M  V30 31 H -1.2015 -1.0612 -2.3156 0
M  V30 32 H 2.1463 -2.201 0.1972 0
M  V30 33 H -1.7063 -0.3109 -0.2928 0
M  V30 34 H 1.456 1.1586 -3.4085 0
M  V30 35 H 1.4706 -2.9916 2.4311 0
M  V30 36 H -2.3821 -1.1204 1.9268 0
M  V30 37 H -2.4837 -2.1226 -5.2893 0
M  V30 38 H -1.6794 -2.4151 -3.8027 0
M  V30 39 H -1.6253 -0.5696 -6.8859 0
M  V30 40 H 0.0032 1.1633 -7.4565 0
M  V30 41 H -0.1365 -3.208 4.1635 0
M  V30 42 H -1.776 -3.3014 3.5401 0
M  V30 43 H 0.427 3.6464 -6.7685 0
M  V30 44 H 3.5575 1.2939 -4.9561 0
M  V30 45 H 2.0768 5.3819 -7.342 0
M  V30 46 H 5.1894 3.0474 -5.5237 0
M  V30 47 H 0.5868 -1.291 5.4406 0
M  V30 48 H 0.211 -0.1751 4.1217 0
M  V30 49 H -1.305 -2.787 6.3139 0
M  V30 50 H -2.8877 -2.6368 5.5394 0
M  V30 51 H 4.4627 5.096 -6.7222 0
M  V30 52 H -1.2934 1.1291 5.5184 0
M  V30 53 H 0.2872 0.974 6.2964 0
M  V30 54 H -3.1871 -0.3662 6.3826 0
M  V30 55 H -2.8125 -1.4694 7.7132 0
M  V30 56 H -2.4068 1.5897 7.6689 0
M  V30 57 H -0.8094 1.5214 8.4433 0
M  V30 58 H -2.109 0.4976 9.0379 0
M  V30 END ATOM
M  V30 BEGIN BOND
M  V30 1 2 1 2
M  V30 2 1 2 3
M  V30 3 1 2 4
M  V30 4 1 3 5
M  V30 5 2 4 6
M  V30 6 1 4 7
M  V30 7 2 5 8
M  V30 8 1 5 9
M  V30 9 1 6 10
M  V30 10 2 7 11
M  V30 11 1 8 12
M  V30 12 1 8 13
M  V30 13 2 9 14
M  V30 14 2 10 15
M  V30 15 2 13 16
M  V30 16 1 14 17
M  V30 17 1 15 18
M  V30 18 2 17 19
M  V30 19 1 17 20
M  V30 20 1 18 21
M  V30 21 1 19 22
M  V30 22 2 20 23
M  V30 23 1 21 24
M  V30 24 1 21 25
M  V30 25 2 22 26
M  V30 26 1 24 27
M  V30 27 1 25 28
M  V30 28 1 27 29
M  V30 29 1 29 30
M  V30 30 1 11 15
M  V30 31 1 14 16
M  V30 32 1 23 26
M  V30 33 1 28 29
M  V30 34 1 3 31
M  V30 35 1 6 32
M  V30 36 1 7 33
M  V30 37 1 9 34
M  V30 38 1 10 35
M  V30 39 1 11 36
M  V30 40 1 12 37
M  V30 41 1 12 38
M  V30 42 1 13 39
M  V30 43 1 16 40
M  V30 44 1 18 41
M  V30 45 1 18 42
M  V30 46 1 19 43
M  V30 47 1 20 44
M  V30 48 1 22 45
M  V30 49 1 23 46
M  V30 50 1 24 47
M  V30 51 1 24 48
M  V30 52 1 25 49
M  V30 53 1 25 50
M  V30 54 1 26 51
M  V30 55 1 27 52
M  V30 56 1 27 53
M  V30 57 1 28 54
M  V30 58 1 28 55
M  V30 59 1 30 56
M  V30 60 1 30 57
M  V30 61 1 30 58
M  V30 END BOND
M  V30 END CTAB
M  END
>  <NO.>
844

>  <Name>
n-(2-amino-5-phenylphenyl)-4-[(4-methylpiperazin-1-yl)methyl]benzamide

>  <SMILES>
CN1CCN(Cc2ccc(C(=O)Nc3cc(-c4ccccc4)ccc3N)cc2)CC1

>  <logBB>
0.56

>  <Class>
1

>  <MW>
400.23

>  <nHBAcc>
4

>  <nHBDon>
2

>  <SLogP>
3.94

>  <TopoPSA>
61.6

>  <MMFF94 Energy>
132.03

$$$$
COc1cccc(CN)c1O
Actelion Java MolfileCreator 2.0

  0  0  0  0  0  0              0 V3000
M  V30 BEGIN CTAB
M  V30 COUNTS 22 22 0 0 0
M  V30 BEGIN ATOM
M  V30 1 O 1.5513 1.6289 -1.1633 0
M  V30 2 C 0.6279 1.0593 -0.3218 0
M  V30 3 C 1.9766 2.948 -0.8403 0
M  V30 4 C 0.234 -0.2428 -0.6735 0
M  V30 5 C 0.0712 1.655 0.808 0
M  V30 6 O 0.7787 -0.8106 -1.7987 0
M  V30 7 C -0.693 -0.9673 0.0829 0
M  V30 8 C -0.8701 0.9571 1.5678 0
M  V30 9 C -1.2525 -0.3366 1.2051 0
M  V30 10 C -1.1364 -2.3494 -0.3247 0
M  V30 11 N -1.2396 -3.2641 0.8158 0
M  V30 12 H 1.1393 3.6528 -0.8773 0
M  V30 13 H 2.7054 3.2576 -1.5954 0
M  V30 14 H 2.4752 2.9746 0.1341 0
M  V30 15 H 0.3396 2.657 1.1235 0
M  V30 16 H 1.3845 -0.1299 -2.1524 0
M  V30 17 H -1.3123 1.4215 2.446 0
M  V30 18 H -1.9939 -0.8612 1.806 0
M  V30 19 H -2.1118 -2.2737 -0.818 0
M  V30 20 H -0.4385 -2.7917 -1.0429 0
M  V30 21 H -0.315 -3.3392 1.2388 0
M  V30 22 H -1.4619 -4.1925 0.4621 0
M  V30 END ATOM
M  V30 BEGIN BOND
M  V30 1 1 1 2
M  V30 2 1 1 3
M  V30 3 2 2 4
M  V30 4 1 2 5
M  V30 5 1 4 6
M  V30 6 1 4 7
M  V30 7 2 5 8
M  V30 8 2 7 9
M  V30 9 1 7 10
M  V30 10 1 10 11
M  V30 11 1 8 9
M  V30 12 1 3 12
M  V30 13 1 3 13
M  V30 14 1 3 14
M  V30 15 1 5 15
M  V30 16 1 6 16
M  V30 17 1 8 17
M  V30 18 1 9 18
M  V30 19 1 10 19
M  V30 20 1 10 20
M  V30 21 1 11 21
M  V30 22 1 11 22
M  V30 END BOND
M  V30 END CTAB
M  END
>  <NO.>
845

>  <Name>
2-(aminomethyl)-6-methoxyphenol

>  <SMILES>
COc1cccc(CN)c1O

>  <logBB>
0.56

>  <Class>
1

>  <MW>
153.08

>  <nHBAcc>
3

>  <nHBDon>
2

>  <SLogP>
0.86

>  <TopoPSA>
55.48

>  <MMFF94 Energy>
16.169

$$$$
N#Cc1ccc2c(c1)CCN(CCC1CCC(NC(=O)c3ccnc4ccccc34)CC1)C2
Actelion Java MolfileCreator 2.0

  0  0  0  0  0  0              0 V3000
M  V30 BEGIN CTAB
M  V30 COUNTS 63 67 0 0 0
M  V30 BEGIN ATOM
M  V30 1 O 0.8006 -3.7674 1.7621 0
M  V30 2 C 0.243 -4.4946 0.9529 0
M  V30 3 N -0.4817 -4.0607 -0.1369 0
M  V30 4 C 0.3111 -5.9671 1.1011 0
M  V30 5 C -0.6838 -2.6588 -0.4807 0
M  V30 6 C -0.1112 -6.6077 2.2884 0
M  V30 7 C 0.821 -6.6991 0.0289 0
M  V30 8 C -1.4855 -1.9043 0.5841 0
M  V30 9 C 0.6266 -1.9384 -0.8118 0
M  V30 10 C -0.0023 -8.0127 2.3083 0
M  V30 11 C -0.6388 -5.945 3.4257 0
M  V30 12 C 0.8847 -8.0661 0.1676 0
M  V30 13 C -1.7271 -0.4539 0.1723 0
M  V30 14 C 0.3843 -0.4832 -1.2129 0
M  V30 15 N 0.4779 -8.7234 1.272 0
M  V30 16 C -0.4127 -8.6993 3.4436 0
M  V30 17 C -1.0424 -6.6583 4.5527 0
M  V30 18 C -0.4142 0.2842 -0.1459 0
M  V30 19 C -0.9292 -8.0406 4.5618 0
M  V30 20 C -0.7289 1.7346 -0.5717 0
M  V30 21 C 0.5233 2.6145 -0.7128 0
M  V30 22 N 0.1953 3.995 -1.1115 0
M  V30 23 C 1.4096 4.6668 -1.6204 0
M  V30 24 C -0.3562 4.7813 0.0049 0
M  V30 25 C 1.2105 6.1367 -1.9318 0
M  V30 26 C -0.8574 6.1454 -0.491 0
M  V30 27 C 0.1512 6.858 -1.355 0
M  V30 28 C 2.1292 6.8048 -2.7547 0
M  V30 29 C 9.0E-4 8.2238 -1.6354 0
M  V30 30 C 1.9811 8.1674 -3.0228 0
M  V30 31 C 0.9153 8.8792 -2.466 0
M  V30 32 C 0.7595 10.2765 -2.7455 0
M  V30 33 N 0.6352 11.4085 -2.9704 0
M  V30 34 H -0.9572 -4.75 -0.7054 0
M  V30 35 H -1.2889 -2.6842 -1.397 0
M  V30 36 H 1.1766 -6.2179 -0.8747 0
M  V30 37 H -0.9612 -1.9171 1.5468 0
M  V30 38 H -2.4483 -2.4028 0.7496 0
M  V30 39 H 1.3073 -1.9573 0.0471 0
M  V30 40 H 1.1431 -2.4604 -1.6265 0
M  V30 41 H -0.7303 -4.86 3.4427 0
M  V30 42 H 1.2784 -8.6956 -0.6254 0
M  V30 43 H -2.3876 -0.4327 -0.7039 0
M  V30 44 H -2.2586 0.0615 0.9814 0
M  V30 45 H -0.152 -0.4558 -2.1697 0
M  V30 46 H 1.3575 -0.0098 -1.3794 0
M  V30 47 H -0.3265 -9.7836 3.4588 0
M  V30 48 H -1.4385 -6.1332 5.4181 0
M  V30 49 H 0.1848 0.3196 0.7742 0
M  V30 50 H -1.2375 -8.611 5.4339 0
M  V30 51 H -1.2796 1.7283 -1.5213 0
M  V30 52 H -1.4017 2.1666 0.1774 0
M  V30 53 H 1.1071 2.6021 0.2164 0
M  V30 54 H 1.1541 2.172 -1.492 0
M  V30 55 H 2.2298 4.5862 -0.8943 0
M  V30 56 H 1.722 4.163 -2.5438 0
M  V30 57 H -1.2076 4.2744 0.4703 0
M  V30 58 H 0.3998 4.9209 0.7897 0
M  V30 59 H -1.7732 6.0061 -1.0794 0
M  V30 60 H -1.107 6.7666 0.3772 0
M  V30 61 H 2.9648 6.2637 -3.1939 0
M  V30 62 H -0.8347 8.7739 -1.2055 0
M  V30 63 H 2.7011 8.6662 -3.6687 0
M  V30 END ATOM
M  V30 BEGIN BOND
M  V30 1 2 1 2
M  V30 2 1 2 3
M  V30 3 1 2 4
M  V30 4 1 3 5
M  V30 5 1 4 6
M  V30 6 2 4 7
M  V30 7 1 5 8
M  V30 8 1 5 9
M  V30 9 1 6 10
M  V30 10 2 6 11
M  V30 11 1 7 12
M  V30 12 1 8 13
M  V30 13 1 9 14
M  V30 14 1 10 15
M  V30 15 2 10 16
M  V30 16 1 11 17
M  V30 17 1 13 18
M  V30 18 1 16 19
M  V30 19 1 18 20
M  V30 20 1 20 21
M  V30 21 1 21 22
M  V30 22 1 22 23
M  V30 23 1 22 24
M  V30 24 1 23 25
M  V30 25 1 24 26
M  V30 26 2 25 27
M  V30 27 1 25 28
M  V30 28 1 27 29
M  V30 29 2 28 30
M  V30 30 2 29 31
M  V30 31 1 31 32
M  V30 32 3 32 33
M  V30 33 2 12 15
M  V30 34 1 14 18
M  V30 35 2 17 19
M  V30 36 1 26 27
M  V30 37 1 30 31
M  V30 38 1 3 34
M  V30 39 1 5 35
M  V30 40 1 7 36
M  V30 41 1 8 37
M  V30 42 1 8 38
M  V30 43 1 9 39
M  V30 44 1 9 40
M  V30 45 1 11 41
M  V30 46 1 12 42
M  V30 47 1 13 43
M  V30 48 1 13 44
M  V30 49 1 14 45
M  V30 50 1 14 46
M  V30 51 1 16 47
M  V30 52 1 17 48
M  V30 53 1 18 49
M  V30 54 1 19 50
M  V30 55 1 20 51
M  V30 56 1 20 52
M  V30 57 1 21 53
M  V30 58 1 21 54
M  V30 59 1 23 55
M  V30 60 1 23 56
M  V30 61 1 24 57
M  V30 62 1 24 58
M  V30 63 1 26 59
M  V30 64 1 26 60
M  V30 65 1 28 61
M  V30 66 1 29 62
M  V30 67 1 30 63
M  V30 END BOND
M  V30 END CTAB
M  END
>  <NO.>
846

>  <Name>
sb-277011a

>  <SMILES>
N#Cc1ccc2c(c1)CCN(CCC1CCC(NC(=O)c3ccnc4ccccc34)CC1)C2

>  <logBB>
0.56

>  <Class>
1

>  <MW>
438.24

>  <nHBAcc>
4

>  <nHBDon>
1

>  <SLogP>
4.84

>  <TopoPSA>
69.02

>  <MMFF94 Energy>
74.044

$$$$
c1ccc2c(c1)CCNC2
Actelion Java MolfileCreator 2.0

  0  0  0  0  0  0              0 V3000
M  V30 BEGIN CTAB
M  V30 COUNTS 21 22 0 0 0
M  V30 BEGIN ATOM
M  V30 1 N 0.1581 -1.8193 -1.5027 0
M  V30 2 C 1.0031 -0.6273 -1.3577 0
M  V30 3 C -0.2506 -2.3105 -0.1852 0
M  V30 4 C 0.4318 0.4242 -0.4339 0
M  V30 5 C -1.1474 -1.2923 0.5278 0
M  V30 6 C -0.5654 0.0988 0.5034 0
M  V30 7 C 0.9445 1.7294 -0.4627 0
M  V30 8 C -1.0578 1.0847 1.3688 0
M  V30 9 C 0.456 2.7024 0.4099 0
M  V30 10 C -0.5452 2.3806 1.3233 0
M  V30 11 H 0.6914 -2.5391 -1.9859 0
M  V30 12 H 1.1426 -0.1941 -2.3546 0
M  V30 13 H 1.9907 -0.9212 -0.9808 0
M  V30 14 H -0.8027 -3.2491 -0.3053 0
M  V30 15 H 0.6339 -2.5377 0.4236 0
M  V30 16 H -1.297 -1.6163 1.5645 0
M  V30 17 H -2.1293 -1.2612 0.0391 0
M  V30 18 H 1.7272 1.9945 -1.1695 0
M  V30 19 H -1.8453 0.8464 2.0795 0
M  V30 20 H 0.8554 3.7124 0.3755 0
M  V30 21 H -0.93 3.1404 1.9982 0
M  V30 END ATOM
M  V30 BEGIN BOND
M  V30 1 1 1 2
M  V30 2 1 1 3
M  V30 3 1 2 4
M  V30 4 1 3 5
M  V30 5 2 4 6
M  V30 6 1 4 7
M  V30 7 1 6 8
M  V30 8 2 7 9
M  V30 9 2 8 10
M  V30 10 1 5 6
M  V30 11 1 9 10
M  V30 12 1 1 11
M  V30 13 1 2 12
M  V30 14 1 2 13
M  V30 15 1 3 14
M  V30 16 1 3 15
M  V30 17 1 5 16
M  V30 18 1 5 17
M  V30 19 1 7 18
M  V30 20 1 8 19
M  V30 21 1 9 20
M  V30 22 1 10 21
M  V30 END BOND
M  V30 END CTAB
M  END
>  <NO.>
847

>  <Name>
nsc 15312

>  <SMILES>
c1ccc2c(c1)CCNC2

>  <logBB>
0.56

>  <Class>
1

>  <MW>
133.09

>  <nHBAcc>
1

>  <nHBDon>
1

>  <SLogP>
1.33

>  <TopoPSA>
12.03

>  <MMFF94 Energy>
32.485

$$$$
C#CCN(C)[C@H](C)Cc1ccccc1
Actelion Java MolfileCreator 2.0

  0  0  0  0  0  0              0 V3000
M  V30 BEGIN CTAB
M  V30 COUNTS 31 31 0 0 0
M  V30 BEGIN ATOM
M  V30 1 N 0.0779 -0.0779 -1.5605 0
M  V30 2 C 1.214 -0.409 -0.6489 0 CFG=1
M  V30 3 C -0.2937 -1.1934 -2.4519 0
M  V30 4 C 0.3879 1.1211 -2.3575 0
M  V30 5 C 1.4206 0.6318 0.4973 0
M  V30 6 C 1.1464 -1.8171 -0.0229 0
M  V30 7 C -1.5181 -0.9176 -3.2284 0
M  V30 8 C 0.3615 0.6653 1.5787 0
M  V30 9 C -2.5178 -0.7043 -3.8598 0
M  V30 10 C -0.9304 1.1353 1.3101 0
M  V30 11 C 0.6648 0.2379 2.8802 0
M  V30 12 C -1.8993 1.1689 2.315 0
M  V30 13 C -0.3042 0.2729 3.885 0
M  V30 14 C -1.5865 0.7379 3.6021 0
M  V30 15 H 2.1346 -0.3957 -1.2505 0
M  V30 16 H -0.522 -2.0902 -1.8664 0
M  V30 17 H 0.5333 -1.4447 -3.1273 0
M  V30 18 H 1.2576 0.9661 -3.0063 0
M  V30 19 H -0.4577 1.4202 -2.9859 0
M  V30 20 H 0.5824 1.9906 -1.7239 0
M  V30 21 H 2.3921 0.4186 0.9658 0
M  V30 22 H 1.5383 1.6466 0.1012 0
M  V30 23 H 1.9356 -1.9491 0.726 0
M  V30 24 H 1.3043 -2.5968 -0.7755 0
M  V30 25 H 0.1836 -1.9987 0.4666 0
M  V30 26 H -3.408 -0.5117 -4.4125 0
M  V30 27 H -1.1953 1.4727 0.3106 0
M  V30 28 H 1.6597 -0.1285 3.1217 0
M  V30 29 H -2.8991 1.53 2.089 0
M  V30 30 H -0.0579 -0.0632 4.8885 0
M  V30 31 H -2.3417 0.7637 4.3828 0
M  V30 END ATOM
M  V30 BEGIN BOND
M  V30 1 1 1 2
M  V30 2 1 1 3
M  V30 3 1 1 4
M  V30 4 1 2 5
M  V30 5 1 2 6
M  V30 6 1 3 7
M  V30 7 1 5 8
M  V30 8 3 7 9
M  V30 9 2 8 10
M  V30 10 1 8 11
M  V30 11 1 10 12
M  V30 12 2 11 13
M  V30 13 2 12 14
M  V30 14 1 13 14
M  V30 15 1 2 15
M  V30 16 1 3 16
M  V30 17 1 3 17
M  V30 18 1 4 18
M  V30 19 1 4 19
M  V30 20 1 4 20
M  V30 21 1 5 21
M  V30 22 1 5 22
M  V30 23 1 6 23
M  V30 24 1 6 24
M  V30 25 1 6 25
M  V30 26 1 9 26
M  V30 27 1 10 27
M  V30 28 1 11 28
M  V30 29 1 12 29
M  V30 30 1 13 30
M  V30 31 1 14 31
M  V30 END BOND
M  V30 BEGIN COLLECTION
M  V30 MDLV30/STEABS ATOMS=(1 2)
M  V30 END COLLECTION
M  V30 END CTAB
M  END
>  <NO.>
848

>  <Name>
selegiline

>  <SMILES>
C#CCN(C)[C@H](C)Cc1ccccc1

>  <logBB>
0.57

>  <Class>
1

>  <MW>
187.14

>  <nHBAcc>
1

>  <nHBDon>
0

>  <SLogP>
2.18

>  <TopoPSA>
3.24

>  <MMFF94 Energy>
42.104

$$$$
COC1=C2O[C@H]3C(=O)C=C[C@H]4[C@H]5CC(C=C1)C2[C@@]34CCN5C
Actelion Java MolfileCreator 2.0

  0  0  0  0  0  0              0 V3000
M  V30 BEGIN CTAB
M  V30 COUNTS 43 47 0 0 0
M  V30 BEGIN ATOM
M  V30 1 O -2.0356 -0.8138 3.34 0
M  V30 2 C -1.5499 -0.2176 2.3777 0
M  V30 3 C -0.826 1.049 2.6388 0
M  V30 4 C -1.6558 -0.7456 0.9403 0 CFG=2
M  V30 5 C -0.4469 1.8539 1.6402 0
M  V30 6 O -1.0787 -2.0758 0.9515 0
M  V30 7 C -0.9214 0.0704 -0.1337 0 CFG=1
M  V30 8 C -0.7355 1.5641 0.1949 0 CFG=2
M  V30 9 C 0.23 -1.8919 0.5716 0
M  V30 10 C 0.399 -0.6831 -0.277 0
M  V30 11 C -1.6439 0.0525 -1.5074 0
M  V30 12 C 0.3123 2.1182 -0.8182 0 CFG=2
M  V30 13 C 1.3233 -2.5986 0.9385 0
M  V30 14 C 1.6453 0.11 0.1094 0
M  V30 15 C -0.8253 0.7876 -2.5937 0
M  V30 16 N -0.2411 2.0822 -2.198 0
M  V30 17 C 1.6916 1.3686 -0.7645 0
M  V30 18 O 1.4092 -3.7217 1.7165 0
M  V30 19 C 2.6336 -2.1202 0.4819 0
M  V30 20 C 2.82 -0.8433 0.0797 0
M  V30 21 C -1.1748 3.1811 -2.4539 0
M  V30 22 C 0.2015 -4.23 2.2696 0
M  V30 23 H -0.6494 1.2929 3.6806 0
M  V30 24 H -2.7244 -0.8328 0.711 0
M  V30 25 H 0.0422 2.7953 1.8834 0
M  V30 26 H -1.6866 2.0899 0.0271 0
M  V30 27 H 0.5259 -1.0638 -1.3 0
M  V30 28 H -2.6285 0.5292 -1.4133 0
M  V30 29 H -1.8302 -0.9784 -1.8341 0
M  V30 30 H 0.5325 3.1659 -0.5707 0
M  V30 31 H 1.6009 0.4425 1.154 0
M  V30 32 H -0.0013 0.1459 -2.9254 0
M  V30 33 H -1.4474 0.9001 -3.4914 0
M  V30 34 H 2.0404 1.1195 -1.7754 0
M  V30 35 H 2.4489 2.0537 -0.3606 0
M  V30 36 H 3.4591 -2.8253 0.5116 0
M  V30 37 H 3.8026 -0.487 -0.2105 0
M  V30 38 H -2.1104 3.0861 -1.894 0
M  V30 39 H -1.4231 3.2269 -3.5204 0
M  V30 40 H -0.7188 4.1459 -2.2058 0
M  V30 41 H -0.2582 -3.5032 2.947 0
M  V30 42 H 0.4529 -5.1175 2.8585 0
M  V30 43 H -0.4927 -4.5412 1.4826 0
M  V30 END ATOM
M  V30 BEGIN BOND
M  V30 1 2 1 2
M  V30 2 1 2 3
M  V30 3 1 2 4
M  V30 4 2 3 5
M  V30 5 1 4 6
M  V30 6 1 4 7
M  V30 7 1 5 8
M  V30 8 1 6 9
M  V30 9 1 7 10
M  V30 10 1 7 11
M  V30 11 1 8 12
M  V30 12 2 9 13
M  V30 13 1 10 14
M  V30 14 1 11 15
M  V30 15 1 12 16
M  V30 16 1 12 17
M  V30 17 1 13 18
M  V30 18 1 13 19
M  V30 19 1 14 20
M  V30 20 1 16 21
M  V30 21 1 18 22
M  V30 22 1 7 8
M  V30 23 1 9 10
M  V30 24 1 14 17
M  V30 25 1 15 16
M  V30 26 2 19 20
M  V30 27 1 3 23
M  V30 28 1 4 24
M  V30 29 1 5 25
M  V30 30 1 8 26
M  V30 31 1 10 27
M  V30 32 1 11 28
M  V30 33 1 11 29
M  V30 34 1 12 30
M  V30 35 1 14 31
M  V30 36 1 15 32
M  V30 37 1 15 33
M  V30 38 1 17 34
M  V30 39 1 17 35
M  V30 40 1 19 36
M  V30 41 1 20 37
M  V30 42 1 21 38
M  V30 43 1 21 39
M  V30 44 1 21 40
M  V30 45 1 22 41
M  V30 46 1 22 42
M  V30 47 1 22 43
M  V30 END BOND
M  V30 BEGIN COLLECTION
M  V30 MDLV30/STEABS ATOMS=(4 4 7 8 12)
M  V30 END COLLECTION
M  V30 END CTAB
M  END
>  <NO.>
849

>  <Name>
oxycodone

>  <SMILES>
COC1=C2O[C@H]3C(=O)C=C[C@H]4[C@H]5CC(C=C1)C2[C@@]34CCN5C

>  <logBB>
0.57

>  <Class>
1

>  <MW>
299.15

>  <nHBAcc>
4

>  <nHBDon>
0

>  <SLogP>
1.89

>  <TopoPSA>
38.77

>  <MMFF94 Energy>
107.31

$$$$
COc1ccc2[nH]nc(NC3CCN(Cc4ccc5c(c4)OCO5)CC3)c2c1
Actelion Java MolfileCreator 2.0

  0  0  0  0  0  0              0 V3000
M  V30 BEGIN CTAB
M  V30 COUNTS 52 56 0 0 0
M  V30 BEGIN ATOM
M  V30 1 O 1.438 3.2778 -4.8798 0
M  V30 2 C 0.2744 2.774 -4.3874 0
M  V30 3 C 1.2554 3.0486 -6.2924 0
M  V30 4 C -0.546 2.2858 -5.3767 0
M  V30 5 C -0.0854 2.7357 -3.0564 0
M  V30 6 O -0.0021 2.4204 -6.6159 0
M  V30 7 C -1.7738 1.7305 -5.0922 0
M  V30 8 C -1.3296 2.1748 -2.7236 0
M  V30 9 C -2.1666 1.6772 -3.7513 0
M  V30 10 C -1.78 2.1136 -1.2775 0
M  V30 11 N -2.0535 0.7424 -0.8128 0
M  V30 12 C -2.7811 0.735 0.4637 0
M  V30 13 C -0.8498 -0.0989 -0.7365 0
M  V30 14 C -1.9203 1.1046 1.6717 0
M  V30 15 C 0.0764 0.2373 0.4321 0
M  V30 16 C -0.6895 0.1936 1.7553 0
M  V30 17 N 0.1569 0.6319 2.8438 0
M  V30 18 C 1.0494 -0.0942 3.5461 0
M  V30 19 N 1.7457 0.5054 4.5132 0
M  V30 20 C 1.4018 -1.4773 3.4238 0
M  V30 21 N 2.5219 -0.4621 5.0121 0
M  V30 22 C 2.3698 -1.6764 4.406 0
M  V30 23 C 1.0414 -2.5847 2.6197 0
M  V30 24 C 2.9954 -2.9034 4.6407 0
M  V30 25 C 1.6525 -3.8288 2.8292 0
M  V30 26 C 2.6139 -3.9751 3.8298 0
M  V30 27 O 1.3956 -4.9734 2.1216 0
M  V30 28 C 0.4317 -4.887 1.0798 0
M  V30 29 H 2.0695 2.4084 -6.6514 0
M  V30 30 H 1.3103 4.0115 -6.8134 0
M  V30 31 H 0.5842 3.1274 -2.2984 0
M  V30 32 H -2.4112 1.3463 -5.88 0
M  V30 33 H -3.1285 1.2367 -3.4933 0
M  V30 34 H -2.699 2.7129 -1.2211 0
M  V30 35 H -1.0517 2.6212 -0.634 0
M  V30 36 H -3.1956 -0.2702 0.6168 0
M  V30 37 H -3.652 1.4001 0.4113 0
M  V30 38 H -1.1735 -1.1438 -0.6374 0
M  V30 39 H -0.2844 -0.0689 -1.6747 0
M  V30 40 H -1.6186 2.1583 1.613 0
M  V30 41 H -2.5164 1.0078 2.5879 0
M  V30 42 H 0.5305 1.2256 0.2856 0
M  V30 43 H 0.9087 -0.4754 0.4469 0
M  V30 44 H -1.0623 -0.818 1.9475 0
M  V30 45 H 0.1158 1.6163 3.0885 0
M  V30 46 H 3.1454 -0.2286 5.7755 0
M  V30 47 H 0.2992 -2.4569 1.8463 0
M  V30 48 H 3.7457 -3.0278 5.4143 0
M  V30 49 H 3.0797 -4.947 3.9815 0
M  V30 50 H -0.5543 -4.6219 1.4754 0
M  V30 51 H 0.3498 -5.8755 0.6175 0
M  V30 52 H 0.7501 -4.1823 0.3044 0
M  V30 END ATOM
M  V30 BEGIN BOND
M  V30 1 1 1 2
M  V30 2 1 1 3
M  V30 3 2 2 4
M  V30 4 1 2 5
M  V30 5 1 3 6
M  V30 6 1 4 7
M  V30 7 2 5 8
M  V30 8 2 7 9
M  V30 9 1 8 10
M  V30 10 1 10 11
M  V30 11 1 11 12
M  V30 12 1 11 13
M  V30 13 1 12 14
M  V30 14 1 13 15
M  V30 15 1 14 16
M  V30 16 1 16 17
M  V30 17 1 17 18
M  V30 18 2 18 19
M  V30 19 1 18 20
M  V30 20 1 19 21
M  V30 21 2 20 22
M  V30 22 1 20 23
M  V30 23 1 22 24
M  V30 24 2 23 25
M  V30 25 2 24 26
M  V30 26 1 25 27
M  V30 27 1 27 28
M  V30 28 1 4 6
M  V30 29 1 8 9
M  V30 30 1 15 16
M  V30 31 1 21 22
M  V30 32 1 25 26
M  V30 33 1 3 29
M  V30 34 1 3 30
M  V30 35 1 5 31
M  V30 36 1 7 32
M  V30 37 1 9 33
M  V30 38 1 10 34
M  V30 39 1 10 35
M  V30 40 1 12 36
M  V30 41 1 12 37
M  V30 42 1 13 38
M  V30 43 1 13 39
M  V30 44 1 14 40
M  V30 45 1 14 41
M  V30 46 1 15 42
M  V30 47 1 15 43
M  V30 48 1 16 44
M  V30 49 1 17 45
M  V30 50 1 21 46
M  V30 51 1 23 47
M  V30 52 1 24 48
M  V30 53 1 26 49
M  V30 54 1 28 50
M  V30 55 1 28 51
M  V30 56 1 28 52
M  V30 END BOND
M  V30 END CTAB
M  END
>  <NO.>
850

>  <Name>
chembl371222

>  <SMILES>
COc1ccc2[nH]nc(NC3CCN(Cc4ccc5c(c4)OCO5)CC3)c2c1

>  <logBB>
0.57

>  <Class>
1

>  <MW>
380.18

>  <nHBAcc>
6

>  <nHBDon>
2

>  <SLogP>
3.38

>  <TopoPSA>
71.64

>  <MMFF94 Energy>
10.685

$$$$
Cc1ccn(CCCCN2CCN(c3cc(C(F)(F)F)nc(C(C)(C)C)n3)CC2)c(=O)c1
Actelion Java MolfileCreator 2.0

  0  0  0  0  0  0              0 V3000
M  V30 BEGIN CTAB
M  V30 COUNTS 64 66 0 0 0
M  V30 BEGIN ATOM
M  V30 1 F 3.8236 -2.5478 -5.8995 0
M  V30 2 C 3.5348 -1.2243 -6.0836 0
M  V30 3 F 3.3002 -1.085 -7.4189 0
M  V30 4 F 4.7027 -0.5626 -5.837 0
M  V30 5 C 2.3988 -0.7489 -5.1961 0
M  V30 6 N 1.4597 0.0831 -5.7041 0
M  V30 7 C 2.3785 -1.1513 -3.8704 0
M  V30 8 C 0.4945 0.4966 -4.8693 0
M  V30 9 C 1.3568 -0.6906 -3.0658 0
M  V30 10 N 0.4362 0.1496 -3.5704 0
M  V30 11 C -0.5476 1.4829 -5.3911 0
M  V30 12 N 1.2787 -1.0394 -1.7212 0
M  V30 13 C -0.7264 1.3526 -6.9164 0
M  V30 14 C -1.916 1.2289 -4.7291 0
M  V30 15 C -0.077 2.9078 -5.0582 0
M  V30 16 C 0.2382 -0.3509 -0.9356 0
M  V30 17 C 1.51 -2.4366 -1.326 0
M  V30 18 C 0.4573 -0.541 0.5833 0
M  V30 19 C 1.7026 -2.5592 0.2026 0
M  V30 20 N 0.5974 -1.9601 0.9837 0
M  V30 21 C 0.8583 -2.1112 2.4243 0
M  V30 22 C -0.33 -1.6927 3.3011 0
M  V30 23 C -0.0732 -2.0329 4.7733 0
M  V30 24 C -1.247 -1.6611 5.6866 0
M  V30 25 N -1.4598 -0.2178 5.7947 0
M  V30 26 C -2.5085 0.3662 5.0829 0
M  V30 27 C -0.6151 0.5302 6.5977 0
M  V30 28 O -3.2887 -0.2395 4.353 0
M  V30 29 C -2.6606 1.8395 5.2374 0
M  V30 30 C -0.7652 1.8539 6.7253 0
M  V30 31 C -1.8258 2.5409 6.0204 0
M  V30 32 C -1.9362 4.0224 6.2083 0
M  V30 33 H 3.1672 -1.7835 -3.484 0
M  V30 34 H -1.0231 0.3348 -7.1961 0
M  V30 35 H -1.499 2.0381 -7.2837 0
M  V30 36 H 0.1984 1.5882 -7.4559 0
M  V30 37 H -2.2582 0.2027 -4.9075 0
M  V30 38 H -1.879 1.3805 -3.6439 0
M  V30 39 H -2.6789 1.9094 -5.1248 0
M  V30 40 H 0.8918 3.1269 -5.5224 0
M  V30 41 H 0.0396 3.0493 -3.9771 0
M  V30 42 H -0.7944 3.6554 -5.4153 0
M  V30 43 H 0.2497 0.7288 -1.1325 0
M  V30 44 H -0.7512 -0.7379 -1.2127 0
M  V30 45 H 2.4049 -2.8543 -1.798 0
M  V30 46 H 0.655 -3.0491 -1.6401 0
M  V30 47 H 1.3507 0.0227 0.8842 0
M  V30 48 H -0.4018 -0.0876 1.0889 0
M  V30 49 H 2.6561 -2.0872 0.4768 0
M  V30 50 H 1.7855 -3.6257 0.4451 0
M  V30 51 H 1.7535 -1.5487 2.7205 0
M  V30 52 H 1.0652 -3.1693 2.631 0
M  V30 53 H -1.2397 -2.2034 2.9622 0
M  V30 54 H -0.5015 -0.6156 3.2073 0
M  V30 55 H 0.1032 -3.1116 4.8649 0
M  V30 56 H 0.8412 -1.5312 5.1116 0
M  V30 57 H -1.0629 -2.0504 6.6959 0
M  V30 58 H -2.1605 -2.1484 5.3269 0
M  V30 59 H 0.1742 -7.0E-4 7.1212 0
M  V30 60 H -3.4744 2.2902 4.6837 0
M  V30 61 H -0.0954 2.4265 7.3595 0
M  V30 62 H -2.1038 4.2657 7.263 0
M  V30 63 H -1.019 4.5219 5.8782 0
M  V30 64 H -2.7684 4.4447 5.6346 0
M  V30 END ATOM
M  V30 BEGIN BOND
M  V30 1 1 1 2
M  V30 2 1 2 3
M  V30 3 1 2 4
M  V30 4 1 2 5
M  V30 5 2 5 6
M  V30 6 1 5 7
M  V30 7 1 6 8
M  V30 8 2 7 9
M  V30 9 2 8 10
M  V30 10 1 8 11
M  V30 11 1 9 12
M  V30 12 1 11 13
M  V30 13 1 11 14
M  V30 14 1 11 15
M  V30 15 1 12 16
M  V30 16 1 12 17
M  V30 17 1 16 18
M  V30 18 1 17 19
M  V30 19 1 18 20
M  V30 20 1 20 21
M  V30 21 1 21 22
M  V30 22 1 22 23
M  V30 23 1 23 24
M  V30 24 1 24 25
M  V30 25 1 25 26
M  V30 26 1 25 27
M  V30 27 2 26 28
M  V30 28 1 26 29
M  V30 29 2 27 30
M  V30 30 2 29 31
M  V30 31 1 31 32
M  V30 32 1 9 10
M  V30 33 1 19 20
M  V30 34 1 30 31
M  V30 35 1 7 33
M  V30 36 1 13 34
M  V30 37 1 13 35
M  V30 38 1 13 36
M  V30 39 1 14 37
M  V30 40 1 14 38
M  V30 41 1 14 39
M  V30 42 1 15 40
M  V30 43 1 15 41
M  V30 44 1 15 42
M  V30 45 1 16 43
M  V30 46 1 16 44
M  V30 47 1 17 45
M  V30 48 1 17 46
M  V30 49 1 18 47
M  V30 50 1 18 48
M  V30 51 1 19 49
M  V30 52 1 19 50
M  V30 53 1 21 51
M  V30 54 1 21 52
M  V30 55 1 22 53
M  V30 56 1 22 54
M  V30 57 1 23 55
M  V30 58 1 23 56
M  V30 59 1 24 57
M  V30 60 1 24 58
M  V30 61 1 27 59
M  V30 62 1 29 60
M  V30 63 1 30 61
M  V30 64 1 32 62
M  V30 65 1 32 63
M  V30 66 1 32 64
M  V30 END BOND
M  V30 END CTAB
M  END
>  <NO.>
851

>  <Name>
chembl382773

>  <SMILES>
Cc1ccn(CCCCN2CCN(c3cc(C(F)(F)F)nc(C(C)(C)C)n3)CC2)c(=O)c1

>  <logBB>
0.57

>  <Class>
1

>  <MW>
451.26

>  <nHBAcc>
5

>  <nHBDon>
0

>  <SLogP>
3.87

>  <TopoPSA>
54.26

>  <MMFF94 Energy>
88.898

$$$$
Cc1nnc2n1C1CCC(Cl)CC1C(c1ccccc1Cl)=NC2
Actelion Java MolfileCreator 2.0

  0  0  0  0  0  0              0 V3000
M  V30 BEGIN CTAB
M  V30 COUNTS 41 44 0 0 0
M  V30 BEGIN ATOM
M  V30 1 Cl 0.9028 2.217 3.5325 0
M  V30 2 C 2.0196 1.8029 2.2835 0
M  V30 3 C 1.6006 1.3951 1.0135 0
M  V30 4 C 3.3855 1.8666 2.5667 0
M  V30 5 C 0.1673 1.3168 0.6605 0
M  V30 6 C 2.5353 1.0837 0.0193 0
M  V30 7 C 4.3218 1.5382 1.5826 0
M  V30 8 N -0.389 2.3948 0.2262 0
M  V30 9 C -0.5693 -0.0221 0.779 0
M  V30 10 C 3.8977 1.1519 0.3102 0
M  V30 11 C -1.791 2.3429 -0.1949 0
M  V30 12 C -0.8551 -0.6329 -0.6198 0
M  V30 13 C 0.137 -1.0529 1.682 0
M  V30 14 C -1.9459 1.531 -1.4292 0
M  V30 15 N -1.4729 0.252 -1.6055 0
M  V30 16 C -1.7174 -1.903 -0.4288 0
M  V30 17 C -0.7021 -2.32 1.8406 0
M  V30 18 N -2.5114 1.9351 -2.5475 0
M  V30 19 C -1.6427 -0.0145 -2.9505 0
M  V30 20 C -1.0454 -2.926 0.4847 0
M  V30 21 Cl 0.185 -3.5122 2.8275 0
M  V30 22 N -2.3201 0.9715 -3.4969 0
M  V30 23 C -1.1539 -1.2095 -3.6771 0
M  V30 24 H 3.7298 2.1778 3.5504 0
M  V30 25 H 2.2113 0.8112 -0.9818 0
M  V30 26 H 5.3851 1.5967 1.806 0
M  V30 27 H -1.5253 0.1959 1.2744 0
M  V30 28 H 4.6315 0.9174 -0.4579 0
M  V30 29 H -2.4505 1.9913 0.6055 0
M  V30 30 H -2.1086 3.3706 -0.4075 0
M  V30 31 H 0.1092 -0.9154 -1.0639 0
M  V30 32 H 1.1177 -1.3107 1.2616 0
M  V30 33 H 0.319 -0.6213 2.6728 0
M  V30 34 H -1.926 -2.3921 -1.3848 0
M  V30 35 H -2.6949 -1.6251 -0.0117 0
M  V30 36 H -1.6242 -2.086 2.3849 0
M  V30 37 H -1.7125 -3.7869 0.6147 0
M  V30 38 H -0.1376 -3.2986 -0.0075 0
M  V30 39 H -0.9431 -0.9528 -4.7205 0
M  V30 40 H -0.2314 -1.6069 -3.2454 0
M  V30 41 H -1.9142 -1.9959 -3.675 0
M  V30 END ATOM
M  V30 BEGIN BOND
M  V30 1 1 1 2
M  V30 2 2 2 3
M  V30 3 1 2 4
M  V30 4 1 3 5
M  V30 5 1 3 6
M  V30 6 2 4 7
M  V30 7 2 5 8
M  V30 8 1 5 9
M  V30 9 2 6 10
M  V30 10 1 8 11
M  V30 11 1 9 12
M  V30 12 1 9 13
M  V30 13 1 11 14
M  V30 14 1 12 15
M  V30 15 1 12 16
M  V30 16 1 13 17
M  V30 17 2 14 18
M  V30 18 1 15 19
M  V30 19 1 16 20
M  V30 20 1 17 21
M  V30 21 1 18 22
M  V30 22 1 19 23
M  V30 23 1 7 10
M  V30 24 1 14 15
M  V30 25 1 17 20
M  V30 26 2 19 22
M  V30 27 1 4 24
M  V30 28 1 6 25
M  V30 29 1 7 26
M  V30 30 1 9 27
M  V30 31 1 10 28
M  V30 32 1 11 29
M  V30 33 1 11 30
M  V30 34 1 12 31
M  V30 35 1 13 32
M  V30 36 1 13 33
M  V30 37 1 16 34
M  V30 38 1 16 35
M  V30 39 1 17 36
M  V30 40 1 20 37
M  V30 41 1 20 38
M  V30 42 1 23 39
M  V30 43 1 23 40
M  V30 44 1 23 41
M  V30 END BOND
M  V30 END CTAB
M  END
>  <NO.>
852

>  <Name>
triazolam

>  <SMILES>
Cc1nnc2n1C1CCC(Cl)CC1C(c1ccccc1Cl)=NC2

>  <logBB>
0.57

>  <Class>
1

>  <MW>
348.09

>  <nHBAcc>
3

>  <nHBDon>
0

>  <SLogP>
4.19

>  <TopoPSA>
43.07

>  <MMFF94 Energy>
60.471

$$$$
OC(CNCC(O)C1CCc2cc(F)ccc2O1)C1CCc2cc(F)ccc2O1
Actelion Java MolfileCreator 2.0

  0  0  0  0  0  0              0 V3000
M  V30 BEGIN CTAB
M  V30 COUNTS 54 57 0 0 0
M  V30 BEGIN ATOM
M  V30 1 F 5.1459 -6.4355 0.883 0
M  V30 2 C 4.9528 -5.1391 0.6065 0
M  V30 3 C 3.9194 -4.4518 1.236 0
M  V30 4 C 5.7891 -4.5013 -0.3011 0
M  V30 5 C 3.713 -3.094 0.9584 0
M  V30 6 C 5.583 -3.153 -0.5905 0
M  V30 7 C 4.5401 -2.4572 0.0255 0
M  V30 8 C 2.6021 -2.3477 1.6365 0
M  V30 9 O 4.4173 -1.1369 -0.3125 0
M  V30 10 C 2.7914 -0.8438 1.4858 0
M  V30 11 C 3.1484 -0.5321 0.0307 0
M  V30 12 C 3.3087 0.9789 -0.2476 0
M  V30 13 O 4.3764 1.5053 0.5603 0
M  V30 14 C 2.0497 1.8303 0.0084 0
M  V30 15 N 0.8763 1.383 -0.7466 0
M  V30 16 C -0.2486 2.321 -0.5812 0
M  V30 17 C -1.5338 1.6975 -1.1618 0
M  V30 18 O -1.8143 0.4939 -0.4283 0
M  V30 19 C -2.7282 2.6854 -1.1523 0
M  V30 20 O -3.8275 2.1093 -1.8867 0
M  V30 21 C -3.1632 3.2448 0.2045 0
M  V30 22 C -4.7977 1.4629 -1.1732 0
M  V30 23 C -3.8679 2.2008 1.0518 0
M  V30 24 C -4.8762 1.4633 0.2235 0
M  V30 25 C -5.7464 0.7741 -1.9343 0
M  V30 26 C -5.8986 0.7368 0.8495 0
M  V30 27 C -6.7684 0.0642 -1.3055 0
M  V30 28 C -6.8329 0.0492 0.0816 0
M  V30 29 F -7.8092 -0.6369 0.6898 0
M  V30 30 H 3.2879 -4.9816 1.9431 0
M  V30 31 H 6.5914 -5.0553 -0.777 0
M  V30 32 H 6.2294 -2.6448 -1.3011 0
M  V30 33 H 1.6501 -2.6491 1.1826 0
M  V30 34 H 2.5638 -2.6026 2.7019 0
M  V30 35 H 3.6032 -0.5186 2.1494 0
M  V30 36 H 1.8761 -0.3336 1.8014 0
M  V30 37 H 2.3895 -0.9418 -0.6489 0
M  V30 38 H 3.6245 1.113 -1.2901 0
M  V30 39 H 5.1289 0.8974 0.4247 0
M  V30 40 H 1.8296 1.8552 1.083 0
M  V30 41 H 2.2916 2.8661 -0.2654 0
M  V30 42 H 0.5491 0.4786 -0.394 0
M  V30 43 H -0.0222 3.2649 -1.0887 0
M  V30 44 H -0.3918 2.5149 0.488 0
M  V30 45 H -1.351 1.3874 -2.199 0
M  V30 46 H -2.5786 0.0808 -0.8722 0
M  V30 47 H -2.4152 3.5486 -1.7548 0
M  V30 48 H -3.8725 4.0639 0.0187 0
M  V30 49 H -2.3243 3.683 0.754 0
M  V30 50 H -3.1497 1.49 1.4737 0
M  V30 51 H -4.3642 2.7013 1.892 0
M  V30 52 H -5.6854 0.7889 -3.0196 0
M  V30 53 H -5.98 0.7035 1.9322 0
M  V30 54 H -7.5091 -0.4757 -1.8861 0
M  V30 END ATOM
M  V30 BEGIN BOND
M  V30 1 1 1 2
M  V30 2 2 2 3
M  V30 3 1 2 4
M  V30 4 1 3 5
M  V30 5 2 4 6
M  V30 6 2 5 7
M  V30 7 1 5 8
M  V30 8 1 7 9
M  V30 9 1 8 10
M  V30 10 1 9 11
M  V30 11 1 11 12
M  V30 12 1 12 13
M  V30 13 1 12 14
M  V30 14 1 14 15
M  V30 15 1 15 16
M  V30 16 1 16 17
M  V30 17 1 17 18
M  V30 18 1 17 19
M  V30 19 1 19 20
M  V30 20 1 19 21
M  V30 21 1 20 22
M  V30 22 1 21 23
M  V30 23 2 22 24
M  V30 24 1 22 25
M  V30 25 1 24 26
M  V30 26 2 25 27
M  V30 27 2 26 28
M  V30 28 1 28 29
M  V30 29 1 6 7
M  V30 30 1 10 11
M  V30 31 1 23 24
M  V30 32 1 27 28
M  V30 33 1 3 30
M  V30 34 1 4 31
M  V30 35 1 6 32
M  V30 36 1 8 33
M  V30 37 1 8 34
M  V30 38 1 10 35
M  V30 39 1 10 36
M  V30 40 1 11 37
M  V30 41 1 12 38
M  V30 42 1 13 39
M  V30 43 1 14 40
M  V30 44 1 14 41
M  V30 45 1 15 42
M  V30 46 1 16 43
M  V30 47 1 16 44
M  V30 48 1 17 45
M  V30 49 1 18 46
M  V30 50 1 19 47
M  V30 51 1 21 48
M  V30 52 1 21 49
M  V30 53 1 23 50
M  V30 54 1 23 51
M  V30 55 1 25 52
M  V30 56 1 26 53
M  V30 57 1 27 54
M  V30 END BOND
M  V30 END CTAB
M  END
>  <NO.>
853

>  <Name>
nebivolol

>  <SMILES>
OC(CNCC(O)C1CCc2cc(F)ccc2O1)C1CCc2cc(F)ccc2O1

>  <logBB>
0.57

>  <Class>
1

>  <MW>
405.18

>  <nHBAcc>
5

>  <nHBDon>
3

>  <SLogP>
2.36

>  <TopoPSA>
70.95

>  <MMFF94 Energy>
102.35

$$$$
Brc1cc(Br)c(NC2=NCCN2)c(Br)c1
Actelion Java MolfileCreator 2.0

  0  0  0  0  0  0              0 V3000
M  V30 BEGIN CTAB
M  V30 COUNTS 23 24 0 0 0
M  V30 BEGIN ATOM
M  V30 1 Br 1.9509 1.9509 0.2543 0
M  V30 2 C 0.2192 1.6191 0.9767 0
M  V30 3 C -0.2635 0.3178 1.2212 0
M  V30 4 C -0.5244 2.7502 1.3397 0
M  V30 5 N 0.4133 -0.85 0.829 0
M  V30 6 C -1.5113 0.205 1.8734 0
M  V30 7 C -1.7589 2.5978 1.9621 0
M  V30 8 C 0.8126 -1.2519 -0.3983 0
M  V30 9 Br -2.2556 -1.5002 2.2834 0
M  V30 10 C -2.2564 1.3306 2.2389 0
M  V30 11 Br -2.7579 4.1257 2.4514 0
M  V30 12 N 1.4072 -2.3979 -0.6031 0
M  V30 13 N 0.5569 -0.5078 -1.4953 0
M  V30 14 C 1.6177 -2.453 -2.0801 0
M  V30 15 C 1.1384 -1.1146 -2.6554 0
M  V30 16 H -0.1321 3.7472 1.1515 0
M  V30 17 H 0.4472 -1.5879 1.5227 0
M  V30 18 H -3.2178 1.216 2.7337 0
M  V30 19 H 0.2945 0.4636 -1.4652 0
M  V30 20 H 1.0408 -3.2869 -2.4941 0
M  V30 21 H 2.6764 -2.6221 -2.3008 0
M  V30 22 H 1.9773 -0.52 -3.0296 0
M  V30 23 H 0.4062 -1.2536 -3.4556 0
M  V30 END ATOM
M  V30 BEGIN BOND
M  V30 1 1 1 2
M  V30 2 2 2 3
M  V30 3 1 2 4
M  V30 4 1 3 5
M  V30 5 1 3 6
M  V30 6 2 4 7
M  V30 7 1 5 8
M  V30 8 1 6 9
M  V30 9 2 6 10
M  V30 10 1 7 11
M  V30 11 2 8 12
M  V30 12 1 8 13
M  V30 13 1 12 14
M  V30 14 1 13 15
M  V30 15 1 7 10
M  V30 16 1 14 15
M  V30 17 1 4 16
M  V30 18 1 5 17
M  V30 19 1 10 18
M  V30 20 1 13 19
M  V30 21 1 14 20
M  V30 22 1 14 21
M  V30 23 1 15 22
M  V30 24 1 15 23
M  V30 END BOND
M  V30 END CTAB
M  END
>  <NO.>
854

>  <Name>
tz-19

>  <SMILES>
Brc1cc(Br)c(NC2=NCCN2)c(Br)c1

>  <logBB>
0.58

>  <Class>
1

>  <MW>
394.83

>  <nHBAcc>
3

>  <nHBDon>
2

>  <SLogP>
3.35

>  <TopoPSA>
36.42

>  <MMFF94 Energy>
-26.645

$$$$
CC(CF)NC[C@H](O)COc1cccc2[nH]c3ccccc3c12
Actelion Java MolfileCreator 2.0

  0  0  0  0  0  0              0 V3000
M  V30 BEGIN CTAB
M  V30 COUNTS 44 46 0 0 0
M  V30 BEGIN ATOM
M  V30 1 F -3.7322 -2.1427 4.0503 0
M  V30 2 C -2.7978 -1.4248 3.3679 0
M  V30 3 C -3.4729 -0.6974 2.1912 0
M  V30 4 N -2.4513 -0.0525 1.3382 0
M  V30 5 C -4.4833 0.3131 2.7439 0
M  V30 6 C -2.9991 0.4253 0.0594 0
M  V30 7 C -1.9529 1.1236 -0.8314 0 CFG=2
M  V30 8 O -2.6279 1.6864 -1.9688 0
M  V30 9 C -0.8586 0.1755 -1.3336 0
M  V30 10 O 0.0674 0.9601 -2.1107 0
M  V30 11 C 1.1279 0.1661 -2.4957 0
M  V30 12 C 2.2741 0.0077 -1.6834 0
M  V30 13 C 1.0664 -0.4436 -3.7537 0
M  V30 14 C 3.299 -0.8132 -2.1574 0
M  V30 15 C 2.6876 0.5078 -0.404 0
M  V30 16 C 2.1123 -1.2493 -4.1947 0
M  V30 17 N 4.2821 -0.8292 -1.1966 0
M  V30 18 C 3.245 -1.4563 -3.4013 0
M  V30 19 C 3.9382 -0.042 -0.1239 0
M  V30 20 C 2.114 1.3805 0.5453 0
M  V30 21 C 4.6387 0.2253 1.0586 0
M  V30 22 C 2.7993 1.6592 1.7332 0
M  V30 23 C 4.043 1.0865 1.9844 0
M  V30 24 H -2.0401 -2.1318 3.0155 0
M  V30 25 H -2.327 -0.7259 4.067 0
M  V30 26 H -4.0174 -1.4529 1.6109 0
M  V30 27 H -1.7128 -0.7309 1.1507 0
M  V30 28 H -5.1705 -0.17 3.4472 0
M  V30 29 H -3.9804 1.1282 3.2762 0
M  V30 30 H -5.097 0.751 1.9512 0
M  V30 31 H -3.8051 1.1465 0.2349 0
M  V30 32 H -3.447 -0.4076 -0.4973 0
M  V30 33 H -1.5023 1.9649 -0.2912 0
M  V30 34 H -1.9227 2.0558 -2.5347 0
M  V30 35 H -0.3423 -0.2995 -0.4926 0
M  V30 36 H -1.3008 -0.5942 -1.9785 0
M  V30 37 H 0.1967 -0.2895 -4.3865 0
M  V30 38 H 2.0493 -1.7232 -5.1718 0
M  V30 39 H 5.147 -1.3434 -1.2722 0
M  V30 40 H 4.0578 -2.0857 -3.7501 0
M  V30 41 H 1.1502 1.8428 0.3553 0
M  V30 42 H 5.6115 -0.2133 1.2552 0
M  V30 43 H 2.3561 2.3332 2.4622 0
M  V30 44 H 4.5623 1.3169 2.912 0
M  V30 END ATOM
M  V30 BEGIN BOND
M  V30 1 1 1 2
M  V30 2 1 2 3
M  V30 3 1 3 4
M  V30 4 1 3 5
M  V30 5 1 4 6
M  V30 6 1 6 7
M  V30 7 1 7 8
M  V30 8 1 7 9
M  V30 9 1 9 10
M  V30 10 1 10 11
M  V30 11 2 11 12
M  V30 12 1 11 13
M  V30 13 1 12 14
M  V30 14 1 12 15
M  V30 15 2 13 16
M  V30 16 1 14 17
M  V30 17 2 14 18
M  V30 18 2 15 19
M  V30 19 1 15 20
M  V30 20 1 19 21
M  V30 21 2 20 22
M  V30 22 2 21 23
M  V30 23 1 16 18
M  V30 24 1 17 19
M  V30 25 1 22 23
M  V30 26 1 2 24
M  V30 27 1 2 25
M  V30 28 1 3 26
M  V30 29 1 4 27
M  V30 30 1 5 28
M  V30 31 1 5 29
M  V30 32 1 5 30
M  V30 33 1 6 31
M  V30 34 1 6 32
M  V30 35 1 7 33
M  V30 36 1 8 34
M  V30 37 1 9 35
M  V30 38 1 9 36
M  V30 39 1 13 37
M  V30 40 1 16 38
M  V30 41 1 17 39
M  V30 42 1 18 40
M  V30 43 1 20 41
M  V30 44 1 21 42
M  V30 45 1 22 43
M  V30 46 1 23 44
M  V30 END BOND
M  V30 BEGIN COLLECTION
M  V30 MDLV30/STEABS ATOMS=(1 7)
M  V30 END COLLECTION
M  V30 END CTAB
M  END
>  <NO.>
855

>  <Name>
(s)-flurocarazolol

>  <SMILES>
CC(CF)NC[C@H](O)COc1cccc2[nH]c3ccccc3c12

>  <logBB>
0.58

>  <Class>
1

>  <MW>
316.16

>  <nHBAcc>
3

>  <nHBDon>
3

>  <SLogP>
3.01

>  <TopoPSA>
57.28

>  <MMFF94 Energy>
98.806

$$$$
CN(c1nc2ccccc2s1)C1CCN(CC(O)COc2ccc(F)c(F)c2)CC1
Actelion Java MolfileCreator 2.0

  0  0  0  0  0  0              0 V3000
M  V30 BEGIN CTAB
M  V30 COUNTS 55 58 0 0 0
M  V30 BEGIN ATOM
M  V30 1 S 2.3452 1.6169 -5.1001 0
M  V30 2 C 1.4905 0.782 -3.8379 0
M  V30 3 C 2.0036 3.1326 -4.375 0
M  V30 4 N 0.9763 1.5946 -2.9401 0
M  V30 5 N 1.3672 -0.5836 -3.7882 0
M  V30 6 C 1.2592 2.9171 -3.22 0
M  V30 7 C 2.3677 4.4231 -4.7948 0
M  V30 8 C 0.6801 -1.2503 -2.666 0
M  V30 9 C 1.9887 -1.4279 -4.7979 0
M  V30 10 C 0.863 4.0287 -2.449 0
M  V30 11 C 1.9626 5.511 -4.015 0
M  V30 12 C 1.3938 -1.0407 -1.3262 0
M  V30 13 C -0.8092 -0.8978 -2.5928 0
M  V30 14 C 1.2193 5.3189 -2.8547 0
M  V30 15 C 0.6238 -1.7344 -0.2003 0
M  V30 16 C -1.4657 -1.6002 -1.4031 0
M  V30 17 N -0.7991 -1.3611 -0.1107 0
M  V30 18 C -1.0085 0.0311 0.3527 0
M  V30 19 C -0.657 0.3132 1.8318 0 CFG=2
M  V30 20 O 0.7575 0.4743 2.0044 0
M  V30 21 C -1.1879 -0.7644 2.7854 0
M  V30 22 O -0.972 -0.2963 4.1266 0
M  V30 23 C -1.3921 -1.109 5.143 0
M  V30 24 C -1.1986 -0.5851 6.4245 0
M  V30 25 C -1.9728 -2.3734 4.9961 0
M  V30 26 C -1.5844 -1.3185 7.5416 0
M  V30 27 C -2.3582 -3.1057 6.1246 0
M  V30 28 F -1.3944 -0.8038 8.7644 0
M  V30 29 C -2.1614 -2.5721 7.393 0
M  V30 30 F -2.5331 -3.2784 8.4691 0
M  V30 31 H 2.9491 4.573 -5.6991 0
M  V30 32 H 0.7126 -2.3338 -2.8487 0
M  V30 33 H 3.0799 -1.3363 -4.7626 0
M  V30 34 H 1.7529 -2.4878 -4.6544 0
M  V30 35 H 1.6358 -1.1672 -5.8018 0
M  V30 36 H 0.2857 3.8708 -1.5437 0
M  V30 37 H 2.2343 6.5194 -4.3201 0
M  V30 38 H 1.5154 0.0198 -1.0869 0
M  V30 39 H 2.4078 -1.4558 -1.382 0
M  V30 40 H -1.3072 -1.209 -3.5194 0
M  V30 41 H -0.9736 0.1805 -2.5094 0
M  V30 42 H 0.9132 6.1739 -2.2567 0
M  V30 43 H 1.1361 -1.5787 0.7534 0
M  V30 44 H 0.6749 -2.82 -0.3608 0
M  V30 45 H -1.4754 -2.6823 -1.5892 0
M  V30 46 H -2.5226 -1.3125 -1.3421 0
M  V30 47 H -0.4753 0.7467 -0.2828 0
M  V30 48 H -2.0788 0.2559 0.2519 0
M  V30 49 H -1.0958 1.2801 2.1079 0
M  V30 50 H 0.9046 0.5286 2.9669 0
M  V30 51 H -2.2594 -0.9186 2.6131 0
M  V30 52 H -0.6295 -1.6968 2.645 0
M  V30 53 H -0.7492 0.3936 6.5594 0
M  V30 54 H -2.1369 -2.8191 4.0196 0
M  V30 55 H -2.809 -4.0878 6.0202 0
M  V30 END ATOM
M  V30 BEGIN BOND
M  V30 1 1 1 2
M  V30 2 1 1 3
M  V30 3 2 2 4
M  V30 4 1 2 5
M  V30 5 2 3 6
M  V30 6 1 3 7
M  V30 7 1 5 8
M  V30 8 1 5 9
M  V30 9 1 6 10
M  V30 10 2 7 11
M  V30 11 1 8 12
M  V30 12 1 8 13
M  V30 13 2 10 14
M  V30 14 1 12 15
M  V30 15 1 13 16
M  V30 16 1 15 17
M  V30 17 1 17 18
M  V30 18 1 18 19
M  V30 19 1 19 20
M  V30 20 1 19 21
M  V30 21 1 21 22
M  V30 22 1 22 23
M  V30 23 2 23 24
M  V30 24 1 23 25
M  V30 25 1 24 26
M  V30 26 2 25 27
M  V30 27 1 26 28
M  V30 28 2 26 29
M  V30 29 1 29 30
M  V30 30 1 4 6
M  V30 31 1 11 14
M  V30 32 1 16 17
M  V30 33 1 27 29
M  V30 34 1 7 31
M  V30 35 1 8 32
M  V30 36 1 9 33
M  V30 37 1 9 34
M  V30 38 1 9 35
M  V30 39 1 10 36
M  V30 40 1 11 37
M  V30 41 1 12 38
M  V30 42 1 12 39
M  V30 43 1 13 40
M  V30 44 1 13 41
M  V30 45 1 14 42
M  V30 46 1 15 43
M  V30 47 1 15 44
M  V30 48 1 16 45
M  V30 49 1 16 46
M  V30 50 1 18 47
M  V30 51 1 18 48
M  V30 52 1 19 49
M  V30 53 1 20 50
M  V30 54 1 21 51
M  V30 55 1 21 52
M  V30 56 1 24 53
M  V30 57 1 25 54
M  V30 58 1 27 55
M  V30 END BOND
M  V30 BEGIN COLLECTION
M  V30 MDLV30/STERAC1 ATOMS=(1 19)
M  V30 END COLLECTION
M  V30 END CTAB
M  END
>  <NO.>
856

>  <Name>
lubeluzole

>  <SMILES>
CN(c1nc2ccccc2s1)C1CCN(CC(O)COc2ccc(F)c(F)c2)CC1

>  <logBB>
0.59

>  <Class>
1

>  <MW>
433.16

>  <nHBAcc>
6

>  <nHBDon>
1

>  <SLogP>
3.92

>  <TopoPSA>
48.83

>  <MMFF94 Energy>
56.207

$$$$
CCC(=O)N(c1ccccc1)C1CCN(CCc2ccccc2)CC1
Actelion Java MolfileCreator 2.0

  0  0  0  0  0  0              0 V3000
M  V30 BEGIN CTAB
M  V30 COUNTS 53 55 0 0 0
M  V30 BEGIN ATOM
M  V30 1 O 1.5024 -2.6105 -2.373 0
M  V30 2 C 1.6691 -1.3894 -2.4187 0
M  V30 3 N 1.6303 -0.5921 -1.2694 0
M  V30 4 C 1.9298 -0.6805 -3.7448 0
M  V30 5 C 1.7318 0.8173 -1.3303 0
M  V30 6 C 1.3354 -1.23 0.0331 0
M  V30 7 C 1.9621 -1.6436 -4.9206 0
M  V30 8 C 2.9896 1.4223 -1.254 0
M  V30 9 C 0.5838 1.6018 -1.4688 0
M  V30 10 C 2.0261 -0.5827 1.2453 0
M  V30 11 C -0.1769 -1.3595 0.2678 0
M  V30 12 C 3.0968 2.8121 -1.3101 0
M  V30 13 C 0.6949 2.9914 -1.5242 0
M  V30 14 C 1.6257 -1.2854 2.546 0
M  V30 15 C -0.4597 -2.0361 1.6069 0
M  V30 16 C 1.95 3.5954 -1.4441 0
M  V30 17 N 0.1699 -1.3696 2.754 0
M  V30 18 C -0.4036 -0.0499 3.0919 0
M  V30 19 C -1.8928 -0.0501 3.5033 0
M  V30 20 C -2.8672 0.2666 2.3897 0
M  V30 21 C -2.7988 1.4856 1.6985 0
M  V30 22 C -3.8814 -0.6406 2.0542 0
M  V30 23 C -3.7038 1.7754 0.6758 0
M  V30 24 C -4.7856 -0.3501 1.031 0
M  V30 25 C -4.6947 0.856 0.3399 0
M  V30 26 H 2.8925 -0.1622 -3.6889 0
M  V30 27 H 1.14 0.0576 -3.9178 0
M  V30 28 H 1.7323 -2.2533 -0.0284 0
M  V30 29 H 2.1522 -1.101 -5.8517 0
M  V30 30 H 1.0087 -2.1727 -5.0218 0
M  V30 31 H 2.7508 -2.3924 -4.794 0
M  V30 32 H 3.8853 0.8161 -1.1483 0
M  V30 33 H -0.3972 1.1402 -1.5409 0
M  V30 34 H 1.78 0.4821 1.3206 0
M  V30 35 H 3.1147 -0.6412 1.124 0
M  V30 36 H -0.6328 -1.9476 -0.5377 0
M  V30 37 H -0.6586 -0.3772 0.2388 0
M  V30 38 H 4.0738 3.2846 -1.2495 0
M  V30 39 H -0.1971 3.6031 -1.6326 0
M  V30 40 H 2.1023 -0.7847 3.3978 0
M  V30 41 H 2.0362 -2.3038 2.5436 0
M  V30 42 H -0.0872 -3.0687 1.5647 0
M  V30 43 H -1.5365 -2.1449 1.7571 0
M  V30 44 H 2.0349 4.6786 -1.4885 0
M  V30 45 H -0.2195 0.6853 2.3019 0
M  V30 46 H 0.1448 0.3098 3.9731 0
M  V30 47 H -2.1488 -1.0017 3.9863 0
M  V30 48 H -2.0402 0.7153 4.2775 0
M  V30 49 H -2.0404 2.2222 1.954 0
M  V30 50 H -3.9696 -1.5863 2.5849 0
M  V30 51 H -3.639 2.7218 0.1456 0
M  V30 52 H -5.5627 -1.0658 0.7755 0
M  V30 53 H -5.4007 1.0815 -0.4546 0
M  V30 END ATOM
M  V30 BEGIN BOND
M  V30 1 2 1 2
M  V30 2 1 2 3
M  V30 3 1 2 4
M  V30 4 1 3 5
M  V30 5 1 3 6
M  V30 6 1 4 7
M  V30 7 2 5 8
M  V30 8 1 5 9
M  V30 9 1 6 10
M  V30 10 1 6 11
M  V30 11 1 8 12
M  V30 12 2 9 13
M  V30 13 1 10 14
M  V30 14 1 11 15
M  V30 15 2 12 16
M  V30 16 1 14 17
M  V30 17 1 17 18
M  V30 18 1 18 19
M  V30 19 1 19 20
M  V30 20 2 20 21
M  V30 21 1 20 22
M  V30 22 1 21 23
M  V30 23 2 22 24
M  V30 24 2 23 25
M  V30 25 1 13 16
M  V30 26 1 15 17
M  V30 27 1 24 25
M  V30 28 1 4 26
M  V30 29 1 4 27
M  V30 30 1 6 28
M  V30 31 1 7 29
M  V30 32 1 7 30
M  V30 33 1 7 31
M  V30 34 1 8 32
M  V30 35 1 9 33
M  V30 36 1 10 34
M  V30 37 1 10 35
M  V30 38 1 11 36
M  V30 39 1 11 37
M  V30 40 1 12 38
M  V30 41 1 13 39
M  V30 42 1 14 40
M  V30 43 1 14 41
M  V30 44 1 15 42
M  V30 45 1 15 43
M  V30 46 1 16 44
M  V30 47 1 18 45
M  V30 48 1 18 46
M  V30 49 1 19 47
M  V30 50 1 19 48
M  V30 51 1 21 49
M  V30 52 1 22 50
M  V30 53 1 23 51
M  V30 54 1 24 52
M  V30 55 1 25 53
M  V30 END BOND
M  V30 END CTAB
M  END
>  <NO.>
859

>  <Name>
fentanyl

>  <SMILES>
CCC(=O)N(c1ccccc1)C1CCN(CCc2ccccc2)CC1

>  <logBB>
0.6

>  <Class>
1

>  <MW>
336.22

>  <nHBAcc>
2

>  <nHBDon>
0

>  <SLogP>
4.14

>  <TopoPSA>
23.55

>  <MMFF94 Energy>
46.477

$$$$
O=C1Nc2ccc(Cl)cc2C(c2ccccc2)=NC1O
Actelion Java MolfileCreator 2.0

  0  0  0  0  0  0              0 V3000
M  V30 BEGIN CTAB
M  V30 COUNTS 31 33 0 0 0
M  V30 BEGIN ATOM
M  V30 1 Cl -3.3431 0.1628 -3.1798 0
M  V30 2 C -2.2149 -0.6801 -2.1932 0
M  V30 3 C -1.2255 0.0277 -1.5145 0
M  V30 4 C -2.3036 -2.0639 -2.0705 0
M  V30 5 C -0.3096 -0.6549 -0.6981 0
M  V30 6 C -1.3819 -2.751 -1.2777 0
M  V30 7 C 0.6836 0.1471 0.081 0
M  V30 8 C -0.3672 -2.0565 -0.6082 0
M  V30 9 N 1.9374 -0.1421 0.1926 0
M  V30 10 C 0.2063 1.376 0.7926 0
M  V30 11 N 0.538 -2.8236 0.136 0
M  V30 12 C 2.4588 -1.3347 -0.4634 0 CFG=2
M  V30 13 C -1.0442 1.4119 1.4227 0
M  V30 14 C 1.0458 2.4949 0.8503 0
M  V30 15 C 1.8809 -2.5698 0.2833 0
M  V30 16 O 3.8756 -1.3713 -0.4601 0
M  V30 17 C -1.4602 2.5722 2.0794 0
M  V30 18 C 0.6255 3.6519 1.508 0
M  V30 19 O 2.5665 -3.3295 0.971 0
M  V30 20 C -0.628 3.6911 2.118 0
M  V30 21 H -1.1735 1.1092 -1.6218 0
M  V30 22 H -3.0794 -2.6151 -2.5971 0
M  V30 23 H -1.4515 -3.8349 -1.2103 0
M  V30 24 H 0.2336 -3.692 0.559 0
M  V30 25 H 2.162 -1.378 -1.5174 0
M  V30 26 H -1.6973 0.5438 1.4279 0
M  V30 27 H 2.0285 2.4688 0.3839 0
M  V30 28 H 4.1035 -1.327 0.485 0
M  V30 29 H -2.4303 2.6019 2.5701 0
M  V30 30 H 1.2791 4.5198 1.5491 0
M  V30 31 H -0.9519 4.5921 2.6338 0
M  V30 END ATOM
M  V30 BEGIN BOND
M  V30 1 1 1 2
M  V30 2 2 2 3
M  V30 3 1 2 4
M  V30 4 1 3 5
M  V30 5 2 4 6
M  V30 6 1 5 7
M  V30 7 2 5 8
M  V30 8 2 7 9
M  V30 9 1 7 10
M  V30 10 1 8 11
M  V30 11 1 9 12
M  V30 12 2 10 13
M  V30 13 1 10 14
M  V30 14 1 11 15
M  V30 15 1 12 16
M  V30 16 1 13 17
M  V30 17 2 14 18
M  V30 18 2 15 19
M  V30 19 2 17 20
M  V30 20 1 6 8
M  V30 21 1 12 15
M  V30 22 1 18 20
M  V30 23 1 3 21
M  V30 24 1 4 22
M  V30 25 1 6 23
M  V30 26 1 11 24
M  V30 27 1 12 25
M  V30 28 1 13 26
M  V30 29 1 14 27
M  V30 30 1 16 28
M  V30 31 1 17 29
M  V30 32 1 18 30
M  V30 33 1 20 31
M  V30 END BOND
M  V30 BEGIN COLLECTION
M  V30 MDLV30/STERAC1 ATOMS=(1 12)
M  V30 END COLLECTION
M  V30 END CTAB
M  END
>  <NO.>
861

>  <Name>
604-75-1

>  <SMILES>
O=C1Nc2ccc(Cl)cc2C(c2ccccc2)=NC1O

>  <logBB>
0.6

>  <Class>
1

>  <MW>
286.05

>  <nHBAcc>
3

>  <nHBDon>
2

>  <SLogP>
2.45

>  <TopoPSA>
61.69

>  <MMFF94 Energy>
95.771

$$$$
CNCCCN1c2ccccc2Sc2ccccc21
Actelion Java MolfileCreator 2.0

  0  0  0  0  0  0              0 V3000
M  V30 BEGIN CTAB
M  V30 COUNTS 37 39 0 0 0
M  V30 BEGIN ATOM
M  V30 1 S 0.161 -2.6603 -0.725 0
M  V30 2 C -1.144 -1.9802 0.2779 0
M  V30 3 C 1.5999 -1.8598 -0.0443 0
M  V30 4 C -0.9669 -0.8545 1.1069 0
M  V30 5 C -2.3918 -2.6246 0.1995 0
M  V30 6 C 1.5236 -0.7357 0.8023 0
M  V30 7 C 2.8465 -2.392 -0.4191 0
M  V30 8 N 0.2743 -0.17 1.1742 0
M  V30 9 C -2.0655 -0.468 1.9024 0
M  V30 10 C -3.4689 -2.1916 0.9667 0
M  V30 11 C 2.7415 -0.2117 1.284 0
M  V30 12 C 4.0314 -1.839 0.0568 0
M  V30 13 C 0.2286 1.3014 1.344 0
M  V30 14 C -3.3015 -1.119 1.8295 0
M  V30 15 C 3.9782 -0.7512 0.9153 0
M  V30 16 C 0.5349 2.0741 0.0506 0
M  V30 17 C -0.4788 1.7964 -1.0606 0
M  V30 18 N -0.2305 2.6962 -2.1922 0
M  V30 19 C -1.1419 2.4072 -3.2918 0
M  V30 20 H -2.5253 -3.4819 -0.4568 0
M  V30 21 H 2.8979 -3.2498 -1.0861 0
M  V30 22 H -1.9716 0.3297 2.6333 0
M  V30 23 H -4.4251 -2.7037 0.9044 0
M  V30 24 H 2.7556 0.6219 1.9785 0
M  V30 25 H 4.9881 -2.2618 -0.2364 0
M  V30 26 H 0.9232 1.6144 2.1319 0
M  V30 27 H -0.7425 1.6594 1.6992 0
M  V30 28 H -4.1252 -0.7915 2.4585 0
M  V30 29 H 4.8961 -0.3192 1.3055 0
M  V30 30 H 1.546 1.8509 -0.3089 0
M  V30 31 H 0.5244 3.1446 0.2946 0
M  V30 32 H -1.4971 1.9455 -0.6822 0
M  V30 33 H -0.3845 0.7572 -1.3931 0
M  V30 34 H -0.357 3.6631 -1.8964 0
M  V30 35 H -2.1865 2.5453 -2.9942 0
M  V30 36 H -1.006 1.3857 -3.6611 0
M  V30 37 H -0.9359 3.0876 -4.1237 0
M  V30 END ATOM
M  V30 BEGIN BOND
M  V30 1 1 1 2
M  V30 2 1 1 3
M  V30 3 2 2 4
M  V30 4 1 2 5
M  V30 5 2 3 6
M  V30 6 1 3 7
M  V30 7 1 4 8
M  V30 8 1 4 9
M  V30 9 2 5 10
M  V30 10 1 6 11
M  V30 11 2 7 12
M  V30 12 1 8 13
M  V30 13 2 9 14
M  V30 14 2 11 15
M  V30 15 1 13 16
M  V30 16 1 16 17
M  V30 17 1 17 18
M  V30 18 1 18 19
M  V30 19 1 6 8
M  V30 20 1 10 14
M  V30 21 1 12 15
M  V30 22 1 5 20
M  V30 23 1 7 21
M  V30 24 1 9 22
M  V30 25 1 10 23
M  V30 26 1 11 24
M  V30 27 1 12 25
M  V30 28 1 13 26
M  V30 29 1 13 27
M  V30 30 1 14 28
M  V30 31 1 15 29
M  V30 32 1 16 30
M  V30 33 1 16 31
M  V30 34 1 17 32
M  V30 35 1 17 33
M  V30 36 1 18 34
M  V30 37 1 19 35
M  V30 38 1 19 36
M  V30 39 1 19 37
M  V30 END BOND
M  V30 END CTAB
M  END
>  <NO.>
862

>  <Name>
desmonomethylpromazine

>  <SMILES>
CNCCCN1c2ccccc2Sc2ccccc21

>  <logBB>
0.6

>  <Class>
1

>  <MW>
270.12

>  <nHBAcc>
3

>  <nHBDon>
1

>  <SLogP>
3.9

>  <TopoPSA>
15.27

>  <MMFF94 Energy>
65.556

$$$$
COC(=O)C1C(OC(=O)c2ccccc2)CC2CCC1N2C
Actelion Java MolfileCreator 2.0

  0  0  0  0  0  0              0 V3000
M  V30 BEGIN CTAB
M  V30 COUNTS 43 45 0 0 0
M  V30 BEGIN ATOM
M  V30 1 O -1.4397 2.0 0.4797 0
M  V30 2 C -0.4314 1.8479 -0.1907 0
M  V30 3 O 0.0534 0.6638 -0.6401 0
M  V30 4 C 0.4472 2.9696 -0.6188 0
M  V30 5 C -0.6825 -0.5294 -0.2834 0
M  V30 6 C 0.0788 4.2729 -0.2567 0
M  V30 7 C 1.6198 2.7671 -1.3596 0
M  V30 8 C 0.0899 -1.3276 0.778 0
M  V30 9 C -0.852 -1.3348 -1.5858 0
M  V30 10 C 0.8716 5.3592 -0.6319 0
M  V30 11 C 2.4104 3.8569 -1.7329 0
M  V30 12 C -0.0355 -0.6859 2.1484 0
M  V30 13 C -0.3813 -2.8008 0.826 0
M  V30 14 C -1.1872 -2.8156 -1.3451 0
M  V30 15 C 2.0359 5.1502 -1.3694 0
M  V30 16 O -0.7364 -1.0954 3.0631 0
M  V30 17 O 0.7792 0.4057 2.2304 0
M  V30 18 N -0.2064 -3.4703 -0.4746 0
M  V30 19 C -1.9103 -2.954 0.9594 0
M  V30 20 C -2.439 -2.971 -0.4798 0
M  V30 21 C 0.686 1.1119 3.4683 0
M  V30 22 C 1.148 -3.5513 -0.9875 0
M  V30 23 H -1.6797 -0.2697 0.0931 0
M  V30 24 H -0.8282 4.4469 0.3193 0
M  V30 25 H 1.932 1.768 -1.652 0
M  V30 26 H 1.1646 -1.3113 0.5516 0
M  V30 27 H -1.6433 -0.8668 -2.1861 0
M  V30 28 H 0.0543 -1.2501 -2.199 0
M  V30 29 H 0.5798 6.3677 -0.3485 0
M  V30 30 H 3.3195 3.6966 -2.3074 0
M  V30 31 H 0.1248 -3.3465 1.6308 0
M  V30 32 H -1.3078 -3.3401 -2.2991 0
M  V30 33 H 2.6528 5.9968 -1.6613 0
M  V30 34 H -2.1545 -3.908 1.4436 0
M  V30 35 H -2.3884 -2.1626 1.5428 0
M  V30 36 H -3.1786 -2.1823 -0.6535 0
M  V30 37 H -2.928 -3.9333 -0.6754 0
M  V30 38 H 1.3388 1.9871 3.408 0
M  V30 39 H -0.3388 1.4567 3.6386 0
M  V30 40 H 1.0267 0.4804 4.2944 0
M  V30 41 H 1.6067 -2.5824 -1.2029 0
M  V30 42 H 1.1625 -4.138 -1.9124 0
M  V30 43 H 1.7906 -4.0761 -0.2722 0
M  V30 END ATOM
M  V30 BEGIN BOND
M  V30 1 2 1 2
M  V30 2 1 2 3
M  V30 3 1 2 4
M  V30 4 1 3 5
M  V30 5 2 4 6
M  V30 6 1 4 7
M  V30 7 1 5 8
M  V30 8 1 5 9
M  V30 9 1 6 10
M  V30 10 2 7 11
M  V30 11 1 8 12
M  V30 12 1 8 13
M  V30 13 1 9 14
M  V30 14 2 10 15
M  V30 15 2 12 16
M  V30 16 1 12 17
M  V30 17 1 13 18
M  V30 18 1 13 19
M  V30 19 1 14 20
M  V30 20 1 17 21
M  V30 21 1 18 22
M  V30 22 1 11 15
M  V30 23 1 14 18
M  V30 24 1 19 20
M  V30 25 1 5 23
M  V30 26 1 6 24
M  V30 27 1 7 25
M  V30 28 1 8 26
M  V30 29 1 9 27
M  V30 30 1 9 28
M  V30 31 1 10 29
M  V30 32 1 11 30
M  V30 33 1 13 31
M  V30 34 1 14 32
M  V30 35 1 15 33
M  V30 36 1 19 34
M  V30 37 1 19 35
M  V30 38 1 20 36
M  V30 39 1 20 37
M  V30 40 1 21 38
M  V30 41 1 21 39
M  V30 42 1 21 40
M  V30 43 1 22 41
M  V30 44 1 22 42
M  V30 45 1 22 43
M  V30 END BOND
M  V30 END CTAB
M  END
>  <NO.>
863

>  <Name>
cocaine

>  <SMILES>
COC(=O)C1C(OC(=O)c2ccccc2)CC2CCC1N2C

>  <logBB>
0.6

>  <Class>
1

>  <MW>
303.15

>  <nHBAcc>
5

>  <nHBDon>
0

>  <SLogP>
1.87

>  <TopoPSA>
55.84

>  <MMFF94 Energy>
31.054

$$$$
CC1NC(=NCC(F)F)Nc2cccc(Cl)c21
Actelion Java MolfileCreator 2.0

  0  0  0  0  0  0              0 V3000
M  V30 BEGIN CTAB
M  V30 COUNTS 29 30 0 0 0
M  V30 BEGIN ATOM
M  V30 1 Cl -1.613 -3.9554 1.0482 0
M  V30 2 C -1.6537 -2.5409 0.0558 0
M  V30 3 C -0.7086 -1.5107 0.1876 0
M  V30 4 C -2.6666 -2.4594 -0.9039 0
M  V30 5 C -0.786 -0.4036 -0.674 0
M  V30 6 C 0.3666 -1.5076 1.2484 0 CFG=1
M  V30 7 C -2.7465 -1.3519 -1.7437 0
M  V30 8 N 0.198 0.5924 -0.6179 0
M  V30 9 C -1.8052 -0.3307 -1.6321 0
M  V30 10 N 1.4303 -0.5802 0.9267 0
M  V30 11 C -0.1981 -1.118 2.6178 0
M  V30 12 C 1.3359 0.5111 0.1271 0
M  V30 13 N 2.33 1.3332 0.159 0
M  V30 14 C 2.3329 2.5029 -0.7304 0
M  V30 15 C 1.35 3.5847 -0.3026 0
M  V30 16 F 1.6667 4.7551 -0.9154 0
M  V30 17 F 0.1027 3.2585 -0.7456 0
M  V30 18 H -3.3971 -3.2589 -1.0027 0
M  V30 19 H 0.8193 -2.5033 1.3106 0
M  V30 20 H -3.533 -1.2894 -2.4916 0
M  V30 21 H 0.0268 1.4273 -1.1631 0
M  V30 22 H -1.8651 0.5195 -2.3074 0
M  V30 23 H 2.2879 -0.6489 1.4587 0
M  V30 24 H 0.593 -1.1171 3.3761 0
M  V30 25 H -0.6348 -0.1122 2.5992 0
M  V30 26 H -0.9781 -1.8083 2.9527 0
M  V30 27 H 3.3448 2.9227 -0.7153 0
M  V30 28 H 2.1452 2.2009 -1.7676 0
M  V30 29 H 1.3185 3.7423 0.7788 0
M  V30 END ATOM
M  V30 BEGIN BOND
M  V30 1 1 1 2
M  V30 2 2 2 3
M  V30 3 1 2 4
M  V30 4 1 3 5
M  V30 5 1 3 6
M  V30 6 2 4 7
M  V30 7 1 5 8
M  V30 8 2 5 9
M  V30 9 1 6 10
M  V30 10 1 6 11
M  V30 11 1 8 12
M  V30 12 2 12 13
M  V30 13 1 13 14
M  V30 14 1 14 15
M  V30 15 1 15 16
M  V30 16 1 15 17
M  V30 17 1 7 9
M  V30 18 1 10 12
M  V30 19 1 4 18
M  V30 20 1 6 19
M  V30 21 1 7 20
M  V30 22 1 8 21
M  V30 23 1 9 22
M  V30 24 1 10 23
M  V30 25 1 11 24
M  V30 26 1 11 25
M  V30 27 1 11 26
M  V30 28 1 14 27
M  V30 29 1 14 28
M  V30 30 1 15 29
M  V30 END BOND
M  V30 BEGIN COLLECTION
M  V30 MDLV30/STERAC1 ATOMS=(1 6)
M  V30 END COLLECTION
M  V30 END CTAB
M  END
>  <NO.>
864

>  <Name>
5-hydroxytryptamine (5-ht) receptor ligand 1b

>  <SMILES>
CC1NC(=NCC(F)F)Nc2cccc(Cl)c21

>  <logBB>
0.6

>  <Class>
1

>  <MW>
259.07

>  <nHBAcc>
1

>  <nHBDon>
2

>  <SLogP>
3.04

>  <TopoPSA>
36.42

>  <MMFF94 Energy>
-58.52

$$$$
CCC12CCN(CC3(O)CC3)C(Cc3ccc(O)cc31)C2(C)C
Actelion Java MolfileCreator 2.0

  0  0  0  0  0  0              0 V3000
M  V30 BEGIN CTAB
M  V30 COUNTS 52 55 0 0 0
M  V30 BEGIN ATOM
M  V30 1 O 4.8747 -2.2353 -1.5962 0
M  V30 2 C 3.603 -2.0362 -1.144 0
M  V30 3 C 3.1684 -0.7774 -0.728 0
M  V30 4 C 2.7553 -3.1281 -1.1124 0
M  V30 5 C 1.8553 -0.5773 -0.2574 0
M  V30 6 C 1.4528 -2.9603 -0.658 0
M  V30 7 C 0.9912 -1.6978 -0.2382 0
M  V30 8 C 1.3378 0.8315 0.1709 0
M  V30 9 C -0.4285 -1.617 0.2694 0
M  V30 10 C 0.161 0.6735 1.2318 0
M  V30 11 C 0.7541 1.4823 -1.1184 0
M  V30 12 C 2.4926 1.7116 0.7817 0
M  V30 13 C -0.9493 -0.191 0.5497 0
M  V30 14 C 0.6506 0.0142 2.551 0
M  V30 15 C -0.4807 2.0272 1.667 0
M  V30 16 C -0.4943 0.7774 -1.6634 0
M  V30 17 C 3.257 2.6325 -0.1707 0
M  V30 18 N -1.5027 0.541 -0.6244 0
M  V30 19 C -2.7079 -0.0725 -1.2168 0
M  V30 20 C -3.8775 0.0175 -0.264 0
M  V30 21 O -4.0 1.2844 0.4086 0
M  V30 22 C -4.3394 -1.1821 0.5198 0
M  V30 23 C -5.1806 -0.6518 -0.6064 0
M  V30 24 H 5.3566 -1.3939 -1.5491 0
M  V30 25 H 3.8704 0.0442 -0.7744 0
M  V30 26 H 3.1055 -4.1032 -1.4363 0
M  V30 27 H 0.7907 -3.8232 -0.6285 0
M  V30 28 H -0.4705 -2.1861 1.2084 0
M  V30 29 H -1.0908 -2.1475 -0.4221 0
M  V30 30 H 0.5001 2.5316 -0.9247 0
M  V30 31 H 1.503 1.4972 -1.9209 0
M  V30 32 H 2.0993 2.3782 1.5534 0
M  V30 33 H 3.2099 1.0712 1.3113 0
M  V30 34 H -1.7641 -0.2951 1.2776 0
M  V30 35 H 1.1902 -0.9233 2.3955 0
M  V30 36 H -0.1973 -0.2039 3.2107 0
M  V30 37 H 1.3252 0.6784 3.1024 0
M  V30 38 H -1.3737 1.8454 2.278 0
M  V30 39 H 0.1918 2.6302 2.2837 0
M  V30 40 H -0.7934 2.6489 0.8244 0
M  V30 41 H -0.9183 1.4272 -2.4399 0
M  V30 42 H -0.2182 -0.1544 -2.1709 0
M  V30 43 H 4.106 3.0818 0.3554 0
M  V30 44 H 3.6478 2.1172 -1.0496 0
M  V30 45 H 2.6213 3.455 -0.5137 0
M  V30 46 H -2.537 -1.0994 -1.5559 0
M  V30 47 H -2.9976 0.5016 -2.1065 0
M  V30 48 H -3.1254 1.7212 0.4027 0
M  V30 49 H -3.8315 -2.1268 0.3721 0
M  V30 50 H -4.6874 -1.0176 1.5331 0
M  V30 51 H -6.0962 -0.1287 -0.3546 0
M  V30 52 H -5.2396 -1.2362 -1.5162 0
M  V30 END ATOM
M  V30 BEGIN BOND
M  V30 1 1 1 2
M  V30 2 2 2 3
M  V30 3 1 2 4
M  V30 4 1 3 5
M  V30 5 2 4 6
M  V30 6 2 5 7
M  V30 7 1 5 8
M  V30 8 1 7 9
M  V30 9 1 8 10
M  V30 10 1 8 11
M  V30 11 1 8 12
M  V30 12 1 9 13
M  V30 13 1 10 14
M  V30 14 1 10 15
M  V30 15 1 11 16
M  V30 16 1 12 17
M  V30 17 1 13 18
M  V30 18 1 18 19
M  V30 19 1 19 20
M  V30 20 1 20 21
M  V30 21 1 20 22
M  V30 22 1 20 23
M  V30 23 1 6 7
M  V30 24 1 10 13
M  V30 25 1 16 18
M  V30 26 1 22 23
M  V30 27 1 1 24
M  V30 28 1 3 25
M  V30 29 1 4 26
M  V30 30 1 6 27
M  V30 31 1 9 28
M  V30 32 1 9 29
M  V30 33 1 11 30
M  V30 34 1 11 31
M  V30 35 1 12 32
M  V30 36 1 12 33
M  V30 37 1 13 34
M  V30 38 1 14 35
M  V30 39 1 14 36
M  V30 40 1 14 37
M  V30 41 1 15 38
M  V30 42 1 15 39
M  V30 43 1 15 40
M  V30 44 1 16 41
M  V30 45 1 16 42
M  V30 46 1 17 43
M  V30 47 1 17 44
M  V30 48 1 17 45
M  V30 49 1 19 46
M  V30 50 1 19 47
M  V30 51 1 21 48
M  V30 52 1 22 49
M  V30 53 1 22 50
M  V30 54 1 23 51
M  V30 55 1 23 52
M  V30 END BOND
M  V30 END CTAB
M  END
>  <NO.>
865

>  <Name>
bremazocine

>  <SMILES>
CCC12CCN(CC3(O)CC3)C(Cc3ccc(O)cc31)C2(C)C

>  <logBB>
0.6

>  <Class>
1

>  <MW>
315.22

>  <nHBAcc>
3

>  <nHBDon>
2

>  <SLogP>
3.22

>  <TopoPSA>
43.7

>  <MMFF94 Energy>
74.57

$$$$
CCCCC1CCN(CCCN2C(=O)CCc3ccccc32)CC1
Actelion Java MolfileCreator 2.0

  0  0  0  0  0  0              0 V3000
M  V30 BEGIN CTAB
M  V30 COUNTS 56 58 0 0 0
M  V30 BEGIN ATOM
M  V30 1 O -0.1578 -4.3473 -0.3946 0
M  V30 2 C -0.5019 -4.1033 -1.5521 0
M  V30 3 N -0.0071 -3.0305 -2.2972 0
M  V30 4 C -1.4552 -5.0269 -2.2706 0
M  V30 5 C -0.5187 -2.7247 -3.5974 0
M  V30 6 C 0.9638 -2.1452 -1.6503 0
M  V30 7 C -2.4608 -4.2267 -3.069 0
M  V30 8 C -1.7319 -3.3067 -4.0049 0
M  V30 9 C 0.1332 -1.8528 -4.4792 0
M  V30 10 C 0.3111 -0.8735 -1.1004 0
M  V30 11 C -2.2861 -2.9943 -5.2548 0
M  V30 12 C -0.4157 -1.5569 -5.7309 0
M  V30 13 C 1.3384 -0.0216 -0.3457 0
M  V30 14 C -1.6255 -2.1241 -6.1169 0
M  V30 15 N 0.8197 1.2995 0.0535 0
M  V30 16 C 1.9272 2.1463 0.5283 0
M  V30 17 C -0.2358 1.1947 1.0741 0
M  V30 18 C 1.4469 3.5487 0.9104 0
M  V30 19 C -0.7751 2.5738 1.466 0
M  V30 20 C 0.325 3.5225 1.9594 0
M  V30 21 C 0.8798 3.1632 3.3556 0
M  V30 22 C -0.1646 3.2839 4.4712 0
M  V30 23 C 0.4366 3.165 5.8745 0
M  V30 24 C 1.0369 1.7977 6.1628 0
M  V30 25 H -1.9754 -5.6476 -1.533 0
M  V30 26 H -0.8658 -5.6891 -2.9161 0
M  V30 27 H 1.4399 -2.6808 -0.8198 0
M  V30 28 H 1.78 -1.9146 -2.3418 0
M  V30 29 H -3.1081 -4.9141 -3.6254 0
M  V30 30 H -3.0956 -3.6253 -2.407 0
M  V30 31 H 1.0766 -1.3814 -4.2268 0
M  V30 32 H -0.5143 -1.1591 -0.4384 0
M  V30 33 H -0.1241 -0.2905 -1.9207 0
M  V30 34 H -3.2348 -3.4292 -5.5612 0
M  V30 35 H 0.1028 -0.8765 -6.4018 0
M  V30 36 H 1.7118 -0.5718 0.5278 0
M  V30 37 H 2.1947 0.1273 -1.0167 0
M  V30 38 H -2.0545 -1.8868 -7.0869 0
M  V30 39 H 2.671 2.2575 -0.2703 0
M  V30 40 H 2.4401 1.6788 1.3782 0
M  V30 41 H -1.0844 0.623 0.6838 0
M  V30 42 H 0.1279 0.6645 1.9629 0
M  V30 43 H 2.2944 4.143 1.2718 0
M  V30 44 H 1.0772 4.0546 0.0084 0
M  V30 45 H -1.567 2.4621 2.2135 0
M  V30 46 H -1.2561 3.0237 0.5864 0
M  V30 47 H -0.0977 4.5339 2.0241 0
M  V30 48 H 1.7128 3.8406 3.5836 0
M  V30 49 H 1.2941 2.1501 3.3529 0
M  V30 50 H -0.9379 2.5172 4.3509 0
M  V30 51 H -0.664 4.2574 4.3945 0
M  V30 52 H 1.2009 3.9371 6.0201 0
M  V30 53 H -0.3542 3.3604 6.6086 0
M  V30 54 H 1.362 1.7431 7.2068 0
M  V30 55 H 0.3036 1.0029 5.9944 0
M  V30 56 H 1.9104 1.6025 5.534 0
M  V30 END ATOM
M  V30 BEGIN BOND
M  V30 1 2 1 2
M  V30 2 1 2 3
M  V30 3 1 2 4
M  V30 4 1 3 5
M  V30 5 1 3 6
M  V30 6 1 4 7
M  V30 7 2 5 8
M  V30 8 1 5 9
M  V30 9 1 6 10
M  V30 10 1 8 11
M  V30 11 2 9 12
M  V30 12 1 10 13
M  V30 13 2 11 14
M  V30 14 1 13 15
M  V30 15 1 15 16
M  V30 16 1 15 17
M  V30 17 1 16 18
M  V30 18 1 17 19
M  V30 19 1 18 20
M  V30 20 1 20 21
M  V30 21 1 21 22
M  V30 22 1 22 23
M  V30 23 1 23 24
M  V30 24 1 7 8
M  V30 25 1 12 14
M  V30 26 1 19 20
M  V30 27 1 4 25
M  V30 28 1 4 26
M  V30 29 1 6 27
M  V30 30 1 6 28
M  V30 31 1 7 29
M  V30 32 1 7 30
M  V30 33 1 9 31
M  V30 34 1 10 32
M  V30 35 1 10 33
M  V30 36 1 11 34
M  V30 37 1 12 35
M  V30 38 1 13 36
M  V30 39 1 13 37
M  V30 40 1 14 38
M  V30 41 1 16 39
M  V30 42 1 16 40
M  V30 43 1 17 41
M  V30 44 1 17 42
M  V30 45 1 18 43
M  V30 46 1 18 44
M  V30 47 1 19 45
M  V30 48 1 19 46
M  V30 49 1 20 47
M  V30 50 1 21 48
M  V30 51 1 21 49
M  V30 52 1 22 50
M  V30 53 1 22 51
M  V30 54 1 23 52
M  V30 55 1 23 53
M  V30 56 1 24 54
M  V30 57 1 24 55
M  V30 58 1 24 56
M  V30 END BOND
M  V30 END CTAB
M  END
>  <NO.>
866

>  <Name>
77-lh-28-1

>  <SMILES>
CCCCC1CCN(CCCN2C(=O)CCc3ccccc32)CC1

>  <logBB>
0.6

>  <Class>
1

>  <MW>
328.25

>  <nHBAcc>
2

>  <nHBDon>
0

>  <SLogP>
4.26

>  <TopoPSA>
23.55

>  <MMFF94 Energy>
7.7688

$$$$
CN(C)Cc1ccc(C(=O)Nc2ccccc2N)cc1
Actelion Java MolfileCreator 2.0

  0  0  0  0  0  0              0 V3000
M  V30 BEGIN CTAB
M  V30 COUNTS 39 40 0 0 0
M  V30 BEGIN ATOM
M  V30 1 O 2.1163 1.2536 -1.332 0
M  V30 2 C 1.0388 0.6694 -1.3355 0
M  V30 3 N 0.1923 0.5198 -2.4158 0
M  V30 4 C 0.571 0.0309 -0.0722 0
M  V30 5 C 0.4022 0.9984 -3.7284 0
M  V30 6 C 1.5286 -0.5068 0.7941 0
M  V30 7 C -0.7843 -0.0198 0.2774 0
M  V30 8 C -0.7322 1.1546 -4.5542 0
M  V30 9 C 1.6786 1.2331 -4.2467 0
M  V30 10 C 1.1329 -1.1166 1.9864 0
M  V30 11 C -1.1773 -0.6292 1.4733 0
M  V30 12 N -2.0232 0.9131 -4.0696 0
M  V30 13 C -0.5502 1.4628 -5.9069 0
M  V30 14 C 1.8388 1.5911 -5.5864 0
M  V30 15 C -0.2234 -1.1839 2.3386 0
M  V30 16 C 0.7275 1.6948 -6.4183 0
M  V30 17 C -0.6486 -1.8576 3.6285 0
M  V30 18 N -0.0145 -1.2832 4.8275 0
M  V30 19 C -0.2674 -2.1388 5.9877 0
M  V30 20 C -0.4987 0.0734 5.095 0
M  V30 21 H -0.6516 -0.0271 -2.3123 0
M  V30 22 H 2.586 -0.4523 0.5431 0
M  V30 23 H -1.5441 0.4347 -0.3505 0
M  V30 24 H 2.5667 1.1143 -3.6331 0
M  V30 25 H 1.8877 -1.5291 2.6538 0
M  V30 26 H -2.2335 -0.6571 1.7328 0
M  V30 27 H -2.7984 1.0768 -4.7004 0
M  V30 28 H -2.19 1.133 -3.0965 0
M  V30 29 H -1.4051 1.5444 -6.572 0
M  V30 30 H 2.8358 1.7677 -5.9816 0
M  V30 31 H 0.8552 1.9536 -7.466 0
M  V30 32 H -0.3658 -2.9144 3.5286 0
M  V30 33 H -1.7425 -1.8409 3.7259 0
M  V30 34 H 0.1406 -3.1423 5.8232 0
M  V30 35 H -1.337 -2.2326 6.2081 0
M  V30 36 H 0.2346 -1.7412 6.8769 0
M  V30 37 H -1.5838 0.1023 5.2475 0
M  V30 38 H -0.2462 0.7561 4.277 0
M  V30 39 H -0.0168 0.4815 5.9908 0
M  V30 END ATOM
M  V30 BEGIN BOND
M  V30 1 2 1 2
M  V30 2 1 2 3
M  V30 3 1 2 4
M  V30 4 1 3 5
M  V30 5 2 4 6
M  V30 6 1 4 7
M  V30 7 2 5 8
M  V30 8 1 5 9
M  V30 9 1 6 10
M  V30 10 2 7 11
M  V30 11 1 8 12
M  V30 12 1 8 13
M  V30 13 2 9 14
M  V30 14 2 10 15
M  V30 15 2 13 16
M  V30 16 1 15 17
M  V30 17 1 17 18
M  V30 18 1 18 19
M  V30 19 1 18 20
M  V30 20 1 11 15
M  V30 21 1 14 16
M  V30 22 1 3 21
M  V30 23 1 6 22
M  V30 24 1 7 23
M  V30 25 1 9 24
M  V30 26 1 10 25
M  V30 27 1 11 26
M  V30 28 1 12 27
M  V30 29 1 12 28
M  V30 30 1 13 29
M  V30 31 1 14 30
M  V30 32 1 16 31
M  V30 33 1 17 32
M  V30 34 1 17 33
M  V30 35 1 19 34
M  V30 36 1 19 35
M  V30 37 1 19 36
M  V30 38 1 20 37
M  V30 39 1 20 38
M  V30 40 1 20 39
M  V30 END BOND
M  V30 END CTAB
M  END
>  <NO.>
867

>  <Name>
schembl12684742

>  <SMILES>
CN(C)Cc1ccc(C(=O)Nc2ccccc2N)cc1

>  <logBB>
0.6

>  <Class>
1

>  <MW>
269.15

>  <nHBAcc>
3

>  <nHBDon>
2

>  <SLogP>
2.58

>  <TopoPSA>
58.36

>  <MMFF94 Energy>
52.617

$$$$
Cc1nc(N2CCc3ccccc3CC2)c(C#N)c(=O)n1CC(F)(F)F
Actelion Java MolfileCreator 2.0

  0  0  0  0  0  0              0 V3000
M  V30 BEGIN CTAB
M  V30 COUNTS 43 45 0 0 0
M  V30 BEGIN ATOM
M  V30 1 F 2.0985 -1.0488 -5.4955 0
M  V30 2 C 2.6842 0.1093 -5.1366 0
M  V30 3 F 1.7676 1.0939 -5.2831 0
M  V30 4 F 3.682 0.3588 -6.0153 0
M  V30 5 C 3.2279 0.0816 -3.7099 0
M  V30 6 N 2.1969 -0.1961 -2.694 0
M  V30 7 C 1.897 -1.5256 -2.464 0
M  V30 8 C 1.5118 0.7765 -2.018 0
M  V30 9 O 2.4933 -2.4378 -3.0339 0
M  V30 10 C 0.8264 -1.8114 -1.4858 0
M  V30 11 N 0.5907 0.523 -1.1512 0
M  V30 12 C 1.8464 2.2288 -2.2622 0
M  V30 13 C 0.4406 -3.167 -1.3129 0
M  V30 14 C 0.2376 -0.7733 -0.851 0
M  V30 15 N 0.1243 -4.2732 -1.1491 0
M  V30 16 N -0.7822 -0.9442 0.1033 0
M  V30 17 C -0.6221 -1.7572 1.3252 0
M  V30 18 C -1.9397 -0.0273 0.1213 0
M  V30 19 C -0.1442 -0.9134 2.5145 0
M  V30 20 C -1.7359 1.1685 1.0574 0
M  V30 21 C -1.2539 -0.1413 3.1937 0
M  V30 22 C -2.0003 0.8375 2.5107 0
M  V30 23 C -1.5339 -0.3959 4.5474 0
M  V30 24 C -3.0057 1.5381 3.1991 0
M  V30 25 C -2.5395 0.3025 5.2146 0
M  V30 26 C -3.2751 1.27 4.5405 0
M  V30 27 H 3.713 1.0376 -3.4939 0
M  V30 28 H 4.0094 -0.6841 -3.6451 0
M  V30 29 H 1.1487 2.8771 -1.7232 0
M  V30 30 H 1.7872 2.4671 -3.3258 0
M  V30 31 H 2.8585 2.4355 -1.9026 0
M  V30 32 H -1.5637 -2.2704 1.5567 0
M  V30 33 H 0.1249 -2.5405 1.1677 0
M  V30 34 H -2.1152 0.3444 -0.8965 0
M  V30 35 H -2.8446 -0.5857 0.3936 0
M  V30 36 H 0.3128 -1.5942 3.2441 0
M  V30 37 H 0.6475 -0.2156 2.2147 0
M  V30 38 H -0.7288 1.5917 0.9691 0
M  V30 39 H -2.4268 1.9604 0.7408 0
M  V30 40 H -0.9666 -1.1444 5.0966 0
M  V30 41 H -3.5897 2.3035 2.6923 0
M  V30 42 H -2.7447 0.0931 6.261 0
M  V30 43 H -4.0568 1.819 5.0586 0
M  V30 END ATOM
M  V30 BEGIN BOND
M  V30 1 1 1 2
M  V30 2 1 2 3
M  V30 3 1 2 4
M  V30 4 1 2 5
M  V30 5 1 5 6
M  V30 6 1 6 7
M  V30 7 1 6 8
M  V30 8 2 7 9
M  V30 9 1 7 10
M  V30 10 2 8 11
M  V30 11 1 8 12
M  V30 12 1 10 13
M  V30 13 2 10 14
M  V30 14 3 13 15
M  V30 15 1 14 16
M  V30 16 1 16 17
M  V30 17 1 16 18
M  V30 18 1 17 19
M  V30 19 1 18 20
M  V30 20 1 19 21
M  V30 21 1 20 22
M  V30 22 1 21 23
M  V30 23 1 22 24
M  V30 24 2 23 25
M  V30 25 2 24 26
M  V30 26 1 11 14
M  V30 27 2 21 22
M  V30 28 1 25 26
M  V30 29 1 5 27
M  V30 30 1 5 28
M  V30 31 1 12 29
M  V30 32 1 12 30
M  V30 33 1 12 31
M  V30 34 1 17 32
M  V30 35 1 17 33
M  V30 36 1 18 34
M  V30 37 1 18 35
M  V30 38 1 19 36
M  V30 39 1 19 37
M  V30 40 1 20 38
M  V30 41 1 20 39
M  V30 42 1 23 40
M  V30 43 1 24 41
M  V30 44 1 25 42
M  V30 45 1 26 43
M  V30 END BOND
M  V30 END CTAB
M  END
>  <NO.>
869

>  <Name>
schembl6947600

>  <SMILES>
Cc1nc(N2CCc3ccccc3CC2)c(C#N)c(=O)n1CC(F)(F)F

>  <logBB>
0.6

>  <Class>
1

>  <MW>
362.14

>  <nHBAcc>
4

>  <nHBDon>
0

>  <SLogP>
2.59

>  <TopoPSA>
61.92

>  <MMFF94 Energy>
19.698

$$$$
Clc1ccc2c(c1)C(N1CCNCC1)=Nc1ccccc1O2
Actelion Java MolfileCreator 2.0

  0  0  0  0  0  0              0 V3000
M  V30 BEGIN CTAB
M  V30 COUNTS 38 41 0 0 0
M  V30 BEGIN ATOM
M  V30 1 Cl -0.3245 -1.6237 5.04 0
M  V30 2 C -0.764 -0.758 3.6196 0
M  V30 3 C -0.034 -0.9388 2.4468 0
M  V30 4 C -1.8409 0.1271 3.6561 0
M  V30 5 C -0.3849 -0.2264 1.2914 0
M  V30 6 C -2.2006 0.8267 2.5034 0
M  V30 7 C 0.4549 -0.3834 0.0626 0
M  V30 8 C -1.4847 0.6323 1.3187 0
M  V30 9 N -0.038 -0.4607 -1.1436 0
M  V30 10 N 1.8382 -0.4785 0.2217 0
M  V30 11 O -1.8995 1.3381 0.2175 0
M  V30 12 C -1.4052 -0.3655 -1.4393 0
M  V30 13 C 2.6754 -1.0433 -0.8527 0
M  V30 14 C 2.5916 0.4815 1.0488 0
M  V30 15 C -2.2912 0.526 -0.8217 0
M  V30 16 C -1.89 -1.15 -2.4916 0
M  V30 17 C 3.2475 0.0896 -1.7305 0
M  V30 18 C 3.1744 1.6 0.1524 0
M  V30 19 C -3.6171 0.6458 -1.2516 0
M  V30 20 C -3.2196 -1.0537 -2.9132 0
M  V30 21 N 4.0133 1.0892 -0.9511 0
M  V30 22 C -4.0828 -0.1517 -2.2949 0
M  V30 23 H 0.8064 -1.6276 2.4258 0
M  V30 24 H -2.4057 0.2717 4.5737 0
M  V30 25 H -3.0449 1.511 2.5224 0
M  V30 26 H 3.4993 -1.6076 -0.3976 0
M  V30 27 H 2.1159 -1.7582 -1.4669 0
M  V30 28 H 3.4049 -0.0477 1.5606 0
M  V30 29 H 1.9695 0.9375 1.8254 0
M  V30 30 H -1.2133 -1.8361 -2.9947 0
M  V30 31 H 3.9119 -0.3433 -2.4858 0
M  V30 32 H 2.4349 0.5964 -2.2653 0
M  V30 33 H 2.3546 2.1977 -0.2659 0
M  V30 34 H 3.7819 2.2712 0.769 0
M  V30 35 H -4.2836 1.354 -0.768 0
M  V30 36 H -3.573 -1.6742 -3.7326 0
M  V30 37 H 4.255 1.8645 -1.5677 0
M  V30 38 H -5.1138 -0.0673 -2.6281 0
M  V30 END ATOM
M  V30 BEGIN BOND
M  V30 1 1 1 2
M  V30 2 2 2 3
M  V30 3 1 2 4
M  V30 4 1 3 5
M  V30 5 2 4 6
M  V30 6 1 5 7
M  V30 7 2 5 8
M  V30 8 2 7 9
M  V30 9 1 7 10
M  V30 10 1 8 11
M  V30 11 1 9 12
M  V30 12 1 10 13
M  V30 13 1 10 14
M  V30 14 1 11 15
M  V30 15 1 12 16
M  V30 16 1 13 17
M  V30 17 1 14 18
M  V30 18 1 15 19
M  V30 19 2 16 20
M  V30 20 1 17 21
M  V30 21 2 19 22
M  V30 22 1 6 8
M  V30 23 2 12 15
M  V30 24 1 18 21
M  V30 25 1 20 22
M  V30 26 1 3 23
M  V30 27 1 4 24
M  V30 28 1 6 25
M  V30 29 1 13 26
M  V30 30 1 13 27
M  V30 31 1 14 28
M  V30 32 1 14 29
M  V30 33 1 16 30
M  V30 34 1 17 31
M  V30 35 1 17 32
M  V30 36 1 18 33
M  V30 37 1 18 34
M  V30 38 1 19 35
M  V30 39 1 20 36
M  V30 40 1 21 37
M  V30 41 1 22 38
M  V30 END BOND
M  V30 END CTAB
M  END
>  <NO.>
870

>  <Name>
amoxapine

>  <SMILES>
Clc1ccc2c(c1)C(N1CCNCC1)=Nc1ccccc1O2

>  <logBB>
0.6

>  <Class>
1

>  <MW>
313.1

>  <nHBAcc>
4

>  <nHBDon>
1

>  <SLogP>
3.43

>  <TopoPSA>
36.86

>  <MMFF94 Energy>
113.39

$$$$
S=C=S
Actelion Java MolfileCreator 2.0

  0  0  0  0  0  0              0 V3000
M  V30 BEGIN CTAB
M  V30 COUNTS 3 2 0 0 0
M  V30 BEGIN ATOM
M  V30 1 S 0.7099 0.7099 1.5386 0
M  V30 2 C -0.0104 -0.0368 -0.0445 0
M  V30 3 S -0.7308 -0.7836 -1.6277 0
M  V30 END ATOM
M  V30 BEGIN BOND
M  V30 1 2 1 2
M  V30 2 2 2 3
M  V30 END BOND
M  V30 END CTAB
M  END
>  <NO.>
871

>  <Name>
carbon disulfide

>  <SMILES>
S=C=S

>  <logBB>
0.6

>  <Class>
1

>  <MW>
75.94

>  <nHBAcc>
2

>  <nHBDon>
0

>  <SLogP>
1.02

>  <TopoPSA>
0

>  <MMFF94 Energy>
MMFF94 error code 2

$$$$
CC(C)(C)C1CCCCC1
Actelion Java MolfileCreator 2.0

  0  0  0  0  0  0              0 V3000
M  V30 BEGIN CTAB
M  V30 COUNTS 30 30 0 0 0
M  V30 BEGIN ATOM
M  V30 1 C 0.9333 1.1667 -0.311 0
M  V30 2 C -0.0365 -0.0732 -0.3713 0
M  V30 3 C 2.3103 0.7996 -0.9073 0
M  V30 4 C 1.1544 1.6802 1.1243 0
M  V30 5 C 0.3684 2.3304 -1.1556 0
M  V30 6 C 0.5012 -1.3173 0.3719 0
M  V30 7 C -1.4693 0.236 0.1199 0
M  V30 8 C -0.4356 -2.5183 0.2423 0
M  V30 9 C -2.398 -0.9711 -0.0086 0
M  V30 10 C -1.8438 -2.1887 0.7181 0
M  V30 11 H -0.1221 -0.3536 -1.432 0
M  V30 12 H 2.9517 1.6844 -0.9966 0
M  V30 13 H 2.2042 0.3663 -1.908 0
M  V30 14 H 2.8499 0.083 -0.28 0
M  V30 15 H 1.6033 0.9156 1.7658 0
M  V30 16 H 1.8329 2.5417 1.1295 0
M  V30 17 H 0.2189 2.007 1.5888 0
M  V30 18 H 0.1309 2.0008 -2.1731 0
M  V30 19 H -0.5388 2.7544 -0.7134 0
M  V30 20 H 1.0921 3.1503 -1.2344 0
M  V30 21 H 0.6378 -1.0939 1.4362 0
M  V30 22 H 1.478 -1.6123 -0.0238 0
M  V30 23 H -1.4507 0.5525 1.1691 0
M  V30 24 H -1.9076 1.0565 -0.4568 0
M  V30 25 H -0.4686 -2.8434 -0.8048 0
M  V30 26 H -0.0383 -3.3579 0.824 0
M  V30 27 H -3.385 -0.7195 0.396 0
M  V30 28 H -2.5402 -1.2102 -1.0697 0
M  V30 29 H -2.5013 -3.0495 0.5532 0
M  V30 30 H -1.8311 -1.9974 1.7982 0
M  V30 END ATOM
M  V30 BEGIN BOND
M  V30 1 1 1 2
M  V30 2 1 1 3
M  V30 3 1 1 4
M  V30 4 1 1 5
M  V30 5 1 2 6
M  V30 6 1 2 7
M  V30 7 1 6 8
M  V30 8 1 7 9
M  V30 9 1 8 10
M  V30 10 1 9 10
M  V30 11 1 2 11
M  V30 12 1 3 12
M  V30 13 1 3 13
M  V30 14 1 3 14
M  V30 15 1 4 15
M  V30 16 1 4 16
M  V30 17 1 4 17
M  V30 18 1 5 18
M  V30 19 1 5 19
M  V30 20 1 5 20
M  V30 21 1 6 21
M  V30 22 1 6 22
M  V30 23 1 7 23
M  V30 24 1 7 24
M  V30 25 1 8 25
M  V30 26 1 8 26
M  V30 27 1 9 27
M  V30 28 1 9 28
M  V30 29 1 10 29
M  V30 30 1 10 30
M  V30 END BOND
M  V30 END CTAB
M  END
>  <NO.>
873

>  <Name>
tert-butylcyclohexane

>  <SMILES>
CC(C)(C)C1CCCCC1

>  <logBB>
0.61

>  <Class>
1

>  <MW>
140.16

>  <nHBAcc>
0

>  <nHBDon>
0

>  <SLogP>
3.61

>  <TopoPSA>
0

>  <MMFF94 Energy>
18.684

$$$$
CC1=NC(O)C(=O)Nc2ccc(Cl)cc21
Actelion Java MolfileCreator 2.0

  0  0  0  0  0  0              0 V3000
M  V30 BEGIN CTAB
M  V30 COUNTS 24 25 0 0 0
M  V30 BEGIN ATOM
M  V30 1 Cl 2.2745 -3.9016 -0.5682 0
M  V30 2 C 1.0929 -2.6523 -0.561 0
M  V30 3 C 1.4475 -1.3679 -0.1535 0
M  V30 4 C -0.2079 -2.9298 -0.9703 0
M  V30 5 C 0.4879 -0.3445 -0.1481 0
M  V30 6 C -1.1692 -1.9172 -0.9591 0
M  V30 7 C 0.927 1.032 0.2147 0
M  V30 8 C -0.835 -0.6267 -0.5304 0
M  V30 9 N 0.2766 1.8688 0.9481 0
M  V30 10 C 2.2639 1.4999 -0.323 0
M  V30 11 N -1.8623 0.3261 -0.5431 0
M  V30 12 C -1.0061 1.465 1.5125 0 CFG=2
M  V30 13 C -2.0249 1.361 0.3453 0
M  V30 14 O -1.4694 2.3733 2.4963 0
M  V30 15 O -2.9692 2.1398 0.1976 0
M  V30 16 H 2.47 -1.1733 0.1603 0
M  V30 17 H -0.4825 -3.9313 -1.2935 0
M  V30 18 H -2.1848 -2.1539 -1.2704 0
M  V30 19 H 2.5398 0.9629 -1.2343 0
M  V30 20 H 2.2107 2.5668 -0.5619 0
M  V30 21 H 3.0326 1.3481 0.44 0
M  V30 22 H -2.6107 0.2464 -1.2211 0
M  V30 23 H -0.9351 0.4936 2.0147 0
M  V30 24 H -1.5172 3.2226 2.0235 0
M  V30 END ATOM
M  V30 BEGIN BOND
M  V30 1 1 1 2
M  V30 2 2 2 3
M  V30 3 1 2 4
M  V30 4 1 3 5
M  V30 5 2 4 6
M  V30 6 1 5 7
M  V30 7 2 5 8
M  V30 8 2 7 9
M  V30 9 1 7 10
M  V30 10 1 8 11
M  V30 11 1 9 12
M  V30 12 1 11 13
M  V30 13 1 12 14
M  V30 14 2 13 15
M  V30 15 1 6 8
M  V30 16 1 12 13
M  V30 17 1 3 16
M  V30 18 1 4 17
M  V30 19 1 6 18
M  V30 20 1 10 19
M  V30 21 1 10 20
M  V30 22 1 10 21
M  V30 23 1 11 22
M  V30 24 1 12 23
M  V30 25 1 14 24
M  V30 END BOND
M  V30 BEGIN COLLECTION
M  V30 MDLV30/STERAC1 ATOMS=(1 12)
M  V30 END COLLECTION
M  V30 END CTAB
M  END
>  <NO.>
874

>  <Name>
oxazepam

>  <SMILES>
CC1=NC(O)C(=O)Nc2ccc(Cl)cc21

>  <logBB>
0.61

>  <Class>
1

>  <MW>
224.04

>  <nHBAcc>
3

>  <nHBDon>
2

>  <SLogP>
1.42

>  <TopoPSA>
61.69

>  <MMFF94 Energy>
65.819

$$$$
COc1ccc(C2CNC(=O)C2)cc1OC1CCCC1
Actelion Java MolfileCreator 2.0

  0  0  0  0  0  0              0 V3000
M  V30 BEGIN CTAB
M  V30 COUNTS 41 43 0 0 0
M  V30 BEGIN ATOM
M  V30 1 O -4.8544 -2.0668 -2.8627 0
M  V30 2 C -4.4099 -1.3825 -1.9583 0
M  V30 3 N -4.7571 -1.5058 -0.6323 0
M  V30 4 C -3.4356 -0.2407 -2.0952 0
M  V30 5 C -4.1188 -0.5322 0.2028 0
M  V30 6 C -2.9756 0.0213 -0.6525 0 CFG=1
M  V30 7 C -1.6253 -0.6047 -0.3358 0
M  V30 8 C -0.5549 0.223 0.0467 0
M  V30 9 C -1.4021 -1.9843 -0.4183 0
M  V30 10 C 0.7052 -0.3101 0.3474 0
M  V30 11 C -0.1457 -2.5257 -0.1306 0
M  V30 12 O 1.7968 0.4345 0.7169 0
M  V30 13 C 0.9139 -1.6984 0.2487 0
M  V30 14 C 1.6172 1.8019 1.0842 0
M  V30 15 O 2.1769 -2.1434 0.5516 0
M  V30 16 C 2.8052 2.2139 1.9528 0
M  V30 17 C 1.7772 2.7192 -0.1253 0
M  V30 18 C 2.4452 -3.5271 0.3795 0
M  V30 19 C 3.9447 2.4492 0.9647 0
M  V30 20 C 3.283 2.7713 -0.3736 0
M  V30 21 H -5.4387 -2.1927 -0.3332 0
M  V30 22 H -3.9851 0.6204 -2.4904 0
M  V30 23 H -2.6215 -0.5025 -2.7763 0
M  V30 24 H -4.8618 0.243 0.4188 0
M  V30 25 H -3.8016 -0.9965 1.1407 0
M  V30 26 H -2.8964 1.1032 -0.4871 0
M  V30 27 H -0.7212 1.2945 0.0904 0
M  V30 28 H -2.1984 -2.6648 -0.7127 0
M  V30 29 H -0.0296 -3.6011 -0.213 0
M  V30 30 H 0.6853 1.9571 1.6386 0
M  V30 31 H 2.5793 3.1491 2.4791 0
M  V30 32 H 3.075 1.4538 2.6926 0
M  V30 33 H 1.2505 2.3653 -1.0161 0
M  V30 34 H 1.4114 3.724 0.1172 0
M  V30 35 H 1.846 -4.1329 1.0671 0
M  V30 36 H 3.4989 -3.6959 0.6213 0
M  V30 37 H 2.2895 -3.8354 -0.6595 0
M  V30 38 H 4.5601 1.5473 0.8678 0
M  V30 39 H 4.601 3.2585 1.3006 0
M  V30 40 H 3.5731 2.0232 -1.1205 0
M  V30 41 H 3.5893 3.7505 -0.7551 0
M  V30 END ATOM
M  V30 BEGIN BOND
M  V30 1 2 1 2
M  V30 2 1 2 3
M  V30 3 1 2 4
M  V30 4 1 3 5
M  V30 5 1 4 6
M  V30 6 1 6 7
M  V30 7 2 7 8
M  V30 8 1 7 9
M  V30 9 1 8 10
M  V30 10 2 9 11
M  V30 11 1 10 12
M  V30 12 2 10 13
M  V30 13 1 12 14
M  V30 14 1 13 15
M  V30 15 1 14 16
M  V30 16 1 14 17
M  V30 17 1 15 18
M  V30 18 1 16 19
M  V30 19 1 17 20
M  V30 20 1 5 6
M  V30 21 1 11 13
M  V30 22 1 19 20
M  V30 23 1 3 21
M  V30 24 1 4 22
M  V30 25 1 4 23
M  V30 26 1 5 24
M  V30 27 1 5 25
M  V30 28 1 6 26
M  V30 29 1 8 27
M  V30 30 1 9 28
M  V30 31 1 11 29
M  V30 32 1 14 30
M  V30 33 1 16 31
M  V30 34 1 16 32
M  V30 35 1 17 33
M  V30 36 1 17 34
M  V30 37 1 18 35
M  V30 38 1 18 36
M  V30 39 1 18 37
M  V30 40 1 19 38
M  V30 41 1 19 39
M  V30 42 1 20 40
M  V30 43 1 20 41
M  V30 END BOND
M  V30 BEGIN COLLECTION
M  V30 MDLV30/STERAC1 ATOMS=(1 6)
M  V30 END COLLECTION
M  V30 END CTAB
M  END
>  <NO.>
875

>  <Name>
rolipram

>  <SMILES>
COc1ccc(C2CNC(=O)C2)cc1OC1CCCC1

>  <logBB>
0.61

>  <Class>
1

>  <MW>
275.15

>  <nHBAcc>
3

>  <nHBDon>
1

>  <SLogP>
2.62

>  <TopoPSA>
47.56

>  <MMFF94 Energy>
38.278

$$$$
COc1cc2sc(C3CC3)nc2cc1CNC1CCCNC1c1ccccc1
Actelion Java MolfileCreator 2.0

  0  0  0  0  0  0              0 V3000
M  V30 BEGIN CTAB
M  V30 COUNTS 55 59 0 0 0
M  V30 BEGIN ATOM
M  V30 1 S -1.05 3.4764 4.1242 0
M  V30 2 C -1.0136 2.8704 2.5098 0
M  V30 3 C -1.4061 1.9068 4.693 0
M  V30 4 C -1.2744 1.5007 2.5359 0
M  V30 5 C -0.7656 3.5637 1.3105 0
M  V30 6 N -1.4969 0.9598 3.7911 0
M  V30 7 C -1.599 1.6024 6.2143 0
M  V30 8 C -1.2904 0.7981 1.3175 0
M  V30 9 C -0.7865 2.8492 0.1037 0
M  V30 10 C -2.8658 2.049 6.8994 0
M  V30 11 C -2.6343 0.5901 6.635 0
M  V30 12 C -1.0622 1.471 0.0993 0
M  V30 13 O -0.5454 3.4117 -1.1255 0
M  V30 14 C -1.0786 0.6633 -1.1813 0
M  V30 15 C -0.2292 4.7978 -1.1656 0
M  V30 16 N 0.2254 0.0489 -1.4078 0
M  V30 17 C 0.2661 -0.8549 -2.5702 0
M  V30 18 C 1.5571 -1.7635 -2.5487 0
M  V30 19 C 0.2219 -0.0528 -3.8865 0
M  V30 20 N 1.6484 -2.6101 -3.7586 0
M  V30 21 C 1.7298 -2.6687 -1.3275 0
M  V30 22 C 0.3707 -0.9726 -5.094 0
M  V30 23 C 1.6297 -1.8216 -4.9843 0
M  V30 24 C 3.0106 -3.1845 -1.0503 0
M  V30 25 C 0.6745 -3.0438 -0.4827 0
M  V30 26 C 3.2308 -4.0281 0.0404 0
M  V30 27 C 0.8954 -3.8856 0.6118 0
M  V30 28 C 2.1721 -4.3763 0.8737 0
M  V30 29 H -0.5622 4.6268 1.3534 0
M  V30 30 H -0.6788 1.6285 6.7877 0
M  V30 31 H -1.4726 -0.2727 1.332 0
M  V30 32 H -3.6276 2.5509 6.3133 0
M  V30 33 H -2.7906 2.3989 7.9223 0
M  V30 34 H -2.3974 -0.0528 7.4743 0
M  V30 35 H -3.2253 0.1093 5.8629 0
M  V30 36 H -1.3818 1.2989 -2.0198 0
M  V30 37 H -1.8525 -0.1101 -1.0923 0
M  V30 38 H -1.0648 5.4036 -0.7998 0
M  V30 39 H -0.0547 5.0697 -2.2111 0
M  V30 40 H 0.6897 5.0098 -0.6093 0
M  V30 41 H 0.9275 0.7826 -1.4996 0
M  V30 42 H -0.6122 -1.5144 -2.5452 0
M  V30 43 H 2.4234 -1.0842 -2.5461 0
M  V30 44 H 1.0273 0.6932 -3.9006 0
M  V30 45 H -0.7225 0.4941 -3.9816 0
M  V30 46 H 0.8665 -3.2644 -3.7479 0
M  V30 47 H 0.4088 -0.3726 -6.0104 0
M  V30 48 H -0.5108 -1.6212 -5.173 0
M  V30 49 H 2.5228 -1.1867 -5.0315 0
M  V30 50 H 1.686 -2.5007 -5.8421 0
M  V30 51 H 3.8454 -2.9311 -1.701 0
M  V30 52 H -0.3343 -2.6788 -0.6496 0
M  V30 53 H 4.2278 -4.4128 0.2352 0
M  V30 54 H 0.0671 -4.1541 1.2622 0
M  V30 55 H 2.3404 -5.0296 1.7252 0
M  V30 END ATOM
M  V30 BEGIN BOND
M  V30 1 1 1 2
M  V30 2 1 1 3
M  V30 3 2 2 4
M  V30 4 1 2 5
M  V30 5 2 3 6
M  V30 6 1 3 7
M  V30 7 1 4 8
M  V30 8 2 5 9
M  V30 9 1 7 10
M  V30 10 1 7 11
M  V30 11 2 8 12
M  V30 12 1 9 13
M  V30 13 1 12 14
M  V30 14 1 13 15
M  V30 15 1 14 16
M  V30 16 1 16 17
M  V30 17 1 17 18
M  V30 18 1 17 19
M  V30 19 1 18 20
M  V30 20 1 18 21
M  V30 21 1 19 22
M  V30 22 1 20 23
M  V30 23 2 21 24
M  V30 24 1 21 25
M  V30 25 1 24 26
M  V30 26 2 25 27
M  V30 27 2 26 28
M  V30 28 1 4 6
M  V30 29 1 9 12
M  V30 30 1 10 11
M  V30 31 1 22 23
M  V30 32 1 27 28
M  V30 33 1 5 29
M  V30 34 1 7 30
M  V30 35 1 8 31
M  V30 36 1 10 32
M  V30 37 1 10 33
M  V30 38 1 11 34
M  V30 39 1 11 35
M  V30 40 1 14 36
M  V30 41 1 14 37
M  V30 42 1 15 38
M  V30 43 1 15 39
M  V30 44 1 15 40
M  V30 45 1 16 41
M  V30 46 1 17 42
M  V30 47 1 18 43
M  V30 48 1 19 44
M  V30 49 1 19 45
M  V30 50 1 20 46
M  V30 51 1 22 47
M  V30 52 1 22 48
M  V30 53 1 23 49
M  V30 54 1 23 50
M  V30 55 1 24 51
M  V30 56 1 25 52
M  V30 57 1 26 53
M  V30 58 1 27 54
M  V30 59 1 28 55
M  V30 END BOND
M  V30 END CTAB
M  END
>  <NO.>
877

>  <Name>
pfizer compound 24

>  <SMILES>
COc1cc2sc(C3CC3)nc2cc1CNC1CCCNC1c1ccccc1

>  <logBB>
0.62

>  <Class>
1

>  <MW>
393.19

>  <nHBAcc>
5

>  <nHBDon>
2

>  <SLogP>
4.77

>  <TopoPSA>
46.18

>  <MMFF94 Energy>
82.402

$$$$
COc1ccc(C(CN(C)C)C2(O)CCCCC2)cc1
Actelion Java MolfileCreator 2.0

  0  0  0  0  0  0              0 V3000
M  V30 BEGIN CTAB
M  V30 COUNTS 47 48 0 0 0
M  V30 BEGIN ATOM
M  V30 1 O -3.5414 -0.7075 -4.0143 0
M  V30 2 C -2.7405 -0.3973 -2.9507 0
M  V30 3 C -4.8831 -0.2402 -3.9625 0
M  V30 4 C -1.4398 -0.8911 -3.0312 0
M  V30 5 C -3.1068 0.3476 -1.835 0
M  V30 6 C -0.5118 -0.6513 -2.01 0
M  V30 7 C -2.1767 0.5899 -0.8161 0
M  V30 8 C -0.861 0.0941 -0.8792 0
M  V30 9 C 0.0963 0.3978 0.2857 0 CFG=2
M  V30 10 C 1.6479 0.4328 -0.0323 0
M  V30 11 C -0.2249 -0.5126 1.5149 0
M  V30 12 O 1.8777 1.0172 -1.3267 0
M  V30 13 C 2.3449 -0.9478 -0.0026 0
M  V30 14 C 2.3601 1.3717 0.9794 0
M  V30 15 N -1.4847 -0.1888 2.2235 0
M  V30 16 C 3.853 -0.8511 -0.2516 0
M  V30 17 C 3.8711 1.4606 0.7499 0
M  V30 18 C -1.3417 1.0016 3.0652 0
M  V30 19 C -1.9086 -1.3251 3.046 0
M  V30 20 C 4.5238 0.0842 0.747 0
M  V30 21 H -5.4181 -0.6675 -3.1079 0
M  V30 22 H -5.3892 -0.5756 -4.8729 0
M  V30 23 H -4.9198 0.854 -3.9456 0
M  V30 24 H -1.1383 -1.4696 -3.9011 0
M  V30 25 H -4.1054 0.7537 -1.7175 0
M  V30 26 H 0.487 -1.0498 -2.1448 0
M  V30 27 H -2.4984 1.1686 0.0484 0
M  V30 28 H -0.1413 1.4384 0.549 0
M  V30 29 H 0.593 -0.4918 2.2441 0
M  V30 30 H -0.2799 -1.5459 1.1448 0
M  V30 31 H 1.2166 1.7186 -1.4652 0
M  V30 32 H 2.1962 -1.4362 0.9667 0
M  V30 33 H 1.9297 -1.6187 -0.7584 0
M  V30 34 H 1.9515 2.3869 0.8955 0
M  V30 35 H 2.1816 1.0368 2.0074 0
M  V30 36 H 4.2998 -1.8489 -0.1733 0
M  V30 37 H 4.0422 -0.5002 -1.2731 0
M  V30 38 H 4.0732 1.9643 -0.203 0
M  V30 39 H 4.3233 2.0793 1.5336 0
M  V30 40 H -1.0915 1.8847 2.4699 0
M  V30 41 H -0.5704 0.8748 3.8336 0
M  V30 42 H -2.2891 1.2308 3.5665 0
M  V30 43 H -1.1634 -1.5856 3.8063 0
M  V30 44 H -2.0894 -2.2068 2.4211 0
M  V30 45 H -2.8557 -1.1038 3.5509 0
M  V30 46 H 4.4617 -0.3504 1.7523 0
M  V30 47 H 5.5885 0.1802 0.5065 0
M  V30 END ATOM
M  V30 BEGIN BOND
M  V30 1 1 1 2
M  V30 2 1 1 3
M  V30 3 2 2 4
M  V30 4 1 2 5
M  V30 5 1 4 6
M  V30 6 2 5 7
M  V30 7 2 6 8
M  V30 8 1 8 9
M  V30 9 1 9 10
M  V30 10 1 9 11
M  V30 11 1 10 12
M  V30 12 1 10 13
M  V30 13 1 10 14
M  V30 14 1 11 15
M  V30 15 1 13 16
M  V30 16 1 14 17
M  V30 17 1 15 18
M  V30 18 1 15 19
M  V30 19 1 16 20
M  V30 20 1 7 8
M  V30 21 1 17 20
M  V30 22 1 3 21
M  V30 23 1 3 22
M  V30 24 1 3 23
M  V30 25 1 4 24
M  V30 26 1 5 25
M  V30 27 1 6 26
M  V30 28 1 7 27
M  V30 29 1 9 28
M  V30 30 1 11 29
M  V30 31 1 11 30
M  V30 32 1 12 31
M  V30 33 1 13 32
M  V30 34 1 13 33
M  V30 35 1 14 34
M  V30 36 1 14 35
M  V30 37 1 16 36
M  V30 38 1 16 37
M  V30 39 1 17 38
M  V30 40 1 17 39
M  V30 41 1 18 40
M  V30 42 1 18 41
M  V30 43 1 18 42
M  V30 44 1 19 43
M  V30 45 1 19 44
M  V30 46 1 19 45
M  V30 47 1 20 46
M  V30 48 1 20 47
M  V30 END BOND
M  V30 BEGIN COLLECTION
M  V30 MDLV30/STERAC1 ATOMS=(1 9)
M  V30 END COLLECTION
M  V30 END CTAB
M  END
>  <NO.>
878

>  <Name>
venlafaxine

>  <SMILES>
COc1ccc(C(CN(C)C)C2(O)CCCCC2)cc1

>  <logBB>
0.62

>  <Class>
1

>  <MW>
277.2

>  <nHBAcc>
3

>  <nHBDon>
1

>  <SLogP>
3.04

>  <TopoPSA>
32.7

>  <MMFF94 Energy>
78.116

$$$$
COc1ccc(OC(F)(F)F)cc1CNC1CCCNC1c1ccccc1
Actelion Java MolfileCreator 2.0

  0  0  0  0  0  0              0 V3000
M  V30 BEGIN CTAB
M  V30 COUNTS 50 52 0 0 0
M  V30 BEGIN ATOM
M  V30 1 F 3.4403 -1.359 -1.679 0
M  V30 2 C 3.2182 -0.6932 -2.8315 0
M  V30 3 F 1.9294 -0.826 -3.206 0
M  V30 4 F 3.9893 -1.2571 -3.7903 0
M  V30 5 O 3.582 0.673 -2.7135 0
M  V30 6 C 2.9018 1.4349 -1.8088 0
M  V30 7 C 1.9129 0.9969 -0.9318 0
M  V30 8 C 3.2677 2.7801 -1.787 0
M  V30 9 C 1.2701 1.8919 -0.045 0
M  V30 10 C 2.6584 3.6771 -0.9032 0
M  V30 11 C 1.6631 3.2422 -0.0236 0
M  V30 12 C 0.2218 1.3522 0.9109 0
M  V30 13 O 1.0266 4.0448 0.8858 0
M  V30 14 N -0.6933 0.4426 0.2233 0
M  V30 15 C 1.4 5.4163 0.9274 0
M  V30 16 C -1.4999 -0.3931 1.1229 0
M  V30 17 C -2.0832 -1.6387 0.3559 0
M  V30 18 C -2.6497 0.4153 1.7476 0
M  V30 19 N -2.9657 -2.461 1.2073 0
M  V30 20 C -1.0042 -2.5281 -0.2587 0
M  V30 21 C -3.551 -0.4873 2.5857 0
M  V30 22 C -4.0576 -1.6733 1.7716 0
M  V30 23 C -1.0973 -2.8996 -1.6102 0
M  V30 24 C 0.0867 -3.0033 0.4879 0
M  V30 25 C -0.1179 -3.6994 -2.2029 0
M  V30 26 C 1.0662 -3.8023 -0.1066 0
M  V30 27 C 0.9652 -4.1476 -1.4518 0
M  V30 28 H 1.6018 -0.0461 -0.9045 0
M  V30 29 H 4.0403 3.1406 -2.4627 0
M  V30 30 H 2.9911 4.7094 -0.9282 0
M  V30 31 H -0.3572 2.1627 1.3637 0
M  V30 32 H 0.7589 0.8351 1.7156 0
M  V30 33 H -1.2809 0.9688 -0.4206 0
M  V30 34 H 2.4523 5.5307 1.2074 0
M  V30 35 H 0.7964 5.903 1.6996 0
M  V30 36 H 1.1852 5.9132 -0.0242 0
M  V30 37 H -0.8631 -0.7632 1.9373 0
M  V30 38 H -2.6975 -1.2518 -0.4704 0
M  V30 39 H -2.2596 1.2184 2.3833 0
M  V30 40 H -3.2492 0.8915 0.9607 0
M  V30 41 H -2.4069 -2.8655 1.9569 0
M  V30 42 H -2.9973 -0.8476 3.4618 0
M  V30 43 H -4.4022 0.0913 2.9619 0
M  V30 44 H -4.7181 -1.3268 0.9676 0
M  V30 45 H -4.6644 -2.3214 2.4136 0
M  V30 46 H -1.9369 -2.5616 -2.2131 0
M  V30 47 H 0.1893 -2.7515 1.5394 0
M  V30 48 H -0.2025 -3.9705 -3.2516 0
M  V30 49 H 1.9095 -4.1537 0.4816 0
M  V30 50 H 1.7281 -4.768 -1.9133 0
M  V30 END ATOM
M  V30 BEGIN BOND
M  V30 1 1 1 2
M  V30 2 1 2 3
M  V30 3 1 2 4
M  V30 4 1 2 5
M  V30 5 1 5 6
M  V30 6 2 6 7
M  V30 7 1 6 8
M  V30 8 1 7 9
M  V30 9 2 8 10
M  V30 10 2 9 11
M  V30 11 1 9 12
M  V30 12 1 11 13
M  V30 13 1 12 14
M  V30 14 1 13 15
M  V30 15 1 14 16
M  V30 16 1 16 17
M  V30 17 1 16 18
M  V30 18 1 17 19
M  V30 19 1 17 20
M  V30 20 1 18 21
M  V30 21 1 19 22
M  V30 22 2 20 23
M  V30 23 1 20 24
M  V30 24 1 23 25
M  V30 25 2 24 26
M  V30 26 2 25 27
M  V30 27 1 10 11
M  V30 28 1 21 22
M  V30 29 1 26 27
M  V30 30 1 7 28
M  V30 31 1 8 29
M  V30 32 1 10 30
M  V30 33 1 12 31
M  V30 34 1 12 32
M  V30 35 1 14 33
M  V30 36 1 15 34
M  V30 37 1 15 35
M  V30 38 1 15 36
M  V30 39 1 16 37
M  V30 40 1 17 38
M  V30 41 1 18 39
M  V30 42 1 18 40
M  V30 43 1 19 41
M  V30 44 1 21 42
M  V30 45 1 21 43
M  V30 46 1 22 44
M  V30 47 1 22 45
M  V30 48 1 23 46
M  V30 49 1 24 47
M  V30 50 1 25 48
M  V30 51 1 26 49
M  V30 52 1 27 50
M  V30 END BOND
M  V30 END CTAB
M  END
>  <NO.>
879

>  <Name>
145877-52-7

>  <SMILES>
COc1ccc(OC(F)(F)F)cc1CNC1CCCNC1c1ccccc1

>  <logBB>
0.63

>  <Class>
1

>  <MW>
380.17

>  <nHBAcc>
4

>  <nHBDon>
2

>  <SLogP>
4.18

>  <TopoPSA>
42.52

>  <MMFF94 Energy>
75.866

$$$$
Cc1ccc(O)c(Cn2c(NC3CCN(CCN)CC3)nc3c(C)cccc32)n1
Actelion Java MolfileCreator 2.0

  0  0  0  0  0  0              0 V3000
M  V30 BEGIN CTAB
M  V30 COUNTS 59 62 0 0 0
M  V30 BEGIN ATOM
M  V30 1 O 0.0789 -1.2633 2.1325 0
M  V30 2 C 1.4173 -1.1102 2.3621 0
M  V30 3 C 2.3545 -1.5204 1.4145 0
M  V30 4 C 1.8617 -0.5537 3.5564 0
M  V30 5 N 3.6948 -1.4121 1.635 0
M  V30 6 C 1.938 -2.1019 0.0901 0
M  V30 7 C 3.2298 -0.4234 3.7775 0
M  V30 8 C 4.1137 -0.8624 2.7988 0
M  V30 9 N 1.7614 -1.0716 -0.9189 0
M  V30 10 C 5.593 -0.7344 3.0052 0
M  V30 11 C 0.5732 -0.4785 -1.286 0
M  V30 12 C 2.7504 -0.5983 -1.7569 0
M  V30 13 N 0.7414 0.3032 -2.3264 0
M  V30 14 N -0.575 -0.705 -0.6162 0
M  V30 15 C 2.0799 0.2523 -2.6299 0
M  V30 16 C 4.1286 -0.83 -1.8316 0
M  V30 17 C -1.8004 -0.021 -1.0075 0
M  V30 18 C 2.7891 0.9177 -3.6509 0
M  V30 19 C 4.8296 -0.1675 -2.8417 0
M  V30 20 C -3.0004 -0.9113 -0.6741 0
M  V30 21 C -1.9068 1.3175 -0.2746 0
M  V30 22 C 4.1769 0.6856 -3.7338 0
M  V30 23 C 2.1343 1.8471 -4.6291 0
M  V30 24 C -4.3129 -0.1663 -0.9198 0
M  V30 25 C -3.2593 1.9736 -0.5462 0
M  V30 26 N -4.4136 1.1206 -0.2156 0
M  V30 27 C -4.6019 0.9944 1.2415 0
M  V30 28 C -6.0081 0.491 1.6313 0
M  V30 29 N -6.1611 0.3967 3.0869 0
M  V30 30 H -0.4042 -0.8566 2.8743 0
M  V30 31 H 1.1678 -0.218 4.3204 0
M  V30 32 H 1.0186 -2.6913 0.171 0
M  V30 33 H 2.7061 -2.7957 -0.272 0
M  V30 34 H 3.5975 0.0136 4.7006 0
M  V30 35 H 6.1418 -1.1257 2.1425 0
M  V30 36 H 5.8669 0.3172 3.1349 0
M  V30 37 H 5.9016 -1.2989 3.8905 0
M  V30 38 H -0.5739 -1.1464 0.3012 0
M  V30 39 H 4.6394 -1.4821 -1.1305 0
M  V30 40 H -1.8122 0.1576 -2.0916 0
M  V30 41 H 5.9032 -0.3172 -2.9314 0
M  V30 42 H -2.9491 -1.2567 0.366 0
M  V30 43 H -2.9725 -1.8155 -1.295 0
M  V30 44 H -1.7635 1.1764 0.8044 0
M  V30 45 H -1.1055 1.9905 -0.6033 0
M  V30 46 H 4.7582 1.1838 -4.5074 0
M  V30 47 H 2.5662 2.8493 -4.5432 0
M  V30 48 H 1.0577 1.9263 -4.4484 0
M  V30 49 H 2.2793 1.4816 -5.6507 0
M  V30 50 H -4.4126 0.0259 -1.9966 0
M  V30 51 H -5.1571 -0.8182 -0.673 0
M  V30 52 H -3.3204 2.2402 -1.6097 0
M  V30 53 H -3.3243 2.927 -0.0074 0
M  V30 54 H -4.4824 1.9845 1.7025 0
M  V30 55 H -3.8374 0.351 1.6926 0
M  V30 56 H -6.2083 -0.4961 1.2045 0
M  V30 57 H -6.765 1.1812 1.242 0
M  V30 58 H -7.1177 0.1129 3.2975 0
M  V30 59 H -5.5617 -0.3463 3.4418 0
M  V30 END ATOM
M  V30 BEGIN BOND
M  V30 1 1 1 2
M  V30 2 2 2 3
M  V30 3 1 2 4
M  V30 4 1 3 5
M  V30 5 1 3 6
M  V30 6 2 4 7
M  V30 7 2 5 8
M  V30 8 1 6 9
M  V30 9 1 8 10
M  V30 10 1 9 11
M  V30 11 1 9 12
M  V30 12 2 11 13
M  V30 13 1 11 14
M  V30 14 2 12 15
M  V30 15 1 12 16
M  V30 16 1 14 17
M  V30 17 1 15 18
M  V30 18 2 16 19
M  V30 19 1 17 20
M  V30 20 1 17 21
M  V30 21 2 18 22
M  V30 22 1 18 23
M  V30 23 1 20 24
M  V30 24 1 21 25
M  V30 25 1 24 26
M  V30 26 1 26 27
M  V30 27 1 27 28
M  V30 28 1 28 29
M  V30 29 1 7 8
M  V30 30 1 13 15
M  V30 31 1 19 22
M  V30 32 1 25 26
M  V30 33 1 1 30
M  V30 34 1 4 31
M  V30 35 1 6 32
M  V30 36 1 6 33
M  V30 37 1 7 34
M  V30 38 1 10 35
M  V30 39 1 10 36
M  V30 40 1 10 37
M  V30 41 1 14 38
M  V30 42 1 16 39
M  V30 43 1 17 40
M  V30 44 1 19 41
M  V30 45 1 20 42
M  V30 46 1 20 43
M  V30 47 1 21 44
M  V30 48 1 21 45
M  V30 49 1 22 46
M  V30 50 1 23 47
M  V30 51 1 23 48
M  V30 52 1 23 49
M  V30 53 1 24 50
M  V30 54 1 24 51
M  V30 55 1 25 52
M  V30 56 1 25 53
M  V30 57 1 27 54
M  V30 58 1 27 55
M  V30 59 1 28 56
M  V30 60 1 28 57
M  V30 61 1 29 58
M  V30 62 1 29 59
M  V30 END BOND
M  V30 END CTAB
M  END
>  <NO.>
880

>  <Name>
jnj-2408068

>  <SMILES>
Cc1ccc(O)c(Cn2c(NC3CCN(CCN)CC3)nc3c(C)cccc32)n1

>  <logBB>
0.63

>  <Class>
1

>  <MW>
394.25

>  <nHBAcc>
6

>  <nHBDon>
3

>  <SLogP>
2.64

>  <TopoPSA>
92.23

>  <MMFF94 Energy>
38.053

$$$$
OC(c1cc(C(F)(F)F)nc2c(C(F)(F)F)cccc12)C1CCCCN1
Actelion Java MolfileCreator 2.0

  0  0  0  0  0  0              0 V3000
M  V30 BEGIN CTAB
M  V30 COUNTS 42 44 0 0 0
M  V30 BEGIN ATOM
M  V30 1 F -4.9055 0.0816 -2.287 0
M  V30 2 C -4.1981 0.5664 -1.2292 0
M  V30 3 F -4.6949 -0.064 -0.1241 0
M  V30 4 F -4.576 1.873 -1.0976 0
M  V30 5 C -2.6874 0.4081 -1.3501 0
M  V30 6 N -2.1707 -0.3896 -2.3201 0
M  V30 7 C -1.8681 1.0604 -0.439 0
M  V30 8 C -0.8411 -0.5379 -2.4382 0
M  V30 9 C -0.4742 0.9147 -0.5199 0
M  V30 10 C 0.0666 0.1043 -1.5576 0
M  V30 11 C -0.3477 -1.3516 -3.4583 0
M  V30 12 C 0.3543 1.6234 0.5395 0
M  V30 13 C 1.4526 -0.0939 -1.7643 0
M  V30 14 C 1.0356 -1.5364 -3.6303 0
M  V30 15 C -1.3154 -2.0367 -4.3867 0
M  V30 16 O 1.3568 2.4299 -0.0884 0
M  V30 17 C 1.0231 0.6783 1.5863 0
M  V30 18 C 1.9336 -0.9056 -2.7867 0
M  V30 19 F -0.6827 -2.8054 -5.327 0
M  V30 20 F -2.1648 -2.8942 -3.7535 0
M  V30 21 F -2.0895 -1.176 -5.105 0
M  V30 22 N 1.9644 1.4819 2.4138 0
M  V30 23 C -0.012 -0.0324 2.4721 0
M  V30 24 C 2.6707 0.6253 3.3736 0
M  V30 25 C 0.6678 -0.8936 3.5346 0
M  V30 26 C 1.7003 -0.0859 4.3137 0
M  V30 27 H -2.3184 1.6804 0.3339 0
M  V30 28 H -0.2827 2.3367 1.0791 0
M  V30 29 H 2.1883 0.4028 -1.1364 0
M  V30 30 H 1.4123 -2.1699 -4.4322 0
M  V30 31 H 2.0484 2.5323 0.5985 0
M  V30 32 H 1.6201 -0.0746 1.0582 0
M  V30 33 H 3.0044 -1.0345 -2.9244 0
M  V30 34 H 1.4288 2.175 2.9426 0
M  V30 35 H -0.6568 0.7071 2.9644 0
M  V30 36 H -0.6632 -0.6709 1.8648 0
M  V30 37 H 3.356 1.2467 3.9606 0
M  V30 38 H 3.2898 -0.1036 2.8372 0
M  V30 39 H 1.1617 -1.7451 3.0503 0
M  V30 40 H -0.0817 -1.3048 4.2198 0
M  V30 41 H 2.2552 -0.7478 4.9881 0
M  V30 42 H 1.187 0.653 4.942 0
M  V30 END ATOM
M  V30 BEGIN BOND
M  V30 1 1 1 2
M  V30 2 1 2 3
M  V30 3 1 2 4
M  V30 4 1 2 5
M  V30 5 2 5 6
M  V30 6 1 5 7
M  V30 7 1 6 8
M  V30 8 2 7 9
M  V30 9 1 8 10
M  V30 10 2 8 11
M  V30 11 1 9 12
M  V30 12 2 10 13
M  V30 13 1 11 14
M  V30 14 1 11 15
M  V30 15 1 12 16
M  V30 16 1 12 17
M  V30 17 1 13 18
M  V30 18 1 15 19
M  V30 19 1 15 20
M  V30 20 1 15 21
M  V30 21 1 17 22
M  V30 22 1 17 23
M  V30 23 1 22 24
M  V30 24 1 23 25
M  V30 25 1 24 26
M  V30 26 1 9 10
M  V30 27 2 14 18
M  V30 28 1 25 26
M  V30 29 1 7 27
M  V30 30 1 12 28
M  V30 31 1 13 29
M  V30 32 1 14 30
M  V30 33 1 16 31
M  V30 34 1 17 32
M  V30 35 1 18 33
M  V30 36 1 22 34
M  V30 37 1 23 35
M  V30 38 1 23 36
M  V30 39 1 24 37
M  V30 40 1 24 38
M  V30 41 1 25 39
M  V30 42 1 25 40
M  V30 43 1 26 41
M  V30 44 1 26 42
M  V30 END BOND
M  V30 END CTAB
M  END
>  <NO.>
881

>  <Name>
mefloquine

>  <SMILES>
OC(c1cc(C(F)(F)F)nc2c(C(F)(F)F)cccc12)C1CCCCN1

>  <logBB>
0.63

>  <Class>
1

>  <MW>
378.12

>  <nHBAcc>
3

>  <nHBDon>
2

>  <SLogP>
4.45

>  <TopoPSA>
45.15

>  <MMFF94 Energy>
124.8

$$$$
CCC(C)Nc1ccc(I)c(NC(C)CC)c1
Actelion Java MolfileCreator 2.0

  0  0  0  0  0  0              0 V3000
M  V30 BEGIN CTAB
M  V30 COUNTS 40 40 0 0 0
M  V30 BEGIN ATOM
M  V30 1 I -3.2318 -2.3639 3.2318 0
M  V30 2 C -2.4157 -0.8793 1.977 0
M  V30 3 C -1.2799 -1.13 1.1825 0
M  V30 4 C -3.0514 0.3637 1.9694 0
M  V30 5 N -0.6736 -2.3759 1.1992 0
M  V30 6 C -0.8209 -0.0692 0.3805 0
M  V30 7 C -2.5576 1.3876 1.1629 0
M  V30 8 C 0.4825 -2.8204 0.4372 0
M  V30 9 C -1.4287 1.1975 0.3604 0
M  V30 10 C 1.732 -2.8496 1.3311 0
M  V30 11 C 0.1838 -4.2301 -0.0833 0
M  V30 12 N -0.9963 2.2484 -0.4285 0
M  V30 13 C 2.2147 -1.4657 1.7431 0
M  V30 14 C 0.1584 2.2317 -1.3203 0
M  V30 15 C -0.0798 3.2789 -2.4257 0
M  V30 16 C 1.4238 2.5291 -0.5156 0
M  V30 17 C 0.9835 3.2664 -3.5142 0
M  V30 18 H -3.9293 0.5503 2.5814 0
M  V30 19 H -1.062 -3.0374 1.8662 0
M  V30 20 H 0.052 -0.2265 -0.2387 0
M  V30 21 H -3.0693 2.3467 1.167 0
M  V30 22 H 0.6672 -2.1955 -0.4418 0
M  V30 23 H 2.5486 -3.3474 0.7938 0
M  V30 24 H 1.5395 -3.4413 2.235 0
M  V30 25 H -0.7119 -4.228 -0.7142 0
M  V30 26 H 1.0179 -4.6097 -0.6825 0
M  V30 27 H 0.0075 -4.9327 0.739 0
M  V30 28 H -1.4457 3.1456 -0.2828 0
M  V30 29 H 3.1481 -1.548 2.3094 0
M  V30 30 H 1.4851 -0.9593 2.3816 0
M  V30 31 H 2.4066 -0.8391 0.8667 0
M  V30 32 H 0.2501 1.2555 -1.8099 0
M  V30 33 H -1.0541 3.0889 -2.8946 0
M  V30 34 H -0.1391 4.2846 -1.9905 0
M  V30 35 H 2.3187 2.4625 -1.1413 0
M  V30 36 H 1.5491 1.8174 0.3071 0
M  V30 37 H 1.3871 3.5323 -0.0764 0
M  V30 38 H 0.7077 3.9599 -4.3152 0
M  V30 39 H 1.9577 3.5794 -3.1281 0
M  V30 40 H 1.0868 2.2686 -3.9516 0
M  V30 END ATOM
M  V30 BEGIN BOND
M  V30 1 1 1 2
M  V30 2 2 2 3
M  V30 3 1 2 4
M  V30 4 1 3 5
M  V30 5 1 3 6
M  V30 6 2 4 7
M  V30 7 1 5 8
M  V30 8 2 6 9
M  V30 9 1 8 10
M  V30 10 1 8 11
M  V30 11 1 9 12
M  V30 12 1 10 13
M  V30 13 1 12 14
M  V30 14 1 14 15
M  V30 15 1 14 16
M  V30 16 1 15 17
M  V30 17 1 7 9
M  V30 18 1 4 18
M  V30 19 1 5 19
M  V30 20 1 6 20
M  V30 21 1 7 21
M  V30 22 1 8 22
M  V30 23 1 10 23
M  V30 24 1 10 24
M  V30 25 1 11 25
M  V30 26 1 11 26
M  V30 27 1 11 27
M  V30 28 1 12 28
M  V30 29 1 13 29
M  V30 30 1 13 30
M  V30 31 1 13 31
M  V30 32 1 14 32
M  V30 33 1 15 33
M  V30 34 1 15 34
M  V30 35 1 16 35
M  V30 36 1 16 36
M  V30 37 1 16 37
M  V30 38 1 17 38
M  V30 39 1 17 39
M  V30 40 1 17 40
M  V30 END BOND
M  V30 END CTAB
M  END
>  <NO.>
882

>  <Name>
4-iodo-n,n'-isopropyl-m- xylenediamine

>  <SMILES>
CCC(C)Nc1ccc(I)c(NC(C)CC)c1

>  <logBB>
0.64

>  <Class>
1

>  <MW>
346.09

>  <nHBAcc>
2

>  <nHBDon>
2

>  <SLogP>
4.71

>  <TopoPSA>
24.06

>  <MMFF94 Energy>
29.926

$$$$
CN(C)CCOC(C)(c1ccccc1)c1ccccn1
Actelion Java MolfileCreator 2.0

  0  0  0  0  0  0              0 V3000
M  V30 BEGIN CTAB
M  V30 COUNTS 42 43 0 0 0
M  V30 BEGIN ATOM
M  V30 1 O -0.4724 0.0 -0.8662 0
M  V30 2 C -0.9086 0.6973 0.3282 0 CFG=2
M  V30 3 C 0.4783 0.6575 -1.6988 0
M  V30 4 C 0.2703 1.348 1.0964 0
M  V30 5 C -1.6136 -0.3388 1.2418 0
M  V30 6 C -1.9945 1.6913 -0.1521 0
M  V30 7 C 0.6585 -0.1312 -3.0137 0
M  V30 8 N 1.3236 0.5423 1.4168 0
M  V30 9 C 0.2702 2.6978 1.4615 0
M  V30 10 C -1.6639 -1.7037 0.9034 0
M  V30 11 C -2.2195 0.0576 2.4517 0
M  V30 12 N 1.0635 -1.5461 -2.8812 0
M  V30 13 C 2.3587 1.0725 2.1017 0
M  V30 14 C 1.3564 3.2214 2.1628 0
M  V30 15 C -2.3054 -2.6303 1.7299 0
M  V30 16 C -2.8604 -0.8702 3.2773 0
M  V30 17 C 2.2986 -1.7065 -2.1169 0
M  V30 18 C 1.1918 -2.1636 -4.2 0
M  V30 19 C 2.4214 2.3957 2.4919 0
M  V30 20 C -2.9054 -2.2132 2.9146 0
M  V30 21 H 1.443 0.752 -1.1929 0
M  V30 22 H 0.1289 1.664 -1.9508 0
M  V30 23 H -1.5796 2.4584 -0.815 0
M  V30 24 H -2.4976 2.2094 0.6716 0
M  V30 25 H -2.7652 1.1695 -0.7337 0
M  V30 26 H -0.3087 -0.1121 -3.5325 0
M  V30 27 H 1.3768 0.4111 -3.6422 0
M  V30 28 H -0.556 3.3569 1.2205 0
M  V30 29 H -1.1932 -2.0615 -0.0113 0
M  V30 30 H -2.1889 1.0966 2.7705 0
M  V30 31 H 3.1606 0.3782 2.3349 0
M  V30 32 H 1.3659 4.2682 2.4542 0
M  V30 33 H -2.328 -3.6787 1.4454 0
M  V30 34 H -3.3185 -0.5438 4.207 0
M  V30 35 H 2.1645 -1.3951 -1.0761 0
M  V30 36 H 3.1279 -1.1366 -2.5509 0
M  V30 37 H 2.5933 -2.7615 -2.0769 0
M  V30 38 H 1.9802 -1.6951 -4.8004 0
M  V30 39 H 0.2486 -2.0936 -4.7535 0
M  V30 40 H 1.4189 -3.2314 -4.106 0
M  V30 41 H 3.2766 2.7717 3.0412 0
M  V30 42 H -3.3999 -2.9361 3.5572 0
M  V30 END ATOM
M  V30 BEGIN BOND
M  V30 1 1 1 2
M  V30 2 1 1 3
M  V30 3 1 2 4
M  V30 4 1 2 5
M  V30 5 1 2 6
M  V30 6 1 3 7
M  V30 7 2 4 8
M  V30 8 1 4 9
M  V30 9 2 5 10
M  V30 10 1 5 11
M  V30 11 1 7 12
M  V30 12 1 8 13
M  V30 13 2 9 14
M  V30 14 1 10 15
M  V30 15 2 11 16
M  V30 16 1 12 17
M  V30 17 1 12 18
M  V30 18 2 13 19
M  V30 19 2 15 20
M  V30 20 1 14 19
M  V30 21 1 16 20
M  V30 22 1 3 21
M  V30 23 1 3 22
M  V30 24 1 6 23
M  V30 25 1 6 24
M  V30 26 1 6 25
M  V30 27 1 7 26
M  V30 28 1 7 27
M  V30 29 1 9 28
M  V30 30 1 10 29
M  V30 31 1 11 30
M  V30 32 1 13 31
M  V30 33 1 14 32
M  V30 34 1 15 33
M  V30 35 1 16 34
M  V30 36 1 17 35
M  V30 37 1 17 36
M  V30 38 1 17 37
M  V30 39 1 18 38
M  V30 40 1 18 39
M  V30 41 1 18 40
M  V30 42 1 19 41
M  V30 43 1 20 42
M  V30 END BOND
M  V30 BEGIN COLLECTION
M  V30 MDLV30/STERAC1 ATOMS=(1 2)
M  V30 END COLLECTION
M  V30 END CTAB
M  END
>  <NO.>
883

>  <Name>
doxylamine

>  <SMILES>
CN(C)CCOC(C)(c1ccccc1)c1ccccn1

>  <logBB>
0.64

>  <Class>
1

>  <MW>
270.17

>  <nHBAcc>
3

>  <nHBDon>
0

>  <SLogP>
2.92

>  <TopoPSA>
25.36

>  <MMFF94 Energy>
121.22

$$$$
CC(C)NCC(O)COc1cccc2ccccc12
Actelion Java MolfileCreator 2.0

  0  0  0  0  0  0              0 V3000
M  V30 BEGIN CTAB
M  V30 COUNTS 40 41 0 0 0
M  V30 BEGIN ATOM
M  V30 1 O 1.0995 -0.0785 0.5496 0
M  V30 2 C 1.1012 0.6947 1.6867 0
M  V30 3 C -0.0152 0.0484 -0.3431 0
M  V30 4 C 2.2872 0.6543 2.4655 0
M  V30 5 C 0.0191 1.4801 2.0992 0
M  V30 6 C 0.2734 -0.8382 -1.5603 0 CFG=1
M  V30 7 C 2.3581 1.4222 3.6541 0
M  V30 8 C 3.4143 -0.1198 2.1102 0
M  V30 9 C 0.1004 2.2316 3.2703 0
M  V30 10 O 0.3065 -2.216 -1.1608 0
M  V30 11 C -0.7324 -0.6424 -2.7178 0
M  V30 12 C 1.2605 2.2036 4.0406 0
M  V30 13 C 3.5251 1.3952 4.4363 0
M  V30 14 C 4.5674 -0.137 2.8977 0
M  V30 15 N -2.1426 -0.8391 -2.3433 0
M  V30 16 C 4.6223 0.6206 4.0608 0
M  V30 17 C -3.0686 -0.6562 -3.469 0
M  V30 18 C -3.0067 -1.822 -4.4573 0
M  V30 19 C -4.4901 -0.5358 -2.9109 0
M  V30 20 H -0.1246 1.0917 -0.6612 0
M  V30 21 H -0.9179 -0.3043 0.1688 0
M  V30 22 H -0.9068 1.5249 1.5366 0
M  V30 23 H 1.2788 -0.6128 -1.9367 0
M  V30 24 H 3.3975 -0.7216 1.2038 0
M  V30 25 H -0.7443 2.8387 3.5864 0
M  V30 26 H 0.8185 -2.2477 -0.3317 0
M  V30 27 H -0.6044 0.3699 -3.1199 0
M  V30 28 H -0.4629 -1.3564 -3.5031 0
M  V30 29 H 1.3005 2.7973 4.9515 0
M  V30 30 H 3.5879 1.9812 5.3509 0
M  V30 31 H 5.4188 -0.7429 2.5993 0
M  V30 32 H -2.3951 -0.2025 -1.5912 0
M  V30 33 H 5.5174 0.61 4.677 0
M  V30 34 H -2.8393 0.279 -3.9946 0
M  V30 35 H -3.1791 -2.781 -3.9557 0
M  V30 36 H -2.039 -1.8731 -4.9653 0
M  V30 37 H -3.7716 -1.7099 -5.2339 0
M  V30 38 H -4.5747 0.3165 -2.2273 0
M  V30 39 H -4.7863 -1.439 -2.365 0
M  V30 40 H -5.2118 -0.3802 -3.7203 0
M  V30 END ATOM
M  V30 BEGIN BOND
M  V30 1 1 1 2
M  V30 2 1 1 3
M  V30 3 1 2 4
M  V30 4 2 2 5
M  V30 5 1 3 6
M  V30 6 1 4 7
M  V30 7 2 4 8
M  V30 8 1 5 9
M  V30 9 1 6 10
M  V30 10 1 6 11
M  V30 11 1 7 12
M  V30 12 2 7 13
M  V30 13 1 8 14
M  V30 14 1 11 15
M  V30 15 1 13 16
M  V30 16 1 15 17
M  V30 17 1 17 18
M  V30 18 1 17 19
M  V30 19 2 9 12
M  V30 20 2 14 16
M  V30 21 1 3 20
M  V30 22 1 3 21
M  V30 23 1 5 22
M  V30 24 1 6 23
M  V30 25 1 8 24
M  V30 26 1 9 25
M  V30 27 1 10 26
M  V30 28 1 11 27
M  V30 29 1 11 28
M  V30 30 1 12 29
M  V30 31 1 13 30
M  V30 32 1 14 31
M  V30 33 1 15 32
M  V30 34 1 16 33
M  V30 35 1 17 34
M  V30 36 1 18 35
M  V30 37 1 18 36
M  V30 38 1 18 37
M  V30 39 1 19 38
M  V30 40 1 19 39
M  V30 41 1 19 40
M  V30 END BOND
M  V30 BEGIN COLLECTION
M  V30 MDLV30/STERAC1 ATOMS=(1 6)
M  V30 END COLLECTION
M  V30 END CTAB
M  END
>  <NO.>
884

>  <Name>
upcmld-dp067

>  <SMILES>
CC(C)NCC(O)COc1cccc2ccccc12

>  <logBB>
0.64

>  <Class>
1

>  <MW>
259.16

>  <nHBAcc>
3

>  <nHBDon>
2

>  <SLogP>
2.58

>  <TopoPSA>
41.49

>  <MMFF94 Energy>
80.762

$$$$
Clc1ccc(N2CCN(Cc3cnn4ccccc34)CC2)cc1
Actelion Java MolfileCreator 2.0

  0  0  0  0  0  0              0 V3000
M  V30 BEGIN CTAB
M  V30 COUNTS 42 45 0 0 0
M  V30 BEGIN ATOM
M  V30 1 Cl 1.0484 -1.7748 -7.8434 0
M  V30 2 C 1.0014 -1.406 -6.1645 0
M  V30 3 C 0.1495 -0.4144 -5.6944 0
M  V30 4 C 1.8117 -2.1026 -5.2775 0
M  V30 5 C 0.113 -0.1183 -4.3256 0
M  V30 6 C 1.7684 -1.7968 -3.9119 0
M  V30 7 C 0.9261 -0.7941 -3.4018 0
M  V30 8 N 0.9001 -0.5191 -2.0388 0
M  V30 9 C 2.183 -0.2518 -1.3622 0
M  V30 10 C -0.2528 0.1756 -1.4412 0
M  V30 11 C 2.0586 -0.4567 0.1646 0
M  V30 12 C -0.3068 -0.0461 0.0878 0
M  V30 13 N 0.9561 0.3232 0.7721 0
M  V30 14 C 0.8895 0.0547 2.2159 0
M  V30 15 C -0.0142 1.034 2.8826 0
M  V30 16 C -1.2018 0.8122 3.5523 0
M  V30 17 C 0.1682 2.4307 2.9824 0
M  V30 18 N -1.6593 2.0542 4.0065 0
M  V30 19 C -1.9946 -0.3365 3.8469 0
M  V30 20 N -0.8036 3.0465 3.6555 0
M  V30 21 C -2.8493 2.1864 4.7252 0
M  V30 22 C -3.1404 -0.1948 4.5404 0
M  V30 23 C -3.5955 1.105 5.0017 0
M  V30 24 H -0.4881 0.1364 -6.38 0
M  V30 25 H 2.4723 -2.8883 -5.6319 0
M  V30 26 H -0.5544 0.6746 -4.0001 0
M  V30 27 H 2.3869 -2.3831 -3.2374 0
M  V30 28 H 2.4894 0.7811 -1.5721 0
M  V30 29 H 2.9856 -0.9058 -1.7189 0
M  V30 30 H -1.1922 -0.2031 -1.8625 0
M  V30 31 H -0.1897 1.2503 -1.6544 0
M  V30 32 H 3.0105 -0.1598 0.6217 0
M  V30 33 H 1.9189 -1.5276 0.3667 0
M  V30 34 H -0.5461 -1.1004 0.283 0
M  V30 35 H -1.1388 0.5538 0.4737 0
M  V30 36 H 0.5791 -0.9778 2.418 0
M  V30 37 H 1.885 0.1776 2.6628 0
M  V30 38 H 0.9818 3.0226 2.5818 0
M  V30 39 H -1.6716 -1.3158 3.5095 0
M  V30 40 H -3.1101 3.191 5.0289 0
M  V30 41 H -3.7576 -1.0575 4.7736 0
M  V30 42 H -4.5237 1.1757 5.5577 0
M  V30 END ATOM
M  V30 BEGIN BOND
M  V30 1 1 1 2
M  V30 2 2 2 3
M  V30 3 1 2 4
M  V30 4 1 3 5
M  V30 5 2 4 6
M  V30 6 2 5 7
M  V30 7 1 7 8
M  V30 8 1 8 9
M  V30 9 1 8 10
M  V30 10 1 9 11
M  V30 11 1 10 12
M  V30 12 1 11 13
M  V30 13 1 13 14
M  V30 14 1 14 15
M  V30 15 2 15 16
M  V30 16 1 15 17
M  V30 17 1 16 18
M  V30 18 1 16 19
M  V30 19 2 17 20
M  V30 20 1 18 21
M  V30 21 2 19 22
M  V30 22 2 21 23
M  V30 23 1 6 7
M  V30 24 1 12 13
M  V30 25 1 18 20
M  V30 26 1 22 23
M  V30 27 1 3 24
M  V30 28 1 4 25
M  V30 29 1 5 26
M  V30 30 1 6 27
M  V30 31 1 9 28
M  V30 32 1 9 29
M  V30 33 1 10 30
M  V30 34 1 10 31
M  V30 35 1 11 32
M  V30 36 1 11 33
M  V30 37 1 12 34
M  V30 38 1 12 35
M  V30 39 1 14 36
M  V30 40 1 14 37
M  V30 41 1 17 38
M  V30 42 1 19 39
M  V30 43 1 21 40
M  V30 44 1 22 41
M  V30 45 1 23 42
M  V30 END BOND
M  V30 END CTAB
M  END
>  <NO.>
886

>  <Name>
fauc-113

>  <SMILES>
Clc1ccc(N2CCN(Cc3cnn4ccccc34)CC2)cc1

>  <logBB>
0.64

>  <Class>
1

>  <MW>
326.13

>  <nHBAcc>
3

>  <nHBDon>
0

>  <SLogP>
3.31

>  <TopoPSA>
23.78

>  <MMFF94 Energy>
107.15

$$$$
CCc1nc(N)nc(N)c1-c1ccc(Cl)c(Cl)c1
Actelion Java MolfileCreator 2.0

  0  0  0  0  0  0              0 V3000
M  V30 BEGIN CTAB
M  V30 COUNTS 30 31 0 0 0
M  V30 BEGIN ATOM
M  V30 1 Cl -3.7994 -2.343 -2.1813 0
M  V30 2 C -2.137 -1.8748 -2.1331 0
M  V30 3 C -1.1747 -2.4409 -2.9748 0
M  V30 4 C -1.7643 -0.8908 -1.2099 0
M  V30 5 Cl -1.5585 -3.6589 -4.1376 0
M  V30 6 C 0.1542 -2.0186 -2.8901 0
M  V30 7 C -0.4304 -0.4615 -1.1123 0
M  V30 8 C 0.5228 -1.0357 -1.9671 0
M  V30 9 C -0.0447 0.5728 -0.1417 0
M  V30 10 C -0.253 1.9317 -0.3815 0
M  V30 11 C 0.5504 0.2784 1.0856 0
M  V30 12 N 0.0718 2.8932 0.4948 0
M  V30 13 N -0.8765 2.3862 -1.5327 0
M  V30 14 N 0.9053 1.2436 1.9638 0
M  V30 15 C 0.8367 -1.1535 1.492 0
M  V30 16 C 0.6457 2.5084 1.6329 0
M  V30 17 C 1.3408 -1.3265 2.9207 0
M  V30 18 N 0.9929 3.4758 2.5281 0
M  V30 19 H -2.5197 -0.4487 -0.5607 0
M  V30 20 H 0.9107 -2.4512 -3.5413 0
M  V30 21 H 1.5642 -0.7188 -1.9189 0
M  V30 22 H -0.6983 1.9071 -2.4025 0
M  V30 23 H -0.9727 3.3938 -1.5607 0
M  V30 24 H 1.5869 -1.5688 0.8093 0
M  V30 25 H -0.0814 -1.7437 1.3871 0
M  V30 26 H 1.5058 -2.3872 3.1356 0
M  V30 27 H 0.6156 -0.9434 3.6467 0
M  V30 28 H 2.2894 -0.8011 3.0749 0
M  V30 29 H 1.407 3.1862 3.3961 0
M  V30 30 H 0.7806 4.43 2.2983 0
M  V30 END ATOM
M  V30 BEGIN BOND
M  V30 1 1 1 2
M  V30 2 2 2 3
M  V30 3 1 2 4
M  V30 4 1 3 5
M  V30 5 1 3 6
M  V30 6 2 4 7
M  V30 7 2 6 8
M  V30 8 1 7 9
M  V30 9 2 9 10
M  V30 10 1 9 11
M  V30 11 1 10 12
M  V30 12 1 10 13
M  V30 13 2 11 14
M  V30 14 1 11 15
M  V30 15 2 12 16
M  V30 16 1 15 17
M  V30 17 1 16 18
M  V30 18 1 7 8
M  V30 19 1 14 16
M  V30 20 1 4 19
M  V30 21 1 6 20
M  V30 22 1 8 21
M  V30 23 1 13 22
M  V30 24 1 13 23
M  V30 25 1 15 24
M  V30 26 1 15 25
M  V30 27 1 17 26
M  V30 28 1 17 27
M  V30 29 1 17 28
M  V30 30 1 18 29
M  V30 31 1 18 30
M  V30 END BOND
M  V30 END CTAB
M  END
>  <NO.>
887

>  <Name>
etoprine

>  <SMILES>
CCc1nc(N)nc(N)c1-c1ccc(Cl)c(Cl)c1

>  <logBB>
0.65

>  <Class>
1

>  <MW>
282.04

>  <nHBAcc>
4

>  <nHBDon>
2

>  <SLogP>
3.18

>  <TopoPSA>
77.82

>  <MMFF94 Energy>
-79.79

$$$$
CC(C)(C)N1CCC(c2ccccc2)(c2ccccc2)CC1
Actelion Java MolfileCreator 2.0

  0  0  0  0  0  0              0 V3000
M  V30 BEGIN CTAB
M  V30 COUNTS 49 51 0 0 0
M  V30 BEGIN ATOM
M  V30 1 N 2.1414 0.1585 0.0 0
M  V30 2 C 3.3613 0.9857 -0.2483 0
M  V30 3 C 1.3794 -0.185 -1.209 0
M  V30 4 C 1.2331 0.7104 1.0172 0
M  V30 5 C 4.207 1.0738 1.0463 0
M  V30 6 C 3.0517 2.4211 -0.7236 0
M  V30 7 C 4.2743 0.316 -1.3051 0
M  V30 8 C 0.2213 -1.1556 -0.9272 0
M  V30 9 C 0.1457 -0.3037 1.3826 0
M  V30 10 C -0.77 -0.6763 0.1769 0
M  V30 11 C -1.7228 -1.868 0.4922 0
M  V30 12 C -1.6478 0.5473 -0.2117 0
M  V30 13 C -1.8223 -2.4547 1.766 0
M  V30 14 C -2.5522 -2.3863 -0.5245 0
M  V30 15 C -1.7431 1.0392 -1.5251 0
M  V30 16 C -2.4438 1.1772 0.768 0
M  V30 17 C -2.6964 -3.5203 2.0069 0
M  V30 18 C -3.4257 -3.4496 -0.283 0
M  V30 19 C -2.5542 2.1367 -1.8345 0
M  V30 20 C -3.2552 2.2724 0.4595 0
M  V30 21 C -3.4957 -4.0187 0.9832 0
M  V30 22 C -3.3046 2.7571 -0.8418 0
M  V30 23 H 1.0072 0.718 -1.7016 0
M  V30 24 H 2.0199 -0.698 -1.9333 0
M  V30 25 H 1.7717 0.9237 1.9452 0
M  V30 26 H 0.7785 1.6511 0.6865 0
M  V30 27 H 5.1863 1.5264 0.8485 0
M  V30 28 H 3.7333 1.6935 1.8145 0
M  V30 29 H 4.3874 0.0791 1.4704 0
M  V30 30 H 2.4827 2.4287 -1.6588 0
M  V30 31 H 3.9791 2.9766 -0.9081 0
M  V30 32 H 2.4859 2.9882 0.0229 0
M  V30 33 H 5.2476 0.8183 -1.3625 0
M  V30 34 H 3.8455 0.3618 -2.3119 0
M  V30 35 H 4.4647 -0.7346 -1.0571 0
M  V30 36 H -0.2908 -1.3725 -1.8724 0
M  V30 37 H 0.6628 -2.1147 -0.6156 0
M  V30 38 H -0.426 0.0881 2.2318 0
M  V30 39 H 0.653 -1.2045 1.7584 0
M  V30 40 H -1.2283 -2.1006 2.6033 0
M  V30 41 H -2.5349 -1.9537 -1.5225 0
M  V30 42 H -1.2011 0.579 -2.3451 0
M  V30 43 H -2.4586 0.8056 1.7904 0
M  V30 44 H -2.7525 -3.9589 2.9999 0
M  V30 45 H -4.0541 -3.827 -1.0852 0
M  V30 46 H -2.6043 2.5005 -2.8576 0
M  V30 47 H -3.856 2.737 1.2369 0
M  V30 48 H -4.175 -4.8448 1.1737 0
M  V30 49 H -3.9376 3.606 -1.0848 0
M  V30 END ATOM
M  V30 BEGIN BOND
M  V30 1 1 1 2
M  V30 2 1 1 3
M  V30 3 1 1 4
M  V30 4 1 2 5
M  V30 5 1 2 6
M  V30 6 1 2 7
M  V30 7 1 3 8
M  V30 8 1 4 9
M  V30 9 1 8 10
M  V30 10 1 10 11
M  V30 11 1 10 12
M  V30 12 2 11 13
M  V30 13 1 11 14
M  V30 14 2 12 15
M  V30 15 1 12 16
M  V30 16 1 13 17
M  V30 17 2 14 18
M  V30 18 1 15 19
M  V30 19 2 16 20
M  V30 20 2 17 21
M  V30 21 2 19 22
M  V30 22 1 9 10
M  V30 23 1 18 21
M  V30 24 1 20 22
M  V30 25 1 3 23
M  V30 26 1 3 24
M  V30 27 1 4 25
M  V30 28 1 4 26
M  V30 29 1 5 27
M  V30 30 1 5 28
M  V30 31 1 5 29
M  V30 32 1 6 30
M  V30 33 1 6 31
M  V30 34 1 6 32
M  V30 35 1 7 33
M  V30 36 1 7 34
M  V30 37 1 7 35
M  V30 38 1 8 36
M  V30 39 1 8 37
M  V30 40 1 9 38
M  V30 41 1 9 39
M  V30 42 1 13 40
M  V30 43 1 14 41
M  V30 44 1 15 42
M  V30 45 1 16 43
M  V30 46 1 17 44
M  V30 47 1 18 45
M  V30 48 1 19 46
M  V30 49 1 20 47
M  V30 50 1 21 48
M  V30 51 1 22 49
M  V30 END BOND
M  V30 END CTAB
M  END
>  <NO.>
888

>  <Name>
budipine

>  <SMILES>
CC(C)(C)N1CCC(c2ccccc2)(c2ccccc2)CC1

>  <logBB>
0.66

>  <Class>
1

>  <MW>
293.21

>  <nHBAcc>
1

>  <nHBDon>
0

>  <SLogP>
4.87

>  <TopoPSA>
3.24

>  <MMFF94 Energy>
70.697

$$$$
c1ccc(NCCCOc2cccc(CN3CCCCC3)c2)nc1
Actelion Java MolfileCreator 2.0

  0  0  0  0  0  0              0 V3000
M  V30 BEGIN CTAB
M  V30 COUNTS 51 53 0 0 0
M  V30 BEGIN ATOM
M  V30 1 O -1.576 -0.3938 0.6301 0
M  V30 2 C -1.5031 -0.6607 -0.7094 0
M  V30 3 C -2.8576 -0.5027 1.2466 0
M  V30 4 C -0.2247 -0.5247 -1.26 0
M  V30 5 C -2.5646 -1.0422 -1.5297 0
M  V30 6 C -2.7248 -0.1529 2.7262 0
M  V30 7 C 0.007 -0.767 -2.6224 0
M  V30 8 C -2.3478 -1.2838 -2.8886 0
M  V30 9 C -2.2327 1.2801 2.9286 0
M  V30 10 C -1.0712 -1.1455 -3.4323 0
M  V30 11 C 1.3943 -0.6064 -3.2087 0
M  V30 12 N -2.2353 1.604 4.3357 0
M  V30 13 N 1.8992 -1.8286 -3.8561 0
M  V30 14 C -1.8713 2.8036 4.8807 0
M  V30 15 C 2.1539 -2.9271 -2.9101 0
M  V30 16 C 3.0939 -1.56 -4.6699 0
M  V30 17 N -1.9337 2.8532 6.2263 0
M  V30 18 C -1.4677 3.9046 4.134 0
M  V30 19 C 3.3861 -2.72 -2.0251 0
M  V30 20 C 4.3607 -1.2955 -3.8519 0
M  V30 21 C -1.5899 4.0086 6.8386 0
M  V30 22 C -1.1173 5.0878 4.784 0
M  V30 23 C 4.6259 -2.425 -2.8625 0
M  V30 24 C -1.1787 5.1445 6.1677 0
M  V30 25 H -3.2266 -1.5319 1.1619 0
M  V30 26 H -3.5688 0.1846 0.7725 0
M  V30 27 H 0.5978 -0.2304 -0.6117 0
M  V30 28 H -3.5717 -1.1646 -1.1464 0
M  V30 29 H -3.6958 -0.2907 3.2172 0
M  V30 30 H -2.0175 -0.8421 3.2047 0
M  V30 31 H -3.1754 -1.585 -3.5258 0
M  V30 32 H -1.2199 1.388 2.5236 0
M  V30 33 H -2.8921 1.9697 2.3881 0
M  V30 34 H -0.9105 -1.3447 -4.49 0
M  V30 35 H 2.0865 -0.2384 -2.4422 0
M  V30 36 H 1.3165 0.1984 -3.9525 0
M  V30 37 H -2.4843 0.9119 5.0312 0
M  V30 38 H 2.2917 -3.8486 -3.4916 0
M  V30 39 H 1.2774 -3.12 -2.281 0
M  V30 40 H 2.9104 -0.7195 -5.3506 0
M  V30 41 H 3.2676 -2.4267 -5.3213 0
M  V30 42 H -1.4187 3.8596 3.0526 0
M  V30 43 H 3.5589 -3.6189 -1.4221 0
M  V30 44 H 3.2127 -1.8986 -1.3198 0
M  V30 45 H 4.2701 -0.3456 -3.3115 0
M  V30 46 H 5.2179 -1.1921 -4.527 0
M  V30 47 H -1.6579 3.9921 7.9223 0
M  V30 48 H -0.7998 5.9532 4.2102 0
M  V30 49 H 5.4672 -2.1649 -2.2107 0
M  V30 50 H 4.9148 -3.3288 -3.4132 0
M  V30 51 H -0.914 6.0456 6.7081 0
M  V30 END ATOM
M  V30 BEGIN BOND
M  V30 1 1 1 2
M  V30 2 1 1 3
M  V30 3 2 2 4
M  V30 4 1 2 5
M  V30 5 1 3 6
M  V30 6 1 4 7
M  V30 7 2 5 8
M  V30 8 1 6 9
M  V30 9 2 7 10
M  V30 10 1 7 11
M  V30 11 1 9 12
M  V30 12 1 11 13
M  V30 13 1 12 14
M  V30 14 1 13 15
M  V30 15 1 13 16
M  V30 16 2 14 17
M  V30 17 1 14 18
M  V30 18 1 15 19
M  V30 19 1 16 20
M  V30 20 1 17 21
M  V30 21 2 18 22
M  V30 22 1 19 23
M  V30 23 2 21 24
M  V30 24 1 8 10
M  V30 25 1 20 23
M  V30 26 1 22 24
M  V30 27 1 3 25
M  V30 28 1 3 26
M  V30 29 1 4 27
M  V30 30 1 5 28
M  V30 31 1 6 29
M  V30 32 1 6 30
M  V30 33 1 8 31
M  V30 34 1 9 32
M  V30 35 1 9 33
M  V30 36 1 10 34
M  V30 37 1 11 35
M  V30 38 1 11 36
M  V30 39 1 12 37
M  V30 40 1 15 38
M  V30 41 1 15 39
M  V30 42 1 16 40
M  V30 43 1 16 41
M  V30 44 1 18 42
M  V30 45 1 19 43
M  V30 46 1 19 44
M  V30 47 1 20 45
M  V30 48 1 20 46
M  V30 49 1 21 47
M  V30 50 1 22 48
M  V30 51 1 23 49
M  V30 52 1 23 50
M  V30 53 1 24 51
M  V30 END BOND
M  V30 END CTAB
M  END
>  <NO.>
893

>  <Name>
chembl142149

>  <SMILES>
c1ccc(NCCCOc2cccc(CN3CCCCC3)c2)nc1

>  <logBB>
0.69

>  <Class>
1

>  <MW>
325.22

>  <nHBAcc>
4

>  <nHBDon>
1

>  <SLogP>
3.95

>  <TopoPSA>
37.39

>  <MMFF94 Energy>
-5.2199

$$$$
CC(C)c1cccc(C(C)C)c1O
Actelion Java MolfileCreator 2.0

  0  0  0  0  0  0              0 V3000
M  V30 BEGIN CTAB
M  V30 COUNTS 31 31 0 0 0
M  V30 BEGIN ATOM
M  V30 1 O -1.7877 0.0 0.6215 0
M  V30 2 C -0.5054 0.0471 0.1401 0
M  V30 3 C 0.4209 0.8273 0.8578 0
M  V30 4 C -0.1416 -0.6686 -1.0192 0
M  V30 5 C 1.7536 0.8434 0.4188 0
M  V30 6 C 0.0091 1.6182 2.0925 0
M  V30 7 C 1.2077 -0.6363 -1.409 0
M  V30 8 C -1.1553 -1.465 -1.8307 0
M  V30 9 C 2.1451 0.1119 -0.699 0
M  V30 10 C 0.6674 1.055 3.3552 0
M  V30 11 C 0.3123 3.1125 1.9406 0
M  V30 12 C -0.9764 -1.3324 -3.3487 0
M  V30 13 C -1.1286 -2.9376 -1.416 0
M  V30 14 H -2.1728 -0.8577 0.3859 0
M  V30 15 H 2.5038 1.4215 0.953 0
M  V30 16 H -1.0746 1.5397 2.2375 0
M  V30 17 H 1.5514 -1.1953 -2.2755 0
M  V30 18 H -2.1584 -1.0705 -1.6278 0
M  V30 19 H 3.1833 0.1277 -1.0205 0
M  V30 20 H 1.7579 1.1551 3.3285 0
M  V30 21 H 0.3072 1.5825 4.2452 0
M  V30 22 H 0.4324 -0.008 3.4777 0
M  V30 23 H 1.3873 3.3121 1.8793 0
M  V30 24 H -0.1558 3.5163 1.036 0
M  V30 25 H -0.078 3.6718 2.7979 0
M  V30 26 H -0.0627 -1.8197 -3.7042 0
M  V30 27 H -1.8171 -1.8011 -3.8724 0
M  V30 28 H -0.9405 -0.2796 -3.6496 0
M  V30 29 H -0.1569 -3.3977 -1.6284 0
M  V30 30 H -1.3213 -3.0501 -0.3433 0
M  V30 31 H -1.8947 -3.5059 -1.9543 0
M  V30 END ATOM
M  V30 BEGIN BOND
M  V30 1 1 1 2
M  V30 2 2 2 3
M  V30 3 1 2 4
M  V30 4 1 3 5
M  V30 5 1 3 6
M  V30 6 2 4 7
M  V30 7 1 4 8
M  V30 8 2 5 9
M  V30 9 1 6 10
M  V30 10 1 6 11
M  V30 11 1 8 12
M  V30 12 1 8 13
M  V30 13 1 7 9
M  V30 14 1 1 14
M  V30 15 1 5 15
M  V30 16 1 6 16
M  V30 17 1 7 17
M  V30 18 1 8 18
M  V30 19 1 9 19
M  V30 20 1 10 20
M  V30 21 1 10 21
M  V30 22 1 10 22
M  V30 23 1 11 23
M  V30 24 1 11 24
M  V30 25 1 11 25
M  V30 26 1 12 26
M  V30 27 1 12 27
M  V30 28 1 12 28
M  V30 29 1 13 29
M  V30 30 1 13 30
M  V30 31 1 13 31
M  V30 END BOND
M  V30 END CTAB
M  END
>  <NO.>
894

>  <Name>
propofol, diprivan

>  <SMILES>
CC(C)c1cccc(C(C)C)c1O

>  <logBB>
0.7

>  <Class>
1

>  <MW>
178.14

>  <nHBAcc>
1

>  <nHBDon>
1

>  <SLogP>
3.64

>  <TopoPSA>
20.23

>  <MMFF94 Energy>
25.095

$$$$
COc1cccc([C@@]2(O)CCCC[C@@H]2CN(C)C)c1
Actelion Java MolfileCreator 2.0

  0  0  0  0  0  0              0 V3000
M  V30 BEGIN CTAB
M  V30 COUNTS 44 45 0 0 0
M  V30 BEGIN ATOM
M  V30 1 O -4.3322 -0.4718 -1.1013 0
M  V30 2 C -3.01 -0.4912 -1.4522 0
M  V30 3 C -4.6893 0.3111 0.0299 0
M  V30 4 C -1.969 0.1497 -0.7734 0
M  V30 5 C -2.7247 -1.2315 -2.5987 0
M  V30 6 C -0.634 0.0554 -1.2219 0
M  V30 7 C -1.4186 -1.3243 -3.0717 0
M  V30 8 C -0.3843 -0.6822 -2.3913 0
M  V30 9 C 0.5038 0.7594 -0.4695 0 CFG=2
M  V30 10 O 1.7656 0.3768 -1.0405 0
M  V30 11 C 0.5307 0.4517 1.0649 0 CFG=2
M  V30 12 C 0.3722 2.2834 -0.7066 0
M  V30 13 C 1.6278 1.2773 1.7674 0
M  V30 14 C 0.6487 -1.0617 1.3971 0
M  V30 15 C 1.437 3.0934 0.0335 0
M  V30 16 C 1.4481 2.7728 1.5226 0
M  V30 17 N 1.8446 -1.7123 0.8206 0
M  V30 18 C 1.4882 -3.0174 0.2441 0
M  V30 19 C 2.8812 -1.9208 1.8409 0
M  V30 20 H -4.2177 -0.0734 0.9402 0
M  V30 21 H -5.7733 0.2358 0.16 0
M  V30 22 H -4.4457 1.3671 -0.1268 0
M  V30 23 H -2.18 0.7395 0.1117 0
M  V30 24 H -3.5286 -1.7316 -3.1325 0
M  V30 25 H -1.2051 -1.8922 -3.973 0
M  V30 26 H 0.6263 -0.7609 -2.7877 0
M  V30 27 H 2.0338 -0.443 -0.5701 0
M  V30 28 H -0.423 0.7795 1.5016 0
M  V30 29 H -0.6164 2.6388 -0.3887 0
M  V30 30 H 0.4599 2.5064 -1.7782 0
M  V30 31 H 2.622 0.9868 1.4107 0
M  V30 32 H 1.6034 1.0859 2.8467 0
M  V30 33 H -0.2631 -1.5478 1.0263 0
M  V30 34 H 0.6103 -1.2005 2.4862 0
M  V30 35 H 2.4254 2.888 -0.3948 0
M  V30 36 H 1.2477 4.1634 -0.1102 0
M  V30 37 H 0.5099 3.1105 1.9797 0
M  V30 38 H 2.2584 3.3255 2.0114 0
M  V30 39 H 0.7573 -2.8963 -0.5622 0
M  V30 40 H 1.0686 -3.6993 0.9927 0
M  V30 41 H 2.3684 -3.4919 -0.2039 0
M  V30 42 H 2.5472 -2.5971 2.6366 0
M  V30 43 H 3.1861 -0.9788 2.3045 0
M  V30 44 H 3.7817 -2.3469 1.3843 0
M  V30 END ATOM
M  V30 BEGIN BOND
M  V30 1 1 1 2
M  V30 2 1 1 3
M  V30 3 2 2 4
M  V30 4 1 2 5
M  V30 5 1 4 6
M  V30 6 2 5 7
M  V30 7 2 6 8
M  V30 8 1 6 9
M  V30 9 1 9 10
M  V30 10 1 9 11
M  V30 11 1 9 12
M  V30 12 1 11 13
M  V30 13 1 11 14
M  V30 14 1 12 15
M  V30 15 1 13 16
M  V30 16 1 14 17
M  V30 17 1 17 18
M  V30 18 1 17 19
M  V30 19 1 7 8
M  V30 20 1 15 16
M  V30 21 1 3 20
M  V30 22 1 3 21
M  V30 23 1 3 22
M  V30 24 1 4 23
M  V30 25 1 5 24
M  V30 26 1 7 25
M  V30 27 1 8 26
M  V30 28 1 10 27
M  V30 29 1 11 28
M  V30 30 1 12 29
M  V30 31 1 12 30
M  V30 32 1 13 31
M  V30 33 1 13 32
M  V30 34 1 14 33
M  V30 35 1 14 34
M  V30 36 1 15 35
M  V30 37 1 15 36
M  V30 38 1 16 37
M  V30 39 1 16 38
M  V30 40 1 18 39
M  V30 41 1 18 40
M  V30 42 1 18 41
M  V30 43 1 19 42
M  V30 44 1 19 43
M  V30 45 1 19 44
M  V30 END BOND
M  V30 BEGIN COLLECTION
M  V30 MDLV30/STEABS ATOMS=(2 9 11)
M  V30 END COLLECTION
M  V30 END CTAB
M  END
>  <NO.>
895

>  <Name>
tramadol

>  <SMILES>
COc1cccc([C@@]2(O)CCCC[C@@H]2CN(C)C)c1

>  <logBB>
0.7

>  <Class>
1

>  <MW>
263.19

>  <nHBAcc>
3

>  <nHBDon>
1

>  <SLogP>
2.63

>  <TopoPSA>
32.7

>  <MMFF94 Energy>
48.083

$$$$
Cc1nnc2n1-c1ccc(Cl)cc1C(c1ccccc1Cl)=NC2
Actelion Java MolfileCreator 2.0

  0  0  0  0  0  0              0 V3000
M  V30 BEGIN CTAB
M  V30 COUNTS 35 38 0 0 0
M  V30 BEGIN ATOM
M  V30 1 Cl -3.4712 -1.2386 1.8997 0
M  V30 2 C -2.0023 -2.1238 1.7011 0
M  V30 3 C -0.9728 -1.6891 0.8589 0
M  V30 4 C -1.8292 -3.2888 2.4529 0
M  V30 5 C -1.1067 -0.467 0.0251 0
M  V30 6 C 0.2188 -2.4193 0.7601 0
M  V30 7 C -0.6395 -4.0154 2.3589 0
M  V30 8 N -1.9069 -0.5439 -0.9826 0
M  V30 9 C -0.2828 0.7241 0.4093 0
M  V30 10 C 0.3823 -3.5818 1.5138 0
M  V30 11 C -2.0974 0.5968 -1.8746 0
M  V30 12 C 0.3935 1.5279 -0.5281 0
M  V30 13 C -0.1833 1.0421 1.7743 0
M  V30 14 C -0.8354 0.8974 -2.5839 0
M  V30 15 N 0.3058 1.2634 -1.9129 0
M  V30 16 C 1.1241 2.6487 -0.1009 0
M  V30 17 C 0.5659 2.1425 2.189 0
M  V30 18 N -0.5957 0.8544 -3.8766 0
M  V30 19 C 1.2864 1.3272 -2.8857 0
M  V30 20 C 1.2154 2.9478 1.2589 0
M  V30 21 Cl 0.6757 2.517 3.8642 0
M  V30 22 N 0.7343 1.1255 -4.0655 0
M  V30 23 C 2.7335 1.5351 -2.6483 0
M  V30 24 H -2.6181 -3.6375 3.1155 0
M  V30 25 H 1.0097 -2.1012 0.0855 0
M  V30 26 H -0.5129 -4.925 2.9422 0
M  V30 27 H 1.3019 -4.1574 1.4345 0
M  V30 28 H -2.4714 1.4702 -1.327 0
M  V30 29 H -2.8712 0.3353 -2.6048 0
M  V30 30 H -0.7027 0.4526 2.5261 0
M  V30 31 H 1.6052 3.3207 -0.8087 0
M  V30 32 H 1.7822 3.8174 1.5847 0
M  V30 33 H 2.9682 2.6022 -2.5984 0
M  V30 34 H 3.0666 1.051 -1.7254 0
M  V30 35 H 3.3145 1.1056 -3.471 0
M  V30 END ATOM
M  V30 BEGIN BOND
M  V30 1 1 1 2
M  V30 2 2 2 3
M  V30 3 1 2 4
M  V30 4 1 3 5
M  V30 5 1 3 6
M  V30 6 2 4 7
M  V30 7 2 5 8
M  V30 8 1 5 9
M  V30 9 2 6 10
M  V30 10 1 8 11
M  V30 11 2 9 12
M  V30 12 1 9 13
M  V30 13 1 11 14
M  V30 14 1 12 15
M  V30 15 1 12 16
M  V30 16 2 13 17
M  V30 17 2 14 18
M  V30 18 1 15 19
M  V30 19 2 16 20
M  V30 20 1 17 21
M  V30 21 1 18 22
M  V30 22 1 19 23
M  V30 23 1 7 10
M  V30 24 1 14 15
M  V30 25 1 17 20
M  V30 26 2 19 22
M  V30 27 1 4 24
M  V30 28 1 6 25
M  V30 29 1 7 26
M  V30 30 1 10 27
M  V30 31 1 11 28
M  V30 32 1 11 29
M  V30 33 1 13 30
M  V30 34 1 16 31
M  V30 35 1 20 32
M  V30 36 1 23 33
M  V30 37 1 23 34
M  V30 38 1 23 35
M  V30 END BOND
M  V30 END CTAB
M  END
>  <NO.>
896

>  <Name>
28911-01-5

>  <SMILES>
Cc1nnc2n1-c1ccc(Cl)cc1C(c1ccccc1Cl)=NC2

>  <logBB>
0.7

>  <Class>
1

>  <MW>
342.04

>  <nHBAcc>
3

>  <nHBDon>
0

>  <SLogP>
4.23

>  <TopoPSA>
43.07

>  <MMFF94 Energy>
90.557

$$$$
c1ccc2c(c1)CCCN2
Actelion Java MolfileCreator 2.0

  0  0  0  0  0  0              0 V3000
M  V30 BEGIN CTAB
M  V30 COUNTS 21 22 0 0 0
M  V30 BEGIN ATOM
M  V30 1 N -0.315 1.2605 1.1029 0
M  V30 2 C 0.0676 0.8059 -0.1495 0
M  V30 3 C -0.3925 0.3396 2.2185 0
M  V30 4 C 0.1696 -0.5685 -0.4282 0
M  V30 5 C 0.3096 1.7205 -1.1798 0
M  V30 6 C -0.9649 -0.9964 1.7673 0
M  V30 7 C 0.5582 -1.0013 -1.7049 0
M  V30 8 C -0.0973 -1.5819 0.6563 0
M  V30 9 C 0.6833 1.2857 -2.4537 0
M  V30 10 C 0.8126 -0.0752 -2.7145 0
M  V30 11 H -0.3016 2.2545 1.2903 0
M  V30 12 H 0.6063 0.201 2.6492 0
M  V30 13 H -1.0264 0.7725 2.9998 0
M  V30 14 H 0.2122 2.7867 -0.9952 0
M  V30 15 H -1.9896 -0.8534 1.3998 0
M  V30 16 H -1.0159 -1.6941 2.6104 0
M  V30 17 H 0.657 -2.063 -1.9166 0
M  V30 18 H 0.8643 -1.9115 1.0682 0
M  V30 19 H -0.6018 -2.4604 0.2373 0
M  V30 20 H 0.873 2.0116 -3.2394 0
M  V30 21 H 1.1068 -0.415 -3.7037 0
M  V30 END ATOM
M  V30 BEGIN BOND
M  V30 1 1 1 2
M  V30 2 1 1 3
M  V30 3 2 2 4
M  V30 4 1 2 5
M  V30 5 1 3 6
M  V30 6 1 4 7
M  V30 7 1 4 8
M  V30 8 2 5 9
M  V30 9 2 7 10
M  V30 10 1 6 8
M  V30 11 1 9 10
M  V30 12 1 1 11
M  V30 13 1 3 12
M  V30 14 1 3 13
M  V30 15 1 5 14
M  V30 16 1 6 15
M  V30 17 1 6 16
M  V30 18 1 7 17
M  V30 19 1 8 18
M  V30 20 1 8 19
M  V30 21 1 9 20
M  V30 22 1 10 21
M  V30 END BOND
M  V30 END CTAB
M  END
>  <NO.>
897

>  <Name>
1,2,3,4-tetrahydroquinoline

>  <SMILES>
c1ccc2c(c1)CCCN2

>  <logBB>
0.7

>  <Class>
1

>  <MW>
133.09

>  <nHBAcc>
1

>  <nHBDon>
1

>  <SLogP>
2.04

>  <TopoPSA>
12.03

>  <MMFF94 Energy>
5.4694

$$$$
CNC(=O)c1c(NCC2CCC3(CCC3)CC2)nc(C#N)nc1OCCO
Actelion Java MolfileCreator 2.0

  0  0  0  0  0  0              0 V3000
M  V30 BEGIN CTAB
M  V30 COUNTS 54 56 0 0 0
M  V30 BEGIN ATOM
M  V30 1 O -0.2382 -3.1008 0.7943 0
M  V30 2 C 0.1633 -3.2441 -0.3591 0
M  V30 3 N 0.3191 -4.4913 -0.9298 0
M  V30 4 C 0.5246 -2.0515 -1.1725 0
M  V30 5 C 0.0081 -5.6923 -0.1992 0
M  V30 6 C 0.4967 -2.0342 -2.5579 0
M  V30 7 C 0.9097 -0.8553 -0.5638 0
M  V30 8 O 0.0292 -3.1429 -3.2267 0
M  V30 9 N 0.8132 -0.9657 -3.3155 0
M  V30 10 N 1.2503 0.2272 -1.2959 0
M  V30 11 N 1.0231 -0.7492 0.8107 0
M  V30 12 C 0.6805 -3.3547 -4.4861 0
M  V30 13 C 1.1814 0.1252 -2.6317 0
M  V30 14 C 1.4202 0.4641 1.4962 0
M  V30 15 C 0.4799 -4.8206 -4.8566 0
M  V30 16 C 1.5369 1.2909 -3.3967 0
M  V30 17 C 0.2028 1.2136 2.0691 0
M  V30 18 O 1.1217 -5.6456 -3.8805 0
M  V30 19 N 1.8248 2.2277 -4.0245 0
M  V30 20 C 0.6818 2.3133 3.0346 0
M  V30 21 C -0.6808 1.8244 0.967 0
M  V30 22 C -0.4819 3.1157 3.6145 0
M  V30 23 C -1.8488 2.618 1.5513 0
M  V30 24 C -1.3339 3.7138 2.487 0
M  V30 25 C -2.4627 4.661 2.9988 0
M  V30 26 C -0.7343 4.9688 1.7746 0
M  V30 27 C -1.5071 5.8476 2.7754 0
M  V30 28 H 0.6137 -4.5862 -1.9003 0
M  V30 29 H -1.0688 -5.7277 -0.0143 0
M  V30 30 H 0.5416 -5.6906 0.7551 0
M  V30 31 H 0.3125 -6.555 -0.796 0
M  V30 32 H 0.5254 -1.4616 1.3521 0
M  V30 33 H 1.7561 -3.1521 -4.4033 0
M  V30 34 H 0.2283 -2.7097 -5.2473 0
M  V30 35 H 2.0663 0.1595 2.3288 0
M  V30 36 H 2.0337 1.1227 0.8698 0
M  V30 37 H -0.5838 -5.0781 -4.8627 0
M  V30 38 H 0.9172 -5.0337 -5.8362 0
M  V30 39 H -0.4083 0.501 2.6406 0
M  V30 40 H 0.9978 -6.5676 -4.1692 0
M  V30 41 H 1.3698 2.9886 2.5107 0
M  V30 42 H 1.2476 1.8628 3.859 0
M  V30 43 H -0.0752 2.4789 0.3276 0
M  V30 44 H -1.0895 1.0355 0.3265 0
M  V30 45 H -1.1006 2.4598 4.2401 0
M  V30 46 H -0.0866 3.8979 4.273 0
M  V30 47 H -2.5152 1.94 2.0995 0
M  V30 48 H -2.4391 3.0466 0.7324 0
M  V30 49 H -3.3508 4.6995 2.3561 0
M  V30 50 H -2.7915 4.5131 4.0316 0
M  V30 51 H -1.0672 5.1035 0.7383 0
M  V30 52 H 0.353 5.0791 1.8041 0
M  V30 53 H -0.9271 6.1225 3.6635 0
M  V30 54 H -1.9624 6.7501 2.3593 0
M  V30 END ATOM
M  V30 BEGIN BOND
M  V30 1 2 1 2
M  V30 2 1 2 3
M  V30 3 1 2 4
M  V30 4 1 3 5
M  V30 5 2 4 6
M  V30 6 1 4 7
M  V30 7 1 6 8
M  V30 8 1 6 9
M  V30 9 2 7 10
M  V30 10 1 7 11
M  V30 11 1 8 12
M  V30 12 2 9 13
M  V30 13 1 11 14
M  V30 14 1 12 15
M  V30 15 1 13 16
M  V30 16 1 14 17
M  V30 17 1 15 18
M  V30 18 3 16 19
M  V30 19 1 17 20
M  V30 20 1 17 21
M  V30 21 1 20 22
M  V30 22 1 21 23
M  V30 23 1 22 24
M  V30 24 1 24 25
M  V30 25 1 24 26
M  V30 26 1 25 27
M  V30 27 1 10 13
M  V30 28 1 23 24
M  V30 29 1 26 27
M  V30 30 1 3 28
M  V30 31 1 5 29
M  V30 32 1 5 30
M  V30 33 1 5 31
M  V30 34 1 11 32
M  V30 35 1 12 33
M  V30 36 1 12 34
M  V30 37 1 14 35
M  V30 38 1 14 36
M  V30 39 1 15 37
M  V30 40 1 15 38
M  V30 41 1 17 39
M  V30 42 1 18 40
M  V30 43 1 20 41
M  V30 44 1 20 42
M  V30 45 1 21 43
M  V30 46 1 21 44
M  V30 47 1 22 45
M  V30 48 1 22 46
M  V30 49 1 23 47
M  V30 50 1 23 48
M  V30 51 1 25 49
M  V30 52 1 25 50
M  V30 53 1 26 51
M  V30 54 1 26 52
M  V30 55 1 27 53
M  V30 56 1 27 54
M  V30 END BOND
M  V30 END CTAB
M  END
>  <NO.>
898

>  <Name>
irie-13b

>  <SMILES>
CNC(=O)c1c(NCC2CCC3(CCC3)CC2)nc(C#N)nc1OCCO

>  <logBB>
0.7

>  <Class>
1

>  <MW>
373.21

>  <nHBAcc>
7

>  <nHBDon>
3

>  <SLogP>
1.85

>  <TopoPSA>
120.16

>  <MMFF94 Energy>
24.86

$$$$
OCCN1CCN(CCCN2c3ccccc3Sc3ccc(Cl)cc32)CC1
Actelion Java MolfileCreator 2.0

  0  0  0  0  0  0              0 V3000
M  V30 BEGIN CTAB
M  V30 COUNTS 53 56 0 0 0
M  V30 BEGIN ATOM
M  V30 1 Cl -6.1006 0.5682 1.6241 0
M  V30 2 C -5.1662 0.7187 0.1865 0
M  V30 3 C -4.2832 -0.3005 -0.1755 0
M  V30 4 C -5.3003 1.8492 -0.6054 0
M  V30 5 C -3.4941 -0.2116 -1.3399 0
M  V30 6 C -4.557 1.9474 -1.7787 0
M  V30 7 N -2.5861 -1.2474 -1.6886 0
M  V30 8 C -3.6712 0.9229 -2.1578 0
M  V30 9 C -2.0819 -1.4664 -2.9994 0
M  V30 10 C -1.7457 -1.7715 -0.5824 0
M  V30 11 S -2.7932 1.1617 -3.688 0
M  V30 12 C -2.1175 -0.4594 -3.9837 0
M  V30 13 C -1.5559 -2.7189 -3.3764 0
M  V30 14 C -0.544 -0.8515 -0.318 0
M  V30 15 C -1.5885 -0.6939 -5.2651 0
M  V30 16 C -1.04 -2.9493 -4.6555 0
M  V30 17 C 0.2748 -1.3626 0.8731 0
M  V30 18 C -1.0476 -1.9323 -5.5988 0
M  V30 19 N 1.5228 -0.6124 1.0819 0
M  V30 20 C 2.3551 -1.2838 2.1034 0
M  V30 21 C 1.2806 0.7811 1.5085 0
M  V30 22 C 3.6639 -0.5184 2.3974 0
M  V30 23 C 2.5896 1.5475 1.8215 0
M  V30 24 N 3.4149 0.8695 2.8423 0
M  V30 25 C 4.6981 1.5614 3.0609 0
M  V30 26 C 4.5598 2.9197 3.762 0
M  V30 27 O 5.855 3.4571 4.022 0
M  V30 28 H -4.2474 -1.1873 0.4495 0
M  V30 29 H -5.9851 2.6457 -0.3284 0
M  V30 30 H -4.6779 2.8287 -2.4057 0
M  V30 31 H -1.3883 -2.7856 -0.7876 0
M  V30 32 H -2.3176 -1.8867 0.3438 0
M  V30 33 H -1.5683 -3.5581 -2.6877 0
M  V30 34 H -0.9037 0.1649 -0.1238 0
M  V30 35 H 0.0917 -0.8027 -1.2105 0
M  V30 36 H -1.6027 0.0924 -6.0168 0
M  V30 37 H -0.6419 -3.9277 -4.9117 0
M  V30 38 H -0.3424 -1.3517 1.7811 0
M  V30 39 H 0.5284 -2.412 0.6742 0
M  V30 40 H -0.6476 -2.1033 -6.5943 0
M  V30 41 H 2.6226 -2.2879 1.7523 0
M  V30 42 H 1.7923 -1.4038 3.0393 0
M  V30 43 H 0.7669 1.3333 0.7142 0
M  V30 44 H 0.6338 0.8032 2.396 0
M  V30 45 H 4.2037 -1.0614 3.1827 0
M  V30 46 H 4.2956 -0.5287 1.4987 0
M  V30 47 H 2.3064 2.5458 2.173 0
M  V30 48 H 3.1578 1.6763 0.8904 0
M  V30 49 H 5.2507 1.6881 2.1202 0
M  V30 50 H 5.3418 0.9389 3.6972 0
M  V30 51 H 4.0194 3.6393 3.1405 0
M  V30 52 H 4.0361 2.8087 4.7173 0
M  V30 53 H 5.7201 4.2908 4.5045 0
M  V30 END ATOM
M  V30 BEGIN BOND
M  V30 1 1 1 2
M  V30 2 2 2 3
M  V30 3 1 2 4
M  V30 4 1 3 5
M  V30 5 2 4 6
M  V30 6 1 5 7
M  V30 7 2 5 8
M  V30 8 1 7 9
M  V30 9 1 7 10
M  V30 10 1 8 11
M  V30 11 2 9 12
M  V30 12 1 9 13
M  V30 13 1 10 14
M  V30 14 1 12 15
M  V30 15 2 13 16
M  V30 16 1 14 17
M  V30 17 2 15 18
M  V30 18 1 17 19
M  V30 19 1 19 20
M  V30 20 1 19 21
M  V30 21 1 20 22
M  V30 22 1 21 23
M  V30 23 1 22 24
M  V30 24 1 24 25
M  V30 25 1 25 26
M  V30 26 1 26 27
M  V30 27 1 6 8
M  V30 28 1 11 12
M  V30 29 1 16 18
M  V30 30 1 23 24
M  V30 31 1 3 28
M  V30 32 1 4 29
M  V30 33 1 6 30
M  V30 34 1 10 31
M  V30 35 1 10 32
M  V30 36 1 13 33
M  V30 37 1 14 34
M  V30 38 1 14 35
M  V30 39 1 15 36
M  V30 40 1 16 37
M  V30 41 1 17 38
M  V30 42 1 17 39
M  V30 43 1 18 40
M  V30 44 1 20 41
M  V30 45 1 20 42
M  V30 46 1 21 43
M  V30 47 1 21 44
M  V30 48 1 22 45
M  V30 49 1 22 46
M  V30 50 1 23 47
M  V30 51 1 23 48
M  V30 52 1 25 49
M  V30 53 1 25 50
M  V30 54 1 26 51
M  V30 55 1 26 52
M  V30 56 1 27 53
M  V30 END BOND
M  V30 END CTAB
M  END
>  <NO.>
899

>  <Name>
perphenazine

>  <SMILES>
OCCN1CCN(CCCN2c3ccccc3Sc3ccc(Cl)cc32)CC1

>  <logBB>
0.7

>  <Class>
1

>  <MW>
403.15

>  <nHBAcc>
5

>  <nHBDon>
1

>  <SLogP>
3.94

>  <TopoPSA>
29.95

>  <MMFF94 Energy>
149.11

$$$$
OCCOCCN1CCN(C2=Nc3ccccc3Sc3ccccc32)CC1
Actelion Java MolfileCreator 2.0

  0  0  0  0  0  0              0 V3000
M  V30 BEGIN CTAB
M  V30 COUNTS 52 55 0 0 0
M  V30 BEGIN ATOM
M  V30 1 S -2.7465 1.2109 2.3422 0
M  V30 2 C -1.9908 2.8243 2.5112 0
M  V30 3 C -3.2254 1.3495 0.63 0
M  V30 4 C -0.9595 3.2687 1.6644 0
M  V30 5 C -2.4988 3.6772 3.5042 0
M  V30 6 C -2.3244 1.656 -0.3959 0
M  V30 7 C -4.5808 1.1763 0.3124 0
M  V30 8 N -0.2764 2.4588 0.7445 0
M  V30 9 C -0.467 4.5696 1.8351 0
M  V30 10 C -2.0006 4.972 3.6509 0
M  V30 11 C -0.8454 1.7195 -0.1684 0
M  V30 12 C -2.7832 1.8211 -1.7131 0
M  V30 13 C -5.033 1.3344 -1.0002 0
M  V30 14 C -0.9867 5.421 2.8118 0
M  V30 15 N -0.0281 0.9535 -1.0037 0
M  V30 16 C -4.1358 1.6652 -2.012 0
M  V30 17 C -0.357 -0.4372 -1.3562 0
M  V30 18 C 1.4266 1.1811 -1.0409 0
M  V30 19 C 0.36 -1.4066 -0.3831 0
M  V30 20 C 2.1326 0.2167 -0.0641 0
M  V30 21 N 1.8283 -1.2109 -0.3515 0
M  V30 22 C 2.4895 -2.0717 0.6513 0
M  V30 23 C 2.3874 -3.5866 0.3921 0
M  V30 24 O 3.0117 -3.9208 -0.8497 0
M  V30 25 C 2.9276 -5.3233 -1.1242 0
M  V30 26 C 3.6049 -5.5778 -2.466 0
M  V30 27 O 4.9679 -5.1612 -2.4011 0
M  V30 28 H -3.2968 3.3413 4.1621 0
M  V30 29 H -5.3012 0.9355 1.0915 0
M  V30 30 H 0.3484 4.9116 1.2024 0
M  V30 31 H -2.4038 5.6269 4.4189 0
M  V30 32 H -2.0785 2.0625 -2.5057 0
M  V30 33 H -6.0886 1.2082 -1.2286 0
M  V30 34 H -0.5872 6.4254 2.9235 0
M  V30 35 H -4.4861 1.7945 -3.0329 0
M  V30 36 H -1.4328 -0.6342 -1.3261 0
M  V30 37 H -0.03 -0.6343 -2.3847 0
M  V30 38 H 1.6812 2.2205 -0.8044 0
M  V30 39 H 1.7886 1.0024 -2.0613 0
M  V30 40 H -0.0597 -1.2761 0.6231 0
M  V30 41 H 0.1272 -2.4249 -0.7116 0
M  V30 42 H 1.8392 0.4642 0.9645 0
M  V30 43 H 3.2137 0.3793 -0.1476 0
M  V30 44 H 2.0986 -1.8582 1.6544 0
M  V30 45 H 3.5584 -1.8222 0.6562 0
M  V30 46 H 2.908 -4.1147 1.2 0
M  V30 47 H 1.344 -3.919 0.3897 0
M  V30 48 H 1.8788 -5.6351 -1.1645 0
M  V30 49 H 3.4492 -5.8696 -0.3306 0
M  V30 50 H 3.5778 -6.6398 -2.7242 0
M  V30 51 H 3.1217 -5.0032 -3.2623 0
M  V30 52 H 4.9354 -4.2625 -2.016 0
M  V30 END ATOM
M  V30 BEGIN BOND
M  V30 1 1 1 2
M  V30 2 1 1 3
M  V30 3 2 2 4
M  V30 4 1 2 5
M  V30 5 2 3 6
M  V30 6 1 3 7
M  V30 7 1 4 8
M  V30 8 1 4 9
M  V30 9 2 5 10
M  V30 10 1 6 11
M  V30 11 1 6 12
M  V30 12 2 7 13
M  V30 13 2 9 14
M  V30 14 1 11 15
M  V30 15 2 12 16
M  V30 16 1 15 17
M  V30 17 1 15 18
M  V30 18 1 17 19
M  V30 19 1 18 20
M  V30 20 1 19 21
M  V30 21 1 21 22
M  V30 22 1 22 23
M  V30 23 1 23 24
M  V30 24 1 24 25
M  V30 25 1 25 26
M  V30 26 1 26 27
M  V30 27 2 8 11
M  V30 28 1 10 14
M  V30 29 1 13 16
M  V30 30 1 20 21
M  V30 31 1 5 28
M  V30 32 1 7 29
M  V30 33 1 9 30
M  V30 34 1 10 31
M  V30 35 1 12 32
M  V30 36 1 13 33
M  V30 37 1 14 34
M  V30 38 1 16 35
M  V30 39 1 17 36
M  V30 40 1 17 37
M  V30 41 1 18 38
M  V30 42 1 18 39
M  V30 43 1 19 40
M  V30 44 1 19 41
M  V30 45 1 20 42
M  V30 46 1 20 43
M  V30 47 1 22 44
M  V30 48 1 22 45
M  V30 49 1 23 46
M  V30 50 1 23 47
M  V30 51 1 25 48
M  V30 52 1 25 49
M  V30 53 1 26 50
M  V30 54 1 26 51
M  V30 55 1 27 52
M  V30 END BOND
M  V30 END CTAB
M  END
>  <NO.>
900

>  <Name>
quetiapine

>  <SMILES>
OCCOCCN1CCN(C2=Nc3ccccc3Sc3ccccc32)CC1

>  <logBB>
0.7

>  <Class>
1

>  <MW>
383.17

>  <nHBAcc>
6

>  <nHBDon>
1

>  <SLogP>
2.86

>  <TopoPSA>
48.3

>  <MMFF94 Energy>
165.83

$$$$
COc1ccc(-c2nc(-c3cccc(CN(C)C)c3)n(CCO)n2)cc1
Actelion Java MolfileCreator 2.0

  0  0  0  0  0  0              0 V3000
M  V30 BEGIN CTAB
M  V30 COUNTS 50 52 0 0 0
M  V30 BEGIN ATOM
M  V30 1 O -2.7663 6.9667 -1.58 0
M  V30 2 C -2.1604 5.8461 -1.0831 0
M  V30 3 C -2.0598 8.193 -1.4426 0
M  V30 4 C -0.9147 5.7944 -0.4585 0
M  V30 5 C -2.8938 4.6679 -1.2379 0
M  V30 6 C -0.4101 4.5723 0.006 0
M  V30 7 C -2.3914 3.4478 -0.7744 0
M  V30 8 C -1.1417 3.3862 -0.146 0
M  V30 9 C -0.6197 2.1116 0.3369 0
M  V30 10 N 0.5753 1.9608 0.923 0
M  V30 11 N -1.3275 0.9394 0.2288 0
M  V30 12 N 0.5964 0.6401 1.1974 0
M  V30 13 C -0.5409 0.0121 0.7477 0
M  V30 14 C 1.697 0.1213 1.9758 0
M  V30 15 C -0.8712 -1.4161 0.8132 0
M  V30 16 C 2.9757 0.0214 1.158 0
M  V30 17 C 0.0827 -2.4264 0.631 0
M  V30 18 C -2.221 -1.7937 0.8748 0
M  V30 19 O 3.9721 -0.6637 1.9122 0
M  V30 20 C -0.2802 -3.7862 0.5968 0
M  V30 21 C -2.5983 -3.138 0.8522 0
M  V30 22 C -1.6302 -4.1315 0.7265 0
M  V30 23 C 0.7788 -4.86 0.4433 0
M  V30 24 N 1.6932 -4.6261 -0.6898 0
M  V30 25 C 1.0051 -4.8012 -1.9728 0
M  V30 26 C 2.8312 -5.5439 -0.6098 0
M  V30 27 H -1.9034 8.4428 -0.3879 0
M  V30 28 H -2.6739 8.9838 -1.8841 0
M  V30 29 H -1.1108 8.1651 -1.9881 0
M  V30 30 H -0.3075 6.6815 -0.3145 0
M  V30 31 H -3.866 4.6976 -1.7238 0
M  V30 32 H 0.5638 4.5531 0.4916 0
M  V30 33 H -2.9832 2.5445 -0.9084 0
M  V30 34 H 1.4202 -0.8434 2.4099 0
M  V30 35 H 1.8471 0.7938 2.8297 0
M  V30 36 H 2.8127 -0.5297 0.2263 0
M  V30 37 H 3.3557 1.0168 0.9037 0
M  V30 38 H 1.1303 -2.1837 0.478 0
M  V30 39 H -2.9935 -1.0292 0.9497 0
M  V30 40 H 4.7764 -0.6871 1.3638 0
M  V30 41 H -3.6496 -3.4055 0.9225 0
M  V30 42 H -1.939 -5.174 0.7082 0
M  V30 43 H 0.3112 -5.8502 0.3608 0
M  V30 44 H 1.3468 -4.8618 1.3836 0
M  V30 45 H 0.1939 -4.0754 -2.0932 0
M  V30 46 H 0.5874 -5.8085 -2.084 0
M  V30 47 H 1.6975 -4.6244 -2.8038 0
M  V30 48 H 2.521 -6.5942 -0.6551 0
M  V30 49 H 3.3873 -5.3876 0.3213 0
M  V30 50 H 3.5357 -5.356 -1.4278 0
M  V30 END ATOM
M  V30 BEGIN BOND
M  V30 1 1 1 2
M  V30 2 1 1 3
M  V30 3 2 2 4
M  V30 4 1 2 5
M  V30 5 1 4 6
M  V30 6 2 5 7
M  V30 7 2 6 8
M  V30 8 1 8 9
M  V30 9 2 9 10
M  V30 10 1 9 11
M  V30 11 1 10 12
M  V30 12 2 11 13
M  V30 13 1 12 14
M  V30 14 1 13 15
M  V30 15 1 14 16
M  V30 16 2 15 17
M  V30 17 1 15 18
M  V30 18 1 16 19
M  V30 19 1 17 20
M  V30 20 2 18 21
M  V30 21 2 20 22
M  V30 22 1 20 23
M  V30 23 1 23 24
M  V30 24 1 24 25
M  V30 25 1 24 26
M  V30 26 1 7 8
M  V30 27 1 12 13
M  V30 28 1 21 22
M  V30 29 1 3 27
M  V30 30 1 3 28
M  V30 31 1 3 29
M  V30 32 1 4 30
M  V30 33 1 5 31
M  V30 34 1 6 32
M  V30 35 1 7 33
M  V30 36 1 14 34
M  V30 37 1 14 35
M  V30 38 1 16 36
M  V30 39 1 16 37
M  V30 40 1 17 38
M  V30 41 1 18 39
M  V30 42 1 19 40
M  V30 43 1 21 41
M  V30 44 1 22 42
M  V30 45 1 23 43
M  V30 46 1 23 44
M  V30 47 1 25 45
M  V30 48 1 25 46
M  V30 49 1 25 47
M  V30 50 1 26 48
M  V30 51 1 26 49
M  V30 52 1 26 50
M  V30 END BOND
M  V30 END CTAB
M  END
>  <NO.>
901

>  <Name>
schembl6578223

>  <SMILES>
COc1ccc(-c2nc(-c3cccc(CN(C)C)c3)n(CCO)n2)cc1

>  <logBB>
0.71

>  <Class>
1

>  <MW>
352.19

>  <nHBAcc>
5

>  <nHBDon>
1

>  <SLogP>
2.67

>  <TopoPSA>
63.41

>  <MMFF94 Energy>
79.437

$$$$
CNCCC(Oc1ccc(C(F)(F)F)cc1)c1ccccc1
Actelion Java MolfileCreator 2.0

  0  0  0  0  0  0              0 V3000
M  V30 BEGIN CTAB
M  V30 COUNTS 40 41 0 0 0
M  V30 BEGIN ATOM
M  V30 1 F 5.3496 -3.1113 -0.3187 0
M  V30 2 C 4.2273 -3.5944 -0.9194 0
M  V30 3 F 3.9498 -4.7748 -0.2982 0
M  V30 4 F 4.5948 -3.9219 -2.1898 0
M  V30 5 C 3.0823 -2.6132 -0.867 0
M  V30 6 C 2.1934 -2.6083 0.218 0
M  V30 7 C 2.903 -1.6686 -1.8862 0
M  V30 8 C 1.1421 -1.6861 0.2797 0
M  V30 9 C 1.8517 -0.7507 -1.8215 0
M  V30 10 C 0.9734 -0.7466 -0.7356 0
M  V30 11 O -0.0138 0.1959 -0.8045 0
M  V30 12 C -0.7177 0.5425 0.3998 0 CFG=2
M  V30 13 C -1.9288 -0.3516 0.6231 0
M  V30 14 C -1.1782 2.0058 0.2647 0
M  V30 15 C -2.6444 -0.9015 -0.4512 0
M  V30 16 C -2.3676 -0.6166 1.9305 0
M  V30 17 C 0.0134 2.9566 0.1179 0
M  V30 18 C -3.7598 -1.7091 -0.2235 0
M  V30 19 C -3.4841 -1.4237 2.1559 0
M  V30 20 N -0.4608 4.3428 0.0879 0
M  V30 21 C -4.1784 -1.9708 1.0791 0
M  V30 22 C 0.6511 5.2717 -0.0645 0
M  V30 23 H 2.3084 -3.3344 1.0221 0
M  V30 24 H 3.5782 -1.6453 -2.7401 0
M  V30 25 H 0.4634 -1.7442 1.1245 0
M  V30 26 H 1.7184 -0.0286 -2.624 0
M  V30 27 H -0.0405 0.483 1.2628 0
M  V30 28 H -1.8279 2.1131 -0.6145 0
M  V30 29 H -1.772 2.2915 1.143 0
M  V30 30 H -2.3329 -0.7057 -1.4753 0
M  V30 31 H -1.8431 -0.1921 2.784 0
M  V30 32 H 0.5629 2.7292 -0.8028 0
M  V30 33 H 0.6951 2.8179 0.9653 0
M  V30 34 H -4.3023 -2.1328 -1.0645 0
M  V30 35 H -3.8145 -1.6231 3.172 0
M  V30 36 H -1.1069 4.4634 -0.6923 0
M  V30 37 H -5.0479 -2.5986 1.2546 0
M  V30 38 H 1.1901 5.1024 -1.0022 0
M  V30 39 H 1.3524 5.1903 0.7721 0
M  V30 40 H 0.2699 6.2975 -0.0756 0
M  V30 END ATOM
M  V30 BEGIN BOND
M  V30 1 1 1 2
M  V30 2 1 2 3
M  V30 3 1 2 4
M  V30 4 1 2 5
M  V30 5 2 5 6
M  V30 6 1 5 7
M  V30 7 1 6 8
M  V30 8 2 7 9
M  V30 9 2 8 10
M  V30 10 1 10 11
M  V30 11 1 11 12
M  V30 12 1 12 13
M  V30 13 1 12 14
M  V30 14 2 13 15
M  V30 15 1 13 16
M  V30 16 1 14 17
M  V30 17 1 15 18
M  V30 18 2 16 19
M  V30 19 1 17 20
M  V30 20 2 18 21
M  V30 21 1 20 22
M  V30 22 1 9 10
M  V30 23 1 19 21
M  V30 24 1 6 23
M  V30 25 1 7 24
M  V30 26 1 8 25
M  V30 27 1 9 26
M  V30 28 1 12 27
M  V30 29 1 14 28
M  V30 30 1 14 29
M  V30 31 1 15 30
M  V30 32 1 16 31
M  V30 33 1 17 32
M  V30 34 1 17 33
M  V30 35 1 18 34
M  V30 36 1 19 35
M  V30 37 1 20 36
M  V30 38 1 21 37
M  V30 39 1 22 38
M  V30 40 1 22 39
M  V30 41 1 22 40
M  V30 END BOND
M  V30 BEGIN COLLECTION
M  V30 MDLV30/STERAC1 ATOMS=(1 12)
M  V30 END COLLECTION
M  V30 END CTAB
M  END
>  <NO.>
902

>  <Name>
fluoxetine

>  <SMILES>
CNCCC(Oc1ccc(C(F)(F)F)cc1)c1ccccc1

>  <logBB>
0.72

>  <Class>
1

>  <MW>
309.13

>  <nHBAcc>
2

>  <nHBDon>
1

>  <SLogP>
4.44

>  <TopoPSA>
21.26

>  <MMFF94 Energy>
74.135

$$$$
C=CCCCCCC
Actelion Java MolfileCreator 2.0

  0  0  0  0  0  0              0 V3000
M  V30 BEGIN CTAB
M  V30 COUNTS 24 23 0 0 0
M  V30 BEGIN ATOM
M  V30 1 C -2.7412 -0.8369 -2.0553 0
M  V30 2 C -4.0086 -0.4053 -2.0655 0
M  V30 3 C -1.5575 0.0345 -1.748 0
M  V30 4 C -0.817 -0.4533 -0.5012 0
M  V30 5 C 0.3964 0.4272 -0.1962 0
M  V30 6 C 1.1383 -0.0594 1.0497 0
M  V30 7 C 2.3504 0.8205 1.3542 0
M  V30 8 C 3.0906 0.34 2.5922 0
M  V30 9 H -2.5372 -1.8794 -2.2917 0
M  V30 10 H -4.2629 0.6258 -1.8409 0
M  V30 11 H -4.8239 -1.0827 -2.3003 0
M  V30 12 H -1.8702 1.0765 -1.6073 0
M  V30 13 H -0.882 0.0189 -2.6116 0
M  V30 14 H -0.4891 -1.4905 -0.6454 0
M  V30 15 H -1.498 -0.4492 0.3594 0
M  V30 16 H 0.0701 1.4638 -0.0476 0
M  V30 17 H 1.0785 0.4227 -1.055 0
M  V30 18 H 1.4647 -1.0959 0.9016 0
M  V30 19 H 0.4561 -0.0551 1.9087 0
M  V30 20 H 3.0375 0.8164 0.5002 0
M  V30 21 H 2.029 1.8573 1.5074 0
M  V30 22 H 3.9534 0.9833 2.7914 0
M  V30 23 H 2.4397 0.3626 3.4721 0
M  V30 24 H 3.4538 -0.684 2.4593 0
M  V30 END ATOM
M  V30 BEGIN BOND
M  V30 1 2 1 2
M  V30 2 1 1 3
M  V30 3 1 3 4
M  V30 4 1 4 5
M  V30 5 1 5 6
M  V30 6 1 6 7
M  V30 7 1 7 8
M  V30 8 1 1 9
M  V30 9 1 2 10
M  V30 10 1 2 11
M  V30 11 1 3 12
M  V30 12 1 3 13
M  V30 13 1 4 14
M  V30 14 1 4 15
M  V30 15 1 5 16
M  V30 16 1 5 17
M  V30 17 1 6 18
M  V30 18 1 6 19
M  V30 19 1 7 20
M  V30 20 1 7 21
M  V30 21 1 8 22
M  V30 22 1 8 23
M  V30 23 1 8 24
M  V30 END BOND
M  V30 END CTAB
M  END
>  <NO.>
904

>  <Name>
1-octene

>  <SMILES>
C=CCCCCCC

>  <logBB>
0.74

>  <Class>
1

>  <MW>
112.13

>  <nHBAcc>
0

>  <nHBDon>
0

>  <SLogP>
3.14

>  <TopoPSA>
0

>  <MMFF94 Energy>
4.6266

$$$$
CCCCCCNC(=O)C(c1ccccc1)c1ccccc1
Actelion Java MolfileCreator 2.0

  0  0  0  0  0  0              0 V3000
M  V30 BEGIN CTAB
M  V30 COUNTS 47 48 0 0 0
M  V30 BEGIN ATOM
M  V30 1 O -1.3356 1.8073 -0.0785 0
M  V30 2 C -0.2421 1.2477 -0.114 0
M  V30 3 N -0.1097 -0.1157 0.105 0
M  V30 4 C 1.0936 1.9559 -0.4303 0
M  V30 5 C -1.2598 -0.95 0.3825 0
M  V30 6 C 1.547 1.7388 -1.8747 0
M  V30 7 C 1.1264 3.4244 -0.0159 0
M  V30 8 C -0.8448 -2.276 1.0107 0
M  V30 9 C 2.9194 1.6379 -2.1611 0
M  V30 10 C 0.6342 1.6674 -2.9395 0
M  V30 11 C 0.2759 4.3753 -0.6019 0
M  V30 12 C 2.038 3.8576 0.9624 0
M  V30 13 C -2.0585 -3.1592 1.3 0
M  V30 14 C 3.3629 1.4471 -3.4709 0
M  V30 15 C 1.0807 1.4758 -4.2485 0
M  V30 16 C 0.3323 5.7171 -0.2195 0
M  V30 17 C 2.0935 5.2004 1.3428 0
M  V30 18 C -1.6415 -4.4893 1.9293 0
M  V30 19 C 2.4434 1.3627 -4.5133 0
M  V30 20 C 1.241 6.1294 0.7517 0
M  V30 21 C -2.8552 -5.3722 2.2185 0
M  V30 22 C -2.445 -6.6956 2.8443 0
M  V30 23 H 0.7793 -0.5567 -0.0953 0
M  V30 24 H 1.8297 1.4323 0.2 0
M  V30 25 H -1.778 -1.1158 -0.5684 0
M  V30 26 H -1.9421 -0.406 1.0456 0
M  V30 27 H -0.2936 -2.0851 1.9401 0
M  V30 28 H -0.155 -2.8019 0.3388 0
M  V30 29 H 3.6553 1.7178 -1.3636 0
M  V30 30 H -0.4359 1.7672 -2.7642 0
M  V30 31 H -0.4488 4.075 -1.3558 0
M  V30 32 H 2.7156 3.1529 1.4386 0
M  V30 33 H -2.605 -3.3488 0.3681 0
M  V30 34 H -2.7438 -2.6322 1.9751 0
M  V30 35 H 4.4272 1.3732 -3.6787 0
M  V30 36 H 0.3625 1.4225 -5.0628 0
M  V30 37 H -0.3381 6.4381 -0.6795 0
M  V30 38 H 2.8021 5.5213 2.1018 0
M  V30 39 H -1.0949 -4.2996 2.8612 0
M  V30 40 H -0.9563 -5.0163 1.2544 0
M  V30 41 H 2.7887 1.2192 -5.5337 0
M  V30 42 H 1.2821 7.1738 1.0489 0
M  V30 43 H -3.5417 -4.8515 2.8963 0
M  V30 44 H -3.4031 -5.5683 1.2895 0
M  V30 45 H -3.3281 -7.311 3.0427 0
M  V30 46 H -1.7829 -7.2565 2.177 0
M  V30 47 H -1.9223 -6.5358 3.7928 0
M  V30 END ATOM
M  V30 BEGIN BOND
M  V30 1 2 1 2
M  V30 2 1 2 3
M  V30 3 1 2 4
M  V30 4 1 3 5
M  V30 5 1 4 6
M  V30 6 1 4 7
M  V30 7 1 5 8
M  V30 8 2 6 9
M  V30 9 1 6 10
M  V30 10 2 7 11
M  V30 11 1 7 12
M  V30 12 1 8 13
M  V30 13 1 9 14
M  V30 14 2 10 15
M  V30 15 1 11 16
M  V30 16 2 12 17
M  V30 17 1 13 18
M  V30 18 2 14 19
M  V30 19 2 16 20
M  V30 20 1 18 21
M  V30 21 1 21 22
M  V30 22 1 15 19
M  V30 23 1 17 20
M  V30 24 1 3 23
M  V30 25 1 4 24
M  V30 26 1 5 25
M  V30 27 1 5 26
M  V30 28 1 8 27
M  V30 29 1 8 28
M  V30 30 1 9 29
M  V30 31 1 10 30
M  V30 32 1 11 31
M  V30 33 1 12 32
M  V30 34 1 13 33
M  V30 35 1 13 34
M  V30 36 1 14 35
M  V30 37 1 15 36
M  V30 38 1 16 37
M  V30 39 1 17 38
M  V30 40 1 18 39
M  V30 41 1 18 40
M  V30 42 1 19 41
M  V30 43 1 20 42
M  V30 44 1 21 43
M  V30 45 1 21 44
M  V30 46 1 22 45
M  V30 47 1 22 46
M  V30 48 1 22 47
M  V30 END BOND
M  V30 END CTAB
M  END
>  <NO.>
905

>  <Name>
n-hexyl-2,2-diphenylacetamide

>  <SMILES>
CCCCCCNC(=O)C(c1ccccc1)c1ccccc1

>  <logBB>
0.74

>  <Class>
1

>  <MW>
295.19

>  <nHBAcc>
1

>  <nHBDon>
1

>  <SLogP>
4.52

>  <TopoPSA>
29.1

>  <MMFF94 Energy>
63.527

$$$$
Cc1ncc2n1-c1ccc(Cl)cc1C(c1ccccc1Cl)=NC2
Actelion Java MolfileCreator 2.0

  0  0  0  0  0  0              0 V3000
M  V30 BEGIN CTAB
M  V30 COUNTS 36 39 0 0 0
M  V30 BEGIN ATOM
M  V30 1 Cl 0.7405 2.5526 -3.2946 0
M  V30 2 C -0.0451 1.0161 -3.3462 0
M  V30 3 C -0.1001 0.1632 -2.2384 0
M  V30 4 C -0.6879 0.6459 -4.5305 0
M  V30 5 C 0.5752 0.4957 -0.9585 0
M  V30 6 C -0.7848 -1.0568 -2.3159 0
M  V30 7 C -1.3747 -0.5684 -4.6078 0
M  V30 8 N 1.8644 0.4393 -0.9523 0
M  V30 9 C -0.297 0.8316 0.2132 0
M  V30 10 C -1.4228 -1.4185 -3.5026 0
M  V30 11 C 2.6024 0.7325 0.2681 0
M  V30 12 C -0.0602 0.3388 1.5108 0
M  V30 13 C -1.396 1.6789 -0.0034 0
M  V30 14 C 2.3076 -0.3192 1.2594 0
M  V30 15 N 1.046 -0.5024 1.7767 0
M  V30 16 C -0.8892 0.7251 2.5757 0
M  V30 17 C -2.2295 2.0335 1.0567 0
M  V30 18 C 3.0911 -1.2894 1.8358 0
M  V30 19 C 1.1083 -1.6369 2.5747 0
M  V30 20 C -1.9788 1.5653 2.3433 0
M  V30 21 Cl -3.5707 3.0735 0.7755 0
M  V30 22 N 2.3464 -2.0881 2.6576 0
M  V30 23 C -0.0627 -2.2962 3.2091 0
M  V30 24 H -0.6586 1.3 -5.3988 0
M  V30 25 H -0.8058 -1.7342 -1.4657 0
M  V30 26 H -1.8688 -0.8533 -5.5342 0
M  V30 27 H -1.9489 -2.3683 -3.57 0
M  V30 28 H 2.3699 1.7343 0.6493 0
M  V30 29 H 3.6725 0.7353 0.032 0
M  V30 30 H -1.6007 2.088 -0.9895 0
M  V30 31 H -0.6884 0.4081 3.5967 0
M  V30 32 H 4.1483 -1.4664 1.6846 0
M  V30 33 H -2.6189 1.8617 3.1713 0
M  V30 34 H -0.2916 -1.8337 4.1734 0
M  V30 35 H 0.1568 -3.3533 3.3923 0
M  V30 36 H -0.9487 -2.2535 2.5687 0
M  V30 END ATOM
M  V30 BEGIN BOND
M  V30 1 1 1 2
M  V30 2 2 2 3
M  V30 3 1 2 4
M  V30 4 1 3 5
M  V30 5 1 3 6
M  V30 6 2 4 7
M  V30 7 2 5 8
M  V30 8 1 5 9
M  V30 9 2 6 10
M  V30 10 1 8 11
M  V30 11 2 9 12
M  V30 12 1 9 13
M  V30 13 1 11 14
M  V30 14 1 12 15
M  V30 15 1 12 16
M  V30 16 2 13 17
M  V30 17 2 14 18
M  V30 18 1 15 19
M  V30 19 2 16 20
M  V30 20 1 17 21
M  V30 21 1 18 22
M  V30 22 1 19 23
M  V30 23 1 7 10
M  V30 24 1 14 15
M  V30 25 1 17 20
M  V30 26 2 19 22
M  V30 27 1 4 24
M  V30 28 1 6 25
M  V30 29 1 7 26
M  V30 30 1 10 27
M  V30 31 1 11 28
M  V30 32 1 11 29
M  V30 33 1 13 30
M  V30 34 1 16 31
M  V30 35 1 18 32
M  V30 36 1 20 33
M  V30 37 1 23 34
M  V30 38 1 23 35
M  V30 39 1 23 36
M  V30 END BOND
M  V30 END CTAB
M  END
>  <NO.>
908

>  <Name>
climazolam

>  <SMILES>
Cc1ncc2n1-c1ccc(Cl)cc1C(c1ccccc1Cl)=NC2

>  <logBB>
0.74

>  <Class>
1

>  <MW>
341.05

>  <nHBAcc>
2

>  <nHBDon>
0

>  <SLogP>
4.84

>  <TopoPSA>
30.18

>  <MMFF94 Energy>
77.377

$$$$
NCc1cccc(NC(=O)c2ccc3ccccc3c2)c1
Actelion Java MolfileCreator 2.0

  0  0  0  0  0  0              0 V3000
M  V30 BEGIN CTAB
M  V30 COUNTS 37 39 0 0 0
M  V30 BEGIN ATOM
M  V30 1 O 1.3485 -0.4758 0.7137 0
M  V30 2 C 0.2775 0.0517 0.4401 0
M  V30 3 N -0.9532 -0.5682 0.3221 0
M  V30 4 C 0.2641 1.5186 0.1816 0
M  V30 5 C -1.2416 -1.9338 0.5261 0
M  V30 6 C 1.3515 2.0847 -0.4951 0
M  V30 7 C -0.7844 2.3332 0.6207 0
M  V30 8 C -0.2667 -2.9288 0.624 0
M  V30 9 C -2.5913 -2.2967 0.6092 0
M  V30 10 C 1.3881 3.4612 -0.7672 0
M  V30 11 C -0.757 3.7051 0.3565 0
M  V30 12 C -0.6243 -4.2737 0.8268 0
M  V30 13 C -2.9599 -3.6298 0.8001 0
M  V30 14 C 0.318 4.2818 -0.3392 0
M  V30 15 C 2.4662 4.0408 -1.4546 0
M  V30 16 C -1.9805 -4.6149 0.9076 0
M  V30 17 C 0.441 -5.3352 0.9162 0
M  V30 18 C 0.3575 5.6585 -0.6128 0
M  V30 19 C 2.4891 5.411 -1.7191 0
M  V30 20 N 0.7867 -5.8467 -0.403 0
M  V30 21 C 1.4362 6.2186 -1.2992 0
M  V30 22 H -1.7377 0.0048 0.043 0
M  V30 23 H 2.1714 1.4417 -0.8121 0
M  V30 24 H -1.6114 1.9247 1.1948 0
M  V30 25 H 0.7888 -2.6889 0.5287 0
M  V30 26 H -3.3747 -1.5478 0.5316 0
M  V30 27 H -1.5779 4.3269 0.7084 0
M  V30 28 H -4.0107 -3.8996 0.8635 0
M  V30 29 H 3.2997 3.4264 -1.7889 0
M  V30 30 H -2.2783 -5.6507 1.0513 0
M  V30 31 H 1.3358 -4.9258 1.3988 0
M  V30 32 H 0.0939 -6.1572 1.5535 0
M  V30 33 H -0.4533 6.3082 -0.2907 0
M  V30 34 H 3.3307 5.8464 -2.2518 0
M  V30 35 H -0.0502 -6.2181 -0.8473 0
M  V30 36 H 1.4364 -6.6225 -0.3014 0
M  V30 37 H 1.4547 7.2861 -1.5038 0
M  V30 END ATOM
M  V30 BEGIN BOND
M  V30 1 2 1 2
M  V30 2 1 2 3
M  V30 3 1 2 4
M  V30 4 1 3 5
M  V30 5 2 4 6
M  V30 6 1 4 7
M  V30 7 2 5 8
M  V30 8 1 5 9
M  V30 9 1 6 10
M  V30 10 2 7 11
M  V30 11 1 8 12
M  V30 12 2 9 13
M  V30 13 1 10 14
M  V30 14 2 10 15
M  V30 15 2 12 16
M  V30 16 1 12 17
M  V30 17 2 14 18
M  V30 18 1 15 19
M  V30 19 1 17 20
M  V30 20 1 18 21
M  V30 21 1 11 14
M  V30 22 1 13 16
M  V30 23 2 19 21
M  V30 24 1 3 22
M  V30 25 1 6 23
M  V30 26 1 7 24
M  V30 27 1 8 25
M  V30 28 1 9 26
M  V30 29 1 11 27
M  V30 30 1 13 28
M  V30 31 1 15 29
M  V30 32 1 16 30
M  V30 33 1 17 31
M  V30 34 1 17 32
M  V30 35 1 18 33
M  V30 36 1 19 34
M  V30 37 1 20 35
M  V30 38 1 20 36
M  V30 39 1 21 37
M  V30 END BOND
M  V30 END CTAB
M  END
>  <NO.>
909

>  <Name>
ctk7e5530

>  <SMILES>
NCc1cccc(NC(=O)c2ccc3ccccc3c2)c1

>  <logBB>
0.74

>  <Class>
1

>  <MW>
276.13

>  <nHBAcc>
2

>  <nHBDon>
2

>  <SLogP>
3.55

>  <TopoPSA>
55.12

>  <MMFF94 Energy>
39.38

$$$$
CN(C)Cc1ccc(C(=O)Nc2cc(-c3cccs3)ccc2N)cc1
Actelion Java MolfileCreator 2.0

  0  0  0  0  0  0              0 V3000
M  V30 BEGIN CTAB
M  V30 COUNTS 46 48 0 0 0
M  V30 BEGIN ATOM
M  V30 1 S 2.4805 -5.2867 1.0396 0
M  V30 2 C 0.8919 -5.7056 0.5247 0
M  V30 3 C 3.0483 -6.8867 0.8652 0
M  V30 4 C -0.1785 -4.6908 0.4504 0
M  V30 5 C 0.8255 -7.0579 0.2263 0
M  V30 6 C 2.0635 -7.7369 0.4219 0
M  V30 7 C 0.083 -3.3475 0.1325 0
M  V30 8 C -1.5153 -5.0727 0.6383 0
M  V30 9 C -0.9554 -2.4127 0.0222 0
M  V30 10 C -2.5561 -4.144 0.5332 0
M  V30 11 N -0.7116 -1.0339 -0.1699 0
M  V30 12 C -2.2942 -2.8176 0.189 0
M  V30 13 C 0.3707 -0.4736 -0.8178 0
M  V30 14 N -3.3478 -1.9026 0.1106 0
M  V30 15 O 1.2937 -1.083 -1.3459 0
M  V30 16 C 0.3931 1.0164 -0.8469 0
M  V30 17 C 1.6347 1.6614 -0.8032 0
M  V30 18 C -0.778 1.777 -0.9417 0
M  V30 19 C 1.7061 3.0566 -0.8234 0
M  V30 20 C -0.7033 3.1723 -0.9632 0
M  V30 21 C 0.5368 3.8259 -0.8945 0
M  V30 22 C 0.6104 5.3395 -0.934 0
M  V30 23 N -0.1898 5.9904 0.119 0
M  V30 24 C -0.286 7.4276 -0.1439 0
M  V30 25 C 0.3923 5.7679 1.4456 0
M  V30 26 H 4.0779 -7.1251 1.0927 0
M  V30 27 H -0.0724 -7.5455 -0.1323 0
M  V30 28 H 2.2222 -8.7927 0.2415 0
M  V30 29 H 1.1088 -3.0219 -0.0134 0
M  V30 30 H -1.765 -6.0993 0.8958 0
M  V30 31 H -3.5758 -4.4764 0.7065 0
M  V30 32 H -1.4028 -0.4316 0.2571 0
M  V30 33 H -4.2924 -2.2571 0.198 0
M  V30 34 H -3.2248 -1.1151 -0.5123 0
M  V30 35 H 2.5508 1.076 -0.7506 0
M  V30 36 H -1.7527 1.3076 -1.027 0
M  V30 37 H 2.6816 3.536 -0.7839 0
M  V30 38 H -1.6174 3.7601 -1.0331 0
M  V30 39 H 0.2369 5.6379 -1.9232 0
M  V30 40 H 1.6554 5.674 -0.886 0
M  V30 41 H -0.7692 7.6111 -1.11 0
M  V30 42 H 0.6958 7.9146 -0.1504 0
M  V30 43 H -0.9092 7.917 0.613 0
M  V30 44 H 1.4161 6.1526 1.518 0
M  V30 45 H 0.4037 4.7037 1.7029 0
M  V30 46 H -0.2129 6.2602 2.2156 0
M  V30 END ATOM
M  V30 BEGIN BOND
M  V30 1 1 1 2
M  V30 2 1 1 3
M  V30 3 1 2 4
M  V30 4 2 2 5
M  V30 5 2 3 6
M  V30 6 2 4 7
M  V30 7 1 4 8
M  V30 8 1 7 9
M  V30 9 2 8 10
M  V30 10 1 9 11
M  V30 11 2 9 12
M  V30 12 1 11 13
M  V30 13 1 12 14
M  V30 14 2 13 15
M  V30 15 1 13 16
M  V30 16 2 16 17
M  V30 17 1 16 18
M  V30 18 1 17 19
M  V30 19 2 18 20
M  V30 20 2 19 21
M  V30 21 1 21 22
M  V30 22 1 22 23
M  V30 23 1 23 24
M  V30 24 1 23 25
M  V30 25 1 5 6
M  V30 26 1 10 12
M  V30 27 1 20 21
M  V30 28 1 3 26
M  V30 29 1 5 27
M  V30 30 1 6 28
M  V30 31 1 7 29
M  V30 32 1 8 30
M  V30 33 1 10 31
M  V30 34 1 11 32
M  V30 35 1 14 33
M  V30 36 1 14 34
M  V30 37 1 17 35
M  V30 38 1 18 36
M  V30 39 1 19 37
M  V30 40 1 20 38
M  V30 41 1 22 39
M  V30 42 1 22 40
M  V30 43 1 24 41
M  V30 44 1 24 42
M  V30 45 1 24 43
M  V30 46 1 25 44
M  V30 47 1 25 45
M  V30 48 1 25 46
M  V30 END BOND
M  V30 END CTAB
M  END
>  <NO.>
913

>  <Name>


>  <SMILES>
CN(C)Cc1ccc(C(=O)Nc2cc(-c3cccs3)ccc2N)cc1

>  <logBB>
0.77

>  <Class>
1

>  <MW>
351.14

>  <nHBAcc>
4

>  <nHBDon>
2

>  <SLogP>
4.31

>  <TopoPSA>
58.36

>  <MMFF94 Energy>
63.353

$$$$
Cc1ccc(/C(=C/CN2CCCC2)c2ccccn2)cc1
Actelion Java MolfileCreator 2.0

  0  0  0  0  0  0              0 V3000
M  V30 BEGIN CTAB
M  V30 COUNTS 43 45 0 0 0
M  V30 BEGIN ATOM
M  V30 1 N -1.1879 2.2182 -1.3463 0
M  V30 2 C -0.7965 0.9607 -1.6753 0
M  V30 3 C -2.035 2.8451 -2.1916 0
M  V30 4 C 0.1637 0.2868 -0.7614 0
M  V30 5 C -1.2256 0.3266 -2.8393 0
M  V30 6 C -2.5145 2.2831 -3.3623 0
M  V30 7 C 1.3772 -0.4126 -1.26 0
M  V30 8 C 0.0013 0.3152 0.5822 0
M  V30 9 C -2.0995 0.9988 -3.6904 0
M  V30 10 C 2.3108 0.2805 -2.0402 0
M  V30 11 C 1.5919 -1.7717 -0.9932 0
M  V30 12 C -1.1525 0.9053 1.3483 0
M  V30 13 C 3.4449 -0.3697 -2.5345 0
M  V30 14 C 2.726 -2.4214 -1.488 0
M  V30 15 N -1.4753 0.1109 2.5435 0
M  V30 16 C 3.6676 -1.7222 -2.2514 0
M  V30 17 C -0.5303 0.3126 3.6464 0
M  V30 18 C -2.774 0.4969 3.1034 0
M  V30 19 C 4.8684 -2.4272 -2.809 0
M  V30 20 C -1.2795 -0.2351 4.8533 0
M  V30 21 C -2.7551 -0.1346 4.4862 0
M  V30 22 H -2.3272 3.8476 -1.8923 0
M  V30 23 H -0.8907 -0.6763 -3.0832 0
M  V30 24 H -3.1934 2.8338 -4.0036 0
M  V30 25 H 0.7729 -0.1364 1.2015 0
M  V30 26 H -2.45 0.5224 -4.6013 0
M  V30 27 H 2.1622 1.3351 -2.264 0
M  V30 28 H 0.8719 -2.3345 -0.4025 0
M  V30 29 H -0.9236 1.9439 1.6178 0
M  V30 30 H -2.0443 0.916 0.7113 0
M  V30 31 H 4.1542 0.1897 -3.1401 0
M  V30 32 H 2.8682 -3.4779 -1.2716 0
M  V30 33 H 0.4134 -0.2206 3.4974 0
M  V30 34 H -0.3087 1.3762 3.8038 0
M  V30 35 H -3.6099 0.1226 2.5036 0
M  V30 36 H -2.8685 1.587 3.1939 0
M  V30 37 H 5.7138 -1.7385 -2.91 0
M  V30 38 H 4.6332 -2.8458 -3.7924 0
M  V30 39 H 5.1881 -3.2381 -2.1459 0
M  V30 40 H -1.0129 -1.2826 5.0365 0
M  V30 41 H -1.048 0.3338 5.7597 0
M  V30 42 H -3.3153 0.4646 5.2112 0
M  V30 43 H -3.2004 -1.1363 4.4623 0
M  V30 END ATOM
M  V30 BEGIN BOND
M  V30 1 2 1 2
M  V30 2 1 1 3
M  V30 3 1 2 4
M  V30 4 1 2 5
M  V30 5 2 3 6
M  V30 6 1 4 7
M  V30 7 2 4 8
M  V30 8 2 5 9
M  V30 9 2 7 10
M  V30 10 1 7 11
M  V30 11 1 8 12
M  V30 12 1 10 13
M  V30 13 2 11 14
M  V30 14 1 12 15
M  V30 15 2 13 16
M  V30 16 1 15 17
M  V30 17 1 15 18
M  V30 18 1 16 19
M  V30 19 1 17 20
M  V30 20 1 18 21
M  V30 21 1 6 9
M  V30 22 1 14 16
M  V30 23 1 20 21
M  V30 24 1 3 22
M  V30 25 1 5 23
M  V30 26 1 6 24
M  V30 27 1 8 25
M  V30 28 1 9 26
M  V30 29 1 10 27
M  V30 30 1 11 28
M  V30 31 1 12 29
M  V30 32 1 12 30
M  V30 33 1 13 31
M  V30 34 1 14 32
M  V30 35 1 17 33
M  V30 36 1 17 34
M  V30 37 1 18 35
M  V30 38 1 18 36
M  V30 39 1 19 37
M  V30 40 1 19 38
M  V30 41 1 19 39
M  V30 42 1 20 40
M  V30 43 1 20 41
M  V30 44 1 21 42
M  V30 45 1 21 43
M  V30 END BOND
M  V30 END CTAB
M  END
>  <NO.>
914

>  <Name>
tripyrolidine

>  <SMILES>
Cc1ccc(/C(=C/CN2CCCC2)c2ccccn2)cc1

>  <logBB>
0.77

>  <Class>
1

>  <MW>
278.18

>  <nHBAcc>
2

>  <nHBDon>
0

>  <SLogP>
3.92

>  <TopoPSA>
16.13

>  <MMFF94 Energy>
44.496

$$$$
Fc1ccc(Cn2c([C@H]3CNCCO3)nc3ccccc32)cc1
Actelion Java MolfileCreator 2.0

  0  0  0  0  0  0              0 V3000
M  V30 BEGIN CTAB
M  V30 COUNTS 41 44 0 0 0
M  V30 BEGIN ATOM
M  V30 1 F -1.3657 -1.2049 -5.6326 0
M  V30 2 C -0.8411 -0.6837 -4.5158 0
M  V30 3 C -0.1797 0.536 -4.5755 0
M  V30 4 C -0.9603 -1.3721 -3.3162 0
M  V30 5 C 0.3693 1.0804 -3.413 0
M  V30 6 C -0.4115 -0.8302 -2.1526 0
M  V30 7 C 0.2486 0.4101 -2.1828 0
M  V30 8 C 0.8776 1.0058 -0.9419 0
M  V30 9 N 0.0011 0.9843 0.2229 0
M  V30 10 C -1.1421 1.7437 0.3675 0
M  V30 11 C 0.1991 0.2769 1.3957 0
M  V30 12 C -1.6015 1.4316 1.6413 0
M  V30 13 C -1.8078 2.6473 -0.4713 0
M  V30 14 N -0.7687 0.5368 2.2583 0
M  V30 15 C 1.3754 -0.625 1.6495 0 CFG=2
M  V30 16 C -2.7751 2.0315 2.1213 0
M  V30 17 C -2.9774 3.2365 0.0229 0
M  V30 18 O 1.3635 -1.6325 0.6194 0
M  V30 19 C 1.3055 -1.2848 3.0483 0
M  V30 20 C -3.4564 2.9357 1.2984 0
M  V30 21 C 2.4544 -2.5456 0.8001 0
M  V30 22 N 2.4047 -2.2537 3.2678 0
M  V30 23 C 2.3897 -3.2342 2.1708 0
M  V30 24 H -0.0943 1.053 -5.5259 0
M  V30 25 H -1.4778 -2.3257 -3.291 0
M  V30 26 H 0.8898 2.0339 -3.4753 0
M  V30 27 H -0.5094 -1.3848 -1.2205 0
M  V30 28 H 1.1342 2.0604 -1.103 0
M  V30 29 H 1.8111 0.4841 -0.7169 0
M  V30 30 H -1.4487 2.8803 -1.4675 0
M  V30 31 H 2.2992 -0.0377 1.563 0
M  V30 32 H -3.139 1.7924 3.1141 0
M  V30 33 H -3.5253 3.939 -0.6018 0
M  V30 34 H 0.351 -1.8137 3.1712 0
M  V30 35 H 1.3552 -0.5171 3.8289 0
M  V30 36 H -4.3683 3.4052 1.6589 0
M  V30 37 H 3.4004 -2.0065 0.6695 0
M  V30 38 H 2.3886 -3.2963 0.0062 0
M  V30 39 H 2.2398 -2.7355 4.152 0
M  V30 40 H 1.4739 -3.834 2.2383 0
M  V30 41 H 3.2418 -3.912 2.2829 0
M  V30 END ATOM
M  V30 BEGIN BOND
M  V30 1 1 1 2
M  V30 2 2 2 3
M  V30 3 1 2 4
M  V30 4 1 3 5
M  V30 5 2 4 6
M  V30 6 2 5 7
M  V30 7 1 7 8
M  V30 8 1 8 9
M  V30 9 1 9 10
M  V30 10 1 9 11
M  V30 11 2 10 12
M  V30 12 1 10 13
M  V30 13 2 11 14
M  V30 14 1 11 15
M  V30 15 1 12 16
M  V30 16 2 13 17
M  V30 17 1 15 18
M  V30 18 1 15 19
M  V30 19 2 16 20
M  V30 20 1 18 21
M  V30 21 1 19 22
M  V30 22 1 21 23
M  V30 23 1 6 7
M  V30 24 1 12 14
M  V30 25 1 17 20
M  V30 26 1 22 23
M  V30 27 1 3 24
M  V30 28 1 4 25
M  V30 29 1 5 26
M  V30 30 1 6 27
M  V30 31 1 8 28
M  V30 32 1 8 29
M  V30 33 1 13 30
M  V30 34 1 15 31
M  V30 35 1 16 32
M  V30 36 1 17 33
M  V30 37 1 19 34
M  V30 38 1 19 35
M  V30 39 1 20 36
M  V30 40 1 21 37
M  V30 41 1 21 38
M  V30 42 1 22 39
M  V30 43 1 23 40
M  V30 44 1 23 41
M  V30 END BOND
M  V30 BEGIN COLLECTION
M  V30 MDLV30/STEABS ATOMS=(1 15)
M  V30 END COLLECTION
M  V30 END CTAB
M  END
>  <NO.>
915

>  <Name>
9b

>  <SMILES>
Fc1ccc(Cn2c([C@H]3CNCCO3)nc3ccccc32)cc1

>  <logBB>
0.77

>  <Class>
1

>  <MW>
311.14

>  <nHBAcc>
3

>  <nHBDon>
1

>  <SLogP>
2.88

>  <TopoPSA>
39.08

>  <MMFF94 Energy>
118.67

$$$$
Cc1cc2c(s1)=Nc1ccccc1NC=2N1CCN(C)CC1
Actelion Java MolfileCreator 2.0

  0  0  0  0  0  0              0 V3000
M  V30 BEGIN CTAB
M  V30 COUNTS 42 45 0 0 0
M  V30 BEGIN ATOM
M  V30 1 S -1.2115 -2.9095 -2.9905 0
M  V30 2 C -1.5613 -1.4658 -1.9964 0
M  V30 3 C 0.392 -3.0965 -2.3497 0
M  V30 4 N -2.7173 -0.9459 -2.147 0
M  V30 5 C -0.3512 -1.1931 -1.1784 0
M  V30 6 C 0.7024 -2.1634 -1.4423 0
M  V30 7 C 1.2739 -4.2047 -2.8098 0
M  V30 8 C -3.1916 0.1807 -1.4708 0
M  V30 9 C -0.2564 -0.1702 -0.3049 0
M  V30 10 C -2.526 0.9607 -0.5116 0
M  V30 11 C -4.5073 0.5345 -1.8346 0
M  V30 12 N 0.9073 0.0387 0.4388 0
M  V30 13 N -1.2254 0.7537 -0.0366 0
M  V30 14 C -3.2156 2.0673 0.0421 0
M  V30 15 C -5.1688 1.6275 -1.2779 0
M  V30 16 C 1.1818 -0.696 1.685 0
M  V30 17 C 2.0692 0.7564 -0.1116 0
M  V30 18 C -4.5179 2.3995 -0.3325 0
M  V30 19 C 1.8595 0.2253 2.7233 0
M  V30 20 C 2.7254 1.6425 0.9702 0
M  V30 21 N 3.074 0.8861 2.1941 0
M  V30 22 C 3.6577 1.7723 3.1989 0
M  V30 23 H 1.6571 -2.1229 -0.9382 0
M  V30 24 H 2.2468 -4.1776 -2.3075 0
M  V30 25 H 0.8172 -5.1768 -2.5969 0
M  V30 26 H 1.4544 -4.134 -3.8874 0
M  V30 27 H -5.0225 -0.0711 -2.5785 0
M  V30 28 H -0.9023 1.4146 0.6572 0
M  V30 29 H -2.7271 2.6913 0.7877 0
M  V30 30 H -6.1826 1.8658 -1.5859 0
M  V30 31 H 1.832 -1.5519 1.4681 0
M  V30 32 H 0.2512 -1.0883 2.1126 0
M  V30 33 H 2.7995 0.0316 -0.4908 0
M  V30 34 H 1.7655 1.3903 -0.9534 0
M  V30 35 H -5.0149 3.2559 0.1142 0
M  V30 36 H 1.1328 0.9802 3.0535 0
M  V30 37 H 2.1237 -0.3806 3.5982 0
M  V30 38 H 3.6321 2.0883 0.5441 0
M  V30 39 H 2.0397 2.4646 1.2173 0
M  V30 40 H 2.9688 2.5688 3.5026 0
M  V30 41 H 3.9427 1.2045 4.0914 0
M  V30 42 H 4.5729 2.2363 2.8151 0
M  V30 END ATOM
M  V30 BEGIN BOND
M  V30 1 1 1 2
M  V30 2 1 1 3
M  V30 3 2 2 4
M  V30 4 1 2 5
M  V30 5 2 3 6
M  V30 6 1 3 7
M  V30 7 1 4 8
M  V30 8 2 5 9
M  V30 9 2 8 10
M  V30 10 1 8 11
M  V30 11 1 9 12
M  V30 12 1 9 13
M  V30 13 1 10 14
M  V30 14 2 11 15
M  V30 15 1 12 16
M  V30 16 1 12 17
M  V30 17 2 14 18
M  V30 18 1 16 19
M  V30 19 1 17 20
M  V30 20 1 19 21
M  V30 21 1 21 22
M  V30 22 1 5 6
M  V30 23 1 10 13
M  V30 24 1 15 18
M  V30 25 1 20 21
M  V30 26 1 6 23
M  V30 27 1 7 24
M  V30 28 1 7 25
M  V30 29 1 7 26
M  V30 30 1 11 27
M  V30 31 1 13 28
M  V30 32 1 14 29
M  V30 33 1 15 30
M  V30 34 1 16 31
M  V30 35 1 16 32
M  V30 36 1 17 33
M  V30 37 1 17 34
M  V30 38 1 18 35
M  V30 39 1 19 36
M  V30 40 1 19 37
M  V30 41 1 20 38
M  V30 42 1 20 39
M  V30 43 1 22 40
M  V30 44 1 22 41
M  V30 45 1 22 42
M  V30 END BOND
M  V30 END CTAB
M  END
>  <NO.>
916

>  <Name>
olanzapine

>  <SMILES>
Cc1cc2c(s1)=Nc1ccccc1NC=2N1CCN(C)CC1

>  <logBB>
0.78

>  <Class>
1

>  <MW>
312.14

>  <nHBAcc>
5

>  <nHBDon>
1

>  <SLogP>
1.75

>  <TopoPSA>
30.87

>  <MMFF94 Energy>
120.64

$$$$
CN(c1nc2ccccc2s1)C1CCN(CC(O)COc2ccc(F)cc2)CC1
Actelion Java MolfileCreator 2.0

  0  0  0  0  0  0              0 V3000
M  V30 BEGIN CTAB
M  V30 COUNTS 55 58 0 0 0
M  V30 BEGIN ATOM
M  V30 1 S 1.0471 2.1757 -2.4984 0
M  V30 2 C 1.4348 0.9282 -3.6336 0
M  V30 3 C 1.4769 3.3937 -3.6229 0
M  V30 4 N 1.8694 1.4017 -4.7855 0
M  V30 5 N 1.3374 -0.4199 -3.3985 0
M  V30 6 C 1.8965 2.783 -4.7991 0
M  V30 7 C 1.4479 4.7909 -3.4786 0
M  V30 8 C 0.6038 -1.0684 -2.2999 0
M  V30 9 C 1.8578 -1.2976 -4.4455 0
M  V30 10 C 2.3043 3.5939 -5.8778 0
M  V30 11 C 1.8565 5.5757 -4.5616 0
M  V30 12 C 1.2863 -0.9155 -0.9394 0
M  V30 13 C -0.8848 -0.7127 -2.2608 0
M  V30 14 C 2.2801 4.9866 -5.7486 0
M  V30 15 C 0.4823 -1.6494 0.1366 0
M  V30 16 C -1.5773 -1.4544 -1.1143 0
M  V30 17 N -0.9394 -1.2686 0.2007 0
M  V30 18 C -1.1672 0.0969 0.7258 0
M  V30 19 C -0.8055 0.3321 2.21 0 CFG=2
M  V30 20 O 0.6091 0.5118 2.3675 0
M  V30 21 C -1.3084 -0.7839 3.134 0
M  V30 22 O -1.0735 -0.3572 4.4853 0
M  V30 23 C -1.4696 -1.2072 5.4808 0
M  V30 24 C -2.0409 -2.47 5.303 0
M  V30 25 C -1.2592 -0.7233 6.7773 0
M  V30 26 C -2.3993 -3.2383 6.4151 0
M  V30 27 C -1.6169 -1.4897 7.8875 0
M  V30 28 C -2.1847 -2.7418 7.6953 0
M  V30 29 F -2.5298 -3.4815 8.757 0
M  V30 30 H 1.1189 5.25 -2.5514 0
M  V30 31 H 0.6211 -2.1502 -2.501 0
M  V30 32 H 1.1366 -1.3782 -5.2659 0
M  V30 33 H 2.0538 -2.3064 -4.0657 0
M  V30 34 H 2.8121 -0.9345 -4.8448 0
M  V30 35 H 2.6345 3.1279 -6.8004 0
M  V30 36 H 1.8433 6.66 -4.4724 0
M  V30 37 H 1.4079 0.1301 -0.6491 0
M  V30 38 H 2.2984 -1.3363 -0.986 0
M  V30 39 H -1.3566 -0.9918 -3.2111 0
M  V30 40 H -1.0521 0.3606 -2.1446 0
M  V30 41 H 2.5958 5.609 -6.5824 0
M  V30 42 H 0.9701 -1.5379 1.1091 0
M  V30 43 H 0.5305 -2.728 -0.0667 0
M  V30 44 H -1.5899 -2.5287 -1.341 0
M  V30 45 H -2.6332 -1.1603 -1.0687 0
M  V30 46 H -0.649 0.844 0.1148 0
M  V30 47 H -2.2415 0.3081 0.6408 0
M  V30 48 H -1.2552 1.2823 2.524 0
M  V30 49 H 0.7699 0.5166 3.3301 0
M  V30 50 H -2.381 -0.9438 2.9739 0
M  V30 51 H -0.7431 -1.7049 2.9531 0
M  V30 52 H -2.2183 -2.8871 4.3171 0
M  V30 53 H -0.8146 0.2581 6.9225 0
M  V30 54 H -2.8432 -4.2208 6.2892 0
M  V30 55 H -1.4562 -1.1182 8.8942 0
M  V30 END ATOM
M  V30 BEGIN BOND
M  V30 1 1 1 2
M  V30 2 1 1 3
M  V30 3 2 2 4
M  V30 4 1 2 5
M  V30 5 2 3 6
M  V30 6 1 3 7
M  V30 7 1 5 8
M  V30 8 1 5 9
M  V30 9 1 6 10
M  V30 10 2 7 11
M  V30 11 1 8 12
M  V30 12 1 8 13
M  V30 13 2 10 14
M  V30 14 1 12 15
M  V30 15 1 13 16
M  V30 16 1 15 17
M  V30 17 1 17 18
M  V30 18 1 18 19
M  V30 19 1 19 20
M  V30 20 1 19 21
M  V30 21 1 21 22
M  V30 22 1 22 23
M  V30 23 2 23 24
M  V30 24 1 23 25
M  V30 25 1 24 26
M  V30 26 2 25 27
M  V30 27 2 26 28
M  V30 28 1 28 29
M  V30 29 1 4 6
M  V30 30 1 11 14
M  V30 31 1 16 17
M  V30 32 1 27 28
M  V30 33 1 7 30
M  V30 34 1 8 31
M  V30 35 1 9 32
M  V30 36 1 9 33
M  V30 37 1 9 34
M  V30 38 1 10 35
M  V30 39 1 11 36
M  V30 40 1 12 37
M  V30 41 1 12 38
M  V30 42 1 13 39
M  V30 43 1 13 40
M  V30 44 1 14 41
M  V30 45 1 15 42
M  V30 46 1 15 43
M  V30 47 1 16 44
M  V30 48 1 16 45
M  V30 49 1 18 46
M  V30 50 1 18 47
M  V30 51 1 19 48
M  V30 52 1 20 49
M  V30 53 1 21 50
M  V30 54 1 21 51
M  V30 55 1 24 52
M  V30 56 1 25 53
M  V30 57 1 26 54
M  V30 58 1 27 55
M  V30 END BOND
M  V30 BEGIN COLLECTION
M  V30 MDLV30/STERAC1 ATOMS=(1 19)
M  V30 END COLLECTION
M  V30 END CTAB
M  END
>  <NO.>
917

>  <Name>
sabeluzole

>  <SMILES>
CN(c1nc2ccccc2s1)C1CCN(CC(O)COc2ccc(F)cc2)CC1

>  <logBB>
0.78

>  <Class>
1

>  <MW>
415.17

>  <nHBAcc>
6

>  <nHBDon>
1

>  <SLogP>
3.78

>  <TopoPSA>
48.83

>  <MMFF94 Energy>
53.743

$$$$
COc1ccccc1N1CCN(CCCCNC(=O)c2ccc3ccccc3c2)CC1
Actelion Java MolfileCreator 2.0

  0  0  0  0  0  0              0 V3000
M  V30 BEGIN CTAB
M  V30 COUNTS 62 65 0 0 0
M  V30 BEGIN ATOM
M  V30 1 O 4.047 0.6339 2.4584 0
M  V30 2 C 3.3346 -0.0585 3.1758 0
M  V30 3 N 2.0066 -0.3204 2.9093 0
M  V30 4 C 3.879 -0.6345 4.4356 0
M  V30 5 C 1.3554 0.2122 1.73 0
M  V30 6 C 3.4053 -1.8434 4.9621 0
M  V30 7 C 4.9097 0.0487 5.0866 0
M  V30 8 C 0.175 -0.6583 1.3127 0
M  V30 9 C 3.9384 -2.3616 6.1548 0
M  V30 10 C 5.4463 -0.4556 6.2729 0
M  V30 11 C -0.5228 -0.0938 0.0724 0
M  V30 12 C 4.9687 -1.6561 6.8204 0
M  V30 13 C 3.4729 -3.5696 6.6994 0
M  V30 14 C -1.7052 -0.9818 -0.3418 0
M  V30 15 C 5.4984 -2.1756 8.0121 0
M  V30 16 C 4.0108 -4.0721 7.8853 0
M  V30 17 N -2.4777 -0.565 -1.5155 0
M  V30 18 C 5.0213 -3.3756 8.5413 0
M  V30 19 C -3.1534 0.7376 -1.3437 0
M  V30 20 C -1.6829 -0.5415 -2.7627 0
M  V30 21 C -4.0524 1.1035 -2.5501 0
M  V30 22 C -2.5409 -0.2089 -4.0062 0
M  V30 23 N -3.2841 1.0456 -3.7992 0
M  V30 24 C -3.715 1.7275 -4.9373 0
M  V30 25 C -2.796 2.2698 -5.874 0
M  V30 26 C -5.0868 1.9064 -5.191 0
M  V30 27 O -1.4597 2.1246 -5.5738 0
M  V30 28 C -3.2622 2.9298 -7.0209 0
M  V30 29 C -5.5422 2.5727 -6.3308 0
M  V30 30 C -0.5267 2.8569 -6.354 0
M  V30 31 C -4.6303 3.0799 -7.2467 0
M  V30 32 H 1.4332 -0.7476 3.6235 0
M  V30 33 H 2.0842 0.2878 0.9154 0
M  V30 34 H 1.021 1.2259 1.9767 0
M  V30 35 H 2.6393 -2.4047 4.4342 0
M  V30 36 H 5.2959 0.9782 4.6724 0
M  V30 37 H -0.5412 -0.7298 2.1409 0
M  V30 38 H 0.5255 -1.6782 1.111 0
M  V30 39 H 6.2449 0.0962 6.7642 0
M  V30 40 H -0.8672 0.9225 0.2926 0
M  V30 41 H 0.2059 -0.0248 -0.7425 0
M  V30 42 H 2.6853 -4.132 6.2029 0
M  V30 43 H -1.3383 -2.0012 -0.519 0
M  V30 44 H -2.3959 -1.0722 0.5068 0
M  V30 45 H 6.2917 -1.6483 8.5377 0
M  V30 46 H 3.6412 -5.0084 8.2958 0
M  V30 47 H 5.4417 -3.7668 9.4642 0
M  V30 48 H -3.7818 0.7125 -0.4455 0
M  V30 49 H -2.4169 1.5396 -1.2093 0
M  V30 50 H -0.8774 0.1999 -2.6938 0
M  V30 51 H -1.2184 -1.5219 -2.9208 0
M  V30 52 H -4.4474 2.1136 -2.3862 0
M  V30 53 H -4.9003 0.4087 -2.5984 0
M  V30 54 H -3.2571 -1.0214 -4.186 0
M  V30 55 H -1.8801 -0.1715 -4.8783 0
M  V30 56 H -5.827 1.501 -4.5073 0
M  V30 57 H -2.5821 3.3404 -7.7587 0
M  V30 58 H -6.6092 2.6855 -6.502 0
M  V30 59 H -0.4909 2.4776 -7.3801 0
M  V30 60 H 0.464 2.711 -5.913 0
M  V30 61 H -0.7435 3.9302 -6.334 0
M  V30 62 H -4.9815 3.5941 -8.1373 0
M  V30 END ATOM
M  V30 BEGIN BOND
M  V30 1 2 1 2
M  V30 2 1 2 3
M  V30 3 1 2 4
M  V30 4 1 3 5
M  V30 5 2 4 6
M  V30 6 1 4 7
M  V30 7 1 5 8
M  V30 8 1 6 9
M  V30 9 2 7 10
M  V30 10 1 8 11
M  V30 11 1 9 12
M  V30 12 2 9 13
M  V30 13 1 11 14
M  V30 14 2 12 15
M  V30 15 1 13 16
M  V30 16 1 14 17
M  V30 17 1 15 18
M  V30 18 1 17 19
M  V30 19 1 17 20
M  V30 20 1 19 21
M  V30 21 1 20 22
M  V30 22 1 21 23
M  V30 23 1 23 24
M  V30 24 2 24 25
M  V30 25 1 24 26
M  V30 26 1 25 27
M  V30 27 1 25 28
M  V30 28 2 26 29
M  V30 29 1 27 30
M  V30 30 2 28 31
M  V30 31 1 10 12
M  V30 32 2 16 18
M  V30 33 1 22 23
M  V30 34 1 29 31
M  V30 35 1 3 32
M  V30 36 1 5 33
M  V30 37 1 5 34
M  V30 38 1 6 35
M  V30 39 1 7 36
M  V30 40 1 8 37
M  V30 41 1 8 38
M  V30 42 1 10 39
M  V30 43 1 11 40
M  V30 44 1 11 41
M  V30 45 1 13 42
M  V30 46 1 14 43
M  V30 47 1 14 44
M  V30 48 1 15 45
M  V30 49 1 16 46
M  V30 50 1 18 47
M  V30 51 1 19 48
M  V30 52 1 19 49
M  V30 53 1 20 50
M  V30 54 1 20 51
M  V30 55 1 21 52
M  V30 56 1 21 53
M  V30 57 1 22 54
M  V30 58 1 22 55
M  V30 59 1 26 56
M  V30 60 1 28 57
M  V30 61 1 29 58
M  V30 62 1 30 59
M  V30 63 1 30 60
M  V30 64 1 30 61
M  V30 65 1 31 62
M  V30 END BOND
M  V30 END CTAB
M  END
>  <NO.>
919

>  <Name>
piperazinederivatives 12

>  <SMILES>
COc1ccccc1N1CCN(CCCCNC(=O)c2ccc3ccccc3c2)CC1

>  <logBB>
0.78

>  <Class>
1

>  <MW>
417.24

>  <nHBAcc>
4

>  <nHBDon>
1

>  <SLogP>
4.18

>  <TopoPSA>
44.81

>  <MMFF94 Energy>
140.75

$$$$
COCCCC/C(=N/OCCN)c1ccc(C(F)(F)F)cc1
Actelion Java MolfileCreator 2.0

  0  0  0  0  0  0              0 V3000
M  V30 BEGIN CTAB
M  V30 COUNTS 43 43 0 0 0
M  V30 BEGIN ATOM
M  V30 1 F -5.0694 1.5029 3.9588 0
M  V30 2 C -3.9177 2.1593 3.645 0
M  V30 3 F -3.3318 2.4685 4.8356 0
M  V30 4 F -4.2993 3.3448 3.096 0
M  V30 5 C -3.0148 1.3662 2.7303 0
M  V30 6 C -1.622 1.5483 2.77 0
M  V30 7 C -3.5574 0.4647 1.7997 0
M  V30 8 C -0.7858 0.8334 1.9088 0
M  V30 9 C -2.7242 -0.2508 0.9374 0
M  V30 10 C -1.3406 -0.0627 0.9932 0
M  V30 11 C -0.4614 -0.8454 0.0885 0
M  V30 12 N -0.5061 -0.8163 -1.2116 0
M  V30 13 C 0.5184 -1.803 0.7546 0
M  V30 14 O -1.425 0.1301 -1.6881 0
M  V30 15 C 1.943 -1.6858 0.2105 0
M  V30 16 C -1.413 0.114 -3.1164 0
M  V30 17 C 2.609 -0.3643 0.5888 0
M  V30 18 C -2.3279 -0.9965 -3.6416 0
M  V30 19 C 4.0406 -0.2855 0.0716 0
M  V30 20 N -2.4385 -1.0186 -5.1028 0
M  V30 21 O 4.5975 0.9577 0.4966 0
M  V30 22 C 5.9329 1.117 0.0366 0
M  V30 23 H -1.1823 2.2539 3.4745 0
M  V30 24 H -4.6353 0.3175 1.7424 0
M  V30 25 H 0.2879 0.9942 1.95 0
M  V30 26 H -3.1531 -0.9471 0.2203 0
M  V30 27 H 0.1482 -2.8171 0.5584 0
M  V30 28 H 0.5166 -1.6709 1.8419 0
M  V30 29 H 1.9456 -1.8004 -0.8798 0
M  V30 30 H 2.5362 -2.5147 0.6159 0
M  V30 31 H -0.3876 0.0042 -3.4908 0
M  V30 32 H -1.7809 1.0902 -3.4507 0
M  V30 33 H 2.6102 -0.2394 1.6789 0
M  V30 34 H 2.0406 0.4833 0.1877 0
M  V30 35 H -3.3285 -0.8794 -3.2097 0
M  V30 36 H -1.9667 -1.9719 -3.2969 0
M  V30 37 H 4.638 -1.1099 0.4773 0
M  V30 38 H 4.0517 -0.3389 -1.023 0
M  V30 39 H -2.7583 -0.11 -5.436 0
M  V30 40 H -1.5134 -1.1604 -5.5075 0
M  V30 41 H 6.307 2.0807 0.3924 0
M  V30 42 H 5.9644 1.1119 -1.057 0
M  V30 43 H 6.5728 0.3244 0.4363 0
M  V30 END ATOM
M  V30 BEGIN BOND
M  V30 1 1 1 2
M  V30 2 1 2 3
M  V30 3 1 2 4
M  V30 4 1 2 5
M  V30 5 2 5 6
M  V30 6 1 5 7
M  V30 7 1 6 8
M  V30 8 2 7 9
M  V30 9 2 8 10
M  V30 10 1 10 11
M  V30 11 2 11 12
M  V30 12 1 11 13
M  V30 13 1 12 14
M  V30 14 1 13 15
M  V30 15 1 14 16
M  V30 16 1 15 17
M  V30 17 1 16 18
M  V30 18 1 17 19
M  V30 19 1 18 20
M  V30 20 1 19 21
M  V30 21 1 21 22
M  V30 22 1 9 10
M  V30 23 1 6 23
M  V30 24 1 7 24
M  V30 25 1 8 25
M  V30 26 1 9 26
M  V30 27 1 13 27
M  V30 28 1 13 28
M  V30 29 1 15 29
M  V30 30 1 15 30
M  V30 31 1 16 31
M  V30 32 1 16 32
M  V30 33 1 17 33
M  V30 34 1 17 34
M  V30 35 1 18 35
M  V30 36 1 18 36
M  V30 37 1 19 37
M  V30 38 1 19 38
M  V30 39 1 20 39
M  V30 40 1 20 40
M  V30 41 1 22 41
M  V30 42 1 22 42
M  V30 43 1 22 43
M  V30 END BOND
M  V30 END CTAB
M  END
>  <NO.>
920

>  <Name>
fluvoxamine

>  <SMILES>
COCCCC/C(=N/OCCN)c1ccc(C(F)(F)F)cc1

>  <logBB>
0.79

>  <Class>
1

>  <MW>
318.16

>  <nHBAcc>
4

>  <nHBDon>
1

>  <SLogP>
3.2

>  <TopoPSA>
56.84

>  <MMFF94 Energy>
103.49

$$$$
Cc1cc2c(s1)Nc1ccccc1N=C2N1CCN(C)CC1
Actelion Java MolfileCreator 2.0

  0  0  0  0  0  0              0 V3000
M  V30 BEGIN CTAB
M  V30 COUNTS 42 45 0 0 0
M  V30 BEGIN ATOM
M  V30 1 S 0.8872 -2.1788 3.1483 0
M  V30 2 C -0.1089 -1.9305 1.7672 0
M  V30 3 C 1.5765 -0.6293 3.0357 0
M  V30 4 N -0.9955 -2.8973 1.4611 0
M  V30 5 C 0.1536 -0.7265 1.1474 0
M  V30 6 C 1.0978 0.0409 1.9345 0
M  V30 7 C 2.5632 -0.1695 4.0506 0
M  V30 8 C -2.1442 -2.7688 0.662 0
M  V30 9 C -0.4321 -0.2827 -0.1132 0
M  V30 10 C -2.3911 -1.724 -0.2453 0
M  V30 11 C -3.1435 -3.7551 0.844 0
M  V30 12 N -1.5205 -0.7128 -0.6638 0
M  V30 13 N 0.3017 0.7266 -0.7225 0
M  V30 14 C -3.6276 -1.7056 -0.9228 0
M  V30 15 C -4.3593 -3.7137 0.1618 0
M  V30 16 C -0.4145 1.7539 -1.4957 0
M  V30 17 C 1.6297 0.4221 -1.2863 0
M  V30 18 C -4.6053 -2.6795 -0.724 0
M  V30 19 C 0.4511 3.0229 -1.6465 0
M  V30 20 C 2.4662 1.7101 -1.4389 0
M  V30 21 N 1.7768 2.7436 -2.2406 0
M  V30 22 C 2.5779 3.9628 -2.3154 0
M  V30 23 H -0.9501 -3.7523 2.0022 0
M  V30 24 H 1.4146 1.0437 1.6744 0
M  V30 25 H 2.9049 0.8474 3.8313 0
M  V30 26 H 2.1185 -0.1641 5.0512 0
M  V30 27 H 3.4422 -0.8223 4.062 0
M  V30 28 H -2.9802 -4.5701 1.5456 0
M  V30 29 H -3.8168 -0.9076 -1.6384 0
M  V30 30 H -5.1068 -4.4841 0.3282 0
M  V30 31 H -1.3455 2.0293 -0.9857 0
M  V30 32 H -0.678 1.3583 -2.4845 0
M  V30 33 H 1.5022 -0.0578 -2.265 0
M  V30 34 H 2.1825 -0.2828 -0.6562 0
M  V30 35 H -5.5437 -2.6283 -1.2682 0
M  V30 36 H -0.0908 3.735 -2.2801 0
M  V30 37 H 0.5715 3.4875 -0.6583 0
M  V30 38 H 3.4154 1.4476 -1.9209 0
M  V30 39 H 2.7017 2.1008 -0.4398 0
M  V30 40 H 2.7615 4.4018 -1.328 0
M  V30 41 H 3.5455 3.7573 -2.7861 0
M  V30 42 H 2.0776 4.7127 -2.9379 0
M  V30 END ATOM
M  V30 BEGIN BOND
M  V30 1 1 1 2
M  V30 2 1 1 3
M  V30 3 1 2 4
M  V30 4 2 2 5
M  V30 5 2 3 6
M  V30 6 1 3 7
M  V30 7 1 4 8
M  V30 8 1 5 9
M  V30 9 2 8 10
M  V30 10 1 8 11
M  V30 11 2 9 12
M  V30 12 1 9 13
M  V30 13 1 10 14
M  V30 14 2 11 15
M  V30 15 1 13 16
M  V30 16 1 13 17
M  V30 17 2 14 18
M  V30 18 1 16 19
M  V30 19 1 17 20
M  V30 20 1 19 21
M  V30 21 1 21 22
M  V30 22 1 5 6
M  V30 23 1 10 12
M  V30 24 1 15 18
M  V30 25 1 20 21
M  V30 26 1 4 23
M  V30 27 1 6 24
M  V30 28 1 7 25
M  V30 29 1 7 26
M  V30 30 1 7 27
M  V30 31 1 11 28
M  V30 32 1 14 29
M  V30 33 1 15 30
M  V30 34 1 16 31
M  V30 35 1 16 32
M  V30 36 1 17 33
M  V30 37 1 17 34
M  V30 38 1 18 35
M  V30 39 1 19 36
M  V30 40 1 19 37
M  V30 41 1 20 38
M  V30 42 1 20 39
M  V30 43 1 22 40
M  V30 44 1 22 41
M  V30 45 1 22 42
M  V30 END BOND
M  V30 END CTAB
M  END
>  <NO.>
923

>  <Name>
olanzapine

>  <SMILES>
Cc1cc2c(s1)Nc1ccccc1N=C2N1CCN(C)CC1

>  <logBB>
0.8

>  <Class>
1

>  <MW>
312.14

>  <nHBAcc>
5

>  <nHBDon>
1

>  <SLogP>
3.44

>  <TopoPSA>
30.87

>  <MMFF94 Energy>
95.897

$$$$
CCCCCCC
Actelion Java MolfileCreator 2.0

  0  0  0  0  0  0              0 V3000
M  V30 BEGIN CTAB
M  V30 COUNTS 23 22 0 0 0
M  V30 BEGIN ATOM
M  V30 1 C -0.2275 -0.5309 0.9103 0
M  V30 2 C 0.9702 0.3689 1.2272 0
M  V30 3 C -1.0067 -0.0918 -0.3313 0
M  V30 4 C 2.072 0.3099 0.1685 0
M  V30 5 C -2.2541 -0.9529 -0.5347 0
M  V30 6 C 3.2844 1.1292 0.5843 0
M  V30 7 C -3.0317 -0.5245 -1.769 0
M  V30 8 H -0.9003 -0.5206 1.7769 0
M  V30 9 H 0.1126 -1.5663 0.7875 0
M  V30 10 H 1.3855 0.0562 2.1934 0
M  V30 11 H 0.63 1.4042 1.3511 0
M  V30 12 H -0.3711 -0.1674 -1.2204 0
M  V30 13 H -1.2998 0.9599 -0.2289 0
M  V30 14 H 2.3792 -0.7297 0.0074 0
M  V30 15 H 1.7024 0.6937 -0.7881 0
M  V30 16 H -1.9667 -2.0057 -0.6379 0
M  V30 17 H -2.9058 -0.8788 0.3435 0
M  V30 18 H 4.0591 1.0773 -0.1869 0
M  V30 19 H 3.0165 2.181 0.727 0
M  V30 20 H 3.7109 0.7527 1.5195 0
M  V30 21 H -3.9191 -1.1526 -1.8948 0
M  V30 22 H -3.3612 0.5158 -1.6835 0
M  V30 23 H -2.4186 -0.6181 -2.671 0
M  V30 END ATOM
M  V30 BEGIN BOND
M  V30 1 1 1 2
M  V30 2 1 1 3
M  V30 3 1 2 4
M  V30 4 1 3 5
M  V30 5 1 4 6
M  V30 6 1 5 7
M  V30 7 1 1 8
M  V30 8 1 1 9
M  V30 9 1 2 10
M  V30 10 1 2 11
M  V30 11 1 3 12
M  V30 12 1 3 13
M  V30 13 1 4 14
M  V30 14 1 4 15
M  V30 15 1 5 16
M  V30 16 1 5 17
M  V30 17 1 6 18
M  V30 18 1 6 19
M  V30 19 1 6 20
M  V30 20 1 7 21
M  V30 21 1 7 22
M  V30 22 1 7 23
M  V30 END BOND
M  V30 END CTAB
M  END
>  <NO.>
924

>  <Name>
heptane

>  <SMILES>
CCCCCCC

>  <logBB>
0.8

>  <Class>
1

>  <MW>
100.13

>  <nHBAcc>
0

>  <nHBDon>
0

>  <SLogP>
2.98

>  <TopoPSA>
0

>  <MMFF94 Energy>
-4.8017

$$$$
CCCCC
Actelion Java MolfileCreator 2.0

  0  0  0  0  0  0              0 V3000
M  V30 BEGIN CTAB
M  V30 COUNTS 17 16 0 0 0
M  V30 BEGIN ATOM
M  V30 1 C -0.1503 0.0 0.3007 0
M  V30 2 C 1.2865 0.4968 0.1433 0
M  V30 3 C -0.7723 -0.3404 -1.0533 0
M  V30 4 C 1.909 0.8367 1.4882 0
M  V30 5 C -2.202 -0.8351 -0.9011 0
M  V30 6 H -0.7528 0.7695 0.7989 0
M  V30 7 H -0.1639 -0.8876 0.9451 0
M  V30 8 H 1.894 -0.2705 -0.3503 0
M  V30 9 H 1.3049 1.3868 -0.4965 0
M  V30 10 H -0.7652 0.545 -1.6996 0
M  V30 11 H -0.1761 -1.1123 -1.5535 0
M  V30 12 H 2.936 1.1897 1.3521 0
M  V30 13 H 1.3429 1.6252 1.9946 0
M  V30 14 H 1.9352 -0.0413 2.1415 0
M  V30 15 H -2.6272 -1.0726 -1.8812 0
M  V30 16 H -2.2408 -1.7396 -0.2856 0
M  V30 17 H -2.8332 -0.073 -0.4326 0
M  V30 END ATOM
M  V30 BEGIN BOND
M  V30 1 1 1 2
M  V30 2 1 1 3
M  V30 3 1 2 4
M  V30 4 1 3 5
M  V30 5 1 1 6
M  V30 6 1 1 7
M  V30 7 1 2 8
M  V30 8 1 2 9
M  V30 9 1 3 10
M  V30 10 1 3 11
M  V30 11 1 4 12
M  V30 12 1 4 13
M  V30 13 1 4 14
M  V30 14 1 5 15
M  V30 15 1 5 16
M  V30 16 1 5 17
M  V30 END BOND
M  V30 END CTAB
M  END
>  <NO.>
925

>  <Name>
pentane

>  <SMILES>
CCCCC

>  <logBB>
0.8

>  <Class>
1

>  <MW>
72.09

>  <nHBAcc>
0

>  <nHBDon>
0

>  <SLogP>
2.2

>  <TopoPSA>
0

>  <MMFF94 Energy>
-5.2718

$$$$
CCCCCC
Actelion Java MolfileCreator 2.0

  0  0  0  0  0  0              0 V3000
M  V30 BEGIN CTAB
M  V30 COUNTS 20 19 0 0 0
M  V30 BEGIN ATOM
M  V30 1 C -0.9826 0.1511 -0.3778 0
M  V30 2 C 0.2185 1.0472 -0.063 0
M  V30 3 C -0.5896 -1.2572 -0.8253 0
M  V30 4 C 1.0232 0.5808 1.1507 0
M  V30 5 C -1.8092 -2.0694 -1.2336 0
M  V30 6 C 2.1342 1.563 1.4897 0
M  V30 7 H -1.566 0.6297 -1.1743 0
M  V30 8 H -1.6376 0.0921 0.5 0
M  V30 9 H -0.1528 2.0628 0.1229 0
M  V30 10 H 0.8729 1.1071 -0.9411 0
M  V30 11 H 0.1034 -1.1996 -1.6723 0
M  V30 12 H -0.0737 -1.7843 -0.0159 0
M  V30 13 H 0.3617 0.4736 2.0181 0
M  V30 14 H 1.4706 -0.3998 0.9575 0
M  V30 15 H -1.5079 -3.0739 -1.5467 0
M  V30 16 H -2.5109 -2.1695 -0.3993 0
M  V30 17 H -2.3341 -1.5965 -2.0698 0
M  V30 18 H 2.7001 1.2102 2.3576 0
M  V30 19 H 2.83 1.6723 0.6517 0
M  V30 20 H 1.7262 2.5502 1.7292 0
M  V30 END ATOM
M  V30 BEGIN BOND
M  V30 1 1 1 2
M  V30 2 1 1 3
M  V30 3 1 2 4
M  V30 4 1 3 5
M  V30 5 1 4 6
M  V30 6 1 1 7
M  V30 7 1 1 8
M  V30 8 1 2 9
M  V30 9 1 2 10
M  V30 10 1 3 11
M  V30 11 1 3 12
M  V30 12 1 4 13
M  V30 13 1 4 14
M  V30 14 1 5 15
M  V30 15 1 5 16
M  V30 16 1 5 17
M  V30 17 1 6 18
M  V30 18 1 6 19
M  V30 19 1 6 20
M  V30 END BOND
M  V30 END CTAB
M  END
>  <NO.>
926

>  <Name>
n-hexane

>  <SMILES>
CCCCCC

>  <logBB>
0.8

>  <Class>
1

>  <MW>
86.11

>  <nHBAcc>
0

>  <nHBDon>
0

>  <SLogP>
2.59

>  <TopoPSA>
0

>  <MMFF94 Energy>
-4.5929

$$$$
CN1CCN(C2=Nc3ccccc3Oc3ccc(Cl)cc32)CC1
Actelion Java MolfileCreator 2.0

  0  0  0  0  0  0              0 V3000
M  V30 BEGIN CTAB
M  V30 COUNTS 41 44 0 0 0
M  V30 BEGIN ATOM
M  V30 1 Cl -0.5664 -1.214 4.7006 0
M  V30 2 C -1.1919 -0.4055 3.3168 0
M  V30 3 C -0.527 -0.511 2.0972 0
M  V30 4 C -2.3527 0.359 3.4286 0
M  V30 5 C -1.0267 0.1586 0.9715 0
M  V30 6 C -2.8626 1.0103 2.3047 0
M  V30 7 C -0.259 0.0878 -0.3111 0
M  V30 8 C -2.2103 0.8902 1.0742 0
M  V30 9 N -0.823 -0.0637 -1.4786 0
M  V30 10 N 1.134 0.1517 -0.25 0
M  V30 11 O -2.776 1.5342 0.003 0
M  V30 12 C -2.2096 -0.1234 -1.6785 0
M  V30 13 C 1.8297 1.1838 0.5399 0
M  V30 14 C 1.9406 -0.3331 -1.3856 0
M  V30 15 C -3.1447 0.6722 -1.0043 0
M  V30 16 C -2.6756 -0.9682 -2.6918 0
M  V30 17 C 3.2213 0.6891 0.9879 0
M  V30 18 C 3.3383 -0.7891 -0.9127 0
M  V30 19 C -4.5021 0.6398 -1.3416 0
M  V30 20 C -4.0334 -1.0242 -3.0204 0
M  V30 21 N 4.0587 0.2525 -0.1482 0
M  V30 22 C -4.9468 -0.2161 -2.3469 0
M  V30 23 C 5.3483 -0.2492 0.3201 0
M  V30 24 H 0.3772 -1.1081 2.0165 0
M  V30 25 H -2.8672 0.4454 4.3823 0
M  V30 26 H -3.7739 1.5978 2.3814 0
M  V30 27 H 1.2613 1.4726 1.4295 0
M  V30 28 H 1.9352 2.0879 -0.073 0
M  V30 29 H 2.0352 0.4639 -2.1333 0
M  V30 30 H 1.4537 -1.1895 -1.8671 0
M  V30 31 H -1.9626 -1.5795 -3.2393 0
M  V30 32 H 3.7224 1.5089 1.5167 0
M  V30 33 H 3.0918 -0.1338 1.7038 0
M  V30 34 H 3.9256 -1.0655 -1.7966 0
M  V30 35 H 3.2235 -1.6933 -0.2994 0
M  V30 36 H -5.2081 1.2761 -0.816 0
M  V30 37 H -4.3709 -1.6882 -3.8119 0
M  V30 38 H -6.0011 -0.2492 -2.6086 0
M  V30 39 H 5.2423 -1.1133 0.9858 0
M  V30 40 H 5.9763 -0.5427 -0.528 0
M  V30 41 H 5.892 0.5352 0.8583 0
M  V30 END ATOM
M  V30 BEGIN BOND
M  V30 1 1 1 2
M  V30 2 2 2 3
M  V30 3 1 2 4
M  V30 4 1 3 5
M  V30 5 2 4 6
M  V30 6 1 5 7
M  V30 7 2 5 8
M  V30 8 2 7 9
M  V30 9 1 7 10
M  V30 10 1 8 11
M  V30 11 1 9 12
M  V30 12 1 10 13
M  V30 13 1 10 14
M  V30 14 1 11 15
M  V30 15 1 12 16
M  V30 16 1 13 17
M  V30 17 1 14 18
M  V30 18 1 15 19
M  V30 19 2 16 20
M  V30 20 1 17 21
M  V30 21 2 19 22
M  V30 22 1 21 23
M  V30 23 1 6 8
M  V30 24 2 12 15
M  V30 25 1 18 21
M  V30 26 1 20 22
M  V30 27 1 3 24
M  V30 28 1 4 25
M  V30 29 1 6 26
M  V30 30 1 13 27
M  V30 31 1 13 28
M  V30 32 1 14 29
M  V30 33 1 14 30
M  V30 34 1 16 31
M  V30 35 1 17 32
M  V30 36 1 17 33
M  V30 37 1 18 34
M  V30 38 1 18 35
M  V30 39 1 19 36
M  V30 40 1 20 37
M  V30 41 1 22 38
M  V30 42 1 23 39
M  V30 43 1 23 40
M  V30 44 1 23 41
M  V30 END BOND
M  V30 END CTAB
M  END
>  <NO.>
928

>  <Name>
loxapine

>  <SMILES>
CN1CCN(C2=Nc3ccccc3Oc3ccc(Cl)cc32)CC1

>  <logBB>
0.8

>  <Class>
1

>  <MW>
327.11

>  <nHBAcc>
4

>  <nHBDon>
0

>  <SLogP>
3.77

>  <TopoPSA>
28.07

>  <MMFF94 Energy>
116.47

$$$$
CN(C)CCCN1c2ccccc2CCc2ccccc21
Actelion Java MolfileCreator 2.0

  0  0  0  0  0  0              0 V3000
M  V30 BEGIN CTAB
M  V30 COUNTS 45 47 0 0 0
M  V30 BEGIN ATOM
M  V30 1 N 0.9478 -0.4738 -0.5528 0
M  V30 2 C 0.6014 -0.048 -1.8585 0
M  V30 3 C 2.0506 -0.0623 0.2317 0
M  V30 4 C -0.009 -1.3291 0.1899 0
M  V30 5 C 0.9188 1.2219 -2.391 0
M  V30 6 C -0.0595 -0.9527 -2.7246 0
M  V30 7 C 2.3193 1.2888 0.4857 0
M  V30 8 C 2.9084 -1.0268 0.7934 0
M  V30 9 C -1.3084 -0.5748 0.5057 0
M  V30 10 C 0.5889 1.5221 -3.7363 0
M  V30 11 C 1.6087 2.3418 -1.6403 0
M  V30 12 C -0.3966 -0.6336 -4.0431 0
M  V30 13 C 3.4046 1.6526 1.3022 0
M  V30 14 C 1.4511 2.3495 -0.1262 0
M  V30 15 C 3.9885 -0.6623 1.5992 0
M  V30 16 C -2.2376 -1.4417 1.3645 0
M  V30 17 C -0.0681 0.6086 -4.5523 0
M  V30 18 C 4.2331 0.6804 1.8581 0
M  V30 19 N -3.5652 -0.8405 1.58 0
M  V30 20 C -3.4966 0.3811 2.3846 0
M  V30 21 C -4.4552 -1.808 2.2276 0
M  V30 22 H 0.4148 -1.666 1.1456 0
M  V30 23 H -0.2186 -2.2559 -0.3549 0
M  V30 24 H -0.2966 -1.9599 -2.3966 0
M  V30 25 H 2.7437 -2.0808 0.5833 0
M  V30 26 H -1.8219 -0.2938 -0.421 0
M  V30 27 H -1.06 0.354 1.0313 0
M  V30 28 H 0.8462 2.4946 -4.1531 0
M  V30 29 H 2.671 2.3377 -1.9186 0
M  V30 30 H 1.192 3.2938 -1.9974 0
M  V30 31 H -0.8988 -1.3667 -4.6677 0
M  V30 32 H 3.6135 2.701 1.5021 0
M  V30 33 H 0.4065 2.2114 0.1775 0
M  V30 34 H 1.7512 3.3343 0.2533 0
M  V30 35 H 4.6377 -1.4269 2.0161 0
M  V30 36 H -2.3692 -2.3992 0.8435 0
M  V30 37 H -1.755 -1.6662 2.325 0
M  V30 38 H -0.3141 0.8668 -5.578 0
M  V30 39 H 5.0728 0.9723 2.4827 0
M  V30 40 H -2.9491 1.1713 1.8618 0
M  V30 41 H -3.0204 0.2093 3.3566 0
M  V30 42 H -4.5015 0.7814 2.5626 0
M  V30 43 H -4.088 -2.1106 3.215 0
M  V30 44 H -4.5649 -2.7059 1.6093 0
M  V30 45 H -5.4606 -1.3884 2.3463 0
M  V30 END ATOM
M  V30 BEGIN BOND
M  V30 1 1 1 2
M  V30 2 1 1 3
M  V30 3 1 1 4
M  V30 4 2 2 5
M  V30 5 1 2 6
M  V30 6 2 3 7
M  V30 7 1 3 8
M  V30 8 1 4 9
M  V30 9 1 5 10
M  V30 10 1 5 11
M  V30 11 2 6 12
M  V30 12 1 7 13
M  V30 13 1 7 14
M  V30 14 2 8 15
M  V30 15 1 9 16
M  V30 16 2 10 17
M  V30 17 2 13 18
M  V30 18 1 16 19
M  V30 19 1 19 20
M  V30 20 1 19 21
M  V30 21 1 11 14
M  V30 22 1 12 17
M  V30 23 1 15 18
M  V30 24 1 4 22
M  V30 25 1 4 23
M  V30 26 1 6 24
M  V30 27 1 8 25
M  V30 28 1 9 26
M  V30 29 1 9 27
M  V30 30 1 10 28
M  V30 31 1 11 29
M  V30 32 1 11 30
M  V30 33 1 12 31
M  V30 34 1 13 32
M  V30 35 1 14 33
M  V30 36 1 14 34
M  V30 37 1 15 35
M  V30 38 1 16 36
M  V30 39 1 16 37
M  V30 40 1 17 38
M  V30 41 1 18 39
M  V30 42 1 20 40
M  V30 43 1 20 41
M  V30 44 1 20 42
M  V30 45 1 21 43
M  V30 46 1 21 44
M  V30 47 1 21 45
M  V30 END BOND
M  V30 END CTAB
M  END
>  <NO.>
929

>  <Name>
imipramine

>  <SMILES>
CN(C)CCCN1c2ccccc2CCc2ccccc21

>  <logBB>
0.8

>  <Class>
1

>  <MW>
280.19

>  <nHBAcc>
2

>  <nHBDon>
0

>  <SLogP>
3.88

>  <TopoPSA>
6.48

>  <MMFF94 Energy>
63.983

$$$$
CCc1ccc(-c2ccc(C(=O)N(C)C3CCN(C(=O)N4CCC(N5CCCCC5)C4)C3)cc2)cc1
Actelion Java MolfileCreator 2.0

  0  0  0  0  0  0              0 V3000
M  V30 BEGIN CTAB
M  V30 COUNTS 76 80 0 0 0
M  V30 BEGIN ATOM
M  V30 1 O 0.8734 -4.2934 1.3501 0
M  V30 2 C -0.0811 -3.592 1.7023 0
M  V30 3 N -0.919 -4.0415 2.6865 0
M  V30 4 N -0.3111 -2.3893 1.0899 0
M  V30 5 C -1.9399 -3.3414 3.4591 0
M  V30 6 C -0.7383 -5.3906 3.2029 0
M  V30 7 C 0.6171 -1.9284 0.0599 0
M  V30 8 C -1.4521 -1.4861 1.1706 0
M  V30 9 C -2.2494 -4.274 4.6521 0
M  V30 10 C -1.97 -5.6577 4.0558 0
M  V30 11 C -0.2247 -1.0022 -0.8216 0
M  V30 12 C -1.1674 -0.3508 0.1895 0
M  V30 13 N -3.5408 -4.0572 5.327 0
M  V30 14 N 0.5162 -0.0835 -1.6911 0
M  V30 15 C -3.5898 -4.7648 6.6177 0
M  V30 16 C -4.7212 -4.3818 4.5139 0
M  V30 17 C 1.3185 0.916 -1.1376 0
M  V30 18 C 0.4618 -0.376 -3.1195 0
M  V30 19 C -4.8426 -4.3861 7.4099 0
M  V30 20 C -6.0101 -3.9786 5.2356 0
M  V30 21 O 1.5763 1.0044 0.0597 0
M  V30 22 C 1.8891 1.9549 -2.0233 0
M  V30 23 C -6.1094 -4.642 6.6036 0
M  V30 24 C 1.0577 2.7514 -2.8151 0
M  V30 25 C 3.2669 2.176 -2.0063 0
M  V30 26 C 1.617 3.7451 -3.6238 0
M  V30 27 C 3.8187 3.1719 -2.8172 0
M  V30 28 C 3.0054 3.9695 -3.6422 0
M  V30 29 C 3.5899 5.0194 -4.4926 0
M  V30 30 C 4.4208 6.0117 -3.9492 0
M  V30 31 C 3.3317 5.0617 -5.8716 0
M  V30 32 C 4.9761 7.0106 -4.7551 0
M  V30 33 C 3.8864 6.0586 -6.6806 0
M  V30 34 C 4.7182 7.0389 -6.1295 0
M  V30 35 C 5.3024 8.1243 -6.9963 0
M  V30 36 C 4.3869 9.3362 -7.0791 0
M  V30 37 H -2.803 -3.1913 2.8076 0
M  V30 38 H -1.5627 -2.3784 3.812 0
M  V30 39 H 0.1751 -5.4017 3.809 0
M  V30 40 H -0.6282 -6.113 2.388 0
M  V30 41 H 1.0365 -2.7594 -0.5166 0
M  V30 42 H 1.4405 -1.417 0.5675 0
M  V30 43 H -2.3511 -2.0402 0.8829 0
M  V30 44 H -1.5684 -1.0868 2.1788 0
M  V30 45 H -1.4578 -4.0711 5.3901 0
M  V30 46 H -2.7881 -5.9923 3.4086 0
M  V30 47 H -1.7891 -6.4269 4.8118 0
M  V30 48 H -0.8506 -1.6328 -1.4704 0
M  V30 49 H -0.6975 0.4807 0.7235 0
M  V30 50 H -2.0806 0.0363 -0.2733 0
M  V30 51 H -2.7179 -4.4973 7.227 0
M  V30 52 H -3.5628 -5.8519 6.4698 0
M  V30 53 H -4.7641 -5.4534 4.2848 0
M  V30 54 H -4.6995 -3.8443 3.5611 0
M  V30 55 H 0.6399 -1.4459 -3.2679 0
M  V30 56 H 1.2168 0.1656 -3.6912 0
M  V30 57 H -0.5349 -0.1188 -3.4887 0
M  V30 58 H -4.8771 -4.9585 8.3438 0
M  V30 59 H -4.7942 -3.3253 7.6871 0
M  V30 60 H -6.0402 -2.8879 5.3534 0
M  V30 61 H -6.8775 -4.2581 4.6268 0
M  V30 62 H -6.2512 -5.7223 6.4774 0
M  V30 63 H -6.9835 -4.2629 7.1441 0
M  V30 64 H -0.0198 2.6129 -2.7952 0
M  V30 65 H 3.9088 1.5781 -1.3636 0
M  V30 66 H 0.9578 4.3649 -4.2291 0
M  V30 67 H 4.8969 3.3214 -2.8041 0
M  V30 68 H 4.6328 6.0222 -2.8817 0
M  V30 69 H 2.6996 4.3056 -6.3325 0
M  V30 70 H 5.6093 7.7684 -4.299 0
M  V30 71 H 3.6649 6.0619 -7.7454 0
M  V30 72 H 5.4894 7.7317 -8.0032 0
M  V30 73 H 6.2806 8.4251 -6.6019 0
M  V30 74 H 4.8358 10.1068 -7.7137 0
M  V30 75 H 4.2128 9.7711 -6.089 0
M  V30 76 H 3.4134 9.0706 -7.5049 0
M  V30 END ATOM
M  V30 BEGIN BOND
M  V30 1 2 1 2
M  V30 2 1 2 3
M  V30 3 1 2 4
M  V30 4 1 3 5
M  V30 5 1 3 6
M  V30 6 1 4 7
M  V30 7 1 4 8
M  V30 8 1 5 9
M  V30 9 1 6 10
M  V30 10 1 7 11
M  V30 11 1 8 12
M  V30 12 1 9 13
M  V30 13 1 11 14
M  V30 14 1 13 15
M  V30 15 1 13 16
M  V30 16 1 14 17
M  V30 17 1 14 18
M  V30 18 1 15 19
M  V30 19 1 16 20
M  V30 20 2 17 21
M  V30 21 1 17 22
M  V30 22 1 19 23
M  V30 23 2 22 24
M  V30 24 1 22 25
M  V30 25 1 24 26
M  V30 26 2 25 27
M  V30 27 2 26 28
M  V30 28 1 28 29
M  V30 29 2 29 30
M  V30 30 1 29 31
M  V30 31 1 30 32
M  V30 32 2 31 33
M  V30 33 2 32 34
M  V30 34 1 34 35
M  V30 35 1 35 36
M  V30 36 1 9 10
M  V30 37 1 11 12
M  V30 38 1 20 23
M  V30 39 1 27 28
M  V30 40 1 33 34
M  V30 41 1 5 37
M  V30 42 1 5 38
M  V30 43 1 6 39
M  V30 44 1 6 40
M  V30 45 1 7 41
M  V30 46 1 7 42
M  V30 47 1 8 43
M  V30 48 1 8 44
M  V30 49 1 9 45
M  V30 50 1 10 46
M  V30 51 1 10 47
M  V30 52 1 11 48
M  V30 53 1 12 49
M  V30 54 1 12 50
M  V30 55 1 15 51
M  V30 56 1 15 52
M  V30 57 1 16 53
M  V30 58 1 16 54
M  V30 59 1 18 55
M  V30 60 1 18 56
M  V30 61 1 18 57
M  V30 62 1 19 58
M  V30 63 1 19 59
M  V30 64 1 20 60
M  V30 65 1 20 61
M  V30 66 1 23 62
M  V30 67 1 23 63
M  V30 68 1 24 64
M  V30 69 1 25 65
M  V30 70 1 26 66
M  V30 71 1 27 67
M  V30 72 1 30 68
M  V30 73 1 31 69
M  V30 74 1 32 70
M  V30 75 1 33 71
M  V30 76 1 35 72
M  V30 77 1 35 73
M  V30 78 1 36 74
M  V30 79 1 36 75
M  V30 80 1 36 76
M  V30 END BOND
M  V30 END CTAB
M  END
>  <NO.>
930

>  <Name>
mchr antagonist 23c

>  <SMILES>
CCc1ccc(-c2ccc(C(=O)N(C)C3CCN(C(=O)N4CCC(N5CCCCC5)C4)C3)cc2)cc1

>  <logBB>
0.81

>  <Class>
1

>  <MW>
488.32

>  <nHBAcc>
3

>  <nHBDon>
0

>  <SLogP>
4.74

>  <TopoPSA>
47.1

>  <MMFF94 Energy>
26.124

$$$$
Cc1nc(N)nc(N)c1-c1ccc(Cl)c(Cl)c1
Actelion Java MolfileCreator 2.0

  0  0  0  0  0  0              0 V3000
M  V30 BEGIN CTAB
M  V30 COUNTS 27 28 0 0 0
M  V30 BEGIN ATOM
M  V30 1 Cl 0.4862 -3.8953 2.6768 0
M  V30 2 C 1.0386 -2.7656 1.4918 0
M  V30 3 C 2.2984 -2.8632 0.8931 0
M  V30 4 C 0.1734 -1.7242 1.1346 0
M  V30 5 Cl 3.4168 -4.1199 1.2829 0
M  V30 6 C 2.6856 -1.9198 -0.0609 0
M  V30 7 C 0.5539 -0.7668 0.1801 0
M  V30 8 C 1.8197 -0.8811 -0.4144 0
M  V30 9 C -0.3538 0.3263 -0.1942 0
M  V30 10 C -1.0996 0.3114 -1.3725 0
M  V30 11 C -0.5335 1.4625 0.5912 0
M  V30 12 N -1.9132 1.3119 -1.7427 0
M  V30 13 N -1.0046 -0.7248 -2.2878 0
M  V30 14 N -1.3663 2.4686 0.2421 0
M  V30 15 C 0.1978 1.6545 1.8899 0
M  V30 16 C -2.0182 2.3499 -0.9142 0
M  V30 17 N -2.851 3.3671 -1.2735 0
M  V30 18 H -0.8074 -1.6579 1.6037 0
M  V30 19 H 3.6615 -1.9863 -0.5367 0
M  V30 20 H 2.1375 -0.1576 -1.1651 0
M  V30 21 H -0.8882 -1.6657 -1.9424 0
M  V30 22 H -1.5951 -0.5914 -3.0994 0
M  V30 23 H -0.0238 2.6385 2.3172 0
M  V30 24 H 1.2799 1.5979 1.7361 0
M  V30 25 H -0.1095 0.8991 2.6192 0
M  V30 26 H -2.9236 4.156 -0.6561 0
M  V30 27 H -3.3365 3.2933 -2.1492 0
M  V30 END ATOM
M  V30 BEGIN BOND
M  V30 1 1 1 2
M  V30 2 2 2 3
M  V30 3 1 2 4
M  V30 4 1 3 5
M  V30 5 1 3 6
M  V30 6 2 4 7
M  V30 7 2 6 8
M  V30 8 1 7 9
M  V30 9 2 9 10
M  V30 10 1 9 11
M  V30 11 1 10 12
M  V30 12 1 10 13
M  V30 13 2 11 14
M  V30 14 1 11 15
M  V30 15 2 12 16
M  V30 16 1 16 17
M  V30 17 1 7 8
M  V30 18 1 14 16
M  V30 19 1 4 18
M  V30 20 1 6 19
M  V30 21 1 8 20
M  V30 22 1 13 21
M  V30 23 1 13 22
M  V30 24 1 15 23
M  V30 25 1 15 24
M  V30 26 1 15 25
M  V30 27 1 17 26
M  V30 28 1 17 27
M  V30 END BOND
M  V30 END CTAB
M  END
>  <NO.>
931

>  <Name>
metoprine

>  <SMILES>
Cc1nc(N)nc(N)c1-c1ccc(Cl)c(Cl)c1

>  <logBB>
0.81

>  <Class>
1

>  <MW>
268.03

>  <nHBAcc>
4

>  <nHBDon>
2

>  <SLogP>
2.92

>  <TopoPSA>
77.82

>  <MMFF94 Energy>
-79.83

$$$$
N[C@@H]1C[C@H]1c1ccc(F)cc1
Actelion Java MolfileCreator 2.0

  0  0  0  0  0  0              0 V3000
M  V30 BEGIN CTAB
M  V30 COUNTS 21 22 0 0 0
M  V30 BEGIN ATOM
M  V30 1 F -0.4764 4.4537 0.5558 0
M  V30 2 C -0.2194 3.1412 0.4868 0
M  V30 3 C -1.1196 2.237 1.0317 0
M  V30 4 C 0.9399 2.7016 -0.1351 0
M  V30 5 C -0.8497 0.8683 0.9556 0
M  V30 6 C 1.2035 1.3314 -0.2074 0
M  V30 7 C 0.3268 0.3844 0.3541 0
M  V30 8 C 0.5779 -1.0984 0.2107 0 CFG=1
M  V30 9 C -0.4443 -1.9885 -0.459 0 CFG=1
M  V30 10 C 0.8591 -1.7038 -1.1429 0
M  V30 11 N -0.6802 -3.3302 0.0716 0
M  V30 12 H -2.0251 2.5985 1.5079 0
M  V30 13 H 1.629 3.4223 -0.5627 0
M  V30 14 H -1.5632 0.1643 1.3793 0
M  V30 15 H 2.1111 0.9932 -0.7036 0
M  V30 16 H 1.1255 -1.5414 1.0415 0
M  V30 17 H -1.3226 -1.5105 -0.8889 0
M  V30 18 H 0.8326 -1.0701 -2.0215 0
M  V30 19 H 1.6 -2.4934 -1.1933 0
M  V30 20 H -1.3979 -3.3109 0.7955 0
M  V30 21 H -1.0328 -3.9484 -0.6587 0
M  V30 END ATOM
M  V30 BEGIN BOND
M  V30 1 1 1 2
M  V30 2 2 2 3
M  V30 3 1 2 4
M  V30 4 1 3 5
M  V30 5 2 4 6
M  V30 6 2 5 7
M  V30 7 1 7 8
M  V30 8 1 8 9
M  V30 9 1 8 10
M  V30 10 1 9 11
M  V30 11 1 6 7
M  V30 12 1 9 10
M  V30 13 1 3 12
M  V30 14 1 4 13
M  V30 15 1 5 14
M  V30 16 1 6 15
M  V30 17 1 8 16
M  V30 18 1 9 17
M  V30 19 1 10 18
M  V30 20 1 10 19
M  V30 21 1 11 20
M  V30 22 1 11 21
M  V30 END BOND
M  V30 BEGIN COLLECTION
M  V30 MDLV30/STEABS ATOMS=(2 8 9)
M  V30 END COLLECTION
M  V30 END CTAB
M  END
>  <NO.>
932

>  <Name>
(1r,2s)-2-(4-fluorophenyl)cyclopropan-1-amine

>  <SMILES>
N[C@@H]1C[C@H]1c1ccc(F)cc1

>  <logBB>
0.81

>  <Class>
1

>  <MW>
151.08

>  <nHBAcc>
1

>  <nHBDon>
1

>  <SLogP>
1.64

>  <TopoPSA>
26.02

>  <MMFF94 Energy>
6.6843

$$$$
Cc1cccc2c1Oc1ccccc1C1(O)CCN(C)CC21
Actelion Java MolfileCreator 2.0

  0  0  0  0  0  0              0 V3000
M  V30 BEGIN CTAB
M  V30 COUNTS 43 46 0 0 0
M  V30 BEGIN ATOM
M  V30 1 O -0.6412 1.1223 1.4432 0
M  V30 2 C -1.6128 0.7734 0.5288 0
M  V30 3 C 0.4967 1.6605 0.8826 0
M  V30 4 C -1.4343 -0.3981 -0.2241 0
M  V30 5 C -2.7706 1.557 0.4192 0
M  V30 6 C 1.3089 1.0007 -0.0556 0
M  V30 7 C 0.8188 2.9461 1.3429 0
M  V30 8 C -2.4222 -0.7492 -1.1509 0
M  V30 9 C -0.1556 -1.1874 0.0139 0
M  V30 10 C -3.7395 1.1836 -0.5181 0
M  V30 11 C -2.9576 2.7973 1.2422 0
M  V30 12 C 2.4037 1.7298 -0.5754 0
M  V30 13 C 1.0872 -0.4364 -0.5527 0
M  V30 14 C 1.9206 3.6261 0.8335 0
M  V30 15 C -3.5649 0.0399 -1.2978 0
M  V30 16 C -0.1994 -2.6467 -0.495 0
M  V30 17 C 2.7071 3.0216 -0.1375 0
M  V30 18 O 0.9649 -0.3561 -1.9883 0
M  V30 19 C 2.3425 -1.2923 -0.2471 0
M  V30 20 N 1.0107 -3.4301 -0.2047 0
M  V30 21 C 2.1981 -2.7423 -0.718 0
M  V30 22 C 1.1324 -3.7902 1.2046 0
M  V30 23 H 0.1919 3.4237 2.0919 0
M  V30 24 H -2.3263 -1.6321 -1.777 0
M  V30 25 H -0.05 -1.2582 1.1068 0
M  V30 26 H -4.64 1.7803 -0.6471 0
M  V30 27 H -2.3517 3.6129 0.836 0
M  V30 28 H -2.6735 2.6195 2.2846 0
M  V30 29 H -4.0053 3.1167 1.2457 0
M  V30 30 H 3.0381 1.2859 -1.342 0
M  V30 31 H 2.1562 4.6267 1.1854 0
M  V30 32 H -4.326 -0.2409 -2.0223 0
M  V30 33 H -1.074 -3.1647 -0.0791 0
M  V30 34 H -0.3452 -2.6635 -1.583 0
M  V30 35 H 3.5613 3.549 -0.5547 0
M  V30 36 H 0.3309 0.3616 -2.1711 0
M  V30 37 H 2.5602 -1.2685 0.8284 0
M  V30 38 H 3.2263 -0.886 -0.7539 0
M  V30 39 H 2.1626 -2.7624 -1.8151 0
M  V30 40 H 3.1019 -3.3046 -0.4514 0
M  V30 41 H 1.9913 -4.4541 1.3534 0
M  V30 42 H 1.2554 -2.9276 1.8666 0
M  V30 43 H 0.2491 -4.3487 1.5342 0
M  V30 END ATOM
M  V30 BEGIN BOND
M  V30 1 1 1 2
M  V30 2 1 1 3
M  V30 3 2 2 4
M  V30 4 1 2 5
M  V30 5 2 3 6
M  V30 6 1 3 7
M  V30 7 1 4 8
M  V30 8 1 4 9
M  V30 9 2 5 10
M  V30 10 1 5 11
M  V30 11 1 6 12
M  V30 12 1 6 13
M  V30 13 2 7 14
M  V30 14 2 8 15
M  V30 15 1 9 16
M  V30 16 2 12 17
M  V30 17 1 13 18
M  V30 18 1 13 19
M  V30 19 1 16 20
M  V30 20 1 19 21
M  V30 21 1 20 22
M  V30 22 1 9 13
M  V30 23 1 10 15
M  V30 24 1 14 17
M  V30 25 1 20 21
M  V30 26 1 7 23
M  V30 27 1 8 24
M  V30 28 1 9 25
M  V30 29 1 10 26
M  V30 30 1 11 27
M  V30 31 1 11 28
M  V30 32 1 11 29
M  V30 33 1 12 30
M  V30 34 1 14 31
M  V30 35 1 15 32
M  V30 36 1 16 33
M  V30 37 1 16 34
M  V30 38 1 17 35
M  V30 39 1 18 36
M  V30 40 1 19 37
M  V30 41 1 19 38
M  V30 42 1 21 39
M  V30 43 1 21 40
M  V30 44 1 22 41
M  V30 45 1 22 42
M  V30 46 1 22 43
M  V30 END BOND
M  V30 END CTAB
M  END
>  <NO.>
934

>  <Name>
org4428

>  <SMILES>
Cc1cccc2c1Oc1ccccc1C1(O)CCN(C)CC21

>  <logBB>
0.82

>  <Class>
1

>  <MW>
295.16

>  <nHBAcc>
3

>  <nHBDon>
1

>  <SLogP>
3.41

>  <TopoPSA>
32.7

>  <MMFF94 Energy>
88.118

$$$$
CCCC(=O)c1ccc2c(c1)N(CCCN1CCN(C)CC1)c1ccccc1S2
Actelion Java MolfileCreator 2.0

  0  0  0  0  0  0              0 V3000
M  V30 BEGIN CTAB
M  V30 COUNTS 60 63 0 0 0
M  V30 BEGIN ATOM
M  V30 1 S -4.3425 -0.803 -0.3211 0
M  V30 2 C -3.4281 0.6117 0.2546 0
M  V30 3 C -3.6894 -1.0202 -1.9641 0
M  V30 4 C -2.2777 1.0982 -0.3954 0
M  V30 5 C -3.8986 1.232 1.4224 0
M  V30 6 C -2.5121 -0.3879 -2.4087 0
M  V30 7 C -4.3987 -1.8858 -2.8149 0
M  V30 8 N -1.7607 0.4718 -1.5616 0
M  V30 9 C -1.6697 2.261 0.127 0
M  V30 10 C -3.2594 2.3574 1.9392 0
M  V30 11 C -2.1202 -0.6126 -3.7439 0
M  V30 12 C -3.9715 -2.1116 -4.1206 0
M  V30 13 C -0.2917 0.2555 -1.5818 0
M  V30 14 C -2.1456 2.8882 1.2878 0
M  V30 15 C -2.8355 -1.4667 -4.5885 0
M  V30 16 C 0.0995 -0.9799 -0.7567 0
M  V30 17 C -1.5073 4.116 1.8576 0
M  V30 18 C 1.6228 -1.1529 -0.7348 0
M  V30 19 O -1.963 4.6014 2.8912 0
M  V30 20 C -0.3117 4.719 1.1376 0
M  V30 21 N 2.054 -2.3985 -0.0826 0
M  V30 22 C 0.2208 5.9646 1.8456 0
M  V30 23 C 1.772 -2.4035 1.3695 0
M  V30 24 C 3.5052 -2.6049 -0.2878 0
M  V30 25 C 1.415 6.5541 1.113 0
M  V30 26 C 2.3109 -3.6699 2.077 0
M  V30 27 C 4.032 -3.8761 0.4152 0
M  V30 28 N 3.7585 -3.8569 1.864 0
M  V30 29 C 4.2181 -5.0919 2.4941 0
M  V30 30 H -4.7774 0.8459 1.9358 0
M  V30 31 H -5.2985 -2.3858 -2.4624 0
M  V30 32 H -0.8354 2.6982 -0.4096 0
M  V30 33 H -3.648 2.8237 2.8431 0
M  V30 34 H -1.2627 -0.0966 -4.1655 0
M  V30 35 H -4.5321 -2.7779 -4.7706 0
M  V30 36 H 0.2504 1.1265 -1.1988 0
M  V30 37 H 0.0878 0.1455 -2.603 0
M  V30 38 H -2.506 -1.6181 -5.6131 0
M  V30 39 H -0.3683 -1.8764 -1.1816 0
M  V30 40 H -0.2853 -0.8692 0.263 0
M  V30 41 H 1.9686 -1.1671 -1.7767 0
M  V30 42 H 2.0898 -0.2816 -0.2571 0
M  V30 43 H 0.4827 3.9658 1.0912 0
M  V30 44 H -0.6179 4.9883 0.1204 0
M  V30 45 H -0.5694 6.7216 1.9165 0
M  V30 46 H 0.5139 5.7149 2.8724 0
M  V30 47 H 2.2072 -1.5151 1.8467 0
M  V30 48 H 0.6908 -2.3732 1.5422 0
M  V30 49 H 4.0705 -1.7353 0.0747 0
M  V30 50 H 3.7101 -2.7029 -1.3609 0
M  V30 51 H 1.7796 7.4435 1.6365 0
M  V30 52 H 2.2362 5.8324 1.0571 0
M  V30 53 H 1.1443 6.8471 0.0936 0
M  V30 54 H 1.7511 -4.5442 1.7176 0
M  V30 55 H 2.11 -3.5728 3.1509 0
M  V30 56 H 3.5789 -4.7598 -0.0542 0
M  V30 57 H 5.1143 -3.9359 0.2486 0
M  V30 58 H 3.7191 -5.9789 2.0873 0
M  V30 59 H 4.0381 -5.061 3.5745 0
M  V30 60 H 5.2985 -5.2122 2.3582 0
M  V30 END ATOM
M  V30 BEGIN BOND
M  V30 1 1 1 2
M  V30 2 1 1 3
M  V30 3 2 2 4
M  V30 4 1 2 5
M  V30 5 2 3 6
M  V30 6 1 3 7
M  V30 7 1 4 8
M  V30 8 1 4 9
M  V30 9 2 5 10
M  V30 10 1 6 11
M  V30 11 2 7 12
M  V30 12 1 8 13
M  V30 13 2 9 14
M  V30 14 2 11 15
M  V30 15 1 13 16
M  V30 16 1 14 17
M  V30 17 1 16 18
M  V30 18 2 17 19
M  V30 19 1 17 20
M  V30 20 1 18 21
M  V30 21 1 20 22
M  V30 22 1 21 23
M  V30 23 1 21 24
M  V30 24 1 22 25
M  V30 25 1 23 26
M  V30 26 1 24 27
M  V30 27 1 26 28
M  V30 28 1 28 29
M  V30 29 1 6 8
M  V30 30 1 10 14
M  V30 31 1 12 15
M  V30 32 1 27 28
M  V30 33 1 5 30
M  V30 34 1 7 31
M  V30 35 1 9 32
M  V30 36 1 10 33
M  V30 37 1 11 34
M  V30 38 1 12 35
M  V30 39 1 13 36
M  V30 40 1 13 37
M  V30 41 1 15 38
M  V30 42 1 16 39
M  V30 43 1 16 40
M  V30 44 1 18 41
M  V30 45 1 18 42
M  V30 46 1 20 43
M  V30 47 1 20 44
M  V30 48 1 22 45
M  V30 49 1 22 46
M  V30 50 1 23 47
M  V30 51 1 23 48
M  V30 52 1 24 49
M  V30 53 1 24 50
M  V30 54 1 25 51
M  V30 55 1 25 52
M  V30 56 1 25 53
M  V30 57 1 26 54
M  V30 58 1 26 55
M  V30 59 1 27 56
M  V30 60 1 27 57
M  V30 61 1 29 58
M  V30 62 1 29 59
M  V30 63 1 29 60
M  V30 END BOND
M  V30 END CTAB
M  END
>  <NO.>
936

>  <Name>
butaperazine

>  <SMILES>
CCCC(=O)c1ccc2c(c1)N(CCCN1CCN(C)CC1)c1ccccc1S2

>  <logBB>
0.83

>  <Class>
1

>  <MW>
409.22

>  <nHBAcc>
5

>  <nHBDon>
0

>  <SLogP>
4.91

>  <TopoPSA>
26.79

>  <MMFF94 Energy>
148.17

$$$$
CC1CCN(CCCC(=O)c2ccc(F)cc2)CC1
Actelion Java MolfileCreator 2.0

  0  0  0  0  0  0              0 V3000
M  V30 BEGIN CTAB
M  V30 COUNTS 41 42 0 0 0
M  V30 BEGIN ATOM
M  V30 1 F 3.4082 -0.7918 7.2233 0
M  V30 2 C 2.8719 -0.4035 6.0596 0
M  V30 3 C 1.6361 0.2301 6.0513 0
M  V30 4 C 3.5615 -0.6397 4.8758 0
M  V30 5 C 1.0793 0.6339 4.8359 0
M  V30 6 C 3.0075 -0.237 3.6565 0
M  V30 7 C 1.7593 0.4018 3.6288 0
M  V30 8 C 1.1177 0.8539 2.3545 0
M  V30 9 O 0.0641 1.4833 2.4116 0
M  V30 10 C 1.801 0.5199 1.0377 0
M  V30 11 C 1.0076 0.9445 -0.2022 0
M  V30 12 C -0.2226 0.0558 -0.4441 0
M  V30 13 N -0.969 0.4422 -1.6564 0
M  V30 14 C -2.3253 -0.1296 -1.6126 0
M  V30 15 C -0.2727 0.0385 -2.8874 0
M  V30 16 C -3.1604 0.3063 -2.8188 0
M  V30 17 C -1.0414 0.4788 -4.1373 0
M  V30 18 C -2.4878 -0.0263 -4.1544 0
M  V30 19 C -2.5644 -1.5213 -4.4732 0
M  V30 20 H 1.1137 0.4076 6.9863 0
M  V30 21 H 4.5275 -1.1345 4.9104 0
M  V30 22 H 0.1107 1.132 4.8342 0
M  V30 23 H 3.5722 -0.4297 2.7493 0
M  V30 24 H 2.7602 1.0508 1.0233 0
M  V30 25 H 1.9918 -0.5577 0.9929 0
M  V30 26 H 0.6969 1.9928 -0.113 0
M  V30 27 H 1.6886 0.8846 -1.0579 0
M  V30 28 H 0.0727 -1.0002 -0.4935 0
M  V30 29 H -0.8809 0.1537 0.4272 0
M  V30 30 H -2.8433 0.2189 -0.7103 0
M  V30 31 H -2.2856 -1.2247 -1.5555 0
M  V30 32 H 0.7155 0.5067 -2.9392 0
M  V30 33 H -0.1127 -1.0466 -2.9081 0
M  V30 34 H -4.1536 -0.1554 -2.7662 0
M  V30 35 H -3.3195 1.3917 -2.764 0
M  V30 36 H -1.0504 1.5764 -4.1767 0
M  V30 37 H -0.5095 0.141 -5.0346 0
M  V30 38 H -3.0273 0.4999 -4.9523 0
M  V30 39 H -2.111 -1.7293 -5.4482 0
M  V30 40 H -3.6078 -1.8517 -4.5156 0
M  V30 41 H -2.0501 -2.1351 -3.7281 0
M  V30 END ATOM
M  V30 BEGIN BOND
M  V30 1 1 1 2
M  V30 2 2 2 3
M  V30 3 1 2 4
M  V30 4 1 3 5
M  V30 5 2 4 6
M  V30 6 2 5 7
M  V30 7 1 7 8
M  V30 8 2 8 9
M  V30 9 1 8 10
M  V30 10 1 10 11
M  V30 11 1 11 12
M  V30 12 1 12 13
M  V30 13 1 13 14
M  V30 14 1 13 15
M  V30 15 1 14 16
M  V30 16 1 15 17
M  V30 17 1 16 18
M  V30 18 1 18 19
M  V30 19 1 6 7
M  V30 20 1 17 18
M  V30 21 1 3 20
M  V30 22 1 4 21
M  V30 23 1 5 22
M  V30 24 1 6 23
M  V30 25 1 10 24
M  V30 26 1 10 25
M  V30 27 1 11 26
M  V30 28 1 11 27
M  V30 29 1 12 28
M  V30 30 1 12 29
M  V30 31 1 14 30
M  V30 32 1 14 31
M  V30 33 1 15 32
M  V30 34 1 15 33
M  V30 35 1 16 34
M  V30 36 1 16 35
M  V30 37 1 17 36
M  V30 38 1 17 37
M  V30 39 1 18 38
M  V30 40 1 19 39
M  V30 41 1 19 40
M  V30 42 1 19 41
M  V30 END BOND
M  V30 END CTAB
M  END
>  <NO.>
937

>  <Name>
melperone

>  <SMILES>
CC1CCN(CCCC(=O)c2ccc(F)cc2)CC1

>  <logBB>
0.83

>  <Class>
1

>  <MW>
263.17

>  <nHBAcc>
2

>  <nHBDon>
0

>  <SLogP>
3.52

>  <TopoPSA>
20.31

>  <MMFF94 Energy>
37.248

$$$$
CN(C)CCCN1c2ccccc2CCC2CCCCCC21
Actelion Java MolfileCreator 2.0

  0  0  0  0  0  0              0 V3000
M  V30 BEGIN CTAB
M  V30 COUNTS 54 56 0 0 0
M  V30 BEGIN ATOM
M  V30 1 N -0.3939 -0.5515 -0.3151 0
M  V30 2 C -1.0347 -0.7227 0.9097 0
M  V30 3 C 1.0508 -0.8579 -0.4216 0
M  V30 4 C -1.1989 -0.5381 -1.548 0
M  V30 5 C -0.6569 0.0088 2.052 0
M  V30 6 C -2.0631 -1.6735 1.052 0
M  V30 7 C 1.9053 0.3193 0.0939 0
M  V30 8 C 1.3726 -2.251 0.1464 0
M  V30 9 C -0.9148 0.7101 -2.3912 0
M  V30 10 C -1.3064 -0.2225 3.2817 0
M  V30 11 C 0.3828 1.0998 1.989 0
M  V30 12 C -2.7001 -1.8977 2.2745 0
M  V30 13 C 1.7743 0.6088 1.596 0
M  V30 14 C 3.3746 0.1929 -0.3511 0
M  V30 15 C 2.8033 -2.7286 -0.1041 0
M  V30 16 C -1.5468 1.9832 -1.812 0
M  V30 17 C -2.3195 -1.171 3.3927 0
M  V30 18 C 4.299 -0.6971 0.4749 0
M  V30 19 C 3.8145 -2.0963 0.843 0
M  V30 20 N -3.0212 1.9756 -1.8474 0
M  V30 21 C -3.538 2.241 -3.1906 0
M  V30 22 C -3.5507 2.9662 -0.9068 0
M  V30 23 H 1.272 -0.9327 -1.496 0
M  V30 24 H -2.2749 -0.5898 -1.3457 0
M  V30 25 H -0.9549 -1.4328 -2.1344 0
M  V30 26 H -2.3628 -2.2796 0.2012 0
M  V30 27 H 1.5328 1.2149 -0.4267 0
M  V30 28 H 0.6962 -2.9746 -0.3292 0
M  V30 29 H 1.1557 -2.3054 1.2197 0
M  V30 30 H -1.2795 0.5387 -3.41 0
M  V30 31 H 0.1652 0.8705 -2.4856 0
M  V30 32 H -1.0271 0.3484 4.1643 0
M  V30 33 H 0.4674 1.5766 2.9744 0
M  V30 34 H 0.0377 1.8906 1.312 0
M  V30 35 H -3.4865 -2.6432 2.3469 0
M  V30 36 H 2.0458 -0.2621 2.2006 0
M  V30 37 H 2.4875 1.4029 1.854 0
M  V30 38 H 3.4108 -0.1281 -1.4002 0
M  V30 39 H 3.8152 1.1997 -0.3501 0
M  V30 40 H 2.8192 -3.8117 0.0738 0
M  V30 41 H 3.0937 -2.586 -1.1509 0
M  V30 42 H -1.1993 2.0853 -0.7769 0
M  V30 43 H -1.1587 2.8587 -2.3492 0
M  V30 44 H -2.8104 -1.3371 4.3473 0
M  V30 45 H 5.2371 -0.7977 -0.0873 0
M  V30 46 H 4.5774 -0.1749 1.3993 0
M  V30 47 H 4.6966 -2.7479 0.8956 0
M  V30 48 H 3.4078 -2.0875 1.8615 0
M  V30 49 H -3.2251 1.4673 -3.8982 0
M  V30 50 H -3.2116 3.2142 -3.575 0
M  V30 51 H -4.6341 2.2251 -3.1889 0
M  V30 52 H -3.2242 3.9835 -1.1514 0
M  V30 53 H -3.2315 2.7358 0.1159 0
M  V30 54 H -4.6464 2.9463 -0.901 0
M  V30 END ATOM
M  V30 BEGIN BOND
M  V30 1 1 1 2
M  V30 2 1 1 3
M  V30 3 1 1 4
M  V30 4 2 2 5
M  V30 5 1 2 6
M  V30 6 1 3 7
M  V30 7 1 3 8
M  V30 8 1 4 9
M  V30 9 1 5 10
M  V30 10 1 5 11
M  V30 11 2 6 12
M  V30 12 1 7 13
M  V30 13 1 7 14
M  V30 14 1 8 15
M  V30 15 1 9 16
M  V30 16 2 10 17
M  V30 17 1 14 18
M  V30 18 1 15 19
M  V30 19 1 16 20
M  V30 20 1 20 21
M  V30 21 1 20 22
M  V30 22 1 11 13
M  V30 23 1 12 17
M  V30 24 1 18 19
M  V30 25 1 3 23
M  V30 26 1 4 24
M  V30 27 1 4 25
M  V30 28 1 6 26
M  V30 29 1 7 27
M  V30 30 1 8 28
M  V30 31 1 8 29
M  V30 32 1 9 30
M  V30 33 1 9 31
M  V30 34 1 10 32
M  V30 35 1 11 33
M  V30 36 1 11 34
M  V30 37 1 12 35
M  V30 38 1 13 36
M  V30 39 1 13 37
M  V30 40 1 14 38
M  V30 41 1 14 39
M  V30 42 1 15 40
M  V30 43 1 15 41
M  V30 44 1 16 42
M  V30 45 1 16 43
M  V30 46 1 17 44
M  V30 47 1 18 45
M  V30 48 1 18 46
M  V30 49 1 19 47
M  V30 50 1 19 48
M  V30 51 1 21 49
M  V30 52 1 21 50
M  V30 53 1 21 51
M  V30 54 1 22 52
M  V30 55 1 22 53
M  V30 56 1 22 54
M  V30 END BOND
M  V30 END CTAB
M  END
>  <NO.>
938

>  <Name>
s113 amitryptalline

>  <SMILES>
CN(C)CCCN1c2ccccc2CCC2CCCCCC21

>  <logBB>
0.83

>  <Class>
1

>  <MW>
300.26

>  <nHBAcc>
2

>  <nHBDon>
0

>  <SLogP>
4.34

>  <TopoPSA>
6.48

>  <MMFF94 Energy>
57.968

$$$$
CN(C)CCCN1c2ccccc2Cc2ccccc21
Actelion Java MolfileCreator 2.0

  0  0  0  0  0  0              0 V3000
M  V30 BEGIN CTAB
M  V30 COUNTS 42 44 0 0 0
M  V30 BEGIN ATOM
M  V30 1 N 0.6323 0.2371 -0.7905 0
M  V30 2 C -0.3272 0.5631 -1.7817 0
M  V30 3 C 1.6647 -0.7128 -0.9936 0
M  V30 4 C 0.5653 0.9336 0.5083 0
M  V30 5 C -0.1632 0.0637 -3.088 0
M  V30 6 C -1.4672 1.3522 -1.54 0
M  V30 7 C 1.8708 -1.2387 -2.2836 0
M  V30 8 C 2.5029 -1.1911 0.0303 0
M  V30 9 C -0.3133 0.1769 1.5125 0
M  V30 10 C -1.0923 0.3672 -4.1024 0
M  V30 11 C 1.0342 -0.7753 -3.4463 0
M  V30 12 C -2.3929 1.6465 -2.5487 0
M  V30 13 C 2.8884 -2.1815 -2.5284 0
M  V30 14 C 3.5088 -2.134 -0.2144 0
M  V30 15 C -0.423 0.963 2.8248 0
M  V30 16 C -2.204 1.1558 -3.8323 0
M  V30 17 C 3.704 -2.6278 -1.4958 0
M  V30 18 N -1.1154 0.2229 3.8933 0
M  V30 19 C -2.5282 -0.0089 3.5846 0
M  V30 20 C -1.0007 0.9474 5.1623 0
M  V30 21 H 0.2008 1.9611 0.3827 0
M  V30 22 H 1.5692 1.0897 0.9232 0
M  V30 23 H -1.683 1.7507 -0.5547 0
M  V30 24 H 2.3905 -0.8605 1.0574 0
M  V30 25 H 0.1064 -0.8162 1.7098 0
M  V30 26 H -1.3069 0.0143 1.0818 0
M  V30 27 H -0.9441 -0.0165 -5.1092 0
M  V30 28 H 1.6744 -0.1908 -4.1192 0
M  V30 29 H 0.68 -1.6625 -3.9873 0
M  V30 30 H -3.2626 2.2578 -2.3228 0
M  V30 31 H 3.0422 -2.5686 -3.533 0
M  V30 32 H 4.1335 -2.4816 0.604 0
M  V30 33 H 0.5976 1.1866 3.162 0
M  V30 34 H -0.9153 1.927 2.6401 0
M  V30 35 H -2.9189 1.3831 -4.6179 0
M  V30 36 H 4.4839 -3.3584 -1.6896 0
M  V30 37 H -2.6429 -0.6646 2.7162 0
M  V30 38 H -3.0673 0.9255 3.3916 0
M  V30 39 H -3.024 -0.5241 4.4156 0
M  V30 40 H -1.4708 1.9366 5.117 0
M  V30 41 H 0.0515 1.0769 5.4392 0
M  V30 42 H -1.4676 0.3795 5.9748 0
M  V30 END ATOM
M  V30 BEGIN BOND
M  V30 1 1 1 2
M  V30 2 1 1 3
M  V30 3 1 1 4
M  V30 4 2 2 5
M  V30 5 1 2 6
M  V30 6 2 3 7
M  V30 7 1 3 8
M  V30 8 1 4 9
M  V30 9 1 5 10
M  V30 10 1 5 11
M  V30 11 2 6 12
M  V30 12 1 7 13
M  V30 13 2 8 14
M  V30 14 1 9 15
M  V30 15 2 10 16
M  V30 16 2 13 17
M  V30 17 1 15 18
M  V30 18 1 18 19
M  V30 19 1 18 20
M  V30 20 1 7 11
M  V30 21 1 12 16
M  V30 22 1 14 17
M  V30 23 1 4 21
M  V30 24 1 4 22
M  V30 25 1 6 23
M  V30 26 1 8 24
M  V30 27 1 9 25
M  V30 28 1 9 26
M  V30 29 1 10 27
M  V30 30 1 11 28
M  V30 31 1 11 29
M  V30 32 1 12 30
M  V30 33 1 13 31
M  V30 34 1 14 32
M  V30 35 1 15 33
M  V30 36 1 15 34
M  V30 37 1 16 35
M  V30 38 1 17 36
M  V30 39 1 19 37
M  V30 40 1 19 38
M  V30 41 1 19 39
M  V30 42 1 20 40
M  V30 43 1 20 41
M  V30 44 1 20 42
M  V30 END BOND
M  V30 END CTAB
M  END
>  <NO.>
939

>  <Name>
zinc1677753

>  <SMILES>
CN(C)CCCN1c2ccccc2Cc2ccccc21

>  <logBB>
0.83

>  <Class>
1

>  <MW>
266.18

>  <nHBAcc>
2

>  <nHBDon>
0

>  <SLogP>
3.68

>  <TopoPSA>
6.48

>  <MMFF94 Energy>
47.075

$$$$
Clc1ccc2[nH]nc(NC3CCN(Cc4ccc5c(c4)OCO5)CC3)c2c1
Actelion Java MolfileCreator 2.0

  0  0  0  0  0  0              0 V3000
M  V30 BEGIN CTAB
M  V30 COUNTS 48 52 0 0 0
M  V30 BEGIN ATOM
M  V30 1 Cl 2.1014 1.7779 7.2073 0
M  V30 2 C 1.3364 0.3729 6.5672 0
M  V30 3 C 1.143 0.2704 5.186 0
M  V30 4 C 0.9231 -0.6375 7.4355 0
M  V30 5 C 0.5155 -0.8839 4.6777 0
M  V30 6 C 0.2991 -1.7914 6.9494 0
M  V30 7 C 0.1409 -1.3694 3.3904 0
M  V30 8 C 0.1139 -1.876 5.5658 0
M  V30 9 N -0.4475 -2.5634 3.4695 0
M  V30 10 N 0.3645 -0.6784 2.2528 0
M  V30 11 N -0.4477 -2.8445 4.7801 0
M  V30 12 C -0.0544 -1.1761 0.9485 0
M  V30 13 C -1.5073 -0.7819 0.6752 0
M  V30 14 C 0.8637 -0.5994 -0.1332 0
M  V30 15 C -1.9125 -1.1699 -0.7462 0
M  V30 16 C 0.3699 -0.9908 -1.5259 0
M  V30 17 N -1.0302 -0.6271 -1.7895 0
M  V30 18 C -1.2399 0.8163 -1.9867 0
M  V30 19 C -0.5905 1.3487 -3.2488 0
M  V30 20 C -0.9437 0.8189 -4.5025 0
M  V30 21 C 0.3633 2.391 -3.1772 0
M  V30 22 C -0.3352 1.3386 -5.6247 0
M  V30 23 C 0.9637 2.8979 -4.3344 0
M  V30 24 O -0.5582 0.9421 -6.9063 0
M  V30 25 C 0.5924 2.3496 -5.5423 0
M  V30 26 C 0.3395 1.8164 -7.6198 0
M  V30 27 O 1.0705 2.7166 -6.7614 0
M  V30 28 H 1.469 1.0608 4.5188 0
M  V30 29 H 1.0854 -0.5336 8.5062 0
M  V30 30 H -0.0232 -2.5801 7.6214 0
M  V30 31 H 0.7757 0.2461 2.277 0
M  V30 32 H -0.8517 -3.7241 5.0791 0
M  V30 33 H 0.0388 -2.27 0.9101 0
M  V30 34 H -1.6473 0.2954 0.8299 0
M  V30 35 H -2.1748 -1.281 1.3882 0
M  V30 36 H 0.9253 0.4926 -0.0467 0
M  V30 37 H 1.8848 -0.9742 0.0107 0
M  V30 38 H -1.912 -2.2646 -0.8302 0
M  V30 39 H -2.9508 -0.8677 -0.9309 0
M  V30 40 H 0.4654 -2.0788 -1.6406 0
M  V30 41 H 1.0382 -0.569 -2.2851 0
M  V30 42 H -2.314 1.023 -2.0885 0
M  V30 43 H -0.9047 1.3957 -1.1184 0
M  V30 44 H -1.6684 0.0155 -4.5869 0
M  V30 45 H 0.6429 2.8096 -2.2127 0
M  V30 46 H 1.6965 3.695 -4.2855 0
M  V30 47 H -0.2431 2.4098 -8.3339 0
M  V30 48 H 1.0573 1.2031 -8.1766 0
M  V30 END ATOM
M  V30 BEGIN BOND
M  V30 1 1 1 2
M  V30 2 2 2 3
M  V30 3 1 2 4
M  V30 4 1 3 5
M  V30 5 2 4 6
M  V30 6 1 5 7
M  V30 7 2 5 8
M  V30 8 2 7 9
M  V30 9 1 7 10
M  V30 10 1 8 11
M  V30 11 1 10 12
M  V30 12 1 12 13
M  V30 13 1 12 14
M  V30 14 1 13 15
M  V30 15 1 14 16
M  V30 16 1 15 17
M  V30 17 1 17 18
M  V30 18 1 18 19
M  V30 19 2 19 20
M  V30 20 1 19 21
M  V30 21 1 20 22
M  V30 22 2 21 23
M  V30 23 1 22 24
M  V30 24 2 22 25
M  V30 25 1 24 26
M  V30 26 1 25 27
M  V30 27 1 6 8
M  V30 28 1 9 11
M  V30 29 1 16 17
M  V30 30 1 23 25
M  V30 31 1 26 27
M  V30 32 1 3 28
M  V30 33 1 4 29
M  V30 34 1 6 30
M  V30 35 1 10 31
M  V30 36 1 11 32
M  V30 37 1 12 33
M  V30 38 1 13 34
M  V30 39 1 13 35
M  V30 40 1 14 36
M  V30 41 1 14 37
M  V30 42 1 15 38
M  V30 43 1 15 39
M  V30 44 1 16 40
M  V30 45 1 16 41
M  V30 46 1 18 42
M  V30 47 1 18 43
M  V30 48 1 20 44
M  V30 49 1 21 45
M  V30 50 1 23 46
M  V30 51 1 26 47
M  V30 52 1 26 48
M  V30 END BOND
M  V30 END CTAB
M  END
>  <NO.>
940

>  <Name>
mchr antagonist 19

>  <SMILES>
Clc1ccc2[nH]nc(NC3CCN(Cc4ccc5c(c4)OCO5)CC3)c2c1

>  <logBB>
0.83

>  <Class>
1

>  <MW>
384.14

>  <nHBAcc>
5

>  <nHBDon>
2

>  <SLogP>
4.02

>  <TopoPSA>
62.41

>  <MMFF94 Energy>
0.74118

$$$$
CCOC(=O)C1(c2ccccc2)CCN(C)CC1
Actelion Java MolfileCreator 2.0

  0  0  0  0  0  0              0 V3000
M  V30 BEGIN CTAB
M  V30 COUNTS 39 40 0 0 0
M  V30 BEGIN ATOM
M  V30 1 O -2.2141 0.3951 1.7393 0
M  V30 2 C -1.4864 -0.35 1.0929 0
M  V30 3 O -1.3329 -1.684 1.3463 0
M  V30 4 C -0.5715 0.1022 -0.0662 0
M  V30 5 C -2.075 -2.2016 2.4592 0
M  V30 6 C 0.8729 0.1853 0.4778 0
M  V30 7 C -1.0766 1.4903 -0.5557 0
M  V30 8 C -0.7929 -0.8797 -1.2518 0
M  V30 9 C -1.2888 -2.0108 3.7427 0
M  V30 10 C 1.1978 1.1458 1.458 0
M  V30 11 C 1.891 -0.7002 0.0869 0
M  V30 12 C -0.4351 1.9183 -1.8736 0
M  V30 13 C -0.2092 -0.3807 -2.5765 0
M  V30 14 C 2.4867 1.242 1.9889 0
M  V30 15 C 3.182 -0.6035 0.6174 0
M  V30 16 N -0.7369 0.9406 -2.9239 0
M  V30 17 C 3.4814 0.3703 1.5636 0
M  V30 18 C -0.1974 1.3878 -4.2086 0
M  V30 19 H -2.2241 -3.2704 2.2747 0
M  V30 20 H -3.0691 -1.7449 2.5241 0
M  V30 21 H -2.1668 1.4518 -0.6999 0
M  V30 22 H -0.9177 2.2771 0.1901 0
M  V30 23 H -1.874 -1.0296 -1.3926 0
M  V30 24 H -0.3957 -1.8782 -1.0336 0
M  V30 25 H -1.8169 -2.4553 4.591 0
M  V30 26 H -0.2999 -2.4734 3.6599 0
M  V30 27 H -1.1261 -0.9484 3.9502 0
M  V30 28 H 0.4413 1.8291 1.8412 0
M  V30 29 H 1.7117 -1.4949 -0.6307 0
M  V30 30 H 0.6467 2.0536 -1.7499 0
M  V30 31 H -0.8526 2.8942 -2.1507 0
M  V30 32 H 0.8859 -0.3639 -2.5366 0
M  V30 33 H -0.486 -1.1009 -3.3565 0
M  V30 34 H 2.7076 1.9946 2.7417 0
M  V30 35 H 3.9528 -1.2984 0.2937 0
M  V30 36 H 4.4836 0.4413 1.977 0
M  V30 37 H -0.6313 2.3529 -4.493 0
M  V30 38 H -0.4597 0.6803 -5.003 0
M  V30 39 H 0.8932 1.493 -4.1861 0
M  V30 END ATOM
M  V30 BEGIN BOND
M  V30 1 2 1 2
M  V30 2 1 2 3
M  V30 3 1 2 4
M  V30 4 1 3 5
M  V30 5 1 4 6
M  V30 6 1 4 7
M  V30 7 1 4 8
M  V30 8 1 5 9
M  V30 9 2 6 10
M  V30 10 1 6 11
M  V30 11 1 7 12
M  V30 12 1 8 13
M  V30 13 1 10 14
M  V30 14 2 11 15
M  V30 15 1 12 16
M  V30 16 2 14 17
M  V30 17 1 16 18
M  V30 18 1 13 16
M  V30 19 1 15 17
M  V30 20 1 5 19
M  V30 21 1 5 20
M  V30 22 1 7 21
M  V30 23 1 7 22
M  V30 24 1 8 23
M  V30 25 1 8 24
M  V30 26 1 9 25
M  V30 27 1 9 26
M  V30 28 1 9 27
M  V30 29 1 10 28
M  V30 30 1 11 29
M  V30 31 1 12 30
M  V30 32 1 12 31
M  V30 33 1 13 32
M  V30 34 1 13 33
M  V30 35 1 14 34
M  V30 36 1 15 35
M  V30 37 1 17 36
M  V30 38 1 18 37
M  V30 39 1 18 38
M  V30 40 1 18 39
M  V30 END BOND
M  V30 END CTAB
M  END
>  <NO.>
941

>  <Name>
meperidine

>  <SMILES>
CCOC(=O)C1(c2ccccc2)CCN(C)CC1

>  <logBB>
0.85

>  <Class>
1

>  <MW>
247.16

>  <nHBAcc>
3

>  <nHBDon>
0

>  <SLogP>
2.21

>  <TopoPSA>
29.54

>  <MMFF94 Energy>
32.112

$$$$
OC(CCN1CCCCC1)(c1ccccc1)C1CC2C=CC1C2
Actelion Java MolfileCreator 2.0

  0  0  0  0  0  0              0 V3000
M  V30 BEGIN CTAB
M  V30 COUNTS 52 55 0 0 0
M  V30 BEGIN ATOM
M  V30 1 O -0.479 -2.397 -0.0798 0
M  V30 2 C 0.0761 -1.205 -0.6691 0
M  V30 3 C 1.5392 -1.0551 -0.1969 0
M  V30 4 C 0.0391 -1.438 -2.2152 0
M  V30 5 C -0.7717 -0.0101 -0.1581 0
M  V30 6 C 2.1164 -1.9526 0.7216 0
M  V30 7 C 2.3385 0.0125 -0.6457 0
M  V30 8 C -1.2189 -2.1464 -2.8116 0
M  V30 9 C 0.1935 -0.2082 -3.1717 0
M  V30 10 C -0.8255 0.0969 1.3807 0
M  V30 11 C 3.4392 -1.8043 1.1491 0
M  V30 12 C 3.6612 0.1606 -0.2187 0
M  V30 13 C -2.4327 -1.2546 -2.7325 0
M  V30 14 C -0.9258 -1.9843 -4.3122 0
M  V30 15 C -0.8968 -0.4568 -4.2399 0
M  V30 16 N -1.6787 1.2131 1.8422 0
M  V30 17 C 4.2129 -0.7505 0.6752 0
M  V30 18 C -2.2365 -0.2348 -3.5814 0
M  V30 19 C -1.0959 2.5437 1.6078 0
M  V30 20 C -2.0386 1.0615 3.2625 0
M  V30 21 C 0.0955 2.8776 2.51 0
M  V30 22 C -0.8809 1.3242 4.2292 0
M  V30 23 C -0.2554 2.6929 3.9826 0
M  V30 24 H 0.0014 -3.1534 -0.4569 0
M  V30 25 H 0.878 -2.1176 -2.4409 0
M  V30 26 H -0.3911 0.9241 -0.5788 0
M  V30 27 H -1.8064 -0.1184 -0.4956 0
M  V30 28 H 1.5382 -2.7733 1.1402 0
M  V30 29 H 1.9403 0.7592 -1.3268 0
M  V30 30 H -1.3806 -3.1805 -2.5038 0
M  V30 31 H 1.1886 -0.2216 -3.6315 0
M  V30 32 H 0.0543 0.76 -2.6851 0
M  V30 33 H -1.2493 -0.8419 1.7588 0
M  V30 34 H 0.1817 0.1756 1.8004 0
M  V30 35 H 3.8599 -2.5101 1.8609 0
M  V30 36 H 4.2576 0.994 -0.5813 0
M  V30 37 H -3.2717 -1.3896 -2.0656 0
M  V30 38 H -1.7213 -2.3783 -4.9581 0
M  V30 39 H 0.0301 -2.4217 -4.6216 0
M  V30 40 H -0.7618 0.0568 -5.192 0
M  V30 41 H 5.2398 -0.6336 1.0103 0
M  V30 42 H -2.8882 0.612 -3.7341 0
M  V30 43 H -1.8824 3.2916 1.7776 0
M  V30 44 H -0.8102 2.6744 0.5594 0
M  V30 45 H -2.4561 0.0639 3.4462 0
M  V30 46 H -2.855 1.7608 3.4874 0
M  V30 47 H 0.4056 3.9148 2.3373 0
M  V30 48 H 0.9552 2.2481 2.2527 0
M  V30 49 H -0.1167 0.5449 4.1244 0
M  V30 50 H -1.2456 1.2698 5.2614 0
M  V30 51 H 0.6402 2.815 4.6014 0
M  V30 52 H -0.9632 3.4743 4.2866 0
M  V30 END ATOM
M  V30 BEGIN BOND
M  V30 1 1 1 2
M  V30 2 1 2 3
M  V30 3 1 2 4
M  V30 4 1 2 5
M  V30 5 2 3 6
M  V30 6 1 3 7
M  V30 7 1 4 8
M  V30 8 1 4 9
M  V30 9 1 5 10
M  V30 10 1 6 11
M  V30 11 2 7 12
M  V30 12 1 8 13
M  V30 13 1 8 14
M  V30 14 1 9 15
M  V30 15 1 10 16
M  V30 16 2 11 17
M  V30 17 2 13 18
M  V30 18 1 16 19
M  V30 19 1 16 20
M  V30 20 1 19 21
M  V30 21 1 20 22
M  V30 22 1 21 23
M  V30 23 1 12 17
M  V30 24 1 14 15
M  V30 25 1 15 18
M  V30 26 1 22 23
M  V30 27 1 1 24
M  V30 28 1 4 25
M  V30 29 1 5 26
M  V30 30 1 5 27
M  V30 31 1 6 28
M  V30 32 1 7 29
M  V30 33 1 8 30
M  V30 34 1 9 31
M  V30 35 1 9 32
M  V30 36 1 10 33
M  V30 37 1 10 34
M  V30 38 1 11 35
M  V30 39 1 12 36
M  V30 40 1 13 37
M  V30 41 1 14 38
M  V30 42 1 14 39
M  V30 43 1 15 40
M  V30 44 1 17 41
M  V30 45 1 18 42
M  V30 46 1 19 43
M  V30 47 1 19 44
M  V30 48 1 20 45
M  V30 49 1 20 46
M  V30 50 1 21 47
M  V30 51 1 21 48
M  V30 52 1 22 49
M  V30 53 1 22 50
M  V30 54 1 23 51
M  V30 55 1 23 52
M  V30 END BOND
M  V30 END CTAB
M  END
>  <NO.>
942

>  <Name>
biperiden

>  <SMILES>
OC(CCN1CCCCC1)(c1ccccc1)C1CC2C=CC1C2

>  <logBB>
0.85

>  <Class>
1

>  <MW>
311.22

>  <nHBAcc>
2

>  <nHBDon>
1

>  <SLogP>
3.96

>  <TopoPSA>
23.47

>  <MMFF94 Energy>
81.605

$$$$
C=CCCCCCCC
Actelion Java MolfileCreator 2.0

  0  0  0  0  0  0              0 V3000
M  V30 BEGIN CTAB
M  V30 COUNTS 27 26 0 0 0
M  V30 BEGIN ATOM
M  V30 1 C -1.9076 -0.0762 -3.13 0
M  V30 2 C -1.6079 0.9137 -3.9801 0
M  V30 3 C -1.0725 -0.4439 -1.9361 0
M  V30 4 C -1.8551 -0.2538 -0.6344 0
M  V30 5 C -1.0973 -0.735 0.6069 0
M  V30 6 C 0.1542 0.0912 0.9152 0
M  V30 7 C 0.805 -0.3613 2.2253 0
M  V30 8 C 2.0034 0.4971 2.6354 0
M  V30 9 C 3.1818 0.3923 1.6797 0
M  V30 10 H -2.8036 -0.6684 -3.3054 0
M  V30 11 H -2.249 1.1291 -4.8294 0
M  V30 12 H -0.7235 1.5297 -3.851 0
M  V30 13 H -0.1561 0.1562 -1.918 0
M  V30 14 H -0.7672 -1.4921 -2.0371 0
M  V30 15 H -2.7983 -0.8124 -0.6935 0
M  V30 16 H -2.1253 0.8027 -0.5118 0
M  V30 17 H -0.8243 -1.7902 0.4853 0
M  V30 18 H -1.7806 -0.6826 1.4637 0
M  V30 19 H -0.114 1.152 0.9859 0
M  V30 20 H 0.8725 -0.0116 0.0961 0
M  V30 21 H 1.1152 -1.41 2.1412 0
M  V30 22 H 0.061 -0.3155 3.0303 0
M  V30 23 H 1.6981 1.5462 2.7245 0
M  V30 24 H 2.3339 0.1779 3.631 0
M  V30 25 H 4.0377 0.9471 2.0773 0
M  V30 26 H 3.487 -0.6499 1.5447 0
M  V30 27 H 2.9421 0.8134 0.6991 0
M  V30 END ATOM
M  V30 BEGIN BOND
M  V30 1 2 1 2
M  V30 2 1 1 3
M  V30 3 1 3 4
M  V30 4 1 4 5
M  V30 5 1 5 6
M  V30 6 1 6 7
M  V30 7 1 7 8
M  V30 8 1 8 9
M  V30 9 1 1 10
M  V30 10 1 2 11
M  V30 11 1 2 12
M  V30 12 1 3 13
M  V30 13 1 3 14
M  V30 14 1 4 15
M  V30 15 1 4 16
M  V30 16 1 5 17
M  V30 17 1 5 18
M  V30 18 1 6 19
M  V30 19 1 6 20
M  V30 20 1 7 21
M  V30 21 1 7 22
M  V30 22 1 8 23
M  V30 23 1 8 24
M  V30 24 1 9 25
M  V30 25 1 9 26
M  V30 26 1 9 27
M  V30 END BOND
M  V30 END CTAB
M  END
>  <NO.>
945

>  <Name>
1-nonene

>  <SMILES>
C=CCCCCCCC

>  <logBB>
0.86

>  <Class>
1

>  <MW>
126.14

>  <nHBAcc>
0

>  <nHBDon>
0

>  <SLogP>
3.53

>  <TopoPSA>
0

>  <MMFF94 Energy>
6.1263

$$$$
CCCCC(C)C
Actelion Java MolfileCreator 2.0

  0  0  0  0  0  0              0 V3000
M  V30 BEGIN CTAB
M  V30 COUNTS 23 22 0 0 0
M  V30 BEGIN ATOM
M  V30 1 C -0.3795 1.1389 -1.2148 0
M  V30 2 C -0.6148 -0.0966 -0.3262 0
M  V30 3 C 0.9691 1.0934 -1.9345 0
M  V30 4 C -1.5082 1.2618 -2.2416 0
M  V30 5 C 0.3861 -0.219 0.8266 0
M  V30 6 C 0.0303 -1.3882 1.7465 0
M  V30 7 C 1.0227 -1.5187 2.891 0
M  V30 8 H -0.4015 2.036 -0.5831 0
M  V30 9 H -0.5778 -1.0067 -0.9385 0
M  V30 10 H -1.628 -0.0416 0.0929 0
M  V30 11 H 1.8012 1.1357 -1.2253 0
M  V30 12 H 1.0717 0.1789 -2.5283 0
M  V30 13 H 1.0774 1.9487 -2.6104 0
M  V30 14 H -2.4808 1.3392 -1.744 0
M  V30 15 H -1.536 0.3928 -2.908 0
M  V30 16 H -1.3784 2.1578 -2.8579 0
M  V30 17 H 0.3967 0.7125 1.4053 0
M  V30 18 H 1.3972 -0.3704 0.433 0
M  V30 19 H -0.9756 -1.2461 2.1584 0
M  V30 20 H 0.0174 -2.3223 1.1729 0
M  V30 21 H 0.749 -2.3596 3.536 0
M  V30 22 H 2.0352 -1.6951 2.5142 0
M  V30 23 H 1.0368 -0.6113 3.5034 0
M  V30 END ATOM
M  V30 BEGIN BOND
M  V30 1 1 1 2
M  V30 2 1 1 3
M  V30 3 1 1 4
M  V30 4 1 2 5
M  V30 5 1 5 6
M  V30 6 1 6 7
M  V30 7 1 1 8
M  V30 8 1 2 9
M  V30 9 1 2 10
M  V30 10 1 3 11
M  V30 11 1 3 12
M  V30 12 1 3 13
M  V30 13 1 4 14
M  V30 14 1 4 15
M  V30 15 1 4 16
M  V30 16 1 5 17
M  V30 17 1 5 18
M  V30 18 1 6 19
M  V30 19 1 6 20
M  V30 20 1 7 21
M  V30 21 1 7 22
M  V30 22 1 7 23
M  V30 END BOND
M  V30 END CTAB
M  END
>  <NO.>
946

>  <Name>
2-methyl heptane

>  <SMILES>
CCCCC(C)C

>  <logBB>
0.86

>  <Class>
1

>  <MW>
100.13

>  <nHBAcc>
0

>  <nHBDon>
0

>  <SLogP>
2.83

>  <TopoPSA>
0

>  <MMFF94 Energy>
-0.025569

$$$$
CCCCCC(C)C
Actelion Java MolfileCreator 2.0

  0  0  0  0  0  0              0 V3000
M  V30 BEGIN CTAB
M  V30 COUNTS 26 25 0 0 0
M  V30 BEGIN ATOM
M  V30 1 C -1.7512 0.0 -1.4465 0
M  V30 2 C -0.9416 -0.4977 -0.2348 0
M  V30 3 C -0.95 -0.0553 -2.7478 0
M  V30 4 C -3.0295 -0.8293 -1.592 0
M  V30 5 C 0.2829 0.3673 0.078 0
M  V30 6 C 0.9758 -0.0973 1.3612 0
M  V30 7 C 2.2013 0.7611 1.6735 0
M  V30 8 C 2.8921 0.3031 2.9479 0
M  V30 9 H -2.0458 1.042 -1.2687 0
M  V30 10 H -1.5967 -0.5103 0.6458 0
M  V30 11 H -0.6218 -1.5341 -0.4025 0
M  V30 12 H -0.0975 0.6297 -2.7206 0
M  V30 13 H -0.5715 -1.0651 -2.9383 0
M  V30 14 H -1.5728 0.238 -3.5998 0
M  V30 15 H -3.6393 -0.7677 -0.6844 0
M  V30 16 H -2.8002 -1.8843 -1.7759 0
M  V30 17 H -3.6379 -0.464 -2.4262 0
M  V30 18 H -0.0242 1.4144 0.186 0
M  V30 19 H 0.9984 0.3202 -0.75 0
M  V30 20 H 1.2788 -1.1461 1.2556 0
M  V30 21 H 0.27 -0.0475 2.1993 0
M  V30 22 H 2.9128 0.7115 0.8412 0
M  V30 23 H 1.9029 1.8102 1.7833 0
M  V30 24 H 3.7653 0.9304 3.1521 0
M  V30 25 H 2.2166 0.3713 3.8066 0
M  V30 26 H 3.2318 -0.7335 2.8591 0
M  V30 END ATOM
M  V30 BEGIN BOND
M  V30 1 1 1 2
M  V30 2 1 1 3
M  V30 3 1 1 4
M  V30 4 1 2 5
M  V30 5 1 5 6
M  V30 6 1 6 7
M  V30 7 1 7 8
M  V30 8 1 1 9
M  V30 9 1 2 10
M  V30 10 1 2 11
M  V30 11 1 3 12
M  V30 12 1 3 13
M  V30 13 1 3 14
M  V30 14 1 4 15
M  V30 15 1 4 16
M  V30 16 1 4 17
M  V30 17 1 5 18
M  V30 18 1 5 19
M  V30 19 1 6 20
M  V30 20 1 6 21
M  V30 21 1 7 22
M  V30 22 1 7 23
M  V30 23 1 8 24
M  V30 24 1 8 25
M  V30 25 1 8 26
M  V30 END BOND
M  V30 END CTAB
M  END
>  <NO.>
947

>  <Name>
2-methylheptane

>  <SMILES>
CCCCCC(C)C

>  <logBB>
0.86

>  <Class>
1

>  <MW>
114.14

>  <nHBAcc>
0

>  <nHBDon>
0

>  <SLogP>
3.22

>  <TopoPSA>
0

>  <MMFF94 Energy>
-0.23577

$$$$
COc1ccccc1CNC1CCCNC1c1ccccc1
Actelion Java MolfileCreator 2.0

  0  0  0  0  0  0              0 V3000
M  V30 BEGIN CTAB
M  V30 COUNTS 46 48 0 0 0
M  V30 BEGIN ATOM
M  V30 1 O -3.009 -2.2164 -2.058 0
M  V30 2 C -3.4011 -1.3514 -1.0686 0
M  V30 3 C -4.0279 -2.8245 -2.8412 0
M  V30 4 C -2.3675 -0.7668 -0.3093 0
M  V30 5 C -4.7349 -1.0344 -0.7803 0
M  V30 6 C -2.707 0.0956 0.7515 0
M  V30 7 C -0.9113 -1.1107 -0.5635 0
M  V30 8 C -5.0497 -0.1588 0.2617 0
M  V30 9 C -4.0371 0.4031 1.0301 0
M  V30 10 N -0.0396 0.0576 -0.4151 0
M  V30 11 C 1.3972 -0.2588 -0.468 0
M  V30 12 C 2.2657 0.9358 0.0871 0
M  V30 13 C 1.8349 -0.5882 -1.9085 0
M  V30 14 N 3.7138 0.664 -0.036 0
M  V30 15 C 1.9846 1.3577 1.5303 0
M  V30 16 C 3.3421 -0.8108 -1.9836 0
M  V30 17 C 4.1022 0.3786 -1.412 0
M  V30 18 C 2.3465 2.6568 1.934 0
M  V30 19 C 1.4192 0.5047 2.4902 0
M  V30 20 C 2.1309 3.0937 3.2427 0
M  V30 21 C 1.2011 0.943 3.8 0
M  V30 22 C 1.5549 2.2364 4.1754 0
M  V30 23 H -4.6814 -3.4491 -2.2234 0
M  V30 24 H -3.5413 -3.4762 -3.5731 0
M  V30 25 H -4.6015 -2.0739 -3.3948 0
M  V30 26 H -5.5586 -1.4561 -1.346 0
M  V30 27 H -1.9227 0.5361 1.3661 0
M  V30 28 H -0.7895 -1.5172 -1.5715 0
M  V30 29 H -0.6309 -1.892 0.1533 0
M  V30 30 H -6.0884 0.0787 0.4764 0
M  V30 31 H -4.2779 1.0783 1.8468 0
M  V30 32 H -0.2848 0.7499 -1.1215 0
M  V30 33 H 1.5961 -1.1409 0.1554 0
M  V30 34 H 2.0336 1.8128 -0.5364 0
M  V30 35 H 1.3311 -1.4894 -2.2746 0
M  V30 36 H 1.5575 0.2315 -2.584 0
M  V30 37 H 3.9409 -0.1275 0.5649 0
M  V30 38 H 3.6382 -0.9711 -3.0264 0
M  V30 39 H 3.6069 -1.7218 -1.4324 0
M  V30 40 H 3.9426 1.2672 -2.0347 0
M  V30 41 H 5.1773 0.1698 -1.4392 0
M  V30 42 H 2.8119 3.3332 1.2197 0
M  V30 43 H 1.1282 -0.5099 2.2362 0
M  V30 44 H 2.4177 4.101 3.5316 0
M  V30 45 H 0.7534 0.2704 4.5268 0
M  V30 46 H 1.386 2.5738 5.1941 0
M  V30 END ATOM
M  V30 BEGIN BOND
M  V30 1 1 1 2
M  V30 2 1 1 3
M  V30 3 2 2 4
M  V30 4 1 2 5
M  V30 5 1 4 6
M  V30 6 1 4 7
M  V30 7 2 5 8
M  V30 8 2 6 9
M  V30 9 1 7 10
M  V30 10 1 10 11
M  V30 11 1 11 12
M  V30 12 1 11 13
M  V30 13 1 12 14
M  V30 14 1 12 15
M  V30 15 1 13 16
M  V30 16 1 14 17
M  V30 17 2 15 18
M  V30 18 1 15 19
M  V30 19 1 18 20
M  V30 20 2 19 21
M  V30 21 2 20 22
M  V30 22 1 8 9
M  V30 23 1 16 17
M  V30 24 1 21 22
M  V30 25 1 3 23
M  V30 26 1 3 24
M  V30 27 1 3 25
M  V30 28 1 5 26
M  V30 29 1 6 27
M  V30 30 1 7 28
M  V30 31 1 7 29
M  V30 32 1 8 30
M  V30 33 1 9 31
M  V30 34 1 10 32
M  V30 35 1 11 33
M  V30 36 1 12 34
M  V30 37 1 13 35
M  V30 38 1 13 36
M  V30 39 1 14 37
M  V30 40 1 16 38
M  V30 41 1 16 39
M  V30 42 1 17 40
M  V30 43 1 17 41
M  V30 44 1 18 42
M  V30 45 1 19 43
M  V30 46 1 20 44
M  V30 47 1 21 45
M  V30 48 1 22 46
M  V30 END BOND
M  V30 END CTAB
M  END
>  <NO.>
948

>  <Name>
145148-39-6

>  <SMILES>
COc1ccccc1CNC1CCCNC1c1ccccc1

>  <logBB>
0.87

>  <Class>
1

>  <MW>
296.19

>  <nHBAcc>
3

>  <nHBDon>
2

>  <SLogP>
3.28

>  <TopoPSA>
33.29

>  <MMFF94 Energy>
73.757

$$$$
CCN(C)C(=O)Oc1cccc(C(C)N(C)C)c1
Actelion Java MolfileCreator 2.0

  0  0  0  0  0  0              0 V3000
M  V30 BEGIN CTAB
M  V30 COUNTS 40 40 0 0 0
M  V30 BEGIN ATOM
M  V30 1 O -1.167 -1.167 -2.1013 0
M  V30 2 C -1.528 -1.8703 -1.1622 0
M  V30 3 O -1.7739 -1.3985 0.1253 0
M  V30 4 N -1.7319 -3.2418 -1.2754 0
M  V30 5 C -1.5612 -0.0307 0.354 0
M  V30 6 C -1.481 -3.8863 -2.5587 0
M  V30 7 C -2.1005 -4.0933 -0.1559 0
M  V30 8 C -0.2944 0.538 0.201 0
M  V30 9 C -2.6378 0.712 0.8294 0
M  V30 10 C -0.0469 -4.3772 -2.6784 0
M  V30 11 C -0.0964 1.8973 0.4856 0
M  V30 12 C -2.4525 2.0578 1.1294 0
M  V30 13 C -1.195 2.6435 0.9585 0
M  V30 14 C 1.2526 2.6019 0.3209 0 CFG=1
M  V30 15 N 1.8137 2.9785 1.6394 0
M  V30 16 C 2.2369 1.8774 -0.6151 0
M  V30 17 C 2.8335 4.0196 1.5374 0
M  V30 18 C 2.3118 1.8475 2.4191 0
M  V30 19 H -1.6834 -3.1773 -3.3692 0
M  V30 20 H -2.1822 -4.7198 -2.6765 0
M  V30 21 H -2.3229 -3.527 0.7505 0
M  V30 22 H -2.9879 -4.671 -0.4308 0
M  V30 23 H -1.2733 -4.7771 0.0537 0
M  V30 24 H 0.522 -0.0876 -0.1429 0
M  V30 25 H -3.6091 0.2482 0.9671 0
M  V30 26 H 0.1832 -5.1189 -1.9071 0
M  V30 27 H 0.6624 -3.5504 -2.5689 0
M  V30 28 H 0.1153 -4.8409 -3.6561 0
M  V30 29 H -3.2813 2.6536 1.5016 0
M  V30 30 H -1.0622 3.6952 1.2074 0
M  V30 31 H 0.9999 3.536 -0.2035 0
M  V30 32 H 2.5791 0.9209 -0.2075 0
M  V30 33 H 3.1216 2.4903 -0.8148 0
M  V30 34 H 1.7664 1.6729 -1.584 0
M  V30 35 H 3.7452 3.6715 1.0411 0
M  V30 36 H 3.1101 4.3792 2.5351 0
M  V30 37 H 2.4511 4.8894 0.9919 0
M  V30 38 H 1.5442 1.0789 2.5537 0
M  V30 39 H 2.588 2.1782 3.4271 0
M  V30 40 H 3.1949 1.3817 1.9692 0
M  V30 END ATOM
M  V30 BEGIN BOND
M  V30 1 2 1 2
M  V30 2 1 2 3
M  V30 3 1 2 4
M  V30 4 1 3 5
M  V30 5 1 4 6
M  V30 6 1 4 7
M  V30 7 2 5 8
M  V30 8 1 5 9
M  V30 9 1 6 10
M  V30 10 1 8 11
M  V30 11 2 9 12
M  V30 12 2 11 13
M  V30 13 1 11 14
M  V30 14 1 14 15
M  V30 15 1 14 16
M  V30 16 1 15 17
M  V30 17 1 15 18
M  V30 18 1 12 13
M  V30 19 1 6 19
M  V30 20 1 6 20
M  V30 21 1 7 21
M  V30 22 1 7 22
M  V30 23 1 7 23
M  V30 24 1 8 24
M  V30 25 1 9 25
M  V30 26 1 10 26
M  V30 27 1 10 27
M  V30 28 1 10 28
M  V30 29 1 12 29
M  V30 30 1 13 30
M  V30 31 1 14 31
M  V30 32 1 16 32
M  V30 33 1 16 33
M  V30 34 1 16 34
M  V30 35 1 17 35
M  V30 36 1 17 36
M  V30 37 1 17 37
M  V30 38 1 18 38
M  V30 39 1 18 39
M  V30 40 1 18 40
M  V30 END BOND
M  V30 BEGIN COLLECTION
M  V30 MDLV30/STERAC1 ATOMS=(1 14)
M  V30 END COLLECTION
M  V30 END CTAB
M  END
>  <NO.>
949

>  <Name>
105601-20-5

>  <SMILES>
CCN(C)C(=O)Oc1cccc(C(C)N(C)C)c1

>  <logBB>
0.88

>  <Class>
1

>  <MW>
250.17

>  <nHBAcc>
3

>  <nHBDon>
0

>  <SLogP>
2.76

>  <TopoPSA>
32.78

>  <MMFF94 Energy>
6.3547

$$$$
CN(C)Cc1ccc(C(=O)Nc2cc(-c3ccccc3)ccc2N)cc1
Actelion Java MolfileCreator 2.0

  0  0  0  0  0  0              0 V3000
M  V30 BEGIN CTAB
M  V30 COUNTS 49 51 0 0 0
M  V30 BEGIN ATOM
M  V30 1 O 1.1833 -0.5521 -0.3154 0
M  V30 2 C 0.1405 0.068 -0.142 0
M  V30 3 N -1.1085 -0.4753 0.0807 0
M  V30 4 C 0.1921 1.558 -0.149 0
M  V30 5 C -1.435 -1.8483 0.1631 0
M  V30 6 C 1.3461 2.1837 0.3355 0
M  V30 7 C -0.859 2.3375 -0.6459 0
M  V30 8 C -2.7793 -2.2078 -0.0629 0
M  V30 9 C -0.5032 -2.8236 0.539 0
M  V30 10 C 1.4391 3.5775 0.3479 0
M  V30 11 C -0.7618 3.7326 -0.6332 0
M  V30 12 N -3.7372 -1.2546 -0.4258 0
M  V30 13 C -3.1746 -3.5252 0.1762 0
M  V30 14 C -0.8864 -4.1626 0.7308 0
M  V30 15 C 0.3868 4.3679 -0.1371 0
M  V30 16 C -2.2384 -4.4924 0.5535 0
M  V30 17 C 0.0946 -5.1864 1.1321 0
M  V30 18 C 0.4903 5.8805 -0.1268 0
M  V30 19 C 0.2156 -6.3919 0.4202 0
M  V30 20 C 0.9374 -4.9901 2.2392 0
M  V30 21 N 1.0693 6.5178 -1.3175 0
M  V30 22 C 1.1431 -7.3657 0.8011 0
M  V30 23 C 1.865 -5.963 2.6221 0
M  V30 24 C 0.2793 6.3194 -2.5269 0
M  V30 25 C 2.4687 6.1705 -1.5385 0
M  V30 26 C 1.9669 -7.1507 1.9028 0
M  V30 27 H -1.8915 0.1393 0.2592 0
M  V30 28 H 2.1761 1.5853 0.7069 0
M  V30 29 H -1.7459 1.8808 -1.0737 0
M  V30 30 H 0.5354 -2.5501 0.706 0
M  V30 31 H 2.3429 4.0441 0.7345 0
M  V30 32 H -1.5856 4.3268 -1.0244 0
M  V30 33 H -4.6799 -1.58 -0.6033 0
M  V30 34 H -3.4189 -0.4871 -1.0028 0
M  V30 35 H -4.2135 -3.8195 0.0566 0
M  V30 36 H -2.5779 -5.5121 0.7248 0
M  V30 37 H 1.0649 6.1879 0.7578 0
M  V30 38 H -0.5095 6.2997 0.0506 0
M  V30 39 H -0.4074 -6.5747 -0.4528 0
M  V30 40 H 0.8708 -4.0721 2.82 0
M  V30 41 H 1.2241 -8.2884 0.2329 0
M  V30 42 H 2.507 -5.7898 3.4817 0
M  V30 43 H -0.764 6.6115 -2.3638 0
M  V30 44 H 0.3007 5.2833 -2.8814 0
M  V30 45 H 0.6563 6.9568 -3.3348 0
M  V30 46 H 2.603 5.1269 -1.8421 0
M  V30 47 H 3.0631 6.3516 -0.636 0
M  V30 48 H 2.8968 6.8046 -2.3233 0
M  V30 49 H 2.69 -7.9059 2.1985 0
M  V30 END ATOM
M  V30 BEGIN BOND
M  V30 1 2 1 2
M  V30 2 1 2 3
M  V30 3 1 2 4
M  V30 4 1 3 5
M  V30 5 2 4 6
M  V30 6 1 4 7
M  V30 7 2 5 8
M  V30 8 1 5 9
M  V30 9 1 6 10
M  V30 10 2 7 11
M  V30 11 1 8 12
M  V30 12 1 8 13
M  V30 13 2 9 14
M  V30 14 2 10 15
M  V30 15 2 13 16
M  V30 16 1 14 17
M  V30 17 1 15 18
M  V30 18 2 17 19
M  V30 19 1 17 20
M  V30 20 1 18 21
M  V30 21 1 19 22
M  V30 22 2 20 23
M  V30 23 1 21 24
M  V30 24 1 21 25
M  V30 25 2 22 26
M  V30 26 1 11 15
M  V30 27 1 14 16
M  V30 28 1 23 26
M  V30 29 1 3 27
M  V30 30 1 6 28
M  V30 31 1 7 29
M  V30 32 1 9 30
M  V30 33 1 10 31
M  V30 34 1 11 32
M  V30 35 1 12 33
M  V30 36 1 12 34
M  V30 37 1 13 35
M  V30 38 1 16 36
M  V30 39 1 18 37
M  V30 40 1 18 38
M  V30 41 1 19 39
M  V30 42 1 20 40
M  V30 43 1 22 41
M  V30 44 1 23 42
M  V30 45 1 24 43
M  V30 46 1 24 44
M  V30 47 1 24 45
M  V30 48 1 25 46
M  V30 49 1 25 47
M  V30 50 1 25 48
M  V30 51 1 26 49
M  V30 END BOND
M  V30 END CTAB
M  END
>  <NO.>
951

>  <Name>
schembl18653512

>  <SMILES>
CN(C)Cc1ccc(C(=O)Nc2cc(-c3ccccc3)ccc2N)cc1

>  <logBB>
0.88

>  <Class>
1

>  <MW>
345.18

>  <nHBAcc>
3

>  <nHBDon>
2

>  <SLogP>
4.25

>  <TopoPSA>
58.36

>  <MMFF94 Energy>
74.919

$$$$
COC(=O)C(c1ccccc1)C1CCCCN1
Actelion Java MolfileCreator 2.0

  0  0  0  0  0  0              0 V3000
M  V30 BEGIN CTAB
M  V30 COUNTS 36 37 0 0 0
M  V30 BEGIN ATOM
M  V30 1 O -0.8698 -0.3952 -2.136 0
M  V30 2 C -0.523 -1.1655 -1.2478 0
M  V30 3 O -0.7314 -2.5167 -1.2779 0
M  V30 4 C 0.2176 -0.7774 0.0303 0
M  V30 5 C -1.4496 -2.9711 -2.4247 0
M  V30 6 C -0.6521 -0.9615 1.2699 0
M  V30 7 C 0.8889 0.6306 -0.0426 0
M  V30 8 C -0.2372 -1.8278 2.2944 0
M  V30 9 C -1.8727 -0.2858 1.417 0
M  V30 10 N -0.0488 1.7288 -0.3546 0
M  V30 11 C 2.0621 0.6206 -1.0476 0
M  V30 12 C -1.024 -2.0128 3.433 0
M  V30 13 C -2.6571 -0.4714 2.5569 0
M  V30 14 C 0.6106 3.0331 -0.364 0
M  V30 15 C 2.7619 1.9757 -1.1115 0
M  V30 16 C -2.2335 -1.3349 3.5639 0
M  V30 17 C 1.7539 3.088 -1.3718 0
M  V30 18 H 1.0473 -1.4975 0.1002 0
M  V30 19 H -1.5816 -4.0528 -2.3351 0
M  V30 20 H -2.4387 -2.5044 -2.4685 0
M  V30 21 H -0.8819 -2.7656 -3.3374 0
M  V30 22 H 1.31 0.8335 0.9529 0
M  V30 23 H 0.7021 -2.3698 2.2144 0
M  V30 24 H -2.2213 0.4003 0.6471 0
M  V30 25 H -0.4621 1.5488 -1.2772 0
M  V30 26 H 2.7942 -0.1436 -0.7609 0
M  V30 27 H 1.7066 0.3587 -2.0516 0
M  V30 28 H -0.6922 -2.6866 4.2185 0
M  V30 29 H -3.5979 0.0632 2.6579 0
M  V30 30 H 0.9785 3.2686 0.6419 0
M  V30 31 H -0.13 3.8013 -0.612 0
M  V30 32 H 3.2801 2.1646 -0.1634 0
M  V30 33 H 3.5238 1.9675 -1.8985 0
M  V30 34 H -2.845 -1.4772 4.4508 0
M  V30 35 H 2.2533 4.0616 -1.3147 0
M  V30 36 H 1.3551 2.991 -2.3894 0
M  V30 END ATOM
M  V30 BEGIN BOND
M  V30 1 2 1 2
M  V30 2 1 2 3
M  V30 3 1 2 4
M  V30 4 1 3 5
M  V30 5 1 4 6
M  V30 6 1 4 7
M  V30 7 2 6 8
M  V30 8 1 6 9
M  V30 9 1 7 10
M  V30 10 1 7 11
M  V30 11 1 8 12
M  V30 12 2 9 13
M  V30 13 1 10 14
M  V30 14 1 11 15
M  V30 15 2 12 16
M  V30 16 1 14 17
M  V30 17 1 13 16
M  V30 18 1 15 17
M  V30 19 1 4 18
M  V30 20 1 5 19
M  V30 21 1 5 20
M  V30 22 1 5 21
M  V30 23 1 7 22
M  V30 24 1 8 23
M  V30 25 1 9 24
M  V30 26 1 10 25
M  V30 27 1 11 26
M  V30 28 1 11 27
M  V30 29 1 12 28
M  V30 30 1 13 29
M  V30 31 1 14 30
M  V30 32 1 14 31
M  V30 33 1 15 32
M  V30 34 1 15 33
M  V30 35 1 16 34
M  V30 36 1 17 35
M  V30 37 1 17 36
M  V30 END BOND
M  V30 END CTAB
M  END
>  <NO.>
952

>  <Name>
methylphenidate

>  <SMILES>
COC(=O)C(c1ccccc1)C1CCCCN1

>  <logBB>
0.88

>  <Class>
1

>  <MW>
233.14

>  <nHBAcc>
3

>  <nHBDon>
1

>  <SLogP>
2.09

>  <TopoPSA>
38.33

>  <MMFF94 Energy>
49.813

$$$$
FC(F)Oc1ccc(OC(F)(F)F)cc1CNC1CCCNC1c1ccccc1
Actelion Java MolfileCreator 2.0

  0  0  0  0  0  0              0 V3000
M  V30 BEGIN CTAB
M  V30 COUNTS 50 52 0 0 0
M  V30 BEGIN ATOM
M  V30 1 F 4.195 4.5991 -1.6119 0
M  V30 2 C 3.0598 5.0276 -2.204 0
M  V30 3 F 3.229 5.05 -3.5431 0
M  V30 4 F 2.8227 6.2922 -1.7899 0
M  V30 5 O 1.9556 4.217 -1.8408 0
M  V30 6 C 2.0044 2.8912 -2.1633 0
M  V30 7 C 0.8809 2.1583 -1.7588 0
M  V30 8 C 3.0367 2.2388 -2.8377 0
M  V30 9 C 0.773 0.7821 -2.0186 0
M  V30 10 C 2.9505 0.8677 -3.0928 0
M  V30 11 C 1.8375 0.1442 -2.6653 0
M  V30 12 C -0.4459 0.0196 -1.5589 0
M  V30 13 O 1.7699 -1.1931 -2.9457 0
M  V30 14 N -0.2004 -0.5599 -0.2345 0
M  V30 15 C 2.4442 -1.9323 -1.9336 0
M  V30 16 C -1.354 -1.3601 0.2438 0
M  V30 17 F 2.0208 -3.2199 -2.0244 0
M  V30 18 F 3.7713 -1.9451 -2.2248 0
M  V30 19 C -1.336 -1.5438 1.8069 0
M  V30 20 C -1.3369 -2.746 -0.4275 0
M  V30 21 N -2.4311 -2.4175 2.2683 0
M  V30 22 C -1.4134 -0.2054 2.5352 0
M  V30 23 C -2.4368 -3.6432 0.1338 0
M  V30 24 C -2.3567 -3.7393 1.6531 0
M  V30 25 C -0.3028 0.2744 3.2477 0
M  V30 26 C -2.577 0.5799 2.4955 0
M  V30 27 C -0.3537 1.5098 3.896 0
M  V30 28 C -2.6262 1.8139 3.1454 0
M  V30 29 C -1.5141 2.2791 3.8436 0
M  V30 30 H 0.0759 2.6715 -1.2345 0
M  V30 31 H 3.9255 2.7581 -3.1842 0
M  V30 32 H 3.7553 0.3651 -3.6248 0
M  V30 33 H -0.6842 -0.7483 -2.3024 0
M  V30 34 H -1.3086 0.6972 -1.5263 0
M  V30 35 H -0.0688 0.2228 0.4109 0
M  V30 36 H 2.2864 -1.5726 -0.9112 0
M  V30 37 H -2.2872 -0.8458 -0.026 0
M  V30 38 H -0.3871 -2.0255 2.0847 0
M  V30 39 H -1.4735 -2.6616 -1.511 0
M  V30 40 H -0.3639 -3.2283 -0.2658 0
M  V30 41 H -2.3628 -2.5098 3.282 0
M  V30 42 H -3.4171 -3.2482 -0.1615 0
M  V30 43 H -2.3519 -4.6446 -0.303 0
M  V30 44 H -3.1919 -4.3467 2.0184 0
M  V30 45 H -1.4341 -4.2489 1.9558 0
M  V30 46 H 0.6131 -0.3101 3.299 0
M  V30 47 H -3.4564 0.2236 1.9622 0
M  V30 48 H 0.5123 1.8714 4.4444 0
M  V30 49 H -3.5349 2.4091 3.1103 0
M  V30 50 H -1.5539 3.2392 4.3515 0
M  V30 END ATOM
M  V30 BEGIN BOND
M  V30 1 1 1 2
M  V30 2 1 2 3
M  V30 3 1 2 4
M  V30 4 1 2 5
M  V30 5 1 5 6
M  V30 6 2 6 7
M  V30 7 1 6 8
M  V30 8 1 7 9
M  V30 9 2 8 10
M  V30 10 2 9 11
M  V30 11 1 9 12
M  V30 12 1 11 13
M  V30 13 1 12 14
M  V30 14 1 13 15
M  V30 15 1 14 16
M  V30 16 1 15 17
M  V30 17 1 15 18
M  V30 18 1 16 19
M  V30 19 1 16 20
M  V30 20 1 19 21
M  V30 21 1 19 22
M  V30 22 1 20 23
M  V30 23 1 21 24
M  V30 24 2 22 25
M  V30 25 1 22 26
M  V30 26 1 25 27
M  V30 27 2 26 28
M  V30 28 2 27 29
M  V30 29 1 10 11
M  V30 30 1 23 24
M  V30 31 1 28 29
M  V30 32 1 7 30
M  V30 33 1 8 31
M  V30 34 1 10 32
M  V30 35 1 12 33
M  V30 36 1 12 34
M  V30 37 1 14 35
M  V30 38 1 15 36
M  V30 39 1 16 37
M  V30 40 1 19 38
M  V30 41 1 20 39
M  V30 42 1 20 40
M  V30 43 1 21 41
M  V30 44 1 23 42
M  V30 45 1 23 43
M  V30 46 1 24 44
M  V30 47 1 24 45
M  V30 48 1 25 46
M  V30 49 1 26 47
M  V30 50 1 27 48
M  V30 51 1 28 49
M  V30 52 1 29 50
M  V30 END BOND
M  V30 END CTAB
M  END
>  <NO.>
953

>  <Name>
145742-22-9

>  <SMILES>
FC(F)Oc1ccc(OC(F)(F)F)cc1CNC1CCCNC1c1ccccc1

>  <logBB>
0.88

>  <Class>
1

>  <MW>
416.15

>  <nHBAcc>
4

>  <nHBDon>
2

>  <SLogP>
4.77

>  <TopoPSA>
42.52

>  <MMFF94 Energy>
69.217

$$$$
COc1cc2c(cc1OC)C(=O)C(CC1CCN(Cc3ccccc3)CC1)C2
Actelion Java MolfileCreator 2.0

  0  0  0  0  0  0              0 V3000
M  V30 BEGIN CTAB
M  V30 COUNTS 57 60 0 0 0
M  V30 BEGIN ATOM
M  V30 1 O -2.5514 1.9131 0.9562 0
M  V30 2 C -1.7717 1.2949 1.6594 0
M  V30 3 C -1.3492 1.7517 2.9757 0
M  V30 4 C -1.0993 -0.0285 1.3333 0 CFG=2
M  V30 5 C -0.5173 0.7928 3.5295 0
M  V30 6 C -1.681 2.9303 3.6191 0
M  V30 7 C -0.3428 -0.3959 2.6393 0
M  V30 8 C -0.1312 0.0826 0.1458 0
M  V30 9 C 0.0234 0.9938 4.7905 0
M  V30 10 C -1.1412 3.1505 4.8893 0
M  V30 11 C -0.7795 0.3686 -1.2295 0
M  V30 12 C -0.2844 2.1791 5.4784 0
M  V30 13 O -1.3806 4.2736 5.6444 0
M  V30 14 C 0.2959 0.5038 -2.3215 0
M  V30 15 C -1.7938 -0.6905 -1.6807 0
M  V30 16 O 0.1927 2.4887 6.7297 0
M  V30 17 C -2.2349 5.2665 5.0929 0
M  V30 18 C 0.905 -0.8422 -2.7284 0
M  V30 19 C -1.1255 -2.0071 -2.0812 0
M  V30 20 C 1.0604 1.556 7.3571 0
M  V30 21 N -0.1316 -1.7997 -3.1433 0
M  V30 22 C 0.4538 -3.0909 -3.549 0
M  V30 23 C 1.2687 -3.0161 -4.8237 0
M  V30 24 C 0.701 -2.5126 -6.0041 0
M  V30 25 C 2.5937 -3.4746 -4.8526 0
M  V30 26 C 1.4446 -2.4592 -7.1838 0
M  V30 27 C 3.3361 -3.4212 -6.0341 0
M  V30 28 C 2.7618 -2.9135 -7.1984 0
M  V30 29 H -1.8687 -0.7866 1.1564 0
M  V30 30 H -2.3382 3.6331 3.1213 0
M  V30 31 H 0.7184 -0.6006 2.4644 0
M  V30 32 H -0.7993 -1.2775 3.1036 0
M  V30 33 H 0.5909 0.8843 0.3533 0
M  V30 34 H 0.4506 -0.8448 0.0928 0
M  V30 35 H 0.6669 0.2318 5.2146 0
M  V30 36 H -1.2976 1.3326 -1.1649 0
M  V30 37 H 1.0911 1.1831 -1.9916 0
M  V30 38 H -0.1576 0.9675 -3.2081 0
M  V30 39 H -2.5481 -0.8751 -0.9096 0
M  V30 40 H -2.3451 -0.3 -2.5474 0
M  V30 41 H -1.8126 5.6843 4.1731 0
M  V30 42 H -2.3154 6.08 5.8206 0
M  V30 43 H -3.2421 4.8715 4.9236 0
M  V30 44 H 1.5967 -0.6471 -3.5562 0
M  V30 45 H 1.504 -1.2481 -1.9037 0
M  V30 46 H -1.911 -2.6832 -2.4411 0
M  V30 47 H -0.6709 -2.4827 -1.2029 0
M  V30 48 H 0.5534 0.6016 7.5331 0
M  V30 49 H 1.3439 1.9657 8.3316 0
M  V30 50 H 1.9779 1.4166 6.7759 0
M  V30 51 H 1.0581 -3.5085 -2.7325 0
M  V30 52 H -0.3467 -3.8181 -3.7419 0
M  V30 53 H -0.3252 -2.1501 -5.9988 0
M  V30 54 H 3.0574 -3.8747 -3.9542 0
M  V30 55 H 0.9949 -2.0608 -8.0894 0
M  V30 56 H 4.3633 -3.776 -6.0465 0
M  V30 57 H 3.3406 -2.8711 -8.117 0
M  V30 END ATOM
M  V30 BEGIN BOND
M  V30 1 2 1 2
M  V30 2 1 2 3
M  V30 3 1 2 4
M  V30 4 2 3 5
M  V30 5 1 3 6
M  V30 6 1 4 7
M  V30 7 1 4 8
M  V30 8 1 5 9
M  V30 9 2 6 10
M  V30 10 1 8 11
M  V30 11 2 9 12
M  V30 12 1 10 13
M  V30 13 1 11 14
M  V30 14 1 11 15
M  V30 15 1 12 16
M  V30 16 1 13 17
M  V30 17 1 14 18
M  V30 18 1 15 19
M  V30 19 1 16 20
M  V30 20 1 18 21
M  V30 21 1 21 22
M  V30 22 1 22 23
M  V30 23 2 23 24
M  V30 24 1 23 25
M  V30 25 1 24 26
M  V30 26 2 25 27
M  V30 27 2 26 28
M  V30 28 1 5 7
M  V30 29 1 10 12
M  V30 30 1 19 21
M  V30 31 1 27 28
M  V30 32 1 4 29
M  V30 33 1 6 30
M  V30 34 1 7 31
M  V30 35 1 7 32
M  V30 36 1 8 33
M  V30 37 1 8 34
M  V30 38 1 9 35
M  V30 39 1 11 36
M  V30 40 1 14 37
M  V30 41 1 14 38
M  V30 42 1 15 39
M  V30 43 1 15 40
M  V30 44 1 17 41
M  V30 45 1 17 42
M  V30 46 1 17 43
M  V30 47 1 18 44
M  V30 48 1 18 45
M  V30 49 1 19 46
M  V30 50 1 19 47
M  V30 51 1 20 48
M  V30 52 1 20 49
M  V30 53 1 20 50
M  V30 54 1 22 51
M  V30 55 1 22 52
M  V30 56 1 24 53
M  V30 57 1 25 54
M  V30 58 1 26 55
M  V30 59 1 27 56
M  V30 60 1 28 57
M  V30 END BOND
M  V30 BEGIN COLLECTION
M  V30 MDLV30/STERAC1 ATOMS=(1 4)
M  V30 END COLLECTION
M  V30 END CTAB
M  END
>  <NO.>
954

>  <Name>
donepezil

>  <SMILES>
COc1cc2c(cc1OC)C(=O)C(CC1CCN(Cc3ccccc3)CC1)C2

>  <logBB>
0.89

>  <Class>
1

>  <MW>
379.21

>  <nHBAcc>
4

>  <nHBDon>
0

>  <SLogP>
4.36

>  <TopoPSA>
38.77

>  <MMFF94 Energy>
85.805

$$$$
Fc1ccc(Cn2c([C@H]3CNCCS3)nc3ccccc32)cc1
Actelion Java MolfileCreator 2.0

  0  0  0  0  0  0              0 V3000
M  V30 BEGIN CTAB
M  V30 COUNTS 41 44 0 0 0
M  V30 BEGIN ATOM
M  V30 1 S -2.7705 -0.6513 0.8142 0
M  V30 2 C -1.1669 0.1978 1.1153 0 CFG=1
M  V30 3 C -3.0931 -1.2131 2.5155 0
M  V30 4 C -0.725 0.9323 -0.1245 0
M  V30 5 C -1.2668 1.1547 2.3311 0
M  V30 6 C -2.9571 -0.088 3.5456 0
M  V30 7 N -0.798 2.2407 -0.2977 0
M  V30 8 N -0.1484 0.3345 -1.2335 0
M  V30 9 N -1.6161 0.5038 3.6124 0
M  V30 10 C -0.2699 2.4972 -1.5334 0
M  V30 11 C 0.1504 1.3241 -2.1489 0
M  V30 12 C 0.0693 -1.0905 -1.4466 0
M  V30 13 C -0.1142 3.7239 -2.1953 0
M  V30 14 C 0.7349 1.3148 -3.4233 0
M  V30 15 C 1.1988 -1.6505 -0.6121 0
M  V30 16 C 0.466 3.7355 -3.4683 0
M  V30 17 C 0.8834 2.548 -4.0696 0
M  V30 18 C 2.4559 -1.0237 -0.5586 0
M  V30 19 C 1.0113 -2.8537 0.0911 0
M  V30 20 C 3.4891 -1.572 0.2036 0
M  V30 21 C 2.0468 -3.3997 0.8512 0
M  V30 22 C 3.2748 -2.7528 0.9025 0
M  V30 23 F 4.267 -3.2781 1.6324 0
M  V30 24 H -0.4305 -0.574 1.3587 0
M  V30 25 H -2.4033 -2.032 2.747 0
M  V30 26 H -4.1078 -1.6225 2.5501 0
M  V30 27 H -1.9776 1.9692 2.1355 0
M  V30 28 H -0.2942 1.6421 2.4767 0
M  V30 29 H -3.7038 0.695 3.3625 0
M  V30 30 H -3.1886 -0.4977 4.5358 0
M  V30 31 H -0.9289 -0.2202 3.8188 0
M  V30 32 H -0.8774 -1.5964 -1.2349 0
M  V30 33 H 0.2859 -1.2652 -2.5053 0
M  V30 34 H -0.4419 4.6414 -1.719 0
M  V30 35 H 1.0651 0.4 -3.9027 0
M  V30 36 H 0.5906 4.6808 -3.9909 0
M  V30 37 H 1.3318 2.5805 -5.0606 0
M  V30 38 H 2.6431 -0.1005 -1.105 0
M  V30 39 H 0.0555 -3.3739 0.0538 0
M  V30 40 H 4.4587 -1.0861 0.2539 0
M  V30 41 H 1.906 -4.326 1.3994 0
M  V30 END ATOM
M  V30 BEGIN BOND
M  V30 1 1 1 2
M  V30 2 1 1 3
M  V30 3 1 2 4
M  V30 4 1 2 5
M  V30 5 1 3 6
M  V30 6 2 4 7
M  V30 7 1 4 8
M  V30 8 1 5 9
M  V30 9 1 7 10
M  V30 10 1 8 11
M  V30 11 1 8 12
M  V30 12 1 10 13
M  V30 13 1 11 14
M  V30 14 1 12 15
M  V30 15 2 13 16
M  V30 16 2 14 17
M  V30 17 2 15 18
M  V30 18 1 15 19
M  V30 19 1 18 20
M  V30 20 2 19 21
M  V30 21 2 20 22
M  V30 22 1 22 23
M  V30 23 1 6 9
M  V30 24 2 10 11
M  V30 25 1 16 17
M  V30 26 1 21 22
M  V30 27 1 2 24
M  V30 28 1 3 25
M  V30 29 1 3 26
M  V30 30 1 5 27
M  V30 31 1 5 28
M  V30 32 1 6 29
M  V30 33 1 6 30
M  V30 34 1 9 31
M  V30 35 1 12 32
M  V30 36 1 12 33
M  V30 37 1 13 34
M  V30 38 1 14 35
M  V30 39 1 16 36
M  V30 40 1 17 37
M  V30 41 1 18 38
M  V30 42 1 19 39
M  V30 43 1 20 40
M  V30 44 1 21 41
M  V30 END BOND
M  V30 BEGIN COLLECTION
M  V30 MDLV30/STEABS ATOMS=(1 2)
M  V30 END COLLECTION
M  V30 END CTAB
M  END
>  <NO.>
956

>  <Name>
chembl1935446

>  <SMILES>
Fc1ccc(Cn2c([C@H]3CNCCS3)nc3ccccc32)cc1

>  <logBB>
0.89

>  <Class>
1

>  <MW>
327.12

>  <nHBAcc>
3

>  <nHBDon>
1

>  <SLogP>
3.6

>  <TopoPSA>
29.85

>  <MMFF94 Energy>
106.49

$$$$
CCC(=O)C(CC(C)N(C)C)(c1ccccc1)c1ccccc1
Actelion Java MolfileCreator 2.0

  0  0  0  0  0  0              0 V3000
M  V30 BEGIN CTAB
M  V30 COUNTS 50 51 0 0 0
M  V30 BEGIN ATOM
M  V30 1 O 0.0 2.6841 -0.4732 0
M  V30 2 C 0.7255 1.7198 -0.2153 0
M  V30 3 C 0.3304 0.2142 -0.5024 0
M  V30 4 C 2.1314 1.9763 0.3454 0
M  V30 5 C -1.1574 -0.0394 -0.9004 0
M  V30 6 C 1.2339 -0.1925 -1.7223 0
M  V30 7 C 0.6543 -0.6337 0.7854 0
M  V30 8 C 2.5435 3.4357 0.2352 0
M  V30 9 C -2.2035 0.8519 -0.6104 0
M  V30 10 C -1.5127 -1.2475 -1.544 0
M  V30 11 C 2.1364 -1.2706 -1.6988 0
M  V30 12 C 1.1344 0.5529 -2.9177 0
M  V30 13 C 0.0174 -0.1939 2.1403 0 CFG=1
M  V30 14 C -3.5259 0.5726 -0.9754 0
M  V30 15 C -2.8326 -1.5273 -1.9098 0
M  V30 16 C 2.9181 -1.5769 -2.8171 0
M  V30 17 C 1.9161 0.244 -4.0318 0
M  V30 18 N -1.4394 -0.3657 2.1899 0
M  V30 19 C 0.756 -0.8997 3.2926 0
M  V30 20 C -3.84 -0.613 -1.6293 0
M  V30 21 C 2.8105 -0.8193 -3.98 0
M  V30 22 C -2.0785 0.4572 3.2152 0
M  V30 23 C -1.9106 -1.7453 2.2739 0
M  V30 24 H 2.8577 1.3719 -0.2047 0
M  V30 25 H 2.1585 1.6805 1.3971 0
M  V30 26 H 0.419 -1.6908 0.6046 0
M  V30 27 H 1.742 -0.614 0.941 0
M  V30 28 H 3.5594 3.574 0.6177 0
M  V30 29 H 1.8722 4.0798 0.8126 0
M  V30 30 H 2.5205 3.7724 -0.8064 0
M  V30 31 H -2.0269 1.7744 -0.065 0
M  V30 32 H -0.7558 -1.9941 -1.7745 0
M  V30 33 H 2.2498 -1.9035 -0.8237 0
M  V30 34 H 0.4303 1.3828 -2.9908 0
M  V30 35 H 0.2252 0.8761 2.2537 0
M  V30 36 H -4.3097 1.2861 -0.7349 0
M  V30 37 H -3.0689 -2.4607 -2.413 0
M  V30 38 H 3.6102 -2.4146 -2.7809 0
M  V30 39 H 1.8191 0.8326 -4.9404 0
M  V30 40 H 0.6975 -1.9898 3.2074 0
M  V30 41 H 1.8174 -0.6266 3.2873 0
M  V30 42 H 0.3577 -0.608 4.2693 0
M  V30 43 H -4.8671 -0.8258 -1.9101 0
M  V30 44 H 3.4172 -1.0626 -4.8479 0
M  V30 45 H -1.8196 0.1394 4.2305 0
M  V30 46 H -3.1691 0.4157 3.1144 0
M  V30 47 H -1.8002 1.5106 3.0996 0
M  V30 48 H -1.4849 -2.371 1.4845 0
M  V30 49 H -2.9974 -1.7818 2.1356 0
M  V30 50 H -1.682 -2.2067 3.2407 0
M  V30 END ATOM
M  V30 BEGIN BOND
M  V30 1 2 1 2
M  V30 2 1 2 3
M  V30 3 1 2 4
M  V30 4 1 3 5
M  V30 5 1 3 6
M  V30 6 1 3 7
M  V30 7 1 4 8
M  V30 8 2 5 9
M  V30 9 1 5 10
M  V30 10 2 6 11
M  V30 11 1 6 12
M  V30 12 1 7 13
M  V30 13 1 9 14
M  V30 14 2 10 15
M  V30 15 1 11 16
M  V30 16 2 12 17
M  V30 17 1 13 18
M  V30 18 1 13 19
M  V30 19 2 14 20
M  V30 20 2 16 21
M  V30 21 1 18 22
M  V30 22 1 18 23
M  V30 23 1 15 20
M  V30 24 1 17 21
M  V30 25 1 4 24
M  V30 26 1 4 25
M  V30 27 1 7 26
M  V30 28 1 7 27
M  V30 29 1 8 28
M  V30 30 1 8 29
M  V30 31 1 8 30
M  V30 32 1 9 31
M  V30 33 1 10 32
M  V30 34 1 11 33
M  V30 35 1 12 34
M  V30 36 1 13 35
M  V30 37 1 14 36
M  V30 38 1 15 37
M  V30 39 1 16 38
M  V30 40 1 17 39
M  V30 41 1 19 40
M  V30 42 1 19 41
M  V30 43 1 19 42
M  V30 44 1 20 43
M  V30 45 1 21 44
M  V30 46 1 22 45
M  V30 47 1 22 46
M  V30 48 1 22 47
M  V30 49 1 23 48
M  V30 50 1 23 49
M  V30 51 1 23 50
M  V30 END BOND
M  V30 BEGIN COLLECTION
M  V30 MDLV30/STERAC1 ATOMS=(1 13)
M  V30 END COLLECTION
M  V30 END CTAB
M  END
>  <NO.>
957

>  <Name>
methadone

>  <SMILES>
CCC(=O)C(CC(C)N(C)C)(c1ccccc1)c1ccccc1

>  <logBB>
0.9

>  <Class>
1

>  <MW>
309.21

>  <nHBAcc>
2

>  <nHBDon>
0

>  <SLogP>
4.29

>  <TopoPSA>
20.31

>  <MMFF94 Energy>
101.34

$$$$
CN(C)CCC=C1c2ccccc2CCc2ccccc21
Actelion Java MolfileCreator 2.0

  0  0  0  0  0  0              0 V3000
M  V30 BEGIN CTAB
M  V30 COUNTS 44 46 0 0 0
M  V30 BEGIN ATOM
M  V30 1 N -0.9506 -3.5686 0.4752 0
M  V30 2 C -0.1778 -2.7152 -0.4526 0
M  V30 3 C -2.0289 -4.2395 -0.2582 0
M  V30 4 C -1.5204 -2.8035 1.585 0
M  V30 5 C 1.1437 -2.1569 0.1126 0
M  V30 6 C 1.0242 -0.8427 0.8459 0
M  V30 7 C 0.9652 0.406 0.3273 0
M  V30 8 C 0.7637 1.5385 1.2729 0
M  V30 9 C 0.945 0.5992 -1.138 0
M  V30 10 C -0.2638 2.4934 1.1159 0
M  V30 11 C 1.6682 1.6791 2.3465 0
M  V30 12 C -0.2464 1.0187 -1.7525 0
M  V30 13 C 2.0942 0.3977 -1.9126 0
M  V30 14 C -0.3554 3.5458 2.0539 0
M  V30 15 C -1.2765 2.5301 -0.0168 0
M  V30 16 C 1.5528 2.7224 3.2648 0
M  V30 17 C -0.2793 1.1974 -3.1424 0
M  V30 18 C -1.4641 1.2971 -0.9064 0
M  V30 19 C 2.052 0.58 -3.2949 0
M  V30 20 C 0.5368 3.6558 3.1197 0
M  V30 21 C 0.865 0.9743 -3.909 0
M  V30 22 H -0.8051 -1.9118 -0.8576 0
M  V30 23 H 0.1089 -3.34 -1.3096 0
M  V30 24 H -1.6208 -4.8626 -1.0618 0
M  V30 25 H -2.7359 -3.5263 -0.6978 0
M  V30 26 H -2.5845 -4.9137 0.4035 0
M  V30 27 H -2.1127 -1.948 1.2408 0
M  V30 28 H -0.7378 -2.4468 2.2593 0
M  V30 29 H -2.1683 -3.4393 2.2001 0
M  V30 30 H 1.605 -2.8934 0.7835 0
M  V30 31 H 1.8592 -2.0534 -0.7108 0
M  V30 32 H 0.9672 -0.9618 1.9273 0
M  V30 33 H 2.4866 0.9718 2.467 0
M  V30 34 H 3.0263 0.0988 -1.4396 0
M  V30 35 H -1.1337 4.3002 1.9482 0
M  V30 36 H -2.2573 2.7425 0.4306 0
M  V30 37 H -1.0246 3.3906 -0.652 0
M  V30 38 H 2.2614 2.8071 4.084 0
M  V30 39 H -1.193 1.5204 -3.6356 0
M  V30 40 H -1.7196 0.4136 -0.3084 0
M  V30 41 H -2.3277 1.4705 -1.5613 0
M  V30 42 H 2.9461 0.4179 -3.8909 0
M  V30 43 H 0.443 4.4761 3.8262 0
M  V30 44 H 0.8332 1.1185 -4.9858 0
M  V30 END ATOM
M  V30 BEGIN BOND
M  V30 1 1 1 2
M  V30 2 1 1 3
M  V30 3 1 1 4
M  V30 4 1 2 5
M  V30 5 1 5 6
M  V30 6 2 6 7
M  V30 7 1 7 8
M  V30 8 1 7 9
M  V30 9 2 8 10
M  V30 10 1 8 11
M  V30 11 2 9 12
M  V30 12 1 9 13
M  V30 13 1 10 14
M  V30 14 1 10 15
M  V30 15 2 11 16
M  V30 16 1 12 17
M  V30 17 1 12 18
M  V30 18 2 13 19
M  V30 19 2 14 20
M  V30 20 2 17 21
M  V30 21 1 15 18
M  V30 22 1 16 20
M  V30 23 1 19 21
M  V30 24 1 2 22
M  V30 25 1 2 23
M  V30 26 1 3 24
M  V30 27 1 3 25
M  V30 28 1 3 26
M  V30 29 1 4 27
M  V30 30 1 4 28
M  V30 31 1 4 29
M  V30 32 1 5 30
M  V30 33 1 5 31
M  V30 34 1 6 32
M  V30 35 1 11 33
M  V30 36 1 13 34
M  V30 37 1 14 35
M  V30 38 1 15 36
M  V30 39 1 15 37
M  V30 40 1 16 38
M  V30 41 1 17 39
M  V30 42 1 18 40
M  V30 43 1 18 41
M  V30 44 1 19 42
M  V30 45 1 20 43
M  V30 46 1 21 44
M  V30 END BOND
M  V30 END CTAB
M  END
>  <NO.>
958

>  <Name>
50-48-6

>  <SMILES>
CN(C)CCC=C1c2ccccc2CCc2ccccc21

>  <logBB>
0.9

>  <Class>
1

>  <MW>
277.18

>  <nHBAcc>
1

>  <nHBDon>
0

>  <SLogP>
4.17

>  <TopoPSA>
3.24

>  <MMFF94 Energy>
83.768

$$$$
CCCC(C)CC
Actelion Java MolfileCreator 2.0

  0  0  0  0  0  0              0 V3000
M  V30 BEGIN CTAB
M  V30 COUNTS 23 22 0 0 0
M  V30 BEGIN ATOM
M  V30 1 C 0.1518 0.6075 0.1518 0 CFG=2
M  V30 2 C -0.4778 -0.795 0.0023 0
M  V30 3 C 0.0747 1.0378 1.6321 0
M  V30 4 C 1.5923 0.6386 -0.368 0
M  V30 5 C -0.6251 -1.2535 -1.4508 0
M  V30 6 C 0.5054 2.4772 1.8788 0
M  V30 7 C -1.3794 -2.5718 -1.5419 0
M  V30 8 H -0.4415 1.315 -0.4419 0
M  V30 9 H 0.1187 -1.5299 0.5579 0
M  V30 10 H -1.4735 -0.7859 0.4649 0
M  V30 11 H -0.9598 0.9332 1.9825 0
M  V30 12 H 0.6855 0.3689 2.2507 0
M  V30 13 H 2.2284 -0.0573 0.1888 0
M  V30 14 H 1.6412 0.3707 -1.4275 0
M  V30 15 H 2.0268 1.639 -0.2821 0
M  V30 16 H -1.1612 -0.4927 -2.0297 0
M  V30 17 H 0.3587 -1.3853 -1.9127 0
M  V30 18 H -0.0481 3.1694 1.2366 0
M  V30 19 H 1.5754 2.615 1.6997 0
M  V30 20 H 0.3098 2.7526 2.9205 0
M  V30 21 H -1.4691 -2.8855 -2.5866 0
M  V30 22 H -0.8561 -3.3615 -0.9932 0
M  V30 23 H -2.3887 -2.4764 -1.1286 0
M  V30 END ATOM
M  V30 BEGIN BOND
M  V30 1 1 1 2
M  V30 2 1 1 3
M  V30 3 1 1 4
M  V30 4 1 2 5
M  V30 5 1 3 6
M  V30 6 1 5 7
M  V30 7 1 1 8
M  V30 8 1 2 9
M  V30 9 1 2 10
M  V30 10 1 3 11
M  V30 11 1 3 12
M  V30 12 1 4 13
M  V30 13 1 4 14
M  V30 14 1 4 15
M  V30 15 1 5 16
M  V30 16 1 5 17
M  V30 17 1 6 18
M  V30 18 1 6 19
M  V30 19 1 6 20
M  V30 20 1 7 21
M  V30 21 1 7 22
M  V30 22 1 7 23
M  V30 END BOND
M  V30 BEGIN COLLECTION
M  V30 MDLV30/STERAC1 ATOMS=(1 1)
M  V30 END COLLECTION
M  V30 END CTAB
M  END
>  <NO.>
959

>  <Name>
3-methylhexane (2- ethylpentane)

>  <SMILES>
CCCC(C)CC

>  <logBB>
0.9

>  <Class>
1

>  <MW>
100.13

>  <nHBAcc>
0

>  <nHBDon>
0

>  <SLogP>
2.83

>  <TopoPSA>
0

>  <MMFF94 Energy>
1.2944

$$$$
C=C([CH]CC)CC
Actelion Java MolfileCreator 2.0

  0  0  0  0  0  0              0 V3000
M  V30 BEGIN CTAB
M  V30 COUNTS 20 19 0 0 0
M  V30 BEGIN ATOM
M  V30 1 C -0.3034 -0.5311 0.4552 0
M  V30 2 C 0.0676 -1.7816 0.1398 0
M  V30 3 C 0.0175 0.6222 -0.3626 0 RAD=2
M  V30 4 C -1.1426 -0.2592 1.6866 0
M  V30 5 C 1.0253 0.6368 -1.4691 0
M  V30 6 C -0.347 0.413 2.7986 0
M  V30 7 C 0.381 0.3933 -2.8246 0
M  V30 8 H 0.6449 -2.0167 -0.7473 0
M  V30 9 H -0.2043 -2.6236 0.7692 0
M  V30 10 H -0.5669 1.5265 -0.2119 0
M  V30 11 H -2.0052 0.3644 1.4204 0
M  V30 12 H -1.5604 -1.1957 2.0777 0
M  V30 13 H 1.5087 1.6209 -1.4785 0
M  V30 14 H 1.824 -0.0915 -1.2939 0
M  V30 15 H -0.9818 0.5611 3.6782 0
M  V30 16 H 0.5084 -0.201 3.099 0
M  V30 17 H 0.028 1.3936 2.488 0
M  V30 18 H -0.3854 1.1457 -3.0396 0
M  V30 19 H 1.1357 0.4455 -3.6157 0
M  V30 20 H -0.0893 -0.5942 -2.8719 0
M  V30 END ATOM
M  V30 BEGIN BOND
M  V30 1 2 1 2
M  V30 2 1 1 3
M  V30 3 1 1 4
M  V30 4 1 3 5
M  V30 5 1 4 6
M  V30 6 1 5 7
M  V30 7 1 2 8
M  V30 8 1 2 9
M  V30 9 1 3 10
M  V30 10 1 4 11
M  V30 11 1 4 12
M  V30 12 1 5 13
M  V30 13 1 5 14
M  V30 14 1 6 15
M  V30 15 1 6 16
M  V30 16 1 6 17
M  V30 17 1 7 18
M  V30 18 1 7 19
M  V30 19 1 7 20
M  V30 END BOND
M  V30 END CTAB
M  END
>  <NO.>
960

>  <Name>
3-methylhexane

>  <SMILES>
C=C([CH]CC)CC

>  <logBB>
0.9

>  <Class>
1

>  <MW>
97.1

>  <nHBAcc>
0

>  <nHBDon>
0

>  <SLogP>
2.57

>  <TopoPSA>
0

>  <MMFF94 Energy>
4.1563

$$$$
C1CCCCC1
Actelion Java MolfileCreator 2.0

  0  0  0  0  0  0              0 V3000
M  V30 BEGIN CTAB
M  V30 COUNTS 18 18 0 0 0
M  V30 BEGIN ATOM
M  V30 1 C 0.0774 -1.473 0.2324 0
M  V30 2 C -1.2225 -0.7139 0.4845 0
M  V30 3 C 0.9348 -0.7847 -0.8261 0
M  V30 4 C -0.9614 0.7485 0.8355 0
M  V30 5 C 1.1959 0.6777 -0.4752 0
M  V30 6 C -0.1041 1.4368 -0.2231 0
M  V30 7 H 0.644 -1.5461 1.169 0
M  V30 8 H -0.1489 -2.4972 -0.0847 0
M  V30 9 H -1.8546 -0.7664 -0.4105 0
M  V30 10 H -1.7789 -1.1945 1.2972 0
M  V30 11 H 1.8881 -1.3149 -0.9307 0
M  V30 12 H 0.4289 -0.8413 -1.7979 0
M  V30 13 H -1.9148 1.2788 0.9401 0
M  V30 14 H -0.4556 0.8052 1.8073 0
M  V30 15 H 1.8279 0.7303 0.4199 0
M  V30 16 H 1.7522 1.1584 -1.2877 0
M  V30 17 H -0.6707 1.51 -1.1596 0
M  V30 18 H 0.1222 2.461 0.0942 0
M  V30 END ATOM
M  V30 BEGIN BOND
M  V30 1 1 1 2
M  V30 2 1 1 3
M  V30 3 1 2 4
M  V30 4 1 3 5
M  V30 5 1 4 6
M  V30 6 1 5 6
M  V30 7 1 1 7
M  V30 8 1 1 8
M  V30 9 1 2 9
M  V30 10 1 2 10
M  V30 11 1 3 11
M  V30 12 1 3 12
M  V30 13 1 4 13
M  V30 14 1 4 14
M  V30 15 1 5 15
M  V30 16 1 5 16
M  V30 17 1 6 17
M  V30 18 1 6 18
M  V30 END BOND
M  V30 END CTAB
M  END
>  <NO.>
961

>  <Name>
cyclohexane

>  <SMILES>
C1CCCCC1

>  <logBB>
0.9

>  <Class>
1

>  <MW>
84.09

>  <nHBAcc>
0

>  <nHBDon>
0

>  <SLogP>
2.34

>  <TopoPSA>
0

>  <MMFF94 Energy>
-3.5609

$$$$
CC1CCCC1
Actelion Java MolfileCreator 2.0

  0  0  0  0  0  0              0 V3000
M  V30 BEGIN CTAB
M  V30 COUNTS 18 18 0 0 0
M  V30 BEGIN ATOM
M  V30 1 C 0.0774 0.6969 0.4646 0
M  V30 2 C 1.1876 -0.089 -0.2254 0
M  V30 3 C -1.1503 -0.1662 0.192 0
M  V30 4 C 0.3341 0.9225 1.9443 0
M  V30 5 C 0.5431 -0.583 -1.5166 0
M  V30 6 C -0.9619 -0.6327 -1.2478 0
M  V30 7 H -0.0434 1.6686 -0.0322 0
M  V30 8 H 2.0744 0.5226 -0.4178 0
M  V30 9 H 1.4969 -0.9466 0.3848 0
M  V30 10 H -1.1741 -1.0348 0.8618 0
M  V30 11 H -2.0862 0.3853 0.3251 0
M  V30 12 H 0.461 -0.0244 2.4798 0
M  V30 13 H 1.2416 1.5171 2.0919 0
M  V30 14 H -0.5023 1.4595 2.4033 0
M  V30 15 H 0.9373 -1.5613 -1.8095 0
M  V30 16 H 0.7502 0.1134 -2.3373 0
M  V30 17 H -1.4841 0.0397 -1.9382 0
M  V30 18 H -1.3699 -1.6374 -1.3975 0
M  V30 END ATOM
M  V30 BEGIN BOND
M  V30 1 1 1 2
M  V30 2 1 1 3
M  V30 3 1 1 4
M  V30 4 1 2 5
M  V30 5 1 3 6
M  V30 6 1 5 6
M  V30 7 1 1 7
M  V30 8 1 2 8
M  V30 9 1 2 9
M  V30 10 1 3 10
M  V30 11 1 3 11
M  V30 12 1 4 12
M  V30 13 1 4 13
M  V30 14 1 4 14
M  V30 15 1 5 15
M  V30 16 1 5 16
M  V30 17 1 6 17
M  V30 18 1 6 18
M  V30 END BOND
M  V30 END CTAB
M  END
>  <NO.>
962

>  <Name>
methylcyclopentane

>  <SMILES>
CC1CCCC1

>  <logBB>
0.9

>  <Class>
1

>  <MW>
84.09

>  <nHBAcc>
0

>  <nHBDon>
0

>  <SLogP>
2.2

>  <TopoPSA>
0

>  <MMFF94 Energy>
5.6213

$$$$
CCC(=O)NC1CCC(CCN2CCN(c3cccc(Cl)c3Cl)CC2)CC1
Actelion Java MolfileCreator 2.0

  0  0  0  0  0  0              0 V3000
M  V30 BEGIN CTAB
M  V30 COUNTS 58 60 0 0 0
M  V30 BEGIN ATOM
M  V30 1 Cl -3.8562 4.983 3.0518 0
M  V30 2 C -3.5244 3.6969 4.1807 0
M  V30 3 C -3.9489 3.8086 5.516 0
M  V30 4 C -2.8672 2.5232 3.7326 0
M  V30 5 Cl -4.7557 5.2141 6.126 0
M  V30 6 C -3.7303 2.7625 6.4149 0
M  V30 7 N -2.4112 2.3869 2.421 0
M  V30 8 C -2.6681 1.4879 4.6637 0
M  V30 9 C -3.0927 1.6027 5.9887 0
M  V30 10 C -1.1698 3.1004 2.079 0
M  V30 11 C -2.5972 1.1162 1.7087 0
M  V30 12 C -1.0417 3.2536 0.5465 0
M  V30 13 C -2.4356 1.3224 0.1833 0
M  V30 14 N -1.1469 1.9619 -0.1787 0
M  V30 15 C -1.0296 2.187 -1.6255 0
M  V30 16 C -0.8802 0.9191 -2.4845 0
M  V30 17 C 0.4609 0.1647 -2.3414 0
M  V30 18 C 0.6225 -0.5431 -0.9867 0
M  V30 19 C 0.5843 -0.8556 -3.4898 0
M  V30 20 C 1.9063 -1.3689 -0.9134 0
M  V30 21 C 1.8727 -1.6688 -3.4102 0
M  V30 22 C 2.0056 -2.376 -2.0594 0
M  V30 23 N 3.2635 -3.1043 -1.9859 0
M  V30 24 C 3.3946 -4.3912 -2.4648 0
M  V30 25 O 2.4725 -5.0267 -2.9621 0
M  V30 26 C 4.8028 -4.9312 -2.3093 0
M  V30 27 C 4.9419 -6.3499 -2.8299 0
M  V30 28 H -4.0577 2.8463 7.4484 0
M  V30 29 H -2.1535 0.5776 4.366 0
M  V30 30 H -2.9194 0.7872 6.6869 0
M  V30 31 H -1.1343 4.0975 2.5324 0
M  V30 32 H -0.3103 2.5381 2.4665 0
M  V30 33 H -1.8627 0.3775 2.0527 0
M  V30 34 H -3.5998 0.7146 1.9 0
M  V30 35 H -0.0684 3.7124 0.3348 0
M  V30 36 H -1.8164 3.9476 0.193 0
M  V30 37 H -3.2739 1.9299 -0.1834 0
M  V30 38 H -2.514 0.3364 -0.2856 0
M  V30 39 H -0.1502 2.8138 -1.8231 0
M  V30 40 H -1.8977 2.7539 -1.9878 0
M  V30 41 H -1.7178 0.2322 -2.3185 0
M  V30 42 H -0.9741 1.2443 -3.5299 0
M  V30 43 H 1.2775 0.8914 -2.4497 0
M  V30 44 H -0.2394 -1.1963 -0.8024 0
M  V30 45 H 0.6551 0.1855 -0.1721 0
M  V30 46 H -0.274 -1.5396 -3.4716 0
M  V30 47 H 0.5534 -0.3353 -4.4548 0
M  V30 48 H 2.7713 -0.6928 -0.9324 0
M  V30 49 H 1.9473 -1.8938 0.0489 0
M  V30 50 H 2.7334 -1.0069 -3.5731 0
M  V30 51 H 1.8895 -2.4029 -4.2247 0
M  V30 52 H 1.1884 -3.1024 -1.9608 0
M  V30 53 H 4.0848 -2.6226 -1.6437 0
M  V30 54 H 5.0709 -4.9004 -1.2472 0
M  V30 55 H 5.4891 -4.271 -2.8514 0
M  V30 56 H 5.969 -6.7045 -2.7006 0
M  V30 57 H 4.6925 -6.4041 -3.8947 0
M  V30 58 H 4.274 -7.0325 -2.2941 0
M  V30 END ATOM
M  V30 BEGIN BOND
M  V30 1 1 1 2
M  V30 2 2 2 3
M  V30 3 1 2 4
M  V30 4 1 3 5
M  V30 5 1 3 6
M  V30 6 1 4 7
M  V30 7 2 4 8
M  V30 8 2 6 9
M  V30 9 1 7 10
M  V30 10 1 7 11
M  V30 11 1 10 12
M  V30 12 1 11 13
M  V30 13 1 12 14
M  V30 14 1 14 15
M  V30 15 1 15 16
M  V30 16 1 16 17
M  V30 17 1 17 18
M  V30 18 1 17 19
M  V30 19 1 18 20
M  V30 20 1 19 21
M  V30 21 1 20 22
M  V30 22 1 22 23
M  V30 23 1 23 24
M  V30 24 2 24 25
M  V30 25 1 24 26
M  V30 26 1 26 27
M  V30 27 1 8 9
M  V30 28 1 13 14
M  V30 29 1 21 22
M  V30 30 1 6 28
M  V30 31 1 8 29
M  V30 32 1 9 30
M  V30 33 1 10 31
M  V30 34 1 10 32
M  V30 35 1 11 33
M  V30 36 1 11 34
M  V30 37 1 12 35
M  V30 38 1 12 36
M  V30 39 1 13 37
M  V30 40 1 13 38
M  V30 41 1 15 39
M  V30 42 1 15 40
M  V30 43 1 16 41
M  V30 44 1 16 42
M  V30 45 1 17 43
M  V30 46 1 18 44
M  V30 47 1 18 45
M  V30 48 1 19 46
M  V30 49 1 19 47
M  V30 50 1 20 48
M  V30 51 1 20 49
M  V30 52 1 21 50
M  V30 53 1 21 51
M  V30 54 1 22 52
M  V30 55 1 23 53
M  V30 56 1 26 54
M  V30 57 1 26 55
M  V30 58 1 27 56
M  V30 59 1 27 57
M  V30 60 1 27 58
M  V30 END BOND
M  V30 END CTAB
M  END
>  <NO.>
963

>  <Name>
piperazinederivatives 7

>  <SMILES>
CCC(=O)NC1CCC(CCN2CCN(c3cccc(Cl)c3Cl)CC2)CC1

>  <logBB>
0.9

>  <Class>
1

>  <MW>
411.18

>  <nHBAcc>
3

>  <nHBDon>
1

>  <SLogP>
4.59

>  <TopoPSA>
35.58

>  <MMFF94 Energy>
114.34

$$$$
CCN(CC)CCNC(=O)c1cc(Cl)c(N)cc1OC
Actelion Java MolfileCreator 2.0

  0  0  0  0  0  0              0 V3000
M  V30 BEGIN CTAB
M  V30 COUNTS 42 42 0 0 0
M  V30 BEGIN ATOM
M  V30 1 Cl -4.4003 0.1568 -0.9416 0
M  V30 2 C -2.9985 -0.3433 -1.8251 0
M  V30 3 C -3.1149 -0.8266 -3.142 0
M  V30 4 C -1.7566 -0.253 -1.1924 0
M  V30 5 N -4.3352 -0.8837 -3.8018 0
M  V30 6 C -1.9487 -1.2062 -3.8143 0
M  V30 7 C -0.6013 -0.6458 -1.8755 0
M  V30 8 C -0.7025 -1.1398 -3.1797 0
M  V30 9 C 0.7101 -0.5604 -1.1915 0
M  V30 10 O 0.4167 -1.4576 -3.9026 0
M  V30 11 O 1.4555 -1.5303 -1.1413 0
M  V30 12 N 0.9923 0.6584 -0.6143 0
M  V30 13 C 0.601 -2.8741 -3.9414 0
M  V30 14 C 2.2565 0.9071 0.0499 0
M  V30 15 C 2.3738 0.3268 1.4753 0
M  V30 16 N 1.5746 1.069 2.4831 0
M  V30 17 C 2.1939 0.9185 3.8147 0
M  V30 18 C 0.1688 0.6273 2.4865 0
M  V30 19 C 1.5839 1.833 4.873 0
M  V30 20 C -0.7545 1.8276 2.3214 0
M  V30 21 H -1.6958 0.106 -0.1698 0
M  V30 22 H -4.4197 -1.2897 -4.723 0
M  V30 23 H -5.18 -0.6445 -3.2942 0
M  V30 24 H -1.9999 -1.5453 -4.8455 0
M  V30 25 H 0.3467 1.4311 -0.7037 0
M  V30 26 H 0.5182 -3.3283 -2.9476 0
M  V30 27 H 1.6075 -3.0706 -4.3226 0
M  V30 28 H -0.1179 -3.3349 -4.627 0
M  V30 29 H 2.4067 1.9925 0.0683 0
M  V30 30 H 3.0512 0.4788 -0.5725 0
M  V30 31 H 2.1415 -0.7454 1.4946 0
M  V30 32 H 3.4383 0.4141 1.7305 0
M  V30 33 H 2.1504 -0.1245 4.153 0
M  V30 34 H 3.2556 1.1891 3.7509 0
M  V30 35 H -0.0441 -0.0817 1.6799 0
M  V30 36 H -0.0929 0.0871 3.405 0
M  V30 37 H 2.1593 1.7616 5.8022 0
M  V30 38 H 0.5505 1.5606 5.1065 0
M  V30 39 H 1.6034 2.8787 4.5481 0
M  V30 40 H -1.7982 1.497 2.3024 0
M  V30 41 H -0.5546 2.3574 1.3843 0
M  V30 42 H -0.6453 2.54 3.1447 0
M  V30 END ATOM
M  V30 BEGIN BOND
M  V30 1 1 1 2
M  V30 2 2 2 3
M  V30 3 1 2 4
M  V30 4 1 3 5
M  V30 5 1 3 6
M  V30 6 2 4 7
M  V30 7 2 6 8
M  V30 8 1 7 9
M  V30 9 1 8 10
M  V30 10 2 9 11
M  V30 11 1 9 12
M  V30 12 1 10 13
M  V30 13 1 12 14
M  V30 14 1 14 15
M  V30 15 1 15 16
M  V30 16 1 16 17
M  V30 17 1 16 18
M  V30 18 1 17 19
M  V30 19 1 18 20
M  V30 20 1 7 8
M  V30 21 1 4 21
M  V30 22 1 5 22
M  V30 23 1 5 23
M  V30 24 1 6 24
M  V30 25 1 12 25
M  V30 26 1 13 26
M  V30 27 1 13 27
M  V30 28 1 13 28
M  V30 29 1 14 29
M  V30 30 1 14 30
M  V30 31 1 15 31
M  V30 32 1 15 32
M  V30 33 1 17 33
M  V30 34 1 17 34
M  V30 35 1 18 35
M  V30 36 1 18 36
M  V30 37 1 19 37
M  V30 38 1 19 38
M  V30 39 1 19 39
M  V30 40 1 20 40
M  V30 41 1 20 41
M  V30 42 1 20 42
M  V30 END BOND
M  V30 END CTAB
M  END
>  <NO.>
965

>  <Name>
metoclopramide

>  <SMILES>
CCN(CC)CCNC(=O)c1cc(Cl)c(N)cc1OC

>  <logBB>
0.9

>  <Class>
1

>  <MW>
299.14

>  <nHBAcc>
4

>  <nHBDon>
2

>  <SLogP>
2

>  <TopoPSA>
67.59

>  <MMFF94 Energy>
50.868

$$$$
CNC(C)Cc1ccccc1
Actelion Java MolfileCreator 2.0

  0  0  0  0  0  0              0 V3000
M  V30 BEGIN CTAB
M  V30 COUNTS 26 26 0 0 0
M  V30 BEGIN ATOM
M  V30 1 N 1.9381 -1.3176 -1.3951 0
M  V30 2 C 1.0222 -0.355 -0.7541 0 CFG=2
M  V30 3 C 3.2119 -0.7257 -1.7781 0
M  V30 4 C -0.0666 -1.165 -0.0088 0
M  V30 5 C 0.3995 0.5898 -1.7896 0
M  V30 6 C -0.9657 -0.3244 0.8697 0
M  V30 7 C -0.4795 0.222 2.0657 0
M  V30 8 C -2.2954 -0.0779 0.5021 0
M  V30 9 C -1.3058 1.0036 2.8746 0
M  V30 10 C -3.1202 0.7043 1.3124 0
M  V30 11 C -2.6253 1.2453 2.4976 0
M  V30 12 H 1.4912 -1.7284 -2.2145 0
M  V30 13 H 1.5794 0.2393 -0.0189 0
M  V30 14 H 3.8681 -1.5086 -2.171 0
M  V30 15 H 3.0984 0.0306 -2.5598 0
M  V30 16 H 3.7184 -0.2792 -0.9164 0
M  V30 17 H -0.6744 -1.7296 -0.729 0
M  V30 18 H 0.4066 -1.9209 0.6336 0
M  V30 19 H 1.1633 1.1692 -2.3177 0
M  V30 20 H -0.1819 0.0373 -2.5361 0
M  V30 21 H -0.2682 1.3141 -1.312 0
M  V30 22 H 0.5469 0.0375 2.3752 0
M  V30 23 H -2.6976 -0.4923 -0.4194 0
M  V30 24 H -0.9198 1.422 3.8005 0
M  V30 25 H -4.15 0.8906 1.019 0
M  V30 26 H -3.2686 1.8531 3.1284 0
M  V30 END ATOM
M  V30 BEGIN BOND
M  V30 1 1 1 2
M  V30 2 1 1 3
M  V30 3 1 2 4
M  V30 4 1 2 5
M  V30 5 1 4 6
M  V30 6 2 6 7
M  V30 7 1 6 8
M  V30 8 1 7 9
M  V30 9 2 8 10
M  V30 10 2 9 11
M  V30 11 1 10 11
M  V30 12 1 1 12
M  V30 13 1 2 13
M  V30 14 1 3 14
M  V30 15 1 3 15
M  V30 16 1 3 16
M  V30 17 1 4 17
M  V30 18 1 4 18
M  V30 19 1 5 19
M  V30 20 1 5 20
M  V30 21 1 5 21
M  V30 22 1 7 22
M  V30 23 1 8 23
M  V30 24 1 9 24
M  V30 25 1 10 25
M  V30 26 1 11 26
M  V30 END BOND
M  V30 BEGIN COLLECTION
M  V30 MDLV30/STERAC1 ATOMS=(1 2)
M  V30 END COLLECTION
M  V30 END CTAB
M  END
>  <NO.>
966

>  <Name>
methamphetamine (pervertin)

>  <SMILES>
CNC(C)Cc1ccccc1

>  <logBB>
0.9

>  <Class>
1

>  <MW>
149.12

>  <nHBAcc>
1

>  <nHBDon>
1

>  <SLogP>
1.84

>  <TopoPSA>
12.03

>  <MMFF94 Energy>
31.836

$$$$
COc1ccc(-c2cc(NCCO)c3ccccc3n2)cc1
Actelion Java MolfileCreator 2.0

  0  0  0  0  0  0              0 V3000
M  V30 BEGIN CTAB
M  V30 COUNTS 40 42 0 0 0
M  V30 BEGIN ATOM
M  V30 1 O -2.7744 4.4419 3.0125 0
M  V30 2 C -2.1233 3.4023 2.4091 0
M  V30 3 C -2.1243 5.7062 2.9923 0
M  V30 4 C -0.895 3.4698 1.7558 0
M  V30 5 C -2.784 2.1768 2.4806 0
M  V30 6 C -0.3387 2.3196 1.1758 0
M  V30 7 C -2.2262 1.0306 1.9036 0
M  V30 8 C -0.9942 1.0765 1.2298 0
M  V30 9 C -0.4222 -0.1419 0.6199 0
M  V30 10 N -0.6533 -1.2923 1.2906 0
M  V30 11 C 0.2983 -0.121 -0.5703 0
M  V30 12 C -0.172 -2.4399 0.7953 0
M  V30 13 C 0.8383 -1.3 -1.0943 0
M  V30 14 C 0.5756 -2.5135 -0.4011 0
M  V30 15 C -0.4373 -3.6052 1.5029 0
M  V30 16 N 1.5376 -1.3024 -2.2969 0
M  V30 17 C 1.0085 -3.7913 -0.84 0
M  V30 18 C 0.0041 -4.8545 1.0654 0
M  V30 19 C 1.7874 -0.128 -3.122 0
M  V30 20 C 0.7272 -4.9484 -0.1129 0
M  V30 21 C 2.3976 -0.5606 -4.462 0
M  V30 22 O 3.6248 -1.2584 -4.245 0
M  V30 23 H -1.1655 5.6662 3.5197 0
M  V30 24 H -2.7646 6.42 3.5199 0
M  V30 25 H -1.9973 6.0682 1.9666 0
M  V30 26 H -0.3367 4.3969 1.6823 0
M  V30 27 H -3.7405 2.107 2.9928 0
M  V30 28 H 0.6336 2.4072 0.6956 0
M  V30 29 H -2.7654 0.0874 1.9814 0
M  V30 30 H 0.4358 0.8217 -1.085 0
M  V30 31 H -1.0103 -3.5371 2.4253 0
M  V30 32 H 2.197 -2.0594 -2.4554 0
M  V30 33 H 1.566 -3.8988 -1.7659 0
M  V30 34 H -0.2237 -5.7451 1.6446 0
M  V30 35 H 2.4836 0.5369 -2.5987 0
M  V30 36 H 0.8556 0.4113 -3.3244 0
M  V30 37 H 1.0711 -5.9153 -0.4704 0
M  V30 38 H 1.7158 -1.2288 -4.9986 0
M  V30 39 H 2.602 0.3163 -5.084 0
M  V30 40 H 3.9641 -1.5113 -5.121 0
M  V30 END ATOM
M  V30 BEGIN BOND
M  V30 1 1 1 2
M  V30 2 1 1 3
M  V30 3 2 2 4
M  V30 4 1 2 5
M  V30 5 1 4 6
M  V30 6 2 5 7
M  V30 7 2 6 8
M  V30 8 1 8 9
M  V30 9 2 9 10
M  V30 10 1 9 11
M  V30 11 1 10 12
M  V30 12 2 11 13
M  V30 13 1 12 14
M  V30 14 2 12 15
M  V30 15 1 13 16
M  V30 16 2 14 17
M  V30 17 1 15 18
M  V30 18 1 16 19
M  V30 19 1 17 20
M  V30 20 1 19 21
M  V30 21 1 21 22
M  V30 22 1 7 8
M  V30 23 1 13 14
M  V30 24 2 18 20
M  V30 25 1 3 23
M  V30 26 1 3 24
M  V30 27 1 3 25
M  V30 28 1 4 26
M  V30 29 1 5 27
M  V30 30 1 6 28
M  V30 31 1 7 29
M  V30 32 1 11 30
M  V30 33 1 15 31
M  V30 34 1 16 32
M  V30 35 1 17 33
M  V30 36 1 18 34
M  V30 37 1 19 35
M  V30 38 1 19 36
M  V30 39 1 20 37
M  V30 40 1 21 38
M  V30 41 1 21 39
M  V30 42 1 22 40
M  V30 END BOND
M  V30 END CTAB
M  END
>  <NO.>
967

>  <Name>
chembl88330

>  <SMILES>
COc1ccc(-c2cc(NCCO)c3ccccc3n2)cc1

>  <logBB>
0.9

>  <Class>
1

>  <MW>
294.14

>  <nHBAcc>
4

>  <nHBDon>
2

>  <SLogP>
3.31

>  <TopoPSA>
54.38

>  <MMFF94 Energy>
90.2

$$$$
COc1ccc(CCN2CCN(CCCc3ccccc3I)CC2)cc1OC
Actelion Java MolfileCreator 2.0

  0  0  0  0  0  0              0 V3000
M  V30 BEGIN CTAB
M  V30 COUNTS 59 61 0 0 0
M  V30 BEGIN ATOM
M  V30 1 I 4.8052 -2.3203 2.8009 0
M  V30 2 C 3.7584 -3.9492 3.6368 0
M  V30 3 C 2.6237 -4.5276 3.0285 0
M  V30 4 C 4.2507 -4.4339 4.8573 0
M  V30 5 C 2.0011 -5.5935 3.704 0
M  V30 6 C 2.0813 -4.0039 1.709 0
M  V30 7 C 3.6192 -5.4972 5.4963 0
M  V30 8 C 2.4939 -6.0743 4.9208 0
M  V30 9 C 0.9249 -4.7762 1.0596 0
M  V30 10 C 0.5494 -4.2662 -0.3399 0
M  V30 11 N 0.0551 -2.8835 -0.2987 0
M  V30 12 C -1.2115 -2.7395 -1.0438 0
M  V30 13 C 1.0368 -1.935 -0.866 0
M  V30 14 C -1.7348 -1.2851 -1.0252 0
M  V30 15 C 0.5216 -0.4762 -0.8443 0
M  V30 16 N -0.7557 -0.3191 -1.5715 0
M  V30 17 C -1.2912 1.0512 -1.4658 0
M  V30 18 C -0.4527 2.0922 -2.2266 0
M  V30 19 C -1.1048 3.4559 -2.2039 0
M  V30 20 C -0.891 4.3284 -1.1259 0
M  V30 21 C -1.9516 3.8527 -3.2425 0
M  V30 22 C -1.507 5.586 -1.0875 0
M  V30 23 C -2.5708 5.1048 -3.2136 0
M  V30 24 O -1.3493 6.4965 -0.0711 0
M  V30 25 C -2.355 5.9781 -2.1426 0
M  V30 26 C -0.4847 6.1473 0.9994 0
M  V30 27 O -2.9217 7.2242 -2.0309 0
M  V30 28 C -3.7676 7.6595 -3.085 0
M  V30 29 H 5.126 -3.9884 5.3238 0
M  V30 30 H 1.1134 -6.0736 3.3003 0
M  V30 31 H 2.906 -3.9923 0.9861 0
M  V30 32 H 1.7534 -2.9719 1.8815 0
M  V30 33 H 4.0015 -5.8701 6.4426 0
M  V30 34 H 1.9924 -6.9007 5.4188 0
M  V30 35 H 1.2003 -5.8341 0.9625 0
M  V30 36 H 0.0389 -4.7364 1.7065 0
M  V30 37 H 1.402 -4.3787 -1.0218 0
M  V30 38 H -0.225 -4.9436 -0.724 0
M  V30 39 H -1.9769 -3.3793 -0.5876 0
M  V30 40 H -1.0867 -3.066 -2.0851 0
M  V30 41 H 1.9695 -1.9718 -0.2926 0
M  V30 42 H 1.2828 -2.2093 -1.9011 0
M  V30 43 H -2.6536 -1.2489 -1.6231 0
M  V30 44 H -2.0044 -1.0163 0.0054 0
M  V30 45 H 1.2943 0.1475 -1.3062 0
M  V30 46 H 0.4144 -0.1498 0.1989 0
M  V30 47 H -1.3966 1.3471 -0.4131 0
M  V30 48 H -2.3033 1.0639 -1.8931 0
M  V30 49 H 0.5516 2.1812 -1.7965 0
M  V30 50 H -0.311 1.7739 -3.2675 0
M  V30 51 H -0.2369 4.0013 -0.3241 0
M  V30 52 H -2.1374 3.1882 -4.0838 0
M  V30 53 H -3.2179 5.3671 -4.0434 0
M  V30 54 H -0.8565 5.2688 1.537 0
M  V30 55 H -0.4693 6.9847 1.7038 0
M  V30 56 H 0.54 5.9924 0.6463 0
M  V30 57 H -3.2203 7.7228 -4.0312 0
M  V30 58 H -4.1194 8.6659 -2.8377 0
M  V30 59 H -4.6474 7.0143 -3.1777 0
M  V30 END ATOM
M  V30 BEGIN BOND
M  V30 1 1 1 2
M  V30 2 2 2 3
M  V30 3 1 2 4
M  V30 4 1 3 5
M  V30 5 1 3 6
M  V30 6 2 4 7
M  V30 7 2 5 8
M  V30 8 1 6 9
M  V30 9 1 9 10
M  V30 10 1 10 11
M  V30 11 1 11 12
M  V30 12 1 11 13
M  V30 13 1 12 14
M  V30 14 1 13 15
M  V30 15 1 14 16
M  V30 16 1 16 17
M  V30 17 1 17 18
M  V30 18 1 18 19
M  V30 19 2 19 20
M  V30 20 1 19 21
M  V30 21 1 20 22
M  V30 22 2 21 23
M  V30 23 1 22 24
M  V30 24 2 22 25
M  V30 25 1 24 26
M  V30 26 1 25 27
M  V30 27 1 27 28
M  V30 28 1 7 8
M  V30 29 1 15 16
M  V30 30 1 23 25
M  V30 31 1 4 29
M  V30 32 1 5 30
M  V30 33 1 6 31
M  V30 34 1 6 32
M  V30 35 1 7 33
M  V30 36 1 8 34
M  V30 37 1 9 35
M  V30 38 1 9 36
M  V30 39 1 10 37
M  V30 40 1 10 38
M  V30 41 1 12 39
M  V30 42 1 12 40
M  V30 43 1 13 41
M  V30 44 1 13 42
M  V30 45 1 14 43
M  V30 46 1 14 44
M  V30 47 1 15 45
M  V30 48 1 15 46
M  V30 49 1 17 47
M  V30 50 1 17 48
M  V30 51 1 18 49
M  V30 52 1 18 50
M  V30 53 1 20 51
M  V30 54 1 21 52
M  V30 55 1 23 53
M  V30 56 1 26 54
M  V30 57 1 26 55
M  V30 58 1 26 56
M  V30 59 1 28 57
M  V30 60 1 28 58
M  V30 61 1 28 59
M  V30 END BOND
M  V30 END CTAB
M  END
>  <NO.>
968

>  <Name>
1-[2-(3,4-dimethoxyphenyl)ethyl]-4-[3-(2-iodophenyl)propyl]piperazine

>  <SMILES>
COc1ccc(CCN2CCN(CCCc3ccccc3I)CC2)cc1OC

>  <logBB>
0.9

>  <Class>
1

>  <MW>
494.14

>  <nHBAcc>
4

>  <nHBDon>
0

>  <SLogP>
4.1

>  <TopoPSA>
24.94

>  <MMFF94 Energy>
150.42

$$$$
COc1ccc(C(C)C)cc1CNC1CCCNC1c1ccccc1
Actelion Java MolfileCreator 2.0

  0  0  0  0  0  0              0 V3000
M  V30 BEGIN CTAB
M  V30 COUNTS 55 57 0 0 0
M  V30 BEGIN ATOM
M  V30 1 O -2.4468 -1.0255 1.8149 0
M  V30 2 C -1.9915 0.2676 1.7886 0
M  V30 3 C -1.3872 -1.9039 2.2018 0
M  V30 4 C -1.6065 0.8585 0.5793 0
M  V30 5 C -1.9846 0.9981 2.9768 0
M  V30 6 C -1.1572 2.1916 0.5999 0
M  V30 7 C -1.6262 0.094 -0.7227 0
M  V30 8 C -1.5471 2.3229 2.9788 0
M  V30 9 C -1.1213 2.9359 1.7917 0
M  V30 10 N -0.3239 -0.4958 -0.9884 0
M  V30 11 C -0.6309 4.3729 1.7679 0
M  V30 12 C -0.2894 -1.47 -2.0932 0
M  V30 13 C -1.7304 5.3498 2.192 0
M  V30 14 C 0.6215 4.5537 2.6289 0
M  V30 15 C 1.1522 -2.0748 -2.2575 0
M  V30 16 C -0.6814 -0.8492 -3.4505 0
M  V30 17 N 2.1232 -1.0227 -2.6485 0
M  V30 18 C 1.6139 -2.8512 -1.0289 0
M  V30 19 C 0.3589 0.1629 -3.9329 0
M  V30 20 C 1.7652 -0.4364 -3.94 0
M  V30 21 C 1.3819 -4.2346 -0.9519 0
M  V30 22 C 2.2475 -2.2214 0.0542 0
M  V30 23 C 1.7832 -4.9656 0.1686 0
M  V30 24 C 2.6481 -2.9525 1.1742 0
M  V30 25 C 2.4175 -4.3247 1.2303 0
M  V30 26 H -0.4793 -1.7391 1.6135 0
M  V30 27 H -1.7228 -2.9301 2.0258 0
M  V30 28 H -1.1694 -1.7964 3.2697 0
M  V30 29 H -2.3204 0.5361 3.9003 0
M  V30 30 H -0.832 2.6515 -0.3314 0
M  V30 31 H -1.9167 0.7836 -1.5239 0
M  V30 32 H -2.4044 -0.6773 -0.6845 0
M  V30 33 H -1.5426 2.8714 3.9175 0
M  V30 34 H 0.3902 0.2157 -1.1365 0
M  V30 35 H -0.3523 4.6299 0.7374 0
M  V30 36 H -0.9853 -2.2859 -1.8596 0
M  V30 37 H -2.03 5.2024 3.2354 0
M  V30 38 H -1.3865 6.3846 2.0883 0
M  V30 39 H -2.6232 5.2291 1.5683 0
M  V30 40 H 0.4191 4.3734 3.6903 0
M  V30 41 H 1.4132 3.863 2.318 0
M  V30 42 H 1.01 5.5735 2.5336 0
M  V30 43 H 1.1223 -2.8013 -3.0832 0
M  V30 44 H -1.6708 -0.3817 -3.4117 0
M  V30 45 H -0.7617 -1.6533 -4.1941 0
M  V30 46 H 3.0441 -1.4557 -2.7159 0
M  V30 47 H 0.3387 1.0535 -3.293 0
M  V30 48 H 0.1001 0.4981 -4.9439 0
M  V30 49 H 1.8445 -1.1941 -4.7292 0
M  V30 50 H 2.4878 0.35 -4.1835 0
M  V30 51 H 0.8823 -4.7542 -1.7662 0
M  V30 52 H 2.4176 -1.1466 0.0339 0
M  V30 53 H 1.5977 -6.0354 0.2135 0
M  V30 54 H 3.1336 -2.4456 2.0036 0
M  V30 55 H 2.7278 -4.8927 2.1029 0
M  V30 END ATOM
M  V30 BEGIN BOND
M  V30 1 1 1 2
M  V30 2 1 1 3
M  V30 3 2 2 4
M  V30 4 1 2 5
M  V30 5 1 4 6
M  V30 6 1 4 7
M  V30 7 2 5 8
M  V30 8 2 6 9
M  V30 9 1 7 10
M  V30 10 1 9 11
M  V30 11 1 10 12
M  V30 12 1 11 13
M  V30 13 1 11 14
M  V30 14 1 12 15
M  V30 15 1 12 16
M  V30 16 1 15 17
M  V30 17 1 15 18
M  V30 18 1 16 19
M  V30 19 1 17 20
M  V30 20 2 18 21
M  V30 21 1 18 22
M  V30 22 1 21 23
M  V30 23 2 22 24
M  V30 24 2 23 25
M  V30 25 1 8 9
M  V30 26 1 19 20
M  V30 27 1 24 25
M  V30 28 1 3 26
M  V30 29 1 3 27
M  V30 30 1 3 28
M  V30 31 1 5 29
M  V30 32 1 6 30
M  V30 33 1 7 31
M  V30 34 1 7 32
M  V30 35 1 8 33
M  V30 36 1 10 34
M  V30 37 1 11 35
M  V30 38 1 12 36
M  V30 39 1 13 37
M  V30 40 1 13 38
M  V30 41 1 13 39
M  V30 42 1 14 40
M  V30 43 1 14 41
M  V30 44 1 14 42
M  V30 45 1 15 43
M  V30 46 1 16 44
M  V30 47 1 16 45
M  V30 48 1 17 46
M  V30 49 1 19 47
M  V30 50 1 19 48
M  V30 51 1 20 49
M  V30 52 1 20 50
M  V30 53 1 21 51
M  V30 54 1 22 52
M  V30 55 1 23 53
M  V30 56 1 24 54
M  V30 57 1 25 55
M  V30 END BOND
M  V30 END CTAB
M  END
>  <NO.>
973

>  <Name>
pfizer compound 8

>  <SMILES>
COc1ccc(C(C)C)cc1CNC1CCCNC1c1ccccc1

>  <logBB>
0.92

>  <Class>
1

>  <MW>
338.24

>  <nHBAcc>
3

>  <nHBDon>
2

>  <SLogP>
4.4

>  <TopoPSA>
33.29

>  <MMFF94 Energy>
81.603

$$$$
O=[SH](O)(c1ccc2cc[nH]c2c1)N1CCCC1CCN1CCC(Oc2cccc(Cl)c2)CC1
Actelion Java MolfileCreator 2.0

  0  0  0  0  0  0              0 V3000
M  V30 BEGIN CTAB
M  V30 COUNTS 65 69 0 0 0
M  V30 BEGIN ATOM
M  V30 1 Cl 5.0573 4.5422 1.8836 0
M  V30 2 C 4.7047 2.8778 2.1417 0
M  V30 3 C 3.4313 2.4979 2.5622 0
M  V30 4 C 5.6948 1.921 1.9189 0
M  V30 5 C 3.1504 1.1426 2.7762 0
M  V30 6 C 5.4104 0.569 2.112 0
M  V30 7 O 1.9241 0.682 3.1402 0
M  V30 8 C 4.1377 0.1797 2.5327 0
M  V30 9 C 1.0587 1.8196 3.2441 0
M  V30 10 C 0.7114 2.2768 1.8245 0
M  V30 11 C -0.2195 1.4413 3.9993 0
M  V30 12 C -0.1632 1.2515 1.0992 0
M  V30 13 C -1.0609 0.4368 3.2091 0
M  V30 14 N -1.3709 0.9712 1.8799 0
M  V30 15 C -2.3329 0.143 1.1519 0
M  V30 16 C -3.1194 0.8474 0.0513 0
M  V30 17 C -4.2658 -0.2709 -0.7682 0
M  V30 18 N -3.4495 -1.6358 -1.4588 0
M  V30 19 C -5.4271 -0.9776 0.4881 0
M  V30 20 S -2.5252 -1.6254 -3.1512 0
M  V30 21 C -3.6677 -3.0977 -0.5007 0
M  V30 22 C -4.7173 -2.639 0.9308 0
M  V30 23 O -2.1186 -3.2515 -2.9417 0
M  V30 24 O -3.3799 -2.0527 -4.6937 0
M  V30 25 C -0.6634 -1.1 -3.2564 0
M  V30 26 C 0.5374 -2.1493 -3.1389 0
M  V30 27 C -0.2936 0.4474 -3.4187 0
M  V30 28 C 2.0631 -1.6803 -3.2044 0
M  V30 29 C 1.2217 0.927 -3.4834 0
M  V30 30 N 3.3801 -2.5395 -3.127 0
M  V30 31 C 2.401 -0.1335 -3.3808 0
M  V30 32 C 4.5481 -1.4952 -3.258 0
M  V30 33 C 4.0246 -0.0251 -3.414 0
M  V30 34 H 2.6648 3.2527 2.7176 0
M  V30 35 H 6.6866 2.2225 1.5911 0
M  V30 36 H 6.1792 -0.1791 1.9338 0
M  V30 37 H 3.9198 -0.8759 2.679 0
M  V30 38 H 1.5626 2.6518 3.7563 0
M  V30 39 H 0.1863 3.2395 1.868 0
M  V30 40 H 1.6298 2.4289 1.2452 0
M  V30 41 H -0.8122 2.3456 4.1882 0
M  V30 42 H 0.0258 1.0042 4.974 0
M  V30 43 H 0.4213 0.3428 0.9096 0
M  V30 44 H -0.436 1.6723 0.1236 0
M  V30 45 H -0.5294 -0.5209 3.1515 0
M  V30 46 H -1.9882 0.2615 3.7685 0
M  V30 47 H -3.0353 -0.3013 1.874 0
M  V30 48 H -1.8029 -0.7218 0.7243 0
M  V30 49 H -3.6802 1.686 0.4885 0
M  V30 50 H -2.4243 1.2898 -0.6767 0
M  V30 51 H -4.8831 0.304 -1.5502 0
M  V30 52 H -6.4514 -1.1534 0.0043 0
M  V30 53 H -5.4863 -0.3325 1.4236 0
M  V30 54 H -2.9298 -0.4221 -3.3255 0
M  V30 55 H -2.6772 -3.5713 -0.1542 0
M  V30 56 H -4.2492 -3.8952 -1.1116 0
M  V30 57 H -5.5766 -3.3613 1.1462 0
M  V30 58 H -4.0508 -2.4859 1.8608 0
M  V30 59 H -3.4195 -3.0406 -4.9202 0
M  V30 60 H 0.3337 -3.2077 -3.0112 0
M  V30 61 H -1.0623 1.2041 -3.4859 0
M  V30 62 H 1.4357 1.9803 -3.6025 0
M  V30 63 H 3.4696 -3.5562 -3.0154 0
M  V30 64 H 5.6031 -1.7437 -3.2443 0
M  V30 65 H 4.6199 0.8712 -3.5211 0
M  V30 END ATOM
M  V30 BEGIN BOND
M  V30 1 1 1 2
M  V30 2 2 2 3
M  V30 3 1 2 4
M  V30 4 1 3 5
M  V30 5 2 4 6
M  V30 6 1 5 7
M  V30 7 2 5 8
M  V30 8 1 7 9
M  V30 9 1 9 10
M  V30 10 1 9 11
M  V30 11 1 10 12
M  V30 12 1 11 13
M  V30 13 1 12 14
M  V30 14 1 14 15
M  V30 15 1 15 16
M  V30 16 1 16 17
M  V30 17 1 17 18
M  V30 18 1 17 19
M  V30 19 1 18 20
M  V30 20 1 18 21
M  V30 21 1 19 22
M  V30 22 2 20 23
M  V30 23 1 20 24
M  V30 24 1 20 25
M  V30 25 2 25 26
M  V30 26 1 25 27
M  V30 27 1 26 28
M  V30 28 2 27 29
M  V30 29 1 28 30
M  V30 30 2 28 31
M  V30 31 1 30 32
M  V30 32 1 31 33
M  V30 33 1 6 8
M  V30 34 1 13 14
M  V30 35 1 21 22
M  V30 36 1 29 31
M  V30 37 2 32 33
M  V30 38 1 3 34
M  V30 39 1 4 35
M  V30 40 1 6 36
M  V30 41 1 8 37
M  V30 42 1 9 38
M  V30 43 1 10 39
M  V30 44 1 10 40
M  V30 45 1 11 41
M  V30 46 1 11 42
M  V30 47 1 12 43
M  V30 48 1 12 44
M  V30 49 1 13 45
M  V30 50 1 13 46
M  V30 51 1 15 47
M  V30 52 1 15 48
M  V30 53 1 16 49
M  V30 54 1 16 50
M  V30 55 1 17 51
M  V30 56 1 19 52
M  V30 57 1 19 53
M  V30 58 1 20 54
M  V30 59 1 21 55
M  V30 60 1 21 56
M  V30 61 1 22 57
M  V30 62 1 22 58
M  V30 63 1 24 59
M  V30 64 1 26 60
M  V30 65 1 27 61
M  V30 66 1 29 62
M  V30 67 1 30 63
M  V30 68 1 32 64
M  V30 69 1 33 65
M  V30 END BOND
M  V30 END CTAB
M  END
>  <NO.>
975

>  <Name>
s119

>  <SMILES>
O=[SH](O)(c1ccc2cc[nH]c2c1)N1CCCC1CCN1CCC(Oc2cccc(Cl)c2)CC1

>  <logBB>
0.92

>  <Class>
1

>  <MW>
489.19

>  <nHBAcc>
3

>  <nHBDon>
3

>  <SLogP>
4.98

>  <TopoPSA>
68.8

>  <MMFF94 Energy>
Couldn't assign an atom type to atom 19 (S)

$$$$
CC(N)Cc1ccccc1
Actelion Java MolfileCreator 2.0

  0  0  0  0  0  0              0 V3000
M  V30 BEGIN CTAB
M  V30 COUNTS 23 23 0 0 0
M  V30 BEGIN ATOM
M  V30 1 N -3.1006 0.2322 -1.0068 0
M  V30 2 C -1.8805 0.0809 -0.2001 0 CFG=2
M  V30 3 C -0.6416 0.3037 -1.0926 0
M  V30 4 C -1.8846 -1.2998 0.4584 0
M  V30 5 C 0.6595 0.3523 -0.325 0
M  V30 6 C 0.9768 1.4675 0.4628 0
M  V30 7 C 1.5642 -0.7161 -0.3848 0
M  V30 8 C 2.1737 1.511 1.1791 0
M  V30 9 C 2.7607 -0.6708 0.3324 0
M  V30 10 C 3.0649 0.4418 1.1144 0
M  V30 11 H -3.1355 -0.4983 -1.7173 0
M  V30 12 H -3.9178 0.0849 -0.4147 0
M  V30 13 H -1.9086 0.8435 0.5871 0
M  V30 14 H -0.5882 -0.4758 -1.8643 0
M  V30 15 H -0.7418 1.2522 -1.6383 0
M  V30 16 H -1.0373 -1.4144 1.142 0
M  V30 17 H -1.8299 -2.1007 -0.2872 0
M  V30 18 H -2.7961 -1.4501 1.0482 0
M  V30 19 H 0.2923 2.3113 0.5194 0
M  V30 20 H 1.3423 -1.5921 -0.9898 0
M  V30 21 H 2.4112 2.3806 1.7861 0
M  V30 22 H 3.4564 -1.504 0.2802 0
M  V30 23 H 3.9972 0.4767 1.6716 0
M  V30 END ATOM
M  V30 BEGIN BOND
M  V30 1 1 1 2
M  V30 2 1 2 3
M  V30 3 1 2 4
M  V30 4 1 3 5
M  V30 5 2 5 6
M  V30 6 1 5 7
M  V30 7 1 6 8
M  V30 8 2 7 9
M  V30 9 2 8 10
M  V30 10 1 9 10
M  V30 11 1 1 11
M  V30 12 1 1 12
M  V30 13 1 2 13
M  V30 14 1 3 14
M  V30 15 1 3 15
M  V30 16 1 4 16
M  V30 17 1 4 17
M  V30 18 1 4 18
M  V30 19 1 6 19
M  V30 20 1 7 20
M  V30 21 1 8 21
M  V30 22 1 9 22
M  V30 23 1 10 23
M  V30 END BOND
M  V30 BEGIN COLLECTION
M  V30 MDLV30/STERAC1 ATOMS=(1 2)
M  V30 END COLLECTION
M  V30 END CTAB
M  END
>  <NO.>
976

>  <Name>
amphetamine

>  <SMILES>
CC(N)Cc1ccccc1

>  <logBB>
0.93

>  <Class>
1

>  <MW>
135.1

>  <nHBAcc>
1

>  <nHBDon>
1

>  <SLogP>
1.58

>  <TopoPSA>
26.02

>  <MMFF94 Energy>
28.469

$$$$
C=CCCCCCCCC
Actelion Java MolfileCreator 2.0

  0  0  0  0  0  0              0 V3000
M  V30 BEGIN CTAB
M  V30 COUNTS 30 29 0 0 0
M  V30 BEGIN ATOM
M  V30 1 C -3.3652 0.5347 -2.9057 0
M  V30 2 C -4.6473 0.9153 -2.8421 0
M  V30 3 C -2.5899 -0.01 -1.7407 0
M  V30 4 C -1.4 0.888 -1.3962 0
M  V30 5 C -0.6028 0.3254 -0.2165 0
M  V30 6 C 0.5895 1.2221 0.1239 0
M  V30 7 C 1.3566 0.7686 1.3693 0
M  V30 8 C 2.059 -0.5795 1.1941 0
M  V30 9 C 2.902 -0.9277 2.4217 0
M  V30 10 C 3.6 -2.2682 2.2562 0
M  V30 11 H -2.8395 0.6091 -3.8557 0
M  V30 12 H -5.2157 0.8563 -1.9191 0
M  V30 13 H -5.1571 1.2978 -3.721 0
M  V30 14 H -2.2349 -1.0145 -2.0 0
M  V30 15 H -3.2372 -0.1182 -0.8617 0
M  V30 16 H -1.7567 1.8963 -1.1501 0
M  V30 17 H -0.7418 0.9848 -2.2689 0
M  V30 18 H -0.2552 -0.6825 -0.4686 0
M  V30 19 H -1.2571 0.2356 0.6589 0
M  V30 20 H 0.2302 2.2441 0.2983 0
M  V30 21 H 1.2734 1.2703 -0.732 0
M  V30 22 H 0.6729 0.7218 2.2257 0
M  V30 23 H 2.1061 1.5343 1.6056 0
M  V30 24 H 2.7007 -0.5474 0.3054 0
M  V30 25 H 1.3187 -1.371 1.0327 0
M  V30 26 H 3.6552 -0.1491 2.59 0
M  V30 27 H 2.265 -0.9613 3.3133 0
M  V30 28 H 4.1972 -2.4968 3.1446 0
M  V30 29 H 2.8729 -3.0748 2.1189 0
M  V30 30 H 4.2695 -2.2575 1.3903 0
M  V30 END ATOM
M  V30 BEGIN BOND
M  V30 1 2 1 2
M  V30 2 1 1 3
M  V30 3 1 3 4
M  V30 4 1 4 5
M  V30 5 1 5 6
M  V30 6 1 6 7
M  V30 7 1 7 8
M  V30 8 1 8 9
M  V30 9 1 9 10
M  V30 10 1 1 11
M  V30 11 1 2 12
M  V30 12 1 2 13
M  V30 13 1 3 14
M  V30 14 1 3 15
M  V30 15 1 4 16
M  V30 16 1 4 17
M  V30 17 1 5 18
M  V30 18 1 5 19
M  V30 19 1 6 20
M  V30 20 1 6 21
M  V30 21 1 7 22
M  V30 22 1 7 23
M  V30 23 1 8 24
M  V30 24 1 8 25
M  V30 25 1 9 26
M  V30 26 1 9 27
M  V30 27 1 10 28
M  V30 28 1 10 29
M  V30 29 1 10 30
M  V30 END BOND
M  V30 END CTAB
M  END
>  <NO.>
978

>  <Name>
1-decene

>  <SMILES>
C=CCCCCCCCC

>  <logBB>
0.96

>  <Class>
1

>  <MW>
140.16

>  <nHBAcc>
0

>  <nHBDon>
0

>  <SLogP>
3.92

>  <TopoPSA>
0

>  <MMFF94 Energy>
5.0811

$$$$
CC1CCCCC1
Actelion Java MolfileCreator 2.0

  0  0  0  0  0  0              0 V3000
M  V30 BEGIN CTAB
M  V30 COUNTS 21 21 0 0 0
M  V30 BEGIN ATOM
M  V30 1 C 0.4653 0.4653 -0.7756 0
M  V30 2 C -1.0118 0.6945 -0.4278 0
M  V30 3 C 1.007 -0.7816 -0.0636 0
M  V30 4 C 0.6515 0.3473 -2.2871 0
M  V30 5 C -1.2316 0.7628 1.0818 0
M  V30 6 C 0.7839 -0.7109 1.4454 0
M  V30 7 C -0.684 -0.4741 1.7869 0
M  V30 8 H 1.0399 1.336 -0.4321 0
M  V30 9 H -1.6237 -0.1157 -0.8446 0
M  V30 10 H -1.3639 1.6262 -0.8865 0
M  V30 11 H 0.5157 -1.6801 -0.4587 0
M  V30 12 H 2.0791 -0.8913 -0.2655 0
M  V30 13 H 0.2956 1.2506 -2.7937 0
M  V30 14 H 1.7093 0.2169 -2.5387 0
M  V30 15 H 0.0992 -0.5077 -2.6914 0
M  V30 16 H -2.302 0.8643 1.294 0
M  V30 17 H -0.7404 1.6586 1.4816 0
M  V30 18 H 1.3919 0.0993 1.8663 0
M  V30 19 H 1.1252 -1.6417 1.9122 0
M  V30 20 H -1.273 -1.3518 1.4936 0
M  V30 21 H -0.797 -0.3612 2.8711 0
M  V30 END ATOM
M  V30 BEGIN BOND
M  V30 1 1 1 2
M  V30 2 1 1 3
M  V30 3 1 1 4
M  V30 4 1 2 5
M  V30 5 1 3 6
M  V30 6 1 5 7
M  V30 7 1 6 7
M  V30 8 1 1 8
M  V30 9 1 2 9
M  V30 10 1 2 10
M  V30 11 1 3 11
M  V30 12 1 3 12
M  V30 13 1 4 13
M  V30 14 1 4 14
M  V30 15 1 4 15
M  V30 16 1 5 16
M  V30 17 1 5 17
M  V30 18 1 6 18
M  V30 19 1 6 19
M  V30 20 1 7 20
M  V30 21 1 7 21
M  V30 END BOND
M  V30 END CTAB
M  END
>  <NO.>
980

>  <Name>
methylcyclohexane

>  <SMILES>
CC1CCCCC1

>  <logBB>
0.96

>  <Class>
1

>  <MW>
98.11

>  <nHBAcc>
0

>  <nHBDon>
0

>  <SLogP>
2.59

>  <TopoPSA>
0

>  <MMFF94 Energy>
0.69824

$$$$
NCCCN1c2ccccc2Sc2ccc(Cl)cc21
Actelion Java MolfileCreator 2.0

  0  0  0  0  0  0              0 V3000
M  V30 BEGIN CTAB
M  V30 COUNTS 34 36 0 0 0
M  V30 BEGIN ATOM
M  V30 1 Cl -5.1698 -1.0651 0.7373 0
M  V30 2 C -3.8718 -0.4737 -0.2276 0
M  V30 3 C -2.6339 -0.1979 0.3656 0
M  V30 4 C -4.0621 -0.275 -1.5818 0
M  V30 5 C -1.5259 0.2892 -0.37 0
M  V30 6 C -3.0008 0.203 -2.3389 0
M  V30 7 N -0.2593 0.5739 0.2395 0
M  V30 8 C -1.749 0.4846 -1.7494 0
M  V30 9 C 0.8887 1.0901 -0.439 0
M  V30 10 C -0.1415 0.2851 1.6912 0
M  V30 11 S -0.5245 1.0877 -2.8786 0
M  V30 12 C 0.8762 1.3555 -1.8249 0
M  V30 13 C 2.1108 1.3715 0.218 0
M  V30 14 C 0.089 -1.2028 2.0014 0
M  V30 15 C 2.0143 1.8644 -2.4881 0
M  V30 16 C 3.2391 1.8773 -0.444 0
M  V30 17 C 1.416 -1.7478 1.4811 0
M  V30 18 C 3.1918 2.1252 -1.8022 0
M  V30 19 N 1.5929 -3.1342 1.9087 0
M  V30 20 H -2.5739 -0.3884 1.431 0
M  V30 21 H -5.0179 -0.4864 -2.0517 0
M  V30 22 H -3.1523 0.3589 -3.406 0
M  V30 23 H -1.0384 0.6335 2.2186 0
M  V30 24 H 0.6228 0.8821 2.1939 0
M  V30 25 H 2.2537 1.2078 1.2788 0
M  V30 26 H -0.7274 -1.8129 1.5987 0
M  V30 27 H 0.053 -1.3228 3.0924 0
M  V30 28 H 1.9826 2.0611 -3.5585 0
M  V30 29 H 4.1516 2.074 0.1136 0
M  V30 30 H 2.2526 -1.1533 1.8612 0
M  V30 31 H 1.4408 -1.7164 0.3876 0
M  V30 32 H 4.0589 2.517 -2.3258 0
M  V30 33 H 2.4694 -3.4931 1.5312 0
M  V30 34 H 1.6771 -3.1796 2.923 0
M  V30 END ATOM
M  V30 BEGIN BOND
M  V30 1 1 1 2
M  V30 2 2 2 3
M  V30 3 1 2 4
M  V30 4 1 3 5
M  V30 5 2 4 6
M  V30 6 1 5 7
M  V30 7 2 5 8
M  V30 8 1 7 9
M  V30 9 1 7 10
M  V30 10 1 8 11
M  V30 11 2 9 12
M  V30 12 1 9 13
M  V30 13 1 10 14
M  V30 14 1 12 15
M  V30 15 2 13 16
M  V30 16 1 14 17
M  V30 17 2 15 18
M  V30 18 1 17 19
M  V30 19 1 6 8
M  V30 20 1 11 12
M  V30 21 1 16 18
M  V30 22 1 3 20
M  V30 23 1 4 21
M  V30 24 1 6 22
M  V30 25 1 10 23
M  V30 26 1 10 24
M  V30 27 1 13 25
M  V30 28 1 14 26
M  V30 29 1 14 27
M  V30 30 1 15 28
M  V30 31 1 16 29
M  V30 32 1 17 30
M  V30 33 1 17 31
M  V30 34 1 18 32
M  V30 35 1 19 33
M  V30 36 1 19 34
M  V30 END BOND
M  V30 END CTAB
M  END
>  <NO.>
981

>  <Name>
2095-17-2

>  <SMILES>
NCCCN1c2ccccc2Sc2ccc(Cl)cc21

>  <logBB>
0.97

>  <Class>
1

>  <MW>
290.06

>  <nHBAcc>
3

>  <nHBDon>
1

>  <SLogP>
4.29

>  <TopoPSA>
29.26

>  <MMFF94 Energy>
59.916

$$$$
CCCCCCC(C)C
Actelion Java MolfileCreator 2.0

  0  0  0  0  0  0              0 V3000
M  V30 BEGIN CTAB
M  V30 COUNTS 29 28 0 0 0
M  V30 BEGIN ATOM
M  V30 1 C -2.2131 -0.1525 -1.8312 0
M  V30 2 C -1.4054 -0.6534 -0.6196 0
M  V30 3 C -1.4095 -0.2036 -3.1313 0
M  V30 4 C -3.4908 -0.9819 -1.9815 0
M  V30 5 C -0.1818 0.2112 -0.302 0
M  V30 6 C 0.509 -0.2569 0.981 0
M  V30 7 C 1.7344 0.6016 1.2983 0
M  V30 8 C 2.4238 0.1344 2.5799 0
M  V30 9 C 3.6426 0.9852 2.8988 0
M  V30 10 H -2.5085 0.8889 -1.6509 0
M  V30 11 H -2.0621 -0.6688 0.2598 0
M  V30 12 H -1.0849 -1.6892 -0.7897 0
M  V30 13 H -0.5573 0.4817 -3.1006 0
M  V30 14 H -1.0302 -1.2127 -3.3241 0
M  V30 15 H -2.0309 0.0919 -3.9835 0
M  V30 16 H -4.1023 -0.9232 -1.0748 0
M  V30 17 H -3.2607 -2.0363 -2.1681 0
M  V30 18 H -4.0978 -0.6144 -2.8157 0
M  V30 19 H -0.4896 1.2579 -0.1915 0
M  V30 20 H 0.5352 0.1668 -1.129 0
M  V30 21 H 0.8125 -1.3052 0.8727 0
M  V30 22 H -0.1983 -0.2096 1.8179 0
M  V30 23 H 1.4307 1.65 1.4057 0
M  V30 24 H 2.4426 0.5545 0.4622 0
M  V30 25 H 1.7213 0.1836 3.42 0
M  V30 26 H 2.733 -0.912 2.4763 0
M  V30 27 H 4.12 0.6338 3.8188 0
M  V30 28 H 4.3801 0.9322 2.0917 0
M  V30 29 H 3.3628 2.034 3.0406 0
M  V30 END ATOM
M  V30 BEGIN BOND
M  V30 1 1 1 2
M  V30 2 1 1 3
M  V30 3 1 1 4
M  V30 4 1 2 5
M  V30 5 1 5 6
M  V30 6 1 6 7
M  V30 7 1 7 8
M  V30 8 1 8 9
M  V30 9 1 1 10
M  V30 10 1 2 11
M  V30 11 1 2 12
M  V30 12 1 3 13
M  V30 13 1 3 14
M  V30 14 1 3 15
M  V30 15 1 4 16
M  V30 16 1 4 17
M  V30 17 1 4 18
M  V30 18 1 5 19
M  V30 19 1 5 20
M  V30 20 1 6 21
M  V30 21 1 6 22
M  V30 22 1 7 23
M  V30 23 1 7 24
M  V30 24 1 8 25
M  V30 25 1 8 26
M  V30 26 1 9 27
M  V30 27 1 9 28
M  V30 28 1 9 29
M  V30 END BOND
M  V30 END CTAB
M  END
>  <NO.>
982

>  <Name>
2-methyl nonane

>  <SMILES>
CCCCCCC(C)C

>  <logBB>
0.98

>  <Class>
1

>  <MW>
128.16

>  <nHBAcc>
0

>  <nHBDon>
0

>  <SLogP>
3.61

>  <TopoPSA>
0

>  <MMFF94 Energy>
-0.44409

$$$$
COc1ccc(C(C)(C)C)cc1CNC1CCCNC1c1ccccc1
Actelion Java MolfileCreator 2.0

  0  0  0  0  0  0              0 V3000
M  V30 BEGIN CTAB
M  V30 COUNTS 58 60 0 0 0
M  V30 BEGIN ATOM
M  V30 1 O -2.2893 -1.7363 2.8425 0
M  V30 2 C -1.8582 -0.4593 2.5962 0
M  V30 3 C -1.2106 -2.5213 3.3545 0
M  V30 4 C -1.4831 -0.0705 1.3081 0
M  V30 5 C -1.8683 0.4625 3.6396 0
M  V30 6 C -1.0644 1.2613 1.1008 0
M  V30 7 C -1.4873 -1.0349 0.1447 0
M  V30 8 C -1.4548 1.7776 3.4145 0
M  V30 9 C -1.034 2.2075 2.1418 0
M  V30 10 N -0.125 -1.4857 -0.1587 0
M  V30 11 C -0.5709 3.6599 1.9296 0
M  V30 12 C -0.0569 -2.2765 -1.4046 0
M  V30 13 C -0.1135 3.967 0.4852 0
M  V30 14 C -1.7299 4.6253 2.2583 0
M  V30 15 C 0.6243 3.9657 2.8585 0
M  V30 16 C 1.3895 -2.2625 -2.0283 0
M  V30 17 C -0.4794 -3.7281 -1.1207 0
M  V30 18 N 1.506 -3.1348 -3.2126 0
M  V30 19 C 1.8496 -0.8505 -2.3887 0
M  V30 20 C -0.2975 -4.601 -2.3597 0
M  V30 21 C 1.1268 -4.5103 -2.8976 0
M  V30 22 C 3.0365 -0.3431 -1.8352 0
M  V30 23 C 1.111 -0.0267 -3.2552 0
M  V30 24 C 3.4622 0.9548 -2.1243 0
M  V30 25 C 1.5386 1.2712 -3.5432 0
M  V30 26 C 2.7118 1.7625 -2.9754 0
M  V30 27 H -0.3501 -2.5183 2.6768 0
M  V30 28 H -1.5636 -3.5528 3.4472 0
M  V30 29 H -0.9119 -2.1754 4.3501 0
M  V30 30 H -2.1979 0.1604 4.6295 0
M  V30 31 H -0.76 1.5385 0.0941 0
M  V30 32 H -1.927 -0.5189 -0.7189 0
M  V30 33 H -2.1393 -1.8878 0.3601 0
M  V30 34 H -1.4683 2.4673 4.2556 0
M  V30 35 H 0.4594 -0.6542 -0.262 0
M  V30 36 H -0.7486 -1.8532 -2.1457 0
M  V30 37 H -0.9253 3.8171 -0.2361 0
M  V30 38 H 0.2136 5.0093 0.3877 0
M  V30 39 H 0.7308 3.3349 0.1861 0
M  V30 40 H -2.0469 4.5508 3.3044 0
M  V30 41 H -1.4374 5.6676 2.0851 0
M  V30 42 H -2.6065 4.4165 1.6334 0
M  V30 43 H 1.4546 3.2738 2.6732 0
M  V30 44 H 0.3583 3.8842 3.9181 0
M  V30 45 H 0.9974 4.9845 2.7003 0
M  V30 46 H 2.081 -2.6526 -1.2672 0
M  V30 47 H 0.1209 -4.141 -0.2992 0
M  V30 48 H -1.5277 -3.7757 -0.8045 0
M  V30 49 H 0.9005 -2.7754 -3.9482 0
M  V30 50 H -0.5317 -5.6426 -2.112 0
M  V30 51 H -1.0082 -4.2894 -3.1356 0
M  V30 52 H 1.2104 -5.1153 -3.8071 0
M  V30 53 H 1.8345 -4.9351 -2.1753 0
M  V30 54 H 3.6386 -0.9598 -1.1708 0
M  V30 55 H 0.1957 -0.3884 -3.7164 0
M  V30 56 H 4.3828 1.3327 -1.687 0
M  V30 57 H 0.958 1.8976 -4.2154 0
M  V30 58 H 3.0462 2.7713 -3.2026 0
M  V30 END ATOM
M  V30 BEGIN BOND
M  V30 1 1 1 2
M  V30 2 1 1 3
M  V30 3 2 2 4
M  V30 4 1 2 5
M  V30 5 1 4 6
M  V30 6 1 4 7
M  V30 7 2 5 8
M  V30 8 2 6 9
M  V30 9 1 7 10
M  V30 10 1 9 11
M  V30 11 1 10 12
M  V30 12 1 11 13
M  V30 13 1 11 14
M  V30 14 1 11 15
M  V30 15 1 12 16
M  V30 16 1 12 17
M  V30 17 1 16 18
M  V30 18 1 16 19
M  V30 19 1 17 20
M  V30 20 1 18 21
M  V30 21 2 19 22
M  V30 22 1 19 23
M  V30 23 1 22 24
M  V30 24 2 23 25
M  V30 25 2 24 26
M  V30 26 1 8 9
M  V30 27 1 20 21
M  V30 28 1 25 26
M  V30 29 1 3 27
M  V30 30 1 3 28
M  V30 31 1 3 29
M  V30 32 1 5 30
M  V30 33 1 6 31
M  V30 34 1 7 32
M  V30 35 1 7 33
M  V30 36 1 8 34
M  V30 37 1 10 35
M  V30 38 1 12 36
M  V30 39 1 13 37
M  V30 40 1 13 38
M  V30 41 1 13 39
M  V30 42 1 14 40
M  V30 43 1 14 41
M  V30 44 1 14 42
M  V30 45 1 15 43
M  V30 46 1 15 44
M  V30 47 1 15 45
M  V30 48 1 16 46
M  V30 49 1 17 47
M  V30 50 1 17 48
M  V30 51 1 18 49
M  V30 52 1 20 50
M  V30 53 1 20 51
M  V30 54 1 21 52
M  V30 55 1 21 53
M  V30 56 1 22 54
M  V30 57 1 23 55
M  V30 58 1 24 56
M  V30 59 1 25 57
M  V30 60 1 26 58
M  V30 END BOND
M  V30 END CTAB
M  END
>  <NO.>
983

>  <Name>
pfizer compound 6

>  <SMILES>
COc1ccc(C(C)(C)C)cc1CNC1CCCNC1c1ccccc1

>  <logBB>
0.98

>  <Class>
1

>  <MW>
352.25

>  <nHBAcc>
3

>  <nHBDon>
2

>  <SLogP>
4.58

>  <TopoPSA>
33.29

>  <MMFF94 Energy>
90.309

$$$$
Ic1ccc(CN2CCCCC2)cc1CN1CCCCC1
Actelion Java MolfileCreator 2.0

  0  0  0  0  0  0              0 V3000
M  V30 BEGIN CTAB
M  V30 COUNTS 48 50 0 0 0
M  V30 BEGIN ATOM
M  V30 1 I -2.0074 3.2134 -3.133 0
M  V30 2 C -0.6237 1.7887 -2.446 0
M  V30 3 C -0.9765 0.651 -1.7004 0
M  V30 4 C 0.7164 2.0311 -2.781 0
M  V30 5 C 0.055 -0.2416 -1.3322 0
M  V30 6 C -2.3982 0.2889 -1.3021 0
M  V30 7 C 1.7181 1.1436 -2.3885 0
M  V30 8 C 1.398 -0.004 -1.6594 0
M  V30 9 N -2.5321 -0.0856 0.1207 0
M  V30 10 C 2.4794 -0.9742 -1.231 0
M  V30 11 C -3.8095 -0.7608 0.3916 0
M  V30 12 C -2.3371 1.0492 1.038 0
M  V30 13 N 3.4903 -0.3658 -0.3499 0
M  V30 14 C -5.0245 0.1697 0.3843 0
M  V30 15 C -3.5002 2.0446 1.0686 0
M  V30 16 C 4.6642 -1.2361 -0.1881 0
M  V30 17 C 2.9564 0.0304 0.9635 0
M  V30 18 C -4.8261 1.3422 1.3383 0
M  V30 19 C 4.417 -2.4618 0.6953 0
M  V30 20 C 2.6429 -1.1445 1.8935 0
M  V30 21 C 3.8515 -2.0605 2.0535 0
M  V30 22 H 1.0008 2.9136 -3.3493 0
M  V30 23 H -0.2029 -1.1333 -0.7605 0
M  V30 24 H -2.6672 -0.5717 -1.9302 0
M  V30 25 H -3.1136 1.0728 -1.5535 0
M  V30 26 H 2.7548 1.3524 -2.6445 0
M  V30 27 H 2.9597 -1.3219 -2.1559 0
M  V30 28 H 2.0276 -1.8645 -0.778 0
M  V30 29 H -3.7397 -1.243 1.3756 0
M  V30 30 H -3.9661 -1.5801 -0.3204 0
M  V30 31 H -1.405 1.5813 0.8155 0
M  V30 32 H -2.1976 0.6442 2.0492 0
M  V30 33 H -5.9186 -0.3924 0.6773 0
M  V30 34 H -5.2074 0.5453 -0.6293 0
M  V30 35 H -3.5593 2.5886 0.1193 0
M  V30 36 H -3.3196 2.7942 1.8476 0
M  V30 37 H 5.4751 -0.6406 0.2516 0
M  V30 38 H 5.0395 -1.5556 -1.168 0
M  V30 39 H 2.0678 0.6629 0.8569 0
M  V30 40 H 3.7018 0.6731 1.4509 0
M  V30 41 H -5.6548 2.052 1.24 0
M  V30 42 H -4.8392 0.9756 2.3723 0
M  V30 43 H 5.3573 -3.0065 0.8376 0
M  V30 44 H 3.7261 -3.1528 0.1982 0
M  V30 45 H 1.7927 -1.7183 1.5066 0
M  V30 46 H 2.3418 -0.7633 2.8761 0
M  V30 47 H 3.5742 -2.9532 2.6245 0
M  V30 48 H 4.6268 -1.5401 2.6294 0
M  V30 END ATOM
M  V30 BEGIN BOND
M  V30 1 1 1 2
M  V30 2 2 2 3
M  V30 3 1 2 4
M  V30 4 1 3 5
M  V30 5 1 3 6
M  V30 6 2 4 7
M  V30 7 2 5 8
M  V30 8 1 6 9
M  V30 9 1 8 10
M  V30 10 1 9 11
M  V30 11 1 9 12
M  V30 12 1 10 13
M  V30 13 1 11 14
M  V30 14 1 12 15
M  V30 15 1 13 16
M  V30 16 1 13 17
M  V30 17 1 14 18
M  V30 18 1 16 19
M  V30 19 1 17 20
M  V30 20 1 19 21
M  V30 21 1 7 8
M  V30 22 1 15 18
M  V30 23 1 20 21
M  V30 24 1 4 22
M  V30 25 1 5 23
M  V30 26 1 6 24
M  V30 27 1 6 25
M  V30 28 1 7 26
M  V30 29 1 10 27
M  V30 30 1 10 28
M  V30 31 1 11 29
M  V30 32 1 11 30
M  V30 33 1 12 31
M  V30 34 1 12 32
M  V30 35 1 14 33
M  V30 36 1 14 34
M  V30 37 1 15 35
M  V30 38 1 15 36
M  V30 39 1 16 37
M  V30 40 1 16 38
M  V30 41 1 17 39
M  V30 42 1 17 40
M  V30 43 1 18 41
M  V30 44 1 18 42
M  V30 45 1 19 43
M  V30 46 1 19 44
M  V30 47 1 20 45
M  V30 48 1 20 46
M  V30 49 1 21 47
M  V30 50 1 21 48
M  V30 END BOND
M  V30 END CTAB
M  END
>  <NO.>
984

>  <Name>
4-iodo-alpha,alpha'- dipiperidino-m-xylene

>  <SMILES>
Ic1ccc(CN2CCCCC2)cc1CN1CCCCC1

>  <logBB>
0.98

>  <Class>
1

>  <MW>
398.12

>  <nHBAcc>
2

>  <nHBDon>
0

>  <SLogP>
4.26

>  <TopoPSA>
6.48

>  <MMFF94 Energy>
30.267

$$$$
CC(CN(C)C)CN1c2ccccc2CCc2ccccc21
Actelion Java MolfileCreator 2.0

  0  0  0  0  0  0              0 V3000
M  V30 BEGIN CTAB
M  V30 COUNTS 48 50 0 0 0
M  V30 BEGIN ATOM
M  V30 1 N 0.7895 -0.7895 -0.4736 0
M  V30 2 C 0.3463 -0.45 -1.7792 0
M  V30 3 C 2.0222 -0.4238 0.1253 0
M  V30 4 C -0.0094 -1.7408 0.3446 0
M  V30 5 C 0.6999 0.7434 -2.4516 0
M  V30 6 C -0.4624 -1.3613 -2.5044 0
M  V30 7 C 2.425 0.9156 0.2256 0
M  V30 8 C 2.887 -1.4096 0.6407 0
M  V30 9 C -1.4275 -1.2152 0.6764 0 CFG=2
M  V30 10 C 0.2614 0.9608 -3.7833 0
M  V30 11 C 1.5465 1.863 -1.8825 0
M  V30 12 C -0.9033 -1.1224 -3.8099 0
M  V30 13 C 3.6353 1.2482 0.8611 0
M  V30 14 C 1.5757 2.0011 -0.3687 0
M  V30 15 C 4.0907 -1.0766 1.2657 0
M  V30 16 C -1.3469 -0.0868 1.7304 0
M  V30 17 C -2.2894 -2.3805 1.1798 0
M  V30 18 C -0.5369 0.043 -4.454 0
M  V30 19 C 4.4612 0.2561 1.3831 0
M  V30 20 N -2.6546 0.468 2.1374 0
M  V30 21 C -3.2847 1.2183 1.0473 0
M  V30 22 C -2.4816 1.3457 3.2988 0
M  V30 23 H -0.0503 -2.7143 -0.1588 0
M  V30 24 H 0.477 -1.9555 1.3065 0
M  V30 25 H -0.7546 -2.3136 -2.0733 0
M  V30 26 H 2.6343 -2.4619 0.5367 0
M  V30 27 H -1.8977 -0.8286 -0.2324 0
M  V30 28 H 0.5489 1.8722 -4.3059 0
M  V30 29 H 2.565 1.7573 -2.2796 0
M  V30 30 H 1.1535 2.8133 -2.2698 0
M  V30 31 H -1.5183 -1.8596 -4.3185 0
M  V30 32 H 3.9451 2.2876 0.942 0
M  V30 33 H 0.5683 1.9864 0.0594 0
M  V30 34 H 1.9982 2.9812 -0.1131 0
M  V30 35 H 4.737 -1.8598 1.6517 0
M  V30 36 H -0.7008 0.7198 1.37 0
M  V30 37 H -0.8548 -0.5022 2.6206 0
M  V30 38 H -1.8872 -2.7994 2.1086 0
M  V30 39 H -3.3199 -2.0628 1.3676 0
M  V30 40 H -2.3274 -3.1828 0.4352 0
M  V30 41 H -0.8619 0.2375 -5.4718 0
M  V30 42 H 5.3969 0.5233 1.8663 0
M  V30 43 H -3.5384 0.5635 0.2083 0
M  V30 44 H -2.6448 2.0277 0.6775 0
M  V30 45 H -4.2319 1.6573 1.3816 0
M  V30 46 H -1.8235 2.1951 3.0817 0
M  V30 47 H -2.0608 0.7891 4.1436 0
M  V30 48 H -3.4491 1.7351 3.6352 0
M  V30 END ATOM
M  V30 BEGIN BOND
M  V30 1 1 1 2
M  V30 2 1 1 3
M  V30 3 1 1 4
M  V30 4 2 2 5
M  V30 5 1 2 6
M  V30 6 2 3 7
M  V30 7 1 3 8
M  V30 8 1 4 9
M  V30 9 1 5 10
M  V30 10 1 5 11
M  V30 11 2 6 12
M  V30 12 1 7 13
M  V30 13 1 7 14
M  V30 14 2 8 15
M  V30 15 1 9 16
M  V30 16 1 9 17
M  V30 17 2 10 18
M  V30 18 2 13 19
M  V30 19 1 16 20
M  V30 20 1 20 21
M  V30 21 1 20 22
M  V30 22 1 11 14
M  V30 23 1 12 18
M  V30 24 1 15 19
M  V30 25 1 4 23
M  V30 26 1 4 24
M  V30 27 1 6 25
M  V30 28 1 8 26
M  V30 29 1 9 27
M  V30 30 1 10 28
M  V30 31 1 11 29
M  V30 32 1 11 30
M  V30 33 1 12 31
M  V30 34 1 13 32
M  V30 35 1 14 33
M  V30 36 1 14 34
M  V30 37 1 15 35
M  V30 38 1 16 36
M  V30 39 1 16 37
M  V30 40 1 17 38
M  V30 41 1 17 39
M  V30 42 1 17 40
M  V30 43 1 18 41
M  V30 44 1 19 42
M  V30 45 1 21 43
M  V30 46 1 21 44
M  V30 47 1 21 45
M  V30 48 1 22 46
M  V30 49 1 22 47
M  V30 50 1 22 48
M  V30 END BOND
M  V30 BEGIN COLLECTION
M  V30 MDLV30/STERAC1 ATOMS=(1 9)
M  V30 END COLLECTION
M  V30 END CTAB
M  END
>  <NO.>
987

>  <Name>
trimipramine

>  <SMILES>
CC(CN(C)C)CN1c2ccccc2CCc2ccccc21

>  <logBB>
0.99

>  <Class>
1

>  <MW>
294.21

>  <nHBAcc>
2

>  <nHBDon>
0

>  <SLogP>
4.12

>  <TopoPSA>
6.48

>  <MMFF94 Energy>
67.961

$$$$
CN1CCN2c3ccccc3Cc3ccccc3C2C1
Actelion Java MolfileCreator 2.0

  0  0  0  0  0  0              0 V3000
M  V30 BEGIN CTAB
M  V30 COUNTS 40 43 0 0 0
M  V30 BEGIN ATOM
M  V30 1 N 0.9615 0.3204 0.5608 0
M  V30 2 C 1.1549 1.3368 -0.3652 0
M  V30 3 C 0.2898 -0.9552 0.1829 0 CFG=2
M  V30 4 C 1.9456 0.1846 1.6496 0
M  V30 5 C 0.0416 2.0037 -0.9079 0
M  V30 6 C 2.4301 1.7654 -0.7632 0
M  V30 7 C -0.8401 -0.9184 -0.8542 0
M  V30 8 C -0.2667 -1.648 1.4779 0
M  V30 9 C 1.3214 -0.5082 2.879 0
M  V30 10 C 0.2102 3.0526 -1.8276 0
M  V30 11 C -1.3405 1.5488 -0.5126 0
M  V30 12 C 2.5976 2.8125 -1.6747 0
M  V30 13 C -1.6432 0.207 -1.1302 0
M  V30 14 C -1.1281 -2.1216 -1.5367 0
M  V30 15 N 0.744 -1.827 2.5506 0
M  V30 16 C 1.4868 3.4568 -2.2067 0
M  V30 17 C -2.7055 0.1021 -2.0475 0
M  V30 18 C -2.1816 -2.2119 -2.447 0
M  V30 19 C 0.1341 -2.4308 3.7336 0
M  V30 20 C -2.9746 -1.1 -2.6979 0
M  V30 21 H 1.0794 -1.5966 -0.236 0
M  V30 22 H 2.8112 -0.3921 1.2998 0
M  V30 23 H 2.3039 1.17 1.9739 0
M  V30 24 H 3.3192 1.2723 -0.3816 0
M  V30 25 H -0.6617 -2.6372 1.2134 0
M  V30 26 H -1.1137 -1.0592 1.8601 0
M  V30 27 H 0.5519 0.1496 3.3058 0
M  V30 28 H 2.1048 -0.6305 3.6367 0
M  V30 29 H -0.6556 3.552 -2.2545 0
M  V30 30 H -2.082 2.295 -0.8256 0
M  V30 31 H -1.4361 1.4921 0.5794 0
M  V30 32 H 3.5976 3.117 -1.9706 0
M  V30 33 H -0.5246 -3.0094 -1.3534 0
M  V30 34 H 1.6138 4.2667 -2.9195 0
M  V30 35 H -3.3218 0.9698 -2.2733 0
M  V30 36 H -2.3806 -3.1501 -2.9577 0
M  V30 37 H 0.8855 -2.5824 4.5164 0
M  V30 38 H -0.6741 -1.8165 4.1469 0
M  V30 39 H -0.2731 -3.4189 3.4925 0
M  V30 40 H -3.7944 -1.163 -3.4082 0
M  V30 END ATOM
M  V30 BEGIN BOND
M  V30 1 1 1 2
M  V30 2 1 1 3
M  V30 3 1 1 4
M  V30 4 2 2 5
M  V30 5 1 2 6
M  V30 6 1 3 7
M  V30 7 1 3 8
M  V30 8 1 4 9
M  V30 9 1 5 10
M  V30 10 1 5 11
M  V30 11 2 6 12
M  V30 12 2 7 13
M  V30 13 1 7 14
M  V30 14 1 8 15
M  V30 15 2 10 16
M  V30 16 1 13 17
M  V30 17 2 14 18
M  V30 18 1 15 19
M  V30 19 2 17 20
M  V30 20 1 9 15
M  V30 21 1 11 13
M  V30 22 1 12 16
M  V30 23 1 18 20
M  V30 24 1 3 21
M  V30 25 1 4 22
M  V30 26 1 4 23
M  V30 27 1 6 24
M  V30 28 1 8 25
M  V30 29 1 8 26
M  V30 30 1 9 27
M  V30 31 1 9 28
M  V30 32 1 10 29
M  V30 33 1 11 30
M  V30 34 1 11 31
M  V30 35 1 12 32
M  V30 36 1 14 33
M  V30 37 1 16 34
M  V30 38 1 17 35
M  V30 39 1 18 36
M  V30 40 1 19 37
M  V30 41 1 19 38
M  V30 42 1 19 39
M  V30 43 1 20 40
M  V30 END BOND
M  V30 BEGIN COLLECTION
M  V30 MDLV30/STERAC1 ATOMS=(1 3)
M  V30 END COLLECTION
M  V30 END CTAB
M  END
>  <NO.>
988

>  <Name>
24219-97-4

>  <SMILES>
CN1CCN2c3ccccc3Cc3ccccc3C2C1

>  <logBB>
0.99

>  <Class>
1

>  <MW>
264.16

>  <nHBAcc>
2

>  <nHBDon>
0

>  <SLogP>
3.08

>  <TopoPSA>
6.48

>  <MMFF94 Energy>
152.18

$$$$
CN1CC[C@@]2(C)c3cc(OC(=O)Nc4ccccc4)ccc3N(C)[C@@H]12
Actelion Java MolfileCreator 2.0

  0  0  0  0  0  0              0 V3000
M  V30 BEGIN CTAB
M  V30 COUNTS 48 51 0 0 0
M  V30 BEGIN ATOM
M  V30 1 O -0.9549 -0.4774 2.6278 0
M  V30 2 C -0.2298 -1.4615 2.6329 0
M  V30 3 O 0.8707 -1.6441 1.7983 0
M  V30 4 N -0.3346 -2.5693 3.4345 0
M  V30 5 C 1.1343 -0.6366 0.8575 0
M  V30 6 C -1.286 -2.8395 4.4328 0
M  V30 7 C 0.2026 -0.3 -0.1213 0
M  V30 8 C 2.4057 -0.052 0.8868 0
M  V30 9 C -2.2935 -1.9495 4.8096 0
M  V30 10 C -1.1999 -4.0788 5.0805 0
M  V30 11 C 0.5685 0.6661 -1.0489 0
M  V30 12 C 2.7505 0.9175 -0.061 0
M  V30 13 C -3.202 -2.2938 5.816 0
M  V30 14 C -2.1078 -4.4226 6.0857 0
M  V30 15 C 1.8279 1.2774 -1.0315 0
M  V30 16 C -0.2402 1.2272 -2.1855 0 CFG=1
M  V30 17 C -3.1099 -3.5288 6.4534 0
M  V30 18 N 1.9687 2.213 -2.0376 0
M  V30 19 C 0.8154 2.1336 -2.9337 0 CFG=1
M  V30 20 C -0.6534 0.1793 -3.2197 0
M  V30 21 C -1.4336 2.0427 -1.6782 0
M  V30 22 C 3.2037 2.8487 -2.4048 0
M  V30 23 N 0.9369 1.517 -4.2703 0
M  V30 24 C -0.3364 0.853 -4.5408 0
M  V30 25 C 1.2822 2.4715 -5.3109 0
M  V30 26 H 0.3733 -3.2677 3.2579 0
M  V30 27 H -0.7749 -0.7669 -0.155 0
M  V30 28 H 3.1249 -0.3457 1.6452 0
M  V30 29 H -2.4005 -0.9753 4.3423 0
M  V30 30 H -0.4274 -4.7947 4.8124 0
M  V30 31 H 3.7329 1.3745 -0.0273 0
M  V30 32 H -3.9818 -1.5912 6.1001 0
M  V30 33 H -2.0319 -5.3872 6.5808 0
M  V30 34 H -3.8178 -3.7922 7.235 0
M  V30 35 H 0.395 3.1444 -3.0383 0
M  V30 36 H -0.0636 -0.7417 -3.1236 0
M  V30 37 H -1.7104 -0.0989 -3.1498 0
M  V30 38 H -1.9689 2.5203 -2.5062 0
M  V30 39 H -1.1146 2.8322 -0.9877 0
M  V30 40 H -2.148 1.4077 -1.1417 0
M  V30 41 H 3.02 3.7034 -3.0637 0
M  V30 42 H 3.8634 2.1469 -2.9252 0
M  V30 43 H 3.7293 3.238 -1.5265 0
M  V30 44 H -0.251 0.1208 -5.35 0
M  V30 45 H -1.1252 1.5709 -4.7998 0
M  V30 46 H 1.3446 1.9686 -6.2825 0
M  V30 47 H 2.2658 2.9138 -5.1285 0
M  V30 48 H 0.5496 3.2823 -5.3956 0
M  V30 END ATOM
M  V30 BEGIN BOND
M  V30 1 2 1 2
M  V30 2 1 2 3
M  V30 3 1 2 4
M  V30 4 1 3 5
M  V30 5 1 4 6
M  V30 6 2 5 7
M  V30 7 1 5 8
M  V30 8 2 6 9
M  V30 9 1 6 10
M  V30 10 1 7 11
M  V30 11 2 8 12
M  V30 12 1 9 13
M  V30 13 2 10 14
M  V30 14 2 11 15
M  V30 15 1 11 16
M  V30 16 2 13 17
M  V30 17 1 15 18
M  V30 18 1 16 19
M  V30 19 1 16 20
M  V30 20 1 16 21
M  V30 21 1 18 22
M  V30 22 1 19 23
M  V30 23 1 20 24
M  V30 24 1 23 25
M  V30 25 1 12 15
M  V30 26 1 14 17
M  V30 27 1 18 19
M  V30 28 1 23 24
M  V30 29 1 4 26
M  V30 30 1 7 27
M  V30 31 1 8 28
M  V30 32 1 9 29
M  V30 33 1 10 30
M  V30 34 1 12 31
M  V30 35 1 13 32
M  V30 36 1 14 33
M  V30 37 1 17 34
M  V30 38 1 19 35
M  V30 39 1 20 36
M  V30 40 1 20 37
M  V30 41 1 21 38
M  V30 42 1 21 39
M  V30 43 1 21 40
M  V30 44 1 22 41
M  V30 45 1 22 42
M  V30 46 1 22 43
M  V30 47 1 24 44
M  V30 48 1 24 45
M  V30 49 1 25 46
M  V30 50 1 25 47
M  V30 51 1 25 48
M  V30 END BOND
M  V30 BEGIN COLLECTION
M  V30 MDLV30/STEABS ATOMS=(2 16 19)
M  V30 END COLLECTION
M  V30 END CTAB
M  END
>  <NO.>
989

>  <Name>
phenserine

>  <SMILES>
CN1CC[C@@]2(C)c3cc(OC(=O)Nc4ccccc4)ccc3N(C)[C@@H]12

>  <logBB>
1

>  <Class>
1

>  <MW>
337.18

>  <nHBAcc>
4

>  <nHBDon>
1

>  <SLogP>
3.67

>  <TopoPSA>
44.81

>  <MMFF94 Energy>
10.3

$$$$
CCCC(C)C
Actelion Java MolfileCreator 2.0

  0  0  0  0  0  0              0 V3000
M  V30 BEGIN CTAB
M  V30 COUNTS 20 19 0 0 0
M  V30 BEGIN ATOM
M  V30 1 C -0.2268 0.9077 -0.6807 0
M  V30 2 C -0.4573 -0.3276 0.2089 0
M  V30 3 C 1.1187 0.8631 -1.4058 0
M  V30 4 C -1.3598 1.0296 -1.7028 0
M  V30 5 C 0.5476 -0.4483 1.3568 0
M  V30 6 C 0.2027 -1.6109 2.2755 0
M  V30 7 H -0.247 1.8049 -0.0492 0
M  V30 8 H -0.422 -1.2378 -0.4031 0
M  V30 9 H -1.4687 -0.2739 0.6323 0
M  V30 10 H 1.9536 0.9048 -0.6999 0
M  V30 11 H 1.219 -0.0508 -2.0007 0
M  V30 12 H 1.2241 1.7188 -2.0814 0
M  V30 13 H -2.3303 1.1065 -1.2012 0
M  V30 14 H -1.3897 0.1605 -2.3687 0
M  V30 15 H -1.2331 1.9255 -2.3198 0
M  V30 16 H 1.5582 -0.6026 0.9647 0
M  V30 17 H 0.5601 0.4789 1.9409 0
M  V30 18 H 0.9347 -1.6833 3.086 0
M  V30 19 H -0.787 -1.4773 2.7234 0
M  V30 20 H 0.2075 -2.5583 1.7273 0
M  V30 END ATOM
M  V30 BEGIN BOND
M  V30 1 1 1 2
M  V30 2 1 1 3
M  V30 3 1 1 4
M  V30 4 1 2 5
M  V30 5 1 5 6
M  V30 6 1 1 7
M  V30 7 1 2 8
M  V30 8 1 2 9
M  V30 9 1 3 10
M  V30 10 1 3 11
M  V30 11 1 3 12
M  V30 12 1 4 13
M  V30 13 1 4 14
M  V30 14 1 4 15
M  V30 15 1 5 16
M  V30 16 1 5 17
M  V30 17 1 6 18
M  V30 18 1 6 19
M  V30 19 1 6 20
M  V30 END BOND
M  V30 END CTAB
M  END
>  <NO.>
990

>  <Name>
2-methylpentane (isohexane)

>  <SMILES>
CCCC(C)C

>  <logBB>
1

>  <Class>
1

>  <MW>
86.11

>  <nHBAcc>
0

>  <nHBDon>
0

>  <SLogP>
2.44

>  <TopoPSA>
0

>  <MMFF94 Energy>
0.18486

$$$$
CC(C)(C)OC(=O)CCCc1ccc(N(CCCl)CCCl)cc1
Actelion Java MolfileCreator 2.0

  0  0  0  0  0  0              0 V3000
M  V30 BEGIN CTAB
M  V30 COUNTS 50 50 0 0 0
M  V30 BEGIN ATOM
M  V30 1 Cl -1.6707 -5.5773 -2.8653 0
M  V30 2 C -1.8025 -6.3353 -1.2588 0
M  V30 3 C -0.8018 -5.7646 -0.2483 0
M  V30 4 N -1.2503 -4.483 0.3239 0
M  V30 5 C -0.9725 -3.2773 -0.3061 0
M  V30 6 C -2.0115 -4.5294 1.5848 0
M  V30 7 C -1.8787 -2.2061 -0.2934 0
M  V30 8 C 0.2329 -3.058 -0.9899 0
M  V30 9 C -1.1195 -4.3248 2.814 0
M  V30 10 C -1.6024 -0.9857 -0.9256 0
M  V30 11 C 0.5209 -1.8423 -1.6258 0
M  V30 12 Cl -0.7672 -2.6083 3.135 0
M  V30 13 C -0.399 -0.7947 -1.6033 0
M  V30 14 C -0.0858 0.5215 -2.2644 0
M  V30 15 C 0.6493 1.4665 -1.3141 0
M  V30 16 C 0.948 2.8009 -1.9862 0
M  V30 17 C 1.7184 3.7046 -1.0589 0
M  V30 18 O 2.918 3.9148 -1.1592 0
M  V30 19 O 0.886 4.2226 -0.1181 0
M  V30 20 C 1.3927 5.1019 0.9183 0
M  V30 21 C 2.4117 4.3817 1.8079 0
M  V30 22 C 0.1618 5.4537 1.7675 0
M  V30 23 C 1.9628 6.3937 0.3231 0
M  V30 24 H -2.8348 -6.2172 -0.9153 0
M  V30 25 H -1.6095 -7.4022 -1.405 0
M  V30 26 H 0.2028 -5.7156 -0.679 0
M  V30 27 H -0.7132 -6.49 0.5711 0
M  V30 28 H -2.8634 -3.8424 1.5971 0
M  V30 29 H -2.4636 -5.5263 1.6727 0
M  V30 30 H -2.8451 -2.3013 0.1906 0
M  V30 31 H 1.0022 -3.8223 -1.0192 0
M  V30 32 H -0.1656 -4.8512 2.7131 0
M  V30 33 H -1.6288 -4.7049 3.7047 0
M  V30 34 H -2.3426 -0.1905 -0.8824 0
M  V30 35 H 1.4764 -1.7251 -2.131 0
M  V30 36 H -1.0171 0.9853 -2.6136 0
M  V30 37 H 0.5174 0.3425 -3.1634 0
M  V30 38 H 1.5869 1.0072 -0.9751 0
M  V30 39 H 0.0483 1.6323 -0.4106 0
M  V30 40 H 1.5486 2.6531 -2.8912 0
M  V30 41 H 0.0294 3.3112 -2.2975 0
M  V30 42 H 3.3407 4.165 1.2725 0
M  V30 43 H 2.672 4.9847 2.6845 0
M  V30 44 H 2.0158 3.4195 2.1518 0
M  V30 45 H -0.2977 4.5484 2.1813 0
M  V30 46 H 0.4165 6.1221 2.5967 0
M  V30 47 H -0.6079 5.9387 1.1559 0
M  V30 48 H 2.8841 6.2135 -0.2385 0
M  V30 49 H 1.2515 6.8461 -0.377 0
M  V30 50 H 2.1941 7.1247 1.1054 0
M  V30 END ATOM
M  V30 BEGIN BOND
M  V30 1 1 1 2
M  V30 2 1 2 3
M  V30 3 1 3 4
M  V30 4 1 4 5
M  V30 5 1 4 6
M  V30 6 2 5 7
M  V30 7 1 5 8
M  V30 8 1 6 9
M  V30 9 1 7 10
M  V30 10 2 8 11
M  V30 11 1 9 12
M  V30 12 2 10 13
M  V30 13 1 13 14
M  V30 14 1 14 15
M  V30 15 1 15 16
M  V30 16 1 16 17
M  V30 17 2 17 18
M  V30 18 1 17 19
M  V30 19 1 19 20
M  V30 20 1 20 21
M  V30 21 1 20 22
M  V30 22 1 20 23
M  V30 23 1 11 13
M  V30 24 1 2 24
M  V30 25 1 2 25
M  V30 26 1 3 26
M  V30 27 1 3 27
M  V30 28 1 6 28
M  V30 29 1 6 29
M  V30 30 1 7 30
M  V30 31 1 8 31
M  V30 32 1 9 32
M  V30 33 1 9 33
M  V30 34 1 10 34
M  V30 35 1 11 35
M  V30 36 1 14 36
M  V30 37 1 14 37
M  V30 38 1 15 38
M  V30 39 1 15 39
M  V30 40 1 16 40
M  V30 41 1 16 41
M  V30 42 1 21 42
M  V30 43 1 21 43
M  V30 44 1 21 44
M  V30 45 1 22 45
M  V30 46 1 22 46
M  V30 47 1 22 47
M  V30 48 1 23 48
M  V30 49 1 23 49
M  V30 50 1 23 50
M  V30 END BOND
M  V30 END CTAB
M  END
>  <NO.>
991

>  <Name>
tertbutylchlorambucil

>  <SMILES>
CC(C)(C)OC(=O)CCCc1ccc(N(CCCl)CCCl)cc1

>  <logBB>
1

>  <Class>
1

>  <MW>
359.14

>  <nHBAcc>
3

>  <nHBDon>
0

>  <SLogP>
4.64

>  <TopoPSA>
29.54

>  <MMFF94 Energy>
64.217

$$$$
CCC(C)(C)C
Actelion Java MolfileCreator 2.0

  0  0  0  0  0  0              0 V3000
M  V30 BEGIN CTAB
M  V30 COUNTS 20 19 0 0 0
M  V30 BEGIN ATOM
M  V30 1 C 0.2272 0.1515 -0.303 0
M  V30 2 C 0.2517 -0.8898 0.8453 0
M  V30 3 C -0.876 -0.1732 -1.3235 0
M  V30 4 C 1.5889 0.1056 -1.0231 0
M  V30 5 C 0.0104 1.5731 0.2412 0
M  V30 6 C -1.0206 -0.9897 1.6779 0
M  V30 7 H 0.4631 -1.8831 0.4284 0
M  V30 8 H 1.0838 -0.6603 1.5239 0
M  V30 9 H -0.827 0.5028 -2.1848 0
M  V30 10 H -0.7771 -1.1975 -1.6994 0
M  V30 11 H -1.8751 -0.0688 -0.8881 0
M  V30 12 H 1.7821 -0.8887 -1.441 0
M  V30 13 H 1.627 0.8256 -1.8484 0
M  V30 14 H 2.4083 0.3447 -0.3359 0
M  V30 15 H 0.0943 2.3179 -0.5585 0
M  V30 16 H -0.9823 1.6899 0.6876 0
M  V30 17 H 0.7553 1.8213 1.0053 0
M  V30 18 H -0.8944 -1.7504 2.4555 0
M  V30 19 H -1.8802 -1.2835 1.0693 0
M  V30 20 H -1.2517 -0.0454 2.1785 0
M  V30 END ATOM
M  V30 BEGIN BOND
M  V30 1 1 1 2
M  V30 2 1 1 3
M  V30 3 1 1 4
M  V30 4 1 1 5
M  V30 5 1 2 6
M  V30 6 1 2 7
M  V30 7 1 2 8
M  V30 8 1 3 9
M  V30 9 1 3 10
M  V30 10 1 3 11
M  V30 11 1 4 12
M  V30 12 1 4 13
M  V30 13 1 4 14
M  V30 14 1 5 15
M  V30 15 1 5 16
M  V30 16 1 5 17
M  V30 17 1 6 18
M  V30 18 1 6 19
M  V30 19 1 6 20
M  V30 END BOND
M  V30 END CTAB
M  END
>  <NO.>
992

>  <Name>
2,2-dimethylbutane

>  <SMILES>
CCC(C)(C)C

>  <logBB>
1

>  <Class>
1

>  <MW>
86.11

>  <nHBAcc>
0

>  <nHBDon>
0

>  <SLogP>
2.44

>  <TopoPSA>
0

>  <MMFF94 Energy>
10.235

$$$$
CCC(C)CC
Actelion Java MolfileCreator 2.0

  0  0  0  0  0  0              0 V3000
M  V30 BEGIN CTAB
M  V30 COUNTS 20 19 0 0 0
M  V30 BEGIN ATOM
M  V30 1 C 0.0756 0.2269 0.3783 0
M  V30 2 C -0.8069 -0.2627 -0.787 0
M  V30 3 C 1.5265 -0.2821 0.2494 0
M  V30 4 C 0.092 1.7572 0.4738 0
M  V30 5 C -2.2589 0.1877 -0.6918 0
M  V30 6 C 1.6588 -1.7965 0.332 0
M  V30 7 H -0.3412 -0.1609 1.3171 0
M  V30 8 H -0.3893 0.0772 -1.7424 0
M  V30 9 H -0.8061 -1.3579 -0.8129 0
M  V30 10 H 2.131 0.1514 1.0562 0
M  V30 11 H 1.965 0.0662 -0.6936 0
M  V30 12 H 0.7662 2.091 1.2701 0
M  V30 13 H 0.4281 2.2092 -0.4653 0
M  V30 14 H -0.9003 2.1535 0.7096 0
M  V30 15 H -2.3551 1.2689 -0.8268 0
M  V30 16 H -2.8521 -0.2938 -1.476 0
M  V30 17 H -2.6926 -0.084 0.2756 0
M  V30 18 H 2.7164 -2.078 0.3625 0
M  V30 19 H 1.2147 -2.2887 -0.5377 0
M  V30 20 H 1.1793 -2.1849 1.2359 0
M  V30 END ATOM
M  V30 BEGIN BOND
M  V30 1 1 1 2
M  V30 2 1 1 3
M  V30 3 1 1 4
M  V30 4 1 2 5
M  V30 5 1 3 6
M  V30 6 1 1 7
M  V30 7 1 2 8
M  V30 8 1 2 9
M  V30 9 1 3 10
M  V30 10 1 3 11
M  V30 11 1 4 12
M  V30 12 1 4 13
M  V30 13 1 4 14
M  V30 14 1 5 15
M  V30 15 1 5 16
M  V30 16 1 5 17
M  V30 17 1 6 18
M  V30 18 1 6 19
M  V30 19 1 6 20
M  V30 END BOND
M  V30 END CTAB
M  END
>  <NO.>
993

>  <Name>
3-methylpentane

>  <SMILES>
CCC(C)CC

>  <logBB>
1

>  <Class>
1

>  <MW>
86.11

>  <nHBAcc>
0

>  <nHBDon>
0

>  <SLogP>
2.44

>  <TopoPSA>
0

>  <MMFF94 Energy>
1.4523

$$$$
CN(C)CC/C=C1\c2ccccc2COc2ccccc21
Actelion Java MolfileCreator 2.0

  0  0  0  0  0  0              0 V3000
M  V30 BEGIN CTAB
M  V30 COUNTS 42 44 0 0 0
M  V30 BEGIN ATOM
M  V30 1 O 2.4613 2.3818 -0.2379 0
M  V30 2 C 2.923 1.0914 -0.2793 0
M  V30 3 C 2.0262 2.7118 1.0871 0
M  V30 4 C 2.0218 0.0225 -0.2291 0
M  V30 5 C 4.2898 0.8736 -0.4357 0
M  V30 6 C 0.6691 2.1993 1.5469 0
M  V30 7 C 0.5729 0.3185 -0.144 0
M  V30 8 C 2.5157 -1.286 -0.2829 0
M  V30 9 C 4.7732 -0.4333 -0.4942 0
M  V30 10 C 0.0095 1.0757 1.0041 0
M  V30 11 C 0.0942 2.8585 2.6566 0
M  V30 12 C -0.1368 -0.0014 -1.2517 0
M  V30 13 C 3.8889 -1.5113 -0.4108 0
M  V30 14 C -1.1693 0.6207 1.6249 0
M  V30 15 C -1.0971 2.4153 3.2278 0
M  V30 16 C -1.573 0.3017 -1.5919 0
M  V30 17 C -1.7253 1.2892 2.7163 0
M  V30 18 C -2.4012 -0.9118 -2.0658 0
M  V30 19 N -2.8816 -1.8026 -0.9894 0
M  V30 20 C -1.8465 -2.7459 -0.5581 0
M  V30 21 C -4.0521 -2.557 -1.4512 0
M  V30 22 H 1.9926 3.8084 1.1058 0
M  V30 23 H 2.7894 2.4144 1.8208 0
M  V30 24 H 4.9718 1.7154 -0.5065 0
M  V30 25 H 1.834 -2.1308 -0.2299 0
M  V30 26 H 5.8393 -0.6125 -0.6068 0
M  V30 27 H 0.5896 3.7244 3.0927 0
M  V30 28 H 0.3894 -0.4908 -2.0728 0
M  V30 29 H 4.2687 -2.5289 -0.4547 0
M  V30 30 H -1.6727 -0.2718 1.2591 0
M  V30 31 H -1.5224 2.938 4.0803 0
M  V30 32 H -1.5425 1.0153 -2.427 0
M  V30 33 H -2.108 0.8241 -0.7951 0
M  V30 34 H -2.6448 0.922 3.1642 0
M  V30 35 H -3.2765 -0.4795 -2.5706 0
M  V30 36 H -1.8598 -1.4766 -2.8365 0
M  V30 37 H -0.9987 -2.2351 -0.0977 0
M  V30 38 H -1.4744 -3.3602 -1.386 0
M  V30 39 H -2.2402 -3.4183 0.2132 0
M  V30 40 H -3.8241 -3.1803 -2.3235 0
M  V30 41 H -4.8702 -1.8772 -1.7148 0
M  V30 42 H -4.4345 -3.2039 -0.6534 0
M  V30 END ATOM
M  V30 BEGIN BOND
M  V30 1 1 1 2
M  V30 2 1 1 3
M  V30 3 2 2 4
M  V30 4 1 2 5
M  V30 5 1 3 6
M  V30 6 1 4 7
M  V30 7 1 4 8
M  V30 8 2 5 9
M  V30 9 2 6 10
M  V30 10 1 6 11
M  V30 11 2 7 12
M  V30 12 2 8 13
M  V30 13 1 10 14
M  V30 14 2 11 15
M  V30 15 1 12 16
M  V30 16 2 14 17
M  V30 17 1 16 18
M  V30 18 1 18 19
M  V30 19 1 19 20
M  V30 20 1 19 21
M  V30 21 1 7 10
M  V30 22 1 9 13
M  V30 23 1 15 17
M  V30 24 1 3 22
M  V30 25 1 3 23
M  V30 26 1 5 24
M  V30 27 1 8 25
M  V30 28 1 9 26
M  V30 29 1 11 27
M  V30 30 1 12 28
M  V30 31 1 13 29
M  V30 32 1 14 30
M  V30 33 1 15 31
M  V30 34 1 16 32
M  V30 35 1 16 33
M  V30 36 1 17 34
M  V30 37 1 18 35
M  V30 38 1 18 36
M  V30 39 1 20 37
M  V30 40 1 20 38
M  V30 41 1 20 39
M  V30 42 1 21 40
M  V30 43 1 21 41
M  V30 44 1 21 42
M  V30 END BOND
M  V30 END CTAB
M  END
>  <NO.>
994

>  <Name>
doxepin

>  <SMILES>
CN(C)CC/C=C1\c2ccccc2COc2ccccc21

>  <logBB>
1

>  <Class>
1

>  <MW>
279.16

>  <nHBAcc>
2

>  <nHBDon>
0

>  <SLogP>
3.96

>  <TopoPSA>
12.47

>  <MMFF94 Energy>
96.141

$$$$
CS(=O)(=O)NC1CCC(CCN2CCN(c3cccc(Cl)c3Cl)CC2)CC1
Actelion Java MolfileCreator 2.0

  0  0  0  0  0  0              0 V3000
M  V30 BEGIN CTAB
M  V30 COUNTS 56 58 0 0 0
M  V30 BEGIN ATOM
M  V30 1 Cl 1.4665 5.2216 3.5877 0
M  V30 2 C 2.365 3.8676 4.2184 0
M  V30 3 C 3.3326 4.0715 5.2173 0
M  V30 4 C 2.0808 2.5594 3.7511 0
M  V30 5 Cl 3.7261 5.6423 5.8309 0
M  V30 6 C 4.0225 2.9864 5.7622 0
M  V30 7 N 1.1439 2.3218 2.7446 0
M  V30 8 C 2.7911 1.4897 4.3253 0
M  V30 9 C 3.7506 1.6968 5.3183 0
M  V30 10 C 1.5702 2.6174 1.3667 0
M  V30 11 C 0.2097 1.1951 2.8635 0
M  V30 12 C 0.34 2.7652 0.4427 0
M  V30 13 C -0.9889 1.383 1.9026 0
M  V30 14 N -0.5726 1.5943 0.4942 0
M  V30 15 C -1.7252 1.8199 -0.3916 0
M  V30 16 C -2.6184 0.5838 -0.591 0
M  V30 17 C -1.8851 -0.6943 -1.0495 0
M  V30 18 C -2.8852 -1.8579 -1.1422 0
M  V30 19 C -1.1638 -0.5065 -2.392 0
M  V30 20 C -2.2159 -3.1438 -1.6179 0
M  V30 21 C -0.5077 -1.7986 -2.8792 0
M  V30 22 C -1.507 -2.9532 -2.9659 0
M  V30 23 N -0.8256 -4.225 -3.3018 0
M  V30 24 S -0.2173 -4.4508 -4.8561 0
M  V30 25 O -0.3995 -5.859 -5.132 0
M  V30 26 O -0.7533 -3.4304 -5.7266 0
M  V30 27 C 1.5228 -4.1667 -4.6103 0
M  V30 28 H 4.7718 3.1413 6.5349 0
M  V30 29 H 2.6161 0.4724 3.9835 0
M  V30 30 H 4.2879 0.8503 5.7391 0
M  V30 31 H 2.1596 3.5397 1.3114 0
M  V30 32 H 2.2093 1.8025 1.0026 0
M  V30 33 H 0.7194 0.2531 2.6253 0
M  V30 34 H -0.175 1.1246 3.8883 0
M  V30 35 H 0.7037 2.8985 -0.5832 0
M  V30 36 H -0.2041 3.6783 0.7202 0
M  V30 37 H -1.5914 2.2337 2.249 0
M  V30 38 H -1.6118 0.4853 1.9806 0
M  V30 39 H -1.3664 2.1333 -1.38 0
M  V30 40 H -2.3438 2.6474 -0.019 0
M  V30 41 H -3.1589 0.3739 0.3404 0
M  V30 42 H -3.3894 0.841 -1.3295 0
M  V30 43 H -1.1365 -0.9609 -0.2916 0
M  V30 44 H -3.6993 -1.5982 -1.8312 0
M  V30 45 H -3.3436 -2.0344 -0.1615 0
M  V30 46 H -0.3867 0.2608 -2.3046 0
M  V30 47 H -1.8751 -0.1551 -3.1503 0
M  V30 48 H -2.9713 -3.9352 -1.7018 0
M  V30 49 H -1.4976 -3.4821 -0.8592 0
M  V30 50 H -0.0551 -1.6065 -3.8577 0
M  V30 51 H 0.315 -2.0649 -2.2028 0
M  V30 52 H -2.2733 -2.7427 -3.722 0
M  V30 53 H -1.3267 -5.0712 -3.0199 0
M  V30 54 H 1.6867 -3.1303 -4.3149 0
M  V30 55 H 1.8889 -4.8553 -3.8465 0
M  V30 56 H 2.0298 -4.3633 -5.5576 0
M  V30 END ATOM
M  V30 BEGIN BOND
M  V30 1 1 1 2
M  V30 2 2 2 3
M  V30 3 1 2 4
M  V30 4 1 3 5
M  V30 5 1 3 6
M  V30 6 1 4 7
M  V30 7 2 4 8
M  V30 8 2 6 9
M  V30 9 1 7 10
M  V30 10 1 7 11
M  V30 11 1 10 12
M  V30 12 1 11 13
M  V30 13 1 12 14
M  V30 14 1 14 15
M  V30 15 1 15 16
M  V30 16 1 16 17
M  V30 17 1 17 18
M  V30 18 1 17 19
M  V30 19 1 18 20
M  V30 20 1 19 21
M  V30 21 1 20 22
M  V30 22 1 22 23
M  V30 23 1 23 24
M  V30 24 2 24 25
M  V30 25 2 24 26
M  V30 26 1 24 27
M  V30 27 1 8 9
M  V30 28 1 13 14
M  V30 29 1 21 22
M  V30 30 1 6 28
M  V30 31 1 8 29
M  V30 32 1 9 30
M  V30 33 1 10 31
M  V30 34 1 10 32
M  V30 35 1 11 33
M  V30 36 1 11 34
M  V30 37 1 12 35
M  V30 38 1 12 36
M  V30 39 1 13 37
M  V30 40 1 13 38
M  V30 41 1 15 39
M  V30 42 1 15 40
M  V30 43 1 16 41
M  V30 44 1 16 42
M  V30 45 1 17 43
M  V30 46 1 18 44
M  V30 47 1 18 45
M  V30 48 1 19 46
M  V30 49 1 19 47
M  V30 50 1 20 48
M  V30 51 1 20 49
M  V30 52 1 21 50
M  V30 53 1 21 51
M  V30 54 1 22 52
M  V30 55 1 23 53
M  V30 56 1 27 54
M  V30 57 1 27 55
M  V30 58 1 27 56
M  V30 END BOND
M  V30 END CTAB
M  END
>  <NO.>
997

>  <Name>
chembl2024515

>  <SMILES>
CS(=O)(=O)NC1CCC(CCN2CCN(c3cccc(Cl)c3Cl)CC2)CC1

>  <logBB>
1

>  <Class>
1

>  <MW>
433.14

>  <nHBAcc>
4

>  <nHBDon>
1

>  <SLogP>
3.61

>  <TopoPSA>
52.65

>  <MMFF94 Energy>
68.976

$$$$
N#Cc1ccc(S(=O)(=O)C2CCN(CCc3ccc(F)cc3F)CC2)cc1
Actelion Java MolfileCreator 2.0

  0  0  0  0  0  0              0 V3000
M  V30 BEGIN CTAB
M  V30 COUNTS 47 49 0 0 0
M  V30 BEGIN ATOM
M  V30 1 S -1.1426 2.4496 2.7766 0
M  V30 2 O 0.1762 2.9288 3.1421 0
M  V30 3 O -2.1338 2.161 3.7965 0
M  V30 4 C -1.8748 3.6776 1.7114 0
M  V30 5 C -0.9731 1.0017 1.7354 0
M  V30 6 C -1.0853 4.7041 1.1854 0
M  V30 7 C -3.2477 3.625 1.4515 0
M  V30 8 C -0.0821 1.2557 0.5217 0
M  V30 9 C -0.4284 -0.1692 2.5534 0
M  V30 10 C -1.6725 5.6711 0.3657 0
M  V30 11 C -3.8292 4.5953 0.6317 0
M  V30 12 C 0.123 -0.0236 -0.2888 0
M  V30 13 C -0.217 -1.3991 1.6767 0
M  V30 14 C -3.0437 5.6182 0.0845 0
M  V30 15 N 0.675 -1.0969 0.5465 0
M  V30 16 C -3.6437 6.6117 -0.7579 0
M  V30 17 C 0.9326 -2.3278 -0.2305 0
M  V30 18 N -4.1294 7.4095 -1.4464 0
M  V30 19 C 2.1366 -2.2068 -1.1809 0
M  V30 20 C 2.4024 -3.5007 -1.9125 0
M  V30 21 C 3.1093 -4.5368 -1.2889 0
M  V30 22 C 1.9281 -3.698 -3.2175 0
M  V30 23 F 3.5588 -4.3752 -0.0365 0
M  V30 24 C 3.354 -5.7408 -1.937 0
M  V30 25 C 2.1706 -4.9055 -3.8752 0
M  V30 26 C 2.8809 -5.9129 -3.2293 0
M  V30 27 F 3.108 -7.0688 -3.8663 0
M  V30 28 H -1.9875 0.7526 1.398 0
M  V30 29 H -0.0217 4.7634 1.4105 0
M  V30 30 H -3.87 2.848 1.8917 0
M  V30 31 H -0.5258 2.0172 -0.1287 0
M  V30 32 H 0.893 1.6463 0.8397 0
M  V30 33 H 0.5211 0.1097 3.0286 0
M  V30 34 H -1.1206 -0.4174 3.3668 0
M  V30 35 H -1.0555 6.4697 -0.0441 0
M  V30 36 H -4.8991 4.5552 0.4315 0
M  V30 37 H -0.8292 -0.3312 -0.7403 0
M  V30 38 H 0.8063 0.2195 -1.1088 0
M  V30 39 H -1.1855 -1.7731 1.3196 0
M  V30 40 H 0.2245 -2.1841 2.3028 0
M  V30 41 H 0.0343 -2.6265 -0.7876 0
M  V30 42 H 1.1477 -3.1485 0.467 0
M  V30 43 H 1.977 -1.4141 -1.9203 0
M  V30 44 H 3.0348 -1.9196 -0.6191 0
M  V30 45 H 1.3716 -2.9153 -3.7284 0
M  V30 46 H 3.9037 -6.5313 -1.4408 0
M  V30 47 H 1.8112 -5.0681 -4.8868 0
M  V30 END ATOM
M  V30 BEGIN BOND
M  V30 1 2 1 2
M  V30 2 2 1 3
M  V30 3 1 1 4
M  V30 4 1 1 5
M  V30 5 2 4 6
M  V30 6 1 4 7
M  V30 7 1 5 8
M  V30 8 1 5 9
M  V30 9 1 6 10
M  V30 10 2 7 11
M  V30 11 1 8 12
M  V30 12 1 9 13
M  V30 13 2 10 14
M  V30 14 1 12 15
M  V30 15 1 14 16
M  V30 16 1 15 17
M  V30 17 3 16 18
M  V30 18 1 17 19
M  V30 19 1 19 20
M  V30 20 2 20 21
M  V30 21 1 20 22
M  V30 22 1 21 23
M  V30 23 1 21 24
M  V30 24 2 22 25
M  V30 25 2 24 26
M  V30 26 1 26 27
M  V30 27 1 11 14
M  V30 28 1 13 15
M  V30 29 1 25 26
M  V30 30 1 5 28
M  V30 31 1 6 29
M  V30 32 1 7 30
M  V30 33 1 8 31
M  V30 34 1 8 32
M  V30 35 1 9 33
M  V30 36 1 9 34
M  V30 37 1 10 35
M  V30 38 1 11 36
M  V30 39 1 12 37
M  V30 40 1 12 38
M  V30 41 1 13 39
M  V30 42 1 13 40
M  V30 43 1 17 41
M  V30 44 1 17 42
M  V30 45 1 19 43
M  V30 46 1 19 44
M  V30 47 1 22 45
M  V30 48 1 24 46
M  V30 49 1 25 47
M  V30 END BOND
M  V30 END CTAB
M  END
>  <NO.>
998

>  <Name>
compound 26

>  <SMILES>
N#Cc1ccc(S(=O)(=O)C2CCN(CCc3ccc(F)cc3F)CC2)cc1

>  <logBB>
1

>  <Class>
1

>  <MW>
390.12

>  <nHBAcc>
4

>  <nHBDon>
0

>  <SLogP>
3.32

>  <TopoPSA>
61.17

>  <MMFF94 Energy>
61.067

$$$$
CCCCCCN1CCN(c2ccc(I)cc2)CC1
Actelion Java MolfileCreator 2.0

  0  0  0  0  0  0              0 V3000
M  V30 BEGIN CTAB
M  V30 COUNTS 44 45 0 0 0
M  V30 BEGIN ATOM
M  V30 1 I 0.7171 -2.6315 -8.151 0
M  V30 2 C 0.7703 -2.1477 -6.1328 0
M  V30 3 C 1.5197 -1.061 -5.6968 0
M  V30 4 C 0.0606 -2.9124 -5.2147 0
M  V30 5 C 1.5534 -0.7397 -4.3332 0
M  V30 6 C 0.1014 -2.5788 -3.8551 0
M  V30 7 C 0.8395 -1.4822 -3.3795 0
M  V30 8 N 0.8658 -1.1814 -2.0218 0
M  V30 9 C 1.9455 -0.3505 -1.4633 0
M  V30 10 C -0.4227 -1.0567 -1.3132 0
M  V30 11 C 2.0523 -0.5249 0.0693 0
M  V30 12 C -0.2364 -1.2104 0.2141 0
M  V30 13 N 0.7719 -0.2777 0.7721 0
M  V30 14 C 0.9234 -0.4537 2.2244 0
M  V30 15 C 0.2342 0.6683 3.016 0
M  V30 16 C -1.2883 0.7031 2.8679 0
M  V30 17 C -1.9698 1.6705 3.8417 0
M  V30 18 C -1.611 3.136 3.592 0
M  V30 19 C -2.3958 4.0627 4.5082 0
M  V30 20 H 2.082 -0.4498 -6.3976 0
M  V30 21 H -0.5212 -3.7736 -5.5307 0
M  V30 22 H 2.1378 0.1261 -4.0355 0
M  V30 23 H -0.4338 -3.2176 -3.1573 0
M  V30 24 H 1.7598 0.705 -1.6992 0
M  V30 25 H 2.9129 -0.6336 -1.8959 0
M  V30 26 H -1.1477 -1.812 -1.6341 0
M  V30 27 H -0.859 -0.0739 -1.5343 0
M  V30 28 H 2.8103 0.1798 0.4329 0
M  V30 29 H 2.4137 -1.5388 0.2893 0
M  V30 30 H 0.0521 -2.2489 0.4279 0
M  V30 31 H -1.2093 -1.0436 0.6879 0
M  V30 32 H 1.9848 -0.4185 2.5047 0
M  V30 33 H 0.5627 -1.4341 2.561 0
M  V30 34 H 0.661 1.6313 2.7107 0
M  V30 35 H 0.4869 0.5369 4.0758 0
M  V30 36 H -1.6898 -0.3012 3.0499 0
M  V30 37 H -1.5608 0.9798 1.8431 0
M  V30 38 H -1.7139 1.3966 4.8725 0
M  V30 39 H -3.0555 1.5456 3.7432 0
M  V30 40 H -0.5416 3.3004 3.7612 0
M  V30 41 H -1.8216 3.3992 2.5491 0
M  V30 42 H -2.1227 5.1053 4.3169 0
M  V30 43 H -3.473 3.9585 4.3432 0
M  V30 44 H -2.1862 3.844 5.5602 0
M  V30 END ATOM
M  V30 BEGIN BOND
M  V30 1 1 1 2
M  V30 2 2 2 3
M  V30 3 1 2 4
M  V30 4 1 3 5
M  V30 5 2 4 6
M  V30 6 2 5 7
M  V30 7 1 7 8
M  V30 8 1 8 9
M  V30 9 1 8 10
M  V30 10 1 9 11
M  V30 11 1 10 12
M  V30 12 1 11 13
M  V30 13 1 13 14
M  V30 14 1 14 15
M  V30 15 1 15 16
M  V30 16 1 16 17
M  V30 17 1 17 18
M  V30 18 1 18 19
M  V30 19 1 6 7
M  V30 20 1 12 13
M  V30 21 1 3 20
M  V30 22 1 4 21
M  V30 23 1 5 22
M  V30 24 1 6 23
M  V30 25 1 9 24
M  V30 26 1 9 25
M  V30 27 1 10 26
M  V30 28 1 10 27
M  V30 29 1 11 28
M  V30 30 1 11 29
M  V30 31 1 12 30
M  V30 32 1 12 31
M  V30 33 1 14 32
M  V30 34 1 14 33
M  V30 35 1 15 34
M  V30 36 1 15 35
M  V30 37 1 16 36
M  V30 38 1 16 37
M  V30 39 1 17 38
M  V30 40 1 17 39
M  V30 41 1 18 40
M  V30 42 1 18 41
M  V30 43 1 19 42
M  V30 44 1 19 43
M  V30 45 1 19 44
M  V30 END BOND
M  V30 END CTAB
M  END
>  <NO.>
999

>  <Name>
1-hexyl-4-(4- iodophenyl)piperazine

>  <SMILES>
CCCCCCN1CCN(c2ccc(I)cc2)CC1

>  <logBB>
1.01

>  <Class>
1

>  <MW>
372.11

>  <nHBAcc>
2

>  <nHBDon>
0

>  <SLogP>
3.99

>  <TopoPSA>
6.48

>  <MMFF94 Energy>
94.68

$$$$
CC1CCC(C)C(C)C1
Actelion Java MolfileCreator 2.0

  0  0  0  0  0  0              0 V3000
M  V30 BEGIN CTAB
M  V30 COUNTS 27 27 0 0 0
M  V30 BEGIN ATOM
M  V30 1 C -0.932 -0.4659 0.3882 0
M  V30 2 C 0.4165 -0.6362 1.1289 0
M  V30 3 C -0.8873 0.7511 -0.5533 0
M  V30 4 C -2.1147 -0.3184 1.35 0
M  V30 5 C 1.5812 -0.7031 0.1273 0
M  V30 6 C 0.4436 -1.8805 2.021 0
M  V30 7 C 0.2794 0.671 -1.5449 0
M  V30 8 C 1.6081 0.5058 -0.8024 0
M  V30 9 C 0.3126 1.9085 -2.4402 0
M  V30 10 H -1.1112 -1.3603 -0.224 0
M  V30 11 H 0.575 0.239 1.7739 0
M  V30 12 H -0.8059 1.6717 0.04 0
M  V30 13 H -1.8311 0.8182 -1.1093 0
M  V30 14 H -1.9574 0.5104 2.0483 0
M  V30 15 H -2.2728 -1.2314 1.9317 0
M  V30 16 H -3.0415 -0.1245 0.7991 0
M  V30 17 H 1.5042 -1.6189 -0.4726 0
M  V30 18 H 2.5344 -0.7581 0.6671 0
M  V30 19 H 1.4336 -2.0147 2.4702 0
M  V30 20 H -0.2729 -1.798 2.8435 0
M  V30 21 H 0.207 -2.784 1.449 0
M  V30 22 H 0.1283 -0.206 -2.188 0
M  V30 23 H 1.8265 1.4081 -0.2169 0
M  V30 24 H 2.4269 0.3891 -1.5223 0
M  V30 25 H 1.127 1.8385 -3.1688 0
M  V30 26 H 0.4606 2.8216 -1.8535 0
M  V30 27 H -0.6255 2.0112 -2.9954 0
M  V30 END ATOM
M  V30 BEGIN BOND
M  V30 1 1 1 2
M  V30 2 1 1 3
M  V30 3 1 1 4
M  V30 4 1 2 5
M  V30 5 1 2 6
M  V30 6 1 3 7
M  V30 7 1 5 8
M  V30 8 1 7 9
M  V30 9 1 7 8
M  V30 10 1 1 10
M  V30 11 1 2 11
M  V30 12 1 3 12
M  V30 13 1 3 13
M  V30 14 1 4 14
M  V30 15 1 4 15
M  V30 16 1 4 16
M  V30 17 1 5 17
M  V30 18 1 5 18
M  V30 19 1 6 19
M  V30 20 1 6 20
M  V30 21 1 6 21
M  V30 22 1 7 22
M  V30 23 1 8 23
M  V30 24 1 8 24
M  V30 25 1 9 25
M  V30 26 1 9 26
M  V30 27 1 9 27
M  V30 END BOND
M  V30 END CTAB
M  END
>  <NO.>
1000

>  <Name>
tripropylphosphine

>  <SMILES>
CC1CCC(C)C(C)C1

>  <logBB>
1.02

>  <Class>
1

>  <MW>
126.14

>  <nHBAcc>
0

>  <nHBDon>
0

>  <SLogP>
3.08

>  <TopoPSA>
0

>  <MMFF94 Energy>
10.465

$$$$
CN1CC2c3ccccc3Oc3ccc(Cl)cc3C2C1
Actelion Java MolfileCreator 2.0

  0  0  0  0  0  0              0 V3000
M  V30 BEGIN CTAB
M  V30 COUNTS 36 39 0 0 0
M  V30 BEGIN ATOM
M  V30 1 Cl -4.1569 -2.6067 -2.5252 0
M  V30 2 C -2.6797 -2.2996 -1.6975 0
M  V30 3 C -2.4692 -1.0564 -1.0959 0
M  V30 4 C -1.7104 -3.2961 -1.6224 0
M  V30 5 C -1.269 -0.7833 -0.4161 0
M  V30 6 C -0.5184 -3.0434 -0.9462 0
M  V30 7 C -0.2996 -1.7914 -0.3639 0
M  V30 8 C -1.0979 0.5401 0.2886 0
M  V30 9 O 0.8885 -1.6038 0.3003 0
M  V30 10 C 0.2781 1.2544 0.2963 0
M  V30 11 C -1.4812 0.439 1.7775 0
M  V30 12 C 1.731 -0.7359 -0.3524 0
M  V30 13 C 1.464 0.6363 -0.4017 0
M  V30 14 C 0.5693 1.5011 1.7889 0
M  V30 15 N -0.7303 1.4917 2.4806 0
M  V30 16 C 2.8866 -1.2723 -0.9259 0
M  V30 17 C 2.3829 1.4633 -1.0696 0
M  V30 18 C -1.4012 2.7882 2.4055 0
M  V30 19 C 3.7828 -0.4385 -1.5897 0
M  V30 20 C 3.5286 0.9288 -1.6648 0
M  V30 21 H -3.2501 -0.3007 -1.1507 0
M  V30 22 H -1.8769 -4.266 -2.0823 0
M  V30 23 H 0.2431 -3.8152 -0.8771 0
M  V30 24 H -1.7949 1.2499 -0.1829 0
M  V30 25 H 0.1029 2.2356 -0.1711 0
M  V30 26 H -2.5646 0.5155 1.9308 0
M  V30 27 H -1.1794 -0.5296 2.197 0
M  V30 28 H 1.1305 2.4293 1.9522 0
M  V30 29 H 1.1824 0.6933 2.2097 0
M  V30 30 H 3.0821 -2.3386 -0.8589 0
M  V30 31 H 2.2185 2.5378 -1.1238 0
M  V30 32 H -0.809 3.5498 2.925 0
M  V30 33 H -1.5741 3.1327 1.3805 0
M  V30 34 H -2.3693 2.7419 2.9165 0
M  V30 35 H 4.6786 -0.853 -2.0439 0
M  V30 36 H 4.2286 1.5834 -2.1783 0
M  V30 END ATOM
M  V30 BEGIN BOND
M  V30 1 1 1 2
M  V30 2 2 2 3
M  V30 3 1 2 4
M  V30 4 1 3 5
M  V30 5 2 4 6
M  V30 6 2 5 7
M  V30 7 1 5 8
M  V30 8 1 7 9
M  V30 9 1 8 10
M  V30 10 1 8 11
M  V30 11 1 9 12
M  V30 12 1 10 13
M  V30 13 1 10 14
M  V30 14 1 11 15
M  V30 15 1 12 16
M  V30 16 1 13 17
M  V30 17 1 15 18
M  V30 18 2 16 19
M  V30 19 2 17 20
M  V30 20 1 6 7
M  V30 21 2 12 13
M  V30 22 1 14 15
M  V30 23 1 19 20
M  V30 24 1 3 21
M  V30 25 1 4 22
M  V30 26 1 6 23
M  V30 27 1 8 24
M  V30 28 1 10 25
M  V30 29 1 11 26
M  V30 30 1 11 27
M  V30 31 1 14 28
M  V30 32 1 14 29
M  V30 33 1 16 30
M  V30 34 1 17 31
M  V30 35 1 18 32
M  V30 36 1 18 33
M  V30 37 1 18 34
M  V30 38 1 19 35
M  V30 39 1 20 36
M  V30 END BOND
M  V30 END CTAB
M  END
>  <NO.>
1001

>  <Name>
org-5222

>  <SMILES>
CN1CC2c3ccccc3Oc3ccc(Cl)cc3C2C1

>  <logBB>
1.03

>  <Class>
1

>  <MW>
285.09

>  <nHBAcc>
2

>  <nHBDon>
0

>  <SLogP>
4.26

>  <TopoPSA>
12.47

>  <MMFF94 Energy>
87.455

$$$$
CN1CCC2(O)c3ccccc3Oc3ccc(Cl)cc3C2C1
Actelion Java MolfileCreator 2.0

  0  0  0  0  0  0              0 V3000
M  V30 BEGIN CTAB
M  V30 COUNTS 40 43 0 0 0
M  V30 BEGIN ATOM
M  V30 1 Cl 3.9876 -3.6617 -0.5689 0
M  V30 2 C 2.4995 -3.0536 0.0473 0
M  V30 3 C 1.8245 -2.0452 -0.6481 0
M  V30 4 C 1.9817 -3.5742 1.2325 0
M  V30 5 C 0.6114 -1.5423 -0.1587 0
M  V30 6 C 0.7815 -3.0769 1.7351 0
M  V30 7 C 0.1216 -2.0584 1.0481 0
M  V30 8 C -0.2149 -0.4574 -0.8315 0
M  V30 9 O -1.07 -1.5905 1.55 0
M  V30 10 C -0.1607 0.8792 -0.0309 0
M  V30 11 C 0.1284 -0.2231 -2.3189 0
M  V30 12 C -0.9863 -0.3415 2.125 0
M  V30 13 O 1.1932 1.3817 -0.077 0
M  V30 14 C -0.5545 0.8161 1.4541 0
M  V30 15 C -1.0556 1.9069 -0.7658 0
M  V30 16 N -0.8035 0.738 -2.9311 0
M  V30 17 C -1.3931 -0.2939 3.4669 0
M  V30 18 C -0.473 2.0026 2.22 0
M  V30 19 C -0.7095 2.0342 -2.2502 0
M  V30 20 C -0.5155 0.8907 -4.3581 0
M  V30 21 C -1.3267 0.8956 4.1854 0
M  V30 22 C -0.8544 2.0438 3.5637 0
M  V30 23 H 2.2605 -1.6649 -1.5675 0
M  V30 24 H 2.5062 -4.3625 1.7654 0
M  V30 25 H 0.3656 -3.4735 2.6567 0
M  V30 26 H -1.2557 -0.8201 -0.8285 0
M  V30 27 H 1.1636 0.1244 -2.4348 0
M  V30 28 H 0.0492 -1.1812 -2.8496 0
M  V30 29 H 1.6792 0.9392 0.6425 0
M  V30 30 H -0.9494 2.9075 -0.3296 0
M  V30 31 H -2.1121 1.6246 -0.6596 0
M  V30 32 H -1.7493 -1.1977 3.9553 0
M  V30 33 H -0.1036 2.9209 1.7643 0
M  V30 34 H -1.4193 2.738 -2.7025 0
M  V30 35 H 0.2912 2.4708 -2.3661 0
M  V30 36 H -0.6226 -0.0687 -4.8761 0
M  V30 37 H 0.4966 1.2699 -4.5395 0
M  V30 38 H -1.2304 1.5789 -4.8226 0
M  V30 39 H -1.6338 0.923 5.2273 0
M  V30 40 H -0.7858 2.9762 4.1189 0
M  V30 END ATOM
M  V30 BEGIN BOND
M  V30 1 1 1 2
M  V30 2 2 2 3
M  V30 3 1 2 4
M  V30 4 1 3 5
M  V30 5 2 4 6
M  V30 6 2 5 7
M  V30 7 1 5 8
M  V30 8 1 7 9
M  V30 9 1 8 10
M  V30 10 1 8 11
M  V30 11 1 9 12
M  V30 12 1 10 13
M  V30 13 1 10 14
M  V30 14 1 10 15
M  V30 15 1 11 16
M  V30 16 1 12 17
M  V30 17 1 14 18
M  V30 18 1 15 19
M  V30 19 1 16 20
M  V30 20 2 17 21
M  V30 21 2 18 22
M  V30 22 1 6 7
M  V30 23 2 12 14
M  V30 24 1 16 19
M  V30 25 1 21 22
M  V30 26 1 3 23
M  V30 27 1 4 24
M  V30 28 1 6 25
M  V30 29 1 8 26
M  V30 30 1 11 27
M  V30 31 1 11 28
M  V30 32 1 13 29
M  V30 33 1 15 30
M  V30 34 1 15 31
M  V30 35 1 17 32
M  V30 36 1 18 33
M  V30 37 1 19 34
M  V30 38 1 19 35
M  V30 39 1 20 36
M  V30 40 1 20 37
M  V30 41 1 20 38
M  V30 42 1 21 39
M  V30 43 1 22 40
M  V30 END BOND
M  V30 END CTAB
M  END
>  <NO.>
1002

>  <Name>
b-102, asenapine, org5222

>  <SMILES>
CN1CCC2(O)c3ccccc3Oc3ccc(Cl)cc3C2C1

>  <logBB>
1.03

>  <Class>
1

>  <MW>
315.1

>  <nHBAcc>
3

>  <nHBDon>
1

>  <SLogP>
3.75

>  <TopoPSA>
32.7

>  <MMFF94 Energy>
78.956

$$$$
CN(C)CCCN1c2ccccc2CCc2ccc(Cl)cc21
Actelion Java MolfileCreator 2.0

  0  0  0  0  0  0              0 V3000
M  V30 BEGIN CTAB
M  V30 COUNTS 45 47 0 0 0
M  V30 BEGIN ATOM
M  V30 1 Cl -0.3192 1.3573 -5.6782 0
M  V30 2 C -0.0672 0.2714 -4.3669 0
M  V30 3 C -0.584 0.5735 -3.1082 0
M  V30 4 C 0.6514 -0.8999 -4.5694 0
M  V30 5 C -0.3896 -0.2937 -2.0177 0
M  V30 6 C 0.8442 -1.7774 -3.5044 0
M  V30 7 N -0.9007 0.0509 -0.7447 0
M  V30 8 C 0.3228 -1.4822 -2.2324 0
M  V30 9 C -1.7374 -0.7267 0.0931 0
M  V30 10 C -0.3592 1.3276 -0.218 0
M  V30 11 C 0.5189 -2.4471 -1.0981 0
M  V30 12 C -1.7425 -2.1398 0.119 0
M  V30 13 C -2.6742 -0.0721 0.9295 0
M  V30 14 C 0.6022 1.0881 0.9545 0
M  V30 15 C -0.8198 -3.0379 -0.6783 0
M  V30 16 C -2.6716 -2.8236 0.9426 0
M  V30 17 C -3.5702 -0.7617 1.7516 0
M  V30 18 C 1.2282 2.4107 1.4148 0
M  V30 19 C -3.5711 -2.144 1.7558 0
M  V30 20 N 2.0476 2.2761 2.6315 0
M  V30 21 C 2.4319 3.6009 3.1271 0
M  V30 22 C 3.2477 1.4679 2.4055 0
M  V30 23 H -1.1618 1.4841 -2.9728 0
M  V30 24 H 1.0555 -1.1393 -5.5489 0
M  V30 25 H 1.3985 -2.6983 -3.6716 0
M  V30 26 H -1.1649 2.012 0.0693 0
M  V30 27 H 0.1987 1.8724 -0.9917 0
M  V30 28 H 1.1782 -3.2631 -1.4197 0
M  V30 29 H 1.0294 -1.9547 -0.2617 0
M  V30 30 H -2.7547 1.0104 0.931 0
M  V30 31 H 1.3816 0.3872 0.6355 0
M  V30 32 H 0.0731 0.6218 1.7938 0
M  V30 33 H -1.3714 -3.404 -1.5545 0
M  V30 34 H -0.5882 -3.9163 -0.0603 0
M  V30 35 H -2.6876 -3.9125 0.9532 0
M  V30 36 H -4.2732 -0.2113 2.3706 0
M  V30 37 H 1.8176 2.8485 0.5983 0
M  V30 38 H 0.4064 3.1087 1.6231 0
M  V30 39 H -4.2686 -2.6929 2.3816 0
M  V30 40 H 1.5434 4.1993 3.3586 0
M  V30 41 H 3.0412 4.1525 2.4019 0
M  V30 42 H 2.9992 3.5142 4.0607 0
M  V30 43 H 3.8711 1.8709 1.5993 0
M  V30 44 H 2.9898 0.4323 2.1637 0
M  V30 45 H 3.8559 1.4197 3.3163 0
M  V30 END ATOM
M  V30 BEGIN BOND
M  V30 1 1 1 2
M  V30 2 2 2 3
M  V30 3 1 2 4
M  V30 4 1 3 5
M  V30 5 2 4 6
M  V30 6 1 5 7
M  V30 7 2 5 8
M  V30 8 1 7 9
M  V30 9 1 7 10
M  V30 10 1 8 11
M  V30 11 2 9 12
M  V30 12 1 9 13
M  V30 13 1 10 14
M  V30 14 1 11 15
M  V30 15 1 12 16
M  V30 16 2 13 17
M  V30 17 1 14 18
M  V30 18 2 16 19
M  V30 19 1 18 20
M  V30 20 1 20 21
M  V30 21 1 20 22
M  V30 22 1 6 8
M  V30 23 1 12 15
M  V30 24 1 17 19
M  V30 25 1 3 23
M  V30 26 1 4 24
M  V30 27 1 6 25
M  V30 28 1 10 26
M  V30 29 1 10 27
M  V30 30 1 11 28
M  V30 31 1 11 29
M  V30 32 1 13 30
M  V30 33 1 14 31
M  V30 34 1 14 32
M  V30 35 1 15 33
M  V30 36 1 15 34
M  V30 37 1 16 35
M  V30 38 1 17 36
M  V30 39 1 18 37
M  V30 40 1 18 38
M  V30 41 1 19 39
M  V30 42 1 21 40
M  V30 43 1 21 41
M  V30 44 1 21 42
M  V30 45 1 22 43
M  V30 46 1 22 44
M  V30 47 1 22 45
M  V30 END BOND
M  V30 END CTAB
M  END
>  <NO.>
1003

>  <Name>
clomipramine

>  <SMILES>
CN(C)CCCN1c2ccccc2CCc2ccc(Cl)cc21

>  <logBB>
1.04

>  <Class>
1

>  <MW>
314.15

>  <nHBAcc>
2

>  <nHBDon>
0

>  <SLogP>
4.53

>  <TopoPSA>
6.48

>  <MMFF94 Energy>
59.514

$$$$
CNCCC=C1c2ccccc2CCc2ccccc21
Actelion Java MolfileCreator 2.0

  0  0  0  0  0  0              0 V3000
M  V30 BEGIN CTAB
M  V30 COUNTS 41 43 0 0 0
M  V30 BEGIN ATOM
M  V30 1 N 3.968 -0.4755 1.6651 0
M  V30 2 C 2.5029 -0.41 1.6839 0
M  V30 3 C 4.5392 0.3219 2.7414 0
M  V30 4 C 1.9102 -1.2459 0.5399 0
M  V30 5 C 0.403 -1.273 0.6114 0
M  V30 6 C -0.4904 -0.7367 -0.2512 0
M  V30 7 C -1.9317 -0.808 0.1138 0
M  V30 8 C -0.0243 0.0257 -1.4274 0
M  V30 9 C -2.7638 0.3311 0.1584 0
M  V30 10 C -2.4896 -2.0741 0.3872 0
M  V30 11 C -0.186 1.4205 -1.4407 0
M  V30 12 C 0.545 -0.6218 -2.5309 0
M  V30 13 C -4.1248 0.1582 0.494 0
M  V30 14 C -2.3413 1.7533 -0.1739 0
M  V30 15 C -3.8352 -2.2189 0.7234 0
M  V30 16 C 0.2528 2.1537 -2.5514 0
M  V30 17 C -0.8525 2.1032 -0.2726 0
M  V30 18 C 0.9773 0.1166 -3.6322 0
M  V30 19 C -4.6534 -1.0999 0.7801 0
M  V30 20 C 0.8348 1.5028 -3.6401 0
M  V30 21 H 4.2666 -1.4447 1.7673 0
M  V30 22 H 2.1272 -0.7813 2.6457 0
M  V30 23 H 2.1749 0.6313 1.5749 0
M  V30 24 H 4.2197 -0.041 3.7237 0
M  V30 25 H 4.2637 1.3768 2.6421 0
M  V30 26 H 5.6311 0.262 2.6993 0
M  V30 27 H 2.2774 -0.8589 -0.4149 0
M  V30 28 H 2.2662 -2.2814 0.6113 0
M  V30 29 H 0.0281 -1.772 1.5054 0
M  V30 30 H -1.8715 -2.9676 0.326 0
M  V30 31 H 0.6559 -1.703 -2.5324 0
M  V30 32 H -4.7891 1.0204 0.5257 0
M  V30 33 H -2.7636 2.4071 0.6016 0
M  V30 34 H -2.8309 2.0255 -1.1191 0
M  V30 35 H -4.2414 -3.2049 0.9306 0
M  V30 36 H 0.1387 3.2345 -2.5789 0
M  V30 37 H -0.7589 3.1907 -0.3872 0
M  V30 38 H -0.3254 1.8577 0.6578 0
M  V30 39 H 1.4247 -0.3896 -4.483 0
M  V30 40 H -5.7047 -1.2036 1.0344 0
M  V30 41 H 1.1724 2.0778 -4.4983 0
M  V30 END ATOM
M  V30 BEGIN BOND
M  V30 1 1 1 2
M  V30 2 1 1 3
M  V30 3 1 2 4
M  V30 4 1 4 5
M  V30 5 2 5 6
M  V30 6 1 6 7
M  V30 7 1 6 8
M  V30 8 2 7 9
M  V30 9 1 7 10
M  V30 10 2 8 11
M  V30 11 1 8 12
M  V30 12 1 9 13
M  V30 13 1 9 14
M  V30 14 2 10 15
M  V30 15 1 11 16
M  V30 16 1 11 17
M  V30 17 2 12 18
M  V30 18 2 13 19
M  V30 19 2 16 20
M  V30 20 1 14 17
M  V30 21 1 15 19
M  V30 22 1 18 20
M  V30 23 1 1 21
M  V30 24 1 2 22
M  V30 25 1 2 23
M  V30 26 1 3 24
M  V30 27 1 3 25
M  V30 28 1 3 26
M  V30 29 1 4 27
M  V30 30 1 4 28
M  V30 31 1 5 29
M  V30 32 1 10 30
M  V30 33 1 12 31
M  V30 34 1 13 32
M  V30 35 1 14 33
M  V30 36 1 14 34
M  V30 37 1 15 35
M  V30 38 1 16 36
M  V30 39 1 17 37
M  V30 40 1 17 38
M  V30 41 1 18 39
M  V30 42 1 19 40
M  V30 43 1 20 41
M  V30 END BOND
M  V30 END CTAB
M  END
>  <NO.>
1004

>  <Name>
nortriptyline

>  <SMILES>
CNCCC=C1c2ccccc2CCc2ccccc21

>  <logBB>
1.04

>  <Class>
1

>  <MW>
263.17

>  <nHBAcc>
1

>  <nHBDon>
1

>  <SLogP>
3.83

>  <TopoPSA>
12.03

>  <MMFF94 Energy>
73.806

$$$$
COc1ccc(Cl)cc1[C@]1(F)C(=O)Nc2cc(C(F)(F)F)ccc21
Actelion Java MolfileCreator 2.0

  0  0  0  0  0  0              0 V3000
M  V30 BEGIN CTAB
M  V30 COUNTS 34 36 0 0 0
M  V30 BEGIN ATOM
M  V30 1 Cl 1.077 1.077 -5.4771 0
M  V30 2 C 0.571 0.2511 -4.0562 0
M  V30 3 C 1.2347 0.4693 -2.8518 0
M  V30 4 C -0.5027 -0.6276 -4.1125 0
M  V30 5 C 0.8336 -0.1954 -1.6731 0
M  V30 6 C -0.9166 -1.294 -2.9564 0
M  V30 7 C -0.2574 -1.0873 -1.7371 0
M  V30 8 C 1.6024 0.0975 -0.3843 0 CFG=2
M  V30 9 O -0.6163 -1.6932 -0.564 0
M  V30 10 F 2.7034 0.8853 -0.6305 0
M  V30 11 C 2.0751 -1.2075 0.3484 0
M  V30 12 C 0.7589 0.746 0.6994 0
M  V30 13 C -1.5949 -2.724 -0.6208 0
M  V30 14 O 2.7777 -2.1077 -0.0897 0
M  V30 15 N 1.5737 -1.1637 1.6518 0
M  V30 16 C 0.7995 -0.0329 1.8554 0
M  V30 17 C 0.0516 1.9364 0.6759 0
M  V30 18 C 0.1345 0.3205 3.0108 0
M  V30 19 C -0.6328 2.3173 1.8351 0
M  V30 20 C -0.6066 1.5152 3.0027 0
M  V30 21 C -1.3381 1.9616 4.2462 0
M  V30 22 F -1.7604 0.9205 5.0171 0
M  V30 23 F -0.5613 2.7342 5.0532 0
M  V30 24 F -2.4512 2.6987 3.9767 0
M  V30 25 H 2.0764 1.16 -2.8274 0
M  V30 26 H -1.0245 -0.7999 -5.0503 0
M  V30 27 H -1.7642 -1.9667 -3.0422 0
M  V30 28 H -2.5724 -2.3205 -0.9042 0
M  V30 29 H -1.6894 -3.1486 0.3832 0
M  V30 30 H -1.2857 -3.5292 -1.2952 0
M  V30 31 H 1.7498 -1.8952 2.3236 0
M  V30 32 H 0.0293 2.5599 -0.2132 0
M  V30 33 H 0.1797 -0.3038 3.8983 0
M  V30 34 H -1.1948 3.2519 1.8334 0
M  V30 END ATOM
M  V30 BEGIN BOND
M  V30 1 1 1 2
M  V30 2 2 2 3
M  V30 3 1 2 4
M  V30 4 1 3 5
M  V30 5 2 4 6
M  V30 6 2 5 7
M  V30 7 1 5 8
M  V30 8 1 7 9
M  V30 9 1 8 10
M  V30 10 1 8 11
M  V30 11 1 8 12
M  V30 12 1 9 13
M  V30 13 2 11 14
M  V30 14 1 11 15
M  V30 15 2 12 16
M  V30 16 1 12 17
M  V30 17 1 16 18
M  V30 18 2 17 19
M  V30 19 2 18 20
M  V30 20 1 20 21
M  V30 21 1 21 22
M  V30 22 1 21 23
M  V30 23 1 21 24
M  V30 24 1 6 7
M  V30 25 1 15 16
M  V30 26 1 19 20
M  V30 27 1 3 25
M  V30 28 1 4 26
M  V30 29 1 6 27
M  V30 30 1 13 28
M  V30 31 1 13 29
M  V30 32 1 13 30
M  V30 33 1 15 31
M  V30 34 1 17 32
M  V30 35 1 18 33
M  V30 36 1 19 34
M  V30 END BOND
M  V30 BEGIN COLLECTION
M  V30 MDLV30/STEABS ATOMS=(1 8)
M  V30 END COLLECTION
M  V30 END CTAB
M  END
>  <NO.>
1005

>  <Name>
bms-204352

>  <SMILES>
COc1ccc(Cl)cc1[C@]1(F)C(=O)Nc2cc(C(F)(F)F)ccc21

>  <logBB>
1.04

>  <Class>
1

>  <MW>
359.03

>  <nHBAcc>
2

>  <nHBDon>
1

>  <SLogP>
4.53

>  <TopoPSA>
38.33

>  <MMFF94 Energy>
106.28

$$$$
CN(C)CCCN1c2ccccc2Sc2ccc(Cl)cc21
Actelion Java MolfileCreator 2.0

  0  0  0  0  0  0              0 V3000
M  V30 BEGIN CTAB
M  V30 COUNTS 40 42 0 0 0
M  V30 BEGIN ATOM
M  V30 1 Cl -1.872 4.9706 -0.4067 0
M  V30 2 C -0.9787 4.0112 0.7095 0
M  V30 3 C -0.5038 2.7543 0.3204 0
M  V30 4 C -0.7377 4.4906 1.9848 0
M  V30 5 C 0.2381 1.9244 1.1922 0
M  V30 6 C -0.0219 3.6976 2.8736 0
M  V30 7 N 0.7282 0.6459 0.7925 0
M  V30 8 C 0.4573 2.4273 2.4924 0
M  V30 9 C 1.2904 -0.3342 1.6632 0
M  V30 10 C 0.7302 0.3421 -0.6578 0
M  V30 11 S 1.352 1.5515 3.7516 0
M  V30 12 C 1.6065 -0.0396 3.005 0
M  V30 13 C 1.551 -1.6592 1.2418 0
M  V30 14 C -0.5656 -0.3537 -1.0993 0
M  V30 15 C 2.1723 -1.0154 3.8508 0
M  V30 16 C 2.1084 -2.6268 2.0872 0
M  V30 17 C -0.5001 -0.7077 -2.5902 0
M  V30 18 C 2.424 -2.3035 3.395 0
M  V30 19 N -1.77 -1.234 -3.1164 0
M  V30 20 C -2.1081 -2.5425 -2.5522 0
M  V30 21 C -1.7083 -1.3293 -4.578 0
M  V30 22 H -0.7496 2.4392 -0.6876 0
M  V30 23 H -1.1022 5.4655 2.295 0
M  V30 24 H 0.1619 4.0747 3.8783 0
M  V30 25 H 1.6022 -0.2667 -0.9298 0
M  V30 26 H 0.8961 1.2514 -1.2501 0
M  V30 27 H 1.3135 -1.9948 0.2381 0
M  V30 28 H -1.4303 0.2927 -0.9117 0
M  V30 29 H -0.7252 -1.2557 -0.5001 0
M  V30 30 H 2.4181 -0.7702 4.8825 0
M  V30 31 H 2.2886 -3.6324 1.7158 0
M  V30 32 H -0.2502 0.2117 -3.1359 0
M  V30 33 H 0.3185 -1.4168 -2.77 0
M  V30 34 H 2.857 -3.0458 4.0592 0
M  V30 35 H -2.2924 -2.476 -1.4756 0
M  V30 36 H -1.3198 -3.2834 -2.727 0
M  V30 37 H -3.0378 -2.9223 -2.9918 0
M  V30 38 H -0.9244 -2.0178 -4.9138 0
M  V30 39 H -1.518 -0.3455 -5.0214 0
M  V30 40 H -2.667 -1.6719 -4.9834 0
M  V30 END ATOM
M  V30 BEGIN BOND
M  V30 1 1 1 2
M  V30 2 2 2 3
M  V30 3 1 2 4
M  V30 4 1 3 5
M  V30 5 2 4 6
M  V30 6 1 5 7
M  V30 7 2 5 8
M  V30 8 1 7 9
M  V30 9 1 7 10
M  V30 10 1 8 11
M  V30 11 2 9 12
M  V30 12 1 9 13
M  V30 13 1 10 14
M  V30 14 1 12 15
M  V30 15 2 13 16
M  V30 16 1 14 17
M  V30 17 2 15 18
M  V30 18 1 17 19
M  V30 19 1 19 20
M  V30 20 1 19 21
M  V30 21 1 6 8
M  V30 22 1 11 12
M  V30 23 1 16 18
M  V30 24 1 3 22
M  V30 25 1 4 23
M  V30 26 1 6 24
M  V30 27 1 10 25
M  V30 28 1 10 26
M  V30 29 1 13 27
M  V30 30 1 14 28
M  V30 31 1 14 29
M  V30 32 1 15 30
M  V30 33 1 16 31
M  V30 34 1 17 32
M  V30 35 1 17 33
M  V30 36 1 18 34
M  V30 37 1 20 35
M  V30 38 1 20 36
M  V30 39 1 20 37
M  V30 40 1 21 38
M  V30 41 1 21 39
M  V30 42 1 21 40
M  V30 END BOND
M  V30 END CTAB
M  END
>  <NO.>
1008

>  <Name>
50-53-3

>  <SMILES>
CN(C)CCCN1c2ccccc2Sc2ccc(Cl)cc21

>  <logBB>
1.06

>  <Class>
1

>  <MW>
318.1

>  <nHBAcc>
3

>  <nHBDon>
0

>  <SLogP>
4.89

>  <TopoPSA>
6.48

>  <MMFF94 Energy>
66.585

$$$$
CN(C)CCC=C1c2ccccc2C=Cc2ccccc21
Actelion Java MolfileCreator 2.0

  0  0  0  0  0  0              0 V3000
M  V30 BEGIN CTAB
M  V30 COUNTS 42 44 0 0 0
M  V30 BEGIN ATOM
M  V30 1 N -1.9035 2.9358 2.0623 0
M  V30 2 C -0.7419 2.3468 1.368 0
M  V30 3 C -3.1715 2.5109 1.4641 0
M  V30 4 C -1.812 4.3983 2.0348 0
M  V30 5 C -0.6227 0.8232 1.5474 0
M  V30 6 C 0.6537 0.2957 0.9388 0
M  V30 7 C 0.7963 -0.5073 -0.1395 0
M  V30 8 C 2.1632 -0.9958 -0.448 0
M  V30 9 C -0.366 -0.9882 -0.9215 0
M  V30 10 C 2.4478 -2.3756 -0.4514 0
M  V30 11 C 3.1763 -0.075 -0.7696 0
M  V30 12 C -0.6489 -2.3642 -1.0162 0
M  V30 13 C -1.1632 -0.0663 -1.6226 0
M  V30 14 C 1.4605 -3.4124 -0.0946 0
M  V30 15 C 3.7566 -2.7962 -0.7419 0
M  V30 16 C 4.4664 -0.5119 -1.0688 0
M  V30 17 C 0.1376 -3.4067 -0.3315 0
M  V30 18 C -1.7665 -2.7773 -1.7614 0
M  V30 19 C -2.2602 -0.4946 -2.3697 0
M  V30 20 C 4.757 -1.8721 -1.0519 0
M  V30 21 C -2.5658 -1.8498 -2.4333 0
M  V30 22 H 0.1728 2.7984 1.7763 0
M  V30 23 H -0.7641 2.6001 0.2997 0
M  V30 24 H -3.329 1.4351 1.5871 0
M  V30 25 H -3.2265 2.7525 0.3964 0
M  V30 26 H -4.0157 2.9961 1.968 0
M  V30 27 H -1.8201 4.7941 1.0126 0
M  V30 28 H -0.895 4.7373 2.5298 0
M  V30 29 H -2.6461 4.8476 2.5859 0
M  V30 30 H -0.6079 0.5819 2.6181 0
M  V30 31 H -1.4962 0.3107 1.1355 0
M  V30 32 H 1.5449 0.574 1.5025 0
M  V30 33 H 2.9587 0.9903 -0.7936 0
M  V30 34 H -0.9265 0.9941 -1.5915 0
M  V30 35 H 1.8777 -4.2839 0.4067 0
M  V30 36 H 4.0068 -3.855 -0.7381 0
M  V30 37 H 5.2412 0.209 -1.3157 0
M  V30 38 H -0.4362 -4.2736 -0.0093 0
M  V30 39 H -2.0162 -3.8335 -1.8371 0
M  V30 40 H -2.8712 0.2286 -2.903 0
M  V30 41 H 5.7616 -2.2171 -1.2824 0
M  V30 42 H -3.4201 -2.1893 -3.0132 0
M  V30 END ATOM
M  V30 BEGIN BOND
M  V30 1 1 1 2
M  V30 2 1 1 3
M  V30 3 1 1 4
M  V30 4 1 2 5
M  V30 5 1 5 6
M  V30 6 2 6 7
M  V30 7 1 7 8
M  V30 8 1 7 9
M  V30 9 2 8 10
M  V30 10 1 8 11
M  V30 11 2 9 12
M  V30 12 1 9 13
M  V30 13 1 10 14
M  V30 14 1 10 15
M  V30 15 2 11 16
M  V30 16 1 12 17
M  V30 17 1 12 18
M  V30 18 2 13 19
M  V30 19 2 15 20
M  V30 20 2 18 21
M  V30 21 2 14 17
M  V30 22 1 16 20
M  V30 23 1 19 21
M  V30 24 1 2 22
M  V30 25 1 2 23
M  V30 26 1 3 24
M  V30 27 1 3 25
M  V30 28 1 3 26
M  V30 29 1 4 27
M  V30 30 1 4 28
M  V30 31 1 4 29
M  V30 32 1 5 30
M  V30 33 1 5 31
M  V30 34 1 6 32
M  V30 35 1 11 33
M  V30 36 1 13 34
M  V30 37 1 14 35
M  V30 38 1 15 36
M  V30 39 1 16 37
M  V30 40 1 17 38
M  V30 41 1 18 39
M  V30 42 1 19 40
M  V30 43 1 20 41
M  V30 44 1 21 42
M  V30 END BOND
M  V30 END CTAB
M  END
>  <NO.>
1009

>  <Name>
cyclobenzaprine

>  <SMILES>
CN(C)CCC=C1c2ccccc2C=Cc2ccccc21

>  <logBB>
1.06

>  <Class>
1

>  <MW>
275.17

>  <nHBAcc>
1

>  <nHBDon>
0

>  <SLogP>
4.55

>  <TopoPSA>
3.24

>  <MMFF94 Energy>
89.438

$$$$
CN1CCC2c3cc(Cl)ccc3Oc3ccccc3C2C1
Actelion Java MolfileCreator 2.0

  0  0  0  0  0  0              0 V3000
M  V30 BEGIN CTAB
M  V30 COUNTS 39 42 0 0 0
M  V30 BEGIN ATOM
M  V30 1 Cl -2.682 2.438 4.3916 0
M  V30 2 C -1.4054 2.1811 3.2668 0
M  V30 3 C -1.4504 1.0811 2.4067 0
M  V30 4 C -0.3358 3.0656 3.2234 0
M  V30 5 C -0.4161 0.8283 1.4787 0
M  V30 6 C 0.68 2.8584 2.2942 0
M  V30 7 C 0.6262 1.7693 1.412 0
M  V30 8 C -0.5215 -0.4289 0.6084 0
M  V30 9 O 1.6663 1.707 0.5117 0
M  V30 10 C 0.5706 -0.6446 -0.476 0
M  V30 11 C -0.5671 -1.6919 1.5008 0
M  V30 12 C 1.2625 1.726 -0.8038 0
M  V30 13 C 0.703 0.5738 -1.3722 0
M  V30 14 C 0.3148 -1.9678 -1.2336 0
M  V30 15 C -0.7627 -2.9682 0.6835 0
M  V30 16 C 1.4693 2.8876 -1.5467 0
M  V30 17 C 0.3084 0.6292 -2.7147 0
M  V30 18 N 0.2925 -3.12 -0.3199 0
M  V30 19 C 1.0779 2.9232 -2.8815 0
M  V30 20 C 0.4943 1.7977 -3.4621 0
M  V30 21 C 0.1197 -4.3667 -1.0655 0
M  V30 22 H -2.3058 0.4113 2.4639 0
M  V30 23 H -0.2919 3.9183 3.8946 0
M  V30 24 H 1.5115 3.5567 2.2388 0
M  V30 25 H -1.4861 -0.3435 0.0842 0
M  V30 26 H 1.5438 -0.7722 0.0242 0
M  V30 27 H 0.361 -1.766 2.0843 0
M  V30 28 H -1.3831 -1.6345 2.2302 0
M  V30 29 H -0.6313 -1.9151 -1.7892 0
M  V30 30 H 1.1171 -2.1104 -1.9695 0
M  V30 31 H -0.743 -3.8206 1.3735 0
M  V30 32 H -1.7549 -2.9546 0.2131 0
M  V30 33 H 1.9248 3.7578 -1.0844 0
M  V30 34 H -0.1441 -0.2246 -3.2101 0
M  V30 35 H 1.2265 3.8252 -3.469 0
M  V30 36 H 0.1867 1.8266 -4.5048 0
M  V30 37 H 0.9375 -4.5029 -1.7817 0
M  V30 38 H -0.8282 -4.393 -1.6147 0
M  V30 39 H 0.1501 -5.2273 -0.3881 0
M  V30 END ATOM
M  V30 BEGIN BOND
M  V30 1 1 1 2
M  V30 2 2 2 3
M  V30 3 1 2 4
M  V30 4 1 3 5
M  V30 5 2 4 6
M  V30 6 2 5 7
M  V30 7 1 5 8
M  V30 8 1 7 9
M  V30 9 1 8 10
M  V30 10 1 8 11
M  V30 11 1 9 12
M  V30 12 1 10 13
M  V30 13 1 10 14
M  V30 14 1 11 15
M  V30 15 1 12 16
M  V30 16 1 13 17
M  V30 17 1 14 18
M  V30 18 2 16 19
M  V30 19 2 17 20
M  V30 20 1 18 21
M  V30 21 1 6 7
M  V30 22 2 12 13
M  V30 23 1 15 18
M  V30 24 1 19 20
M  V30 25 1 3 22
M  V30 26 1 4 23
M  V30 27 1 6 24
M  V30 28 1 8 25
M  V30 29 1 10 26
M  V30 30 1 11 27
M  V30 31 1 11 28
M  V30 32 1 14 29
M  V30 33 1 14 30
M  V30 34 1 15 31
M  V30 35 1 15 32
M  V30 36 1 16 33
M  V30 37 1 17 34
M  V30 38 1 19 35
M  V30 39 1 20 36
M  V30 40 1 21 37
M  V30 41 1 21 38
M  V30 42 1 21 39
M  V30 END BOND
M  V30 END CTAB
M  END
>  <NO.>
1010

>  <Name>
7-k06

>  <SMILES>
CN1CCC2c3cc(Cl)ccc3Oc3ccccc3C2C1

>  <logBB>
1.06

>  <Class>
1

>  <MW>
299.11

>  <nHBAcc>
2

>  <nHBDon>
0

>  <SLogP>
4.65

>  <TopoPSA>
12.47

>  <MMFF94 Energy>
73.635

$$$$
CC1CCCCC1C
Actelion Java MolfileCreator 2.0

  0  0  0  0  0  0              0 V3000
M  V30 BEGIN CTAB
M  V30 COUNTS 24 24 0 0 0
M  V30 BEGIN ATOM
M  V30 1 C -0.3881 -0.854 0.1552 0
M  V30 2 C 0.8494 -0.0615 -0.3339 0
M  V30 3 C -1.6711 -0.0232 -0.0204 0
M  V30 4 C -0.5499 -2.1946 -0.5669 0
M  V30 5 C 0.9269 1.3098 0.3592 0
M  V30 6 C 2.16 -0.8195 -0.1048 0
M  V30 7 C -1.5722 1.3353 0.6651 0
M  V30 8 C -0.3563 2.1145 0.1821 0
M  V30 9 H -0.267 -1.0657 1.2266 0
M  V30 10 H 0.7495 0.1114 -1.4144 0
M  V30 11 H -2.5287 -0.5688 0.3915 0
M  V30 12 H -1.8741 0.1253 -1.0889 0
M  V30 13 H -0.5916 -2.0578 -1.6526 0
M  V30 14 H 0.2768 -2.8736 -0.3384 0
M  V30 15 H -1.4726 -2.6954 -0.2538 0
M  V30 16 H 1.1228 1.174 1.4307 0
M  V30 17 H 1.7677 1.8859 -0.0455 0
M  V30 18 H 2.2789 -1.0973 0.9478 0
M  V30 19 H 3.0197 -0.2038 -0.3908 0
M  V30 20 H 2.2043 -1.7317 -0.7072 0
M  V30 21 H -1.5102 1.1937 1.7511 0
M  V30 22 H -2.4822 1.9138 0.4699 0
M  V30 23 H -0.4827 2.3737 -0.8762 0
M  V30 24 H -0.2793 3.0576 0.7348 0
M  V30 END ATOM
M  V30 BEGIN BOND
M  V30 1 1 1 2
M  V30 2 1 1 3
M  V30 3 1 1 4
M  V30 4 1 2 5
M  V30 5 1 2 6
M  V30 6 1 3 7
M  V30 7 1 5 8
M  V30 8 1 7 8
M  V30 9 1 1 9
M  V30 10 1 2 10
M  V30 11 1 3 11
M  V30 12 1 3 12
M  V30 13 1 4 13
M  V30 14 1 4 14
M  V30 15 1 4 15
M  V30 16 1 5 16
M  V30 17 1 5 17
M  V30 18 1 6 18
M  V30 19 1 6 19
M  V30 20 1 6 20
M  V30 21 1 7 21
M  V30 22 1 7 22
M  V30 23 1 8 23
M  V30 24 1 8 24
M  V30 END BOND
M  V30 END CTAB
M  END
>  <NO.>
1011

>  <Name>
1,2-dimethylcyclohexane

>  <SMILES>
CC1CCCCC1C

>  <logBB>
1.07

>  <Class>
1

>  <MW>
112.13

>  <nHBAcc>
0

>  <nHBDon>
0

>  <SLogP>
2.83

>  <TopoPSA>
0

>  <MMFF94 Energy>
6.2046

$$$$
CC(=O)NC1CCC(CCN2CCN(c3cccc(Cl)c3Cl)CC2)CC1
Actelion Java MolfileCreator 2.0

  0  0  0  0  0  0              0 V3000
M  V30 BEGIN CTAB
M  V30 COUNTS 55 57 0 0 0
M  V30 BEGIN ATOM
M  V30 1 Cl 2.6548 -1.6888 -5.2343 0
M  V30 2 C 4.2831 -1.4318 -4.6675 0
M  V30 3 C 5.3722 -1.7178 -5.5086 0
M  V30 4 C 4.5002 -0.9775 -3.3419 0
M  V30 5 Cl 5.175 -2.2751 -7.1361 0
M  V30 6 C 6.6804 -1.5601 -5.046 0
M  V30 7 N 3.4435 -0.6614 -2.487 0
M  V30 8 C 5.8304 -0.8344 -2.9079 0
M  V30 9 C 6.9093 -1.1209 -3.7465 0
M  V30 10 C 3.4904 -1.0751 -1.0786 0
M  V30 11 C 2.7763 0.6304 -2.717 0
M  V30 12 C 2.0757 -1.0238 -0.452 0
M  V30 13 C 1.3819 0.6405 -2.0507 0
M  V30 14 N 1.4198 0.299 -0.6046 0
M  V30 15 C 0.0507 0.3053 -0.056 0
M  V30 16 C 0.03 0.2251 1.4788 0
M  V30 17 C -1.3586 0.3802 2.1346 0
M  V30 18 C -1.9577 1.7813 1.9351 0
M  V30 19 C -2.3523 -0.7006 1.6826 0
M  V30 20 C -3.2914 1.9261 2.6698 0
M  V30 21 C -3.6887 -0.5704 2.415 0
M  V30 22 C -4.2833 0.8339 2.2496 0
M  V30 23 N -5.5793 0.9735 2.9019 0
M  V30 24 C -5.7821 0.8709 4.2603 0
M  V30 25 O -4.9033 0.6382 5.0814 0
M  V30 26 C -7.2226 1.0481 4.6591 0
M  V30 27 H 7.5247 -1.7804 -5.6945 0
M  V30 28 H 6.0413 -0.4721 -1.9045 0
M  V30 29 H 7.9267 -0.9947 -3.3841 0
M  V30 30 H 3.8697 -2.1008 -0.9947 0
M  V30 31 H 4.1605 -0.4164 -0.5119 0
M  V30 32 H 3.3919 1.4368 -2.2976 0
M  V30 33 H 2.6526 0.8407 -3.7854 0
M  V30 34 H 2.1849 -1.2713 0.6088 0
M  V30 35 H 1.4564 -1.8058 -0.9117 0
M  V30 36 H 0.7289 -0.0628 -2.5852 0
M  V30 37 H 0.9565 1.6436 -2.1767 0
M  V30 38 H -0.5378 -0.5105 -0.4918 0
M  V30 39 H -0.4309 1.2435 -0.3529 0
M  V30 40 H 0.695 0.997 1.8881 0
M  V30 41 H 0.4392 -0.7391 1.8028 0
M  V30 42 H -1.2005 0.2476 3.2149 0
M  V30 43 H -1.2597 2.5432 2.3014 0
M  V30 44 H -2.1223 1.9822 0.8704 0
M  V30 45 H -2.5358 -0.6257 0.6044 0
M  V30 46 H -1.9338 -1.6965 1.8693 0
M  V30 47 H -3.1072 1.8881 3.7499 0
M  V30 48 H -3.7169 2.9158 2.4633 0
M  V30 49 H -3.5361 -0.8048 3.475 0
M  V30 50 H -4.3908 -1.3202 2.0304 0
M  V30 51 H -4.4972 0.977 1.1817 0
M  V30 52 H -6.381 1.1543 2.3117 0
M  V30 53 H -7.6658 1.8946 4.1266 0
M  V30 54 H -7.2852 1.2412 5.7336 0
M  V30 55 H -7.7791 0.1374 4.422 0
M  V30 END ATOM
M  V30 BEGIN BOND
M  V30 1 1 1 2
M  V30 2 2 2 3
M  V30 3 1 2 4
M  V30 4 1 3 5
M  V30 5 1 3 6
M  V30 6 1 4 7
M  V30 7 2 4 8
M  V30 8 2 6 9
M  V30 9 1 7 10
M  V30 10 1 7 11
M  V30 11 1 10 12
M  V30 12 1 11 13
M  V30 13 1 12 14
M  V30 14 1 14 15
M  V30 15 1 15 16
M  V30 16 1 16 17
M  V30 17 1 17 18
M  V30 18 1 17 19
M  V30 19 1 18 20
M  V30 20 1 19 21
M  V30 21 1 20 22
M  V30 22 1 22 23
M  V30 23 1 23 24
M  V30 24 2 24 25
M  V30 25 1 24 26
M  V30 26 1 8 9
M  V30 27 1 13 14
M  V30 28 1 21 22
M  V30 29 1 6 27
M  V30 30 1 8 28
M  V30 31 1 9 29
M  V30 32 1 10 30
M  V30 33 1 10 31
M  V30 34 1 11 32
M  V30 35 1 11 33
M  V30 36 1 12 34
M  V30 37 1 12 35
M  V30 38 1 13 36
M  V30 39 1 13 37
M  V30 40 1 15 38
M  V30 41 1 15 39
M  V30 42 1 16 40
M  V30 43 1 16 41
M  V30 44 1 17 42
M  V30 45 1 18 43
M  V30 46 1 18 44
M  V30 47 1 19 45
M  V30 48 1 19 46
M  V30 49 1 20 47
M  V30 50 1 20 48
M  V30 51 1 21 49
M  V30 52 1 21 50
M  V30 53 1 22 51
M  V30 54 1 23 52
M  V30 55 1 26 53
M  V30 56 1 26 54
M  V30 57 1 26 55
M  V30 END BOND
M  V30 END CTAB
M  END
>  <NO.>
1012

>  <Name>
chembl2024514

>  <SMILES>
CC(=O)NC1CCC(CCN2CCN(c3cccc(Cl)c3Cl)CC2)CC1

>  <logBB>
1.08

>  <Class>
1

>  <MW>
397.17

>  <nHBAcc>
3

>  <nHBDon>
1

>  <SLogP>
4.2

>  <TopoPSA>
35.58

>  <MMFF94 Energy>
116.39

$$$$
CCc1ccc(C(=O)C(C)CN2CCCC2)cc1
Actelion Java MolfileCreator 2.0

  0  0  0  0  0  0              0 V3000
M  V30 BEGIN CTAB
M  V30 COUNTS 41 42 0 0 0
M  V30 BEGIN ATOM
M  V30 1 O -2.3636 0.0787 0.1574 0
M  V30 2 C -1.2212 0.0793 0.6186 0
M  V30 3 C -0.316 1.2238 0.2879 0
M  V30 4 C -0.7266 -1.04 1.5294 0 CFG=2
M  V30 5 C 0.8449 1.5091 1.0139 0
M  V30 6 C -0.6652 2.0488 -0.7899 0
M  V30 7 C -1.217 -2.4204 1.0432 0
M  V30 8 C -1.2569 -0.755 2.937 0
M  V30 9 C 1.6518 2.5945 0.6547 0
M  V30 10 C 0.1415 3.1321 -1.1473 0
M  V30 11 N -0.378 -2.9926 -0.0231 0
M  V30 12 C 1.3118 3.4094 -0.4321 0
M  V30 13 C -0.5527 -2.3423 -1.3261 0
M  V30 14 C -0.7173 -4.3986 -0.2711 0
M  V30 15 C 2.1745 4.5883 -0.8047 0
M  V30 16 C 0.0155 -3.3527 -2.3148 0
M  V30 17 C -0.0163 -4.6899 -1.5865 0
M  V30 18 C 1.7528 5.8524 -0.0712 0
M  V30 19 H 0.3672 -1.0633 1.5599 0
M  V30 20 H 1.143 0.9169 1.8733 0
M  V30 21 H -1.5716 1.8518 -1.3599 0
M  V30 22 H -2.2721 -2.3892 0.7413 0
M  V30 23 H -1.1626 -3.1071 1.8989 0
M  V30 24 H -0.94 0.2329 3.2877 0
M  V30 25 H -2.3524 -0.7762 2.9612 0
M  V30 26 H -0.8865 -1.4981 3.651 0
M  V30 27 H 2.5493 2.8033 1.2342 0
M  V30 28 H -0.1529 3.7586 -1.9867 0
M  V30 29 H -0.0124 -1.3939 -1.3935 0
M  V30 30 H -1.6113 -2.164 -1.5536 0
M  V30 31 H -0.3599 -5.0562 0.5275 0
M  V30 32 H -1.8 -4.5401 -0.3849 0
M  V30 33 H 2.1247 4.7541 -1.8879 0
M  V30 34 H 3.2242 4.3623 -0.5807 0
M  V30 35 H 1.0466 -3.1005 -2.5878 0
M  V30 36 H -0.578 -3.3817 -3.2345 0
M  V30 37 H 1.0079 -5.0389 -1.4087 0
M  V30 38 H -0.5377 -5.459 -2.1648 0
M  V30 39 H 2.3952 6.6901 -0.3607 0
M  V30 40 H 1.8284 5.7261 1.0142 0
M  V30 41 H 0.7174 6.1217 -0.3064 0
M  V30 END ATOM
M  V30 BEGIN BOND
M  V30 1 2 1 2
M  V30 2 1 2 3
M  V30 3 1 2 4
M  V30 4 2 3 5
M  V30 5 1 3 6
M  V30 6 1 4 7
M  V30 7 1 4 8
M  V30 8 1 5 9
M  V30 9 2 6 10
M  V30 10 1 7 11
M  V30 11 2 9 12
M  V30 12 1 11 13
M  V30 13 1 11 14
M  V30 14 1 12 15
M  V30 15 1 13 16
M  V30 16 1 14 17
M  V30 17 1 15 18
M  V30 18 1 10 12
M  V30 19 1 16 17
M  V30 20 1 4 19
M  V30 21 1 5 20
M  V30 22 1 6 21
M  V30 23 1 7 22
M  V30 24 1 7 23
M  V30 25 1 8 24
M  V30 26 1 8 25
M  V30 27 1 8 26
M  V30 28 1 9 27
M  V30 29 1 10 28
M  V30 30 1 13 29
M  V30 31 1 13 30
M  V30 32 1 14 31
M  V30 33 1 14 32
M  V30 34 1 15 33
M  V30 35 1 15 34
M  V30 36 1 16 35
M  V30 37 1 16 36
M  V30 38 1 17 37
M  V30 39 1 17 38
M  V30 40 1 18 39
M  V30 41 1 18 40
M  V30 42 1 18 41
M  V30 END BOND
M  V30 BEGIN COLLECTION
M  V30 MDLV30/STERAC1 ATOMS=(1 4)
M  V30 END COLLECTION
M  V30 END CTAB
M  END
>  <NO.>
1013

>  <Name>
inaperisone

>  <SMILES>
CCc1ccc(C(=O)C(C)CN2CCCC2)cc1

>  <logBB>
1.08

>  <Class>
1

>  <MW>
245.18

>  <nHBAcc>
2

>  <nHBDon>
0

>  <SLogP>
3.16

>  <TopoPSA>
20.31

>  <MMFF94 Energy>
49.718

$$$$
CNC(C)CC1CCCCC1
Actelion Java MolfileCreator 2.0

  0  0  0  0  0  0              0 V3000
M  V30 BEGIN CTAB
M  V30 COUNTS 32 32 0 0 0
M  V30 BEGIN ATOM
M  V30 1 N -1.9392 -0.9304 -0.4651 0
M  V30 2 C -0.831 -1.7266 0.0714 0 CFG=2
M  V30 3 C -3.2504 -1.4317 -0.0827 0
M  V30 4 C 0.4917 -0.9314 -0.0404 0
M  V30 5 C -0.6919 -3.0498 -0.6934 0
M  V30 6 C 0.6927 0.1847 1.0172 0
M  V30 7 C 2.1482 0.6965 0.9841 0
M  V30 8 C -0.2571 1.3873 0.8976 0
M  V30 9 C 2.45 1.5513 -0.2469 0
M  V30 10 C 0.0128 2.2329 -0.3449 0
M  V30 11 C 1.4631 2.7063 -0.3911 0
M  V30 12 H -1.8719 -0.8728 -1.4806 0
M  V30 13 H -1.0042 -1.9509 1.1315 0
M  V30 14 H -4.0185 -0.7382 -0.4397 0
M  V30 15 H -3.4629 -2.411 -0.5206 0
M  V30 16 H -3.3504 -1.4947 1.0056 0
M  V30 17 H 0.5966 -0.5306 -1.0562 0
M  V30 18 H 1.3202 -1.643 0.081 0
M  V30 19 H -1.5832 -3.6757 -0.5858 0
M  V30 20 H -0.5221 -2.8786 -1.7625 0
M  V30 21 H 0.1541 -3.6304 -0.3094 0
M  V30 22 H 0.5311 -0.2715 2.0032 0
M  V30 23 H 2.8503 -0.1443 1.0291 0
M  V30 24 H 2.3317 1.2985 1.884 0
M  V30 25 H -1.3045 1.077 0.9232 0
M  V30 26 H -0.123 2.0238 1.7832 0
M  V30 27 H 3.4686 1.9495 -0.1736 0
M  V30 28 H 2.4221 0.93 -1.1495 0
M  V30 29 H -0.6531 3.1036 -0.3458 0
M  V30 30 H -0.2186 1.6597 -1.2497 0
M  V30 31 H 1.6325 3.4275 0.4183 0
M  V30 32 H 1.6493 3.2369 -1.3317 0
M  V30 END ATOM
M  V30 BEGIN BOND
M  V30 1 1 1 2
M  V30 2 1 1 3
M  V30 3 1 2 4
M  V30 4 1 2 5
M  V30 5 1 4 6
M  V30 6 1 6 7
M  V30 7 1 6 8
M  V30 8 1 7 9
M  V30 9 1 8 10
M  V30 10 1 9 11
M  V30 11 1 10 11
M  V30 12 1 1 12
M  V30 13 1 2 13
M  V30 14 1 3 14
M  V30 15 1 3 15
M  V30 16 1 3 16
M  V30 17 1 4 17
M  V30 18 1 4 18
M  V30 19 1 5 19
M  V30 20 1 5 20
M  V30 21 1 5 21
M  V30 22 1 6 22
M  V30 23 1 7 23
M  V30 24 1 7 24
M  V30 25 1 8 25
M  V30 26 1 8 26
M  V30 27 1 9 27
M  V30 28 1 9 28
M  V30 29 1 10 29
M  V30 30 1 10 30
M  V30 31 1 11 31
M  V30 32 1 11 32
M  V30 END BOND
M  V30 BEGIN COLLECTION
M  V30 MDLV30/STERAC1 ATOMS=(1 2)
M  V30 END COLLECTION
M  V30 END CTAB
M  END
>  <NO.>
1014

>  <Name>
101-40-6

>  <SMILES>
CNC(C)CC1CCCCC1

>  <logBB>
1.08

>  <Class>
1

>  <MW>
155.17

>  <nHBAcc>
1

>  <nHBDon>
1

>  <SLogP>
2.56

>  <TopoPSA>
12.03

>  <MMFF94 Energy>
8.6485

$$$$
NCCCN1c2ccccc2CCc2ccccc21
Actelion Java MolfileCreator 2.0

  0  0  0  0  0  0              0 V3000
M  V30 BEGIN CTAB
M  V30 COUNTS 39 41 0 0 0
M  V30 BEGIN ATOM
M  V30 1 N 0.079 -0.1581 0.079 0
M  V30 2 C 0.0262 -0.1105 -1.3374 0
M  V30 3 C 0.8824 0.6179 0.9431 0
M  V30 4 C -1.1143 -0.7412 0.7411 0
M  V30 5 C 0.3157 1.0361 -2.1076 0
M  V30 6 C -0.2969 -1.2966 -2.0383 0
M  V30 7 C 0.8842 2.0193 0.8918 0
M  V30 8 C 1.6962 -0.0118 1.8985 0
M  V30 9 C -0.8497 -2.1233 1.3462 0
M  V30 10 C 0.3052 0.9462 -3.5205 0
M  V30 11 C 0.6456 2.4035 -1.5465 0
M  V30 12 C -0.3236 -1.3628 -3.4328 0
M  V30 13 C 1.6539 2.7599 1.8056 0
M  V30 14 C 0.0846 2.726 -0.1653 0
M  V30 15 C 2.4651 0.7257 2.8011 0
M  V30 16 C -2.1329 -2.8699 1.7136 0
M  V30 17 C -0.0157 -0.2378 -4.177 0
M  V30 18 C 2.4367 2.1142 2.7597 0
M  V30 19 N -2.8618 -3.3423 0.5419 0
M  V30 20 H -1.9505 -0.7863 0.0321 0
M  V30 21 H -1.4719 -0.0679 1.5336 0
M  V30 22 H -0.5057 -2.2134 -1.4931 0
M  V30 23 H 1.7588 -1.0958 1.9242 0
M  V30 24 H -0.2676 -2.0056 2.267 0
M  V30 25 H -0.2383 -2.7407 0.6784 0
M  V30 26 H 0.5463 1.8217 -4.1211 0
M  V30 27 H 1.7364 2.5279 -1.5612 0
M  V30 28 H 0.2317 3.157 -2.2307 0
M  V30 29 H -0.568 -2.299 -3.9265 0
M  V30 30 H 1.6554 3.8467 1.7687 0
M  V30 31 H -0.9764 2.4608 -0.0812 0
M  V30 32 H 0.1432 3.8102 -0.0066 0
M  V30 33 H 3.09 0.2128 3.5267 0
M  V30 34 H -2.7844 -2.2359 2.3252 0
M  V30 35 H -1.8667 -3.7419 2.3213 0
M  V30 36 H -0.0201 -0.2785 -5.2623 0
M  V30 37 H 3.0347 2.6938 3.4575 0
M  V30 38 H -3.6605 -3.9007 0.8438 0
M  V30 39 H -3.2529 -2.5592 0.0201 0
M  V30 END ATOM
M  V30 BEGIN BOND
M  V30 1 1 1 2
M  V30 2 1 1 3
M  V30 3 1 1 4
M  V30 4 2 2 5
M  V30 5 1 2 6
M  V30 6 2 3 7
M  V30 7 1 3 8
M  V30 8 1 4 9
M  V30 9 1 5 10
M  V30 10 1 5 11
M  V30 11 2 6 12
M  V30 12 1 7 13
M  V30 13 1 7 14
M  V30 14 2 8 15
M  V30 15 1 9 16
M  V30 16 2 10 17
M  V30 17 2 13 18
M  V30 18 1 16 19
M  V30 19 1 11 14
M  V30 20 1 12 17
M  V30 21 1 15 18
M  V30 22 1 4 20
M  V30 23 1 4 21
M  V30 24 1 6 22
M  V30 25 1 8 23
M  V30 26 1 9 24
M  V30 27 1 9 25
M  V30 28 1 10 26
M  V30 29 1 11 27
M  V30 30 1 11 28
M  V30 31 1 12 29
M  V30 32 1 13 30
M  V30 33 1 14 31
M  V30 34 1 14 32
M  V30 35 1 15 33
M  V30 36 1 16 34
M  V30 37 1 16 35
M  V30 38 1 17 36
M  V30 39 1 18 37
M  V30 40 1 19 38
M  V30 41 1 19 39
M  V30 END BOND
M  V30 END CTAB
M  END
>  <NO.>
1016

>  <Name>
desmethyldesipramine

>  <SMILES>
NCCCN1c2ccccc2CCc2ccccc21

>  <logBB>
1.1

>  <Class>
1

>  <MW>
252.16

>  <nHBAcc>
2

>  <nHBDon>
1

>  <SLogP>
3.27

>  <TopoPSA>
29.26

>  <MMFF94 Energy>
58.094

$$$$
CC12NC(Cc3ccccc31)c1ccccc12
Actelion Java MolfileCreator 2.0

  0  0  0  0  0  0              0 V3000
M  V30 BEGIN CTAB
M  V30 COUNTS 32 35 0 0 0
M  V30 BEGIN ATOM
M  V30 1 N -1.1314 0.3231 -1.6974 0
M  V30 2 C -0.7488 0.8452 -0.3366 0
M  V30 3 C -0.0221 -0.6399 -1.956 0
M  V30 4 C -1.0485 -0.2703 0.6809 0
M  V30 5 C 0.7558 1.0081 -0.4728 0
M  V30 6 C -1.4828 2.1687 -0.1013 0
M  V30 7 C 1.1884 0.0986 -1.4496 0
M  V30 8 C -0.305 -1.9152 -1.1236 0
M  V30 9 C -0.7958 -1.6145 0.2903 0
M  V30 10 C -1.5022 -0.0213 1.9837 0
M  V30 11 C 1.6568 1.8175 0.1954 0
M  V30 12 C 2.5225 -0.0227 -1.7873 0
M  V30 13 C -1.0202 -2.664 1.1893 0
M  V30 14 C -1.7194 -1.0778 2.8719 0
M  V30 15 C 3.0087 1.7095 -0.142 0
M  V30 16 C 3.4373 0.7984 -1.1246 0
M  V30 17 C -1.4808 -2.3931 2.4761 0
M  V30 18 H -1.0237 1.0934 -2.3558 0
M  V30 19 H 0.0614 -0.8641 -3.0241 0
M  V30 20 H -1.2721 2.8932 -0.8978 0
M  V30 21 H -2.5687 2.0216 -0.063 0
M  V30 22 H -1.179 2.6437 0.8383 0
M  V30 23 H 0.5982 -2.5348 -1.0655 0
M  V30 24 H -1.0892 -2.4962 -1.6258 0
M  V30 25 H -1.6894 0.9906 2.3298 0
M  V30 26 H 1.3347 2.5088 0.9665 0
M  V30 27 H 2.8541 -0.731 -2.5386 0
M  V30 28 H -0.8379 -3.6925 0.8893 0
M  V30 29 H -2.0748 -0.873 3.8787 0
M  V30 30 H 3.7417 2.3313 0.3667 0
M  V30 31 H 4.4958 0.7296 -1.3644 0
M  V30 32 H -1.6537 -3.2089 3.1729 0
M  V30 END ATOM
M  V30 BEGIN BOND
M  V30 1 1 1 2
M  V30 2 1 1 3
M  V30 3 1 2 4
M  V30 4 1 2 5
M  V30 5 1 2 6
M  V30 6 1 3 7
M  V30 7 1 3 8
M  V30 8 2 4 9
M  V30 9 1 4 10
M  V30 10 1 5 11
M  V30 11 1 7 12
M  V30 12 1 9 13
M  V30 13 2 10 14
M  V30 14 2 11 15
M  V30 15 2 12 16
M  V30 16 2 13 17
M  V30 17 2 5 7
M  V30 18 1 8 9
M  V30 19 1 14 17
M  V30 20 1 15 16
M  V30 21 1 1 18
M  V30 22 1 3 19
M  V30 23 1 6 20
M  V30 24 1 6 21
M  V30 25 1 6 22
M  V30 26 1 8 23
M  V30 27 1 8 24
M  V30 28 1 10 25
M  V30 29 1 11 26
M  V30 30 1 12 27
M  V30 31 1 13 28
M  V30 32 1 14 29
M  V30 33 1 15 30
M  V30 34 1 16 31
M  V30 35 1 17 32
M  V30 END BOND
M  V30 END CTAB
M  END
>  <NO.>
1018

>  <Name>
77086-21-6

>  <SMILES>
CC12NC(Cc3ccccc31)c1ccccc12

>  <logBB>
1.11

>  <Class>
1

>  <MW>
221.12

>  <nHBAcc>
1

>  <nHBDon>
1

>  <SLogP>
3.15

>  <TopoPSA>
12.03

>  <MMFF94 Energy>
76.909

$$$$
O=C(O)C=C1C=CC(=O)O1
Actelion Java MolfileCreator 2.0

  0  0  0  0  0  0              0 V3000
M  V30 BEGIN CTAB
M  V30 COUNTS 14 14 0 0 0
M  V30 BEGIN ATOM
M  V30 1 O 0.3173 -0.1586 3.4157 0
M  V30 2 C 0.3193 -0.3982 2.22 0
M  V30 3 O -0.0572 0.4663 1.2274 0
M  V30 4 C 0.7353 -1.6797 1.6491 0
M  V30 5 C 0.1133 -0.2437 0.0478 0
M  V30 6 C 0.5981 -1.5508 0.3363 0
M  V30 7 C -0.142 0.2351 -1.1751 0
M  V30 8 C -0.6418 1.5956 -1.4051 0
M  V30 9 O -0.8937 2.4617 -0.5933 0
M  V30 10 O -0.8041 1.7951 -2.7247 0
M  V30 11 H 1.0737 -2.518 2.2287 0
M  V30 12 H 0.8179 -2.3122 -0.3963 0
M  V30 13 H 0.0119 -0.3708 -2.06 0
M  V30 14 H -1.1355 2.7168 -2.7767 0
M  V30 END ATOM
M  V30 BEGIN BOND
M  V30 1 2 1 2
M  V30 2 1 2 3
M  V30 3 1 2 4
M  V30 4 1 3 5
M  V30 5 2 4 6
M  V30 6 2 5 7
M  V30 7 1 7 8
M  V30 8 2 8 9
M  V30 9 1 8 10
M  V30 10 1 5 6
M  V30 11 1 4 11
M  V30 12 1 6 12
M  V30 13 1 7 13
M  V30 14 1 10 14
M  V30 END BOND
M  V30 END CTAB
M  END
>  <NO.>
1022

>  <Name>
4-carboxymethylenebut-2-en-4-olide

>  <SMILES>
O=C(O)C=C1C=CC(=O)O1

>  <logBB>
1.11

>  <Class>
1

>  <MW>
140.01

>  <nHBAcc>
3

>  <nHBDon>
1

>  <SLogP>
0.07

>  <TopoPSA>
63.6

>  <MMFF94 Energy>
-32.75

$$$$
N#Cc1ccc(OCC2CCN(C/C=C/I)CC2)cc1
Actelion Java MolfileCreator 2.0

  0  0  0  0  0  0              0 V3000
M  V30 BEGIN CTAB
M  V30 COUNTS 39 40 0 0 0
M  V30 BEGIN ATOM
M  V30 1 I -1.4499 -5.7285 4.7585 0
M  V30 2 C -0.4885 -4.122 3.9431 0
M  V30 3 C 0.1035 -4.1623 2.7416 0
M  V30 4 C 0.8169 -2.998 2.1196 0
M  V30 5 N 0.3115 -2.7037 0.7709 0
M  V30 6 C 1.2433 -1.8082 0.0677 0
M  V30 7 C -1.0461 -2.1391 0.808 0
M  V30 8 C 0.7811 -1.5371 -1.365 0
M  V30 9 C -1.5771 -1.8709 -0.6035 0
M  V30 10 C -0.6451 -0.9711 -1.4228 0
M  V30 11 C -0.7213 0.4931 -0.9547 0
M  V30 12 O 0.0983 1.2911 -1.8108 0
M  V30 13 C 0.1713 2.629 -1.5429 0
M  V30 14 C -0.5171 3.3051 -0.5349 0
M  V30 15 C 1.0258 3.3446 -2.3864 0
M  V30 16 C -0.3481 4.6857 -0.3721 0
M  V30 17 C 1.1975 4.7223 -2.2274 0
M  V30 18 C 0.5093 5.3975 -1.2169 0
M  V30 19 C 0.68 6.8107 -1.0466 0
M  V30 20 N 0.8166 7.9545 -0.905 0
M  V30 21 H -0.4826 -3.2146 4.5387 0
M  V30 22 H 0.0943 -5.0776 2.1539 0
M  V30 23 H 0.7705 -2.1071 2.7595 0
M  V30 24 H 1.8742 -3.287 2.0581 0
M  V30 25 H 2.2336 -2.277 0.0137 0
M  V30 26 H 1.3663 -0.8636 0.6122 0
M  V30 27 H -1.07 -1.216 1.4008 0
M  V30 28 H -1.7383 -2.842 1.2861 0
M  V30 29 H 0.8091 -2.4791 -1.9291 0
M  V30 30 H 1.4902 -0.8637 -1.8596 0
M  V30 31 H -2.5785 -1.4284 -0.5428 0
M  V30 32 H -1.693 -2.8299 -1.1259 0
M  V30 33 H -0.9652 -0.9943 -2.473 0
M  V30 34 H -1.7617 0.8341 -1.0258 0
M  V30 35 H -0.3792 0.5894 0.0814 0
M  V30 36 H -1.1947 2.7917 0.1394 0
M  V30 37 H 1.5628 2.8225 -3.1755 0
M  V30 38 H -0.8927 5.1993 0.4185 0
M  V30 39 H 1.8684 5.2575 -2.8963 0
M  V30 END ATOM
M  V30 BEGIN BOND
M  V30 1 1 1 2
M  V30 2 2 2 3
M  V30 3 1 3 4
M  V30 4 1 4 5
M  V30 5 1 5 6
M  V30 6 1 5 7
M  V30 7 1 6 8
M  V30 8 1 7 9
M  V30 9 1 8 10
M  V30 10 1 10 11
M  V30 11 1 11 12
M  V30 12 1 12 13
M  V30 13 2 13 14
M  V30 14 1 13 15
M  V30 15 1 14 16
M  V30 16 2 15 17
M  V30 17 2 16 18
M  V30 18 1 18 19
M  V30 19 3 19 20
M  V30 20 1 9 10
M  V30 21 1 17 18
M  V30 22 1 2 21
M  V30 23 1 3 22
M  V30 24 1 4 23
M  V30 25 1 4 24
M  V30 26 1 6 25
M  V30 27 1 6 26
M  V30 28 1 7 27
M  V30 29 1 7 28
M  V30 30 1 8 29
M  V30 31 1 8 30
M  V30 32 1 9 31
M  V30 33 1 9 32
M  V30 34 1 10 33
M  V30 35 1 11 34
M  V30 36 1 11 35
M  V30 37 1 14 36
M  V30 38 1 15 37
M  V30 39 1 16 38
M  V30 40 1 17 39
M  V30 END BOND
M  V30 END CTAB
M  END
>  <NO.>
1023

>  <Name>
i-4 (44cyanophenoxymethylpiperidineniodoallyl)

>  <SMILES>
N#Cc1ccc(OCC2CCN(C/C=C/I)CC2)cc1

>  <logBB>
1.13

>  <Class>
1

>  <MW>
382.05

>  <nHBAcc>
3

>  <nHBDon>
0

>  <SLogP>
3.6

>  <TopoPSA>
36.26

>  <MMFF94 Energy>
28.429

$$$$
COCCc1ccc(OCC(O)CNC(C)C)cc1
Actelion Java MolfileCreator 2.0

  0  0  0  0  0  0              0 V3000
M  V30 BEGIN CTAB
M  V30 COUNTS 44 44 0 0 0
M  V30 BEGIN ATOM
M  V30 1 O -0.2333 -1.3229 -1.0894 0
M  V30 2 C 0.732 -1.3498 -0.1214 0
M  V30 3 C -1.1644 -0.231 -1.0527 0
M  V30 4 C 0.8679 -0.4436 0.9297 0
M  V30 5 C 1.641 -2.4037 -0.2337 0
M  V30 6 C -2.1301 -0.4113 -2.2307 0 CFG=1
M  V30 7 C 1.9063 -0.5909 1.8567 0
M  V30 8 C 2.6785 -2.5531 0.6893 0
M  V30 9 O -2.799 -1.6764 -2.0866 0
M  V30 10 C -3.2028 0.6917 -2.3156 0
M  V30 11 C 2.8229 -1.6432 1.7419 0
M  V30 12 N -2.6479 2.0351 -2.5344 0
M  V30 13 C 3.9282 -1.8123 2.7525 0
M  V30 14 C -3.6937 3.0411 -2.7815 0
M  V30 15 C 3.5012 -2.6919 3.9288 0
M  V30 16 C -3.0933 4.4325 -2.5572 0
M  V30 17 C -4.2392 2.9467 -4.2076 0
M  V30 18 O 4.5886 -2.9348 4.8241 0
M  V30 19 C 4.8131 -1.866 5.7336 0
M  V30 20 H -0.6237 0.7172 -1.1432 0
M  V30 21 H -1.7267 -0.2692 -0.1117 0
M  V30 22 H 0.1843 0.3879 1.0619 0
M  V30 23 H 1.5426 -3.1166 -1.0489 0
M  V30 24 H -1.5669 -0.4619 -3.1703 0
M  V30 25 H 1.9936 0.1258 2.6707 0
M  V30 26 H 3.3715 -3.3844 0.579 0
M  V30 27 H -2.0903 -2.3304 -1.9311 0
M  V30 28 H -3.8852 0.4165 -3.128 0
M  V30 29 H -3.806 0.6808 -1.3984 0
M  V30 30 H -2.1183 2.3141 -1.7095 0
M  V30 31 H 4.2532 -0.8264 3.1061 0
M  V30 32 H 4.8154 -2.2426 2.2704 0
M  V30 33 H -4.5155 2.9157 -2.0654 0
M  V30 34 H 2.6479 -2.264 4.4698 0
M  V30 35 H 3.18 -3.6714 3.5558 0
M  V30 36 H -2.2569 4.625 -3.2389 0
M  V30 37 H -2.7264 4.5428 -1.5305 0
M  V30 38 H -3.8472 5.2102 -2.7219 0
M  V30 39 H -4.7622 2.0018 -4.3829 0
M  V30 40 H -3.4366 3.0325 -4.9489 0
M  V30 41 H -4.9569 3.7524 -4.3992 0
M  V30 42 H 5.626 -2.1548 6.4056 0
M  V30 43 H 3.9181 -1.6775 6.3344 0
M  V30 44 H 5.1115 -0.9568 5.2053 0
M  V30 END ATOM
M  V30 BEGIN BOND
M  V30 1 1 1 2
M  V30 2 1 1 3
M  V30 3 2 2 4
M  V30 4 1 2 5
M  V30 5 1 3 6
M  V30 6 1 4 7
M  V30 7 2 5 8
M  V30 8 1 6 9
M  V30 9 1 6 10
M  V30 10 2 7 11
M  V30 11 1 10 12
M  V30 12 1 11 13
M  V30 13 1 12 14
M  V30 14 1 13 15
M  V30 15 1 14 16
M  V30 16 1 14 17
M  V30 17 1 15 18
M  V30 18 1 18 19
M  V30 19 1 8 11
M  V30 20 1 3 20
M  V30 21 1 3 21
M  V30 22 1 4 22
M  V30 23 1 5 23
M  V30 24 1 6 24
M  V30 25 1 7 25
M  V30 26 1 8 26
M  V30 27 1 9 27
M  V30 28 1 10 28
M  V30 29 1 10 29
M  V30 30 1 12 30
M  V30 31 1 13 31
M  V30 32 1 13 32
M  V30 33 1 14 33
M  V30 34 1 15 34
M  V30 35 1 15 35
M  V30 36 1 16 36
M  V30 37 1 16 37
M  V30 38 1 16 38
M  V30 39 1 17 39
M  V30 40 1 17 40
M  V30 41 1 17 41
M  V30 42 1 19 42
M  V30 43 1 19 43
M  V30 44 1 19 44
M  V30 END BOND
M  V30 BEGIN COLLECTION
M  V30 MDLV30/STERAC1 ATOMS=(1 6)
M  V30 END COLLECTION
M  V30 END CTAB
M  END
>  <NO.>
1026

>  <Name>
metoprolol

>  <SMILES>
COCCc1ccc(OCC(O)CNC(C)C)cc1

>  <logBB>
1.15

>  <Class>
1

>  <MW>
267.18

>  <nHBAcc>
4

>  <nHBDon>
2

>  <SLogP>
1.61

>  <TopoPSA>
50.72

>  <MMFF94 Energy>
73.154

$$$$
CNCCCN1c2ccccc2CCc2ccccc21
Actelion Java MolfileCreator 2.0

  0  0  0  0  0  0              0 V3000
M  V30 BEGIN CTAB
M  V30 COUNTS 42 44 0 0 0
M  V30 BEGIN ATOM
M  V30 1 N -0.237 0.158 -0.395 0
M  V30 2 C 0.2803 1.3916 -0.8472 0
M  V30 3 C -1.134 -0.7024 -1.0762 0
M  V30 4 C 0.6106 -0.4983 0.6294 0
M  V30 5 C 0.9539 1.5058 -2.072 0
M  V30 6 C 0.1399 2.5413 -0.0539 0
M  V30 7 C -1.2172 -0.8187 -2.4798 0
M  V30 8 C -2.0379 -1.4688 -0.3037 0
M  V30 9 C 0.2575 -0.0739 2.0584 0
M  V30 10 C 1.5019 2.739 -2.4638 0
M  V30 11 C 1.0596 0.3102 -2.976 0
M  V30 12 C 0.6799 3.7669 -0.4485 0
M  V30 13 C -2.2023 -1.6614 -3.0483 0
M  V30 14 C -0.3241 -0.1005 -3.4703 0
M  V30 15 C -2.9908 -2.3106 -0.8803 0
M  V30 16 C 0.9599 -0.976 3.0753 0
M  V30 17 C 1.3689 3.8634 -1.6517 0
M  V30 18 C -3.0758 -2.4039 -2.2588 0
M  V30 19 N 0.611 -0.5617 4.435 0
M  V30 20 C 1.2807 -1.3935 5.426 0
M  V30 21 H 1.6712 -0.2806 0.4382 0
M  V30 22 H 0.5354 -1.5914 0.545 0
M  V30 23 H -0.4221 2.4905 0.8746 0
M  V30 24 H -2.0298 -1.3879 0.7799 0
M  V30 25 H -0.8266 -0.1083 2.2153 0
M  V30 26 H 0.5687 0.9627 2.2279 0
M  V30 27 H 2.0259 2.8312 -3.4122 0
M  V30 28 H 1.57 -0.5124 -2.4602 0
M  V30 29 H 1.6823 0.5607 -3.844 0
M  V30 30 H 0.5533 4.6432 0.1811 0
M  V30 31 H -2.286 -1.7437 -4.1308 0
M  V30 32 H -0.1597 -0.7733 -4.3232 0
M  V30 33 H -0.8702 0.771 -3.8551 0
M  V30 34 H -3.6721 -2.8735 -0.2486 0
M  V30 35 H 2.0451 -0.9178 2.9276 0
M  V30 36 H 0.6496 -2.0155 2.9149 0
M  V30 37 H 1.789 4.8152 -1.9652 0
M  V30 38 H -3.8205 -3.0454 -2.7212 0
M  V30 39 H 0.8781 0.4125 4.5775 0
M  V30 40 H 2.3698 -1.3149 5.3458 0
M  V30 41 H 0.9883 -2.4436 5.3242 0
M  V30 42 H 0.9924 -1.0675 6.4302 0
M  V30 END ATOM
M  V30 BEGIN BOND
M  V30 1 1 1 2
M  V30 2 1 1 3
M  V30 3 1 1 4
M  V30 4 2 2 5
M  V30 5 1 2 6
M  V30 6 2 3 7
M  V30 7 1 3 8
M  V30 8 1 4 9
M  V30 9 1 5 10
M  V30 10 1 5 11
M  V30 11 2 6 12
M  V30 12 1 7 13
M  V30 13 1 7 14
M  V30 14 2 8 15
M  V30 15 1 9 16
M  V30 16 2 10 17
M  V30 17 2 13 18
M  V30 18 1 16 19
M  V30 19 1 19 20
M  V30 20 1 11 14
M  V30 21 1 12 17
M  V30 22 1 15 18
M  V30 23 1 4 21
M  V30 24 1 4 22
M  V30 25 1 6 23
M  V30 26 1 8 24
M  V30 27 1 9 25
M  V30 28 1 9 26
M  V30 29 1 10 27
M  V30 30 1 11 28
M  V30 31 1 11 29
M  V30 32 1 12 30
M  V30 33 1 13 31
M  V30 34 1 14 32
M  V30 35 1 14 33
M  V30 36 1 15 34
M  V30 37 1 16 35
M  V30 38 1 16 36
M  V30 39 1 17 37
M  V30 40 1 18 38
M  V30 41 1 19 39
M  V30 42 1 20 40
M  V30 43 1 20 41
M  V30 44 1 20 42
M  V30 END BOND
M  V30 END CTAB
M  END
>  <NO.>
1028

>  <Name>
2qju

>  <SMILES>
CNCCCN1c2ccccc2CCc2ccccc21

>  <logBB>
1.2

>  <Class>
1

>  <MW>
266.18

>  <nHBAcc>
2

>  <nHBDon>
1

>  <SLogP>
3.53

>  <TopoPSA>
15.27

>  <MMFF94 Energy>
58.013

$$$$
CCc1cccc(N=C(C)Nc2cccc(CC)c2)c1
Actelion Java MolfileCreator 2.0

  0  0  0  0  0  0              0 V3000
M  V30 BEGIN CTAB
M  V30 COUNTS 42 43 0 0 0
M  V30 BEGIN ATOM
M  V30 1 N 0.0 0.8605 0.5475 0
M  V30 2 C 0.4414 1.5434 1.6866 0
M  V30 3 C -1.1091 0.1787 0.5634 0
M  V30 4 C 1.2917 0.9148 2.601 0
M  V30 5 C 0.09 2.8794 1.8873 0
M  V30 6 N -1.6115 -0.5227 -0.5173 0
M  V30 7 C -1.9723 0.0961 1.8224 0
M  V30 8 C 1.7579 1.5946 3.7359 0
M  V30 9 C 0.5512 3.5701 3.0082 0
M  V30 10 C -1.1052 -0.6745 -1.8236 0
M  V30 11 C 1.38 2.9294 3.93 0
M  V30 12 C 2.6821 0.9098 4.7088 0
M  V30 13 C -1.834 -1.4704 -2.729 0
M  V30 14 C 0.0762 -0.0914 -2.287 0
M  V30 15 C 4.1424 1.0862 4.3221 0
M  V30 16 C -1.4066 -1.6761 -4.0518 0
M  V30 17 C 0.5187 -0.2919 -3.5989 0
M  V30 18 C -0.2169 -1.0821 -4.4772 0
M  V30 19 C -2.2034 -2.5486 -4.9872 0
M  V30 20 C -1.7876 -4.0084 -4.8907 0
M  V30 21 H 1.5912 -0.1135 2.4155 0
M  V30 22 H -0.5421 3.3815 1.1606 0
M  V30 23 H -2.4832 -1.0135 -0.3714 0
M  V30 24 H -2.2966 1.0975 2.1186 0
M  V30 25 H -1.4025 -0.3626 2.635 0
M  V30 26 H -2.8659 -0.511 1.6515 0
M  V30 27 H 0.2721 4.6096 3.1569 0
M  V30 28 H 1.7399 3.4817 4.7953 0
M  V30 29 H 2.4382 -0.1583 4.7594 0
M  V30 30 H 2.5154 1.3065 5.7177 0
M  V30 31 H -2.7569 -1.9461 -2.4041 0
M  V30 32 H 0.6866 0.5332 -1.6427 0
M  V30 33 H 4.7891 0.5798 5.0454 0
M  V30 34 H 4.4222 2.1449 4.2995 0
M  V30 35 H 4.345 0.6642 3.332 0
M  V30 36 H 1.4442 0.173 -3.9287 0
M  V30 37 H 0.1446 -1.2308 -5.4916 0
M  V30 38 H -2.0789 -2.1955 -6.0181 0
M  V30 39 H -3.2722 -2.4513 -4.7611 0
M  V30 40 H -2.381 -4.617 -5.5801 0
M  V30 41 H -1.9381 -4.3984 -3.8783 0
M  V30 42 H -0.7308 -4.138 -5.1468 0
M  V30 END ATOM
M  V30 BEGIN BOND
M  V30 1 1 1 2
M  V30 2 2 1 3
M  V30 3 2 2 4
M  V30 4 1 2 5
M  V30 5 1 3 6
M  V30 6 1 3 7
M  V30 7 1 4 8
M  V30 8 2 5 9
M  V30 9 1 6 10
M  V30 10 2 8 11
M  V30 11 1 8 12
M  V30 12 2 10 13
M  V30 13 1 10 14
M  V30 14 1 12 15
M  V30 15 1 13 16
M  V30 16 2 14 17
M  V30 17 2 16 18
M  V30 18 1 16 19
M  V30 19 1 19 20
M  V30 20 1 9 11
M  V30 21 1 17 18
M  V30 22 1 4 21
M  V30 23 1 5 22
M  V30 24 1 6 23
M  V30 25 1 7 24
M  V30 26 1 7 25
M  V30 27 1 7 26
M  V30 28 1 9 27
M  V30 29 1 11 28
M  V30 30 1 12 29
M  V30 31 1 12 30
M  V30 32 1 13 31
M  V30 33 1 14 32
M  V30 34 1 15 33
M  V30 35 1 15 34
M  V30 36 1 15 35
M  V30 37 1 17 36
M  V30 38 1 18 37
M  V30 39 1 19 38
M  V30 40 1 19 39
M  V30 41 1 20 40
M  V30 42 1 20 41
M  V30 43 1 20 42
M  V30 END BOND
M  V30 END CTAB
M  END
>  <NO.>
1029

>  <Name>
9-c17

>  <SMILES>
CCc1cccc(N=C(C)Nc2cccc(CC)c2)c1

>  <logBB>
1.2

>  <Class>
1

>  <MW>
266.18

>  <nHBAcc>
1

>  <nHBDon>
1

>  <SLogP>
4.97

>  <TopoPSA>
24.39

>  <MMFF94 Energy>
21.988

$$$$
CN(C)CCCN1c2ccccc2Sc2ccccc21
Actelion Java MolfileCreator 2.0

  0  0  0  0  0  0              0 V3000
M  V30 BEGIN CTAB
M  V30 COUNTS 40 42 0 0 0
M  V30 BEGIN ATOM
M  V30 1 S -0.0803 -3.2996 -1.1257 0
M  V30 2 C -1.2687 -2.6909 0.053 0
M  V30 3 C 1.4394 -2.602 -0.5117 0
M  V30 4 C -0.9811 -1.6619 0.9706 0
M  V30 5 C -2.5444 -3.2819 0.0196 0
M  V30 6 C 1.4782 -1.5785 0.4555 0
M  V30 7 C 2.6296 -3.1109 -1.0611 0
M  V30 8 N 0.2901 -1.0285 1.0087 0
M  V30 9 C -1.9967 -1.3088 1.8831 0
M  V30 10 C -3.5382 -2.8883 0.9117 0
M  V30 11 C 2.7491 -1.1408 0.8813 0
M  V30 12 C 3.8697 -2.6379 -0.6414 0
M  V30 13 C 0.2702 0.4484 1.1489 0
M  V30 14 C -3.2602 -1.9072 1.8521 0
M  V30 15 C 3.9294 -1.6575 0.3381 0
M  V30 16 C 0.0384 1.1317 -0.2076 0
M  V30 17 C -0.0719 2.6516 -0.0334 0
M  V30 18 N -0.1314 3.3848 -1.3091 0
M  V30 19 C -0.0403 4.827 -1.0652 0
M  V30 20 C -1.3502 3.0882 -2.0651 0
M  V30 21 H -2.7666 -4.0649 -0.7023 0
M  V30 22 H 2.5936 -3.8894 -1.8202 0
M  V30 23 H -1.8098 -0.5815 2.6677 0
M  V30 24 H -4.5171 -3.3589 0.8809 0
M  V30 25 H 2.8473 -0.4066 1.6751 0
M  V30 26 H 4.7822 -3.0435 -1.0696 0
M  V30 27 H 1.1969 0.8261 1.5932 0
M  V30 28 H -0.5009 0.7815 1.8508 0
M  V30 29 H -4.0188 -1.611 2.572 0
M  V30 30 H 4.8922 -1.296 0.69 0
M  V30 31 H -0.8767 0.7341 -0.6605 0
M  V30 32 H 0.8643 0.8962 -0.89 0
M  V30 33 H -0.9432 2.8907 0.5907 0
M  V30 34 H 0.8159 2.9863 0.5189 0
M  V30 35 H 0.8958 5.0736 -0.5521 0
M  V30 36 H -0.8751 5.1968 -0.4586 0
M  V30 37 H -0.0298 5.3788 -2.0119 0
M  V30 38 H -2.2566 3.3022 -1.4874 0
M  V30 39 H -1.3763 2.0412 -2.3823 0
M  V30 40 H -1.3847 3.6806 -2.9869 0
M  V30 END ATOM
M  V30 BEGIN BOND
M  V30 1 1 1 2
M  V30 2 1 1 3
M  V30 3 2 2 4
M  V30 4 1 2 5
M  V30 5 2 3 6
M  V30 6 1 3 7
M  V30 7 1 4 8
M  V30 8 1 4 9
M  V30 9 2 5 10
M  V30 10 1 6 11
M  V30 11 2 7 12
M  V30 12 1 8 13
M  V30 13 2 9 14
M  V30 14 2 11 15
M  V30 15 1 13 16
M  V30 16 1 16 17
M  V30 17 1 17 18
M  V30 18 1 18 19
M  V30 19 1 18 20
M  V30 20 1 6 8
M  V30 21 1 10 14
M  V30 22 1 12 15
M  V30 23 1 5 21
M  V30 24 1 7 22
M  V30 25 1 9 23
M  V30 26 1 10 24
M  V30 27 1 11 25
M  V30 28 1 12 26
M  V30 29 1 13 27
M  V30 30 1 13 28
M  V30 31 1 14 29
M  V30 32 1 15 30
M  V30 33 1 16 31
M  V30 34 1 16 32
M  V30 35 1 17 33
M  V30 36 1 17 34
M  V30 37 1 19 35
M  V30 38 1 19 36
M  V30 39 1 19 37
M  V30 40 1 20 38
M  V30 41 1 20 39
M  V30 42 1 20 40
M  V30 END BOND
M  V30 END CTAB
M  END
>  <NO.>
1030

>  <Name>
promazine

>  <SMILES>
CN(C)CCCN1c2ccccc2Sc2ccccc21

>  <logBB>
1.23

>  <Class>
1

>  <MW>
284.13

>  <nHBAcc>
3

>  <nHBDon>
0

>  <SLogP>
4.24

>  <TopoPSA>
6.48

>  <MMFF94 Energy>
73.372

$$$$
COc1ccc(-c2nc(-c3cccc(CN(C)C)c3)n(C)n2)cc1
Actelion Java MolfileCreator 2.0

  0  0  0  0  0  0              0 V3000
M  V30 BEGIN CTAB
M  V30 COUNTS 46 48 0 0 0
M  V30 BEGIN ATOM
M  V30 1 O -2.2134 6.4928 3.6383 0
M  V30 2 C -1.6502 5.4994 2.886 0
M  V30 3 C -1.5028 7.7221 3.7139 0
M  V30 4 C -0.446 5.5805 2.1874 0
M  V30 5 C -2.384 4.3121 2.8424 0
M  V30 6 C 0.0169 4.4809 1.4522 0
M  V30 7 C -1.923 3.214 2.1089 0
M  V30 8 C -0.7153 3.2863 1.4042 0
M  V30 9 C -0.2365 2.1391 0.6391 0
M  V30 10 N 0.9117 2.121 -0.0525 0
M  V30 11 N -0.9421 0.9609 0.5622 0
M  V30 12 N 0.9024 0.8849 -0.5853 0
M  V30 13 C -0.1968 0.1659 -0.1845 0
M  V30 14 C 1.9267 0.5283 -1.5331 0
M  V30 15 C -0.5133 -1.2276 -0.5116 0
M  V30 16 C 0.4694 -2.2284 -0.5703 0
M  V30 17 C -1.8588 -1.6137 -0.5972 0
M  V30 18 C 0.1288 -3.5714 -0.8099 0
M  V30 19 C -2.2124 -2.9424 -0.8363 0
M  V30 20 C -1.2221 -3.9144 -0.9525 0
M  V30 21 C 1.1995 -4.6419 -0.876 0
M  V30 22 N 1.2248 -5.3621 -2.1606 0
M  V30 23 C 2.0854 -6.5418 -2.0568 0
M  V30 24 C 1.6865 -4.5032 -3.2531 0
M  V30 25 H -0.5227 7.5837 4.1824 0
M  V30 26 H -2.0802 8.4037 4.3463 0
M  V30 27 H -1.4079 8.1849 2.726 0
M  V30 28 H 0.1598 6.4802 2.1905 0
M  V30 29 H -3.324 4.2386 3.3841 0
M  V30 30 H 0.9592 4.564 0.9138 0
M  V30 31 H -2.5141 2.3005 2.0925 0
M  V30 32 H 1.5048 -0.1226 -2.302 0
M  V30 33 H 2.3071 1.4366 -2.0092 0
M  V30 34 H 2.7336 0.0265 -0.9942 0
M  V30 35 H 1.5142 -1.9807 -0.4052 0
M  V30 36 H -2.6449 -0.8676 -0.4878 0
M  V30 37 H -3.26 -3.2187 -0.9232 0
M  V30 38 H -1.5027 -4.949 -1.1416 0
M  V30 39 H 0.9832 -5.3437 -0.0587 0
M  V30 40 H 2.1857 -4.2119 -0.6552 0
M  V30 41 H 1.716 -7.2219 -1.281 0
M  V30 42 H 3.1227 -6.2779 -1.82 0
M  V30 43 H 2.0786 -7.1077 -2.9951 0
M  V30 44 H 2.6946 -4.1118 -3.0734 0
M  V30 45 H 1.0096 -3.6563 -3.4083 0
M  V30 46 H 1.699 -5.0591 -4.1976 0
M  V30 END ATOM
M  V30 BEGIN BOND
M  V30 1 1 1 2
M  V30 2 1 1 3
M  V30 3 2 2 4
M  V30 4 1 2 5
M  V30 5 1 4 6
M  V30 6 2 5 7
M  V30 7 2 6 8
M  V30 8 1 8 9
M  V30 9 2 9 10
M  V30 10 1 9 11
M  V30 11 1 10 12
M  V30 12 2 11 13
M  V30 13 1 12 14
M  V30 14 1 13 15
M  V30 15 2 15 16
M  V30 16 1 15 17
M  V30 17 1 16 18
M  V30 18 2 17 19
M  V30 19 2 18 20
M  V30 20 1 18 21
M  V30 21 1 21 22
M  V30 22 1 22 23
M  V30 23 1 22 24
M  V30 24 1 7 8
M  V30 25 1 12 13
M  V30 26 1 19 20
M  V30 27 1 3 25
M  V30 28 1 3 26
M  V30 29 1 3 27
M  V30 30 1 4 28
M  V30 31 1 5 29
M  V30 32 1 6 30
M  V30 33 1 7 31
M  V30 34 1 14 32
M  V30 35 1 14 33
M  V30 36 1 14 34
M  V30 37 1 16 35
M  V30 38 1 17 36
M  V30 39 1 19 37
M  V30 40 1 20 38
M  V30 41 1 21 39
M  V30 42 1 21 40
M  V30 43 1 23 41
M  V30 44 1 23 42
M  V30 45 1 23 43
M  V30 46 1 24 44
M  V30 47 1 24 45
M  V30 48 1 24 46
M  V30 END BOND
M  V30 END CTAB
M  END
>  <NO.>
1033

>  <Name>
schembl6584053

>  <SMILES>
COc1ccc(-c2nc(-c3cccc(CN(C)C)c3)n(C)n2)cc1

>  <logBB>
1.26

>  <Class>
1

>  <MW>
322.18

>  <nHBAcc>
4

>  <nHBDon>
0

>  <SLogP>
3.22

>  <TopoPSA>
43.18

>  <MMFF94 Energy>
75.211

$$$$
CN(C)CCOC(c1ccccc1)c1ccccc1
Actelion Java MolfileCreator 2.0

  0  0  0  0  0  0              0 V3000
M  V30 BEGIN CTAB
M  V30 COUNTS 40 41 0 0 0
M  V30 BEGIN ATOM
M  V30 1 O 0.4717 -0.0786 -0.7864 0
M  V30 2 C -0.0892 1.0882 -0.1654 0
M  V30 3 C -0.0349 -0.295 -2.1059 0
M  V30 4 C -1.168 0.6394 0.8072 0
M  V30 5 C 1.004 1.9189 0.5003 0
M  V30 6 C 0.5487 -1.5958 -2.6865 0
M  V30 7 C -0.865 -0.2162 1.8793 0
M  V30 8 C -2.4948 1.069 0.6444 0
M  V30 9 C 2.3033 1.4235 0.6964 0
M  V30 10 C 0.7135 3.2219 0.9425 0
M  V30 11 N -0.2272 -2.8173 -2.3774 0
M  V30 12 C -1.8604 -0.6265 2.7674 0
M  V30 13 C -3.4894 0.6569 1.5338 0
M  V30 14 C 3.2827 2.2076 1.3102 0
M  V30 15 C 1.6935 4.0046 1.5567 0
M  V30 16 C -0.3167 -3.0557 -0.9347 0
M  V30 17 C 0.3843 -3.9742 -3.0353 0
M  V30 18 C -3.1718 -0.1893 2.5945 0
M  V30 19 C 2.9778 3.4974 1.7391 0
M  V30 20 H -0.5304 1.7317 -0.9402 0
M  V30 21 H 0.2862 0.5435 -2.7355 0
M  V30 22 H -1.1311 -0.3241 -2.1016 0
M  V30 23 H 0.5531 -1.4807 -3.7778 0
M  V30 24 H 1.5902 -1.7109 -2.3588 0
M  V30 25 H 0.1548 -0.5686 2.02 0
M  V30 26 H -2.7645 1.7263 -0.1788 0
M  V30 27 H 2.5611 0.4169 0.3733 0
M  V30 28 H -0.2861 3.6325 0.8166 0
M  V30 29 H -1.6107 -1.2882 3.5925 0
M  V30 30 H -4.5137 0.9945 1.3979 0
M  V30 31 H 4.2831 1.8084 1.4548 0
M  V30 32 H 1.4524 5.0085 1.8963 0
M  V30 33 H -0.921 -2.2854 -0.4476 0
M  V30 34 H 0.669 -3.0904 -0.4574 0
M  V30 35 H -0.8275 -4.0044 -0.7322 0
M  V30 36 H 1.404 -4.1618 -2.6794 0
M  V30 37 H 0.4185 -3.8276 -4.1207 0
M  V30 38 H -0.2131 -4.8763 -2.8621 0
M  V30 39 H -3.9468 -0.51 3.2856 0
M  V30 40 H 3.7401 4.1055 2.2188 0
M  V30 END ATOM
M  V30 BEGIN BOND
M  V30 1 1 1 2
M  V30 2 1 1 3
M  V30 3 1 2 4
M  V30 4 1 2 5
M  V30 5 1 3 6
M  V30 6 2 4 7
M  V30 7 1 4 8
M  V30 8 2 5 9
M  V30 9 1 5 10
M  V30 10 1 6 11
M  V30 11 1 7 12
M  V30 12 2 8 13
M  V30 13 1 9 14
M  V30 14 2 10 15
M  V30 15 1 11 16
M  V30 16 1 11 17
M  V30 17 2 12 18
M  V30 18 2 14 19
M  V30 19 1 13 18
M  V30 20 1 15 19
M  V30 21 1 2 20
M  V30 22 1 3 21
M  V30 23 1 3 22
M  V30 24 1 6 23
M  V30 25 1 6 24
M  V30 26 1 7 25
M  V30 27 1 8 26
M  V30 28 1 9 27
M  V30 29 1 10 28
M  V30 30 1 12 29
M  V30 31 1 13 30
M  V30 32 1 14 31
M  V30 33 1 15 32
M  V30 34 1 16 33
M  V30 35 1 16 34
M  V30 36 1 16 35
M  V30 37 1 17 36
M  V30 38 1 17 37
M  V30 39 1 17 38
M  V30 40 1 18 39
M  V30 41 1 19 40
M  V30 END BOND
M  V30 END CTAB
M  END
>  <NO.>
1034

>  <Name>
diphenhydramine

>  <SMILES>
CN(C)CCOC(c1ccccc1)c1ccccc1

>  <logBB>
1.3

>  <Class>
1

>  <MW>
255.16

>  <nHBAcc>
2

>  <nHBDon>
0

>  <SLogP>
3.35

>  <TopoPSA>
12.47

>  <MMFF94 Energy>
82.466

$$$$
O=C(CCCN1CCC(O)(c2ccc(Cl)cc2)CC1)c1ccc(F)cc1
Actelion Java MolfileCreator 2.0

  0  0  0  0  0  0              0 V3000
M  V30 BEGIN CTAB
M  V30 COUNTS 49 51 0 0 0
M  V30 BEGIN ATOM
M  V30 1 Cl 3.7086 5.1626 6.861 0
M  V30 2 C 2.9672 4.2652 5.5948 0
M  V30 3 C 2.304 3.0782 5.8824 0
M  V30 4 C 3.0318 4.7306 4.2851 0
M  V30 5 C 1.7033 2.3538 4.8492 0
M  V30 6 C 2.4289 4.0036 3.2514 0
M  V30 7 C 1.753 2.8001 3.5114 0
M  V30 8 C 1.0749 1.9629 2.419 0
M  V30 9 O -0.2684 1.7061 2.8678 0
M  V30 10 C 1.7934 0.6116 2.2524 0
M  V30 11 C 0.9637 2.6522 1.0455 0
M  V30 12 C 1.1783 -0.2326 1.1336 0
M  V30 13 C 0.3602 1.7241 -0.0116 0
M  V30 14 N 1.1715 0.5085 -0.1325 0
M  V30 15 C 0.7846 -0.3253 -1.2782 0
M  V30 16 C -0.6406 -0.8948 -1.2788 0
M  V30 17 C -0.8834 -1.7472 -2.5282 0
M  V30 18 C -2.291 -2.3192 -2.5674 0
M  V30 19 O -3.1208 -2.0831 -1.6917 0
M  V30 20 C -2.6765 -3.198 -3.7157 0
M  V30 21 C -3.9736 -3.7371 -3.7361 0
M  V30 22 C -1.7925 -3.497 -4.7627 0
M  V30 23 C -4.3808 -4.5628 -4.7864 0
M  V30 24 C -2.2044 -4.3242 -5.8125 0
M  V30 25 C -3.4922 -4.8486 -5.8146 0
M  V30 26 F -3.8799 -5.6398 -6.8229 0
M  V30 27 H 2.2488 2.7088 6.9029 0
M  V30 28 H 3.5508 5.6583 4.0576 0
M  V30 29 H 1.1845 1.4272 5.0943 0
M  V30 30 H 2.5079 4.4052 2.2447 0
M  V30 31 H -0.5931 2.5226 3.2868 0
M  V30 32 H 2.8583 0.7768 2.0392 0
M  V30 33 H 1.7399 0.025 3.1782 0
M  V30 34 H 0.3342 3.5484 1.1186 0
M  V30 35 H 1.9521 2.9712 0.6904 0
M  V30 36 H 1.7811 -1.143 1.0285 0
M  V30 37 H 0.1676 -0.5461 1.4227 0
M  V30 38 H -0.6819 1.4953 0.2423 0
M  V30 39 H 0.3504 2.2622 -0.9674 0
M  V30 40 H 1.5006 -1.1541 -1.3568 0
M  V30 41 H 0.9322 0.2629 -2.1935 0
M  V30 42 H -1.3765 -0.0828 -1.2512 0
M  V30 43 H -0.8083 -1.5112 -0.3881 0
M  V30 44 H -0.1694 -2.5784 -2.539 0
M  V30 45 H -0.736 -1.1286 -3.4206 0
M  V30 46 H -4.6739 -3.5155 -2.9317 0
M  V30 47 H -0.7814 -3.1018 -4.789 0
M  V30 48 H -5.3823 -4.9815 -4.8058 0
M  V30 49 H -1.5292 -4.5631 -6.6289 0
M  V30 END ATOM
M  V30 BEGIN BOND
M  V30 1 1 1 2
M  V30 2 2 2 3
M  V30 3 1 2 4
M  V30 4 1 3 5
M  V30 5 2 4 6
M  V30 6 2 5 7
M  V30 7 1 7 8
M  V30 8 1 8 9
M  V30 9 1 8 10
M  V30 10 1 8 11
M  V30 11 1 10 12
M  V30 12 1 11 13
M  V30 13 1 12 14
M  V30 14 1 14 15
M  V30 15 1 15 16
M  V30 16 1 16 17
M  V30 17 1 17 18
M  V30 18 2 18 19
M  V30 19 1 18 20
M  V30 20 2 20 21
M  V30 21 1 20 22
M  V30 22 1 21 23
M  V30 23 2 22 24
M  V30 24 2 23 25
M  V30 25 1 25 26
M  V30 26 1 6 7
M  V30 27 1 13 14
M  V30 28 1 24 25
M  V30 29 1 3 27
M  V30 30 1 4 28
M  V30 31 1 5 29
M  V30 32 1 6 30
M  V30 33 1 9 31
M  V30 34 1 10 32
M  V30 35 1 10 33
M  V30 36 1 11 34
M  V30 37 1 11 35
M  V30 38 1 12 36
M  V30 39 1 12 37
M  V30 40 1 13 38
M  V30 41 1 13 39
M  V30 42 1 15 40
M  V30 43 1 15 41
M  V30 44 1 16 42
M  V30 45 1 16 43
M  V30 46 1 17 44
M  V30 47 1 17 45
M  V30 48 1 21 46
M  V30 49 1 22 47
M  V30 50 1 23 48
M  V30 51 1 24 49
M  V30 END BOND
M  V30 END CTAB
M  END
>  <NO.>
1035

>  <Name>
haloperidol

>  <SMILES>
O=C(CCCN1CCC(O)(c2ccc(Cl)cc2)CC1)c1ccc(F)cc1

>  <logBB>
1.3

>  <Class>
1

>  <MW>
375.14

>  <nHBAcc>
3

>  <nHBDon>
1

>  <SLogP>
4.43

>  <TopoPSA>
40.54

>  <MMFF94 Energy>
57.191

$$$$
CC(CN1c2ccccc2Sc2ccccc21)N(C)C
Actelion Java MolfileCreator 2.0

  0  0  0  0  0  0              0 V3000
M  V30 BEGIN CTAB
M  V30 COUNTS 40 42 0 0 0
M  V30 BEGIN ATOM
M  V30 1 S -0.4021 0.8849 -2.8178 0
M  V30 2 C -1.8084 0.7738 -1.729 0
M  V30 3 C 0.8512 1.5374 -1.732 0
M  V30 4 C -1.7033 0.8741 -0.3278 0
M  V30 5 C -3.0573 0.5519 -2.3359 0
M  V30 6 C 0.7083 1.5725 -0.3316 0
M  V30 7 C 2.022 2.022 -2.3418 0
M  V30 8 N -0.451 1.0683 0.3133 0
M  V30 9 C -2.8975 0.7995 0.4183 0
M  V30 10 C -4.2169 0.4561 -1.571 0
M  V30 11 C 1.7456 2.1756 0.4089 0
M  V30 12 C 3.0465 2.5788 -1.5806 0
M  V30 13 C -0.2101 0.2403 1.5285 0
M  V30 14 C -4.1377 0.5888 -0.1921 0
M  V30 15 C 2.9029 2.666 -0.2033 0
M  V30 16 C -0.0549 -1.2867 1.2092 0 CFG=1
M  V30 17 N 1.1547 -1.5955 0.4096 0
M  V30 18 C -0.1546 -2.0877 2.5179 0
M  V30 19 C 1.024 -2.8408 -0.3415 0
M  V30 20 C 2.413 -1.5589 1.1452 0
M  V30 21 H -3.1313 0.4596 -3.4174 0
M  V30 22 H 2.1355 1.9748 -3.4225 0
M  V30 23 H -2.889 0.9388 1.4949 0
M  V30 24 H -5.1766 0.2923 -2.0534 0
M  V30 25 H 1.6542 2.3022 1.4835 0
M  V30 26 H 3.943 2.9555 -2.0648 0
M  V30 27 H 0.6607 0.5784 2.0988 0
M  V30 28 H -1.0333 0.3752 2.2396 0
M  V30 29 H -5.0392 0.5391 0.413 0
M  V30 30 H 3.6839 3.122 0.3991 0
M  V30 31 H -0.9297 -1.5687 0.6087 0
M  V30 32 H -0.0681 -3.164 2.3396 0
M  V30 33 H 0.6172 -1.793 3.2366 0
M  V30 34 H -1.1273 -1.9173 2.9933 0
M  V30 35 H 0.9668 -3.7185 0.3106 0
M  V30 36 H 1.8773 -2.9733 -1.0163 0
M  V30 37 H 0.1311 -2.8212 -0.9762 0
M  V30 38 H 2.537 -0.618 1.6895 0
M  V30 39 H 3.2583 -1.6228 0.4504 0
M  V30 40 H 2.505 -2.3848 1.8591 0
M  V30 END ATOM
M  V30 BEGIN BOND
M  V30 1 1 1 2
M  V30 2 1 1 3
M  V30 3 2 2 4
M  V30 4 1 2 5
M  V30 5 2 3 6
M  V30 6 1 3 7
M  V30 7 1 4 8
M  V30 8 1 4 9
M  V30 9 2 5 10
M  V30 10 1 6 11
M  V30 11 2 7 12
M  V30 12 1 8 13
M  V30 13 2 9 14
M  V30 14 2 11 15
M  V30 15 1 13 16
M  V30 16 1 16 17
M  V30 17 1 16 18
M  V30 18 1 17 19
M  V30 19 1 17 20
M  V30 20 1 6 8
M  V30 21 1 10 14
M  V30 22 1 12 15
M  V30 23 1 5 21
M  V30 24 1 7 22
M  V30 25 1 9 23
M  V30 26 1 10 24
M  V30 27 1 11 25
M  V30 28 1 12 26
M  V30 29 1 13 27
M  V30 30 1 13 28
M  V30 31 1 14 29
M  V30 32 1 15 30
M  V30 33 1 16 31
M  V30 34 1 18 32
M  V30 35 1 18 33
M  V30 36 1 18 34
M  V30 37 1 19 35
M  V30 38 1 19 36
M  V30 39 1 19 37
M  V30 40 1 20 38
M  V30 41 1 20 39
M  V30 42 1 20 40
M  V30 END BOND
M  V30 BEGIN COLLECTION
M  V30 MDLV30/STERAC1 ATOMS=(1 16)
M  V30 END COLLECTION
M  V30 END CTAB
M  END
>  <NO.>
1036

>  <Name>
promethazine

>  <SMILES>
CC(CN1c2ccccc2Sc2ccccc21)N(C)C

>  <logBB>
1.3

>  <Class>
1

>  <MW>
284.13

>  <nHBAcc>
3

>  <nHBDon>
0

>  <SLogP>
4.24

>  <TopoPSA>
6.48

>  <MMFF94 Energy>
104.18

$$$$
CNCCCC12CCC(c3ccccc31)c1ccccc12
Actelion Java MolfileCreator 2.0

  0  0  0  0  0  0              0 V3000
M  V30 BEGIN CTAB
M  V30 COUNTS 44 47 0 0 0
M  V30 BEGIN ATOM
M  V30 1 N 4.0909 1.6027 0.6408 0
M  V30 2 C 3.0321 1.6669 -0.3658 0
M  V30 3 C 5.1852 2.5052 0.3114 0
M  V30 4 C 1.8778 0.74 0.034 0
M  V30 5 C 0.7748 0.7539 -1.0433 0
M  V30 6 C -0.5441 0.0047 -0.7169 0
M  V30 7 C -0.4256 -1.5312 -0.5259 0
M  V30 8 C -1.3776 0.6052 0.4502 0
M  V30 9 C -1.5213 0.1327 -1.9484 0
M  V30 10 C -1.6641 -2.1687 -0.2436 0
M  V30 11 C 0.7095 -2.3233 -0.6777 0
M  V30 12 C -2.5905 -0.0898 0.7027 0
M  V30 13 C -1.102 1.7538 1.1894 0
M  V30 14 C -2.8752 -0.5972 -1.6711 0
M  V30 15 C -1.748 -3.5439 -0.0424 0
M  V30 16 C -2.8617 -1.2347 -0.2569 0
M  V30 17 C 0.6262 -3.7056 -0.4761 0
M  V30 18 C -3.4634 0.3098 1.7111 0
M  V30 19 C -1.9793 2.1567 2.2025 0
M  V30 20 C -0.5909 -4.3104 -0.1491 0
M  V30 21 C -3.146 1.434 2.4689 0
M  V30 22 H 3.7118 1.8488 1.5552 0
M  V30 23 H 2.6586 2.694 -0.4587 0
M  V30 24 H 3.4267 1.3571 -1.3406 0
M  V30 25 H 4.8506 3.5473 0.2802 0
M  V30 26 H 5.6371 2.2449 -0.651 0
M  V30 27 H 5.966 2.4251 1.0739 0
M  V30 28 H 1.4896 1.0483 1.0082 0
M  V30 29 H 2.2731 -0.2682 0.1776 0
M  V30 30 H 0.5329 1.8009 -1.2732 0
M  V30 31 H 1.2018 0.3409 -1.9675 0
M  V30 32 H -1.0637 -0.2951 -2.8505 0
M  V30 33 H -1.7253 1.1885 -2.1718 0
M  V30 34 H 1.6664 -1.9063 -0.9692 0
M  V30 35 H -0.2271 2.364 0.9955 0
M  V30 36 H -3.0368 -1.3651 -2.4383 0
M  V30 37 H -3.6998 0.1213 -1.7619 0
M  V30 38 H -2.6987 -4.0183 0.1802 0
M  V30 39 H -3.7994 -1.7535 -0.0348 0
M  V30 40 H 1.5188 -4.3178 -0.5821 0
M  V30 41 H -4.3842 -0.2336 1.8995 0
M  V30 42 H -1.7545 3.0464 2.7859 0
M  V30 43 H -0.6362 -5.3856 0.003 0
M  V30 44 H -3.8161 1.7618 3.2595 0
M  V30 END ATOM
M  V30 BEGIN BOND
M  V30 1 1 1 2
M  V30 2 1 1 3
M  V30 3 1 2 4
M  V30 4 1 4 5
M  V30 5 1 5 6
M  V30 6 1 6 7
M  V30 7 1 6 8
M  V30 8 1 6 9
M  V30 9 2 7 10
M  V30 10 1 7 11
M  V30 11 2 8 12
M  V30 12 1 8 13
M  V30 13 1 9 14
M  V30 14 1 10 15
M  V30 15 1 10 16
M  V30 16 2 11 17
M  V30 17 1 12 18
M  V30 18 2 13 19
M  V30 19 2 15 20
M  V30 20 2 18 21
M  V30 21 1 12 16
M  V30 22 1 14 16
M  V30 23 1 17 20
M  V30 24 1 19 21
M  V30 25 1 1 22
M  V30 26 1 2 23
M  V30 27 1 2 24
M  V30 28 1 3 25
M  V30 29 1 3 26
M  V30 30 1 3 27
M  V30 31 1 4 28
M  V30 32 1 4 29
M  V30 33 1 5 30
M  V30 34 1 5 31
M  V30 35 1 9 32
M  V30 36 1 9 33
M  V30 37 1 11 34
M  V30 38 1 13 35
M  V30 39 1 14 36
M  V30 40 1 14 37
M  V30 41 1 15 38
M  V30 42 1 16 39
M  V30 43 1 17 40
M  V30 44 1 18 41
M  V30 45 1 19 42
M  V30 46 1 20 43
M  V30 47 1 21 44
M  V30 END BOND
M  V30 END CTAB
M  END
>  <NO.>
1037

>  <Name>
maprotiline

>  <SMILES>
CNCCCC12CCC(c3ccccc31)c1ccccc12

>  <logBB>
1.3

>  <Class>
1

>  <MW>
277.18

>  <nHBAcc>
1

>  <nHBDon>
1

>  <SLogP>
4.21

>  <TopoPSA>
12.03

>  <MMFF94 Energy>
94.122

$$$$
OC(CCN1CCCCC1)(c1ccccc1)C1CCCCC1
Actelion Java MolfileCreator 2.0

  0  0  0  0  0  0              0 V3000
M  V30 BEGIN CTAB
M  V30 COUNTS 53 55 0 0 0
M  V30 BEGIN ATOM
M  V30 1 O -1.3451 0.4745 -1.741 0
M  V30 2 C -0.3496 0.7175 -0.7363 0 CFG=2
M  V30 3 C -1.0162 1.008 0.621 0
M  V30 4 C 0.5314 1.9367 -1.2251 0
M  V30 5 C 0.505 -0.5786 -0.6228 0
M  V30 6 C -0.2466 1.4236 1.7243 0
M  V30 7 C -2.3969 0.8245 0.8204 0
M  V30 8 C 1.1974 1.6892 -2.6 0
M  V30 9 C -0.2698 3.2621 -1.2962 0
M  V30 10 C -0.2899 -1.8208 -0.1727 0
M  V30 11 C -0.8376 1.675 2.9649 0
M  V30 12 C -2.9869 1.0756 2.062 0
M  V30 13 C 2.0529 2.8722 -3.0538 0
M  V30 14 C 0.6001 4.4386 -1.7349 0
M  V30 15 N 0.5344 -3.0476 -0.1704 0
M  V30 16 C -2.2083 1.5051 3.1322 0
M  V30 17 C 1.2604 4.1714 -3.08 0
M  V30 18 C -0.3039 -4.2577 -0.1282 0
M  V30 19 C 1.5371 -3.0888 0.9054 0
M  V30 20 C -0.9722 -4.5045 1.2268 0
M  V30 21 C 0.9514 -3.2971 2.3049 0
M  V30 22 C 0.0556 -4.5301 2.3527 0
M  V30 23 H -1.9264 1.2519 -1.7683 0
M  V30 24 H 1.3449 2.0858 -0.502 0
M  V30 25 H 0.9267 -0.8255 -1.6039 0
M  V30 26 H 1.345 -0.3957 0.0561 0
M  V30 27 H 0.8295 1.5515 1.6334 0
M  V30 28 H -3.0328 0.4602 0.0165 0
M  V30 29 H 1.8498 0.8118 -2.5604 0
M  V30 30 H 0.4319 1.4884 -3.3593 0
M  V30 31 H -0.7031 3.5075 -0.3211 0
M  V30 32 H -1.1046 3.1655 -2.0003 0
M  V30 33 H -0.7452 -1.6578 0.8084 0
M  V30 34 H -1.1149 -1.9552 -0.8836 0
M  V30 35 H -0.2248 1.999 3.8021 0
M  V30 36 H -4.0555 0.926 2.1937 0
M  V30 37 H 2.4592 2.6695 -4.0512 0
M  V30 38 H 2.9098 2.9806 -2.3774 0
M  V30 39 H -0.0131 5.3445 -1.8006 0
M  V30 40 H 1.3696 4.628 -0.9765 0
M  V30 41 H -2.6679 1.6975 4.0979 0
M  V30 42 H 1.923 5.0045 -3.3397 0
M  V30 43 H 0.4928 4.1171 -3.8616 0
M  V30 44 H 0.3262 -5.1219 -0.3762 0
M  V30 45 H -1.0659 -4.2217 -0.9164 0
M  V30 46 H 2.1634 -2.1911 0.8994 0
M  V30 47 H 2.2295 -3.9137 0.6905 0
M  V30 48 H -1.5105 -5.4589 1.2017 0
M  V30 49 H -1.7195 -3.7274 1.427 0
M  V30 50 H 0.3811 -2.4133 2.6138 0
M  V30 51 H 1.7663 -3.411 3.0291 0
M  V30 52 H -0.4496 -4.591 3.3229 0
M  V30 53 H 0.6744 -5.4309 2.2572 0
M  V30 END ATOM
M  V30 BEGIN BOND
M  V30 1 1 1 2
M  V30 2 1 2 3
M  V30 3 1 2 4
M  V30 4 1 2 5
M  V30 5 2 3 6
M  V30 6 1 3 7
M  V30 7 1 4 8
M  V30 8 1 4 9
M  V30 9 1 5 10
M  V30 10 1 6 11
M  V30 11 2 7 12
M  V30 12 1 8 13
M  V30 13 1 9 14
M  V30 14 1 10 15
M  V30 15 2 11 16
M  V30 16 1 13 17
M  V30 17 1 15 18
M  V30 18 1 15 19
M  V30 19 1 18 20
M  V30 20 1 19 21
M  V30 21 1 20 22
M  V30 22 1 12 16
M  V30 23 1 14 17
M  V30 24 1 21 22
M  V30 25 1 1 23
M  V30 26 1 4 24
M  V30 27 1 5 25
M  V30 28 1 5 26
M  V30 29 1 6 27
M  V30 30 1 7 28
M  V30 31 1 8 29
M  V30 32 1 8 30
M  V30 33 1 9 31
M  V30 34 1 9 32
M  V30 35 1 10 33
M  V30 36 1 10 34
M  V30 37 1 11 35
M  V30 38 1 12 36
M  V30 39 1 13 37
M  V30 40 1 13 38
M  V30 41 1 14 39
M  V30 42 1 14 40
M  V30 43 1 16 41
M  V30 44 1 17 42
M  V30 45 1 17 43
M  V30 46 1 18 44
M  V30 47 1 18 45
M  V30 48 1 19 46
M  V30 49 1 19 47
M  V30 50 1 20 48
M  V30 51 1 20 49
M  V30 52 1 21 50
M  V30 53 1 21 51
M  V30 54 1 22 52
M  V30 55 1 22 53
M  V30 END BOND
M  V30 BEGIN COLLECTION
M  V30 MDLV30/STERAC1 ATOMS=(1 2)
M  V30 END COLLECTION
M  V30 END CTAB
M  END
>  <NO.>
1038

>  <Name>
trihexyphenidyl

>  <SMILES>
OC(CCN1CCCCC1)(c1ccccc1)C1CCCCC1

>  <logBB>
1.32

>  <Class>
1

>  <MW>
301.24

>  <nHBAcc>
2

>  <nHBDon>
1

>  <SLogP>
4.33

>  <TopoPSA>
23.47

>  <MMFF94 Energy>
43.558

$$$$
CNCCCN1c2ccccc2Sc2cccc(Cl)c21
Actelion Java MolfileCreator 2.0

  0  0  0  0  0  0              0 V3000
M  V30 BEGIN CTAB
M  V30 COUNTS 37 39 0 0 0
M  V30 BEGIN ATOM
M  V30 1 Cl -3.0236 -0.8165 -1.0615 0
M  V30 2 C -2.7681 -0.8645 0.6517 0
M  V30 3 C -1.4783 -0.7597 1.2238 0
M  V30 4 C -3.9037 -1.0505 1.4492 0
M  V30 5 N -0.3163 -0.5218 0.4252 0
M  V30 6 C -1.3702 -0.8961 2.6251 0
M  V30 7 C -3.78 -1.1447 2.831 0
M  V30 8 C 0.9721 -0.993 0.796 0
M  V30 9 C -0.2969 0.872 -0.1035 0
M  V30 10 S 0.1984 -0.8397 3.4809 0
M  V30 11 C -2.5183 -1.0713 3.4151 0
M  V30 12 C 1.3384 -1.1533 2.1456 0
M  V30 13 C 1.9098 -1.3374 -0.1911 0
M  V30 14 C 0.066 0.9496 -1.5907 0
M  V30 15 C 2.6347 -1.5737 2.4798 0
M  V30 16 C 3.1946 -1.7687 0.1466 0
M  V30 17 C -0.3439 2.3037 -2.1785 0
M  V30 18 C 3.5614 -1.8751 1.4832 0
M  V30 19 N -0.0776 2.4264 -3.6124 0
M  V30 20 C 1.337 2.5734 -3.9203 0
M  V30 21 H -4.8879 -1.1298 0.9936 0
M  V30 22 H -4.6613 -1.2891 3.4512 0
M  V30 23 H 0.3986 1.4897 0.4825 0
M  V30 24 H -1.2764 1.3501 0.0343 0
M  V30 25 H -2.4321 -1.1625 4.4964 0
M  V30 26 H 1.6329 -1.3028 -1.2408 0
M  V30 27 H -0.4186 0.1404 -2.1483 0
M  V30 28 H 1.1461 0.8215 -1.7066 0
M  V30 29 H 2.9252 -1.6835 3.5222 0
M  V30 30 H 3.9023 -2.0295 -0.6359 0
M  V30 31 H 0.1374 3.1232 -1.6308 0
M  V30 32 H -1.4236 2.4374 -2.0401 0
M  V30 33 H 4.5598 -2.2103 1.7514 0
M  V30 34 H -0.4535 1.6161 -4.105 0
M  V30 35 H 1.9078 1.674 -3.6721 0
M  V30 36 H 1.7716 3.4311 -3.3967 0
M  V30 37 H 1.4552 2.7526 -4.9937 0
M  V30 END ATOM
M  V30 BEGIN BOND
M  V30 1 1 1 2
M  V30 2 2 2 3
M  V30 3 1 2 4
M  V30 4 1 3 5
M  V30 5 1 3 6
M  V30 6 2 4 7
M  V30 7 1 5 8
M  V30 8 1 5 9
M  V30 9 1 6 10
M  V30 10 2 6 11
M  V30 11 2 8 12
M  V30 12 1 8 13
M  V30 13 1 9 14
M  V30 14 1 12 15
M  V30 15 2 13 16
M  V30 16 1 14 17
M  V30 17 2 15 18
M  V30 18 1 17 19
M  V30 19 1 19 20
M  V30 20 1 7 11
M  V30 21 1 10 12
M  V30 22 1 16 18
M  V30 23 1 4 21
M  V30 24 1 7 22
M  V30 25 1 9 23
M  V30 26 1 9 24
M  V30 27 1 11 25
M  V30 28 1 13 26
M  V30 29 1 14 27
M  V30 30 1 14 28
M  V30 31 1 15 29
M  V30 32 1 16 30
M  V30 33 1 17 31
M  V30 34 1 17 32
M  V30 35 1 18 33
M  V30 36 1 19 34
M  V30 37 1 20 35
M  V30 38 1 20 36
M  V30 39 1 20 37
M  V30 END BOND
M  V30 END CTAB
M  END
>  <NO.>
1039

>  <Name>
nor-1-chlorpromazine

>  <SMILES>
CNCCCN1c2ccccc2Sc2cccc(Cl)c21

>  <logBB>
1.37

>  <Class>
1

>  <MW>
304.08

>  <nHBAcc>
3

>  <nHBDon>
1

>  <SLogP>
4.55

>  <TopoPSA>
15.27

>  <MMFF94 Energy>
85.655

$$$$
CC(C)CN1CCN(c2ccc(I)cc2)CC1
Actelion Java MolfileCreator 2.0

  0  0  0  0  0  0              0 V3000
M  V30 BEGIN CTAB
M  V30 COUNTS 38 39 0 0 0
M  V30 BEGIN ATOM
M  V30 1 I -0.16 -2.242 -7.5422 0
M  V30 2 C -0.0821 -1.6989 -5.5401 0
M  V30 3 C -0.9128 -0.6936 -5.0586 0
M  V30 4 C 0.7968 -2.343 -4.6779 0
M  V30 5 C -0.8575 -0.3319 -3.7059 0
M  V30 6 C 0.8433 -1.9701 -3.3288 0
M  V30 7 C 0.0261 -0.9524 -2.8094 0
M  V30 8 N 0.0912 -0.6107 -1.463 0
M  V30 9 C 1.4147 -0.3032 -0.8894 0
M  V30 10 C -1.0238 0.1032 -0.8202 0
M  V30 11 C 1.3978 -0.4313 0.6506 0
M  V30 12 C -0.9692 -0.0369 0.7194 0
M  V30 13 N 0.332 0.3715 1.2963 0
M  V30 14 C 0.3744 0.183 2.7566 0
M  V30 15 C -0.5327 1.1483 3.5519 0
M  V30 16 C -0.3931 0.8717 5.0517 0
M  V30 17 C -0.2048 2.6148 3.2625 0
M  V30 18 H -1.6075 -0.1772 -5.7153 0
M  V30 19 H 1.4459 -3.1401 -5.029 0
M  V30 20 H -1.5113 0.4689 -3.3728 0
M  V30 21 H 1.5143 -2.5167 -2.6715 0
M  V30 22 H 1.697 0.7194 -1.1709 0
M  V30 23 H 2.1968 -0.9698 -1.2674 0
M  V30 24 H -1.9861 -0.304 -1.1539 0
M  V30 25 H -0.9888 1.1659 -1.092 0
M  V30 26 H 2.3762 -0.1059 1.0244 0
M  V30 27 H 1.2826 -1.4913 0.9151 0
M  V30 28 H -1.1891 -1.0792 0.9872 0
M  V30 29 H -1.7745 0.5826 1.1278 0
M  V30 30 H 1.4054 0.3441 3.1001 0
M  V30 31 H 0.1207 -0.854 3.014 0
M  V30 32 H -1.5815 0.9707 3.2876 0
M  V30 33 H 0.6322 1.045 5.3954 0
M  V30 34 H -0.6579 -0.1655 5.2818 0
M  V30 35 H -1.0582 1.5216 5.6304 0
M  V30 36 H 0.8418 2.8404 3.4932 0
M  V30 37 H -0.3827 2.8623 2.2113 0
M  V30 38 H -0.8336 3.2786 3.8656 0
M  V30 END ATOM
M  V30 BEGIN BOND
M  V30 1 1 1 2
M  V30 2 2 2 3
M  V30 3 1 2 4
M  V30 4 1 3 5
M  V30 5 2 4 6
M  V30 6 2 5 7
M  V30 7 1 7 8
M  V30 8 1 8 9
M  V30 9 1 8 10
M  V30 10 1 9 11
M  V30 11 1 10 12
M  V30 12 1 11 13
M  V30 13 1 13 14
M  V30 14 1 14 15
M  V30 15 1 15 16
M  V30 16 1 15 17
M  V30 17 1 6 7
M  V30 18 1 12 13
M  V30 19 1 3 18
M  V30 20 1 4 19
M  V30 21 1 5 20
M  V30 22 1 6 21
M  V30 23 1 9 22
M  V30 24 1 9 23
M  V30 25 1 10 24
M  V30 26 1 10 25
M  V30 27 1 11 26
M  V30 28 1 11 27
M  V30 29 1 12 28
M  V30 30 1 12 29
M  V30 31 1 14 30
M  V30 32 1 14 31
M  V30 33 1 15 32
M  V30 34 1 16 33
M  V30 35 1 16 34
M  V30 36 1 16 35
M  V30 37 1 17 36
M  V30 38 1 17 37
M  V30 39 1 17 38
M  V30 END BOND
M  V30 END CTAB
M  END
>  <NO.>
1040

>  <Name>
1-isobutyl-4-(4-iodophenyl)piperazine

>  <SMILES>
CC(C)CN1CCN(c2ccc(I)cc2)CC1

>  <logBB>
1.38

>  <Class>
1

>  <MW>
344.07

>  <nHBAcc>
2

>  <nHBDon>
0

>  <SLogP>
3.07

>  <TopoPSA>
6.48

>  <MMFF94 Energy>
95.897

$$$$
CC(C)N1CCN(c2ccc(I)cc2)CC1
Actelion Java MolfileCreator 2.0

  0  0  0  0  0  0              0 V3000
M  V30 BEGIN CTAB
M  V30 COUNTS 35 36 0 0 0
M  V30 BEGIN ATOM
M  V30 1 I 2.3289 -4.179 -5.5481 0
M  V30 2 C 1.6908 -3.0029 -3.9608 0
M  V30 3 C 2.2867 -3.1363 -2.7118 0
M  V30 4 C 0.6704 -2.0777 -4.1461 0
M  V30 5 C 1.8534 -2.3389 -1.6441 0
M  V30 6 C 0.2457 -1.2887 -3.0698 0
M  V30 7 C 0.8179 -1.403 -1.792 0
M  V30 8 N 0.378 -0.5992 -0.7462 0
M  V30 9 C 1.2231 -0.3829 0.4354 0
M  V30 10 C -1.0653 -0.5663 -0.4583 0
M  V30 11 C 0.7829 0.8778 1.2161 0
M  V30 12 C -1.4476 0.6956 0.3507 0
M  V30 13 N -0.6546 0.8893 1.5927 0
M  V30 14 C -1.0316 2.1401 2.3015 0
M  V30 15 C -2.5193 2.1563 2.6934 0
M  V30 16 C -0.2161 2.3417 3.5903 0
M  V30 17 H 3.0859 -3.8532 -2.5452 0
M  V30 18 H 0.199 -1.9472 -5.116 0
M  V30 19 H 2.3335 -2.4847 -0.6807 0
M  V30 20 H -0.5289 -0.5488 -3.2537 0
M  V30 21 H 1.171 -1.2587 1.0947 0
M  V30 22 H 2.2699 -0.2383 0.1408 0
M  V30 23 H -1.3366 -1.4641 0.1123 0
M  V30 24 H -1.6718 -0.5692 -1.3702 0
M  V30 25 H 1.0158 1.7658 0.6129 0
M  V30 26 H 1.4091 0.914 2.1134 0
M  V30 27 H -2.5097 0.5901 0.5947 0
M  V30 28 H -1.3418 1.5752 -0.2985 0
M  V30 29 H -0.8475 3.0044 1.6493 0
M  V30 30 H -3.1712 2.2307 1.8177 0
M  V30 31 H -2.7484 3.0244 3.3221 0
M  V30 32 H -2.793 1.2563 3.2552 0
M  V30 33 H -0.5934 3.1976 4.1616 0
M  V30 34 H -0.2694 1.4593 4.2376 0
M  V30 35 H 0.8361 2.5538 3.3783 0
M  V30 END ATOM
M  V30 BEGIN BOND
M  V30 1 1 1 2
M  V30 2 2 2 3
M  V30 3 1 2 4
M  V30 4 1 3 5
M  V30 5 2 4 6
M  V30 6 2 5 7
M  V30 7 1 7 8
M  V30 8 1 8 9
M  V30 9 1 8 10
M  V30 10 1 9 11
M  V30 11 1 10 12
M  V30 12 1 11 13
M  V30 13 1 13 14
M  V30 14 1 14 15
M  V30 15 1 14 16
M  V30 16 1 6 7
M  V30 17 1 12 13
M  V30 18 1 3 17
M  V30 19 1 4 18
M  V30 20 1 5 19
M  V30 21 1 6 20
M  V30 22 1 9 21
M  V30 23 1 9 22
M  V30 24 1 10 23
M  V30 25 1 10 24
M  V30 26 1 11 25
M  V30 27 1 11 26
M  V30 28 1 12 27
M  V30 29 1 12 28
M  V30 30 1 14 29
M  V30 31 1 15 30
M  V30 32 1 15 31
M  V30 33 1 15 32
M  V30 34 1 16 33
M  V30 35 1 16 34
M  V30 36 1 16 35
M  V30 END BOND
M  V30 END CTAB
M  END
>  <NO.>
1041

>  <Name>
1-(4-iodophenyl)-4-isopropylpiperazine

>  <SMILES>
CC(C)N1CCN(c2ccc(I)cc2)CC1

>  <logBB>
1.38

>  <Class>
1

>  <MW>
330.06

>  <nHBAcc>
2

>  <nHBDon>
0

>  <SLogP>
2.82

>  <TopoPSA>
6.48

>  <MMFF94 Energy>
95.034

$$$$
CCC(C)N1CCN(c2ccc(I)cc2)CC1
Actelion Java MolfileCreator 2.0

  0  0  0  0  0  0              0 V3000
M  V30 BEGIN CTAB
M  V30 COUNTS 38 39 0 0 0
M  V30 BEGIN ATOM
M  V30 1 I -0.2399 2.8022 6.9766 0
M  V30 2 C -0.2522 2.0499 5.0418 0
M  V30 3 C -0.551 2.8859 3.9718 0
M  V30 4 C 0.0426 0.7112 4.8137 0
M  V30 5 C -0.5564 2.3735 2.6676 0
M  V30 6 C 0.0315 0.2118 3.5054 0
M  V30 7 C -0.275 1.0245 2.4015 0
M  V30 8 N -0.2703 0.4992 1.114 0
M  V30 9 C -0.1386 1.3878 -0.0531 0
M  V30 10 C -1.0634 -0.7195 0.8609 0
M  V30 11 C 0.3252 0.604 -1.3038 0
M  V30 12 C -0.5875 -1.4456 -0.4201 0
M  V30 13 N -0.5323 -0.5586 -1.5967 0
M  V30 14 C -0.2425 -1.2601 -2.8582 0 CFG=2
M  V30 15 C 1.2327 -1.4589 -3.2757 0
M  V30 16 C -0.9797 -0.51 -3.9814 0
M  V30 17 C 2.0452 -2.358 -2.3571 0
M  V30 18 H -0.7844 3.9356 4.1279 0
M  V30 19 H 0.2914 0.0426 5.6331 0
M  V30 20 H -0.8103 3.055 1.8608 0
M  V30 21 H 0.3019 -0.83 3.3546 0
M  V30 22 H 0.605 2.1709 0.1399 0
M  V30 23 H -1.1012 1.8727 -0.26 0
M  V30 24 H -2.1197 -0.4398 0.7533 0
M  V30 25 H -1.0022 -1.4348 1.6879 0
M  V30 26 H 0.3246 1.2997 -2.1503 0
M  V30 27 H 1.3621 0.2871 -1.1407 0
M  V30 28 H 0.3929 -1.8886 -0.2187 0
M  V30 29 H -1.2844 -2.2708 -0.6102 0
M  V30 30 H -0.7113 -2.2531 -2.8196 0
M  V30 31 H 1.7418 -0.4937 -3.3848 0
M  V30 32 H 1.2469 -1.9161 -4.2741 0
M  V30 33 H -0.5552 0.4838 -4.1589 0
M  V30 34 H -0.9205 -1.0699 -4.9214 0
M  V30 35 H -2.0428 -0.3894 -3.7425 0
M  V30 36 H 1.5237 -3.3002 -2.1628 0
M  V30 37 H 2.2637 -1.8718 -1.4033 0
M  V30 38 H 3.0067 -2.5958 -2.8242 0
M  V30 END ATOM
M  V30 BEGIN BOND
M  V30 1 1 1 2
M  V30 2 2 2 3
M  V30 3 1 2 4
M  V30 4 1 3 5
M  V30 5 2 4 6
M  V30 6 2 5 7
M  V30 7 1 7 8
M  V30 8 1 8 9
M  V30 9 1 8 10
M  V30 10 1 9 11
M  V30 11 1 10 12
M  V30 12 1 11 13
M  V30 13 1 13 14
M  V30 14 1 14 15
M  V30 15 1 14 16
M  V30 16 1 15 17
M  V30 17 1 6 7
M  V30 18 1 12 13
M  V30 19 1 3 18
M  V30 20 1 4 19
M  V30 21 1 5 20
M  V30 22 1 6 21
M  V30 23 1 9 22
M  V30 24 1 9 23
M  V30 25 1 10 24
M  V30 26 1 10 25
M  V30 27 1 11 26
M  V30 28 1 11 27
M  V30 29 1 12 28
M  V30 30 1 12 29
M  V30 31 1 14 30
M  V30 32 1 15 31
M  V30 33 1 15 32
M  V30 34 1 16 33
M  V30 35 1 16 34
M  V30 36 1 16 35
M  V30 37 1 17 36
M  V30 38 1 17 37
M  V30 39 1 17 38
M  V30 END BOND
M  V30 BEGIN COLLECTION
M  V30 MDLV30/STERAC1 ATOMS=(1 14)
M  V30 END COLLECTION
M  V30 END CTAB
M  END
>  <NO.>
1042

>  <Name>
1-isobutyl-4-(4-iodophenyl)piperazine

>  <SMILES>
CCC(C)N1CCN(c2ccc(I)cc2)CC1

>  <logBB>
1.38

>  <Class>
1

>  <MW>
344.07

>  <nHBAcc>
2

>  <nHBDon>
0

>  <SLogP>
3.21

>  <TopoPSA>
6.48

>  <MMFF94 Energy>
97.383

$$$$
COCn1nc(-c2ccc(OC)cc2)nc1-c1cccc(CN(C)C)c1
Actelion Java MolfileCreator 2.0

  0  0  0  0  0  0              0 V3000
M  V30 BEGIN CTAB
M  V30 COUNTS 50 52 0 0 0
M  V30 BEGIN ATOM
M  V30 1 O -1.7391 7.5269 -0.474 0
M  V30 2 C -1.3322 6.2562 -0.1741 0
M  V30 3 C -0.999 8.5922 0.1083 0
M  V30 4 C -0.2584 5.9097 0.6454 0
M  V30 5 C -2.0915 5.2445 -0.7655 0
M  V30 6 C 0.0501 4.561 0.8691 0
M  V30 7 C -1.7846 3.8982 -0.5427 0
M  V30 8 C -0.7083 3.5406 0.2784 0
M  V30 9 C -0.3903 2.1346 0.5091 0
M  V30 10 N 0.6352 1.7086 1.2574 0
M  V30 11 N -1.1286 1.1166 -0.0414 0
M  V30 12 N 0.5001 0.3628 1.1907 0
M  V30 13 C -0.5435 0.0025 0.3689 0
M  V30 14 C 1.4125 -0.4651 1.9619 0
M  V30 15 C -0.9798 -1.3477 -0.0119 0
M  V30 16 O 0.6774 -1.4228 2.7217 0
M  V30 17 C -0.0921 -2.4133 -0.2133 0
M  V30 18 C -2.3228 -1.5419 -0.3711 0
M  V30 19 C 1.5446 -2.2882 3.4388 0
M  V30 20 C -0.534 -3.6671 -0.6784 0
M  V30 21 C -2.7812 -2.78 -0.8261 0
M  V30 22 C -1.8923 -3.8427 -0.9665 0
M  V30 23 C 0.4365 -4.8222 -0.8274 0
M  V30 24 N 1.6871 -4.4641 -1.5241 0
M  V30 25 C 1.441 -4.1844 -2.9429 0
M  V30 26 C 2.6571 -5.5539 -1.398 0
M  V30 27 H -1.0596 8.564 1.2014 0
M  V30 28 H -1.4481 9.5328 -0.2252 0
M  V30 29 H 0.0419 8.5817 -0.2311 0
M  V30 30 H 0.3608 6.6584 1.1275 0
M  V30 31 H -2.9307 5.504 -1.4062 0
M  V30 32 H 0.8916 4.311 1.5126 0
M  V30 33 H -2.3923 3.1294 -1.016 0
M  V30 34 H 2.1051 -0.9412 1.2613 0
M  V30 35 H 1.9724 0.1876 2.6416 0
M  V30 36 H 0.9719 -2.2918 -0.0398 0
M  V30 37 H -3.0287 -0.7166 -0.2853 0
M  V30 38 H 0.9339 -2.9956 4.0062 0
M  V30 39 H 2.1623 -1.7184 4.1398 0
M  V30 40 H 2.1797 -2.8515 2.7481 0
M  V30 41 H -3.8313 -2.9086 -1.0755 0
M  V30 42 H -2.2643 -4.8018 -1.3187 0
M  V30 43 H -0.0513 -5.6671 -1.3316 0
M  V30 44 H 0.6663 -5.1569 0.1933 0
M  V30 45 H 0.7738 -3.3256 -3.0713 0
M  V30 46 H 1.0027 -5.0436 -3.4639 0
M  V30 47 H 2.3778 -3.9202 -3.447 0
M  V30 48 H 2.2931 -6.4873 -1.8428 0
M  V30 49 H 2.8906 -5.7414 -0.3439 0
M  V30 50 H 3.6026 -5.2858 -1.8829 0
M  V30 END ATOM
M  V30 BEGIN BOND
M  V30 1 1 1 2
M  V30 2 1 1 3
M  V30 3 2 2 4
M  V30 4 1 2 5
M  V30 5 1 4 6
M  V30 6 2 5 7
M  V30 7 2 6 8
M  V30 8 1 8 9
M  V30 9 2 9 10
M  V30 10 1 9 11
M  V30 11 1 10 12
M  V30 12 2 11 13
M  V30 13 1 12 14
M  V30 14 1 13 15
M  V30 15 1 14 16
M  V30 16 2 15 17
M  V30 17 1 15 18
M  V30 18 1 16 19
M  V30 19 1 17 20
M  V30 20 2 18 21
M  V30 21 2 20 22
M  V30 22 1 20 23
M  V30 23 1 23 24
M  V30 24 1 24 25
M  V30 25 1 24 26
M  V30 26 1 7 8
M  V30 27 1 12 13
M  V30 28 1 21 22
M  V30 29 1 3 27
M  V30 30 1 3 28
M  V30 31 1 3 29
M  V30 32 1 4 30
M  V30 33 1 5 31
M  V30 34 1 6 32
M  V30 35 1 7 33
M  V30 36 1 14 34
M  V30 37 1 14 35
M  V30 38 1 17 36
M  V30 39 1 18 37
M  V30 40 1 19 38
M  V30 41 1 19 39
M  V30 42 1 19 40
M  V30 43 1 21 41
M  V30 44 1 22 42
M  V30 45 1 23 43
M  V30 46 1 23 44
M  V30 47 1 25 45
M  V30 48 1 25 46
M  V30 49 1 25 47
M  V30 50 1 26 48
M  V30 51 1 26 49
M  V30 52 1 26 50
M  V30 END BOND
M  V30 END CTAB
M  END
>  <NO.>
1043

>  <Name>
schembl6578579

>  <SMILES>
COCn1nc(-c2ccc(OC)cc2)nc1-c1cccc(CN(C)C)c1

>  <logBB>
1.38

>  <Class>
1

>  <MW>
352.19

>  <nHBAcc>
5

>  <nHBDon>
0

>  <SLogP>
3.29

>  <TopoPSA>
52.41

>  <MMFF94 Energy>
99.643

$$$$
O=C(CCCN1CCC(O)(c2ccc(Br)cc2)CC1)c1ccc(F)cc1
Actelion Java MolfileCreator 2.0

  0  0  0  0  0  0              0 V3000
M  V30 BEGIN CTAB
M  V30 COUNTS 49 51 0 0 0
M  V30 BEGIN ATOM
M  V30 1 Br 6.6367 -1.6964 4.4478 0
M  V30 2 C 5.3418 -0.7375 3.4607 0
M  V30 3 C 5.6554 -0.2486 2.198 0
M  V30 4 C 4.0779 -0.5219 4.0014 0
M  V30 5 C 4.6931 0.4598 1.4734 0
M  V30 6 C 3.1163 0.1884 3.273 0
M  V30 7 C 3.4023 0.6923 1.9935 0
M  V30 8 C 2.3884 1.4789 1.1531 0
M  V30 9 O 3.0295 2.7083 0.7668 0
M  V30 10 C 1.0928 1.8627 1.889 0
M  V30 11 C 2.0251 0.7017 -0.1229 0
M  V30 12 C 0.0992 2.5672 0.9639 0
M  V30 13 C 0.976 1.4305 -0.9665 0
M  V30 14 N -0.2415 1.7128 -0.1865 0
M  V30 15 C -1.2681 2.379 -1.0103 0
M  V30 16 C -1.8851 1.4858 -2.0946 0
M  V30 17 C -2.4652 0.1864 -1.5311 0
M  V30 18 C -3.169 -0.6343 -2.5978 0
M  V30 19 O -3.2792 -0.2483 -3.76 0
M  V30 20 C -3.7524 -1.9577 -2.213 0
M  V30 21 C -4.3931 -2.7183 -3.2051 0
M  V30 22 C -3.6813 -2.4572 -0.9042 0
M  V30 23 C -4.9535 -3.9592 -2.8941 0
M  V30 24 C -4.2436 -3.7003 -0.5971 0
M  V30 25 C -4.8734 -4.4384 -1.5929 0
M  V30 26 F -5.4099 -5.6278 -1.2922 0
M  V30 27 H 6.6398 -0.4103 1.767 0
M  V30 28 H 3.8271 -0.9019 4.9887 0
M  V30 29 H 4.959 0.8398 0.4872 0
M  V30 30 H 2.1433 0.3314 3.7356 0
M  V30 31 H 3.5887 2.9889 1.5128 0
M  V30 32 H 0.601 0.9713 2.2996 0
M  V30 33 H 1.3159 2.5331 2.729 0
M  V30 34 H 2.9102 0.5531 -0.754 0
M  V30 35 H 1.6487 -0.2963 0.1397 0
M  V30 36 H 0.5002 3.5351 0.6358 0
M  V30 37 H -0.806 2.7765 1.5477 0
M  V30 38 H 0.7405 0.7793 -1.8152 0
M  V30 39 H 1.4014 2.3547 -1.3793 0
M  V30 40 H -0.8644 3.2873 -1.4765 0
M  V30 41 H -2.0913 2.7027 -0.3592 0
M  V30 42 H -1.1494 1.2599 -2.8753 0
M  V30 43 H -2.6818 2.0549 -2.5913 0
M  V30 44 H -3.1905 0.4253 -0.745 0
M  V30 45 H -1.6575 -0.422 -1.1105 0
M  V30 46 H -4.4579 -2.346 -4.2264 0
M  V30 47 H -3.1957 -1.9026 -0.1063 0
M  V30 48 H -5.4492 -4.5503 -3.6578 0
M  V30 49 H -4.1942 -4.0974 0.4124 0
M  V30 END ATOM
M  V30 BEGIN BOND
M  V30 1 1 1 2
M  V30 2 2 2 3
M  V30 3 1 2 4
M  V30 4 1 3 5
M  V30 5 2 4 6
M  V30 6 2 5 7
M  V30 7 1 7 8
M  V30 8 1 8 9
M  V30 9 1 8 10
M  V30 10 1 8 11
M  V30 11 1 10 12
M  V30 12 1 11 13
M  V30 13 1 12 14
M  V30 14 1 14 15
M  V30 15 1 15 16
M  V30 16 1 16 17
M  V30 17 1 17 18
M  V30 18 2 18 19
M  V30 19 1 18 20
M  V30 20 2 20 21
M  V30 21 1 20 22
M  V30 22 1 21 23
M  V30 23 2 22 24
M  V30 24 2 23 25
M  V30 25 1 25 26
M  V30 26 1 6 7
M  V30 27 1 13 14
M  V30 28 1 24 25
M  V30 29 1 3 27
M  V30 30 1 4 28
M  V30 31 1 5 29
M  V30 32 1 6 30
M  V30 33 1 9 31
M  V30 34 1 10 32
M  V30 35 1 10 33
M  V30 36 1 11 34
M  V30 37 1 11 35
M  V30 38 1 12 36
M  V30 39 1 12 37
M  V30 40 1 13 38
M  V30 41 1 13 39
M  V30 42 1 15 40
M  V30 43 1 15 41
M  V30 44 1 16 42
M  V30 45 1 16 43
M  V30 46 1 17 44
M  V30 47 1 17 45
M  V30 48 1 21 46
M  V30 49 1 22 47
M  V30 50 1 23 48
M  V30 51 1 24 49
M  V30 END BOND
M  V30 END CTAB
M  END
>  <NO.>
1044

>  <Name>
bromperidol

>  <SMILES>
O=C(CCCN1CCC(O)(c2ccc(Br)cc2)CC1)c1ccc(F)cc1

>  <logBB>
1.38

>  <Class>
1

>  <MW>
419.09

>  <nHBAcc>
3

>  <nHBDon>
1

>  <SLogP>
4.53

>  <TopoPSA>
40.54

>  <MMFF94 Energy>
54.509

$$$$
O=C(CCN1CCC(O)(c2ccc(Br)cc2)CC1)c1ccc(F)cc1
Actelion Java MolfileCreator 2.0

  0  0  0  0  0  0              0 V3000
M  V30 BEGIN CTAB
M  V30 COUNTS 46 48 0 0 0
M  V30 BEGIN ATOM
M  V30 1 Br 6.1635 -4.3764 4.5387 0
M  V30 2 C 4.8015 -3.4885 3.5756 0
M  V30 3 C 4.9719 -2.1614 3.1991 0
M  V30 4 C 3.6313 -4.1654 3.2465 0
M  V30 5 C 3.9608 -1.5105 2.4872 0
M  V30 6 C 2.6202 -3.5104 2.5335 0
M  V30 7 C 2.7634 -2.1702 2.1385 0
M  V30 8 C 1.6874 -1.4043 1.3583 0
M  V30 9 O 1.4405 -0.1799 2.0774 0
M  V30 10 C 0.333 -2.128 1.2362 0
M  V30 11 C 2.1955 -1.0436 -0.0492 0
M  V30 12 C -0.6602 -1.3378 0.3809 0
M  V30 13 C 1.133 -0.3135 -0.8737 0
M  V30 14 N -0.1012 -1.0999 -0.952 0
M  V30 15 C -1.0835 -0.5373 -1.8965 0
M  V30 16 C -1.6335 0.8562 -1.5656 0
M  V30 17 C -2.6401 1.3183 -2.6047 0
M  V30 18 O -2.9586 0.6254 -3.5687 0
M  V30 19 C -3.2666 2.6681 -2.4434 0
M  V30 20 C -4.1927 3.0933 -3.4104 0
M  V30 21 C -2.9617 3.5142 -1.3669 0
M  V30 22 C -4.8042 4.3445 -3.3035 0
M  V30 23 C -3.5763 4.7662 -1.2637 0
M  V30 24 C -4.4902 5.1692 -2.231 0
M  V30 25 F -5.0751 6.3691 -2.126 0
M  V30 26 H 5.8823 -1.6239 3.4508 0
M  V30 27 H 3.4933 -5.2041 3.5366 0
M  V30 28 H 4.1111 -0.4693 2.203 0
M  V30 29 H 1.7257 -4.0803 2.2962 0
M  V30 30 H 1.5101 -0.3879 3.0262 0
M  V30 31 H 0.4622 -3.1178 0.7797 0
M  V30 32 H -0.11 -2.2775 2.2292 0
M  V30 33 H 3.0754 -0.3907 0.009 0
M  V30 34 H 2.5066 -1.9534 -0.5802 0
M  V30 35 H -0.9221 -0.3993 0.8842 0
M  V30 36 H -1.5806 -1.9288 0.2992 0
M  V30 37 H 1.5373 -0.1546 -1.8808 0
M  V30 38 H 0.9503 0.6769 -0.4392 0
M  V30 39 H -1.9186 -1.2452 -1.9853 0
M  V30 40 H -0.6271 -0.5178 -2.8952 0
M  V30 41 H -2.138 0.8377 -0.5942 0
M  V30 42 H -0.8153 1.5832 -1.5431 0
M  V30 43 H -4.4422 2.4502 -4.2532 0
M  V30 44 H -2.2525 3.2275 -0.5958 0
M  V30 45 H -5.5203 4.6768 -4.0486 0
M  V30 46 H -3.3482 5.4301 -0.435 0
M  V30 END ATOM
M  V30 BEGIN BOND
M  V30 1 1 1 2
M  V30 2 2 2 3
M  V30 3 1 2 4
M  V30 4 1 3 5
M  V30 5 2 4 6
M  V30 6 2 5 7
M  V30 7 1 7 8
M  V30 8 1 8 9
M  V30 9 1 8 10
M  V30 10 1 8 11
M  V30 11 1 10 12
M  V30 12 1 11 13
M  V30 13 1 12 14
M  V30 14 1 14 15
M  V30 15 1 15 16
M  V30 16 1 16 17
M  V30 17 2 17 18
M  V30 18 1 17 19
M  V30 19 2 19 20
M  V30 20 1 19 21
M  V30 21 1 20 22
M  V30 22 2 21 23
M  V30 23 2 22 24
M  V30 24 1 24 25
M  V30 25 1 6 7
M  V30 26 1 13 14
M  V30 27 1 23 24
M  V30 28 1 3 26
M  V30 29 1 4 27
M  V30 30 1 5 28
M  V30 31 1 6 29
M  V30 32 1 9 30
M  V30 33 1 10 31
M  V30 34 1 10 32
M  V30 35 1 11 33
M  V30 36 1 11 34
M  V30 37 1 12 35
M  V30 38 1 12 36
M  V30 39 1 13 37
M  V30 40 1 13 38
M  V30 41 1 15 39
M  V30 42 1 15 40
M  V30 43 1 16 41
M  V30 44 1 16 42
M  V30 45 1 20 43
M  V30 46 1 21 44
M  V30 47 1 22 45
M  V30 48 1 23 46
M  V30 END BOND
M  V30 END CTAB
M  END
>  <NO.>
1045

>  <Name>
bromperidol

>  <SMILES>
O=C(CCN1CCC(O)(c2ccc(Br)cc2)CC1)c1ccc(F)cc1

>  <logBB>
1.38

>  <Class>
1

>  <MW>
405.07

>  <nHBAcc>
3

>  <nHBDon>
1

>  <SLogP>
4.14

>  <TopoPSA>
40.54

>  <MMFF94 Energy>
59.336

$$$$
CNCCCN1c2ccccc2Sc2ccc(Cl)cc21
Actelion Java MolfileCreator 2.0

  0  0  0  0  0  0              0 V3000
M  V30 BEGIN CTAB
M  V30 COUNTS 37 39 0 0 0
M  V30 BEGIN ATOM
M  V30 1 Cl -1.9591 4.8213 -0.6527 0
M  V30 2 C -1.0873 3.8474 0.468 0
M  V30 3 C -0.6477 2.575 0.0874 0
M  V30 4 C -0.8285 4.3306 1.7385 0
M  V30 5 C 0.0753 1.7325 0.9633 0
M  V30 6 C -0.1306 3.5258 2.6312 0
M  V30 7 N 0.5296 0.4381 0.5721 0
M  V30 8 C 0.3129 2.24 2.2586 0
M  V30 9 C 1.0693 -0.5495 1.4487 0
M  V30 10 C 0.5177 0.1227 -0.8757 0
M  V30 11 S 1.1885 1.3506 3.5218 0
M  V30 12 C 1.3982 -0.2525 2.7871 0
M  V30 13 C 1.294 -1.8841 1.037 0
M  V30 14 C -0.7972 -0.5422 -1.306 0
M  V30 15 C 1.9416 -1.236 3.6388 0
M  V30 16 C 1.8293 -2.8593 1.8881 0
M  V30 17 C -0.7565 -0.8955 -2.7935 0
M  V30 18 C 2.158 -2.5339 3.1923 0
M  V30 19 N -2.0311 -1.4849 -3.2001 0
M  V30 20 C -2.0171 -1.8542 -4.6091 0
M  V30 21 H -0.906 2.2584 -0.9171 0
M  V30 22 H -1.1655 5.3174 2.042 0
M  V30 23 H 0.0671 3.906 3.6321 0
M  V30 24 H 1.3727 -0.5103 -1.1464 0
M  V30 25 H 0.704 1.0225 -1.4766 0
M  V30 26 H 1.0446 -2.2213 0.0366 0
M  V30 27 H -1.6452 0.1232 -1.1065 0
M  V30 28 H -0.9811 -1.4476 -0.7157 0
M  V30 29 H 2.1977 -0.9892 4.6676 0
M  V30 30 H 1.9821 -3.8722 1.524 0
M  V30 31 H 0.0636 -1.5995 -2.9794 0
M  V30 32 H -0.5648 0.0124 -3.3777 0
M  V30 33 H 2.574 -3.282 3.8609 0
M  V30 34 H -2.2304 -2.3111 -2.6358 0
M  V30 35 H -1.2494 -2.6061 -4.8189 0
M  V30 36 H -1.8465 -0.9801 -5.2459 0
M  V30 37 H -2.9879 -2.2777 -4.8846 0
M  V30 END ATOM
M  V30 BEGIN BOND
M  V30 1 1 1 2
M  V30 2 2 2 3
M  V30 3 1 2 4
M  V30 4 1 3 5
M  V30 5 2 4 6
M  V30 6 1 5 7
M  V30 7 2 5 8
M  V30 8 1 7 9
M  V30 9 1 7 10
M  V30 10 1 8 11
M  V30 11 2 9 12
M  V30 12 1 9 13
M  V30 13 1 10 14
M  V30 14 1 12 15
M  V30 15 2 13 16
M  V30 16 1 14 17
M  V30 17 2 15 18
M  V30 18 1 17 19
M  V30 19 1 19 20
M  V30 20 1 6 8
M  V30 21 1 11 12
M  V30 22 1 16 18
M  V30 23 1 3 21
M  V30 24 1 4 22
M  V30 25 1 6 23
M  V30 26 1 10 24
M  V30 27 1 10 25
M  V30 28 1 13 26
M  V30 29 1 14 27
M  V30 30 1 14 28
M  V30 31 1 15 29
M  V30 32 1 16 30
M  V30 33 1 17 31
M  V30 34 1 17 32
M  V30 35 1 18 33
M  V30 36 1 19 34
M  V30 37 1 20 35
M  V30 38 1 20 36
M  V30 39 1 20 37
M  V30 END BOND
M  V30 END CTAB
M  END
>  <NO.>
1046

>  <Name>
1225-64-5

>  <SMILES>
CNCCCN1c2ccccc2Sc2ccc(Cl)cc21

>  <logBB>
1.4

>  <Class>
1

>  <MW>
304.08

>  <nHBAcc>
3

>  <nHBDon>
1

>  <SLogP>
4.55

>  <TopoPSA>
15.27

>  <MMFF94 Energy>
58.85

$$$$
CN1CCN(CCCN2c3ccccc3Sc3ccc(C(F)(F)F)cc32)CC1
Actelion Java MolfileCreator 2.0

  0  0  0  0  0  0              0 V3000
M  V30 BEGIN CTAB
M  V30 COUNTS 52 55 0 0 0
M  V30 BEGIN ATOM
M  V30 1 S -1.3832 2.279 -3.3385 0
M  V30 2 C -0.1226 1.0448 -3.579 0
M  V30 3 C -0.6379 3.333 -2.1107 0
M  V30 4 C 0.9678 0.8825 -2.7041 0
M  V30 5 C -0.2706 0.2065 -4.6968 0
M  V30 6 C 0.4999 2.9594 -1.3689 0
M  V30 7 C -1.2577 4.5757 -1.8898 0
M  V30 8 N 1.1306 1.699 -1.5537 0
M  V30 9 C 1.923 -0.1008 -3.0349 0
M  V30 10 C 0.6706 -0.7805 -4.9817 0
M  V30 11 C 1.0135 3.9021 -0.4549 0
M  V30 12 C -0.7446 5.4743 -0.9585 0
M  V30 13 C 1.5234 0.9921 -0.3084 0
M  V30 14 C 1.7821 -0.9429 -4.1533 0
M  V30 15 C 0.3983 5.1405 -0.2467 0
M  V30 16 C 0.306 0.3418 0.3666 0
M  V30 17 C 2.8414 -1.9685 -4.4708 0
M  V30 18 C 0.7352 -0.4421 1.6125 0
M  V30 19 F 3.869 -1.4465 -5.1942 0
M  V30 20 F 3.4059 -2.5092 -3.3543 0
M  V30 21 F 2.3696 -3.0221 -5.1938 0
M  V30 22 N -0.401 -0.9625 2.3885 0
M  V30 23 C 0.0737 -1.5171 3.676 0
M  V30 24 C -1.1463 -2.0138 1.6627 0
M  V30 25 C -1.069 -2.1243 4.5207 0
M  V30 26 C -2.2831 -2.6316 2.5118 0
M  V30 27 N -1.7929 -3.1809 3.79 0
M  V30 28 C -2.9008 -3.6976 4.5895 0
M  V30 29 H -1.1236 0.3273 -5.3625 0
M  V30 30 H -2.1465 4.8531 -2.4529 0
M  V30 31 H 2.8259 -0.2044 -2.4363 0
M  V30 32 H 0.5368 -1.4099 -5.86 0
M  V30 33 H 1.9297 3.7036 0.0928 0
M  V30 34 H -1.2289 6.4343 -0.8015 0
M  V30 35 H 2.017 1.6637 0.4015 0
M  V30 36 H 2.2787 0.2228 -0.4983 0
M  V30 37 H 0.8215 5.8435 0.4662 0
M  V30 38 H -0.1906 -0.3229 -0.3486 0
M  V30 39 H -0.4215 1.1132 0.6477 0
M  V30 40 H 1.4152 -1.2547 1.3251 0
M  V30 41 H 1.3094 0.2413 2.2517 0
M  V30 42 H 0.8383 -2.2868 3.5028 0
M  V30 43 H 0.5417 -0.719 4.2652 0
M  V30 44 H -0.4652 -2.8132 1.3413 0
M  V30 45 H -1.6081 -1.5935 0.7628 0
M  V30 46 H -1.7555 -1.3223 4.825 0
M  V30 47 H -0.633 -2.5455 5.4346 0
M  V30 48 H -3.0512 -1.8662 2.6894 0
M  V30 49 H -2.7503 -3.4326 1.9262 0
M  V30 50 H -3.6344 -2.9218 4.8372 0
M  V30 51 H -2.529 -4.1306 5.5248 0
M  V30 52 H -3.4176 -4.5016 4.0539 0
M  V30 END ATOM
M  V30 BEGIN BOND
M  V30 1 1 1 2
M  V30 2 1 1 3
M  V30 3 2 2 4
M  V30 4 1 2 5
M  V30 5 2 3 6
M  V30 6 1 3 7
M  V30 7 1 4 8
M  V30 8 1 4 9
M  V30 9 2 5 10
M  V30 10 1 6 11
M  V30 11 2 7 12
M  V30 12 1 8 13
M  V30 13 2 9 14
M  V30 14 2 11 15
M  V30 15 1 13 16
M  V30 16 1 14 17
M  V30 17 1 16 18
M  V30 18 1 17 19
M  V30 19 1 17 20
M  V30 20 1 17 21
M  V30 21 1 18 22
M  V30 22 1 22 23
M  V30 23 1 22 24
M  V30 24 1 23 25
M  V30 25 1 24 26
M  V30 26 1 25 27
M  V30 27 1 27 28
M  V30 28 1 6 8
M  V30 29 1 10 14
M  V30 30 1 12 15
M  V30 31 1 26 27
M  V30 32 1 5 29
M  V30 33 1 7 30
M  V30 34 1 9 31
M  V30 35 1 10 32
M  V30 36 1 11 33
M  V30 37 1 12 34
M  V30 38 1 13 35
M  V30 39 1 13 36
M  V30 40 1 15 37
M  V30 41 1 16 38
M  V30 42 1 16 39
M  V30 43 1 18 40
M  V30 44 1 18 41
M  V30 45 1 23 42
M  V30 46 1 23 43
M  V30 47 1 24 44
M  V30 48 1 24 45
M  V30 49 1 25 46
M  V30 50 1 25 47
M  V30 51 1 26 48
M  V30 52 1 26 49
M  V30 53 1 28 50
M  V30 54 1 28 51
M  V30 55 1 28 52
M  V30 END BOND
M  V30 END CTAB
M  END
>  <NO.>
1047

>  <Name>
117-89-5

>  <SMILES>
CN1CCN(CCCN2c3ccccc3Sc3ccc(C(F)(F)F)cc32)CC1

>  <logBB>
1.4

>  <Class>
1

>  <MW>
407.16

>  <nHBAcc>
4

>  <nHBDon>
0

>  <SLogP>
4.95

>  <TopoPSA>
9.72

>  <MMFF94 Energy>
157.37

$$$$
CC(NC(C)(C)C)C(=O)c1cccc(Cl)c1
Actelion Java MolfileCreator 2.0

  0  0  0  0  0  0              0 V3000
M  V30 BEGIN CTAB
M  V30 COUNTS 34 34 0 0 0
M  V30 BEGIN ATOM
M  V30 1 Cl -0.3167 -3.8858 -4.0447 0
M  V30 2 C -0.6355 -3.3107 -2.4548 0
M  V30 3 C -0.7833 -1.9442 -2.2279 0
M  V30 4 C -0.742 -4.2176 -1.4023 0
M  V30 5 C -1.0345 -1.4719 -0.9316 0
M  V30 6 C -1.0032 -3.755 -0.1127 0
M  V30 7 C -1.181 0.0031 -0.7422 0
M  V30 8 C -1.1519 -2.3853 0.1242 0
M  V30 9 O -1.5119 0.6781 -1.7181 0
M  V30 10 C -0.9342 0.6068 0.6539 0 CFG=1
M  V30 11 N -0.1827 1.8703 0.5414 0
M  V30 12 C -2.2989 0.8907 1.2863 0
M  V30 13 C 1.2872 1.7993 0.5727 0
M  V30 14 C 1.784 1.4978 1.9978 0
M  V30 15 C 1.7875 3.2004 0.1707 0
M  V30 16 C 1.8777 0.7774 -0.4105 0
M  V30 17 H -0.7004 -1.2436 -3.0568 0
M  V30 18 H -0.6282 -5.2839 -1.5817 0
M  V30 19 H -1.0971 -4.4635 0.7074 0
M  V30 20 H -1.3768 -2.0637 1.1368 0
M  V30 21 H -0.3954 -0.0919 1.2975 0
M  V30 22 H -0.5106 2.5459 1.2299 0
M  V30 23 H -2.8966 -0.0244 1.3571 0
M  V30 24 H -2.8767 1.6095 0.6933 0
M  V30 25 H -2.1868 1.2955 2.2982 0
M  V30 26 H 1.4987 0.4937 2.3285 0
M  V30 27 H 2.8773 1.5582 2.0515 0
M  V30 28 H 1.3811 2.2153 2.7223 0
M  V30 29 H 1.4205 3.9728 0.8575 0
M  V30 30 H 2.8827 3.2477 0.1816 0
M  V30 31 H 1.456 3.4675 -0.8399 0
M  V30 32 H 1.6362 -0.2517 -0.126 0
M  V30 33 H 1.5162 0.948 -1.4308 0
M  V30 34 H 2.9715 0.8499 -0.4381 0
M  V30 END ATOM
M  V30 BEGIN BOND
M  V30 1 1 1 2
M  V30 2 2 2 3
M  V30 3 1 2 4
M  V30 4 1 3 5
M  V30 5 2 4 6
M  V30 6 1 5 7
M  V30 7 2 5 8
M  V30 8 2 7 9
M  V30 9 1 7 10
M  V30 10 1 10 11
M  V30 11 1 10 12
M  V30 12 1 11 13
M  V30 13 1 13 14
M  V30 14 1 13 15
M  V30 15 1 13 16
M  V30 16 1 6 8
M  V30 17 1 3 17
M  V30 18 1 4 18
M  V30 19 1 6 19
M  V30 20 1 8 20
M  V30 21 1 10 21
M  V30 22 1 11 22
M  V30 23 1 12 23
M  V30 24 1 12 24
M  V30 25 1 12 25
M  V30 26 1 14 26
M  V30 27 1 14 27
M  V30 28 1 14 28
M  V30 29 1 15 29
M  V30 30 1 15 30
M  V30 31 1 15 31
M  V30 32 1 16 32
M  V30 33 1 16 33
M  V30 34 1 16 34
M  V30 END BOND
M  V30 BEGIN COLLECTION
M  V30 MDLV30/STERAC1 ATOMS=(1 10)
M  V30 END COLLECTION
M  V30 END CTAB
M  END
>  <NO.>
1048

>  <Name>
bupropion (zyban)

>  <SMILES>
CC(NC(C)(C)C)C(=O)c1cccc(Cl)c1

>  <logBB>
1.4

>  <Class>
1

>  <MW>
239.11

>  <nHBAcc>
2

>  <nHBDon>
1

>  <SLogP>
3.3

>  <TopoPSA>
29.1

>  <MMFF94 Energy>
69.109

$$$$
CN1CCN(CCCN2c3ccccc3Sc3cccc(C(F)(F)F)c32)CC1
Actelion Java MolfileCreator 2.0

  0  0  0  0  0  0              0 V3000
M  V30 BEGIN CTAB
M  V30 COUNTS 52 55 0 0 0
M  V30 BEGIN ATOM
M  V30 1 S -1.8731 1.8731 4.2385 0
M  V30 2 C -2.7552 2.3236 2.7461 0
M  V30 3 C -1.1421 0.3229 3.7346 0
M  V30 4 C -2.4212 1.785 1.4795 0
M  V30 5 C -3.813 3.2323 2.8727 0
M  V30 6 C -0.9619 -3.0E-4 2.3756 0
M  V30 7 C -0.7665 -0.5901 4.7289 0
M  V30 8 N -1.2814 0.9262 1.3392 0
M  V30 9 C -3.2213 2.1125 0.3634 0
M  V30 10 C -4.5697 3.5895 1.7619 0
M  V30 11 C -0.4801 -1.2763 2.0462 0
M  V30 12 C -0.253 -1.8399 4.3822 0
M  V30 13 C -0.0939 1.7499 0.9457 0
M  V30 14 C -4.2822 3.0277 0.5209 0
M  V30 15 C -2.9764 1.5118 -0.9965 0
M  V30 16 C -0.1219 -2.1877 3.0411 0
M  V30 17 C 1.0526 0.9781 0.2811 0
M  V30 18 F -4.033 1.6789 -1.8483 0
M  V30 19 F -1.9168 2.0847 -1.635 0
M  V30 20 F -2.7389 0.1715 -0.9898 0
M  V30 21 C 0.6625 0.386 -1.0767 0
M  V30 22 N 1.795 -0.2726 -1.7534 0
M  V30 23 C 2.1774 -1.541 -1.0952 0
M  V30 24 C 1.4353 -0.5636 -3.1607 0
M  V30 25 C 3.3 -2.2867 -1.8554 0
M  V30 26 C 2.5589 -1.3053 -3.9192 0
M  V30 27 N 2.9356 -2.568 -3.2563 0
M  V30 28 C 4.0404 -3.2131 -3.9603 0
M  V30 29 H -4.0622 3.657 3.8429 0
M  V30 30 H -0.8906 -0.341 5.7802 0
M  V30 31 H -5.394 4.291 1.8672 0
M  V30 32 H -0.3909 -1.5699 1.0043 0
M  V30 33 H 0.0255 -2.5474 5.1589 0
M  V30 34 H 0.3033 2.2688 1.8297 0
M  V30 35 H -0.3956 2.5437 0.249 0
M  V30 36 H -4.9001 3.3015 -0.3343 0
M  V30 37 H 0.2546 -3.1696 2.7663 0
M  V30 38 H 1.4387 0.2137 0.9596 0
M  V30 39 H 1.8811 1.6824 0.1262 0
M  V30 40 H -0.1842 -0.3022 -0.9783 0
M  V30 41 H 0.3255 1.2187 -1.7058 0
M  V30 42 H 2.5472 -1.3443 -0.0834 0
M  V30 43 H 1.3068 -2.2043 -1.0035 0
M  V30 44 H 1.2372 0.3778 -3.6876 0
M  V30 45 H 0.5158 -1.1634 -3.2056 0
M  V30 46 H 3.4968 -3.2311 -1.3336 0
M  V30 47 H 4.2206 -1.6889 -1.8076 0
M  V30 48 H 3.4289 -0.6405 -4.0093 0
M  V30 49 H 2.2039 -1.5183 -4.9348 0
M  V30 50 H 4.9402 -2.588 -3.9866 0
M  V30 51 H 4.2964 -4.1647 -3.4813 0
M  V30 52 H 3.7535 -3.4467 -4.9915 0
M  V30 END ATOM
M  V30 BEGIN BOND
M  V30 1 1 1 2
M  V30 2 1 1 3
M  V30 3 2 2 4
M  V30 4 1 2 5
M  V30 5 2 3 6
M  V30 6 1 3 7
M  V30 7 1 4 8
M  V30 8 1 4 9
M  V30 9 2 5 10
M  V30 10 1 6 11
M  V30 11 2 7 12
M  V30 12 1 8 13
M  V30 13 2 9 14
M  V30 14 1 9 15
M  V30 15 2 11 16
M  V30 16 1 13 17
M  V30 17 1 15 18
M  V30 18 1 15 19
M  V30 19 1 15 20
M  V30 20 1 17 21
M  V30 21 1 21 22
M  V30 22 1 22 23
M  V30 23 1 22 24
M  V30 24 1 23 25
M  V30 25 1 24 26
M  V30 26 1 25 27
M  V30 27 1 27 28
M  V30 28 1 6 8
M  V30 29 1 10 14
M  V30 30 1 12 16
M  V30 31 1 26 27
M  V30 32 1 5 29
M  V30 33 1 7 30
M  V30 34 1 10 31
M  V30 35 1 11 32
M  V30 36 1 12 33
M  V30 37 1 13 34
M  V30 38 1 13 35
M  V30 39 1 14 36
M  V30 40 1 16 37
M  V30 41 1 17 38
M  V30 42 1 17 39
M  V30 43 1 21 40
M  V30 44 1 21 41
M  V30 45 1 23 42
M  V30 46 1 23 43
M  V30 47 1 24 44
M  V30 48 1 24 45
M  V30 49 1 25 46
M  V30 50 1 25 47
M  V30 51 1 26 48
M  V30 52 1 26 49
M  V30 53 1 28 50
M  V30 54 1 28 51
M  V30 55 1 28 52
M  V30 END BOND
M  V30 END CTAB
M  END
>  <NO.>
1051

>  <Name>
-

>  <SMILES>
CN1CCN(CCCN2c3ccccc3Sc3cccc(C(F)(F)F)c32)CC1

>  <logBB>
1.44

>  <Class>
1

>  <MW>
407.16

>  <nHBAcc>
4

>  <nHBDon>
0

>  <SLogP>
4.95

>  <TopoPSA>
9.72

>  <MMFF94 Energy>
160.08

$$$$
O=C(CCCN1CCCN(c2ccc(Cl)cc2)CC1)c1ccc(F)cc1
Actelion Java MolfileCreator 2.0

  0  0  0  0  0  0              0 V3000
M  V30 BEGIN CTAB
M  V30 COUNTS 50 52 0 0 0
M  V30 BEGIN ATOM
M  V30 1 Cl 5.0635 2.891 -7.0783 0
M  V30 2 C 4.5356 2.1352 -5.6272 0
M  V30 3 C 3.3377 1.4342 -5.6045 0
M  V30 4 C 5.3079 2.2204 -4.4775 0
M  V30 5 C 2.9123 0.8191 -4.419 0
M  V30 6 C 4.8703 1.6026 -3.2983 0
M  V30 7 C 3.6592 0.892 -3.2305 0
M  V30 8 N 3.2429 0.2868 -2.0519 0
M  V30 9 C 2.2881 -0.8279 -2.0541 0
M  V30 10 C 3.4051 0.9682 -0.7612 0
M  V30 11 C 0.8371 -0.3795 -1.7588 0
M  V30 12 C 2.2256 1.9072 -0.5303 0
M  V30 13 N 0.6071 -0.1147 -0.3237 0
M  V30 14 C 1.0028 1.2362 0.1094 0
M  V30 15 C -0.784 -0.426 0.052 0
M  V30 16 C -1.0466 -0.3557 1.5627 0
M  V30 17 C -2.457 -0.8473 1.8992 0
M  V30 18 C -2.7558 -0.7532 3.3866 0
M  V30 19 O -1.9612 -0.2639 4.1867 0
M  V30 20 C -4.068 -1.268 3.889 0
M  V30 21 C -4.3157 -1.225 5.2712 0
M  V30 22 C -5.0503 -1.7846 3.0316 0
M  V30 23 C -5.5256 -1.693 5.7887 0
M  V30 24 C -6.2604 -2.2522 3.554 0
M  V30 25 C -6.4865 -2.2024 4.9251 0
M  V30 26 F -7.6474 -2.6515 5.4184 0
M  V30 27 H 2.7245 1.3601 -6.498 0
M  V30 28 H 6.2542 2.7537 -4.4845 0
M  V30 29 H 1.9603 0.2979 -4.4455 0
M  V30 30 H 5.5244 1.6589 -2.4328 0
M  V30 31 H 2.6 -1.5621 -1.2989 0
M  V30 32 H 2.3223 -1.3781 -3.0025 0
M  V30 33 H 3.4812 0.2328 0.0497 0
M  V30 34 H 4.3356 1.5417 -0.7164 0
M  V30 35 H 0.2065 -1.2209 -2.0749 0
M  V30 36 H 0.5359 0.4762 -2.3752 0
M  V30 37 H 2.5471 2.7127 0.1425 0
M  V30 38 H 1.9279 2.3947 -1.4671 0
M  V30 39 H 0.1631 1.9324 -0.0215 0
M  V30 40 H 1.199 1.1874 1.1881 0
M  V30 41 H -1.0136 -1.4502 -0.2694 0
M  V30 42 H -1.4801 0.2382 -0.4767 0
M  V30 43 H -0.9332 0.6736 1.9231 0
M  V30 44 H -0.3091 -0.9669 2.0984 0
M  V30 45 H -2.5542 -1.8935 1.5885 0
M  V30 46 H -3.1909 -0.2377 1.3603 0
M  V30 47 H -3.5651 -0.826 5.9522 0
M  V30 48 H -4.9038 -1.8338 1.957 0
M  V30 49 H -5.7207 -1.6619 6.8562 0
M  V30 50 H -7.0291 -2.6544 2.9008 0
M  V30 END ATOM
M  V30 BEGIN BOND
M  V30 1 1 1 2
M  V30 2 2 2 3
M  V30 3 1 2 4
M  V30 4 1 3 5
M  V30 5 2 4 6
M  V30 6 2 5 7
M  V30 7 1 7 8
M  V30 8 1 8 9
M  V30 9 1 8 10
M  V30 10 1 9 11
M  V30 11 1 10 12
M  V30 12 1 11 13
M  V30 13 1 12 14
M  V30 14 1 13 15
M  V30 15 1 15 16
M  V30 16 1 16 17
M  V30 17 1 17 18
M  V30 18 2 18 19
M  V30 19 1 18 20
M  V30 20 2 20 21
M  V30 21 1 20 22
M  V30 22 1 21 23
M  V30 23 2 22 24
M  V30 24 2 23 25
M  V30 25 1 25 26
M  V30 26 1 6 7
M  V30 27 1 13 14
M  V30 28 1 24 25
M  V30 29 1 3 27
M  V30 30 1 4 28
M  V30 31 1 5 29
M  V30 32 1 6 30
M  V30 33 1 9 31
M  V30 34 1 9 32
M  V30 35 1 10 33
M  V30 36 1 10 34
M  V30 37 1 11 35
M  V30 38 1 11 36
M  V30 39 1 12 37
M  V30 40 1 12 38
M  V30 41 1 14 39
M  V30 42 1 14 40
M  V30 43 1 15 41
M  V30 44 1 15 42
M  V30 45 1 16 43
M  V30 46 1 16 44
M  V30 47 1 17 45
M  V30 48 1 17 46
M  V30 49 1 21 47
M  V30 50 1 22 48
M  V30 51 1 23 49
M  V30 52 1 24 50
M  V30 END BOND
M  V30 END CTAB
M  END
>  <NO.>
1052

>  <Name>
chembl476108

>  <SMILES>
O=C(CCCN1CCCN(c2ccc(Cl)cc2)CC1)c1ccc(F)cc1

>  <logBB>
1.48

>  <Class>
1

>  <MW>
374.16

>  <nHBAcc>
3

>  <nHBDon>
0

>  <SLogP>
4.65

>  <TopoPSA>
23.55

>  <MMFF94 Energy>
87.261

$$$$
OCCN1CCN(CCCN2c3ccccc3Sc3ccc(C(F)(F)F)cc32)CC1
Actelion Java MolfileCreator 2.0

  0  0  0  0  0  0              0 V3000
M  V30 BEGIN CTAB
M  V30 COUNTS 56 59 0 0 0
M  V30 BEGIN ATOM
M  V30 1 S -2.8441 2.6001 -4.0649 0
M  V30 2 C -1.4918 1.5366 -3.6275 0
M  V30 3 C -3.4855 3.0786 -2.4787 0
M  V30 4 C -1.2136 1.1259 -2.3098 0
M  V30 5 C -0.6969 1.1018 -4.7071 0
M  V30 6 C -3.0363 2.5389 -1.2558 0
M  V30 7 C -4.507 4.0501 -2.5152 0
M  V30 8 N -2.012 1.5487 -1.2054 0
M  V30 9 C -0.0899 0.281 -2.1483 0
M  V30 10 C 0.3967 0.2652 -4.5085 0
M  V30 11 C -3.6548 3.0495 -0.0907 0
M  V30 12 C -5.0967 4.5178 -1.3474 0
M  V30 13 C -1.7887 0.859 0.0901 0
M  V30 14 C 0.7192 -0.1474 -3.2194 0
M  V30 15 C -4.6661 4.018 -0.1313 0
M  V30 16 C -0.7271 1.5813 0.9349 0
M  V30 17 C 1.8912 -1.0595 -2.9591 0
M  V30 18 C -0.3763 0.8007 2.2071 0
M  V30 19 F 2.7927 -1.0908 -3.9799 0
M  V30 20 F 2.6019 -0.705 -1.8503 0
M  V30 21 F 1.5111 -2.3511 -2.7564 0
M  V30 22 N 0.2601 -0.4933 1.9203 0
M  V30 23 C 0.1939 -1.3771 3.1056 0
M  V30 24 C 1.6864 -0.3326 1.5526 0
M  V30 25 C 0.8824 -2.7383 2.8572 0
M  V30 26 C 2.3834 -1.6904 1.296 0
M  V30 27 N 2.2966 -2.5937 2.4582 0
M  V30 28 C 2.8864 -3.9207 2.1863 0
M  V30 29 C 4.4126 -3.926 1.9865 0
M  V30 30 O 5.0876 -3.5731 3.1902 0
M  V30 31 H -0.9318 1.4211 -5.7215 0
M  V30 32 H -4.8477 4.4515 -3.4678 0
M  V30 33 H 0.2059 -0.068 -1.1627 0
M  V30 34 H 0.9914 -0.0532 -5.3625 0
M  V30 35 H -3.3629 2.7211 0.9008 0
M  V30 36 H -5.8808 5.2682 -1.3906 0
M  V30 37 H -1.5262 -0.1928 -0.0732 0
M  V30 38 H -2.7228 0.7645 0.6584 0
M  V30 39 H -5.1097 4.3777 0.7938 0
M  V30 40 H -1.1002 2.5684 1.2322 0
M  V30 41 H 0.1738 1.7825 0.3459 0
M  V30 42 H 0.2601 1.4157 2.8561 0
M  V30 43 H -1.313 0.6393 2.757 0
M  V30 44 H -0.856 -1.5716 3.3562 0
M  V30 45 H 0.6542 -0.8907 3.9765 0
M  V30 46 H 1.7773 0.2636 0.6391 0
M  V30 47 H 2.2296 0.2033 2.343 0
M  V30 48 H 0.8218 -3.3217 3.784 0
M  V30 49 H 0.3209 -3.2865 2.0883 0
M  V30 50 H 3.4315 -1.477 1.0613 0
M  V30 51 H 1.9359 -2.1596 0.4095 0
M  V30 52 H 2.41 -4.3735 1.3076 0
M  V30 53 H 2.6763 -4.5714 3.0452 0
M  V30 54 H 4.7359 -4.9356 1.7118 0
M  V30 55 H 4.7249 -3.2469 1.1882 0
M  V30 56 H 6.0266 -3.4622 2.9686 0
M  V30 END ATOM
M  V30 BEGIN BOND
M  V30 1 1 1 2
M  V30 2 1 1 3
M  V30 3 2 2 4
M  V30 4 1 2 5
M  V30 5 2 3 6
M  V30 6 1 3 7
M  V30 7 1 4 8
M  V30 8 1 4 9
M  V30 9 2 5 10
M  V30 10 1 6 11
M  V30 11 2 7 12
M  V30 12 1 8 13
M  V30 13 2 9 14
M  V30 14 2 11 15
M  V30 15 1 13 16
M  V30 16 1 14 17
M  V30 17 1 16 18
M  V30 18 1 17 19
M  V30 19 1 17 20
M  V30 20 1 17 21
M  V30 21 1 18 22
M  V30 22 1 22 23
M  V30 23 1 22 24
M  V30 24 1 23 25
M  V30 25 1 24 26
M  V30 26 1 25 27
M  V30 27 1 27 28
M  V30 28 1 28 29
M  V30 29 1 29 30
M  V30 30 1 6 8
M  V30 31 1 10 14
M  V30 32 1 12 15
M  V30 33 1 26 27
M  V30 34 1 5 31
M  V30 35 1 7 32
M  V30 36 1 9 33
M  V30 37 1 10 34
M  V30 38 1 11 35
M  V30 39 1 12 36
M  V30 40 1 13 37
M  V30 41 1 13 38
M  V30 42 1 15 39
M  V30 43 1 16 40
M  V30 44 1 16 41
M  V30 45 1 18 42
M  V30 46 1 18 43
M  V30 47 1 23 44
M  V30 48 1 23 45
M  V30 49 1 24 46
M  V30 50 1 24 47
M  V30 51 1 25 48
M  V30 52 1 25 49
M  V30 53 1 26 50
M  V30 54 1 26 51
M  V30 55 1 28 52
M  V30 56 1 28 53
M  V30 57 1 29 54
M  V30 58 1 29 55
M  V30 59 1 30 56
M  V30 END BOND
M  V30 END CTAB
M  END
>  <NO.>
1053

>  <Name>
fluphenazine

>  <SMILES>
OCCN1CCN(CCCN2c3ccccc3Sc3ccc(C(F)(F)F)cc32)CC1

>  <logBB>
1.5

>  <Class>
1

>  <MW>
437.17

>  <nHBAcc>
5

>  <nHBDon>
1

>  <SLogP>
4.31

>  <TopoPSA>
29.95

>  <MMFF94 Energy>
175.93

$$$$
CN(C)CCC(c1ccc(Cl)cc1)c1ccccn1
Actelion Java MolfileCreator 2.0

  0  0  0  0  0  0              0 V3000
M  V30 BEGIN CTAB
M  V30 COUNTS 38 39 0 0 0
M  V30 BEGIN ATOM
M  V30 1 Cl -4.5466 0.0 -4.6265 0
M  V30 2 C -3.356 0.1346 -3.3919 0
M  V30 3 C -3.4126 1.1897 -2.487 0
M  V30 4 C -2.3423 -0.8153 -3.3011 0
M  V30 5 C -2.4447 1.2952 -1.4856 0
M  V30 6 C -1.3736 -0.7103 -2.2979 0
M  V30 7 C -1.4065 0.3505 -1.3785 0
M  V30 8 C -0.3843 0.5112 -0.249 0 CFG=1
M  V30 9 C -0.9702 0.1289 1.1053 0
M  V30 10 C 0.9748 -0.1839 -0.5046 0
M  V30 11 N -0.9834 1.1012 2.0543 0
M  V30 12 C -1.4447 -1.1586 1.3575 0
M  V30 13 C 2.0541 0.2472 0.5038 0
M  V30 14 C -1.4866 0.783 3.2674 0
M  V30 15 C -1.9555 -1.4555 2.618 0
M  V30 16 N 3.3429 -0.4353 0.2741 0
M  V30 17 C -1.9789 -0.4679 3.5939 0
M  V30 18 C 4.2194 -0.2398 1.4339 0
M  V30 19 C 4.0167 0.0535 -0.9314 0
M  V30 20 H -4.205 1.9304 -2.5502 0
M  V30 21 H -2.2998 -1.6417 -4.0055 0
M  V30 22 H -2.5056 2.1205 -0.7765 0
M  V30 23 H -0.6003 -1.4729 -2.2504 0
M  V30 24 H -0.1613 1.5889 -0.2146 0
M  V30 25 H 0.8671 -1.2756 -0.4665 0
M  V30 26 H 1.303 0.0696 -1.5196 0
M  V30 27 H -1.4223 -1.9236 0.5883 0
M  V30 28 H 2.1813 1.3374 0.4834 0
M  V30 29 H 1.7012 -0.014 1.5088 0
M  V30 30 H -1.4825 1.5891 3.9954 0
M  V30 31 H -2.3326 -2.4508 2.8347 0
M  V30 32 H -2.3712 -0.6678 4.5844 0
M  V30 33 H 3.7617 -0.6562 2.3384 0
M  V30 34 H 4.4386 0.8191 1.6126 0
M  V30 35 H 5.1677 -0.7709 1.2946 0
M  V30 36 H 4.1891 1.1355 -0.8993 0
M  V30 37 H 3.4425 -0.1808 -1.8326 0
M  V30 38 H 4.986 -0.4427 -1.0568 0
M  V30 END ATOM
M  V30 BEGIN BOND
M  V30 1 1 1 2
M  V30 2 2 2 3
M  V30 3 1 2 4
M  V30 4 1 3 5
M  V30 5 2 4 6
M  V30 6 2 5 7
M  V30 7 1 7 8
M  V30 8 1 8 9
M  V30 9 1 8 10
M  V30 10 2 9 11
M  V30 11 1 9 12
M  V30 12 1 10 13
M  V30 13 1 11 14
M  V30 14 2 12 15
M  V30 15 1 13 16
M  V30 16 2 14 17
M  V30 17 1 16 18
M  V30 18 1 16 19
M  V30 19 1 6 7
M  V30 20 1 15 17
M  V30 21 1 3 20
M  V30 22 1 4 21
M  V30 23 1 5 22
M  V30 24 1 6 23
M  V30 25 1 8 24
M  V30 26 1 10 25
M  V30 27 1 10 26
M  V30 28 1 12 27
M  V30 29 1 13 28
M  V30 30 1 13 29
M  V30 31 1 14 30
M  V30 32 1 15 31
M  V30 33 1 17 32
M  V30 34 1 18 33
M  V30 35 1 18 34
M  V30 36 1 18 35
M  V30 37 1 19 36
M  V30 38 1 19 37
M  V30 39 1 19 38
M  V30 END BOND
M  V30 BEGIN COLLECTION
M  V30 MDLV30/STERAC1 ATOMS=(1 8)
M  V30 END COLLECTION
M  V30 END CTAB
M  END
>  <NO.>
1054

>  <Name>
chlorpheniramine

>  <SMILES>
CN(C)CCC(c1ccc(Cl)cc1)c1ccccn1

>  <logBB>
1.53

>  <Class>
1

>  <MW>
274.12

>  <nHBAcc>
2

>  <nHBDon>
0

>  <SLogP>
3.82

>  <TopoPSA>
16.13

>  <MMFF94 Energy>
58.239

$$$$
FC(F)(F)c1ccc(N2CCNCC2)nc1Cl
Actelion Java MolfileCreator 2.0

  0  0  0  0  0  0              0 V3000
M  V30 BEGIN CTAB
M  V30 COUNTS 28 29 0 0 0
M  V30 BEGIN ATOM
M  V30 1 Cl -2.2073 1.3075 -3.1894 0
M  V30 2 C -0.7284 0.8929 -2.4145 0
M  V30 3 N -0.9055 0.5623 -1.1144 0
M  V30 4 C 0.491 0.9033 -3.0567 0
M  V30 5 C 0.1608 0.2022 -0.37 0
M  V30 6 C 1.5985 0.551 -2.2855 0
M  V30 7 C 0.6146 1.2807 -4.493 0
M  V30 8 N -0.0364 -0.1242 0.9663 0
M  V30 9 C 1.4309 0.2055 -0.9426 0
M  V30 10 F 1.9022 1.2253 -4.9447 0
M  V30 11 F -0.0901 0.4663 -5.3246 0
M  V30 12 F 0.1997 2.5503 -4.7525 0
M  V30 13 C 0.7034 -1.2526 1.5533 0
M  V30 14 C -1.4128 0.0411 1.4727 0
M  V30 15 C 0.5917 -1.2545 3.0951 0
M  V30 16 C -1.4524 -0.0086 3.0155 0
M  V30 17 N -0.7939 -1.1969 3.5883 0
M  V30 18 H 2.5987 0.55 -2.7151 0
M  V30 19 H 2.3111 -0.0294 -0.3549 0
M  V30 20 H 1.7697 -1.2173 1.3098 0
M  V30 21 H 0.3034 -2.1936 1.1547 0
M  V30 22 H -2.0535 -0.7515 1.065 0
M  V30 23 H -1.8297 1.0096 1.1684 0
M  V30 24 H 1.1541 -0.4036 3.5006 0
M  V30 25 H 1.0641 -2.1632 3.4838 0
M  V30 26 H -0.977 0.8942 3.4199 0
M  V30 27 H -2.497 0.0063 3.3454 0
M  V30 28 H -0.7853 -1.1125 4.6039 0
M  V30 END ATOM
M  V30 BEGIN BOND
M  V30 1 1 1 2
M  V30 2 2 2 3
M  V30 3 1 2 4
M  V30 4 1 3 5
M  V30 5 2 4 6
M  V30 6 1 4 7
M  V30 7 1 5 8
M  V30 8 2 5 9
M  V30 9 1 7 10
M  V30 10 1 7 11
M  V30 11 1 7 12
M  V30 12 1 8 13
M  V30 13 1 8 14
M  V30 14 1 13 15
M  V30 15 1 14 16
M  V30 16 1 15 17
M  V30 17 1 6 9
M  V30 18 1 16 17
M  V30 19 1 6 18
M  V30 20 1 9 19
M  V30 21 1 13 20
M  V30 22 1 13 21
M  V30 23 1 14 22
M  V30 24 1 14 23
M  V30 25 1 15 24
M  V30 26 1 15 25
M  V30 27 1 16 26
M  V30 28 1 16 27
M  V30 29 1 17 28
M  V30 END BOND
M  V30 END CTAB
M  END
>  <NO.>
1057

>  <Name>
chebi: 568657

>  <SMILES>
FC(F)(F)c1ccc(N2CCNCC2)nc1Cl

>  <logBB>
1.64

>  <Class>
1

>  <MW>
265.06

>  <nHBAcc>
3

>  <nHBDon>
1

>  <SLogP>
2.16

>  <TopoPSA>
28.16

>  <MMFF94 Energy>
40.425

$$$$
CC(C)c1ccc(SCCCC2CCN2C)cc1
Actelion Java MolfileCreator 2.0

  0  0  0  0  0  0              0 V3000
M  V30 BEGIN CTAB
M  V30 COUNTS 43 44 0 0 0
M  V30 BEGIN ATOM
M  V30 1 S -1.0356 -0.9559 -0.4779 0
M  V30 2 C -1.047 -0.7563 1.2935 0
M  V30 3 C 0.7499 -0.7554 -0.8002 0
M  V30 4 C -1.8048 0.2705 1.8592 0
M  V30 5 C -0.3394 -1.6209 2.1309 0
M  V30 6 C 1.0578 -0.6976 -2.297 0
M  V30 7 C -1.8373 0.4459 3.246 0
M  V30 8 C -0.3718 -1.447 3.5182 0
M  V30 9 C 0.5784 0.5925 -2.9721 0
M  V30 10 C -1.1189 -0.4089 4.0938 0
M  V30 11 C 1.0113 0.6072 -4.435 0 CFG=2
M  V30 12 C -1.1717 -0.2006 5.597 0
M  V30 13 N 0.4199 1.7603 -5.1766 0
M  V30 14 C 0.2319 -0.313 -5.4088 0
M  V30 15 C -1.8048 -1.3991 6.3082 0
M  V30 16 C 0.2133 0.1056 6.1722 0
M  V30 17 C 0.2899 0.8877 -6.3708 0
M  V30 18 C 1.4203 2.7969 -5.4059 0
M  V30 19 H 1.2786 -1.6094 -0.3644 0
M  V30 20 H 1.1116 0.1532 -0.3067 0
M  V30 21 H -2.3755 0.946 1.2259 0
M  V30 22 H 0.2341 -2.4457 1.7171 0
M  V30 23 H 2.1463 -0.7697 -2.4204 0
M  V30 24 H 0.6388 -1.574 -2.8071 0
M  V30 25 H -2.4341 1.2573 3.6572 0
M  V30 26 H 0.1886 -2.1366 4.145 0
M  V30 27 H -0.5109 0.6854 -2.8937 0
M  V30 28 H 1.0145 1.4544 -2.452 0
M  V30 29 H 2.1012 0.5044 -4.5456 0
M  V30 30 H -1.8064 0.6707 5.8067 0
M  V30 31 H -0.7827 -0.5755 -5.0861 0
M  V30 32 H 0.7514 -1.2164 -5.7373 0
M  V30 33 H -1.2012 -2.3066 6.1982 0
M  V30 34 H -1.9111 -1.1986 7.3799 0
M  V30 35 H -2.802 -1.6108 5.9064 0
M  V30 36 H 0.9004 -0.7398 6.0594 0
M  V30 37 H 0.6626 0.9703 5.6712 0
M  V30 38 H 0.1435 0.3365 7.2408 0
M  V30 39 H -0.6152 1.0543 -6.9618 0
M  V30 40 H 1.1542 0.8646 -7.0467 0
M  V30 41 H 2.3657 2.4168 -5.811 0
M  V30 42 H 1.029 3.5428 -6.1061 0
M  V30 43 H 1.6404 3.3167 -4.4673 0
M  V30 END ATOM
M  V30 BEGIN BOND
M  V30 1 1 1 2
M  V30 2 1 1 3
M  V30 3 2 2 4
M  V30 4 1 2 5
M  V30 5 1 3 6
M  V30 6 1 4 7
M  V30 7 2 5 8
M  V30 8 1 6 9
M  V30 9 2 7 10
M  V30 10 1 9 11
M  V30 11 1 10 12
M  V30 12 1 11 13
M  V30 13 1 11 14
M  V30 14 1 12 15
M  V30 15 1 12 16
M  V30 16 1 13 17
M  V30 17 1 13 18
M  V30 18 1 8 10
M  V30 19 1 14 17
M  V30 20 1 3 19
M  V30 21 1 3 20
M  V30 22 1 4 21
M  V30 23 1 5 22
M  V30 24 1 6 23
M  V30 25 1 6 24
M  V30 26 1 7 25
M  V30 27 1 8 26
M  V30 28 1 9 27
M  V30 29 1 9 28
M  V30 30 1 11 29
M  V30 31 1 12 30
M  V30 32 1 14 31
M  V30 33 1 14 32
M  V30 34 1 15 33
M  V30 35 1 15 34
M  V30 36 1 15 35
M  V30 37 1 16 36
M  V30 38 1 16 37
M  V30 39 1 16 38
M  V30 40 1 17 39
M  V30 41 1 17 40
M  V30 42 1 18 41
M  V30 43 1 18 42
M  V30 44 1 18 43
M  V30 END BOND
M  V30 BEGIN COLLECTION
M  V30 MDLV30/STERAC1 ATOMS=(1 11)
M  V30 END COLLECTION
M  V30 END CTAB
M  END
>  <NO.>
1058

>  <Name>


>  <SMILES>
CC(C)c1ccc(SCCCC2CCN2C)cc1

>  <logBB>
1.7

>  <Class>
1

>  <MW>
263.17

>  <nHBAcc>
2

>  <nHBDon>
0

>  <SLogP>
4.39

>  <TopoPSA>
3.24

>  <MMFF94 Energy>
41.57

$$$$
BrC(Br)Br
Actelion Java MolfileCreator 2.0

  0  0  0  0  0  0              0 V3000
M  V30 BEGIN CTAB
M  V30 COUNTS 5 4 0 0 0
M  V30 BEGIN ATOM
M  V30 1 Br 1.0823 -1.4071 -0.541 0
M  V30 2 C -0.0359 0.1093 -0.0625 0
M  V30 3 Br -1.9287 -0.3319 -0.1073 0
M  V30 4 Br 0.4917 0.9042 1.6313 0
M  V30 5 H 0.1256 0.8711 -0.8289 0
M  V30 END ATOM
M  V30 BEGIN BOND
M  V30 1 1 1 2
M  V30 2 1 2 3
M  V30 3 1 2 4
M  V30 4 1 2 5
M  V30 END BOND
M  V30 END CTAB
M  END
>  <NO.>
1059

>  <Name>
bromoform

>  <SMILES>
BrC(Br)Br

>  <logBB>


>  <Class>
1

>  <MW>
249.76

>  <nHBAcc>
0

>  <nHBDon>
0

>  <SLogP>
2.45

>  <TopoPSA>
0

>  <MMFF94 Energy>
0.019106

$$$$
C#CC(C)(O)CC
Actelion Java MolfileCreator 2.0

  0  0  0  0  0  0              0 V3000
M  V30 BEGIN CTAB
M  V30 COUNTS 17 16 0 0 0
M  V30 BEGIN ATOM
M  V30 1 O -0.1637 1.4742 1.3922 0
M  V30 2 C -0.4302 0.1466 0.4101 0 CFG=2
M  V30 3 C 0.0655 -1.2602 1.2206 0
M  V30 4 C 0.5195 0.3259 -1.129 0
M  V30 5 C -2.2041 0.0233 0.0229 0
M  V30 6 C 0.4674 -2.4006 1.8776 0
M  V30 7 C 2.0382 0.4364 -0.9587 0
M  V30 8 H -0.4664 2.3049 0.9255 0
M  V30 9 H 0.3295 -0.5265 -1.8 0
M  V30 10 H 0.1896 1.2191 -1.6831 0
M  V30 11 H -2.3875 -0.8967 -0.6533 0
M  V30 12 H -2.8074 -0.0895 1.0027 0
M  V30 13 H -2.5453 0.9811 -0.5307 0
M  V30 14 H 0.7834 -3.2973 2.3942 0
M  V30 15 H 2.5121 0.5403 -1.9407 0
M  V30 16 H 2.3169 1.3126 -0.3654 0
M  V30 17 H 2.4586 -0.4548 -0.4837 0
M  V30 END ATOM
M  V30 BEGIN BOND
M  V30 1 1 1 2
M  V30 2 1 2 3
M  V30 3 1 2 4
M  V30 4 1 2 5
M  V30 5 3 3 6
M  V30 6 1 4 7
M  V30 7 1 1 8
M  V30 8 1 4 9
M  V30 9 1 4 10
M  V30 10 1 5 11
M  V30 11 1 5 12
M  V30 12 1 5 13
M  V30 13 1 6 14
M  V30 14 1 7 15
M  V30 15 1 7 16
M  V30 16 1 7 17
M  V30 END BOND
M  V30 BEGIN COLLECTION
M  V30 MDLV30/STERAC1 ATOMS=(1 2)
M  V30 END COLLECTION
M  V30 END CTAB
M  END
>  <NO.>
1060

>  <Name>
3-methyl-1-pentyn-3-ol

>  <SMILES>
C#CC(C)(O)CC

>  <logBB>


>  <Class>
1

>  <MW>
98.07

>  <nHBAcc>
1

>  <nHBDon>
1

>  <SLogP>
0.78

>  <TopoPSA>
20.23

>  <MMFF94 Energy>
MMFF94 error code 2

$$$$
C#CC(O)(/C=C/Cl)CC
Actelion Java MolfileCreator 2.0

  0  0  0  0  0  0              0 V3000
M  V30 BEGIN CTAB
M  V30 COUNTS 18 17 0 0 0
M  V30 BEGIN ATOM
M  V30 1 Cl 3.3119 -1.6548 2.1281 0
M  V30 2 C 1.715 -1.1561 1.758 0
M  V30 3 C 1.3527 -0.745 0.5375 0
M  V30 4 C -0.0264 -0.2876 0.1269 0 CFG=2
M  V30 5 O -0.8525 -0.173 1.2817 0
M  V30 6 C -0.602 -1.3177 -0.7571 0
M  V30 7 C 0.0589 1.0783 -0.5875 0
M  V30 8 C -1.0749 -2.1593 -1.4731 0
M  V30 9 C -1.2974 1.6857 -0.9392 0
M  V30 10 H 1.0516 -1.2257 2.6113 0
M  V30 11 H 2.102 -0.7434 -0.2523 0
M  V30 12 H -0.5863 0.6382 1.7434 0
M  V30 13 H 0.5766 1.7971 0.0621 0
M  V30 14 H 0.6545 0.9946 -1.5062 0
M  V30 15 H -1.4993 -2.9095 -2.0993 0
M  V30 16 H -1.1557 2.6586 -1.4212 0
M  V30 17 H -1.8549 1.0494 -1.6329 0
M  V30 18 H -1.909 1.8431 -0.0454 0
M  V30 END ATOM
M  V30 BEGIN BOND
M  V30 1 1 1 2
M  V30 2 2 2 3
M  V30 3 1 3 4
M  V30 4 1 4 5
M  V30 5 1 4 6
M  V30 6 1 4 7
M  V30 7 3 6 8
M  V30 8 1 7 9
M  V30 9 1 2 10
M  V30 10 1 3 11
M  V30 11 1 5 12
M  V30 12 1 7 13
M  V30 13 1 7 14
M  V30 14 1 8 15
M  V30 15 1 9 16
M  V30 16 1 9 17
M  V30 17 1 9 18
M  V30 END BOND
M  V30 BEGIN COLLECTION
M  V30 MDLV30/STERAC1 ATOMS=(1 4)
M  V30 END COLLECTION
M  V30 END CTAB
M  END
>  <NO.>
1061

>  <Name>
ethchlorvynol

>  <SMILES>
C#CC(O)(/C=C/Cl)CC

>  <logBB>


>  <Class>
1

>  <MW>
144.03

>  <nHBAcc>
1

>  <nHBDon>
1

>  <SLogP>
1.51

>  <TopoPSA>
20.23

>  <MMFF94 Energy>
-8.2713

$$$$
C#CC(OC(N)=O)c1ccccc1
Actelion Java MolfileCreator 2.0

  0  0  0  0  0  0              0 V3000
M  V30 BEGIN CTAB
M  V30 COUNTS 22 22 0 0 0
M  V30 BEGIN ATOM
M  V30 1 O -2.0373 -2.9003 -0.2349 0
M  V30 2 C -1.7446 -2.2423 0.7495 0
M  V30 3 O -0.8296 -1.2578 0.8251 0
M  V30 4 N -2.3308 -2.416 1.9553 0
M  V30 5 C -0.1298 -0.9811 -0.399 0 CFG=2
M  V30 6 C 1.1024 -1.7931 -0.4626 0
M  V30 7 C 0.1945 0.5056 -0.4219 0
M  V30 8 C 2.1006 -2.4598 -0.5147 0
M  V30 9 C 0.7794 1.142 0.6867 0
M  V30 10 C -0.0699 1.2694 -1.5708 0
M  V30 11 C 1.0815 2.5044 0.6499 0
M  V30 12 C 0.233 2.6321 -1.6049 0
M  V30 13 C 0.8072 3.2487 -0.4951 0
M  V30 14 H -3.042 -3.1238 2.0572 0
M  V30 15 H -2.0547 -1.8444 2.7381 0
M  V30 16 H -0.7674 -1.2042 -1.264 0
M  V30 17 H 2.9852 -3.0517 -0.562 0
M  V30 18 H 1.0038 0.5723 1.5863 0
M  V30 19 H -0.5139 0.807 -2.45 0
M  V30 20 H 1.5332 2.9834 1.5146 0
M  V30 21 H 0.0225 3.2126 -2.4995 0
M  V30 22 H 1.0436 4.309 -0.5238 0
M  V30 END ATOM
M  V30 BEGIN BOND
M  V30 1 2 1 2
M  V30 2 1 2 3
M  V30 3 1 2 4
M  V30 4 1 3 5
M  V30 5 1 5 6
M  V30 6 1 5 7
M  V30 7 3 6 8
M  V30 8 2 7 9
M  V30 9 1 7 10
M  V30 10 1 9 11
M  V30 11 2 10 12
M  V30 12 2 11 13
M  V30 13 1 12 13
M  V30 14 1 4 14
M  V30 15 1 4 15
M  V30 16 1 5 16
M  V30 17 1 8 17
M  V30 18 1 9 18
M  V30 19 1 10 19
M  V30 20 1 11 20
M  V30 21 1 12 21
M  V30 22 1 13 22
M  V30 END BOND
M  V30 BEGIN COLLECTION
M  V30 MDLV30/STERAC1 ATOMS=(1 5)
M  V30 END COLLECTION
M  V30 END CTAB
M  END
>  <NO.>
1062

>  <Name>
carfimate

>  <SMILES>
C#CC(OC(N)=O)c1ccccc1

>  <logBB>


>  <Class>
1

>  <MW>
175.06

>  <nHBAcc>
2

>  <nHBDon>
1

>  <SLogP>
1.46

>  <TopoPSA>
52.32

>  <MMFF94 Energy>
-48.282

$$$$
C#CC1(OCC(O)CN2CCN(c3ccc(F)cc3)CC2)CCCCC1
Actelion Java MolfileCreator 2.0

  0  0  0  0  0  0              0 V3000
M  V30 BEGIN CTAB
M  V30 COUNTS 55 57 0 0 0
M  V30 BEGIN ATOM
M  V30 1 F -9.9729 1.1131 0.795 0
M  V30 2 C -8.6583 0.9347 0.6117 0
M  V30 3 C -7.8678 0.5169 1.6704 0
M  V30 4 C -8.0999 1.1745 -0.6331 0
M  V30 5 C -6.494 0.333 1.4762 0
M  V30 6 C -6.7263 0.9862 -0.8183 0
M  V30 7 C -5.8897 0.5532 0.2264 0
M  V30 8 N -4.526 0.3817 0.0144 0
M  V30 9 C -3.5898 0.3672 1.1514 0
M  V30 10 C -4.0982 -0.4443 -1.1287 0
M  V30 11 C -2.1347 0.6358 0.6975 0
M  V30 12 C -2.6374 -0.1323 -1.5227 0
M  V30 13 N -1.6828 -0.2573 -0.3955 0
M  V30 14 C -0.3169 0.0813 -0.8591 0
M  V30 15 C 0.7943 -0.0929 0.1996 0 CFG=2
M  V30 16 O 0.8327 1.044 1.0791 0
M  V30 17 C 2.1728 -0.2076 -0.469 0
M  V30 18 O 3.1459 -0.3605 0.5742 0
M  V30 19 C 4.5284 -0.2789 0.1733 0
M  V30 20 C 4.8432 1.1146 -0.2224 0
M  V30 21 C 5.3309 -0.6481 1.4406 0
M  V30 22 C 4.8562 -1.2725 -0.9605 0
M  V30 23 C 5.0945 2.2461 -0.5394 0
M  V30 24 C 6.828 -0.8235 1.1921 0
M  V30 25 C 6.3559 -1.4497 -1.2023 0
M  V30 26 C 7.0945 -1.8263 0.0761 0
M  V30 27 H -8.3182 0.334 2.6403 0
M  V30 28 H -8.7271 1.5146 -1.4501 0
M  V30 29 H -5.9065 -0.009 2.3233 0
M  V30 30 H -6.3052 1.2173 -1.7931 0
M  V30 31 H -3.6395 -0.6063 1.6556 0
M  V30 32 H -3.8559 1.1435 1.8797 0
M  V30 33 H -4.7206 -0.2829 -2.0151 0
M  V30 34 H -4.1895 -1.5042 -0.8582 0
M  V30 35 H -1.5042 0.4965 1.5813 0
M  V30 36 H -2.05 1.6856 0.386 0
M  V30 37 H -2.596 0.8826 -1.9415 0
M  V30 38 H -2.3495 -0.8268 -2.3214 0
M  V30 39 H -0.087 -0.5885 -1.6974 0
M  V30 40 H -0.2952 1.1104 -1.2422 0
M  V30 41 H 0.6125 -0.9795 0.8186 0
M  V30 42 H 1.669 0.947 1.5764 0
M  V30 43 H 2.1956 -1.0818 -1.1269 0
M  V30 44 H 2.3805 0.6991 -1.0465 0
M  V30 45 H 5.1765 0.1064 2.2239 0
M  V30 46 H 4.9301 -1.5828 1.8577 0
M  V30 47 H 4.3886 -0.9563 -1.9017 0
M  V30 48 H 4.4154 -2.2496 -0.7208 0
M  V30 49 H 5.3137 3.2522 -0.8149 0
M  V30 50 H 7.2814 0.1415 0.9365 0
M  V30 51 H 7.3135 -1.1644 2.1138 0
M  V30 52 H 6.779 -0.5244 -1.6117 0
M  V30 53 H 6.5132 -2.2279 -1.958 0
M  V30 54 H 6.7776 -2.8255 0.3997 0
M  V30 55 H 8.1709 -1.8817 -0.1214 0
M  V30 END ATOM
M  V30 BEGIN BOND
M  V30 1 1 1 2
M  V30 2 2 2 3
M  V30 3 1 2 4
M  V30 4 1 3 5
M  V30 5 2 4 6
M  V30 6 2 5 7
M  V30 7 1 7 8
M  V30 8 1 8 9
M  V30 9 1 8 10
M  V30 10 1 9 11
M  V30 11 1 10 12
M  V30 12 1 11 13
M  V30 13 1 13 14
M  V30 14 1 14 15
M  V30 15 1 15 16
M  V30 16 1 15 17
M  V30 17 1 17 18
M  V30 18 1 18 19
M  V30 19 1 19 20
M  V30 20 1 19 21
M  V30 21 1 19 22
M  V30 22 3 20 23
M  V30 23 1 21 24
M  V30 24 1 22 25
M  V30 25 1 24 26
M  V30 26 1 6 7
M  V30 27 1 12 13
M  V30 28 1 25 26
M  V30 29 1 3 27
M  V30 30 1 4 28
M  V30 31 1 5 29
M  V30 32 1 6 30
M  V30 33 1 9 31
M  V30 34 1 9 32
M  V30 35 1 10 33
M  V30 36 1 10 34
M  V30 37 1 11 35
M  V30 38 1 11 36
M  V30 39 1 12 37
M  V30 40 1 12 38
M  V30 41 1 14 39
M  V30 42 1 14 40
M  V30 43 1 15 41
M  V30 44 1 16 42
M  V30 45 1 17 43
M  V30 46 1 17 44
M  V30 47 1 21 45
M  V30 48 1 21 46
M  V30 49 1 22 47
M  V30 50 1 22 48
M  V30 51 1 23 49
M  V30 52 1 24 50
M  V30 53 1 24 51
M  V30 54 1 25 52
M  V30 55 1 25 53
M  V30 56 1 26 54
M  V30 57 1 26 55
M  V30 END BOND
M  V30 BEGIN COLLECTION
M  V30 MDLV30/STERAC1 ATOMS=(1 15)
M  V30 END COLLECTION
M  V30 END CTAB
M  END
>  <NO.>
1063

>  <Name>
fluciprazine

>  <SMILES>
C#CC1(OCC(O)CN2CCN(c3ccc(F)cc3)CC2)CCCCC1

>  <logBB>


>  <Class>
1

>  <MW>
360.22

>  <nHBAcc>
4

>  <nHBDon>
1

>  <SLogP>
2.66

>  <TopoPSA>
35.94

>  <MMFF94 Energy>
143.13

$$$$
C#CCC1(OC(N)=O)CCCCC1
Actelion Java MolfileCreator 2.0

  0  0  0  0  0  0              0 V3000
M  V30 BEGIN CTAB
M  V30 COUNTS 28 28 0 0 0
M  V30 BEGIN ATOM
M  V30 1 O -2.1924 0.1564 1.4873 0
M  V30 2 C -1.1962 -0.4798 1.7783 0
M  V30 3 O -0.1487 -0.7893 0.9924 0
M  V30 4 N -0.9871 -0.981 3.0162 0
M  V30 5 C -0.0922 -0.4437 -0.4242 0
M  V30 6 C -0.4186 1.0368 -0.7271 0
M  V30 7 C 1.3996 -0.6835 -0.7955 0
M  V30 8 C -0.9304 -1.4496 -1.2554 0
M  V30 9 C 0.5163 2.0071 -0.0029 0
M  V30 10 C 2.3501 0.2783 -0.0783 0
M  V30 11 C -2.3855 -1.2338 -1.2268 0
M  V30 12 C 1.9773 1.7326 -0.339 0
M  V30 13 C -3.575 -1.0684 -1.2177 0
M  V30 14 H -1.6868 -0.8295 3.7263 0
M  V30 15 H -0.1452 -1.4963 3.2162 0
M  V30 16 H -0.3388 1.2103 -1.8087 0
M  V30 17 H -1.4471 1.2918 -0.4565 0
M  V30 18 H 1.5406 -0.5763 -1.8789 0
M  V30 19 H 1.6904 -1.7082 -0.5302 0
M  V30 20 H -0.7285 -2.4679 -0.8992 0
M  V30 21 H -0.6135 -1.41 -2.3056 0
M  V30 22 H 0.3674 1.9333 1.0806 0
M  V30 23 H 0.265 3.0357 -0.2865 0
M  V30 24 H 3.3767 0.0971 -0.4164 0
M  V30 25 H 2.3349 0.083 1.0007 0
M  V30 26 H 2.1581 1.9704 -1.3946 0
M  V30 27 H 2.6235 2.3923 0.2508 0
M  V30 28 H -4.628 -0.9083 -1.188 0
M  V30 END ATOM
M  V30 BEGIN BOND
M  V30 1 2 1 2
M  V30 2 1 2 3
M  V30 3 1 2 4
M  V30 4 1 3 5
M  V30 5 1 5 6
M  V30 6 1 5 7
M  V30 7 1 5 8
M  V30 8 1 6 9
M  V30 9 1 7 10
M  V30 10 1 8 11
M  V30 11 1 9 12
M  V30 12 3 11 13
M  V30 13 1 10 12
M  V30 14 1 4 14
M  V30 15 1 4 15
M  V30 16 1 6 16
M  V30 17 1 6 17
M  V30 18 1 7 18
M  V30 19 1 7 19
M  V30 20 1 8 20
M  V30 21 1 8 21
M  V30 22 1 9 22
M  V30 23 1 9 23
M  V30 24 1 10 24
M  V30 25 1 10 25
M  V30 26 1 12 26
M  V30 27 1 12 27
M  V30 28 1 13 28
M  V30 END BOND
M  V30 END CTAB
M  END
>  <NO.>
1064

>  <Name>
hexapropymate

>  <SMILES>
C#CCC1(OC(N)=O)CCCCC1

>  <logBB>


>  <Class>
1

>  <MW>
181.11

>  <nHBAcc>
2

>  <nHBDon>
1

>  <SLogP>
1.81

>  <TopoPSA>
52.32

>  <MMFF94 Energy>
-47.878

$$$$
C#CCN(C)CCCOc1ccc(Cl)cc1Cl
Actelion Java MolfileCreator 2.0

  0  0  0  0  0  0              0 V3000
M  V30 BEGIN CTAB
M  V30 COUNTS 32 32 0 0 0
M  V30 BEGIN ATOM
M  V30 1 Cl -1.1264 0.0 3.4628 0
M  V30 2 C 0.5686 -0.3294 3.3452 0
M  V30 3 C 1.2884 -0.0372 2.1728 0
M  V30 4 C 1.1997 -0.9006 4.4528 0
M  V30 5 O 0.5836 0.5257 1.1427 0
M  V30 6 C 2.6567 -0.3248 2.1336 0
M  V30 7 C 2.5601 -1.1819 4.3939 0
M  V30 8 C 1.2531 0.7229 -0.1011 0
M  V30 9 C 3.2903 -0.897 3.2423 0
M  V30 10 Cl 3.3483 -1.8853 5.7515 0
M  V30 11 C 0.2529 1.282 -1.1126 0
M  V30 12 C -0.9007 0.301 -1.3692 0
M  V30 13 N -1.7752 0.7332 -2.4802 0
M  V30 14 C -2.6953 -0.3504 -2.8734 0
M  V30 15 C -2.5586 1.9158 -2.107 0
M  V30 16 C -1.9941 -1.429 -3.5915 0
M  V30 17 C -1.4279 -2.3098 -4.1805 0
M  V30 18 H 0.6325 -1.1231 5.3524 0
M  V30 19 H 3.2626 -0.1129 1.2583 0
M  V30 20 H 1.6601 -0.2252 -0.4725 0
M  V30 21 H 2.0649 1.4488 0.0256 0
M  V30 22 H 4.3548 -1.1158 3.1994 0
M  V30 23 H -0.142 2.2269 -0.7228 0
M  V30 24 H 0.7782 1.4968 -2.0507 0
M  V30 25 H -0.4474 -0.6675 -1.6126 0
M  V30 26 H -1.4872 0.1517 -0.4532 0
M  V30 27 H -3.4586 0.0423 -3.5579 0
M  V30 28 H -3.2286 -0.7523 -2.0026 0
M  V30 29 H -3.2125 2.2214 -2.9321 0
M  V30 30 H -3.1829 1.7365 -1.2241 0
M  V30 31 H -1.9127 2.7766 -1.9087 0
M  V30 32 H -0.9219 -3.0861 -4.7059 0
M  V30 END ATOM
M  V30 BEGIN BOND
M  V30 1 1 1 2
M  V30 2 2 2 3
M  V30 3 1 2 4
M  V30 4 1 3 5
M  V30 5 1 3 6
M  V30 6 2 4 7
M  V30 7 1 5 8
M  V30 8 2 6 9
M  V30 9 1 7 10
M  V30 10 1 8 11
M  V30 11 1 11 12
M  V30 12 1 12 13
M  V30 13 1 13 14
M  V30 14 1 13 15
M  V30 15 1 14 16
M  V30 16 3 16 17
M  V30 17 1 7 9
M  V30 18 1 4 18
M  V30 19 1 6 19
M  V30 20 1 8 20
M  V30 21 1 8 21
M  V30 22 1 9 22
M  V30 23 1 11 23
M  V30 24 1 11 24
M  V30 25 1 12 25
M  V30 26 1 12 26
M  V30 27 1 14 27
M  V30 28 1 14 28
M  V30 29 1 15 29
M  V30 30 1 15 30
M  V30 31 1 15 31
M  V30 32 1 17 32
M  V30 END BOND
M  V30 END CTAB
M  END
>  <NO.>
1065

>  <Name>
clorgiline

>  <SMILES>
C#CCN(C)CCCOc1ccc(Cl)cc1Cl

>  <logBB>


>  <Class>
1

>  <MW>
271.05

>  <nHBAcc>
2

>  <nHBDon>
0

>  <SLogP>
3.33

>  <TopoPSA>
12.47

>  <MMFF94 Energy>
27.593

$$$$
C#CCN(C)Cc1ccccc1
Actelion Java MolfileCreator 2.0

  0  0  0  0  0  0              0 V3000
M  V30 BEGIN CTAB
M  V30 COUNTS 25 25 0 0 0
M  V30 BEGIN ATOM
M  V30 1 N 0.9354 -0.1558 -1.5594 0
M  V30 2 C -0.3113 0.148 -2.2859 0
M  V30 3 C 0.7098 -1.0786 -0.427 0
M  V30 4 C 1.898 -0.76 -2.4855 0
M  V30 5 C -1.1406 1.1527 -1.6042 0
M  V30 6 C 0.1147 -0.4334 0.8056 0
M  V30 7 C -1.8211 1.975 -1.0527 0
M  V30 8 C 0.7463 0.6634 1.4117 0
M  V30 9 C -1.0549 -0.945 1.3865 0
M  V30 10 C 0.2142 1.2426 2.5647 0
M  V30 11 C -1.5857 -0.3646 2.5405 0
M  V30 12 C -0.9515 0.7283 3.1287 0
M  V30 13 H -0.8914 -0.7624 -2.4819 0
M  V30 14 H -0.0666 0.5711 -3.2696 0
M  V30 15 H 0.1065 -1.9401 -0.7438 0
M  V30 16 H 1.6705 -1.4978 -0.0953 0
M  V30 17 H 2.8515 -0.9541 -1.9812 0
M  V30 18 H 1.5304 -1.7027 -2.9071 0
M  V30 19 H 2.1239 -0.0756 -3.3111 0
M  V30 20 H -2.4105 2.699 -0.54 0
M  V30 21 H 1.6516 1.0766 0.9718 0
M  V30 22 H -1.5638 -1.7957 0.9405 0
M  V30 23 H 0.7085 2.0974 3.0182 0
M  V30 24 H -2.4957 -0.7646 2.9795 0
M  V30 25 H -1.3666 1.1808 4.0252 0
M  V30 END ATOM
M  V30 BEGIN BOND
M  V30 1 1 1 2
M  V30 2 1 1 3
M  V30 3 1 1 4
M  V30 4 1 2 5
M  V30 5 1 3 6
M  V30 6 3 5 7
M  V30 7 2 6 8
M  V30 8 1 6 9
M  V30 9 1 8 10
M  V30 10 2 9 11
M  V30 11 2 10 12
M  V30 12 1 11 12
M  V30 13 1 2 13
M  V30 14 1 2 14
M  V30 15 1 3 15
M  V30 16 1 3 16
M  V30 17 1 4 17
M  V30 18 1 4 18
M  V30 19 1 4 19
M  V30 20 1 7 20
M  V30 21 1 8 21
M  V30 22 1 9 22
M  V30 23 1 10 23
M  V30 24 1 11 24
M  V30 25 1 12 25
M  V30 END BOND
M  V30 END CTAB
M  END
>  <NO.>
1066

>  <Name>
pargyline

>  <SMILES>
C#CCN(C)Cc1ccccc1

>  <logBB>


>  <Class>
1

>  <MW>
159.1

>  <nHBAcc>
1

>  <nHBDon>
0

>  <SLogP>
1.75

>  <TopoPSA>
3.24

>  <MMFF94 Energy>
23.986

$$$$
C#CCN1C(=O)CN=C(c2ccccc2)c2cc(Cl)ccc21
Actelion Java MolfileCreator 2.0

  0  0  0  0  0  0              0 V3000
M  V30 BEGIN CTAB
M  V30 COUNTS 35 37 0 0 0
M  V30 BEGIN ATOM
M  V30 1 Cl -3.7436 2.6845 -0.9755 0
M  V30 2 C -2.42 2.0589 -0.0739 0
M  V30 3 C -1.3658 1.4359 -0.7341 0
M  V30 4 C -2.4058 2.1853 1.3111 0
M  V30 5 C -0.2879 0.9175 0.0023 0
M  V30 6 C -1.3255 1.6865 2.0447 0
M  V30 7 C 0.8278 0.2761 -0.7491 0
M  V30 8 C -0.253 1.0459 1.4024 0
M  V30 9 N 2.0743 0.5586 -0.5547 0
M  V30 10 C 0.4978 -0.7392 -1.7976 0
M  V30 11 N 0.8343 0.5556 2.183 0
M  V30 12 C 2.4193 1.5003 0.5157 0
M  V30 13 C 1.308 -0.8301 -2.9356 0
M  V30 14 C -0.5843 -1.6156 -1.6443 0
M  V30 15 C 2.166 0.8272 1.8621 0
M  V30 16 C 0.5613 -0.2139 3.3966 0
M  V30 17 C 1.0204 -1.7695 -3.927 0
M  V30 18 C -0.8682 -2.5539 -2.6389 0
M  V30 19 O 3.1002 0.5619 2.6225 0
M  V30 20 C -0.36 -1.338 3.1509 0
M  V30 21 C -0.0694 -2.6271 -3.78 0
M  V30 22 C -1.1079 -2.2568 2.9513 0
M  V30 23 H -1.3791 1.3652 -1.8194 0
M  V30 24 H -3.2257 2.6789 1.8279 0
M  V30 25 H -1.332 1.8231 3.1233 0
M  V30 26 H 3.4884 1.7283 0.444 0
M  V30 27 H 1.8879 2.455 0.4358 0
M  V30 28 H 2.1654 -0.1707 -3.0521 0
M  V30 29 H -1.2022 -1.5952 -0.7506 0
M  V30 30 H 0.158 0.4654 4.1557 0
M  V30 31 H 1.4912 -0.6168 3.8127 0
M  V30 32 H 1.6513 -1.8357 -4.8097 0
M  V30 33 H -1.7069 -3.2356 -2.5199 0
M  V30 34 H -0.2889 -3.3617 -4.551 0
M  V30 35 H -1.7643 -3.0779 2.7754 0
M  V30 END ATOM
M  V30 BEGIN BOND
M  V30 1 1 1 2
M  V30 2 2 2 3
M  V30 3 1 2 4
M  V30 4 1 3 5
M  V30 5 2 4 6
M  V30 6 1 5 7
M  V30 7 2 5 8
M  V30 8 2 7 9
M  V30 9 1 7 10
M  V30 10 1 8 11
M  V30 11 1 9 12
M  V30 12 2 10 13
M  V30 13 1 10 14
M  V30 14 1 11 15
M  V30 15 1 11 16
M  V30 16 1 13 17
M  V30 17 2 14 18
M  V30 18 2 15 19
M  V30 19 1 16 20
M  V30 20 2 17 21
M  V30 21 3 20 22
M  V30 22 1 6 8
M  V30 23 1 12 15
M  V30 24 1 18 21
M  V30 25 1 3 23
M  V30 26 1 4 24
M  V30 27 1 6 25
M  V30 28 1 12 26
M  V30 29 1 12 27
M  V30 30 1 13 28
M  V30 31 1 14 29
M  V30 32 1 16 30
M  V30 33 1 16 31
M  V30 34 1 17 32
M  V30 35 1 18 33
M  V30 36 1 21 34
M  V30 37 1 22 35
M  V30 END BOND
M  V30 END CTAB
M  END
>  <NO.>
1067

>  <Name>
pinazepam

>  <SMILES>
C#CCN1C(=O)CN=C(c2ccccc2)c2cc(Cl)ccc21

>  <logBB>


>  <Class>
1

>  <MW>
308.07

>  <nHBAcc>
2

>  <nHBDon>
0

>  <SLogP>
3.16

>  <TopoPSA>
32.67

>  <MMFF94 Energy>
102.48

$$$$
C#CCN[C@@H]1CCc2ccccc21
Actelion Java MolfileCreator 2.0

  0  0  0  0  0  0              0 V3000
M  V30 BEGIN CTAB
M  V30 COUNTS 26 27 0 0 0
M  V30 BEGIN ATOM
M  V30 1 N -0.4744 -1.582 -0.2371 0
M  V30 2 C 0.727 -0.7734 -0.4553 0 CFG=1
M  V30 3 C -1.4671 -1.4097 -1.2916 0
M  V30 4 C 0.5279 0.6986 -0.1977 0
M  V30 5 C 1.764 -1.0881 0.6504 0
M  V30 6 C -2.5262 -2.4175 -1.1342 0
M  V30 7 C 0.9308 1.0417 1.101 0
M  V30 8 C 0.0318 1.6658 -1.0596 0
M  V30 9 C 1.4403 -0.161 1.8312 0
M  V30 10 C -3.3912 -3.241 -1.0054 0
M  V30 11 C 0.8154 2.3387 1.572 0
M  V30 12 C -0.0767 2.9798 -0.5977 0
M  V30 13 C 0.3086 3.3128 0.71 0
M  V30 14 H -0.2079 -2.5644 -0.2097 0
M  V30 15 H 1.1732 -0.9629 -1.4383 0
M  V30 16 H -1.0097 -1.5272 -2.2809 0
M  V30 17 H -1.9201 -0.4146 -1.2401 0
M  V30 18 H 2.7688 -0.8485 0.2722 0
M  V30 19 H 1.787 -2.1427 0.9463 0
M  V30 20 H -0.2706 1.4142 -2.0704 0
M  V30 21 H 2.334 0.0555 2.4228 0
M  V30 22 H 0.6565 -0.58 2.4703 0
M  V30 23 H -4.1601 -3.9682 -0.8826 0
M  V30 24 H 1.1127 2.5961 2.5833 0
M  V30 25 H -0.4681 3.7526 -1.2546 0
M  V30 26 H 0.2104 4.3393 1.0546 0
M  V30 END ATOM
M  V30 BEGIN BOND
M  V30 1 1 1 2
M  V30 2 1 1 3
M  V30 3 1 2 4
M  V30 4 1 2 5
M  V30 5 1 3 6
M  V30 6 2 4 7
M  V30 7 1 4 8
M  V30 8 1 5 9
M  V30 9 3 6 10
M  V30 10 1 7 11
M  V30 11 2 8 12
M  V30 12 2 11 13
M  V30 13 1 7 9
M  V30 14 1 12 13
M  V30 15 1 1 14
M  V30 16 1 2 15
M  V30 17 1 3 16
M  V30 18 1 3 17
M  V30 19 1 5 18
M  V30 20 1 5 19
M  V30 21 1 8 20
M  V30 22 1 9 21
M  V30 23 1 9 22
M  V30 24 1 10 23
M  V30 25 1 11 24
M  V30 26 1 12 25
M  V30 27 1 13 26
M  V30 END BOND
M  V30 BEGIN COLLECTION
M  V30 MDLV30/STEABS ATOMS=(1 2)
M  V30 END COLLECTION
M  V30 END CTAB
M  END
>  <NO.>
1068

>  <Name>
rasagiline

>  <SMILES>
C#CCN[C@@H]1CCc2ccccc21

>  <logBB>


>  <Class>
1

>  <MW>
171.1

>  <nHBAcc>
1

>  <nHBDon>
1

>  <SLogP>
1.9

>  <TopoPSA>
12.03

>  <MMFF94 Energy>
13.84

$$$$
C#C[C@]1(O)CC[C@H]2[C@@H]3CCC4=CC(=O)CC[C@@H]4[C@H]3CC[C@@]21C
Actelion Java MolfileCreator 2.0

  0  0  0  0  0  0              0 V3000
M  V30 BEGIN CTAB
M  V30 COUNTS 48 51 0 0 0
M  V30 BEGIN ATOM
M  V30 1 O 1.6119 -2.9835 4.8416 0
M  V30 2 C 1.6374 -2.3525 3.7881 0
M  V30 3 C 1.3919 -3.0591 2.5072 0
M  V30 4 C 1.8142 -0.8529 3.7473 0
M  V30 5 C 1.4605 -2.4029 1.3373 0
M  V30 6 C 2.5608 -0.4464 2.4876 0
M  V30 7 C 1.8815 -0.9492 1.2034 0 CFG=2
M  V30 8 C 1.0162 -3.0348 0.0456 0
M  V30 9 C 0.6393 -0.1511 0.7243 0 CFG=2
M  V30 10 C -0.1652 -2.2443 -0.524 0
M  V30 11 C 0.1509 -0.7397 -0.6438 0 CFG=1
M  V30 12 C 0.8823 1.3733 0.6407 0
M  V30 13 C -1.0597 0.0654 -1.1234 0 CFG=1
M  V30 14 C -0.3032 2.1474 0.0343 0
M  V30 15 C -0.7424 1.5648 -1.3217 0 CFG=2
M  V30 16 C -1.7319 -0.335 -2.4341 0
M  V30 17 C -2.0985 2.064 -1.9082 0 CFG=2
M  V30 18 C 0.3929 1.8307 -2.3545 0
M  V30 19 C -2.4929 0.928 -2.8875 0
M  V30 20 O -1.9528 3.2821 -2.6241 0
M  V30 21 C -3.1607 2.2561 -0.8967 0
M  V30 22 C -4.0315 2.4214 -0.0855 0
M  V30 23 H 1.0814 -4.0942 2.5903 0
M  V30 24 H 2.3932 -0.5475 4.6256 0
M  V30 25 H 0.8281 -0.3802 3.8008 0
M  V30 26 H 2.7141 0.6363 2.4698 0
M  V30 27 H 3.5683 -0.8847 2.5319 0
M  V30 28 H 2.6454 -0.886 0.415 0
M  V30 29 H 0.7184 -4.0801 0.1884 0
M  V30 30 H 1.8501 -3.0356 -0.6663 0
M  V30 31 H -0.169 -0.2981 1.457 0
M  V30 32 H -1.0437 -2.3868 0.1191 0
M  V30 33 H -0.4225 -2.6545 -1.5074 0
M  V30 34 H 0.9635 -0.6483 -1.3752 0
M  V30 35 H 1.7959 1.5746 0.0703 0
M  V30 36 H 1.0528 1.776 1.6457 0
M  V30 37 H -1.8272 -0.0344 -0.3393 0
M  V30 38 H -1.1245 2.1053 0.7593 0
M  V30 39 H -0.0372 3.2062 -0.0694 0
M  V30 40 H -2.4145 -1.1801 -2.2975 0
M  V30 41 H -0.995 -0.6253 -3.1914 0
M  V30 42 H 1.3401 1.3607 -2.079 0
M  V30 43 H 0.1428 1.4681 -3.3563 0
M  V30 44 H 0.59 2.9058 -2.4407 0
M  V30 45 H -3.5735 0.7406 -2.8921 0
M  V30 46 H -2.2171 1.1743 -3.9201 0
M  V30 47 H -1.8194 3.9823 -1.9629 0
M  V30 48 H -4.8087 2.5679 0.629 0
M  V30 END ATOM
M  V30 BEGIN BOND
M  V30 1 2 1 2
M  V30 2 1 2 3
M  V30 3 1 2 4
M  V30 4 2 3 5
M  V30 5 1 4 6
M  V30 6 1 5 7
M  V30 7 1 5 8
M  V30 8 1 7 9
M  V30 9 1 8 10
M  V30 10 1 9 11
M  V30 11 1 9 12
M  V30 12 1 11 13
M  V30 13 1 12 14
M  V30 14 1 13 15
M  V30 15 1 13 16
M  V30 16 1 15 17
M  V30 17 1 15 18
M  V30 18 1 16 19
M  V30 19 1 17 20
M  V30 20 1 17 21
M  V30 21 3 21 22
M  V30 22 1 6 7
M  V30 23 1 10 11
M  V30 24 1 14 15
M  V30 25 1 17 19
M  V30 26 1 3 23
M  V30 27 1 4 24
M  V30 28 1 4 25
M  V30 29 1 6 26
M  V30 30 1 6 27
M  V30 31 1 7 28
M  V30 32 1 8 29
M  V30 33 1 8 30
M  V30 34 1 9 31
M  V30 35 1 10 32
M  V30 36 1 10 33
M  V30 37 1 11 34
M  V30 38 1 12 35
M  V30 39 1 12 36
M  V30 40 1 13 37
M  V30 41 1 14 38
M  V30 42 1 14 39
M  V30 43 1 16 40
M  V30 44 1 16 41
M  V30 45 1 18 42
M  V30 46 1 18 43
M  V30 47 1 18 44
M  V30 48 1 19 45
M  V30 49 1 19 46
M  V30 50 1 20 47
M  V30 51 1 22 48
M  V30 END BOND
M  V30 BEGIN COLLECTION
M  V30 MDLV30/STEABS ATOMS=(6 7 9 11 13 15 17)
M  V30 END COLLECTION
M  V30 END CTAB
M  END
>  <NO.>
1070

>  <Name>
norethindrone

>  <SMILES>
C#C[C@]1(O)CC[C@H]2[C@@H]3CCC4=CC(=O)CC[C@@H]4[C@H]3CC[C@@]21C

>  <logBB>


>  <Class>
-1

>  <MW>
298.19

>  <nHBAcc>
2

>  <nHBDon>
1

>  <SLogP>
3.49

>  <TopoPSA>
37.3

>  <MMFF94 Energy>
64.462

$$$$
C#C[C@]1(O)CC[C@H]2[C@@H]3CCc4cc(O)ccc4[C@H]3CC[C@@]21C
Actelion Java MolfileCreator 2.0

  0  0  0  0  0  0              0 V3000
M  V30 BEGIN CTAB
M  V30 COUNTS 46 49 0 0 0
M  V30 BEGIN ATOM
M  V30 1 O -0.0803 -1.5268 6.36 0
M  V30 2 C 0.0596 -1.1361 5.0618 0
M  V30 3 C -0.9984 -0.5851 4.3502 0
M  V30 4 C 1.2982 -1.2996 4.4657 0
M  V30 5 C -0.8213 -0.1867 3.0123 0
M  V30 6 C 1.4828 -0.9158 3.1359 0
M  V30 7 C 0.4274 -0.3758 2.3786 0
M  V30 8 C -2.0146 0.3878 2.2865 0
M  V30 9 C 0.6447 0.0849 0.9386 0 CFG=2
M  V30 10 C -1.6708 1.0617 0.9619 0
M  V30 11 C -0.7051 0.1808 0.166 0 CFG=1
M  V30 12 C 1.6912 -0.7344 0.1384 0
M  V30 13 C -0.4364 0.7278 -1.2379 0 CFG=1
M  V30 14 C 1.8545 -0.2618 -1.3196 0
M  V30 15 C 0.5064 -0.1811 -2.0579 0 CFG=2
M  V30 16 C -1.6201 0.9529 -2.1756 0
M  V30 17 C 0.4847 0.5565 -3.4314 0 CFG=2
M  V30 18 C -0.03 -1.6317 -2.2452 0
M  V30 19 C -1.0071 0.9477 -3.5913 0
M  V30 20 O 0.8722 -0.2942 -4.5004 0
M  V30 21 C 1.3363 1.7649 -3.4818 0
M  V30 22 C 2.028 2.7457 -3.5387 0
M  V30 23 H -0.9945 -1.3531 6.6368 0
M  V30 24 H -1.9687 -0.4558 4.8214 0
M  V30 25 H 2.1232 -1.7208 5.0326 0
M  V30 26 H 2.474 -1.043 2.7112 0
M  V30 27 H -2.7193 -0.4321 2.0979 0
M  V30 28 H -2.5234 1.1172 2.9284 0
M  V30 29 H 1.0511 1.1046 1.0254 0
M  V30 30 H -2.5979 1.2396 0.4058 0
M  V30 31 H -1.2175 2.0439 1.1487 0
M  V30 32 H -1.158 -0.8158 0.0908 0
M  V30 33 H 1.4313 -1.7992 0.1645 0
M  V30 34 H 2.6769 -0.6526 0.6109 0
M  V30 35 H 0.0422 1.7109 -1.1033 0
M  V30 36 H 2.544 -0.9308 -1.8483 0
M  V30 37 H 2.3402 0.7204 -1.2899 0
M  V30 38 H -2.1261 1.9017 -1.9686 0
M  V30 39 H -2.3649 0.1547 -2.0819 0
M  V30 40 H 0.6835 -2.2341 -2.8194 0
M  V30 41 H -0.9826 -1.6611 -2.7832 0
M  V30 42 H -0.1887 -2.1544 -1.2988 0
M  V30 43 H -1.1305 1.9298 -4.0637 0
M  V30 44 H -1.5447 0.2306 -4.2234 0
M  V30 45 H 1.8303 -0.4348 -4.4139 0
M  V30 46 H 2.6385 3.6175 -3.5945 0
M  V30 END ATOM
M  V30 BEGIN BOND
M  V30 1 1 1 2
M  V30 2 2 2 3
M  V30 3 1 2 4
M  V30 4 1 3 5
M  V30 5 2 4 6
M  V30 6 2 5 7
M  V30 7 1 5 8
M  V30 8 1 7 9
M  V30 9 1 8 10
M  V30 10 1 9 11
M  V30 11 1 9 12
M  V30 12 1 11 13
M  V30 13 1 12 14
M  V30 14 1 13 15
M  V30 15 1 13 16
M  V30 16 1 15 17
M  V30 17 1 15 18
M  V30 18 1 16 19
M  V30 19 1 17 20
M  V30 20 1 17 21
M  V30 21 3 21 22
M  V30 22 1 6 7
M  V30 23 1 10 11
M  V30 24 1 14 15
M  V30 25 1 17 19
M  V30 26 1 1 23
M  V30 27 1 3 24
M  V30 28 1 4 25
M  V30 29 1 6 26
M  V30 30 1 8 27
M  V30 31 1 8 28
M  V30 32 1 9 29
M  V30 33 1 10 30
M  V30 34 1 10 31
M  V30 35 1 11 32
M  V30 36 1 12 33
M  V30 37 1 12 34
M  V30 38 1 13 35
M  V30 39 1 14 36
M  V30 40 1 14 37
M  V30 41 1 16 38
M  V30 42 1 16 39
M  V30 43 1 18 40
M  V30 44 1 18 41
M  V30 45 1 18 42
M  V30 46 1 19 43
M  V30 47 1 19 44
M  V30 48 1 20 45
M  V30 49 1 22 46
M  V30 END BOND
M  V30 BEGIN COLLECTION
M  V30 MDLV30/STEABS ATOMS=(5 9 11 13 15 17)
M  V30 END COLLECTION
M  V30 END CTAB
M  END
>  <NO.>
1071

>  <Name>
ethinyl estradiol

>  <SMILES>
C#C[C@]1(O)CC[C@H]2[C@@H]3CCc4cc(O)ccc4[C@H]3CC[C@@]21C

>  <logBB>


>  <Class>
-1

>  <MW>
296.18

>  <nHBAcc>
2

>  <nHBDon>
2

>  <SLogP>
3.61

>  <TopoPSA>
40.46

>  <MMFF94 Energy>
61.201

$$$$
C#C[C@]1(O)CC[C@H]2[C@@H]3CCc4cc(OC)ccc4[C@H]3CC[C@@]21C
Actelion Java MolfileCreator 2.0

  0  0  0  0  0  0              0 V3000
M  V30 BEGIN CTAB
M  V30 COUNTS 49 52 0 0 0
M  V30 BEGIN ATOM
M  V30 1 O 1.7654 4.0157 -4.257 0
M  V30 2 C 1.2649 3.1444 -3.33 0
M  V30 3 C 2.4617 5.1517 -3.7612 0
M  V30 4 C 1.3624 3.2673 -1.9459 0
M  V30 5 C 0.5969 2.0454 -3.8611 0
M  V30 6 C 0.7977 2.2995 -1.089 0
M  V30 7 C 0.0403 1.0739 -3.0245 0
M  V30 8 C 0.1488 1.1685 -1.6281 0
M  V30 9 C 0.965 2.4987 0.3992 0
M  V30 10 C -0.4975 0.132 -0.712 0 CFG=2
M  V30 11 C 0.0862 1.5879 1.2512 0
M  V30 12 C 0.1408 0.1577 0.7091 0 CFG=1
M  V30 13 C -0.5403 -1.3107 -1.2812 0
M  V30 14 C -0.6013 -0.8365 1.6055 0 CFG=1
M  V30 15 C -1.1665 -2.3331 -0.3121 0
M  V30 16 C -0.5134 -2.2875 1.081 0 CFG=2
M  V30 17 C -0.1814 -0.9595 3.0683 0
M  V30 18 C -1.2343 -3.0484 2.2355 0 CFG=2
M  V30 19 C 0.9456 -2.8173 0.9487 0
M  V30 20 C -0.6853 -2.3502 3.5068 0
M  V30 21 O -0.8917 -4.4265 2.2621 0
M  V30 22 C -2.7097 -2.9486 2.1965 0
M  V30 23 C -3.9092 -2.8804 2.1741 0
M  V30 24 H 1.8025 5.7883 -3.1615 0
M  V30 25 H 2.7985 5.7389 -4.621 0
M  V30 26 H 3.3494 4.8543 -3.1932 0
M  V30 27 H 1.874 4.1129 -1.4962 0
M  V30 28 H 0.5033 1.9427 -4.9394 0
M  V30 29 H -0.4849 0.2483 -3.4955 0
M  V30 30 H 0.7455 3.541 0.6611 0
M  V30 31 H 2.018 2.3121 0.6462 0
M  V30 32 H -1.5453 0.4557 -0.6116 0
M  V30 33 H -0.9487 1.9537 1.2443 0
M  V30 34 H 0.4332 1.6336 2.2896 0
M  V30 35 H 1.1987 -0.1268 0.643 0
M  V30 36 H -1.1374 -1.3369 -2.2002 0
M  V30 37 H 0.4688 -1.6294 -1.5677 0
M  V30 38 H -1.6572 -0.5221 1.6126 0
M  V30 39 H -1.0914 -3.3399 -0.7402 0
M  V30 40 H -2.2369 -2.105 -0.2467 0
M  V30 41 H 0.9067 -0.8974 3.181 0
M  V30 42 H -0.6221 -0.1684 3.6841 0
M  V30 43 H 1.5561 -2.2226 0.2648 0
M  V30 44 H 0.9484 -3.8423 0.5597 0
M  V30 45 H 1.4746 -2.8351 1.9067 0
M  V30 46 H -1.4487 -2.2503 4.288 0
M  V30 47 H 0.1404 -2.9185 3.952 0
M  V30 48 H -1.3343 -4.8403 1.5019 0
M  V30 49 H -4.9733 -2.8219 2.1604 0
M  V30 END ATOM
M  V30 BEGIN BOND
M  V30 1 1 1 2
M  V30 2 1 1 3
M  V30 3 2 2 4
M  V30 4 1 2 5
M  V30 5 1 4 6
M  V30 6 2 5 7
M  V30 7 2 6 8
M  V30 8 1 6 9
M  V30 9 1 8 10
M  V30 10 1 9 11
M  V30 11 1 10 12
M  V30 12 1 10 13
M  V30 13 1 12 14
M  V30 14 1 13 15
M  V30 15 1 14 16
M  V30 16 1 14 17
M  V30 17 1 16 18
M  V30 18 1 16 19
M  V30 19 1 17 20
M  V30 20 1 18 21
M  V30 21 1 18 22
M  V30 22 3 22 23
M  V30 23 1 7 8
M  V30 24 1 11 12
M  V30 25 1 15 16
M  V30 26 1 18 20
M  V30 27 1 3 24
M  V30 28 1 3 25
M  V30 29 1 3 26
M  V30 30 1 4 27
M  V30 31 1 5 28
M  V30 32 1 7 29
M  V30 33 1 9 30
M  V30 34 1 9 31
M  V30 35 1 10 32
M  V30 36 1 11 33
M  V30 37 1 11 34
M  V30 38 1 12 35
M  V30 39 1 13 36
M  V30 40 1 13 37
M  V30 41 1 14 38
M  V30 42 1 15 39
M  V30 43 1 15 40
M  V30 44 1 17 41
M  V30 45 1 17 42
M  V30 46 1 19 43
M  V30 47 1 19 44
M  V30 48 1 19 45
M  V30 49 1 20 46
M  V30 50 1 20 47
M  V30 51 1 21 48
M  V30 52 1 23 49
M  V30 END BOND
M  V30 BEGIN COLLECTION
M  V30 MDLV30/STEABS ATOMS=(5 10 12 14 16 18)
M  V30 END COLLECTION
M  V30 END CTAB
M  END
>  <NO.>
1072

>  <Name>
mestranol

>  <SMILES>
C#C[C@]1(O)CC[C@H]2[C@@H]3CCc4cc(OC)ccc4[C@H]3CC[C@@]21C

>  <logBB>


>  <Class>
-1

>  <MW>
310.19

>  <nHBAcc>
2

>  <nHBDon>
1

>  <SLogP>
3.92

>  <TopoPSA>
29.46

>  <MMFF94 Energy>
75.954

$$$$
C/C(=C(/CCO)SSCC1CCCO1)N(C=O)Cc1cnc(C)nc1N
Actelion Java MolfileCreator 2.0

  0  0  0  0  0  0              0 V3000
M  V30 BEGIN CTAB
M  V30 COUNTS 52 53 0 0 0
M  V30 BEGIN ATOM
M  V30 1 S -3.2201 0.1608 -0.3216 0
M  V30 2 S -3.1482 -1.2039 1.2226 0
M  V30 3 C -2.1306 1.3928 0.3226 0
M  V30 4 C -1.7331 -2.2886 0.8062 0
M  V30 5 C -0.8133 1.4329 -0.0361 0
M  V30 6 C -2.8499 2.5271 1.0688 0
M  V30 7 C -1.9574 -3.1402 -0.4513 0 CFG=2
M  V30 8 N 0.1006 2.3538 0.5202 0
M  V30 9 C -0.2058 0.5035 -1.0762 0
M  V30 10 C -3.3594 2.1804 2.4707 0
M  V30 11 O -2.9215 -4.1752 -0.1679 0
M  V30 12 C -0.6844 -3.8629 -0.8816 0
M  V30 13 C 0.1344 2.6346 1.8843 0
M  V30 14 C 1.0849 3.0534 -0.3273 0
M  V30 15 O -4.7106 1.7424 2.4059 0
M  V30 16 C -2.2738 -5.4521 -0.225 0
M  V30 17 C -0.788 -5.1849 -0.1641 0
M  V30 18 O 0.8592 3.4537 2.4354 0
M  V30 19 C 2.3718 2.3169 -0.5688 0
M  V30 20 C 2.9591 2.1898 -1.8159 0
M  V30 21 C 3.1092 1.7843 0.473 0
M  V30 22 N 4.1391 1.5802 -2.0065 0
M  V30 23 N 2.4135 2.73 -2.9627 0
M  V30 24 N 4.2828 1.1427 0.3231 0
M  V30 25 C 4.7536 1.0641 -0.9287 0
M  V30 26 C 6.0803 0.4043 -1.1342 0
M  V30 27 H -1.59 -2.9393 1.6758 0
M  V30 28 H -0.8383 -1.6668 0.7159 0
M  V30 29 H -2.192 3.3991 1.1474 0
M  V30 30 H -3.6893 2.8722 0.449 0
M  V30 31 H -2.3304 -2.5323 -1.2815 0
M  V30 32 H -0.8586 -0.3056 -1.4063 0
M  V30 33 H 0.0618 1.0605 -1.9785 0
M  V30 34 H 0.6892 0.0185 -0.6726 0
M  V30 35 H -2.7516 1.4109 2.9559 0
M  V30 36 H -3.3433 3.076 3.1003 0
M  V30 37 H -0.7141 -4.0382 -1.9643 0
M  V30 38 H 0.2357 -3.3153 -0.6596 0
M  V30 39 H -0.5481 2.0034 2.4725 0
M  V30 40 H 0.5719 3.3064 -1.2617 0
M  V30 41 H 1.3373 4.0173 0.1332 0
M  V30 42 H -4.9191 1.3109 3.2521 0
M  V30 43 H -2.5532 -5.9275 -1.1713 0
M  V30 44 H -2.6233 -6.0807 0.5984 0
M  V30 45 H -0.1928 -5.9798 -0.6206 0
M  V30 46 H -0.4674 -5.0711 0.8777 0
M  V30 47 H 2.7801 1.8658 1.5053 0
M  V30 48 H 1.4233 2.6527 -3.132 0
M  V30 49 H 3.0139 2.5878 -3.7679 0
M  V30 50 H 6.1329 -0.0537 -2.1265 0
M  V30 51 H 6.8786 1.1466 -1.0452 0
M  V30 52 H 6.2411 -0.3786 -0.3869 0
M  V30 END ATOM
M  V30 BEGIN BOND
M  V30 1 1 1 2
M  V30 2 1 1 3
M  V30 3 1 2 4
M  V30 4 2 3 5
M  V30 5 1 3 6
M  V30 6 1 4 7
M  V30 7 1 5 8
M  V30 8 1 5 9
M  V30 9 1 6 10
M  V30 10 1 7 11
M  V30 11 1 7 12
M  V30 12 1 8 13
M  V30 13 1 8 14
M  V30 14 1 10 15
M  V30 15 1 11 16
M  V30 16 1 12 17
M  V30 17 2 13 18
M  V30 18 1 14 19
M  V30 19 2 19 20
M  V30 20 1 19 21
M  V30 21 1 20 22
M  V30 22 1 20 23
M  V30 23 2 21 24
M  V30 24 2 22 25
M  V30 25 1 25 26
M  V30 26 1 16 17
M  V30 27 1 24 25
M  V30 28 1 4 27
M  V30 29 1 4 28
M  V30 30 1 6 29
M  V30 31 1 6 30
M  V30 32 1 7 31
M  V30 33 1 9 32
M  V30 34 1 9 33
M  V30 35 1 9 34
M  V30 36 1 10 35
M  V30 37 1 10 36
M  V30 38 1 12 37
M  V30 39 1 12 38
M  V30 40 1 13 39
M  V30 41 1 14 40
M  V30 42 1 14 41
M  V30 43 1 15 42
M  V30 44 1 16 43
M  V30 45 1 16 44
M  V30 46 1 17 45
M  V30 47 1 17 46
M  V30 48 1 21 47
M  V30 49 1 23 48
M  V30 50 1 23 49
M  V30 51 1 26 50
M  V30 52 1 26 51
M  V30 53 1 26 52
M  V30 END BOND
M  V30 BEGIN COLLECTION
M  V30 MDLV30/STERAC1 ATOMS=(1 7)
M  V30 END COLLECTION
M  V30 END CTAB
M  END
>  <NO.>
1073

>  <Name>
fursultiamine

>  <SMILES>
C/C(=C(/CCO)SSCC1CCCO1)N(C=O)Cc1cnc(C)nc1N

>  <logBB>


>  <Class>
1

>  <MW>
398.14

>  <nHBAcc>
8

>  <nHBDon>
2

>  <SLogP>
2.5

>  <TopoPSA>
101.57

>  <MMFF94 Energy>
-4.8878

$$$$
C/C(=C(\CCOC(=O)c1ccccc1)SC(=O)c1ccccc1)N(C=O)Cc1cnc(C)nc1N
Actelion Java MolfileCreator 2.0

  0  0  0  0  0  0              0 V3000
M  V30 BEGIN CTAB
M  V30 COUNTS 61 63 0 0 0
M  V30 BEGIN ATOM
M  V30 1 S 2.0835 1.6825 0.5606 0
M  V30 2 C 1.225 2.4304 -0.7825 0
M  V30 3 C 1.1574 0.2 0.814 0
M  V30 4 O 0.7178 1.7551 -1.672 0
M  V30 5 C 1.1286 3.9205 -0.816 0
M  V30 6 C -0.1916 0.1743 1.0069 0
M  V30 7 C 2.0172 -1.0508 0.7327 0
M  V30 8 C 1.4334 4.7434 0.2784 0
M  V30 9 C 0.6748 4.5148 -2.0048 0
M  V30 10 N -0.9818 1.3282 1.1866 0
M  V30 11 C -0.9754 -1.1276 0.9987 0
M  V30 12 C 2.1616 -1.5845 -0.6926 0
M  V30 13 C 1.2944 6.1311 0.1786 0
M  V30 14 C 0.5387 5.9014 -2.101 0
M  V30 15 C -0.6802 2.3111 2.1322 0
M  V30 16 C -2.1908 1.5135 0.3717 0
M  V30 17 O 2.9353 -2.7943 -0.6334 0
M  V30 18 C 0.8491 6.7082 -1.0089 0
M  V30 19 O 0.1794 2.2774 3.0029 0
M  V30 20 C -3.4977 1.113 0.9961 0
M  V30 21 C 3.0972 -3.4151 -1.8281 0
M  V30 22 C -4.6713 1.0961 0.2589 0
M  V30 23 C -3.647 0.755 2.3225 0
M  V30 24 O 2.6425 -3.0376 -2.8961 0
M  V30 25 C 3.9154 -4.6485 -1.6718 0
M  V30 26 N -5.8525 0.7231 0.7729 0
M  V30 27 N -4.7048 1.4044 -1.0861 0
M  V30 28 N -4.8162 0.3956 2.8841 0
M  V30 29 C 4.1641 -5.4256 -2.8116 0
M  V30 30 C 4.4397 -5.0531 -0.4361 0
M  V30 31 C -5.8852 0.3951 2.0752 0
M  V30 32 C 4.926 -6.5918 -2.7171 0
M  V30 33 C 5.2017 -6.2207 -0.3458 0
M  V30 34 C -7.1945 -0.0452 2.6496 0
M  V30 35 C 5.4436 -6.988 -1.4848 0
M  V30 36 H 3.0177 -0.8567 1.1448 0
M  V30 37 H 1.6351 -1.8395 1.3922 0
M  V30 38 H 1.7737 4.3341 1.227 0
M  V30 39 H 0.4303 3.8988 -2.8689 0
M  V30 40 H -0.3648 -2.0174 0.8366 0
M  V30 41 H -1.7256 -1.1365 0.2023 0
M  V30 42 H -1.4812 -1.2641 1.9601 0
M  V30 43 H 1.1772 -1.8028 -1.1231 0
M  V30 44 H 2.682 -0.8567 -1.3262 0
M  V30 45 H 1.5358 6.7619 1.0316 0
M  V30 46 H 0.1936 6.3505 -3.0293 0
M  V30 47 H -1.3558 3.1804 2.0542 0
M  V30 48 H -2.2557 2.5832 0.1304 0
M  V30 49 H -2.0441 0.9871 -0.5796 0
M  V30 50 H 0.746 7.7884 -1.0833 0
M  V30 51 H -2.8078 0.7278 3.0124 0
M  V30 52 H -4.1626 2.1762 -1.4414 0
M  V30 53 H -5.6325 1.2899 -1.4805 0
M  V30 54 H 3.7647 -5.1244 -3.7784 0
M  V30 55 H 4.2648 -4.4698 0.4643 0
M  V30 56 H 5.1151 -7.1897 -3.6052 0
M  V30 57 H 5.6071 -6.5312 0.6141 0
M  V30 58 H -8.0256 0.4497 2.1379 0
M  V30 59 H -7.3025 -1.1273 2.5331 0
M  V30 60 H -7.2515 0.2028 3.7139 0
M  V30 61 H 6.0371 -7.8962 -1.412 0
M  V30 END ATOM
M  V30 BEGIN BOND
M  V30 1 1 1 2
M  V30 2 1 1 3
M  V30 3 2 2 4
M  V30 4 1 2 5
M  V30 5 2 3 6
M  V30 6 1 3 7
M  V30 7 2 5 8
M  V30 8 1 5 9
M  V30 9 1 6 10
M  V30 10 1 6 11
M  V30 11 1 7 12
M  V30 12 1 8 13
M  V30 13 2 9 14
M  V30 14 1 10 15
M  V30 15 1 10 16
M  V30 16 1 12 17
M  V30 17 2 13 18
M  V30 18 2 15 19
M  V30 19 1 16 20
M  V30 20 1 17 21
M  V30 21 2 20 22
M  V30 22 1 20 23
M  V30 23 2 21 24
M  V30 24 1 21 25
M  V30 25 1 22 26
M  V30 26 1 22 27
M  V30 27 2 23 28
M  V30 28 2 25 29
M  V30 29 1 25 30
M  V30 30 2 26 31
M  V30 31 1 29 32
M  V30 32 2 30 33
M  V30 33 1 31 34
M  V30 34 2 32 35
M  V30 35 1 14 18
M  V30 36 1 28 31
M  V30 37 1 33 35
M  V30 38 1 7 36
M  V30 39 1 7 37
M  V30 40 1 8 38
M  V30 41 1 9 39
M  V30 42 1 11 40
M  V30 43 1 11 41
M  V30 44 1 11 42
M  V30 45 1 12 43
M  V30 46 1 12 44
M  V30 47 1 13 45
M  V30 48 1 14 46
M  V30 49 1 15 47
M  V30 50 1 16 48
M  V30 51 1 16 49
M  V30 52 1 18 50
M  V30 53 1 23 51
M  V30 54 1 27 52
M  V30 55 1 27 53
M  V30 56 1 29 54
M  V30 57 1 30 55
M  V30 58 1 32 56
M  V30 59 1 33 57
M  V30 60 1 34 58
M  V30 61 1 34 59
M  V30 62 1 34 60
M  V30 63 1 35 61
M  V30 END BOND
M  V30 END CTAB
M  END
>  <NO.>
1075

>  <Name>
bentiamine

>  <SMILES>
C/C(=C(\CCOC(=O)c1ccccc1)SC(=O)c1ccccc1)N(C=O)Cc1cnc(C)nc1N

>  <logBB>


>  <Class>
1

>  <MW>
490.17

>  <nHBAcc>
8

>  <nHBDon>
1

>  <SLogP>
4.38

>  <TopoPSA>
115.48

>  <MMFF94 Energy>
50.607

$$$$
C/C(=C(\CCOP(=O)(O)O)SC(=O)c1ccccc1)N(C=O)Cc1cnc(C)nc1N
Actelion Java MolfileCreator 2.0

  0  0  0  0  0  0              0 V3000
M  V30 BEGIN CTAB
M  V30 COUNTS 54 55 0 0 0
M  V30 BEGIN ATOM
M  V30 1 S 1.2109 0.4035 -1.6149 0
M  V30 2 C 0.326 0.7764 -3.1005 0
M  V30 3 C 0.252 -0.9316 -0.9828 0
M  V30 4 O -0.249 -0.1061 -3.7277 0
M  V30 5 C 0.2829 2.1967 -3.562 0
M  V30 6 C -1.0498 -0.7973 -0.616 0
M  V30 7 C 0.9662 -2.2735 -1.0366 0
M  V30 8 C 1.049 3.226 -2.9949 0
M  V30 9 C -0.5818 2.5047 -4.6246 0
M  V30 10 N -1.7331 0.4275 -0.5147 0
M  V30 11 C -1.8915 -2.0057 -0.241 0
M  V30 12 C 1.7642 -2.5477 0.2365 0
M  V30 13 C 0.944 4.5339 -3.4788 0
M  V30 14 C -0.6844 3.812 -5.1049 0
M  V30 15 C -3.0092 0.5716 -1.0569 0
M  V30 16 C -1.2585 1.4979 0.3795 0
M  V30 17 O 2.3653 -3.8283 0.1308 0
M  V30 18 C 0.078 4.8257 -4.5305 0
M  V30 19 O -3.7676 1.5161 -0.8733 0
M  V30 20 C -1.25 1.0831 1.8209 0
M  V30 21 P 3.2888 -4.3327 1.3332 0
M  V30 22 C -0.1072 0.8099 2.5476 0
M  V30 23 C -2.4383 0.9391 2.5132 0
M  V30 24 O 3.9512 -5.6531 1.1501 0
M  V30 25 O 2.3519 -4.3005 2.6237 0
M  V30 26 O 4.3246 -3.1548 1.6223 0
M  V30 27 N -0.1426 0.4535 3.8403 0
M  V30 28 N 1.1618 0.9469 2.0249 0
M  V30 29 N -2.5191 0.5638 3.8018 0
M  V30 30 C -1.3508 0.3317 4.4189 0
M  V30 31 C -1.3913 -0.0425 5.8668 0
M  V30 32 H 0.2666 -3.0983 -1.2169 0
M  V30 33 H 1.6389 -2.3219 -1.9039 0
M  V30 34 H 1.7426 3.0441 -2.1792 0
M  V30 35 H -1.1877 1.7258 -5.0853 0
M  V30 36 H -1.311 -2.7675 0.2874 0
M  V30 37 H -2.3351 -2.4541 -1.1355 0
M  V30 38 H -2.702 -1.7289 0.4431 0
M  V30 39 H 1.1085 -2.5296 1.1136 0
M  V30 40 H 2.5439 -1.7904 0.3689 0
M  V30 41 H 1.5408 5.3271 -3.034 0
M  V30 42 H -1.3609 4.0372 -5.9259 0
M  V30 43 H -3.2959 -0.271 -1.7087 0
M  V30 44 H -0.2829 1.862 0.0571 0
M  V30 45 H -1.9081 2.3777 0.2864 0
M  V30 46 H -0.0021 5.8441 -4.9035 0
M  V30 47 H -3.3961 1.1313 2.0341 0
M  V30 48 H 1.9388 -5.1715 2.7688 0
M  V30 49 H 5.1061 -3.4989 2.0913 0
M  V30 50 H 1.3392 0.6661 1.0723 0
M  V30 51 H 1.8845 0.7371 2.7042 0
M  V30 52 H -0.5409 -0.6815 6.1233 0
M  V30 53 H -1.3523 0.8609 6.4821 0
M  V30 54 H -2.3112 -0.588 6.0985 0
M  V30 END ATOM
M  V30 BEGIN BOND
M  V30 1 1 1 2
M  V30 2 1 1 3
M  V30 3 2 2 4
M  V30 4 1 2 5
M  V30 5 2 3 6
M  V30 6 1 3 7
M  V30 7 2 5 8
M  V30 8 1 5 9
M  V30 9 1 6 10
M  V30 10 1 6 11
M  V30 11 1 7 12
M  V30 12 1 8 13
M  V30 13 2 9 14
M  V30 14 1 10 15
M  V30 15 1 10 16
M  V30 16 1 12 17
M  V30 17 2 13 18
M  V30 18 2 15 19
M  V30 19 1 16 20
M  V30 20 1 17 21
M  V30 21 2 20 22
M  V30 22 1 20 23
M  V30 23 2 21 24
M  V30 24 1 21 25
M  V30 25 1 21 26
M  V30 26 1 22 27
M  V30 27 1 22 28
M  V30 28 2 23 29
M  V30 29 2 27 30
M  V30 30 1 30 31
M  V30 31 1 14 18
M  V30 32 1 29 30
M  V30 33 1 7 32
M  V30 34 1 7 33
M  V30 35 1 8 34
M  V30 36 1 9 35
M  V30 37 1 11 36
M  V30 38 1 11 37
M  V30 39 1 11 38
M  V30 40 1 12 39
M  V30 41 1 12 40
M  V30 42 1 13 41
M  V30 43 1 14 42
M  V30 44 1 15 43
M  V30 45 1 16 44
M  V30 46 1 16 45
M  V30 47 1 18 46
M  V30 48 1 23 47
M  V30 49 1 25 48
M  V30 50 1 26 49
M  V30 51 1 28 50
M  V30 52 1 28 51
M  V30 53 1 31 52
M  V30 54 1 31 53
M  V30 55 1 31 54
M  V30 END BOND
M  V30 END CTAB
M  END
>  <NO.>
1076

>  <Name>
benfotiamine

>  <SMILES>
C/C(=C(\CCOP(=O)(O)O)SC(=O)c1ccccc1)N(C=O)Cc1cnc(C)nc1N

>  <logBB>


>  <Class>
1

>  <MW>
466.11

>  <nHBAcc>
8

>  <nHBDon>
3

>  <SLogP>
2.63

>  <TopoPSA>
155.94

>  <MMFF94 Energy>
-179.04

$$$$
C/C(=C/CCN1CCC2(CC1)C(=O)NCN2c1ccccc1)c1ccc(F)cc1
Actelion Java MolfileCreator 2.0

  0  0  0  0  0  0              0 V3000
M  V30 BEGIN CTAB
M  V30 COUNTS 57 60 0 0 0
M  V30 BEGIN ATOM
M  V30 1 F 4.4631 -1.6718 1.9905 0
M  V30 2 C 3.6793 -0.6409 2.3335 0
M  V30 3 C 3.226 -0.5312 3.6437 0
M  V30 4 C 3.3299 0.3007 1.3731 0
M  V30 5 C 2.4028 0.5385 4.001 0
M  V30 6 C 2.5107 1.3727 1.7293 0
M  V30 7 C 2.0388 1.4956 3.0444 0
M  V30 8 C 1.142 2.6051 3.4078 0
M  V30 9 C -0.1821 2.5603 3.1602 0
M  V30 10 C 1.8079 3.7858 4.055 0
M  V30 11 C -0.9461 1.4118 2.545 0
M  V30 12 C -1.1829 1.6366 1.0418 0
M  V30 13 N -1.9067 0.5392 0.359 0
M  V30 14 C -1.1052 -0.6952 0.3382 0
M  V30 15 C -2.2012 0.9589 -1.0225 0
M  V30 16 C -1.8546 -1.8413 -0.3348 0
M  V30 17 C -2.986 -0.0922 -1.8006 0
M  V30 18 C -2.3682 -1.4885 -1.7317 0
M  V30 19 N -1.3791 -1.7526 -2.8097 0
M  V30 20 C -3.4635 -2.5128 -2.0915 0
M  V30 21 C -0.108 -1.2412 -2.885 0
M  V30 22 C -1.6902 -2.9481 -3.5632 0
M  V30 23 O -4.5562 -2.6666 -1.569 0
M  V30 24 N -3.0009 -3.283 -3.1331 0
M  V30 25 C 0.997 -1.9352 -2.3751 0
M  V30 26 C 0.1257 -0.0143 -3.5141 0
M  V30 27 C 2.2887 -1.4082 -2.4636 0
M  V30 28 C 1.4143 0.5189 -3.6089 0
M  V30 29 C 2.4966 -0.1778 -3.0796 0
M  V30 30 H 3.5099 -1.2801 4.3759 0
M  V30 31 H 3.6912 0.1945 0.3557 0
M  V30 32 H 2.0368 0.617 5.022 0
M  V30 33 H 2.2349 2.1073 0.9763 0
M  V30 34 H -0.7951 3.4183 3.4325 0
M  V30 35 H 2.5765 4.2048 3.3965 0
M  V30 36 H 1.0928 4.5856 4.2764 0
M  V30 37 H 2.28 3.4956 4.9997 0
M  V30 38 H -1.9094 1.319 3.0621 0
M  V30 39 H -0.4153 0.4744 2.7311 0
M  V30 40 H -1.7733 2.558 0.9418 0
M  V30 41 H -0.2271 1.8253 0.536 0
M  V30 42 H -0.8911 -1.0287 1.3587 0
M  V30 43 H -0.1369 -0.5229 -0.1434 0
M  V30 44 H -1.2782 1.2164 -1.5515 0
M  V30 45 H -2.8093 1.8726 -1.0027 0
M  V30 46 H -1.2145 -2.7321 -0.3628 0
M  V30 47 H -2.7023 -2.1091 0.312 0
M  V30 48 H -3.0996 0.2329 -2.8425 0
M  V30 49 H -4.0028 -0.1167 -1.3843 0
M  V30 50 H -1.0295 -3.7887 -3.3287 0
M  V30 51 H -1.7036 -2.7653 -4.6418 0
M  V30 52 H -3.5634 -4.0257 -3.5196 0
M  V30 53 H 0.857 -2.8947 -1.8835 0
M  V30 54 H -0.7069 0.536 -3.9453 0
M  V30 55 H 3.1285 -1.9607 -2.0504 0
M  V30 56 H 1.569 1.4756 -4.1004 0
M  V30 57 H 3.4996 0.2336 -3.1533 0
M  V30 END ATOM
M  V30 BEGIN BOND
M  V30 1 1 1 2
M  V30 2 2 2 3
M  V30 3 1 2 4
M  V30 4 1 3 5
M  V30 5 2 4 6
M  V30 6 2 5 7
M  V30 7 1 7 8
M  V30 8 2 8 9
M  V30 9 1 8 10
M  V30 10 1 9 11
M  V30 11 1 11 12
M  V30 12 1 12 13
M  V30 13 1 13 14
M  V30 14 1 13 15
M  V30 15 1 14 16
M  V30 16 1 15 17
M  V30 17 1 16 18
M  V30 18 1 18 19
M  V30 19 1 18 20
M  V30 20 1 19 21
M  V30 21 1 19 22
M  V30 22 2 20 23
M  V30 23 1 20 24
M  V30 24 2 21 25
M  V30 25 1 21 26
M  V30 26 1 25 27
M  V30 27 2 26 28
M  V30 28 2 27 29
M  V30 29 1 6 7
M  V30 30 1 17 18
M  V30 31 1 22 24
M  V30 32 1 28 29
M  V30 33 1 3 30
M  V30 34 1 4 31
M  V30 35 1 5 32
M  V30 36 1 6 33
M  V30 37 1 9 34
M  V30 38 1 10 35
M  V30 39 1 10 36
M  V30 40 1 10 37
M  V30 41 1 11 38
M  V30 42 1 11 39
M  V30 43 1 12 40
M  V30 44 1 12 41
M  V30 45 1 14 42
M  V30 46 1 14 43
M  V30 47 1 15 44
M  V30 48 1 15 45
M  V30 49 1 16 46
M  V30 50 1 16 47
M  V30 51 1 17 48
M  V30 52 1 17 49
M  V30 53 1 22 50
M  V30 54 1 22 51
M  V30 55 1 24 52
M  V30 56 1 25 53
M  V30 57 1 26 54
M  V30 58 1 27 55
M  V30 59 1 28 56
M  V30 60 1 29 57
M  V30 END BOND
M  V30 END CTAB
M  END
>  <NO.>
1077

>  <Name>
spirilene

>  <SMILES>
C/C(=C/CCN1CCC2(CC1)C(=O)NCN2c1ccccc1)c1ccc(F)cc1

>  <logBB>


>  <Class>
1

>  <MW>
393.22

>  <nHBAcc>
3

>  <nHBDon>
1

>  <SLogP>
4.05

>  <TopoPSA>
35.58

>  <MMFF94 Energy>
37.435

$$$$
C/C(=C1/CCOC(=O)S1)N(C=O)Cc1cnc(C)nc1N
Actelion Java MolfileCreator 2.0

  0  0  0  0  0  0              0 V3000
M  V30 BEGIN CTAB
M  V30 COUNTS 37 38 0 0 0
M  V30 BEGIN ATOM
M  V30 1 S 0.2411 -4.025 -0.8844 0
M  V30 2 C 1.4705 -5.2708 -0.6548 0
M  V30 3 C 0.9966 -2.5424 -0.3025 0
M  V30 4 O 1.113 -6.4311 -0.489 0
M  V30 5 O 2.8016 -4.9678 -0.6943 0
M  V30 6 C 0.307 -1.3634 -0.2984 0
M  V30 7 C 2.4623 -2.6815 0.0664 0
M  V30 8 C 3.1892 -3.6057 -0.8997 0
M  V30 9 N 0.8299 -0.1624 0.2419 0
M  V30 10 C -1.099 -1.2287 -0.8786 0
M  V30 11 C 1.5457 -0.1115 1.4442 0
M  V30 12 C 0.5554 1.1275 -0.4113 0
M  V30 13 O 1.7371 -1.0189 2.2425 0
M  V30 14 C -0.6262 1.9109 0.0867 0
M  V30 15 C -1.0933 3.0215 -0.5986 0
M  V30 16 C -1.3174 1.6206 1.2478 0
M  V30 17 N -2.1603 3.7306 -0.2041 0
M  V30 18 N -0.5215 3.4575 -1.779 0
M  V30 19 N -2.3764 2.3212 1.6939 0
M  V30 20 C -2.7611 3.3599 0.9388 0
M  V30 21 C -3.967 4.1308 1.3745 0
M  V30 22 H 2.5411 -3.086 1.0824 0
M  V30 23 H 2.9769 -1.7167 0.0255 0
M  V30 24 H 4.2659 -3.5556 -0.7046 0
M  V30 25 H 3.0374 -3.3342 -1.9514 0
M  V30 26 H -1.7767 -0.8096 -0.1285 0
M  V30 27 H -1.5602 -2.1663 -1.1933 0
M  V30 28 H -1.0997 -0.5807 -1.7605 0
M  V30 29 H 1.931 0.9007 1.6563 0
M  V30 30 H 1.4439 1.7586 -0.2722 0
M  V30 31 H 0.4766 0.9497 -1.4907 0
M  V30 32 H -1.0557 0.7784 1.883 0
M  V30 33 H 0.4825 3.5128 -1.8498 0
M  V30 34 H -1.0317 4.2447 -2.1685 0
M  V30 35 H -3.898 5.1723 1.046 0
M  V30 36 H -4.8665 3.6832 0.9419 0
M  V30 37 H -4.0573 4.1212 2.4651 0
M  V30 END ATOM
M  V30 BEGIN BOND
M  V30 1 1 1 2
M  V30 2 1 1 3
M  V30 3 2 2 4
M  V30 4 1 2 5
M  V30 5 2 3 6
M  V30 6 1 3 7
M  V30 7 1 5 8
M  V30 8 1 6 9
M  V30 9 1 6 10
M  V30 10 1 9 11
M  V30 11 1 9 12
M  V30 12 2 11 13
M  V30 13 1 12 14
M  V30 14 2 14 15
M  V30 15 1 14 16
M  V30 16 1 15 17
M  V30 17 1 15 18
M  V30 18 2 16 19
M  V30 19 2 17 20
M  V30 20 1 20 21
M  V30 21 1 7 8
M  V30 22 1 19 20
M  V30 23 1 7 22
M  V30 24 1 7 23
M  V30 25 1 8 24
M  V30 26 1 8 25
M  V30 27 1 10 26
M  V30 28 1 10 27
M  V30 29 1 10 28
M  V30 30 1 11 29
M  V30 31 1 12 30
M  V30 32 1 12 31
M  V30 33 1 16 32
M  V30 34 1 18 33
M  V30 35 1 18 34
M  V30 36 1 21 35
M  V30 37 1 21 36
M  V30 38 1 21 37
M  V30 END BOND
M  V30 END CTAB
M  END
>  <NO.>
1078

>  <Name>
cycotiamine

>  <SMILES>
C/C(=C1/CCOC(=O)S1)N(C=O)Cc1cnc(C)nc1N

>  <logBB>


>  <Class>
1

>  <MW>
308.09

>  <nHBAcc>
7

>  <nHBDon>
1

>  <SLogP>
1.83

>  <TopoPSA>
98.41

>  <MMFF94 Energy>
-27.487

$$$$
C/C=C(\CC)C(=O)NC(N)=O
Actelion Java MolfileCreator 2.0

  0  0  0  0  0  0              0 V3000
M  V30 BEGIN CTAB
M  V30 COUNTS 23 22 0 0 0
M  V30 BEGIN ATOM
M  V30 1 O 3.8132 0.9903 0.5331 0
M  V30 2 C 2.8272 1.3814 -0.0723 0
M  V30 3 N 1.5613 0.8659 -0.0298 0
M  V30 4 N 2.945 2.4119 -0.9573 0
M  V30 5 C 1.1088 -0.033 0.9092 0
M  V30 6 O 1.6621 -0.3114 1.9657 0
M  V30 7 C -0.2332 -0.6248 0.5681 0
M  V30 8 C -1.076 -0.8002 1.6063 0
M  V30 9 C -0.4856 -1.0862 -0.8435 0
M  V30 10 C -2.4321 -1.4285 1.5757 0
M  V30 11 C -1.3918 -0.1473 -1.6301 0
M  V30 12 H 0.9434 1.1475 -0.7662 0
M  V30 13 H 2.1684 2.886 -1.3879 0
M  V30 14 H 3.8682 2.8184 -1.0451 0
M  V30 15 H -0.7616 -0.4718 2.599 0
M  V30 16 H -0.9316 -2.0883 -0.8302 0
M  V30 17 H 0.4638 -1.2055 -1.3794 0
M  V30 18 H -2.455 -2.2883 2.2525 0
M  V30 19 H -2.7265 -1.7759 0.5828 0
M  V30 20 H -3.1807 -0.7064 1.9161 0
M  V30 21 H -1.538 -0.5323 -2.6445 0
M  V30 22 H -0.9654 0.8567 -1.7124 0
M  V30 23 H -2.3778 -0.0559 -1.1632 0
M  V30 END ATOM
M  V30 BEGIN BOND
M  V30 1 2 1 2
M  V30 2 1 2 3
M  V30 3 1 2 4
M  V30 4 1 3 5
M  V30 5 2 5 6
M  V30 6 1 5 7
M  V30 7 2 7 8
M  V30 8 1 7 9
M  V30 9 1 8 10
M  V30 10 1 9 11
M  V30 11 1 3 12
M  V30 12 1 4 13
M  V30 13 1 4 14
M  V30 14 1 8 15
M  V30 15 1 9 16
M  V30 16 1 9 17
M  V30 17 1 10 18
M  V30 18 1 10 19
M  V30 19 1 10 20
M  V30 20 1 11 21
M  V30 21 1 11 22
M  V30 22 1 11 23
M  V30 END BOND
M  V30 END CTAB
M  END
>  <NO.>
1079

>  <Name>
1-(2-ethylcrotonoyl)urea

>  <SMILES>
C/C=C(\CC)C(=O)NC(N)=O

>  <logBB>


>  <Class>
1

>  <MW>
156.09

>  <nHBAcc>
2

>  <nHBDon>
2

>  <SLogP>
0.54

>  <TopoPSA>
72.19

>  <MMFF94 Energy>
-92.681

$$$$
C/C=C/C(=O)N(CC)C(CC)C(=O)N(C)C
Actelion Java MolfileCreator 2.0

  0  0  0  0  0  0              0 V3000
M  V30 BEGIN CTAB
M  V30 COUNTS 38 37 0 0 0
M  V30 BEGIN ATOM
M  V30 1 O 1.6207 0.8486 -0.6171 0
M  V30 2 C 1.0966 0.0389 0.1444 0
M  V30 3 N -0.163 -0.5078 -0.0895 0
M  V30 4 C 1.8128 -0.369 1.388 0
M  V30 5 C -0.8328 -0.1473 -1.3696 0 CFG=2
M  V30 6 C -0.8582 -1.4295 0.8226 0
M  V30 7 C 2.8764 0.3312 1.8149 0
M  V30 8 C -1.1106 1.3898 -1.57 0
M  V30 9 C -0.0977 -0.6877 -2.624 0
M  V30 10 C -0.4597 -2.8875 0.6594 0
M  V30 11 C 3.6707 -0.0125 3.031 0
M  V30 12 O -1.0458 1.8868 -2.7027 0
M  V30 13 N -1.5785 2.1647 -0.513 0
M  V30 14 C 0.1227 -2.1896 -2.6445 0
M  V30 15 C -2.1109 1.6528 0.7307 0
M  V30 16 C -1.577 3.6109 -0.6609 0
M  V30 17 H 1.4932 -1.2472 1.9269 0
M  V30 18 H -1.829 -0.6092 -1.3569 0
M  V30 19 H -1.9392 -1.3436 0.6761 0
M  V30 20 H -0.6667 -1.1125 1.8531 0
M  V30 21 H 3.2069 1.2067 1.2566 0
M  V30 22 H 0.8694 -0.1886 -2.7522 0
M  V30 23 H -0.6845 -0.4324 -3.5161 0
M  V30 24 H 0.6251 -3.0233 0.66 0
M  V30 25 H -0.852 -3.2972 -0.2743 0
M  V30 26 H -0.8802 -3.4839 1.4758 0
M  V30 27 H 3.6483 0.8217 3.7389 0
M  V30 28 H 4.7124 -0.2018 2.7547 0
M  V30 29 H 3.2851 -0.9019 3.5395 0
M  V30 30 H 0.8187 -2.5009 -1.8613 0
M  V30 31 H -0.8223 -2.7271 -2.5249 0
M  V30 32 H 0.557 -2.4899 -3.6039 0
M  V30 33 H -2.6082 0.698 0.5654 0
M  V30 34 H -1.2979 1.5498 1.4534 0
M  V30 35 H -2.8561 2.3494 1.1285 0
M  V30 36 H -1.0182 3.9368 -1.5421 0
M  V30 37 H -1.1161 4.0565 0.226 0
M  V30 38 H -2.6121 3.9549 -0.7467 0
M  V30 END ATOM
M  V30 BEGIN BOND
M  V30 1 2 1 2
M  V30 2 1 2 3
M  V30 3 1 2 4
M  V30 4 1 3 5
M  V30 5 1 3 6
M  V30 6 2 4 7
M  V30 7 1 5 8
M  V30 8 1 5 9
M  V30 9 1 6 10
M  V30 10 1 7 11
M  V30 11 2 8 12
M  V30 12 1 8 13
M  V30 13 1 9 14
M  V30 14 1 13 15
M  V30 15 1 13 16
M  V30 16 1 4 17
M  V30 17 1 5 18
M  V30 18 1 6 19
M  V30 19 1 6 20
M  V30 20 1 7 21
M  V30 21 1 9 22
M  V30 22 1 9 23
M  V30 23 1 10 24
M  V30 24 1 10 25
M  V30 25 1 10 26
M  V30 26 1 11 27
M  V30 27 1 11 28
M  V30 28 1 11 29
M  V30 29 1 14 30
M  V30 30 1 14 31
M  V30 31 1 14 32
M  V30 32 1 15 33
M  V30 33 1 15 34
M  V30 34 1 15 35
M  V30 35 1 16 36
M  V30 36 1 16 37
M  V30 37 1 16 38
M  V30 END BOND
M  V30 BEGIN COLLECTION
M  V30 MDLV30/STERAC1 ATOMS=(1 5)
M  V30 END COLLECTION
M  V30 END CTAB
M  END
>  <NO.>
1080

>  <Name>
crotetamide

>  <SMILES>
C/C=C/C(=O)N(CC)C(CC)C(=O)N(C)C

>  <logBB>


>  <Class>
1

>  <MW>
226.17

>  <nHBAcc>
2

>  <nHBDon>
0

>  <SLogP>
1.28

>  <TopoPSA>
40.62

>  <MMFF94 Energy>
16.51

$$$$
C/C=C/C(=O)N(CCC)C(CC)C(=O)N(C)C
Actelion Java MolfileCreator 2.0

  0  0  0  0  0  0              0 V3000
M  V30 BEGIN CTAB
M  V30 COUNTS 41 40 0 0 0
M  V30 BEGIN ATOM
M  V30 1 O -0.9261 -1.853 0.5401 0
M  V30 2 C -0.0877 -0.9939 0.8029 0
M  V30 3 N 0.0259 0.1912 0.0819 0
M  V30 4 C 0.865 -1.2148 1.9278 0
M  V30 5 C -1.0324 0.4757 -0.9244 0 CFG=2
M  V30 6 C 0.9819 1.2675 0.3775 0
M  V30 7 C 1.0896 -2.4575 2.3842 0
M  V30 8 C -1.1963 -0.6003 -2.0555 0
M  V30 9 C -2.3804 0.7707 -0.2258 0
M  V30 10 C 0.4415 2.2695 1.3985 0
M  V30 11 C 1.9978 -2.7778 3.5246 0
M  V30 12 O -2.3202 -0.8691 -2.4986 0
M  V30 13 N -0.0654 -1.1325 -2.6709 0
M  V30 14 C -3.2353 1.7661 -1.0014 0
M  V30 15 C 1.4934 3.3009 1.7737 0
M  V30 16 C 1.2884 -0.6471 -2.5001 0
M  V30 17 C -0.2278 -2.2776 -3.5512 0
M  V30 18 H 1.3369 -0.3662 2.3995 0
M  V30 19 H -0.718 1.3831 -1.4574 0
M  V30 20 H 1.9205 0.8297 0.7315 0
M  V30 21 H 1.2276 1.7887 -0.5541 0
M  V30 22 H 0.5862 -3.3034 1.9169 0
M  V30 23 H -2.2102 1.189 0.7732 0
M  V30 24 H -2.9512 -0.1537 -0.0776 0
M  V30 25 H -0.4319 2.7868 0.9856 0
M  V30 26 H 0.1035 1.7522 2.3034 0
M  V30 27 H 2.7926 -3.4515 3.1902 0
M  V30 28 H 1.4357 -3.2764 4.3203 0
M  V30 29 H 2.4646 -1.8818 3.9462 0
M  V30 30 H -2.7184 2.7258 -1.1043 0
M  V30 31 H -3.4791 1.3993 -2.0023 0
M  V30 32 H -4.1759 1.9465 -0.471 0
M  V30 33 H 1.0839 4.0148 2.4954 0
M  V30 34 H 2.3671 2.8225 2.2278 0
M  V30 35 H 1.8257 3.8603 0.8933 0
M  V30 36 H 1.8597 -0.8217 -3.4173 0
M  V30 37 H 1.2933 0.425 -2.3067 0
M  V30 38 H 1.76 -1.1884 -1.6758 0
M  V30 39 H -1.2431 -2.6818 -3.527 0
M  V30 40 H 0.4658 -3.0638 -3.2377 0
M  V30 41 H 0.0087 -1.9691 -4.5738 0
M  V30 END ATOM
M  V30 BEGIN BOND
M  V30 1 2 1 2
M  V30 2 1 2 3
M  V30 3 1 2 4
M  V30 4 1 3 5
M  V30 5 1 3 6
M  V30 6 2 4 7
M  V30 7 1 5 8
M  V30 8 1 5 9
M  V30 9 1 6 10
M  V30 10 1 7 11
M  V30 11 2 8 12
M  V30 12 1 8 13
M  V30 13 1 9 14
M  V30 14 1 10 15
M  V30 15 1 13 16
M  V30 16 1 13 17
M  V30 17 1 4 18
M  V30 18 1 5 19
M  V30 19 1 6 20
M  V30 20 1 6 21
M  V30 21 1 7 22
M  V30 22 1 9 23
M  V30 23 1 9 24
M  V30 24 1 10 25
M  V30 25 1 10 26
M  V30 26 1 11 27
M  V30 27 1 11 28
M  V30 28 1 11 29
M  V30 29 1 14 30
M  V30 30 1 14 31
M  V30 31 1 14 32
M  V30 32 1 15 33
M  V30 33 1 15 34
M  V30 34 1 15 35
M  V30 35 1 16 36
M  V30 36 1 16 37
M  V30 37 1 16 38
M  V30 38 1 17 39
M  V30 39 1 17 40
M  V30 40 1 17 41
M  V30 END BOND
M  V30 BEGIN COLLECTION
M  V30 MDLV30/STERAC1 ATOMS=(1 5)
M  V30 END COLLECTION
M  V30 END CTAB
M  END
>  <NO.>
1081

>  <Name>
cropropamide

>  <SMILES>
C/C=C/C(=O)N(CCC)C(CC)C(=O)N(C)C

>  <logBB>


>  <Class>
1

>  <MW>
240.18

>  <nHBAcc>
2

>  <nHBDon>
0

>  <SLogP>
1.67

>  <TopoPSA>
40.62

>  <MMFF94 Energy>
14.044

$$$$
C/C=C/C1=C(C(=O)O)N2C(=O)[C@@H](NC(=O)[C@H](N)c3ccc(O)cc3)[C@H]2SC1
Actelion Java MolfileCreator 2.0

  0  0  0  0  0  0              0 V3000
M  V30 BEGIN CTAB
M  V30 COUNTS 46 48 0 0 0
M  V30 BEGIN ATOM
M  V30 1 S 0.8084 2.4267 0.8892 0
M  V30 2 C 1.9516 1.033 0.7437 0 CFG=1
M  V30 3 C 1.1013 2.6203 2.6797 0
M  V30 4 N 1.4548 -0.0218 1.5881 0
M  V30 5 C 1.7619 0.0581 -0.457 0 CFG=1
M  V30 6 C 1.0314 1.3273 3.4889 0
M  V30 7 C 1.1559 0.106 2.9082 0
M  V30 8 C 1.399 -0.9938 0.6545 0
M  V30 9 N 0.6698 0.3559 -1.4109 0
M  V30 10 C 0.7947 1.4905 4.9314 0
M  V30 11 C 0.9704 -1.1623 3.6672 0
M  V30 12 O 1.0859 -2.1588 0.7125 0
M  V30 13 C 0.5764 -0.2314 -2.6556 0
M  V30 14 C 0.8591 2.6353 5.6326 0
M  V30 15 O -1.0E-4 -1.4885 4.3255 0
M  V30 16 O 2.0643 -1.9414 3.5683 0
M  V30 17 O 1.4589 -0.9542 -3.1091 0
M  V30 18 C -0.7206 0.1477 -3.4202 0 CFG=2
M  V30 19 C 0.6044 2.7136 7.1059 0
M  V30 20 N -1.7094 0.7555 -2.4873 0
M  V30 21 C -1.3582 -1.0099 -4.1643 0
M  V30 22 C -1.524 -2.269 -3.5626 0
M  V30 23 C -1.8534 -0.8157 -5.4655 0
M  V30 24 C -2.1532 -3.3078 -4.2511 0
M  V30 25 C -2.482 -1.8565 -6.1543 0
M  V30 26 C -2.6258 -3.095 -5.5393 0
M  V30 27 O -3.2334 -4.1373 -6.1739 0
M  V30 28 H 3.0014 1.2816 0.9401 0
M  V30 29 H 2.0778 3.0958 2.8252 0
M  V30 30 H 0.3282 3.3211 3.0123 0
M  V30 31 H 2.7046 -0.169 -0.9684 0
M  V30 32 H -0.1101 0.9663 -1.1609 0
M  V30 33 H 0.5539 0.5897 5.4961 0
M  V30 34 H 1.111 3.5819 5.1639 0
M  V30 35 H 1.8014 -2.7764 4.0069 0
M  V30 36 H -0.4153 0.9252 -4.1319 0
M  V30 37 H -0.2292 3.3946 7.3028 0
M  V30 38 H 0.3583 1.7392 7.5393 0
M  V30 39 H 1.4921 3.0994 7.6162 0
M  V30 40 H -2.503 1.0676 -3.0495 0
M  V30 41 H -2.09 -4.0E-4 -1.9125 0
M  V30 42 H -1.1549 -2.4594 -2.5561 0
M  V30 43 H -1.7497 0.1508 -5.9541 0
M  V30 44 H -2.2686 -4.2814 -3.7831 0
M  V30 45 H -2.8504 -1.6819 -7.16 0
M  V30 46 H -3.4652 -3.8589 -7.0746 0
M  V30 END ATOM
M  V30 BEGIN BOND
M  V30 1 1 1 2
M  V30 2 1 1 3
M  V30 3 1 2 4
M  V30 4 1 2 5
M  V30 5 1 3 6
M  V30 6 1 4 7
M  V30 7 1 4 8
M  V30 8 1 5 9
M  V30 9 1 6 10
M  V30 10 1 7 11
M  V30 11 2 8 12
M  V30 12 1 9 13
M  V30 13 2 10 14
M  V30 14 2 11 15
M  V30 15 1 11 16
M  V30 16 2 13 17
M  V30 17 1 13 18
M  V30 18 1 14 19
M  V30 19 1 18 20
M  V30 20 1 18 21
M  V30 21 2 21 22
M  V30 22 1 21 23
M  V30 23 1 22 24
M  V30 24 2 23 25
M  V30 25 2 24 26
M  V30 26 1 26 27
M  V30 27 1 5 8
M  V30 28 2 6 7
M  V30 29 1 25 26
M  V30 30 1 2 28
M  V30 31 1 3 29
M  V30 32 1 3 30
M  V30 33 1 5 31
M  V30 34 1 9 32
M  V30 35 1 10 33
M  V30 36 1 14 34
M  V30 37 1 16 35
M  V30 38 1 18 36
M  V30 39 1 19 37
M  V30 40 1 19 38
M  V30 41 1 19 39
M  V30 42 1 20 40
M  V30 43 1 20 41
M  V30 44 1 22 42
M  V30 45 1 23 43
M  V30 46 1 24 44
M  V30 47 1 25 45
M  V30 48 1 27 46
M  V30 END BOND
M  V30 BEGIN COLLECTION
M  V30 MDLV30/STEABS ATOMS=(3 2 5 18)
M  V30 END COLLECTION
M  V30 END CTAB
M  END
>  <NO.>
1082

>  <Name>
cefprozil

>  <SMILES>
C/C=C/C1=C(C(=O)O)N2C(=O)[C@@H](NC(=O)[C@H](N)c3ccc(O)cc3)[C@H]2SC1

>  <logBB>


>  <Class>
-1

>  <MW>
389.1

>  <nHBAcc>
6

>  <nHBDon>
4

>  <SLogP>
0.71

>  <TopoPSA>
132.96

>  <MMFF94 Energy>
71.558

$$$$
C/C=C\C1O[C@]2(C(=O)COC(=O)c3ccncc3)CC[C@@]3(O1)[C@@H]1CCC4=CC(=O)CC[C@]4(C)[C@H]1[C@@H](O)C[C@]23C
Actelion Java MolfileCreator 2.0

  0  0  0  0  0  0              0 V3000
M  V30 BEGIN CTAB
M  V30 COUNTS 76 81 0 0 0
M  V30 BEGIN ATOM
M  V30 1 O 7.0547 -2.9146 -0.6471 0
M  V30 2 C 5.9803 -2.6132 -0.1332 0
M  V30 3 C 5.7976 -1.2578 0.435 0
M  V30 4 C 4.856 -3.6018 0.0271 0
M  V30 5 C 4.6221 -0.8644 0.9572 0
M  V30 6 C 3.5143 -2.8926 -0.0812 0
M  V30 7 C 3.3432 -1.7155 0.9255 0 CFG=2
M  V30 8 C 4.5216 0.4659 1.6619 0
M  V30 9 C 2.1368 -0.8179 0.4286 0 CFG=1
M  V30 10 C 3.1513 -2.2937 2.346 0
M  V30 11 C 3.3668 1.3 1.1291 0
M  V30 12 C 0.7648 -1.5501 0.3048 0 CFG=1
M  V30 13 C 2.0275 0.5414 1.2013 0 CFG=1
M  V30 14 O 0.4218 -2.1963 1.5233 0
M  V30 15 C -0.4103 -0.6381 -0.1131 0
M  V30 16 C 0.8767 1.3891 0.6116 0 CFG=2
M  V30 17 C -0.4835 0.6667 0.7151 0 CFG=1
M  V30 18 O 1.2007 1.5787 -0.7834 0
M  V30 19 C 0.6213 2.7563 1.2686 0
M  V30 20 C -1.3458 1.8185 0.1327 0 CFG=1
M  V30 21 C -0.9228 0.3394 2.1704 0
M  V30 22 C 0.2764 2.3279 -1.5494 0
M  V30 23 C -0.8499 3.0722 0.9118 0
M  V30 24 O -1.0748 1.9794 -1.2605 0
M  V30 25 C -2.8619 1.6057 0.3005 0
M  V30 26 C 0.4553 2.0688 -3.0209 0
M  V30 27 O -3.4545 1.9525 1.3271 0
M  V30 28 C -3.5893 0.9156 -0.8499 0
M  V30 29 C 1.4739 1.5255 -3.7111 0
M  V30 30 O -4.9371 0.6297 -0.4691 0
M  V30 31 C 2.8028 1.0778 -3.198 0
M  V30 32 C -5.6417 -0.0618 -1.3927 0
M  V30 33 O -5.2172 -0.4486 -2.4694 0
M  V30 34 C -7.0283 -0.3006 -0.9174 0
M  V30 35 C -7.8958 -1.0112 -1.7488 0
M  V30 36 C -7.4833 0.1584 0.3203 0
M  V30 37 C -9.1857 -1.2339 -1.3046 0
M  V30 38 C -8.7924 -0.1168 0.6717 0
M  V30 39 N -9.6509 -0.8026 -0.1129 0
M  V30 40 H 6.6889 -0.6405 0.4565 0
M  V30 41 H 4.9697 -4.1134 0.9881 0
M  V30 42 H 4.9335 -4.3492 -0.77 0
M  V30 43 H 2.7152 -3.6321 0.051 0
M  V30 44 H 3.417 -2.5126 -1.1081 0
M  V30 45 H 5.4497 1.0413 1.5581 0
M  V30 46 H 4.3867 0.2937 2.7368 0
M  V30 47 H 2.3936 -0.5434 -0.6062 0
M  V30 48 H 4.0964 -2.6682 2.7588 0
M  V30 49 H 2.7719 -1.5467 3.0502 0
M  V30 50 H 2.4609 -3.1427 2.354 0
M  V30 51 H 3.3046 2.2245 1.7152 0
M  V30 52 H 3.5878 1.5974 0.097 0
M  V30 53 H 0.8537 -2.3393 -0.4504 0
M  V30 54 H 1.8254 0.3427 2.2592 0
M  V30 55 H -0.3428 -2.7735 1.3501 0
M  V30 56 H -0.3046 -0.4224 -1.1819 0
M  V30 57 H -1.3534 -1.1878 -0.0053 0
M  V30 58 H 0.7367 2.7102 2.3573 0
M  V30 59 H 1.2874 3.5377 0.8879 0
M  V30 60 H -0.1799 -0.2367 2.7244 0
M  V30 61 H -1.1155 1.2305 2.7747 0
M  V30 62 H -1.8487 -0.2475 2.168 0
M  V30 63 H 0.4286 3.4006 -1.3858 0
M  V30 64 H -0.9233 3.9859 0.3116 0
M  V30 65 H -1.412 3.2568 1.8337 0
M  V30 66 H -0.4099 2.3726 -3.6106 0
M  V30 67 H -3.5954 1.5924 -1.7108 0
M  V30 68 H -3.0698 -0.0168 -1.087 0
M  V30 69 H 1.3447 1.4134 -4.7873 0
M  V30 70 H 3.5742 1.3114 -3.9396 0
M  V30 71 H 2.8045 -0.0041 -3.0392 0
M  V30 72 H 3.0957 1.5838 -2.2763 0
M  V30 73 H -7.5772 -1.382 -2.7176 0
M  V30 74 H -6.8479 0.7159 1.0005 0
M  V30 75 H -9.902 -1.7808 -1.9116 0
M  V30 76 H -9.1994 0.2165 1.6227 0
M  V30 END ATOM
M  V30 BEGIN BOND
M  V30 1 2 1 2
M  V30 2 1 2 3
M  V30 3 1 2 4
M  V30 4 2 3 5
M  V30 5 1 4 6
M  V30 6 1 5 7
M  V30 7 1 5 8
M  V30 8 1 7 9
M  V30 9 1 7 10
M  V30 10 1 8 11
M  V30 11 1 9 12
M  V30 12 1 9 13
M  V30 13 1 12 14
M  V30 14 1 12 15
M  V30 15 1 13 16
M  V30 16 1 15 17
M  V30 17 1 16 18
M  V30 18 1 16 19
M  V30 19 1 17 20
M  V30 20 1 17 21
M  V30 21 1 18 22
M  V30 22 1 19 23
M  V30 23 1 20 24
M  V30 24 1 20 25
M  V30 25 1 22 26
M  V30 26 2 25 27
M  V30 27 1 25 28
M  V30 28 2 26 29
M  V30 29 1 28 30
M  V30 30 1 29 31
M  V30 31 1 30 32
M  V30 32 2 32 33
M  V30 33 1 32 34
M  V30 34 2 34 35
M  V30 35 1 34 36
M  V30 36 1 35 37
M  V30 37 2 36 38
M  V30 38 2 37 39
M  V30 39 1 6 7
M  V30 40 1 11 13
M  V30 41 1 16 17
M  V30 42 1 20 23
M  V30 43 1 22 24
M  V30 44 1 38 39
M  V30 45 1 3 40
M  V30 46 1 4 41
M  V30 47 1 4 42
M  V30 48 1 6 43
M  V30 49 1 6 44
M  V30 50 1 8 45
M  V30 51 1 8 46
M  V30 52 1 9 47
M  V30 53 1 10 48
M  V30 54 1 10 49
M  V30 55 1 10 50
M  V30 56 1 11 51
M  V30 57 1 11 52
M  V30 58 1 12 53
M  V30 59 1 13 54
M  V30 60 1 14 55
M  V30 61 1 15 56
M  V30 62 1 15 57
M  V30 63 1 19 58
M  V30 64 1 19 59
M  V30 65 1 21 60
M  V30 66 1 21 61
M  V30 67 1 21 62
M  V30 68 1 22 63
M  V30 69 1 23 64
M  V30 70 1 23 65
M  V30 71 1 26 66
M  V30 72 1 28 67
M  V30 73 1 28 68
M  V30 74 1 29 69
M  V30 75 1 31 70
M  V30 76 1 31 71
M  V30 77 1 31 72
M  V30 78 1 35 73
M  V30 79 1 36 74
M  V30 80 1 37 75
M  V30 81 1 38 76
M  V30 END BOND
M  V30 BEGIN COLLECTION
M  V30 MDLV30/STEABS ATOMS=(7 7 9 12 13 16 17 20)
M  V30 END COLLECTION
M  V30 END CTAB
M  END
>  <NO.>
1084

>  <Name>
nicocortonida

>  <SMILES>
C/C=C\C1O[C@]2(C(=O)COC(=O)c3ccncc3)CC[C@@]3(O1)[C@@H]1CCC4=CC(=O)CC[C@]4(C)[C@H]1[C@@H](O)C[C@]23C

>  <logBB>


>  <Class>
1

>  <MW>
535.26

>  <nHBAcc>
8

>  <nHBDon>
1

>  <SLogP>
4.12

>  <TopoPSA>
112.02

>  <MMFF94 Energy>
96.678

$$$$
C1=C(CC2=NCNC2)CCc2ccccc21
Actelion Java MolfileCreator 2.0

  0  0  0  0  0  0              0 V3000
M  V30 BEGIN CTAB
M  V30 COUNTS 32 34 0 0 0
M  V30 BEGIN ATOM
M  V30 1 N 0.7176 3.1926 -1.2761 0
M  V30 2 C 0.6524 2.5835 -0.1317 0
M  V30 3 C 2.1444 3.5113 -1.4177 0
M  V30 4 C 1.9459 2.4413 0.6139 0
M  V30 5 C -0.6388 2.0647 0.4514 0
M  V30 6 N 2.922 2.82 -0.396 0
M  V30 7 C -0.787 0.562 0.4094 0
M  V30 8 C -0.1229 -0.2455 -0.4396 0
M  V30 9 C -1.7528 -0.0189 1.421 0
M  V30 10 C -0.2743 -1.7045 -0.3795 0
M  V30 11 C -2.3416 -1.3753 1.0124 0
M  V30 12 C -1.331 -2.274 0.3503 0
M  V30 13 C 0.6247 -2.536 -1.0556 0
M  V30 14 C -1.4804 -3.6664 0.3873 0
M  V30 15 C 0.4778 -3.9233 -1.0026 0
M  V30 16 C -0.5731 -4.4873 -0.2818 0
M  V30 17 H 2.2748 4.5962 -1.3285 0
M  V30 18 H 2.4932 3.2111 -2.4107 0
M  V30 19 H 1.9473 3.131 1.4634 0
M  V30 20 H 2.1015 1.4172 0.9587 0
M  V30 21 H -1.4832 2.5275 -0.0715 0
M  V30 22 H -0.6682 2.4069 1.4932 0
M  V30 23 H 3.6204 3.4496 -0.0098 0
M  V30 24 H 0.566 0.1452 -1.1838 0
M  V30 25 H -1.2211 -0.12 2.3762 0
M  V30 26 H -2.5848 0.675 1.593 0
M  V30 27 H -2.762 -1.8604 1.9014 0
M  V30 28 H -3.1663 -1.2172 0.3056 0
M  V30 29 H 1.4475 -2.1116 -1.6257 0
M  V30 30 H -2.3069 -4.1163 0.932 0
M  V30 31 H 1.1817 -4.5629 -1.5283 0
M  V30 32 H -0.6905 -5.5671 -0.2481 0
M  V30 END ATOM
M  V30 BEGIN BOND
M  V30 1 2 1 2
M  V30 2 1 1 3
M  V30 3 1 2 4
M  V30 4 1 2 5
M  V30 5 1 3 6
M  V30 6 1 5 7
M  V30 7 2 7 8
M  V30 8 1 7 9
M  V30 9 1 8 10
M  V30 10 1 9 11
M  V30 11 2 10 12
M  V30 12 1 10 13
M  V30 13 1 12 14
M  V30 14 2 13 15
M  V30 15 2 14 16
M  V30 16 1 4 6
M  V30 17 1 11 12
M  V30 18 1 15 16
M  V30 19 1 3 17
M  V30 20 1 3 18
M  V30 21 1 4 19
M  V30 22 1 4 20
M  V30 23 1 5 21
M  V30 24 1 5 22
M  V30 25 1 6 23
M  V30 26 1 8 24
M  V30 27 1 9 25
M  V30 28 1 9 26
M  V30 29 1 11 27
M  V30 30 1 11 28
M  V30 31 1 13 29
M  V30 32 1 14 30
M  V30 33 1 15 31
M  V30 34 1 16 32
M  V30 END BOND
M  V30 END CTAB
M  END
>  <NO.>
1085

>  <Name>
schembl1232177

>  <SMILES>
C1=C(CC2=NCNC2)CCc2ccccc21

>  <logBB>


>  <Class>
1

>  <MW>
212.13

>  <nHBAcc>
2

>  <nHBDon>
1

>  <SLogP>
2.41

>  <TopoPSA>
24.39

>  <MMFF94 Energy>
37.947

$$$$
C1=Cc2cccc(OCC3CNCCO3)c2C1
Actelion Java MolfileCreator 2.0

  0  0  0  0  0  0              0 V3000
M  V30 BEGIN CTAB
M  V30 COUNTS 34 36 0 0 0
M  V30 BEGIN ATOM
M  V30 1 O -2.7925 0.1594 -0.558 0
M  V30 2 C -1.8895 1.2712 -0.7283 0 CFG=2
M  V30 3 C -3.7382 0.0949 -1.6324 0
M  V30 4 C -1.1637 1.1775 -2.0887 0
M  V30 5 C -0.9025 1.3025 0.45 0
M  V30 6 C -3.0385 0.0057 -2.9965 0
M  V30 7 N -2.1124 1.1316 -3.2223 0
M  V30 8 O 0.0192 0.2143 0.3511 0
M  V30 9 C 0.9906 0.1304 1.3033 0
M  V30 10 C 1.9092 -0.8956 1.1461 0
M  V30 11 C 1.145 0.9694 2.4109 0
M  V30 12 C 2.9597 -1.0906 2.0534 0
M  V30 13 C 1.9826 -1.9359 0.07 0
M  V30 14 C 2.2004 0.774 3.324 0
M  V30 15 C 3.1192 -0.2628 3.1479 0
M  V30 16 C 3.7529 -2.2319 1.6305 0
M  V30 17 C 3.2024 -2.7148 0.5051 0
M  V30 18 H -2.4892 2.1904 -0.6871 0
M  V30 19 H -4.3948 0.9718 -1.5828 0
M  V30 20 H -4.3583 -0.7931 -1.4747 0
M  V30 21 H -0.5382 0.2781 -2.1359 0
M  V30 22 H -0.5017 2.0404 -2.2202 0
M  V30 23 H -0.3537 2.2518 0.4232 0
M  V30 24 H -1.4652 1.2173 1.3875 0
M  V30 25 H -3.7862 -0.0086 -3.7964 0
M  V30 26 H -2.4738 -0.9319 -3.0622 0
M  V30 27 H -2.6507 1.9978 -3.2316 0
M  V30 28 H 0.4592 1.7881 2.6035 0
M  V30 29 H 2.1399 -1.4838 -0.9133 0
M  V30 30 H 1.0939 -2.5735 0.0684 0
M  V30 31 H 2.2986 1.4391 4.179 0
M  V30 32 H 3.9301 -0.4117 3.8524 0
M  V30 33 H 4.6224 -2.6032 2.1474 0
M  V30 34 H 3.577 -3.5678 -0.0424 0
M  V30 END ATOM
M  V30 BEGIN BOND
M  V30 1 1 1 2
M  V30 2 1 1 3
M  V30 3 1 2 4
M  V30 4 1 2 5
M  V30 5 1 3 6
M  V30 6 1 4 7
M  V30 7 1 5 8
M  V30 8 1 8 9
M  V30 9 2 9 10
M  V30 10 1 9 11
M  V30 11 1 10 12
M  V30 12 1 10 13
M  V30 13 2 11 14
M  V30 14 2 12 15
M  V30 15 1 12 16
M  V30 16 1 13 17
M  V30 17 1 6 7
M  V30 18 1 14 15
M  V30 19 2 16 17
M  V30 20 1 2 18
M  V30 21 1 3 19
M  V30 22 1 3 20
M  V30 23 1 4 21
M  V30 24 1 4 22
M  V30 25 1 5 23
M  V30 26 1 5 24
M  V30 27 1 6 25
M  V30 28 1 6 26
M  V30 29 1 7 27
M  V30 30 1 11 28
M  V30 31 1 13 29
M  V30 32 1 13 30
M  V30 33 1 14 31
M  V30 34 1 15 32
M  V30 35 1 16 33
M  V30 36 1 17 34
M  V30 END BOND
M  V30 BEGIN COLLECTION
M  V30 MDLV30/STERAC1 ATOMS=(1 2)
M  V30 END COLLECTION
M  V30 END CTAB
M  END
>  <NO.>
1086

>  <Name>
indeloxazine

>  <SMILES>
C1=Cc2cccc(OCC3CNCCO3)c2C1

>  <logBB>


>  <Class>
1

>  <MW>
231.13

>  <nHBAcc>
3

>  <nHBDon>
1

>  <SLogP>
1.62

>  <TopoPSA>
30.49

>  <MMFF94 Energy>
104.95

$$$$
C=C(C)CNCC(=O)N(C)c1ccc(Cl)cc1C(=O)c1ccccc1
Actelion Java MolfileCreator 2.0

  0  0  0  0  0  0              0 V3000
M  V30 BEGIN CTAB
M  V30 COUNTS 46 47 0 0 0
M  V30 BEGIN ATOM
M  V30 1 Cl 5.5058 -2.6303 -1.6732 0
M  V30 2 C 3.8916 -2.1437 -1.3304 0
M  V30 3 C 3.6497 -1.2332 -0.3037 0
M  V30 4 C 2.8393 -2.6623 -2.0819 0
M  V30 5 C 2.3348 -0.8272 -0.0315 0
M  V30 6 C 1.5279 -2.2719 -1.8021 0
M  V30 7 C 1.2639 -1.3568 -0.7739 0
M  V30 8 C 2.1058 0.1283 1.0781 0
M  V30 9 N -0.085 -0.9892 -0.5289 0
M  V30 10 O 1.3102 -0.1552 1.9686 0
M  V30 11 C 2.8308 1.4286 1.1228 0
M  V30 12 C -0.9474 -1.9287 0.0363 0
M  V30 13 C -0.4698 0.3822 -0.8324 0
M  V30 14 C 3.3353 2.0395 -0.0326 0
M  V30 15 C 2.9756 2.0663 2.3614 0
M  V30 16 O -0.66 -3.1246 0.1628 0
M  V30 17 C -2.3327 -1.4388 0.4798 0
M  V30 18 C 3.9999 3.2649 0.059 0
M  V30 19 C 3.6401 3.2907 2.4481 0
M  V30 20 N -3.2891 -1.639 -0.6269 0
M  V30 21 C 4.1543 3.8871 1.2977 0
M  V30 22 C -4.6595 -1.3632 -0.1985 0
M  V30 23 C -4.938 0.1104 -0.031 0
M  V30 24 C -5.2763 0.6397 1.1574 0
M  V30 25 C -4.8567 0.9554 -1.2719 0
M  V30 26 H 4.479 -0.8563 0.2899 0
M  V30 27 H 3.0278 -3.3807 -2.8756 0
M  V30 28 H 0.7077 -2.6975 -2.3765 0
M  V30 29 H -1.4364 0.3886 -1.3422 0
M  V30 30 H -0.5571 0.9489 0.099 0
M  V30 31 H 0.2666 0.8607 -1.4859 0
M  V30 32 H 3.2116 1.589 -1.0134 0
M  V30 33 H 2.5723 1.6095 3.2636 0
M  V30 34 H -2.6184 -2.0376 1.3537 0
M  V30 35 H -2.2898 -0.3948 0.8001 0
M  V30 36 H 4.3936 3.739 -0.8371 0
M  V30 37 H 3.7534 3.779 3.413 0
M  V30 38 H -3.2328 -2.6246 -0.8937 0
M  V30 39 H 4.6707 4.8418 1.3663 0
M  V30 40 H -5.3413 -1.7469 -0.9679 0
M  V30 41 H -4.8978 -1.9263 0.7128 0
M  V30 42 H -5.3461 0.029 2.0526 0
M  V30 43 H -5.4878 1.699 1.2686 0
M  V30 44 H -5.1313 1.9976 -1.0764 0
M  V30 45 H -3.8412 0.953 -1.6784 0
M  V30 46 H -5.5394 0.5722 -2.0373 0
M  V30 END ATOM
M  V30 BEGIN BOND
M  V30 1 1 1 2
M  V30 2 2 2 3
M  V30 3 1 2 4
M  V30 4 1 3 5
M  V30 5 2 4 6
M  V30 6 2 5 7
M  V30 7 1 5 8
M  V30 8 1 7 9
M  V30 9 2 8 10
M  V30 10 1 8 11
M  V30 11 1 9 12
M  V30 12 1 9 13
M  V30 13 2 11 14
M  V30 14 1 11 15
M  V30 15 2 12 16
M  V30 16 1 12 17
M  V30 17 1 14 18
M  V30 18 2 15 19
M  V30 19 1 17 20
M  V30 20 2 18 21
M  V30 21 1 20 22
M  V30 22 1 22 23
M  V30 23 2 23 24
M  V30 24 1 23 25
M  V30 25 1 6 7
M  V30 26 1 19 21
M  V30 27 1 3 26
M  V30 28 1 4 27
M  V30 29 1 6 28
M  V30 30 1 13 29
M  V30 31 1 13 30
M  V30 32 1 13 31
M  V30 33 1 14 32
M  V30 34 1 15 33
M  V30 35 1 17 34
M  V30 36 1 17 35
M  V30 37 1 18 36
M  V30 38 1 19 37
M  V30 39 1 20 38
M  V30 40 1 21 39
M  V30 41 1 22 40
M  V30 42 1 22 41
M  V30 43 1 24 42
M  V30 44 1 24 43
M  V30 45 1 25 44
M  V30 46 1 25 45
M  V30 47 1 25 46
M  V30 END BOND
M  V30 END CTAB
M  END
>  <NO.>
1087

>  <Name>
dinazafone

>  <SMILES>
C=C(C)CNCC(=O)N(C)c1ccc(Cl)cc1C(=O)c1ccccc1

>  <logBB>


>  <Class>
1

>  <MW>
356.13

>  <nHBAcc>
3

>  <nHBDon>
1

>  <SLogP>
3.7

>  <TopoPSA>
49.41

>  <MMFF94 Energy>
101.26

$$$$
C=C(CC)C(=O)c1ccc(OCC(=O)O)c(Cl)c1Cl
Actelion Java MolfileCreator 2.0

  0  0  0  0  0  0              0 V3000
M  V30 BEGIN CTAB
M  V30 COUNTS 31 31 0 0 0
M  V30 BEGIN ATOM
M  V30 1 Cl 0.4882 -2.6873 2.6873 0
M  V30 2 C 0.5678 -1.4942 1.4219 0
M  V30 3 C -0.1203 -0.2736 1.5456 0
M  V30 4 C 1.338 -1.7729 0.2698 0
M  V30 5 Cl -1.0223 0.1023 2.9815 0
M  V30 6 C -0.0478 0.6518 0.4976 0
M  V30 7 O 1.9704 -2.9897 0.2306 0
M  V30 8 C 1.4154 -0.8202 -0.7511 0
M  V30 9 C -0.7275 1.9584 0.5434 0
M  V30 10 C 0.7303 0.3894 -0.6357 0
M  V30 11 C 2.8371 -3.2638 -0.8629 0
M  V30 12 O -0.0328 2.9664 0.624 0
M  V30 13 C -2.2236 2.0305 0.4428 0
M  V30 14 C 3.4823 -4.6282 -0.7011 0
M  V30 15 C -2.975 0.989 0.0457 0
M  V30 16 C -2.8428 3.3527 0.8268 0
M  V30 17 O 3.3237 -5.4369 0.1971 0
M  V30 18 O 4.3223 -4.9115 -1.7222 0
M  V30 19 C -2.8204 4.359 -0.3157 0
M  V30 20 H 2.0008 -0.9826 -1.6511 0
M  V30 21 H 0.806 1.1325 -1.4286 0
M  V30 22 H 3.6429 -2.5219 -0.8981 0
M  V30 23 H 2.2646 -3.2826 -1.797 0
M  V30 24 H -4.0571 1.0782 -0.0093 0
M  V30 25 H -2.5655 0.0285 -0.2457 0
M  V30 26 H -2.3268 3.7697 1.7002 0
M  V30 27 H -3.8835 3.2024 1.1415 0
M  V30 28 H 4.6663 -5.8025 -1.4954 0
M  V30 29 H -3.2936 5.2949 -0.0013 0
M  V30 30 H -3.3676 3.9809 -1.1859 0
M  V30 31 H -1.7981 4.59 -0.631 0
M  V30 END ATOM
M  V30 BEGIN BOND
M  V30 1 1 1 2
M  V30 2 2 2 3
M  V30 3 1 2 4
M  V30 4 1 3 5
M  V30 5 1 3 6
M  V30 6 1 4 7
M  V30 7 2 4 8
M  V30 8 1 6 9
M  V30 9 2 6 10
M  V30 10 1 7 11
M  V30 11 2 9 12
M  V30 12 1 9 13
M  V30 13 1 11 14
M  V30 14 2 13 15
M  V30 15 1 13 16
M  V30 16 2 14 17
M  V30 17 1 14 18
M  V30 18 1 16 19
M  V30 19 1 8 10
M  V30 20 1 8 20
M  V30 21 1 10 21
M  V30 22 1 11 22
M  V30 23 1 11 23
M  V30 24 1 15 24
M  V30 25 1 15 25
M  V30 26 1 16 26
M  V30 27 1 16 27
M  V30 28 1 18 28
M  V30 29 1 19 29
M  V30 30 1 19 30
M  V30 31 1 19 31
M  V30 END BOND
M  V30 END CTAB
M  END
>  <NO.>
1089

>  <Name>
etacrynicacid

>  <SMILES>
C=C(CC)C(=O)c1ccc(OCC(=O)O)c(Cl)c1Cl

>  <logBB>


>  <Class>
-1

>  <MW>
302.01

>  <nHBAcc>
3

>  <nHBDon>
1

>  <SLogP>
3.61

>  <TopoPSA>
63.6

>  <MMFF94 Energy>
69.385

$$$$
C=C1CC2C3C=CC4=CC(=O)CCC4(C)C3C(O)CC2(C)[C@@]1(O)C(=O)CO
Actelion Java MolfileCreator 2.0

  0  0  0  0  0  0              0 V3000
M  V30 BEGIN CTAB
M  V30 COUNTS 55 58 0 0 0
M  V30 BEGIN ATOM
M  V30 1 O 2.0975 -1.2097 -6.0597 0
M  V30 2 C 1.683 -1.3287 -4.9083 0
M  V30 3 C 2.3468 -0.5683 -3.8216 0
M  V30 4 C 0.5546 -2.2672 -4.5576 0
M  V30 5 C 1.9938 -0.7147 -2.5323 0
M  V30 6 C -0.1209 -1.8366 -3.2594 0
M  V30 7 C 2.7189 0.0124 -1.5088 0
M  V30 8 C 0.8665 -1.6465 -2.0743 0
M  V30 9 C 2.3941 -0.0324 -0.2109 0
M  V30 10 C 0.1488 -1.0873 -0.7637 0
M  V30 11 C 1.4908 -3.0328 -1.7417 0
M  V30 12 C 1.2081 -0.7882 0.3428 0
M  V30 13 C -0.7837 0.1317 -0.998 0
M  V30 14 C 0.6464 -0.0844 1.596 0
M  V30 15 O -1.9294 -0.289 -1.7464 0
M  V30 16 C -1.3507 0.7304 0.2943 0
M  V30 17 C -0.2979 1.1186 1.3519 0
M  V30 18 C -0.1889 -1.0347 2.4748 0
M  V30 19 C -0.918 1.3168 2.7815 0 CFG=1
M  V30 20 C 0.4653 2.3703 0.8822 0
M  V30 21 C -1.0414 -0.1073 3.302 0
M  V30 22 O 0.0329 1.9598 3.6327 0
M  V30 23 C -2.2609 2.0997 2.7644 0
M  V30 24 C -1.7792 -0.5277 4.3409 0
M  V30 25 O -3.3479 1.5883 2.4724 0
M  V30 26 C -2.2008 3.5782 3.1323 0
M  V30 27 O -3.4264 4.2384 2.8389 0
M  V30 28 H 3.1504 0.0839 -4.1456 0
M  V30 29 H 0.9444 -3.2872 -4.5016 0
M  V30 30 H -0.1821 -2.2334 -5.3682 0
M  V30 31 H -0.904 -2.5574 -2.9955 0
M  V30 32 H -0.6132 -0.8866 -3.4936 0
M  V30 33 H 3.5872 0.5959 -1.811 0
M  V30 34 H 3.0349 0.4928 0.4953 0
M  V30 35 H -0.4962 -1.9008 -0.4005 0
M  V30 36 H 2.0152 -3.4698 -2.5978 0
M  V30 37 H 2.2328 -2.9817 -0.9392 0
M  V30 38 H 0.715 -3.7422 -1.4321 0
M  V30 39 H 1.6127 -1.7443 0.7009 0
M  V30 40 H -0.2717 0.9021 -1.5836 0
M  V30 41 H 1.4948 0.2496 2.214 0
M  V30 42 H -2.4907 0.4916 -1.8999 0
M  V30 43 H -1.9574 1.6088 0.0335 0
M  V30 44 H -2.0734 0.0134 0.7068 0
M  V30 45 H -0.8289 -1.6926 1.8782 0
M  V30 46 H 0.4633 -1.6542 3.0994 0
M  V30 47 H -0.2004 3.2372 0.8289 0
M  V30 48 H 0.893 2.2464 -0.1158 0
M  V30 49 H 1.2908 2.6222 1.5561 0
M  V30 50 H -0.0864 1.6076 4.5332 0
M  V30 51 H -1.8003 -1.5764 4.6256 0
M  V30 52 H -2.4012 0.1483 4.9199 0
M  V30 53 H -2.0107 3.6687 4.2051 0
M  V30 54 H -1.409 4.0774 2.5717 0
M  V30 55 H -4.1156 3.5432 2.8252 0
M  V30 END ATOM
M  V30 BEGIN BOND
M  V30 1 2 1 2
M  V30 2 1 2 3
M  V30 3 1 2 4
M  V30 4 2 3 5
M  V30 5 1 4 6
M  V30 6 1 5 7
M  V30 7 1 5 8
M  V30 8 2 7 9
M  V30 9 1 8 10
M  V30 10 1 8 11
M  V30 11 1 9 12
M  V30 12 1 10 13
M  V30 13 1 12 14
M  V30 14 1 13 15
M  V30 15 1 13 16
M  V30 16 1 14 17
M  V30 17 1 14 18
M  V30 18 1 17 19
M  V30 19 1 17 20
M  V30 20 1 18 21
M  V30 21 1 19 22
M  V30 22 1 19 23
M  V30 23 2 21 24
M  V30 24 2 23 25
M  V30 25 1 23 26
M  V30 26 1 26 27
M  V30 27 1 6 8
M  V30 28 1 10 12
M  V30 29 1 16 17
M  V30 30 1 19 21
M  V30 31 1 3 28
M  V30 32 1 4 29
M  V30 33 1 4 30
M  V30 34 1 6 31
M  V30 35 1 6 32
M  V30 36 1 7 33
M  V30 37 1 9 34
M  V30 38 1 10 35
M  V30 39 1 11 36
M  V30 40 1 11 37
M  V30 41 1 11 38
M  V30 42 1 12 39
M  V30 43 1 13 40
M  V30 44 1 14 41
M  V30 45 1 15 42
M  V30 46 1 16 43
M  V30 47 1 16 44
M  V30 48 1 18 45
M  V30 49 1 18 46
M  V30 50 1 20 47
M  V30 51 1 20 48
M  V30 52 1 20 49
M  V30 53 1 22 50
M  V30 54 1 24 51
M  V30 55 1 24 52
M  V30 56 1 26 53
M  V30 57 1 26 54
M  V30 58 1 27 55
M  V30 END BOND
M  V30 BEGIN COLLECTION
M  V30 MDLV30/STEABS ATOMS=(1 19)
M  V30 END COLLECTION
M  V30 END CTAB
M  END
>  <NO.>
1090

>  <Name>
isoprednidene

>  <SMILES>
C=C1CC2C3C=CC4=CC(=O)CCC4(C)C3C(O)CC2(C)[C@@]1(O)C(=O)CO

>  <logBB>


>  <Class>
1

>  <MW>
372.19

>  <nHBAcc>
5

>  <nHBDon>
3

>  <SLogP>
1.72

>  <TopoPSA>
94.83

>  <MMFF94 Energy>
122.57

$$$$
C=C1CC2C3CCC4=CC(=O)C=CC4(C)C3C(O)CC2(C)C1(O)C(=O)CO
Actelion Java MolfileCreator 2.0

  0  0  0  0  0  0              0 V3000
M  V30 BEGIN CTAB
M  V30 COUNTS 55 58 0 0 0
M  V30 BEGIN ATOM
M  V30 1 O 3.9563 -1.8555 4.8461 0
M  V30 2 C 3.5227 -1.2646 3.8656 0
M  V30 3 C 3.4458 -1.9189 2.5453 0
M  V30 4 C 3.0526 0.1279 3.9519 0
M  V30 5 C 2.9693 -1.2831 1.4595 0
M  V30 6 C 2.5797 0.7624 2.8714 0
M  V30 7 C 2.4628 0.1708 1.4708 0
M  V30 8 C 2.8506 -2.0262 0.1549 0
M  V30 9 C 0.9643 0.1602 0.9507 0
M  V30 10 C 3.3829 1.0341 0.5776 0
M  V30 11 C 1.4026 -2.0272 -0.3172 0
M  V30 12 C 0.265 1.5566 0.8778 0
M  V30 13 C 0.8405 -0.6008 -0.4203 0
M  V30 14 O 0.1337 2.1439 2.171 0
M  V30 15 C -1.1583 1.5131 0.2817 0
M  V30 16 C -0.6268 -0.6165 -0.8688 0
M  V30 17 C -1.21 0.7988 -1.0744 0
M  V30 18 C -0.9815 -1.3422 -2.1658 0
M  V30 19 C -2.6295 0.4674 -1.6396 0
M  V30 20 C -0.4208 1.6544 -2.1111 0
M  V30 21 C -2.3473 -0.772 -2.4981 0
M  V30 22 O -3.1119 1.5315 -2.4484 0
M  V30 23 C -3.6724 0.1129 -0.5414 0
M  V30 24 C -3.1697 -1.3329 -3.3987 0
M  V30 25 O -3.7291 -0.9855 0.023 0
M  V30 26 C -4.6469 1.2177 -0.1454 0
M  V30 27 O -5.3511 0.8869 1.0458 0
M  V30 28 H 3.7828 -2.9491 2.5239 0
M  V30 29 H 3.1295 0.6063 4.9205 0
M  V30 30 H 2.2956 1.8055 2.9977 0
M  V30 31 H 3.1914 -3.0642 0.252 0
M  V30 32 H 3.4968 -1.5626 -0.5989 0
M  V30 33 H 0.3935 -0.4222 1.6928 0
M  V30 34 H 3.3437 0.7467 -0.4768 0
M  V30 35 H 4.4315 0.9491 0.8913 0
M  V30 36 H 3.1208 2.0971 0.6308 0
M  V30 37 H 0.7887 -2.622 0.3717 0
M  V30 38 H 1.3558 -2.5243 -1.2929 0
M  V30 39 H 0.8763 2.2457 0.2889 0
M  V30 40 H 1.4347 -0.0806 -1.1786 0
M  V30 41 H -0.3894 1.5405 2.7286 0
M  V30 42 H -1.5512 2.5347 0.1975 0
M  V30 43 H -1.8116 1.0151 1.0095 0
M  V30 44 H -1.1838 -1.1196 -0.0626 0
M  V30 45 H -1.021 -2.4261 -2.0177 0
M  V30 46 H -0.2656 -1.1154 -2.9627 0
M  V30 47 H -0.8474 2.6621 -2.1814 0
M  V30 48 H 0.6326 1.7818 -1.8512 0
M  V30 49 H -0.4475 1.2212 -3.1162 0
M  V30 50 H -3.3559 1.1741 -3.3189 0
M  V30 51 H -2.8764 -2.2281 -3.9409 0
M  V30 52 H -4.1624 -0.943 -3.6005 0
M  V30 53 H -4.1044 2.1487 0.033 0
M  V30 54 H -5.3743 1.3564 -0.9495 0
M  V30 55 H -5.3689 -0.0903 1.0895 0
M  V30 END ATOM
M  V30 BEGIN BOND
M  V30 1 2 1 2
M  V30 2 1 2 3
M  V30 3 1 2 4
M  V30 4 2 3 5
M  V30 5 2 4 6
M  V30 6 1 5 7
M  V30 7 1 5 8
M  V30 8 1 7 9
M  V30 9 1 7 10
M  V30 10 1 8 11
M  V30 11 1 9 12
M  V30 12 1 9 13
M  V30 13 1 12 14
M  V30 14 1 12 15
M  V30 15 1 13 16
M  V30 16 1 15 17
M  V30 17 1 16 18
M  V30 18 1 17 19
M  V30 19 1 17 20
M  V30 20 1 18 21
M  V30 21 1 19 22
M  V30 22 1 19 23
M  V30 23 2 21 24
M  V30 24 2 23 25
M  V30 25 1 23 26
M  V30 26 1 26 27
M  V30 27 1 6 7
M  V30 28 1 11 13
M  V30 29 1 16 17
M  V30 30 1 19 21
M  V30 31 1 3 28
M  V30 32 1 4 29
M  V30 33 1 6 30
M  V30 34 1 8 31
M  V30 35 1 8 32
M  V30 36 1 9 33
M  V30 37 1 10 34
M  V30 38 1 10 35
M  V30 39 1 10 36
M  V30 40 1 11 37
M  V30 41 1 11 38
M  V30 42 1 12 39
M  V30 43 1 13 40
M  V30 44 1 14 41
M  V30 45 1 15 42
M  V30 46 1 15 43
M  V30 47 1 16 44
M  V30 48 1 18 45
M  V30 49 1 18 46
M  V30 50 1 20 47
M  V30 51 1 20 48
M  V30 52 1 20 49
M  V30 53 1 22 50
M  V30 54 1 24 51
M  V30 55 1 24 52
M  V30 56 1 26 53
M  V30 57 1 26 54
M  V30 58 1 27 55
M  V30 END BOND
M  V30 END CTAB
M  END
>  <NO.>
1091

>  <Name>
prednylidene

>  <SMILES>
C=C1CC2C3CCC4=CC(=O)C=CC4(C)C3C(O)CC2(C)C1(O)C(=O)CO

>  <logBB>


>  <Class>
1

>  <MW>
372.19

>  <nHBAcc>
5

>  <nHBDon>
3

>  <SLogP>
1.72

>  <TopoPSA>
94.83

>  <MMFF94 Energy>
140.02

$$$$
C=C1CC[C@@]2(O)[C@H]3Cc4ccc(O)c5c4[C@@]2(CCN3CC2CC2)[C@H]1O5
Actelion Java MolfileCreator 2.0

  0  0  0  0  0  0              0 V3000
M  V30 BEGIN CTAB
M  V30 COUNTS 50 55 0 0 0
M  V30 BEGIN ATOM
M  V30 1 O -1.8646 2.1892 -2.0269 0
M  V30 2 C -1.6063 0.8627 -2.2921 0
M  V30 3 C -1.5497 2.316 -0.5942 0 CFG=1
M  V30 4 C -2.0629 0.1038 -3.3444 0
M  V30 5 C -0.8288 0.286 -1.3078 0
M  V30 6 C -2.8178 2.0757 0.2367 0
M  V30 7 C -0.3998 1.3218 -0.3227 0 CFG=2
M  V30 8 O -2.814 0.6754 -4.3238 0
M  V30 9 C -1.7564 -1.2632 -3.3579 0
M  V30 10 C -0.5452 -1.0657 -1.2522 0
M  V30 11 C -4.0579 2.2827 -0.243 0
M  V30 12 C -2.6204 1.5452 1.6362 0
M  V30 13 C -0.3002 0.7132 1.0836 0 CFG=2
M  V30 14 C 0.9804 1.8657 -0.753 0
M  V30 15 C -1.0164 -1.8496 -2.3059 0
M  V30 16 C 0.1546 -1.6049 -0.0314 0
M  V30 17 C -1.6777 0.3364 1.6556 0
M  V30 18 O 0.2619 1.6439 2.0387 0
M  V30 19 C 0.6976 -0.5022 0.9474 0 CFG=1
M  V30 20 C 2.0765 0.7903 -0.6647 0
M  V30 21 N 2.0507 0.0327 0.5926 0
M  V30 22 C 3.1431 -0.9418 0.6374 0
M  V30 23 C 3.3255 -1.5016 2.0167 0
M  V30 24 C 2.8004 -2.8677 2.3871 0
M  V30 25 C 4.2789 -2.6503 2.2367 0
M  V30 26 H -1.2171 3.3457 -0.4128 0
M  V30 27 H -3.0575 -0.0058 -4.9694 0
M  V30 28 H -2.1076 -1.9004 -4.1646 0
M  V30 29 H -4.2206 2.6466 -1.2546 0
M  V30 30 H -4.9446 2.0911 0.3528 0
M  V30 31 H -2.2278 2.3496 2.2694 0
M  V30 32 H -3.5775 1.2449 2.0807 0
M  V30 33 H 0.9575 2.2566 -1.7788 0
M  V30 34 H 1.2574 2.7139 -0.1137 0
M  V30 35 H -0.8288 -2.9208 -2.3189 0
M  V30 36 H -0.5743 -2.2117 0.5216 0
M  V30 37 H 0.9493 -2.2903 -0.3398 0
M  V30 38 H -1.5667 0.0037 2.6954 0
M  V30 39 H -2.141 -0.4897 1.1056 0
M  V30 40 H 0.0032 2.5483 1.8021 0
M  V30 41 H 0.7812 -0.9492 1.9454 0
M  V30 42 H 3.0428 1.3013 -0.7632 0
M  V30 43 H 2.003 0.1139 -1.5254 0
M  V30 44 H 4.083 -0.4332 0.3863 0
M  V30 45 H 3.0179 -1.7363 -0.1066 0
M  V30 46 H 3.3201 -0.7237 2.7739 0
M  V30 47 H 2.2968 -3.4574 1.6307 0
M  V30 48 H 2.4032 -2.9969 3.3877 0
M  V30 49 H 4.772 -3.0895 1.3772 0
M  V30 50 H 4.8848 -2.6372 3.1358 0
M  V30 END ATOM
M  V30 BEGIN BOND
M  V30 1 1 1 2
M  V30 2 1 1 3
M  V30 3 2 2 4
M  V30 4 1 2 5
M  V30 5 1 3 6
M  V30 6 1 3 7
M  V30 7 1 4 8
M  V30 8 1 4 9
M  V30 9 2 5 10
M  V30 10 2 6 11
M  V30 11 1 6 12
M  V30 12 1 7 13
M  V30 13 1 7 14
M  V30 14 2 9 15
M  V30 15 1 10 16
M  V30 16 1 12 17
M  V30 17 1 13 18
M  V30 18 1 13 19
M  V30 19 1 14 20
M  V30 20 1 19 21
M  V30 21 1 21 22
M  V30 22 1 22 23
M  V30 23 1 23 24
M  V30 24 1 23 25
M  V30 25 1 5 7
M  V30 26 1 10 15
M  V30 27 1 13 17
M  V30 28 1 16 19
M  V30 29 1 20 21
M  V30 30 1 24 25
M  V30 31 1 3 26
M  V30 32 1 8 27
M  V30 33 1 9 28
M  V30 34 1 11 29
M  V30 35 1 11 30
M  V30 36 1 12 31
M  V30 37 1 12 32
M  V30 38 1 14 33
M  V30 39 1 14 34
M  V30 40 1 15 35
M  V30 41 1 16 36
M  V30 42 1 16 37
M  V30 43 1 17 38
M  V30 44 1 17 39
M  V30 45 1 18 40
M  V30 46 1 19 41
M  V30 47 1 20 42
M  V30 48 1 20 43
M  V30 49 1 22 44
M  V30 50 1 22 45
M  V30 51 1 23 46
M  V30 52 1 24 47
M  V30 53 1 24 48
M  V30 54 1 25 49
M  V30 55 1 25 50
M  V30 END BOND
M  V30 BEGIN COLLECTION
M  V30 MDLV30/STEABS ATOMS=(4 3 7 13 19)
M  V30 END COLLECTION
M  V30 END CTAB
M  END
>  <NO.>
1092

>  <Name>
nalmefene

>  <SMILES>
C=C1CC[C@@]2(O)[C@H]3Cc4ccc(O)c5c4[C@@]2(CCN3CC2CC2)[C@H]1O5

>  <logBB>


>  <Class>
1

>  <MW>
339.18

>  <nHBAcc>
4

>  <nHBDon>
2

>  <SLogP>
2.51

>  <TopoPSA>
52.93

>  <MMFF94 Energy>
126.05

$$$$
C=C1C[C@H](C)[C@H]2[C@H]3Cc4ccc(O)cc4[C@@]2(CCN3CC2CCC2)C1
Actelion Java MolfileCreator 2.0

  0  0  0  0  0  0              0 V3000
M  V30 BEGIN CTAB
M  V30 COUNTS 56 60 0 0 0
M  V30 BEGIN ATOM
M  V30 1 O 1.1246 5.4713 -1.3657 0
M  V30 2 C 1.3351 4.1235 -1.338 0
M  V30 3 C 0.319 3.3205 -0.8272 0
M  V30 4 C 2.5207 3.5696 -1.7965 0
M  V30 5 C 0.4604 1.9226 -0.7737 0
M  V30 6 C 2.6929 2.1893 -1.7303 0
M  V30 7 C 1.6814 1.3604 -1.2127 0
M  V30 8 C -0.6429 1.0185 -0.1845 0 CFG=2
M  V30 9 C 1.9451 -0.1294 -1.1581 0
M  V30 10 C -0.5465 -0.4221 -0.7783 0 CFG=2
M  V30 11 C -2.0901 1.538 -0.4254 0
M  V30 12 C -0.4042 0.9237 1.3476 0
M  V30 13 C 0.8579 -0.9709 -0.4494 0 CFG=2
M  V30 14 C -0.9371 -0.4699 -2.2904 0 CFG=2
M  V30 15 C -2.4842 1.4718 -1.8805 0
M  V30 16 C 0.9097 0.2177 1.7014 0
M  V30 17 N 1.1023 -1.0694 1.0198 0
M  V30 18 C -2.3505 0.108 -2.5022 0
M  V30 19 C -0.8886 -1.8924 -2.858 0
M  V30 20 C -2.9089 2.5432 -2.5676 0
M  V30 21 C 0.3399 -2.1786 1.6279 0
M  V30 22 C 0.8978 -2.5838 3.0011 0
M  V30 23 C 0.1784 -2.0194 4.2616 0
M  V30 24 C 0.449 -3.9893 3.495 0
M  V30 25 C -0.6744 -3.3004 4.2872 0
M  V30 26 H 1.9075 5.8957 -1.7525 0
M  V30 27 H -0.579 3.8132 -0.4688 0
M  V30 28 H 3.3176 4.1875 -2.1961 0
M  V30 29 H 3.6272 1.7536 -2.0782 0
M  V30 30 H 2.0337 -0.4826 -2.1942 0
M  V30 31 H 2.9191 -0.3117 -0.6851 0
M  V30 32 H -1.2878 -1.052 -0.2648 0
M  V30 33 H -2.2305 2.546 -0.0189 0
M  V30 34 H -2.7989 0.9077 0.1308 0
M  V30 35 H -1.2331 0.3781 1.8178 0
M  V30 36 H -0.4029 1.9245 1.7992 0
M  V30 37 H 0.9667 -1.9872 -0.8462 0
M  V30 38 H -0.2398 0.138 -2.8795 0
M  V30 39 H 1.7565 0.8718 1.4621 0
M  V30 40 H 0.9823 0.1066 2.7874 0
M  V30 41 H -2.5735 0.1451 -3.576 0
M  V30 42 H -3.0986 -0.5563 -2.0501 0
M  V30 43 H -1.5 -2.5788 -2.2626 0
M  V30 44 H -1.2635 -1.9127 -3.8872 0
M  V30 45 H 0.1346 -2.2778 -2.8832 0
M  V30 46 H -2.9876 3.5214 -2.1029 0
M  V30 47 H -3.1792 2.4749 -3.6169 0
M  V30 48 H -0.7318 -1.9597 1.6911 0
M  V30 49 H 0.4398 -3.0553 0.9753 0
M  V30 50 H 1.9904 -2.4784 3.0325 0
M  V30 51 H 0.8398 -1.9157 5.1299 0
M  V30 52 H -0.3911 -1.0946 4.1422 0
M  V30 53 H 1.1917 -4.4834 4.1331 0
M  V30 54 H 0.1203 -4.6991 2.7311 0
M  V30 55 H -0.8804 -3.7141 5.2776 0
M  V30 56 H -1.617 -3.2156 3.7347 0
M  V30 END ATOM
M  V30 BEGIN BOND
M  V30 1 1 1 2
M  V30 2 2 2 3
M  V30 3 1 2 4
M  V30 4 1 3 5
M  V30 5 2 4 6
M  V30 6 2 5 7
M  V30 7 1 5 8
M  V30 8 1 7 9
M  V30 9 1 8 10
M  V30 10 1 8 11
M  V30 11 1 8 12
M  V30 12 1 9 13
M  V30 13 1 10 14
M  V30 14 1 11 15
M  V30 15 1 12 16
M  V30 16 1 13 17
M  V30 17 1 14 18
M  V30 18 1 14 19
M  V30 19 2 15 20
M  V30 20 1 17 21
M  V30 21 1 21 22
M  V30 22 1 22 23
M  V30 23 1 22 24
M  V30 24 1 23 25
M  V30 25 1 6 7
M  V30 26 1 10 13
M  V30 27 1 15 18
M  V30 28 1 16 17
M  V30 29 1 24 25
M  V30 30 1 1 26
M  V30 31 1 3 27
M  V30 32 1 4 28
M  V30 33 1 6 29
M  V30 34 1 9 30
M  V30 35 1 9 31
M  V30 36 1 10 32
M  V30 37 1 11 33
M  V30 38 1 11 34
M  V30 39 1 12 35
M  V30 40 1 12 36
M  V30 41 1 13 37
M  V30 42 1 14 38
M  V30 43 1 16 39
M  V30 44 1 16 40
M  V30 45 1 18 41
M  V30 46 1 18 42
M  V30 47 1 19 43
M  V30 48 1 19 44
M  V30 49 1 19 45
M  V30 50 1 20 46
M  V30 51 1 20 47
M  V30 52 1 21 48
M  V30 53 1 21 49
M  V30 54 1 22 50
M  V30 55 1 23 51
M  V30 56 1 23 52
M  V30 57 1 24 53
M  V30 58 1 24 54
M  V30 59 1 25 55
M  V30 60 1 25 56
M  V30 END BOND
M  V30 BEGIN COLLECTION
M  V30 MDLV30/STEABS ATOMS=(4 8 10 13 14)
M  V30 END COLLECTION
M  V30 END CTAB
M  END
>  <NO.>
1093

>  <Name>
xorphanol

>  <SMILES>
C=C1C[C@H](C)[C@H]2[C@H]3Cc4ccc(O)cc4[C@@]2(CCN3CC2CCC2)C1

>  <logBB>


>  <Class>
1

>  <MW>
337.24

>  <nHBAcc>
2

>  <nHBDon>
1

>  <SLogP>
4.66

>  <TopoPSA>
23.47

>  <MMFF94 Energy>
82.861

$$$$
C=C1C[C@H]2[C@@H]3CCC4=CC(=O)C=C[C@]4(C)[C@@]3(F)C(O)C[C@]2(C)[C@@]1(O)C(=O)CO
Actelion Java MolfileCreator 2.0

  0  0  0  0  0  0              0 V3000
M  V30 BEGIN CTAB
M  V30 COUNTS 55 58 0 0 0
M  V30 BEGIN ATOM
M  V30 1 F 1.4578 1.5389 -0.5667 0
M  V30 2 C 0.925 0.3609 -1.0621 0 CFG=2
M  V30 3 C 1.871 -0.1041 -2.2515 0 CFG=2
M  V30 4 C -0.5445 0.7158 -1.4606 0
M  V30 5 C 0.9484 -0.6632 0.1262 0 CFG=2
M  V30 6 C 3.2586 -0.4292 -1.661 0
M  V30 7 C 1.9974 0.9475 -3.353 0
M  V30 8 C 1.3233 -1.3687 -2.9541 0
M  V30 9 O -0.5951 1.8316 -2.3548 0
M  V30 10 C -1.4399 1.0976 -0.2622 0
M  V30 11 C 0.0602 -0.1447 1.2666 0 CFG=1
M  V30 12 C 2.3837 -0.9119 0.6177 0
M  V30 13 C 4.4026 0.1437 -2.0771 0
M  V30 14 C 3.2877 -1.3984 -0.5082 0
M  V30 15 C 3.1385 1.5165 -3.763 0
M  V30 16 C -1.4222 0.0414 0.8519 0 CFG=1
M  V30 17 C -0.0254 -0.9692 2.5494 0
M  V30 18 C 4.4289 1.1514 -3.1549 0
M  V30 19 C -2.047 0.4685 2.2216 0 CFG=1
M  V30 20 C -2.0818 -1.2656 0.3288 0
M  V30 21 C -1.2726 -0.4133 3.2061 0
M  V30 22 O 5.4786 1.6576 -3.5294 0
M  V30 23 O -1.6896 1.8161 2.5239 0
M  V30 24 C -3.5895 0.2968 2.2783 0
M  V30 25 C -1.597 -0.6712 4.4823 0
M  V30 26 O -4.1505 -0.7477 2.6275 0
M  V30 27 C -4.4275 1.4998 1.8594 0
M  V30 28 O -5.7962 1.1484 1.6942 0
M  V30 29 H -1.0 -0.1258 -1.9894 0
M  V30 30 H 0.5568 -1.6267 -0.2153 0
M  V30 31 H 1.0884 1.2339 -3.8784 0
M  V30 32 H 0.3815 -1.1668 -3.4772 0
M  V30 33 H 1.1348 -2.1928 -2.2602 0
M  V30 34 H 2.0309 -1.742 -3.7059 0
M  V30 35 H -0.0587 2.5389 -1.9443 0
M  V30 36 H -1.1116 2.0734 0.1194 0
M  V30 37 H -2.4627 1.2627 -0.6224 0
M  V30 38 H 0.4716 0.8367 1.5563 0
M  V30 39 H 2.7966 0.0075 1.0527 0
M  V30 40 H 2.3854 -1.6662 1.413 0
M  V30 41 H 5.3679 -0.0813 -1.6376 0
M  V30 42 H 2.9688 -2.3901 -0.8485 0
M  V30 43 H 4.3042 -1.5232 -0.1154 0
M  V30 44 H 3.1702 2.2482 -4.561 0
M  V30 45 H 0.8599 -0.8239 3.1766 0
M  V30 46 H -0.1432 -2.0366 2.3361 0
M  V30 47 H -2.1304 -2.0473 1.0935 0
M  V30 48 H -1.5577 -1.6962 -0.5276 0
M  V30 49 H -3.108 -1.0717 -0.0042 0
M  V30 50 H -1.5888 1.8865 3.4905 0
M  V30 51 H -0.9761 -1.3131 5.1013 0
M  V30 52 H -2.4987 -0.2744 4.9394 0
M  V30 53 H -4.3611 2.2669 2.6353 0
M  V30 54 H -4.0673 1.8991 0.9104 0
M  V30 55 H -5.9394 0.3425 2.2309 0
M  V30 END ATOM
M  V30 BEGIN BOND
M  V30 1 1 1 2
M  V30 2 1 2 3
M  V30 3 1 2 4
M  V30 4 1 2 5
M  V30 5 1 3 6
M  V30 6 1 3 7
M  V30 7 1 3 8
M  V30 8 1 4 9
M  V30 9 1 4 10
M  V30 10 1 5 11
M  V30 11 1 5 12
M  V30 12 2 6 13
M  V30 13 1 6 14
M  V30 14 2 7 15
M  V30 15 1 10 16
M  V30 16 1 11 17
M  V30 17 1 13 18
M  V30 18 1 16 19
M  V30 19 1 16 20
M  V30 20 1 17 21
M  V30 21 2 18 22
M  V30 22 1 19 23
M  V30 23 1 19 24
M  V30 24 2 21 25
M  V30 25 2 24 26
M  V30 26 1 24 27
M  V30 27 1 27 28
M  V30 28 1 11 16
M  V30 29 1 12 14
M  V30 30 1 15 18
M  V30 31 1 19 21
M  V30 32 1 4 29
M  V30 33 1 5 30
M  V30 34 1 7 31
M  V30 35 1 8 32
M  V30 36 1 8 33
M  V30 37 1 8 34
M  V30 38 1 9 35
M  V30 39 1 10 36
M  V30 40 1 10 37
M  V30 41 1 11 38
M  V30 42 1 12 39
M  V30 43 1 12 40
M  V30 44 1 13 41
M  V30 45 1 14 42
M  V30 46 1 14 43
M  V30 47 1 15 44
M  V30 48 1 17 45
M  V30 49 1 17 46
M  V30 50 1 20 47
M  V30 51 1 20 48
M  V30 52 1 20 49
M  V30 53 1 23 50
M  V30 54 1 25 51
M  V30 55 1 25 52
M  V30 56 1 27 53
M  V30 57 1 27 54
M  V30 58 1 28 55
M  V30 END BOND
M  V30 BEGIN COLLECTION
M  V30 MDLV30/STEABS ATOMS=(6 2 3 5 11 16 19)
M  V30 END COLLECTION
M  V30 END CTAB
M  END
>  <NO.>
1094

>  <Name>
fluprednidene

>  <SMILES>
C=C1C[C@H]2[C@@H]3CCC4=CC(=O)C=C[C@]4(C)[C@@]3(F)C(O)C[C@]2(C)[C@@]1(O)C(=O)CO

>  <logBB>


>  <Class>
1

>  <MW>
390.18

>  <nHBAcc>
5

>  <nHBDon>
3

>  <SLogP>
1.82

>  <TopoPSA>
94.83

>  <MMFF94 Energy>
172.38

$$$$
C=C1Cc2c(CCN(CCC)CCC)ccc(O)c2N1
Actelion Java MolfileCreator 2.0

  0  0  0  0  0  0              0 V3000
M  V30 BEGIN CTAB
M  V30 COUNTS 46 47 0 0 0
M  V30 BEGIN ATOM
M  V30 1 O -4.694 2.3448 -2.2666 0
M  V30 2 C -3.6554 1.8986 -1.5044 0
M  V30 3 C -3.379 0.5481 -1.4553 0
M  V30 4 C -2.8565 2.7715 -0.7681 0
M  V30 5 N -4.0318 -0.4953 -2.1041 0
M  V30 6 C -2.3146 0.0522 -0.6798 0
M  V30 7 C -1.7906 2.2744 0.0074 0
M  V30 8 C -3.4538 -1.7024 -1.7987 0
M  V30 9 C -1.5046 0.8988 0.0672 0
M  V30 10 C -2.2761 -1.4524 -0.8414 0
M  V30 11 C -3.8271 -2.9071 -2.2393 0
M  V30 12 C -0.3469 0.3884 0.8843 0
M  V30 13 C 0.945 0.3173 0.0576 0
M  V30 14 N 2.0617 -0.1524 0.9053 0
M  V30 15 C 3.1277 0.8604 1.0196 0
M  V30 16 C 2.6229 -1.4263 0.4184 0
M  V30 17 C 2.686 2.0868 1.8301 0
M  V30 18 C 1.655 -2.6018 0.6087 0
M  V30 19 C 3.8303 3.0752 2.0022 0
M  V30 20 C 2.2895 -3.9148 0.1742 0
M  V30 21 H -4.7487 3.309 -2.1714 0
M  V30 22 H -3.0399 3.8415 -0.7806 0
M  V30 23 H -4.8278 -0.3584 -2.705 0
M  V30 24 H -1.1802 2.9786 0.5708 0
M  V30 25 H -2.4418 -1.9478 0.1198 0
M  V30 26 H -1.3326 -1.766 -1.2974 0
M  V30 27 H -4.6683 -3.0208 -2.9137 0
M  V30 28 H -3.2998 -3.8039 -1.9337 0
M  V30 29 H -0.5955 -0.5978 1.2951 0
M  V30 30 H -0.207 1.0438 1.7536 0
M  V30 31 H 0.7922 -0.3357 -0.8113 0
M  V30 32 H 1.156 1.3012 -0.3817 0
M  V30 33 H 3.4845 1.1639 0.0267 0
M  V30 34 H 3.9869 0.4227 1.5443 0
M  V30 35 H 3.5301 -1.6634 0.9895 0
M  V30 36 H 2.9249 -1.3423 -0.6336 0
M  V30 37 H 1.8535 2.6038 1.341 0
M  V30 38 H 2.335 1.7714 2.82 0
M  V30 39 H 1.3644 -2.6773 1.6635 0
M  V30 40 H 0.7376 -2.4538 0.0301 0
M  V30 41 H 3.4983 3.9416 2.5829 0
M  V30 42 H 4.6712 2.615 2.5307 0
M  V30 43 H 4.1878 3.4332 1.0315 0
M  V30 44 H 1.586 -4.7409 0.3176 0
M  V30 45 H 2.5668 -3.8842 -0.8842 0
M  V30 46 H 3.1889 -4.1297 0.76 0
M  V30 END ATOM
M  V30 BEGIN BOND
M  V30 1 1 1 2
M  V30 2 2 2 3
M  V30 3 1 2 4
M  V30 4 1 3 5
M  V30 5 1 3 6
M  V30 6 2 4 7
M  V30 7 1 5 8
M  V30 8 2 6 9
M  V30 9 1 6 10
M  V30 10 2 8 11
M  V30 11 1 9 12
M  V30 12 1 12 13
M  V30 13 1 13 14
M  V30 14 1 14 15
M  V30 15 1 14 16
M  V30 16 1 15 17
M  V30 17 1 16 18
M  V30 18 1 17 19
M  V30 19 1 18 20
M  V30 20 1 7 9
M  V30 21 1 8 10
M  V30 22 1 1 21
M  V30 23 1 4 22
M  V30 24 1 5 23
M  V30 25 1 7 24
M  V30 26 1 10 25
M  V30 27 1 10 26
M  V30 28 1 11 27
M  V30 29 1 11 28
M  V30 30 1 12 29
M  V30 31 1 12 30
M  V30 32 1 13 31
M  V30 33 1 13 32
M  V30 34 1 15 33
M  V30 35 1 15 34
M  V30 36 1 16 35
M  V30 37 1 16 36
M  V30 38 1 17 37
M  V30 39 1 17 38
M  V30 40 1 18 39
M  V30 41 1 18 40
M  V30 42 1 19 41
M  V30 43 1 19 42
M  V30 44 1 19 43
M  V30 45 1 20 44
M  V30 46 1 20 45
M  V30 47 1 20 46
M  V30 END BOND
M  V30 END CTAB
M  END
>  <NO.>
1095

>  <Name>
1/1/48 0:00

>  <SMILES>
C=C1Cc2c(CCN(CCC)CCC)ccc(O)c2N1

>  <logBB>


>  <Class>
1

>  <MW>
274.2

>  <nHBAcc>
3

>  <nHBDon>
2

>  <SLogP>
3.54

>  <TopoPSA>
35.5

>  <MMFF94 Energy>
54.395

$$$$
C=C1c2ccccc2CN(CCCN(C)C)c2ccccc21
Actelion Java MolfileCreator 2.0

  0  0  0  0  0  0              0 V3000
M  V30 BEGIN CTAB
M  V30 COUNTS 46 48 0 0 0
M  V30 BEGIN ATOM
M  V30 1 N -0.3951 1.502 -0.158 0
M  V30 2 C 0.9802 1.5887 0.0751 0
M  V30 3 C -0.7598 1.7203 -1.5578 0
M  V30 4 C -1.3715 1.8263 0.8809 0
M  V30 5 C 1.8535 0.6316 -0.4845 0
M  V30 6 C 1.5388 2.6381 0.8227 0
M  V30 7 C -0.6216 0.5161 -2.4714 0
M  V30 8 C -1.2508 0.9143 2.1065 0
M  V30 9 C 1.2967 -0.5546 -1.1829 0
M  V30 10 C 3.2442 0.7641 -0.3219 0
M  V30 11 C 2.9214 2.7544 0.9917 0
M  V30 12 C 0.3476 -0.4996 -2.3296 0
M  V30 13 C -1.4785 0.4874 -3.5978 0
M  V30 14 C -1.5806 -0.5452 1.767 0
M  V30 15 C 1.5781 -1.7484 -0.6188 0
M  V30 16 C 3.7751 1.8224 0.4124 0
M  V30 17 C 0.4383 -1.4858 -3.3373 0
M  V30 18 C -1.3889 -0.5143 -4.562 0
M  V30 19 N -1.6444 -1.413 2.9622 0
M  V30 20 C -0.4231 -1.4998 -4.4351 0
M  V30 21 C -0.3191 -1.5995 3.5603 0
M  V30 22 C -2.198 -2.7188 2.59 0
M  V30 23 H -0.1761 2.549 -1.9838 0
M  V30 24 H -1.8059 2.0522 -1.5966 0
M  V30 25 H -2.3885 1.7211 0.482 0
M  V30 26 H -1.2768 2.8759 1.1826 0
M  V30 27 H 0.9026 3.4004 1.2617 0
M  V30 28 H -1.9531 1.2728 2.87 0
M  V30 29 H -0.2475 0.9965 2.5364 0
M  V30 30 H 3.9168 0.0322 -0.7624 0
M  V30 31 H 3.3282 3.5818 1.5671 0
M  V30 32 H -2.2249 1.2686 -3.7342 0
M  V30 33 H -2.5633 -0.5543 1.2771 0
M  V30 34 H -0.8628 -0.9453 1.0423 0
M  V30 35 H 2.2049 -1.8301 0.2647 0
M  V30 36 H 1.1557 -2.6796 -0.9808 0
M  V30 37 H 4.8505 1.9145 0.536 0
M  V30 38 H 1.2028 -2.2581 -3.2819 0
M  V30 39 H -2.0603 -0.5126 -5.4163 0
M  V30 40 H -0.3296 -2.276 -5.1894 0
M  V30 41 H 0.0737 -0.6588 3.958 0
M  V30 42 H 0.4052 -2.0063 2.8453 0
M  V30 43 H -0.3772 -2.2843 4.4144 0
M  V30 44 H -1.5818 -3.2326 1.843 0
M  V30 45 H -3.2105 -2.6075 2.1859 0
M  V30 46 H -2.285 -3.3655 3.4705 0
M  V30 END ATOM
M  V30 BEGIN BOND
M  V30 1 1 1 2
M  V30 2 1 1 3
M  V30 3 1 1 4
M  V30 4 2 2 5
M  V30 5 1 2 6
M  V30 6 1 3 7
M  V30 7 1 4 8
M  V30 8 1 5 9
M  V30 9 1 5 10
M  V30 10 2 6 11
M  V30 11 2 7 12
M  V30 12 1 7 13
M  V30 13 1 8 14
M  V30 14 2 9 15
M  V30 15 2 10 16
M  V30 16 1 12 17
M  V30 17 2 13 18
M  V30 18 1 14 19
M  V30 19 2 17 20
M  V30 20 1 19 21
M  V30 21 1 19 22
M  V30 22 1 9 12
M  V30 23 1 11 16
M  V30 24 1 18 20
M  V30 25 1 3 23
M  V30 26 1 3 24
M  V30 27 1 4 25
M  V30 28 1 4 26
M  V30 29 1 6 27
M  V30 30 1 8 28
M  V30 31 1 8 29
M  V30 32 1 10 30
M  V30 33 1 11 31
M  V30 34 1 13 32
M  V30 35 1 14 33
M  V30 36 1 14 34
M  V30 37 1 15 35
M  V30 38 1 15 36
M  V30 39 1 16 37
M  V30 40 1 17 38
M  V30 41 1 18 39
M  V30 42 1 20 40
M  V30 43 1 21 41
M  V30 44 1 21 42
M  V30 45 1 21 43
M  V30 46 1 22 44
M  V30 47 1 22 45
M  V30 48 1 22 46
M  V30 END BOND
M  V30 END CTAB
M  END
>  <NO.>
1098

>  <Name>
enprazepine

>  <SMILES>
C=C1c2ccccc2CN(CCCN(C)C)c2ccccc21

>  <logBB>


>  <Class>
1

>  <MW>
292.19

>  <nHBAcc>
2

>  <nHBDon>
0

>  <SLogP>
4.02

>  <TopoPSA>
6.48

>  <MMFF94 Energy>
85.037

$$$$
C=CC(N)CCC(=O)O
Actelion Java MolfileCreator 2.0

  0  0  0  0  0  0              0 V3000
M  V30 BEGIN CTAB
M  V30 COUNTS 20 19 0 0 0
M  V30 BEGIN ATOM
M  V30 1 O -1.7567 2.5213 1.2218 0
M  V30 2 C -1.8091 1.9593 0.1419 0
M  V30 3 O -2.7788 2.2636 -0.7431 0
M  V30 4 C -0.8763 0.9064 -0.3917 0
M  V30 5 C 0.1811 0.5256 0.6477 0
M  V30 6 C 1.1914 -0.547 0.2037 0 CFG=2
M  V30 7 N 2.0033 -0.1085 -0.9273 0
M  V30 8 C 0.5396 -1.8558 -0.1434 0
M  V30 9 C 0.63 -2.9657 0.6026 0
M  V30 10 H -3.3125 2.9479 -0.2865 0
M  V30 11 H -0.4026 1.3091 -1.2925 0
M  V30 12 H -1.4791 0.0327 -0.6597 0
M  V30 13 H 0.7321 1.429 0.9444 0
M  V30 14 H -0.3255 0.1772 1.5585 0
M  V30 15 H 1.8808 -0.7064 1.0431 0
M  V30 16 H 1.4163 0.0994 -1.7309 0
M  V30 17 H 2.4796 0.7588 -0.6862 0
M  V30 18 H -0.0318 -1.9048 -1.0675 0
M  V30 19 H 1.1963 -2.9864 1.5285 0
M  V30 20 H 0.1445 -3.8852 0.2908 0
M  V30 END ATOM
M  V30 BEGIN BOND
M  V30 1 2 1 2
M  V30 2 1 2 3
M  V30 3 1 2 4
M  V30 4 1 4 5
M  V30 5 1 5 6
M  V30 6 1 6 7
M  V30 7 1 6 8
M  V30 8 2 8 9
M  V30 9 1 3 10
M  V30 10 1 4 11
M  V30 11 1 4 12
M  V30 12 1 5 13
M  V30 13 1 5 14
M  V30 14 1 6 15
M  V30 15 1 7 16
M  V30 16 1 7 17
M  V30 17 1 8 18
M  V30 18 1 9 19
M  V30 19 1 9 20
M  V30 END BOND
M  V30 BEGIN COLLECTION
M  V30 MDLV30/STERAC1 ATOMS=(1 6)
M  V30 END COLLECTION
M  V30 END CTAB
M  END
>  <NO.>
1099

>  <Name>
vigabatrin

>  <SMILES>
C=CC(N)CCC(=O)O

>  <logBB>


>  <Class>
1

>  <MW>
129.08

>  <nHBAcc>
2

>  <nHBDon>
2

>  <SLogP>
0.36

>  <TopoPSA>
63.32

>  <MMFF94 Energy>
-39.433

$$$$
C=CC1(C(C)CCC)C(=O)NC(=O)NC1=O
Actelion Java MolfileCreator 2.0

  0  0  0  0  0  0              0 V3000
M  V30 BEGIN CTAB
M  V30 COUNTS 32 32 0 0 0
M  V30 BEGIN ATOM
M  V30 1 O -3.9291 -0.2354 1.8844 0
M  V30 2 C -2.8166 0.1731 1.5711 0
M  V30 3 N -1.6913 -0.3026 2.1586 0
M  V30 4 N -2.6516 1.1612 0.6573 0
M  V30 5 C -0.4154 0.1308 1.9312 0
M  V30 6 C -1.4658 1.7096 0.2523 0
M  V30 7 O 0.4677 -0.2039 2.7219 0
M  V30 8 C -0.17 0.9602 0.6506 0
M  V30 9 O -1.5014 2.713 -0.4609 0
M  V30 10 C 0.9981 1.9012 0.9539 0
M  V30 11 C 0.1478 -0.0506 -0.5275 0 CFG=2
M  V30 12 C 0.977 3.224 1.1751 0
M  V30 13 C 1.3829 -0.9638 -0.2755 0
M  V30 14 C 0.3421 0.6677 -1.8791 0
M  V30 15 C 1.1229 -2.4498 -0.5583 0
M  V30 16 C 0.8376 -2.7683 -2.0165 0
M  V30 17 H -1.8226 -0.9419 2.9303 0
M  V30 18 H -3.4936 1.593 0.3023 0
M  V30 19 H 1.9726 1.4185 1.0396 0
M  V30 20 H -0.733 -0.6983 -0.6399 0
M  V30 21 H 0.0711 3.8206 1.1396 0
M  V30 22 H 1.8976 3.757 1.3988 0
M  V30 23 H 2.2386 -0.6276 -0.875 0
M  V30 24 H 1.7187 -0.9024 0.7627 0
M  V30 25 H -0.5822 1.1437 -2.2178 0
M  V30 26 H 0.6317 -0.0359 -2.6655 0
M  V30 27 H 1.1227 1.433 -1.8209 0
M  V30 28 H 2.0081 -3.0183 -0.2483 0
M  V30 29 H 0.291 -2.8036 0.0621 0
M  V30 30 H 0.7571 -3.8513 -2.1547 0
M  V30 31 H -0.1048 -2.3232 -2.348 0
M  V30 32 H 1.6424 -2.4048 -2.663 0
M  V30 END ATOM
M  V30 BEGIN BOND
M  V30 1 2 1 2
M  V30 2 1 2 3
M  V30 3 1 2 4
M  V30 4 1 3 5
M  V30 5 1 4 6
M  V30 6 2 5 7
M  V30 7 1 5 8
M  V30 8 2 6 9
M  V30 9 1 8 10
M  V30 10 1 8 11
M  V30 11 2 10 12
M  V30 12 1 11 13
M  V30 13 1 11 14
M  V30 14 1 13 15
M  V30 15 1 15 16
M  V30 16 1 6 8
M  V30 17 1 3 17
M  V30 18 1 4 18
M  V30 19 1 10 19
M  V30 20 1 11 20
M  V30 21 1 12 21
M  V30 22 1 12 22
M  V30 23 1 13 23
M  V30 24 1 13 24
M  V30 25 1 14 25
M  V30 26 1 14 26
M  V30 27 1 14 27
M  V30 28 1 15 28
M  V30 29 1 15 29
M  V30 30 1 16 30
M  V30 31 1 16 31
M  V30 32 1 16 32
M  V30 END BOND
M  V30 BEGIN COLLECTION
M  V30 MDLV30/STERAC1 ATOMS=(1 11)
M  V30 END COLLECTION
M  V30 END CTAB
M  END
>  <NO.>
1100

>  <Name>
vinylbital

>  <SMILES>
C=CC1(C(C)CCC)C(=O)NC(=O)NC1=O

>  <logBB>


>  <Class>
1

>  <MW>
224.12

>  <nHBAcc>
3

>  <nHBDon>
2

>  <SLogP>
0.96

>  <TopoPSA>
75.27

>  <MMFF94 Energy>
-69.525

$$$$
C=CC1CNCCC1CCCc1ccnc2ccc(OC)cc12
Actelion Java MolfileCreator 2.0

  0  0  0  0  0  0              0 V3000
M  V30 BEGIN CTAB
M  V30 COUNTS 49 51 0 0 0
M  V30 BEGIN ATOM
M  V30 1 O -3.9588 -1.0281 -0.5535 0
M  V30 2 C -3.6502 0.236 -0.971 0
M  V30 3 C -5.0788 -1.6527 -1.1686 0
M  V30 4 C -2.5448 0.8096 -0.3383 0
M  V30 5 C -4.322 0.9672 -1.94 0
M  V30 6 C -2.0871 2.1104 -0.6621 0
M  V30 7 C -3.8821 2.255 -2.2661 0
M  V30 8 C -2.7833 2.8395 -1.6526 0
M  V30 9 C -0.9646 2.7357 -0.0565 0
M  V30 10 N -2.4309 4.0771 -2.0357 0
M  V30 11 C -0.6038 4.0221 -0.4698 0
M  V30 12 C -0.1191 2.0588 1.0007 0
M  V30 13 C -1.3592 4.6413 -1.4454 0
M  V30 14 C 0.9031 1.0988 0.3841 0
M  V30 15 C 1.6881 0.3577 1.4698 0
M  V30 16 C 2.7338 -0.6262 0.9049 0
M  V30 17 C 2.1482 -1.7766 0.0397 0
M  V30 18 C 3.5969 -1.1907 2.0491 0
M  V30 19 C 1.0299 -2.5411 0.7231 0
M  V30 20 C 3.2832 -2.7424 -0.3765 0
M  V30 21 C 4.6537 -2.1638 1.5294 0
M  V30 22 C -0.2354 -2.5853 0.285 0
M  V30 23 N 4.0548 -3.2533 0.7632 0
M  V30 24 H -6.0001 -1.0946 -0.9706 0
M  V30 25 H -5.1908 -2.6476 -0.727 0
M  V30 26 H -4.9174 -1.7816 -2.2439 0
M  V30 27 H -2.0356 0.2178 0.4184 0
M  V30 28 H -5.1871 0.576 -2.464 0
M  V30 29 H -4.4146 2.8208 -3.0277 0
M  V30 30 H 0.2508 4.5361 -0.0425 0
M  V30 31 H -0.7667 1.5379 1.7159 0
M  V30 32 H 0.406 2.8192 1.5938 0
M  V30 33 H -1.114 5.641 -1.7922 0
M  V30 34 H 1.5981 1.6587 -0.2542 0
M  V30 35 H 0.391 0.3836 -0.2663 0
M  V30 36 H 2.204 1.1014 2.0914 0
M  V30 37 H 0.9939 -0.1677 2.1369 0
M  V30 38 H 3.4055 -0.0457 0.2553 0
M  V30 39 H 1.7543 -1.3386 -0.8871 0
M  V30 40 H 4.0995 -0.369 2.5739 0
M  V30 41 H 2.9641 -1.6941 2.791 0
M  V30 42 H 1.294 -3.0997 1.62 0
M  V30 43 H 3.9606 -2.2311 -1.0728 0
M  V30 44 H 2.8628 -3.5952 -0.9231 0
M  V30 45 H 5.1985 -2.5875 2.3802 0
M  V30 46 H 5.3885 -1.6302 0.9143 0
M  V30 47 H -0.5542 -2.0566 -0.6079 0
M  V30 48 H -0.9873 -3.1587 0.8189 0
M  V30 49 H 4.7893 -3.8712 0.4198 0
M  V30 END ATOM
M  V30 BEGIN BOND
M  V30 1 1 1 2
M  V30 2 1 1 3
M  V30 3 2 2 4
M  V30 4 1 2 5
M  V30 5 1 4 6
M  V30 6 2 5 7
M  V30 7 1 6 8
M  V30 8 2 6 9
M  V30 9 2 8 10
M  V30 10 1 9 11
M  V30 11 1 9 12
M  V30 12 1 10 13
M  V30 13 1 12 14
M  V30 14 1 14 15
M  V30 15 1 15 16
M  V30 16 1 16 17
M  V30 17 1 16 18
M  V30 18 1 17 19
M  V30 19 1 17 20
M  V30 20 1 18 21
M  V30 21 2 19 22
M  V30 22 1 20 23
M  V30 23 1 7 8
M  V30 24 2 11 13
M  V30 25 1 21 23
M  V30 26 1 3 24
M  V30 27 1 3 25
M  V30 28 1 3 26
M  V30 29 1 4 27
M  V30 30 1 5 28
M  V30 31 1 7 29
M  V30 32 1 11 30
M  V30 33 1 12 31
M  V30 34 1 12 32
M  V30 35 1 13 33
M  V30 36 1 14 34
M  V30 37 1 14 35
M  V30 38 1 15 36
M  V30 39 1 15 37
M  V30 40 1 16 38
M  V30 41 1 17 39
M  V30 42 1 18 40
M  V30 43 1 18 41
M  V30 44 1 19 42
M  V30 45 1 20 43
M  V30 46 1 20 44
M  V30 47 1 21 45
M  V30 48 1 21 46
M  V30 49 1 22 47
M  V30 50 1 22 48
M  V30 51 1 23 49
M  V30 END BOND
M  V30 END CTAB
M  END
>  <NO.>
1103

>  <Name>
viqualine

>  <SMILES>
C=CC1CNCCC1CCCc1ccnc2ccc(OC)cc12

>  <logBB>


>  <Class>
1

>  <MW>
310.2

>  <nHBAcc>
3

>  <nHBDon>
1

>  <SLogP>
3.98

>  <TopoPSA>
34.15

>  <MMFF94 Energy>
67.353

$$$$
C=CC1O[C@@H]2CC3C4CCC5=CC(=O)C=CC5(C)C4(F)C(O)CC3(C)[C@]2(C(=O)CO)O1
Actelion Java MolfileCreator 2.0

  0  0  0  0  0  0              0 V3000
M  V30 BEGIN CTAB
M  V30 COUNTS 60 64 0 0 0
M  V30 BEGIN ATOM
M  V30 1 F 0.0812 -2.1136 0.4874 0
M  V30 2 C 0.3762 -1.1388 1.4173 0
M  V30 3 C 0.9397 -1.8915 2.703 0
M  V30 4 C -0.942 -0.3439 1.6278 0
M  V30 5 C 1.4528 -0.205 0.7793 0
M  V30 6 C 2.2842 -2.5477 2.3262 0
M  V30 7 C -0.0294 -2.9444 3.2422 0
M  V30 8 C 1.1796 -0.9175 3.8813 0
M  V30 9 O -2.0224 -1.1962 2.0185 0
M  V30 10 C -1.4088 0.3671 0.3496 0
M  V30 11 C 0.9774 0.5835 -0.4627 0
M  V30 12 C 2.7496 -0.9711 0.4657 0
M  V30 13 C 2.5428 -3.861 2.4642 0
M  V30 14 C 3.3198 -1.6456 1.7069 0
M  V30 15 C 0.2317 -4.2514 3.3763 0
M  V30 16 C -0.3626 1.3256 -0.2687 0
M  V30 17 C 0.7631 -0.2339 -1.7486 0
M  V30 18 C 1.5428 -4.8056 2.9988 0
M  V30 19 C -0.7249 1.7291 -1.7372 0 CFG=1
M  V30 20 C -0.2085 2.5481 0.6576 0
M  V30 21 C -0.176 0.6068 -2.6158 0 CFG=2
M  V30 22 O 1.7946 -5.9967 3.1274 0
M  V30 23 O -2.129 1.7608 -1.9681 0
M  V30 24 C -0.1013 3.0607 -2.1918 0
M  V30 25 O -1.3048 -0.1569 -3.0292 0
M  V30 26 C -2.4385 0.6836 -2.8524 0
M  V30 27 O 1.0947 3.1634 -2.4867 0
M  V30 28 C -1.014 4.2812 -2.2551 0
M  V30 29 C -2.8384 1.2546 -4.1779 0
M  V30 30 O -0.2619 5.4831 -2.3626 0
M  V30 31 C -4.0573 1.1411 -4.7247 0
M  V30 32 H -0.8188 0.3909 2.4279 0
M  V30 33 H 1.7083 0.5565 1.5279 0
M  V30 34 H -1.0026 -2.6005 3.5866 0
M  V30 35 H 1.6603 -1.4283 4.7261 0
M  V30 36 H 0.2398 -0.4971 4.2582 0
M  V30 37 H 1.8237 -0.075 3.6136 0
M  V30 38 H -2.044 -1.9318 1.3745 0
M  V30 39 H -2.338 0.9126 0.5651 0
M  V30 40 H -1.7035 -0.406 -0.3707 0
M  V30 41 H 1.7594 1.325 -0.6845 0
M  V30 42 H 2.5664 -1.7307 -0.3046 0
M  V30 43 H 3.5005 -0.2822 0.0599 0
M  V30 44 H 3.487 -4.3089 2.1749 0
M  V30 45 H 4.2204 -2.2041 1.4238 0
M  V30 46 H 3.6437 -0.8931 2.4349 0
M  V30 47 H -0.4898 -4.9511 3.7805 0
M  V30 48 H 1.7191 -0.3909 -2.2607 0
M  V30 49 H 0.3343 -1.2215 -1.5596 0
M  V30 50 H 0.5737 3.2309 0.31 0
M  V30 51 H 0.0692 2.2641 1.6769 0
M  V30 52 H -1.1464 3.1106 0.7191 0
M  V30 53 H 0.3381 0.9562 -3.5183 0
M  V30 54 H -3.2487 0.092 -2.413 0
M  V30 55 H -1.6618 4.1976 -3.1315 0
M  V30 56 H -1.62 4.3453 -1.3486 0
M  V30 57 H -2.0701 1.7868 -4.7314 0
M  V30 58 H 0.5614 5.2526 -2.8372 0
M  V30 59 H -4.8631 0.6141 -4.2223 0
M  V30 60 H -4.2729 1.5751 -5.6965 0
M  V30 END ATOM
M  V30 BEGIN BOND
M  V30 1 1 1 2
M  V30 2 1 2 3
M  V30 3 1 2 4
M  V30 4 1 2 5
M  V30 5 1 3 6
M  V30 6 1 3 7
M  V30 7 1 3 8
M  V30 8 1 4 9
M  V30 9 1 4 10
M  V30 10 1 5 11
M  V30 11 1 5 12
M  V30 12 2 6 13
M  V30 13 1 6 14
M  V30 14 2 7 15
M  V30 15 1 10 16
M  V30 16 1 11 17
M  V30 17 1 13 18
M  V30 18 1 16 19
M  V30 19 1 16 20
M  V30 20 1 17 21
M  V30 21 2 18 22
M  V30 22 1 19 23
M  V30 23 1 19 24
M  V30 24 1 21 25
M  V30 25 1 23 26
M  V30 26 2 24 27
M  V30 27 1 24 28
M  V30 28 1 26 29
M  V30 29 1 28 30
M  V30 30 2 29 31
M  V30 31 1 11 16
M  V30 32 1 12 14
M  V30 33 1 15 18
M  V30 34 1 19 21
M  V30 35 1 25 26
M  V30 36 1 4 32
M  V30 37 1 5 33
M  V30 38 1 7 34
M  V30 39 1 8 35
M  V30 40 1 8 36
M  V30 41 1 8 37
M  V30 42 1 9 38
M  V30 43 1 10 39
M  V30 44 1 10 40
M  V30 45 1 11 41
M  V30 46 1 12 42
M  V30 47 1 12 43
M  V30 48 1 13 44
M  V30 49 1 14 45
M  V30 50 1 14 46
M  V30 51 1 15 47
M  V30 52 1 17 48
M  V30 53 1 17 49
M  V30 54 1 20 50
M  V30 55 1 20 51
M  V30 56 1 20 52
M  V30 57 1 21 53
M  V30 58 1 26 54
M  V30 59 1 28 55
M  V30 60 1 28 56
M  V30 61 1 29 57
M  V30 62 1 30 58
M  V30 63 1 31 59
M  V30 64 1 31 60
M  V30 END BOND
M  V30 BEGIN COLLECTION
M  V30 MDLV30/STEABS ATOMS=(2 19 21)
M  V30 END COLLECTION
M  V30 END CTAB
M  END
>  <NO.>
1104

>  <Name>
acrocinonide

>  <SMILES>
C=CC1O[C@@H]2CC3C4CCC5=CC(=O)C=CC5(C)C4(F)C(O)CC3(C)[C@]2(C(=O)CO)O1

>  <logBB>


>  <Class>
1

>  <MW>
432.19

>  <nHBAcc>
6

>  <nHBDon>
2

>  <SLogP>
2.19

>  <TopoPSA>
93.06

>  <MMFF94 Energy>
156.51

$$$$
C=CCC(CC)(CC)C(N)=O
Actelion Java MolfileCreator 2.0

  0  0  0  0  0  0              0 V3000
M  V30 BEGIN CTAB
M  V30 COUNTS 28 27 0 0 0
M  V30 BEGIN ATOM
M  V30 1 O 0.4605 1.3054 -2.1509 0
M  V30 2 C -0.3359 0.8849 -1.3158 0
M  V30 3 N -1.6245 1.3208 -1.383 0
M  V30 4 C 0.0259 -0.126 -0.2024 0
M  V30 5 C -0.4465 0.4076 1.1855 0
M  V30 6 C -0.6201 -1.5119 -0.5125 0
M  V30 7 C 1.5858 -0.2938 -0.159 0
M  V30 8 C 0.1986 1.6931 1.6386 0
M  V30 9 C -2.1139 -1.6803 -0.2556 0
M  V30 10 C 2.2152 -1.1053 -1.2903 0
M  V30 11 C 0.9125 1.8172 2.7646 0
M  V30 12 H -2.3511 1.0697 -0.7307 0
M  V30 13 H -1.8486 1.9741 -2.1229 0
M  V30 14 H -1.5276 0.5875 1.1875 0
M  V30 15 H -0.274 -0.3734 1.9388 0
M  V30 16 H -0.1113 -2.2767 0.0893 0
M  V30 17 H -0.4407 -1.7698 -1.5641 0
M  V30 18 H 2.0651 0.6937 -0.1532 0
M  V30 19 H 1.8691 -0.7796 0.7842 0
M  V30 20 H 0.0636 2.5698 1.0068 0
M  V30 21 H -2.375 -1.4872 0.7882 0
M  V30 22 H -2.4058 -2.7137 -0.4737 0
M  V30 23 H -2.7177 -1.0383 -0.8997 0
M  V30 24 H 1.9388 -0.7248 -2.2766 0
M  V30 25 H 3.3066 -1.0623 -1.2109 0
M  V30 26 H 1.9299 -2.1599 -1.2344 0
M  V30 27 H 1.0799 0.9789 3.4336 0
M  V30 28 H 1.3535 2.7712 3.0387 0
M  V30 END ATOM
M  V30 BEGIN BOND
M  V30 1 2 1 2
M  V30 2 1 2 3
M  V30 3 1 2 4
M  V30 4 1 4 5
M  V30 5 1 4 6
M  V30 6 1 4 7
M  V30 7 1 5 8
M  V30 8 1 6 9
M  V30 9 1 7 10
M  V30 10 2 8 11
M  V30 11 1 3 12
M  V30 12 1 3 13
M  V30 13 1 5 14
M  V30 14 1 5 15
M  V30 15 1 6 16
M  V30 16 1 6 17
M  V30 17 1 7 18
M  V30 18 1 7 19
M  V30 19 1 8 20
M  V30 20 1 9 21
M  V30 21 1 9 22
M  V30 22 1 9 23
M  V30 23 1 10 24
M  V30 24 1 10 25
M  V30 25 1 10 26
M  V30 26 1 11 27
M  V30 27 1 11 28
M  V30 END BOND
M  V30 END CTAB
M  END
>  <NO.>
1105

>  <Name>
valdetamide

>  <SMILES>
C=CCC(CC)(CC)C(N)=O

>  <logBB>


>  <Class>
1

>  <MW>
155.13

>  <nHBAcc>
1

>  <nHBDon>
1

>  <SLogP>
1.85

>  <TopoPSA>
43.09

>  <MMFF94 Energy>
-0.2051

$$$$
C=CCC(N)Cc1ccccc1
Actelion Java MolfileCreator 2.0

  0  0  0  0  0  0              0 V3000
M  V30 BEGIN CTAB
M  V30 COUNTS 27 27 0 0 0
M  V30 BEGIN ATOM
M  V30 1 N -1.8644 2.331 0.0 0
M  V30 2 C -0.8712 1.3161 0.4016 0 CFG=2
M  V30 3 C 0.1175 1.041 -0.756 0
M  V30 4 C -1.5885 0.0499 0.9349 0
M  V30 5 C 1.2772 0.149 -0.3774 0
M  V30 6 C -2.4101 -0.7047 -0.0814 0
M  V30 7 C 2.2567 0.597 0.5201 0
M  V30 8 C 1.395 -1.1369 -0.9214 0
M  V30 9 C -3.7462 -0.7901 -0.0506 0
M  V30 10 C 3.3254 -0.2282 0.8734 0
M  V30 11 C 2.4644 -1.961 -0.5667 0
M  V30 12 C 3.4282 -1.5072 0.3312 0
M  V30 13 H -2.4889 1.9289 -0.7001 0
M  V30 14 H -1.397 3.1173 -0.4477 0
M  V30 15 H -0.314 1.7478 1.2423 0
M  V30 16 H -0.4121 0.6238 -1.6218 0
M  V30 17 H 0.5419 1.9914 -1.1092 0
M  V30 18 H -2.2242 0.3398 1.7829 0
M  V30 19 H -0.8473 -0.6429 1.3516 0
M  V30 20 H -1.8694 -1.2287 -0.8651 0
M  V30 21 H 2.1953 1.5947 0.9496 0
M  V30 22 H 0.6547 -1.5087 -1.6256 0
M  V30 23 H -4.3291 -0.2933 0.7195 0
M  V30 24 H -4.2865 -1.3614 -0.7989 0
M  V30 25 H 4.0786 0.128 1.5713 0
M  V30 26 H 2.5456 -2.9577 -0.9921 0
M  V30 27 H 4.2604 -2.1495 0.6066 0
M  V30 END ATOM
M  V30 BEGIN BOND
M  V30 1 1 1 2
M  V30 2 1 2 3
M  V30 3 1 2 4
M  V30 4 1 3 5
M  V30 5 1 4 6
M  V30 6 2 5 7
M  V30 7 1 5 8
M  V30 8 2 6 9
M  V30 9 1 7 10
M  V30 10 2 8 11
M  V30 11 2 10 12
M  V30 12 1 11 12
M  V30 13 1 1 13
M  V30 14 1 1 14
M  V30 15 1 2 15
M  V30 16 1 3 16
M  V30 17 1 3 17
M  V30 18 1 4 18
M  V30 19 1 4 19
M  V30 20 1 6 20
M  V30 21 1 7 21
M  V30 22 1 8 22
M  V30 23 1 9 23
M  V30 24 1 9 24
M  V30 25 1 10 25
M  V30 26 1 11 26
M  V30 27 1 12 27
M  V30 END BOND
M  V30 BEGIN COLLECTION
M  V30 MDLV30/STERAC1 ATOMS=(1 2)
M  V30 END COLLECTION
M  V30 END CTAB
M  END
>  <NO.>
1106

>  <Name>
aletamine (alfetamine)

>  <SMILES>
C=CCC(N)Cc1ccccc1

>  <logBB>


>  <Class>
1

>  <MW>
161.12

>  <nHBAcc>
1

>  <nHBDon>
1

>  <SLogP>
2.13

>  <TopoPSA>
26.02

>  <MMFF94 Energy>
50.88

$$$$
C=CCC1(C(C)C)C(=O)NC(=O)NC1=O
Actelion Java MolfileCreator 2.0

  0  0  0  0  0  0              0 V3000
M  V30 BEGIN CTAB
M  V30 COUNTS 29 29 0 0 0
M  V30 BEGIN ATOM
M  V30 1 O -2.5126 -3.2988 -1.3342 0
M  V30 2 C -1.8977 -2.2991 -0.9804 0
M  V30 3 N -2.4834 -1.3264 -0.237 0
M  V30 4 N -0.6109 -2.0829 -1.3529 0
M  V30 5 C -1.8975 -0.1688 0.1897 0
M  V30 6 C 0.1352 -0.9724 -1.0762 0
M  V30 7 O -2.5896 0.681 0.7494 0
M  V30 8 C -0.3764 -0.0487 0.0288 0
M  V30 9 O 1.1939 -0.8053 -1.6784 0
M  V30 10 C -0.0447 1.4618 -0.2532 0
M  V30 11 C 0.1625 -0.5783 1.3981 0
M  V30 12 C 1.4218 1.8817 -0.1102 0
M  V30 13 C -0.5589 1.9151 -1.6325 0
M  V30 14 C 1.6444 -0.8102 1.5462 0
M  V30 15 C 2.368 -0.3665 2.5827 0
M  V30 16 H -3.4683 -1.4394 -0.0394 0
M  V30 17 H -0.213 -2.7488 -2.001 0
M  V30 18 H -0.5884 2.068 0.4854 0
M  V30 19 H -0.309 -1.5482 1.6153 0
M  V30 20 H -0.1844 0.0956 2.1944 0
M  V30 21 H 1.7417 1.8455 0.9336 0
M  V30 22 H 1.557 2.9211 -0.4318 0
M  V30 23 H 2.0975 1.2672 -0.7093 0
M  V30 24 H -0.4594 3.0013 -1.7392 0
M  V30 25 H -1.6176 1.6739 -1.7691 0
M  V30 26 H 0.0047 1.4532 -2.4489 0
M  V30 27 H 2.1519 -1.3955 0.7807 0
M  V30 28 H 1.9253 0.2116 3.3883 0
M  V30 29 H 3.4329 -0.5725 2.6438 0
M  V30 END ATOM
M  V30 BEGIN BOND
M  V30 1 2 1 2
M  V30 2 1 2 3
M  V30 3 1 2 4
M  V30 4 1 3 5
M  V30 5 1 4 6
M  V30 6 2 5 7
M  V30 7 1 5 8
M  V30 8 2 6 9
M  V30 9 1 8 10
M  V30 10 1 8 11
M  V30 11 1 10 12
M  V30 12 1 10 13
M  V30 13 1 11 14
M  V30 14 2 14 15
M  V30 15 1 6 8
M  V30 16 1 3 16
M  V30 17 1 4 17
M  V30 18 1 10 18
M  V30 19 1 11 19
M  V30 20 1 11 20
M  V30 21 1 12 21
M  V30 22 1 12 22
M  V30 23 1 12 23
M  V30 24 1 13 24
M  V30 25 1 13 25
M  V30 26 1 13 26
M  V30 27 1 14 27
M  V30 28 1 15 28
M  V30 29 1 15 29
M  V30 END BOND
M  V30 END CTAB
M  END
>  <NO.>
1107

>  <Name>
aprobarbital

>  <SMILES>
C=CCC1(C(C)C)C(=O)NC(=O)NC1=O

>  <logBB>


>  <Class>
1

>  <MW>
210.1

>  <nHBAcc>
3

>  <nHBDon>
2

>  <SLogP>
0.57

>  <TopoPSA>
75.27

>  <MMFF94 Energy>
-110.17

$$$$
C=CCC1(C(C)CC)C(=O)NC(=O)NC1=O
Actelion Java MolfileCreator 2.0

  0  0  0  0  0  0              0 V3000
M  V30 BEGIN CTAB
M  V30 COUNTS 32 32 0 0 0
M  V30 BEGIN ATOM
M  V30 1 O -1.4116 -0.2351 -4.3968 0
M  V30 2 C -1.0842 -0.1654 -3.2174 0
M  V30 3 N -1.1646 -1.2396 -2.3898 0
M  V30 4 N -0.6729 1.0002 -2.6571 0
M  V30 5 C -0.8465 -1.2693 -1.0601 0
M  V30 6 C -0.3729 1.1932 -1.3382 0
M  V30 7 O -1.0975 -2.2818 -0.4103 0
M  V30 8 C -0.0954 -0.0609 -0.5017 0
M  V30 9 O -0.3034 2.3404 -0.8998 0
M  V30 10 C -0.4788 0.223 1.0012 0 CFG=2
M  V30 11 C 1.4126 -0.4025 -0.7173 0
M  V30 12 C 0.0496 -0.8177 2.0206 0
M  V30 13 C -2.0003 0.4155 1.1621 0
M  V30 14 C 2.3972 0.6297 -0.2323 0
M  V30 15 C -0.1679 -0.4097 3.4745 0
M  V30 16 C 3.2499 1.2837 -1.0314 0
M  V30 17 H -1.5673 -2.0805 -2.7804 0
M  V30 18 H -0.7351 1.8263 -3.2359 0
M  V30 19 H -0.0219 1.1828 1.2812 0
M  V30 20 H 1.5951 -0.5889 -1.7858 0
M  V30 21 H 1.6549 -1.3555 -0.2293 0
M  V30 22 H -0.4234 -1.7921 1.8664 0
M  V30 23 H 1.1255 -0.9638 1.8899 0
M  V30 24 H -2.5368 -0.5359 1.0926 0
M  V30 25 H -2.4081 1.0894 0.4024 0
M  V30 26 H -2.2375 0.8611 2.1336 0
M  V30 27 H 2.4196 0.8454 0.8344 0
M  V30 28 H -1.2295 -0.4044 3.7378 0
M  V30 29 H 0.247 0.5837 3.6713 0
M  V30 30 H 0.3304 -1.1217 4.1405 0
M  V30 31 H 3.2858 1.1139 -2.1027 0
M  V30 32 H 3.9383 2.0177 -0.6214 0
M  V30 END ATOM
M  V30 BEGIN BOND
M  V30 1 2 1 2
M  V30 2 1 2 3
M  V30 3 1 2 4
M  V30 4 1 3 5
M  V30 5 1 4 6
M  V30 6 2 5 7
M  V30 7 1 5 8
M  V30 8 2 6 9
M  V30 9 1 8 10
M  V30 10 1 8 11
M  V30 11 1 10 12
M  V30 12 1 10 13
M  V30 13 1 11 14
M  V30 14 1 12 15
M  V30 15 2 14 16
M  V30 16 1 6 8
M  V30 17 1 3 17
M  V30 18 1 4 18
M  V30 19 1 10 19
M  V30 20 1 11 20
M  V30 21 1 11 21
M  V30 22 1 12 22
M  V30 23 1 12 23
M  V30 24 1 13 24
M  V30 25 1 13 25
M  V30 26 1 13 26
M  V30 27 1 14 27
M  V30 28 1 15 28
M  V30 29 1 15 29
M  V30 30 1 15 30
M  V30 31 1 16 31
M  V30 32 1 16 32
M  V30 END BOND
M  V30 BEGIN COLLECTION
M  V30 MDLV30/STERAC1 ATOMS=(1 10)
M  V30 END COLLECTION
M  V30 END CTAB
M  END
>  <NO.>
1108

>  <Name>
talbutal

>  <SMILES>
C=CCC1(C(C)CC)C(=O)NC(=O)NC1=O

>  <logBB>


>  <Class>
1

>  <MW>
224.12

>  <nHBAcc>
3

>  <nHBDon>
2

>  <SLogP>
0.96

>  <TopoPSA>
75.27

>  <MMFF94 Energy>
-111.9

$$$$
C=CCC1(C(C)CCC)C(=O)NC(=S)NC1=O
Actelion Java MolfileCreator 2.0

  0  0  0  0  0  0              0 V3000
M  V30 BEGIN CTAB
M  V30 COUNTS 35 35 0 0 0
M  V30 BEGIN ATOM
M  V30 1 S -0.2374 4.3594 -2.059 0
M  V30 2 C 0.0054 2.7556 -1.7017 0
M  V30 3 N -0.7642 1.7824 -2.2538 0
M  V30 4 N 1.0148 2.3575 -0.8852 0
M  V30 5 C -0.6288 0.4355 -2.0356 0
M  V30 6 C 1.312 1.0591 -0.5644 0
M  V30 7 O -1.2423 -0.3535 -2.7518 0
M  V30 8 C 0.215 0.0242 -0.8241 0
M  V30 9 O 2.3903 0.799 -0.033 0
M  V30 10 C -0.7556 0.0206 0.4366 0 CFG=2
M  V30 11 C 0.8487 -1.3675 -1.0805 0
M  V30 12 C -0.0112 -0.1769 1.7873 0
M  V30 13 C -1.8924 -1.0121 0.3124 0
M  V30 14 C 1.8509 -1.4088 -2.2114 0
M  V30 15 C -0.9144 -0.0609 3.0218 0
M  V30 16 C 1.6134 -1.9655 -3.4054 0
M  V30 17 C -0.1007 -0.082 4.3079 0
M  V30 18 H -1.4309 2.0507 -2.9671 0
M  V30 19 H 1.6818 3.0558 -0.5807 0
M  V30 20 H -1.2375 1.008 0.4848 0
M  V30 21 H 0.0644 -2.1089 -1.2788 0
M  V30 22 H 1.3722 -1.7197 -0.1837 0
M  V30 23 H 0.4847 -1.154 1.8048 0
M  V30 24 H 0.772 0.5811 1.8885 0
M  V30 25 H -2.6521 -0.8528 1.0844 0
M  V30 26 H -1.5194 -2.0354 0.4196 0
M  V30 27 H -2.4194 -0.9363 -0.6413 0
M  V30 28 H 2.8357 -0.9852 -2.0161 0
M  V30 29 H -1.4906 0.8702 2.9773 0
M  V30 30 H -1.6277 -0.8909 3.0543 0
M  V30 31 H 0.6513 -2.41 -3.6461 0
M  V30 32 H 2.3791 -1.9835 -4.1748 0
M  V30 33 H -0.7629 -0.0085 5.1763 0
M  V30 34 H 0.4716 -1.0111 4.3941 0
M  V30 35 H 0.5995 0.7584 4.3438 0
M  V30 END ATOM
M  V30 BEGIN BOND
M  V30 1 2 1 2
M  V30 2 1 2 3
M  V30 3 1 2 4
M  V30 4 1 3 5
M  V30 5 1 4 6
M  V30 6 2 5 7
M  V30 7 1 5 8
M  V30 8 2 6 9
M  V30 9 1 8 10
M  V30 10 1 8 11
M  V30 11 1 10 12
M  V30 12 1 10 13
M  V30 13 1 11 14
M  V30 14 1 12 15
M  V30 15 2 14 16
M  V30 16 1 15 17
M  V30 17 1 6 8
M  V30 18 1 3 18
M  V30 19 1 4 19
M  V30 20 1 10 20
M  V30 21 1 11 21
M  V30 22 1 11 22
M  V30 23 1 12 23
M  V30 24 1 12 24
M  V30 25 1 13 25
M  V30 26 1 13 26
M  V30 27 1 13 27
M  V30 28 1 14 28
M  V30 29 1 15 29
M  V30 30 1 15 30
M  V30 31 1 16 31
M  V30 32 1 16 32
M  V30 33 1 17 33
M  V30 34 1 17 34
M  V30 35 1 17 35
M  V30 END BOND
M  V30 BEGIN COLLECTION
M  V30 MDLV30/STERAC1 ATOMS=(1 10)
M  V30 END COLLECTION
M  V30 END CTAB
M  END
>  <NO.>
1109

>  <Name>
thiamylal

>  <SMILES>
C=CCC1(C(C)CCC)C(=O)NC(=S)NC1=O

>  <logBB>


>  <Class>
1

>  <MW>
254.11

>  <nHBAcc>
3

>  <nHBDon>
2

>  <SLogP>
1.52

>  <TopoPSA>
58.2

>  <MMFF94 Energy>
-82.579

$$$$
C=CCC1(C2C=CCCC2)C(=O)NC(=S)NC1=O
Actelion Java MolfileCreator 2.0

  0  0  0  0  0  0              0 V3000
M  V30 BEGIN CTAB
M  V30 COUNTS 34 35 0 0 0
M  V30 BEGIN ATOM
M  V30 1 S 3.0508 3.3723 0.8021 0
M  V30 2 C 2.154 1.9801 0.6696 0
M  V30 3 N 2.5656 0.9495 -0.1098 0
M  V30 4 N 0.9876 1.8255 1.3437 0
M  V30 5 C 1.9084 -0.2347 -0.2972 0
M  V30 6 C 0.181 0.72 1.3277 0
M  V30 7 O 2.4131 -1.0979 -1.0157 0
M  V30 8 C 0.5511 -0.405 0.3706 0
M  V30 9 O -0.7987 0.687 2.0721 0
M  V30 10 C -0.5135 -0.4931 -0.7909 0 CFG=1
M  V30 11 C 0.604 -1.7273 1.1891 0
M  V30 12 C -1.9323 -0.8163 -0.3519 0
M  V30 13 C -0.4956 0.7702 -1.697 0
M  V30 14 C 1.7334 -1.8004 2.1918 0
M  V30 15 C -3.0287 -0.2541 -0.8832 0
M  V30 16 C -1.6381 0.7636 -2.7109 0
M  V30 17 C 1.5757 -1.6201 3.509 0
M  V30 18 C -2.9943 0.7302 -2.0108 0
M  V30 19 H 3.4507 1.0444 -0.5925 0
M  V30 20 H 0.6934 2.5711 1.9624 0
M  V30 21 H -0.2185 -1.3383 -1.4318 0
M  V30 22 H -0.3396 -1.8878 1.725 0
M  V30 23 H 0.7116 -2.5852 0.512 0
M  V30 24 H -2.0778 -1.5539 0.4337 0
M  V30 25 H -0.5722 1.6822 -1.0927 0
M  V30 26 H 0.4517 0.8283 -2.2446 0
M  V30 27 H 2.7228 -2.0473 1.8081 0
M  V30 28 H -4.0083 -0.5252 -0.4952 0
M  V30 29 H -1.5372 -0.11 -3.3673 0
M  V30 30 H -1.5769 1.6507 -3.3516 0
M  V30 31 H 0.606 -1.3884 3.9424 0
M  V30 32 H 2.4185 -1.705 4.1887 0
M  V30 33 H -3.7691 0.4759 -2.7427 0
M  V30 34 H -3.2369 1.7235 -1.615 0
M  V30 END ATOM
M  V30 BEGIN BOND
M  V30 1 2 1 2
M  V30 2 1 2 3
M  V30 3 1 2 4
M  V30 4 1 3 5
M  V30 5 1 4 6
M  V30 6 2 5 7
M  V30 7 1 5 8
M  V30 8 2 6 9
M  V30 9 1 8 10
M  V30 10 1 8 11
M  V30 11 1 10 12
M  V30 12 1 10 13
M  V30 13 1 11 14
M  V30 14 2 12 15
M  V30 15 1 13 16
M  V30 16 2 14 17
M  V30 17 1 15 18
M  V30 18 1 6 8
M  V30 19 1 16 18
M  V30 20 1 3 19
M  V30 21 1 4 20
M  V30 22 1 10 21
M  V30 23 1 11 22
M  V30 24 1 11 23
M  V30 25 1 12 24
M  V30 26 1 13 25
M  V30 27 1 13 26
M  V30 28 1 14 27
M  V30 29 1 15 28
M  V30 30 1 16 29
M  V30 31 1 16 30
M  V30 32 1 17 31
M  V30 33 1 17 32
M  V30 34 1 18 33
M  V30 35 1 18 34
M  V30 END BOND
M  V30 BEGIN COLLECTION
M  V30 MDLV30/STERAC1 ATOMS=(1 10)
M  V30 END COLLECTION
M  V30 END CTAB
M  END
>  <NO.>
1110

>  <Name>
thialbarbital

>  <SMILES>
C=CCC1(C2C=CCCC2)C(=O)NC(=S)NC1=O

>  <logBB>


>  <Class>
1

>  <MW>
264.09

>  <nHBAcc>
3

>  <nHBDon>
2

>  <SLogP>
1.44

>  <TopoPSA>
58.2

>  <MMFF94 Energy>
-81.403

$$$$
C=CCC1(CC(=C)Br)C(=O)NC(=O)NC1=O
Actelion Java MolfileCreator 2.0

  0  0  0  0  0  0              0 V3000
M  V30 BEGIN CTAB
M  V30 COUNTS 27 27 0 0 0
M  V30 BEGIN ATOM
M  V30 1 Br 1.4469 -2.5734 -2.0905 0
M  V30 2 C 0.3712 -1.0426 -2.0987 0
M  V30 3 C 0.4006 -0.2005 -3.1415 0
M  V30 4 C -0.5732 -0.8707 -0.9242 0
M  V30 5 C 0.0263 -0.1556 0.3163 0
M  V30 6 C 1.0693 -1.0556 0.9575 0
M  V30 7 C 0.5577 1.2102 -0.0855 0
M  V30 8 C -1.0438 0.0533 1.432 0
M  V30 9 O 0.8317 -2.2168 1.2906 0
M  V30 10 N 2.295 -0.5219 1.2246 0
M  V30 11 O -0.0999 2.0254 -0.7326 0
M  V30 12 N 1.8144 1.5473 0.3234 0
M  V30 13 C -2.3297 0.7235 1.0201 0
M  V30 14 C 2.7063 0.741 0.9512 0
M  V30 15 C -3.5304 0.1329 1.0734 0
M  V30 16 O 3.8291 1.1328 1.2489 0
M  V30 17 H 1.0603 -0.3611 -3.9889 0
M  V30 18 H -0.2407 0.6758 -3.1795 0
M  V30 19 H -1.4423 -0.3046 -1.2871 0
M  V30 20 H -0.9784 -1.8511 -0.6382 0
M  V30 21 H -1.2871 -0.9138 1.894 0
M  V30 22 H -0.608 0.6578 2.2404 0
M  V30 23 H 2.9677 -1.1304 1.6711 0
M  V30 24 H 2.1381 2.4742 0.0831 0
M  V30 25 H -2.2726 1.755 0.6737 0
M  V30 26 H -3.6549 -0.8895 1.4175 0
M  V30 27 H -4.4254 0.6689 0.7702 0
M  V30 END ATOM
M  V30 BEGIN BOND
M  V30 1 1 1 2
M  V30 2 2 2 3
M  V30 3 1 2 4
M  V30 4 1 4 5
M  V30 5 1 5 6
M  V30 6 1 5 7
M  V30 7 1 5 8
M  V30 8 2 6 9
M  V30 9 1 6 10
M  V30 10 2 7 11
M  V30 11 1 7 12
M  V30 12 1 8 13
M  V30 13 1 10 14
M  V30 14 2 13 15
M  V30 15 2 14 16
M  V30 16 1 12 14
M  V30 17 1 3 17
M  V30 18 1 3 18
M  V30 19 1 4 19
M  V30 20 1 4 20
M  V30 21 1 8 21
M  V30 22 1 8 22
M  V30 23 1 10 23
M  V30 24 1 12 24
M  V30 25 1 13 25
M  V30 26 1 15 26
M  V30 27 1 15 27
M  V30 END BOND
M  V30 END CTAB
M  END
>  <NO.>
1111

>  <Name>
brallobarbital

>  <SMILES>
C=CCC1(CC(=C)Br)C(=O)NC(=O)NC1=O

>  <logBB>


>  <Class>
1

>  <MW>
286

>  <nHBAcc>
3

>  <nHBDon>
2

>  <SLogP>
1.21

>  <TopoPSA>
75.27

>  <MMFF94 Energy>
-126.27

$$$$
C=CCC1(CC(C)(C)C)C(=O)NC(=O)NC1=O
Actelion Java MolfileCreator 2.0

  0  0  0  0  0  0              0 V3000
M  V30 BEGIN CTAB
M  V30 COUNTS 35 35 0 0 0
M  V30 BEGIN ATOM
M  V30 1 O 3.7651 0.9402 -1.097 0
M  V30 2 C 2.5978 0.5942 -0.9492 0
M  V30 3 N 2.2741 -0.6097 -0.4131 0
M  V30 4 N 1.5667 1.405 -1.2995 0
M  V30 5 C 1.0163 -1.0919 -0.192 0
M  V30 6 C 0.2352 1.1269 -1.1849 0
M  V30 7 O 0.8692 -2.1925 0.3392 0
M  V30 8 C -0.1464 -0.238 -0.6545 0
M  V30 9 O -0.5955 1.9608 -1.5445 0
M  V30 10 C -0.8053 -1.0103 -1.8434 0
M  V30 11 C -1.2233 -0.1146 0.4703 0
M  V30 12 C 0.065 -1.1841 -3.0655 0
M  V30 13 C -0.9219 0.6099 1.8244 0
M  V30 14 C 0.6543 -2.3377 -3.4034 0
M  V30 15 C 0.2105 -0.0537 2.622 0
M  V30 16 C -2.2089 0.5178 2.6802 0
M  V30 17 C -0.5934 2.1001 1.6466 0
M  V30 18 H 3.0431 -1.2026 -0.1344 0
M  V30 19 H 1.8121 2.3083 -1.6802 0
M  V30 20 H -1.141 -1.9985 -1.4983 0
M  V30 21 H -1.7155 -0.4883 -2.1696 0
M  V30 22 H -1.5606 -1.1321 0.7193 0
M  V30 23 H -2.1048 0.3785 0.0332 0
M  V30 24 H 0.1834 -0.3215 -3.7203 0
M  V30 25 H 0.5518 -3.233 -2.7958 0
M  V30 26 H 1.2527 -2.4144 -4.3067 0
M  V30 27 H 0.2794 0.3686 3.6317 0
M  V30 28 H 0.0427 -1.1304 2.7312 0
M  V30 29 H 1.1857 0.1026 2.1533 0
M  V30 30 H -2.4842 -0.5257 2.8703 0
M  V30 31 H -2.0791 1.0071 3.6526 0
M  V30 32 H -3.0542 1.0016 2.1775 0
M  V30 33 H -0.5652 2.6143 2.615 0
M  V30 34 H 0.3873 2.2504 1.1877 0
M  V30 35 H -1.3479 2.6038 1.033 0
M  V30 END ATOM
M  V30 BEGIN BOND
M  V30 1 2 1 2
M  V30 2 1 2 3
M  V30 3 1 2 4
M  V30 4 1 3 5
M  V30 5 1 4 6
M  V30 6 2 5 7
M  V30 7 1 5 8
M  V30 8 2 6 9
M  V30 9 1 8 10
M  V30 10 1 8 11
M  V30 11 1 10 12
M  V30 12 1 11 13
M  V30 13 2 12 14
M  V30 14 1 13 15
M  V30 15 1 13 16
M  V30 16 1 13 17
M  V30 17 1 6 8
M  V30 18 1 3 18
M  V30 19 1 4 19
M  V30 20 1 10 20
M  V30 21 1 10 21
M  V30 22 1 11 22
M  V30 23 1 11 23
M  V30 24 1 12 24
M  V30 25 1 14 25
M  V30 26 1 14 26
M  V30 27 1 15 27
M  V30 28 1 15 28
M  V30 29 1 15 29
M  V30 30 1 16 30
M  V30 31 1 16 31
M  V30 32 1 16 32
M  V30 33 1 17 33
M  V30 34 1 17 34
M  V30 35 1 17 35
M  V30 END BOND
M  V30 END CTAB
M  END
>  <NO.>
1112

>  <Name>
nealbarbital

>  <SMILES>
C=CCC1(CC(C)(C)C)C(=O)NC(=O)NC1=O

>  <logBB>


>  <Class>
1

>  <MW>
238.13

>  <nHBAcc>
3

>  <nHBDon>
2

>  <SLogP>
1.35

>  <TopoPSA>
75.27

>  <MMFF94 Energy>
-102.58

$$$$
C=CCC1(CC(C)C)C(=O)NC(=O)NC1=O
Actelion Java MolfileCreator 2.0

  0  0  0  0  0  0              0 V3000
M  V30 BEGIN CTAB
M  V30 COUNTS 32 32 0 0 0
M  V30 BEGIN ATOM
M  V30 1 O 3.8419 0.4698 -0.7048 0
M  V30 2 C 2.639 0.2591 -0.5917 0
M  V30 3 N 2.167 -0.9052 -0.0763 0
M  V30 4 N 1.716 1.1878 -0.9503 0
M  V30 5 C 0.8567 -1.2395 0.1136 0
M  V30 6 C 0.3595 1.0632 -0.8657 0
M  V30 7 O 0.5714 -2.3048 0.6591 0
M  V30 8 C -0.1872 -0.2776 -0.4174 0
M  V30 9 O -0.3629 2.0093 -1.1785 0
M  V30 10 C -0.8349 -0.9516 -1.6642 0
M  V30 11 C -1.309 -0.0593 0.6414 0
M  V30 12 C 0.1179 -1.2984 -2.7825 0
M  V30 13 C -0.9829 0.8392 1.8602 0
M  V30 14 C 0.2122 -0.6051 -3.9238 0
M  V30 15 C -2.2562 1.0398 2.692 0
M  V30 16 C 0.1207 0.2871 2.76 0
M  V30 17 H 2.8578 -1.5743 0.2331 0
M  V30 18 H 2.0708 2.0676 -1.2978 0
M  V30 19 H -1.3359 -1.8825 -1.3652 0
M  V30 20 H -1.6288 -0.303 -2.0608 0
M  V30 21 H -1.6598 -1.0335 1.0092 0
M  V30 22 H -2.1739 0.391 0.1331 0
M  V30 23 H 0.7348 -2.187 -2.6552 0
M  V30 24 H -0.6707 1.8293 1.5083 0
M  V30 25 H -0.3945 0.2769 -4.1109 0
M  V30 26 H 0.9 -0.9112 -4.7067 0
M  V30 27 H -3.0528 1.4837 2.0855 0
M  V30 28 H -2.6232 0.0885 3.0923 0
M  V30 29 H -2.0693 1.7131 3.5355 0
M  V30 30 H 1.094 0.3249 2.2655 0
M  V30 31 H -0.0837 -0.7472 3.0545 0
M  V30 32 H 0.2113 0.8835 3.6748 0
M  V30 END ATOM
M  V30 BEGIN BOND
M  V30 1 2 1 2
M  V30 2 1 2 3
M  V30 3 1 2 4
M  V30 4 1 3 5
M  V30 5 1 4 6
M  V30 6 2 5 7
M  V30 7 1 5 8
M  V30 8 2 6 9
M  V30 9 1 8 10
M  V30 10 1 8 11
M  V30 11 1 10 12
M  V30 12 1 11 13
M  V30 13 2 12 14
M  V30 14 1 13 15
M  V30 15 1 13 16
M  V30 16 1 6 8
M  V30 17 1 3 17
M  V30 18 1 4 18
M  V30 19 1 10 19
M  V30 20 1 10 20
M  V30 21 1 11 21
M  V30 22 1 11 22
M  V30 23 1 12 23
M  V30 24 1 13 24
M  V30 25 1 14 25
M  V30 26 1 14 26
M  V30 27 1 15 27
M  V30 28 1 15 28
M  V30 29 1 15 29
M  V30 30 1 16 30
M  V30 31 1 16 31
M  V30 32 1 16 32
M  V30 END BOND
M  V30 END CTAB
M  END
>  <NO.>
1113

>  <Name>
butalbital

>  <SMILES>
C=CCC1(CC(C)C)C(=O)NC(=O)NC1=O

>  <logBB>


>  <Class>
1

>  <MW>
224.12

>  <nHBAcc>
3

>  <nHBDon>
2

>  <SLogP>
0.96

>  <TopoPSA>
75.27

>  <MMFF94 Energy>
-115.07

$$$$
C=CCN1C(=O)C(CC(C)C)NC1=S
Actelion Java MolfileCreator 2.0

  0  0  0  0  0  0              0 V3000
M  V30 BEGIN CTAB
M  V30 COUNTS 30 30 0 0 0
M  V30 BEGIN ATOM
M  V30 1 S 2.6819 0.6305 1.9715 0
M  V30 2 C 1.582 -0.0063 0.9078 0
M  V30 3 N 1.4389 0.2044 -0.4365 0
M  V30 4 N 0.6061 -0.8911 1.3228 0
M  V30 5 C 0.3884 -0.5382 -0.9247 0
M  V30 6 C 2.2273 1.0792 -1.2857 0
M  V30 7 C -0.1967 -1.3572 0.2259 0 CFG=2
M  V30 8 O -0.0122 -0.5687 -2.0807 0
M  V30 9 C 3.3413 0.2826 -1.9026 0
M  V30 10 C -1.7056 -1.2075 0.4076 0
M  V30 11 C 4.6434 0.4666 -1.6462 0
M  V30 12 C -2.283 0.2247 0.4617 0
M  V30 13 C -3.8114 0.1571 0.3483 0
M  V30 14 C -1.9128 0.9781 1.7396 0
M  V30 15 H 0.5488 -1.2203 2.2797 0
M  V30 16 H 2.6113 1.9223 -0.7027 0
M  V30 17 H 1.5921 1.4801 -2.0834 0
M  V30 18 H 0.0624 -2.4097 0.065 0
M  V30 19 H 3.0482 -0.4802 -2.6216 0
M  V30 20 H -2.0094 -1.7505 1.3124 0
M  V30 21 H -2.18 -1.7274 -0.4359 0
M  V30 22 H 4.9877 1.2166 -0.9398 0
M  V30 23 H 5.3974 -0.1421 -2.136 0
M  V30 24 H -1.9187 0.8001 -0.3973 0
M  V30 25 H -4.1122 -0.3332 -0.5835 0
M  V30 26 H -4.2476 -0.402 1.1833 0
M  V30 27 H -4.2477 1.1619 0.3479 0
M  V30 28 H -0.8524 1.2363 1.7616 0
M  V30 29 H -2.1439 0.3874 2.6324 0
M  V30 30 H -2.4659 1.9216 1.8092 0
M  V30 END ATOM
M  V30 BEGIN BOND
M  V30 1 2 1 2
M  V30 2 1 2 3
M  V30 3 1 2 4
M  V30 4 1 3 5
M  V30 5 1 3 6
M  V30 6 1 4 7
M  V30 7 2 5 8
M  V30 8 1 6 9
M  V30 9 1 7 10
M  V30 10 2 9 11
M  V30 11 1 10 12
M  V30 12 1 12 13
M  V30 13 1 12 14
M  V30 14 1 5 7
M  V30 15 1 4 15
M  V30 16 1 6 16
M  V30 17 1 6 17
M  V30 18 1 7 18
M  V30 19 1 9 19
M  V30 20 1 10 20
M  V30 21 1 10 21
M  V30 22 1 11 22
M  V30 23 1 11 23
M  V30 24 1 12 24
M  V30 25 1 13 25
M  V30 26 1 13 26
M  V30 27 1 13 27
M  V30 28 1 14 28
M  V30 29 1 14 29
M  V30 30 1 14 30
M  V30 END BOND
M  V30 BEGIN COLLECTION
M  V30 MDLV30/STERAC1 ATOMS=(1 7)
M  V30 END COLLECTION
M  V30 END CTAB
M  END
>  <NO.>
1115

>  <Name>
albutoin

>  <SMILES>
C=CCN1C(=O)C(CC(C)C)NC1=S

>  <logBB>


>  <Class>
1

>  <MW>
212.1

>  <nHBAcc>
2

>  <nHBDon>
1

>  <SLogP>
1.3

>  <TopoPSA>
32.34

>  <MMFF94 Energy>
-24.95

$$$$
C=CCN1C(=O)OC(C)C1=O
Actelion Java MolfileCreator 2.0

  0  0  0  0  0  0              0 V3000
M  V30 BEGIN CTAB
M  V30 COUNTS 20 20 0 0 0
M  V30 BEGIN ATOM
M  V30 1 O -0.4702 -2.4312 0.5485 0
M  V30 2 C -0.1762 -1.2825 0.8391 0
M  V30 3 O 0.7398 -0.9757 1.8034 0
M  V30 4 N -0.6873 -0.1546 0.3026 0
M  V30 5 C 0.8401 0.4478 1.9101 0 CFG=2
M  V30 6 C -0.1509 0.9394 0.8929 0
M  V30 7 C -1.68 -0.1259 -0.7416 0
M  V30 8 C 2.2517 0.8907 1.5856 0
M  V30 9 O -0.4054 2.1098 0.6533 0
M  V30 10 C -0.9836 0.0186 -2.0639 0
M  V30 11 C -0.8718 -0.9596 -2.9723 0
M  V30 12 H 0.5323 0.7525 2.9148 0
M  V30 13 H -2.3465 0.73 -0.5901 0
M  V30 14 H -2.2781 -1.043 -0.7058 0
M  V30 15 H 2.3482 1.9794 1.6412 0
M  V30 16 H 2.9651 0.4363 2.2809 0
M  V30 17 H 2.5438 0.5742 0.5779 0
M  V30 18 H -0.565 0.9983 -2.2878 0
M  V30 19 H -1.2729 -1.9537 -2.7942 0
M  V30 20 H -0.3621 -0.788 -3.9156 0
M  V30 END ATOM
M  V30 BEGIN BOND
M  V30 1 2 1 2
M  V30 2 1 2 3
M  V30 3 1 2 4
M  V30 4 1 3 5
M  V30 5 1 4 6
M  V30 6 1 4 7
M  V30 7 1 5 8
M  V30 8 2 6 9
M  V30 9 1 7 10
M  V30 10 2 10 11
M  V30 11 1 5 6
M  V30 12 1 5 12
M  V30 13 1 7 13
M  V30 14 1 7 14
M  V30 15 1 8 15
M  V30 16 1 8 16
M  V30 17 1 8 17
M  V30 18 1 10 18
M  V30 19 1 11 19
M  V30 20 1 11 20
M  V30 END BOND
M  V30 BEGIN COLLECTION
M  V30 MDLV30/STERAC1 ATOMS=(1 5)
M  V30 END COLLECTION
M  V30 END CTAB
M  END
>  <NO.>
1116

>  <Name>
allomethadione

>  <SMILES>
C=CCN1C(=O)OC(C)C1=O

>  <logBB>


>  <Class>
1

>  <MW>
155.06

>  <nHBAcc>
3

>  <nHBDon>
0

>  <SLogP>
0.54

>  <TopoPSA>
46.61

>  <MMFF94 Energy>
-53.778

$$$$
C=CCN1CCC23c4c5ccc(O)c4OC2C2(OC)C=CC3(CC2[C@](C)(O)CCC)C1C5
Actelion Java MolfileCreator 2.0

  0  0  0  0  0  0              0 V3000
M  V30 BEGIN CTAB
M  V30 COUNTS 67 72 0 0 0
M  V30 BEGIN ATOM
M  V30 1 O 0.726 -0.8067 -3.149 0
M  V30 2 C -0.544 -0.3868 -3.4533 0
M  V30 3 C 0.7131 -1.0617 -1.7016 0
M  V30 4 C -0.9603 0.1389 -4.6551 0
M  V30 5 C -1.398 -0.3968 -2.3778 0
M  V30 6 C 1.6131 -0.081 -0.8407 0
M  V30 7 C -0.7395 -0.9819 -1.185 0
M  V30 8 O -0.1395 0.1605 -5.7398 0
M  V30 9 C -2.2344 0.7035 -4.7388 0
M  V30 10 C -2.6059 0.2816 -2.3712 0
M  V30 11 O 2.9596 0.0516 -1.2785 0
M  V30 12 C 0.9785 1.2993 -0.8912 0
M  V30 13 C 1.4964 -0.5753 0.6675 0
M  V30 14 C -0.909 0.033 -0.0257 0
M  V30 15 C -1.3278 -2.3669 -0.8577 0
M  V30 16 C -3.0481 0.8022 -3.59 0
M  V30 17 C -3.2559 0.5811 -1.0359 0
M  V30 18 C 3.5873 -1.1239 -1.7664 0
M  V30 19 C -0.2845 1.3775 -0.4351 0
M  V30 20 C 2.5079 -0.0212 1.7363 0 CFG=2
M  V30 21 C -0.0069 -0.4257 1.1526 0
M  V30 22 C -2.4519 0.0841 0.2447 0
M  V30 23 C -2.751 -2.2951 -0.289 0
M  V30 24 O 2.0945 -0.5536 3.0131 0
M  V30 25 C 2.5093 1.5207 1.865 0
M  V30 26 C 3.9365 -0.5433 1.5155 0
M  V30 27 N -2.8722 -1.2585 0.7432 0
M  V30 28 C 3.3541 2.0689 3.0255 0
M  V30 29 C -4.204 -1.2691 1.36 0
M  V30 30 C 3.2441 3.5844 3.1186 0
M  V30 31 C -4.2855 -0.6692 2.7409 0
M  V30 32 C -3.2713 -0.3561 3.5598 0
M  V30 33 H 1.1026 -2.0822 -1.5935 0
M  V30 34 H 0.7127 -0.1997 -5.4296 0
M  V30 35 H -2.5706 1.1315 -5.6794 0
M  V30 36 H 1.5336 2.159 -1.2467 0
M  V30 37 H 1.6783 -1.6613 0.6487 0
M  V30 38 H -1.3354 -3.0095 -1.7481 0
M  V30 39 H -0.6854 -2.8734 -0.1259 0
M  V30 40 H -3.9926 1.3375 -3.652 0
M  V30 41 H -3.3327 1.6742 -0.9551 0
M  V30 42 H -4.2822 0.2021 -1.0447 0
M  V30 43 H 3.2183 -1.3742 -2.764 0
M  V30 44 H 4.6594 -0.9248 -1.8501 0
M  V30 45 H 3.4465 -1.9679 -1.0859 0
M  V30 46 H -0.8348 2.3101 -0.3889 0
M  V30 47 H -0.093 0.2975 1.9729 0
M  V30 48 H -0.3312 -1.384 1.5741 0
M  V30 49 H -2.6264 0.8191 1.0404 0
M  V30 50 H -3.4768 -2.1431 -1.0969 0
M  V30 51 H -2.9784 -3.2775 0.1439 0
M  V30 52 H 2.186 -1.5209 2.983 0
M  V30 53 H 2.8758 1.9702 0.9354 0
M  V30 54 H 1.4842 1.876 2.02 0
M  V30 55 H 4.4555 -0.0139 0.7131 0
M  V30 56 H 4.539 -0.4443 2.426 0
M  V30 57 H 3.9318 -1.6147 1.2869 0
M  V30 58 H 3.0272 1.6327 3.9758 0
M  V30 59 H 4.408 1.806 2.8877 0
M  V30 60 H -4.548 -2.3058 1.4757 0
M  V30 61 H -4.9463 -0.7801 0.7205 0
M  V30 62 H 3.8557 3.9584 3.9458 0
M  V30 63 H 3.5922 4.0603 2.1963 0
M  V30 64 H 2.2088 3.893 3.2957 0
M  V30 65 H -5.2981 -0.4985 3.1026 0
M  V30 66 H -2.2369 -0.5235 3.278 0
M  V30 67 H -3.4574 0.0642 4.5428 0
M  V30 END ATOM
M  V30 BEGIN BOND
M  V30 1 1 1 2
M  V30 2 1 1 3
M  V30 3 2 2 4
M  V30 4 1 2 5
M  V30 5 1 3 6
M  V30 6 1 3 7
M  V30 7 1 4 8
M  V30 8 1 4 9
M  V30 9 2 5 10
M  V30 10 1 6 11
M  V30 11 1 6 12
M  V30 12 1 6 13
M  V30 13 1 7 14
M  V30 14 1 7 15
M  V30 15 2 9 16
M  V30 16 1 10 17
M  V30 17 1 11 18
M  V30 18 2 12 19
M  V30 19 1 13 20
M  V30 20 1 13 21
M  V30 21 1 14 22
M  V30 22 1 15 23
M  V30 23 1 20 24
M  V30 24 1 20 25
M  V30 25 1 20 26
M  V30 26 1 22 27
M  V30 27 1 25 28
M  V30 28 1 27 29
M  V30 29 1 28 30
M  V30 30 1 29 31
M  V30 31 2 31 32
M  V30 32 1 5 7
M  V30 33 1 10 16
M  V30 34 1 14 19
M  V30 35 1 14 21
M  V30 36 1 17 22
M  V30 37 1 23 27
M  V30 38 1 3 33
M  V30 39 1 8 34
M  V30 40 1 9 35
M  V30 41 1 12 36
M  V30 42 1 13 37
M  V30 43 1 15 38
M  V30 44 1 15 39
M  V30 45 1 16 40
M  V30 46 1 17 41
M  V30 47 1 17 42
M  V30 48 1 18 43
M  V30 49 1 18 44
M  V30 50 1 18 45
M  V30 51 1 19 46
M  V30 52 1 21 47
M  V30 53 1 21 48
M  V30 54 1 22 49
M  V30 55 1 23 50
M  V30 56 1 23 51
M  V30 57 1 24 52
M  V30 58 1 25 53
M  V30 59 1 25 54
M  V30 60 1 26 55
M  V30 61 1 26 56
M  V30 62 1 26 57
M  V30 63 1 28 58
M  V30 64 1 28 59
M  V30 65 1 29 60
M  V30 66 1 29 61
M  V30 67 1 30 62
M  V30 68 1 30 63
M  V30 69 1 30 64
M  V30 70 1 31 65
M  V30 71 1 32 66
M  V30 72 1 32 67
M  V30 END BOND
M  V30 BEGIN COLLECTION
M  V30 MDLV30/STEABS ATOMS=(1 20)
M  V30 END COLLECTION
M  V30 END CTAB
M  END
>  <NO.>
1117

>  <Name>
dtxsid90937058

>  <SMILES>
C=CCN1CCC23c4c5ccc(O)c4OC2C2(OC)C=CC3(CC2[C@](C)(O)CCC)C1C5

>  <logBB>


>  <Class>
1

>  <MW>
437.26

>  <nHBAcc>
5

>  <nHBDon>
2

>  <SLogP>
3.72

>  <TopoPSA>
62.16

>  <MMFF94 Energy>
155.53

$$$$
C=CCN1CCC23c4c5ccc(OC(C)=O)c4OC2C(OC(C)=O)C=CC3C1C5
Actelion Java MolfileCreator 2.0

  0  0  0  0  0  0              0 V3000
M  V30 BEGIN CTAB
M  V30 COUNTS 54 58 0 0 0
M  V30 BEGIN ATOM
M  V30 1 O 4.2927 -0.1617 -1.6992 0
M  V30 2 C 4.631 0.6848 -0.8815 0
M  V30 3 O 3.8647 1.733 -0.3878 0
M  V30 4 C 6.004 0.7732 -0.2837 0
M  V30 5 C 2.531 1.6258 -0.7554 0
M  V30 6 C 1.69 0.7349 -0.1284 0
M  V30 7 C 1.9973 2.506 -1.7044 0
M  V30 8 O 1.9835 -0.1162 0.9071 0
M  V30 9 C 0.3656 0.6663 -0.4974 0
M  V30 10 C 0.6218 2.4673 -2.0191 0
M  V30 11 C 0.6526 -0.4728 1.4494 0
M  V30 12 C -0.2169 1.5344 -1.4031 0
M  V30 13 C -0.3204 -0.4226 0.255 0
M  V30 14 C 0.3218 0.5113 2.6154 0
M  V30 15 C -1.7108 1.4817 -1.5866 0
M  V30 16 C -1.7772 -0.0425 0.5297 0
M  V30 17 C -0.3016 -1.7124 -0.5904 0
M  V30 18 O 0.2136 -0.2239 3.8557 0
M  V30 19 C -0.9801 1.2648 2.4971 0
M  V30 20 C -2.4176 0.2797 -0.8605 0
M  V30 21 C -1.9189 1.0391 1.5669 0
M  V30 22 C -1.1378 -1.5786 -1.8746 0
M  V30 23 C 1.3859 -0.5126 4.4805 0
M  V30 24 N -2.4681 -0.9956 -1.6313 0
M  V30 25 O 2.5006 -0.2014 4.0904 0
M  V30 26 C 1.1155 -1.2805 5.7382 0
M  V30 27 C -3.2536 -0.873 -2.8661 0
M  V30 28 C -3.8326 -2.1942 -3.2892 0
M  V30 29 C -5.144 -2.4577 -3.3751 0
M  V30 30 H 6.5019 1.6812 -0.6328 0
M  V30 31 H 5.9353 0.7661 0.8072 0
M  V30 32 H 6.5913 -0.0949 -0.5962 0
M  V30 33 H 2.6395 3.2378 -2.1862 0
M  V30 34 H 0.2189 3.1802 -2.7348 0
M  V30 35 H 0.7378 -1.4962 1.8353 0
M  V30 36 H 1.113 1.2668 2.7144 0
M  V30 37 H -2.121 2.4097 -1.1663 0
M  V30 38 H -1.9517 1.4908 -2.6548 0
M  V30 39 H -2.307 -0.9095 0.9538 0
M  V30 40 H -0.7048 -2.5382 0.0113 0
M  V30 41 H 0.7214 -2.0005 -0.8647 0
M  V30 42 H -1.1525 2.0365 3.2443 0
M  V30 43 H -3.4594 0.5794 -0.6786 0
M  V30 44 H -2.8442 1.6102 1.5891 0
M  V30 45 H -0.584 -0.9912 -2.6174 0
M  V30 46 H -1.2392 -2.5849 -2.2971 0
M  V30 47 H 0.5034 -0.6794 6.4154 0
M  V30 48 H 0.6137 -2.2211 5.4974 0
M  V30 49 H 2.0631 -1.5083 6.2346 0
M  V30 50 H -2.6512 -0.4654 -3.6872 0
M  V30 51 H -4.0826 -0.1692 -2.7141 0
M  V30 52 H -3.1297 -2.978 -3.5584 0
M  V30 53 H -5.8937 -1.7153 -3.1206 0
M  V30 54 H -5.4927 -3.4353 -3.6931 0
M  V30 END ATOM
M  V30 BEGIN BOND
M  V30 1 2 1 2
M  V30 2 1 2 3
M  V30 3 1 2 4
M  V30 4 1 3 5
M  V30 5 2 5 6
M  V30 6 1 5 7
M  V30 7 1 6 8
M  V30 8 1 6 9
M  V30 9 2 7 10
M  V30 10 1 8 11
M  V30 11 2 9 12
M  V30 12 1 9 13
M  V30 13 1 11 14
M  V30 14 1 12 15
M  V30 15 1 13 16
M  V30 16 1 13 17
M  V30 17 1 14 18
M  V30 18 1 14 19
M  V30 19 1 15 20
M  V30 20 1 16 21
M  V30 21 1 17 22
M  V30 22 1 18 23
M  V30 23 1 20 24
M  V30 24 2 23 25
M  V30 25 1 23 26
M  V30 26 1 24 27
M  V30 27 1 27 28
M  V30 28 2 28 29
M  V30 29 1 10 12
M  V30 30 1 11 13
M  V30 31 1 16 20
M  V30 32 2 19 21
M  V30 33 1 22 24
M  V30 34 1 4 30
M  V30 35 1 4 31
M  V30 36 1 4 32
M  V30 37 1 7 33
M  V30 38 1 10 34
M  V30 39 1 11 35
M  V30 40 1 14 36
M  V30 41 1 15 37
M  V30 42 1 15 38
M  V30 43 1 16 39
M  V30 44 1 17 40
M  V30 45 1 17 41
M  V30 46 1 19 42
M  V30 47 1 20 43
M  V30 48 1 21 44
M  V30 49 1 22 45
M  V30 50 1 22 46
M  V30 51 1 26 47
M  V30 52 1 26 48
M  V30 53 1 26 49
M  V30 54 1 27 50
M  V30 55 1 27 51
M  V30 56 1 28 52
M  V30 57 1 29 53
M  V30 58 1 29 54
M  V30 END BOND
M  V30 END CTAB
M  END
>  <NO.>
1118

>  <Name>
diacetylnalorphine

>  <SMILES>
C=CCN1CCC23c4c5ccc(OC(C)=O)c4OC2C(OC(C)=O)C=CC3C1C5

>  <logBB>


>  <Class>
1

>  <MW>
395.17

>  <nHBAcc>
6

>  <nHBDon>
0

>  <SLogP>
2.54

>  <TopoPSA>
65.07

>  <MMFF94 Energy>
92.704

$$$$
C=CCN1CCCC1CNC(=O)c1cc(S(=O)(=O)NC)c(N)cc1OC
Actelion Java MolfileCreator 2.0

  0  0  0  0  0  0              0 V3000
M  V30 BEGIN CTAB
M  V30 COUNTS 52 53 0 0 0
M  V30 BEGIN ATOM
M  V30 1 S 2.6285 -3.3462 -3.5856 0
M  V30 2 O 3.8278 -4.1571 -3.6371 0
M  V30 3 O 2.2294 -2.5251 -4.7073 0
M  V30 4 N 1.3339 -4.3621 -3.2604 0
M  V30 5 C 2.6617 -2.3061 -2.1452 0
M  V30 6 C 1.5439 -5.5198 -2.4047 0
M  V30 7 C 3.7078 -2.3398 -1.2179 0
M  V30 8 C 1.5954 -1.4067 -1.9925 0
M  V30 9 N 4.7604 -3.2418 -1.2681 0
M  V30 10 C 3.6242 -1.482 -0.1069 0
M  V30 11 C 1.5334 -0.5381 -0.8917 0
M  V30 12 C 2.5592 -0.5804 0.0711 0
M  V30 13 C 0.3362 0.3643 -0.8313 0
M  V30 14 O 2.4633 0.2677 1.1464 0
M  V30 15 O -0.6148 0.1765 -1.5847 0
M  V30 16 N 0.3555 1.3882 0.0843 0
M  V30 17 C 3.425 0.1427 2.1888 0
M  V30 18 C -0.7394 2.3298 0.2271 0
M  V30 19 C -1.9506 1.7299 0.9688 0 CFG=2
M  V30 20 N -3.0524 2.6902 1.1959 0
M  V30 21 C -1.5794 1.2856 2.391 0
M  V30 22 C -3.8513 2.0797 2.2678 0
M  V30 23 C -3.8534 2.9112 -0.0142 0
M  V30 24 C -2.7976 1.6 3.2483 0
M  V30 25 C -4.7826 4.098 0.0393 0
M  V30 26 C -4.7972 5.0845 0.9473 0
M  V30 27 H 0.6614 -4.4206 -4.0235 0
M  V30 28 H 2.002 -6.3325 -2.9743 0
M  V30 29 H 0.5758 -5.8672 -2.0325 0
M  V30 30 H 2.1669 -5.2761 -1.5404 0
M  V30 31 H 0.8032 -1.3848 -2.7416 0
M  V30 32 H 4.8833 -3.8102 -2.1108 0
M  V30 33 H 5.5711 -3.1381 -0.673 0
M  V30 34 H 4.4254 -1.5386 0.624 0
M  V30 35 H 1.1588 1.4726 0.6985 0
M  V30 36 H 3.4098 -0.8618 2.6239 0
M  V30 37 H 3.1529 0.8505 2.9779 0
M  V30 38 H 4.4253 0.4102 1.8336 0
M  V30 39 H -1.0239 2.6614 -0.7769 0
M  V30 40 H -0.3458 3.1996 0.7653 0
M  V30 41 H -2.3243 0.8512 0.4243 0
M  V30 42 H -1.35 0.2144 2.4143 0
M  V30 43 H -0.7073 1.821 2.7848 0
M  V30 44 H -4.4329 1.222 1.9053 0
M  V30 45 H -4.5374 2.7863 2.7442 0
M  V30 46 H -4.4387 2.0157 -0.2609 0
M  V30 47 H -3.1968 3.0917 -0.8732 0
M  V30 48 H -3.1348 0.728 3.8172 0
M  V30 49 H -2.5502 2.3932 3.9643 0
M  V30 50 H -5.5022 4.1467 -0.7757 0
M  V30 51 H -4.0895 5.1087 1.7701 0
M  V30 52 H -5.5115 5.8978 0.8754 0
M  V30 END ATOM
M  V30 BEGIN BOND
M  V30 1 2 1 2
M  V30 2 2 1 3
M  V30 3 1 1 4
M  V30 4 1 1 5
M  V30 5 1 4 6
M  V30 6 2 5 7
M  V30 7 1 5 8
M  V30 8 1 7 9
M  V30 9 1 7 10
M  V30 10 2 8 11
M  V30 11 2 10 12
M  V30 12 1 11 13
M  V30 13 1 12 14
M  V30 14 2 13 15
M  V30 15 1 13 16
M  V30 16 1 14 17
M  V30 17 1 16 18
M  V30 18 1 18 19
M  V30 19 1 19 20
M  V30 20 1 19 21
M  V30 21 1 20 22
M  V30 22 1 20 23
M  V30 23 1 21 24
M  V30 24 1 23 25
M  V30 25 2 25 26
M  V30 26 1 11 12
M  V30 27 1 22 24
M  V30 28 1 4 27
M  V30 29 1 6 28
M  V30 30 1 6 29
M  V30 31 1 6 30
M  V30 32 1 8 31
M  V30 33 1 9 32
M  V30 34 1 9 33
M  V30 35 1 10 34
M  V30 36 1 16 35
M  V30 37 1 17 36
M  V30 38 1 17 37
M  V30 39 1 17 38
M  V30 40 1 18 39
M  V30 41 1 18 40
M  V30 42 1 19 41
M  V30 43 1 21 42
M  V30 44 1 21 43
M  V30 45 1 22 44
M  V30 46 1 22 45
M  V30 47 1 23 46
M  V30 48 1 23 47
M  V30 49 1 24 48
M  V30 50 1 24 49
M  V30 51 1 25 50
M  V30 52 1 26 51
M  V30 53 1 26 52
M  V30 END BOND
M  V30 BEGIN COLLECTION
M  V30 MDLV30/STERAC1 ATOMS=(1 19)
M  V30 END COLLECTION
M  V30 END CTAB
M  END
>  <NO.>
1119

>  <Name>
alpiropride

>  <SMILES>
C=CCN1CCCC1CNC(=O)c1cc(S(=O)(=O)NC)c(N)cc1OC

>  <logBB>


>  <Class>
1

>  <MW>
382.17

>  <nHBAcc>
6

>  <nHBDon>
3

>  <SLogP>
0.57

>  <TopoPSA>
113.76

>  <MMFF94 Energy>
-13.097

$$$$
C=CCN1CCCC1CNC(=O)c1cc(S(N)(=O)=O)cc(OC)c1OC
Actelion Java MolfileCreator 2.0

  0  0  0  0  0  0              0 V3000
M  V30 BEGIN CTAB
M  V30 COUNTS 51 52 0 0 0
M  V30 BEGIN ATOM
M  V30 1 S 0.4787 5.3564 2.9553 0
M  V30 2 O -0.2478 4.952 4.134 0
M  V30 3 O 0.4343 6.7038 2.4362 0
M  V30 4 N 2.0984 5.0409 3.2542 0
M  V30 5 C 0.1174 4.2216 1.6483 0
M  V30 6 C -0.1932 4.702 0.3723 0
M  V30 7 C 0.1205 2.8526 1.9231 0
M  V30 8 C -0.4847 3.8008 -0.6534 0
M  V30 9 C -0.1726 1.9366 0.9051 0
M  V30 10 O -0.8112 4.1623 -1.9354 0
M  V30 11 C -0.4428 2.4153 -0.3896 0
M  V30 12 C -0.1573 0.4904 1.273 0
M  V30 13 C -1.0065 5.5464 -2.2 0
M  V30 14 O -0.7261 1.5287 -1.4062 0
M  V30 15 O 0.4806 0.1216 2.2531 0
M  V30 16 N -0.8915 -0.3593 0.4815 0
M  V30 17 C 0.4381 1.3159 -2.2109 0
M  V30 18 C -0.9682 -1.7927 0.708 0
M  V30 19 C 0.0029 -2.5729 -0.2003 0 CFG=2
M  V30 20 N -0.1327 -4.043 -0.1444 0
M  V30 21 C 1.4623 -2.3689 0.2141 0
M  V30 22 C 1.1013 -4.5544 -0.7571 0
M  V30 23 C -1.3296 -4.5343 -0.8327 0
M  V30 24 C 2.19 -3.6217 -0.2512 0
M  V30 25 C -1.513 -6.0111 -0.6302 0
M  V30 26 C -1.6403 -6.907 -1.6182 0
M  V30 27 H 2.2152 4.671 4.1989 0
M  V30 28 H 2.6581 5.8736 3.0677 0
M  V30 29 H -0.2005 5.7746 0.2032 0
M  V30 30 H 0.3426 2.4976 2.9291 0
M  V30 31 H -1.7952 5.9647 -1.5656 0
M  V30 32 H -1.3294 5.6448 -3.2409 0
M  V30 33 H -0.0701 6.1025 -2.0882 0
M  V30 34 H -1.3871 0.0328 -0.3138 0
M  V30 35 H 0.6969 2.2104 -2.786 0
M  V30 36 H 0.2091 0.5138 -2.9189 0
M  V30 37 H 1.2907 0.9947 -1.6018 0
M  V30 38 H -2.0053 -2.066 0.4915 0
M  V30 39 H -0.7818 -2.0127 1.7654 0
M  V30 40 H -0.1148 -2.2276 -1.2383 0
M  V30 41 H 1.5656 -2.279 1.3023 0
M  V30 42 H 1.8896 -1.4673 -0.2375 0
M  V30 43 H 1.0608 -4.5008 -1.8529 0
M  V30 44 H 1.3084 -5.5904 -0.4698 0
M  V30 45 H -1.307 -4.2802 -1.9004 0
M  V30 46 H -2.2227 -4.0566 -0.4145 0
M  V30 47 H 2.9135 -3.3945 -1.0411 0
M  V30 48 H 2.7368 -4.0701 0.5861 0
M  V30 49 H -1.5468 -6.3527 0.4023 0
M  V30 50 H -1.6131 -6.6136 -2.6626 0
M  V30 51 H -1.7709 -7.9613 -1.3944 0
M  V30 END ATOM
M  V30 BEGIN BOND
M  V30 1 2 1 2
M  V30 2 2 1 3
M  V30 3 1 1 4
M  V30 4 1 1 5
M  V30 5 2 5 6
M  V30 6 1 5 7
M  V30 7 1 6 8
M  V30 8 2 7 9
M  V30 9 1 8 10
M  V30 10 2 8 11
M  V30 11 1 9 12
M  V30 12 1 10 13
M  V30 13 1 11 14
M  V30 14 2 12 15
M  V30 15 1 12 16
M  V30 16 1 14 17
M  V30 17 1 16 18
M  V30 18 1 18 19
M  V30 19 1 19 20
M  V30 20 1 19 21
M  V30 21 1 20 22
M  V30 22 1 20 23
M  V30 23 1 21 24
M  V30 24 1 23 25
M  V30 25 2 25 26
M  V30 26 1 9 11
M  V30 27 1 22 24
M  V30 28 1 4 27
M  V30 29 1 4 28
M  V30 30 1 6 29
M  V30 31 1 7 30
M  V30 32 1 13 31
M  V30 33 1 13 32
M  V30 34 1 13 33
M  V30 35 1 16 34
M  V30 36 1 17 35
M  V30 37 1 17 36
M  V30 38 1 17 37
M  V30 39 1 18 38
M  V30 40 1 18 39
M  V30 41 1 19 40
M  V30 42 1 21 41
M  V30 43 1 21 42
M  V30 44 1 22 43
M  V30 45 1 22 44
M  V30 46 1 23 45
M  V30 47 1 23 46
M  V30 48 1 24 47
M  V30 49 1 24 48
M  V30 50 1 25 49
M  V30 51 1 26 50
M  V30 52 1 26 51
M  V30 END BOND
M  V30 BEGIN COLLECTION
M  V30 MDLV30/STERAC1 ATOMS=(1 19)
M  V30 END COLLECTION
M  V30 END CTAB
M  END
>  <NO.>
1120

>  <Name>
veralipride

>  <SMILES>
C=CCN1CCCC1CNC(=O)c1cc(S(N)(=O)=O)cc(OC)c1OC

>  <logBB>


>  <Class>
1

>  <MW>
383.15

>  <nHBAcc>
6

>  <nHBDon>
2

>  <SLogP>
0.73

>  <TopoPSA>
110.96

>  <MMFF94 Energy>
-38.021

$$$$
C=CCN1CC[C@]23CCCC[C@H]2[C@H]1Cc1ccc(O)cc13
Actelion Java MolfileCreator 2.0

  0  0  0  0  0  0              0 V3000
M  V30 BEGIN CTAB
M  V30 COUNTS 46 49 0 0 0
M  V30 BEGIN ATOM
M  V30 1 O 4.6491 2.2423 -1.0406 0
M  V30 2 C 3.3031 2.0267 -1.0986 0
M  V30 3 C 2.7585 1.0974 -0.2164 0
M  V30 4 C 2.5029 2.7034 -2.0065 0
M  V30 5 C 1.3782 0.8285 -0.2113 0
M  V30 6 C 1.1369 2.4336 -2.037 0
M  V30 7 C 0.5675 1.4946 -1.1584 0
M  V30 8 C 0.763 -0.2177 0.7374 0 CFG=1
M  V30 9 C -0.9217 1.2413 -1.2602 0
M  V30 10 C -0.7403 0.0746 0.9863 0 CFG=2
M  V30 11 C 0.8587 -1.5997 0.0382 0
M  V30 12 C 1.4586 -0.2987 2.1246 0
M  V30 13 C -1.4638 0.0985 -0.3701 0 CFG=2
M  V30 14 C -0.9686 1.347 1.826 0
M  V30 15 C -0.0056 -1.6891 -1.2297 0
M  V30 16 C 1.2495 0.9581 2.9723 0
M  V30 17 N -1.3917 -1.2162 -1.0639 0
M  V30 18 C -0.2323 1.2663 3.1607 0
M  V30 19 C -2.2609 -2.2219 -0.4349 0
M  V30 20 C -2.7087 -3.2585 -1.4286 0
M  V30 21 C -3.9869 -3.4983 -1.7534 0
M  V30 22 H 4.8827 2.9058 -1.71 0
M  V30 23 H 3.4378 0.5852 0.4574 0
M  V30 24 H 2.9182 3.429 -2.6976 0
M  V30 25 H 0.509 2.9534 -2.7579 0
M  V30 26 H -1.4312 2.1716 -0.9744 0
M  V30 27 H -1.1905 1.0528 -2.308 0
M  V30 28 H -1.1595 -0.7491 1.5832 0
M  V30 29 H 0.5404 -2.3869 0.7342 0
M  V30 30 H 1.8998 -1.8284 -0.2239 0
M  V30 31 H 1.0458 -1.1508 2.6832 0
M  V30 32 H 2.5295 -0.508 2.0338 0
M  V30 33 H -2.5266 0.3276 -0.2124 0
M  V30 34 H -2.0414 1.4748 2.0146 0
M  V30 35 H -0.6371 2.2469 1.2971 0
M  V30 36 H 0.4642 -1.1139 -2.0363 0
M  V30 37 H 0.0172 -2.7212 -1.5984 0
M  V30 38 H 1.7478 1.8167 2.508 0
M  V30 39 H 1.7175 0.8167 3.9534 0
M  V30 40 H -0.3478 2.2106 3.7046 0
M  V30 41 H -0.6897 0.4854 3.7808 0
M  V30 42 H -3.1571 -1.7418 -0.0204 0
M  V30 43 H -1.7671 -2.72 0.4075 0
M  V30 44 H -1.9356 -3.8568 -1.9025 0
M  V30 45 H -4.803 -2.9322 -1.3158 0
M  V30 46 H -4.2392 -4.264 -2.4801 0
M  V30 END ATOM
M  V30 BEGIN BOND
M  V30 1 1 1 2
M  V30 2 2 2 3
M  V30 3 1 2 4
M  V30 4 1 3 5
M  V30 5 2 4 6
M  V30 6 2 5 7
M  V30 7 1 5 8
M  V30 8 1 7 9
M  V30 9 1 8 10
M  V30 10 1 8 11
M  V30 11 1 8 12
M  V30 12 1 9 13
M  V30 13 1 10 14
M  V30 14 1 11 15
M  V30 15 1 12 16
M  V30 16 1 13 17
M  V30 17 1 14 18
M  V30 18 1 17 19
M  V30 19 1 19 20
M  V30 20 2 20 21
M  V30 21 1 6 7
M  V30 22 1 10 13
M  V30 23 1 15 17
M  V30 24 1 16 18
M  V30 25 1 1 22
M  V30 26 1 3 23
M  V30 27 1 4 24
M  V30 28 1 6 25
M  V30 29 1 9 26
M  V30 30 1 9 27
M  V30 31 1 10 28
M  V30 32 1 11 29
M  V30 33 1 11 30
M  V30 34 1 12 31
M  V30 35 1 12 32
M  V30 36 1 13 33
M  V30 37 1 14 34
M  V30 38 1 14 35
M  V30 39 1 15 36
M  V30 40 1 15 37
M  V30 41 1 16 38
M  V30 42 1 16 39
M  V30 43 1 18 40
M  V30 44 1 18 41
M  V30 45 1 19 42
M  V30 46 1 19 43
M  V30 47 1 20 44
M  V30 48 1 21 45
M  V30 49 1 21 46
M  V30 END BOND
M  V30 BEGIN COLLECTION
M  V30 MDLV30/STEABS ATOMS=(3 8 10 13)
M  V30 END COLLECTION
M  V30 END CTAB
M  END
>  <NO.>
1121

>  <Name>
levallorphan

>  <SMILES>
C=CCN1CC[C@]23CCCC[C@H]2[C@H]1Cc1ccc(O)cc13

>  <logBB>


>  <Class>
1

>  <MW>
283.19

>  <nHBAcc>
2

>  <nHBDon>
1

>  <SLogP>
3.64

>  <TopoPSA>
23.47

>  <MMFF94 Energy>
46.26

$$$$
C=CCN1CC[C@]23c4c5ccc(O)c4O[C@H]2[C@@H](O)C=C[C@H]3[C@H]1C5
Actelion Java MolfileCreator 2.0

  0  0  0  0  0  0              0 V3000
M  V30 BEGIN CTAB
M  V30 COUNTS 44 48 0 0 0
M  V30 BEGIN ATOM
M  V30 1 O -1.9444 -0.8098 2.512 0
M  V30 2 C -1.734 0.4532 2.0314 0
M  V30 3 C -1.3464 -1.6875 1.4883 0 CFG=2
M  V30 4 C -2.3605 1.6023 2.4555 0
M  V30 5 C -0.8417 0.4896 0.9881 0
M  V30 6 C -0.2737 -0.8673 0.7333 0 CFG=2
M  V30 7 C -2.4294 -2.3233 0.5646 0 CFG=1
M  V30 8 O -3.246 1.5811 3.4878 0
M  V30 9 C -2.103 2.795 1.7818 0
M  V30 10 C -0.6213 1.631 0.2367 0
M  V30 11 C -0.1584 -1.0655 -0.7845 0 CFG=1
M  V30 12 C 1.1193 -0.9861 1.3765 0
M  V30 13 O -3.7031 -2.3567 1.2022 0
M  V30 14 C -2.5597 -1.7159 -0.8075 0
M  V30 15 C -1.2496 2.8072 0.659 0
M  V30 16 C 0.1618 1.5115 -1.044 0
M  V30 17 C -1.5166 -1.1583 -1.444 0
M  V30 18 C 0.764 0.0855 -1.3151 0 CFG=1
M  V30 19 C 2.1567 -0.0701 0.7119 0
M  V30 20 N 2.1251 -0.1563 -0.7565 0
M  V30 21 C 3.1933 0.6665 -1.3385 0
M  V30 22 C 3.4336 0.3764 -2.7938 0
M  V30 23 C 4.5376 -0.2077 -3.2795 0
M  V30 24 H -0.8799 -2.5067 2.0508 0
M  V30 25 H -2.1441 -3.3711 0.4014 0
M  V30 26 H -3.3279 0.6394 3.736 0
M  V30 27 H -2.5982 3.7088 2.0984 0
M  V30 28 H 0.3391 -2.0241 -0.9966 0
M  V30 29 H 1.0843 -0.7597 2.4501 0
M  V30 30 H 1.461 -2.0262 1.2885 0
M  V30 31 H -4.3387 -2.7445 0.5798 0
M  V30 32 H -3.5142 -1.7889 -1.3203 0
M  V30 33 H -1.1118 3.734 0.1074 0
M  V30 34 H 0.9334 2.2863 -1.0751 0
M  V30 35 H -0.5317 1.7341 -1.8661 0
M  V30 36 H -1.6326 -0.7889 -2.4594 0
M  V30 37 H 0.8232 -0.0373 -2.4034 0
M  V30 38 H 3.1441 -0.3795 1.0775 0
M  V30 39 H 2.0172 0.9648 1.0477 0
M  V30 40 H 4.1289 0.4688 -0.7978 0
M  V30 41 H 3.0018 1.7376 -1.2124 0
M  V30 42 H 2.6668 0.6933 -3.4951 0
M  V30 43 H 5.3402 -0.5392 -2.628 0
M  V30 44 H 4.6533 -0.3777 -4.3451 0
M  V30 END ATOM
M  V30 BEGIN BOND
M  V30 1 1 1 2
M  V30 2 1 1 3
M  V30 3 2 2 4
M  V30 4 1 2 5
M  V30 5 1 3 6
M  V30 6 1 3 7
M  V30 7 1 4 8
M  V30 8 1 4 9
M  V30 9 2 5 10
M  V30 10 1 6 11
M  V30 11 1 6 12
M  V30 12 1 7 13
M  V30 13 1 7 14
M  V30 14 2 9 15
M  V30 15 1 10 16
M  V30 16 1 11 17
M  V30 17 1 11 18
M  V30 18 1 12 19
M  V30 19 1 18 20
M  V30 20 1 20 21
M  V30 21 1 21 22
M  V30 22 2 22 23
M  V30 23 1 5 6
M  V30 24 1 10 15
M  V30 25 2 14 17
M  V30 26 1 16 18
M  V30 27 1 19 20
M  V30 28 1 3 24
M  V30 29 1 7 25
M  V30 30 1 8 26
M  V30 31 1 9 27
M  V30 32 1 11 28
M  V30 33 1 12 29
M  V30 34 1 12 30
M  V30 35 1 13 31
M  V30 36 1 14 32
M  V30 37 1 15 33
M  V30 38 1 16 34
M  V30 39 1 16 35
M  V30 40 1 17 36
M  V30 41 1 18 37
M  V30 42 1 19 38
M  V30 43 1 19 39
M  V30 44 1 21 40
M  V30 45 1 21 41
M  V30 46 1 22 42
M  V30 47 1 23 43
M  V30 48 1 23 44
M  V30 END BOND
M  V30 BEGIN COLLECTION
M  V30 MDLV30/STEABS ATOMS=(5 3 6 7 11 18)
M  V30 END COLLECTION
M  V30 END CTAB
M  END
>  <NO.>
1122

>  <Name>
nalorphine

>  <SMILES>
C=CCN1CC[C@]23c4c5ccc(O)c4O[C@H]2[C@@H](O)C=C[C@H]3[C@H]1C5

>  <logBB>


>  <Class>
1

>  <MW>
311.15

>  <nHBAcc>
4

>  <nHBDon>
2

>  <SLogP>
1.75

>  <TopoPSA>
52.93

>  <MMFF94 Energy>
97.51

$$$$
C=CCN1C[C@H](C(=O)N(CCCN(C)C)C(=O)NCC)C[C@@H]2c3cccc4[nH]cc(c34)C[C@H]21
Actelion Java MolfileCreator 2.0

  0  0  0  0  0  0              0 V3000
M  V30 BEGIN CTAB
M  V30 COUNTS 70 73 0 0 0
M  V30 BEGIN ATOM
M  V30 1 O -0.4746 -0.8704 3.9611 0
M  V30 2 C 0.2196 -0.6813 2.967 0
M  V30 3 N 0.3671 -1.6247 1.9481 0
M  V30 4 N 0.9332 0.4752 2.7651 0
M  V30 5 C 0.3229 -1.3849 0.5711 0
M  V30 6 C 0.4658 -3.0173 2.3774 0
M  V30 7 C 0.8403 1.6116 3.6568 0
M  V30 8 O 0.7928 -2.1833 -0.2454 0
M  V30 9 C -0.3573 -0.1054 0.0882 0 CFG=1
M  V30 10 C 1.8462 -3.3735 2.9454 0
M  V30 11 C -0.306 2.5274 3.2682 0
M  V30 12 C 0.6262 0.7037 -0.7563 0
M  V30 13 C -1.5912 -0.4649 -0.7385 0
M  V30 14 C 2.9472 -3.3532 1.8761 0
M  V30 15 N 0.0251 1.9738 -1.2168 0
M  V30 16 C -2.2398 0.8076 -1.2985 0 CFG=1
M  V30 17 N 4.289 -3.624 2.427 0
M  V30 18 C -1.1599 1.6803 -2.0918 0 CFG=1
M  V30 19 C 1.0288 2.8131 -1.8971 0
M  V30 20 C -3.4634 0.5212 -2.153 0
M  V30 21 C 5.3069 -3.3461 1.4082 0
M  V30 22 C 4.4277 -5.0076 2.8882 0
M  V30 23 C -1.8184 2.9749 -2.7195 0
M  V30 24 C 2.1577 3.2444 -0.9964 0
M  V30 25 C -3.7767 1.4658 -3.1367 0
M  V30 26 C -4.3616 -0.5462 -2.0157 0
M  V30 27 C -3.0661 2.6359 -3.4647 0
M  V30 28 C 2.2868 4.4722 -0.4742 0
M  V30 29 C -4.8826 1.3592 -3.9571 0
M  V30 30 C -5.4842 -0.6597 -2.8518 0
M  V30 31 C -3.7499 3.2454 -4.4914 0
M  V30 32 N -4.8484 2.4618 -4.783 0
M  V30 33 C -5.7702 0.2894 -3.8459 0
M  V30 34 H 1.6473 0.4871 2.0524 0
M  V30 35 H -0.2822 -3.191 3.1608 0
M  V30 36 H 0.2153 -3.6933 1.5516 0
M  V30 37 H 0.7128 1.2599 4.6859 0
M  V30 38 H 1.7902 2.1521 3.5947 0
M  V30 39 H -0.7033 0.5 0.9296 0
M  V30 40 H 1.7695 -4.3744 3.3847 0
M  V30 41 H 2.1065 -2.6838 3.7579 0
M  V30 42 H -0.3486 3.3918 3.9379 0
M  V30 43 H -0.1838 2.8925 2.2428 0
M  V30 44 H -1.2659 2.0032 3.3223 0
M  V30 45 H 1.5042 0.8974 -0.1316 0
M  V30 46 H 0.9825 0.1156 -1.6136 0
M  V30 47 H -1.3241 -1.145 -1.5586 0
M  V30 48 H -2.2947 -1.013 -0.0994 0
M  V30 49 H 2.7052 -4.0609 1.0727 0
M  V30 50 H 2.9611 -2.3513 1.4303 0
M  V30 51 H -2.5932 1.4116 -0.4492 0
M  V30 52 H -0.8117 1.0702 -2.9411 0
M  V30 53 H 0.5649 3.7326 -2.2672 0
M  V30 54 H 1.4451 2.297 -2.7715 0
M  V30 55 H 5.2598 -2.2981 1.0911 0
M  V30 56 H 5.1899 -3.9813 0.5226 0
M  V30 57 H 6.3125 -3.5015 1.8152 0
M  V30 58 H 4.2104 -5.7318 2.0948 0
M  V30 59 H 3.769 -5.2119 3.7377 0
M  V30 60 H 5.4463 -5.1918 3.2492 0
M  V30 61 H -1.1293 3.4538 -3.4232 0
M  V30 62 H -2.0548 3.6934 -1.9252 0
M  V30 63 H 2.9355 2.5124 -0.7964 0
M  V30 64 H -4.2084 -1.3055 -1.2537 0
M  V30 65 H 3.136 4.7247 0.1527 0
M  V30 66 H 1.5451 5.2455 -0.6504 0
M  V30 67 H -6.1573 -1.5052 -2.7207 0
M  V30 68 H -3.5626 4.1571 -5.0424 0
M  V30 69 H -5.5344 2.6657 -5.4961 0
M  V30 70 H -6.6424 0.1943 -4.4825 0
M  V30 END ATOM
M  V30 BEGIN BOND
M  V30 1 2 1 2
M  V30 2 1 2 3
M  V30 3 1 2 4
M  V30 4 1 3 5
M  V30 5 1 3 6
M  V30 6 1 4 7
M  V30 7 2 5 8
M  V30 8 1 5 9
M  V30 9 1 6 10
M  V30 10 1 7 11
M  V30 11 1 9 12
M  V30 12 1 9 13
M  V30 13 1 10 14
M  V30 14 1 12 15
M  V30 15 1 13 16
M  V30 16 1 14 17
M  V30 17 1 15 18
M  V30 18 1 15 19
M  V30 19 1 16 20
M  V30 20 1 17 21
M  V30 21 1 17 22
M  V30 22 1 18 23
M  V30 23 1 19 24
M  V30 24 2 20 25
M  V30 25 1 20 26
M  V30 26 1 23 27
M  V30 27 2 24 28
M  V30 28 1 25 29
M  V30 29 2 26 30
M  V30 30 2 27 31
M  V30 31 1 29 32
M  V30 32 2 29 33
M  V30 33 1 16 18
M  V30 34 1 25 27
M  V30 35 1 30 33
M  V30 36 1 31 32
M  V30 37 1 4 34
M  V30 38 1 6 35
M  V30 39 1 6 36
M  V30 40 1 7 37
M  V30 41 1 7 38
M  V30 42 1 9 39
M  V30 43 1 10 40
M  V30 44 1 10 41
M  V30 45 1 11 42
M  V30 46 1 11 43
M  V30 47 1 11 44
M  V30 48 1 12 45
M  V30 49 1 12 46
M  V30 50 1 13 47
M  V30 51 1 13 48
M  V30 52 1 14 49
M  V30 53 1 14 50
M  V30 54 1 16 51
M  V30 55 1 18 52
M  V30 56 1 19 53
M  V30 57 1 19 54
M  V30 58 1 21 55
M  V30 59 1 21 56
M  V30 60 1 21 57
M  V30 61 1 22 58
M  V30 62 1 22 59
M  V30 63 1 22 60
M  V30 64 1 23 61
M  V30 65 1 23 62
M  V30 66 1 24 63
M  V30 67 1 26 64
M  V30 68 1 28 65
M  V30 69 1 28 66
M  V30 70 1 30 67
M  V30 71 1 31 68
M  V30 72 1 32 69
M  V30 73 1 33 70
M  V30 END BOND
M  V30 BEGIN COLLECTION
M  V30 MDLV30/STEABS ATOMS=(3 9 16 18)
M  V30 END COLLECTION
M  V30 END CTAB
M  END
>  <NO.>
1123

>  <Name>
cabergoline

>  <SMILES>
C=CCN1C[C@H](C(=O)N(CCCN(C)C)C(=O)NCC)C[C@@H]2c3cccc4[nH]cc(c34)C[C@H]21

>  <logBB>


>  <Class>
1

>  <MW>
451.29

>  <nHBAcc>
4

>  <nHBDon>
2

>  <SLogP>
3.19

>  <TopoPSA>
71.68

>  <MMFF94 Energy>
-16.993

$$$$
C=CCONC1=Nc2ccc(Cl)cc2C(c2ccccc2Cl)=NC1
Actelion Java MolfileCreator 2.0

  0  0  0  0  0  0              0 V3000
M  V30 BEGIN CTAB
M  V30 COUNTS 39 41 0 0 0
M  V30 BEGIN ATOM
M  V30 1 Cl -3.5943 -1.0609 0.5711 0
M  V30 2 C -3.4477 0.6382 0.2997 0
M  V30 3 C -2.256 1.2497 -0.1111 0
M  V30 4 C -4.579 1.4246 0.5471 0
M  V30 5 C -1.0059 0.4946 -0.4195 0
M  V30 6 C -2.2 2.6472 -0.2354 0
M  V30 7 C -4.5225 2.8121 0.3996 0
M  V30 8 N 0.0759 0.8977 0.1637 0
M  V30 9 C -1.0685 -0.6212 -1.4084 0
M  V30 10 C -3.3318 3.4239 0.0144 0
M  V30 11 C 1.3227 0.1752 -0.1034 0
M  V30 12 C -0.3707 -1.8249 -1.1986 0
M  V30 13 C -1.8251 -0.4322 -2.5778 0
M  V30 14 C 1.1926 -1.2398 0.4669 0
M  V30 15 N 0.4002 -2.1346 -0.0658 0
M  V30 16 C -0.4854 -2.837 -2.1618 0
M  V30 17 C -1.9103 -1.452 -3.5215 0
M  V30 18 N 1.9117 -1.6192 1.575 0
M  V30 19 C -1.2472 -2.6566 -3.3181 0
M  V30 20 Cl -2.8415 -1.2187 -4.9486 0
M  V30 21 O 2.5683 -0.641 2.3093 0
M  V30 22 C 3.9509 -1.0056 2.3628 0
M  V30 23 C 4.6721 0.0509 3.1405 0
M  V30 24 C 5.7314 0.7392 2.6944 0
M  V30 25 H -5.5091 0.9616 0.8693 0
M  V30 26 H -1.2693 3.1312 -0.5256 0
M  V30 27 H -5.4045 3.4162 0.6001 0
M  V30 28 H -3.2806 4.5057 -0.0847 0
M  V30 29 H 1.5543 0.139 -1.1741 0
M  V30 30 H 2.1477 0.7133 0.3706 0
M  V30 31 H -2.3414 0.5062 -2.7608 0
M  V30 32 H 0.0283 -3.7824 -2.0 0
M  V30 33 H 1.665 -2.4894 2.0328 0
M  V30 34 H -1.3164 -3.4586 -4.0481 0
M  V30 35 H 4.351 -1.0949 1.3455 0
M  V30 36 H 4.0565 -1.9676 2.8779 0
M  V30 37 H 4.2861 0.2607 4.1355 0
M  V30 38 H 6.1487 0.5719 1.7064 0
M  V30 39 H 6.1997 1.4977 3.3146 0
M  V30 END ATOM
M  V30 BEGIN BOND
M  V30 1 1 1 2
M  V30 2 2 2 3
M  V30 3 1 2 4
M  V30 4 1 3 5
M  V30 5 1 3 6
M  V30 6 2 4 7
M  V30 7 2 5 8
M  V30 8 1 5 9
M  V30 9 2 6 10
M  V30 10 1 8 11
M  V30 11 2 9 12
M  V30 12 1 9 13
M  V30 13 1 11 14
M  V30 14 1 12 15
M  V30 15 1 12 16
M  V30 16 2 13 17
M  V30 17 1 14 18
M  V30 18 2 16 19
M  V30 19 1 17 20
M  V30 20 1 18 21
M  V30 21 1 21 22
M  V30 22 1 22 23
M  V30 23 2 23 24
M  V30 24 1 7 10
M  V30 25 2 14 15
M  V30 26 1 17 19
M  V30 27 1 4 25
M  V30 28 1 6 26
M  V30 29 1 7 27
M  V30 30 1 10 28
M  V30 31 1 11 29
M  V30 32 1 11 30
M  V30 33 1 13 31
M  V30 34 1 16 32
M  V30 35 1 18 33
M  V30 36 1 19 34
M  V30 37 1 22 35
M  V30 38 1 22 36
M  V30 39 1 23 37
M  V30 40 1 24 38
M  V30 41 1 24 39
M  V30 END BOND
M  V30 END CTAB
M  END
>  <NO.>
1124

>  <Name>
uldazepam

>  <SMILES>
C=CCONC1=Nc2ccc(Cl)cc2C(c2ccccc2Cl)=NC1

>  <logBB>


>  <Class>
1

>  <MW>
359.06

>  <nHBAcc>
4

>  <nHBDon>
1

>  <SLogP>
4.58

>  <TopoPSA>
45.98

>  <MMFF94 Energy>
131.05

$$$$
C=CCSCC(=O)NC1C(=O)N2C1SC(C)(C)C2C(=O)O
Actelion Java MolfileCreator 2.0

  0  0  0  0  0  0              0 V3000
M  V30 BEGIN CTAB
M  V30 COUNTS 39 40 0 0 0
M  V30 BEGIN ATOM
M  V30 1 S -1.3976 2.5496 -1.3976 0
M  V30 2 C -1.2337 1.8433 -3.1193 0
M  V30 3 C -0.6295 1.0493 -0.6652 0
M  V30 4 C 0.1127 1.0921 -3.0777 0
M  V30 5 C -2.4545 0.9498 -3.3771 0
M  V30 6 C -1.2073 2.9999 -4.1206 0
M  V30 7 N 0.3039 0.6387 -1.7116 0
M  V30 8 C 0.5937 1.2747 0.2645 0
M  V30 9 C 0.2088 -0.0723 -4.0516 0
M  V30 10 C 1.427 0.8564 -0.9838 0
M  V30 11 N 0.7327 0.3583 1.4266 0
M  V30 12 O -0.0697 -1.2415 -3.8383 0
M  V30 13 O 0.598 0.3141 -5.2851 0
M  V30 14 O 2.5932 0.8179 -1.2968 0
M  V30 15 C -0.2462 0.2173 2.3809 0
M  V30 16 O -1.3248 0.8014 2.2972 0
M  V30 17 C 0.0403 -0.7851 3.4895 0
M  V30 18 S 1.8134 -0.8516 3.9215 0
M  V30 19 C 1.7159 -1.9506 5.3641 0
M  V30 20 C 1.3931 -3.3463 4.9309 0
M  V30 21 C 0.2967 -4.0209 5.3028 0
M  V30 22 H -1.3253 0.2498 -0.3944 0
M  V30 23 H 0.9481 1.7707 -3.3008 0
M  V30 24 H -3.3914 1.51 -3.2718 0
M  V30 25 H -2.4966 0.0952 -2.6928 0
M  V30 26 H -2.439 0.5505 -4.3976 0
M  V30 27 H -0.3747 3.6867 -3.9293 0
M  V30 28 H -1.0916 2.6245 -5.1434 0
M  V30 29 H -2.136 3.5817 -4.0906 0
M  V30 30 H 0.7772 2.3122 0.5663 0
M  V30 31 H 1.6128 -0.1252 1.5948 0
M  V30 32 H 0.6382 -0.5232 -5.7953 0
M  V30 33 H -0.532 -0.4864 4.373 0
M  V30 34 H -0.2974 -1.7663 3.1443 0
M  V30 35 H 2.6916 -1.949 5.8606 0
M  V30 36 H 0.9866 -1.555 6.0788 0
M  V30 37 H 2.1199 -3.8413 4.2889 0
M  V30 38 H -0.4547 -3.5835 5.9534 0
M  V30 39 H 0.13 -5.0385 4.9612 0
M  V30 END ATOM
M  V30 BEGIN BOND
M  V30 1 1 1 2
M  V30 2 1 1 3
M  V30 3 1 2 4
M  V30 4 1 2 5
M  V30 5 1 2 6
M  V30 6 1 3 7
M  V30 7 1 3 8
M  V30 8 1 4 9
M  V30 9 1 7 10
M  V30 10 1 8 11
M  V30 11 2 9 12
M  V30 12 1 9 13
M  V30 13 2 10 14
M  V30 14 1 11 15
M  V30 15 2 15 16
M  V30 16 1 15 17
M  V30 17 1 17 18
M  V30 18 1 18 19
M  V30 19 1 19 20
M  V30 20 2 20 21
M  V30 21 1 4 7
M  V30 22 1 8 10
M  V30 23 1 3 22
M  V30 24 1 4 23
M  V30 25 1 5 24
M  V30 26 1 5 25
M  V30 27 1 5 26
M  V30 28 1 6 27
M  V30 29 1 6 28
M  V30 30 1 6 29
M  V30 31 1 8 30
M  V30 32 1 11 31
M  V30 33 1 13 32
M  V30 34 1 17 33
M  V30 35 1 17 34
M  V30 36 1 19 35
M  V30 37 1 19 36
M  V30 38 1 20 37
M  V30 39 1 21 38
M  V30 40 1 21 39
M  V30 END BOND
M  V30 END CTAB
M  END
>  <NO.>
1125

>  <Name>
almecillin

>  <SMILES>
C=CCSCC(=O)NC1C(=O)N2C1SC(C)(C)C2C(=O)O

>  <logBB>


>  <Class>
-1

>  <MW>
330.07

>  <nHBAcc>
5

>  <nHBDon>
2

>  <SLogP>
0.54

>  <TopoPSA>
86.71

>  <MMFF94 Energy>
43.925

$$$$
C=NC(C(=O)NC1C(=O)N2C1SC(C)(C)C2C(=O)O)c1ccccc1
Actelion Java MolfileCreator 2.0

  0  0  0  0  0  0              0 V3000
M  V30 BEGIN CTAB
M  V30 COUNTS 44 46 0 0 0
M  V30 BEGIN ATOM
M  V30 1 S 1.0594 3.0176 0.9779 0
M  V30 2 C 2.6278 3.3368 -0.0081 0
M  V30 3 C 1.1403 1.1771 0.8011 0
M  V30 4 C 3.3462 1.9707 -0.025 0
M  V30 5 C 2.1928 3.8883 -1.372 0
M  V30 6 C 3.4336 4.3973 0.7524 0
M  V30 7 N 2.3043 0.9595 -0.0621 0
M  V30 8 C 0.2543 0.5839 -0.3277 0
M  V30 9 C 4.4667 1.7148 -1.0319 0
M  V30 10 C 1.5644 0.6348 -1.1595 0
M  V30 11 N -0.2836 -0.7772 -0.1106 0
M  V30 12 O 4.912 0.6232 -1.3544 0
M  V30 13 O 5.0722 2.8265 -1.4898 0
M  V30 14 O 1.8674 0.5449 -2.3258 0
M  V30 15 C -1.0772 -1.1144 0.9637 0
M  V30 16 O -1.3652 -0.31 1.8474 0
M  V30 17 C -1.577 -2.5786 0.9448 0
M  V30 18 N -0.7564 -3.338 -0.0476 0
M  V30 19 C -3.0663 -2.6323 0.6498 0
M  V30 20 C -0.8067 -4.612 0.1272 0
M  V30 21 C -3.9886 -2.6948 1.7057 0
M  V30 22 C -3.5514 -2.5873 -0.6667 0
M  V30 23 C -5.3605 -2.7319 1.4494 0
M  V30 24 C -4.9233 -2.6255 -0.9206 0
M  V30 25 C -5.827 -2.7001 0.137 0
M  V30 26 H 1.202 0.6236 1.7418 0
M  V30 27 H 3.8357 1.8278 0.9501 0
M  V30 28 H 3.0529 4.1421 -1.9982 0
M  V30 29 H 1.574 3.1876 -1.9385 0
M  V30 30 H 1.6127 4.8128 -1.2582 0
M  V30 31 H 3.7075 4.0585 1.7584 0
M  V30 32 H 4.3634 4.639 0.2272 0
M  V30 33 H 2.8725 5.3336 0.8568 0
M  V30 34 H -0.5235 1.2492 -0.719 0
M  V30 35 H -0.0755 -1.5479 -0.7459 0
M  V30 36 H 5.7591 2.4748 -2.0973 0
M  V30 37 H -1.3729 -2.9774 1.9487 0
M  V30 38 H -1.3945 -5.1027 0.9228 0
M  V30 39 H -0.2413 -5.2771 -0.5449 0
M  V30 40 H -3.645 -2.7015 2.7383 0
M  V30 41 H -2.8602 -2.5206 -1.5046 0
M  V30 42 H -6.066 -2.7758 2.2752 0
M  V30 43 H -5.2867 -2.5905 -1.9444 0
M  V30 44 H -6.8954 -2.7238 -0.061 0
M  V30 END ATOM
M  V30 BEGIN BOND
M  V30 1 1 1 2
M  V30 2 1 1 3
M  V30 3 1 2 4
M  V30 4 1 2 5
M  V30 5 1 2 6
M  V30 6 1 3 7
M  V30 7 1 3 8
M  V30 8 1 4 9
M  V30 9 1 7 10
M  V30 10 1 8 11
M  V30 11 2 9 12
M  V30 12 1 9 13
M  V30 13 2 10 14
M  V30 14 1 11 15
M  V30 15 2 15 16
M  V30 16 1 15 17
M  V30 17 1 17 18
M  V30 18 1 17 19
M  V30 19 2 18 20
M  V30 20 2 19 21
M  V30 21 1 19 22
M  V30 22 1 21 23
M  V30 23 2 22 24
M  V30 24 2 23 25
M  V30 25 1 4 7
M  V30 26 1 8 10
M  V30 27 1 24 25
M  V30 28 1 3 26
M  V30 29 1 4 27
M  V30 30 1 5 28
M  V30 31 1 5 29
M  V30 32 1 5 30
M  V30 33 1 6 31
M  V30 34 1 6 32
M  V30 35 1 6 33
M  V30 36 1 8 34
M  V30 37 1 11 35
M  V30 38 1 13 36
M  V30 39 1 17 37
M  V30 40 1 20 38
M  V30 41 1 20 39
M  V30 42 1 21 40
M  V30 43 1 22 41
M  V30 44 1 23 42
M  V30 45 1 24 43
M  V30 46 1 25 44
M  V30 END BOND
M  V30 END CTAB
M  END
>  <NO.>
1130

>  <Name>
6489-97-0

>  <SMILES>
C=NC(C(=O)NC1C(=O)N2C1SC(C)(C)C2C(=O)O)c1ccccc1

>  <logBB>


>  <Class>
-1

>  <MW>
361.11

>  <nHBAcc>
5

>  <nHBDon>
2

>  <SLogP>
1.06

>  <TopoPSA>
99.07

>  <MMFF94 Energy>
98.016

$$$$
CC(=O)C1(O)CCC2C3CCC4=CC(=O)C=CC4(C)C3C(O)CC21C
Actelion Java MolfileCreator 2.0

  0  0  0  0  0  0              0 V3000
M  V30 BEGIN CTAB
M  V30 COUNTS 53 56 0 0 0
M  V30 BEGIN ATOM
M  V30 1 O -2.177 5.2471 2.8227 0
M  V30 2 C -1.7967 4.4629 1.9629 0
M  V30 3 C -2.6908 3.4186 1.4244 0
M  V30 4 C -0.4236 4.5176 1.4286 0
M  V30 5 C -2.2841 2.5569 0.4755 0
M  V30 6 C -0.0177 3.6615 0.4817 0
M  V30 7 C -0.8796 2.5688 -0.1457 0
M  V30 8 C -3.2018 1.4641 -0.0063 0
M  V30 9 C -0.2308 1.1515 0.1177 0
M  V30 10 C -1.0201 2.9391 -1.6392 0
M  V30 11 C -2.572 0.1063 0.2729 0
M  V30 12 C 1.1934 0.9589 -0.4577 0
M  V30 13 C -1.157 -0.0211 -0.3254 0
M  V30 14 O 1.2192 1.1536 -1.8638 0
M  V30 15 C 1.7727 -0.423 -0.1247 0
M  V30 16 C -0.5655 -1.4155 -0.0068 0
M  V30 17 C 0.8795 -1.638 -0.5145 0
M  V30 18 C -0.5034 -1.7801 1.4897 0
M  V30 19 C 1.2778 -2.9413 0.2657 0
M  V30 20 C 0.8949 -1.8532 -2.0405 0
M  V30 21 C 0.7036 -2.707 1.674 0
M  V30 22 O 0.5742 -4.0861 -0.2299 0
M  V30 23 C 2.8058 -3.1977 0.3307 0
M  V30 24 O 3.5591 -2.5383 1.0509 0
M  V30 25 C 3.3712 -4.2751 -0.5597 0
M  V30 26 H -3.6828 3.3888 1.8603 0
M  V30 27 H 0.22 5.2894 1.8322 0
M  V30 28 H 0.9957 3.7749 0.1037 0
M  V30 29 H -3.3988 1.5808 -1.0777 0
M  V30 30 H -4.178 1.5132 0.4912 0
M  V30 31 H -0.1214 1.072 1.2104 0
M  V30 32 H -0.0608 3.2151 -2.0908 0
M  V30 33 H -1.679 3.8077 -1.771 0
M  V30 34 H -1.4413 2.1245 -2.2361 0
M  V30 35 H -3.2182 -0.6795 -0.1366 0
M  V30 36 H -2.5417 -0.0466 1.3589 0
M  V30 37 H 1.865 1.7078 -0.024 0
M  V30 38 H -1.2674 0.0327 -1.4163 0
M  V30 39 H 2.1495 1.125 -2.1491 0
M  V30 40 H 1.9692 -0.4296 0.9538 0
M  V30 41 H 2.7471 -0.5268 -0.6194 0
M  V30 42 H -1.222 -2.1579 -0.4854 0
M  V30 43 H -1.4271 -2.2823 1.7993 0
M  V30 44 H -0.3866 -0.9038 2.1347 0
M  V30 45 H 1.9085 -2.065 -2.3954 0
M  V30 46 H 0.2503 -2.6829 -2.3474 0
M  V30 47 H 0.5258 -0.9849 -2.5901 0
M  V30 48 H 0.3927 -3.6434 2.152 0
M  V30 49 H 1.4228 -2.2288 2.3484 0
M  V30 50 H 0.8031 -4.2321 -1.1616 0
M  V30 51 H 3.1279 -4.0635 -1.603 0
M  V30 52 H 2.9717 -5.2479 -0.2633 0
M  V30 53 H 4.4599 -4.301 -0.4565 0
M  V30 END ATOM
M  V30 BEGIN BOND
M  V30 1 2 1 2
M  V30 2 1 2 3
M  V30 3 1 2 4
M  V30 4 2 3 5
M  V30 5 2 4 6
M  V30 6 1 5 7
M  V30 7 1 5 8
M  V30 8 1 7 9
M  V30 9 1 7 10
M  V30 10 1 8 11
M  V30 11 1 9 12
M  V30 12 1 9 13
M  V30 13 1 12 14
M  V30 14 1 12 15
M  V30 15 1 13 16
M  V30 16 1 15 17
M  V30 17 1 16 18
M  V30 18 1 17 19
M  V30 19 1 17 20
M  V30 20 1 18 21
M  V30 21 1 19 22
M  V30 22 1 19 23
M  V30 23 2 23 24
M  V30 24 1 23 25
M  V30 25 1 6 7
M  V30 26 1 11 13
M  V30 27 1 16 17
M  V30 28 1 19 21
M  V30 29 1 3 26
M  V30 30 1 4 27
M  V30 31 1 6 28
M  V30 32 1 8 29
M  V30 33 1 8 30
M  V30 34 1 9 31
M  V30 35 1 10 32
M  V30 36 1 10 33
M  V30 37 1 10 34
M  V30 38 1 11 35
M  V30 39 1 11 36
M  V30 40 1 12 37
M  V30 41 1 13 38
M  V30 42 1 14 39
M  V30 43 1 15 40
M  V30 44 1 15 41
M  V30 45 1 16 42
M  V30 46 1 18 43
M  V30 47 1 18 44
M  V30 48 1 20 45
M  V30 49 1 20 46
M  V30 50 1 20 47
M  V30 51 1 21 48
M  V30 52 1 21 49
M  V30 53 1 22 50
M  V30 54 1 25 51
M  V30 55 1 25 52
M  V30 56 1 25 53
M  V30 END BOND
M  V30 END CTAB
M  END
>  <NO.>
1132

>  <Name>
deprodone

>  <SMILES>
CC(=O)C1(O)CCC2C3CCC4=CC(=O)C=CC4(C)C3C(O)CC21C

>  <logBB>


>  <Class>
1

>  <MW>
344.2

>  <nHBAcc>
4

>  <nHBDon>
2

>  <SLogP>
2.59

>  <TopoPSA>
74.6

>  <MMFF94 Energy>
112.71

$$$$
CC(=O)C12OC(C)(C)OC1CC1C3CCC4=CC(=O)CCC4(C)C3CCC12C
Actelion Java MolfileCreator 2.0

  0  0  0  0  0  0              0 V3000
M  V30 BEGIN CTAB
M  V30 COUNTS 62 66 0 0 0
M  V30 BEGIN ATOM
M  V30 1 O -0.8064 3.0671 5.8174 0
M  V30 2 C -0.6128 2.1509 5.0233 0
M  V30 3 C -1.7666 1.4918 4.3683 0
M  V30 4 C 0.7672 1.7274 4.592 0
M  V30 5 C -1.5954 0.425 3.5674 0
M  V30 6 C 0.7922 0.2224 4.3877 0
M  V30 7 C -0.2558 -0.2918 3.3565 0
M  V30 8 C -2.724 -0.0383 2.6812 0
M  V30 9 C 0.1547 -0.0151 1.8619 0
M  V30 10 C -0.4039 -1.8079 3.6446 0
M  V30 11 C -2.3307 0.2065 1.2241 0
M  V30 12 C -0.971 -0.4262 0.8614 0
M  V30 13 C 1.4824 -0.6717 1.4414 0
M  V30 14 C -0.6025 -0.1569 -0.615 0
M  V30 15 C 1.8597 -0.329 -0.0013 0
M  V30 16 C 0.7803 -0.7166 -1.0422 0
M  V30 17 C -0.5448 1.3247 -1.0215 0
M  V30 18 C 0.9956 -0.0013 -2.4146 0
M  V30 19 C 0.7129 -2.25 -1.1848 0
M  V30 20 C 0.3896 1.3911 -2.2351 0
M  V30 21 O 0.1851 -0.604 -3.4294 0
M  V30 22 C 2.4708 0.0672 -2.8573 0
M  V30 23 O -0.3601 1.6719 -3.4154 0
M  V30 24 C -0.454 0.454 -4.1458 0
M  V30 25 O 3.2017 1.0165 -2.5621 0
M  V30 26 C 3.0441 -1.1172 -3.5947 0
M  V30 27 C 0.2317 0.6392 -5.4956 0
M  V30 28 C -1.9228 0.0971 -4.3337 0
M  V30 29 H -2.7201 1.9929 4.4931 0
M  V30 30 H 1.0409 2.2705 3.6823 0
M  V30 31 H 1.477 1.9981 5.3814 0
M  V30 32 H 1.8052 -0.0958 4.1239 0
M  V30 33 H 0.5892 -0.2412 5.3649 0
M  V30 34 H -3.6527 0.5047 2.8956 0
M  V30 35 H -2.9434 -1.097 2.8537 0
M  V30 36 H 0.2969 1.0704 1.7686 0
M  V30 37 H -0.8438 -1.9767 4.6355 0
M  V30 38 H 0.5699 -2.3101 3.635 0
M  V30 39 H -1.041 -2.3271 2.9243 0
M  V30 40 H -2.2994 1.2893 1.0481 0
M  V30 41 H -3.1127 -0.1957 0.5687 0
M  V30 42 H -1.1058 -1.5123 0.9415 0
M  V30 43 H 2.2992 -0.3257 2.0826 0
M  V30 44 H 1.4325 -1.7587 1.5598 0
M  V30 45 H -1.38 -0.6303 -1.2321 0
M  V30 46 H 2.0669 0.7476 -0.0461 0
M  V30 47 H 2.8064 -0.8296 -0.241 0
M  V30 48 H -0.1239 1.936 -0.2167 0
M  V30 49 H -1.5438 1.7148 -1.2444 0
M  V30 50 H 0.4663 -2.7404 -0.2383 0
M  V30 51 H 1.6693 -2.6611 -1.5186 0
M  V30 52 H -0.0519 -2.5596 -1.905 0
M  V30 53 H 1.1135 2.1991 -2.092 0
M  V30 54 H 2.341 -1.4908 -4.3416 0
M  V30 55 H 3.2978 -1.9073 -2.8864 0
M  V30 56 H 3.9525 -0.8071 -4.1198 0
M  V30 57 H 1.2782 0.9351 -5.3645 0
M  V30 58 H -0.2504 1.4299 -6.0803 0
M  V30 59 H 0.2273 -0.2902 -6.0744 0
M  V30 60 H -2.037 -0.8482 -4.8744 0
M  V30 61 H -2.4177 -0.0239 -3.3638 0
M  V30 62 H -2.4593 0.8867 -4.8705 0
M  V30 END ATOM
M  V30 BEGIN BOND
M  V30 1 2 1 2
M  V30 2 1 2 3
M  V30 3 1 2 4
M  V30 4 2 3 5
M  V30 5 1 4 6
M  V30 6 1 5 7
M  V30 7 1 5 8
M  V30 8 1 7 9
M  V30 9 1 7 10
M  V30 10 1 8 11
M  V30 11 1 9 12
M  V30 12 1 9 13
M  V30 13 1 12 14
M  V30 14 1 13 15
M  V30 15 1 14 16
M  V30 16 1 14 17
M  V30 17 1 16 18
M  V30 18 1 16 19
M  V30 19 1 17 20
M  V30 20 1 18 21
M  V30 21 1 18 22
M  V30 22 1 20 23
M  V30 23 1 21 24
M  V30 24 2 22 25
M  V30 25 1 22 26
M  V30 26 1 24 27
M  V30 27 1 24 28
M  V30 28 1 6 7
M  V30 29 1 11 12
M  V30 30 1 15 16
M  V30 31 1 18 20
M  V30 32 1 23 24
M  V30 33 1 3 29
M  V30 34 1 4 30
M  V30 35 1 4 31
M  V30 36 1 6 32
M  V30 37 1 6 33
M  V30 38 1 8 34
M  V30 39 1 8 35
M  V30 40 1 9 36
M  V30 41 1 10 37
M  V30 42 1 10 38
M  V30 43 1 10 39
M  V30 44 1 11 40
M  V30 45 1 11 41
M  V30 46 1 12 42
M  V30 47 1 13 43
M  V30 48 1 13 44
M  V30 49 1 14 45
M  V30 50 1 15 46
M  V30 51 1 15 47
M  V30 52 1 17 48
M  V30 53 1 17 49
M  V30 54 1 19 50
M  V30 55 1 19 51
M  V30 56 1 19 52
M  V30 57 1 20 53
M  V30 58 1 26 54
M  V30 59 1 26 55
M  V30 60 1 26 56
M  V30 61 1 27 57
M  V30 62 1 27 58
M  V30 63 1 27 59
M  V30 64 1 28 60
M  V30 65 1 28 61
M  V30 66 1 28 62
M  V30 END BOND
M  V30 END CTAB
M  END
>  <NO.>
1133

>  <Name>
algestone-acetonide

>  <SMILES>
CC(=O)C12OC(C)(C)OC1CC1C3CCC4=CC(=O)CCC4(C)C3CCC12C

>  <logBB>


>  <Class>
1

>  <MW>
386.25

>  <nHBAcc>
4

>  <nHBDon>
0

>  <SLogP>
4.61

>  <TopoPSA>
52.6

>  <MMFF94 Energy>
107.08

$$$$
CC(=O)C1=C(O)[C@@]2(O)C(=O)c3c(c(C)c4ccc(C)c(O)c4c3O)C[C@H]2[C@@H](N)C1=O
Actelion Java MolfileCreator 2.0

  0  0  0  0  0  0              0 V3000
M  V30 BEGIN CTAB
M  V30 COUNTS 51 54 0 0 0
M  V30 BEGIN ATOM
M  V30 1 O -1.4539 -2.0198 -2.1007 0
M  V30 2 C -0.8559 -1.5873 -1.1104 0
M  V30 3 C -0.0309 -0.3534 -1.2179 0
M  V30 4 C -0.9517 -2.2949 0.2483 0 CFG=2
M  V30 5 C -0.141 0.4634 -2.3613 0
M  V30 6 C 0.8525 -0.016 -0.1841 0
M  V30 7 O -1.3602 -3.6478 -0.009 0
M  V30 8 C -2.0262 -1.7251 1.1536 0
M  V30 9 C 0.4276 -2.3247 0.8962 0 CFG=1
M  V30 10 O -0.9944 0.1011 -3.3821 0
M  V30 11 C 0.6123 1.6631 -2.5119 0
M  V30 12 C 1.5865 1.1953 -0.283 0
M  V30 13 C 1.0102 -0.907 1.0297 0
M  V30 14 O -3.1067 -1.1794 0.4714 0
M  V30 15 C -1.9554 -1.7762 2.5048 0
M  V30 16 C 0.3085 -3.0505 2.2445 0 CFG=2
M  V30 17 C 0.5515 2.5331 -3.6508 0
M  V30 18 C 1.4945 2.0155 -1.4558 0
M  V30 19 C 2.5047 1.6264 0.8477 0
M  V30 20 C -0.747 -2.3821 3.1451 0
M  V30 21 C -3.0969 -1.2395 3.311 0
M  V30 22 N 1.6075 -3.116 2.9513 0
M  V30 23 O -0.3066 2.2239 -4.6791 0
M  V30 24 C 1.3181 3.7049 -3.7614 0
M  V30 25 C 2.2757 3.1862 -1.6069 0
M  V30 26 O -0.5932 -2.3276 4.3663 0
M  V30 27 O -3.8928 -0.4515 2.789 0
M  V30 28 C -3.2883 -1.688 4.7355 0
M  V30 29 C 2.1941 4.0112 -2.7286 0
M  V30 30 C 1.2279 4.6237 -4.946 0
M  V30 31 H -1.9961 -3.5855 -0.7544 0
M  V30 32 H 1.1028 -2.9106 0.2539 0
M  V30 33 H -1.3931 -0.7737 -3.1918 0
M  V30 34 H 2.0815 -1.0208 1.2382 0
M  V30 35 H 0.5593 -0.3823 1.8806 0
M  V30 36 H -3.719 -0.7411 1.1087 0
M  V30 37 H -0.0194 -4.0853 2.0874 0
M  V30 38 H 3.5494 1.4736 0.5589 0
M  V30 39 H 2.3291 1.0868 1.7809 0
M  V30 40 H 2.3381 2.6795 1.0985 0
M  V30 41 H 1.8035 -2.2127 3.3882 0
M  V30 42 H 1.4879 -3.7379 3.7574 0
M  V30 43 H 0.0481 2.566 -5.5116 0
M  V30 44 H 2.9857 3.4882 -0.8402 0
M  V30 45 H -3.0954 -2.7594 4.8337 0
M  V30 46 H -2.6415 -1.1103 5.3997 0
M  V30 47 H -4.3303 -1.5185 5.0252 0
M  V30 48 H 2.8191 4.9004 -2.7759 0
M  V30 49 H 0.1836 4.8765 -5.157 0
M  V30 50 H 1.757 5.5658 -4.7659 0
M  V30 51 H 1.674 4.1497 -5.8258 0
M  V30 END ATOM
M  V30 BEGIN BOND
M  V30 1 2 1 2
M  V30 2 1 2 3
M  V30 3 1 2 4
M  V30 4 2 3 5
M  V30 5 1 3 6
M  V30 6 1 4 7
M  V30 7 1 4 8
M  V30 8 1 4 9
M  V30 9 1 5 10
M  V30 10 1 5 11
M  V30 11 2 6 12
M  V30 12 1 6 13
M  V30 13 1 8 14
M  V30 14 2 8 15
M  V30 15 1 9 16
M  V30 16 2 11 17
M  V30 17 1 11 18
M  V30 18 1 12 19
M  V30 19 1 15 20
M  V30 20 1 15 21
M  V30 21 1 16 22
M  V30 22 1 17 23
M  V30 23 1 17 24
M  V30 24 2 18 25
M  V30 25 2 20 26
M  V30 26 2 21 27
M  V30 27 1 21 28
M  V30 28 2 24 29
M  V30 29 1 24 30
M  V30 30 1 9 13
M  V30 31 1 12 18
M  V30 32 1 16 20
M  V30 33 1 25 29
M  V30 34 1 7 31
M  V30 35 1 9 32
M  V30 36 1 10 33
M  V30 37 1 13 34
M  V30 38 1 13 35
M  V30 39 1 14 36
M  V30 40 1 16 37
M  V30 41 1 19 38
M  V30 42 1 19 39
M  V30 43 1 19 40
M  V30 44 1 22 41
M  V30 45 1 22 42
M  V30 46 1 23 43
M  V30 47 1 25 44
M  V30 48 1 28 45
M  V30 49 1 28 46
M  V30 50 1 28 47
M  V30 51 1 29 48
M  V30 52 1 30 49
M  V30 53 1 30 50
M  V30 54 1 30 51
M  V30 END BOND
M  V30 BEGIN COLLECTION
M  V30 MDLV30/STEABS ATOMS=(3 4 9 16)
M  V30 END COLLECTION
M  V30 END CTAB
M  END
>  <NO.>
1134

>  <Name>
cetocycline

>  <SMILES>
CC(=O)C1=C(O)[C@@]2(O)C(=O)c3c(c(C)c4ccc(C)c(O)c4c3O)C[C@H]2[C@@H](N)C1=O

>  <logBB>


>  <Class>
-1

>  <MW>
411.13

>  <nHBAcc>
8

>  <nHBDon>
5

>  <SLogP>
1.27

>  <TopoPSA>
158.15

>  <MMFF94 Energy>
140.48

$$$$
CC(=O)C1CCC2C3CC(C)C4=CC(=O)C=CC4(C)C3C(O)CC12C
Actelion Java MolfileCreator 2.0

  0  0  0  0  0  0              0 V3000
M  V30 BEGIN CTAB
M  V30 COUNTS 55 58 0 0 0
M  V30 BEGIN ATOM
M  V30 1 O 1.2866 -6.2037 0.8844 0
M  V30 2 C 0.8998 -5.0433 0.8357 0
M  V30 3 C 1.8303 -3.913 1.0014 0
M  V30 4 C -0.5074 -4.7094 0.5836 0
M  V30 5 C 1.4237 -2.6273 1.0137 0
M  V30 6 C -0.9222 -3.4363 0.5992 0
M  V30 7 C -0.0575 -2.2035 0.8857 0
M  V30 8 C 2.4933 -1.5565 1.0504 0
M  V30 9 C -0.2092 -1.1055 -0.2574 0
M  V30 10 C -0.5671 -1.6724 2.2458 0
M  V30 11 C 2.2819 -0.5741 -0.0992 0
M  V30 12 C 2.6478 -0.868 2.4079 0
M  V30 13 C -1.608 -0.4321 -0.3477 0
M  V30 14 C 0.8643 0.0284 -0.144 0
M  V30 15 O -2.65 -1.3864 -0.5131 0
M  V30 16 C -1.6942 0.5117 -1.5466 0
M  V30 17 C 0.781 1.065 -1.3071 0
M  V30 18 C -0.6396 1.6212 -1.5784 0
M  V30 19 C 1.5747 2.3467 -0.99 0
M  V30 20 C -0.8004 2.6786 -0.4524 0
M  V30 21 C -0.6975 2.267 -2.9861 0
M  V30 22 C 0.6069 3.2624 -0.2405 0
M  V30 23 C -1.8398 3.7675 -0.7157 0
M  V30 24 O -1.6056 4.7485 -1.4207 0
M  V30 25 C -3.1936 3.5857 -0.0779 0
M  V30 26 H 2.8733 -4.2003 1.08 0
M  V30 27 H -1.1803 -5.5388 0.4052 0
M  V30 28 H -1.9862 -3.2839 0.4453 0
M  V30 29 H 3.4682 -2.0295 0.8596 0
M  V30 30 H -0.0392 -1.6314 -1.2103 0
M  V30 31 H -1.6627 -1.621 2.2782 0
M  V30 32 H -0.2094 -0.6645 2.4657 0
M  V30 33 H -0.2553 -2.3219 3.0733 0
M  V30 34 H 3.0443 0.2078 -0.0269 0
M  V30 35 H 2.4744 -1.0934 -1.0487 0
M  V30 36 H 2.6927 -1.6021 3.2196 0
M  V30 37 H 3.5815 -0.2943 2.4311 0
M  V30 38 H 1.8435 -0.1641 2.6281 0
M  V30 39 H -1.8217 0.1148 0.5759 0
M  V30 40 H 0.6923 0.5662 0.7959 0
M  V30 41 H -3.495 -0.9103 -0.5917 0
M  V30 42 H -1.6112 -0.0983 -2.4582 0
M  V30 43 H -2.7007 0.9447 -1.5991 0
M  V30 44 H 1.1845 0.5938 -2.2129 0
M  V30 45 H 2.4868 2.1865 -0.411 0
M  V30 46 H 1.8864 2.8305 -1.9236 0
M  V30 47 H -1.0844 2.1965 0.4908 0
M  V30 48 H -0.3971 1.5481 -3.7573 0
M  V30 49 H -1.7148 2.5946 -3.2294 0
M  V30 50 H -0.042 3.1382 -3.0794 0
M  V30 51 H 0.8445 3.2631 0.8302 0
M  V30 52 H 0.7142 4.2957 -0.5862 0
M  V30 53 H -3.676 2.6888 -0.4693 0
M  V30 54 H -3.0808 3.5112 1.0065 0
M  V30 55 H -3.8241 4.4505 -0.3034 0
M  V30 END ATOM
M  V30 BEGIN BOND
M  V30 1 2 1 2
M  V30 2 1 2 3
M  V30 3 1 2 4
M  V30 4 2 3 5
M  V30 5 2 4 6
M  V30 6 1 5 7
M  V30 7 1 5 8
M  V30 8 1 7 9
M  V30 9 1 7 10
M  V30 10 1 8 11
M  V30 11 1 8 12
M  V30 12 1 9 13
M  V30 13 1 9 14
M  V30 14 1 13 15
M  V30 15 1 13 16
M  V30 16 1 14 17
M  V30 17 1 16 18
M  V30 18 1 17 19
M  V30 19 1 18 20
M  V30 20 1 18 21
M  V30 21 1 19 22
M  V30 22 1 20 23
M  V30 23 2 23 24
M  V30 24 1 23 25
M  V30 25 1 6 7
M  V30 26 1 11 14
M  V30 27 1 17 18
M  V30 28 1 20 22
M  V30 29 1 3 26
M  V30 30 1 4 27
M  V30 31 1 6 28
M  V30 32 1 8 29
M  V30 33 1 9 30
M  V30 34 1 10 31
M  V30 35 1 10 32
M  V30 36 1 10 33
M  V30 37 1 11 34
M  V30 38 1 11 35
M  V30 39 1 12 36
M  V30 40 1 12 37
M  V30 41 1 12 38
M  V30 42 1 13 39
M  V30 43 1 14 40
M  V30 44 1 15 41
M  V30 45 1 16 42
M  V30 46 1 16 43
M  V30 47 1 17 44
M  V30 48 1 19 45
M  V30 49 1 19 46
M  V30 50 1 20 47
M  V30 51 1 21 48
M  V30 52 1 21 49
M  V30 53 1 21 50
M  V30 54 1 22 51
M  V30 55 1 22 52
M  V30 56 1 25 53
M  V30 57 1 25 54
M  V30 58 1 25 55
M  V30 END BOND
M  V30 END CTAB
M  END
>  <NO.>
1135

>  <Name>
endrysone (endrisone)

>  <SMILES>
CC(=O)C1CCC2C3CC(C)C4=CC(=O)C=CC4(C)C3C(O)CC12C

>  <logBB>


>  <Class>
1

>  <MW>
342.22

>  <nHBAcc>
3

>  <nHBDon>
1

>  <SLogP>
3.72

>  <TopoPSA>
54.37

>  <MMFF94 Energy>
94.195

$$$$
CC(=O)C1CCC2C3CC=C4CC(OC(=O)CCC(=O)O)CCC4(C)C3CCC12C
Actelion Java MolfileCreator 2.0

  0  0  0  0  0  0              0 V3000
M  V30 BEGIN CTAB
M  V30 COUNTS 66 69 0 0 0
M  V30 BEGIN ATOM
M  V30 1 O 4.8136 2.8058 -1.9233 0
M  V30 2 C 4.0532 1.8832 -2.1776 0
M  V30 3 O 3.4317 1.0986 -1.2557 0
M  V30 4 C 3.6588 1.4382 -3.5608 0
M  V30 5 C 3.6938 1.4047 0.1311 0
M  V30 6 C 4.3015 2.3163 -4.6265 0
M  V30 7 C 3.44 0.1328 0.9496 0
M  V30 8 C 2.7962 2.5511 0.6049 0
M  V30 9 C 3.9002 1.8703 -6.0013 0
M  V30 10 C 1.9701 -0.2384 1.0575 0
M  V30 11 C 1.319 2.1442 0.5919 0
M  V30 12 O 3.1789 0.9318 -6.2913 0
M  V30 13 O 4.4405 2.6444 -6.9615 0
M  V30 14 C 1.5777 -1.5072 0.8538 0
M  V30 15 C 0.9932 0.8758 1.4315 0
M  V30 16 C 0.1727 -1.9957 0.9957 0
M  V30 17 C -0.5261 0.4519 1.2538 0
M  V30 18 C 1.2091 1.2029 2.9356 0
M  V30 19 C -0.7671 -1.0095 1.714 0
M  V30 20 C -1.129 0.6588 -0.1494 0
M  V30 21 C -2.2444 -1.4577 1.5936 0
M  V30 22 C -2.6299 0.352 -0.1604 0
M  V30 23 C -2.9853 -1.0885 0.2847 0
M  V30 24 C -3.113 -0.8523 2.7171 0
M  V30 25 C -4.481 -1.1472 0.7074 0
M  V30 26 C -2.7014 -2.0422 -0.889 0
M  V30 27 C -4.512 -0.6301 2.1458 0
M  V30 28 C -5.182 -2.5035 0.5593 0
M  V30 29 O -5.9875 -2.6837 -0.359 0
M  V30 30 C -4.8414 -3.6398 1.491 0
M  V30 31 H 2.5668 1.489 -3.6424 0
M  V30 32 H 3.9725 0.3962 -3.6913 0
M  V30 33 H 4.7494 1.68 0.2489 0
M  V30 34 H 3.9887 3.3583 -4.4946 0
M  V30 35 H 5.3935 2.2646 -4.5505 0
M  V30 36 H 4.0069 -0.6931 0.5016 0
M  V30 37 H 3.8346 0.274 1.9632 0
M  V30 38 H 2.9165 3.4206 -0.0516 0
M  V30 39 H 3.0959 2.871 1.6086 0
M  V30 40 H 0.7119 2.989 0.9408 0
M  V30 41 H 1.0565 1.9807 -0.4595 0
M  V30 42 H 4.1104 2.2583 -7.7998 0
M  V30 43 H 2.3105 -2.2626 0.5765 0
M  V30 44 H 0.1881 -2.9351 1.5628 0
M  V30 45 H -0.1839 -2.2498 -0.0028 0
M  V30 46 H -1.1061 1.1114 1.915 0
M  V30 47 H 0.5483 2.0166 3.2569 0
M  V30 48 H 2.2337 1.5167 3.1582 0
M  V30 49 H 1.0038 0.338 3.5753 0
M  V30 50 H -0.5102 -1.0698 2.781 0
M  V30 51 H -0.6001 0.0603 -0.8979 0
M  V30 52 H -1.0321 1.7064 -0.4538 0
M  V30 53 H -2.2709 -2.5464 1.7285 0
M  V30 54 H -3.0266 0.5396 -1.1668 0
M  V30 55 H -3.1234 1.0863 0.4893 0
M  V30 56 H -3.1473 -1.5345 3.5744 0
M  V30 57 H -2.7168 0.0971 3.0918 0
M  V30 58 H -5.0711 -0.4606 0.0835 0
M  V30 59 H -2.7133 -3.0911 -0.5785 0
M  V30 60 H -1.7332 -1.8539 -1.3586 0
M  V30 61 H -3.4521 -1.9175 -1.6784 0
M  V30 62 H -5.2824 -1.1019 2.7638 0
M  V30 63 H -4.7313 0.4449 2.1494 0
M  V30 64 H -3.8779 -4.0738 1.2208 0
M  V30 65 H -4.8304 -3.3119 2.5312 0
M  V30 66 H -5.6076 -4.4161 1.4001 0
M  V30 END ATOM
M  V30 BEGIN BOND
M  V30 1 2 1 2
M  V30 2 1 2 3
M  V30 3 1 2 4
M  V30 4 1 3 5
M  V30 5 1 4 6
M  V30 6 1 5 7
M  V30 7 1 5 8
M  V30 8 1 6 9
M  V30 9 1 7 10
M  V30 10 1 8 11
M  V30 11 2 9 12
M  V30 12 1 9 13
M  V30 13 2 10 14
M  V30 14 1 10 15
M  V30 15 1 14 16
M  V30 16 1 15 17
M  V30 17 1 15 18
M  V30 18 1 16 19
M  V30 19 1 17 20
M  V30 20 1 19 21
M  V30 21 1 20 22
M  V30 22 1 21 23
M  V30 23 1 21 24
M  V30 24 1 23 25
M  V30 25 1 23 26
M  V30 26 1 24 27
M  V30 27 1 25 28
M  V30 28 2 28 29
M  V30 29 1 28 30
M  V30 30 1 11 15
M  V30 31 1 17 19
M  V30 32 1 22 23
M  V30 33 1 25 27
M  V30 34 1 4 31
M  V30 35 1 4 32
M  V30 36 1 5 33
M  V30 37 1 6 34
M  V30 38 1 6 35
M  V30 39 1 7 36
M  V30 40 1 7 37
M  V30 41 1 8 38
M  V30 42 1 8 39
M  V30 43 1 11 40
M  V30 44 1 11 41
M  V30 45 1 13 42
M  V30 46 1 14 43
M  V30 47 1 16 44
M  V30 48 1 16 45
M  V30 49 1 17 46
M  V30 50 1 18 47
M  V30 51 1 18 48
M  V30 52 1 18 49
M  V30 53 1 19 50
M  V30 54 1 20 51
M  V30 55 1 20 52
M  V30 56 1 21 53
M  V30 57 1 22 54
M  V30 58 1 22 55
M  V30 59 1 24 56
M  V30 60 1 24 57
M  V30 61 1 25 58
M  V30 62 1 26 59
M  V30 63 1 26 60
M  V30 64 1 26 61
M  V30 65 1 27 62
M  V30 66 1 27 63
M  V30 67 1 30 64
M  V30 68 1 30 65
M  V30 69 1 30 66
M  V30 END BOND
M  V30 END CTAB
M  END
>  <NO.>
1136

>  <Name>
pregnenolone-succinate

>  <SMILES>
CC(=O)C1CCC2C3CC=C4CC(OC(=O)CCC(=O)O)CCC4(C)C3CCC12C

>  <logBB>


>  <Class>
1

>  <MW>
416.26

>  <nHBAcc>
4

>  <nHBDon>
1

>  <SLogP>
4.93

>  <TopoPSA>
80.67

>  <MMFF94 Energy>
36.453

$$$$
CC(=O)N1CCN(C(=O)Cc2cc(F)cc(F)c2)[C@@H](CN2CC[C@@H](O)C2)C1
Actelion Java MolfileCreator 2.0

  0  0  0  0  0  0              0 V3000
M  V30 BEGIN CTAB
M  V30 COUNTS 52 54 0 0 0
M  V30 BEGIN ATOM
M  V30 1 F -3.4384 -0.639 -5.5218 0
M  V30 2 C -3.2479 0.3192 -4.6056 0
M  V30 3 C -4.3284 1.0749 -4.1759 0
M  V30 4 C -1.9662 0.5396 -4.1027 0
M  V30 5 C -4.1107 2.0693 -3.2345 0
M  V30 6 C -1.7474 1.532 -3.1346 0
M  V30 7 F -5.1402 2.8146 -2.8116 0
M  V30 8 C -2.8383 2.3095 -2.7172 0
M  V30 9 C -0.3631 1.8073 -2.5915 0
M  V30 10 C 0.4118 0.5534 -2.21 0
M  V30 11 O 1.2574 0.1066 -2.9912 0
M  V30 12 N 0.1385 -0.0661 -0.9986 0
M  V30 13 C 0.9693 -1.2295 -0.6037 0 CFG=2
M  V30 14 C -0.7755 0.4441 0.0269 0
M  V30 15 C 0.1939 -2.2924 0.2067 0
M  V30 16 C 2.3335 -0.7971 0.0176 0
M  V30 17 C -1.622 -0.6668 0.6524 0
M  V30 18 N -0.808 -1.7776 1.1434 0
M  V30 19 N 2.2866 0.0331 1.2341 0
M  V30 20 C -1.0805 -2.5123 2.2877 0
M  V30 21 C 3.4987 0.8599 1.364 0
M  V30 22 C 2.2711 -0.7524 2.4744 0
M  V30 23 O -0.4493 -3.5251 2.5913 0
M  V30 24 C -2.1877 -2.018 3.1829 0
M  V30 25 C 3.5741 1.2273 2.8515 0 CFG=1
M  V30 26 C 2.58 0.2959 3.5327 0
M  V30 27 O 4.8768 0.9931 3.3775 0
M  V30 28 H -5.3201 0.8964 -4.5737 0
M  V30 29 H -1.1476 -0.0702 -4.48 0
M  V30 30 H -2.7153 3.1082 -1.9903 0
M  V30 31 H 0.2075 2.3341 -3.3672 0
M  V30 32 H -0.3928 2.4889 -1.7342 0
M  V30 33 H 1.2556 -1.7439 -1.5323 0
M  V30 34 H -1.4456 1.2035 -0.3758 0
M  V30 35 H -0.1693 0.9355 0.7945 0
M  V30 36 H -0.3781 -2.9089 -0.5 0
M  V30 37 H 0.8908 -2.9732 0.7077 0
M  V30 38 H 2.8432 -0.2153 -0.7634 0
M  V30 39 H 2.9613 -1.6844 0.1744 0
M  V30 40 H -2.238 -0.2413 1.4479 0
M  V30 41 H -2.3025 -1.0861 -0.0987 0
M  V30 42 H 4.4027 0.3165 1.0588 0
M  V30 43 H 3.4154 1.7594 0.7447 0
M  V30 44 H 3.0455 -1.5301 2.4784 0
M  V30 45 H 1.3064 -1.2169 2.6722 0
M  V30 46 H -1.9483 -1.0202 3.5603 0
M  V30 47 H -3.1363 -2.0037 2.6397 0
M  V30 48 H -2.2931 -2.6926 4.0381 0
M  V30 49 H 3.3077 2.2739 3.0343 0
M  V30 50 H 2.9649 -0.1562 4.4521 0
M  V30 51 H 1.6634 0.8489 3.7742 0
M  V30 52 H 5.4886 1.5929 2.9173 0
M  V30 END ATOM
M  V30 BEGIN BOND
M  V30 1 1 1 2
M  V30 2 2 2 3
M  V30 3 1 2 4
M  V30 4 1 3 5
M  V30 5 2 4 6
M  V30 6 1 5 7
M  V30 7 2 5 8
M  V30 8 1 6 9
M  V30 9 1 9 10
M  V30 10 2 10 11
M  V30 11 1 10 12
M  V30 12 1 12 13
M  V30 13 1 12 14
M  V30 14 1 13 15
M  V30 15 1 13 16
M  V30 16 1 14 17
M  V30 17 1 15 18
M  V30 18 1 16 19
M  V30 19 1 18 20
M  V30 20 1 19 21
M  V30 21 1 19 22
M  V30 22 2 20 23
M  V30 23 1 20 24
M  V30 24 1 21 25
M  V30 25 1 22 26
M  V30 26 1 25 27
M  V30 27 1 6 8
M  V30 28 1 17 18
M  V30 29 1 25 26
M  V30 30 1 3 28
M  V30 31 1 4 29
M  V30 32 1 8 30
M  V30 33 1 9 31
M  V30 34 1 9 32
M  V30 35 1 13 33
M  V30 36 1 14 34
M  V30 37 1 14 35
M  V30 38 1 15 36
M  V30 39 1 15 37
M  V30 40 1 16 38
M  V30 41 1 16 39
M  V30 42 1 17 40
M  V30 43 1 17 41
M  V30 44 1 21 42
M  V30 45 1 21 43
M  V30 46 1 22 44
M  V30 47 1 22 45
M  V30 48 1 24 46
M  V30 49 1 24 47
M  V30 50 1 24 48
M  V30 51 1 25 49
M  V30 52 1 26 50
M  V30 53 1 26 51
M  V30 54 1 27 52
M  V30 END BOND
M  V30 BEGIN COLLECTION
M  V30 MDLV30/STEABS ATOMS=(2 13 25)
M  V30 END COLLECTION
M  V30 END CTAB
M  END
>  <NO.>
1137

>  <Name>
chembl70543

>  <SMILES>
CC(=O)N1CCN(C(=O)Cc2cc(F)cc(F)c2)[C@@H](CN2CC[C@@H](O)C2)C1

>  <logBB>


>  <Class>
-1

>  <MW>
381.19

>  <nHBAcc>
4

>  <nHBDon>
1

>  <SLogP>
0.63

>  <TopoPSA>
64.09

>  <MMFF94 Energy>
92.732

$$$$
CC(=O)N1CCN(C(=O)Cc2ccc(C(F)(F)F)cc2)[C@@H](CN2CC[C@@H](O)C2)C1
Actelion Java MolfileCreator 2.0

  0  0  0  0  0  0              0 V3000
M  V30 BEGIN CTAB
M  V30 COUNTS 55 57 0 0 0
M  V30 BEGIN ATOM
M  V30 1 F 3.1283 4.8962 -6.4251 0
M  V30 2 C 2.2589 3.8653 -6.6253 0
M  V30 3 F 2.9961 2.8545 -7.1617 0
M  V30 4 F 1.4186 4.2811 -7.6151 0
M  V30 5 C 1.5338 3.4507 -5.3696 0
M  V30 6 C 2.1488 3.5775 -4.1155 0
M  V30 7 C 0.2497 2.8913 -5.4389 0
M  V30 8 C 1.4865 3.1717 -2.9544 0
M  V30 9 C -0.4127 2.4854 -4.2779 0
M  V30 10 C 0.196 2.6308 -3.0246 0
M  V30 11 C -0.5162 2.1819 -1.7688 0
M  V30 12 C -0.2448 0.7352 -1.3665 0
M  V30 13 O 0.4586 -0.0077 -2.0509 0
M  V30 14 N -0.8373 0.2877 -0.1849 0
M  V30 15 C -0.5147 -1.0925 0.2951 0 CFG=2
M  V30 16 C -1.6041 1.1309 0.7465 0
M  V30 17 C -1.7845 -1.7662 0.8525 0
M  V30 18 C 0.688 -1.0407 1.2838 0
M  V30 19 C -2.829 0.4104 1.3304 0
M  V30 20 N -2.4842 -0.9219 1.828 0
M  V30 21 N 1.3221 -2.3277 1.6125 0
M  V30 22 C -2.8234 -1.439 3.0657 0
M  V30 23 C 0.6659 -3.0589 2.7127 0
M  V30 24 C 2.7084 -2.1343 2.0645 0
M  V30 25 O -2.5106 -2.5751 3.4222 0
M  V30 26 C -3.598 -0.5449 3.9995 0
M  V30 27 C 1.7798 -3.8249 3.4459 0 CFG=1
M  V30 28 C 3.0495 -3.4731 2.6915 0
M  V30 29 O 1.9043 -3.3733 4.7953 0
M  V30 30 H 3.1544 3.9886 -4.0381 0
M  V30 31 H -0.2397 2.7622 -6.4032 0
M  V30 32 H 1.9913 3.2698 -1.9955 0
M  V30 33 H -1.4033 2.0429 -4.361 0
M  V30 34 H -0.2166 2.8407 -0.9446 0
M  V30 35 H -1.5965 2.3071 -1.9115 0
M  V30 36 H -0.1916 -1.6881 -0.5679 0
M  V30 37 H -1.9345 2.0566 0.2713 0
M  V30 38 H -0.9172 1.4105 1.5539 0
M  V30 39 H -2.4942 -1.9161 0.0277 0
M  V30 40 H -1.5808 -2.7595 1.2509 0
M  V30 41 H 0.414 -0.4952 2.1965 0
M  V30 42 H 1.4477 -0.4143 0.7942 0
M  V30 43 H -3.2798 1.0328 2.1061 0
M  V30 44 H -3.5824 0.2672 0.5464 0
M  V30 45 H 0.1448 -2.3909 3.4071 0
M  V30 46 H -0.0473 -3.7769 2.2997 0
M  V30 47 H 2.7837 -1.334 2.8125 0
M  V30 48 H 3.378 -1.9027 1.2302 0
M  V30 49 H -3.0005 0.3326 4.2606 0
M  V30 50 H -4.541 -0.241 3.5374 0
M  V30 51 H -3.8283 -1.0909 4.9195 0
M  V30 52 H 1.61 -4.9062 3.4593 0
M  V30 53 H 3.9324 -3.4065 3.3346 0
M  V30 54 H 3.2383 -4.2137 1.9047 0
M  V30 55 H 1.0569 -3.5641 5.2354 0
M  V30 END ATOM
M  V30 BEGIN BOND
M  V30 1 1 1 2
M  V30 2 1 2 3
M  V30 3 1 2 4
M  V30 4 1 2 5
M  V30 5 2 5 6
M  V30 6 1 5 7
M  V30 7 1 6 8
M  V30 8 2 7 9
M  V30 9 2 8 10
M  V30 10 1 10 11
M  V30 11 1 11 12
M  V30 12 2 12 13
M  V30 13 1 12 14
M  V30 14 1 14 15
M  V30 15 1 14 16
M  V30 16 1 15 17
M  V30 17 1 15 18
M  V30 18 1 16 19
M  V30 19 1 17 20
M  V30 20 1 18 21
M  V30 21 1 20 22
M  V30 22 1 21 23
M  V30 23 1 21 24
M  V30 24 2 22 25
M  V30 25 1 22 26
M  V30 26 1 23 27
M  V30 27 1 24 28
M  V30 28 1 27 29
M  V30 29 1 9 10
M  V30 30 1 19 20
M  V30 31 1 27 28
M  V30 32 1 6 30
M  V30 33 1 7 31
M  V30 34 1 8 32
M  V30 35 1 9 33
M  V30 36 1 11 34
M  V30 37 1 11 35
M  V30 38 1 15 36
M  V30 39 1 16 37
M  V30 40 1 16 38
M  V30 41 1 17 39
M  V30 42 1 17 40
M  V30 43 1 18 41
M  V30 44 1 18 42
M  V30 45 1 19 43
M  V30 46 1 19 44
M  V30 47 1 23 45
M  V30 48 1 23 46
M  V30 49 1 24 47
M  V30 50 1 24 48
M  V30 51 1 26 49
M  V30 52 1 26 50
M  V30 53 1 26 51
M  V30 54 1 27 52
M  V30 55 1 28 53
M  V30 56 1 28 54
M  V30 57 1 29 55
M  V30 END BOND
M  V30 BEGIN COLLECTION
M  V30 MDLV30/STEABS ATOMS=(2 15 27)
M  V30 END COLLECTION
M  V30 END CTAB
M  END
>  <NO.>
1138

>  <Name>
gr94839_a

>  <SMILES>
CC(=O)N1CCN(C(=O)Cc2ccc(C(F)(F)F)cc2)[C@@H](CN2CC[C@@H](O)C2)C1

>  <logBB>


>  <Class>
-1

>  <MW>
413.19

>  <nHBAcc>
4

>  <nHBDon>
1

>  <SLogP>
1.37

>  <TopoPSA>
64.09

>  <MMFF94 Energy>
132.33

$$$$
CC(=O)N1CCN(C(=O)Cc2ccc(Cl)c(Cl)c2)[C@@H](CN2CCCC2)C1
Actelion Java MolfileCreator 2.0

  0  0  0  0  0  0              0 V3000
M  V30 BEGIN CTAB
M  V30 COUNTS 51 53 0 0 0
M  V30 BEGIN ATOM
M  V30 1 Cl -3.1549 0.3232 -5.668 0
M  V30 2 C -2.9704 1.5168 -4.4323 0
M  V30 3 C -3.9799 2.4307 -4.1167 0
M  V30 4 C -1.7565 1.5518 -3.7357 0
M  V30 5 Cl -5.5044 2.4489 -4.929 0
M  V30 6 C -3.7673 3.378 -3.1119 0
M  V30 7 C -1.5422 2.4867 -2.7096 0
M  V30 8 C -2.555 3.4105 -2.4176 0
M  V30 9 C -0.2239 2.5432 -1.9681 0
M  V30 10 C 0.291 1.1809 -1.5233 0
M  V30 11 O 1.1731 0.6232 -2.1826 0
M  V30 12 N -0.2536 0.5904 -0.3902 0
M  V30 13 C 0.3027 -0.7216 0.0481 0 CFG=2
M  V30 14 C -1.1862 1.2514 0.5421 0
M  V30 15 C -0.7846 -1.6337 0.6689 0
M  V30 16 C 1.5088 -0.5069 1.0075 0
M  V30 17 C -2.2431 0.291 1.0982 0
M  V30 18 N -1.6121 -0.9085 1.6385 0
M  V30 19 N 2.1984 -1.756 1.395 0
M  V30 20 C -1.7416 -1.2108 2.9808 0
M  V30 21 C 3.1342 -1.5251 2.5093 0
M  V30 22 C 3.0677 -2.2663 0.3191 0
M  V30 23 O -2.3643 -0.4893 3.761 0
M  V30 24 C -1.0818 -2.4709 3.4775 0
M  V30 25 C 4.4158 -1.003 1.8804 0
M  V30 26 C 4.3948 -1.5313 0.4537 0
M  V30 27 H -0.971 0.844 -4.0001 0
M  V30 28 H -4.5434 4.1 -2.8668 0
M  V30 29 H -2.4105 4.1662 -1.6472 0
M  V30 30 H 0.5241 2.985 -2.639 0
M  V30 31 H -0.2744 3.2118 -1.1019 0
M  V30 32 H 0.6685 -1.2388 -0.8459 0
M  V30 33 H -1.6898 2.0961 0.0723 0
M  V30 34 H -0.576 1.6527 1.3598 0
M  V30 35 H -1.4676 -1.9625 -0.1248 0
M  V30 36 H -0.3463 -2.5371 1.0964 0
M  V30 37 H 1.1234 -0.0238 1.9152 0
M  V30 38 H 2.2084 0.2119 0.5616 0
M  V30 39 H -2.8497 0.8024 1.8519 0
M  V30 40 H -2.9169 -0.0308 0.2951 0
M  V30 41 H 2.7409 -0.855 3.2816 0
M  V30 42 H 3.3316 -2.4866 3.0 0
M  V30 43 H 3.2283 -3.3385 0.4892 0
M  V30 44 H 2.6452 -2.1734 -0.6856 0
M  V30 45 H -1.4408 -3.3353 2.9127 0
M  V30 46 H 0.0039 -2.3848 3.3944 0
M  V30 47 H -1.3359 -2.6231 4.5309 0
M  V30 48 H 5.3015 -1.3418 2.4269 0
M  V30 49 H 4.4253 0.0931 1.8714 0
M  V30 50 H 5.2401 -2.1992 0.2591 0
M  V30 51 H 4.4549 -0.6973 -0.2546 0
M  V30 END ATOM
M  V30 BEGIN BOND
M  V30 1 1 1 2
M  V30 2 2 2 3
M  V30 3 1 2 4
M  V30 4 1 3 5
M  V30 5 1 3 6
M  V30 6 2 4 7
M  V30 7 2 6 8
M  V30 8 1 7 9
M  V30 9 1 9 10
M  V30 10 2 10 11
M  V30 11 1 10 12
M  V30 12 1 12 13
M  V30 13 1 12 14
M  V30 14 1 13 15
M  V30 15 1 13 16
M  V30 16 1 14 17
M  V30 17 1 15 18
M  V30 18 1 16 19
M  V30 19 1 18 20
M  V30 20 1 19 21
M  V30 21 1 19 22
M  V30 22 2 20 23
M  V30 23 1 20 24
M  V30 24 1 21 25
M  V30 25 1 22 26
M  V30 26 1 7 8
M  V30 27 1 17 18
M  V30 28 1 25 26
M  V30 29 1 4 27
M  V30 30 1 6 28
M  V30 31 1 8 29
M  V30 32 1 9 30
M  V30 33 1 9 31
M  V30 34 1 13 32
M  V30 35 1 14 33
M  V30 36 1 14 34
M  V30 37 1 15 35
M  V30 38 1 15 36
M  V30 39 1 16 37
M  V30 40 1 16 38
M  V30 41 1 17 39
M  V30 42 1 17 40
M  V30 43 1 21 41
M  V30 44 1 21 42
M  V30 45 1 22 43
M  V30 46 1 22 44
M  V30 47 1 24 45
M  V30 48 1 24 46
M  V30 49 1 24 47
M  V30 50 1 25 48
M  V30 51 1 25 49
M  V30 52 1 26 50
M  V30 53 1 26 51
M  V30 END BOND
M  V30 BEGIN COLLECTION
M  V30 MDLV30/STEABS ATOMS=(1 13)
M  V30 END COLLECTION
M  V30 END CTAB
M  END
>  <NO.>
1139

>  <Name>
chembl71375

>  <SMILES>
CC(=O)N1CCN(C(=O)Cc2ccc(Cl)c(Cl)c2)[C@@H](CN2CCCC2)C1

>  <logBB>


>  <Class>
1

>  <MW>
397.13

>  <nHBAcc>
3

>  <nHBDon>
0

>  <SLogP>
2.69

>  <TopoPSA>
43.86

>  <MMFF94 Energy>
89.343

$$$$
CC(=O)N1CCN(C(=O)Cc2ccc(Cl)c(Cl)c2)[C@@H](CN2CC[C@@H](O)C2)C1
Actelion Java MolfileCreator 2.0

  0  0  0  0  0  0              0 V3000
M  V30 BEGIN CTAB
M  V30 COUNTS 52 54 0 0 0
M  V30 BEGIN ATOM
M  V30 1 Cl 0.4849 5.5875 -0.1616 0
M  V30 2 C 0.7409 4.287 -1.2697 0
M  V30 3 C 1.9982 3.9967 -1.8078 0
M  V30 4 C -0.3677 3.5079 -1.6228 0
M  V30 5 Cl 3.4111 4.9069 -1.4108 0
M  V30 6 C 2.1398 2.9327 -2.7013 0
M  V30 7 C -0.2303 2.4282 -2.5067 0
M  V30 8 C 1.0331 2.1559 -3.0506 0
M  V30 9 C -1.4199 1.5716 -2.8762 0
M  V30 10 C -1.239 0.1107 -2.4839 0
M  V30 11 O -0.8099 -0.6881 -3.3231 0
M  V30 12 N -1.5365 -0.2916 -1.187 0
M  V30 13 C -1.1983 -1.6923 -0.8171 0 CFG=2
M  V30 14 C -1.9498 0.6161 -0.0984 0
M  V30 15 C -2.054 -2.2656 0.3444 0
M  V30 16 C 0.3296 -1.9396 -0.6072 0
M  V30 17 C -2.8823 -0.0411 0.9193 0
M  V30 18 N -2.3142 -1.2912 1.4004 0
M  V30 19 N 0.9526 -1.2129 0.511 0
M  V30 20 C -1.9742 -1.4242 2.7323 0
M  V30 21 C 2.0226 -2.0011 1.1538 0
M  V30 22 C 1.6611 0.0016 0.0739 0
M  V30 23 O -2.0797 -0.4975 3.5362 0
M  V30 24 C -1.4727 -2.7687 3.1902 0
M  V30 25 C 2.691 -0.9532 2.0407 0 CFG=1
M  V30 26 C 2.5834 0.3425 1.2429 0
M  V30 27 O 1.9714 -0.821 3.2674 0
M  V30 28 H -1.3418 3.7469 -1.2006 0
M  V30 29 H 3.1116 2.7012 -3.1314 0
M  V30 30 H 1.1645 1.3288 -3.7486 0
M  V30 31 H -2.3548 1.9701 -2.473 0
M  V30 32 H -1.5456 1.6121 -3.9664 0
M  V30 33 H -1.4543 -2.3112 -1.6892 0
M  V30 34 H -2.4467 1.5005 -0.4984 0
M  V30 35 H -1.0453 0.9579 0.4094 0
M  V30 36 H -3.0402 -2.5398 -0.0523 0
M  V30 37 H -1.6102 -3.1854 0.7319 0
M  V30 38 H 0.8683 -1.7487 -1.544 0
M  V30 39 H 0.4378 -3.0197 -0.4344 0
M  V30 40 H -3.0846 0.653 1.7409 0
M  V30 41 H -3.8437 -0.2801 0.4488 0
M  V30 42 H 2.7336 -2.3863 0.4119 0
M  V30 43 H 1.6119 -2.8318 1.7347 0
M  V30 44 H 2.2721 -0.184 -0.8192 0
M  V30 45 H 0.9921 0.8331 -0.1463 0
M  V30 46 H -2.1985 -3.5472 2.9406 0
M  V30 47 H -0.5085 -2.9902 2.7305 0
M  V30 48 H -1.3428 -2.7579 4.2766 0
M  V30 49 H 3.7261 -1.2104 2.282 0
M  V30 50 H 2.1718 1.1589 1.8466 0
M  V30 51 H 3.5626 0.6517 0.8618 0
M  V30 52 H 1.0462 -0.6256 3.0209 0
M  V30 END ATOM
M  V30 BEGIN BOND
M  V30 1 1 1 2
M  V30 2 2 2 3
M  V30 3 1 2 4
M  V30 4 1 3 5
M  V30 5 1 3 6
M  V30 6 2 4 7
M  V30 7 2 6 8
M  V30 8 1 7 9
M  V30 9 1 9 10
M  V30 10 2 10 11
M  V30 11 1 10 12
M  V30 12 1 12 13
M  V30 13 1 12 14
M  V30 14 1 13 15
M  V30 15 1 13 16
M  V30 16 1 14 17
M  V30 17 1 15 18
M  V30 18 1 16 19
M  V30 19 1 18 20
M  V30 20 1 19 21
M  V30 21 1 19 22
M  V30 22 2 20 23
M  V30 23 1 20 24
M  V30 24 1 21 25
M  V30 25 1 22 26
M  V30 26 1 25 27
M  V30 27 1 7 8
M  V30 28 1 17 18
M  V30 29 1 25 26
M  V30 30 1 4 28
M  V30 31 1 6 29
M  V30 32 1 8 30
M  V30 33 1 9 31
M  V30 34 1 9 32
M  V30 35 1 13 33
M  V30 36 1 14 34
M  V30 37 1 14 35
M  V30 38 1 15 36
M  V30 39 1 15 37
M  V30 40 1 16 38
M  V30 41 1 16 39
M  V30 42 1 17 40
M  V30 43 1 17 41
M  V30 44 1 21 42
M  V30 45 1 21 43
M  V30 46 1 22 44
M  V30 47 1 22 45
M  V30 48 1 24 46
M  V30 49 1 24 47
M  V30 50 1 24 48
M  V30 51 1 25 49
M  V30 52 1 26 50
M  V30 53 1 26 51
M  V30 54 1 27 52
M  V30 END BOND
M  V30 BEGIN COLLECTION
M  V30 MDLV30/STEABS ATOMS=(2 13 25)
M  V30 END COLLECTION
M  V30 END CTAB
M  END
>  <NO.>
1140

>  <Name>
gr94839

>  <SMILES>
CC(=O)N1CCN(C(=O)Cc2ccc(Cl)c(Cl)c2)[C@@H](CN2CC[C@@H](O)C2)C1

>  <logBB>


>  <Class>
-1

>  <MW>
413.13

>  <nHBAcc>
4

>  <nHBDon>
1

>  <SLogP>
1.66

>  <TopoPSA>
64.09

>  <MMFF94 Energy>
110.44

$$$$
CC(=O)N1CCN(C(=O)Cc2ccc([N+](=O)[O-])cc2)[C@@H](CN2CC[C@H](O)C2)C1
Actelion Java MolfileCreator 2.0

  0  0  0  0  0  0              0 V3000
M  V30 BEGIN CTAB
M  V30 COUNTS 54 56 0 0 0
M  V30 BEGIN ATOM
M  V30 1 O 0.3188 2.0736 -8.3142 0
M  V30 2 N 1.1528 2.1087 -7.3978 0 CHG=1
M  V30 3 O 2.2747 2.6276 -7.4903 0 CHG=-1
M  V30 4 C 0.7913 1.4841 -6.1197 0
M  V30 5 C 1.704 1.4975 -5.0581 0
M  V30 6 C -0.4637 0.8812 -5.9725 0
M  V30 7 C 1.356 0.9009 -3.844 0
M  V30 8 C -0.8032 0.287 -4.7547 0
M  V30 9 C 0.1047 0.2854 -3.6849 0
M  V30 10 C -0.274 -0.3414 -2.3603 0
M  V30 11 C -0.9112 0.6257 -1.3659 0
M  V30 12 O -1.1596 1.7922 -1.6759 0
M  V30 13 N -1.2271 0.1258 -0.1031 0
M  V30 14 C -0.8241 -1.2107 0.4124 0 CFG=2
M  V30 15 C -1.8586 1.0487 0.8622 0
M  V30 16 C -1.8604 -1.809 1.4043 0
M  V30 17 C 0.6335 -1.2784 0.9749 0
M  V30 18 C -2.9196 0.3752 1.7324 0
M  V30 19 N -2.3921 -0.8356 2.3535 0
M  V30 20 N 0.9676 -0.3111 2.0239 0
M  V30 21 C -2.4152 -0.9666 3.7292 0
M  V30 22 C 1.8939 -0.8512 3.0307 0
M  V30 23 C 1.6824 0.8665 1.5037 0
M  V30 24 O -2.85 -0.09 4.4763 0
M  V30 25 C -1.8958 -2.2567 4.3091 0
M  V30 26 C 2.5248 0.3833 3.691 0 CFG=2
M  V30 27 C 2.1519 1.5458 2.7793 0
M  V30 28 O 3.9436 0.2614 3.7418 0
M  V30 29 H 2.6782 1.9719 -5.1553 0
M  V30 30 H -1.1865 0.8732 -6.7855 0
M  V30 31 H 2.0638 0.9309 -3.0177 0
M  V30 32 H -1.7876 -0.1635 -4.642 0
M  V30 33 H -0.9771 -1.1626 -2.544 0
M  V30 34 H 0.6268 -0.779 -1.9204 0
M  V30 35 H -0.8217 -1.8985 -0.4411 0
M  V30 36 H -2.315 1.897 0.3416 0
M  V30 37 H -1.0716 1.4569 1.5008 0
M  V30 38 H -2.7274 -2.1588 0.8285 0
M  V30 39 H -1.4495 -2.6898 1.9026 0
M  V30 40 H 1.3478 -1.1992 0.1465 0
M  V30 41 H 0.7672 -2.2982 1.3622 0
M  V30 42 H -3.2892 1.0832 2.4805 0
M  V30 43 H -3.7747 0.0733 1.1155 0
M  V30 44 H 1.3541 -1.452 3.7688 0
M  V30 45 H 2.6701 -1.4819 2.5781 0
M  V30 46 H 2.5495 0.579 0.8944 0
M  V30 47 H 1.0529 1.5312 0.9081 0
M  V30 48 H -2.4797 -3.1002 3.9317 0
M  V30 49 H -0.84 -2.3864 4.0627 0
M  V30 50 H -1.9929 -2.2317 5.3987 0
M  V30 51 H 2.1493 0.5541 4.7057 0
M  V30 52 H 1.32 2.1096 3.2196 0
M  V30 53 H 2.9806 2.2353 2.5918 0
M  V30 54 H 4.1515 -0.4062 4.4175 0
M  V30 END ATOM
M  V30 BEGIN BOND
M  V30 1 2 1 2
M  V30 2 1 2 3
M  V30 3 1 2 4
M  V30 4 2 4 5
M  V30 5 1 4 6
M  V30 6 1 5 7
M  V30 7 2 6 8
M  V30 8 2 7 9
M  V30 9 1 9 10
M  V30 10 1 10 11
M  V30 11 2 11 12
M  V30 12 1 11 13
M  V30 13 1 13 14
M  V30 14 1 13 15
M  V30 15 1 14 16
M  V30 16 1 14 17
M  V30 17 1 15 18
M  V30 18 1 16 19
M  V30 19 1 17 20
M  V30 20 1 19 21
M  V30 21 1 20 22
M  V30 22 1 20 23
M  V30 23 2 21 24
M  V30 24 1 21 25
M  V30 25 1 22 26
M  V30 26 1 23 27
M  V30 27 1 26 28
M  V30 28 1 8 9
M  V30 29 1 18 19
M  V30 30 1 26 27
M  V30 31 1 5 29
M  V30 32 1 6 30
M  V30 33 1 7 31
M  V30 34 1 8 32
M  V30 35 1 10 33
M  V30 36 1 10 34
M  V30 37 1 14 35
M  V30 38 1 15 36
M  V30 39 1 15 37
M  V30 40 1 16 38
M  V30 41 1 16 39
M  V30 42 1 17 40
M  V30 43 1 17 41
M  V30 44 1 18 42
M  V30 45 1 18 43
M  V30 46 1 22 44
M  V30 47 1 22 45
M  V30 48 1 23 46
M  V30 49 1 23 47
M  V30 50 1 25 48
M  V30 51 1 25 49
M  V30 52 1 25 50
M  V30 53 1 26 51
M  V30 54 1 27 52
M  V30 55 1 27 53
M  V30 56 1 28 54
M  V30 END BOND
M  V30 BEGIN COLLECTION
M  V30 MDLV30/STEABS ATOMS=(2 14 26)
M  V30 END COLLECTION
M  V30 END CTAB
M  END
>  <NO.>
1142

>  <Name>
chembl72048

>  <SMILES>
CC(=O)N1CCN(C(=O)Cc2ccc([N+](=O)[O-])cc2)[C@@H](CN2CC[C@H](O)C2)C1

>  <logBB>


>  <Class>
-1

>  <MW>
390.19

>  <nHBAcc>
6

>  <nHBDon>
1

>  <SLogP>
0.26

>  <TopoPSA>
107.23

>  <MMFF94 Energy>
142.93

$$$$
CC(=O)N1CCN(C(=O)Cc2ccc([S@@+](C)[O-])cc2)[C@@H](CN2CC[C@H](O)C2)C1
Actelion Java MolfileCreator 2.0

  0  0  0  0  0  0              0 V3000
M  V30 BEGIN CTAB
M  V30 COUNTS 57 59 0 0 0
M  V30 BEGIN ATOM
M  V30 1 S 2.1709 3.7814 -6.1201 0
M  V30 2 O 1.1948 4.0858 -7.2191 0
M  V30 3 C 1.191 3.14 -4.7442 0
M  V30 4 C 2.99 2.2228 -6.5466 0
M  V30 5 C 1.788 2.9756 -3.4906 0
M  V30 6 C -0.1554 2.8075 -4.9134 0
M  V30 7 C 1.0467 2.472 -2.4189 0
M  V30 8 C -0.8967 2.3013 -3.8431 0
M  V30 9 C -0.303 2.1322 -2.5855 0
M  V30 10 C -1.0997 1.5759 -1.4275 0
M  V30 11 C -0.8497 0.0973 -1.1448 0
M  V30 12 O -0.1905 -0.6116 -1.9079 0
M  V30 13 N -1.4024 -0.426 0.0246 0
M  V30 14 C -1.0268 -1.8149 0.3954 0 CFG=2
M  V30 15 C -2.146 0.3727 1.0191 0
M  V30 16 C -2.0604 -2.5272 1.3079 0
M  V30 17 C 0.4328 -1.9522 0.9342 0
M  V30 18 C -3.2177 -0.4243 1.7625 0
M  V30 19 N -2.6542 -1.6481 2.3122 0
M  V30 20 N 0.7452 -1.1812 2.1478 0
M  V30 21 C -2.6585 -1.8541 3.678 0
M  V30 22 C 1.7311 -1.8637 3.0019 0
M  V30 23 C 1.4053 0.0985 1.8439 0
M  V30 24 O -3.1122 -1.0297 4.4726 0
M  V30 25 C -2.0969 -3.1573 4.1834 0
M  V30 26 C 2.313 -0.7553 3.8902 0 CFG=2
M  V30 27 C 1.8923 0.5438 3.2136 0
M  V30 28 O 3.7348 -0.8254 3.9345 0
M  V30 29 H 3.5943 2.3849 -7.4423 0
M  V30 30 H 3.6414 1.912 -5.7265 0
M  V30 31 H 2.2446 1.4499 -6.7497 0
M  V30 32 H 2.8324 3.2338 -3.336 0
M  V30 33 H -0.6342 2.935 -5.8822 0
M  V30 34 H 1.5315 2.3384 -1.4542 0
M  V30 35 H -1.9395 2.0367 -4.0037 0
M  V30 36 H -0.8518 2.1625 -0.5347 0
M  V30 37 H -2.1705 1.7111 -1.6216 0
M  V30 38 H -1.0254 -2.3944 -0.5388 0
M  V30 39 H -2.621 1.2321 0.5398 0
M  V30 40 H -1.4193 0.7635 1.7366 0
M  V30 41 H -2.8986 -2.8635 0.6834 0
M  V30 42 H -1.6295 -3.4279 1.7505 0
M  V30 43 H 1.1453 -1.7154 0.1335 0
M  V30 44 H 0.5822 -3.0216 1.1394 0
M  V30 45 H -3.6695 0.1981 2.541 0
M  V30 46 H -4.0174 -0.7161 1.0711 0
M  V30 47 H 1.252 -2.6375 3.6094 0
M  V30 48 H 2.5268 -2.3385 2.4127 0
M  V30 49 H 2.2621 -0.0333 1.1699 0
M  V30 50 H 0.7378 0.8413 1.4038 0
M  V30 51 H -2.6442 -3.9972 3.7473 0
M  V30 52 H -1.0349 -3.2316 3.9424 0
M  V30 53 H -2.2066 -3.2039 5.2711 0
M  V30 54 H 1.9271 -0.7967 4.9144 0
M  V30 55 H 1.0597 0.9958 3.767 0
M  V30 56 H 2.7002 1.2781 3.1391 0
M  V30 57 H 3.9691 -1.6366 4.4171 0
M  V30 END ATOM
M  V30 BEGIN BOND
M  V30 1 2 1 2
M  V30 2 1 1 3
M  V30 3 1 1 4
M  V30 4 2 3 5
M  V30 5 1 3 6
M  V30 6 1 5 7
M  V30 7 2 6 8
M  V30 8 2 7 9
M  V30 9 1 9 10
M  V30 10 1 10 11
M  V30 11 2 11 12
M  V30 12 1 11 13
M  V30 13 1 13 14
M  V30 14 1 13 15
M  V30 15 1 14 16
M  V30 16 1 14 17
M  V30 17 1 15 18
M  V30 18 1 16 19
M  V30 19 1 17 20
M  V30 20 1 19 21
M  V30 21 1 20 22
M  V30 22 1 20 23
M  V30 23 2 21 24
M  V30 24 1 21 25
M  V30 25 1 22 26
M  V30 26 1 23 27
M  V30 27 1 26 28
M  V30 28 1 8 9
M  V30 29 1 18 19
M  V30 30 1 26 27
M  V30 31 1 4 29
M  V30 32 1 4 30
M  V30 33 1 4 31
M  V30 34 1 5 32
M  V30 35 1 6 33
M  V30 36 1 7 34
M  V30 37 1 8 35
M  V30 38 1 10 36
M  V30 39 1 10 37
M  V30 40 1 14 38
M  V30 41 1 15 39
M  V30 42 1 15 40
M  V30 43 1 16 41
M  V30 44 1 16 42
M  V30 45 1 17 43
M  V30 46 1 17 44
M  V30 47 1 18 45
M  V30 48 1 18 46
M  V30 49 1 22 47
M  V30 50 1 22 48
M  V30 51 1 23 49
M  V30 52 1 23 50
M  V30 53 1 25 51
M  V30 54 1 25 52
M  V30 55 1 25 53
M  V30 56 1 26 54
M  V30 57 1 27 55
M  V30 58 1 27 56
M  V30 59 1 28 57
M  V30 END BOND
M  V30 BEGIN COLLECTION
M  V30 MDLV30/STEABS ATOMS=(2 14 26)
M  V30 END COLLECTION
M  V30 END CTAB
M  END
>  <NO.>
1143

>  <Name>
gr94839_i

>  <SMILES>
CC(=O)N1CCN(C(=O)Cc2ccc([S@@+](C)[O-])cc2)[C@@H](CN2CC[C@H](O)C2)C1

>  <logBB>


>  <Class>
-1

>  <MW>
407.19

>  <nHBAcc>
5

>  <nHBDon>
1

>  <SLogP>
0.09

>  <TopoPSA>
87.15

>  <MMFF94 Energy>
116.44

$$$$
CC(=O)N1CCN(C(=O)Cc2cccc([N+](=O)[O-])c2)[C@@H](CN2CC[C@H](O)C2)C1
Actelion Java MolfileCreator 2.0

  0  0  0  0  0  0              0 V3000
M  V30 BEGIN CTAB
M  V30 COUNTS 54 56 0 0 0
M  V30 BEGIN ATOM
M  V30 1 O 3.7508 3.7508 -5.1102 0
M  V30 2 N 3.1369 3.3974 -4.0929 0 CHG=1
M  V30 3 O 3.5903 3.4642 -2.9408 0 CHG=-1
M  V30 4 C 1.7753 2.8758 -4.2618 0
M  V30 5 C 1.0786 2.3834 -3.1488 0
M  V30 6 C 1.1848 2.8772 -5.5314 0
M  V30 7 C -0.2248 1.8874 -3.3036 0
M  V30 8 C -0.1082 2.3773 -5.6851 0
M  V30 9 C -0.8066 1.8832 -4.5803 0
M  V30 10 C -0.9753 1.3309 -2.1138 0
M  V30 11 C -0.6343 -0.1196 -1.7848 0
M  V30 12 O 0.052 -0.8104 -2.5401 0
M  V30 13 N -1.1386 -0.6334 -0.591 0
M  V30 14 C -0.6594 -1.9775 -0.1677 0 CFG=2
M  V30 15 C -1.8842 0.1595 0.4021 0
M  V30 16 C -1.6656 -2.727 0.7379 0
M  V30 17 C 0.7777 -1.9465 0.4367 0
M  V30 18 C -2.8803 -0.6627 1.229 0
M  V30 19 N -2.2586 -1.8703 1.7603 0
M  V30 20 N 0.9231 -1.0837 1.6195 0
M  V30 21 C -2.145 -2.2135 3.0941 0
M  V30 22 C 1.6327 -1.7495 2.7202 0
M  V30 23 C 1.7351 0.1105 1.36 0
M  V30 24 O -1.6151 -3.2586 3.4733 0
M  V30 25 C -2.7053 -1.2464 4.1047 0
M  V30 26 C 2.0677 -0.5977 3.6347 0 CFG=2
M  V30 27 C 1.9669 0.6516 2.7631 0
M  V30 28 O 3.4101 -0.7614 4.0787 0
M  V30 29 H 1.5451 2.3703 -2.1652 0
M  V30 30 H 1.7158 3.2537 -6.4029 0
M  V30 31 H -0.5714 2.363 -6.6693 0
M  V30 32 H -1.8081 1.4818 -4.7265 0
M  V30 33 H -0.7516 1.9623 -1.2455 0
M  V30 34 H -2.0541 1.3986 -2.2984 0
M  V30 35 H -0.5711 -2.5874 -1.0775 0
M  V30 36 H -2.4301 0.9683 -0.0907 0
M  V30 37 H -1.1495 0.6282 1.0639 0
M  V30 38 H -2.502 -3.0791 0.1201 0
M  V30 39 H -1.2028 -3.6182 1.1742 0
M  V30 40 H 1.4869 -1.6483 -0.3464 0
M  V30 41 H 1.0447 -2.9832 0.6841 0
M  V30 42 H -3.307 -0.0383 2.0165 0
M  V30 43 H -3.7097 -0.9886 0.5894 0
M  V30 44 H 0.9786 -2.446 3.2526 0
M  V30 45 H 2.51 -2.3083 2.368 0
M  V30 46 H 2.6962 -0.1408 0.8929 0
M  V30 47 H 1.2207 0.841 0.7288 0
M  V30 48 H -2.2072 -0.2772 4.0149 0
M  V30 49 H -3.7837 -1.1363 3.9634 0
M  V30 50 H -2.5277 -1.6303 5.1139 0
M  V30 51 H 1.4186 -0.5023 4.5122 0
M  V30 52 H 1.0969 1.2445 3.0724 0
M  V30 53 H 2.8549 1.2896 2.8111 0
M  V30 54 H 3.4396 -1.5767 4.6088 0
M  V30 END ATOM
M  V30 BEGIN BOND
M  V30 1 2 1 2
M  V30 2 1 2 3
M  V30 3 1 2 4
M  V30 4 2 4 5
M  V30 5 1 4 6
M  V30 6 1 5 7
M  V30 7 2 6 8
M  V30 8 2 7 9
M  V30 9 1 7 10
M  V30 10 1 10 11
M  V30 11 2 11 12
M  V30 12 1 11 13
M  V30 13 1 13 14
M  V30 14 1 13 15
M  V30 15 1 14 16
M  V30 16 1 14 17
M  V30 17 1 15 18
M  V30 18 1 16 19
M  V30 19 1 17 20
M  V30 20 1 19 21
M  V30 21 1 20 22
M  V30 22 1 20 23
M  V30 23 2 21 24
M  V30 24 1 21 25
M  V30 25 1 22 26
M  V30 26 1 23 27
M  V30 27 1 26 28
M  V30 28 1 8 9
M  V30 29 1 18 19
M  V30 30 1 26 27
M  V30 31 1 5 29
M  V30 32 1 6 30
M  V30 33 1 8 31
M  V30 34 1 9 32
M  V30 35 1 10 33
M  V30 36 1 10 34
M  V30 37 1 14 35
M  V30 38 1 15 36
M  V30 39 1 15 37
M  V30 40 1 16 38
M  V30 41 1 16 39
M  V30 42 1 17 40
M  V30 43 1 17 41
M  V30 44 1 18 42
M  V30 45 1 18 43
M  V30 46 1 22 44
M  V30 47 1 22 45
M  V30 48 1 23 46
M  V30 49 1 23 47
M  V30 50 1 25 48
M  V30 51 1 25 49
M  V30 52 1 25 50
M  V30 53 1 26 51
M  V30 54 1 27 52
M  V30 55 1 27 53
M  V30 56 1 28 54
M  V30 END BOND
M  V30 BEGIN COLLECTION
M  V30 MDLV30/STEABS ATOMS=(2 14 26)
M  V30 END COLLECTION
M  V30 END CTAB
M  END
>  <NO.>
1144

>  <Name>
chembl71237

>  <SMILES>
CC(=O)N1CCN(C(=O)Cc2cccc([N+](=O)[O-])c2)[C@@H](CN2CC[C@H](O)C2)C1

>  <logBB>


>  <Class>
-1

>  <MW>
390.19

>  <nHBAcc>
6

>  <nHBDon>
1

>  <SLogP>
0.26

>  <TopoPSA>
107.23

>  <MMFF94 Energy>
138.53

$$$$
CC(=O)N1CCN(C(=O)Cc2ccccc2)[C@@H](CN2CC[C@@H](O)C2)C1
Actelion Java MolfileCreator 2.0

  0  0  0  0  0  0              0 V3000
M  V30 BEGIN CTAB
M  V30 COUNTS 52 54 0 0 0
M  V30 BEGIN ATOM
M  V30 1 O -1.5076 -0.9519 -1.7458 0
M  V30 2 C -1.5344 0.0255 -0.9935 0
M  V30 3 N -1.4692 -0.1221 0.3856 0
M  V30 4 C -1.6448 1.4423 -1.5476 0
M  V30 5 C -0.8788 -1.3697 0.9371 0 CFG=2
M  V30 6 C -1.8361 0.9099 1.3643 0
M  V30 7 C -0.7965 1.6588 -2.7804 0
M  V30 8 C -1.7375 -1.9109 2.0992 0
M  V30 9 C 0.5944 -1.1552 1.4079 0
M  V30 10 C -2.6495 0.3344 2.5388 0
M  V30 11 C 0.5835 1.8765 -2.6527 0
M  V30 12 C -1.3644 1.6223 -4.0599 0
M  V30 13 N -2.0206 -0.8675 3.0919 0
M  V30 14 N 1.4907 -0.5713 0.394 0
M  V30 15 C 1.377 2.069 -3.7839 0
M  V30 16 C -0.5683 1.8151 -5.1901 0
M  V30 17 C -1.6571 -1.062 4.4113 0
M  V30 18 C 1.7547 -1.4781 -0.7349 0
M  V30 19 C 2.8169 -0.2739 0.9442 0
M  V30 20 C 0.8004 2.0406 -5.0521 0
M  V30 21 O -1.0608 -2.0695 4.7911 0
M  V30 22 C -2.008 0.0245 5.3942 0
M  V30 23 C 3.1004 -1.015 -1.3133 0 CFG=1
M  V30 24 C 3.6332 -0.0023 -0.3078 0
M  V30 25 O 4.0188 -2.1015 -1.4114 0
M  V30 26 H -1.3252 2.1861 -0.8114 0
M  V30 27 H -2.7015 1.6389 -1.7631 0
M  V30 28 H -0.8643 -2.1394 0.1568 0
M  V30 29 H -2.4299 1.6974 0.893 0
M  V30 30 H -0.9051 1.3576 1.7291 0
M  V30 31 H -2.7095 -2.242 1.7126 0
M  V30 32 H -1.2591 -2.7828 2.5568 0
M  V30 33 H 0.9965 -2.1101 1.7723 0
M  V30 34 H 0.586 -0.4758 2.2698 0
M  V30 35 H -2.7913 1.1084 3.2956 0
M  V30 36 H -3.6434 0.0333 2.1862 0
M  V30 37 H 1.0477 1.888 -1.6684 0
M  V30 38 H -2.4277 1.432 -4.1853 0
M  V30 39 H 2.4452 2.236 -3.6756 0
M  V30 40 H -1.016 1.7819 -6.1798 0
M  V30 41 H 0.9745 -1.3971 -1.4945 0
M  V30 42 H 1.8155 -2.5265 -0.4168 0
M  V30 43 H 3.2334 -1.1285 1.4925 0
M  V30 44 H 2.7992 0.5972 1.6066 0
M  V30 45 H 1.4183 2.1868 -5.9338 0
M  V30 46 H -1.4585 0.9385 5.1539 0
M  V30 47 H -3.0848 0.2128 5.3827 0
M  V30 48 H -1.7276 -0.2923 6.4032 0
M  V30 49 H 2.9953 -0.5596 -2.3034 0
M  V30 50 H 3.4293 1.0152 -0.6634 0
M  V30 51 H 4.7072 -0.0976 -0.121 0
M  V30 52 H 3.649 -2.7266 -2.0589 0
M  V30 END ATOM
M  V30 BEGIN BOND
M  V30 1 2 1 2
M  V30 2 1 2 3
M  V30 3 1 2 4
M  V30 4 1 3 5
M  V30 5 1 3 6
M  V30 6 1 4 7
M  V30 7 1 5 8
M  V30 8 1 5 9
M  V30 9 1 6 10
M  V30 10 2 7 11
M  V30 11 1 7 12
M  V30 12 1 8 13
M  V30 13 1 9 14
M  V30 14 1 11 15
M  V30 15 2 12 16
M  V30 16 1 13 17
M  V30 17 1 14 18
M  V30 18 1 14 19
M  V30 19 2 15 20
M  V30 20 2 17 21
M  V30 21 1 17 22
M  V30 22 1 18 23
M  V30 23 1 19 24
M  V30 24 1 23 25
M  V30 25 1 10 13
M  V30 26 1 16 20
M  V30 27 1 23 24
M  V30 28 1 4 26
M  V30 29 1 4 27
M  V30 30 1 5 28
M  V30 31 1 6 29
M  V30 32 1 6 30
M  V30 33 1 8 31
M  V30 34 1 8 32
M  V30 35 1 9 33
M  V30 36 1 9 34
M  V30 37 1 10 35
M  V30 38 1 10 36
M  V30 39 1 11 37
M  V30 40 1 12 38
M  V30 41 1 15 39
M  V30 42 1 16 40
M  V30 43 1 18 41
M  V30 44 1 18 42
M  V30 45 1 19 43
M  V30 46 1 19 44
M  V30 47 1 20 45
M  V30 48 1 22 46
M  V30 49 1 22 47
M  V30 50 1 22 48
M  V30 51 1 23 49
M  V30 52 1 24 50
M  V30 53 1 24 51
M  V30 54 1 25 52
M  V30 END BOND
M  V30 BEGIN COLLECTION
M  V30 MDLV30/STEABS ATOMS=(2 5 23)
M  V30 END COLLECTION
M  V30 END CTAB
M  END
>  <NO.>
1145

>  <Name>
chembl71005

>  <SMILES>
CC(=O)N1CCN(C(=O)Cc2ccccc2)[C@@H](CN2CC[C@@H](O)C2)C1

>  <logBB>


>  <Class>
-1

>  <MW>
345.21

>  <nHBAcc>
4

>  <nHBDon>
1

>  <SLogP>
0.35

>  <TopoPSA>
64.09

>  <MMFF94 Energy>
101.7

$$$$
CC(=O)NCC1(c2ccccc2)CCN(CCCC(=O)c2ccc(F)cc2)CC1
Actelion Java MolfileCreator 2.0

  0  0  0  0  0  0              0 V3000
M  V30 BEGIN CTAB
M  V30 COUNTS 58 60 0 0 0
M  V30 BEGIN ATOM
M  V30 1 F 2.0683 10.2945 -0.1589 0
M  V30 2 C 1.5926 9.0543 -0.3276 0
M  V30 3 C 0.5042 8.8451 -1.1646 0
M  V30 4 C 2.1966 7.9932 0.3376 0
M  V30 5 C 0.0104 7.5503 -1.3389 0
M  V30 6 C 1.7053 6.6952 0.166 0
M  V30 7 C 0.6059 6.4655 -0.674 0
M  V30 8 C 0.0387 5.0986 -0.8963 0
M  V30 9 O -0.8792 4.9581 -1.7017 0
M  V30 10 C 0.6289 3.931 -0.1227 0
M  V30 11 C -0.1293 2.6255 -0.3775 0
M  V30 12 C 0.5193 1.4593 0.3792 0
M  V30 13 N -0.267 0.2136 0.3275 0
M  V30 14 C -0.3496 -0.338 -1.0281 0
M  V30 15 C 0.3083 -0.771 1.2559 0
M  V30 16 C -1.1829 -1.6241 -1.0696 0
M  V30 17 C -0.5239 -2.0541 1.2908 0
M  V30 18 C -0.6842 -2.7315 -0.0983 0
M  V30 19 C -1.7041 -3.9029 -0.0878 0
M  V30 20 C 0.6873 -3.2881 -0.5999 0
M  V30 21 C -2.1261 -4.4915 -1.2973 0
M  V30 22 C -2.2094 -4.452 1.104 0
M  V30 23 N 1.1888 -4.3949 0.201 0
M  V30 24 C -3.0206 -5.5655 -1.3137 0
M  V30 25 C -3.1047 -5.5268 1.0875 0
M  V30 26 C 2.2299 -4.2684 1.0882 0
M  V30 27 C -3.5113 -6.0825 -0.1203 0
M  V30 28 O 2.8445 -3.2256 1.2821 0
M  V30 29 C 2.5684 -5.5493 1.8004 0
M  V30 30 H 0.0464 9.6862 -1.676 0
M  V30 31 H 3.0472 8.1838 0.9855 0
M  V30 32 H -0.843 7.3905 -1.9963 0
M  V30 33 H 2.1997 5.8864 0.6957 0
M  V30 34 H 1.6741 3.8088 -0.4284 0
M  V30 35 H 0.5877 4.1635 0.9473 0
M  V30 36 H -1.174 2.7423 -0.0624 0
M  V30 37 H -0.1386 2.4247 -1.4549 0
M  V30 38 H 1.536 1.2916 0.0 0
M  V30 39 H 0.619 1.7654 1.429 0
M  V30 40 H -0.8433 0.3749 -1.6975 0
M  V30 41 H 0.6499 -0.5201 -1.4414 0
M  V30 42 H 0.3124 -0.3551 2.2717 0
M  V30 43 H 1.3517 -0.9885 1.0017 0
M  V30 44 H -2.2256 -1.3712 -0.8282 0
M  V30 45 H -1.1894 -1.9822 -2.1062 0
M  V30 46 H -1.5156 -1.7956 1.6899 0
M  V30 47 H -0.0719 -2.7409 2.0163 0
M  V30 48 H 0.5922 -3.6795 -1.6199 0
M  V30 49 H 1.4517 -2.5069 -0.6425 0
M  V30 50 H -1.7611 -4.1243 -2.2537 0
M  V30 51 H -1.9208 -4.0609 2.0759 0
M  V30 52 H 0.7134 -5.2858 0.1148 0
M  V30 53 H -3.3344 -5.9955 -2.2615 0
M  V30 54 H -3.4858 -5.9267 2.0241 0
M  V30 55 H -4.21 -6.9146 -0.1312 0
M  V30 56 H 1.6565 -6.0666 2.1125 0
M  V30 57 H 3.165 -5.3277 2.6897 0
M  V30 58 H 3.1421 -6.1954 1.1307 0
M  V30 END ATOM
M  V30 BEGIN BOND
M  V30 1 1 1 2
M  V30 2 2 2 3
M  V30 3 1 2 4
M  V30 4 1 3 5
M  V30 5 2 4 6
M  V30 6 2 5 7
M  V30 7 1 7 8
M  V30 8 2 8 9
M  V30 9 1 8 10
M  V30 10 1 10 11
M  V30 11 1 11 12
M  V30 12 1 12 13
M  V30 13 1 13 14
M  V30 14 1 13 15
M  V30 15 1 14 16
M  V30 16 1 15 17
M  V30 17 1 16 18
M  V30 18 1 18 19
M  V30 19 1 18 20
M  V30 20 2 19 21
M  V30 21 1 19 22
M  V30 22 1 20 23
M  V30 23 1 21 24
M  V30 24 2 22 25
M  V30 25 1 23 26
M  V30 26 2 24 27
M  V30 27 2 26 28
M  V30 28 1 26 29
M  V30 29 1 6 7
M  V30 30 1 17 18
M  V30 31 1 25 27
M  V30 32 1 3 30
M  V30 33 1 4 31
M  V30 34 1 5 32
M  V30 35 1 6 33
M  V30 36 1 10 34
M  V30 37 1 10 35
M  V30 38 1 11 36
M  V30 39 1 11 37
M  V30 40 1 12 38
M  V30 41 1 12 39
M  V30 42 1 14 40
M  V30 43 1 14 41
M  V30 44 1 15 42
M  V30 45 1 15 43
M  V30 46 1 16 44
M  V30 47 1 16 45
M  V30 48 1 17 46
M  V30 49 1 17 47
M  V30 50 1 20 48
M  V30 51 1 20 49
M  V30 52 1 21 50
M  V30 53 1 22 51
M  V30 54 1 23 52
M  V30 55 1 24 53
M  V30 56 1 25 54
M  V30 57 1 27 55
M  V30 58 1 29 56
M  V30 59 1 29 57
M  V30 60 1 29 58
M  V30 END BOND
M  V30 END CTAB
M  END
>  <NO.>
1147

>  <Name>
aceperone

>  <SMILES>
CC(=O)NCC1(c2ccccc2)CCN(CCCC(=O)c2ccc(F)cc2)CC1

>  <logBB>


>  <Class>
1

>  <MW>
396.22

>  <nHBAcc>
3

>  <nHBDon>
1

>  <SLogP>
3.96

>  <TopoPSA>
49.41

>  <MMFF94 Energy>
45.753

$$$$
CC(=O)NCCCN1CCN(c2cc(Cl)ccc2Cl)CC1
Actelion Java MolfileCreator 2.0

  0  0  0  0  0  0              0 V3000
M  V30 BEGIN CTAB
M  V30 COUNTS 42 43 0 0 0
M  V30 BEGIN ATOM
M  V30 1 Cl -4.5858 1.1248 -0.2409 0
M  V30 2 C -4.0523 2.6299 0.4357 0
M  V30 3 C -2.6794 2.9599 0.5227 0
M  V30 4 C -5.0452 3.5283 0.848 0
M  V30 5 N -1.6796 2.0697 0.1338 0
M  V30 6 C -2.3536 4.2289 1.0322 0
M  V30 7 C -4.6917 4.777 1.3543 0
M  V30 8 C -0.4974 2.5605 -0.5862 0
M  V30 9 C -1.4118 0.9404 1.0398 0
M  V30 10 C -3.3473 5.1218 1.4422 0
M  V30 11 C 0.2198 1.3903 -1.2979 0
M  V30 12 C -0.6598 -0.1883 0.2948 0
M  V30 13 Cl -2.9032 6.6626 2.0684 0
M  V30 14 N 0.5787 0.2797 -0.378 0
M  V30 15 C 1.2364 -0.7994 -1.1344 0
M  V30 16 C 1.8793 -1.851 -0.2233 0
M  V30 17 C 2.6712 -2.8656 -1.0422 0
M  V30 18 N 3.2854 -3.8677 -0.1949 0
M  V30 19 C 3.6476 -5.1011 -0.6869 0
M  V30 20 O 3.4476 -5.4632 -1.8408 0
M  V30 21 C 4.2927 -5.9926 0.3389 0
M  V30 22 H -6.0956 3.2601 0.7665 0
M  V30 23 H -1.3128 4.523 1.1335 0
M  V30 24 H -5.4643 5.4721 1.6718 0
M  V30 25 H -0.7895 3.2993 -1.3425 0
M  V30 26 H 0.1984 3.043 0.1113 0
M  V30 27 H -0.8043 1.2916 1.8843 0
M  V30 28 H -2.3344 0.5239 1.4593 0
M  V30 29 H 1.13 1.7875 -1.7633 0
M  V30 30 H -0.4255 1.0161 -2.1045 0
M  V30 31 H -1.3394 -0.6399 -0.4403 0
M  V30 32 H -0.4172 -0.9578 1.0351 0
M  V30 33 H 2.0369 -0.3623 -1.7458 0
M  V30 34 H 0.5333 -1.2788 -1.828 0
M  V30 35 H 2.5454 -1.363 0.4996 0
M  V30 36 H 1.1165 -2.3836 0.3562 0
M  V30 37 H 2.0211 -3.3617 -1.7717 0
M  V30 38 H 3.4792 -2.3728 -1.5944 0
M  V30 39 H 3.5479 -3.6172 0.7498 0
M  V30 40 H 4.9746 -5.4199 0.9739 0
M  V30 41 H 4.8636 -6.777 -0.1653 0
M  V30 42 H 3.5169 -6.4496 0.959 0
M  V30 END ATOM
M  V30 BEGIN BOND
M  V30 1 1 1 2
M  V30 2 2 2 3
M  V30 3 1 2 4
M  V30 4 1 3 5
M  V30 5 1 3 6
M  V30 6 2 4 7
M  V30 7 1 5 8
M  V30 8 1 5 9
M  V30 9 2 6 10
M  V30 10 1 8 11
M  V30 11 1 9 12
M  V30 12 1 10 13
M  V30 13 1 11 14
M  V30 14 1 14 15
M  V30 15 1 15 16
M  V30 16 1 16 17
M  V30 17 1 17 18
M  V30 18 1 18 19
M  V30 19 2 19 20
M  V30 20 1 19 21
M  V30 21 1 7 10
M  V30 22 1 12 14
M  V30 23 1 4 22
M  V30 24 1 6 23
M  V30 25 1 7 24
M  V30 26 1 8 25
M  V30 27 1 8 26
M  V30 28 1 9 27
M  V30 29 1 9 28
M  V30 30 1 11 29
M  V30 31 1 11 30
M  V30 32 1 12 31
M  V30 33 1 12 32
M  V30 34 1 15 33
M  V30 35 1 15 34
M  V30 36 1 16 35
M  V30 37 1 16 36
M  V30 38 1 17 37
M  V30 39 1 17 38
M  V30 40 1 18 39
M  V30 41 1 21 40
M  V30 42 1 21 41
M  V30 43 1 21 42
M  V30 END BOND
M  V30 END CTAB
M  END
>  <NO.>
1148

>  <Name>
acaprazine

>  <SMILES>
CC(=O)NCCCN1CCN(c2cc(Cl)ccc2Cl)CC1

>  <logBB>


>  <Class>
1

>  <MW>
329.11

>  <nHBAcc>
3

>  <nHBDon>
1

>  <SLogP>
2.64

>  <TopoPSA>
35.58

>  <MMFF94 Energy>
92.094

$$$$
CC(=O)NCCn1c(C)cc(C=O)c1C
Actelion Java MolfileCreator 2.0

  0  0  0  0  0  0              0 V3000
M  V30 BEGIN CTAB
M  V30 COUNTS 31 31 0 0 0
M  V30 BEGIN ATOM
M  V30 1 O -2.1023 -1.0118 1.4011 0
M  V30 2 C -1.6899 0.0595 1.8313 0
M  V30 3 N -1.5857 1.2051 1.0728 0
M  V30 4 C -1.2893 0.2512 3.2683 0
M  V30 5 C -1.8578 1.2022 -0.3532 0
M  V30 6 C -0.5996 1.3512 -1.2139 0
M  V30 7 N 0.429 0.3481 -0.9661 0
M  V30 8 C 0.3693 -0.9808 -1.3532 0
M  V30 9 C 1.6301 0.5891 -0.3259 0
M  V30 10 C 1.5284 -1.6026 -0.9023 0
M  V30 11 C -0.7924 -1.5716 -2.0805 0
M  V30 12 C 2.3177 -0.6049 -0.2771 0
M  V30 13 C 2.0467 1.9153 0.2046 0
M  V30 14 C 1.8666 -3.0096 -1.0412 0
M  V30 15 O 2.9332 -3.4924 -0.6704 0
M  V30 16 H -1.277 2.061 1.515 0
M  V30 17 H -0.436 0.9311 3.3447 0
M  V30 18 H -1.0041 -0.7124 3.6991 0
M  V30 19 H -2.1336 0.6645 3.8263 0
M  V30 20 H -2.5248 2.0496 -0.5457 0
M  V30 21 H -2.4042 0.294 -0.6251 0
M  V30 22 H -0.8532 1.3053 -2.2785 0
M  V30 23 H -0.1608 2.3403 -1.0482 0
M  V30 24 H -1.2739 -0.8509 -2.7466 0
M  V30 25 H -0.4757 -2.4126 -2.7052 0
M  V30 26 H -1.5364 -1.9399 -1.3676 0
M  V30 27 H 3.2913 -0.7578 0.1736 0
M  V30 28 H 3.0073 1.8424 0.7254 0
M  V30 29 H 2.1634 2.638 -0.6089 0
M  V30 30 H 1.3115 2.2993 0.9185 0
M  V30 31 H 1.0998 -3.6479 -1.5087 0
M  V30 END ATOM
M  V30 BEGIN BOND
M  V30 1 2 1 2
M  V30 2 1 2 3
M  V30 3 1 2 4
M  V30 4 1 3 5
M  V30 5 1 5 6
M  V30 6 1 6 7
M  V30 7 1 7 8
M  V30 8 1 7 9
M  V30 9 2 8 10
M  V30 10 1 8 11
M  V30 11 2 9 12
M  V30 12 1 9 13
M  V30 13 1 10 14
M  V30 14 2 14 15
M  V30 15 1 10 12
M  V30 16 1 3 16
M  V30 17 1 4 17
M  V30 18 1 4 18
M  V30 19 1 4 19
M  V30 20 1 5 20
M  V30 21 1 5 21
M  V30 22 1 6 22
M  V30 23 1 6 23
M  V30 24 1 11 24
M  V30 25 1 11 25
M  V30 26 1 11 26
M  V30 27 1 12 27
M  V30 28 1 13 28
M  V30 29 1 13 29
M  V30 30 1 13 30
M  V30 31 1 14 31
M  V30 END BOND
M  V30 END CTAB
M  END
>  <NO.>
1150

>  <Name>
aloracetam

>  <SMILES>
CC(=O)NCCn1c(C)cc(C=O)c1C

>  <logBB>


>  <Class>
1

>  <MW>
208.12

>  <nHBAcc>
2

>  <nHBDon>
1

>  <SLogP>
1.05

>  <TopoPSA>
51.1

>  <MMFF94 Energy>
17.03

$$$$
CC(=O)NNC(=O)CC(O)(c1ccccc1)c1ccccc1
Actelion Java MolfileCreator 2.0

  0  0  0  0  0  0              0 V3000
M  V30 BEGIN CTAB
M  V30 COUNTS 40 41 0 0 0
M  V30 BEGIN ATOM
M  V30 1 O 1.5027 2.3735 1.5027 0
M  V30 2 C 1.3254 1.6531 0.5188 0
M  V30 3 N 0.9188 2.1516 -0.6959 0
M  V30 4 C 1.6442 0.1709 0.5403 0
M  V30 5 N 0.5802 3.4979 -0.791 0
M  V30 6 C 0.5617 -0.7333 -0.093 0
M  V30 7 C -0.066 3.9423 -1.9214 0
M  V30 8 O 0.567 -0.4123 -1.5032 0
M  V30 9 C -0.8128 -0.4134 0.5178 0
M  V30 10 C 0.8747 -2.2424 -0.0034 0
M  V30 11 O -0.3428 3.2186 -2.8754 0
M  V30 12 C -0.4354 5.3991 -1.8787 0
M  V30 13 C -1.8493 0.1514 -0.2468 0
M  V30 14 C -1.0645 -0.6797 1.8775 0
M  V30 15 C -0.0533 -3.1694 -0.5251 0
M  V30 16 C 2.0633 -2.7522 0.5462 0
M  V30 17 C -3.0889 0.4425 0.3274 0
M  V30 18 C -2.3052 -0.3889 2.449 0
M  V30 19 C 0.1914 -4.5434 -0.487 0
M  V30 20 C 2.3071 -4.1291 0.583 0
M  V30 21 C -3.3164 0.1725 1.6741 0
M  V30 22 C 1.3725 -5.0229 0.0682 0
M  V30 23 H 0.702 1.5434 -1.4923 0
M  V30 24 H 2.5978 0.0581 0.0074 0
M  V30 25 H 1.8135 -0.0994 1.5905 0
M  V30 26 H 0.7625 4.0727 0.0296 0
M  V30 27 H 0.9215 -1.1823 -1.9832 0
M  V30 28 H 0.1685 5.9433 -1.1472 0
M  V30 29 H -1.4911 5.4919 -1.6101 0
M  V30 30 H -0.2679 5.8421 -2.8643 0
M  V30 31 H -1.7013 0.3801 -1.301 0
M  V30 32 H -0.2942 -1.123 2.5057 0
M  V30 33 H -0.9876 -2.82 -0.9647 0
M  V30 34 H 2.8283 -2.0996 0.9588 0
M  V30 35 H -3.8753 0.8837 -0.2799 0
M  V30 36 H -2.4811 -0.6009 3.5005 0
M  V30 37 H -0.543 -5.2367 -0.8891 0
M  V30 38 H 3.2314 -4.5041 1.0164 0
M  V30 39 H -4.281 0.4007 2.1195 0
M  V30 40 H 1.5647 -6.0922 0.1007 0
M  V30 END ATOM
M  V30 BEGIN BOND
M  V30 1 2 1 2
M  V30 2 1 2 3
M  V30 3 1 2 4
M  V30 4 1 3 5
M  V30 5 1 4 6
M  V30 6 1 5 7
M  V30 7 1 6 8
M  V30 8 1 6 9
M  V30 9 1 6 10
M  V30 10 2 7 11
M  V30 11 1 7 12
M  V30 12 2 9 13
M  V30 13 1 9 14
M  V30 14 2 10 15
M  V30 15 1 10 16
M  V30 16 1 13 17
M  V30 17 2 14 18
M  V30 18 1 15 19
M  V30 19 2 16 20
M  V30 20 2 17 21
M  V30 21 2 19 22
M  V30 22 1 18 21
M  V30 23 1 20 22
M  V30 24 1 3 23
M  V30 25 1 4 24
M  V30 26 1 4 25
M  V30 27 1 5 26
M  V30 28 1 8 27
M  V30 29 1 12 28
M  V30 30 1 12 29
M  V30 31 1 12 30
M  V30 32 1 13 31
M  V30 33 1 14 32
M  V30 34 1 15 33
M  V30 35 1 16 34
M  V30 36 1 17 35
M  V30 37 1 18 36
M  V30 38 1 19 37
M  V30 39 1 20 38
M  V30 40 1 21 39
M  V30 41 1 22 40
M  V30 END BOND
M  V30 END CTAB
M  END
>  <NO.>
1151

>  <Name>
diphoxazide

>  <SMILES>
CC(=O)NNC(=O)CC(O)(c1ccccc1)c1ccccc1

>  <logBB>


>  <Class>
1

>  <MW>
298.13

>  <nHBAcc>
3

>  <nHBDon>
3

>  <SLogP>
1.48

>  <TopoPSA>
78.43

>  <MMFF94 Energy>
61.798

$$$$
CC(=O)Nc1c(I)c(NC(C)=O)c(I)c(C(=O)O)c1I
Actelion Java MolfileCreator 2.0

  0  0  0  0  0  0              0 V3000
M  V30 BEGIN CTAB
M  V30 COUNTS 29 29 0 0 0
M  V30 BEGIN ATOM
M  V30 1 I -1.0227 0.426 2.6436 0
M  V30 2 C -0.2704 0.1263 0.6575 0
M  V30 3 C -0.5235 -1.0989 0.0042 0
M  V30 4 C 0.53 1.1111 0.042 0
M  V30 5 N -1.3096 -2.0777 0.654 0
M  V30 6 C 0.0034 -1.3273 -1.2844 0
M  V30 7 N 0.7674 2.3562 0.6676 0
M  V30 8 C 1.1113 0.8487 -1.2147 0
M  V30 9 C -0.7333 -3.1906 1.2394 0
M  V30 10 I -0.5177 -3.1065 -2.3546 0
M  V30 11 C 0.8296 -0.3573 -1.8816 0
M  V30 12 C -0.2068 3.3375 0.7101 0
M  V30 13 I 2.4003 2.3119 -2.0941 0
M  V30 14 O 0.4679 -3.4394 1.2283 0
M  V30 15 C -1.7271 -4.0692 1.95 0
M  V30 16 C 1.4085 -0.6041 -3.2073 0
M  V30 17 O -1.3409 3.2133 0.2582 0
M  V30 18 C 0.27 4.6204 1.3359 0
M  V30 19 O 2.4788 -1.1263 -3.4415 0
M  V30 20 O 0.5816 -0.1494 -4.1637 0
M  V30 21 H -2.258 -1.8239 0.9063 0
M  V30 22 H 1.7304 2.6119 0.8539 0
M  V30 23 H -1.8216 -3.7378 2.9875 0
M  V30 24 H -1.3772 -5.1048 1.9272 0
M  V30 25 H -2.7069 -4.0242 1.4661 0
M  V30 26 H 1.02 4.4246 2.1076 0
M  V30 27 H -0.5762 5.1353 1.7988 0
M  V30 28 H 0.7062 5.2569 0.5616 0
M  V30 29 H 1.041 -0.3546 -5.0054 0
M  V30 END ATOM
M  V30 BEGIN BOND
M  V30 1 1 1 2
M  V30 2 2 2 3
M  V30 3 1 2 4
M  V30 4 1 3 5
M  V30 5 1 3 6
M  V30 6 1 4 7
M  V30 7 2 4 8
M  V30 8 1 5 9
M  V30 9 1 6 10
M  V30 10 2 6 11
M  V30 11 1 7 12
M  V30 12 1 8 13
M  V30 13 2 9 14
M  V30 14 1 9 15
M  V30 15 1 11 16
M  V30 16 2 12 17
M  V30 17 1 12 18
M  V30 18 2 16 19
M  V30 19 1 16 20
M  V30 20 1 8 11
M  V30 21 1 5 21
M  V30 22 1 7 22
M  V30 23 1 15 23
M  V30 24 1 15 24
M  V30 25 1 15 25
M  V30 26 1 18 26
M  V30 27 1 18 27
M  V30 28 1 18 28
M  V30 29 1 20 29
M  V30 END BOND
M  V30 END CTAB
M  END
>  <NO.>
1152

>  <Name>
sodiumamidotrizoate

>  <SMILES>
CC(=O)Nc1c(I)c(NC(C)=O)c(I)c(C(=O)O)c1I

>  <logBB>


>  <Class>
-1

>  <MW>
613.77

>  <nHBAcc>
3

>  <nHBDon>
3

>  <SLogP>
3.12

>  <TopoPSA>
95.5

>  <MMFF94 Energy>
11.516

$$$$
CC(=O)Nc1ccc(OC(=O)[C@@H]2CCC(=O)N2)cc1
Actelion Java MolfileCreator 2.0

  0  0  0  0  0  0              0 V3000
M  V30 BEGIN CTAB
M  V30 COUNTS 33 34 0 0 0
M  V30 BEGIN ATOM
M  V30 1 O -3.2581 4.4522 -0.3175 0
M  V30 2 C -3.4945 3.2845 -0.069 0
M  V30 3 N -3.1416 2.6316 1.0912 0
M  V30 4 C -4.1655 2.2903 -0.9802 0
M  V30 5 C -3.4386 1.2197 1.0452 0 CFG=1
M  V30 6 C -4.5138 1.1437 -0.0321 0
M  V30 7 C -2.2521 0.3042 0.7031 0
M  V30 8 O -2.3659 -0.9021 0.5157 0
M  V30 9 O -1.069 1.0347 0.6695 0
M  V30 10 C 0.0677 0.2832 0.3667 0
M  V30 11 C 0.6199 -0.5786 1.3097 0
M  V30 12 C 0.6783 0.484 -0.8664 0
M  V30 13 C 1.7897 -1.2782 0.9985 0
M  V30 14 C 1.8464 -0.2186 -1.171 0
M  V30 15 C 2.4136 -1.1022 -0.2403 0
M  V30 16 N 3.5862 -1.7812 -0.6284 0
M  V30 17 C 4.4302 -2.5215 0.1803 0
M  V30 18 O 4.3315 -2.6928 1.3898 0
M  V30 19 C 5.5777 -3.1162 -0.5968 0
M  V30 20 H -2.6131 3.1055 1.8145 0
M  V30 21 H -5.056 2.7201 -1.4451 0
M  V30 22 H -3.4516 1.9746 -1.7472 0
M  V30 23 H -3.814 0.9189 2.0285 0
M  V30 24 H -4.5671 0.1828 -0.5525 0
M  V30 25 H -5.4971 1.3364 0.4164 0
M  V30 26 H 0.1502 -0.7199 2.2784 0
M  V30 27 H 0.2549 1.1792 -1.5851 0
M  V30 28 H 2.1873 -1.9607 1.7437 0
M  V30 29 H 2.3111 -0.0569 -2.1401 0
M  V30 30 H 3.8537 -1.6867 -1.6 0
M  V30 31 H 5.2076 -3.6191 -1.4949 0
M  V30 32 H 6.1018 -3.8494 0.0226 0
M  V30 33 H 6.2742 -2.3232 -0.8829 0
M  V30 END ATOM
M  V30 BEGIN BOND
M  V30 1 2 1 2
M  V30 2 1 2 3
M  V30 3 1 2 4
M  V30 4 1 3 5
M  V30 5 1 4 6
M  V30 6 1 5 7
M  V30 7 2 7 8
M  V30 8 1 7 9
M  V30 9 1 9 10
M  V30 10 2 10 11
M  V30 11 1 10 12
M  V30 12 1 11 13
M  V30 13 2 12 14
M  V30 14 2 13 15
M  V30 15 1 15 16
M  V30 16 1 16 17
M  V30 17 2 17 18
M  V30 18 1 17 19
M  V30 19 1 5 6
M  V30 20 1 14 15
M  V30 21 1 3 20
M  V30 22 1 4 21
M  V30 23 1 4 22
M  V30 24 1 5 23
M  V30 25 1 6 24
M  V30 26 1 6 25
M  V30 27 1 11 26
M  V30 28 1 12 27
M  V30 29 1 13 28
M  V30 30 1 14 29
M  V30 31 1 16 30
M  V30 32 1 19 31
M  V30 33 1 19 32
M  V30 34 1 19 33
M  V30 END BOND
M  V30 BEGIN COLLECTION
M  V30 MDLV30/STEABS ATOMS=(1 5)
M  V30 END COLLECTION
M  V30 END CTAB
M  END
>  <NO.>
1153

>  <Name>
pidolacetamol

>  <SMILES>
CC(=O)Nc1ccc(OC(=O)[C@@H]2CCC(=O)N2)cc1

>  <logBB>


>  <Class>
1

>  <MW>
262.1

>  <nHBAcc>
4

>  <nHBDon>
2

>  <SLogP>
0.83

>  <TopoPSA>
84.5

>  <MMFF94 Energy>
15.819

$$$$
CC(=O)Nc1ccc(OC(=O)c2ccccc2O)cc1
Actelion Java MolfileCreator 2.0

  0  0  0  0  0  0              0 V3000
M  V30 BEGIN CTAB
M  V30 COUNTS 33 34 0 0 0
M  V30 BEGIN ATOM
M  V30 1 O -2.2213 -0.7136 -0.8722 0
M  V30 2 C -2.13 0.2844 -0.173 0
M  V30 3 O -0.9661 0.8369 0.332 0
M  V30 4 C -3.3078 1.0806 0.2736 0
M  V30 5 C 0.2219 0.182 -0.0144 0
M  V30 6 C -3.2464 2.3106 0.9458 0
M  V30 7 C -4.5722 0.5393 -0.0231 0
M  V30 8 C 1.0162 -0.3 1.0209 0
M  V30 9 C 0.6413 0.0953 -1.3385 0
M  V30 10 O -2.095 2.9637 1.2915 0
M  V30 11 C -4.4206 2.9746 1.3111 0
M  V30 12 C -5.7431 1.2059 0.3452 0
M  V30 13 C 2.2383 -0.9105 0.7244 0
M  V30 14 C 1.8619 -0.519 -1.6281 0
M  V30 15 C -5.6662 2.4241 1.0131 0
M  V30 16 C 2.6717 -1.0229 -0.5998 0
M  V30 17 N 3.8812 -1.6404 -0.976 0
M  V30 18 C 4.9277 -2.0022 -0.1468 0
M  V30 19 O 5.0091 -1.8172 1.0618 0
M  V30 20 C 6.0503 -2.6599 -0.909 0
M  V30 21 H -4.6532 -0.4127 -0.5463 0
M  V30 22 H 0.6938 -0.2131 2.0544 0
M  V30 23 H 0.0272 0.4881 -2.1433 0
M  V30 24 H -1.3215 2.4252 1.0457 0
M  V30 25 H -4.362 3.9282 1.8311 0
M  V30 26 H -6.7125 0.7732 0.1095 0
M  V30 27 H 2.8281 -1.2967 1.5503 0
M  V30 28 H 2.1711 -0.5917 -2.6673 0
M  V30 29 H -6.5743 2.9477 1.3016 0
M  V30 30 H 4.0057 -1.8065 -1.9666 0
M  V30 31 H 5.6572 -3.443 -1.5636 0
M  V30 32 H 6.7561 -3.1134 -0.2076 0
M  V30 33 H 6.5716 -1.9095 -1.5097 0
M  V30 END ATOM
M  V30 BEGIN BOND
M  V30 1 2 1 2
M  V30 2 1 2 3
M  V30 3 1 2 4
M  V30 4 1 3 5
M  V30 5 2 4 6
M  V30 6 1 4 7
M  V30 7 2 5 8
M  V30 8 1 5 9
M  V30 9 1 6 10
M  V30 10 1 6 11
M  V30 11 2 7 12
M  V30 12 1 8 13
M  V30 13 2 9 14
M  V30 14 2 11 15
M  V30 15 2 13 16
M  V30 16 1 16 17
M  V30 17 1 17 18
M  V30 18 2 18 19
M  V30 19 1 18 20
M  V30 20 1 12 15
M  V30 21 1 14 16
M  V30 22 1 7 21
M  V30 23 1 8 22
M  V30 24 1 9 23
M  V30 25 1 10 24
M  V30 26 1 11 25
M  V30 27 1 12 26
M  V30 28 1 13 27
M  V30 29 1 14 28
M  V30 30 1 15 29
M  V30 31 1 17 30
M  V30 32 1 20 31
M  V30 33 1 20 32
M  V30 34 1 20 33
M  V30 END BOND
M  V30 END CTAB
M  END
>  <NO.>
1154

>  <Name>
acetaminosalol

>  <SMILES>
CC(=O)Nc1ccc(OC(=O)c2ccccc2O)cc1

>  <logBB>


>  <Class>
1

>  <MW>
271.08

>  <nHBAcc>
4

>  <nHBDon>
2

>  <SLogP>
2.57

>  <TopoPSA>
75.63

>  <MMFF94 Energy>
46.023

$$$$
CC(=O)Nc1ccc(OC(C)(C)C)cc1
Actelion Java MolfileCreator 2.0

  0  0  0  0  0  0              0 V3000
M  V30 BEGIN CTAB
M  V30 COUNTS 32 32 0 0 0
M  V30 BEGIN ATOM
M  V30 1 O 4.2847 -1.1671 0.3111 0
M  V30 2 C 4.1256 -1.0435 -0.8976 0
M  V30 3 N 3.0082 -0.5472 -1.5448 0
M  V30 4 C 5.1936 -1.4783 -1.8693 0
M  V30 5 C 1.8343 -0.0433 -0.9496 0
M  V30 6 C 1.7259 0.2698 0.4068 0
M  V30 7 C 0.736 0.186 -1.7884 0
M  V30 8 C 0.5297 0.7802 0.9227 0
M  V30 9 C -0.4592 0.6942 -1.2721 0
M  V30 10 C -0.5706 0.9544 0.09 0
M  V30 11 O -1.7186 1.5097 0.5749 0
M  V30 12 C -2.7038 0.5991 1.1162 0
M  V30 13 C -3.1898 -0.4338 0.0885 0
M  V30 14 C -3.8933 1.5025 1.4856 0
M  V30 15 C -2.2171 -0.0959 2.3957 0
M  V30 16 H 3.0146 -0.5802 -2.5562 0
M  V30 17 H 4.8762 -2.3951 -2.3735 0
M  V30 18 H 6.1265 -1.6678 -1.3313 0
M  V30 19 H 5.3722 -0.6958 -2.6124 0
M  V30 20 H 2.5618 0.1458 1.0885 0
M  V30 21 H 0.7929 -0.023 -2.853 0
M  V30 22 H 0.4705 1.0464 1.9739 0
M  V30 23 H -1.2981 0.8883 -1.9337 0
M  V30 24 H -2.4012 -1.15 -0.1655 0
M  V30 25 H -4.0405 -1.0077 0.4722 0
M  V30 26 H -3.4958 0.0535 -0.8436 0
M  V30 27 H -4.2635 2.0383 0.6036 0
M  V30 28 H -4.7226 0.9312 1.9157 0
M  V30 29 H -3.5902 2.2691 2.2085 0
M  V30 30 H -1.4241 -0.8202 2.1827 0
M  V30 31 H -1.8083 0.6312 3.106 0
M  V30 32 H -3.0304 -0.6402 2.8882 0
M  V30 END ATOM
M  V30 BEGIN BOND
M  V30 1 2 1 2
M  V30 2 1 2 3
M  V30 3 1 2 4
M  V30 4 1 3 5
M  V30 5 2 5 6
M  V30 6 1 5 7
M  V30 7 1 6 8
M  V30 8 2 7 9
M  V30 9 2 8 10
M  V30 10 1 10 11
M  V30 11 1 11 12
M  V30 12 1 12 13
M  V30 13 1 12 14
M  V30 14 1 12 15
M  V30 15 1 9 10
M  V30 16 1 3 16
M  V30 17 1 4 17
M  V30 18 1 4 18
M  V30 19 1 4 19
M  V30 20 1 6 20
M  V30 21 1 7 21
M  V30 22 1 8 22
M  V30 23 1 9 23
M  V30 24 1 13 24
M  V30 25 1 13 25
M  V30 26 1 13 26
M  V30 27 1 14 27
M  V30 28 1 14 28
M  V30 29 1 14 29
M  V30 30 1 15 30
M  V30 31 1 15 31
M  V30 32 1 15 32
M  V30 END BOND
M  V30 END CTAB
M  END
>  <NO.>
1155

>  <Name>
butacetin

>  <SMILES>
CC(=O)Nc1ccc(OC(C)(C)C)cc1

>  <logBB>


>  <Class>
1

>  <MW>
207.13

>  <nHBAcc>
2

>  <nHBDon>
1

>  <SLogP>
2.82

>  <TopoPSA>
38.33

>  <MMFF94 Energy>
18.271

$$$$
CC(=O)Nc1cccc(O)c1
Actelion Java MolfileCreator 2.0

  0  0  0  0  0  0              0 V3000
M  V30 BEGIN CTAB
M  V30 COUNTS 20 20 0 0 0
M  V30 BEGIN ATOM
M  V30 1 O -2.1004 -1.7111 -0.5442 0
M  V30 2 C -2.2849 -0.6202 -0.0188 0
M  V30 3 N -1.33 0.325 0.3113 0
M  V30 4 C -3.6744 -0.1629 0.3486 0
M  V30 5 C 0.0648 0.2429 0.1168 0
M  V30 6 C 0.7129 -0.8494 -0.4611 0
M  V30 7 C 0.8317 1.3392 0.5379 0
M  V30 8 C 2.0994 -0.8377 -0.6113 0
M  V30 9 C 2.2212 1.3427 0.3837 0
M  V30 10 O 2.6861 -1.9298 -1.1822 0
M  V30 11 C 2.8602 0.2488 -0.1939 0
M  V30 12 H -1.6675 1.1757 0.7427 0
M  V30 13 H -3.7343 0.0133 1.4264 0
M  V30 14 H -4.402 -0.9319 0.0745 0
M  V30 15 H -3.9153 0.7596 -0.187 0
M  V30 16 H 0.1702 -1.7236 -0.8046 0
M  V30 17 H 0.3598 2.2066 0.9922 0
M  V30 18 H 2.8021 2.1996 0.7149 0
M  V30 19 H 3.645 -1.7858 -1.2232 0
M  V30 20 H 3.939 0.2599 -0.3098 0
M  V30 END ATOM
M  V30 BEGIN BOND
M  V30 1 2 1 2
M  V30 2 1 2 3
M  V30 3 1 2 4
M  V30 4 1 3 5
M  V30 5 2 5 6
M  V30 6 1 5 7
M  V30 7 1 6 8
M  V30 8 2 7 9
M  V30 9 1 8 10
M  V30 10 2 8 11
M  V30 11 1 9 11
M  V30 12 1 3 12
M  V30 13 1 4 13
M  V30 14 1 4 14
M  V30 15 1 4 15
M  V30 16 1 6 16
M  V30 17 1 7 17
M  V30 18 1 9 18
M  V30 19 1 10 19
M  V30 20 1 11 20
M  V30 END BOND
M  V30 END CTAB
M  END
>  <NO.>
1156

>  <Name>
metacetamol

>  <SMILES>
CC(=O)Nc1cccc(O)c1

>  <logBB>


>  <Class>
1

>  <MW>
151.06

>  <nHBAcc>
2

>  <nHBDon>
2

>  <SLogP>
1.35

>  <TopoPSA>
49.33

>  <MMFF94 Energy>
-9.3195

$$$$
CC(=O)OC(c1ccccc1)C1CCCCN1
Actelion Java MolfileCreator 2.0

  0  0  0  0  0  0              0 V3000
M  V30 BEGIN CTAB
M  V30 COUNTS 36 37 0 0 0
M  V30 BEGIN ATOM
M  V30 1 O -2.6894 -1.2649 -1.9769 0
M  V30 2 C -2.7699 -0.1053 -1.5959 0
M  V30 3 O -1.7421 0.6488 -1.1315 0
M  V30 4 C -4.0362 0.6943 -1.5841 0
M  V30 5 C -0.4612 -0.0172 -1.0462 0
M  V30 6 C 0.6211 1.0545 -1.0938 0
M  V30 7 C -0.4099 -0.9437 0.2212 0
M  V30 8 C 1.7894 0.8412 -1.8436 0
M  V30 9 C 0.4859 2.2665 -0.3972 0
M  V30 10 N -0.5812 -0.2081 1.4995 0
M  V30 11 C 0.8779 -1.7882 0.2552 0
M  V30 12 C 2.7954 1.8086 -1.8874 0
M  V30 13 C 1.4923 3.2327 -0.4418 0
M  V30 14 C -0.6295 -1.1233 2.641 0
M  V30 15 C 0.8871 -2.739 1.45 0
M  V30 16 C 2.647 3.0029 -1.1857 0
M  V30 17 C 0.6322 -1.9756 2.7448 0
M  V30 18 H -4.2635 1.0133 -0.5637 0
M  V30 19 H -3.9347 1.5591 -2.2445 0
M  V30 20 H -4.8607 0.0733 -1.9459 0
M  V30 21 H -0.3417 -0.6389 -1.9446 0
M  V30 22 H -1.2625 -1.6311 0.1449 0
M  V30 23 H 1.9253 -0.0834 -2.4007 0
M  V30 24 H -0.4129 2.4638 0.1848 0
M  V30 25 H 0.2129 0.4242 1.6151 0
M  V30 26 H 0.9692 -2.3705 -0.6691 0
M  V30 27 H 1.7615 -1.1416 0.3181 0
M  V30 28 H 3.6945 1.6307 -2.4716 0
M  V30 29 H 1.3716 4.1661 0.1018 0
M  V30 30 H -1.5167 -1.7636 2.5656 0
M  V30 31 H -0.7471 -0.5357 3.5583 0
M  V30 32 H 0.1115 -3.5031 1.3157 0
M  V30 33 H 1.848 -3.2621 1.5057 0
M  V30 34 H 3.4294 3.7563 -1.222 0
M  V30 35 H 0.5364 -2.681 3.5778 0
M  V30 36 H 1.4939 -1.3333 2.9663 0
M  V30 END ATOM
M  V30 BEGIN BOND
M  V30 1 2 1 2
M  V30 2 1 2 3
M  V30 3 1 2 4
M  V30 4 1 3 5
M  V30 5 1 5 6
M  V30 6 1 5 7
M  V30 7 2 6 8
M  V30 8 1 6 9
M  V30 9 1 7 10
M  V30 10 1 7 11
M  V30 11 1 8 12
M  V30 12 2 9 13
M  V30 13 1 10 14
M  V30 14 1 11 15
M  V30 15 2 12 16
M  V30 16 1 14 17
M  V30 17 1 13 16
M  V30 18 1 15 17
M  V30 19 1 4 18
M  V30 20 1 4 19
M  V30 21 1 4 20
M  V30 22 1 5 21
M  V30 23 1 7 22
M  V30 24 1 8 23
M  V30 25 1 9 24
M  V30 26 1 10 25
M  V30 27 1 11 26
M  V30 28 1 11 27
M  V30 29 1 12 28
M  V30 30 1 13 29
M  V30 31 1 14 30
M  V30 32 1 14 31
M  V30 33 1 15 32
M  V30 34 1 15 33
M  V30 35 1 16 34
M  V30 36 1 17 35
M  V30 37 1 17 36
M  V30 END BOND
M  V30 END CTAB
M  END
>  <NO.>
1157

>  <Name>
levofacetoperane

>  <SMILES>
CC(=O)OC(c1ccccc1)C1CCCCN1

>  <logBB>


>  <Class>
1

>  <MW>
233.14

>  <nHBAcc>
3

>  <nHBDon>
1

>  <SLogP>
2.43

>  <TopoPSA>
38.33

>  <MMFF94 Energy>
37.772

$$$$
CC(=O)OC1/C=C/C(C)=C/CC(O)/C=C/C(C)=C/C(NC(=O)C(C)=O)C2(C)C(=O)OC(C1)C(C)C2=O
Actelion Java MolfileCreator 2.0

  0  0  0  0  0  0              0 V3000
M  V30 BEGIN CTAB
M  V30 COUNTS 71 72 0 0 0
M  V30 BEGIN ATOM
M  V30 1 O 0.9514 2.0623 -1.2687 0
M  V30 2 C 0.7663 0.8753 -1.528 0
M  V30 3 O 1.7565 -0.0152 -1.3101 0
M  V30 4 C -0.5038 0.3816 -2.1878 0
M  V30 5 C 1.4659 -1.4082 -1.0976 0
M  V30 6 C -0.6014 -1.1312 -2.3181 0
M  V30 7 C -1.7575 0.9112 -1.427 0
M  V30 8 C -0.4856 0.9229 -3.6333 0
M  V30 9 C 0.697 -1.9178 -2.3113 0
M  V30 10 C 2.8041 -2.1481 -0.8652 0
M  V30 11 O -1.6813 -1.6875 -2.5279 0
M  V30 12 N -1.8164 2.3631 -1.351 0
M  V30 13 C -1.8722 0.428 0.0049 0
M  V30 14 C 0.431 -3.4205 -2.2818 0
M  V30 15 C 3.6931 -1.586 0.2721 0
M  V30 16 C -2.9461 3.0948 -1.6322 0
M  V30 17 C -2.9442 -0.1401 0.5985 0
M  V30 18 O 4.1636 -0.2632 -0.0283 0
M  V30 19 C 2.9234 -1.5659 1.5735 0
M  V30 20 O -4.0083 2.6517 -2.0385 0
M  V30 21 C -2.7783 4.5975 -1.3944 0
M  V30 22 C -2.8726 -0.5685 1.9893 0
M  V30 23 C -4.2914 -0.3688 -0.0331 0
M  V30 24 C 5.19 -0.1756 -0.9126 0
M  V30 25 C 2.4147 -0.4657 2.1545 0
M  V30 26 O -1.7068 5.029 -0.9829 0
M  V30 27 C -3.9716 5.4551 -1.6894 0
M  V30 28 C -1.9601 -1.4499 2.4236 0
M  V30 29 O 5.738 -1.1206 -1.4617 0
M  V30 30 C 5.5527 1.2607 -1.1324 0
M  V30 31 C 1.5145 -0.4187 3.3012 0
M  V30 32 C -1.7965 -1.9287 3.839 0
M  V30 33 C 0.6943 -1.4453 3.6014 0
M  V30 34 C 1.4823 0.9204 3.9917 0
M  V30 35 O -1.7765 -3.3563 3.7974 0
M  V30 36 C -0.5018 -1.4245 4.527 0
M  V30 37 H 0.8452 -1.489 -0.196 0
M  V30 38 H -2.6353 0.5888 -1.9951 0
M  V30 39 H -1.3925 0.6362 -4.1781 0
M  V30 40 H 0.3703 0.5271 -4.193 0
M  V30 41 H -0.4076 2.0155 -3.6614 0
M  V30 42 H 1.2245 -1.6655 -3.2395 0
M  V30 43 H 3.3739 -2.1149 -1.8014 0
M  V30 44 H 2.601 -3.203 -0.6459 0
M  V30 45 H -1.0017 2.8847 -1.0171 0
M  V30 46 H -0.9813 0.5804 0.6159 0
M  V30 47 H -0.0629 -3.7188 -1.3505 0
M  V30 48 H 1.3589 -3.9918 -2.3796 0
M  V30 49 H -0.2185 -3.7206 -3.1115 0
M  V30 50 H 4.5596 -2.2437 0.4203 0
M  V30 51 H 2.7443 -2.5454 2.0099 0
M  V30 52 H -3.615 -0.153 2.6675 0
M  V30 53 H -4.3627 -0.0063 -1.0597 0
M  V30 54 H -4.524 -1.4394 -0.0505 0
M  V30 55 H -5.0733 0.1429 0.5393 0
M  V30 56 H 2.606 0.5048 1.6934 0
M  V30 57 H -4.8079 5.1586 -1.0516 0
M  V30 58 H -4.2436 5.3617 -2.7436 0
M  V30 59 H -3.7278 6.501 -1.4826 0
M  V30 60 H -1.2567 -1.8696 1.7068 0
M  V30 61 H 4.701 1.7959 -1.5598 0
M  V30 62 H 5.8579 1.7152 -0.1866 0
M  V30 63 H 6.3903 1.3199 -1.8331 0
M  V30 64 H -2.6555 -1.641 4.4563 0
M  V30 65 H 0.7882 -2.3876 3.0643 0
M  V30 66 H 2.5008 1.285 4.1696 0
M  V30 67 H 0.9551 1.6571 3.3762 0
M  V30 68 H 0.9989 0.88 4.9715 0
M  V30 69 H -2.5913 -3.6328 3.343 0
M  V30 70 H -0.2759 -2.0567 5.3937 0
M  V30 71 H -0.6937 -0.4116 4.8938 0
M  V30 END ATOM
M  V30 BEGIN BOND
M  V30 1 2 1 2
M  V30 2 1 2 3
M  V30 3 1 2 4
M  V30 4 1 3 5
M  V30 5 1 4 6
M  V30 6 1 4 7
M  V30 7 1 4 8
M  V30 8 1 5 9
M  V30 9 1 5 10
M  V30 10 2 6 11
M  V30 11 1 7 12
M  V30 12 1 7 13
M  V30 13 1 9 14
M  V30 14 1 10 15
M  V30 15 1 12 16
M  V30 16 2 13 17
M  V30 17 1 15 18
M  V30 18 1 15 19
M  V30 19 2 16 20
M  V30 20 1 16 21
M  V30 21 1 17 22
M  V30 22 1 17 23
M  V30 23 1 18 24
M  V30 24 2 19 25
M  V30 25 2 21 26
M  V30 26 1 21 27
M  V30 27 2 22 28
M  V30 28 2 24 29
M  V30 29 1 24 30
M  V30 30 1 25 31
M  V30 31 1 28 32
M  V30 32 2 31 33
M  V30 33 1 31 34
M  V30 34 1 32 35
M  V30 35 1 32 36
M  V30 36 1 6 9
M  V30 37 1 33 36
M  V30 38 1 5 37
M  V30 39 1 7 38
M  V30 40 1 8 39
M  V30 41 1 8 40
M  V30 42 1 8 41
M  V30 43 1 9 42
M  V30 44 1 10 43
M  V30 45 1 10 44
M  V30 46 1 12 45
M  V30 47 1 13 46
M  V30 48 1 14 47
M  V30 49 1 14 48
M  V30 50 1 14 49
M  V30 51 1 15 50
M  V30 52 1 19 51
M  V30 53 1 22 52
M  V30 54 1 23 53
M  V30 55 1 23 54
M  V30 56 1 23 55
M  V30 57 1 25 56
M  V30 58 1 27 57
M  V30 59 1 27 58
M  V30 60 1 27 59
M  V30 61 1 28 60
M  V30 62 1 30 61
M  V30 63 1 30 62
M  V30 64 1 30 63
M  V30 65 1 32 64
M  V30 66 1 33 65
M  V30 67 1 34 66
M  V30 68 1 34 67
M  V30 69 1 34 68
M  V30 70 1 35 69
M  V30 71 1 36 70
M  V30 72 1 36 71
M  V30 END BOND
M  V30 END CTAB
M  END
>  <NO.>
1158

>  <Name>
sedecamycin

>  <SMILES>
CC(=O)OC1/C=C/C(C)=C/CC(O)/C=C/C(C)=C/C(NC(=O)C(C)=O)C2(C)C(=O)OC(C1)C(C)C2=O

>  <logBB>


>  <Class>
-1

>  <MW>
501.24

>  <nHBAcc>
8

>  <nHBDon>
2

>  <SLogP>
2.29

>  <TopoPSA>
136.07

>  <MMFF94 Energy>
8.3875

$$$$
CC(=O)OCC(=O)C1(O)C(C)CC2C3CC(F)(F)C4=CC(=O)C=CC4(C)C3(F)C(O)CC21C
Actelion Java MolfileCreator 2.0

  0  0  0  0  0  0              0 V3000
M  V30 BEGIN CTAB
M  V30 COUNTS 62 65 0 0 0
M  V30 BEGIN ATOM
M  V30 1 F 1.7067 1.1375 1.3001 0
M  V30 2 C 0.5502 0.6733 1.8931 0
M  V30 3 C 0.6801 1.0398 3.4342 0
M  V30 4 C -0.6191 1.3643 1.1422 0
M  V30 5 C 0.5298 -0.8618 1.6425 0
M  V30 6 C 1.8715 0.2616 4.0167 0
M  V30 7 C 0.8824 2.5465 3.6078 0
M  V30 8 C -0.5735 0.6956 4.2718 0
M  V30 9 O -1.9016 1.1934 1.7347 0
M  V30 10 C -0.6793 0.9794 -0.3443 0
M  V30 11 C 0.4548 -1.2522 0.1433 0
M  V30 12 C 1.7337 -1.5549 2.3138 0
M  V30 13 C 2.911 0.8437 4.6429 0
M  V30 14 C 1.8404 -1.2238 3.7927 0
M  V30 15 C 1.9214 3.1207 4.2287 0
M  V30 16 C -0.6572 -0.5418 -0.6718 0
M  V30 17 C 1.7512 -1.0559 -0.6763 0
M  V30 18 C 3.0022 2.3064 4.8129 0
M  V30 19 F 2.9465 -1.839 4.2902 0
M  V30 20 F 0.7843 -1.785 4.4391 0
M  V30 21 C -0.1928 -0.8369 -2.152 0
M  V30 22 C -2.0349 -1.1696 -0.3783 0
M  V30 23 C 1.3349 -0.5893 -2.0819 0
M  V30 24 O 3.939 2.8218 5.408 0
M  V30 25 O -0.3628 -2.221 -2.4723 0
M  V30 26 C -0.8414 0.0947 -3.2153 0
M  V30 27 C 2.1517 -1.2697 -3.1783 0
M  V30 28 O -0.5156 1.2791 -3.329 0
M  V30 29 C -1.9229 -0.5222 -4.0939 0
M  V30 30 O -2.5038 0.4508 -4.9602 0
M  V30 31 C -3.5591 -0.0157 -5.6767 0
M  V30 32 O -4.0097 -1.1503 -5.6027 0
M  V30 33 C -4.0977 1.0596 -6.5686 0
M  V30 34 H -0.4385 2.4452 1.153 0
M  V30 35 H -0.3763 -1.266 2.1119 0
M  V30 36 H 0.1056 3.2042 3.2207 0
M  V30 37 H -1.3853 1.4162 4.1209 0
M  V30 38 H -0.3497 0.7128 5.3468 0
M  V30 39 H -0.9748 -0.2955 4.0436 0
M  V30 40 H -2.026 0.2757 2.0205 0
M  V30 41 H 0.1745 1.4752 -0.8183 0
M  V30 42 H -1.5792 1.4253 -0.7882 0
M  V30 43 H 0.2505 -2.3341 0.1214 0
M  V30 44 H 1.6361 -2.6416 2.1999 0
M  V30 45 H 2.6747 -1.2769 1.8251 0
M  V30 46 H 3.7478 0.2788 5.0414 0
M  V30 47 H 2.0134 4.1946 4.3403 0
M  V30 48 H 2.4266 -0.3138 -0.2426 0
M  V30 49 H 2.3066 -2.001 -0.7097 0
M  V30 50 H -2.0505 -2.2467 -0.5707 0
M  V30 51 H -2.331 -1.0678 0.6652 0
M  V30 52 H -2.8146 -0.7071 -0.9919 0
M  V30 53 H 1.5506 0.4841 -2.1529 0
M  V30 54 H -1.2956 -2.4805 -2.4027 0
M  V30 55 H 2.0801 -2.361 -3.1287 0
M  V30 56 H 1.814 -0.9496 -4.1692 0
M  V30 57 H 3.2102 -1.0051 -3.0823 0
M  V30 58 H -1.4615 -1.3096 -4.6991 0
M  V30 59 H -2.6947 -0.935 -3.4357 0
M  V30 60 H -4.4516 1.899 -5.9649 0
M  V30 61 H -3.322 1.3862 -7.2655 0
M  V30 62 H -4.9394 0.6645 -7.1447 0
M  V30 END ATOM
M  V30 BEGIN BOND
M  V30 1 1 1 2
M  V30 2 1 2 3
M  V30 3 1 2 4
M  V30 4 1 2 5
M  V30 5 1 3 6
M  V30 6 1 3 7
M  V30 7 1 3 8
M  V30 8 1 4 9
M  V30 9 1 4 10
M  V30 10 1 5 11
M  V30 11 1 5 12
M  V30 12 2 6 13
M  V30 13 1 6 14
M  V30 14 2 7 15
M  V30 15 1 10 16
M  V30 16 1 11 17
M  V30 17 1 13 18
M  V30 18 1 14 19
M  V30 19 1 14 20
M  V30 20 1 16 21
M  V30 21 1 16 22
M  V30 22 1 17 23
M  V30 23 2 18 24
M  V30 24 1 21 25
M  V30 25 1 21 26
M  V30 26 1 23 27
M  V30 27 2 26 28
M  V30 28 1 26 29
M  V30 29 1 29 30
M  V30 30 1 30 31
M  V30 31 2 31 32
M  V30 32 1 31 33
M  V30 33 1 11 16
M  V30 34 1 12 14
M  V30 35 1 15 18
M  V30 36 1 21 23
M  V30 37 1 4 34
M  V30 38 1 5 35
M  V30 39 1 7 36
M  V30 40 1 8 37
M  V30 41 1 8 38
M  V30 42 1 8 39
M  V30 43 1 9 40
M  V30 44 1 10 41
M  V30 45 1 10 42
M  V30 46 1 11 43
M  V30 47 1 12 44
M  V30 48 1 12 45
M  V30 49 1 13 46
M  V30 50 1 15 47
M  V30 51 1 17 48
M  V30 52 1 17 49
M  V30 53 1 22 50
M  V30 54 1 22 51
M  V30 55 1 22 52
M  V30 56 1 23 53
M  V30 57 1 25 54
M  V30 58 1 27 55
M  V30 59 1 27 56
M  V30 60 1 27 57
M  V30 61 1 29 58
M  V30 62 1 29 59
M  V30 63 1 33 60
M  V30 64 1 33 61
M  V30 65 1 33 62
M  V30 END BOND
M  V30 END CTAB
M  END
>  <NO.>
1160

>  <Name>
cormethasoneacetate (cormetasone-acetate)

>  <SMILES>
CC(=O)OCC(=O)C1(O)C(C)CC2C3CC(F)(F)C4=CC(=O)C=CC4(C)C3(F)C(O)CC21C

>  <logBB>


>  <Class>
1

>  <MW>
470.19

>  <nHBAcc>
6

>  <nHBDon>
2

>  <SLogP>
2.71

>  <TopoPSA>
100.9

>  <MMFF94 Energy>
146.3

$$$$
CC(=O)OCC(=O)C12N=C(C)OC1CC1C3CCC4=CC(=O)C=CC4(C)[C@@]3(F)C(O)CC12C
Actelion Java MolfileCreator 2.0

  0  0  0  0  0  0              0 V3000
M  V30 BEGIN CTAB
M  V30 COUNTS 63 67 0 0 0
M  V30 BEGIN ATOM
M  V30 1 F -1.7872 -2.0311 1.0558 0
M  V30 2 C -0.9674 -0.9361 1.2523 0 CFG=2
M  V30 3 C -1.0132 -0.588 2.8079 0
M  V30 4 C -1.5134 0.1706 0.3151 0
M  V30 5 C 0.461 -1.3667 0.7858 0
M  V30 6 C -0.3806 -1.7599 3.5816 0
M  V30 7 C -2.4301 -0.3251 3.3223 0
M  V30 8 C -0.2189 0.7017 3.1266 0
M  V30 9 O -2.887 0.4791 0.5836 0
M  V30 10 C -1.4742 -0.2302 -1.1603 0
M  V30 11 C 0.5068 -1.7906 -0.7107 0
M  V30 12 C 0.9886 -2.5241 1.6657 0
M  V30 13 C -1.0073 -2.4489 4.5527 0
M  V30 14 C 0.9977 -2.171 3.1463 0
M  V30 15 C -3.0536 -1.0129 4.2882 0
M  V30 16 C -0.1531 -0.7956 -1.7078 0
M  V30 17 C 1.9426 -1.8903 -1.2555 0
M  V30 18 C -2.386 -2.1326 4.9726 0
M  V30 19 C 0.9883 0.2414 -2.0241 0
M  V30 20 C -0.5479 -1.5853 -2.9964 0
M  V30 21 C 2.3043 -0.4696 -1.6774 0
M  V30 22 O -2.9469 -2.769 5.8553 0
M  V30 23 N 1.1035 0.5333 -3.4734 0
M  V30 24 C 0.9036 1.5852 -1.282 0
M  V30 25 O 3.0673 -0.4754 -2.875 0
M  V30 26 C 2.2788 0.1031 -3.8024 0
M  V30 27 O 1.3 1.689 -0.1161 0
M  V30 28 C 0.2798 2.7634 -2.0267 0
M  V30 29 C 2.8645 0.178 -5.1649 0
M  V30 30 O -0.0497 3.7985 -1.0973 0
M  V30 31 C -0.5693 4.9123 -1.6758 0
M  V30 32 O -0.7505 5.0654 -2.8751 0
M  V30 33 C -0.8915 5.9345 -0.6297 0
M  V30 34 H -0.9668 1.0998 0.4675 0
M  V30 35 H 1.1418 -0.5219 0.9255 0
M  V30 36 H -2.9658 0.5234 2.902 0
M  V30 37 H -0.1606 0.8743 4.2093 0
M  V30 38 H -0.6919 1.5886 2.6889 0
M  V30 39 H 0.8091 0.6705 2.7545 0
M  V30 40 H -3.3667 -0.3726 0.6026 0
M  V30 41 H -1.8128 0.6121 -1.7765 0
M  V30 42 H -2.263 -0.9854 -1.2994 0
M  V30 43 H 0.0247 -2.7744 -0.7889 0
M  V30 44 H 2.0102 -2.796 1.3838 0
M  V30 45 H 0.3734 -3.4198 1.5063 0
M  V30 46 H -0.551 -3.2854 5.07 0
M  V30 47 H 1.3551 -3.0386 3.7147 0
M  V30 48 H 1.7121 -1.3636 3.3422 0
M  V30 49 H -4.0545 -0.7694 4.6234 0
M  V30 50 H 1.9857 -2.5754 -2.1109 0
M  V30 51 H 2.6692 -2.2743 -0.5356 0
M  V30 52 H -1.2321 -2.4088 -2.7584 0
M  V30 53 H -1.0619 -0.9348 -3.7139 0
M  V30 54 H 0.3134 -2.0287 -3.5049 0
M  V30 55 H 2.8912 0.0242 -0.8962 0
M  V30 56 H 1.0141 3.1348 -2.7498 0
M  V30 57 H -0.6327 2.4299 -2.5292 0
M  V30 58 H 3.0351 -0.8326 -5.5445 0
M  V30 59 H 3.8125 0.7209 -5.1273 0
M  V30 60 H 2.1822 0.7016 -5.8401 0
M  V30 61 H -1.6317 5.5318 0.0664 0
M  V30 62 H 0.0197 6.2221 -0.0993 0
M  V30 63 H -1.3114 6.8236 -1.1088 0
M  V30 END ATOM
M  V30 BEGIN BOND
M  V30 1 1 1 2
M  V30 2 1 2 3
M  V30 3 1 2 4
M  V30 4 1 2 5
M  V30 5 1 3 6
M  V30 6 1 3 7
M  V30 7 1 3 8
M  V30 8 1 4 9
M  V30 9 1 4 10
M  V30 10 1 5 11
M  V30 11 1 5 12
M  V30 12 2 6 13
M  V30 13 1 6 14
M  V30 14 2 7 15
M  V30 15 1 10 16
M  V30 16 1 11 17
M  V30 17 1 13 18
M  V30 18 1 16 19
M  V30 19 1 16 20
M  V30 20 1 17 21
M  V30 21 2 18 22
M  V30 22 1 19 23
M  V30 23 1 19 24
M  V30 24 1 21 25
M  V30 25 2 23 26
M  V30 26 2 24 27
M  V30 27 1 24 28
M  V30 28 1 26 29
M  V30 29 1 28 30
M  V30 30 1 30 31
M  V30 31 2 31 32
M  V30 32 1 31 33
M  V30 33 1 11 16
M  V30 34 1 12 14
M  V30 35 1 15 18
M  V30 36 1 19 21
M  V30 37 1 25 26
M  V30 38 1 4 34
M  V30 39 1 5 35
M  V30 40 1 7 36
M  V30 41 1 8 37
M  V30 42 1 8 38
M  V30 43 1 8 39
M  V30 44 1 9 40
M  V30 45 1 10 41
M  V30 46 1 10 42
M  V30 47 1 11 43
M  V30 48 1 12 44
M  V30 49 1 12 45
M  V30 50 1 13 46
M  V30 51 1 14 47
M  V30 52 1 14 48
M  V30 53 1 15 49
M  V30 54 1 17 50
M  V30 55 1 17 51
M  V30 56 1 20 52
M  V30 57 1 20 53
M  V30 58 1 20 54
M  V30 59 1 21 55
M  V30 60 1 28 56
M  V30 61 1 28 57
M  V30 62 1 29 58
M  V30 63 1 29 59
M  V30 64 1 29 60
M  V30 65 1 33 61
M  V30 66 1 33 62
M  V30 67 1 33 63
M  V30 END BOND
M  V30 BEGIN COLLECTION
M  V30 MDLV30/STEABS ATOMS=(1 2)
M  V30 END COLLECTION
M  V30 END CTAB
M  END
>  <NO.>
1161

>  <Name>
fluazacort

>  <SMILES>
CC(=O)OCC(=O)C12N=C(C)OC1CC1C3CCC4=CC(=O)C=CC4(C)[C@@]3(F)C(O)CC12C

>  <logBB>


>  <Class>
1

>  <MW>
459.21

>  <nHBAcc>
7

>  <nHBDon>
1

>  <SLogP>
2.66

>  <TopoPSA>
102.26

>  <MMFF94 Energy>
148.08

$$$$
CC(=O)OCC(=O)OCC/C(SC(=O)c1ccco1)=C(/C)N(C=O)Cc1cnc(C)nc1N
Actelion Java MolfileCreator 2.0

  0  0  0  0  0  0              0 V3000
M  V30 BEGIN CTAB
M  V30 COUNTS 57 58 0 0 0
M  V30 BEGIN ATOM
M  V30 1 S -1.6794 0.6395 1.9995 0
M  V30 2 C -0.9659 2.1785 2.5239 0
M  V30 3 C -0.3545 -0.0301 1.051 0
M  V30 4 O 0.1882 2.468 2.2208 0
M  V30 5 C -1.8596 3.0064 3.3064 0
M  V30 6 C -0.197 0.3067 -0.2535 0
M  V30 7 C 0.5807 -0.9594 1.8166 0
M  V30 8 O -1.3723 4.2139 3.7448 0
M  V30 9 C -3.1673 2.8736 3.7495 0
M  V30 10 N 0.9157 -0.1132 -0.9763 0
M  V30 11 C -1.1752 1.1455 -1.0497 0
M  V30 12 C -0.0072 -2.3586 2.021 0
M  V30 13 C -2.3545 4.828 4.4489 0
M  V30 14 C -3.4813 4.045 4.4824 0
M  V30 15 C 0.7994 -1.0819 -1.9618 0
M  V30 16 C 2.1978 0.5878 -0.8033 0
M  V30 17 O -0.111 -3.0198 0.7497 0
M  V30 18 O 1.6986 -1.4688 -2.6974 0
M  V30 19 C 2.2609 1.8835 -1.5566 0
M  V30 20 C -0.5917 -4.2967 0.822 0
M  V30 21 C 2.2506 3.1312 -0.9616 0
M  V30 22 C 2.3562 1.8922 -2.9365 0
M  V30 23 O -0.9067 -4.862 1.8604 0
M  V30 24 C -0.6829 -4.8851 -0.5748 0
M  V30 25 N 2.3507 4.2687 -1.6678 0
M  V30 26 N 2.2012 3.3114 0.4044 0
M  V30 27 N 2.4335 3.0088 -3.6827 0
M  V30 28 O -1.1537 -6.2332 -0.5203 0
M  V30 29 C 2.4423 4.1657 -3.005 0
M  V30 30 C -1.4333 -6.767 -1.737 0
M  V30 31 C 2.5137 5.4342 -3.7948 0
M  V30 32 O -1.3164 -6.1843 -2.8051 0
M  V30 33 C -1.9105 -8.1783 -1.5856 0
M  V30 34 H 1.5387 -1.0718 1.3003 0
M  V30 35 H 0.8167 -0.517 2.7928 0
M  V30 36 H -3.8262 2.0345 3.57 0
M  V30 37 H -2.2145 0.8974 -0.8133 0
M  V30 38 H -1.0601 0.9868 -2.1276 0
M  V30 39 H -1.0073 2.2096 -0.8535 0
M  V30 40 H 0.6685 -2.9332 2.6657 0
M  V30 41 H -0.9946 -2.3103 2.4945 0
M  V30 42 H -2.1024 5.7983 4.855 0
M  V30 43 H -4.4133 4.2884 4.9738 0
M  V30 44 H -0.2176 -1.5067 -2.0233 0
M  V30 45 H 2.3813 0.7407 0.2653 0
M  V30 46 H 3.0134 -0.0589 -1.1506 0
M  V30 47 H 2.3816 0.9666 -3.5072 0
M  V30 48 H -1.3801 -4.266 -1.1509 0
M  V30 49 H 0.3177 -4.8737 -1.0196 0
M  V30 50 H 1.5321 2.7812 0.959 0
M  V30 51 H 2.2571 4.2898 0.6621 0
M  V30 52 H 3.0176 6.2177 -3.2207 0
M  V30 53 H 3.0704 5.2792 -4.7239 0
M  V30 54 H 1.5029 5.7721 -4.0412 0
M  V30 55 H -1.1323 -8.7843 -1.115 0
M  V30 56 H -2.8269 -8.1979 -0.9904 0
M  V30 57 H -2.1271 -8.5954 -2.5732 0
M  V30 END ATOM
M  V30 BEGIN BOND
M  V30 1 1 1 2
M  V30 2 1 1 3
M  V30 3 2 2 4
M  V30 4 1 2 5
M  V30 5 2 3 6
M  V30 6 1 3 7
M  V30 7 1 5 8
M  V30 8 2 5 9
M  V30 9 1 6 10
M  V30 10 1 6 11
M  V30 11 1 7 12
M  V30 12 1 8 13
M  V30 13 1 9 14
M  V30 14 1 10 15
M  V30 15 1 10 16
M  V30 16 1 12 17
M  V30 17 2 15 18
M  V30 18 1 16 19
M  V30 19 1 17 20
M  V30 20 2 19 21
M  V30 21 1 19 22
M  V30 22 2 20 23
M  V30 23 1 20 24
M  V30 24 1 21 25
M  V30 25 1 21 26
M  V30 26 2 22 27
M  V30 27 1 24 28
M  V30 28 2 25 29
M  V30 29 1 28 30
M  V30 30 1 29 31
M  V30 31 2 30 32
M  V30 32 1 30 33
M  V30 33 2 13 14
M  V30 34 1 27 29
M  V30 35 1 7 34
M  V30 36 1 7 35
M  V30 37 1 9 36
M  V30 38 1 11 37
M  V30 39 1 11 38
M  V30 40 1 11 39
M  V30 41 1 12 40
M  V30 42 1 12 41
M  V30 43 1 13 42
M  V30 44 1 14 43
M  V30 45 1 15 44
M  V30 46 1 16 45
M  V30 47 1 16 46
M  V30 48 1 22 47
M  V30 49 1 24 48
M  V30 50 1 24 49
M  V30 51 1 26 50
M  V30 52 1 26 51
M  V30 53 1 31 52
M  V30 54 1 31 53
M  V30 55 1 31 54
M  V30 56 1 33 55
M  V30 57 1 33 56
M  V30 58 1 33 57
M  V30 END BOND
M  V30 END CTAB
M  END
>  <NO.>
1162

>  <Name>
acefurtiamine

>  <SMILES>
CC(=O)OCC(=O)OCC/C(SC(=O)c1ccco1)=C(/C)N(C=O)Cc1cnc(C)nc1N

>  <logBB>


>  <Class>
1

>  <MW>
476.14

>  <nHBAcc>
11

>  <nHBDon>
1

>  <SLogP>
2.22

>  <TopoPSA>
154.92

>  <MMFF94 Energy>
3.4696

$$$$
CC(=O)OCC(=O)[C@@]1(O)CCC2C3CCC4=CC(=O)C=CC4(C)[C@@]3(Cl)C(Cl)CC21C
Actelion Java MolfileCreator 2.0

  0  0  0  0  0  0              0 V3000
M  V30 BEGIN CTAB
M  V30 COUNTS 58 61 0 0 0
M  V30 BEGIN ATOM
M  V30 1 Cl 0.3284 2.4653 1.8074 0
M  V30 2 C 1.3186 0.9431 1.574 0 CFG=2
M  V30 3 C 2.1931 0.7195 2.9214 0
M  V30 4 C 2.1325 1.0809 0.2391 0
M  V30 5 C 0.3416 -0.2881 1.3767 0
M  V30 6 C 1.2356 0.3459 4.081 0
M  V30 7 C 3.0518 1.9223 3.3293 0
M  V30 8 C 3.2163 -0.4343 2.7575 0
M  V30 9 Cl 3.2432 2.4929 0.1506 0
M  V30 10 C 1.2416 1.1639 -1.0166 0
M  V30 11 C -0.503 -0.3319 0.0797 0
M  V30 12 C -0.537 -0.5794 2.6068 0
M  V30 13 C 1.1534 1.0276 5.2386 0
M  V30 14 C 0.3078 -0.8166 3.8495 0
M  V30 15 C 2.9635 2.5953 4.4847 0
M  V30 16 C 0.2794 -0.0396 -1.2176 0
M  V30 17 C -1.7741 0.5373 0.014 0
M  V30 18 C 1.9943 2.2056 5.5205 0
M  V30 19 C -0.8591 0.3114 -2.2369 0 CFG=1
M  V30 20 C 1.1279 -1.2461 -1.6715 0
M  V30 21 C -1.8245 1.1497 -1.3868 0
M  V30 22 O 1.9032 2.8176 6.5766 0
M  V30 23 O -0.3556 1.1076 -3.3033 0
M  V30 24 C -1.6748 -0.8781 -2.8219 0
M  V30 25 O -1.7781 -1.9576 -2.2356 0
M  V30 26 C -2.3945 -0.6113 -4.1443 0
M  V30 27 O -3.2394 -1.712 -4.4839 0
M  V30 28 C -3.8559 -1.5828 -5.6869 0
M  V30 29 O -3.7271 -0.6332 -6.446 0
M  V30 30 C -4.7208 -2.7754 -5.9555 0
M  V30 31 H 2.7908 0.2145 0.1359 0
M  V30 32 H 0.9969 -1.165 1.2761 0
M  V30 33 H 3.8384 2.244 2.6546 0
M  V30 34 H 2.7591 -1.3727 2.4331 0
M  V30 35 H 3.7287 -0.6469 3.7052 0
M  V30 36 H 3.9951 -0.1859 2.0273 0
M  V30 37 H 0.6776 2.1033 -0.9877 0
M  V30 38 H 1.886 1.2461 -1.9036 0
M  V30 39 H -0.8664 -1.3689 0.0192 0
M  V30 40 H -1.1452 -1.4743 2.4253 0
M  V30 41 H -1.2413 0.2398 2.7914 0
M  V30 42 H 0.4588 0.7645 6.0289 0
M  V30 43 H 0.8882 -1.7401 3.7442 0
M  V30 44 H -0.3601 -0.9757 4.7049 0
M  V30 45 H 3.6072 3.4344 4.7196 0
M  V30 46 H -2.6532 -0.1012 0.1682 0
M  V30 47 H -1.8353 1.3179 0.772 0
M  V30 48 H 1.5785 -1.0618 -2.6525 0
M  V30 49 H 1.9402 -1.462 -0.9713 0
M  V30 50 H 0.5459 -2.168 -1.7439 0
M  V30 51 H -1.5131 2.2005 -1.3543 0
M  V30 52 H -2.85 1.1513 -1.7725 0
M  V30 53 H 0.4098 0.654 -3.6987 0
M  V30 54 H -3.0049 0.2908 -4.0351 0
M  V30 55 H -1.6339 -0.4798 -4.9214 0
M  V30 56 H -4.107 -3.6791 -5.9848 0
M  V30 57 H -5.49 -2.8569 -5.1834 0
M  V30 58 H -5.2119 -2.6557 -6.9253 0
M  V30 END ATOM
M  V30 BEGIN BOND
M  V30 1 1 1 2
M  V30 2 1 2 3
M  V30 3 1 2 4
M  V30 4 1 2 5
M  V30 5 1 3 6
M  V30 6 1 3 7
M  V30 7 1 3 8
M  V30 8 1 4 9
M  V30 9 1 4 10
M  V30 10 1 5 11
M  V30 11 1 5 12
M  V30 12 2 6 13
M  V30 13 1 6 14
M  V30 14 2 7 15
M  V30 15 1 10 16
M  V30 16 1 11 17
M  V30 17 1 13 18
M  V30 18 1 16 19
M  V30 19 1 16 20
M  V30 20 1 17 21
M  V30 21 2 18 22
M  V30 22 1 19 23
M  V30 23 1 19 24
M  V30 24 2 24 25
M  V30 25 1 24 26
M  V30 26 1 26 27
M  V30 27 1 27 28
M  V30 28 2 28 29
M  V30 29 1 28 30
M  V30 30 1 11 16
M  V30 31 1 12 14
M  V30 32 1 15 18
M  V30 33 1 19 21
M  V30 34 1 4 31
M  V30 35 1 5 32
M  V30 36 1 7 33
M  V30 37 1 8 34
M  V30 38 1 8 35
M  V30 39 1 8 36
M  V30 40 1 10 37
M  V30 41 1 10 38
M  V30 42 1 11 39
M  V30 43 1 12 40
M  V30 44 1 12 41
M  V30 45 1 13 42
M  V30 46 1 14 43
M  V30 47 1 14 44
M  V30 48 1 15 45
M  V30 49 1 17 46
M  V30 50 1 17 47
M  V30 51 1 20 48
M  V30 52 1 20 49
M  V30 53 1 20 50
M  V30 54 1 21 51
M  V30 55 1 21 52
M  V30 56 1 23 53
M  V30 57 1 26 54
M  V30 58 1 26 55
M  V30 59 1 30 56
M  V30 60 1 30 57
M  V30 61 1 30 58
M  V30 END BOND
M  V30 BEGIN COLLECTION
M  V30 MDLV30/STEABS ATOMS=(2 2 19)
M  V30 END COLLECTION
M  V30 END CTAB
M  END
>  <NO.>
1163

>  <Name>
dichlorisone-acetate

>  <SMILES>
CC(=O)OCC(=O)[C@@]1(O)CCC2C3CCC4=CC(=O)C=CC4(C)[C@@]3(Cl)C(Cl)CC21C

>  <logBB>


>  <Class>
1

>  <MW>
454.13

>  <nHBAcc>
5

>  <nHBDon>
1

>  <SLogP>
3.74

>  <TopoPSA>
80.67

>  <MMFF94 Energy>
140.81

$$$$
CC(=O)OCC(=O)[C@@]1(O)CC[C@H]2[C@@H]3CCC4=CC(=O)C=C[C@]4(C)[C@@]3(F)[C@@H](O)C[C@@]21C
Actelion Java MolfileCreator 2.0

  0  0  0  0  0  0              0 V3000
M  V30 BEGIN CTAB
M  V30 COUNTS 59 62 0 0 0
M  V30 BEGIN ATOM
M  V30 1 F -1.2947 -0.4044 -2.1046 0
M  V30 2 C -1.3824 0.6194 -1.1707 0 CFG=2
M  V30 3 C -2.4838 1.6173 -1.7178 0 CFG=2
M  V30 4 C 0.0695 1.1895 -1.0843 0 CFG=1
M  V30 5 C -1.8196 -0.075 0.1622 0 CFG=2
M  V30 6 C -3.8163 0.8502 -1.7894 0
M  V30 7 C -2.0917 2.1586 -3.0912 0
M  V30 8 C -2.7073 2.857 -0.8213 0
M  V30 9 O 0.1974 2.4403 -0.4185 0
M  V30 10 C 1.0946 0.1853 -0.504 0
M  V30 11 C -0.7483 -1.1037 0.5657 0 CFG=1
M  V30 12 C -3.1888 -0.7644 0.0029 0
M  V30 13 C -4.5397 0.7163 -2.9156 0
M  V30 14 C -4.2643 0.1858 -0.5128 0
M  V30 15 C -2.8155 2.0214 -4.2103 0
M  V30 16 C 0.6499 -0.49 0.8108 0 CFG=1
M  V30 17 C -0.9835 -1.9548 1.8098 0
M  V30 18 C -4.1029 1.3021 -4.1994 0
M  V30 19 C 1.4339 -1.7807 1.2441 0 CFG=1
M  V30 20 C 0.6648 0.5391 1.9755 0
M  V30 21 C 0.4108 -2.5103 2.1666 0
M  V30 22 O -4.7823 1.1957 -5.2124 0
M  V30 23 O 1.6449 -2.6749 0.1475 0
M  V30 24 C 2.7658 -1.4997 1.9907 0
M  V30 25 O 2.8017 -1.2794 3.2042 0
M  V30 26 C 4.0269 -1.462 1.1352 0
M  V30 27 O 5.1542 -1.0278 1.894 0
M  V30 28 C 6.2894 -0.8997 1.1592 0
M  V30 29 O 6.3742 -1.11 -0.0425 0
M  V30 30 C 7.4247 -0.4582 2.0302 0
M  V30 31 H 0.41 1.3794 -2.1092 0
M  V30 32 H -1.923 0.6757 0.9518 0
M  V30 33 H -1.1616 2.7205 -3.1588 0
M  V30 34 H -1.8993 3.5904 -0.9141 0
M  V30 35 H -2.7966 2.6 0.2384 0
M  V30 36 H -3.6286 3.3858 -1.1005 0
M  V30 37 H -0.3341 2.4473 0.392 0
M  V30 38 H 2.057 0.6886 -0.3523 0
M  V30 39 H 1.2531 -0.574 -1.2776 0
M  V30 40 H -0.6747 -1.8135 -0.274 0
M  V30 41 H -3.5172 -1.1712 0.9668 0
M  V30 42 H -3.0995 -1.6167 -0.6836 0
M  V30 43 H -5.4702 0.1611 -2.9557 0
M  V30 44 H -5.1933 -0.3781 -0.6614 0
M  V30 45 H -4.4873 0.9476 0.2432 0
M  V30 46 H -2.5021 2.4333 -5.1619 0
M  V30 47 H -1.6936 -2.7669 1.6226 0
M  V30 48 H -1.3786 -1.3545 2.6373 0
M  V30 49 H 1.6194 1.0769 2.0037 0
M  V30 50 H -0.1269 1.2838 1.9085 0
M  V30 51 H 0.5328 0.069 2.9554 0
M  V30 52 H 0.5953 -2.3452 3.2334 0
M  V30 53 H 0.4313 -3.5944 2.0018 0
M  V30 54 H 2.0965 -2.2253 -0.5846 0
M  V30 55 H 4.2129 -2.4744 0.7609 0
M  V30 56 H 3.8542 -0.7664 0.3079 0
M  V30 57 H 7.1996 0.5185 2.4657 0
M  V30 58 H 7.5998 -1.1987 2.8148 0
M  V30 59 H 8.332 -0.3704 1.4257 0
M  V30 END ATOM
M  V30 BEGIN BOND
M  V30 1 1 1 2
M  V30 2 1 2 3
M  V30 3 1 2 4
M  V30 4 1 2 5
M  V30 5 1 3 6
M  V30 6 1 3 7
M  V30 7 1 3 8
M  V30 8 1 4 9
M  V30 9 1 4 10
M  V30 10 1 5 11
M  V30 11 1 5 12
M  V30 12 2 6 13
M  V30 13 1 6 14
M  V30 14 2 7 15
M  V30 15 1 10 16
M  V30 16 1 11 17
M  V30 17 1 13 18
M  V30 18 1 16 19
M  V30 19 1 16 20
M  V30 20 1 17 21
M  V30 21 2 18 22
M  V30 22 1 19 23
M  V30 23 1 19 24
M  V30 24 2 24 25
M  V30 25 1 24 26
M  V30 26 1 26 27
M  V30 27 1 27 28
M  V30 28 2 28 29
M  V30 29 1 28 30
M  V30 30 1 11 16
M  V30 31 1 12 14
M  V30 32 1 15 18
M  V30 33 1 19 21
M  V30 34 1 4 31
M  V30 35 1 5 32
M  V30 36 1 7 33
M  V30 37 1 8 34
M  V30 38 1 8 35
M  V30 39 1 8 36
M  V30 40 1 9 37
M  V30 41 1 10 38
M  V30 42 1 10 39
M  V30 43 1 11 40
M  V30 44 1 12 41
M  V30 45 1 12 42
M  V30 46 1 13 43
M  V30 47 1 14 44
M  V30 48 1 14 45
M  V30 49 1 15 46
M  V30 50 1 17 47
M  V30 51 1 17 48
M  V30 52 1 20 49
M  V30 53 1 20 50
M  V30 54 1 20 51
M  V30 55 1 21 52
M  V30 56 1 21 53
M  V30 57 1 23 54
M  V30 58 1 26 55
M  V30 59 1 26 56
M  V30 60 1 30 57
M  V30 61 1 30 58
M  V30 62 1 30 59
M  V30 END BOND
M  V30 BEGIN COLLECTION
M  V30 MDLV30/STEABS ATOMS=(7 2 3 4 5 11 16 19)
M  V30 END COLLECTION
M  V30 END CTAB
M  END
>  <NO.>
1164

>  <Name>
isoflupredone-acetate

>  <SMILES>
CC(=O)OCC(=O)[C@@]1(O)CC[C@H]2[C@@H]3CCC4=CC(=O)C=C[C@]4(C)[C@@]3(F)[C@@H](O)C[C@@]21C

>  <logBB>


>  <Class>
1

>  <MW>
420.19

>  <nHBAcc>
6

>  <nHBDon>
2

>  <SLogP>
2.22

>  <TopoPSA>
100.9

>  <MMFF94 Energy>
156.61

$$$$
CC(=O)OCC(=O)[C@@]1(O)CC[C@H]2[C@@H]3CCC4=CC(=O)C=C[C@]4(C)[C@H]3[C@@H](O)C[C@@]21C
Actelion Java MolfileCreator 2.0

  0  0  0  0  0  0              0 V3000
M  V30 BEGIN CTAB
M  V30 COUNTS 59 62 0 0 0
M  V30 BEGIN ATOM
M  V30 1 O -0.0805 5.328 -4.681 0
M  V30 2 C -0.4578 4.4119 -3.9619 0
M  V30 3 C -0.4719 3.0147 -4.4403 0
M  V30 4 C -0.9081 4.6567 -2.5792 0
M  V30 5 C -0.8892 2.0012 -3.6607 0
M  V30 6 C -1.3255 3.6488 -1.8019 0
M  V30 7 C -1.3935 2.1855 -2.2222 0 CFG=2
M  V30 8 C -0.8306 0.581 -4.1607 0
M  V30 9 C -0.4698 1.3084 -1.2919 0 CFG=1
M  V30 10 C -2.8875 1.7954 -2.1861 0
M  V30 11 C 0.0554 -0.2605 -3.2506 0
M  V30 12 C -0.7386 1.4125 0.2395 0 CFG=1
M  V30 13 C -0.3687 -0.1806 -1.7714 0 CFG=1
M  V30 14 O -2.0887 1.1757 0.6057 0
M  V30 15 C 0.186 0.5172 1.0954 0
M  V30 16 C 0.6495 -0.9165 -0.8835 0 CFG=1
M  V30 17 C 0.2732 -0.9478 0.6162 0 CFG=1
M  V30 18 C 0.9736 -2.3721 -1.1987 0
M  V30 19 C 1.4669 -1.8021 1.1741 0 CFG=1
M  V30 20 C -1.0638 -1.689 0.8926 0
M  V30 21 C 1.645 -2.9024 0.0838 0
M  V30 22 O 2.6951 -1.067 1.1647 0
M  V30 23 C 1.2085 -2.4338 2.57 0
M  V30 24 O 0.6409 -3.5211 2.7025 0
M  V30 25 C 1.6549 -1.6168 3.7768 0
M  V30 26 O 1.2155 -2.2092 4.9975 0
M  V30 27 C 1.5364 -1.485 6.1009 0
M  V30 28 O 2.1322 -0.4169 6.0893 0
M  V30 29 C 1.0528 -2.1786 7.3366 0
M  V30 30 H -0.1075 2.8691 -5.4508 0
M  V30 31 H -0.8935 5.6859 -2.242 0
M  V30 32 H -1.6761 3.8959 -0.801 0
M  V30 33 H -0.436 0.5338 -5.1829 0
M  V30 34 H -1.8403 0.1573 -4.2037 0
M  V30 35 H 0.5478 1.7187 -1.4143 0
M  V30 36 H -3.0422 0.7157 -2.2715 0
M  V30 37 H -3.4382 2.2645 -3.0123 0
M  V30 38 H -3.3825 2.1258 -1.2666 0
M  V30 39 H 1.0971 0.0711 -3.3555 0
M  V30 40 H 0.0215 -1.3012 -3.5937 0
M  V30 41 H -0.5338 2.4418 0.5554 0
M  V30 42 H -1.3487 -0.6609 -1.6873 0
M  V30 43 H -2.4651 0.4844 0.0398 0
M  V30 44 H 1.1783 0.9804 1.064 0
M  V30 45 H -0.1439 0.5429 2.1407 0
M  V30 46 H 1.5981 -0.3653 -0.9914 0
M  V30 47 H 0.0664 -2.9455 -1.4203 0
M  V30 48 H 1.6427 -2.4668 -2.0601 0
M  V30 49 H -1.3766 -1.5458 1.9333 0
M  V30 50 H -0.9882 -2.7684 0.7261 0
M  V30 51 H -1.8849 -1.3583 0.2585 0
M  V30 52 H 1.1846 -3.8588 0.3528 0
M  V30 53 H 2.7064 -3.1002 -0.1081 0
M  V30 54 H 2.6134 -0.2581 1.6953 0
M  V30 55 H 2.7493 -1.575 3.77 0
M  V30 56 H 1.2269 -0.6138 3.6854 0
M  V30 57 H -0.0353 -2.2744 7.3059 0
M  V30 58 H 1.524 -3.1612 7.4185 0
M  V30 59 H 1.3265 -1.5869 8.2148 0
M  V30 END ATOM
M  V30 BEGIN BOND
M  V30 1 2 1 2
M  V30 2 1 2 3
M  V30 3 1 2 4
M  V30 4 2 3 5
M  V30 5 2 4 6
M  V30 6 1 5 7
M  V30 7 1 5 8
M  V30 8 1 7 9
M  V30 9 1 7 10
M  V30 10 1 8 11
M  V30 11 1 9 12
M  V30 12 1 9 13
M  V30 13 1 12 14
M  V30 14 1 12 15
M  V30 15 1 13 16
M  V30 16 1 15 17
M  V30 17 1 16 18
M  V30 18 1 17 19
M  V30 19 1 17 20
M  V30 20 1 18 21
M  V30 21 1 19 22
M  V30 22 1 19 23
M  V30 23 2 23 24
M  V30 24 1 23 25
M  V30 25 1 25 26
M  V30 26 1 26 27
M  V30 27 2 27 28
M  V30 28 1 27 29
M  V30 29 1 6 7
M  V30 30 1 11 13
M  V30 31 1 16 17
M  V30 32 1 19 21
M  V30 33 1 3 30
M  V30 34 1 4 31
M  V30 35 1 6 32
M  V30 36 1 8 33
M  V30 37 1 8 34
M  V30 38 1 9 35
M  V30 39 1 10 36
M  V30 40 1 10 37
M  V30 41 1 10 38
M  V30 42 1 11 39
M  V30 43 1 11 40
M  V30 44 1 12 41
M  V30 45 1 13 42
M  V30 46 1 14 43
M  V30 47 1 15 44
M  V30 48 1 15 45
M  V30 49 1 16 46
M  V30 50 1 18 47
M  V30 51 1 18 48
M  V30 52 1 20 49
M  V30 53 1 20 50
M  V30 54 1 20 51
M  V30 55 1 21 52
M  V30 56 1 21 53
M  V30 57 1 22 54
M  V30 58 1 25 55
M  V30 59 1 25 56
M  V30 60 1 29 57
M  V30 61 1 29 58
M  V30 62 1 29 59
M  V30 END BOND
M  V30 BEGIN COLLECTION
M  V30 MDLV30/STEABS ATOMS=(7 7 9 12 13 16 17 19)
M  V30 END COLLECTION
M  V30 END CTAB
M  END
>  <NO.>
1165

>  <Name>
prednisolone acetate

>  <SMILES>
CC(=O)OCC(=O)[C@@]1(O)CC[C@H]2[C@@H]3CCC4=CC(=O)C=C[C@]4(C)[C@H]3[C@@H](O)C[C@@]21C

>  <logBB>


>  <Class>
1

>  <MW>
402.2

>  <nHBAcc>
6

>  <nHBDon>
2

>  <SLogP>
2.13

>  <TopoPSA>
100.9

>  <MMFF94 Energy>
118.3

$$$$
CC(=O)OCC(=O)[C@@]1(O)CC[C@H]2[C@@H]3CCC4=CC(=O)CC[C@]4(C)[C@@]3(F)[C@@H](O)C[C@@]21C
Actelion Java MolfileCreator 2.0

  0  0  0  0  0  0              0 V3000
M  V30 BEGIN CTAB
M  V30 COUNTS 61 64 0 0 0
M  V30 BEGIN ATOM
M  V30 1 F -2.3438 -0.4846 0.0807 0
M  V30 2 C -1.5082 0.245 -0.7537 0 CFG=2
M  V30 3 C -2.4123 0.7081 -1.9707 0 CFG=2
M  V30 4 C -0.356 -0.7434 -1.1167 0 CFG=1
M  V30 5 C -1.0123 1.4435 0.1111 0 CFG=2
M  V30 6 C -3.513 1.6577 -1.4619 0
M  V30 7 C -3.0616 -0.5559 -2.6107 0
M  V30 8 C -1.6322 1.4759 -3.0632 0
M  V30 9 O 0.4876 -0.2476 -2.1511 0
M  V30 10 C 0.5165 -1.136 0.0971 0
M  V30 11 C -0.2069 0.9047 1.3048 0 CFG=1
M  V30 12 C -2.2099 2.2752 0.6023 0
M  V30 13 C -4.8089 1.5556 -1.8082 0
M  V30 14 C -3.065 2.7769 -0.5533 0
M  V30 15 C -4.2315 -0.2458 -3.5332 0
M  V30 16 C 1.0397 0.0791 0.8972 0 CFG=1
M  V30 17 C 0.3389 1.9041 2.3159 0
M  V30 18 C -5.2723 0.5653 -2.8073 0
M  V30 19 C 1.6356 -0.2203 2.3119 0 CFG=1
M  V30 20 C 2.0638 0.8966 0.0649 0
M  V30 21 C 1.421 1.1194 3.0791 0
M  V30 22 O -6.4694 0.4881 -3.0728 0
M  V30 23 O 0.8585 -1.2321 2.9639 0
M  V30 24 C 3.1112 -0.6846 2.3408 0
M  V30 25 O 3.985 -0.0267 2.9123 0
M  V30 26 C 3.4311 -2.0073 1.651 0
M  V30 27 O 4.7201 -2.4819 2.0445 0
M  V30 28 C 5.1509 -3.5547 1.3314 0
M  V30 29 O 4.5255 -4.0986 0.432 0
M  V30 30 C 6.5067 -3.9803 1.8041 0
M  V30 31 H -0.8041 -1.6703 -1.4936 0
M  V30 32 H -0.3773 2.1009 -0.491 0
M  V30 33 H -2.3143 -1.1281 -3.1736 0
M  V30 34 H -3.4296 -1.2242 -1.8202 0
M  V30 35 H -2.3098 2.0015 -3.7476 0
M  V30 36 H -0.9611 2.2309 -2.6425 0
M  V30 37 H -1.0332 0.805 -3.6863 0
M  V30 38 H 1.0741 -0.9747 -2.4276 0
M  V30 39 H 1.3568 -1.7451 -0.2506 0
M  V30 40 H -0.0898 -1.7789 0.7472 0
M  V30 41 H -0.8903 0.249 1.869 0
M  V30 42 H -2.8301 1.6793 1.2847 0
M  V30 43 H -1.857 3.1418 1.1738 0
M  V30 44 H -5.5746 2.225 -1.4313 0
M  V30 45 H -2.4913 3.5032 -1.1424 0
M  V30 46 H -3.9237 3.3238 -0.1443 0
M  V30 47 H -4.6898 -1.1856 -3.8606 0
M  V30 48 H -3.9119 0.3062 -4.4227 0
M  V30 49 H 0.7771 2.7777 1.8201 0
M  V30 50 H -0.4377 2.2665 2.9974 0
M  V30 51 H 2.5596 1.6727 0.6573 0
M  V30 52 H 1.6149 1.4068 -0.7892 0
M  V30 53 H 2.8518 0.2472 -0.3304 0
M  V30 54 H 1.0944 0.9443 4.1107 0
M  V30 55 H 2.3262 1.7345 3.125 0
M  V30 56 H 1.0678 -1.2059 3.9163 0
M  V30 57 H 2.6812 -2.7513 1.9366 0
M  V30 58 H 3.421 -1.8336 0.5717 0
M  V30 59 H 7.2214 -3.1659 1.6616 0
M  V30 60 H 6.458 -4.2704 2.8567 0
M  V30 61 H 6.8398 -4.8427 1.2198 0
M  V30 END ATOM
M  V30 BEGIN BOND
M  V30 1 1 1 2
M  V30 2 1 2 3
M  V30 3 1 2 4
M  V30 4 1 2 5
M  V30 5 1 3 6
M  V30 6 1 3 7
M  V30 7 1 3 8
M  V30 8 1 4 9
M  V30 9 1 4 10
M  V30 10 1 5 11
M  V30 11 1 5 12
M  V30 12 2 6 13
M  V30 13 1 6 14
M  V30 14 1 7 15
M  V30 15 1 10 16
M  V30 16 1 11 17
M  V30 17 1 13 18
M  V30 18 1 16 19
M  V30 19 1 16 20
M  V30 20 1 17 21
M  V30 21 2 18 22
M  V30 22 1 19 23
M  V30 23 1 19 24
M  V30 24 2 24 25
M  V30 25 1 24 26
M  V30 26 1 26 27
M  V30 27 1 27 28
M  V30 28 2 28 29
M  V30 29 1 28 30
M  V30 30 1 11 16
M  V30 31 1 12 14
M  V30 32 1 15 18
M  V30 33 1 19 21
M  V30 34 1 4 31
M  V30 35 1 5 32
M  V30 36 1 7 33
M  V30 37 1 7 34
M  V30 38 1 8 35
M  V30 39 1 8 36
M  V30 40 1 8 37
M  V30 41 1 9 38
M  V30 42 1 10 39
M  V30 43 1 10 40
M  V30 44 1 11 41
M  V30 45 1 12 42
M  V30 46 1 12 43
M  V30 47 1 13 44
M  V30 48 1 14 45
M  V30 49 1 14 46
M  V30 50 1 15 47
M  V30 51 1 15 48
M  V30 52 1 17 49
M  V30 53 1 17 50
M  V30 54 1 20 51
M  V30 55 1 20 52
M  V30 56 1 20 53
M  V30 57 1 21 54
M  V30 58 1 21 55
M  V30 59 1 23 56
M  V30 60 1 26 57
M  V30 61 1 26 58
M  V30 62 1 30 59
M  V30 63 1 30 60
M  V30 64 1 30 61
M  V30 END BOND
M  V30 BEGIN COLLECTION
M  V30 MDLV30/STEABS ATOMS=(7 2 3 4 5 11 16 19)
M  V30 END COLLECTION
M  V30 END CTAB
M  END
>  <NO.>
1166

>  <Name>
fludrocortisone acetate

>  <SMILES>
CC(=O)OCC(=O)[C@@]1(O)CC[C@H]2[C@@H]3CCC4=CC(=O)CC[C@]4(C)[C@@]3(F)[C@@H](O)C[C@@]21C

>  <logBB>


>  <Class>
1

>  <MW>
422.21

>  <nHBAcc>
6

>  <nHBDon>
2

>  <SLogP>
2.44

>  <TopoPSA>
100.9

>  <MMFF94 Energy>
134.57

$$$$
CC(=O)OCC(=O)[C@@]1(O)CC[C@H]2[C@@H]3CCC4=CC(=O)CC[C@]4(C)[C@H]3C(=O)C[C@@]21C
Actelion Java MolfileCreator 2.0

  0  0  0  0  0  0              0 V3000
M  V30 BEGIN CTAB
M  V30 COUNTS 59 62 0 0 0
M  V30 BEGIN ATOM
M  V30 1 O -4.7701 -0.3228 -5.4183 0
M  V30 2 C -3.7773 -0.1212 -4.7241 0
M  V30 3 C -3.8139 0.94 -3.6925 0
M  V30 4 C -2.4816 -0.8565 -4.9324 0
M  V30 5 C -2.7709 1.1737 -2.8756 0
M  V30 6 C -1.7487 -1.0219 -3.6086 0
M  V30 7 C -1.4894 0.3194 -2.8573 0 CFG=2
M  V30 8 C -2.8193 2.3538 -1.9333 0
M  V30 9 C -1.1135 -0.0028 -1.3651 0 CFG=1
M  V30 10 C -0.3855 1.119 -3.5854 0
M  V30 11 C -2.4621 1.9594 -0.5064 0
M  V30 12 C 0.1846 -0.8106 -1.1653 0
M  V30 13 C -1.099 1.2571 -0.4503 0 CFG=1
M  V30 14 O 0.8655 -1.2487 -2.0894 0
M  V30 15 C 0.5691 -1.1393 0.2722 0
M  V30 16 C -0.7444 0.8408 0.9858 0 CFG=1
M  V30 17 C 0.6382 0.1485 1.1001 0 CFG=1
M  V30 18 C -0.6874 1.9318 2.049 0
M  V30 19 C 0.7357 -0.017 2.6514 0 CFG=1
M  V30 20 C 1.8052 1.0225 0.5618 0
M  V30 21 C 0.1593 1.3273 3.1839 0
M  V30 22 O -0.1664 -1.0248 3.1181 0
M  V30 23 C 2.1753 -0.2464 3.188 0
M  V30 24 O 2.9528 0.6894 3.3904 0
M  V30 25 C 2.596 -1.6947 3.4057 0
M  V30 26 O 3.9797 -1.7914 3.7351 0
M  V30 27 C 4.4164 -3.0699 3.8767 0
M  V30 28 O 3.7224 -4.0663 3.7306 0
M  V30 29 C 5.8704 -3.0866 4.2332 0
M  V30 30 H -4.7144 1.5449 -3.6872 0
M  V30 31 H -2.7068 -1.8464 -5.3442 0
M  V30 32 H -1.8797 -0.3106 -5.6654 0
M  V30 33 H -2.3483 -1.6863 -2.9706 0
M  V30 34 H -0.8106 -1.5505 -3.8068 0
M  V30 35 H -2.1207 3.1214 -2.288 0
M  V30 36 H -3.8122 2.8202 -1.9306 0
M  V30 37 H -1.9023 -0.6683 -0.978 0
M  V30 38 H -0.7236 1.4633 -4.57 0
M  V30 39 H 0.5132 0.519 -3.7542 0
M  V30 40 H -0.0816 2.0101 -3.0276 0
M  V30 41 H -2.4495 2.8632 0.1135 0
M  V30 42 H -3.2419 1.3039 -0.0973 0
M  V30 43 H -0.3455 1.9675 -0.8078 0
M  V30 44 H 1.5347 -1.6565 0.2738 0
M  V30 45 H -0.1828 -1.8428 0.6444 0
M  V30 46 H -1.5227 0.1308 1.3091 0
M  V30 47 H -1.6856 2.2064 2.4056 0
M  V30 48 H -0.2138 2.8423 1.6649 0
M  V30 49 H 2.7594 0.4907 0.6519 0
M  V30 50 H 1.694 1.2693 -0.4981 0
M  V30 51 H 1.9044 1.9694 1.1011 0
M  V30 52 H 0.9339 2.0484 3.4653 0
M  V30 53 H -0.4666 1.1666 4.07 0
M  V30 54 H 0.0393 -1.8854 2.7181 0
M  V30 55 H 1.999 -2.0994 4.2301 0
M  V30 56 H 2.4036 -2.2442 2.4786 0
M  V30 57 H 6.4532 -2.6226 3.4338 0
M  V30 58 H 6.0264 -2.561 5.1786 0
M  V30 59 H 6.2023 -4.122 4.3516 0
M  V30 END ATOM
M  V30 BEGIN BOND
M  V30 1 2 1 2
M  V30 2 1 2 3
M  V30 3 1 2 4
M  V30 4 2 3 5
M  V30 5 1 4 6
M  V30 6 1 5 7
M  V30 7 1 5 8
M  V30 8 1 7 9
M  V30 9 1 7 10
M  V30 10 1 8 11
M  V30 11 1 9 12
M  V30 12 1 9 13
M  V30 13 2 12 14
M  V30 14 1 12 15
M  V30 15 1 13 16
M  V30 16 1 15 17
M  V30 17 1 16 18
M  V30 18 1 17 19
M  V30 19 1 17 20
M  V30 20 1 18 21
M  V30 21 1 19 22
M  V30 22 1 19 23
M  V30 23 2 23 24
M  V30 24 1 23 25
M  V30 25 1 25 26
M  V30 26 1 26 27
M  V30 27 2 27 28
M  V30 28 1 27 29
M  V30 29 1 6 7
M  V30 30 1 11 13
M  V30 31 1 16 17
M  V30 32 1 19 21
M  V30 33 1 3 30
M  V30 34 1 4 31
M  V30 35 1 4 32
M  V30 36 1 6 33
M  V30 37 1 6 34
M  V30 38 1 8 35
M  V30 39 1 8 36
M  V30 40 1 9 37
M  V30 41 1 10 38
M  V30 42 1 10 39
M  V30 43 1 10 40
M  V30 44 1 11 41
M  V30 45 1 11 42
M  V30 46 1 13 43
M  V30 47 1 15 44
M  V30 48 1 15 45
M  V30 49 1 16 46
M  V30 50 1 18 47
M  V30 51 1 18 48
M  V30 52 1 20 49
M  V30 53 1 20 50
M  V30 54 1 20 51
M  V30 55 1 21 52
M  V30 56 1 21 53
M  V30 57 1 22 54
M  V30 58 1 25 55
M  V30 59 1 25 56
M  V30 60 1 29 57
M  V30 61 1 29 58
M  V30 62 1 29 59
M  V30 END BOND
M  V30 BEGIN COLLECTION
M  V30 MDLV30/STEABS ATOMS=(6 7 9 13 16 17 19)
M  V30 END COLLECTION
M  V30 END CTAB
M  END
>  <NO.>
1167

>  <Name>
cortisone acetate

>  <SMILES>
CC(=O)OCC(=O)[C@@]1(O)CC[C@H]2[C@@H]3CCC4=CC(=O)CC[C@]4(C)[C@H]3C(=O)C[C@@]21C

>  <logBB>


>  <Class>
1

>  <MW>
402.2

>  <nHBAcc>
6

>  <nHBDon>
1

>  <SLogP>
2.56

>  <TopoPSA>
97.74

>  <MMFF94 Energy>
99.355

$$$$
CC(=O)OCC(=O)[C@@]1(O)CC[C@H]2[C@@H]3CCC4=CC(=O)CC[C@]4(C)[C@H]3[C@@H](O)C[C@@]21C
Actelion Java MolfileCreator 2.0

  0  0  0  0  0  0              0 V3000
M  V30 BEGIN CTAB
M  V30 COUNTS 61 64 0 0 0
M  V30 BEGIN ATOM
M  V30 1 O -6.2094 3.1414 1.3684 0
M  V30 2 C -5.2693 2.5611 0.8313 0
M  V30 3 C -4.0697 3.3312 0.4306 0
M  V30 4 C -5.3185 1.0984 0.4782 0
M  V30 5 C -2.9934 2.7309 -0.1077 0
M  V30 6 C -3.9315 0.4839 0.5923 0
M  V30 7 C -2.8515 1.2087 -0.2649 0 CFG=2
M  V30 8 C -1.8557 3.5672 -0.6404 0
M  V30 9 C -1.4272 0.7665 0.2631 0 CFG=1
M  V30 10 C -3.0931 0.8818 -1.7557 0
M  V30 11 C -0.5129 3.1143 -0.0874 0
M  V30 12 C -1.136 -0.763 0.2011 0 CFG=1
M  V30 13 C -0.2643 1.6185 -0.3402 0 CFG=1
M  V30 14 O -1.3006 -1.2625 -1.1179 0
M  V30 15 C 0.2672 -1.1378 0.724 0
M  V30 16 C 1.0592 1.1802 0.3055 0 CFG=1
M  V30 17 C 1.4003 -0.3114 0.0819 0 CFG=1
M  V30 18 C 2.342 1.9029 -0.0927 0
M  V30 19 C 2.7879 -0.3726 0.7977 0 CFG=1
M  V30 20 C 1.5629 -0.6736 -1.4199 0
M  V30 21 C 3.4731 0.9493 0.3439 0
M  V30 22 O 2.6138 -0.3071 2.2201 0
M  V30 23 C 3.6181 -1.6299 0.4564 0
M  V30 24 O 4.4387 -1.6448 -0.4648 0
M  V30 25 C 3.3887 -2.8604 1.3361 0
M  V30 26 O 3.9288 -4.0524 0.7652 0
M  V30 27 C 3.1619 -4.593 -0.2201 0
M  V30 28 O 2.0563 -4.1899 -0.5547 0
M  V30 29 C 3.8572 -5.7716 -0.8276 0
M  V30 30 H -4.1509 4.4067 0.5428 0
M  V30 31 H -5.7295 0.9921 -0.5304 0
M  V30 32 H -5.9942 0.5942 1.1779 0
M  V30 33 H -3.6371 0.5117 1.651 0
M  V30 34 H -3.995 -0.5757 0.3173 0
M  V30 35 H -1.9963 4.6282 -0.3997 0
M  V30 36 H -1.8441 3.5002 -1.7351 0
M  V30 37 H -1.4231 1.0043 1.3405 0
M  V30 38 H -2.2388 1.1526 -2.3835 0
M  V30 39 H -3.301 -0.1808 -1.9134 0
M  V30 40 H -3.9617 1.4235 -2.1504 0
M  V30 41 H 0.2775 3.7115 -0.5566 0
M  V30 42 H -0.4717 3.3256 0.9892 0
M  V30 43 H -1.8664 -1.2905 0.8245 0
M  V30 44 H -0.216 1.4674 -1.4233 0
M  V30 45 H -1.0561 -2.2056 -1.117 0
M  V30 46 H 0.4454 -2.2039 0.5479 0
M  V30 47 H 0.2656 -0.9923 1.8111 0
M  V30 48 H 0.9392 1.3522 1.3879 0
M  V30 49 H 2.3855 2.0779 -1.1735 0
M  V30 50 H 2.4342 2.8748 0.4029 0
M  V30 51 H 0.7167 -0.3596 -2.0333 0
M  V30 52 H 1.6677 -1.7554 -1.5482 0
M  V30 53 H 2.4471 -0.2126 -1.8714 0
M  V30 54 H 4.1595 0.8062 -0.4973 0
M  V30 55 H 4.0507 1.4072 1.1549 0
M  V30 56 H 3.4465 0.0066 2.617 0
M  V30 57 H 3.9146 -2.6915 2.2814 0
M  V30 58 H 2.3279 -2.9905 1.5671 0
M  V30 59 H 4.8234 -5.4627 -1.2345 0
M  V30 60 H 3.988 -6.5529 -0.075 0
M  V30 61 H 3.2487 -6.1693 -1.6447 0
M  V30 END ATOM
M  V30 BEGIN BOND
M  V30 1 2 1 2
M  V30 2 1 2 3
M  V30 3 1 2 4
M  V30 4 2 3 5
M  V30 5 1 4 6
M  V30 6 1 5 7
M  V30 7 1 5 8
M  V30 8 1 7 9
M  V30 9 1 7 10
M  V30 10 1 8 11
M  V30 11 1 9 12
M  V30 12 1 9 13
M  V30 13 1 12 14
M  V30 14 1 12 15
M  V30 15 1 13 16
M  V30 16 1 15 17
M  V30 17 1 16 18
M  V30 18 1 17 19
M  V30 19 1 17 20
M  V30 20 1 18 21
M  V30 21 1 19 22
M  V30 22 1 19 23
M  V30 23 2 23 24
M  V30 24 1 23 25
M  V30 25 1 25 26
M  V30 26 1 26 27
M  V30 27 2 27 28
M  V30 28 1 27 29
M  V30 29 1 6 7
M  V30 30 1 11 13
M  V30 31 1 16 17
M  V30 32 1 19 21
M  V30 33 1 3 30
M  V30 34 1 4 31
M  V30 35 1 4 32
M  V30 36 1 6 33
M  V30 37 1 6 34
M  V30 38 1 8 35
M  V30 39 1 8 36
M  V30 40 1 9 37
M  V30 41 1 10 38
M  V30 42 1 10 39
M  V30 43 1 10 40
M  V30 44 1 11 41
M  V30 45 1 11 42
M  V30 46 1 12 43
M  V30 47 1 13 44
M  V30 48 1 14 45
M  V30 49 1 15 46
M  V30 50 1 15 47
M  V30 51 1 16 48
M  V30 52 1 18 49
M  V30 53 1 18 50
M  V30 54 1 20 51
M  V30 55 1 20 52
M  V30 56 1 20 53
M  V30 57 1 21 54
M  V30 58 1 21 55
M  V30 59 1 22 56
M  V30 60 1 25 57
M  V30 61 1 25 58
M  V30 62 1 29 59
M  V30 63 1 29 60
M  V30 64 1 29 61
M  V30 END BOND
M  V30 BEGIN COLLECTION
M  V30 MDLV30/STEABS ATOMS=(7 7 9 12 13 16 17 19)
M  V30 END COLLECTION
M  V30 END CTAB
M  END
>  <NO.>
1168

>  <Name>
hydrocortisone-acetate

>  <SMILES>
CC(=O)OCC(=O)[C@@]1(O)CC[C@H]2[C@@H]3CCC4=CC(=O)CC[C@]4(C)[C@H]3[C@@H](O)C[C@@]21C

>  <logBB>


>  <Class>
1

>  <MW>
404.22

>  <nHBAcc>
6

>  <nHBDon>
2

>  <SLogP>
2.35

>  <TopoPSA>
100.9

>  <MMFF94 Energy>
102.87

$$$$
CC(=O)OCC(=O)[C@@]1(O)CC[C@H]2[C@@H]3C[C@H](C)C4=CC(=O)C=C[C@]4(C)[C@H]3[C@@H](O)C[C@@]21C
Actelion Java MolfileCreator 2.0

  0  0  0  0  0  0              0 V3000
M  V30 BEGIN CTAB
M  V30 COUNTS 62 65 0 0 0
M  V30 BEGIN ATOM
M  V30 1 O 1.127 -6.3726 -2.1745 0
M  V30 2 C 0.5824 -5.3786 -1.7111 0
M  V30 3 C 0.7646 -4.9915 -0.2967 0
M  V30 4 C -0.2745 -4.5181 -2.542 0
M  V30 5 C 0.1833 -3.9009 0.2404 0
M  V30 6 C -0.8607 -3.4325 -2.0234 0
M  V30 7 C -0.7315 -2.9631 -0.5788 0 CFG=2
M  V30 8 C 0.4074 -3.4715 1.6875 0 CFG=2
M  V30 9 C -0.0805 -1.5274 -0.5405 0 CFG=1
M  V30 10 C -2.1565 -3.0321 0.0167 0
M  V30 11 C 1.033 -2.07 1.7011 0
M  V30 12 C 1.2595 -4.4137 2.549 0
M  V30 13 C -0.7772 -0.4331 -1.4049 0 CFG=1
M  V30 14 C 0.2018 -1.0362 0.9176 0 CFG=1
M  V30 15 O -2.1737 -0.3343 -1.1809 0
M  V30 16 C -0.1254 0.9648 -1.297 0
M  V30 17 C 0.9457 0.3088 0.8516 0 CFG=1
M  V30 18 C 0.1519 1.4334 0.1473 0 CFG=1
M  V30 19 C 1.3979 0.9573 2.1562 0
M  V30 20 C 1.1643 2.6213 0.3222 0 CFG=1
M  V30 21 C -1.18 1.7771 0.8697 0
M  V30 22 C 1.6775 2.4264 1.7806 0
M  V30 23 O 2.326 2.4633 -0.5015 0
M  V30 24 C 0.5489 4.0324 0.1332 0
M  V30 25 O -0.0515 4.6176 1.0394 0
M  V30 26 C 0.7147 4.675 -1.2433 0
M  V30 27 O -0.1222 5.8152 -1.4318 0
M  V30 28 C -1.4313 5.5052 -1.6393 0
M  V30 29 O -1.8706 4.3703 -1.7638 0
M  V30 30 C -2.2552 6.7527 -1.7155 0
M  V30 31 H 1.4173 -5.6563 0.2558 0
M  V30 32 H -0.4095 -4.8184 -3.5737 0
M  V30 33 H -1.5092 -2.8507 -2.6771 0
M  V30 34 H -0.5708 -3.4214 2.1816 0
M  V30 35 H 0.9156 -1.6403 -1.003 0
M  V30 36 H -2.4556 -4.0719 0.2035 0
M  V30 37 H -2.244 -2.4974 0.967 0
M  V30 38 H -2.9125 -2.6162 -0.658 0
M  V30 39 H 2.049 -2.1167 1.2854 0
M  V30 40 H 1.1362 -1.7362 2.7413 0
M  V30 41 H 0.8195 -5.4158 2.5917 0
M  V30 42 H 1.3204 -4.0415 3.5779 0
M  V30 43 H 2.2832 -4.4986 2.1683 0
M  V30 44 H -0.6815 -0.7214 -2.4582 0
M  V30 45 H -0.7442 -0.9083 1.4527 0
M  V30 46 H -2.357 -0.3527 -0.2298 0
M  V30 47 H 0.8148 0.9026 -1.8553 0
M  V30 48 H -0.7491 1.7058 -1.8109 0
M  V30 49 H 1.865 0.1177 0.2741 0
M  V30 50 H 0.617 0.9015 2.9231 0
M  V30 51 H 2.2947 0.4785 2.5627 0
M  V30 52 H -1.0212 2.2808 1.8287 0
M  V30 53 H -1.7873 0.9042 1.1038 0
M  V30 54 H -1.7933 2.4447 0.255 0
M  V30 55 H 2.7527 2.6297 1.8533 0
M  V30 56 H 1.1787 3.0783 2.5056 0
M  V30 57 H 2.0672 2.3487 -1.4294 0
M  V30 58 H 1.7511 5.0167 -1.3281 0
M  V30 59 H 0.5361 3.9388 -2.0342 0
M  V30 60 H -2.1488 7.3244 -0.7901 0
M  V30 61 H -1.9436 7.3504 -2.5756 0
M  V30 62 H -3.3085 6.4842 -1.8371 0
M  V30 END ATOM
M  V30 BEGIN BOND
M  V30 1 2 1 2
M  V30 2 1 2 3
M  V30 3 1 2 4
M  V30 4 2 3 5
M  V30 5 2 4 6
M  V30 6 1 5 7
M  V30 7 1 5 8
M  V30 8 1 7 9
M  V30 9 1 7 10
M  V30 10 1 8 11
M  V30 11 1 8 12
M  V30 12 1 9 13
M  V30 13 1 9 14
M  V30 14 1 13 15
M  V30 15 1 13 16
M  V30 16 1 14 17
M  V30 17 1 16 18
M  V30 18 1 17 19
M  V30 19 1 18 20
M  V30 20 1 18 21
M  V30 21 1 19 22
M  V30 22 1 20 23
M  V30 23 1 20 24
M  V30 24 2 24 25
M  V30 25 1 24 26
M  V30 26 1 26 27
M  V30 27 1 27 28
M  V30 28 2 28 29
M  V30 29 1 28 30
M  V30 30 1 6 7
M  V30 31 1 11 14
M  V30 32 1 17 18
M  V30 33 1 20 22
M  V30 34 1 3 31
M  V30 35 1 4 32
M  V30 36 1 6 33
M  V30 37 1 8 34
M  V30 38 1 9 35
M  V30 39 1 10 36
M  V30 40 1 10 37
M  V30 41 1 10 38
M  V30 42 1 11 39
M  V30 43 1 11 40
M  V30 44 1 12 41
M  V30 45 1 12 42
M  V30 46 1 12 43
M  V30 47 1 13 44
M  V30 48 1 14 45
M  V30 49 1 15 46
M  V30 50 1 16 47
M  V30 51 1 16 48
M  V30 52 1 17 49
M  V30 53 1 19 50
M  V30 54 1 19 51
M  V30 55 1 21 52
M  V30 56 1 21 53
M  V30 57 1 21 54
M  V30 58 1 22 55
M  V30 59 1 22 56
M  V30 60 1 23 57
M  V30 61 1 26 58
M  V30 62 1 26 59
M  V30 63 1 30 60
M  V30 64 1 30 61
M  V30 65 1 30 62
M  V30 END BOND
M  V30 BEGIN COLLECTION
M  V30 MDLV30/STEABS ATOMS=(8 7 8 9 13 14 17 18 20)
M  V30 END COLLECTION
M  V30 END CTAB
M  END
>  <NO.>
1169

>  <Name>
methylprednisolone-acetate

>  <SMILES>
CC(=O)OCC(=O)[C@@]1(O)CC[C@H]2[C@@H]3C[C@H](C)C4=CC(=O)C=C[C@]4(C)[C@H]3[C@@H](O)C[C@@]21C

>  <logBB>


>  <Class>
1

>  <MW>
416.22

>  <nHBAcc>
6

>  <nHBDon>
2

>  <SLogP>
2.37

>  <TopoPSA>
100.9

>  <MMFF94 Energy>
120.81

$$$$
CC(=O)OCC(=O)[C@@]1(O)CC[C@H]2[C@@H]3C[C@H](Cl)C4=CC(=O)C=C[C@]4(C)[C@H]3C(=O)C[C@@]21C
Actelion Java MolfileCreator 2.0

  0  0  0  0  0  0              0 V3000
M  V30 BEGIN CTAB
M  V30 COUNTS 57 60 0 0 0
M  V30 BEGIN ATOM
M  V30 1 Cl 1.3875 -5.2313 2.2862 0
M  V30 2 C 1.2298 -3.9723 1.0269 0 CFG=2
M  V30 3 C 2.5482 -3.452 0.4721 0
M  V30 4 C 0.4114 -2.8152 1.6041 0
M  V30 5 C 3.757 -3.8506 0.9185 0
M  V30 6 C 2.3908 -2.3775 -0.636 0 CFG=2
M  V30 7 C 0.1729 -1.7118 0.5618 0 CFG=2
M  V30 8 C 5.0267 -3.2949 0.4076 0
M  V30 9 C 3.7483 -1.8378 -1.077 0
M  V30 10 C 1.5207 -1.2161 -0.0454 0 CFG=2
M  V30 11 C 1.7559 -3.0408 -1.8805 0
M  V30 12 C -0.5642 -0.5101 1.1764 0 CFG=1
M  V30 13 O 6.1083 -3.6827 0.8293 0
M  V30 14 C 4.9369 -2.2454 -0.6176 0
M  V30 15 C 1.2226 -0.0423 -0.9982 0
M  V30 16 C -0.8999 0.6037 0.147 0 CFG=2
M  V30 17 C -1.8922 -0.761 1.8782 0
M  V30 18 O 1.6037 0.0027 -2.1656 0
M  V30 19 C 0.4328 1.1212 -0.4111 0
M  V30 20 C -1.7006 1.5816 1.0621 0 CFG=1
M  V30 21 C -1.7824 0.1079 -1.0302 0
M  V30 22 C -2.5618 0.624 1.9384 0
M  V30 23 O -0.79 2.2649 1.9286 0
M  V30 24 C -2.5679 2.6129 0.2988 0
M  V30 25 O -3.7613 2.4044 0.0661 0
M  V30 26 C -1.8688 3.8894 -0.1611 0
M  V30 27 O -2.7614 4.7006 -0.9266 0
M  V30 28 C -2.2181 5.8748 -1.3403 0
M  V30 29 O -1.0779 6.2447 -1.0998 0
M  V30 30 C -3.2174 6.6564 -2.1359 0
M  V30 31 H 0.6668 -4.4569 0.2234 0
M  V30 32 H 0.9233 -2.39 2.4786 0
M  V30 33 H -0.5555 -3.1948 1.9578 0
M  V30 34 H 3.8988 -4.5942 1.6946 0
M  V30 35 H -0.4516 -2.1408 -0.2296 0
M  V30 36 H 3.7547 -1.0761 -1.8562 0
M  V30 37 H 2.1086 -0.7626 0.7695 0
M  V30 38 H 0.7133 -3.3306 -1.721 0
M  V30 39 H 2.303 -3.9495 -2.1633 0
M  V30 40 H 1.7701 -2.3837 -2.7564 0
M  V30 41 H 0.1115 -0.0911 1.9399 0
M  V30 42 H 5.8731 -1.8387 -0.9803 0
M  V30 43 H -1.753 -1.1753 2.8821 0
M  V30 44 H -2.5175 -1.4636 1.316 0
M  V30 45 H 0.2716 1.8619 -1.2005 0
M  V30 46 H 1.0594 1.5884 0.3562 0
M  V30 47 H -1.985 0.9256 -1.7317 0
M  V30 48 H -2.7493 -0.2807 -0.6963 0
M  V30 49 H -1.3016 -0.6837 -1.6122 0
M  V30 50 H -3.5931 0.5278 1.5829 0
M  V30 51 H -2.6109 0.9665 2.9786 0
M  V30 52 H -1.2952 2.6399 2.6742 0
M  V30 53 H -1.5488 4.4415 0.7288 0
M  V30 54 H -1.0124 3.618 -0.782 0
M  V30 55 H -3.5137 6.0873 -3.0205 0
M  V30 56 H -4.0877 6.8852 -1.5156 0
M  V30 57 H -2.7648 7.5972 -2.4621 0
M  V30 END ATOM
M  V30 BEGIN BOND
M  V30 1 1 1 2
M  V30 2 1 2 3
M  V30 3 1 2 4
M  V30 4 2 3 5
M  V30 5 1 3 6
M  V30 6 1 4 7
M  V30 7 1 5 8
M  V30 8 1 6 9
M  V30 9 1 6 10
M  V30 10 1 6 11
M  V30 11 1 7 12
M  V30 12 2 8 13
M  V30 13 1 8 14
M  V30 14 1 10 15
M  V30 15 1 12 16
M  V30 16 1 12 17
M  V30 17 2 15 18
M  V30 18 1 15 19
M  V30 19 1 16 20
M  V30 20 1 16 21
M  V30 21 1 17 22
M  V30 22 1 20 23
M  V30 23 1 20 24
M  V30 24 2 24 25
M  V30 25 1 24 26
M  V30 26 1 26 27
M  V30 27 1 27 28
M  V30 28 2 28 29
M  V30 29 1 28 30
M  V30 30 1 7 10
M  V30 31 2 9 14
M  V30 32 1 16 19
M  V30 33 1 20 22
M  V30 34 1 2 31
M  V30 35 1 4 32
M  V30 36 1 4 33
M  V30 37 1 5 34
M  V30 38 1 7 35
M  V30 39 1 9 36
M  V30 40 1 10 37
M  V30 41 1 11 38
M  V30 42 1 11 39
M  V30 43 1 11 40
M  V30 44 1 12 41
M  V30 45 1 14 42
M  V30 46 1 17 43
M  V30 47 1 17 44
M  V30 48 1 19 45
M  V30 49 1 19 46
M  V30 50 1 21 47
M  V30 51 1 21 48
M  V30 52 1 21 49
M  V30 53 1 22 50
M  V30 54 1 22 51
M  V30 55 1 23 52
M  V30 56 1 26 53
M  V30 57 1 26 54
M  V30 58 1 30 55
M  V30 59 1 30 56
M  V30 60 1 30 57
M  V30 END BOND
M  V30 BEGIN COLLECTION
M  V30 MDLV30/STEABS ATOMS=(7 2 6 7 10 12 16 20)
M  V30 END COLLECTION
M  V30 END CTAB
M  END
>  <NO.>
1170

>  <Name>
chloroprednisone-acetate

>  <SMILES>
CC(=O)OCC(=O)[C@@]1(O)CC[C@H]2[C@@H]3C[C@H](Cl)C4=CC(=O)C=C[C@]4(C)[C@H]3C(=O)C[C@@]21C

>  <logBB>


>  <Class>
1

>  <MW>
434.15

>  <nHBAcc>
6

>  <nHBDon>
1

>  <SLogP>
2.55

>  <TopoPSA>
97.74

>  <MMFF94 Energy>
101.28

$$$$
CC(=O)OCC(=O)[C@@]1(O)[C@H](C)C[C@H]2[C@@H]3C=C(C)C4=Cc5c(cnn5-c5ccccc5)C[C@]4(C)[C@H]3[C@@H](O)C[C@@]21C
Actelion Java MolfileCreator 2.0

  0  0  0  0  0  0              0 V3000
M  V30 BEGIN CTAB
M  V30 COUNTS 77 82 0 0 0
M  V30 BEGIN ATOM
M  V30 1 O 5.4032 -1.53 -2.336 0
M  V30 2 C 4.6197 -0.6268 -2.6391 0
M  V30 3 C 3.0769 -0.8088 -2.5682 0 CFG=2
M  V30 4 C 5.1202 0.7491 -3.0625 0
M  V30 5 O 2.4288 -0.0194 -3.5701 0
M  V30 6 C 2.4656 -0.5392 -1.1462 0 CFG=2
M  V30 7 C 2.679 -2.3065 -2.8238 0 CFG=1
M  V30 8 O 6.5378 0.8485 -2.9404 0
M  V30 9 C 1.0828 -1.2192 -1.3268 0 CFG=1
M  V30 10 C 2.2103 0.9366 -0.7602 0
M  V30 11 C 3.3416 -1.2174 -0.0542 0
M  V30 12 C 1.4198 -2.5704 -1.9592 0
M  V30 13 C 2.4485 -2.6604 -4.2914 0
M  V30 14 C 7.0187 2.1012 -3.1496 0
M  V30 15 C 0.2225 -1.19 -0.05 0 CFG=2
M  V30 16 C 1.2715 1.1086 0.4576 0 CFG=1
M  V30 17 O 6.3326 3.0828 -3.3983 0
M  V30 18 C 8.5108 2.1125 -3.0255 0
M  V30 19 C -1.0752 -1.9386 -0.2155 0
M  V30 20 C -0.0449 0.2973 0.3149 0 CFG=2
M  V30 21 O 1.9567 0.7753 1.6523 0
M  V30 22 C -2.2716 -1.5348 0.2518 0
M  V30 23 C -1.0833 0.421 1.4876 0 CFG=2
M  V30 24 C -2.4162 -0.2984 1.0406 0
M  V30 25 C -3.4847 -2.3992 0.0033 0
M  V30 26 C -1.2934 1.9544 1.8072 0
M  V30 27 C -0.6271 -0.2747 2.7969 0
M  V30 28 C -3.6348 0.1751 1.4003 0
M  V30 29 C -2.6292 2.2151 2.3877 0
M  V30 30 C -3.6773 1.3566 2.1719 0
M  V30 31 C -3.1668 3.2627 3.1426 0
M  V30 32 N -4.7707 1.8811 2.8334 0
M  V30 33 N -4.4678 3.0894 3.393 0
M  V30 34 C -6.067 1.3377 2.9919 0
M  V30 35 C -6.2351 -0.0036 3.3554 0
M  V30 36 C -7.1794 2.1695 2.8172 0
M  V30 37 C -7.5232 -0.5177 3.5121 0
M  V30 38 C -8.4632 1.6469 2.9755 0
M  V30 39 C -8.6342 0.3048 3.318 0
M  V30 40 H 4.8421 0.9053 -4.11 0
M  V30 41 H 4.6416 1.4935 -2.4184 0
M  V30 42 H 2.4741 0.9241 -3.3506 0
M  V30 43 H 3.4632 -2.9813 -2.4585 0
M  V30 44 H 0.5166 -0.6645 -2.0933 0
M  V30 45 H 1.7409 1.4712 -1.5929 0
M  V30 46 H 3.1666 1.4336 -0.5599 0
M  V30 47 H 2.8435 -1.2966 0.9131 0
M  V30 48 H 4.2629 -0.6463 0.1083 0
M  V30 49 H 3.6372 -2.237 -0.3175 0
M  V30 50 H 0.5825 -2.9541 -2.5519 0
M  V30 51 H 1.6454 -3.3179 -1.1896 0
M  V30 52 H 1.5921 -2.1232 -4.7121 0
M  V30 53 H 3.3334 -2.4242 -4.8909 0
M  V30 54 H 2.2477 -3.732 -4.397 0
M  V30 55 H 0.765 -1.6916 0.7575 0
M  V30 56 H 1.0312 2.1752 0.5284 0
M  V30 57 H 8.8008 1.813 -2.0153 0
M  V30 58 H 8.9495 1.4409 -3.7675 0
M  V30 59 H 8.8819 3.1248 -3.2098 0
M  V30 60 H -1.0148 -2.8933 -0.7338 0
M  V30 61 H -0.5428 0.7451 -0.563 0
M  V30 62 H 2.7212 1.3702 1.7442 0
M  V30 63 H -3.9579 -2.6873 0.9485 0
M  V30 64 H -3.2307 -3.3271 -0.5213 0
M  V30 65 H -4.2165 -1.8714 -0.6175 0
M  V30 66 H -0.5081 2.3263 2.4758 0
M  V30 67 H -1.2316 2.5389 0.8795 0
M  V30 68 H -1.4134 -0.2348 3.5609 0
M  V30 69 H -0.3882 -1.3325 2.6517 0
M  V30 70 H 0.2502 0.2071 3.2358 0
M  V30 71 H -4.5601 -0.3072 1.1069 0
M  V30 72 H -2.6789 4.1562 3.5101 0
M  V30 73 H -5.3807 -0.6496 3.5409 0
M  V30 74 H -7.0524 3.2192 2.5603 0
M  V30 75 H -7.6622 -1.5575 3.7968 0
M  V30 76 H -9.33 2.2884 2.8385 0
M  V30 77 H -9.6361 -0.0976 3.4458 0
M  V30 END ATOM
M  V30 BEGIN BOND
M  V30 1 2 1 2
M  V30 2 1 2 3
M  V30 3 1 2 4
M  V30 4 1 3 5
M  V30 5 1 3 6
M  V30 6 1 3 7
M  V30 7 1 4 8
M  V30 8 1 6 9
M  V30 9 1 6 10
M  V30 10 1 6 11
M  V30 11 1 7 12
M  V30 12 1 7 13
M  V30 13 1 8 14
M  V30 14 1 9 15
M  V30 15 1 10 16
M  V30 16 2 14 17
M  V30 17 1 14 18
M  V30 18 1 15 19
M  V30 19 1 15 20
M  V30 20 1 16 21
M  V30 21 2 19 22
M  V30 22 1 20 23
M  V30 23 1 22 24
M  V30 24 1 22 25
M  V30 25 1 23 26
M  V30 26 1 23 27
M  V30 27 2 24 28
M  V30 28 1 26 29
M  V30 29 1 28 30
M  V30 30 1 29 31
M  V30 31 1 30 32
M  V30 32 2 31 33
M  V30 33 1 32 34
M  V30 34 2 34 35
M  V30 35 1 34 36
M  V30 36 1 35 37
M  V30 37 2 36 38
M  V30 38 2 37 39
M  V30 39 1 9 12
M  V30 40 1 16 20
M  V30 41 1 23 24
M  V30 42 2 29 30
M  V30 43 1 32 33
M  V30 44 1 38 39
M  V30 45 1 4 40
M  V30 46 1 4 41
M  V30 47 1 5 42
M  V30 48 1 7 43
M  V30 49 1 9 44
M  V30 50 1 10 45
M  V30 51 1 10 46
M  V30 52 1 11 47
M  V30 53 1 11 48
M  V30 54 1 11 49
M  V30 55 1 12 50
M  V30 56 1 12 51
M  V30 57 1 13 52
M  V30 58 1 13 53
M  V30 59 1 13 54
M  V30 60 1 15 55
M  V30 61 1 16 56
M  V30 62 1 18 57
M  V30 63 1 18 58
M  V30 64 1 18 59
M  V30 65 1 19 60
M  V30 66 1 20 61
M  V30 67 1 21 62
M  V30 68 1 25 63
M  V30 69 1 25 64
M  V30 70 1 25 65
M  V30 71 1 26 66
M  V30 72 1 26 67
M  V30 73 1 27 68
M  V30 74 1 27 69
M  V30 75 1 27 70
M  V30 76 1 28 71
M  V30 77 1 31 72
M  V30 78 1 35 73
M  V30 79 1 36 74
M  V30 80 1 37 75
M  V30 81 1 38 76
M  V30 82 1 39 77
M  V30 END BOND
M  V30 BEGIN COLLECTION
M  V30 MDLV30/STEABS ATOMS=(8 3 6 7 9 15 16 20 23)
M  V30 END COLLECTION
M  V30 END CTAB
M  END
>  <NO.>
1172

>  <Name>
cortivazol

>  <SMILES>
CC(=O)OCC(=O)[C@@]1(O)[C@H](C)C[C@H]2[C@@H]3C=C(C)C4=Cc5c(cnn5-c5ccccc5)C[C@]4(C)[C@H]3[C@@H](O)C[C@@]21C

>  <logBB>


>  <Class>
1

>  <MW>
530.28

>  <nHBAcc>
6

>  <nHBDon>
2

>  <SLogP>
4.3

>  <TopoPSA>
101.65

>  <MMFF94 Energy>
170.9

$$$$
CC(=O)OCC(=O)[C@@]1(O)[C@H](C)C[C@H]2[C@@H]3C[C@H](F)C4=CC(=O)C=C[C@]4(C)[C@H]3[C@@H](O)C[C@@]21C
Actelion Java MolfileCreator 2.0

  0  0  0  0  0  0              0 V3000
M  V30 BEGIN CTAB
M  V30 COUNTS 62 65 0 0 0
M  V30 BEGIN ATOM
M  V30 1 F -1.2111 -4.8511 -2.3425 0
M  V30 2 C -1.5163 -3.5597 -2.0244 0 CFG=2
M  V30 3 C -1.3797 -2.6522 -3.219 0
M  V30 4 C -0.5677 -3.1231 -0.9174 0
M  V30 5 C -1.0109 -3.139 -4.4179 0
M  V30 6 C -1.636 -1.1632 -2.9449 0 CFG=2
M  V30 7 C -0.7499 -1.6448 -0.5355 0 CFG=2
M  V30 8 C -0.8117 -2.2627 -5.5882 0
M  V30 9 C -1.3925 -0.3295 -4.1991 0
M  V30 10 C -0.6457 -0.7215 -1.7974 0 CFG=2
M  V30 11 C -3.1313 -0.9871 -2.5958 0
M  V30 12 C 0.3178 -1.2117 0.4818 0 CFG=1
M  V30 13 O -0.4787 -2.713 -6.6766 0
M  V30 14 C -1.0236 -0.8167 -5.3911 0
M  V30 15 C -0.6843 0.7853 -1.4105 0 CFG=1
M  V30 16 C 0.1619 0.2481 0.9774 0 CFG=2
M  V30 17 C 0.4687 -2.0257 1.7618 0
M  V30 18 O -1.9979 1.184 -1.0462 0
M  V30 19 C 0.2931 1.1516 -0.2722 0
M  V30 20 C 1.3448 0.3013 2.0059 0 CFG=1
M  V30 21 C -1.1851 0.5029 1.7057 0
M  V30 22 C 1.2251 -1.088 2.7342 0 CFG=2
M  V30 23 O 2.5837 0.3852 1.2925 0
M  V30 24 C 1.3046 1.4851 3.0053 0
M  V30 25 C 2.5453 -1.7027 3.1917 0
M  V30 26 O 1.251 1.299 4.2242 0
M  V30 27 C 1.3744 2.8908 2.4172 0
M  V30 28 O 1.7132 3.8434 3.4268 0
M  V30 29 C 1.6376 5.1338 3.0089 0
M  V30 30 O 1.3227 5.4901 1.882 0
M  V30 31 C 1.9973 6.0629 4.127 0
M  V30 32 H -2.5507 -3.5642 -1.6663 0
M  V30 33 H -0.7316 -3.7672 -0.0451 0
M  V30 34 H 0.4674 -3.3094 -1.2339 0
M  V30 35 H -0.8226 -4.1939 -4.5876 0
M  V30 36 H -1.744 -1.545 -0.0882 0
M  V30 37 H -1.5674 0.7419 -4.1263 0
M  V30 38 H 0.3704 -0.8797 -2.1979 0
M  V30 39 H -3.7692 -1.5229 -3.3112 0
M  V30 40 H -3.4479 0.0608 -2.6337 0
M  V30 41 H -3.3792 -1.3667 -1.6 0
M  V30 42 H 1.2845 -1.2984 -0.0413 0
M  V30 43 H -0.8792 -0.1862 -6.2601 0
M  V30 44 H -0.4043 1.3861 -2.283 0
M  V30 45 H -0.5113 -2.2864 2.1785 0
M  V30 46 H 1.0054 -2.963 1.5798 0
M  V30 47 H -1.9963 2.1515 -0.9341 0
M  V30 48 H 0.1345 2.1984 0.0057 0
M  V30 49 H 1.3096 1.0848 -0.6787 0
M  V30 50 H -2.0533 0.1731 1.1325 0
M  V30 51 H -1.3241 1.5702 1.9071 0
M  V30 52 H -1.2485 -0.0115 2.6695 0
M  V30 53 H 0.5955 -0.9883 3.6282 0
M  V30 54 H 3.3123 0.2831 1.932 0
M  V30 55 H 3.1948 -1.9477 2.345 0
M  V30 56 H 2.3617 -2.6309 3.7438 0
M  V30 57 H 3.0839 -1.0207 3.8573 0
M  V30 58 H 2.1433 2.9154 1.6392 0
M  V30 59 H 0.3907 3.1329 2.0065 0
M  V30 60 H 1.3001 5.9301 4.9582 0
M  V30 61 H 3.0236 5.8732 4.4509 0
M  V30 62 H 1.9277 7.0965 3.7758 0
M  V30 END ATOM
M  V30 BEGIN BOND
M  V30 1 1 1 2
M  V30 2 1 2 3
M  V30 3 1 2 4
M  V30 4 2 3 5
M  V30 5 1 3 6
M  V30 6 1 4 7
M  V30 7 1 5 8
M  V30 8 1 6 9
M  V30 9 1 6 10
M  V30 10 1 6 11
M  V30 11 1 7 12
M  V30 12 2 8 13
M  V30 13 1 8 14
M  V30 14 1 10 15
M  V30 15 1 12 16
M  V30 16 1 12 17
M  V30 17 1 15 18
M  V30 18 1 15 19
M  V30 19 1 16 20
M  V30 20 1 16 21
M  V30 21 1 17 22
M  V30 22 1 20 23
M  V30 23 1 20 24
M  V30 24 1 22 25
M  V30 25 2 24 26
M  V30 26 1 24 27
M  V30 27 1 27 28
M  V30 28 1 28 29
M  V30 29 2 29 30
M  V30 30 1 29 31
M  V30 31 1 7 10
M  V30 32 2 9 14
M  V30 33 1 16 19
M  V30 34 1 20 22
M  V30 35 1 2 32
M  V30 36 1 4 33
M  V30 37 1 4 34
M  V30 38 1 5 35
M  V30 39 1 7 36
M  V30 40 1 9 37
M  V30 41 1 10 38
M  V30 42 1 11 39
M  V30 43 1 11 40
M  V30 44 1 11 41
M  V30 45 1 12 42
M  V30 46 1 14 43
M  V30 47 1 15 44
M  V30 48 1 17 45
M  V30 49 1 17 46
M  V30 50 1 18 47
M  V30 51 1 19 48
M  V30 52 1 19 49
M  V30 53 1 21 50
M  V30 54 1 21 51
M  V30 55 1 21 52
M  V30 56 1 22 53
M  V30 57 1 23 54
M  V30 58 1 25 55
M  V30 59 1 25 56
M  V30 60 1 25 57
M  V30 61 1 27 58
M  V30 62 1 27 59
M  V30 63 1 31 60
M  V30 64 1 31 61
M  V30 65 1 31 62
M  V30 END BOND
M  V30 BEGIN COLLECTION
M  V30 MDLV30/STEABS ATOMS=(9 2 6 7 10 12 15 16 20 22)
M  V30 END COLLECTION
M  V30 END CTAB
M  END
>  <NO.>
1173

>  <Name>
paramethasone-acetate

>  <SMILES>
CC(=O)OCC(=O)[C@@]1(O)[C@H](C)C[C@H]2[C@@H]3C[C@H](F)C4=CC(=O)C=C[C@]4(C)[C@H]3[C@@H](O)C[C@@]21C

>  <logBB>


>  <Class>
1

>  <MW>
434.21

>  <nHBAcc>
6

>  <nHBDon>
2

>  <SLogP>
2.32

>  <TopoPSA>
100.9

>  <MMFF94 Energy>
111.23

$$$$
CC(=O)OCC(=O)[C@@]1(O)[C@H](OC(C)=O)C[C@H]2[C@@H]3CCC4=CC(=O)C=C[C@]4(C)[C@@]3(F)[C@@H](O)C[C@@]21C
Actelion Java MolfileCreator 2.0

  0  0  0  0  0  0              0 V3000
M  V30 BEGIN CTAB
M  V30 COUNTS 65 68 0 0 0
M  V30 BEGIN ATOM
M  V30 1 F 0.0 -0.6469 -2.5895 0
M  V30 2 C -0.53 -1.4794 -1.6136 0 CFG=2
M  V30 3 C -0.9034 -2.834 -2.3453 0 CFG=2
M  V30 4 C -1.732 -0.6771 -1.0233 0 CFG=1
M  V30 5 C 0.6144 -1.6776 -0.5643 0 CFG=2
M  V30 6 C 0.3979 -3.4361 -2.9081 0
M  V30 7 C -1.9148 -2.5871 -3.4648 0
M  V30 8 C -1.547 -3.8911 -1.4182 0
M  V30 9 O -2.5445 -1.4667 -0.161 0
M  V30 10 C -1.3051 0.6106 -0.2795 0
M  V30 11 C 0.9807 -0.3114 0.0372 0 CFG=1
M  V30 12 C 1.8499 -2.3324 -1.2103 0
M  V30 13 C 0.5862 -3.7252 -4.2081 0
M  V30 14 C 1.5108 -3.6423 -1.9131 0
M  V30 15 C -1.7216 -2.8758 -4.7586 0
M  V30 16 C -0.1954 0.3789 0.7697 0 CFG=1
M  V30 17 C 2.1367 -0.2377 1.0337 0
M  V30 18 C -0.4587 -3.4795 -5.2221 0
M  V30 19 C 0.5427 1.6542 1.2888 0 CFG=1
M  V30 20 C -0.7433 -0.4447 1.9652 0
M  V30 21 C 1.9066 1.0825 1.808 0 CFG=2
M  V30 22 O -0.2845 -3.766 -6.3998 0
M  V30 23 O 0.7963 2.5469 0.1938 0
M  V30 24 C -0.2028 2.4224 2.3987 0
M  V30 25 O 2.9481 2.0456 1.5382 0
M  V30 26 O -0.0196 2.1745 3.5932 0
M  V30 27 C -1.2011 3.4826 1.9423 0
M  V30 28 C 4.1378 1.8007 2.1589 0
M  V30 29 O -1.8912 4.0331 3.0663 0
M  V30 30 O 4.379 0.8406 2.8747 0
M  V30 31 C 5.1206 2.8803 1.8248 0
M  V30 32 C -2.8895 4.8922 2.736 0
M  V30 33 O -3.2138 5.1897 1.5953 0
M  V30 34 C -3.5445 5.4247 3.9731 0
M  V30 35 H -2.374 -0.3562 -1.852 0
M  V30 36 H 0.2721 -2.3446 0.2332 0
M  V30 37 H -2.8775 -2.1676 -3.1813 0
M  V30 38 H -2.5889 -3.6554 -1.1766 0
M  V30 39 H -1.564 -4.8788 -1.8979 0
M  V30 40 H -1.01 -4.0059 -0.4721 0
M  V30 41 H -3.3327 -0.9421 0.0686 0
M  V30 42 H -2.1821 1.0528 0.2066 0
M  V30 43 H -0.9639 1.3304 -1.0335 0
M  V30 44 H 1.2839 0.323 -0.8114 0
M  V30 45 H 2.3049 -1.6403 -1.9312 0
M  V30 46 H 2.6099 -2.5343 -0.4463 0
M  V30 47 H 1.5134 -4.1355 -4.5914 0
M  V30 48 H 2.4151 -4.027 -2.4003 0
M  V30 49 H 1.2151 -4.3989 -1.1772 0
M  V30 50 H -2.4741 -2.6936 -5.5159 0
M  V30 51 H 3.1046 -0.2639 0.5231 0
M  V30 52 H 2.0972 -1.0859 1.7269 0
M  V30 53 H -1.6345 0.035 2.386 0
M  V30 54 H -0.0173 -0.5431 2.7782 0
M  V30 55 H -1.0269 -1.4627 1.6929 0
M  V30 56 H 1.878 0.872 2.8839 0
M  V30 57 H 1.6781 2.9399 0.3529 0
M  V30 58 H -0.6497 4.283 1.4384 0
M  V30 59 H -1.9191 3.0151 1.264 0
M  V30 60 H 5.3131 2.8855 0.7492 0
M  V30 61 H 4.7331 3.8485 2.1517 0
M  V30 62 H 6.0616 2.6883 2.3482 0
M  V30 63 H -3.9853 4.6025 4.5422 0
M  V30 64 H -2.8109 5.9627 4.5787 0
M  V30 65 H -4.3403 6.12 3.6912 0
M  V30 END ATOM
M  V30 BEGIN BOND
M  V30 1 1 1 2
M  V30 2 1 2 3
M  V30 3 1 2 4
M  V30 4 1 2 5
M  V30 5 1 3 6
M  V30 6 1 3 7
M  V30 7 1 3 8
M  V30 8 1 4 9
M  V30 9 1 4 10
M  V30 10 1 5 11
M  V30 11 1 5 12
M  V30 12 2 6 13
M  V30 13 1 6 14
M  V30 14 2 7 15
M  V30 15 1 10 16
M  V30 16 1 11 17
M  V30 17 1 13 18
M  V30 18 1 16 19
M  V30 19 1 16 20
M  V30 20 1 17 21
M  V30 21 2 18 22
M  V30 22 1 19 23
M  V30 23 1 19 24
M  V30 24 1 21 25
M  V30 25 2 24 26
M  V30 26 1 24 27
M  V30 27 1 25 28
M  V30 28 1 27 29
M  V30 29 2 28 30
M  V30 30 1 28 31
M  V30 31 1 29 32
M  V30 32 2 32 33
M  V30 33 1 32 34
M  V30 34 1 11 16
M  V30 35 1 12 14
M  V30 36 1 15 18
M  V30 37 1 19 21
M  V30 38 1 4 35
M  V30 39 1 5 36
M  V30 40 1 7 37
M  V30 41 1 8 38
M  V30 42 1 8 39
M  V30 43 1 8 40
M  V30 44 1 9 41
M  V30 45 1 10 42
M  V30 46 1 10 43
M  V30 47 1 11 44
M  V30 48 1 12 45
M  V30 49 1 12 46
M  V30 50 1 13 47
M  V30 51 1 14 48
M  V30 52 1 14 49
M  V30 53 1 15 50
M  V30 54 1 17 51
M  V30 55 1 17 52
M  V30 56 1 20 53
M  V30 57 1 20 54
M  V30 58 1 20 55
M  V30 59 1 21 56
M  V30 60 1 23 57
M  V30 61 1 27 58
M  V30 62 1 27 59
M  V30 63 1 31 60
M  V30 64 1 31 61
M  V30 65 1 31 62
M  V30 66 1 34 63
M  V30 67 1 34 64
M  V30 68 1 34 65
M  V30 END BOND
M  V30 BEGIN COLLECTION
M  V30 MDLV30/STEABS ATOMS=(8 2 3 4 5 11 16 19 21)
M  V30 END COLLECTION
M  V30 END CTAB
M  END
>  <NO.>
1174

>  <Name>
triamcinolone-diacetate

>  <SMILES>
CC(=O)OCC(=O)[C@@]1(O)[C@H](OC(C)=O)C[C@H]2[C@@H]3CCC4=CC(=O)C=C[C@]4(C)[C@@]3(F)[C@@H](O)C[C@@]21C

>  <logBB>


>  <Class>
1

>  <MW>
478.2

>  <nHBAcc>
8

>  <nHBDon>
2

>  <SLogP>
1.76

>  <TopoPSA>
127.2

>  <MMFF94 Energy>
146.6

$$$$
CC(=O)OCC(=O)[C@@]1(OC(=O)C(C)C)[C@@H](C)C[C@H]2[C@@H]3CCC4=CC(=O)C=C[C@]4(C)[C@@]3(F)[C@@H](O)C[C@@]21C
Actelion Java MolfileCreator 2.0

  0  0  0  0  0  0              0 V3000
M  V30 BEGIN CTAB
M  V30 COUNTS 73 76 0 0 0
M  V30 BEGIN ATOM
M  V30 1 F -0.4025 0.2415 2.6591 0
M  V30 2 C -0.1439 -1.0779 2.314 0 CFG=2
M  V30 3 C -0.1209 -1.8946 3.6711 0 CFG=2
M  V30 4 C 1.2086 -1.0226 1.5389 0 CFG=1
M  V30 5 C -1.329 -1.5103 1.3882 0 CFG=2
M  V30 6 C -1.5183 -1.7823 4.3083 0
M  V30 7 C 0.9506 -1.3505 4.6161 0
M  V30 8 C 0.1953 -3.3976 3.4924 0
M  V30 9 O 1.7437 -2.3156 1.2817 0
M  V30 10 C 1.1153 -0.231 0.2132 0
M  V30 11 C -1.3448 -0.6083 0.143 0 CFG=1
M  V30 12 C -2.6753 -1.4208 2.1325 0
M  V30 13 C -1.7408 -1.2919 5.5408 0
M  V30 14 C -2.6724 -2.2082 3.4381 0
M  V30 15 C 0.7236 -0.8619 5.8426 0
M  V30 16 C -0.0504 -0.6808 -0.7008 0 CFG=1
M  V30 17 C -2.4375 -0.8247 -0.8935 0
M  V30 18 C -0.6409 -0.8072 6.3986 0
M  V30 19 C -0.4259 0.3039 -1.891 0 CFG=1
M  V30 20 C 0.2322 -2.109 -1.2451 0
M  V30 21 C -1.9735 0.0328 -2.0973 0 CFG=1
M  V30 22 O -0.8526 -0.3774 7.5255 0
M  V30 23 O -0.2939 1.6548 -1.3566 0
M  V30 24 C 0.5254 0.0764 -3.1098 0
M  V30 25 C -2.4349 -0.587 -3.4099 0
M  V30 26 C -0.6126 2.7123 -2.1554 0
M  V30 27 O 0.3165 -0.7948 -3.9582 0
M  V30 28 C 1.8005 0.9172 -3.1604 0
M  V30 29 O -0.9316 2.6117 -3.3296 0
M  V30 30 C -0.4746 4.0088 -1.382 0
M  V30 31 O 2.8077 0.2606 -3.9317 0
M  V30 32 C 1.001 4.3482 -1.2076 0
M  V30 33 C -1.216 5.1399 -2.0885 0
M  V30 34 C 3.9942 0.9207 -3.9567 0
M  V30 35 O 4.2363 1.9539 -3.3485 0
M  V30 36 C 4.9731 0.1945 -4.8264 0
M  V30 37 H 1.9434 -0.497 2.1595 0
M  V30 38 H -1.1967 -2.5528 1.083 0
M  V30 39 H 1.9821 -1.3898 4.2734 0
M  V30 40 H 1.2552 -3.5787 3.2848 0
M  V30 41 H -0.3795 -3.8563 2.6827 0
M  V30 42 H -0.0344 -3.9608 4.4067 0
M  V30 43 H 2.6233 -2.2031 0.8787 0
M  V30 44 H 1.0032 0.8277 0.4755 0
M  V30 45 H 2.0623 -0.3243 -0.3306 0
M  V30 46 H -1.4692 0.423 0.5104 0
M  V30 47 H -2.9162 -0.3703 2.343 0
M  V30 48 H -3.4809 -1.8066 1.497 0
M  V30 49 H -2.7327 -1.2057 5.9698 0
M  V30 50 H -2.6046 -3.2821 3.2304 0
M  V30 51 H -3.6325 -2.0554 3.946 0
M  V30 52 H 1.5182 -0.4984 6.4826 0
M  V30 53 H -3.4152 -0.4857 -0.5338 0
M  V30 54 H -2.5362 -1.8839 -1.1558 0
M  V30 55 H 0.2044 -2.8791 -0.4724 0
M  V30 56 H -0.4897 -2.4217 -2.004 0
M  V30 57 H 1.2259 -2.1581 -1.7049 0
M  V30 58 H -2.5133 0.9849 -2.0065 0
M  V30 59 H -2.032 -1.5927 -3.5579 0
M  V30 60 H -2.1505 0.0387 -4.2614 0
M  V30 61 H -3.5274 -0.6738 -3.4223 0
M  V30 62 H 1.5641 1.8766 -3.6293 0
M  V30 63 H 2.1692 1.0683 -2.1424 0
M  V30 64 H -0.9419 3.8642 -0.4001 0
M  V30 65 H 1.1243 5.2803 -0.6465 0
M  V30 66 H 1.5251 3.5557 -0.6625 0
M  V30 67 H 1.4991 4.4626 -2.1767 0
M  V30 68 H -2.2721 4.8848 -2.2291 0
M  V30 69 H -0.7903 5.342 -3.0777 0
M  V30 70 H -1.1662 6.0635 -1.5024 0
M  V30 71 H 5.1704 -0.7975 -4.4132 0
M  V30 72 H 4.5798 0.1174 -5.8431 0
M  V30 73 H 5.9125 0.7536 -4.8593 0
M  V30 END ATOM
M  V30 BEGIN BOND
M  V30 1 1 1 2
M  V30 2 1 2 3
M  V30 3 1 2 4
M  V30 4 1 2 5
M  V30 5 1 3 6
M  V30 6 1 3 7
M  V30 7 1 3 8
M  V30 8 1 4 9
M  V30 9 1 4 10
M  V30 10 1 5 11
M  V30 11 1 5 12
M  V30 12 2 6 13
M  V30 13 1 6 14
M  V30 14 2 7 15
M  V30 15 1 10 16
M  V30 16 1 11 17
M  V30 17 1 13 18
M  V30 18 1 16 19
M  V30 19 1 16 20
M  V30 20 1 17 21
M  V30 21 2 18 22
M  V30 22 1 19 23
M  V30 23 1 19 24
M  V30 24 1 21 25
M  V30 25 1 23 26
M  V30 26 2 24 27
M  V30 27 1 24 28
M  V30 28 2 26 29
M  V30 29 1 26 30
M  V30 30 1 28 31
M  V30 31 1 30 32
M  V30 32 1 30 33
M  V30 33 1 31 34
M  V30 34 2 34 35
M  V30 35 1 34 36
M  V30 36 1 11 16
M  V30 37 1 12 14
M  V30 38 1 15 18
M  V30 39 1 19 21
M  V30 40 1 4 37
M  V30 41 1 5 38
M  V30 42 1 7 39
M  V30 43 1 8 40
M  V30 44 1 8 41
M  V30 45 1 8 42
M  V30 46 1 9 43
M  V30 47 1 10 44
M  V30 48 1 10 45
M  V30 49 1 11 46
M  V30 50 1 12 47
M  V30 51 1 12 48
M  V30 52 1 13 49
M  V30 53 1 14 50
M  V30 54 1 14 51
M  V30 55 1 15 52
M  V30 56 1 17 53
M  V30 57 1 17 54
M  V30 58 1 20 55
M  V30 59 1 20 56
M  V30 60 1 20 57
M  V30 61 1 21 58
M  V30 62 1 25 59
M  V30 63 1 25 60
M  V30 64 1 25 61
M  V30 65 1 28 62
M  V30 66 1 28 63
M  V30 67 1 30 64
M  V30 68 1 32 65
M  V30 69 1 32 66
M  V30 70 1 32 67
M  V30 71 1 33 68
M  V30 72 1 33 69
M  V30 73 1 33 70
M  V30 74 1 36 71
M  V30 75 1 36 72
M  V30 76 1 36 73
M  V30 END BOND
M  V30 BEGIN COLLECTION
M  V30 MDLV30/STEABS ATOMS=(8 2 3 4 5 11 16 19 21)
M  V30 END COLLECTION
M  V30 END CTAB
M  END
>  <NO.>
1175

>  <Name>
betamethasone-acetate(dexamethasone-acetate)

>  <SMILES>
CC(=O)OCC(=O)[C@@]1(OC(=O)C(C)C)[C@@H](C)C[C@H]2[C@@H]3CCC4=CC(=O)C=C[C@]4(C)[C@@]3(F)[C@@H](O)C[C@@]21C

>  <logBB>


>  <Class>
1

>  <MW>
504.25

>  <nHBAcc>
7

>  <nHBDon>
1

>  <SLogP>
3.67

>  <TopoPSA>
106.97

>  <MMFF94 Energy>
138.94

$$$$
CC(=O)OCC(=O)[C@@]1(OC(=O)c2ccco2)[C@H](C)C[C@H]2[C@@H]3CCC4=CC(=O)C=C[C@]4(C)[C@@]3(F)[C@@H](O)C[C@@]21C
Actelion Java MolfileCreator 2.0

  0  0  0  0  0  0              0 V3000
M  V30 BEGIN CTAB
M  V30 COUNTS 71 75 0 0 0
M  V30 BEGIN ATOM
M  V30 1 F 0.3241 0.7294 2.3517 0
M  V30 2 C -0.9509 1.0527 1.9063 0 CFG=2
M  V30 3 C -1.6775 1.7658 3.1193 0 CFG=2
M  V30 4 C -1.5655 -0.3086 1.459 0 CFG=1
M  V30 5 C -0.7401 2.0212 0.6956 0 CFG=2
M  V30 6 C -0.8936 3.051 3.4431 0
M  V30 7 C -1.7346 0.8442 4.3378 0
M  V30 8 C -3.1408 2.1678 2.8233 0
M  V30 9 O -2.951 -0.2089 1.1517 0
M  V30 10 C -0.822 -0.943 0.2601 0
M  V30 11 C 0.0568 1.2862 -0.3946 0 CFG=1
M  V30 12 C -0.0012 3.301 1.132 0
M  V30 13 C -0.3599 3.3175 4.6486 0
M  V30 14 C -0.6935 4.0049 2.2939 0
M  V30 15 C -1.2 1.1138 5.5363 0
M  V30 16 C -0.6424 0.0172 -0.9426 0 CFG=1
M  V30 17 C 0.4574 2.057 -1.6457 0
M  V30 18 C -0.4803 2.3773 5.7809 0
M  V30 19 C 0.4182 -0.4268 -2.0373 0 CFG=1
M  V30 20 C -2.0163 0.3222 -1.6013 0
M  V30 21 C 0.7604 0.9668 -2.7054 0 CFG=2
M  V30 22 O -0.0013 2.6351 6.8778 0
M  V30 23 O 1.568 -0.9119 -1.3049 0
M  V30 24 C -0.2045 -1.4208 -3.0712 0
M  V30 25 C 2.1723 1.1195 -3.2619 0
M  V30 26 C 2.5232 -1.6741 -1.9063 0
M  V30 27 O -0.4834 -1.0688 -4.2211 0
M  V30 28 C -0.5388 -2.8246 -2.5749 0
M  V30 29 O 2.4503 -2.0822 -3.0558 0
M  V30 30 C 3.5879 -1.9313 -0.9668 0
M  V30 31 O -0.6331 -3.7429 -3.6617 0
M  V30 32 O 4.632 -2.7236 -1.3654 0
M  V30 33 C 3.8014 -1.5268 0.3407 0
M  V30 34 C -0.9786 -5.0001 -3.2836 0
M  V30 35 C 5.4945 -2.8167 -0.3222 0
M  V30 36 C 5.0296 -2.0984 0.7524 0
M  V30 37 O -1.2186 -5.3461 -2.1348 0
M  V30 38 C -1.0299 -5.9051 -4.4753 0
M  V30 39 H -1.4765 -1.0195 2.2886 0
M  V30 40 H -1.7113 2.3273 0.2942 0
M  V30 41 H -2.2772 -0.092 4.2288 0
M  V30 42 H -3.8185 1.3075 2.8287 0
M  V30 43 H -3.5227 2.859 3.5865 0
M  V30 44 H -3.2539 2.6668 1.8564 0
M  V30 45 H -3.2954 -1.1106 1.0186 0
M  V30 46 H -1.3629 -1.8398 -0.0575 0
M  V30 47 H 0.1563 -1.2797 0.6231 0
M  V30 48 H 1.0042 0.9863 0.0809 0
M  V30 49 H 0.0642 4.0012 0.291 0
M  V30 50 H 1.0302 3.0568 1.4187 0
M  V30 51 H 0.2023 4.2206 4.8568 0
M  V30 52 H -1.6609 4.4054 1.9701 0
M  V30 53 H -0.0899 4.8702 2.5942 0
M  V30 54 H -1.2773 0.4343 6.3762 0
M  V30 55 H -0.3619 2.698 -1.9921 0
M  V30 56 H 1.319 2.7056 -1.4536 0
M  V30 57 H -2.6805 0.9035 -0.9592 0
M  V30 58 H -2.545 -0.6047 -1.8471 0
M  V30 59 H -1.9244 0.8932 -2.5298 0
M  V30 60 H 0.0795 1.1562 -3.5449 0
M  V30 61 H 2.2902 2.1034 -3.7297 0
M  V30 62 H 2.3737 0.3685 -4.0308 0
M  V30 63 H 2.9323 1.04 -2.4787 0
M  V30 64 H 0.2325 -3.1652 -1.8792 0
M  V30 65 H -1.5071 -2.7713 -2.0685 0
M  V30 66 H 3.1472 -0.8923 0.9244 0
M  V30 67 H 6.3759 -3.4182 -0.4977 0
M  V30 68 H 5.5168 -1.9986 1.7126 0
M  V30 69 H -1.7884 -5.5504 -5.1774 0
M  V30 70 H -0.0486 -5.9427 -4.9546 0
M  V30 71 H -1.2983 -6.9148 -4.1518 0
M  V30 END ATOM
M  V30 BEGIN BOND
M  V30 1 1 1 2
M  V30 2 1 2 3
M  V30 3 1 2 4
M  V30 4 1 2 5
M  V30 5 1 3 6
M  V30 6 1 3 7
M  V30 7 1 3 8
M  V30 8 1 4 9
M  V30 9 1 4 10
M  V30 10 1 5 11
M  V30 11 1 5 12
M  V30 12 2 6 13
M  V30 13 1 6 14
M  V30 14 2 7 15
M  V30 15 1 10 16
M  V30 16 1 11 17
M  V30 17 1 13 18
M  V30 18 1 16 19
M  V30 19 1 16 20
M  V30 20 1 17 21
M  V30 21 2 18 22
M  V30 22 1 19 23
M  V30 23 1 19 24
M  V30 24 1 21 25
M  V30 25 1 23 26
M  V30 26 2 24 27
M  V30 27 1 24 28
M  V30 28 2 26 29
M  V30 29 1 26 30
M  V30 30 1 28 31
M  V30 31 1 30 32
M  V30 32 2 30 33
M  V30 33 1 31 34
M  V30 34 1 32 35
M  V30 35 1 33 36
M  V30 36 2 34 37
M  V30 37 1 34 38
M  V30 38 1 11 16
M  V30 39 1 12 14
M  V30 40 1 15 18
M  V30 41 1 19 21
M  V30 42 2 35 36
M  V30 43 1 4 39
M  V30 44 1 5 40
M  V30 45 1 7 41
M  V30 46 1 8 42
M  V30 47 1 8 43
M  V30 48 1 8 44
M  V30 49 1 9 45
M  V30 50 1 10 46
M  V30 51 1 10 47
M  V30 52 1 11 48
M  V30 53 1 12 49
M  V30 54 1 12 50
M  V30 55 1 13 51
M  V30 56 1 14 52
M  V30 57 1 14 53
M  V30 58 1 15 54
M  V30 59 1 17 55
M  V30 60 1 17 56
M  V30 61 1 20 57
M  V30 62 1 20 58
M  V30 63 1 20 59
M  V30 64 1 21 60
M  V30 65 1 25 61
M  V30 66 1 25 62
M  V30 67 1 25 63
M  V30 68 1 28 64
M  V30 69 1 28 65
M  V30 70 1 33 66
M  V30 71 1 35 67
M  V30 72 1 36 68
M  V30 73 1 38 69
M  V30 74 1 38 70
M  V30 75 1 38 71
M  V30 END BOND
M  V30 BEGIN COLLECTION
M  V30 MDLV30/STEABS ATOMS=(8 2 3 4 5 11 16 19 21)
M  V30 END COLLECTION
M  V30 END CTAB
M  END
>  <NO.>
1176

>  <Name>
dexamethasone-acefurate

>  <SMILES>
CC(=O)OCC(=O)[C@@]1(OC(=O)c2ccco2)[C@H](C)C[C@H]2[C@@H]3CCC4=CC(=O)C=C[C@]4(C)[C@@]3(F)[C@@H](O)C[C@@]21C

>  <logBB>


>  <Class>
1

>  <MW>
528.22

>  <nHBAcc>
8

>  <nHBDon>
1

>  <SLogP>
3.92

>  <TopoPSA>
120.11

>  <MMFF94 Energy>
161.36

$$$$
CC(=O)OCC(=O)[C@@]1(OC(C)=O)[C@@H](C)C[C@H]2[C@@H]3C[C@H](F)C4=CC(=O)C=C[C@]4(C)[C@@]3(F)[C@@H](O)C[C@@]21C
Actelion Java MolfileCreator 2.0

  0  0  0  0  0  0              0 V3000
M  V30 BEGIN CTAB
M  V30 COUNTS 67 70 0 0 0
M  V30 BEGIN ATOM
M  V30 1 F 2.1881 -0.1619 1.4583 0
M  V30 2 C 1.3473 0.939 1.5245 0 CFG=2
M  V30 3 C 1.9755 1.9088 2.6099 0 CFG=2
M  V30 4 C -0.0526 0.3489 1.8771 0 CFG=1
M  V30 5 C 1.3695 1.5687 0.0922 0 CFG=2
M  V30 6 C 3.371 2.328 2.1141 0
M  V30 7 C 2.0692 1.214 3.9686 0
M  V30 8 C 1.1534 3.1965 2.8504 0
M  V30 9 O -1.0023 1.3618 2.1872 0
M  V30 10 C -0.6205 -0.5694 0.7693 0
M  V30 11 C 0.8423 0.5347 -0.9163 0 CFG=1
M  V30 12 C 2.7918 2.0149 -0.2898 0
M  V30 13 C 4.5043 2.1219 2.8094 0
M  V30 14 C 3.4077 2.9495 0.7424 0 CFG=2
M  V30 15 C 3.2011 1.0106 4.6557 0
M  V30 16 C -0.6076 0.071 -0.6402 0 CFG=1
M  V30 17 C 0.8014 0.9162 -2.3887 0
M  V30 18 C 4.5029 1.4606 4.1286 0
M  V30 19 F 4.6863 3.2142 0.3485 0
M  V30 20 C -0.8321 -0.9216 -1.8626 0 CFG=1
M  V30 21 C -1.6318 1.2394 -0.6932 0
M  V30 22 C -0.031 -0.2183 -3.0366 0 CFG=1
M  V30 23 O 5.5366 1.2919 4.7622 0
M  V30 24 O -0.1153 -2.1477 -1.5285 0
M  V30 25 C -2.3575 -1.1878 -2.077 0
M  V30 26 C -0.8085 0.3031 -4.2384 0
M  V30 27 C -0.0897 -3.1577 -2.4401 0
M  V30 28 O -3.0722 -0.4346 -2.7439 0
M  V30 29 C -2.9661 -2.3757 -1.3328 0
M  V30 30 O -0.7065 -3.1588 -3.4934 0
M  V30 31 C 0.7731 -4.2778 -1.9494 0
M  V30 32 O -4.3707 -2.1873 -1.1495 0
M  V30 33 C -4.9628 -3.1597 -0.4093 0
M  V30 34 O -4.3782 -4.0969 0.1155 0
M  V30 35 C -6.4368 -2.9135 -0.3134 0
M  V30 36 H 0.0469 -0.2743 2.7732 0
M  V30 37 H 0.7331 2.4589 0.0703 0
M  V30 38 H 1.1386 0.8834 4.4253 0
M  V30 39 H 0.2482 3.01 3.4383 0
M  V30 40 H 0.8439 3.6801 1.9191 0
M  V30 41 H 1.7349 3.9362 3.4169 0
M  V30 42 H -1.8229 0.9262 2.4813 0
M  V30 43 H -0.0223 -1.4883 0.7724 0
M  V30 44 H -1.6457 -0.8574 1.0298 0
M  V30 45 H 1.5116 -0.3374 -0.8428 0
M  V30 46 H 3.4439 1.1412 -0.4224 0
M  V30 47 H 2.7836 2.5282 -1.2588 0
M  V30 48 H 5.4808 2.4113 2.4352 0
M  V30 49 H 2.8813 3.9094 0.7504 0
M  V30 50 H 3.2175 0.5236 5.6233 0
M  V30 51 H 1.8039 0.9573 -2.8283 0
M  V30 52 H 0.3411 1.8999 -2.5346 0
M  V30 53 H -1.7647 1.6384 -1.7024 0
M  V30 54 H -2.6166 0.9071 -0.3449 0
M  V30 55 H -1.3488 2.0907 -0.0717 0
M  V30 56 H 0.7028 -0.9298 -3.4377 0
M  V30 57 H -1.5069 1.0998 -3.9669 0
M  V30 58 H -1.3624 -0.5036 -4.7283 0
M  V30 59 H -0.119 0.7202 -4.9811 0
M  V30 60 H -2.8049 -3.2785 -1.9285 0
M  V30 61 H -2.4841 -2.469 -0.356 0
M  V30 62 H 1.7796 -3.9062 -1.7405 0
M  V30 63 H 0.3315 -4.7184 -1.0521 0
M  V30 64 H 0.8428 -5.0471 -2.7236 0
M  V30 65 H -6.6216 -1.9672 0.201 0
M  V30 66 H -6.8765 -2.9003 -1.3139 0
M  V30 67 H -6.9024 -3.7205 0.2595 0
M  V30 END ATOM
M  V30 BEGIN BOND
M  V30 1 1 1 2
M  V30 2 1 2 3
M  V30 3 1 2 4
M  V30 4 1 2 5
M  V30 5 1 3 6
M  V30 6 1 3 7
M  V30 7 1 3 8
M  V30 8 1 4 9
M  V30 9 1 4 10
M  V30 10 1 5 11
M  V30 11 1 5 12
M  V30 12 2 6 13
M  V30 13 1 6 14
M  V30 14 2 7 15
M  V30 15 1 10 16
M  V30 16 1 11 17
M  V30 17 1 13 18
M  V30 18 1 14 19
M  V30 19 1 16 20
M  V30 20 1 16 21
M  V30 21 1 17 22
M  V30 22 2 18 23
M  V30 23 1 20 24
M  V30 24 1 20 25
M  V30 25 1 22 26
M  V30 26 1 24 27
M  V30 27 2 25 28
M  V30 28 1 25 29
M  V30 29 2 27 30
M  V30 30 1 27 31
M  V30 31 1 29 32
M  V30 32 1 32 33
M  V30 33 2 33 34
M  V30 34 1 33 35
M  V30 35 1 11 16
M  V30 36 1 12 14
M  V30 37 1 15 18
M  V30 38 1 20 22
M  V30 39 1 4 36
M  V30 40 1 5 37
M  V30 41 1 7 38
M  V30 42 1 8 39
M  V30 43 1 8 40
M  V30 44 1 8 41
M  V30 45 1 9 42
M  V30 46 1 10 43
M  V30 47 1 10 44
M  V30 48 1 11 45
M  V30 49 1 12 46
M  V30 50 1 12 47
M  V30 51 1 13 48
M  V30 52 1 14 49
M  V30 53 1 15 50
M  V30 54 1 17 51
M  V30 55 1 17 52
M  V30 56 1 21 53
M  V30 57 1 21 54
M  V30 58 1 21 55
M  V30 59 1 22 56
M  V30 60 1 26 57
M  V30 61 1 26 58
M  V30 62 1 26 59
M  V30 63 1 29 60
M  V30 64 1 29 61
M  V30 65 1 31 62
M  V30 66 1 31 63
M  V30 67 1 31 64
M  V30 68 1 35 65
M  V30 69 1 35 66
M  V30 70 1 35 67
M  V30 END BOND
M  V30 BEGIN COLLECTION
M  V30 MDLV30/STEABS ATOMS=(9 2 3 4 5 11 14 16 20 22)
M  V30 END COLLECTION
M  V30 END CTAB
M  END
>  <NO.>
1177

>  <Name>
diflorasone diacetate

>  <SMILES>
CC(=O)OCC(=O)[C@@]1(OC(C)=O)[C@@H](C)C[C@H]2[C@@H]3C[C@H](F)C4=CC(=O)C=C[C@]4(C)[C@@]3(F)[C@@H](O)C[C@@]21C

>  <logBB>


>  <Class>
1

>  <MW>
494.21

>  <nHBAcc>
7

>  <nHBDon>
1

>  <SLogP>
2.99

>  <TopoPSA>
106.97

>  <MMFF94 Energy>
130.56

$$$$
CC(=O)OCC(=O)[C@@]12N=C(C)O[C@@H]1C[C@H]1[C@@H]3CCC4=CC(=O)C=C[C@]4(C)[C@H]3[C@@H](O)C[C@@]12C
Actelion Java MolfileCreator 2.0

  0  0  0  0  0  0              0 V3000
M  V30 BEGIN CTAB
M  V30 COUNTS 63 67 0 0 0
M  V30 BEGIN ATOM
M  V30 1 O 6.7334 -3.0785 0.2427 0
M  V30 2 C 5.8987 -2.1893 0.1323 0
M  V30 3 C 5.1507 -1.9894 -1.125 0
M  V30 4 C 5.5927 -1.2804 1.2521 0
M  V30 5 C 4.2325 -1.0156 -1.2582 0
M  V30 6 C 4.6799 -0.3088 1.1211 0
M  V30 7 C 3.8751 -0.0199 -0.1424 0 CFG=2
M  V30 8 C 3.4434 -0.8823 -2.535 0
M  V30 9 C 2.3319 -0.1793 0.1447 0 CFG=1
M  V30 10 C 4.2923 1.3938 -0.6053 0
M  V30 11 C 1.9533 -1.0251 -2.2486 0
M  V30 12 C 1.764 0.6948 1.3044 0 CFG=1
M  V30 13 C 1.4702 -0.0476 -1.1613 0 CFG=1
M  V30 14 O 2.025 2.0726 1.0749 0
M  V30 15 C 0.2516 0.4844 1.5387 0
M  V30 16 C -1.0E-4 -0.3214 -0.8094 0 CFG=1
M  V30 17 C -0.5836 0.6414 0.2539 0 CFG=1
M  V30 18 C -1.0534 -0.2836 -1.9168 0
M  V30 19 C -2.0562 0.1224 0.3266 0 CFG=1
M  V30 20 C -0.5697 2.1229 -0.2311 0
M  V30 21 C -2.3891 -0.2047 -1.1429 0 CFG=2
M  V30 22 N -2.144 -1.197 1.015 0
M  V30 23 C -3.0772 1.0521 1.0248 0
M  V30 24 O -2.9915 -1.4947 -1.0853 0
M  V30 25 C -2.6897 -1.9777 0.1385 0
M  V30 26 O -2.7226 2.0277 1.6926 0
M  V30 27 C -4.5548 0.6729 0.9083 0
M  V30 28 C -3.0453 -3.4016 0.3599 0
M  V30 29 O -5.3819 1.6544 1.5364 0
M  V30 30 C -6.7083 1.3674 1.4863 0
M  V30 31 O -7.1951 0.3848 0.9447 0
M  V30 32 C -7.4958 2.432 2.1858 0
M  V30 33 H 5.3833 -2.6912 -1.9175 0
M  V30 34 H 6.1523 -1.4353 2.1664 0
M  V30 35 H 4.5219 0.3525 1.9706 0
M  V30 36 H 3.7383 -1.6432 -3.2678 0
M  V30 37 H 3.6486 0.0873 -3.0024 0
M  V30 38 H 2.1939 -1.2192 0.4878 0
M  V30 39 H 3.6366 1.7928 -1.385 0
M  V30 40 H 5.3114 1.3902 -1.0142 0
M  V30 41 H 4.2984 2.1167 0.2177 0
M  V30 42 H 1.7413 -2.0578 -1.9409 0
M  V30 43 H 1.3988 -0.8539 -3.1788 0
M  V30 44 H 2.2732 0.4314 2.2379 0
M  V30 45 H 1.5737 0.9623 -1.5687 0
M  V30 46 H 1.624 2.5762 1.8062 0
M  V30 47 H -0.1091 1.187 2.2998 0
M  V30 48 H 0.1196 -0.5224 1.9532 0
M  V30 49 H -0.0152 -1.3455 -0.4037 0
M  V30 50 H -0.9997 -1.1666 -2.5616 0
M  V30 51 H -0.9209 0.6073 -2.5406 0
M  V30 52 H -0.708 2.8162 0.6051 0
M  V30 53 H 0.365 2.4112 -0.7151 0
M  V30 54 H -1.3657 2.3313 -0.9542 0
M  V30 55 H -3.0781 0.4969 -1.6226 0
M  V30 56 H -4.8218 0.6131 -0.1505 0
M  V30 57 H -4.702 -0.2917 1.4046 0
M  V30 58 H -2.7061 -3.7253 1.3476 0
M  V30 59 H -2.5648 -4.0221 -0.4009 0
M  V30 60 H -4.1302 -3.5201 0.2989 0
M  V30 61 H -7.1898 2.4917 3.2333 0
M  V30 62 H -7.3467 3.3922 1.6856 0
M  V30 63 H -8.5594 2.1799 2.1479 0
M  V30 END ATOM
M  V30 BEGIN BOND
M  V30 1 2 1 2
M  V30 2 1 2 3
M  V30 3 1 2 4
M  V30 4 2 3 5
M  V30 5 2 4 6
M  V30 6 1 5 7
M  V30 7 1 5 8
M  V30 8 1 7 9
M  V30 9 1 7 10
M  V30 10 1 8 11
M  V30 11 1 9 12
M  V30 12 1 9 13
M  V30 13 1 12 14
M  V30 14 1 12 15
M  V30 15 1 13 16
M  V30 16 1 15 17
M  V30 17 1 16 18
M  V30 18 1 17 19
M  V30 19 1 17 20
M  V30 20 1 18 21
M  V30 21 1 19 22
M  V30 22 1 19 23
M  V30 23 1 21 24
M  V30 24 2 22 25
M  V30 25 2 23 26
M  V30 26 1 23 27
M  V30 27 1 25 28
M  V30 28 1 27 29
M  V30 29 1 29 30
M  V30 30 2 30 31
M  V30 31 1 30 32
M  V30 32 1 6 7
M  V30 33 1 11 13
M  V30 34 1 16 17
M  V30 35 1 19 21
M  V30 36 1 24 25
M  V30 37 1 3 33
M  V30 38 1 4 34
M  V30 39 1 6 35
M  V30 40 1 8 36
M  V30 41 1 8 37
M  V30 42 1 9 38
M  V30 43 1 10 39
M  V30 44 1 10 40
M  V30 45 1 10 41
M  V30 46 1 11 42
M  V30 47 1 11 43
M  V30 48 1 12 44
M  V30 49 1 13 45
M  V30 50 1 14 46
M  V30 51 1 15 47
M  V30 52 1 15 48
M  V30 53 1 16 49
M  V30 54 1 18 50
M  V30 55 1 18 51
M  V30 56 1 20 52
M  V30 57 1 20 53
M  V30 58 1 20 54
M  V30 59 1 21 55
M  V30 60 1 27 56
M  V30 61 1 27 57
M  V30 62 1 28 58
M  V30 63 1 28 59
M  V30 64 1 28 60
M  V30 65 1 32 61
M  V30 66 1 32 62
M  V30 67 1 32 63
M  V30 END BOND
M  V30 BEGIN COLLECTION
M  V30 MDLV30/STEABS ATOMS=(8 7 9 12 13 16 17 19 21)
M  V30 END COLLECTION
M  V30 END CTAB
M  END
>  <NO.>
1178

>  <Name>
deflazacort

>  <SMILES>
CC(=O)OCC(=O)[C@@]12N=C(C)O[C@@H]1C[C@H]1[C@@H]3CCC4=CC(=O)C=C[C@]4(C)[C@H]3[C@@H](O)C[C@@]12C

>  <logBB>


>  <Class>
1

>  <MW>
441.22

>  <nHBAcc>
7

>  <nHBDon>
1

>  <SLogP>
2.56

>  <TopoPSA>
102.26

>  <MMFF94 Energy>
114.83

$$$$
CC(=O)OCC(=O)[C@@]12OC(C)(C)O[C@@H]1CC1C3CC(C=O)=C4C=C(OCCCl)CCC4(C)[C@@]3(F)C(O)CC12C
Actelion Java MolfileCreator 2.0

  0  0  0  0  0  0              0 V3000
M  V30 BEGIN CTAB
M  V30 COUNTS 77 81 0 0 0
M  V30 BEGIN ATOM
M  V30 1 Cl -5.5319 -1.137 8.2249 0
M  V30 2 C -3.94 -0.3344 8.3118 0
M  V30 3 C -3.0609 -0.7151 7.1273 0
M  V30 4 O -3.5586 -0.0774 5.9477 0
M  V30 5 C -2.8684 -0.2553 4.7678 0
M  V30 6 C -1.7712 -1.0171 4.5967 0
M  V30 7 C -3.4706 0.5265 3.6309 0
M  V30 8 C -1.0709 -1.1302 3.3172 0
M  V30 9 C -2.6289 0.5255 2.3478 0
M  V30 10 C 0.248 -1.4114 3.2411 0
M  V30 11 C -1.9363 -0.8345 2.0587 0
M  V30 12 C 1.1239 -1.7128 4.4181 0
M  V30 13 C 1.0142 -1.3515 1.9543 0
M  V30 14 C -1.0899 -0.7944 0.7071 0 CFG=1
M  V30 15 C -3.0029 -1.9598 1.9221 0
M  V30 16 O 0.9982 -1.2131 5.5283 0
M  V30 17 C 0.3765 -0.3748 0.9532 0
M  V30 18 F -1.0134 -2.0893 0.2379 0
M  V30 19 C -1.7071 0.0619 -0.4354 0
M  V30 20 C 1.2498 -0.2677 -0.324 0
M  V30 21 O -3.0214 -0.3837 -0.772 0
M  V30 22 C -0.8468 0.0349 -1.7042 0
M  V30 23 C 0.6048 0.5293 -1.4804 0
M  V30 24 C 1.6549 -1.5988 -0.9869 0
M  V30 25 C 1.5413 0.1807 -2.6885 0 CFG=1
M  V30 26 C 0.5748 2.0411 -1.1763 0
M  V30 27 C 2.0282 -1.2455 -2.4263 0 CFG=2
M  V30 28 O 0.8378 0.1329 -3.9308 0
M  V30 29 C 2.7698 1.1079 -2.8082 0
M  V30 30 O 1.3258 -2.0681 -3.3565 0
M  V30 31 C 0.9701 -1.2037 -4.4331 0
M  V30 32 O 3.7224 1.0092 -2.0291 0
M  V30 33 C 2.7246 2.1674 -3.9056 0
M  V30 34 C -0.3574 -1.6529 -5.0278 0
M  V30 35 C 2.0649 -1.2378 -5.5003 0
M  V30 36 O 3.828 3.0648 -3.7752 0
M  V30 37 C 3.8644 4.0315 -4.7288 0
M  V30 38 O 3.0456 4.1647 -5.6269 0
M  V30 39 C 5.0537 4.9179 -4.5222 0
M  V30 40 H -3.475 -0.6461 9.2511 0
M  V30 41 H -4.1236 0.7435 8.3395 0
M  V30 42 H -2.0443 -0.3555 7.3268 0
M  V30 43 H -3.0451 -1.8039 6.9979 0
M  V30 44 H -1.3434 -1.5513 5.4377 0
M  V30 45 H -3.6305 1.5661 3.9428 0
M  V30 46 H -4.463 0.1112 3.4137 0
M  V30 47 H -1.868 1.3147 2.424 0
M  V30 48 H -3.2982 0.8157 1.5308 0
M  V30 49 H 1.9426 -2.421 4.2029 0
M  V30 50 H 2.0418 -1.0174 2.1493 0
M  V30 51 H 1.0807 -2.3664 1.5446 0
M  V30 52 H -3.6927 -1.7678 1.0963 0
M  V30 53 H -2.5296 -2.9328 1.7452 0
M  V30 54 H -3.6213 -2.0829 2.8169 0
M  V30 55 H 0.3636 0.6263 1.4084 0
M  V30 56 H -1.8121 1.0994 -0.1064 0
M  V30 57 H 2.1818 0.234 -0.0251 0
M  V30 58 H -3.315 0.0908 -1.5686 0
M  V30 59 H -0.8587 -0.9911 -2.0885 0
M  V30 60 H -1.3316 0.6372 -2.4843 0
M  V30 61 H 0.8562 -2.3451 -0.9698 0
M  V30 62 H 2.5143 -2.0355 -0.4659 0
M  V30 63 H 1.5724 2.4381 -0.9624 0
M  V30 64 H 0.1612 2.6 -2.0226 0
M  V30 65 H -0.0324 2.2786 -0.2983 0
M  V30 66 H 3.1016 -1.3901 -2.5931 0
M  V30 67 H 2.7816 1.6592 -4.8735 0
M  V30 68 H 1.7889 2.7275 -3.8127 0
M  V30 69 H -1.1491 -1.6404 -4.2718 0
M  V30 70 H -0.2958 -2.6779 -5.4083 0
M  V30 71 H -0.676 -0.987 -5.8368 0
M  V30 72 H 3.0314 -0.9271 -5.0889 0
M  V30 73 H 1.8334 -0.5558 -6.3254 0
M  V30 74 H 2.1981 -2.25 -5.8964 0
M  V30 75 H 4.985 5.4093 -3.5485 0
M  V30 76 H 5.9716 4.329 -4.5928 0
M  V30 77 H 5.0722 5.6864 -5.3003 0
M  V30 END ATOM
M  V30 BEGIN BOND
M  V30 1 1 1 2
M  V30 2 1 2 3
M  V30 3 1 3 4
M  V30 4 1 4 5
M  V30 5 2 5 6
M  V30 6 1 5 7
M  V30 7 1 6 8
M  V30 8 1 7 9
M  V30 9 2 8 10
M  V30 10 1 8 11
M  V30 11 1 10 12
M  V30 12 1 10 13
M  V30 13 1 11 14
M  V30 14 1 11 15
M  V30 15 2 12 16
M  V30 16 1 13 17
M  V30 17 1 14 18
M  V30 18 1 14 19
M  V30 19 1 17 20
M  V30 20 1 19 21
M  V30 21 1 19 22
M  V30 22 1 20 23
M  V30 23 1 20 24
M  V30 24 1 23 25
M  V30 25 1 23 26
M  V30 26 1 24 27
M  V30 27 1 25 28
M  V30 28 1 25 29
M  V30 29 1 27 30
M  V30 30 1 28 31
M  V30 31 2 29 32
M  V30 32 1 29 33
M  V30 33 1 31 34
M  V30 34 1 31 35
M  V30 35 1 33 36
M  V30 36 1 36 37
M  V30 37 2 37 38
M  V30 38 1 37 39
M  V30 39 1 9 11
M  V30 40 1 14 17
M  V30 41 1 22 23
M  V30 42 1 25 27
M  V30 43 1 30 31
M  V30 44 1 2 40
M  V30 45 1 2 41
M  V30 46 1 3 42
M  V30 47 1 3 43
M  V30 48 1 6 44
M  V30 49 1 7 45
M  V30 50 1 7 46
M  V30 51 1 9 47
M  V30 52 1 9 48
M  V30 53 1 12 49
M  V30 54 1 13 50
M  V30 55 1 13 51
M  V30 56 1 15 52
M  V30 57 1 15 53
M  V30 58 1 15 54
M  V30 59 1 17 55
M  V30 60 1 19 56
M  V30 61 1 20 57
M  V30 62 1 21 58
M  V30 63 1 22 59
M  V30 64 1 22 60
M  V30 65 1 24 61
M  V30 66 1 24 62
M  V30 67 1 26 63
M  V30 68 1 26 64
M  V30 69 1 26 65
M  V30 70 1 27 66
M  V30 71 1 33 67
M  V30 72 1 33 68
M  V30 73 1 34 69
M  V30 74 1 34 70
M  V30 75 1 34 71
M  V30 76 1 35 72
M  V30 77 1 35 73
M  V30 78 1 35 74
M  V30 79 1 39 75
M  V30 80 1 39 76
M  V30 81 1 39 77
M  V30 END BOND
M  V30 BEGIN COLLECTION
M  V30 MDLV30/STEABS ATOMS=(3 14 25 27)
M  V30 END COLLECTION
M  V30 END CTAB
M  END
>  <NO.>
1179

>  <Name>
cutisterol

>  <SMILES>
CC(=O)OCC(=O)[C@@]12OC(C)(C)O[C@@H]1CC1C3CC(C=O)=C4C=C(OCCCl)CCC4(C)[C@@]3(F)C(O)CC12C

>  <logBB>


>  <Class>
1

>  <MW>
568.22

>  <nHBAcc>
8

>  <nHBDon>
1

>  <SLogP>
3.96

>  <TopoPSA>
108.36

>  <MMFF94 Energy>
151.84

$$$$
CC(=O)OCC(=O)[C@@]12OC(C)(C)O[C@@H]1CC1C3C[C@H](F)C4=CC(=O)C=CC4(C)[C@H]3C(O)CC12C
Actelion Java MolfileCreator 2.0

  0  0  0  0  0  0              0 V3000
M  V30 BEGIN CTAB
M  V30 COUNTS 67 71 0 0 0
M  V30 BEGIN ATOM
M  V30 1 F -1.5392 4.7857 2.4312 0
M  V30 2 C -1.8398 3.795 1.5432 0 CFG=2
M  V30 3 C -2.9929 2.954 2.0217 0
M  V30 4 C -0.6022 2.9266 1.3891 0
M  V30 5 C -3.59 3.2306 3.196 0
M  V30 6 C -3.3696 1.7602 1.1275 0
M  V30 7 C -0.8507 1.7379 0.4491 0
M  V30 8 C -4.6763 2.3952 3.7396 0
M  V30 9 C -4.5038 0.9612 1.7637 0
M  V30 10 C -2.0662 0.8739 0.9161 0 CFG=2
M  V30 11 C -3.9372 2.2903 -0.2098 0
M  V30 12 C 0.4513 0.9366 0.2343 0
M  V30 13 O -5.206 2.6502 4.813 0
M  V30 14 C -5.095 1.2366 2.9336 0
M  V30 15 C -2.2269 -0.3299 -0.0515 0
M  V30 16 C 0.2923 -0.306 -0.6689 0
M  V30 17 C 1.1033 0.3764 1.5102 0
M  V30 18 O -3.2164 -1.2468 0.4059 0
M  V30 19 C -0.9291 -1.1336 -0.2056 0
M  V30 20 C 1.6433 -1.0607 -0.4218 0 CFG=1
M  V30 21 C 0.089 0.0832 -2.1454 0
M  V30 22 C 2.0092 -0.7597 1.0349 0 CFG=2
M  V30 23 O 1.5054 -2.4807 -0.5022 0
M  V30 24 C 2.7939 -0.587 -1.3348 0
M  V30 25 O 1.7372 -1.9643 1.752 0
M  V30 26 C 1.8527 -3.0072 0.785 0
M  V30 27 O 3.3613 0.4917 -1.1397 0
M  V30 28 C 3.1651 -1.5005 -2.4992 0
M  V30 29 C 0.8976 -4.1379 1.1421 0
M  V30 30 C 3.2919 -3.5238 0.7521 0
M  V30 31 O 4.0988 -0.8494 -3.3618 0
M  V30 32 C 4.5156 -1.6187 -4.4005 0
M  V30 33 O 4.1469 -2.7633 -4.6205 0
M  V30 34 C 5.4943 -0.8623 -5.2446 0
M  V30 35 H -2.0906 4.2889 0.5995 0
M  V30 36 H -0.2837 2.5788 2.3802 0
M  V30 37 H 0.2205 3.5457 1.0107 0
M  V30 38 H -3.2949 4.0685 3.8194 0
M  V30 39 H -1.1069 2.1611 -0.5312 0
M  V30 40 H -4.904 0.1215 1.1992 0
M  V30 41 H -1.8265 0.457 1.9061 0
M  V30 42 H -4.3271 1.4794 -0.8359 0
M  V30 43 H -3.1913 2.8246 -0.8052 0
M  V30 44 H -4.7679 2.9874 -0.0388 0
M  V30 45 H 1.177 1.6207 -0.2287 0
M  V30 46 H -5.9117 0.6437 3.3273 0
M  V30 47 H -2.5567 0.0188 -1.034 0
M  V30 48 H 1.6932 1.1533 2.0092 0
M  V30 49 H 0.367 0.0147 2.2351 0
M  V30 50 H -2.9254 -1.6088 1.2622 0
M  V30 51 H -1.1043 -1.9702 -0.8955 0
M  V30 52 H -0.7266 -1.6071 0.7616 0
M  V30 53 H 0.0583 -0.8073 -2.7819 0
M  V30 54 H 0.8881 0.7354 -2.5122 0
M  V30 55 H -0.8454 0.6291 -2.305 0
M  V30 56 H 3.0638 -0.5049 1.1886 0
M  V30 57 H 3.6189 -2.408 -2.0881 0
M  V30 58 H 2.2578 -1.7381 -3.0629 0
M  V30 59 H 1.1236 -4.5515 2.1306 0
M  V30 60 H 0.9367 -4.9407 0.3985 0
M  V30 61 H -0.1368 -3.7814 1.1744 0
M  V30 62 H 3.9971 -2.7244 0.5005 0
M  V30 63 H 3.5917 -3.9174 1.729 0
M  V30 64 H 3.4127 -4.3066 -0.0039 0
M  V30 65 H 5.0162 0.0296 -5.657 0
M  V30 66 H 6.367 -0.5899 -4.6459 0
M  V30 67 H 5.8239 -1.496 -6.0728 0
M  V30 END ATOM
M  V30 BEGIN BOND
M  V30 1 1 1 2
M  V30 2 1 2 3
M  V30 3 1 2 4
M  V30 4 2 3 5
M  V30 5 1 3 6
M  V30 6 1 4 7
M  V30 7 1 5 8
M  V30 8 1 6 9
M  V30 9 1 6 10
M  V30 10 1 6 11
M  V30 11 1 7 12
M  V30 12 2 8 13
M  V30 13 1 8 14
M  V30 14 1 10 15
M  V30 15 1 12 16
M  V30 16 1 12 17
M  V30 17 1 15 18
M  V30 18 1 15 19
M  V30 19 1 16 20
M  V30 20 1 16 21
M  V30 21 1 17 22
M  V30 22 1 20 23
M  V30 23 1 20 24
M  V30 24 1 22 25
M  V30 25 1 23 26
M  V30 26 2 24 27
M  V30 27 1 24 28
M  V30 28 1 26 29
M  V30 29 1 26 30
M  V30 30 1 28 31
M  V30 31 1 31 32
M  V30 32 2 32 33
M  V30 33 1 32 34
M  V30 34 1 7 10
M  V30 35 2 9 14
M  V30 36 1 16 19
M  V30 37 1 20 22
M  V30 38 1 25 26
M  V30 39 1 2 35
M  V30 40 1 4 36
M  V30 41 1 4 37
M  V30 42 1 5 38
M  V30 43 1 7 39
M  V30 44 1 9 40
M  V30 45 1 10 41
M  V30 46 1 11 42
M  V30 47 1 11 43
M  V30 48 1 11 44
M  V30 49 1 12 45
M  V30 50 1 14 46
M  V30 51 1 15 47
M  V30 52 1 17 48
M  V30 53 1 17 49
M  V30 54 1 18 50
M  V30 55 1 19 51
M  V30 56 1 19 52
M  V30 57 1 21 53
M  V30 58 1 21 54
M  V30 59 1 21 55
M  V30 60 1 22 56
M  V30 61 1 28 57
M  V30 62 1 28 58
M  V30 63 1 29 59
M  V30 64 1 29 60
M  V30 65 1 29 61
M  V30 66 1 30 62
M  V30 67 1 30 63
M  V30 68 1 30 64
M  V30 69 1 34 65
M  V30 70 1 34 66
M  V30 71 1 34 67
M  V30 END BOND
M  V30 BEGIN COLLECTION
M  V30 MDLV30/STEABS ATOMS=(4 2 10 20 22)
M  V30 END COLLECTION
M  V30 END CTAB
M  END
>  <NO.>
1180

>  <Name>
4533-89-5

>  <SMILES>
CC(=O)OCC(=O)[C@@]12OC(C)(C)O[C@@H]1CC1C3C[C@H](F)C4=CC(=O)C=CC4(C)[C@H]3C(O)CC12C

>  <logBB>


>  <Class>
1

>  <MW>
476.22

>  <nHBAcc>
7

>  <nHBDon>
1

>  <SLogP>
2.85

>  <TopoPSA>
99.13

>  <MMFF94 Energy>
108.1

$$$$
CC(=O)OCC(=O)[C@@]12OC(C)(C)O[C@@H]1C[C@H]1C3CC(C#N)=C4C=C(OCCCl)CCC4(C)[C@@]3(F)C(O)CC12C
Actelion Java MolfileCreator 2.0

  0  0  0  0  0  0              0 V3000
M  V30 BEGIN CTAB
M  V30 COUNTS 76 80 0 0 0
M  V30 BEGIN ATOM
M  V30 1 Cl 0.325 8.9665 3.2535 0
M  V30 2 C 1.6652 8.3216 2.2681 0
M  V30 3 C 1.6753 6.7979 2.273 0
M  V30 4 O 0.581 6.3176 1.4884 0
M  V30 5 C 0.3939 4.9572 1.3733 0
M  V30 6 C 1.1927 3.999 1.8788 0
M  V30 7 C -0.8586 4.6173 0.6169 0
M  V30 8 C 0.9507 2.5571 1.7186 0
M  V30 9 C -1.274 3.1526 0.7619 0
M  V30 10 C 1.5903 1.6447 2.4856 0
M  V30 11 C -0.0887 2.1527 0.6436 0
M  V30 12 C 2.5441 2.029 3.4861 0
M  V30 13 C 1.3339 0.1673 2.3872 0
M  V30 14 C -0.6079 0.666 0.84 0 CFG=1
M  V30 15 C 0.5959 2.3014 -0.7426 0
M  V30 16 N 3.3287 2.3325 4.2851 0
M  V30 17 C 0.5452 -0.3164 1.1559 0
M  V30 18 F -1.4279 0.6484 1.9424 0
M  V30 19 C -1.3969 0.0858 -0.3638 0
M  V30 20 C 0.05 -1.7756 1.4239 0 CFG=1
M  V30 21 O -2.4826 0.9018 -0.793 0
M  V30 22 C -1.974 -1.2922 -0.054 0
M  V30 23 C -0.968 -2.3631 0.402 0
M  V30 24 C 1.1965 -2.7926 1.3673 0
M  V30 25 C -0.0677 -3.042 -0.7098 0 CFG=1
M  V30 26 C -1.8267 -3.4473 1.1204 0
M  V30 27 C 1.3427 -3.1 -0.1174 0 CFG=2
M  V30 28 O -0.4183 -4.4165 -0.9203 0
M  V30 29 C -0.0555 -2.3433 -2.0819 0
M  V30 30 O 1.8469 -4.4128 -0.3067 0
M  V30 31 C 0.78 -5.196 -0.8286 0
M  V30 32 O 0.7289 -1.4225 -2.3303 0
M  V30 33 C -1.0712 -2.8301 -3.1217 0
M  V30 34 C 0.529 -6.3802 0.0959 0
M  V30 35 C 1.1746 -5.6806 -2.2201 0
M  V30 36 O -1.0752 -2.0338 -4.3096 0
M  V30 37 C -1.7445 -0.8541 -4.2152 0
M  V30 38 O -2.37 -0.4709 -3.2348 0
M  V30 39 C -1.6153 -0.0836 -5.4926 0
M  V30 40 H 2.5932 8.7129 2.6937 0
M  V30 41 H 1.5384 8.714 1.2551 0
M  V30 42 H 2.6141 6.4595 1.8191 0
M  V30 43 H 1.6087 6.4189 3.3 0
M  V30 44 H 2.0699 4.2894 2.448 0
M  V30 45 H -0.7081 4.8605 -0.4419 0
M  V30 46 H -1.6843 5.2485 0.9687 0
M  V30 47 H -1.764 3.0246 1.7373 0
M  V30 48 H -2.0423 2.97 0.0085 0
M  V30 49 H 0.8083 -0.1318 3.3046 0
M  V30 50 H 2.3016 -0.3497 2.4026 0
M  V30 51 H 1.3668 1.5398 -0.8984 0
M  V30 52 H -0.1303 2.2179 -1.558 0
M  V30 53 H 1.0921 3.2698 -0.8694 0
M  V30 54 H 1.2312 -0.3297 0.3004 0
M  V30 55 H -0.7216 0.0279 -1.2145 0
M  V30 56 H -0.3949 -1.7945 2.4279 0
M  V30 57 H -2.7578 0.5548 -1.6696 0
M  V30 58 H -2.5636 -1.6601 -0.9001 0
M  V30 59 H -2.7278 -1.1416 0.7336 0
M  V30 60 H 2.1381 -2.4319 1.7894 0
M  V30 61 H 0.946 -3.698 1.9327 0
M  V30 62 H -2.5591 -3.8861 0.4331 0
M  V30 63 H -1.2205 -4.259 1.531 0
M  V30 64 H -2.384 -3.0174 1.9614 0
M  V30 65 H 2.0468 -2.3924 -0.566 0
M  V30 66 H -0.7871 -3.8396 -3.4304 0
M  V30 67 H -2.0749 -2.8848 -2.6902 0
M  V30 68 H 1.4197 -7.011 0.1856 0
M  V30 69 H -0.3102 -6.9892 -0.2556 0
M  V30 70 H 0.2801 -6.0375 1.1058 0
M  V30 71 H 2.0694 -6.3108 -2.1819 0
M  V30 72 H 1.413 -4.8341 -2.8734 0
M  V30 73 H 0.3604 -6.2395 -2.6929 0
M  V30 74 H -0.5615 0.1221 -5.696 0
M  V30 75 H -2.0633 -0.6488 -6.3134 0
M  V30 76 H -2.1429 0.8695 -5.3953 0
M  V30 END ATOM
M  V30 BEGIN BOND
M  V30 1 1 1 2
M  V30 2 1 2 3
M  V30 3 1 3 4
M  V30 4 1 4 5
M  V30 5 2 5 6
M  V30 6 1 5 7
M  V30 7 1 6 8
M  V30 8 1 7 9
M  V30 9 2 8 10
M  V30 10 1 8 11
M  V30 11 1 10 12
M  V30 12 1 10 13
M  V30 13 1 11 14
M  V30 14 1 11 15
M  V30 15 3 12 16
M  V30 16 1 13 17
M  V30 17 1 14 18
M  V30 18 1 14 19
M  V30 19 1 17 20
M  V30 20 1 19 21
M  V30 21 1 19 22
M  V30 22 1 20 23
M  V30 23 1 20 24
M  V30 24 1 23 25
M  V30 25 1 23 26
M  V30 26 1 24 27
M  V30 27 1 25 28
M  V30 28 1 25 29
M  V30 29 1 27 30
M  V30 30 1 28 31
M  V30 31 2 29 32
M  V30 32 1 29 33
M  V30 33 1 31 34
M  V30 34 1 31 35
M  V30 35 1 33 36
M  V30 36 1 36 37
M  V30 37 2 37 38
M  V30 38 1 37 39
M  V30 39 1 9 11
M  V30 40 1 14 17
M  V30 41 1 22 23
M  V30 42 1 25 27
M  V30 43 1 30 31
M  V30 44 1 2 40
M  V30 45 1 2 41
M  V30 46 1 3 42
M  V30 47 1 3 43
M  V30 48 1 6 44
M  V30 49 1 7 45
M  V30 50 1 7 46
M  V30 51 1 9 47
M  V30 52 1 9 48
M  V30 53 1 13 49
M  V30 54 1 13 50
M  V30 55 1 15 51
M  V30 56 1 15 52
M  V30 57 1 15 53
M  V30 58 1 17 54
M  V30 59 1 19 55
M  V30 60 1 20 56
M  V30 61 1 21 57
M  V30 62 1 22 58
M  V30 63 1 22 59
M  V30 64 1 24 60
M  V30 65 1 24 61
M  V30 66 1 26 62
M  V30 67 1 26 63
M  V30 68 1 26 64
M  V30 69 1 27 65
M  V30 70 1 33 66
M  V30 71 1 33 67
M  V30 72 1 34 68
M  V30 73 1 34 69
M  V30 74 1 34 70
M  V30 75 1 35 71
M  V30 76 1 35 72
M  V30 77 1 35 73
M  V30 78 1 39 74
M  V30 79 1 39 75
M  V30 80 1 39 76
M  V30 END BOND
M  V30 BEGIN COLLECTION
M  V30 MDLV30/STEABS ATOMS=(4 14 20 25 27)
M  V30 END COLLECTION
M  V30 END CTAB
M  END
>  <NO.>
1181

>  <Name>
cicortonide

>  <SMILES>
CC(=O)OCC(=O)[C@@]12OC(C)(C)O[C@@H]1C[C@H]1C3CC(C#N)=C4C=C(OCCCl)CCC4(C)[C@@]3(F)C(O)CC12C

>  <logBB>


>  <Class>
1

>  <MW>
565.22

>  <nHBAcc>
8

>  <nHBDon>
1

>  <SLogP>
4.29

>  <TopoPSA>
115.08

>  <MMFF94 Energy>
141.66

$$$$
CC(=O)OCC(=O)[C@@]12OC(C)(C)O[C@@H]1C[C@H]1[C@@H]3C[C@H](F)C4=CC(=O)C=C[C@]4(C)[C@@]3(F)[C@@H](O)C[C@@]12C
Actelion Java MolfileCreator 2.0

  0  0  0  0  0  0              0 V3000
M  V30 BEGIN CTAB
M  V30 COUNTS 67 71 0 0 0
M  V30 BEGIN ATOM
M  V30 1 F 1.4631 -1.5444 -1.4631 0
M  V30 2 C 0.3764 -0.9006 -2.0354 0 CFG=2
M  V30 3 C 0.3109 -1.4023 -3.5374 0 CFG=2
M  V30 4 C 0.6701 0.6199 -1.8407 0 CFG=1
M  V30 5 C -0.8688 -1.3673 -1.2088 0 CFG=2
M  V30 6 C 0.0889 -2.9254 -3.5149 0
M  V30 7 C 1.5994 -1.053 -4.282 0
M  V30 8 C -0.8362 -0.7706 -4.3599 0
M  V30 9 O -0.2368 1.4414 -2.5679 0
M  V30 10 C 0.6764 1.06 -0.3569 0
M  V30 11 C -0.6873 -0.9233 0.2502 0 CFG=1
M  V30 12 C -1.0414 -2.8934 -1.2921 0
M  V30 13 C 0.9158 -3.8094 -4.1023 0
M  V30 14 C -1.1088 -3.3921 -2.7291 0 CFG=2
M  V30 15 C 2.4192 -1.9383 -4.8638 0
M  V30 16 C -0.5775 0.6109 0.424 0 CFG=1
M  V30 17 C -1.7391 -1.324 1.2817 0
M  V30 18 C 2.1285 -3.3836 -4.8271 0
M  V30 19 F -1.182 -4.7533 -2.6913 0
M  V30 20 C -0.4895 0.7018 1.983 0 CFG=1
M  V30 21 C -1.835 1.3711 -0.0763 0
M  V30 22 C -1.4559 -0.3904 2.4768 0 CFG=2
M  V30 23 O 2.8633 -4.1929 -5.3777 0
M  V30 24 O 0.7944 0.281 2.4511 0
M  V30 25 C -0.8311 2.0909 2.555 0
M  V30 26 O -0.7706 -1.1111 3.4996 0
M  V30 27 C 0.5723 -0.6395 3.5242 0
M  V30 28 O -1.9816 2.3891 2.886 0
M  V30 29 C 0.3157 3.0935 2.6381 0
M  V30 30 C 1.5209 -1.8202 3.3638 0
M  V30 31 C 0.817 0.0639 4.8564 0
M  V30 32 O -0.1454 4.3385 3.1661 0
M  V30 33 C 0.7755 5.3351 3.1145 0
M  V30 34 O 1.9032 5.227 2.6545 0
M  V30 35 C 0.2112 6.5928 3.6996 0
M  V30 36 H 1.6719 0.8331 -2.2309 0
M  V30 37 H -1.7767 -0.9139 -1.6183 0
M  V30 38 H 1.8559 6.0E-4 -4.3683 0
M  V30 39 H -0.9919 -1.3134 -5.3017 0
M  V30 40 H -1.7915 -0.7775 -3.827 0
M  V30 41 H -0.6262 0.2668 -4.641 0
M  V30 42 H 0.0792 2.3614 -2.5069 0
M  V30 43 H 0.7703 2.1502 -0.3064 0
M  V30 44 H 1.5763 0.6418 0.1104 0
M  V30 45 H 0.2549 -1.3801 0.5877 0
M  V30 46 H -0.2193 -3.4008 -0.7698 0
M  V30 47 H -1.9571 -3.203 -0.7742 0
M  V30 48 H 0.7501 -4.8809 -4.0621 0
M  V30 49 H -2.0299 -3.0462 -3.2093 0
M  V30 50 H 3.3173 -1.6428 -5.3925 0
M  V30 51 H -2.7459 -1.1445 0.8885 0
M  V30 52 H -1.6611 -2.3813 1.5544 0
M  V30 53 H -2.7192 1.1627 0.535 0
M  V30 54 H -2.1121 1.1222 -1.1019 0
M  V30 55 H -1.6683 2.454 -0.0444 0
M  V30 56 H -2.4019 -0.0272 2.889 0
M  V30 57 H 1.0871 2.6943 3.3032 0
M  V30 58 H 0.7104 3.2448 1.6305 0
M  V30 59 H 1.3839 -2.5528 4.1661 0
M  V30 60 H 1.3336 -2.3428 2.4198 0
M  V30 61 H 2.5655 -1.4923 3.3496 0
M  V30 62 H 1.8229 0.4942 4.8996 0
M  V30 63 H 0.6831 -0.6238 5.6981 0
M  V30 64 H 0.1057 0.8839 5.003 0
M  V30 65 H -0.6594 6.9122 3.1216 0
M  V30 66 H -0.0603 6.4261 4.745 0
M  V30 67 H 0.9667 7.3825 3.6578 0
M  V30 END ATOM
M  V30 BEGIN BOND
M  V30 1 1 1 2
M  V30 2 1 2 3
M  V30 3 1 2 4
M  V30 4 1 2 5
M  V30 5 1 3 6
M  V30 6 1 3 7
M  V30 7 1 3 8
M  V30 8 1 4 9
M  V30 9 1 4 10
M  V30 10 1 5 11
M  V30 11 1 5 12
M  V30 12 2 6 13
M  V30 13 1 6 14
M  V30 14 2 7 15
M  V30 15 1 10 16
M  V30 16 1 11 17
M  V30 17 1 13 18
M  V30 18 1 14 19
M  V30 19 1 16 20
M  V30 20 1 16 21
M  V30 21 1 17 22
M  V30 22 2 18 23
M  V30 23 1 20 24
M  V30 24 1 20 25
M  V30 25 1 22 26
M  V30 26 1 24 27
M  V30 27 2 25 28
M  V30 28 1 25 29
M  V30 29 1 27 30
M  V30 30 1 27 31
M  V30 31 1 29 32
M  V30 32 1 32 33
M  V30 33 2 33 34
M  V30 34 1 33 35
M  V30 35 1 11 16
M  V30 36 1 12 14
M  V30 37 1 15 18
M  V30 38 1 20 22
M  V30 39 1 26 27
M  V30 40 1 4 36
M  V30 41 1 5 37
M  V30 42 1 7 38
M  V30 43 1 8 39
M  V30 44 1 8 40
M  V30 45 1 8 41
M  V30 46 1 9 42
M  V30 47 1 10 43
M  V30 48 1 10 44
M  V30 49 1 11 45
M  V30 50 1 12 46
M  V30 51 1 12 47
M  V30 52 1 13 48
M  V30 53 1 14 49
M  V30 54 1 15 50
M  V30 55 1 17 51
M  V30 56 1 17 52
M  V30 57 1 21 53
M  V30 58 1 21 54
M  V30 59 1 21 55
M  V30 60 1 22 56
M  V30 61 1 29 57
M  V30 62 1 29 58
M  V30 63 1 30 59
M  V30 64 1 30 60
M  V30 65 1 30 61
M  V30 66 1 31 62
M  V30 67 1 31 63
M  V30 68 1 31 64
M  V30 69 1 35 65
M  V30 70 1 35 66
M  V30 71 1 35 67
M  V30 END BOND
M  V30 BEGIN COLLECTION
M  V30 MDLV30/STEABS ATOMS=(9 2 3 4 5 11 14 16 20 22)
M  V30 END COLLECTION
M  V30 END CTAB
M  END
>  <NO.>
1182

>  <Name>
fluocinonide

>  <SMILES>
CC(=O)OCC(=O)[C@@]12OC(C)(C)O[C@@H]1C[C@H]1[C@@H]3C[C@H](F)C4=CC(=O)C=C[C@]4(C)[C@@]3(F)[C@@H](O)C[C@@]12C

>  <logBB>


>  <Class>
1

>  <MW>
494.21

>  <nHBAcc>
7

>  <nHBDon>
1

>  <SLogP>
2.94

>  <TopoPSA>
99.13

>  <MMFF94 Energy>
144.57

$$$$
CC(=O)OCC(=O)[C@@]12OC3(CCCC3)O[C@@H]1C[C@H]1[C@@H]3CCC4=CC(=O)C=C[C@]4(C)[C@@]3(F)[C@@H](O)C[C@@]12C
Actelion Java MolfileCreator 2.0

  0  0  0  0  0  0              0 V3000
M  V30 BEGIN CTAB
M  V30 COUNTS 71 76 0 0 0
M  V30 BEGIN ATOM
M  V30 1 F 0.6501 -2.6839 -0.4875 0
M  V30 2 C -0.4933 -2.6285 0.2974 0 CFG=2
M  V30 3 C -0.8054 -4.1205 0.7284 0 CFG=2
M  V30 4 C -1.5621 -1.9512 -0.6174 0 CFG=1
M  V30 5 C -0.1183 -1.732 1.5251 0 CFG=2
M  V30 6 C 0.3876 -4.6258 1.5615 0
M  V30 7 C -1.0247 -5.0068 -0.4977 0
M  V30 8 C -2.079 -4.2702 1.5925 0
M  V30 9 O -2.8721 -2.0109 -0.0633 0
M  V30 10 C -1.2257 -0.4821 -0.9692 0
M  V30 11 C 0.2554 -0.3308 1.0191 0 CFG=1
M  V30 12 C 1.0471 -2.3459 2.3231 0
M  V30 13 C 1.1072 -5.7184 1.2494 0
M  V30 14 C 0.763 -3.7813 2.7522 0
M  V30 15 C -0.3041 -6.0937 -0.8043 0
M  V30 16 C -0.893 0.384 0.2647 0 CFG=1
M  V30 17 C 0.7214 0.7177 2.0265 0
M  V30 18 C 0.8081 -6.5361 0.0567 0
M  V30 19 C -0.2093 1.76 -0.0243 0 CFG=1
M  V30 20 C -2.1572 0.5966 1.1398 0
M  V30 21 C 0.6111 2.0447 1.2478 0 CFG=2
M  V30 22 O 1.4559 -7.5412 -0.2068 0
M  V30 23 O 0.7662 1.6311 -1.0602 0
M  V30 24 C -1.1904 2.8981 -0.3581 0
M  V30 25 O 1.9079 2.4484 0.814 0
M  V30 26 C 1.9458 2.275 -0.5965 0
M  V30 27 O -1.6811 3.6136 0.5202 0
M  V30 28 C -1.5998 3.0432 -1.8244 0
M  V30 29 C 3.1894 1.4969 -1.003 0
M  V30 30 C 2.1609 3.6219 -1.2779 0
M  V30 31 O -2.4808 4.1479 -2.0384 0
M  V30 32 C 4.315 2.5221 -0.9193 0
M  V30 33 C 3.6593 3.8853 -1.144 0
M  V30 34 C -1.8584 5.3587 -2.0627 0
M  V30 35 O -0.6488 5.531 -2.0122 0
M  V30 36 C -2.8699 6.4564 -2.1822 0
M  V30 37 H -1.5982 -2.4955 -1.5683 0
M  V30 38 H -0.9737 -1.6581 2.2038 0
M  V30 39 H -1.8495 -4.7474 -1.1576 0
M  V30 40 H -2.1234 -5.2622 2.0616 0
M  V30 41 H -2.1306 -3.5339 2.4001 0
M  V30 42 H -2.997 -4.174 1.003 0
M  V30 43 H -3.4975 -1.6878 -0.7365 0
M  V30 44 H -2.067 -0.0386 -1.5133 0
M  V30 45 H -0.3728 -0.4928 -1.6589 0
M  V30 46 H 1.0968 -0.4743 0.3228 0
M  V30 47 H 1.2432 -1.747 3.2203 0
M  V30 48 H 1.9654 -2.3214 1.7216 0
M  V30 49 H 1.9539 -6.0532 1.8378 0
M  V30 50 H -0.047 -3.8003 3.4904 0
M  V30 51 H 1.6491 -4.1805 3.2609 0
M  V30 52 H -0.505 -6.6996 -1.6792 0
M  V30 53 H 0.0587 0.7305 2.8989 0
M  V30 54 H 1.7415 0.5247 2.3737 0
M  V30 55 H -2.519 -0.3204 1.6079 0
M  V30 56 H -2.9813 0.9937 0.5359 0
M  V30 57 H -1.9855 1.3055 1.9565 0
M  V30 58 H 0.2077 2.8238 1.9013 0
M  V30 59 H -0.7198 3.1239 -2.4701 0
M  V30 60 H -2.1499 2.1452 -2.1148 0
M  V30 61 H 3.3834 0.6414 -0.3477 0
M  V30 62 H 3.0928 1.1175 -2.0275 0
M  V30 63 H 1.8779 3.5722 -2.3362 0
M  V30 64 H 1.5807 4.4256 -0.8134 0
M  V30 65 H 4.7821 2.4949 0.072 0
M  V30 66 H 5.098 2.3185 -1.6563 0
M  V30 67 H 4.0522 4.3812 -2.0374 0
M  V30 68 H 3.861 4.5418 -0.2899 0
M  V30 69 H -3.4051 6.3654 -3.1305 0
M  V30 70 H -3.5661 6.4121 -1.3409 0
M  V30 71 H -2.3594 7.4235 -2.1584 0
M  V30 END ATOM
M  V30 BEGIN BOND
M  V30 1 1 1 2
M  V30 2 1 2 3
M  V30 3 1 2 4
M  V30 4 1 2 5
M  V30 5 1 3 6
M  V30 6 1 3 7
M  V30 7 1 3 8
M  V30 8 1 4 9
M  V30 9 1 4 10
M  V30 10 1 5 11
M  V30 11 1 5 12
M  V30 12 2 6 13
M  V30 13 1 6 14
M  V30 14 2 7 15
M  V30 15 1 10 16
M  V30 16 1 11 17
M  V30 17 1 13 18
M  V30 18 1 16 19
M  V30 19 1 16 20
M  V30 20 1 17 21
M  V30 21 2 18 22
M  V30 22 1 19 23
M  V30 23 1 19 24
M  V30 24 1 21 25
M  V30 25 1 23 26
M  V30 26 2 24 27
M  V30 27 1 24 28
M  V30 28 1 26 29
M  V30 29 1 26 30
M  V30 30 1 28 31
M  V30 31 1 29 32
M  V30 32 1 30 33
M  V30 33 1 31 34
M  V30 34 2 34 35
M  V30 35 1 34 36
M  V30 36 1 11 16
M  V30 37 1 12 14
M  V30 38 1 15 18
M  V30 39 1 19 21
M  V30 40 1 25 26
M  V30 41 1 32 33
M  V30 42 1 4 37
M  V30 43 1 5 38
M  V30 44 1 7 39
M  V30 45 1 8 40
M  V30 46 1 8 41
M  V30 47 1 8 42
M  V30 48 1 9 43
M  V30 49 1 10 44
M  V30 50 1 10 45
M  V30 51 1 11 46
M  V30 52 1 12 47
M  V30 53 1 12 48
M  V30 54 1 13 49
M  V30 55 1 14 50
M  V30 56 1 14 51
M  V30 57 1 15 52
M  V30 58 1 17 53
M  V30 59 1 17 54
M  V30 60 1 20 55
M  V30 61 1 20 56
M  V30 62 1 20 57
M  V30 63 1 21 58
M  V30 64 1 28 59
M  V30 65 1 28 60
M  V30 66 1 29 61
M  V30 67 1 29 62
M  V30 68 1 30 63
M  V30 69 1 30 64
M  V30 70 1 32 65
M  V30 71 1 32 66
M  V30 72 1 33 67
M  V30 73 1 33 68
M  V30 74 1 36 69
M  V30 75 1 36 70
M  V30 76 1 36 71
M  V30 END BOND
M  V30 BEGIN COLLECTION
M  V30 MDLV30/STEABS ATOMS=(8 2 3 4 5 11 16 19 21)
M  V30 END COLLECTION
M  V30 END CTAB
M  END
>  <NO.>
1183

>  <Name>
amcinonide

>  <SMILES>
CC(=O)OCC(=O)[C@@]12OC3(CCCC3)O[C@@H]1C[C@H]1[C@@H]3CCC4=CC(=O)C=C[C@]4(C)[C@@]3(F)[C@@H](O)C[C@@]12C

>  <logBB>


>  <Class>
1

>  <MW>
502.24

>  <nHBAcc>
7

>  <nHBDon>
1

>  <SLogP>
3.52

>  <TopoPSA>
99.13

>  <MMFF94 Energy>
155.02

$$$$
CC(=O)OCC(=O)[C@H]1[C@H](C)C[C@H]2[C@@H]3C[C@H](F)C4=CC(=O)C=C[C@]4(C)C3(Cl)[C@@H](O)C[C@@]21C
Actelion Java MolfileCreator 2.0

  0  0  0  0  0  0              0 V3000
M  V30 BEGIN CTAB
M  V30 COUNTS 61 64 0 0 0
M  V30 BEGIN ATOM
M  V30 1 Cl 1.3856 1.4672 -2.2014 0
M  V30 2 C 1.7524 1.1637 -0.4017 0
M  V30 3 C 3.0221 2.0611 -0.019 0 CFG=2
M  V30 4 C 1.9661 -0.3894 -0.2962 0 CFG=1
M  V30 5 C 0.493 1.6126 0.44 0 CFG=2
M  V30 6 C 2.6305 3.5456 -0.1698 0
M  V30 7 C 4.2338 1.7205 -0.889 0
M  V30 8 C 3.5177 1.8775 1.4387 0
M  V30 9 O 2.5362 -0.7567 0.9573 0
M  V30 10 C 0.6758 -1.2263 -0.5098 0
M  V30 11 C -0.7291 0.7487 0.0895 0 CFG=1
M  V30 12 C 0.1963 3.1152 0.286 0
M  V30 13 C 3.2927 4.4104 -0.9604 0
M  V30 14 C 1.411 3.9813 0.6047 0 CFG=2
M  V30 15 C 4.887 2.5907 -1.6708 0
M  V30 16 C -0.5078 -0.7567 0.3611 0 CFG=1
M  V30 17 C -2.0666 1.0443 0.7625 0
M  V30 18 C 4.467 4.0028 -1.7573 0
M  V30 19 F 1.0793 5.2744 0.3243 0
M  V30 20 C -1.8995 -1.2855 -0.0773 0 CFG=2
M  V30 21 C -0.256 -1.0991 1.8529 0
M  V30 22 C -2.8966 -0.2376 0.5103 0 CFG=2
M  V30 23 O 5.073 4.8022 -2.459 0
M  V30 24 C -2.2164 -2.7179 0.3522 0
M  V30 25 C -4.0679 0.011 -0.4358 0
M  V30 26 O -2.8451 -2.9719 1.3816 0
M  V30 27 C -1.6748 -3.8338 -0.542 0
M  V30 28 O -2.4222 -5.043 -0.4273 0
M  V30 29 C -3.6603 -4.9715 -0.9908 0
M  V30 30 O -4.0867 -4.0173 -1.627 0
M  V30 31 C -4.4193 -6.2369 -0.738 0
M  V30 32 H 2.6929 -0.7058 -1.0545 0
M  V30 33 H 0.7129 1.4573 1.5014 0
M  V30 34 H 4.6031 0.6977 -0.8508 0
M  V30 35 H 4.2095 2.6818 1.7241 0
M  V30 36 H 2.7055 1.8874 2.1707 0
M  V30 37 H 4.0746 0.9449 1.5787 0
M  V30 38 H 2.735 -1.7102 0.9339 0
M  V30 39 H 0.8917 -2.2796 -0.2961 0
M  V30 40 H 0.3917 -1.1793 -1.5682 0
M  V30 41 H -0.9239 0.8813 -0.9852 0
M  V30 42 H -0.6172 3.4107 0.9601 0
M  V30 43 H -0.1686 3.3463 -0.7223 0
M  V30 44 H 2.9976 5.4494 -1.0656 0
M  V30 45 H 1.6252 3.9446 1.6781 0
M  V30 46 H 5.748 2.3096 -2.265 0
M  V30 47 H -2.5423 1.9404 0.3502 0
M  V30 48 H -1.9373 1.2069 1.8389 0
M  V30 49 H -1.9772 -1.2593 -1.1734 0
M  V30 50 H 0.0045 -2.1577 1.9669 0
M  V30 51 H 0.555 -0.5186 2.2963 0
M  V30 52 H -1.1349 -0.9195 2.4805 0
M  V30 53 H -3.3141 -0.5698 1.4684 0
M  V30 54 H -4.7604 0.7431 -0.0072 0
M  V30 55 H -3.7265 0.3968 -1.4023 0
M  V30 56 H -4.624 -0.9148 -0.6155 0
M  V30 57 H -1.6362 -3.5106 -1.5881 0
M  V30 58 H -0.6519 -4.0505 -0.221 0
M  V30 59 H -3.9106 -7.0762 -1.2183 0
M  V30 60 H -4.5103 -6.406 0.338 0
M  V30 61 H -5.4243 -6.1469 -1.1604 0
M  V30 END ATOM
M  V30 BEGIN BOND
M  V30 1 1 1 2
M  V30 2 1 2 3
M  V30 3 1 2 4
M  V30 4 1 2 5
M  V30 5 1 3 6
M  V30 6 1 3 7
M  V30 7 1 3 8
M  V30 8 1 4 9
M  V30 9 1 4 10
M  V30 10 1 5 11
M  V30 11 1 5 12
M  V30 12 2 6 13
M  V30 13 1 6 14
M  V30 14 2 7 15
M  V30 15 1 10 16
M  V30 16 1 11 17
M  V30 17 1 13 18
M  V30 18 1 14 19
M  V30 19 1 16 20
M  V30 20 1 16 21
M  V30 21 1 17 22
M  V30 22 2 18 23
M  V30 23 1 20 24
M  V30 24 1 22 25
M  V30 25 2 24 26
M  V30 26 1 24 27
M  V30 27 1 27 28
M  V30 28 1 28 29
M  V30 29 2 29 30
M  V30 30 1 29 31
M  V30 31 1 11 16
M  V30 32 1 12 14
M  V30 33 1 15 18
M  V30 34 1 20 22
M  V30 35 1 4 32
M  V30 36 1 5 33
M  V30 37 1 7 34
M  V30 38 1 8 35
M  V30 39 1 8 36
M  V30 40 1 8 37
M  V30 41 1 9 38
M  V30 42 1 10 39
M  V30 43 1 10 40
M  V30 44 1 11 41
M  V30 45 1 12 42
M  V30 46 1 12 43
M  V30 47 1 13 44
M  V30 48 1 14 45
M  V30 49 1 15 46
M  V30 50 1 17 47
M  V30 51 1 17 48
M  V30 52 1 20 49
M  V30 53 1 21 50
M  V30 54 1 21 51
M  V30 55 1 21 52
M  V30 56 1 22 53
M  V30 57 1 25 54
M  V30 58 1 25 55
M  V30 59 1 25 56
M  V30 60 1 27 57
M  V30 61 1 27 58
M  V30 62 1 31 59
M  V30 63 1 31 60
M  V30 64 1 31 61
M  V30 END BOND
M  V30 BEGIN COLLECTION
M  V30 MDLV30/STEABS ATOMS=(8 3 4 5 11 14 16 20 22)
M  V30 END COLLECTION
M  V30 END CTAB
M  END
>  <NO.>
1184

>  <Name>
clocortolone-acetate

>  <SMILES>
CC(=O)OCC(=O)[C@H]1[C@H](C)C[C@H]2[C@@H]3C[C@H](F)C4=CC(=O)C=C[C@]4(C)C3(Cl)[C@@H](O)C[C@@]21C

>  <logBB>


>  <Class>
1

>  <MW>
452.18

>  <nHBAcc>
5

>  <nHBDon>
1

>  <SLogP>
3.57

>  <TopoPSA>
80.67

>  <MMFF94 Energy>
119.52

$$$$
CC(=O)OCC/C(SC(C)=O)=C(/C)N(C=O)Cc1cnc(C)nc1N
Actelion Java MolfileCreator 2.0

  0  0  0  0  0  0              0 V3000
M  V30 BEGIN CTAB
M  V30 COUNTS 47 47 0 0 0
M  V30 BEGIN ATOM
M  V30 1 S -1.1116 1.2705 3.0195 0
M  V30 2 C -0.269 0.2301 1.8571 0
M  V30 3 C -2.7234 1.3407 2.2956 0
M  V30 4 C 0.2203 0.7199 0.6803 0
M  V30 5 C 0.0038 -1.1664 2.4107 0
M  V30 6 O -2.8989 1.5971 1.1112 0
M  V30 7 C -3.843 1.1103 3.2689 0
M  V30 8 N 0.8606 -0.0887 -0.2888 0
M  V30 9 C 0.1385 2.1981 0.3075 0
M  V30 10 C -1.2474 -2.0167 2.6499 0
M  V30 11 C 0.3813 -1.3448 -0.6756 0
M  V30 12 C 2.0382 0.41 -1.0136 0
M  V30 13 O -0.8331 -3.359 2.9532 0
M  V30 14 O -0.667 -1.8818 -0.3451 0
M  V30 15 C 1.797 1.0647 -2.3448 0
M  V30 16 C -1.851 -4.1832 3.3236 0
M  V30 17 C 2.8285 1.6742 -3.0422 0
M  V30 18 C 0.5832 1.0571 -3.0058 0
M  V30 19 O -3.02 -3.8527 3.465 0
M  V30 20 C -1.3291 -5.5683 3.5536 0
M  V30 21 N 2.6776 2.196 -4.2679 0
M  V30 22 N 4.1185 1.7393 -2.5477 0
M  V30 23 N 0.3832 1.5873 -4.2269 0
M  V30 24 C 1.4508 2.1466 -4.8132 0
M  V30 25 C 1.2761 2.7093 -6.1883 0
M  V30 26 H 0.7219 -1.7234 1.8008 0
M  V30 27 H 0.5335 -1.066 3.3698 0
M  V30 28 H -3.7261 0.1418 3.7627 0
M  V30 29 H -3.8676 1.9128 4.0112 0
M  V30 30 H -4.7947 1.1055 2.7291 0
M  V30 31 H -0.365 2.8312 1.0399 0
M  V30 32 H -0.4175 2.3168 -0.6276 0
M  V30 33 H 1.1346 2.6337 0.1849 0
M  V30 34 H -1.8119 -1.6177 3.5011 0
M  V30 35 H -1.8996 -2.0327 1.771 0
M  V30 36 H 1.0584 -1.8478 -1.3872 0
M  V30 37 H 2.5882 1.0823 -0.3442 0
M  V30 38 H 2.699 -0.4498 -1.1891 0
M  V30 39 H -0.3095 0.6121 -2.573 0
M  V30 40 H -0.8632 -5.9456 2.6398 0
M  V30 41 H -0.6114 -5.5617 4.3777 0
M  V30 42 H -2.1597 -6.2293 3.8175 0
M  V30 43 H 4.257 2.0202 -1.5887 0
M  V30 44 H 4.748 2.1667 -3.2203 0
M  V30 45 H 1.4656 1.93 -6.932 0
M  V30 46 H 0.2578 3.0867 -6.3237 0
M  V30 47 H 1.9727 3.5361 -6.3576 0
M  V30 END ATOM
M  V30 BEGIN BOND
M  V30 1 1 1 2
M  V30 2 1 1 3
M  V30 3 2 2 4
M  V30 4 1 2 5
M  V30 5 2 3 6
M  V30 6 1 3 7
M  V30 7 1 4 8
M  V30 8 1 4 9
M  V30 9 1 5 10
M  V30 10 1 8 11
M  V30 11 1 8 12
M  V30 12 1 10 13
M  V30 13 2 11 14
M  V30 14 1 12 15
M  V30 15 1 13 16
M  V30 16 2 15 17
M  V30 17 1 15 18
M  V30 18 2 16 19
M  V30 19 1 16 20
M  V30 20 1 17 21
M  V30 21 1 17 22
M  V30 22 2 18 23
M  V30 23 2 21 24
M  V30 24 1 24 25
M  V30 25 1 23 24
M  V30 26 1 5 26
M  V30 27 1 5 27
M  V30 28 1 7 28
M  V30 29 1 7 29
M  V30 30 1 7 30
M  V30 31 1 9 31
M  V30 32 1 9 32
M  V30 33 1 9 33
M  V30 34 1 10 34
M  V30 35 1 10 35
M  V30 36 1 11 36
M  V30 37 1 12 37
M  V30 38 1 12 38
M  V30 39 1 18 39
M  V30 40 1 20 40
M  V30 41 1 20 41
M  V30 42 1 20 42
M  V30 43 1 22 43
M  V30 44 1 22 44
M  V30 45 1 25 45
M  V30 46 1 25 46
M  V30 47 1 25 47
M  V30 END BOND
M  V30 END CTAB
M  END
>  <NO.>
1185

>  <Name>
diacetylthiamine

>  <SMILES>
CC(=O)OCC/C(SC(C)=O)=C(/C)N(C=O)Cc1cnc(C)nc1N

>  <logBB>


>  <Class>
1

>  <MW>
366.14

>  <nHBAcc>
8

>  <nHBDon>
1

>  <SLogP>
1.79

>  <TopoPSA>
115.48

>  <MMFF94 Energy>
-23.775

$$$$
CC(=O)OCC1=C(C(=O)O)N2C(=O)[C@@H](NC(=O)CSc3ccncc3)[C@H]2SC1
Actelion Java MolfileCreator 2.0

  0  0  0  0  0  0              0 V3000
M  V30 BEGIN CTAB
M  V30 COUNTS 45 47 0 0 0
M  V30 BEGIN ATOM
M  V30 1 S 0.2471 -0.9886 0.0 0
M  V30 2 C -0.0253 0.7469 0.473 0 CFG=1
M  V30 3 C 1.0508 -0.5362 -1.5756 0
M  V30 4 N -0.8887 1.3289 -0.5233 0
M  V30 5 C -1.1545 1.0428 1.5097 0 CFG=1
M  V30 6 C 0.2598 0.4667 -2.3949 0
M  V30 7 C -0.6729 1.2887 -1.8608 0
M  V30 8 C -1.8761 1.7399 0.2982 0
M  V30 9 N -1.8478 -0.1441 2.0834 0
M  V30 10 C 0.5851 0.4263 -3.8714 0
M  V30 11 C -1.5222 2.163 -2.7071 0
M  V30 12 O -2.9166 2.3132 0.0841 0
M  V30 13 C -2.6175 -0.0627 3.2244 0
M  V30 14 O 1.9945 0.6492 -4.0128 0
M  V30 15 O -1.5069 3.3794 -2.7173 0
M  V30 16 O -2.3398 1.4411 -3.4936 0
M  V30 17 O -2.7985 0.9932 3.8242 0
M  V30 18 C -3.1713 -1.3957 3.7007 0
M  V30 19 C 2.4313 0.5894 -5.3008 0
M  V30 20 S -2.3067 -1.9675 5.2046 0
M  V30 21 O 1.7316 0.347 -6.273 0
M  V30 22 C 3.9036 0.8584 -5.3577 0
M  V30 23 C -0.6174 -1.8954 4.6415 0
M  V30 24 C -0.1047 -2.8618 3.7808 0
M  V30 25 C 0.2005 -0.8486 5.0609 0
M  V30 26 C 1.2044 -2.7223 3.3525 0
M  V30 27 C 1.4949 -0.7961 4.5763 0
M  V30 28 N 2.0109 -1.7031 3.7199 0
M  V30 29 H 0.8906 1.3243 0.6442 0
M  V30 30 H 2.0515 -0.1428 -1.367 0
M  V30 31 H 1.1674 -1.4694 -2.1368 0
M  V30 32 H -0.8405 1.7498 2.2867 0
M  V30 33 H -1.7007 -1.048 1.6438 0
M  V30 34 H 0.3209 -0.5599 -4.2723 0
M  V30 35 H 0.0569 1.1947 -4.4437 0
M  V30 36 H -2.8946 2.1204 -3.9326 0
M  V30 37 H -4.2341 -1.2658 3.9272 0
M  V30 38 H -3.0885 -2.1591 2.9209 0
M  V30 39 H 4.1137 1.8557 -4.9629 0
M  V30 40 H 4.4415 0.097 -4.7874 0
M  V30 41 H 4.2393 0.818 -6.3979 0
M  V30 42 H -0.6989 -3.7059 3.4499 0
M  V30 43 H -0.161 -0.0812 5.738 0
M  V30 44 H 1.653 -3.4469 2.6786 0
M  V30 45 H 2.1699 0.0023 4.8712 0
M  V30 END ATOM
M  V30 BEGIN BOND
M  V30 1 1 1 2
M  V30 2 1 1 3
M  V30 3 1 2 4
M  V30 4 1 2 5
M  V30 5 1 3 6
M  V30 6 1 4 7
M  V30 7 1 4 8
M  V30 8 1 5 9
M  V30 9 1 6 10
M  V30 10 1 7 11
M  V30 11 2 8 12
M  V30 12 1 9 13
M  V30 13 1 10 14
M  V30 14 2 11 15
M  V30 15 1 11 16
M  V30 16 2 13 17
M  V30 17 1 13 18
M  V30 18 1 14 19
M  V30 19 1 18 20
M  V30 20 2 19 21
M  V30 21 1 19 22
M  V30 22 1 20 23
M  V30 23 2 23 24
M  V30 24 1 23 25
M  V30 25 1 24 26
M  V30 26 2 25 27
M  V30 27 2 26 28
M  V30 28 1 5 8
M  V30 29 2 6 7
M  V30 30 1 27 28
M  V30 31 1 2 29
M  V30 32 1 3 30
M  V30 33 1 3 31
M  V30 34 1 5 32
M  V30 35 1 9 33
M  V30 36 1 10 34
M  V30 37 1 10 35
M  V30 38 1 16 36
M  V30 39 1 18 37
M  V30 40 1 18 38
M  V30 41 1 22 39
M  V30 42 1 22 40
M  V30 43 1 22 41
M  V30 44 1 24 42
M  V30 45 1 25 43
M  V30 46 1 26 44
M  V30 47 1 27 45
M  V30 END BOND
M  V30 BEGIN COLLECTION
M  V30 MDLV30/STEABS ATOMS=(2 2 5)
M  V30 END COLLECTION
M  V30 END CTAB
M  END
>  <NO.>
1187

>  <Name>
cephapirin (cefapirin)

>  <SMILES>
CC(=O)OCC1=C(C(=O)O)N2C(=O)[C@@H](NC(=O)CSc3ccncc3)[C@H]2SC1

>  <logBB>


>  <Class>
-1

>  <MW>
423.06

>  <nHBAcc>
8

>  <nHBDon>
2

>  <SLogP>
0.48

>  <TopoPSA>
125.9

>  <MMFF94 Energy>
-4.2917

$$$$
CC(=O)OCC1=C(C(=O)O)N2C(=O)[C@@H](NC(=O)Cc3ccccc3)[C@H]2SC1
Actelion Java MolfileCreator 2.0

  0  0  0  0  0  0              0 V3000
M  V30 BEGIN CTAB
M  V30 COUNTS 45 47 0 0 0
M  V30 BEGIN ATOM
M  V30 1 S 1.5433 -0.8933 0.0 0
M  V30 2 C 1.1025 0.8556 0.2139 0 CFG=1
M  V30 3 C 2.2579 -0.6177 -1.6528 0
M  V30 4 N 0.1578 1.1815 -0.8291 0
M  V30 5 C -0.0196 1.2295 1.2314 0 CFG=1
M  V30 6 C 1.3461 0.1534 -2.5901 0
M  V30 7 C 0.3422 0.9498 -2.1545 0
M  V30 8 C -0.8551 1.5883 -0.0392 0
M  V30 9 N -0.5731 0.1487 2.0874 0
M  V30 10 C 1.6508 -0.0953 -4.052 0
M  V30 11 C -0.6305 1.5579 -3.1013 0
M  V30 12 O -1.9768 1.9712 -0.2731 0
M  V30 13 C 0.0813 -0.2581 3.2283 0
M  V30 14 O 3.0398 0.2018 -4.2606 0
M  V30 15 O -1.2227 0.9836 -3.9962 0
M  V30 16 O -0.7577 2.879 -2.8856 0
M  V30 17 O 1.1324 0.2622 3.5971 0
M  V30 18 C -0.5401 -1.4399 3.9506 0
M  V30 19 C 3.4802 -0.0739 -5.5185 0
M  V30 20 C -2.0178 -1.2846 4.2207 0
M  V30 21 O 2.8023 -0.5465 -6.4183 0
M  V30 22 C 4.9294 0.2825 -5.644 0
M  V30 23 C -2.4775 -0.2838 5.0886 0
M  V30 24 C -2.9488 -2.1312 3.603 0
M  V30 25 C -3.8435 -0.1275 5.3256 0
M  V30 26 C -4.3145 -1.9721 3.8424 0
M  V30 27 C -4.7613 -0.97 4.7017 0
M  V30 28 H 1.9598 1.5382 0.2459 0
M  V30 29 H 3.2143 -0.0945 -1.5469 0
M  V30 30 H 2.4636 -1.6112 -2.0649 0
M  V30 31 H 0.2082 2.1225 1.8276 0
M  V30 32 H -1.4601 -0.286 1.8521 0
M  V30 33 H 1.4528 -1.148 -4.2878 0
M  V30 34 H 1.069 0.5387 -4.7254 0
M  V30 35 H -1.4714 3.1558 -3.4963 0
M  V30 36 H -0.0199 -1.5816 4.9055 0
M  V30 37 H -0.3479 -2.3348 3.3469 0
M  V30 38 H 5.0663 1.3499 -5.4541 0
M  V30 39 H 5.5193 -0.3124 -4.9424 0
M  V30 40 H 5.2697 0.0631 -6.66 0
M  V30 41 H -1.7739 0.3822 5.5848 0
M  V30 42 H -2.6204 -2.9225 2.9326 0
M  V30 43 H -4.1922 0.6522 5.9981 0
M  V30 44 H -5.0317 -2.6315 3.3601 0
M  V30 45 H -5.8252 -0.8472 4.8874 0
M  V30 END ATOM
M  V30 BEGIN BOND
M  V30 1 1 1 2
M  V30 2 1 1 3
M  V30 3 1 2 4
M  V30 4 1 2 5
M  V30 5 1 3 6
M  V30 6 1 4 7
M  V30 7 1 4 8
M  V30 8 1 5 9
M  V30 9 1 6 10
M  V30 10 1 7 11
M  V30 11 2 8 12
M  V30 12 1 9 13
M  V30 13 1 10 14
M  V30 14 2 11 15
M  V30 15 1 11 16
M  V30 16 2 13 17
M  V30 17 1 13 18
M  V30 18 1 14 19
M  V30 19 1 18 20
M  V30 20 2 19 21
M  V30 21 1 19 22
M  V30 22 2 20 23
M  V30 23 1 20 24
M  V30 24 1 23 25
M  V30 25 2 24 26
M  V30 26 2 25 27
M  V30 27 1 5 8
M  V30 28 2 6 7
M  V30 29 1 26 27
M  V30 30 1 2 28
M  V30 31 1 3 29
M  V30 32 1 3 30
M  V30 33 1 5 31
M  V30 34 1 9 32
M  V30 35 1 10 33
M  V30 36 1 10 34
M  V30 37 1 16 35
M  V30 38 1 18 36
M  V30 39 1 18 37
M  V30 40 1 22 38
M  V30 41 1 22 39
M  V30 42 1 22 40
M  V30 43 1 23 41
M  V30 44 1 24 42
M  V30 45 1 25 43
M  V30 46 1 26 44
M  V30 47 1 27 45
M  V30 END BOND
M  V30 BEGIN COLLECTION
M  V30 MDLV30/STEABS ATOMS=(2 2 5)
M  V30 END COLLECTION
M  V30 END CTAB
M  END
>  <NO.>
1188

>  <Name>
cefaloram

>  <SMILES>
CC(=O)OCC1=C(C(=O)O)N2C(=O)[C@@H](NC(=O)Cc3ccccc3)[C@H]2SC1

>  <logBB>


>  <Class>
-1

>  <MW>
390.09

>  <nHBAcc>
6

>  <nHBDon>
2

>  <SLogP>
0.53

>  <TopoPSA>
113.01

>  <MMFF94 Energy>
3.4198

$$$$
CC(=O)OCC1=C(C(=O)O)N2C(=O)[C@@H](NC(=O)Cc3cccs3)[C@H]2SC1
Actelion Java MolfileCreator 2.0

  0  0  0  0  0  0              0 V3000
M  V30 BEGIN CTAB
M  V30 COUNTS 42 44 0 0 0
M  V30 BEGIN ATOM
M  V30 1 S 1.4029 -0.7425 0.4124 0
M  V30 2 C 0.582 0.8781 0.4099 0 CFG=1
M  V30 3 C 2.2411 -0.4382 -1.1772 0
M  V30 4 N -0.2727 0.9163 -0.7538 0
M  V30 5 C -0.7116 1.0693 1.2617 0 CFG=1
M  V30 6 C 1.309 0.0451 -2.2724 0
M  V30 7 C 0.1144 0.6292 -2.0212 0
M  V30 8 C -1.4381 1.1482 -0.1202 0
M  V30 9 N -1.1338 -0.0439 2.1509 0
M  V30 10 C 1.826 -0.231 -3.6664 0
M  V30 11 C -0.8405 0.966 -3.107 0
M  V30 12 O -2.5761 1.2547 -0.5104 0
M  V30 13 C -0.5492 -0.2271 3.3852 0
M  V30 14 O 3.1248 0.3675 -3.7768 0
M  V30 15 O -1.2364 2.0817 -3.3882 0
M  V30 16 O -1.2462 -0.1321 -3.7685 0
M  V30 17 O 0.3205 0.5262 3.8173 0
M  V30 18 C -1.0416 -1.4405 4.1509 0
M  V30 19 C 3.7238 0.1584 -4.9811 0
M  V30 20 C -2.4191 -1.1814 4.6792 0
M  V30 21 O 3.2482 -0.4856 -5.9043 0
M  V30 22 C 5.0616 0.831 -5.0135 0
M  V30 23 S -3.785 -1.8707 3.9066 0
M  V30 24 C -2.7855 -0.4211 5.7727 0
M  V30 25 C -4.8596 -1.1484 5.0226 0
M  V30 26 C -4.1963 -0.4004 5.969 0
M  V30 27 H 1.2672 1.7322 0.4675 0
M  V30 28 H 3.0471 0.2876 -1.0246 0
M  V30 29 H 2.6981 -1.3899 -1.4682 0
M  V30 30 H -0.7501 2.0294 1.7922 0
M  V30 31 H -1.8862 -0.6658 1.8705 0
M  V30 32 H 1.9016 -1.315 -3.816 0
M  V30 33 H 1.1876 0.1928 -4.447 0
M  V30 34 H -1.9192 0.2109 -4.3938 0
M  V30 35 H -0.3509 -1.6342 4.9796 0
M  V30 36 H -1.0095 -2.3161 3.4925 0
M  V30 37 H 4.9388 1.9074 -4.8693 0
M  V30 38 H 5.7069 0.4096 -4.2388 0
M  V30 39 H 5.5289 0.6612 -5.9876 0
M  V30 40 H -2.0738 0.1031 6.4009 0
M  V30 41 H -5.9256 -1.3067 4.9322 0
M  V30 42 H -4.6991 0.1368 6.7641 0
M  V30 END ATOM
M  V30 BEGIN BOND
M  V30 1 1 1 2
M  V30 2 1 1 3
M  V30 3 1 2 4
M  V30 4 1 2 5
M  V30 5 1 3 6
M  V30 6 1 4 7
M  V30 7 1 4 8
M  V30 8 1 5 9
M  V30 9 1 6 10
M  V30 10 1 7 11
M  V30 11 2 8 12
M  V30 12 1 9 13
M  V30 13 1 10 14
M  V30 14 2 11 15
M  V30 15 1 11 16
M  V30 16 2 13 17
M  V30 17 1 13 18
M  V30 18 1 14 19
M  V30 19 1 18 20
M  V30 20 2 19 21
M  V30 21 1 19 22
M  V30 22 1 20 23
M  V30 23 2 20 24
M  V30 24 1 23 25
M  V30 25 1 24 26
M  V30 26 1 5 8
M  V30 27 2 6 7
M  V30 28 2 25 26
M  V30 29 1 2 27
M  V30 30 1 3 28
M  V30 31 1 3 29
M  V30 32 1 5 30
M  V30 33 1 9 31
M  V30 34 1 10 32
M  V30 35 1 10 33
M  V30 36 1 16 34
M  V30 37 1 18 35
M  V30 38 1 18 36
M  V30 39 1 22 37
M  V30 40 1 22 38
M  V30 41 1 22 39
M  V30 42 1 24 40
M  V30 43 1 25 41
M  V30 44 1 26 42
M  V30 END BOND
M  V30 BEGIN COLLECTION
M  V30 MDLV30/STEABS ATOMS=(2 2 5)
M  V30 END COLLECTION
M  V30 END CTAB
M  END
>  <NO.>
1189

>  <Name>
cephalotin

>  <SMILES>
CC(=O)OCC1=C(C(=O)O)N2C(=O)[C@@H](NC(=O)Cc3cccs3)[C@H]2SC1

>  <logBB>


>  <Class>
-1

>  <MW>
396.04

>  <nHBAcc>
7

>  <nHBDon>
2

>  <SLogP>
0.59

>  <TopoPSA>
113.01

>  <MMFF94 Energy>
-8.7757

$$$$
CC(=O)OCC1=C(C(=O)O)N2C(=O)[C@@H](NC(=O)c3c(-c4ccccc4Cl)noc3C)[C@H]2SC1
Actelion Java MolfileCreator 2.0

  0  0  0  0  0  0              0 V3000
M  V30 BEGIN CTAB
M  V30 COUNTS 51 54 0 0 0
M  V30 BEGIN ATOM
M  V30 1 Cl 1.3984 -0.6578 4.777 0
M  V30 2 C 0.8837 -1.8007 3.5858 0
M  V30 3 C -0.4573 -1.9296 3.1915 0
M  V30 4 C 1.8655 -2.6195 3.0166 0
M  V30 5 C -1.5274 -1.11 3.7491 0
M  V30 6 C -0.7935 -2.8993 2.2314 0
M  V30 7 C 1.5191 -3.5715 2.0572 0
M  V30 8 N -2.5149 -1.704 4.4383 0
M  V30 9 C -1.7318 0.3032 3.6837 0
M  V30 10 C 0.1901 -3.7124 1.6658 0
M  V30 11 O -3.3371 -0.6945 4.8836 0
M  V30 12 C -2.8689 0.4988 4.4444 0
M  V30 13 C -0.9971 1.3733 3.0401 0
M  V30 14 C -3.6475 1.6904 4.839 0
M  V30 15 O -1.071 2.5377 3.4223 0
M  V30 16 N -0.235 1.0232 1.9486 0
M  V30 17 C 0.5119 2.0541 1.1715 0 CFG=2
M  V30 18 C -0.2771 2.6769 -0.0404 0
M  V30 19 C 1.4927 1.5429 0.0735 0 CFG=2
M  V30 20 O -1.2764 3.3321 -0.2137 0
M  V30 21 N 0.5639 2.0623 -0.8974 0
M  V30 22 S 1.6093 -0.2489 -0.1742 0
M  V30 23 C 0.6306 1.841 -2.2347 0
M  V30 24 C 2.225 -0.0909 -1.8826 0
M  V30 25 C 1.4253 0.8698 -2.7405 0
M  V30 26 C -0.2392 2.6638 -3.1189 0
M  V30 27 C 1.6009 0.6258 -4.2225 0
M  V30 28 O -0.9818 2.2536 -3.9915 0
M  V30 29 O -0.0613 3.9753 -2.8805 0
M  V30 30 O 0.8688 -0.5532 -4.5617 0
M  V30 31 C 0.9485 -0.8834 -5.879 0
M  V30 32 O 1.6352 -0.3076 -6.7108 0
M  V30 33 C 0.0859 -2.0738 -6.1644 0
M  V30 34 H 2.9051 -2.524 3.3212 0
M  V30 35 H -1.831 -3.0322 1.9261 0
M  V30 36 H 2.2856 -4.2073 1.6205 0
M  V30 37 H -0.0836 -4.4607 0.9255 0
M  V30 38 H -4.5753 1.4095 5.3476 0
M  V30 39 H -3.0655 2.3184 5.5205 0
M  V30 40 H -3.9139 2.2854 3.9599 0
M  V30 41 H -0.2453 0.0688 1.6076 0
M  V30 42 H 0.966 2.8081 1.8253 0
M  V30 43 H 2.4558 2.0671 0.0699 0
M  V30 44 H 3.2736 0.2247 -1.8575 0
M  V30 45 H 2.1924 -1.0981 -2.3106 0
M  V30 46 H 1.2623 1.4692 -4.8331 0
M  V30 47 H 2.6673 0.4755 -4.4357 0
M  V30 48 H -0.7343 4.4176 -3.4382 0
M  V30 49 H 0.4515 -2.9385 -5.6052 0
M  V30 50 H -0.9508 -1.8529 -5.8979 0
M  V30 51 H 0.1273 -2.3034 -7.233 0
M  V30 END ATOM
M  V30 BEGIN BOND
M  V30 1 1 1 2
M  V30 2 2 2 3
M  V30 3 1 2 4
M  V30 4 1 3 5
M  V30 5 1 3 6
M  V30 6 2 4 7
M  V30 7 2 5 8
M  V30 8 1 5 9
M  V30 9 2 6 10
M  V30 10 1 8 11
M  V30 11 2 9 12
M  V30 12 1 9 13
M  V30 13 1 12 14
M  V30 14 2 13 15
M  V30 15 1 13 16
M  V30 16 1 16 17
M  V30 17 1 17 18
M  V30 18 1 17 19
M  V30 19 2 18 20
M  V30 20 1 18 21
M  V30 21 1 19 22
M  V30 22 1 21 23
M  V30 23 1 22 24
M  V30 24 2 23 25
M  V30 25 1 23 26
M  V30 26 1 25 27
M  V30 27 2 26 28
M  V30 28 1 26 29
M  V30 29 1 27 30
M  V30 30 1 30 31
M  V30 31 2 31 32
M  V30 32 1 31 33
M  V30 33 1 7 10
M  V30 34 1 11 12
M  V30 35 1 19 21
M  V30 36 1 24 25
M  V30 37 1 4 34
M  V30 38 1 6 35
M  V30 39 1 7 36
M  V30 40 1 10 37
M  V30 41 1 14 38
M  V30 42 1 14 39
M  V30 43 1 14 40
M  V30 44 1 16 41
M  V30 45 1 17 42
M  V30 46 1 19 43
M  V30 47 1 24 44
M  V30 48 1 24 45
M  V30 49 1 27 46
M  V30 50 1 27 47
M  V30 51 1 29 48
M  V30 52 1 33 49
M  V30 53 1 33 50
M  V30 54 1 33 51
M  V30 END BOND
M  V30 BEGIN COLLECTION
M  V30 MDLV30/STEABS ATOMS=(2 17 19)
M  V30 END COLLECTION
M  V30 END CTAB
M  END
>  <NO.>
1191

>  <Name>
cefoxazole

>  <SMILES>
CC(=O)OCC1=C(C(=O)O)N2C(=O)[C@@H](NC(=O)c3c(-c4ccccc4Cl)noc3C)[C@H]2SC1

>  <logBB>


>  <Class>
-1

>  <MW>
491.06

>  <nHBAcc>
8

>  <nHBDon>
2

>  <SLogP>
2.22

>  <TopoPSA>
139.04

>  <MMFF94 Energy>
-19.279

$$$$
CC(=O)OCC1=CO[C@@H](OC(=O)CC(C)C)[C@H]2C1=C[C@H](OC(=O)CC(C)(C)OC(C)=O)[C@]21CO1
Actelion Java MolfileCreator 2.0

  0  0  0  0  0  0              0 V3000
M  V30 BEGIN CTAB
M  V30 COUNTS 66 68 0 0 0
M  V30 BEGIN ATOM
M  V30 1 O -1.5158 0.3189 -3.9129 0
M  V30 2 C -0.6034 -0.4439 -3.6324 0
M  V30 3 O -0.4194 -1.0427 -2.4291 0
M  V30 4 C 0.4898 -0.8376 -4.5901 0
M  V30 5 C -1.4287 -0.7906 -1.444 0 CFG=1
M  V30 6 C 1.6892 0.1277 -4.6295 0
M  V30 7 C -1.4841 -2.0276 -0.5784 0
M  V30 8 C -0.984 0.299 -0.4878 0 CFG=1
M  V30 9 O 2.5685 -0.4686 -5.6339 0
M  V30 10 C 2.3927 0.1668 -3.2657 0
M  V30 11 C 1.2416 1.525 -5.0802 0
M  V30 12 C -1.0325 -1.7774 0.6597 0
M  V30 13 O -1.9061 1.394 -0.3535 0
M  V30 14 C -0.5441 -0.3497 0.8072 0 CFG=2
M  V30 15 C -0.6197 1.707 -0.9023 0
M  V30 16 C 3.7599 0.0956 -5.9647 0
M  V30 17 C -1.0035 -2.6076 1.8391 0
M  V30 18 C -1.1133 0.2101 2.1166 0 CFG=1
M  V30 19 O 4.2352 1.1146 -5.4882 0
M  V30 20 C 4.4301 -0.7282 -7.0219 0
M  V30 21 C -0.8292 -1.9878 3.0216 0
M  V30 22 C -1.1387 -4.1041 1.6725 0
M  V30 23 O -0.734 -0.6316 3.2325 0
M  V30 24 O -0.5471 1.516 2.321 0
M  V30 25 O -0.9975 -4.7764 2.9305 0
M  V30 26 C -1.2856 2.3365 3.115 0
M  V30 27 C -1.1086 -6.1284 2.8419 0
M  V30 28 O -2.3634 2.0593 3.6199 0
M  V30 29 C -0.5835 3.6712 3.2398 0
M  V30 30 O -1.3043 -6.7575 1.812 0
M  V30 31 C -0.9547 -6.7463 4.1976 0
M  V30 32 C -1.0723 4.4999 4.4376 0
M  V30 33 C -0.6167 3.8876 5.7645 0
M  V30 34 C -0.5571 5.936 4.3264 0
M  V30 35 H 0.8227 -1.8572 -4.3529 0
M  V30 36 H 0.0388 -0.9296 -5.5873 0
M  V30 37 H -2.4172 -0.5991 -1.8783 0
M  V30 38 H -1.9008 -2.9599 -0.9308 0
M  V30 39 H 1.7348 0.5433 -2.4772 0
M  V30 40 H 2.7434 -0.8317 -2.9821 0
M  V30 41 H 3.2744 0.8139 -3.2763 0
M  V30 42 H 2.0828 2.2199 -5.1577 0
M  V30 43 H 0.5262 1.9701 -4.3821 0
M  V30 44 H 0.7814 1.4823 -6.0736 0
M  V30 45 H 0.554 -0.3481 0.8448 0
M  V30 46 H -0.5851 1.9643 -1.9529 0
M  V30 47 H 0.0692 2.2701 -0.2851 0
M  V30 48 H -2.2106 0.2598 2.0685 0
M  V30 49 H 4.6221 -1.7344 -6.6413 0
M  V30 50 H 3.8017 -0.7673 -7.9152 0
M  V30 51 H 5.3859 -0.2681 -7.2886 0
M  V30 52 H -0.7355 -2.5068 3.9687 0
M  V30 53 H -2.1278 -4.334 1.2572 0
M  V30 54 H -0.3588 -4.4634 0.9894 0
M  V30 55 H -0.7686 4.2133 2.3049 0
M  V30 56 H 0.4957 3.4978 3.328 0
M  V30 57 H 0.0331 -6.5121 4.6016 0
M  V30 58 H -1.7401 -6.3796 4.8634 0
M  V30 59 H -1.0486 -7.8327 4.1135 0
M  V30 60 H -2.169 4.5342 4.435 0
M  V30 61 H -1.0103 2.8745 5.8922 0
M  V30 62 H 0.4757 3.8357 5.8238 0
M  V30 63 H -0.9714 4.488 6.6092 0
M  V30 64 H -0.9115 6.4058 3.4028 0
M  V30 65 H 0.5376 5.9671 4.3245 0
M  V30 66 H -0.9122 6.5431 5.166 0
M  V30 END ATOM
M  V30 BEGIN BOND
M  V30 1 2 1 2
M  V30 2 1 2 3
M  V30 3 1 2 4
M  V30 4 1 3 5
M  V30 5 1 4 6
M  V30 6 1 5 7
M  V30 7 1 5 8
M  V30 8 1 6 9
M  V30 9 1 6 10
M  V30 10 1 6 11
M  V30 11 2 7 12
M  V30 12 1 8 13
M  V30 13 1 8 14
M  V30 14 1 8 15
M  V30 15 1 9 16
M  V30 16 1 12 17
M  V30 17 1 14 18
M  V30 18 2 16 19
M  V30 19 1 16 20
M  V30 20 2 17 21
M  V30 21 1 17 22
M  V30 22 1 18 23
M  V30 23 1 18 24
M  V30 24 1 22 25
M  V30 25 1 24 26
M  V30 26 1 25 27
M  V30 27 2 26 28
M  V30 28 1 26 29
M  V30 29 2 27 30
M  V30 30 1 27 31
M  V30 31 1 29 32
M  V30 32 1 32 33
M  V30 33 1 32 34
M  V30 34 1 12 14
M  V30 35 1 13 15
M  V30 36 1 21 23
M  V30 37 1 4 35
M  V30 38 1 4 36
M  V30 39 1 5 37
M  V30 40 1 7 38
M  V30 41 1 10 39
M  V30 42 1 10 40
M  V30 43 1 10 41
M  V30 44 1 11 42
M  V30 45 1 11 43
M  V30 46 1 11 44
M  V30 47 1 14 45
M  V30 48 1 15 46
M  V30 49 1 15 47
M  V30 50 1 18 48
M  V30 51 1 20 49
M  V30 52 1 20 50
M  V30 53 1 20 51
M  V30 54 1 21 52
M  V30 55 1 22 53
M  V30 56 1 22 54
M  V30 57 1 29 55
M  V30 58 1 29 56
M  V30 59 1 31 57
M  V30 60 1 31 58
M  V30 61 1 31 59
M  V30 62 1 32 60
M  V30 63 1 33 61
M  V30 64 1 33 62
M  V30 65 1 33 63
M  V30 66 1 34 64
M  V30 67 1 34 65
M  V30 68 1 34 66
M  V30 END BOND
M  V30 BEGIN COLLECTION
M  V30 MDLV30/STEABS ATOMS=(4 5 8 14 18)
M  V30 END COLLECTION
M  V30 END CTAB
M  END
>  <NO.>
1193

>  <Name>
acevaltrate

>  <SMILES>
CC(=O)OCC1=CO[C@@H](OC(=O)CC(C)C)[C@H]2C1=C[C@H](OC(=O)CC(C)(C)OC(C)=O)[C@]21CO1

>  <logBB>


>  <Class>
1

>  <MW>
480.2

>  <nHBAcc>
10

>  <nHBDon>
0

>  <SLogP>
2.35

>  <TopoPSA>
126.96

>  <MMFF94 Energy>
5.8767

$$$$
CC(=O)OCC1=CO[C@@H](OC(=O)CC(C)C)[C@H]2C1=C[C@H](OC(=O)CC(C)C)[C@]21CO1
Actelion Java MolfileCreator 2.0

  0  0  0  0  0  0              0 V3000
M  V30 BEGIN CTAB
M  V30 COUNTS 60 62 0 0 0
M  V30 BEGIN ATOM
M  V30 1 O 3.1098 0.1593 3.5889 0
M  V30 2 C 2.1956 0.9633 3.4833 0
M  V30 3 O 1.4637 1.1892 2.3597 0
M  V30 4 C 1.6692 1.8354 4.6027 0
M  V30 5 C 1.8594 0.4079 1.2192 0 CFG=2
M  V30 6 C 2.6676 2.0003 5.7587 0
M  V30 7 O 2.9618 1.0833 0.5632 0
M  V30 8 C 0.6531 0.3059 0.2773 0 CFG=1
M  V30 9 C 3.8604 2.8675 5.3481 0
M  V30 10 C 1.969 2.6213 6.9699 0
M  V30 11 C 3.1938 0.7257 -0.7445 0
M  V30 12 C 1.108 -0.3977 -0.9853 0
M  V30 13 C -0.5249 -0.5287 0.7295 0 CFG=2
M  V30 14 C 2.3772 0.0053 -1.5348 0
M  V30 15 C 0.2495 -1.3556 -1.3651 0
M  V30 16 O -0.4158 -1.117 2.036 0
M  V30 17 C -0.8872 -1.4948 -0.3807 0 CFG=2
M  V30 18 C -1.4548 -0.1448 1.8578 0
M  V30 19 C 2.7529 -0.375 -2.9431 0
M  V30 20 O -2.066 -1.0525 -1.0616 0
M  V30 21 O 1.8331 0.2527 -3.8449 0
M  V30 22 C -3.2141 -1.6967 -0.7324 0
M  V30 23 C 2.0146 -0.0961 -5.1451 0
M  V30 24 O -3.3222 -2.5771 0.1085 0
M  V30 25 C -4.3601 -1.1863 -1.5714 0
M  V30 26 O 2.8695 -0.8647 -5.5608 0
M  V30 27 C 1.0069 0.5989 -6.0082 0
M  V30 28 C -4.7978 -2.2182 -2.6169 0
M  V30 29 C -6.125 -1.795 -3.2476 0
M  V30 30 C -3.7374 -2.399 -3.7056 0
M  V30 31 H 1.4122 2.8205 4.1946 0
M  V30 32 H 0.748 1.3628 4.9639 0
M  V30 33 H 2.1923 -0.5942 1.5253 0
M  V30 34 H 3.0471 1.015 6.0572 0
M  V30 35 H 0.293 1.3114 0.0184 0
M  V30 36 H 4.4076 2.4224 4.5113 0
M  V30 37 H 3.5378 3.8699 5.0461 0
M  V30 38 H 4.5635 2.977 6.1809 0
M  V30 39 H 1.1393 1.9904 7.3061 0
M  V30 40 H 1.567 3.6124 6.7329 0
M  V30 41 H 2.6656 2.7294 7.8081 0
M  V30 42 H 4.15 1.1223 -1.0668 0
M  V30 43 H 0.3576 -2.005 -2.2213 0
M  V30 44 H -0.9469 -2.5334 -0.0345 0
M  V30 45 H -1.3282 0.8206 2.3316 0
M  V30 46 H -2.4744 -0.509 1.854 0
M  V30 47 H 3.7688 -0.0353 -3.1799 0
M  V30 48 H 2.7157 -1.4657 -3.0568 0
M  V30 49 H -4.0829 -0.2366 -2.0452 0
M  V30 50 H -5.1796 -0.9547 -0.8799 0
M  V30 51 H -0.0023 0.3012 -5.7125 0
M  V30 52 H 1.1298 1.6816 -5.9232 0
M  V30 53 H 1.1636 0.3112 -7.0518 0
M  V30 54 H -4.9483 -3.1884 -2.1263 0
M  V30 55 H -6.9062 -1.703 -2.4854 0
M  V30 56 H -6.0334 -0.8298 -3.7576 0
M  V30 57 H -6.4612 -2.5354 -3.9811 0
M  V30 58 H -2.7982 -2.7733 -3.2858 0
M  V30 59 H -3.5276 -1.4535 -4.2175 0
M  V30 60 H -4.0727 -3.1224 -4.4566 0
M  V30 END ATOM
M  V30 BEGIN BOND
M  V30 1 2 1 2
M  V30 2 1 2 3
M  V30 3 1 2 4
M  V30 4 1 3 5
M  V30 5 1 4 6
M  V30 6 1 5 7
M  V30 7 1 5 8
M  V30 8 1 6 9
M  V30 9 1 6 10
M  V30 10 1 7 11
M  V30 11 1 8 12
M  V30 12 1 8 13
M  V30 13 2 11 14
M  V30 14 2 12 15
M  V30 15 1 13 16
M  V30 16 1 13 17
M  V30 17 1 13 18
M  V30 18 1 14 19
M  V30 19 1 17 20
M  V30 20 1 19 21
M  V30 21 1 20 22
M  V30 22 1 21 23
M  V30 23 2 22 24
M  V30 24 1 22 25
M  V30 25 2 23 26
M  V30 26 1 23 27
M  V30 27 1 25 28
M  V30 28 1 28 29
M  V30 29 1 28 30
M  V30 30 1 12 14
M  V30 31 1 15 17
M  V30 32 1 16 18
M  V30 33 1 4 31
M  V30 34 1 4 32
M  V30 35 1 5 33
M  V30 36 1 6 34
M  V30 37 1 8 35
M  V30 38 1 9 36
M  V30 39 1 9 37
M  V30 40 1 9 38
M  V30 41 1 10 39
M  V30 42 1 10 40
M  V30 43 1 10 41
M  V30 44 1 11 42
M  V30 45 1 15 43
M  V30 46 1 17 44
M  V30 47 1 18 45
M  V30 48 1 18 46
M  V30 49 1 19 47
M  V30 50 1 19 48
M  V30 51 1 25 49
M  V30 52 1 25 50
M  V30 53 1 27 51
M  V30 54 1 27 52
M  V30 55 1 27 53
M  V30 56 1 28 54
M  V30 57 1 29 55
M  V30 58 1 29 56
M  V30 59 1 29 57
M  V30 60 1 30 58
M  V30 61 1 30 59
M  V30 62 1 30 60
M  V30 END BOND
M  V30 BEGIN COLLECTION
M  V30 MDLV30/STEABS ATOMS=(4 5 8 13 17)
M  V30 END COLLECTION
M  V30 END CTAB
M  END
>  <NO.>
1194

>  <Name>
valtrate

>  <SMILES>
CC(=O)OCC1=CO[C@@H](OC(=O)CC(C)C)[C@H]2C1=C[C@H](OC(=O)CC(C)C)[C@]21CO1

>  <logBB>


>  <Class>
1

>  <MW>
422.19

>  <nHBAcc>
8

>  <nHBDon>
0

>  <SLogP>
2.66

>  <TopoPSA>
100.66

>  <MMFF94 Energy>
11.651

$$$$
CC(=O)OCCN1CCN(CCCN2c3ccccc3Sc3ccc(Cl)cc32)CC1
Actelion Java MolfileCreator 2.0

  0  0  0  0  0  0              0 V3000
M  V30 BEGIN CTAB
M  V30 COUNTS 58 61 0 0 0
M  V30 BEGIN ATOM
M  V30 1 Cl -0.973 -4.5472 -5.5236 0
M  V30 2 C -1.6002 -2.9836 -5.1706 0
M  V30 3 C -2.1008 -2.7093 -3.8962 0
M  V30 4 C -1.6098 -2.008 -6.1564 0
M  V30 5 C -2.6177 -1.4403 -3.5662 0
M  V30 6 C -2.1423 -0.7546 -5.8655 0
M  V30 7 N -3.1096 -1.1678 -2.2609 0
M  V30 8 C -2.6577 -0.47 -4.5883 0
M  V30 9 C -4.0097 -0.1144 -1.9453 0
M  V30 10 C -2.2632 -1.6468 -1.1391 0
M  V30 11 S -3.3204 1.1652 -4.3477 0
M  V30 12 C -4.1868 0.9895 -2.8017 0
M  V30 13 C -4.7931 -0.1544 -0.7736 0
M  V30 14 C -1.0475 -0.7301 -0.9344 0
M  V30 15 C -5.064 2.0313 -2.4518 0
M  V30 16 C -5.6716 0.8796 -0.4358 0
M  V30 17 C -0.2165 -1.1955 0.2668 0
M  V30 18 C -5.7998 1.9796 -1.2711 0
M  V30 19 N 1.0426 -0.4505 0.4205 0
M  V30 20 C 0.8201 0.9611 0.7965 0
M  V30 21 C 1.887 -1.0871 1.454 0
M  V30 22 C 2.1441 1.7217 1.0413 0
M  V30 23 C 3.2116 -0.3269 1.6975 0
M  V30 24 N 2.9884 1.0829 2.0727 0
M  V30 25 C 4.2538 1.8303 2.2245 0
M  V30 26 C 5.1318 1.381 3.4044 0
M  V30 27 O 4.4211 1.5788 4.6358 0
M  V30 28 C 5.0416 1.067 5.7304 0
M  V30 29 O 6.1264 0.5027 5.7348 0
M  V30 30 C 4.2032 1.2993 6.9497 0
M  V30 31 H -2.1128 -3.5164 -3.1707 0
M  V30 32 H -1.2202 -2.2152 -7.1488 0
M  V30 33 H -2.1602 0.0031 -6.6463 0
M  V30 34 H -1.9209 -2.6741 -1.2997 0
M  V30 35 H -2.8244 -1.7095 -0.2013 0
M  V30 36 H -4.7628 -1.0165 -0.1139 0
M  V30 37 H -1.3931 0.2984 -0.7825 0
M  V30 38 H -0.4241 -0.7297 -1.837 0
M  V30 39 H -5.1851 2.8901 -3.1087 0
M  V30 40 H -6.2612 0.8151 0.4751 0
M  V30 41 H -0.8191 -1.136 1.1826 0
M  V30 42 H 0.0225 -2.2557 0.1123 0
M  V30 43 H -6.4807 2.7871 -1.0161 0
M  V30 44 H 0.2908 1.4856 -0.006 0
M  V30 45 H 0.1974 1.0254 1.699 0
M  V30 46 H 1.3393 -1.1622 2.4035 0
M  V30 47 H 2.1374 -2.108 1.1408 0
M  V30 48 H 2.6911 1.7987 0.0918 0
M  V30 49 H 1.8935 2.7419 1.3568 0
M  V30 50 H 3.8335 -0.3918 0.7948 0
M  V30 51 H 3.7418 -0.8497 2.5006 0
M  V30 52 H 4.005 2.8854 2.3979 0
M  V30 53 H 4.8428 1.7811 1.3 0
M  V30 54 H 5.4315 0.3332 3.2953 0
M  V30 55 H 6.0365 2.0003 3.4252 0
M  V30 56 H 4.0763 2.3723 7.1135 0
M  V30 57 H 3.2331 0.8103 6.8313 0
M  V30 58 H 4.7047 0.8698 7.8216 0
M  V30 END ATOM
M  V30 BEGIN BOND
M  V30 1 1 1 2
M  V30 2 2 2 3
M  V30 3 1 2 4
M  V30 4 1 3 5
M  V30 5 2 4 6
M  V30 6 1 5 7
M  V30 7 2 5 8
M  V30 8 1 7 9
M  V30 9 1 7 10
M  V30 10 1 8 11
M  V30 11 2 9 12
M  V30 12 1 9 13
M  V30 13 1 10 14
M  V30 14 1 12 15
M  V30 15 2 13 16
M  V30 16 1 14 17
M  V30 17 2 15 18
M  V30 18 1 17 19
M  V30 19 1 19 20
M  V30 20 1 19 21
M  V30 21 1 20 22
M  V30 22 1 21 23
M  V30 23 1 22 24
M  V30 24 1 24 25
M  V30 25 1 25 26
M  V30 26 1 26 27
M  V30 27 1 27 28
M  V30 28 2 28 29
M  V30 29 1 28 30
M  V30 30 1 6 8
M  V30 31 1 11 12
M  V30 32 1 16 18
M  V30 33 1 23 24
M  V30 34 1 3 31
M  V30 35 1 4 32
M  V30 36 1 6 33
M  V30 37 1 10 34
M  V30 38 1 10 35
M  V30 39 1 13 36
M  V30 40 1 14 37
M  V30 41 1 14 38
M  V30 42 1 15 39
M  V30 43 1 16 40
M  V30 44 1 17 41
M  V30 45 1 17 42
M  V30 46 1 18 43
M  V30 47 1 20 44
M  V30 48 1 20 45
M  V30 49 1 21 46
M  V30 50 1 21 47
M  V30 51 1 22 48
M  V30 52 1 22 49
M  V30 53 1 23 50
M  V30 54 1 23 51
M  V30 55 1 25 52
M  V30 56 1 25 53
M  V30 57 1 26 54
M  V30 58 1 26 55
M  V30 59 1 30 56
M  V30 60 1 30 57
M  V30 61 1 30 58
M  V30 END BOND
M  V30 END CTAB
M  END
>  <NO.>
1195

>  <Name>
thiopropazate

>  <SMILES>
CC(=O)OCCN1CCN(CCCN2c3ccccc3Sc3ccc(Cl)cc32)CC1

>  <logBB>


>  <Class>
1

>  <MW>
445.16

>  <nHBAcc>
6

>  <nHBDon>
0

>  <SLogP>
4.51

>  <TopoPSA>
36.02

>  <MMFF94 Energy>
135.97

$$$$
CC(=O)OCOC(=O)C1N2C(=O)C(NC(=O)Cc3ccccc3)C2SC1(C)C
Actelion Java MolfileCreator 2.0

  0  0  0  0  0  0              0 V3000
M  V30 BEGIN CTAB
M  V30 COUNTS 50 52 0 0 0
M  V30 BEGIN ATOM
M  V30 1 S -0.4866 1.0545 0.6488 0
M  V30 2 C 1.1699 0.2384 0.3606 0
M  V30 3 C -1.4134 -0.5296 0.7473 0
M  V30 4 C 0.9899 -1.2692 0.6864 0
M  V30 5 C 1.5193 0.4336 -1.1254 0
M  V30 6 C 2.2075 0.9849 1.2059 0
M  V30 7 N -0.4169 -1.5465 0.4523 0
M  V30 8 C -2.1779 -0.9797 -0.5285 0
M  V30 9 C 1.4268 -1.6593 2.1051 0
M  V30 10 C -0.9576 -1.934 -0.7321 0
M  V30 11 N -2.3609 0.054 -1.5806 0
M  V30 12 O 2.5972 -1.6519 2.4713 0
M  V30 13 O 0.374 -1.9769 2.9055 0
M  V30 14 O -0.4983 -2.6379 -1.5992 0
M  V30 15 C -3.1268 -0.1746 -2.7008 0
M  V30 16 C 0.7255 -2.278 4.2601 0
M  V30 17 O -3.8211 -1.1789 -2.8324 0
M  V30 18 C -3.1085 0.9421 -3.7311 0
M  V30 19 O 0.9298 -1.0717 4.9933 0
M  V30 20 C -1.7198 1.4336 -4.0706 0
M  V30 21 C 1.2779 -1.2907 6.2874 0
M  V30 22 C -1.3385 2.7519 -3.7851 0
M  V30 23 C -0.7893 0.5688 -4.6648 0
M  V30 24 O 1.3685 -2.3875 6.8196 0
M  V30 25 C 1.5259 0.0129 6.982 0
M  V30 26 C -0.0476 3.1926 -4.0806 0
M  V30 27 C 0.5001 1.0128 -4.9592 0
M  V30 28 C 0.8709 2.3236 -4.6661 0
M  V30 29 H -1.9396 -0.6981 1.6913 0
M  V30 30 H 1.5771 -1.895 0.0028 0
M  V30 31 H 1.5952 1.4954 -1.3882 0
M  V30 32 H 2.4881 -0.0258 -1.3535 0
M  V30 33 H 0.7814 -0.0208 -1.7935 0
M  V30 34 H 3.2015 0.5404 1.0823 0
M  V30 35 H 2.2908 2.0365 0.9046 0
M  V30 36 H 1.9618 0.9741 2.2738 0
M  V30 37 H -3.1089 -1.515 -0.3087 0
M  V30 38 H -1.8033 0.9035 -1.5417 0
M  V30 39 H -0.1251 -2.8207 4.6877 0
M  V30 40 H 1.6087 -2.9288 4.2988 0
M  V30 41 H -3.7262 1.7606 -3.3426 0
M  V30 42 H -3.5891 0.5828 -4.6488 0
M  V30 43 H -2.042 3.4477 -3.3327 0
M  V30 44 H -1.061 -0.4601 -4.8967 0
M  V30 45 H 2.3288 0.5554 6.4766 0
M  V30 46 H 0.6084 0.6065 6.9945 0
M  V30 47 H 1.8329 -0.1789 8.0141 0
M  V30 48 H 0.2412 4.2169 -3.8581 0
M  V30 49 H 1.2147 0.3339 -5.4178 0
M  V30 50 H 1.875 2.6687 -4.8988 0
M  V30 END ATOM
M  V30 BEGIN BOND
M  V30 1 1 1 2
M  V30 2 1 1 3
M  V30 3 1 2 4
M  V30 4 1 2 5
M  V30 5 1 2 6
M  V30 6 1 3 7
M  V30 7 1 3 8
M  V30 8 1 4 9
M  V30 9 1 7 10
M  V30 10 1 8 11
M  V30 11 2 9 12
M  V30 12 1 9 13
M  V30 13 2 10 14
M  V30 14 1 11 15
M  V30 15 1 13 16
M  V30 16 2 15 17
M  V30 17 1 15 18
M  V30 18 1 16 19
M  V30 19 1 18 20
M  V30 20 1 19 21
M  V30 21 2 20 22
M  V30 22 1 20 23
M  V30 23 2 21 24
M  V30 24 1 21 25
M  V30 25 1 22 26
M  V30 26 2 23 27
M  V30 27 2 26 28
M  V30 28 1 4 7
M  V30 29 1 8 10
M  V30 30 1 27 28
M  V30 31 1 3 29
M  V30 32 1 4 30
M  V30 33 1 5 31
M  V30 34 1 5 32
M  V30 35 1 5 33
M  V30 36 1 6 34
M  V30 37 1 6 35
M  V30 38 1 6 36
M  V30 39 1 8 37
M  V30 40 1 11 38
M  V30 41 1 16 39
M  V30 42 1 16 40
M  V30 43 1 18 41
M  V30 44 1 18 42
M  V30 45 1 22 43
M  V30 46 1 23 44
M  V30 47 1 25 45
M  V30 48 1 25 46
M  V30 49 1 25 47
M  V30 50 1 26 48
M  V30 51 1 27 49
M  V30 52 1 28 50
M  V30 END BOND
M  V30 END CTAB
M  END
>  <NO.>
1196

>  <Name>
schembl33896

>  <SMILES>
CC(=O)OCOC(=O)C1N2C(=O)C(NC(=O)Cc3ccccc3)C2SC1(C)C

>  <logBB>


>  <Class>
-1

>  <MW>
406.12

>  <nHBAcc>
7

>  <nHBDon>
1

>  <SLogP>
0.84

>  <TopoPSA>
102.01

>  <MMFF94 Energy>
28.326

$$$$
CC(=O)O[C@@H](C)C(=O)[C@@]1(O)CC[C@H]2[C@@H]3CCC4=CC(=O)C=C[C@]4(C)[C@@]3(F)[C@@H](O)C[C@@]21C
Actelion Java MolfileCreator 2.0

  0  0  0  0  0  0              0 V3000
M  V30 BEGIN CTAB
M  V30 COUNTS 62 65 0 0 0
M  V30 BEGIN ATOM
M  V30 1 F 1.7779 -1.7779 -0.5654 0
M  V30 2 C 0.4544 -2.1505 -0.3756 0 CFG=2
M  V30 3 C 0.4594 -3.728 -0.2273 0 CFG=2
M  V30 4 C -0.2989 -1.592 -1.6249 0 CFG=1
M  V30 5 C 0.0012 -1.4432 0.9466 0 CFG=2
M  V30 6 C 1.2963 -4.0787 1.0183 0
M  V30 7 C 1.0429 -4.3904 -1.4757 0
M  V30 8 C -0.9454 -4.3458 -0.0387 0
M  V30 9 O -1.6419 -2.0609 -1.7003 0
M  V30 10 C -0.28 -0.0474 -1.7007 0
M  V30 11 C 0.096 0.0793 0.7593 0 CFG=1
M  V30 12 C 0.8654 -1.8939 2.1392 0
M  V30 13 C 2.3725 -4.8851 0.9922 0
M  V30 14 C 0.877 -3.41 2.3026 0
M  V30 15 C 2.1161 -5.1919 -1.496 0
M  V30 16 C -0.7695 0.6272 -0.4035 0 CFG=1
M  V30 17 C -0.2804 0.9923 1.9223 0
M  V30 18 C 2.8515 -5.5084 -0.2578 0
M  V30 19 C -0.4385 2.1574 -0.2685 0 CFG=1
M  V30 20 C -2.2843 0.3475 -0.1817 0
M  V30 21 C -0.5007 2.3741 1.2674 0
M  V30 22 O 3.8194 -6.2585 -0.2658 0
M  V30 23 O 0.9167 2.3635 -0.6957 0
M  V30 24 C -1.359 3.1303 -1.054 0
M  V30 25 O -2.4322 2.7783 -1.5525 0
M  V30 26 C -0.8751 4.5736 -1.2821 0 CFG=1
M  V30 27 O 0.0656 5.0783 -0.3292 0
M  V30 28 C -0.2217 4.6626 -2.6583 0
M  V30 29 C -0.483 5.6526 0.7779 0
M  V30 30 O -1.6711 5.6422 1.059 0
M  V30 31 C 0.5877 6.272 1.6223 0
M  V30 32 H 0.2085 -1.9493 -2.528 0
M  V30 33 H -1.0313 -1.7207 1.177 0
M  V30 34 H 0.5268 -4.2153 -2.4171 0
M  V30 35 H -1.5437 -3.8154 0.708 0
M  V30 36 H -0.8759 -5.3908 0.2917 0
M  V30 37 H -1.5224 -4.3615 -0.9695 0
M  V30 38 H -2.0603 -1.6423 -2.4744 0
M  V30 39 H 0.7497 0.2584 -1.9215 0
M  V30 40 H -0.8947 0.2949 -2.5423 0
M  V30 41 H 1.1558 0.2872 0.5416 0
M  V30 42 H 0.4879 -1.4457 3.066 0
M  V30 43 H 1.895 -1.5339 2.0125 0
M  V30 44 H 2.96 -5.1108 1.8747 0
M  V30 45 H -0.1174 -3.7645 2.5974 0
M  V30 46 H 1.5514 -3.6718 3.1271 0
M  V30 47 H 2.4855 -5.6488 -2.4057 0
M  V30 48 H -1.1965 0.655 2.4202 0
M  V30 49 H 0.5095 1.0373 2.6792 0
M  V30 50 H -2.7324 1.0197 0.5572 0
M  V30 51 H -2.4902 -0.6664 0.166 0
M  V30 52 H -2.8482 0.4671 -1.1129 0
M  V30 53 H -1.4672 2.7805 1.5856 0
M  V30 54 H 0.2807 3.0583 1.6138 0
M  V30 55 H 1.2224 3.2263 -0.3612 0
M  V30 56 H -1.7657 5.216 -1.3001 0
M  V30 57 H -0.8914 4.3 -3.4446 0
M  V30 58 H 0.7021 4.0765 -2.7014 0
M  V30 59 H 0.0529 5.699 -2.8828 0
M  V30 60 H 1.2723 5.4987 1.9793 0
M  V30 61 H 1.1268 7.0257 1.043 0
M  V30 62 H 0.1295 6.7617 2.4865 0
M  V30 END ATOM
M  V30 BEGIN BOND
M  V30 1 1 1 2
M  V30 2 1 2 3
M  V30 3 1 2 4
M  V30 4 1 2 5
M  V30 5 1 3 6
M  V30 6 1 3 7
M  V30 7 1 3 8
M  V30 8 1 4 9
M  V30 9 1 4 10
M  V30 10 1 5 11
M  V30 11 1 5 12
M  V30 12 2 6 13
M  V30 13 1 6 14
M  V30 14 2 7 15
M  V30 15 1 10 16
M  V30 16 1 11 17
M  V30 17 1 13 18
M  V30 18 1 16 19
M  V30 19 1 16 20
M  V30 20 1 17 21
M  V30 21 2 18 22
M  V30 22 1 19 23
M  V30 23 1 19 24
M  V30 24 2 24 25
M  V30 25 1 24 26
M  V30 26 1 26 27
M  V30 27 1 26 28
M  V30 28 1 27 29
M  V30 29 2 29 30
M  V30 30 1 29 31
M  V30 31 1 11 16
M  V30 32 1 12 14
M  V30 33 1 15 18
M  V30 34 1 19 21
M  V30 35 1 4 32
M  V30 36 1 5 33
M  V30 37 1 7 34
M  V30 38 1 8 35
M  V30 39 1 8 36
M  V30 40 1 8 37
M  V30 41 1 9 38
M  V30 42 1 10 39
M  V30 43 1 10 40
M  V30 44 1 11 41
M  V30 45 1 12 42
M  V30 46 1 12 43
M  V30 47 1 13 44
M  V30 48 1 14 45
M  V30 49 1 14 46
M  V30 50 1 15 47
M  V30 51 1 17 48
M  V30 52 1 17 49
M  V30 53 1 20 50
M  V30 54 1 20 51
M  V30 55 1 20 52
M  V30 56 1 21 53
M  V30 57 1 21 54
M  V30 58 1 23 55
M  V30 59 1 26 56
M  V30 60 1 28 57
M  V30 61 1 28 58
M  V30 62 1 28 59
M  V30 63 1 31 60
M  V30 64 1 31 61
M  V30 65 1 31 62
M  V30 END BOND
M  V30 BEGIN COLLECTION
M  V30 MDLV30/STEABS ATOMS=(8 2 3 4 5 11 16 19 26)
M  V30 END COLLECTION
M  V30 END CTAB
M  END
>  <NO.>
1197

>  <Name>
fluperolone acetate

>  <SMILES>
CC(=O)O[C@@H](C)C(=O)[C@@]1(O)CC[C@H]2[C@@H]3CCC4=CC(=O)C=C[C@]4(C)[C@@]3(F)[C@@H](O)C[C@@]21C

>  <logBB>


>  <Class>
1

>  <MW>
434.21

>  <nHBAcc>
6

>  <nHBDon>
2

>  <SLogP>
2.61

>  <TopoPSA>
100.9

>  <MMFF94 Energy>
154.75

$$$$
CC(=O)O[C@H]1C[C@@H]2C(COC(=O)CC(C)C)=CO[C@@H](OC(=O)CC(C)C)[C@@H]2[C@@]12CO2
Actelion Java MolfileCreator 2.0

  0  0  0  0  0  0              0 V3000
M  V30 BEGIN CTAB
M  V30 COUNTS 62 64 0 0 0
M  V30 BEGIN ATOM
M  V30 1 O -1.9914 -2.3901 -2.0712 0
M  V30 2 C -2.6121 -2.396 -1.0178 0
M  V30 3 O -2.3551 -1.607 0.0583 0
M  V30 4 C -3.8219 -3.2567 -0.7249 0
M  V30 5 C -1.2356 -0.7165 -0.0887 0 CFG=2
M  V30 6 C -3.9387 -4.4704 -1.6595 0
M  V30 7 O -0.0671 -1.3981 0.3907 0
M  V30 8 C -1.5465 0.5566 0.7175 0 CFG=2
M  V30 9 C -2.8549 -5.5102 -1.3638 0
M  V30 10 C -5.3214 -5.1095 -1.518 0
M  V30 11 C 1.0115 -0.6143 0.6776 0
M  V30 12 C -2.5792 1.4516 0.063 0 CFG=2
M  V30 13 C -0.3013 1.4694 0.7922 0 CFG=1
M  V30 14 C 1.0002 0.7156 0.8461 0
M  V30 15 O -3.6226 0.7828 -0.6674 0
M  V30 16 C -1.915 2.567 -0.6922 0 CFG=2
M  V30 17 C -4.0285 1.4757 0.5121 0
M  V30 18 C -0.4121 2.4002 -0.4312 0
M  V30 19 C 2.2279 1.5403 1.1645 0
M  V30 20 O -2.4124 3.8868 -0.3866 0
M  V30 21 O 3.3915 0.7118 1.2449 0
M  V30 22 C -2.4272 4.3451 0.8892 0
M  V30 23 C 4.5421 1.401 1.4663 0
M  V30 24 O -2.0788 3.723 1.8804 0
M  V30 25 C -2.9558 5.7467 0.9194 0
M  V30 26 O 4.6249 2.6153 1.5916 0
M  V30 27 C 5.7206 0.4599 1.5134 0
M  V30 28 C 6.6478 0.6548 0.3083 0
M  V30 29 C 7.9583 -0.1018 0.527 0
M  V30 30 C 5.9853 0.1869 -0.9894 0
M  V30 31 H -4.7016 -2.6112 -0.8331 0
M  V30 32 H -3.7719 -3.5972 0.3164 0
M  V30 33 H -1.0758 -0.4538 -1.1434 0
M  V30 34 H -3.824 -4.1425 -2.7003 0
M  V30 35 H -1.8621 0.2829 1.7327 0
M  V30 36 H -1.853 -5.0924 -1.5025 0
M  V30 37 H -2.9279 -5.8786 -0.3348 0
M  V30 38 H -2.95 -6.3693 -2.0365 0
M  V30 39 H -6.1093 -4.3917 -1.7699 0
M  V30 40 H -5.4955 -5.4589 -0.4945 0
M  V30 41 H -5.4247 -5.9669 -2.1913 0
M  V30 42 H 1.8965 -1.232 0.7798 0
M  V30 43 H -0.3771 2.0686 1.7071 0
M  V30 44 H -2.0899 2.4404 -1.7672 0
M  V30 45 H -4.6099 2.3797 0.3836 0
M  V30 46 H -4.3129 0.8835 1.3737 0
M  V30 47 H 0.0954 3.3561 -0.2641 0
M  V30 48 H 0.0533 1.9252 -1.3046 0
M  V30 49 H 2.3715 2.2869 0.3745 0
M  V30 50 H 2.0825 2.0455 2.1269 0
M  V30 51 H -2.326 6.3942 0.304 0
M  V30 52 H -3.9885 5.7607 0.562 0
M  V30 53 H -2.9362 6.1197 1.9475 0
M  V30 54 H 6.2487 0.6612 2.4534 0
M  V30 55 H 5.369 -0.5772 1.574 0
M  V30 56 H 6.8844 1.7212 0.2025 0
M  V30 57 H 8.4658 0.2524 1.4304 0
M  V30 58 H 7.7832 -1.1776 0.6359 0
M  V30 59 H 8.6393 0.047 -0.3175 0
M  V30 60 H 5.0792 0.7633 -1.202 0
M  V30 61 H 5.7093 -0.8716 -0.9357 0
M  V30 62 H 6.6642 0.3161 -1.8392 0
M  V30 END ATOM
M  V30 BEGIN BOND
M  V30 1 2 1 2
M  V30 2 1 2 3
M  V30 3 1 2 4
M  V30 4 1 3 5
M  V30 5 1 4 6
M  V30 6 1 5 7
M  V30 7 1 5 8
M  V30 8 1 6 9
M  V30 9 1 6 10
M  V30 10 1 7 11
M  V30 11 1 8 12
M  V30 12 1 8 13
M  V30 13 2 11 14
M  V30 14 1 12 15
M  V30 15 1 12 16
M  V30 16 1 12 17
M  V30 17 1 13 18
M  V30 18 1 14 19
M  V30 19 1 16 20
M  V30 20 1 19 21
M  V30 21 1 20 22
M  V30 22 1 21 23
M  V30 23 2 22 24
M  V30 24 1 22 25
M  V30 25 2 23 26
M  V30 26 1 23 27
M  V30 27 1 27 28
M  V30 28 1 28 29
M  V30 29 1 28 30
M  V30 30 1 13 14
M  V30 31 1 15 17
M  V30 32 1 16 18
M  V30 33 1 4 31
M  V30 34 1 4 32
M  V30 35 1 5 33
M  V30 36 1 6 34
M  V30 37 1 8 35
M  V30 38 1 9 36
M  V30 39 1 9 37
M  V30 40 1 9 38
M  V30 41 1 10 39
M  V30 42 1 10 40
M  V30 43 1 10 41
M  V30 44 1 11 42
M  V30 45 1 13 43
M  V30 46 1 16 44
M  V30 47 1 17 45
M  V30 48 1 17 46
M  V30 49 1 18 47
M  V30 50 1 18 48
M  V30 51 1 19 49
M  V30 52 1 19 50
M  V30 53 1 25 51
M  V30 54 1 25 52
M  V30 55 1 25 53
M  V30 56 1 27 54
M  V30 57 1 27 55
M  V30 58 1 28 56
M  V30 59 1 29 57
M  V30 60 1 29 58
M  V30 61 1 29 59
M  V30 62 1 30 60
M  V30 63 1 30 61
M  V30 64 1 30 62
M  V30 END BOND
M  V30 BEGIN COLLECTION
M  V30 MDLV30/STEABS ATOMS=(5 5 8 12 13 16)
M  V30 END COLLECTION
M  V30 END CTAB
M  END
>  <NO.>
1200

>  <Name>
didrovaltrate

>  <SMILES>
CC(=O)O[C@H]1C[C@@H]2C(COC(=O)CC(C)C)=CO[C@@H](OC(=O)CC(C)C)[C@@H]2[C@@]12CO2

>  <logBB>


>  <Class>
1

>  <MW>
424.21

>  <nHBAcc>
8

>  <nHBDon>
0

>  <SLogP>
2.74

>  <TopoPSA>
100.66

>  <MMFF94 Energy>
-6.8688

$$$$
CC(=O)O[C@]1(C(C)=O)CC[C@H]2[C@@H]3C[C@H](C)C4=CC(=O)C=C[C@]4(C)[C@@]3(F)[C@@H](O)C[C@@]21C
Actelion Java MolfileCreator 2.0

  0  0  0  0  0  0              0 V3000
M  V30 BEGIN CTAB
M  V30 COUNTS 61 64 0 0 0
M  V30 BEGIN ATOM
M  V30 1 F 1.7779 0.4846 -0.4038 0
M  V30 2 C 1.2729 -0.6433 0.2282 0 CFG=2
M  V30 3 C 2.479 -1.275 1.0363 0 CFG=2
M  V30 4 C 0.7031 -1.5197 -0.9313 0 CFG=1
M  V30 5 C 0.1437 -0.1257 1.1758 0 CFG=2
M  V30 6 C 2.949 -0.2305 2.0805 0
M  V30 7 C 3.615 -1.6572 0.0865 0
M  V30 8 C 2.116 -2.576 1.7908 0
M  V30 9 O 0.3317 -2.8232 -0.4977 0
M  V30 10 C -0.4902 -0.8599 -1.6619 0
M  V30 11 C -0.9437 0.5572 0.3307 0 CFG=1
M  V30 12 C 0.7041 0.8534 2.2242 0
M  V30 13 C 4.2104 0.2421 2.1124 0
M  V30 14 C 1.8607 0.2518 3.0359 0 CFG=2
M  V30 15 C 4.8622 -1.1742 0.1339 0
M  V30 16 C -1.6067 -0.3787 -0.7078 0 CFG=1
M  V30 17 C -2.1322 1.1889 1.0433 0
M  V30 18 C 5.2505 -0.19 1.1567 0
M  V30 19 C 2.2997 1.2577 4.1091 0
M  V30 20 C -2.6683 0.6098 -1.3272 0 CFG=1
M  V30 21 C -2.322 -1.5952 -0.056 0
M  V30 22 C -3.193 1.3637 -0.0614 0
M  V30 23 O 6.3919 0.2498 1.2144 0
M  V30 24 O -1.9529 1.5546 -2.1601 0
M  V30 25 C -3.7912 -0.1503 -2.0863 0
M  V30 26 C -2.6615 2.5044 -2.8271 0
M  V30 27 O -4.8756 -0.4213 -1.5641 0
M  V30 28 C -3.4762 -0.6834 -3.4629 0
M  V30 29 O -3.8785 2.5902 -2.8513 0
M  V30 30 C -1.7286 3.4227 -3.5541 0
M  V30 31 H 1.4878 -1.6514 -1.6851 0
M  V30 32 H -0.2955 -0.9669 1.7207 0
M  V30 33 H 3.396 -2.4035 -0.674 0
M  V30 34 H 2.0348 -3.4386 1.1205 0
M  V30 35 H 1.1705 -2.5009 2.3353 0
M  V30 36 H 2.8899 -2.8346 2.5255 0
M  V30 37 H 0.0678 -3.3378 -1.2813 0
M  V30 38 H -0.9068 -1.5655 -2.3894 0
M  V30 39 H -0.0953 -0.0132 -2.2361 0
M  V30 40 H -0.4425 1.3793 -0.2048 0
M  V30 41 H 1.0391 1.7753 1.7295 0
M  V30 42 H -0.0991 1.1431 2.9132 0
M  V30 43 H 4.5552 0.982 2.8245 0
M  V30 44 H 1.4833 -0.6209 3.5836 0
M  V30 45 H 5.6366 -1.485 -0.5561 0
M  V30 46 H -2.5135 0.5422 1.8415 0
M  V30 47 H -1.8743 2.1524 1.4952 0
M  V30 48 H 2.6576 2.1939 3.6666 0
M  V30 49 H 1.4604 1.5048 4.769 0
M  V30 50 H 3.095 0.843 4.7377 0
M  V30 51 H -3.206 -1.3037 0.52 0
M  V30 52 H -1.6844 -2.152 0.6328 0
M  V30 53 H -2.657 -2.3034 -0.8222 0
M  V30 54 H -3.3381 2.4323 -0.2516 0
M  V30 55 H -4.1484 0.9716 0.3024 0
M  V30 56 H -4.392 -0.6949 -4.0607 0
M  V30 57 H -2.7471 -0.0561 -3.9781 0
M  V30 58 H -3.0849 -1.6994 -3.3769 0
M  V30 59 H -1.0382 3.8869 -2.8452 0
M  V30 60 H -1.1802 2.8645 -4.3166 0
M  V30 61 H -2.3056 4.2129 -4.0428 0
M  V30 END ATOM
M  V30 BEGIN BOND
M  V30 1 1 1 2
M  V30 2 1 2 3
M  V30 3 1 2 4
M  V30 4 1 2 5
M  V30 5 1 3 6
M  V30 6 1 3 7
M  V30 7 1 3 8
M  V30 8 1 4 9
M  V30 9 1 4 10
M  V30 10 1 5 11
M  V30 11 1 5 12
M  V30 12 2 6 13
M  V30 13 1 6 14
M  V30 14 2 7 15
M  V30 15 1 10 16
M  V30 16 1 11 17
M  V30 17 1 13 18
M  V30 18 1 14 19
M  V30 19 1 16 20
M  V30 20 1 16 21
M  V30 21 1 17 22
M  V30 22 2 18 23
M  V30 23 1 20 24
M  V30 24 1 20 25
M  V30 25 1 24 26
M  V30 26 2 25 27
M  V30 27 1 25 28
M  V30 28 2 26 29
M  V30 29 1 26 30
M  V30 30 1 11 16
M  V30 31 1 12 14
M  V30 32 1 15 18
M  V30 33 1 20 22
M  V30 34 1 4 31
M  V30 35 1 5 32
M  V30 36 1 7 33
M  V30 37 1 8 34
M  V30 38 1 8 35
M  V30 39 1 8 36
M  V30 40 1 9 37
M  V30 41 1 10 38
M  V30 42 1 10 39
M  V30 43 1 11 40
M  V30 44 1 12 41
M  V30 45 1 12 42
M  V30 46 1 13 43
M  V30 47 1 14 44
M  V30 48 1 15 45
M  V30 49 1 17 46
M  V30 50 1 17 47
M  V30 51 1 19 48
M  V30 52 1 19 49
M  V30 53 1 19 50
M  V30 54 1 21 51
M  V30 55 1 21 52
M  V30 56 1 21 53
M  V30 57 1 22 54
M  V30 58 1 22 55
M  V30 59 1 28 56
M  V30 60 1 28 57
M  V30 61 1 28 58
M  V30 62 1 30 59
M  V30 63 1 30 60
M  V30 64 1 30 61
M  V30 END BOND
M  V30 BEGIN COLLECTION
M  V30 MDLV30/STEABS ATOMS=(8 2 3 4 5 11 14 16 20)
M  V30 END COLLECTION
M  V30 END CTAB
M  END
>  <NO.>
1202

>  <Name>
fluorometholone acetate

>  <SMILES>
CC(=O)O[C@]1(C(C)=O)CC[C@H]2[C@@H]3C[C@H](C)C4=CC(=O)C=C[C@]4(C)[C@@]3(F)[C@@H](O)C[C@@]21C

>  <logBB>


>  <Class>
1

>  <MW>
418.22

>  <nHBAcc>
5

>  <nHBDon>
1

>  <SLogP>
3.49

>  <TopoPSA>
80.67

>  <MMFF94 Energy>
135.96

$$$$
CC(=O)Oc1ccc2c3c1O[C@H]1[C@@H](OC(C)=O)C=C[C@H]4[C@@H](C2)N(C)CC[C@]314
Actelion Java MolfileCreator 2.0

  0  0  0  0  0  0              0 V3000
M  V30 BEGIN CTAB
M  V30 COUNTS 50 54 0 0 0
M  V30 BEGIN ATOM
M  V30 1 O -4.0583 -0.8917 -0.6485 0
M  V30 2 C -3.5725 -1.5911 -1.528 0
M  V30 3 O -2.4045 -1.359 -2.2426 0
M  V30 4 C -4.2019 -2.8532 -2.0395 0
M  V30 5 C -1.687 -0.2868 -1.7307 0
M  V30 6 C -0.8847 -0.4374 -0.6211 0
M  V30 7 C -1.6959 0.9411 -2.4014 0
M  V30 8 O -0.6471 -1.5869 0.0816 0
M  V30 9 C -0.1715 0.6344 -0.1383 0
M  V30 10 C -0.8962 2.0063 -1.9401 0
M  V30 11 C 0.5442 -1.2734 0.8956 0 CFG=2
M  V30 12 C -0.1088 1.8529 -0.7946 0
M  V30 13 C 0.5674 0.2572 1.1042 0 CFG=1
M  V30 14 C 1.8415 -1.8655 0.2562 0 CFG=1
M  V30 15 C 0.8792 2.8829 -0.3117 0
M  V30 16 C 1.9302 0.9634 1.1036 0 CFG=2
M  V30 17 C -0.2388 0.6956 2.3434 0
M  V30 18 O 1.5447 -2.838 -0.7613 0
M  V30 19 C 2.7869 -0.859 -0.355 0
M  V30 20 C 1.6341 2.498 1.0108 0 CFG=2
M  V30 21 C 2.8486 0.424 0.0337 0
M  V30 22 C -0.343 2.2229 2.4681 0
M  V30 23 C 1.0855 -4.0306 -0.2969 0
M  V30 24 N 0.9544 2.8837 2.2769 0
M  V30 25 O 0.9943 -4.3481 0.8806 0
M  V30 26 C 0.7075 -4.9144 -1.4451 0
M  V30 27 C 0.8388 4.3289 2.4516 0
M  V30 28 H -4.5126 -2.7174 -3.0782 0
M  V30 29 H -3.4942 -3.6819 -1.9535 0
M  V30 30 H -5.0827 -3.0891 -1.4353 0
M  V30 31 H -2.2999 1.0679 -3.2952 0
M  V30 32 H -0.8809 2.9411 -2.4958 0
M  V30 33 H 0.389 -1.7843 1.8547 0
M  V30 34 H 2.4303 -2.3512 1.0481 0
M  V30 35 H 1.6356 2.997 -1.0999 0
M  V30 36 H 0.3822 3.8536 -0.2184 0
M  V30 37 H 2.4454 0.773 2.0576 0
M  V30 38 H 0.2539 0.3015 3.2426 0
M  V30 39 H -1.2516 0.2722 2.333 0
M  V30 40 H 3.4874 -1.226 -1.1008 0
M  V30 41 H 2.5998 3.0223 0.9979 0
M  V30 42 H 3.5965 1.0855 -0.3957 0
M  V30 43 H -1.0894 2.6074 1.762 0
M  V30 44 H -0.7249 2.4503 3.4715 0
M  V30 45 H -0.0864 -4.442 -2.0294 0
M  V30 46 H 1.5836 -5.1067 -2.0694 0
M  V30 47 H 0.3361 -5.8687 -1.0609 0
M  V30 48 H 0.1293 4.7876 1.7556 0
M  V30 49 H 1.8122 4.8156 2.3265 0
M  V30 50 H 0.5051 4.5603 3.4696 0
M  V30 END ATOM
M  V30 BEGIN BOND
M  V30 1 2 1 2
M  V30 2 1 2 3
M  V30 3 1 2 4
M  V30 4 1 3 5
M  V30 5 2 5 6
M  V30 6 1 5 7
M  V30 7 1 6 8
M  V30 8 1 6 9
M  V30 9 2 7 10
M  V30 10 1 8 11
M  V30 11 2 9 12
M  V30 12 1 9 13
M  V30 13 1 11 14
M  V30 14 1 12 15
M  V30 15 1 13 16
M  V30 16 1 13 17
M  V30 17 1 14 18
M  V30 18 1 14 19
M  V30 19 1 15 20
M  V30 20 1 16 21
M  V30 21 1 17 22
M  V30 22 1 18 23
M  V30 23 1 20 24
M  V30 24 2 23 25
M  V30 25 1 23 26
M  V30 26 1 24 27
M  V30 27 1 10 12
M  V30 28 1 11 13
M  V30 29 1 16 20
M  V30 30 2 19 21
M  V30 31 1 22 24
M  V30 32 1 4 28
M  V30 33 1 4 29
M  V30 34 1 4 30
M  V30 35 1 7 31
M  V30 36 1 10 32
M  V30 37 1 11 33
M  V30 38 1 14 34
M  V30 39 1 15 35
M  V30 40 1 15 36
M  V30 41 1 16 37
M  V30 42 1 17 38
M  V30 43 1 17 39
M  V30 44 1 19 40
M  V30 45 1 20 41
M  V30 46 1 21 42
M  V30 47 1 22 43
M  V30 48 1 22 44
M  V30 49 1 26 45
M  V30 50 1 26 46
M  V30 51 1 26 47
M  V30 52 1 27 48
M  V30 53 1 27 49
M  V30 54 1 27 50
M  V30 END BOND
M  V30 BEGIN COLLECTION
M  V30 MDLV30/STEABS ATOMS=(5 11 13 14 16 20)
M  V30 END COLLECTION
M  V30 END CTAB
M  END
>  <NO.>
1203

>  <Name>
diacetylmorphine

>  <SMILES>
CC(=O)Oc1ccc2c3c1O[C@H]1[C@@H](OC(C)=O)C=C[C@H]4[C@@H](C2)N(C)CC[C@]314

>  <logBB>


>  <Class>
1

>  <MW>
369.16

>  <nHBAcc>
6

>  <nHBDon>
0

>  <SLogP>
1.99

>  <TopoPSA>
65.07

>  <MMFF94 Energy>
97.904

$$$$
CC(=O)[C@@]1(O)CC[C@H]2[C@@H]3C[C@H](C)C4=CC(=O)C=C[C@]4(C)[C@@]3(F)[C@@H](O)C[C@@]21C
Actelion Java MolfileCreator 2.0

  0  0  0  0  0  0              0 V3000
M  V30 BEGIN CTAB
M  V30 COUNTS 56 59 0 0 0
M  V30 BEGIN ATOM
M  V30 1 F 0.8082 -1.6978 -0.6465 0
M  V30 2 C -0.366 -0.9616 -0.5777 0 CFG=2
M  V30 3 C -1.5465 -2.0174 -0.5669 0 CFG=2
M  V30 4 C -0.3129 -0.0183 -1.8206 0 CFG=1
M  V30 5 C -0.2875 -0.164 0.7626 0 CFG=2
M  V30 6 C -1.3798 -2.9037 0.6942 0
M  V30 7 C -1.5195 -2.8604 -1.8427 0
M  V30 8 C -2.9572 -1.3831 -0.5209 0
M  V30 9 O -1.5471 0.6555 -2.0482 0
M  V30 10 C 0.8311 1.02 -1.7533 0
M  V30 11 C 0.9247 0.78 0.7147 0 CFG=1
M  V30 12 C -0.1845 -1.1168 1.9681 0
M  V30 13 C -1.2472 -4.2428 0.6234 0
M  V30 14 C -1.3324 -2.1365 2.013 0 CFG=2
M  V30 15 C -1.3848 -4.191 -1.8913 0
M  V30 16 C 0.859 1.8189 -0.432 0 CFG=1
M  V30 17 C 1.2367 1.6246 1.9437 0
M  V30 18 C -1.247 -4.9799 -0.6567 0
M  V30 19 C -1.2017 -2.9856 3.2853 0
M  V30 20 C 2.1641 2.6259 -0.1348 0 CFG=1
M  V30 21 C -0.3695 2.7631 -0.3321 0
M  V30 22 C 2.1743 2.728 1.419 0
M  V30 23 O -1.1414 -6.1996 -0.6901 0
M  V30 24 O 3.3114 1.8655 -0.5317 0
M  V30 25 C 2.254 4.0077 -0.822 0
M  V30 26 O 2.2318 5.0637 -0.1858 0
M  V30 27 C 2.3552 4.0395 -2.327 0
M  V30 28 H -0.1205 -0.6287 -2.7105 0
M  V30 29 H -1.1992 0.4269 0.8946 0
M  V30 30 H -1.6452 -2.335 -2.787 0
M  V30 31 H -3.7178 -2.1319 -0.2626 0
M  V30 32 H -3.0375 -0.579 0.2161 0
M  V30 33 H -3.2597 -0.9663 -1.4878 0
M  V30 34 H -1.4688 1.143 -2.8877 0
M  V30 35 H 0.7437 1.7082 -2.601 0
M  V30 36 H 1.7765 0.479 -1.8833 0
M  V30 37 H 1.8082 0.1401 0.5578 0
M  V30 38 H 0.7792 -1.6436 1.9439 0
M  V30 39 H -0.1963 -0.5296 2.8949 0
M  V30 40 H -1.1159 -4.8785 1.4906 0
M  V30 41 H -2.2781 -1.5895 2.1169 0
M  V30 42 H -1.3818 -4.745 -2.8218 0
M  V30 43 H 0.3278 2.0651 2.3692 0
M  V30 44 H 1.7208 1.0399 2.7327 0
M  V30 45 H -1.2223 -2.3474 4.176 0
M  V30 46 H -0.2615 -3.5475 3.304 0
M  V30 47 H -2.0328 -3.6937 3.375 0
M  V30 48 H -1.3159 2.2298 -0.2264 0
M  V30 49 H -0.4537 3.3863 -1.2291 0
M  V30 50 H -0.3063 3.444 0.5231 0
M  V30 51 H 1.8137 3.6948 1.7865 0
M  V30 52 H 3.1821 2.5819 1.8244 0
M  V30 53 H 4.0971 2.2808 -0.1312 0
M  V30 54 H 2.8039 4.9878 -2.6373 0
M  V30 55 H 2.9962 3.2325 -2.6884 0
M  V30 56 H 1.3602 3.9571 -2.7679 0
M  V30 END ATOM
M  V30 BEGIN BOND
M  V30 1 1 1 2
M  V30 2 1 2 3
M  V30 3 1 2 4
M  V30 4 1 2 5
M  V30 5 1 3 6
M  V30 6 1 3 7
M  V30 7 1 3 8
M  V30 8 1 4 9
M  V30 9 1 4 10
M  V30 10 1 5 11
M  V30 11 1 5 12
M  V30 12 2 6 13
M  V30 13 1 6 14
M  V30 14 2 7 15
M  V30 15 1 10 16
M  V30 16 1 11 17
M  V30 17 1 13 18
M  V30 18 1 14 19
M  V30 19 1 16 20
M  V30 20 1 16 21
M  V30 21 1 17 22
M  V30 22 2 18 23
M  V30 23 1 20 24
M  V30 24 1 20 25
M  V30 25 2 25 26
M  V30 26 1 25 27
M  V30 27 1 11 16
M  V30 28 1 12 14
M  V30 29 1 15 18
M  V30 30 1 20 22
M  V30 31 1 4 28
M  V30 32 1 5 29
M  V30 33 1 7 30
M  V30 34 1 8 31
M  V30 35 1 8 32
M  V30 36 1 8 33
M  V30 37 1 9 34
M  V30 38 1 10 35
M  V30 39 1 10 36
M  V30 40 1 11 37
M  V30 41 1 12 38
M  V30 42 1 12 39
M  V30 43 1 13 40
M  V30 44 1 14 41
M  V30 45 1 15 42
M  V30 46 1 17 43
M  V30 47 1 17 44
M  V30 48 1 19 45
M  V30 49 1 19 46
M  V30 50 1 19 47
M  V30 51 1 21 48
M  V30 52 1 21 49
M  V30 53 1 21 50
M  V30 54 1 22 51
M  V30 55 1 22 52
M  V30 56 1 24 53
M  V30 57 1 27 54
M  V30 58 1 27 55
M  V30 59 1 27 56
M  V30 END BOND
M  V30 BEGIN COLLECTION
M  V30 MDLV30/STEABS ATOMS=(8 2 3 4 5 11 14 16 20)
M  V30 END COLLECTION
M  V30 END CTAB
M  END
>  <NO.>
1204

>  <Name>
fluorometholone

>  <SMILES>
CC(=O)[C@@]1(O)CC[C@H]2[C@@H]3C[C@H](C)C4=CC(=O)C=C[C@]4(C)[C@@]3(F)[C@@H](O)C[C@@]21C

>  <logBB>


>  <Class>
1

>  <MW>
376.2

>  <nHBAcc>
4

>  <nHBDon>
2

>  <SLogP>
2.92

>  <TopoPSA>
74.6

>  <MMFF94 Energy>
154.54

$$$$
CC(=O)[C@@]1(O)[C@@H](C)C[C@H]2[C@@H]3CCC4=CC(=O)C=C[C@]4(C)[C@@]3(F)[C@@H](O)C[C@@]21C
Actelion Java MolfileCreator 2.0

  0  0  0  0  0  0              0 V3000
M  V30 BEGIN CTAB
M  V30 COUNTS 56 59 0 0 0
M  V30 BEGIN ATOM
M  V30 1 F -0.7274 -1.8598 -0.97 0
M  V30 2 C -1.2322 -0.9034 -0.0997 0 CFG=2
M  V30 3 C -2.5261 -1.5433 0.5539 0 CFG=2
M  V30 4 C -1.4791 0.3519 -0.9943 0 CFG=1
M  V30 5 C -0.1042 -0.6584 0.9574 0 CFG=2
M  V30 6 C -2.0853 -2.7963 1.3345 0
M  V30 7 C -3.5548 -1.9066 -0.5173 0
M  V30 8 C -3.2584 -0.6077 1.544 0
M  V30 9 O -2.2207 1.3652 -0.322 0
M  V30 10 C -0.1774 0.9602 -1.5669 0
M  V30 11 C 1.1443 -0.1184 0.2418 0 CFG=1
M  V30 12 C 0.229 -1.9544 1.7206 0
M  V30 13 C -2.5741 -4.0287 1.1072 0
M  V30 14 C -1.0034 -2.5833 2.3619 0
M  V30 15 C -4.0375 -3.1362 -0.7403 0
M  V30 16 C 0.9057 1.2205 -0.4954 0 CFG=1
M  V30 17 C 2.3925 0.1626 1.0687 0
M  V30 18 C -3.5905 -4.2861 0.0673 0
M  V30 19 C 2.3549 1.5083 -1.0326 0 CFG=1
M  V30 20 C 0.4533 2.3651 0.4515 0
M  V30 21 C 3.3019 0.9619 0.1007 0 CFG=1
M  V30 22 O -4.045 -5.4083 -0.1164 0
M  V30 23 O 2.5869 0.668 -2.1806 0
M  V30 24 C 2.5497 2.9826 -1.4827 0
M  V30 25 C 4.1638 1.9534 0.8721 0
M  V30 26 O 2.854 3.8903 -0.707 0
M  V30 27 C 2.3116 3.3026 -2.94 0
M  V30 28 H -2.0813 0.0474 -1.8583 0
M  V30 29 H -0.4445 0.0735 1.6966 0
M  V30 30 H -3.9427 -1.0945 -1.1284 0
M  V30 31 H -2.5766 -0.1183 2.2458 0
M  V30 32 H -3.9901 -1.164 2.1451 0
M  V30 33 H -3.824 0.1795 1.0341 0
M  V30 34 H -2.3839 2.0859 -0.9565 0
M  V30 35 H 0.2018 0.2635 -2.3241 0
M  V30 36 H -0.4095 1.8971 -2.087 0
M  V30 37 H 1.433 -0.8823 -0.4982 0
M  V30 38 H 0.9623 -1.7472 2.5088 0
M  V30 39 H 0.6946 -2.6793 1.0399 0
M  V30 40 H -2.2429 -4.9033 1.6553 0
M  V30 41 H -0.7122 -3.5285 2.8361 0
M  V30 42 H -1.3781 -1.9407 3.1671 0
M  V30 43 H -4.7762 -3.3433 -1.5049 0
M  V30 44 H 2.1507 0.7347 1.9716 0
M  V30 45 H 2.8876 -0.7605 1.3888 0
M  V30 46 H 1.2409 2.6742 1.1442 0
M  V30 47 H 0.1656 3.2519 -0.1249 0
M  V30 48 H -0.4044 2.0999 1.0721 0
M  V30 49 H 3.997 0.2368 -0.3459 0
M  V30 50 H 3.5421 0.6728 -2.3717 0
M  V30 51 H 4.774 1.426 1.6141 0
M  V30 52 H 4.8517 2.4786 0.2022 0
M  V30 53 H 3.564 2.6907 1.4134 0
M  V30 54 H 2.3236 4.3875 -3.0816 0
M  V30 55 H 3.1052 2.8635 -3.5492 0
M  V30 56 H 1.3371 2.928 -3.2575 0
M  V30 END ATOM
M  V30 BEGIN BOND
M  V30 1 1 1 2
M  V30 2 1 2 3
M  V30 3 1 2 4
M  V30 4 1 2 5
M  V30 5 1 3 6
M  V30 6 1 3 7
M  V30 7 1 3 8
M  V30 8 1 4 9
M  V30 9 1 4 10
M  V30 10 1 5 11
M  V30 11 1 5 12
M  V30 12 2 6 13
M  V30 13 1 6 14
M  V30 14 2 7 15
M  V30 15 1 10 16
M  V30 16 1 11 17
M  V30 17 1 13 18
M  V30 18 1 16 19
M  V30 19 1 16 20
M  V30 20 1 17 21
M  V30 21 2 18 22
M  V30 22 1 19 23
M  V30 23 1 19 24
M  V30 24 1 21 25
M  V30 25 2 24 26
M  V30 26 1 24 27
M  V30 27 1 11 16
M  V30 28 1 12 14
M  V30 29 1 15 18
M  V30 30 1 19 21
M  V30 31 1 4 28
M  V30 32 1 5 29
M  V30 33 1 7 30
M  V30 34 1 8 31
M  V30 35 1 8 32
M  V30 36 1 8 33
M  V30 37 1 9 34
M  V30 38 1 10 35
M  V30 39 1 10 36
M  V30 40 1 11 37
M  V30 41 1 12 38
M  V30 42 1 12 39
M  V30 43 1 13 40
M  V30 44 1 14 41
M  V30 45 1 14 42
M  V30 46 1 15 43
M  V30 47 1 17 44
M  V30 48 1 17 45
M  V30 49 1 20 46
M  V30 50 1 20 47
M  V30 51 1 20 48
M  V30 52 1 21 49
M  V30 53 1 23 50
M  V30 54 1 25 51
M  V30 55 1 25 52
M  V30 56 1 25 53
M  V30 57 1 27 54
M  V30 58 1 27 55
M  V30 59 1 27 56
M  V30 END BOND
M  V30 BEGIN COLLECTION
M  V30 MDLV30/STEABS ATOMS=(8 2 3 4 5 11 16 19 21)
M  V30 END COLLECTION
M  V30 END CTAB
M  END
>  <NO.>
1205

>  <Name>
doxibetasol

>  <SMILES>
CC(=O)[C@@]1(O)[C@@H](C)C[C@H]2[C@@H]3CCC4=CC(=O)C=C[C@]4(C)[C@@]3(F)[C@@H](O)C[C@@]21C

>  <logBB>


>  <Class>
1

>  <MW>
376.2

>  <nHBAcc>
4

>  <nHBDon>
2

>  <SLogP>
2.92

>  <TopoPSA>
74.6

>  <MMFF94 Energy>
159.87

$$$$
CC(=O)[C@@]1(O)[C@H](O)C[C@H]2[C@@H]3CCC4=CC(=O)C=C[C@]4(C)[C@@]3(F)[C@@H](O)C[C@@]21C
Actelion Java MolfileCreator 2.0

  0  0  0  0  0  0              0 V3000
M  V30 BEGIN CTAB
M  V30 COUNTS 54 57 0 0 0
M  V30 BEGIN ATOM
M  V30 1 F 0.2429 -1.2961 1.5392 0
M  V30 2 C -0.0592 0.0371 1.3007 0 CFG=2
M  V30 3 C 0.2276 0.8024 2.6583 0 CFG=2
M  V30 4 C -1.5496 0.0261 0.8342 0 CFG=1
M  V30 5 C 0.9118 0.4905 0.1588 0 CFG=2
M  V30 6 C 1.7263 0.6437 2.978 0
M  V30 7 C -0.6305 0.2405 3.7921 0
M  V30 8 C -0.0819 2.3165 2.6033 0
M  V30 9 O -2.1101 1.3337 0.7675 0
M  V30 10 C -1.763 -0.6907 -0.5193 0
M  V30 11 C 0.6324 -0.3482 -1.0982 0 CFG=1
M  V30 12 C 2.3821 0.3414 0.5922 0
M  V30 13 C 2.1939 0.109 4.1202 0
M  V30 14 C 2.6794 1.0773 1.8943 0
M  V30 15 C -0.1594 -0.2919 4.9273 0
M  V30 16 C -0.8137 -0.1962 -1.631 0 CFG=1
M  V30 17 C 1.5031 -0.1283 -2.336 0
M  V30 18 C 1.2904 -0.3825 5.1798 0
M  V30 19 C -0.719 -1.1012 -2.8977 0 CFG=1
M  V30 20 C -1.1643 1.2599 -2.038 0
M  V30 21 C 0.6837 -0.7421 -3.4906 0 CFG=2
M  V30 22 O 1.727 -0.8447 6.2263 0
M  V30 23 O -0.6946 -2.4847 -2.5145 0
M  V30 24 C -1.8363 -0.8753 -3.9341 0
M  V30 25 O 1.3131 -1.941 -3.9635 0
M  V30 26 O -1.7647 -0.0029 -4.8033 0
M  V30 27 C -3.0648 -1.7441 -3.8306 0
M  V30 28 H -2.1392 -0.5291 1.573 0
M  V30 29 H 0.7457 1.5484 -0.0673 0
M  V30 30 H -1.7102 0.3034 3.6757 0
M  V30 31 H -1.1567 2.5244 2.6352 0
M  V30 32 H 0.3176 2.797 1.7056 0
M  V30 33 H 0.3522 2.8398 3.4657 0
M  V30 34 H -3.0557 1.2407 0.5525 0
M  V30 35 H -1.6156 -1.7642 -0.3499 0
M  V30 36 H -2.8025 -0.5623 -0.8432 0
M  V30 37 H 0.79 -1.3992 -0.8064 0
M  V30 38 H 2.6306 -0.7214 0.7103 0
M  V30 39 H 3.0446 0.734 -0.188 0
M  V30 40 H 3.2517 -0.0091 4.3249 0
M  V30 41 H 3.7211 0.8854 2.1792 0
M  V30 42 H 2.5992 2.1598 1.7416 0
M  V30 43 H -0.8081 -0.667 5.7092 0
M  V30 44 H 2.4871 -0.5955 -2.2276 0
M  V30 45 H 1.6533 0.9432 -2.5094 0
M  V30 46 H -2.2248 1.3406 -2.3032 0
M  V30 47 H -0.9784 1.9866 -1.2453 0
M  V30 48 H -0.5887 1.6045 -2.903 0
M  V30 49 H 0.6361 -0.0357 -4.3255 0
M  V30 50 H -0.0076 -2.8903 -3.0895 0
M  V30 51 H 2.1679 -1.6771 -4.3513 0
M  V30 52 H -3.8227 -1.3898 -4.5352 0
M  V30 53 H -2.8098 -2.7762 -4.0822 0
M  V30 54 H -3.4804 -1.6907 -2.8228 0
M  V30 END ATOM
M  V30 BEGIN BOND
M  V30 1 1 1 2
M  V30 2 1 2 3
M  V30 3 1 2 4
M  V30 4 1 2 5
M  V30 5 1 3 6
M  V30 6 1 3 7
M  V30 7 1 3 8
M  V30 8 1 4 9
M  V30 9 1 4 10
M  V30 10 1 5 11
M  V30 11 1 5 12
M  V30 12 2 6 13
M  V30 13 1 6 14
M  V30 14 2 7 15
M  V30 15 1 10 16
M  V30 16 1 11 17
M  V30 17 1 13 18
M  V30 18 1 16 19
M  V30 19 1 16 20
M  V30 20 1 17 21
M  V30 21 2 18 22
M  V30 22 1 19 23
M  V30 23 1 19 24
M  V30 24 1 21 25
M  V30 25 2 24 26
M  V30 26 1 24 27
M  V30 27 1 11 16
M  V30 28 1 12 14
M  V30 29 1 15 18
M  V30 30 1 19 21
M  V30 31 1 4 28
M  V30 32 1 5 29
M  V30 33 1 7 30
M  V30 34 1 8 31
M  V30 35 1 8 32
M  V30 36 1 8 33
M  V30 37 1 9 34
M  V30 38 1 10 35
M  V30 39 1 10 36
M  V30 40 1 11 37
M  V30 41 1 12 38
M  V30 42 1 12 39
M  V30 43 1 13 40
M  V30 44 1 14 41
M  V30 45 1 14 42
M  V30 46 1 15 43
M  V30 47 1 17 44
M  V30 48 1 17 45
M  V30 49 1 20 46
M  V30 50 1 20 47
M  V30 51 1 20 48
M  V30 52 1 21 49
M  V30 53 1 23 50
M  V30 54 1 25 51
M  V30 55 1 27 52
M  V30 56 1 27 53
M  V30 57 1 27 54
M  V30 END BOND
M  V30 BEGIN COLLECTION
M  V30 MDLV30/STEABS ATOMS=(8 2 3 4 5 11 16 19 21)
M  V30 END COLLECTION
M  V30 END CTAB
M  END
>  <NO.>
1206

>  <Name>
descinolone(descinolone-acetonide)

>  <SMILES>
CC(=O)[C@@]1(O)[C@H](O)C[C@H]2[C@@H]3CCC4=CC(=O)C=C[C@]4(C)[C@@]3(F)[C@@H](O)C[C@@]21C

>  <logBB>


>  <Class>
1

>  <MW>
378.18

>  <nHBAcc>
5

>  <nHBDon>
3

>  <SLogP>
1.65

>  <TopoPSA>
94.83

>  <MMFF94 Energy>
165.39

$$$$
CC(=O)[C@@]1(O)[C@H](O)C[C@H]2[C@@H]3CCC4=CC(=O)CC[C@]4(C)[C@H]3CC[C@@]21C
Actelion Java MolfileCreator 2.0

  0  0  0  0  0  0              0 V3000
M  V30 BEGIN CTAB
M  V30 COUNTS 55 58 0 0 0
M  V30 BEGIN ATOM
M  V30 1 O -4.675 -4.3521 1.5296 0
M  V30 2 C -3.6423 -3.6891 1.4758 0
M  V30 3 C -2.8737 -3.6393 0.2112 0
M  V30 4 C -3.07 -2.989 2.6792 0
M  V30 5 C -1.7544 -2.9035 0.0893 0
M  V30 6 C -2.3262 -1.7296 2.2588 0
M  V30 7 C -1.2194 -1.9785 1.1911 0 CFG=2
M  V30 8 C -0.9416 -2.9899 -1.1805 0
M  V30 9 C -0.8151 -0.5892 0.5627 0 CFG=2
M  V30 10 C -0.0196 -2.6792 1.8673 0
M  V30 11 C -0.6166 -1.6141 -1.7474 0
M  V30 12 C 0.0841 -0.7339 -0.7035 0 CFG=1
M  V30 13 C -0.2119 0.4105 1.5846 0
M  V30 14 C 0.3864 0.6631 -1.2618 0 CFG=1
M  V30 15 C 0.1899 1.7591 0.9605 0
M  V30 16 C 1.1209 1.5808 -0.2511 0 CFG=2
M  V30 17 C 1.226 0.7717 -2.5349 0
M  V30 18 C 1.3357 2.8358 -1.147 0 CFG=1
M  V30 19 C 2.4812 1.0027 0.2234 0
M  V30 20 C 1.7485 2.2231 -2.5256 0 CFG=2
M  V30 21 O 0.0924 3.5315 -1.3314 0
M  V30 22 C 2.4061 3.8158 -0.6312 0
M  V30 23 O 1.1332 2.9783 -3.5789 0
M  V30 24 O 3.6035 3.6863 -0.8987 0
M  V30 25 C 1.9442 4.9421 0.259 0
M  V30 26 H -3.2471 -4.2797 -0.5804 0
M  V30 27 H -3.8949 -2.713 3.3455 0
M  V30 28 H -2.4178 -3.686 3.2146 0
M  V30 29 H -1.901 -1.2637 3.1559 0
M  V30 30 H -3.064 -1.019 1.8602 0
M  V30 31 H -0.0099 -3.5293 -0.9699 0
M  V30 32 H -1.4661 -3.5713 -1.9488 0
M  V30 33 H -1.7511 -0.1231 0.2133 0
M  V30 34 H 0.3062 -2.1442 2.7655 0
M  V30 35 H -0.2731 -3.6992 2.1794 0
M  V30 36 H 0.8444 -2.7579 1.2004 0
M  V30 37 H 0.0243 -1.7409 -2.6274 0
M  V30 38 H -1.5389 -1.1291 -2.0929 0
M  V30 39 H 1.0249 -1.2266 -0.436 0
M  V30 40 H -0.9393 0.6188 2.3771 0
M  V30 41 H 0.6601 -0.0283 2.0788 0
M  V30 42 H -0.5894 1.1158 -1.5024 0
M  V30 43 H 0.6717 2.3778 1.7263 0
M  V30 44 H -0.7276 2.285 0.6698 0
M  V30 45 H 2.0668 0.0699 -2.4969 0
M  V30 46 H 0.6363 0.5447 -3.4289 0
M  V30 47 H 3.1984 0.8894 -0.5953 0
M  V30 48 H 2.3863 0.021 0.6942 0
M  V30 49 H 2.9401 1.6619 0.9693 0
M  V30 50 H 2.8297 2.2262 -2.6966 0
M  V30 51 H 0.093 3.7912 -2.2796 0
M  V30 52 H 1.4473 2.5962 -4.419 0
M  V30 53 H 2.8139 5.4763 0.6524 0
M  V30 54 H 1.3357 5.6431 -0.3172 0
M  V30 55 H 1.3731 4.5476 1.1012 0
M  V30 END ATOM
M  V30 BEGIN BOND
M  V30 1 2 1 2
M  V30 2 1 2 3
M  V30 3 1 2 4
M  V30 4 2 3 5
M  V30 5 1 4 6
M  V30 6 1 5 7
M  V30 7 1 5 8
M  V30 8 1 7 9
M  V30 9 1 7 10
M  V30 10 1 8 11
M  V30 11 1 9 12
M  V30 12 1 9 13
M  V30 13 1 12 14
M  V30 14 1 13 15
M  V30 15 1 14 16
M  V30 16 1 14 17
M  V30 17 1 16 18
M  V30 18 1 16 19
M  V30 19 1 17 20
M  V30 20 1 18 21
M  V30 21 1 18 22
M  V30 22 1 20 23
M  V30 23 2 22 24
M  V30 24 1 22 25
M  V30 25 1 6 7
M  V30 26 1 11 12
M  V30 27 1 15 16
M  V30 28 1 18 20
M  V30 29 1 3 26
M  V30 30 1 4 27
M  V30 31 1 4 28
M  V30 32 1 6 29
M  V30 33 1 6 30
M  V30 34 1 8 31
M  V30 35 1 8 32
M  V30 36 1 9 33
M  V30 37 1 10 34
M  V30 38 1 10 35
M  V30 39 1 10 36
M  V30 40 1 11 37
M  V30 41 1 11 38
M  V30 42 1 12 39
M  V30 43 1 13 40
M  V30 44 1 13 41
M  V30 45 1 14 42
M  V30 46 1 15 43
M  V30 47 1 15 44
M  V30 48 1 17 45
M  V30 49 1 17 46
M  V30 50 1 19 47
M  V30 51 1 19 48
M  V30 52 1 19 49
M  V30 53 1 20 50
M  V30 54 1 21 51
M  V30 55 1 23 52
M  V30 56 1 25 53
M  V30 57 1 25 54
M  V30 58 1 25 55
M  V30 END BOND
M  V30 BEGIN COLLECTION
M  V30 MDLV30/STEABS ATOMS=(7 7 9 12 14 16 18 20)
M  V30 END COLLECTION
M  V30 END CTAB
M  END
>  <NO.>
1207

>  <Name>
algestone

>  <SMILES>
CC(=O)[C@@]1(O)[C@H](O)C[C@H]2[C@@H]3CCC4=CC(=O)CC[C@]4(C)[C@H]3CC[C@@]21C

>  <logBB>


>  <Class>
1

>  <MW>
346.21

>  <nHBAcc>
4

>  <nHBDon>
2

>  <SLogP>
2.81

>  <TopoPSA>
74.6

>  <MMFF94 Energy>
116.69

$$$$
CC(=O)[C@H]1CC[C@H]2[C@@H]3CC[C@@H]4C[C@H](O)CC[C@]4(C)[C@H]3CC[C@]12C
Actelion Java MolfileCreator 2.0

  0  0  0  0  0  0              0 V3000
M  V30 BEGIN CTAB
M  V30 COUNTS 57 60 0 0 0
M  V30 BEGIN ATOM
M  V30 1 O -0.0799 5.0483 0.0799 0
M  V30 2 C 0.3305 4.6261 1.161 0
M  V30 3 C 0.5584 3.1394 1.4252 0 CFG=2
M  V30 4 C 0.726 5.5925 2.25 0
M  V30 5 C -0.1936 2.1378 0.5121 0 CFG=2
M  V30 6 C 0.1643 2.6846 2.8502 0
M  V30 7 C 0.0859 0.8366 1.2998 0 CFG=1
M  V30 8 C 0.3989 1.9656 -0.8929 0
M  V30 9 C -1.7027 2.4862 0.4127 0
M  V30 10 C -0.2601 1.2097 2.7373 0
M  V30 11 C -0.5708 -0.4016 0.6778 0 CFG=1
M  V30 12 C -0.1707 0.7252 -1.6048 0
M  V30 13 C -0.0303 -0.5801 -0.7771 0 CFG=2
M  V30 14 C -0.3148 -1.6551 1.5246 0
M  V30 15 C -0.6287 -1.8591 -1.4752 0 CFG=2
M  V30 16 C -0.8629 -2.9168 0.8645 0
M  V30 17 C -0.3633 -3.1141 -0.5763 0 CFG=2
M  V30 18 C -0.0079 -2.1155 -2.8799 0
M  V30 19 C -2.1552 -1.7056 -1.7039 0
M  V30 20 C 1.12 -3.5408 -0.5705 0
M  V30 21 C 1.4627 -2.5108 -2.8452 0
M  V30 22 C 1.6719 -3.7454 -1.9777 0 CFG=1
M  V30 23 O 3.061 -4.0495 -1.9059 0
M  V30 24 H 1.6417 2.9887 1.3082 0
M  V30 25 H 0.0177 5.5348 3.0791 0
M  V30 26 H 1.7375 5.3649 2.5957 0
M  V30 27 H 0.7182 6.6122 1.854 0
M  V30 28 H -0.6589 3.2768 3.265 0
M  V30 29 H 1.0155 2.792 3.5321 0
M  V30 30 H 1.1734 0.6519 1.2875 0
M  V30 31 H 0.2086 2.8538 -1.5065 0
M  V30 32 H 1.49 1.8622 -0.8308 0
M  V30 33 H -1.8656 3.3577 -0.2295 0
M  V30 34 H -2.1453 2.7186 1.3863 0
M  V30 35 H -2.2956 1.676 -0.0195 0
M  V30 36 H 0.2738 0.5869 3.4622 0
M  V30 37 H -1.3326 1.1031 2.935 0
M  V30 38 H -1.6543 -0.2494 0.6519 0
M  V30 39 H -1.2199 0.9079 -1.8564 0
M  V30 40 H 0.3627 0.6235 -2.5558 0
M  V30 41 H 1.0526 -0.7385 -0.6804 0
M  V30 42 H -0.788 -1.5438 2.5076 0
M  V30 43 H 0.759 -1.7696 1.7132 0
M  V30 44 H -1.9587 -2.874 0.8693 0
M  V30 45 H -0.5963 -3.7879 1.4756 0
M  V30 46 H -0.9263 -3.9601 -0.9969 0
M  V30 47 H -0.1362 -1.2457 -3.533 0
M  V30 48 H -0.5602 -2.9296 -3.3706 0
M  V30 49 H -2.5829 -2.6315 -2.1066 0
M  V30 50 H -2.3753 -0.9144 -2.4282 0
M  V30 51 H -2.7043 -1.4749 -0.7879 0
M  V30 52 H 1.2363 -4.4746 -0.0049 0
M  V30 53 H 1.7445 -2.8111 -0.042 0
M  V30 54 H 1.816 -2.7176 -3.8629 0
M  V30 55 H 2.0818 -1.6796 -2.4876 0
M  V30 56 H 1.1771 -4.6071 -2.4407 0
M  V30 57 H 3.516 -3.2838 -1.5158 0
M  V30 END ATOM
M  V30 BEGIN BOND
M  V30 1 2 1 2
M  V30 2 1 2 3
M  V30 3 1 2 4
M  V30 4 1 3 5
M  V30 5 1 3 6
M  V30 6 1 5 7
M  V30 7 1 5 8
M  V30 8 1 5 9
M  V30 9 1 6 10
M  V30 10 1 7 11
M  V30 11 1 8 12
M  V30 12 1 11 13
M  V30 13 1 11 14
M  V30 14 1 13 15
M  V30 15 1 14 16
M  V30 16 1 15 17
M  V30 17 1 15 18
M  V30 18 1 15 19
M  V30 19 1 17 20
M  V30 20 1 18 21
M  V30 21 1 20 22
M  V30 22 1 22 23
M  V30 23 1 7 10
M  V30 24 1 12 13
M  V30 25 1 16 17
M  V30 26 1 21 22
M  V30 27 1 3 24
M  V30 28 1 4 25
M  V30 29 1 4 26
M  V30 30 1 4 27
M  V30 31 1 6 28
M  V30 32 1 6 29
M  V30 33 1 7 30
M  V30 34 1 8 31
M  V30 35 1 8 32
M  V30 36 1 9 33
M  V30 37 1 9 34
M  V30 38 1 9 35
M  V30 39 1 10 36
M  V30 40 1 10 37
M  V30 41 1 11 38
M  V30 42 1 12 39
M  V30 43 1 12 40
M  V30 44 1 13 41
M  V30 45 1 14 42
M  V30 46 1 14 43
M  V30 47 1 16 44
M  V30 48 1 16 45
M  V30 49 1 17 46
M  V30 50 1 18 47
M  V30 51 1 18 48
M  V30 52 1 19 49
M  V30 53 1 19 50
M  V30 54 1 19 51
M  V30 55 1 20 52
M  V30 56 1 20 53
M  V30 57 1 21 54
M  V30 58 1 21 55
M  V30 59 1 22 56
M  V30 60 1 23 57
M  V30 END BOND
M  V30 BEGIN COLLECTION
M  V30 MDLV30/STEABS ATOMS=(8 3 5 7 11 13 15 17 22)
M  V30 END COLLECTION
M  V30 END CTAB
M  END
>  <NO.>
1208

>  <Name>
pregnanolone

>  <SMILES>
CC(=O)[C@H]1CC[C@H]2[C@@H]3CC[C@@H]4C[C@H](O)CC[C@]4(C)[C@H]3CC[C@]12C

>  <logBB>


>  <Class>
1

>  <MW>
318.26

>  <nHBAcc>
2

>  <nHBDon>
1

>  <SLogP>
4.6

>  <TopoPSA>
37.3

>  <MMFF94 Energy>
77.362

$$$$
CC(=O)[C@H]1CC[C@H]2[C@@H]3CC[C@H]4C[C@H](O)CC[C@]4(C)[C@H]3C(=O)C[C@]12C
Actelion Java MolfileCreator 2.0

  0  0  0  0  0  0              0 V3000
M  V30 BEGIN CTAB
M  V30 COUNTS 56 59 0 0 0
M  V30 BEGIN ATOM
M  V30 1 O -2.5716 -0.4817 -0.6424 0
M  V30 2 C -1.6349 0.0277 -0.0305 0
M  V30 3 C -0.2245 0.2268 -0.6265 0 CFG=2
M  V30 4 C -1.8664 0.5816 1.3714 0
M  V30 5 C 0.0107 -0.3493 -2.0684 0 CFG=2
M  V30 6 C 0.851 -0.2676 0.3906 0 CFG=2
M  V30 7 C -0.8117 0.0254 2.3314 0 CFG=1
M  V30 8 C 1.4664 0.0463 -2.4892 0 CFG=2
M  V30 9 C -0.9556 0.31 -3.0957 0
M  V30 10 C -0.1939 -1.8857 -2.0892 0
M  V30 11 C 0.5796 0.383 1.755 0 CFG=1
M  V30 12 C 2.2712 0.0428 -0.102 0
M  V30 13 C -0.7178 0.7462 3.6986 0 CFG=1
M  V30 14 C -1.0439 -1.495 2.5233 0
M  V30 15 C 1.8029 -0.3469 -3.9381 0
M  V30 16 C 2.5248 -0.4791 -1.5131 0
M  V30 17 C -0.6371 -0.0402 -4.5552 0
M  V30 18 C 1.5315 0.0812 2.905 0
M  V30 19 C -1.7497 0.324 4.7435 0
M  V30 20 C 0.7429 0.5001 4.1548 0
M  V30 21 C 0.8113 0.2599 -4.9303 0 CFG=1
M  V30 22 O -1.476 -0.4337 5.674 0
M  V30 23 C -3.1544 0.8433 4.5735 0
M  V30 24 O 1.0099 1.6737 -4.9602 0
M  V30 25 H -0.1251 1.321 -0.7065 0
M  V30 26 H -1.8252 1.6752 1.3092 0
M  V30 27 H -2.8773 0.3093 1.6913 0
M  V30 28 H 0.7784 -1.3542 0.5046 0
M  V30 29 H 1.5308 1.1448 -2.4445 0
M  V30 30 H -1.993 0.0169 -2.9063 0
M  V30 31 H -0.9201 1.4015 -2.9809 0
M  V30 32 H 0.4315 -2.4042 -1.3584 0
M  V30 33 H 0.0405 -2.3237 -3.0632 0
M  V30 34 H -1.2317 -2.1562 -1.8725 0
M  V30 35 H 0.6211 1.4746 1.6011 0
M  V30 36 H 3.0111 -0.3999 0.5748 0
M  V30 37 H 2.4397 1.1274 -0.086 0
M  V30 38 H -0.8348 1.8305 3.5603 0
M  V30 39 H -2.0403 -1.6867 2.9376 0
M  V30 40 H -0.3177 -1.9459 3.2067 0
M  V30 41 H -0.9905 -2.0488 1.5813 0
M  V30 42 H 2.8115 0.0144 -4.1764 0
M  V30 43 H 1.8231 -1.4368 -4.0473 0
M  V30 44 H 3.5215 -0.1514 -1.8333 0
M  V30 45 H 2.5462 -1.5746 -1.511 0
M  V30 46 H -0.8518 -1.099 -4.7374 0
M  V30 47 H -1.3134 0.534 -5.2003 0
M  V30 48 H 1.7838 -0.9839 2.9491 0
M  V30 49 H 2.4694 0.6399 2.8227 0
M  V30 50 H 1.1572 1.4233 4.5771 0
M  V30 51 H 0.8369 -0.2707 4.9265 0
M  V30 52 H 1.0241 -0.1178 -5.9363 0
M  V30 53 H -3.1344 1.8721 4.2054 0
M  V30 54 H -3.7022 0.2051 3.8778 0
M  V30 55 H -3.6619 0.8399 5.5424 0
M  V30 56 H 0.4007 2.0388 -5.6248 0
M  V30 END ATOM
M  V30 BEGIN BOND
M  V30 1 2 1 2
M  V30 2 1 2 3
M  V30 3 1 2 4
M  V30 4 1 3 5
M  V30 5 1 3 6
M  V30 6 1 4 7
M  V30 7 1 5 8
M  V30 8 1 5 9
M  V30 9 1 5 10
M  V30 10 1 6 11
M  V30 11 1 6 12
M  V30 12 1 7 13
M  V30 13 1 7 14
M  V30 14 1 8 15
M  V30 15 1 8 16
M  V30 16 1 9 17
M  V30 17 1 11 18
M  V30 18 1 13 19
M  V30 19 1 13 20
M  V30 20 1 15 21
M  V30 21 2 19 22
M  V30 22 1 19 23
M  V30 23 1 21 24
M  V30 24 1 7 11
M  V30 25 1 12 16
M  V30 26 1 17 21
M  V30 27 1 18 20
M  V30 28 1 3 25
M  V30 29 1 4 26
M  V30 30 1 4 27
M  V30 31 1 6 28
M  V30 32 1 8 29
M  V30 33 1 9 30
M  V30 34 1 9 31
M  V30 35 1 10 32
M  V30 36 1 10 33
M  V30 37 1 10 34
M  V30 38 1 11 35
M  V30 39 1 12 36
M  V30 40 1 12 37
M  V30 41 1 13 38
M  V30 42 1 14 39
M  V30 43 1 14 40
M  V30 44 1 14 41
M  V30 45 1 15 42
M  V30 46 1 15 43
M  V30 47 1 16 44
M  V30 48 1 16 45
M  V30 49 1 17 46
M  V30 50 1 17 47
M  V30 51 1 18 48
M  V30 52 1 18 49
M  V30 53 1 20 50
M  V30 54 1 20 51
M  V30 55 1 21 52
M  V30 56 1 23 53
M  V30 57 1 23 54
M  V30 58 1 23 55
M  V30 59 1 24 56
M  V30 END BOND
M  V30 BEGIN COLLECTION
M  V30 MDLV30/STEABS ATOMS=(8 3 5 6 7 8 11 13 21)
M  V30 END COLLECTION
M  V30 END CTAB
M  END
>  <NO.>
1209

>  <Name>
alphaxalone

>  <SMILES>
CC(=O)[C@H]1CC[C@H]2[C@@H]3CC[C@H]4C[C@H](O)CC[C@]4(C)[C@H]3C(=O)C[C@]12C

>  <logBB>


>  <Class>
1

>  <MW>
332.24

>  <nHBAcc>
3

>  <nHBDon>
1

>  <SLogP>
3.77

>  <TopoPSA>
54.37

>  <MMFF94 Energy>
77.861

$$$$
CC(=O)[C@H]1CC[C@H]2[C@@H]3CC[C@H]4C[C@](C)(O)CC[C@]4(C)[C@H]3CC[C@]12C
Actelion Java MolfileCreator 2.0

  0  0  0  0  0  0              0 V3000
M  V30 BEGIN CTAB
M  V30 COUNTS 60 63 0 0 0
M  V30 BEGIN ATOM
M  V30 1 O -1.9986 5.6039 -1.7586 0
M  V30 2 C -1.0419 5.1447 -1.1343 0
M  V30 3 C -1.1815 3.9836 -0.1518 0 CFG=2
M  V30 4 C 0.3415 5.7028 -1.3486 0
M  V30 5 C -0.6877 2.608 -0.6637 0 CFG=2
M  V30 6 C -2.6485 3.7201 0.2765 0
M  V30 7 C -1.3611 1.6897 0.3828 0 CFG=1
M  V30 8 C 0.8279 2.375 -0.5694 0
M  V30 9 C -1.1677 2.364 -2.117 0
M  V30 10 C -2.7953 2.1984 0.4358 0
M  V30 11 C -1.1173 0.1984 0.1232 0 CFG=1
M  V30 12 C 1.1966 0.8938 -0.7719 0
M  V30 13 C 0.4214 -0.0676 0.1644 0 CFG=2
M  V30 14 C -1.8619 -0.6791 1.1399 0
M  V30 15 C 0.7613 -1.5912 -0.039 0 CFG=2
M  V30 16 C -1.5254 -2.161 0.9894 0
M  V30 17 C -0.011 -2.3908 1.0579 0 CFG=1
M  V30 18 C 2.2795 -1.8464 0.1743 0
M  V30 19 C 0.3841 -2.0524 -1.4703 0
M  V30 20 C 0.3272 -3.892 1.0564 0
M  V30 21 C 2.655 -3.3344 0.2046 0
M  V30 22 C 1.8363 -4.1367 1.2242 0 CFG=1
M  V30 23 O 2.2324 -3.7053 2.5313 0
M  V30 24 C 2.1576 -5.6283 1.1117 0
M  V30 25 H -0.6272 4.2696 0.7533 0
M  V30 26 H 0.9025 5.6929 -0.4108 0
M  V30 27 H 0.8632 5.1149 -2.1059 0
M  V30 28 H 0.2652 6.7404 -1.6864 0
M  V30 29 H -2.8507 4.2255 1.2283 0
M  V30 30 H -3.3877 4.0897 -0.4415 0
M  V30 31 H -0.9233 1.9129 1.3706 0
M  V30 32 H 1.3629 2.9768 -1.3117 0
M  V30 33 H 1.1967 2.6963 0.4133 0
M  V30 34 H -1.0018 1.3368 -2.4516 0
M  V30 35 H -0.6274 3.0119 -2.8167 0
M  V30 36 H -2.2348 2.5719 -2.2451 0
M  V30 37 H -3.3997 1.7828 -0.378 0
M  V30 38 H -3.2902 1.9444 1.3787 0
M  V30 39 H -1.5094 -0.0548 -0.8668 0
M  V30 40 H 1.0294 0.6255 -1.8194 0
M  V30 41 H 2.2738 0.7957 -0.5971 0
M  V30 42 H 0.7535 0.1894 1.1832 0
M  V30 43 H -2.9448 -0.5508 1.0268 0
M  V30 44 H -1.6121 -0.3578 2.1594 0
M  V30 45 H -2.0225 -2.7162 1.7944 0
M  V30 46 H -1.9367 -2.5456 0.0493 0
M  V30 47 H 0.3124 -2.0017 2.0359 0
M  V30 48 H 2.8653 -1.3675 -0.619 0
M  V30 49 H 2.5998 -1.3831 1.1169 0
M  V30 50 H -0.6577 -1.8402 -1.7221 0
M  V30 51 H 1.0077 -1.5585 -2.2228 0
M  V30 52 H 0.5238 -3.1275 -1.6126 0
M  V30 53 H -0.0381 -4.3649 0.1376 0
M  V30 54 H -0.2102 -4.3683 1.8874 0
M  V30 55 H 2.5352 -3.7623 -0.7975 0
M  V30 56 H 3.7228 -3.4052 0.4494 0
M  V30 57 H 1.7248 -4.2182 3.1833 0
M  V30 58 H 1.8968 -6.024 0.1247 0
M  V30 59 H 3.2234 -5.8114 1.2895 0
M  V30 60 H 1.6135 -6.2038 1.8693 0
M  V30 END ATOM
M  V30 BEGIN BOND
M  V30 1 2 1 2
M  V30 2 1 2 3
M  V30 3 1 2 4
M  V30 4 1 3 5
M  V30 5 1 3 6
M  V30 6 1 5 7
M  V30 7 1 5 8
M  V30 8 1 5 9
M  V30 9 1 6 10
M  V30 10 1 7 11
M  V30 11 1 8 12
M  V30 12 1 11 13
M  V30 13 1 11 14
M  V30 14 1 13 15
M  V30 15 1 14 16
M  V30 16 1 15 17
M  V30 17 1 15 18
M  V30 18 1 15 19
M  V30 19 1 17 20
M  V30 20 1 18 21
M  V30 21 1 20 22
M  V30 22 1 22 23
M  V30 23 1 22 24
M  V30 24 1 7 10
M  V30 25 1 12 13
M  V30 26 1 16 17
M  V30 27 1 21 22
M  V30 28 1 3 25
M  V30 29 1 4 26
M  V30 30 1 4 27
M  V30 31 1 4 28
M  V30 32 1 6 29
M  V30 33 1 6 30
M  V30 34 1 7 31
M  V30 35 1 8 32
M  V30 36 1 8 33
M  V30 37 1 9 34
M  V30 38 1 9 35
M  V30 39 1 9 36
M  V30 40 1 10 37
M  V30 41 1 10 38
M  V30 42 1 11 39
M  V30 43 1 12 40
M  V30 44 1 12 41
M  V30 45 1 13 42
M  V30 46 1 14 43
M  V30 47 1 14 44
M  V30 48 1 16 45
M  V30 49 1 16 46
M  V30 50 1 17 47
M  V30 51 1 18 48
M  V30 52 1 18 49
M  V30 53 1 19 50
M  V30 54 1 19 51
M  V30 55 1 19 52
M  V30 56 1 20 53
M  V30 57 1 20 54
M  V30 58 1 21 55
M  V30 59 1 21 56
M  V30 60 1 23 57
M  V30 61 1 24 58
M  V30 62 1 24 59
M  V30 63 1 24 60
M  V30 END BOND
M  V30 BEGIN COLLECTION
M  V30 MDLV30/STEABS ATOMS=(8 3 5 7 11 13 15 17 22)
M  V30 END COLLECTION
M  V30 END CTAB
M  END
>  <NO.>
1210

>  <Name>
ganaxolone

>  <SMILES>
CC(=O)[C@H]1CC[C@H]2[C@@H]3CC[C@H]4C[C@](C)(O)CC[C@]4(C)[C@H]3CC[C@]12C

>  <logBB>


>  <Class>
1

>  <MW>
332.27

>  <nHBAcc>
2

>  <nHBDon>
1

>  <SLogP>
4.99

>  <TopoPSA>
37.3

>  <MMFF94 Energy>
83.514

$$$$
CC(=O)[C@H]1CC[C@H]2[C@@H]3C[C@@H](O)C45CC4CC[C@]5(C)[C@H]3CC[C@]12C
Actelion Java MolfileCreator 2.0

  0  0  0  0  0  0              0 V3000
M  V30 BEGIN CTAB
M  V30 COUNTS 55 59 0 0 0
M  V30 BEGIN ATOM
M  V30 1 O 3.543 3.8656 1.8508 0
M  V30 2 C 3.4472 3.1291 0.8689 0
M  V30 3 C 2.8886 1.7099 0.9564 0 CFG=2
M  V30 4 C 3.8607 3.6242 -0.4931 0
M  V30 5 C 1.4538 1.5163 0.4068 0 CFG=2
M  V30 6 C 2.808 1.1754 2.41 0
M  V30 7 C 1.1195 0.1456 1.0386 0 CFG=1
M  V30 8 C 1.3484 1.3517 -1.117 0
M  V30 9 C 0.5304 2.6676 0.8802 0
M  V30 10 C 1.5409 0.3095 2.4926 0
M  V30 11 C -0.3061 -0.332 0.7335 0 CFG=1
M  V30 12 C -0.0392 0.8389 -1.5408 0
M  V30 13 C -0.469 -0.461 -0.8107 0 CFG=2
M  V30 14 C -0.5918 -1.6862 1.4008 0
M  V30 15 C -1.8972 -0.9719 -1.2193 0 CFG=2
M  V30 16 C -1.9997 -2.1821 1.0949 0 CFG=2
M  V30 17 C -2.2857 -2.2121 -0.3826 0
M  V30 18 C -1.8672 -1.5343 -2.6793 0
M  V30 19 C -2.9737 0.1185 -1.1085 0
M  V30 20 O -2.9633 -1.3411 1.7208 0
M  V30 21 C -1.9944 -3.4319 -1.2106 0
M  V30 22 C -3.4173 -3.1279 -0.8351 0
M  V30 23 C -1.4465 -3.0049 -2.5392 0
M  V30 24 H 3.5908 1.0627 0.4121 0
M  V30 25 H 4.3047 2.8106 -1.0719 0
M  V30 26 H 2.9934 4.03 -1.0173 0
M  V30 27 H 4.6136 4.4094 -0.3798 0
M  V30 28 H 3.6975 0.5739 2.6308 0
M  V30 29 H 2.7647 1.9663 3.1659 0
M  V30 30 H 1.8022 -0.6069 0.6086 0
M  V30 31 H 1.5454 2.3006 -1.627 0
M  V30 32 H 2.1083 0.6444 -1.4733 0
M  V30 33 H -0.5268 2.4717 0.684 0
M  V30 34 H 0.7781 3.6007 0.3614 0
M  V30 35 H 0.6228 2.8627 1.9535 0
M  V30 36 H 1.7496 -0.6508 2.9747 0
M  V30 37 H 0.7666 0.8146 3.0809 0
M  V30 38 H -1.0244 0.3969 1.1238 0
M  V30 39 H -0.7725 1.6329 -1.3679 0
M  V30 40 H -0.0191 0.6743 -2.6232 0
M  V30 41 H 0.2507 -1.2318 -1.126 0
M  V30 42 H -0.4758 -1.5894 2.4866 0
M  V30 43 H 0.1393 -2.4285 1.0566 0
M  V30 44 H -2.122 -3.1831 1.5264 0
M  V30 45 H -1.2051 -0.9904 -3.3573 0
M  V30 46 H -2.8708 -1.4943 -3.1231 0
M  V30 47 H -3.9777 -0.2961 -1.2527 0
M  V30 48 H -2.8374 0.8964 -1.8667 0
M  V30 49 H -2.9672 0.5997 -0.126 0
M  V30 50 H -2.8018 -1.3802 2.6779 0
M  V30 51 H -1.5039 -4.2906 -0.7768 0
M  V30 52 H -4.1089 -2.7786 -1.5925 0
M  V30 53 H -3.8943 -3.7609 -0.0936 0
M  V30 54 H -0.3548 -3.0935 -2.5369 0
M  V30 55 H -1.8412 -3.6143 -3.3575 0
M  V30 END ATOM
M  V30 BEGIN BOND
M  V30 1 2 1 2
M  V30 2 1 2 3
M  V30 3 1 2 4
M  V30 4 1 3 5
M  V30 5 1 3 6
M  V30 6 1 5 7
M  V30 7 1 5 8
M  V30 8 1 5 9
M  V30 9 1 6 10
M  V30 10 1 7 11
M  V30 11 1 8 12
M  V30 12 1 11 13
M  V30 13 1 11 14
M  V30 14 1 13 15
M  V30 15 1 14 16
M  V30 16 1 15 17
M  V30 17 1 15 18
M  V30 18 1 15 19
M  V30 19 1 16 20
M  V30 20 1 17 21
M  V30 21 1 17 22
M  V30 22 1 18 23
M  V30 23 1 7 10
M  V30 24 1 12 13
M  V30 25 1 16 17
M  V30 26 1 21 22
M  V30 27 1 21 23
M  V30 28 1 3 24
M  V30 29 1 4 25
M  V30 30 1 4 26
M  V30 31 1 4 27
M  V30 32 1 6 28
M  V30 33 1 6 29
M  V30 34 1 7 30
M  V30 35 1 8 31
M  V30 36 1 8 32
M  V30 37 1 9 33
M  V30 38 1 9 34
M  V30 39 1 9 35
M  V30 40 1 10 36
M  V30 41 1 10 37
M  V30 42 1 11 38
M  V30 43 1 12 39
M  V30 44 1 12 40
M  V30 45 1 13 41
M  V30 46 1 14 42
M  V30 47 1 14 43
M  V30 48 1 16 44
M  V30 49 1 18 45
M  V30 50 1 18 46
M  V30 51 1 19 47
M  V30 52 1 19 48
M  V30 53 1 19 49
M  V30 54 1 20 50
M  V30 55 1 21 51
M  V30 56 1 22 52
M  V30 57 1 22 53
M  V30 58 1 23 54
M  V30 59 1 23 55
M  V30 END BOND
M  V30 BEGIN COLLECTION
M  V30 MDLV30/STEABS ATOMS=(7 3 5 7 11 13 15 16)
M  V30 END COLLECTION
M  V30 END CTAB
M  END
>  <NO.>
1211

>  <Name>
schembl1554894

>  <SMILES>
CC(=O)[C@H]1CC[C@H]2[C@@H]3C[C@@H](O)C45CC4CC[C@]5(C)[C@H]3CC[C@]12C

>  <logBB>


>  <Class>
1

>  <MW>
316.24

>  <nHBAcc>
2

>  <nHBDon>
1

>  <SLogP>
4.21

>  <TopoPSA>
37.3

>  <MMFF94 Energy>
88.51

$$$$
CC(=O)[C@H]1CC[C@H]2[C@@H]3C[C@H](C)C4=CC(=O)CC[C@]4(C)[C@H]3[C@@H](O)C[C@]12C
Actelion Java MolfileCreator 2.0

  0  0  0  0  0  0              0 V3000
M  V30 BEGIN CTAB
M  V30 COUNTS 57 60 0 0 0
M  V30 BEGIN ATOM
M  V30 1 O 0.6424 4.9871 3.6983 0
M  V30 2 C 0.361 3.87 3.2718 0
M  V30 3 C -0.5555 3.7383 2.1147 0
M  V30 4 C 0.8409 2.6097 3.9346 0
M  V30 5 C -0.8468 2.5472 1.5556 0
M  V30 6 C 1.0875 1.5426 2.8822 0
M  V30 7 C -0.1581 1.234 1.9965 0 CFG=2
M  V30 8 C -1.9205 2.3896 0.4775 0 CFG=2
M  V30 9 C 0.3484 0.4562 0.715 0 CFG=1
M  V30 10 C -1.1814 0.4423 2.8433 0
M  V30 11 C -1.3548 1.6532 -0.7413 0
M  V30 12 C -2.6016 3.6834 0.0074 0
M  V30 13 C 1.1101 -0.8753 0.9957 0 CFG=1
M  V30 14 C -0.7599 0.2868 -0.3683 0 CFG=1
M  V30 15 O 0.3209 -1.7584 1.779 0
M  V30 16 C 1.5698 -1.6055 -0.2859 0
M  V30 17 C -0.1425 -0.3842 -1.6039 0 CFG=1
M  V30 18 C 0.4419 -1.7847 -1.3202 0 CFG=1
M  V30 19 C -1.011 -0.6029 -2.8359 0
M  V30 20 C 0.9167 -2.1559 -2.7499 0 CFG=2
M  V30 21 C -0.6068 -2.8139 -0.8283 0
M  V30 22 C -0.2066 -1.6119 -3.6713 0
M  V30 23 C 1.223 -3.6344 -2.9845 0
M  V30 24 O 0.467 -4.3778 -3.6098 0
M  V30 25 C 2.495 -4.1774 -2.3856 0
M  V30 26 H -1.0134 4.673 1.8132 0
M  V30 27 H 1.779 2.8253 4.4577 0
M  V30 28 H 0.1005 2.2927 4.6757 0
M  V30 29 H 1.9151 1.8832 2.244 0
M  V30 30 H 1.4391 0.6334 3.3846 0
M  V30 31 H -2.7197 1.7698 0.9063 0
M  V30 32 H 1.1035 1.1122 0.2496 0
M  V30 33 H -0.7014 -0.3368 3.4435 0
M  V30 34 H -1.9481 -0.0381 2.2281 0
M  V30 35 H -1.7049 1.0946 3.5532 0
M  V30 36 H -2.1578 1.5092 -1.4749 0
M  V30 37 H -0.5908 2.2739 -1.2292 0
M  V30 38 H -1.8844 4.3752 -0.4481 0
M  V30 39 H -3.3713 3.4636 -0.741 0
M  V30 40 H -3.0995 4.1942 0.8388 0
M  V30 41 H 2.008 -0.655 1.5836 0
M  V30 42 H -1.5714 -0.3358 0.0222 0
M  V30 43 H 0.8584 -2.542 1.9877 0
M  V30 44 H 2.3863 -1.025 -0.7349 0
M  V30 45 H 1.9874 -2.5818 -0.0167 0
M  V30 46 H 0.6826 0.2707 -1.9324 0
M  V30 47 H -1.9899 -1.0164 -2.5687 0
M  V30 48 H -1.1824 0.3229 -3.394 0
M  V30 49 H 1.8337 -1.603 -2.9983 0
M  V30 50 H -1.1892 -2.4592 0.0243 0
M  V30 51 H -0.1196 -3.7463 -0.5211 0
M  V30 52 H -1.3316 -3.0748 -1.6067 0
M  V30 53 H 0.2399 -1.1167 -4.5417 0
M  V30 54 H -0.8739 -2.3894 -4.0567 0
M  V30 55 H 3.2872 -3.4264 -2.4366 0
M  V30 56 H 2.3189 -4.4697 -1.3486 0
M  V30 57 H 2.8199 -5.0517 -2.9568 0
M  V30 END ATOM
M  V30 BEGIN BOND
M  V30 1 2 1 2
M  V30 2 1 2 3
M  V30 3 1 2 4
M  V30 4 2 3 5
M  V30 5 1 4 6
M  V30 6 1 5 7
M  V30 7 1 5 8
M  V30 8 1 7 9
M  V30 9 1 7 10
M  V30 10 1 8 11
M  V30 11 1 8 12
M  V30 12 1 9 13
M  V30 13 1 9 14
M  V30 14 1 13 15
M  V30 15 1 13 16
M  V30 16 1 14 17
M  V30 17 1 16 18
M  V30 18 1 17 19
M  V30 19 1 18 20
M  V30 20 1 18 21
M  V30 21 1 19 22
M  V30 22 1 20 23
M  V30 23 2 23 24
M  V30 24 1 23 25
M  V30 25 1 6 7
M  V30 26 1 11 14
M  V30 27 1 17 18
M  V30 28 1 20 22
M  V30 29 1 3 26
M  V30 30 1 4 27
M  V30 31 1 4 28
M  V30 32 1 6 29
M  V30 33 1 6 30
M  V30 34 1 8 31
M  V30 35 1 9 32
M  V30 36 1 10 33
M  V30 37 1 10 34
M  V30 38 1 10 35
M  V30 39 1 11 36
M  V30 40 1 11 37
M  V30 41 1 12 38
M  V30 42 1 12 39
M  V30 43 1 12 40
M  V30 44 1 13 41
M  V30 45 1 14 42
M  V30 46 1 15 43
M  V30 47 1 16 44
M  V30 48 1 16 45
M  V30 49 1 17 46
M  V30 50 1 19 47
M  V30 51 1 19 48
M  V30 52 1 20 49
M  V30 53 1 21 50
M  V30 54 1 21 51
M  V30 55 1 21 52
M  V30 56 1 22 53
M  V30 57 1 22 54
M  V30 58 1 25 55
M  V30 59 1 25 56
M  V30 60 1 25 57
M  V30 END BOND
M  V30 BEGIN COLLECTION
M  V30 MDLV30/STEABS ATOMS=(8 7 8 9 13 14 17 18 20)
M  V30 END COLLECTION
M  V30 END CTAB
M  END
>  <NO.>
1212

>  <Name>
medrysone

>  <SMILES>
CC(=O)[C@H]1CC[C@H]2[C@@H]3C[C@H](C)C4=CC(=O)CC[C@]4(C)[C@H]3[C@@H](O)C[C@]12C

>  <logBB>


>  <Class>
1

>  <MW>
344.24

>  <nHBAcc>
3

>  <nHBDon>
1

>  <SLogP>
3.94

>  <TopoPSA>
54.37

>  <MMFF94 Energy>
87.499

$$$$
CC(=O)[C@]1(N)Cc2c(O)c3c(c(O)c2[C@@H](O[C@H]2C[C@H](O)[C@H](O)CO2)C1)C(=O)c1ccccc1C3=O
Actelion Java MolfileCreator 2.0

  0  0  0  0  0  0              0 V3000
M  V30 BEGIN CTAB
M  V30 COUNTS 60 64 0 0 0
M  V30 BEGIN ATOM
M  V30 1 O 3.1578 -1.6994 2.1043 0
M  V30 2 C 2.2689 -1.3038 2.8535 0
M  V30 3 C 1.1901 -0.4451 2.3192 0
M  V30 4 C 2.2725 -1.679 4.2782 0
M  V30 5 C 1.1729 -0.082 0.9617 0
M  V30 6 C 0.1834 0.0131 3.166 0
M  V30 7 C 1.2678 -1.2188 5.1241 0
M  V30 8 C 3.2901 -2.4991 4.7813 0
M  V30 9 O 2.1544 -0.4966 0.0941 0
M  V30 10 C 0.151 0.7298 0.4334 0
M  V30 11 C 0.1964 -0.3554 4.5977 0
M  V30 12 C -0.8348 0.8308 2.6498 0
M  V30 13 C 1.2745 -1.5757 6.4784 0
M  V30 14 C 3.2958 -2.8546 6.1311 0
M  V30 15 C -0.8723 1.1836 1.2882 0
M  V30 16 C 0.1354 1.057 -1.0454 0 CFG=1
M  V30 17 O -0.6877 0.0615 5.3408 0
M  V30 18 O -1.8349 1.3323 3.4475 0
M  V30 19 C 2.289 -2.3933 6.9788 0
M  V30 20 C -1.9802 2.094 0.7947 0
M  V30 21 O -0.4465 -0.0765 -1.7023 0
M  V30 22 C -0.6894 2.3102 -1.3554 0
M  V30 23 C -2.0992 2.2705 -0.7341 0 CFG=1
M  V30 24 C 0.3265 -0.5208 -2.8175 0 CFG=2
M  V30 25 N -2.9138 1.186 -1.3402 0
M  V30 26 C -2.8365 3.6063 -1.0245 0
M  V30 27 O 0.2769 0.4595 -3.8572 0
M  V30 28 C -0.3027 -1.8257 -3.3053 0
M  V30 29 O -2.3397 4.4934 -1.7247 0
M  V30 30 C -4.2086 3.804 -0.419 0
M  V30 31 C 1.0488 0.0632 -4.9874 0
M  V30 32 C 0.3755 -2.3181 -4.5739 0 CFG=1
M  V30 33 C 0.4719 -1.2027 -5.6223 0 CFG=2
M  V30 34 O 1.692 -2.7857 -4.2566 0
M  V30 35 O 1.2943 -1.6548 -6.7017 0
M  V30 36 H 4.0801 -2.864 4.1271 0
M  V30 37 H 2.7873 -1.0735 0.5804 0
M  V30 38 H 0.4925 -1.2203 7.1476 0
M  V30 39 H 4.0863 -3.4921 6.5216 0
M  V30 40 H 1.1614 1.2433 -1.3893 0
M  V30 41 H -1.7054 1.0004 4.3651 0
M  V30 42 H 2.2937 -2.6707 8.0309 0
M  V30 43 H -2.9403 1.7319 1.1878 0
M  V30 44 H -1.806 3.0771 1.2551 0
M  V30 45 H -0.1521 3.1904 -0.9745 0
M  V30 46 H -0.7677 2.4432 -2.4421 0
M  V30 47 H 1.3647 -0.6901 -2.5054 0
M  V30 48 H -2.9071 1.3161 -2.3553 0
M  V30 49 H -2.3899 0.3089 -1.2205 0
M  V30 50 H -0.2419 -2.5779 -2.5099 0
M  V30 51 H -1.3684 -1.6589 -3.5086 0
M  V30 52 H -4.6498 4.7232 -0.8161 0
M  V30 53 H -4.8658 2.972 -0.6806 0
M  V30 54 H -4.1301 3.8988 0.6661 0
M  V30 55 H 2.1005 -0.065 -4.7028 0
M  V30 56 H 1.0285 0.8813 -5.7158 0
M  V30 57 H -0.1649 -3.177 -4.9867 0
M  V30 58 H -0.5334 -0.9957 -6.0086 0
M  V30 59 H 2.1264 -2.9196 -5.1241 0
M  V30 60 H 1.2728 -0.9648 -7.3892 0
M  V30 END ATOM
M  V30 BEGIN BOND
M  V30 1 2 1 2
M  V30 2 1 2 3
M  V30 3 1 2 4
M  V30 4 2 3 5
M  V30 5 1 3 6
M  V30 6 2 4 7
M  V30 7 1 4 8
M  V30 8 1 5 9
M  V30 9 1 5 10
M  V30 10 1 6 11
M  V30 11 2 6 12
M  V30 12 1 7 13
M  V30 13 2 8 14
M  V30 14 2 10 15
M  V30 15 1 10 16
M  V30 16 2 11 17
M  V30 17 1 12 18
M  V30 18 2 13 19
M  V30 19 1 15 20
M  V30 20 1 16 21
M  V30 21 1 16 22
M  V30 22 1 20 23
M  V30 23 1 21 24
M  V30 24 1 23 25
M  V30 25 1 23 26
M  V30 26 1 24 27
M  V30 27 1 24 28
M  V30 28 2 26 29
M  V30 29 1 26 30
M  V30 30 1 27 31
M  V30 31 1 28 32
M  V30 32 1 31 33
M  V30 33 1 32 34
M  V30 34 1 33 35
M  V30 35 1 7 11
M  V30 36 1 12 15
M  V30 37 1 14 19
M  V30 38 1 22 23
M  V30 39 1 32 33
M  V30 40 1 8 36
M  V30 41 1 9 37
M  V30 42 1 13 38
M  V30 43 1 14 39
M  V30 44 1 16 40
M  V30 45 1 18 41
M  V30 46 1 19 42
M  V30 47 1 20 43
M  V30 48 1 20 44
M  V30 49 1 22 45
M  V30 50 1 22 46
M  V30 51 1 24 47
M  V30 52 1 25 48
M  V30 53 1 25 49
M  V30 54 1 28 50
M  V30 55 1 28 51
M  V30 56 1 30 52
M  V30 57 1 30 53
M  V30 58 1 30 54
M  V30 59 1 31 55
M  V30 60 1 31 56
M  V30 61 1 32 57
M  V30 62 1 33 58
M  V30 63 1 34 59
M  V30 64 1 35 60
M  V30 END BOND
M  V30 BEGIN COLLECTION
M  V30 MDLV30/STEABS ATOMS=(5 16 23 24 32 33)
M  V30 END COLLECTION
M  V30 END CTAB
M  END
>  <NO.>
1213

>  <Name>
amrubicin

>  <SMILES>
CC(=O)[C@]1(N)Cc2c(O)c3c(c(O)c2[C@@H](O[C@H]2C[C@H](O)[C@H](O)CO2)C1)C(=O)c1ccccc1C3=O

>  <logBB>


>  <Class>
-1

>  <MW>
483.15

>  <nHBAcc>
10

>  <nHBDon>
5

>  <SLogP>
0.63

>  <TopoPSA>
176.61

>  <MMFF94 Energy>
121.91

$$$$
CC(=O)c1ccc(C(O)C(CO)NC(=O)C(Cl)Cl)cc1
Actelion Java MolfileCreator 2.0

  0  0  0  0  0  0              0 V3000
M  V30 BEGIN CTAB
M  V30 COUNTS 35 35 0 0 0
M  V30 BEGIN ATOM
M  V30 1 Cl -3.4073 5.7652 -0.4051 0
M  V30 2 C -2.0599 4.934 -1.1993 0
M  V30 3 Cl -0.6829 6.0205 -1.4537 0
M  V30 4 C -1.6063 3.7566 -0.3303 0
M  V30 5 O -1.2439 3.8672 0.8404 0
M  V30 6 N -1.607 2.5287 -0.9602 0
M  V30 7 C -1.3104 1.2294 -0.3045 0
M  V30 8 C 0.1075 1.1681 0.3501 0
M  V30 9 C -1.513 0.1394 -1.3786 0
M  V30 10 O 0.1158 1.8131 1.6264 0
M  V30 11 C 0.6162 -0.2388 0.5998 0
M  V30 12 O -2.7506 0.3671 -2.0672 0
M  V30 13 C 1.6699 -0.7584 -0.1667 0
M  V30 14 C 0.0361 -1.0522 1.5852 0
M  V30 15 C 2.1295 -2.064 0.0401 0
M  V30 16 C 0.4908 -2.3568 1.7905 0
M  V30 17 C 1.541 -2.8701 1.0207 0
M  V30 18 C 1.9919 -4.2697 1.2764 0
M  V30 19 O 1.3272 -5.0041 2.0045 0
M  V30 20 C 3.2559 -4.7598 0.6201 0
M  V30 21 H -2.4049 4.5899 -2.1779 0
M  V30 22 H -2.0279 2.4411 -1.8827 0
M  V30 23 H -2.081 1.1232 0.4699 0
M  V30 24 H 0.8241 1.7093 -0.2797 0
M  V30 25 H -0.7193 0.186 -2.1316 0
M  V30 26 H -1.5391 -0.8694 -0.9572 0
M  V30 27 H -0.2999 2.6953 1.5111 0
M  V30 28 H -3.4635 0.0504 -1.4819 0
M  V30 29 H 2.1478 -0.1472 -0.9303 0
M  V30 30 H -0.7643 -0.6638 2.2133 0
M  V30 31 H 2.9454 -2.4262 -0.5784 0
M  V30 32 H 0.0279 -2.9668 2.5647 0
M  V30 33 H 3.0957 -4.8885 -0.4531 0
M  V30 34 H 4.0803 -4.0678 0.8111 0
M  V30 35 H 3.5303 -5.7285 1.0492 0
M  V30 END ATOM
M  V30 BEGIN BOND
M  V30 1 1 1 2
M  V30 2 1 2 3
M  V30 3 1 2 4
M  V30 4 2 4 5
M  V30 5 1 4 6
M  V30 6 1 6 7
M  V30 7 1 7 8
M  V30 8 1 7 9
M  V30 9 1 8 10
M  V30 10 1 8 11
M  V30 11 1 9 12
M  V30 12 2 11 13
M  V30 13 1 11 14
M  V30 14 1 13 15
M  V30 15 2 14 16
M  V30 16 2 15 17
M  V30 17 1 17 18
M  V30 18 2 18 19
M  V30 19 1 18 20
M  V30 20 1 16 17
M  V30 21 1 2 21
M  V30 22 1 6 22
M  V30 23 1 7 23
M  V30 24 1 8 24
M  V30 25 1 9 25
M  V30 26 1 9 26
M  V30 27 1 10 27
M  V30 28 1 12 28
M  V30 29 1 13 29
M  V30 30 1 14 30
M  V30 31 1 15 31
M  V30 32 1 16 32
M  V30 33 1 20 33
M  V30 34 1 20 34
M  V30 35 1 20 35
M  V30 END BOND
M  V30 END CTAB
M  END
>  <NO.>
1215

>  <Name>
cetophenicol/cetofenicol

>  <SMILES>
CC(=O)c1ccc(C(O)C(CO)NC(=O)C(Cl)Cl)cc1

>  <logBB>


>  <Class>
1

>  <MW>
319.04

>  <nHBAcc>
4

>  <nHBDon>
3

>  <SLogP>
1.2

>  <TopoPSA>
86.63

>  <MMFF94 Energy>
113.46

$$$$
CC(=O)c1ccc2c(c1)N(CC(C)N(C)C)c1ccccc1S2
Actelion Java MolfileCreator 2.0

  0  0  0  0  0  0              0 V3000
M  V30 BEGIN CTAB
M  V30 COUNTS 45 47 0 0 0
M  V30 BEGIN ATOM
M  V30 1 S -2.979 -0.563 0.0 0
M  V30 2 C -1.947 0.6993 0.7161 0
M  V30 3 C -2.2291 -0.785 -1.6007 0
M  V30 4 C -0.6987 1.0673 0.1792 0
M  V30 5 C -2.4276 1.3098 1.8877 0
M  V30 6 C -0.961 -0.2692 -1.9304 0
M  V30 7 C -2.9719 -1.5151 -2.5458 0
M  V30 8 N -0.1796 0.4477 -0.9875 0
M  V30 9 C 0.0097 2.0954 0.8349 0
M  V30 10 C -1.6963 2.3078 2.5313 0
M  V30 11 C -0.5196 -0.4475 -3.2577 0
M  V30 12 C -2.49 -1.7103 -3.8372 0
M  V30 13 C 1.2818 0.1507 -0.9815 0
M  V30 14 C -0.4735 2.7113 2.0009 0
M  V30 15 C -1.2669 -1.1644 -4.1973 0
M  V30 16 C 1.695 -0.8976 0.1091 0 CFG=1
M  V30 17 C 0.355 3.7785 2.6356 0
M  V30 18 N 1.0493 -2.22 -0.0741 0
M  V30 19 C 3.2291 -0.9577 0.1905 0
M  V30 20 O 1.5018 3.9785 2.2401 0
M  V30 21 C -0.2325 4.5848 3.7642 0
M  V30 22 C 1.0085 -2.9985 1.1605 0
M  V30 23 C 1.5768 -3.0184 -1.1747 0
M  V30 24 H -3.3857 1.0064 2.3065 0
M  V30 25 H -3.942 -1.9284 -2.2787 0
M  V30 26 H 0.9496 2.4562 0.4257 0
M  V30 27 H -2.1048 2.7466 3.4364 0
M  V30 28 H 0.409 0.0018 -3.5965 0
M  V30 29 H -3.0768 -2.2699 -4.5601 0
M  V30 30 H 1.6439 -0.199 -1.953 0
M  V30 31 H 1.8465 1.0775 -0.8272 0
M  V30 32 H -0.8926 -1.2843 -5.2104 0
M  V30 33 H 1.3519 -0.4967 1.0716 0
M  V30 34 H 3.5655 -1.6579 0.9614 0
M  V30 35 H 3.6773 -1.2532 -0.7636 0
M  V30 36 H 3.6332 0.0268 0.4517 0
M  V30 37 H -1.1975 5.007 3.4717 0
M  V30 38 H -0.3335 3.9629 4.6571 0
M  V30 39 H 0.4376 5.4185 3.9962 0
M  V30 40 H 2.0053 -3.2975 1.5009 0
M  V30 41 H 0.4106 -3.9064 1.0215 0
M  V30 42 H 0.5233 -2.4317 1.963 0
M  V30 43 H 1.5849 -2.4591 -2.1144 0
M  V30 44 H 0.9383 -3.8927 -1.3462 0
M  V30 45 H 2.5924 -3.3801 -0.9802 0
M  V30 END ATOM
M  V30 BEGIN BOND
M  V30 1 1 1 2
M  V30 2 1 1 3
M  V30 3 2 2 4
M  V30 4 1 2 5
M  V30 5 2 3 6
M  V30 6 1 3 7
M  V30 7 1 4 8
M  V30 8 1 4 9
M  V30 9 2 5 10
M  V30 10 1 6 11
M  V30 11 2 7 12
M  V30 12 1 8 13
M  V30 13 2 9 14
M  V30 14 2 11 15
M  V30 15 1 13 16
M  V30 16 1 14 17
M  V30 17 1 16 18
M  V30 18 1 16 19
M  V30 19 2 17 20
M  V30 20 1 17 21
M  V30 21 1 18 22
M  V30 22 1 18 23
M  V30 23 1 6 8
M  V30 24 1 10 14
M  V30 25 1 12 15
M  V30 26 1 5 24
M  V30 27 1 7 25
M  V30 28 1 9 26
M  V30 29 1 10 27
M  V30 30 1 11 28
M  V30 31 1 12 29
M  V30 32 1 13 30
M  V30 33 1 13 31
M  V30 34 1 15 32
M  V30 35 1 16 33
M  V30 36 1 19 34
M  V30 37 1 19 35
M  V30 38 1 19 36
M  V30 39 1 21 37
M  V30 40 1 21 38
M  V30 41 1 21 39
M  V30 42 1 22 40
M  V30 43 1 22 41
M  V30 44 1 22 42
M  V30 45 1 23 43
M  V30 46 1 23 44
M  V30 47 1 23 45
M  V30 END BOND
M  V30 BEGIN COLLECTION
M  V30 MDLV30/STERAC1 ATOMS=(1 16)
M  V30 END COLLECTION
M  V30 END CTAB
M  END
>  <NO.>
1216

>  <Name>
aceprometazine

>  <SMILES>
CC(=O)c1ccc2c(c1)N(CC(C)N(C)C)c1ccccc1S2

>  <logBB>


>  <Class>
1

>  <MW>
326.15

>  <nHBAcc>
4

>  <nHBDon>
0

>  <SLogP>
4.44

>  <TopoPSA>
23.55

>  <MMFF94 Energy>
117.02

$$$$
CC(=O)c1ccc2c(c1)N(CCCN(C)C)c1ccccc1S2
Actelion Java MolfileCreator 2.0

  0  0  0  0  0  0              0 V3000
M  V30 BEGIN CTAB
M  V30 COUNTS 45 47 0 0 0
M  V30 BEGIN ATOM
M  V30 1 S -4.2684 0.1608 -0.4825 0
M  V30 2 C -2.9745 0.9646 0.4278 0
M  V30 3 C -3.3724 -1.0011 -1.4812 0
M  V30 4 C -1.6211 0.5714 0.3862 0
M  V30 5 C -3.3929 2.0452 1.2277 0
M  V30 6 C -1.9874 -1.2337 -1.3613 0
M  V30 7 C -4.1523 -1.7082 -2.4195 0
M  V30 8 N -1.1873 -0.5312 -0.4104 0
M  V30 9 C -0.7215 1.3377 1.1698 0
M  V30 10 C -2.4847 2.7628 1.9973 0
M  V30 11 C -1.4441 -2.1938 -2.2473 0
M  V30 12 C -3.5812 -2.6501 -3.2658 0
M  V30 13 C 0.1886 -1.0385 -0.1785 0
M  V30 14 C -1.1396 2.4107 1.9755 0
M  V30 15 C -2.2218 -2.891 -3.1808 0
M  V30 16 C 1.1995 -0.3666 -1.1206 0
M  V30 17 C -0.1894 3.2017 2.8136 0
M  V30 18 C 2.6178 -0.9134 -0.9215 0
M  V30 19 O -0.5678 4.2407 3.3518 0
M  V30 20 C 1.2263 2.716 2.9785 0
M  V30 21 N 3.1623 -0.6187 0.4145 0
M  V30 22 C 3.6277 0.7694 0.5058 0
M  V30 23 C 4.2804 -1.5204 0.7139 0
M  V30 24 H -4.4418 2.3364 1.2549 0
M  V30 25 H -5.2222 -1.5214 -2.4943 0
M  V30 26 H 0.338 1.115 1.1465 0
M  V30 27 H -2.8343 3.5932 2.6076 0
M  V30 28 H -0.3856 -2.4296 -2.2545 0
M  V30 29 H -4.1944 -3.1853 -3.9849 0
M  V30 30 H 0.229 -2.1295 -0.2899 0
M  V30 31 H 0.4811 -0.9135 0.8709 0
M  V30 32 H -1.7553 -3.6192 -3.8392 0
M  V30 33 H 1.182 0.7214 -0.9992 0
M  V30 34 H 0.9126 -0.5414 -2.1639 0
M  V30 35 H 2.5686 -2.0001 -1.0723 0
M  V30 36 H 3.2789 -0.5246 -1.7068 0
M  V30 37 H 1.246 1.654 3.2362 0
M  V30 38 H 1.7924 2.9077 2.0645 0
M  V30 39 H 1.698 3.2615 3.802 0
M  V30 40 H 2.812 1.4751 0.3244 0
M  V30 41 H 4.4317 0.9848 -0.2072 0
M  V30 42 H 3.9982 0.9815 1.5153 0
M  V30 43 H 5.0969 -1.4216 -0.0104 0
M  V30 44 H 3.9429 -2.5628 0.7158 0
M  V30 45 H 4.6786 -1.3212 1.7152 0
M  V30 END ATOM
M  V30 BEGIN BOND
M  V30 1 1 1 2
M  V30 2 1 1 3
M  V30 3 2 2 4
M  V30 4 1 2 5
M  V30 5 2 3 6
M  V30 6 1 3 7
M  V30 7 1 4 8
M  V30 8 1 4 9
M  V30 9 2 5 10
M  V30 10 1 6 11
M  V30 11 2 7 12
M  V30 12 1 8 13
M  V30 13 2 9 14
M  V30 14 2 11 15
M  V30 15 1 13 16
M  V30 16 1 14 17
M  V30 17 1 16 18
M  V30 18 2 17 19
M  V30 19 1 17 20
M  V30 20 1 18 21
M  V30 21 1 21 22
M  V30 22 1 21 23
M  V30 23 1 6 8
M  V30 24 1 10 14
M  V30 25 1 12 15
M  V30 26 1 5 24
M  V30 27 1 7 25
M  V30 28 1 9 26
M  V30 29 1 10 27
M  V30 30 1 11 28
M  V30 31 1 12 29
M  V30 32 1 13 30
M  V30 33 1 13 31
M  V30 34 1 15 32
M  V30 35 1 16 33
M  V30 36 1 16 34
M  V30 37 1 18 35
M  V30 38 1 18 36
M  V30 39 1 20 37
M  V30 40 1 20 38
M  V30 41 1 20 39
M  V30 42 1 22 40
M  V30 43 1 22 41
M  V30 44 1 22 42
M  V30 45 1 23 43
M  V30 46 1 23 44
M  V30 47 1 23 45
M  V30 END BOND
M  V30 END CTAB
M  END
>  <NO.>
1217

>  <Name>
acepromazine

>  <SMILES>
CC(=O)c1ccc2c(c1)N(CCCN(C)C)c1ccccc1S2

>  <logBB>


>  <Class>
1

>  <MW>
326.15

>  <nHBAcc>
4

>  <nHBDon>
0

>  <SLogP>
4.44

>  <TopoPSA>
23.55

>  <MMFF94 Energy>
84.311

$$$$
CC(=O)c1ccc2c(c1)N(CCCN1CCC(CCO)CC1)c1ccccc1S2
Actelion Java MolfileCreator 2.0

  0  0  0  0  0  0              0 V3000
M  V30 BEGIN CTAB
M  V30 COUNTS 59 62 0 0 0
M  V30 BEGIN ATOM
M  V30 1 S -4.6702 -1.2062 -3.2996 0
M  V30 2 C -4.513 -0.3556 -1.7497 0
M  V30 3 C -3.1135 -2.0496 -3.4341 0
M  V30 4 C -3.4399 -0.5452 -0.8552 0
M  V30 5 C -5.5595 0.5365 -1.4481 0
M  V30 6 C -2.1576 -2.0978 -2.399 0
M  V30 7 C -2.8879 -2.6994 -4.6648 0
M  V30 8 N -2.3773 -1.4534 -1.1443 0
M  V30 9 C -3.4697 0.2267 0.3334 0
M  V30 10 C -5.5603 1.2705 -0.2669 0
M  V30 11 C -0.9689 -2.809 -2.6865 0
M  V30 12 C -1.7108 -3.3975 -4.9041 0
M  V30 13 C -1.4746 -1.8269 -0.0301 0
M  V30 14 C -4.5095 1.124 0.6322 0
M  V30 15 C -0.7471 -3.449 -3.9126 0
M  V30 16 C -0.2588 -0.8905 0.0526 0
M  V30 17 C -4.53 1.9378 1.8861 0
M  V30 18 C 0.6278 -1.2749 1.2436 0
M  V30 19 O -5.4722 2.6959 2.1083 0
M  V30 20 C -3.3881 1.8138 2.8614 0
M  V30 21 N 1.8214 -0.4516 1.4709 0
M  V30 22 C 2.7911 -0.5241 0.3748 0
M  V30 23 C 1.509 0.9372 1.8201 0
M  V30 24 C 4.1007 0.1723 0.7572 0
M  V30 25 C 2.7726 1.6795 2.2593 0
M  V30 26 C 3.8646 1.6301 1.1791 0
M  V30 27 C 5.1427 2.3137 1.6911 0
M  V30 28 C 6.2387 2.4322 0.6389 0
M  V30 29 O 7.3181 3.1777 1.1875 0
M  V30 30 H -6.3879 0.6684 -2.1428 0
M  V30 31 H -3.6395 -2.6598 -5.4513 0
M  V30 32 H -2.6597 0.148 1.0466 0
M  V30 33 H -6.38 1.9562 -0.0605 0
M  V30 34 H -0.1588 -2.8816 -1.9688 0
M  V30 35 H -1.5499 -3.8912 -5.8582 0
M  V30 36 H -1.1479 -2.8713 -0.1158 0
M  V30 37 H -2.0163 -1.8374 0.9247 0
M  V30 38 H 0.1837 -3.9835 -4.0849 0
M  V30 39 H -0.5917 0.1477 0.1478 0
M  V30 40 H 0.3147 -0.9405 -0.8782 0
M  V30 41 H 0.0229 -1.2613 2.1599 0
M  V30 42 H 0.9464 -2.3194 1.129 0
M  V30 43 H -3.3297 0.7935 3.2491 0
M  V30 44 H -2.4485 2.1068 2.3856 0
M  V30 45 H -3.5628 2.4877 3.7062 0
M  V30 46 H 3.0182 -1.5718 0.1435 0
M  V30 47 H 2.3942 -0.0656 -0.5392 0
M  V30 48 H 0.7922 0.964 2.6498 0
M  V30 49 H 1.0531 1.4691 0.9761 0
M  V30 50 H 4.582 -0.3795 1.5752 0
M  V30 51 H 4.781 0.1291 -0.1005 0
M  V30 52 H 2.5178 2.7223 2.4843 0
M  V30 53 H 3.1483 1.2368 3.1915 0
M  V30 54 H 3.502 2.1875 0.3044 0
M  V30 55 H 5.5389 1.7785 2.5641 0
M  V30 56 H 4.8981 3.3207 2.0547 0
M  V30 57 H 6.6193 1.4497 0.3461 0
M  V30 58 H 5.8722 2.9556 -0.2496 0
M  V30 59 H 8.0023 3.2392 0.4994 0
M  V30 END ATOM
M  V30 BEGIN BOND
M  V30 1 1 1 2
M  V30 2 1 1 3
M  V30 3 2 2 4
M  V30 4 1 2 5
M  V30 5 2 3 6
M  V30 6 1 3 7
M  V30 7 1 4 8
M  V30 8 1 4 9
M  V30 9 2 5 10
M  V30 10 1 6 11
M  V30 11 2 7 12
M  V30 12 1 8 13
M  V30 13 2 9 14
M  V30 14 2 11 15
M  V30 15 1 13 16
M  V30 16 1 14 17
M  V30 17 1 16 18
M  V30 18 2 17 19
M  V30 19 1 17 20
M  V30 20 1 18 21
M  V30 21 1 21 22
M  V30 22 1 21 23
M  V30 23 1 22 24
M  V30 24 1 23 25
M  V30 25 1 24 26
M  V30 26 1 26 27
M  V30 27 1 27 28
M  V30 28 1 28 29
M  V30 29 1 6 8
M  V30 30 1 10 14
M  V30 31 1 12 15
M  V30 32 1 25 26
M  V30 33 1 5 30
M  V30 34 1 7 31
M  V30 35 1 9 32
M  V30 36 1 10 33
M  V30 37 1 11 34
M  V30 38 1 12 35
M  V30 39 1 13 36
M  V30 40 1 13 37
M  V30 41 1 15 38
M  V30 42 1 16 39
M  V30 43 1 16 40
M  V30 44 1 18 41
M  V30 45 1 18 42
M  V30 46 1 20 43
M  V30 47 1 20 44
M  V30 48 1 20 45
M  V30 49 1 22 46
M  V30 50 1 22 47
M  V30 51 1 23 48
M  V30 52 1 23 49
M  V30 53 1 24 50
M  V30 54 1 24 51
M  V30 55 1 25 52
M  V30 56 1 25 53
M  V30 57 1 26 54
M  V30 58 1 27 55
M  V30 59 1 27 56
M  V30 60 1 28 57
M  V30 61 1 28 58
M  V30 62 1 29 59
M  V30 END BOND
M  V30 END CTAB
M  END
>  <NO.>
1218

>  <Name>
piperacetazine

>  <SMILES>
CC(=O)c1ccc2c(c1)N(CCCN1CCC(CCO)CC1)c1ccccc1S2

>  <logBB>


>  <Class>
1

>  <MW>
410.2

>  <nHBAcc>
5

>  <nHBDon>
1

>  <SLogP>
4.98

>  <TopoPSA>
43.78

>  <MMFF94 Energy>
88.398

$$$$
CC(=O)c1ccc2c(c1)N(CCCN1CCN(CCO)CC1)c1ccccc1S2
Actelion Java MolfileCreator 2.0

  0  0  0  0  0  0              0 V3000
M  V30 BEGIN CTAB
M  V30 COUNTS 58 61 0 0 0
M  V30 BEGIN ATOM
M  V30 1 S -2.9804 0.4023 -2.013 0
M  V30 2 C -2.4785 -1.3028 -1.9133 0
M  V30 3 C -3.4812 0.7342 -0.3357 0
M  V30 4 C -2.2515 -1.9654 -0.6916 0
M  V30 5 C -2.3017 -1.9734 -3.136 0
M  V30 6 C -3.1529 -0.1111 0.7428 0
M  V30 7 C -4.211 1.9174 -0.123 0
M  V30 8 N -2.3934 -1.2967 0.5514 0
M  V30 9 C -1.9222 -3.3348 -0.757 0
M  V30 10 C -1.9354 -3.318 -3.1721 0
M  V30 11 C -3.6303 0.2595 2.0173 0
M  V30 12 C -4.6491 2.2668 1.1507 0
M  V30 13 C -1.4538 -1.673 1.638 0
M  V30 14 C -1.7565 -4.0107 -1.9777 0
M  V30 15 C -4.3642 1.4326 2.2214 0
M  V30 16 C -0.3469 -0.6288 1.86 0
M  V30 17 C -1.3921 -5.4585 -1.9449 0
M  V30 18 C 0.5796 -0.4901 0.6459 0
M  V30 19 O -1.1235 -5.9974 -0.8732 0
M  V30 20 C -1.3524 -6.2312 -3.2372 0
M  V30 21 N 1.7605 0.3449 0.9318 0
M  V30 22 C 1.4025 1.772 1.0866 0
M  V30 23 C 2.7386 0.2269 -0.1706 0
M  V30 24 C 2.638 2.6868 1.2784 0
M  V30 25 C 3.9789 1.1204 0.0474 0
M  V30 26 N 3.6276 2.5492 0.1887 0
M  V30 27 C 4.8474 3.3427 0.4512 0
M  V30 28 C 4.6216 4.8642 0.47 0
M  V30 29 O 4.1854 5.3047 1.7538 0
M  V30 30 H -2.4592 -1.446 -4.0755 0
M  V30 31 H -4.4477 2.5737 -0.9579 0
M  V30 32 H -1.8271 -3.9174 0.1566 0
M  V30 33 H -1.8099 -3.7942 -4.1394 0
M  V30 34 H -3.4586 -0.3711 2.8838 0
M  V30 35 H -5.2174 3.1805 1.302 0
M  V30 36 H -0.956 -2.6311 1.4615 0
M  V30 37 H -2.0014 -1.833 2.5737 0
M  V30 38 H -4.7149 1.6859 3.2187 0
M  V30 39 H 0.2448 -0.9461 2.7284 0
M  V30 40 H -0.7861 0.339 2.1204 0
M  V30 41 H 0.9201 -1.4973 0.3731 0
M  V30 42 H 0.0313 -0.0926 -0.216 0
M  V30 43 H -2.3077 -6.1473 -3.7618 0
M  V30 44 H -0.5302 -5.8757 -3.8633 0
M  V30 45 H -1.1847 -7.2901 -3.017 0
M  V30 46 H 0.7626 1.9047 1.9656 0
M  V30 47 H 0.8357 2.1215 0.2129 0
M  V30 48 H 3.0802 -0.8126 -0.244 0
M  V30 49 H 2.2721 0.4865 -1.1308 0
M  V30 50 H 2.2677 3.7167 1.3179 0
M  V30 51 H 3.1 2.4606 2.2488 0
M  V30 52 H 4.6435 0.9934 -0.8157 0
M  V30 53 H 4.5234 0.7666 0.9336 0
M  V30 54 H 5.5539 3.1404 -0.3633 0
M  V30 55 H 5.3201 3.0256 1.3896 0
M  V30 56 H 5.5662 5.3744 0.2547 0
M  V30 57 H 3.8883 5.168 -0.2847 0
M  V30 58 H 3.9901 6.2535 1.6716 0
M  V30 END ATOM
M  V30 BEGIN BOND
M  V30 1 1 1 2
M  V30 2 1 1 3
M  V30 3 2 2 4
M  V30 4 1 2 5
M  V30 5 2 3 6
M  V30 6 1 3 7
M  V30 7 1 4 8
M  V30 8 1 4 9
M  V30 9 2 5 10
M  V30 10 1 6 11
M  V30 11 2 7 12
M  V30 12 1 8 13
M  V30 13 2 9 14
M  V30 14 2 11 15
M  V30 15 1 13 16
M  V30 16 1 14 17
M  V30 17 1 16 18
M  V30 18 2 17 19
M  V30 19 1 17 20
M  V30 20 1 18 21
M  V30 21 1 21 22
M  V30 22 1 21 23
M  V30 23 1 22 24
M  V30 24 1 23 25
M  V30 25 1 24 26
M  V30 26 1 26 27
M  V30 27 1 27 28
M  V30 28 1 28 29
M  V30 29 1 6 8
M  V30 30 1 10 14
M  V30 31 1 12 15
M  V30 32 1 25 26
M  V30 33 1 5 30
M  V30 34 1 7 31
M  V30 35 1 9 32
M  V30 36 1 10 33
M  V30 37 1 11 34
M  V30 38 1 12 35
M  V30 39 1 13 36
M  V30 40 1 13 37
M  V30 41 1 15 38
M  V30 42 1 16 39
M  V30 43 1 16 40
M  V30 44 1 18 41
M  V30 45 1 18 42
M  V30 46 1 20 43
M  V30 47 1 20 44
M  V30 48 1 20 45
M  V30 49 1 22 46
M  V30 50 1 22 47
M  V30 51 1 23 48
M  V30 52 1 23 49
M  V30 53 1 24 50
M  V30 54 1 24 51
M  V30 55 1 25 52
M  V30 56 1 25 53
M  V30 57 1 27 54
M  V30 58 1 27 55
M  V30 59 1 28 56
M  V30 60 1 28 57
M  V30 61 1 29 58
M  V30 END BOND
M  V30 END CTAB
M  END
>  <NO.>
1219

>  <Name>
acetophenazine

>  <SMILES>
CC(=O)c1ccc2c(c1)N(CCCN1CCN(CCO)CC1)c1ccccc1S2

>  <logBB>


>  <Class>
1

>  <MW>
411.2

>  <nHBAcc>
6

>  <nHBDon>
1

>  <SLogP>
3.49

>  <TopoPSA>
47.02

>  <MMFF94 Energy>
167.45

$$$$
CC(C(=O)c1ccccc1)N(C)C
Actelion Java MolfileCreator 2.0

  0  0  0  0  0  0              0 V3000
M  V30 BEGIN CTAB
M  V30 COUNTS 28 28 0 0 0
M  V30 BEGIN ATOM
M  V30 1 O -2.3459 0.0 -0.2344 0
M  V30 2 C -1.1564 0.1813 0.0375 0
M  V30 3 C -0.6243 -0.3755 1.3241 0
M  V30 4 C -0.2197 0.9757 -0.8979 0 CFG=1
M  V30 5 C -1.5393 -0.9253 2.2353 0
M  V30 6 C 0.7364 -0.3665 1.6529 0
M  V30 7 N 0.7126 0.0478 -1.5858 0
M  V30 8 C -1.0443 1.8841 -1.8212 0
M  V30 9 C -1.1026 -1.4492 3.454 0
M  V30 10 C 1.1713 -0.8926 2.8734 0
M  V30 11 C 1.8058 0.7573 -2.2489 0
M  V30 12 C 0.0514 -0.8579 -2.5278 0
M  V30 13 C 0.2529 -1.431 3.7727 0
M  V30 14 H 0.3579 1.6469 -0.2481 0
M  V30 15 H -2.6019 -0.9481 1.9994 0
M  V30 16 H 1.4838 0.0283 0.9716 0
M  V30 17 H -0.4038 2.5219 -2.4376 0
M  V30 18 H -1.7047 1.3147 -2.4833 0
M  V30 19 H -1.6852 2.545 -1.2258 0
M  V30 20 H -1.8218 -1.8723 4.1508 0
M  V30 21 H 2.2307 -0.887 3.1186 0
M  V30 22 H 1.4664 1.3586 -3.0988 0
M  V30 23 H 2.5528 0.0447 -2.6164 0
M  V30 24 H 2.3259 1.4149 -1.5436 0
M  V30 25 H -0.7408 -1.4362 -2.0422 0
M  V30 26 H 0.771 -1.5913 -2.9096 0
M  V30 27 H -0.3766 -0.333 -3.3884 0
M  V30 28 H 0.5944 -1.8413 4.7198 0
M  V30 END ATOM
M  V30 BEGIN BOND
M  V30 1 2 1 2
M  V30 2 1 2 3
M  V30 3 1 2 4
M  V30 4 2 3 5
M  V30 5 1 3 6
M  V30 6 1 4 7
M  V30 7 1 4 8
M  V30 8 1 5 9
M  V30 9 2 6 10
M  V30 10 1 7 11
M  V30 11 1 7 12
M  V30 12 2 9 13
M  V30 13 1 10 13
M  V30 14 1 4 14
M  V30 15 1 5 15
M  V30 16 1 6 16
M  V30 17 1 8 17
M  V30 18 1 8 18
M  V30 19 1 8 19
M  V30 20 1 9 20
M  V30 21 1 10 21
M  V30 22 1 11 22
M  V30 23 1 11 23
M  V30 24 1 11 24
M  V30 25 1 12 25
M  V30 26 1 12 26
M  V30 27 1 12 27
M  V30 28 1 13 28
M  V30 END BOND
M  V30 BEGIN COLLECTION
M  V30 MDLV30/STERAC1 ATOMS=(1 4)
M  V30 END COLLECTION
M  V30 END CTAB
M  END
>  <NO.>
1220

>  <Name>
metamfepramone

>  <SMILES>
CC(C(=O)c1ccccc1)N(C)C

>  <logBB>


>  <Class>
1

>  <MW>
177.12

>  <nHBAcc>
2

>  <nHBDon>
0

>  <SLogP>
1.82

>  <TopoPSA>
20.31

>  <MMFF94 Energy>
75.343

$$$$
CC(C)(C)C(=O)NCCCC(=O)O
Actelion Java MolfileCreator 2.0

  0  0  0  0  0  0              0 V3000
M  V30 BEGIN CTAB
M  V30 COUNTS 30 29 0 0 0
M  V30 BEGIN ATOM
M  V30 1 O 0.3853 -0.925 -1.6192 0
M  V30 2 C -0.2913 0.0108 -1.2003 0
M  V30 3 N -0.9279 -0.0377 0.0223 0
M  V30 4 C -0.487 1.3197 -1.9897 0
M  V30 5 C -0.8357 -1.1959 0.8866 0
M  V30 6 C 0.2703 1.2284 -3.3258 0
M  V30 7 C -1.9787 1.5381 -2.2829 0
M  V30 8 C 0.0722 2.5032 -1.1861 0
M  V30 9 C 0.4236 -1.151 1.7452 0
M  V30 10 C 0.5043 -2.3625 2.6661 0
M  V30 11 C 1.7631 -2.356 3.4845 0
M  V30 12 O 2.6006 -3.2411 3.5245 0
M  V30 13 O 1.8866 -1.2606 4.257 0
M  V30 14 H -1.4673 0.7555 0.3405 0
M  V30 15 H -0.8526 -2.1031 0.2727 0
M  V30 16 H -1.7305 -1.1961 1.5181 0
M  V30 17 H -0.0953 0.3923 -3.9331 0
M  V30 18 H 0.1522 2.1451 -3.9145 0
M  V30 19 H 1.3431 1.0715 -3.1643 0
M  V30 20 H -2.4088 0.6703 -2.7959 0
M  V30 21 H -2.5582 1.6936 -1.3665 0
M  V30 22 H -2.1324 2.4169 -2.9193 0
M  V30 23 H 1.1187 2.3303 -0.9099 0
M  V30 24 H -0.4852 2.6683 -0.2578 0
M  V30 25 H 0.0249 3.4324 -1.7651 0
M  V30 26 H 0.4305 -0.2248 2.3337 0
M  V30 27 H 1.3158 -1.1108 1.1077 0
M  V30 28 H -0.3511 -2.4037 3.3493 0
M  V30 29 H 0.4944 -3.2845 2.0732 0
M  V30 30 H 2.7309 -1.4049 4.7342 0
M  V30 END ATOM
M  V30 BEGIN BOND
M  V30 1 2 1 2
M  V30 2 1 2 3
M  V30 3 1 2 4
M  V30 4 1 3 5
M  V30 5 1 4 6
M  V30 6 1 4 7
M  V30 7 1 4 8
M  V30 8 1 5 9
M  V30 9 1 9 10
M  V30 10 1 10 11
M  V30 11 2 11 12
M  V30 12 1 11 13
M  V30 13 1 3 14
M  V30 14 1 5 15
M  V30 15 1 5 16
M  V30 16 1 6 17
M  V30 17 1 6 18
M  V30 18 1 6 19
M  V30 19 1 7 20
M  V30 20 1 7 21
M  V30 21 1 7 22
M  V30 22 1 8 23
M  V30 23 1 8 24
M  V30 24 1 8 25
M  V30 25 1 9 26
M  V30 26 1 9 27
M  V30 27 1 10 28
M  V30 28 1 10 29
M  V30 29 1 13 30
M  V30 END BOND
M  V30 END CTAB
M  END
>  <NO.>
1222

>  <Name>
pivagabine

>  <SMILES>
CC(C)(C)C(=O)NCCCC(=O)O

>  <logBB>


>  <Class>
1

>  <MW>
187.12

>  <nHBAcc>
2

>  <nHBDon>
2

>  <SLogP>
1.01

>  <TopoPSA>
66.4

>  <MMFF94 Energy>
-42.175

$$$$
CC(C)(C)C(=O)OC1N=C(c2ccccc2)c2cc(Cl)ccc2NC1=O
Actelion Java MolfileCreator 2.0

  0  0  0  0  0  0              0 V3000
M  V30 BEGIN CTAB
M  V30 COUNTS 45 47 0 0 0
M  V30 BEGIN ATOM
M  V30 1 Cl -1.6134 2.8247 -5.1698 0
M  V30 2 C -0.9681 2.834 -3.5759 0
M  V30 3 C -0.423 1.6683 -3.0432 0
M  V30 4 C -0.9839 4.0103 -2.8313 0
M  V30 5 C 0.1166 1.6756 -1.7471 0
M  V30 6 C -0.4688 4.0171 -1.5332 0
M  V30 7 C 0.7744 0.4344 -1.242 0
M  V30 8 C 0.0607 2.8474 -0.9749 0
M  V30 9 N 0.6137 -0.0528 -0.0584 0
M  V30 10 C 1.6956 -0.3079 -2.1597 0
M  V30 11 N 0.518 2.9297 0.3464 0
M  V30 12 C -0.2727 0.62 0.8961 0 CFG=2
M  V30 13 C 1.7033 -1.7074 -2.1243 0
M  V30 14 C 2.5628 0.3713 -3.0247 0
M  V30 15 C 0.4053 1.9522 1.31 0
M  V30 16 O -0.4971 -0.1312 2.0944 0
M  V30 17 C 2.5523 -2.4234 -2.9693 0
M  V30 18 C 3.4105 -0.3498 -3.868 0
M  V30 19 O 0.792 2.2116 2.4521 0
M  V30 20 C -1.558 -0.9756 2.0606 0
M  V30 21 C 3.4017 -1.7446 -3.8426 0
M  V30 22 O -2.3506 -1.0677 1.1313 0
M  V30 23 C -1.6416 -1.7904 3.3548 0
M  V30 24 C -2.8418 -2.748 3.2823 0
M  V30 25 C -0.3572 -2.6129 3.5253 0
M  V30 26 C -1.831 -0.8404 4.5449 0
M  V30 27 H -0.4181 0.759 -3.6404 0
M  V30 28 H -1.4057 4.9214 -3.2495 0
M  V30 29 H -0.5101 4.9391 -0.9566 0
M  V30 30 H 0.8797 3.8079 0.6985 0
M  V30 31 H -1.239 0.8775 0.442 0
M  V30 32 H 1.0481 -2.2426 -1.4401 0
M  V30 33 H 2.604 1.4567 -3.0419 0
M  V30 34 H 2.5541 -3.5101 -2.9412 0
M  V30 35 H 4.0854 0.1752 -4.5396 0
M  V30 36 H 4.0655 -2.3042 -4.4972 0
M  V30 37 H -2.7486 -3.4381 2.4357 0
M  V30 38 H -2.9279 -3.3481 4.1951 0
M  V30 39 H -3.7816 -2.1983 3.1539 0
M  V30 40 H -0.1814 -3.2533 2.6533 0
M  V30 41 H 0.5227 -1.9695 3.6377 0
M  V30 42 H -0.4119 -3.2549 4.4116 0
M  V30 43 H -2.7172 -0.2098 4.4081 0
M  V30 44 H -0.9725 -0.1703 4.6674 0
M  V30 45 H -1.9524 -1.3965 5.4812 0
M  V30 END ATOM
M  V30 BEGIN BOND
M  V30 1 1 1 2
M  V30 2 2 2 3
M  V30 3 1 2 4
M  V30 4 1 3 5
M  V30 5 2 4 6
M  V30 6 1 5 7
M  V30 7 2 5 8
M  V30 8 2 7 9
M  V30 9 1 7 10
M  V30 10 1 8 11
M  V30 11 1 9 12
M  V30 12 2 10 13
M  V30 13 1 10 14
M  V30 14 1 11 15
M  V30 15 1 12 16
M  V30 16 1 13 17
M  V30 17 2 14 18
M  V30 18 2 15 19
M  V30 19 1 16 20
M  V30 20 2 17 21
M  V30 21 2 20 22
M  V30 22 1 20 23
M  V30 23 1 23 24
M  V30 24 1 23 25
M  V30 25 1 23 26
M  V30 26 1 6 8
M  V30 27 1 12 15
M  V30 28 1 18 21
M  V30 29 1 3 27
M  V30 30 1 4 28
M  V30 31 1 6 29
M  V30 32 1 11 30
M  V30 33 1 12 31
M  V30 34 1 13 32
M  V30 35 1 14 33
M  V30 36 1 17 34
M  V30 37 1 18 35
M  V30 38 1 21 36
M  V30 39 1 24 37
M  V30 40 1 24 38
M  V30 41 1 24 39
M  V30 42 1 25 40
M  V30 43 1 25 41
M  V30 44 1 25 42
M  V30 45 1 26 43
M  V30 46 1 26 44
M  V30 47 1 26 45
M  V30 END BOND
M  V30 BEGIN COLLECTION
M  V30 MDLV30/STERAC1 ATOMS=(1 12)
M  V30 END COLLECTION
M  V30 END CTAB
M  END
>  <NO.>
1223

>  <Name>
pivoxazepam

>  <SMILES>
CC(C)(C)C(=O)OC1N=C(c2ccccc2)c2cc(Cl)ccc2NC1=O

>  <logBB>


>  <Class>
1

>  <MW>
370.11

>  <nHBAcc>
4

>  <nHBDon>
1

>  <SLogP>
4.04

>  <TopoPSA>
67.76

>  <MMFF94 Energy>
99.416

$$$$
CC(C)(C)C(=O)OCOC(=O)C1N2C(=O)[C@@H](N=CN3CCCCCC3)[C@H]2SC1(C)C
Actelion Java MolfileCreator 2.0

  0  0  0  0  0  0              0 V3000
M  V30 BEGIN CTAB
M  V30 COUNTS 63 65 0 0 0
M  V30 BEGIN ATOM
M  V30 1 S -0.4015 -0.1605 -0.9638 0
M  V30 2 C -1.9167 -1.202 -0.68 0
M  V30 3 C -0.4911 0.6816 0.6672 0 CFG=1
M  V30 4 C -2.6884 -0.5383 0.491 0
M  V30 5 C -2.6768 -1.2943 -2.0081 0
M  V30 6 C -1.4455 -2.6162 -0.2952 0
M  V30 7 N -1.6688 0.0972 1.3081 0
M  V30 8 C 0.3555 0.1449 1.858 0 CFG=1
M  V30 9 C -3.756 0.4699 0.0401 0
M  V30 10 C -0.9937 -0.4891 2.3273 0
M  V30 11 N 1.4055 -0.8113 1.4752 0
M  V30 12 O -4.7783 0.1517 -0.5571 0
M  V30 13 O -3.4166 1.7483 0.349 0
M  V30 14 O -1.3689 -1.2755 3.1659 0
M  V30 15 C 1.8384 -1.5338 2.453 0
M  V30 16 C -4.2509 2.7597 -0.2127 0
M  V30 17 N 2.803 -2.5081 2.3641 0
M  V30 18 O -3.9067 3.0361 -1.5718 0
M  V30 19 C 3.2195 -3.2512 3.5476 0
M  V30 20 C 3.3864 -2.8514 1.0709 0
M  V30 21 C -2.7347 3.7097 -1.7332 0
M  V30 22 C 4.6822 -3.694 3.537 0
M  V30 23 C 4.6442 -2.0211 0.8284 0
M  V30 24 O -2.0318 4.1074 -0.8129 0
M  V30 25 C -2.4206 3.909 -3.2183 0
M  V30 26 C 5.6677 -2.5981 3.1288 0
M  V30 27 C 5.8639 -2.5006 1.6148 0
M  V30 28 C -1.06 4.6087 -3.3643 0
M  V30 29 C -2.3561 2.5462 -3.9209 0
M  V30 30 C -3.5075 4.7866 -3.852 0
M  V30 31 H -0.5428 1.7729 0.6034 0
M  V30 32 H -3.2041 -1.2867 1.1053 0
M  V30 33 H -2.9451 -0.3098 -2.407 0
M  V30 34 H -3.5996 -1.873 -1.8869 0
M  V30 35 H -2.0818 -1.8008 -2.7779 0
M  V30 36 H -0.8325 -2.6289 0.6109 0
M  V30 37 H -0.8567 -3.0786 -1.0964 0
M  V30 38 H -2.3077 -3.2679 -0.1104 0
M  V30 39 H 0.7199 0.9322 2.5286 0
M  V30 40 H 1.447 -1.413 3.4807 0
M  V30 41 H -5.3085 2.4738 -0.1731 0
M  V30 42 H -4.1598 3.666 0.3982 0
M  V30 43 H 3.0657 -2.6318 4.4408 0
M  V30 44 H 2.5753 -4.1306 3.6638 0
M  V30 45 H 3.6032 -3.9242 1.0079 0
M  V30 46 H 2.6665 -2.6555 0.2666 0
M  V30 47 H 4.9316 -4.0287 4.5522 0
M  V30 48 H 4.8092 -4.5743 2.8954 0
M  V30 49 H 4.4547 -0.9656 1.0603 0
M  V30 50 H 4.8929 -2.0669 -0.2388 0
M  V30 51 H 5.3683 -1.6282 3.5431 0
M  V30 52 H 6.643 -2.8391 3.5702 0
M  V30 53 H 6.6928 -1.8103 1.4151 0
M  V30 54 H 6.1803 -3.4774 1.2277 0
M  V30 55 H -0.2584 4.0163 -2.908 0
M  V30 56 H -0.8034 4.764 -4.4182 0
M  V30 57 H -1.0619 5.5888 -2.8731 0
M  V30 58 H -1.618 1.8923 -3.4434 0
M  V30 59 H -3.3204 2.0268 -3.8867 0
M  V30 60 H -2.0782 2.6564 -4.9749 0
M  V30 61 H -3.5955 5.7451 -3.3274 0
M  V30 62 H -4.4903 4.3036 -3.8109 0
M  V30 63 H -3.2851 4.9959 -4.9042 0
M  V30 END ATOM
M  V30 BEGIN BOND
M  V30 1 1 1 2
M  V30 2 1 1 3
M  V30 3 1 2 4
M  V30 4 1 2 5
M  V30 5 1 2 6
M  V30 6 1 3 7
M  V30 7 1 3 8
M  V30 8 1 4 9
M  V30 9 1 7 10
M  V30 10 1 8 11
M  V30 11 2 9 12
M  V30 12 1 9 13
M  V30 13 2 10 14
M  V30 14 2 11 15
M  V30 15 1 13 16
M  V30 16 1 15 17
M  V30 17 1 16 18
M  V30 18 1 17 19
M  V30 19 1 17 20
M  V30 20 1 18 21
M  V30 21 1 19 22
M  V30 22 1 20 23
M  V30 23 2 21 24
M  V30 24 1 21 25
M  V30 25 1 22 26
M  V30 26 1 23 27
M  V30 27 1 25 28
M  V30 28 1 25 29
M  V30 29 1 25 30
M  V30 30 1 4 7
M  V30 31 1 8 10
M  V30 32 1 26 27
M  V30 33 1 3 31
M  V30 34 1 4 32
M  V30 35 1 5 33
M  V30 36 1 5 34
M  V30 37 1 5 35
M  V30 38 1 6 36
M  V30 39 1 6 37
M  V30 40 1 6 38
M  V30 41 1 8 39
M  V30 42 1 15 40
M  V30 43 1 16 41
M  V30 44 1 16 42
M  V30 45 1 19 43
M  V30 46 1 19 44
M  V30 47 1 20 45
M  V30 48 1 20 46
M  V30 49 1 22 47
M  V30 50 1 22 48
M  V30 51 1 23 49
M  V30 52 1 23 50
M  V30 53 1 26 51
M  V30 54 1 26 52
M  V30 55 1 27 53
M  V30 56 1 27 54
M  V30 57 1 28 55
M  V30 58 1 28 56
M  V30 59 1 28 57
M  V30 60 1 29 58
M  V30 61 1 29 59
M  V30 62 1 29 60
M  V30 63 1 30 61
M  V30 64 1 30 62
M  V30 65 1 30 63
M  V30 END BOND
M  V30 BEGIN COLLECTION
M  V30 MDLV30/STEABS ATOMS=(2 3 8)
M  V30 END COLLECTION
M  V30 END CTAB
M  END
>  <NO.>
1224

>  <Name>
amdinocillinpivoxil

>  <SMILES>
CC(C)(C)C(=O)OCOC(=O)C1N2C(=O)[C@@H](N=CN3CCCCCC3)[C@H]2SC1(C)C

>  <logBB>


>  <Class>
-1

>  <MW>
439.21

>  <nHBAcc>
7

>  <nHBDon>
0

>  <SLogP>
2.41

>  <TopoPSA>
88.51

>  <MMFF94 Energy>
26.149

$$$$
CC(C)(C)C(=O)OCOC(=O)[C@@H]1N2C(=O)[C@@H](NC(=O)[C@H](N)c3ccccc3)[C@H]2SC1(C)C
Actelion Java MolfileCreator 2.0

  0  0  0  0  0  0              0 V3000
M  V30 BEGIN CTAB
M  V30 COUNTS 61 63 0 0 0
M  V30 BEGIN ATOM
M  V30 1 S 0.5635 1.2079 0.322 0
M  V30 2 C -0.6134 -0.2243 0.4739 0
M  V30 3 C -0.7522 2.4958 0.3298 0 CFG=1
M  V30 4 C -2.0345 0.3387 0.2446 0 CFG=1
M  V30 5 C -0.1824 -1.3083 -0.519 0
M  V30 6 C -0.47 -0.7769 1.9024 0
M  V30 7 N -1.9754 1.7421 0.6037 0
M  V30 8 C -1.0143 3.2709 1.6539 0 CFG=1
M  V30 9 C -2.5256 0.2278 -1.1999 0
M  V30 10 C -2.1669 2.25 1.8453 0
M  V30 11 N 0.0375 3.2433 2.7029 0
M  V30 12 O -2.3006 1.0381 -2.0895 0
M  V30 13 O -3.2244 -0.9292 -1.3562 0
M  V30 14 O -2.8786 1.8842 2.751 0
M  V30 15 C 1.2096 3.9571 2.5578 0
M  V30 16 C -3.71 -1.1662 -2.679 0
M  V30 17 O 1.4308 4.6485 1.5629 0
M  V30 18 C 2.215 3.7915 3.7288 0 CFG=2
M  V30 19 O -2.7096 -1.7229 -3.5339 0
M  V30 20 N 3.0685 4.9879 3.8313 0
M  V30 21 C 3.0491 2.5321 3.5842 0
M  V30 22 C -2.5005 -3.0577 -3.379 0
M  V30 23 C 3.6975 2.214 2.3801 0
M  V30 24 C 3.2095 1.6704 4.6816 0
M  V30 25 O -3.0761 -3.7568 -2.5556 0
M  V30 26 C -1.4459 -3.5648 -4.3671 0
M  V30 27 C 4.4623 1.0516 2.2696 0
M  V30 28 C 3.9776 0.51 4.5692 0
M  V30 29 C -1.3023 -5.0886 -4.2255 0
M  V30 30 C -1.8828 -3.2386 -5.8019 0
M  V30 31 C -0.0974 -2.9038 -4.0565 0
M  V30 32 C 4.6005 0.1995 3.3626 0
M  V30 33 H -0.812 3.0968 -0.582 0
M  V30 34 H -2.7713 -0.1474 0.8963 0
M  V30 35 H 0.8203 -1.689 -0.2904 0
M  V30 36 H -0.866 -2.1642 -0.4808 0
M  V30 37 H -0.1622 -0.9416 -1.5511 0
M  V30 38 H 0.546 -1.141 2.0963 0
M  V30 39 H -1.151 -1.6224 2.0554 0
M  V30 40 H -0.7048 -0.0295 2.6677 0
M  V30 41 H -1.3938 4.2898 1.5063 0
M  V30 42 H -0.0812 2.6577 3.5225 0
M  V30 43 H -4.5808 -1.8297 -2.6123 0
M  V30 44 H -4.0778 -0.2402 -3.1372 0
M  V30 45 H 1.6261 3.734 4.6528 0
M  V30 46 H 3.9121 4.7475 4.3486 0
M  V30 47 H 3.3733 5.2273 2.8848 0
M  V30 48 H 3.6046 2.8648 1.5115 0
M  V30 49 H 2.7395 1.8982 5.6364 0
M  V30 50 H 4.9487 0.8124 1.3272 0
M  V30 51 H 4.0928 -0.1508 5.4245 0
M  V30 52 H -2.252 -5.5972 -4.4283 0
M  V30 53 H -0.5549 -5.4844 -4.9222 0
M  V30 54 H -0.9932 -5.3666 -3.2111 0
M  V30 55 H -2.8757 -3.6515 -6.0144 0
M  V30 56 H -1.9375 -2.1574 -5.9721 0
M  V30 57 H -1.1804 -3.652 -6.5342 0
M  V30 58 H 0.2164 -3.1156 -3.0282 0
M  V30 59 H -0.1476 -1.8143 -4.1635 0
M  V30 60 H 0.6869 -3.2675 -4.7294 0
M  V30 61 H 5.1976 -0.7042 3.2744 0
M  V30 END ATOM
M  V30 BEGIN BOND
M  V30 1 1 1 2
M  V30 2 1 1 3
M  V30 3 1 2 4
M  V30 4 1 2 5
M  V30 5 1 2 6
M  V30 6 1 3 7
M  V30 7 1 3 8
M  V30 8 1 4 9
M  V30 9 1 7 10
M  V30 10 1 8 11
M  V30 11 2 9 12
M  V30 12 1 9 13
M  V30 13 2 10 14
M  V30 14 1 11 15
M  V30 15 1 13 16
M  V30 16 2 15 17
M  V30 17 1 15 18
M  V30 18 1 16 19
M  V30 19 1 18 20
M  V30 20 1 18 21
M  V30 21 1 19 22
M  V30 22 2 21 23
M  V30 23 1 21 24
M  V30 24 2 22 25
M  V30 25 1 22 26
M  V30 26 1 23 27
M  V30 27 2 24 28
M  V30 28 1 26 29
M  V30 29 1 26 30
M  V30 30 1 26 31
M  V30 31 2 27 32
M  V30 32 1 4 7
M  V30 33 1 8 10
M  V30 34 1 28 32
M  V30 35 1 3 33
M  V30 36 1 4 34
M  V30 37 1 5 35
M  V30 38 1 5 36
M  V30 39 1 5 37
M  V30 40 1 6 38
M  V30 41 1 6 39
M  V30 42 1 6 40
M  V30 43 1 8 41
M  V30 44 1 11 42
M  V30 45 1 16 43
M  V30 46 1 16 44
M  V30 47 1 18 45
M  V30 48 1 20 46
M  V30 49 1 20 47
M  V30 50 1 23 48
M  V30 51 1 24 49
M  V30 52 1 27 50
M  V30 53 1 28 51
M  V30 54 1 29 52
M  V30 55 1 29 53
M  V30 56 1 29 54
M  V30 57 1 30 55
M  V30 58 1 30 56
M  V30 59 1 30 57
M  V30 60 1 31 58
M  V30 61 1 31 59
M  V30 62 1 31 60
M  V30 63 1 32 61
M  V30 END BOND
M  V30 BEGIN COLLECTION
M  V30 MDLV30/STEABS ATOMS=(4 3 4 8 18)
M  V30 END COLLECTION
M  V30 END CTAB
M  END
>  <NO.>
1225

>  <Name>
pivampicillin

>  <SMILES>
CC(C)(C)C(=O)OCOC(=O)[C@@H]1N2C(=O)[C@@H](NC(=O)[C@H](N)c3ccccc3)[C@H]2SC1(C)C

>  <logBB>


>  <Class>
-1

>  <MW>
463.18

>  <nHBAcc>
8

>  <nHBDon>
2

>  <SLogP>
1.32

>  <TopoPSA>
128.03

>  <MMFF94 Energy>
78.722

$$$$
CC(C)(C)C(=O)SCC(=O)[C@@]1(O)CC[C@H]2[C@@H]3CCC4=CC(=O)CC[C@]4(C)[C@H]3[C@@H](O)C[C@@]21C
Actelion Java MolfileCreator 2.0

  0  0  0  0  0  0              0 V3000
M  V30 BEGIN CTAB
M  V30 COUNTS 70 73 0 0 0
M  V30 BEGIN ATOM
M  V30 1 S 2.8326 4.4539 -0.1617 0
M  V30 2 C 3.6053 2.8921 0.1459 0
M  V30 3 C 1.1073 3.8899 -0.2417 0
M  V30 4 O 3.0058 2.0431 0.7987 0
M  V30 5 C 5.0324 2.6982 -0.3975 0
M  V30 6 C 0.8455 2.9613 -1.4227 0
M  V30 7 C 5.0654 2.8413 -1.9262 0
M  V30 8 C 5.9975 3.6999 0.2537 0
M  V30 9 C 5.5022 1.2735 -0.0411 0
M  V30 10 O 1.6309 2.8557 -2.3685 0
M  V30 11 C -0.4883 2.174 -1.3906 0 CFG=2
M  V30 12 O -1.4844 2.9695 -0.7329 0
M  V30 13 C -0.3832 0.7729 -0.7079 0 CFG=2
M  V30 14 C -1.0261 1.8288 -2.81 0
M  V30 15 C -1.7061 0.1427 -1.2025 0 CFG=1
M  V30 16 C -0.4274 0.7677 0.8336 0
M  V30 17 C 0.8708 0.0188 -1.2303 0
M  V30 18 C -1.7097 0.4499 -2.6971 0
M  V30 19 C -1.9079 -1.311 -0.7472 0 CFG=1
M  V30 20 C -0.6743 -0.6326 1.4333 0 CFG=1
M  V30 21 C -1.9088 -1.3568 0.8154 0 CFG=2
M  V30 22 C -3.2326 -1.865 -1.2964 0
M  V30 23 O 0.5017 -1.418 1.3032 0
M  V30 24 C -2.2055 -2.8017 1.3874 0 CFG=2
M  V30 25 C -3.505 -3.2771 -0.7998 0
M  V30 26 C -3.4651 -3.3609 0.7067 0
M  V30 27 C -2.4439 -2.675 2.9218 0
M  V30 28 C -1.0665 -3.8162 1.1393 0
M  V30 29 C -4.4822 -3.938 1.3714 0
M  V30 30 C -3.1227 -3.8889 3.5389 0
M  V30 31 C -4.4213 -4.1738 2.8322 0
M  V30 32 O -5.3932 -4.6565 3.4083 0
M  V30 33 H 0.4724 4.773 -0.3626 0
M  V30 34 H 0.8398 3.4008 0.697 0
M  V30 35 H 6.0594 2.6056 -2.3233 0
M  V30 36 H 4.8216 3.8588 -2.2499 0
M  V30 37 H 4.3463 2.1641 -2.4005 0
M  V30 38 H 5.9272 3.6612 1.347 0
M  V30 39 H 7.036 3.4873 -0.0246 0
M  V30 40 H 5.7856 4.7303 -0.0512 0
M  V30 41 H 5.51 1.117 1.0439 0
M  V30 42 H 6.5156 1.0827 -0.4119 0
M  V30 43 H 4.8393 0.5165 -0.4768 0
M  V30 44 H -1.782 3.6624 -1.3499 0
M  V30 45 H -0.2332 1.7707 -3.5633 0
M  V30 46 H -1.7495 2.5727 -3.163 0
M  V30 47 H -2.5471 0.7132 -0.7747 0
M  V30 48 H 0.5099 1.1721 1.2295 0
M  V30 49 H -1.2297 1.4261 1.1892 0
M  V30 50 H 1.7802 0.4034 -0.7596 0
M  V30 51 H 0.8415 -1.0544 -1.0354 0
M  V30 52 H 1.0054 0.1226 -2.3116 0
M  V30 53 H -1.1486 -0.3019 -3.2633 0
M  V30 54 H -2.7254 0.4802 -3.105 0
M  V30 55 H -1.0989 -1.9368 -1.137 0
M  V30 56 H -0.8401 -0.5011 2.5085 0
M  V30 57 H -2.7701 -0.7359 1.1159 0
M  V30 58 H -4.064 -1.2091 -1.0057 0
M  V30 59 H -3.2092 -1.878 -2.3923 0
M  V30 60 H 1.2486 -0.901 1.6566 0
M  V30 61 H -2.7577 -3.9636 -1.2162 0
M  V30 62 H -4.4757 -3.6069 -1.1901 0
M  V30 63 H -3.0755 -1.7979 3.1225 0
M  V30 64 H -1.4967 -2.4999 3.4462 0
M  V30 65 H -0.2221 -3.6577 1.8172 0
M  V30 66 H -1.4025 -4.8469 1.3075 0
M  V30 67 H -0.686 -3.7703 0.1143 0
M  V30 68 H -5.3687 -4.3198 0.8772 0
M  V30 69 H -3.3383 -3.6833 4.5933 0
M  V30 70 H -2.4893 -4.7799 3.4869 0
M  V30 END ATOM
M  V30 BEGIN BOND
M  V30 1 1 1 2
M  V30 2 1 1 3
M  V30 3 2 2 4
M  V30 4 1 2 5
M  V30 5 1 3 6
M  V30 6 1 5 7
M  V30 7 1 5 8
M  V30 8 1 5 9
M  V30 9 2 6 10
M  V30 10 1 6 11
M  V30 11 1 11 12
M  V30 12 1 11 13
M  V30 13 1 11 14
M  V30 14 1 13 15
M  V30 15 1 13 16
M  V30 16 1 13 17
M  V30 17 1 14 18
M  V30 18 1 15 19
M  V30 19 1 16 20
M  V30 20 1 19 21
M  V30 21 1 19 22
M  V30 22 1 20 23
M  V30 23 1 21 24
M  V30 24 1 22 25
M  V30 25 1 24 26
M  V30 26 1 24 27
M  V30 27 1 24 28
M  V30 28 2 26 29
M  V30 29 1 27 30
M  V30 30 1 29 31
M  V30 31 2 31 32
M  V30 32 1 15 18
M  V30 33 1 20 21
M  V30 34 1 25 26
M  V30 35 1 30 31
M  V30 36 1 3 33
M  V30 37 1 3 34
M  V30 38 1 7 35
M  V30 39 1 7 36
M  V30 40 1 7 37
M  V30 41 1 8 38
M  V30 42 1 8 39
M  V30 43 1 8 40
M  V30 44 1 9 41
M  V30 45 1 9 42
M  V30 46 1 9 43
M  V30 47 1 12 44
M  V30 48 1 14 45
M  V30 49 1 14 46
M  V30 50 1 15 47
M  V30 51 1 16 48
M  V30 52 1 16 49
M  V30 53 1 17 50
M  V30 54 1 17 51
M  V30 55 1 17 52
M  V30 56 1 18 53
M  V30 57 1 18 54
M  V30 58 1 19 55
M  V30 59 1 20 56
M  V30 60 1 21 57
M  V30 61 1 22 58
M  V30 62 1 22 59
M  V30 63 1 23 60
M  V30 64 1 25 61
M  V30 65 1 25 62
M  V30 66 1 27 63
M  V30 67 1 27 64
M  V30 68 1 28 65
M  V30 69 1 28 66
M  V30 70 1 28 67
M  V30 71 1 29 68
M  V30 72 1 30 69
M  V30 73 1 30 70
M  V30 END BOND
M  V30 BEGIN COLLECTION
M  V30 MDLV30/STEABS ATOMS=(7 11 13 15 19 20 21 24)
M  V30 END COLLECTION
M  V30 END CTAB
M  END
>  <NO.>
1226

>  <Name>
tixocortol-pivalate

>  <SMILES>
CC(C)(C)C(=O)SCC(=O)[C@@]1(O)CC[C@H]2[C@@H]3CCC4=CC(=O)CC[C@]4(C)[C@H]3[C@@H](O)C[C@@]21C

>  <logBB>


>  <Class>
1

>  <MW>
462.24

>  <nHBAcc>
6

>  <nHBDon>
2

>  <SLogP>
4.1

>  <TopoPSA>
91.67

>  <MMFF94 Energy>
116.33

$$$$
CC(C)(C)C(O)/C=C/c1ccc2c(c1)OCO2
Actelion Java MolfileCreator 2.0

  0  0  0  0  0  0              0 V3000
M  V30 BEGIN CTAB
M  V30 COUNTS 35 36 0 0 0
M  V30 BEGIN ATOM
M  V30 1 O 0.0789 -4.0301 2.132 0
M  V30 2 C -0.713 -2.9392 1.9485 0
M  V30 3 C -0.7607 -4.8332 2.9872 0
M  V30 4 C -1.9113 -3.044 2.6134 0
M  V30 5 C -0.3912 -1.8284 1.1956 0
M  V30 6 O -2.0265 -4.2139 3.2962 0
M  V30 7 C -2.8545 -2.0423 2.5662 0
M  V30 8 C -1.3325 -0.7912 1.1097 0
M  V30 9 C -2.555 -0.9035 1.8098 0
M  V30 10 C -1.0659 0.4422 0.3573 0
M  V30 11 C -0.4087 0.4866 -0.8144 0
M  V30 12 C -0.125 1.7271 -1.628 0 CFG=1
M  V30 13 O -0.868 2.8185 -1.0843 0
M  V30 14 C 1.3872 2.102 -1.7357 0
M  V30 15 C 1.5499 3.3551 -2.6229 0
M  V30 16 C 2.1933 0.9569 -2.3796 0
M  V30 17 C 1.9886 2.4186 -0.3519 0
M  V30 18 H -0.9515 -5.7916 2.4909 0
M  V30 19 H -0.2257 -5.0235 3.9248 0
M  V30 20 H 0.5714 -1.7697 0.7012 0
M  V30 21 H -3.7944 -2.1322 3.0983 0
M  V30 22 H -3.2861 -0.0985 1.7597 0
M  V30 23 H -1.4508 1.3599 0.798 0
M  V30 24 H -0.06 -0.4415 -1.2605 0
M  V30 25 H -0.5255 1.5434 -2.6337 0
M  V30 26 H -0.9947 3.4642 -1.7983 0
M  V30 27 H 1.1024 3.1981 -3.6106 0
M  V30 28 H 1.077 4.2352 -2.1739 0
M  V30 29 H 2.6079 3.599 -2.7734 0
M  V30 30 H 3.2359 1.2525 -2.5446 0
M  V30 31 H 1.7708 0.6759 -3.3507 0
M  V30 32 H 2.2106 0.0637 -1.7464 0
M  V30 33 H 1.452 3.2364 0.1413 0
M  V30 34 H 1.957 1.5476 0.311 0
M  V30 35 H 3.0386 2.7209 -0.4404 0
M  V30 END ATOM
M  V30 BEGIN BOND
M  V30 1 1 1 2
M  V30 2 1 1 3
M  V30 3 2 2 4
M  V30 4 1 2 5
M  V30 5 1 3 6
M  V30 6 1 4 7
M  V30 7 2 5 8
M  V30 8 2 7 9
M  V30 9 1 8 10
M  V30 10 2 10 11
M  V30 11 1 11 12
M  V30 12 1 12 13
M  V30 13 1 12 14
M  V30 14 1 14 15
M  V30 15 1 14 16
M  V30 16 1 14 17
M  V30 17 1 4 6
M  V30 18 1 8 9
M  V30 19 1 3 18
M  V30 20 1 3 19
M  V30 21 1 5 20
M  V30 22 1 7 21
M  V30 23 1 9 22
M  V30 24 1 10 23
M  V30 25 1 11 24
M  V30 26 1 12 25
M  V30 27 1 13 26
M  V30 28 1 15 27
M  V30 29 1 15 28
M  V30 30 1 15 29
M  V30 31 1 16 30
M  V30 32 1 16 31
M  V30 33 1 16 32
M  V30 34 1 17 33
M  V30 35 1 17 34
M  V30 36 1 17 35
M  V30 END BOND
M  V30 BEGIN COLLECTION
M  V30 MDLV30/STERAC1 ATOMS=(1 12)
M  V30 END COLLECTION
M  V30 END CTAB
M  END
>  <NO.>
1227

>  <Name>
stiripentol

>  <SMILES>
CC(C)(C)C(O)/C=C/c1ccc2c(c1)OCO2

>  <logBB>


>  <Class>
1

>  <MW>
234.13

>  <nHBAcc>
3

>  <nHBDon>
1

>  <SLogP>
2.84

>  <TopoPSA>
38.69

>  <MMFF94 Energy>
27.655

$$$$
CC(C)(C)CC(=O)OCC(=O)[C@@]1(O)CC[C@H]2[C@@H]3CCC4=CC(=O)C=C[C@]4(C)[C@H]3[C@@H](O)C[C@@]21C
Actelion Java MolfileCreator 2.0

  0  0  0  0  0  0              0 V3000
M  V30 BEGIN CTAB
M  V30 COUNTS 71 74 0 0 0
M  V30 BEGIN ATOM
M  V30 1 O 5.2192 -4.1737 -5.0583 0
M  V30 2 C 4.131 -3.8884 -4.5749 0
M  V30 3 C 3.6454 -4.5353 -3.339 0
M  V30 4 C 3.2545 -2.8797 -5.1981 0
M  V30 5 C 2.4473 -4.2377 -2.8049 0
M  V30 6 C 2.0602 -2.5831 -4.6686 0
M  V30 7 C 1.4724 -3.2199 -3.4148 0 CFG=2
M  V30 8 C 2.0112 -4.8728 -1.5097 0
M  V30 9 C 1.2048 -2.1178 -2.3183 0 CFG=1
M  V30 10 C 0.2095 -3.9836 -3.8706 0
M  V30 11 C 1.7472 -3.8002 -0.46 0
M  V30 12 C 0.3034 -0.9213 -2.7511 0 CFG=1
M  V30 13 C 0.7526 -2.7292 -0.9463 0 CFG=1
M  V30 14 O -0.9448 -1.3175 -3.3016 0
M  V30 15 C 0.0566 0.1138 -1.6322 0
M  V30 16 C 0.6465 -1.5924 0.0827 0 CFG=1
M  V30 17 C -0.3856 -0.5034 -0.289 0 CFG=1
M  V30 18 C 0.2958 -1.9311 1.5273 0
M  V30 19 C -0.2508 0.4246 0.9619 0 CFG=1
M  V30 20 C -1.8397 -1.0402 -0.3795 0
M  V30 21 C -0.1283 -0.5805 2.1418 0
M  V30 22 O 0.983 1.1475 0.9002 0
M  V30 23 C -1.4274 1.4117 1.1272 0
M  V30 24 O -2.3671 1.1988 1.8985 0
M  V30 25 C -1.3856 2.6873 0.2855 0
M  V30 26 O -1.6568 3.8651 1.0483 0
M  V30 27 C -0.7649 4.0958 2.0519 0
M  V30 28 O 0.2101 3.3932 2.295 0
M  V30 29 C -1.1404 5.3324 2.8335 0
M  V30 30 C -2.0305 5.0688 4.0673 0
M  V30 31 C -3.3975 4.5 3.6539 0
M  V30 32 C -2.2593 6.4112 4.7885 0
M  V30 33 C -1.3499 4.098 5.0466 0
M  V30 34 H 4.329 -5.2478 -2.8916 0
M  V30 35 H 3.6241 -2.4113 -6.102 0
M  V30 36 H 1.4444 -1.8525 -5.1906 0
M  V30 37 H 2.7729 -5.5633 -1.1275 0
M  V30 38 H 1.1092 -5.4734 -1.6726 0
M  V30 39 H 2.1871 -1.6555 -2.1174 0
M  V30 40 H -0.4093 -4.3119 -3.0301 0
M  V30 41 H 0.4762 -4.8823 -4.4423 0
M  V30 42 H -0.4256 -3.3828 -4.5304 0
M  V30 43 H 2.6979 -3.325 -0.1836 0
M  V30 44 H 1.3627 -4.2831 0.4461 0
M  V30 45 H 0.8122 -0.3787 -3.5558 0
M  V30 46 H -0.2203 -3.2164 -1.0632 0
M  V30 47 H -1.2828 -2.0849 -2.8156 0
M  V30 48 H 0.9935 0.6672 -1.4935 0
M  V30 49 H -0.6916 0.8429 -1.9658 0
M  V30 50 H 1.6458 -1.128 0.1187 0
M  V30 51 H -0.5279 -2.6517 1.581 0
M  V30 52 H 1.1458 -2.3592 2.0683 0
M  V30 53 H -2.2541 -1.2947 0.6017 0
M  V30 54 H -1.9329 -1.945 -0.9787 0
M  V30 55 H -2.5036 -0.2871 -0.8192 0
M  V30 56 H 0.6248 -0.2498 2.8667 0
M  V30 57 H -1.0661 -0.7201 2.6894 0
M  V30 58 H 1.0113 1.7571 1.6718 0
M  V30 59 H -0.4309 2.8074 -0.2347 0
M  V30 60 H -2.1605 2.5971 -0.4827 0
M  V30 61 H -1.6236 6.0416 2.1486 0
M  V30 62 H -0.2003 5.8141 3.1332 0
M  V30 63 H -4.0617 4.4015 4.5203 0
M  V30 64 H -3.8943 5.1527 2.9274 0
M  V30 65 H -3.3032 3.5066 3.2047 0
M  V30 66 H -2.7531 7.1349 4.1302 0
M  V30 67 H -2.8907 6.2841 5.6753 0
M  V30 68 H -1.3108 6.851 5.1169 0
M  V30 69 H -1.9391 3.9866 5.9642 0
M  V30 70 H -1.2355 3.0991 4.6125 0
M  V30 71 H -0.3551 4.4577 5.3322 0
M  V30 END ATOM
M  V30 BEGIN BOND
M  V30 1 2 1 2
M  V30 2 1 2 3
M  V30 3 1 2 4
M  V30 4 2 3 5
M  V30 5 2 4 6
M  V30 6 1 5 7
M  V30 7 1 5 8
M  V30 8 1 7 9
M  V30 9 1 7 10
M  V30 10 1 8 11
M  V30 11 1 9 12
M  V30 12 1 9 13
M  V30 13 1 12 14
M  V30 14 1 12 15
M  V30 15 1 13 16
M  V30 16 1 15 17
M  V30 17 1 16 18
M  V30 18 1 17 19
M  V30 19 1 17 20
M  V30 20 1 18 21
M  V30 21 1 19 22
M  V30 22 1 19 23
M  V30 23 2 23 24
M  V30 24 1 23 25
M  V30 25 1 25 26
M  V30 26 1 26 27
M  V30 27 2 27 28
M  V30 28 1 27 29
M  V30 29 1 29 30
M  V30 30 1 30 31
M  V30 31 1 30 32
M  V30 32 1 30 33
M  V30 33 1 6 7
M  V30 34 1 11 13
M  V30 35 1 16 17
M  V30 36 1 19 21
M  V30 37 1 3 34
M  V30 38 1 4 35
M  V30 39 1 6 36
M  V30 40 1 8 37
M  V30 41 1 8 38
M  V30 42 1 9 39
M  V30 43 1 10 40
M  V30 44 1 10 41
M  V30 45 1 10 42
M  V30 46 1 11 43
M  V30 47 1 11 44
M  V30 48 1 12 45
M  V30 49 1 13 46
M  V30 50 1 14 47
M  V30 51 1 15 48
M  V30 52 1 15 49
M  V30 53 1 16 50
M  V30 54 1 18 51
M  V30 55 1 18 52
M  V30 56 1 20 53
M  V30 57 1 20 54
M  V30 58 1 20 55
M  V30 59 1 21 56
M  V30 60 1 21 57
M  V30 61 1 22 58
M  V30 62 1 25 59
M  V30 63 1 25 60
M  V30 64 1 29 61
M  V30 65 1 29 62
M  V30 66 1 31 63
M  V30 67 1 31 64
M  V30 68 1 31 65
M  V30 69 1 32 66
M  V30 70 1 32 67
M  V30 71 1 32 68
M  V30 72 1 33 69
M  V30 73 1 33 70
M  V30 74 1 33 71
M  V30 END BOND
M  V30 BEGIN COLLECTION
M  V30 MDLV30/STEABS ATOMS=(7 7 9 12 13 16 17 19)
M  V30 END COLLECTION
M  V30 END CTAB
M  END
>  <NO.>
1228

>  <Name>
prednisolone-tebutate

>  <SMILES>
CC(C)(C)CC(=O)OCC(=O)[C@@]1(O)CC[C@H]2[C@@H]3CCC4=CC(=O)C=C[C@]4(C)[C@H]3[C@@H](O)C[C@@]21C

>  <logBB>


>  <Class>
1

>  <MW>
458.27

>  <nHBAcc>
6

>  <nHBDon>
2

>  <SLogP>
3.54

>  <TopoPSA>
100.9

>  <MMFF94 Energy>
121.85

$$$$
CC(C)(C)CC(=O)OCC(=O)[C@@]12OC(C)(C)O[C@@H]1C[C@H]1[C@@H]3CCC4=CC(=O)C=C[C@]4(C)[C@@]3(F)[C@@H](O)C[C@@]12C
Actelion Java MolfileCreator 2.0

  0  0  0  0  0  0              0 V3000
M  V30 BEGIN CTAB
M  V30 COUNTS 79 83 0 0 0
M  V30 BEGIN ATOM
M  V30 1 F 2.7423 -2.4194 -0.8059 0
M  V30 2 C 2.5942 -2.2267 0.5608 0 CFG=2
M  V30 3 C 3.4021 -3.3955 1.2611 0 CFG=2
M  V30 4 C 1.05 -2.2387 0.7919 0 CFG=1
M  V30 5 C 3.2213 -0.823 0.8578 0 CFG=2
M  V30 6 C 4.882 -3.2466 0.8601 0
M  V30 7 C 2.8603 -4.7611 0.8381 0
M  V30 8 C 3.329 -3.3704 2.8056 0
M  V30 9 O 0.7049 -2.2818 2.1726 0
M  V30 10 C 0.3194 -1.0486 0.1242 0
M  V30 11 C 2.4388 0.2427 0.0757 0 CFG=1
M  V30 12 C 4.7119 -0.7902 0.4718 0
M  V30 13 C 5.5907 -4.2121 0.2479 0
M  V30 14 C 5.5082 -1.9048 1.142 0
M  V30 15 C 3.5707 -5.7188 0.2274 0
M  V30 16 C 0.9418 0.3233 0.4625 0 CFG=1
M  V30 17 C 2.9023 1.696 0.1404 0
M  V30 18 C 4.9943 -5.5174 -0.1 0
M  V30 19 C 0.4943 1.5244 -0.4334 0 CFG=1
M  V30 20 C 0.7178 0.6721 1.9584 0
M  V30 21 C 1.6915 2.4919 -0.3884 0 CFG=2
M  V30 22 O 5.6545 -6.3974 -0.6376 0
M  V30 23 O 0.4004 1.1361 -1.8067 0
M  V30 24 C -0.8187 2.1937 0.0157 0
M  V30 25 O 1.9348 2.905 -1.7323 0
M  V30 26 C 1.0907 2.127 -2.5745 0
M  V30 27 O -0.8243 3.1505 0.795 0
M  V30 28 C -2.1111 1.5782 -0.5117 0
M  V30 29 C 1.9405 1.429 -3.6283 0
M  V30 30 C 0.0754 3.0546 -3.2367 0
M  V30 31 O -3.2446 2.2851 -0.0042 0
M  V30 32 C -4.4413 1.7072 -0.307 0
M  V30 33 O -4.5612 0.6717 -0.943 0
M  V30 34 C -5.5591 2.5528 0.2719 0
M  V30 35 C -7.008 2.0625 0.0337 0
M  V30 36 C -7.3465 2.0134 -1.4656 0
M  V30 37 C -7.9627 3.0724 0.7062 0
M  V30 38 C -7.2478 0.6837 0.6715 0
M  V30 39 H 0.6392 -3.1475 0.3367 0
M  V30 40 H 3.1583 -0.6088 1.9293 0
M  V30 41 H 1.822 -4.98 1.0773 0
M  V30 42 H 3.5023 -2.3731 3.2205 0
M  V30 43 H 2.3615 -3.7184 3.1834 0
M  V30 44 H 4.083 -4.0356 3.2473 0
M  V30 45 H -0.2574 -2.421 2.2353 0
M  V30 46 H -0.7337 -1.0595 0.4255 0
M  V30 47 H 0.341 -1.2105 -0.9604 0
M  V30 48 H 2.5095 -0.0493 -0.9826 0
M  V30 49 H 4.8174 -0.8727 -0.618 0
M  V30 50 H 5.1519 0.1723 0.7581 0
M  V30 51 H 6.628 -4.0871 -0.0413 0
M  V30 52 H 6.5439 -1.8648 0.783 0
M  V30 53 H 5.5535 -1.7368 2.2243 0
M  V30 54 H 3.1461 -6.678 -0.0425 0
M  V30 55 H 3.1217 1.98 1.1758 0
M  V30 56 H 3.8026 1.8642 -0.4593 0
M  V30 57 H -0.3458 0.6039 2.2147 0
M  V30 58 H 1.2525 0.0107 2.6423 0
M  V30 59 H 1.044 1.6884 2.2032 0
M  V30 60 H 1.5473 3.3871 0.2238 0
M  V30 61 H -2.1148 1.645 -1.6037 0
M  V30 62 H -2.1523 0.5364 -0.1843 0
M  V30 63 H 2.489 2.1526 -4.2407 0
M  V30 64 H 1.3274 0.797 -4.2794 0
M  V30 65 H 2.6865 0.7799 -3.1575 0
M  V30 66 H -0.6334 2.4923 -3.8534 0
M  V30 67 H 0.5727 3.8085 -3.8565 0
M  V30 68 H -0.5072 3.5984 -2.4851 0
M  V30 69 H -5.448 3.5597 -0.1517 0
M  V30 70 H -5.3779 2.6225 1.3526 0
M  V30 71 H -8.4041 1.7703 -1.6214 0
M  V30 72 H -7.1552 2.9802 -1.9448 0
M  V30 73 H -6.7623 1.2558 -1.996 0
M  V30 74 H -7.8418 4.0754 0.2812 0
M  V30 75 H -9.0104 2.7796 0.5725 0
M  V30 76 H -7.7723 3.1408 1.7834 0
M  V30 77 H -8.3019 0.393 0.5928 0
M  V30 78 H -6.6618 -0.1026 0.1872 0
M  V30 79 H -6.985 0.6903 1.7354 0
M  V30 END ATOM
M  V30 BEGIN BOND
M  V30 1 1 1 2
M  V30 2 1 2 3
M  V30 3 1 2 4
M  V30 4 1 2 5
M  V30 5 1 3 6
M  V30 6 1 3 7
M  V30 7 1 3 8
M  V30 8 1 4 9
M  V30 9 1 4 10
M  V30 10 1 5 11
M  V30 11 1 5 12
M  V30 12 2 6 13
M  V30 13 1 6 14
M  V30 14 2 7 15
M  V30 15 1 10 16
M  V30 16 1 11 17
M  V30 17 1 13 18
M  V30 18 1 16 19
M  V30 19 1 16 20
M  V30 20 1 17 21
M  V30 21 2 18 22
M  V30 22 1 19 23
M  V30 23 1 19 24
M  V30 24 1 21 25
M  V30 25 1 23 26
M  V30 26 2 24 27
M  V30 27 1 24 28
M  V30 28 1 26 29
M  V30 29 1 26 30
M  V30 30 1 28 31
M  V30 31 1 31 32
M  V30 32 2 32 33
M  V30 33 1 32 34
M  V30 34 1 34 35
M  V30 35 1 35 36
M  V30 36 1 35 37
M  V30 37 1 35 38
M  V30 38 1 11 16
M  V30 39 1 12 14
M  V30 40 1 15 18
M  V30 41 1 19 21
M  V30 42 1 25 26
M  V30 43 1 4 39
M  V30 44 1 5 40
M  V30 45 1 7 41
M  V30 46 1 8 42
M  V30 47 1 8 43
M  V30 48 1 8 44
M  V30 49 1 9 45
M  V30 50 1 10 46
M  V30 51 1 10 47
M  V30 52 1 11 48
M  V30 53 1 12 49
M  V30 54 1 12 50
M  V30 55 1 13 51
M  V30 56 1 14 52
M  V30 57 1 14 53
M  V30 58 1 15 54
M  V30 59 1 17 55
M  V30 60 1 17 56
M  V30 61 1 20 57
M  V30 62 1 20 58
M  V30 63 1 20 59
M  V30 64 1 21 60
M  V30 65 1 28 61
M  V30 66 1 28 62
M  V30 67 1 29 63
M  V30 68 1 29 64
M  V30 69 1 29 65
M  V30 70 1 30 66
M  V30 71 1 30 67
M  V30 72 1 30 68
M  V30 73 1 34 69
M  V30 74 1 34 70
M  V30 75 1 36 71
M  V30 76 1 36 72
M  V30 77 1 36 73
M  V30 78 1 37 74
M  V30 79 1 37 75
M  V30 80 1 37 76
M  V30 81 1 38 77
M  V30 82 1 38 78
M  V30 83 1 38 79
M  V30 END BOND
M  V30 BEGIN COLLECTION
M  V30 MDLV30/STEABS ATOMS=(8 2 3 4 5 11 16 19 21)
M  V30 END COLLECTION
M  V30 END CTAB
M  END
>  <NO.>
1229

>  <Name>
triamcinolone-hexacetonide

>  <SMILES>
CC(C)(C)CC(=O)OCC(=O)[C@@]12OC(C)(C)O[C@@H]1C[C@H]1[C@@H]3CCC4=CC(=O)C=C[C@]4(C)[C@@]3(F)[C@@H](O)C[C@@]12C

>  <logBB>


>  <Class>
1

>  <MW>
532.28

>  <nHBAcc>
7

>  <nHBDon>
1

>  <SLogP>
4.41

>  <TopoPSA>
99.13

>  <MMFF94 Energy>
164.29

$$$$
CC(C)(C)NCC(O)c1ccc(O)c(NC(N)=O)c1
Actelion Java MolfileCreator 2.0

  0  0  0  0  0  0              0 V3000
M  V30 BEGIN CTAB
M  V30 COUNTS 40 40 0 0 0
M  V30 BEGIN ATOM
M  V30 1 O -1.0855 1.7062 -3.1816 0
M  V30 2 C -0.7028 0.7763 -3.8784 0
M  V30 3 N 0.3594 -0.0526 -3.6581 0
M  V30 4 N -1.3618 0.4811 -5.0318 0
M  V30 5 C 1.223 -0.0566 -2.5462 0
M  V30 6 C 2.4486 -0.7196 -2.6884 0
M  V30 7 C 0.9087 0.5337 -1.3213 0
M  V30 8 O 2.7308 -1.3212 -3.8896 0
M  V30 9 C 3.3632 -0.7707 -1.6402 0
M  V30 10 C 1.8219 0.5046 -0.2509 0
M  V30 11 C 3.0496 -0.1554 -0.4264 0
M  V30 12 C 1.4951 1.1511 1.0844 0 CFG=1
M  V30 13 O 0.922 2.4563 0.9231 0
M  V30 14 C 0.5761 0.2927 1.9957 0
M  V30 15 N -0.8054 0.224 1.4954 0
M  V30 16 C -1.8038 -0.3746 2.3933 0
M  V30 17 C -1.3955 -1.781 2.8598 0
M  V30 18 C -3.0996 -0.4916 1.5682 0
M  V30 19 C -2.082 0.5229 3.6108 0
M  V30 20 H 0.6626 -0.6445 -4.4192 0
M  V30 21 H -1.1442 -0.3184 -5.6025 0
M  V30 22 H -2.1614 1.0542 -5.2627 0
M  V30 23 H -0.0588 1.0083 -1.1752 0
M  V30 24 H 3.6178 -1.714 -3.83 0
M  V30 25 H 4.3155 -1.2802 -1.7453 0
M  V30 26 H 3.7696 -0.2001 0.3885 0
M  V30 27 H 2.4364 1.3155 1.6236 0
M  V30 28 H 1.0809 2.7361 0.0048 0
M  V30 29 H 1.0008 -0.7125 2.0895 0
M  V30 30 H 0.5792 0.7638 2.9845 0
M  V30 31 H -1.0869 1.1754 1.2404 0
M  V30 32 H -0.5244 -1.7548 3.5237 0
M  V30 33 H -2.2094 -2.2606 3.4163 0
M  V30 34 H -1.1536 -2.4283 2.0089 0
M  V30 35 H -2.9553 -1.1249 0.6845 0
M  V30 36 H -3.9078 -0.9347 2.1618 0
M  V30 37 H -3.4469 0.4896 1.2226 0
M  V30 38 H -1.2181 0.5867 4.2807 0
M  V30 39 H -2.3461 1.5418 3.3042 0
M  V30 40 H -2.9187 0.1315 4.2015 0
M  V30 END ATOM
M  V30 BEGIN BOND
M  V30 1 2 1 2
M  V30 2 1 2 3
M  V30 3 1 2 4
M  V30 4 1 3 5
M  V30 5 2 5 6
M  V30 6 1 5 7
M  V30 7 1 6 8
M  V30 8 1 6 9
M  V30 9 2 7 10
M  V30 10 2 9 11
M  V30 11 1 10 12
M  V30 12 1 12 13
M  V30 13 1 12 14
M  V30 14 1 14 15
M  V30 15 1 15 16
M  V30 16 1 16 17
M  V30 17 1 16 18
M  V30 18 1 16 19
M  V30 19 1 10 11
M  V30 20 1 3 20
M  V30 21 1 4 21
M  V30 22 1 4 22
M  V30 23 1 7 23
M  V30 24 1 8 24
M  V30 25 1 9 25
M  V30 26 1 11 26
M  V30 27 1 12 27
M  V30 28 1 13 28
M  V30 29 1 14 29
M  V30 30 1 14 30
M  V30 31 1 15 31
M  V30 32 1 17 32
M  V30 33 1 17 33
M  V30 34 1 17 34
M  V30 35 1 18 35
M  V30 36 1 18 36
M  V30 37 1 18 37
M  V30 38 1 19 38
M  V30 39 1 19 39
M  V30 40 1 19 40
M  V30 END BOND
M  V30 BEGIN COLLECTION
M  V30 MDLV30/STERAC1 ATOMS=(1 12)
M  V30 END COLLECTION
M  V30 END CTAB
M  END
>  <NO.>
1230

>  <Name>
carbuterol

>  <SMILES>
CC(C)(C)NCC(O)c1ccc(O)c(NC(N)=O)c1

>  <logBB>


>  <Class>
-1

>  <MW>
267.16

>  <nHBAcc>
4

>  <nHBDon>
5

>  <SLogP>
1.3

>  <TopoPSA>
107.61

>  <MMFF94 Energy>
-30.278

$$$$
CC(C)(C)NCC(O)c1ccccc1F
Actelion Java MolfileCreator 2.0

  0  0  0  0  0  0              0 V3000
M  V30 BEGIN CTAB
M  V30 COUNTS 33 33 0 0 0
M  V30 BEGIN ATOM
M  V30 1 F 0.7821 -1.643 -2.1128 0
M  V30 2 C -0.3879 -2.0414 -1.5895 0
M  V30 3 C -0.531 -2.1484 -0.2025 0
M  V30 4 C -1.4296 -2.3567 -2.4588 0
M  V30 5 C -1.771 -2.58 0.2988 0
M  V30 6 C 0.5801 -1.7779 0.7594 0 CFG=1
M  V30 7 C -2.651 -2.7867 -1.9463 0
M  V30 8 C -2.8213 -2.8985 -0.5673 0
M  V30 9 O 1.8843 -2.09 0.2557 0
M  V30 10 C 0.5357 -0.2846 1.1861 0
M  V30 11 N 0.9212 0.6243 0.0936 0
M  V30 12 C 0.8931 2.0645 0.4014 0
M  V30 13 C -0.5176 2.5381 0.7873 0
M  V30 14 C 1.3068 2.7851 -0.8964 0
M  V30 15 C 1.8938 2.4387 1.5068 0
M  V30 16 H -1.2794 -2.2637 -3.5295 0
M  V30 17 H -1.9287 -2.6698 1.3718 0
M  V30 18 H 0.467 -2.3882 1.6639 0
M  V30 19 H -3.468 -3.0332 -2.6192 0
M  V30 20 H -3.7746 -3.2322 -0.164 0
M  V30 21 H 1.8772 -1.8539 -0.6903 0
M  V30 22 H -0.4685 -0.0525 1.555 0
M  V30 23 H 1.2437 -0.1627 2.0133 0
M  V30 24 H 1.8596 0.3611 -0.2132 0
M  V30 25 H -0.8339 2.1407 1.7576 0
M  V30 26 H -0.5565 3.6313 0.8617 0
M  V30 27 H -1.2585 2.2338 0.0389 0
M  V30 28 H 0.6201 2.5528 -1.7193 0
M  V30 29 H 1.3036 3.8733 -0.7629 0
M  V30 30 H 2.3166 2.4969 -1.2122 0
M  V30 31 H 1.6046 2.0243 2.4785 0
M  V30 32 H 2.9016 2.0774 1.2717 0
M  V30 33 H 1.955 3.5268 1.6268 0
M  V30 END ATOM
M  V30 BEGIN BOND
M  V30 1 1 1 2
M  V30 2 2 2 3
M  V30 3 1 2 4
M  V30 4 1 3 5
M  V30 5 1 3 6
M  V30 6 2 4 7
M  V30 7 2 5 8
M  V30 8 1 6 9
M  V30 9 1 6 10
M  V30 10 1 10 11
M  V30 11 1 11 12
M  V30 12 1 12 13
M  V30 13 1 12 14
M  V30 14 1 12 15
M  V30 15 1 7 8
M  V30 16 1 4 16
M  V30 17 1 5 17
M  V30 18 1 6 18
M  V30 19 1 7 19
M  V30 20 1 8 20
M  V30 21 1 9 21
M  V30 22 1 10 22
M  V30 23 1 10 23
M  V30 24 1 11 24
M  V30 25 1 13 25
M  V30 26 1 13 26
M  V30 27 1 13 27
M  V30 28 1 14 28
M  V30 29 1 14 29
M  V30 30 1 14 30
M  V30 31 1 15 31
M  V30 32 1 15 32
M  V30 33 1 15 33
M  V30 END BOND
M  V30 BEGIN COLLECTION
M  V30 MDLV30/STERAC1 ATOMS=(1 6)
M  V30 END COLLECTION
M  V30 END CTAB
M  END
>  <NO.>
1231

>  <Name>
flerobuterol

>  <SMILES>
CC(C)(C)NCC(O)c1ccccc1F

>  <logBB>


>  <Class>
1

>  <MW>
211.14

>  <nHBAcc>
2

>  <nHBDon>
2

>  <SLogP>
2.25

>  <TopoPSA>
32.26

>  <MMFF94 Energy>
51.619

$$$$
CC(C)(C)[C@]1(O)CCN2C[C@H]3c4ccccc4CCc4cccc(c43)[C@@H]2C1
Actelion Java MolfileCreator 2.0

  0  0  0  0  0  0              0 V3000
M  V30 BEGIN CTAB
M  V30 COUNTS 58 62 0 0 0
M  V30 BEGIN ATOM
M  V30 1 O -1.0435 3.6157 0.8829 0
M  V30 2 C 0.2243 3.1408 0.3806 0 CFG=2
M  V30 3 C 0.9274 4.4015 -0.2859 0
M  V30 4 C -0.0677 2.0122 -0.6386 0
M  V30 5 C 1.0249 2.5804 1.5733 0
M  V30 6 C 0.0507 4.9927 -1.4175 0
M  V30 7 C 2.3079 4.0737 -0.8947 0
M  V30 8 C 1.1342 5.5304 0.7539 0
M  V30 9 C -0.6173 0.7121 0.0024 0 CFG=2
M  V30 10 C 0.4602 1.2654 2.1066 0
M  V30 11 N 0.3535 0.2839 1.0278 0
M  V30 12 C -0.8986 -0.3804 -1.0437 0
M  V30 13 C -0.0474 -1.0256 1.5492 0
M  V30 14 C -0.4857 -1.735 -0.8641 0
M  V30 15 C -1.6244 -0.027 -2.1992 0
M  V30 16 C 0.15 -2.1307 0.4776 0 CFG=2
M  V30 17 C -0.6209 -2.6337 -1.9551 0
M  V30 18 C -1.8436 -0.9398 -3.2186 0
M  V30 19 C -0.2429 -3.5191 1.0134 0
M  V30 20 C -1.3227 -2.2185 -3.1069 0
M  V30 21 C -0.076 -4.0489 -2.0407 0
M  V30 22 C 0.2088 -4.6688 0.3351 0
M  V30 23 C -1.0082 -3.7114 2.1793 0
M  V30 24 C 0.9145 -4.5271 -0.9858 0
M  V30 25 C -0.071 -5.9523 0.8345 0
M  V30 26 C -1.2868 -4.9916 2.6677 0
M  V30 27 C -0.8111 -6.1119 2.0006 0
M  V30 28 H -1.4905 2.9035 1.3659 0
M  V30 29 H 0.8386 1.76 -1.2012 0
M  V30 30 H -0.8001 2.3909 -1.3576 0
M  V30 31 H 1.0266 3.2957 2.4039 0
M  V30 32 H 2.0675 2.4046 1.2878 0
M  V30 33 H -0.9514 5.2531 -1.0611 0
M  V30 34 H 0.4976 5.9079 -1.8241 0
M  V30 35 H -0.0556 4.2953 -2.2543 0
M  V30 36 H 2.2398 3.3273 -1.6911 0
M  V30 37 H 2.7579 4.9693 -1.3403 0
M  V30 38 H 3.0137 3.7086 -0.1433 0
M  V30 39 H 1.5518 6.4282 0.2828 0
M  V30 40 H 0.1915 5.8226 1.2284 0
M  V30 41 H 1.8338 5.2323 1.5413 0
M  V30 42 H -1.587 0.9224 0.4762 0
M  V30 43 H -0.5064 1.4268 2.5998 0
M  V30 44 H 1.1494 0.8994 2.878 0
M  V30 45 H 0.5683 -1.2832 2.4216 0
M  V30 46 H -1.0897 -0.9724 1.8914 0
M  V30 47 H -2.0292 0.974 -2.3224 0
M  V30 48 H 1.2357 -2.1527 0.3018 0
M  V30 49 H -2.3947 -0.6481 -4.1079 0
M  V30 50 H -1.4662 -2.9111 -3.935 0
M  V30 51 H 0.4363 -4.1398 -3.0087 0
M  V30 52 H -0.9341 -4.7348 -2.0721 0
M  V30 53 H -1.408 -2.8764 2.7461 0
M  V30 54 H 1.3176 -5.4998 -1.2953 0
M  V30 55 H 1.7818 -3.8633 -0.9041 0
M  V30 56 H 0.2728 -6.8368 0.3033 0
M  V30 57 H -1.8768 -5.1092 3.573 0
M  V30 58 H -1.028 -7.107 2.3784 0
M  V30 END ATOM
M  V30 BEGIN BOND
M  V30 1 1 1 2
M  V30 2 1 2 3
M  V30 3 1 2 4
M  V30 4 1 2 5
M  V30 5 1 3 6
M  V30 6 1 3 7
M  V30 7 1 3 8
M  V30 8 1 4 9
M  V30 9 1 5 10
M  V30 10 1 9 11
M  V30 11 1 9 12
M  V30 12 1 11 13
M  V30 13 2 12 14
M  V30 14 1 12 15
M  V30 15 1 13 16
M  V30 16 1 14 17
M  V30 17 2 15 18
M  V30 18 1 16 19
M  V30 19 2 17 20
M  V30 20 1 17 21
M  V30 21 2 19 22
M  V30 22 1 19 23
M  V30 23 1 21 24
M  V30 24 1 22 25
M  V30 25 2 23 26
M  V30 26 2 25 27
M  V30 27 1 10 11
M  V30 28 1 14 16
M  V30 29 1 18 20
M  V30 30 1 22 24
M  V30 31 1 26 27
M  V30 32 1 1 28
M  V30 33 1 4 29
M  V30 34 1 4 30
M  V30 35 1 5 31
M  V30 36 1 5 32
M  V30 37 1 6 33
M  V30 38 1 6 34
M  V30 39 1 6 35
M  V30 40 1 7 36
M  V30 41 1 7 37
M  V30 42 1 7 38
M  V30 43 1 8 39
M  V30 44 1 8 40
M  V30 45 1 8 41
M  V30 46 1 9 42
M  V30 47 1 10 43
M  V30 48 1 10 44
M  V30 49 1 13 45
M  V30 50 1 13 46
M  V30 51 1 15 47
M  V30 52 1 16 48
M  V30 53 1 18 49
M  V30 54 1 20 50
M  V30 55 1 21 51
M  V30 56 1 21 52
M  V30 57 1 23 53
M  V30 58 1 24 54
M  V30 59 1 24 55
M  V30 60 1 25 56
M  V30 61 1 26 57
M  V30 62 1 27 58
M  V30 END BOND
M  V30 BEGIN COLLECTION
M  V30 MDLV30/STEABS ATOMS=(3 2 9 16)
M  V30 END COLLECTION
M  V30 END CTAB
M  END
>  <NO.>
1232

>  <Name>
butaclamol

>  <SMILES>
CC(C)(C)[C@]1(O)CCN2C[C@H]3c4ccccc4CCc4cccc(c43)[C@@H]2C1

>  <logBB>


>  <Class>
1

>  <MW>
361.24

>  <nHBAcc>
2

>  <nHBDon>
1

>  <SLogP>
4.84

>  <TopoPSA>
23.47

>  <MMFF94 Energy>
129.09

$$$$
CC(C)(O)C(C)(O)c1ccc(Cl)cc1
Actelion Java MolfileCreator 2.0

  0  0  0  0  0  0              0 V3000
M  V30 BEGIN CTAB
M  V30 COUNTS 29 29 0 0 0
M  V30 BEGIN ATOM
M  V30 1 Cl 4.9404 -2.0695 -0.3181 0
M  V30 2 C 3.2956 -1.5666 -0.3379 0
M  V30 3 C 2.8697 -0.6256 -1.269 0
M  V30 4 C 2.3968 -2.0968 0.5796 0
M  V30 5 C 1.5324 -0.2131 -1.2845 0
M  V30 6 C 1.061 -1.6832 0.562 0
M  V30 7 C 0.5957 -0.7375 -0.3731 0
M  V30 8 C -0.8753 -0.2819 -0.3569 0 CFG=1
M  V30 9 O -1.6797 -1.4456 -0.0609 0
M  V30 10 C -1.1685 0.7931 0.7688 0
M  V30 11 C -1.355 0.1738 -1.7469 0
M  V30 12 O -1.0648 0.1237 2.0483 0
M  V30 13 C -2.6095 1.3283 0.7084 0
M  V30 14 C -0.1932 1.9768 0.756 0
M  V30 15 H 3.5702 -0.2069 -1.9864 0
M  V30 16 H 2.722 -2.8308 1.3116 0
M  V30 17 H 1.2436 0.5298 -2.0233 0
M  V30 18 H 0.3799 -2.1111 1.2948 0
M  V30 19 H -1.7529 -1.4496 0.9147 0
M  V30 20 H -0.9308 1.1377 -2.0435 0
M  V30 21 H -2.4472 0.2572 -1.7842 0
M  V30 22 H -1.0949 -0.5668 -2.5134 0
M  V30 23 H -1.0929 0.8055 2.7432 0
M  V30 24 H -2.8317 1.9461 1.5869 0
M  V30 25 H -3.3373 0.5096 0.7226 0
M  V30 26 H -2.7846 1.9396 -0.182 0
M  V30 27 H 0.8269 1.6595 0.9949 0
M  V30 28 H -0.4612 2.7078 1.5284 0
M  V30 29 H -0.1894 2.4923 -0.2087 0
M  V30 END ATOM
M  V30 BEGIN BOND
M  V30 1 1 1 2
M  V30 2 2 2 3
M  V30 3 1 2 4
M  V30 4 1 3 5
M  V30 5 2 4 6
M  V30 6 2 5 7
M  V30 7 1 7 8
M  V30 8 1 8 9
M  V30 9 1 8 10
M  V30 10 1 8 11
M  V30 11 1 10 12
M  V30 12 1 10 13
M  V30 13 1 10 14
M  V30 14 1 6 7
M  V30 15 1 3 15
M  V30 16 1 4 16
M  V30 17 1 5 17
M  V30 18 1 6 18
M  V30 19 1 9 19
M  V30 20 1 11 20
M  V30 21 1 11 21
M  V30 22 1 11 22
M  V30 23 1 12 23
M  V30 24 1 13 24
M  V30 25 1 13 25
M  V30 26 1 13 26
M  V30 27 1 14 27
M  V30 28 1 14 28
M  V30 29 1 14 29
M  V30 END BOND
M  V30 BEGIN COLLECTION
M  V30 MDLV30/STERAC1 ATOMS=(1 8)
M  V30 END COLLECTION
M  V30 END CTAB
M  END
>  <NO.>
1237

>  <Name>
phenaglycodol

>  <SMILES>
CC(C)(O)C(C)(O)c1ccc(Cl)cc1

>  <logBB>


>  <Class>
1

>  <MW>
214.08

>  <nHBAcc>
2

>  <nHBDon>
2

>  <SLogP>
2.32

>  <TopoPSA>
40.46

>  <MMFF94 Energy>
68.62

$$$$
CC(C)(O)C(C)(O)c1cccc(Cl)c1
Actelion Java MolfileCreator 2.0

  0  0  0  0  0  0              0 V3000
M  V30 BEGIN CTAB
M  V30 COUNTS 29 29 0 0 0
M  V30 BEGIN ATOM
M  V30 1 Cl 0.9547 -4.3817 1.512 0
M  V30 2 C 0.299 -3.2398 0.403 0
M  V30 3 C 0.0458 -1.9322 0.8216 0
M  V30 4 C 0.0311 -3.6268 -0.9052 0
M  V30 5 C -0.4889 -0.974 -0.0627 0
M  V30 6 C -0.4905 -2.6976 -1.8006 0
M  V30 7 C -0.7446 -1.386 -1.3848 0
M  V30 8 C -0.74 0.4687 0.4104 0 CFG=1
M  V30 9 O -1.2537 0.3903 1.7589 0
M  V30 10 C 0.5855 1.3345 0.4581 0
M  V30 11 C -1.8628 1.1544 -0.3893 0
M  V30 12 O 1.4039 0.8183 1.5345 0
M  V30 13 C 0.3147 2.8038 0.8248 0
M  V30 14 C 1.3981 1.2834 -0.8416 0
M  V30 15 H 0.2708 -1.6587 1.8498 0
M  V30 16 H 0.2265 -4.6442 -1.2312 0
M  V30 17 H -0.7012 -2.9919 -2.8258 0
M  V30 18 H -1.1445 -0.6938 -2.1216 0
M  V30 19 H -0.4582 0.4294 2.3273 0
M  V30 20 H -1.5581 1.4096 -1.4086 0
M  V30 21 H -2.2008 2.0726 0.1046 0
M  V30 22 H -2.7513 0.513 -0.4463 0
M  V30 23 H 2.2785 1.2423 1.4738 0
M  V30 24 H -0.2237 3.3333 0.0329 0
M  V30 25 H 1.2549 3.3388 1.0053 0
M  V30 26 H -0.2603 2.8808 1.7542 0
M  V30 27 H 2.2846 1.9249 -0.7694 0
M  V30 28 H 0.8114 1.6151 -1.7033 0
M  V30 29 H 1.7805 0.2763 -1.0371 0
M  V30 END ATOM
M  V30 BEGIN BOND
M  V30 1 1 1 2
M  V30 2 2 2 3
M  V30 3 1 2 4
M  V30 4 1 3 5
M  V30 5 2 4 6
M  V30 6 2 5 7
M  V30 7 1 5 8
M  V30 8 1 8 9
M  V30 9 1 8 10
M  V30 10 1 8 11
M  V30 11 1 10 12
M  V30 12 1 10 13
M  V30 13 1 10 14
M  V30 14 1 6 7
M  V30 15 1 3 15
M  V30 16 1 4 16
M  V30 17 1 6 17
M  V30 18 1 7 18
M  V30 19 1 9 19
M  V30 20 1 11 20
M  V30 21 1 11 21
M  V30 22 1 11 22
M  V30 23 1 12 23
M  V30 24 1 13 24
M  V30 25 1 13 25
M  V30 26 1 13 26
M  V30 27 1 14 27
M  V30 28 1 14 28
M  V30 29 1 14 29
M  V30 END BOND
M  V30 BEGIN COLLECTION
M  V30 MDLV30/STERAC1 ATOMS=(1 8)
M  V30 END COLLECTION
M  V30 END CTAB
M  END
>  <NO.>
1238

>  <Name>
metaglycodol

>  <SMILES>
CC(C)(O)C(C)(O)c1cccc(Cl)c1

>  <logBB>


>  <Class>
1

>  <MW>
214.08

>  <nHBAcc>
2

>  <nHBDon>
2

>  <SLogP>
2.32

>  <TopoPSA>
40.46

>  <MMFF94 Energy>
66.59

$$$$
CC(C)(O)CC(C)(O)c1ccc(Cl)cc1
Actelion Java MolfileCreator 2.0

  0  0  0  0  0  0              0 V3000
M  V30 BEGIN CTAB
M  V30 COUNTS 32 32 0 0 0
M  V30 BEGIN ATOM
M  V30 1 Cl 3.8099 1.9035 3.1742 0
M  V30 2 C 2.7929 1.3991 1.8822 0
M  V30 3 C 2.9098 0.1119 1.3701 0
M  V30 4 C 1.8557 2.2815 1.3528 0
M  V30 5 C 2.0799 -0.2933 0.3216 0
M  V30 6 C 1.0253 1.8744 0.3025 0
M  V30 7 C 1.1187 0.5781 -0.2316 0
M  V30 8 C 0.2328 0.0887 -1.3745 0 CFG=1
M  V30 9 O 1.1262 -0.5001 -2.3506 0
M  V30 10 C -0.7351 -1.053 -0.9695 0
M  V30 11 C -0.4896 1.1979 -2.159 0
M  V30 12 C -1.757 -0.841 0.1741 0
M  V30 13 O -2.326 0.4644 0.1278 0
M  V30 14 C -1.1553 -1.0826 1.5651 0
M  V30 15 C -2.9225 -1.8249 -0.0162 0
M  V30 16 H 3.6414 -0.5807 1.7776 0
M  V30 17 H 1.7657 3.2895 1.7503 0
M  V30 18 H 2.1865 -1.3046 -0.0704 0
M  V30 19 H 0.308 2.5948 -0.0836 0
M  V30 20 H 1.8746 0.1128 -2.459 0
M  V30 21 H -1.2915 -1.314 -1.8829 0
M  V30 22 H -0.1572 -1.9643 -0.756 0
M  V30 23 H -1.0305 0.7773 -3.0153 0
M  V30 24 H -1.2026 1.7666 -1.5582 0
M  V30 25 H 0.2314 1.9097 -2.5804 0
M  V30 26 H -1.8381 1.0353 0.7462 0
M  V30 27 H -1.935 -1.0343 2.3352 0
M  V30 28 H -0.4307 -0.3131 1.8406 0
M  V30 29 H -0.6714 -2.0623 1.6322 0
M  V30 30 H -3.6799 -1.6916 0.7652 0
M  V30 31 H -2.5808 -2.865 0.0051 0
M  V30 32 H -3.4348 -1.6453 -0.9687 0
M  V30 END ATOM
M  V30 BEGIN BOND
M  V30 1 1 1 2
M  V30 2 2 2 3
M  V30 3 1 2 4
M  V30 4 1 3 5
M  V30 5 2 4 6
M  V30 6 2 5 7
M  V30 7 1 7 8
M  V30 8 1 8 9
M  V30 9 1 8 10
M  V30 10 1 8 11
M  V30 11 1 10 12
M  V30 12 1 12 13
M  V30 13 1 12 14
M  V30 14 1 12 15
M  V30 15 1 6 7
M  V30 16 1 3 16
M  V30 17 1 4 17
M  V30 18 1 5 18
M  V30 19 1 6 19
M  V30 20 1 9 20
M  V30 21 1 10 21
M  V30 22 1 10 22
M  V30 23 1 11 23
M  V30 24 1 11 24
M  V30 25 1 11 25
M  V30 26 1 13 26
M  V30 27 1 14 27
M  V30 28 1 14 28
M  V30 29 1 14 29
M  V30 30 1 15 30
M  V30 31 1 15 31
M  V30 32 1 15 32
M  V30 END BOND
M  V30 BEGIN COLLECTION
M  V30 MDLV30/STERAC1 ATOMS=(1 8)
M  V30 END COLLECTION
M  V30 END CTAB
M  END
>  <NO.>
1239

>  <Name>
fenpentadiol

>  <SMILES>
CC(C)(O)CC(C)(O)c1ccc(Cl)cc1

>  <logBB>


>  <Class>
1

>  <MW>
228.09

>  <nHBAcc>
2

>  <nHBDon>
2

>  <SLogP>
2.71

>  <TopoPSA>
40.46

>  <MMFF94 Energy>
45.712

$$$$
CC(C)(Oc1ccc(Cl)cc1)C(=O)N[C@@H](C(=O)N[C@@H]1C(=O)N2[C@@H](C(=O)O)C(C)(C)S[C@H]12)c1ccccc1
Actelion Java MolfileCreator 2.0

  0  0  0  0  0  0              0 V3000
M  V30 BEGIN CTAB
M  V30 COUNTS 65 68 0 0 0
M  V30 BEGIN ATOM
M  V30 1 Cl 4.0715 -8.4009 -2.4414 0
M  V30 2 C 3.7661 -6.8046 -1.8769 0
M  V30 3 C 4.7435 -5.8206 -2.0205 0
M  V30 4 C 2.537 -6.5003 -1.2923 0
M  V30 5 C 4.4936 -4.5253 -1.5631 0
M  V30 6 C 2.2889 -5.2043 -0.8352 0
M  V30 7 C 3.2814 -4.2311 -0.9395 0
M  V30 8 O 3.0222 -2.9481 -0.5543 0
M  V30 9 C 3.3257 -2.6117 0.8216 0
M  V30 10 C 2.9867 -1.1019 0.9272 0
M  V30 11 C 2.4176 -3.3434 1.82 0
M  V30 12 C 4.8043 -2.8123 1.1784 0
M  V30 13 O 3.6848 -0.2879 1.529 0
M  V30 14 N 1.7971 -0.7472 0.3332 0
M  V30 15 C 1.2603 0.5984 0.394 0 CFG=2
M  V30 16 C 0.4681 0.8015 1.6741 0
M  V30 17 C 0.4033 0.8635 -0.8673 0
M  V30 18 C -0.7757 0.1806 1.8707 0
M  V30 19 C 0.989 1.6043 2.701 0
M  V30 20 O 0.0982 -0.0187 -1.6708 0
M  V30 21 N 0.0046 2.1738 -1.0336 0
M  V30 22 C -1.4956 0.388 3.0484 0
M  V30 23 C 0.269 1.8067 3.8797 0
M  V30 24 C -0.8109 2.596 -2.2025 0 CFG=2
M  V30 25 C -0.9751 1.2036 4.0504 0
M  V30 26 C -1.3461 4.0513 -2.1382 0
M  V30 27 C -2.3165 2.2048 -2.2357 0 CFG=2
M  V30 28 O -0.8982 5.1416 -1.8715 0
M  V30 29 N -2.6215 3.6324 -2.3203 0
M  V30 30 S -3.1151 1.6742 -0.6653 0
M  V30 31 C -3.7871 4.1473 -1.6293 0 CFG=2
M  V30 32 C -3.9166 3.3195 -0.331 0
M  V30 33 C -4.9839 4.029 -2.5676 0
M  V30 34 C -5.3564 3.073 0.1326 0
M  V30 35 C -3.134 3.9782 0.8185 0
M  V30 36 O -5.1878 3.166 -3.4067 0
M  V30 37 O -5.8964 5.0044 -2.3677 0
M  V30 38 H 5.6933 -6.0514 -2.4949 0
M  V30 39 H 1.7668 -7.2614 -1.2009 0
M  V30 40 H 5.2423 -3.7497 -1.698 0
M  V30 41 H 1.32 -4.9599 -0.4095 0
M  V30 42 H 2.5051 -2.9145 2.8247 0
M  V30 43 H 1.3652 -3.2848 1.5201 0
M  V30 44 H 2.674 -4.4057 1.8905 0
M  V30 45 H 5.0822 -3.8713 1.1692 0
M  V30 46 H 5.0344 -2.4243 2.1771 0
M  V30 47 H 5.4523 -2.2989 0.4591 0
M  V30 48 H 1.3369 -1.4138 -0.2808 0
M  V30 49 H 2.099 1.3056 0.3559 0
M  V30 50 H -1.1988 -0.4665 1.1041 0
M  V30 51 H 1.9706 2.064 2.5963 0
M  V30 52 H 0.2382 2.8496 -0.3119 0
M  V30 53 H -2.4623 -0.0906 3.1831 0
M  V30 54 H 0.6848 2.4278 4.6691 0
M  V30 55 H -0.2794 2.3991 -3.1418 0
M  V30 56 H -1.5338 1.3599 4.9695 0
M  V30 57 H -2.632 1.6456 -3.1212 0
M  V30 58 H -3.6208 5.2107 -1.4175 0
M  V30 59 H -5.3852 2.5084 1.0725 0
M  V30 60 H -5.8726 4.0229 0.3131 0
M  V30 61 H -5.9418 2.5091 -0.602 0
M  V30 62 H -3.5547 4.9634 1.0521 0
M  V30 63 H -3.1826 3.3802 1.7366 0
M  V30 64 H -2.0764 4.1268 0.5775 0
M  V30 65 H -6.596 4.817 -3.0304 0
M  V30 END ATOM
M  V30 BEGIN BOND
M  V30 1 1 1 2
M  V30 2 2 2 3
M  V30 3 1 2 4
M  V30 4 1 3 5
M  V30 5 2 4 6
M  V30 6 2 5 7
M  V30 7 1 7 8
M  V30 8 1 8 9
M  V30 9 1 9 10
M  V30 10 1 9 11
M  V30 11 1 9 12
M  V30 12 2 10 13
M  V30 13 1 10 14
M  V30 14 1 14 15
M  V30 15 1 15 16
M  V30 16 1 15 17
M  V30 17 2 16 18
M  V30 18 1 16 19
M  V30 19 2 17 20
M  V30 20 1 17 21
M  V30 21 1 18 22
M  V30 22 2 19 23
M  V30 23 1 21 24
M  V30 24 2 22 25
M  V30 25 1 24 26
M  V30 26 1 24 27
M  V30 27 2 26 28
M  V30 28 1 26 29
M  V30 29 1 27 30
M  V30 30 1 29 31
M  V30 31 1 30 32
M  V30 32 1 31 33
M  V30 33 1 32 34
M  V30 34 1 32 35
M  V30 35 2 33 36
M  V30 36 1 33 37
M  V30 37 1 6 7
M  V30 38 1 23 25
M  V30 39 1 27 29
M  V30 40 1 31 32
M  V30 41 1 3 38
M  V30 42 1 4 39
M  V30 43 1 5 40
M  V30 44 1 6 41
M  V30 45 1 11 42
M  V30 46 1 11 43
M  V30 47 1 11 44
M  V30 48 1 12 45
M  V30 49 1 12 46
M  V30 50 1 12 47
M  V30 51 1 14 48
M  V30 52 1 15 49
M  V30 53 1 18 50
M  V30 54 1 19 51
M  V30 55 1 21 52
M  V30 56 1 22 53
M  V30 57 1 23 54
M  V30 58 1 24 55
M  V30 59 1 25 56
M  V30 60 1 27 57
M  V30 61 1 31 58
M  V30 62 1 34 59
M  V30 63 1 34 60
M  V30 64 1 34 61
M  V30 65 1 35 62
M  V30 66 1 35 63
M  V30 67 1 35 64
M  V30 68 1 37 65
M  V30 END BOND
M  V30 BEGIN COLLECTION
M  V30 MDLV30/STEABS ATOMS=(4 15 24 27 31)
M  V30 END COLLECTION
M  V30 END CTAB
M  END
>  <NO.>
1240

>  <Name>
fibracillin

>  <SMILES>
CC(C)(Oc1ccc(Cl)cc1)C(=O)N[C@@H](C(=O)N[C@@H]1C(=O)N2[C@@H](C(=O)O)C(C)(C)S[C@H]12)c1ccccc1

>  <logBB>


>  <Class>
-1

>  <MW>
545.14

>  <nHBAcc>
6

>  <nHBDon>
3

>  <SLogP>
2.99

>  <TopoPSA>
125.04

>  <MMFF94 Energy>
115.51

$$$$
CC(C)(Oc1ccc(Cl)cc1)C(=O)O
Actelion Java MolfileCreator 2.0

  0  0  0  0  0  0              0 V3000
M  V30 BEGIN CTAB
M  V30 COUNTS 25 25 0 0 0
M  V30 BEGIN ATOM
M  V30 1 Cl 4.8872 1.04 1.6804 0
M  V30 2 C 3.4103 0.7037 0.8642 0
M  V30 3 C 2.6113 1.7556 0.4172 0
M  V30 4 C 3.0285 -0.6186 0.6406 0
M  V30 5 C 1.4134 1.4815 -0.2459 0
M  V30 6 C 1.8302 -0.8903 -0.0227 0
M  V30 7 C 1.0084 0.16 -0.4297 0
M  V30 8 O -0.1287 -0.106 -1.1346 0
M  V30 9 C -1.3539 -0.2499 -0.3763 0
M  V30 10 C -2.4311 -0.5392 -1.439 0
M  V30 11 C -1.3063 -1.4452 0.5845 0
M  V30 12 C -1.7438 1.044 0.3502 0
M  V30 13 O -2.2836 -0.627 -2.6485 0
M  V30 14 O -3.6708 -0.7084 -0.9232 0
M  V30 15 H 2.9201 2.7862 0.5697 0
M  V30 16 H 3.6625 -1.4384 0.9672 0
M  V30 17 H 0.8057 2.2986 -0.6243 0
M  V30 18 H 1.5468 -1.9189 -0.2274 0
M  V30 19 H -0.5895 -1.2815 1.3959 0
M  V30 20 H -1.001 -2.3564 0.0576 0
M  V30 21 H -2.2805 -1.6361 1.048 0
M  V30 22 H -1.7479 1.8935 -0.3423 0
M  V30 23 H -2.7393 0.9751 0.8023 0
M  V30 24 H -1.04 1.2822 1.1546 0
M  V30 25 H -4.2235 -0.8801 -1.7156 0
M  V30 END ATOM
M  V30 BEGIN BOND
M  V30 1 1 1 2
M  V30 2 2 2 3
M  V30 3 1 2 4
M  V30 4 1 3 5
M  V30 5 2 4 6
M  V30 6 2 5 7
M  V30 7 1 7 8
M  V30 8 1 8 9
M  V30 9 1 9 10
M  V30 10 1 9 11
M  V30 11 1 9 12
M  V30 12 2 10 13
M  V30 13 1 10 14
M  V30 14 1 6 7
M  V30 15 1 3 15
M  V30 16 1 4 16
M  V30 17 1 5 17
M  V30 18 1 6 18
M  V30 19 1 11 19
M  V30 20 1 11 20
M  V30 21 1 11 21
M  V30 22 1 12 22
M  V30 23 1 12 23
M  V30 24 1 12 24
M  V30 25 1 14 25
M  V30 END BOND
M  V30 END CTAB
M  END
>  <NO.>
1241

>  <Name>
clofibric acid

>  <SMILES>
CC(C)(Oc1ccc(Cl)cc1)C(=O)O

>  <logBB>


>  <Class>
-1

>  <MW>
214.04

>  <nHBAcc>
2

>  <nHBDon>
1

>  <SLogP>
2.58

>  <TopoPSA>
46.53

>  <MMFF94 Energy>
38.34

$$$$
CC(C)(Oc1ccccc1)C(=O)N[C@@H]1C(=O)N2[C@@H](C(=O)O)C(C)(C)S[C@H]12
Actelion Java MolfileCreator 2.0

  0  0  0  0  0  0              0 V3000
M  V30 BEGIN CTAB
M  V30 COUNTS 48 50 0 0 0
M  V30 BEGIN ATOM
M  V30 1 S -1.2149 0.4858 2.3498 0
M  V30 2 C -1.3509 -1.2091 3.1107 0
M  V30 3 C 0.5615 0.7105 2.7932 0 CFG=1
M  V30 4 C -0.0601 -1.439 3.9286 0 CFG=1
M  V30 5 C -2.648 -1.2711 3.9251 0
M  V30 6 C -1.4469 -2.2165 1.9517 0
M  V30 7 N 0.9516 -0.5916 3.331 0
M  V30 8 C 1.6251 0.4925 1.6782 0 CFG=1
M  V30 9 C -0.1799 -1.0665 5.403 0
M  V30 10 C 1.7516 -0.9282 2.2892 0
M  V30 11 N 1.1673 0.5514 0.2703 0
M  V30 12 O -0.0336 0.0365 5.9056 0
M  V30 13 O -0.5232 -2.1193 6.1764 0
M  V30 14 O 2.2196 -1.9934 1.9628 0
M  V30 15 C 0.8758 1.7504 -0.3484 0
M  V30 16 O 1.0105 2.8234 0.2368 0
M  V30 17 C 0.301 1.6103 -1.7807 0
M  V30 18 O 1.0468 0.5106 -2.3583 0
M  V30 19 C 0.4963 2.9414 -2.5185 0
M  V30 20 C -1.189 1.2772 -1.6294 0
M  V30 21 C 0.8336 0.2628 -3.6834 0
M  V30 22 C -0.1821 -0.6024 -4.0835 0
M  V30 23 C 1.726 0.7806 -4.6209 0
M  V30 24 C -0.3495 -0.8951 -5.4377 0
M  V30 25 C 1.5582 0.4878 -5.9745 0
M  V30 26 C 0.5159 -0.3442 -6.3832 0
M  V30 27 H 0.7632 1.5394 3.4778 0
M  V30 28 H 0.281 -2.4795 3.8648 0
M  V30 29 H -3.5302 -1.1326 3.2881 0
M  V30 30 H -2.7537 -2.2479 4.4109 0
M  V30 31 H -2.6886 -0.5033 4.7059 0
M  V30 32 H -1.517 -3.2398 2.3391 0
M  V30 33 H -2.3377 -2.0424 1.336 0
M  V30 34 H -0.5754 -2.1796 1.2896 0
M  V30 35 H 2.5435 1.0765 1.8184 0
M  V30 36 H 1.1225 -0.2872 -0.3027 0
M  V30 37 H -0.5559 -1.7477 7.0845 0
M  V30 38 H 0.0198 3.7719 -1.9853 0
M  V30 39 H 1.5616 3.1762 -2.6239 0
M  V30 40 H 0.0674 2.9127 -3.5257 0
M  V30 41 H -1.7013 1.285 -2.5971 0
M  V30 42 H -1.6962 2.0022 -0.9826 0
M  V30 43 H -1.3315 0.2804 -1.1969 0
M  V30 44 H -0.8398 -1.0591 -3.3504 0
M  V30 45 H 2.5517 1.41 -4.3013 0
M  V30 46 H -1.1473 -1.5617 -5.755 0
M  V30 47 H 2.2454 0.9003 -6.7086 0
M  V30 48 H 0.3876 -0.5761 -7.4376 0
M  V30 END ATOM
M  V30 BEGIN BOND
M  V30 1 1 1 2
M  V30 2 1 1 3
M  V30 3 1 2 4
M  V30 4 1 2 5
M  V30 5 1 2 6
M  V30 6 1 3 7
M  V30 7 1 3 8
M  V30 8 1 4 9
M  V30 9 1 7 10
M  V30 10 1 8 11
M  V30 11 2 9 12
M  V30 12 1 9 13
M  V30 13 2 10 14
M  V30 14 1 11 15
M  V30 15 2 15 16
M  V30 16 1 15 17
M  V30 17 1 17 18
M  V30 18 1 17 19
M  V30 19 1 17 20
M  V30 20 1 18 21
M  V30 21 2 21 22
M  V30 22 1 21 23
M  V30 23 1 22 24
M  V30 24 2 23 25
M  V30 25 2 24 26
M  V30 26 1 4 7
M  V30 27 1 8 10
M  V30 28 1 25 26
M  V30 29 1 3 27
M  V30 30 1 4 28
M  V30 31 1 5 29
M  V30 32 1 5 30
M  V30 33 1 5 31
M  V30 34 1 6 32
M  V30 35 1 6 33
M  V30 36 1 6 34
M  V30 37 1 8 35
M  V30 38 1 11 36
M  V30 39 1 13 37
M  V30 40 1 19 38
M  V30 41 1 19 39
M  V30 42 1 19 40
M  V30 43 1 20 41
M  V30 44 1 20 42
M  V30 45 1 20 43
M  V30 46 1 22 44
M  V30 47 1 23 45
M  V30 48 1 24 46
M  V30 49 1 25 47
M  V30 50 1 26 48
M  V30 END BOND
M  V30 BEGIN COLLECTION
M  V30 MDLV30/STEABS ATOMS=(3 3 4 8)
M  V30 END COLLECTION
M  V30 END CTAB
M  END
>  <NO.>
1242

>  <Name>
isopropicillin

>  <SMILES>
CC(C)(Oc1ccccc1)C(=O)N[C@@H]1C(=O)N2[C@@H](C(=O)O)C(C)(C)S[C@H]12

>  <logBB>


>  <Class>
-1

>  <MW>
378.12

>  <nHBAcc>
5

>  <nHBDon>
2

>  <SLogP>
1.48

>  <TopoPSA>
95.94

>  <MMFF94 Energy>
76.719

$$$$
CC(C)=CCN1CC[C@]23c4c5ccc(O)c4O[C@H]2C(=O)CC[C@@]3(O)[C@H]1C5
Actelion Java MolfileCreator 2.0

  0  0  0  0  0  0              0 V3000
M  V30 BEGIN CTAB
M  V30 COUNTS 51 55 0 0 0
M  V30 BEGIN ATOM
M  V30 1 O 2.5056 -4.3678 -1.131 0
M  V30 2 C 1.6074 -3.629 -0.7195 0
M  V30 3 C 0.6179 -2.9239 -1.6668 0 CFG=2
M  V30 4 C 1.3878 -3.4755 0.7681 0
M  V30 5 O 1.3013 -2.5924 -2.9179 0
M  V30 6 C 0.048 -1.6103 -1.1143 0 CFG=2
M  V30 7 C 1.1673 -2.0138 1.1409 0
M  V30 8 C 1.7493 -1.3091 -2.7085 0
M  V30 9 C 1.112 -0.7117 -1.64 0
M  V30 10 C -0.0552 -1.4539 0.4066 0 CFG=2
M  V30 11 C -1.297 -1.2288 -1.7756 0
M  V30 12 C 2.7281 -0.6281 -3.394 0
M  V30 13 C 1.461 0.5262 -1.1339 0
M  V30 14 O -1.1839 -2.2152 0.8861 0
M  V30 15 C -0.3327 0.0676 0.6784 0 CFG=1
M  V30 16 C -1.7981 0.1515 -1.317 0
M  V30 17 O 3.3364 -1.2034 -4.4648 0
M  V30 18 C 3.0847 0.6505 -2.9467 0
M  V30 19 C 2.4657 1.2188 -1.8104 0
M  V30 20 C 0.8133 0.9965 0.1427 0
M  V30 21 N -1.7121 0.3316 0.1443 0
M  V30 22 C -2.2549 1.6452 0.5266 0
M  V30 23 C -2.4705 1.7479 2.01 0
M  V30 24 C -1.9575 2.6461 2.8749 0
M  V30 25 C -2.3058 2.5786 4.3399 0
M  V30 26 C -1.0211 3.7665 2.5181 0
M  V30 27 H -0.1777 -3.6451 -1.8877 0
M  V30 28 H 2.2742 -3.8501 1.2921 0
M  V30 29 H 0.5406 -4.1052 1.0585 0
M  V30 30 H 1.0078 -1.955 2.2247 0
M  V30 31 H 2.0732 -1.44 0.9178 0
M  V30 32 H -2.0534 -1.9844 -1.5254 0
M  V30 33 H -1.2221 -1.2278 -2.8709 0
M  V30 34 H -1.9406 -1.5888 0.8568 0
M  V30 35 H -0.3819 0.1921 1.7676 0
M  V30 36 H -2.8446 0.2417 -1.6347 0
M  V30 37 H -1.2498 0.9434 -1.8418 0
M  V30 38 H 4.0546 -0.6281 -4.7696 0
M  V30 39 H 3.8601 1.2165 -3.4557 0
M  V30 40 H 2.7894 2.1972 -1.462 0
M  V30 41 H 0.4644 2.0256 0.017 0
M  V30 42 H 1.5975 1.0273 0.9106 0
M  V30 43 H -3.2492 1.7612 0.0746 0
M  V30 44 H -1.6527 2.4621 0.1232 0
M  V30 45 H -3.144 0.9848 2.4011 0
M  V30 46 H -1.3997 2.438 4.9383 0
M  V30 47 H -2.9864 1.752 4.5691 0
M  V30 48 H -2.7923 3.5069 4.6569 0
M  V30 49 H -0.7784 3.8128 1.4553 0
M  V30 50 H -1.4652 4.729 2.7932 0
M  V30 51 H -0.0778 3.6542 3.063 0
M  V30 END ATOM
M  V30 BEGIN BOND
M  V30 1 2 1 2
M  V30 2 1 2 3
M  V30 3 1 2 4
M  V30 4 1 3 5
M  V30 5 1 3 6
M  V30 6 1 4 7
M  V30 7 1 5 8
M  V30 8 1 6 9
M  V30 9 1 6 10
M  V30 10 1 6 11
M  V30 11 1 8 12
M  V30 12 1 9 13
M  V30 13 1 10 14
M  V30 14 1 10 15
M  V30 15 1 11 16
M  V30 16 1 12 17
M  V30 17 2 12 18
M  V30 18 2 13 19
M  V30 19 1 13 20
M  V30 20 1 15 21
M  V30 21 1 21 22
M  V30 22 1 22 23
M  V30 23 2 23 24
M  V30 24 1 24 25
M  V30 25 1 24 26
M  V30 26 1 7 10
M  V30 27 2 8 9
M  V30 28 1 15 20
M  V30 29 1 16 21
M  V30 30 1 18 19
M  V30 31 1 3 27
M  V30 32 1 4 28
M  V30 33 1 4 29
M  V30 34 1 7 30
M  V30 35 1 7 31
M  V30 36 1 11 32
M  V30 37 1 11 33
M  V30 38 1 14 34
M  V30 39 1 15 35
M  V30 40 1 16 36
M  V30 41 1 16 37
M  V30 42 1 17 38
M  V30 43 1 18 39
M  V30 44 1 19 40
M  V30 45 1 20 41
M  V30 46 1 20 42
M  V30 47 1 22 43
M  V30 48 1 22 44
M  V30 49 1 23 45
M  V30 50 1 25 46
M  V30 51 1 25 47
M  V30 52 1 25 48
M  V30 53 1 26 49
M  V30 54 1 26 50
M  V30 55 1 26 51
M  V30 END BOND
M  V30 BEGIN COLLECTION
M  V30 MDLV30/STEABS ATOMS=(4 3 6 10 15)
M  V30 END COLLECTION
M  V30 END CTAB
M  END
>  <NO.>
1244

>  <Name>
nalmexone

>  <SMILES>
CC(C)=CCN1CC[C@]23c4c5ccc(O)c4O[C@H]2C(=O)CC[C@@]3(O)[C@H]1C5

>  <logBB>


>  <Class>
1

>  <MW>
355.18

>  <nHBAcc>
5

>  <nHBDon>
2

>  <SLogP>
2.08

>  <TopoPSA>
70

>  <MMFF94 Energy>
97.048

$$$$
CC(C)C(=O)OCC(=O)[C@@]12O[C@H](C3CCCCC3)O[C@@H]1C[C@H]1[C@@H]3CCC4=CC(=O)C=C[C@]4(C)[C@H]3[C@@H](O)C[C@@]12C
Actelion Java MolfileCreator 2.0

  0  0  0  0  0  0              0 V3000
M  V30 BEGIN CTAB
M  V30 COUNTS 83 88 0 0 0
M  V30 BEGIN ATOM
M  V30 1 O 2.9035 -4.3576 5.8134 0
M  V30 2 C 2.0674 -3.5733 5.383 0
M  V30 3 C 2.2671 -2.1127 5.4677 0
M  V30 4 C 0.8236 -4.0495 4.7505 0
M  V30 5 C 1.3548 -1.243 4.9983 0
M  V30 6 C -0.0868 -3.185 4.2837 0
M  V30 7 C 0.0299 -1.665 4.3437 0 CFG=2
M  V30 8 C 1.6208 0.2395 5.0446 0
M  V30 9 C 0.0197 -1.059 2.887 0 CFG=1
M  V30 10 C -1.1286 -1.178 5.2428 0
M  V30 11 C 1.594 0.822 3.6368 0
M  V30 12 C -1.2077 -1.4342 2.0035 0 CFG=1
M  V30 13 C 0.2918 0.4859 2.8869 0 CFG=1
M  V30 14 O -2.4262 -1.0925 2.6484 0
M  V30 15 C -1.1785 -0.7898 0.5992 0
M  V30 16 C 0.371 0.9658 1.4309 0 CFG=1
M  V30 17 C -0.9313 0.7335 0.6265 0 CFG=1
M  V30 18 C 0.7059 2.4296 1.1507 0
M  V30 19 C -0.5222 1.3847 -0.7306 0 CFG=1
M  V30 20 C -2.1569 1.4782 1.2192 0
M  V30 21 C 0.2918 2.6244 -0.3226 0 CFG=2
M  V30 22 O 0.4196 0.5621 -1.423 0
M  V30 23 C -1.7 1.7325 -1.658 0
M  V30 24 O 1.4532 2.6363 -1.1507 0
M  V30 25 C 1.4353 1.4376 -1.9176 0 CFG=1
M  V30 26 O -2.2746 2.8224 -1.5958 0
M  V30 27 C -2.1402 0.6425 -2.6296 0
M  V30 28 C 2.8043 0.7427 -1.8614 0
M  V30 29 O -3.3127 1.0463 -3.3378 0
M  V30 30 C 2.7914 -0.5803 -2.6452 0
M  V30 31 C 3.9216 1.6698 -2.3683 0
M  V30 32 C -3.8089 0.0943 -4.1739 0
M  V30 33 C 4.1587 -1.2596 -2.64 0
M  V30 34 C 5.2826 0.9777 -2.3645 0
M  V30 35 O -3.3264 -1.0205 -4.3168 0
M  V30 36 C -5.0345 0.622 -4.8962 0
M  V30 37 C 5.253 -0.3286 -3.1494 0
M  V30 38 C -4.6089 1.5845 -5.9987 0
M  V30 39 C -5.8637 -0.5264 -5.4644 0
M  V30 40 H 3.2027 -1.799 5.9162 0
M  V30 41 H 0.6881 -5.1229 4.7014 0
M  V30 42 H -1.0006 -3.5955 3.8594 0
M  V30 43 H 0.8727 0.7346 5.6742 0
M  V30 44 H 2.5948 0.4564 5.4999 0
M  V30 45 H 0.8817 -1.5104 2.3662 0
M  V30 46 H -1.2737 -0.0947 5.1936 0
M  V30 47 H -0.9431 -1.4291 6.2957 0
M  V30 48 H -2.0836 -1.6475 4.9834 0
M  V30 49 H 2.456 0.4425 3.072 0
M  V30 50 H 1.717 1.9093 3.7052 0
M  V30 51 H -1.2244 -2.5204 1.8597 0
M  V30 52 H -0.5236 1.0037 3.4019 0
M  V30 53 H -3.159 -1.4471 2.1149 0
M  V30 54 H -0.3885 -1.2871 0.0232 0
M  V30 55 H -2.1243 -0.9979 0.0859 0
M  V30 56 H 1.179 0.3774 0.9668 0
M  V30 57 H 1.7667 2.6441 1.3154 0
M  V30 58 H 0.1176 3.0861 1.8014 0
M  V30 59 H -3.074 1.1905 0.6923 0
M  V30 60 H -2.0654 2.5662 1.1352 0
M  V30 61 H -2.3188 1.2711 2.2784 0
M  V30 62 H -0.2242 3.5823 -0.4374 0
M  V30 63 H 1.1816 1.7018 -2.9513 0
M  V30 64 H -1.3299 0.4731 -3.3463 0
M  V30 65 H -2.3532 -0.2652 -2.059 0
M  V30 66 H 3.0202 0.5054 -0.81 0
M  V30 67 H 2.0544 -1.2695 -2.2165 0
M  V30 68 H 2.4855 -0.3925 -3.6823 0
M  V30 69 H 3.6902 2.0045 -3.3876 0
M  V30 70 H 3.9817 2.5694 -1.7446 0
M  V30 71 H 4.1235 -2.1614 -3.2616 0
M  V30 72 H 4.4002 -1.5841 -1.6202 0
M  V30 73 H 5.5855 0.7757 -1.3296 0
M  V30 74 H 6.0368 1.6476 -2.7925 0
M  V30 75 H -5.6555 1.1497 -4.1616 0
M  V30 76 H 5.0851 -0.1134 -4.2119 0
M  V30 77 H 6.226 -0.8266 -3.0737 0
M  V30 78 H -5.4808 1.9842 -6.5269 0
M  V30 79 H -4.0479 2.4306 -5.5873 0
M  V30 80 H -3.9625 1.0881 -6.731 0
M  V30 81 H -6.1533 -1.2261 -4.6727 0
M  V30 82 H -5.3029 -1.0921 -6.2167 0
M  V30 83 H -6.7783 -0.1503 -5.9348 0
M  V30 END ATOM
M  V30 BEGIN BOND
M  V30 1 2 1 2
M  V30 2 1 2 3
M  V30 3 1 2 4
M  V30 4 2 3 5
M  V30 5 2 4 6
M  V30 6 1 5 7
M  V30 7 1 5 8
M  V30 8 1 7 9
M  V30 9 1 7 10
M  V30 10 1 8 11
M  V30 11 1 9 12
M  V30 12 1 9 13
M  V30 13 1 12 14
M  V30 14 1 12 15
M  V30 15 1 13 16
M  V30 16 1 15 17
M  V30 17 1 16 18
M  V30 18 1 17 19
M  V30 19 1 17 20
M  V30 20 1 18 21
M  V30 21 1 19 22
M  V30 22 1 19 23
M  V30 23 1 21 24
M  V30 24 1 22 25
M  V30 25 2 23 26
M  V30 26 1 23 27
M  V30 27 1 25 28
M  V30 28 1 27 29
M  V30 29 1 28 30
M  V30 30 1 28 31
M  V30 31 1 29 32
M  V30 32 1 30 33
M  V30 33 1 31 34
M  V30 34 2 32 35
M  V30 35 1 32 36
M  V30 36 1 33 37
M  V30 37 1 36 38
M  V30 38 1 36 39
M  V30 39 1 6 7
M  V30 40 1 11 13
M  V30 41 1 16 17
M  V30 42 1 19 21
M  V30 43 1 24 25
M  V30 44 1 34 37
M  V30 45 1 3 40
M  V30 46 1 4 41
M  V30 47 1 6 42
M  V30 48 1 8 43
M  V30 49 1 8 44
M  V30 50 1 9 45
M  V30 51 1 10 46
M  V30 52 1 10 47
M  V30 53 1 10 48
M  V30 54 1 11 49
M  V30 55 1 11 50
M  V30 56 1 12 51
M  V30 57 1 13 52
M  V30 58 1 14 53
M  V30 59 1 15 54
M  V30 60 1 15 55
M  V30 61 1 16 56
M  V30 62 1 18 57
M  V30 63 1 18 58
M  V30 64 1 20 59
M  V30 65 1 20 60
M  V30 66 1 20 61
M  V30 67 1 21 62
M  V30 68 1 25 63
M  V30 69 1 27 64
M  V30 70 1 27 65
M  V30 71 1 28 66
M  V30 72 1 30 67
M  V30 73 1 30 68
M  V30 74 1 31 69
M  V30 75 1 31 70
M  V30 76 1 33 71
M  V30 77 1 33 72
M  V30 78 1 34 73
M  V30 79 1 34 74
M  V30 80 1 36 75
M  V30 81 1 37 76
M  V30 82 1 37 77
M  V30 83 1 38 78
M  V30 84 1 38 79
M  V30 85 1 38 80
M  V30 86 1 39 81
M  V30 87 1 39 82
M  V30 88 1 39 83
M  V30 END BOND
M  V30 BEGIN COLLECTION
M  V30 MDLV30/STEABS ATOMS=(9 7 9 12 13 16 17 19 21 25)
M  V30 END COLLECTION
M  V30 END CTAB
M  END
>  <NO.>
1245

>  <Name>
ciclesonide

>  <SMILES>
CC(C)C(=O)OCC(=O)[C@@]12O[C@H](C3CCCCC3)O[C@@H]1C[C@H]1[C@@H]3CCC4=CC(=O)C=C[C@]4(C)[C@H]3[C@@H](O)C[C@@]12C

>  <logBB>


>  <Class>
1

>  <MW>
540.31

>  <nHBAcc>
7

>  <nHBDon>
1

>  <SLogP>
4.7

>  <TopoPSA>
99.13

>  <MMFF94 Energy>
115.81

$$$$
CC(C)C(=O)OCc1cccc(OC(=O)[C@@H]2N3C(=O)[C@@H](NC(=O)Cc4ccccc4)[C@H]3SC2(C)C)c1
Actelion Java MolfileCreator 2.0

  0  0  0  0  0  0              0 V3000
M  V30 BEGIN CTAB
M  V30 COUNTS 66 69 0 0 0
M  V30 BEGIN ATOM
M  V30 1 S 0.1615 0.7269 2.5865 0
M  V30 2 C 0.5032 -0.6193 1.338 0
M  V30 3 C -0.1171 1.9568 1.249 0 CFG=1
M  V30 4 C -0.4981 -0.3175 0.1999 0 CFG=1
M  V30 5 C 1.9786 -0.5142 0.9252 0
M  V30 6 C 0.2323 -1.9709 2.0024 0
M  V30 7 N -0.6934 1.1255 0.1911 0
M  V30 8 C -1.4339 2.7782 1.2386 0 CFG=1
M  V30 9 C -0.0761 -0.9152 -1.1415 0
M  V30 10 C -1.916 1.718 0.2139 0
M  V30 11 N -2.199 2.8562 2.5081 0
M  V30 12 O 0.1057 -2.1178 -1.3073 0
M  V30 13 O 0.0941 0.0812 -2.0962 0
M  V30 14 O -2.9635 1.3818 -0.286 0
M  V30 15 C -1.7801 3.6671 3.5389 0
M  V30 16 C 0.5905 -0.4002 -3.3066 0
M  V30 17 O -0.7757 4.37 3.447 0
M  V30 18 C -2.5956 3.5732 4.8162 0
M  V30 19 C 1.9507 -0.6789 -3.4291 0
M  V30 20 C -0.2787 -0.5405 -4.3834 0
M  V30 21 C -4.084 3.7195 4.605 0
M  V30 22 C 2.454 -1.1627 -4.643 0
M  V30 23 C 0.2179 -1.0151 -5.5957 0
M  V30 24 C -4.6171 4.9291 4.137 0
M  V30 25 C -4.9505 2.649 4.8668 0
M  V30 26 C 1.5738 -1.3353 -5.7225 0
M  V30 27 C 3.9051 -1.5527 -4.755 0
M  V30 28 C -5.99 5.0609 3.9253 0
M  V30 29 C -6.3233 2.7843 4.6541 0
M  V30 30 O 4.0616 -2.8925 -4.2711 0
M  V30 31 C -6.8421 3.9886 4.1822 0
M  V30 32 C 4.4504 -3.0152 -2.9714 0
M  V30 33 O 4.755 -2.0883 -2.2323 0
M  V30 34 C 4.4169 -4.4757 -2.5623 0
M  V30 35 C 5.3437 -4.7257 -1.3759 0
M  V30 36 C 2.9831 -4.8742 -2.2311 0
M  V30 37 H 0.7755 2.4992 0.9238 0
M  V30 38 H -1.4782 -0.7632 0.4227 0
M  V30 39 H 2.1999 0.4268 0.4094 0
M  V30 40 H 2.2578 -1.3287 0.2473 0
M  V30 41 H 2.6443 -0.5865 1.7937 0
M  V30 42 H 0.8885 -2.1349 2.8652 0
M  V30 43 H -0.8045 -2.0551 2.3482 0
M  V30 44 H 0.4091 -2.7937 1.3011 0
M  V30 45 H -1.3361 3.7693 0.7775 0
M  V30 46 H -3.0612 2.331 2.6176 0
M  V30 47 H -2.2586 4.3555 5.5071 0
M  V30 48 H -2.3632 2.6103 5.2867 0
M  V30 49 H 2.6108 -0.5438 -2.5757 0
M  V30 50 H -1.3317 -0.2972 -4.2784 0
M  V30 51 H -0.4522 -1.1476 -6.4414 0
M  V30 52 H -3.9654 5.7771 3.9329 0
M  V30 53 H -4.5661 1.7024 5.2409 0
M  V30 54 H 1.9381 -1.728 -6.6697 0
M  V30 55 H 4.2196 -1.5443 -5.8048 0
M  V30 56 H 4.5522 -0.8339 -4.2374 0
M  V30 57 H -6.3953 6.0015 3.5606 0
M  V30 58 H -6.9902 1.9505 4.8591 0
M  V30 59 H -7.9116 4.0929 4.0177 0
M  V30 60 H 4.7845 -5.0739 -3.4052 0
M  V30 61 H 5.3655 -5.7896 -1.1174 0
M  V30 62 H 6.3671 -4.4121 -1.6091 0
M  V30 63 H 5.0209 -4.168 -0.4895 0
M  V30 64 H 2.3246 -4.7236 -3.0936 0
M  V30 65 H 2.5838 -4.2724 -1.4066 0
M  V30 66 H 2.9268 -5.9291 -1.9437 0
M  V30 END ATOM
M  V30 BEGIN BOND
M  V30 1 1 1 2
M  V30 2 1 1 3
M  V30 3 1 2 4
M  V30 4 1 2 5
M  V30 5 1 2 6
M  V30 6 1 3 7
M  V30 7 1 3 8
M  V30 8 1 4 9
M  V30 9 1 7 10
M  V30 10 1 8 11
M  V30 11 2 9 12
M  V30 12 1 9 13
M  V30 13 2 10 14
M  V30 14 1 11 15
M  V30 15 1 13 16
M  V30 16 2 15 17
M  V30 17 1 15 18
M  V30 18 2 16 19
M  V30 19 1 16 20
M  V30 20 1 18 21
M  V30 21 1 19 22
M  V30 22 2 20 23
M  V30 23 2 21 24
M  V30 24 1 21 25
M  V30 25 2 22 26
M  V30 26 1 22 27
M  V30 27 1 24 28
M  V30 28 2 25 29
M  V30 29 1 27 30
M  V30 30 2 28 31
M  V30 31 1 30 32
M  V30 32 2 32 33
M  V30 33 1 32 34
M  V30 34 1 34 35
M  V30 35 1 34 36
M  V30 36 1 4 7
M  V30 37 1 8 10
M  V30 38 1 23 26
M  V30 39 1 29 31
M  V30 40 1 3 37
M  V30 41 1 4 38
M  V30 42 1 5 39
M  V30 43 1 5 40
M  V30 44 1 5 41
M  V30 45 1 6 42
M  V30 46 1 6 43
M  V30 47 1 6 44
M  V30 48 1 8 45
M  V30 49 1 11 46
M  V30 50 1 18 47
M  V30 51 1 18 48
M  V30 52 1 19 49
M  V30 53 1 20 50
M  V30 54 1 23 51
M  V30 55 1 24 52
M  V30 56 1 25 53
M  V30 57 1 26 54
M  V30 58 1 27 55
M  V30 59 1 27 56
M  V30 60 1 28 57
M  V30 61 1 29 58
M  V30 62 1 31 59
M  V30 63 1 34 60
M  V30 64 1 35 61
M  V30 65 1 35 62
M  V30 66 1 35 63
M  V30 67 1 36 64
M  V30 68 1 36 65
M  V30 69 1 36 66
M  V30 END BOND
M  V30 BEGIN COLLECTION
M  V30 MDLV30/STEABS ATOMS=(3 3 4 8)
M  V30 END COLLECTION
M  V30 END CTAB
M  END
>  <NO.>
1246

>  <Name>
tobicillin

>  <SMILES>
CC(C)C(=O)OCc1cccc(OC(=O)[C@@H]2N3C(=O)[C@@H](NC(=O)Cc4ccccc4)[C@H]3SC2(C)C)c1

>  <logBB>


>  <Class>
-1

>  <MW>
510.18

>  <nHBAcc>
7

>  <nHBDon>
1

>  <SLogP>
3.08

>  <TopoPSA>
102.01

>  <MMFF94 Energy>
84.526

$$$$
CC(C)C(Br)C(=O)NC(N)=O
Actelion Java MolfileCreator 2.0

  0  0  0  0  0  0              0 V3000
M  V30 BEGIN CTAB
M  V30 COUNTS 22 21 0 0 0
M  V30 BEGIN ATOM
M  V30 1 Br -0.2362 0.2362 -2.6801 0
M  V30 2 C -0.9957 -0.027 -0.8812 0 CFG=2
M  V30 3 C -0.6617 1.2418 -0.0977 0
M  V30 4 C -0.4509 -1.3172 -0.2424 0
M  V30 5 O -1.5574 1.9398 0.37 0
M  V30 6 N 0.692 1.5086 0.0054 0
M  V30 7 C -0.8793 -1.4286 1.2276 0
M  V30 8 C -0.9396 -2.5707 -0.9817 0
M  V30 9 C 1.2561 2.3702 0.903 0
M  V30 10 O 0.7471 2.806 1.9242 0
M  V30 11 N 2.5501 2.6706 0.604 0
M  V30 12 H -2.0799 -0.078 -1.0293 0
M  V30 13 H 0.6463 -1.3167 -0.2693 0
M  V30 14 H 1.3176 1.0192 -0.6118 0
M  V30 15 H -0.4592 -0.6176 1.8306 0
M  V30 16 H -1.97 -1.3969 1.3256 0
M  V30 17 H -0.5282 -2.3696 1.665 0
M  V30 18 H -0.5859 -3.4785 -0.4804 0
M  V30 19 H -0.5675 -2.6085 -2.0094 0
M  V30 20 H -2.0339 -2.61 -1.014 0
M  V30 21 H 2.9853 2.4804 -0.284 0
M  V30 22 H 3.0271 3.286 1.2515 0
M  V30 END ATOM
M  V30 BEGIN BOND
M  V30 1 1 1 2
M  V30 2 1 2 3
M  V30 3 1 2 4
M  V30 4 2 3 5
M  V30 5 1 3 6
M  V30 6 1 4 7
M  V30 7 1 4 8
M  V30 8 1 6 9
M  V30 9 2 9 10
M  V30 10 1 9 11
M  V30 11 1 2 12
M  V30 12 1 4 13
M  V30 13 1 6 14
M  V30 14 1 7 15
M  V30 15 1 7 16
M  V30 16 1 7 17
M  V30 17 1 8 18
M  V30 18 1 8 19
M  V30 19 1 8 20
M  V30 20 1 11 21
M  V30 21 1 11 22
M  V30 END BOND
M  V30 BEGIN COLLECTION
M  V30 MDLV30/STERAC1 ATOMS=(1 2)
M  V30 END COLLECTION
M  V30 END CTAB
M  END
>  <NO.>
1247

>  <Name>
bromisoval

>  <SMILES>
CC(C)C(Br)C(=O)NC(N)=O

>  <logBB>


>  <Class>
1

>  <MW>
222

>  <nHBAcc>
2

>  <nHBDon>
2

>  <SLogP>
0.6

>  <TopoPSA>
72.19

>  <MMFF94 Energy>
-76.377

$$$$
CC(C)C(CCCCCC(=O)O)NCc1ccc(F)cc1
Actelion Java MolfileCreator 2.0

  0  0  0  0  0  0              0 V3000
M  V30 BEGIN CTAB
M  V30 COUNTS 47 47 0 0 0
M  V30 BEGIN ATOM
M  V30 1 F -2.3486 -4.4661 5.0156 0
M  V30 2 C -2.0136 -3.3648 4.3305 0
M  V30 3 C -2.5501 -2.138 4.7035 0
M  V30 4 C -1.1379 -3.4664 3.257 0
M  V30 5 C -2.2041 -0.9882 3.9913 0
M  V30 6 C -0.7901 -2.3187 2.5441 0
M  V30 7 C -1.3168 -1.0672 2.9066 0
M  V30 8 C -0.9383 0.1715 2.1244 0
M  V30 9 N -1.502 0.117 0.7749 0
M  V30 10 C -1.3318 1.367 0.0094 0 CFG=2
M  V30 11 C -2.2134 1.3209 -1.2836 0
M  V30 12 C 0.1649 1.648 -0.2822 0
M  V30 13 C -3.7139 1.2143 -0.9612 0
M  V30 14 C -2.0086 2.553 -2.1763 0
M  V30 15 C 0.8705 0.5651 -1.1078 0
M  V30 16 C 2.3462 0.9107 -1.3229 0
M  V30 17 C 3.0551 -0.1649 -2.1466 0
M  V30 18 C 4.528 0.1784 -2.3586 0
M  V30 19 C 5.2343 -0.874 -3.1692 0
M  V30 20 O 4.7613 -1.8926 -3.6418 0
M  V30 21 O 6.537 -0.5776 -3.3476 0
M  V30 22 H -3.2344 -2.0854 5.5441 0
M  V30 23 H -0.7355 -4.4348 2.9791 0
M  V30 24 H -2.6307 -0.0325 4.2871 0
M  V30 25 H -0.1134 -2.3968 1.6951 0
M  V30 26 H 0.1555 0.224 2.0993 0
M  V30 27 H -1.297 1.0623 2.6544 0
M  V30 28 H -2.4919 -0.1016 0.8688 0
M  V30 29 H -1.7066 2.2004 0.62 0
M  V30 30 H -1.944 0.4352 -1.8735 0
M  V30 31 H 0.7038 1.7824 0.6638 0
M  V30 32 H 0.2651 2.6148 -0.7893 0
M  V30 33 H -3.964 0.2587 -0.492 0
M  V30 34 H -4.0324 2.021 -0.2923 0
M  V30 35 H -4.3145 1.2788 -1.8754 0
M  V30 36 H -1.0022 2.5775 -2.604 0
M  V30 37 H -2.7064 2.5451 -3.021 0
M  V30 38 H -2.1696 3.4794 -1.6148 0
M  V30 39 H 0.3827 0.4568 -2.0825 0
M  V30 40 H 0.7991 -0.4029 -0.5989 0
M  V30 41 H 2.844 1.0163 -0.3513 0
M  V30 42 H 2.4261 1.8774 -1.8348 0
M  V30 43 H 2.5577 -0.2742 -3.1185 0
M  V30 44 H 2.9714 -1.1344 -1.6396 0
M  V30 45 H 4.6145 1.1332 -2.8886 0
M  V30 46 H 5.0331 0.2601 -1.3898 0
M  V30 47 H 6.878 -1.3263 -3.8804 0
M  V30 END ATOM
M  V30 BEGIN BOND
M  V30 1 1 1 2
M  V30 2 2 2 3
M  V30 3 1 2 4
M  V30 4 1 3 5
M  V30 5 2 4 6
M  V30 6 2 5 7
M  V30 7 1 7 8
M  V30 8 1 8 9
M  V30 9 1 9 10
M  V30 10 1 10 11
M  V30 11 1 10 12
M  V30 12 1 11 13
M  V30 13 1 11 14
M  V30 14 1 12 15
M  V30 15 1 15 16
M  V30 16 1 16 17
M  V30 17 1 17 18
M  V30 18 1 18 19
M  V30 19 2 19 20
M  V30 20 1 19 21
M  V30 21 1 6 7
M  V30 22 1 3 22
M  V30 23 1 4 23
M  V30 24 1 5 24
M  V30 25 1 6 25
M  V30 26 1 8 26
M  V30 27 1 8 27
M  V30 28 1 9 28
M  V30 29 1 10 29
M  V30 30 1 11 30
M  V30 31 1 12 31
M  V30 32 1 12 32
M  V30 33 1 13 33
M  V30 34 1 13 34
M  V30 35 1 13 35
M  V30 36 1 14 36
M  V30 37 1 14 37
M  V30 38 1 14 38
M  V30 39 1 15 39
M  V30 40 1 15 40
M  V30 41 1 16 41
M  V30 42 1 16 42
M  V30 43 1 17 43
M  V30 44 1 17 44
M  V30 45 1 18 45
M  V30 46 1 18 46
M  V30 47 1 21 47
M  V30 END BOND
M  V30 BEGIN COLLECTION
M  V30 MDLV30/STERAC1 ATOMS=(1 10)
M  V30 END COLLECTION
M  V30 END CTAB
M  END
>  <NO.>
1248

>  <Name>
zafuleptine

>  <SMILES>
CC(C)C(CCCCCC(=O)O)NCc1ccc(F)cc1

>  <logBB>


>  <Class>
1

>  <MW>
295.19

>  <nHBAcc>
2

>  <nHBDon>
2

>  <SLogP>
3.98

>  <TopoPSA>
49.33

>  <MMFF94 Energy>
-5.1325

$$$$
CC(C)C(O)C1CCCCC1
Actelion Java MolfileCreator 2.0

  0  0  0  0  0  0              0 V3000
M  V30 BEGIN CTAB
M  V30 COUNTS 31 31 0 0 0
M  V30 BEGIN ATOM
M  V30 1 O 1.7123 0.3889 1.2451 0
M  V30 2 C 0.3269 0.6914 1.0975 0 CFG=2
M  V30 3 C -0.3542 -0.2815 0.097 0
M  V30 4 C 0.1502 2.1937 0.7603 0
M  V30 5 C 0.5486 -0.7276 -1.0705 0
M  V30 6 C -0.8513 -1.538 0.8461 0
M  V30 7 C 0.7378 3.0636 1.8804 0
M  V30 8 C 0.7659 2.6198 -0.5719 0
M  V30 9 C -0.1808 -1.684 -2.0133 0
M  V30 10 C -1.5736 -2.5105 -0.0842 0
M  V30 11 C -0.7048 -2.9079 -1.2712 0
M  V30 12 H 1.7809 -0.5236 1.5727 0
M  V30 13 H -0.1277 0.5462 2.0864 0
M  V30 14 H -1.2444 0.2156 -0.312 0
M  V30 15 H -0.926 2.4059 0.714 0
M  V30 16 H 1.4437 -1.2333 -0.6874 0
M  V30 17 H 0.8989 0.13 -1.6493 0
M  V30 18 H -0.0058 -2.0509 1.3214 0
M  V30 19 H -1.5388 -1.2458 1.6493 0
M  V30 20 H 1.8243 2.9482 1.9535 0
M  V30 21 H 0.3005 2.7998 2.8492 0
M  V30 22 H 0.5246 4.1228 1.7002 0
M  V30 23 H 0.717 3.7077 -0.6932 0
M  V30 24 H 0.2163 2.1874 -1.4125 0
M  V30 25 H 1.8164 2.3221 -0.6471 0
M  V30 26 H 0.4986 -2.0026 -2.8118 0
M  V30 27 H -1.0154 -1.1589 -2.4937 0
M  V30 28 H -1.8657 -3.4066 0.4748 0
M  V30 29 H -2.4986 -2.0464 -0.4481 0
M  V30 30 H -1.2813 -3.5384 -1.9574 0
M  V30 31 H 0.1411 -3.5102 -0.9181 0
M  V30 END ATOM
M  V30 BEGIN BOND
M  V30 1 1 1 2
M  V30 2 1 2 3
M  V30 3 1 2 4
M  V30 4 1 3 5
M  V30 5 1 3 6
M  V30 6 1 4 7
M  V30 7 1 4 8
M  V30 8 1 5 9
M  V30 9 1 6 10
M  V30 10 1 9 11
M  V30 11 1 10 11
M  V30 12 1 1 12
M  V30 13 1 2 13
M  V30 14 1 3 14
M  V30 15 1 4 15
M  V30 16 1 5 16
M  V30 17 1 5 17
M  V30 18 1 6 18
M  V30 19 1 6 19
M  V30 20 1 7 20
M  V30 21 1 7 21
M  V30 22 1 7 22
M  V30 23 1 8 23
M  V30 24 1 8 24
M  V30 25 1 8 25
M  V30 26 1 9 26
M  V30 27 1 9 27
M  V30 28 1 10 28
M  V30 29 1 10 29
M  V30 30 1 11 30
M  V30 31 1 11 31
M  V30 END BOND
M  V30 BEGIN COLLECTION
M  V30 MDLV30/STERAC1 ATOMS=(1 2)
M  V30 END COLLECTION
M  V30 END CTAB
M  END
>  <NO.>
1249

>  <Name>
cimepanol

>  <SMILES>
CC(C)C(O)C1CCCCC1

>  <logBB>


>  <Class>
1

>  <MW>
156.15

>  <nHBAcc>
1

>  <nHBDon>
1

>  <SLogP>
2.58

>  <TopoPSA>
20.23

>  <MMFF94 Energy>
16.472

$$$$
CC(C)C1(C(C)C)OCC(CO)O1
Actelion Java MolfileCreator 2.0

  0  0  0  0  0  0              0 V3000
M  V30 BEGIN CTAB
M  V30 COUNTS 33 33 0 0 0
M  V30 BEGIN ATOM
M  V30 1 O 0.0781 0.0 1.016 0
M  V30 2 C -0.1202 -0.0581 -0.4119 0
M  V30 3 C 0.2776 1.3875 1.3289 0 CFG=2
M  V30 4 O 0.1934 1.2275 -0.984 0
M  V30 5 C 0.8554 -1.1326 -0.9967 0
M  V30 6 C -1.6226 -0.3765 -0.7113 0
M  V30 7 C 0.8038 1.9915 0.0552 0
M  V30 8 C 1.231 1.52 2.5081 0
M  V30 9 C 2.334 -0.8102 -0.732 0
M  V30 10 C 0.5718 -2.5446 -0.4676 0
M  V30 11 C -2.5883 0.6559 -0.1099 0
M  V30 12 C -1.9184 -0.4909 -2.2125 0
M  V30 13 O 0.6502 0.919 3.6651 0
M  V30 14 H -0.6986 1.807 1.5924 0
M  V30 15 H 0.7505 -1.146 -2.0883 0
M  V30 16 H -1.8821 -1.3299 -0.2354 0
M  V30 17 H 1.8902 1.901 -0.0351 0
M  V30 18 H 0.5417 3.048 -0.051 0
M  V30 19 H 1.4382 2.5696 2.7354 0
M  V30 20 H 2.1774 1.0048 2.3154 0
M  V30 21 H 2.6296 0.1194 -1.2267 0
M  V30 22 H 2.545 -0.7212 0.3382 0
M  V30 23 H 2.9802 -1.5988 -1.1335 0
M  V30 24 H 1.2993 -3.2613 -0.8645 0
M  V30 25 H -0.4164 -2.8986 -0.7737 0
M  V30 26 H 0.6284 -2.5828 0.6251 0
M  V30 27 H -2.5354 0.654 0.9827 0
M  V30 28 H -3.6248 0.4179 -0.3741 0
M  V30 29 H -2.3772 1.6677 -0.4703 0
M  V30 30 H -1.6469 0.4255 -2.7463 0
M  V30 31 H -1.3792 -1.3266 -2.6667 0
M  V30 32 H -2.9849 -0.6739 -2.3852 0
M  V30 33 H 0.3296 0.0428 3.3749 0
M  V30 END ATOM
M  V30 BEGIN BOND
M  V30 1 1 1 2
M  V30 2 1 1 3
M  V30 3 1 2 4
M  V30 4 1 2 5
M  V30 5 1 2 6
M  V30 6 1 3 7
M  V30 7 1 3 8
M  V30 8 1 5 9
M  V30 9 1 5 10
M  V30 10 1 6 11
M  V30 11 1 6 12
M  V30 12 1 8 13
M  V30 13 1 4 7
M  V30 14 1 3 14
M  V30 15 1 5 15
M  V30 16 1 6 16
M  V30 17 1 7 17
M  V30 18 1 7 18
M  V30 19 1 8 19
M  V30 20 1 8 20
M  V30 21 1 9 21
M  V30 22 1 9 22
M  V30 23 1 9 23
M  V30 24 1 10 24
M  V30 25 1 10 25
M  V30 26 1 10 26
M  V30 27 1 11 27
M  V30 28 1 11 28
M  V30 29 1 11 29
M  V30 30 1 12 30
M  V30 31 1 12 31
M  V30 32 1 12 32
M  V30 33 1 13 33
M  V30 END BOND
M  V30 BEGIN COLLECTION
M  V30 MDLV30/STERAC1 ATOMS=(1 3)
M  V30 END COLLECTION
M  V30 END CTAB
M  END
>  <NO.>
1250

>  <Name>
promoxolane

>  <SMILES>
CC(C)C1(C(C)C)OCC(CO)O1

>  <logBB>


>  <Class>
1

>  <MW>
188.14

>  <nHBAcc>
3

>  <nHBDon>
1

>  <SLogP>
1.4

>  <TopoPSA>
38.69

>  <MMFF94 Energy>
44.604

$$$$
CC(C)CC(N(C)C)C1(c2ccc(Cl)cc2)CCC1
Actelion Java MolfileCreator 2.0

  0  0  0  0  0  0              0 V3000
M  V30 BEGIN CTAB
M  V30 COUNTS 45 46 0 0 0
M  V30 BEGIN ATOM
M  V30 1 Cl 3.833 2.1546 -3.833 0
M  V30 2 C 2.9448 1.6345 -2.4559 0
M  V30 3 C 3.18 0.3821 -1.9092 0
M  V30 4 C 1.9963 2.4686 -1.8835 0
M  V30 5 C 2.4512 -0.0334 -0.7874 0
M  V30 6 C 1.276 2.0379 -0.7611 0
M  V30 7 C 1.4559 0.7664 -0.1767 0
M  V30 8 C 0.6253 0.2702 1.1648 0
M  V30 9 C -0.9213 -0.0327 0.902 0 CFG=1
M  V30 10 C 1.3954 -0.8458 2.0191 0
M  V30 11 C 0.8971 1.1672 2.4569 0
M  V30 12 N -1.6659 1.0554 0.1821 0
M  V30 13 C -1.1395 -1.4833 0.3454 0
M  V30 14 C 0.9709 -0.1167 3.2953 0
M  V30 15 C -1.8242 2.2643 1.0076 0
M  V30 16 C -3.0253 0.6583 -0.2199 0
M  V30 17 C -0.4544 -1.9493 -0.9537 0
M  V30 18 C -0.8083 -3.4208 -1.2155 0
M  V30 19 C -0.7894 -1.1331 -2.1985 0
M  V30 20 H 3.9251 -0.279 -2.3422 0
M  V30 21 H 1.8045 3.4546 -2.2971 0
M  V30 22 H 2.6705 -1.0206 -0.3856 0
M  V30 23 H 0.5482 2.7245 -0.3429 0
M  V30 24 H -1.3963 -0.0887 1.8934 0
M  V30 25 H 1.0677 -1.8834 1.9429 0
M  V30 26 H 2.487 -0.8429 1.9009 0
M  V30 27 H 1.8464 1.7175 2.425 0
M  V30 28 H 0.1231 1.8536 2.8008 0
M  V30 29 H -2.2153 -1.6835 0.2633 0
M  V30 30 H -0.8347 -2.1795 1.1377 0
M  V30 31 H 0.0081 -0.4469 3.7002 0
M  V30 32 H 1.7049 -0.111 4.1054 0
M  V30 33 H -2.3337 2.0544 1.9554 0
M  V30 34 H -2.4072 3.0244 0.4727 0
M  V30 35 H -0.8725 2.7487 1.2224 0
M  V30 36 H -3.0221 -0.1292 -0.9742 0
M  V30 37 H -3.5495 1.4966 -0.6953 0
M  V30 38 H -3.625 0.3254 0.6353 0
M  V30 39 H 0.625 -1.9257 -0.8016 0
M  V30 40 H -0.5157 -4.0491 -0.3674 0
M  V30 41 H -1.8841 -3.5486 -1.3776 0
M  V30 42 H -0.2846 -3.7954 -2.1016 0
M  V30 43 H -0.5775 -0.0707 -2.068 0
M  V30 44 H -1.8414 -1.2443 -2.4793 0
M  V30 45 H -0.1907 -1.4774 -3.0495 0
M  V30 END ATOM
M  V30 BEGIN BOND
M  V30 1 1 1 2
M  V30 2 2 2 3
M  V30 3 1 2 4
M  V30 4 1 3 5
M  V30 5 2 4 6
M  V30 6 2 5 7
M  V30 7 1 7 8
M  V30 8 1 8 9
M  V30 9 1 8 10
M  V30 10 1 8 11
M  V30 11 1 9 12
M  V30 12 1 9 13
M  V30 13 1 10 14
M  V30 14 1 12 15
M  V30 15 1 12 16
M  V30 16 1 13 17
M  V30 17 1 17 18
M  V30 18 1 17 19
M  V30 19 1 6 7
M  V30 20 1 11 14
M  V30 21 1 3 20
M  V30 22 1 4 21
M  V30 23 1 5 22
M  V30 24 1 6 23
M  V30 25 1 9 24
M  V30 26 1 10 25
M  V30 27 1 10 26
M  V30 28 1 11 27
M  V30 29 1 11 28
M  V30 30 1 13 29
M  V30 31 1 13 30
M  V30 32 1 14 31
M  V30 33 1 14 32
M  V30 34 1 15 33
M  V30 35 1 15 34
M  V30 36 1 15 35
M  V30 37 1 16 36
M  V30 38 1 16 37
M  V30 39 1 16 38
M  V30 40 1 17 39
M  V30 41 1 18 40
M  V30 42 1 18 41
M  V30 43 1 18 42
M  V30 44 1 19 43
M  V30 45 1 19 44
M  V30 46 1 19 45
M  V30 END BOND
M  V30 BEGIN COLLECTION
M  V30 MDLV30/STERAC1 ATOMS=(1 9)
M  V30 END COLLECTION
M  V30 END CTAB
M  END
>  <NO.>
1252

>  <Name>
sibutramine

>  <SMILES>
CC(C)CC(N(C)C)C1(c2ccc(Cl)cc2)CCC1

>  <logBB>


>  <Class>
1

>  <MW>
279.18

>  <nHBAcc>
1

>  <nHBDon>
0

>  <SLogP>
4.74

>  <TopoPSA>
3.24

>  <MMFF94 Energy>
74.445

$$$$
CC(C)CC(OC(=O)c1ccco1)C(=O)N[C@@H]1C(=O)N2[C@@H](C(=O)O)C(C)(C)S[C@H]12
Actelion Java MolfileCreator 2.0

  0  0  0  0  0  0              0 V3000
M  V30 BEGIN CTAB
M  V30 COUNTS 53 55 0 0 0
M  V30 BEGIN ATOM
M  V30 1 S -1.8627 0.6475 2.1869 0
M  V30 2 C -1.9988 2.0046 3.4619 0
M  V30 3 C -2.2486 1.8282 0.8268 0 CFG=1
M  V30 4 C -1.404 3.2348 2.7476 0 CFG=1
M  V30 5 C -3.4789 2.1423 3.8435 0
M  V30 6 C -1.1742 1.6066 4.6877 0
M  V30 7 N -1.6656 3.0712 1.3282 0
M  V30 8 C -1.2769 1.9288 -0.3795 0 CFG=1
M  V30 9 C -1.9445 4.5669 3.2447 0
M  V30 10 C -0.712 3.1677 0.3664 0
M  V30 11 N -0.3372 0.7981 -0.5873 0
M  V30 12 O -2.9004 5.1873 2.8068 0
M  V30 13 O -1.2814 5.025 4.3276 0
M  V30 14 O 0.256 3.8859 0.2853 0
M  V30 15 C -0.7726 -0.4031 -1.1035 0
M  V30 16 O -1.9347 -0.5607 -1.4722 0
M  V30 17 C 0.3032 -1.507 -1.1643 0
M  V30 18 O 1.1843 -1.2681 -2.2738 0
M  V30 19 C -0.3521 -2.8849 -1.3572 0
M  V30 20 C 2.1813 -0.362 -2.0587 0
M  V30 21 C 0.5526 -4.08 -0.9857 0
M  V30 22 O 2.3185 0.2583 -1.0094 0
M  V30 23 C 3.0097 -0.2606 -3.2349 0
M  V30 24 C -0.2478 -5.3814 -1.0973 0
M  V30 25 C 1.8124 -4.1804 -1.8453 0
M  V30 26 O 4.075 0.6009 -3.2087 0
M  V30 27 C 2.9647 -0.8852 -4.47 0
M  V30 28 C 4.6928 0.5219 -4.4141 0
M  V30 29 C 4.0491 -0.3792 -5.2268 0
M  V30 30 H -3.311 1.9237 0.584 0
M  V30 31 H -0.3115 3.2651 2.8639 0
M  V30 32 H -4.1006 2.4489 2.995 0
M  V30 33 H -3.8827 1.1995 4.2315 0
M  V30 34 H -3.6119 2.8908 4.633 0
M  V30 35 H -0.119 1.4488 4.4364 0
M  V30 36 H -1.2133 2.3905 5.4525 0
M  V30 37 H -1.5514 0.6853 5.1467 0
M  V30 38 H -1.7644 2.2123 -1.3208 0
M  V30 39 H 0.6518 0.9019 -0.3486 0
M  V30 40 H -1.7094 5.8867 4.5225 0
M  V30 41 H 0.8552 -1.5085 -0.2152 0
M  V30 42 H -0.6803 -2.9926 -2.3996 0
M  V30 43 H -1.2528 -2.9429 -0.7319 0
M  V30 44 H 0.8625 -3.9697 0.0612 0
M  V30 45 H -1.1328 -5.3517 -0.4527 0
M  V30 46 H -0.5823 -5.5547 -2.1258 0
M  V30 47 H 0.358 -6.2397 -0.7883 0
M  V30 48 H 2.5018 -3.3578 -1.6358 0
M  V30 49 H 1.5689 -4.1666 -2.9128 0
M  V30 50 H 2.3545 -5.1088 -1.6349 0
M  V30 51 H 2.2321 -1.6174 -4.7822 0
M  V30 52 H 5.5593 1.1574 -4.5367 0
M  V30 53 H 4.327 -0.6375 -6.2391 0
M  V30 END ATOM
M  V30 BEGIN BOND
M  V30 1 1 1 2
M  V30 2 1 1 3
M  V30 3 1 2 4
M  V30 4 1 2 5
M  V30 5 1 2 6
M  V30 6 1 3 7
M  V30 7 1 3 8
M  V30 8 1 4 9
M  V30 9 1 7 10
M  V30 10 1 8 11
M  V30 11 2 9 12
M  V30 12 1 9 13
M  V30 13 2 10 14
M  V30 14 1 11 15
M  V30 15 2 15 16
M  V30 16 1 15 17
M  V30 17 1 17 18
M  V30 18 1 17 19
M  V30 19 1 18 20
M  V30 20 1 19 21
M  V30 21 2 20 22
M  V30 22 1 20 23
M  V30 23 1 21 24
M  V30 24 1 21 25
M  V30 25 1 23 26
M  V30 26 2 23 27
M  V30 27 1 26 28
M  V30 28 1 27 29
M  V30 29 1 4 7
M  V30 30 1 8 10
M  V30 31 2 28 29
M  V30 32 1 3 30
M  V30 33 1 4 31
M  V30 34 1 5 32
M  V30 35 1 5 33
M  V30 36 1 5 34
M  V30 37 1 6 35
M  V30 38 1 6 36
M  V30 39 1 6 37
M  V30 40 1 8 38
M  V30 41 1 11 39
M  V30 42 1 13 40
M  V30 43 1 17 41
M  V30 44 1 19 42
M  V30 45 1 19 43
M  V30 46 1 21 44
M  V30 47 1 24 45
M  V30 48 1 24 46
M  V30 49 1 24 47
M  V30 50 1 25 48
M  V30 51 1 25 49
M  V30 52 1 25 50
M  V30 53 1 27 51
M  V30 54 1 28 52
M  V30 55 1 29 53
M  V30 END BOND
M  V30 BEGIN COLLECTION
M  V30 MDLV30/STEABS ATOMS=(3 3 4 8)
M  V30 END COLLECTION
M  V30 END CTAB
M  END
>  <NO.>
1253

>  <Name>
furbucillin

>  <SMILES>
CC(C)CC(OC(=O)c1ccco1)C(=O)N[C@@H]1C(=O)N2[C@@H](C(=O)O)C(C)(C)S[C@H]12

>  <logBB>


>  <Class>
-1

>  <MW>
424.13

>  <nHBAcc>
7

>  <nHBDon>
2

>  <SLogP>
1.48

>  <TopoPSA>
126.15

>  <MMFF94 Energy>
54.643

$$$$
CC(C)CCNCC1COc2ccccc2O1
Actelion Java MolfileCreator 2.0

  0  0  0  0  0  0              0 V3000
M  V30 BEGIN CTAB
M  V30 COUNTS 38 39 0 0 0
M  V30 BEGIN ATOM
M  V30 1 O -2.6745 -1.4152 -1.1006 0
M  V30 2 C -3.3262 -1.3544 0.103 0
M  V30 3 C -1.2664 -1.6836 -0.9672 0 CFG=2
M  V30 4 C -2.7492 -1.7439 1.3143 0
M  V30 5 C -4.6322 -0.867 0.0792 0
M  V30 6 C -1.0048 -2.7042 0.1401 0
M  V30 7 C -0.4954 -0.357 -0.7906 0
M  V30 8 O -1.4799 -2.2499 1.4121 0
M  V30 9 C -3.4622 -1.6072 2.5043 0
M  V30 10 C -5.3527 -0.7446 1.2688 0
M  V30 11 N 0.9541 -0.5275 -0.9712 0
M  V30 12 C -4.766 -1.1095 2.4813 0
M  V30 13 C 1.6659 0.7216 -0.6801 0
M  V30 14 C 3.1681 0.5147 -0.9041 0
M  V30 15 C 4.0496 1.7476 -0.6232 0
M  V30 16 C 3.7251 2.9194 -1.5498 0
M  V30 17 C 3.9857 2.1892 0.839 0
M  V30 18 H -0.9624 -2.1319 -1.9215 0
M  V30 19 H -5.0849 -0.5734 -0.8636 0
M  V30 20 H 0.065 -2.9143 0.2389 0
M  V30 21 H -1.5047 -3.6551 -0.0868 0
M  V30 22 H -0.8736 0.3708 -1.5201 0
M  V30 23 H -0.7063 0.0641 0.1999 0
M  V30 24 H -3.0051 -1.8971 3.4463 0
M  V30 25 H -6.3693 -0.36 1.2503 0
M  V30 26 H 1.1445 -0.8023 -1.9354 0
M  V30 27 H -5.3246 -1.0094 3.4085 0
M  V30 28 H 1.2944 1.5191 -1.3324 0
M  V30 29 H 1.4812 1.011 0.3597 0
M  V30 30 H 3.5157 -0.3122 -0.2703 0
M  V30 31 H 3.338 0.1973 -1.9419 0
M  V30 32 H 5.086 1.4477 -0.8277 0
M  V30 33 H 3.7541 2.6069 -2.5987 0
M  V30 34 H 2.7355 3.3399 -1.3442 0
M  V30 35 H 4.458 3.7235 -1.4214 0
M  V30 36 H 4.2013 1.3508 1.5095 0
M  V30 37 H 3.0026 2.5935 1.1005 0
M  V30 38 H 4.7267 2.9718 1.0354 0
M  V30 END ATOM
M  V30 BEGIN BOND
M  V30 1 1 1 2
M  V30 2 1 1 3
M  V30 3 2 2 4
M  V30 4 1 2 5
M  V30 5 1 3 6
M  V30 6 1 3 7
M  V30 7 1 4 8
M  V30 8 1 4 9
M  V30 9 2 5 10
M  V30 10 1 7 11
M  V30 11 2 9 12
M  V30 12 1 11 13
M  V30 13 1 13 14
M  V30 14 1 14 15
M  V30 15 1 15 16
M  V30 16 1 15 17
M  V30 17 1 6 8
M  V30 18 1 10 12
M  V30 19 1 3 18
M  V30 20 1 5 19
M  V30 21 1 6 20
M  V30 22 1 6 21
M  V30 23 1 7 22
M  V30 24 1 7 23
M  V30 25 1 9 24
M  V30 26 1 10 25
M  V30 27 1 11 26
M  V30 28 1 12 27
M  V30 29 1 13 28
M  V30 30 1 13 29
M  V30 31 1 14 30
M  V30 32 1 14 31
M  V30 33 1 15 32
M  V30 34 1 16 33
M  V30 35 1 16 34
M  V30 36 1 16 35
M  V30 37 1 17 36
M  V30 38 1 17 37
M  V30 39 1 17 38
M  V30 END BOND
M  V30 BEGIN COLLECTION
M  V30 MDLV30/STERAC1 ATOMS=(1 3)
M  V30 END COLLECTION
M  V30 END CTAB
M  END
>  <NO.>
1256

>  <Name>
pentamoxane

>  <SMILES>
CC(C)CCNCC1COc2ccccc2O1

>  <logBB>


>  <Class>
1

>  <MW>
235.16

>  <nHBAcc>
3

>  <nHBDon>
1

>  <SLogP>
2.46

>  <TopoPSA>
30.49

>  <MMFF94 Energy>
63.996

$$$$
CC(C)CCOC(CN1CCCC1)c1ccccc1
Actelion Java MolfileCreator 2.0

  0  0  0  0  0  0              0 V3000
M  V30 BEGIN CTAB
M  V30 COUNTS 46 47 0 0 0
M  V30 BEGIN ATOM
M  V30 1 O 0.0 -0.1569 -0.9418 0
M  V30 2 C -0.3234 0.9997 -0.1465 0 CFG=2
M  V30 3 C 1.2642 -0.053 -1.5975 0
M  V30 4 C 0.4321 1.017 1.1711 0
M  V30 5 C -1.8754 1.0917 0.0082 0
M  V30 6 C 1.5037 -1.3525 -2.3616 0
M  V30 7 C 0.7195 -0.1717 1.86 0
M  V30 8 C 0.8458 2.236 1.7306 0
M  V30 9 N -2.5274 -0.0244 0.7388 0
M  V30 10 C 2.7832 -1.344 -3.2134 0
M  V30 11 C 1.4091 -0.1442 3.0726 0
M  V30 12 C 1.5362 2.262 2.9441 0
M  V30 13 C -3.8886 -0.2838 0.2467 0
M  V30 14 C -2.7282 0.2944 2.163 0
M  V30 15 C 4.0476 -1.2053 -2.3643 0
M  V30 16 C 2.8593 -2.6243 -4.0485 0
M  V30 17 C 1.8183 1.0726 3.6136 0
M  V30 18 C -4.7696 0.741 0.9371 0
M  V30 19 C -4.0784 0.9973 2.267 0
M  V30 20 H -0.0245 1.885 -0.7257 0
M  V30 21 H 2.0546 0.1087 -0.8587 0
M  V30 22 H 1.2431 0.7937 -2.2927 0
M  V30 23 H -2.2627 1.1035 -1.0197 0
M  V30 24 H -2.1444 2.0611 0.4485 0
M  V30 25 H 1.5241 -2.1887 -1.6503 0
M  V30 26 H 0.635 -1.5408 -3.0066 0
M  V30 27 H 0.3908 -1.1254 1.4492 0
M  V30 28 H 0.6334 3.1747 1.2242 0
M  V30 29 H 2.7394 -0.4936 -3.9057 0
M  V30 30 H 1.6222 -1.0734 3.5941 0
M  V30 31 H 1.8541 3.2109 3.3681 0
M  V30 32 H -3.9792 -0.2537 -0.8443 0
M  V30 33 H -4.1852 -1.294 0.5568 0
M  V30 34 H -2.765 -0.6469 2.7255 0
M  V30 35 H -1.9313 0.8939 2.6114 0
M  V30 36 H 4.0803 -0.2386 -1.8528 0
M  V30 37 H 4.1061 -1.9948 -1.6074 0
M  V30 38 H 4.9443 -1.2703 -2.9901 0
M  V30 39 H 1.9807 -2.7201 -4.6953 0
M  V30 40 H 2.9095 -3.5131 -3.4101 0
M  V30 41 H 3.7459 -2.6179 -4.6913 0
M  V30 42 H 2.355 1.0936 4.5583 0
M  V30 43 H -5.7943 0.3805 1.0699 0
M  V30 44 H -4.8112 1.6688 0.3543 0
M  V30 45 H -4.6626 0.597 3.1023 0
M  V30 46 H -3.9553 2.0743 2.4265 0
M  V30 END ATOM
M  V30 BEGIN BOND
M  V30 1 1 1 2
M  V30 2 1 1 3
M  V30 3 1 2 4
M  V30 4 1 2 5
M  V30 5 1 3 6
M  V30 6 2 4 7
M  V30 7 1 4 8
M  V30 8 1 5 9
M  V30 9 1 6 10
M  V30 10 1 7 11
M  V30 11 2 8 12
M  V30 12 1 9 13
M  V30 13 1 9 14
M  V30 14 1 10 15
M  V30 15 1 10 16
M  V30 16 2 11 17
M  V30 17 1 13 18
M  V30 18 1 14 19
M  V30 19 1 12 17
M  V30 20 1 18 19
M  V30 21 1 2 20
M  V30 22 1 3 21
M  V30 23 1 3 22
M  V30 24 1 5 23
M  V30 25 1 5 24
M  V30 26 1 6 25
M  V30 27 1 6 26
M  V30 28 1 7 27
M  V30 29 1 8 28
M  V30 30 1 10 29
M  V30 31 1 11 30
M  V30 32 1 12 31
M  V30 33 1 13 32
M  V30 34 1 13 33
M  V30 35 1 14 34
M  V30 36 1 14 35
M  V30 37 1 15 36
M  V30 38 1 15 37
M  V30 39 1 15 38
M  V30 40 1 16 39
M  V30 41 1 16 40
M  V30 42 1 16 41
M  V30 43 1 17 42
M  V30 44 1 18 43
M  V30 45 1 18 44
M  V30 46 1 19 45
M  V30 47 1 19 46
M  V30 END BOND
M  V30 BEGIN COLLECTION
M  V30 MDLV30/STERAC1 ATOMS=(1 2)
M  V30 END COLLECTION
M  V30 END CTAB
M  END
>  <NO.>
1257

>  <Name>
amixetrine

>  <SMILES>
CC(C)CCOC(CN1CCCC1)c1ccccc1

>  <logBB>


>  <Class>
1

>  <MW>
261.21

>  <nHBAcc>
2

>  <nHBDon>
0

>  <SLogP>
3.89

>  <TopoPSA>
12.47

>  <MMFF94 Energy>
77.533

$$$$
CC(C)COCC(CN(Cc1ccccc1)c1ccccc1)N1CCCC1
Actelion Java MolfileCreator 2.0

  0  0  0  0  0  0              0 V3000
M  V30 BEGIN CTAB
M  V30 COUNTS 61 63 0 0 0
M  V30 BEGIN ATOM
M  V30 1 O 0.0787 1.7325 -2.1266 0
M  V30 2 C 0.2749 1.1694 -0.8226 0
M  V30 3 C 1.2992 2.2289 -2.674 0
M  V30 4 C -1.0543 0.5885 -0.2806 0 CFG=1
M  V30 5 C 1.0251 2.8151 -4.0639 0
M  V30 6 N -1.6562 -0.566 -1.0014 0
M  V30 7 C -0.9536 0.3102 1.2513 0
M  V30 8 C 0.053 3.9947 -3.9894 0
M  V30 9 C 2.3312 3.2438 -4.7291 0
M  V30 10 C -2.5267 -0.1674 -2.1097 0
M  V30 11 C -0.7128 -1.5109 -1.5964 0
M  V30 12 N -0.0329 -0.7784 1.6211 0
M  V30 13 C -2.762 -1.4717 -2.8623 0
M  V30 14 C -1.6368 -2.3983 -2.4157 0
M  V30 15 C 1.3285 -0.5726 1.7716 0
M  V30 16 C -0.6383 -2.0645 1.9878 0
M  V30 17 C 2.2618 -1.5307 1.3444 0
M  V30 18 C 1.846 0.5967 2.3488 0
M  V30 19 C -1.1139 -2.0612 3.4275 0
M  V30 20 C 3.6406 -1.3324 1.4798 0
M  V30 21 C 3.2234 0.8033 2.4911 0
M  V30 22 C -0.1938 -2.112 4.4853 0
M  V30 23 C -2.4838 -2.0078 3.7272 0
M  V30 24 C 4.122 -0.1624 2.0543 0
M  V30 25 C -0.6327 -2.1119 5.8105 0
M  V30 26 C -2.9216 -2.0086 5.0531 0
M  V30 27 C -1.9962 -2.0614 6.0938 0
M  V30 28 H 1.0594 0.4074 -0.8684 0
M  V30 29 H 0.6175 1.973 -0.1596 0
M  V30 30 H 1.7156 2.9948 -2.0085 0
M  V30 31 H 2.0171 1.4039 -2.7528 0
M  V30 32 H -1.7886 1.4049 -0.354 0
M  V30 33 H 0.5533 2.0402 -4.6817 0
M  V30 34 H -0.7058 1.2414 1.7731 0
M  V30 35 H -1.9646 0.0677 1.6062 0
M  V30 36 H 0.4526 4.7988 -3.3618 0
M  V30 37 H -0.9116 3.6871 -3.5727 0
M  V30 38 H -0.1343 4.406 -4.987 0
M  V30 39 H 2.8356 4.0242 -4.1491 0
M  V30 40 H 3.0164 2.3948 -4.8231 0
M  V30 41 H 2.1455 3.6356 -5.7347 0
M  V30 42 H -2.0491 0.5575 -2.778 0
M  V30 43 H -3.47 0.2599 -1.7545 0
M  V30 44 H -0.16 -2.0962 -0.8584 0
M  V30 45 H 0.0029 -1.0283 -2.2718 0
M  V30 46 H -2.7392 -1.309 -3.945 0
M  V30 47 H -3.7335 -1.9096 -2.6068 0
M  V30 48 H -1.1203 -2.8558 -3.2651 0
M  V30 49 H -2.0454 -3.2049 -1.7947 0
M  V30 50 H -1.488 -2.2748 1.3262 0
M  V30 51 H 0.0403 -2.9135 1.8474 0
M  V30 52 H 1.9251 -2.444 0.8616 0
M  V30 53 H 1.1791 1.3599 2.7389 0
M  V30 54 H 4.3328 -2.0935 1.1301 0
M  V30 55 H 3.5871 1.7168 2.9541 0
M  V30 56 H 0.8735 -2.1433 4.2768 0
M  V30 57 H -3.2182 -1.962 2.9259 0
M  V30 58 H 5.1913 -0.0057 2.1645 0
M  V30 59 H 0.0911 -2.1476 6.6201 0
M  V30 60 H -3.985 -1.966 5.2734 0
M  V30 61 H -2.3372 -2.06 7.1256 0
M  V30 END ATOM
M  V30 BEGIN BOND
M  V30 1 1 1 2
M  V30 2 1 1 3
M  V30 3 1 2 4
M  V30 4 1 3 5
M  V30 5 1 4 6
M  V30 6 1 4 7
M  V30 7 1 5 8
M  V30 8 1 5 9
M  V30 9 1 6 10
M  V30 10 1 6 11
M  V30 11 1 7 12
M  V30 12 1 10 13
M  V30 13 1 11 14
M  V30 14 1 12 15
M  V30 15 1 12 16
M  V30 16 2 15 17
M  V30 17 1 15 18
M  V30 18 1 16 19
M  V30 19 1 17 20
M  V30 20 2 18 21
M  V30 21 2 19 22
M  V30 22 1 19 23
M  V30 23 2 20 24
M  V30 24 1 22 25
M  V30 25 2 23 26
M  V30 26 2 25 27
M  V30 27 1 13 14
M  V30 28 1 21 24
M  V30 29 1 26 27
M  V30 30 1 2 28
M  V30 31 1 2 29
M  V30 32 1 3 30
M  V30 33 1 3 31
M  V30 34 1 4 32
M  V30 35 1 5 33
M  V30 36 1 7 34
M  V30 37 1 7 35
M  V30 38 1 8 36
M  V30 39 1 8 37
M  V30 40 1 8 38
M  V30 41 1 9 39
M  V30 42 1 9 40
M  V30 43 1 9 41
M  V30 44 1 10 42
M  V30 45 1 10 43
M  V30 46 1 11 44
M  V30 47 1 11 45
M  V30 48 1 13 46
M  V30 49 1 13 47
M  V30 50 1 14 48
M  V30 51 1 14 49
M  V30 52 1 16 50
M  V30 53 1 16 51
M  V30 54 1 17 52
M  V30 55 1 18 53
M  V30 56 1 20 54
M  V30 57 1 21 55
M  V30 58 1 22 56
M  V30 59 1 23 57
M  V30 60 1 24 58
M  V30 61 1 25 59
M  V30 62 1 26 60
M  V30 63 1 27 61
M  V30 END BOND
M  V30 BEGIN COLLECTION
M  V30 MDLV30/STERAC1 ATOMS=(1 4)
M  V30 END COLLECTION
M  V30 END CTAB
M  END
>  <NO.>
1258

>  <Name>
bepridil

>  <SMILES>
CC(C)COCC(CN(Cc1ccccc1)c1ccccc1)N1CCCC1

>  <logBB>


>  <Class>
-1

>  <MW>
366.27

>  <nHBAcc>
3

>  <nHBDon>
0

>  <SLogP>
4.83

>  <TopoPSA>
15.71

>  <MMFF94 Energy>
103.57

$$$$
CC(C)N(CCNC(=O)CN1CCCC1=O)C(C)C
Actelion Java MolfileCreator 2.0

  0  0  0  0  0  0              0 V3000
M  V30 BEGIN CTAB
M  V30 COUNTS 46 46 0 0 0
M  V30 BEGIN ATOM
M  V30 1 O 1.6341 -0.1555 -3.8161 0
M  V30 2 C 0.4654 -0.4732 -3.9643 0
M  V30 3 N -0.6259 0.3565 -3.7997 0
M  V30 4 C -0.0503 -1.8297 -4.3682 0
M  V30 5 C -1.8812 -0.3259 -3.9717 0
M  V30 6 C -0.5374 1.7623 -3.4411 0
M  V30 7 C -1.497 -1.7921 -3.8851 0
M  V30 8 C -0.431 1.9034 -1.9235 0
M  V30 9 O -1.3364 2.3729 -1.2392 0
M  V30 10 N 0.7617 1.4475 -1.4036 0
M  V30 11 C 1.0508 1.4739 0.0172 0
M  V30 12 C 0.3607 0.3159 0.7673 0
M  V30 13 N 0.7994 0.1514 2.1667 0
M  V30 14 C 0.5576 -1.1992 2.7185 0
M  V30 15 C 0.4111 1.2745 3.0465 0
M  V30 16 C -0.7517 -1.8835 2.2984 0
M  V30 17 C 1.7484 -2.0939 2.3462 0
M  V30 18 C -1.0464 1.2715 3.516 0
M  V30 19 C 1.3583 1.3698 4.2523 0
M  V30 20 H 0.0095 -1.9227 -5.4567 0
M  V30 21 H 0.5194 -2.6281 -3.8874 0
M  V30 22 H -2.5897 -0.0401 -3.1888 0
M  V30 23 H -2.2846 -0.064 -4.9548 0
M  V30 24 H 0.3605 2.1953 -3.8948 0
M  V30 25 H -1.4189 2.2939 -3.8114 0
M  V30 26 H -1.5388 -2.1226 -2.8393 0
M  V30 27 H -2.1586 -2.4398 -4.4669 0
M  V30 28 H 1.433 1.0148 -2.0378 0
M  V30 29 H 0.7314 2.4464 0.4041 0
M  V30 30 H 2.1387 1.4003 0.1204 0
M  V30 31 H -0.7283 0.4293 0.7066 0
M  V30 32 H 0.6037 -0.5929 0.2024 0
M  V30 33 H 0.5549 -1.1594 3.8133 0
M  V30 34 H 0.5649 2.2142 2.5055 0
M  V30 35 H -1.6246 -1.2619 2.515 0
M  V30 36 H -0.8777 -2.8221 2.8502 0
M  V30 37 H -0.7669 -2.1335 1.2326 0
M  V30 38 H 1.654 -3.076 2.8227 0
M  V30 39 H 1.8219 -2.255 1.2655 0
M  V30 40 H 2.6911 -1.6526 2.6891 0
M  V30 41 H -1.7398 1.2369 2.6701 0
M  V30 42 H -1.2653 2.1882 4.0754 0
M  V30 43 H -1.2633 0.4286 4.1797 0
M  V30 44 H 1.1821 2.3029 4.7996 0
M  V30 45 H 1.2236 0.5472 4.961 0
M  V30 46 H 2.4048 1.3749 3.9275 0
M  V30 END ATOM
M  V30 BEGIN BOND
M  V30 1 2 1 2
M  V30 2 1 2 3
M  V30 3 1 2 4
M  V30 4 1 3 5
M  V30 5 1 3 6
M  V30 6 1 4 7
M  V30 7 1 6 8
M  V30 8 2 8 9
M  V30 9 1 8 10
M  V30 10 1 10 11
M  V30 11 1 11 12
M  V30 12 1 12 13
M  V30 13 1 13 14
M  V30 14 1 13 15
M  V30 15 1 14 16
M  V30 16 1 14 17
M  V30 17 1 15 18
M  V30 18 1 15 19
M  V30 19 1 5 7
M  V30 20 1 4 20
M  V30 21 1 4 21
M  V30 22 1 5 22
M  V30 23 1 5 23
M  V30 24 1 6 24
M  V30 25 1 6 25
M  V30 26 1 7 26
M  V30 27 1 7 27
M  V30 28 1 10 28
M  V30 29 1 11 29
M  V30 30 1 11 30
M  V30 31 1 12 31
M  V30 32 1 12 32
M  V30 33 1 14 33
M  V30 34 1 15 34
M  V30 35 1 16 35
M  V30 36 1 16 36
M  V30 37 1 16 37
M  V30 38 1 17 38
M  V30 39 1 17 39
M  V30 40 1 17 40
M  V30 41 1 18 41
M  V30 42 1 18 42
M  V30 43 1 18 43
M  V30 44 1 19 44
M  V30 45 1 19 45
M  V30 46 1 19 46
M  V30 END BOND
M  V30 END CTAB
M  END
>  <NO.>
1260

>  <Name>
pramiracetam

>  <SMILES>
CC(C)N(CCNC(=O)CN1CCCC1=O)C(C)C

>  <logBB>


>  <Class>
1

>  <MW>
269.21

>  <nHBAcc>
3

>  <nHBDon>
1

>  <SLogP>
0.84

>  <TopoPSA>
52.65

>  <MMFF94 Energy>
14.234

$$$$
CC(C)N1CCN(c2ccc(OC[C@H]3CO[C@](Cn4cncn4)(c4ccc(Cl)cc4Cl)O3)cc2)CC1
Actelion Java MolfileCreator 2.0

  0  0  0  0  0  0              0 V3000
M  V30 BEGIN CTAB
M  V30 COUNTS 67 71 0 0 0
M  V30 BEGIN ATOM
M  V30 1 Cl 5.5933 -6.5685 -2.0238 0
M  V30 2 C 3.8779 -6.6649 -1.8233 0
M  V30 3 C 3.1104 -5.635 -1.239 0
M  V30 4 C 3.2781 -7.8528 -2.2639 0
M  V30 5 C 1.7215 -5.8637 -1.1015 0
M  V30 6 C 3.7157 -4.3146 -0.7335 0 CFG=2
M  V30 7 C 1.9078 -8.0375 -2.1235 0
M  V30 8 C 1.126 -7.0491 -1.5412 0
M  V30 9 O 2.6476 -3.3718 -0.4704 0
M  V30 10 O 4.5548 -3.7655 -1.7621 0
M  V30 11 C 4.4786 -4.5592 0.5846 0
M  V30 12 Cl 1.1788 -9.4977 -2.6647 0
M  V30 13 C 2.6721 -2.4548 -1.578 0 CFG=2
M  V30 14 C 4.1314 -2.4165 -1.9438 0
M  V30 15 N 4.944 -3.3366 1.2081 0
M  V30 16 C 2.1141 -1.0934 -1.1789 0
M  V30 17 N 6.2313 -2.9511 1.1207 0
M  V30 18 C 4.2307 -2.4705 1.9801 0
M  V30 19 O 0.6953 -1.2209 -1.0374 0
M  V30 20 C 6.2206 -1.8277 1.8423 0
M  V30 21 N 5.01 -1.4908 2.3765 0
M  V30 22 C 0.0046 -0.0989 -0.6759 0
M  V30 23 C -1.3766 -0.2572 -0.6059 0
M  V30 24 C 0.551 1.1438 -0.3747 0
M  V30 25 C -2.2013 0.8164 -0.2476 0
M  V30 26 C -0.2831 2.214 -0.0134 0
M  V30 27 C -1.6779 2.0826 0.0499 0
M  V30 28 N -2.516 3.1315 0.4114 0
M  V30 29 C -1.9827 4.2967 1.1365 0
M  V30 30 C -3.6662 3.4346 -0.4621 0
M  V30 31 C -3.1119 5.0841 1.842 0
M  V30 32 C -4.7448 4.2498 0.2918 0
M  V30 33 N -4.2027 5.4726 0.9211 0
M  V30 34 C -5.2074 6.3328 1.5743 0
M  V30 35 C -6.0449 7.0652 0.5176 0
M  V30 36 C -6.1308 5.6389 2.5828 0
M  V30 37 H 3.884 -8.6351 -2.7153 0
M  V30 38 H 1.0756 -5.1108 -0.6487 0
M  V30 39 H 0.0536 -7.1888 -1.4258 0
M  V30 40 H 3.8282 -5.0439 1.3241 0
M  V30 41 H 5.3579 -5.1954 0.4444 0
M  V30 42 H 2.0726 -2.9042 -2.3794 0
M  V30 43 H 4.307 -2.0986 -2.975 0
M  V30 44 H 4.7165 -1.7784 -1.2735 0
M  V30 45 H 2.3389 -0.3599 -1.9621 0
M  V30 46 H 2.5502 -0.7835 -0.2217 0
M  V30 47 H 3.179 -2.591 2.2032 0
M  V30 48 H 7.1177 -1.2384 1.9826 0
M  V30 49 H -1.8223 -1.2243 -0.8225 0
M  V30 50 H 1.6195 1.326 -0.4048 0
M  V30 51 H -3.2699 0.6352 -0.1713 0
M  V30 52 H 0.1905 3.1683 0.1992 0
M  V30 53 H -1.4565 4.9586 0.4369 0
M  V30 54 H -1.2711 3.9786 1.9084 0
M  V30 55 H -3.3135 4.006 -1.3305 0
M  V30 56 H -4.147 2.5285 -0.8453 0
M  V30 57 H -2.6648 5.9814 2.2867 0
M  V30 58 H -3.5027 4.4713 2.664 0
M  V30 59 H -5.1984 3.5965 1.048 0
M  V30 60 H -5.5257 4.5076 -0.4313 0
M  V30 61 H -4.6662 7.1205 2.116 0
M  V30 62 H -5.4022 7.5747 -0.2089 0
M  V30 63 H -6.6723 7.829 0.9911 0
M  V30 64 H -6.7089 6.387 -0.0278 0
M  V30 65 H -6.7747 6.3768 3.075 0
M  V30 66 H -6.7866 4.9058 2.1019 0
M  V30 67 H -5.5637 5.1316 3.3689 0
M  V30 END ATOM
M  V30 BEGIN BOND
M  V30 1 1 1 2
M  V30 2 2 2 3
M  V30 3 1 2 4
M  V30 4 1 3 5
M  V30 5 1 3 6
M  V30 6 2 4 7
M  V30 7 2 5 8
M  V30 8 1 6 9
M  V30 9 1 6 10
M  V30 10 1 6 11
M  V30 11 1 7 12
M  V30 12 1 9 13
M  V30 13 1 10 14
M  V30 14 1 11 15
M  V30 15 1 13 16
M  V30 16 1 15 17
M  V30 17 1 15 18
M  V30 18 1 16 19
M  V30 19 2 17 20
M  V30 20 2 18 21
M  V30 21 1 19 22
M  V30 22 2 22 23
M  V30 23 1 22 24
M  V30 24 1 23 25
M  V30 25 2 24 26
M  V30 26 2 25 27
M  V30 27 1 27 28
M  V30 28 1 28 29
M  V30 29 1 28 30
M  V30 30 1 29 31
M  V30 31 1 30 32
M  V30 32 1 31 33
M  V30 33 1 33 34
M  V30 34 1 34 35
M  V30 35 1 34 36
M  V30 36 1 7 8
M  V30 37 1 13 14
M  V30 38 1 20 21
M  V30 39 1 26 27
M  V30 40 1 32 33
M  V30 41 1 4 37
M  V30 42 1 5 38
M  V30 43 1 8 39
M  V30 44 1 11 40
M  V30 45 1 11 41
M  V30 46 1 13 42
M  V30 47 1 14 43
M  V30 48 1 14 44
M  V30 49 1 16 45
M  V30 50 1 16 46
M  V30 51 1 18 47
M  V30 52 1 20 48
M  V30 53 1 23 49
M  V30 54 1 24 50
M  V30 55 1 25 51
M  V30 56 1 26 52
M  V30 57 1 29 53
M  V30 58 1 29 54
M  V30 59 1 30 55
M  V30 60 1 30 56
M  V30 61 1 31 57
M  V30 62 1 31 58
M  V30 63 1 32 59
M  V30 64 1 32 60
M  V30 65 1 34 61
M  V30 66 1 35 62
M  V30 67 1 35 63
M  V30 68 1 35 64
M  V30 69 1 36 65
M  V30 70 1 36 66
M  V30 71 1 36 67
M  V30 END BOND
M  V30 BEGIN COLLECTION
M  V30 MDLV30/STEABS ATOMS=(2 6 13)
M  V30 END COLLECTION
M  V30 END CTAB
M  END
>  <NO.>
1261

>  <Name>
terconazole

>  <SMILES>
CC(C)N1CCN(c2ccc(OC[C@H]3CO[C@](Cn4cncn4)(c4ccc(Cl)cc4Cl)O3)cc2)CC1

>  <logBB>


>  <Class>
-1

>  <MW>
531.18

>  <nHBAcc>
7

>  <nHBDon>
0

>  <SLogP>
4.46

>  <TopoPSA>
64.88

>  <MMFF94 Energy>
147.8

$$$$
CC(C)N1CCOC(c2ccc(C(F)(F)F)cc2)C1
Actelion Java MolfileCreator 2.0

  0  0  0  0  0  0              0 V3000
M  V30 BEGIN CTAB
M  V30 COUNTS 37 38 0 0 0
M  V30 BEGIN ATOM
M  V30 1 F -0.7208 0.8009 -6.5018 0
M  V30 2 C 0.1397 1.385 -5.621 0
M  V30 3 F -0.2008 2.7033 -5.5865 0
M  V30 4 F 1.3662 1.3319 -6.2123 0
M  V30 5 C 0.1095 0.75 -4.2533 0
M  V30 6 C -1.0732 0.1851 -3.7548 0
M  V30 7 C 1.2532 0.7465 -3.4426 0
M  V30 8 C -1.1066 -0.3859 -2.4799 0
M  V30 9 C 1.2185 0.1756 -2.168 0
M  V30 10 C 0.0407 -0.403 -1.6734 0
M  V30 11 C -0.0217 -1.0022 -0.2798 0 CFG=1
M  V30 12 O 1.2386 -1.6287 0.0273 0
M  V30 13 C -0.3617 0.0842 0.7747 0
M  V30 14 C 1.1967 -2.2078 1.3375 0
M  V30 15 N -0.3886 -0.4771 2.1458 0
M  V30 16 C 0.8996 -1.1462 2.4104 0
M  V30 17 C -0.7948 0.5193 3.1546 0
M  V30 18 C -1.2443 -0.1847 4.4415 0
M  V30 19 C 0.243 1.5981 3.4863 0
M  V30 20 H -1.9776 0.1849 -4.3619 0
M  V30 21 H 2.1827 1.1857 -3.8021 0
M  V30 22 H -2.0375 -0.82 -2.1194 0
M  V30 23 H 2.1213 0.1771 -1.5591 0
M  V30 24 H -0.7899 -1.7879 -0.2718 0
M  V30 25 H 0.3815 0.8895 0.7156 0
M  V30 26 H -1.3399 0.5189 0.5345 0
M  V30 27 H 0.4519 -3.0127 1.356 0
M  V30 28 H 2.1757 -2.659 1.528 0
M  V30 29 H 0.8873 -1.642 3.386 0
M  V30 30 H 1.7175 -0.4157 2.4065 0
M  V30 31 H -1.6881 1.0318 2.7725 0
M  V30 32 H -1.994 -0.9545 4.2267 0
M  V30 33 H -1.7025 0.5346 5.1296 0
M  V30 34 H -0.4089 -0.6571 4.9683 0
M  V30 35 H -0.1855 2.3352 4.175 0
M  V30 36 H 1.1302 1.1786 3.9715 0
M  V30 37 H 0.5629 2.1414 2.5923 0
M  V30 END ATOM
M  V30 BEGIN BOND
M  V30 1 1 1 2
M  V30 2 1 2 3
M  V30 3 1 2 4
M  V30 4 1 2 5
M  V30 5 2 5 6
M  V30 6 1 5 7
M  V30 7 1 6 8
M  V30 8 2 7 9
M  V30 9 2 8 10
M  V30 10 1 10 11
M  V30 11 1 11 12
M  V30 12 1 11 13
M  V30 13 1 12 14
M  V30 14 1 13 15
M  V30 15 1 14 16
M  V30 16 1 15 17
M  V30 17 1 17 18
M  V30 18 1 17 19
M  V30 19 1 9 10
M  V30 20 1 15 16
M  V30 21 1 6 20
M  V30 22 1 7 21
M  V30 23 1 8 22
M  V30 24 1 9 23
M  V30 25 1 11 24
M  V30 26 1 13 25
M  V30 27 1 13 26
M  V30 28 1 14 27
M  V30 29 1 14 28
M  V30 30 1 16 29
M  V30 31 1 16 30
M  V30 32 1 17 31
M  V30 33 1 18 32
M  V30 34 1 18 33
M  V30 35 1 18 34
M  V30 36 1 19 35
M  V30 37 1 19 36
M  V30 38 1 19 37
M  V30 END BOND
M  V30 BEGIN COLLECTION
M  V30 MDLV30/STERAC1 ATOMS=(1 11)
M  V30 END COLLECTION
M  V30 END CTAB
M  END
>  <NO.>
1262

>  <Name>
oxaflozane

>  <SMILES>
CC(C)N1CCOC(c2ccc(C(F)(F)F)cc2)C1

>  <logBB>


>  <Class>
1

>  <MW>
273.13

>  <nHBAcc>
2

>  <nHBDon>
0

>  <SLogP>
3.49

>  <TopoPSA>
12.47

>  <MMFF94 Energy>
121.3

$$$$
CC(C)NC(=O)OC1CCN(CCCC(=O)c2ccc(F)cc2)CC1
Actelion Java MolfileCreator 2.0

  0  0  0  0  0  0              0 V3000
M  V30 BEGIN CTAB
M  V30 COUNTS 52 53 0 0 0
M  V30 BEGIN ATOM
M  V30 1 F -8.3925 3.8728 3.7145 0
M  V30 2 C -7.4618 3.1906 3.0356 0
M  V30 3 C -7.7513 2.7162 1.7629 0
M  V30 4 C -6.2179 2.9679 3.6153 0
M  V30 5 C -6.7783 2.0053 1.0572 0
M  V30 6 C -5.2407 2.2565 2.9121 0
M  V30 7 C -5.516 1.7687 1.6264 0
M  V30 8 C -4.5093 1.0026 0.8272 0
M  V30 9 O -4.7948 0.6584 -0.3174 0
M  V30 10 C -3.1641 0.6871 1.4604 0
M  V30 11 C -2.2886 -0.1838 0.5553 0
M  V30 12 C -0.9236 -0.4493 1.2033 0
M  V30 13 N -0.1084 -1.4328 0.4693 0
M  V30 14 C 1.063 -1.8118 1.2776 0
M  V30 15 C 0.3174 -0.9297 -0.8471 0
M  V30 16 C 1.8919 -2.8951 0.5879 0
M  V30 17 C 1.1256 -1.9808 -1.6108 0
M  V30 18 C 2.3328 -2.4608 -0.8077 0
M  V30 19 O 3.2957 -1.396 -0.6556 0
M  V30 20 C 4.1433 -1.2051 -1.6962 0
M  V30 21 O 4.1507 -1.8537 -2.7293 0
M  V30 22 N 4.9736 -0.1707 -1.3929 0
M  V30 23 C 6.0219 0.3455 -2.2559 0
M  V30 24 C 7.1085 -0.6917 -2.5268 0
M  V30 25 C 5.4652 0.9277 -3.5527 0
M  V30 26 H -8.7281 2.9006 1.3268 0
M  V30 27 H -6.0171 3.3508 4.6115 0
M  V30 28 H -7.0093 1.6352 0.0593 0
M  V30 29 H -4.278 2.101 3.3893 0
M  V30 30 H -2.6481 1.6325 1.6625 0
M  V30 31 H -3.3374 0.1583 2.4043 0
M  V30 32 H -2.8005 -1.1341 0.3575 0
M  V30 33 H -2.1635 0.3206 -0.4093 0
M  V30 34 H -0.3779 0.4959 1.3225 0
M  V30 35 H -1.1116 -0.836 2.2137 0
M  V30 36 H 1.6903 -0.936 1.49 0
M  V30 37 H 0.7316 -2.2116 2.2441 0
M  V30 38 H 0.905 -0.0085 -0.7414 0
M  V30 39 H -0.5537 -0.6887 -1.4651 0
M  V30 40 H 1.3008 -3.8167 0.5164 0
M  V30 41 H 2.7702 -3.1139 1.2066 0
M  V30 42 H 0.4794 -2.8372 -1.8417 0
M  V30 43 H 1.4449 -1.5487 -2.5658 0
M  V30 44 H 2.8075 -3.3168 -1.3031 0
M  V30 45 H 4.8219 0.2488 -0.4868 0
M  V30 46 H 6.4784 1.1671 -1.6903 0
M  V30 47 H 6.7319 -1.533 -3.1172 0
M  V30 48 H 7.5018 -1.0954 -1.5875 0
M  V30 49 H 7.9421 -0.2434 -3.0775 0
M  V30 50 H 6.2582 1.4158 -4.129 0
M  V30 51 H 5.0172 0.1564 -4.1873 0
M  V30 52 H 4.6916 1.6742 -3.342 0
M  V30 END ATOM
M  V30 BEGIN BOND
M  V30 1 1 1 2
M  V30 2 2 2 3
M  V30 3 1 2 4
M  V30 4 1 3 5
M  V30 5 2 4 6
M  V30 6 2 5 7
M  V30 7 1 7 8
M  V30 8 2 8 9
M  V30 9 1 8 10
M  V30 10 1 10 11
M  V30 11 1 11 12
M  V30 12 1 12 13
M  V30 13 1 13 14
M  V30 14 1 13 15
M  V30 15 1 14 16
M  V30 16 1 15 17
M  V30 17 1 16 18
M  V30 18 1 18 19
M  V30 19 1 19 20
M  V30 20 2 20 21
M  V30 21 1 20 22
M  V30 22 1 22 23
M  V30 23 1 23 24
M  V30 24 1 23 25
M  V30 25 1 6 7
M  V30 26 1 17 18
M  V30 27 1 3 26
M  V30 28 1 4 27
M  V30 29 1 5 28
M  V30 30 1 6 29
M  V30 31 1 10 30
M  V30 32 1 10 31
M  V30 33 1 11 32
M  V30 34 1 11 33
M  V30 35 1 12 34
M  V30 36 1 12 35
M  V30 37 1 14 36
M  V30 38 1 14 37
M  V30 39 1 15 38
M  V30 40 1 15 39
M  V30 41 1 16 40
M  V30 42 1 16 41
M  V30 43 1 17 42
M  V30 44 1 17 43
M  V30 45 1 18 44
M  V30 46 1 22 45
M  V30 47 1 23 46
M  V30 48 1 24 47
M  V30 49 1 24 48
M  V30 50 1 24 49
M  V30 51 1 25 50
M  V30 52 1 25 51
M  V30 53 1 25 52
M  V30 END BOND
M  V30 END CTAB
M  END
>  <NO.>
1264

>  <Name>
carperone

>  <SMILES>
CC(C)NC(=O)OC1CCN(CCCC(=O)c2ccc(F)cc2)CC1

>  <logBB>


>  <Class>
1

>  <MW>
350.2

>  <nHBAcc>
4

>  <nHBDon>
1

>  <SLogP>
3.39

>  <TopoPSA>
58.64

>  <MMFF94 Energy>
-33.755

$$$$
CC(C)NCC(O)c1ccc(O)c(O)c1
Actelion Java MolfileCreator 2.0

  0  0  0  0  0  0              0 V3000
M  V30 BEGIN CTAB
M  V30 COUNTS 32 32 0 0 0
M  V30 BEGIN ATOM
M  V30 1 O -1.322 -4.6722 -1.8668 0
M  V30 2 C -1.284 -3.3735 -1.4429 0
M  V30 3 C -2.2756 -2.4883 -1.8575 0
M  V30 4 C -0.2594 -2.9355 -0.6039 0
M  V30 5 O -3.2729 -2.9315 -2.6795 0
M  V30 6 C -2.2442 -1.1612 -1.4395 0
M  V30 7 C -0.214 -1.5986 -0.1619 0
M  V30 8 C -1.2166 -0.7197 -0.5984 0
M  V30 9 C 0.9326 -1.1811 0.7421 0 CFG=1
M  V30 10 O 2.1504 -1.2116 -0.0174 0
M  V30 11 C 0.83 0.1933 1.4586 0
M  V30 12 N 1.0941 1.3278 0.5481 0
M  V30 13 C 1.1127 2.6222 1.243 0
M  V30 14 C 1.7278 3.6637 0.3043 0
M  V30 15 C -0.2933 3.0664 1.6494 0
M  V30 16 H -0.5542 -5.1438 -1.5102 0
M  V30 17 H 0.5197 -3.6243 -0.2859 0
M  V30 18 H -3.8712 -2.1946 -2.8749 0
M  V30 19 H -3.0041 -0.4543 -1.758 0
M  V30 20 H -1.2143 0.3266 -0.2999 0
M  V30 21 H 1.0272 -1.9403 1.529 0
M  V30 22 H 1.9112 -0.9048 -0.9109 0
M  V30 23 H -0.1488 0.2825 1.9409 0
M  V30 24 H 1.5958 0.2107 2.2448 0
M  V30 25 H 2.0146 1.1589 0.1337 0
M  V30 26 H 1.7477 2.5626 2.1356 0
M  V30 27 H 1.1418 3.773 -0.6154 0
M  V30 28 H 2.7503 3.3867 0.024 0
M  V30 29 H 1.7746 4.6438 0.7915 0
M  V30 30 H -0.7279 2.3995 2.4004 0
M  V30 31 H -0.9692 3.0936 0.7872 0
M  V30 32 H -0.2691 4.0711 2.0859 0
M  V30 END ATOM
M  V30 BEGIN BOND
M  V30 1 1 1 2
M  V30 2 2 2 3
M  V30 3 1 2 4
M  V30 4 1 3 5
M  V30 5 1 3 6
M  V30 6 2 4 7
M  V30 7 2 6 8
M  V30 8 1 7 9
M  V30 9 1 9 10
M  V30 10 1 9 11
M  V30 11 1 11 12
M  V30 12 1 12 13
M  V30 13 1 13 14
M  V30 14 1 13 15
M  V30 15 1 7 8
M  V30 16 1 1 16
M  V30 17 1 4 17
M  V30 18 1 5 18
M  V30 19 1 6 19
M  V30 20 1 8 20
M  V30 21 1 9 21
M  V30 22 1 10 22
M  V30 23 1 11 23
M  V30 24 1 11 24
M  V30 25 1 12 25
M  V30 26 1 13 26
M  V30 27 1 14 27
M  V30 28 1 14 28
M  V30 29 1 14 29
M  V30 30 1 15 30
M  V30 31 1 15 31
M  V30 32 1 15 32
M  V30 END BOND
M  V30 BEGIN COLLECTION
M  V30 MDLV30/STERAC1 ATOMS=(1 9)
M  V30 END COLLECTION
M  V30 END CTAB
M  END
>  <NO.>
1265

>  <Name>
isoproterenol hydrochloride

>  <SMILES>
CC(C)NCC(O)c1ccc(O)c(O)c1

>  <logBB>


>  <Class>
-1

>  <MW>
211.12

>  <nHBAcc>
4

>  <nHBDon>
4

>  <SLogP>
1.13

>  <TopoPSA>
72.72

>  <MMFF94 Energy>
45.89

$$$$
CC(C)NNC(=O)COc1ccc(Cl)cc1
Actelion Java MolfileCreator 2.0

  0  0  0  0  0  0              0 V3000
M  V30 BEGIN CTAB
M  V30 COUNTS 31 31 0 0 0
M  V30 BEGIN ATOM
M  V30 1 Cl 1.108 -4.4378 5.8674 0
M  V30 2 C 1.1057 -3.4954 4.4286 0
M  V30 3 C -0.1042 -3.1358 3.8379 0
M  V30 4 C 2.3105 -3.0952 3.8593 0
M  V30 5 C -0.1122 -2.3687 2.667 0
M  V30 6 C 2.2996 -2.3299 2.6911 0
M  V30 7 C 1.0919 -1.9625 2.0892 0
M  V30 8 O 1.2298 -1.2151 0.954 0
M  V30 9 C 0.0433 -0.8034 0.2941 0
M  V30 10 C 0.359 0.0192 -0.9551 0
M  V30 11 O 1.4911 0.2403 -1.3806 0
M  V30 12 N -0.7868 0.5054 -1.5838 0
M  V30 13 N -0.6609 1.2609 -2.7722 0
M  V30 14 C -0.7727 2.7068 -2.5062 0
M  V30 15 C -0.3044 3.4712 -3.7454 0
M  V30 16 C -2.2146 3.0892 -2.1699 0
M  V30 17 H -1.0451 -3.4492 4.283 0
M  V30 18 H 3.2577 -3.3719 4.3138 0
M  V30 19 H -1.0737 -2.11 2.2373 0
M  V30 20 H 3.2406 -2.0163 2.2438 0
M  V30 21 H -0.5608 -0.1734 0.9585 0
M  V30 22 H -0.5344 -1.6774 -0.0306 0
M  V30 23 H -1.7186 0.2719 -1.2518 0
M  V30 24 H 0.2885 1.0797 -3.1312 0
M  V30 25 H -0.1192 2.9861 -1.6698 0
M  V30 26 H -0.3659 4.5522 -3.5786 0
M  V30 27 H 0.7379 3.233 -3.9844 0
M  V30 28 H -0.9166 3.2311 -4.6221 0
M  V30 29 H -2.5556 2.5988 -1.2519 0
M  V30 30 H -2.9017 2.8119 -2.9774 0
M  V30 31 H -2.3001 4.1702 -2.0143 0
M  V30 END ATOM
M  V30 BEGIN BOND
M  V30 1 1 1 2
M  V30 2 2 2 3
M  V30 3 1 2 4
M  V30 4 1 3 5
M  V30 5 2 4 6
M  V30 6 2 5 7
M  V30 7 1 7 8
M  V30 8 1 8 9
M  V30 9 1 9 10
M  V30 10 2 10 11
M  V30 11 1 10 12
M  V30 12 1 12 13
M  V30 13 1 13 14
M  V30 14 1 14 15
M  V30 15 1 14 16
M  V30 16 1 6 7
M  V30 17 1 3 17
M  V30 18 1 4 18
M  V30 19 1 5 19
M  V30 20 1 6 20
M  V30 21 1 9 21
M  V30 22 1 9 22
M  V30 23 1 12 23
M  V30 24 1 13 24
M  V30 25 1 14 25
M  V30 26 1 15 26
M  V30 27 1 15 27
M  V30 28 1 15 28
M  V30 29 1 16 29
M  V30 30 1 16 30
M  V30 31 1 16 31
M  V30 END BOND
M  V30 END CTAB
M  END
>  <NO.>
1266

>  <Name>
iproclozide

>  <SMILES>
CC(C)NNC(=O)COc1ccc(Cl)cc1

>  <logBB>


>  <Class>
1

>  <MW>
242.08

>  <nHBAcc>
3

>  <nHBDon>
2

>  <SLogP>
1.75

>  <TopoPSA>
50.36

>  <MMFF94 Energy>
77.293

$$$$
CC(C)NNC(=O)c1ccncc1
Actelion Java MolfileCreator 2.0

  0  0  0  0  0  0              0 V3000
M  V30 BEGIN CTAB
M  V30 COUNTS 26 26 0 0 0
M  V30 BEGIN ATOM
M  V30 1 O -0.6225 -1.6348 1.0118 0
M  V30 2 C -0.2085 -0.4799 0.9459 0
M  V30 3 N 0.7619 -0.0713 0.0407 0
M  V30 4 C -0.7683 0.5671 1.839 0
M  V30 5 N 1.3609 -1.0294 -0.8096 0
M  V30 6 C -2.0664 0.3925 2.3211 0
M  V30 7 C -0.0335 1.6878 2.2279 0
M  V30 8 C 0.7622 -1.0022 -2.1566 0
M  V30 9 C -2.588 1.3649 3.1529 0
M  V30 10 C -0.6466 2.6019 3.0671 0
M  V30 11 C 1.1996 0.2468 -2.9228 0
M  V30 12 C 1.1984 -2.2584 -2.9122 0
M  V30 13 N -1.9079 2.4691 3.5287 0
M  V30 14 H 1.0571 0.896 -0.0403 0
M  V30 15 H 1.1562 -1.9496 -0.3932 0
M  V30 16 H -2.6563 -0.4783 2.0537 0
M  V30 17 H 0.9938 1.8475 1.9254 0
M  V30 18 H -0.3326 -1.0164 -2.0815 0
M  V30 19 H -3.5948 1.2804 3.5527 0
M  V30 20 H -0.1225 3.4908 3.4083 0
M  V30 21 H 0.8473 1.1611 -2.4336 0
M  V30 22 H 0.7877 0.2398 -3.9379 0
M  V30 23 H 2.2908 0.3051 -3.0047 0
M  V30 24 H 2.2882 -2.3073 -3.0173 0
M  V30 25 H 0.7628 -2.2754 -3.9172 0
M  V30 26 H 0.8669 -3.1649 -2.3935 0
M  V30 END ATOM
M  V30 BEGIN BOND
M  V30 1 2 1 2
M  V30 2 1 2 3
M  V30 3 1 2 4
M  V30 4 1 3 5
M  V30 5 2 4 6
M  V30 6 1 4 7
M  V30 7 1 5 8
M  V30 8 1 6 9
M  V30 9 2 7 10
M  V30 10 1 8 11
M  V30 11 1 8 12
M  V30 12 2 9 13
M  V30 13 1 10 13
M  V30 14 1 3 14
M  V30 15 1 5 15
M  V30 16 1 6 16
M  V30 17 1 7 17
M  V30 18 1 8 18
M  V30 19 1 9 19
M  V30 20 1 10 20
M  V30 21 1 11 21
M  V30 22 1 11 22
M  V30 23 1 11 23
M  V30 24 1 12 24
M  V30 25 1 12 25
M  V30 26 1 12 26
M  V30 END BOND
M  V30 END CTAB
M  END
>  <NO.>
1267

>  <Name>
iproniazid

>  <SMILES>
CC(C)NNC(=O)c1ccncc1

>  <logBB>


>  <Class>
1

>  <MW>
179.11

>  <nHBAcc>
3

>  <nHBDon>
2

>  <SLogP>
0.72

>  <TopoPSA>
54.02

>  <MMFF94 Energy>
43.836

$$$$
CC(C)NS(=O)(=O)CCN1C(=O)c2ccccc2C1=O
Actelion Java MolfileCreator 2.0

  0  0  0  0  0  0              0 V3000
M  V30 BEGIN CTAB
M  V30 COUNTS 36 37 0 0 0
M  V30 BEGIN ATOM
M  V30 1 S 0.0805 -1.2093 0.8867 0
M  V30 2 O 1.2038 -0.5513 0.2538 0
M  V30 3 O -0.376 -2.5128 0.4693 0
M  V30 4 N 0.4868 -1.2583 2.5137 0
M  V30 5 C -1.2953 -0.0761 0.8884 0
M  V30 6 C 0.0308 -2.3058 3.4471 0
M  V30 7 C -1.8036 0.1773 -0.5233 0
M  V30 8 C -1.4823 -2.4546 3.4827 0
M  V30 9 C 0.7483 -3.6247 3.1894 0
M  V30 10 N -0.9061 0.9782 -1.337 0
M  V30 11 C -0.3114 0.5346 -2.4883 0
M  V30 12 C -0.5844 2.282 -1.0726 0
M  V30 13 O -0.4333 -0.5359 -3.0509 0
M  V30 14 C 0.5093 1.6376 -2.9842 0
M  V30 15 O -0.9705 2.9906 -0.1622 0
M  V30 16 C 0.3397 2.7059 -2.1221 0
M  V30 17 C 1.3262 1.7169 -4.0947 0
M  V30 18 C 0.9777 3.9147 -2.32 0
M  V30 19 C 1.9857 2.9302 -4.3167 0
M  V30 20 C 1.8128 4.0198 -3.4371 0
M  V30 21 H 1.443 -0.9265 2.6585 0
M  V30 22 H -0.9664 0.8436 1.3797 0
M  V30 23 H -2.0924 -0.533 1.4801 0
M  V30 24 H 0.3398 -1.9618 4.4432 0
M  V30 25 H -2.0174 -0.7663 -1.0365 0
M  V30 26 H -2.7424 0.7396 -0.4519 0
M  V30 27 H -1.9639 -1.4923 3.6856 0
M  V30 28 H -1.7794 -3.1481 4.277 0
M  V30 29 H -1.8861 -2.8431 2.5435 0
M  V30 30 H 1.8331 -3.4782 3.1502 0
M  V30 31 H 0.5343 -4.3396 3.9912 0
M  V30 32 H 0.4417 -4.0884 2.2479 0
M  V30 33 H 1.4495 0.8699 -4.7617 0
M  V30 34 H 0.8357 4.7442 -1.6351 0
M  V30 35 H 2.6423 3.0363 -5.1785 0
M  V30 36 H 2.3383 4.9532 -3.6317 0
M  V30 END ATOM
M  V30 BEGIN BOND
M  V30 1 2 1 2
M  V30 2 2 1 3
M  V30 3 1 1 4
M  V30 4 1 1 5
M  V30 5 1 4 6
M  V30 6 1 5 7
M  V30 7 1 6 8
M  V30 8 1 6 9
M  V30 9 1 7 10
M  V30 10 1 10 11
M  V30 11 1 10 12
M  V30 12 2 11 13
M  V30 13 1 11 14
M  V30 14 2 12 15
M  V30 15 1 12 16
M  V30 16 1 14 17
M  V30 17 1 16 18
M  V30 18 2 17 19
M  V30 19 2 18 20
M  V30 20 2 14 16
M  V30 21 1 19 20
M  V30 22 1 4 21
M  V30 23 1 5 22
M  V30 24 1 5 23
M  V30 25 1 6 24
M  V30 26 1 7 25
M  V30 27 1 7 26
M  V30 28 1 8 27
M  V30 29 1 8 28
M  V30 30 1 8 29
M  V30 31 1 9 30
M  V30 32 1 9 31
M  V30 33 1 9 32
M  V30 34 1 17 33
M  V30 35 1 18 34
M  V30 36 1 19 35
M  V30 37 1 20 36
M  V30 END BOND
M  V30 END CTAB
M  END
>  <NO.>
1268

>  <Name>
taltrimide

>  <SMILES>
CC(C)NS(=O)(=O)CCN1C(=O)c2ccccc2C1=O

>  <logBB>


>  <Class>
1

>  <MW>
296.08

>  <nHBAcc>
4

>  <nHBDon>
1

>  <SLogP>
0.61

>  <TopoPSA>
83.55

>  <MMFF94 Energy>
-89.081

$$$$
CC(C)N[C@H]1C2CCC(CC2)[C@]1(O)c1ccc(Cl)c(Cl)c1
Actelion Java MolfileCreator 2.0

  0  0  0  0  0  0              0 V3000
M  V30 BEGIN CTAB
M  V30 COUNTS 44 46 0 0 0
M  V30 BEGIN ATOM
M  V30 1 Cl -0.569 3.3361 -3.5806 0
M  V30 2 C -0.0555 1.7122 -3.2807 0
M  V30 3 C 0.2081 0.8096 -4.3123 0
M  V30 4 C 0.0984 1.3184 -1.9425 0
M  V30 5 Cl 0.0386 1.2259 -5.9797 0
M  V30 6 C 0.6325 -0.4803 -4.0012 0
M  V30 7 C 0.5067 0.0165 -1.6038 0
M  V30 8 C 0.7841 -0.8666 -2.6657 0
M  V30 9 C 0.6977 -0.4479 -0.1533 0 CFG=2
M  V30 10 O 0.4655 -1.8773 -0.1517 0
M  V30 11 C -0.2796 0.2002 0.9239 0 CFG=1
M  V30 12 C 2.1766 -0.2403 0.3088 0
M  V30 13 N -1.316 -0.7576 1.3952 0
M  V30 14 C 0.5741 0.6877 2.1342 0
M  V30 15 C 2.4078 -0.975 1.649 0
M  V30 16 C 2.4676 1.2508 0.5592 0
M  V30 17 C -2.4637 -0.8719 0.4735 0
M  V30 18 C 1.424 -0.4618 2.7069 0
M  V30 19 C 1.5255 1.7957 1.6394 0
M  V30 20 C -3.1881 -2.1789 0.802 0
M  V30 21 C -3.4338 0.3037 0.6119 0
M  V30 22 H -0.0905 2.0609 -1.1722 0
M  V30 23 H 0.8496 -1.1964 -4.7901 0
M  V30 24 H 1.1218 -1.8818 -2.4547 0
M  V30 25 H -0.1887 -2.0153 0.5667 0
M  V30 26 H -0.7777 1.0928 0.5395 0
M  V30 27 H 2.8778 -0.6426 -0.4326 0
M  V30 28 H -1.6649 -0.4577 2.3081 0
M  V30 29 H -0.0756 1.0956 2.9182 0
M  V30 30 H 2.3015 -2.0594 1.5309 0
M  V30 31 H 3.4368 -0.8098 1.9926 0
M  V30 32 H 2.3715 1.8369 -0.3601 0
M  V30 33 H 3.5075 1.3783 0.8857 0
M  V30 34 H -2.1214 -0.9361 -0.5652 0
M  V30 35 H 1.9811 -0.1136 3.5854 0
M  V30 36 H 0.7866 -1.2827 3.0547 0
M  V30 37 H 2.113 2.1887 2.4781 0
M  V30 38 H 0.9509 2.6405 1.241 0
M  V30 39 H -3.5709 -2.1824 1.8291 0
M  V30 40 H -2.5184 -3.0387 0.6871 0
M  V30 41 H -4.0375 -2.33 0.1268 0
M  V30 42 H -2.9683 1.2509 0.3232 0
M  V30 43 H -3.7976 0.4052 1.6407 0
M  V30 44 H -4.3055 0.1597 -0.036 0
M  V30 END ATOM
M  V30 BEGIN BOND
M  V30 1 1 1 2
M  V30 2 2 2 3
M  V30 3 1 2 4
M  V30 4 1 3 5
M  V30 5 1 3 6
M  V30 6 2 4 7
M  V30 7 2 6 8
M  V30 8 1 7 9
M  V30 9 1 9 10
M  V30 10 1 9 11
M  V30 11 1 9 12
M  V30 12 1 11 13
M  V30 13 1 11 14
M  V30 14 1 12 15
M  V30 15 1 12 16
M  V30 16 1 13 17
M  V30 17 1 14 18
M  V30 18 1 14 19
M  V30 19 1 17 20
M  V30 20 1 17 21
M  V30 21 1 7 8
M  V30 22 1 15 18
M  V30 23 1 16 19
M  V30 24 1 4 22
M  V30 25 1 6 23
M  V30 26 1 8 24
M  V30 27 1 10 25
M  V30 28 1 11 26
M  V30 29 1 12 27
M  V30 30 1 13 28
M  V30 31 1 14 29
M  V30 32 1 15 30
M  V30 33 1 15 31
M  V30 34 1 16 32
M  V30 35 1 16 33
M  V30 36 1 17 34
M  V30 37 1 18 35
M  V30 38 1 18 36
M  V30 39 1 19 37
M  V30 40 1 19 38
M  V30 41 1 20 39
M  V30 42 1 20 40
M  V30 43 1 20 41
M  V30 44 1 21 42
M  V30 45 1 21 43
M  V30 46 1 21 44
M  V30 END BOND
M  V30 BEGIN COLLECTION
M  V30 MDLV30/STEABS ATOMS=(2 9 11)
M  V30 END COLLECTION
M  V30 END CTAB
M  END
>  <NO.>
1269

>  <Name>
zinc1150

>  <SMILES>
CC(C)N[C@H]1C2CCC(CC2)[C@]1(O)c1ccc(Cl)c(Cl)c1

>  <logBB>


>  <Class>
1

>  <MW>
327.12

>  <nHBAcc>
2

>  <nHBDon>
2

>  <SLogP>
4.37

>  <TopoPSA>
32.26

>  <MMFF94 Energy>
85.984

$$$$
CC(C)Nc1cccnc1N1CCN(C(=O)c2cc3cc(NS(C)(=O)=O)ccc3[nH]2)CC1
Actelion Java MolfileCreator 2.0

  0  0  0  0  0  0              0 V3000
M  V30 BEGIN CTAB
M  V30 COUNTS 60 63 0 0 0
M  V30 BEGIN ATOM
M  V30 1 S -1.4427 -6.7464 4.5741 0
M  V30 2 O -2.0619 -7.3021 5.7597 0
M  V30 3 O -1.2774 -7.5385 3.3769 0
M  V30 4 N -2.3208 -5.3383 4.2336 0
M  V30 5 C 0.1322 -6.0742 5.0575 0
M  V30 6 C -2.3294 -4.8895 2.8787 0
M  V30 7 C -1.3594 -3.9719 2.463 0
M  V30 8 C -3.2617 -5.4071 1.981 0
M  V30 9 C -1.3528 -3.5489 1.1197 0
M  V30 10 C -3.2639 -5.0072 0.6408 0
M  V30 11 C -2.2985 -4.0752 0.2442 0
M  V30 12 C -0.5428 -2.6519 0.3681 0
M  V30 13 N -2.0508 -3.5239 -0.9891 0
M  V30 14 C -1.0165 -2.6114 -0.9326 0
M  V30 15 C -0.5886 -1.9087 -2.1273 0
M  V30 16 O -0.8139 -2.3986 -3.2345 0
M  V30 17 N 0.0567 -0.6834 -2.0116 0
M  V30 18 C 0.0718 0.1709 -0.8153 0
M  V30 19 C 0.6526 -0.0983 -3.2226 0
M  V30 20 C 0.1096 1.674 -1.1555 0
M  V30 21 C 1.7549 0.9184 -2.8912 0
M  V30 22 N 1.2517 2.0038 -2.0312 0
M  V30 23 C 1.0619 3.2391 -2.6879 0
M  V30 24 N 0.599 3.2169 -3.9613 0
M  V30 25 C 1.3179 4.4466 -1.9775 0
M  V30 26 C 0.3518 4.4015 -4.555 0
M  V30 27 N 1.8375 4.3945 -0.6911 0
M  V30 28 C 1.0249 5.6416 -2.6366 0
M  V30 29 C 0.538 5.6247 -3.9406 0
M  V30 30 C 2.0909 5.5104 0.1987 0
M  V30 31 C 0.8018 5.9102 0.9118 0
M  V30 32 C 3.1511 5.0949 1.2192 0
M  V30 33 H -3.2456 -5.423 4.6607 0
M  V30 34 H 0.598 -5.5939 4.196 0
M  V30 35 H -0.019 -5.3639 5.8726 0
M  V30 36 H 0.7579 -6.9015 5.3998 0
M  V30 37 H -0.6326 -3.575 3.163 0
M  V30 38 H -3.9872 -6.1478 2.3086 0
M  V30 39 H -3.9806 -5.4195 -0.0624 0
M  V30 40 H 0.3099 -2.1092 0.7513 0
M  V30 41 H -2.5508 -3.7444 -1.8409 0
M  V30 42 H -0.8098 -0.03 -0.1999 0
M  V30 43 H 0.9683 -0.0961 -0.2442 0
M  V30 44 H -0.1602 0.3787 -3.7832 0
M  V30 45 H 1.0613 -0.8993 -3.8487 0
M  V30 46 H 0.1633 2.2473 -0.2234 0
M  V30 47 H -0.8367 1.9321 -1.6515 0
M  V30 48 H 2.5488 0.4045 -2.3341 0
M  V30 49 H 2.2261 1.2895 -3.8096 0
M  V30 50 H -0.0187 4.3385 -5.574 0
M  V30 51 H 2.1052 3.455 -0.4045 0
M  V30 52 H 1.1819 6.6004 -2.1554 0
M  V30 53 H 0.3167 6.5474 -4.465 0
M  V30 54 H 2.4914 6.3671 -0.3548 0
M  V30 55 H 0.3833 5.0705 1.4785 0
M  V30 56 H 0.038 6.2371 0.1985 0
M  V30 57 H 0.9824 6.7349 1.6094 0
M  V30 58 H 3.3805 5.9201 1.9016 0
M  V30 59 H 2.8176 4.2398 1.8182 0
M  V30 60 H 4.0798 4.8034 0.7161 0
M  V30 END ATOM
M  V30 BEGIN BOND
M  V30 1 2 1 2
M  V30 2 2 1 3
M  V30 3 1 1 4
M  V30 4 1 1 5
M  V30 5 1 4 6
M  V30 6 2 6 7
M  V30 7 1 6 8
M  V30 8 1 7 9
M  V30 9 2 8 10
M  V30 10 2 9 11
M  V30 11 1 9 12
M  V30 12 1 11 13
M  V30 13 2 12 14
M  V30 14 1 14 15
M  V30 15 2 15 16
M  V30 16 1 15 17
M  V30 17 1 17 18
M  V30 18 1 17 19
M  V30 19 1 18 20
M  V30 20 1 19 21
M  V30 21 1 20 22
M  V30 22 1 22 23
M  V30 23 2 23 24
M  V30 24 1 23 25
M  V30 25 1 24 26
M  V30 26 1 25 27
M  V30 27 2 25 28
M  V30 28 2 26 29
M  V30 29 1 27 30
M  V30 30 1 30 31
M  V30 31 1 30 32
M  V30 32 1 10 11
M  V30 33 1 13 14
M  V30 34 1 21 22
M  V30 35 1 28 29
M  V30 36 1 4 33
M  V30 37 1 5 34
M  V30 38 1 5 35
M  V30 39 1 5 36
M  V30 40 1 7 37
M  V30 41 1 8 38
M  V30 42 1 10 39
M  V30 43 1 12 40
M  V30 44 1 13 41
M  V30 45 1 18 42
M  V30 46 1 18 43
M  V30 47 1 19 44
M  V30 48 1 19 45
M  V30 49 1 20 46
M  V30 50 1 20 47
M  V30 51 1 21 48
M  V30 52 1 21 49
M  V30 53 1 26 50
M  V30 54 1 27 51
M  V30 55 1 28 52
M  V30 56 1 29 53
M  V30 57 1 30 54
M  V30 58 1 31 55
M  V30 59 1 31 56
M  V30 60 1 31 57
M  V30 61 1 32 58
M  V30 62 1 32 59
M  V30 63 1 32 60
M  V30 END BOND
M  V30 END CTAB
M  END
>  <NO.>
1270

>  <Name>
doxorubicin

>  <SMILES>
CC(C)Nc1cccnc1N1CCN(C(=O)c2cc3cc(NS(C)(=O)=O)ccc3[nH]2)CC1

>  <logBB>


>  <Class>
-1

>  <MW>
456.19

>  <nHBAcc>
6

>  <nHBDon>
3

>  <SLogP>
2.72

>  <TopoPSA>
110.43

>  <MMFF94 Energy>
16.727

$$$$
CC(C)OCC(COC(C)C)OCn1cnc2cnc(N)nc21
Actelion Java MolfileCreator 2.0

  0  0  0  0  0  0              0 V3000
M  V30 BEGIN CTAB
M  V30 COUNTS 48 49 0 0 0
M  V30 BEGIN ATOM
M  V30 1 O -1.0174 -1.2523 0.3912 0
M  V30 2 C -0.171 -0.5101 -0.5043 0
M  V30 3 C -0.5142 -1.4786 1.7073 0
M  V30 4 C 1.0576 -1.3197 -0.9583 0
M  V30 5 C -1.0466 -0.1429 -1.7131 0
M  V30 6 N -0.4245 -0.248 2.4599 0
M  V30 7 O 2.0149 -1.3773 0.1091 0
M  V30 8 O -0.3103 0.6608 -2.634 0
M  V30 9 C -1.4577 0.4072 3.0682 0
M  V30 10 C 0.7281 0.4303 2.7581 0
M  V30 11 C 3.2149 -2.0737 -0.2426 0
M  V30 12 C -1.0782 1.0753 -3.7679 0
M  V30 13 N -2.7605 0.0833 3.07 0
M  V30 14 C -0.8651 1.4896 3.6967 0
M  V30 15 N 0.4948 1.4943 3.4994 0
M  V30 16 C 4.1717 -1.1462 -0.984 0
M  V30 17 C 3.8461 -2.5528 1.0596 0
M  V30 18 C -1.9284 2.2937 -3.4229 0
M  V30 19 C -0.0876 1.4186 -4.8745 0
M  V30 20 C -3.5003 0.9603 3.7659 0
M  V30 21 C -1.7241 2.3304 4.3897 0
M  V30 22 N -3.0536 2.0517 4.4156 0
M  V30 23 N -4.8432 0.7263 3.8251 0
M  V30 24 H 0.1608 0.4178 -0.0255 0
M  V30 25 H 0.4465 -1.9957 1.7117 0
M  V30 26 H -1.2267 -2.1273 2.2285 0
M  V30 27 H 0.7577 -2.3426 -1.2132 0
M  V30 28 H 1.5265 -0.8508 -1.8277 0
M  V30 29 H -1.395 -1.0549 -2.2137 0
M  V30 30 H -1.9333 0.3955 -1.3603 0
M  V30 31 H 1.7006 0.1096 2.4043 0
M  V30 32 H 2.9768 -2.9486 -0.8594 0
M  V30 33 H -1.7155 0.2519 -4.1124 0
M  V30 34 H 5.1312 -1.6373 -1.1736 0
M  V30 35 H 3.7559 -0.8366 -1.9475 0
M  V30 36 H 4.3518 -0.2305 -0.41 0
M  V30 37 H 4.7711 -3.1071 0.8744 0
M  V30 38 H 3.1517 -3.2045 1.6013 0
M  V30 39 H 4.0673 -1.7096 1.7236 0
M  V30 40 H -2.4456 2.6785 -4.3074 0
M  V30 41 H -2.6849 2.0485 -2.6714 0
M  V30 42 H -1.3114 3.0939 -2.9995 0
M  V30 43 H -0.6025 1.7358 -5.7865 0
M  V30 44 H 0.535 0.5489 -5.1107 0
M  V30 45 H 0.5939 2.2166 -4.5594 0
M  V30 46 H -1.389 3.2096 4.9231 0
M  V30 47 H -5.4087 1.3811 4.3355 0
M  V30 48 H -5.2071 -0.0728 3.3387 0
M  V30 END ATOM
M  V30 BEGIN BOND
M  V30 1 1 1 2
M  V30 2 1 1 3
M  V30 3 1 2 4
M  V30 4 1 2 5
M  V30 5 1 3 6
M  V30 6 1 4 7
M  V30 7 1 5 8
M  V30 8 1 6 9
M  V30 9 1 6 10
M  V30 10 1 7 11
M  V30 11 1 8 12
M  V30 12 2 9 13
M  V30 13 1 9 14
M  V30 14 2 10 15
M  V30 15 1 11 16
M  V30 16 1 11 17
M  V30 17 1 12 18
M  V30 18 1 12 19
M  V30 19 1 13 20
M  V30 20 2 14 21
M  V30 21 2 20 22
M  V30 22 1 20 23
M  V30 23 1 14 15
M  V30 24 1 21 22
M  V30 25 1 2 24
M  V30 26 1 3 25
M  V30 27 1 3 26
M  V30 28 1 4 27
M  V30 29 1 4 28
M  V30 30 1 5 29
M  V30 31 1 5 30
M  V30 32 1 10 31
M  V30 33 1 11 32
M  V30 34 1 12 33
M  V30 35 1 16 34
M  V30 36 1 16 35
M  V30 37 1 16 36
M  V30 38 1 17 37
M  V30 39 1 17 38
M  V30 40 1 17 39
M  V30 41 1 18 40
M  V30 42 1 18 41
M  V30 43 1 18 42
M  V30 44 1 19 43
M  V30 45 1 19 44
M  V30 46 1 19 45
M  V30 47 1 21 46
M  V30 48 1 23 47
M  V30 49 1 23 48
M  V30 END BOND
M  V30 END CTAB
M  END
>  <NO.>
1271

>  <Name>
rociclovir

>  <SMILES>
CC(C)OCC(COC(C)C)OCn1cnc2cnc(N)nc21

>  <logBB>


>  <Class>
1

>  <MW>
323.2

>  <nHBAcc>
7

>  <nHBDon>
1

>  <SLogP>
1.6

>  <TopoPSA>
97.31

>  <MMFF94 Energy>
-4.6497

$$$$
CC(C)Oc1ccccc1N1CCN(Cc2cccc(C(=O)N3CCCCC3)c2)CC1
Actelion Java MolfileCreator 2.0

  0  0  0  0  0  0              0 V3000
M  V30 BEGIN CTAB
M  V30 COUNTS 66 69 0 0 0
M  V30 BEGIN ATOM
M  V30 1 O 5.08 -2.6169 1.2681 0
M  V30 2 C 4.675 -1.7473 0.501 0
M  V30 3 N 5.2306 -0.4754 0.3983 0
M  V30 4 C 3.5351 -2.0904 -0.3692 0
M  V30 5 C 4.6425 0.6493 -0.3312 0
M  V30 6 C 6.4139 -0.1567 1.1911 0
M  V30 7 C 2.276 -2.285 0.2026 0
M  V30 8 C 3.7319 -2.2582 -1.7428 0
M  V30 9 C 5.6809 1.313 -1.2308 0
M  V30 10 C 7.4865 0.5017 0.3264 0
M  V30 11 C 1.1822 -2.6198 -0.6093 0
M  V30 12 C 2.6495 -2.5947 -2.5538 0
M  V30 13 C 6.9284 1.7016 -0.4378 0
M  V30 14 C 1.3819 -2.771 -1.9911 0
M  V30 15 C -0.1868 -2.824 0.0034 0
M  V30 16 N -0.7043 -1.615 0.6632 0
M  V30 17 C -1.062 -0.5677 -0.3251 0
M  V30 18 C -1.9101 -1.947 1.4571 0
M  V30 19 C -1.6784 0.6959 0.3188 0
M  V30 20 C -2.5251 -0.7167 2.162 0
M  V30 21 N -2.8161 0.3431 1.1887 0
M  V30 22 C -3.6839 1.3855 1.5163 0
M  V30 23 C -4.4372 2.0656 0.5343 0
M  V30 24 C -3.8472 1.818 2.843 0
M  V30 25 O -4.3812 1.6813 -0.787 0
M  V30 26 C -5.2551 3.1568 0.8521 0
M  V30 27 C -4.6844 2.8921 3.1711 0
M  V30 28 C -5.4541 0.7782 -1.1064 0
M  V30 29 C -5.3817 3.567 2.1748 0
M  V30 30 C -6.2999 1.4239 -2.2003 0
M  V30 31 C -4.8515 -0.5286 -1.6109 0
M  V30 32 H 4.2817 1.3634 0.4192 0
M  V30 33 H 3.7739 0.3513 -0.9213 0
M  V30 34 H 6.0984 0.5212 1.993 0
M  V30 35 H 6.8261 -1.0535 1.6645 0
M  V30 36 H 2.1453 -2.1692 1.2766 0
M  V30 37 H 4.7214 -2.1321 -2.1735 0
M  V30 38 H 5.2502 2.2013 -1.7058 0
M  V30 39 H 5.9651 0.6201 -2.0325 0
M  V30 40 H 8.3287 0.8166 0.9521 0
M  V30 41 H 7.8726 -0.2315 -0.3926 0
M  V30 42 H 2.7918 -2.726 -3.6234 0
M  V30 43 H 6.6778 2.5015 0.2697 0
M  V30 44 H 7.6917 2.0986 -1.116 0
M  V30 45 H 0.5481 -3.0335 -2.6392 0
M  V30 46 H -0.0791 -3.6326 0.7392 0
M  V30 47 H -0.8945 -3.1923 -0.7512 0
M  V30 48 H -0.169 -0.251 -0.8759 0
M  V30 49 H -1.7716 -0.971 -1.0594 0
M  V30 50 H -2.6724 -2.4055 0.8126 0
M  V30 51 H -1.649 -2.6815 2.2285 0
M  V30 52 H -1.9627 1.3799 -0.4872 0
M  V30 53 H -0.9152 1.208 0.9196 0
M  V30 54 H -1.8268 -0.3482 2.9241 0
M  V30 55 H -3.445 -1.037 2.6662 0
M  V30 56 H -3.2957 1.3426 3.6489 0
M  V30 57 H -5.7944 3.6785 0.0677 0
M  V30 58 H -4.7758 3.2072 4.2075 0
M  V30 59 H -6.0955 0.5611 -0.2407 0
M  V30 60 H -6.0201 4.409 2.4271 0
M  V30 61 H -7.1146 0.7641 -2.5141 0
M  V30 62 H -6.7349 2.3646 -1.8473 0
M  V30 63 H -5.6889 1.6692 -3.076 0
M  V30 64 H -5.6283 -1.2173 -1.9574 0
M  V30 65 H -4.2901 -1.0249 -0.8142 0
M  V30 66 H -4.1477 -0.3482 -2.4307 0
M  V30 END ATOM
M  V30 BEGIN BOND
M  V30 1 2 1 2
M  V30 2 1 2 3
M  V30 3 1 2 4
M  V30 4 1 3 5
M  V30 5 1 3 6
M  V30 6 2 4 7
M  V30 7 1 4 8
M  V30 8 1 5 9
M  V30 9 1 6 10
M  V30 10 1 7 11
M  V30 11 2 8 12
M  V30 12 1 9 13
M  V30 13 2 11 14
M  V30 14 1 11 15
M  V30 15 1 15 16
M  V30 16 1 16 17
M  V30 17 1 16 18
M  V30 18 1 17 19
M  V30 19 1 18 20
M  V30 20 1 19 21
M  V30 21 1 21 22
M  V30 22 2 22 23
M  V30 23 1 22 24
M  V30 24 1 23 25
M  V30 25 1 23 26
M  V30 26 2 24 27
M  V30 27 1 25 28
M  V30 28 2 26 29
M  V30 29 1 28 30
M  V30 30 1 28 31
M  V30 31 1 10 13
M  V30 32 1 12 14
M  V30 33 1 20 21
M  V30 34 1 27 29
M  V30 35 1 5 32
M  V30 36 1 5 33
M  V30 37 1 6 34
M  V30 38 1 6 35
M  V30 39 1 7 36
M  V30 40 1 8 37
M  V30 41 1 9 38
M  V30 42 1 9 39
M  V30 43 1 10 40
M  V30 44 1 10 41
M  V30 45 1 12 42
M  V30 46 1 13 43
M  V30 47 1 13 44
M  V30 48 1 14 45
M  V30 49 1 15 46
M  V30 50 1 15 47
M  V30 51 1 17 48
M  V30 52 1 17 49
M  V30 53 1 18 50
M  V30 54 1 18 51
M  V30 55 1 19 52
M  V30 56 1 19 53
M  V30 57 1 20 54
M  V30 58 1 20 55
M  V30 59 1 24 56
M  V30 60 1 26 57
M  V30 61 1 27 58
M  V30 62 1 28 59
M  V30 63 1 29 60
M  V30 64 1 30 61
M  V30 65 1 30 62
M  V30 66 1 30 63
M  V30 67 1 31 64
M  V30 68 1 31 65
M  V30 69 1 31 66
M  V30 END BOND
M  V30 END CTAB
M  END
>  <NO.>
1272

>  <Name>
mazapertine succinate

>  <SMILES>
CC(C)Oc1ccccc1N1CCN(Cc2cccc(C(=O)N3CCCCC3)c2)CC1

>  <logBB>


>  <Class>
1

>  <MW>
421.27

>  <nHBAcc>
4

>  <nHBDon>
0

>  <SLogP>
4.42

>  <TopoPSA>
36.02

>  <MMFF94 Energy>
140.27

$$$$
CC(C)[C@@H](CN1CCCC1)N(C)C(=O)Cc1ccc(Cl)c(Cl)c1
Actelion Java MolfileCreator 2.0

  0  0  0  0  0  0              0 V3000
M  V30 BEGIN CTAB
M  V30 COUNTS 49 50 0 0 0
M  V30 BEGIN ATOM
M  V30 1 Cl 1.1219 -4.7349 3.6098 0
M  V30 2 C 2.2104 -3.6001 2.8921 0
M  V30 3 C 3.4877 -3.357 3.4066 0
M  V30 4 C 1.7755 -2.9124 1.7538 0
M  V30 5 Cl 4.0952 -4.1704 4.8051 0
M  V30 6 C 4.3214 -2.4247 2.7829 0
M  V30 7 C 2.6118 -1.9818 1.1177 0
M  V30 8 C 3.8854 -1.7385 1.6468 0
M  V30 9 C 2.1243 -1.2272 -0.0999 0
M  V30 10 C 1.2908 0.0098 0.2314 0
M  V30 11 O 1.3028 0.504 1.3609 0
M  V30 12 N 0.5294 0.5548 -0.8084 0
M  V30 13 C -0.4283 1.6439 -0.4832 0 CFG=1
M  V30 14 C 0.515 -0.0195 -2.149 0
M  V30 15 C 0.1127 3.0702 -0.8167 0
M  V30 16 C -1.8651 1.4144 -1.0563 0
M  V30 17 C 1.3618 3.4149 0.0024 0
M  V30 18 C 0.3955 3.3299 -2.2972 0
M  V30 19 N -2.4383 0.0883 -0.7697 0
M  V30 20 C -3.7749 -0.0701 -1.3451 0
M  V30 21 C -2.6098 -0.1789 0.6606 0
M  V30 22 C -4.2885 -1.3245 -0.6587 0
M  V30 23 C -3.5749 -1.3566 0.6877 0
M  V30 24 H 0.7754 -3.0951 1.3649 0
M  V30 25 H 5.3122 -2.2208 3.1818 0
M  V30 26 H 4.5426 -1.0034 1.186 0
M  V30 27 H 2.9822 -0.9094 -0.7045 0
M  V30 28 H 1.5369 -1.9221 -0.7105 0
M  V30 29 H -0.5566 1.6428 0.6074 0
M  V30 30 H -0.1299 -0.9028 -2.1471 0
M  V30 31 H 0.1484 0.6957 -2.8861 0
M  V30 32 H 1.5235 -0.3207 -2.4434 0
M  V30 33 H -0.6659 3.7837 -0.5128 0
M  V30 34 H -2.5246 2.2041 -0.6713 0
M  V30 35 H -1.8426 1.5356 -2.1449 0
M  V30 36 H 2.2141 2.7866 -0.2751 0
M  V30 37 H 1.6528 4.4586 -0.1596 0
M  V30 38 H 1.1738 3.2904 1.0738 0
M  V30 39 H -0.479 3.1255 -2.9203 0
M  V30 40 H 0.6616 4.3816 -2.4536 0
M  V30 41 H 1.234 2.7281 -2.6606 0
M  V30 42 H -3.745 -0.1903 -2.4326 0
M  V30 43 H -4.425 0.7804 -1.1031 0
M  V30 44 H -1.6685 -0.4343 1.1559 0
M  V30 45 H -3.058 0.6776 1.1802 0
M  V30 46 H -4.0243 -2.2172 -1.2381 0
M  V30 47 H -5.3769 -1.3088 -0.5442 0
M  V30 48 H -3.0357 -2.3041 0.8013 0
M  V30 49 H -4.2816 -1.2703 1.5197 0
M  V30 END ATOM
M  V30 BEGIN BOND
M  V30 1 1 1 2
M  V30 2 2 2 3
M  V30 3 1 2 4
M  V30 4 1 3 5
M  V30 5 1 3 6
M  V30 6 2 4 7
M  V30 7 2 6 8
M  V30 8 1 7 9
M  V30 9 1 9 10
M  V30 10 2 10 11
M  V30 11 1 10 12
M  V30 12 1 12 13
M  V30 13 1 12 14
M  V30 14 1 13 15
M  V30 15 1 13 16
M  V30 16 1 15 17
M  V30 17 1 15 18
M  V30 18 1 16 19
M  V30 19 1 19 20
M  V30 20 1 19 21
M  V30 21 1 20 22
M  V30 22 1 21 23
M  V30 23 1 7 8
M  V30 24 1 22 23
M  V30 25 1 4 24
M  V30 26 1 6 25
M  V30 27 1 8 26
M  V30 28 1 9 27
M  V30 29 1 9 28
M  V30 30 1 13 29
M  V30 31 1 14 30
M  V30 32 1 14 31
M  V30 33 1 14 32
M  V30 34 1 15 33
M  V30 35 1 16 34
M  V30 36 1 16 35
M  V30 37 1 17 36
M  V30 38 1 17 37
M  V30 39 1 17 38
M  V30 40 1 18 39
M  V30 41 1 18 40
M  V30 42 1 18 41
M  V30 43 1 20 42
M  V30 44 1 20 43
M  V30 45 1 21 44
M  V30 46 1 21 45
M  V30 47 1 22 46
M  V30 48 1 22 47
M  V30 49 1 23 48
M  V30 50 1 23 49
M  V30 END BOND
M  V30 BEGIN COLLECTION
M  V30 MDLV30/STEABS ATOMS=(1 13)
M  V30 END COLLECTION
M  V30 END CTAB
M  END
>  <NO.>
1273

>  <Name>
chembl56653

>  <SMILES>
CC(C)[C@@H](CN1CCCC1)N(C)C(=O)Cc1ccc(Cl)c(Cl)c1

>  <logBB>


>  <Class>
1

>  <MW>
356.14

>  <nHBAcc>
2

>  <nHBDon>
0

>  <SLogP>
4.11

>  <TopoPSA>
23.55

>  <MMFF94 Energy>
67.877

$$$$
CC(C)[C@@]1(O)CCN2C[C@@H]3c4ccccc4CCc4cccc(c43)[C@H]2C1
Actelion Java MolfileCreator 2.0

  0  0  0  0  0  0              0 V3000
M  V30 BEGIN CTAB
M  V30 COUNTS 55 59 0 0 0
M  V30 BEGIN ATOM
M  V30 1 O -0.8033 1.366 3.7801 0
M  V30 2 C -0.8053 2.2109 2.6112 0 CFG=1
M  V30 3 C -0.6163 3.6823 3.1061 0
M  V30 4 C 0.3351 1.7189 1.6993 0
M  V30 5 C -2.1588 2.0141 1.9105 0
M  V30 6 C 0.6548 3.8658 3.9505 0
M  V30 7 C -0.628 4.7369 1.9939 0
M  V30 8 C 0.088 0.2877 1.1543 0 CFG=1
M  V30 9 C -2.3063 0.5981 1.3574 0
M  V30 10 N -1.2058 0.3087 0.4334 0
M  V30 11 C 1.2474 -0.2081 0.2707 0
M  V30 12 C -1.4018 -0.9899 -0.2162 0
M  V30 13 C 1.0301 -0.8499 -0.9857 0
M  V30 14 C 2.5642 -0.0543 0.7485 0
M  V30 15 C -0.4154 -1.1644 -1.4016 0 CFG=1
M  V30 16 C 2.1519 -1.1079 -1.8172 0
M  V30 17 C 3.6574 -0.4035 -0.0285 0
M  V30 18 C -0.6191 -2.5109 -2.1193 0
M  V30 19 C 3.4507 -0.8974 -1.3065 0
M  V30 20 C 2.1249 -1.6027 -3.253 0
M  V30 21 C -0.0931 -2.6839 -3.4153 0
M  V30 22 C -1.3409 -3.5835 -1.5622 0
M  V30 23 C 0.7994 -1.6263 -4.0055 0
M  V30 24 C -0.3197 -3.8738 -4.128 0
M  V30 25 C -1.5583 -4.7664 -2.2753 0
M  V30 26 C -1.0556 -4.9086 -3.5614 0
M  V30 27 H -1.4796 1.7028 4.3934 0
M  V30 28 H -1.4569 3.9101 3.7772 0
M  V30 29 H 0.475 2.4032 0.8532 0
M  V30 30 H 1.2624 1.7317 2.2801 0
M  V30 31 H -2.9804 2.1999 2.6133 0
M  V30 32 H -2.2745 2.7184 1.0792 0
M  V30 33 H 0.6928 3.1548 4.7815 0
M  V30 34 H 0.6833 4.8722 4.3836 0
M  V30 35 H 1.5611 3.7421 3.3495 0
M  V30 36 H 0.1934 4.5929 1.286 0
M  V30 37 H -1.5692 4.7315 1.438 0
M  V30 38 H -0.5194 5.7411 2.4198 0
M  V30 39 H 0.0323 -0.4166 1.9975 0
M  V30 40 H -2.3543 -0.1357 2.1723 0
M  V30 41 H -3.2642 0.5477 0.8247 0
M  V30 42 H -1.288 -1.7884 0.5292 0
M  V30 43 H -2.4248 -1.0572 -0.611 0
M  V30 44 H 2.7546 0.3436 1.7418 0
M  V30 45 H -0.7014 -0.3772 -2.115 0
M  V30 46 H 4.666 -0.2682 0.3508 0
M  V30 47 H 4.32 -1.1279 -1.9204 0
M  V30 48 H 2.5689 -2.608 -3.2669 0
M  V30 49 H 2.7967 -0.9528 -3.8313 0
M  V30 50 H -1.7583 -3.5332 -0.5612 0
M  V30 51 H 0.9967 -1.8561 -5.0604 0
M  V30 52 H 0.3089 -0.6469 -4.0063 0
M  V30 53 H 0.0949 -4.0059 -5.1247 0
M  V30 54 H -2.1229 -5.5763 -1.8205 0
M  V30 55 H -1.2225 -5.8278 -4.1155 0
M  V30 END ATOM
M  V30 BEGIN BOND
M  V30 1 1 1 2
M  V30 2 1 2 3
M  V30 3 1 2 4
M  V30 4 1 2 5
M  V30 5 1 3 6
M  V30 6 1 3 7
M  V30 7 1 4 8
M  V30 8 1 5 9
M  V30 9 1 8 10
M  V30 10 1 8 11
M  V30 11 1 10 12
M  V30 12 2 11 13
M  V30 13 1 11 14
M  V30 14 1 12 15
M  V30 15 1 13 16
M  V30 16 2 14 17
M  V30 17 1 15 18
M  V30 18 2 16 19
M  V30 19 1 16 20
M  V30 20 2 18 21
M  V30 21 1 18 22
M  V30 22 1 20 23
M  V30 23 1 21 24
M  V30 24 2 22 25
M  V30 25 2 24 26
M  V30 26 1 9 10
M  V30 27 1 13 15
M  V30 28 1 17 19
M  V30 29 1 21 23
M  V30 30 1 25 26
M  V30 31 1 1 27
M  V30 32 1 3 28
M  V30 33 1 4 29
M  V30 34 1 4 30
M  V30 35 1 5 31
M  V30 36 1 5 32
M  V30 37 1 6 33
M  V30 38 1 6 34
M  V30 39 1 6 35
M  V30 40 1 7 36
M  V30 41 1 7 37
M  V30 42 1 7 38
M  V30 43 1 8 39
M  V30 44 1 9 40
M  V30 45 1 9 41
M  V30 46 1 12 42
M  V30 47 1 12 43
M  V30 48 1 14 44
M  V30 49 1 15 45
M  V30 50 1 17 46
M  V30 51 1 19 47
M  V30 52 1 20 48
M  V30 53 1 20 49
M  V30 54 1 22 50
M  V30 55 1 23 51
M  V30 56 1 23 52
M  V30 57 1 24 53
M  V30 58 1 25 54
M  V30 59 1 26 55
M  V30 END BOND
M  V30 BEGIN COLLECTION
M  V30 MDLV30/STEABS ATOMS=(3 2 8 15)
M  V30 END COLLECTION
M  V30 END CTAB
M  END
>  <NO.>
1274

>  <Name>
dexclamol

>  <SMILES>
CC(C)[C@@]1(O)CCN2C[C@@H]3c4ccccc4CCc4cccc(c43)[C@H]2C1

>  <logBB>


>  <Class>
1

>  <MW>
347.22

>  <nHBAcc>
2

>  <nHBDon>
1

>  <SLogP>
4.45

>  <TopoPSA>
23.47

>  <MMFF94 Energy>
115.53

$$$$
CC(C)[N+](C)(CCOC(=O)C1c2ccccc2Oc2ccccc21)C(C)C
Actelion Java MolfileCreator 2.0

  0  0  0  0  0  0              0 V3000
M  V30 BEGIN CTAB
M  V30 COUNTS 57 59 0 0 0
M  V30 BEGIN ATOM
M  V30 1 O 3.4133 -0.8723 -0.6343 0
M  V30 2 C 2.4683 -0.954 0.1402 0
M  V30 3 O 1.4941 3.0E-4 0.2476 0
M  V30 4 C 2.1873 -2.1523 1.0441 0
M  V30 5 C 1.6624 1.129 -0.6186 0
M  V30 6 C 1.927 -1.7164 2.4679 0
M  V30 7 C 1.0409 -2.9621 0.4823 0
M  V30 8 C 0.4699 2.0899 -0.4546 0
M  V30 9 C 0.6287 -1.7654 2.9843 0
M  V30 10 C 2.9666 -1.226 3.2733 0
M  V30 11 C -0.2029 -2.943 1.1196 0
M  V30 12 C 1.194 -3.7075 -0.6968 0
M  V30 13 N -0.8916 1.5943 -1.0746 0 CHG=1
M  V30 14 O -0.4482 -2.2358 2.2718 0
M  V30 15 C 0.3659 -1.3179 4.2797 0
M  V30 16 C 2.7028 -0.7866 4.5711 0
M  V30 17 C -1.2831 -3.6469 0.5847 0
M  V30 18 C 0.1145 -4.4152 -1.227 0
M  V30 19 C -2.0618 2.6192 -0.7483 0
M  V30 20 C -0.7426 1.2563 -2.6155 0
M  V30 21 C -1.2702 0.2511 -0.3702 0
M  V30 22 C 1.4033 -0.8299 5.0733 0
M  V30 23 C -1.1236 -4.3839 -0.5878 0
M  V30 24 C -2.2311 2.8557 0.7612 0
M  V30 25 C -1.9089 3.9688 -1.4473 0
M  V30 26 C -2.0901 0.9494 -3.2754 0
M  V30 27 C 0.0373 2.2979 -3.4239 0
M  V30 28 H 3.0816 -2.7898 1.0546 0
M  V30 29 H 1.7844 0.7965 -1.6526 0
M  V30 30 H 2.5721 1.6591 -0.3127 0
M  V30 31 H 0.6965 3.0544 -0.9132 0
M  V30 32 H 0.2899 2.2384 0.6134 0
M  V30 33 H 3.9889 -1.1875 2.9007 0
M  V30 34 H 2.1562 -3.7494 -1.2059 0
M  V30 35 H -0.6433 -1.3654 4.6809 0
M  V30 36 H 3.513 -0.4166 5.1963 0
M  V30 37 H -2.244 -3.6424 1.0936 0
M  V30 38 H 0.2431 -5.005 -2.1325 0
M  V30 39 H -2.9815 2.1429 -1.1061 0
M  V30 40 H -0.1504 0.334 -2.6492 0
M  V30 41 H -2.3334 0.0578 -0.5342 0
M  V30 42 H -1.0637 0.3408 0.6986 0
M  V30 43 H -0.68 -0.557 -0.8064 0
M  V30 44 H 1.2014 -0.4957 6.0886 0
M  V30 45 H -1.9587 -4.9513 -0.9928 0
M  V30 46 H -3.1297 3.4585 0.9405 0
M  V30 47 H -2.3689 1.9304 1.3249 0
M  V30 48 H -1.3926 3.4111 1.1914 0
M  V30 49 H -2.1307 3.8974 -2.5132 0
M  V30 50 H -0.9201 4.4124 -1.3115 0
M  V30 51 H -2.6372 4.6863 -1.05 0
M  V30 52 H -1.928 0.5748 -4.2927 0
M  V30 53 H -2.7237 1.836 -3.3632 0
M  V30 54 H -2.6475 0.176 -2.7405 0
M  V30 55 H -0.4708 3.2563 -3.5147 0
M  V30 56 H 0.1792 1.9287 -4.4471 0
M  V30 57 H 1.0388 2.4814 -3.029 0
M  V30 END ATOM
M  V30 BEGIN BOND
M  V30 1 2 1 2
M  V30 2 1 2 3
M  V30 3 1 2 4
M  V30 4 1 3 5
M  V30 5 1 4 6
M  V30 6 1 4 7
M  V30 7 1 5 8
M  V30 8 2 6 9
M  V30 9 1 6 10
M  V30 10 2 7 11
M  V30 11 1 7 12
M  V30 12 1 8 13
M  V30 13 1 9 14
M  V30 14 1 9 15
M  V30 15 2 10 16
M  V30 16 1 11 17
M  V30 17 2 12 18
M  V30 18 1 13 19
M  V30 19 1 13 20
M  V30 20 1 13 21
M  V30 21 2 15 22
M  V30 22 2 17 23
M  V30 23 1 19 24
M  V30 24 1 19 25
M  V30 25 1 20 26
M  V30 26 1 20 27
M  V30 27 1 11 14
M  V30 28 1 16 22
M  V30 29 1 18 23
M  V30 30 1 4 28
M  V30 31 1 5 29
M  V30 32 1 5 30
M  V30 33 1 8 31
M  V30 34 1 8 32
M  V30 35 1 10 33
M  V30 36 1 12 34
M  V30 37 1 15 35
M  V30 38 1 16 36
M  V30 39 1 17 37
M  V30 40 1 18 38
M  V30 41 1 19 39
M  V30 42 1 20 40
M  V30 43 1 21 41
M  V30 44 1 21 42
M  V30 45 1 21 43
M  V30 46 1 22 44
M  V30 47 1 23 45
M  V30 48 1 24 46
M  V30 49 1 24 47
M  V30 50 1 24 48
M  V30 51 1 25 49
M  V30 52 1 25 50
M  V30 53 1 25 51
M  V30 54 1 26 52
M  V30 55 1 26 53
M  V30 56 1 26 54
M  V30 57 1 27 55
M  V30 58 1 27 56
M  V30 59 1 27 57
M  V30 END BOND
M  V30 END CTAB
M  END
>  <NO.>
1277

>  <Name>
propantheline

>  <SMILES>
CC(C)[N+](C)(CCOC(=O)C1c2ccccc2Oc2ccccc21)C(C)C

>  <logBB>


>  <Class>
-1

>  <MW>
368.22

>  <nHBAcc>
3

>  <nHBDon>
0

>  <SLogP>
4.73

>  <TopoPSA>
35.53

>  <MMFF94 Energy>
116.51

$$$$
CC(C)[N+]1(C)C2CCC1CC(OC(=O)C(CO)c1ccccc1)C2
Actelion Java MolfileCreator 2.0

  0  0  0  0  0  0              0 V3000
M  V30 BEGIN CTAB
M  V30 COUNTS 54 56 0 0 0
M  V30 BEGIN ATOM
M  V30 1 O 2.0668 -1.5896 1.6691 0
M  V30 2 C 0.975 -1.2617 2.1176 0
M  V30 3 O 0.2691 -0.1724 1.6783 0
M  V30 4 C 0.1736 -2.0262 3.1586 0
M  V30 5 C 0.9014 0.6075 0.6485 0
M  V30 6 C -0.6824 -3.0942 2.5004 0
M  V30 7 C 1.1156 -2.6034 4.2195 0
M  V30 8 C 0.7586 -0.0947 -0.7097 0
M  V30 9 C 0.2665 2.0032 0.6715 0
M  V30 10 C -2.0792 -3.0463 2.6273 0
M  V30 11 C -0.1074 -4.1399 1.7604 0
M  V30 12 O 1.5673 -1.5531 5.0753 0
M  V30 13 C 0.9448 0.8578 -1.8981 0
M  V30 14 C 0.4635 2.7879 -0.6353 0
M  V30 15 C -2.8802 -4.0197 2.0278 0
M  V30 16 C -0.9114 -5.1109 1.1615 0
M  V30 17 N -0.1215 1.9976 -1.8446 0 CHG=1
M  V30 18 C 2.2772 1.6171 -1.7742 0
M  V30 19 C 1.955 2.889 -0.9835 0
M  V30 20 C -2.2966 -5.0505 1.2951 0
M  V30 21 C -0.0942 2.8543 -3.193 0
M  V30 22 C -1.5524 1.4889 -1.6164 0
M  V30 23 C -0.6895 2.08 -4.3747 0
M  V30 24 C -0.8032 4.2036 -3.0384 0
M  V30 25 H -0.4725 -1.2927 3.6613 0
M  V30 26 H 1.9655 0.7255 0.8934 0
M  V30 27 H 1.9916 -3.0946 3.7826 0
M  V30 28 H 0.5911 -3.3319 4.8481 0
M  V30 29 H 1.513 -0.8892 -0.7776 0
M  V30 30 H -0.1964 -0.6286 -0.7745 0
M  V30 31 H -0.7951 1.9478 0.9386 0
M  V30 32 H 0.7138 2.5685 1.5007 0
M  V30 33 H -2.5577 -2.2571 3.2043 0
M  V30 34 H 0.973 -4.2127 1.6437 0
M  V30 35 H 2.1438 -1.963 5.7462 0
M  V30 36 H 0.85 0.3177 -2.8427 0
M  V30 37 H -0.0322 3.7579 -0.5596 0
M  V30 38 H -3.9611 -3.981 2.1416 0
M  V30 39 H -0.4563 -5.9214 0.597 0
M  V30 40 H 2.672 1.8772 -2.7628 0
M  V30 41 H 3.0538 1.0195 -1.2843 0
M  V30 42 H 2.1474 3.773 -1.6024 0
M  V30 43 H 2.5877 2.9875 -0.0949 0
M  V30 44 H -2.921 -5.8137 0.8367 0
M  V30 45 H 0.9548 3.0534 -3.4245 0
M  V30 46 H -2.2298 2.3436 -1.5912 0
M  V30 47 H -1.8084 0.7982 -2.4228 0
M  V30 48 H -1.6348 0.952 -0.6724 0
M  V30 49 H -0.2541 1.0849 -4.4892 0
M  V30 50 H -0.4927 2.6223 -5.307 0
M  V30 51 H -1.7766 1.9789 -4.2958 0
M  V30 52 H -1.8461 4.1027 -2.7282 0
M  V30 53 H -0.2891 4.8581 -2.3299 0
M  V30 54 H -0.8047 4.7353 -3.9974 0
M  V30 END ATOM
M  V30 BEGIN BOND
M  V30 1 2 1 2
M  V30 2 1 2 3
M  V30 3 1 2 4
M  V30 4 1 3 5
M  V30 5 1 4 6
M  V30 6 1 4 7
M  V30 7 1 5 8
M  V30 8 1 5 9
M  V30 9 2 6 10
M  V30 10 1 6 11
M  V30 11 1 7 12
M  V30 12 1 8 13
M  V30 13 1 9 14
M  V30 14 1 10 15
M  V30 15 2 11 16
M  V30 16 1 13 17
M  V30 17 1 13 18
M  V30 18 1 14 19
M  V30 19 2 15 20
M  V30 20 1 17 21
M  V30 21 1 17 22
M  V30 22 1 21 23
M  V30 23 1 21 24
M  V30 24 1 14 17
M  V30 25 1 16 20
M  V30 26 1 18 19
M  V30 27 1 4 25
M  V30 28 1 5 26
M  V30 29 1 7 27
M  V30 30 1 7 28
M  V30 31 1 8 29
M  V30 32 1 8 30
M  V30 33 1 9 31
M  V30 34 1 9 32
M  V30 35 1 10 33
M  V30 36 1 11 34
M  V30 37 1 12 35
M  V30 38 1 13 36
M  V30 39 1 14 37
M  V30 40 1 15 38
M  V30 41 1 16 39
M  V30 42 1 18 40
M  V30 43 1 18 41
M  V30 44 1 19 42
M  V30 45 1 19 43
M  V30 46 1 20 44
M  V30 47 1 21 45
M  V30 48 1 22 46
M  V30 49 1 22 47
M  V30 50 1 22 48
M  V30 51 1 23 49
M  V30 52 1 23 50
M  V30 53 1 23 51
M  V30 54 1 24 52
M  V30 55 1 24 53
M  V30 56 1 24 54
M  V30 END BOND
M  V30 END CTAB
M  END
>  <NO.>
1278

>  <Name>
skb-f

>  <SMILES>
CC(C)[N+]1(C)C2CCC1CC(OC(=O)C(CO)c1ccccc1)C2

>  <logBB>


>  <Class>
-1

>  <MW>
332.22

>  <nHBAcc>
3

>  <nHBDon>
1

>  <SLogP>
2.85

>  <TopoPSA>
46.53

>  <MMFF94 Energy>
76.637

$$$$
CC(C)c1ccccc1OCC1=NCCN1
Actelion Java MolfileCreator 2.0

  0  0  0  0  0  0              0 V3000
M  V30 BEGIN CTAB
M  V30 COUNTS 34 35 0 0 0
M  V30 BEGIN ATOM
M  V30 1 O 0.0786 -0.5505 0.3931 0
M  V30 2 C 1.3314 -0.0581 0.1351 0
M  V30 3 C -0.0175 -1.7419 1.1661 0
M  V30 4 C 1.3914 1.1239 -0.6333 0
M  V30 5 C 2.517 -0.6541 0.5839 0
M  V30 6 C -1.4793 -2.1144 1.3356 0
M  V30 7 C 2.6536 1.6749 -0.9292 0
M  V30 8 C 0.128 1.8082 -1.1436 0
M  V30 9 C 3.7575 -0.0907 0.2789 0
M  V30 10 N -1.8434 -3.1762 2.0103 0
M  V30 11 N -2.4911 -1.3741 0.8015 0
M  V30 12 C 3.8262 1.0727 -0.4769 0
M  V30 13 C -0.0208 3.2182 -0.5639 0
M  V30 14 C 0.0853 1.8401 -2.6744 0
M  V30 15 C -3.3381 -3.1751 1.9344 0
M  V30 16 C -3.762 -1.9479 1.1119 0
M  V30 17 H 0.4778 -2.5775 0.6586 0
M  V30 18 H 0.4017 -1.5925 2.1678 0
M  V30 19 H 2.5136 -1.5628 1.1769 0
M  V30 20 H 2.7321 2.5852 -1.5194 0
M  V30 21 H -0.7556 1.2459 -0.8208 0
M  V30 22 H 4.6697 -0.5633 0.6335 0
M  V30 23 H -2.34 -0.5335 0.2606 0
M  V30 24 H 4.7909 1.5127 -0.7154 0
M  V30 25 H 0.7784 3.8881 -0.8985 0
M  V30 26 H -0.9741 3.6614 -0.8721 0
M  V30 27 H -0.0011 3.1944 0.5313 0
M  V30 28 H 0.8891 2.4527 -3.0965 0
M  V30 29 H 0.181 0.8304 -3.0889 0
M  V30 30 H -0.8658 2.2567 -3.0234 0
M  V30 31 H -3.7543 -3.1319 2.9464 0
M  V30 32 H -3.6794 -4.1016 1.4609 0
M  V30 33 H -4.3793 -1.2638 1.7013 0
M  V30 34 H -4.3038 -2.2388 0.2075 0
M  V30 END ATOM
M  V30 BEGIN BOND
M  V30 1 1 1 2
M  V30 2 1 1 3
M  V30 3 2 2 4
M  V30 4 1 2 5
M  V30 5 1 3 6
M  V30 6 1 4 7
M  V30 7 1 4 8
M  V30 8 2 5 9
M  V30 9 2 6 10
M  V30 10 1 6 11
M  V30 11 2 7 12
M  V30 12 1 8 13
M  V30 13 1 8 14
M  V30 14 1 10 15
M  V30 15 1 11 16
M  V30 16 1 9 12
M  V30 17 1 15 16
M  V30 18 1 3 17
M  V30 19 1 3 18
M  V30 20 1 5 19
M  V30 21 1 7 20
M  V30 22 1 8 21
M  V30 23 1 9 22
M  V30 24 1 11 23
M  V30 25 1 12 24
M  V30 26 1 13 25
M  V30 27 1 13 26
M  V30 28 1 13 27
M  V30 29 1 14 28
M  V30 30 1 14 29
M  V30 31 1 14 30
M  V30 32 1 15 31
M  V30 33 1 15 32
M  V30 34 1 16 33
M  V30 35 1 16 34
M  V30 END BOND
M  V30 END CTAB
M  END
>  <NO.>
1279

>  <Name>
fenoxazoline

>  <SMILES>
CC(C)c1ccccc1OCC1=NCCN1

>  <logBB>


>  <Class>
-1

>  <MW>
218.14

>  <nHBAcc>
3

>  <nHBDon>
1

>  <SLogP>
2.19

>  <TopoPSA>
33.62

>  <MMFF94 Energy>
65.236

$$$$
CC(C)n1c(/C=C/[C@@H](O)C[C@H](O)CC(=O)O)c(-c2ccc(F)cc2)c2ccccc21
Actelion Java MolfileCreator 2.0

  0  0  0  0  0  0              0 V3000
M  V30 BEGIN CTAB
M  V30 COUNTS 56 58 0 0 0
M  V30 BEGIN ATOM
M  V30 1 F -3.5706 -1.4271 -4.9221 0
M  V30 2 C -3.0527 -0.7225 -3.9076 0
M  V30 3 C -1.8349 -0.0731 -4.0766 0
M  V30 4 C -3.7432 -0.6522 -2.7024 0
M  V30 5 C -1.2946 0.6614 -3.0199 0
M  V30 6 C -3.2044 0.0796 -1.6433 0
M  V30 7 C -1.9752 0.7359 -1.7971 0
M  V30 8 C -1.4055 1.4967 -0.6964 0
M  V30 9 C -1.2481 2.9074 -0.5991 0
M  V30 10 C -0.9443 0.925 0.4829 0
M  V30 11 C -0.6876 3.1787 0.6506 0
M  V30 12 C -1.5547 3.9817 -1.4635 0
M  V30 13 N -0.4811 1.9558 1.2907 0
M  V30 14 C -0.8955 -0.4271 0.9125 0
M  V30 15 C -0.4308 4.5024 1.0595 0
M  V30 16 C -1.2944 5.2942 -1.0633 0
M  V30 17 C 0.1539 1.8518 2.6121 0
M  V30 18 C -0.2494 -1.3458 0.1774 0
M  V30 19 C -0.7405 5.5483 0.1842 0
M  V30 20 C -0.867 1.6064 3.7229 0
M  V30 21 C 1.331 0.8746 2.6796 0
M  V30 22 C -0.1926 -2.8027 0.5205 0 CFG=1
M  V30 23 O -0.6238 -3.5337 -0.6253 0
M  V30 24 C 1.2075 -3.2744 0.942 0
M  V30 25 C 2.2476 -3.2789 -0.1922 0 CFG=2
M  V30 26 O 1.8944 -4.274 -1.1572 0
M  V30 27 C 3.634 -3.6248 0.3489 0
M  V30 28 C 4.7064 -3.2049 -0.6164 0
M  V30 29 O 4.729 -2.1921 -1.2962 0
M  V30 30 O 5.7583 -4.0483 -0.618 0
M  V30 31 H -1.3143 -0.1427 -5.0262 0
M  V30 32 H -4.6954 -1.1617 -2.5974 0
M  V30 33 H -0.3399 1.1669 -3.1485 0
M  V30 34 H -3.745 0.1433 -0.7019 0
M  V30 35 H -1.9982 3.7899 -2.4365 0
M  V30 36 H -1.404 -0.7077 1.8298 0
M  V30 37 H -0.0051 4.732 2.0305 0
M  V30 38 H -1.532 6.1179 -1.7313 0
M  V30 39 H 0.5997 2.8322 2.8103 0
M  V30 40 H 0.2579 -1.0452 -0.738 0
M  V30 41 H -0.5461 6.5747 0.4872 0
M  V30 42 H -1.3243 0.6158 3.6533 0
M  V30 43 H -0.3896 1.6814 4.7058 0
M  V30 44 H -1.6732 2.3473 3.6844 0
M  V30 45 H 1.007 -0.1678 2.7371 0
M  V30 46 H 1.9894 0.9853 1.8114 0
M  V30 47 H 1.9272 1.0673 3.5787 0
M  V30 48 H -0.8931 -3.0311 1.3327 0
M  V30 49 H -1.4668 -3.134 -0.9115 0
M  V30 50 H 1.1097 -4.3039 1.3121 0
M  V30 51 H 1.5594 -2.6558 1.7767 0
M  V30 52 H 2.2597 -2.3097 -0.7005 0
M  V30 53 H 0.9296 -4.1774 -1.3167 0
M  V30 54 H 3.712 -4.7051 0.5181 0
M  V30 55 H 3.8396 -3.1048 1.291 0
M  V30 56 H 6.3656 -3.6634 -1.2835 0
M  V30 END ATOM
M  V30 BEGIN BOND
M  V30 1 1 1 2
M  V30 2 2 2 3
M  V30 3 1 2 4
M  V30 4 1 3 5
M  V30 5 2 4 6
M  V30 6 2 5 7
M  V30 7 1 7 8
M  V30 8 1 8 9
M  V30 9 2 8 10
M  V30 10 2 9 11
M  V30 11 1 9 12
M  V30 12 1 10 13
M  V30 13 1 10 14
M  V30 14 1 11 15
M  V30 15 2 12 16
M  V30 16 1 13 17
M  V30 17 2 14 18
M  V30 18 2 15 19
M  V30 19 1 17 20
M  V30 20 1 17 21
M  V30 21 1 18 22
M  V30 22 1 22 23
M  V30 23 1 22 24
M  V30 24 1 24 25
M  V30 25 1 25 26
M  V30 26 1 25 27
M  V30 27 1 27 28
M  V30 28 2 28 29
M  V30 29 1 28 30
M  V30 30 1 6 7
M  V30 31 1 11 13
M  V30 32 1 16 19
M  V30 33 1 3 31
M  V30 34 1 4 32
M  V30 35 1 5 33
M  V30 36 1 6 34
M  V30 37 1 12 35
M  V30 38 1 14 36
M  V30 39 1 15 37
M  V30 40 1 16 38
M  V30 41 1 17 39
M  V30 42 1 18 40
M  V30 43 1 19 41
M  V30 44 1 20 42
M  V30 45 1 20 43
M  V30 46 1 20 44
M  V30 47 1 21 45
M  V30 48 1 21 46
M  V30 49 1 21 47
M  V30 50 1 22 48
M  V30 51 1 23 49
M  V30 52 1 24 50
M  V30 53 1 24 51
M  V30 54 1 25 52
M  V30 55 1 26 53
M  V30 56 1 27 54
M  V30 57 1 27 55
M  V30 58 1 30 56
M  V30 END BOND
M  V30 BEGIN COLLECTION
M  V30 MDLV30/STEABS ATOMS=(2 22 25)
M  V30 END COLLECTION
M  V30 END CTAB
M  END
>  <NO.>
1281

>  <Name>
fluvastatin

>  <SMILES>
CC(C)n1c(/C=C/[C@@H](O)C[C@H](O)CC(=O)O)c(-c2ccc(F)cc2)c2ccccc21

>  <logBB>


>  <Class>
1

>  <MW>
411.18

>  <nHBAcc>
3

>  <nHBDon>
3

>  <SLogP>
4.63

>  <TopoPSA>
82.69

>  <MMFF94 Energy>
18.841

$$$$
CC(C)n1c(=O)c2c(-c3noc(C4CC4)n3)ncn2c2ccccc21
Actelion Java MolfileCreator 2.0

  0  0  0  0  0  0              0 V3000
M  V30 BEGIN CTAB
M  V30 COUNTS 42 46 0 0 0
M  V30 BEGIN ATOM
M  V30 1 O -1.2132 -0.0808 -0.8896 0
M  V30 2 C -0.2147 0.4718 -0.4352 0
M  V30 3 N 0.8781 0.8498 -1.2556 0
M  V30 4 C -0.0934 0.7988 0.9519 0
M  V30 5 C 1.9763 1.6259 -0.723 0
M  V30 6 C 0.8029 0.4249 -2.6714 0
M  V30 7 N 0.9469 1.5319 1.4478 0
M  V30 8 C -0.8918 0.5214 2.0449 0
M  V30 9 C 2.0085 1.973 0.6443 0
M  V30 10 C 3.0411 2.087 -1.5086 0
M  V30 11 C 0.5651 1.5788 -3.6489 0
M  V30 12 C 1.9144 -0.5401 -3.0955 0
M  V30 13 C 0.7155 1.7206 2.7851 0
M  V30 14 N -0.3877 1.1262 3.1791 0
M  V30 15 C -2.1021 -0.3002 2.1227 0
M  V30 16 C 3.0545 2.728 1.1994 0
M  V30 17 C 4.0885 2.8417 -0.9634 0
M  V30 18 N -3.1767 0.0053 2.8635 0
M  V30 19 N -2.1738 -1.502 1.4657 0
M  V30 20 C 4.0965 3.1601 0.3876 0
M  V30 21 O -4.0367 -1.0693 2.6278 0
M  V30 22 C -3.3744 -1.9212 1.7899 0
M  V30 23 C -3.9816 -3.254 1.2715 0
M  V30 24 C -3.1916 -4.5285 1.4228 0
M  V30 25 C -4.4127 -4.301 2.2659 0
M  V30 26 H -0.1006 -0.1874 -2.7789 0
M  V30 27 H 3.1069 1.8915 -2.5703 0
M  V30 28 H 1.4175 2.2527 -3.7455 0
M  V30 29 H 0.3461 1.1899 -4.6494 0
M  V30 30 H -0.2933 2.1797 -3.329 0
M  V30 31 H 2.8956 -0.0722 -3.1835 0
M  V30 32 H 2.0029 -1.3617 -2.3762 0
M  V30 33 H 1.6819 -0.9766 -4.0733 0
M  V30 34 H 1.3677 2.2883 3.4339 0
M  V30 35 H 3.0868 2.9947 2.2516 0
M  V30 36 H 4.899 3.1816 -1.6048 0
M  V30 37 H 4.9115 3.746 0.8059 0
M  V30 38 H -4.5735 -3.1419 0.3706 0
M  V30 39 H -2.2205 -4.4771 1.903 0
M  V30 40 H -3.2499 -5.2543 0.6204 0
M  V30 41 H -5.3025 -4.8768 2.0393 0
M  V30 42 H -4.2685 -4.1059 3.3229 0
M  V30 END ATOM
M  V30 BEGIN BOND
M  V30 1 2 1 2
M  V30 2 1 2 3
M  V30 3 1 2 4
M  V30 4 1 3 5
M  V30 5 1 3 6
M  V30 6 1 4 7
M  V30 7 2 4 8
M  V30 8 2 5 9
M  V30 9 1 5 10
M  V30 10 1 6 11
M  V30 11 1 6 12
M  V30 12 1 7 13
M  V30 13 1 8 14
M  V30 14 1 8 15
M  V30 15 1 9 16
M  V30 16 2 10 17
M  V30 17 2 15 18
M  V30 18 1 15 19
M  V30 19 2 16 20
M  V30 20 1 18 21
M  V30 21 2 19 22
M  V30 22 1 22 23
M  V30 23 1 23 24
M  V30 24 1 23 25
M  V30 25 1 7 9
M  V30 26 2 13 14
M  V30 27 1 17 20
M  V30 28 1 21 22
M  V30 29 1 24 25
M  V30 30 1 6 26
M  V30 31 1 10 27
M  V30 32 1 11 28
M  V30 33 1 11 29
M  V30 34 1 11 30
M  V30 35 1 12 31
M  V30 36 1 12 32
M  V30 37 1 12 33
M  V30 38 1 13 34
M  V30 39 1 16 35
M  V30 40 1 17 36
M  V30 41 1 20 37
M  V30 42 1 23 38
M  V30 43 1 24 39
M  V30 44 1 24 40
M  V30 45 1 25 41
M  V30 46 1 25 42
M  V30 END BOND
M  V30 END CTAB
M  END
>  <NO.>
1282

>  <Name>
panadiplon

>  <SMILES>
CC(C)n1c(=O)c2c(-c3noc(C4CC4)n3)ncn2c2ccccc21

>  <logBB>


>  <Class>
1

>  <MW>
335.14

>  <nHBAcc>
5

>  <nHBDon>
0

>  <SLogP>
3.16

>  <TopoPSA>
78.22

>  <MMFF94 Energy>
49.487

$$$$
CC(C)n1cc2c3c(cccc31)C1C[C@@H](C(=O)NC3CCCCC3)CN(C)C1C2
Actelion Java MolfileCreator 2.0

  0  0  0  0  0  0              0 V3000
M  V30 BEGIN CTAB
M  V30 COUNTS 64 68 0 0 0
M  V30 BEGIN ATOM
M  V30 1 O -3.0303 -0.478 -1.7535 0
M  V30 2 C -2.2888 0.4876 -1.6044 0
M  V30 3 N -1.761 1.2014 -2.6608 0
M  V30 4 C -1.8669 1.0169 -0.2391 0 CFG=1
M  V30 5 C -2.0555 0.868 -4.0465 0
M  V30 6 C -2.7159 0.3759 0.8664 0
M  V30 7 C -0.3737 0.7639 -0.0057 0
M  V30 8 C -3.3527 1.5498 -4.4991 0
M  V30 9 C -0.8815 1.2643 -4.9485 0
M  V30 10 N -2.3052 0.8459 2.1993 0
M  V30 11 C 0.04 1.2073 1.4048 0
M  V30 12 C -3.6495 1.2757 -5.9711 0
M  V30 13 C -1.1822 0.9876 -6.4189 0
M  V30 14 C -0.885 0.5351 2.5001 0
M  V30 15 C -3.2215 0.3588 3.2279 0
M  V30 16 C 1.502 0.8965 1.6483 0
M  V30 17 C -2.4754 1.6637 -6.8646 0
M  V30 18 C -0.5641 -0.9916 2.754 0
M  V30 19 C 1.8082 -0.2754 2.3494 0
M  V30 20 C 2.5745 1.6705 1.1958 0
M  V30 21 C 0.9066 -1.2054 2.9003 0
M  V30 22 C 3.1072 -0.6755 2.61 0
M  V30 23 C 3.8922 1.2742 1.4548 0
M  V30 24 C 1.6641 -2.1862 3.4945 0
M  V30 25 N 2.9991 -1.8612 3.3167 0
M  V30 26 C 4.1879 0.097 2.165 0
M  V30 27 C 4.1201 -2.6623 3.8086 0
M  V30 28 C 4.1211 -2.7525 5.3349 0
M  V30 29 C 4.1464 -4.0492 3.1656 0
M  V30 30 H -1.2171 2.0326 -2.4681 0
M  V30 31 H -2.0498 2.1007 -0.2358 0
M  V30 32 H -2.1926 -0.2192 -4.1102 0
M  V30 33 H -3.7644 0.6533 0.693 0
M  V30 34 H -2.6737 -0.7189 0.8063 0
M  V30 35 H -0.1497 -0.3006 -0.1588 0
M  V30 36 H 0.2225 1.303 -0.753 0
M  V30 37 H -3.2787 2.6335 -4.3386 0
M  V30 38 H -4.195 1.2043 -3.8876 0
M  V30 39 H -0.6538 2.3306 -4.8195 0
M  V30 40 H 0.0205 0.7171 -4.6491 0
M  V30 41 H -0.0904 2.2959 1.4863 0
M  V30 42 H -4.5438 1.8306 -6.2761 0
M  V30 43 H -3.8734 0.2103 -6.1049 0
M  V30 44 H -1.2626 -0.0947 -6.5773 0
M  V30 45 H -0.3497 1.3401 -7.038 0
M  V30 46 H -0.6433 1.0536 3.4413 0
M  V30 47 H -2.9139 0.7081 4.2196 0
M  V30 48 H -4.2282 0.7566 3.0565 0
M  V30 49 H -3.2915 -0.7338 3.2487 0
M  V30 50 H -2.6958 1.3904 -7.9025 0
M  V30 51 H -2.3442 2.7526 -6.8416 0
M  V30 52 H -0.922 -1.6066 1.9212 0
M  V30 53 H -1.0701 -1.3339 3.6638 0
M  V30 54 H 2.3903 2.5864 0.6406 0
M  V30 55 H 4.7123 1.8931 1.0961 0
M  V30 56 H 1.3738 -3.0827 4.0261 0
M  V30 57 H 5.2167 -0.1879 2.3521 0
M  V30 58 H 5.0382 -2.1448 3.5099 0
M  V30 59 H 3.2486 -3.2979 5.7104 0
M  V30 60 H 5.018 -3.2709 5.69 0
M  V30 61 H 4.1084 -1.7537 5.7851 0
M  V30 62 H 3.275 -4.6471 3.4536 0
M  V30 63 H 4.1515 -3.9726 2.0728 0
M  V30 64 H 5.044 -4.598 3.4694 0
M  V30 END ATOM
M  V30 BEGIN BOND
M  V30 1 2 1 2
M  V30 2 1 2 3
M  V30 3 1 2 4
M  V30 4 1 3 5
M  V30 5 1 4 6
M  V30 6 1 4 7
M  V30 7 1 5 8
M  V30 8 1 5 9
M  V30 9 1 6 10
M  V30 10 1 7 11
M  V30 11 1 8 12
M  V30 12 1 9 13
M  V30 13 1 10 14
M  V30 14 1 10 15
M  V30 15 1 11 16
M  V30 16 1 12 17
M  V30 17 1 14 18
M  V30 18 2 16 19
M  V30 19 1 16 20
M  V30 20 1 18 21
M  V30 21 1 19 22
M  V30 22 2 20 23
M  V30 23 2 21 24
M  V30 24 1 22 25
M  V30 25 2 22 26
M  V30 26 1 25 27
M  V30 27 1 27 28
M  V30 28 1 27 29
M  V30 29 1 11 14
M  V30 30 1 13 17
M  V30 31 1 19 21
M  V30 32 1 23 26
M  V30 33 1 24 25
M  V30 34 1 3 30
M  V30 35 1 4 31
M  V30 36 1 5 32
M  V30 37 1 6 33
M  V30 38 1 6 34
M  V30 39 1 7 35
M  V30 40 1 7 36
M  V30 41 1 8 37
M  V30 42 1 8 38
M  V30 43 1 9 39
M  V30 44 1 9 40
M  V30 45 1 11 41
M  V30 46 1 12 42
M  V30 47 1 12 43
M  V30 48 1 13 44
M  V30 49 1 13 45
M  V30 50 1 14 46
M  V30 51 1 15 47
M  V30 52 1 15 48
M  V30 53 1 15 49
M  V30 54 1 17 50
M  V30 55 1 17 51
M  V30 56 1 18 52
M  V30 57 1 18 53
M  V30 58 1 20 54
M  V30 59 1 23 55
M  V30 60 1 24 56
M  V30 61 1 26 57
M  V30 62 1 27 58
M  V30 63 1 28 59
M  V30 64 1 28 60
M  V30 65 1 28 61
M  V30 66 1 29 62
M  V30 67 1 29 63
M  V30 68 1 29 64
M  V30 END BOND
M  V30 BEGIN COLLECTION
M  V30 MDLV30/STEABS ATOMS=(1 4)
M  V30 END COLLECTION
M  V30 END CTAB
M  END
>  <NO.>
1283

>  <Name>
amesergide

>  <SMILES>
CC(C)n1cc2c3c(cccc31)C1C[C@@H](C(=O)NC3CCCCC3)CN(C)C1C2

>  <logBB>


>  <Class>
1

>  <MW>
393.28

>  <nHBAcc>
2

>  <nHBDon>
1

>  <SLogP>
4.63

>  <TopoPSA>
37.27

>  <MMFF94 Energy>
42.251

$$$$
CC(CC#N)N(C)CC(=O)N(C)c1ccc(Cl)cc1C(=O)c1ccccc1F
Actelion Java MolfileCreator 2.0

  0  0  0  0  0  0              0 V3000
M  V30 BEGIN CTAB
M  V30 COUNTS 49 50 0 0 0
M  V30 BEGIN ATOM
M  V30 1 Cl 4.4989 -3.8553 1.2035 0
M  V30 2 C 2.9375 -3.1352 1.2424 0
M  V30 3 C 2.0245 -3.4099 0.2288 0
M  V30 4 C 2.5932 -2.289 2.2964 0
M  V30 5 C 0.7615 -2.8068 0.2619 0
M  V30 6 C 1.3219 -1.7092 2.3413 0
M  V30 7 C 0.3976 -1.9514 1.317 0
M  V30 8 C -0.1836 -3.1593 -0.8098 0
M  V30 9 N -0.9034 -1.404 1.4308 0
M  V30 10 O -0.6696 -4.2868 -0.7961 0
M  V30 11 C -0.5548 -2.1931 -1.8685 0
M  V30 12 C -1.2068 -0.0391 1.3528 0
M  V30 13 C -1.9909 -2.3329 1.7176 0
M  V30 14 C 0.278 -1.1411 -2.2488 0
M  V30 15 C -1.7742 -2.3727 -2.5354 0
M  V30 16 O -2.3629 0.3565 1.5268 0
M  V30 17 C -0.0342 0.923 1.0439 0
M  V30 18 F 1.465 -0.9435 -1.658 0
M  V30 19 C -0.0954 -0.27 -3.2708 0
M  V30 20 C -2.1556 -1.4952 -3.5534 0
M  V30 21 N -0.475 2.3 0.7034 0
M  V30 22 C -1.3166 -0.4435 -3.9208 0
M  V30 23 C 0.6424 3.2706 0.793 0 CFG=2
M  V30 24 C -1.2019 2.3312 -0.5675 0
M  V30 25 C 0.1392 4.7131 1.0333 0
M  V30 26 C 1.5943 3.2446 -0.4135 0
M  V30 27 C -0.4141 4.8818 2.3856 0
M  V30 28 N -0.8133 5.0578 3.4615 0
M  V30 29 H 2.2848 -4.0899 -0.5785 0
M  V30 30 H 3.3027 -2.0929 3.0973 0
M  V30 31 H 1.0531 -1.0899 3.1952 0
M  V30 32 H -2.5624 -1.9677 2.5773 0
M  V30 33 H -2.6582 -2.3711 0.8509 0
M  V30 34 H -1.6166 -3.3359 1.944 0
M  V30 35 H -2.4321 -3.1967 -2.2632 0
M  V30 36 H 0.5616 0.9624 1.9628 0
M  V30 37 H 0.5863 0.5137 0.2424 0
M  V30 38 H 0.5706 0.5385 -3.5567 0
M  V30 39 H -3.1064 -1.638 -4.0631 0
M  V30 40 H -1.6125 0.2345 -4.7181 0
M  V30 41 H 1.2487 3.0108 1.6729 0
M  V30 42 H -1.5521 3.3413 -0.801 0
M  V30 43 H -2.1014 1.7092 -0.5365 0
M  V30 44 H -0.5887 1.9823 -1.4034 0
M  V30 45 H 0.9795 5.4111 0.9256 0
M  V30 46 H -0.5997 5.0128 0.2829 0
M  V30 47 H 1.1139 3.6219 -1.3224 0
M  V30 48 H 2.4683 3.8768 -0.2199 0
M  V30 49 H 1.9656 2.2341 -0.6115 0
M  V30 END ATOM
M  V30 BEGIN BOND
M  V30 1 1 1 2
M  V30 2 2 2 3
M  V30 3 1 2 4
M  V30 4 1 3 5
M  V30 5 2 4 6
M  V30 6 2 5 7
M  V30 7 1 5 8
M  V30 8 1 7 9
M  V30 9 2 8 10
M  V30 10 1 8 11
M  V30 11 1 9 12
M  V30 12 1 9 13
M  V30 13 2 11 14
M  V30 14 1 11 15
M  V30 15 2 12 16
M  V30 16 1 12 17
M  V30 17 1 14 18
M  V30 18 1 14 19
M  V30 19 2 15 20
M  V30 20 1 17 21
M  V30 21 2 19 22
M  V30 22 1 21 23
M  V30 23 1 21 24
M  V30 24 1 23 25
M  V30 25 1 23 26
M  V30 26 1 25 27
M  V30 27 3 27 28
M  V30 28 1 6 7
M  V30 29 1 20 22
M  V30 30 1 3 29
M  V30 31 1 4 30
M  V30 32 1 6 31
M  V30 33 1 13 32
M  V30 34 1 13 33
M  V30 35 1 13 34
M  V30 36 1 15 35
M  V30 37 1 17 36
M  V30 38 1 17 37
M  V30 39 1 19 38
M  V30 40 1 20 39
M  V30 41 1 22 40
M  V30 42 1 23 41
M  V30 43 1 24 42
M  V30 44 1 24 43
M  V30 45 1 24 44
M  V30 46 1 25 45
M  V30 47 1 25 46
M  V30 48 1 26 47
M  V30 49 1 26 48
M  V30 50 1 26 49
M  V30 END BOND
M  V30 BEGIN COLLECTION
M  V30 MDLV30/STERAC1 ATOMS=(1 23)
M  V30 END COLLECTION
M  V30 END CTAB
M  END
>  <NO.>
1284

>  <Name>
alozafone

>  <SMILES>
CC(CC#N)N(C)CC(=O)N(C)c1ccc(Cl)cc1C(=O)c1ccccc1F

>  <logBB>


>  <Class>
1

>  <MW>
401.13

>  <nHBAcc>
4

>  <nHBDon>
0

>  <SLogP>
3.91

>  <TopoPSA>
64.41

>  <MMFF94 Energy>
119.21

$$$$
CC(CC(C)(C)O)OC(O)C(Cl)(Cl)Cl
Actelion Java MolfileCreator 2.0

  0  0  0  0  0  0              0 V3000
M  V30 BEGIN CTAB
M  V30 COUNTS 29 28 0 0 0
M  V30 BEGIN ATOM
M  V30 1 Cl -0.8984 2.0427 4.2523 0
M  V30 2 C -0.9159 0.3839 3.5585 0
M  V30 3 Cl -2.5554 -0.3038 3.7835 0
M  V30 4 Cl 0.2695 -0.6071 4.4804 0
M  V30 5 C -0.5207 0.4279 2.0397 0
M  V30 6 O -0.5872 -0.8761 1.4475 0
M  V30 7 O 0.8011 0.9514 1.8229 0
M  V30 8 C -0.7633 -0.873 0.0216 0
M  V30 9 C 0.5903 -0.7194 -0.7011 0
M  V30 10 C -1.3945 -2.2221 -0.3195 0
M  V30 11 C 0.7152 0.5739 -1.5364 0
M  V30 12 O 0.3479 1.7086 -0.7527 0
M  V30 13 C -0.2049 0.5457 -2.7597 0
M  V30 14 C 2.1652 0.7686 -1.9893 0
M  V30 15 H -1.2237 1.0964 1.5272 0
M  V30 16 H 1.3715 0.5003 2.4743 0
M  V30 17 H -1.4825 -0.0954 -0.2582 0
M  V30 18 H 0.7698 -1.5724 -1.3688 0
M  V30 19 H 1.3975 -0.7485 0.0414 0
M  V30 20 H -0.7476 -3.05 -0.008 0
M  V30 21 H -2.3419 -2.3456 0.2171 0
M  V30 22 H -1.5898 -2.3096 -1.3927 0
M  V30 23 H 0.8362 1.6518 0.0961 0
M  V30 24 H -0.0985 1.4658 -3.3463 0
M  V30 25 H -1.2595 0.4937 -2.4691 0
M  V30 26 H 0.0171 -0.3055 -3.4114 0
M  V30 27 H 2.276 1.7008 -2.5552 0
M  V30 28 H 2.5073 -0.0614 -2.6158 0
M  V30 29 H 2.8358 0.8519 -1.1263 0
M  V30 END ATOM
M  V30 BEGIN BOND
M  V30 1 1 1 2
M  V30 2 1 2 3
M  V30 3 1 2 4
M  V30 4 1 2 5
M  V30 5 1 5 6
M  V30 6 1 5 7
M  V30 7 1 6 8
M  V30 8 1 8 9
M  V30 9 1 8 10
M  V30 10 1 9 11
M  V30 11 1 11 12
M  V30 12 1 11 13
M  V30 13 1 11 14
M  V30 14 1 5 15
M  V30 15 1 7 16
M  V30 16 1 8 17
M  V30 17 1 9 18
M  V30 18 1 9 19
M  V30 19 1 10 20
M  V30 20 1 10 21
M  V30 21 1 10 22
M  V30 22 1 12 23
M  V30 23 1 13 24
M  V30 24 1 13 25
M  V30 25 1 13 26
M  V30 26 1 14 27
M  V30 27 1 14 28
M  V30 28 1 14 29
M  V30 END BOND
M  V30 END CTAB
M  END
>  <NO.>
1285

>  <Name>
chloralodol

>  <SMILES>
CC(CC(C)(C)O)OC(O)C(Cl)(Cl)Cl

>  <logBB>


>  <Class>
1

>  <MW>
264.01

>  <nHBAcc>
3

>  <nHBDon>
2

>  <SLogP>
2.24

>  <TopoPSA>
49.69

>  <MMFF94 Energy>
72.965

$$$$
CC(CC1c2ccccc2CCc2ccccc21)CN(C)C
Actelion Java MolfileCreator 2.0

  0  0  0  0  0  0              0 V3000
M  V30 BEGIN CTAB
M  V30 COUNTS 49 51 0 0 0
M  V30 BEGIN ATOM
M  V30 1 N 0.3165 -2.7724 -0.3165 0
M  V30 2 C -0.0485 -2.869 1.1046 0
M  V30 3 C -0.1731 -3.9437 -1.0474 0
M  V30 4 C 1.7647 -2.6464 -0.5019 0
M  V30 5 C 0.1425 -1.5727 1.9344 0 CFG=2
M  V30 6 C -0.7995 -0.4125 1.5095 0
M  V30 7 C -0.1259 -1.9062 3.4114 0
M  V30 8 C -0.3746 0.3899 0.2445 0
M  V30 9 C -1.5123 1.2451 -0.3271 0
M  V30 10 C 0.9112 1.22 0.3254 0
M  V30 11 C -1.508 1.5321 -1.7103 0
M  V30 12 C -2.5288 1.7931 0.4709 0
M  V30 13 C 1.5182 1.7522 -0.8403 0
M  V30 14 C 1.52 1.4871 1.5701 0
M  V30 15 C -2.5297 2.3139 -2.268 0
M  V30 16 C -0.3808 1.0236 -2.5751 0
M  V30 17 C -3.5403 2.5719 -0.0949 0
M  V30 18 C 2.7315 2.4669 -0.7132 0
M  V30 19 C 0.963 1.6885 -2.2571 0
M  V30 20 C 2.7138 2.2036 1.6697 0
M  V30 21 C -3.5444 2.8266 -1.4627 0
M  V30 22 C 3.327 2.6854 0.5253 0
M  V30 23 H -1.1088 -3.1475 1.1806 0
M  V30 24 H 0.5141 -3.6889 1.5723 0
M  V30 25 H -1.264 -4.0162 -0.9734 0
M  V30 26 H 0.2621 -4.877 -0.6723 0
M  V30 27 H 0.0597 -3.8574 -2.1146 0
M  V30 28 H 2.3107 -3.4971 -0.0785 0
M  V30 29 H 2.1491 -1.7284 -0.0481 0
M  V30 30 H 2.0084 -2.5795 -1.5684 0
M  V30 31 H 1.1867 -1.2524 1.8749 0
M  V30 32 H -0.9207 0.2802 2.3521 0
M  V30 33 H -1.7975 -0.8418 1.3415 0
M  V30 34 H 0.536 -2.7071 3.7573 0
M  V30 35 H -1.1612 -2.2296 3.5643 0
M  V30 36 H 0.0551 -1.0327 4.047 0
M  V30 37 H -0.1749 -0.3891 -0.49 0
M  V30 38 H -2.5476 1.6292 1.5443 0
M  V30 39 H 1.0763 1.1395 2.4983 0
M  V30 40 H -2.5344 2.5373 -3.3318 0
M  V30 41 H -0.3104 -0.0676 -2.5035 0
M  V30 42 H -0.6133 1.2136 -3.6314 0
M  V30 43 H -4.3228 2.9845 0.5362 0
M  V30 44 H 3.212 2.8786 -1.5994 0
M  V30 45 H 1.7213 1.2003 -2.884 0
M  V30 46 H 0.8912 2.729 -2.6067 0
M  V30 47 H 3.1587 2.3841 2.6444 0
M  V30 48 H -4.3309 3.4351 -1.9005 0
M  V30 49 H 4.2552 3.245 0.5942 0
M  V30 END ATOM
M  V30 BEGIN BOND
M  V30 1 1 1 2
M  V30 2 1 1 3
M  V30 3 1 1 4
M  V30 4 1 2 5
M  V30 5 1 5 6
M  V30 6 1 5 7
M  V30 7 1 6 8
M  V30 8 1 8 9
M  V30 9 1 8 10
M  V30 10 2 9 11
M  V30 11 1 9 12
M  V30 12 2 10 13
M  V30 13 1 10 14
M  V30 14 1 11 15
M  V30 15 1 11 16
M  V30 16 2 12 17
M  V30 17 1 13 18
M  V30 18 1 13 19
M  V30 19 2 14 20
M  V30 20 2 15 21
M  V30 21 2 18 22
M  V30 22 1 16 19
M  V30 23 1 17 21
M  V30 24 1 20 22
M  V30 25 1 2 23
M  V30 26 1 2 24
M  V30 27 1 3 25
M  V30 28 1 3 26
M  V30 29 1 3 27
M  V30 30 1 4 28
M  V30 31 1 4 29
M  V30 32 1 4 30
M  V30 33 1 5 31
M  V30 34 1 6 32
M  V30 35 1 6 33
M  V30 36 1 7 34
M  V30 37 1 7 35
M  V30 38 1 7 36
M  V30 39 1 8 37
M  V30 40 1 12 38
M  V30 41 1 14 39
M  V30 42 1 15 40
M  V30 43 1 16 41
M  V30 44 1 16 42
M  V30 45 1 17 43
M  V30 46 1 18 44
M  V30 47 1 19 45
M  V30 48 1 19 46
M  V30 49 1 20 47
M  V30 50 1 21 48
M  V30 51 1 22 49
M  V30 END BOND
M  V30 BEGIN COLLECTION
M  V30 MDLV30/STERAC1 ATOMS=(1 5)
M  V30 END COLLECTION
M  V30 END CTAB
M  END
>  <NO.>
1286

>  <Name>
butriptyline

>  <SMILES>
CC(CC1c2ccccc2CCc2ccccc21)CN(C)C

>  <logBB>


>  <Class>
1

>  <MW>
293.21

>  <nHBAcc>
1

>  <nHBDon>
0

>  <SLogP>
4.5

>  <TopoPSA>
3.24

>  <MMFF94 Energy>
86.064

$$$$
CC(CCN1CCN(c2ccc(F)cc2)CC1)NC(=O)c1cccnc1
Actelion Java MolfileCreator 2.0

  0  0  0  0  0  0              0 V3000
M  V30 BEGIN CTAB
M  V30 COUNTS 51 53 0 0 0
M  V30 BEGIN ATOM
M  V30 1 F 4.6088 3.1767 7.4777 0
M  V30 2 C 4.0693 2.5699 6.4127 0
M  V30 3 C 2.6916 2.5208 6.275 0
M  V30 4 C 4.8942 1.9923 5.4607 0
M  V30 5 C 2.1343 1.8856 5.1603 0
M  V30 6 C 4.3277 1.3572 4.3495 0
M  V30 7 C 2.9354 1.2954 4.1659 0
M  V30 8 N 2.3523 0.6644 3.0722 0
M  V30 9 C 3.1137 -0.3191 2.2862 0
M  V30 10 C 1.3464 1.4125 2.2952 0
M  V30 11 C 2.1701 -1.2218 1.46 0
M  V30 12 C 0.4604 0.4608 1.4556 0
M  V30 13 N 1.239 -0.4592 0.5916 0
M  V30 14 C 0.3688 -1.3917 -0.1481 0
M  V30 15 C -0.3956 -0.7021 -1.2869 0
M  V30 16 C -1.2843 -1.6694 -2.0878 0 CFG=1
M  V30 17 N -2.1239 -0.907 -3.0108 0
M  V30 18 C -0.481 -2.7037 -2.876 0
M  V30 19 C -3.4003 -1.3151 -3.3421 0
M  V30 20 O -3.9435 -2.2962 -2.8474 0
M  V30 21 C -4.1321 -0.4893 -4.3316 0
M  V30 22 C -5.522 -0.5237 -4.3245 0
M  V30 23 C -3.5055 0.3064 -5.2941 0
M  V30 24 N -6.303 0.19 -5.1752 0
M  V30 25 C -4.2856 1.0449 -6.184 0
M  V30 26 C -5.6656 0.9577 -6.0842 0
M  V30 27 H 2.0565 2.965 7.034 0
M  V30 28 H 5.9713 2.0381 5.5819 0
M  V30 29 H 1.051 1.8274 5.0934 0
M  V30 30 H 5.0035 0.9289 3.6151 0
M  V30 31 H 3.6997 -0.9706 2.9461 0
M  V30 32 H 3.8073 0.2006 1.613 0
M  V30 33 H 1.8622 2.1164 1.6292 0
M  V30 34 H 0.6813 2.0021 2.9351 0
M  V30 35 H 1.602 -1.8643 2.147 0
M  V30 36 H 2.7936 -1.8777 0.8401 0
M  V30 37 H -0.1948 1.0893 0.8436 0
M  V30 38 H -0.1806 -0.1148 2.1371 0
M  V30 39 H -0.3315 -1.8979 0.5285 0
M  V30 40 H 1.0021 -2.1686 -0.5912 0
M  V30 41 H -1.0395 0.0862 -0.8787 0
M  V30 42 H 0.3126 -0.2036 -1.9619 0
M  V30 43 H -1.9442 -2.2008 -1.3911 0
M  V30 44 H -1.7368 -0.0652 -3.4128 0
M  V30 45 H 0.2275 -2.2181 -3.5559 0
M  V30 46 H -1.1428 -3.3294 -3.4855 0
M  V30 47 H 0.0784 -3.3706 -2.214 0
M  V30 48 H -6.0673 -1.1382 -3.6116 0
M  V30 49 H -2.4255 0.3437 -5.3873 0
M  V30 50 H -3.8283 1.668 -6.9452 0
M  V30 51 H -6.3135 1.5141 -6.7563 0
M  V30 END ATOM
M  V30 BEGIN BOND
M  V30 1 1 1 2
M  V30 2 2 2 3
M  V30 3 1 2 4
M  V30 4 1 3 5
M  V30 5 2 4 6
M  V30 6 2 5 7
M  V30 7 1 7 8
M  V30 8 1 8 9
M  V30 9 1 8 10
M  V30 10 1 9 11
M  V30 11 1 10 12
M  V30 12 1 11 13
M  V30 13 1 13 14
M  V30 14 1 14 15
M  V30 15 1 15 16
M  V30 16 1 16 17
M  V30 17 1 16 18
M  V30 18 1 17 19
M  V30 19 2 19 20
M  V30 20 1 19 21
M  V30 21 2 21 22
M  V30 22 1 21 23
M  V30 23 1 22 24
M  V30 24 2 23 25
M  V30 25 2 24 26
M  V30 26 1 6 7
M  V30 27 1 12 13
M  V30 28 1 25 26
M  V30 29 1 3 27
M  V30 30 1 4 28
M  V30 31 1 5 29
M  V30 32 1 6 30
M  V30 33 1 9 31
M  V30 34 1 9 32
M  V30 35 1 10 33
M  V30 36 1 10 34
M  V30 37 1 11 35
M  V30 38 1 11 36
M  V30 39 1 12 37
M  V30 40 1 12 38
M  V30 41 1 14 39
M  V30 42 1 14 40
M  V30 43 1 15 41
M  V30 44 1 15 42
M  V30 45 1 16 43
M  V30 46 1 17 44
M  V30 47 1 18 45
M  V30 48 1 18 46
M  V30 49 1 18 47
M  V30 50 1 22 48
M  V30 51 1 23 49
M  V30 52 1 25 50
M  V30 53 1 26 51
M  V30 END BOND
M  V30 BEGIN COLLECTION
M  V30 MDLV30/STERAC1 ATOMS=(1 16)
M  V30 END COLLECTION
M  V30 END CTAB
M  END
>  <NO.>
1287

>  <Name>
niaprazine

>  <SMILES>
CC(CCN1CCN(c2ccc(F)cc2)CC1)NC(=O)c1cccnc1

>  <logBB>


>  <Class>
1

>  <MW>
356.2

>  <nHBAcc>
4

>  <nHBDon>
1

>  <SLogP>
2.55

>  <TopoPSA>
48.47

>  <MMFF94 Energy>
104.47

$$$$
CC(CCc1ccccc1)NC(C)C(O)c1ccc(O)cc1
Actelion Java MolfileCreator 2.0

  0  0  0  0  0  0              0 V3000
M  V30 BEGIN CTAB
M  V30 COUNTS 47 48 0 0 0
M  V30 BEGIN ATOM
M  V30 1 O 7.7913 -0.9418 0.2354 0
M  V30 2 C 6.4372 -0.8828 0.3834 0
M  V30 3 C 5.8355 0.0957 1.1664 0
M  V30 4 C 5.6712 -1.836 -0.2737 0
M  V30 5 C 4.4434 0.1181 1.2891 0
M  V30 6 C 4.2807 -1.8131 -0.1494 0
M  V30 7 C 3.6458 -0.8343 0.6309 0
M  V30 8 C 2.1371 -0.7784 0.7709 0
M  V30 9 O 1.5212 -2.0023 0.3506 0
M  V30 10 C 1.4609 0.4211 0.0217 0
M  V30 11 N 0.0052 0.3618 0.323 0
M  V30 12 C 1.7152 0.3521 -1.491 0
M  V30 13 C -0.8174 1.4468 -0.2329 0
M  V30 14 C -2.3035 1.1404 0.0503 0
M  V30 15 C -0.4583 2.8093 0.3681 0
M  V30 16 C -2.7891 -0.1405 -0.6389 0
M  V30 17 C -4.2633 -0.3663 -0.4061 0
M  V30 18 C -4.7031 -1.0805 0.7162 0
M  V30 19 C -5.2124 0.1587 -1.293 0
M  V30 20 C -6.0668 -1.2741 0.9414 0
M  V30 21 C -6.5757 -0.0357 -1.0661 0
M  V30 22 C -7.0025 -0.7524 0.0502 0
M  V30 23 H 8.1913 -0.2323 0.7632 0
M  V30 24 H 6.4269 0.8424 1.686 0
M  V30 25 H 6.1516 -2.5982 -0.88 0
M  V30 26 H 3.9829 0.8849 1.9083 0
M  V30 27 H 3.692 -2.5678 -0.6675 0
M  V30 28 H 1.9186 -0.6941 1.8442 0
M  V30 29 H 0.5897 -1.7581 0.1796 0
M  V30 30 H 1.8874 1.3512 0.4134 0
M  V30 31 H -0.1194 0.3512 1.3381 0
M  V30 32 H 1.3363 1.2421 -2.0028 0
M  V30 33 H 1.2413 -0.5266 -1.9414 0
M  V30 34 H 2.7858 0.3072 -1.7131 0
M  V30 35 H -0.7028 1.4983 -1.3206 0
M  V30 36 H -2.4739 1.0683 1.1333 0
M  V30 37 H -2.913 1.9853 -0.2977 0
M  V30 38 H 0.5529 3.1196 0.0883 0
M  V30 39 H -1.1427 3.5841 0.0053 0
M  V30 40 H -0.5218 2.7943 1.4619 0
M  V30 41 H -2.5965 -0.0847 -1.7177 0
M  V30 42 H -2.2338 -1.0143 -0.2772 0
M  V30 43 H -3.984 -1.4916 1.4209 0
M  V30 44 H -4.8942 0.7221 -2.167 0
M  V30 45 H -6.3989 -1.8325 1.8125 0
M  V30 46 H -7.305 0.3721 -1.7608 0
M  V30 47 H -8.0641 -0.9043 0.2257 0
M  V30 END ATOM
M  V30 BEGIN BOND
M  V30 1 1 1 2
M  V30 2 2 2 3
M  V30 3 1 2 4
M  V30 4 1 3 5
M  V30 5 2 4 6
M  V30 6 2 5 7
M  V30 7 1 7 8
M  V30 8 1 8 9
M  V30 9 1 8 10
M  V30 10 1 10 11
M  V30 11 1 10 12
M  V30 12 1 11 13
M  V30 13 1 13 14
M  V30 14 1 13 15
M  V30 15 1 14 16
M  V30 16 1 16 17
M  V30 17 2 17 18
M  V30 18 1 17 19
M  V30 19 1 18 20
M  V30 20 2 19 21
M  V30 21 2 20 22
M  V30 22 1 6 7
M  V30 23 1 21 22
M  V30 24 1 1 23
M  V30 25 1 3 24
M  V30 26 1 4 25
M  V30 27 1 5 26
M  V30 28 1 6 27
M  V30 29 1 8 28
M  V30 30 1 9 29
M  V30 31 1 10 30
M  V30 32 1 11 31
M  V30 33 1 12 32
M  V30 34 1 12 33
M  V30 35 1 12 34
M  V30 36 1 13 35
M  V30 37 1 14 36
M  V30 38 1 14 37
M  V30 39 1 15 38
M  V30 40 1 15 39
M  V30 41 1 15 40
M  V30 42 1 16 41
M  V30 43 1 16 42
M  V30 44 1 18 43
M  V30 45 1 19 44
M  V30 46 1 20 45
M  V30 47 1 21 46
M  V30 48 1 22 47
M  V30 END BOND
M  V30 END CTAB
M  END
>  <NO.>
1288

>  <Name>
nylidrin

>  <SMILES>
CC(CCc1ccccc1)NC(C)C(O)c1ccc(O)cc1

>  <logBB>


>  <Class>
-1

>  <MW>
299.19

>  <nHBAcc>
3

>  <nHBDon>
3

>  <SLogP>
3.43

>  <TopoPSA>
52.49

>  <MMFF94 Energy>
61.026

$$$$
CC(CN(C)C)CN1c2ccccc2S(=O)(=O)c2ccccc21
Actelion Java MolfileCreator 2.0

  0  0  0  0  0  0              0 V3000
M  V30 BEGIN CTAB
M  V30 COUNTS 45 47 0 0 0
M  V30 BEGIN ATOM
M  V30 1 S -1.612 -2.8224 1.2088 0
M  V30 2 O -2.6398 -3.4914 1.9897 0
M  V30 3 O -0.4476 -3.5466 0.7342 0
M  V30 4 C -1.0357 -1.4867 2.1845 0
M  V30 5 C -2.4131 -2.1408 -0.1914 0
M  V30 6 C -0.9311 -0.224 1.5949 0
M  V30 7 C -0.7006 -1.739 3.5229 0
M  V30 8 C -2.1711 -0.8027 -0.5151 0
M  V30 9 C -3.2873 -2.9618 -0.9192 0
M  V30 10 N -1.2912 0.0049 0.2438 0
M  V30 11 C -0.475 0.8077 2.4373 0
M  V30 12 C -0.2411 -0.6992 4.3198 0
M  V30 13 C -2.9018 -0.2997 -1.6075 0
M  V30 14 C -3.9644 -2.4389 -2.0122 0
M  V30 15 C -0.512 1.0381 -0.492 0
M  V30 16 C -0.1307 0.5755 3.777 0
M  V30 17 C -3.7772 -1.1044 -2.3516 0
M  V30 18 C 0.9833 0.6613 -0.6542 0 CFG=2
M  V30 19 C 1.748 1.9038 -1.1735 0
M  V30 20 C 1.1511 -0.5343 -1.5995 0
M  V30 21 N 3.1891 1.7018 -1.3995 0
M  V30 22 C 3.9168 1.4471 -0.1544 0
M  V30 23 C 3.764 2.8656 -2.079 0
M  V30 24 H -0.7986 -2.7409 3.9358 0
M  V30 25 H -3.4395 -3.999 -0.6281 0
M  V30 26 H -0.3984 1.8311 2.0834 0
M  V30 27 H 0.022 -0.8795 5.3588 0
M  V30 28 H -2.8442 0.7483 -1.8878 0
M  V30 29 H -4.6461 -3.0621 -2.585 0
M  V30 30 H -0.9057 1.2301 -1.4951 0
M  V30 31 H -0.6138 2.004 0.0162 0
M  V30 32 H 0.2151 1.3997 4.3966 0
M  V30 33 H -4.323 -0.677 -3.1897 0
M  V30 34 H 1.3929 0.38 0.3212 0
M  V30 35 H 1.5944 2.7409 -0.4787 0
M  V30 36 H 1.2849 2.2005 -2.1247 0
M  V30 37 H 0.7457 -0.3142 -2.5927 0
M  V30 38 H 2.2053 -0.8041 -1.717 0
M  V30 39 H 0.6392 -1.42 -1.2122 0
M  V30 40 H 3.5981 0.5081 0.3079 0
M  V30 41 H 3.7862 2.2566 0.5726 0
M  V30 42 H 4.989 1.3347 -0.3519 0
M  V30 43 H 3.6727 3.7796 -1.481 0
M  V30 44 H 3.2708 3.0323 -3.0431 0
M  V30 45 H 4.8248 2.6999 -2.2978 0
M  V30 END ATOM
M  V30 BEGIN BOND
M  V30 1 2 1 2
M  V30 2 2 1 3
M  V30 3 1 1 4
M  V30 4 1 1 5
M  V30 5 2 4 6
M  V30 6 1 4 7
M  V30 7 2 5 8
M  V30 8 1 5 9
M  V30 9 1 6 10
M  V30 10 1 6 11
M  V30 11 2 7 12
M  V30 12 1 8 13
M  V30 13 2 9 14
M  V30 14 1 10 15
M  V30 15 2 11 16
M  V30 16 2 13 17
M  V30 17 1 15 18
M  V30 18 1 18 19
M  V30 19 1 18 20
M  V30 20 1 19 21
M  V30 21 1 21 22
M  V30 22 1 21 23
M  V30 23 1 8 10
M  V30 24 1 12 16
M  V30 25 1 14 17
M  V30 26 1 7 24
M  V30 27 1 9 25
M  V30 28 1 11 26
M  V30 29 1 12 27
M  V30 30 1 13 28
M  V30 31 1 14 29
M  V30 32 1 15 30
M  V30 33 1 15 31
M  V30 34 1 16 32
M  V30 35 1 17 33
M  V30 36 1 18 34
M  V30 37 1 19 35
M  V30 38 1 19 36
M  V30 39 1 20 37
M  V30 40 1 20 38
M  V30 41 1 20 39
M  V30 42 1 22 40
M  V30 43 1 22 41
M  V30 44 1 22 42
M  V30 45 1 23 43
M  V30 46 1 23 44
M  V30 47 1 23 45
M  V30 END BOND
M  V30 BEGIN COLLECTION
M  V30 MDLV30/STERAC1 ATOMS=(1 18)
M  V30 END COLLECTION
M  V30 END CTAB
M  END
>  <NO.>
1289

>  <Name>
oxomemazine

>  <SMILES>
CC(CN(C)C)CN1c2ccccc2S(=O)(=O)c2ccccc21

>  <logBB>


>  <Class>
1

>  <MW>
330.14

>  <nHBAcc>
4

>  <nHBDon>
0

>  <SLogP>
3.17

>  <TopoPSA>
40.62

>  <MMFF94 Energy>
81.328

$$$$
CC(CN(C)C)CN1c2ccccc2Sc2ccc(C#N)cc21
Actelion Java MolfileCreator 2.0

  0  0  0  0  0  0              0 V3000
M  V30 BEGIN CTAB
M  V30 COUNTS 44 46 0 0 0
M  V30 BEGIN ATOM
M  V30 1 S -2.0156 -2.3384 -0.4834 0
M  V30 2 C -0.5492 -2.1019 -1.4661 0
M  V30 3 C -2.6945 -0.6916 -0.4408 0
M  V30 4 C -0.0013 -0.83 -1.7313 0
M  V30 5 C 0.0704 -3.2658 -1.9537 0
M  V30 6 C -1.9557 0.4499 -0.8118 0
M  V30 7 C -4.025 -0.5739 -5.0E-4 0
M  V30 8 N -0.6011 0.3536 -1.2257 0
M  V30 9 C 1.1545 -0.7802 -2.5387 0
M  V30 10 C 1.2233 -3.1886 -2.7316 0
M  V30 11 C -2.6359 1.685 -0.7966 0
M  V30 12 C -4.6552 0.666 0.0419 0
M  V30 13 C 0.307 1.4629 -0.8344 0
M  V30 14 C 1.7645 -1.9423 -3.032 0
M  V30 15 C -3.9631 1.7957 -0.3686 0
M  V30 16 C 1.2746 1.0774 0.3141 0 CFG=2
M  V30 17 C 2.9411 -1.8446 -3.8451 0
M  V30 18 C 0.4946 0.7913 1.6193 0
M  V30 19 C 2.2909 2.2114 0.5081 0
M  V30 20 N 3.8951 -1.7618 -4.5006 0
M  V30 21 N 1.3485 0.4863 2.7855 0
M  V30 22 C 2.0148 -0.8112 2.6422 0
M  V30 23 C 0.5373 0.4852 4.0073 0
M  V30 24 H -0.3506 -4.2452 -1.7322 0
M  V30 25 H -4.5835 -1.4573 0.3021 0
M  V30 26 H 1.5903 0.1762 -2.8158 0
M  V30 27 H 1.6833 -4.1021 -3.1033 0
M  V30 28 H -2.1572 2.5911 -1.1571 0
M  V30 29 H -5.6866 0.7441 0.3754 0
M  V30 30 H 0.8719 1.8 -1.7116 0
M  V30 31 H -0.2327 2.3598 -0.5133 0
M  V30 32 H -4.4542 2.7658 -0.3693 0
M  V30 33 H 1.8356 0.1826 0.0255 0
M  V30 34 H -0.2153 -0.0296 1.4649 0
M  V30 35 H -0.1035 1.6844 1.8469 0
M  V30 36 H 1.7989 3.1333 0.837 0
M  V30 37 H 3.0487 1.9459 1.2519 0
M  V30 38 H 2.8168 2.4242 -0.4289 0
M  V30 39 H 2.7147 -0.8076 1.8012 0
M  V30 40 H 1.3006 -1.6301 2.4978 0
M  V30 41 H 2.6152 -1.0339 3.532 0
M  V30 42 H -0.2546 -0.272 3.978 0
M  V30 43 H 0.073 1.4657 4.1627 0
M  V30 44 H 1.1644 0.2963 4.886 0
M  V30 END ATOM
M  V30 BEGIN BOND
M  V30 1 1 1 2
M  V30 2 1 1 3
M  V30 3 2 2 4
M  V30 4 1 2 5
M  V30 5 2 3 6
M  V30 6 1 3 7
M  V30 7 1 4 8
M  V30 8 1 4 9
M  V30 9 2 5 10
M  V30 10 1 6 11
M  V30 11 2 7 12
M  V30 12 1 8 13
M  V30 13 2 9 14
M  V30 14 2 11 15
M  V30 15 1 13 16
M  V30 16 1 14 17
M  V30 17 1 16 18
M  V30 18 1 16 19
M  V30 19 3 17 20
M  V30 20 1 18 21
M  V30 21 1 21 22
M  V30 22 1 21 23
M  V30 23 1 6 8
M  V30 24 1 10 14
M  V30 25 1 12 15
M  V30 26 1 5 24
M  V30 27 1 7 25
M  V30 28 1 9 26
M  V30 29 1 10 27
M  V30 30 1 11 28
M  V30 31 1 12 29
M  V30 32 1 13 30
M  V30 33 1 13 31
M  V30 34 1 15 32
M  V30 35 1 16 33
M  V30 36 1 18 34
M  V30 37 1 18 35
M  V30 38 1 19 36
M  V30 39 1 19 37
M  V30 40 1 19 38
M  V30 41 1 22 39
M  V30 42 1 22 40
M  V30 43 1 22 41
M  V30 44 1 23 42
M  V30 45 1 23 43
M  V30 46 1 23 44
M  V30 END BOND
M  V30 BEGIN COLLECTION
M  V30 MDLV30/STERAC1 ATOMS=(1 16)
M  V30 END COLLECTION
M  V30 END CTAB
M  END
>  <NO.>
1290

>  <Name>
cyamemazine

>  <SMILES>
CC(CN(C)C)CN1c2ccccc2Sc2ccc(C#N)cc21

>  <logBB>


>  <Class>
1

>  <MW>
323.15

>  <nHBAcc>
4

>  <nHBDon>
0

>  <SLogP>
4.36

>  <TopoPSA>
30.27

>  <MMFF94 Energy>
84.935

$$$$
CC(CN(C)C)CN1c2ccccc2Sc2ccccc21
Actelion Java MolfileCreator 2.0

  0  0  0  0  0  0              0 V3000
M  V30 BEGIN CTAB
M  V30 COUNTS 43 45 0 0 0
M  V30 BEGIN ATOM
M  V30 1 S -0.2407 1.8465 -3.2935 0
M  V30 2 C -1.5716 1.476 -2.169 0
M  V30 3 C 1.0469 2.3642 -2.1769 0
M  V30 4 C -1.3829 1.3227 -0.7809 0
M  V30 5 C -2.8454 1.3108 -2.7421 0
M  V30 6 C 0.9922 2.1407 -0.7865 0
M  V30 7 C 2.1517 3.0132 -2.7573 0
M  V30 8 N -0.0993 1.4604 -0.1866 0
M  V30 9 C -2.5288 1.048 -0.0046 0
M  V30 10 C -3.9526 1.0189 -1.9512 0
M  V30 11 C 2.0485 2.6662 -0.0139 0
M  V30 12 C 3.1981 3.4838 -1.9702 0
M  V30 13 C 0.1979 0.5885 0.9777 0
M  V30 14 C -3.795 0.8943 -0.5791 0
M  V30 15 C 3.1401 3.3207 -0.5945 0
M  V30 16 C 0.2017 -0.9208 0.6202 0 CFG=2
M  V30 17 C 0.2352 -1.7348 1.9374 0
M  V30 18 C 1.3884 -1.274 -0.284 0
M  V30 19 N 0.2549 -3.1987 1.7699 0
M  V30 20 C -0.9856 -3.7049 1.1789 0
M  V30 21 C 0.491 -3.8522 3.0599 0
M  V30 22 H -2.9804 1.4158 -3.8165 0
M  V30 23 H 2.1948 3.1645 -3.8338 0
M  V30 24 H -2.467 0.9695 1.0757 0
M  V30 25 H -4.9323 0.9 -2.4056 0
M  V30 26 H 2.0278 2.6123 1.0703 0
M  V30 27 H 4.0424 3.9902 -2.4293 0
M  V30 28 H 1.1632 0.8141 1.4418 0
M  V30 29 H -0.5231 0.7899 1.7784 0
M  V30 30 H -4.655 0.6838 0.0513 0
M  V30 31 H 3.9364 3.7099 0.0346 0
M  V30 32 H -0.7185 -1.1661 0.0804 0
M  V30 33 H -0.6186 -1.4447 2.565 0
M  V30 34 H 1.1394 -1.4355 2.4853 0
M  V30 35 H 2.3408 -1.0286 0.1977 0
M  V30 36 H 1.3989 -2.3406 -0.5291 0
M  V30 37 H 1.3377 -0.7327 -1.2331 0
M  V30 38 H -1.1199 -3.3352 0.1579 0
M  V30 39 H -1.8667 -3.429 1.7694 0
M  V30 40 H -0.9556 -4.7977 1.1 0
M  V30 41 H -0.3027 -3.6355 3.7841 0
M  V30 42 H 1.4467 -3.5289 3.4872 0
M  V30 43 H 0.5585 -4.9387 2.9355 0
M  V30 END ATOM
M  V30 BEGIN BOND
M  V30 1 1 1 2
M  V30 2 1 1 3
M  V30 3 2 2 4
M  V30 4 1 2 5
M  V30 5 2 3 6
M  V30 6 1 3 7
M  V30 7 1 4 8
M  V30 8 1 4 9
M  V30 9 2 5 10
M  V30 10 1 6 11
M  V30 11 2 7 12
M  V30 12 1 8 13
M  V30 13 2 9 14
M  V30 14 2 11 15
M  V30 15 1 13 16
M  V30 16 1 16 17
M  V30 17 1 16 18
M  V30 18 1 17 19
M  V30 19 1 19 20
M  V30 20 1 19 21
M  V30 21 1 6 8
M  V30 22 1 10 14
M  V30 23 1 12 15
M  V30 24 1 5 22
M  V30 25 1 7 23
M  V30 26 1 9 24
M  V30 27 1 10 25
M  V30 28 1 11 26
M  V30 29 1 12 27
M  V30 30 1 13 28
M  V30 31 1 13 29
M  V30 32 1 14 30
M  V30 33 1 15 31
M  V30 34 1 16 32
M  V30 35 1 17 33
M  V30 36 1 17 34
M  V30 37 1 18 35
M  V30 38 1 18 36
M  V30 39 1 18 37
M  V30 40 1 20 38
M  V30 41 1 20 39
M  V30 42 1 20 40
M  V30 43 1 21 41
M  V30 44 1 21 42
M  V30 45 1 21 43
M  V30 END BOND
M  V30 BEGIN COLLECTION
M  V30 MDLV30/STERAC1 ATOMS=(1 16)
M  V30 END COLLECTION
M  V30 END CTAB
M  END
>  <NO.>
1292

>  <Name>
alimemazine

>  <SMILES>
CC(CN(C)C)CN1c2ccccc2Sc2ccccc21

>  <logBB>


>  <Class>
1

>  <MW>
298.15

>  <nHBAcc>
3

>  <nHBDon>
0

>  <SLogP>
4.49

>  <TopoPSA>
6.48

>  <MMFF94 Energy>
78.238

$$$$
CC(CN(C)C)OC(C)(c1ccccc1)c1ccc(Cl)cc1
Actelion Java MolfileCreator 2.0

  0  0  0  0  0  0              0 V3000
M  V30 BEGIN CTAB
M  V30 COUNTS 46 47 0 0 0
M  V30 BEGIN ATOM
M  V30 1 Cl 2.1469 -3.4209 5.6533 0
M  V30 2 C 1.8136 -2.4201 4.294 0
M  V30 3 C 0.6714 -1.6255 4.2823 0
M  V30 4 C 2.6896 -2.4068 3.213 0
M  V30 5 C 0.4002 -0.8122 3.1778 0
M  V30 6 C 2.4188 -1.5931 2.109 0
M  V30 7 C 1.2632 -0.7857 2.0657 0
M  V30 8 C 0.9811 0.1291 0.8432 0
M  V30 9 O -0.3938 0.5719 0.9482 0
M  V30 10 C 1.1349 -0.6596 -0.4718 0
M  V30 11 C 1.9295 1.3391 1.006 0
M  V30 12 C -0.8623 1.5157 -0.0296 0
M  V30 13 C 2.0635 -0.3124 -1.4679 0
M  V30 14 C 0.3125 -1.7812 -0.7038 0
M  V30 15 C -2.1666 0.9498 -0.646 0
M  V30 16 C -1.1255 2.8413 0.6832 0
M  V30 17 C 2.1623 -1.0555 -2.6482 0
M  V30 18 C 0.4123 -2.5224 -1.8823 0
M  V30 19 N -2.7948 1.796 -1.6817 0
M  V30 20 C 1.3378 -2.1583 -2.8549 0
M  V30 21 C -4.1378 1.2932 -1.9852 0
M  V30 22 C -1.9926 1.8227 -2.9076 0
M  V30 23 H -0.0129 -1.6303 5.1263 0
M  V30 24 H 3.5829 -3.0251 3.2199 0
M  V30 25 H -0.4967 -0.1955 3.1944 0
M  V30 26 H 3.1185 -1.5992 1.275 0
M  V30 27 H 1.811 2.0745 0.2034 0
M  V30 28 H 1.7233 1.8715 1.943 0
M  V30 29 H 2.9844 1.0407 1.0198 0
M  V30 30 H -0.1192 1.6693 -0.8168 0
M  V30 31 H 2.727 0.5399 -1.3495 0
M  V30 32 H -0.4199 -2.0789 0.0458 0
M  V30 33 H -2.8755 0.8046 0.1818 0
M  V30 34 H -1.9806 -0.0577 -1.0387 0
M  V30 35 H -1.4785 3.6099 -0.0106 0
M  V30 36 H -1.8702 2.7163 1.4773 0
M  V30 37 H -0.2173 3.2129 1.1672 0
M  V30 38 H 2.8867 -0.772 -3.4078 0
M  V30 39 H -0.2326 -3.3833 -2.0372 0
M  V30 40 H 1.4181 -2.7347 -3.7727 0
M  V30 41 H -4.7694 1.3161 -1.0899 0
M  V30 42 H -4.1189 0.2668 -2.3694 0
M  V30 43 H -4.6294 1.9315 -2.728 0
M  V30 44 H -1.8253 0.8192 -3.3156 0
M  V30 45 H -1.0205 2.2945 -2.735 0
M  V30 46 H -2.4881 2.4265 -3.6767 0
M  V30 END ATOM
M  V30 BEGIN BOND
M  V30 1 1 1 2
M  V30 2 2 2 3
M  V30 3 1 2 4
M  V30 4 1 3 5
M  V30 5 2 4 6
M  V30 6 2 5 7
M  V30 7 1 7 8
M  V30 8 1 8 9
M  V30 9 1 8 10
M  V30 10 1 8 11
M  V30 11 1 9 12
M  V30 12 2 10 13
M  V30 13 1 10 14
M  V30 14 1 12 15
M  V30 15 1 12 16
M  V30 16 1 13 17
M  V30 17 2 14 18
M  V30 18 1 15 19
M  V30 19 2 17 20
M  V30 20 1 19 21
M  V30 21 1 19 22
M  V30 22 1 6 7
M  V30 23 1 18 20
M  V30 24 1 3 23
M  V30 25 1 4 24
M  V30 26 1 5 25
M  V30 27 1 6 26
M  V30 28 1 11 27
M  V30 29 1 11 28
M  V30 30 1 11 29
M  V30 31 1 12 30
M  V30 32 1 13 31
M  V30 33 1 14 32
M  V30 34 1 15 33
M  V30 35 1 15 34
M  V30 36 1 16 35
M  V30 37 1 16 36
M  V30 38 1 16 37
M  V30 39 1 17 38
M  V30 40 1 18 39
M  V30 41 1 20 40
M  V30 42 1 21 41
M  V30 43 1 21 42
M  V30 44 1 21 43
M  V30 45 1 22 44
M  V30 46 1 22 45
M  V30 47 1 22 46
M  V30 END BOND
M  V30 END CTAB
M  END
>  <NO.>
1293

>  <Name>
mecloxamine

>  <SMILES>
CC(CN(C)C)OC(C)(c1ccccc1)c1ccc(Cl)cc1

>  <logBB>


>  <Class>
-1

>  <MW>
317.15

>  <nHBAcc>
2

>  <nHBDon>
0

>  <SLogP>
4.57

>  <TopoPSA>
12.47

>  <MMFF94 Energy>
96.462

$$$$
CC(CN1C(=O)c2cccnc2Nc2ccccc21)N(C)C
Actelion Java MolfileCreator 2.0

  0  0  0  0  0  0              0 V3000
M  V30 BEGIN CTAB
M  V30 COUNTS 42 44 0 0 0
M  V30 BEGIN ATOM
M  V30 1 O 1.505 -0.6334 -2.2185 0
M  V30 2 C 0.7085 -0.9478 -1.3236 0
M  V30 3 N -0.4056 -0.1563 -1.0438 0
M  V30 4 C 1.0396 -2.1857 -0.5848 0
M  V30 5 C -1.5328 -0.5379 -0.2604 0
M  V30 6 C -0.3594 1.2462 -1.5127 0
M  V30 7 C 0.7161 -2.4137 0.745 0
M  V30 8 C 1.9109 -3.0957 -1.2129 0
M  V30 9 C -1.4065 -1.1428 0.9969 0
M  V30 10 C -2.8191 -0.2008 -0.7264 0
M  V30 11 C -0.1344 2.2749 -0.3597 0 CFG=1
M  V30 12 N 1.2455 -3.4533 1.4486 0
M  V30 13 N -0.2129 -1.6901 1.476 0
M  V30 14 C 2.4279 -4.1783 -0.5129 0
M  V30 15 C -2.5609 -1.3135 1.788 0
M  V30 16 C -3.9546 -0.3983 0.0598 0
M  V30 17 N 1.0753 1.9829 0.4446 0
M  V30 18 C -0.1876 3.6984 -0.9345 0
M  V30 19 C 2.0774 -4.3052 0.8131 0
M  V30 20 C -3.823 -0.9388 1.3294 0
M  V30 21 C 1.042 2.6197 1.7583 0
M  V30 22 C 2.3397 2.2582 -0.232 0
M  V30 23 H -1.2856 1.4825 -2.0473 0
M  V30 24 H 0.4303 1.3705 -2.2617 0
M  V30 25 H 2.2117 -2.9391 -2.2471 0
M  V30 26 H -2.956 0.2179 -1.7196 0
M  V30 27 H -1.0006 2.1736 0.3081 0
M  V30 28 H -0.2111 -2.008 2.4362 0
M  V30 29 H 3.1051 -4.8808 -0.9844 0
M  V30 30 H -2.4836 -1.78 2.7677 0
M  V30 31 H -4.9354 -0.1254 -0.3204 0
M  V30 32 H 0.5908 3.8649 -1.6861 0
M  V30 33 H -1.1542 3.8747 -1.4198 0
M  V30 34 H -0.0782 4.4549 -0.1515 0
M  V30 35 H 2.4632 -5.1179 1.4216 0
M  V30 36 H -4.6988 -1.0949 1.9534 0
M  V30 37 H 1.0968 3.7116 1.6979 0
M  V30 38 H 1.8799 2.2719 2.3731 0
M  V30 39 H 0.1296 2.3477 2.3005 0
M  V30 40 H 2.3983 1.7625 -1.2046 0
M  V30 41 H 3.1757 1.8676 0.3595 0
M  V30 42 H 2.509 3.3301 -0.3811 0
M  V30 END ATOM
M  V30 BEGIN BOND
M  V30 1 2 1 2
M  V30 2 1 2 3
M  V30 3 1 2 4
M  V30 4 1 3 5
M  V30 5 1 3 6
M  V30 6 2 4 7
M  V30 7 1 4 8
M  V30 8 2 5 9
M  V30 9 1 5 10
M  V30 10 1 6 11
M  V30 11 1 7 12
M  V30 12 1 7 13
M  V30 13 2 8 14
M  V30 14 1 9 15
M  V30 15 2 10 16
M  V30 16 1 11 17
M  V30 17 1 11 18
M  V30 18 2 12 19
M  V30 19 2 15 20
M  V30 20 1 17 21
M  V30 21 1 17 22
M  V30 22 1 9 13
M  V30 23 1 14 19
M  V30 24 1 16 20
M  V30 25 1 6 23
M  V30 26 1 6 24
M  V30 27 1 8 25
M  V30 28 1 10 26
M  V30 29 1 11 27
M  V30 30 1 13 28
M  V30 31 1 14 29
M  V30 32 1 15 30
M  V30 33 1 16 31
M  V30 34 1 18 32
M  V30 35 1 18 33
M  V30 36 1 18 34
M  V30 37 1 19 35
M  V30 38 1 20 36
M  V30 39 1 21 37
M  V30 40 1 21 38
M  V30 41 1 21 39
M  V30 42 1 22 40
M  V30 43 1 22 41
M  V30 44 1 22 42
M  V30 END BOND
M  V30 BEGIN COLLECTION
M  V30 MDLV30/STERAC1 ATOMS=(1 11)
M  V30 END COLLECTION
M  V30 END CTAB
M  END
>  <NO.>
1294

>  <Name>
propizepine

>  <SMILES>
CC(CN1C(=O)c2cccnc2Nc2ccccc21)N(C)C

>  <logBB>


>  <Class>
1

>  <MW>
296.16

>  <nHBAcc>
4

>  <nHBDon>
1

>  <SLogP>
2.74

>  <TopoPSA>
48.47

>  <MMFF94 Energy>
74.815

$$$$
CC(CN1CCN(CCOCCO)CC1)CN1c2ccccc2Sc2ccccc21
Actelion Java MolfileCreator 2.0

  0  0  0  0  0  0              0 V3000
M  V30 BEGIN CTAB
M  V30 COUNTS 63 66 0 0 0
M  V30 BEGIN ATOM
M  V30 1 S 5.541 0.1602 -0.7214 0
M  V30 2 C 3.9467 0.9192 -0.9594 0
M  V30 3 C 5.45 -0.3539 0.9821 0
M  V30 4 C 2.8737 0.7463 -0.0626 0
M  V30 5 C 3.791 1.6941 -2.1232 0
M  V30 6 C 4.2416 -0.3995 1.7062 0
M  V30 7 C 6.6637 -0.7315 1.585 0
M  V30 8 N 3.0042 -0.0525 1.1059 0
M  V30 9 C 1.6714 1.4206 -0.3646 0
M  V30 10 C 2.5845 2.3293 -2.4033 0
M  V30 11 C 4.3266 -0.7605 3.0667 0
M  V30 12 C 6.7069 -1.1222 2.9199 0
M  V30 13 C 1.7951 -0.8032 1.538 0
M  V30 14 C 1.5248 2.1975 -1.5185 0
M  V30 15 C 5.5375 -1.1247 3.6653 0
M  V30 16 C 1.3767 -1.8945 0.5202 0 CFG=2
M  V30 17 C 0.0045 -2.4965 0.9034 0
M  V30 18 C 2.4142 -3.0234 0.4533 0
M  V30 19 N -1.0888 -1.5108 0.9321 0
M  V30 20 C -2.2805 -2.0807 1.5965 0
M  V30 21 C -1.4789 -1.0804 -0.4288 0
M  V30 22 C -3.4656 -1.0897 1.618 0
M  V30 23 C -2.6761 -0.0987 -0.425 0
M  V30 24 N -3.8616 -0.65 0.2635 0
M  V30 25 C -4.9534 0.345 0.3588 0
M  V30 26 C -5.5421 0.7817 -0.9949 0
M  V30 27 O -4.7561 1.8335 -1.5622 0
M  V30 28 C -5.2562 2.2303 -2.8438 0
M  V30 29 C -4.4485 3.4226 -3.3507 0
M  V30 30 O -4.8548 4.6134 -2.6772 0
M  V30 31 H 4.6201 1.8113 -2.8178 0
M  V30 32 H 7.5891 -0.7107 1.0135 0
M  V30 33 H 0.8195 1.3737 0.3072 0
M  V30 34 H 2.4796 2.9309 -3.3017 0
M  V30 35 H 3.451 -0.7272 3.7084 0
M  V30 36 H 7.6515 -1.4031 3.3771 0
M  V30 37 H 1.9275 -1.2972 2.5057 0
M  V30 38 H 0.9781 -0.0991 1.7261 0
M  V30 39 H 0.582 2.7019 -1.7143 0
M  V30 40 H 5.5616 -1.3974 4.7172 0
M  V30 41 H 1.3086 -1.4699 -0.4868 0
M  V30 42 H 0.1085 -2.9419 1.9025 0
M  V30 43 H -0.2459 -3.3217 0.2233 0
M  V30 44 H 2.5852 -3.4671 1.4399 0
M  V30 45 H 2.0781 -3.8188 -0.2206 0
M  V30 46 H 3.3721 -2.6608 0.0696 0
M  V30 47 H -2.0328 -2.3328 2.6349 0
M  V30 48 H -2.5937 -3.009 1.0997 0
M  V30 49 H -0.6432 -0.5711 -0.9187 0
M  V30 50 H -1.7361 -1.9514 -1.0468 0
M  V30 51 H -4.3152 -1.5876 2.1014 0
M  V30 52 H -3.1959 -0.2255 2.2408 0
M  V30 53 H -2.9171 0.1116 -1.4724 0
M  V30 54 H -2.3616 0.8444 0.0419 0
M  V30 55 H -4.6213 1.2281 0.92 0
M  V30 56 H -5.7725 -0.1192 0.9226 0
M  V30 57 H -5.5996 -0.0676 -1.686 0
M  V30 58 H -6.5573 1.162 -0.83 0
M  V30 59 H -6.3151 2.4986 -2.7561 0
M  V30 60 H -5.1422 1.389 -3.5356 0
M  V30 61 H -3.3792 3.2734 -3.1696 0
M  V30 62 H -4.6232 3.5725 -4.4201 0
M  V30 63 H -4.1911 5.2941 -2.879 0
M  V30 END ATOM
M  V30 BEGIN BOND
M  V30 1 1 1 2
M  V30 2 1 1 3
M  V30 3 2 2 4
M  V30 4 1 2 5
M  V30 5 2 3 6
M  V30 6 1 3 7
M  V30 7 1 4 8
M  V30 8 1 4 9
M  V30 9 2 5 10
M  V30 10 1 6 11
M  V30 11 2 7 12
M  V30 12 1 8 13
M  V30 13 2 9 14
M  V30 14 2 11 15
M  V30 15 1 13 16
M  V30 16 1 16 17
M  V30 17 1 16 18
M  V30 18 1 17 19
M  V30 19 1 19 20
M  V30 20 1 19 21
M  V30 21 1 20 22
M  V30 22 1 21 23
M  V30 23 1 22 24
M  V30 24 1 24 25
M  V30 25 1 25 26
M  V30 26 1 26 27
M  V30 27 1 27 28
M  V30 28 1 28 29
M  V30 29 1 29 30
M  V30 30 1 6 8
M  V30 31 1 10 14
M  V30 32 1 12 15
M  V30 33 1 23 24
M  V30 34 1 5 31
M  V30 35 1 7 32
M  V30 36 1 9 33
M  V30 37 1 10 34
M  V30 38 1 11 35
M  V30 39 1 12 36
M  V30 40 1 13 37
M  V30 41 1 13 38
M  V30 42 1 14 39
M  V30 43 1 15 40
M  V30 44 1 16 41
M  V30 45 1 17 42
M  V30 46 1 17 43
M  V30 47 1 18 44
M  V30 48 1 18 45
M  V30 49 1 18 46
M  V30 50 1 20 47
M  V30 51 1 20 48
M  V30 52 1 21 49
M  V30 53 1 21 50
M  V30 54 1 22 51
M  V30 55 1 22 52
M  V30 56 1 23 53
M  V30 57 1 23 54
M  V30 58 1 25 55
M  V30 59 1 25 56
M  V30 60 1 26 57
M  V30 61 1 26 58
M  V30 62 1 28 59
M  V30 63 1 28 60
M  V30 64 1 29 61
M  V30 65 1 29 62
M  V30 66 1 30 63
M  V30 END BOND
M  V30 BEGIN COLLECTION
M  V30 MDLV30/STERAC1 ATOMS=(1 16)
M  V30 END COLLECTION
M  V30 END CTAB
M  END
>  <NO.>
1295

>  <Name>
dixyrazine

>  <SMILES>
CC(CN1CCN(CCOCCO)CC1)CN1c2ccccc2Sc2ccccc21

>  <logBB>


>  <Class>
1

>  <MW>
427.23

>  <nHBAcc>
6

>  <nHBDon>
1

>  <SLogP>
3.55

>  <TopoPSA>
39.18

>  <MMFF94 Energy>
181.38

$$$$
CC(CN1CCOCC1)C(C(=O)N1CCCC1)(c1ccccc1)c1ccccc1
Actelion Java MolfileCreator 2.0

  0  0  0  0  0  0              0 V3000
M  V30 BEGIN CTAB
M  V30 COUNTS 61 64 0 0 0
M  V30 BEGIN ATOM
M  V30 1 O -0.399 2.0762 0.1595 0
M  V30 2 C 0.4962 1.3805 -0.3404 0
M  V30 3 N 1.6837 1.9981 -0.697 0
M  V30 4 C 0.2823 -0.191 -0.5655 0
M  V30 5 C 1.8654 3.4217 -0.4501 0
M  V30 6 C 2.8616 1.439 -1.3455 0
M  V30 7 C 0.4055 -0.4107 -2.1144 0
M  V30 8 C 1.2453 -1.0365 0.3291 0
M  V30 9 C -1.2292 -0.5222 -0.0952 0 CFG=2
M  V30 10 C 3.1658 3.784 -1.1521 0
M  V30 11 C 3.9476 2.4793 -1.1093 0
M  V30 12 C 1.427 -1.1651 -2.7213 0
M  V30 13 C -0.515 0.2245 -2.9781 0
M  V30 14 C 1.3692 -2.4308 0.1603 0
M  V30 15 C 1.949 -0.4645 1.4095 0
M  V30 16 C -1.4297 -0.4237 1.4507 0
M  V30 17 C -1.7876 -1.8782 -0.5803 0
M  V30 18 C 1.4982 -1.3152 -4.1108 0
M  V30 19 C -0.4432 0.0759 -4.3659 0
M  V30 20 C 2.1914 -3.2018 0.9873 0
M  V30 21 C 2.7723 -1.2347 2.2374 0
M  V30 22 N -2.8488 -0.458 1.8684 0
M  V30 23 C 0.5602 -0.7002 -4.9321 0
M  V30 24 C 2.898 -2.602 2.0226 0
M  V30 25 C -2.9439 -0.7225 3.3224 0
M  V30 26 C -3.5234 0.8326 1.591 0
M  V30 27 C -4.403 -0.6958 3.8028 0
M  V30 28 C -4.9696 0.8324 2.1149 0
M  V30 29 O -5.0184 0.568 3.5235 0
M  V30 30 H 1.0126 3.9971 -0.824 0
M  V30 31 H 1.9416 3.5672 0.6334 0
M  V30 32 H 3.1356 0.4601 -0.954 0
M  V30 33 H 2.6481 1.361 -2.4161 0
M  V30 34 H -1.873 0.2343 -0.5588 0
M  V30 35 H 3.6886 4.6142 -0.6695 0
M  V30 36 H 2.9653 4.0627 -2.1937 0
M  V30 37 H 4.7452 2.4335 -1.8555 0
M  V30 38 H 4.392 2.3431 -0.116 0
M  V30 39 H 2.2117 -1.6353 -2.1354 0
M  V30 40 H -1.3057 0.8585 -2.5793 0
M  V30 41 H 0.8211 -2.9451 -0.6271 0
M  V30 42 H 1.8632 0.5946 1.6448 0
M  V30 43 H -0.942 0.4622 1.871 0
M  V30 44 H -0.9307 -1.2898 1.9042 0
M  V30 45 H -1.5935 -2.0629 -1.6393 0
M  V30 46 H -2.8766 -1.9046 -0.4565 0
M  V30 47 H -1.3849 -2.717 -0.0059 0
M  V30 48 H 2.2962 -1.9089 -4.5499 0
M  V30 49 H -1.1719 0.5725 -5.0017 0
M  V30 50 H 2.2701 -4.2738 0.8246 0
M  V30 51 H 3.306 -0.7629 3.059 0
M  V30 52 H 0.6176 -0.8166 -6.0108 0
M  V30 53 H 3.5336 -3.2007 2.6693 0
M  V30 54 H -2.5204 -1.7073 3.5506 0
M  V30 55 H -2.3713 0.0314 3.8786 0
M  V30 56 H -2.9742 1.6534 2.0706 0
M  V30 57 H -3.5561 1.0294 0.5152 0
M  V30 58 H -4.4384 -0.8473 4.8865 0
M  V30 59 H -4.9905 -1.4958 3.3362 0
M  V30 60 H -5.4227 1.8151 1.9487 0
M  V30 61 H -5.5821 0.0911 1.5873 0
M  V30 END ATOM
M  V30 BEGIN BOND
M  V30 1 2 1 2
M  V30 2 1 2 3
M  V30 3 1 2 4
M  V30 4 1 3 5
M  V30 5 1 3 6
M  V30 6 1 4 7
M  V30 7 1 4 8
M  V30 8 1 4 9
M  V30 9 1 5 10
M  V30 10 1 6 11
M  V30 11 2 7 12
M  V30 12 1 7 13
M  V30 13 2 8 14
M  V30 14 1 8 15
M  V30 15 1 9 16
M  V30 16 1 9 17
M  V30 17 1 12 18
M  V30 18 2 13 19
M  V30 19 1 14 20
M  V30 20 2 15 21
M  V30 21 1 16 22
M  V30 22 2 18 23
M  V30 23 2 20 24
M  V30 24 1 22 25
M  V30 25 1 22 26
M  V30 26 1 25 27
M  V30 27 1 26 28
M  V30 28 1 27 29
M  V30 29 1 10 11
M  V30 30 1 19 23
M  V30 31 1 21 24
M  V30 32 1 28 29
M  V30 33 1 5 30
M  V30 34 1 5 31
M  V30 35 1 6 32
M  V30 36 1 6 33
M  V30 37 1 9 34
M  V30 38 1 10 35
M  V30 39 1 10 36
M  V30 40 1 11 37
M  V30 41 1 11 38
M  V30 42 1 12 39
M  V30 43 1 13 40
M  V30 44 1 14 41
M  V30 45 1 15 42
M  V30 46 1 16 43
M  V30 47 1 16 44
M  V30 48 1 17 45
M  V30 49 1 17 46
M  V30 50 1 17 47
M  V30 51 1 18 48
M  V30 52 1 19 49
M  V30 53 1 20 50
M  V30 54 1 21 51
M  V30 55 1 23 52
M  V30 56 1 24 53
M  V30 57 1 25 54
M  V30 58 1 25 55
M  V30 59 1 26 56
M  V30 60 1 26 57
M  V30 61 1 27 58
M  V30 62 1 27 59
M  V30 63 1 28 60
M  V30 64 1 28 61
M  V30 END BOND
M  V30 BEGIN COLLECTION
M  V30 MDLV30/STERAC1 ATOMS=(1 9)
M  V30 END COLLECTION
M  V30 END CTAB
M  END
>  <NO.>
1296

>  <Name>
dextromoramide (levomoramide and racemoramide)

>  <SMILES>
CC(CN1CCOCC1)C(C(=O)N1CCCC1)(c1ccccc1)c1ccccc1

>  <logBB>


>  <Class>
1

>  <MW>
392.25

>  <nHBAcc>
3

>  <nHBDon>
0

>  <SLogP>
3.56

>  <TopoPSA>
32.78

>  <MMFF94 Energy>
158.78

$$$$
CC(CNC(=O)c1ccccc1)C(=O)OCC(=O)[C@@]12OC(C)(C)O[C@@H]1C[C@H]1[C@@H]3CCC4=CC(=O)C=C[C@]4(C)[C@@]3(F)[C@@H](O)C[C@@]12C
Actelion Java MolfileCreator 2.0

  0  0  0  0  0  0              0 V3000
M  V30 BEGIN CTAB
M  V30 COUNTS 87 92 0 0 0
M  V30 BEGIN ATOM
M  V30 1 F 3.7981 2.3422 2.3422 0
M  V30 2 C 4.013 0.9758 2.2267 0 CFG=2
M  V30 3 C 5.5624 0.7513 2.4669 0 CFG=2
M  V30 4 C 3.4906 0.618 0.7995 0 CFG=1
M  V30 5 C 3.1457 0.3176 3.3519 0 CFG=2
M  V30 6 C 5.8872 1.222 3.8973 0
M  V30 7 C 6.3902 1.5249 1.4405 0
M  V30 8 C 6.0081 -0.7242 2.3453 0
M  V30 9 O 3.8355 -0.7063 0.4071 0
M  V30 10 C 1.9636 0.8115 0.638 0
M  V30 11 C 1.6685 0.6528 3.0968 0 CFG=1
M  V30 12 C 3.5792 0.8119 4.7446 0
M  V30 13 C 6.8014 2.1662 4.1835 0
M  V30 14 C 5.0676 0.5979 4.9975 0
M  V30 15 C 7.2988 2.4653 1.7312 0
M  V30 16 C 1.136 0.121 1.7438 0 CFG=1
M  V30 17 C 0.6199 0.1834 4.1021 0
M  V30 18 C 7.5804 2.8445 3.1282 0
M  V30 19 C -0.3628 0.551 1.8537 0 CFG=1
M  V30 20 C 1.23 -1.4228 1.6167 0
M  V30 21 C -0.7114 0.3244 3.3365 0 CFG=2
M  V30 22 O 8.4265 3.6864 3.4013 0
M  V30 23 O -0.5076 1.9611 1.6647 0
M  V30 24 C -1.3115 -0.207 0.9057 0
M  V30 25 O -1.4015 1.4927 3.7781 0
M  V30 26 C -1.3424 2.445 2.7214 0
M  V30 27 O -1.9088 -1.2256 1.2642 0
M  V30 28 C -1.4232 0.3277 -0.5182 0
M  V30 29 C -0.757 3.7467 3.2531 0
M  V30 30 C -2.7546 2.6725 2.1886 0
M  V30 31 O -2.4376 -0.3807 -1.2341 0
M  V30 32 C -2.4279 -0.1697 -2.5784 0
M  V30 33 O -1.6142 0.5333 -3.1611 0
M  V30 34 C -3.5587 -0.9347 -3.2346 0
M  V30 35 C -3.2633 -1.0827 -4.7304 0
M  V30 36 C -4.8773 -0.2168 -2.9605 0
M  V30 37 N -4.1492 -2.0331 -5.3837 0
M  V30 38 C -5.2723 -1.6293 -6.0764 0
M  V30 39 O -5.5999 -0.4556 -6.2071 0
M  V30 40 C -6.0861 -2.7065 -6.7036 0
M  V30 41 C -6.1739 -3.9907 -6.1504 0
M  V30 42 C -6.8042 -2.4032 -7.8671 0
M  V30 43 C -6.9541 -4.9673 -6.7746 0
M  V30 44 C -7.5814 -3.3822 -8.488 0
M  V30 45 C -7.6524 -4.6639 -7.9435 0
M  V30 46 H 3.9654 1.2935 0.0784 0
M  V30 47 H 3.2813 -0.768 3.336 0
M  V30 48 H 6.247 1.2708 0.3927 0
M  V30 49 H 7.0197 -0.8654 2.7488 0
M  V30 50 H 5.3506 -1.41 2.8876 0
M  V30 51 H 6.0483 -1.0635 1.3048 0
M  V30 52 H 3.6085 -0.8058 -0.535 0
M  V30 53 H 1.7627 1.8899 0.6403 0
M  V30 54 H 1.6556 0.4346 -0.3431 0
M  V30 55 H 1.6065 1.7515 3.088 0
M  V30 56 H 3.3416 1.8785 4.8532 0
M  V30 57 H 3.0146 0.2837 5.5221 0
M  V30 58 H 7.0087 2.4975 5.1947 0
M  V30 59 H 5.2881 -0.4737 5.0616 0
M  V30 60 H 5.3248 1.0217 5.976 0
M  V30 61 H 7.8716 2.9791 0.969 0
M  V30 62 H 0.6361 0.7823 5.0184 0
M  V30 63 H 0.7943 -0.8636 4.3732 0
M  V30 64 H 0.5606 -1.9397 2.3123 0
M  V30 65 H 0.9548 -1.7434 0.6054 0
M  V30 66 H 2.2298 -1.8136 1.813 0
M  V30 67 H -1.3436 -0.5443 3.5419 0
M  V30 68 H -1.6992 1.3854 -0.4873 0
M  V30 69 H -0.4541 0.1903 -1.0043 0
M  V30 70 H 0.2484 3.5835 3.6554 0
M  V30 71 H -0.6698 4.4971 2.4604 0
M  V30 72 H -1.3647 4.1528 4.0687 0
M  V30 73 H -3.4131 3.0695 2.9685 0
M  V30 74 H -2.7514 3.3595 1.336 0
M  V30 75 H -3.201 1.7325 1.8466 0
M  V30 76 H -3.587 -1.9363 -2.7861 0
M  V30 77 H -3.3209 -0.114 -5.2409 0
M  V30 78 H -2.2472 -1.4664 -4.88 0
M  V30 79 H -5.7287 -0.7932 -3.3346 0
M  V30 80 H -5.0298 -0.0678 -1.8859 0
M  V30 81 H -4.8957 0.7718 -3.4321 0
M  V30 82 H -3.875 -3.0056 -5.4006 0
M  V30 83 H -5.6695 -4.2396 -5.2219 0
M  V30 84 H -6.757 -1.4023 -8.2921 0
M  V30 85 H -7.0274 -5.963 -6.3439 0
M  V30 86 H -8.1342 -3.1423 -9.3929 0
M  V30 87 H -8.262 -5.4245 -8.4257 0
M  V30 END ATOM
M  V30 BEGIN BOND
M  V30 1 1 1 2
M  V30 2 1 2 3
M  V30 3 1 2 4
M  V30 4 1 2 5
M  V30 5 1 3 6
M  V30 6 1 3 7
M  V30 7 1 3 8
M  V30 8 1 4 9
M  V30 9 1 4 10
M  V30 10 1 5 11
M  V30 11 1 5 12
M  V30 12 2 6 13
M  V30 13 1 6 14
M  V30 14 2 7 15
M  V30 15 1 10 16
M  V30 16 1 11 17
M  V30 17 1 13 18
M  V30 18 1 16 19
M  V30 19 1 16 20
M  V30 20 1 17 21
M  V30 21 2 18 22
M  V30 22 1 19 23
M  V30 23 1 19 24
M  V30 24 1 21 25
M  V30 25 1 23 26
M  V30 26 2 24 27
M  V30 27 1 24 28
M  V30 28 1 26 29
M  V30 29 1 26 30
M  V30 30 1 28 31
M  V30 31 1 31 32
M  V30 32 2 32 33
M  V30 33 1 32 34
M  V30 34 1 34 35
M  V30 35 1 34 36
M  V30 36 1 35 37
M  V30 37 1 37 38
M  V30 38 2 38 39
M  V30 39 1 38 40
M  V30 40 2 40 41
M  V30 41 1 40 42
M  V30 42 1 41 43
M  V30 43 2 42 44
M  V30 44 2 43 45
M  V30 45 1 11 16
M  V30 46 1 12 14
M  V30 47 1 15 18
M  V30 48 1 19 21
M  V30 49 1 25 26
M  V30 50 1 44 45
M  V30 51 1 4 46
M  V30 52 1 5 47
M  V30 53 1 7 48
M  V30 54 1 8 49
M  V30 55 1 8 50
M  V30 56 1 8 51
M  V30 57 1 9 52
M  V30 58 1 10 53
M  V30 59 1 10 54
M  V30 60 1 11 55
M  V30 61 1 12 56
M  V30 62 1 12 57
M  V30 63 1 13 58
M  V30 64 1 14 59
M  V30 65 1 14 60
M  V30 66 1 15 61
M  V30 67 1 17 62
M  V30 68 1 17 63
M  V30 69 1 20 64
M  V30 70 1 20 65
M  V30 71 1 20 66
M  V30 72 1 21 67
M  V30 73 1 28 68
M  V30 74 1 28 69
M  V30 75 1 29 70
M  V30 76 1 29 71
M  V30 77 1 29 72
M  V30 78 1 30 73
M  V30 79 1 30 74
M  V30 80 1 30 75
M  V30 81 1 34 76
M  V30 82 1 35 77
M  V30 83 1 35 78
M  V30 84 1 36 79
M  V30 85 1 36 80
M  V30 86 1 36 81
M  V30 87 1 37 82
M  V30 88 1 41 83
M  V30 89 1 42 84
M  V30 90 1 43 85
M  V30 91 1 44 86
M  V30 92 1 45 87
M  V30 END BOND
M  V30 BEGIN COLLECTION
M  V30 MDLV30/STEABS ATOMS=(8 2 3 4 5 11 16 19 21)
M  V30 END COLLECTION
M  V30 END CTAB
M  END
>  <NO.>
1297

>  <Name>
triamcinolone benetonide

>  <SMILES>
CC(CNC(=O)c1ccccc1)C(=O)OCC(=O)[C@@]12OC(C)(C)O[C@@H]1C[C@H]1[C@@H]3CCC4=CC(=O)C=C[C@]4(C)[C@@]3(F)[C@@H](O)C[C@@]12C

>  <logBB>


>  <Class>
1

>  <MW>
623.29

>  <nHBAcc>
8

>  <nHBDon>
2

>  <SLogP>
4.04

>  <TopoPSA>
128.23

>  <MMFF94 Energy>
159.75

$$$$
CC(COc1ccccc1)N(CCCl)Cc1ccccc1
Actelion Java MolfileCreator 2.0

  0  0  0  0  0  0              0 V3000
M  V30 BEGIN CTAB
M  V30 COUNTS 43 44 0 0 0
M  V30 BEGIN ATOM
M  V30 1 Cl 3.0223 0.7151 -1.4307 0
M  V30 2 C 1.9402 0.5564 -2.8378 0
M  V30 3 C 0.535 1.12 -2.5668 0
M  V30 4 N -0.2123 0.4455 -1.4879 0
M  V30 5 C -0.6758 -0.9186 -1.841 0 CFG=2
M  V30 6 C -1.2568 1.3112 -0.9174 0
M  V30 7 C -0.8205 -1.815 -0.5811 0
M  V30 8 C -1.9722 -0.9504 -2.6614 0
M  V30 9 C -0.7038 2.4248 -0.0504 0
M  V30 10 O 0.4662 -1.9703 0.0237 0
M  V30 11 C 0.2398 2.1492 0.9511 0
M  V30 12 C -1.1617 3.7416 -0.2034 0
M  V30 13 C 0.5142 -2.5794 1.2451 0
M  V30 14 C 0.7301 3.1701 1.766 0
M  V30 15 C -0.6714 4.7617 0.6146 0
M  V30 16 C -0.528 -3.2785 1.8543 0
M  V30 17 C 1.7459 -2.4804 1.897 0
M  V30 18 C 0.2747 4.4761 1.5973 0
M  V30 19 C -0.3392 -3.8631 3.1107 0
M  V30 20 C 1.9353 -3.0628 3.151 0
M  V30 21 C 0.8902 -3.7543 3.7589 0
M  V30 22 H 1.9198 -0.4968 -3.1277 0
M  V30 23 H 2.4035 1.1137 -3.6582 0
M  V30 24 H 0.6688 2.1833 -2.3301 0
M  V30 25 H -0.044 1.0963 -3.4979 0
M  V30 26 H 0.1008 -1.3998 -2.4461 0
M  V30 27 H -1.8814 1.727 -1.7189 0
M  V30 28 H -1.9304 0.7432 -0.2649 0
M  V30 29 H -1.1861 -2.8031 -0.8874 0
M  V30 30 H -1.5325 -1.3756 0.1271 0
M  V30 31 H -2.1878 -1.9738 -2.9885 0
M  V30 32 H -2.8348 -0.605 -2.0823 0
M  V30 33 H -1.8925 -0.3329 -3.5615 0
M  V30 34 H 0.6065 1.1325 1.0874 0
M  V30 35 H -1.9019 3.9826 -0.9622 0
M  V30 36 H 1.4699 2.9427 2.5288 0
M  V30 37 H -1.0278 5.7802 0.4856 0
M  V30 38 H -1.4947 -3.3927 1.3768 0
M  V30 39 H 2.5609 -1.9377 1.4232 0
M  V30 40 H 0.6584 5.2704 2.2318 0
M  V30 41 H -1.1537 -4.4061 3.5833 0
M  V30 42 H 2.8966 -2.9744 3.6494 0
M  V30 43 H 1.0341 -4.209 4.7354 0
M  V30 END ATOM
M  V30 BEGIN BOND
M  V30 1 1 1 2
M  V30 2 1 2 3
M  V30 3 1 3 4
M  V30 4 1 4 5
M  V30 5 1 4 6
M  V30 6 1 5 7
M  V30 7 1 5 8
M  V30 8 1 6 9
M  V30 9 1 7 10
M  V30 10 2 9 11
M  V30 11 1 9 12
M  V30 12 1 10 13
M  V30 13 1 11 14
M  V30 14 2 12 15
M  V30 15 2 13 16
M  V30 16 1 13 17
M  V30 17 2 14 18
M  V30 18 1 16 19
M  V30 19 2 17 20
M  V30 20 2 19 21
M  V30 21 1 15 18
M  V30 22 1 20 21
M  V30 23 1 2 22
M  V30 24 1 2 23
M  V30 25 1 3 24
M  V30 26 1 3 25
M  V30 27 1 5 26
M  V30 28 1 6 27
M  V30 29 1 6 28
M  V30 30 1 7 29
M  V30 31 1 7 30
M  V30 32 1 8 31
M  V30 33 1 8 32
M  V30 34 1 8 33
M  V30 35 1 11 34
M  V30 36 1 12 35
M  V30 37 1 14 36
M  V30 38 1 15 37
M  V30 39 1 16 38
M  V30 40 1 17 39
M  V30 41 1 18 40
M  V30 42 1 19 41
M  V30 43 1 20 42
M  V30 44 1 21 43
M  V30 END BOND
M  V30 BEGIN COLLECTION
M  V30 MDLV30/STERAC1 ATOMS=(1 5)
M  V30 END COLLECTION
M  V30 END CTAB
M  END
>  <NO.>
1298

>  <Name>
phenoxybenzamine

>  <SMILES>
CC(COc1ccccc1)N(CCCl)Cc1ccccc1

>  <logBB>


>  <Class>
-1

>  <MW>
303.14

>  <nHBAcc>
2

>  <nHBDon>
0

>  <SLogP>
4.19

>  <TopoPSA>
12.47

>  <MMFF94 Energy>
84.952

$$$$
CC(COc1ccccc1)NN
Actelion Java MolfileCreator 2.0

  0  0  0  0  0  0              0 V3000
M  V30 BEGIN CTAB
M  V30 COUNTS 26 26 0 0 0
M  V30 BEGIN ATOM
M  V30 1 O 0.5428 -0.3101 -0.155 0
M  V30 2 C 1.2941 0.7628 -0.5468 0
M  V30 3 C -0.8669 -0.1084 -0.0232 0
M  V30 4 C 0.8109 2.0292 -0.8796 0
M  V30 5 C 2.6687 0.5189 -0.6096 0
M  V30 6 C -1.5332 -1.4238 0.4481 0 CFG=1
M  V30 7 C 1.6971 3.0388 -1.2697 0
M  V30 8 C 3.554 1.5255 -0.9985 0
M  V30 9 N -1.1686 -1.6967 1.8554 0
M  V30 10 C -3.0533 -1.3064 0.2966 0
M  V30 11 C 3.0669 2.7875 -1.3291 0
M  V30 12 N -1.3668 -3.078 2.2098 0
M  V30 13 H -1.0734 0.6944 0.6966 0
M  V30 14 H -1.2789 0.1668 -1.0023 0
M  V30 15 H -0.2467 2.2657 -0.8469 0
M  V30 16 H 3.0513 -0.4649 -0.3492 0
M  V30 17 H -1.1595 -2.2364 -0.1888 0
M  V30 18 H 1.3161 4.0239 -1.527 0
M  V30 19 H 4.6206 1.3226 -1.0409 0
M  V30 20 H -1.6594 -1.058 2.4884 0
M  V30 21 H -3.5612 -2.2348 0.5769 0
M  V30 22 H -3.4564 -0.4985 0.9178 0
M  V30 23 H -3.3207 -1.0925 -0.744 0
M  V30 24 H 3.7531 3.574 -1.6315 0
M  V30 25 H -2.2778 -3.4476 1.9317 0
M  V30 26 H -0.6604 -3.6742 1.769 0
M  V30 END ATOM
M  V30 BEGIN BOND
M  V30 1 1 1 2
M  V30 2 1 1 3
M  V30 3 2 2 4
M  V30 4 1 2 5
M  V30 5 1 3 6
M  V30 6 1 4 7
M  V30 7 2 5 8
M  V30 8 1 6 9
M  V30 9 1 6 10
M  V30 10 2 7 11
M  V30 11 1 9 12
M  V30 12 1 8 11
M  V30 13 1 3 13
M  V30 14 1 3 14
M  V30 15 1 4 15
M  V30 16 1 5 16
M  V30 17 1 6 17
M  V30 18 1 7 18
M  V30 19 1 8 19
M  V30 20 1 9 20
M  V30 21 1 10 21
M  V30 22 1 10 22
M  V30 23 1 10 23
M  V30 24 1 11 24
M  V30 25 1 12 25
M  V30 26 1 12 26
M  V30 END BOND
M  V30 BEGIN COLLECTION
M  V30 MDLV30/STERAC1 ATOMS=(1 6)
M  V30 END COLLECTION
M  V30 END CTAB
M  END
>  <NO.>
1299

>  <Name>
phenoxypropazine

>  <SMILES>
CC(COc1ccccc1)NN

>  <logBB>


>  <Class>
1

>  <MW>
166.11

>  <nHBAcc>
3

>  <nHBDon>
2

>  <SLogP>
0.92

>  <TopoPSA>
47.28

>  <MMFF94 Energy>
83.753

$$$$
CC(C[N+](C)(C)C)OC(N)=O
Actelion Java MolfileCreator 2.0

  0  0  0  0  0  0              0 V3000
M  V30 BEGIN CTAB
M  V30 COUNTS 28 27 0 0 0
M  V30 BEGIN ATOM
M  V30 1 O -2.5233 0.8405 0.8405 0
M  V30 2 C -2.4628 -0.2944 0.4009 0
M  V30 3 O -1.3567 -1.0738 0.3847 0
M  V30 4 N -3.4941 -0.9357 -0.1838 0
M  V30 5 C -0.2381 -0.5974 1.158 0 CFG=2
M  V30 6 C 1.031 -0.5075 0.2852 0
M  V30 7 C -0.0238 -1.6261 2.2689 0
M  V30 8 N 1.0672 0.6437 -0.7559 0 CHG=1
M  V30 9 C 0.0674 0.4219 -1.8835 0
M  V30 10 C 2.471 0.663 -1.3706 0
M  V30 11 C 0.8096 2.0016 -0.1102 0
M  V30 12 H -4.3969 -0.4815 -0.2243 0
M  V30 13 H -3.4074 -1.8911 -0.4967 0
M  V30 14 H -0.4348 0.3641 1.642 0
M  V30 15 H 1.9056 -0.3527 0.9288 0
M  V30 16 H 1.1735 -1.4341 -0.284 0
M  V30 17 H 0.1707 -2.6204 1.8518 0
M  V30 18 H -0.9246 -1.7137 2.8862 0
M  V30 19 H 0.8135 -1.3461 2.9154 0
M  V30 20 H 0.2845 1.1376 -2.6829 0
M  V30 21 H 0.1768 -0.6017 -2.2515 0
M  V30 22 H -0.9404 0.6026 -1.5128 0
M  V30 23 H 2.6538 -0.3075 -1.841 0
M  V30 24 H 2.5164 1.4636 -2.1152 0
M  V30 25 H 3.196 0.8477 -0.5722 0
M  V30 26 H 0.9958 2.7792 -0.8574 0
M  V30 27 H -0.2301 2.0518 0.2171 0
M  V30 28 H 1.4917 2.1143 0.7371 0
M  V30 END ATOM
M  V30 BEGIN BOND
M  V30 1 2 1 2
M  V30 2 1 2 3
M  V30 3 1 2 4
M  V30 4 1 3 5
M  V30 5 1 5 6
M  V30 6 1 5 7
M  V30 7 1 6 8
M  V30 8 1 8 9
M  V30 9 1 8 10
M  V30 10 1 8 11
M  V30 11 1 4 12
M  V30 12 1 4 13
M  V30 13 1 5 14
M  V30 14 1 6 15
M  V30 15 1 6 16
M  V30 16 1 7 17
M  V30 17 1 7 18
M  V30 18 1 7 19
M  V30 19 1 9 20
M  V30 20 1 9 21
M  V30 21 1 9 22
M  V30 22 1 10 23
M  V30 23 1 10 24
M  V30 24 1 10 25
M  V30 25 1 11 26
M  V30 26 1 11 27
M  V30 27 1 11 28
M  V30 END BOND
M  V30 BEGIN COLLECTION
M  V30 MDLV30/STERAC1 ATOMS=(1 5)
M  V30 END COLLECTION
M  V30 END CTAB
M  END
>  <NO.>
1300

>  <Name>
gr94839_f

>  <SMILES>
CC(C[N+](C)(C)C)OC(N)=O

>  <logBB>


>  <Class>
-1

>  <MW>
161.13

>  <nHBAcc>
2

>  <nHBDon>
1

>  <SLogP>
0.18

>  <TopoPSA>
52.32

>  <MMFF94 Energy>
-39.728

$$$$
CC(Cc1ccc(O)cc1)NCC(O)c1cc(O)cc(O)c1
Actelion Java MolfileCreator 2.0

  0  0  0  0  0  0              0 V3000
M  V30 BEGIN CTAB
M  V30 COUNTS 43 44 0 0 0
M  V30 BEGIN ATOM
M  V30 1 O -0.7855 0.9427 4.7995 0
M  V30 2 C -0.3651 1.8514 3.8723 0
M  V30 3 C 0.1668 3.0487 4.3299 0
M  V30 4 C -0.4636 1.5865 2.5069 0
M  V30 5 C 0.6099 3.9857 3.4068 0
M  V30 6 C -0.0157 2.5305 1.5655 0
M  V30 7 O 1.13 5.1547 3.8819 0
M  V30 8 C 0.527 3.7382 2.0368 0
M  V30 9 C -0.1192 2.2229 0.0818 0
M  V30 10 O 0.0961 3.412 -0.6893 0
M  V30 11 C 0.8876 1.133 -0.3786 0
M  V30 12 N 0.3934 -0.2381 -0.1474 0
M  V30 13 C 1.3847 -1.2642 -0.5299 0
M  V30 14 C 0.6973 -2.6403 -0.7295 0
M  V30 15 C 2.4572 -1.3995 0.5562 0
M  V30 16 C -0.2953 -2.6701 -1.872 0
M  V30 17 C -1.6705 -2.7785 -1.6153 0
M  V30 18 C 0.1437 -2.5817 -3.2006 0
M  V30 19 C -2.5907 -2.7916 -2.6661 0
M  V30 20 C -0.7758 -2.5929 -4.2502 0
M  V30 21 C -2.1337 -2.6972 -3.976 0
M  V30 22 O -2.9959 -2.7045 -5.032 0
M  V30 23 H -1.0733 0.1409 4.334 0
M  V30 24 H 0.238 3.2488 5.394 0
M  V30 25 H -0.8807 0.6441 2.1623 0
M  V30 26 H 1.3729 5.7104 3.1232 0
M  V30 27 H 0.8814 4.4802 1.3264 0
M  V30 28 H -1.1492 1.9105 -0.1336 0
M  V30 29 H -0.1801 3.2095 -1.5991 0
M  V30 30 H 1.0741 1.257 -1.4532 0
M  V30 31 H 1.8463 1.3005 0.1254 0
M  V30 32 H -0.4431 -0.3689 -0.7204 0
M  V30 33 H 1.8684 -0.98 -1.4733 0
M  V30 34 H 1.4569 -3.4084 -0.9278 0
M  V30 35 H 0.2016 -2.9474 0.2015 0
M  V30 36 H 2.0127 -1.6458 1.5273 0
M  V30 37 H 3.0378 -0.4796 0.674 0
M  V30 38 H 3.1653 -2.1957 0.3012 0
M  V30 39 H -2.0333 -2.853 -0.592 0
M  V30 40 H 1.2045 -2.5063 -3.4284 0
M  V30 41 H -3.6497 -2.8764 -2.4437 0
M  V30 42 H -0.4334 -2.5249 -5.279 0
M  V30 43 H -3.8989 -2.8235 -4.6946 0
M  V30 END ATOM
M  V30 BEGIN BOND
M  V30 1 1 1 2
M  V30 2 2 2 3
M  V30 3 1 2 4
M  V30 4 1 3 5
M  V30 5 2 4 6
M  V30 6 1 5 7
M  V30 7 2 5 8
M  V30 8 1 6 9
M  V30 9 1 9 10
M  V30 10 1 9 11
M  V30 11 1 11 12
M  V30 12 1 12 13
M  V30 13 1 13 14
M  V30 14 1 13 15
M  V30 15 1 14 16
M  V30 16 2 16 17
M  V30 17 1 16 18
M  V30 18 1 17 19
M  V30 19 2 18 20
M  V30 20 2 19 21
M  V30 21 1 21 22
M  V30 22 1 6 8
M  V30 23 1 20 21
M  V30 24 1 1 23
M  V30 25 1 3 24
M  V30 26 1 4 25
M  V30 27 1 7 26
M  V30 28 1 8 27
M  V30 29 1 9 28
M  V30 30 1 10 29
M  V30 31 1 11 30
M  V30 32 1 11 31
M  V30 33 1 12 32
M  V30 34 1 13 33
M  V30 35 1 14 34
M  V30 36 1 14 35
M  V30 37 1 15 36
M  V30 38 1 15 37
M  V30 39 1 15 38
M  V30 40 1 17 39
M  V30 41 1 18 40
M  V30 42 1 19 41
M  V30 43 1 20 42
M  V30 44 1 22 43
M  V30 END BOND
M  V30 END CTAB
M  END
>  <NO.>
1301

>  <Name>
fenoterol

>  <SMILES>
CC(Cc1ccc(O)cc1)NCC(O)c1cc(O)cc(O)c1

>  <logBB>


>  <Class>
-1

>  <MW>
303.15

>  <nHBAcc>
5

>  <nHBDon>
5

>  <SLogP>
2.06

>  <TopoPSA>
92.95

>  <MMFF94 Energy>
53.172

$$$$
CC(Cc1ccccc1)(NC(=O)CN)c1ccccc1
Actelion Java MolfileCreator 2.0

  0  0  0  0  0  0              0 V3000
M  V30 BEGIN CTAB
M  V30 COUNTS 40 41 0 0 0
M  V30 BEGIN ATOM
M  V30 1 O -1.1029 -0.2362 -2.4434 0
M  V30 2 C -0.7264 0.7386 -1.8038 0
M  V30 3 N -0.4979 0.7669 -0.4481 0
M  V30 4 C -0.4397 2.0838 -2.4852 0
M  V30 5 C -0.4879 -0.3619 0.4977 0 CFG=2
M  V30 6 N -0.4244 3.1943 -1.5056 0
M  V30 7 C -1.0294 0.1945 1.8465 0
M  V30 8 C 0.9777 -0.9043 0.6346 0
M  V30 9 C -1.4386 -1.514 0.1015 0
M  V30 10 C -2.2322 0.9351 1.8525 0
M  V30 11 C -0.3979 -0.0184 3.0839 0
M  V30 12 C 1.7111 -1.2988 -0.6312 0
M  V30 13 C -2.7673 1.4507 3.0349 0
M  V30 14 C -0.9345 0.4991 4.2682 0
M  V30 15 C 1.6338 -2.606 -1.1288 0
M  V30 16 C 2.5 -0.361 -1.3147 0
M  V30 17 C -2.1159 1.2341 4.2436 0
M  V30 18 C 2.3188 -2.9638 -2.2913 0
M  V30 19 C 3.1851 -0.7205 -2.4761 0
M  V30 20 C 3.0933 -2.0215 -2.9648 0
M  V30 21 H -0.1773 1.6706 -0.1065 0
M  V30 22 H 0.537 2.0152 -2.9731 0
M  V30 23 H -1.2105 2.2701 -3.2391 0
M  V30 24 H -1.3785 3.3189 -1.1606 0
M  V30 25 H -0.2062 4.0545 -2.0097 0
M  V30 26 H 0.9925 -1.7713 1.3098 0
M  V30 27 H 1.5979 -0.1425 1.1297 0
M  V30 28 H -1.118 -2.0295 -0.8072 0
M  V30 29 H -1.4921 -2.27 0.8945 0
M  V30 30 H -2.4593 -1.157 -0.08 0
M  V30 31 H -2.7677 1.1108 0.9207 0
M  V30 32 H 0.52 -0.5931 3.166 0
M  V30 33 H -3.6948 2.0167 3.0096 0
M  V30 34 H -0.4273 0.3227 5.2137 0
M  V30 35 H 1.0335 -3.3557 -0.6189 0
M  V30 36 H 2.5812 0.6593 -0.9471 0
M  V30 37 H -2.5302 1.6321 5.166 0
M  V30 38 H 2.2431 -3.978 -2.6738 0
M  V30 39 H 3.7885 0.0152 -3.0003 0
M  V30 40 H 3.6221 -2.3012 -3.8715 0
M  V30 END ATOM
M  V30 BEGIN BOND
M  V30 1 2 1 2
M  V30 2 1 2 3
M  V30 3 1 2 4
M  V30 4 1 3 5
M  V30 5 1 4 6
M  V30 6 1 5 7
M  V30 7 1 5 8
M  V30 8 1 5 9
M  V30 9 2 7 10
M  V30 10 1 7 11
M  V30 11 1 8 12
M  V30 12 1 10 13
M  V30 13 2 11 14
M  V30 14 2 12 15
M  V30 15 1 12 16
M  V30 16 2 13 17
M  V30 17 1 15 18
M  V30 18 2 16 19
M  V30 19 2 18 20
M  V30 20 1 14 17
M  V30 21 1 19 20
M  V30 22 1 3 21
M  V30 23 1 4 22
M  V30 24 1 4 23
M  V30 25 1 6 24
M  V30 26 1 6 25
M  V30 27 1 8 26
M  V30 28 1 8 27
M  V30 29 1 9 28
M  V30 30 1 9 29
M  V30 31 1 9 30
M  V30 32 1 10 31
M  V30 33 1 11 32
M  V30 34 1 13 33
M  V30 35 1 14 34
M  V30 36 1 15 35
M  V30 37 1 16 36
M  V30 38 1 17 37
M  V30 39 1 18 38
M  V30 40 1 19 39
M  V30 41 1 20 40
M  V30 END BOND
M  V30 BEGIN COLLECTION
M  V30 MDLV30/STERAC1 ATOMS=(1 5)
M  V30 END COLLECTION
M  V30 END CTAB
M  END
>  <NO.>
1302

>  <Name>
remacemide

>  <SMILES>
CC(Cc1ccccc1)(NC(=O)CN)c1ccccc1

>  <logBB>


>  <Class>
1

>  <MW>
268.16

>  <nHBAcc>
2

>  <nHBDon>
2

>  <SLogP>
2.22

>  <TopoPSA>
55.12

>  <MMFF94 Energy>
79.959

$$$$
CC(Cc1ccccc1)N(C)C
Actelion Java MolfileCreator 2.0

  0  0  0  0  0  0              0 V3000
M  V30 BEGIN CTAB
M  V30 COUNTS 29 29 0 0 0
M  V30 BEGIN ATOM
M  V30 1 N -1.1637 -2.2509 -0.2326 0
M  V30 2 C -0.6751 -0.9544 0.3 0 CFG=2
M  V30 3 C -0.108 -3.1817 -0.6276 0
M  V30 4 C -2.1168 -2.0691 -1.328 0
M  V30 5 C 0.3528 -0.2173 -0.5983 0
M  V30 6 C -0.1205 -1.1706 1.7186 0
M  V30 7 C 0.6123 1.2133 -0.1803 0
M  V30 8 C -0.3478 2.2071 -0.4167 0
M  V30 9 C 1.8128 1.5657 0.4512 0
M  V30 10 C -0.1123 3.5263 -0.0266 0
M  V30 11 C 2.0463 2.8856 0.8407 0
M  V30 12 C 1.0841 3.8652 0.6022 0
M  V30 13 H -1.5542 -0.3081 0.4302 0
M  V30 14 H 0.4628 -2.8276 -1.4928 0
M  V30 15 H -0.5414 -4.154 -0.8894 0
M  V30 16 H 0.5887 -3.3727 0.194 0
M  V30 17 H -2.9478 -1.4255 -1.0186 0
M  V30 18 H -2.5607 -3.0305 -1.6106 0
M  V30 19 H -1.6558 -1.6338 -2.2206 0
M  V30 20 H 1.3028 -0.7668 -0.6178 0
M  V30 21 H 0.004 -0.1905 -1.6381 0
M  V30 22 H 0.8401 -1.6954 1.7102 0
M  V30 23 H 0.0277 -0.2134 2.2297 0
M  V30 24 H -0.8219 -1.751 2.3291 0
M  V30 25 H -1.2862 1.9586 -0.9077 0
M  V30 26 H 2.5733 0.8135 0.6477 0
M  V30 27 H -0.8628 4.2899 -0.2134 0
M  V30 28 H 2.9794 3.1494 1.3314 0
M  V30 29 H 1.2668 4.8924 0.9062 0
M  V30 END ATOM
M  V30 BEGIN BOND
M  V30 1 1 1 2
M  V30 2 1 1 3
M  V30 3 1 1 4
M  V30 4 1 2 5
M  V30 5 1 2 6
M  V30 6 1 5 7
M  V30 7 2 7 8
M  V30 8 1 7 9
M  V30 9 1 8 10
M  V30 10 2 9 11
M  V30 11 2 10 12
M  V30 12 1 11 12
M  V30 13 1 2 13
M  V30 14 1 3 14
M  V30 15 1 3 15
M  V30 16 1 3 16
M  V30 17 1 4 17
M  V30 18 1 4 18
M  V30 19 1 4 19
M  V30 20 1 5 20
M  V30 21 1 5 21
M  V30 22 1 6 22
M  V30 23 1 6 23
M  V30 24 1 6 24
M  V30 25 1 8 25
M  V30 26 1 9 26
M  V30 27 1 10 27
M  V30 28 1 11 28
M  V30 29 1 12 29
M  V30 END BOND
M  V30 BEGIN COLLECTION
M  V30 MDLV30/STERAC1 ATOMS=(1 2)
M  V30 END COLLECTION
M  V30 END CTAB
M  END
>  <NO.>
1303

>  <Name>
dimethylamphetamine

>  <SMILES>
CC(Cc1ccccc1)N(C)C

>  <logBB>


>  <Class>
1

>  <MW>
163.14

>  <nHBAcc>
1

>  <nHBDon>
0

>  <SLogP>
2.18

>  <TopoPSA>
3.24

>  <MMFF94 Energy>
40.344

$$$$
CC(Cc1ccccc1)N(C)Cc1ccccc1
Actelion Java MolfileCreator 2.0

  0  0  0  0  0  0              0 V3000
M  V30 BEGIN CTAB
M  V30 COUNTS 39 40 0 0 0
M  V30 BEGIN ATOM
M  V30 1 N 0.0 -0.8638 -0.2355 0
M  V30 2 C 0.5282 0.3105 0.5057 0 CFG=2
M  V30 3 C -1.1182 -1.5056 0.4824 0
M  V30 4 C 1.0226 -1.846 -0.6035 0
M  V30 5 C 1.3399 1.2277 -0.4493 0
M  V30 6 C 1.3404 -0.0475 1.761 0
M  V30 7 C -1.9535 -2.4158 -0.396 0
M  V30 8 C 1.5986 2.6116 0.1059 0
M  V30 9 C -2.5544 -1.9231 -1.5645 0
M  V30 10 C -2.1613 -3.7569 -0.0423 0
M  V30 11 C 0.5679 3.5607 0.1528 0
M  V30 12 C 2.8677 2.9632 0.5853 0
M  V30 13 C -3.3378 -2.7549 -2.3656 0
M  V30 14 C -2.946 -4.5876 -0.8447 0
M  V30 15 C 0.8016 4.8348 0.6723 0
M  V30 16 C 3.0994 4.238 1.1047 0
M  V30 17 C -3.5333 -4.0868 -2.0054 0
M  V30 18 C 2.0667 5.1729 1.1487 0
M  V30 19 H -0.338 0.8979 0.8396 0
M  V30 20 H -0.7523 -2.058 1.3571 0
M  V30 21 H -1.8097 -0.7439 0.8671 0
M  V30 22 H 1.8495 -1.38 -1.1478 0
M  V30 23 H 0.6143 -2.6009 -1.2842 0
M  V30 24 H 1.4341 -2.3683 0.2669 0
M  V30 25 H 2.2974 0.7611 -0.7124 0
M  V30 26 H 0.7973 1.3495 -1.3971 0
M  V30 27 H 2.2945 -0.5213 1.5075 0
M  V30 28 H 1.5632 0.8495 2.3483 0
M  V30 29 H 0.787 -0.7229 2.4208 0
M  V30 30 H -2.4015 -0.8857 -1.8552 0
M  V30 31 H -1.7114 -4.164 0.8599 0
M  V30 32 H -0.4237 3.3117 -0.219 0
M  V30 33 H 3.6844 2.2455 0.5586 0
M  V30 34 H -3.793 -2.3627 -3.271 0
M  V30 35 H -3.0992 -5.6262 -0.5639 0
M  V30 36 H -0.0036 5.5641 0.7034 0
M  V30 37 H 4.0867 4.502 1.4743 0
M  V30 38 H -4.1429 -4.7344 -2.6297 0
M  V30 39 H 2.2484 6.1655 1.5522 0
M  V30 END ATOM
M  V30 BEGIN BOND
M  V30 1 1 1 2
M  V30 2 1 1 3
M  V30 3 1 1 4
M  V30 4 1 2 5
M  V30 5 1 2 6
M  V30 6 1 3 7
M  V30 7 1 5 8
M  V30 8 2 7 9
M  V30 9 1 7 10
M  V30 10 2 8 11
M  V30 11 1 8 12
M  V30 12 1 9 13
M  V30 13 2 10 14
M  V30 14 1 11 15
M  V30 15 2 12 16
M  V30 16 2 13 17
M  V30 17 2 15 18
M  V30 18 1 14 17
M  V30 19 1 16 18
M  V30 20 1 2 19
M  V30 21 1 3 20
M  V30 22 1 3 21
M  V30 23 1 4 22
M  V30 24 1 4 23
M  V30 25 1 4 24
M  V30 26 1 5 25
M  V30 27 1 5 26
M  V30 28 1 6 27
M  V30 29 1 6 28
M  V30 30 1 6 29
M  V30 31 1 9 30
M  V30 32 1 10 31
M  V30 33 1 11 32
M  V30 34 1 12 33
M  V30 35 1 13 34
M  V30 36 1 14 35
M  V30 37 1 15 36
M  V30 38 1 16 37
M  V30 39 1 17 38
M  V30 40 1 18 39
M  V30 END BOND
M  V30 BEGIN COLLECTION
M  V30 MDLV30/STERAC1 ATOMS=(1 2)
M  V30 END COLLECTION
M  V30 END CTAB
M  END
>  <NO.>
1304

>  <Name>
benzphetamine(benzfetamine)

>  <SMILES>
CC(Cc1ccccc1)N(C)Cc1ccccc1

>  <logBB>


>  <Class>
1

>  <MW>
239.17

>  <nHBAcc>
1

>  <nHBDon>
0

>  <SLogP>
3.75

>  <TopoPSA>
3.24

>  <MMFF94 Energy>
58.629

$$$$
CC(Cc1ccccc1)N(C)Cc1ccco1
Actelion Java MolfileCreator 2.0

  0  0  0  0  0  0              0 V3000
M  V30 BEGIN CTAB
M  V30 COUNTS 36 37 0 0 0
M  V30 BEGIN ATOM
M  V30 1 O -3.0697 -2.9121 0.5504 0
M  V30 2 C -2.7689 -1.7285 -0.0596 0
M  V30 3 C -3.5581 -3.7389 -0.4094 0
M  V30 4 C -3.0702 -1.8031 -1.4046 0
M  V30 5 C -2.2118 -0.6488 0.8077 0
M  V30 6 C -3.5789 -3.1042 -1.6289 0
M  V30 7 N -0.8941 -0.1616 0.3432 0
M  V30 8 C -0.5217 1.1028 1.0285 0 CFG=2
M  V30 9 C 0.1099 -1.2248 0.4785 0
M  V30 10 C 0.1928 2.1021 0.0746 0
M  V30 11 C 0.2017 0.9482 2.3735 0
M  V30 12 C 1.5855 1.7678 -0.4015 0
M  V30 13 C 2.7096 2.1312 0.3523 0
M  V30 14 C 1.7753 1.1023 -1.6208 0
M  V30 15 C 3.9948 1.8258 -0.099 0
M  V30 16 C 3.0605 0.7972 -2.071 0
M  V30 17 C 4.1699 1.1584 -1.3096 0
M  V30 18 H -3.8408 -4.7268 -0.0742 0
M  V30 19 H -2.9266 -1.0116 -2.1267 0
M  V30 20 H -2.942 0.1704 0.7742 0
M  V30 21 H -2.1601 -0.9832 1.8517 0
M  V30 22 H -3.9162 -3.5288 -2.5634 0
M  V30 23 H -1.4579 1.6285 1.2678 0
M  V30 24 H 1.1152 -0.8768 0.2317 0
M  V30 25 H -0.0967 -2.0447 -0.2177 0
M  V30 26 H 0.1403 -1.6439 1.4909 0
M  V30 27 H -0.4463 2.2659 -0.8047 0
M  V30 28 H 0.2316 3.0843 0.5671 0
M  V30 29 H 1.1863 0.4825 2.2719 0
M  V30 30 H 0.3467 1.928 2.842 0
M  V30 31 H -0.3898 0.3415 3.0674 0
M  V30 32 H 2.5919 2.6576 1.2965 0
M  V30 33 H 0.9159 0.807 -2.2194 0
M  V30 34 H 4.8599 2.1107 0.4936 0
M  V30 35 H 3.1939 0.2758 -3.0149 0
M  V30 36 H 5.1704 0.9209 -1.6603 0
M  V30 END ATOM
M  V30 BEGIN BOND
M  V30 1 1 1 2
M  V30 2 1 1 3
M  V30 3 2 2 4
M  V30 4 1 2 5
M  V30 5 2 3 6
M  V30 6 1 5 7
M  V30 7 1 7 8
M  V30 8 1 7 9
M  V30 9 1 8 10
M  V30 10 1 8 11
M  V30 11 1 10 12
M  V30 12 2 12 13
M  V30 13 1 12 14
M  V30 14 1 13 15
M  V30 15 2 14 16
M  V30 16 2 15 17
M  V30 17 1 4 6
M  V30 18 1 16 17
M  V30 19 1 3 18
M  V30 20 1 4 19
M  V30 21 1 5 20
M  V30 22 1 5 21
M  V30 23 1 6 22
M  V30 24 1 8 23
M  V30 25 1 9 24
M  V30 26 1 9 25
M  V30 27 1 9 26
M  V30 28 1 10 27
M  V30 29 1 10 28
M  V30 30 1 11 29
M  V30 31 1 11 30
M  V30 32 1 11 31
M  V30 33 1 13 32
M  V30 34 1 14 33
M  V30 35 1 15 34
M  V30 36 1 16 35
M  V30 37 1 17 36
M  V30 END BOND
M  V30 BEGIN COLLECTION
M  V30 MDLV30/STERAC1 ATOMS=(1 8)
M  V30 END COLLECTION
M  V30 END CTAB
M  END
>  <NO.>
1305

>  <Name>
furfenorex

>  <SMILES>
CC(Cc1ccccc1)N(C)Cc1ccco1

>  <logBB>


>  <Class>
1

>  <MW>
229.15

>  <nHBAcc>
2

>  <nHBDon>
0

>  <SLogP>
3.34

>  <TopoPSA>
16.38

>  <MMFF94 Energy>
52.194

$$$$
CC(Cc1ccccc1)NC(C#N)c1ccccc1
Actelion Java MolfileCreator 2.0

  0  0  0  0  0  0              0 V3000
M  V30 BEGIN CTAB
M  V30 COUNTS 37 38 0 0 0
M  V30 BEGIN ATOM
M  V30 1 N 3.0079 -0.6326 -2.7702 0
M  V30 2 C 2.0173 -0.6845 -2.1635 0
M  V30 3 C 0.7479 -0.7506 -1.3813 0
M  V30 4 N 0.9829 -0.3931 0.035 0
M  V30 5 C 0.0856 -2.116 -1.534 0
M  V30 6 C -0.2329 -0.1682 0.835 0
M  V30 7 C -1.2122 -2.2115 -2.0658 0
M  V30 8 C 0.7388 -3.2982 -1.1414 0
M  V30 9 C -1.0171 1.124 0.4859 0
M  V30 10 C 0.1561 -0.1971 2.3196 0
M  V30 11 C -1.8369 -3.4527 -2.2005 0
M  V30 12 C 0.1107 -4.5373 -1.2787 0
M  V30 13 C -0.3285 2.4351 0.7919 0
M  V30 14 C -1.1757 -4.6138 -1.807 0
M  V30 15 C -0.7261 3.2009 1.8981 0
M  V30 16 C 0.7084 2.9134 -0.0192 0
M  V30 17 C -0.0978 4.4139 2.1868 0
M  V30 18 C 1.3369 4.1259 0.2709 0
M  V30 19 C 0.9339 4.876 1.3733 0
M  V30 20 H 0.0969 0.009 -1.8301 0
M  V30 21 H 1.5502 -1.1229 0.4638 0
M  V30 22 H -0.9194 -1.0113 0.6903 0
M  V30 23 H -1.7501 -1.319 -2.3796 0
M  V30 24 H 1.7469 -3.267 -0.7319 0
M  V30 25 H -1.972 1.0957 1.0295 0
M  V30 26 H -1.3082 1.1249 -0.5714 0
M  V30 27 H 0.5706 -1.1742 2.5935 0
M  V30 28 H -0.72 -0.0245 2.9539 0
M  V30 29 H 0.9083 0.5612 2.5627 0
M  V30 30 H -2.8402 -3.5148 -2.615 0
M  V30 31 H 0.6279 -5.4448 -0.9766 0
M  V30 32 H -1.662 -5.58 -1.9153 0
M  V30 33 H -1.5282 2.8569 2.547 0
M  V30 34 H 1.0426 2.3437 -0.8819 0
M  V30 35 H -0.4129 4.9973 3.0478 0
M  V30 36 H 2.1443 4.4822 -0.3634 0
M  V30 37 H 1.4251 5.8186 1.5986 0
M  V30 END ATOM
M  V30 BEGIN BOND
M  V30 1 3 1 2
M  V30 2 1 2 3
M  V30 3 1 3 4
M  V30 4 1 3 5
M  V30 5 1 4 6
M  V30 6 2 5 7
M  V30 7 1 5 8
M  V30 8 1 6 9
M  V30 9 1 6 10
M  V30 10 1 7 11
M  V30 11 2 8 12
M  V30 12 1 9 13
M  V30 13 2 11 14
M  V30 14 2 13 15
M  V30 15 1 13 16
M  V30 16 1 15 17
M  V30 17 2 16 18
M  V30 18 2 17 19
M  V30 19 1 12 14
M  V30 20 1 18 19
M  V30 21 1 3 20
M  V30 22 1 4 21
M  V30 23 1 6 22
M  V30 24 1 7 23
M  V30 25 1 8 24
M  V30 26 1 9 25
M  V30 27 1 9 26
M  V30 28 1 10 27
M  V30 29 1 10 28
M  V30 30 1 10 29
M  V30 31 1 11 30
M  V30 32 1 12 31
M  V30 33 1 14 32
M  V30 34 1 15 33
M  V30 35 1 16 34
M  V30 36 1 17 35
M  V30 37 1 18 36
M  V30 38 1 19 37
M  V30 END BOND
M  V30 END CTAB
M  END
>  <NO.>
1306

>  <Name>
amfetaminil

>  <SMILES>
CC(Cc1ccccc1)NC(C#N)c1ccccc1

>  <logBB>


>  <Class>
1

>  <MW>
250.15

>  <nHBAcc>
2

>  <nHBDon>
1

>  <SLogP>
3.47

>  <TopoPSA>
35.82

>  <MMFF94 Energy>
90.084

$$$$
CC(Cc1ccccc1)NCCn1cnc2c1c(=O)n(C)c(=O)n2C
Actelion Java MolfileCreator 2.0

  0  0  0  0  0  0              0 V3000
M  V30 BEGIN CTAB
M  V30 COUNTS 48 50 0 0 0
M  V30 BEGIN ATOM
M  V30 1 O -0.8681 1.8949 -5.6933 0
M  V30 2 C -1.1674 1.2515 -4.6829 0
M  V30 3 N -1.7017 1.8942 -3.5464 0
M  V30 4 N -0.9927 -0.1304 -4.6098 0
M  V30 5 C -2.0622 1.2678 -2.3501 0
M  V30 6 C -1.8734 3.3307 -3.6446 0
M  V30 7 C -1.3429 -0.7928 -3.4582 0
M  V30 8 C -0.4502 -0.8676 -5.7364 0
M  V30 9 O -2.5043 1.8533 -1.3659 0
M  V30 10 C -1.8542 -0.1384 -2.3781 0
M  V30 11 N -1.23 -2.1317 -3.2378 0
M  V30 12 N -2.0718 -1.114 -1.446 0
M  V30 13 C -1.6852 -2.3022 -2.0129 0
M  V30 14 C -2.6193 -0.9573 -0.1135 0
M  V30 15 C -1.5899 -0.4675 0.9149 0
M  V30 16 N -0.5541 -1.4769 1.1733 0
M  V30 17 C 0.3427 -1.1098 2.2881 0 CFG=2
M  V30 18 C 1.3602 -0.0128 1.8904 0
M  V30 19 C 1.0566 -2.3994 2.7126 0
M  V30 20 C 2.2093 0.4778 3.0407 0
M  V30 21 C 1.6502 1.2825 4.0435 0
M  V30 22 C 3.5658 0.1355 3.1224 0
M  V30 23 C 2.4322 1.7318 5.1086 0
M  V30 24 C 4.3459 0.5857 4.1888 0
M  V30 25 C 3.7793 1.3829 5.1814 0
M  V30 26 H -2.5172 3.5558 -4.5014 0
M  V30 27 H -0.8961 3.7925 -3.8199 0
M  V30 28 H -2.3158 3.7649 -2.7446 0
M  V30 29 H -1.184 -1.6112 -6.0634 0
M  V30 30 H 0.4691 -1.3726 -5.4236 0
M  V30 31 H -0.2185 -0.2118 -6.5797 0
M  V30 32 H -1.7523 -3.2487 -1.49 0
M  V30 33 H -3.0431 -1.9219 0.1916 0
M  V30 34 H -3.4555 -0.2526 -0.1823 0
M  V30 35 H -2.1282 -0.2534 1.8459 0
M  V30 36 H -1.1364 0.4666 0.569 0
M  V30 37 H 0.0043 -1.6316 0.3315 0
M  V30 38 H -0.2613 -0.7768 3.1417 0
M  V30 39 H 2.006 -0.3789 1.0811 0
M  V30 40 H 0.8425 0.8624 1.4789 0
M  V30 41 H 0.3323 -3.1868 2.9527 0
M  V30 42 H 1.7138 -2.7758 1.9205 0
M  V30 43 H 1.6633 -2.24 3.6098 0
M  V30 44 H 0.6012 1.5671 3.9997 0
M  V30 45 H 4.0245 -0.4871 2.3577 0
M  V30 46 H 1.9905 2.3556 5.8815 0
M  V30 47 H 5.3968 0.3141 4.2448 0
M  V30 48 H 4.3878 1.7333 6.0109 0
M  V30 END ATOM
M  V30 BEGIN BOND
M  V30 1 2 1 2
M  V30 2 1 2 3
M  V30 3 1 2 4
M  V30 4 1 3 5
M  V30 5 1 3 6
M  V30 6 1 4 7
M  V30 7 1 4 8
M  V30 8 2 5 9
M  V30 9 1 5 10
M  V30 10 1 7 11
M  V30 11 1 10 12
M  V30 12 2 11 13
M  V30 13 1 12 14
M  V30 14 1 14 15
M  V30 15 1 15 16
M  V30 16 1 16 17
M  V30 17 1 17 18
M  V30 18 1 17 19
M  V30 19 1 18 20
M  V30 20 2 20 21
M  V30 21 1 20 22
M  V30 22 1 21 23
M  V30 23 2 22 24
M  V30 24 2 23 25
M  V30 25 2 7 10
M  V30 26 1 12 13
M  V30 27 1 24 25
M  V30 28 1 6 26
M  V30 29 1 6 27
M  V30 30 1 6 28
M  V30 31 1 8 29
M  V30 32 1 8 30
M  V30 33 1 8 31
M  V30 34 1 13 32
M  V30 35 1 14 33
M  V30 36 1 14 34
M  V30 37 1 15 35
M  V30 38 1 15 36
M  V30 39 1 16 37
M  V30 40 1 17 38
M  V30 41 1 18 39
M  V30 42 1 18 40
M  V30 43 1 19 41
M  V30 44 1 19 42
M  V30 45 1 19 43
M  V30 46 1 21 44
M  V30 47 1 22 45
M  V30 48 1 23 46
M  V30 49 1 24 47
M  V30 50 1 25 48
M  V30 END BOND
M  V30 BEGIN COLLECTION
M  V30 MDLV30/STERAC1 ATOMS=(1 17)
M  V30 END COLLECTION
M  V30 END CTAB
M  END
>  <NO.>
1308

>  <Name>
fenethylline

>  <SMILES>
CC(Cc1ccccc1)NCCn1cnc2c1c(=O)n(C)c(=O)n2C

>  <logBB>


>  <Class>
1

>  <MW>
341.19

>  <nHBAcc>
4

>  <nHBDon>
1

>  <SLogP>
0.65

>  <TopoPSA>
73.85

>  <MMFF94 Energy>
-80.588

$$$$
CC(Cc1ccccc1)NN
Actelion Java MolfileCreator 2.0

  0  0  0  0  0  0              0 V3000
M  V30 BEGIN CTAB
M  V30 COUNTS 25 25 0 0 0
M  V30 BEGIN ATOM
M  V30 1 N -0.6973 1.4725 -1.3174 0
M  V30 2 N -2.1325 1.4054 -1.429 0
M  V30 3 C -0.2174 1.6338 0.0735 0 CFG=2
M  V30 4 C -0.423 0.3917 0.973 0
M  V30 5 C -0.79 2.8907 0.7388 0
M  V30 6 C 0.3182 -0.8355 0.4937 0
M  V30 7 C -0.3513 -1.8416 -0.2156 0
M  V30 8 C 1.692 -0.9738 0.7353 0
M  V30 9 C 0.3396 -2.9653 -0.6714 0
M  V30 10 C 2.3808 -2.0987 0.2794 0
M  V30 11 C 1.7047 -3.0939 -0.4234 0
M  V30 12 H -0.2514 0.641 -1.725 0
M  V30 13 H -2.5691 0.7695 -0.7603 0
M  V30 14 H -2.563 2.3241 -1.297 0
M  V30 15 H 0.8641 1.8035 -0.013 0
M  V30 16 H -0.0757 0.6178 1.9906 0
M  V30 17 H -1.4905 0.1615 1.0817 0
M  V30 18 H -1.8609 2.7933 0.9469 0
M  V30 19 H -0.2842 3.0816 1.6918 0
M  V30 20 H -0.6408 3.7727 0.1063 0
M  V30 21 H -1.4151 -1.7543 -0.4244 0
M  V30 22 H 2.2352 -0.2051 1.2806 0
M  V30 23 H -0.1876 -3.7396 -1.2226 0
M  V30 24 H 3.4459 -2.198 0.4716 0
M  V30 25 H 2.2418 -3.969 -0.7794 0
M  V30 END ATOM
M  V30 BEGIN BOND
M  V30 1 1 1 2
M  V30 2 1 1 3
M  V30 3 1 3 4
M  V30 4 1 3 5
M  V30 5 1 4 6
M  V30 6 2 6 7
M  V30 7 1 6 8
M  V30 8 1 7 9
M  V30 9 2 8 10
M  V30 10 2 9 11
M  V30 11 1 10 11
M  V30 12 1 1 12
M  V30 13 1 2 13
M  V30 14 1 2 14
M  V30 15 1 3 15
M  V30 16 1 4 16
M  V30 17 1 4 17
M  V30 18 1 5 18
M  V30 19 1 5 19
M  V30 20 1 5 20
M  V30 21 1 7 21
M  V30 22 1 8 22
M  V30 23 1 9 23
M  V30 24 1 10 24
M  V30 25 1 11 25
M  V30 END BOND
M  V30 BEGIN COLLECTION
M  V30 MDLV30/STERAC1 ATOMS=(1 3)
M  V30 END COLLECTION
M  V30 END CTAB
M  END
>  <NO.>
1309

>  <Name>
pheniprazine

>  <SMILES>
CC(Cc1ccccc1)NN

>  <logBB>


>  <Class>
1

>  <MW>
150.12

>  <nHBAcc>
2

>  <nHBDon>
2

>  <SLogP>
1.08

>  <TopoPSA>
38.05

>  <MMFF94 Energy>
75.848

$$$$
CC(Cc1ccccc1)NO
Actelion Java MolfileCreator 2.0

  0  0  0  0  0  0              0 V3000
M  V30 BEGIN CTAB
M  V30 COUNTS 24 24 0 0 0
M  V30 BEGIN ATOM
M  V30 1 O -2.9646 -0.4676 1.3254 0
M  V30 2 N -2.0078 0.2717 0.5156 0
M  V30 3 C -1.4002 -0.711 -0.4039 0 CFG=2
M  V30 4 C -0.204 -0.0817 -1.1543 0
M  V30 5 C -2.4414 -1.1946 -1.4184 0
M  V30 6 C 0.9653 0.2607 -0.2578 0
M  V30 7 C 1.2137 1.5902 0.1092 0
M  V30 8 C 1.8076 -0.7476 0.2296 0
M  V30 9 C 2.2848 1.9047 0.9467 0
M  V30 10 C 2.8783 -0.431 1.067 0
M  V30 11 C 3.1166 0.8944 1.4253 0
M  V30 12 H -3.7757 0.0648 1.2099 0
M  V30 13 H -1.3009 0.5381 1.2102 0
M  V30 14 H -1.0474 -1.5751 0.174 0
M  V30 15 H 0.1567 -0.7766 -1.9245 0
M  V30 16 H -0.529 0.8149 -1.6993 0
M  V30 17 H -1.9956 -1.9127 -2.1152 0
M  V30 18 H -2.8434 -0.3616 -2.0062 0
M  V30 19 H -3.2805 -1.6974 -0.9261 0
M  V30 20 H 0.57 2.389 -0.2532 0
M  V30 21 H 1.6344 -1.7867 -0.0404 0
M  V30 22 H 2.4695 2.9386 1.2259 0
M  V30 23 H 3.5268 -1.2193 1.4401 0
M  V30 24 H 3.9506 1.14 2.0772 0
M  V30 END ATOM
M  V30 BEGIN BOND
M  V30 1 1 1 2
M  V30 2 1 2 3
M  V30 3 1 3 4
M  V30 4 1 3 5
M  V30 5 1 4 6
M  V30 6 2 6 7
M  V30 7 1 6 8
M  V30 8 1 7 9
M  V30 9 2 8 10
M  V30 10 2 9 11
M  V30 11 1 10 11
M  V30 12 1 1 12
M  V30 13 1 2 13
M  V30 14 1 3 14
M  V30 15 1 4 15
M  V30 16 1 4 16
M  V30 17 1 5 17
M  V30 18 1 5 18
M  V30 19 1 5 19
M  V30 20 1 7 20
M  V30 21 1 8 21
M  V30 22 1 9 22
M  V30 23 1 10 23
M  V30 24 1 11 24
M  V30 END BOND
M  V30 BEGIN COLLECTION
M  V30 MDLV30/STERAC1 ATOMS=(1 3)
M  V30 END COLLECTION
M  V30 END CTAB
M  END
>  <NO.>
1310

>  <Name>
n-(1-phenylpropan-2-yl)hydroxylamine

>  <SMILES>
CC(Cc1ccccc1)NO

>  <logBB>


>  <Class>
-1

>  <MW>
151.1

>  <nHBAcc>
2

>  <nHBDon>
2

>  <SLogP>
1.6

>  <TopoPSA>
32.26

>  <MMFF94 Energy>
50.941

$$$$
CC(Cc1ccccc1)[N+](C)([O-])Cc1ccccc1
Actelion Java MolfileCreator 2.0

  0  0  0  0  0  0              0 V3000
M  V30 BEGIN CTAB
M  V30 COUNTS 40 41 0 0 0
M  V30 BEGIN ATOM
M  V30 1 O 1.8954 -0.2367 -1.5793 0 CHG=-1
M  V30 2 N 1.0173 0.108 -0.5614 0 CHG=1
M  V30 3 C 0.0295 -1.0779 -0.3714 0
M  V30 4 C 0.2751 1.3965 -0.9149 0
M  V30 5 C 1.8435 0.3048 0.6849 0
M  V30 6 C -0.9216 -0.9336 0.8393 0
M  V30 7 C -0.7589 -1.375 -1.6577 0
M  V30 8 C 1.0803 2.6776 -0.9301 0
M  V30 9 C -1.6141 -2.2217 1.2237 0
M  V30 10 C 0.8017 3.7062 -0.0164 0
M  V30 11 C 2.1048 2.8682 -1.8675 0
M  V30 12 C -2.9852 -2.3922 0.9881 0
M  V30 13 C -0.8929 -3.2643 1.8225 0
M  V30 14 C 1.5383 4.8925 -0.0376 0
M  V30 15 C 2.841 4.0535 -1.8861 0
M  V30 16 C -3.6204 -3.584 1.3407 0
M  V30 17 C -1.5307 -4.4549 2.1739 0
M  V30 18 C 2.5576 5.0653 -0.9715 0
M  V30 19 C -2.8935 -4.6146 1.9328 0
M  V30 20 H 0.7052 -1.9279 -0.2022 0
M  V30 21 H -0.1614 1.2391 -1.9073 0
M  V30 22 H -0.5393 1.4873 -0.1909 0
M  V30 23 H 1.2261 0.7838 1.4472 0
M  V30 24 H 2.1967 -0.6771 1.0104 0
M  V30 25 H 2.6997 0.9352 0.4297 0
M  V30 26 H -0.3872 -0.5863 1.7293 0
M  V30 27 H -1.6776 -0.1653 0.637 0
M  V30 28 H -1.5364 -0.6242 -1.8329 0
M  V30 29 H -1.2485 -2.3525 -1.5985 0
M  V30 30 H -0.1095 -1.3931 -2.5382 0
M  V30 31 H 0.008 3.5964 0.7187 0
M  V30 32 H 2.3431 2.0802 -2.582 0
M  V30 33 H -3.5708 -1.6016 0.5244 0
M  V30 34 H 0.1718 -3.1594 2.0194 0
M  V30 35 H 1.3165 5.684 0.6736 0
M  V30 36 H 3.6376 4.1818 -2.6142 0
M  V30 37 H -4.6836 -3.7096 1.1519 0
M  V30 38 H -0.9633 -5.2594 2.635 0
M  V30 39 H 3.1322 5.9876 -0.9877 0
M  V30 40 H -3.3889 -5.5429 2.2054 0
M  V30 END ATOM
M  V30 BEGIN BOND
M  V30 1 1 1 2
M  V30 2 1 2 3
M  V30 3 1 2 4
M  V30 4 1 2 5
M  V30 5 1 3 6
M  V30 6 1 3 7
M  V30 7 1 4 8
M  V30 8 1 6 9
M  V30 9 2 8 10
M  V30 10 1 8 11
M  V30 11 2 9 12
M  V30 12 1 9 13
M  V30 13 1 10 14
M  V30 14 2 11 15
M  V30 15 1 12 16
M  V30 16 2 13 17
M  V30 17 2 14 18
M  V30 18 2 16 19
M  V30 19 1 15 18
M  V30 20 1 17 19
M  V30 21 1 3 20
M  V30 22 1 4 21
M  V30 23 1 4 22
M  V30 24 1 5 23
M  V30 25 1 5 24
M  V30 26 1 5 25
M  V30 27 1 6 26
M  V30 28 1 6 27
M  V30 29 1 7 28
M  V30 30 1 7 29
M  V30 31 1 7 30
M  V30 32 1 10 31
M  V30 33 1 11 32
M  V30 34 1 12 33
M  V30 35 1 13 34
M  V30 36 1 14 35
M  V30 37 1 15 36
M  V30 38 1 16 37
M  V30 39 1 17 38
M  V30 40 1 18 39
M  V30 41 1 19 40
M  V30 END BOND
M  V30 END CTAB
M  END
>  <NO.>
1311

>  <Name>
oxifentorex

>  <SMILES>
CC(Cc1ccccc1)[N+](C)([O-])Cc1ccccc1

>  <logBB>


>  <Class>
1

>  <MW>
255.16

>  <nHBAcc>
1

>  <nHBDon>
0

>  <SLogP>
3.76

>  <TopoPSA>
23.06

>  <MMFF94 Energy>
75.859

$$$$
CC(Cc1ccccc1)[n+]1cc(NC(=O)Nc2ccccc2)on1
Actelion Java MolfileCreator 2.0

  0  0  0  0  0  0              0 V3000
M  V30 BEGIN CTAB
M  V30 COUNTS 43 45 0 0 0
M  V30 BEGIN ATOM
M  V30 1 O -1.4256 -1.0294 -1.0294 0
M  V30 2 C -1.6723 0.0943 -1.4558 0
M  V30 3 N -2.9115 0.582 -1.8108 0
M  V30 4 N -0.6798 1.0447 -1.621 0
M  V30 5 C -4.1273 -0.1351 -1.8219 0
M  V30 6 C 0.6207 0.7384 -1.3072 0
M  V30 7 C -4.2015 -1.5297 -1.828 0
M  V30 8 C -5.3138 0.6083 -1.8661 0
M  V30 9 O 1.6073 1.497 -1.8942 0
M  V30 10 C 1.2193 -0.1987 -0.4947 0
M  V30 11 C -5.4437 -2.1712 -1.8596 0
M  V30 12 C -6.5544 -0.0338 -1.8973 0
M  V30 13 N 2.8612 1.0276 -1.4589 0
M  V30 14 N 2.5684 0.0272 -0.6473 0 CHG=1
M  V30 15 C -6.6189 -1.4243 -1.8922 0
M  V30 16 C 3.6022 -0.7426 0.0554 0 CFG=2
M  V30 17 C 4.2269 0.0779 1.1978 0
M  V30 18 C 4.6768 -1.2362 -0.9128 0
M  V30 19 C 3.1845 0.5218 2.1955 0
M  V30 20 C 2.7258 1.8471 2.199 0
M  V30 21 C 2.6321 -0.3943 3.1019 0
M  V30 22 C 1.72 2.2423 3.0814 0
M  V30 23 C 1.6255 0.0054 3.9813 0
M  V30 24 C 1.167 1.3209 3.9678 0
M  V30 25 H -2.9934 1.5704 -1.9995 0
M  V30 26 H -0.8784 1.9182 -2.0886 0
M  V30 27 H -3.3111 -2.1502 -1.8206 0
M  V30 28 H -5.297 1.695 -1.8694 0
M  V30 29 H 0.7799 -0.9569 0.1368 0
M  V30 30 H -5.4922 -3.2577 -1.8624 0
M  V30 31 H -7.4712 0.5505 -1.9259 0
M  V30 32 H -7.5832 -1.9264 -1.9172 0
M  V30 33 H 3.1156 -1.6331 0.477 0
M  V30 34 H 4.9876 -0.5158 1.7202 0
M  V30 35 H 4.7483 0.9551 0.7937 0
M  V30 36 H 5.3925 -1.8871 -0.4001 0
M  V30 37 H 5.2329 -0.4026 -1.3548 0
M  V30 38 H 4.2237 -1.8048 -1.7317 0
M  V30 39 H 3.1527 2.592 1.5295 0
M  V30 40 H 2.9852 -1.423 3.1505 0
M  V30 41 H 1.3761 3.2748 3.0933 0
M  V30 42 H 1.2061 -0.704 4.6924 0
M  V30 43 H 0.3921 1.6334 4.6653 0
M  V30 END ATOM
M  V30 BEGIN BOND
M  V30 1 2 1 2
M  V30 2 1 2 3
M  V30 3 1 2 4
M  V30 4 1 3 5
M  V30 5 1 4 6
M  V30 6 2 5 7
M  V30 7 1 5 8
M  V30 8 1 6 9
M  V30 9 2 6 10
M  V30 10 1 7 11
M  V30 11 2 8 12
M  V30 12 1 9 13
M  V30 13 1 10 14
M  V30 14 2 11 15
M  V30 15 1 14 16
M  V30 16 1 16 17
M  V30 17 1 16 18
M  V30 18 1 17 19
M  V30 19 2 19 20
M  V30 20 1 19 21
M  V30 21 1 20 22
M  V30 22 2 21 23
M  V30 23 2 22 24
M  V30 24 1 12 15
M  V30 25 2 13 14
M  V30 26 1 23 24
M  V30 27 1 3 25
M  V30 28 1 4 26
M  V30 29 1 7 27
M  V30 30 1 8 28
M  V30 31 1 10 29
M  V30 32 1 11 30
M  V30 33 1 12 31
M  V30 34 1 15 32
M  V30 35 1 16 33
M  V30 36 1 17 34
M  V30 37 1 17 35
M  V30 38 1 18 36
M  V30 39 1 18 37
M  V30 40 1 18 38
M  V30 41 1 20 39
M  V30 42 1 21 40
M  V30 43 1 22 41
M  V30 44 1 23 42
M  V30 45 1 24 43
M  V30 END BOND
M  V30 BEGIN COLLECTION
M  V30 MDLV30/STERAC1 ATOMS=(1 16)
M  V30 END COLLECTION
M  V30 END CTAB
M  END
>  <NO.>
1312

>  <Name>
mesocarb

>  <SMILES>
CC(Cc1ccccc1)[n+]1cc(NC(=O)Nc2ccccc2)on1

>  <logBB>


>  <Class>
1

>  <MW>
323.15

>  <nHBAcc>
3

>  <nHBDon>
2

>  <SLogP>
3.41

>  <TopoPSA>
71.04

>  <MMFF94 Energy>
-13.171

$$$$
CC(N)C(=O)OC(C)(C)Cc1ccc(Cl)cc1
Actelion Java MolfileCreator 2.0

  0  0  0  0  0  0              0 V3000
M  V30 BEGIN CTAB
M  V30 COUNTS 35 35 0 0 0
M  V30 BEGIN ATOM
M  V30 1 Cl -2.3002 -2.9355 4.2865 0
M  V30 2 C -1.3143 -2.5674 2.9253 0
M  V30 3 C -0.3815 -1.5364 3.0048 0
M  V30 4 C -1.4532 -3.303 1.7508 0
M  V30 5 C 0.4177 -1.2376 1.8993 0
M  V30 6 C -0.6537 -3.0037 0.6452 0
M  V30 7 C 0.2869 -1.965 0.7076 0
M  V30 8 C 1.1489 -1.6336 -0.4934 0
M  V30 9 C 0.6502 -0.4542 -1.3801 0
M  V30 10 O 0.7075 0.7375 -0.5469 0
M  V30 11 C -0.775 -0.7182 -1.8873 0
M  V30 12 C 1.6321 -0.3191 -2.5567 0
M  V30 13 C 0.3261 1.9518 -1.0274 0
M  V30 14 O -0.0513 2.186 -2.1686 0
M  V30 15 C 0.4585 3.0194 0.0709 0 CFG=1
M  V30 16 N 0.2496 4.3732 -0.4944 0
M  V30 17 C -0.5604 2.7795 1.1766 0
M  V30 18 H -0.2708 -0.9631 3.9213 0
M  V30 19 H -2.1799 -4.1086 1.6889 0
M  V30 20 H 1.1445 -0.4313 1.9731 0
M  V30 21 H -0.7731 -3.5865 -0.2657 0
M  V30 22 H 1.2571 -2.5395 -1.1054 0
M  V30 23 H 2.1572 -1.4059 -0.1194 0
M  V30 24 H -0.8612 -1.7161 -2.3304 0
M  V30 25 H -1.5091 -0.6222 -1.0801 0
M  V30 26 H -1.0718 4.0E-4 -2.6578 0
M  V30 27 H 1.3265 0.4609 -3.2605 0
M  V30 28 H 1.7101 -1.2551 -3.1205 0
M  V30 29 H 2.6305 -0.0429 -2.1989 0
M  V30 30 H 1.478 2.9762 0.4691 0
M  V30 31 H -0.6751 4.3926 -0.9323 0
M  V30 32 H 0.8917 4.4894 -1.2817 0
M  V30 33 H -0.393 1.8118 1.6605 0
M  V30 34 H -1.5841 2.774 0.7846 0
M  V30 35 H -0.4935 3.5522 1.9504 0
M  V30 END ATOM
M  V30 BEGIN BOND
M  V30 1 1 1 2
M  V30 2 2 2 3
M  V30 3 1 2 4
M  V30 4 1 3 5
M  V30 5 2 4 6
M  V30 6 2 5 7
M  V30 7 1 7 8
M  V30 8 1 8 9
M  V30 9 1 9 10
M  V30 10 1 9 11
M  V30 11 1 9 12
M  V30 12 1 10 13
M  V30 13 2 13 14
M  V30 14 1 13 15
M  V30 15 1 15 16
M  V30 16 1 15 17
M  V30 17 1 6 7
M  V30 18 1 3 18
M  V30 19 1 4 19
M  V30 20 1 5 20
M  V30 21 1 6 21
M  V30 22 1 8 22
M  V30 23 1 8 23
M  V30 24 1 11 24
M  V30 25 1 11 25
M  V30 26 1 11 26
M  V30 27 1 12 27
M  V30 28 1 12 28
M  V30 29 1 12 29
M  V30 30 1 15 30
M  V30 31 1 16 31
M  V30 32 1 16 32
M  V30 33 1 17 33
M  V30 34 1 17 34
M  V30 35 1 17 35
M  V30 END BOND
M  V30 BEGIN COLLECTION
M  V30 MDLV30/STERAC1 ATOMS=(1 15)
M  V30 END COLLECTION
M  V30 END CTAB
M  END
>  <NO.>
1313

>  <Name>
alaproclate

>  <SMILES>
CC(N)C(=O)OC(C)(C)Cc1ccc(Cl)cc1

>  <logBB>


>  <Class>
1

>  <MW>
255.1

>  <nHBAcc>
3

>  <nHBDon>
1

>  <SLogP>
2.55

>  <TopoPSA>
52.32

>  <MMFF94 Energy>
73.51

$$$$
CC(NCCn1cnc2c1c(=O)n(C)c(=O)n2C)C(O)c1ccccc1
Actelion Java MolfileCreator 2.0

  0  0  0  0  0  0              0 V3000
M  V30 BEGIN CTAB
M  V30 COUNTS 49 51 0 0 0
M  V30 BEGIN ATOM
M  V30 1 O 0.395 -1.2644 -4.0348 0
M  V30 2 C -0.1471 -0.5801 -3.1605 0
M  V30 3 N -0.8342 -1.1752 -2.0854 0
M  V30 4 N -0.127 0.8159 -3.2092 0
M  V30 5 C -1.5772 -0.4926 -1.1166 0
M  V30 6 C -0.8247 -2.621 -2.0059 0
M  V30 7 C -0.747 1.5319 -2.2135 0
M  V30 8 C 0.5624 1.5077 -4.2811 0
M  V30 9 O -2.3035 -1.0457 -0.2929 0
M  V30 10 C -1.4425 0.921 -1.2146 0
M  V30 11 N -0.7534 2.8892 -2.0863 0
M  V30 12 N -1.8703 1.9398 -0.4093 0
M  V30 13 C -1.4407 3.1093 -0.9834 0
M  V30 14 C -2.5938 1.8312 0.8429 0
M  V30 15 C -1.6725 1.6535 2.0627 0
M  V30 16 N -0.8508 0.4612 1.9432 0
M  V30 17 C 0.238 0.2917 2.9098 0
M  V30 18 C 1.0803 -0.9873 2.5517 0
M  V30 19 C -0.2991 0.2036 4.3441 0
M  V30 20 O 0.2512 -2.1551 2.6888 0
M  V30 21 C 1.7383 -1.0276 1.1758 0
M  V30 22 C 1.9861 0.1257 0.4146 0
M  V30 23 C 2.1722 -2.2596 0.6515 0
M  V30 24 C 2.613 0.0477 -0.8325 0
M  V30 25 C 2.7985 -2.3389 -0.5945 0
M  V30 26 C 3.015 -1.184 -1.3388 0
M  V30 27 H 0.1008 -3.0349 -2.416 0
M  V30 28 H -1.6688 -3.0001 -2.5907 0
M  V30 29 H -0.9327 -2.96 -0.9712 0
M  V30 30 H 1.3782 2.1004 -3.8552 0
M  V30 31 H -0.1431 2.1698 -4.793 0
M  V30 32 H 0.9823 0.8128 -5.0128 0
M  V30 33 H -1.6462 4.0821 -0.5555 0
M  V30 34 H -3.3078 1.0058 0.7565 0
M  V30 35 H -3.1828 2.749 0.9584 0
M  V30 36 H -2.2965 1.6011 2.9612 0
M  V30 37 H -1.0299 2.5378 2.1507 0
M  V30 38 H -1.3966 -0.4011 1.8408 0
M  V30 39 H 0.9029 1.1625 2.8571 0
M  V30 40 H 1.8928 -1.0818 3.2844 0
M  V30 41 H -0.7194 1.1619 4.6677 0
M  V30 42 H -1.0836 -0.5543 4.4426 0
M  V30 43 H 0.5055 -0.0485 5.0431 0
M  V30 44 H 0.08 -2.278 3.6356 0
M  V30 45 H 1.6797 1.1079 0.7637 0
M  V30 46 H 2.0081 -3.1762 1.2149 0
M  V30 47 H 2.7751 0.9528 -1.4126 0
M  V30 48 H 3.1103 -3.3037 -0.9849 0
M  V30 49 H 3.4887 -1.2444 -2.315 0
M  V30 END ATOM
M  V30 BEGIN BOND
M  V30 1 2 1 2
M  V30 2 1 2 3
M  V30 3 1 2 4
M  V30 4 1 3 5
M  V30 5 1 3 6
M  V30 6 1 4 7
M  V30 7 1 4 8
M  V30 8 2 5 9
M  V30 9 1 5 10
M  V30 10 1 7 11
M  V30 11 1 10 12
M  V30 12 2 11 13
M  V30 13 1 12 14
M  V30 14 1 14 15
M  V30 15 1 15 16
M  V30 16 1 16 17
M  V30 17 1 17 18
M  V30 18 1 17 19
M  V30 19 1 18 20
M  V30 20 1 18 21
M  V30 21 2 21 22
M  V30 22 1 21 23
M  V30 23 1 22 24
M  V30 24 2 23 25
M  V30 25 2 24 26
M  V30 26 2 7 10
M  V30 27 1 12 13
M  V30 28 1 25 26
M  V30 29 1 6 27
M  V30 30 1 6 28
M  V30 31 1 6 29
M  V30 32 1 8 30
M  V30 33 1 8 31
M  V30 34 1 8 32
M  V30 35 1 13 33
M  V30 36 1 14 34
M  V30 37 1 14 35
M  V30 38 1 15 36
M  V30 39 1 15 37
M  V30 40 1 16 38
M  V30 41 1 17 39
M  V30 42 1 18 40
M  V30 43 1 19 41
M  V30 44 1 19 42
M  V30 45 1 19 43
M  V30 46 1 20 44
M  V30 47 1 22 45
M  V30 48 1 23 46
M  V30 49 1 24 47
M  V30 50 1 25 48
M  V30 51 1 26 49
M  V30 END BOND
M  V30 END CTAB
M  END
>  <NO.>
1314

>  <Name>
cafedrine

>  <SMILES>
CC(NCCn1cnc2c1c(=O)n(C)c(=O)n2C)C(O)c1ccccc1

>  <logBB>


>  <Class>
1

>  <MW>
357.18

>  <nHBAcc>
5

>  <nHBDon>
2

>  <SLogP>
0.15

>  <TopoPSA>
94.08

>  <MMFF94 Energy>
-54.757

$$$$
CC(NN)c1ccccc1
Actelion Java MolfileCreator 2.0

  0  0  0  0  0  0              0 V3000
M  V30 BEGIN CTAB
M  V30 COUNTS 22 22 0 0 0
M  V30 BEGIN ATOM
M  V30 1 N -2.0938 0.0774 -0.9301 0
M  V30 2 N -1.6012 1.1461 -1.7772 0
M  V30 3 C -1.0361 -0.8716 -0.5043 0 CFG=2
M  V30 4 C 0.0407 -0.214 0.3514 0
M  V30 5 C -0.5236 -1.701 -1.6897 0
M  V30 6 C 1.3024 0.1398 -0.1521 0
M  V30 7 C -0.2415 0.0778 1.6984 0
M  V30 8 C 2.2526 0.7562 0.6663 0
M  V30 9 C 0.7087 0.6938 2.5151 0
M  V30 10 C 1.9562 1.0321 1.9987 0
M  V30 11 H -2.5379 0.4631 -0.091 0
M  V30 12 H -0.8012 1.6332 -1.3619 0
M  V30 13 H -1.295 0.7973 -2.6878 0
M  V30 14 H -1.5372 -1.6015 0.1473 0
M  V30 15 H -1.352 -2.2268 -2.1783 0
M  V30 16 H -0.0257 -1.0918 -2.451 0
M  V30 17 H 0.1923 -2.4581 -1.3503 0
M  V30 18 H 1.5652 -0.0537 -1.1886 0
M  V30 19 H -1.2113 -0.1762 2.1218 0
M  V30 20 H 3.2259 1.0222 0.2616 0
M  V30 21 H 0.4736 0.9101 3.5541 0
M  V30 22 H 2.6965 1.5117 2.6335 0
M  V30 END ATOM
M  V30 BEGIN BOND
M  V30 1 1 1 2
M  V30 2 1 1 3
M  V30 3 1 3 4
M  V30 4 1 3 5
M  V30 5 2 4 6
M  V30 6 1 4 7
M  V30 7 1 6 8
M  V30 8 2 7 9
M  V30 9 2 8 10
M  V30 10 1 9 10
M  V30 11 1 1 11
M  V30 12 1 2 12
M  V30 13 1 2 13
M  V30 14 1 3 14
M  V30 15 1 5 15
M  V30 16 1 5 16
M  V30 17 1 5 17
M  V30 18 1 6 18
M  V30 19 1 7 19
M  V30 20 1 8 20
M  V30 21 1 9 21
M  V30 22 1 10 22
M  V30 END BOND
M  V30 BEGIN COLLECTION
M  V30 MDLV30/STERAC1 ATOMS=(1 3)
M  V30 END COLLECTION
M  V30 END CTAB
M  END
>  <NO.>
1315

>  <Name>
mebanazine

>  <SMILES>
CC(NN)c1ccccc1

>  <logBB>


>  <Class>
1

>  <MW>
136.1

>  <nHBAcc>
2

>  <nHBDon>
2

>  <SLogP>
1.21

>  <TopoPSA>
38.05

>  <MMFF94 Energy>
73.227

$$$$
CC(NNC(=O)c1ccccc1)c1ccccc1
Actelion Java MolfileCreator 2.0

  0  0  0  0  0  0              0 V3000
M  V30 BEGIN CTAB
M  V30 COUNTS 34 35 0 0 0
M  V30 BEGIN ATOM
M  V30 1 O -1.971 -0.5515 -0.5515 0
M  V30 2 C -1.4296 -0.9018 0.4925 0
M  V30 3 N -0.0559 -0.9339 0.714 0
M  V30 4 C -2.2705 -1.3546 1.6347 0
M  V30 5 N 0.8339 -0.5659 -0.3133 0
M  V30 6 C -1.8974 -1.1298 2.9668 0
M  V30 7 C -3.4822 -1.998 1.3531 0
M  V30 8 C 1.0042 0.8925 -0.4444 0 CFG=2
M  V30 9 C -2.7207 -1.5721 4.0051 0
M  V30 10 C -4.3007 -2.4391 2.3939 0
M  V30 11 C 1.7173 1.1889 -1.7589 0
M  V30 12 C 1.6983 1.4758 0.7947 0
M  V30 13 C -3.9173 -2.2296 3.7182 0
M  V30 14 C 3.0806 1.5088 -1.849 0
M  V30 15 C 0.9754 1.1043 -2.9518 0
M  V30 16 C 3.6753 1.7576 -3.0897 0
M  V30 17 C 1.5702 1.3517 -4.1899 0
M  V30 18 C 2.9205 1.6817 -4.258 0
M  V30 19 H 0.3144 -1.3334 1.5703 0
M  V30 20 H 1.7423 -1.0126 -0.1918 0
M  V30 21 H -0.9904 -0.5864 3.2144 0
M  V30 22 H -3.788 -2.1571 0.3205 0
M  V30 23 H 0.0192 1.375 -0.5105 0
M  V30 24 H -2.4365 -1.3942 5.0397 0
M  V30 25 H -5.2388 -2.9411 2.1701 0
M  V30 26 H 1.8876 2.5479 0.6691 0
M  V30 27 H 2.6564 0.9849 0.9993 0
M  V30 28 H 1.0733 1.3584 1.6872 0
M  V30 29 H -4.5588 -2.5696 4.5279 0
M  V30 30 H 3.7042 1.5695 -0.962 0
M  V30 31 H -0.0792 0.8306 -2.9121 0
M  V30 32 H 4.7314 2.0084 -3.1437 0
M  V30 33 H 0.9776 1.2801 -5.0978 0
M  V30 34 H 3.3853 1.8731 -5.2212 0
M  V30 END ATOM
M  V30 BEGIN BOND
M  V30 1 2 1 2
M  V30 2 1 2 3
M  V30 3 1 2 4
M  V30 4 1 3 5
M  V30 5 2 4 6
M  V30 6 1 4 7
M  V30 7 1 5 8
M  V30 8 1 6 9
M  V30 9 2 7 10
M  V30 10 1 8 11
M  V30 11 1 8 12
M  V30 12 2 9 13
M  V30 13 2 11 14
M  V30 14 1 11 15
M  V30 15 1 14 16
M  V30 16 2 15 17
M  V30 17 2 16 18
M  V30 18 1 10 13
M  V30 19 1 17 18
M  V30 20 1 3 19
M  V30 21 1 5 20
M  V30 22 1 6 21
M  V30 23 1 7 22
M  V30 24 1 8 23
M  V30 25 1 9 24
M  V30 26 1 10 25
M  V30 27 1 12 26
M  V30 28 1 12 27
M  V30 29 1 12 28
M  V30 30 1 13 29
M  V30 31 1 14 30
M  V30 32 1 15 31
M  V30 33 1 16 32
M  V30 34 1 17 33
M  V30 35 1 18 34
M  V30 END BOND
M  V30 BEGIN COLLECTION
M  V30 MDLV30/STERAC1 ATOMS=(1 8)
M  V30 END COLLECTION
M  V30 END CTAB
M  END
>  <NO.>
1316

>  <Name>
benmoxin

>  <SMILES>
CC(NNC(=O)c1ccccc1)c1ccccc1

>  <logBB>


>  <Class>
1

>  <MW>
240.13

>  <nHBAcc>
2

>  <nHBDon>
2

>  <SLogP>
2.68

>  <TopoPSA>
41.13

>  <MMFF94 Energy>
98.902

$$$$
CC(OC(N)=O)C(C)C(C)OC(N)=O
Actelion Java MolfileCreator 2.0

  0  0  0  0  0  0              0 V3000
M  V30 BEGIN CTAB
M  V30 COUNTS 30 29 0 0 0
M  V30 BEGIN ATOM
M  V30 1 O -1.1514 0.0767 -2.7651 0
M  V30 2 C -0.7381 -0.8334 -2.0668 0
M  V30 3 O -0.9224 -0.99 -0.7397 0
M  V30 4 N -0.0097 -1.865 -2.548 0
M  V30 5 C -1.6754 0.0278 -0.0588 0
M  V30 6 C -0.7601 1.0663 0.65 0
M  V30 7 C -2.6058 -0.6924 0.919 0
M  V30 8 C 0.6018 0.5619 1.2 0
M  V30 9 C -0.502 2.2505 -0.3011 0
M  V30 10 O 1.456 0.1824 0.1022 0
M  V30 11 C 0.4862 -0.6037 2.1762 0
M  V30 12 C 2.7857 0.2973 0.3 0
M  V30 13 O 3.345 0.6582 1.3217 0
M  V30 14 N 3.4423 -0.0484 -0.8283 0
M  V30 15 H 0.1917 -1.9052 -3.5347 0
M  V30 16 H 0.2943 -2.5932 -1.921 0
M  V30 17 H -2.3405 0.5473 -0.7614 0
M  V30 18 H -1.3241 1.4822 1.4966 0
M  V30 19 H -2.0623 -1.3378 1.6127 0
M  V30 20 H -3.2077 0.0179 1.4939 0
M  V30 21 H -3.288 -1.3492 0.367 0
M  V30 22 H 1.0577 1.4075 1.7337 0
M  V30 23 H 0.0796 3.0307 0.2018 0
M  V30 24 H -1.4463 2.7037 -0.6218 0
M  V30 25 H 0.0479 1.946 -1.1964 0
M  V30 26 H -0.2417 -0.3928 2.965 0
M  V30 27 H 1.4519 -0.7976 2.6555 0
M  V30 28 H 0.2159 -1.5324 1.665 0
M  V30 29 H 4.4492 -0.0032 -0.8441 0
M  V30 30 H 2.9183 -0.3105 -1.6483 0
M  V30 END ATOM
M  V30 BEGIN BOND
M  V30 1 2 1 2
M  V30 2 1 2 3
M  V30 3 1 2 4
M  V30 4 1 3 5
M  V30 5 1 5 6
M  V30 6 1 5 7
M  V30 7 1 6 8
M  V30 8 1 6 9
M  V30 9 1 8 10
M  V30 10 1 8 11
M  V30 11 1 10 12
M  V30 12 2 12 13
M  V30 13 1 12 14
M  V30 14 1 4 15
M  V30 15 1 4 16
M  V30 16 1 5 17
M  V30 17 1 6 18
M  V30 18 1 7 19
M  V30 19 1 7 20
M  V30 20 1 7 21
M  V30 21 1 8 22
M  V30 22 1 9 23
M  V30 23 1 9 24
M  V30 24 1 9 25
M  V30 25 1 11 26
M  V30 26 1 11 27
M  V30 27 1 11 28
M  V30 28 1 14 29
M  V30 29 1 14 30
M  V30 END BOND
M  V30 END CTAB
M  END
>  <NO.>
1318

>  <Name>
pentabamate

>  <SMILES>
CC(OC(N)=O)C(C)C(C)OC(N)=O

>  <logBB>


>  <Class>
1

>  <MW>
204.11

>  <nHBAcc>
4

>  <nHBDon>
2

>  <SLogP>
0.59

>  <TopoPSA>
104.64

>  <MMFF94 Energy>
-130.41

$$$$
CC(Oc1cccc2ccccc12)C(N)=NO
Actelion Java MolfileCreator 2.0

  0  0  0  0  0  0              0 V3000
M  V30 BEGIN CTAB
M  V30 COUNTS 31 32 0 0 0
M  V30 BEGIN ATOM
M  V30 1 O -0.9462 0.1576 1.0251 0
M  V30 2 C -1.0698 -0.366 -0.2393 0
M  V30 3 C -0.2899 1.4381 0.9991 0 CFG=2
M  V30 4 C -0.0367 -1.1363 -0.8207 0
M  V30 5 C -2.2844 -0.1618 -0.8968 0
M  V30 6 C 0.7454 1.4742 2.1398 0
M  V30 7 C -1.3222 2.5331 1.2457 0
M  V30 8 C -0.2417 -1.6549 -2.1218 0
M  V30 9 C 1.1846 -1.4191 -0.1718 0
M  V30 10 C -2.4746 -0.6786 -2.1733 0
M  V30 11 N 1.7376 2.3116 2.0365 0
M  V30 12 N 0.5648 0.64 3.2094 0
M  V30 13 C -1.4576 -1.413 -2.7836 0
M  V30 14 C 0.7699 -2.4123 -2.7353 0
M  V30 15 C 2.1792 -2.1747 -0.7949 0
M  V30 16 O 2.5823 2.2226 3.156 0
M  V30 17 C 1.9729 -2.6685 -2.0773 0
M  V30 18 H 0.2388 1.6255 0.0543 0
M  V30 19 H -3.0793 0.3994 -0.4146 0
M  V30 20 H -0.8502 3.518 1.32 0
M  V30 21 H -2.0583 2.5641 0.4364 0
M  V30 22 H -1.876 2.3486 2.1733 0
M  V30 23 H 1.3695 -1.0516 0.8345 0
M  V30 24 H -3.4147 -0.5146 -2.6932 0
M  V30 25 H -0.1828 -0.0416 3.2177 0
M  V30 26 H 1.2533 0.6661 3.9494 0
M  V30 27 H -1.6262 -1.8092 -3.7829 0
M  V30 28 H 0.6256 -2.8136 -3.736 0
M  V30 29 H 3.1125 -2.3752 -0.2753 0
M  V30 30 H 3.264 2.8884 2.949 0
M  V30 31 H 2.7452 -3.2568 -2.5654 0
M  V30 END ATOM
M  V30 BEGIN BOND
M  V30 1 1 1 2
M  V30 2 1 1 3
M  V30 3 1 2 4
M  V30 4 2 2 5
M  V30 5 1 3 6
M  V30 6 1 3 7
M  V30 7 1 4 8
M  V30 8 2 4 9
M  V30 9 1 5 10
M  V30 10 2 6 11
M  V30 11 1 6 12
M  V30 12 1 8 13
M  V30 13 2 8 14
M  V30 14 1 9 15
M  V30 15 1 11 16
M  V30 16 1 14 17
M  V30 17 2 10 13
M  V30 18 2 15 17
M  V30 19 1 3 18
M  V30 20 1 5 19
M  V30 21 1 7 20
M  V30 22 1 7 21
M  V30 23 1 7 22
M  V30 24 1 9 23
M  V30 25 1 10 24
M  V30 26 1 12 25
M  V30 27 1 12 26
M  V30 28 1 13 27
M  V30 29 1 14 28
M  V30 30 1 15 29
M  V30 31 1 16 30
M  V30 32 1 17 31
M  V30 END BOND
M  V30 BEGIN COLLECTION
M  V30 MDLV30/STERAC1 ATOMS=(1 3)
M  V30 END COLLECTION
M  V30 END CTAB
M  END
>  <NO.>
1319

>  <Name>
schembl11806329

>  <SMILES>
CC(Oc1cccc2ccccc12)C(N)=NO

>  <logBB>


>  <Class>
1

>  <MW>
230.11

>  <nHBAcc>
3

>  <nHBDon>
2

>  <SLogP>
2.35

>  <TopoPSA>
67.84

>  <MMFF94 Energy>
60.17

$$$$
CC(Oc1ccccc1)C(=O)NC1C(=O)N2C1SC(C)(C)C2C(=O)O
Actelion Java MolfileCreator 2.0

  0  0  0  0  0  0              0 V3000
M  V30 BEGIN CTAB
M  V30 COUNTS 45 47 0 0 0
M  V30 BEGIN ATOM
M  V30 1 S 0.0 0.5682 2.5182 0
M  V30 2 C -0.5181 2.3052 2.0339 0
M  V30 3 C 1.8097 0.8625 2.2529 0
M  V30 4 C 0.7829 3.1278 2.1444 0
M  V30 5 C -1.1467 2.2099 0.6373 0
M  V30 6 C -1.5718 2.7642 3.0501 0
M  V30 7 N 1.8673 2.2415 1.7553 0
M  V30 8 C 2.4201 0.4127 0.8973 0
M  V30 9 C 0.8678 4.5024 1.4819 0
M  V30 10 C 2.1516 1.8761 0.473 0
M  V30 11 N 1.6927 -0.6265 0.1323 0
M  V30 12 O 1.8927 5.1191 1.23 0
M  V30 13 O -0.3204 5.1035 1.2848 0
M  V30 14 O 2.0534 2.4788 -0.5701 0
M  V30 15 C 1.6848 -1.9471 0.53 0
M  V30 16 O 2.345 -2.3407 1.4886 0
M  V30 17 C 0.8506 -2.8649 -0.3788 0
M  V30 18 O -0.309 -2.1267 -0.7791 0
M  V30 19 C 0.4325 -4.12 0.3756 0
M  V30 20 C -0.8299 -2.337 -2.0236 0
M  V30 21 C -0.5096 -3.3831 -2.8883 0
M  V30 22 C -1.7856 -1.3949 -2.4159 0
M  V30 23 C -1.1273 -3.4728 -4.1401 0
M  V30 24 C -2.4021 -1.4832 -3.6649 0
M  V30 25 C -2.07 -2.5227 -4.5292 0
M  V30 26 H 2.4357 0.6943 3.1337 0
M  V30 27 H 0.9675 3.3398 3.2085 0
M  V30 28 H -0.4556 1.8299 -0.1191 0
M  V30 29 H -1.5074 3.1824 0.2894 0
M  V30 30 H -2.0179 1.5425 0.6405 0
M  V30 31 H -1.928 3.7741 2.8216 0
M  V30 32 H -2.4499 2.1073 3.047 0
M  V30 33 H -1.1735 2.7838 4.0714 0
M  V30 34 H 3.4941 0.1926 0.9399 0
M  V30 35 H 1.0817 -0.372 -0.64 0
M  V30 36 H -0.0736 5.9633 0.8786 0
M  V30 37 H 1.5027 -3.1035 -1.2277 0
M  V30 38 H -0.1559 -3.8612 1.2636 0
M  V30 39 H -0.1985 -4.7649 -0.2434 0
M  V30 40 H 1.3033 -4.6977 0.7014 0
M  V30 41 H 0.2029 -4.1556 -2.621 0
M  V30 42 H -2.0538 -0.5837 -1.7429 0
M  V30 43 H -0.8752 -4.2904 -4.811 0
M  V30 44 H -3.1414 -0.743 -3.9597 0
M  V30 45 H -2.5489 -2.5965 -5.5022 0
M  V30 END ATOM
M  V30 BEGIN BOND
M  V30 1 1 1 2
M  V30 2 1 1 3
M  V30 3 1 2 4
M  V30 4 1 2 5
M  V30 5 1 2 6
M  V30 6 1 3 7
M  V30 7 1 3 8
M  V30 8 1 4 9
M  V30 9 1 7 10
M  V30 10 1 8 11
M  V30 11 2 9 12
M  V30 12 1 9 13
M  V30 13 2 10 14
M  V30 14 1 11 15
M  V30 15 2 15 16
M  V30 16 1 15 17
M  V30 17 1 17 18
M  V30 18 1 17 19
M  V30 19 1 18 20
M  V30 20 2 20 21
M  V30 21 1 20 22
M  V30 22 1 21 23
M  V30 23 2 22 24
M  V30 24 2 23 25
M  V30 25 1 4 7
M  V30 26 1 8 10
M  V30 27 1 24 25
M  V30 28 1 3 26
M  V30 29 1 4 27
M  V30 30 1 5 28
M  V30 31 1 5 29
M  V30 32 1 5 30
M  V30 33 1 6 31
M  V30 34 1 6 32
M  V30 35 1 6 33
M  V30 36 1 8 34
M  V30 37 1 11 35
M  V30 38 1 13 36
M  V30 39 1 17 37
M  V30 40 1 19 38
M  V30 41 1 19 39
M  V30 42 1 19 40
M  V30 43 1 21 41
M  V30 44 1 22 42
M  V30 45 1 23 43
M  V30 46 1 24 44
M  V30 47 1 25 45
M  V30 END BOND
M  V30 END CTAB
M  END
>  <NO.>
1320

>  <Name>
3,3-dimethyl-7-oxo-6-[(2-phenoxypropanoyl)amino]-4-thia-1-azabicyclo[3.2.0]heptane-2-carboxylic acid

>  <SMILES>
CC(Oc1ccccc1)C(=O)NC1C(=O)N2C1SC(C)(C)C2C(=O)O

>  <logBB>


>  <Class>
-1

>  <MW>
364.11

>  <nHBAcc>
5

>  <nHBDon>
2

>  <SLogP>
1.09

>  <TopoPSA>
95.94

>  <MMFF94 Energy>
67.877

$$$$
CC(c1noc2ccc(Cl)cc12)n1ccnc1
Actelion Java MolfileCreator 2.0

  0  0  0  0  0  0              0 V3000
M  V30 BEGIN CTAB
M  V30 COUNTS 27 29 0 0 0
M  V30 BEGIN ATOM
M  V30 1 Cl 2.2011 3.9973 -1.0593 0
M  V30 2 C 2.2853 2.3709 -0.4979 0
M  V30 3 C 1.1015 1.7141 -0.133 0
M  V30 4 C 3.5291 1.7381 -0.4149 0
M  V30 5 C 1.1956 0.3881 0.3259 0
M  V30 6 C 3.6353 0.4174 0.0369 0
M  V30 7 C 2.4428 -0.2079 0.3921 0
M  V30 8 C 0.3069 -0.6263 0.781 0
M  V30 9 O 2.31 -1.4789 0.8515 0
M  V30 10 N 0.9746 -1.7477 1.096 0
M  V30 11 C -1.1866 -0.5418 0.9175 0 CFG=1
M  V30 12 N -1.8128 -0.574 -0.4029 0
M  V30 13 C -1.8068 -1.5851 1.8491 0
M  V30 14 C -1.7017 -1.5696 -1.3341 0
M  V30 15 C -2.6358 0.3882 -0.9267 0
M  V30 16 N -2.395 -1.2933 -2.4156 0
M  V30 17 C -2.9801 -0.0786 -2.1736 0
M  V30 18 H 0.1426 2.2169 -0.2114 0
M  V30 19 H 4.4315 2.2721 -0.7066 0
M  V30 20 H 4.588 -0.0943 0.106 0
M  V30 21 H -1.421 0.4453 1.3401 0
M  V30 22 H -1.3752 -1.5177 2.8539 0
M  V30 23 H -2.8887 -1.4332 1.9364 0
M  V30 24 H -1.6489 -2.6069 1.485 0
M  V30 25 H -1.1088 -2.463 -1.178 0
M  V30 26 H -2.9039 1.2904 -0.395 0
M  V30 27 H -3.6195 0.3931 -2.9088 0
M  V30 END ATOM
M  V30 BEGIN BOND
M  V30 1 1 1 2
M  V30 2 2 2 3
M  V30 3 1 2 4
M  V30 4 1 3 5
M  V30 5 2 4 6
M  V30 6 2 5 7
M  V30 7 1 5 8
M  V30 8 1 7 9
M  V30 9 2 8 10
M  V30 10 1 8 11
M  V30 11 1 11 12
M  V30 12 1 11 13
M  V30 13 1 12 14
M  V30 14 1 12 15
M  V30 15 2 14 16
M  V30 16 2 15 17
M  V30 17 1 6 7
M  V30 18 1 9 10
M  V30 19 1 16 17
M  V30 20 1 3 18
M  V30 21 1 4 19
M  V30 22 1 6 20
M  V30 23 1 11 21
M  V30 24 1 13 22
M  V30 25 1 13 23
M  V30 26 1 13 24
M  V30 27 1 14 25
M  V30 28 1 15 26
M  V30 29 1 17 27
M  V30 END BOND
M  V30 BEGIN COLLECTION
M  V30 MDLV30/STERAC1 ATOMS=(1 11)
M  V30 END COLLECTION
M  V30 END CTAB
M  END
>  <NO.>
1321

>  <Name>
zoniclezole

>  <SMILES>
CC(c1noc2ccc(Cl)cc12)n1ccnc1

>  <logBB>


>  <Class>
1

>  <MW>
247.05

>  <nHBAcc>
3

>  <nHBDon>
0

>  <SLogP>
3.29

>  <TopoPSA>
43.85

>  <MMFF94 Energy>
29.542

$$$$
CC/C=C(\C(=O)N[C@@H]1C(=O)N2C(C(=O)O)=C(COC(N)=O)CS[C@H]12)c1csc(N)n1
Actelion Java MolfileCreator 2.0

  0  0  0  0  0  0              0 V3000
M  V30 BEGIN CTAB
M  V30 COUNTS 49 51 0 0 0
M  V30 BEGIN ATOM
M  V30 1 S 1.6282 -0.3254 -0.2441 0
M  V30 2 C 1.297 1.4542 -0.3586 0 CFG=1
M  V30 3 C 2.6455 -0.3493 -1.7548 0
M  V30 4 N 0.5952 1.6803 -1.6005 0
M  V30 5 C 0.0387 2.0323 0.3595 0 CFG=1
M  V30 6 C 1.9964 0.3377 -2.9411 0
M  V30 7 C 1.0081 1.254 -2.8217 0
M  V30 8 C -0.5033 2.2663 -1.0866 0
M  V30 9 N -0.7684 1.1178 1.2068 0
M  V30 10 C 2.5642 -0.115 -4.2678 0
M  V30 11 C 0.3038 1.7928 -4.0172 0
M  V30 12 O -1.5205 2.6904 -1.5817 0
M  V30 13 C -0.3968 0.8397 2.5014 0
M  V30 14 O 2.0955 -1.4406 -4.5189 0
M  V30 15 O -0.1406 1.1523 -4.9513 0
M  V30 16 O 0.2553 3.1368 -3.9823 0
M  V30 17 O 0.6014 1.3112 3.0336 0
M  V30 18 C -1.2992 -0.131 3.1917 0
M  V30 19 C 2.6041 -1.9864 -5.6444 0
M  V30 20 C -0.7976 -1.4514 3.4608 0
M  V30 21 C -2.5425 0.2764 3.5298 0
M  V30 22 O 3.4286 -1.4771 -6.3852 0
M  V30 23 N 2.0719 -3.2112 -5.8436 0
M  V30 24 N -1.6834 -2.4401 3.8658 0
M  V30 25 C 0.5152 -1.8617 3.3457 0
M  V30 26 C -3.1605 1.6359 3.352 0
M  V30 27 C -1.0461 -3.5683 4.0547 0
M  V30 28 S 0.643 -3.521 3.7552 0
M  V30 29 C -3.6287 2.2037 4.6844 0
M  V30 30 N -1.651 -4.6918 4.4516 0
M  V30 31 H 2.1856 2.0871 -0.2476 0
M  V30 32 H 3.6141 0.1169 -1.5444 0
M  V30 33 H 2.8283 -1.4049 -1.9802 0
M  V30 34 H 0.2269 2.9814 0.8778 0
M  V30 35 H -1.592 0.6594 0.8299 0
M  V30 36 H 2.2848 0.543 -5.0966 0
M  V30 37 H 3.6602 -0.1102 -4.2021 0
M  V30 38 H -0.2865 3.3768 -4.762 0
M  V30 39 H -3.1944 -0.4497 4.0177 0
M  V30 40 H 2.3482 -3.7416 -6.6556 0
M  V30 41 H 1.3765 -3.568 -5.2067 0
M  V30 42 H 1.3883 -1.2931 3.0572 0
M  V30 43 H -2.4716 2.3523 2.8956 0
M  V30 44 H -4.0189 1.5429 2.6771 0
M  V30 45 H -4.0912 3.1847 4.5353 0
M  V30 46 H -4.3699 1.5505 5.1572 0
M  V30 47 H -2.7898 2.3265 5.3777 0
M  V30 48 H -1.1447 -5.5535 4.5982 0
M  V30 49 H -2.6472 -4.6903 4.6254 0
M  V30 END ATOM
M  V30 BEGIN BOND
M  V30 1 1 1 2
M  V30 2 1 1 3
M  V30 3 1 2 4
M  V30 4 1 2 5
M  V30 5 1 3 6
M  V30 6 1 4 7
M  V30 7 1 4 8
M  V30 8 1 5 9
M  V30 9 1 6 10
M  V30 10 1 7 11
M  V30 11 2 8 12
M  V30 12 1 9 13
M  V30 13 1 10 14
M  V30 14 2 11 15
M  V30 15 1 11 16
M  V30 16 2 13 17
M  V30 17 1 13 18
M  V30 18 1 14 19
M  V30 19 1 18 20
M  V30 20 2 18 21
M  V30 21 2 19 22
M  V30 22 1 19 23
M  V30 23 1 20 24
M  V30 24 2 20 25
M  V30 25 1 21 26
M  V30 26 2 24 27
M  V30 27 1 25 28
M  V30 28 1 26 29
M  V30 29 1 27 30
M  V30 30 1 5 8
M  V30 31 2 6 7
M  V30 32 1 27 28
M  V30 33 1 2 31
M  V30 34 1 3 32
M  V30 35 1 3 33
M  V30 36 1 5 34
M  V30 37 1 9 35
M  V30 38 1 10 36
M  V30 39 1 10 37
M  V30 40 1 16 38
M  V30 41 1 21 39
M  V30 42 1 23 40
M  V30 43 1 23 41
M  V30 44 1 25 42
M  V30 45 1 26 43
M  V30 46 1 26 44
M  V30 47 1 29 45
M  V30 48 1 29 46
M  V30 49 1 29 47
M  V30 50 1 30 48
M  V30 51 1 30 49
M  V30 END BOND
M  V30 BEGIN COLLECTION
M  V30 MDLV30/STEABS ATOMS=(2 2 5)
M  V30 END COLLECTION
M  V30 END CTAB
M  END
>  <NO.>
1322

>  <Name>
cefcapene

>  <SMILES>
CC/C=C(\C(=O)N[C@@H]1C(=O)N2C(C(=O)O)=C(COC(N)=O)CS[C@H]12)c1csc(N)n1

>  <logBB>


>  <Class>
-1

>  <MW>
453.08

>  <nHBAcc>
9

>  <nHBDon>
4

>  <SLogP>
0.35

>  <TopoPSA>
177.94

>  <MMFF94 Energy>
-117.6

$$$$
CC/C=C(\C)C1(CC)C(=O)NC(=O)NC1=O
Actelion Java MolfileCreator 2.0

  0  0  0  0  0  0              0 V3000
M  V30 BEGIN CTAB
M  V30 COUNTS 32 32 0 0 0
M  V30 BEGIN ATOM
M  V30 1 O 3.0572 -2.9003 0.6265 0
M  V30 2 C 2.0239 -2.241 0.5885 0
M  V30 3 N 1.0093 -2.5573 -0.2549 0
M  V30 4 N 1.8326 -1.1741 1.405 0
M  V30 5 C -0.1948 -1.9205 -0.362 0
M  V30 6 C 0.736 -0.3588 1.4454 0
M  V30 7 O -1.0673 -2.4017 -1.0866 0
M  V30 8 C -0.3744 -0.6216 0.4224 0
M  V30 9 O 0.6964 0.5557 2.2697 0
M  V30 10 C -0.3674 0.513 -0.654 0
M  V30 11 C -1.7097 -0.7052 1.2213 0
M  V30 12 C 0.7761 1.1056 -1.0738 0
M  V30 13 C -1.7173 0.8927 -1.2247 0
M  V30 14 C -1.74 -1.7967 2.2921 0
M  V30 15 C 0.9438 2.1736 -2.1223 0
M  V30 16 C 1.0517 3.5541 -1.4953 0
M  V30 17 H 1.1354 -3.3822 -0.8244 0
M  V30 18 H 2.5742 -0.9657 2.059 0
M  V30 19 H -2.5515 -0.9016 0.5455 0
M  V30 20 H -1.916 0.2563 1.7094 0
M  V30 21 H 1.7302 0.8089 -0.6406 0
M  V30 22 H -2.2112 0.0175 -1.6579 0
M  V30 23 H -1.6674 1.6472 -2.012 0
M  V30 24 H -2.3591 1.3119 -0.4433 0
M  V30 25 H -2.7196 -1.8074 2.7817 0
M  V30 26 H -0.9875 -1.6267 3.0676 0
M  V30 27 H -1.5743 -2.788 1.8601 0
M  V30 28 H 1.8617 1.9598 -2.6836 0
M  V30 29 H 0.1396 2.1599 -2.8628 0
M  V30 30 H 1.2127 4.31 -2.2707 0
M  V30 31 H 0.1362 3.815 -0.9536 0
M  V30 32 H 1.8906 3.6071 -0.793 0
M  V30 END ATOM
M  V30 BEGIN BOND
M  V30 1 2 1 2
M  V30 2 1 2 3
M  V30 3 1 2 4
M  V30 4 1 3 5
M  V30 5 1 4 6
M  V30 6 2 5 7
M  V30 7 1 5 8
M  V30 8 2 6 9
M  V30 9 1 8 10
M  V30 10 1 8 11
M  V30 11 2 10 12
M  V30 12 1 10 13
M  V30 13 1 11 14
M  V30 14 1 12 15
M  V30 15 1 15 16
M  V30 16 1 6 8
M  V30 17 1 3 17
M  V30 18 1 4 18
M  V30 19 1 11 19
M  V30 20 1 11 20
M  V30 21 1 12 21
M  V30 22 1 13 22
M  V30 23 1 13 23
M  V30 24 1 13 24
M  V30 25 1 14 25
M  V30 26 1 14 26
M  V30 27 1 14 27
M  V30 28 1 15 28
M  V30 29 1 15 29
M  V30 30 1 16 30
M  V30 31 1 16 31
M  V30 32 1 16 32
M  V30 END BOND
M  V30 END CTAB
M  END
>  <NO.>
1323

>  <Name>
vinbarbital

>  <SMILES>
CC/C=C(\C)C1(CC)C(=O)NC(=O)NC1=O

>  <logBB>


>  <Class>
1

>  <MW>
224.12

>  <nHBAcc>
3

>  <nHBDon>
2

>  <SLogP>
1.11

>  <TopoPSA>
75.27

>  <MMFF94 Energy>
-81.617

$$$$
CC1(C)CC(=O)N(CCCCN2CCN(c3ncccn3)CC2)C(=O)C1
Actelion Java MolfileCreator 2.0

  0  0  0  0  0  0              0 V3000
M  V30 BEGIN CTAB
M  V30 COUNTS 55 57 0 0 0
M  V30 BEGIN ATOM
M  V30 1 O 4.2815 -1.5841 2.8527 0
M  V30 2 C 4.268 -0.6642 2.033 0
M  V30 3 N 3.3714 0.4005 2.0946 0
M  V30 4 C 5.302 -0.6298 0.9309 0
M  V30 5 C 3.3244 1.4699 1.2033 0
M  V30 6 C 2.3998 0.3869 3.1887 0
M  V30 7 C 4.8217 0.0933 -0.326 0
M  V30 8 O 2.5339 2.4089 1.3123 0
M  V30 9 C 4.3485 1.4852 0.0909 0
M  V30 10 C 1.2009 -0.5321 2.9196 0
M  V30 11 C 5.9985 0.2344 -1.3083 0
M  V30 12 C 3.7008 -0.6937 -1.0293 0
M  V30 13 C 0.3107 -0.0421 1.7732 0
M  V30 14 C -0.9179 -0.9457 1.6033 0
M  V30 15 N -1.6989 -0.624 0.3981 0
M  V30 16 C -2.3757 0.69 0.5035 0
M  V30 17 C -2.7377 -1.6595 0.1805 0
M  V30 18 C -3.2444 1.0363 -0.728 0
M  V30 19 C -3.61 -1.4037 -1.0677 0
M  V30 20 N -4.1623 -0.0514 -1.0596 0
M  V30 21 C -5.1927 0.2251 -1.9373 0
M  V30 22 N -5.5107 1.5086 -2.1843 0
M  V30 23 N -5.8547 -0.7978 -2.5074 0
M  V30 24 C -6.5266 1.7553 -3.0326 0
M  V30 25 C -6.8639 -0.5054 -3.3493 0
M  V30 26 C -7.2498 0.7726 -3.6542 0
M  V30 27 H 5.5797 -1.6637 0.6913 0
M  V30 28 H 6.192 -0.1403 1.3468 0
M  V30 29 H 2.9078 0.0387 4.0965 0
M  V30 30 H 2.0463 1.4024 3.4005 0
M  V30 31 H 3.9107 2.0095 -0.7674 0
M  V30 32 H 5.1913 2.0912 0.448 0
M  V30 33 H 0.6012 -0.5895 3.8365 0
M  V30 34 H 1.548 -1.5491 2.7027 0
M  V30 35 H 6.83 0.7887 -0.8584 0
M  V30 36 H 6.3801 -0.7469 -1.6116 0
M  V30 37 H 5.6944 0.7703 -2.2146 0
M  V30 38 H 3.3548 -0.1665 -1.9256 0
M  V30 39 H 4.0544 -1.6827 -1.3423 0
M  V30 40 H 2.831 -0.8488 -0.3844 0
M  V30 41 H 8.0E-4 0.9874 1.983 0
M  V30 42 H 0.8815 -0.0307 0.8383 0
M  V30 43 H -0.558 -1.9796 1.5203 0
M  V30 44 H -1.5446 -0.8981 2.5034 0
M  V30 45 H -3.0103 0.7131 1.4 0
M  V30 46 H -1.6355 1.4904 0.6081 0
M  V30 47 H -2.2591 -2.639 0.0597 0
M  V30 48 H -3.392 -1.7241 1.0609 0
M  V30 49 H -2.5926 1.2391 -1.5875 0
M  V30 50 H -3.785 1.9608 -0.4904 0
M  V30 51 H -4.4018 -2.1629 -1.0681 0
M  V30 52 H -3.0052 -1.5476 -1.9722 0
M  V30 53 H -6.7443 2.806 -3.1979 0
M  V30 54 H -7.3667 -1.3645 -3.7823 0
M  V30 55 H -8.0625 0.9888 -4.3314 0
M  V30 END ATOM
M  V30 BEGIN BOND
M  V30 1 2 1 2
M  V30 2 1 2 3
M  V30 3 1 2 4
M  V30 4 1 3 5
M  V30 5 1 3 6
M  V30 6 1 4 7
M  V30 7 2 5 8
M  V30 8 1 5 9
M  V30 9 1 6 10
M  V30 10 1 7 11
M  V30 11 1 7 12
M  V30 12 1 10 13
M  V30 13 1 13 14
M  V30 14 1 14 15
M  V30 15 1 15 16
M  V30 16 1 15 17
M  V30 17 1 16 18
M  V30 18 1 17 19
M  V30 19 1 18 20
M  V30 20 1 20 21
M  V30 21 2 21 22
M  V30 22 1 21 23
M  V30 23 1 22 24
M  V30 24 2 23 25
M  V30 25 2 24 26
M  V30 26 1 7 9
M  V30 27 1 19 20
M  V30 28 1 25 26
M  V30 29 1 4 27
M  V30 30 1 4 28
M  V30 31 1 6 29
M  V30 32 1 6 30
M  V30 33 1 9 31
M  V30 34 1 9 32
M  V30 35 1 10 33
M  V30 36 1 10 34
M  V30 37 1 11 35
M  V30 38 1 11 36
M  V30 39 1 11 37
M  V30 40 1 12 38
M  V30 41 1 12 39
M  V30 42 1 12 40
M  V30 43 1 13 41
M  V30 44 1 13 42
M  V30 45 1 14 43
M  V30 46 1 14 44
M  V30 47 1 16 45
M  V30 48 1 16 46
M  V30 49 1 17 47
M  V30 50 1 17 48
M  V30 51 1 18 49
M  V30 52 1 18 50
M  V30 53 1 19 51
M  V30 54 1 19 52
M  V30 55 1 24 53
M  V30 56 1 25 54
M  V30 57 1 26 55
M  V30 END BOND
M  V30 END CTAB
M  END
>  <NO.>
1324

>  <Name>
gepirone

>  <SMILES>
CC1(C)CC(=O)N(CCCCN2CCN(c3ncccn3)CC2)C(=O)C1

>  <logBB>


>  <Class>
1

>  <MW>
359.23

>  <nHBAcc>
6

>  <nHBDon>
0

>  <SLogP>
1.55

>  <TopoPSA>
69.64

>  <MMFF94 Energy>
-28.048

$$$$
CC1(C)CCN(C(=O)Cc2ccc(Cl)c(Cl)c2)[C@@H](CN2CCCC2)C1
Actelion Java MolfileCreator 2.0

  0  0  0  0  0  0              0 V3000
M  V30 BEGIN CTAB
M  V30 COUNTS 53 55 0 0 0
M  V30 BEGIN ATOM
M  V30 1 Cl -4.7613 4.5188 0.0 0
M  V30 2 C -4.503 2.8743 -0.463 0
M  V30 3 C -5.4538 1.8749 -0.237 0
M  V30 4 C -3.2914 2.5547 -1.0875 0
M  V30 5 Cl -6.9702 2.1901 0.5288 0
M  V30 6 C -5.191 0.5639 -0.6425 0
M  V30 7 C -3.0097 1.2356 -1.4788 0
M  V30 8 C -3.9806 0.2475 -1.2646 0
M  V30 9 C -1.7108 0.8847 -2.1738 0
M  V30 10 C -0.4777 1.5186 -1.5414 0
M  V30 11 O -0.0214 2.5509 -2.0436 0
M  V30 12 N 0.0803 0.9374 -0.406 0
M  V30 13 C -0.3149 -0.3678 0.1597 0 CFG=2
M  V30 14 C 1.2308 1.605 0.2074 0
M  V30 15 C -0.2604 -0.3972 1.7058 0
M  V30 16 C 0.3214 -1.6188 -0.5304 0
M  V30 17 C 1.0827 1.7248 1.7191 0
M  V30 18 C 0.8908 0.3597 2.4013 0
M  V30 19 N 1.7749 -1.6238 -0.7043 0
M  V30 20 C 0.5053 0.5916 3.8789 0
M  V30 21 C 2.1978 -0.4502 2.4013 0
M  V30 22 C 2.2071 -1.0844 -1.9998 0
M  V30 23 C 2.3375 -2.9774 -0.6799 0
M  V30 24 C 3.6656 -1.5105 -2.0676 0
M  V30 25 C 3.7418 -2.7827 -1.2317 0
M  V30 26 H -2.5626 3.3444 -1.2701 0
M  V30 27 H -5.9293 -0.2179 -0.4798 0
M  V30 28 H -3.8041 -0.7791 -1.5802 0
M  V30 29 H -1.5774 -0.1978 -2.2435 0
M  V30 30 H -1.7763 1.2391 -3.2108 0
M  V30 31 H -1.3818 -0.4877 -0.0561 0
M  V30 32 H 2.1363 1.0532 -0.0542 0
M  V30 33 H 1.3591 2.6117 -0.2043 0
M  V30 34 H -1.1988 0.0713 2.0412 0
M  V30 35 H -0.3161 -1.4305 2.0712 0
M  V30 36 H -0.166 -1.7804 -1.5002 0
M  V30 37 H 0.0259 -2.4875 0.0744 0
M  V30 38 H 1.9606 2.2371 2.1318 0
M  V30 39 H 0.2166 2.3663 1.9319 0
M  V30 40 H 1.2898 1.1407 4.4121 0
M  V30 41 H -0.419 1.1742 3.9651 0
M  V30 42 H 0.3482 -0.3599 4.3994 0
M  V30 43 H 2.0371 -1.4592 2.7972 0
M  V30 44 H 2.9556 0.0324 3.0298 0
M  V30 45 H 2.638 -0.5467 1.4098 0
M  V30 46 H 2.1107 5.0E-4 -2.0779 0
M  V30 47 H 1.6539 -1.5382 -2.8325 0
M  V30 48 H 2.3591 -3.395 0.3317 0
M  V30 49 H 1.7736 -3.6602 -1.3287 0
M  V30 50 H 4.3142 -0.7414 -1.6314 0
M  V30 51 H 3.9903 -1.6799 -3.099 0
M  V30 52 H 4.4674 -2.6521 -0.4205 0
M  V30 53 H 4.0576 -3.6426 -1.831 0
M  V30 END ATOM
M  V30 BEGIN BOND
M  V30 1 1 1 2
M  V30 2 2 2 3
M  V30 3 1 2 4
M  V30 4 1 3 5
M  V30 5 1 3 6
M  V30 6 2 4 7
M  V30 7 2 6 8
M  V30 8 1 7 9
M  V30 9 1 9 10
M  V30 10 2 10 11
M  V30 11 1 10 12
M  V30 12 1 12 13
M  V30 13 1 12 14
M  V30 14 1 13 15
M  V30 15 1 13 16
M  V30 16 1 14 17
M  V30 17 1 15 18
M  V30 18 1 16 19
M  V30 19 1 18 20
M  V30 20 1 18 21
M  V30 21 1 19 22
M  V30 22 1 19 23
M  V30 23 1 22 24
M  V30 24 1 23 25
M  V30 25 1 7 8
M  V30 26 1 17 18
M  V30 27 1 24 25
M  V30 28 1 4 26
M  V30 29 1 6 27
M  V30 30 1 8 28
M  V30 31 1 9 29
M  V30 32 1 9 30
M  V30 33 1 13 31
M  V30 34 1 14 32
M  V30 35 1 14 33
M  V30 36 1 15 34
M  V30 37 1 15 35
M  V30 38 1 16 36
M  V30 39 1 16 37
M  V30 40 1 17 38
M  V30 41 1 17 39
M  V30 42 1 20 40
M  V30 43 1 20 41
M  V30 44 1 20 42
M  V30 45 1 21 43
M  V30 46 1 21 44
M  V30 47 1 21 45
M  V30 48 1 22 46
M  V30 49 1 22 47
M  V30 50 1 23 48
M  V30 51 1 23 49
M  V30 52 1 24 50
M  V30 53 1 24 51
M  V30 54 1 25 52
M  V30 55 1 25 53
M  V30 END BOND
M  V30 BEGIN COLLECTION
M  V30 MDLV30/STEABS ATOMS=(1 13)
M  V30 END COLLECTION
M  V30 END CTAB
M  END
>  <NO.>
1325

>  <Name>
brl-53087

>  <SMILES>
CC1(C)CCN(C(=O)Cc2ccc(Cl)c(Cl)c2)[C@@H](CN2CCCC2)C1

>  <logBB>


>  <Class>
1

>  <MW>
382.16

>  <nHBAcc>
2

>  <nHBDon>
0

>  <SLogP>
4.65

>  <TopoPSA>
23.55

>  <MMFF94 Energy>
84.275

$$$$
CC1(C)CN(CCN2CCN(c3cccc(Cl)c3)C2=O)C1
Actelion Java MolfileCreator 2.0

  0  0  0  0  0  0              0 V3000
M  V30 BEGIN CTAB
M  V30 COUNTS 43 45 0 0 0
M  V30 BEGIN ATOM
M  V30 1 Cl -0.5602 -5.5333 -0.8004 0
M  V30 2 C -1.3933 -4.2682 -1.6196 0
M  V30 3 C -1.3239 -2.9619 -1.1331 0
M  V30 4 C -2.1242 -4.5602 -2.7684 0
M  V30 5 C -1.9924 -1.9244 -1.794 0
M  V30 6 C -2.7897 -3.5362 -3.4373 0
M  V30 7 N -1.9133 -0.5962 -1.3219 0
M  V30 8 C -2.7212 -2.2259 -2.954 0
M  V30 9 C -1.7366 -0.2029 0.0207 0
M  V30 10 C -2.0686 0.5621 -2.1719 0
M  V30 11 O -1.6789 -0.9166 1.0105 0
M  V30 12 N -1.654 1.1932 0.0332 0
M  V30 13 C -1.6319 1.7323 -1.3027 0
M  V30 14 C -1.354 1.9779 1.2189 0
M  V30 15 C 0.0639 2.5883 1.2395 0
M  V30 16 N 1.1286 1.6327 0.9066 0
M  V30 17 C 2.4658 2.2216 1.1502 0
M  V30 18 C 1.3566 0.6736 2.0154 0
M  V30 19 C 2.8844 0.8788 1.8131 0
M  V30 20 C 3.6789 1.0311 3.1047 0
M  V30 21 C 3.5389 -0.1241 0.8621 0
M  V30 22 H -0.735 -2.7622 -0.2418 0
M  V30 23 H -2.1776 -5.5783 -3.1438 0
M  V30 24 H -3.365 -3.7561 -4.3331 0
M  V30 25 H -3.2615 -1.4529 -3.4926 0
M  V30 26 H -1.4613 0.4776 -3.0785 0
M  V30 27 H -3.1262 0.6619 -2.4406 0
M  V30 28 H -0.6093 2.0384 -1.5449 0
M  V30 29 H -2.3029 2.5918 -1.385 0
M  V30 30 H -1.4905 1.3451 2.103 0
M  V30 31 H -2.0968 2.7817 1.274 0
M  V30 32 H 0.0964 3.3924 0.4932 0
M  V30 33 H 0.221 3.0664 2.2157 0
M  V30 34 H 3.0112 2.4907 0.2398 0
M  V30 35 H 2.4881 3.0862 1.8267 0
M  V30 36 H 0.9888 -0.3388 1.8213 0
M  V30 37 H 0.9852 0.9891 2.9993 0
M  V30 38 H 3.2094 1.7492 3.7861 0
M  V30 39 H 4.6945 1.3855 2.8986 0
M  V30 40 H 3.7534 0.0741 3.6322 0
M  V30 41 H 4.5507 0.1985 0.5944 0
M  V30 42 H 3.6107 -1.112 1.3297 0
M  V30 43 H 2.9709 -0.2387 -0.0675 0
M  V30 END ATOM
M  V30 BEGIN BOND
M  V30 1 1 1 2
M  V30 2 2 2 3
M  V30 3 1 2 4
M  V30 4 1 3 5
M  V30 5 2 4 6
M  V30 6 1 5 7
M  V30 7 2 5 8
M  V30 8 1 7 9
M  V30 9 1 7 10
M  V30 10 2 9 11
M  V30 11 1 9 12
M  V30 12 1 10 13
M  V30 13 1 12 14
M  V30 14 1 14 15
M  V30 15 1 15 16
M  V30 16 1 16 17
M  V30 17 1 16 18
M  V30 18 1 17 19
M  V30 19 1 19 20
M  V30 20 1 19 21
M  V30 21 1 6 8
M  V30 22 1 12 13
M  V30 23 1 18 19
M  V30 24 1 3 22
M  V30 25 1 4 23
M  V30 26 1 6 24
M  V30 27 1 8 25
M  V30 28 1 10 26
M  V30 29 1 10 27
M  V30 30 1 13 28
M  V30 31 1 13 29
M  V30 32 1 14 30
M  V30 33 1 14 31
M  V30 34 1 15 32
M  V30 35 1 15 33
M  V30 36 1 17 34
M  V30 37 1 17 35
M  V30 38 1 18 36
M  V30 39 1 18 37
M  V30 40 1 20 38
M  V30 41 1 20 39
M  V30 42 1 20 40
M  V30 43 1 21 41
M  V30 44 1 21 42
M  V30 45 1 21 43
M  V30 END BOND
M  V30 END CTAB
M  END
>  <NO.>
1326

>  <Name>
zetidoline

>  <SMILES>
CC1(C)CN(CCN2CCN(c3cccc(Cl)c3)C2=O)C1

>  <logBB>


>  <Class>
1

>  <MW>
307.15

>  <nHBAcc>
2

>  <nHBDon>
0

>  <SLogP>
2.92

>  <TopoPSA>
26.79

>  <MMFF94 Energy>
17.824

$$$$
CC1(C)NC(=O)C(/C=C/c2ccccc2)O1
Actelion Java MolfileCreator 2.0

  0  0  0  0  0  0              0 V3000
M  V30 BEGIN CTAB
M  V30 COUNTS 31 32 0 0 0
M  V30 BEGIN ATOM
M  V30 1 O -3.2431 -0.474 0.395 0
M  V30 2 C -2.408 0.2306 0.9368 0
M  V30 3 N -2.103 0.1951 2.2709 0
M  V30 4 C -1.504 1.2775 0.3008 0 CFG=1
M  V30 5 C -1.0324 1.0732 2.5889 0
M  V30 6 O -0.839 1.8913 1.4277 0
M  V30 7 C -0.4488 0.7958 -0.6501 0
M  V30 8 C 0.255 0.3021 2.8706 0
M  V30 9 C -1.3904 1.9847 3.7567 0
M  V30 10 C -0.3349 -0.4375 -1.1712 0
M  V30 11 C 0.7271 -0.8382 -2.1048 0
M  V30 12 C 2.0503 -0.3985 -1.9671 0
M  V30 13 C 0.4186 -1.7366 -3.1344 0
M  V30 14 C 3.0381 -0.8275 -2.8575 0
M  V30 15 C 1.4061 -2.165 -4.025 0
M  V30 16 C 2.715 -1.7082 -3.8875 0
M  V30 17 H -2.554 -0.4502 2.9037 0
M  V30 18 H -2.1235 2.0441 -0.1749 0
M  V30 19 H 0.2674 1.564 -0.9337 0
M  V30 20 H 0.5318 -0.3361 2.0241 0
M  V30 21 H 0.1518 -0.3394 3.7524 0
M  V30 22 H 1.0937 0.9884 3.0323 0
M  V30 23 H -2.2891 2.5715 3.5324 0
M  V30 24 H -0.5878 2.7044 3.9534 0
M  V30 25 H -1.5803 1.4124 4.6709 0
M  V30 26 H -1.0621 -1.2125 -0.9364 0
M  V30 27 H 2.3292 0.2739 -1.1597 0
M  V30 28 H -0.5978 -2.1044 -3.2573 0
M  V30 29 H 4.0603 -0.4769 -2.7425 0
M  V30 30 H 1.1517 -2.856 -4.8244 0
M  V30 31 H 3.4835 -2.0421 -4.5796 0
M  V30 END ATOM
M  V30 BEGIN BOND
M  V30 1 2 1 2
M  V30 2 1 2 3
M  V30 3 1 2 4
M  V30 4 1 3 5
M  V30 5 1 4 6
M  V30 6 1 4 7
M  V30 7 1 5 8
M  V30 8 1 5 9
M  V30 9 2 7 10
M  V30 10 1 10 11
M  V30 11 2 11 12
M  V30 12 1 11 13
M  V30 13 1 12 14
M  V30 14 2 13 15
M  V30 15 2 14 16
M  V30 16 1 5 6
M  V30 17 1 15 16
M  V30 18 1 3 17
M  V30 19 1 4 18
M  V30 20 1 7 19
M  V30 21 1 8 20
M  V30 22 1 8 21
M  V30 23 1 8 22
M  V30 24 1 9 23
M  V30 25 1 9 24
M  V30 26 1 9 25
M  V30 27 1 10 26
M  V30 28 1 12 27
M  V30 29 1 13 28
M  V30 30 1 14 29
M  V30 31 1 15 30
M  V30 32 1 16 31
M  V30 END BOND
M  V30 BEGIN COLLECTION
M  V30 MDLV30/STERAC1 ATOMS=(1 4)
M  V30 END COLLECTION
M  V30 END CTAB
M  END
>  <NO.>
1327

>  <Name>
methastyridone

>  <SMILES>
CC1(C)NC(=O)C(/C=C/c2ccccc2)O1

>  <logBB>


>  <Class>
1

>  <MW>
217.11

>  <nHBAcc>
2

>  <nHBDon>
1

>  <SLogP>
1.95

>  <TopoPSA>
38.33

>  <MMFF94 Energy>
23.14

$$$$
CC1(C)OC(=O)NC1=O
Actelion Java MolfileCreator 2.0

  0  0  0  0  0  0              0 V3000
M  V30 BEGIN CTAB
M  V30 COUNTS 16 16 0 0 0
M  V30 BEGIN ATOM
M  V30 1 O -1.6464 2.1172 -1.8033 0
M  V30 2 C -0.9168 1.3143 -1.2483 0
M  V30 3 O -1.1091 0.8512 0.0181 0
M  V30 4 N 0.1808 0.7616 -1.7857 0
M  V30 5 C -0.0597 -0.0779 0.3434 0
M  V30 6 C 0.7695 -0.0865 -0.9187 0
M  V30 7 C 0.7368 0.4565 1.5233 0
M  V30 8 C -0.6659 -1.4458 0.6148 0
M  V30 9 O 1.782 -0.732 -1.1303 0
M  V30 10 H 0.5114 0.9609 -2.7135 0
M  V30 11 H 1.1562 1.4443 1.2993 0
M  V30 12 H 0.0951 0.58 2.4027 0
M  V30 13 H 1.5655 -0.2097 1.784 0
M  V30 14 H 0.1052 -2.1902 0.8382 0
M  V30 15 H -1.366 -1.4016 1.4563 0
M  V30 16 H -1.2369 -1.8013 -0.2507 0
M  V30 END ATOM
M  V30 BEGIN BOND
M  V30 1 2 1 2
M  V30 2 1 2 3
M  V30 3 1 2 4
M  V30 4 1 3 5
M  V30 5 1 4 6
M  V30 6 1 5 7
M  V30 7 1 5 8
M  V30 8 2 6 9
M  V30 9 1 5 6
M  V30 10 1 4 10
M  V30 11 1 7 11
M  V30 12 1 7 12
M  V30 13 1 7 13
M  V30 14 1 8 14
M  V30 15 1 8 15
M  V30 16 1 8 16
M  V30 END BOND
M  V30 END CTAB
M  END
>  <NO.>
1328

>  <Name>
dimethadione

>  <SMILES>
CC1(C)OC(=O)NC1=O

>  <logBB>


>  <Class>
1

>  <MW>
129.04

>  <nHBAcc>
3

>  <nHBDon>
1

>  <SLogP>
0.03

>  <TopoPSA>
55.4

>  <MMFF94 Energy>
-54.767

$$$$
CC1(C)OC(=O)Nc2ccc(Br)cc21
Actelion Java MolfileCreator 2.0

  0  0  0  0  0  0              0 V3000
M  V30 BEGIN CTAB
M  V30 COUNTS 24 25 0 0 0
M  V30 BEGIN ATOM
M  V30 1 Br -1.5437 -3.9849 1.3811 0
M  V30 2 C -1.3809 -2.1272 1.0703 0
M  V30 3 C -0.2365 -1.6282 0.4445 0
M  V30 4 C -2.4071 -1.2698 1.4595 0
M  V30 5 C -0.1014 -0.2497 0.2105 0
M  V30 6 C -2.2879 0.0983 1.2186 0
M  V30 7 C -1.1389 0.594 0.5993 0
M  V30 8 C 1.0834 0.3577 -0.5077 0
M  V30 9 N -1.0229 1.9541 0.3542 0
M  V30 10 O 1.1991 1.7871 -0.2963 0
M  V30 11 C 0.951 0.137 -2.0212 0
M  V30 12 C 2.4201 -0.2166 -0.0157 0
M  V30 13 C 0.1183 2.5711 -0.0673 0
M  V30 14 O 0.1662 3.7901 -0.1914 0
M  V30 15 H 0.5408 -2.32 0.1305 0
M  V30 16 H -3.3001 -1.6554 1.9446 0
M  V30 17 H -3.092 0.7642 1.5205 0
M  V30 18 H -1.7908 2.5805 0.5532 0
M  V30 19 H 0.0317 0.593 -2.4081 0
M  V30 20 H 0.9349 -0.9271 -2.2804 0
M  V30 21 H 1.7807 0.611 -2.5584 0
M  V30 22 H 2.5255 -0.0829 1.0677 0
M  V30 23 H 2.531 -1.282 -0.241 0
M  V30 24 H 3.2634 0.3122 -0.476 0
M  V30 END ATOM
M  V30 BEGIN BOND
M  V30 1 1 1 2
M  V30 2 2 2 3
M  V30 3 1 2 4
M  V30 4 1 3 5
M  V30 5 2 4 6
M  V30 6 2 5 7
M  V30 7 1 5 8
M  V30 8 1 7 9
M  V30 9 1 8 10
M  V30 10 1 8 11
M  V30 11 1 8 12
M  V30 12 1 9 13
M  V30 13 2 13 14
M  V30 14 1 6 7
M  V30 15 1 10 13
M  V30 16 1 3 15
M  V30 17 1 4 16
M  V30 18 1 6 17
M  V30 19 1 9 18
M  V30 20 1 11 19
M  V30 21 1 11 20
M  V30 22 1 11 21
M  V30 23 1 12 22
M  V30 24 1 12 23
M  V30 25 1 12 24
M  V30 END BOND
M  V30 END CTAB
M  END
>  <NO.>
1329

>  <Name>
brofoxine

>  <SMILES>
CC1(C)OC(=O)Nc2ccc(Br)cc21

>  <logBB>


>  <Class>
1

>  <MW>
254.99

>  <nHBAcc>
2

>  <nHBDon>
1

>  <SLogP>
3.25

>  <TopoPSA>
38.33

>  <MMFF94 Energy>
-32.849

$$$$
CC1(C)O[C@@H]2CC3C4C[C@H](F)C5=CC(=O)C=CC5(C)[C@@]4(Cl)C(Cl)CC3(C)[C@]2(C(=O)CO)O1
Actelion Java MolfileCreator 2.0

  0  0  0  0  0  0              0 V3000
M  V30 BEGIN CTAB
M  V30 COUNTS 61 65 0 0 0
M  V30 BEGIN ATOM
M  V30 1 Cl -0.7429 -1.9819 -1.734 0
M  V30 2 C 0.629 -0.7698 -1.6642 0 CFG=2
M  V30 3 C 1.363 -0.804 -3.1103 0
M  V30 4 C 1.5274 -1.1096 -0.4199 0
M  V30 5 C 0.0322 0.6832 -1.4315 0
M  V30 6 C 0.3815 -0.2587 -4.1791 0
M  V30 7 C 1.8691 -2.1888 -3.5258 0
M  V30 8 C 2.6388 0.078 -3.1362 0
M  V30 9 Cl 2.152 -2.7962 -0.3572 0
M  V30 10 C 0.8222 -0.8626 0.9314 0
M  V30 11 C -0.5639 1.0102 -0.0395 0
M  V30 12 C -0.9137 1.1316 -2.5565 0
M  V30 13 C 0.0109 -0.9474 -5.2753 0
M  V30 14 C -0.2213 1.0963 -3.9114 0 CFG=2
M  V30 15 C 1.4933 -2.8646 -4.62 0
M  V30 16 C 0.332 0.5899 1.1426 0
M  V30 17 C -1.9536 0.4462 0.2956 0
M  V30 18 C 0.5243 -2.2968 -5.5713 0
M  V30 19 F -1.1469 1.4317 -4.8546 0
M  V30 20 C -0.6402 0.731 2.3648 0 CFG=1
M  V30 21 C 1.5663 1.5089 1.2764 0
M  V30 22 C -2.0342 0.4182 1.8214 0 CFG=2
M  V30 23 O 0.1781 -2.9094 -6.5723 0
M  V30 24 O -0.3882 -0.2404 3.3817 0
M  V30 25 C -0.661 2.1415 2.9819 0
M  V30 26 O -2.3365 -0.8931 2.2964 0
M  V30 27 C -1.5683 -1.048 3.4878 0
M  V30 28 O -1.2404 3.0892 2.4399 0
M  V30 29 C 0.0865 2.3468 4.295 0
M  V30 30 C -1.1708 -2.5085 3.651 0
M  V30 31 C -2.3877 -0.5864 4.694 0
M  V30 32 O 0.2886 3.7276 4.5637 0
M  V30 33 H 2.4294 -0.495 -0.456 0
M  V30 34 H 0.8913 1.3644 -1.4925 0
M  V30 35 H 2.6348 -2.6593 -2.9164 0
M  V30 36 H 3.0788 0.1065 -4.1421 0
M  V30 37 H 2.4545 1.1169 -2.8513 0
M  V30 38 H 3.414 -0.3085 -2.4647 0
M  V30 39 H -0.0214 -1.5557 1.0118 0
M  V30 40 H 1.5061 -1.1242 1.7509 0
M  V30 41 H -0.6711 2.1057 -0.0051 0
M  V30 42 H -1.2591 2.1573 -2.3742 0
M  V30 43 H -1.8237 0.5207 -2.5852 0
M  V30 44 H -0.6977 -0.5578 -5.9994 0
M  V30 45 H 0.5579 1.8638 -3.9599 0
M  V30 46 H 1.8946 -3.8401 -4.8678 0
M  V30 47 H -2.7282 1.1036 -0.1161 0
M  V30 48 H -2.1396 -0.5471 -0.1068 0
M  V30 49 H 2.1566 1.2408 2.1593 0
M  V30 50 H 2.2304 1.4492 0.41 0
M  V30 51 H 1.2869 2.564 1.3631 0
M  V30 52 H -2.8196 1.0936 2.1796 0
M  V30 53 H -0.4988 1.9159 5.1112 0
M  V30 54 H 1.0668 1.868 4.2486 0
M  V30 55 H -0.5894 -2.8554 2.7911 0
M  V30 56 H -0.547 -2.6535 4.5392 0
M  V30 57 H -2.0525 -3.1543 3.7211 0
M  V30 58 H -3.3091 -1.1702 4.7917 0
M  V30 59 H -1.8085 -0.6701 5.6197 0
M  V30 60 H -2.6839 0.4636 4.5965 0
M  V30 61 H -0.4769 4.2002 4.1801 0
M  V30 END ATOM
M  V30 BEGIN BOND
M  V30 1 1 1 2
M  V30 2 1 2 3
M  V30 3 1 2 4
M  V30 4 1 2 5
M  V30 5 1 3 6
M  V30 6 1 3 7
M  V30 7 1 3 8
M  V30 8 1 4 9
M  V30 9 1 4 10
M  V30 10 1 5 11
M  V30 11 1 5 12
M  V30 12 2 6 13
M  V30 13 1 6 14
M  V30 14 2 7 15
M  V30 15 1 10 16
M  V30 16 1 11 17
M  V30 17 1 13 18
M  V30 18 1 14 19
M  V30 19 1 16 20
M  V30 20 1 16 21
M  V30 21 1 17 22
M  V30 22 2 18 23
M  V30 23 1 20 24
M  V30 24 1 20 25
M  V30 25 1 22 26
M  V30 26 1 24 27
M  V30 27 2 25 28
M  V30 28 1 25 29
M  V30 29 1 27 30
M  V30 30 1 27 31
M  V30 31 1 29 32
M  V30 32 1 11 16
M  V30 33 1 12 14
M  V30 34 1 15 18
M  V30 35 1 20 22
M  V30 36 1 26 27
M  V30 37 1 4 33
M  V30 38 1 5 34
M  V30 39 1 7 35
M  V30 40 1 8 36
M  V30 41 1 8 37
M  V30 42 1 8 38
M  V30 43 1 10 39
M  V30 44 1 10 40
M  V30 45 1 11 41
M  V30 46 1 12 42
M  V30 47 1 12 43
M  V30 48 1 13 44
M  V30 49 1 14 45
M  V30 50 1 15 46
M  V30 51 1 17 47
M  V30 52 1 17 48
M  V30 53 1 21 49
M  V30 54 1 21 50
M  V30 55 1 21 51
M  V30 56 1 22 52
M  V30 57 1 29 53
M  V30 58 1 29 54
M  V30 59 1 30 55
M  V30 60 1 30 56
M  V30 61 1 30 57
M  V30 62 1 31 58
M  V30 63 1 31 59
M  V30 64 1 31 60
M  V30 65 1 32 61
M  V30 END BOND
M  V30 BEGIN COLLECTION
M  V30 MDLV30/STEABS ATOMS=(4 2 14 20 22)
M  V30 END COLLECTION
M  V30 END CTAB
M  END
>  <NO.>
1330

>  <Name>
schembl25227

>  <SMILES>
CC1(C)O[C@@H]2CC3C4C[C@H](F)C5=CC(=O)C=CC5(C)[C@@]4(Cl)C(Cl)CC3(C)[C@]2(C(=O)CO)O1

>  <logBB>


>  <Class>
1

>  <MW>
486.14

>  <nHBAcc>
5

>  <nHBDon>
1

>  <SLogP>
3.88

>  <TopoPSA>
72.83

>  <MMFF94 Energy>
160.81

$$$$
CC1(C)O[C@@H]2CC3C4C[C@H](F)C5=CC(=O)C=CC5(C)[C@@]4(Cl)[C@@H](Cl)CC3(C)[C@]2(C(=O)CF)O1
Actelion Java MolfileCreator 2.0

  0  0  0  0  0  0              0 V3000
M  V30 BEGIN CTAB
M  V30 COUNTS 60 64 0 0 0
M  V30 BEGIN ATOM
M  V30 1 Cl -0.8285 3.8985 -0.8285 0
M  V30 2 C 0.0487 2.2572 -0.7476 0 CFG=2
M  V30 3 C 1.6387 2.5893 -0.8978 0
M  V30 4 C -0.6537 1.3506 -1.8446 0 CFG=1
M  V30 5 C -0.3472 1.676 0.6907 0
M  V30 6 C 2.1702 3.2094 0.4188 0
M  V30 7 C 1.9641 3.538 -2.0684 0
M  V30 8 C 2.5102 1.3506 -1.2073 0
M  V30 9 Cl -0.294 1.7337 -3.5551 0
M  V30 10 C -0.5099 -0.1777 -1.658 0
M  V30 11 C -0.1458 0.151 0.7746 0
M  V30 12 C 0.3477 2.4031 1.8525 0
M  V30 13 C 2.8331 4.3799 0.492 0
M  V30 14 C 1.8531 2.4667 1.6871 0 CFG=2
M  V30 15 C 2.6199 4.7037 -1.9828 0
M  V30 16 C -0.9656 -0.6423 -0.2637 0
M  V30 17 C -0.4639 -0.5701 2.0861 0
M  V30 18 C 3.1154 5.206 -0.6935 0
M  V30 19 F 2.3574 3.1036 2.7829 0
M  V30 20 C -0.6165 -2.1151 0.1466 0 CFG=1
M  V30 21 C -2.5004 -0.4162 -0.1431 0
M  V30 22 C -0.4898 -2.0528 1.6828 0 CFG=2
M  V30 23 O 3.7361 6.2573 -0.6113 0
M  V30 24 O -1.67 -3.0452 -0.1051 0
M  V30 25 C 0.6982 -2.6351 -0.4633 0
M  V30 26 O -1.6495 -2.7021 2.1961 0
M  V30 27 C -2.0757 -3.5838 1.159 0
M  V30 28 O 1.7975 -2.33 0.0099 0
M  V30 29 C 0.5967 -3.5279 -1.6782 0
M  V30 30 C -3.5927 -3.7075 1.1916 0
M  V30 31 C -1.4282 -4.9558 1.3522 0
M  V30 32 F -0.1503 -2.9672 -2.6675 0
M  V30 33 H -1.7259 1.5652 -1.7926 0
M  V30 34 H -1.4194 1.8577 0.8451 0
M  V30 35 H 1.6908 3.2368 -3.0731 0
M  V30 36 H 3.5717 1.6255 -1.2845 0
M  V30 37 H 2.2454 0.8905 -2.1643 0
M  V30 38 H 2.4655 0.5785 -0.441 0
M  V30 39 H 0.5286 -0.4653 -1.8419 0
M  V30 40 H -1.1074 -0.6979 -2.4182 0
M  V30 41 H 0.9137 -0.0396 0.6001 0
M  V30 42 H 0.1051 1.9376 2.8144 0
M  V30 43 H -0.0483 3.4238 1.9418 0
M  V30 44 H 3.1797 4.7989 1.4317 0
M  V30 45 H 2.3033 1.4707 1.6792 0
M  V30 46 H 2.8322 5.3162 -2.8511 0
M  V30 47 H 0.3157 -0.3943 2.835 0
M  V30 48 H -1.4154 -0.2443 2.5202 0
M  V30 49 H -2.8902 -0.7081 0.8353 0
M  V30 50 H -3.0359 -1.0015 -0.8997 0
M  V30 51 H -2.7993 0.6249 -0.2818 0
M  V30 52 H 0.3922 -2.5721 2.074 0
M  V30 53 H 0.1524 -4.487 -1.4005 0
M  V30 54 H 1.5975 -3.7074 -2.0807 0
M  V30 55 H -3.9566 -4.3512 0.384 0
M  V30 56 H -3.9386 -4.1041 2.1521 0
M  V30 57 H -4.0668 -2.7293 1.0607 0
M  V30 58 H -0.3352 -4.8864 1.3301 0
M  V30 59 H -1.7016 -5.3882 2.3206 0
M  V30 60 H -1.7208 -5.646 0.554 0
M  V30 END ATOM
M  V30 BEGIN BOND
M  V30 1 1 1 2
M  V30 2 1 2 3
M  V30 3 1 2 4
M  V30 4 1 2 5
M  V30 5 1 3 6
M  V30 6 1 3 7
M  V30 7 1 3 8
M  V30 8 1 4 9
M  V30 9 1 4 10
M  V30 10 1 5 11
M  V30 11 1 5 12
M  V30 12 2 6 13
M  V30 13 1 6 14
M  V30 14 2 7 15
M  V30 15 1 10 16
M  V30 16 1 11 17
M  V30 17 1 13 18
M  V30 18 1 14 19
M  V30 19 1 16 20
M  V30 20 1 16 21
M  V30 21 1 17 22
M  V30 22 2 18 23
M  V30 23 1 20 24
M  V30 24 1 20 25
M  V30 25 1 22 26
M  V30 26 1 24 27
M  V30 27 2 25 28
M  V30 28 1 25 29
M  V30 29 1 27 30
M  V30 30 1 27 31
M  V30 31 1 29 32
M  V30 32 1 11 16
M  V30 33 1 12 14
M  V30 34 1 15 18
M  V30 35 1 20 22
M  V30 36 1 26 27
M  V30 37 1 4 33
M  V30 38 1 5 34
M  V30 39 1 7 35
M  V30 40 1 8 36
M  V30 41 1 8 37
M  V30 42 1 8 38
M  V30 43 1 10 39
M  V30 44 1 10 40
M  V30 45 1 11 41
M  V30 46 1 12 42
M  V30 47 1 12 43
M  V30 48 1 13 44
M  V30 49 1 14 45
M  V30 50 1 15 46
M  V30 51 1 17 47
M  V30 52 1 17 48
M  V30 53 1 21 49
M  V30 54 1 21 50
M  V30 55 1 21 51
M  V30 56 1 22 52
M  V30 57 1 29 53
M  V30 58 1 29 54
M  V30 59 1 30 55
M  V30 60 1 30 56
M  V30 61 1 30 57
M  V30 62 1 31 58
M  V30 63 1 31 59
M  V30 64 1 31 60
M  V30 END BOND
M  V30 BEGIN COLLECTION
M  V30 MDLV30/STEABS ATOMS=(5 2 4 14 20 22)
M  V30 END COLLECTION
M  V30 END CTAB
M  END
>  <NO.>
1331

>  <Name>
tralonide

>  <SMILES>
CC1(C)O[C@@H]2CC3C4C[C@H](F)C5=CC(=O)C=CC5(C)[C@@]4(Cl)[C@@H](Cl)CC3(C)[C@]2(C(=O)CF)O1

>  <logBB>


>  <Class>
1

>  <MW>
488.13

>  <nHBAcc>
4

>  <nHBDon>
0

>  <SLogP>
4.86

>  <TopoPSA>
52.6

>  <MMFF94 Energy>
162.93

$$$$
CC1(C)O[C@@H]2CC3[C@@H]4C[C@H](F)C5=CC(=O)C=CC5(C)[C@H]4[C@@H](O)C[C@]3(C)[C@]2(C(=O)CO)O1
Actelion Java MolfileCreator 2.0

  0  0  0  0  0  0              0 V3000
M  V30 BEGIN CTAB
M  V30 COUNTS 62 66 0 0 0
M  V30 BEGIN ATOM
M  V30 1 F 1.622 4.384 1.8655 0
M  V30 2 C 1.1363 3.1353 2.1233 0 CFG=2
M  V30 3 C 2.2358 2.193 2.539 0
M  V30 4 C 0.4627 2.6343 0.8538 0
M  V30 5 C 3.5097 2.6159 2.6318 0
M  V30 6 C 1.7989 0.7417 2.7857 0
M  V30 7 C -0.0414 1.1882 0.9866 0 CFG=2
M  V30 8 C 4.6132 1.6994 2.9778 0
M  V30 9 C 2.9984 -0.1376 3.1244 0
M  V30 10 C 1.1077 0.2314 1.4613 0 CFG=2
M  V30 11 C 0.8832 0.718 4.0305 0
M  V30 12 C -0.5747 0.6764 -0.3589 0
M  V30 13 O 5.77 2.091 3.0587 0
M  V30 14 C 4.266 0.286 3.2145 0
M  V30 15 C 0.6555 -1.2596 1.461 0 CFG=1
M  V30 16 C -1.172 -0.7489 -0.2922 0 CFG=2
M  V30 17 C -1.6515 1.4804 -1.0848 0
M  V30 18 O -0.2084 -1.5246 2.5562 0
M  V30 19 C -0.0351 -1.6949 0.1484 0
M  V30 20 C -1.6628 -0.9029 -1.7674 0 CFG=1
M  V30 21 C -2.381 -0.8568 0.6764 0
M  V30 22 C -2.2182 0.4871 -2.1215 0 CFG=2
M  V30 23 O -0.565 -1.0886 -2.6671 0
M  V30 24 C -2.6939 -2.0233 -1.9666 0
M  V30 25 O -1.7211 0.8057 -3.4201 0
M  V30 26 C -0.7631 -0.1894 -3.7638 0
M  V30 27 O -3.9122 -1.8338 -1.8925 0
M  V30 28 C -2.1573 -3.4217 -2.2495 0
M  V30 29 C 0.563 0.4837 -4.0933 0
M  V30 30 C -1.2809 -0.9657 -4.9713 0
M  V30 31 O -3.145 -4.4132 -2.0034 0
M  V30 32 H 0.4048 3.2467 2.9299 0
M  V30 33 H 1.167 2.7162 0.0148 0
M  V30 34 H -0.3678 3.3078 0.6102 0
M  V30 35 H 3.7997 3.644 2.4413 0
M  V30 36 H -0.848 1.1912 1.7265 0
M  V30 37 H 2.8011 -1.1847 3.3454 0
M  V30 38 H 1.8819 0.2856 0.6766 0
M  V30 39 H -0.107 1.1395 3.8334 0
M  V30 40 H 1.321 1.2988 4.8533 0
M  V30 41 H 0.735 -0.2948 4.4203 0
M  V30 42 H 0.2956 0.6568 -1.0326 0
M  V30 43 H 5.0848 -0.3731 3.4761 0
M  V30 44 H 1.5341 -1.9009 1.5921 0
M  V30 45 H -2.4358 1.7857 -0.3831 0
M  V30 46 H -1.2418 2.3809 -1.5536 0
M  V30 47 H -0.3948 -2.4804 2.5699 0
M  V30 48 H 0.7342 -1.7428 -0.6318 0
M  V30 49 H -0.4299 -2.7102 0.2687 0
M  V30 50 H -2.6916 -1.9018 0.7899 0
M  V30 51 H -3.2532 -0.2989 0.3197 0
M  V30 52 H -2.1701 -0.4763 1.6772 0
M  V30 53 H -3.3095 0.5615 -2.143 0
M  V30 54 H -1.8556 -3.4845 -3.2979 0
M  V30 55 H -1.3013 -3.6388 -1.61 0
M  V30 56 H 1.3348 -0.2544 -4.335 0
M  V30 57 H 0.9271 1.0638 -3.2386 0
M  V30 58 H 0.4576 1.1824 -4.93 0
M  V30 59 H -0.6062 -1.7866 -5.2351 0
M  V30 60 H -1.407 -0.3099 -5.8395 0
M  V30 61 H -2.2628 -1.4042 -4.763 0
M  V30 62 H -4.0058 -4.0031 -2.2236 0
M  V30 END ATOM
M  V30 BEGIN BOND
M  V30 1 1 1 2
M  V30 2 1 2 3
M  V30 3 1 2 4
M  V30 4 2 3 5
M  V30 5 1 3 6
M  V30 6 1 4 7
M  V30 7 1 5 8
M  V30 8 1 6 9
M  V30 9 1 6 10
M  V30 10 1 6 11
M  V30 11 1 7 12
M  V30 12 2 8 13
M  V30 13 1 8 14
M  V30 14 1 10 15
M  V30 15 1 12 16
M  V30 16 1 12 17
M  V30 17 1 15 18
M  V30 18 1 15 19
M  V30 19 1 16 20
M  V30 20 1 16 21
M  V30 21 1 17 22
M  V30 22 1 20 23
M  V30 23 1 20 24
M  V30 24 1 22 25
M  V30 25 1 23 26
M  V30 26 2 24 27
M  V30 27 1 24 28
M  V30 28 1 26 29
M  V30 29 1 26 30
M  V30 30 1 28 31
M  V30 31 1 7 10
M  V30 32 2 9 14
M  V30 33 1 16 19
M  V30 34 1 20 22
M  V30 35 1 25 26
M  V30 36 1 2 32
M  V30 37 1 4 33
M  V30 38 1 4 34
M  V30 39 1 5 35
M  V30 40 1 7 36
M  V30 41 1 9 37
M  V30 42 1 10 38
M  V30 43 1 11 39
M  V30 44 1 11 40
M  V30 45 1 11 41
M  V30 46 1 12 42
M  V30 47 1 14 43
M  V30 48 1 15 44
M  V30 49 1 17 45
M  V30 50 1 17 46
M  V30 51 1 18 47
M  V30 52 1 19 48
M  V30 53 1 19 49
M  V30 54 1 21 50
M  V30 55 1 21 51
M  V30 56 1 21 52
M  V30 57 1 22 53
M  V30 58 1 28 54
M  V30 59 1 28 55
M  V30 60 1 29 56
M  V30 61 1 29 57
M  V30 62 1 29 58
M  V30 63 1 30 59
M  V30 64 1 30 60
M  V30 65 1 30 61
M  V30 66 1 31 62
M  V30 END BOND
M  V30 BEGIN COLLECTION
M  V30 MDLV30/STEABS ATOMS=(7 2 7 10 15 16 20 22)
M  V30 END COLLECTION
M  V30 END CTAB
M  END
>  <NO.>
1332

>  <Name>
77326-96-6

>  <SMILES>
CC1(C)O[C@@H]2CC3[C@@H]4C[C@H](F)C5=CC(=O)C=CC5(C)[C@H]4[C@@H](O)C[C@]3(C)[C@]2(C(=O)CO)O1

>  <logBB>


>  <Class>
1

>  <MW>
434.21

>  <nHBAcc>
6

>  <nHBDon>
2

>  <SLogP>
2.27

>  <TopoPSA>
93.06

>  <MMFF94 Energy>
129.48

$$$$
CC1(C)O[C@@H]2C[C@H]3C4CCC5=CC(=O)C=CC5(C)[C@H]4C(O)CC3(C)[C@]2(C(=O)CO)O1
Actelion Java MolfileCreator 2.0

  0  0  0  0  0  0              0 V3000
M  V30 BEGIN CTAB
M  V30 COUNTS 62 66 0 0 0
M  V30 BEGIN ATOM
M  V30 1 O -5.4246 -4.2892 -1.1316 0
M  V30 2 C -4.3461 -3.7384 -1.3116 0
M  V30 3 C -4.2648 -2.352 -1.8093 0
M  V30 4 C -3.0746 -4.4272 -1.0393 0
M  V30 5 C -3.0873 -1.7373 -2.0237 0
M  V30 6 C -1.9018 -3.8175 -1.2554 0
M  V30 7 C -1.7165 -2.3987 -1.7841 0
M  V30 8 C -3.0732 -0.2986 -2.4662 0
M  V30 9 C -0.8992 -1.4856 -0.7751 0 CFG=1
M  V30 10 C -0.9899 -2.5503 -3.1402 0
M  V30 11 C -2.3142 0.548 -1.4545 0
M  V30 12 C 0.5545 -1.9631 -0.4485 0
M  V30 13 C -0.8898 0.0179 -1.2364 0
M  V30 14 O 0.5351 -3.2296 0.2054 0
M  V30 15 C 1.326 -1.0044 0.4864 0
M  V30 16 C -0.1421 0.86 -0.1962 0 CFG=1
M  V30 17 C 1.3359 0.4423 -0.0203 0
M  V30 18 C -0.0626 2.3731 -0.3942 0
M  V30 19 C 1.8101 1.532 0.9905 0 CFG=1
M  V30 20 C 2.1594 0.5241 -1.3337 0
M  V30 21 C 1.1012 2.8107 0.5182 0 CFG=2
M  V30 22 O 1.2844 1.2954 2.2998 0
M  V30 23 C 3.3348 1.6929 1.0604 0
M  V30 24 O 0.5906 3.4487 1.6869 0
M  V30 25 C 0.7437 2.5352 2.7688 0
M  V30 26 O 3.9572 2.4806 0.3408 0
M  V30 27 C 4.0842 0.8107 2.0521 0
M  V30 28 C -0.617 2.2723 3.4012 0
M  V30 29 C 1.6958 3.15 3.7904 0
M  V30 30 O 5.4681 0.7421 1.736 0
M  V30 31 H -5.2205 -1.8659 -1.9695 0
M  V30 32 H -3.1423 -5.4436 -0.6721 0
M  V30 33 H -1.0051 -4.4014 -1.0643 0
M  V30 34 H -4.0899 0.1001 -2.5692 0
M  V30 35 H -2.6113 -0.2162 -3.4565 0
M  V30 36 H -1.451 -1.528 0.1786 0
M  V30 37 H -0.733 -1.5879 -3.5924 0
M  V30 38 H -0.0581 -3.1187 -3.041 0
M  V30 39 H -1.614 -3.0875 -3.8662 0
M  V30 40 H -2.8581 0.5657 -0.5009 0
M  V30 41 H -2.2825 1.5806 -1.8209 0
M  V30 42 H 1.1168 -2.0933 -1.3777 0
M  V30 43 H -0.3719 0.0979 -2.1978 0
M  V30 44 H 1.4543 -3.4923 0.3872 0
M  V30 45 H 0.88 -1.0644 1.488 0
M  V30 46 H 2.3508 -1.3758 0.6076 0
M  V30 47 H -0.6699 0.6997 0.756 0
M  V30 48 H 0.1682 2.6079 -1.4393 0
M  V30 49 H -1.0036 2.8679 -0.1329 0
M  V30 50 H 2.2211 1.5444 -1.7252 0
M  V30 51 H 1.7515 -0.0973 -2.1344 0
M  V30 52 H 3.1854 0.1761 -1.1674 0
M  V30 53 H 1.7355 3.5253 -0.0144 0
M  V30 54 H 3.9771 1.2275 3.0564 0
M  V30 55 H 3.6878 -0.205 2.0339 0
M  V30 56 H -1.3138 1.8566 2.6659 0
M  V30 57 H -0.5421 1.5494 4.2202 0
M  V30 58 H -1.0665 3.1975 3.7772 0
M  V30 59 H 1.8972 2.4569 4.6138 0
M  V30 60 H 1.2926 4.084 4.1964 0
M  V30 61 H 2.6578 3.397 3.3288 0
M  V30 62 H 5.707 1.6135 1.3607 0
M  V30 END ATOM
M  V30 BEGIN BOND
M  V30 1 2 1 2
M  V30 2 1 2 3
M  V30 3 1 2 4
M  V30 4 2 3 5
M  V30 5 2 4 6
M  V30 6 1 5 7
M  V30 7 1 5 8
M  V30 8 1 7 9
M  V30 9 1 7 10
M  V30 10 1 8 11
M  V30 11 1 9 12
M  V30 12 1 9 13
M  V30 13 1 12 14
M  V30 14 1 12 15
M  V30 15 1 13 16
M  V30 16 1 15 17
M  V30 17 1 16 18
M  V30 18 1 17 19
M  V30 19 1 17 20
M  V30 20 1 18 21
M  V30 21 1 19 22
M  V30 22 1 19 23
M  V30 23 1 21 24
M  V30 24 1 22 25
M  V30 25 2 23 26
M  V30 26 1 23 27
M  V30 27 1 25 28
M  V30 28 1 25 29
M  V30 29 1 27 30
M  V30 30 1 6 7
M  V30 31 1 11 13
M  V30 32 1 16 17
M  V30 33 1 19 21
M  V30 34 1 24 25
M  V30 35 1 3 31
M  V30 36 1 4 32
M  V30 37 1 6 33
M  V30 38 1 8 34
M  V30 39 1 8 35
M  V30 40 1 9 36
M  V30 41 1 10 37
M  V30 42 1 10 38
M  V30 43 1 10 39
M  V30 44 1 11 40
M  V30 45 1 11 41
M  V30 46 1 12 42
M  V30 47 1 13 43
M  V30 48 1 14 44
M  V30 49 1 15 45
M  V30 50 1 15 46
M  V30 51 1 16 47
M  V30 52 1 18 48
M  V30 53 1 18 49
M  V30 54 1 20 50
M  V30 55 1 20 51
M  V30 56 1 20 52
M  V30 57 1 21 53
M  V30 58 1 27 54
M  V30 59 1 27 55
M  V30 60 1 28 56
M  V30 61 1 28 57
M  V30 62 1 28 58
M  V30 63 1 29 59
M  V30 64 1 29 60
M  V30 65 1 29 61
M  V30 66 1 30 62
M  V30 END BOND
M  V30 BEGIN COLLECTION
M  V30 MDLV30/STEABS ATOMS=(4 9 16 19 21)
M  V30 END COLLECTION
M  V30 END CTAB
M  END
>  <NO.>
1333

>  <Name>
desonide

>  <SMILES>
CC1(C)O[C@@H]2C[C@H]3C4CCC5=CC(=O)C=CC5(C)[C@H]4C(O)CC3(C)[C@]2(C(=O)CO)O1

>  <logBB>


>  <Class>
1

>  <MW>
416.22

>  <nHBAcc>
6

>  <nHBDon>
2

>  <SLogP>
2.33

>  <TopoPSA>
93.06

>  <MMFF94 Energy>
133.83

$$$$
CC1(C)O[C@@H]2C[C@H]3C4CCC5CC(=O)CCC5(C)[C@@]4(F)[C@@H](O)CC3(C)[C@]2(C(=O)CO)O1
Actelion Java MolfileCreator 2.0

  0  0  0  0  0  0              0 V3000
M  V30 BEGIN CTAB
M  V30 COUNTS 66 70 0 0 0
M  V30 BEGIN ATOM
M  V30 1 F 0.0808 -0.9707 -1.6992 0
M  V30 2 C -0.836 -0.0129 -1.2935 0 CFG=2
M  V30 3 C -2.0395 -0.1218 -2.3135 0
M  V30 4 C -0.0343 1.3271 -1.3212 0 CFG=1
M  V30 5 C -1.2616 -0.4237 0.1526 0
M  V30 6 C -2.5767 -1.5922 -2.2478 0
M  V30 7 C -1.5371 0.1143 -3.7669 0
M  V30 8 C -3.164 0.8991 -2.0049 0
M  V30 9 O -0.8692 2.4679 -1.1597 0
M  V30 10 C 1.1035 1.3802 -0.2743 0
M  V30 11 C -0.0223 -0.3871 1.0599 0 CFG=1
M  V30 12 C -1.8997 -1.823 0.1719 0
M  V30 13 C -3.6737 -1.8934 -3.2744 0
M  V30 14 C -3.0349 -1.9717 -0.8356 0
M  V30 15 C -2.5933 -0.1516 -4.8362 0
M  V30 16 C 0.6421 1.0073 1.1502 0
M  V30 17 C -0.1624 -0.8107 2.5209 0
M  V30 18 C -3.2205 -1.5144 -4.6653 0
M  V30 19 C 1.7737 0.6995 2.1824 0 CFG=1
M  V30 20 C -0.3067 2.0966 1.7196 0
M  V30 21 C 1.1076 -0.2484 3.1934 0 CFG=2
M  V30 22 O -3.4555 -2.2362 -5.634 0
M  V30 23 O 2.8205 -0.08 1.5962 0
M  V30 24 C 2.369 1.9501 2.8452 0
M  V30 25 O 2.0371 -1.3023 3.4372 0
M  V30 26 C 3.0933 -1.1624 2.4925 0
M  V30 27 O 1.933 2.4213 3.9005 0
M  V30 28 C 3.536 2.6265 2.1353 0
M  V30 29 C 3.2217 -2.4494 1.6877 0
M  V30 30 C 4.3864 -0.8779 3.2511 0
M  V30 31 O 3.7221 3.9564 2.6011 0
M  V30 32 H 0.4413 1.4222 -2.3043 0
M  V30 33 H -2.0087 0.2781 0.5343 0
M  V30 34 H -1.7381 -2.2589 -2.5018 0
M  V30 35 H -0.6763 -0.5381 -3.9635 0
M  V30 36 H -1.1812 1.144 -3.8879 0
M  V30 37 H -2.8766 1.9144 -2.2932 0
M  V30 38 H -3.4373 0.919 -0.9472 0
M  V30 39 H -4.0829 0.6876 -2.5587 0
M  V30 40 H -0.3254 3.2602 -1.3178 0
M  V30 41 H 1.8923 0.6924 -0.6025 0
M  V30 42 H 1.5406 2.3852 -0.2669 0
M  V30 43 H 0.6982 -1.0861 0.6103 0
M  V30 44 H -2.2891 -2.0434 1.1728 0
M  V30 45 H -1.136 -2.5824 -0.0403 0
M  V30 46 H -3.8949 -2.9674 -3.2697 0
M  V30 47 H -4.608 -1.368 -3.0551 0
M  V30 48 H -3.8899 -1.3591 -0.5268 0
M  V30 49 H -3.3802 -3.0128 -0.8236 0
M  V30 50 H -3.3894 0.599 -4.808 0
M  V30 51 H -2.1263 -0.1018 -5.826 0
M  V30 52 H -1.0574 -0.3591 2.9633 0
M  V30 53 H -0.2406 -1.8977 2.6246 0
M  V30 54 H -1.2597 2.1595 1.1915 0
M  V30 55 H 0.16 3.0862 1.6552 0
M  V30 56 H -0.555 1.9254 2.7723 0
M  V30 57 H 0.8436 0.2054 4.1532 0
M  V30 58 H 4.4502 2.0601 2.3281 0
M  V30 59 H 3.3547 2.6726 1.0611 0
M  V30 60 H 2.2876 -2.6748 1.1628 0
M  V30 61 H 4.007 -2.3675 0.9292 0
M  V30 62 H 3.4355 -3.3049 2.3371 0
M  V30 63 H 4.2838 0.0147 3.8775 0
M  V30 64 H 5.2198 -0.7 2.5636 0
M  V30 65 H 4.6429 -1.7051 3.9216 0
M  V30 66 H 3.4595 3.9552 3.5438 0
M  V30 END ATOM
M  V30 BEGIN BOND
M  V30 1 1 1 2
M  V30 2 1 2 3
M  V30 3 1 2 4
M  V30 4 1 2 5
M  V30 5 1 3 6
M  V30 6 1 3 7
M  V30 7 1 3 8
M  V30 8 1 4 9
M  V30 9 1 4 10
M  V30 10 1 5 11
M  V30 11 1 5 12
M  V30 12 1 6 13
M  V30 13 1 6 14
M  V30 14 1 7 15
M  V30 15 1 10 16
M  V30 16 1 11 17
M  V30 17 1 13 18
M  V30 18 1 16 19
M  V30 19 1 16 20
M  V30 20 1 17 21
M  V30 21 2 18 22
M  V30 22 1 19 23
M  V30 23 1 19 24
M  V30 24 1 21 25
M  V30 25 1 23 26
M  V30 26 2 24 27
M  V30 27 1 24 28
M  V30 28 1 26 29
M  V30 29 1 26 30
M  V30 30 1 28 31
M  V30 31 1 11 16
M  V30 32 1 12 14
M  V30 33 1 15 18
M  V30 34 1 19 21
M  V30 35 1 25 26
M  V30 36 1 4 32
M  V30 37 1 5 33
M  V30 38 1 6 34
M  V30 39 1 7 35
M  V30 40 1 7 36
M  V30 41 1 8 37
M  V30 42 1 8 38
M  V30 43 1 8 39
M  V30 44 1 9 40
M  V30 45 1 10 41
M  V30 46 1 10 42
M  V30 47 1 11 43
M  V30 48 1 12 44
M  V30 49 1 12 45
M  V30 50 1 13 46
M  V30 51 1 13 47
M  V30 52 1 14 48
M  V30 53 1 14 49
M  V30 54 1 15 50
M  V30 55 1 15 51
M  V30 56 1 17 52
M  V30 57 1 17 53
M  V30 58 1 20 54
M  V30 59 1 20 55
M  V30 60 1 20 56
M  V30 61 1 21 57
M  V30 62 1 28 58
M  V30 63 1 28 59
M  V30 64 1 29 60
M  V30 65 1 29 61
M  V30 66 1 29 62
M  V30 67 1 30 63
M  V30 68 1 30 64
M  V30 69 1 30 65
M  V30 70 1 31 66
M  V30 END BOND
M  V30 BEGIN COLLECTION
M  V30 MDLV30/STEABS ATOMS=(5 2 4 11 19 21)
M  V30 END COLLECTION
M  V30 END CTAB
M  END
>  <NO.>
1334

>  <Name>
drocinonide

>  <SMILES>
CC1(C)O[C@@H]2C[C@H]3C4CCC5CC(=O)CCC5(C)[C@@]4(F)[C@@H](O)CC3(C)[C@]2(C(=O)CO)O1

>  <logBB>


>  <Class>
1

>  <MW>
438.24

>  <nHBAcc>
6

>  <nHBDon>
2

>  <SLogP>
2.72

>  <TopoPSA>
93.06

>  <MMFF94 Energy>
152.7

$$$$
CC1(C)O[C@@H]2C[C@H]3C4C[C@H](F)C5=CC(=O)C=C[C@]5(C)[C@@]4(F)[C@@H](O)C[C@]3(C)[C@]2(C(=O)COC(=O)C2CC2)O1
Actelion Java MolfileCreator 2.0

  0  0  0  0  0  0              0 V3000
M  V30 BEGIN CTAB
M  V30 COUNTS 71 76 0 0 0
M  V30 BEGIN ATOM
M  V30 1 F -1.384 -0.6511 -2.5249 0
M  V30 2 C -0.0079 -0.8221 -2.5249 0 CFG=2
M  V30 3 C 0.3516 -1.4821 -3.9205 0 CFG=2
M  V30 4 C 0.2817 -1.6981 -1.2659 0 CFG=1
M  V30 5 C 0.5921 0.6176 -2.3876 0
M  V30 6 C -0.073 -0.5005 -5.028 0
M  V30 7 C -0.3599 -2.8252 -4.0842 0
M  V30 8 C 1.8585 -1.7774 -4.1045 0
M  V30 9 O 1.6271 -2.1617 -1.2299 0
M  V30 10 C -0.0459 -0.9851 0.0681 0
M  V30 11 C 0.1247 1.2223 -1.0552 0 CFG=1
M  V30 12 C 0.1595 1.5067 -3.566 0
M  V30 13 C -0.9344 -0.8134 -6.0134 0
M  V30 14 C 0.5001 0.8882 -4.9151 0 CFG=2
M  V30 15 C -1.2174 -3.1301 -5.0672 0
M  V30 16 C 0.5836 0.4198 0.1865 0 CFG=1
M  V30 17 C 0.5172 2.6582 -0.7161 0
M  V30 18 C -1.5572 -2.1475 -6.1132 0
M  V30 19 F 0.0077 1.7123 -5.8838 0
M  V30 20 C 0.0217 1.335 1.3238 0 CFG=1
M  V30 21 C 2.1277 0.3184 0.3082 0
M  V30 22 C 0.2466 2.7651 0.799 0 CFG=2
M  V30 23 O -2.3224 -2.4309 -7.0258 0
M  V30 24 O -1.3993 1.2123 1.4285 0
M  V30 25 C 0.6743 1.1044 2.7002 0
M  V30 26 O -0.9683 3.4789 1.0226 0
M  V30 27 C -1.936 2.5384 1.4765 0
M  V30 28 O 1.6661 1.7435 3.061 0
M  V30 29 C 0.0631 0.0086 3.5679 0
M  V30 30 C -3.1619 2.6059 0.5749 0
M  V30 31 C -2.3125 2.8829 2.915 0
M  V30 32 O 0.7844 -0.1176 4.7936 0
M  V30 33 C 0.4 -1.178 5.5466 0
M  V30 34 O -0.466 -1.987 5.2457 0
M  V30 35 C 1.1735 -1.2501 6.8118 0
M  V30 36 C 0.5129 -1.7389 8.0811 0
M  V30 37 C 1.5437 -2.5917 7.403 0
M  V30 38 H -0.3578 -2.5875 -1.3066 0
M  V30 39 H 1.6851 0.5665 -2.4021 0
M  V30 40 H -0.1303 -3.6031 -3.359 0
M  V30 41 H 2.0908 -2.0042 -5.1536 0
M  V30 42 H 2.4927 -0.9351 -3.813 0
M  V30 43 H 2.1865 -2.6487 -3.5276 0
M  V30 44 H 1.7036 -2.7991 -0.4965 0
M  V30 45 H 0.2912 -1.6108 0.9016 0
M  V30 46 H -1.1377 -0.9121 0.1473 0
M  V30 47 H -0.975 1.2108 -1.0899 0
M  V30 48 H -0.9197 1.7054 -3.5198 0
M  V30 49 H 0.6443 2.4884 -3.502 0
M  V30 50 H -1.2332 -0.1023 -6.7765 0
M  V30 51 H 1.5853 0.8583 -5.0569 0
M  V30 52 H -1.6894 -4.1017 -5.15 0
M  V30 53 H 1.5801 2.8221 -0.9256 0
M  V30 54 H -0.062 3.3866 -1.2927 0
M  V30 55 H 2.4061 -0.3527 1.1289 0
M  V30 56 H 2.5947 1.2878 0.5118 0
M  V30 57 H 2.6091 -0.0646 -0.5929 0
M  V30 58 H 1.061 3.3169 1.2778 0
M  V30 59 H -0.9735 0.2751 3.7949 0
M  V30 60 H 0.1106 -0.9321 3.0139 0
M  V30 61 H -3.919 1.8745 0.8769 0
M  V30 62 H -3.6057 3.6072 0.5805 0
M  V30 63 H -2.893 2.3827 -0.4629 0
M  V30 64 H -2.7546 3.883 2.9803 0
M  V30 65 H -1.4282 2.8864 3.5614 0
M  V30 66 H -3.0148 2.1514 3.3281 0
M  V30 67 H 1.9068 -0.457 6.9306 0
M  V30 68 H -0.5213 -2.0634 8.0345 0
M  V30 69 H 0.7834 -1.2542 9.0121 0
M  V30 70 H 2.5156 -2.6874 7.8729 0
M  V30 71 H 1.203 -3.4908 6.9006 0
M  V30 END ATOM
M  V30 BEGIN BOND
M  V30 1 1 1 2
M  V30 2 1 2 3
M  V30 3 1 2 4
M  V30 4 1 2 5
M  V30 5 1 3 6
M  V30 6 1 3 7
M  V30 7 1 3 8
M  V30 8 1 4 9
M  V30 9 1 4 10
M  V30 10 1 5 11
M  V30 11 1 5 12
M  V30 12 2 6 13
M  V30 13 1 6 14
M  V30 14 2 7 15
M  V30 15 1 10 16
M  V30 16 1 11 17
M  V30 17 1 13 18
M  V30 18 1 14 19
M  V30 19 1 16 20
M  V30 20 1 16 21
M  V30 21 1 17 22
M  V30 22 2 18 23
M  V30 23 1 20 24
M  V30 24 1 20 25
M  V30 25 1 22 26
M  V30 26 1 24 27
M  V30 27 2 25 28
M  V30 28 1 25 29
M  V30 29 1 27 30
M  V30 30 1 27 31
M  V30 31 1 29 32
M  V30 32 1 32 33
M  V30 33 2 33 34
M  V30 34 1 33 35
M  V30 35 1 35 36
M  V30 36 1 35 37
M  V30 37 1 11 16
M  V30 38 1 12 14
M  V30 39 1 15 18
M  V30 40 1 20 22
M  V30 41 1 26 27
M  V30 42 1 36 37
M  V30 43 1 4 38
M  V30 44 1 5 39
M  V30 45 1 7 40
M  V30 46 1 8 41
M  V30 47 1 8 42
M  V30 48 1 8 43
M  V30 49 1 9 44
M  V30 50 1 10 45
M  V30 51 1 10 46
M  V30 52 1 11 47
M  V30 53 1 12 48
M  V30 54 1 12 49
M  V30 55 1 13 50
M  V30 56 1 14 51
M  V30 57 1 15 52
M  V30 58 1 17 53
M  V30 59 1 17 54
M  V30 60 1 21 55
M  V30 61 1 21 56
M  V30 62 1 21 57
M  V30 63 1 22 58
M  V30 64 1 29 59
M  V30 65 1 29 60
M  V30 66 1 30 61
M  V30 67 1 30 62
M  V30 68 1 30 63
M  V30 69 1 31 64
M  V30 70 1 31 65
M  V30 71 1 31 66
M  V30 72 1 35 67
M  V30 73 1 36 68
M  V30 74 1 36 69
M  V30 75 1 37 70
M  V30 76 1 37 71
M  V30 END BOND
M  V30 BEGIN COLLECTION
M  V30 MDLV30/STEABS ATOMS=(8 2 3 4 11 14 16 20 22)
M  V30 END COLLECTION
M  V30 END CTAB
M  END
>  <NO.>
1336

>  <Name>
ciprocinonida

>  <SMILES>
CC1(C)O[C@@H]2C[C@H]3C4C[C@H](F)C5=CC(=O)C=C[C@]5(C)[C@@]4(F)[C@@H](O)C[C@]3(C)[C@]2(C(=O)COC(=O)C2CC2)O1

>  <logBB>


>  <Class>
1

>  <MW>
520.23

>  <nHBAcc>
7

>  <nHBDon>
1

>  <SLogP>
3.33

>  <TopoPSA>
99.13

>  <MMFF94 Energy>
169.41

$$$$
CC1(C)O[C@@H]2C[C@H]3[C@@H]4CCC5=CC(=O)C=C[C@]5(C)[C@@]4(F)[C@@H](O)C[C@]3(C)[C@]2(C(=O)CO)O1
Actelion Java MolfileCreator 2.0

  0  0  0  0  0  0              0 V3000
M  V30 BEGIN CTAB
M  V30 COUNTS 62 66 0 0 0
M  V30 BEGIN ATOM
M  V30 1 F 0.0 -2.0287 -0.8111 0
M  V30 2 C 0.5953 -1.7117 0.4021 0 CFG=2
M  V30 3 C 1.4889 -2.9591 0.7944 0 CFG=2
M  V30 4 C -0.6019 -1.4098 1.358 0 CFG=1
M  V30 5 C 1.461 -0.4364 0.125 0 CFG=2
M  V30 6 C 2.5626 -3.1266 -0.2972 0
M  V30 7 C 0.6369 -4.2226 0.9154 0
M  V30 8 C 2.2168 -2.8075 2.1501 0
M  V30 9 O -0.1949 -1.2808 2.716 0
M  V30 10 C -1.4122 -0.1564 0.9485 0
M  V30 11 C 0.5344 0.6987 -0.335 0 CFG=1
M  V30 12 C 2.5374 -0.7188 -0.9394 0
M  V30 13 C 2.7285 -4.2518 -1.0152 0
M  V30 14 C 3.4123 -1.9134 -0.5758 0
M  V30 15 C 0.8059 -5.3403 0.1968 0
M  V30 16 C -0.5349 1.0905 0.712 0 CFG=1
M  V30 17 C 1.1471 2.039 -0.7369 0
M  V30 18 C 1.8748 -5.4397 -0.8139 0
M  V30 19 C -1.2174 2.2821 -0.0334 0 CFG=1
M  V30 20 C 0.0774 1.5884 2.0492 0
M  V30 21 C -0.0479 3.0155 -0.711 0 CFG=2
M  V30 22 O 2.0474 -6.4659 -1.459 0
M  V30 23 O -2.0307 1.8254 -1.1181 0
M  V30 24 C -2.042 3.1983 0.8819 0
M  V30 25 O -0.467 3.3075 -2.0425 0
M  V30 26 C -1.6934 2.6175 -2.2618 0
M  V30 27 O -1.5663 4.1931 1.4383 0
M  V30 28 C -3.5023 2.8248 1.109 0
M  V30 29 C -1.5462 1.7023 -3.4706 0
M  V30 30 C -2.7918 3.6484 -2.5055 0
M  V30 31 O -4.0242 3.4664 2.2649 0
M  V30 32 H -1.2993 -2.2546 1.3178 0
M  V30 33 H 1.98 -0.1357 1.0403 0
M  V30 34 H -0.1516 -4.2203 1.6645 0
M  V30 35 H 2.9975 -3.5708 2.2664 0
M  V30 36 H 2.7039 -1.8344 2.2613 0
M  V30 37 H 1.5413 -2.9346 3.0029 0
M  V30 38 H -0.9972 -1.1969 3.2627 0
M  V30 39 H -1.9665 -0.4009 0.034 0
M  V30 40 H -2.1568 0.0609 1.7226 0
M  V30 41 H 0.0209 0.3208 -1.2314 0
M  V30 42 H 3.1814 0.1598 -1.063 0
M  V30 43 H 2.0619 -0.8994 -1.9125 0
M  V30 44 H 3.4794 -4.3496 -1.7907 0
M  V30 45 H 4.0233 -1.6789 0.3033 0
M  V30 46 H 4.116 -2.0993 -1.3961 0
M  V30 47 H 0.1839 -6.2173 0.3268 0
M  V30 48 H 1.9033 2.3456 -0.0057 0
M  V30 49 H 1.6225 1.9913 -1.7217 0
M  V30 50 H 0.7993 0.893 2.4802 0
M  V30 51 H -0.7071 1.74 2.7995 0
M  V30 52 H 0.6048 2.5415 1.9378 0
M  V30 53 H 0.2541 3.952 -0.2327 0
M  V30 54 H -4.0911 3.136 0.2428 0
M  V30 55 H -3.6036 1.7486 1.2516 0
M  V30 56 H -2.4632 1.1318 -3.6515 0
M  V30 57 H -1.2917 2.2707 -4.3713 0
M  V30 58 H -0.7404 0.9777 -3.3141 0
M  V30 59 H -3.7696 3.1687 -2.618 0
M  V30 60 H -2.5809 4.2494 -3.3964 0
M  V30 61 H -2.8658 4.3469 -1.6649 0
M  V30 62 H -3.5757 4.3341 2.3221 0
M  V30 END ATOM
M  V30 BEGIN BOND
M  V30 1 1 1 2
M  V30 2 1 2 3
M  V30 3 1 2 4
M  V30 4 1 2 5
M  V30 5 1 3 6
M  V30 6 1 3 7
M  V30 7 1 3 8
M  V30 8 1 4 9
M  V30 9 1 4 10
M  V30 10 1 5 11
M  V30 11 1 5 12
M  V30 12 2 6 13
M  V30 13 1 6 14
M  V30 14 2 7 15
M  V30 15 1 10 16
M  V30 16 1 11 17
M  V30 17 1 13 18
M  V30 18 1 16 19
M  V30 19 1 16 20
M  V30 20 1 17 21
M  V30 21 2 18 22
M  V30 22 1 19 23
M  V30 23 1 19 24
M  V30 24 1 21 25
M  V30 25 1 23 26
M  V30 26 2 24 27
M  V30 27 1 24 28
M  V30 28 1 26 29
M  V30 29 1 26 30
M  V30 30 1 28 31
M  V30 31 1 11 16
M  V30 32 1 12 14
M  V30 33 1 15 18
M  V30 34 1 19 21
M  V30 35 1 25 26
M  V30 36 1 4 32
M  V30 37 1 5 33
M  V30 38 1 7 34
M  V30 39 1 8 35
M  V30 40 1 8 36
M  V30 41 1 8 37
M  V30 42 1 9 38
M  V30 43 1 10 39
M  V30 44 1 10 40
M  V30 45 1 11 41
M  V30 46 1 12 42
M  V30 47 1 12 43
M  V30 48 1 13 44
M  V30 49 1 14 45
M  V30 50 1 14 46
M  V30 51 1 15 47
M  V30 52 1 17 48
M  V30 53 1 17 49
M  V30 54 1 20 50
M  V30 55 1 20 51
M  V30 56 1 20 52
M  V30 57 1 21 53
M  V30 58 1 28 54
M  V30 59 1 28 55
M  V30 60 1 29 56
M  V30 61 1 29 57
M  V30 62 1 29 58
M  V30 63 1 30 59
M  V30 64 1 30 60
M  V30 65 1 30 61
M  V30 66 1 31 62
M  V30 END BOND
M  V30 BEGIN COLLECTION
M  V30 MDLV30/STEABS ATOMS=(8 2 3 4 5 11 16 19 21)
M  V30 END COLLECTION
M  V30 END CTAB
M  END
>  <NO.>
1337

>  <Name>
triamcinolone acetonide

>  <SMILES>
CC1(C)O[C@@H]2C[C@H]3[C@@H]4CCC5=CC(=O)C=C[C@]5(C)[C@@]4(F)[C@@H](O)C[C@]3(C)[C@]2(C(=O)CO)O1

>  <logBB>


>  <Class>
1

>  <MW>
434.21

>  <nHBAcc>
6

>  <nHBDon>
2

>  <SLogP>
2.42

>  <TopoPSA>
93.06

>  <MMFF94 Energy>
171.02

$$$$
CC1(C)O[C@@H]2C[C@H]3[C@@H]4CCC5=CC(=O)CC[C@]5(C)[C@@]4(F)[C@@H](O)C[C@]3(C)[C@]2(C(=O)CCl)O1
Actelion Java MolfileCreator 2.0

  0  0  0  0  0  0              0 V3000
M  V30 BEGIN CTAB
M  V30 COUNTS 63 67 0 0 0
M  V30 BEGIN ATOM
M  V30 1 Cl -3.6765 1.9595 -4.9043 0
M  V30 2 C -3.0343 1.1727 -3.4513 0
M  V30 3 C -2.4174 2.2045 -2.5287 0
M  V30 4 O -2.9896 3.2651 -2.2626 0
M  V30 5 C -1.0926 1.8184 -1.8485 0 CFG=2
M  V30 6 O -0.2003 1.2524 -2.8115 0
M  V30 7 C -1.2743 0.8722 -0.6173 0 CFG=2
M  V30 8 C -0.322 3.0246 -1.2798 0 CFG=2
M  V30 9 C 0.7217 2.281 -3.1843 0
M  V30 10 C 0.099 1.0647 0.0693 0 CFG=1
M  V30 11 C -1.4216 -0.6286 -0.9404 0
M  V30 12 C -2.4645 1.3713 0.2455 0
M  V30 13 O 0.7295 3.3107 -2.2006 0
M  V30 14 C 0.2799 2.5813 0.0723 0
M  V30 15 C 2.1152 1.6747 -3.2823 0
M  V30 16 C 0.3033 2.882 -4.5232 0
M  V30 17 C 0.2467 0.2853 1.3858 0 CFG=1
M  V30 18 C -1.1974 -1.5626 0.2729 0 CFG=1
M  V30 19 C 0.1044 -1.2476 1.0746 0 CFG=1
M  V30 20 C 1.5981 0.6074 2.0596 0
M  V30 21 O -2.3878 -1.617 1.0509 0
M  V30 22 F 1.1319 -1.5416 0.1934 0
M  V30 23 C 0.3639 -2.1312 2.3567 0 CFG=2
M  V30 24 C 1.8847 -0.2702 3.2786 0
M  V30 25 C 1.7483 -1.7203 2.888 0
M  V30 26 C 0.3342 -3.6612 2.0666 0
M  V30 27 C -0.6854 -1.9038 3.4753 0
M  V30 28 C 2.8264 -2.5239 2.8948 0
M  V30 29 C 1.5942 -4.2046 1.4141 0
M  V30 30 C 2.7922 -3.8628 2.2615 0
M  V30 31 O 3.7574 -4.613 2.377 0
M  V30 32 H -3.8476 0.6631 -2.9282 0
M  V30 33 H -2.3008 0.4343 -3.7785 0
M  V30 34 H -0.9133 3.9339 -1.1381 0
M  V30 35 H 0.8808 0.6719 -0.5981 0
M  V30 36 H -0.6892 -0.9102 -1.7072 0
M  V30 37 H -2.4128 -0.8186 -1.369 0
M  V30 38 H -2.4912 2.4632 0.3272 0
M  V30 39 H -3.4191 1.0604 -0.194 0
M  V30 40 H -2.4457 1.0015 1.2699 0
M  V30 41 H 1.3322 2.8664 0.1712 0
M  V30 42 H -0.277 3.0296 0.9026 0
M  V30 43 H 2.1437 0.8582 -4.0113 0
M  V30 44 H 2.4236 1.2574 -2.3176 0
M  V30 45 H 2.8598 2.4293 -3.5567 0
M  V30 46 H 1.017 3.6436 -4.8552 0
M  V30 47 H 0.2152 2.1102 -5.2948 0
M  V30 48 H -0.6701 3.3772 -4.4447 0
M  V30 49 H -0.5385 0.5951 2.0811 0
M  V30 50 H -1.0883 -2.5649 -0.1569 0
M  V30 51 H 2.4106 0.4843 1.3311 0
M  V30 52 H 1.6163 1.6581 2.3729 0
M  V30 53 H -2.3948 -0.901 1.7043 0
M  V30 54 H 2.8933 -0.0473 3.6475 0
M  V30 55 H 1.2003 -0.0272 4.0984 0
M  V30 56 H -0.5392 -3.9334 1.4655 0
M  V30 57 H 0.2085 -4.2008 3.0176 0
M  V30 58 H -0.3323 -2.3127 4.4308 0
M  V30 59 H -1.6295 -2.412 3.2543 0
M  V30 60 H -0.9133 -0.8488 3.6473 0
M  V30 61 H 3.7976 -2.2104 3.2614 0
M  V30 62 H 1.5205 -5.2954 1.343 0
M  V30 63 H 1.7429 -3.8091 0.4056 0
M  V30 END ATOM
M  V30 BEGIN BOND
M  V30 1 1 1 2
M  V30 2 1 2 3
M  V30 3 2 3 4
M  V30 4 1 3 5
M  V30 5 1 5 6
M  V30 6 1 5 7
M  V30 7 1 5 8
M  V30 8 1 6 9
M  V30 9 1 7 10
M  V30 10 1 7 11
M  V30 11 1 7 12
M  V30 12 1 8 13
M  V30 13 1 8 14
M  V30 14 1 9 15
M  V30 15 1 9 16
M  V30 16 1 10 17
M  V30 17 1 11 18
M  V30 18 1 17 19
M  V30 19 1 17 20
M  V30 20 1 18 21
M  V30 21 1 19 22
M  V30 22 1 19 23
M  V30 23 1 20 24
M  V30 24 1 23 25
M  V30 25 1 23 26
M  V30 26 1 23 27
M  V30 27 2 25 28
M  V30 28 1 26 29
M  V30 29 1 28 30
M  V30 30 2 30 31
M  V30 31 1 9 13
M  V30 32 1 10 14
M  V30 33 1 18 19
M  V30 34 1 24 25
M  V30 35 1 29 30
M  V30 36 1 2 32
M  V30 37 1 2 33
M  V30 38 1 8 34
M  V30 39 1 10 35
M  V30 40 1 11 36
M  V30 41 1 11 37
M  V30 42 1 12 38
M  V30 43 1 12 39
M  V30 44 1 12 40
M  V30 45 1 14 41
M  V30 46 1 14 42
M  V30 47 1 15 43
M  V30 48 1 15 44
M  V30 49 1 15 45
M  V30 50 1 16 46
M  V30 51 1 16 47
M  V30 52 1 16 48
M  V30 53 1 17 49
M  V30 54 1 18 50
M  V30 55 1 20 51
M  V30 56 1 20 52
M  V30 57 1 21 53
M  V30 58 1 24 54
M  V30 59 1 24 55
M  V30 60 1 26 56
M  V30 61 1 26 57
M  V30 62 1 27 58
M  V30 63 1 27 59
M  V30 64 1 27 60
M  V30 65 1 28 61
M  V30 66 1 29 62
M  V30 67 1 29 63
M  V30 END BOND
M  V30 BEGIN COLLECTION
M  V30 MDLV30/STEABS ATOMS=(8 5 7 8 10 17 18 19 23)
M  V30 END COLLECTION
M  V30 END CTAB
M  END
>  <NO.>
1339

>  <Name>
halcinonide

>  <SMILES>
CC1(C)O[C@@H]2C[C@H]3[C@@H]4CCC5=CC(=O)CC[C@]5(C)[C@@]4(F)[C@@H](O)C[C@]3(C)[C@]2(C(=O)CCl)O1

>  <logBB>


>  <Class>
1

>  <MW>
454.19

>  <nHBAcc>
5

>  <nHBDon>
1

>  <SLogP>
3.89

>  <TopoPSA>
72.83

>  <MMFF94 Energy>
158.55

$$$$
CC1(C)O[C@@H]2C[C@H]3[C@@H]4C[C@H](F)C5=CC(=O)C=C[C@]5(C)[C@@]4(F)[C@@H](O)C[C@]3(C)[C@]2(C(=O)CO)O1
Actelion Java MolfileCreator 2.0

  0  0  0  0  0  0              0 V3000
M  V30 BEGIN CTAB
M  V30 COUNTS 62 66 0 0 0
M  V30 BEGIN ATOM
M  V30 1 F -1.1397 -1.7913 0.8139 0
M  V30 2 C -0.1535 -1.1554 1.5534 0 CFG=2
M  V30 3 C 0.2781 -2.1822 2.6807 0 CFG=2
M  V30 4 C -0.8196 0.1648 2.0553 0 CFG=1
M  V30 5 C 1.0113 -0.8756 0.5424 0 CFG=2
M  V30 6 C 0.8401 -3.4356 1.9841 0
M  V30 7 C -0.9121 -2.5437 3.5692 0
M  V30 8 C 1.3686 -1.6432 3.6355 0
M  V30 9 O -0.0049 0.8461 3.0042 0
M  V30 10 C -1.192 1.1322 0.9069 0
M  V30 11 C 0.4916 0.0565 -0.5628 0 CFG=1
M  V30 12 C 1.5393 -2.188 -0.0604 0
M  V30 13 C 0.3519 -4.6756 2.1711 0
M  V30 14 C 1.962 -3.1861 1.0096 0 CFG=2
M  V30 15 C -1.394 -3.7805 3.7499 0
M  V30 16 C -0.0147 1.421 -0.0466 0 CFG=1
M  V30 17 C 1.4156 0.4372 -1.7194 0
M  V30 18 C -0.7861 -4.9407 3.0725 0
M  V30 19 F 2.3394 -4.3338 0.3769 0
M  V30 20 C -0.3904 2.1131 -1.4062 0 CFG=1
M  V30 21 C 1.1036 2.2301 0.6746 0
M  V30 22 C 0.7635 1.7017 -2.3286 0 CFG=2
M  V30 23 O -1.2089 -6.0752 3.2535 0
M  V30 24 O -1.5534 1.5182 -2.0048 0
M  V30 25 C -0.6197 3.6322 -1.2562 0
M  V30 26 O 0.1644 1.4207 -3.5922 0
M  V30 27 C -1.2157 1.1434 -3.3467 0
M  V30 28 O -1.0277 4.1326 -0.1985 0
M  V30 29 C -0.4225 4.5463 -2.4563 0
M  V30 30 C -1.4978 -0.3427 -3.5681 0
M  V30 31 C -2.0662 1.9448 -4.3293 0
M  V30 32 O -0.0137 5.8386 -2.0207 0
M  V30 33 H -1.7569 -0.0859 2.5649 0
M  V30 34 H 1.8475 -0.3999 1.0627 0
M  V30 35 H -1.388 -1.7338 4.1186 0
M  V30 36 H 2.1988 -1.1687 3.1042 0
M  V30 37 H 0.9744 -0.9101 4.3475 0
M  V30 38 H 1.798 -2.4526 4.241 0
M  V30 39 H -0.4803 1.6534 3.2758 0
M  V30 40 H -2.0235 0.6858 0.3472 0
M  V30 41 H -1.567 2.0727 1.3274 0
M  V30 42 H -0.3603 -0.4741 -1.005 0
M  V30 43 H 2.3994 -1.9902 -0.7114 0
M  V30 44 H 0.7783 -2.6473 -0.7057 0
M  V30 45 H 0.7517 -5.5447 1.6592 0
M  V30 46 H 2.8463 -2.8214 1.5422 0
M  V30 47 H -2.2343 -3.9902 4.4008 0
M  V30 48 H 2.4145 0.6791 -1.3383 0
M  V30 49 H 1.5187 -0.3723 -2.4485 0
M  V30 50 H 0.686 3.0795 1.2253 0
M  V30 51 H 1.6643 1.6401 1.4018 0
M  V30 52 H 1.8425 2.6349 -0.0248 0
M  V30 53 H 1.5339 2.4667 -2.4651 0
M  V30 54 H 0.3371 4.1748 -3.142 0
M  V30 55 H -1.3745 4.6526 -2.9794 0
M  V30 56 H -2.5246 -0.5969 -3.2846 0
M  V30 57 H -0.8314 -0.9799 -2.9832 0
M  V30 58 H -1.3361 -0.6217 -4.6154 0
M  V30 59 H -3.1346 1.8212 -4.1225 0
M  V30 60 H -1.8465 3.0117 -4.2706 0
M  V30 61 H -1.8641 1.6467 -5.3639 0
M  V30 62 H -0.5723 6.0503 -1.2455 0
M  V30 END ATOM
M  V30 BEGIN BOND
M  V30 1 1 1 2
M  V30 2 1 2 3
M  V30 3 1 2 4
M  V30 4 1 2 5
M  V30 5 1 3 6
M  V30 6 1 3 7
M  V30 7 1 3 8
M  V30 8 1 4 9
M  V30 9 1 4 10
M  V30 10 1 5 11
M  V30 11 1 5 12
M  V30 12 2 6 13
M  V30 13 1 6 14
M  V30 14 2 7 15
M  V30 15 1 10 16
M  V30 16 1 11 17
M  V30 17 1 13 18
M  V30 18 1 14 19
M  V30 19 1 16 20
M  V30 20 1 16 21
M  V30 21 1 17 22
M  V30 22 2 18 23
M  V30 23 1 20 24
M  V30 24 1 20 25
M  V30 25 1 22 26
M  V30 26 1 24 27
M  V30 27 2 25 28
M  V30 28 1 25 29
M  V30 29 1 27 30
M  V30 30 1 27 31
M  V30 31 1 29 32
M  V30 32 1 11 16
M  V30 33 1 12 14
M  V30 34 1 15 18
M  V30 35 1 20 22
M  V30 36 1 26 27
M  V30 37 1 4 33
M  V30 38 1 5 34
M  V30 39 1 7 35
M  V30 40 1 8 36
M  V30 41 1 8 37
M  V30 42 1 8 38
M  V30 43 1 9 39
M  V30 44 1 10 40
M  V30 45 1 10 41
M  V30 46 1 11 42
M  V30 47 1 12 43
M  V30 48 1 12 44
M  V30 49 1 13 45
M  V30 50 1 14 46
M  V30 51 1 15 47
M  V30 52 1 17 48
M  V30 53 1 17 49
M  V30 54 1 21 50
M  V30 55 1 21 51
M  V30 56 1 21 52
M  V30 57 1 22 53
M  V30 58 1 29 54
M  V30 59 1 29 55
M  V30 60 1 30 56
M  V30 61 1 30 57
M  V30 62 1 30 58
M  V30 63 1 31 59
M  V30 64 1 31 60
M  V30 65 1 31 61
M  V30 66 1 32 62
M  V30 END BOND
M  V30 BEGIN COLLECTION
M  V30 MDLV30/STEABS ATOMS=(9 2 3 4 5 11 14 16 20 22)
M  V30 END COLLECTION
M  V30 END CTAB
M  END
>  <NO.>
1340

>  <Name>
fluocinolone-acetonide

>  <SMILES>
CC1(C)O[C@@H]2C[C@H]3[C@@H]4C[C@H](F)C5=CC(=O)C=C[C@]5(C)[C@@]4(F)[C@@H](O)C[C@]3(C)[C@]2(C(=O)CO)O1

>  <logBB>


>  <Class>
1

>  <MW>
452.2

>  <nHBAcc>
6

>  <nHBDon>
2

>  <SLogP>
2.37

>  <TopoPSA>
93.06

>  <MMFF94 Energy>
169.41

$$$$
CC1(C)O[C@@H]2C[C@H]3[C@@H]4C[C@H](F)C5=CC(=O)CC[C@]5(C)[C@H]4[C@@H](O)C[C@]3(C)[C@]2(C(=O)CO)O1
Actelion Java MolfileCreator 2.0

  0  0  0  0  0  0              0 V3000
M  V30 BEGIN CTAB
M  V30 COUNTS 64 68 0 0 0
M  V30 BEGIN ATOM
M  V30 1 F 1.2956 4.6215 1.2146 0
M  V30 2 C 1.3567 3.6301 0.2797 0 CFG=2
M  V30 3 C 0.2943 3.8042 -0.7774 0
M  V30 4 C 1.1288 2.303 0.9997 0
M  V30 5 C -0.6328 4.773 -0.6678 0
M  V30 6 C 0.2833 2.7183 -1.8632 0 CFG=1
M  V30 7 C 1.0114 1.1008 0.0418 0 CFG=2
M  V30 8 C -1.8355 4.7858 -1.5317 0
M  V30 9 C -0.0314 1.3734 -1.1036 0 CFG=2
M  V30 10 C -0.7683 3.0691 -2.955 0
M  V30 11 C 1.6495 2.7084 -2.596 0
M  V30 12 C 0.5754 -0.1609 0.7986 0 CFG=1
M  V30 13 O -2.6304 5.7185 -1.4574 0
M  V30 14 C -2.0863 3.5775 -2.3972 0
M  V30 15 C -0.2599 0.1219 -1.9977 0 CFG=1
M  V30 16 C 0.5248 -1.4301 -0.0853 0 CFG=2
M  V30 17 C 1.3784 -0.6068 2.0184 0
M  V30 18 O 0.8383 -0.0768 -2.8734 0
M  V30 19 C -0.5188 -1.1718 -1.1927 0
M  V30 20 C 0.1354 -2.4912 0.9933 0 CFG=1
M  V30 21 C 1.9002 -1.7945 -0.707 0
M  V30 22 C 0.9358 -2.069 2.2371 0 CFG=2
M  V30 23 O -1.2343 -2.3567 1.3877 0
M  V30 24 C 0.4154 -3.9407 0.5709 0
M  V30 25 O 0.0386 -2.1432 3.3437 0
M  V30 26 C -1.2638 -2.3772 2.8191 0
M  V30 27 O 1.48 -4.5165 0.8167 0
M  V30 28 C -0.6822 -4.6668 -0.1978 0
M  V30 29 C -2.2049 -1.283 3.3069 0
M  V30 30 C -1.7426 -3.7443 3.299 0
M  V30 31 O -0.1718 -5.8086 -0.8722 0
M  V30 32 H 2.3581 3.6758 -0.1573 0
M  V30 33 H 1.9501 2.1444 1.709 0
M  V30 34 H 0.2212 2.3827 1.6139 0
M  V30 35 H -0.6098 5.5234 0.1159 0
M  V30 36 H 2.0025 0.9383 -0.3911 0
M  V30 37 H -0.9961 1.5251 -0.5921 0
M  V30 38 H -0.9502 2.2188 -3.6199 0
M  V30 39 H -0.3615 3.8609 -3.6021 0
M  V30 40 H 1.6051 2.135 -3.5276 0
M  V30 41 H 2.4617 2.2914 -1.9955 0
M  V30 42 H 1.9495 3.7269 -2.8739 0
M  V30 43 H -0.4415 0.0495 1.1635 0
M  V30 44 H -2.7401 3.8725 -3.2251 0
M  V30 45 H -2.6029 2.8151 -1.8061 0
M  V30 46 H -1.1395 0.2913 -2.6283 0
M  V30 47 H 2.4519 -0.5632 1.8036 0
M  V30 48 H 1.1781 0.0231 2.891 0
M  V30 49 H 0.6103 -0.7995 -3.4847 0
M  V30 50 H -1.5194 -1.0924 -0.7501 0
M  V30 51 H -0.5419 -2.0248 -1.8802 0
M  V30 52 H 1.7952 -2.6248 -1.4147 0
M  V30 53 H 2.6304 -2.1051 0.0474 0
M  V30 54 H 2.3619 -0.9694 -1.2517 0
M  V30 55 H 1.81 -2.6875 2.4609 0
M  V30 56 H -1.4544 -4.9938 0.5027 0
M  V30 57 H -1.1239 -4.0081 -0.946 0
M  V30 58 H -1.8525 -0.2966 2.9872 0
M  V30 59 H -2.2584 -1.2624 4.4006 0
M  V30 60 H -3.2127 -1.4138 2.8992 0
M  V30 61 H -1.0403 -4.5309 3.0034 0
M  V30 62 H -1.8119 -3.7788 4.3916 0
M  V30 63 H -2.7168 -3.9979 2.8684 0
M  V30 64 H 0.5569 -6.1518 -0.3167 0
M  V30 END ATOM
M  V30 BEGIN BOND
M  V30 1 1 1 2
M  V30 2 1 2 3
M  V30 3 1 2 4
M  V30 4 2 3 5
M  V30 5 1 3 6
M  V30 6 1 4 7
M  V30 7 1 5 8
M  V30 8 1 6 9
M  V30 9 1 6 10
M  V30 10 1 6 11
M  V30 11 1 7 12
M  V30 12 2 8 13
M  V30 13 1 8 14
M  V30 14 1 9 15
M  V30 15 1 12 16
M  V30 16 1 12 17
M  V30 17 1 15 18
M  V30 18 1 15 19
M  V30 19 1 16 20
M  V30 20 1 16 21
M  V30 21 1 17 22
M  V30 22 1 20 23
M  V30 23 1 20 24
M  V30 24 1 22 25
M  V30 25 1 23 26
M  V30 26 2 24 27
M  V30 27 1 24 28
M  V30 28 1 26 29
M  V30 29 1 26 30
M  V30 30 1 28 31
M  V30 31 1 7 9
M  V30 32 1 10 14
M  V30 33 1 16 19
M  V30 34 1 20 22
M  V30 35 1 25 26
M  V30 36 1 2 32
M  V30 37 1 4 33
M  V30 38 1 4 34
M  V30 39 1 5 35
M  V30 40 1 7 36
M  V30 41 1 9 37
M  V30 42 1 10 38
M  V30 43 1 10 39
M  V30 44 1 11 40
M  V30 45 1 11 41
M  V30 46 1 11 42
M  V30 47 1 12 43
M  V30 48 1 14 44
M  V30 49 1 14 45
M  V30 50 1 15 46
M  V30 51 1 17 47
M  V30 52 1 17 48
M  V30 53 1 18 49
M  V30 54 1 19 50
M  V30 55 1 19 51
M  V30 56 1 21 52
M  V30 57 1 21 53
M  V30 58 1 21 54
M  V30 59 1 22 55
M  V30 60 1 28 56
M  V30 61 1 28 57
M  V30 62 1 29 58
M  V30 63 1 29 59
M  V30 64 1 29 60
M  V30 65 1 30 61
M  V30 66 1 30 62
M  V30 67 1 30 63
M  V30 68 1 31 64
M  V30 END BOND
M  V30 BEGIN COLLECTION
M  V30 MDLV30/STEABS ATOMS=(9 2 6 7 9 12 15 16 20 22)
M  V30 END COLLECTION
M  V30 END CTAB
M  END
>  <NO.>
1341

>  <Name>
flurandrenolide

>  <SMILES>
CC1(C)O[C@@H]2C[C@H]3[C@@H]4C[C@H](F)C5=CC(=O)CC[C@]5(C)[C@H]4[C@@H](O)C[C@]3(C)[C@]2(C(=O)CO)O1

>  <logBB>


>  <Class>
1

>  <MW>
436.23

>  <nHBAcc>
6

>  <nHBDon>
2

>  <SLogP>
2.5

>  <TopoPSA>
93.06

>  <MMFF94 Energy>
129.76

$$$$
CC1(C)SC2C(N(C(=N)c3ccncc3)[C@H](C(=O)NC(=O)CN)c3ccccc3)C(=O)N2C1C(=O)O
Actelion Java MolfileCreator 2.0

  0  0  0  0  0  0              0 V3000
M  V30 BEGIN CTAB
M  V30 COUNTS 62 65 0 0 0
M  V30 BEGIN ATOM
M  V30 1 S 1.0512 -1.2131 -3.1563 0
M  V30 2 C -0.3895 -1.2644 -4.3433 0
M  V30 3 C 4.0E-4 -1.3086 -1.6491 0
M  V30 4 C -1.6461 -1.612 -3.5123 0
M  V30 5 C -0.5189 0.1404 -4.9561 0
M  V30 6 C -0.0612 -2.2617 -5.4593 0
M  V30 7 N -1.3589 -1.1833 -2.1606 0
M  V30 8 C -0.2216 0.0337 -0.892 0
M  V30 9 C -1.9738 -3.1007 -3.4685 0
M  V30 10 C -1.5879 0.0508 -1.6463 0
M  V30 11 N -0.2273 -0.0862 0.5653 0
M  V30 12 O -1.502 -3.9427 -2.7201 0
M  V30 13 O -2.8639 -3.4634 -4.417 0
M  V30 14 O -2.4762 0.8433 -1.8538 0
M  V30 15 C -1.4328 -0.3118 1.1915 0
M  V30 16 C 0.9885 0.2184 1.3457 0 CFG=1
M  V30 17 N -2.0504 -1.4449 1.1097 0
M  V30 18 C -2.0278 0.744 2.0569 0
M  V30 19 C 2.1683 -0.6164 0.8644 0
M  V30 20 C 1.2365 1.7459 1.4208 0
M  V30 21 C -1.9854 2.0814 1.6703 0
M  V30 22 C -2.6001 0.3832 3.2737 0
M  V30 23 C 2.2403 -1.9675 1.2563 0
M  V30 24 C 3.1637 -0.1208 0.009 0
M  V30 25 O 1.4066 2.4377 0.4189 0
M  V30 26 N 1.1887 2.2504 2.7119 0
M  V30 27 C -2.4592 3.0216 2.5646 0
M  V30 28 C -3.0475 1.3978 4.0961 0
M  V30 29 C 3.2806 -2.7882 0.8189 0
M  V30 30 C 4.204 -0.9448 -0.4269 0
M  V30 31 C 1.2692 3.5823 3.0846 0
M  V30 32 N -2.945 2.7114 3.7885 0
M  V30 33 C 4.2634 -2.2753 -0.0215 0
M  V30 34 O 1.5726 4.5235 2.3634 0
M  V30 35 C 0.9951 3.7628 4.5816 0
M  V30 36 N 0.2265 2.61 5.1097 0
M  V30 37 H 0.1464 -2.2074 -1.0442 0
M  V30 38 H -2.5329 -1.0723 -3.866 0
M  V30 39 H -1.3598 0.1755 -5.6586 0
M  V30 40 H -0.6962 0.9126 -4.1999 0
M  V30 41 H 0.381 0.4235 -5.5149 0
M  V30 42 H 0.1473 -3.2659 -5.0741 0
M  V30 43 H 0.8171 -1.946 -6.0349 0
M  V30 44 H -0.8958 -2.3411 -6.1652 0
M  V30 45 H 0.417 0.86 -1.2218 0
M  V30 46 H -2.9971 -4.4238 -4.2658 0
M  V30 47 H 0.809 -0.1147 2.3785 0
M  V30 48 H -1.5285 -2.0866 0.5073 0
M  V30 49 H -1.6002 2.3905 0.7042 0
M  V30 50 H -2.6836 -0.656 3.5717 0
M  V30 51 H 1.473 -2.3963 1.8998 0
M  V30 52 H 3.1461 0.9065 -0.3505 0
M  V30 53 H 0.9437 1.647 3.4938 0
M  V30 54 H -2.4489 4.0807 2.3192 0
M  V30 55 H -3.501 1.1791 5.059 0
M  V30 56 H 3.3197 -3.8301 1.127 0
M  V30 57 H 4.964 -0.5468 -1.0955 0
M  V30 58 H 5.0711 -2.9137 -0.3698 0
M  V30 59 H 1.9575 3.827 5.0979 0
M  V30 60 H 0.4323 4.6877 4.738 0
M  V30 61 H -0.7498 2.7288 4.799 0
M  V30 62 H 0.1621 2.7256 6.1251 0
M  V30 END ATOM
M  V30 BEGIN BOND
M  V30 1 1 1 2
M  V30 2 1 1 3
M  V30 3 1 2 4
M  V30 4 1 2 5
M  V30 5 1 2 6
M  V30 6 1 3 7
M  V30 7 1 3 8
M  V30 8 1 4 9
M  V30 9 1 7 10
M  V30 10 1 8 11
M  V30 11 2 9 12
M  V30 12 1 9 13
M  V30 13 2 10 14
M  V30 14 1 11 15
M  V30 15 1 11 16
M  V30 16 2 15 17
M  V30 17 1 15 18
M  V30 18 1 16 19
M  V30 19 1 16 20
M  V30 20 2 18 21
M  V30 21 1 18 22
M  V30 22 2 19 23
M  V30 23 1 19 24
M  V30 24 2 20 25
M  V30 25 1 20 26
M  V30 26 1 21 27
M  V30 27 2 22 28
M  V30 28 1 23 29
M  V30 29 2 24 30
M  V30 30 1 26 31
M  V30 31 2 27 32
M  V30 32 2 29 33
M  V30 33 2 31 34
M  V30 34 1 31 35
M  V30 35 1 35 36
M  V30 36 1 4 7
M  V30 37 1 8 10
M  V30 38 1 28 32
M  V30 39 1 30 33
M  V30 40 1 3 37
M  V30 41 1 4 38
M  V30 42 1 5 39
M  V30 43 1 5 40
M  V30 44 1 5 41
M  V30 45 1 6 42
M  V30 46 1 6 43
M  V30 47 1 6 44
M  V30 48 1 8 45
M  V30 49 1 13 46
M  V30 50 1 16 47
M  V30 51 1 17 48
M  V30 52 1 21 49
M  V30 53 1 22 50
M  V30 54 1 23 51
M  V30 55 1 24 52
M  V30 56 1 26 53
M  V30 57 1 27 54
M  V30 58 1 28 55
M  V30 59 1 29 56
M  V30 60 1 30 57
M  V30 61 1 33 58
M  V30 62 1 35 59
M  V30 63 1 35 60
M  V30 64 1 36 61
M  V30 65 1 36 62
M  V30 END BOND
M  V30 BEGIN COLLECTION
M  V30 MDLV30/STEABS ATOMS=(1 16)
M  V30 END COLLECTION
M  V30 END CTAB
M  END
>  <NO.>
1342

>  <Name>
pirbenicillin

>  <SMILES>
CC1(C)SC2C(N(C(=N)c3ccncc3)[C@H](C(=O)NC(=O)CN)c3ccccc3)C(=O)N2C1C(=O)O

>  <logBB>


>  <Class>
-1

>  <MW>
510.17

>  <nHBAcc>
8

>  <nHBDon>
4

>  <SLogP>
0.57

>  <TopoPSA>
169.78

>  <MMFF94 Energy>
94.424

$$$$
CC1(C)SC2C(NC(=O)CSc3ccccc3)C(=O)N2C1C(=O)O
Actelion Java MolfileCreator 2.0

  0  0  0  0  0  0              0 V3000
M  V30 BEGIN CTAB
M  V30 COUNTS 42 44 0 0 0
M  V30 BEGIN ATOM
M  V30 1 S -2.3134 -2.9751 0.7431 0
M  V30 2 C -3.8537 -2.214 -0.0217 0
M  V30 3 C -1.3201 -1.4163 0.6683 0
M  V30 4 C -3.6335 -0.6924 0.1185 0
M  V30 5 C -3.9517 -2.7508 -1.4555 0
M  V30 6 C -5.0543 -2.6967 0.8016 0
M  V30 7 N -2.2041 -0.4711 -0.019 0
M  V30 8 C -0.3517 -1.3101 -0.5416 0
M  V30 9 C -4.4734 0.274 -0.7156 0
M  V30 10 C -1.5111 -0.5083 -1.191 0
M  V30 11 N 0.8966 -0.5262 -0.3338 0
M  V30 12 O -4.2109 1.4452 -0.9466 0
M  V30 13 O -5.6629 -0.2175 -1.1105 0
M  V30 14 O -1.7942 -0.1257 -2.3015 0
M  V30 15 C 1.8302 -0.8811 0.6143 0
M  V30 16 O 1.6867 -1.8636 1.3375 0
M  V30 17 C 3.0721 -0.0095 0.6538 0
M  V30 18 S 2.6111 1.7235 0.9895 0
M  V30 19 C 4.2017 2.5023 0.7835 0
M  V30 20 C 5.306 2.1288 1.5562 0
M  V30 21 C 4.3385 3.5314 -0.1533 0
M  V30 22 C 6.5386 2.7608 1.3758 0
M  V30 23 C 5.5712 4.1625 -0.3336 0
M  V30 24 C 6.6715 3.7747 0.4287 0
M  V30 25 H -0.9666 -1.0431 1.6332 0
M  V30 26 H -3.8593 -0.4051 1.1567 0
M  V30 27 H -4.8509 -2.3877 -1.9621 0
M  V30 28 H -3.0951 -2.4721 -2.0749 0
M  V30 29 H -4.0152 -3.8461 -1.4646 0
M  V30 30 H -5.9929 -2.2959 0.4047 0
M  V30 31 H -5.1416 -3.7896 0.7866 0
M  V30 32 H -4.9842 -2.3817 1.8494 0
M  V30 33 H -0.1371 -2.2488 -1.0643 0
M  V30 34 H 1.0454 0.3356 -0.8517 0
M  V30 35 H -6.0652 0.5317 -1.6022 0
M  V30 36 H 3.7344 -0.3822 1.4408 0
M  V30 37 H 3.5828 -0.0854 -0.3114 0
M  V30 38 H 5.2188 1.356 2.3157 0
M  V30 39 H 3.4882 3.852 -0.751 0
M  V30 40 H 7.393 2.467 1.9805 0
M  V30 41 H 5.6705 4.9602 -1.0655 0
M  V30 42 H 7.6301 4.2687 0.291 0
M  V30 END ATOM
M  V30 BEGIN BOND
M  V30 1 1 1 2
M  V30 2 1 1 3
M  V30 3 1 2 4
M  V30 4 1 2 5
M  V30 5 1 2 6
M  V30 6 1 3 7
M  V30 7 1 3 8
M  V30 8 1 4 9
M  V30 9 1 7 10
M  V30 10 1 8 11
M  V30 11 2 9 12
M  V30 12 1 9 13
M  V30 13 2 10 14
M  V30 14 1 11 15
M  V30 15 2 15 16
M  V30 16 1 15 17
M  V30 17 1 17 18
M  V30 18 1 18 19
M  V30 19 2 19 20
M  V30 20 1 19 21
M  V30 21 1 20 22
M  V30 22 2 21 23
M  V30 23 2 22 24
M  V30 24 1 4 7
M  V30 25 1 8 10
M  V30 26 1 23 24
M  V30 27 1 3 25
M  V30 28 1 4 26
M  V30 29 1 5 27
M  V30 30 1 5 28
M  V30 31 1 5 29
M  V30 32 1 6 30
M  V30 33 1 6 31
M  V30 34 1 6 32
M  V30 35 1 8 33
M  V30 36 1 11 34
M  V30 37 1 13 35
M  V30 38 1 17 36
M  V30 39 1 17 37
M  V30 40 1 20 38
M  V30 41 1 21 39
M  V30 42 1 22 40
M  V30 43 1 23 41
M  V30 44 1 24 42
M  V30 END BOND
M  V30 END CTAB
M  END
>  <NO.>
1343

>  <Name>
thiphencillin

>  <SMILES>
CC1(C)SC2C(NC(=O)CSc3ccccc3)C(=O)N2C1C(=O)O

>  <logBB>


>  <Class>
-1

>  <MW>
366.07

>  <nHBAcc>
5

>  <nHBDon>
2

>  <SLogP>
1.41

>  <TopoPSA>
86.71

>  <MMFF94 Energy>
57.716

$$$$
CC1(C)SC2C(NC(=O)Cc3ccccc3)C(=O)N2C1C(=O)O
Actelion Java MolfileCreator 2.0

  0  0  0  0  0  0              0 V3000
M  V30 BEGIN CTAB
M  V30 COUNTS 41 43 0 0 0
M  V30 BEGIN ATOM
M  V30 1 S -0.6515 -0.4072 2.9346 0
M  V30 2 C 0.9881 -0.3594 3.8288 0
M  V30 3 C 0.1727 -0.7361 1.335 0
M  V30 4 C 1.95 0.3152 2.8196 0
M  V30 5 C 0.8101 0.3742 5.1617 0
M  V30 6 C 1.4283 -1.806 4.1138 0
M  V30 7 N 1.4787 -0.1052 1.5067 0
M  V30 8 C -0.074 0.2433 0.1548 0
M  V30 9 C 1.9283 1.8427 2.9647 0
M  V30 10 C 1.4292 0.6377 0.3779 0
M  V30 11 N -0.3438 -0.3473 -1.1858 0
M  V30 12 O 1.0712 2.615 2.5653 0
M  V30 13 O 2.99 2.3085 3.6578 0
M  V30 14 O 2.2451 1.3698 -0.1284 0
M  V30 15 C -1.2928 -1.3226 -1.3908 0
M  V30 16 O -1.9333 -1.8234 -0.4704 0
M  V30 17 C -1.4348 -1.7932 -2.8281 0
M  V30 18 C -1.6676 -0.6736 -3.8146 0
M  V30 19 C -2.8273 0.1107 -3.7342 0
M  V30 20 C -0.7297 -0.4013 -4.8204 0
M  V30 21 C -3.0382 1.1546 -4.6357 0
M  V30 22 C -0.9439 0.6435 -5.7207 0
M  V30 23 C -2.0963 1.4217 -5.6272 0
M  V30 24 H 0.2715 -1.7962 1.0795 0
M  V30 25 H 2.9839 -0.0324 2.9237 0
M  V30 26 H 0.38 1.3744 5.0403 0
M  V30 27 H 0.148 -0.1806 5.8375 0
M  V30 28 H 1.7737 0.4857 5.672 0
M  V30 29 H 1.5619 -2.3942 3.1993 0
M  V30 30 H 2.3887 -1.8143 4.6427 0
M  V30 31 H 0.7033 -2.3313 4.7467 0
M  V30 32 H -0.7608 1.0734 0.3577 0
M  V30 33 H 0.1245 0.0464 -1.997 0
M  V30 34 H 2.871 3.283 3.6396 0
M  V30 35 H -2.2739 -2.4967 -2.8876 0
M  V30 36 H -0.5283 -2.3547 -3.084 0
M  V30 37 H -3.5745 -0.0851 -2.9665 0
M  V30 38 H 0.1736 -1.0 -4.9149 0
M  V30 39 H -3.9389 1.7595 -4.5647 0
M  V30 40 H -0.2127 0.85 -6.4983 0
M  V30 41 H -2.2623 2.2348 -6.3293 0
M  V30 END ATOM
M  V30 BEGIN BOND
M  V30 1 1 1 2
M  V30 2 1 1 3
M  V30 3 1 2 4
M  V30 4 1 2 5
M  V30 5 1 2 6
M  V30 6 1 3 7
M  V30 7 1 3 8
M  V30 8 1 4 9
M  V30 9 1 7 10
M  V30 10 1 8 11
M  V30 11 2 9 12
M  V30 12 1 9 13
M  V30 13 2 10 14
M  V30 14 1 11 15
M  V30 15 2 15 16
M  V30 16 1 15 17
M  V30 17 1 17 18
M  V30 18 2 18 19
M  V30 19 1 18 20
M  V30 20 1 19 21
M  V30 21 2 20 22
M  V30 22 2 21 23
M  V30 23 1 4 7
M  V30 24 1 8 10
M  V30 25 1 22 23
M  V30 26 1 3 24
M  V30 27 1 4 25
M  V30 28 1 5 26
M  V30 29 1 5 27
M  V30 30 1 5 28
M  V30 31 1 6 29
M  V30 32 1 6 30
M  V30 33 1 6 31
M  V30 34 1 8 32
M  V30 35 1 11 33
M  V30 36 1 13 34
M  V30 37 1 17 35
M  V30 38 1 17 36
M  V30 39 1 19 37
M  V30 40 1 20 38
M  V30 41 1 21 39
M  V30 42 1 22 40
M  V30 43 1 23 41
M  V30 END BOND
M  V30 END CTAB
M  END
>  <NO.>
1344

>  <Name>
penicillin

>  <SMILES>
CC1(C)SC2C(NC(=O)Cc3ccccc3)C(=O)N2C1C(=O)O

>  <logBB>


>  <Class>
-1

>  <MW>
334.1

>  <nHBAcc>
4

>  <nHBDon>
2

>  <SLogP>
0.86

>  <TopoPSA>
86.71

>  <MMFF94 Energy>
62.04

$$$$
CC1(C)S[C@@H]2C(NC(=O)[C@H](NC(=O)c3c[nH]c4cccnc4c3=O)c3ccccc3)C(=O)N2[C@H]1C(=O)O
Actelion Java MolfileCreator 2.0

  0  0  0  0  0  0              0 V3000
M  V30 BEGIN CTAB
M  V30 COUNTS 60 64 0 0 0
M  V30 BEGIN ATOM
M  V30 1 S -2.3665 1.8765 -3.1018 0
M  V30 2 C -2.6798 3.7069 -3.2741 0
M  V30 3 C -1.5372 2.0203 -1.4643 0 CFG=1
M  V30 4 C -1.8872 4.4084 -2.147 0 CFG=1
M  V30 5 C -2.2925 4.1321 -4.6946 0
M  V30 6 C -4.1912 3.9255 -3.0866 0
M  V30 7 N -1.7224 3.4224 -1.0995 0
M  V30 8 C -2.4164 1.6461 -0.2342 0
M  V30 9 C -0.5059 4.8991 -2.5676 0
M  V30 10 C -2.5869 3.1861 -0.0842 0
M  V30 11 N -1.7253 0.9922 0.9113 0
M  V30 12 O 0.5327 4.2594 -2.6077 0
M  V30 13 O -0.5155 6.1907 -2.964 0
M  V30 14 O -3.2583 3.9414 0.5781 0
M  V30 15 C -1.0838 -0.2227 0.768 0
M  V30 16 O -1.0627 -0.8136 -0.3116 0
M  V30 17 C -0.4401 -0.7753 2.0678 0 CFG=2
M  V30 18 N 0.7749 -1.4949 1.7424 0
M  V30 19 C -1.4029 -1.6578 2.8398 0
M  V30 20 C 1.9417 -0.8397 1.4685 0
M  V30 21 C -2.0408 -2.7511 2.2305 0
M  V30 22 C -1.6533 -1.405 4.1982 0
M  V30 23 O 2.0454 0.3817 1.5597 0
M  V30 24 C 3.0813 -1.6986 1.0422 0
M  V30 25 C -2.9192 -3.5572 2.9563 0
M  V30 26 C -2.5329 -2.213 4.9215 0
M  V30 27 C 3.0225 -3.1891 0.9365 0
M  V30 28 C 4.2413 -1.0987 0.7225 0
M  V30 29 C -3.1669 -3.2865 4.3001 0
M  V30 30 O 1.9911 -3.7982 1.2155 0
M  V30 31 C 4.2608 -3.8967 0.4836 0
M  V30 32 N 5.3776 -1.7431 0.3082 0
M  V30 33 N 4.2029 -5.2518 0.393 0
M  V30 34 C 5.3962 -3.1328 0.1839 0
M  V30 35 C 5.3264 -5.8733 -0.0171 0
M  V30 36 C 6.5341 -3.8185 -0.2338 0
M  V30 37 C 6.5011 -5.2089 -0.3376 0
M  V30 38 H -0.4887 1.7105 -1.4418 0
M  V30 39 H -2.4406 5.2599 -1.732 0
M  V30 40 H -2.4392 5.2099 -4.8297 0
M  V30 41 H -2.9098 3.6276 -5.4477 0
M  V30 42 H -1.2463 3.9053 -4.9279 0
M  V30 43 H -4.5448 3.5877 -2.1064 0
M  V30 44 H -4.4371 4.9908 -3.1702 0
M  V30 45 H -4.7752 3.3984 -3.8505 0
M  V30 46 H -3.3604 1.1364 -0.4585 0
M  V30 47 H -1.7233 1.4438 1.8197 0
M  V30 48 H 0.4207 6.3737 -3.1945 0
M  V30 49 H -0.1612 0.0873 2.6872 0
M  V30 50 H 0.7306 -2.5071 1.6145 0
M  V30 51 H -1.8545 -2.9868 1.1829 0
M  V30 52 H -1.1593 -0.5806 4.7083 0
M  V30 53 H -3.4051 -4.4004 2.4718 0
M  V30 54 H -2.7189 -2.0089 5.973 0
M  V30 55 H 4.3544 -0.0168 0.7711 0
M  V30 56 H -3.8483 -3.9179 4.8644 0
M  V30 57 H 6.1994 -1.1968 0.0768 0
M  V30 58 H 5.2581 -6.956 -0.0845 0
M  V30 59 H 7.4469 -3.2844 -0.4805 0
M  V30 60 H 7.3749 -5.7642 -0.6623 0
M  V30 END ATOM
M  V30 BEGIN BOND
M  V30 1 1 1 2
M  V30 2 1 1 3
M  V30 3 1 2 4
M  V30 4 1 2 5
M  V30 5 1 2 6
M  V30 6 1 3 7
M  V30 7 1 3 8
M  V30 8 1 4 9
M  V30 9 1 7 10
M  V30 10 1 8 11
M  V30 11 2 9 12
M  V30 12 1 9 13
M  V30 13 2 10 14
M  V30 14 1 11 15
M  V30 15 2 15 16
M  V30 16 1 15 17
M  V30 17 1 17 18
M  V30 18 1 17 19
M  V30 19 1 18 20
M  V30 20 2 19 21
M  V30 21 1 19 22
M  V30 22 2 20 23
M  V30 23 1 20 24
M  V30 24 1 21 25
M  V30 25 2 22 26
M  V30 26 1 24 27
M  V30 27 2 24 28
M  V30 28 2 25 29
M  V30 29 2 27 30
M  V30 30 1 27 31
M  V30 31 1 28 32
M  V30 32 2 31 33
M  V30 33 1 31 34
M  V30 34 1 33 35
M  V30 35 2 34 36
M  V30 36 2 35 37
M  V30 37 1 4 7
M  V30 38 1 8 10
M  V30 39 1 26 29
M  V30 40 1 32 34
M  V30 41 1 36 37
M  V30 42 1 3 38
M  V30 43 1 4 39
M  V30 44 1 5 40
M  V30 45 1 5 41
M  V30 46 1 5 42
M  V30 47 1 6 43
M  V30 48 1 6 44
M  V30 49 1 6 45
M  V30 50 1 8 46
M  V30 51 1 11 47
M  V30 52 1 13 48
M  V30 53 1 17 49
M  V30 54 1 18 50
M  V30 55 1 21 51
M  V30 56 1 22 52
M  V30 57 1 25 53
M  V30 58 1 26 54
M  V30 59 1 28 55
M  V30 60 1 29 56
M  V30 61 1 32 57
M  V30 62 1 35 58
M  V30 63 1 36 59
M  V30 64 1 37 60
M  V30 END BOND
M  V30 BEGIN COLLECTION
M  V30 MDLV30/STEABS ATOMS=(3 3 4 17)
M  V30 END COLLECTION
M  V30 END CTAB
M  END
>  <NO.>
1345

>  <Name>
apalcillin

>  <SMILES>
CC1(C)S[C@@H]2C(NC(=O)[C@H](NC(=O)c3c[nH]c4cccnc4c3=O)c3ccccc3)C(=O)N2[C@H]1C(=O)O

>  <logBB>


>  <Class>
-1

>  <MW>
521.14

>  <nHBAcc>
7

>  <nHBDon>
4

>  <SLogP>
1.03

>  <TopoPSA>
161.56

>  <MMFF94 Energy>
134.45

$$$$
CC1(C)S[C@@H]2[C@@H](N3C(=O)C(c4ccc(O)cc4)NC3(C)C)C(=O)N2[C@H]1C(=O)O
Actelion Java MolfileCreator 2.0

  0  0  0  0  0  0              0 V3000
M  V30 BEGIN CTAB
M  V30 COUNTS 51 54 0 0 0
M  V30 BEGIN ATOM
M  V30 1 S 0.1624 1.2187 -3.6595 0
M  V30 2 C 1.6529 0.1951 -4.1416 0
M  V30 3 C 0.0553 0.3596 -2.0316 0 CFG=1
M  V30 4 C 2.4319 0.043 -2.819 0 CFG=1
M  V30 5 C 1.1421 -1.1243 -4.7356 0
M  V30 6 C 2.457 0.9682 -5.1888 0
M  V30 7 N 1.452 0.0431 -1.7493 0
M  V30 8 C 0.0664 1.2814 -0.7833 0 CFG=2
M  V30 9 C 3.3238 -1.1881 -2.7603 0
M  V30 10 C 1.5391 0.8013 -0.6272 0
M  V30 11 N -0.8377 0.9664 0.352 0
M  V30 12 O 3.0214 -2.3105 -2.3899 0
M  V30 13 O 4.5613 -0.9533 -3.2484 0
M  V30 14 O 2.4875 1.0864 0.0663 0
M  V30 15 C -1.1859 -0.3161 0.7554 0
M  V30 16 C -1.4283 1.9802 1.1879 0
M  V30 17 O -0.8578 -1.3567 0.2095 0
M  V30 18 C -2.093 -0.1575 1.9648 0
M  V30 19 N -1.927 1.2519 2.3535 0
M  V30 20 C -0.4077 3.0047 1.6953 0
M  V30 21 C -2.5853 2.6832 0.466 0
M  V30 22 C -1.7762 -1.0861 3.1126 0
M  V30 23 C -2.7702 -1.9312 3.6321 0
M  V30 24 C -0.4958 -1.1173 3.6933 0
M  V30 25 C -2.4883 -2.7881 4.6981 0
M  V30 26 C -0.2132 -1.9763 4.7581 0
M  V30 27 C -1.2143 -2.8055 5.2509 0
M  V30 28 O -0.9825 -3.6594 6.2886 0
M  V30 29 H -0.5967 -0.5151 -2.0326 0
M  V30 30 H 3.0772 0.916 -2.6452 0
M  V30 31 H 0.5804 -1.719 -4.0066 0
M  V30 32 H 0.4896 -0.9494 -5.5996 0
M  V30 33 H 1.9749 -1.7427 -5.0894 0
M  V30 34 H 1.8709 1.1459 -6.098 0
M  V30 35 H 3.3512 0.4071 -5.4827 0
M  V30 36 H 2.7923 1.9408 -4.81 0
M  V30 37 H 0.0182 2.3489 -1.0332 0
M  V30 38 H 5.0251 -1.8096 -3.1251 0
M  V30 39 H -3.1186 -0.3138 1.6058 0
M  V30 40 H -2.8024 1.6275 2.7057 0
M  V30 41 H -0.005 3.6124 0.8779 0
M  V30 42 H -0.8593 3.6938 2.4191 0
M  V30 43 H 0.4428 2.5139 2.1837 0
M  V30 44 H -2.2278 3.2223 -0.4185 0
M  V30 45 H -3.3407 1.9668 0.1218 0
M  V30 46 H -3.0832 3.4095 1.1188 0
M  V30 47 H -3.7722 -1.9338 3.2097 0
M  V30 48 H 0.2917 -0.4671 3.3153 0
M  V30 49 H -3.2596 -3.4427 5.0937 0
M  V30 50 H 0.7851 -1.9806 5.1831 0
M  V30 51 H -0.047 -3.5872 6.5392 0
M  V30 END ATOM
M  V30 BEGIN BOND
M  V30 1 1 1 2
M  V30 2 1 1 3
M  V30 3 1 2 4
M  V30 4 1 2 5
M  V30 5 1 2 6
M  V30 6 1 3 7
M  V30 7 1 3 8
M  V30 8 1 4 9
M  V30 9 1 7 10
M  V30 10 1 8 11
M  V30 11 2 9 12
M  V30 12 1 9 13
M  V30 13 2 10 14
M  V30 14 1 11 15
M  V30 15 1 11 16
M  V30 16 2 15 17
M  V30 17 1 15 18
M  V30 18 1 16 19
M  V30 19 1 16 20
M  V30 20 1 16 21
M  V30 21 1 18 22
M  V30 22 2 22 23
M  V30 23 1 22 24
M  V30 24 1 23 25
M  V30 25 2 24 26
M  V30 26 2 25 27
M  V30 27 1 27 28
M  V30 28 1 4 7
M  V30 29 1 8 10
M  V30 30 1 18 19
M  V30 31 1 26 27
M  V30 32 1 3 29
M  V30 33 1 4 30
M  V30 34 1 5 31
M  V30 35 1 5 32
M  V30 36 1 5 33
M  V30 37 1 6 34
M  V30 38 1 6 35
M  V30 39 1 6 36
M  V30 40 1 8 37
M  V30 41 1 13 38
M  V30 42 1 18 39
M  V30 43 1 19 40
M  V30 44 1 20 41
M  V30 45 1 20 42
M  V30 46 1 20 43
M  V30 47 1 21 44
M  V30 48 1 21 45
M  V30 49 1 21 46
M  V30 50 1 23 47
M  V30 51 1 24 48
M  V30 52 1 25 49
M  V30 53 1 26 50
M  V30 54 1 28 51
M  V30 END BOND
M  V30 BEGIN COLLECTION
M  V30 MDLV30/STEABS ATOMS=(3 3 4 8)
M  V30 END COLLECTION
M  V30 END CTAB
M  END
>  <NO.>
1346

>  <Name>
oxetacillin

>  <SMILES>
CC1(C)S[C@@H]2[C@@H](N3C(=O)C(c4ccc(O)cc4)NC3(C)C)C(=O)N2[C@H]1C(=O)O

>  <logBB>


>  <Class>
-1

>  <MW>
405.14

>  <nHBAcc>
6

>  <nHBDon>
3

>  <SLogP>
1.12

>  <TopoPSA>
110.18

>  <MMFF94 Energy>
41.636

$$$$
CC1(C)S[C@@H]2[C@H](N3C(=O)[C@@H](c4ccccc4)NC3(C)C)C(=O)N2[C@H]1C(=O)O
Actelion Java MolfileCreator 2.0

  0  0  0  0  0  0              0 V3000
M  V30 BEGIN CTAB
M  V30 COUNTS 50 53 0 0 0
M  V30 BEGIN ATOM
M  V30 1 S -1.9525 -0.4878 0.4065 0
M  V30 2 C -2.0679 -0.8087 2.2435 0
M  V30 3 C -1.8885 1.3202 0.6604 0 CFG=1
M  V30 4 C -1.2501 0.3281 2.8873 0 CFG=1
M  V30 5 C -3.5576 -0.8052 2.6128 0
M  V30 6 C -1.4544 -2.1799 2.5336 0
M  V30 7 N -1.3581 1.4773 2.008 0
M  V30 8 C -0.6703 2.1284 0.1445 0 CFG=1
M  V30 9 C -1.6926 0.6934 4.2965 0
M  V30 10 C -0.2995 2.2501 1.6513 0
M  V30 11 N 0.2971 1.4478 -0.7584 0
M  V30 12 O -2.5212 1.5319 4.6168 0
M  V30 13 O -1.1143 -0.0766 5.2422 0
M  V30 14 O 0.5899 2.7318 2.3114 0
M  V30 15 C 1.2482 0.5195 -0.3411 0
M  V30 16 C 0.4683 1.8082 -2.139 0
M  V30 17 O 1.3906 0.0836 0.7899 0
M  V30 18 C 2.0667 0.166 -1.5741 0 CFG=2
M  V30 19 N 1.2779 0.7197 -2.7034 0
M  V30 20 C -0.8618 1.8911 -2.8987 0
M  V30 21 C 1.2409 3.1269 -2.2837 0
M  V30 22 C 2.358 -1.3042 -1.7914 0
M  V30 23 C 1.5115 -2.321 -1.3226 0
M  V30 24 C 3.4852 -1.671 -2.5465 0
M  V30 25 C 1.7993 -3.6638 -1.5781 0
M  V30 26 C 3.7711 -3.0133 -2.8021 0
M  V30 27 C 2.9289 -4.0095 -2.3154 0
M  V30 28 H -2.8534 1.8227 0.5356 0
M  V30 29 H -0.1842 0.0696 2.9427 0
M  V30 30 H -4.0265 0.1684 2.4308 0
M  V30 31 H -3.7 -1.0452 3.6726 0
M  V30 32 H -4.1152 -1.5578 2.0425 0
M  V30 33 H -1.491 -2.402 3.606 0
M  V30 34 H -1.994 -2.9821 2.017 0
M  V30 35 H -0.4036 -2.2297 2.2256 0
M  V30 36 H -0.9572 3.1089 -0.2571 0
M  V30 37 H -1.4557 0.2863 6.0872 0
M  V30 38 H 3.0114 0.7183 -1.486 0
M  V30 39 H 0.6409 -0.0229 -2.9945 0
M  V30 40 H -1.4843 2.7136 -2.5297 0
M  V30 41 H -1.4457 0.9697 -2.788 0
M  V30 42 H -0.6987 2.0592 -3.9695 0
M  V30 43 H 0.6676 3.9657 -1.8727 0
M  V30 44 H 2.1972 3.1031 -1.7482 0
M  V30 45 H 1.4507 3.3527 -3.3355 0
M  V30 46 H 0.6207 -2.0854 -0.7445 0
M  V30 47 H 4.1471 -0.9047 -2.9459 0
M  V30 48 H 1.1396 -4.4398 -1.1986 0
M  V30 49 H 4.6496 -3.2798 -3.3835 0
M  V30 50 H 3.1514 -5.0547 -2.5121 0
M  V30 END ATOM
M  V30 BEGIN BOND
M  V30 1 1 1 2
M  V30 2 1 1 3
M  V30 3 1 2 4
M  V30 4 1 2 5
M  V30 5 1 2 6
M  V30 6 1 3 7
M  V30 7 1 3 8
M  V30 8 1 4 9
M  V30 9 1 7 10
M  V30 10 1 8 11
M  V30 11 2 9 12
M  V30 12 1 9 13
M  V30 13 2 10 14
M  V30 14 1 11 15
M  V30 15 1 11 16
M  V30 16 2 15 17
M  V30 17 1 15 18
M  V30 18 1 16 19
M  V30 19 1 16 20
M  V30 20 1 16 21
M  V30 21 1 18 22
M  V30 22 2 22 23
M  V30 23 1 22 24
M  V30 24 1 23 25
M  V30 25 2 24 26
M  V30 26 2 25 27
M  V30 27 1 4 7
M  V30 28 1 8 10
M  V30 29 1 18 19
M  V30 30 1 26 27
M  V30 31 1 3 28
M  V30 32 1 4 29
M  V30 33 1 5 30
M  V30 34 1 5 31
M  V30 35 1 5 32
M  V30 36 1 6 33
M  V30 37 1 6 34
M  V30 38 1 6 35
M  V30 39 1 8 36
M  V30 40 1 13 37
M  V30 41 1 18 38
M  V30 42 1 19 39
M  V30 43 1 20 40
M  V30 44 1 20 41
M  V30 45 1 20 42
M  V30 46 1 21 43
M  V30 47 1 21 44
M  V30 48 1 21 45
M  V30 49 1 23 46
M  V30 50 1 24 47
M  V30 51 1 25 48
M  V30 52 1 26 49
M  V30 53 1 27 50
M  V30 END BOND
M  V30 BEGIN COLLECTION
M  V30 MDLV30/STEABS ATOMS=(4 3 4 8 18)
M  V30 END COLLECTION
M  V30 END CTAB
M  END
>  <NO.>
1347

>  <Name>
hetacillin

>  <SMILES>
CC1(C)S[C@@H]2[C@H](N3C(=O)[C@@H](c4ccccc4)NC3(C)C)C(=O)N2[C@H]1C(=O)O

>  <logBB>


>  <Class>
-1

>  <MW>
389.14

>  <nHBAcc>
5

>  <nHBDon>
2

>  <SLogP>
1.41

>  <TopoPSA>
89.95

>  <MMFF94 Energy>
50.064

$$$$
CC1(C)S[C@@H]2[C@H](N=CN3CCCCCC3)C(=O)N2[C@H]1C(=O)O
Actelion Java MolfileCreator 2.0

  0  0  0  0  0  0              0 V3000
M  V30 BEGIN CTAB
M  V30 COUNTS 45 47 0 0 0
M  V30 BEGIN ATOM
M  V30 1 S 0.9708 -1.4565 2.1043 0
M  V30 2 C 2.8258 -1.641 2.1126 0
M  V30 3 C 1.099 0.3737 2.1523 0 CFG=1
M  V30 4 C 3.3164 -0.4521 1.26 0 CFG=1
M  V30 5 C 3.2904 -1.6016 3.5755 0
M  V30 6 C 3.1818 -2.9874 1.4786 0
M  V30 7 N 2.3627 0.6259 1.4601 0
M  V30 8 C 0.3927 1.2416 1.0752 0 CFG=1
M  V30 9 C 4.7603 -0.0545 1.5471 0
M  V30 10 C 1.8157 1.3351 0.4381 0
M  V30 11 N -0.6195 0.5237 0.2864 0
M  V30 12 O 5.7341 -0.7812 1.4113 0
M  V30 13 O 4.923 1.199 2.0162 0
M  V30 14 O 2.3074 1.7422 -0.5893 0
M  V30 15 C -0.9096 1.091 -0.8358 0
M  V30 16 N -1.8126 0.6253 -1.7611 0
M  V30 17 C -2.0609 1.3644 -2.9935 0
M  V30 18 C -2.4913 -0.6498 -1.5515 0
M  V30 19 C -3.4831 1.2324 -3.5376 0
M  V30 20 C -3.8221 -0.4219 -0.8387 0
M  V30 21 C -4.5781 1.4183 -2.4862 0
M  V30 22 C -4.9244 0.1257 -1.745 0
M  V30 23 H 1.0869 0.7992 3.161 0
M  V30 24 H 3.2863 -0.7038 0.1904 0
M  V30 25 H 4.37 -1.7738 3.651 0
M  V30 26 H 2.8053 -2.3836 4.1721 0
M  V30 27 H 3.0812 -0.6372 4.052 0
M  V30 28 H 2.7595 -3.8251 2.0459 0
M  V30 29 H 2.8168 -3.0619 0.4476 0
M  V30 30 H 4.2677 -3.13 1.4504 0
M  V30 31 H 0.0278 2.2028 1.4571 0
M  V30 32 H 5.8925 1.3044 2.109 0
M  V30 33 H -0.4331 2.0402 -1.1458 0
M  V30 34 H -1.867 2.4316 -2.8246 0
M  V30 35 H -1.3481 1.0353 -3.7586 0
M  V30 36 H -2.6372 -1.1801 -2.4999 0
M  V30 37 H -1.8679 -1.3156 -0.9422 0
M  V30 38 H -3.6101 1.9976 -4.3143 0
M  V30 39 H -3.6084 0.2694 -4.0472 0
M  V30 40 H -3.6861 0.2526 0.0157 0
M  V30 41 H -4.1681 -1.379 -0.4294 0
M  V30 42 H -4.3099 2.2104 -1.7773 0
M  V30 43 H -5.4875 1.7539 -3.0008 0
M  V30 44 H -5.8154 0.3049 -1.1302 0
M  V30 45 H -5.2068 -0.6445 -2.4738 0
M  V30 END ATOM
M  V30 BEGIN BOND
M  V30 1 1 1 2
M  V30 2 1 1 3
M  V30 3 1 2 4
M  V30 4 1 2 5
M  V30 5 1 2 6
M  V30 6 1 3 7
M  V30 7 1 3 8
M  V30 8 1 4 9
M  V30 9 1 7 10
M  V30 10 1 8 11
M  V30 11 2 9 12
M  V30 12 1 9 13
M  V30 13 2 10 14
M  V30 14 2 11 15
M  V30 15 1 15 16
M  V30 16 1 16 17
M  V30 17 1 16 18
M  V30 18 1 17 19
M  V30 19 1 18 20
M  V30 20 1 19 21
M  V30 21 1 20 22
M  V30 22 1 4 7
M  V30 23 1 8 10
M  V30 24 1 21 22
M  V30 25 1 3 23
M  V30 26 1 4 24
M  V30 27 1 5 25
M  V30 28 1 5 26
M  V30 29 1 5 27
M  V30 30 1 6 28
M  V30 31 1 6 29
M  V30 32 1 6 30
M  V30 33 1 8 31
M  V30 34 1 13 32
M  V30 35 1 15 33
M  V30 36 1 17 34
M  V30 37 1 17 35
M  V30 38 1 18 36
M  V30 39 1 18 37
M  V30 40 1 19 38
M  V30 41 1 19 39
M  V30 42 1 20 40
M  V30 43 1 20 41
M  V30 44 1 21 42
M  V30 45 1 21 43
M  V30 46 1 22 44
M  V30 47 1 22 45
M  V30 END BOND
M  V30 BEGIN COLLECTION
M  V30 MDLV30/STEABS ATOMS=(3 3 4 8)
M  V30 END COLLECTION
M  V30 END CTAB
M  END
>  <NO.>
1348

>  <Name>
mecillinam

>  <SMILES>
CC1(C)S[C@@H]2[C@H](N=CN3CCCCCC3)C(=O)N2[C@H]1C(=O)O

>  <logBB>


>  <Class>
-1

>  <MW>
325.15

>  <nHBAcc>
4

>  <nHBDon>
1

>  <SLogP>
1.41

>  <TopoPSA>
73.21

>  <MMFF94 Energy>
35.621

$$$$
CC1(C)S[C@@H]2[C@H](NC(=O)C(C(=O)Oc3ccc4c(c3)CCC4)c3ccccc3)C(=O)N2[C@H]1C(=O)O
Actelion Java MolfileCreator 2.0

  0  0  0  0  0  0              0 V3000
M  V30 BEGIN CTAB
M  V30 COUNTS 61 65 0 0 0
M  V30 BEGIN ATOM
M  V30 1 S 1.7121 2.773 -0.7334 0
M  V30 2 C 2.34 4.3121 -1.5821 0
M  V30 3 C 0.8266 3.7816 0.5276 0 CFG=1
M  V30 4 C 1.1566 5.295 -1.4684 0 CFG=1
M  V30 5 C 3.6157 4.7619 -0.8574 0
M  V30 6 C 2.6557 3.9706 -3.0398 0
M  V30 7 N 0.4325 4.9544 -0.2547 0
M  V30 8 C -0.6823 3.5153 0.7716 0 CFG=1
M  V30 9 C 1.5616 6.7612 -1.4605 0
M  V30 10 C -0.8994 4.6951 -0.2112 0
M  V30 11 N -1.2217 2.1979 0.3374 0
M  V30 12 O 1.788 7.4613 -0.4864 0
M  V30 13 O 1.7222 7.2618 -2.7039 0
M  V30 14 O -1.8187 5.1465 -0.8533 0
M  V30 15 C -1.0042 1.0642 1.098 0
M  V30 16 O -0.4213 1.1251 2.1789 0
M  V30 17 C -1.5911 -0.2179 0.5189 0
M  V30 18 C -2.9643 -0.4901 1.127 0
M  V30 19 C -0.6212 -1.3841 0.6166 0
M  V30 20 C -4.1 -0.563 0.3047 0
M  V30 21 C -3.1176 -0.6817 2.5103 0
M  V30 22 O 0.5984 -1.2771 0.6618 0
M  V30 23 O -1.3197 -2.5911 0.5209 0
M  V30 24 C -5.3575 -0.8177 0.855 0
M  V30 25 C -4.3766 -0.9354 3.0559 0
M  V30 26 C -0.5789 -3.7823 0.5731 0
M  V30 27 C -5.4954 -1.0029 2.229 0
M  V30 28 C 0.427 -4.0565 -0.3539 0
M  V30 29 C -0.9671 -4.7209 1.5412 0
M  V30 30 C 1.0704 -5.2783 -0.2565 0
M  V30 31 C -0.3186 -5.9547 1.6175 0
M  V30 32 C 0.7031 -6.2153 0.7185 0
M  V30 33 C 2.159 -5.818 -1.13 0
M  V30 34 C 1.5142 -7.4663 0.5839 0
M  V30 35 C 2.6933 -6.968 -0.2641 0
M  V30 36 H 1.4109 4.0368 1.4164 0
M  V30 37 H 0.4531 5.1587 -2.3018 0
M  V30 38 H 4.3788 3.9745 -0.8622 0
M  V30 39 H 4.0595 5.6342 -1.351 0
M  V30 40 H 3.4265 5.0387 0.1857 0
M  V30 41 H 3.4421 3.2107 -3.1156 0
M  V30 42 H 1.7737 3.5952 -3.5718 0
M  V30 43 H 3.0076 4.8578 -3.5782 0
M  V30 44 H -1.0229 3.7669 1.7841 0
M  V30 45 H -1.7573 2.138 -0.5215 0
M  V30 46 H 1.9608 8.2022 -2.5531 0
M  V30 47 H -1.7172 -0.0629 -0.5622 0
M  V30 48 H -4.0202 -0.4291 -0.7718 0
M  V30 49 H -2.2575 -0.6314 3.1778 0
M  V30 50 H -6.2318 -0.874 0.2112 0
M  V30 51 H -4.4835 -1.0789 4.1284 0
M  V30 52 H -6.4753 -1.2009 2.656 0
M  V30 53 H 0.7039 -3.3391 -1.1178 0
M  V30 54 H -1.7756 -4.4886 2.229 0
M  V30 55 H -0.6123 -6.6881 2.3613 0
M  V30 56 H 2.9376 -5.078 -1.3352 0
M  V30 57 H 1.7379 -6.1917 -2.069 0
M  V30 58 H 0.9397 -8.232 0.0525 0
M  V30 59 H 1.8523 -7.8525 1.5496 0
M  V30 60 H 3.4768 -6.5812 0.4025 0
M  V30 61 H 3.1449 -7.766 -0.8617 0
M  V30 END ATOM
M  V30 BEGIN BOND
M  V30 1 1 1 2
M  V30 2 1 1 3
M  V30 3 1 2 4
M  V30 4 1 2 5
M  V30 5 1 2 6
M  V30 6 1 3 7
M  V30 7 1 3 8
M  V30 8 1 4 9
M  V30 9 1 7 10
M  V30 10 1 8 11
M  V30 11 2 9 12
M  V30 12 1 9 13
M  V30 13 2 10 14
M  V30 14 1 11 15
M  V30 15 2 15 16
M  V30 16 1 15 17
M  V30 17 1 17 18
M  V30 18 1 17 19
M  V30 19 2 18 20
M  V30 20 1 18 21
M  V30 21 2 19 22
M  V30 22 1 19 23
M  V30 23 1 20 24
M  V30 24 2 21 25
M  V30 25 1 23 26
M  V30 26 2 24 27
M  V30 27 2 26 28
M  V30 28 1 26 29
M  V30 29 1 28 30
M  V30 30 2 29 31
M  V30 31 2 30 32
M  V30 32 1 30 33
M  V30 33 1 32 34
M  V30 34 1 33 35
M  V30 35 1 4 7
M  V30 36 1 8 10
M  V30 37 1 25 27
M  V30 38 1 31 32
M  V30 39 1 34 35
M  V30 40 1 3 36
M  V30 41 1 4 37
M  V30 42 1 5 38
M  V30 43 1 5 39
M  V30 44 1 5 40
M  V30 45 1 6 41
M  V30 46 1 6 42
M  V30 47 1 6 43
M  V30 48 1 8 44
M  V30 49 1 11 45
M  V30 50 1 13 46
M  V30 51 1 17 47
M  V30 52 1 20 48
M  V30 53 1 21 49
M  V30 54 1 24 50
M  V30 55 1 25 51
M  V30 56 1 27 52
M  V30 57 1 28 53
M  V30 58 1 29 54
M  V30 59 1 31 55
M  V30 60 1 33 56
M  V30 61 1 33 57
M  V30 62 1 34 58
M  V30 63 1 34 59
M  V30 64 1 35 60
M  V30 65 1 35 61
M  V30 END BOND
M  V30 BEGIN COLLECTION
M  V30 MDLV30/STEABS ATOMS=(3 3 4 8)
M  V30 END COLLECTION
M  V30 END CTAB
M  END
>  <NO.>
1349

>  <Name>
carindacillin

>  <SMILES>
CC1(C)S[C@@H]2[C@H](NC(=O)C(C(=O)Oc3ccc4c(c3)CCC4)c3ccccc3)C(=O)N2[C@H]1C(=O)O

>  <logBB>


>  <Class>
-1

>  <MW>
494.15

>  <nHBAcc>
6

>  <nHBDon>
2

>  <SLogP>
2.5

>  <TopoPSA>
113.01

>  <MMFF94 Energy>
93.629

$$$$
CC1(C)S[C@@H]2[C@H](NC(=O)C(C(=O)Oc3ccccc3)c3ccccc3)C(=O)N2[C@H]1C(=O)O
Actelion Java MolfileCreator 2.0

  0  0  0  0  0  0              0 V3000
M  V30 BEGIN CTAB
M  V30 COUNTS 54 57 0 0 0
M  V30 BEGIN ATOM
M  V30 1 S 1.7934 -0.0814 2.4462 0
M  V30 2 C 3.6317 0.1999 2.5998 0
M  V30 3 C 1.3572 1.706 2.5043 0 CFG=1
M  V30 4 C 3.8327 1.6996 2.9408 0 CFG=1
M  V30 5 C 4.1717 -0.7951 3.6325 0
M  V30 6 C 4.2526 -0.1308 1.2308 0
M  V30 7 N 2.6535 2.373 2.4288 0
M  V30 8 C 0.9962 2.4092 1.1642 0 CFG=1
M  V30 9 C 4.0345 1.9869 4.4312 0
M  V30 10 C 2.4849 2.8438 1.1692 0
M  V30 11 N 0.5746 1.5446 0.0284 0
M  V30 12 O 5.0075 1.6523 5.0918 0
M  V30 13 O 3.0241 2.6499 5.031 0
M  V30 14 O 3.2785 3.2796 0.3689 0
M  V30 15 C -0.7093 1.0354 -0.0288 0
M  V30 16 O -1.5524 1.336 0.814 0
M  V30 17 C -0.9908 0.144 -1.233 0
M  V30 18 C -1.6146 0.9629 -2.3599 0
M  V30 19 C -1.7783 -1.0987 -0.8506 0
M  V30 20 C -0.9776 1.0481 -3.6082 0
M  V30 21 C -2.8347 1.6347 -2.176 0
M  V30 22 O -1.7594 -1.6242 0.2561 0
M  V30 23 O -2.4224 -1.6197 -1.9764 0
M  V30 24 C -1.5468 1.7907 -4.6442 0
M  V30 25 C -3.3994 2.3765 -3.2143 0
M  V30 26 C -3.1863 -2.7842 -1.8142 0
M  V30 27 C -2.7559 2.4546 -4.447 0
M  V30 28 C -4.5119 -2.7341 -2.2426 0
M  V30 29 C -2.6291 -3.9679 -1.3336 0
M  V30 30 C -5.303 -3.8788 -2.1548 0
M  V30 31 C -3.4258 -5.1095 -1.2465 0
M  V30 32 C -4.761 -5.0644 -1.6544 0
M  V30 33 H 0.7599 2.0093 3.3687 0
M  V30 34 H 4.7087 2.1124 2.4254 0
M  V30 35 H 5.2517 -0.6667 3.7675 0
M  V30 36 H 3.6921 -0.6816 4.6113 0
M  V30 37 H 4.0129 -1.8326 3.3135 0
M  V30 38 H 3.8531 0.4946 0.4256 0
M  V30 39 H 4.0836 -1.1775 0.9507 0
M  V30 40 H 5.3375 0.0256 1.2556 0
M  V30 41 H 0.3247 3.2702 1.2762 0
M  V30 42 H 1.2355 1.3378 -0.7121 0
M  V30 43 H 3.3138 2.7485 5.9625 0
M  V30 44 H -0.0255 -0.2472 -1.585 0
M  V30 45 H -0.0367 0.534 -3.7919 0
M  V30 46 H -3.3564 1.59 -1.22 0
M  V30 47 H -1.0481 1.8504 -5.6084 0
M  V30 48 H -4.3427 2.8947 -3.0594 0
M  V30 49 H -3.1976 3.0326 -5.2548 0
M  V30 50 H -4.9261 -1.8118 -2.6392 0
M  V30 51 H -1.5911 -4.0081 -1.0185 0
M  V30 52 H -6.3406 -3.8487 -2.4767 0
M  V30 53 H -3.007 -6.0346 -0.8591 0
M  V30 54 H -5.3794 -5.9558 -1.5834 0
M  V30 END ATOM
M  V30 BEGIN BOND
M  V30 1 1 1 2
M  V30 2 1 1 3
M  V30 3 1 2 4
M  V30 4 1 2 5
M  V30 5 1 2 6
M  V30 6 1 3 7
M  V30 7 1 3 8
M  V30 8 1 4 9
M  V30 9 1 7 10
M  V30 10 1 8 11
M  V30 11 2 9 12
M  V30 12 1 9 13
M  V30 13 2 10 14
M  V30 14 1 11 15
M  V30 15 2 15 16
M  V30 16 1 15 17
M  V30 17 1 17 18
M  V30 18 1 17 19
M  V30 19 2 18 20
M  V30 20 1 18 21
M  V30 21 2 19 22
M  V30 22 1 19 23
M  V30 23 1 20 24
M  V30 24 2 21 25
M  V30 25 1 23 26
M  V30 26 2 24 27
M  V30 27 2 26 28
M  V30 28 1 26 29
M  V30 29 1 28 30
M  V30 30 2 29 31
M  V30 31 2 30 32
M  V30 32 1 4 7
M  V30 33 1 8 10
M  V30 34 1 25 27
M  V30 35 1 31 32
M  V30 36 1 3 33
M  V30 37 1 4 34
M  V30 38 1 5 35
M  V30 39 1 5 36
M  V30 40 1 5 37
M  V30 41 1 6 38
M  V30 42 1 6 39
M  V30 43 1 6 40
M  V30 44 1 8 41
M  V30 45 1 11 42
M  V30 46 1 13 43
M  V30 47 1 17 44
M  V30 48 1 20 45
M  V30 49 1 21 46
M  V30 50 1 24 47
M  V30 51 1 25 48
M  V30 52 1 27 49
M  V30 53 1 28 50
M  V30 54 1 29 51
M  V30 55 1 30 52
M  V30 56 1 31 53
M  V30 57 1 32 54
M  V30 END BOND
M  V30 BEGIN COLLECTION
M  V30 MDLV30/STEABS ATOMS=(3 3 4 8)
M  V30 END COLLECTION
M  V30 END CTAB
M  END
>  <NO.>
1350

>  <Name>
carfecillin

>  <SMILES>
CC1(C)S[C@@H]2[C@H](NC(=O)C(C(=O)Oc3ccccc3)c3ccccc3)C(=O)N2[C@H]1C(=O)O

>  <logBB>


>  <Class>
-1

>  <MW>
454.12

>  <nHBAcc>
6

>  <nHBDon>
2

>  <SLogP>
2.01

>  <TopoPSA>
113.01

>  <MMFF94 Energy>
87.564

$$$$
CC1(C)S[C@@H]2[C@H](NC(=O)C(Oc3ccccc3)c3ccccc3)C(=O)N2[C@H]1C(=O)O
Actelion Java MolfileCreator 2.0

  0  0  0  0  0  0              0 V3000
M  V30 BEGIN CTAB
M  V30 COUNTS 52 55 0 0 0
M  V30 BEGIN ATOM
M  V30 1 S -1.8715 -0.8947 -0.8134 0
M  V30 2 C -2.949 -0.8682 -2.3377 0
M  V30 3 C -0.5814 -1.8736 -1.6931 0 CFG=1
M  V30 4 C -1.9375 -0.7322 -3.4939 0 CFG=1
M  V30 5 C -3.7687 -2.1653 -2.3557 0
M  V30 6 C -3.8813 0.3421 -2.2542 0
M  V30 7 N -0.7054 -1.3698 -3.0609 0
M  V30 8 C 0.8816 -1.354 -1.7002 0 CFG=1
M  V30 9 C -2.4142 -1.3213 -4.8126 0
M  V30 10 C 0.5116 -0.769 -3.0884 0
M  V30 11 N 1.262 -0.3642 -0.6595 0
M  V30 12 O -2.2239 -2.4529 -5.2287 0
M  V30 13 O -3.172 -0.4588 -5.5225 0
M  V30 14 O 0.9828 0.0345 -3.8584 0
M  V30 15 C 1.3981 -0.7442 0.6644 0
M  V30 16 O 1.2469 -1.9167 1.0054 0
M  V30 17 C 1.6894 0.4209 1.6444 0
M  V30 18 O 1.6819 0.0144 3.0156 0
M  V30 19 C 3.0561 1.032 1.3622 0
M  V30 20 C 0.525 0.3653 3.655 0
M  V30 21 C 3.1695 2.3799 0.9865 0
M  V30 22 C 4.2234 0.2595 1.4752 0
M  V30 23 C -0.7022 -0.2089 3.326 0
M  V30 24 C 0.6187 1.2833 4.6992 0
M  V30 25 C 4.4208 2.9351 0.7137 0
M  V30 26 C 5.4723 0.818 1.2017 0
M  V30 27 C -1.8508 0.174 4.0196 0
M  V30 28 C -0.5306 1.6644 5.3916 0
M  V30 29 C 5.5701 2.154 0.8184 0
M  V30 30 C -1.7659 1.1139 5.0479 0
M  V30 31 H -0.6957 -2.9593 -1.6259 0
M  V30 32 H -1.6954 0.3236 -3.6801 0
M  V30 33 H -3.1364 -3.0562 -2.438 0
M  V30 34 H -4.3768 -2.2685 -1.4489 0
M  V30 35 H -4.4628 -2.1781 -3.2038 0
M  V30 36 H -4.5172 0.4038 -3.1445 0
M  V30 37 H -3.3237 1.2835 -2.1862 0
M  V30 38 H -4.5452 0.2817 -1.3838 0
M  V30 39 H 1.6357 -2.1467 -1.7814 0
M  V30 40 H 1.4576 0.5967 -0.9216 0
M  V30 41 H -3.3899 -0.9519 -6.3429 0
M  V30 42 H 0.9234 1.1888 1.4547 0
M  V30 43 H 2.2871 3.0119 0.9104 0
M  V30 44 H 4.163 -0.7831 1.7851 0
M  V30 45 H -0.774 -0.9669 2.5513 0
M  V30 46 H 1.584 1.7019 4.9699 0
M  V30 47 H 4.5012 3.98 0.4241 0
M  V30 48 H 6.3692 0.2107 1.2932 0
M  V30 49 H -2.8095 -0.2708 3.7658 0
M  V30 50 H -0.4619 2.3842 6.2029 0
M  V30 51 H 6.5442 2.5884 0.6085 0
M  V30 52 H -2.6609 1.4063 5.5911 0
M  V30 END ATOM
M  V30 BEGIN BOND
M  V30 1 1 1 2
M  V30 2 1 1 3
M  V30 3 1 2 4
M  V30 4 1 2 5
M  V30 5 1 2 6
M  V30 6 1 3 7
M  V30 7 1 3 8
M  V30 8 1 4 9
M  V30 9 1 7 10
M  V30 10 1 8 11
M  V30 11 2 9 12
M  V30 12 1 9 13
M  V30 13 2 10 14
M  V30 14 1 11 15
M  V30 15 2 15 16
M  V30 16 1 15 17
M  V30 17 1 17 18
M  V30 18 1 17 19
M  V30 19 1 18 20
M  V30 20 2 19 21
M  V30 21 1 19 22
M  V30 22 2 20 23
M  V30 23 1 20 24
M  V30 24 1 21 25
M  V30 25 2 22 26
M  V30 26 1 23 27
M  V30 27 2 24 28
M  V30 28 2 25 29
M  V30 29 2 27 30
M  V30 30 1 4 7
M  V30 31 1 8 10
M  V30 32 1 26 29
M  V30 33 1 28 30
M  V30 34 1 3 31
M  V30 35 1 4 32
M  V30 36 1 5 33
M  V30 37 1 5 34
M  V30 38 1 5 35
M  V30 39 1 6 36
M  V30 40 1 6 37
M  V30 41 1 6 38
M  V30 42 1 8 39
M  V30 43 1 11 40
M  V30 44 1 13 41
M  V30 45 1 17 42
M  V30 46 1 21 43
M  V30 47 1 22 44
M  V30 48 1 23 45
M  V30 49 1 24 46
M  V30 50 1 25 47
M  V30 51 1 26 48
M  V30 52 1 27 49
M  V30 53 1 28 50
M  V30 54 1 29 51
M  V30 55 1 30 52
M  V30 END BOND
M  V30 BEGIN COLLECTION
M  V30 MDLV30/STEABS ATOMS=(3 3 4 8)
M  V30 END COLLECTION
M  V30 END CTAB
M  END
>  <NO.>
1351

>  <Name>
fenbenicillin

>  <SMILES>
CC1(C)S[C@@H]2[C@H](NC(=O)C(Oc3ccccc3)c3ccccc3)C(=O)N2[C@H]1C(=O)O

>  <logBB>


>  <Class>
-1

>  <MW>
426.12

>  <nHBAcc>
5

>  <nHBDon>
2

>  <SLogP>
2.44

>  <TopoPSA>
95.94

>  <MMFF94 Energy>
108.98

$$$$
CC1(C)S[C@@H]2[C@H](NC(=O)C(c3ccccc3)S(=O)(=O)O)C(=O)N2[C@H]1C(=O)O
Actelion Java MolfileCreator 2.0

  0  0  0  0  0  0              0 V3000
M  V30 BEGIN CTAB
M  V30 COUNTS 45 47 0 0 0
M  V30 BEGIN ATOM
M  V30 1 S -3.3982 2.3198 1.8224 0
M  V30 2 O -3.2347 3.6373 2.401 0
M  V30 3 O -4.2762 1.3329 2.4149 0
M  V30 4 O -3.9061 2.5346 0.2979 0
M  V30 5 C -1.7783 1.6096 1.4893 0
M  V30 6 C -1.0758 1.3544 2.8127 0
M  V30 7 C -1.9268 0.3928 0.5982 0
M  V30 8 C 0.0054 2.1678 3.1906 0
M  V30 9 C -1.4662 0.3125 3.6713 0
M  V30 10 O -2.9189 0.1795 -0.1016 0
M  V30 11 N -0.8196 -0.4317 0.5193 0
M  V30 12 C 0.6826 1.9381 4.3891 0
M  V30 13 C -0.7858 0.0866 4.8685 0
M  V30 14 C -0.7832 -1.5873 -0.4201 0 CFG=2
M  V30 15 C 0.2887 0.8968 5.2256 0
M  V30 16 C 0.5888 -2.3005 -0.5553 0
M  V30 17 C -0.5957 -1.2757 -1.9337 0 CFG=2
M  V30 18 O 1.4422 -2.7154 0.192 0
M  V30 19 N 0.5846 -2.1299 -1.8993 0
M  V30 20 S 0.0762 0.3762 -2.3913 0
M  V30 21 C 1.7317 -1.7982 -2.7246 0 CFG=2
M  V30 22 C 1.8055 -0.2486 -2.7205 0
M  V30 23 C 1.6114 -2.4201 -4.1186 0
M  V30 24 C 2.2965 0.3964 -4.0207 0
M  V30 25 C 2.6907 0.248 -1.5632 0
M  V30 26 O 2.4824 -2.4104 -4.9762 0
M  V30 27 O 0.4224 -2.9973 -4.3894 0
M  V30 28 H -4.1269 1.6507 -0.0897 0
M  V30 29 H -1.2296 2.3648 0.9127 0
M  V30 30 H 0.3276 2.9974 2.5628 0
M  V30 31 H -2.3101 -0.3329 3.4274 0
M  V30 32 H -0.0158 -0.2565 1.1188 0
M  V30 33 H 1.5137 2.5782 4.6759 0
M  V30 34 H -1.1005 -0.7185 5.5286 0
M  V30 35 H -1.5922 -2.2961 -0.2042 0
M  V30 36 H 0.813 0.7229 6.1622 0
M  V30 37 H -1.3866 -1.6502 -2.5896 0
M  V30 38 H 2.6222 -2.242 -2.2628 0
M  V30 39 H 2.3458 1.489 -3.9345 0
M  V30 40 H 3.3071 0.0516 -4.2673 0
M  V30 41 H 1.6441 0.1693 -4.8713 0
M  V30 42 H 2.3507 -0.114 -0.5874 0
M  V30 43 H 3.7226 -0.0977 -1.6962 0
M  V30 44 H 2.7206 1.3433 -1.5165 0
M  V30 45 H 0.5218 -3.3436 -5.3016 0
M  V30 END ATOM
M  V30 BEGIN BOND
M  V30 1 2 1 2
M  V30 2 2 1 3
M  V30 3 1 1 4
M  V30 4 1 1 5
M  V30 5 1 5 6
M  V30 6 1 5 7
M  V30 7 2 6 8
M  V30 8 1 6 9
M  V30 9 2 7 10
M  V30 10 1 7 11
M  V30 11 1 8 12
M  V30 12 2 9 13
M  V30 13 1 11 14
M  V30 14 2 12 15
M  V30 15 1 14 16
M  V30 16 1 14 17
M  V30 17 2 16 18
M  V30 18 1 16 19
M  V30 19 1 17 20
M  V30 20 1 19 21
M  V30 21 1 20 22
M  V30 22 1 21 23
M  V30 23 1 22 24
M  V30 24 1 22 25
M  V30 25 2 23 26
M  V30 26 1 23 27
M  V30 27 1 13 15
M  V30 28 1 17 19
M  V30 29 1 21 22
M  V30 30 1 4 28
M  V30 31 1 5 29
M  V30 32 1 8 30
M  V30 33 1 9 31
M  V30 34 1 11 32
M  V30 35 1 12 33
M  V30 36 1 13 34
M  V30 37 1 14 35
M  V30 38 1 15 36
M  V30 39 1 17 37
M  V30 40 1 21 38
M  V30 41 1 24 39
M  V30 42 1 24 40
M  V30 43 1 24 41
M  V30 44 1 25 42
M  V30 45 1 25 43
M  V30 46 1 25 44
M  V30 47 1 27 45
M  V30 END BOND
M  V30 BEGIN COLLECTION
M  V30 MDLV30/STEABS ATOMS=(3 14 17 21)
M  V30 END COLLECTION
M  V30 END CTAB
M  END
>  <NO.>
1352

>  <Name>
sulbenicillin

>  <SMILES>
CC1(C)S[C@@H]2[C@H](NC(=O)C(c3ccccc3)S(=O)(=O)O)C(=O)N2[C@H]1C(=O)O

>  <logBB>


>  <Class>
-1

>  <MW>
414.06

>  <nHBAcc>
6

>  <nHBDon>
3

>  <SLogP>
0.25

>  <TopoPSA>
141.08

>  <MMFF94 Energy>
18.71

$$$$
CC1(C)S[C@@H]2[C@H](NC(=O)C3(N)CCCCC3)C(=O)N2[C@H]1C(=O)O
Actelion Java MolfileCreator 2.0

  0  0  0  0  0  0              0 V3000
M  V30 BEGIN CTAB
M  V30 COUNTS 46 48 0 0 0
M  V30 BEGIN ATOM
M  V30 1 S 0.4862 2.5141 -0.4051 0
M  V30 2 C -1.2275 3.0951 -0.8746 0
M  V30 3 C 0.0878 2.3381 1.3887 0 CFG=1
M  V30 4 C -1.9855 3.3776 0.4437 0 CFG=1
M  V30 5 C -1.0896 4.3022 -1.8086 0
M  V30 6 C -1.8951 1.9445 -1.6478 0
M  V30 7 N -1.3505 2.5551 1.4538 0
M  V30 8 C -0.1633 0.8924 1.9035 0 CFG=1
M  V30 9 C -1.9107 4.8297 0.9042 0
M  V30 10 C -1.6709 1.269 1.7488 0
M  V30 11 N 0.3147 -0.2089 1.0233 0
M  V30 12 O -1.0135 5.3586 1.5419 0
M  V30 13 O -2.9684 5.5597 0.4909 0
M  V30 14 O -2.7391 0.7061 1.7123 0
M  V30 15 C 0.3738 -1.5168 1.4607 0
M  V30 16 O 0.1056 -1.8224 2.6196 0
M  V30 17 C 0.7595 -2.5545 0.36 0
M  V30 18 N -0.2903 -2.53 -0.6894 0
M  V30 19 C 0.8189 -3.9686 0.9783 0
M  V30 20 C 2.1259 -2.1994 -0.2637 0
M  V30 21 C 1.3336 -5.0327 0.0089 0
M  V30 22 C 2.65 -3.2696 -1.2234 0
M  V30 23 C 2.6892 -4.6469 -0.5715 0
M  V30 24 H 0.6596 2.9871 2.0578 0
M  V30 25 H -3.0419 3.0901 0.3766 0
M  V30 26 H -2.0759 4.6907 -2.0872 0
M  V30 27 H -0.5245 5.1221 -1.3513 0
M  V30 28 H -0.5755 4.0338 -2.7395 0
M  V30 29 H -1.9685 1.0269 -1.0548 0
M  V30 30 H -2.9139 2.2224 -1.9428 0
M  V30 31 H -1.3474 1.7022 -2.5664 0
M  V30 32 H 0.1363 0.7494 2.9483 0
M  V30 33 H 0.5673 0.0028 0.0642 0
M  V30 34 H -2.8049 6.4546 0.8599 0
M  V30 35 H -1.1756 -2.8217 -0.2677 0
M  V30 36 H -0.4446 -1.5805 -1.0196 0
M  V30 37 H -0.1695 -4.2685 1.351 0
M  V30 38 H 1.4772 -3.9539 1.858 0
M  V30 39 H 2.8606 -2.0526 0.5398 0
M  V30 40 H 2.0807 -1.2453 -0.8034 0
M  V30 41 H 0.6123 -5.1811 -0.8035 0
M  V30 42 H 1.4197 -5.9919 0.5322 0
M  V30 43 H 3.6568 -2.9956 -1.5592 0
M  V30 44 H 2.0193 -3.3059 -2.1199 0
M  V30 45 H 3.4419 -4.6507 0.2265 0
M  V30 46 H 3.0022 -5.3954 -1.3081 0
M  V30 END ATOM
M  V30 BEGIN BOND
M  V30 1 1 1 2
M  V30 2 1 1 3
M  V30 3 1 2 4
M  V30 4 1 2 5
M  V30 5 1 2 6
M  V30 6 1 3 7
M  V30 7 1 3 8
M  V30 8 1 4 9
M  V30 9 1 7 10
M  V30 10 1 8 11
M  V30 11 2 9 12
M  V30 12 1 9 13
M  V30 13 2 10 14
M  V30 14 1 11 15
M  V30 15 2 15 16
M  V30 16 1 15 17
M  V30 17 1 17 18
M  V30 18 1 17 19
M  V30 19 1 17 20
M  V30 20 1 19 21
M  V30 21 1 20 22
M  V30 22 1 21 23
M  V30 23 1 4 7
M  V30 24 1 8 10
M  V30 25 1 22 23
M  V30 26 1 3 24
M  V30 27 1 4 25
M  V30 28 1 5 26
M  V30 29 1 5 27
M  V30 30 1 5 28
M  V30 31 1 6 29
M  V30 32 1 6 30
M  V30 33 1 6 31
M  V30 34 1 8 32
M  V30 35 1 11 33
M  V30 36 1 13 34
M  V30 37 1 18 35
M  V30 38 1 18 36
M  V30 39 1 19 37
M  V30 40 1 19 38
M  V30 41 1 20 39
M  V30 42 1 20 40
M  V30 43 1 21 41
M  V30 44 1 21 42
M  V30 45 1 22 43
M  V30 46 1 22 44
M  V30 47 1 23 45
M  V30 48 1 23 46
M  V30 END BOND
M  V30 BEGIN COLLECTION
M  V30 MDLV30/STEABS ATOMS=(3 3 4 8)
M  V30 END COLLECTION
M  V30 END CTAB
M  END
>  <NO.>
1353

>  <Name>
cyclacillin

>  <SMILES>
CC1(C)S[C@@H]2[C@H](NC(=O)C3(N)CCCCC3)C(=O)N2[C@H]1C(=O)O

>  <logBB>


>  <Class>
-1

>  <MW>
341.14

>  <nHBAcc>
5

>  <nHBDon>
3

>  <SLogP>
0.28

>  <TopoPSA>
112.73

>  <MMFF94 Energy>
62.853

$$$$
CC1(C)S[C@@H]2[C@H](NC(=O)C34C[C@@H]5C[C@@H](CC(N)(C5)C3)C4)C(=O)N2[C@H]1C(=O)O
Actelion Java MolfileCreator 2.0

  0  0  0  0  0  0              0 V3000
M  V30 BEGIN CTAB
M  V30 COUNTS 54 58 0 0 0
M  V30 BEGIN ATOM
M  V30 1 S 2.5363 0.9812 0.2452 0
M  V30 2 C 2.5135 2.7235 0.9022 0
M  V30 3 C 2.5514 0.1889 1.9105 0 CFG=1
M  V30 4 C 2.7978 2.6342 2.4185 0 CFG=1
M  V30 5 C 3.5258 3.5544 0.1062 0
M  V30 6 C 1.1037 3.2837 0.6449 0
M  V30 7 N 2.374 1.3112 2.831 0
M  V30 8 C 1.211 -0.3827 2.4575 0 CFG=1
M  V30 9 C 4.2681 2.7979 2.7894 0
M  V30 10 C 1.1216 0.9662 3.2181 0
M  V30 11 N 0.1211 -0.6384 1.4784 0
M  V30 12 O 5.1309 1.9344 2.8075 0
M  V30 13 O 4.5872 4.0759 3.0878 0
M  V30 14 O 0.2694 1.5944 3.801 0
M  V30 15 C 0.1631 -1.7303 0.6429 0
M  V30 16 O 1.0683 -2.5575 0.7219 0
M  V30 17 C -0.981 -1.8311 -0.3749 0
M  V30 18 C -0.9943 -0.591 -1.3016 0
M  V30 19 C -2.3467 -1.9393 0.3432 0
M  V30 20 C -0.7936 -3.0928 -1.2558 0
M  V30 21 C -2.1357 -0.7007 -2.3343 0
M  V30 22 C -3.4868 -2.0556 -0.6829 0 CFG=1
M  V30 23 C -1.9285 -3.2144 -2.2847 0 CFG=2
M  V30 24 N -2.1409 0.4909 -3.1799 0
M  V30 25 C -3.4824 -0.8102 -1.5869 0
M  V30 26 C -1.928 -1.9694 -3.1874 0
M  V30 27 C -3.272 -3.3088 -1.5452 0
M  V30 28 H 3.4398 -0.411 2.1266 0
M  V30 29 H 2.2175 3.3732 2.9846 0
M  V30 30 H 3.5609 4.584 0.4805 0
M  V30 31 H 3.2559 3.6082 -0.9554 0
M  V30 32 H 4.54 3.1437 0.1623 0
M  V30 33 H 0.8696 3.316 -0.4259 0
M  V30 34 H 1.0247 4.3095 1.0239 0
M  V30 35 H 0.3213 2.6958 1.1363 0
M  V30 36 H 1.3319 -1.2291 3.145 0
M  V30 37 H -0.6405 0.0254 1.3985 0
M  V30 38 H 5.5423 4.0375 3.3113 0
M  V30 39 H -1.1167 0.3291 -0.7148 0
M  V30 40 H -0.0238 -0.4988 -1.809 0
M  V30 41 H -2.3534 -2.8107 1.0111 0
M  V30 42 H -2.5261 -1.0649 0.9811 0
M  V30 43 H -0.7682 -3.9937 -0.6285 0
M  V30 44 H 0.1723 -3.0529 -1.7763 0
M  V30 45 H -4.4471 -2.1282 -0.1599 0
M  V30 46 H -1.7792 -4.1121 -2.8949 0
M  V30 47 H -2.8744 0.4135 -3.8844 0
M  V30 48 H -1.2638 0.5529 -3.6973 0
M  V30 49 H -4.3145 -0.8734 -2.3008 0
M  V30 50 H -3.658 0.0863 -0.9775 0
M  V30 51 H -0.9784 -1.9132 -3.7357 0
M  V30 52 H -2.7219 -2.0614 -3.9402 0
M  V30 53 H -4.091 -3.4118 -2.2675 0
M  V30 54 H -3.2901 -4.2055 -0.9137 0
M  V30 END ATOM
M  V30 BEGIN BOND
M  V30 1 1 1 2
M  V30 2 1 1 3
M  V30 3 1 2 4
M  V30 4 1 2 5
M  V30 5 1 2 6
M  V30 6 1 3 7
M  V30 7 1 3 8
M  V30 8 1 4 9
M  V30 9 1 7 10
M  V30 10 1 8 11
M  V30 11 2 9 12
M  V30 12 1 9 13
M  V30 13 2 10 14
M  V30 14 1 11 15
M  V30 15 2 15 16
M  V30 16 1 15 17
M  V30 17 1 17 18
M  V30 18 1 17 19
M  V30 19 1 17 20
M  V30 20 1 18 21
M  V30 21 1 19 22
M  V30 22 1 20 23
M  V30 23 1 21 24
M  V30 24 1 21 25
M  V30 25 1 21 26
M  V30 26 1 22 27
M  V30 27 1 4 7
M  V30 28 1 8 10
M  V30 29 1 22 25
M  V30 30 1 23 26
M  V30 31 1 23 27
M  V30 32 1 3 28
M  V30 33 1 4 29
M  V30 34 1 5 30
M  V30 35 1 5 31
M  V30 36 1 5 32
M  V30 37 1 6 33
M  V30 38 1 6 34
M  V30 39 1 6 35
M  V30 40 1 8 36
M  V30 41 1 11 37
M  V30 42 1 13 38
M  V30 43 1 18 39
M  V30 44 1 18 40
M  V30 45 1 19 41
M  V30 46 1 19 42
M  V30 47 1 20 43
M  V30 48 1 20 44
M  V30 49 1 22 45
M  V30 50 1 23 46
M  V30 51 1 24 47
M  V30 52 1 24 48
M  V30 53 1 25 49
M  V30 54 1 25 50
M  V30 55 1 26 51
M  V30 56 1 26 52
M  V30 57 1 27 53
M  V30 58 1 27 54
M  V30 END BOND
M  V30 BEGIN COLLECTION
M  V30 MDLV30/STEABS ATOMS=(5 3 4 8 22 23)
M  V30 END COLLECTION
M  V30 END CTAB
M  END
>  <NO.>
1354

>  <Name>
amantocillin

>  <SMILES>
CC1(C)S[C@@H]2[C@H](NC(=O)C34C[C@@H]5C[C@@H](CC(N)(C5)C3)C4)C(=O)N2[C@H]1C(=O)O

>  <logBB>


>  <Class>
-1

>  <MW>
393.17

>  <nHBAcc>
5

>  <nHBDon>
3

>  <SLogP>
0.92

>  <TopoPSA>
112.73

>  <MMFF94 Energy>
38.481

$$$$
CC1(C)S[C@@H]2[C@H](NC(=O)COc3ccccc3)C(=O)N2[C@H]1C(=O)O
Actelion Java MolfileCreator 2.0

  0  0  0  0  0  0              0 V3000
M  V30 BEGIN CTAB
M  V30 COUNTS 42 44 0 0 0
M  V30 BEGIN ATOM
M  V30 1 S -2.1986 0.0 0.0 0
M  V30 2 C -2.1046 0.9101 -1.6274 0
M  V30 3 C -2.143 -1.6748 -0.771 0 CFG=1
M  V30 4 C -2.328 -0.1386 -2.7413 0 CFG=1
M  V30 5 C -3.1286 2.0501 -1.6041 0
M  V30 6 C -0.6936 1.5153 -1.725 0
M  V30 7 N -1.9113 -1.4094 -2.1841 0
M  V30 8 C -0.7754 -2.4142 -0.7418 0 CFG=1
M  V30 9 C -3.7807 -0.2737 -3.1856 0
M  V30 10 C -0.6505 -1.9122 -2.2149 0
M  V30 11 N 0.2352 -1.8841 0.204 0
M  V30 12 O -4.6566 -0.9451 -2.6629 0
M  V30 13 O -4.0677 0.4925 -4.2596 0
M  V30 14 O 0.2038 -1.8123 -3.0628 0
M  V30 15 C 1.4035 -2.546 0.4978 0
M  V30 16 O 1.6671 -3.664 0.0641 0
M  V30 17 C 2.3555 -1.7764 1.4124 0
M  V30 18 O 1.776 -0.5329 1.8022 0
M  V30 19 C 2.5212 0.2699 2.6195 0
M  V30 20 C 3.8014 -0.0084 3.0999 0
M  V30 21 C 1.9013 1.47 2.9793 0
M  V30 22 C 4.4523 0.9077 3.9322 0
M  V30 23 C 2.5506 2.3844 3.8101 0
M  V30 24 C 3.828 2.1024 4.2869 0
M  V30 25 H -3.0209 -2.2992 -0.5833 0
M  V30 26 H -1.7144 0.0701 -3.626 0
M  V30 27 H -3.1247 2.5931 -2.5561 0
M  V30 28 H -4.1491 1.6921 -1.428 0
M  V30 29 H -2.9007 2.7795 -0.8174 0
M  V30 30 H -0.5027 2.2306 -0.9159 0
M  V30 31 H 0.0935 0.7554 -1.6865 0
M  V30 32 H -0.5746 2.0575 -2.6704 0
M  V30 33 H -0.8757 -3.5036 -0.6708 0
M  V30 34 H 0.1138 -0.9658 0.6292 0
M  V30 35 H -5.0128 0.3035 -4.4449 0
M  V30 36 H 2.5386 -2.4037 2.2921 0
M  V30 37 H 3.2785 -1.6074 0.8465 0
M  V30 38 H 4.3243 -0.9252 2.849 0
M  V30 39 H 0.9035 1.6958 2.6113 0
M  V30 40 H 5.4498 0.6874 4.3044 0
M  V30 41 H 2.0589 3.314 4.0841 0
M  V30 42 H 4.3369 2.8119 4.9342 0
M  V30 END ATOM
M  V30 BEGIN BOND
M  V30 1 1 1 2
M  V30 2 1 1 3
M  V30 3 1 2 4
M  V30 4 1 2 5
M  V30 5 1 2 6
M  V30 6 1 3 7
M  V30 7 1 3 8
M  V30 8 1 4 9
M  V30 9 1 7 10
M  V30 10 1 8 11
M  V30 11 2 9 12
M  V30 12 1 9 13
M  V30 13 2 10 14
M  V30 14 1 11 15
M  V30 15 2 15 16
M  V30 16 1 15 17
M  V30 17 1 17 18
M  V30 18 1 18 19
M  V30 19 2 19 20
M  V30 20 1 19 21
M  V30 21 1 20 22
M  V30 22 2 21 23
M  V30 23 2 22 24
M  V30 24 1 4 7
M  V30 25 1 8 10
M  V30 26 1 23 24
M  V30 27 1 3 25
M  V30 28 1 4 26
M  V30 29 1 5 27
M  V30 30 1 5 28
M  V30 31 1 5 29
M  V30 32 1 6 30
M  V30 33 1 6 31
M  V30 34 1 6 32
M  V30 35 1 8 33
M  V30 36 1 11 34
M  V30 37 1 13 35
M  V30 38 1 17 36
M  V30 39 1 17 37
M  V30 40 1 20 38
M  V30 41 1 21 39
M  V30 42 1 22 40
M  V30 43 1 23 41
M  V30 44 1 24 42
M  V30 END BOND
M  V30 BEGIN COLLECTION
M  V30 MDLV30/STEABS ATOMS=(3 3 4 8)
M  V30 END COLLECTION
M  V30 END CTAB
M  END
>  <NO.>
1356

>  <Name>
phenoxymethylpenicillin

>  <SMILES>
CC1(C)S[C@@H]2[C@H](NC(=O)COc3ccccc3)C(=O)N2[C@H]1C(=O)O

>  <logBB>


>  <Class>
-1

>  <MW>
350.09

>  <nHBAcc>
5

>  <nHBDon>
2

>  <SLogP>
0.7

>  <TopoPSA>
95.94

>  <MMFF94 Energy>
61.027

$$$$
CC1(C)S[C@@H]2[C@H](NC(=O)[C@@H](N=Cc3ccco3)c3ccc(O)cc3)C(=O)N2[C@H]1C(=O)O
Actelion Java MolfileCreator 2.0

  0  0  0  0  0  0              0 V3000
M  V30 BEGIN CTAB
M  V30 COUNTS 52 55 0 0 0
M  V30 BEGIN ATOM
M  V30 1 S -2.3629 1.3032 -0.3256 0
M  V30 2 C -3.0835 5.0E-4 -1.4384 0
M  V30 3 C -2.5788 0.3278 1.2186 0 CFG=1
M  V30 4 C -3.7828 -1.026 -0.5195 0 CFG=1
M  V30 5 C -4.0049 0.6847 -2.4541 0
M  V30 6 C -1.9122 -0.6496 -2.1953 0
M  V30 7 N -3.0974 -0.959 0.7562 0
M  V30 8 C -1.3528 -0.4434 1.7872 0 CFG=1
M  V30 9 C -5.2621 -0.7434 -0.2769 0
M  V30 10 C -2.0004 -1.6761 1.1 0
M  V30 11 N -0.0045 -0.0884 1.2891 0
M  V30 12 O -5.7513 -0.0092 0.5672 0
M  V30 13 O -6.0626 -1.3883 -1.1533 0
M  V30 14 O -1.6643 -2.7995 0.8068 0
M  V30 15 C 0.6131 1.0994 1.6153 0
M  V30 16 O 0.1185 1.9132 2.3928 0
M  V30 17 C 1.9934 1.3049 0.9495 0 CFG=1
M  V30 18 N 2.848 0.1534 1.3382 0
M  V30 19 C 1.8559 1.4507 -0.5622 0
M  V30 20 C 3.3623 0.2809 2.5162 0
M  V30 21 C 2.3999 0.5147 -1.4577 0
M  V30 22 C 1.1544 2.5496 -1.0884 0
M  V30 23 C 4.2131 -0.7388 3.0574 0
M  V30 24 C 2.24 0.6659 -2.8381 0
M  V30 25 C 0.991 2.6987 -2.4669 0
M  V30 26 O 4.7287 -0.5461 4.3082 0
M  V30 27 C 4.65 -1.9495 2.557 0
M  V30 28 C 1.534 1.7573 -3.3304 0
M  V30 29 C 5.4896 -1.6328 4.5989 0
M  V30 30 C 5.474 -2.5256 3.5536 0
M  V30 31 O 1.3504 1.9397 -4.6689 0
M  V30 32 H -3.2177 0.8004 1.9706 0
M  V30 33 H -3.6887 -2.0475 -0.9081 0
M  V30 34 H -4.8056 1.258 -1.9733 0
M  V30 35 H -3.45 1.3791 -3.0967 0
M  V30 36 H -4.4734 -0.0564 -3.1118 0
M  V30 37 H -1.1751 -1.1024 -1.5241 0
M  V30 38 H -2.2785 -1.4434 -2.8569 0
M  V30 39 H -1.3841 0.0766 -2.8245 0
M  V30 40 H -1.3549 -0.5371 2.8802 0
M  V30 41 H 0.5125 -0.7229 0.6863 0
M  V30 42 H -6.9694 -1.1258 -0.8841 0
M  V30 43 H 2.426 2.2423 1.3266 0
M  V30 44 H 3.1751 1.1615 3.1583 0
M  V30 45 H 2.9568 -0.3438 -1.0876 0
M  V30 46 H 0.714 3.2934 -0.4255 0
M  V30 47 H 2.6709 -0.0739 -3.5048 0
M  V30 48 H 0.4374 3.5458 -2.8623 0
M  V30 49 H 4.3974 -2.3585 1.5882 0
M  V30 50 H 5.9677 -1.623 5.5689 0
M  V30 51 H 5.9918 -3.4738 3.5157 0
M  V30 52 H 1.8121 1.2292 -5.1429 0
M  V30 END ATOM
M  V30 BEGIN BOND
M  V30 1 1 1 2
M  V30 2 1 1 3
M  V30 3 1 2 4
M  V30 4 1 2 5
M  V30 5 1 2 6
M  V30 6 1 3 7
M  V30 7 1 3 8
M  V30 8 1 4 9
M  V30 9 1 7 10
M  V30 10 1 8 11
M  V30 11 2 9 12
M  V30 12 1 9 13
M  V30 13 2 10 14
M  V30 14 1 11 15
M  V30 15 2 15 16
M  V30 16 1 15 17
M  V30 17 1 17 18
M  V30 18 1 17 19
M  V30 19 2 18 20
M  V30 20 2 19 21
M  V30 21 1 19 22
M  V30 22 1 20 23
M  V30 23 1 21 24
M  V30 24 2 22 25
M  V30 25 1 23 26
M  V30 26 2 23 27
M  V30 27 2 24 28
M  V30 28 1 26 29
M  V30 29 1 27 30
M  V30 30 1 28 31
M  V30 31 1 4 7
M  V30 32 1 8 10
M  V30 33 1 25 28
M  V30 34 2 29 30
M  V30 35 1 3 32
M  V30 36 1 4 33
M  V30 37 1 5 34
M  V30 38 1 5 35
M  V30 39 1 5 36
M  V30 40 1 6 37
M  V30 41 1 6 38
M  V30 42 1 6 39
M  V30 43 1 8 40
M  V30 44 1 11 41
M  V30 45 1 13 42
M  V30 46 1 17 43
M  V30 47 1 20 44
M  V30 48 1 21 45
M  V30 49 1 22 46
M  V30 50 1 24 47
M  V30 51 1 25 48
M  V30 52 1 27 49
M  V30 53 1 29 50
M  V30 54 1 30 51
M  V30 55 1 31 52
M  V30 END BOND
M  V30 BEGIN COLLECTION
M  V30 MDLV30/STEABS ATOMS=(4 3 4 8 17)
M  V30 END COLLECTION
M  V30 END CTAB
M  END
>  <NO.>
1358

>  <Name>
fumoxicillin

>  <SMILES>
CC1(C)S[C@@H]2[C@H](NC(=O)[C@@H](N=Cc3ccco3)c3ccc(O)cc3)C(=O)N2[C@H]1C(=O)O

>  <logBB>


>  <Class>
-1

>  <MW>
443.12

>  <nHBAcc>
7

>  <nHBDon>
3

>  <SLogP>
1.78

>  <TopoPSA>
132.44

>  <MMFF94 Energy>
91.962

$$$$
CC1(C)S[C@@H]2[C@H](NC(=O)[C@H](N)C3=CCC=CC3)C(=O)N2[C@H]1C(=O)O
Actelion Java MolfileCreator 2.0

  0  0  0  0  0  0              0 V3000
M  V30 BEGIN CTAB
M  V30 COUNTS 45 47 0 0 0
M  V30 BEGIN ATOM
M  V30 1 S 0.0811 0.8929 2.274 0
M  V30 2 C 1.7495 1.193 3.0465 0
M  V30 3 C 0.2714 2.2007 0.9878 0 CFG=1
M  V30 4 C 2.2973 2.5028 2.4366 0 CFG=1
M  V30 5 C 1.5803 1.2146 4.5696 0
M  V30 6 C 2.6445 0.001 2.666 0
M  V30 7 N 1.6544 2.6465 1.1465 0
M  V30 8 C 0.6512 1.7557 -0.4535 0 CFG=1
M  V30 9 C 1.9925 3.7505 3.2593 0
M  V30 10 C 2.0966 2.1191 -0.0216 0
M  V30 11 N 0.4209 0.342 -0.814 0
M  V30 12 O 0.9776 4.4286 3.234 0
M  V30 13 O 2.9891 4.0616 4.1161 0
M  V30 14 O 3.2181 1.9211 -0.4256 0
M  V30 15 C -0.8341 -0.1485 -1.1134 0
M  V30 16 O -1.8264 0.5746 -1.1207 0
M  V30 17 C -0.8482 -1.6924 -1.3648 0 CFG=2
M  V30 18 N 0.53 -2.1411 -1.6977 0
M  V30 19 C -1.8821 -2.1035 -2.4001 0
M  V30 20 C -1.6128 -2.459 -3.6765 0
M  V30 21 C -3.3093 -2.1297 -1.8689 0
M  V30 22 C -2.6497 -2.8946 -4.6761 0
M  V30 23 C -4.3346 -2.6045 -2.8598 0
M  V30 24 C -4.0396 -2.9462 -4.1219 0
M  V30 25 H -0.4552 3.0157 1.0502 0
M  V30 26 H 3.3814 2.4542 2.2772 0
M  V30 27 H 1.2197 0.2505 4.9482 0
M  V30 28 H 2.5385 1.4145 5.0627 0
M  V30 29 H 0.8684 1.9791 4.9004 0
M  V30 30 H 2.2486 -0.9439 3.0569 0
M  V30 31 H 2.7574 -0.1105 1.5826 0
M  V30 32 H 3.6494 0.1282 3.0854 0
M  V30 33 H 0.2827 2.4286 -1.238 0
M  V30 34 H 1.1689 -0.3503 -0.8161 0
M  V30 35 H 2.6709 4.8734 4.567 0
M  V30 36 H -1.0956 -2.1577 -0.4027 0
M  V30 37 H 0.4899 -3.1479 -1.8593 0
M  V30 38 H 0.7894 -1.7234 -2.5912 0
M  V30 39 H -0.6 -2.4431 -4.0649 0
M  V30 40 H -3.3511 -2.794 -0.9972 0
M  V30 41 H -3.6051 -1.1297 -1.5364 0
M  V30 42 H -2.6308 -2.2072 -5.5291 0
M  V30 43 H -2.3815 -3.8898 -5.0483 0
M  V30 44 H -5.3641 -2.6553 -2.5154 0
M  V30 45 H -4.8308 -3.273 -4.7907 0
M  V30 END ATOM
M  V30 BEGIN BOND
M  V30 1 1 1 2
M  V30 2 1 1 3
M  V30 3 1 2 4
M  V30 4 1 2 5
M  V30 5 1 2 6
M  V30 6 1 3 7
M  V30 7 1 3 8
M  V30 8 1 4 9
M  V30 9 1 7 10
M  V30 10 1 8 11
M  V30 11 2 9 12
M  V30 12 1 9 13
M  V30 13 2 10 14
M  V30 14 1 11 15
M  V30 15 2 15 16
M  V30 16 1 15 17
M  V30 17 1 17 18
M  V30 18 1 17 19
M  V30 19 2 19 20
M  V30 20 1 19 21
M  V30 21 1 20 22
M  V30 22 1 21 23
M  V30 23 1 22 24
M  V30 24 1 4 7
M  V30 25 1 8 10
M  V30 26 2 23 24
M  V30 27 1 3 25
M  V30 28 1 4 26
M  V30 29 1 5 27
M  V30 30 1 5 28
M  V30 31 1 5 29
M  V30 32 1 6 30
M  V30 33 1 6 31
M  V30 34 1 6 32
M  V30 35 1 8 33
M  V30 36 1 11 34
M  V30 37 1 13 35
M  V30 38 1 17 36
M  V30 39 1 18 37
M  V30 40 1 18 38
M  V30 41 1 20 39
M  V30 42 1 21 40
M  V30 43 1 21 41
M  V30 44 1 22 42
M  V30 45 1 22 43
M  V30 46 1 23 44
M  V30 47 1 24 45
M  V30 END BOND
M  V30 BEGIN COLLECTION
M  V30 MDLV30/STEABS ATOMS=(4 3 4 8 17)
M  V30 END COLLECTION
M  V30 END CTAB
M  END
>  <NO.>
1359

>  <Name>
epicillin

>  <SMILES>
CC1(C)S[C@@H]2[C@H](NC(=O)[C@H](N)C3=CCC=CC3)C(=O)N2[C@H]1C(=O)O

>  <logBB>


>  <Class>
-1

>  <MW>
351.13

>  <nHBAcc>
5

>  <nHBDon>
3

>  <SLogP>
0.22

>  <TopoPSA>
112.73

>  <MMFF94 Energy>
70.332

$$$$
CC1(C)S[C@@H]2[C@H](NC(=O)[C@H](N)c3ccc(O)cc3)C(=O)N2[C@H]1C(=O)O
Actelion Java MolfileCreator 2.0

  0  0  0  0  0  0              0 V3000
M  V30 BEGIN CTAB
M  V30 COUNTS 44 46 0 0 0
M  V30 BEGIN ATOM
M  V30 1 S -0.1622 0.7302 -1.3797 0
M  V30 2 C -1.1788 -0.6741 -2.0532 0
M  V30 3 C -1.6095 1.7122 -0.8056 0 CFG=1
M  V30 4 C -2.648 -0.1954 -2.0638 0 CFG=1
M  V30 5 C -0.619 -1.063 -3.4257 0
M  V30 6 C -0.9989 -1.8619 -1.0919 0
M  V30 7 N -2.7479 0.8235 -1.0376 0
M  V30 8 C -1.9731 1.6715 0.7071 0 CFG=1
M  V30 9 C -3.0962 0.4185 -3.3861 0
M  V30 10 C -3.0121 0.6041 0.273 0
M  V30 11 N -0.9427 1.1958 1.6666 0
M  V30 12 O -2.9602 1.5749 -3.7532 0
M  V30 13 O -3.6719 -0.4859 -4.2075 0
M  V30 14 O -3.692 -0.2335 0.8179 0
M  V30 15 C 0.1565 1.9698 1.9782 0
M  V30 16 O 0.33 3.0834 1.4821 0
M  V30 17 C 1.1468 1.3103 2.9753 0 CFG=2
M  V30 18 N 1.916 2.3481 3.6828 0
M  V30 19 C 2.0668 0.3169 2.2888 0
M  V30 20 C 2.7577 0.6475 1.1116 0
M  V30 21 C 2.2647 -0.9562 2.8505 0
M  V30 22 C 3.6001 -0.281 0.498 0
M  V30 23 C 3.1116 -1.8837 2.2381 0
M  V30 24 C 3.7699 -1.5377 1.0636 0
M  V30 25 O 4.6031 -2.4121 0.4317 0
M  V30 26 H -1.7214 2.6886 -1.2857 0
M  V30 27 H -3.341 -1.0071 -1.8108 0
M  V30 28 H -1.2092 -1.8733 -3.8688 0
M  V30 29 H -0.6206 -0.2243 -4.1309 0
M  V30 30 H 0.4145 -1.4223 -3.3515 0
M  V30 31 H -1.3237 -1.6307 -0.072 0
M  V30 32 H 0.0473 -2.1865 -1.04 0
M  V30 33 H -1.5877 -2.7218 -1.4324 0
M  V30 34 H -2.4571 2.5854 1.0738 0
M  V30 35 H -1.0199 0.2687 2.0703 0
M  V30 36 H -3.9132 0.035 -5.0037 0
M  V30 37 H 0.5423 0.7865 3.7264 0
M  V30 38 H 2.7738 1.9371 4.046 0
M  V30 39 H 2.2042 3.0419 2.9883 0
M  V30 40 H 2.639 1.6286 0.6536 0
M  V30 41 H 1.7617 -1.2344 3.7747 0
M  V30 42 H 4.1209 -0.0212 -0.4194 0
M  V30 43 H 3.2453 -2.8613 2.6905 0
M  V30 44 H 4.641 -3.2339 0.9472 0
M  V30 END ATOM
M  V30 BEGIN BOND
M  V30 1 1 1 2
M  V30 2 1 1 3
M  V30 3 1 2 4
M  V30 4 1 2 5
M  V30 5 1 2 6
M  V30 6 1 3 7
M  V30 7 1 3 8
M  V30 8 1 4 9
M  V30 9 1 7 10
M  V30 10 1 8 11
M  V30 11 2 9 12
M  V30 12 1 9 13
M  V30 13 2 10 14
M  V30 14 1 11 15
M  V30 15 2 15 16
M  V30 16 1 15 17
M  V30 17 1 17 18
M  V30 18 1 17 19
M  V30 19 2 19 20
M  V30 20 1 19 21
M  V30 21 1 20 22
M  V30 22 2 21 23
M  V30 23 2 22 24
M  V30 24 1 24 25
M  V30 25 1 4 7
M  V30 26 1 8 10
M  V30 27 1 23 24
M  V30 28 1 3 26
M  V30 29 1 4 27
M  V30 30 1 5 28
M  V30 31 1 5 29
M  V30 32 1 5 30
M  V30 33 1 6 31
M  V30 34 1 6 32
M  V30 35 1 6 33
M  V30 36 1 8 34
M  V30 37 1 11 35
M  V30 38 1 13 36
M  V30 39 1 17 37
M  V30 40 1 18 38
M  V30 41 1 18 39
M  V30 42 1 20 40
M  V30 43 1 21 41
M  V30 44 1 22 42
M  V30 45 1 23 43
M  V30 46 1 25 44
M  V30 END BOND
M  V30 BEGIN COLLECTION
M  V30 MDLV30/STEABS ATOMS=(4 3 4 8 17)
M  V30 END COLLECTION
M  V30 END CTAB
M  END
>  <NO.>
1360

>  <Name>
amoxicillin

>  <SMILES>
CC1(C)S[C@@H]2[C@H](NC(=O)[C@H](N)c3ccc(O)cc3)C(=O)N2[C@H]1C(=O)O

>  <logBB>


>  <Class>
-1

>  <MW>
365.1

>  <nHBAcc>
6

>  <nHBDon>
4

>  <SLogP>
0.02

>  <TopoPSA>
132.96

>  <MMFF94 Energy>
79.304

$$$$
CC1(C)S[C@@H]2[C@H](NC(=O)[C@H](N)c3ccccc3)C(=O)N2[C@H]1C(=O)O
Actelion Java MolfileCreator 2.0

  0  0  0  0  0  0              0 V3000
M  V30 BEGIN CTAB
M  V30 COUNTS 43 45 0 0 0
M  V30 BEGIN ATOM
M  V30 1 S -1.381 0.2436 0.5684 0
M  V30 2 C -1.2146 -1.1191 1.8239 0
M  V30 3 C -0.6582 1.545 1.6525 0 CFG=1
M  V30 4 C -0.8555 -0.4461 3.1676 0 CFG=1
M  V30 5 C -2.5167 -1.9272 1.8373 0
M  V30 6 C -0.0716 -2.0327 1.3487 0
M  V30 7 N -0.2076 0.8058 2.8312 0
M  V30 8 C 0.8264 1.9514 1.4238 0 CFG=1
M  V30 9 C -2.0585 -0.1344 4.0518 0
M  V30 10 C 1.1156 0.9727 2.5922 0
M  V30 11 N 1.4592 1.5961 0.1275 0
M  V30 12 O -2.7758 0.8525 4.0108 0
M  V30 13 O -2.3212 -1.122 4.9348 0
M  V30 14 O 2.0828 0.4132 3.0524 0
M  V30 15 C 1.1337 2.2668 -1.0336 0
M  V30 16 O 0.3146 3.1867 -1.0454 0
M  V30 17 C 1.8612 1.7494 -2.3031 0 CFG=2
M  V30 18 N 1.9774 2.8343 -3.2928 0
M  V30 19 C 1.1698 0.5361 -2.8968 0
M  V30 20 C -0.2153 0.5175 -3.1249 0
M  V30 21 C 1.9255 -0.5904 -3.2599 0
M  V30 22 C -0.8306 -0.608 -3.6752 0
M  V30 23 C 1.308 -1.7136 -3.813 0
M  V30 24 C -0.0697 -1.7231 -4.0171 0
M  V30 25 H -1.3355 2.3692 1.8943 0
M  V30 26 H -0.1507 -1.0526 3.7495 0
M  V30 27 H -3.391 -1.3078 2.0665 0
M  V30 28 H -2.4682 -2.7267 2.5854 0
M  V30 29 H -2.7034 -2.4054 0.8682 0
M  V30 30 H 0.881 -1.501 1.2565 0
M  V30 31 H -0.293 -2.4856 0.3748 0
M  V30 32 H 0.0824 -2.8533 2.0592 0
M  V30 33 H 1.0514 2.9897 1.6981 0
M  V30 34 H 2.1098 0.8197 0.0791 0
M  V30 35 H -3.0992 -0.7935 5.4354 0
M  V30 36 H 2.8799 1.4763 -2.0011 0
M  V30 37 H 2.1343 2.4261 -4.2123 0
M  V30 38 H 1.0692 3.3023 -3.3405 0
M  V30 39 H -0.8317 1.3776 -2.8662 0
M  V30 40 H 3.0043 -0.601 -3.1179 0
M  V30 41 H -1.9059 -0.6121 -3.8349 0
M  V30 42 H 1.9027 -2.5809 -4.0881 0
M  V30 43 H -0.551 -2.5977 -4.4467 0
M  V30 END ATOM
M  V30 BEGIN BOND
M  V30 1 1 1 2
M  V30 2 1 1 3
M  V30 3 1 2 4
M  V30 4 1 2 5
M  V30 5 1 2 6
M  V30 6 1 3 7
M  V30 7 1 3 8
M  V30 8 1 4 9
M  V30 9 1 7 10
M  V30 10 1 8 11
M  V30 11 2 9 12
M  V30 12 1 9 13
M  V30 13 2 10 14
M  V30 14 1 11 15
M  V30 15 2 15 16
M  V30 16 1 15 17
M  V30 17 1 17 18
M  V30 18 1 17 19
M  V30 19 2 19 20
M  V30 20 1 19 21
M  V30 21 1 20 22
M  V30 22 2 21 23
M  V30 23 2 22 24
M  V30 24 1 4 7
M  V30 25 1 8 10
M  V30 26 1 23 24
M  V30 27 1 3 25
M  V30 28 1 4 26
M  V30 29 1 5 27
M  V30 30 1 5 28
M  V30 31 1 5 29
M  V30 32 1 6 30
M  V30 33 1 6 31
M  V30 34 1 6 32
M  V30 35 1 8 33
M  V30 36 1 11 34
M  V30 37 1 13 35
M  V30 38 1 17 36
M  V30 39 1 18 37
M  V30 40 1 18 38
M  V30 41 1 20 39
M  V30 42 1 21 40
M  V30 43 1 22 41
M  V30 44 1 23 42
M  V30 45 1 24 43
M  V30 END BOND
M  V30 BEGIN COLLECTION
M  V30 MDLV30/STEABS ATOMS=(4 3 4 8 17)
M  V30 END COLLECTION
M  V30 END CTAB
M  END
>  <NO.>
1361

>  <Name>
ampicillin

>  <SMILES>
CC1(C)S[C@@H]2[C@H](NC(=O)[C@H](N)c3ccccc3)C(=O)N2[C@H]1C(=O)O

>  <logBB>


>  <Class>
-1

>  <MW>
349.11

>  <nHBAcc>
5

>  <nHBDon>
3

>  <SLogP>
0.32

>  <TopoPSA>
112.73

>  <MMFF94 Energy>
89.386

$$$$
CC1(C)S[C@@H]2[C@H](NC(=O)[C@H](N)c3ccccc3)C(=O)N2[C@H]1C(=O)OC1OC(=O)c2ccccc21
Actelion Java MolfileCreator 2.0

  0  0  0  0  0  0              0 V3000
M  V30 BEGIN CTAB
M  V30 COUNTS 57 61 0 0 0
M  V30 BEGIN ATOM
M  V30 1 S -0.8166 0.7349 0.2449 0
M  V30 2 C 0.4544 -0.5306 -0.2426 0
M  V30 3 C -0.1033 2.0838 -0.7857 0 CFG=1
M  V30 4 C 1.5859 0.2338 -0.9659 0 CFG=1
M  V30 5 C 0.8892 -1.2864 1.0168 0
M  V30 6 C -0.2342 -1.5209 -1.1978 0
M  V30 7 N 0.9741 1.4243 -1.5234 0
M  V30 8 C -0.7648 2.3928 -2.16 0 CFG=1
M  V30 9 C 2.7387 0.6692 -0.0581 0
M  V30 10 C 0.373 1.5091 -2.7352 0
M  V30 11 N -2.1417 1.8917 -2.4053 0
M  V30 12 O 2.7796 1.7042 0.5946 0
M  V30 13 O 3.7092 -0.2825 -0.0555 0
M  V30 14 O 0.6099 0.9461 -3.7779 0
M  V30 15 C -3.2311 2.4586 -1.7754 0
M  V30 16 C 4.8794 0.0524 0.6885 0
M  V30 17 O -3.1105 3.4005 -0.9909 0
M  V30 18 C -4.5917 1.7952 -2.1187 0 CFG=2
M  V30 19 O 6.0045 -0.66 0.1223 0
M  V30 20 C 4.8124 -0.4766 2.0728 0
M  V30 21 N -5.6825 2.772 -1.958 0
M  V30 22 C -4.8391 0.5518 -1.2846 0
M  V30 23 C 6.5356 -1.5617 0.9957 0
M  V30 24 C 5.7869 -1.4381 2.236 0
M  V30 25 C 3.9825 -0.1413 3.1313 0
M  V30 26 C -4.6867 0.5611 0.1111 0
M  V30 27 C -5.2579 -0.6353 -1.9068 0
M  V30 28 O 7.4637 -2.3154 0.7847 0
M  V30 29 C 5.9759 -2.1215 3.425 0
M  V30 30 C 4.1471 -0.8155 4.3462 0
M  V30 31 C -4.9209 -0.5932 0.86 0
M  V30 32 C -5.4942 -1.7878 -1.1549 0
M  V30 33 C 5.1361 -1.8025 4.4922 0
M  V30 34 C -5.3224 -1.7671 0.2271 0
M  V30 35 H 0.2339 2.9598 -0.224 0
M  V30 36 H 2.0041 -0.3528 -1.7932 0
M  V30 37 H 1.6722 -2.0161 0.7816 0
M  V30 38 H 0.0547 -1.8433 1.4604 0
M  V30 39 H 1.2759 -0.6156 1.7908 0
M  V30 40 H 0.4752 -2.2881 -1.5293 0
M  V30 41 H -1.0682 -2.0405 -0.7108 0
M  V30 42 H -0.6287 -1.0348 -2.0961 0
M  V30 43 H -0.667 3.439 -2.4761 0
M  V30 44 H -2.2888 1.0952 -3.0158 0
M  V30 45 H 5.1228 1.1208 0.6562 0
M  V30 46 H -4.5572 1.5209 -3.1804 0
M  V30 47 H -6.5627 2.27 -1.8564 0
M  V30 48 H -5.5287 3.2601 -1.0725 0
M  V30 49 H 3.223 0.6302 3.0335 0
M  V30 50 H -4.3739 1.4672 0.6286 0
M  V30 51 H -5.4079 -0.6717 -2.984 0
M  V30 52 H 6.7535 -2.8729 3.521 0
M  V30 53 H 3.5055 -0.5697 5.1908 0
M  V30 54 H -4.7884 -0.5738 1.9389 0
M  V30 55 H -5.8164 -2.7018 -1.6474 0
M  V30 56 H 5.2517 -2.3142 5.4454 0
M  V30 57 H -5.5061 -2.6642 0.8125 0
M  V30 END ATOM
M  V30 BEGIN BOND
M  V30 1 1 1 2
M  V30 2 1 1 3
M  V30 3 1 2 4
M  V30 4 1 2 5
M  V30 5 1 2 6
M  V30 6 1 3 7
M  V30 7 1 3 8
M  V30 8 1 4 9
M  V30 9 1 7 10
M  V30 10 1 8 11
M  V30 11 2 9 12
M  V30 12 1 9 13
M  V30 13 2 10 14
M  V30 14 1 11 15
M  V30 15 1 13 16
M  V30 16 2 15 17
M  V30 17 1 15 18
M  V30 18 1 16 19
M  V30 19 1 16 20
M  V30 20 1 18 21
M  V30 21 1 18 22
M  V30 22 1 19 23
M  V30 23 2 20 24
M  V30 24 1 20 25
M  V30 25 2 22 26
M  V30 26 1 22 27
M  V30 27 2 23 28
M  V30 28 1 24 29
M  V30 29 2 25 30
M  V30 30 1 26 31
M  V30 31 2 27 32
M  V30 32 2 29 33
M  V30 33 2 31 34
M  V30 34 1 4 7
M  V30 35 1 8 10
M  V30 36 1 23 24
M  V30 37 1 30 33
M  V30 38 1 32 34
M  V30 39 1 3 35
M  V30 40 1 4 36
M  V30 41 1 5 37
M  V30 42 1 5 38
M  V30 43 1 5 39
M  V30 44 1 6 40
M  V30 45 1 6 41
M  V30 46 1 6 42
M  V30 47 1 8 43
M  V30 48 1 11 44
M  V30 49 1 16 45
M  V30 50 1 18 46
M  V30 51 1 21 47
M  V30 52 1 21 48
M  V30 53 1 25 49
M  V30 54 1 26 50
M  V30 55 1 27 51
M  V30 56 1 29 52
M  V30 57 1 30 53
M  V30 58 1 31 54
M  V30 59 1 32 55
M  V30 60 1 33 56
M  V30 61 1 34 57
M  V30 END BOND
M  V30 BEGIN COLLECTION
M  V30 MDLV30/STEABS ATOMS=(4 3 4 8 18)
M  V30 END COLLECTION
M  V30 END CTAB
M  END
>  <NO.>
1363

>  <Name>
talampicillin

>  <SMILES>
CC1(C)S[C@@H]2[C@H](NC(=O)[C@H](N)c3ccccc3)C(=O)N2[C@H]1C(=O)OC1OC(=O)c2ccccc21

>  <logBB>


>  <Class>
-1

>  <MW>
481.13

>  <nHBAcc>
8

>  <nHBDon>
2

>  <SLogP>
1.65

>  <TopoPSA>
128.03

>  <MMFF94 Energy>
98.757

$$$$
CC1(C)S[C@@H]2[C@H](NC(=O)[C@H](NC(=O)Cc3ccc(C4=NCCCN4)cc3)c3ccccc3)C(=O)N2[C@H]1C(=O)O
Actelion Java MolfileCreator 2.0

  0  0  0  0  0  0              0 V3000
M  V30 BEGIN CTAB
M  V30 COUNTS 70 74 0 0 0
M  V30 BEGIN ATOM
M  V30 1 S -3.5599 1.7787 1.536 0
M  V30 2 C -4.8949 3.0746 1.3954 0
M  V30 3 C -3.0731 2.0207 -0.2188 0 CFG=1
M  V30 4 C -4.2738 4.1362 0.4657 0 CFG=1
M  V30 5 C -6.1517 2.3937 0.837 0
M  V30 6 C -5.1765 3.6371 2.7904 0
M  V30 7 N -3.3543 3.4418 -0.4197 0
M  V30 8 C -1.5912 2.3279 -0.5601 0 CFG=1
M  V30 9 C -5.29 4.9364 -0.3347 0
M  V30 10 C -2.0607 3.8061 -0.6069 0
M  V30 11 N -0.5572 2.0132 0.46 0
M  V30 12 O -5.7119 4.6866 -1.4528 0
M  V30 13 O -5.7769 5.9919 0.3513 0
M  V30 14 O -1.5364 4.8948 -0.6254 0
M  V30 15 C -0.1649 0.7137 0.7042 0
M  V30 16 O -0.6744 -0.2432 0.1172 0
M  V30 17 C 0.9439 0.5528 1.7709 0 CFG=2
M  V30 18 N 1.5221 -0.772 1.6375 0
M  V30 19 C 0.4294 0.7715 3.182 0
M  V30 20 C 2.8457 -1.0251 1.8979 0
M  V30 21 C -0.7723 0.1982 3.6274 0
M  V30 22 C 1.187 1.5311 4.0881 0
M  V30 23 O 3.6381 -0.1583 2.2577 0
M  V30 24 C 3.2533 -2.4735 1.7019 0
M  V30 25 C -1.2223 0.4128 4.9316 0
M  V30 26 C 0.7373 1.7406 5.3929 0
M  V30 27 C 3.3735 -2.8468 0.2441 0
M  V30 28 C -0.4698 1.1865 5.8123 0
M  V30 29 C 2.4404 -3.7035 -0.3558 0
M  V30 30 C 4.4209 -2.3298 -0.5305 0
M  V30 31 C 2.5477 -4.0316 -1.7109 0
M  V30 32 C 4.5305 -2.6598 -1.8833 0
M  V30 33 C 3.5888 -3.5033 -2.4824 0
M  V30 34 C 3.7158 -3.8363 -3.9396 0
M  V30 35 N 4.9015 -3.8118 -4.4541 0
M  V30 36 N 2.5757 -4.1276 -4.6516 0
M  V30 37 C 5.0468 -4.153 -5.8712 0
M  V30 38 C 2.612 -4.466 -6.0513 0
M  V30 39 C 3.8139 -3.7934 -6.6828 0
M  V30 40 H -3.5947 1.3799 -0.936 0
M  V30 41 H -3.6735 4.8566 1.039 0
M  V30 42 H -6.9889 3.0993 0.7842 0
M  V30 43 H -6.4775 1.5651 1.4773 0
M  V30 44 H -5.9958 1.9961 -0.1719 0
M  V30 45 H -5.9432 4.4189 2.7456 0
M  V30 46 H -5.5427 2.8611 3.4728 0
M  V30 47 H -4.2816 4.0835 3.2392 0
M  V30 48 H -1.282 1.9707 -1.5505 0
M  V30 49 H -0.1505 2.7609 1.0148 0
M  V30 50 H -6.3926 6.4247 -0.279 0
M  V30 51 H 1.7163 1.2969 1.5363 0
M  V30 52 H 0.9267 -1.4946 1.2486 0
M  V30 53 H -1.3741 -0.419 2.9625 0
M  V30 54 H 2.1456 1.9512 3.7861 0
M  V30 55 H 2.5222 -3.1156 2.2085 0
M  V30 56 H 4.2129 -2.6426 2.2051 0
M  V30 57 H -2.1602 -0.0279 5.2602 0
M  V30 58 H 1.3352 2.3291 6.0844 0
M  V30 59 H -0.8187 1.3485 6.8288 0
M  V30 60 H 1.6266 -4.1304 0.2264 0
M  V30 61 H 5.1595 -1.6641 -0.0861 0
M  V30 62 H 1.8295 -4.7217 -2.1425 0
M  V30 63 H 5.3497 -2.252 -2.4715 0
M  V30 64 H 1.6659 -4.0149 -4.2242 0
M  V30 65 H 5.9086 -3.6083 -6.2719 0
M  V30 66 H 5.2736 -5.2219 -5.9611 0
M  V30 67 H 2.6771 -5.5542 -6.1607 0
M  V30 68 H 1.6895 -4.1376 -6.5408 0
M  V30 69 H 3.931 -4.1127 -7.7236 0
M  V30 70 H 3.6763 -2.7046 -6.6835 0
M  V30 END ATOM
M  V30 BEGIN BOND
M  V30 1 1 1 2
M  V30 2 1 1 3
M  V30 3 1 2 4
M  V30 4 1 2 5
M  V30 5 1 2 6
M  V30 6 1 3 7
M  V30 7 1 3 8
M  V30 8 1 4 9
M  V30 9 1 7 10
M  V30 10 1 8 11
M  V30 11 2 9 12
M  V30 12 1 9 13
M  V30 13 2 10 14
M  V30 14 1 11 15
M  V30 15 2 15 16
M  V30 16 1 15 17
M  V30 17 1 17 18
M  V30 18 1 17 19
M  V30 19 1 18 20
M  V30 20 2 19 21
M  V30 21 1 19 22
M  V30 22 2 20 23
M  V30 23 1 20 24
M  V30 24 1 21 25
M  V30 25 2 22 26
M  V30 26 1 24 27
M  V30 27 2 25 28
M  V30 28 2 27 29
M  V30 29 1 27 30
M  V30 30 1 29 31
M  V30 31 2 30 32
M  V30 32 2 31 33
M  V30 33 1 33 34
M  V30 34 2 34 35
M  V30 35 1 34 36
M  V30 36 1 35 37
M  V30 37 1 36 38
M  V30 38 1 37 39
M  V30 39 1 4 7
M  V30 40 1 8 10
M  V30 41 1 26 28
M  V30 42 1 32 33
M  V30 43 1 38 39
M  V30 44 1 3 40
M  V30 45 1 4 41
M  V30 46 1 5 42
M  V30 47 1 5 43
M  V30 48 1 5 44
M  V30 49 1 6 45
M  V30 50 1 6 46
M  V30 51 1 6 47
M  V30 52 1 8 48
M  V30 53 1 11 49
M  V30 54 1 13 50
M  V30 55 1 17 51
M  V30 56 1 18 52
M  V30 57 1 21 53
M  V30 58 1 22 54
M  V30 59 1 24 55
M  V30 60 1 24 56
M  V30 61 1 25 57
M  V30 62 1 26 58
M  V30 63 1 28 59
M  V30 64 1 29 60
M  V30 65 1 30 61
M  V30 66 1 31 62
M  V30 67 1 32 63
M  V30 68 1 36 64
M  V30 69 1 37 65
M  V30 70 1 37 66
M  V30 71 1 38 67
M  V30 72 1 38 68
M  V30 73 1 39 69
M  V30 74 1 39 70
M  V30 END BOND
M  V30 BEGIN COLLECTION
M  V30 MDLV30/STEABS ATOMS=(4 3 4 8 17)
M  V30 END COLLECTION
M  V30 END CTAB
M  END
>  <NO.>
1364

>  <Name>
rotamicillin

>  <SMILES>
CC1(C)S[C@@H]2[C@H](NC(=O)[C@H](NC(=O)Cc3ccc(C4=NCCCN4)cc3)c3ccccc3)C(=O)N2[C@H]1C(=O)O

>  <logBB>


>  <Class>
-1

>  <MW>
549.2

>  <nHBAcc>
7

>  <nHBDon>
4

>  <SLogP>
1.46

>  <TopoPSA>
140.2

>  <MMFF94 Energy>
67.134

$$$$
CC1(C)S[C@@H]2[C@H](NC(=O)c3nc4ccccc4nc3C(=O)O)C(=O)N2[C@H]1C(=O)O
Actelion Java MolfileCreator 2.0

  0  0  0  0  0  0              0 V3000
M  V30 BEGIN CTAB
M  V30 COUNTS 45 48 0 0 0
M  V30 BEGIN ATOM
M  V30 1 S 0.9026 0.4102 -2.1346 0
M  V30 2 C -0.3281 1.5848 -2.8928 0
M  V30 3 C 1.8195 1.721 -1.217 0 CFG=1
M  V30 4 C 0.1831 3.0155 -2.6098 0 CFG=1
M  V30 5 C -0.4769 1.237 -4.378 0
M  V30 6 C -1.6755 1.341 -2.191 0
M  V30 7 N 1.0103 2.9207 -1.4241 0
M  V30 8 C 1.5377 1.876 0.3058 0 CFG=1
M  V30 9 C 1.0286 3.6106 -3.731 0
M  V30 10 C 0.5726 3.006 -0.1436 0
M  V30 11 N 0.9087 0.7325 1.0059 0
M  V30 12 O 2.2267 3.4663 -3.9154 0
M  V30 13 O 0.296 4.3406 -4.5997 0
M  V30 14 O -0.3314 3.6435 0.3429 0
M  V30 15 C 1.6192 -0.4039 1.3354 0
M  V30 16 O 2.8153 -0.5181 1.1052 0
M  V30 17 C 0.7916 -1.4798 1.9579 0
M  V30 18 N -0.5585 -1.2377 1.9635 0
M  V30 19 C 1.322 -2.6545 2.4532 0
M  V30 20 C -1.3419 -2.2166 2.4573 0
M  V30 21 N 0.534 -3.6528 2.9496 0
M  V30 22 C 2.7719 -2.8993 2.515 0
M  V30 23 C -0.7931 -3.4308 2.9476 0
M  V30 24 C -2.7193 -2.0396 2.486 0
M  V30 25 O 3.3929 -3.7516 1.9097 0
M  V30 26 O 3.3491 -2.088 3.4242 0
M  V30 27 C -1.6485 -4.4077 3.4397 0
M  V30 28 C -3.568 -3.0293 2.9842 0
M  V30 29 C -3.0308 -4.2175 3.4621 0
M  V30 30 H 2.864 1.8467 -1.5155 0
M  V30 31 H -0.6417 3.7074 -2.399 0
M  V30 32 H -0.872 0.2232 -4.5162 0
M  V30 33 H -1.1772 1.9233 -4.868 0
M  V30 34 H 0.4753 1.2901 -4.9171 0
M  V30 35 H -2.442 2.0166 -2.5891 0
M  V30 36 H -2.0348 0.3169 -2.3477 0
M  V30 37 H -1.6235 1.5113 -1.1105 0
M  V30 38 H 2.3863 2.2709 0.8783 0
M  V30 39 H -0.0897 0.7205 1.209 0
M  V30 40 H 0.9536 4.664 -5.2529 0
M  V30 41 H -3.1443 -1.1111 2.1114 0
M  V30 42 H 4.3033 -2.306 3.3606 0
M  V30 43 H -1.2285 -5.3387 3.8145 0
M  V30 44 H -4.6438 -2.8699 2.9968 0
M  V30 45 H -3.6813 -4.9969 3.8521 0
M  V30 END ATOM
M  V30 BEGIN BOND
M  V30 1 1 1 2
M  V30 2 1 1 3
M  V30 3 1 2 4
M  V30 4 1 2 5
M  V30 5 1 2 6
M  V30 6 1 3 7
M  V30 7 1 3 8
M  V30 8 1 4 9
M  V30 9 1 7 10
M  V30 10 1 8 11
M  V30 11 2 9 12
M  V30 12 1 9 13
M  V30 13 2 10 14
M  V30 14 1 11 15
M  V30 15 2 15 16
M  V30 16 1 15 17
M  V30 17 2 17 18
M  V30 18 1 17 19
M  V30 19 1 18 20
M  V30 20 2 19 21
M  V30 21 1 19 22
M  V30 22 1 20 23
M  V30 23 2 20 24
M  V30 24 2 22 25
M  V30 25 1 22 26
M  V30 26 2 23 27
M  V30 27 1 24 28
M  V30 28 1 27 29
M  V30 29 1 4 7
M  V30 30 1 8 10
M  V30 31 1 21 23
M  V30 32 2 28 29
M  V30 33 1 3 30
M  V30 34 1 4 31
M  V30 35 1 5 32
M  V30 36 1 5 33
M  V30 37 1 5 34
M  V30 38 1 6 35
M  V30 39 1 6 36
M  V30 40 1 6 37
M  V30 41 1 8 38
M  V30 42 1 11 39
M  V30 43 1 13 40
M  V30 44 1 24 41
M  V30 45 1 26 42
M  V30 46 1 27 43
M  V30 47 1 28 44
M  V30 48 1 29 45
M  V30 END BOND
M  V30 BEGIN COLLECTION
M  V30 MDLV30/STEABS ATOMS=(3 3 4 8)
M  V30 END COLLECTION
M  V30 END CTAB
M  END
>  <NO.>
1369

>  <Name>
quinacillin

>  <SMILES>
CC1(C)S[C@@H]2[C@H](NC(=O)c3nc4ccccc4nc3C(=O)O)C(=O)N2[C@H]1C(=O)O

>  <logBB>


>  <Class>
-1

>  <MW>
416.08

>  <nHBAcc>
7

>  <nHBDon>
3

>  <SLogP>
0.57

>  <TopoPSA>
149.79

>  <MMFF94 Energy>
134.53

$$$$
CC1(c2ccccc2)CC(=O)N(CN2CCOCC2)C1=O
Actelion Java MolfileCreator 2.0

  0  0  0  0  0  0              0 V3000
M  V30 BEGIN CTAB
M  V30 COUNTS 41 43 0 0 0
M  V30 BEGIN ATOM
M  V30 1 O 1.437 -1.1974 1.3571 0
M  V30 2 C 0.3394 -1.349 0.8363 0
M  V30 3 N 0.104 -1.5368 -0.4946 0
M  V30 4 C -0.9925 -1.3581 1.5805 0 CFG=1
M  V30 5 C -1.187 -1.8812 -0.7613 0
M  V30 6 C 1.1327 -1.4849 -1.5025 0
M  V30 7 C -1.3703 0.0623 2.0296 0
M  V30 8 C -1.972 -1.8902 0.5181 0
M  V30 9 C -0.8714 -2.3864 2.7199 0
M  V30 10 O -1.6585 -2.1974 -1.844 0
M  V30 11 N 1.1488 -0.146 -2.1059 0
M  V30 12 C -1.5964 0.39 3.3772 0
M  V30 13 C -1.5031 1.0982 1.0811 0
M  V30 14 C 1.8137 -0.1966 -3.4263 0
M  V30 15 C 1.8705 0.8303 -1.257 0
M  V30 16 C -1.9401 1.6909 3.7596 0
M  V30 17 C -1.8469 2.3973 1.4642 0
M  V30 18 C 1.9057 1.1986 -4.0618 0
M  V30 19 C 1.9701 2.2032 -1.9415 0
M  V30 20 C -2.0658 2.6936 2.8043 0
M  V30 21 O 2.623 2.1031 -3.2132 0
M  V30 22 H 0.8809 -2.237 -2.26 0
M  V30 23 H 2.1054 -1.7538 -1.0738 0
M  V30 24 H -2.277 -2.9249 0.712 0
M  V30 25 H -2.8746 -1.2815 0.4043 0
M  V30 26 H -1.8284 -2.5286 3.2346 0
M  V30 27 H -0.5528 -3.3645 2.3387 0
M  V30 28 H -0.1235 -2.0839 3.4622 0
M  V30 29 H -1.5085 -0.3521 4.1662 0
M  V30 30 H -1.3399 0.9158 0.0203 0
M  V30 31 H 1.2515 -0.8502 -4.103 0
M  V30 32 H 2.8262 -0.6074 -3.3188 0
M  V30 33 H 1.3532 0.9684 -0.3033 0
M  V30 34 H 2.8847 0.4668 -1.0466 0
M  V30 35 H -2.1074 1.9196 4.8094 0
M  V30 36 H -1.9427 3.1772 0.7129 0
M  V30 37 H 2.4461 1.138 -5.0117 0
M  V30 38 H 0.9101 1.6086 -4.2706 0
M  V30 39 H 0.9785 2.6518 -2.0775 0
M  V30 40 H 2.56 2.8845 -1.32 0
M  V30 41 H -2.3318 3.7035 3.1044 0
M  V30 END ATOM
M  V30 BEGIN BOND
M  V30 1 2 1 2
M  V30 2 1 2 3
M  V30 3 1 2 4
M  V30 4 1 3 5
M  V30 5 1 3 6
M  V30 6 1 4 7
M  V30 7 1 4 8
M  V30 8 1 4 9
M  V30 9 2 5 10
M  V30 10 1 6 11
M  V30 11 2 7 12
M  V30 12 1 7 13
M  V30 13 1 11 14
M  V30 14 1 11 15
M  V30 15 1 12 16
M  V30 16 2 13 17
M  V30 17 1 14 18
M  V30 18 1 15 19
M  V30 19 2 16 20
M  V30 20 1 18 21
M  V30 21 1 5 8
M  V30 22 1 17 20
M  V30 23 1 19 21
M  V30 24 1 6 22
M  V30 25 1 6 23
M  V30 26 1 8 24
M  V30 27 1 8 25
M  V30 28 1 9 26
M  V30 29 1 9 27
M  V30 30 1 9 28
M  V30 31 1 12 29
M  V30 32 1 13 30
M  V30 33 1 14 31
M  V30 34 1 14 32
M  V30 35 1 15 33
M  V30 36 1 15 34
M  V30 37 1 16 35
M  V30 38 1 17 36
M  V30 39 1 18 37
M  V30 40 1 18 38
M  V30 41 1 19 39
M  V30 42 1 19 40
M  V30 43 1 20 41
M  V30 END BOND
M  V30 BEGIN COLLECTION
M  V30 MDLV30/STERAC1 ATOMS=(1 4)
M  V30 END COLLECTION
M  V30 END CTAB
M  END
>  <NO.>
1371

>  <Name>
morsuximide

>  <SMILES>
CC1(c2ccccc2)CC(=O)N(CN2CCOCC2)C1=O

>  <logBB>


>  <Class>
1

>  <MW>
288.15

>  <nHBAcc>
4

>  <nHBDon>
0

>  <SLogP>
0.99

>  <TopoPSA>
49.85

>  <MMFF94 Energy>
27.211

$$$$
CC12CC(=O)[C@H]3C(CC[C@H]4C[C@H](O)CCC43C)[C@@H]1CCC2C(=O)CO
Actelion Java MolfileCreator 2.0

  0  0  0  0  0  0              0 V3000
M  V30 BEGIN CTAB
M  V30 COUNTS 57 60 0 0 0
M  V30 BEGIN ATOM
M  V30 1 O 0.4819 -0.4016 2.5725 0
M  V30 2 C 0.3938 -0.4915 1.3487 0
M  V30 3 C -0.1101 0.6567 0.4683 0 CFG=2
M  V30 4 C 0.8462 -1.7542 0.6541 0
M  V30 5 C -1.4599 1.3001 0.9626 0
M  V30 6 C -0.1789 0.1814 -1.0122 0
M  V30 7 C 1.8291 -1.4196 -0.4834 0
M  V30 8 C -1.8253 2.4511 -0.0294 0 CFG=2
M  V30 9 C -1.3032 1.9488 2.3702 0
M  V30 10 C -2.5664 0.2174 1.038 0
M  V30 11 C 1.1838 -0.4005 -1.4879 0 CFG=1
M  V30 12 C -0.6299 1.3292 -1.9339 0
M  V30 13 C 2.1725 -2.6615 -1.3544 0
M  V30 14 C 3.1253 -0.8304 0.1087 0
M  V30 15 C -3.0844 3.2305 0.3844 0
M  V30 16 C -1.9371 1.9653 -1.4763 0
M  V30 17 C -2.515 2.778 2.8198 0
M  V30 18 C 1.0554 -1.1638 -2.8219 0
M  V30 19 C 2.1978 -4.0004 -0.6205 0
M  V30 20 C 1.1132 -2.6336 -2.4514 0
M  V30 21 C -2.9627 3.8127 1.7917 0 CFG=1
M  V30 22 O 1.1841 -4.696 -0.5201 0
M  V30 23 C 3.4919 -4.4077 0.0855 0
M  V30 24 O -2.0563 4.9151 1.7773 0
M  V30 25 O 4.6856 -4.0342 -0.574 0
M  V30 26 H 0.6759 1.4244 0.526 0
M  V30 27 H 1.3197 -2.4011 1.4022 0
M  V30 28 H -0.0462 -2.2777 0.2937 0
M  V30 29 H -0.925 -0.6193 -1.0963 0
M  V30 30 H -0.9926 3.1707 -0.0141 0
M  V30 31 H -0.4108 2.5873 2.3801 0
M  V30 32 H -1.1435 1.1847 3.1371 0
M  V30 33 H -3.5339 0.6289 1.3385 0
M  V30 34 H -2.3117 -0.5538 1.7733 0
M  V30 35 H -2.7268 -0.2882 0.0826 0
M  V30 36 H 1.8677 0.4437 -1.6513 0
M  V30 37 H 0.1501 2.1008 -1.9686 0
M  V30 38 H -0.7623 0.9768 -2.9617 0
M  V30 39 H 3.1434 -2.5285 -1.8487 0
M  V30 40 H 2.9428 0.1238 0.6143 0
M  V30 41 H 3.869 -0.6422 -0.6737 0
M  V30 42 H 3.5745 -1.5098 0.8396 0
M  V30 43 H -3.2446 4.0501 -0.3276 0
M  V30 44 H -3.9671 2.5838 0.3262 0
M  V30 45 H -2.7632 1.2546 -1.5905 0
M  V30 46 H -2.164 2.8117 -2.1363 0
M  V30 47 H -3.351 2.1044 3.0404 0
M  V30 48 H -2.2583 3.2801 3.7608 0
M  V30 49 H 1.9106 -0.9152 -3.4629 0
M  V30 50 H 0.1488 -0.9392 -3.3884 0
M  V30 51 H 1.3883 -3.2605 -3.3056 0
M  V30 52 H 0.1357 -2.9734 -2.0895 0
M  V30 53 H -3.9327 4.223 2.0932 0
M  V30 54 H 3.4904 -3.9873 1.0958 0
M  V30 55 H 3.4954 -5.499 0.1689 0
M  V30 56 H -1.1501 4.5739 1.7082 0
M  V30 57 H 4.9079 -3.1257 -0.3094 0
M  V30 END ATOM
M  V30 BEGIN BOND
M  V30 1 2 1 2
M  V30 2 1 2 3
M  V30 3 1 2 4
M  V30 4 1 3 5
M  V30 5 1 3 6
M  V30 6 1 4 7
M  V30 7 1 5 8
M  V30 8 1 5 9
M  V30 9 1 5 10
M  V30 10 1 6 11
M  V30 11 1 6 12
M  V30 12 1 7 13
M  V30 13 1 7 14
M  V30 14 1 8 15
M  V30 15 1 8 16
M  V30 16 1 9 17
M  V30 17 1 11 18
M  V30 18 1 13 19
M  V30 19 1 13 20
M  V30 20 1 15 21
M  V30 21 2 19 22
M  V30 22 1 19 23
M  V30 23 1 21 24
M  V30 24 1 23 25
M  V30 25 1 7 11
M  V30 26 1 12 16
M  V30 27 1 17 21
M  V30 28 1 18 20
M  V30 29 1 3 26
M  V30 30 1 4 27
M  V30 31 1 4 28
M  V30 32 1 6 29
M  V30 33 1 8 30
M  V30 34 1 9 31
M  V30 35 1 9 32
M  V30 36 1 10 33
M  V30 37 1 10 34
M  V30 38 1 10 35
M  V30 39 1 11 36
M  V30 40 1 12 37
M  V30 41 1 12 38
M  V30 42 1 13 39
M  V30 43 1 14 40
M  V30 44 1 14 41
M  V30 45 1 14 42
M  V30 46 1 15 43
M  V30 47 1 15 44
M  V30 48 1 16 45
M  V30 49 1 16 46
M  V30 50 1 17 47
M  V30 51 1 17 48
M  V30 52 1 18 49
M  V30 53 1 18 50
M  V30 54 1 20 51
M  V30 55 1 20 52
M  V30 56 1 21 53
M  V30 57 1 23 54
M  V30 58 1 23 55
M  V30 59 1 24 56
M  V30 60 1 25 57
M  V30 END BOND
M  V30 BEGIN COLLECTION
M  V30 MDLV30/STEABS ATOMS=(4 3 8 11 21)
M  V30 END COLLECTION
M  V30 END CTAB
M  END
>  <NO.>
1373

>  <Name>
alfadolonum [inn-latin]

>  <SMILES>
CC12CC(=O)[C@H]3C(CC[C@H]4C[C@H](O)CCC43C)[C@@H]1CCC2C(=O)CO

>  <logBB>


>  <Class>
1

>  <MW>
348.23

>  <nHBAcc>
4

>  <nHBDon>
2

>  <SLogP>
2.75

>  <TopoPSA>
74.6

>  <MMFF94 Energy>
102.05

$$$$
CC12CC(Cl)[C@@]3(Cl)C(CCC4=CC(=O)C=CC43C)C1CC[C@]2(O)C(=O)CO
Actelion Java MolfileCreator 2.0

  0  0  0  0  0  0              0 V3000
M  V30 BEGIN CTAB
M  V30 COUNTS 53 56 0 0 0
M  V30 BEGIN ATOM
M  V30 1 Cl -0.8235 -2.5546 -0.1646 0
M  V30 2 C 0.0448 -1.1262 -0.9439 0 CFG=2
M  V30 3 C 0.1154 -1.4015 -2.5334 0
M  V30 4 C 1.4303 -0.9437 -0.2025 0
M  V30 5 C -0.827 0.1825 -0.6792 0
M  V30 6 C -1.323 -1.3645 -3.107 0
M  V30 7 C 0.7947 -2.7181 -2.9196 0
M  V30 8 C 0.9494 -0.3173 -3.2635 0
M  V30 9 Cl 2.496 -2.3945 -0.1902 0
M  V30 10 C 1.3205 -0.4855 1.277 0
M  V30 11 C -0.9013 0.5157 0.82 0
M  V30 12 C -2.2259 0.1153 -1.3153 0
M  V30 13 C -1.8846 -2.3787 -3.7907 0
M  V30 14 C -2.1425 -0.1356 -2.8146 0
M  V30 15 C 0.228 -3.7233 -3.6008 0
M  V30 16 C 0.4847 0.7935 1.4486 0
M  V30 17 C -1.7321 1.7165 1.2609 0
M  V30 18 C -1.1622 -3.6328 -4.074 0
M  V30 19 C 0.0486 1.1645 2.9042 0 CFG=1
M  V30 20 C 1.2372 1.9876 0.798 0
M  V30 21 C -1.2235 2.0333 2.6801 0
M  V30 22 O -1.6896 -4.5473 -4.6935 0
M  V30 23 O -0.3421 -0.0173 3.6071 0
M  V30 24 C 1.1263 1.9053 3.7233 0
M  V30 25 O 1.1751 3.1371 3.8023 0
M  V30 26 C 2.1572 1.0562 4.4597 0
M  V30 27 O 3.2516 1.8466 4.9063 0
M  V30 28 H 2.0129 -0.1923 -0.7414 0
M  V30 29 H -0.3269 1.0245 -1.169 0
M  V30 30 H 1.8428 -2.8461 -2.6679 0
M  V30 31 H 0.6074 0.7002 -3.057 0
M  V30 32 H 2.0087 -0.3636 -2.9857 0
M  V30 33 H 0.9029 -0.4486 -4.3528 0
M  V30 34 H 0.897 -1.3 1.8775 0
M  V30 35 H 2.3297 -0.3128 1.6706 0
M  V30 36 H -1.3559 -0.3498 1.3228 0
M  V30 37 H -2.7554 1.0631 -1.1619 0
M  V30 38 H -2.8371 -0.6581 -0.8353 0
M  V30 39 H -2.9024 -2.3455 -4.1636 0
M  V30 40 H -1.6991 0.7311 -3.3181 0
M  V30 41 H -3.1606 -0.227 -3.2127 0
M  V30 42 H 0.7646 -4.6299 -3.8532 0
M  V30 43 H -1.5804 2.5767 0.5993 0
M  V30 44 H -2.8039 1.4924 1.2693 0
M  V30 45 H 0.7058 2.9367 0.9196 0
M  V30 46 H 2.2269 2.1115 1.2527 0
M  V30 47 H 1.4051 1.8571 -0.2734 0
M  V30 48 H -2.0046 1.801 3.4131 0
M  V30 49 H -1.0266 3.1083 2.7496 0
M  V30 50 H -0.9039 0.2364 4.362 0
M  V30 51 H 1.6825 0.5991 5.3319 0
M  V30 52 H 2.5517 0.2793 3.8052 0
M  V30 53 H 2.9022 2.7508 5.0395 0
M  V30 END ATOM
M  V30 BEGIN BOND
M  V30 1 1 1 2
M  V30 2 1 2 3
M  V30 3 1 2 4
M  V30 4 1 2 5
M  V30 5 1 3 6
M  V30 6 1 3 7
M  V30 7 1 3 8
M  V30 8 1 4 9
M  V30 9 1 4 10
M  V30 10 1 5 11
M  V30 11 1 5 12
M  V30 12 2 6 13
M  V30 13 1 6 14
M  V30 14 2 7 15
M  V30 15 1 10 16
M  V30 16 1 11 17
M  V30 17 1 13 18
M  V30 18 1 16 19
M  V30 19 1 16 20
M  V30 20 1 17 21
M  V30 21 2 18 22
M  V30 22 1 19 23
M  V30 23 1 19 24
M  V30 24 2 24 25
M  V30 25 1 24 26
M  V30 26 1 26 27
M  V30 27 1 11 16
M  V30 28 1 12 14
M  V30 29 1 15 18
M  V30 30 1 19 21
M  V30 31 1 4 28
M  V30 32 1 5 29
M  V30 33 1 7 30
M  V30 34 1 8 31
M  V30 35 1 8 32
M  V30 36 1 8 33
M  V30 37 1 10 34
M  V30 38 1 10 35
M  V30 39 1 11 36
M  V30 40 1 12 37
M  V30 41 1 12 38
M  V30 42 1 13 39
M  V30 43 1 14 40
M  V30 44 1 14 41
M  V30 45 1 15 42
M  V30 46 1 17 43
M  V30 47 1 17 44
M  V30 48 1 20 45
M  V30 49 1 20 46
M  V30 50 1 20 47
M  V30 51 1 21 48
M  V30 52 1 21 49
M  V30 53 1 23 50
M  V30 54 1 26 51
M  V30 55 1 26 52
M  V30 56 1 27 53
M  V30 END BOND
M  V30 BEGIN COLLECTION
M  V30 MDLV30/STEABS ATOMS=(2 2 19)
M  V30 END COLLECTION
M  V30 END CTAB
M  END
>  <NO.>
1374

>  <Name>
schembl1649910

>  <SMILES>
CC12CC(Cl)[C@@]3(Cl)C(CCC4=CC(=O)C=CC43C)C1CC[C@]2(O)C(=O)CO

>  <logBB>


>  <Class>
1

>  <MW>
412.12

>  <nHBAcc>
4

>  <nHBDon>
2

>  <SLogP>
3.17

>  <TopoPSA>
74.6

>  <MMFF94 Energy>
159.95

$$$$
CC12CC3CC(C)(C1)CC(N)(C3)C2
Actelion Java MolfileCreator 2.0

  0  0  0  0  0  0              0 V3000
M  V30 BEGIN CTAB
M  V30 COUNTS 34 36 0 0 0
M  V30 BEGIN ATOM
M  V30 1 N -2.6343 -1.3564 -0.5583 0
M  V30 2 C -1.4326 -0.6153 -0.1764 0
M  V30 3 C -0.9004 0.1982 -1.3762 0
M  V30 4 C -0.341 -1.6026 0.2878 0
M  V30 5 C -1.7657 0.3493 0.9799 0
M  V30 6 C 0.3688 0.9862 -0.9743 0
M  V30 7 C 0.9355 -0.8377 0.7106 0
M  V30 8 C -0.5065 1.1266 1.3973 0
M  V30 9 C 1.445 -0.0165 -0.4969 0
M  V30 10 C 0.0166 1.9313 0.1968 0
M  V30 11 C 0.8899 1.7938 -2.167 0
M  V30 12 C 0.575 0.1356 1.8558 0
M  V30 13 C 2.0136 -1.8225 1.1735 0
M  V30 14 H -2.4254 -1.9752 -1.341 0
M  V30 15 H -3.3485 -0.7098 -0.8918 0
M  V30 16 H -0.6719 -0.4717 -2.2166 0
M  V30 17 H -1.6722 0.8941 -1.7335 0
M  V30 18 H -0.1009 -2.3092 -0.5188 0
M  V30 19 H -0.7096 -2.2049 1.1299 0
M  V30 20 H -2.1576 -0.2053 1.8429 0
M  V30 21 H -2.5498 1.0566 0.6781 0
M  V30 22 H -0.7515 1.8094 2.2188 0
M  V30 23 H 2.3612 0.5228 -0.2211 0
M  V30 24 H 1.7172 -0.6917 -1.3193 0
M  V30 25 H -0.7424 2.6592 -0.1177 0
M  V30 26 H 0.9003 2.5088 0.4975 0
M  V30 27 H 1.1447 1.1383 -3.007 0
M  V30 28 H 1.7898 2.3584 -1.8991 0
M  V30 29 H 0.1387 2.5099 -2.518 0
M  V30 30 H 0.216 -0.4229 2.73 0
M  V30 31 H 1.4667 0.6875 2.18 0
M  V30 32 H 2.2813 -2.5204 0.3726 0
M  V30 33 H 1.6683 -2.4128 2.0295 0
M  V30 34 H 2.9255 -1.2963 1.4769 0
M  V30 END ATOM
M  V30 BEGIN BOND
M  V30 1 1 1 2
M  V30 2 1 2 3
M  V30 3 1 2 4
M  V30 4 1 2 5
M  V30 5 1 3 6
M  V30 6 1 4 7
M  V30 7 1 5 8
M  V30 8 1 6 9
M  V30 9 1 6 10
M  V30 10 1 6 11
M  V30 11 1 7 12
M  V30 12 1 7 13
M  V30 13 1 7 9
M  V30 14 1 8 10
M  V30 15 1 8 12
M  V30 16 1 1 14
M  V30 17 1 1 15
M  V30 18 1 3 16
M  V30 19 1 3 17
M  V30 20 1 4 18
M  V30 21 1 4 19
M  V30 22 1 5 20
M  V30 23 1 5 21
M  V30 24 1 8 22
M  V30 25 1 9 23
M  V30 26 1 9 24
M  V30 27 1 10 25
M  V30 28 1 10 26
M  V30 29 1 11 27
M  V30 30 1 11 28
M  V30 31 1 11 29
M  V30 32 1 12 30
M  V30 33 1 12 31
M  V30 34 1 13 32
M  V30 35 1 13 33
M  V30 36 1 13 34
M  V30 END BOND
M  V30 END CTAB
M  END
>  <NO.>
1375

>  <Name>
memantine

>  <SMILES>
CC12CC3CC(C)(C1)CC(N)(C3)C2

>  <logBB>


>  <Class>
1

>  <MW>
179.17

>  <nHBAcc>
1

>  <nHBDon>
1

>  <SLogP>
2.69

>  <TopoPSA>
26.02

>  <MMFF94 Energy>
33.288

$$$$
CC12CCC(=O)C=C1CCC1C2CCC2(C)C1CCC2(O)C(=O)CO
Actelion Java MolfileCreator 2.0

  0  0  0  0  0  0              0 V3000
M  V30 BEGIN CTAB
M  V30 COUNTS 55 58 0 0 0
M  V30 BEGIN ATOM
M  V30 1 O -0.9657 -5.4821 -3.0607 0
M  V30 2 C -0.3916 -4.4799 -2.6423 0
M  V30 3 C -0.1814 -4.3152 -1.1834 0
M  V30 4 C 0.1909 -3.4399 -3.5654 0
M  V30 5 C 0.4251 -3.2288 -0.6705 0
M  V30 6 C 0.1426 -2.072 -2.8966 0
M  V30 7 C 0.8561 -2.0266 -1.5125 0
M  V30 8 C 0.7793 -3.1964 0.7955 0
M  V30 9 C 0.5748 -0.6476 -0.7779 0
M  V30 10 C 2.385 -2.1472 -1.7564 0
M  V30 11 C 0.3887 -1.8798 1.4501 0
M  V30 12 C 1.0053 -0.6755 0.7167 0
M  V30 13 C -0.8706 -0.1166 -0.8954 0
M  V30 14 C 0.7251 0.647 1.4695 0
M  V30 15 C -1.0256 1.2686 -0.2594 0
M  V30 16 C -0.6531 1.3227 1.2364 0
M  V30 17 C 1.7543 1.7396 1.1028 0
M  V30 18 C -0.3607 2.7767 1.735 0
M  V30 19 C -1.7742 0.6697 2.0697 0
M  V30 20 C 1.039 3.09 1.2048 0
M  V30 21 O -0.2475 2.7773 3.173 0
M  V30 22 C -1.4522 3.8114 1.401 0
M  V30 23 O -2.432 3.9463 2.1485 0
M  V30 24 C -1.3091 4.6952 0.1702 0
M  V30 25 O -2.5127 5.399 -0.1063 0
M  V30 26 H -0.4806 -5.1635 -0.5771 0
M  V30 27 H 1.2082 -3.7338 -3.8386 0
M  V30 28 H -0.4123 -3.4127 -4.4798 0
M  V30 29 H 0.564 -1.3151 -3.5691 0
M  V30 30 H -0.9221 -1.8389 -2.7826 0
M  V30 31 H 1.8596 -3.3524 0.9042 0
M  V30 32 H 0.2944 -4.017 1.3386 0
M  V30 33 H 1.2011 0.0993 -1.2865 0
M  V30 34 H 2.6542 -3.1062 -2.2125 0
M  V30 35 H 2.964 -2.071 -0.8308 0
M  V30 36 H 2.7367 -1.3538 -2.426 0
M  V30 37 H -0.7009 -1.819 1.4771 0
M  V30 38 H 0.7282 -1.8921 2.4931 0
M  V30 39 H 2.0935 -0.8212 0.7527 0
M  V30 40 H -1.5867 -0.8268 -0.4704 0
M  V30 41 H -1.1411 0.012 -1.9485 0
M  V30 42 H 0.8503 0.4563 2.5455 0
M  V30 43 H -2.0584 1.6111 -0.4016 0
M  V30 44 H -0.3965 1.9562 -0.8364 0
M  V30 45 H 2.1565 1.6151 0.092 0
M  V30 46 H 2.6087 1.6984 1.7883 0
M  V30 47 H -2.6676 1.303 2.0895 0
M  V30 48 H -2.0964 -0.2906 1.664 0
M  V30 49 H -1.4652 0.4985 3.1063 0
M  V30 50 H 1.5906 3.765 1.8693 0
M  V30 51 H 1.0268 3.5518 0.213 0
M  V30 52 H -1.1588 2.8543 3.524 0
M  V30 53 H -0.5181 5.4281 0.3492 0
M  V30 54 H -1.0717 4.0968 -0.7092 0
M  V30 55 H -2.9805 5.493 0.7485 0
M  V30 END ATOM
M  V30 BEGIN BOND
M  V30 1 2 1 2
M  V30 2 1 2 3
M  V30 3 1 2 4
M  V30 4 2 3 5
M  V30 5 1 4 6
M  V30 6 1 5 7
M  V30 7 1 5 8
M  V30 8 1 7 9
M  V30 9 1 7 10
M  V30 10 1 8 11
M  V30 11 1 9 12
M  V30 12 1 9 13
M  V30 13 1 12 14
M  V30 14 1 13 15
M  V30 15 1 14 16
M  V30 16 1 14 17
M  V30 17 1 16 18
M  V30 18 1 16 19
M  V30 19 1 17 20
M  V30 20 1 18 21
M  V30 21 1 18 22
M  V30 22 2 22 23
M  V30 23 1 22 24
M  V30 24 1 24 25
M  V30 25 1 6 7
M  V30 26 1 11 12
M  V30 27 1 15 16
M  V30 28 1 18 20
M  V30 29 1 3 26
M  V30 30 1 4 27
M  V30 31 1 4 28
M  V30 32 1 6 29
M  V30 33 1 6 30
M  V30 34 1 8 31
M  V30 35 1 8 32
M  V30 36 1 9 33
M  V30 37 1 10 34
M  V30 38 1 10 35
M  V30 39 1 10 36
M  V30 40 1 11 37
M  V30 41 1 11 38
M  V30 42 1 12 39
M  V30 43 1 13 40
M  V30 44 1 13 41
M  V30 45 1 14 42
M  V30 46 1 15 43
M  V30 47 1 15 44
M  V30 48 1 17 45
M  V30 49 1 17 46
M  V30 50 1 19 47
M  V30 51 1 19 48
M  V30 52 1 19 49
M  V30 53 1 20 50
M  V30 54 1 20 51
M  V30 55 1 21 52
M  V30 56 1 24 53
M  V30 57 1 24 54
M  V30 58 1 25 55
M  V30 END BOND
M  V30 END CTAB
M  END
>  <NO.>
1376

>  <Name>
cortexolone(cortodoxonecortifen)

>  <SMILES>
CC12CCC(=O)C=C1CCC1C2CCC2(C)C1CCC2(O)C(=O)CO

>  <logBB>


>  <Class>
1

>  <MW>
346.21

>  <nHBAcc>
4

>  <nHBDon>
2

>  <SLogP>
2.81

>  <TopoPSA>
74.6

>  <MMFF94 Energy>
121.17

$$$$
CC12CCC(CC1=O)C2(C)C
Actelion Java MolfileCreator 2.0

  0  0  0  0  0  0              0 V3000
M  V30 BEGIN CTAB
M  V30 COUNTS 27 28 0 0 0
M  V30 BEGIN ATOM
M  V30 1 O 2.1516 -1.9124 0.4778 0
M  V30 2 C 1.4782 -0.9587 0.12 0
M  V30 3 C 0.1285 -0.5351 0.7085 0
M  V30 4 C 1.8681 0.0174 -0.9719 0
M  V30 5 C -0.5458 0.0521 -0.5617 0
M  V30 6 C 0.485 0.7122 1.5495 0
M  V30 7 C -0.6023 -1.6237 1.4567 0
M  V30 8 C 0.6633 0.9835 -0.8547 0
M  V30 9 C -0.8373 -0.9792 -1.6707 0
M  V30 10 C -1.8649 0.8073 -0.3074 0
M  V30 11 C 0.8304 1.7655 0.4731 0
M  V30 12 H 1.9042 -0.4867 -1.9398 0
M  V30 13 H 2.8219 0.5002 -0.7477 0
M  V30 14 H 1.3407 0.537 2.2119 0
M  V30 15 H -0.3529 1.0495 2.1687 0
M  V30 16 H -1.5772 -1.2771 1.8139 0
M  V30 17 H -0.0252 -1.9542 2.3273 0
M  V30 18 H -0.7637 -2.5034 0.8251 0
M  V30 19 H 0.5541 1.6356 -1.7245 0
M  V30 20 H -0.011 -1.6673 -1.8679 0
M  V30 21 H -1.0713 -0.4706 -2.6128 0
M  V30 22 H -1.6994 -1.6017 -1.4049 0
M  V30 23 H -1.8148 1.5437 0.4976 0
M  V30 24 H -2.6663 0.1088 -0.0408 0
M  V30 25 H -2.177 1.3426 -1.2115 0
M  V30 26 H 1.8442 2.1588 0.6022 0
M  V30 27 H 0.1412 2.6149 0.5263 0
M  V30 END ATOM
M  V30 BEGIN BOND
M  V30 1 2 1 2
M  V30 2 1 2 3
M  V30 3 1 2 4
M  V30 4 1 3 5
M  V30 5 1 3 6
M  V30 6 1 3 7
M  V30 7 1 4 8
M  V30 8 1 5 9
M  V30 9 1 5 10
M  V30 10 1 6 11
M  V30 11 1 5 8
M  V30 12 1 8 11
M  V30 13 1 4 12
M  V30 14 1 4 13
M  V30 15 1 6 14
M  V30 16 1 6 15
M  V30 17 1 7 16
M  V30 18 1 7 17
M  V30 19 1 7 18
M  V30 20 1 8 19
M  V30 21 1 9 20
M  V30 22 1 9 21
M  V30 23 1 9 22
M  V30 24 1 10 23
M  V30 25 1 10 24
M  V30 26 1 10 25
M  V30 27 1 11 26
M  V30 28 1 11 27
M  V30 END BOND
M  V30 END CTAB
M  END
>  <NO.>
1377

>  <Name>
camphor

>  <SMILES>
CC12CCC(CC1=O)C2(C)C

>  <logBB>


>  <Class>
1

>  <MW>
152.12

>  <nHBAcc>
1

>  <nHBDon>
0

>  <SLogP>
2.4

>  <TopoPSA>
17.07

>  <MMFF94 Energy>
45.556

$$$$
CC12CCCCCC(Cc3ccc(O)cc31)C2N
Actelion Java MolfileCreator 2.0

  0  0  0  0  0  0              0 V3000
M  V30 BEGIN CTAB
M  V30 COUNTS 41 43 0 0 0
M  V30 BEGIN ATOM
M  V30 1 O 2.7044 4.0588 -1.2719 0
M  V30 2 C 2.1531 2.8166 -1.3916 0
M  V30 3 C 1.0805 2.4186 -0.5962 0
M  V30 4 C 2.6977 1.9573 -2.3294 0
M  V30 5 C 0.5157 1.132 -0.7322 0
M  V30 6 C 2.1649 0.6794 -2.4729 0
M  V30 7 C 1.0864 0.2489 -1.6764 0
M  V30 8 C -0.6379 0.6806 0.1908 0
M  V30 9 C 0.5493 -1.1411 -1.9326 0
M  V30 10 C -1.375 -0.5766 -0.4049 0
M  V30 11 C 0.016 0.4139 1.5908 0
M  V30 12 C -1.6868 1.8141 0.3879 0
M  V30 13 C -0.3987 -1.6817 -0.8485 0
M  V30 14 N -2.2382 -0.2527 -1.5674 0
M  V30 15 C -0.779 -0.4466 2.5777 0
M  V30 16 C 0.3981 -2.3877 0.2689 0
M  V30 17 C -0.2633 -1.8818 2.7101 0
M  V30 18 C -0.4261 -2.7945 1.4931 0
M  V30 19 H 2.2016 4.5545 -0.6057 0
M  V30 20 H 0.6892 3.1082 0.1442 0
M  V30 21 H 3.5304 2.2784 -2.9474 0
M  V30 22 H 2.5927 0.0124 -3.2184 0
M  V30 23 H 0.0147 -1.1103 -2.8916 0
M  V30 24 H 1.3862 -1.8386 -2.0675 0
M  V30 25 H -2.0705 -0.9802 0.3348 0
M  V30 26 H 0.1841 1.3866 2.0776 0
M  V30 27 H 1.0314 0.014 1.4892 0
M  V30 28 H -2.0077 2.2429 -0.5683 0
M  V30 29 H -1.2993 2.6462 0.9863 0
M  V30 30 H -2.5748 1.4413 0.9114 0
M  V30 31 H -0.9897 -2.4854 -1.3147 0
M  V30 32 H -2.6996 -1.0984 -1.8998 0
M  V30 33 H -2.9838 0.3808 -1.2854 0
M  V30 34 H -1.8539 -0.4321 2.374 0
M  V30 35 H -0.6707 0.0126 3.57 0
M  V30 36 H 1.2895 -1.8241 0.5589 0
M  V30 37 H 0.7979 -3.3119 -0.1735 0
M  V30 38 H -0.7965 -2.3494 3.5483 0
M  V30 39 H 0.7937 -1.86 3.0048 0
M  V30 40 H -1.4851 -2.9201 1.2424 0
M  V30 41 H -0.0809 -3.7899 1.8041 0
M  V30 END ATOM
M  V30 BEGIN BOND
M  V30 1 1 1 2
M  V30 2 2 2 3
M  V30 3 1 2 4
M  V30 4 1 3 5
M  V30 5 2 4 6
M  V30 6 2 5 7
M  V30 7 1 5 8
M  V30 8 1 7 9
M  V30 9 1 8 10
M  V30 10 1 8 11
M  V30 11 1 8 12
M  V30 12 1 9 13
M  V30 13 1 10 14
M  V30 14 1 11 15
M  V30 15 1 13 16
M  V30 16 1 15 17
M  V30 17 1 16 18
M  V30 18 1 6 7
M  V30 19 1 10 13
M  V30 20 1 17 18
M  V30 21 1 1 19
M  V30 22 1 3 20
M  V30 23 1 4 21
M  V30 24 1 6 22
M  V30 25 1 9 23
M  V30 26 1 9 24
M  V30 27 1 10 25
M  V30 28 1 11 26
M  V30 29 1 11 27
M  V30 30 1 12 28
M  V30 31 1 12 29
M  V30 32 1 12 30
M  V30 33 1 13 31
M  V30 34 1 14 32
M  V30 35 1 14 33
M  V30 36 1 15 34
M  V30 37 1 15 35
M  V30 38 1 16 36
M  V30 39 1 16 37
M  V30 40 1 17 38
M  V30 41 1 17 39
M  V30 42 1 18 40
M  V30 43 1 18 41
M  V30 END BOND
M  V30 END CTAB
M  END
>  <NO.>
1378

>  <Name>
dezocine

>  <SMILES>
CC12CCCCCC(Cc3ccc(O)cc31)C2N

>  <logBB>


>  <Class>
1

>  <MW>
245.18

>  <nHBAcc>
2

>  <nHBDon>
2

>  <SLogP>
3.11

>  <TopoPSA>
46.25

>  <MMFF94 Energy>
63.405

$$$$
CC12C[C@H](O)[C@@]3(F)C(CCC4=CC(=O)C=CC43C)[C@@H]1C[C@H]1O[C@@](C)(c3ccccc3)O[C@]12C(=O)CO
Actelion Java MolfileCreator 2.0

  0  0  0  0  0  0              0 V3000
M  V30 BEGIN CTAB
M  V30 COUNTS 69 74 0 0 0
M  V30 BEGIN ATOM
M  V30 1 F 0.0 0.0 2.0323 0
M  V30 2 C 0.9186 -0.9612 1.6339 0 CFG=2
M  V30 3 C 1.1093 -1.9218 2.8778 0
M  V30 4 C 2.1771 -0.1398 1.2062 0 CFG=1
M  V30 5 C 0.2539 -1.6923 0.418 0
M  V30 6 C -0.2529 -2.5734 3.177 0
M  V30 7 C 1.62 -1.145 4.0895 0
M  V30 8 C 2.1287 -3.0597 2.6416 0
M  V30 9 O 3.3699 -0.9019 1.0529 0
M  V30 10 C 1.9594 0.7379 -0.05 0
M  V30 11 C 0.009 -0.6643 -0.6973 0 CFG=1
M  V30 12 C -1.0726 -2.3574 0.8322 0
M  V30 13 C -0.8771 -2.4833 4.3652 0
M  V30 14 C -0.9078 -3.2924 2.0255 0
M  V30 15 C 0.9937 -1.0577 5.2706 0
M  V30 16 C 1.2976 0.0024 -1.2326 0
M  V30 17 C -0.7264 -1.09 -1.9678 0
M  V30 18 C -0.2963 -1.7346 5.4985 0
M  V30 19 C 0.6824 0.9118 -2.346 0 CFG=1
M  V30 20 C 2.2835 -1.0087 -1.8754 0
M  V30 21 C -0.3965 0.0278 -2.9839 0 CFG=2
M  V30 22 O -0.8624 -1.6797 6.5829 0
M  V30 23 O -0.0324 2.0179 -1.7917 0
M  V30 24 C 1.7006 1.4289 -3.3712 0
M  V30 25 O -1.5175 0.8754 -3.2007 0
M  V30 26 C -1.3517 2.023 -2.3626 0 CFG=1
M  V30 27 O 1.978 0.813 -4.4053 0
M  V30 28 C 2.3937 2.751 -3.0615 0
M  V30 29 C -2.4035 2.0325 -1.2602 0
M  V30 30 C -1.4949 3.2692 -3.2344 0
M  V30 31 O 3.5338 2.9433 -3.8879 0
M  V30 32 C -2.1404 2.6204 -0.0104 0
M  V30 33 C -3.6758 1.4731 -1.4735 0
M  V30 34 C -3.1065 2.6257 0.9977 0
M  V30 35 C -4.6426 1.482 -0.4659 0
M  V30 36 C -4.3563 2.0556 0.77 0
M  V30 37 H 2.3969 0.57 2.0126 0
M  V30 38 H 0.917 -2.4823 0.053 0
M  V30 39 H 2.58 -0.6412 3.9894 0
M  V30 40 H 2.0491 -3.8293 3.421 0
M  V30 41 H 1.9836 -3.5629 1.6812 0
M  V30 42 H 3.1645 -2.7057 2.6731 0
M  V30 43 H 3.1963 -1.6977 0.5286 0
M  V30 44 H 2.9206 1.1581 -0.3685 0
M  V30 45 H 1.3293 1.5848 0.2495 0
M  V30 46 H -0.617 0.1125 -0.2379 0
M  V30 47 H -1.8163 -1.5868 1.0762 0
M  V30 48 H -1.4806 -2.9319 -0.0076 0
M  V30 49 H -1.8441 -2.9337 4.5582 0
M  V30 50 H -0.3047 -4.1622 1.741 0
M  V30 51 H -1.8932 -3.683 2.3078 0
M  V30 52 H 1.4005 -0.5021 6.1068 0
M  V30 53 H -0.3371 -2.0501 -2.3248 0
M  V30 54 H -1.803 -1.1983 -1.8028 0
M  V30 55 H 3.2477 -0.5305 -2.0823 0
M  V30 56 H 2.4797 -1.8807 -1.2529 0
M  V30 57 H 1.9132 -1.4068 -2.826 0
M  V30 58 H -0.1206 -0.4248 -3.9409 0
M  V30 59 H 1.6948 3.5721 -3.2398 0
M  V30 60 H 2.7264 2.7701 -2.0228 0
M  V30 61 H -1.328 4.1856 -2.6574 0
M  V30 62 H -2.4839 3.3225 -3.7031 0
M  V30 63 H -0.7576 3.2581 -4.0451 0
M  V30 64 H 3.3442 2.4837 -4.7304 0
M  V30 65 H -1.1707 3.0707 0.1922 0
M  V30 66 H -3.9199 1.0198 -2.4327 0
M  V30 67 H -2.8807 3.0725 1.9628 0
M  V30 68 H -5.619 1.04 -0.6467 0
M  V30 69 H -5.1068 2.0595 1.5561 0
M  V30 END ATOM
M  V30 BEGIN BOND
M  V30 1 1 1 2
M  V30 2 1 2 3
M  V30 3 1 2 4
M  V30 4 1 2 5
M  V30 5 1 3 6
M  V30 6 1 3 7
M  V30 7 1 3 8
M  V30 8 1 4 9
M  V30 9 1 4 10
M  V30 10 1 5 11
M  V30 11 1 5 12
M  V30 12 2 6 13
M  V30 13 1 6 14
M  V30 14 2 7 15
M  V30 15 1 10 16
M  V30 16 1 11 17
M  V30 17 1 13 18
M  V30 18 1 16 19
M  V30 19 1 16 20
M  V30 20 1 17 21
M  V30 21 2 18 22
M  V30 22 1 19 23
M  V30 23 1 19 24
M  V30 24 1 21 25
M  V30 25 1 23 26
M  V30 26 2 24 27
M  V30 27 1 24 28
M  V30 28 1 26 29
M  V30 29 1 26 30
M  V30 30 1 28 31
M  V30 31 2 29 32
M  V30 32 1 29 33
M  V30 33 1 32 34
M  V30 34 2 33 35
M  V30 35 2 34 36
M  V30 36 1 11 16
M  V30 37 1 12 14
M  V30 38 1 15 18
M  V30 39 1 19 21
M  V30 40 1 25 26
M  V30 41 1 35 36
M  V30 42 1 4 37
M  V30 43 1 5 38
M  V30 44 1 7 39
M  V30 45 1 8 40
M  V30 46 1 8 41
M  V30 47 1 8 42
M  V30 48 1 9 43
M  V30 49 1 10 44
M  V30 50 1 10 45
M  V30 51 1 11 46
M  V30 52 1 12 47
M  V30 53 1 12 48
M  V30 54 1 13 49
M  V30 55 1 14 50
M  V30 56 1 14 51
M  V30 57 1 15 52
M  V30 58 1 17 53
M  V30 59 1 17 54
M  V30 60 1 20 55
M  V30 61 1 20 56
M  V30 62 1 20 57
M  V30 63 1 21 58
M  V30 64 1 28 59
M  V30 65 1 28 60
M  V30 66 1 30 61
M  V30 67 1 30 62
M  V30 68 1 30 63
M  V30 69 1 31 64
M  V30 70 1 32 65
M  V30 71 1 33 66
M  V30 72 1 34 67
M  V30 73 1 35 68
M  V30 74 1 36 69
M  V30 END BOND
M  V30 BEGIN COLLECTION
M  V30 MDLV30/STEABS ATOMS=(6 2 4 11 19 21 26)
M  V30 END COLLECTION
M  V30 END CTAB
M  END
>  <NO.>
1379

>  <Name>
amcinafide

>  <SMILES>
CC12C[C@H](O)[C@@]3(F)C(CCC4=CC(=O)C=CC43C)[C@@H]1C[C@H]1O[C@@](C)(c3ccccc3)O[C@]12C(=O)CO

>  <logBB>


>  <Class>
1

>  <MW>
496.23

>  <nHBAcc>
6

>  <nHBDon>
2

>  <SLogP>
3.56

>  <TopoPSA>
93.06

>  <MMFF94 Energy>
195.15

$$$$
CC1=C(C(=O)O)N2C(=O)[C@@H](NC(=O)Cc3ccc(C4=NCCCN4)cc3)[C@H]2SC1
Actelion Java MolfileCreator 2.0

  0  0  0  0  0  0              0 V3000
M  V30 BEGIN CTAB
M  V30 COUNTS 51 54 0 0 0
M  V30 BEGIN ATOM
M  V30 1 S 1.7014 2.1068 0.4858 0
M  V30 2 C 2.4717 2.6499 -1.0636 0 CFG=1
M  V30 3 C 3.293 1.689 1.2643 0
M  V30 4 N 3.1744 1.5161 -1.6168 0
M  V30 5 C 1.6216 2.6529 -2.3718 0 CFG=1
M  V30 6 C 4.1941 0.8321 0.3956 0
M  V30 7 C 4.0679 0.7469 -0.9484 0
M  V30 8 C 2.5674 1.49 -2.8176 0
M  V30 9 N 0.1791 2.3043 -2.2781 0
M  V30 10 C 5.2238 0.0656 1.1876 0
M  V30 11 C 4.8788 -0.1972 -1.7575 0
M  V30 12 O 2.6769 0.7673 -3.779 0
M  V30 13 C -0.759 3.245 -1.9176 0
M  V30 14 O 5.687 0.1118 -2.6141 0
M  V30 15 O 4.6101 -1.4784 -1.4503 0
M  V30 16 O -0.458 4.4142 -1.6862 0
M  V30 17 C -2.1957 2.7541 -1.896 0
M  V30 18 C -2.4058 1.5127 -1.0613 0
M  V30 19 C -2.8285 0.3169 -1.6562 0
M  V30 20 C -2.1683 1.5395 0.3202 0
M  V30 21 C -3.0031 -0.8331 -0.8824 0
M  V30 22 C -2.3416 0.3885 1.0944 0
M  V30 23 C -2.7677 -0.8021 0.4969 0
M  V30 24 C -2.9648 -2.0496 1.3078 0
M  V30 25 N -2.8382 -3.1813 0.6954 0
M  V30 26 N -3.2859 -1.9299 2.6396 0
M  V30 27 C -3.0066 -4.4109 1.4737 0
M  V30 28 C -3.4808 -3.0781 3.4875 0
M  V30 29 C -3.9677 -4.2332 2.6366 0
M  V30 30 H 3.1072 3.5379 -0.9623 0
M  V30 31 H 3.0511 1.1542 2.189 0
M  V30 32 H 3.8149 2.6118 1.5401 0
M  V30 33 H 1.7683 3.5496 -2.9875 0
M  V30 34 H -0.1193 1.3418 -2.4048 0
M  V30 35 H 5.9822 -0.4163 0.565 0
M  V30 36 H 4.737 -0.7071 1.7912 0
M  V30 37 H 5.7575 0.7448 1.8617 0
M  V30 38 H 5.1366 -1.9856 -2.1021 0
M  V30 39 H -2.5019 2.5803 -2.9345 0
M  V30 40 H -2.8353 3.5543 -1.5045 0
M  V30 41 H -3.0252 0.2641 -2.725 0
M  V30 42 H -1.8271 2.4548 0.8022 0
M  V30 43 H -3.3282 -1.7566 -1.3573 0
M  V30 44 H -2.1089 0.4318 2.1536 0
M  V30 45 H -3.4802 -1.0209 3.0382 0
M  V30 46 H -3.3921 -5.1914 0.8088 0
M  V30 47 H -2.0254 -4.748 1.8279 0
M  V30 48 H -2.535 -3.3323 3.9785 0
M  V30 49 H -4.21 -2.8467 4.2707 0
M  V30 50 H -4.0273 -5.1509 3.231 0
M  V30 51 H -4.9742 -4.0193 2.2553 0
M  V30 END ATOM
M  V30 BEGIN BOND
M  V30 1 1 1 2
M  V30 2 1 1 3
M  V30 3 1 2 4
M  V30 4 1 2 5
M  V30 5 1 3 6
M  V30 6 1 4 7
M  V30 7 1 4 8
M  V30 8 1 5 9
M  V30 9 1 6 10
M  V30 10 1 7 11
M  V30 11 2 8 12
M  V30 12 1 9 13
M  V30 13 2 11 14
M  V30 14 1 11 15
M  V30 15 2 13 16
M  V30 16 1 13 17
M  V30 17 1 17 18
M  V30 18 2 18 19
M  V30 19 1 18 20
M  V30 20 1 19 21
M  V30 21 2 20 22
M  V30 22 2 21 23
M  V30 23 1 23 24
M  V30 24 2 24 25
M  V30 25 1 24 26
M  V30 26 1 25 27
M  V30 27 1 26 28
M  V30 28 1 27 29
M  V30 29 1 5 8
M  V30 30 2 6 7
M  V30 31 1 22 23
M  V30 32 1 28 29
M  V30 33 1 2 30
M  V30 34 1 3 31
M  V30 35 1 3 32
M  V30 36 1 5 33
M  V30 37 1 9 34
M  V30 38 1 10 35
M  V30 39 1 10 36
M  V30 40 1 10 37
M  V30 41 1 15 38
M  V30 42 1 17 39
M  V30 43 1 17 40
M  V30 44 1 19 41
M  V30 45 1 20 42
M  V30 46 1 21 43
M  V30 47 1 22 44
M  V30 48 1 26 45
M  V30 49 1 27 46
M  V30 50 1 27 47
M  V30 51 1 28 48
M  V30 52 1 28 49
M  V30 53 1 29 50
M  V30 54 1 29 51
M  V30 END BOND
M  V30 BEGIN COLLECTION
M  V30 MDLV30/STEABS ATOMS=(2 2 5)
M  V30 END COLLECTION
M  V30 END CTAB
M  END
>  <NO.>
1380

>  <Name>
cefrotil

>  <SMILES>
CC1=C(C(=O)O)N2C(=O)[C@@H](NC(=O)Cc3ccc(C4=NCCCN4)cc3)[C@H]2SC1

>  <logBB>


>  <Class>
-1

>  <MW>
414.14

>  <nHBAcc>
6

>  <nHBDon>
3

>  <SLogP>
0.73

>  <TopoPSA>
111.1

>  <MMFF94 Energy>
6.3577

$$$$
CC1=C(C(=O)O)N2C(=O)[C@@H](NC(=O)[C@H](N)C3=CCC=CC3)[C@H]2SC1
Actelion Java MolfileCreator 2.0

  0  0  0  0  0  0              0 V3000
M  V30 BEGIN CTAB
M  V30 COUNTS 43 45 0 0 0
M  V30 BEGIN ATOM
M  V30 1 S -0.5673 -0.8916 -2.4332 0
M  V30 2 C 0.0076 -2.1123 -1.2239 0 CFG=1
M  V30 3 C -0.1699 -1.9596 -3.8556 0
M  V30 4 N 1.4144 -2.3357 -1.468 0
M  V30 5 C 0.4195 -1.6387 0.2028 0 CFG=1
M  V30 6 C 1.2383 -2.5249 -3.8142 0
M  V30 7 C 1.9513 -2.6505 -2.6718 0
M  V30 8 C 1.8468 -2.1405 -0.2084 0
M  V30 9 N 0.315 -0.1974 0.516 0
M  V30 10 C 1.7732 -2.8808 -5.1791 0
M  V30 11 C 3.3715 -3.0753 -2.6964 0
M  V30 12 O 2.9274 -2.2588 0.3176 0
M  V30 13 C -0.8511 0.3745 0.9811 0
M  V30 14 O 3.7778 -4.2093 -2.8721 0
M  V30 15 O 4.1923 -2.026 -2.5192 0
M  V30 16 O -1.8652 -0.286 1.1907 0
M  V30 17 C -0.749 1.9196 1.1646 0 CFG=2
M  V30 18 N 0.6732 2.3409 1.2053 0
M  V30 19 C -1.4948 2.4228 2.3808 0
M  V30 20 C -2.4404 3.3806 2.2691 0
M  V30 21 C -1.1598 1.7982 3.723 0
M  V30 22 C -3.2332 3.9284 3.4224 0
M  V30 23 C -1.9386 2.3649 4.8781 0
M  V30 24 C -2.8693 3.3212 4.7437 0
M  V30 25 H -0.5748 -3.0419 -1.2144 0
M  V30 26 H -0.8957 -2.7779 -3.9129 0
M  V30 27 H -0.2977 -1.3383 -4.7483 0
M  V30 28 H -0.0087 -2.2506 1.0067 0
M  V30 29 H 1.079 0.4564 0.3465 0
M  V30 30 H 2.781 -3.3025 -5.1618 0
M  V30 31 H 1.1197 -3.6208 -5.6532 0
M  V30 32 H 1.8043 -1.9897 -5.8152 0
M  V30 33 H 5.0838 -2.4252 -2.4615 0
M  V30 34 H -1.1787 2.3426 0.2474 0
M  V30 35 H 0.6848 3.3613 1.2484 0
M  V30 36 H 1.0824 2.0291 2.0856 0
M  V30 37 H -2.676 3.8055 1.2961 0
M  V30 38 H -1.3486 0.7197 3.6876 0
M  V30 39 H -0.0953 1.9414 3.9391 0
M  V30 40 H -4.299 3.7575 3.2336 0
M  V30 41 H -3.0765 5.0117 3.4754 0
M  V30 42 H -1.7255 1.9579 5.863 0
M  V30 43 H -3.4015 3.6825 5.6193 0
M  V30 END ATOM
M  V30 BEGIN BOND
M  V30 1 1 1 2
M  V30 2 1 1 3
M  V30 3 1 2 4
M  V30 4 1 2 5
M  V30 5 1 3 6
M  V30 6 1 4 7
M  V30 7 1 4 8
M  V30 8 1 5 9
M  V30 9 1 6 10
M  V30 10 1 7 11
M  V30 11 2 8 12
M  V30 12 1 9 13
M  V30 13 2 11 14
M  V30 14 1 11 15
M  V30 15 2 13 16
M  V30 16 1 13 17
M  V30 17 1 17 18
M  V30 18 1 17 19
M  V30 19 2 19 20
M  V30 20 1 19 21
M  V30 21 1 20 22
M  V30 22 1 21 23
M  V30 23 1 22 24
M  V30 24 1 5 8
M  V30 25 2 6 7
M  V30 26 2 23 24
M  V30 27 1 2 25
M  V30 28 1 3 26
M  V30 29 1 3 27
M  V30 30 1 5 28
M  V30 31 1 9 29
M  V30 32 1 10 30
M  V30 33 1 10 31
M  V30 34 1 10 32
M  V30 35 1 15 33
M  V30 36 1 17 34
M  V30 37 1 18 35
M  V30 38 1 18 36
M  V30 39 1 20 37
M  V30 40 1 21 38
M  V30 41 1 21 39
M  V30 42 1 22 40
M  V30 43 1 22 41
M  V30 44 1 23 42
M  V30 45 1 24 43
M  V30 END BOND
M  V30 BEGIN COLLECTION
M  V30 MDLV30/STEABS ATOMS=(3 2 5 17)
M  V30 END COLLECTION
M  V30 END CTAB
M  END
>  <NO.>
1381

>  <Name>
cephradine (cefradine)

>  <SMILES>
CC1=C(C(=O)O)N2C(=O)[C@@H](NC(=O)[C@H](N)C3=CCC=CC3)[C@H]2SC1

>  <logBB>


>  <Class>
-1

>  <MW>
349.11

>  <nHBAcc>
5

>  <nHBDon>
3

>  <SLogP>
0.35

>  <TopoPSA>
112.73

>  <MMFF94 Energy>
50.143

$$$$
CC1=C(C(=O)O)N2C(=O)[C@@H](NC(=O)[C@H](N)c3ccc(O)c(Cl)c3)[C@H]2SC1
Actelion Java MolfileCreator 2.0

  0  0  0  0  0  0              0 V3000
M  V30 BEGIN CTAB
M  V30 COUNTS 42 44 0 0 0
M  V30 BEGIN ATOM
M  V30 1 Cl -1.2303 -4.0234 2.7905 0
M  V30 2 C -2.0582 -2.542 2.4758 0
M  V30 3 C -3.3397 -2.527 1.9207 0
M  V30 4 C -1.42 -1.339 2.7902 0
M  V30 5 O -3.968 -3.7027 1.6141 0
M  V30 6 C -3.9847 -1.3145 1.6818 0
M  V30 7 C -2.0491 -0.1063 2.541 0
M  V30 8 C -3.3432 -0.1119 1.9939 0
M  V30 9 C -1.3756 1.2131 2.8768 0 CFG=1
M  V30 10 N -1.3533 1.4435 4.3307 0
M  V30 11 C 0.0692 1.2833 2.3159 0
M  V30 12 O 1.0516 0.8565 2.9251 0
M  V30 13 N 0.1782 1.8342 1.0556 0
M  V30 14 C 1.4914 1.8791 0.3571 0 CFG=2
M  V30 15 C 1.4706 2.4845 -1.0829 0
M  V30 16 C 1.989 0.5794 -0.3506 0 CFG=2
M  V30 17 O 1.1465 3.5354 -1.584 0
M  V30 18 N 1.8478 1.2976 -1.5959 0
M  V30 19 S 0.8713 -0.8491 -0.4302 0
M  V30 20 C 1.9583 0.7475 -2.8327 0
M  V30 21 C 1.7273 -1.5769 -1.8616 0
M  V30 22 C 1.9561 -0.5959 -2.9974 0
M  V30 23 C 2.0284 1.6732 -3.9971 0
M  V30 24 C 2.1509 -1.2788 -4.329 0
M  V30 25 O 1.3715 1.6098 -5.0203 0
M  V30 26 O 2.972 2.6147 -3.8102 0
M  V30 27 H -0.4213 -1.3673 3.2237 0
M  V30 28 H -4.8374 -3.5137 1.2266 0
M  V30 29 H -4.9837 -1.2847 1.2565 0
M  V30 30 H -3.8659 0.8248 1.8061 0
M  V30 31 H -1.9445 2.0366 2.4276 0
M  V30 32 H -2.2244 1.1088 4.738 0
M  V30 33 H -0.6101 0.8619 4.7257 0
M  V30 34 H -0.657 2.1628 0.5836 0
M  V30 35 H 2.2534 2.3577 0.9855 0
M  V30 36 H 3.0299 0.329 -0.1139 0
M  V30 37 H 1.0986 -2.4047 -2.2069 0
M  V30 38 H 2.6853 -1.9979 -1.5376 0
M  V30 39 H 2.5594 -0.6213 -5.1006 0
M  V30 40 H 1.1998 -1.6854 -4.6876 0
M  V30 41 H 2.8614 -2.1065 -4.2238 0
M  V30 42 H 2.8779 3.203 -4.5871 0
M  V30 END ATOM
M  V30 BEGIN BOND
M  V30 1 1 1 2
M  V30 2 2 2 3
M  V30 3 1 2 4
M  V30 4 1 3 5
M  V30 5 1 3 6
M  V30 6 2 4 7
M  V30 7 2 6 8
M  V30 8 1 7 9
M  V30 9 1 9 10
M  V30 10 1 9 11
M  V30 11 2 11 12
M  V30 12 1 11 13
M  V30 13 1 13 14
M  V30 14 1 14 15
M  V30 15 1 14 16
M  V30 16 2 15 17
M  V30 17 1 15 18
M  V30 18 1 16 19
M  V30 19 1 18 20
M  V30 20 1 19 21
M  V30 21 2 20 22
M  V30 22 1 20 23
M  V30 23 1 22 24
M  V30 24 2 23 25
M  V30 25 1 23 26
M  V30 26 1 7 8
M  V30 27 1 16 18
M  V30 28 1 21 22
M  V30 29 1 4 27
M  V30 30 1 5 28
M  V30 31 1 6 29
M  V30 32 1 8 30
M  V30 33 1 9 31
M  V30 34 1 10 32
M  V30 35 1 10 33
M  V30 36 1 13 34
M  V30 37 1 14 35
M  V30 38 1 16 36
M  V30 39 1 21 37
M  V30 40 1 21 38
M  V30 41 1 24 39
M  V30 42 1 24 40
M  V30 43 1 24 41
M  V30 44 1 26 42
M  V30 END BOND
M  V30 BEGIN COLLECTION
M  V30 MDLV30/STEABS ATOMS=(3 9 14 16)
M  V30 END COLLECTION
M  V30 END CTAB
M  END
>  <NO.>
1382

>  <Name>
cefedrolor

>  <SMILES>
CC1=C(C(=O)O)N2C(=O)[C@@H](NC(=O)[C@H](N)c3ccc(O)c(Cl)c3)[C@H]2SC1

>  <logBB>


>  <Class>
-1

>  <MW>
397.05

>  <nHBAcc>
6

>  <nHBDon>
4

>  <SLogP>
0.8

>  <TopoPSA>
132.96

>  <MMFF94 Energy>
73.425

$$$$
CC1=C(C(=O)O)N2C(=O)[C@@H](NC(=O)[C@H](N)c3ccc(O)cc3)[C@H]2SC1
Actelion Java MolfileCreator 2.0

  0  0  0  0  0  0              0 V3000
M  V30 BEGIN CTAB
M  V30 COUNTS 42 44 0 0 0
M  V30 BEGIN ATOM
M  V30 1 S 0.9728 0.3242 0.9728 0
M  V30 2 C -0.3208 1.4478 1.5693 0 CFG=1
M  V30 3 C 2.323 1.4425 1.4587 0
M  V30 4 N -0.2094 2.6686 0.805 0
M  V30 5 C -1.7605 1.3118 0.983 0 CFG=1
M  V30 6 C 2.1328 2.8718 0.9845 0
M  V30 7 C 0.9297 3.3901 0.6449 0
M  V30 8 C -1.4557 2.6808 0.2947 0
M  V30 9 N -2.0395 0.1774 0.0625 0
M  V30 10 C 3.4298 3.6392 0.906 0
M  V30 11 C 0.8103 4.7442 0.037 0
M  V30 12 O -2.0263 3.4193 -0.4729 0
M  V30 13 C -2.3074 -1.0833 0.5557 0
M  V30 14 O 1.4747 5.1943 -0.8785 0
M  V30 15 O -0.1295 5.475 0.6649 0
M  V30 16 O -2.3454 -1.3112 1.7663 0
M  V30 17 C -2.534 -2.1731 -0.5251 0 CFG=2
M  V30 18 N -3.5747 -3.1115 -0.0687 0
M  V30 19 C -1.2519 -2.9063 -0.8757 0
M  V30 20 C -0.4097 -3.4348 0.1167 0
M  V30 21 C -0.9052 -3.1009 -2.2241 0
M  V30 22 C 0.757 -4.118 -0.2303 0
M  V30 23 C 0.2622 -3.786 -2.571 0
M  V30 24 C 1.0849 -4.287 -1.5687 0
M  V30 25 O 2.2329 -4.9611 -1.8617 0
M  V30 26 H -0.3099 1.6171 2.6525 0
M  V30 27 H 2.4343 1.4265 2.5483 0
M  V30 28 H 3.2379 1.0261 1.0239 0
M  V30 29 H -2.5525 1.4079 1.7367 0
M  V30 30 H -1.9887 0.3144 -0.9408 0
M  V30 31 H 4.0126 3.4821 1.8206 0
M  V30 32 H 3.2924 4.7194 0.813 0
M  V30 33 H 4.0238 3.2904 0.0554 0
M  V30 34 H -0.1776 6.3006 0.1409 0
M  V30 35 H -2.9225 -1.6728 -1.4207 0
M  V30 36 H -3.5117 -3.9656 -0.6196 0
M  V30 37 H -3.3447 -3.3778 0.8917 0
M  V30 38 H -0.6502 -3.3144 1.1719 0
M  V30 39 H -1.5458 -2.7213 -3.0177 0
M  V30 40 H 1.4071 -4.5157 0.5437 0
M  V30 41 H 0.5084 -3.9194 -3.6196 0
M  V30 42 H 2.3373 -4.9911 -2.8265 0
M  V30 END ATOM
M  V30 BEGIN BOND
M  V30 1 1 1 2
M  V30 2 1 1 3
M  V30 3 1 2 4
M  V30 4 1 2 5
M  V30 5 1 3 6
M  V30 6 1 4 7
M  V30 7 1 4 8
M  V30 8 1 5 9
M  V30 9 1 6 10
M  V30 10 1 7 11
M  V30 11 2 8 12
M  V30 12 1 9 13
M  V30 13 2 11 14
M  V30 14 1 11 15
M  V30 15 2 13 16
M  V30 16 1 13 17
M  V30 17 1 17 18
M  V30 18 1 17 19
M  V30 19 2 19 20
M  V30 20 1 19 21
M  V30 21 1 20 22
M  V30 22 2 21 23
M  V30 23 2 22 24
M  V30 24 1 24 25
M  V30 25 1 5 8
M  V30 26 2 6 7
M  V30 27 1 23 24
M  V30 28 1 2 26
M  V30 29 1 3 27
M  V30 30 1 3 28
M  V30 31 1 5 29
M  V30 32 1 9 30
M  V30 33 1 10 31
M  V30 34 1 10 32
M  V30 35 1 10 33
M  V30 36 1 15 34
M  V30 37 1 17 35
M  V30 38 1 18 36
M  V30 39 1 18 37
M  V30 40 1 20 38
M  V30 41 1 21 39
M  V30 42 1 22 40
M  V30 43 1 23 41
M  V30 44 1 25 42
M  V30 END BOND
M  V30 BEGIN COLLECTION
M  V30 MDLV30/STEABS ATOMS=(3 2 5 17)
M  V30 END COLLECTION
M  V30 END CTAB
M  END
>  <NO.>
1383

>  <Name>
cefadroxil

>  <SMILES>
CC1=C(C(=O)O)N2C(=O)[C@@H](NC(=O)[C@H](N)c3ccc(O)cc3)[C@H]2SC1

>  <logBB>


>  <Class>
-1

>  <MW>
363.09

>  <nHBAcc>
6

>  <nHBDon>
4

>  <SLogP>
0.15

>  <TopoPSA>
132.96

>  <MMFF94 Energy>
57.272

$$$$
CC1=C(C(=O)O)N2C(=O)[C@@H](NC(=O)[C@H](N)c3ccccc3)[C@H]2SC1
Actelion Java MolfileCreator 2.0

  0  0  0  0  0  0              0 V3000
M  V30 BEGIN CTAB
M  V30 COUNTS 41 43 0 0 0
M  V30 BEGIN ATOM
M  V30 1 S 1.2174 -0.7303 -0.2434 0
M  V30 2 C 1.5802 0.9632 -0.7836 0 CFG=1
M  V30 3 C 2.2842 -1.4819 -1.511 0
M  V30 4 N 1.119 1.0834 -2.1474 0
M  V30 5 C 0.5688 2.0976 -0.4308 0 CFG=1
M  V30 6 C 2.0398 -0.9486 -2.9108 0
M  V30 7 C 1.4475 0.2421 -3.1614 0
M  V30 8 C 0.2647 2.1083 -1.9632 0
M  V30 9 N -0.5822 1.7667 0.4508 0
M  V30 10 C 2.501 -1.8999 -3.9876 0
M  V30 11 C 1.087 0.6548 -4.5461 0
M  V30 12 O -0.4924 2.6946 -2.7002 0
M  V30 13 C -0.4311 1.7133 1.8216 0
M  V30 14 O 0.5162 -0.0199 -5.3836 0
M  V30 15 O 1.5181 1.9031 -4.8063 0
M  V30 16 O 0.6522 1.9418 2.3634 0
M  V30 17 C -1.7147 1.332 2.6058 0 CFG=2
M  V30 18 N -1.7524 2.0715 3.8806 0
M  V30 19 C -1.8209 -0.1637 2.8389 0
M  V30 20 C -0.7431 -0.9112 3.3406 0
M  V30 21 C -3.0351 -0.8237 2.5869 0
M  V30 22 C -0.8696 -2.284 3.5602 0
M  V30 23 C -3.1595 -2.1965 2.809 0
M  V30 24 C -2.0763 -2.9263 3.2929 0
M  V30 25 H 2.627 1.2639 -0.6568 0
M  V30 26 H 2.082 -2.558 -1.4834 0
M  V30 27 H 3.3343 -1.3329 -1.2371 0
M  V30 28 H 1.0505 3.0304 -0.11 0
M  V30 29 H -1.4822 1.534 0.0452 0
M  V30 30 H 2.5671 -1.4398 -4.9767 0
M  V30 31 H 1.8242 -2.7581 -4.0485 0
M  V30 32 H 3.5057 -2.2697 -3.7539 0
M  V30 33 H 1.1615 2.0964 -5.6974 0
M  V30 34 H -2.5738 1.6689 2.0126 0
M  V30 35 H -2.4165 1.6149 4.5036 0
M  V30 36 H -0.835 1.9668 4.3202 0
M  V30 37 H 0.2097 -0.4317 3.5598 0
M  V30 38 H -3.8973 -0.2725 2.217 0
M  V30 39 H -0.0236 -2.8514 3.9397 0
M  V30 40 H -4.1031 -2.6968 2.6061 0
M  V30 41 H -2.1727 -3.9951 3.4642 0
M  V30 END ATOM
M  V30 BEGIN BOND
M  V30 1 1 1 2
M  V30 2 1 1 3
M  V30 3 1 2 4
M  V30 4 1 2 5
M  V30 5 1 3 6
M  V30 6 1 4 7
M  V30 7 1 4 8
M  V30 8 1 5 9
M  V30 9 1 6 10
M  V30 10 1 7 11
M  V30 11 2 8 12
M  V30 12 1 9 13
M  V30 13 2 11 14
M  V30 14 1 11 15
M  V30 15 2 13 16
M  V30 16 1 13 17
M  V30 17 1 17 18
M  V30 18 1 17 19
M  V30 19 2 19 20
M  V30 20 1 19 21
M  V30 21 1 20 22
M  V30 22 2 21 23
M  V30 23 2 22 24
M  V30 24 1 5 8
M  V30 25 2 6 7
M  V30 26 1 23 24
M  V30 27 1 2 25
M  V30 28 1 3 26
M  V30 29 1 3 27
M  V30 30 1 5 28
M  V30 31 1 9 29
M  V30 32 1 10 30
M  V30 33 1 10 31
M  V30 34 1 10 32
M  V30 35 1 15 33
M  V30 36 1 17 34
M  V30 37 1 18 35
M  V30 38 1 18 36
M  V30 39 1 20 37
M  V30 40 1 21 38
M  V30 41 1 22 39
M  V30 42 1 23 40
M  V30 43 1 24 41
M  V30 END BOND
M  V30 BEGIN COLLECTION
M  V30 MDLV30/STEABS ATOMS=(3 2 5 17)
M  V30 END COLLECTION
M  V30 END CTAB
M  END
>  <NO.>
1385

>  <Name>
cephalexin

>  <SMILES>
CC1=C(C(=O)O)N2C(=O)[C@@H](NC(=O)[C@H](N)c3ccccc3)[C@H]2SC1

>  <logBB>


>  <Class>
-1

>  <MW>
347.09

>  <nHBAcc>
5

>  <nHBDon>
3

>  <SLogP>
0.44

>  <TopoPSA>
112.73

>  <MMFF94 Energy>
67.51

$$$$
CC1=C/C(O)CC(=O)Cc2nc(co2)C(=O)N2CCC=C2C(=O)OC(C(C)C)C(C)/C=C\C(=O)NC/C=C\1
Actelion Java MolfileCreator 2.0

  0  0  0  0  0  0              0 V3000
M  V30 BEGIN CTAB
M  V30 COUNTS 73 75 0 0 0
M  V30 BEGIN ATOM
M  V30 1 O 4.6846 1.5067 -0.0792 0
M  V30 2 C 3.498 1.5169 -0.3545 0
M  V30 3 O 2.4427 1.4228 0.4931 0
M  V30 4 C 2.9333 1.6597 -1.7186 0
M  V30 5 C 2.6571 0.8336 1.802 0
M  V30 6 N 2.1091 0.7153 -2.3057 0
M  V30 7 C 3.0774 2.7455 -2.4866 0
M  V30 8 C 1.2598 0.2456 2.1902 0
M  V30 9 C 3.3781 1.8393 2.7441 0
M  V30 10 C 1.9654 -0.5834 -1.8299 0
M  V30 11 C 1.5368 1.2819 -3.5339 0
M  V30 12 C 2.3058 2.59 -3.7604 0
M  V30 13 C 1.3189 -0.9264 3.1473 0
M  V30 14 C 0.2595 1.2846 2.702 0
M  V30 15 C 2.8262 3.2686 2.727 0
M  V30 16 C 3.5402 1.3408 4.178 0
M  V30 17 O 2.7168 -1.0636 -0.9834 0
M  V30 18 C 0.8763 -1.3897 -2.3749 0
M  V30 19 C 1.0348 -2.2132 2.8799 0
M  V30 20 N -0.2704 -0.9072 -2.9884 0
M  V30 21 C 0.7764 -2.7597 -2.2683 0
M  V30 22 C 0.627 -2.7593 1.5665 0
M  V30 23 C -0.9837 -1.9887 -3.2381 0
M  V30 24 O -0.4057 -3.1528 -2.8157 0
M  V30 25 O 1.3754 -3.5093 0.9478 0
M  V30 26 N -0.621 -2.4933 1.0973 0
M  V30 27 C -2.3446 -2.1062 -3.8026 0
M  V30 28 C -1.6938 -1.7667 1.7365 0
M  V30 29 C -2.9785 -0.7378 -3.8897 0
M  V30 30 C -2.9736 -2.4575 1.3779 0
M  V30 31 O -2.9128 -0.0811 -4.9335 0
M  V30 32 C -3.7655 -0.2136 -2.6994 0
M  V30 33 C -4.1153 -1.8996 0.9432 0
M  V30 34 C -2.9855 -0.1855 -1.3865 0
M  V30 35 C -4.3674 -0.4849 0.7539 0
M  V30 36 O -1.944 0.7827 -1.4517 0
M  V30 37 C -3.8746 0.2534 -0.2585 0
M  V30 38 C -5.2875 0.1192 1.7829 0
M  V30 39 H 3.3308 -0.0242 1.6611 0
M  V30 40 H 3.6599 3.6171 -2.225 0
M  V30 41 H 0.8256 -0.1189 1.2494 0
M  V30 42 H 4.399 1.9357 2.351 0
M  V30 43 H 0.4733 1.484 -3.3676 0
M  V30 44 H 1.6473 0.5813 -4.3676 0
M  V30 45 H 1.623 3.4277 -3.9296 0
M  V30 46 H 2.9864 2.5098 -4.6139 0
M  V30 47 H 1.6371 -0.7022 4.1629 0
M  V30 48 H 0.525 1.6587 3.6946 0
M  V30 49 H 0.1837 2.1308 2.0117 0
M  V30 50 H -0.7426 0.8528 2.7931 0
M  V30 51 H 3.524 3.9448 3.2346 0
M  V30 52 H 1.8701 3.3567 3.2463 0
M  V30 53 H 2.701 3.6437 1.707 0
M  V30 54 H 4.2301 1.9884 4.7308 0
M  V30 55 H 2.5924 1.3418 4.7227 0
M  V30 56 H 3.957 0.3288 4.1963 0
M  V30 57 H 1.1745 -2.9733 3.6419 0
M  V30 58 H 1.401 -3.5313 -1.8376 0
M  V30 59 H -0.7883 -2.8797 0.1785 0
M  V30 60 H -2.3026 -2.5381 -4.8078 0
M  V30 61 H -2.9781 -2.7573 -3.1919 0
M  V30 62 H -1.6541 -0.7386 1.3727 0
M  V30 63 H -1.5657 -1.7714 2.8222 0
M  V30 64 H -2.976 -3.5357 1.5352 0
M  V30 65 H -4.6617 -0.8393 -2.6089 0
M  V30 66 H -4.0954 0.8012 -2.9581 0
M  V30 67 H -4.9813 -2.5444 0.7927 0
M  V30 68 H -2.5336 -1.1551 -1.1682 0
M  V30 69 H -1.226 0.406 -1.9989 0
M  V30 70 H -4.1415 1.31 -0.2985 0
M  V30 71 H -5.4699 1.1835 1.5986 0
M  V30 72 H -6.2591 -0.3868 1.7769 0
M  V30 73 H -4.8543 0.029 2.7852 0
M  V30 END ATOM
M  V30 BEGIN BOND
M  V30 1 2 1 2
M  V30 2 1 2 3
M  V30 3 1 2 4
M  V30 4 1 3 5
M  V30 5 1 4 6
M  V30 6 2 4 7
M  V30 7 1 5 8
M  V30 8 1 5 9
M  V30 9 1 6 10
M  V30 10 1 6 11
M  V30 11 1 7 12
M  V30 12 1 8 13
M  V30 13 1 8 14
M  V30 14 1 9 15
M  V30 15 1 9 16
M  V30 16 2 10 17
M  V30 17 1 10 18
M  V30 18 2 13 19
M  V30 19 1 18 20
M  V30 20 2 18 21
M  V30 21 1 19 22
M  V30 22 2 20 23
M  V30 23 1 21 24
M  V30 24 2 22 25
M  V30 25 1 22 26
M  V30 26 1 23 27
M  V30 27 1 26 28
M  V30 28 1 27 29
M  V30 29 1 28 30
M  V30 30 2 29 31
M  V30 31 1 29 32
M  V30 32 2 30 33
M  V30 33 1 32 34
M  V30 34 1 33 35
M  V30 35 1 34 36
M  V30 36 1 34 37
M  V30 37 1 35 38
M  V30 38 1 11 12
M  V30 39 1 23 24
M  V30 40 2 35 37
M  V30 41 1 5 39
M  V30 42 1 7 40
M  V30 43 1 8 41
M  V30 44 1 9 42
M  V30 45 1 11 43
M  V30 46 1 11 44
M  V30 47 1 12 45
M  V30 48 1 12 46
M  V30 49 1 13 47
M  V30 50 1 14 48
M  V30 51 1 14 49
M  V30 52 1 14 50
M  V30 53 1 15 51
M  V30 54 1 15 52
M  V30 55 1 15 53
M  V30 56 1 16 54
M  V30 57 1 16 55
M  V30 58 1 16 56
M  V30 59 1 19 57
M  V30 60 1 21 58
M  V30 61 1 26 59
M  V30 62 1 27 60
M  V30 63 1 27 61
M  V30 64 1 28 62
M  V30 65 1 28 63
M  V30 66 1 30 64
M  V30 67 1 32 65
M  V30 68 1 32 66
M  V30 69 1 33 67
M  V30 70 1 34 68
M  V30 71 1 36 69
M  V30 72 1 37 70
M  V30 73 1 38 71
M  V30 74 1 38 72
M  V30 75 1 38 73
M  V30 END BOND
M  V30 END CTAB
M  END
>  <NO.>
1386

>  <Name>
virginiamycin-factor-m1

>  <SMILES>
CC1=C/C(O)CC(=O)Cc2nc(co2)C(=O)N2CCC=C2C(=O)OC(C(C)C)C(C)/C=C\C(=O)NC/C=C\1

>  <logBB>


>  <Class>
-1

>  <MW>
525.25

>  <nHBAcc>
8

>  <nHBDon>
2

>  <SLogP>
2.66

>  <TopoPSA>
139.04

>  <MMFF94 Energy>
52.43

$$$$
CC1=CC(=O)N2CC(=O)N(C)c3ccc(Cl)cc3C2(c2ccccc2)O1
Actelion Java MolfileCreator 2.0

  0  0  0  0  0  0              0 V3000
M  V30 BEGIN CTAB
M  V30 COUNTS 43 46 0 0 0
M  V30 BEGIN ATOM
M  V30 1 Cl 1.1393 3.5839 3.8286 0
M  V30 2 C 1.4087 2.6314 2.4222 0
M  V30 3 C 0.5503 1.5722 2.1268 0
M  V30 4 C 2.4789 2.9224 1.5877 0
M  V30 5 C 0.7385 0.7739 0.9742 0
M  V30 6 C 2.6955 2.1437 0.4522 0
M  V30 7 C 1.8398 1.0734 0.14 0
M  V30 8 C -0.2447 -0.3777 0.6356 0 CFG=2
M  V30 9 N 2.1365 0.289 -1.0025 0
M  V30 10 O -1.2798 -0.361 1.6574 0
M  V30 11 N 0.4457 -1.6759 0.6871 0
M  V30 12 C -0.9806 -0.0843 -0.7023 0
M  V30 13 C 2.2113 -1.1024 -0.9655 0
M  V30 14 C 2.3863 0.9724 -2.2635 0
M  V30 15 C -2.0698 -1.4847 1.7407 0
M  V30 16 C -0.2583 -2.8388 0.8869 0
M  V30 17 C 1.8724 -1.7641 0.3703 0
M  V30 18 C -0.9593 -0.9628 -1.8015 0
M  V30 19 C -1.7254 1.1081 -0.8361 0
M  V30 20 O 2.5178 -1.7784 -1.9492 0
M  V30 21 C -1.6501 -2.6846 1.3326 0
M  V30 22 C -3.4265 -1.2431 2.3188 0
M  V30 23 O 0.2001 -3.9682 0.7531 0
M  V30 24 C -1.6335 -0.6527 -2.9862 0
M  V30 25 C -2.4 1.4146 -2.0198 0
M  V30 26 C -2.351 0.5345 -3.0957 0
M  V30 27 H -0.2767 1.3772 2.8073 0
M  V30 28 H 3.1524 3.7439 1.8176 0
M  V30 29 H 3.555 2.3688 -0.175 0
M  V30 30 H 1.7872 1.8864 -2.3278 0
M  V30 31 H 3.4513 1.2145 -2.33 0
M  V30 32 H 2.125 0.3298 -3.1097 0
M  V30 33 H 2.4483 -1.31 1.1843 0
M  V30 34 H 2.1984 -2.8085 0.3164 0
M  V30 35 H -0.4145 -1.904 -1.7659 0
M  V30 36 H -1.7899 1.8102 -0.0062 0
M  V30 37 H -2.2493 -3.5832 1.3974 0
M  V30 38 H -4.023 -2.16 2.3658 0
M  V30 39 H -3.3391 -0.845 3.3348 0
M  V30 40 H -3.9728 -0.5165 1.7088 0
M  V30 41 H -1.5958 -1.3448 -3.8243 0
M  V30 42 H -2.9663 2.3391 -2.0991 0
M  V30 43 H -2.8753 0.7701 -4.018 0
M  V30 END ATOM
M  V30 BEGIN BOND
M  V30 1 1 1 2
M  V30 2 2 2 3
M  V30 3 1 2 4
M  V30 4 1 3 5
M  V30 5 2 4 6
M  V30 6 2 5 7
M  V30 7 1 5 8
M  V30 8 1 7 9
M  V30 9 1 8 10
M  V30 10 1 8 11
M  V30 11 1 8 12
M  V30 12 1 9 13
M  V30 13 1 9 14
M  V30 14 1 10 15
M  V30 15 1 11 16
M  V30 16 1 11 17
M  V30 17 2 12 18
M  V30 18 1 12 19
M  V30 19 2 13 20
M  V30 20 2 15 21
M  V30 21 1 15 22
M  V30 22 2 16 23
M  V30 23 1 18 24
M  V30 24 2 19 25
M  V30 25 2 24 26
M  V30 26 1 6 7
M  V30 27 1 13 17
M  V30 28 1 16 21
M  V30 29 1 25 26
M  V30 30 1 3 27
M  V30 31 1 4 28
M  V30 32 1 6 29
M  V30 33 1 14 30
M  V30 34 1 14 31
M  V30 35 1 14 32
M  V30 36 1 17 33
M  V30 37 1 17 34
M  V30 38 1 18 35
M  V30 39 1 19 36
M  V30 40 1 21 37
M  V30 41 1 22 38
M  V30 42 1 22 39
M  V30 43 1 22 40
M  V30 44 1 24 41
M  V30 45 1 25 42
M  V30 46 1 26 43
M  V30 END BOND
M  V30 BEGIN COLLECTION
M  V30 MDLV30/STERAC1 ATOMS=(1 8)
M  V30 END COLLECTION
M  V30 END CTAB
M  END
>  <NO.>
1387

>  <Name>
ketazolam

>  <SMILES>
CC1=CC(=O)N2CC(=O)N(C)c3ccc(Cl)cc3C2(c2ccccc2)O1

>  <logBB>


>  <Class>
1

>  <MW>
368.09

>  <nHBAcc>
3

>  <nHBDon>
0

>  <SLogP>
3.28

>  <TopoPSA>
49.85

>  <MMFF94 Energy>
28.591

$$$$
CC1=CCC2C3Cc4ccc(O)c5c4C2(CCN3C)C1O5
Actelion Java MolfileCreator 2.0

  0  0  0  0  0  0              0 V3000
M  V30 BEGIN CTAB
M  V30 COUNTS 42 46 0 0 0
M  V30 BEGIN ATOM
M  V30 1 O -0.9711 1.538 -1.862 0
M  V30 2 C -1.5865 0.3597 -1.5168 0
M  V30 3 C 0.2777 1.5247 -1.0815 0
M  V30 4 C -2.6184 -0.2586 -2.1821 0
M  V30 5 C -1.021 -0.2365 -0.414 0
M  V30 6 C 1.4193 1.0696 -1.9799 0
M  V30 7 C 0.0386 0.635 0.1578 0
M  V30 8 O -3.2042 0.3127 -3.2683 0
M  V30 9 C -3.043 -1.5134 -1.7419 0
M  V30 10 C -1.3554 -1.5088 0.0155 0
M  V30 11 C 2.1515 -0.0314 -1.7217 0
M  V30 12 C 1.6806 1.9232 -3.1886 0
M  V30 13 C 1.203 -0.2391 0.6208 0
M  V30 14 C -0.5113 1.4326 1.3581 0
M  V30 15 C -2.4006 -2.1479 -0.6559 0
M  V30 16 C -0.5118 -2.1517 1.0897 0
M  V30 17 C 1.9352 -0.9349 -0.5394 0
M  V30 18 C 0.6245 -1.228 1.677 0
M  V30 19 C -0.8828 0.5274 2.5425 0
M  V30 20 N 0.116 -0.5006 2.8719 0
M  V30 21 C 1.1873 0.0356 3.7095 0
M  V30 22 H 0.4799 2.5589 -0.7745 0
M  V30 23 H -2.7299 1.1537 -3.4093 0
M  V30 24 H -3.8512 -2.0196 -2.263 0
M  V30 25 H 2.9377 -0.3319 -2.4115 0
M  V30 26 H 1.8927 2.9538 -2.886 0
M  V30 27 H 0.8111 1.9266 -3.8533 0
M  V30 28 H 2.5387 1.565 -3.7671 0
M  V30 29 H 1.9535 0.4079 1.0956 0
M  V30 30 H -1.3947 2.0187 1.0731 0
M  V30 31 H 0.2478 2.1549 1.6853 0
M  V30 32 H -2.7129 -3.1473 -0.3627 0
M  V30 33 H -0.0288 -3.0312 0.6441 0
M  V30 34 H -1.1565 -2.5224 1.8962 0
M  V30 35 H 1.4108 -1.8313 -0.8868 0
M  V30 36 H 2.912 -1.2756 -0.1742 0
M  V30 37 H 1.421 -1.904 2.0157 0
M  V30 38 H -1.8359 0.0283 2.3296 0
M  V30 39 H -1.0966 1.15 3.421 0
M  V30 40 H 0.7769 0.4056 4.6559 0
M  V30 41 H 1.9044 -0.7496 3.9727 0
M  V30 42 H 1.7339 0.8579 3.2381 0
M  V30 END ATOM
M  V30 BEGIN BOND
M  V30 1 1 1 2
M  V30 2 1 1 3
M  V30 3 2 2 4
M  V30 4 1 2 5
M  V30 5 1 3 6
M  V30 6 1 3 7
M  V30 7 1 4 8
M  V30 8 1 4 9
M  V30 9 2 5 10
M  V30 10 2 6 11
M  V30 11 1 6 12
M  V30 12 1 7 13
M  V30 13 1 7 14
M  V30 14 2 9 15
M  V30 15 1 10 16
M  V30 16 1 11 17
M  V30 17 1 13 18
M  V30 18 1 14 19
M  V30 19 1 18 20
M  V30 20 1 20 21
M  V30 21 1 5 7
M  V30 22 1 10 15
M  V30 23 1 13 17
M  V30 24 1 16 18
M  V30 25 1 19 20
M  V30 26 1 3 22
M  V30 27 1 8 23
M  V30 28 1 9 24
M  V30 29 1 11 25
M  V30 30 1 12 26
M  V30 31 1 12 27
M  V30 32 1 12 28
M  V30 33 1 13 29
M  V30 34 1 14 30
M  V30 35 1 14 31
M  V30 36 1 15 32
M  V30 37 1 16 33
M  V30 38 1 16 34
M  V30 39 1 17 35
M  V30 40 1 17 36
M  V30 41 1 18 37
M  V30 42 1 19 38
M  V30 43 1 19 39
M  V30 44 1 21 40
M  V30 45 1 21 41
M  V30 46 1 21 42
M  V30 END BOND
M  V30 END CTAB
M  END
>  <NO.>
1388

>  <Name>
morphinan-3-ol, 6,7-didehydro-4,5-epoxy-6,17-dimethyl-, (5.alpha.)-

>  <SMILES>
CC1=CCC2C3Cc4ccc(O)c5c4C2(CCN3C)C1O5

>  <logBB>


>  <Class>
1

>  <MW>
283.16

>  <nHBAcc>
3

>  <nHBDon>
1

>  <SLogP>
2.62

>  <TopoPSA>
32.7

>  <MMFF94 Energy>
69.296

$$$$
CC1=C[C@H]2[C@@H]3C[C@@H](C)[C@](O)(C(=O)COC(=O)c4cccc(S(=O)(=O)O)c4)[C@@]3(C)C[C@H](O)[C@@H]2[C@@]2(C)Cc3cnn(-c4ccccc4)c3C=C12
Actelion Java MolfileCreator 2.0

  0  0  0  0  0  0              0 V3000
M  V30 BEGIN CTAB
M  V30 COUNTS 88 94 0 0 0
M  V30 BEGIN ATOM
M  V30 1 S 8.2373 6.5204 -2.197 0
M  V30 2 O 8.4079 6.785 -0.7861 0
M  V30 3 O 9.0492 7.1676 -3.2029 0
M  V30 4 O 8.4409 4.93 -2.3747 0
M  V30 5 C 6.5351 6.8102 -2.5909 0
M  V30 6 C 5.5818 5.8337 -2.2859 0
M  V30 7 C 6.1708 7.9992 -3.2288 0
M  V30 8 C 4.2385 6.0582 -2.6145 0
M  V30 9 C 4.8333 8.2213 -3.5531 0
M  V30 10 C 3.1717 5.0654 -2.3131 0
M  V30 11 C 3.8704 7.2562 -3.2457 0
M  V30 12 O 1.9839 5.2527 -2.5199 0
M  V30 13 O 3.711 3.9417 -1.7878 0
M  V30 14 C 2.7536 2.936 -1.4487 0
M  V30 15 C 3.4538 1.7705 -0.7585 0
M  V30 16 O 4.6159 1.8691 -0.3528 0
M  V30 17 C 2.6612 0.4447 -0.6354 0 CFG=2
M  V30 18 O 2.3537 0.0086 -1.9644 0
M  V30 19 C 1.3365 0.5228 0.1988 0 CFG=2
M  V30 20 C 3.4808 -0.6584 0.1294 0 CFG=1
M  V30 21 C 1.0898 -0.9943 0.4322 0 CFG=1
M  V30 22 C 0.0887 1.0743 -0.5339 0
M  V30 23 C 1.587 1.3112 1.5136 0
M  V30 24 C 2.4458 -1.5169 0.8968 0
M  V30 25 C 4.3881 -1.522 -0.743 0
M  V30 26 C -0.1524 -1.2832 1.2942 0 CFG=2
M  V30 27 C -1.245 0.7585 0.18 0 CFG=1
M  V30 28 C -0.3115 -2.7488 1.6099 0
M  V30 29 C -1.3943 -0.7446 0.532 0 CFG=2
M  V30 30 O -1.3748 1.5726 1.3349 0
M  V30 31 C -1.4752 -3.426 1.5961 0
M  V30 32 C -2.7296 -1.1793 1.2343 0 CFG=2
M  V30 33 C -2.7547 -2.7572 1.2973 0
M  V30 34 C -1.472 -4.8957 1.9429 0
M  V30 35 C -3.9429 -0.5756 0.4248 0
M  V30 36 C -2.853 -0.6801 2.6985 0
M  V30 37 C -3.9026 -3.4612 1.135 0
M  V30 38 C -5.1631 -1.3983 0.5756 0
M  V30 39 C -5.0847 -2.7379 0.8635 0
M  V30 40 C -6.5315 -1.1229 0.4884 0
M  V30 41 N -6.3791 -3.2196 0.8782 0
M  V30 42 N -7.2797 -2.2098 0.6983 0
M  V30 43 C -6.8374 -4.5444 1.0534 0
M  V30 44 C -7.8562 -4.7942 1.9797 0
M  V30 45 C -6.3066 -5.5838 0.2813 0
M  V30 46 C -8.3211 -6.0974 2.1559 0
M  V30 47 C -6.7784 -6.8843 0.464 0
M  V30 48 C -7.78 -7.1405 1.4026 0
M  V30 49 H 8.9508 4.6074 -1.6014 0
M  V30 50 H 5.8874 4.9138 -1.7924 0
M  V30 51 H 6.9194 8.7504 -3.4746 0
M  V30 52 H 4.5384 9.1448 -4.0472 0
M  V30 53 H 2.8286 7.4419 -3.504 0
M  V30 54 H 2.2745 2.5769 -2.3644 0
M  V30 55 H 2.0216 3.3576 -0.7557 0
M  V30 56 H 3.1905 -0.1719 -2.4297 0
M  V30 57 H 4.1227 -0.1893 0.8866 0
M  V30 58 H 0.9064 -1.4741 -0.5435 0
M  V30 59 H 0.0292 0.6473 -1.5423 0
M  V30 60 H 0.1742 2.1585 -0.6563 0
M  V30 61 H 1.6319 2.388 1.3201 0
M  V30 62 H 2.529 1.0378 1.9982 0
M  V30 63 H 0.808 1.1592 2.2624 0
M  V30 64 H 2.5707 -1.3789 1.9774 0
M  V30 65 H 2.557 -2.5865 0.6896 0
M  V30 66 H 4.9666 -2.2142 -0.1216 0
M  V30 67 H 3.8144 -2.1227 -1.4563 0
M  V30 68 H 5.0979 -0.9032 -1.3009 0
M  V30 69 H -0.0445 -0.7748 2.2576 0
M  V30 70 H -2.0524 1.0531 -0.4993 0
M  V30 71 H 0.5936 -3.277 1.9015 0
M  V30 72 H -1.4023 -1.2527 -0.4481 0
M  V30 73 H -1.4063 2.5016 1.0457 0
M  V30 74 H -1.796 -5.497 1.0868 0
M  V30 75 H -2.1331 -5.0964 2.7931 0
M  V30 76 H -0.4746 -5.2517 2.2242 0
M  V30 77 H -4.1395 0.4602 0.7258 0
M  V30 78 H -3.7033 -0.5595 -0.6468 0
M  V30 79 H -2.9223 0.4092 2.7577 0
M  V30 80 H -2.013 -0.9938 3.3254 0
M  V30 81 H -3.7604 -1.0725 3.1742 0
M  V30 82 H -3.9368 -4.5395 1.2282 0
M  V30 83 H -7.0242 -0.1802 0.2873 0
M  V30 84 H -8.2884 -3.9823 2.5612 0
M  V30 85 H -5.5484 -5.3935 -0.4739 0
M  V30 86 H -9.1104 -6.2983 2.8759 0
M  V30 87 H -6.3741 -7.6982 -0.1322 0
M  V30 88 H -8.1487 -8.1541 1.5392 0
M  V30 END ATOM
M  V30 BEGIN BOND
M  V30 1 2 1 2
M  V30 2 2 1 3
M  V30 3 1 1 4
M  V30 4 1 1 5
M  V30 5 2 5 6
M  V30 6 1 5 7
M  V30 7 1 6 8
M  V30 8 2 7 9
M  V30 9 1 8 10
M  V30 10 2 8 11
M  V30 11 2 10 12
M  V30 12 1 10 13
M  V30 13 1 13 14
M  V30 14 1 14 15
M  V30 15 2 15 16
M  V30 16 1 15 17
M  V30 17 1 17 18
M  V30 18 1 17 19
M  V30 19 1 17 20
M  V30 20 1 19 21
M  V30 21 1 19 22
M  V30 22 1 19 23
M  V30 23 1 20 24
M  V30 24 1 20 25
M  V30 25 1 21 26
M  V30 26 1 22 27
M  V30 27 1 26 28
M  V30 28 1 26 29
M  V30 29 1 27 30
M  V30 30 2 28 31
M  V30 31 1 29 32
M  V30 32 1 31 33
M  V30 33 1 31 34
M  V30 34 1 32 35
M  V30 35 1 32 36
M  V30 36 2 33 37
M  V30 37 1 35 38
M  V30 38 1 37 39
M  V30 39 1 38 40
M  V30 40 1 39 41
M  V30 41 2 40 42
M  V30 42 1 41 43
M  V30 43 2 43 44
M  V30 44 1 43 45
M  V30 45 1 44 46
M  V30 46 2 45 47
M  V30 47 2 46 48
M  V30 48 1 9 11
M  V30 49 1 21 24
M  V30 50 1 27 29
M  V30 51 1 32 33
M  V30 52 2 38 39
M  V30 53 1 41 42
M  V30 54 1 47 48
M  V30 55 1 4 49
M  V30 56 1 6 50
M  V30 57 1 7 51
M  V30 58 1 9 52
M  V30 59 1 11 53
M  V30 60 1 14 54
M  V30 61 1 14 55
M  V30 62 1 18 56
M  V30 63 1 20 57
M  V30 64 1 21 58
M  V30 65 1 22 59
M  V30 66 1 22 60
M  V30 67 1 23 61
M  V30 68 1 23 62
M  V30 69 1 23 63
M  V30 70 1 24 64
M  V30 71 1 24 65
M  V30 72 1 25 66
M  V30 73 1 25 67
M  V30 74 1 25 68
M  V30 75 1 26 69
M  V30 76 1 27 70
M  V30 77 1 28 71
M  V30 78 1 29 72
M  V30 79 1 30 73
M  V30 80 1 34 74
M  V30 81 1 34 75
M  V30 82 1 34 76
M  V30 83 1 35 77
M  V30 84 1 35 78
M  V30 85 1 36 79
M  V30 86 1 36 80
M  V30 87 1 36 81
M  V30 88 1 37 82
M  V30 89 1 40 83
M  V30 90 1 44 84
M  V30 91 1 45 85
M  V30 92 1 46 86
M  V30 93 1 47 87
M  V30 94 1 48 88
M  V30 END BOND
M  V30 BEGIN COLLECTION
M  V30 MDLV30/STEABS ATOMS=(8 17 19 20 21 26 27 29 32)
M  V30 END COLLECTION
M  V30 END CTAB
M  END
>  <NO.>
1389

>  <Name>
cortisuzol

>  <SMILES>
CC1=C[C@H]2[C@@H]3C[C@@H](C)[C@](O)(C(=O)COC(=O)c4cccc(S(=O)(=O)O)c4)[C@@]3(C)C[C@H](O)[C@@H]2[C@@]2(C)Cc3cnn(-c4ccccc4)c3C=C12

>  <logBB>


>  <Class>
1

>  <MW>
672.25

>  <nHBAcc>
8

>  <nHBDon>
3

>  <SLogP>
4.84

>  <TopoPSA>
156.02

>  <MMFF94 Energy>
168.51

$$$$
CC1=NN(c2ccccc2)C(=O)C1
Actelion Java MolfileCreator 2.0

  0  0  0  0  0  0              0 V3000
M  V30 BEGIN CTAB
M  V30 COUNTS 23 24 0 0 0
M  V30 BEGIN ATOM
M  V30 1 O -0.7942 -0.0793 2.6227 0
M  V30 2 C -0.9238 -0.5548 1.5061 0
M  V30 3 N -0.2938 -0.2478 0.2886 0
M  V30 4 C -1.8697 -1.6687 1.1698 0
M  V30 5 N -0.7241 -1.0281 -0.7715 0
M  V30 6 C 0.6959 0.7381 0.0453 0
M  V30 7 C -1.6149 -1.8365 -0.2904 0
M  V30 8 C 1.1836 1.5675 1.0639 0
M  V30 9 C 1.2193 0.9084 -1.2474 0
M  V30 10 C -2.3376 -2.8546 -1.1015 0
M  V30 11 C 2.1613 2.5342 0.7998 0
M  V30 12 C 2.1959 1.8735 -1.5132 0
M  V30 13 C 2.6669 2.687 -0.4878 0
M  V30 14 H -2.904 -1.3688 1.3485 0
M  V30 15 H -1.6092 -2.5785 1.7135 0
M  V30 16 H 0.8208 1.4871 2.0842 0
M  V30 17 H 0.8704 0.2871 -2.0689 0
M  V30 18 H -3.412 -2.6583 -1.0553 0
M  V30 19 H -2.137 -3.8496 -0.6959 0
M  V30 20 H -2.0087 -2.8167 -2.1431 0
M  V30 21 H 2.5249 3.1667 1.606 0
M  V30 22 H 2.585 1.9858 -2.5216 0
M  V30 23 H 3.4257 3.438 -0.6907 0
M  V30 END ATOM
M  V30 BEGIN BOND
M  V30 1 2 1 2
M  V30 2 1 2 3
M  V30 3 1 2 4
M  V30 4 1 3 5
M  V30 5 1 3 6
M  V30 6 1 4 7
M  V30 7 2 6 8
M  V30 8 1 6 9
M  V30 9 1 7 10
M  V30 10 1 8 11
M  V30 11 2 9 12
M  V30 12 2 11 13
M  V30 13 2 5 7
M  V30 14 1 12 13
M  V30 15 1 4 14
M  V30 16 1 4 15
M  V30 17 1 8 16
M  V30 18 1 9 17
M  V30 19 1 10 18
M  V30 20 1 10 19
M  V30 21 1 10 20
M  V30 22 1 11 21
M  V30 23 1 12 22
M  V30 24 1 13 23
M  V30 END BOND
M  V30 END CTAB
M  END
>  <NO.>
1390

>  <Name>
edaravone

>  <SMILES>
CC1=NN(c2ccccc2)C(=O)C1

>  <logBB>


>  <Class>
1

>  <MW>
174.08

>  <nHBAcc>
2

>  <nHBDon>
0

>  <SLogP>
1.8

>  <TopoPSA>
32.67

>  <MMFF94 Energy>
41.945

$$$$
CC1=Nc2ccccc2CC(c2ccccc2)N1C
Actelion Java MolfileCreator 2.0

  0  0  0  0  0  0              0 V3000
M  V30 BEGIN CTAB
M  V30 COUNTS 37 39 0 0 0
M  V30 BEGIN ATOM
M  V30 1 N 2.1452 -1.2708 -0.0793 0
M  V30 2 C 1.1888 -1.9906 0.4082 0
M  V30 3 C 2.0855 0.0933 -0.3674 0
M  V30 4 N -0.0968 -1.6523 0.8268 0
M  V30 5 C 1.5787 -3.4676 0.5077 0
M  V30 6 C 1.455 1.0473 0.4352 0
M  V30 7 C 2.7798 0.5261 -1.5046 0
M  V30 8 C -0.4914 -0.3128 1.3006 0 CFG=1
M  V30 9 C -1.1282 -2.6781 0.9931 0
M  V30 10 C 1.5135 2.4086 0.0859 0
M  V30 11 C 0.6855 0.612 1.648 0
M  V30 12 C 2.8339 1.8762 -1.8545 0
M  V30 13 C -1.5274 0.3469 0.3912 0
M  V30 14 C 2.1984 2.8196 -1.0561 0
M  V30 15 C -1.4892 0.2041 -1.0051 0
M  V30 16 C -2.5388 1.1455 0.9532 0
M  V30 17 C -2.4375 0.8322 -1.8143 0
M  V30 18 C -3.4878 1.7717 0.1424 0
M  V30 19 C -3.4371 1.6141 -1.2405 0
M  V30 20 H 2.6538 -3.5971 0.3468 0
M  V30 21 H 1.045 -4.0402 -0.2556 0
M  V30 22 H 1.3347 -3.8556 1.5005 0
M  V30 23 H 3.29 -0.2092 -2.1217 0
M  V30 24 H -0.9964 -0.4868 2.2632 0
M  V30 25 H -1.1657 -3.336 0.1189 0
M  V30 26 H -0.928 -3.2777 1.8868 0
M  V30 27 H -2.1293 -2.2476 1.1061 0
M  V30 28 H 1.0133 3.1556 0.6978 0
M  V30 29 H 1.3725 0.1162 2.3465 0
M  V30 30 H 0.3054 1.4947 2.1796 0
M  V30 31 H 3.3758 2.1849 -2.7437 0
M  V30 32 H 2.2344 3.8727 -1.321 0
M  V30 33 H -0.7091 -0.3937 -1.4733 0
M  V30 34 H -2.5941 1.2874 2.0304 0
M  V30 35 H -2.3889 0.714 -2.8936 0
M  V30 36 H -4.2651 2.386 0.5896 0
M  V30 37 H -4.1729 2.1043 -1.8725 0
M  V30 END ATOM
M  V30 BEGIN BOND
M  V30 1 2 1 2
M  V30 2 1 1 3
M  V30 3 1 2 4
M  V30 4 1 2 5
M  V30 5 2 3 6
M  V30 6 1 3 7
M  V30 7 1 4 8
M  V30 8 1 4 9
M  V30 9 1 6 10
M  V30 10 1 6 11
M  V30 11 2 7 12
M  V30 12 1 8 13
M  V30 13 2 10 14
M  V30 14 2 13 15
M  V30 15 1 13 16
M  V30 16 1 15 17
M  V30 17 2 16 18
M  V30 18 2 17 19
M  V30 19 1 8 11
M  V30 20 1 12 14
M  V30 21 1 18 19
M  V30 22 1 5 20
M  V30 23 1 5 21
M  V30 24 1 5 22
M  V30 25 1 7 23
M  V30 26 1 8 24
M  V30 27 1 9 25
M  V30 28 1 9 26
M  V30 29 1 9 27
M  V30 30 1 10 28
M  V30 31 1 11 29
M  V30 32 1 11 30
M  V30 33 1 12 31
M  V30 34 1 14 32
M  V30 35 1 15 33
M  V30 36 1 16 34
M  V30 37 1 17 35
M  V30 38 1 18 36
M  V30 39 1 19 37
M  V30 END BOND
M  V30 BEGIN COLLECTION
M  V30 MDLV30/STERAC1 ATOMS=(1 8)
M  V30 END COLLECTION
M  V30 END CTAB
M  END
>  <NO.>
1391

>  <Name>
dazepinil

>  <SMILES>
CC1=Nc2ccccc2CC(c2ccccc2)N1C

>  <logBB>


>  <Class>
1

>  <MW>
250.15

>  <nHBAcc>
2

>  <nHBDon>
0

>  <SLogP>
3.97

>  <TopoPSA>
15.6

>  <MMFF94 Energy>
40.066

$$$$
CC1C2Cc3ccc(O)cc3C1(C)CCN2C
Actelion Java MolfileCreator 2.0

  0  0  0  0  0  0              0 V3000
M  V30 BEGIN CTAB
M  V30 COUNTS 38 40 0 0 0
M  V30 BEGIN ATOM
M  V30 1 O 1.592 -3.1062 3.186 0
M  V30 2 C 1.3522 -1.9445 2.512 0
M  V30 3 C 0.794 -2.0379 1.2404 0
M  V30 4 C 1.6491 -0.711 3.0722 0
M  V30 5 C 0.5239 -0.8832 0.4841 0
M  V30 6 C 1.3733 0.4463 2.3476 0
M  V30 7 C 0.8028 0.375 1.064 0
M  V30 8 C -0.123 -0.9699 -0.909 0
M  V30 9 C 0.5365 1.6724 0.3308 0
M  V30 10 C 0.2225 0.2858 -1.7649 0
M  V30 11 C -1.6644 -0.9922 -0.7221 0
M  V30 12 C 0.2872 -2.2456 -1.6782 0
M  V30 13 C -0.2517 1.5359 -0.9935 0
M  V30 14 C 1.6982 0.3853 -2.1842 0
M  V30 15 C -2.2201 0.3145 -0.1453 0
M  V30 16 N -1.7294 1.4826 -0.882 0
M  V30 17 C -2.3131 2.7152 -0.3609 0
M  V30 18 H 1.9828 -2.8873 4.0474 0
M  V30 19 H 0.5677 -3.0286 0.8576 0
M  V30 20 H 2.0861 -0.6289 4.0617 0
M  V30 21 H 1.6024 1.4145 2.7883 0
M  V30 22 H 0.038 2.3762 1.0064 0
M  V30 23 H 1.5138 2.1183 0.1003 0
M  V30 24 H -0.3473 0.2352 -2.7057 0
M  V30 25 H -2.1437 -1.1715 -1.6948 0
M  V30 26 H -1.9669 -1.8241 -0.0726 0
M  V30 27 H -0.0613 -2.207 -2.717 0
M  V30 28 H -0.1495 -3.1481 -1.2358 0
M  V30 29 H 1.3744 -2.3802 -1.6926 0
M  V30 30 H -0.0186 2.4168 -1.6074 0
M  V30 31 H 2.3878 0.3096 -1.3389 0
M  V30 32 H 1.8889 1.3387 -2.689 0
M  V30 33 H 1.9551 -0.4085 -2.8928 0
M  V30 34 H -1.9887 0.3899 0.924 0
M  V30 35 H -3.3144 0.2712 -0.2178 0
M  V30 36 H -1.9594 3.5841 -0.9267 0
M  V30 37 H -3.403 2.6945 -0.4743 0
M  V30 38 H -2.0907 2.877 0.6986 0
M  V30 END ATOM
M  V30 BEGIN BOND
M  V30 1 1 1 2
M  V30 2 2 2 3
M  V30 3 1 2 4
M  V30 4 1 3 5
M  V30 5 2 4 6
M  V30 6 2 5 7
M  V30 7 1 5 8
M  V30 8 1 7 9
M  V30 9 1 8 10
M  V30 10 1 8 11
M  V30 11 1 8 12
M  V30 12 1 9 13
M  V30 13 1 10 14
M  V30 14 1 11 15
M  V30 15 1 13 16
M  V30 16 1 16 17
M  V30 17 1 6 7
M  V30 18 1 10 13
M  V30 19 1 15 16
M  V30 20 1 1 18
M  V30 21 1 3 19
M  V30 22 1 4 20
M  V30 23 1 6 21
M  V30 24 1 9 22
M  V30 25 1 9 23
M  V30 26 1 10 24
M  V30 27 1 11 25
M  V30 28 1 11 26
M  V30 29 1 12 27
M  V30 30 1 12 28
M  V30 31 1 12 29
M  V30 32 1 13 30
M  V30 33 1 14 31
M  V30 34 1 14 32
M  V30 35 1 14 33
M  V30 36 1 15 34
M  V30 37 1 15 35
M  V30 38 1 17 36
M  V30 39 1 17 37
M  V30 40 1 17 38
M  V30 END BOND
M  V30 END CTAB
M  END
>  <NO.>
1392

>  <Name>
metazocine

>  <SMILES>
CC1C2Cc3ccc(O)cc3C1(C)CCN2C

>  <logBB>


>  <Class>
1

>  <MW>
231.16

>  <nHBAcc>
2

>  <nHBDon>
1

>  <SLogP>
2.55

>  <TopoPSA>
23.47

>  <MMFF94 Energy>
45.655

$$$$
CC1C2Cc3ccc(O)cc3C1(C)CCN2CC1CC1
Actelion Java MolfileCreator 2.0

  0  0  0  0  0  0              0 V3000
M  V30 BEGIN CTAB
M  V30 COUNTS 45 48 0 0 0
M  V30 BEGIN ATOM
M  V30 1 O -1.357 -4.3954 -3.0353 0
M  V30 2 C -1.419 -3.4028 -2.1015 0
M  V30 3 C -0.2915 -3.0138 -1.3795 0
M  V30 4 C -2.6427 -2.7885 -1.897 0
M  V30 5 C -0.3715 -1.9921 -0.4127 0
M  V30 6 C -2.7418 -1.7623 -0.9633 0
M  V30 7 C -1.6168 -1.3484 -0.2277 0
M  V30 8 C 0.8716 -1.5209 0.3782 0
M  V30 9 C -1.8011 -0.2254 0.7674 0
M  V30 10 C 0.4109 -0.8991 1.7342 0
M  V30 11 C 1.5892 -0.4395 -0.4652 0
M  V30 12 C 1.8554 -2.683 0.6441 0
M  V30 13 C -0.5018 0.3044 1.4152 0
M  V30 14 C 1.5412 -0.4832 2.6911 0
M  V30 15 C 0.7664 0.8453 -0.6231 0
M  V30 16 N 0.2509 1.3365 0.6607 0
M  V30 17 C -0.5145 2.5792 0.506 0
M  V30 18 C 0.4114 3.731 0.2404 0
M  V30 19 C 0.6159 4.2684 -1.155 0
M  V30 20 C -0.16 5.0717 -0.1509 0
M  V30 21 H -0.4498 -4.74 -3.0606 0
M  V30 22 H 0.6525 -3.5051 -1.5848 0
M  V30 23 H -3.5133 -3.1018 -2.465 0
M  V30 24 H -3.7042 -1.2783 -0.8113 0
M  V30 25 H -2.4389 -0.617 1.5723 0
M  V30 26 H -2.3632 0.5915 0.3018 0
M  V30 27 H -0.1832 -1.647 2.281 0
M  V30 28 H 2.5507 -0.1833 -0.0014 0
M  V30 29 H 1.833 -0.8261 -1.4636 0
M  V30 30 H 2.2612 -3.104 -0.2814 0
M  V30 31 H 1.3694 -3.4932 1.1993 0
M  V30 32 H 2.7284 -2.3561 1.2179 0
M  V30 33 H -0.7919 0.7612 2.3719 0
M  V30 34 H 1.1291 0.0292 3.5677 0
M  V30 35 H 2.2647 0.1909 2.2248 0
M  V30 36 H 2.0818 -1.3569 3.0669 0
M  V30 37 H 1.4312 1.5921 -1.0717 0
M  V30 38 H -0.0457 0.6891 -1.3432 0
M  V30 39 H -1.039 2.8124 1.441 0
M  V30 40 H -1.2776 2.4941 -0.2771 0
M  V30 41 H 1.2528 3.7432 0.9255 0
M  V30 42 H 0.0701 3.812 -1.9724 0
M  V30 43 H 1.6106 4.607 -1.4212 0
M  V30 44 H -1.231 5.1608 -0.2925 0
M  V30 45 H 0.3075 5.9595 0.2596 0
M  V30 END ATOM
M  V30 BEGIN BOND
M  V30 1 1 1 2
M  V30 2 2 2 3
M  V30 3 1 2 4
M  V30 4 1 3 5
M  V30 5 2 4 6
M  V30 6 2 5 7
M  V30 7 1 5 8
M  V30 8 1 7 9
M  V30 9 1 8 10
M  V30 10 1 8 11
M  V30 11 1 8 12
M  V30 12 1 9 13
M  V30 13 1 10 14
M  V30 14 1 11 15
M  V30 15 1 13 16
M  V30 16 1 16 17
M  V30 17 1 17 18
M  V30 18 1 18 19
M  V30 19 1 18 20
M  V30 20 1 6 7
M  V30 21 1 10 13
M  V30 22 1 15 16
M  V30 23 1 19 20
M  V30 24 1 1 21
M  V30 25 1 3 22
M  V30 26 1 4 23
M  V30 27 1 6 24
M  V30 28 1 9 25
M  V30 29 1 9 26
M  V30 30 1 10 27
M  V30 31 1 11 28
M  V30 32 1 11 29
M  V30 33 1 12 30
M  V30 34 1 12 31
M  V30 35 1 12 32
M  V30 36 1 13 33
M  V30 37 1 14 34
M  V30 38 1 14 35
M  V30 39 1 14 36
M  V30 40 1 15 37
M  V30 41 1 15 38
M  V30 42 1 17 39
M  V30 43 1 17 40
M  V30 44 1 18 41
M  V30 45 1 19 42
M  V30 46 1 19 43
M  V30 47 1 20 44
M  V30 48 1 20 45
M  V30 END BOND
M  V30 END CTAB
M  END
>  <NO.>
1393

>  <Name>
ribavirin

>  <SMILES>
CC1C2Cc3ccc(O)cc3C1(C)CCN2CC1CC1

>  <logBB>


>  <Class>
1

>  <MW>
271.19

>  <nHBAcc>
2

>  <nHBDon>
1

>  <SLogP>
3.33

>  <TopoPSA>
23.47

>  <MMFF94 Energy>
58.575

$$$$
CC1C2Cc3ccc(O)cc3C1(C)CCN2CCc1ccccc1
Actelion Java MolfileCreator 2.0

  0  0  0  0  0  0              0 V3000
M  V30 BEGIN CTAB
M  V30 COUNTS 51 54 0 0 0
M  V30 BEGIN ATOM
M  V30 1 O 1.0372 -4.0739 -4.9542 0
M  V30 2 C 0.6554 -3.7262 -3.6914 0
M  V30 3 C 1.1738 -2.5485 -3.1602 0
M  V30 4 C -0.2218 -4.5134 -2.9606 0
M  V30 5 C 0.8288 -2.1294 -1.8631 0
M  V30 6 C -0.5903 -4.108 -1.6799 0
M  V30 7 C -0.0824 -2.9194 -1.126 0
M  V30 8 C 1.3659 -0.8152 -1.2719 0
M  V30 9 C -0.5252 -2.5403 0.2719 0
M  V30 10 C 1.3956 -0.8797 0.2827 0
M  V30 11 C 0.3933 0.3279 -1.6717 0
M  V30 12 C 2.7733 -0.4546 -1.7976 0
M  V30 13 C -0.0388 -1.1588 0.7745 0
M  V30 14 C 2.409 -1.8802 0.8625 0
M  V30 15 C -0.9995 0.1845 -1.0436 0
M  V30 16 N -0.9913 -0.0753 0.405 0
M  V30 17 C -0.7704 1.1485 1.2022 0
M  V30 18 C -2.0171 2.0496 1.259 0
M  V30 19 C -1.7946 3.2452 2.1562 0
M  V30 20 C -2.1344 3.1873 3.5144 0
M  V30 21 C -1.2181 4.417 1.6478 0
M  V30 22 C -1.9093 4.285 4.3464 0
M  V30 23 C -0.994 5.5135 2.4816 0
M  V30 24 C -1.34 5.4475 3.8301 0
M  V30 25 H 0.5991 -4.908 -5.1886 0
M  V30 26 H 1.844 -1.9641 -3.7832 0
M  V30 27 H -0.6305 -5.4326 -3.3663 0
M  V30 28 H -1.2842 -4.7208 -1.1079 0
M  V30 29 H -0.1375 -3.3088 0.9545 0
M  V30 30 H -1.6199 -2.5935 0.337 0
M  V30 31 H 1.7099 0.1007 0.667 0
M  V30 32 H 0.8198 1.293 -1.3672 0
M  V30 33 H 0.2829 0.3749 -2.7631 0
M  V30 34 H 3.4719 -1.2929 -1.7002 0
M  V30 35 H 3.1914 0.3972 -1.2486 0
M  V30 36 H 2.7526 -0.1652 -2.8544 0
M  V30 37 H -0.0406 -1.2277 1.8709 0
M  V30 38 H 2.289 -2.8909 0.4634 0
M  V30 39 H 2.3083 -1.9363 1.952 0
M  V30 40 H 3.4348 -1.5608 0.6524 0
M  V30 41 H -1.5455 -0.626 -1.5406 0
M  V30 42 H -1.588 1.0769 -1.2828 0
M  V30 43 H 0.0913 1.7185 0.8346 0
M  V30 44 H -0.5304 0.8679 2.2367 0
M  V30 45 H -2.2965 2.4105 0.2628 0
M  V30 46 H -2.8786 1.4763 1.6253 0
M  V30 47 H -2.5769 2.2855 3.9316 0
M  V30 48 H -0.9417 4.4823 0.598 0
M  V30 49 H -2.1784 4.2327 5.3981 0
M  V30 50 H -0.5495 6.4197 2.0789 0
M  V30 51 H -1.1659 6.302 4.4786 0
M  V30 END ATOM
M  V30 BEGIN BOND
M  V30 1 1 1 2
M  V30 2 2 2 3
M  V30 3 1 2 4
M  V30 4 1 3 5
M  V30 5 2 4 6
M  V30 6 2 5 7
M  V30 7 1 5 8
M  V30 8 1 7 9
M  V30 9 1 8 10
M  V30 10 1 8 11
M  V30 11 1 8 12
M  V30 12 1 9 13
M  V30 13 1 10 14
M  V30 14 1 11 15
M  V30 15 1 13 16
M  V30 16 1 16 17
M  V30 17 1 17 18
M  V30 18 1 18 19
M  V30 19 2 19 20
M  V30 20 1 19 21
M  V30 21 1 20 22
M  V30 22 2 21 23
M  V30 23 2 22 24
M  V30 24 1 6 7
M  V30 25 1 10 13
M  V30 26 1 15 16
M  V30 27 1 23 24
M  V30 28 1 1 25
M  V30 29 1 3 26
M  V30 30 1 4 27
M  V30 31 1 6 28
M  V30 32 1 9 29
M  V30 33 1 9 30
M  V30 34 1 10 31
M  V30 35 1 11 32
M  V30 36 1 11 33
M  V30 37 1 12 34
M  V30 38 1 12 35
M  V30 39 1 12 36
M  V30 40 1 13 37
M  V30 41 1 14 38
M  V30 42 1 14 39
M  V30 43 1 14 40
M  V30 44 1 15 41
M  V30 45 1 15 42
M  V30 46 1 17 43
M  V30 47 1 17 44
M  V30 48 1 18 45
M  V30 49 1 18 46
M  V30 50 1 20 47
M  V30 51 1 21 48
M  V30 52 1 22 49
M  V30 53 1 23 50
M  V30 54 1 24 51
M  V30 END BOND
M  V30 END CTAB
M  END
>  <NO.>
1394

>  <Name>
phenazocine

>  <SMILES>
CC1C2Cc3ccc(O)cc3C1(C)CCN2CCc1ccccc1

>  <logBB>


>  <Class>
1

>  <MW>
321.21

>  <nHBAcc>
2

>  <nHBDon>
1

>  <SLogP>
4.16

>  <TopoPSA>
23.47

>  <MMFF94 Energy>
76.92

$$$$
CC1CC(OC(=O)C2CCC(=O)N2)CC(C)(C)C1
Actelion Java MolfileCreator 2.0

  0  0  0  0  0  0              0 V3000
M  V30 BEGIN CTAB
M  V30 COUNTS 41 42 0 0 0
M  V30 BEGIN ATOM
M  V30 1 O -4.513 2.2149 -4.4336 0
M  V30 2 C -4.073 1.738 -3.4041 0
M  V30 3 N -3.0287 0.848 -3.3171 0
M  V30 4 C -4.5954 1.9736 -2.0116 0
M  V30 5 C -2.767 0.4147 -1.9658 0
M  V30 6 C -3.4373 1.502 -1.1359 0
M  V30 7 C -1.2699 0.2544 -1.7041 0
M  V30 8 O -0.4404 0.0203 -2.5748 0
M  V30 9 O -1.0062 0.323 -0.3687 0
M  V30 10 C 0.3719 0.1476 0.0174 0
M  V30 11 C 0.6853 -1.3487 0.1338 0
M  V30 12 C 0.5548 0.8456 1.3666 0
M  V30 13 C 2.0874 -1.639 0.711 0
M  V30 14 C 1.9581 0.6268 1.9398 0
M  V30 15 C 2.2774 -0.8735 2.0416 0
M  V30 16 C 2.212 -3.1503 0.9828 0
M  V30 17 C 3.1814 -1.2499 -0.3017 0
M  V30 18 C 2.0877 1.2958 3.3084 0
M  V30 19 H -2.5133 0.5367 -4.1336 0
M  V30 20 H -4.8259 3.029 -1.8494 0
M  V30 21 H -5.4898 1.3618 -1.8594 0
M  V30 22 H -3.2537 -0.5569 -1.8276 0
M  V30 23 H -2.7497 2.3386 -0.9556 0
M  V30 24 H -3.7758 1.1381 -0.1607 0
M  V30 25 H 1.0257 0.6319 -0.7179 0
M  V30 26 H 0.5717 -1.8287 -0.8464 0
M  V30 27 H -0.0817 -1.8158 0.768 0
M  V30 28 H 0.3556 1.9185 1.2479 0
M  V30 29 H -0.2056 0.4841 2.0723 0
M  V30 30 H 2.6866 1.1031 1.2725 0
M  V30 31 H 3.3058 -1.0046 2.4029 0
M  V30 32 H 1.626 -1.3191 2.8066 0
M  V30 33 H 1.4546 -3.4897 1.6985 0
M  V30 34 H 3.1955 -3.3978 1.3981 0
M  V30 35 H 2.0816 -3.73 0.0621 0
M  V30 36 H 3.0636 -1.807 -1.2382 0
M  V30 37 H 4.1785 -1.4752 0.0932 0
M  V30 38 H 3.1633 -0.1856 -0.5522 0
M  V30 39 H 1.8906 2.3706 3.2351 0
M  V30 40 H 1.3812 0.8707 4.0295 0
M  V30 41 H 3.0989 1.1674 3.7088 0
M  V30 END ATOM
M  V30 BEGIN BOND
M  V30 1 2 1 2
M  V30 2 1 2 3
M  V30 3 1 2 4
M  V30 4 1 3 5
M  V30 5 1 4 6
M  V30 6 1 5 7
M  V30 7 2 7 8
M  V30 8 1 7 9
M  V30 9 1 9 10
M  V30 10 1 10 11
M  V30 11 1 10 12
M  V30 12 1 11 13
M  V30 13 1 12 14
M  V30 14 1 13 15
M  V30 15 1 13 16
M  V30 16 1 13 17
M  V30 17 1 14 18
M  V30 18 1 5 6
M  V30 19 1 14 15
M  V30 20 1 3 19
M  V30 21 1 4 20
M  V30 22 1 4 21
M  V30 23 1 5 22
M  V30 24 1 6 23
M  V30 25 1 6 24
M  V30 26 1 10 25
M  V30 27 1 11 26
M  V30 28 1 11 27
M  V30 29 1 12 28
M  V30 30 1 12 29
M  V30 31 1 14 30
M  V30 32 1 15 31
M  V30 33 1 15 32
M  V30 34 1 16 33
M  V30 35 1 16 34
M  V30 36 1 16 35
M  V30 37 1 17 36
M  V30 38 1 17 37
M  V30 39 1 17 38
M  V30 40 1 18 39
M  V30 41 1 18 40
M  V30 42 1 18 41
M  V30 END BOND
M  V30 END CTAB
M  END
>  <NO.>
1395

>  <Name>
crilvastatin

>  <SMILES>
CC1CC(OC(=O)C2CCC(=O)N2)CC(C)(C)C1

>  <logBB>


>  <Class>
1

>  <MW>
253.17

>  <nHBAcc>
3

>  <nHBDon>
1

>  <SLogP>
2.02

>  <TopoPSA>
55.4

>  <MMFF94 Energy>
24.205

$$$$
CC1CC2C3CC(F)(F)C4=CC(=O)C=C[C@]4(C)C3(F)C(O)CC2(C)C1(O)C(=O)CO
Actelion Java MolfileCreator 2.0

  0  0  0  0  0  0              0 V3000
M  V30 BEGIN CTAB
M  V30 COUNTS 57 60 0 0 0
M  V30 BEGIN ATOM
M  V30 1 F -0.895 1.465 0.6509 0
M  V30 2 C 0.1793 0.6747 1.0222 0
M  V30 3 C 0.6848 1.278 2.3949 0 CFG=2
M  V30 4 C 1.1923 0.7708 -0.1515 0
M  V30 5 C -0.3633 -0.7669 1.1909 0
M  V30 6 C -0.441 1.1281 3.4353 0
M  V30 7 C 1.0673 2.7521 2.224 0
M  V30 8 C 1.9587 0.5715 2.9133 0
M  V30 9 O 0.7043 1.6432 -1.1717 0
M  V30 10 C 1.5721 -0.5665 -0.7932 0
M  V30 11 C -0.7707 -1.4261 -0.1425 0
M  V30 12 C -1.5049 -0.796 2.22 0
M  V30 13 C -0.9283 2.1534 4.1594 0
M  V30 14 C -1.0437 -0.2468 3.564 0
M  V30 15 C 0.5731 3.7662 2.947 0
M  V30 16 C 0.4296 -1.5738 -1.1278 0
M  V30 17 C -1.913 -0.742 -0.9228 0
M  V30 18 C -0.4346 3.5334 3.9969 0
M  V30 19 F -0.1348 -1.1076 4.0948 0
M  V30 20 F -2.1046 -0.2597 4.4154 0
M  V30 21 C -0.2539 -1.4312 -2.5344 0
M  V30 22 C 1.0551 -2.987 -0.9594 0
M  V30 23 C -1.3797 -0.4131 -2.3237 0
M  V30 24 O -0.8555 4.4491 4.6905 0
M  V30 25 O -0.8955 -2.6867 -2.8611 0
M  V30 26 C 0.7146 -1.1648 -3.7019 0
M  V30 27 C -2.5032 -0.4536 -3.3609 0
M  V30 28 O 1.2985 -2.1172 -4.2424 0
M  V30 29 C 0.9385 0.2513 -4.2141 0
M  V30 30 O 1.943 0.2748 -5.2249 0
M  V30 31 H 2.1294 1.2237 0.1828 0
M  V30 32 H 0.4405 -1.3948 1.5972 0
M  V30 33 H 1.8217 3.0021 1.4803 0
M  V30 34 H 2.8202 0.7462 2.2589 0
M  V30 35 H 1.8422 -0.5119 2.9977 0
M  V30 36 H 2.2367 0.9405 3.9091 0
M  V30 37 H 0.0026 2.1946 -0.7664 0
M  V30 38 H 2.2541 -1.0446 -0.075 0
M  V30 39 H 2.1857 -0.3903 -1.683 0
M  V30 40 H -1.1408 -2.4315 0.1076 0
M  V30 41 H -1.848 -1.8284 2.3597 0
M  V30 42 H -2.3724 -0.2253 1.868 0
M  V30 43 H -1.7269 2.0324 4.8851 0
M  V30 44 H 0.8898 4.7932 2.8057 0
M  V30 45 H -2.7533 -1.446 -0.9884 0
M  V30 46 H -2.3146 0.1525 -0.4416 0
M  V30 47 H 1.4733 -3.1187 0.0454 0
M  V30 48 H 1.8636 -3.1455 -1.6811 0
M  V30 49 H 0.322 -3.7896 -1.0916 0
M  V30 50 H -0.9871 0.6038 -2.3238 0
M  V30 51 H -0.2205 -3.2362 -3.3117 0
M  V30 52 H -3.0312 -1.4129 -3.3617 0
M  V30 53 H -3.2423 0.3263 -3.1477 0
M  V30 54 H -2.1178 -0.2822 -4.37 0
M  V30 55 H 0.0157 0.636 -4.6514 0
M  V30 56 H 1.2744 0.9022 -3.411 0
M  V30 57 H 2.0263 -0.6433 -5.5535 0
M  V30 END ATOM
M  V30 BEGIN BOND
M  V30 1 1 1 2
M  V30 2 1 2 3
M  V30 3 1 2 4
M  V30 4 1 2 5
M  V30 5 1 3 6
M  V30 6 1 3 7
M  V30 7 1 3 8
M  V30 8 1 4 9
M  V30 9 1 4 10
M  V30 10 1 5 11
M  V30 11 1 5 12
M  V30 12 2 6 13
M  V30 13 1 6 14
M  V30 14 2 7 15
M  V30 15 1 10 16
M  V30 16 1 11 17
M  V30 17 1 13 18
M  V30 18 1 14 19
M  V30 19 1 14 20
M  V30 20 1 16 21
M  V30 21 1 16 22
M  V30 22 1 17 23
M  V30 23 2 18 24
M  V30 24 1 21 25
M  V30 25 1 21 26
M  V30 26 1 23 27
M  V30 27 2 26 28
M  V30 28 1 26 29
M  V30 29 1 29 30
M  V30 30 1 11 16
M  V30 31 1 12 14
M  V30 32 1 15 18
M  V30 33 1 21 23
M  V30 34 1 4 31
M  V30 35 1 5 32
M  V30 36 1 7 33
M  V30 37 1 8 34
M  V30 38 1 8 35
M  V30 39 1 8 36
M  V30 40 1 9 37
M  V30 41 1 10 38
M  V30 42 1 10 39
M  V30 43 1 11 40
M  V30 44 1 12 41
M  V30 45 1 12 42
M  V30 46 1 13 43
M  V30 47 1 15 44
M  V30 48 1 17 45
M  V30 49 1 17 46
M  V30 50 1 22 47
M  V30 51 1 22 48
M  V30 52 1 22 49
M  V30 53 1 23 50
M  V30 54 1 25 51
M  V30 55 1 27 52
M  V30 56 1 27 53
M  V30 57 1 27 54
M  V30 58 1 29 55
M  V30 59 1 29 56
M  V30 60 1 30 57
M  V30 END BOND
M  V30 BEGIN COLLECTION
M  V30 MDLV30/STEABS ATOMS=(1 3)
M  V30 END COLLECTION
M  V30 END CTAB
M  END
>  <NO.>
1396

>  <Name>
cormetasone

>  <SMILES>
CC1CC2C3CC(F)(F)C4=CC(=O)C=C[C@]4(C)C3(F)C(O)CC2(C)C1(O)C(=O)CO

>  <logBB>


>  <Class>
1

>  <MW>
428.18

>  <nHBAcc>
5

>  <nHBDon>
3

>  <SLogP>
2.14

>  <TopoPSA>
94.83

>  <MMFF94 Energy>
164.62

$$$$
CC1CC2C3CC(F)C4=CC(=O)C=CC4(C)C3(F)C(O)CC2(C)C1(O)C(=O)CCl
Actelion Java MolfileCreator 2.0

  0  0  0  0  0  0              0 V3000
M  V30 BEGIN CTAB
M  V30 COUNTS 56 59 0 0 0
M  V30 BEGIN ATOM
M  V30 1 Cl -1.4724 3.5203 -4.6684 0
M  V30 2 C -1.9382 3.017 -3.0308 0
M  V30 3 C -2.3964 1.5732 -3.0119 0
M  V30 4 O -2.7847 0.9784 -4.0256 0
M  V30 5 C -2.4259 0.8134 -1.6657 0
M  V30 6 O -3.6071 -0.0097 -1.7065 0
M  V30 7 C -1.1691 -0.0975 -1.4322 0
M  V30 8 C -2.5021 1.6692 -0.386 0
M  V30 9 C -1.355 -0.4896 0.0554 0
M  V30 10 C 0.1662 0.6715 -1.6261 0
M  V30 11 C -1.2018 -1.3553 -2.3276 0
M  V30 12 C -1.9507 0.7641 0.7333 0
M  V30 13 C -3.8906 2.2079 -0.0494 0
M  V30 14 C -0.1022 -1.1041 0.7289 0
M  V30 15 C 1.4051 0.0041 -1.0079 0
M  V30 16 C 1.2012 -0.284 0.5018 0
M  V30 17 C -0.3631 -1.3517 2.2264 0
M  V30 18 O 1.7426 -1.1627 -1.7446 0
M  V30 19 F 0.9967 0.9492 1.0886 0
M  V30 20 C 2.4509 -0.9257 1.2416 0
M  V30 21 C 0.8272 -1.9885 2.9285 0
M  V30 22 C 2.0655 -1.1583 2.7125 0
M  V30 23 C 3.6678 -0.0046 1.1396 0
M  V30 24 C 2.9027 -2.2825 0.6532 0
M  V30 25 F 0.5204 -2.0904 4.2533 0
M  V30 26 C 2.7349 -0.6313 3.754 0
M  V30 27 C 4.3293 0.5183 2.1805 0
M  V30 28 C 3.9147 0.2346 3.5671 0
M  V30 29 O 4.5263 0.6995 4.52 0
M  V30 30 H -1.0553 3.1565 -2.4087 0
M  V30 31 H -2.7486 3.6634 -2.6865 0
M  V30 32 H -3.7098 -0.3057 -2.6355 0
M  V30 33 H -1.8337 2.5339 -0.4567 0
M  V30 34 H -2.14 -1.26 0.1093 0
M  V30 35 H 0.0954 1.6692 -1.1805 0
M  V30 36 H 0.3381 0.822 -2.6996 0
M  V30 37 H -2.1517 -1.894 -2.248 0
M  V30 38 H -1.0569 -1.0922 -3.3805 0
M  V30 39 H -0.4317 -2.0807 -2.0561 0
M  V30 40 H -2.7338 0.4631 1.4396 0
M  V30 41 H -1.2109 1.3259 1.3101 0
M  V30 42 H -3.8454 2.8434 0.8415 0
M  V30 43 H -4.2861 2.8115 -0.872 0
M  V30 44 H -4.6044 1.4038 0.1571 0
M  V30 45 H 0.0416 -2.0886 0.2649 0
M  V30 46 H 2.2343 0.7097 -1.1289 0
M  V30 47 H -0.6101 -0.4155 2.7422 0
M  V30 48 H -1.2391 -1.9998 2.3537 0
M  V30 49 H 1.8906 -0.9051 -2.6728 0
M  V30 50 H 0.9861 -3.0093 2.5675 0
M  V30 51 H 4.0426 0.2212 0.1438 0
M  V30 52 H 3.4261 -2.1669 -0.302 0
M  V30 53 H 2.0679 -2.9701 0.4883 0
M  V30 54 H 3.6071 -2.7901 1.3256 0
M  V30 55 H 2.4369 -0.7961 4.7843 0
M  V30 56 H 5.196 1.157 2.0605 0
M  V30 END ATOM
M  V30 BEGIN BOND
M  V30 1 1 1 2
M  V30 2 1 2 3
M  V30 3 2 3 4
M  V30 4 1 3 5
M  V30 5 1 5 6
M  V30 6 1 5 7
M  V30 7 1 5 8
M  V30 8 1 7 9
M  V30 9 1 7 10
M  V30 10 1 7 11
M  V30 11 1 8 12
M  V30 12 1 8 13
M  V30 13 1 9 14
M  V30 14 1 10 15
M  V30 15 1 14 16
M  V30 16 1 14 17
M  V30 17 1 15 18
M  V30 18 1 16 19
M  V30 19 1 16 20
M  V30 20 1 17 21
M  V30 21 1 20 22
M  V30 22 1 20 23
M  V30 23 1 20 24
M  V30 24 1 21 25
M  V30 25 2 22 26
M  V30 26 2 23 27
M  V30 27 1 26 28
M  V30 28 2 28 29
M  V30 29 1 9 12
M  V30 30 1 15 16
M  V30 31 1 21 22
M  V30 32 1 27 28
M  V30 33 1 2 30
M  V30 34 1 2 31
M  V30 35 1 6 32
M  V30 36 1 8 33
M  V30 37 1 9 34
M  V30 38 1 10 35
M  V30 39 1 10 36
M  V30 40 1 11 37
M  V30 41 1 11 38
M  V30 42 1 11 39
M  V30 43 1 12 40
M  V30 44 1 12 41
M  V30 45 1 13 42
M  V30 46 1 13 43
M  V30 47 1 13 44
M  V30 48 1 14 45
M  V30 49 1 15 46
M  V30 50 1 17 47
M  V30 51 1 17 48
M  V30 52 1 18 49
M  V30 53 1 21 50
M  V30 54 1 23 51
M  V30 55 1 24 52
M  V30 56 1 24 53
M  V30 57 1 24 54
M  V30 58 1 26 55
M  V30 59 1 27 56
M  V30 END BOND
M  V30 END CTAB
M  END
>  <NO.>
1397

>  <Name>
ft-0778082

>  <SMILES>
CC1CC2C3CC(F)C4=CC(=O)C=CC4(C)C3(F)C(O)CC2(C)C1(O)C(=O)CCl

>  <logBB>


>  <Class>
1

>  <MW>
428.16

>  <nHBAcc>
4

>  <nHBDon>
2

>  <SLogP>
3.09

>  <TopoPSA>
74.6

>  <MMFF94 Energy>
156.46

$$$$
CC1CC2C3CC(F)C4=CC(=O)C=CC4(C)C3(F)C(O)CC2(C)C1(O)C(=O)SCF
Actelion Java MolfileCreator 2.0

  0  0  0  0  0  0              0 V3000
M  V30 BEGIN CTAB
M  V30 COUNTS 57 60 0 0 0
M  V30 BEGIN ATOM
M  V30 1 S -5.1842 1.2325 0.9859 0
M  V30 2 C -3.5618 1.7649 0.5306 0
M  V30 3 C -5.7018 2.7225 1.858 0
M  V30 4 O -3.0922 2.798 0.9944 0
M  V30 5 C -2.7833 0.7947 -0.4241 0
M  V30 6 F -6.9792 2.5539 2.2954 0
M  V30 7 O -3.6397 -0.1569 -1.0527 0
M  V30 8 C -1.6047 0.0478 0.3088 0
M  V30 9 C -2.0864 1.6823 -1.5064 0
M  V30 10 C -0.4386 1.0497 0.1978 0
M  V30 11 C -1.23 -1.276 -0.4092 0
M  V30 12 C -1.9391 -0.2748 1.7807 0
M  V30 13 C -0.576 1.6023 -1.2272 0
M  V30 14 C -2.4107 1.3326 -2.9576 0
M  V30 15 C 0.9442 0.4569 0.5662 0
M  V30 16 C 0.113 -1.8779 0.0343 0
M  V30 17 C 1.2977 -0.881 -0.1614 0
M  V30 18 C 2.0446 1.5134 0.3685 0
M  V30 19 O 0.2988 -3.0979 -0.6847 0
M  V30 20 F 1.3707 -0.5856 -1.5039 0
M  V30 21 C 2.7361 -1.4273 0.2533 0
M  V30 22 C 3.3905 1.007 0.8616 0
M  V30 23 C 3.7591 -0.2738 0.167 0
M  V30 24 C 3.1927 -2.5921 -0.6304 0
M  V30 25 C 2.7337 -1.9875 1.6955 0
M  V30 26 F 3.3091 0.8088 2.2062 0
M  V30 27 C 4.9084 -0.3379 -0.531 0
M  V30 28 C 4.3346 -2.6494 -1.3282 0
M  V30 29 C 5.2915 -1.5328 -1.3051 0
M  V30 30 O 6.3562 -1.5857 -1.9067 0
M  V30 31 H -5.073 2.9074 2.7329 0
M  V30 32 H -5.687 3.5925 1.1963 0
M  V30 33 H -4.2382 -0.519 -0.3731 0
M  V30 34 H -2.3808 2.7321 -1.3762 0
M  V30 35 H -0.6227 1.886 0.8877 0
M  V30 36 H -1.1973 -1.1379 -1.4973 0
M  V30 37 H -2.0223 -2.02 -0.2475 0
M  V30 38 H -2.8264 -0.9138 1.8478 0
M  V30 39 H -2.1263 0.6297 2.3681 0
M  V30 40 H -1.1234 -0.7962 2.2894 0
M  V30 41 H -0.1157 2.5932 -1.3122 0
M  V30 42 H -0.0896 0.9642 -1.9684 0
M  V30 43 H -2.128 0.3038 -3.2015 0
M  V30 44 H -1.8709 1.9971 -3.6409 0
M  V30 45 H -3.4811 1.4516 -3.1558 0
M  V30 46 H 0.8984 0.2417 1.6421 0
M  V30 47 H 0.0486 -2.1604 1.0891 0
M  V30 48 H 1.7802 2.4171 0.931 0
M  V30 49 H 2.1237 1.7949 -0.6884 0
M  V30 50 H -0.5424 -3.5865 -0.6946 0
M  V30 51 H 4.1456 1.7854 0.7062 0
M  V30 52 H 2.5517 -3.4684 -0.6777 0
M  V30 53 H 2.1565 -2.9171 1.7684 0
M  V30 54 H 2.3034 -1.2906 2.4201 0
M  V30 55 H 3.7516 -2.2185 2.0349 0
M  V30 56 H 5.6123 0.4851 -0.5874 0
M  V30 57 H 4.6078 -3.5105 -1.9253 0
M  V30 END ATOM
M  V30 BEGIN BOND
M  V30 1 1 1 2
M  V30 2 1 1 3
M  V30 3 2 2 4
M  V30 4 1 2 5
M  V30 5 1 3 6
M  V30 6 1 5 7
M  V30 7 1 5 8
M  V30 8 1 5 9
M  V30 9 1 8 10
M  V30 10 1 8 11
M  V30 11 1 8 12
M  V30 12 1 9 13
M  V30 13 1 9 14
M  V30 14 1 10 15
M  V30 15 1 11 16
M  V30 16 1 15 17
M  V30 17 1 15 18
M  V30 18 1 16 19
M  V30 19 1 17 20
M  V30 20 1 17 21
M  V30 21 1 18 22
M  V30 22 1 21 23
M  V30 23 1 21 24
M  V30 24 1 21 25
M  V30 25 1 22 26
M  V30 26 2 23 27
M  V30 27 2 24 28
M  V30 28 1 27 29
M  V30 29 2 29 30
M  V30 30 1 10 13
M  V30 31 1 16 17
M  V30 32 1 22 23
M  V30 33 1 28 29
M  V30 34 1 3 31
M  V30 35 1 3 32
M  V30 36 1 7 33
M  V30 37 1 9 34
M  V30 38 1 10 35
M  V30 39 1 11 36
M  V30 40 1 11 37
M  V30 41 1 12 38
M  V30 42 1 12 39
M  V30 43 1 12 40
M  V30 44 1 13 41
M  V30 45 1 13 42
M  V30 46 1 14 43
M  V30 47 1 14 44
M  V30 48 1 14 45
M  V30 49 1 15 46
M  V30 50 1 16 47
M  V30 51 1 18 48
M  V30 52 1 18 49
M  V30 53 1 19 50
M  V30 54 1 22 51
M  V30 55 1 24 52
M  V30 56 1 25 53
M  V30 57 1 25 54
M  V30 58 1 25 55
M  V30 59 1 27 56
M  V30 60 1 28 57
M  V30 END BOND
M  V30 END CTAB
M  END
>  <NO.>
1398

>  <Name>
90566-53-3

>  <SMILES>
CC1CC2C3CC(F)C4=CC(=O)C=CC4(C)C3(F)C(O)CC2(C)C1(O)C(=O)SCF

>  <logBB>


>  <Class>
1

>  <MW>
444.16

>  <nHBAcc>
5

>  <nHBDon>
2

>  <SLogP>
3.47

>  <TopoPSA>
74.6

>  <MMFF94 Energy>
134.59

$$$$
CC1CC2C3CCC4=CC(=O)C=CC4(C)[C@@]3(F)C(O)CC2(C)[C@@]1(O)C(=O)CCl
Actelion Java MolfileCreator 2.0

  0  0  0  0  0  0              0 V3000
M  V30 BEGIN CTAB
M  V30 COUNTS 56 59 0 0 0
M  V30 BEGIN ATOM
M  V30 1 Cl -1.8757 2.937 -5.5532 0
M  V30 2 C -1.4246 1.3373 -4.9316 0
M  V30 3 C -0.4424 1.4412 -3.7765 0
M  V30 4 O 0.1084 2.4971 -3.4574 0
M  V30 5 C -0.1756 0.1207 -2.9901 0 CFG=2
M  V30 6 O -0.619 -0.9949 -3.7602 0
M  V30 7 C -0.8693 0.1153 -1.5814 0
M  V30 8 C 1.3188 -0.0633 -2.6253 0
M  V30 9 C 0.1012 0.9709 -0.7358 0
M  V30 10 C -0.9743 -1.3195 -1.0045 0
M  V30 11 C -2.284 0.7271 -1.6126 0
M  V30 12 C 1.5114 0.6455 -1.2751 0
M  V30 13 C 2.3353 0.3572 -3.6828 0
M  V30 14 C -0.0967 0.8562 0.7933 0
M  V30 15 C -1.2432 -1.3847 0.504 0
M  V30 16 C -0.18 -0.6065 1.3274 0 CFG=1
M  V30 17 C 0.9669 1.6847 1.5362 0
M  V30 18 O -1.2728 -2.7746 0.8399 0
M  V30 19 F 1.0291 -1.2097 1.0536 0
M  V30 20 C -0.3709 -0.6498 2.9088 0
M  V30 21 C 0.7338 1.6884 3.0404 0
M  V30 22 C 0.6853 0.2725 3.5511 0
M  V30 23 C -0.252 -2.0639 3.4799 0
M  V30 24 C -1.776 -0.1556 3.3296 0
M  V30 25 C 1.5774 -0.1335 4.4729 0
M  V30 26 C 0.6388 -2.4651 4.3964 0
M  V30 27 C 1.6227 -1.5256 4.9602 0
M  V30 28 O 2.4388 -1.8821 5.8002 0
M  V30 29 H -2.3426 0.8464 -4.6018 0
M  V30 30 H -0.9661 0.7741 -5.7481 0
M  V30 31 H 0.1083 -1.2843 -4.3405 0
M  V30 32 H 1.5043 -1.1351 -2.4679 0
M  V30 33 H -0.0779 2.0291 -0.9775 0
M  V30 34 H -0.0614 -1.8934 -1.2042 0
M  V30 35 H -1.7631 -1.8777 -1.528 0
M  V30 36 H -2.9388 0.1628 -2.2853 0
M  V30 37 H -2.7523 0.7294 -0.6235 0
M  V30 38 H -2.2745 1.7692 -1.9485 0
M  V30 39 H 2.0881 1.5721 -1.3811 0
M  V30 40 H 2.0805 -0.0059 -0.6056 0
M  V30 41 H 2.355 1.4394 -3.8385 0
M  V30 42 H 3.3435 0.059 -3.3743 0
M  V30 43 H 2.124 -0.1241 -4.6428 0
M  V30 44 H -1.0657 1.3308 1.0008 0
M  V30 45 H -2.2429 -0.9921 0.7114 0
M  V30 46 H 0.9524 2.7195 1.1723 0
M  V30 47 H 1.9708 1.2924 1.3329 0
M  V30 48 H -0.3571 -3.1034 0.7487 0
M  V30 49 H -0.2002 2.2081 3.2821 0
M  V30 50 H 1.5353 2.2619 3.5222 0
M  V30 51 H -0.979 -2.8018 3.1479 0
M  V30 52 H -2.5638 -0.8417 2.997 0
M  V30 53 H -2.0183 0.8311 2.9244 0
M  V30 54 H -1.8599 -0.0812 4.4218 0
M  V30 55 H 2.3267 0.5253 4.8976 0
M  V30 56 H 0.6663 -3.4788 4.7772 0
M  V30 END ATOM
M  V30 BEGIN BOND
M  V30 1 1 1 2
M  V30 2 1 2 3
M  V30 3 2 3 4
M  V30 4 1 3 5
M  V30 5 1 5 6
M  V30 6 1 5 7
M  V30 7 1 5 8
M  V30 8 1 7 9
M  V30 9 1 7 10
M  V30 10 1 7 11
M  V30 11 1 8 12
M  V30 12 1 8 13
M  V30 13 1 9 14
M  V30 14 1 10 15
M  V30 15 1 14 16
M  V30 16 1 14 17
M  V30 17 1 15 18
M  V30 18 1 16 19
M  V30 19 1 16 20
M  V30 20 1 17 21
M  V30 21 1 20 22
M  V30 22 1 20 23
M  V30 23 1 20 24
M  V30 24 2 22 25
M  V30 25 2 23 26
M  V30 26 1 25 27
M  V30 27 2 27 28
M  V30 28 1 9 12
M  V30 29 1 15 16
M  V30 30 1 21 22
M  V30 31 1 26 27
M  V30 32 1 2 29
M  V30 33 1 2 30
M  V30 34 1 6 31
M  V30 35 1 8 32
M  V30 36 1 9 33
M  V30 37 1 10 34
M  V30 38 1 10 35
M  V30 39 1 11 36
M  V30 40 1 11 37
M  V30 41 1 11 38
M  V30 42 1 12 39
M  V30 43 1 12 40
M  V30 44 1 13 41
M  V30 45 1 13 42
M  V30 46 1 13 43
M  V30 47 1 14 44
M  V30 48 1 15 45
M  V30 49 1 17 46
M  V30 50 1 17 47
M  V30 51 1 18 48
M  V30 52 1 21 49
M  V30 53 1 21 50
M  V30 54 1 23 51
M  V30 55 1 24 52
M  V30 56 1 24 53
M  V30 57 1 24 54
M  V30 58 1 25 55
M  V30 59 1 26 56
M  V30 END BOND
M  V30 BEGIN COLLECTION
M  V30 MDLV30/STEABS ATOMS=(2 5 16)
M  V30 END COLLECTION
M  V30 END CTAB
M  END
>  <NO.>
1399

>  <Name>
clobetasol

>  <SMILES>
CC1CC2C3CCC4=CC(=O)C=CC4(C)[C@@]3(F)C(O)CC2(C)[C@@]1(O)C(=O)CCl

>  <logBB>


>  <Class>
1

>  <MW>
410.17

>  <nHBAcc>
4

>  <nHBDon>
2

>  <SLogP>
3.14

>  <TopoPSA>
74.6

>  <MMFF94 Energy>
162.54

$$$$
CC1CN(C)CC2Cc3c(ccc4ccccc34)OC12O
Actelion Java MolfileCreator 2.0

  0  0  0  0  0  0              0 V3000
M  V30 BEGIN CTAB
M  V30 COUNTS 42 45 0 0 0
M  V30 BEGIN ATOM
M  V30 1 O 0.5604 1.6819 -0.08 0
M  V30 2 C 1.1856 0.9207 0.8729 0
M  V30 3 C -0.6088 1.1103 -0.6786 0
M  V30 4 C 0.9266 -0.4414 1.0982 0
M  V30 5 C 2.1318 1.5989 1.634 0
M  V30 6 O -1.7194 1.2631 0.2104 0
M  V30 7 C -0.3728 -0.3565 -1.0403 0
M  V30 8 C -0.9173 1.9011 -1.968 0
M  V30 9 C 1.5966 -1.1183 2.1587 0
M  V30 10 C -0.0789 -1.156 0.2253 0
M  V30 11 C 2.8113 0.9394 2.6535 0
M  V30 12 C -1.5635 -0.934 -1.8065 0
M  V30 13 C -2.0827 1.2483 -2.7278 0
M  V30 14 C -1.2331 3.3767 -1.6935 0
M  V30 15 C 2.5503 -0.4078 2.9322 0
M  V30 16 C 1.3654 -2.4726 2.495 0
M  V30 17 N -1.7983 -0.163 -3.0355 0
M  V30 18 C 3.2322 -1.0517 3.9777 0
M  V30 19 C 2.0499 -3.0991 3.5398 0
M  V30 20 C -2.8996 -0.7471 -3.8028 0
M  V30 21 C 2.9847 -2.3889 4.2798 0
M  V30 22 H 2.3346 2.6488 1.4386 0
M  V30 23 H -1.383 1.0356 1.0931 0
M  V30 24 H 0.5215 -0.4162 -1.6803 0
M  V30 25 H -0.0233 1.8843 -2.6079 0
M  V30 26 H -0.9944 -1.3198 0.8071 0
M  V30 27 H 0.3104 -2.1351 -0.0771 0
M  V30 28 H 3.5433 1.4937 3.237 0
M  V30 29 H -1.3362 -1.9749 -2.0693 0
M  V30 30 H -2.4622 -0.9503 -1.1755 0
M  V30 31 H -2.2314 1.7956 -3.6676 0
M  V30 32 H -3.0147 1.3405 -2.1536 0
M  V30 33 H -1.3951 3.915 -2.6336 0
M  V30 34 H -2.1357 3.4922 -1.0845 0
M  V30 35 H -0.4053 3.8672 -1.1715 0
M  V30 36 H 0.6387 -3.0664 1.9467 0
M  V30 37 H 3.9666 -0.5106 4.571 0
M  V30 38 H 1.8495 -4.1418 3.7718 0
M  V30 39 H -3.0455 -0.2022 -4.742 0
M  V30 40 H -2.6712 -1.7836 -4.0744 0
M  V30 41 H -3.8439 -0.736 -3.2466 0
M  V30 42 H 3.5204 -2.872 5.0925 0
M  V30 END ATOM
M  V30 BEGIN BOND
M  V30 1 1 1 2
M  V30 2 1 1 3
M  V30 3 2 2 4
M  V30 4 1 2 5
M  V30 5 1 3 6
M  V30 6 1 3 7
M  V30 7 1 3 8
M  V30 8 1 4 9
M  V30 9 1 4 10
M  V30 10 2 5 11
M  V30 11 1 7 12
M  V30 12 1 8 13
M  V30 13 1 8 14
M  V30 14 1 9 15
M  V30 15 2 9 16
M  V30 16 1 12 17
M  V30 17 2 15 18
M  V30 18 1 16 19
M  V30 19 1 17 20
M  V30 20 1 18 21
M  V30 21 1 7 10
M  V30 22 1 11 15
M  V30 23 1 13 17
M  V30 24 2 19 21
M  V30 25 1 5 22
M  V30 26 1 6 23
M  V30 27 1 7 24
M  V30 28 1 8 25
M  V30 29 1 10 26
M  V30 30 1 10 27
M  V30 31 1 11 28
M  V30 32 1 12 29
M  V30 33 1 12 30
M  V30 34 1 13 31
M  V30 35 1 13 32
M  V30 36 1 14 33
M  V30 37 1 14 34
M  V30 38 1 14 35
M  V30 39 1 16 36
M  V30 40 1 18 37
M  V30 41 1 19 38
M  V30 42 1 20 39
M  V30 43 1 20 40
M  V30 44 1 20 41
M  V30 45 1 21 42
M  V30 END BOND
M  V30 END CTAB
M  END
>  <NO.>
1400

>  <Name>
naranol

>  <SMILES>
CC1CN(C)CC2Cc3c(ccc4ccccc34)OC12O

>  <logBB>


>  <Class>
1

>  <MW>
283.16

>  <nHBAcc>
3

>  <nHBDon>
1

>  <SLogP>
2.66

>  <TopoPSA>
32.7

>  <MMFF94 Energy>
22.334

$$$$
CC1CN(CCCn2c3ccccc3c3ccccc32)CC(C)N1
Actelion Java MolfileCreator 2.0

  0  0  0  0  0  0              0 V3000
M  V30 BEGIN CTAB
M  V30 COUNTS 51 54 0 0 0
M  V30 BEGIN ATOM
M  V30 1 N 1.7456 0.6345 -0.3172 0
M  V30 2 C 2.7346 0.456 -1.3999 0
M  V30 3 C 2.3768 0.3296 0.9857 0
M  V30 4 C 0.5442 -0.196 -0.5051 0
M  V30 5 C 4.0402 1.2621 -1.1522 0
M  V30 6 C 3.6794 1.1399 1.2218 0
M  V30 7 C -0.3642 0.3361 -1.6208 0
M  V30 8 N 4.6687 0.9347 0.1435 0
M  V30 9 C 5.0499 0.9953 -2.268 0
M  V30 10 C 4.3167 0.7477 2.5541 0
M  V30 11 C -1.5977 -0.5408 -1.8532 0
M  V30 12 N -2.5034 -0.6171 -0.7176 0
M  V30 13 C -2.5915 -1.6867 0.155 0
M  V30 14 C -3.4153 0.3669 -0.3823 0
M  V30 15 C -3.5786 -1.3665 1.09 0
M  V30 16 C -1.8885 -2.9034 0.2119 0
M  V30 17 C -4.0965 -0.078 0.7515 0
M  V30 18 C -3.6965 1.6103 -0.9747 0
M  V30 19 C -3.8713 -2.291 2.1159 0
M  V30 20 C -2.1978 -3.8013 1.2379 0
M  V30 21 C -5.0927 0.7482 1.3152 0
M  V30 22 C -4.6873 2.4097 -0.3972 0
M  V30 23 C -3.1756 -3.5017 2.1794 0
M  V30 24 C -5.378 1.9869 0.733 0
M  V30 25 H 2.3102 0.7958 -2.3508 0
M  V30 26 H 2.9806 -0.6086 -1.5139 0
M  V30 27 H 2.5963 -0.745 1.0546 0
M  V30 28 H 1.6722 0.5707 1.7918 0
M  V30 29 H -0.0342 -0.1855 0.4266 0
M  V30 30 H 0.8195 -1.2403 -0.6992 0
M  V30 31 H 3.8037 2.3345 -1.1644 0
M  V30 32 H 3.4315 2.2086 1.2704 0
M  V30 33 H -0.6703 1.3616 -1.3807 0
M  V30 34 H 0.1829 0.3826 -2.5685 0
M  V30 35 H 4.938 -0.0485 0.1351 0
M  V30 36 H 5.3334 -0.0621 -2.3108 0
M  V30 37 H 4.6305 1.2708 -3.2416 0
M  V30 38 H 5.9616 1.5849 -2.1209 0
M  V30 39 H 4.5931 -0.3123 2.5726 0
M  V30 40 H 3.6223 0.9286 3.3817 0
M  V30 41 H 5.2205 1.3369 2.7449 0
M  V30 42 H -1.2992 -1.5563 -2.1325 0
M  V30 43 H -2.1771 -0.1514 -2.6989 0
M  V30 44 H -1.1218 -3.1551 -0.5128 0
M  V30 45 H -3.1635 1.955 -1.8548 0
M  V30 46 H -4.6353 -2.064 2.8537 0
M  V30 47 H -1.6659 -4.7479 1.2991 0
M  V30 48 H -5.6367 0.4245 2.1975 0
M  V30 49 H -4.9189 3.3764 -0.8384 0
M  V30 50 H -3.404 -4.2117 2.9701 0
M  V30 51 H -6.1449 2.622 1.1691 0
M  V30 END ATOM
M  V30 BEGIN BOND
M  V30 1 1 1 2
M  V30 2 1 1 3
M  V30 3 1 1 4
M  V30 4 1 2 5
M  V30 5 1 3 6
M  V30 6 1 4 7
M  V30 7 1 5 8
M  V30 8 1 5 9
M  V30 9 1 6 10
M  V30 10 1 7 11
M  V30 11 1 11 12
M  V30 12 1 12 13
M  V30 13 1 12 14
M  V30 14 2 13 15
M  V30 15 1 13 16
M  V30 16 2 14 17
M  V30 17 1 14 18
M  V30 18 1 15 19
M  V30 19 2 16 20
M  V30 20 1 17 21
M  V30 21 2 18 22
M  V30 22 2 19 23
M  V30 23 2 21 24
M  V30 24 1 6 8
M  V30 25 1 15 17
M  V30 26 1 20 23
M  V30 27 1 22 24
M  V30 28 1 2 25
M  V30 29 1 2 26
M  V30 30 1 3 27
M  V30 31 1 3 28
M  V30 32 1 4 29
M  V30 33 1 4 30
M  V30 34 1 5 31
M  V30 35 1 6 32
M  V30 36 1 7 33
M  V30 37 1 7 34
M  V30 38 1 8 35
M  V30 39 1 9 36
M  V30 40 1 9 37
M  V30 41 1 9 38
M  V30 42 1 10 39
M  V30 43 1 10 40
M  V30 44 1 10 41
M  V30 45 1 11 42
M  V30 46 1 11 43
M  V30 47 1 16 44
M  V30 48 1 18 45
M  V30 49 1 19 46
M  V30 50 1 20 47
M  V30 51 1 21 48
M  V30 52 1 22 49
M  V30 53 1 23 50
M  V30 54 1 24 51
M  V30 END BOND
M  V30 END CTAB
M  END
>  <NO.>
1401

>  <Name>
9-[3-(3,5-dimethyl-1-piperazinyl)propyl]carbazole

>  <SMILES>
CC1CN(CCCn2c3ccccc3c3ccccc32)CC(C)N1

>  <logBB>


>  <Class>
1

>  <MW>
321.22

>  <nHBAcc>
2

>  <nHBDon>
1

>  <SLogP>
3.87

>  <TopoPSA>
20.2

>  <MMFF94 Energy>
96.504

$$$$
CC1COC2(c3ccccc3Cl)c3cc(Cl)ccc3NC(=O)CN12
Actelion Java MolfileCreator 2.0

  0  0  0  0  0  0              0 V3000
M  V30 BEGIN CTAB
M  V30 COUNTS 40 43 0 0 0
M  V30 BEGIN ATOM
M  V30 1 Cl -1.3171 0.0822 3.1304 0
M  V30 2 C -0.8344 -1.2687 2.1619 0
M  V30 3 C -0.5371 -1.214 0.7839 0
M  V30 4 C -0.8 -2.4908 2.8599 0
M  V30 5 C -0.2933 -2.4632 0.1487 0
M  V30 6 C -0.5321 0.0598 -0.1009 0
M  V30 7 C -0.5077 -3.6856 2.2104 0
M  V30 8 C -0.2666 -3.6733 0.8473 0
M  V30 9 O -1.8444 0.0234 -0.7258 0
M  V30 10 N -0.4493 1.335 0.6298 0
M  V30 11 C 0.5202 -0.0113 -1.2411 0
M  V30 12 C -2.5378 1.199 -0.2975 0
M  V30 13 C -1.4417 2.2028 0.0012 0
M  V30 14 C 0.8615 1.9599 0.7992 0
M  V30 15 C 1.8998 -0.074 -0.9525 0
M  V30 16 C 0.1315 -0.0873 -2.5963 0
M  V30 17 C -1.9332 3.3403 0.8832 0
M  V30 18 C 1.9238 0.9682 1.2745 0
M  V30 19 N 2.3834 0.0604 0.3522 0
M  V30 20 C 2.8423 -0.2691 -1.9679 0
M  V30 21 C 1.0794 -0.2535 -3.6066 0
M  V30 22 O 2.4117 0.9983 2.4034 0
M  V30 23 C 2.4313 -0.3546 -3.297 0
M  V30 24 Cl 0.5711 -0.3524 -5.247 0
M  V30 25 H -1.0183 -2.5142 3.926 0
M  V30 26 H -0.1283 -2.5109 -0.9265 0
M  V30 27 H -0.4915 -4.6198 2.7647 0
M  V30 28 H -0.0658 -4.6018 0.3189 0
M  V30 29 H -3.14 0.9447 0.5824 0
M  V30 30 H -3.2059 1.5332 -1.0966 0
M  V30 31 H -1.054 2.6054 -0.9441 0
M  V30 32 H 0.7965 2.7415 1.5654 0
M  V30 33 H 1.2158 2.4485 -0.1171 0
M  V30 34 H -0.9209 -0.0427 -2.8696 0
M  V30 35 H -2.2978 2.9746 1.8493 0
M  V30 36 H -2.7573 3.8729 0.3966 0
M  V30 37 H -1.1365 4.0656 1.0764 0
M  V30 38 H 3.165 -0.505 0.6606 0
M  V30 39 H 3.9032 -0.3283 -1.7365 0
M  V30 40 H 3.1686 -0.4919 -4.0835 0
M  V30 END ATOM
M  V30 BEGIN BOND
M  V30 1 1 1 2
M  V30 2 2 2 3
M  V30 3 1 2 4
M  V30 4 1 3 5
M  V30 5 1 3 6
M  V30 6 2 4 7
M  V30 7 2 5 8
M  V30 8 1 6 9
M  V30 9 1 6 10
M  V30 10 1 6 11
M  V30 11 1 9 12
M  V30 12 1 10 13
M  V30 13 1 10 14
M  V30 14 2 11 15
M  V30 15 1 11 16
M  V30 16 1 13 17
M  V30 17 1 14 18
M  V30 18 1 15 19
M  V30 19 1 15 20
M  V30 20 2 16 21
M  V30 21 2 18 22
M  V30 22 2 20 23
M  V30 23 1 21 24
M  V30 24 1 7 8
M  V30 25 1 12 13
M  V30 26 1 18 19
M  V30 27 1 21 23
M  V30 28 1 4 25
M  V30 29 1 5 26
M  V30 30 1 7 27
M  V30 31 1 8 28
M  V30 32 1 12 29
M  V30 33 1 12 30
M  V30 34 1 13 31
M  V30 35 1 14 32
M  V30 36 1 14 33
M  V30 37 1 16 34
M  V30 38 1 17 35
M  V30 39 1 17 36
M  V30 40 1 17 37
M  V30 41 1 19 38
M  V30 42 1 20 39
M  V30 43 1 23 40
M  V30 END BOND
M  V30 END CTAB
M  END
>  <NO.>
1402

>  <Name>
mexazolam

>  <SMILES>
CC1COC2(c3ccccc3Cl)c3cc(Cl)ccc3NC(=O)CN12

>  <logBB>


>  <Class>
1

>  <MW>
362.06

>  <nHBAcc>
3

>  <nHBDon>
1

>  <SLogP>
3.87

>  <TopoPSA>
41.57

>  <MMFF94 Energy>
67.548

$$$$
CC1NC(=O)COC1c1ccccc1
Actelion Java MolfileCreator 2.0

  0  0  0  0  0  0              0 V3000
M  V30 BEGIN CTAB
M  V30 COUNTS 27 28 0 0 0
M  V30 BEGIN ATOM
M  V30 1 O -2.5437 -1.9073 -1.6687 0
M  V30 2 C -1.4629 -1.594 -1.177 0
M  V30 3 N -0.51 -0.9667 -1.9369 0
M  V30 4 C -1.1175 -1.8174 0.3054 0
M  V30 5 C 0.8354 -0.7057 -1.4427 0
M  V30 6 O 0.2342 -1.6521 0.7238 0
M  V30 7 C 0.8633 -0.5156 0.1006 0
M  V30 8 C 1.7462 -1.8646 -1.8601 0
M  V30 9 C 0.3161 0.78 0.6854 0
M  V30 10 C 0.4539 0.9954 2.0695 0
M  V30 11 C -0.3164 1.7724 -0.0767 0
M  V30 12 C -0.0214 2.1625 2.6695 0
M  V30 13 C -0.7929 2.9409 0.525 0
M  V30 14 C -0.6446 3.1364 1.8957 0
M  V30 15 H -0.7483 -0.8158 -2.9094 0
M  V30 16 H -1.4052 -2.8439 0.5557 0
M  V30 17 H -1.7525 -1.148 0.8968 0
M  V30 18 H 1.1921 0.2002 -1.9456 0
M  V30 19 H 1.918 -0.5457 0.4065 0
M  V30 20 H 1.4174 -2.8159 -1.428 0
M  V30 21 H 1.7434 -1.9828 -2.9494 0
M  V30 22 H 2.7787 -1.683 -1.5445 0
M  V30 23 H 0.9309 0.2385 2.6907 0
M  V30 24 H -0.4629 1.6593 -1.1472 0
M  V30 25 H 0.0917 2.3074 3.7406 0
M  V30 26 H -1.2857 3.6989 -0.0789 0
M  V30 27 H -1.0186 4.0448 2.3604 0
M  V30 END ATOM
M  V30 BEGIN BOND
M  V30 1 2 1 2
M  V30 2 1 2 3
M  V30 3 1 2 4
M  V30 4 1 3 5
M  V30 5 1 4 6
M  V30 6 1 5 7
M  V30 7 1 5 8
M  V30 8 1 7 9
M  V30 9 2 9 10
M  V30 10 1 9 11
M  V30 11 1 10 12
M  V30 12 2 11 13
M  V30 13 2 12 14
M  V30 14 1 6 7
M  V30 15 1 13 14
M  V30 16 1 3 15
M  V30 17 1 4 16
M  V30 18 1 4 17
M  V30 19 1 5 18
M  V30 20 1 7 19
M  V30 21 1 8 20
M  V30 22 1 8 21
M  V30 23 1 8 22
M  V30 24 1 10 23
M  V30 25 1 11 24
M  V30 26 1 12 25
M  V30 27 1 13 26
M  V30 28 1 14 27
M  V30 END BOND
M  V30 END CTAB
M  END
>  <NO.>
1404

>  <Name>
fenmetramide

>  <SMILES>
CC1NC(=O)COC1c1ccccc1

>  <logBB>


>  <Class>
1

>  <MW>
191.09

>  <nHBAcc>
2

>  <nHBDon>
1

>  <SLogP>
1.26

>  <TopoPSA>
38.33

>  <MMFF94 Energy>
82.32

$$$$
CC1NCCOC1c1ccccc1
Actelion Java MolfileCreator 2.0

  0  0  0  0  0  0              0 V3000
M  V30 BEGIN CTAB
M  V30 COUNTS 28 29 0 0 0
M  V30 BEGIN ATOM
M  V30 1 O 1.6614 0.1581 0.7908 0
M  V30 2 C 0.2649 0.4241 0.5351 0
M  V30 3 C 2.4133 1.3761 0.7925 0
M  V30 4 C -0.4616 -0.9079 0.5783 0
M  V30 5 C 0.0909 1.1659 -0.8307 0
M  V30 6 C 2.3025 2.0901 -0.5593 0
M  V30 7 C -1.6302 -1.0516 1.3427 0
M  V30 8 C 0.0028 -2.0122 -0.1535 0
M  V30 9 N 0.9053 2.4068 -0.8912 0
M  V30 10 C -1.3649 1.5534 -1.097 0
M  V30 11 C -2.3178 -2.2667 1.3693 0
M  V30 12 C -0.6851 -3.2264 -0.1252 0
M  V30 13 C -1.846 -3.3526 0.6346 0
M  V30 14 H -0.1021 1.059 1.3536 0
M  V30 15 H 3.4588 1.1177 0.9889 0
M  V30 16 H 2.0696 2.0165 1.6138 0
M  V30 17 H 0.4292 0.5109 -1.645 0
M  V30 18 H 2.8836 3.0176 -0.5339 0
M  V30 19 H 2.7222 1.4541 -1.348 0
M  V30 20 H -2.0139 -0.2157 1.9236 0
M  V30 21 H 0.9154 -1.9301 -0.7404 0
M  V30 22 H 0.8616 2.7913 -1.8347 0
M  V30 23 H -2.0033 0.6682 -1.1796 0
M  V30 24 H -1.459 2.1037 -2.0404 0
M  V30 25 H -1.7628 2.1868 -0.2961 0
M  V30 26 H -3.2208 -2.3662 1.966 0
M  V30 27 H -0.3106 -4.0746 -0.6918 0
M  V30 28 H -2.3797 -4.2989 0.6588 0
M  V30 END ATOM
M  V30 BEGIN BOND
M  V30 1 1 1 2
M  V30 2 1 1 3
M  V30 3 1 2 4
M  V30 4 1 2 5
M  V30 5 1 3 6
M  V30 6 2 4 7
M  V30 7 1 4 8
M  V30 8 1 5 9
M  V30 9 1 5 10
M  V30 10 1 7 11
M  V30 11 2 8 12
M  V30 12 2 11 13
M  V30 13 1 6 9
M  V30 14 1 12 13
M  V30 15 1 2 14
M  V30 16 1 3 15
M  V30 17 1 3 16
M  V30 18 1 5 17
M  V30 19 1 6 18
M  V30 20 1 6 19
M  V30 21 1 7 20
M  V30 22 1 8 21
M  V30 23 1 9 22
M  V30 24 1 10 23
M  V30 25 1 10 24
M  V30 26 1 10 25
M  V30 27 1 11 26
M  V30 28 1 12 27
M  V30 29 1 13 28
M  V30 END BOND
M  V30 END CTAB
M  END
>  <NO.>
1405

>  <Name>
phenmetrazine

>  <SMILES>
CC1NCCOC1c1ccccc1

>  <logBB>


>  <Class>
1

>  <MW>
177.12

>  <nHBAcc>
2

>  <nHBDon>
1

>  <SLogP>
1.74

>  <TopoPSA>
21.26

>  <MMFF94 Energy>
92.186

$$$$
CC1OC(C)OC(C)O1
Actelion Java MolfileCreator 2.0

  0  0  0  0  0  0              0 V3000
M  V30 BEGIN CTAB
M  V30 COUNTS 21 21 0 0 0
M  V30 BEGIN ATOM
M  V30 1 O 1.0928 0.156 -0.7805 0
M  V30 2 C -0.1543 -0.2225 -1.3402 0
M  V30 3 C 1.1988 -0.3667 0.5338 0
M  V30 4 O -1.2344 0.2314 -0.5407 0
M  V30 5 C -0.2745 0.4232 -2.7096 0
M  V30 6 O 0.133 0.0857 1.3534 0
M  V30 7 C 2.5024 0.1272 1.1365 0
M  V30 8 C -1.1039 -0.2921 0.7711 0
M  V30 9 C -2.2232 0.2803 1.6233 0
M  V30 10 H -0.2016 -1.3135 -1.4562 0
M  V30 11 H 1.2141 -1.4643 0.5046 0
M  V30 12 H -0.2306 1.5152 -2.6266 0
M  V30 13 H -1.2293 0.1689 -3.1804 0
M  V30 14 H 0.546 0.1114 -3.3633 0
M  V30 15 H 2.6261 -0.242 2.1594 0
M  V30 16 H 2.5173 1.2223 1.1793 0
M  V30 17 H 3.3582 -0.1883 0.5316 0
M  V30 18 H -1.1952 -1.3863 0.7528 0
M  V30 19 H -3.2027 0.0242 1.2075 0
M  V30 20 H -2.159 1.3738 1.6611 0
M  V30 21 H -2.1595 -0.0869 2.6524 0
M  V30 END ATOM
M  V30 BEGIN BOND
M  V30 1 1 1 2
M  V30 2 1 1 3
M  V30 3 1 2 4
M  V30 4 1 2 5
M  V30 5 1 3 6
M  V30 6 1 3 7
M  V30 7 1 4 8
M  V30 8 1 8 9
M  V30 9 1 6 8
M  V30 10 1 2 10
M  V30 11 1 3 11
M  V30 12 1 5 12
M  V30 13 1 5 13
M  V30 14 1 5 14
M  V30 15 1 7 15
M  V30 16 1 7 16
M  V30 17 1 7 17
M  V30 18 1 8 18
M  V30 19 1 9 19
M  V30 20 1 9 20
M  V30 21 1 9 21
M  V30 END BOND
M  V30 END CTAB
M  END
>  <NO.>
1406

>  <Name>
paraldehyde

>  <SMILES>
CC1OC(C)OC(C)O1

>  <logBB>


>  <Class>
1

>  <MW>
132.08

>  <nHBAcc>
3

>  <nHBDon>
0

>  <SLogP>
1.09

>  <TopoPSA>
27.69

>  <MMFF94 Energy>
-71.849

$$$$
CC1OC(O[C@@H]2C=C3CC[C@@H]4[C@H](CC[C@]5(C)[C@@H](c6ccc(=O)oc6)CC[C@]45O)[C@@]3(C)CC2)C(O)C(O)C1O
Actelion Java MolfileCreator 2.0

  0  0  0  0  0  0              0 V3000
M  V30 BEGIN CTAB
M  V30 COUNTS 80 85 0 0 0
M  V30 BEGIN ATOM
M  V30 1 O 4.7585 5.8902 7.3467 0
M  V30 2 C 4.0961 5.0364 6.7673 0
M  V30 3 O 2.9679 5.3335 6.0547 0
M  V30 4 C 4.5021 3.6205 6.8187 0
M  V30 5 C 2.2573 4.3095 5.4083 0
M  V30 6 C 3.7965 2.677 6.1864 0
M  V30 7 C 2.6114 3.0168 5.4275 0
M  V30 8 C 1.8586 1.8759 4.7522 0 CFG=2
M  V30 9 C 2.2075 1.5791 3.2481 0 CFG=2
M  V30 10 C 0.3189 2.0429 4.7701 0
M  V30 11 C 1.0996 2.3349 2.4638 0 CFG=1
M  V30 12 C 2.0762 0.0481 3.0082 0
M  V30 13 C 3.6331 2.0158 2.8529 0
M  V30 14 C -0.1578 2.1068 3.316 0
M  V30 15 O 1.345 3.747 2.4893 0
M  V30 16 C 0.9638 1.8981 0.9793 0 CFG=1
M  V30 17 C 2.0282 -0.3384 1.5314 0
M  V30 18 C 0.8724 0.3591 0.7903 0 CFG=2
M  V30 19 C -0.227 2.5938 0.2901 0
M  V30 20 C 0.747 -0.0746 -0.7219 0 CFG=2
M  V30 21 C -0.3047 2.2416 -1.1896 0
M  V30 22 C -0.3567 0.7481 -1.3945 0
M  V30 23 C 0.3971 -1.5947 -0.7764 0
M  V30 24 C 2.0613 0.1533 -1.5055 0
M  V30 25 C -1.3343 0.1946 -2.1381 0
M  V30 26 C -0.1743 -2.0313 -2.1222 0
M  V30 27 C -1.4585 -1.2674 -2.4535 0 CFG=2
M  V30 28 O -1.7424 -1.3523 -3.8511 0
M  V30 29 C -2.3214 -2.6025 -4.2432 0
M  V30 30 O -3.6033 -2.7813 -3.647 0
M  V30 31 C -2.4519 -2.5502 -5.7782 0
M  V30 32 C -4.1929 -4.0355 -4.0157 0
M  V30 33 O -1.1568 -2.4342 -6.3928 0
M  V30 34 C -3.1351 -3.8112 -6.2998 0
M  V30 35 C -4.4318 -4.1004 -5.5358 0
M  V30 36 C -5.5001 -4.1722 -3.2416 0
M  V30 37 O -2.2486 -4.9404 -6.1513 0
M  V30 38 O -4.9201 -5.3901 -5.9148 0
M  V30 39 H 5.3924 3.396 7.3911 0
M  V30 40 H 1.4035 4.7292 4.892 0
M  V30 41 H 4.1132 1.6396 6.2357 0
M  V30 42 H 2.0715 0.9755 5.3478 0
M  V30 43 H -0.1454 1.1796 5.2633 0
M  V30 44 H -0.0197 2.9215 5.3285 0
M  V30 45 H 1.1725 -0.3442 3.4922 0
M  V30 46 H 2.9153 -0.4739 3.4861 0
M  V30 47 H 4.3848 1.4566 3.421 0
M  V30 48 H 3.8116 3.081 3.0294 0
M  V30 49 H 3.8313 1.8428 1.7908 0
M  V30 50 H -0.6619 1.1671 3.0696 0
M  V30 51 H -0.8901 2.9138 3.1989 0
M  V30 52 H 2.0895 3.9436 1.8954 0
M  V30 53 H 1.8676 2.2514 0.4645 0
M  V30 54 H 2.9883 -0.1033 1.0617 0
M  V30 55 H 1.9132 -1.4261 1.4749 0
M  V30 56 H -0.0572 0.0334 1.2798 0
M  V30 57 H -0.1396 3.6823 0.3863 0
M  V30 58 H -1.1679 2.3066 0.7761 0
M  V30 59 H 0.5668 2.6495 -1.7153 0
M  V30 60 H -1.1834 2.7341 -1.6239 0
M  V30 61 H -0.3393 -1.839 0.0013 0
M  V30 62 H 1.2847 -2.2018 -0.5612 0
M  V30 63 H 2.8522 -0.5272 -1.173 0
M  V30 64 H 1.9239 -0.0185 -2.5795 0
M  V30 65 H 2.441 1.1737 -1.3952 0
M  V30 66 H -2.1077 0.8264 -2.5706 0
M  V30 67 H -0.3836 -3.1071 -2.0903 0
M  V30 68 H 0.5675 -1.9006 -2.9197 0
M  V30 69 H -2.2998 -1.6577 -1.8677 0
M  V30 70 H -1.6436 -3.4128 -3.949 0
M  V30 71 H -3.0381 -1.6701 -6.0702 0
M  V30 72 H -3.5327 -4.8518 -3.6942 0
M  V30 73 H -0.7398 -1.6641 -5.9544 0
M  V30 74 H -3.3322 -3.7336 -7.3749 0
M  V30 75 H -5.1817 -3.3526 -5.8203 0
M  V30 76 H -6.192 -3.3615 -3.4956 0
M  V30 77 H -5.9904 -5.129 -3.443 0
M  V30 78 H -5.3132 -4.098 -2.1646 0
M  V30 79 H -1.4047 -4.6416 -6.5524 0
M  V30 80 H -4.1221 -5.9489 -6.0198 0
M  V30 END ATOM
M  V30 BEGIN BOND
M  V30 1 2 1 2
M  V30 2 1 2 3
M  V30 3 1 2 4
M  V30 4 1 3 5
M  V30 5 2 4 6
M  V30 6 2 5 7
M  V30 7 1 7 8
M  V30 8 1 8 9
M  V30 9 1 8 10
M  V30 10 1 9 11
M  V30 11 1 9 12
M  V30 12 1 9 13
M  V30 13 1 10 14
M  V30 14 1 11 15
M  V30 15 1 11 16
M  V30 16 1 12 17
M  V30 17 1 16 18
M  V30 18 1 16 19
M  V30 19 1 18 20
M  V30 20 1 19 21
M  V30 21 1 20 22
M  V30 22 1 20 23
M  V30 23 1 20 24
M  V30 24 2 22 25
M  V30 25 1 23 26
M  V30 26 1 25 27
M  V30 27 1 27 28
M  V30 28 1 28 29
M  V30 29 1 29 30
M  V30 30 1 29 31
M  V30 31 1 30 32
M  V30 32 1 31 33
M  V30 33 1 31 34
M  V30 34 1 32 35
M  V30 35 1 32 36
M  V30 36 1 34 37
M  V30 37 1 35 38
M  V30 38 1 6 7
M  V30 39 1 11 14
M  V30 40 1 17 18
M  V30 41 1 21 22
M  V30 42 1 26 27
M  V30 43 1 34 35
M  V30 44 1 4 39
M  V30 45 1 5 40
M  V30 46 1 6 41
M  V30 47 1 8 42
M  V30 48 1 10 43
M  V30 49 1 10 44
M  V30 50 1 12 45
M  V30 51 1 12 46
M  V30 52 1 13 47
M  V30 53 1 13 48
M  V30 54 1 13 49
M  V30 55 1 14 50
M  V30 56 1 14 51
M  V30 57 1 15 52
M  V30 58 1 16 53
M  V30 59 1 17 54
M  V30 60 1 17 55
M  V30 61 1 18 56
M  V30 62 1 19 57
M  V30 63 1 19 58
M  V30 64 1 21 59
M  V30 65 1 21 60
M  V30 66 1 23 61
M  V30 67 1 23 62
M  V30 68 1 24 63
M  V30 69 1 24 64
M  V30 70 1 24 65
M  V30 71 1 25 66
M  V30 72 1 26 67
M  V30 73 1 26 68
M  V30 74 1 27 69
M  V30 75 1 29 70
M  V30 76 1 31 71
M  V30 77 1 32 72
M  V30 78 1 33 73
M  V30 79 1 34 74
M  V30 80 1 35 75
M  V30 81 1 36 76
M  V30 82 1 36 77
M  V30 83 1 36 78
M  V30 84 1 37 79
M  V30 85 1 38 80
M  V30 END BOND
M  V30 BEGIN COLLECTION
M  V30 MDLV30/STEABS ATOMS=(7 8 9 11 16 18 20 27)
M  V30 END COLLECTION
M  V30 END CTAB
M  END
>  <NO.>
1408

>  <Name>
proscillaridin a

>  <SMILES>
CC1OC(O[C@@H]2C=C3CC[C@@H]4[C@H](CC[C@]5(C)[C@@H](c6ccc(=O)oc6)CC[C@]45O)[C@@]3(C)CC2)C(O)C(O)C1O

>  <logBB>


>  <Class>
-1

>  <MW>
530.29

>  <nHBAcc>
8

>  <nHBDon>
4

>  <SLogP>
3.01

>  <TopoPSA>
129.59

>  <MMFF94 Energy>
173.32

$$$$
CC1OC2(CCCCC2Oc2cccc(Cl)c2)NC1=O
Actelion Java MolfileCreator 2.0

  0  0  0  0  0  0              0 V3000
M  V30 BEGIN CTAB
M  V30 COUNTS 38 40 0 0 0
M  V30 BEGIN ATOM
M  V30 1 Cl 4.5261 1.7762 -2.6653 0
M  V30 2 C 3.4782 0.412 -2.5822 0
M  V30 3 C 2.3069 0.4874 -1.8237 0
M  V30 4 C 3.8081 -0.7502 -3.2758 0
M  V30 5 C 1.4558 -0.6142 -1.7543 0
M  V30 6 C 2.956 -1.8497 -3.2154 0
M  V30 7 O 0.2797 -0.6901 -1.0642 0
M  V30 8 C 1.7846 -1.7773 -2.4593 0
M  V30 9 C -0.0719 0.366 -0.151 0
M  V30 10 C -0.9174 -0.2533 0.9966 0
M  V30 11 C -0.8827 1.4413 -0.8924 0
M  V30 12 O -1.162 0.7548 1.9972 0
M  V30 13 N -0.2012 -1.272 1.6966 0
M  V30 14 C -2.2653 -0.7862 0.4808 0
M  V30 15 C -2.2215 0.9047 -1.4002 0
M  V30 16 C -1.1203 0.117 3.2914 0
M  V30 17 C -0.283 -1.1161 3.053 0
M  V30 18 C -3.0478 0.2851 -0.2781 0
M  V30 19 C -0.5047 1.0569 4.3038 0
M  V30 20 O 0.2133 -1.8559 3.8829 0
M  V30 21 H 2.0847 1.4173 -1.3131 0
M  V30 22 H 4.7201 -0.8029 -3.8641 0
M  V30 23 H 3.2001 -2.7608 -3.7555 0
M  V30 24 H 1.1208 -2.6383 -2.4185 0
M  V30 25 H 0.8197 0.8161 0.3032 0
M  V30 26 H -1.0625 2.2927 -0.2249 0
M  V30 27 H -0.3194 1.821 -1.7518 0
M  V30 28 H 0.2918 -2.0386 1.2591 0
M  V30 29 H -2.1022 -1.6511 -0.1746 0
M  V30 30 H -2.8856 -1.1379 1.3147 0
M  V30 31 H -2.0466 0.1553 -2.1816 0
M  V30 32 H -2.7888 1.719 -1.8655 0
M  V30 33 H -2.1362 -0.1765 3.5746 0
M  V30 34 H -3.365 1.0715 0.4178 0
M  V30 35 H -3.9614 -0.1543 -0.6944 0
M  V30 36 H -0.4479 0.5931 5.2933 0
M  V30 37 H -1.0905 1.9789 4.3779 0
M  V30 38 H 0.5087 1.3469 4.0047 0
M  V30 END ATOM
M  V30 BEGIN BOND
M  V30 1 1 1 2
M  V30 2 2 2 3
M  V30 3 1 2 4
M  V30 4 1 3 5
M  V30 5 2 4 6
M  V30 6 1 5 7
M  V30 7 2 5 8
M  V30 8 1 7 9
M  V30 9 1 9 10
M  V30 10 1 9 11
M  V30 11 1 10 12
M  V30 12 1 10 13
M  V30 13 1 10 14
M  V30 14 1 11 15
M  V30 15 1 12 16
M  V30 16 1 13 17
M  V30 17 1 14 18
M  V30 18 1 16 19
M  V30 19 2 17 20
M  V30 20 1 6 8
M  V30 21 1 15 18
M  V30 22 1 16 17
M  V30 23 1 3 21
M  V30 24 1 4 22
M  V30 25 1 6 23
M  V30 26 1 8 24
M  V30 27 1 9 25
M  V30 28 1 11 26
M  V30 29 1 11 27
M  V30 30 1 13 28
M  V30 31 1 14 29
M  V30 32 1 14 30
M  V30 33 1 15 31
M  V30 34 1 15 32
M  V30 35 1 16 33
M  V30 36 1 18 34
M  V30 37 1 18 35
M  V30 38 1 19 36
M  V30 39 1 19 37
M  V30 40 1 19 38
M  V30 END BOND
M  V30 END CTAB
M  END
>  <NO.>
1409

>  <Name>
enilospirone

>  <SMILES>
CC1OC2(CCCCC2Oc2cccc(Cl)c2)NC1=O

>  <logBB>


>  <Class>
1

>  <MW>
295.1

>  <nHBAcc>
3

>  <nHBDon>
1

>  <SLogP>
2.89

>  <TopoPSA>
47.56

>  <MMFF94 Energy>
37.968

$$$$
CC1Oc2ccccc2CC1N(C)C
Actelion Java MolfileCreator 2.0

  0  0  0  0  0  0              0 V3000
M  V30 BEGIN CTAB
M  V30 COUNTS 31 32 0 0 0
M  V30 BEGIN ATOM
M  V30 1 O 1.497 0.8664 -0.9452 0
M  V30 2 C 0.3559 1.5753 -1.1959 0
M  V30 3 C 1.2991 -0.4631 -0.4264 0
M  V30 4 C -0.8968 1.2363 -0.6802 0
M  V30 5 C 0.5069 2.7148 -1.9865 0
M  V30 6 C 0.2782 -0.4717 0.7444 0
M  V30 7 C 2.6837 -0.9482 0.0028 0
M  V30 8 C -2.0062 2.0319 -1.0022 0
M  V30 9 C -1.0724 0.0197 0.1844 0
M  V30 10 C -0.5978 3.5082 -2.2935 0
M  V30 11 N 0.2189 -1.7528 1.4932 0
M  V30 12 C -1.8558 3.164 -1.8044 0
M  V30 13 C -0.4939 -1.617 2.7632 0
M  V30 14 C -0.3062 -2.883 0.7308 0
M  V30 15 H 0.9534 -1.0956 -1.2546 0
M  V30 16 H 1.489 2.9805 -2.3682 0
M  V30 17 H 0.6325 0.2975 1.4482 0
M  V30 18 H 3.3936 -0.8532 -0.8263 0
M  V30 19 H 3.0752 -0.3345 0.8217 0
M  V30 20 H 2.6718 -1.9941 0.3218 0
M  V30 21 H -2.9933 1.7761 -0.6238 0
M  V30 22 H -1.7527 0.257 1.0108 0
M  V30 23 H -1.5465 -0.751 -0.4338 0
M  V30 24 H -0.4759 4.3918 -2.914 0
M  V30 25 H -2.7193 3.7787 -2.045 0
M  V30 26 H -0.3925 -2.5326 3.3569 0
M  V30 27 H -0.0661 -0.8087 3.3664 0
M  V30 28 H -1.5624 -1.4196 2.6258 0
M  V30 29 H -1.3724 -2.7805 0.5031 0
M  V30 30 H -0.1764 -3.8115 1.2989 0
M  V30 31 H 0.2382 -3.0239 -0.2076 0
M  V30 END ATOM
M  V30 BEGIN BOND
M  V30 1 1 1 2
M  V30 2 1 1 3
M  V30 3 2 2 4
M  V30 4 1 2 5
M  V30 5 1 3 6
M  V30 6 1 3 7
M  V30 7 1 4 8
M  V30 8 1 4 9
M  V30 9 2 5 10
M  V30 10 1 6 11
M  V30 11 2 8 12
M  V30 12 1 11 13
M  V30 13 1 11 14
M  V30 14 1 6 9
M  V30 15 1 10 12
M  V30 16 1 3 15
M  V30 17 1 5 16
M  V30 18 1 6 17
M  V30 19 1 7 18
M  V30 20 1 7 19
M  V30 21 1 7 20
M  V30 22 1 8 21
M  V30 23 1 9 22
M  V30 24 1 9 23
M  V30 25 1 10 24
M  V30 26 1 12 25
M  V30 27 1 13 26
M  V30 28 1 13 27
M  V30 29 1 13 28
M  V30 30 1 14 29
M  V30 31 1 14 30
M  V30 32 1 14 31
M  V30 END BOND
M  V30 END CTAB
M  END
>  <NO.>
1410

>  <Name>
trebenzomine

>  <SMILES>
CC1Oc2ccccc2CC1N(C)C

>  <logBB>


>  <Class>
1

>  <MW>
191.13

>  <nHBAcc>
2

>  <nHBDon>
0

>  <SLogP>
1.94

>  <TopoPSA>
12.47

>  <MMFF94 Energy>
54.829

$$$$
CC1[C@H]2C(=O)c3ccc(O)cc3[C@]1(C)CCN2CC1CC1
Actelion Java MolfileCreator 2.0

  0  0  0  0  0  0              0 V3000
M  V30 BEGIN CTAB
M  V30 COUNTS 44 47 0 0 0
M  V30 BEGIN ATOM
M  V30 1 O -0.4007 -2.2459 -1.8446 0
M  V30 2 C 0.1919 -1.3313 -1.2737 0
M  V30 3 C 1.2452 -1.639 -0.2653 0
M  V30 4 C -0.1471 0.1392 -1.5198 0 CFG=1
M  V30 5 C 1.877 -0.6045 0.4596 0
M  V30 6 C 1.5597 -2.9869 -0.0283 0
M  V30 7 N -1.2791 0.6115 -0.6832 0
M  V30 8 C 1.1092 0.9996 -1.3039 0
M  V30 9 C 2.8042 -0.981 1.4483 0
M  V30 10 C 1.5214 0.8735 0.1922 0 CFG=1
M  V30 11 C 2.4986 -3.3309 0.9409 0
M  V30 12 C -0.9813 0.5668 0.7538 0
M  V30 13 C -2.5236 -0.0979 -1.0158 0
M  V30 14 C 0.8726 2.4326 -1.808 0
M  V30 15 C 3.1077 -2.3233 1.6744 0
M  V30 16 C 0.3331 1.2787 1.1 0
M  V30 17 C 2.7122 1.8133 0.4917 0
M  V30 18 C -3.7112 0.6885 -0.5391 0
M  V30 19 O 4.0218 -2.6073 2.6455 0
M  V30 20 C -5.0827 0.0602 -0.5776 0
M  V30 21 C -4.4237 0.3347 0.7438 0
M  V30 22 H -0.418 0.223 -2.5814 0
M  V30 23 H 1.0635 -3.7734 -0.5945 0
M  V30 24 H 1.9202 0.5894 -1.9255 0
M  V30 25 H 3.3068 -0.2446 2.0687 0
M  V30 26 H 2.7283 -4.3775 1.1128 0
M  V30 27 H -1.7744 1.0715 1.3173 0
M  V30 28 H -0.9543 -0.4658 1.1226 0
M  V30 29 H -2.6234 -0.1818 -2.1052 0
M  V30 30 H -2.5332 -1.1169 -0.6095 0
M  V30 31 H 1.8068 3.0019 -1.8315 0
M  V30 32 H 0.1538 2.9819 -1.1934 0
M  V30 33 H 0.4889 2.4185 -2.8343 0
M  V30 34 H 0.1669 2.3617 1.0265 0
M  V30 35 H 0.5716 1.0825 2.1538 0
M  V30 36 H 2.4708 2.8595 0.2769 0
M  V30 37 H 3.5922 1.5409 -0.1019 0
M  V30 38 H 2.9979 1.7937 1.5488 0
M  V30 39 H -3.6492 1.7336 -0.8239 0
M  V30 40 H 4.1378 -3.5707 2.6944 0
M  V30 41 H -5.1722 -0.9725 -0.895 0
M  V30 42 H -5.9177 0.687 -0.8695 0
M  V30 43 H -4.0689 -0.5126 1.3188 0
M  V30 44 H -4.8085 1.1497 1.3461 0
M  V30 END ATOM
M  V30 BEGIN BOND
M  V30 1 2 1 2
M  V30 2 1 2 3
M  V30 3 1 2 4
M  V30 4 2 3 5
M  V30 5 1 3 6
M  V30 6 1 4 7
M  V30 7 1 4 8
M  V30 8 1 5 9
M  V30 9 1 5 10
M  V30 10 2 6 11
M  V30 11 1 7 12
M  V30 12 1 7 13
M  V30 13 1 8 14
M  V30 14 2 9 15
M  V30 15 1 10 16
M  V30 16 1 10 17
M  V30 17 1 13 18
M  V30 18 1 15 19
M  V30 19 1 18 20
M  V30 20 1 18 21
M  V30 21 1 8 10
M  V30 22 1 11 15
M  V30 23 1 12 16
M  V30 24 1 20 21
M  V30 25 1 4 22
M  V30 26 1 6 23
M  V30 27 1 8 24
M  V30 28 1 9 25
M  V30 29 1 11 26
M  V30 30 1 12 27
M  V30 31 1 12 28
M  V30 32 1 13 29
M  V30 33 1 13 30
M  V30 34 1 14 31
M  V30 35 1 14 32
M  V30 36 1 14 33
M  V30 37 1 16 34
M  V30 38 1 16 35
M  V30 39 1 17 36
M  V30 40 1 17 37
M  V30 41 1 17 38
M  V30 42 1 18 39
M  V30 43 1 19 40
M  V30 44 1 20 41
M  V30 45 1 20 42
M  V30 46 1 21 43
M  V30 47 1 21 44
M  V30 END BOND
M  V30 BEGIN COLLECTION
M  V30 MDLV30/STEABS ATOMS=(2 4 10)
M  V30 END COLLECTION
M  V30 END CTAB
M  END
>  <NO.>
1411

>  <Name>
ketazocine

>  <SMILES>
CC1[C@H]2C(=O)c3ccc(O)cc3[C@]1(C)CCN2CC1CC1

>  <logBB>


>  <Class>
1

>  <MW>
285.17

>  <nHBAcc>
3

>  <nHBDon>
1

>  <SLogP>
2.97

>  <TopoPSA>
40.54

>  <MMFF94 Energy>
85.794

$$$$
CCC
Actelion Java MolfileCreator 2.0

  0  0  0  0  0  0              0 V3000
M  V30 BEGIN CTAB
M  V30 COUNTS 11 10 0 0 0
M  V30 BEGIN ATOM
M  V30 1 C -0.4424 0.4424 0.0 0
M  V30 2 C -0.2902 -0.5879 1.106 0
M  V30 3 C 0.5701 0.2257 -1.1115 0
M  V30 4 H -0.316 1.4473 0.4178 0
M  V30 5 H -1.4555 0.3867 -0.4135 0
M  V30 6 H 0.7057 -0.5352 1.5569 0
M  V30 7 H -1.0295 -0.411 1.8935 0
M  V30 8 H -0.4399 -1.6016 0.721 0
M  V30 9 H 0.4477 -0.7622 -1.5666 0
M  V30 10 H 0.4405 0.979 -1.8948 0
M  V30 11 H 1.5934 0.3041 -0.7307 0
M  V30 END ATOM
M  V30 BEGIN BOND
M  V30 1 1 1 2
M  V30 2 1 1 3
M  V30 3 1 1 4
M  V30 4 1 1 5
M  V30 5 1 2 6
M  V30 6 1 2 7
M  V30 7 1 2 8
M  V30 8 1 3 9
M  V30 9 1 3 10
M  V30 10 1 3 11
M  V30 END BOND
M  V30 END CTAB
M  END
>  <NO.>
1412

>  <Name>
propanidid

>  <SMILES>
CCC

>  <logBB>


>  <Class>
1

>  <MW>
44.06

>  <nHBAcc>
0

>  <nHBDon>
0

>  <SLogP>
1.42

>  <TopoPSA>
0

>  <MMFF94 Energy>
-4.8973

$$$$
CCC(=O)C(CCN(C)C)(c1ccccc1)c1ccccc1
Actelion Java MolfileCreator 2.0

  0  0  0  0  0  0              0 V3000
M  V30 BEGIN CTAB
M  V30 COUNTS 47 48 0 0 0
M  V30 BEGIN ATOM
M  V30 1 O 2.6069 -1.1843 0.7104 0
M  V30 2 C 1.9241 -0.1723 0.9041 0
M  V30 3 C 0.53 0.0452 0.1964 0
M  V30 4 C 2.4224 0.9132 1.8577 0
M  V30 5 C -0.504 0.2474 1.3456 0
M  V30 6 C 0.6301 1.215 -0.829 0
M  V30 7 C 0.252 -1.2543 -0.6542 0
M  V30 8 C 3.9243 0.8383 2.0788 0
M  V30 9 C -0.7718 1.5247 1.8825 0
M  V30 10 C -1.1313 -0.8479 1.9705 0
M  V30 11 C -0.4978 1.9701 -1.2087 0
M  V30 12 C 1.8438 1.4934 -1.4895 0
M  V30 13 C -1.0995 -1.2965 -1.3934 0
M  V30 14 C -1.6641 1.7024 2.9439 0
M  V30 15 C -2.0242 -0.6707 3.0327 0
M  V30 16 C -0.4029 2.9957 -2.1532 0
M  V30 17 C 1.9375 2.519 -2.4344 0
M  V30 18 N -1.334 -2.5856 -2.0761 0
M  V30 19 C -2.2959 0.6044 3.5145 0
M  V30 20 C 0.8166 3.2752 -2.7597 0
M  V30 21 C -2.4193 -2.4448 -3.0519 0
M  V30 22 C -1.6653 -3.6552 -1.1316 0
M  V30 23 H 1.9098 0.7955 2.8173 0
M  V30 24 H 2.1838 1.8983 1.4474 0
M  V30 25 H 0.3558 -2.1338 -0.0095 0
M  V30 26 H 1.046 -1.3707 -1.4074 0
M  V30 27 H 4.2532 1.65 2.735 0
M  V30 28 H 4.4648 0.9223 1.1302 0
M  V30 29 H 4.2081 -0.111 2.5446 0
M  V30 30 H -0.2796 2.4122 1.4878 0
M  V30 31 H -0.9347 -1.8697 1.6558 0
M  V30 32 H -1.4777 1.7612 -0.7827 0
M  V30 33 H 2.7388 0.9034 -1.2965 0
M  V30 34 H -1.9356 -1.0644 -0.7244 0
M  V30 35 H -1.0801 -0.5138 -2.1597 0
M  V30 36 H -1.8569 2.7008 3.3288 0
M  V30 37 H -2.4997 -1.5354 3.4894 0
M  V30 38 H -1.2872 3.5678 -2.4228 0
M  V30 39 H 2.8869 2.7163 -2.9264 0
M  V30 40 H -2.9872 0.7401 4.3419 0
M  V30 41 H 0.8896 4.0683 -3.4989 0
M  V30 42 H -2.1631 -1.6956 -3.8095 0
M  V30 43 H -3.3638 -2.1507 -2.5796 0
M  V30 44 H -2.5796 -3.386 -3.5897 0
M  V30 45 H -2.5501 -3.4159 -0.5305 0
M  V30 46 H -0.8332 -3.8652 -0.4535 0
M  V30 47 H -1.8595 -4.5921 -1.6665 0
M  V30 END ATOM
M  V30 BEGIN BOND
M  V30 1 2 1 2
M  V30 2 1 2 3
M  V30 3 1 2 4
M  V30 4 1 3 5
M  V30 5 1 3 6
M  V30 6 1 3 7
M  V30 7 1 4 8
M  V30 8 2 5 9
M  V30 9 1 5 10
M  V30 10 2 6 11
M  V30 11 1 6 12
M  V30 12 1 7 13
M  V30 13 1 9 14
M  V30 14 2 10 15
M  V30 15 1 11 16
M  V30 16 2 12 17
M  V30 17 1 13 18
M  V30 18 2 14 19
M  V30 19 2 16 20
M  V30 20 1 18 21
M  V30 21 1 18 22
M  V30 22 1 15 19
M  V30 23 1 17 20
M  V30 24 1 4 23
M  V30 25 1 4 24
M  V30 26 1 7 25
M  V30 27 1 7 26
M  V30 28 1 8 27
M  V30 29 1 8 28
M  V30 30 1 8 29
M  V30 31 1 9 30
M  V30 32 1 10 31
M  V30 33 1 11 32
M  V30 34 1 12 33
M  V30 35 1 13 34
M  V30 36 1 13 35
M  V30 37 1 14 36
M  V30 38 1 15 37
M  V30 39 1 16 38
M  V30 40 1 17 39
M  V30 41 1 19 40
M  V30 42 1 20 41
M  V30 43 1 21 42
M  V30 44 1 21 43
M  V30 45 1 21 44
M  V30 46 1 22 45
M  V30 47 1 22 46
M  V30 48 1 22 47
M  V30 END BOND
M  V30 END CTAB
M  END
>  <NO.>
1413

>  <Name>
normethadone

>  <SMILES>
CCC(=O)C(CCN(C)C)(c1ccccc1)c1ccccc1

>  <logBB>


>  <Class>
1

>  <MW>
295.19

>  <nHBAcc>
2

>  <nHBDon>
0

>  <SLogP>
3.9

>  <TopoPSA>
20.31

>  <MMFF94 Energy>
92.963

$$$$
CCC(=O)C(c1ccccc1)(c1ccccc1)C(C)CN(C)C
Actelion Java MolfileCreator 2.0

  0  0  0  0  0  0              0 V3000
M  V30 BEGIN CTAB
M  V30 COUNTS 50 51 0 0 0
M  V30 BEGIN ATOM
M  V30 1 O -2.3702 -2.133 -0.1578 0
M  V30 2 C -1.2544 -1.8192 0.2685 0
M  V30 3 C -0.5932 -0.3933 0.0063 0
M  V30 4 C -0.477 -2.8065 1.1473 0
M  V30 5 C -1.351 0.4327 -1.0907 0
M  V30 6 C -0.7154 0.2998 1.4079 0
M  V30 7 C 0.9055 -0.6136 -0.4972 0 CFG=2
M  V30 8 C -1.3256 -3.9932 1.5757 0
M  V30 9 C -1.4114 1.8426 -1.0265 0
M  V30 10 C -1.9329 -0.1776 -2.2171 0
M  V30 11 C 0.3783 0.5761 2.245 0
M  V30 12 C -2.0038 0.6033 1.9055 0
M  V30 13 C 1.6594 0.7097 -0.8337 0
M  V30 14 C 1.0141 -1.5523 -1.7227 0
M  V30 15 C -2.0471 2.595 -2.0184 0
M  V30 16 C -2.5695 0.5748 -3.2094 0
M  V30 17 C 0.197 1.1642 3.5015 0
M  V30 18 C -2.1832 1.1895 3.1597 0
M  V30 19 N 3.1058 0.5197 -1.0781 0
M  V30 20 C -2.6291 1.9601 -3.1088 0
M  V30 21 C -1.0808 1.4742 3.9564 0
M  V30 22 C 3.8515 0.2884 0.1601 0
M  V30 23 C 3.6552 1.6931 -1.766 0
M  V30 24 H -0.1239 -2.2943 2.0459 0
M  V30 25 H 0.3894 -3.1757 0.5931 0
M  V30 26 H 1.4432 -1.1241 0.3092 0
M  V30 27 H -0.7461 -4.6631 2.2183 0
M  V30 28 H -1.6687 -4.5661 0.708 0
M  V30 29 H -2.2089 -3.6634 2.1327 0
M  V30 30 H -0.9576 2.3838 -0.1981 0
M  V30 31 H -1.9053 -1.2573 -2.348 0
M  V30 32 H 1.3962 0.335 1.9576 0
M  V30 33 H -2.8894 0.3821 1.3075 0
M  V30 34 H 1.5125 1.4722 -0.0619 0
M  V30 35 H 1.2172 1.1161 -1.7522 0
M  V30 36 H 0.7023 -1.0543 -2.646 0
M  V30 37 H 2.0516 -1.8747 -1.8653 0
M  V30 38 H 0.4169 -2.4606 -1.6127 0
M  V30 39 H -2.0846 3.6781 -1.9362 0
M  V30 40 H -3.0193 0.0714 -4.0614 0
M  V30 41 H 1.0588 1.3745 4.1304 0
M  V30 42 H -3.1859 1.4184 3.5117 0
M  V30 43 H -3.1257 2.5422 -3.88 0
M  V30 44 H -1.2178 1.9292 4.9338 0
M  V30 45 H 3.5321 -0.6345 0.6526 0
M  V30 46 H 3.7413 1.1163 0.8698 0
M  V30 47 H 4.9191 0.1618 -0.0533 0
M  V30 48 H 3.5426 2.6087 -1.1739 0
M  V30 49 H 3.1597 1.8416 -2.7319 0
M  V30 50 H 4.7196 1.5498 -1.9833 0
M  V30 END ATOM
M  V30 BEGIN BOND
M  V30 1 2 1 2
M  V30 2 1 2 3
M  V30 3 1 2 4
M  V30 4 1 3 5
M  V30 5 1 3 6
M  V30 6 1 3 7
M  V30 7 1 4 8
M  V30 8 2 5 9
M  V30 9 1 5 10
M  V30 10 2 6 11
M  V30 11 1 6 12
M  V30 12 1 7 13
M  V30 13 1 7 14
M  V30 14 1 9 15
M  V30 15 2 10 16
M  V30 16 1 11 17
M  V30 17 2 12 18
M  V30 18 1 13 19
M  V30 19 2 15 20
M  V30 20 2 17 21
M  V30 21 1 19 22
M  V30 22 1 19 23
M  V30 23 1 16 20
M  V30 24 1 18 21
M  V30 25 1 4 24
M  V30 26 1 4 25
M  V30 27 1 7 26
M  V30 28 1 8 27
M  V30 29 1 8 28
M  V30 30 1 8 29
M  V30 31 1 9 30
M  V30 32 1 10 31
M  V30 33 1 11 32
M  V30 34 1 12 33
M  V30 35 1 13 34
M  V30 36 1 13 35
M  V30 37 1 14 36
M  V30 38 1 14 37
M  V30 39 1 14 38
M  V30 40 1 15 39
M  V30 41 1 16 40
M  V30 42 1 17 41
M  V30 43 1 18 42
M  V30 44 1 20 43
M  V30 45 1 21 44
M  V30 46 1 22 45
M  V30 47 1 22 46
M  V30 48 1 22 47
M  V30 49 1 23 48
M  V30 50 1 23 49
M  V30 51 1 23 50
M  V30 END BOND
M  V30 BEGIN COLLECTION
M  V30 MDLV30/STERAC1 ATOMS=(1 7)
M  V30 END COLLECTION
M  V30 END CTAB
M  END
>  <NO.>
1414

>  <Name>
isomethadone

>  <SMILES>
CCC(=O)C(c1ccccc1)(c1ccccc1)C(C)CN(C)C

>  <logBB>


>  <Class>
1

>  <MW>
309.21

>  <nHBAcc>
2

>  <nHBDon>
0

>  <SLogP>
4.15

>  <TopoPSA>
20.31

>  <MMFF94 Energy>
101.83

$$$$
CCC(=O)C1(N2CCCCC2)CCN(CCCC(=O)c2ccc(F)cc2)CC1
Actelion Java MolfileCreator 2.0

  0  0  0  0  0  0              0 V3000
M  V30 BEGIN CTAB
M  V30 COUNTS 61 63 0 0 0
M  V30 BEGIN ATOM
M  V30 1 F -0.7955 -2.0695 -8.538 0
M  V30 2 C -0.25 -1.2758 -7.6077 0
M  V30 3 C 1.0008 -0.7155 -7.8321 0
M  V30 4 C -0.9449 -1.0239 -6.43 0
M  V30 5 C 1.5674 0.1119 -6.8601 0
M  V30 6 C -0.3811 -0.1959 -5.4541 0
M  V30 7 C 0.8813 0.3779 -5.6634 0
M  V30 8 C 1.5319 1.2714 -4.6544 0
M  V30 9 O 2.6284 1.7644 -4.9124 0
M  V30 10 C 0.8059 1.5406 -3.3476 0
M  V30 11 C 1.6276 2.4213 -2.4033 0
M  V30 12 C 0.8635 2.7937 -1.1258 0
M  V30 13 N 0.3452 1.6385 -0.368 0
M  V30 14 C 1.4353 0.8515 0.2294 0
M  V30 15 C -0.5812 2.1019 0.6738 0
M  V30 16 C 0.9083 -0.3634 1.0073 0
M  V30 17 C -1.2116 0.9065 1.3919 0
M  V30 18 C -0.1512 0.0065 2.0773 0
M  V30 19 N -0.7627 -1.1984 2.7512 0
M  V30 20 C 0.5177 0.842 3.2291 0
M  V30 21 C -1.6969 -1.9753 1.9197 0
M  V30 22 C 0.2474 -2.0958 3.354 0
M  V30 23 O 1.7403 1.0048 3.2916 0
M  V30 24 C -0.4008 1.4497 4.2868 0
M  V30 25 C -2.3973 -3.0739 2.7275 0
M  V30 26 C -0.4063 -3.1714 4.2231 0
M  V30 27 C 0.3425 1.7818 5.5695 0
M  V30 28 C -1.4011 -3.9931 3.4175 0
M  V30 29 H 1.5277 -0.9238 -8.758 0
M  V30 30 H -1.9217 -1.4738 -6.279 0
M  V30 31 H 2.5485 0.5493 -7.0397 0
M  V30 32 H -0.9469 -0.0162 -4.5444 0
M  V30 33 H -0.1414 2.0415 -3.5764 0
M  V30 34 H 0.6033 0.5781 -2.8657 0
M  V30 35 H 2.5746 1.9263 -2.158 0
M  V30 36 H 1.9017 3.351 -2.9187 0
M  V30 37 H 1.5038 3.4194 -0.4903 0
M  V30 38 H 0.0192 3.4251 -1.4337 0
M  V30 39 H 2.0608 1.4818 0.8722 0
M  V30 40 H 2.0906 0.4605 -0.5568 0
M  V30 41 H -0.0817 2.7705 1.3859 0
M  V30 42 H -1.3949 2.6761 0.2131 0
M  V30 43 H 0.4775 -1.0672 0.2837 0
M  V30 44 H 1.7714 -0.8667 1.4592 0
M  V30 45 H -1.9584 1.2655 2.1095 0
M  V30 46 H -1.7636 0.3432 0.6295 0
M  V30 47 H -2.4986 -1.341 1.5314 0
M  V30 48 H -1.1826 -2.4243 1.0619 0
M  V30 49 H 0.8489 -2.5863 2.5788 0
M  V30 50 H 0.936 -1.5386 3.9977 0
M  V30 51 H -1.2029 0.7439 4.5216 0
M  V30 52 H -0.8463 2.3611 3.8762 0
M  V30 53 H -3.0445 -3.6613 2.0662 0
M  V30 54 H -3.0484 -2.6119 3.4811 0
M  V30 55 H -0.9167 -2.6999 5.0726 0
M  V30 56 H 0.3647 -3.8301 4.6386 0
M  V30 57 H -0.3488 2.1813 6.3179 0
M  V30 58 H 1.1211 2.5311 5.3922 0
M  V30 59 H 0.8228 0.8902 5.986 0
M  V30 60 H -1.927 -4.6973 4.0714 0
M  V30 61 H -0.8665 -4.5867 2.666 0
M  V30 END ATOM
M  V30 BEGIN BOND
M  V30 1 1 1 2
M  V30 2 2 2 3
M  V30 3 1 2 4
M  V30 4 1 3 5
M  V30 5 2 4 6
M  V30 6 2 5 7
M  V30 7 1 7 8
M  V30 8 2 8 9
M  V30 9 1 8 10
M  V30 10 1 10 11
M  V30 11 1 11 12
M  V30 12 1 12 13
M  V30 13 1 13 14
M  V30 14 1 13 15
M  V30 15 1 14 16
M  V30 16 1 15 17
M  V30 17 1 16 18
M  V30 18 1 18 19
M  V30 19 1 18 20
M  V30 20 1 19 21
M  V30 21 1 19 22
M  V30 22 2 20 23
M  V30 23 1 20 24
M  V30 24 1 21 25
M  V30 25 1 22 26
M  V30 26 1 24 27
M  V30 27 1 25 28
M  V30 28 1 6 7
M  V30 29 1 17 18
M  V30 30 1 26 28
M  V30 31 1 3 29
M  V30 32 1 4 30
M  V30 33 1 5 31
M  V30 34 1 6 32
M  V30 35 1 10 33
M  V30 36 1 10 34
M  V30 37 1 11 35
M  V30 38 1 11 36
M  V30 39 1 12 37
M  V30 40 1 12 38
M  V30 41 1 14 39
M  V30 42 1 14 40
M  V30 43 1 15 41
M  V30 44 1 15 42
M  V30 45 1 16 43
M  V30 46 1 16 44
M  V30 47 1 17 45
M  V30 48 1 17 46
M  V30 49 1 21 47
M  V30 50 1 21 48
M  V30 51 1 22 49
M  V30 52 1 22 50
M  V30 53 1 24 51
M  V30 54 1 24 52
M  V30 55 1 25 53
M  V30 56 1 25 54
M  V30 57 1 26 55
M  V30 58 1 26 56
M  V30 59 1 27 57
M  V30 60 1 27 58
M  V30 61 1 27 59
M  V30 62 1 28 60
M  V30 63 1 28 61
M  V30 END BOND
M  V30 END CTAB
M  END
>  <NO.>
1415

>  <Name>
propyperone

>  <SMILES>
CCC(=O)C1(N2CCCCC2)CCN(CCCC(=O)c2ccc(F)cc2)CC1

>  <logBB>


>  <Class>
1

>  <MW>
388.25

>  <nHBAcc>
4

>  <nHBDon>
0

>  <SLogP>
4.09

>  <TopoPSA>
40.62

>  <MMFF94 Energy>
62.394

$$$$
CCC(=O)C1(O)CCC2C3CCC4=CC(=O)CCC4(C)C3C(O)CC21C
Actelion Java MolfileCreator 2.0

  0  0  0  0  0  0              0 V3000
M  V30 BEGIN CTAB
M  V30 COUNTS 58 61 0 0 0
M  V30 BEGIN ATOM
M  V30 1 O -3.5397 2.6539 4.7486 0
M  V30 2 C -3.2091 2.2781 3.627 0
M  V30 3 C -2.3801 3.1648 2.7749 0
M  V30 4 C -3.5208 0.8976 3.1083 0
M  V30 5 C -2.0244 2.8052 1.528 0
M  V30 6 C -3.7418 0.9682 1.6083 0
M  V30 7 C -2.5244 1.5332 0.8216 0
M  V30 8 C -0.9415 3.5678 0.8096 0
M  V30 9 C -1.2612 0.5847 0.7377 0
M  V30 10 C -3.0849 1.8658 -0.586 0
M  V30 11 C 0.276 2.6569 0.6478 0
M  V30 12 C -1.5195 -0.8369 0.1578 0
M  V30 13 C -0.0769 1.3077 -0.0106 0
M  V30 14 O -2.3928 -1.5712 1.0156 0
M  V30 15 C -0.2401 -1.6852 -0.0087 0
M  V30 16 C 1.1373 0.3746 -0.0602 0
M  V30 17 C 0.8562 -0.9581 -0.7976 0
M  V30 18 C 2.4163 0.8823 -0.7207 0
M  V30 19 C 2.2831 -1.5934 -0.7378 0
M  V30 20 C 0.3926 -0.7503 -2.2667 0
M  V30 21 C 3.1994 -0.3935 -1.0904 0
M  V30 22 O 2.5688 -1.9849 0.6142 0
M  V30 23 C 2.5021 -2.8326 -1.6424 0
M  V30 24 O 1.5672 -3.5297 -2.0392 0
M  V30 25 C 3.9448 -3.1962 -1.973 0
M  V30 26 C 4.0677 -4.5671 -2.6162 0
M  V30 27 H -1.9974 4.0522 3.2668 0
M  V30 28 H -2.7039 0.2206 3.375 0
M  V30 29 H -4.437 0.544 3.5935 0
M  V30 30 H -4.063 -0.0023 1.2225 0
M  V30 31 H -4.6074 1.6285 1.4418 0
M  V30 32 H -0.6432 4.4645 1.3665 0
M  V30 33 H -1.2976 3.9197 -0.1641 0
M  V30 34 H -0.9271 0.4234 1.7752 0
M  V30 35 H -3.5319 0.9803 -1.0512 0
M  V30 36 H -2.3339 2.249 -1.2804 0
M  V30 37 H -3.869 2.631 -0.5245 0
M  V30 38 H 0.7272 2.4768 1.6328 0
M  V30 39 H 1.0292 3.1825 0.0492 0
M  V30 40 H -2.0259 -0.7565 -0.8082 0
M  V30 41 H -0.3774 1.5343 -1.0374 0
M  V30 42 H -1.8921 -1.8321 1.8082 0
M  V30 43 H -0.4994 -2.6374 -0.4884 0
M  V30 44 H 0.124 -1.9635 0.989 0
M  V30 45 H 1.3966 0.156 0.9882 0
M  V30 46 H 2.2002 1.469 -1.6207 0
M  V30 47 H 2.9959 1.5188 -0.0437 0
M  V30 48 H 0.117 -1.7008 -2.7338 0
M  V30 49 H 1.1665 -0.2959 -2.8925 0
M  V30 50 H -0.4922 -0.1137 -2.3463 0
M  V30 51 H 3.443 -0.3616 -2.1582 0
M  V30 52 H 4.1442 -0.4261 -0.536 0
M  V30 53 H 3.5151 -2.19 0.6953 0
M  V30 54 H 4.5304 -3.1846 -1.0487 0
M  V30 55 H 4.3478 -2.4421 -2.6554 0
M  V30 56 H 5.1174 -4.7992 -2.8203 0
M  V30 57 H 3.519 -4.6086 -3.563 0
M  V30 58 H 3.6654 -5.3462 -1.9603 0
M  V30 END ATOM
M  V30 BEGIN BOND
M  V30 1 2 1 2
M  V30 2 1 2 3
M  V30 3 1 2 4
M  V30 4 2 3 5
M  V30 5 1 4 6
M  V30 6 1 5 7
M  V30 7 1 5 8
M  V30 8 1 7 9
M  V30 9 1 7 10
M  V30 10 1 8 11
M  V30 11 1 9 12
M  V30 12 1 9 13
M  V30 13 1 12 14
M  V30 14 1 12 15
M  V30 15 1 13 16
M  V30 16 1 15 17
M  V30 17 1 16 18
M  V30 18 1 17 19
M  V30 19 1 17 20
M  V30 20 1 18 21
M  V30 21 1 19 22
M  V30 22 1 19 23
M  V30 23 2 23 24
M  V30 24 1 23 25
M  V30 25 1 25 26
M  V30 26 1 6 7
M  V30 27 1 11 13
M  V30 28 1 16 17
M  V30 29 1 19 21
M  V30 30 1 3 27
M  V30 31 1 4 28
M  V30 32 1 4 29
M  V30 33 1 6 30
M  V30 34 1 6 31
M  V30 35 1 8 32
M  V30 36 1 8 33
M  V30 37 1 9 34
M  V30 38 1 10 35
M  V30 39 1 10 36
M  V30 40 1 10 37
M  V30 41 1 11 38
M  V30 42 1 11 39
M  V30 43 1 12 40
M  V30 44 1 13 41
M  V30 45 1 14 42
M  V30 46 1 15 43
M  V30 47 1 15 44
M  V30 48 1 16 45
M  V30 49 1 18 46
M  V30 50 1 18 47
M  V30 51 1 20 48
M  V30 52 1 20 49
M  V30 53 1 20 50
M  V30 54 1 21 51
M  V30 55 1 21 52
M  V30 56 1 22 53
M  V30 57 1 25 54
M  V30 58 1 25 55
M  V30 59 1 26 56
M  V30 60 1 26 57
M  V30 61 1 26 58
M  V30 END BOND
M  V30 END CTAB
M  END
>  <NO.>
1416

>  <Name>
resocortol

>  <SMILES>
CCC(=O)C1(O)CCC2C3CCC4=CC(=O)CCC4(C)C3C(O)CC21C

>  <logBB>


>  <Class>
1

>  <MW>
360.23

>  <nHBAcc>
4

>  <nHBDon>
2

>  <SLogP>
3.2

>  <TopoPSA>
74.6

>  <MMFF94 Energy>
112.17

$$$$
CCC(=O)C1(c2cccc(O)c2)CCN(C)CC1
Actelion Java MolfileCreator 2.0

  0  0  0  0  0  0              0 V3000
M  V30 BEGIN CTAB
M  V30 COUNTS 39 40 0 0 0
M  V30 BEGIN ATOM
M  V30 1 O -2.6885 0.9482 -0.632 0
M  V30 2 C -1.4968 1.2525 -0.523 0
M  V30 3 C -0.4898 0.3419 0.2418 0
M  V30 4 C -0.9497 2.5168 -1.1789 0
M  V30 5 C 0.3297 -0.4288 -0.817 0
M  V30 6 C -1.3086 -0.638 1.133 0
M  V30 7 C 0.328 1.2384 1.2118 0
M  V30 8 C -1.9197 3.1136 -2.1844 0
M  V30 9 C -0.3336 -1.308 -1.7006 0
M  V30 10 C 1.7145 -0.264 -0.9916 0
M  V30 11 C -0.4432 -1.3853 2.1448 0
M  V30 12 C 1.1087 0.4567 2.2743 0
M  V30 13 C 0.3692 -2.0055 -2.6815 0
M  V30 14 C 2.4118 -0.9716 -1.9776 0
M  V30 15 N 0.2289 -0.4323 3.0334 0
M  V30 16 O -0.2636 -2.8568 -3.5378 0
M  V30 17 C 1.7382 -1.8479 -2.8213 0
M  V30 18 C 0.9821 -1.1423 4.068 0
M  V30 19 H -0.0149 2.2759 -1.6935 0
M  V30 20 H -0.742 3.2528 -0.3962 0
M  V30 21 H -2.0727 -0.0732 1.6878 0
M  V30 22 H -1.869 -1.3684 0.5385 0
M  V30 23 H -0.3627 1.9161 1.7355 0
M  V30 24 H 1.0186 1.8957 0.6702 0
M  V30 25 H -1.4843 4.0018 -2.6525 0
M  V30 26 H -2.8571 3.4083 -1.7013 0
M  V30 27 H -2.1601 2.3929 -2.9729 0
M  V30 28 H -1.4118 -1.4361 -1.6305 0
M  V30 29 H 2.293 0.419 -0.3772 0
M  V30 30 H 0.2778 -2.0338 1.6314 0
M  V30 31 H -1.1002 -2.0366 2.7345 0
M  V30 32 H 1.5676 1.1853 2.9544 0
M  V30 33 H 1.9297 -0.1076 1.8182 0
M  V30 34 H 3.4843 -0.833 -2.0898 0
M  V30 35 H -1.2152 -2.8447 -3.3416 0
M  V30 36 H 2.2753 -2.3966 -3.5891 0
M  V30 37 H 1.4504 -0.432 4.7584 0
M  V30 38 H 1.766 -1.7809 3.6452 0
M  V30 39 H 0.3135 -1.7685 4.6691 0
M  V30 END ATOM
M  V30 BEGIN BOND
M  V30 1 2 1 2
M  V30 2 1 2 3
M  V30 3 1 2 4
M  V30 4 1 3 5
M  V30 5 1 3 6
M  V30 6 1 3 7
M  V30 7 1 4 8
M  V30 8 2 5 9
M  V30 9 1 5 10
M  V30 10 1 6 11
M  V30 11 1 7 12
M  V30 12 1 9 13
M  V30 13 2 10 14
M  V30 14 1 11 15
M  V30 15 1 13 16
M  V30 16 2 13 17
M  V30 17 1 15 18
M  V30 18 1 12 15
M  V30 19 1 14 17
M  V30 20 1 4 19
M  V30 21 1 4 20
M  V30 22 1 6 21
M  V30 23 1 6 22
M  V30 24 1 7 23
M  V30 25 1 7 24
M  V30 26 1 8 25
M  V30 27 1 8 26
M  V30 28 1 8 27
M  V30 29 1 9 28
M  V30 30 1 10 29
M  V30 31 1 11 30
M  V30 32 1 11 31
M  V30 33 1 12 32
M  V30 34 1 12 33
M  V30 35 1 14 34
M  V30 36 1 16 35
M  V30 37 1 17 36
M  V30 38 1 18 37
M  V30 39 1 18 38
M  V30 40 1 18 39
M  V30 END BOND
M  V30 END CTAB
M  END
>  <NO.>
1417

>  <Name>
ketobemidone

>  <SMILES>
CCC(=O)C1(c2cccc(O)c2)CCN(C)CC1

>  <logBB>


>  <Class>
1

>  <MW>
247.16

>  <nHBAcc>
3

>  <nHBDon>
1

>  <SLogP>
2.33

>  <TopoPSA>
40.54

>  <MMFF94 Energy>
27.847

$$$$
CCC(=O)N(c1ccc(Cl)c(Cl)c1)[C@@H]1CCC[C@H]1N(C)C
Actelion Java MolfileCreator 2.0

  0  0  0  0  0  0              0 V3000
M  V30 BEGIN CTAB
M  V30 COUNTS 43 44 0 0 0
M  V30 BEGIN ATOM
M  V30 1 Cl 0.9646 3.1377 -3.7823 0
M  V30 2 C 1.3373 2.3296 -2.3008 0
M  V30 3 C 2.2566 2.8429 -1.3772 0
M  V30 4 C 0.6834 1.1213 -2.04 0
M  V30 5 Cl 3.0965 4.3303 -1.6346 0
M  V30 6 C 2.52 2.1436 -0.196 0
M  V30 7 C 0.9473 0.429 -0.856 0
M  V30 8 C 1.8676 0.9373 0.0634 0
M  V30 9 N 0.287 -0.7892 -0.5836 0
M  V30 10 C 0.8013 -2.0257 -0.9861 0
M  V30 11 C -1.0258 -0.7625 0.082 0 CFG=1
M  V30 12 O 0.1882 -3.0792 -0.7996 0
M  V30 13 C 2.1619 -2.0174 -1.6767 0
M  V30 14 C -1.3821 0.4601 0.9803 0 CFG=2
M  V30 15 C -2.1959 -0.8304 -0.9191 0
M  V30 16 C 2.6267 -3.4133 -2.0589 0
M  V30 17 N -0.6012 0.6279 2.2217 0
M  V30 18 C -2.8999 0.2847 1.1387 0
M  V30 19 C -3.3671 -0.0981 -0.262 0
M  V30 20 C -0.9635 1.8581 2.9267 0
M  V30 21 C -0.6399 -0.5107 3.1358 0
M  V30 22 H -0.0243 0.7208 -2.7605 0
M  V30 23 H 3.2272 2.5348 0.5315 0
M  V30 24 H 2.0645 0.4059 0.9924 0
M  V30 25 H -1.0957 -1.673 0.692 0
M  V30 26 H 2.9012 -1.573 -1.0025 0
M  V30 27 H 2.0989 -1.4073 -2.5837 0
M  V30 28 H -1.2263 1.3692 0.3815 0
M  V30 29 H -2.4555 -1.8719 -1.1398 0
M  V30 30 H -1.9539 -0.3553 -1.8754 0
M  V30 31 H 3.6043 -3.368 -2.5487 0
M  V30 32 H 1.9206 -3.8881 -2.7481 0
M  V30 33 H 2.7164 -4.0537 -1.1751 0
M  V30 34 H -3.3988 1.1935 1.4891 0
M  V30 35 H -3.1431 -0.5264 1.834 0
M  V30 36 H -4.2707 -0.7148 -0.2312 0
M  V30 37 H -3.6047 0.8043 -0.8376 0
M  V30 38 H -1.9789 1.8223 3.3363 0
M  V30 39 H -0.8869 2.7256 2.2617 0
M  V30 40 H -0.2696 2.0422 3.7549 0
M  V30 41 H -1.6467 -0.7175 3.5128 0
M  V30 42 H -0.2454 -1.4163 2.6663 0
M  V30 43 H 0.0065 -0.3231 4.0014 0
M  V30 END ATOM
M  V30 BEGIN BOND
M  V30 1 1 1 2
M  V30 2 2 2 3
M  V30 3 1 2 4
M  V30 4 1 3 5
M  V30 5 1 3 6
M  V30 6 2 4 7
M  V30 7 2 6 8
M  V30 8 1 7 9
M  V30 9 1 9 10
M  V30 10 1 9 11
M  V30 11 2 10 12
M  V30 12 1 10 13
M  V30 13 1 11 14
M  V30 14 1 11 15
M  V30 15 1 13 16
M  V30 16 1 14 17
M  V30 17 1 14 18
M  V30 18 1 15 19
M  V30 19 1 17 20
M  V30 20 1 17 21
M  V30 21 1 7 8
M  V30 22 1 18 19
M  V30 23 1 4 22
M  V30 24 1 6 23
M  V30 25 1 8 24
M  V30 26 1 11 25
M  V30 27 1 13 26
M  V30 28 1 13 27
M  V30 29 1 14 28
M  V30 30 1 15 29
M  V30 31 1 15 30
M  V30 32 1 16 31
M  V30 33 1 16 32
M  V30 34 1 16 33
M  V30 35 1 18 34
M  V30 36 1 18 35
M  V30 37 1 19 36
M  V30 38 1 19 37
M  V30 39 1 20 38
M  V30 40 1 20 39
M  V30 41 1 20 40
M  V30 42 1 21 41
M  V30 43 1 21 42
M  V30 44 1 21 43
M  V30 END BOND
M  V30 BEGIN COLLECTION
M  V30 MDLV30/STEABS ATOMS=(2 11 14)
M  V30 END COLLECTION
M  V30 END CTAB
M  END
>  <NO.>
1418

>  <Name>
eclanamine

>  <SMILES>
CCC(=O)N(c1ccc(Cl)c(Cl)c1)[C@@H]1CCC[C@H]1N(C)C

>  <logBB>


>  <Class>
1

>  <MW>
328.11

>  <nHBAcc>
2

>  <nHBDon>
0

>  <SLogP>
4.22

>  <TopoPSA>
23.55

>  <MMFF94 Energy>
51.925

$$$$
CCC(=O)N(c1ccccc1)C1(C(=O)OC)CCN(CCC(=O)OC)CC1
Actelion Java MolfileCreator 2.0

  0  0  0  0  0  0              0 V3000
M  V30 BEGIN CTAB
M  V30 COUNTS 55 56 0 0 0
M  V30 BEGIN ATOM
M  V30 1 O 1.0283 2.4536 -1.6616 0
M  V30 2 C 0.8064 1.9131 -0.5802 0
M  V30 3 O 1.1005 2.4951 0.6195 0
M  V30 4 C 0.0607 0.536 -0.4185 0
M  V30 5 C 1.6656 3.8026 0.5154 0
M  V30 6 N -1.4333 0.7702 -0.6268 0
M  V30 7 C 0.347 -0.0554 0.9921 0
M  V30 8 C 0.6908 -0.3301 -1.5634 0
M  V30 9 C -1.9205 2.0945 -0.4432 0
M  V30 10 C -2.3394 -0.2721 -0.8312 0
M  V30 11 C 0.5092 -1.5695 1.0519 0
M  V30 12 C 0.9315 -1.8132 -1.2766 0
M  V30 13 C -2.0702 2.937 -1.5487 0
M  V30 14 C -2.2513 2.5507 0.8362 0
M  V30 15 O -1.9938 -1.4503 -0.8809 0
M  V30 16 C -3.8139 0.098 -1.0002 0
M  V30 17 N 1.4526 -2.0877 0.0629 0
M  V30 18 C -2.545 4.2366 -1.3723 0
M  V30 19 C -2.7276 3.8509 1.0074 0
M  V30 20 C -4.6937 -1.1168 -1.2518 0
M  V30 21 C 2.8534 -1.675 0.2241 0
M  V30 22 C -2.8736 4.6924 -0.0956 0
M  V30 23 C 3.5048 -2.0953 1.5414 0
M  V30 24 C 3.4919 -3.5851 1.7588 0
M  V30 25 O 3.0332 -4.123 2.7593 0
M  V30 26 O 4.126 -4.2325 0.7422 0
M  V30 27 C 4.1393 -5.6529 0.8817 0
M  V30 28 H 1.8446 4.1749 1.5278 0
M  V30 29 H 2.6224 3.765 -0.0142 0
M  V30 30 H 0.9694 4.4832 0.0152 0
M  V30 31 H 1.2735 0.3606 1.4057 0
M  V30 32 H -0.4398 0.2392 1.6962 0
M  V30 33 H 0.0919 -0.2351 -2.4786 0
M  V30 34 H 1.678 0.0751 -1.8278 0
M  V30 35 H 0.8172 -1.861 2.0625 0
M  V30 36 H -0.4623 -2.0588 0.9235 0
M  V30 37 H 0.0182 -2.3945 -1.429 0
M  V30 38 H 1.62 -2.2143 -2.0323 0
M  V30 39 H -1.8036 2.5922 -2.5449 0
M  V30 40 H -2.1476 1.9031 1.7018 0
M  V30 41 H -3.9165 0.7822 -1.8483 0
M  V30 42 H -4.1664 0.5988 -0.0929 0
M  V30 43 H -2.6538 4.8949 -2.2306 0
M  V30 44 H -2.9866 4.2085 2.0009 0
M  V30 45 H -5.738 -0.8119 -1.3709 0
M  V30 46 H -4.6373 -1.823 -0.4169 0
M  V30 47 H -4.3857 -1.644 -2.1606 0
M  V30 48 H 2.9601 -0.5888 0.1198 0
M  V30 49 H 3.4393 -2.114 -0.5936 0
M  V30 50 H -3.2437 5.706 0.0394 0
M  V30 51 H 4.5503 -1.7656 1.5639 0
M  V30 52 H 3.0138 -1.6132 2.3936 0
M  V30 53 H 4.6281 -6.0752 -3.0E-4 0
M  V30 54 H 4.7117 -5.9443 1.7678 0
M  V30 55 H 3.1186 -6.045 0.932 0
M  V30 END ATOM
M  V30 BEGIN BOND
M  V30 1 2 1 2
M  V30 2 1 2 3
M  V30 3 1 2 4
M  V30 4 1 3 5
M  V30 5 1 4 6
M  V30 6 1 4 7
M  V30 7 1 4 8
M  V30 8 1 6 9
M  V30 9 1 6 10
M  V30 10 1 7 11
M  V30 11 1 8 12
M  V30 12 2 9 13
M  V30 13 1 9 14
M  V30 14 2 10 15
M  V30 15 1 10 16
M  V30 16 1 11 17
M  V30 17 1 13 18
M  V30 18 2 14 19
M  V30 19 1 16 20
M  V30 20 1 17 21
M  V30 21 2 18 22
M  V30 22 1 21 23
M  V30 23 1 23 24
M  V30 24 2 24 25
M  V30 25 1 24 26
M  V30 26 1 26 27
M  V30 27 1 12 17
M  V30 28 1 19 22
M  V30 29 1 5 28
M  V30 30 1 5 29
M  V30 31 1 5 30
M  V30 32 1 7 31
M  V30 33 1 7 32
M  V30 34 1 8 33
M  V30 35 1 8 34
M  V30 36 1 11 35
M  V30 37 1 11 36
M  V30 38 1 12 37
M  V30 39 1 12 38
M  V30 40 1 13 39
M  V30 41 1 14 40
M  V30 42 1 16 41
M  V30 43 1 16 42
M  V30 44 1 18 43
M  V30 45 1 19 44
M  V30 46 1 20 45
M  V30 47 1 20 46
M  V30 48 1 20 47
M  V30 49 1 21 48
M  V30 50 1 21 49
M  V30 51 1 22 50
M  V30 52 1 23 51
M  V30 53 1 23 52
M  V30 54 1 27 53
M  V30 55 1 27 54
M  V30 56 1 27 55
M  V30 END BOND
M  V30 END CTAB
M  END
>  <NO.>
1419

>  <Name>
remifentanil

>  <SMILES>
CCC(=O)N(c1ccccc1)C1(C(=O)OC)CCN(CCC(=O)OC)CC1

>  <logBB>


>  <Class>
1

>  <MW>
376.2

>  <nHBAcc>
6

>  <nHBDon>
0

>  <SLogP>
2

>  <TopoPSA>
76.15

>  <MMFF94 Energy>
37.502

$$$$
CCC(=O)N(c1ccccc1)C1(C(=O)OC)CCN(CCc2ccccc2)CC1
Actelion Java MolfileCreator 2.0

  0  0  0  0  0  0              0 V3000
M  V30 BEGIN CTAB
M  V30 COUNTS 59 61 0 0 0
M  V30 BEGIN ATOM
M  V30 1 O -0.7929 3.4129 0.6342 0
M  V30 2 C -0.1751 2.5503 0.0138 0
M  V30 3 O 1.0049 2.7849 -0.6276 0
M  V30 4 C -0.5996 1.053 -0.0512 0
M  V30 5 C 1.4152 4.1524 -0.6188 0
M  V30 6 N -2.091 1.0778 -0.2981 0
M  V30 7 C -0.1336 0.48 1.3217 0
M  V30 8 C 0.1434 0.2598 -1.1617 0
M  V30 9 C -2.9853 0.6427 0.7101 0
M  V30 10 C -2.5804 1.6713 -1.4742 0
M  V30 11 C -0.1534 -1.0463 1.4154 0
M  V30 12 C 0.0137 -1.2496 -0.9763 0
M  V30 13 C -3.3288 1.5003 1.7597 0
M  V30 14 C -3.5714 -0.6236 0.6251 0
M  V30 15 O -1.8276 2.1572 -2.3214 0
M  V30 16 C -4.0952 1.7108 -1.6663 0
M  V30 17 N 0.5295 -1.7278 0.3101 0
M  V30 18 C -4.2335 1.0804 2.7355 0
M  V30 19 C -4.4757 -1.0406 1.6028 0
M  V30 20 C -4.4976 2.4084 -2.9564 0
M  V30 21 C 1.9973 -1.662 0.4517 0
M  V30 22 C -4.804 -0.1898 2.6583 0
M  V30 23 C 2.7574 -2.5721 -0.5289 0
M  V30 24 C 4.2417 -2.5721 -0.245 0
M  V30 25 C 5.0743 -1.6005 -0.8174 0
M  V30 26 C 4.7998 -3.5247 0.6177 0
M  V30 27 C 6.4417 -1.5889 -0.5383 0
M  V30 28 C 6.1675 -3.511 0.8954 0
M  V30 29 C 6.9879 -2.544 0.3171 0
M  V30 30 H 2.3363 4.233 -1.2025 0
M  V30 31 H 0.6543 4.7867 -1.0846 0
M  V30 32 H 1.6233 4.4814 0.404 0
M  V30 33 H 0.8985 0.8112 1.5078 0
M  V30 34 H -0.7071 0.9033 2.1538 0
M  V30 35 H -0.2114 0.5131 -2.1642 0
M  V30 36 H 1.2106 0.5113 -1.1718 0
M  V30 37 H 0.28 -1.3542 2.3758 0
M  V30 38 H -1.1818 -1.4125 1.4559 0
M  V30 39 H -1.0411 -1.5379 -1.0619 0
M  V30 40 H 0.5042 -1.7655 -1.8083 0
M  V30 41 H -2.9006 2.4984 1.822 0
M  V30 42 H -3.3262 -1.2926 -0.1951 0
M  V30 43 H -4.553 2.242 -0.8257 0
M  V30 44 H -4.4778 0.6857 -1.6914 0
M  V30 45 H -4.4965 1.747 3.5532 0
M  V30 46 H -4.9255 -2.0284 1.5409 0
M  V30 47 H -5.5871 2.4173 -3.0602 0
M  V30 48 H -4.0755 1.8977 -3.8282 0
M  V30 49 H -4.1445 3.4449 -2.9696 0
M  V30 50 H 2.2579 -1.9886 1.4679 0
M  V30 51 H 2.3658 -0.6329 0.3634 0
M  V30 52 H -5.5096 -0.5151 3.4191 0
M  V30 53 H 2.3745 -3.5988 -0.4663 0
M  V30 54 H 2.605 -2.2508 -1.5658 0
M  V30 55 H 4.6622 -0.8477 -1.4858 0
M  V30 56 H 4.171 -4.2834 1.0786 0
M  V30 57 H 7.0811 -0.8344 -0.9889 0
M  V30 58 H 6.5928 -4.2553 1.5635 0
M  V30 59 H 8.0528 -2.5347 0.5334 0
M  V30 END ATOM
M  V30 BEGIN BOND
M  V30 1 2 1 2
M  V30 2 1 2 3
M  V30 3 1 2 4
M  V30 4 1 3 5
M  V30 5 1 4 6
M  V30 6 1 4 7
M  V30 7 1 4 8
M  V30 8 1 6 9
M  V30 9 1 6 10
M  V30 10 1 7 11
M  V30 11 1 8 12
M  V30 12 2 9 13
M  V30 13 1 9 14
M  V30 14 2 10 15
M  V30 15 1 10 16
M  V30 16 1 11 17
M  V30 17 1 13 18
M  V30 18 2 14 19
M  V30 19 1 16 20
M  V30 20 1 17 21
M  V30 21 2 18 22
M  V30 22 1 21 23
M  V30 23 1 23 24
M  V30 24 2 24 25
M  V30 25 1 24 26
M  V30 26 1 25 27
M  V30 27 2 26 28
M  V30 28 2 27 29
M  V30 29 1 12 17
M  V30 30 1 19 22
M  V30 31 1 28 29
M  V30 32 1 5 30
M  V30 33 1 5 31
M  V30 34 1 5 32
M  V30 35 1 7 33
M  V30 36 1 7 34
M  V30 37 1 8 35
M  V30 38 1 8 36
M  V30 39 1 11 37
M  V30 40 1 11 38
M  V30 41 1 12 39
M  V30 42 1 12 40
M  V30 43 1 13 41
M  V30 44 1 14 42
M  V30 45 1 16 43
M  V30 46 1 16 44
M  V30 47 1 18 45
M  V30 48 1 19 46
M  V30 49 1 20 47
M  V30 50 1 20 48
M  V30 51 1 20 49
M  V30 52 1 21 50
M  V30 53 1 21 51
M  V30 54 1 22 52
M  V30 55 1 23 53
M  V30 56 1 23 54
M  V30 57 1 25 55
M  V30 58 1 26 56
M  V30 59 1 27 57
M  V30 60 1 28 58
M  V30 61 1 29 59
M  V30 END BOND
M  V30 END CTAB
M  END
>  <NO.>
1420

>  <Name>
carfentanil

>  <SMILES>
CCC(=O)N(c1ccccc1)C1(C(=O)OC)CCN(CCc2ccccc2)CC1

>  <logBB>


>  <Class>
1

>  <MW>
394.23

>  <nHBAcc>
4

>  <nHBDon>
0

>  <SLogP>
3.68

>  <TopoPSA>
49.85

>  <MMFF94 Energy>
62.725

$$$$
CCC(=O)N(c1ccccc1)C1(COC)CCN(CCn2nnn(CC)c2=O)CC1
Actelion Java MolfileCreator 2.0

  0  0  0  0  0  0              0 V3000
M  V30 BEGIN CTAB
M  V30 COUNTS 62 64 0 0 0
M  V30 BEGIN ATOM
M  V30 1 O -0.949 1.6612 -4.1174 0
M  V30 2 C -1.7152 0.7225 -4.2473 0
M  V30 3 N -1.4291 -0.5994 -4.5153 0
M  V30 4 N -3.0935 0.7233 -4.1712 0
M  V30 5 N -2.5883 -1.324 -4.5689 0
M  V30 6 C -0.125 -1.2015 -4.6109 0
M  V30 7 N -3.5698 -0.5439 -4.3638 0
M  V30 8 C -3.943 1.836 -3.8457 0
M  V30 9 C 0.235 -2.0384 -3.3679 0
M  V30 10 C -4.2755 1.8716 -2.3642 0
M  V30 11 N 0.1682 -1.3147 -2.0815 0
M  V30 12 C 0.2032 -2.2517 -0.9594 0
M  V30 13 C 1.2258 -0.3071 -1.9556 0
M  V30 14 C 0.0269 -1.5165 0.3683 0
M  V30 15 C 1.109 0.4836 -0.65 0
M  V30 16 C 1.0841 -0.3962 0.6307 0
M  V30 17 N 0.7152 0.4296 1.8715 0
M  V30 18 C 2.4733 -1.0803 0.8564 0
M  V30 19 C -0.004 -0.2324 2.9047 0
M  V30 20 C 1.2112 1.7285 2.0953 0
M  V30 21 O 3.5122 -0.1287 1.0791 0
M  V30 22 C 0.6752 -0.9712 3.8778 0
M  V30 23 C -1.3971 -0.1213 2.9562 0
M  V30 24 O 1.885 2.3596 1.2811 0
M  V30 25 C 0.8482 2.3833 3.4315 0
M  V30 26 C 4.7715 -0.7454 1.2967 0
M  V30 27 C -0.0407 -1.6109 4.8902 0
M  V30 28 C -2.1096 -0.7634 3.9689 0
M  V30 29 C 1.4033 3.7938 3.5613 0
M  V30 30 C -1.4316 -1.5091 4.9334 0
M  V30 31 H -0.1213 -1.8449 -5.498 0
M  V30 32 H 0.619 -0.4155 -4.7757 0
M  V30 33 H -4.8573 1.7612 -4.4434 0
M  V30 34 H -3.4272 2.7617 -4.1225 0
M  V30 35 H -0.4754 -2.8752 -3.335 0
M  V30 36 H 1.2299 -2.4805 -3.5076 0
M  V30 37 H -3.3657 1.95 -1.7597 0
M  V30 38 H -4.8016 0.9616 -2.0575 0
M  V30 39 H -4.9144 2.7302 -2.1368 0
M  V30 40 H -0.6252 -2.9655 -1.0509 0
M  V30 41 H 1.1264 -2.8429 -0.9603 0
M  V30 42 H 1.1608 0.4169 -2.7744 0
M  V30 43 H 2.2172 -0.771 -2.0289 0
M  V30 44 H -0.9785 -1.0744 0.3695 0
M  V30 45 H 0.0442 -2.2634 1.1716 0
M  V30 46 H 1.9528 1.1795 -0.6398 0
M  V30 47 H 0.1958 1.0937 -0.6864 0
M  V30 48 H 2.7554 -1.6899 -0.0074 0
M  V30 49 H 2.4229 -1.7523 1.7204 0
M  V30 50 H 1.7594 -1.0368 3.8637 0
M  V30 51 H -1.928 0.4618 2.2079 0
M  V30 52 H 1.2516 1.7792 4.25 0
M  V30 53 H -0.2412 2.4309 3.5245 0
M  V30 54 H 5.5156 0.0384 1.4607 0
M  V30 55 H 5.068 -1.331 0.4215 0
M  V30 56 H 4.7366 -1.3849 2.1839 0
M  V30 57 H 0.4856 -2.1831 5.6498 0
M  V30 58 H -3.1928 -0.6802 4.0071 0
M  V30 59 H 1.1229 4.2254 4.5272 0
M  V30 60 H 1.0142 4.4441 2.771 0
M  V30 61 H 2.496 3.7946 3.4913 0
M  V30 62 H -1.9881 -2.0065 5.7242 0
M  V30 END ATOM
M  V30 BEGIN BOND
M  V30 1 2 1 2
M  V30 2 1 2 3
M  V30 3 1 2 4
M  V30 4 1 3 5
M  V30 5 1 3 6
M  V30 6 1 4 7
M  V30 7 1 4 8
M  V30 8 1 6 9
M  V30 9 1 8 10
M  V30 10 1 9 11
M  V30 11 1 11 12
M  V30 12 1 11 13
M  V30 13 1 12 14
M  V30 14 1 13 15
M  V30 15 1 14 16
M  V30 16 1 16 17
M  V30 17 1 16 18
M  V30 18 1 17 19
M  V30 19 1 17 20
M  V30 20 1 18 21
M  V30 21 2 19 22
M  V30 22 1 19 23
M  V30 23 2 20 24
M  V30 24 1 20 25
M  V30 25 1 21 26
M  V30 26 1 22 27
M  V30 27 2 23 28
M  V30 28 1 25 29
M  V30 29 2 27 30
M  V30 30 2 5 7
M  V30 31 1 15 16
M  V30 32 1 28 30
M  V30 33 1 6 31
M  V30 34 1 6 32
M  V30 35 1 8 33
M  V30 36 1 8 34
M  V30 37 1 9 35
M  V30 38 1 9 36
M  V30 39 1 10 37
M  V30 40 1 10 38
M  V30 41 1 10 39
M  V30 42 1 12 40
M  V30 43 1 12 41
M  V30 44 1 13 42
M  V30 45 1 13 43
M  V30 46 1 14 44
M  V30 47 1 14 45
M  V30 48 1 15 46
M  V30 49 1 15 47
M  V30 50 1 18 48
M  V30 51 1 18 49
M  V30 52 1 22 50
M  V30 53 1 23 51
M  V30 54 1 25 52
M  V30 55 1 25 53
M  V30 56 1 26 54
M  V30 57 1 26 55
M  V30 58 1 26 56
M  V30 59 1 27 57
M  V30 60 1 28 58
M  V30 61 1 29 59
M  V30 62 1 29 60
M  V30 63 1 29 61
M  V30 64 1 30 62
M  V30 END BOND
M  V30 END CTAB
M  END
>  <NO.>
1421

>  <Name>
trimethoprim

>  <SMILES>
CCC(=O)N(c1ccccc1)C1(COC)CCN(CCn2nnn(CC)c2=O)CC1

>  <logBB>


>  <Class>
1

>  <MW>
416.25

>  <nHBAcc>
6

>  <nHBDon>
0

>  <SLogP>
1.38

>  <TopoPSA>
85.49

>  <MMFF94 Energy>
38.017

$$$$
CCC(=O)N(c1ccccc1)[C@]1(C(=O)OC)CCN(CCc2ccccc2)C[C@@H]1C
Actelion Java MolfileCreator 2.0

  0  0  0  0  0  0              0 V3000
M  V30 BEGIN CTAB
M  V30 COUNTS 62 64 0 0 0
M  V30 BEGIN ATOM
M  V30 1 O -0.5547 0.8718 3.173 0
M  V30 2 C -0.9747 0.9374 2.0193 0
M  V30 3 O -2.2949 0.8571 1.7007 0
M  V30 4 C -0.0542 1.1114 0.7711 0 CFG=2
M  V30 5 C -3.1719 0.7861 2.8248 0
M  V30 6 N 0.7265 2.3754 1.0862 0
M  V30 7 C -0.8263 1.2247 -0.5895 0 CFG=2
M  V30 8 C 0.8321 -0.1674 0.7314 0
M  V30 9 C 2.1117 2.278 1.3718 0
M  V30 10 C 0.0579 3.6026 1.1878 0
M  V30 11 C -1.4823 -0.113 -0.9986 0
M  V30 12 C 0.0658 1.7243 -1.7405 0
M  V30 13 C 0.063 -1.4161 0.3046 0
M  V30 14 C 3.0509 2.4309 0.3482 0
M  V30 15 C 2.5375 2.0446 2.6828 0
M  V30 16 O -1.1629 3.6949 1.0469 0
M  V30 17 C 0.9038 4.8367 1.4923 0
M  V30 18 N -0.524 -1.2273 -1.0247 0
M  V30 19 C 4.4133 2.342 0.6359 0
M  V30 20 C 3.9005 1.9564 2.9665 0
M  V30 21 C 0.0753 6.1109 1.5346 0
M  V30 22 C -1.1975 -2.4528 -1.508 0
M  V30 23 C 4.837 2.1043 1.9436 0
M  V30 24 C -0.2194 -3.5812 -1.878 0
M  V30 25 C -0.9402 -4.761 -2.4878 0
M  V30 26 C -1.465 -5.7725 -1.672 0
M  V30 27 C -1.1188 -4.8438 -3.8751 0
M  V30 28 C -2.1478 -6.8514 -2.2355 0
M  V30 29 C -1.8021 -5.9235 -4.4363 0
M  V30 30 C -2.3157 -6.927 -3.6168 0
M  V30 31 H -4.1996 0.7721 2.4517 0
M  V30 32 H -2.9955 -0.1351 3.3885 0
M  V30 33 H -3.0489 1.6647 3.4659 0
M  V30 34 H -1.6447 1.9485 -0.4992 0
M  V30 35 H 1.6703 -0.0331 0.0366 0
M  V30 36 H 1.277 -0.3697 1.714 0
M  V30 37 H -1.9188 0.016 -1.998 0
M  V30 38 H -2.3238 -0.3546 -0.3397 0
M  V30 39 H -0.4979 1.7528 -2.6797 0
M  V30 40 H 0.9372 1.082 -1.8977 0
M  V30 41 H 0.4189 2.7431 -1.5569 0
M  V30 42 H 0.7813 -2.2425 0.2929 0
M  V30 43 H -0.7035 -1.6707 1.0474 0
M  V30 44 H 2.7325 2.6187 -0.6727 0
M  V30 45 H 1.814 1.9288 3.4867 0
M  V30 46 H 1.6707 4.9443 0.7186 0
M  V30 47 H 1.3935 4.7059 2.4625 0
M  V30 48 H 5.145 2.458 -0.1594 0
M  V30 49 H 4.2309 1.7718 3.9856 0
M  V30 50 H 0.714 6.9732 1.7493 0
M  V30 51 H -0.6944 6.0543 2.3114 0
M  V30 52 H -0.4254 6.2863 0.5767 0
M  V30 53 H -1.7685 -2.2061 -2.4136 0
M  V30 54 H -1.9289 -2.8086 -0.7697 0
M  V30 55 H 5.899 2.0347 2.1662 0
M  V30 56 H 0.5333 -3.2104 -2.5854 0
M  V30 57 H 0.335 -3.9305 -0.9995 0
M  V30 58 H -1.3436 -5.7265 -0.5921 0
M  V30 59 H -0.7263 -4.0661 -4.5267 0
M  V30 60 H -2.5491 -7.6334 -1.5963 0
M  V30 61 H -1.934 -5.9811 -5.5135 0
M  V30 62 H -2.8472 -7.7675 -4.0549 0
M  V30 END ATOM
M  V30 BEGIN BOND
M  V30 1 2 1 2
M  V30 2 1 2 3
M  V30 3 1 2 4
M  V30 4 1 3 5
M  V30 5 1 4 6
M  V30 6 1 4 7
M  V30 7 1 4 8
M  V30 8 1 6 9
M  V30 9 1 6 10
M  V30 10 1 7 11
M  V30 11 1 7 12
M  V30 12 1 8 13
M  V30 13 2 9 14
M  V30 14 1 9 15
M  V30 15 2 10 16
M  V30 16 1 10 17
M  V30 17 1 11 18
M  V30 18 1 14 19
M  V30 19 2 15 20
M  V30 20 1 17 21
M  V30 21 1 18 22
M  V30 22 2 19 23
M  V30 23 1 22 24
M  V30 24 1 24 25
M  V30 25 2 25 26
M  V30 26 1 25 27
M  V30 27 1 26 28
M  V30 28 2 27 29
M  V30 29 2 28 30
M  V30 30 1 13 18
M  V30 31 1 20 23
M  V30 32 1 29 30
M  V30 33 1 5 31
M  V30 34 1 5 32
M  V30 35 1 5 33
M  V30 36 1 7 34
M  V30 37 1 8 35
M  V30 38 1 8 36
M  V30 39 1 11 37
M  V30 40 1 11 38
M  V30 41 1 12 39
M  V30 42 1 12 40
M  V30 43 1 12 41
M  V30 44 1 13 42
M  V30 45 1 13 43
M  V30 46 1 14 44
M  V30 47 1 15 45
M  V30 48 1 17 46
M  V30 49 1 17 47
M  V30 50 1 19 48
M  V30 51 1 20 49
M  V30 52 1 21 50
M  V30 53 1 21 51
M  V30 54 1 21 52
M  V30 55 1 22 53
M  V30 56 1 22 54
M  V30 57 1 23 55
M  V30 58 1 24 56
M  V30 59 1 24 57
M  V30 60 1 26 58
M  V30 61 1 27 59
M  V30 62 1 28 60
M  V30 63 1 29 61
M  V30 64 1 30 62
M  V30 END BOND
M  V30 BEGIN COLLECTION
M  V30 MDLV30/STEABS ATOMS=(2 4 7)
M  V30 END COLLECTION
M  V30 END CTAB
M  END
>  <NO.>
1422

>  <Name>
lofentanil

>  <SMILES>
CCC(=O)N(c1ccccc1)[C@]1(C(=O)OC)CCN(CCc2ccccc2)C[C@@H]1C

>  <logBB>


>  <Class>
1

>  <MW>
408.24

>  <nHBAcc>
4

>  <nHBDon>
0

>  <SLogP>
3.93

>  <TopoPSA>
49.85

>  <MMFF94 Energy>
60.906

$$$$
CCC(=O)N(c1ccccc1F)C1(c2ccccc2)CCN(CCn2nnn(CC)c2=O)CC1
Actelion Java MolfileCreator 2.0

  0  0  0  0  0  0              0 V3000
M  V30 BEGIN CTAB
M  V30 COUNTS 65 68 0 0 0
M  V30 BEGIN ATOM
M  V30 1 F -3.1131 -0.1594 -2.1544 0
M  V30 2 C -3.6635 -0.3007 -0.9397 0
M  V30 3 C -2.94 -0.9012 0.0993 0
M  V30 4 C -4.972 0.1354 -0.75 0
M  V30 5 N -1.5944 -1.3512 -0.108 0
M  V30 6 C -3.5736 -1.0965 1.3316 0
M  V30 7 C -5.5838 -0.0384 0.4895 0
M  V30 8 C -1.3798 -2.5865 -0.7401 0
M  V30 9 C -0.4769 -0.5535 0.5807 0
M  V30 10 C -4.8873 -0.6594 1.5266 0
M  V30 11 O -0.264 -3.0794 -0.9093 0
M  V30 12 C -2.6117 -3.3459 -1.2406 0
M  V30 13 C -0.3894 -1.0173 2.0689 0
M  V30 14 C 0.9482 -0.7346 -0.0342 0
M  V30 15 C -0.7312 0.9897 0.4604 0
M  V30 16 C -2.2644 -4.7194 -1.7957 0
M  V30 17 C 0.008 -2.3352 2.3749 0
M  V30 18 C -0.7185 -0.1796 3.1518 0
M  V30 19 C 1.0637 -0.1881 -1.4544 0
M  V30 20 C -0.5465 1.5301 -0.9597 0
M  V30 21 C 0.0806 -2.7899 3.6943 0
M  V30 22 C -0.6455 -0.6353 4.4727 0
M  V30 23 N 0.8012 1.2575 -1.4659 0
M  V30 24 C -0.2456 -1.939 4.7437 0
M  V30 25 C 0.9749 1.8387 -2.8132 0
M  V30 26 C 2.4309 1.896 -3.3144 0
M  V30 27 N 3.2971 2.6161 -2.4171 0
M  V30 28 N 3.2409 3.9744 -2.2625 0
M  V30 29 C 4.1927 2.079 -1.5164 0
M  V30 30 N 4.046 4.3165 -1.3413 0
M  V30 31 O 4.5035 0.9131 -1.344 0
M  V30 32 N 4.6634 3.1968 -0.8566 0
M  V30 33 C 5.5862 3.229 0.2444 0
M  V30 34 C 4.8636 3.2551 1.5799 0
M  V30 35 H -5.5075 0.5992 -1.5725 0
M  V30 36 H -3.0647 -1.6043 2.1466 0
M  V30 37 H -6.6065 0.2969 0.6448 0
M  V30 38 H -5.369 -0.8122 2.4901 0
M  V30 39 H -3.0898 -2.7655 -2.035 0
M  V30 40 H -3.3192 -3.4788 -0.4162 0
M  V30 41 H 1.6772 -0.1995 0.5952 0
M  V30 42 H 1.3024 -1.7682 -0.0167 0
M  V30 43 H -1.7255 1.2751 0.8223 0
M  V30 44 H -0.0185 1.5292 1.1018 0
M  V30 45 H -3.1699 -5.2328 -2.1334 0
M  V30 46 H -1.7827 -5.3408 -1.0335 0
M  V30 47 H -1.5806 -4.639 -2.647 0
M  V30 48 H 0.2723 -3.0327 1.5823 0
M  V30 49 H -1.0474 0.8443 2.9994 0
M  V30 50 H 0.3854 -0.7171 -2.1341 0
M  V30 51 H 2.0829 -0.3913 -1.7977 0
M  V30 52 H -1.2991 1.1218 -1.6372 0
M  V30 53 H -0.7091 2.6146 -0.9225 0
M  V30 54 H 0.3967 -3.8099 3.8968 0
M  V30 55 H -0.9016 0.0336 5.2905 0
M  V30 56 H -0.1858 -2.2907 5.7699 0
M  V30 57 H 0.6047 2.8727 -2.7976 0
M  V30 58 H 0.3623 1.2993 -3.547 0
M  V30 59 H 2.4635 2.4026 -4.2856 0
M  V30 60 H 2.8297 0.8869 -3.4597 0
M  V30 61 H 6.2256 4.1112 0.1358 0
M  V30 62 H 6.2206 2.3377 0.1943 0
M  V30 63 H 4.2245 2.3735 1.6975 0
M  V30 64 H 4.2265 4.1417 1.6649 0
M  V30 65 H 5.5837 3.27 2.4035 0
M  V30 END ATOM
M  V30 BEGIN BOND
M  V30 1 1 1 2
M  V30 2 2 2 3
M  V30 3 1 2 4
M  V30 4 1 3 5
M  V30 5 1 3 6
M  V30 6 2 4 7
M  V30 7 1 5 8
M  V30 8 1 5 9
M  V30 9 2 6 10
M  V30 10 2 8 11
M  V30 11 1 8 12
M  V30 12 1 9 13
M  V30 13 1 9 14
M  V30 14 1 9 15
M  V30 15 1 12 16
M  V30 16 2 13 17
M  V30 17 1 13 18
M  V30 18 1 14 19
M  V30 19 1 15 20
M  V30 20 1 17 21
M  V30 21 2 18 22
M  V30 22 1 19 23
M  V30 23 2 21 24
M  V30 24 1 23 25
M  V30 25 1 25 26
M  V30 26 1 26 27
M  V30 27 1 27 28
M  V30 28 1 27 29
M  V30 29 2 28 30
M  V30 30 2 29 31
M  V30 31 1 29 32
M  V30 32 1 32 33
M  V30 33 1 33 34
M  V30 34 1 7 10
M  V30 35 1 20 23
M  V30 36 1 22 24
M  V30 37 1 30 32
M  V30 38 1 4 35
M  V30 39 1 6 36
M  V30 40 1 7 37
M  V30 41 1 10 38
M  V30 42 1 12 39
M  V30 43 1 12 40
M  V30 44 1 14 41
M  V30 45 1 14 42
M  V30 46 1 15 43
M  V30 47 1 15 44
M  V30 48 1 16 45
M  V30 49 1 16 46
M  V30 50 1 16 47
M  V30 51 1 17 48
M  V30 52 1 18 49
M  V30 53 1 19 50
M  V30 54 1 19 51
M  V30 55 1 20 52
M  V30 56 1 20 53
M  V30 57 1 21 54
M  V30 58 1 22 55
M  V30 59 1 24 56
M  V30 60 1 25 57
M  V30 61 1 25 58
M  V30 62 1 26 59
M  V30 63 1 26 60
M  V30 64 1 33 61
M  V30 65 1 33 62
M  V30 66 1 34 63
M  V30 67 1 34 64
M  V30 68 1 34 65
M  V30 END BOND
M  V30 END CTAB
M  END
>  <NO.>
1423

>  <Name>
trefentanil

>  <SMILES>
CCC(=O)N(c1ccccc1F)C1(c2ccccc2)CCN(CCn2nnn(CC)c2=O)CC1

>  <logBB>


>  <Class>
1

>  <MW>
466.25

>  <nHBAcc>
5

>  <nHBDon>
0

>  <SLogP>
3.03

>  <TopoPSA>
76.26

>  <MMFF94 Energy>
47.578

$$$$
CCC(=O)N1CCN(C(=O)OC2C3=C(SCCS3)C(=O)N2c2ccc3ccc(Cl)nc3n2)CC1
Actelion Java MolfileCreator 2.0

  0  0  0  0  0  0              0 V3000
M  V30 BEGIN CTAB
M  V30 COUNTS 56 60 0 0 0
M  V30 BEGIN ATOM
M  V30 1 Cl 2.7263 -4.2984 -0.9907 0
M  V30 2 C 2.1463 -3.235 -2.2053 0
M  V30 3 N 1.1453 -2.429 -1.806 0
M  V30 4 C 2.6986 -3.2405 -3.4701 0
M  V30 5 C 0.6429 -1.5705 -2.6887 0
M  V30 6 C 2.1812 -2.3437 -4.3914 0
M  V30 7 N -0.3439 -0.7774 -2.2808 0
M  V30 8 C 1.1404 -1.4895 -4.0004 0
M  V30 9 C -0.8693 0.1571 -3.1039 0
M  V30 10 C 0.5808 -0.5508 -4.8705 0
M  V30 11 N -1.8724 0.9834 -2.5616 0
M  V30 12 C -0.4335 0.2845 -4.414 0
M  V30 13 C -2.3923 2.1423 -3.1069 0
M  V30 14 C -2.4684 0.6775 -1.2827 0 CFG=1
M  V30 15 O -2.0893 2.6928 -4.1527 0
M  V30 16 C -3.4412 2.6329 -2.1734 0
M  V30 17 O -1.4751 0.7872 -0.2687 0
M  V30 18 C -3.4716 1.7931 -1.1341 0
M  V30 19 S -4.351 4.0384 -2.5029 0
M  V30 20 C -1.4818 -0.2388 0.6192 0
M  V30 21 S -4.5339 1.8773 0.2274 0
M  V30 22 C -5.6717 3.9185 -1.2631 0
M  V30 23 O -2.4136 -1.0228 0.7561 0
M  V30 24 N -0.3151 -0.3038 1.3528 0
M  V30 25 C -5.1353 3.589 0.1221 0
M  V30 26 C 0.8514 0.5341 1.0649 0
M  V30 27 C -0.1488 -1.3685 2.3363 0
M  V30 28 C 2.1685 -0.1261 1.4881 0
M  V30 29 C 0.8663 -1.0092 3.4278 0
M  V30 30 N 2.1536 -0.5428 2.8951 0
M  V30 31 C 3.3276 -0.4675 3.6312 0
M  V30 32 O 4.3889 -0.0935 3.1326 0
M  V30 33 C 3.2373 -0.8753 5.0945 0
M  V30 34 C 4.5267 -0.6085 5.8532 0
M  V30 35 H 3.5058 -3.9148 -3.731 0
M  V30 36 H 2.5877 -2.3076 -5.3988 0
M  V30 37 H 0.9311 -0.4538 -5.895 0
M  V30 38 H -0.8553 1.0117 -5.0988 0
M  V30 39 H -2.9603 -0.3012 -1.3572 0
M  V30 40 H -6.4159 3.1838 -1.5912 0
M  V30 41 H -6.1746 4.8908 -1.2333 0
M  V30 42 H -4.3387 4.2791 0.4225 0
M  V30 43 H -5.9422 3.6924 0.8553 0
M  V30 44 H 0.889 0.7806 -7.0E-4 0
M  V30 45 H 0.7059 1.469 1.619 0
M  V30 46 H -1.1157 -1.6173 2.787 0
M  V30 47 H 0.1922 -2.2541 1.7858 0
M  V30 48 H 2.3427 -1.0321 0.8951 0
M  V30 49 H 3.0025 0.5569 1.2974 0
M  V30 50 H 1.0273 -1.8721 4.0804 0
M  V30 51 H 0.4719 -0.1929 4.0449 0
M  V30 52 H 3.0104 -1.9453 5.1448 0
M  V30 53 H 2.4226 -0.3204 5.5716 0
M  V30 54 H 4.42 -0.9046 6.9013 0
M  V30 55 H 4.7879 0.4544 5.8223 0
M  V30 56 H 5.3609 -1.1722 5.4227 0
M  V30 END ATOM
M  V30 BEGIN BOND
M  V30 1 1 1 2
M  V30 2 2 2 3
M  V30 3 1 2 4
M  V30 4 1 3 5
M  V30 5 2 4 6
M  V30 6 2 5 7
M  V30 7 1 5 8
M  V30 8 1 7 9
M  V30 9 2 8 10
M  V30 10 1 9 11
M  V30 11 2 9 12
M  V30 12 1 11 13
M  V30 13 1 11 14
M  V30 14 2 13 15
M  V30 15 1 13 16
M  V30 16 1 14 17
M  V30 17 1 14 18
M  V30 18 1 16 19
M  V30 19 1 17 20
M  V30 20 1 18 21
M  V30 21 1 19 22
M  V30 22 2 20 23
M  V30 23 1 20 24
M  V30 24 1 21 25
M  V30 25 1 24 26
M  V30 26 1 24 27
M  V30 27 1 26 28
M  V30 28 1 27 29
M  V30 29 1 28 30
M  V30 30 1 30 31
M  V30 31 2 31 32
M  V30 32 1 31 33
M  V30 33 1 33 34
M  V30 34 1 6 8
M  V30 35 1 10 12
M  V30 36 2 16 18
M  V30 37 1 22 25
M  V30 38 1 29 30
M  V30 39 1 4 35
M  V30 40 1 6 36
M  V30 41 1 10 37
M  V30 42 1 12 38
M  V30 43 1 14 39
M  V30 44 1 22 40
M  V30 45 1 22 41
M  V30 46 1 25 42
M  V30 47 1 25 43
M  V30 48 1 26 44
M  V30 49 1 26 45
M  V30 50 1 27 46
M  V30 51 1 27 47
M  V30 52 1 28 48
M  V30 53 1 28 49
M  V30 54 1 29 50
M  V30 55 1 29 51
M  V30 56 1 33 52
M  V30 57 1 33 53
M  V30 58 1 34 54
M  V30 59 1 34 55
M  V30 60 1 34 56
M  V30 END BOND
M  V30 BEGIN COLLECTION
M  V30 MDLV30/STERAC1 ATOMS=(1 14)
M  V30 END COLLECTION
M  V30 END CTAB
M  END
>  <NO.>
1424

>  <Name>
suproclone

>  <SMILES>
CCC(=O)N1CCN(C(=O)OC2C3=C(SCCS3)C(=O)N2c2ccc3ccc(Cl)nc3n2)CC1

>  <logBB>


>  <Class>
1

>  <MW>
519.08

>  <nHBAcc>
8

>  <nHBDon>
0

>  <SLogP>
3.34

>  <TopoPSA>
95.94

>  <MMFF94 Energy>
-43.885

$$$$
CCC(=O)Nc1ccc(O)cc1
Actelion Java MolfileCreator 2.0

  0  0  0  0  0  0              0 V3000
M  V30 BEGIN CTAB
M  V30 COUNTS 23 23 0 0 0
M  V30 BEGIN ATOM
M  V30 1 O -0.5441 -1.2441 1.7109 0
M  V30 2 C -1.1223 -1.0688 0.6451 0
M  V30 3 N -0.7014 -0.2613 -0.4002 0
M  V30 4 C -2.4426 -1.7502 0.3179 0
M  V30 5 C 0.4678 0.524 -0.4648 0
M  V30 6 C -2.9357 -2.6441 1.4414 0
M  V30 7 C 1.4131 0.6057 0.5607 0
M  V30 8 C 0.6775 1.2616 -1.6383 0
M  V30 9 C 2.5502 1.4099 0.4193 0
M  V30 10 C 1.8116 2.0649 -1.7817 0
M  V30 11 C 2.7392 2.133 -0.7519 0
M  V30 12 O 3.8317 2.9274 -0.93 0
M  V30 13 H -1.3002 -0.2279 -1.2156 0
M  V30 14 H -2.3094 -2.3459 -0.5923 0
M  V30 15 H -3.1906 -0.9763 0.1107 0
M  V30 16 H -3.8852 -3.1137 1.1663 0
M  V30 17 H -3.0918 -2.0702 2.3609 0
M  V30 18 H -2.2125 -3.4369 1.6594 0
M  V30 19 H 1.2965 0.0544 1.4885 0
M  V30 20 H -0.035 1.224 -2.4576 0
M  V30 21 H 3.2674 1.4536 1.233 0
M  V30 22 H 1.9692 2.6344 -2.6931 0
M  V30 23 H 4.3847 2.874 -0.1329 0
M  V30 END ATOM
M  V30 BEGIN BOND
M  V30 1 2 1 2
M  V30 2 1 2 3
M  V30 3 1 2 4
M  V30 4 1 3 5
M  V30 5 1 4 6
M  V30 6 2 5 7
M  V30 7 1 5 8
M  V30 8 1 7 9
M  V30 9 2 8 10
M  V30 10 2 9 11
M  V30 11 1 11 12
M  V30 12 1 10 11
M  V30 13 1 3 13
M  V30 14 1 4 14
M  V30 15 1 4 15
M  V30 16 1 6 16
M  V30 17 1 6 17
M  V30 18 1 6 18
M  V30 19 1 7 19
M  V30 20 1 8 20
M  V30 21 1 9 21
M  V30 22 1 10 22
M  V30 23 1 12 23
M  V30 END BOND
M  V30 END CTAB
M  END
>  <NO.>
1425

>  <Name>
parapropamol

>  <SMILES>
CCC(=O)Nc1ccc(O)cc1

>  <logBB>


>  <Class>
1

>  <MW>
165.08

>  <nHBAcc>
2

>  <nHBDon>
2

>  <SLogP>
1.74

>  <TopoPSA>
49.33

>  <MMFF94 Energy>
-13.538

$$$$
CCC(=O)OC1(c2ccccc2)CCN(C)CC1C
Actelion Java MolfileCreator 2.0

  0  0  0  0  0  0              0 V3000
M  V30 BEGIN CTAB
M  V30 COUNTS 42 43 0 0 0
M  V30 BEGIN ATOM
M  V30 1 O 0.5526 1.3424 -2.1328 0
M  V30 2 C 1.0192 0.2883 -1.7322 0
M  V30 3 O 0.6786 -0.3596 -0.5844 0
M  V30 4 C 2.0852 -0.5132 -2.4419 0
M  V30 5 C -0.3409 0.1736 0.3228 0
M  V30 6 C 2.513 0.134 -3.7472 0
M  V30 7 C -1.7472 0.0927 -0.3076 0
M  V30 8 C -0.2871 -0.7404 1.5946 0
M  V30 9 C 0.0422 1.607 0.7811 0
M  V30 10 C -2.0148 -0.7692 -1.3892 0
M  V30 11 C -2.8279 0.8311 0.2088 0
M  V30 12 C 1.0829 -0.6124 2.2961 0
M  V30 13 C -0.5402 -2.2288 1.3045 0
M  V30 14 C 1.4053 1.6401 1.4669 0
M  V30 15 C -3.2923 -0.8622 -1.9493 0
M  V30 16 C -4.1063 0.7381 -0.3508 0
M  V30 17 N 1.3899 0.7778 2.653 0
M  V30 18 C -4.3373 -0.1047 -1.4324 0
M  V30 19 C 2.6691 0.8571 3.3598 0
M  V30 20 H 1.6878 -1.513 -2.6468 0
M  V30 21 H 2.952 -0.6002 -1.7782 0
M  V30 22 H 3.2831 -0.4693 -4.2375 0
M  V30 23 H 2.921 1.1355 -3.5742 0
M  V30 24 H 1.6654 0.2318 -4.4338 0
M  V30 25 H -1.0617 -0.4117 2.303 0
M  V30 26 H 0.0486 2.3134 -0.0545 0
M  V30 27 H -0.6944 2.0011 1.4922 0
M  V30 28 H -1.2306 -1.3944 -1.8083 0
M  V30 29 H -2.7021 1.488 1.0653 0
M  V30 30 H 1.8758 -1.0349 1.6639 0
M  V30 31 H 1.0556 -1.2143 3.214 0
M  V30 32 H -0.4398 -2.8211 2.221 0
M  V30 33 H -1.5537 -2.398 0.9294 0
M  V30 34 H 0.1696 -2.6274 0.5727 0
M  V30 35 H 1.6072 2.6753 1.7692 0
M  V30 36 H 2.2002 1.3486 0.7693 0
M  V30 37 H -3.4687 -1.53 -2.7884 0
M  V30 38 H -4.9221 1.3253 0.0634 0
M  V30 39 H -5.3304 -0.175 -1.8675 0
M  V30 40 H 2.8731 1.8875 3.6716 0
M  V30 41 H 2.642 0.2532 4.2737 0
M  V30 42 H 3.5055 0.5112 2.7417 0
M  V30 END ATOM
M  V30 BEGIN BOND
M  V30 1 2 1 2
M  V30 2 1 2 3
M  V30 3 1 2 4
M  V30 4 1 3 5
M  V30 5 1 4 6
M  V30 6 1 5 7
M  V30 7 1 5 8
M  V30 8 1 5 9
M  V30 9 2 7 10
M  V30 10 1 7 11
M  V30 11 1 8 12
M  V30 12 1 8 13
M  V30 13 1 9 14
M  V30 14 1 10 15
M  V30 15 2 11 16
M  V30 16 1 12 17
M  V30 17 2 15 18
M  V30 18 1 17 19
M  V30 19 1 14 17
M  V30 20 1 16 18
M  V30 21 1 4 20
M  V30 22 1 4 21
M  V30 23 1 6 22
M  V30 24 1 6 23
M  V30 25 1 6 24
M  V30 26 1 8 25
M  V30 27 1 9 26
M  V30 28 1 9 27
M  V30 29 1 10 28
M  V30 30 1 11 29
M  V30 31 1 12 30
M  V30 32 1 12 31
M  V30 33 1 13 32
M  V30 34 1 13 33
M  V30 35 1 13 34
M  V30 36 1 14 35
M  V30 37 1 14 36
M  V30 38 1 15 37
M  V30 39 1 16 38
M  V30 40 1 18 39
M  V30 41 1 19 40
M  V30 42 1 19 41
M  V30 43 1 19 42
M  V30 END BOND
M  V30 END CTAB
M  END
>  <NO.>
1426

>  <Name>
alphaprodine (betaprodine)

>  <SMILES>
CCC(=O)OC1(c2ccccc2)CCN(C)CC1C

>  <logBB>


>  <Class>
1

>  <MW>
261.17

>  <nHBAcc>
3

>  <nHBDon>
0

>  <SLogP>
2.81

>  <TopoPSA>
29.54

>  <MMFF94 Energy>
22.798

$$$$
CCC(=O)OCC(=O)[C@@]1(OC(=O)CC)[C@@H](C)C[C@H]2[C@@H]3CCC4=CC(=O)C=C[C@]4(C)[C@@]3(Cl)[C@@H](O)C[C@@]21C
Actelion Java MolfileCreator 2.0

  0  0  0  0  0  0              0 V3000
M  V30 BEGIN CTAB
M  V30 COUNTS 73 76 0 0 0
M  V30 BEGIN ATOM
M  V30 1 Cl 0.4857 -1.2956 -2.9981 0
M  V30 2 C -0.8078 -1.8681 -1.7794 0 CFG=2
M  V30 3 C -1.6391 -3.0348 -2.4893 0 CFG=2
M  V30 4 C -1.6234 -0.5713 -1.4296 0 CFG=1
M  V30 5 C -0.0581 -2.4153 -0.5019 0 CFG=2
M  V30 6 C -0.6855 -4.2198 -2.7426 0
M  V30 7 C -2.2844 -2.5565 -3.7898 0
M  V30 8 C -2.8131 -3.5881 -1.6417 0
M  V30 9 O -2.8867 -0.812 -0.8153 0
M  V30 10 C -0.8488 0.4763 -0.5876 0
M  V30 11 C 0.7508 -1.293 0.1766 0 CFG=1
M  V30 12 C 0.8275 -3.6368 -0.8226 0
M  V30 13 C -0.4795 -4.7568 -3.9588 0
M  V30 14 C 0.0579 -4.7445 -1.5393 0
M  V30 15 C -2.0741 -3.0993 -4.9965 0
M  V30 16 C -0.1109 -0.0965 0.6487 0 CFG=1
M  V30 17 C 1.5723 -1.6198 1.416 0
M  V30 18 C -1.1619 -4.2464 -5.1666 0
M  V30 19 C 1.0175 0.8323 1.2816 0 CFG=1
M  V30 20 C -1.1433 -0.4931 1.7425 0
M  V30 21 C 2.0093 -0.2232 1.9319 0 CFG=1
M  V30 22 O -0.9794 -4.7579 -6.2639 0
M  V30 23 O 1.719 1.4449 0.1591 0
M  V30 24 C 0.3776 1.9103 2.215 0
M  V30 25 C 2.175 -0.2322 3.446 0
M  V30 26 C 2.7847 2.2549 0.4169 0
M  V30 27 O 0.1124 1.684 3.3989 0
M  V30 28 C -0.006 3.2435 1.5747 0
M  V30 29 O 3.1498 2.5733 1.537 0
M  V30 30 C 3.4069 2.7016 -0.8822 0
M  V30 31 O -1.0638 3.8632 2.3076 0
M  V30 32 C 4.6134 3.5949 -0.6558 0
M  V30 33 C -1.4566 5.0585 1.795 0
M  V30 34 O -0.9988 5.5708 0.7826 0
M  V30 35 C -2.5356 5.6728 2.646 0
M  V30 36 C -1.9578 6.257 3.9194 0
M  V30 37 H -1.8859 -0.0682 -2.3688 0
M  V30 38 H -0.8073 -2.7703 0.2122 0
M  V30 39 H -2.9806 -1.7217 -3.7223 0
M  V30 40 H -3.6785 -2.9171 -1.6334 0
M  V30 41 H -2.535 -3.7786 -0.6015 0
M  V30 42 H -3.1803 -4.5397 -2.0497 0
M  V30 43 H -2.788 -1.3992 -0.0516 0
M  V30 44 H -0.1307 0.966 -1.2549 0
M  V30 45 H -1.5464 1.258 -0.263 0
M  V30 46 H 1.4811 -0.9358 -0.5626 0
M  V30 47 H 1.2355 -4.0522 0.1067 0
M  V30 48 H 1.6922 -3.3384 -1.4277 0
M  V30 49 H 0.2005 -5.5835 -4.1298 0
M  V30 50 H 0.7627 -5.5361 -1.8216 0
M  V30 51 H -0.6543 -5.207 -0.8457 0
M  V30 52 H -2.5591 -2.7329 -5.8931 0
M  V30 53 H 2.4479 -2.2329 1.1767 0
M  V30 54 H 0.9816 -2.1686 2.158 0
M  V30 55 H -1.8772 0.3067 1.8938 0
M  V30 56 H -1.6971 -1.4019 1.5112 0
M  V30 57 H -0.6776 -0.6849 2.7127 0
M  V30 58 H 3.0141 -0.0593 1.5199 0
M  V30 59 H 1.2476 -0.49 3.9647 0
M  V30 60 H 2.9235 -0.9773 3.7384 0
M  V30 61 H 2.5263 0.7387 3.8085 0
M  V30 62 H 0.8722 3.8958 1.5874 0
M  V30 63 H -0.3398 3.0682 0.5487 0
M  V30 64 H 2.652 3.2475 -1.4578 0
M  V30 65 H 3.7131 1.8125 -1.4432 0
M  V30 66 H 5.046 3.9014 -1.6131 0
M  V30 67 H 5.3863 3.0735 -0.0814 0
M  V30 68 H 4.3358 4.4973 -0.1007 0
M  V30 69 H -3.2946 4.9141 2.8657 0
M  V30 70 H -3.03 6.4557 2.0603 0
M  V30 71 H -2.7445 6.733 4.5128 0
M  V30 72 H -1.194 7.0088 3.6945 0
M  V30 73 H -1.489 5.481 4.5334 0
M  V30 END ATOM
M  V30 BEGIN BOND
M  V30 1 1 1 2
M  V30 2 1 2 3
M  V30 3 1 2 4
M  V30 4 1 2 5
M  V30 5 1 3 6
M  V30 6 1 3 7
M  V30 7 1 3 8
M  V30 8 1 4 9
M  V30 9 1 4 10
M  V30 10 1 5 11
M  V30 11 1 5 12
M  V30 12 2 6 13
M  V30 13 1 6 14
M  V30 14 2 7 15
M  V30 15 1 10 16
M  V30 16 1 11 17
M  V30 17 1 13 18
M  V30 18 1 16 19
M  V30 19 1 16 20
M  V30 20 1 17 21
M  V30 21 2 18 22
M  V30 22 1 19 23
M  V30 23 1 19 24
M  V30 24 1 21 25
M  V30 25 1 23 26
M  V30 26 2 24 27
M  V30 27 1 24 28
M  V30 28 2 26 29
M  V30 29 1 26 30
M  V30 30 1 28 31
M  V30 31 1 30 32
M  V30 32 1 31 33
M  V30 33 2 33 34
M  V30 34 1 33 35
M  V30 35 1 35 36
M  V30 36 1 11 16
M  V30 37 1 12 14
M  V30 38 1 15 18
M  V30 39 1 19 21
M  V30 40 1 4 37
M  V30 41 1 5 38
M  V30 42 1 7 39
M  V30 43 1 8 40
M  V30 44 1 8 41
M  V30 45 1 8 42
M  V30 46 1 9 43
M  V30 47 1 10 44
M  V30 48 1 10 45
M  V30 49 1 11 46
M  V30 50 1 12 47
M  V30 51 1 12 48
M  V30 52 1 13 49
M  V30 53 1 14 50
M  V30 54 1 14 51
M  V30 55 1 15 52
M  V30 56 1 17 53
M  V30 57 1 17 54
M  V30 58 1 20 55
M  V30 59 1 20 56
M  V30 60 1 20 57
M  V30 61 1 21 58
M  V30 62 1 25 59
M  V30 63 1 25 60
M  V30 64 1 25 61
M  V30 65 1 28 62
M  V30 66 1 28 63
M  V30 67 1 30 64
M  V30 68 1 30 65
M  V30 69 1 32 66
M  V30 70 1 32 67
M  V30 71 1 32 68
M  V30 72 1 35 69
M  V30 73 1 35 70
M  V30 74 1 36 71
M  V30 75 1 36 72
M  V30 76 1 36 73
M  V30 END BOND
M  V30 BEGIN COLLECTION
M  V30 MDLV30/STEABS ATOMS=(8 2 3 4 5 11 16 19 21)
M  V30 END COLLECTION
M  V30 END CTAB
M  END
>  <NO.>
1428

>  <Name>
beclomethasonedipropionate(beclometasone-dipropionate)

>  <SMILES>
CCC(=O)OCC(=O)[C@@]1(OC(=O)CC)[C@@H](C)C[C@H]2[C@@H]3CCC4=CC(=O)C=C[C@]4(C)[C@@]3(Cl)[C@@H](O)C[C@@]21C

>  <logBB>


>  <Class>
1

>  <MW>
520.22

>  <nHBAcc>
7

>  <nHBDon>
1

>  <SLogP>
4.09

>  <TopoPSA>
106.97

>  <MMFF94 Energy>
139.57

$$$$
CCC(=O)OCC(=O)[C@@]1(OC(=O)CC)[C@@H](C)C[C@H]2[C@@H]3CCC4=CC(=O)C=C[C@]4(C)[C@@]3(F)[C@@H](O)C[C@@]21C
Actelion Java MolfileCreator 2.0

  0  0  0  0  0  0              0 V3000
M  V30 BEGIN CTAB
M  V30 COUNTS 73 76 0 0 0
M  V30 BEGIN ATOM
M  V30 1 F -1.5303 1.8527 1.6109 0
M  V30 2 C -0.2638 1.5606 2.0995 0 CFG=2
M  V30 3 C -0.0407 2.5194 3.3403 0 CFG=2
M  V30 4 C 0.6873 1.793 0.8837 0 CFG=1
M  V30 5 C -0.3221 0.0534 2.5155 0 CFG=2
M  V30 6 C -1.108 2.1757 4.3947 0
M  V30 7 C -0.1424 3.9843 2.9196 0
M  V30 8 C 1.3438 2.3647 4.0108 0
M  V30 9 O 2.0732 1.8528 1.2023 0
M  V30 10 C 0.464 0.8023 -0.2827 0
M  V30 11 C -0.6566 -0.7917 1.2734 0 CFG=1
M  V30 12 C -1.3753 -0.1764 3.6174 0
M  V30 13 C -1.9833 3.0697 4.8889 0
M  V30 14 C -1.1683 0.7326 4.8242 0
M  V30 15 C -1.0171 4.8708 3.4139 0
M  V30 16 C 0.3875 -0.6849 0.1376 0 CFG=1
M  V30 17 C -0.8225 -2.2957 1.437 0
M  V30 18 C -1.994 4.4794 4.4471 0
M  V30 19 C -0.2476 -1.6783 -0.9328 0 CFG=1
M  V30 20 C 1.7939 -1.1881 0.5661 0
M  V30 21 C -0.8752 -2.8157 -0.0223 0 CFG=1
M  V30 22 O -2.7817 5.2891 4.9197 0
M  V30 23 O -1.3597 -0.9632 -1.549 0
M  V30 24 C 0.8239 -2.0942 -1.9919 0
M  V30 25 C -0.3012 -4.2236 -0.1153 0
M  V30 26 C -2.1207 -1.6105 -2.4766 0
M  V30 27 O 1.6056 -3.0311 -1.8063 0
M  V30 28 C 0.9384 -1.2237 -3.2424 0
M  V30 29 O -1.8881 -2.734 -2.8926 0
M  V30 30 C -3.2568 -0.7188 -2.9114 0
M  V30 31 O 2.2544 -1.3079 -3.7915 0
M  V30 32 C -4.1482 -1.395 -3.9377 0
M  V30 33 C 2.4321 -0.5483 -4.9066 0
M  V30 34 O 1.5776 0.1759 -5.3972 0
M  V30 35 C 3.8362 -0.7352 -5.4274 0
M  V30 36 C 4.0925 0.0838 -6.6802 0
M  V30 37 H 0.4518 2.7791 0.4655 0
M  V30 38 H 0.6456 -0.2542 2.9228 0
M  V30 39 H 0.5687 4.3393 2.1756 0
M  V30 40 H 1.6199 1.3181 4.1704 0
M  V30 41 H 2.145 2.8297 3.4268 0
M  V30 42 H 1.3639 2.8542 4.9938 0
M  V30 43 H 2.3215 1.1076 1.7697 0
M  V30 44 H -0.4729 1.0966 -0.7706 0
M  V30 45 H 1.26 0.9339 -1.0252 0
M  V30 46 H -1.6231 -0.417 0.8993 0
M  V30 47 H -2.3823 -0.0135 3.2105 0
M  V30 48 H -1.3389 -1.218 3.9577 0
M  V30 49 H -2.7395 2.8112 5.6216 0
M  V30 50 H -0.2429 0.4614 5.3454 0
M  V30 51 H -1.9826 0.5629 5.5394 0
M  V30 52 H -1.0446 5.9048 3.092 0
M  V30 53 H 0.0103 -2.7315 2.0 0
M  V30 54 H -1.7455 -2.5503 1.9694 0
M  V30 55 H 2.5494 -0.9113 -0.1779 0
M  V30 56 H 2.1249 -0.7904 1.5246 0
M  V30 57 H 1.8361 -2.275 0.677 0
M  V30 58 H -1.9428 -2.9089 -0.2627 0
M  V30 59 H 0.7433 -4.2685 0.2049 0
M  V30 60 H -0.8651 -4.9038 0.5332 0
M  V30 61 H -0.3772 -4.6122 -1.1356 0
M  V30 62 H 0.2161 -1.5856 -3.9802 0
M  V30 63 H 0.7292 -0.1837 -2.978 0
M  V30 64 H -2.8343 0.1952 -3.3417 0
M  V30 65 H -3.8509 -0.4592 -2.0287 0
M  V30 66 H -4.964 -0.7279 -4.2331 0
M  V30 67 H -4.586 -2.3138 -3.5335 0
M  V30 68 H -3.5813 -1.6615 -4.8359 0
M  V30 69 H 3.9844 -1.7968 -5.6515 0
M  V30 70 H 4.5395 -0.4317 -4.6448 0
M  V30 71 H 5.1159 -0.0722 -7.0351 0
M  V30 72 H 3.9567 1.153 -6.4857 0
M  V30 73 H 3.4042 -0.2001 -7.4833 0
M  V30 END ATOM
M  V30 BEGIN BOND
M  V30 1 1 1 2
M  V30 2 1 2 3
M  V30 3 1 2 4
M  V30 4 1 2 5
M  V30 5 1 3 6
M  V30 6 1 3 7
M  V30 7 1 3 8
M  V30 8 1 4 9
M  V30 9 1 4 10
M  V30 10 1 5 11
M  V30 11 1 5 12
M  V30 12 2 6 13
M  V30 13 1 6 14
M  V30 14 2 7 15
M  V30 15 1 10 16
M  V30 16 1 11 17
M  V30 17 1 13 18
M  V30 18 1 16 19
M  V30 19 1 16 20
M  V30 20 1 17 21
M  V30 21 2 18 22
M  V30 22 1 19 23
M  V30 23 1 19 24
M  V30 24 1 21 25
M  V30 25 1 23 26
M  V30 26 2 24 27
M  V30 27 1 24 28
M  V30 28 2 26 29
M  V30 29 1 26 30
M  V30 30 1 28 31
M  V30 31 1 30 32
M  V30 32 1 31 33
M  V30 33 2 33 34
M  V30 34 1 33 35
M  V30 35 1 35 36
M  V30 36 1 11 16
M  V30 37 1 12 14
M  V30 38 1 15 18
M  V30 39 1 19 21
M  V30 40 1 4 37
M  V30 41 1 5 38
M  V30 42 1 7 39
M  V30 43 1 8 40
M  V30 44 1 8 41
M  V30 45 1 8 42
M  V30 46 1 9 43
M  V30 47 1 10 44
M  V30 48 1 10 45
M  V30 49 1 11 46
M  V30 50 1 12 47
M  V30 51 1 12 48
M  V30 52 1 13 49
M  V30 53 1 14 50
M  V30 54 1 14 51
M  V30 55 1 15 52
M  V30 56 1 17 53
M  V30 57 1 17 54
M  V30 58 1 20 55
M  V30 59 1 20 56
M  V30 60 1 20 57
M  V30 61 1 21 58
M  V30 62 1 25 59
M  V30 63 1 25 60
M  V30 64 1 25 61
M  V30 65 1 28 62
M  V30 66 1 28 63
M  V30 67 1 30 64
M  V30 68 1 30 65
M  V30 69 1 32 66
M  V30 70 1 32 67
M  V30 71 1 32 68
M  V30 72 1 35 69
M  V30 73 1 35 70
M  V30 74 1 36 71
M  V30 75 1 36 72
M  V30 76 1 36 73
M  V30 END BOND
M  V30 BEGIN COLLECTION
M  V30 MDLV30/STEABS ATOMS=(8 2 3 4 5 11 16 19 21)
M  V30 END COLLECTION
M  V30 END CTAB
M  END
>  <NO.>
1429

>  <Name>
betamethasone-valerate

>  <SMILES>
CCC(=O)OCC(=O)[C@@]1(OC(=O)CC)[C@@H](C)C[C@H]2[C@@H]3CCC4=CC(=O)C=C[C@]4(C)[C@@]3(F)[C@@H](O)C[C@@]21C

>  <logBB>


>  <Class>
1

>  <MW>
504.25

>  <nHBAcc>
7

>  <nHBDon>
1

>  <SLogP>
3.82

>  <TopoPSA>
106.97

>  <MMFF94 Energy>
138.85

$$$$
CCC(=O)OCC(=O)[C@@]1(OC(=O)CC)[C@H](C)C[C@H]2[C@H]3[C@H]([C@@H](O)C[C@@]21C)[C@@]1(C)C=CC(=O)C=C1C[C@H]3Cl
Actelion Java MolfileCreator 2.0

  0  0  0  0  0  0              0 V3000
M  V30 BEGIN CTAB
M  V30 COUNTS 73 76 0 0 0
M  V30 BEGIN ATOM
M  V30 1 Cl -1.9414 -2.9943 -2.3463 0
M  V30 2 C -0.2344 -3.3542 -1.9003 0 CFG=1
M  V30 3 C 0.3349 -2.3577 -0.8516 0 CFG=2
M  V30 4 C -0.1405 -4.8015 -1.4081 0
M  V30 5 C -0.3007 -2.5662 0.5704 0 CFG=1
M  V30 6 C 0.16 -0.8841 -1.2753 0 CFG=1
M  V30 7 C -0.7757 -4.9598 -0.0457 0
M  V30 8 C -0.2112 -4.0659 1.0667 0 CFG=2
M  V30 9 C 0.1716 -1.4866 1.5923 0 CFG=1
M  V30 10 C 0.8132 0.148 -0.3233 0 CFG=2
M  V30 11 C 0.6503 -0.467 -2.6559 0
M  V30 12 C -1.8053 -5.808 0.1294 0
M  V30 13 C -0.9999 -4.2373 2.3591 0
M  V30 14 C 1.2233 -4.5539 1.3704 0
M  V30 15 O 1.4528 -1.7411 2.1471 0
M  V30 16 C 0.1357 -0.0399 1.055 0
M  V30 17 C 0.4555 1.494 -1.0916 0 CFG=1
M  V30 18 C 2.3535 -0.0132 -0.2105 0
M  V30 19 C 0.7794 1.0768 -2.585 0 CFG=2
M  V30 20 C -2.4948 -5.9409 1.4292 0
M  V30 21 C -2.0272 -5.0798 2.5311 0
M  V30 22 O -0.971 1.688 -0.9303 0
M  V30 23 C 1.357 2.6802 -0.6161 0
M  V30 24 C -0.0519 1.7465 -3.6737 0
M  V30 25 O -3.4184 -6.7292 1.5836 0
M  V30 26 C -1.5516 2.889 -1.1845 0
M  V30 27 O 2.2915 3.0985 -1.307 0
M  V30 28 C 1.0949 3.2419 0.7787 0
M  V30 29 O -0.9515 3.9066 -1.4911 0
M  V30 30 C -3.0412 2.816 -0.9673 0
M  V30 31 O 1.632 4.5589 0.8989 0
M  V30 32 C -3.7053 1.8194 -1.8979 0
M  V30 33 C 1.3174 5.1786 2.068 0
M  V30 34 O 0.6552 4.676 2.9651 0
M  V30 35 C 1.9118 6.5658 2.0811 0
M  V30 36 C 1.5849 7.3134 3.3619 0
M  V30 37 H 0.3347 -3.2662 -2.832 0
M  V30 38 H 1.4063 -2.5745 -0.7836 0
M  V30 39 H 0.9128 -5.101 -1.3508 0
M  V30 40 H -0.5983 -5.4765 -2.1428 0
M  V30 41 H -1.3757 -2.3553 0.4431 0
M  V30 42 H -0.9238 -0.695 -1.2688 0
M  V30 43 H -0.5153 -1.5042 2.4465 0
M  V30 44 H 1.6277 -0.9131 -2.8749 0
M  V30 45 H -0.0381 -0.7917 -3.4429 0
M  V30 46 H -2.205 -6.4235 -0.6687 0
M  V30 47 H -0.6793 -3.6532 3.2206 0
M  V30 48 H 1.6058 -4.1649 2.3202 0
M  V30 49 H 1.2587 -5.6481 1.4586 0
M  V30 50 H 1.9362 -4.2736 0.5892 0
M  V30 51 H 2.0542 -2.0677 1.4619 0
M  V30 52 H 0.6008 0.6231 1.7919 0
M  V30 53 H -0.9195 0.2531 0.9946 0
M  V30 54 H 2.8824 0.3245 -1.1067 0
M  V30 55 H 2.6719 -1.0444 -0.0632 0
M  V30 56 H 2.7458 0.5716 0.6285 0
M  V30 57 H 1.8261 1.3083 -2.8193 0
M  V30 58 H -2.5469 -5.181 3.4762 0
M  V30 59 H 0.2804 1.4122 -4.6629 0
M  V30 60 H 0.0639 2.8336 -3.644 0
M  V30 61 H -1.1135 1.4978 -3.5888 0
M  V30 62 H 0.0193 3.2592 0.9734 0
M  V30 63 H 1.5987 2.5931 1.5008 0
M  V30 64 H -3.4599 3.8136 -1.1411 0
M  V30 65 H -3.2292 2.5623 0.0813 0
M  V30 66 H -4.7888 1.8186 -1.744 0
M  V30 67 H -3.337 0.8031 -1.7235 0
M  V30 68 H -3.508 2.0706 -2.9451 0
M  V30 69 H 1.5142 7.1215 1.2254 0
M  V30 70 H 2.9985 6.4783 1.9789 0
M  V30 71 H 2.027 8.3143 3.3427 0
M  V30 72 H 1.9749 6.7834 4.2372 0
M  V30 73 H 0.5024 7.4195 3.49 0
M  V30 END ATOM
M  V30 BEGIN BOND
M  V30 1 1 1 2
M  V30 2 1 2 3
M  V30 3 1 2 4
M  V30 4 1 3 5
M  V30 5 1 3 6
M  V30 6 1 4 7
M  V30 7 1 5 8
M  V30 8 1 5 9
M  V30 9 1 6 10
M  V30 10 1 6 11
M  V30 11 2 7 12
M  V30 12 1 8 13
M  V30 13 1 8 14
M  V30 14 1 9 15
M  V30 15 1 9 16
M  V30 16 1 10 17
M  V30 17 1 10 18
M  V30 18 1 11 19
M  V30 19 1 12 20
M  V30 20 2 13 21
M  V30 21 1 17 22
M  V30 22 1 17 23
M  V30 23 1 19 24
M  V30 24 2 20 25
M  V30 25 1 22 26
M  V30 26 2 23 27
M  V30 27 1 23 28
M  V30 28 2 26 29
M  V30 29 1 26 30
M  V30 30 1 28 31
M  V30 31 1 30 32
M  V30 32 1 31 33
M  V30 33 2 33 34
M  V30 34 1 33 35
M  V30 35 1 35 36
M  V30 36 1 7 8
M  V30 37 1 10 16
M  V30 38 1 17 19
M  V30 39 1 20 21
M  V30 40 1 2 37
M  V30 41 1 3 38
M  V30 42 1 4 39
M  V30 43 1 4 40
M  V30 44 1 5 41
M  V30 45 1 6 42
M  V30 46 1 9 43
M  V30 47 1 11 44
M  V30 48 1 11 45
M  V30 49 1 12 46
M  V30 50 1 13 47
M  V30 51 1 14 48
M  V30 52 1 14 49
M  V30 53 1 14 50
M  V30 54 1 15 51
M  V30 55 1 16 52
M  V30 56 1 16 53
M  V30 57 1 18 54
M  V30 58 1 18 55
M  V30 59 1 18 56
M  V30 60 1 19 57
M  V30 61 1 21 58
M  V30 62 1 24 59
M  V30 63 1 24 60
M  V30 64 1 24 61
M  V30 65 1 28 62
M  V30 66 1 28 63
M  V30 67 1 30 64
M  V30 68 1 30 65
M  V30 69 1 32 66
M  V30 70 1 32 67
M  V30 71 1 32 68
M  V30 72 1 35 69
M  V30 73 1 35 70
M  V30 74 1 36 71
M  V30 75 1 36 72
M  V30 76 1 36 73
M  V30 END BOND
M  V30 BEGIN COLLECTION
M  V30 MDLV30/STEABS ATOMS=(9 2 3 5 6 8 9 10 17 19)
M  V30 END COLLECTION
M  V30 END CTAB
M  END
>  <NO.>
1430

>  <Name>
alclometasone-dipropionate

>  <SMILES>
CCC(=O)OCC(=O)[C@@]1(OC(=O)CC)[C@H](C)C[C@H]2[C@H]3[C@H]([C@@H](O)C[C@@]21C)[C@@]1(C)C=CC(=O)C=C1C[C@H]3Cl

>  <logBB>


>  <Class>
1

>  <MW>
520.22

>  <nHBAcc>
7

>  <nHBDon>
1

>  <SLogP>
3.94

>  <TopoPSA>
106.97

>  <MMFF94 Energy>
110.27

$$$$
CCC(=O)OCC(=O)[C@@]12OC(C)(C)O[C@@H]1CC1C3C[C@H](F)C4=CC(=O)C=CC4(C)[C@@]3(F)C(O)CC12C
Actelion Java MolfileCreator 2.0

  0  0  0  0  0  0              0 V3000
M  V30 BEGIN CTAB
M  V30 COUNTS 70 74 0 0 0
M  V30 BEGIN ATOM
M  V30 1 F -2.9224 0.8111 -0.9734 0
M  V30 2 C -1.8684 1.6631 -1.2216 0 CFG=2
M  V30 3 C -2.4957 2.9847 -1.8537 0
M  V30 4 C -0.889 0.8761 -2.1353 0
M  V30 5 C -1.1826 1.9528 0.1506 0
M  V30 6 C -3.3755 3.6636 -0.7841 0
M  V30 7 C -3.3176 2.7013 -3.1115 0
M  V30 8 C -1.4014 3.9833 -2.3011 0
M  V30 9 O -1.5284 0.4104 -3.326 0
M  V30 10 C -0.3181 -0.3697 -1.4438 0
M  V30 11 C -0.5255 0.7252 0.8231 0
M  V30 12 C -2.149 2.6469 1.1231 0
M  V30 13 C -4.6778 3.9555 -0.9595 0
M  V30 14 C -2.7114 3.9347 0.5403 0 CFG=2
M  V30 15 C -4.6142 2.9926 -3.2798 0
M  V30 16 C 0.4044 -0.0865 -0.1057 0
M  V30 17 C -1.4845 -0.3324 1.397 0
M  V30 18 C -5.3904 3.6474 -2.2131 0
M  V30 19 F -3.5901 4.4492 1.4469 0
M  V30 20 C 0.6411 -1.3924 0.729 0 CFG=1
M  V30 21 C 1.7136 0.6697 -0.4054 0
M  V30 22 C -0.6566 -1.6131 1.5106 0 CFG=2
M  V30 23 O -6.5719 3.9282 -2.3649 0
M  V30 24 O 0.8035 -2.5487 -0.0932 0
M  V30 25 C 1.8117 -1.2827 1.729 0
M  V30 26 O -1.3096 -2.7051 0.8637 0
M  V30 27 C -0.2677 -3.4449 0.2306 0
M  V30 28 O 1.7066 -0.6178 2.764 0
M  V30 29 C 3.1044 -2.0007 1.353 0
M  V30 30 C -0.7994 -4.0789 -1.0473 0
M  V30 31 C 0.2454 -4.5269 1.1819 0
M  V30 32 O 4.1462 -1.6557 2.2673 0
M  V30 33 C 5.3277 -2.2834 2.0187 0
M  V30 34 O 5.5184 -3.0674 1.1006 0
M  V30 35 C 6.3508 -1.8594 3.044 0
M  V30 36 C 7.694 -2.5311 2.8198 0
M  V30 37 H -0.068 1.5229 -2.4558 0
M  V30 38 H -0.3614 2.6569 -0.0369 0
M  V30 39 H -2.8003 2.2612 -3.9616 0
M  V30 40 H -1.8436 4.9269 -2.6467 0
M  V30 41 H -0.7023 4.2373 -1.4993 0
M  V30 42 H -0.8071 3.5879 -3.1329 0
M  V30 43 H -2.322 -0.0861 -3.0432 0
M  V30 44 H 0.3591 -0.8852 -2.1381 0
M  V30 45 H -1.1487 -1.0683 -1.2919 0
M  V30 46 H 0.0677 1.1082 1.6665 0
M  V30 47 H -1.6383 2.8794 2.0658 0
M  V30 48 H -2.9798 1.981 1.3891 0
M  V30 49 H -5.2842 4.4146 -0.1852 0
M  V30 50 H -1.9194 4.6806 0.4196 0
M  V30 51 H -5.1437 2.782 -4.2012 0
M  V30 52 H -2.3652 -0.4955 0.7702 0
M  V30 53 H -1.8456 -0.0212 2.3837 0
M  V30 54 H 1.5408 1.595 -0.9626 0
M  V30 55 H 2.2383 0.9628 0.5096 0
M  V30 56 H 2.392 0.0511 -1.0024 0
M  V30 57 H -0.5055 -1.8843 2.5616 0
M  V30 58 H 2.9216 -3.079 1.3987 0
M  V30 59 H 3.394 -1.6949 0.3429 0
M  V30 60 H -1.6321 -4.7584 -0.8369 0
M  V30 61 H -0.0125 -4.6267 -1.5761 0
M  V30 62 H -1.1766 -3.3157 -1.7355 0
M  V30 63 H -0.5554 -5.2204 1.4591 0
M  V30 64 H 0.6259 -4.0916 2.1123 0
M  V30 65 H 1.0693 -5.0901 0.7312 0
M  V30 66 H 5.9749 -2.1226 4.0383 0
M  V30 67 H 6.4734 -0.7729 2.9826 0
M  V30 68 H 8.4142 -2.2056 3.5766 0
M  V30 69 H 8.0981 -2.2823 1.8329 0
M  V30 70 H 7.6034 -3.6207 2.8793 0
M  V30 END ATOM
M  V30 BEGIN BOND
M  V30 1 1 1 2
M  V30 2 1 2 3
M  V30 3 1 2 4
M  V30 4 1 2 5
M  V30 5 1 3 6
M  V30 6 1 3 7
M  V30 7 1 3 8
M  V30 8 1 4 9
M  V30 9 1 4 10
M  V30 10 1 5 11
M  V30 11 1 5 12
M  V30 12 2 6 13
M  V30 13 1 6 14
M  V30 14 2 7 15
M  V30 15 1 10 16
M  V30 16 1 11 17
M  V30 17 1 13 18
M  V30 18 1 14 19
M  V30 19 1 16 20
M  V30 20 1 16 21
M  V30 21 1 17 22
M  V30 22 2 18 23
M  V30 23 1 20 24
M  V30 24 1 20 25
M  V30 25 1 22 26
M  V30 26 1 24 27
M  V30 27 2 25 28
M  V30 28 1 25 29
M  V30 29 1 27 30
M  V30 30 1 27 31
M  V30 31 1 29 32
M  V30 32 1 32 33
M  V30 33 2 33 34
M  V30 34 1 33 35
M  V30 35 1 35 36
M  V30 36 1 11 16
M  V30 37 1 12 14
M  V30 38 1 15 18
M  V30 39 1 20 22
M  V30 40 1 26 27
M  V30 41 1 4 37
M  V30 42 1 5 38
M  V30 43 1 7 39
M  V30 44 1 8 40
M  V30 45 1 8 41
M  V30 46 1 8 42
M  V30 47 1 9 43
M  V30 48 1 10 44
M  V30 49 1 10 45
M  V30 50 1 11 46
M  V30 51 1 12 47
M  V30 52 1 12 48
M  V30 53 1 13 49
M  V30 54 1 14 50
M  V30 55 1 15 51
M  V30 56 1 17 52
M  V30 57 1 17 53
M  V30 58 1 21 54
M  V30 59 1 21 55
M  V30 60 1 21 56
M  V30 61 1 22 57
M  V30 62 1 29 58
M  V30 63 1 29 59
M  V30 64 1 30 60
M  V30 65 1 30 61
M  V30 66 1 30 62
M  V30 67 1 31 63
M  V30 68 1 31 64
M  V30 69 1 31 65
M  V30 70 1 35 66
M  V30 71 1 35 67
M  V30 72 1 36 68
M  V30 73 1 36 69
M  V30 74 1 36 70
M  V30 END BOND
M  V30 BEGIN COLLECTION
M  V30 MDLV30/STEABS ATOMS=(4 2 14 20 22)
M  V30 END COLLECTION
M  V30 END CTAB
M  END
>  <NO.>
1431

>  <Name>
akos024419646

>  <SMILES>
CCC(=O)OCC(=O)[C@@]12OC(C)(C)O[C@@H]1CC1C3C[C@H](F)C4=CC(=O)C=CC4(C)[C@@]3(F)C(O)CC12C

>  <logBB>


>  <Class>
1

>  <MW>
508.23

>  <nHBAcc>
7

>  <nHBDon>
1

>  <SLogP>
3.33

>  <TopoPSA>
99.13

>  <MMFF94 Energy>
140.31

$$$$
CCC(=O)O[C@]1(C(=O)CCl)[C@@H](C)C[C@H]2[C@@H]3CCC4=CC(=O)C=C[C@]4(C)[C@@]3(F)[C@@H](O)C[C@@]21C
Actelion Java MolfileCreator 2.0

  0  0  0  0  0  0              0 V3000
M  V30 BEGIN CTAB
M  V30 COUNTS 64 67 0 0 0
M  V30 BEGIN ATOM
M  V30 1 Cl -2.2774 3.9881 2.8474 0
M  V30 2 C -1.2103 2.7377 3.5171 0
M  V30 3 C -1.7738 1.3629 3.2126 0
M  V30 4 O -2.9365 1.0852 3.5205 0
M  V30 5 C -0.8584 0.3652 2.4319 0 CFG=2
M  V30 6 O 0.5551 0.5695 2.73 0
M  V30 7 C -1.0192 0.5645 0.8633 0 CFG=2
M  V30 8 C -1.1255 -1.1883 2.6174 0 CFG=2
M  V30 9 C 0.9731 0.4671 4.0202 0
M  V30 10 C -0.4188 -0.7646 0.3482 0 CFG=1
M  V30 11 C -0.191 1.7159 0.2449 0
M  V30 12 C -2.5206 0.7252 0.4973 0
M  V30 13 C -1.1333 -1.8073 1.1958 0
M  V30 14 C -2.3487 -1.6378 3.4059 0
M  V30 15 O 0.2253 0.3602 4.9797 0
M  V30 16 C 2.4727 0.5659 4.1096 0
M  V30 17 C -0.4458 -0.9121 -1.1832 0 CFG=1
M  V30 18 C -0.027 1.643 -1.2911 0 CFG=1
M  V30 19 C 3.156 -0.5421 3.3305 0
M  V30 20 C 0.4054 0.238 -1.8156 0 CFG=1
M  V30 21 C 0.097 -2.2941 -1.5969 0
M  V30 22 O -1.1709 2.1981 -1.9286 0
M  V30 23 F 1.6876 0.06 -1.3119 0
M  V30 24 C 0.5279 0.0995 -3.3883 0 CFG=2
M  V30 25 C 0.2138 -2.4479 -3.1095 0
M  V30 26 C 1.0292 -1.3233 -3.6936 0
M  V30 27 C 1.485 1.1472 -3.9529 0
M  V30 28 C -0.8093 0.295 -4.1398 0
M  V30 29 C 2.1487 -1.5856 -4.3915 0
M  V30 30 C 2.5997 0.881 -4.6464 0
M  V30 31 C 3.0063 -0.5084 -4.9267 0
M  V30 32 O 4.0136 -0.7596 -5.5758 0
M  V30 33 H -0.2265 2.8852 3.0704 0
M  V30 34 H -1.1384 2.8691 4.5999 0
M  V30 35 H -0.2605 -1.6312 3.13 0
M  V30 36 H 0.6424 -0.8096 0.6408 0
M  V30 37 H 0.8206 1.7096 0.6683 0
M  V30 38 H -0.6365 2.6794 0.5176 0
M  V30 39 H -2.8567 1.7538 0.6665 0
M  V30 40 H -3.1697 0.0758 1.0912 0
M  V30 41 H -2.7437 0.4809 -0.5406 0
M  V30 42 H -0.6079 -2.7684 1.192 0
M  V30 43 H -2.1509 -1.9889 0.832 0
M  V30 44 H -2.3197 -1.2515 4.4296 0
M  V30 45 H -3.285 -1.3273 2.934 0
M  V30 46 H -2.3715 -2.7314 3.4745 0
M  V30 47 H 2.7552 0.4976 5.166 0
M  V30 48 H 2.7828 1.5526 3.7501 0
M  V30 49 H -1.4768 -0.8482 -1.5434 0
M  V30 50 H 0.787 2.3414 -1.5201 0
M  V30 51 H 4.24 -0.4952 3.4727 0
M  V30 52 H 2.9511 -0.4589 2.258 0
M  V30 53 H 2.8067 -1.5262 3.6603 0
M  V30 54 H 1.0812 -2.4603 -1.139 0
M  V30 55 H -0.5628 -3.0835 -1.2179 0
M  V30 56 H -1.9175 1.5826 -1.8834 0
M  V30 57 H -0.7831 -2.4589 -3.5648 0
M  V30 58 H 0.6625 -3.4236 -3.3326 0
M  V30 59 H 1.2249 2.1932 -3.798 0
M  V30 60 H -1.1086 1.347 -4.1943 0
M  V30 61 H -1.6354 -0.2561 -3.6808 0
M  V30 62 H -0.7324 -0.0508 -5.1793 0
M  V30 63 H 2.4983 -2.5929 -4.5875 0
M  V30 64 H 3.243 1.6597 -5.0378 0
M  V30 END ATOM
M  V30 BEGIN BOND
M  V30 1 1 1 2
M  V30 2 1 2 3
M  V30 3 2 3 4
M  V30 4 1 3 5
M  V30 5 1 5 6
M  V30 6 1 5 7
M  V30 7 1 5 8
M  V30 8 1 6 9
M  V30 9 1 7 10
M  V30 10 1 7 11
M  V30 11 1 7 12
M  V30 12 1 8 13
M  V30 13 1 8 14
M  V30 14 2 9 15
M  V30 15 1 9 16
M  V30 16 1 10 17
M  V30 17 1 11 18
M  V30 18 1 16 19
M  V30 19 1 17 20
M  V30 20 1 17 21
M  V30 21 1 18 22
M  V30 22 1 20 23
M  V30 23 1 20 24
M  V30 24 1 21 25
M  V30 25 1 24 26
M  V30 26 1 24 27
M  V30 27 1 24 28
M  V30 28 2 26 29
M  V30 29 2 27 30
M  V30 30 1 29 31
M  V30 31 2 31 32
M  V30 32 1 10 13
M  V30 33 1 18 20
M  V30 34 1 25 26
M  V30 35 1 30 31
M  V30 36 1 2 33
M  V30 37 1 2 34
M  V30 38 1 8 35
M  V30 39 1 10 36
M  V30 40 1 11 37
M  V30 41 1 11 38
M  V30 42 1 12 39
M  V30 43 1 12 40
M  V30 44 1 12 41
M  V30 45 1 13 42
M  V30 46 1 13 43
M  V30 47 1 14 44
M  V30 48 1 14 45
M  V30 49 1 14 46
M  V30 50 1 16 47
M  V30 51 1 16 48
M  V30 52 1 17 49
M  V30 53 1 18 50
M  V30 54 1 19 51
M  V30 55 1 19 52
M  V30 56 1 19 53
M  V30 57 1 21 54
M  V30 58 1 21 55
M  V30 59 1 22 56
M  V30 60 1 25 57
M  V30 61 1 25 58
M  V30 62 1 27 59
M  V30 63 1 28 60
M  V30 64 1 28 61
M  V30 65 1 28 62
M  V30 66 1 29 63
M  V30 67 1 30 64
M  V30 END BOND
M  V30 BEGIN COLLECTION
M  V30 MDLV30/STEABS ATOMS=(8 5 7 8 10 17 18 20 24)
M  V30 END COLLECTION
M  V30 END CTAB
M  END
>  <NO.>
1434

>  <Name>
clobetasol-propionate

>  <SMILES>
CCC(=O)O[C@]1(C(=O)CCl)[C@@H](C)C[C@H]2[C@@H]3CCC4=CC(=O)C=C[C@]4(C)[C@@]3(F)[C@@H](O)C[C@@]21C

>  <logBB>


>  <Class>
1

>  <MW>
466.19

>  <nHBAcc>
5

>  <nHBDon>
1

>  <SLogP>
4.1

>  <TopoPSA>
80.67

>  <MMFF94 Energy>
153.05

$$$$
CCC(=O)O[C@]1(C(=O)COC(C)=O)CC[C@H]2[C@@H]3CCC4=CC(=O)CC[C@]4(C)[C@H]3[C@@H](O)C[C@@]21C
Actelion Java MolfileCreator 2.0

  0  0  0  0  0  0              0 V3000
M  V30 BEGIN CTAB
M  V30 COUNTS 69 72 0 0 0
M  V30 BEGIN ATOM
M  V30 1 O 6.0387 -4.0227 -1.4467 0
M  V30 2 C 5.1629 -3.4802 -0.7778 0
M  V30 3 C 5.2466 -2.0259 -0.5091 0
M  V30 4 C 4.0403 -4.252 -0.1364 0
M  V30 5 C 4.2842 -1.3757 0.1694 0
M  V30 6 C 2.7805 -3.4002 -0.0822 0
M  V30 7 C 2.9771 -2.0321 0.637 0 CFG=2
M  V30 8 C 4.4811 0.0715 0.5492 0
M  V30 9 C 1.7633 -1.0941 0.2486 0 CFG=1
M  V30 10 C 3.1167 -2.2797 2.1552 0
M  V30 11 C 3.2992 0.931 0.1268 0
M  V30 12 C 0.3478 -1.6298 0.6196 0 CFG=1
M  V30 13 C 1.9667 0.3939 0.6766 0 CFG=1
M  V30 14 O 0.209 -1.9748 1.9892 0
M  V30 15 C -0.804 -0.6804 0.2222 0
M  V30 16 C 0.7939 1.2265 0.1305 0 CFG=1
M  V30 17 C -0.595 0.7897 0.6518 0 CFG=1
M  V30 18 C 0.7972 2.7315 0.3612 0
M  V30 19 C -1.5073 1.86 -0.0744 0 CFG=1
M  V30 20 C -0.7324 0.9309 2.1931 0
M  V30 21 C -0.655 3.1649 0.0769 0
M  V30 22 O -1.5654 1.5047 -1.4783 0
M  V30 23 C -2.9068 1.9716 0.5983 0
M  V30 24 C -2.2736 2.3009 -2.3275 0
M  V30 25 O -3.1206 2.76 1.5243 0
M  V30 26 C -3.9894 1.0175 0.1039 0
M  V30 27 O -2.9383 3.2631 -1.9794 0
M  V30 28 C -2.1236 1.7916 -3.7394 0
M  V30 29 O -4.9607 0.7901 1.1252 0
M  V30 30 C -2.8798 2.6512 -4.7367 0
M  V30 31 C -5.9556 -0.0563 0.7531 0
M  V30 32 O -6.0329 -0.617 -0.331 0
M  V30 33 C -6.9446 -0.2145 1.8664 0
M  V30 34 H 6.1612 -1.5467 -0.8413 0
M  V30 35 H 4.3573 -4.5737 0.8605 0
M  V30 36 H 3.8444 -5.1462 -0.7384 0
M  V30 37 H 1.9859 -3.9797 0.4032 0
M  V30 38 H 2.4486 -3.2256 -1.1154 0
M  V30 39 H 4.6183 0.1424 1.6351 0
M  V30 40 H 5.3936 0.48 0.0977 0
M  V30 41 H 1.7601 -1.0662 -0.8545 0
M  V30 42 H 2.365 -2.983 2.5262 0
M  V30 43 H 3.028 -1.3555 2.7349 0
M  V30 44 H 4.0916 -2.7169 2.4038 0
M  V30 45 H 3.4665 1.9543 0.4834 0
M  V30 46 H 3.26 0.9811 -0.9693 0
M  V30 47 H 0.1777 -2.5627 0.0704 0
M  V30 48 H 2.0026 0.4662 1.7683 0
M  V30 49 H 0.71 -1.3496 2.5349 0
M  V30 50 H -0.9058 -0.7375 -0.8681 0
M  V30 51 H -1.7418 -1.0568 0.6475 0
M  V30 52 H 0.8142 1.0893 -0.963 0
M  V30 53 H 1.0771 2.9803 1.3911 0
M  V30 54 H 1.4973 3.2472 -0.3042 0
M  V30 55 H -0.7738 1.9758 2.5174 0
M  V30 56 H 0.0971 0.4909 2.7451 0
M  V30 57 H -1.6508 0.4481 2.5462 0
M  V30 58 H -1.0 3.806 0.895 0
M  V30 59 H -0.67 3.7748 -0.8322 0
M  V30 60 H -4.4749 1.4721 -0.765 0
M  V30 61 H -3.5309 0.0652 -0.1735 0
M  V30 62 H -2.505 0.766 -3.7798 0
M  V30 63 H -1.059 1.7896 -3.9956 0
M  V30 64 H -2.7514 2.261 -5.751 0
M  V30 65 H -2.5182 3.6848 -4.7186 0
M  V30 66 H -3.9509 2.6677 -4.509 0
M  V30 67 H -6.4535 -0.6524 2.7388 0
M  V30 68 H -7.3801 0.7563 2.1163 0
M  V30 69 H -7.7481 -0.8833 1.5448 0
M  V30 END ATOM
M  V30 BEGIN BOND
M  V30 1 2 1 2
M  V30 2 1 2 3
M  V30 3 1 2 4
M  V30 4 2 3 5
M  V30 5 1 4 6
M  V30 6 1 5 7
M  V30 7 1 5 8
M  V30 8 1 7 9
M  V30 9 1 7 10
M  V30 10 1 8 11
M  V30 11 1 9 12
M  V30 12 1 9 13
M  V30 13 1 12 14
M  V30 14 1 12 15
M  V30 15 1 13 16
M  V30 16 1 15 17
M  V30 17 1 16 18
M  V30 18 1 17 19
M  V30 19 1 17 20
M  V30 20 1 18 21
M  V30 21 1 19 22
M  V30 22 1 19 23
M  V30 23 1 22 24
M  V30 24 2 23 25
M  V30 25 1 23 26
M  V30 26 2 24 27
M  V30 27 1 24 28
M  V30 28 1 26 29
M  V30 29 1 28 30
M  V30 30 1 29 31
M  V30 31 2 31 32
M  V30 32 1 31 33
M  V30 33 1 6 7
M  V30 34 1 11 13
M  V30 35 1 16 17
M  V30 36 1 19 21
M  V30 37 1 3 34
M  V30 38 1 4 35
M  V30 39 1 4 36
M  V30 40 1 6 37
M  V30 41 1 6 38
M  V30 42 1 8 39
M  V30 43 1 8 40
M  V30 44 1 9 41
M  V30 45 1 10 42
M  V30 46 1 10 43
M  V30 47 1 10 44
M  V30 48 1 11 45
M  V30 49 1 11 46
M  V30 50 1 12 47
M  V30 51 1 13 48
M  V30 52 1 14 49
M  V30 53 1 15 50
M  V30 54 1 15 51
M  V30 55 1 16 52
M  V30 56 1 18 53
M  V30 57 1 18 54
M  V30 58 1 20 55
M  V30 59 1 20 56
M  V30 60 1 20 57
M  V30 61 1 21 58
M  V30 62 1 21 59
M  V30 63 1 26 60
M  V30 64 1 26 61
M  V30 65 1 28 62
M  V30 66 1 28 63
M  V30 67 1 30 64
M  V30 68 1 30 65
M  V30 69 1 30 66
M  V30 70 1 33 67
M  V30 71 1 33 68
M  V30 72 1 33 69
M  V30 END BOND
M  V30 BEGIN COLLECTION
M  V30 MDLV30/STEABS ATOMS=(7 7 9 12 13 16 17 19)
M  V30 END COLLECTION
M  V30 END CTAB
M  END
>  <NO.>
1435

>  <Name>
hydrocortisone-aceponate

>  <SMILES>
CCC(=O)O[C@]1(C(=O)COC(C)=O)CC[C@H]2[C@@H]3CCC4=CC(=O)CC[C@]4(C)[C@H]3[C@@H](O)C[C@@]21C

>  <logBB>


>  <Class>
1

>  <MW>
460.25

>  <nHBAcc>
7

>  <nHBDon>
1

>  <SLogP>
3.31

>  <TopoPSA>
106.97

>  <MMFF94 Energy>
87.525

$$$$
CCC(=O)O[C@]1(C(=O)COC(C)=O)CC[C@H]2[C@@H]3C[C@H](C)C4=CC(=O)C=C[C@]4(C)[C@H]3[C@@H](O)C[C@@]21C
Actelion Java MolfileCreator 2.0

  0  0  0  0  0  0              0 V3000
M  V30 BEGIN CTAB
M  V30 COUNTS 70 73 0 0 0
M  V30 BEGIN ATOM
M  V30 1 O -1.8491 -4.8293 4.9099 0
M  V30 2 C -1.0793 -4.1946 4.2001 0
M  V30 3 C -0.7621 -4.633 2.8257 0
M  V30 4 C -0.4388 -2.9601 4.6806 0
M  V30 5 C 0.0694 -3.9475 2.0171 0
M  V30 6 C 0.3911 -2.2686 3.8909 0
M  V30 7 C 0.7707 -2.643 2.4611 0 CFG=2
M  V30 8 C 0.3604 -4.3696 0.5802 0 CFG=2
M  V30 9 C 0.3086 -1.5057 1.4709 0 CFG=1
M  V30 10 C 2.2969 -2.8885 2.4814 0
M  V30 11 C -0.0869 -3.2479 -0.3666 0
M  V30 12 C -0.2641 -5.6954 0.1242 0
M  V30 13 C 0.829 -0.0731 1.7915 0 CFG=1
M  V30 14 C 0.5547 -1.8901 -0.0258 0 CFG=1
M  V30 15 O 2.2458 -0.0515 1.8781 0
M  V30 16 C 0.3599 0.994 0.7769 0
M  V30 17 C -0.0248 -0.7828 -0.9203 0 CFG=1
M  V30 18 C 0.617 0.607 -0.6974 0 CFG=1
M  V30 19 C 0.0372 -0.9614 -2.4309 0
M  V30 20 C -0.1651 1.4458 -1.786 0 CFG=1
M  V30 21 C 2.142 0.6223 -0.9973 0
M  V30 22 C -0.2032 0.4523 -2.9947 0
M  V30 23 O -1.5166 1.6372 -1.2978 0
M  V30 24 C 0.5687 2.776 -2.1256 0
M  V30 25 C -2.4093 2.3048 -2.081 0
M  V30 26 O 1.4167 2.8406 -3.0203 0
M  V30 27 C 0.2417 3.9862 -1.256 0
M  V30 28 O -2.1315 2.8444 -3.1394 0
M  V30 29 C -3.7667 2.2914 -1.423 0
M  V30 30 O 1.3069 4.9364 -1.295 0
M  V30 31 C -4.8123 3.0033 -2.2625 0
M  V30 32 C 1.1232 6.0002 -0.4712 0
M  V30 33 O 0.1737 6.147 0.2857 0
M  V30 34 C 2.2587 6.9663 -0.6109 0
M  V30 35 H -1.2714 -5.5419 2.5296 0
M  V30 36 H -0.6648 -2.6608 5.6966 0
M  V30 37 H 0.8632 -1.3836 4.3128 0
M  V30 38 H 1.4447 -4.5018 0.478 0
M  V30 39 H -0.787 -1.4337 1.5827 0
M  V30 40 H 2.7324 -2.9296 1.479 0
M  V30 41 H 2.5364 -3.839 2.9762 0
M  V30 42 H 2.8373 -2.1132 3.0358 0
M  V30 43 H 0.1766 -3.5241 -1.3952 0
M  V30 44 H -1.1815 -3.1557 -0.338 0
M  V30 45 H 0.0632 -6.5252 0.7597 0
M  V30 46 H 0.0429 -5.9304 -0.9009 0
M  V30 47 H -1.3588 -5.656 0.1392 0
M  V30 48 H 0.452 0.2325 2.7739 0
M  V30 49 H 1.6295 -1.9844 -0.2097 0
M  V30 50 H 2.5191 0.8373 2.1652 0
M  V30 51 H 0.861 1.9433 0.9981 0
M  V30 52 H -0.712 1.1541 0.9432 0
M  V30 53 H -1.0955 -0.7197 -0.6659 0
M  V30 54 H -0.7227 -1.6621 -2.7919 0
M  V30 55 H 1.0137 -1.3409 -2.7518 0
M  V30 56 H 2.5836 1.5814 -0.703 0
M  V30 57 H 2.6938 -0.1566 -0.4687 0
M  V30 58 H 2.3633 0.4775 -2.0594 0
M  V30 59 H 0.563 0.6681 -3.7465 0
M  V30 60 H -1.1682 0.4676 -3.5115 0
M  V30 61 H -0.6685 4.4543 -1.6418 0
M  V30 62 H 0.0894 3.6537 -0.2263 0
M  V30 63 H -3.6842 2.7846 -0.4487 0
M  V30 64 H -4.069 1.2495 -1.2738 0
M  V30 65 H -5.7859 2.9752 -1.7637 0
M  V30 66 H -4.9166 2.5303 -3.2446 0
M  V30 67 H -4.5402 4.0518 -2.4234 0
M  V30 68 H 3.1928 6.4859 -0.3095 0
M  V30 69 H 2.3218 7.3176 -1.6438 0
M  V30 70 H 2.0828 7.8284 0.0387 0
M  V30 END ATOM
M  V30 BEGIN BOND
M  V30 1 2 1 2
M  V30 2 1 2 3
M  V30 3 1 2 4
M  V30 4 2 3 5
M  V30 5 2 4 6
M  V30 6 1 5 7
M  V30 7 1 5 8
M  V30 8 1 7 9
M  V30 9 1 7 10
M  V30 10 1 8 11
M  V30 11 1 8 12
M  V30 12 1 9 13
M  V30 13 1 9 14
M  V30 14 1 13 15
M  V30 15 1 13 16
M  V30 16 1 14 17
M  V30 17 1 16 18
M  V30 18 1 17 19
M  V30 19 1 18 20
M  V30 20 1 18 21
M  V30 21 1 19 22
M  V30 22 1 20 23
M  V30 23 1 20 24
M  V30 24 1 23 25
M  V30 25 2 24 26
M  V30 26 1 24 27
M  V30 27 2 25 28
M  V30 28 1 25 29
M  V30 29 1 27 30
M  V30 30 1 29 31
M  V30 31 1 30 32
M  V30 32 2 32 33
M  V30 33 1 32 34
M  V30 34 1 6 7
M  V30 35 1 11 14
M  V30 36 1 17 18
M  V30 37 1 20 22
M  V30 38 1 3 35
M  V30 39 1 4 36
M  V30 40 1 6 37
M  V30 41 1 8 38
M  V30 42 1 9 39
M  V30 43 1 10 40
M  V30 44 1 10 41
M  V30 45 1 10 42
M  V30 46 1 11 43
M  V30 47 1 11 44
M  V30 48 1 12 45
M  V30 49 1 12 46
M  V30 50 1 12 47
M  V30 51 1 13 48
M  V30 52 1 14 49
M  V30 53 1 15 50
M  V30 54 1 16 51
M  V30 55 1 16 52
M  V30 56 1 17 53
M  V30 57 1 19 54
M  V30 58 1 19 55
M  V30 59 1 21 56
M  V30 60 1 21 57
M  V30 61 1 21 58
M  V30 62 1 22 59
M  V30 63 1 22 60
M  V30 64 1 27 61
M  V30 65 1 27 62
M  V30 66 1 29 63
M  V30 67 1 29 64
M  V30 68 1 31 65
M  V30 69 1 31 66
M  V30 70 1 31 67
M  V30 71 1 34 68
M  V30 72 1 34 69
M  V30 73 1 34 70
M  V30 END BOND
M  V30 BEGIN COLLECTION
M  V30 MDLV30/STEABS ATOMS=(8 7 8 9 13 14 17 18 20)
M  V30 END COLLECTION
M  V30 END CTAB
M  END
>  <NO.>
1436

>  <Name>
methylprednisolone-aceponate

>  <SMILES>
CCC(=O)O[C@]1(C(=O)COC(C)=O)CC[C@H]2[C@@H]3C[C@H](C)C4=CC(=O)C=C[C@]4(C)[C@H]3[C@@H](O)C[C@@]21C

>  <logBB>


>  <Class>
1

>  <MW>
472.25

>  <nHBAcc>
7

>  <nHBDon>
1

>  <SLogP>
3.34

>  <TopoPSA>
106.97

>  <MMFF94 Energy>
94.216

$$$$
CCC(=O)O[C@]1(C(=O)COC)[C@@H](C)C[C@H]2[C@@H]3CCC4=CC(=O)C=C[C@]4(C)[C@@]3(F)[C@@H](O)C[C@@]21C
Actelion Java MolfileCreator 2.0

  0  0  0  0  0  0              0 V3000
M  V30 BEGIN CTAB
M  V30 COUNTS 68 71 0 0 0
M  V30 BEGIN ATOM
M  V30 1 F 2.1762 0.161 0.9667 0
M  V30 2 C 2.0263 -0.62 -0.1713 0 CFG=2
M  V30 3 C 3.4585 -1.2156 -0.491 0 CFG=2
M  V30 4 C 1.4468 0.3532 -1.2429 0 CFG=1
M  V30 5 C 0.9996 -1.7355 0.2165 0 CFG=2
M  V30 6 C 3.8759 -2.0937 0.7035 0
M  V30 7 C 4.4743 -0.0967 -0.7222 0
M  V30 8 C 3.5025 -2.0966 -1.761 0
M  V30 9 O 1.4218 -0.2213 -2.5445 0
M  V30 10 C 0.0403 0.8811 -0.8761 0
M  V30 11 C -0.3357 -1.076 0.6024 0 CFG=1
M  V30 12 C 1.5308 -2.596 1.3791 0
M  V30 13 C 4.9992 -1.8995 1.4173 0
M  V30 14 C 2.9075 -3.1828 1.0869 0
M  V30 15 C 5.5913 0.0931 -0.0075 0
M  V30 16 C -0.9735 -0.2365 -0.5319 0 CFG=1
M  V30 17 C -1.4806 -1.9717 1.0474 0
M  V30 18 C 5.9398 -0.8033 1.1102 0
M  V30 19 C -2.319 0.2328 0.167 0 CFG=1
M  V30 20 C -1.2937 -1.081 -1.7963 0
M  V30 21 C -2.6994 -1.0168 1.0732 0 CFG=1
M  V30 22 O 6.9673 -0.6444 1.757 0
M  V30 23 O -1.9501 1.3002 1.0909 0
M  V30 24 C -3.3758 0.699 -0.8881 0
M  V30 25 C -3.9811 -1.7852 0.7774 0
M  V30 26 C -2.9284 1.8983 1.8226 0
M  V30 27 O -4.2045 -0.0699 -1.3863 0
M  V30 28 C -3.2921 2.1322 -1.4086 0
M  V30 29 O -4.1247 1.6982 1.6811 0
M  V30 30 C -2.3339 2.8715 2.8043 0
M  V30 31 O -2.5232 2.1913 -2.6027 0
M  V30 32 C -1.8691 4.1333 2.1054 0
M  V30 33 C -2.6528 3.452 -3.2466 0
M  V30 34 H 2.0972 1.2333 -1.3031 0
M  V30 35 H 0.8432 -2.4044 -0.6353 0
M  V30 36 H 4.2853 0.5812 -1.5517 0
M  V30 37 H 4.4356 -2.6736 -1.8089 0
M  V30 38 H 2.6802 -2.8168 -1.8039 0
M  V30 39 H 3.4665 -1.5037 -2.6812 0
M  V30 40 H 1.0037 0.4186 -3.149 0
M  V30 41 H -0.3397 1.4865 -1.7033 0
M  V30 42 H 0.1601 1.5588 -0.0221 0
M  V30 43 H -0.1171 -0.4108 1.4534 0
M  V30 44 H 0.8382 -3.4215 1.5811 0
M  V30 45 H 1.5797 -1.9945 2.2965 0
M  V30 46 H 5.2717 -2.5174 2.2653 0
M  V30 47 H 2.8391 -3.9202 0.279 0
M  V30 48 H 3.2538 -3.7307 1.9719 0
M  V30 49 H 6.2892 0.8943 -0.2173 0
M  V30 50 H -1.3049 -2.3982 2.041 0
M  V30 51 H -1.6266 -2.8077 0.3544 0
M  V30 52 H -2.1129 -1.7869 -1.6331 0
M  V30 53 H -1.5875 -0.4357 -2.6314 0
M  V30 54 H -0.4489 -1.6786 -2.1426 0
M  V30 55 H -2.7889 -0.676 2.1139 0
M  V30 56 H -4.8571 -1.1335 0.8528 0
M  V30 57 H -4.1151 -2.5902 1.5091 0
M  V30 58 H -3.9652 -2.2517 -0.2116 0
M  V30 59 H -4.3195 2.4681 -1.5963 0
M  V30 60 H -2.854 2.8012 -0.6659 0
M  V30 61 H -1.5086 2.3846 3.3348 0
M  V30 62 H -3.0961 3.1111 3.5539 0
M  V30 63 H -1.4721 4.8486 2.832 0
M  V30 64 H -2.6955 4.6108 1.5682 0
M  V30 65 H -1.0822 3.9144 1.376 0
M  V30 66 H -2.02 3.4494 -4.1379 0
M  V30 67 H -2.3205 4.2565 -2.5834 0
M  V30 68 H -3.6892 3.6201 -3.5549 0
M  V30 END ATOM
M  V30 BEGIN BOND
M  V30 1 1 1 2
M  V30 2 1 2 3
M  V30 3 1 2 4
M  V30 4 1 2 5
M  V30 5 1 3 6
M  V30 6 1 3 7
M  V30 7 1 3 8
M  V30 8 1 4 9
M  V30 9 1 4 10
M  V30 10 1 5 11
M  V30 11 1 5 12
M  V30 12 2 6 13
M  V30 13 1 6 14
M  V30 14 2 7 15
M  V30 15 1 10 16
M  V30 16 1 11 17
M  V30 17 1 13 18
M  V30 18 1 16 19
M  V30 19 1 16 20
M  V30 20 1 17 21
M  V30 21 2 18 22
M  V30 22 1 19 23
M  V30 23 1 19 24
M  V30 24 1 21 25
M  V30 25 1 23 26
M  V30 26 2 24 27
M  V30 27 1 24 28
M  V30 28 2 26 29
M  V30 29 1 26 30
M  V30 30 1 28 31
M  V30 31 1 30 32
M  V30 32 1 31 33
M  V30 33 1 11 16
M  V30 34 1 12 14
M  V30 35 1 15 18
M  V30 36 1 19 21
M  V30 37 1 4 34
M  V30 38 1 5 35
M  V30 39 1 7 36
M  V30 40 1 8 37
M  V30 41 1 8 38
M  V30 42 1 8 39
M  V30 43 1 9 40
M  V30 44 1 10 41
M  V30 45 1 10 42
M  V30 46 1 11 43
M  V30 47 1 12 44
M  V30 48 1 12 45
M  V30 49 1 13 46
M  V30 50 1 14 47
M  V30 51 1 14 48
M  V30 52 1 15 49
M  V30 53 1 17 50
M  V30 54 1 17 51
M  V30 55 1 20 52
M  V30 56 1 20 53
M  V30 57 1 20 54
M  V30 58 1 21 55
M  V30 59 1 25 56
M  V30 60 1 25 57
M  V30 61 1 25 58
M  V30 62 1 28 59
M  V30 63 1 28 60
M  V30 64 1 30 61
M  V30 65 1 30 62
M  V30 66 1 32 63
M  V30 67 1 32 64
M  V30 68 1 32 65
M  V30 69 1 33 66
M  V30 70 1 33 67
M  V30 71 1 33 68
M  V30 END BOND
M  V30 BEGIN COLLECTION
M  V30 MDLV30/STEABS ATOMS=(8 2 3 4 5 11 16 19 21)
M  V30 END COLLECTION
M  V30 END CTAB
M  END
>  <NO.>
1437

>  <Name>
amelometasone

>  <SMILES>
CCC(=O)O[C@]1(C(=O)COC)[C@@H](C)C[C@H]2[C@@H]3CCC4=CC(=O)C=C[C@]4(C)[C@@]3(F)[C@@H](O)C[C@@]21C

>  <logBB>


>  <Class>
1

>  <MW>
462.24

>  <nHBAcc>
6

>  <nHBDon>
1

>  <SLogP>
3.51

>  <TopoPSA>
89.9

>  <MMFF94 Energy>
163.9

$$$$
CCC(=O)O[C@]1(C(=O)SC)[C@H](C)CC2C3C[C@H](F)C4=CC(=O)C=CC4(C)[C@@]3(F)[C@@H](O)C[C@@]21C
Actelion Java MolfileCreator 2.0

  0  0  0  0  0  0              0 V3000
M  V30 BEGIN CTAB
M  V30 COUNTS 65 68 0 0 0
M  V30 BEGIN ATOM
M  V30 1 S 2.4496 -3.1036 -1.6326 0
M  V30 2 C 2.9675 -1.6045 -0.8456 0
M  V30 3 C 4.0745 -3.8352 -1.9279 0
M  V30 4 O 4.0288 -1.587 -0.2216 0
M  V30 5 C 2.0062 -0.3554 -0.885 0 CFG=2
M  V30 6 O 2.8385 0.8303 -0.7431 0
M  V30 7 C 1.0043 -0.3718 0.3557 0 CFG=2
M  V30 8 C 1.0663 -0.27 -2.1335 0 CFG=1
M  V30 9 C 3.8785 0.9843 -1.6148 0
M  V30 10 C -0.2058 -1.1541 -0.1885 0
M  V30 11 C 0.5751 1.0716 0.7654 0
M  V30 12 C 1.608 -1.079 1.5906 0
M  V30 13 C -0.3388 -0.6806 -1.6432 0
M  V30 14 C 0.9891 1.0708 -2.8741 0
M  V30 15 O 4.1044 0.2514 -2.5663 0
M  V30 16 C 4.6769 2.2053 -1.2314 0
M  V30 17 C -1.4873 -1.0449 0.6792 0
M  V30 18 C -0.6699 1.1705 1.6624 0 CFG=1
M  V30 19 C 5.8703 2.414 -2.1462 0
M  V30 20 C -1.8817 0.4124 1.0647 0 CFG=1
M  V30 21 C -2.6581 -1.7771 -0.0027 0
M  V30 22 O -0.3531 0.7396 2.9795 0
M  V30 23 F -2.179 1.0654 -0.1147 0
M  V30 24 C -3.2101 0.4606 1.9352 0
M  V30 25 C -3.9294 -1.7494 0.8339 0 CFG=1
M  V30 26 C -4.2961 -0.3314 1.186 0
M  V30 27 C -3.6533 1.907 2.1608 0
M  V30 28 C -3.0682 -0.1584 3.3455 0
M  V30 29 F -4.9142 -2.3545 0.1104 0
M  V30 30 C -5.4791 0.1899 0.8132 0
M  V30 31 C -4.8323 2.4208 1.7857 0
M  V30 32 C -5.8379 1.5935 1.0937 0
M  V30 33 O -6.9241 2.0546 0.7684 0
M  V30 34 H 4.7036 -3.1528 -2.5058 0
M  V30 35 H 3.9535 -4.7608 -2.4968 0
M  V30 36 H 4.5681 -4.0744 -0.9821 0
M  V30 37 H 1.3785 -0.9899 -2.8966 0
M  V30 38 H 0.0487 -2.2216 -0.222 0
M  V30 39 H 1.4163 1.5638 1.2712 0
M  V30 40 H 0.3655 1.6657 -0.1281 0
M  V30 41 H 2.4992 -0.5512 1.9467 0
M  V30 42 H 0.9055 -1.1465 2.4233 0
M  V30 43 H 1.888 -2.1154 1.3786 0
M  V30 44 H -1.0341 0.1567 -1.7386 0
M  V30 45 H -0.7383 -1.4859 -2.2709 0
M  V30 46 H 0.201 1.0386 -3.6354 0
M  V30 47 H 0.7682 1.9076 -2.2078 0
M  V30 48 H 1.9194 1.2938 -3.4019 0
M  V30 49 H 5.0272 2.0809 -0.2013 0
M  V30 50 H 4.0196 3.0794 -1.2842 0
M  V30 51 H -1.2703 -1.5864 1.609 0
M  V30 52 H -0.9193 2.2354 1.7317 0
M  V30 53 H 6.4326 3.3023 -1.843 0
M  V30 54 H 5.5505 2.5491 -3.1848 0
M  V30 55 H 6.5458 1.5529 -2.1135 0
M  V30 56 H -2.3862 -2.8213 -0.2003 0
M  V30 57 H -2.8756 -1.3359 -0.9835 0
M  V30 58 H 0.3938 1.2776 3.2995 0
M  V30 59 H -3.8029 -2.3446 1.7438 0
M  V30 60 H -2.9662 2.5626 2.6911 0
M  V30 61 H -2.5143 0.491 4.0319 0
M  V30 62 H -2.5628 -1.1283 3.3326 0
M  V30 63 H -4.0516 -0.317 3.808 0
M  V30 64 H -6.2257 -0.382 0.2723 0
M  V30 65 H -5.1082 3.4505 1.978 0
M  V30 END ATOM
M  V30 BEGIN BOND
M  V30 1 1 1 2
M  V30 2 1 1 3
M  V30 3 2 2 4
M  V30 4 1 2 5
M  V30 5 1 5 6
M  V30 6 1 5 7
M  V30 7 1 5 8
M  V30 8 1 6 9
M  V30 9 1 7 10
M  V30 10 1 7 11
M  V30 11 1 7 12
M  V30 12 1 8 13
M  V30 13 1 8 14
M  V30 14 2 9 15
M  V30 15 1 9 16
M  V30 16 1 10 17
M  V30 17 1 11 18
M  V30 18 1 16 19
M  V30 19 1 17 20
M  V30 20 1 17 21
M  V30 21 1 18 22
M  V30 22 1 20 23
M  V30 23 1 20 24
M  V30 24 1 21 25
M  V30 25 1 24 26
M  V30 26 1 24 27
M  V30 27 1 24 28
M  V30 28 1 25 29
M  V30 29 2 26 30
M  V30 30 2 27 31
M  V30 31 1 30 32
M  V30 32 2 32 33
M  V30 33 1 10 13
M  V30 34 1 18 20
M  V30 35 1 25 26
M  V30 36 1 31 32
M  V30 37 1 3 34
M  V30 38 1 3 35
M  V30 39 1 3 36
M  V30 40 1 8 37
M  V30 41 1 10 38
M  V30 42 1 11 39
M  V30 43 1 11 40
M  V30 44 1 12 41
M  V30 45 1 12 42
M  V30 46 1 12 43
M  V30 47 1 13 44
M  V30 48 1 13 45
M  V30 49 1 14 46
M  V30 50 1 14 47
M  V30 51 1 14 48
M  V30 52 1 16 49
M  V30 53 1 16 50
M  V30 54 1 17 51
M  V30 55 1 18 52
M  V30 56 1 19 53
M  V30 57 1 19 54
M  V30 58 1 19 55
M  V30 59 1 21 56
M  V30 60 1 21 57
M  V30 61 1 22 58
M  V30 62 1 25 59
M  V30 63 1 27 60
M  V30 64 1 28 61
M  V30 65 1 28 62
M  V30 66 1 28 63
M  V30 67 1 30 64
M  V30 68 1 31 65
M  V30 END BOND
M  V30 BEGIN COLLECTION
M  V30 MDLV30/STEABS ATOMS=(6 5 7 8 18 20 25)
M  V30 END COLLECTION
M  V30 END CTAB
M  END
>  <NO.>
1438

>  <Name>
schembl144284

>  <SMILES>
CCC(=O)O[C@]1(C(=O)SC)[C@H](C)CC2C3C[C@H](F)C4=CC(=O)C=CC4(C)[C@@]3(F)[C@@H](O)C[C@@]21C

>  <logBB>


>  <Class>
1

>  <MW>
482.19

>  <nHBAcc>
6

>  <nHBDon>
1

>  <SLogP>
4.13

>  <TopoPSA>
80.67

>  <MMFF94 Energy>
129.48

$$$$
CCC(=O)O[C@]1(C(=O)SCCl)[C@H](C)C[C@H]2C3C[C@H](F)C4=CC(=O)C=C[C@]4(C)[C@@]3(F)[C@@H](O)C[C@@]21C
Actelion Java MolfileCreator 2.0

  0  0  0  0  0  0              0 V3000
M  V30 BEGIN CTAB
M  V30 COUNTS 65 68 0 0 0
M  V30 BEGIN ATOM
M  V30 1 Cl 5.5211 5.0257 2.1398 0
M  V30 2 C 3.8498 4.4544 1.9315 0
M  V30 3 S 3.7431 2.6966 2.3328 0
M  V30 4 C 2.0589 2.4559 1.8459 0
M  V30 5 O 1.2701 3.3878 1.9484 0
M  V30 6 C 1.6949 1.0332 1.2971 0 CFG=2
M  V30 7 O 2.535 0.5976 0.1937 0
M  V30 8 C 0.1568 0.8536 0.9257 0 CFG=2
M  V30 9 C 1.8601 -0.0689 2.4295 0 CFG=1
M  V30 10 C 2.9027 1.477 -0.7768 0
M  V30 11 C 0.0661 -0.6914 0.9027 0 CFG=1
M  V30 12 C -0.2828 1.3554 -0.4663 0
M  V30 13 C -0.7649 1.4657 2.0257 0
M  V30 14 C 0.7069 -1.0914 2.2262 0
M  V30 15 C 3.1987 -0.8155 2.4415 0
M  V30 16 O 2.558 2.6476 -0.824 0
M  V30 17 C 3.7881 0.7775 -1.7782 0
M  V30 18 C -1.3356 -1.243 0.5804 0
M  V30 19 C -1.6792 0.8502 -0.8954 0 CFG=1
M  V30 20 C 4.262 1.7185 -2.8716 0
M  V30 21 C -1.7966 -0.7023 -0.814 0 CFG=1
M  V30 22 C -1.3227 -2.7818 0.595 0
M  V30 23 O -2.6879 1.5068 -0.1374 0
M  V30 24 F -0.8643 -1.1796 -1.7227 0
M  V30 25 C -3.1932 -1.3079 -1.2547 0 CFG=2
M  V30 26 C -2.6606 -3.3785 0.1788 0 CFG=1
M  V30 27 C -3.0916 -2.8411 -1.1608 0
M  V30 28 C -3.5476 -0.8746 -2.6775 0
M  V30 29 C -4.3782 -0.8562 -0.3696 0
M  V30 30 F -2.5162 -4.7344 0.1504 0
M  V30 31 C -3.3141 -3.6697 -2.1975 0
M  V30 32 C -3.7667 -1.7046 -3.706 0
M  V30 33 C -3.6764 -3.1668 -3.5367 0
M  V30 34 O -3.894 -3.9288 -4.4698 0
M  V30 35 H 3.2129 5.0442 2.596 0
M  V30 36 H 3.5651 4.6378 0.8923 0
M  V30 37 H 1.7293 0.3921 3.4175 0
M  V30 38 H 0.7301 -1.071 0.1102 0
M  V30 39 H 0.4185 1.0094 -1.2322 0
M  V30 40 H -0.2625 2.4519 -0.4815 0
M  V30 41 H -0.3343 1.3902 3.0291 0
M  V30 42 H -0.9558 2.5274 1.836 0
M  V30 43 H -1.7448 0.9881 2.0831 0
M  V30 44 H 1.0611 -2.1276 2.2026 0
M  V30 45 H -0.0108 -1.016 3.0518 0
M  V30 46 H 3.2268 -1.523 3.278 0
M  V30 47 H 3.3502 -1.392 1.5226 0
M  V30 48 H 4.0475 -0.14 2.5615 0
M  V30 49 H 3.2212 -0.0456 -2.2255 0
M  V30 50 H 4.6562 0.3707 -1.2487 0
M  V30 51 H -2.0428 -0.9212 1.3506 0
M  V30 52 H -1.8127 1.1606 -1.9378 0
M  V30 53 H 4.9038 1.1868 -3.5806 0
M  V30 54 H 4.8329 2.5534 -2.4515 0
M  V30 55 H 3.4143 2.1374 -3.4243 0
M  V30 56 H -1.0754 -3.1527 1.597 0
M  V30 57 H -0.5335 -3.1644 -0.066 0
M  V30 58 H -2.5503 2.4681 -0.229 0
M  V30 59 H -3.4249 -3.1645 0.9329 0
M  V30 60 H -3.6577 0.1921 -2.8614 0
M  V30 61 H -5.2698 -1.4681 -0.5613 0
M  V30 62 H -4.1613 -0.9359 0.6996 0
M  V30 63 H -4.674 0.1798 -0.567 0
M  V30 64 H -3.2222 -4.7476 -2.1147 0
M  V30 65 H -4.0286 -1.351 -4.6959 0
M  V30 END ATOM
M  V30 BEGIN BOND
M  V30 1 1 1 2
M  V30 2 1 2 3
M  V30 3 1 3 4
M  V30 4 2 4 5
M  V30 5 1 4 6
M  V30 6 1 6 7
M  V30 7 1 6 8
M  V30 8 1 6 9
M  V30 9 1 7 10
M  V30 10 1 8 11
M  V30 11 1 8 12
M  V30 12 1 8 13
M  V30 13 1 9 14
M  V30 14 1 9 15
M  V30 15 2 10 16
M  V30 16 1 10 17
M  V30 17 1 11 18
M  V30 18 1 12 19
M  V30 19 1 17 20
M  V30 20 1 18 21
M  V30 21 1 18 22
M  V30 22 1 19 23
M  V30 23 1 21 24
M  V30 24 1 21 25
M  V30 25 1 22 26
M  V30 26 1 25 27
M  V30 27 1 25 28
M  V30 28 1 25 29
M  V30 29 1 26 30
M  V30 30 2 27 31
M  V30 31 2 28 32
M  V30 32 1 31 33
M  V30 33 2 33 34
M  V30 34 1 11 14
M  V30 35 1 19 21
M  V30 36 1 26 27
M  V30 37 1 32 33
M  V30 38 1 2 35
M  V30 39 1 2 36
M  V30 40 1 9 37
M  V30 41 1 11 38
M  V30 42 1 12 39
M  V30 43 1 12 40
M  V30 44 1 13 41
M  V30 45 1 13 42
M  V30 46 1 13 43
M  V30 47 1 14 44
M  V30 48 1 14 45
M  V30 49 1 15 46
M  V30 50 1 15 47
M  V30 51 1 15 48
M  V30 52 1 17 49
M  V30 53 1 17 50
M  V30 54 1 18 51
M  V30 55 1 19 52
M  V30 56 1 20 53
M  V30 57 1 20 54
M  V30 58 1 20 55
M  V30 59 1 22 56
M  V30 60 1 22 57
M  V30 61 1 23 58
M  V30 62 1 26 59
M  V30 63 1 28 60
M  V30 64 1 29 61
M  V30 65 1 29 62
M  V30 66 1 29 63
M  V30 67 1 31 64
M  V30 68 1 32 65
M  V30 END BOND
M  V30 BEGIN COLLECTION
M  V30 MDLV30/STEABS ATOMS=(8 6 8 9 11 19 21 25 26)
M  V30 END COLLECTION
M  V30 END CTAB
M  END
>  <NO.>
1439

>  <Name>
schembl13773292

>  <SMILES>
CCC(=O)O[C@]1(C(=O)SCCl)[C@H](C)C[C@H]2C3C[C@H](F)C4=CC(=O)C=C[C@]4(C)[C@@]3(F)[C@@H](O)C[C@@]21C

>  <logBB>


>  <Class>
1

>  <MW>
516.15

>  <nHBAcc>
6

>  <nHBDon>
1

>  <SLogP>
4.7

>  <TopoPSA>
80.67

>  <MMFF94 Energy>
113.57

$$$$
CCC(=O)O[C@]1(C(=O)SCF)[C@H](C)C[C@H]2[C@@H]3C[C@H](F)C4=CC(=O)C=C[C@]4(C)[C@@]3(F)[C@@H](O)C[C@@]21C
Actelion Java MolfileCreator 2.0

  0  0  0  0  0  0              0 V3000
M  V30 BEGIN CTAB
M  V30 COUNTS 65 68 0 0 0
M  V30 BEGIN ATOM
M  V30 1 S 0.2455 1.6375 4.0155 0
M  V30 2 C 1.6254 1.197 3.0003 0
M  V30 3 C 1.1813 2.4948 5.2967 0
M  V30 4 O 2.7007 0.9224 3.522 0
M  V30 5 C 1.3529 1.1147 1.4624 0 CFG=2
M  V30 6 F 0.3069 3.0289 6.1935 0
M  V30 7 O 0.641 2.239 0.8879 0
M  V30 8 C 0.5238 -0.189 1.08 0 CFG=2
M  V30 9 C 2.6958 0.8541 0.6605 0 CFG=1
M  V30 10 C 0.9244 3.5082 1.2892 0
M  V30 11 C 0.8292 -0.2654 -0.436 0 CFG=1
M  V30 12 C -1.0164 -0.0875 1.2145 0
M  V30 13 C 1.0506 -1.4219 1.8666 0
M  V30 14 C 2.339 -0.0876 -0.5179 0
M  V30 15 C 3.4495 2.0832 0.1633 0
M  V30 16 O 1.755 3.8055 2.1334 0
M  V30 17 C 0.0521 4.4789 0.5315 0
M  V30 18 C 0.1993 -1.4769 -1.1439 0 CFG=1
M  V30 19 C -1.7843 -1.2201 0.493 0 CFG=1
M  V30 20 C 0.3116 5.9171 0.9435 0
M  V30 21 C -1.3559 -1.4005 -0.9942 0 CFG=1
M  V30 22 C 0.6062 -1.5064 -2.6278 0
M  V30 23 O -1.6596 -2.4254 1.2396 0
M  V30 24 F -1.7311 -0.2194 -1.6166 0
M  V30 25 C -2.0868 -2.5649 -1.7833 0 CFG=2
M  V30 26 C -0.0848 -2.6222 -3.3996 0 CFG=1
M  V30 27 C -1.5801 -2.5377 -3.2365 0
M  V30 28 C -3.6041 -2.3832 -1.7349 0
M  V30 29 C -1.8125 -3.9764 -1.214 0
M  V30 30 F 0.2821 -2.5075 -4.708 0
M  V30 31 C -2.3845 -2.3974 -4.3059 0
M  V30 32 C -4.3997 -2.2427 -2.8035 0
M  V30 33 C -3.8468 -2.251 -4.1707 0
M  V30 34 O -4.5732 -2.1419 -5.1499 0
M  V30 35 H 1.8324 1.8048 5.8394 0
M  V30 36 H 1.773 3.3129 4.8786 0
M  V30 37 H 3.4026 0.3016 1.2929 0
M  V30 38 H 0.3998 0.6242 -0.9239 0
M  V30 39 H -1.2974 -0.0945 2.2727 0
M  V30 40 H -1.3683 0.8647 0.7996 0
M  V30 41 H 0.7294 -2.3732 1.4389 0
M  V30 42 H 0.6939 -1.4033 2.9024 0
M  V30 43 H 2.1428 -1.4665 1.9051 0
M  V30 44 H 2.8559 -1.0472 -0.3991 0
M  V30 45 H 2.6369 0.3241 -1.4884 0
M  V30 46 H 2.851 2.6777 -0.5336 0
M  V30 47 H 4.3594 1.7803 -0.367 0
M  V30 48 H 3.7612 2.7169 0.9982 0
M  V30 49 H -0.9958 4.2286 0.7273 0
M  V30 50 H 0.2552 4.3645 -0.5383 0
M  V30 51 H 0.5699 -2.3993 -0.686 0
M  V30 52 H -2.8439 -0.9405 0.52 0
M  V30 53 H -0.334 6.5977 0.3801 0
M  V30 54 H 1.3531 6.1981 0.755 0
M  V30 55 H 0.1139 6.0621 2.0109 0
M  V30 56 H 1.6904 -1.6391 -2.7245 0
M  V30 57 H 0.3818 -0.5428 -3.105 0
M  V30 58 H -2.0202 -2.2633 2.1309 0
M  V30 59 H 0.2751 -3.5993 -3.0616 0
M  V30 60 H -4.0772 -2.3963 -0.7551 0
M  V30 61 H -2.1335 -4.7553 -1.9185 0
M  V30 62 H -0.7522 -4.15 -1.0084 0
M  V30 63 H -2.361 -4.1653 -0.2848 0
M  V30 64 H -2.0059 -2.3652 -5.3222 0
M  V30 65 H -5.474 -2.129 -2.721 0
M  V30 END ATOM
M  V30 BEGIN BOND
M  V30 1 1 1 2
M  V30 2 1 1 3
M  V30 3 2 2 4
M  V30 4 1 2 5
M  V30 5 1 3 6
M  V30 6 1 5 7
M  V30 7 1 5 8
M  V30 8 1 5 9
M  V30 9 1 7 10
M  V30 10 1 8 11
M  V30 11 1 8 12
M  V30 12 1 8 13
M  V30 13 1 9 14
M  V30 14 1 9 15
M  V30 15 2 10 16
M  V30 16 1 10 17
M  V30 17 1 11 18
M  V30 18 1 12 19
M  V30 19 1 17 20
M  V30 20 1 18 21
M  V30 21 1 18 22
M  V30 22 1 19 23
M  V30 23 1 21 24
M  V30 24 1 21 25
M  V30 25 1 22 26
M  V30 26 1 25 27
M  V30 27 1 25 28
M  V30 28 1 25 29
M  V30 29 1 26 30
M  V30 30 2 27 31
M  V30 31 2 28 32
M  V30 32 1 31 33
M  V30 33 2 33 34
M  V30 34 1 11 14
M  V30 35 1 19 21
M  V30 36 1 26 27
M  V30 37 1 32 33
M  V30 38 1 3 35
M  V30 39 1 3 36
M  V30 40 1 9 37
M  V30 41 1 11 38
M  V30 42 1 12 39
M  V30 43 1 12 40
M  V30 44 1 13 41
M  V30 45 1 13 42
M  V30 46 1 13 43
M  V30 47 1 14 44
M  V30 48 1 14 45
M  V30 49 1 15 46
M  V30 50 1 15 47
M  V30 51 1 15 48
M  V30 52 1 17 49
M  V30 53 1 17 50
M  V30 54 1 18 51
M  V30 55 1 19 52
M  V30 56 1 20 53
M  V30 57 1 20 54
M  V30 58 1 20 55
M  V30 59 1 22 56
M  V30 60 1 22 57
M  V30 61 1 23 58
M  V30 62 1 26 59
M  V30 63 1 28 60
M  V30 64 1 29 61
M  V30 65 1 29 62
M  V30 66 1 29 63
M  V30 67 1 31 64
M  V30 68 1 32 65
M  V30 END BOND
M  V30 BEGIN COLLECTION
M  V30 MDLV30/STEABS ATOMS=(9 5 8 9 11 18 19 21 25 26)
M  V30 END COLLECTION
M  V30 END CTAB
M  END
>  <NO.>
1440

>  <Name>
fluticasone propionate

>  <SMILES>
CCC(=O)O[C@]1(C(=O)SCF)[C@H](C)C[C@H]2[C@@H]3C[C@H](F)C4=CC(=O)C=C[C@]4(C)[C@@]3(F)[C@@H](O)C[C@@]21C

>  <logBB>


>  <Class>
1

>  <MW>
500.18

>  <nHBAcc>
6

>  <nHBDon>
1

>  <SLogP>
4.43

>  <TopoPSA>
80.67

>  <MMFF94 Energy>
109.92

$$$$
CCC(=O)O[C@]1(c2ccccc2)CCN(C)C[C@@H]1CC
Actelion Java MolfileCreator 2.0

  0  0  0  0  0  0              0 V3000
M  V30 BEGIN CTAB
M  V30 COUNTS 45 46 0 0 0
M  V30 BEGIN ATOM
M  V30 1 O 2.0511 -1.4196 1.5775 0
M  V30 2 C 0.8318 -1.4461 1.6419 0
M  V30 3 O -0.0349 -0.7598 0.8524 0
M  V30 4 C 0.0662 -2.2845 2.6332 0
M  V30 5 C 0.424 0.1484 -0.1953 0 CFG=1
M  V30 6 C -0.638 -1.4206 3.6611 0
M  V30 7 C 1.074 -0.6104 -1.3709 0
M  V30 8 C -0.8559 0.9025 -0.7068 0 CFG=2
M  V30 9 C 1.3645 1.2287 0.4133 0
M  V30 10 C 0.9068 -1.9984 -1.5344 0
M  V30 11 C 1.8101 0.0688 -2.3604 0
M  V30 12 C -1.4791 1.7359 0.4379 0
M  V30 13 C -1.9455 0.0357 -1.3927 0
M  V30 14 C 0.6737 2.0328 1.5152 0
M  V30 15 C 1.4746 -2.6794 -2.6152 0
M  V30 16 C 2.378 -0.6116 -3.442 0
M  V30 17 N -0.5609 2.6876 1.0745 0
M  V30 18 C -2.6513 -1.0106 -0.5423 0
M  V30 19 C 2.2138 -1.9864 -3.5669 0
M  V30 20 C -0.3111 3.8664 0.249 0
M  V30 21 H 0.774 -2.9555 3.1323 0
M  V30 22 H -0.6452 -2.9158 2.0902 0
M  V30 23 H -1.1418 -2.0459 4.4044 0
M  V30 24 H -1.39 -0.7783 3.1912 0
M  V30 25 H 0.074 -0.7718 4.1818 0
M  V30 26 H -0.5334 1.6081 -1.4867 0
M  V30 27 H 2.2761 0.7846 0.8241 0
M  V30 28 H 1.7107 1.9297 -0.3539 0
M  V30 29 H 0.3227 -2.5776 -0.8246 0
M  V30 30 H 1.9484 1.1457 -2.3173 0
M  V30 31 H -2.3635 2.2726 0.0705 0
M  V30 32 H -1.8555 1.0714 1.2249 0
M  V30 33 H -1.5239 -0.4572 -2.2759 0
M  V30 34 H -2.7149 0.7152 -1.7838 0
M  V30 35 H 1.3713 2.7778 1.9181 0
M  V30 36 H 0.4378 1.3768 2.3617 0
M  V30 37 H 1.3362 -3.7531 -2.7112 0
M  V30 38 H 2.9475 -0.0635 -4.1881 0
M  V30 39 H -3.4565 -1.4721 -1.1244 0
M  V30 40 H -3.1055 -0.5752 0.3514 0
M  V30 41 H -1.978 -1.8149 -0.2393 0
M  V30 42 H 2.6566 -2.5156 -4.4059 0
M  V30 43 H 0.3049 4.5904 0.7939 0
M  V30 44 H -1.2529 4.3763 0.0167 0
M  V30 45 H 0.1913 3.6367 -0.6952 0
M  V30 END ATOM
M  V30 BEGIN BOND
M  V30 1 2 1 2
M  V30 2 1 2 3
M  V30 3 1 2 4
M  V30 4 1 3 5
M  V30 5 1 4 6
M  V30 6 1 5 7
M  V30 7 1 5 8
M  V30 8 1 5 9
M  V30 9 2 7 10
M  V30 10 1 7 11
M  V30 11 1 8 12
M  V30 12 1 8 13
M  V30 13 1 9 14
M  V30 14 1 10 15
M  V30 15 2 11 16
M  V30 16 1 12 17
M  V30 17 1 13 18
M  V30 18 2 15 19
M  V30 19 1 17 20
M  V30 20 1 14 17
M  V30 21 1 16 19
M  V30 22 1 4 21
M  V30 23 1 4 22
M  V30 24 1 6 23
M  V30 25 1 6 24
M  V30 26 1 6 25
M  V30 27 1 8 26
M  V30 28 1 9 27
M  V30 29 1 9 28
M  V30 30 1 10 29
M  V30 31 1 11 30
M  V30 32 1 12 31
M  V30 33 1 12 32
M  V30 34 1 13 33
M  V30 35 1 13 34
M  V30 36 1 14 35
M  V30 37 1 14 36
M  V30 38 1 15 37
M  V30 39 1 16 38
M  V30 40 1 18 39
M  V30 41 1 18 40
M  V30 42 1 18 41
M  V30 43 1 19 42
M  V30 44 1 20 43
M  V30 45 1 20 44
M  V30 46 1 20 45
M  V30 END BOND
M  V30 BEGIN COLLECTION
M  V30 MDLV30/STEABS ATOMS=(2 5 8)
M  V30 END COLLECTION
M  V30 END CTAB
M  END
>  <NO.>
1441

>  <Name>
alphameprodine/betameprodine

>  <SMILES>
CCC(=O)O[C@]1(c2ccccc2)CCN(C)C[C@@H]1CC

>  <logBB>


>  <Class>
1

>  <MW>
275.19

>  <nHBAcc>
3

>  <nHBDon>
0

>  <SLogP>
3.2

>  <TopoPSA>
29.54

>  <MMFF94 Energy>
29.925

$$$$
CCC(=O)c1ccc2c(c1)N(CC(C)N(C)C)c1ccccc1S2
Actelion Java MolfileCreator 2.0

  0  0  0  0  0  0              0 V3000
M  V30 BEGIN CTAB
M  V30 COUNTS 48 50 0 0 0
M  V30 BEGIN ATOM
M  V30 1 S -3.0536 -0.9635 -0.2408 0
M  V30 2 C -2.0277 0.3006 0.4809 0
M  V30 3 C -2.2974 -1.1807 -1.8393 0
M  V30 4 C -0.7788 0.6733 -0.0506 0
M  V30 5 C -2.514 0.9082 1.6515 0
M  V30 6 C -1.0297 -0.6603 -2.1637 0
M  V30 7 C -3.0348 -1.9115 -2.7882 0
M  V30 8 N -0.2537 0.0574 -1.2169 0
M  V30 9 C -0.0757 1.7023 0.6096 0
M  V30 10 C -1.7876 1.9071 2.2997 0
M  V30 11 C -0.5833 -0.8348 -3.49 0
M  V30 12 C -2.5479 -2.103 -4.0783 0
M  V30 13 C 1.2089 -0.2337 -1.2072 0
M  V30 14 C -0.5632 2.3153 1.7761 0
M  V30 15 C -1.3252 -1.5525 -4.4334 0
M  V30 16 C 1.6234 -1.2813 -0.1161 0 CFG=1
M  V30 17 C 0.2629 3.3855 2.415 0
M  V30 18 N 0.983 -2.6059 -0.3016 0
M  V30 19 C 3.1576 -1.3358 -0.0313 0
M  V30 20 O 1.3997 3.594 1.995 0
M  V30 21 C -0.333 4.1722 3.5703 0
M  V30 22 C 0.9427 -3.3855 0.9325 0
M  V30 23 C 1.5155 -3.4017 -1.4018 0
M  V30 24 C 0.5712 5.3087 4.0201 0
M  V30 25 H -3.4731 0.6021 2.066 0
M  V30 26 H -4.0046 -2.3282 -2.5251 0
M  V30 27 H 0.8642 2.0661 0.203 0
M  V30 28 H -2.2037 2.3432 3.2025 0
M  V30 29 H 0.3451 -0.382 -3.825 0
M  V30 30 H -3.1305 -2.6632 -4.8042 0
M  V30 31 H 1.5749 -0.5817 -2.178 0
M  V30 32 H 1.7696 0.6952 -1.0511 0
M  V30 33 H -0.9471 -1.6695 -5.4454 0
M  V30 34 H 1.2767 -0.8822 0.8458 0
M  V30 35 H 3.4949 -2.035 0.74 0
M  V30 36 H 3.6091 -1.6293 -0.9846 0
M  V30 37 H 3.5575 -0.3497 0.231 0
M  V30 38 H -0.493 3.4919 4.4135 0
M  V30 39 H -1.2937 4.5934 3.255 0
M  V30 40 H 1.94 -3.6812 1.2744 0
M  V30 41 H 0.3483 -4.2955 0.7918 0
M  V30 42 H 0.4541 -2.821 1.7346 0
M  V30 43 H 1.5231 -2.8416 -2.3412 0
M  V30 44 H 0.8806 -4.2783 -1.575 0
M  V30 45 H 2.5321 -3.7596 -1.2057 0
M  V30 46 H 0.108 5.8607 4.8439 0
M  V30 47 H 0.7585 6.0101 3.2002 0
M  V30 48 H 1.5388 4.9291 4.3649 0
M  V30 END ATOM
M  V30 BEGIN BOND
M  V30 1 1 1 2
M  V30 2 1 1 3
M  V30 3 2 2 4
M  V30 4 1 2 5
M  V30 5 2 3 6
M  V30 6 1 3 7
M  V30 7 1 4 8
M  V30 8 1 4 9
M  V30 9 2 5 10
M  V30 10 1 6 11
M  V30 11 2 7 12
M  V30 12 1 8 13
M  V30 13 2 9 14
M  V30 14 2 11 15
M  V30 15 1 13 16
M  V30 16 1 14 17
M  V30 17 1 16 18
M  V30 18 1 16 19
M  V30 19 2 17 20
M  V30 20 1 17 21
M  V30 21 1 18 22
M  V30 22 1 18 23
M  V30 23 1 21 24
M  V30 24 1 6 8
M  V30 25 1 10 14
M  V30 26 1 12 15
M  V30 27 1 5 25
M  V30 28 1 7 26
M  V30 29 1 9 27
M  V30 30 1 10 28
M  V30 31 1 11 29
M  V30 32 1 12 30
M  V30 33 1 13 31
M  V30 34 1 13 32
M  V30 35 1 15 33
M  V30 36 1 16 34
M  V30 37 1 19 35
M  V30 38 1 19 36
M  V30 39 1 19 37
M  V30 40 1 21 38
M  V30 41 1 21 39
M  V30 42 1 22 40
M  V30 43 1 22 41
M  V30 44 1 22 42
M  V30 45 1 23 43
M  V30 46 1 23 44
M  V30 47 1 23 45
M  V30 48 1 24 46
M  V30 49 1 24 47
M  V30 50 1 24 48
M  V30 END BOND
M  V30 BEGIN COLLECTION
M  V30 MDLV30/STERAC1 ATOMS=(1 16)
M  V30 END COLLECTION
M  V30 END CTAB
M  END
>  <NO.>
1442

>  <Name>
propiomazine

>  <SMILES>
CCC(=O)c1ccc2c(c1)N(CC(C)N(C)C)c1ccccc1S2

>  <logBB>


>  <Class>
1

>  <MW>
340.16

>  <nHBAcc>
4

>  <nHBDon>
0

>  <SLogP>
4.83

>  <TopoPSA>
23.55

>  <MMFF94 Energy>
115.94

$$$$
CCC(=O)c1ccc2c(c1)N(CCCN1CCN(CCO)CC1)c1ccccc1S2
Actelion Java MolfileCreator 2.0

  0  0  0  0  0  0              0 V3000
M  V30 BEGIN CTAB
M  V30 COUNTS 61 64 0 0 0
M  V30 BEGIN ATOM
M  V30 1 S -0.5623 4.1834 -2.0095 0
M  V30 2 C -1.6848 3.4178 -0.8595 0
M  V30 3 C -0.5854 3.0335 -3.3696 0
M  V30 4 C -2.1286 2.0887 -0.9884 0
M  V30 5 C -2.1062 4.2085 0.2234 0
M  V30 6 C -1.1297 1.7381 -3.2695 0
M  V30 7 C -0.0059 3.4747 -4.5726 0
M  V30 8 N -1.6983 1.2588 -2.0581 0
M  V30 9 C -3.0523 1.6209 -0.0309 0
M  V30 10 C -2.9946 3.7102 1.1764 0
M  V30 11 C -1.1211 0.944 -4.4345 0
M  V30 12 C 0.015 2.6557 -5.6978 0
M  V30 13 C -1.3577 -0.1408 -1.6957 0
M  V30 14 C -3.482 2.4119 1.0481 0
M  V30 15 C -0.5522 1.3917 -5.631 0
M  V30 16 C 0.0592 -0.2289 -1.1086 0
M  V30 17 C -4.4534 1.8215 2.0204 0
M  V30 18 C 0.3741 -1.6645 -0.6722 0
M  V30 19 O -4.767 0.638 1.9083 0
M  V30 20 C -5.0137 2.7091 3.1191 0
M  V30 21 N 1.7711 -1.8447 -0.2462 0
M  V30 22 C -6.0525 1.9912 3.966 0
M  V30 23 C 2.0717 -1.1275 1.0112 0
M  V30 24 C 2.0584 -3.2817 -0.0454 0
M  V30 25 C 3.5132 -1.3861 1.508 0
M  V30 26 C 3.5017 -3.5404 0.4466 0
M  V30 27 N 3.8039 -2.8217 1.6979 0
M  V30 28 C 5.2046 -3.0028 2.1307 0
M  V30 29 C 5.5629 -4.427 2.5916 0
M  V30 30 O 4.8732 -4.7659 3.7909 0
M  V30 31 H -1.7438 5.2301 0.3266 0
M  V30 32 H 0.4284 4.4699 -4.6396 0
M  V30 33 H -3.4867 0.6295 -0.1345 0
M  V30 34 H -3.2899 4.3596 1.9945 0
M  V30 35 H -1.5919 -0.0342 -4.4453 0
M  V30 36 H 0.4599 3.0102 -6.6235 0
M  V30 37 H -1.4372 -0.8147 -2.5545 0
M  V30 38 H -2.0681 -0.5627 -0.9779 0
M  V30 39 H -0.5634 0.7517 -6.5094 0
M  V30 40 H 0.1395 0.4541 -0.2556 0
M  V30 41 H 0.7928 0.1006 -1.8545 0
M  V30 42 H -0.3189 -1.9737 0.1212 0
M  V30 43 H 0.1851 -2.3203 -1.5322 0
M  V30 44 H -5.4812 3.5874 2.6615 0
M  V30 45 H -4.1908 3.0301 3.7664 0
M  V30 46 H -6.4401 2.6599 4.7409 0
M  V30 47 H -5.621 1.1129 4.4574 0
M  V30 48 H -6.8944 1.6532 3.3528 0
M  V30 49 H 1.9713 -0.0471 0.8612 0
M  V30 50 H 1.3633 -1.418 1.7988 0
M  V30 51 H 1.3521 -3.7175 0.6746 0
M  V30 52 H 1.926 -3.8147 -0.9948 0
M  V30 53 H 4.2206 -0.9433 0.7936 0
M  V30 54 H 3.6402 -0.8589 2.4616 0
M  V30 55 H 4.2067 -3.251 -0.344 0
M  V30 56 H 3.6038 -4.6201 0.598 0
M  V30 57 H 5.3892 -2.3373 2.9839 0
M  V30 58 H 5.8903 -2.7041 1.3278 0
M  V30 59 H 5.3392 -5.1752 1.8262 0
M  V30 60 H 6.636 -4.4769 2.8043 0
M  V30 61 H 5.0325 -5.7095 3.956 0
M  V30 END ATOM
M  V30 BEGIN BOND
M  V30 1 1 1 2
M  V30 2 1 1 3
M  V30 3 2 2 4
M  V30 4 1 2 5
M  V30 5 2 3 6
M  V30 6 1 3 7
M  V30 7 1 4 8
M  V30 8 1 4 9
M  V30 9 2 5 10
M  V30 10 1 6 11
M  V30 11 2 7 12
M  V30 12 1 8 13
M  V30 13 2 9 14
M  V30 14 2 11 15
M  V30 15 1 13 16
M  V30 16 1 14 17
M  V30 17 1 16 18
M  V30 18 2 17 19
M  V30 19 1 17 20
M  V30 20 1 18 21
M  V30 21 1 20 22
M  V30 22 1 21 23
M  V30 23 1 21 24
M  V30 24 1 23 25
M  V30 25 1 24 26
M  V30 26 1 25 27
M  V30 27 1 27 28
M  V30 28 1 28 29
M  V30 29 1 29 30
M  V30 30 1 6 8
M  V30 31 1 10 14
M  V30 32 1 12 15
M  V30 33 1 26 27
M  V30 34 1 5 31
M  V30 35 1 7 32
M  V30 36 1 9 33
M  V30 37 1 10 34
M  V30 38 1 11 35
M  V30 39 1 12 36
M  V30 40 1 13 37
M  V30 41 1 13 38
M  V30 42 1 15 39
M  V30 43 1 16 40
M  V30 44 1 16 41
M  V30 45 1 18 42
M  V30 46 1 18 43
M  V30 47 1 20 44
M  V30 48 1 20 45
M  V30 49 1 22 46
M  V30 50 1 22 47
M  V30 51 1 22 48
M  V30 52 1 23 49
M  V30 53 1 23 50
M  V30 54 1 24 51
M  V30 55 1 24 52
M  V30 56 1 25 53
M  V30 57 1 25 54
M  V30 58 1 26 55
M  V30 59 1 26 56
M  V30 60 1 28 57
M  V30 61 1 28 58
M  V30 62 1 29 59
M  V30 63 1 29 60
M  V30 64 1 30 61
M  V30 END BOND
M  V30 END CTAB
M  END
>  <NO.>
1443

>  <Name>
carphenazine

>  <SMILES>
CCC(=O)c1ccc2c(c1)N(CCCN1CCN(CCO)CC1)c1ccccc1S2

>  <logBB>


>  <Class>
1

>  <MW>
425.21

>  <nHBAcc>
6

>  <nHBDon>
1

>  <SLogP>
3.88

>  <TopoPSA>
47.02

>  <MMFF94 Energy>
169.84

$$$$
CCC(Br)(C(N)=O)C(C)C
Actelion Java MolfileCreator 2.0

  0  0  0  0  0  0              0 V3000
M  V30 BEGIN CTAB
M  V30 COUNTS 24 23 0 0 0
M  V30 BEGIN ATOM
M  V30 1 Br 0.3942 -1.8936 -0.9464 0
M  V30 2 C 0.2665 -0.1251 -0.0493 0 CFG=2
M  V30 3 C 0.5728 -0.2933 1.4541 0
M  V30 4 C -1.1811 0.4515 -0.2117 0
M  V30 5 C 1.326 0.8036 -0.699 0
M  V30 6 O 0.908 0.6488 2.1716 0
M  V30 7 N 0.3813 -1.516 2.025 0
M  V30 8 C -1.5671 0.811 -1.6551 0
M  V30 9 C -2.2942 -0.4194 0.3949 0
M  V30 10 C 2.7887 0.4307 -0.4528 0
M  V30 11 H -1.2069 1.3963 0.3514 0
M  V30 12 H 1.1829 0.8413 -1.7858 0
M  V30 13 H 1.18 1.8273 -0.3296 0
M  V30 14 H 0.1252 -2.3299 1.4807 0
M  V30 15 H 0.5603 -1.6175 3.0152 0
M  V30 16 H -1.555 -0.0621 -2.3137 0
M  V30 17 H -2.5789 1.2316 -1.6876 0
M  V30 18 H -0.9007 1.5706 -2.0737 0
M  V30 19 H -3.2609 0.0919 0.3177 0
M  V30 20 H -2.3952 -1.3798 -0.1188 0
M  V30 21 H -2.1261 -0.6102 1.4584 0
M  V30 22 H 3.034 -0.5562 -0.8537 0
M  V30 23 H 3.4403 1.1564 -0.9515 0
M  V30 24 H 3.0419 0.4443 0.6108 0
M  V30 END ATOM
M  V30 BEGIN BOND
M  V30 1 1 1 2
M  V30 2 1 2 3
M  V30 3 1 2 4
M  V30 4 1 2 5
M  V30 5 2 3 6
M  V30 6 1 3 7
M  V30 7 1 4 8
M  V30 8 1 4 9
M  V30 9 1 5 10
M  V30 10 1 4 11
M  V30 11 1 5 12
M  V30 12 1 5 13
M  V30 13 1 7 14
M  V30 14 1 7 15
M  V30 15 1 8 16
M  V30 16 1 8 17
M  V30 17 1 8 18
M  V30 18 1 9 19
M  V30 19 1 9 20
M  V30 20 1 9 21
M  V30 21 1 10 22
M  V30 22 1 10 23
M  V30 23 1 10 24
M  V30 END BOND
M  V30 BEGIN COLLECTION
M  V30 MDLV30/STERAC1 ATOMS=(1 2)
M  V30 END COLLECTION
M  V30 END CTAB
M  END
>  <NO.>
1444

>  <Name>
ibrotamide

>  <SMILES>
CCC(Br)(C(N)=O)C(C)C

>  <logBB>


>  <Class>
1

>  <MW>
207.03

>  <nHBAcc>
1

>  <nHBDon>
1

>  <SLogP>
1.67

>  <TopoPSA>
43.09

>  <MMFF94 Energy>
13.705

$$$$
CCC(Br)(CC)C(=O)NC(=O)NC(C)=O
Actelion Java MolfileCreator 2.0

  0  0  0  0  0  0              0 V3000
M  V30 BEGIN CTAB
M  V30 COUNTS 30 29 0 0 0
M  V30 BEGIN ATOM
M  V30 1 Br 0.3951 0.0 -3.0058 0
M  V30 2 C -1.0397 0.0259 -1.5675 0
M  V30 3 C -0.3857 0.8395 -0.4303 0
M  V30 4 C -2.2255 0.7579 -2.234 0
M  V30 5 C -1.2949 -1.4536 -1.2114 0
M  V30 6 O -0.8313 1.9212 -0.0555 0
M  V30 7 N 0.7875 0.2966 0.0611 0
M  V30 8 C -3.5189 0.8015 -1.4345 0
M  V30 9 C -1.9726 -1.7064 0.1318 0
M  V30 10 C 1.2345 0.4737 1.3528 0
M  V30 11 O 0.499 0.7026 2.3023 0
M  V30 12 N 2.6053 0.343 1.4315 0
M  V30 13 C 3.2811 0.0163 2.588 0
M  V30 14 O 2.8242 -0.6486 3.5102 0
M  V30 15 C 4.7306 0.423 2.555 0
M  V30 16 H -2.4544 0.2964 -3.2038 0
M  V30 17 H -1.936 1.7939 -2.457 0
M  V30 18 H -0.3481 -2.0095 -1.1894 0
M  V30 19 H -1.8932 -1.9221 -2.0034 0
M  V30 20 H 1.2828 -0.3682 -0.5121 0
M  V30 21 H -3.9993 -0.1804 -1.4099 0
M  V30 22 H -4.2258 1.4897 -1.9104 0
M  V30 23 H -3.3568 1.1463 -0.4098 0
M  V30 24 H -1.3624 -1.3476 0.9653 0
M  V30 25 H -2.9548 -1.2388 0.2041 0
M  V30 26 H -2.1139 -2.7833 0.2738 0
M  V30 27 H 3.1343 0.6523 0.6326 0
M  V30 28 H 5.3151 -0.3643 2.072 0
M  V30 29 H 5.0899 0.5728 3.5768 0
M  V30 30 H 4.8605 1.3583 2.0027 0
M  V30 END ATOM
M  V30 BEGIN BOND
M  V30 1 1 1 2
M  V30 2 1 2 3
M  V30 3 1 2 4
M  V30 4 1 2 5
M  V30 5 2 3 6
M  V30 6 1 3 7
M  V30 7 1 4 8
M  V30 8 1 5 9
M  V30 9 1 7 10
M  V30 10 2 10 11
M  V30 11 1 10 12
M  V30 12 1 12 13
M  V30 13 2 13 14
M  V30 14 1 13 15
M  V30 15 1 4 16
M  V30 16 1 4 17
M  V30 17 1 5 18
M  V30 18 1 5 19
M  V30 19 1 7 20
M  V30 20 1 8 21
M  V30 21 1 8 22
M  V30 22 1 8 23
M  V30 23 1 9 24
M  V30 24 1 9 25
M  V30 25 1 9 26
M  V30 26 1 12 27
M  V30 27 1 15 28
M  V30 28 1 15 29
M  V30 29 1 15 30
M  V30 END BOND
M  V30 END CTAB
M  END
>  <NO.>
1445

>  <Name>
acecarbromal

>  <SMILES>
CCC(Br)(CC)C(=O)NC(=O)NC(C)=O

>  <logBB>


>  <Class>
1

>  <MW>
278.03

>  <nHBAcc>
3

>  <nHBDon>
2

>  <SLogP>
1.31

>  <TopoPSA>
75.27

>  <MMFF94 Energy>
-66.567

$$$$
CCC(Br)(CC)C(=O)NC(N)=O
Actelion Java MolfileCreator 2.0

  0  0  0  0  0  0              0 V3000
M  V30 BEGIN CTAB
M  V30 COUNTS 25 24 0 0 0
M  V30 BEGIN ATOM
M  V30 1 Br 3.1547 0.2363 -0.5515 0
M  V30 2 C 1.251 0.346 0.0789 0
M  V30 3 C 0.3689 0.2808 -1.1929 0
M  V30 4 C 1.0523 -0.8074 1.0892 0
M  V30 5 C 1.1343 1.741 0.7398 0
M  V30 6 O 0.7389 0.7213 -2.279 0
M  V30 7 N -0.929 -0.1508 -0.9651 0
M  V30 8 C 1.1811 -2.2215 0.5237 0
M  V30 9 C -0.2094 2.0589 1.385 0
M  V30 10 C -1.767 -0.6213 -1.9375 0
M  V30 11 O -1.4576 -1.013 -3.0518 0
M  V30 12 N -3.0602 -0.7104 -1.5186 0
M  V30 13 H 1.7715 -0.7038 1.9126 0
M  V30 14 H 0.0614 -0.7375 1.5516 0
M  V30 15 H 1.3371 2.5215 -0.006 0
M  V30 16 H 1.9071 1.8498 1.5125 0
M  V30 17 H -1.2748 -0.2204 -0.0255 0
M  V30 18 H 0.4815 -2.4003 -0.2968 0
M  V30 19 H 2.1925 -2.4317 0.1662 0
M  V30 20 H 0.9589 -2.9516 1.3096 0
M  V30 21 H -1.0201 2.0586 0.6516 0
M  V30 22 H -0.4551 1.3536 2.1833 0
M  V30 23 H -0.176 3.0586 1.8317 0
M  V30 24 H -3.4242 -0.2531 -0.6986 0
M  V30 25 H -3.7195 -1.0814 -2.1923 0
M  V30 END ATOM
M  V30 BEGIN BOND
M  V30 1 1 1 2
M  V30 2 1 2 3
M  V30 3 1 2 4
M  V30 4 1 2 5
M  V30 5 2 3 6
M  V30 6 1 3 7
M  V30 7 1 4 8
M  V30 8 1 5 9
M  V30 9 1 7 10
M  V30 10 2 10 11
M  V30 11 1 10 12
M  V30 12 1 4 13
M  V30 13 1 4 14
M  V30 14 1 5 15
M  V30 15 1 5 16
M  V30 16 1 7 17
M  V30 17 1 8 18
M  V30 18 1 8 19
M  V30 19 1 8 20
M  V30 20 1 9 21
M  V30 21 1 9 22
M  V30 22 1 9 23
M  V30 23 1 12 24
M  V30 24 1 12 25
M  V30 END BOND
M  V30 END CTAB
M  END
>  <NO.>
1446

>  <Name>
carbromal

>  <SMILES>
CCC(Br)(CC)C(=O)NC(N)=O

>  <logBB>


>  <Class>
1

>  <MW>
236.02

>  <nHBAcc>
2

>  <nHBDon>
2

>  <SLogP>
1.13

>  <TopoPSA>
72.19

>  <MMFF94 Energy>
-67.109

$$$$
CCC(C(=O)NC(N)=O)c1ccccc1
Actelion Java MolfileCreator 2.0

  0  0  0  0  0  0              0 V3000
M  V30 BEGIN CTAB
M  V30 COUNTS 29 29 0 0 0
M  V30 BEGIN ATOM
M  V30 1 O -1.948 -1.4802 3.5087 0
M  V30 2 C -1.2539 -0.5453 3.1405 0
M  V30 3 N -1.0376 -0.1195 1.8588 0
M  V30 4 N -0.6256 0.2341 4.0656 0
M  V30 5 C -1.402 -0.7985 0.7026 0
M  V30 6 O -1.9084 -1.9145 0.6691 0
M  V30 7 C -1.1336 0.0244 -0.5713 0 CFG=1
M  V30 8 C 0.2922 0.5538 -0.6714 0
M  V30 9 C -1.6055 -0.6752 -1.8618 0
M  V30 10 C 0.5158 1.8651 -1.1201 0
M  V30 11 C 1.3999 -0.24 -0.3327 0
M  V30 12 C -0.7766 -1.8744 -2.3075 0
M  V30 13 C 1.8123 2.3745 -1.2087 0
M  V30 14 C 2.695 0.2723 -0.4222 0
M  V30 15 C 2.9007 1.5796 -0.8568 0
M  V30 16 H -0.5518 0.7551 1.7539 0
M  V30 17 H 0.0405 0.9574 3.8492 0
M  V30 18 H -0.7634 -0.0236 5.0349 0
M  V30 19 H -1.7915 0.8996 -0.4483 0
M  V30 20 H -2.6438 -1.0054 -1.7299 0
M  V30 21 H -1.6161 0.0535 -2.6826 0
M  V30 22 H -0.3186 2.5002 -1.412 0
M  V30 23 H 1.2679 -1.271 -0.0058 0
M  V30 24 H -0.6815 -2.6231 -1.5164 0
M  V30 25 H 0.2262 -1.5726 -2.6234 0
M  V30 26 H -1.2553 -2.356 -3.1668 0
M  V30 27 H 1.9745 3.3903 -1.5613 0
M  V30 28 H 3.5452 -0.3538 -0.1619 0
M  V30 29 H 3.9107 1.9746 -0.9332 0
M  V30 END ATOM
M  V30 BEGIN BOND
M  V30 1 2 1 2
M  V30 2 1 2 3
M  V30 3 1 2 4
M  V30 4 1 3 5
M  V30 5 2 5 6
M  V30 6 1 5 7
M  V30 7 1 7 8
M  V30 8 1 7 9
M  V30 9 2 8 10
M  V30 10 1 8 11
M  V30 11 1 9 12
M  V30 12 1 10 13
M  V30 13 2 11 14
M  V30 14 2 13 15
M  V30 15 1 14 15
M  V30 16 1 3 16
M  V30 17 1 4 17
M  V30 18 1 4 18
M  V30 19 1 7 19
M  V30 20 1 9 20
M  V30 21 1 9 21
M  V30 22 1 10 22
M  V30 23 1 11 23
M  V30 24 1 12 24
M  V30 25 1 12 25
M  V30 26 1 12 26
M  V30 27 1 13 27
M  V30 28 1 14 28
M  V30 29 1 15 29
M  V30 END BOND
M  V30 BEGIN COLLECTION
M  V30 MDLV30/STERAC1 ATOMS=(1 7)
M  V30 END COLLECTION
M  V30 END CTAB
M  END
>  <NO.>
1447

>  <Name>
pheneturide

>  <SMILES>
CCC(C(=O)NC(N)=O)c1ccccc1

>  <logBB>


>  <Class>
1

>  <MW>
206.11

>  <nHBAcc>
2

>  <nHBDon>
2

>  <SLogP>
1.38

>  <TopoPSA>
72.19

>  <MMFF94 Energy>
-61.405

$$$$
CCC(C(=O)OCCN1CCOC(c2ccccc2)C1C)c1ccccc1
Actelion Java MolfileCreator 2.0

  0  0  0  0  0  0              0 V3000
M  V30 BEGIN CTAB
M  V30 COUNTS 56 58 0 0 0
M  V30 BEGIN ATOM
M  V30 1 O -1.7468 -0.8731 2.7802 0
M  V30 2 C -0.9392 0.0205 3.0079 0
M  V30 3 O -0.391 0.8301 2.0586 0
M  V30 4 C -0.4164 0.3518 4.4004 0
M  V30 5 C -0.817 0.5403 0.7175 0
M  V30 6 C 1.034 -0.0873 4.5557 0
M  V30 7 C -0.6617 1.8283 4.7709 0
M  V30 8 C -0.0731 1.4851 -0.2369 0
M  V30 9 C 1.3146 -1.3556 5.0905 0
M  V30 10 C 2.108 0.7165 4.1433 0
M  V30 11 C -2.1447 2.1588 4.8948 0
M  V30 12 N -0.5055 1.4112 -1.6399 0
M  V30 13 C 2.6317 -1.7977 5.2276 0
M  V30 14 C 3.425 0.2723 4.2814 0
M  V30 15 C -0.3806 0.0697 -2.2844 0
M  V30 16 C 0.1759 2.4403 -2.4532 0
M  V30 17 C 3.6866 -0.9827 4.8254 0
M  V30 18 C -0.912 0.157 -3.7586 0
M  V30 19 C 1.0445 -0.5141 -2.2264 0
M  V30 20 C -0.2951 2.4229 -3.9158 0
M  V30 21 O -0.1484 1.1262 -4.5054 0
M  V30 22 C -0.935 -1.1815 -4.48 0
M  V30 23 C -1.901 -2.1409 -4.1321 0
M  V30 24 C -0.0079 -1.5008 -5.4838 0
M  V30 25 C -1.9353 -3.3834 -4.7681 0
M  V30 26 C -0.0434 -2.7437 -6.1195 0
M  V30 27 C -1.0061 -3.6844 -5.761 0
M  V30 28 H -1.0159 -0.2462 5.1021 0
M  V30 29 H -1.8986 0.7037 0.641 0
M  V30 30 H -0.5823 -0.5045 0.4872 0
M  V30 31 H -0.218 2.5049 4.031 0
M  V30 32 H -0.1792 2.0504 5.7313 0
M  V30 33 H -0.2463 2.507 0.1283 0
M  V30 34 H 1.0084 1.3306 -0.1343 0
M  V30 35 H 0.5058 -2.0139 5.4031 0
M  V30 36 H 1.9351 1.6946 3.7007 0
M  V30 37 H -2.6655 2.0213 3.9422 0
M  V30 38 H -2.273 3.2026 5.1991 0
M  V30 39 H -2.6269 1.5263 5.647 0
M  V30 40 H 2.8331 -2.7808 5.6454 0
M  V30 41 H 4.2475 0.9059 3.9595 0
M  V30 42 H -1.0415 -0.6218 -1.7474 0
M  V30 43 H -0.0268 3.436 -2.0411 0
M  V30 44 H 1.2618 2.2891 -2.4234 0
M  V30 45 H 4.7117 -1.3277 4.9308 0
M  V30 46 H -1.9535 0.5122 -3.7437 0
M  V30 47 H 1.0646 -1.5321 -2.6293 0
M  V30 48 H 1.761 0.0816 -2.8001 0
M  V30 49 H 1.4103 -0.5904 -1.1981 0
M  V30 50 H -1.3418 2.7408 -3.9969 0
M  V30 51 H 0.3063 3.1231 -4.5044 0
M  V30 52 H -2.6382 -1.9239 -3.3614 0
M  V30 53 H 0.7517 -0.779 -5.7775 0
M  V30 54 H -2.6888 -4.1156 -4.4894 0
M  V30 55 H 0.6812 -2.9746 -6.8957 0
M  V30 56 H -1.0332 -4.6507 -6.2573 0
M  V30 END ATOM
M  V30 BEGIN BOND
M  V30 1 2 1 2
M  V30 2 1 2 3
M  V30 3 1 2 4
M  V30 4 1 3 5
M  V30 5 1 4 6
M  V30 6 1 4 7
M  V30 7 1 5 8
M  V30 8 2 6 9
M  V30 9 1 6 10
M  V30 10 1 7 11
M  V30 11 1 8 12
M  V30 12 1 9 13
M  V30 13 2 10 14
M  V30 14 1 12 15
M  V30 15 1 12 16
M  V30 16 2 13 17
M  V30 17 1 15 18
M  V30 18 1 15 19
M  V30 19 1 16 20
M  V30 20 1 18 21
M  V30 21 1 18 22
M  V30 22 2 22 23
M  V30 23 1 22 24
M  V30 24 1 23 25
M  V30 25 2 24 26
M  V30 26 2 25 27
M  V30 27 1 14 17
M  V30 28 1 20 21
M  V30 29 1 26 27
M  V30 30 1 4 28
M  V30 31 1 5 29
M  V30 32 1 5 30
M  V30 33 1 7 31
M  V30 34 1 7 32
M  V30 35 1 8 33
M  V30 36 1 8 34
M  V30 37 1 9 35
M  V30 38 1 10 36
M  V30 39 1 11 37
M  V30 40 1 11 38
M  V30 41 1 11 39
M  V30 42 1 13 40
M  V30 43 1 14 41
M  V30 44 1 15 42
M  V30 45 1 16 43
M  V30 46 1 16 44
M  V30 47 1 17 45
M  V30 48 1 18 46
M  V30 49 1 19 47
M  V30 50 1 19 48
M  V30 51 1 19 49
M  V30 52 1 20 50
M  V30 53 1 20 51
M  V30 54 1 23 52
M  V30 55 1 24 53
M  V30 56 1 25 54
M  V30 57 1 26 55
M  V30 58 1 27 56
M  V30 END BOND
M  V30 END CTAB
M  END
>  <NO.>
1448

>  <Name>
fenbutrazate

>  <SMILES>
CCC(C(=O)OCCN1CCOC(c2ccccc2)C1C)c1ccccc1

>  <logBB>


>  <Class>
1

>  <MW>
367.21

>  <nHBAcc>
4

>  <nHBDon>
0

>  <SLogP>
4.19

>  <TopoPSA>
38.77

>  <MMFF94 Energy>
145.88

$$$$
CCC(C)(CC)OC(N)=O
Actelion Java MolfileCreator 2.0

  0  0  0  0  0  0              0 V3000
M  V30 BEGIN CTAB
M  V30 COUNTS 25 24 0 0 0
M  V30 BEGIN ATOM
M  V30 1 O -1.3752 1.2223 -2.0634 0
M  V30 2 C -0.4963 1.7666 -1.418 0
M  V30 3 O 0.2226 1.2431 -0.4049 0
M  V30 4 N -0.1003 3.0393 -1.6402 0
M  V30 5 C 0.0032 -0.1261 0.0487 0
M  V30 6 C 0.4322 -1.1058 -1.0745 0
M  V30 7 C 0.9398 -0.2924 1.277 0
M  V30 8 C -1.4591 -0.3319 0.4766 0
M  V30 9 C 0.3498 -2.5861 -0.7264 0
M  V30 10 C 0.7098 0.7216 2.3952 0
M  V30 11 H -0.5472 3.57 -2.3717 0
M  V30 12 H 0.6312 3.443 -1.0772 0
M  V30 13 H -0.1793 -0.9405 -1.9687 0
M  V30 14 H 1.4578 -0.8682 -1.3859 0
M  V30 15 H 1.9815 -0.1826 0.9485 0
M  V30 16 H 0.8401 -1.2965 1.7041 0
M  V30 17 H -1.5764 -1.2285 1.0942 0
M  V30 18 H -1.8339 0.5296 1.0396 0
M  V30 19 H -2.1194 -0.4483 -0.3887 0
M  V30 20 H 1.0369 -2.8514 0.0816 0
M  V30 21 H -0.6637 -2.8751 -0.434 0
M  V30 22 H 0.6262 -3.1873 -1.5991 0
M  V30 23 H -0.287 0.6167 2.833 0
M  V30 24 H 1.4397 0.5626 3.196 0
M  V30 25 H 0.8271 1.7494 2.0386 0
M  V30 END ATOM
M  V30 BEGIN BOND
M  V30 1 2 1 2
M  V30 2 1 2 3
M  V30 3 1 2 4
M  V30 4 1 3 5
M  V30 5 1 5 6
M  V30 6 1 5 7
M  V30 7 1 5 8
M  V30 8 1 6 9
M  V30 9 1 7 10
M  V30 10 1 4 11
M  V30 11 1 4 12
M  V30 12 1 6 13
M  V30 13 1 6 14
M  V30 14 1 7 15
M  V30 15 1 7 16
M  V30 16 1 8 17
M  V30 17 1 8 18
M  V30 18 1 8 19
M  V30 19 1 9 20
M  V30 20 1 9 21
M  V30 21 1 9 22
M  V30 22 1 10 23
M  V30 23 1 10 24
M  V30 24 1 10 25
M  V30 END BOND
M  V30 END CTAB
M  END
>  <NO.>
1450

>  <Name>
emylcamate

>  <SMILES>
CCC(C)(CC)OC(N)=O

>  <logBB>


>  <Class>
1

>  <MW>
145.11

>  <nHBAcc>
2

>  <nHBDon>
1

>  <SLogP>
1.66

>  <TopoPSA>
52.32

>  <MMFF94 Energy>
-59.518

$$$$
CCC(C)(O)C1CC23C=CC1(OC)C1Oc4c(OC)ccc5c4C12CCN(CC1CC1)C3C5
Actelion Java MolfileCreator 2.0

  0  0  0  0  0  0              0 V3000
M  V30 BEGIN CTAB
M  V30 COUNTS 70 76 0 0 0
M  V30 BEGIN ATOM
M  V30 1 O -0.1616 3.0746 -0.5658 0
M  V30 2 C 1.069 3.0321 0.0483 0
M  V30 3 C -0.7327 1.7334 -0.4189 0
M  V30 4 C 2.0442 4.013 0.0091 0
M  V30 5 C 1.3239 1.8133 0.6378 0
M  V30 6 C -0.8881 0.9172 -1.7695 0
M  V30 7 C 0.1374 0.9263 0.5569 0
M  V30 8 O 1.6955 5.2035 -0.5593 0
M  V30 9 C 3.3057 3.6837 0.5356 0
M  V30 10 C 2.5882 1.4117 1.033 0
M  V30 11 O -1.5447 1.6363 -2.8062 0
M  V30 12 C 0.4959 0.5526 -2.2754 0
M  V30 13 C -1.5944 -0.4686 -1.3967 0
M  V30 14 C 0.6091 -0.417 -0.0446 0
M  V30 15 C -0.5234 0.7671 1.9388 0
M  V30 16 C 2.7097 6.1927 -0.6578 0
M  V30 17 C 3.5858 2.3833 1.017 0
M  V30 18 C 2.8402 -0.064 1.2648 0
M  V30 19 C -2.6899 2.3869 -2.431 0
M  V30 20 C 1.247 -0.1689 -1.4247 0
M  V30 21 C -2.0796 -1.4349 -2.5512 0
M  V30 22 C -0.6547 -1.2533 -0.3786 0
M  V30 23 C 1.5887 -1.0112 1.0204 0
M  V30 24 C 0.3031 -0.0914 2.9038 0
M  V30 25 O -0.9592 -2.0831 -3.1634 0
M  V30 26 C -2.9611 -2.5562 -1.9195 0
M  V30 27 C -2.8641 -0.7419 -3.6716 0
M  V30 28 N 0.8154 -1.3081 2.2586 0
M  V30 29 C -3.4424 -3.6397 -2.8815 0
M  V30 30 C 1.562 -2.1622 3.1905 0
M  V30 31 C 0.608 -2.8844 4.1004 0
M  V30 32 C -0.3135 -3.9491 3.5576 0
M  V30 33 C 0.8327 -4.3358 4.4494 0
M  V30 34 H -1.7325 1.8969 0.0039 0
M  V30 35 H 4.1196 4.4022 0.5352 0
M  V30 36 H 0.8297 0.8483 -3.2624 0
M  V30 37 H -2.5076 -0.193 -0.8482 0
M  V30 38 H -1.5129 0.3066 1.8227 0
M  V30 39 H -0.7012 1.7467 2.4025 0
M  V30 40 H 3.0556 6.5035 0.3336 0
M  V30 41 H 2.2758 7.0696 -1.148 0
M  V30 42 H 3.5437 5.8446 -1.2763 0
M  V30 43 H 4.599 2.1373 1.3261 0
M  V30 44 H 3.6163 -0.3729 0.5515 0
M  V30 45 H 3.2656 -0.2098 2.2632 0
M  V30 46 H -2.4019 3.293 -1.8921 0
M  V30 47 H -3.3829 1.7909 -1.8309 0
M  V30 48 H -3.2054 2.6948 -3.3451 0
M  V30 49 H 2.2429 -0.5169 -1.6722 0
M  V30 50 H -1.2406 -1.4975 0.5146 0
M  V30 51 H -0.3326 -2.2186 -0.7886 0
M  V30 52 H 1.9654 -1.9655 0.627 0
M  V30 53 H 1.1181 0.5058 3.3304 0
M  V30 54 H -0.3522 -0.3523 3.743 0
M  V30 55 H -0.4337 -1.3994 -3.6145 0
M  V30 56 H -3.8348 -2.1081 -1.4301 0
M  V30 57 H -2.394 -3.0772 -1.1396 0
M  V30 58 H -3.2173 -1.4606 -4.4184 0
M  V30 59 H -2.2315 -0.0628 -4.2499 0
M  V30 60 H -3.7321 -0.2011 -3.2843 0
M  V30 61 H -4.174 -3.2514 -3.5954 0
M  V30 62 H -2.6111 -4.085 -3.4359 0
M  V30 63 H -3.9354 -4.4403 -2.3194 0
M  V30 64 H 2.2812 -1.5905 3.7888 0
M  V30 65 H 2.1394 -2.9099 2.6324 0
M  V30 66 H 0.2315 -2.2458 4.8914 0
M  V30 67 H -0.2487 -4.1931 2.503 0
M  V30 68 H -1.3179 -3.9987 3.9616 0
M  V30 69 H 1.6658 -4.8625 3.9986 0
M  V30 70 H 0.6022 -4.6559 5.4594 0
M  V30 END ATOM
M  V30 BEGIN BOND
M  V30 1 1 1 2
M  V30 2 1 1 3
M  V30 3 2 2 4
M  V30 4 1 2 5
M  V30 5 1 3 6
M  V30 6 1 3 7
M  V30 7 1 4 8
M  V30 8 1 4 9
M  V30 9 2 5 10
M  V30 10 1 6 11
M  V30 11 1 6 12
M  V30 12 1 6 13
M  V30 13 1 7 14
M  V30 14 1 7 15
M  V30 15 1 8 16
M  V30 16 2 9 17
M  V30 17 1 10 18
M  V30 18 1 11 19
M  V30 19 2 12 20
M  V30 20 1 13 21
M  V30 21 1 13 22
M  V30 22 1 14 23
M  V30 23 1 15 24
M  V30 24 1 21 25
M  V30 25 1 21 26
M  V30 26 1 21 27
M  V30 27 1 23 28
M  V30 28 1 26 29
M  V30 29 1 28 30
M  V30 30 1 30 31
M  V30 31 1 31 32
M  V30 32 1 31 33
M  V30 33 1 5 7
M  V30 34 1 10 17
M  V30 35 1 14 20
M  V30 36 1 14 22
M  V30 37 1 18 23
M  V30 38 1 24 28
M  V30 39 1 32 33
M  V30 40 1 3 34
M  V30 41 1 9 35
M  V30 42 1 12 36
M  V30 43 1 13 37
M  V30 44 1 15 38
M  V30 45 1 15 39
M  V30 46 1 16 40
M  V30 47 1 16 41
M  V30 48 1 16 42
M  V30 49 1 17 43
M  V30 50 1 18 44
M  V30 51 1 18 45
M  V30 52 1 19 46
M  V30 53 1 19 47
M  V30 54 1 19 48
M  V30 55 1 20 49
M  V30 56 1 22 50
M  V30 57 1 22 51
M  V30 58 1 23 52
M  V30 59 1 24 53
M  V30 60 1 24 54
M  V30 61 1 25 55
M  V30 62 1 26 56
M  V30 63 1 26 57
M  V30 64 1 27 58
M  V30 65 1 27 59
M  V30 66 1 27 60
M  V30 67 1 29 61
M  V30 68 1 29 62
M  V30 69 1 29 63
M  V30 70 1 30 64
M  V30 71 1 30 65
M  V30 72 1 31 66
M  V30 73 1 32 67
M  V30 74 1 32 68
M  V30 75 1 33 69
M  V30 76 1 33 70
M  V30 END BOND
M  V30 END CTAB
M  END
>  <NO.>
1451

>  <Name>
homprenorphine

>  <SMILES>
CCC(C)(O)C1CC23C=CC1(OC)C1Oc4c(OC)ccc5c4C12CCN(CC1CC1)C3C5

>  <logBB>


>  <Class>
1

>  <MW>
451.27

>  <nHBAcc>
5

>  <nHBDon>
1

>  <SLogP>
3.86

>  <TopoPSA>
51.16

>  <MMFF94 Energy>
191.14

$$$$
CCC(C)(S(=O)(=O)CC)S(=O)(=O)CC
Actelion Java MolfileCreator 2.0

  0  0  0  0  0  0              0 V3000
M  V30 BEGIN CTAB
M  V30 COUNTS 32 31 0 0 0
M  V30 BEGIN ATOM
M  V30 1 S -1.1407 -0.1629 0.7332 0
M  V30 2 O -2.0291 0.0792 -0.3902 0
M  V30 3 O -1.1886 -1.4345 1.4249 0
M  V30 4 C 0.5576 0.1618 0.1702 0
M  V30 5 C -1.4981 1.0955 1.9578 0
M  V30 6 S 1.1453 -1.3202 -0.7357 0
M  V30 7 C 0.5481 1.4023 -0.7723 0
M  V30 8 C 1.4784 0.367 1.3851 0
M  V30 9 C -2.9428 1.0276 2.4172 0
M  V30 10 O 2.1819 -0.881 -1.6568 0
M  V30 11 O 1.4803 -2.353 0.2277 0
M  V30 12 C -0.2018 -1.9335 -1.749 0
M  V30 13 C 1.871 2.1451 -0.9385 0
M  V30 14 C 0.2628 -3.05 -2.6669 0
M  V30 15 H -1.2923 2.0735 1.5179 0
M  V30 16 H -0.8342 0.9326 2.8105 0
M  V30 17 H 0.1847 1.1118 -1.7653 0
M  V30 18 H -0.1709 2.1433 -0.4046 0
M  V30 19 H 2.5343 0.372 1.0929 0
M  V30 20 H 1.2704 1.314 1.8932 0
M  V30 21 H 1.3549 -0.4333 2.123 0
M  V30 22 H -3.1363 1.7921 3.1758 0
M  V30 23 H -3.6313 1.1942 1.5828 0
M  V30 24 H -3.1734 0.0496 2.8511 0
M  V30 25 H -0.5813 -1.099 -2.3434 0
M  V30 26 H -0.9859 -2.3149 -1.0927 0
M  V30 27 H 2.68 1.4948 -1.2756 0
M  V30 28 H 2.1791 2.6208 -0.0024 0
M  V30 29 H 1.7552 2.9412 -1.6818 0
M  V30 30 H -0.5747 -3.4238 -3.2634 0
M  V30 31 H 1.0398 -2.7008 -3.354 0
M  V30 32 H 0.6745 -3.8861 -2.0928 0
M  V30 END ATOM
M  V30 BEGIN BOND
M  V30 1 2 1 2
M  V30 2 2 1 3
M  V30 3 1 1 4
M  V30 4 1 1 5
M  V30 5 1 4 6
M  V30 6 1 4 7
M  V30 7 1 4 8
M  V30 8 1 5 9
M  V30 9 2 6 10
M  V30 10 2 6 11
M  V30 11 1 6 12
M  V30 12 1 7 13
M  V30 13 1 12 14
M  V30 14 1 5 15
M  V30 15 1 5 16
M  V30 16 1 7 17
M  V30 17 1 7 18
M  V30 18 1 8 19
M  V30 19 1 8 20
M  V30 20 1 8 21
M  V30 21 1 9 22
M  V30 22 1 9 23
M  V30 23 1 9 24
M  V30 24 1 12 25
M  V30 25 1 12 26
M  V30 26 1 13 27
M  V30 27 1 13 28
M  V30 28 1 13 29
M  V30 29 1 14 30
M  V30 30 1 14 31
M  V30 31 1 14 32
M  V30 END BOND
M  V30 END CTAB
M  END
>  <NO.>
1452

>  <Name>
sulfonethylmethane

>  <SMILES>
CCC(C)(S(=O)(=O)CC)S(=O)(=O)CC

>  <logBB>


>  <Class>
1

>  <MW>
242.06

>  <nHBAcc>
4

>  <nHBDon>
0

>  <SLogP>
0.98

>  <TopoPSA>
68.28

>  <MMFF94 Energy>
-50.797

$$$$
CCC(C)C(C)(COC(N)=O)COC(=O)NC(C)C
Actelion Java MolfileCreator 2.0

  0  0  0  0  0  0              0 V3000
M  V30 BEGIN CTAB
M  V30 COUNTS 45 44 0 0 0
M  V30 BEGIN ATOM
M  V30 1 O 3.3227 -0.7719 -0.0771 0
M  V30 2 C 2.3708 -1.1687 0.5761 0
M  V30 3 O 1.0703 -0.8893 0.317 0
M  V30 4 N 2.4386 -1.9553 1.684 0
M  V30 5 C 0.8597 -0.0528 -0.8269 0
M  V30 6 C 3.69 -2.3974 2.269 0
M  V30 7 C -0.6507 0.2883 -1.0338 0
M  V30 8 C 4.2143 -1.3552 3.2532 0
M  V30 9 C 3.5028 -3.7468 2.9541 0
M  V30 10 C -1.1334 1.3567 0.0456 0
M  V30 11 C -0.7416 0.868 -2.4805 0
M  V30 12 C -1.4839 -1.0098 -0.9531 0
M  V30 13 C -2.5087 1.9991 -0.2805 0
M  V30 14 C -1.1318 0.8246 1.49 0
M  V30 15 O -2.0943 0.8838 -2.9595 0
M  V30 16 C -2.9932 3.0315 0.7325 0
M  V30 17 C -2.2427 1.4229 -4.1894 0
M  V30 18 O -1.3561 1.8736 -4.8953 0
M  V30 19 N -3.5447 1.3977 -4.5465 0
M  V30 20 H 1.5572 -2.1568 2.1352 0
M  V30 21 H 1.4378 0.8739 -0.7196 0
M  V30 22 H 1.2409 -0.597 -1.7007 0
M  V30 23 H 4.4232 -2.5122 1.4617 0
M  V30 24 H 3.5028 -1.1873 4.0695 0
M  V30 25 H 4.3759 -0.393 2.7551 0
M  V30 26 H 5.1667 -1.6736 3.6893 0
M  V30 27 H 4.4476 -4.1071 3.3741 0
M  V30 28 H 2.7697 -3.6831 3.7662 0
M  V30 29 H 3.1406 -4.4958 2.2415 0
M  V30 30 H -0.402 2.1775 0.0203 0
M  V30 31 H -0.161 0.2435 -3.1715 0
M  V30 32 H -0.3258 1.8837 -2.5017 0
M  V30 33 H -2.552 -0.8226 -1.0998 0
M  V30 34 H -1.3728 -1.5143 0.0117 0
M  V30 35 H -1.1666 -1.7198 -1.7257 0
M  V30 36 H -3.2781 1.2265 -0.3833 0
M  V30 37 H -2.4421 2.5266 -1.2368 0
M  V30 38 H -0.1644 0.4158 1.7828 0
M  V30 39 H -1.3274 1.6284 2.2071 0
M  V30 40 H -1.8967 0.0563 1.6379 0
M  V30 41 H -3.8724 3.554 0.3406 0
M  V30 42 H -3.2904 2.5632 1.6754 0
M  V30 43 H -2.2196 3.7783 0.9361 0
M  V30 44 H -3.814 1.7683 -5.4449 0
M  V30 45 H -4.2314 1.0121 -3.9177 0
M  V30 END ATOM
M  V30 BEGIN BOND
M  V30 1 2 1 2
M  V30 2 1 2 3
M  V30 3 1 2 4
M  V30 4 1 3 5
M  V30 5 1 4 6
M  V30 6 1 5 7
M  V30 7 1 6 8
M  V30 8 1 6 9
M  V30 9 1 7 10
M  V30 10 1 7 11
M  V30 11 1 7 12
M  V30 12 1 10 13
M  V30 13 1 10 14
M  V30 14 1 11 15
M  V30 15 1 13 16
M  V30 16 1 15 17
M  V30 17 2 17 18
M  V30 18 1 17 19
M  V30 19 1 4 20
M  V30 20 1 5 21
M  V30 21 1 5 22
M  V30 22 1 6 23
M  V30 23 1 8 24
M  V30 24 1 8 25
M  V30 25 1 8 26
M  V30 26 1 9 27
M  V30 27 1 9 28
M  V30 28 1 9 29
M  V30 29 1 10 30
M  V30 30 1 11 31
M  V30 31 1 11 32
M  V30 32 1 12 33
M  V30 33 1 12 34
M  V30 34 1 12 35
M  V30 35 1 13 36
M  V30 36 1 13 37
M  V30 37 1 14 38
M  V30 38 1 14 39
M  V30 39 1 14 40
M  V30 40 1 16 41
M  V30 41 1 16 42
M  V30 42 1 16 43
M  V30 43 1 19 44
M  V30 44 1 19 45
M  V30 END BOND
M  V30 END CTAB
M  END
>  <NO.>
1453

>  <Name>
nisobamate

>  <SMILES>
CCC(C)C(C)(COC(N)=O)COC(=O)NC(C)C

>  <logBB>


>  <Class>
1

>  <MW>
274.19

>  <nHBAcc>
4

>  <nHBDon>
2

>  <SLogP>
2.27

>  <TopoPSA>
90.65

>  <MMFF94 Energy>
-111.68

$$$$
CCC(C)C(C)(COC(N)=O)COC(N)=O
Actelion Java MolfileCreator 2.0

  0  0  0  0  0  0              0 V3000
M  V30 BEGIN CTAB
M  V30 COUNTS 36 35 0 0 0
M  V30 BEGIN ATOM
M  V30 1 O 4.0891 1.3101 -1.233 0
M  V30 2 C 3.9435 0.5405 -0.298 0
M  V30 3 O 2.7868 -0.0402 0.0909 0
M  V30 4 N 4.9495 0.1462 0.5117 0
M  V30 5 C 1.6464 0.3236 -0.7039 0
M  V30 6 C 0.3718 -0.4318 -0.2167 0
M  V30 7 C -0.8424 -0.0376 -1.1602 0 CFG=2
M  V30 8 C 0.1418 -0.0697 1.275 0
M  V30 9 C 0.6623 -1.9507 -0.3083 0
M  V30 10 C -1.3226 1.4215 -0.9461 0
M  V30 11 C -2.0444 -0.9975 -1.0987 0
M  V30 12 O -1.0355 -0.7114 1.7805 0
M  V30 13 C -2.2532 1.9318 -2.0409 0
M  V30 14 C -1.3195 -0.4186 3.0683 0
M  V30 15 O -0.6795 0.3123 3.8058 0
M  V30 16 N -2.4448 -1.0628 3.4463 0
M  V30 17 H 5.8789 0.5018 0.348 0
M  V30 18 H 4.765 -0.4872 1.2735 0
M  V30 19 H 1.5121 1.4072 -0.6232 0
M  V30 20 H 1.849 0.07 -1.7524 0
M  V30 21 H -0.4658 -0.106 -2.1912 0
M  V30 22 H 0.9968 -0.3987 1.8796 0
M  V30 23 H 0.0435 1.0162 1.394 0
M  V30 24 H 1.5651 -2.2247 0.2489 0
M  V30 25 H 0.8119 -2.2579 -1.3493 0
M  V30 26 H -0.15 -2.5523 0.1118 0
M  V30 27 H -1.838 1.5121 0.0173 0
M  V30 28 H -0.4668 2.1019 -0.9114 0
M  V30 29 H -2.7804 -0.7518 -1.871 0
M  V30 30 H -2.5588 -0.9541 -0.1355 0
M  V30 31 H -1.7527 -2.0329 -1.2927 0
M  V30 32 H -3.2192 1.4197 -2.0238 0
M  V30 33 H -1.805 1.8024 -3.0309 0
M  V30 34 H -2.4488 2.9995 -1.8959 0
M  V30 35 H -2.7866 -0.9417 4.3873 0
M  V30 36 H -2.9303 -1.6534 2.7899 0
M  V30 END ATOM
M  V30 BEGIN BOND
M  V30 1 2 1 2
M  V30 2 1 2 3
M  V30 3 1 2 4
M  V30 4 1 3 5
M  V30 5 1 5 6
M  V30 6 1 6 7
M  V30 7 1 6 8
M  V30 8 1 6 9
M  V30 9 1 7 10
M  V30 10 1 7 11
M  V30 11 1 8 12
M  V30 12 1 10 13
M  V30 13 1 12 14
M  V30 14 2 14 15
M  V30 15 1 14 16
M  V30 16 1 4 17
M  V30 17 1 4 18
M  V30 18 1 5 19
M  V30 19 1 5 20
M  V30 20 1 7 21
M  V30 21 1 8 22
M  V30 22 1 8 23
M  V30 23 1 9 24
M  V30 24 1 9 25
M  V30 25 1 9 26
M  V30 26 1 10 27
M  V30 27 1 10 28
M  V30 28 1 11 29
M  V30 29 1 11 30
M  V30 30 1 11 31
M  V30 31 1 13 32
M  V30 32 1 13 33
M  V30 33 1 13 34
M  V30 34 1 16 35
M  V30 35 1 16 36
M  V30 END BOND
M  V30 BEGIN COLLECTION
M  V30 MDLV30/STERAC1 ATOMS=(1 7)
M  V30 END COLLECTION
M  V30 END CTAB
M  END
>  <NO.>
1454

>  <Name>
mebutamate

>  <SMILES>
CCC(C)C(C)(COC(N)=O)COC(N)=O

>  <logBB>


>  <Class>
1

>  <MW>
232.14

>  <nHBAcc>
4

>  <nHBDon>
2

>  <SLogP>
1.23

>  <TopoPSA>
104.64

>  <MMFF94 Energy>
-123.06

$$$$
CCC(C)C(CC)C(=O)NC(N)=O
Actelion Java MolfileCreator 2.0

  0  0  0  0  0  0              0 V3000
M  V30 BEGIN CTAB
M  V30 COUNTS 31 30 0 0 0
M  V30 BEGIN ATOM
M  V30 1 O 0.7666 -4.0683 1.3034 0
M  V30 2 C 1.3408 -2.9962 1.4128 0
M  V30 3 N 0.872 -1.7559 1.0734 0
M  V30 4 N 2.5875 -2.9545 1.9628 0
M  V30 5 C -0.3064 -1.5007 0.3898 0
M  V30 6 O -1.0248 -2.3448 -0.132 0
M  V30 7 C -0.6088 0.0039 0.2903 0
M  V30 8 C 0.3006 0.6446 -0.8033 0
M  V30 9 C -2.1132 0.2621 0.0757 0
M  V30 10 C 0.3864 2.1754 -0.6152 0
M  V30 11 C -0.1413 0.2764 -2.2256 0
M  V30 12 C -2.9435 -0.0915 1.3051 0
M  V30 13 C 1.441 2.8374 -1.4926 0
M  V30 14 H 1.4188 -0.9734 1.3845 0
M  V30 15 H 3.173 -2.1374 2.0081 0
M  V30 16 H 2.9777 -3.8452 2.2451 0
M  V30 17 H -0.3303 0.4433 1.2591 0
M  V30 18 H 1.3164 0.2472 -0.6751 0
M  V30 19 H -2.2862 1.32 -0.1485 0
M  V30 20 H -2.4917 -0.3112 -0.7782 0
M  V30 21 H -0.5825 2.6443 -0.8196 0
M  V30 22 H 0.6319 2.3963 0.4307 0
M  V30 23 H -1.0815 0.7675 -2.4962 0
M  V30 24 H 0.613 0.5765 -2.9597 0
M  V30 25 H -0.2759 -0.8041 -2.3335 0
M  V30 26 H -2.6195 0.4876 2.1758 0
M  V30 27 H -2.8675 -1.1546 1.5515 0
M  V30 28 H -3.9989 0.1353 1.1231 0
M  V30 29 H 2.4222 2.3756 -1.3451 0
M  V30 30 H 1.5257 3.8992 -1.2391 0
M  V30 31 H 1.181 2.7722 -2.5529 0
M  V30 END ATOM
M  V30 BEGIN BOND
M  V30 1 2 1 2
M  V30 2 1 2 3
M  V30 3 1 2 4
M  V30 4 1 3 5
M  V30 5 2 5 6
M  V30 6 1 5 7
M  V30 7 1 7 8
M  V30 8 1 7 9
M  V30 9 1 8 10
M  V30 10 1 8 11
M  V30 11 1 9 12
M  V30 12 1 10 13
M  V30 13 1 3 14
M  V30 14 1 4 15
M  V30 15 1 4 16
M  V30 16 1 7 17
M  V30 17 1 8 18
M  V30 18 1 9 19
M  V30 19 1 9 20
M  V30 20 1 10 21
M  V30 21 1 10 22
M  V30 22 1 11 23
M  V30 23 1 11 24
M  V30 24 1 11 25
M  V30 25 1 12 26
M  V30 26 1 12 27
M  V30 27 1 12 28
M  V30 28 1 13 29
M  V30 29 1 13 30
M  V30 30 1 13 31
M  V30 END BOND
M  V30 END CTAB
M  END
>  <NO.>
1455

>  <Name>
capuride

>  <SMILES>
CCC(C)C(CC)C(=O)NC(N)=O

>  <logBB>


>  <Class>
1

>  <MW>
186.14

>  <nHBAcc>
2

>  <nHBDon>
2

>  <SLogP>
1.25

>  <TopoPSA>
72.19

>  <MMFF94 Energy>
-89.157

$$$$
CCC(C)C(CC)C(N)=O
Actelion Java MolfileCreator 2.0

  0  0  0  0  0  0              0 V3000
M  V30 BEGIN CTAB
M  V30 COUNTS 27 26 0 0 0
M  V30 BEGIN ATOM
M  V30 1 O 0.0 2.5248 -1.147 0
M  V30 2 C 0.1171 1.3221 -1.3539 0
M  V30 3 N 0.8317 0.8772 -2.4255 0
M  V30 4 C -0.4872 0.2344 -0.4656 0
M  V30 5 C 0.4412 -0.1244 0.7312 0
M  V30 6 C -1.9071 0.6838 -0.0549 0
M  V30 7 C 1.7992 -0.7339 0.3154 0
M  V30 8 C 0.6951 1.0629 1.6711 0
M  V30 9 C -2.6896 -0.3737 0.7093 0
M  V30 10 C 1.6776 -2.0736 -0.3978 0
M  V30 11 H 1.2487 1.5733 -3.0296 0
M  V30 12 H 0.9543 -0.0988 -2.65 0
M  V30 13 H -0.6167 -0.6629 -1.0839 0
M  V30 14 H -0.0668 -0.8922 1.3285 0
M  V30 15 H -2.4709 0.9326 -0.964 0
M  V30 16 H -1.8759 1.6074 0.5341 0
M  V30 17 H 2.366 -0.034 -0.308 0
M  V30 18 H 2.4046 -0.8962 1.2166 0
M  V30 19 H 1.2886 0.7463 2.5363 0
M  V30 20 H 1.247 1.8649 1.1712 0
M  V30 21 H -0.2387 1.4766 2.0616 0
M  V30 22 H -2.2649 -0.5491 1.7017 0
M  V30 23 H -2.7071 -1.3223 0.1639 0
M  V30 24 H -3.7246 -0.0451 0.8492 0
M  V30 25 H 1.109 -2.7882 0.2056 0
M  V30 26 H 2.6728 -2.496 -0.5704 0
M  V30 27 H 1.1886 -1.9781 -1.3701 0
M  V30 END ATOM
M  V30 BEGIN BOND
M  V30 1 2 1 2
M  V30 2 1 2 3
M  V30 3 1 2 4
M  V30 4 1 4 5
M  V30 5 1 4 6
M  V30 6 1 5 7
M  V30 7 1 5 8
M  V30 8 1 6 9
M  V30 9 1 7 10
M  V30 10 1 3 11
M  V30 11 1 3 12
M  V30 12 1 4 13
M  V30 13 1 5 14
M  V30 14 1 6 15
M  V30 15 1 6 16
M  V30 16 1 7 17
M  V30 17 1 7 18
M  V30 18 1 8 19
M  V30 19 1 8 20
M  V30 20 1 8 21
M  V30 21 1 9 22
M  V30 22 1 9 23
M  V30 23 1 9 24
M  V30 24 1 10 25
M  V30 25 1 10 26
M  V30 26 1 10 27
M  V30 END BOND
M  V30 END CTAB
M  END
>  <NO.>
1456

>  <Name>
valnoctamide

>  <SMILES>
CCC(C)C(CC)C(N)=O

>  <logBB>


>  <Class>
1

>  <MW>
143.13

>  <nHBAcc>
1

>  <nHBDon>
1

>  <SLogP>
1.54

>  <TopoPSA>
43.09

>  <MMFF94 Energy>
-17.4

$$$$
CCC(C)C1(CC)C(=O)NC(=O)NC1=O
Actelion Java MolfileCreator 2.0

  0  0  0  0  0  0              0 V3000
M  V30 BEGIN CTAB
M  V30 COUNTS 31 31 0 0 0
M  V30 BEGIN ATOM
M  V30 1 O -1.9578 -0.3913 -3.5262 0
M  V30 2 C -1.2099 -0.3265 -2.5568 0
M  V30 3 N -0.8926 -1.4255 -1.8283 0
M  V30 4 N -0.6464 0.845 -2.1698 0
M  V30 5 C -0.0818 -1.472 -0.7329 0
M  V30 6 C 0.2264 1.0301 -1.1383 0
M  V30 7 O 0.1318 -2.5524 -0.1831 0
M  V30 8 C 0.5022 -0.1572 -0.2259 0
M  V30 9 O 0.744 2.1349 -0.9792 0
M  V30 10 C -0.1361 0.1019 1.1997 0 CFG=2
M  V30 11 C 2.0454 -0.3453 -0.132 0
M  V30 12 C -1.6596 0.3892 1.1164 0
M  V30 13 C 0.5725 1.1961 2.0161 0
M  V30 14 C 2.7175 -0.7503 -1.4443 0
M  V30 15 C -2.364 0.3857 2.4682 0
M  V30 16 H -1.2921 -2.3018 -2.1345 0
M  V30 17 H -0.8504 1.6536 -2.7409 0
M  V30 18 H -0.02 -0.8257 1.779 0
M  V30 19 H 2.2833 -1.1041 0.6242 0
M  V30 20 H 2.5249 0.5856 0.1925 0
M  V30 21 H -1.8384 1.3566 0.6327 0
M  V30 22 H -2.1485 -0.3706 0.4976 0
M  V30 23 H 1.6394 0.9897 2.1346 0
M  V30 24 H 0.4569 2.1835 1.5605 0
M  V30 25 H 0.1679 1.2533 3.0315 0
M  V30 26 H 3.8004 -0.8218 -1.2984 0
M  V30 27 H 2.5366 -0.0134 -2.2324 0
M  V30 28 H 2.3688 -1.7258 -1.7952 0
M  V30 29 H -2.0596 1.2352 3.0858 0
M  V30 30 H -2.1588 -0.5384 3.0171 0
M  V30 31 H -3.447 0.4597 2.3243 0
M  V30 END ATOM
M  V30 BEGIN BOND
M  V30 1 2 1 2
M  V30 2 1 2 3
M  V30 3 1 2 4
M  V30 4 1 3 5
M  V30 5 1 4 6
M  V30 6 2 5 7
M  V30 7 1 5 8
M  V30 8 2 6 9
M  V30 9 1 8 10
M  V30 10 1 8 11
M  V30 11 1 10 12
M  V30 12 1 10 13
M  V30 13 1 11 14
M  V30 14 1 12 15
M  V30 15 1 6 8
M  V30 16 1 3 16
M  V30 17 1 4 17
M  V30 18 1 10 18
M  V30 19 1 11 19
M  V30 20 1 11 20
M  V30 21 1 12 21
M  V30 22 1 12 22
M  V30 23 1 13 23
M  V30 24 1 13 24
M  V30 25 1 13 25
M  V30 26 1 14 26
M  V30 27 1 14 27
M  V30 28 1 14 28
M  V30 29 1 15 29
M  V30 30 1 15 30
M  V30 31 1 15 31
M  V30 END BOND
M  V30 BEGIN COLLECTION
M  V30 MDLV30/STERAC1 ATOMS=(1 10)
M  V30 END COLLECTION
M  V30 END CTAB
M  END
>  <NO.>
1458

>  <Name>
butobarbitone

>  <SMILES>
CCC(C)C1(CC)C(=O)NC(=O)NC1=O

>  <logBB>


>  <Class>
1

>  <MW>
212.12

>  <nHBAcc>
3

>  <nHBDon>
2

>  <SLogP>
0.79

>  <TopoPSA>
75.27

>  <MMFF94 Energy>
-120.9

$$$$
CCC(CC)(CNC(=O)CCCO)c1cccc(OC)c1
Actelion Java MolfileCreator 2.0

  0  0  0  0  0  0              0 V3000
M  V30 BEGIN CTAB
M  V30 COUNTS 48 48 0 0 0
M  V30 BEGIN ATOM
M  V30 1 O 1.8729 -1.6386 -1.7948 0
M  V30 2 C 0.7816 -1.0994 -1.9316 0
M  V30 3 N 0.4697 0.1309 -1.3986 0
M  V30 4 C -0.3733 -1.7097 -2.7024 0
M  V30 5 C 1.4027 0.9047 -0.5942 0
M  V30 6 C -0.0657 -3.0791 -3.297 0
M  V30 7 C 1.1293 0.8541 0.9494 0
M  V30 8 C 0.9377 -3.0216 -4.4417 0
M  V30 9 C -0.3224 1.3738 1.1807 0
M  V30 10 C 2.1758 1.8003 1.6469 0
M  V30 11 C 1.3345 -0.613 1.4588 0
M  V30 12 O 1.0116 -4.3079 -5.0456 0
M  V30 13 C -1.4309 0.5019 1.1472 0
M  V30 14 C -0.6027 2.7389 1.3658 0
M  V30 15 C 3.636 1.3515 1.6265 0
M  V30 16 C 1.1663 -0.8104 2.9642 0
M  V30 17 C -2.7475 0.9532 1.3147 0
M  V30 18 C -1.9127 3.1981 1.5369 0
M  V30 19 O -3.6983 -0.0283 1.2487 0
M  V30 20 C -2.9842 2.3082 1.514 0
M  V30 21 C -5.0433 0.3622 1.4954 0
M  V30 22 H -0.4623 0.5068 -1.5265 0
M  V30 23 H -0.677 -1.0118 -3.4915 0
M  V30 24 H -1.2161 -1.8076 -2.0069 0
M  V30 25 H 2.4184 0.5631 -0.8177 0
M  V30 26 H 1.322 1.9368 -0.9572 0
M  V30 27 H -0.9987 -3.5239 -3.6657 0
M  V30 28 H 0.3035 -3.7637 -2.5233 0
M  V30 29 H 0.6217 -2.3047 -5.2059 0
M  V30 30 H 1.9363 -2.7484 -4.0905 0
M  V30 31 H 1.886 1.9661 2.6927 0
M  V30 32 H 2.158 2.7865 1.1663 0
M  V30 33 H 0.6561 -1.3069 0.9512 0
M  V30 34 H 2.336 -0.9627 1.1788 0
M  V30 35 H 1.7504 -4.28 -5.6772 0
M  V30 36 H -1.2966 -0.5637 0.9807 0
M  V30 37 H 0.1854 3.486 1.3779 0
M  V30 38 H 3.7942 0.4355 2.201 0
M  V30 39 H 4.2629 2.1267 2.0808 0
M  V30 40 H 4.0002 1.1935 0.6083 0
M  V30 41 H 1.9053 -0.2434 3.5363 0
M  V30 42 H 1.3027 -1.8679 3.214 0
M  V30 43 H 0.1704 -0.5172 3.3067 0
M  V30 44 H -2.0958 4.2599 1.6853 0
M  V30 45 H -3.9844 2.7052 1.6469 0
M  V30 46 H -5.1544 0.7903 2.4972 0
M  V30 47 H -5.6665 -0.5359 1.4463 0
M  V30 48 H -5.3987 1.0561 0.7266 0
M  V30 END ATOM
M  V30 BEGIN BOND
M  V30 1 2 1 2
M  V30 2 1 2 3
M  V30 3 1 2 4
M  V30 4 1 3 5
M  V30 5 1 4 6
M  V30 6 1 5 7
M  V30 7 1 6 8
M  V30 8 1 7 9
M  V30 9 1 7 10
M  V30 10 1 7 11
M  V30 11 1 8 12
M  V30 12 2 9 13
M  V30 13 1 9 14
M  V30 14 1 10 15
M  V30 15 1 11 16
M  V30 16 1 13 17
M  V30 17 2 14 18
M  V30 18 1 17 19
M  V30 19 2 17 20
M  V30 20 1 19 21
M  V30 21 1 18 20
M  V30 22 1 3 22
M  V30 23 1 4 23
M  V30 24 1 4 24
M  V30 25 1 5 25
M  V30 26 1 5 26
M  V30 27 1 6 27
M  V30 28 1 6 28
M  V30 29 1 8 29
M  V30 30 1 8 30
M  V30 31 1 10 31
M  V30 32 1 10 32
M  V30 33 1 11 33
M  V30 34 1 11 34
M  V30 35 1 12 35
M  V30 36 1 13 36
M  V30 37 1 14 37
M  V30 38 1 15 38
M  V30 39 1 15 39
M  V30 40 1 15 40
M  V30 41 1 16 41
M  V30 42 1 16 42
M  V30 43 1 16 43
M  V30 44 1 18 44
M  V30 45 1 20 45
M  V30 46 1 21 46
M  V30 47 1 21 47
M  V30 48 1 21 48
M  V30 END BOND
M  V30 END CTAB
M  END
>  <NO.>
1460

>  <Name>
embutramide

>  <SMILES>
CCC(CC)(CNC(=O)CCCO)c1cccc(OC)c1

>  <logBB>


>  <Class>
1

>  <MW>
293.2

>  <nHBAcc>
3

>  <nHBDon>
2

>  <SLogP>
2.64

>  <TopoPSA>
58.56

>  <MMFF94 Energy>
22.995

$$$$
CCC(N)Cc1c[nH]c2ccccc12
Actelion Java MolfileCreator 2.0

  0  0  0  0  0  0              0 V3000
M  V30 BEGIN CTAB
M  V30 COUNTS 30 31 0 0 0
M  V30 BEGIN ATOM
M  V30 1 N -1.33 1.5649 -1.4866 0
M  V30 2 C 0.0087 1.8483 -1.3605 0
M  V30 3 C -1.5557 0.2353 -1.2585 0
M  V30 4 C 0.6527 0.6542 -1.0341 0
M  V30 5 C 0.6902 3.0613 -1.5179 0
M  V30 6 C -0.3517 -0.3651 -0.9405 0
M  V30 7 C 2.0543 0.6744 -0.8751 0
M  V30 8 C 2.0765 3.0538 -1.3435 0
M  V30 9 C -0.1488 -1.8142 -0.6213 0
M  V30 10 C 2.752 1.878 -1.0294 0
M  V30 11 C -0.1167 -2.2032 0.8778 0 CFG=1
M  V30 12 N 1.0013 -1.611 1.6228 0
M  V30 13 C -1.4589 -2.0207 1.6183 0
M  V30 14 C -1.7281 -0.6504 2.2293 0
M  V30 15 H -2.0385 2.2439 -1.7272 0
M  V30 16 H -2.5561 -0.1712 -1.327 0
M  V30 17 H 0.1672 3.9779 -1.7701 0
M  V30 18 H 2.5967 -0.2353 -0.6394 0
M  V30 19 H 2.6352 3.9796 -1.4601 0
M  V30 20 H 0.7889 -2.1433 -1.0895 0
M  V30 21 H -0.9376 -2.3975 -1.1156 0
M  V30 22 H 3.8318 1.8922 -0.9047 0
M  V30 23 H 0.0696 -3.2861 0.8801 0
M  V30 24 H 0.9084 -0.593 1.5934 0
M  V30 25 H 1.8736 -1.8114 1.137 0
M  V30 26 H -1.4976 -2.7501 2.4386 0
M  V30 27 H -2.2848 -2.2804 0.9449 0
M  V30 28 H -1.6794 0.1536 1.4948 0
M  V30 29 H -1.0174 -0.4257 3.0309 0
M  V30 30 H -2.73 -0.6343 2.6715 0
M  V30 END ATOM
M  V30 BEGIN BOND
M  V30 1 1 1 2
M  V30 2 1 1 3
M  V30 3 2 2 4
M  V30 4 1 2 5
M  V30 5 2 3 6
M  V30 6 1 4 7
M  V30 7 2 5 8
M  V30 8 1 6 9
M  V30 9 2 7 10
M  V30 10 1 9 11
M  V30 11 1 11 12
M  V30 12 1 11 13
M  V30 13 1 13 14
M  V30 14 1 4 6
M  V30 15 1 8 10
M  V30 16 1 1 15
M  V30 17 1 3 16
M  V30 18 1 5 17
M  V30 19 1 7 18
M  V30 20 1 8 19
M  V30 21 1 9 20
M  V30 22 1 9 21
M  V30 23 1 10 22
M  V30 24 1 11 23
M  V30 25 1 12 24
M  V30 26 1 12 25
M  V30 27 1 13 26
M  V30 28 1 13 27
M  V30 29 1 14 28
M  V30 30 1 14 29
M  V30 31 1 14 30
M  V30 END BOND
M  V30 BEGIN COLLECTION
M  V30 MDLV30/STERAC1 ATOMS=(1 11)
M  V30 END COLLECTION
M  V30 END CTAB
M  END
>  <NO.>
1461

>  <Name>
etryptamine

>  <SMILES>
CCC(N)Cc1c[nH]c2ccccc12

>  <logBB>


>  <Class>
1

>  <MW>
188.13

>  <nHBAcc>
1

>  <nHBDon>
2

>  <SLogP>
2.45

>  <TopoPSA>
41.81

>  <MMFF94 Energy>
31.578

$$$$
CCC(O)(COC(N)=O)c1ccccc1
Actelion Java MolfileCreator 2.0

  0  0  0  0  0  0              0 V3000
M  V30 BEGIN CTAB
M  V30 COUNTS 30 30 0 0 0
M  V30 BEGIN ATOM
M  V30 1 O 1.9523 1.4835 -2.6559 0
M  V30 2 C 0.9044 1.0985 -3.1447 0
M  V30 3 O -0.2495 0.8491 -2.4909 0
M  V30 4 N 0.7457 0.8512 -4.4626 0
M  V30 5 C -0.2479 1.0862 -1.0618 0
M  V30 6 C -0.5078 -0.2476 -0.3126 0 CFG=2
M  V30 7 O -1.7117 -0.7995 -0.9021 0
M  V30 8 C -0.7787 -0.0699 1.1832 0
M  V30 9 C 0.5968 -1.3037 -0.5579 0
M  V30 10 C -1.6083 -0.9813 1.8639 0
M  V30 11 C -0.1927 0.9626 1.9366 0
M  V30 12 C 1.9762 -0.9535 -0.0166 0
M  V30 13 C -1.8574 -0.8567 3.2326 0
M  V30 14 C -0.4412 1.087 3.3074 0
M  V30 15 C -1.2747 0.1796 3.9542 0
M  V30 16 H 1.5279 0.996 -5.0833 0
M  V30 17 H -0.1448 0.5473 -4.8231 0
M  V30 18 H 0.6666 1.5844 -0.7267 0
M  V30 19 H -1.079 1.7788 -0.8808 0
M  V30 20 H -1.619 -0.6778 -1.8645 0
M  V30 21 H 0.2875 -2.2644 -0.1237 0
M  V30 22 H 0.6808 -1.5018 -1.6342 0
M  V30 23 H -2.075 -1.8015 1.3203 0
M  V30 24 H 0.4801 1.6836 1.4804 0
M  V30 25 H 2.6905 -1.7373 -0.2895 0
M  V30 26 H 2.3484 -0.0111 -0.4248 0
M  V30 27 H 1.973 -0.8815 1.0747 0
M  V30 28 H -2.5073 -1.5709 3.7311 0
M  V30 29 H 0.0219 1.8931 3.8709 0
M  V30 30 H -1.4669 0.2776 5.0191 0
M  V30 END ATOM
M  V30 BEGIN BOND
M  V30 1 2 1 2
M  V30 2 1 2 3
M  V30 3 1 2 4
M  V30 4 1 3 5
M  V30 5 1 5 6
M  V30 6 1 6 7
M  V30 7 1 6 8
M  V30 8 1 6 9
M  V30 9 2 8 10
M  V30 10 1 8 11
M  V30 11 1 9 12
M  V30 12 1 10 13
M  V30 13 2 11 14
M  V30 14 2 13 15
M  V30 15 1 14 15
M  V30 16 1 4 16
M  V30 17 1 4 17
M  V30 18 1 5 18
M  V30 19 1 5 19
M  V30 20 1 7 20
M  V30 21 1 9 21
M  V30 22 1 9 22
M  V30 23 1 10 23
M  V30 24 1 11 24
M  V30 25 1 12 25
M  V30 26 1 12 26
M  V30 27 1 12 27
M  V30 28 1 13 28
M  V30 29 1 14 29
M  V30 30 1 15 30
M  V30 END BOND
M  V30 BEGIN COLLECTION
M  V30 MDLV30/STERAC1 ATOMS=(1 6)
M  V30 END COLLECTION
M  V30 END CTAB
M  END
>  <NO.>
1462

>  <Name>
hydroxyphenamate (oxyfenamate)

>  <SMILES>
CCC(O)(COC(N)=O)c1ccccc1

>  <logBB>


>  <Class>
1

>  <MW>
209.11

>  <nHBAcc>
3

>  <nHBDon>
2

>  <SLogP>
1.38

>  <TopoPSA>
72.55

>  <MMFF94 Energy>
-24.733

$$$$
CCC(O)C(CC(C)N(C)C)(c1ccccc1)c1ccccc1
Actelion Java MolfileCreator 2.0

  0  0  0  0  0  0              0 V3000
M  V30 BEGIN CTAB
M  V30 COUNTS 52 53 0 0 0
M  V30 BEGIN ATOM
M  V30 1 O 1.9678 1.259 -1.9678 0
M  V30 2 C 1.1981 1.7724 -0.8627 0
M  V30 3 C 0.2332 0.6481 -0.2089 0
M  V30 4 C 2.2136 2.4363 0.1016 0
M  V30 5 C -0.2736 1.2813 1.1297 0
M  V30 6 C -0.972 0.321 -1.1548 0
M  V30 7 C 1.0925 -0.666 -0.0258 0
M  V30 8 C 3.0685 3.496 -0.5892 0
M  V30 9 C -1.1894 2.3575 1.0869 0
M  V30 10 C 0.1906 0.8846 2.3962 0
M  V30 11 C -2.1985 -0.1381 -0.6254 0
M  V30 12 C -0.8948 0.4389 -2.5536 0
M  V30 13 C 0.4346 -1.9402 0.5936 0
M  V30 14 C -1.6462 2.976 2.2529 0
M  V30 15 C -0.2674 1.5053 3.5636 0
M  V30 16 C -3.2927 -0.4326 -1.4446 0
M  V30 17 C -1.989 0.1439 -3.3758 0
M  V30 18 N -0.3785 -2.7082 -0.3681 0
M  V30 19 C 1.5265 -2.7916 1.2691 0
M  V30 20 C -1.1876 2.5463 3.4925 0
M  V30 21 C -3.1888 -0.2872 -2.8218 0
M  V30 22 C -1.3447 -3.5897 0.2857 0
M  V30 23 C 0.3629 -3.4372 -1.3922 0
M  V30 24 H 2.7058 0.7385 -1.6088 0
M  V30 25 H 0.5685 2.5711 -1.2768 0
M  V30 26 H 2.8884 1.6814 0.52 0
M  V30 27 H 1.7048 2.9262 0.9365 0
M  V30 28 H 1.5148 -0.9498 -0.9962 0
M  V30 29 H 1.9687 -0.409 0.5838 0
M  V30 30 H 3.7284 3.9783 0.1391 0
M  V30 31 H 2.4406 4.2699 -1.042 0
M  V30 32 H 3.6986 3.0598 -1.3701 0
M  V30 33 H -1.5642 2.7219 0.1308 0
M  V30 34 H 0.9288 0.0981 2.512 0
M  V30 35 H -2.3133 -0.2905 0.4459 0
M  V30 36 H 0.018 0.7563 -3.0472 0
M  V30 37 H -0.2334 -1.6034 1.3936 0
M  V30 38 H -2.3595 3.7936 2.1881 0
M  V30 39 H 0.1027 1.1768 4.5317 0
M  V30 40 H -4.2192 -0.7857 -1.001 0
M  V30 41 H -1.8944 0.2476 -4.4534 0
M  V30 42 H 2.0107 -2.223 2.0713 0
M  V30 43 H 2.3074 -3.0888 0.5613 0
M  V30 44 H 1.1128 -3.6953 1.7269 0
M  V30 45 H -1.541 3.0262 4.401 0
M  V30 46 H -4.0343 -0.52 -3.462 0
M  V30 47 H -0.8649 -4.4191 0.8156 0
M  V30 48 H -1.9626 -3.0345 1.0002 0
M  V30 49 H -2.0358 -4.0133 -0.4519 0
M  V30 50 H 1.0462 -2.7882 -1.9464 0
M  V30 51 H -0.3287 -3.8481 -2.137 0
M  V30 52 H 0.9384 -4.2722 -0.9781 0
M  V30 END ATOM
M  V30 BEGIN BOND
M  V30 1 1 1 2
M  V30 2 1 2 3
M  V30 3 1 2 4
M  V30 4 1 3 5
M  V30 5 1 3 6
M  V30 6 1 3 7
M  V30 7 1 4 8
M  V30 8 2 5 9
M  V30 9 1 5 10
M  V30 10 2 6 11
M  V30 11 1 6 12
M  V30 12 1 7 13
M  V30 13 1 9 14
M  V30 14 2 10 15
M  V30 15 1 11 16
M  V30 16 2 12 17
M  V30 17 1 13 18
M  V30 18 1 13 19
M  V30 19 2 14 20
M  V30 20 2 16 21
M  V30 21 1 18 22
M  V30 22 1 18 23
M  V30 23 1 15 20
M  V30 24 1 17 21
M  V30 25 1 1 24
M  V30 26 1 2 25
M  V30 27 1 4 26
M  V30 28 1 4 27
M  V30 29 1 7 28
M  V30 30 1 7 29
M  V30 31 1 8 30
M  V30 32 1 8 31
M  V30 33 1 8 32
M  V30 34 1 9 33
M  V30 35 1 10 34
M  V30 36 1 11 35
M  V30 37 1 12 36
M  V30 38 1 13 37
M  V30 39 1 14 38
M  V30 40 1 15 39
M  V30 41 1 16 40
M  V30 42 1 17 41
M  V30 43 1 19 42
M  V30 44 1 19 43
M  V30 45 1 19 44
M  V30 46 1 20 45
M  V30 47 1 21 46
M  V30 48 1 22 47
M  V30 49 1 22 48
M  V30 50 1 22 49
M  V30 51 1 23 50
M  V30 52 1 23 51
M  V30 53 1 23 52
M  V30 END BOND
M  V30 END CTAB
M  END
>  <NO.>
1463

>  <Name>
betamethadol

>  <SMILES>
CCC(O)C(CC(C)N(C)C)(c1ccccc1)c1ccccc1

>  <logBB>


>  <Class>
1

>  <MW>
311.22

>  <nHBAcc>
2

>  <nHBDon>
1

>  <SLogP>
4.08

>  <TopoPSA>
23.47

>  <MMFF94 Energy>
109.99

$$$$
CCC(OC(C)=O)C(CC(C)N(C)C)(c1ccccc1)c1ccccc1
Actelion Java MolfileCreator 2.0

  0  0  0  0  0  0              0 V3000
M  V30 BEGIN CTAB
M  V30 COUNTS 57 58 0 0 0
M  V30 BEGIN ATOM
M  V30 1 O 1.1032 -3.9446 -0.7879 0
M  V30 2 C 1.7687 -2.9202 -0.8162 0
M  V30 3 O 1.359 -1.698 -0.3836 0
M  V30 4 C 3.1627 -2.8266 -1.3551 0
M  V30 5 C 0.0237 -1.5908 0.1946 0
M  V30 6 C -0.5756 -0.1403 -0.1438 0
M  V30 7 C 0.1964 -1.9615 1.6903 0
M  V30 8 C -0.5716 0.1976 -1.6766 0
M  V30 9 C -2.0981 -0.1199 0.26 0
M  V30 10 C 0.2425 0.9617 0.6635 0
M  V30 11 C -1.0763 -2.1332 2.4981 0
M  V30 12 C -0.3625 -0.7733 -2.6738 0
M  V30 13 C -0.8837 1.5016 -2.1188 0
M  V30 14 C -2.6567 0.8492 1.1158 0
M  V30 15 C -2.9836 -1.0738 -0.2886 0
M  V30 16 C 1.7922 1.0609 0.5477 0
M  V30 17 C -0.3911 -0.4451 -4.0338 0
M  V30 18 C -0.9132 1.8305 -3.4774 0
M  V30 19 C -4.0192 0.8406 1.4354 0
M  V30 20 C -4.3442 -1.0808 0.0309 0
M  V30 21 N 2.4096 2.0196 1.5056 0
M  V30 22 C 2.2944 1.4101 -0.8584 0
M  V30 23 C -0.6567 0.8582 -4.4354 0
M  V30 24 C -4.8612 -0.126 0.8976 0
M  V30 25 C 1.8532 3.3703 1.4785 0
M  V30 26 C 2.4442 1.5071 2.8749 0
M  V30 27 H 3.1787 -2.166 -2.2255 0
M  V30 28 H 3.8363 -2.4559 -0.5783 0
M  V30 29 H 3.5003 -3.8205 -1.6617 0
M  V30 30 H -0.6092 -2.3585 -0.2647 0
M  V30 31 H 0.859 -1.2507 2.1951 0
M  V30 32 H 0.7403 -2.9141 1.7432 0
M  V30 33 H -0.1658 1.9525 0.4364 0
M  V30 34 H 0.018 0.8039 1.7259 0
M  V30 35 H -0.8443 -2.6111 3.456 0
M  V30 36 H -1.7976 -2.7695 1.9774 0
M  V30 37 H -1.5401 -1.1734 2.7317 0
M  V30 38 H -0.1929 -1.8162 -2.4276 0
M  V30 39 H -1.13 2.2878 -1.4097 0
M  V30 40 H -2.0561 1.6366 1.5607 0
M  V30 41 H -2.6291 -1.8236 -0.9926 0
M  V30 42 H 2.2345 0.0908 0.7881 0
M  V30 43 H -0.2178 -1.2171 -4.7794 0
M  V30 44 H -1.1495 2.8463 -3.7832 0
M  V30 45 H -4.4224 1.5969 2.1043 0
M  V30 46 H -4.999 -1.8294 -0.4074 0
M  V30 47 H 1.8175 2.3104 -1.257 0
M  V30 48 H 3.3776 1.5816 -0.8537 0
M  V30 49 H 2.1223 0.5897 -1.559 0
M  V30 50 H -0.6838 1.1106 -5.4916 0
M  V30 51 H -5.9192 -0.1284 1.1445 0
M  V30 52 H 1.8532 3.7889 0.4677 0
M  V30 53 H 2.4706 4.043 2.0851 0
M  V30 54 H 0.8322 3.4126 1.8728 0
M  V30 55 H 3.0427 2.167 3.5133 0
M  V30 56 H 2.926 0.524 2.9125 0
M  V30 57 H 1.4475 1.4218 3.3198 0
M  V30 END ATOM
M  V30 BEGIN BOND
M  V30 1 2 1 2
M  V30 2 1 2 3
M  V30 3 1 2 4
M  V30 4 1 3 5
M  V30 5 1 5 6
M  V30 6 1 5 7
M  V30 7 1 6 8
M  V30 8 1 6 9
M  V30 9 1 6 10
M  V30 10 1 7 11
M  V30 11 2 8 12
M  V30 12 1 8 13
M  V30 13 2 9 14
M  V30 14 1 9 15
M  V30 15 1 10 16
M  V30 16 1 12 17
M  V30 17 2 13 18
M  V30 18 1 14 19
M  V30 19 2 15 20
M  V30 20 1 16 21
M  V30 21 1 16 22
M  V30 22 2 17 23
M  V30 23 2 19 24
M  V30 24 1 21 25
M  V30 25 1 21 26
M  V30 26 1 18 23
M  V30 27 1 20 24
M  V30 28 1 4 27
M  V30 29 1 4 28
M  V30 30 1 4 29
M  V30 31 1 5 30
M  V30 32 1 7 31
M  V30 33 1 7 32
M  V30 34 1 10 33
M  V30 35 1 10 34
M  V30 36 1 11 35
M  V30 37 1 11 36
M  V30 38 1 11 37
M  V30 39 1 12 38
M  V30 40 1 13 39
M  V30 41 1 14 40
M  V30 42 1 15 41
M  V30 43 1 16 42
M  V30 44 1 17 43
M  V30 45 1 18 44
M  V30 46 1 19 45
M  V30 47 1 20 46
M  V30 48 1 22 47
M  V30 49 1 22 48
M  V30 50 1 22 49
M  V30 51 1 23 50
M  V30 52 1 24 51
M  V30 53 1 25 52
M  V30 54 1 25 53
M  V30 55 1 25 54
M  V30 56 1 26 55
M  V30 57 1 26 56
M  V30 58 1 26 57
M  V30 END BOND
M  V30 END CTAB
M  END
>  <NO.>
1464

>  <Name>
levacetylmethadol

>  <SMILES>
CCC(OC(C)=O)C(CC(C)N(C)C)(c1ccccc1)c1ccccc1

>  <logBB>


>  <Class>
1

>  <MW>
353.24

>  <nHBAcc>
3

>  <nHBDon>
0

>  <SLogP>
4.65

>  <TopoPSA>
29.54

>  <MMFF94 Energy>
91.665

$$$$
CCC(OC(N)=O)C1CCCCC1
Actelion Java MolfileCreator 2.0

  0  0  0  0  0  0              0 V3000
M  V30 BEGIN CTAB
M  V30 COUNTS 32 32 0 0 0
M  V30 BEGIN ATOM
M  V30 1 O 3.3486 1.5564 0.6223 0
M  V30 2 C 2.4734 2.0463 -0.0715 0
M  V30 3 O 1.1896 1.6373 -0.1646 0
M  V30 4 N 2.6713 3.1118 -0.8776 0
M  V30 5 C 0.8187 0.4947 0.6413 0 CFG=2
M  V30 6 C -0.3073 -0.2602 -0.1135 0
M  V30 7 C 0.4371 0.9894 2.0494 0
M  V30 8 C 0.1946 -0.7235 -1.4987 0
M  V30 9 C -0.8456 -1.4605 0.684 0
M  V30 10 C -0.7508 1.943 2.0782 0
M  V30 11 C -0.8672 -1.5081 -2.2649 0
M  V30 12 C -1.8995 -2.246 -0.094 0
M  V30 13 C -1.383 -2.6914 -1.456 0
M  V30 14 H 3.5864 3.5334 -0.9168 0
M  V30 15 H 1.9086 3.4732 -1.428 0
M  V30 16 H 1.6759 -0.186 0.7335 0
M  V30 17 H -1.1346 0.4383 -0.2987 0
M  V30 18 H 0.2382 0.1391 2.7104 0
M  V30 19 H 1.2932 1.5214 2.4824 0
M  V30 20 H 1.0872 -1.3505 -1.3769 0
M  V30 21 H 0.4943 0.1399 -2.104 0
M  V30 22 H -0.0174 -2.1301 0.9482 0
M  V30 23 H -1.2977 -1.1255 1.6238 0
M  V30 24 H -0.9147 2.3037 3.099 0
M  V30 25 H -1.6706 1.4491 1.7519 0
M  V30 26 H -0.5794 2.8145 1.4391 0
M  V30 27 H -0.4484 -1.8647 -3.2127 0
M  V30 28 H -1.7028 -0.8428 -2.5151 0
M  V30 29 H -2.2073 -3.1227 0.4873 0
M  V30 30 H -2.7924 -1.6227 -0.2274 0
M  V30 31 H -2.1839 -3.1957 -2.0082 0
M  V30 32 H -0.5769 -3.423 -1.3212 0
M  V30 END ATOM
M  V30 BEGIN BOND
M  V30 1 2 1 2
M  V30 2 1 2 3
M  V30 3 1 2 4
M  V30 4 1 3 5
M  V30 5 1 5 6
M  V30 6 1 5 7
M  V30 7 1 6 8
M  V30 8 1 6 9
M  V30 9 1 7 10
M  V30 10 1 8 11
M  V30 11 1 9 12
M  V30 12 1 11 13
M  V30 13 1 12 13
M  V30 14 1 4 14
M  V30 15 1 4 15
M  V30 16 1 5 16
M  V30 17 1 6 17
M  V30 18 1 7 18
M  V30 19 1 7 19
M  V30 20 1 8 20
M  V30 21 1 8 21
M  V30 22 1 9 22
M  V30 23 1 9 23
M  V30 24 1 10 24
M  V30 25 1 10 25
M  V30 26 1 10 26
M  V30 27 1 11 27
M  V30 28 1 11 28
M  V30 29 1 12 29
M  V30 30 1 12 30
M  V30 31 1 13 31
M  V30 32 1 13 32
M  V30 END BOND
M  V30 BEGIN COLLECTION
M  V30 MDLV30/STERAC1 ATOMS=(1 5)
M  V30 END COLLECTION
M  V30 END CTAB
M  END
>  <NO.>
1465

>  <Name>
procymate

>  <SMILES>
CCC(OC(N)=O)C1CCCCC1

>  <logBB>


>  <Class>
1

>  <MW>
185.14

>  <nHBAcc>
2

>  <nHBDon>
1

>  <SLogP>
2.44

>  <TopoPSA>
52.32

>  <MMFF94 Energy>
-64.833

$$$$
CCC(Oc1ccccc1)C(=O)NC1C(=O)N2C1SC(C)(C)C2C(=O)O
Actelion Java MolfileCreator 2.0

  0  0  0  0  0  0              0 V3000
M  V30 BEGIN CTAB
M  V30 COUNTS 48 50 0 0 0
M  V30 BEGIN ATOM
M  V30 1 S -1.2953 0.7284 2.9974 0
M  V30 2 C -2.5115 2.0332 2.4483 0
M  V30 3 C -0.648 0.4085 1.3047 0
M  V30 4 C -2.5413 2.0009 0.9027 0
M  V30 5 C -3.8583 1.7539 3.1244 0
M  V30 6 C -1.9773 3.3864 2.9488 0
M  V30 7 N -1.2681 1.4487 0.49 0
M  V30 8 C 0.7298 1.0583 0.9802 0
M  V30 9 C -3.6505 1.132 0.3186 0
M  V30 10 C -0.1283 2.146 0.268 0
M  V30 11 N 1.6258 0.2951 0.0736 0
M  V30 12 O -3.6333 -0.0747 0.1354 0
M  V30 13 O -4.7634 1.8409 0.0288 0
M  V30 14 O 0.0519 3.2339 -0.2253 0
M  V30 15 C 2.0717 -0.971 0.3779 0
M  V30 16 O 1.7844 -1.5395 1.428 0
M  V30 17 C 2.9789 -1.6067 -0.6895 0
M  V30 18 O 2.5727 -1.225 -2.0094 0
M  V30 19 C 4.4191 -1.1025 -0.5188 0
M  V30 20 C 1.4447 -1.7921 -2.5364 0
M  V30 21 C 5.0794 -1.5955 0.7597 0
M  V30 22 C 0.6056 -2.7107 -1.9045 0
M  V30 23 C 1.135 -1.3624 -3.8302 0
M  V30 24 C -0.5332 -3.1873 -2.5616 0
M  V30 25 C 0.0 -1.8402 -4.4872 0
M  V30 26 C -0.836 -2.7532 -3.8507 0
M  V30 27 H -0.8289 -0.5981 0.9179 0
M  V30 28 H -2.6334 3.0076 0.4768 0
M  V30 29 H -4.2446 0.7557 2.8899 0
M  V30 30 H -4.6099 2.4862 2.8077 0
M  V30 31 H -3.7824 1.8241 4.2164 0
M  V30 32 H -2.6502 4.1983 2.6482 0
M  V30 33 H -1.9056 3.4148 4.0428 0
M  V30 34 H -0.9866 3.6206 2.5449 0
M  V30 35 H 1.2872 1.4516 1.8379 0
M  V30 36 H 1.8574 0.6591 -0.8476 0
M  V30 37 H -5.3809 1.1728 -0.3395 0
M  V30 38 H 2.9698 -2.6984 -0.5866 0
M  V30 39 H 5.0175 -1.4321 -1.3776 0
M  V30 40 H 4.4443 -0.0057 -0.5419 0
M  V30 41 H 5.0713 -2.6888 0.8092 0
M  V30 42 H 4.5743 -1.2051 1.6483 0
M  V30 43 H 6.1217 -1.2629 0.7965 0
M  V30 44 H 0.7939 -3.0792 -0.9011 0
M  V30 45 H 1.7825 -0.648 -4.3327 0
M  V30 46 H -1.1875 -3.8982 -2.0621 0
M  V30 47 H -0.2303 -1.4982 -5.4927 0
M  V30 48 H -1.7228 -3.126 -4.3565 0
M  V30 END ATOM
M  V30 BEGIN BOND
M  V30 1 1 1 2
M  V30 2 1 1 3
M  V30 3 1 2 4
M  V30 4 1 2 5
M  V30 5 1 2 6
M  V30 6 1 3 7
M  V30 7 1 3 8
M  V30 8 1 4 9
M  V30 9 1 7 10
M  V30 10 1 8 11
M  V30 11 2 9 12
M  V30 12 1 9 13
M  V30 13 2 10 14
M  V30 14 1 11 15
M  V30 15 2 15 16
M  V30 16 1 15 17
M  V30 17 1 17 18
M  V30 18 1 17 19
M  V30 19 1 18 20
M  V30 20 1 19 21
M  V30 21 2 20 22
M  V30 22 1 20 23
M  V30 23 1 22 24
M  V30 24 2 23 25
M  V30 25 2 24 26
M  V30 26 1 4 7
M  V30 27 1 8 10
M  V30 28 1 25 26
M  V30 29 1 3 27
M  V30 30 1 4 28
M  V30 31 1 5 29
M  V30 32 1 5 30
M  V30 33 1 5 31
M  V30 34 1 6 32
M  V30 35 1 6 33
M  V30 36 1 6 34
M  V30 37 1 8 35
M  V30 38 1 11 36
M  V30 39 1 13 37
M  V30 40 1 17 38
M  V30 41 1 19 39
M  V30 42 1 19 40
M  V30 43 1 21 41
M  V30 44 1 21 42
M  V30 45 1 21 43
M  V30 46 1 22 44
M  V30 47 1 23 45
M  V30 48 1 24 46
M  V30 49 1 25 47
M  V30 50 1 26 48
M  V30 END BOND
M  V30 END CTAB
M  END
>  <NO.>
1466

>  <Name>
mls006011441

>  <SMILES>
CCC(Oc1ccccc1)C(=O)NC1C(=O)N2C1SC(C)(C)C2C(=O)O

>  <logBB>


>  <Class>
-1

>  <MW>
378.12

>  <nHBAcc>
5

>  <nHBDon>
2

>  <SLogP>
1.48

>  <TopoPSA>
95.94

>  <MMFF94 Energy>
63.314

$$$$
CCC1(C)CC(=O)NC(=O)C1
Actelion Java MolfileCreator 2.0

  0  0  0  0  0  0              0 V3000
M  V30 BEGIN CTAB
M  V30 COUNTS 24 24 0 0 0
M  V30 BEGIN ATOM
M  V30 1 O 0.0783 1.8033 2.9023 0
M  V30 2 C 0.3538 1.3081 1.8129 0
M  V30 3 N 1.3821 1.8004 1.0526 0
M  V30 4 C -0.3708 0.0967 1.271 0
M  V30 5 C 1.7986 1.368 -0.1791 0
M  V30 6 C -0.3636 0.0344 -0.2664 0
M  V30 7 O 2.7337 1.9135 -0.7588 0
M  V30 8 C 1.0928 0.1574 -0.7472 0
M  V30 9 C -1.0102 -1.2867 -0.7749 0
M  V30 10 C -1.2122 1.1928 -0.847 0
M  V30 11 C -0.3504 -2.5886 -0.3354 0
M  V30 12 H 1.8732 2.5977 1.4328 0
M  V30 13 H 0.1302 -0.7743 1.7073 0
M  V30 14 H -1.4003 0.1134 1.6482 0
M  V30 15 H 1.6879 -0.7097 -0.4404 0
M  V30 16 H 1.1304 0.2183 -1.8412 0
M  V30 17 H -2.0595 -1.3187 -0.4522 0
M  V30 18 H -1.0291 -1.2761 -1.8729 0
M  V30 19 H -0.8425 2.179 -0.5491 0
M  V30 20 H -2.2533 1.1215 -0.511 0
M  V30 21 H -1.2148 1.1645 -1.9428 0
M  V30 22 H -0.8981 -3.438 -0.758 0
M  V30 23 H 0.6818 -2.662 -0.6872 0
M  V30 24 H -0.3616 -2.7051 0.7514 0
M  V30 END ATOM
M  V30 BEGIN BOND
M  V30 1 2 1 2
M  V30 2 1 2 3
M  V30 3 1 2 4
M  V30 4 1 3 5
M  V30 5 1 4 6
M  V30 6 2 5 7
M  V30 7 1 5 8
M  V30 8 1 6 9
M  V30 9 1 6 10
M  V30 10 1 9 11
M  V30 11 1 6 8
M  V30 12 1 3 12
M  V30 13 1 4 13
M  V30 14 1 4 14
M  V30 15 1 8 15
M  V30 16 1 8 16
M  V30 17 1 9 17
M  V30 18 1 9 18
M  V30 19 1 10 19
M  V30 20 1 10 20
M  V30 21 1 10 21
M  V30 22 1 11 22
M  V30 23 1 11 23
M  V30 24 1 11 24
M  V30 END BOND
M  V30 END CTAB
M  END
>  <NO.>
1467

>  <Name>
bemegride

>  <SMILES>
CCC1(C)CC(=O)NC(=O)C1

>  <logBB>


>  <Class>
1

>  <MW>
155.09

>  <nHBAcc>
2

>  <nHBDon>
1

>  <SLogP>
0.84

>  <TopoPSA>
46.17

>  <MMFF94 Energy>
-34.476

$$$$
CCC1(C)OC(=O)N(C)C1=O
Actelion Java MolfileCreator 2.0

  0  0  0  0  0  0              0 V3000
M  V30 BEGIN CTAB
M  V30 COUNTS 22 22 0 0 0
M  V30 BEGIN ATOM
M  V30 1 O 0.3128 -2.8185 0.8605 0
M  V30 2 C 0.2852 -1.6191 0.6355 0
M  V30 3 O 0.8555 -1.0552 -0.4684 0
M  V30 4 N -0.298 -0.6715 1.4006 0
M  V30 5 C 0.6611 0.3653 -0.42 0 CFG=2
M  V30 6 C -0.1505 0.5541 0.8416 0
M  V30 7 C -1.002 -0.9497 2.6261 0
M  V30 8 C -0.0749 0.8554 -1.6721 0
M  V30 9 C 2.0221 1.0377 -0.2675 0
M  V30 10 O -0.5804 1.6161 1.2652 0
M  V30 11 C -1.3926 0.1373 -1.945 0
M  V30 12 H -1.875 -1.5676 2.3949 0
M  V30 13 H -1.3222 -0.0263 3.115 0
M  V30 14 H -0.3475 -1.5195 3.2924 0
M  V30 15 H -0.2696 1.9322 -1.5956 0
M  V30 16 H 0.5674 0.7034 -2.5486 0
M  V30 17 H 2.6725 0.7968 -1.1156 0
M  V30 18 H 2.5379 0.6843 0.6331 0
M  V30 19 H 1.9273 2.1263 -0.1956 0
M  V30 20 H -1.851 0.5331 -2.8572 0
M  V30 21 H -1.2399 -0.9367 -2.0882 0
M  V30 22 H -2.1038 0.2806 -1.1259 0
M  V30 END ATOM
M  V30 BEGIN BOND
M  V30 1 2 1 2
M  V30 2 1 2 3
M  V30 3 1 2 4
M  V30 4 1 3 5
M  V30 5 1 4 6
M  V30 6 1 4 7
M  V30 7 1 5 8
M  V30 8 1 5 9
M  V30 9 2 6 10
M  V30 10 1 8 11
M  V30 11 1 5 6
M  V30 12 1 7 12
M  V30 13 1 7 13
M  V30 14 1 7 14
M  V30 15 1 8 15
M  V30 16 1 8 16
M  V30 17 1 9 17
M  V30 18 1 9 18
M  V30 19 1 9 19
M  V30 20 1 11 20
M  V30 21 1 11 21
M  V30 22 1 11 22
M  V30 END BOND
M  V30 BEGIN COLLECTION
M  V30 MDLV30/STERAC1 ATOMS=(1 5)
M  V30 END COLLECTION
M  V30 END CTAB
M  END
>  <NO.>
1468

>  <Name>
paramethadione

>  <SMILES>
CCC1(C)OC(=O)N(C)C1=O

>  <logBB>


>  <Class>
1

>  <MW>
157.07

>  <nHBAcc>
3

>  <nHBDon>
0

>  <SLogP>
0.76

>  <TopoPSA>
46.61

>  <MMFF94 Energy>
-46.088

$$$$
CCC1(C2=CCCCCC2)C(=O)NC(=O)NC1=O
Actelion Java MolfileCreator 2.0

  0  0  0  0  0  0              0 V3000
M  V30 BEGIN CTAB
M  V30 COUNTS 36 37 0 0 0
M  V30 BEGIN ATOM
M  V30 1 O -0.2377 2.0616 3.8086 0
M  V30 2 C -0.0994 1.8937 2.6019 0
M  V30 3 N -1.164 1.7007 1.7833 0
M  V30 4 N 1.1209 1.9516 2.0111 0
M  V30 5 C -1.1218 1.569 0.4236 0
M  V30 6 C 1.3896 1.7824 0.6806 0
M  V30 7 O -2.1674 1.6592 -0.2204 0
M  V30 8 C 0.2442 1.2562 -0.2016 0
M  V30 9 O 2.5322 1.988 0.2692 0
M  V30 10 C 0.3246 -0.302 -0.331 0
M  V30 11 C 0.3701 1.9126 -1.6051 0
M  V30 12 C 1.2898 -1.0592 0.2372 0
M  V30 13 C -0.7486 -0.9841 -1.1717 0
M  V30 14 C 0.2959 3.4396 -1.5974 0
M  V30 15 C 1.4062 -2.5555 0.147 0
M  V30 16 C -1.6442 -1.9346 -0.3733 0
M  V30 17 C 0.2212 -3.2994 0.7582 0
M  V30 18 C -1.024 -3.3079 -0.1245 0
M  V30 19 H -2.078 1.7806 2.206 0
M  V30 20 H 1.9001 2.197 2.6053 0
M  V30 21 H 1.3197 1.6168 -2.0703 0
M  V30 22 H -0.4202 1.5592 -2.2769 0
M  V30 23 H 2.095 -0.6048 0.811 0
M  V30 24 H -0.2764 -1.5114 -2.0106 0
M  V30 25 H -1.4003 -0.2429 -1.6425 0
M  V30 26 H 1.111 3.8856 -1.0208 0
M  V30 27 H -0.6526 3.7943 -1.1837 0
M  V30 28 H 0.3728 3.8185 -2.622 0
M  V30 29 H 2.3097 -2.8484 0.6973 0
M  V30 30 H 1.5756 -2.8612 -0.8919 0
M  V30 31 H -2.5688 -2.0892 -0.944 0
M  V30 32 H -1.9413 -1.478 0.5788 0
M  V30 33 H -0.0234 -2.8859 1.7447 0
M  V30 34 H 0.5209 -4.3418 0.9239 0
M  V30 35 H -0.7888 -3.783 -1.085 0
M  V30 36 H -1.7793 -3.9427 0.3552 0
M  V30 END ATOM
M  V30 BEGIN BOND
M  V30 1 2 1 2
M  V30 2 1 2 3
M  V30 3 1 2 4
M  V30 4 1 3 5
M  V30 5 1 4 6
M  V30 6 2 5 7
M  V30 7 1 5 8
M  V30 8 2 6 9
M  V30 9 1 8 10
M  V30 10 1 8 11
M  V30 11 2 10 12
M  V30 12 1 10 13
M  V30 13 1 11 14
M  V30 14 1 12 15
M  V30 15 1 13 16
M  V30 16 1 15 17
M  V30 17 1 16 18
M  V30 18 1 6 8
M  V30 19 1 17 18
M  V30 20 1 3 19
M  V30 21 1 4 20
M  V30 22 1 11 21
M  V30 23 1 11 22
M  V30 24 1 12 23
M  V30 25 1 13 24
M  V30 26 1 13 25
M  V30 27 1 14 26
M  V30 28 1 14 27
M  V30 29 1 14 28
M  V30 30 1 15 29
M  V30 31 1 15 30
M  V30 32 1 16 31
M  V30 33 1 16 32
M  V30 34 1 17 33
M  V30 35 1 17 34
M  V30 36 1 18 35
M  V30 37 1 18 36
M  V30 END BOND
M  V30 END CTAB
M  END
>  <NO.>
1469

>  <Name>
heptabarb

>  <SMILES>
CCC1(C2=CCCCCC2)C(=O)NC(=O)NC1=O

>  <logBB>


>  <Class>
1

>  <MW>
250.13

>  <nHBAcc>
3

>  <nHBDon>
2

>  <SLogP>
1.64

>  <TopoPSA>
75.27

>  <MMFF94 Energy>
-76.03

$$$$
CCC1(CC)C(=O)C=CNC1=O
Actelion Java MolfileCreator 2.0

  0  0  0  0  0  0              0 V3000
M  V30 BEGIN CTAB
M  V30 COUNTS 25 25 0 0 0
M  V30 BEGIN ATOM
M  V30 1 O 0.549 -0.4705 2.4332 0
M  V30 2 C 0.4977 0.3599 1.5273 0
M  V30 3 N 0.6591 1.682 1.845 0
M  V30 4 C 0.158 0.0138 0.0705 0
M  V30 5 C 0.6997 2.7163 0.9615 0
M  V30 6 C 0.5272 1.1582 -0.8833 0
M  V30 7 C 0.9604 -1.2457 -0.3608 0
M  V30 8 C -1.3836 -0.1681 0.0181 0
M  V30 9 C 0.6447 2.5311 -0.3547 0
M  V30 10 O 0.6769 1.0065 -2.0963 0
M  V30 11 C 0.5264 -2.5833 0.2329 0
M  V30 12 C -1.9595 -0.5791 -1.3329 0
M  V30 13 H 0.7906 1.8625 2.8361 0
M  V30 14 H 0.8169 3.7084 1.3892 0
M  V30 15 H 2.0201 -1.0919 -0.1157 0
M  V30 16 H 0.9259 -1.3572 -1.4519 0
M  V30 17 H -1.874 0.7679 0.319 0
M  V30 18 H -1.6938 -0.9097 0.7656 0
M  V30 19 H 0.716 3.34 -1.0703 0
M  V30 20 H -0.5081 -2.8283 -0.0198 0
M  V30 21 H 1.1568 -3.3831 -0.1704 0
M  V30 22 H 0.6318 -2.6096 1.3193 0
M  V30 23 H -3.0375 -0.7476 -1.2383 0
M  V30 24 H -1.5125 -1.503 -1.708 0
M  V30 25 H -1.819 0.2032 -2.0839 0
M  V30 END ATOM
M  V30 BEGIN BOND
M  V30 1 2 1 2
M  V30 2 1 2 3
M  V30 3 1 2 4
M  V30 4 1 3 5
M  V30 5 1 4 6
M  V30 6 1 4 7
M  V30 7 1 4 8
M  V30 8 2 5 9
M  V30 9 2 6 10
M  V30 10 1 7 11
M  V30 11 1 8 12
M  V30 12 1 6 9
M  V30 13 1 3 13
M  V30 14 1 5 14
M  V30 15 1 7 15
M  V30 16 1 7 16
M  V30 17 1 8 17
M  V30 18 1 8 18
M  V30 19 1 9 19
M  V30 20 1 11 20
M  V30 21 1 11 21
M  V30 22 1 11 22
M  V30 23 1 12 23
M  V30 24 1 12 24
M  V30 25 1 12 25
M  V30 END BOND
M  V30 END CTAB
M  END
>  <NO.>
1470

>  <Name>
pyrithyldione

>  <SMILES>
CCC1(CC)C(=O)C=CNC1=O

>  <logBB>


>  <Class>
1

>  <MW>
167.09

>  <nHBAcc>
2

>  <nHBDon>
1

>  <SLogP>
1.01

>  <TopoPSA>
46.17

>  <MMFF94 Energy>
-3.2898

$$$$
CCC1(CC)C(=O)NC(=O)N(C)C1=O
Actelion Java MolfileCreator 2.0

  0  0  0  0  0  0              0 V3000
M  V30 BEGIN CTAB
M  V30 COUNTS 28 28 0 0 0
M  V30 BEGIN ATOM
M  V30 1 O 0.5481 2.6646 2.0371 0
M  V30 2 C 0.3053 1.7274 1.2796 0
M  V30 3 N 1.257 0.865 0.7835 0
M  V30 4 N -0.9788 1.5223 0.8811 0
M  V30 5 C 1.0008 -0.1708 -0.1004 0
M  V30 6 C 2.6451 1.0806 1.156 0
M  V30 7 C -1.4476 0.5457 0.0594 0
M  V30 8 O 1.9108 -0.8518 -0.5825 0
M  V30 9 C -0.4502 -0.4739 -0.4334 0
M  V30 10 O -2.6439 0.5076 -0.2248 0
M  V30 11 C -0.5951 -0.5978 -1.9768 0
M  V30 12 C -0.8133 -1.8485 0.1973 0
M  V30 13 C -0.2631 0.6813 -2.742 0
M  V30 14 C -0.7193 -1.903 1.7202 0
M  V30 15 H -1.6602 2.1817 1.2309 0
M  V30 16 H 3.0853 0.1331 1.4836 0
M  V30 17 H 2.7549 1.8179 1.9553 0
M  V30 18 H 3.1919 1.4267 0.2727 0
M  V30 19 H -1.621 -0.8919 -2.2348 0
M  V30 20 H 0.0558 -1.3978 -2.3524 0
M  V30 21 H -1.8361 -2.1284 -0.0878 0
M  V30 22 H -0.1553 -2.6277 -0.209 0
M  V30 23 H -0.9246 1.5046 -2.4562 0
M  V30 24 H -0.3877 0.5137 -3.8168 0
M  V30 25 H 0.7712 0.9947 -2.573 0
M  V30 26 H -0.9944 -2.9026 2.0725 0
M  V30 27 H 0.297 -1.6988 2.0691 0
M  V30 28 H -1.3997 -1.1881 2.1923 0
M  V30 END ATOM
M  V30 BEGIN BOND
M  V30 1 2 1 2
M  V30 2 1 2 3
M  V30 3 1 2 4
M  V30 4 1 3 5
M  V30 5 1 3 6
M  V30 6 1 4 7
M  V30 7 2 5 8
M  V30 8 1 5 9
M  V30 9 2 7 10
M  V30 10 1 9 11
M  V30 11 1 9 12
M  V30 12 1 11 13
M  V30 13 1 12 14
M  V30 14 1 7 9
M  V30 15 1 4 15
M  V30 16 1 6 16
M  V30 17 1 6 17
M  V30 18 1 6 18
M  V30 19 1 11 19
M  V30 20 1 11 20
M  V30 21 1 12 21
M  V30 22 1 12 22
M  V30 23 1 13 23
M  V30 24 1 13 24
M  V30 25 1 13 25
M  V30 26 1 14 26
M  V30 27 1 14 27
M  V30 28 1 14 28
M  V30 END BOND
M  V30 END CTAB
M  END
>  <NO.>
1471

>  <Name>
metharbital

>  <SMILES>
CCC1(CC)C(=O)NC(=O)N(C)C1=O

>  <logBB>


>  <Class>
1

>  <MW>
198.1

>  <nHBAcc>
3

>  <nHBDon>
1

>  <SLogP>
0.5

>  <TopoPSA>
66.48

>  <MMFF94 Energy>
-116.04

$$$$
CCC1(CC)C(=O)NC(=O)N(c2ccccc2)C1=O
Actelion Java MolfileCreator 2.0

  0  0  0  0  0  0              0 V3000
M  V30 BEGIN CTAB
M  V30 COUNTS 35 36 0 0 0
M  V30 BEGIN ATOM
M  V30 1 O -1.2687 -2.9358 -0.5549 0
M  V30 2 C -0.4624 -2.1244 -0.1016 0
M  V30 3 N -0.7132 -0.7809 0.1522 0
M  V30 4 N 0.7889 -2.5744 0.2131 0
M  V30 5 C -2.0686 -0.3151 0.1021 0
M  V30 6 C 0.2754 0.0994 0.601 0
M  V30 7 C 1.867 -1.8186 0.568 0
M  V30 8 C -3.0997 -1.0351 0.724 0
M  V30 9 C -2.3867 0.879 -0.5603 0
M  V30 10 O 0.0245 1.1714 1.1565 0
M  V30 11 C 1.7247 -0.3213 0.3245 0
M  V30 12 O 2.8944 -2.3671 0.957 0
M  V30 13 C -4.4188 -0.5768 0.6733 0
M  V30 14 C -3.7062 1.3366 -0.6082 0
M  V30 15 C 2.1038 -0.1065 -1.1718 0
M  V30 16 C 2.7063 0.4017 1.2974 0
M  V30 17 C -4.7214 0.6077 0.0064 0
M  V30 18 C 1.5082 1.1125 -1.8661 0
M  V30 19 C 3.0151 1.8685 1.0222 0
M  V30 20 H 0.9187 -3.5766 0.197 0
M  V30 21 H -2.8935 -1.9606 1.2561 0
M  V30 22 H -1.6155 1.4752 -1.0389 0
M  V30 23 H -5.2093 -1.1462 1.1558 0
M  V30 24 H -3.9393 2.2661 -1.1217 0
M  V30 25 H 1.8134 -0.9806 -1.7703 0
M  V30 26 H 3.1976 -0.06 -1.2574 0
M  V30 27 H 2.3175 0.3185 2.3216 0
M  V30 28 H 3.6735 -0.1173 1.3078 0
M  V30 29 H -5.7475 0.9649 -0.0306 0
M  V30 30 H 1.9713 1.2387 -2.8505 0
M  V30 31 H 0.4359 0.9837 -2.0325 0
M  V30 32 H 1.662 2.0369 -1.307 0
M  V30 33 H 3.6572 2.2635 1.8172 0
M  V30 34 H 2.1149 2.4865 0.9945 0
M  V30 35 H 3.5585 1.9921 0.0812 0
M  V30 END ATOM
M  V30 BEGIN BOND
M  V30 1 2 1 2
M  V30 2 1 2 3
M  V30 3 1 2 4
M  V30 4 1 3 5
M  V30 5 1 3 6
M  V30 6 1 4 7
M  V30 7 2 5 8
M  V30 8 1 5 9
M  V30 9 2 6 10
M  V30 10 1 6 11
M  V30 11 2 7 12
M  V30 12 1 8 13
M  V30 13 2 9 14
M  V30 14 1 11 15
M  V30 15 1 11 16
M  V30 16 2 13 17
M  V30 17 1 15 18
M  V30 18 1 16 19
M  V30 19 1 7 11
M  V30 20 1 14 17
M  V30 21 1 4 20
M  V30 22 1 8 21
M  V30 23 1 9 22
M  V30 24 1 13 23
M  V30 25 1 14 24
M  V30 26 1 15 25
M  V30 27 1 15 26
M  V30 28 1 16 27
M  V30 29 1 16 28
M  V30 30 1 17 29
M  V30 31 1 18 30
M  V30 32 1 18 31
M  V30 33 1 18 32
M  V30 34 1 19 33
M  V30 35 1 19 34
M  V30 36 1 19 35
M  V30 END BOND
M  V30 END CTAB
M  END
>  <NO.>
1472

>  <Name>
phetharbital

>  <SMILES>
CCC1(CC)C(=O)NC(=O)N(c2ccccc2)C1=O

>  <logBB>


>  <Class>
1

>  <MW>
260.12

>  <nHBAcc>
3

>  <nHBDon>
1

>  <SLogP>
2.08

>  <TopoPSA>
66.48

>  <MMFF94 Energy>
-53.956

$$$$
CCC1(CC)C(=O)NC=C(C)C1=O
Actelion Java MolfileCreator 2.0

  0  0  0  0  0  0              0 V3000
M  V30 BEGIN CTAB
M  V30 COUNTS 28 28 0 0 0
M  V30 BEGIN ATOM
M  V30 1 O 1.4888 -1.8809 -0.6266 0
M  V30 2 C 0.4439 -1.2321 -0.595 0
M  V30 3 N -0.7071 -1.8236 -1.0332 0
M  V30 4 C 0.3384 0.1799 -0.0155 0
M  V30 5 C -1.9118 -1.2099 -1.1854 0
M  V30 6 C -0.9381 0.8985 -0.4869 0
M  V30 7 C 0.2055 0.1301 1.5354 0
M  V30 8 C 1.5478 1.0261 -0.5141 0
M  V30 9 C -2.0968 0.0926 -0.9609 0
M  V30 10 O -1.0716 2.1218 -0.4048 0
M  V30 11 C 0.9719 -0.9651 2.2694 0
M  V30 12 C 2.8947 0.7912 0.1573 0
M  V30 13 C -3.3947 0.8025 -1.1755 0
M  V30 14 H -0.5995 -2.7937 -1.3146 0
M  V30 15 H -2.7168 -1.8445 -1.5479 0
M  V30 16 H -0.8509 0.0058 1.8121 0
M  V30 17 H 0.4967 1.1037 1.9516 0
M  V30 18 H 1.3324 2.0965 -0.4022 0
M  V30 19 H 1.671 0.8648 -1.5939 0
M  V30 20 H 2.0413 -0.9476 2.0527 0
M  V30 21 H 0.5831 -1.9571 2.0194 0
M  V30 22 H 0.8529 -0.8358 3.3507 0
M  V30 23 H 3.6582 1.4113 -0.325 0
M  V30 24 H 3.2233 -0.2471 0.0777 0
M  V30 25 H 2.8699 1.0772 1.2127 0
M  V30 26 H -4.1806 0.1187 -1.5136 0
M  V30 27 H -3.2858 1.5837 -1.9349 0
M  V30 28 H -3.737 1.2656 -0.2441 0
M  V30 END ATOM
M  V30 BEGIN BOND
M  V30 1 2 1 2
M  V30 2 1 2 3
M  V30 3 1 2 4
M  V30 4 1 3 5
M  V30 5 1 4 6
M  V30 6 1 4 7
M  V30 7 1 4 8
M  V30 8 2 5 9
M  V30 9 2 6 10
M  V30 10 1 7 11
M  V30 11 1 8 12
M  V30 12 1 9 13
M  V30 13 1 6 9
M  V30 14 1 3 14
M  V30 15 1 5 15
M  V30 16 1 7 16
M  V30 17 1 7 17
M  V30 18 1 8 18
M  V30 19 1 8 19
M  V30 20 1 11 20
M  V30 21 1 11 21
M  V30 22 1 11 22
M  V30 23 1 12 23
M  V30 24 1 12 24
M  V30 25 1 12 25
M  V30 26 1 13 26
M  V30 27 1 13 27
M  V30 28 1 13 28
M  V30 END BOND
M  V30 END CTAB
M  END
>  <NO.>
1473

>  <Name>
ethypicone

>  <SMILES>
CCC1(CC)C(=O)NC=C(C)C1=O

>  <logBB>


>  <Class>
1

>  <MW>
181.11

>  <nHBAcc>
2

>  <nHBDon>
1

>  <SLogP>
1.4

>  <TopoPSA>
46.17

>  <MMFF94 Energy>
1.098

$$$$
CCC1(CC)C(=O)NCC(C)C1=O
Actelion Java MolfileCreator 2.0

  0  0  0  0  0  0              0 V3000
M  V30 BEGIN CTAB
M  V30 COUNTS 30 30 0 0 0
M  V30 BEGIN ATOM
M  V30 1 O -2.1952 1.2539 -1.646 0
M  V30 2 C -1.4213 1.0974 -0.7015 0
M  V30 3 N -1.6171 1.8422 0.4232 0
M  V30 4 C -0.2828 0.0595 -0.7228 0
M  V30 5 C -0.7536 1.8547 1.576 0
M  V30 6 C 0.5506 0.1026 0.5657 0
M  V30 7 C -0.9864 -1.3192 -0.8613 0
M  V30 8 C 0.6043 0.4459 -1.9429 0
M  V30 9 C -0.1824 0.4774 1.8391 0 CFG=1
M  V30 10 O 1.7419 -0.2111 0.5881 0
M  V30 11 C -0.2105 -2.5452 -0.3906 0
M  V30 12 C 1.5391 -0.6218 -2.4948 0
M  V30 13 C 0.7273 0.4813 3.0608 0
M  V30 14 H -2.3785 2.5104 0.3562 0
M  V30 15 H -1.3471 2.2069 2.426 0
M  V30 16 H 0.0344 2.5912 1.3799 0
M  V30 17 H -1.2847 -1.47 -1.9071 0
M  V30 18 H -1.9266 -1.307 -0.292 0
M  V30 19 H -0.028 0.7691 -2.7802 0
M  V30 20 H 1.2075 1.3255 -1.6787 0
M  V30 21 H -0.9811 -0.2577 1.9949 0
M  V30 22 H -0.0449 -2.521 0.6909 0
M  V30 23 H 0.7569 -2.6454 -0.8849 0
M  V30 24 H -0.787 -3.4507 -0.6081 0
M  V30 25 H 2.2345 -0.994 -1.7392 0
M  V30 26 H 0.9805 -1.465 -2.9108 0
M  V30 27 H 2.1382 -0.2001 -3.3091 0
M  V30 28 H 0.1708 0.769 3.9589 0
M  V30 29 H 1.5619 1.1806 2.939 0
M  V30 30 H 1.1523 -0.5136 3.2312 0
M  V30 END ATOM
M  V30 BEGIN BOND
M  V30 1 2 1 2
M  V30 2 1 2 3
M  V30 3 1 2 4
M  V30 4 1 3 5
M  V30 5 1 4 6
M  V30 6 1 4 7
M  V30 7 1 4 8
M  V30 8 1 5 9
M  V30 9 2 6 10
M  V30 10 1 7 11
M  V30 11 1 8 12
M  V30 12 1 9 13
M  V30 13 1 6 9
M  V30 14 1 3 14
M  V30 15 1 5 15
M  V30 16 1 5 16
M  V30 17 1 7 17
M  V30 18 1 7 18
M  V30 19 1 8 19
M  V30 20 1 8 20
M  V30 21 1 9 21
M  V30 22 1 11 22
M  V30 23 1 11 23
M  V30 24 1 11 24
M  V30 25 1 12 25
M  V30 26 1 12 26
M  V30 27 1 12 27
M  V30 28 1 13 28
M  V30 29 1 13 29
M  V30 30 1 13 30
M  V30 END BOND
M  V30 BEGIN COLLECTION
M  V30 MDLV30/STERAC1 ATOMS=(1 9)
M  V30 END COLLECTION
M  V30 END CTAB
M  END
>  <NO.>
1474

>  <Name>
methyprylon

>  <SMILES>
CCC1(CC)C(=O)NCC(C)C1=O

>  <logBB>


>  <Class>
1

>  <MW>
183.13

>  <nHBAcc>
2

>  <nHBDon>
1

>  <SLogP>
1.13

>  <TopoPSA>
46.17

>  <MMFF94 Energy>
-15.351

$$$$
CCC1(CC)O[C@@H]2C[C@H]3C4CCC5=CC(=O)C=CC5(C)[C@@]4(F)[C@@H](O)CC3(C)[C@]2(C(=O)CO)O1
Actelion Java MolfileCreator 2.0

  0  0  0  0  0  0              0 V3000
M  V30 BEGIN CTAB
M  V30 COUNTS 68 72 0 0 0
M  V30 BEGIN ATOM
M  V30 1 F -2.1031 0.0808 0.8893 0
M  V30 2 C -1.1046 0.3283 1.8217 0 CFG=2
M  V30 3 C -1.8133 0.323 3.2381 0
M  V30 4 C -0.4875 1.6923 1.3785 0 CFG=1
M  V30 5 C -0.0875 -0.8533 1.6725 0
M  V30 6 C -2.4124 -1.0793 3.4552 0
M  V30 7 C -2.902 1.3941 3.3063 0
M  V30 8 C -0.858 0.6142 4.4184 0
M  V30 9 O 0.4052 2.228 2.3493 0
M  V30 10 C 0.2297 1.6254 0.0084 0
M  V30 11 C 0.4875 -0.8294 0.2489 0 CFG=1
M  V30 12 C -0.7669 -2.2055 1.959 0
M  V30 13 C -3.7158 -1.3053 3.6989 0
M  V30 14 C -1.4518 -2.2328 3.3213 0
M  V30 15 C -4.1992 1.1632 3.5485 0
M  V30 16 C 1.2493 0.4708 -0.0972 0
M  V30 17 C 1.4488 -1.9292 -0.1867 0
M  V30 18 C -4.6982 -0.2054 3.7757 0
M  V30 19 C 1.7663 0.1321 -1.5408 0 CFG=1
M  V30 20 C 2.4563 0.722 0.8491 0
M  V30 21 C 1.9917 -1.3961 -1.5235 0 CFG=2
M  V30 22 O -5.8789 -0.4204 4.019 0
M  V30 23 O 0.7648 0.3426 -2.5461 0
M  V30 24 C 3.0405 0.9047 -1.9245 0
M  V30 25 O 1.2004 -1.937 -2.5878 0
M  V30 26 C 0.7327 -0.8347 -3.3638 0
M  V30 27 O 4.1736 0.4259 -1.809 0
M  V30 28 C 2.8706 2.3253 -2.4467 0
M  V30 29 C -0.7034 -1.1104 -3.845 0
M  V30 30 C 1.6864 -0.6817 -4.5726 0
M  V30 31 O 4.064 3.0783 -2.2754 0
M  V30 32 C -1.7064 -1.3761 -2.7309 0
M  V30 33 C 1.3148 0.4299 -5.5445 0
M  V30 34 H -1.3003 2.4192 1.2651 0
M  V30 35 H 0.7235 -0.7386 2.3978 0
M  V30 36 H -2.591 2.428 3.1739 0
M  V30 37 H -0.5829 1.6724 4.4814 0
M  V30 38 H 0.07 0.038 4.3628 0
M  V30 39 H -1.3302 0.367 5.3787 0
M  V30 40 H 0.6671 3.1194 2.0558 0
M  V30 41 H 0.732 2.5802 -0.1801 0
M  V30 42 H -0.5401 1.5129 -0.7647 0
M  V30 43 H -0.3776 -0.9068 -0.4197 0
M  V30 44 H -0.0244 -3.0114 1.9273 0
M  V30 45 H -1.5049 -2.426 1.1765 0
M  V30 46 H -4.1253 -2.2997 3.8347 0
M  V30 47 H -1.965 -3.1949 3.4401 0
M  V30 48 H -0.7028 -2.1858 4.1202 0
M  V30 49 H -4.9338 1.9575 3.6 0
M  V30 50 H 0.9404 -2.8913 -0.3054 0
M  V30 51 H 2.2563 -2.0518 0.5423 0
M  V30 52 H 2.1933 0.6916 1.9076 0
M  V30 53 H 3.2514 -0.0185 0.7144 0
M  V30 54 H 2.8958 1.7084 0.6611 0
M  V30 55 H 3.0255 -1.7219 -1.6685 0
M  V30 56 H 2.6349 2.2897 -3.5115 0
M  V30 57 H 2.0728 2.8412 -1.9134 0
M  V30 58 H -0.7032 -1.9844 -4.5078 0
M  V30 59 H -1.0801 -0.2544 -4.4161 0
M  V30 60 H 1.7402 -1.6325 -5.1183 0
M  V30 61 H 2.7068 -0.4959 -4.2189 0
M  V30 62 H 4.8036 2.4542 -2.419 0
M  V30 63 H -2.6873 -1.6064 -3.1598 0
M  V30 64 H -1.8268 -0.4966 -2.0919 0
M  V30 65 H -1.4057 -2.2283 -2.1147 0
M  V30 66 H 2.1221 0.5783 -6.2689 0
M  V30 67 H 0.4131 0.1771 -6.1103 0
M  V30 68 H 1.1422 1.3787 -5.0299 0
M  V30 END ATOM
M  V30 BEGIN BOND
M  V30 1 1 1 2
M  V30 2 1 2 3
M  V30 3 1 2 4
M  V30 4 1 2 5
M  V30 5 1 3 6
M  V30 6 1 3 7
M  V30 7 1 3 8
M  V30 8 1 4 9
M  V30 9 1 4 10
M  V30 10 1 5 11
M  V30 11 1 5 12
M  V30 12 2 6 13
M  V30 13 1 6 14
M  V30 14 2 7 15
M  V30 15 1 10 16
M  V30 16 1 11 17
M  V30 17 1 13 18
M  V30 18 1 16 19
M  V30 19 1 16 20
M  V30 20 1 17 21
M  V30 21 2 18 22
M  V30 22 1 19 23
M  V30 23 1 19 24
M  V30 24 1 21 25
M  V30 25 1 23 26
M  V30 26 2 24 27
M  V30 27 1 24 28
M  V30 28 1 26 29
M  V30 29 1 26 30
M  V30 30 1 28 31
M  V30 31 1 29 32
M  V30 32 1 30 33
M  V30 33 1 11 16
M  V30 34 1 12 14
M  V30 35 1 15 18
M  V30 36 1 19 21
M  V30 37 1 25 26
M  V30 38 1 4 34
M  V30 39 1 5 35
M  V30 40 1 7 36
M  V30 41 1 8 37
M  V30 42 1 8 38
M  V30 43 1 8 39
M  V30 44 1 9 40
M  V30 45 1 10 41
M  V30 46 1 10 42
M  V30 47 1 11 43
M  V30 48 1 12 44
M  V30 49 1 12 45
M  V30 50 1 13 46
M  V30 51 1 14 47
M  V30 52 1 14 48
M  V30 53 1 15 49
M  V30 54 1 17 50
M  V30 55 1 17 51
M  V30 56 1 20 52
M  V30 57 1 20 53
M  V30 58 1 20 54
M  V30 59 1 21 55
M  V30 60 1 28 56
M  V30 61 1 28 57
M  V30 62 1 29 58
M  V30 63 1 29 59
M  V30 64 1 30 60
M  V30 65 1 30 61
M  V30 66 1 31 62
M  V30 67 1 32 63
M  V30 68 1 32 64
M  V30 69 1 32 65
M  V30 70 1 33 66
M  V30 71 1 33 67
M  V30 72 1 33 68
M  V30 END BOND
M  V30 BEGIN COLLECTION
M  V30 MDLV30/STEABS ATOMS=(5 2 4 11 19 21)
M  V30 END COLLECTION
M  V30 END CTAB
M  END
>  <NO.>
1475

>  <Name>
amcinafal

>  <SMILES>
CCC1(CC)O[C@@H]2C[C@H]3C4CCC5=CC(=O)C=CC5(C)[C@@]4(F)[C@@H](O)CC3(C)[C@]2(C(=O)CO)O1

>  <logBB>


>  <Class>
1

>  <MW>
462.24

>  <nHBAcc>
6

>  <nHBDon>
2

>  <SLogP>
3.2

>  <TopoPSA>
93.06

>  <MMFF94 Energy>
173.09

$$$$
CCC1(O)CCN2CCc3ccc(C)cc3C2C1
Actelion Java MolfileCreator 2.0

  0  0  0  0  0  0              0 V3000
M  V30 BEGIN CTAB
M  V30 COUNTS 41 43 0 0 0
M  V30 BEGIN ATOM
M  V30 1 O -1.0325 1.1914 -2.5431 0
M  V30 2 C -1.7527 0.6165 -1.443 0
M  V30 3 C -0.841 0.7021 -0.2039 0
M  V30 4 C -2.081 -0.8459 -1.7663 0
M  V30 5 C -3.0225 1.463 -1.1943 0
M  V30 6 C 0.3879 -0.227 -0.311 0
M  V30 7 C -0.8286 -1.7211 -1.7838 0
M  V30 8 C -4.0249 1.4862 -2.343 0
M  V30 9 N -0.1185 -1.6126 -0.5073 0
M  V30 10 C 1.3261 -0.0986 0.8965 0
M  V30 11 C 0.9859 -2.575 -0.4389 0
M  V30 12 C 1.8894 -1.2421 1.495 0
M  V30 13 C 1.7203 1.1641 1.3782 0
M  V30 14 C 1.541 -2.6161 0.9857 0
M  V30 15 C 2.7503 -1.1136 2.5944 0
M  V30 16 C 2.6044 1.2958 2.4595 0
M  V30 17 C 3.0984 0.146 3.0776 0
M  V30 18 C 2.9675 2.6553 2.9797 0
M  V30 19 H -1.5669 1.0844 -3.348 0
M  V30 20 H -0.5165 1.7436 -0.0956 0
M  V30 21 H -1.4103 0.4502 0.7019 0
M  V30 22 H -2.5594 -0.9271 -2.7496 0
M  V30 23 H -2.7864 -1.2428 -1.0243 0
M  V30 24 H -3.5369 1.1026 -0.2947 0
M  V30 25 H -2.726 2.502 -0.9995 0
M  V30 26 H 0.9903 0.0652 -1.1839 0
M  V30 27 H -1.1502 -2.7573 -1.9465 0
M  V30 28 H -0.1806 -1.4503 -2.6275 0
M  V30 29 H -4.873 2.1281 -2.0814 0
M  V30 30 H -4.421 0.4882 -2.5512 0
M  V30 31 H -3.5806 1.8849 -3.2594 0
M  V30 32 H 0.6337 -3.5831 -0.69 0
M  V30 33 H 1.7771 -2.3195 -1.1567 0
M  V30 34 H 1.3481 2.0687 0.9028 0
M  V30 35 H 0.8001 -3.0596 1.6631 0
M  V30 36 H 2.4317 -3.2557 0.9974 0
M  V30 37 H 3.1572 -1.9992 3.077 0
M  V30 38 H 3.766 0.2229 3.9324 0
M  V30 39 H 3.0072 3.3865 2.1654 0
M  V30 40 H 3.9552 2.6432 3.4527 0
M  V30 41 H 2.2276 2.9839 3.7162 0
M  V30 END ATOM
M  V30 BEGIN BOND
M  V30 1 1 1 2
M  V30 2 1 2 3
M  V30 3 1 2 4
M  V30 4 1 2 5
M  V30 5 1 3 6
M  V30 6 1 4 7
M  V30 7 1 5 8
M  V30 8 1 6 9
M  V30 9 1 6 10
M  V30 10 1 9 11
M  V30 11 2 10 12
M  V30 12 1 10 13
M  V30 13 1 11 14
M  V30 14 1 12 15
M  V30 15 2 13 16
M  V30 16 2 15 17
M  V30 17 1 16 18
M  V30 18 1 7 9
M  V30 19 1 12 14
M  V30 20 1 16 17
M  V30 21 1 1 19
M  V30 22 1 3 20
M  V30 23 1 3 21
M  V30 24 1 4 22
M  V30 25 1 4 23
M  V30 26 1 5 24
M  V30 27 1 5 25
M  V30 28 1 6 26
M  V30 29 1 7 27
M  V30 30 1 7 28
M  V30 31 1 8 29
M  V30 32 1 8 30
M  V30 33 1 8 31
M  V30 34 1 11 32
M  V30 35 1 11 33
M  V30 36 1 13 34
M  V30 37 1 14 35
M  V30 38 1 14 36
M  V30 39 1 15 37
M  V30 40 1 17 38
M  V30 41 1 18 39
M  V30 42 1 18 40
M  V30 43 1 18 41
M  V30 END BOND
M  V30 END CTAB
M  END
>  <NO.>
1476

>  <Name>
tolquinzole

>  <SMILES>
CCC1(O)CCN2CCc3ccc(C)cc3C2C1

>  <logBB>


>  <Class>
1

>  <MW>
245.18

>  <nHBAcc>
2

>  <nHBDon>
1

>  <SLogP>
2.83

>  <TopoPSA>
23.47

>  <MMFF94 Energy>
48.739

$$$$
CCC1(c2ccccc2)C(=O)N(COC)C(=O)N(COC)C1=O
Actelion Java MolfileCreator 2.0

  0  0  0  0  0  0              0 V3000
M  V30 BEGIN CTAB
M  V30 COUNTS 43 44 0 0 0
M  V30 BEGIN ATOM
M  V30 1 O 1.5861 -0.7135 2.4593 0
M  V30 2 C 1.3228 -0.524 1.2712 0
M  V30 3 N 1.4648 0.7194 0.6822 0
M  V30 4 N 0.8972 -1.5425 0.4327 0
M  V30 5 C 1.0798 0.9944 -0.62 0
M  V30 6 C 2.1774 1.7444 1.4135 0
M  V30 7 C 0.3373 -1.3418 -0.8191 0
M  V30 8 C 1.0486 -2.9029 0.9027 0
M  V30 9 O 1.6024 1.8823 -1.2927 0
M  V30 10 C -0.0592 0.1096 -1.1416 0
M  V30 11 O 1.2446 2.7066 1.9106 0
M  V30 12 O 0.1055 -2.276 -1.5908 0
M  V30 13 O 2.4075 -3.3144 0.7472 0
M  V30 14 C -1.4188 0.4319 -0.4721 0
M  V30 15 C -0.1955 0.2479 -2.69 0
M  V30 16 C 0.677 2.3313 3.1591 0
M  V30 17 C 2.6821 -3.8646 -0.5337 0
M  V30 18 C -2.4723 -0.5028 -0.5088 0
M  V30 19 C -1.6668 1.6731 0.1429 0
M  V30 20 C -0.7793 1.5625 -3.2067 0
M  V30 21 C -3.7053 -0.2239 0.0852 0
M  V30 22 C -2.901 1.9485 0.7371 0
M  V30 23 C -3.9172 0.9988 0.7138 0
M  V30 24 H 2.7915 1.3352 2.2239 0
M  V30 25 H 2.8504 2.2769 0.7336 0
M  V30 26 H 0.8214 -2.9456 1.9732 0
M  V30 27 H 0.3646 -3.5955 0.3988 0
M  V30 28 H 0.7907 0.1034 -3.1516 0
M  V30 29 H -0.83 -0.5558 -3.087 0
M  V30 30 H 0.0414 3.152 3.5034 0
M  V30 31 H 1.4578 2.1618 3.9066 0
M  V30 32 H 0.0523 1.441 3.05 0
M  V30 33 H 3.7055 -4.2496 -0.5254 0
M  V30 34 H 2.6164 -3.095 -1.307 0
M  V30 35 H 2.0036 -4.6933 -0.7577 0
M  V30 36 H -2.3558 -1.4613 -1.0133 0
M  V30 37 H -0.9137 2.4601 0.1629 0
M  V30 38 H -0.2307 2.4351 -2.8447 0
M  V30 39 H -1.8303 1.6736 -2.9232 0
M  V30 40 H -0.7377 1.5772 -4.3011 0
M  V30 41 H -4.5046 -0.9602 0.0479 0
M  V30 42 H -3.0697 2.9133 1.21 0
M  V30 43 H -4.8782 1.2176 1.172 0
M  V30 END ATOM
M  V30 BEGIN BOND
M  V30 1 2 1 2
M  V30 2 1 2 3
M  V30 3 1 2 4
M  V30 4 1 3 5
M  V30 5 1 3 6
M  V30 6 1 4 7
M  V30 7 1 4 8
M  V30 8 2 5 9
M  V30 9 1 5 10
M  V30 10 1 6 11
M  V30 11 2 7 12
M  V30 12 1 8 13
M  V30 13 1 10 14
M  V30 14 1 10 15
M  V30 15 1 11 16
M  V30 16 1 13 17
M  V30 17 2 14 18
M  V30 18 1 14 19
M  V30 19 1 15 20
M  V30 20 1 18 21
M  V30 21 2 19 22
M  V30 22 2 21 23
M  V30 23 1 7 10
M  V30 24 1 22 23
M  V30 25 1 6 24
M  V30 26 1 6 25
M  V30 27 1 8 26
M  V30 28 1 8 27
M  V30 29 1 15 28
M  V30 30 1 15 29
M  V30 31 1 16 30
M  V30 32 1 16 31
M  V30 33 1 16 32
M  V30 34 1 17 33
M  V30 35 1 17 34
M  V30 36 1 17 35
M  V30 37 1 18 36
M  V30 38 1 19 37
M  V30 39 1 20 38
M  V30 40 1 20 39
M  V30 41 1 20 40
M  V30 42 1 21 41
M  V30 43 1 22 42
M  V30 44 1 23 43
M  V30 END BOND
M  V30 END CTAB
M  END
>  <NO.>
1477

>  <Name>
eterobarb

>  <SMILES>
CCC1(c2ccccc2)C(=O)N(COC)C(=O)N(COC)C1=O

>  <logBB>


>  <Class>
1

>  <MW>
320.14

>  <nHBAcc>
5

>  <nHBDon>
0

>  <SLogP>
1.33

>  <TopoPSA>
76.15

>  <MMFF94 Energy>
-88.221

$$$$
CCC1(c2ccccc2)C(=O)NC(=O)N(C(=O)c2ccccc2)C1=O
Actelion Java MolfileCreator 2.0

  0  0  0  0  0  0              0 V3000
M  V30 BEGIN CTAB
M  V30 COUNTS 41 43 0 0 0
M  V30 BEGIN ATOM
M  V30 1 O 1.9242 -2.1649 1.2825 0
M  V30 2 C 1.0043 -1.6658 0.6364 0
M  V30 3 N 0.8372 -0.3214 0.4325 0
M  V30 4 N 0.0272 -2.487 0.1572 0
M  V30 5 C -0.3024 0.2671 -0.0704 0
M  V30 6 C 1.9413 0.479 0.5997 0
M  V30 7 C -1.0959 -2.1283 -0.5267 0
M  V30 8 O -0.552 1.4638 0.1105 0
M  V30 9 C -1.2911 -0.6436 -0.8123 0 CFG=2
M  V30 10 O 2.7212 0.7063 -0.3244 0
M  V30 11 C 2.1868 1.0436 1.964 0
M  V30 12 O -1.8893 -3.0003 -0.879 0
M  V30 13 C -1.116 -0.4165 -2.3359 0
M  V30 14 C -2.7242 -0.2834 -0.2941 0
M  V30 15 C 1.2783 0.8958 3.0219 0
M  V30 16 C 3.3777 1.7521 2.1791 0
M  V30 17 C 0.1568 -0.5595 -2.9288 0
M  V30 18 C -2.1887 -0.087 -3.1834 0
M  V30 19 C -2.928 -0.4692 1.2113 0
M  V30 20 C 1.5644 1.4458 4.2748 0
M  V30 21 C 3.6594 2.2992 3.4324 0
M  V30 22 C 0.3451 -0.3687 -4.3005 0
M  V30 23 C -1.9973 0.1008 -4.5561 0
M  V30 24 C 2.753 2.1449 4.4791 0
M  V30 25 C -0.7317 -0.0382 -5.1141 0
M  V30 26 H 0.1508 -3.4765 0.3297 0
M  V30 27 H -3.4775 -0.9035 -0.7977 0
M  V30 28 H -2.9649 0.7598 -0.5384 0
M  V30 29 H 0.3386 0.3673 2.9001 0
M  V30 30 H 4.0948 1.8815 1.3702 0
M  V30 31 H 1.0371 -0.8153 -2.3429 0
M  V30 32 H -3.2013 0.0318 -2.8071 0
M  V30 33 H -3.9562 -0.2042 1.4795 0
M  V30 34 H -2.7652 -1.5072 1.5159 0
M  V30 35 H -2.261 0.1706 1.7959 0
M  V30 36 H 0.8574 1.3321 5.0934 0
M  V30 37 H 4.5859 2.8462 3.5894 0
M  V30 38 H 1.3376 -0.4761 -4.7316 0
M  V30 39 H -2.843 0.3572 -5.1898 0
M  V30 40 H 2.9723 2.5725 5.4547 0
M  V30 41 H -0.5854 0.111 -6.1804 0
M  V30 END ATOM
M  V30 BEGIN BOND
M  V30 1 2 1 2
M  V30 2 1 2 3
M  V30 3 1 2 4
M  V30 4 1 3 5
M  V30 5 1 3 6
M  V30 6 1 4 7
M  V30 7 2 5 8
M  V30 8 1 5 9
M  V30 9 2 6 10
M  V30 10 1 6 11
M  V30 11 2 7 12
M  V30 12 1 9 13
M  V30 13 1 9 14
M  V30 14 2 11 15
M  V30 15 1 11 16
M  V30 16 2 13 17
M  V30 17 1 13 18
M  V30 18 1 14 19
M  V30 19 1 15 20
M  V30 20 2 16 21
M  V30 21 1 17 22
M  V30 22 2 18 23
M  V30 23 2 20 24
M  V30 24 2 22 25
M  V30 25 1 7 9
M  V30 26 1 21 24
M  V30 27 1 23 25
M  V30 28 1 4 26
M  V30 29 1 14 27
M  V30 30 1 14 28
M  V30 31 1 15 29
M  V30 32 1 16 30
M  V30 33 1 17 31
M  V30 34 1 18 32
M  V30 35 1 19 33
M  V30 36 1 19 34
M  V30 37 1 19 35
M  V30 38 1 20 36
M  V30 39 1 21 37
M  V30 40 1 22 38
M  V30 41 1 23 39
M  V30 42 1 24 40
M  V30 43 1 25 41
M  V30 END BOND
M  V30 BEGIN COLLECTION
M  V30 MDLV30/STERAC1 ATOMS=(1 9)
M  V30 END COLLECTION
M  V30 END CTAB
M  END
>  <NO.>
1478

>  <Name>
benzobarbital

>  <SMILES>
CCC1(c2ccccc2)C(=O)NC(=O)N(C(=O)c2ccccc2)C1=O

>  <logBB>


>  <Class>
1

>  <MW>
336.11

>  <nHBAcc>
4

>  <nHBDon>
1

>  <SLogP>
2.25

>  <TopoPSA>
83.55

>  <MMFF94 Energy>
-24.658

$$$$
CCC1(c2ccccc2)C(=O)NC(=O)N(C)C1=O
Actelion Java MolfileCreator 2.0

  0  0  0  0  0  0              0 V3000
M  V30 BEGIN CTAB
M  V30 COUNTS 32 33 0 0 0
M  V30 BEGIN ATOM
M  V30 1 O -0.7154 -2.1474 3.2623 0
M  V30 2 C -0.5644 -1.2019 2.4918 0
M  V30 3 N 0.6635 -0.7041 2.1109 0
M  V30 4 N -1.6575 -0.5302 2.0344 0
M  V30 5 C 0.8182 0.4274 1.3173 0
M  V30 6 C 1.8427 -1.2581 2.7498 0
M  V30 7 C -1.6567 0.5367 1.1813 0
M  V30 8 O 1.8582 1.0882 1.3364 0
M  V30 9 C -0.3619 0.7554 0.3827 0 CFG=2
M  V30 10 O -2.6784 1.2102 1.0524 0
M  V30 11 C -0.3793 -0.1561 -0.8705 0
M  V30 12 C -0.3127 2.2531 -0.051 0
M  V30 13 C -1.5436 -0.2619 -1.6574 0
M  V30 14 C 0.7618 -0.8625 -1.2943 0
M  V30 15 C 0.7575 2.6348 -1.0729 0
M  V30 16 C -1.5759 -1.0714 -2.7949 0
M  V30 17 C 0.726 -1.6714 -2.4334 0
M  V30 18 C -0.4431 -1.7804 -3.1794 0
M  V30 19 H -2.5431 -0.789 2.4458 0
M  V30 20 H 1.725 -2.3332 2.9148 0
M  V30 21 H 2.7342 -1.0857 2.1396 0
M  V30 22 H 1.9731 -0.7651 3.7185 0
M  V30 23 H -0.1765 2.8792 0.8412 0
M  V30 24 H -1.2777 2.5545 -0.4801 0
M  V30 25 H -2.4455 0.2942 -1.4028 0
M  V30 26 H 1.709 -0.787 -0.7637 0
M  V30 27 H 0.7426 3.7185 -1.2315 0
M  V30 28 H 1.7641 2.365 -0.7465 0
M  V30 29 H 0.5718 2.1652 -2.0434 0
M  V30 30 H -2.4866 -1.1409 -3.385 0
M  V30 31 H 1.6183 -2.2098 -2.7439 0
M  V30 32 H -0.4673 -2.407 -4.0671 0
M  V30 END ATOM
M  V30 BEGIN BOND
M  V30 1 2 1 2
M  V30 2 1 2 3
M  V30 3 1 2 4
M  V30 4 1 3 5
M  V30 5 1 3 6
M  V30 6 1 4 7
M  V30 7 2 5 8
M  V30 8 1 5 9
M  V30 9 2 7 10
M  V30 10 1 9 11
M  V30 11 1 9 12
M  V30 12 2 11 13
M  V30 13 1 11 14
M  V30 14 1 12 15
M  V30 15 1 13 16
M  V30 16 2 14 17
M  V30 17 2 16 18
M  V30 18 1 7 9
M  V30 19 1 17 18
M  V30 20 1 4 19
M  V30 21 1 6 20
M  V30 22 1 6 21
M  V30 23 1 6 22
M  V30 24 1 12 23
M  V30 25 1 12 24
M  V30 26 1 13 25
M  V30 27 1 14 26
M  V30 28 1 15 27
M  V30 29 1 15 28
M  V30 30 1 15 29
M  V30 31 1 16 30
M  V30 32 1 17 31
M  V30 33 1 18 32
M  V30 END BOND
M  V30 BEGIN COLLECTION
M  V30 MDLV30/STERAC1 ATOMS=(1 9)
M  V30 END COLLECTION
M  V30 END CTAB
M  END
>  <NO.>
1479

>  <Name>
mephobarbital(methylphenobarbital)

>  <SMILES>
CCC1(c2ccccc2)C(=O)NC(=O)N(C)C1=O

>  <logBB>


>  <Class>
1

>  <MW>
246.1

>  <nHBAcc>
3

>  <nHBDon>
1

>  <SLogP>
1.04

>  <TopoPSA>
66.48

>  <MMFF94 Energy>
-62.498

$$$$
CCC1(c2ccccc2)C(=O)NC(=O)N1C
Actelion Java MolfileCreator 2.0

  0  0  0  0  0  0              0 V3000
M  V30 BEGIN CTAB
M  V30 COUNTS 30 31 0 0 0
M  V30 BEGIN ATOM
M  V30 1 O -3.3253 -0.1581 1.5032 0
M  V30 2 C -2.1364 -0.3508 1.3148 0
M  V30 3 N -1.2668 0.4625 0.6139 0
M  V30 4 N -1.4479 -1.4258 1.7706 0
M  V30 5 C 0.1001 -0.0743 0.5867 0 CFG=1
M  V30 6 C -1.6494 1.7014 -0.0295 0
M  V30 7 C -0.1362 -1.3678 1.4098 0
M  V30 8 C 0.5317 -0.4312 -0.8458 0
M  V30 9 C 1.0854 0.8335 1.3694 0
M  V30 10 O 0.6996 -2.2074 1.7142 0
M  V30 11 C -0.3254 -1.183 -1.6775 0
M  V30 12 C 1.772 -0.0419 -1.3816 0
M  V30 13 C 0.6522 1.2137 2.785 0
M  V30 14 C 0.0389 -1.5232 -2.9826 0
M  V30 15 C 2.1361 -0.3837 -2.6883 0
M  V30 16 C 1.2704 -1.1228 -3.488 0
M  V30 17 H -1.8591 -2.1655 2.3125 0
M  V30 18 H -2.7128 1.9019 0.127 0
M  V30 19 H -1.4559 1.6302 -1.1026 0
M  V30 20 H -1.0666 2.5229 0.3941 0
M  V30 21 H 2.061 0.3364 1.4498 0
M  V30 22 H 1.2483 1.766 0.8138 0
M  V30 23 H -1.2991 -1.5124 -1.3185 0
M  V30 24 H 2.4892 0.5307 -0.7995 0
M  V30 25 H 0.5366 0.3324 3.4226 0
M  V30 26 H 1.4126 1.8545 3.2441 0
M  V30 27 H -0.2897 1.7698 2.7848 0
M  V30 28 H -0.6407 -2.1029 -3.6022 0
M  V30 29 H 3.1021 -0.0737 -3.0797 0
M  V30 30 H 1.5569 -1.3888 -4.5019 0
M  V30 END ATOM
M  V30 BEGIN BOND
M  V30 1 2 1 2
M  V30 2 1 2 3
M  V30 3 1 2 4
M  V30 4 1 3 5
M  V30 5 1 3 6
M  V30 6 1 4 7
M  V30 7 1 5 8
M  V30 8 1 5 9
M  V30 9 2 7 10
M  V30 10 2 8 11
M  V30 11 1 8 12
M  V30 12 1 9 13
M  V30 13 1 11 14
M  V30 14 2 12 15
M  V30 15 2 14 16
M  V30 16 1 5 7
M  V30 17 1 15 16
M  V30 18 1 4 17
M  V30 19 1 6 18
M  V30 20 1 6 19
M  V30 21 1 6 20
M  V30 22 1 9 21
M  V30 23 1 9 22
M  V30 24 1 11 23
M  V30 25 1 12 24
M  V30 26 1 13 25
M  V30 27 1 13 26
M  V30 28 1 13 27
M  V30 29 1 14 28
M  V30 30 1 15 29
M  V30 31 1 16 30
M  V30 END BOND
M  V30 BEGIN COLLECTION
M  V30 MDLV30/STERAC1 ATOMS=(1 5)
M  V30 END COLLECTION
M  V30 END CTAB
M  END
>  <NO.>
1480

>  <Name>
methetoin

>  <SMILES>
CCC1(c2ccccc2)C(=O)NC(=O)N1C

>  <logBB>


>  <Class>
1

>  <MW>
218.11

>  <nHBAcc>
2

>  <nHBDon>
1

>  <SLogP>
1.47

>  <TopoPSA>
49.41

>  <MMFF94 Energy>
-26.506

$$$$
CCC1(c2ccccc2)CCC(=O)NC1=O
Actelion Java MolfileCreator 2.0

  0  0  0  0  0  0              0 V3000
M  V30 BEGIN CTAB
M  V30 COUNTS 31 32 0 0 0
M  V30 BEGIN ATOM
M  V30 1 O -2.3055 1.033 -0.0794 0
M  V30 2 C -1.5303 0.4185 -0.8118 0
M  V30 3 N -1.8688 0.2596 -2.1365 0
M  V30 4 C -0.2314 -0.2629 -0.3224 0 CFG=2
M  V30 5 C -1.2062 -0.4205 -3.1239 0
M  V30 6 C 0.5614 0.5607 0.7184 0
M  V30 7 C 0.7226 -0.4053 -1.5407 0
M  V30 8 C -0.655 -1.6737 0.2001 0
M  V30 9 O -1.6748 -0.5098 -4.2551 0
M  V30 10 C 0.0776 -1.0969 -2.7302 0
M  V30 11 C 0.4036 1.9529 0.843 0
M  V30 12 C 1.5442 -0.0505 1.5229 0
M  V30 13 C -1.4754 -1.6743 1.4896 0
M  V30 14 C 1.1607 2.6914 1.7582 0
M  V30 15 C 2.3015 0.6881 2.4367 0
M  V30 16 C 2.1064 2.0591 2.5575 0
M  V30 17 H -2.7374 0.6959 -2.4148 0
M  V30 18 H 1.629 -0.9585 -1.2621 0
M  V30 19 H 1.0572 0.5913 -1.8643 0
M  V30 20 H 0.2278 -2.3066 0.3501 0
M  V30 21 H -1.2621 -2.1867 -0.5565 0
M  V30 22 H 0.7616 -1.0593 -3.5854 0
M  V30 23 H -0.1322 -2.1502 -2.5206 0
M  V30 24 H -0.3149 2.4988 0.2355 0
M  V30 25 H 1.7435 -1.1166 1.45 0
M  V30 26 H -1.7093 -2.7054 1.7756 0
M  V30 27 H -0.9361 -1.2179 2.3236 0
M  V30 28 H -2.4257 -1.1483 1.363 0
M  V30 29 H 1.0075 3.7645 1.8438 0
M  V30 30 H 3.0465 0.19 3.052 0
M  V30 31 H 2.6925 2.6346 3.2687 0
M  V30 END ATOM
M  V30 BEGIN BOND
M  V30 1 2 1 2
M  V30 2 1 2 3
M  V30 3 1 2 4
M  V30 4 1 3 5
M  V30 5 1 4 6
M  V30 6 1 4 7
M  V30 7 1 4 8
M  V30 8 2 5 9
M  V30 9 1 5 10
M  V30 10 2 6 11
M  V30 11 1 6 12
M  V30 12 1 8 13
M  V30 13 1 11 14
M  V30 14 2 12 15
M  V30 15 2 14 16
M  V30 16 1 7 10
M  V30 17 1 15 16
M  V30 18 1 3 17
M  V30 19 1 7 18
M  V30 20 1 7 19
M  V30 21 1 8 20
M  V30 22 1 8 21
M  V30 23 1 10 22
M  V30 24 1 10 23
M  V30 25 1 11 24
M  V30 26 1 12 25
M  V30 27 1 13 26
M  V30 28 1 13 27
M  V30 29 1 13 28
M  V30 30 1 14 29
M  V30 31 1 15 30
M  V30 32 1 16 31
M  V30 END BOND
M  V30 BEGIN COLLECTION
M  V30 MDLV30/STERAC1 ATOMS=(1 4)
M  V30 END COLLECTION
M  V30 END CTAB
M  END
>  <NO.>
1481

>  <Name>
piperacillin

>  <SMILES>
CCC1(c2ccccc2)CCC(=O)NC1=O

>  <logBB>


>  <Class>
1

>  <MW>
217.11

>  <nHBAcc>
2

>  <nHBDon>
1

>  <SLogP>
1.77

>  <TopoPSA>
46.17

>  <MMFF94 Energy>
4.1616

$$$$
CCC1(c2ccccc2)NC(=O)N(C)C1=O
Actelion Java MolfileCreator 2.0

  0  0  0  0  0  0              0 V3000
M  V30 BEGIN CTAB
M  V30 COUNTS 30 31 0 0 0
M  V30 BEGIN ATOM
M  V30 1 O -3.4811 -0.5531 0.316 0
M  V30 2 C -2.3357 -0.383 -0.066 0
M  V30 3 N -1.9195 0.2646 -1.1845 0
M  V30 4 N -1.2359 -0.8641 0.5997 0
M  V30 5 C -0.5562 0.206 -1.296 0
M  V30 6 C -2.786 0.8813 -2.1551 0
M  V30 7 C 0.0138 -0.5172 -0.0454 0 CFG=1
M  V30 8 O 0.0994 0.643 -2.2348 0
M  V30 9 C 0.8653 0.4331 0.8046 0
M  V30 10 C 0.8095 -1.7804 -0.4368 0
M  V30 11 C 0.5588 0.7257 2.1462 0
M  V30 12 C 2.0109 1.038 0.2518 0
M  V30 13 C 0.0288 -2.8098 -1.2502 0
M  V30 14 C 1.3625 1.5868 2.8996 0
M  V30 15 C 2.8129 1.8984 1.0055 0
M  V30 16 C 2.4888 2.1719 2.3299 0
M  V30 17 H -1.3328 -1.3907 1.4561 0
M  V30 18 H -2.7791 0.2697 -3.0622 0
M  V30 19 H -2.3983 1.8726 -2.407 0
M  V30 20 H -3.8073 0.9605 -1.7744 0
M  V30 21 H 1.6984 -1.5035 -1.0171 0
M  V30 22 H 1.174 -2.2758 0.4729 0
M  V30 23 H -0.3134 0.2971 2.6331 0
M  V30 24 H 2.2905 0.8521 -0.7848 0
M  V30 25 H -0.3247 -2.3899 -2.1965 0
M  V30 26 H 0.6739 -3.6625 -1.4861 0
M  V30 27 H -0.8327 -3.1919 -0.6946 0
M  V30 28 H 1.1048 1.8023 3.9338 0
M  V30 29 H 3.689 2.3568 0.5538 0
M  V30 30 H 3.1109 2.8429 2.9162 0
M  V30 END ATOM
M  V30 BEGIN BOND
M  V30 1 2 1 2
M  V30 2 1 2 3
M  V30 3 1 2 4
M  V30 4 1 3 5
M  V30 5 1 3 6
M  V30 6 1 4 7
M  V30 7 2 5 8
M  V30 8 1 7 9
M  V30 9 1 7 10
M  V30 10 2 9 11
M  V30 11 1 9 12
M  V30 12 1 10 13
M  V30 13 1 11 14
M  V30 14 2 12 15
M  V30 15 2 14 16
M  V30 16 1 5 7
M  V30 17 1 15 16
M  V30 18 1 4 17
M  V30 19 1 6 18
M  V30 20 1 6 19
M  V30 21 1 6 20
M  V30 22 1 10 21
M  V30 23 1 10 22
M  V30 24 1 11 23
M  V30 25 1 12 24
M  V30 26 1 13 25
M  V30 27 1 13 26
M  V30 28 1 13 27
M  V30 29 1 14 28
M  V30 30 1 15 29
M  V30 31 1 16 30
M  V30 END BOND
M  V30 BEGIN COLLECTION
M  V30 MDLV30/STERAC1 ATOMS=(1 7)
M  V30 END COLLECTION
M  V30 END CTAB
M  END
>  <NO.>
1482

>  <Name>
mephenytoin

>  <SMILES>
CCC1(c2ccccc2)NC(=O)N(C)C1=O

>  <logBB>


>  <Class>
1

>  <MW>
218.11

>  <nHBAcc>
2

>  <nHBDon>
1

>  <SLogP>
1.47

>  <TopoPSA>
49.41

>  <MMFF94 Energy>
-26.443

$$$$
CCC1(c2ccccc2)NCC(=O)NC1=O
Actelion Java MolfileCreator 2.0

  0  0  0  0  0  0              0 V3000
M  V30 BEGIN CTAB
M  V30 COUNTS 30 31 0 0 0
M  V30 BEGIN ATOM
M  V30 1 O -0.6363 1.1138 2.1489 0
M  V30 2 C -0.8116 0.0238 1.6 0
M  V30 3 N -1.602 -0.8903 2.2553 0
M  V30 4 C -0.1099 -0.4266 0.2571 0 CFG=1
M  V30 5 C -1.7875 -2.2065 1.9343 0
M  V30 6 N -0.8298 -1.6367 -0.2713 0
M  V30 7 C -0.1702 0.6968 -0.821 0
M  V30 8 C 1.3634 -0.8551 0.5511 0
M  V30 9 O -2.4462 -2.9481 2.6604 0
M  V30 10 C -1.0563 -2.7058 0.7055 0
M  V30 11 C -0.5589 0.4402 -2.1538 0
M  V30 12 C 0.1786 2.0289 -0.5198 0
M  V30 13 C 2.3285 0.2197 1.0417 0
M  V30 14 C -0.5944 1.4515 -3.1217 0
M  V30 15 C 0.1439 3.0416 -1.4854 0
M  V30 16 C -0.2417 2.7526 -2.7876 0
M  V30 17 H -2.0527 -0.5642 3.0969 0
M  V30 18 H -0.2807 -2.0242 -1.0379 0
M  V30 19 H 1.3715 -1.6354 1.3221 0
M  V30 20 H 1.8028 -1.3025 -0.3509 0
M  V30 21 H -0.1234 -3.1854 1.0156 0
M  V30 22 H -1.6827 -3.4712 0.235 0
M  V30 23 H -0.8607 -0.5526 -2.4757 0
M  V30 24 H 0.4902 2.3158 0.4825 0
M  V30 25 H 2.5568 0.948 0.2593 0
M  V30 26 H 1.946 0.7438 1.9213 0
M  V30 27 H 3.2791 -0.2449 1.3263 0
M  V30 28 H -0.9054 1.2176 -4.1368 0
M  V30 29 H 0.4175 4.0575 -1.2113 0
M  V30 30 H -0.2723 3.5387 -3.5367 0
M  V30 END ATOM
M  V30 BEGIN BOND
M  V30 1 2 1 2
M  V30 2 1 2 3
M  V30 3 1 2 4
M  V30 4 1 3 5
M  V30 5 1 4 6
M  V30 6 1 4 7
M  V30 7 1 4 8
M  V30 8 2 5 9
M  V30 9 1 5 10
M  V30 10 2 7 11
M  V30 11 1 7 12
M  V30 12 1 8 13
M  V30 13 1 11 14
M  V30 14 2 12 15
M  V30 15 2 14 16
M  V30 16 1 6 10
M  V30 17 1 15 16
M  V30 18 1 3 17
M  V30 19 1 6 18
M  V30 20 1 8 19
M  V30 21 1 8 20
M  V30 22 1 10 21
M  V30 23 1 10 22
M  V30 24 1 11 23
M  V30 25 1 12 24
M  V30 26 1 13 25
M  V30 27 1 13 26
M  V30 28 1 13 27
M  V30 29 1 14 28
M  V30 30 1 15 29
M  V30 31 1 16 30
M  V30 END BOND
M  V30 BEGIN COLLECTION
M  V30 MDLV30/STERAC1 ATOMS=(1 4)
M  V30 END COLLECTION
M  V30 END CTAB
M  END
>  <NO.>
1483

>  <Name>
iminophenimide

>  <SMILES>
CCC1(c2ccccc2)NCC(=O)NC1=O

>  <logBB>


>  <Class>
1

>  <MW>
218.11

>  <nHBAcc>
3

>  <nHBDon>
2

>  <SLogP>
0.54

>  <TopoPSA>
58.2

>  <MMFF94 Energy>
92.108

$$$$
CCC1(c2ccccc2)OCC(C2CCCCN2)O1
Actelion Java MolfileCreator 2.0

  0  0  0  0  0  0              0 V3000
M  V30 BEGIN CTAB
M  V30 COUNTS 42 44 0 0 0
M  V30 BEGIN ATOM
M  V30 1 O 1.1924 -1.1924 0.2384 0
M  V30 2 C 0.9462 -0.5942 1.5232 0
M  V30 3 C 1.5078 -0.1089 -0.6502 0
M  V30 4 O 1.4843 0.7415 1.5251 0
M  V30 5 C -0.5518 -0.5352 1.8249 0
M  V30 6 C 1.6377 -1.4426 2.6097 0
M  V30 7 C 0.2389 0.4248 -1.3783 0
M  V30 8 C 2.1654 0.8853 0.2805 0
M  V30 9 C -1.4435 -1.4615 1.2576 0
M  V30 10 C -1.0712 0.4277 2.7088 0
M  V30 11 C 3.1466 -1.5705 2.4329 0
M  V30 12 N -0.4204 -0.6795 -2.1137 0
M  V30 13 C 0.5844 1.563 -2.3584 0
M  V30 14 C -2.8082 -1.417 1.5508 0
M  V30 15 C -2.4357 0.4703 3.0036 0
M  V30 16 C -1.6446 -0.2371 -2.7764 0
M  V30 17 C -0.6476 2.0407 -3.1255 0
M  V30 18 C -3.3035 -0.4515 2.4236 0
M  V30 19 C -1.3649 0.8704 -3.7864 0
M  V30 20 H 2.2249 -0.4699 -1.3967 0
M  V30 21 H 1.4535 -1.0082 3.6006 0
M  V30 22 H 1.2146 -2.4554 2.6124 0
M  V30 23 H -0.4693 0.8022 -0.6314 0
M  V30 24 H 2.1358 1.926 -0.0458 0
M  V30 25 H 3.2147 0.6179 0.4468 0
M  V30 26 H -1.0761 -2.2177 0.5655 0
M  V30 27 H -0.4072 1.1547 3.1727 0
M  V30 28 H 3.5593 -2.2225 3.2096 0
M  V30 29 H 3.4007 -2.0048 1.4614 0
M  V30 30 H 3.64 -0.5981 2.5214 0
M  V30 31 H 0.2244 -1.0723 -2.7976 0
M  V30 32 H 1.0084 2.4203 -1.8261 0
M  V30 33 H 1.3455 1.2232 -3.0727 0
M  V30 34 H -3.4817 -2.1363 1.0928 0
M  V30 35 H -2.8192 1.2239 3.6862 0
M  V30 36 H -2.0985 -1.092 -3.2892 0
M  V30 37 H -2.3726 0.1007 -2.0289 0
M  V30 38 H -1.3331 2.5454 -2.4334 0
M  V30 39 H -0.3555 2.7772 -3.8821 0
M  V30 40 H -4.3655 -0.4176 2.651 0
M  V30 41 H -2.3051 1.2149 -4.2313 0
M  V30 42 H -0.748 0.4778 -4.6044 0
M  V30 END ATOM
M  V30 BEGIN BOND
M  V30 1 1 1 2
M  V30 2 1 1 3
M  V30 3 1 2 4
M  V30 4 1 2 5
M  V30 5 1 2 6
M  V30 6 1 3 7
M  V30 7 1 3 8
M  V30 8 2 5 9
M  V30 9 1 5 10
M  V30 10 1 6 11
M  V30 11 1 7 12
M  V30 12 1 7 13
M  V30 13 1 9 14
M  V30 14 2 10 15
M  V30 15 1 12 16
M  V30 16 1 13 17
M  V30 17 2 14 18
M  V30 18 1 16 19
M  V30 19 1 4 8
M  V30 20 1 15 18
M  V30 21 1 17 19
M  V30 22 1 3 20
M  V30 23 1 6 21
M  V30 24 1 6 22
M  V30 25 1 7 23
M  V30 26 1 8 24
M  V30 27 1 8 25
M  V30 28 1 9 26
M  V30 29 1 10 27
M  V30 30 1 11 28
M  V30 31 1 11 29
M  V30 32 1 11 30
M  V30 33 1 12 31
M  V30 34 1 13 32
M  V30 35 1 13 33
M  V30 36 1 14 34
M  V30 37 1 15 35
M  V30 38 1 16 36
M  V30 39 1 16 37
M  V30 40 1 17 38
M  V30 41 1 17 39
M  V30 42 1 18 40
M  V30 43 1 19 41
M  V30 44 1 19 42
M  V30 END BOND
M  V30 END CTAB
M  END
>  <NO.>
1484

>  <Name>
etoxadrol

>  <SMILES>
CCC1(c2ccccc2)OCC(C2CCCCN2)O1

>  <logBB>


>  <Class>
1

>  <MW>
261.17

>  <nHBAcc>
3

>  <nHBDon>
1

>  <SLogP>
2.81

>  <TopoPSA>
30.49

>  <MMFF94 Energy>
59.017

$$$$
CCC12CCN(CC3CC3)C(Cc3ccc(O)cc31)C2(C)C
Actelion Java MolfileCreator 2.0

  0  0  0  0  0  0              0 V3000
M  V30 BEGIN CTAB
M  V30 COUNTS 51 54 0 0 0
M  V30 BEGIN ATOM
M  V30 1 O 2.5523 -0.239 -4.7897 0
M  V30 2 C 2.3177 -0.0212 -3.4634 0
M  V30 3 C 1.0354 0.2558 -2.9884 0
M  V30 4 C 3.3974 -0.0853 -2.602 0
M  V30 5 C 0.7982 0.4845 -1.6184 0
M  V30 6 C 3.1933 0.1303 -1.2444 0
M  V30 7 C 1.907 0.4066 -0.7425 0
M  V30 8 C -0.6356 0.7534 -1.0624 0
M  V30 9 C 1.7854 0.6576 0.7415 0
M  V30 10 C -0.5423 1.6056 0.2786 0
M  V30 11 C -1.2303 -0.6438 -0.7167 0
M  V30 12 C -1.5319 1.5103 -2.1136 0
M  V30 13 C 0.3414 0.786 1.2706 0
M  V30 14 C 0.057 3.0173 0.0325 0
M  V30 15 C -1.9216 1.8599 0.9618 0
M  V30 16 C -0.5166 -1.3625 0.4365 0
M  V30 17 C -2.3961 0.6601 -3.0462 0
M  V30 18 N -0.3286 -0.4978 1.605 0
M  V30 19 C 0.3211 -1.2019 2.716 0
M  V30 20 C -0.649 -2.1431 3.3702 0
M  V30 21 C -0.6303 -3.6224 3.0717 0
M  V30 22 C -0.1538 -3.1229 4.4055 0
M  V30 23 H 1.7131 -0.156 -5.2705 0
M  V30 24 H 0.2246 0.2926 -3.7033 0
M  V30 25 H 4.3907 -0.2997 -2.9834 0
M  V30 26 H 4.0457 0.084 -0.57 0
M  V30 27 H 2.3136 1.5964 0.9575 0
M  V30 28 H 2.3309 -0.1199 1.2877 0
M  V30 29 H -2.2907 -0.5429 -0.4546 0
M  V30 30 H -1.1983 -1.3076 -1.5904 0
M  V30 31 H -0.9105 2.1837 -2.7181 0
M  V30 32 H -2.24 2.1717 -1.6079 0
M  V30 33 H 0.3994 1.3584 2.2077 0
M  V30 34 H 1.0076 2.9989 -0.5064 0
M  V30 35 H 0.2328 3.5328 0.984 0
M  V30 36 H -0.6252 3.644 -0.5521 0
M  V30 37 H -2.5017 0.9473 1.1196 0
M  V30 38 H -1.7786 2.3201 1.9476 0
M  V30 39 H -2.5499 2.5505 0.3918 0
M  V30 40 H 0.4371 -1.7792 0.0915 0
M  V30 41 H -1.1409 -2.2228 0.7034 0
M  V30 42 H -1.834 -0.1146 -3.5699 0
M  V30 43 H -2.8609 1.3016 -3.8026 0
M  V30 44 H -3.2082 0.1763 -2.4941 0
M  V30 45 H 0.6239 -0.4831 3.4875 0
M  V30 46 H 1.2279 -1.7277 2.3935 0
M  V30 47 H -1.6053 -1.6697 3.5677 0
M  V30 48 H 0.1095 -4.0027 2.3771 0
M  V30 49 H -1.5831 -4.1376 3.0296 0
M  V30 50 H 0.9088 -3.1692 4.6133 0
M  V30 51 H -0.7824 -3.3051 5.2699 0
M  V30 END ATOM
M  V30 BEGIN BOND
M  V30 1 1 1 2
M  V30 2 2 2 3
M  V30 3 1 2 4
M  V30 4 1 3 5
M  V30 5 2 4 6
M  V30 6 2 5 7
M  V30 7 1 5 8
M  V30 8 1 7 9
M  V30 9 1 8 10
M  V30 10 1 8 11
M  V30 11 1 8 12
M  V30 12 1 9 13
M  V30 13 1 10 14
M  V30 14 1 10 15
M  V30 15 1 11 16
M  V30 16 1 12 17
M  V30 17 1 13 18
M  V30 18 1 18 19
M  V30 19 1 19 20
M  V30 20 1 20 21
M  V30 21 1 20 22
M  V30 22 1 6 7
M  V30 23 1 10 13
M  V30 24 1 16 18
M  V30 25 1 21 22
M  V30 26 1 1 23
M  V30 27 1 3 24
M  V30 28 1 4 25
M  V30 29 1 6 26
M  V30 30 1 9 27
M  V30 31 1 9 28
M  V30 32 1 11 29
M  V30 33 1 11 30
M  V30 34 1 12 31
M  V30 35 1 12 32
M  V30 36 1 13 33
M  V30 37 1 14 34
M  V30 38 1 14 35
M  V30 39 1 14 36
M  V30 40 1 15 37
M  V30 41 1 15 38
M  V30 42 1 15 39
M  V30 43 1 16 40
M  V30 44 1 16 41
M  V30 45 1 17 42
M  V30 46 1 17 43
M  V30 47 1 17 44
M  V30 48 1 19 45
M  V30 49 1 19 46
M  V30 50 1 20 47
M  V30 51 1 21 48
M  V30 52 1 21 49
M  V30 53 1 22 50
M  V30 54 1 22 51
M  V30 END BOND
M  V30 END CTAB
M  END
>  <NO.>
1485

>  <Name>
gemazocine

>  <SMILES>
CCC12CCN(CC3CC3)C(Cc3ccc(O)cc31)C2(C)C

>  <logBB>


>  <Class>
1

>  <MW>
299.22

>  <nHBAcc>
2

>  <nHBDon>
1

>  <SLogP>
4.11

>  <TopoPSA>
23.47

>  <MMFF94 Energy>
76.992

$$$$
CCC12CCN(CC3CCC3)C(Cc3ccc(O)cc31)C2(C)C
Actelion Java MolfileCreator 2.0

  0  0  0  0  0  0              0 V3000
M  V30 BEGIN CTAB
M  V30 COUNTS 54 57 0 0 0
M  V30 BEGIN ATOM
M  V30 1 O 0.2394 5.1185 -2.5567 0
M  V30 2 C 0.3015 3.8005 -2.2098 0
M  V30 3 C 0.315 3.4012 -0.8738 0
M  V30 4 C 0.3464 2.8686 -3.2319 0
M  V30 5 C 0.3913 2.0372 -0.5259 0
M  V30 6 C 0.3945 1.5152 -2.9159 0
M  V30 7 C 0.4028 1.0881 -1.575 0
M  V30 8 C 0.3727 1.5675 0.9542 0
M  V30 9 C 0.4461 -0.4016 -1.3176 0
M  V30 10 C 1.0641 0.1462 1.0991 0
M  V30 11 C -1.1451 1.4208 1.3163 0
M  V30 12 C 0.931 2.6384 1.9578 0
M  V30 13 C 0.2722 -0.8274 0.161 0
M  V30 14 C 2.565 0.1296 0.6948 0
M  V30 15 C 1.0261 -0.4058 2.5517 0
M  V30 16 C -1.8678 0.2976 0.5688 0
M  V30 17 C 2.3717 3.1028 1.7852 0
M  V30 18 N -1.1296 -0.9679 0.6262 0
M  V30 19 C -1.9072 -2.0445 -0.0132 0
M  V30 20 C -1.351 -3.4422 0.292 0
M  V30 21 C -2.3195 -4.6107 -0.0493 0
M  V30 22 C -0.3756 -4.0782 -0.7412 0
M  V30 23 C -1.592 -4.7562 -1.3967 0
M  V30 24 H 0.2293 5.6519 -1.7455 0
M  V30 25 H 0.2587 4.1636 -0.1051 0
M  V30 26 H 0.3365 3.1924 -4.2681 0
M  V30 27 H 0.42 0.7861 -3.723 0
M  V30 28 H -0.2963 -0.8973 -1.9522 0
M  V30 29 H 1.4226 -0.7638 -1.6671 0
M  V30 30 H -1.2545 1.2443 2.3944 0
M  V30 31 H -1.6789 2.3614 1.1214 0
M  V30 32 H 0.2937 3.532 1.9217 0
M  V30 33 H 0.8163 2.2787 2.9881 0
M  V30 34 H 0.741 -1.8129 0.2677 0
M  V30 35 H 3.2108 0.4892 1.4996 0
M  V30 36 H 2.8971 -0.8945 0.4847 0
M  V30 37 H 2.7825 0.7306 -0.1919 0
M  V30 38 H 1.6356 0.2013 3.2293 0
M  V30 39 H 0.0178 -0.4519 2.9715 0
M  V30 40 H 1.4321 -1.4242 2.5858 0
M  V30 41 H -2.074 0.5935 -0.4666 0
M  V30 42 H -2.8487 0.1719 1.0455 0
M  V30 43 H 2.6596 3.2192 0.7379 0
M  V30 44 H 2.504 4.0743 2.2749 0
M  V30 45 H 3.0707 2.42 2.2722 0
M  V30 46 H -2.9212 -2.0116 0.4076 0
M  V30 47 H -2.0235 -1.8857 -1.0911 0
M  V30 48 H -0.9952 -3.5055 1.3292 0
M  V30 49 H -2.1994 -5.4812 0.6069 0
M  V30 50 H -3.3836 -4.3668 -0.1122 0
M  V30 51 H 0.3311 -4.7862 -0.2922 0
M  V30 52 H 0.1775 -3.3992 -1.3937 0
M  V30 53 H -1.4349 -5.7805 -1.7437 0
M  V30 54 H -2.0412 -4.1714 -2.2074 0
M  V30 END ATOM
M  V30 BEGIN BOND
M  V30 1 1 1 2
M  V30 2 2 2 3
M  V30 3 1 2 4
M  V30 4 1 3 5
M  V30 5 2 4 6
M  V30 6 2 5 7
M  V30 7 1 5 8
M  V30 8 1 7 9
M  V30 9 1 8 10
M  V30 10 1 8 11
M  V30 11 1 8 12
M  V30 12 1 9 13
M  V30 13 1 10 14
M  V30 14 1 10 15
M  V30 15 1 11 16
M  V30 16 1 12 17
M  V30 17 1 13 18
M  V30 18 1 18 19
M  V30 19 1 19 20
M  V30 20 1 20 21
M  V30 21 1 20 22
M  V30 22 1 21 23
M  V30 23 1 6 7
M  V30 24 1 10 13
M  V30 25 1 16 18
M  V30 26 1 22 23
M  V30 27 1 1 24
M  V30 28 1 3 25
M  V30 29 1 4 26
M  V30 30 1 6 27
M  V30 31 1 9 28
M  V30 32 1 9 29
M  V30 33 1 11 30
M  V30 34 1 11 31
M  V30 35 1 12 32
M  V30 36 1 12 33
M  V30 37 1 13 34
M  V30 38 1 14 35
M  V30 39 1 14 36
M  V30 40 1 14 37
M  V30 41 1 15 38
M  V30 42 1 15 39
M  V30 43 1 15 40
M  V30 44 1 16 41
M  V30 45 1 16 42
M  V30 46 1 17 43
M  V30 47 1 17 44
M  V30 48 1 17 45
M  V30 49 1 19 46
M  V30 50 1 19 47
M  V30 51 1 20 48
M  V30 52 1 21 49
M  V30 53 1 21 50
M  V30 54 1 22 51
M  V30 55 1 22 52
M  V30 56 1 23 53
M  V30 57 1 23 54
M  V30 END BOND
M  V30 END CTAB
M  END
>  <NO.>
1486

>  <Name>
cogazocine

>  <SMILES>
CCC12CCN(CC3CCC3)C(Cc3ccc(O)cc31)C2(C)C

>  <logBB>


>  <Class>
1

>  <MW>
313.24

>  <nHBAcc>
2

>  <nHBDon>
1

>  <SLogP>
4.5

>  <TopoPSA>
23.47

>  <MMFF94 Energy>
80.664

$$$$
CCC1C(=O)NC(=O)C1(C)c1ccccc1
Actelion Java MolfileCreator 2.0

  0  0  0  0  0  0              0 V3000
M  V30 BEGIN CTAB
M  V30 COUNTS 31 32 0 0 0
M  V30 BEGIN ATOM
M  V30 1 O 1.031 0.3171 -3.016 0
M  V30 2 C 1.1465 -0.1908 -1.9108 0
M  V30 3 N 1.8889 -1.2989 -1.6664 0
M  V30 4 C 0.5781 0.3326 -0.5907 0
M  V30 5 C 1.8729 -1.6836 -0.3689 0
M  V30 6 C -0.9218 0.6531 -0.6308 0
M  V30 7 C 0.8296 -0.8734 0.3694 0
M  V30 8 C 1.4394 1.5763 -0.2751 0
M  V30 9 O 2.5689 -2.5722 0.0923 0
M  V30 10 C -1.7696 0.1065 -1.6113 0
M  V30 11 C -1.5131 1.4593 0.3597 0
M  V30 12 C 1.2602 -0.5209 1.7983 0
M  V30 13 C -3.1417 0.3755 -1.6155 0
M  V30 14 C -2.8852 1.7266 0.3556 0
M  V30 15 C 1.1074 -1.6878 2.768 0
M  V30 16 C -3.6992 1.1866 -0.6334 0
M  V30 17 H 2.4424 -1.7568 -2.3726 0
M  V30 18 H -0.0671 -1.5087 0.4088 0
M  V30 19 H 1.243 1.9969 0.7152 0
M  V30 20 H 2.5105 1.3449 -0.3216 0
M  V30 21 H 1.2524 2.3732 -1.0058 0
M  V30 22 H -1.3842 -0.5354 -2.4007 0
M  V30 23 H -0.9196 1.8933 1.1603 0
M  V30 24 H 2.3036 -0.1844 1.8158 0
M  V30 25 H 0.6437 0.2985 2.1825 0
M  V30 26 H -3.7737 -0.05 -2.3911 0
M  V30 27 H -3.3172 2.3573 1.1287 0
M  V30 28 H 0.0719 -2.042 2.7937 0
M  V30 29 H 1.379 -1.3707 3.7802 0
M  V30 30 H 1.7521 -2.5285 2.4998 0
M  V30 31 H -4.7654 1.396 -0.6387 0
M  V30 END ATOM
M  V30 BEGIN BOND
M  V30 1 2 1 2
M  V30 2 1 2 3
M  V30 3 1 2 4
M  V30 4 1 3 5
M  V30 5 1 4 6
M  V30 6 1 4 7
M  V30 7 1 4 8
M  V30 8 2 5 9
M  V30 9 2 6 10
M  V30 10 1 6 11
M  V30 11 1 7 12
M  V30 12 1 10 13
M  V30 13 2 11 14
M  V30 14 1 12 15
M  V30 15 2 13 16
M  V30 16 1 5 7
M  V30 17 1 14 16
M  V30 18 1 3 17
M  V30 19 1 7 18
M  V30 20 1 8 19
M  V30 21 1 8 20
M  V30 22 1 8 21
M  V30 23 1 10 22
M  V30 24 1 11 23
M  V30 25 1 12 24
M  V30 26 1 12 25
M  V30 27 1 13 26
M  V30 28 1 14 27
M  V30 29 1 15 28
M  V30 30 1 15 29
M  V30 31 1 15 30
M  V30 32 1 16 31
M  V30 END BOND
M  V30 END CTAB
M  END
>  <NO.>
1487

>  <Name>
fenimide

>  <SMILES>
CCC1C(=O)NC(=O)C1(C)c1ccccc1

>  <logBB>


>  <Class>
1

>  <MW>
217.11

>  <nHBAcc>
2

>  <nHBDon>
1

>  <SLogP>
1.63

>  <TopoPSA>
46.17

>  <MMFF94 Energy>
-5.2198

$$$$
CCCC(=O)N(C)Cc1c(-c2ccc(Cl)cc2)nc2ccccn12
Actelion Java MolfileCreator 2.0

  0  0  0  0  0  0              0 V3000
M  V30 BEGIN CTAB
M  V30 COUNTS 44 46 0 0 0
M  V30 BEGIN ATOM
M  V30 1 Cl -4.0809 -2.5591 5.1232 0
M  V30 2 C -2.8483 -1.6927 4.2931 0
M  V30 3 C -1.5625 -2.223 4.2142 0
M  V30 4 C -3.1413 -0.4611 3.7095 0
M  V30 5 C -0.5637 -1.5182 3.5376 0
M  V30 6 C -2.141 0.2431 3.0327 0
M  V30 7 C -0.8499 -0.289 2.9282 0
M  V30 8 C 0.2069 0.4194 2.233 0
M  V30 9 N 1.4303 0.6325 2.8157 0
M  V30 10 C 0.1717 0.8978 0.9313 0
M  V30 11 C 2.1322 1.29 1.921 0
M  V30 12 N 1.4078 1.4973 0.7478 0
M  V30 13 C -0.8758 0.8344 -0.1245 0
M  V30 14 C 3.4609 1.7994 1.9746 0
M  V30 15 C 1.9339 2.1892 -0.3462 0
M  V30 16 N -0.6072 -0.2692 -1.0468 0
M  V30 17 C 3.9684 2.4617 0.918 0
M  V30 18 C 3.1864 2.6723 -0.2878 0
M  V30 19 C -0.289 0.0272 -2.3682 0
M  V30 20 C -0.6948 -1.6215 -0.5022 0
M  V30 21 O -0.2677 1.1852 -2.7874 0
M  V30 22 C 0.0499 -1.1471 -3.2787 0
M  V30 23 C 0.5082 -0.7333 -4.6779 0
M  V30 24 C -0.6472 -0.3086 -5.574 0
M  V30 25 H -1.3275 -3.1755 4.6812 0
M  V30 26 H -4.1401 -0.0394 3.7861 0
M  V30 27 H 0.4444 -1.926 3.4899 0
M  V30 28 H -2.3745 1.2164 2.6076 0
M  V30 29 H -0.9411 1.7924 -0.6506 0
M  V30 30 H -1.8699 0.663 0.2992 0
M  V30 31 H 4.0381 1.6417 2.8783 0
M  V30 32 H 1.3078 2.3196 -1.2187 0
M  V30 33 H 4.9791 2.8575 0.9447 0
M  V30 34 H 3.6284 3.2152 -1.1165 0
M  V30 35 H 0.2006 -1.8221 0.0923 0
M  V30 36 H -1.5846 -1.6985 0.1297 0
M  V30 37 H -0.7687 -2.3825 -1.2791 0
M  V30 38 H -0.8234 -1.8032 -3.3584 0
M  V30 39 H 0.8653 -1.7065 -2.8048 0
M  V30 40 H 1.2449 0.076 -4.6199 0
M  V30 41 H 1.0084 -1.5879 -5.1488 0
M  V30 42 H -0.2748 -0.0525 -6.571 0
M  V30 43 H -1.3748 -1.1192 -5.6842 0
M  V30 44 H -1.1683 0.5664 -5.1755 0
M  V30 END ATOM
M  V30 BEGIN BOND
M  V30 1 1 1 2
M  V30 2 2 2 3
M  V30 3 1 2 4
M  V30 4 1 3 5
M  V30 5 2 4 6
M  V30 6 2 5 7
M  V30 7 1 7 8
M  V30 8 1 8 9
M  V30 9 2 8 10
M  V30 10 2 9 11
M  V30 11 1 10 12
M  V30 12 1 10 13
M  V30 13 1 11 14
M  V30 14 1 12 15
M  V30 15 1 13 16
M  V30 16 2 14 17
M  V30 17 2 15 18
M  V30 18 1 16 19
M  V30 19 1 16 20
M  V30 20 2 19 21
M  V30 21 1 19 22
M  V30 22 1 22 23
M  V30 23 1 23 24
M  V30 24 1 6 7
M  V30 25 1 11 12
M  V30 26 1 17 18
M  V30 27 1 3 25
M  V30 28 1 4 26
M  V30 29 1 5 27
M  V30 30 1 6 28
M  V30 31 1 13 29
M  V30 32 1 13 30
M  V30 33 1 14 31
M  V30 34 1 15 32
M  V30 35 1 17 33
M  V30 36 1 18 34
M  V30 37 1 20 35
M  V30 38 1 20 36
M  V30 39 1 20 37
M  V30 40 1 22 38
M  V30 41 1 22 39
M  V30 42 1 23 40
M  V30 43 1 23 41
M  V30 44 1 24 42
M  V30 45 1 24 43
M  V30 46 1 24 44
M  V30 END BOND
M  V30 END CTAB
M  END
>  <NO.>
1489

>  <Name>
saripidem

>  <SMILES>
CCCC(=O)N(C)Cc1c(-c2ccc(Cl)cc2)nc2ccccn12

>  <logBB>


>  <Class>
1

>  <MW>
341.13

>  <nHBAcc>
2

>  <nHBDon>
0

>  <SLogP>
4.41

>  <TopoPSA>
37.61

>  <MMFF94 Energy>
5.8591

$$$$
CCCC(=O)O[C@]1(C(=O)CCl)[C@@H](C)C[C@H]2[C@@H]3CCC4=CC(=O)C=C[C@]4(C)[C@@]3(F)C(=O)C[C@@]21C
Actelion Java MolfileCreator 2.0

  0  0  0  0  0  0              0 V3000
M  V30 BEGIN CTAB
M  V30 COUNTS 65 68 0 0 0
M  V30 BEGIN ATOM
M  V30 1 Cl 2.688 -4.483 0.3255 0
M  V30 2 C 0.9316 -4.2299 0.3038 0
M  V30 3 C 0.529 -3.3148 1.4448 0
M  V30 4 O 0.8612 -3.5826 2.603 0
M  V30 5 C -0.2313 -1.9966 1.0847 0 CFG=2
M  V30 6 O -1.029 -2.1254 -0.1305 0
M  V30 7 C 0.7866 -0.8176 0.8117 0 CFG=2
M  V30 8 C -1.1965 -1.3832 2.1848 0 CFG=2
M  V30 9 C -1.9901 -3.0918 -0.1778 0
M  V30 10 C -0.1531 0.4114 0.9481 0 CFG=1
M  V30 11 C 1.4042 -0.7707 -0.5966 0
M  V30 12 C 1.9407 -0.811 1.8545 0
M  V30 13 C -0.8877 0.1339 2.2503 0
M  V30 14 C -1.1938 -1.9861 3.5839 0
M  V30 15 O -2.1451 -3.9436 0.6817 0
M  V30 16 C -2.7848 -2.9564 -1.4532 0
M  V30 17 C 0.5709 1.7621 0.7953 0 CFG=1
M  V30 18 C 2.1112 0.5648 -0.7959 0
M  V30 19 C -3.9041 -3.9903 -1.5366 0
M  V30 20 C 1.2281 1.8214 -0.6211 0 CFG=1
M  V30 21 C -0.4009 2.938 0.9968 0
M  V30 22 O 3.3063 0.5897 -1.0844 0
M  V30 23 C -4.7043 -3.8429 -2.8202 0
M  V30 24 F 0.1855 1.7236 -1.5237 0
M  V30 25 C 1.9451 3.1927 -0.8972 0 CFG=2
M  V30 26 C 0.2731 4.2858 0.7532 0
M  V30 27 C 0.9294 4.3171 -0.6048 0
M  V30 28 C 2.4358 3.2715 -2.3425 0
M  V30 29 C 3.1799 3.4264 0.0049 0
M  V30 30 C 0.5822 5.2591 -1.5005 0
M  V30 31 C 2.0846 4.2116 -3.23 0
M  V30 32 C 1.1455 5.288 -2.8656 0
M  V30 33 O 0.8376 6.1646 -3.6627 0
M  V30 34 H 0.6854 -3.804 -0.6692 0
M  V30 35 H 0.4276 -5.1934 0.4152 0
M  V30 36 H -2.2316 -1.4628 1.8254 0
M  V30 37 H -0.9103 0.3704 0.1489 0
M  V30 38 H 0.6558 -0.8612 -1.3913 0
M  V30 39 H 2.1282 -1.5794 -0.7383 0
M  V30 40 H 2.6182 -1.6561 1.6928 0
M  V30 41 H 2.5621 0.0868 1.7907 0
M  V30 42 H 1.5807 -0.8762 2.8845 0
M  V30 43 H -0.2713 0.3908 3.1189 0
M  V30 44 H -1.8141 0.7137 2.3266 0
M  V30 45 H -1.9302 -1.4763 4.2158 0
M  V30 46 H -0.2228 -1.8836 4.0768 0
M  V30 47 H -1.4712 -3.0444 3.5563 0
M  V30 48 H -2.0982 -3.0815 -2.2978 0
M  V30 49 H -3.2104 -1.947 -1.4847 0
M  V30 50 H 1.3435 1.8413 1.5676 0
M  V30 51 H -3.4836 -5.0018 -1.4861 0
M  V30 52 H -4.5762 -3.8843 -0.6763 0
M  V30 53 H -0.7986 2.9263 2.0183 0
M  V30 54 H -1.2607 2.8328 0.3222 0
M  V30 55 H -5.5001 -4.5934 -2.8592 0
M  V30 56 H -5.1677 -2.853 -2.8823 0
M  V30 57 H -4.0653 -3.9793 -3.6985 0
M  V30 58 H -0.4783 5.0789 0.8512 0
M  V30 59 H 1.0218 4.4774 1.5304 0
M  V30 60 H 3.1479 2.5148 -2.6692 0
M  V30 61 H 4.0129 2.7617 -0.2455 0
M  V30 62 H 3.5583 4.4514 -0.1039 0
M  V30 63 H 2.9614 3.2791 1.0668 0
M  V30 64 H -0.1411 6.038 -1.2861 0
M  V30 65 H 2.4732 4.2318 -4.2409 0
M  V30 END ATOM
M  V30 BEGIN BOND
M  V30 1 1 1 2
M  V30 2 1 2 3
M  V30 3 2 3 4
M  V30 4 1 3 5
M  V30 5 1 5 6
M  V30 6 1 5 7
M  V30 7 1 5 8
M  V30 8 1 6 9
M  V30 9 1 7 10
M  V30 10 1 7 11
M  V30 11 1 7 12
M  V30 12 1 8 13
M  V30 13 1 8 14
M  V30 14 2 9 15
M  V30 15 1 9 16
M  V30 16 1 10 17
M  V30 17 1 11 18
M  V30 18 1 16 19
M  V30 19 1 17 20
M  V30 20 1 17 21
M  V30 21 2 18 22
M  V30 22 1 19 23
M  V30 23 1 20 24
M  V30 24 1 20 25
M  V30 25 1 21 26
M  V30 26 1 25 27
M  V30 27 1 25 28
M  V30 28 1 25 29
M  V30 29 2 27 30
M  V30 30 2 28 31
M  V30 31 1 30 32
M  V30 32 2 32 33
M  V30 33 1 10 13
M  V30 34 1 18 20
M  V30 35 1 26 27
M  V30 36 1 31 32
M  V30 37 1 2 34
M  V30 38 1 2 35
M  V30 39 1 8 36
M  V30 40 1 10 37
M  V30 41 1 11 38
M  V30 42 1 11 39
M  V30 43 1 12 40
M  V30 44 1 12 41
M  V30 45 1 12 42
M  V30 46 1 13 43
M  V30 47 1 13 44
M  V30 48 1 14 45
M  V30 49 1 14 46
M  V30 50 1 14 47
M  V30 51 1 16 48
M  V30 52 1 16 49
M  V30 53 1 17 50
M  V30 54 1 19 51
M  V30 55 1 19 52
M  V30 56 1 21 53
M  V30 57 1 21 54
M  V30 58 1 23 55
M  V30 59 1 23 56
M  V30 60 1 23 57
M  V30 61 1 26 58
M  V30 62 1 26 59
M  V30 63 1 28 60
M  V30 64 1 29 61
M  V30 65 1 29 62
M  V30 66 1 29 63
M  V30 67 1 30 64
M  V30 68 1 31 65
M  V30 END BOND
M  V30 BEGIN COLLECTION
M  V30 MDLV30/STEABS ATOMS=(7 5 7 8 10 17 20 25)
M  V30 END COLLECTION
M  V30 END CTAB
M  END
>  <NO.>
1490

>  <Name>
clobetasone butyrate

>  <SMILES>
CCCC(=O)O[C@]1(C(=O)CCl)[C@@H](C)C[C@H]2[C@@H]3CCC4=CC(=O)C=C[C@]4(C)[C@@]3(F)C(=O)C[C@@]21C

>  <logBB>


>  <Class>
1

>  <MW>
478.19

>  <nHBAcc>
5

>  <nHBDon>
0

>  <SLogP>
4.7

>  <TopoPSA>
77.51

>  <MMFF94 Energy>
132.96

$$$$
CCCC(=O)O[C@]1(C(=O)CO)CC[C@H]2[C@@H]3CCC4=CC(=O)CC[C@]4(C)[C@H]3[C@@H](O)C[C@@]21C
Actelion Java MolfileCreator 2.0

  0  0  0  0  0  0              0 V3000
M  V30 BEGIN CTAB
M  V30 COUNTS 67 70 0 0 0
M  V30 BEGIN ATOM
M  V30 1 O -2.1684 -2.0077 5.7905 0
M  V30 2 C -1.5909 -2.1827 4.721 0
M  V30 3 C -2.3439 -2.7116 3.5596 0
M  V30 4 C -0.1579 -1.7708 4.4984 0
M  V30 5 C -1.7288 -2.9723 2.3927 0
M  V30 6 C 0.5124 -2.746 3.5467 0
M  V30 7 C -0.2107 -2.8859 2.1765 0 CFG=2
M  V30 8 C -2.5388 -3.2268 1.1467 0
M  V30 9 C 8.0E-4 -1.6453 1.2285 0 CFG=1
M  V30 10 C 0.3025 -4.2188 1.574 0
M  V30 11 C -2.31 -2.0771 0.1651 0
M  V30 12 C 1.4762 -1.23 0.9703 0 CFG=1
M  V30 13 C -0.8159 -1.7942 -0.1065 0 CFG=1
M  V30 14 O 2.2357 -2.3249 0.4846 0
M  V30 15 C 1.614 -0.0314 0.0047 0
M  V30 16 C -0.6469 -0.5072 -0.9275 0 CFG=1
M  V30 17 C 0.8197 -0.1974 -1.3111 0 CFG=1
M  V30 18 C -1.3911 -0.3858 -2.2504 0
M  V30 19 C 0.6044 1.1151 -2.1626 0 CFG=1
M  V30 20 C 1.4629 -1.3098 -2.1864 0
M  V30 21 C -0.6728 0.7593 -2.9918 0
M  V30 22 O 0.2744 2.1856 -1.2425 0
M  V30 23 C 1.8345 1.4222 -3.0573 0
M  V30 24 C 0.0316 3.4284 -1.7449 0
M  V30 25 O 1.9507 0.9894 -4.2092 0
M  V30 26 C 2.9671 2.2392 -2.4465 0
M  V30 27 O 0.1682 3.7384 -2.9171 0
M  V30 28 C -0.3994 4.3484 -0.6286 0
M  V30 29 O 4.2208 1.8556 -2.9935 0
M  V30 30 C -0.7153 5.7518 -1.1384 0
M  V30 31 C -1.1534 6.6696 -0.0089 0
M  V30 32 H -3.4194 -2.7661 3.6873 0
M  V30 33 H 0.3626 -1.7898 5.4621 0
M  V30 34 H -0.1365 -0.7455 4.1164 0
M  V30 35 H 1.5642 -2.4719 3.4151 0
M  V30 36 H 0.5288 -3.7276 4.0442 0
M  V30 37 H -2.2622 -4.1845 0.6937 0
M  V30 38 H -3.6102 -3.2948 1.3718 0
M  V30 39 H -0.4417 -0.7789 1.747 0
M  V30 40 H -0.1003 -5.0768 2.1274 0
M  V30 41 H 0.0241 -4.358 0.5265 0
M  V30 42 H 1.3928 -4.297 1.6347 0
M  V30 43 H -2.7864 -1.1705 0.5628 0
M  V30 44 H -2.8223 -2.3109 -0.7757 0
M  V30 45 H 1.9316 -0.9304 1.9207 0
M  V30 46 H -0.4301 -2.6411 -0.6814 0
M  V30 47 H 3.1626 -2.0396 0.4011 0
M  V30 48 H 2.6739 0.1259 -0.2261 0
M  V30 49 H 1.2702 0.8613 0.5411 0
M  V30 50 H -1.0238 0.309 -0.2898 0
M  V30 51 H -2.4514 -0.1549 -2.1032 0
M  V30 52 H -1.3338 -1.3129 -2.8316 0
M  V30 53 H 2.5327 -1.1186 -2.329 0
M  V30 54 H 1.0117 -1.376 -3.1814 0
M  V30 55 H 1.3749 -2.3067 -1.7512 0
M  V30 56 H -0.4394 0.4308 -4.01 0
M  V30 57 H -1.3568 1.6098 -3.0806 0
M  V30 58 H 2.8044 3.2987 -2.6582 0
M  V30 59 H 3.014 2.0916 -1.3669 0
M  V30 60 H 0.4103 4.3939 0.1081 0
M  V30 61 H -1.2892 3.9177 -0.1556 0
M  V30 62 H 4.0645 1.7286 -3.9515 0
M  V30 63 H 0.167 6.1786 -1.63 0
M  V30 64 H -1.5073 5.7053 -1.8954 0
M  V30 65 H -1.3741 7.6691 -0.3965 0
M  V30 66 H -2.0558 6.2878 0.4792 0
M  V30 67 H -0.3672 6.7643 0.7468 0
M  V30 END ATOM
M  V30 BEGIN BOND
M  V30 1 2 1 2
M  V30 2 1 2 3
M  V30 3 1 2 4
M  V30 4 2 3 5
M  V30 5 1 4 6
M  V30 6 1 5 7
M  V30 7 1 5 8
M  V30 8 1 7 9
M  V30 9 1 7 10
M  V30 10 1 8 11
M  V30 11 1 9 12
M  V30 12 1 9 13
M  V30 13 1 12 14
M  V30 14 1 12 15
M  V30 15 1 13 16
M  V30 16 1 15 17
M  V30 17 1 16 18
M  V30 18 1 17 19
M  V30 19 1 17 20
M  V30 20 1 18 21
M  V30 21 1 19 22
M  V30 22 1 19 23
M  V30 23 1 22 24
M  V30 24 2 23 25
M  V30 25 1 23 26
M  V30 26 2 24 27
M  V30 27 1 24 28
M  V30 28 1 26 29
M  V30 29 1 28 30
M  V30 30 1 30 31
M  V30 31 1 6 7
M  V30 32 1 11 13
M  V30 33 1 16 17
M  V30 34 1 19 21
M  V30 35 1 3 32
M  V30 36 1 4 33
M  V30 37 1 4 34
M  V30 38 1 6 35
M  V30 39 1 6 36
M  V30 40 1 8 37
M  V30 41 1 8 38
M  V30 42 1 9 39
M  V30 43 1 10 40
M  V30 44 1 10 41
M  V30 45 1 10 42
M  V30 46 1 11 43
M  V30 47 1 11 44
M  V30 48 1 12 45
M  V30 49 1 13 46
M  V30 50 1 14 47
M  V30 51 1 15 48
M  V30 52 1 15 49
M  V30 53 1 16 50
M  V30 54 1 18 51
M  V30 55 1 18 52
M  V30 56 1 20 53
M  V30 57 1 20 54
M  V30 58 1 20 55
M  V30 59 1 21 56
M  V30 60 1 21 57
M  V30 61 1 26 58
M  V30 62 1 26 59
M  V30 63 1 28 60
M  V30 64 1 28 61
M  V30 65 1 29 62
M  V30 66 1 30 63
M  V30 67 1 30 64
M  V30 68 1 31 65
M  V30 69 1 31 66
M  V30 70 1 31 67
M  V30 END BOND
M  V30 BEGIN COLLECTION
M  V30 MDLV30/STEABS ATOMS=(7 7 9 12 13 16 17 19)
M  V30 END COLLECTION
M  V30 END CTAB
M  END
>  <NO.>
1491

>  <Name>
hydrocortisone-butyrate

>  <SMILES>
CCCC(=O)O[C@]1(C(=O)CO)CC[C@H]2[C@@H]3CCC4=CC(=O)CC[C@]4(C)[C@H]3[C@@H](O)C[C@@]21C

>  <logBB>


>  <Class>
1

>  <MW>
432.25

>  <nHBAcc>
6

>  <nHBDon>
2

>  <SLogP>
3.13

>  <TopoPSA>
100.9

>  <MMFF94 Energy>
106.42

$$$$
CCCC(=O)O[C@]1(C(=O)COC(=O)CC)CC[C@H]2[C@@H]3CCC4=CC(=O)CC[C@]4(C)[C@H]3[C@@H](O)C[C@@]21C
Actelion Java MolfileCreator 2.0

  0  0  0  0  0  0              0 V3000
M  V30 BEGIN CTAB
M  V30 COUNTS 75 78 0 0 0
M  V30 BEGIN ATOM
M  V30 1 O -0.8815 2.1649 6.5056 0
M  V30 2 C -1.2311 1.5769 5.4859 0
M  V30 3 C -2.2125 2.2122 4.5749 0
M  V30 4 C -0.616 0.2711 5.0515 0
M  V30 5 C -2.6688 1.5693 3.4857 0
M  V30 6 C -1.6658 -0.584 4.3633 0
M  V30 7 C -2.3434 0.1083 3.1462 0 CFG=2
M  V30 8 C -3.4303 2.3209 2.4235 0
M  V30 9 C -1.4182 0.1774 1.8735 0 CFG=1
M  V30 10 C -3.6632 -0.6685 2.9107 0
M  V30 11 C -2.5904 2.3579 1.1467 0
M  V30 12 C -0.7953 -1.166 1.4009 0 CFG=1
M  V30 13 C -2.0963 0.9652 0.695 0 CFG=1
M  V30 14 O -1.7485 -2.201 1.2218 0
M  V30 15 C 0.0712 -1.0398 0.1279 0
M  V30 16 C -1.0756 1.0986 -0.4464 0 CFG=1
M  V30 17 C -0.5921 -0.2525 -1.0253 0 CFG=1
M  V30 18 C -1.4651 1.8925 -1.6852 0
M  V30 19 C 0.3824 0.2725 -2.1564 0 CFG=1
M  V30 20 C -1.7405 -1.0868 -1.6571 0
M  V30 21 C -0.4285 1.475 -2.7474 0
M  V30 22 O 1.5675 0.7892 -1.5027 0
M  V30 23 C 0.6841 -0.8289 -3.2131 0
M  V30 24 C 2.5477 1.3452 -2.264 0
M  V30 25 O -0.023 -0.9782 -4.2141 0
M  V30 26 C 1.8578 -1.7594 -2.9249 0
M  V30 27 O 2.5573 1.3583 -3.4847 0
M  V30 28 C 3.6354 1.9169 -1.3937 0
M  V30 29 O 1.6818 -3.0087 -3.5928 0
M  V30 30 C 3.1333 3.1218 -0.6069 0
M  V30 31 C 2.6903 -3.8948 -3.3711 0
M  V30 32 C 4.2416 3.7441 0.2256 0
M  V30 33 O 3.654 -3.684 -2.6484 0
M  V30 34 C 2.4272 -5.1641 -4.1439 0
M  V30 35 C 3.526 -6.1922 -3.9412 0
M  V30 36 H -2.4437 3.2494 4.7914 0
M  V30 37 H 0.2363 0.4783 4.3974 0
M  V30 38 H -0.2483 -0.2526 5.9406 0
M  V30 39 H -2.4352 -0.8216 5.1136 0
M  V30 40 H -1.2311 -1.5482 4.0802 0
M  V30 41 H -3.6469 3.3495 2.7371 0
M  V30 42 H -4.4009 1.8502 2.2356 0
M  V30 43 H -0.5479 0.7896 2.1629 0
M  V30 44 H -4.386 -0.4612 3.7103 0
M  V30 45 H -3.5012 -1.7513 2.9149 0
M  V30 46 H -4.1523 -0.4148 1.9667 0
M  V30 47 H -3.1841 2.8188 0.3482 0
M  V30 48 H -1.726 3.0155 1.3112 0
M  V30 49 H -0.1228 -1.5273 2.187 0
M  V30 50 H -2.9719 0.4145 0.3388 0
M  V30 51 H -2.5592 -1.8346 0.8369 0
M  V30 52 H 0.3428 -2.0429 -0.221 0
M  V30 53 H 1.0041 -0.5451 0.4241 0
M  V30 54 H -0.2092 1.6232 -0.0115 0
M  V30 55 H -2.4785 1.6447 -2.0203 0
M  V30 56 H -1.4319 2.9724 -1.5072 0
M  V30 57 H -1.3947 -2.0971 -1.9035 0
M  V30 58 H -2.1222 -0.6434 -2.5823 0
M  V30 59 H -2.6082 -1.1936 -1.0074 0
M  V30 60 H -0.9537 1.2194 -3.6735 0
M  V30 61 H 0.2119 2.334 -2.9724 0
M  V30 62 H 2.772 -1.2794 -3.287 0
M  V30 63 H 1.922 -1.934 -1.848 0
M  V30 64 H 4.47 2.2062 -2.0428 0
M  V30 65 H 4.0044 1.1269 -0.73 0
M  V30 66 H 2.7275 3.8734 -1.2946 0
M  V30 67 H 2.31 2.8259 0.0542 0
M  V30 68 H 3.8593 4.6051 0.7829 0
M  V30 69 H 4.6422 3.0238 0.9459 0
M  V30 70 H 5.0635 4.0888 -0.4098 0
M  V30 71 H 2.3561 -4.9139 -5.2076 0
M  V30 72 H 1.4722 -5.5822 -3.8088 0
M  V30 73 H 3.3094 -7.0996 -4.513 0
M  V30 74 H 3.6178 -6.4665 -2.885 0
M  V30 75 H 4.4948 -5.8024 -4.2709 0
M  V30 END ATOM
M  V30 BEGIN BOND
M  V30 1 2 1 2
M  V30 2 1 2 3
M  V30 3 1 2 4
M  V30 4 2 3 5
M  V30 5 1 4 6
M  V30 6 1 5 7
M  V30 7 1 5 8
M  V30 8 1 7 9
M  V30 9 1 7 10
M  V30 10 1 8 11
M  V30 11 1 9 12
M  V30 12 1 9 13
M  V30 13 1 12 14
M  V30 14 1 12 15
M  V30 15 1 13 16
M  V30 16 1 15 17
M  V30 17 1 16 18
M  V30 18 1 17 19
M  V30 19 1 17 20
M  V30 20 1 18 21
M  V30 21 1 19 22
M  V30 22 1 19 23
M  V30 23 1 22 24
M  V30 24 2 23 25
M  V30 25 1 23 26
M  V30 26 2 24 27
M  V30 27 1 24 28
M  V30 28 1 26 29
M  V30 29 1 28 30
M  V30 30 1 29 31
M  V30 31 1 30 32
M  V30 32 2 31 33
M  V30 33 1 31 34
M  V30 34 1 34 35
M  V30 35 1 6 7
M  V30 36 1 11 13
M  V30 37 1 16 17
M  V30 38 1 19 21
M  V30 39 1 3 36
M  V30 40 1 4 37
M  V30 41 1 4 38
M  V30 42 1 6 39
M  V30 43 1 6 40
M  V30 44 1 8 41
M  V30 45 1 8 42
M  V30 46 1 9 43
M  V30 47 1 10 44
M  V30 48 1 10 45
M  V30 49 1 10 46
M  V30 50 1 11 47
M  V30 51 1 11 48
M  V30 52 1 12 49
M  V30 53 1 13 50
M  V30 54 1 14 51
M  V30 55 1 15 52
M  V30 56 1 15 53
M  V30 57 1 16 54
M  V30 58 1 18 55
M  V30 59 1 18 56
M  V30 60 1 20 57
M  V30 61 1 20 58
M  V30 62 1 20 59
M  V30 63 1 21 60
M  V30 64 1 21 61
M  V30 65 1 26 62
M  V30 66 1 26 63
M  V30 67 1 28 64
M  V30 68 1 28 65
M  V30 69 1 30 66
M  V30 70 1 30 67
M  V30 71 1 32 68
M  V30 72 1 32 69
M  V30 73 1 32 70
M  V30 74 1 34 71
M  V30 75 1 34 72
M  V30 76 1 35 73
M  V30 77 1 35 74
M  V30 78 1 35 75
M  V30 END BOND
M  V30 BEGIN COLLECTION
M  V30 MDLV30/STEABS ATOMS=(7 7 9 12 13 16 17 19)
M  V30 END COLLECTION
M  V30 END CTAB
M  END
>  <NO.>
1492

>  <Name>
hydrocortisone-buteprate

>  <SMILES>
CCCC(=O)O[C@]1(C(=O)COC(=O)CC)CC[C@H]2[C@@H]3CCC4=CC(=O)CC[C@]4(C)[C@H]3[C@@H](O)C[C@@]21C

>  <logBB>


>  <Class>
1

>  <MW>
488.28

>  <nHBAcc>
7

>  <nHBDon>
1

>  <SLogP>
4.09

>  <TopoPSA>
106.97

>  <MMFF94 Energy>
88.688

$$$$
CCCC(=O)O[C@]1(C(=O)COC(C)=O)CC[C@H]2[C@@H]3C[C@H](F)C4=CC(=O)C=C[C@]4(C)[C@@]3(F)[C@@H](O)C[C@@]21C
Actelion Java MolfileCreator 2.0

  0  0  0  0  0  0              0 V3000
M  V30 BEGIN CTAB
M  V30 COUNTS 70 73 0 0 0
M  V30 BEGIN ATOM
M  V30 1 F 1.2123 2.264 0.4848 0
M  V30 2 C 0.2445 2.5843 -0.4548 0 CFG=2
M  V30 3 C 0.3945 4.1383 -0.7293 0 CFG=2
M  V30 4 C -1.1016 2.1399 0.1957 0 CFG=1
M  V30 5 C 0.5896 1.7307 -1.7195 0 CFG=2
M  V30 6 C 1.8017 4.3807 -1.3036 0
M  V30 7 C 0.1885 4.9386 0.5569 0
M  V30 8 C -0.6316 4.6972 -1.7423 0
M  V30 9 O -2.2321 2.5804 -0.5475 0
M  V30 10 C -1.1975 0.6113 0.412 0
M  V30 11 C 0.5158 0.2404 -1.3516 0 CFG=1
M  V30 12 C 1.9876 2.0842 -2.2557 0
M  V30 13 C 2.7036 5.2094 -0.7463 0
M  V30 14 C 2.1469 3.5738 -2.5281 0 CFG=2
M  V30 15 C 1.0911 5.7613 1.1073 0
M  V30 16 C -0.8776 -0.2148 -0.8552 0 CFG=1
M  V30 17 C 0.8619 -0.7864 -2.4199 0
M  V30 18 C 2.4133 5.9656 0.487 0
M  V30 19 F 3.4357 3.7869 -2.9192 0
M  V30 20 C -0.5997 -1.7526 -0.636 0 CFG=1
M  V30 21 C -1.9925 -0.0235 -1.9214 0
M  V30 22 C 0.278 -2.1068 -1.8823 0
M  V30 23 O 3.2321 6.7324 0.9767 0
M  V30 24 O 0.2025 -1.8949 0.5608 0
M  V30 25 C -1.9119 -2.579 -0.5578 0
M  V30 26 C 0.5751 -3.1518 0.9444 0
M  V30 27 O -2.3121 -3.2681 -1.5004 0
M  V30 28 C -2.7499 -2.4368 0.7092 0
M  V30 29 O 0.2615 -4.1759 0.3583 0
M  V30 30 C 1.4252 -3.0662 2.1889 0
M  V30 31 O -3.3285 -3.6873 1.0814 0
M  V30 32 C 1.8494 -4.4463 2.6831 0
M  V30 33 C -2.694 -4.3461 2.0868 0
M  V30 34 C 2.6945 -4.3514 3.9426 0
M  V30 35 O -1.7709 -3.8987 2.7537 0
M  V30 36 C -3.3045 -5.6991 2.2833 0
M  V30 37 H -1.1771 2.5984 1.1885 0
M  V30 38 H -0.1288 1.9452 -2.5167 0
M  V30 39 H -0.7781 4.8538 1.0486 0
M  V30 40 H -0.3469 5.7032 -2.0783 0
M  V30 41 H -0.7221 4.0762 -2.6381 0
M  V30 42 H -1.6332 4.7957 -1.31 0
M  V30 43 H -3.0299 2.3967 -0.0192 0
M  V30 44 H -2.2027 0.3611 0.7699 0
M  V30 45 H -0.5009 0.3487 1.2173 0
M  V30 46 H 1.2444 0.0885 -0.539 0
M  V30 47 H 2.7621 1.7604 -1.5475 0
M  V30 48 H 2.1897 1.5386 -3.1852 0
M  V30 49 H 3.6968 5.3549 -1.1582 0
M  V30 50 H 1.5142 3.8776 -3.3683 0
M  V30 51 H 0.8961 6.3192 2.0152 0
M  V30 52 H 1.9427 -0.869 -2.5744 0
M  V30 53 H 0.4098 -0.5319 -3.385 0
M  V30 54 H -2.0196 0.9838 -2.3405 0
M  V30 55 H -2.9805 -0.2146 -1.4877 0
M  V30 56 H -1.8807 -0.7024 -2.7728 0
M  V30 57 H -0.2942 -2.5888 -2.6818 0
M  V30 58 H 1.1029 -2.7802 -1.6285 0
M  V30 59 H -2.1699 -1.9868 1.5195 0
M  V30 60 H -3.5697 -1.7466 0.4849 0
M  V30 61 H 0.8449 -2.556 2.9658 0
M  V30 62 H 2.3121 -2.4667 1.9551 0
M  V30 63 H 0.9642 -5.0605 2.8869 0
M  V30 64 H 2.4195 -4.9638 1.9024 0
M  V30 65 H 2.9882 -5.3507 4.2783 0
M  V30 66 H 3.6056 -3.7725 3.761 0
M  V30 67 H 2.1375 -3.8708 4.7533 0
M  V30 68 H -4.3433 -5.5936 2.6054 0
M  V30 69 H -3.2452 -6.271 1.3539 0
M  V30 70 H -2.7492 -6.2379 3.0563 0
M  V30 END ATOM
M  V30 BEGIN BOND
M  V30 1 1 1 2
M  V30 2 1 2 3
M  V30 3 1 2 4
M  V30 4 1 2 5
M  V30 5 1 3 6
M  V30 6 1 3 7
M  V30 7 1 3 8
M  V30 8 1 4 9
M  V30 9 1 4 10
M  V30 10 1 5 11
M  V30 11 1 5 12
M  V30 12 2 6 13
M  V30 13 1 6 14
M  V30 14 2 7 15
M  V30 15 1 10 16
M  V30 16 1 11 17
M  V30 17 1 13 18
M  V30 18 1 14 19
M  V30 19 1 16 20
M  V30 20 1 16 21
M  V30 21 1 17 22
M  V30 22 2 18 23
M  V30 23 1 20 24
M  V30 24 1 20 25
M  V30 25 1 24 26
M  V30 26 2 25 27
M  V30 27 1 25 28
M  V30 28 2 26 29
M  V30 29 1 26 30
M  V30 30 1 28 31
M  V30 31 1 30 32
M  V30 32 1 31 33
M  V30 33 1 32 34
M  V30 34 2 33 35
M  V30 35 1 33 36
M  V30 36 1 11 16
M  V30 37 1 12 14
M  V30 38 1 15 18
M  V30 39 1 20 22
M  V30 40 1 4 37
M  V30 41 1 5 38
M  V30 42 1 7 39
M  V30 43 1 8 40
M  V30 44 1 8 41
M  V30 45 1 8 42
M  V30 46 1 9 43
M  V30 47 1 10 44
M  V30 48 1 10 45
M  V30 49 1 11 46
M  V30 50 1 12 47
M  V30 51 1 12 48
M  V30 52 1 13 49
M  V30 53 1 14 50
M  V30 54 1 15 51
M  V30 55 1 17 52
M  V30 56 1 17 53
M  V30 57 1 21 54
M  V30 58 1 21 55
M  V30 59 1 21 56
M  V30 60 1 22 57
M  V30 61 1 22 58
M  V30 62 1 28 59
M  V30 63 1 28 60
M  V30 64 1 30 61
M  V30 65 1 30 62
M  V30 66 1 32 63
M  V30 67 1 32 64
M  V30 68 1 34 65
M  V30 69 1 34 66
M  V30 70 1 34 67
M  V30 71 1 36 68
M  V30 72 1 36 69
M  V30 73 1 36 70
M  V30 END BOND
M  V30 BEGIN COLLECTION
M  V30 MDLV30/STEABS ATOMS=(8 2 3 4 5 11 14 16 20)
M  V30 END COLLECTION
M  V30 END CTAB
M  END
>  <NO.>
1494

>  <Name>
difluprednate

>  <SMILES>
CCCC(=O)O[C@]1(C(=O)COC(C)=O)CC[C@H]2[C@@H]3C[C@H](F)C4=CC(=O)C=C[C@]4(C)[C@@]3(F)[C@@H](O)C[C@@]21C

>  <logBB>


>  <Class>
1

>  <MW>
508.23

>  <nHBAcc>
7

>  <nHBDon>
1

>  <SLogP>
3.52

>  <TopoPSA>
106.97

>  <MMFF94 Energy>
118.48

$$$$
CCCC(=O)O[C@]1(C(=O)COC(C)=O)[C@H](C)C[C@H]2[C@@H]3CCC4=CC(=O)C=C[C@]4(C)[C@@]3(Cl)[C@@H](O)C[C@@]21C
Actelion Java MolfileCreator 2.0

  0  0  0  0  0  0              0 V3000
M  V30 BEGIN CTAB
M  V30 COUNTS 73 76 0 0 0
M  V30 BEGIN ATOM
M  V30 1 Cl -1.1335 -0.8095 -2.6733 0
M  V30 2 C 0.6501 -1.2181 -2.3139 0 CFG=2
M  V30 3 C 1.2381 -1.9546 -3.6061 0 CFG=2
M  V30 4 C 0.602 -2.0868 -1.0074 0 CFG=1
M  V30 5 C 1.4218 0.1337 -2.0534 0 CFG=2
M  V30 6 C 1.2231 -0.9526 -4.7794 0
M  V30 7 C 0.4419 -3.2154 -3.9492 0
M  V30 8 C 2.7024 -2.4392 -3.4529 0
M  V30 9 O 1.8504 -2.7201 -0.7404 0
M  V30 10 C 0.1764 -1.3025 0.2623 0
M  V30 11 C 0.8726 0.8426 -0.8016 0 CFG=1
M  V30 12 C 1.4106 1.0596 -3.2864 0
M  V30 13 C 0.5971 -1.1868 -5.9469 0
M  V30 14 C 1.9289 0.3594 -4.5409 0
M  V30 15 C -0.1766 -3.4399 -5.1163 0
M  V30 16 C 0.9855 2.0E-4 0.4957 0 CFG=1
M  V30 17 C 1.4609 2.1923 -0.4114 0
M  V30 18 C -0.1374 -2.4429 -6.2032 0
M  V30 19 C 0.3742 1.0289 1.5395 0 CFG=1
M  V30 20 C 2.456 -0.3411 0.8707 0
M  V30 21 C 1.0721 2.3755 1.0792 0 CFG=2
M  V30 22 O -0.6897 -2.65 -7.2762 0
M  V30 23 O -1.0458 1.0913 1.2591 0
M  V30 24 C 0.7599 0.6568 3.0088 0
M  V30 25 C 0.267 3.6552 1.2823 0
M  V30 26 C -1.9188 1.6156 2.1606 0
M  V30 27 O 1.6122 1.2922 3.637 0
M  V30 28 C 0.1059 -0.5852 3.6074 0
M  V30 29 O -1.6244 1.9799 3.2866 0
M  V30 30 C -3.3021 1.6466 1.5561 0
M  V30 31 O 0.1594 -0.5559 5.0326 0
M  V30 32 C -4.3219 2.2751 2.5017 0
M  V30 33 C -0.3994 -1.6439 5.6215 0
M  V30 34 C -5.7092 2.3092 1.8821 0
M  V30 35 O -0.8935 -2.5898 5.0231 0
M  V30 36 C -0.3219 -1.5246 7.1121 0
M  V30 37 H -0.1179 -2.9028 -1.1463 0
M  V30 38 H 2.4748 -0.099 -1.8663 0
M  V30 39 H 0.3952 -3.9954 -3.1924 0
M  V30 40 H 3.1344 -2.7027 -4.428 0
M  V30 41 H 2.7833 -3.3427 -2.8392 0
M  V30 42 H 3.3586 -1.6837 -3.0124 0
M  V30 43 H 1.7166 -3.3584 -0.0161 0
M  V30 44 H 0.283 -1.9606 1.1308 0
M  V30 45 H -0.8925 -1.0754 0.1831 0
M  V30 46 H -0.1884 1.049 -0.9991 0
M  V30 47 H 2.0432 1.9357 -3.0993 0
M  V30 48 H 0.4011 1.4473 -3.4699 0
M  V30 49 H 0.5836 -0.4711 -6.7611 0
M  V30 50 H 1.8094 1.0361 -5.3959 0
M  V30 51 H 3.0063 0.18 -4.4452 0
M  V30 52 H -0.7226 -4.3527 -5.3212 0
M  V30 53 H 2.5522 2.1922 -0.5174 0
M  V30 54 H 1.0725 2.995 -1.0477 0
M  V30 55 H 2.4901 -1.0531 1.7024 0
M  V30 56 H 3.0174 -0.7885 0.049 0
M  V30 57 H 3.0306 0.5368 1.1802 0
M  V30 58 H 2.0127 2.5165 1.6264 0
M  V30 59 H 0.8501 4.5249 0.9592 0
M  V30 60 H -0.6603 3.6525 0.7013 0
M  V30 61 H 0.0246 3.8023 2.3387 0
M  V30 62 H -0.9362 -0.6488 3.2836 0
M  V30 63 H 0.665 -1.4552 3.2512 0
M  V30 64 H -3.5954 0.6171 1.3227 0
M  V30 65 H -3.2556 2.2246 0.6263 0
M  V30 66 H -4.3589 1.7106 3.4412 0
M  V30 67 H -4.0145 3.2961 2.7584 0
M  V30 68 H -6.4236 2.7627 2.5764 0
M  V30 69 H -5.7123 2.8977 0.9591 0
M  V30 70 H -6.0587 1.2988 1.647 0
M  V30 71 H 0.7236 -1.4767 7.4262 0
M  V30 72 H -0.8643 -0.6349 7.4416 0
M  V30 73 H -0.7842 -2.4036 7.5704 0
M  V30 END ATOM
M  V30 BEGIN BOND
M  V30 1 1 1 2
M  V30 2 1 2 3
M  V30 3 1 2 4
M  V30 4 1 2 5
M  V30 5 1 3 6
M  V30 6 1 3 7
M  V30 7 1 3 8
M  V30 8 1 4 9
M  V30 9 1 4 10
M  V30 10 1 5 11
M  V30 11 1 5 12
M  V30 12 2 6 13
M  V30 13 1 6 14
M  V30 14 2 7 15
M  V30 15 1 10 16
M  V30 16 1 11 17
M  V30 17 1 13 18
M  V30 18 1 16 19
M  V30 19 1 16 20
M  V30 20 1 17 21
M  V30 21 2 18 22
M  V30 22 1 19 23
M  V30 23 1 19 24
M  V30 24 1 21 25
M  V30 25 1 23 26
M  V30 26 2 24 27
M  V30 27 1 24 28
M  V30 28 2 26 29
M  V30 29 1 26 30
M  V30 30 1 28 31
M  V30 31 1 30 32
M  V30 32 1 31 33
M  V30 33 1 32 34
M  V30 34 2 33 35
M  V30 35 1 33 36
M  V30 36 1 11 16
M  V30 37 1 12 14
M  V30 38 1 15 18
M  V30 39 1 19 21
M  V30 40 1 4 37
M  V30 41 1 5 38
M  V30 42 1 7 39
M  V30 43 1 8 40
M  V30 44 1 8 41
M  V30 45 1 8 42
M  V30 46 1 9 43
M  V30 47 1 10 44
M  V30 48 1 10 45
M  V30 49 1 11 46
M  V30 50 1 12 47
M  V30 51 1 12 48
M  V30 52 1 13 49
M  V30 53 1 14 50
M  V30 54 1 14 51
M  V30 55 1 15 52
M  V30 56 1 17 53
M  V30 57 1 17 54
M  V30 58 1 20 55
M  V30 59 1 20 56
M  V30 60 1 20 57
M  V30 61 1 21 58
M  V30 62 1 25 59
M  V30 63 1 25 60
M  V30 64 1 25 61
M  V30 65 1 28 62
M  V30 66 1 28 63
M  V30 67 1 30 64
M  V30 68 1 30 65
M  V30 69 1 32 66
M  V30 70 1 32 67
M  V30 71 1 34 68
M  V30 72 1 34 69
M  V30 73 1 34 70
M  V30 74 1 36 71
M  V30 75 1 36 72
M  V30 76 1 36 73
M  V30 END BOND
M  V30 BEGIN COLLECTION
M  V30 MDLV30/STEABS ATOMS=(8 2 3 4 5 11 16 19 21)
M  V30 END COLLECTION
M  V30 END CTAB
M  END
>  <NO.>
1495

>  <Name>
icometasone-enbutate

>  <SMILES>
CCCC(=O)O[C@]1(C(=O)COC(C)=O)[C@H](C)C[C@H]2[C@@H]3CCC4=CC(=O)C=C[C@]4(C)[C@@]3(Cl)[C@@H](O)C[C@@]21C

>  <logBB>


>  <Class>
1

>  <MW>
520.22

>  <nHBAcc>
7

>  <nHBDon>
1

>  <SLogP>
4.09

>  <TopoPSA>
106.97

>  <MMFF94 Energy>
133.16

$$$$
CCCC(=O)O[C@]1(C(C)=O)CCC[C@H]2[C@@H]3CCC4=CC(=O)C=C[C@]4(C)[C@H]3[C@@H](O)C[C@@]21C
Actelion Java MolfileCreator 2.0

  0  0  0  0  0  0              0 V3000
M  V30 BEGIN CTAB
M  V30 COUNTS 67 70 0 0 0
M  V30 BEGIN ATOM
M  V30 1 O 1.4452 -4.1795 5.2264 0
M  V30 2 C 1.7609 -3.574 4.2102 0
M  V30 3 C 1.4882 -4.1265 2.8686 0
M  V30 4 C 2.4226 -2.2581 4.2758 0
M  V30 5 C 1.8192 -3.4609 1.7481 0
M  V30 6 C 2.753 -1.5968 3.1587 0
M  V30 7 C 2.5051 -2.0903 1.735 0 CFG=2
M  V30 8 C 1.4765 -4.0211 0.397 0
M  V30 9 C 1.5441 -1.0974 0.969 0 CFG=1
M  V30 10 C 3.8988 -2.2506 1.0871 0
M  V30 11 C 0.5615 -3.0605 -0.3506 0
M  V30 12 C 2.0491 0.361 0.8902 0 CFG=1
M  V30 13 C 1.1159 -1.6191 -0.445 0 CFG=1
M  V30 14 O 3.3051 0.4389 0.2347 0
M  V30 15 C 1.0419 1.2886 0.1993 0
M  V30 16 C 0.0586 -0.6532 -1.0825 0 CFG=1
M  V30 17 C 0.5646 0.8328 -1.2122 0 CFG=1
M  V30 18 C -0.505 -1.1615 -2.4253 0
M  V30 19 C -0.6522 1.7505 -1.709 0 CFG=1
M  V30 20 C 1.7527 0.9327 -2.2104 0
M  V30 21 C -1.6241 -0.2693 -2.9531 0
M  V30 22 O -1.6883 1.63 -0.6941 0
M  V30 23 C -0.171 3.2182 -1.9416 0
M  V30 24 C -1.216 1.195 -3.0465 0
M  V30 25 C -2.8347 2.358 -0.7902 0
M  V30 26 O 0.3148 3.5809 -3.0179 0
M  V30 27 C -0.2495 4.2068 -0.8026 0
M  V30 28 O -3.055 3.2113 -1.6337 0
M  V30 29 C -3.7722 1.9578 0.324 0
M  V30 30 C -5.0964 2.7134 0.2532 0
M  V30 31 C -6.0348 2.2995 1.3749 0
M  V30 32 H 0.9913 -5.0898 2.8563 0
M  V30 33 H 2.6349 -1.8742 5.2661 0
M  V30 34 H 3.2736 -0.6484 3.2726 0
M  V30 35 H 2.3906 -4.2011 -0.1797 0
M  V30 36 H 0.9759 -4.9935 0.4828 0
M  V30 37 H 0.6161 -1.0531 1.5644 0
M  V30 38 H 4.4285 -3.12 1.4986 0
M  V30 39 H 4.5455 -1.3857 1.2719 0
M  V30 40 H 3.8441 -2.3912 0.0033 0
M  V30 41 H -0.4215 -3.0434 0.1383 0
M  V30 42 H 0.4128 -3.4742 -1.3539 0
M  V30 43 H 2.1999 0.751 1.9026 0
M  V30 44 H 1.9965 -1.6598 -1.0952 0
M  V30 45 H 3.5978 1.3671 0.2423 0
M  V30 46 H 0.177 1.3825 0.8678 0
M  V30 47 H 1.4941 2.2844 0.1234 0
M  V30 48 H -0.7899 -0.6506 -0.3814 0
M  V30 49 H -0.932 -2.163 -2.3143 0
M  V30 50 H 0.2947 -1.2442 -3.1698 0
M  V30 51 H 2.2357 1.9143 -2.1529 0
M  V30 52 H 2.5296 0.1892 -2.023 0
M  V30 53 H 1.4494 0.7815 -3.2488 0
M  V30 54 H -1.9353 -0.6243 -3.9426 0
M  V30 55 H -2.5012 -0.3658 -2.3011 0
M  V30 56 H -2.093 1.769 -3.3663 0
M  V30 57 H -0.4937 1.3122 -3.8618 0
M  V30 58 H -1.0249 4.946 -1.018 0
M  V30 59 H -0.4762 3.7182 0.1461 0
M  V30 60 H 0.7174 4.7074 -0.7002 0
M  V30 61 H -3.276 2.1659 1.2786 0
M  V30 62 H -3.9567 0.8806 0.2444 0
M  V30 63 H -4.9148 3.7933 0.3132 0
M  V30 64 H -5.5819 2.5278 -0.7123 0
M  V30 65 H -6.9765 2.8531 1.3052 0
M  V30 66 H -6.2643 1.2306 1.3201 0
M  V30 67 H -5.5911 2.5063 2.354 0
M  V30 END ATOM
M  V30 BEGIN BOND
M  V30 1 2 1 2
M  V30 2 1 2 3
M  V30 3 1 2 4
M  V30 4 2 3 5
M  V30 5 2 4 6
M  V30 6 1 5 7
M  V30 7 1 5 8
M  V30 8 1 7 9
M  V30 9 1 7 10
M  V30 10 1 8 11
M  V30 11 1 9 12
M  V30 12 1 9 13
M  V30 13 1 12 14
M  V30 14 1 12 15
M  V30 15 1 13 16
M  V30 16 1 15 17
M  V30 17 1 16 18
M  V30 18 1 17 19
M  V30 19 1 17 20
M  V30 20 1 18 21
M  V30 21 1 19 22
M  V30 22 1 19 23
M  V30 23 1 19 24
M  V30 24 1 22 25
M  V30 25 2 23 26
M  V30 26 1 23 27
M  V30 27 2 25 28
M  V30 28 1 25 29
M  V30 29 1 29 30
M  V30 30 1 30 31
M  V30 31 1 6 7
M  V30 32 1 11 13
M  V30 33 1 16 17
M  V30 34 1 21 24
M  V30 35 1 3 32
M  V30 36 1 4 33
M  V30 37 1 6 34
M  V30 38 1 8 35
M  V30 39 1 8 36
M  V30 40 1 9 37
M  V30 41 1 10 38
M  V30 42 1 10 39
M  V30 43 1 10 40
M  V30 44 1 11 41
M  V30 45 1 11 42
M  V30 46 1 12 43
M  V30 47 1 13 44
M  V30 48 1 14 45
M  V30 49 1 15 46
M  V30 50 1 15 47
M  V30 51 1 16 48
M  V30 52 1 18 49
M  V30 53 1 18 50
M  V30 54 1 20 51
M  V30 55 1 20 52
M  V30 56 1 20 53
M  V30 57 1 21 54
M  V30 58 1 21 55
M  V30 59 1 24 56
M  V30 60 1 24 57
M  V30 61 1 27 58
M  V30 62 1 27 59
M  V30 63 1 27 60
M  V30 64 1 29 61
M  V30 65 1 29 62
M  V30 66 1 30 63
M  V30 67 1 30 64
M  V30 68 1 31 65
M  V30 69 1 31 66
M  V30 70 1 31 67
M  V30 END BOND
M  V30 BEGIN COLLECTION
M  V30 MDLV30/STEABS ATOMS=(7 7 9 12 13 16 17 19)
M  V30 END COLLECTION
M  V30 END CTAB
M  END
>  <NO.>
1496

>  <Name>
domoprednate

>  <SMILES>
CCCC(=O)O[C@]1(C(C)=O)CCC[C@H]2[C@@H]3CCC4=CC(=O)C=C[C@]4(C)[C@H]3[C@@H](O)C[C@@]21C

>  <logBB>


>  <Class>
1

>  <MW>
428.26

>  <nHBAcc>
5

>  <nHBDon>
1

>  <SLogP>
4.33

>  <TopoPSA>
80.67

>  <MMFF94 Energy>
91.422

$$$$
CCCC(C(=O)c1ccc(C)cc1)N1CCCC1
Actelion Java MolfileCreator 2.0

  0  0  0  0  0  0              0 V3000
M  V30 BEGIN CTAB
M  V30 COUNTS 41 42 0 0 0
M  V30 BEGIN ATOM
M  V30 1 O -0.1575 -0.4726 -2.0494 0
M  V30 2 C 0.1968 -0.1824 -0.9049 0
M  V30 3 C 1.6563 0.0686 -0.6672 0
M  V30 4 C -0.7925 -0.0723 0.2816 0 CFG=1
M  V30 5 C 2.4847 0.2325 -1.7868 0
M  V30 6 C 2.2266 0.1352 0.609 0
M  V30 7 N -2.0907 0.4982 -0.1555 0
M  V30 8 C -0.935 -1.4642 0.9411 0
M  V30 9 C 3.8529 0.4727 -1.6346 0
M  V30 10 C 3.5975 0.3755 0.7595 0
M  V30 11 C -3.0418 0.6996 0.9405 0
M  V30 12 C -1.9621 1.8198 -0.7799 0
M  V30 13 C -1.6579 -2.5116 0.0842 0
M  V30 14 C 4.4175 0.5601 -0.3588 0
M  V30 15 C -4.1018 1.6003 0.326 0
M  V30 16 C -3.3891 2.3474 -0.7929 0
M  V30 17 C -1.7739 -3.8391 0.8193 0
M  V30 18 C 5.892 0.7824 -0.194 0
M  V30 19 H -0.3689 0.6196 1.0191 0
M  V30 20 H 2.0674 0.172 -2.791 0
M  V30 21 H 1.6407 -0.0107 1.5106 0
M  V30 22 H -1.4612 -1.3584 1.8984 0
M  V30 23 H 0.0607 -1.8523 1.1891 0
M  V30 24 H 4.4722 0.5893 -2.5217 0
M  V30 25 H 4.0235 0.4141 1.7605 0
M  V30 26 H -2.5723 1.2079 1.7925 0
M  V30 27 H -3.4855 -0.236 1.2937 0
M  V30 28 H -1.5577 1.7745 -1.7955 0
M  V30 29 H -1.3279 2.4863 -0.1812 0
M  V30 30 H -2.664 -2.1679 -0.1788 0
M  V30 31 H -1.1147 -2.6766 -0.8522 0
M  V30 32 H -4.9232 1.0052 -0.0904 0
M  V30 33 H -4.5264 2.2856 1.0667 0
M  V30 34 H -3.4165 3.431 -0.6383 0
M  V30 35 H -3.8759 2.1324 -1.7514 0
M  V30 36 H -2.2882 -4.5749 0.1932 0
M  V30 37 H -0.7851 -4.2372 1.0688 0
M  V30 38 H -2.3436 -3.7251 1.7471 0
M  V30 39 H 6.4155 -0.1783 -0.1765 0
M  V30 40 H 6.2898 1.388 -1.0152 0
M  V30 41 H 6.1043 1.3188 0.7368 0
M  V30 END ATOM
M  V30 BEGIN BOND
M  V30 1 2 1 2
M  V30 2 1 2 3
M  V30 3 1 2 4
M  V30 4 2 3 5
M  V30 5 1 3 6
M  V30 6 1 4 7
M  V30 7 1 4 8
M  V30 8 1 5 9
M  V30 9 2 6 10
M  V30 10 1 7 11
M  V30 11 1 7 12
M  V30 12 1 8 13
M  V30 13 2 9 14
M  V30 14 1 11 15
M  V30 15 1 12 16
M  V30 16 1 13 17
M  V30 17 1 14 18
M  V30 18 1 10 14
M  V30 19 1 15 16
M  V30 20 1 4 19
M  V30 21 1 5 20
M  V30 22 1 6 21
M  V30 23 1 8 22
M  V30 24 1 8 23
M  V30 25 1 9 24
M  V30 26 1 10 25
M  V30 27 1 11 26
M  V30 28 1 11 27
M  V30 29 1 12 28
M  V30 30 1 12 29
M  V30 31 1 13 30
M  V30 32 1 13 31
M  V30 33 1 15 32
M  V30 34 1 15 33
M  V30 35 1 16 34
M  V30 36 1 16 35
M  V30 37 1 17 36
M  V30 38 1 17 37
M  V30 39 1 17 38
M  V30 40 1 18 39
M  V30 41 1 18 40
M  V30 42 1 18 41
M  V30 END BOND
M  V30 BEGIN COLLECTION
M  V30 MDLV30/STERAC1 ATOMS=(1 4)
M  V30 END COLLECTION
M  V30 END CTAB
M  END
>  <NO.>
1497

>  <Name>
pyrovalerone

>  <SMILES>
CCCC(C(=O)c1ccc(C)cc1)N1CCCC1

>  <logBB>


>  <Class>
1

>  <MW>
245.18

>  <nHBAcc>
2

>  <nHBDon>
0

>  <SLogP>
3.44

>  <TopoPSA>
20.31

>  <MMFF94 Energy>
77.872

$$$$
CCCC(C)(O)C1CC23C=CC1(OC)C1Oc4c(O)ccc5c4C12CCN(C)C3C5
Actelion Java MolfileCreator 2.0

  0  0  0  0  0  0              0 V3000
M  V30 BEGIN CTAB
M  V30 COUNTS 63 68 0 0 0
M  V30 BEGIN ATOM
M  V30 1 O -2.0212 -2.1021 -1.2932 0
M  V30 2 C -2.8985 -1.0763 -1.5298 0
M  V30 3 C -0.734 -1.476 -0.9677 0
M  V30 4 C -4.2653 -1.1665 -1.677 0
M  V30 5 C -2.2957 0.158 -1.4902 0
M  V30 6 C -0.2503 -1.6179 0.5374 0
M  V30 7 C -0.8276 0.0197 -1.3188 0
M  V30 8 O -4.8645 -2.3877 -1.7375 0
M  V30 9 C -5.0142 0.0174 -1.7233 0
M  V30 10 C -3.0036 1.346 -1.3956 0
M  V30 11 O -0.1395 -2.9713 0.9656 0
M  V30 12 C -1.1223 -0.7816 1.4544 0
M  V30 13 C 1.1995 -0.9267 0.5944 0
M  V30 14 C -0.4251 0.9338 -0.1381 0
M  V30 15 C -0.0917 0.362 -2.6288 0
M  V30 16 C -4.3876 1.2712 -1.555 0
M  V30 17 C -2.2676 2.5913 -0.9451 0
M  V30 18 C -1.2975 -3.7839 0.8507 0
M  V30 19 C -1.1941 0.5236 1.1339 0
M  V30 20 C 2.0847 -1.0956 1.8961 0
M  V30 21 C 1.0478 0.6095 0.2194 0
M  V30 22 C -0.7245 2.3893 -0.6306 0
M  V30 23 C -0.1258 1.8589 -2.9595 0
M  V30 24 O 1.5395 -0.2867 2.946 0
M  V30 25 C 3.5237 -0.5713 1.5871 0
M  V30 26 C 2.1593 -2.5408 2.4088 0
M  V30 27 N 0.1693 2.6844 -1.7832 0
M  V30 28 C 4.4967 -0.5324 2.7746 0
M  V30 29 C 0.2115 4.103 -2.1261 0
M  V30 30 C 5.8256 0.096 2.376 0
M  V30 31 H -0.0046 -1.9967 -1.6021 0
M  V30 32 H -5.8222 -2.2604 -1.8207 0
M  V30 33 H -6.0947 -0.0146 -1.83 0
M  V30 34 H -1.5828 -1.1976 2.3404 0
M  V30 35 H 1.7794 -1.4071 -0.2087 0
M  V30 36 H -0.5167 -0.1959 -3.4737 0
M  V30 37 H 0.956 0.0437 -2.5557 0
M  V30 38 H -4.9969 2.1702 -1.4994 0
M  V30 39 H -2.4307 3.3923 -1.6727 0
M  V30 40 H -2.7413 2.9233 -0.0111 0
M  V30 41 H -1.1674 -4.644 1.5142 0
M  V30 42 H -2.2091 -3.2601 1.151 0
M  V30 43 H -1.3863 -4.1725 -0.1667 0
M  V30 44 H -1.7275 1.2441 1.7422 0
M  V30 45 H 1.357 1.261 1.0465 0
M  V30 46 H 1.7365 0.8351 -0.6022 0
M  V30 47 H -0.4567 3.0822 0.1789 0
M  V30 48 H 0.6243 2.046 -3.7383 0
M  V30 49 H -1.0946 2.1244 -3.4 0
M  V30 50 H 1.9106 -0.5905 3.7911 0
M  V30 51 H 3.4619 0.4541 1.2046 0
M  V30 52 H 3.9636 -1.1793 0.7859 0
M  V30 53 H 2.4519 -3.2365 1.6165 0
M  V30 54 H 1.2101 -2.8566 2.8527 0
M  V30 55 H 2.8742 -2.6464 3.2305 0
M  V30 56 H 4.0694 0.0457 3.6007 0
M  V30 57 H 4.6964 -1.5422 3.1449 0
M  V30 58 H 0.999 4.2894 -2.865 0
M  V30 59 H 0.4624 4.7076 -1.2476 0
M  V30 60 H -0.7311 4.4717 -2.542 0
M  V30 61 H 6.5097 0.1084 3.2304 0
M  V30 62 H 6.3004 -0.4702 1.5684 0
M  V30 63 H 5.6867 1.1279 2.038 0
M  V30 END ATOM
M  V30 BEGIN BOND
M  V30 1 1 1 2
M  V30 2 1 1 3
M  V30 3 2 2 4
M  V30 4 1 2 5
M  V30 5 1 3 6
M  V30 6 1 3 7
M  V30 7 1 4 8
M  V30 8 1 4 9
M  V30 9 2 5 10
M  V30 10 1 6 11
M  V30 11 1 6 12
M  V30 12 1 6 13
M  V30 13 1 7 14
M  V30 14 1 7 15
M  V30 15 2 9 16
M  V30 16 1 10 17
M  V30 17 1 11 18
M  V30 18 2 12 19
M  V30 19 1 13 20
M  V30 20 1 13 21
M  V30 21 1 14 22
M  V30 22 1 15 23
M  V30 23 1 20 24
M  V30 24 1 20 25
M  V30 25 1 20 26
M  V30 26 1 22 27
M  V30 27 1 25 28
M  V30 28 1 27 29
M  V30 29 1 28 30
M  V30 30 1 5 7
M  V30 31 1 10 16
M  V30 32 1 14 19
M  V30 33 1 14 21
M  V30 34 1 17 22
M  V30 35 1 23 27
M  V30 36 1 3 31
M  V30 37 1 8 32
M  V30 38 1 9 33
M  V30 39 1 12 34
M  V30 40 1 13 35
M  V30 41 1 15 36
M  V30 42 1 15 37
M  V30 43 1 16 38
M  V30 44 1 17 39
M  V30 45 1 17 40
M  V30 46 1 18 41
M  V30 47 1 18 42
M  V30 48 1 18 43
M  V30 49 1 19 44
M  V30 50 1 21 45
M  V30 51 1 21 46
M  V30 52 1 22 47
M  V30 53 1 23 48
M  V30 54 1 23 49
M  V30 55 1 24 50
M  V30 56 1 25 51
M  V30 57 1 25 52
M  V30 58 1 26 53
M  V30 59 1 26 54
M  V30 60 1 26 55
M  V30 61 1 28 56
M  V30 62 1 28 57
M  V30 63 1 29 58
M  V30 64 1 29 59
M  V30 65 1 29 60
M  V30 66 1 30 61
M  V30 67 1 30 62
M  V30 68 1 30 63
M  V30 END BOND
M  V30 END CTAB
M  END
>  <NO.>
1498

>  <Name>
etorphine

>  <SMILES>
CCCC(C)(O)C1CC23C=CC1(OC)C1Oc4c(O)ccc5c4C12CCN(C)C3C5

>  <logBB>


>  <Class>
1

>  <MW>
411.24

>  <nHBAcc>
5

>  <nHBDon>
2

>  <SLogP>
3.16

>  <TopoPSA>
62.16

>  <MMFF94 Energy>
167.13

$$$$
CCCC(C)C1(CCSC)C(=O)NC(=S)NC1=O
Actelion Java MolfileCreator 2.0

  0  0  0  0  0  0              0 V3000
M  V30 BEGIN CTAB
M  V30 COUNTS 38 38 0 0 0
M  V30 BEGIN ATOM
M  V30 1 S 0.4015 4.7459 -1.9284 0
M  V30 2 C 0.4347 3.1986 -1.3262 0
M  V30 3 N -0.4282 2.2505 -1.7705 0
M  V30 4 N 1.3407 2.8252 -0.3879 0
M  V30 5 C -0.4646 0.9427 -1.374 0
M  V30 6 C 1.4486 1.589 0.1859 0
M  V30 7 O -1.1799 0.1478 -1.9815 0
M  V30 8 C 0.3947 0.547 -0.1791 0
M  V30 9 O 2.354 1.3706 0.9892 0
M  V30 10 C -0.5186 0.358 1.104 0 CFG=2
M  V30 11 C 1.1446 -0.7726 -0.5418 0
M  V30 12 C -1.4329 -0.8949 1.0505 0
M  V30 13 C -1.346 1.6182 1.4219 0
M  V30 14 C 2.1517 -0.6162 -1.6905 0
M  V30 15 C -2.3089 -1.1511 2.285 0
M  V30 16 S 2.9357 -2.2021 -2.1309 0
M  V30 17 C -1.5148 -1.3428 3.5677 0
M  V30 18 C 1.5628 -2.9846 -3.0166 0
M  V30 19 H -1.0617 2.5028 -2.5197 0
M  V30 20 H 2.0214 3.5119 -0.0851 0
M  V30 21 H 0.163 0.2147 1.9539 0
M  V30 22 H 1.6689 -1.1501 0.3464 0
M  V30 23 H 0.4135 -1.5361 -0.8277 0
M  V30 24 H -2.0993 -0.8273 0.1836 0
M  V30 25 H -0.8196 -1.791 0.9076 0
M  V30 26 H -1.815 1.5448 2.408 0
M  V30 27 H -0.7248 2.5175 1.4511 0
M  V30 28 H -2.1413 1.7724 0.6857 0
M  V30 29 H 1.6857 -0.1959 -2.5868 0
M  V30 30 H 2.96 0.0606 -1.3981 0
M  V30 31 H -3.0385 -0.3452 2.4167 0
M  V30 32 H -2.8936 -2.0615 2.103 0
M  V30 33 H -2.1851 -1.6294 4.3846 0
M  V30 34 H -0.766 -2.1326 3.4519 0
M  V30 35 H -1.0046 -0.4227 3.8669 0
M  V30 36 H 1.9153 -3.9183 -3.4629 0
M  V30 37 H 1.2025 -2.334 -3.8176 0
M  V30 38 H 0.7433 -3.2217 -2.3343 0
M  V30 END ATOM
M  V30 BEGIN BOND
M  V30 1 2 1 2
M  V30 2 1 2 3
M  V30 3 1 2 4
M  V30 4 1 3 5
M  V30 5 1 4 6
M  V30 6 2 5 7
M  V30 7 1 5 8
M  V30 8 2 6 9
M  V30 9 1 8 10
M  V30 10 1 8 11
M  V30 11 1 10 12
M  V30 12 1 10 13
M  V30 13 1 11 14
M  V30 14 1 12 15
M  V30 15 1 14 16
M  V30 16 1 15 17
M  V30 17 1 16 18
M  V30 18 1 6 8
M  V30 19 1 3 19
M  V30 20 1 4 20
M  V30 21 1 10 21
M  V30 22 1 11 22
M  V30 23 1 11 23
M  V30 24 1 12 24
M  V30 25 1 12 25
M  V30 26 1 13 26
M  V30 27 1 13 27
M  V30 28 1 13 28
M  V30 29 1 14 29
M  V30 30 1 14 30
M  V30 31 1 15 31
M  V30 32 1 15 32
M  V30 33 1 17 33
M  V30 34 1 17 34
M  V30 35 1 17 35
M  V30 36 1 18 36
M  V30 37 1 18 37
M  V30 38 1 18 38
M  V30 END BOND
M  V30 BEGIN COLLECTION
M  V30 MDLV30/STERAC1 ATOMS=(1 10)
M  V30 END COLLECTION
M  V30 END CTAB
M  END
>  <NO.>
1499

>  <Name>
methitural

>  <SMILES>
CCCC(C)C1(CCSC)C(=O)NC(=S)NC1=O

>  <logBB>


>  <Class>
1

>  <MW>
288.1

>  <nHBAcc>
4

>  <nHBDon>
2

>  <SLogP>
1.69

>  <TopoPSA>
58.2

>  <MMFF94 Energy>
-92.416

$$$$
CCCC(CC)C1(CC)C(=O)NC(=O)NC1=O
Actelion Java MolfileCreator 2.0

  0  0  0  0  0  0              0 V3000
M  V30 BEGIN CTAB
M  V30 COUNTS 37 37 0 0 0
M  V30 BEGIN ATOM
M  V30 1 O 3.3661 -2.1909 -1.3297 0
M  V30 2 C 2.4305 -1.4002 -1.2784 0
M  V30 3 N 2.6304 -0.0701 -1.105 0
M  V30 4 N 1.1448 -1.8075 -1.4222 0
M  V30 5 C 1.67 0.896 -1.0459 0
M  V30 6 C 0.0355 -1.0126 -1.4427 0
M  V30 7 O 2.0083 2.077 -0.9629 0
M  V30 8 C 0.2063 0.4481 -1.0355 0
M  V30 9 O -1.0421 -1.5061 -1.7689 0
M  V30 10 C -0.3073 0.6898 0.4519 0 CFG=2
M  V30 11 C -0.5507 1.339 -2.0635 0
M  V30 12 C 0.2028 -0.3967 1.4411 0
M  V30 13 C -1.8182 0.999 0.6271 0
M  V30 14 C -0.0185 1.2532 -3.4947 0
M  V30 15 C -0.0756 -0.0837 2.9156 0
M  V30 16 C -2.7888 -0.1492 0.4077 0
M  V30 17 C 0.5932 -1.0978 3.8322 0
M  V30 18 H 3.5908 0.2402 -1.0541 0
M  V30 19 H 1.0035 -2.7872 -1.6264 0
M  V30 20 H 0.176 1.6225 0.7837 0
M  V30 21 H -1.6103 1.0611 -2.1016 0
M  V30 22 H -0.5102 2.3899 -1.7491 0
M  V30 23 H -0.2357 -1.3713 1.1991 0
M  V30 24 H 1.2871 -0.5034 1.3245 0
M  V30 25 H -1.9773 1.3767 1.6451 0
M  V30 26 H -2.1096 1.8384 -0.0139 0
M  V30 27 H -0.6205 1.8902 -4.1514 0
M  V30 28 H 1.0177 1.596 -3.5644 0
M  V30 29 H -0.072 0.2323 -3.884 0
M  V30 30 H 0.2923 0.9188 3.1612 0
M  V30 31 H -1.1523 -0.0989 3.1139 0
M  V30 32 H -2.505 -1.0445 0.9662 0
M  V30 33 H -2.8794 -0.4022 -0.6497 0
M  V30 34 H -3.7882 0.1455 0.7464 0
M  V30 35 H 0.3768 -0.8626 4.8791 0
M  V30 36 H 0.2292 -2.1099 3.6286 0
M  V30 37 H 1.6799 -1.0896 3.7005 0
M  V30 END ATOM
M  V30 BEGIN BOND
M  V30 1 2 1 2
M  V30 2 1 2 3
M  V30 3 1 2 4
M  V30 4 1 3 5
M  V30 5 1 4 6
M  V30 6 2 5 7
M  V30 7 1 5 8
M  V30 8 2 6 9
M  V30 9 1 8 10
M  V30 10 1 8 11
M  V30 11 1 10 12
M  V30 12 1 10 13
M  V30 13 1 11 14
M  V30 14 1 12 15
M  V30 15 1 13 16
M  V30 16 1 15 17
M  V30 17 1 6 8
M  V30 18 1 3 18
M  V30 19 1 4 19
M  V30 20 1 10 20
M  V30 21 1 11 21
M  V30 22 1 11 22
M  V30 23 1 12 23
M  V30 24 1 12 24
M  V30 25 1 13 25
M  V30 26 1 13 26
M  V30 27 1 14 27
M  V30 28 1 14 28
M  V30 29 1 14 29
M  V30 30 1 15 30
M  V30 31 1 15 31
M  V30 32 1 16 32
M  V30 33 1 16 33
M  V30 34 1 16 34
M  V30 35 1 17 35
M  V30 36 1 17 36
M  V30 37 1 17 37
M  V30 END BOND
M  V30 BEGIN COLLECTION
M  V30 MDLV30/STERAC1 ATOMS=(1 10)
M  V30 END COLLECTION
M  V30 END CTAB
M  END
>  <NO.>
1500

>  <Name>
tetrabarbital

>  <SMILES>
CCCC(CC)C1(CC)C(=O)NC(=O)NC1=O

>  <logBB>


>  <Class>
1

>  <MW>
240.15

>  <nHBAcc>
3

>  <nHBDon>
2

>  <SLogP>
1.58

>  <TopoPSA>
75.27

>  <MMFF94 Energy>
-117.01

$$$$
CCCC(CC)C1(CC)C(=O)NC(=S)NC1=O
Actelion Java MolfileCreator 2.0

  0  0  0  0  0  0              0 V3000
M  V30 BEGIN CTAB
M  V30 COUNTS 37 37 0 0 0
M  V30 BEGIN ATOM
M  V30 1 S 4.5088 -1.5802 -2.5293 0
M  V30 2 C 3.0961 -1.1024 -1.7979 0
M  V30 3 N 3.0294 0.0396 -1.0679 0
M  V30 4 N 1.9714 -1.8575 -1.8726 0
M  V30 5 C 1.9224 0.5238 -0.4226 0
M  V30 6 C 0.7707 -1.5693 -1.2818 0
M  V30 7 O 2.0387 1.5136 0.2971 0
M  V30 8 C 0.5856 -0.1504 -0.7356 0
M  V30 9 O -0.1142 -2.4235 -1.2753 0
M  V30 10 C -0.3517 -0.1753 0.5413 0 CFG=2
M  V30 11 C 0.009 0.6673 -1.9407 0
M  V30 12 C -1.009 1.2042 0.8576 0
M  V30 13 C 0.3335 -0.7204 1.8316 0
M  V30 14 C -1.3521 0.2177 -2.4665 0
M  V30 15 C -2.0887 1.1512 1.9472 0
M  V30 16 C 1.0233 -2.0714 1.7278 0
M  V30 17 C -2.8262 2.478 2.0617 0
M  V30 18 H 3.8839 0.5649 -0.929 0
M  V30 19 H 2.0349 -2.7603 -2.3268 0
M  V30 20 H -1.1819 -0.862 0.3249 0
M  V30 21 H -0.0468 1.7314 -1.6778 0
M  V30 22 H 0.7124 0.6274 -2.7846 0
M  V30 23 H -0.2446 1.9284 1.1593 0
M  V30 24 H -1.484 1.609 -0.0395 0
M  V30 25 H 1.0528 0.0126 2.2147 0
M  V30 26 H -0.4273 -0.8311 2.6125 0
M  V30 27 H -2.1101 0.1728 -1.681 0
M  V30 28 H -1.7035 0.9226 -3.2274 0
M  V30 29 H -1.292 -0.7653 -2.9419 0
M  V30 30 H -2.8108 0.3588 1.7203 0
M  V30 31 H -1.6424 0.9256 2.9207 0
M  V30 32 H 1.9201 -2.0257 1.1061 0
M  V30 33 H 0.3455 -2.8341 1.3344 0
M  V30 34 H 1.3436 -2.3989 2.7229 0
M  V30 35 H -3.5828 2.4238 2.8508 0
M  V30 36 H -2.1351 3.2904 2.308 0
M  V30 37 H -3.3323 2.7287 1.124 0
M  V30 END ATOM
M  V30 BEGIN BOND
M  V30 1 2 1 2
M  V30 2 1 2 3
M  V30 3 1 2 4
M  V30 4 1 3 5
M  V30 5 1 4 6
M  V30 6 2 5 7
M  V30 7 1 5 8
M  V30 8 2 6 9
M  V30 9 1 8 10
M  V30 10 1 8 11
M  V30 11 1 10 12
M  V30 12 1 10 13
M  V30 13 1 11 14
M  V30 14 1 12 15
M  V30 15 1 13 16
M  V30 16 1 15 17
M  V30 17 1 6 8
M  V30 18 1 3 18
M  V30 19 1 4 19
M  V30 20 1 10 20
M  V30 21 1 11 21
M  V30 22 1 11 22
M  V30 23 1 12 23
M  V30 24 1 12 24
M  V30 25 1 13 25
M  V30 26 1 13 26
M  V30 27 1 14 27
M  V30 28 1 14 28
M  V30 29 1 14 29
M  V30 30 1 15 30
M  V30 31 1 15 31
M  V30 32 1 16 32
M  V30 33 1 16 33
M  V30 34 1 16 34
M  V30 35 1 17 35
M  V30 36 1 17 36
M  V30 37 1 17 37
M  V30 END BOND
M  V30 BEGIN COLLECTION
M  V30 MDLV30/STERAC1 ATOMS=(1 10)
M  V30 END COLLECTION
M  V30 END CTAB
M  END
>  <NO.>
1501

>  <Name>
thiotetrabarbital

>  <SMILES>
CCCC(CC)C1(CC)C(=O)NC(=S)NC1=O

>  <logBB>


>  <Class>
1

>  <MW>
256.12

>  <nHBAcc>
3

>  <nHBDon>
2

>  <SLogP>
1.74

>  <TopoPSA>
58.2

>  <MMFF94 Energy>
-87.89

$$$$
CCCC(CCC)(CCC)C(N)=O
Actelion Java MolfileCreator 2.0

  0  0  0  0  0  0              0 V3000
M  V30 BEGIN CTAB
M  V30 COUNTS 36 35 0 0 0
M  V30 BEGIN ATOM
M  V30 1 O -0.3073 2.692 0.8454 0
M  V30 2 C 0.2111 1.9926 -0.0196 0
M  V30 3 N 0.965 2.5929 -0.9851 0
M  V30 4 C 0.0932 0.4498 -0.0814 0
M  V30 5 C 1.5224 -0.1632 0.0695 0
M  V30 6 C -0.4923 0.0619 -1.476 0
M  V30 7 C -0.8096 -0.0477 1.0905 0
M  V30 8 C 2.2721 0.2233 1.3529 0
M  V30 9 C -0.7204 -1.437 -1.7118 0
M  V30 10 C -2.3089 0.2635 0.9592 0
M  V30 11 C 3.6711 -0.3766 1.3741 0
M  V30 12 C -1.3727 -1.6867 -3.0647 0
M  V30 13 C -3.0697 -0.162 2.2075 0
M  V30 14 H 1.0507 3.6003 -0.9446 0
M  V30 15 H 1.4504 2.095 -1.716 0
M  V30 16 H 1.4527 -1.2578 0.0435 0
M  V30 17 H 2.1386 0.1213 -0.7931 0
M  V30 18 H -1.4342 0.6033 -1.6361 0
M  V30 19 H 0.1771 0.4192 -2.2694 0
M  V30 20 H -0.6918 -1.1331 1.205 0
M  V30 21 H -0.4583 0.3927 2.0327 0
M  V30 22 H 2.3575 1.3117 1.4378 0
M  V30 23 H 1.7297 -0.1333 2.2346 0
M  V30 24 H 0.2326 -1.9749 -1.6839 0
M  V30 25 H -1.3588 -1.8656 -0.9336 0
M  V30 26 H -2.4713 1.3335 0.7958 0
M  V30 27 H -2.7392 -0.262 0.101 0
M  V30 28 H 4.1892 -0.0966 2.2967 0
M  V30 29 H 3.6301 -1.4695 1.3258 0
M  V30 30 H 4.2654 -0.0163 0.5283 0
M  V30 31 H -1.5194 -2.7599 -3.2218 0
M  V30 32 H -2.3505 -1.1981 -3.1246 0
M  V30 33 H -0.7469 -1.3067 -3.8785 0
M  V30 34 H -4.1362 0.057 2.094 0
M  V30 35 H -2.9607 -1.2365 2.3859 0
M  V30 36 H -2.7059 0.3729 3.0906 0
M  V30 END ATOM
M  V30 BEGIN BOND
M  V30 1 2 1 2
M  V30 2 1 2 3
M  V30 3 1 2 4
M  V30 4 1 4 5
M  V30 5 1 4 6
M  V30 6 1 4 7
M  V30 7 1 5 8
M  V30 8 1 6 9
M  V30 9 1 7 10
M  V30 10 1 8 11
M  V30 11 1 9 12
M  V30 12 1 10 13
M  V30 13 1 3 14
M  V30 14 1 3 15
M  V30 15 1 5 16
M  V30 16 1 5 17
M  V30 17 1 6 18
M  V30 18 1 6 19
M  V30 19 1 7 20
M  V30 20 1 7 21
M  V30 21 1 8 22
M  V30 22 1 8 23
M  V30 23 1 9 24
M  V30 24 1 9 25
M  V30 25 1 10 26
M  V30 26 1 10 27
M  V30 27 1 11 28
M  V30 28 1 11 29
M  V30 29 1 11 30
M  V30 30 1 12 31
M  V30 31 1 12 32
M  V30 32 1 12 33
M  V30 33 1 13 34
M  V30 34 1 13 35
M  V30 35 1 13 36
M  V30 END BOND
M  V30 END CTAB
M  END
>  <NO.>
1502

>  <Name>
valdipromide

>  <SMILES>
CCCC(CCC)(CCC)C(N)=O

>  <logBB>


>  <Class>
1

>  <MW>
185.18

>  <nHBAcc>
1

>  <nHBDon>
1

>  <SLogP>
2.86

>  <TopoPSA>
43.09

>  <MMFF94 Energy>
-12.898

$$$$
CCCC(CCC)C(=O)OCOC(=O)C(C)(C)C
Actelion Java MolfileCreator 2.0

  0  0  0  0  0  0              0 V3000
M  V30 BEGIN CTAB
M  V30 COUNTS 44 43 0 0 0
M  V30 BEGIN ATOM
M  V30 1 O -0.543 2.7174 -2.1734 0
M  V30 2 C -1.4837 2.146 -1.638 0
M  V30 3 O -1.7222 0.8098 -1.7167 0
M  V30 4 C -2.5431 2.8357 -0.7737 0
M  V30 5 C -0.7324 0.0597 -2.4227 0
M  V30 6 C -2.2791 4.3496 -0.7488 0
M  V30 7 C -3.9374 2.5827 -1.3623 0
M  V30 8 C -2.4578 2.2885 0.6576 0
M  V30 9 O 0.4038 -0.2187 -1.6033 0
M  V30 10 C 0.2404 -1.2541 -0.7388 0
M  V30 11 O -0.7516 -1.9655 -0.6643 0
M  V30 12 C 1.4619 -1.3742 0.1592 0
M  V30 13 C 1.159 -0.5963 1.4526 0
M  V30 14 C 1.804 -2.852 0.4182 0
M  V30 15 C 2.3981 -0.3529 2.3164 0
M  V30 16 C 2.2439 -3.5824 -0.8555 0
M  V30 17 C 2.0675 0.5051 3.5285 0
M  V30 18 C 2.6183 -5.0277 -0.5648 0
M  V30 19 H -1.1941 -0.8658 -2.7868 0
M  V30 20 H -0.3919 0.5944 -3.3175 0
M  V30 21 H -2.3165 4.7757 -1.7582 0
M  V30 22 H -3.0222 4.8732 -0.1367 0
M  V30 23 H -1.2887 4.574 -0.3359 0
M  V30 24 H -3.99 2.9141 -2.4058 0
M  V30 25 H -4.1962 1.518 -1.3465 0
M  V30 26 H -4.7093 3.1177 -0.7978 0
M  V30 27 H -1.4506 2.4193 1.07 0
M  V30 28 H -2.6853 1.217 0.6943 0
M  V30 29 H -3.1645 2.7999 1.3208 0
M  V30 30 H 2.3129 -0.9083 -0.3548 0
M  V30 31 H 0.3989 -1.1298 2.0383 0
M  V30 32 H 0.7165 0.3753 1.194 0
M  V30 33 H 2.6165 -2.9215 1.1499 0
M  V30 34 H 0.9404 -3.3695 0.855 0
M  V30 35 H 2.8162 -1.3027 2.6648 0
M  V30 36 H 3.1725 0.1476 1.7239 0
M  V30 37 H 1.4415 -3.569 -1.6013 0
M  V30 38 H 3.1067 -3.0706 -1.2973 0
M  V30 39 H 2.9645 0.6667 4.1345 0
M  V30 40 H 1.6831 1.4839 3.224 0
M  V30 41 H 1.3144 0.0205 4.1583 0
M  V30 42 H 2.93 -5.5308 -1.4855 0
M  V30 43 H 3.4461 -5.0829 0.1492 0
M  V30 44 H 1.7675 -5.5768 -0.1487 0
M  V30 END ATOM
M  V30 BEGIN BOND
M  V30 1 2 1 2
M  V30 2 1 2 3
M  V30 3 1 2 4
M  V30 4 1 3 5
M  V30 5 1 4 6
M  V30 6 1 4 7
M  V30 7 1 4 8
M  V30 8 1 5 9
M  V30 9 1 9 10
M  V30 10 2 10 11
M  V30 11 1 10 12
M  V30 12 1 12 13
M  V30 13 1 12 14
M  V30 14 1 13 15
M  V30 15 1 14 16
M  V30 16 1 15 17
M  V30 17 1 16 18
M  V30 18 1 5 19
M  V30 19 1 5 20
M  V30 20 1 6 21
M  V30 21 1 6 22
M  V30 22 1 6 23
M  V30 23 1 7 24
M  V30 24 1 7 25
M  V30 25 1 7 26
M  V30 26 1 8 27
M  V30 27 1 8 28
M  V30 28 1 8 29
M  V30 29 1 12 30
M  V30 30 1 13 31
M  V30 31 1 13 32
M  V30 32 1 14 33
M  V30 33 1 14 34
M  V30 34 1 15 35
M  V30 35 1 15 36
M  V30 36 1 16 37
M  V30 37 1 16 38
M  V30 38 1 17 39
M  V30 39 1 17 40
M  V30 40 1 17 41
M  V30 41 1 18 42
M  V30 42 1 18 43
M  V30 43 1 18 44
M  V30 END BOND
M  V30 END CTAB
M  END
>  <NO.>
1503

>  <Name>
valproate-pivoxil

>  <SMILES>
CCCC(CCC)C(=O)OCOC(=O)C(C)(C)C

>  <logBB>


>  <Class>
1

>  <MW>
258.18

>  <nHBAcc>
4

>  <nHBDon>
0

>  <SLogP>
3.29

>  <TopoPSA>
52.6

>  <MMFF94 Energy>
-27.684

$$$$
CCCC(CCC)C(N)=O
Actelion Java MolfileCreator 2.0

  0  0  0  0  0  0              0 V3000
M  V30 BEGIN CTAB
M  V30 COUNTS 27 26 0 0 0
M  V30 BEGIN ATOM
M  V30 1 O 2.1399 -0.6874 -0.8402 0
M  V30 2 C 1.0831 -1.2834 -0.6699 0
M  V30 3 N 0.8858 -2.5121 -1.2292 0
M  V30 4 C -0.0961 -0.7468 0.1378 0
M  V30 5 C 0.3202 0.3969 1.0797 0
M  V30 6 C -1.244 -0.3335 -0.8075 0
M  V30 7 C 1.1607 -0.1006 2.261 0
M  V30 8 C -0.9282 0.8644 -1.7093 0
M  V30 9 C 1.5428 1.0415 3.1898 0
M  V30 10 C -2.0901 1.1745 -2.6417 0
M  V30 11 H 0.0353 -3.0442 -1.1159 0
M  V30 12 H 1.6403 -2.9037 -1.7775 0
M  V30 13 H -0.4698 -1.5776 0.7525 0
M  V30 14 H -0.5792 0.8862 1.4745 0
M  V30 15 H 0.8869 1.1608 0.5335 0
M  V30 16 H -2.1288 -0.0982 -0.2017 0
M  V30 17 H -1.5235 -1.1875 -1.4374 0
M  V30 18 H 0.596 -0.8493 2.8287 0
M  V30 19 H 2.0742 -0.5873 1.9028 0
M  V30 20 H -0.7204 1.753 -1.1036 0
M  V30 21 H -0.0359 0.6627 -2.3117 0
M  V30 22 H 2.1384 0.6655 4.0276 0
M  V30 23 H 2.1366 1.7944 2.6616 0
M  V30 24 H 0.6524 1.53 3.5984 0
M  V30 25 H -1.8488 2.0343 -3.2746 0
M  V30 26 H -2.3075 0.323 -3.2944 0
M  V30 27 H -2.9953 1.4136 -2.0745 0
M  V30 END ATOM
M  V30 BEGIN BOND
M  V30 1 2 1 2
M  V30 2 1 2 3
M  V30 3 1 2 4
M  V30 4 1 4 5
M  V30 5 1 4 6
M  V30 6 1 5 7
M  V30 7 1 6 8
M  V30 8 1 7 9
M  V30 9 1 8 10
M  V30 10 1 3 11
M  V30 11 1 3 12
M  V30 12 1 4 13
M  V30 13 1 5 14
M  V30 14 1 5 15
M  V30 15 1 6 16
M  V30 16 1 6 17
M  V30 17 1 7 18
M  V30 18 1 7 19
M  V30 19 1 8 20
M  V30 20 1 8 21
M  V30 21 1 9 22
M  V30 22 1 9 23
M  V30 23 1 9 24
M  V30 24 1 10 25
M  V30 25 1 10 26
M  V30 26 1 10 27
M  V30 END BOND
M  V30 END CTAB
M  END
>  <NO.>
1504

>  <Name>
valpromide

>  <SMILES>
CCCC(CCC)C(N)=O

>  <logBB>


>  <Class>
1

>  <MW>
143.13

>  <nHBAcc>
1

>  <nHBDon>
1

>  <SLogP>
1.69

>  <TopoPSA>
43.09

>  <MMFF94 Energy>
-25.728

$$$$
CCCC(Cc1ccccc1)N1CCCC1
Actelion Java MolfileCreator 2.0

  0  0  0  0  0  0              0 V3000
M  V30 BEGIN CTAB
M  V30 COUNTS 39 40 0 0 0
M  V30 BEGIN ATOM
M  V30 1 N -1.098 -0.4704 -0.1568 0
M  V30 2 C -0.0521 0.5515 0.0406 0 CFG=2
M  V30 3 C -1.8962 -0.298 -1.3674 0
M  V30 4 C -2.0478 -0.6798 0.9295 0
M  V30 5 C 1.0691 -0.0081 0.9617 0
M  V30 6 C -0.5934 1.9004 0.5801 0
M  V30 7 C -3.0562 -1.2692 -1.1789 0
M  V30 8 C -3.03 -1.6513 0.2966 0
M  V30 9 C 1.9283 -1.0649 0.3006 0
M  V30 10 C 0.3967 3.0596 0.413 0
M  V30 11 C 1.5615 -2.4159 0.3488 0
M  V30 12 C 3.0963 -0.7029 -0.3848 0
M  V30 13 C -0.2143 4.378 0.8649 0
M  V30 14 C 2.3515 -3.3872 -0.2675 0
M  V30 15 C 3.8863 -1.6756 -0.9998 0
M  V30 16 C 3.5145 -3.0173 -0.9398 0
M  V30 17 H 0.4051 0.7456 -0.9398 0
M  V30 18 H -2.2867 0.7207 -1.4681 0
M  V30 19 H -1.3228 -0.5365 -2.2689 0
M  V30 20 H -2.5754 0.2384 1.2112 0
M  V30 21 H -1.5873 -1.112 1.8224 0
M  V30 22 H 1.7375 0.7971 1.2867 0
M  V30 23 H 0.6492 -0.409 1.8932 0
M  V30 24 H -0.8567 1.8031 1.641 0
M  V30 25 H -1.5134 2.1718 0.0488 0
M  V30 26 H -2.9379 -2.1615 -1.8032 0
M  V30 27 H -4.0065 -0.7945 -1.4461 0
M  V30 28 H -2.6702 -2.682 0.4042 0
M  V30 29 H -4.0223 -1.5925 0.7543 0
M  V30 30 H 1.3065 2.8826 0.9942 0
M  V30 31 H 0.6932 3.1456 -0.6385 0
M  V30 32 H 0.6479 -2.7144 0.8579 0
M  V30 33 H 3.3974 0.34 -0.4438 0
M  V30 34 H 0.506 5.1923 0.739 0
M  V30 35 H -1.1056 4.6201 0.2773 0
M  V30 36 H -0.4992 4.3362 1.9211 0
M  V30 37 H 2.0545 -4.4315 -0.2266 0
M  V30 38 H 4.7906 -1.3858 -1.5277 0
M  V30 39 H 4.1279 -3.7739 -1.4208 0
M  V30 END ATOM
M  V30 BEGIN BOND
M  V30 1 1 1 2
M  V30 2 1 1 3
M  V30 3 1 1 4
M  V30 4 1 2 5
M  V30 5 1 2 6
M  V30 6 1 3 7
M  V30 7 1 4 8
M  V30 8 1 5 9
M  V30 9 1 6 10
M  V30 10 2 9 11
M  V30 11 1 9 12
M  V30 12 1 10 13
M  V30 13 1 11 14
M  V30 14 2 12 15
M  V30 15 2 14 16
M  V30 16 1 7 8
M  V30 17 1 15 16
M  V30 18 1 2 17
M  V30 19 1 3 18
M  V30 20 1 3 19
M  V30 21 1 4 20
M  V30 22 1 4 21
M  V30 23 1 5 22
M  V30 24 1 5 23
M  V30 25 1 6 24
M  V30 26 1 6 25
M  V30 27 1 7 26
M  V30 28 1 7 27
M  V30 29 1 8 28
M  V30 30 1 8 29
M  V30 31 1 10 30
M  V30 32 1 10 31
M  V30 33 1 11 32
M  V30 34 1 12 33
M  V30 35 1 13 34
M  V30 36 1 13 35
M  V30 37 1 13 36
M  V30 38 1 14 37
M  V30 39 1 15 38
M  V30 40 1 16 39
M  V30 END BOND
M  V30 BEGIN COLLECTION
M  V30 MDLV30/STERAC1 ATOMS=(1 2)
M  V30 END COLLECTION
M  V30 END CTAB
M  END
>  <NO.>
1505

>  <Name>
prolintane

>  <SMILES>
CCCC(Cc1ccccc1)N1CCCC1

>  <logBB>


>  <Class>
1

>  <MW>
217.18

>  <nHBAcc>
1

>  <nHBDon>
0

>  <SLogP>
3.49

>  <TopoPSA>
3.24

>  <MMFF94 Energy>
42.393

$$$$
CCCC(O)Cl
Actelion Java MolfileCreator 2.0

  0  0  0  0  0  0              0 V3000
M  V30 BEGIN CTAB
M  V30 COUNTS 15 14 0 0 0
M  V30 BEGIN ATOM
M  V30 1 Cl -2.7386 -1.2512 -0.469 0
M  V30 2 C -1.0878 -0.6199 -0.6524 0 CFG=2
M  V30 3 O -0.3492 -1.5998 -1.3575 0
M  V30 4 C -0.4593 -0.3531 0.7116 0
M  V30 5 C 0.9857 0.1535 0.6423 0
M  V30 6 C 1.1198 1.5078 -0.0366 0
M  V30 7 H -1.1493 0.2857 -1.2612 0
M  V30 8 H -1.0261 -2.1602 -1.775 0
M  V30 9 H -0.447 -1.2845 1.293 0
M  V30 10 H -1.0689 0.3677 1.2705 0
M  V30 11 H 1.3715 0.2376 1.6655 0
M  V30 12 H 1.6198 -0.5771 0.1275 0
M  V30 13 H 2.1534 1.862 0.0334 0
M  V30 14 H 0.8608 1.4518 -1.0979 0
M  V30 15 H 0.4738 2.2522 0.4395 0
M  V30 END ATOM
M  V30 BEGIN BOND
M  V30 1 1 1 2
M  V30 2 1 2 3
M  V30 3 1 2 4
M  V30 4 1 4 5
M  V30 5 1 5 6
M  V30 6 1 2 7
M  V30 7 1 3 8
M  V30 8 1 4 9
M  V30 9 1 4 10
M  V30 10 1 5 11
M  V30 11 1 5 12
M  V30 12 1 6 13
M  V30 13 1 6 14
M  V30 14 1 6 15
M  V30 END BOND
M  V30 BEGIN COLLECTION
M  V30 MDLV30/STERAC1 ATOMS=(1 2)
M  V30 END COLLECTION
M  V30 END CTAB
M  END
>  <NO.>
1506

>  <Name>
chlorobutanol

>  <SMILES>
CCCC(O)Cl

>  <logBB>


>  <Class>
1

>  <MW>
108.03

>  <nHBAcc>
1

>  <nHBDon>
1

>  <SLogP>
1.34

>  <TopoPSA>
20.23

>  <MMFF94 Energy>
-10.42

$$$$
CCCC1(C)COB(c2ccc(C)cc2)OC1
Actelion Java MolfileCreator 2.0

  0  0  0  0  0  0              0 V3000
M  V30 BEGIN CTAB
M  V30 COUNTS 38 39 0 0 0
M  V30 BEGIN ATOM
M  V30 1 O -1.3736 0.3432 -1.3736 0
M  V30 2 C -2.1585 1.0989 -0.0942 0
M  V30 3 B -0.1342 -0.5337 -0.9376 0
M  V30 4 C -2.4937 -0.1239 1.2168 0
M  V30 5 O -0.2074 -1.5458 0.2535 0
M  V30 6 C 1.4187 -0.3619 -1.8394 0
M  V30 7 C -0.9311 -0.9627 1.627 0
M  V30 8 C -3.1863 0.7045 2.6797 0
M  V30 9 C -3.6946 -1.3464 0.602 0
M  V30 10 C 2.6999 -1.2251 -1.4358 0
M  V30 11 C 1.5377 0.6673 -3.0608 0
M  V30 12 C -2.1129 1.4462 3.4527 0
M  V30 13 C 4.073 -1.0683 -2.2367 0
M  V30 14 C 2.9066 0.8256 -3.8595 0
M  V30 15 C -1.3126 0.5477 4.3877 0
M  V30 16 C 4.1787 -0.0423 -3.4501 0
M  V30 17 C 5.6931 0.1327 -4.3359 0
M  V30 18 H -3.1417 1.5644 -0.4831 0
M  V30 19 H -1.472 1.9403 0.3066 0
M  V30 20 H -0.2051 -0.2374 2.1755 0
M  V30 21 H -1.1417 -1.8407 2.361 0
M  V30 22 H -3.6754 -0.0266 3.3429 0
M  V30 23 H -3.9788 1.411 2.3849 0
M  V30 24 H -3.2731 -1.8709 -0.3416 0
M  V30 25 H -3.8928 -2.1409 1.4188 0
M  V30 26 H -4.6877 -0.8202 0.325 0
M  V30 27 H 2.6474 -1.9284 -0.6122 0
M  V30 28 H 0.6839 1.2653 -3.3516 0
M  V30 29 H -1.4162 1.895 2.7341 0
M  V30 30 H -2.5502 2.2719 4.0277 0
M  V30 31 H 4.934 -1.6619 -1.9538 0
M  V30 32 H 2.9718 1.5254 -4.6833 0
M  V30 33 H -0.5152 1.1229 4.8692 0
M  V30 34 H -1.9419 0.1249 5.1768 0
M  V30 35 H -0.8485 -0.2766 3.837 0
M  V30 36 H 6.1178 -0.9133 -4.585 0
M  V30 37 H 5.4962 0.7138 -5.3182 0
M  V30 38 H 6.4525 0.7176 -3.689 0
M  V30 END ATOM
M  V30 BEGIN BOND
M  V30 1 1 1 2
M  V30 2 1 1 3
M  V30 3 1 2 4
M  V30 4 1 3 5
M  V30 5 1 3 6
M  V30 6 1 4 7
M  V30 7 1 4 8
M  V30 8 1 4 9
M  V30 9 2 6 10
M  V30 10 1 6 11
M  V30 11 1 8 12
M  V30 12 1 10 13
M  V30 13 2 11 14
M  V30 14 1 12 15
M  V30 15 2 13 16
M  V30 16 1 16 17
M  V30 17 1 5 7
M  V30 18 1 14 16
M  V30 19 1 2 18
M  V30 20 1 2 19
M  V30 21 1 7 20
M  V30 22 1 7 21
M  V30 23 1 8 22
M  V30 24 1 8 23
M  V30 25 1 9 24
M  V30 26 1 9 25
M  V30 27 1 9 26
M  V30 28 1 10 27
M  V30 29 1 11 28
M  V30 30 1 12 29
M  V30 31 1 12 30
M  V30 32 1 13 31
M  V30 33 1 14 32
M  V30 34 1 15 33
M  V30 35 1 15 34
M  V30 36 1 15 35
M  V30 37 1 17 36
M  V30 38 1 17 37
M  V30 39 1 17 38
M  V30 END BOND
M  V30 END CTAB
M  END
>  <NO.>
1507

>  <Name>
tolboxane

>  <SMILES>
CCCC1(C)COB(c2ccc(C)cc2)OC1

>  <logBB>


>  <Class>
1

>  <MW>
232.16

>  <nHBAcc>
2

>  <nHBDon>
0

>  <SLogP>
2.54

>  <TopoPSA>
18.46

>  <MMFF94 Energy>
Couldn't assign an atom type to atom 2 (B)

$$$$
CCCCC(=O)OC1(C(=O)CO)CCC2C3CCC4=CC(=O)C=CC4(C)C3C(O)CC21C
Actelion Java MolfileCreator 2.0

  0  0  0  0  0  0              0 V3000
M  V30 BEGIN CTAB
M  V30 COUNTS 68 71 0 0 0
M  V30 BEGIN ATOM
M  V30 1 O 1.2838 -5.7872 5.3039 0
M  V30 2 C 0.6864 -4.8776 4.7427 0
M  V30 3 C 0.1912 -5.0215 3.3608 0
M  V30 4 C 0.434 -3.592 5.4124 0
M  V30 5 C -0.4812 -4.0375 2.7363 0
M  V30 6 C -0.2392 -2.6136 4.7929 0
M  V30 7 C -0.815 -2.6778 3.3801 0
M  V30 8 C -0.8953 -4.2206 1.3018 0
M  V30 9 C -0.2373 -1.5227 2.4519 0
M  V30 10 C -2.3485 -2.5698 3.5448 0
M  V30 11 C -0.2462 -3.1414 0.4499 0
M  V30 12 C -0.6379 -0.0745 2.8536 0
M  V30 13 C -0.6134 -1.7353 0.9502 0
M  V30 14 O -0.2078 0.229 4.1763 0
M  V30 15 C -0.0034 0.976 1.9304 0
M  V30 16 C -0.0366 -0.6599 0.0037 0
M  V30 17 C -0.3314 0.7972 0.4291 0
M  V30 18 C 1.4872 -0.6984 -0.1854 0
M  V30 19 C 0.6451 1.6015 -0.5178 0
M  V30 20 C -1.8137 1.1462 0.1843 0
M  V30 21 C 1.9318 0.7411 -0.4704 0
M  V30 22 O 0.1025 1.531 -1.8589 0
M  V30 23 C 0.8781 3.0418 0.0135 0
M  V30 24 C 0.7691 2.1533 -2.8704 0
M  V30 25 O 1.7312 3.305 0.8692 0
M  V30 26 C -0.0399 4.1494 -0.4891 0
M  V30 27 O 1.753 2.8588 -2.717 0
M  V30 28 C 0.0872 1.855 -4.1834 0
M  V30 29 O -0.2783 5.1031 0.5377 0
M  V30 30 C 0.8101 2.5064 -5.3605 0
M  V30 31 C 0.1129 2.1929 -6.6834 0
M  V30 32 C 0.8295 2.84 -7.8577 0
M  V30 33 H 0.4277 -5.9668 2.8859 0
M  V30 34 H 0.8067 -3.4901 6.4241 0
M  V30 35 H -0.4161 -1.7074 5.3663 0
M  V30 36 H -0.5965 -5.2038 0.9184 0
M  V30 37 H -1.9867 -4.177 1.2144 0
M  V30 38 H 0.857 -1.5893 2.5442 0
M  V30 39 H -2.8717 -2.5171 2.5852 0
M  V30 40 H -2.7524 -3.4368 4.0835 0
M  V30 41 H -2.6345 -1.6797 4.1175 0
M  V30 42 H -0.5735 -3.2639 -0.5897 0
M  V30 43 H 0.8422 -3.279 0.4583 0
M  V30 44 H -1.7269 0.0329 2.838 0
M  V30 45 H -1.7061 -1.6547 0.8735 0
M  V30 46 H -0.407 1.165 4.3564 0
M  V30 47 H -0.3206 1.9737 2.2635 0
M  V30 48 H 1.0804 0.9578 2.1029 0
M  V30 49 H -0.4853 -0.8318 -0.9863 0
M  V30 50 H 1.7538 -1.359 -1.018 0
M  V30 51 H 2.0126 -1.0721 0.699 0
M  V30 52 H -2.0309 2.1753 0.4864 0
M  V30 53 H -2.094 1.0387 -0.8684 0
M  V30 54 H -2.4881 0.4993 0.7534 0
M  V30 55 H 2.5 0.7682 -1.4054 0
M  V30 56 H 2.6179 1.0633 0.3208 0
M  V30 57 H 0.4321 4.658 -1.333 0
M  V30 58 H -1.0037 3.748 -0.8046 0
M  V30 59 H -0.9413 2.2283 -4.1262 0
M  V30 60 H 0.0665 0.7677 -4.3177 0
M  V30 61 H 0.593 5.2711 0.9505 0
M  V30 62 H 1.8485 2.1541 -5.3966 0
M  V30 63 H 0.8516 3.5929 -5.2128 0
M  V30 64 H 0.0769 1.1082 -6.8376 0
M  V30 65 H -0.9227 2.551 -6.6526 0
M  V30 66 H 0.314 2.6029 -8.7936 0
M  V30 67 H 0.8546 3.9292 -7.7502 0
M  V30 68 H 1.8597 2.4784 -7.9362 0
M  V30 END ATOM
M  V30 BEGIN BOND
M  V30 1 2 1 2
M  V30 2 1 2 3
M  V30 3 1 2 4
M  V30 4 2 3 5
M  V30 5 2 4 6
M  V30 6 1 5 7
M  V30 7 1 5 8
M  V30 8 1 7 9
M  V30 9 1 7 10
M  V30 10 1 8 11
M  V30 11 1 9 12
M  V30 12 1 9 13
M  V30 13 1 12 14
M  V30 14 1 12 15
M  V30 15 1 13 16
M  V30 16 1 15 17
M  V30 17 1 16 18
M  V30 18 1 17 19
M  V30 19 1 17 20
M  V30 20 1 18 21
M  V30 21 1 19 22
M  V30 22 1 19 23
M  V30 23 1 22 24
M  V30 24 2 23 25
M  V30 25 1 23 26
M  V30 26 2 24 27
M  V30 27 1 24 28
M  V30 28 1 26 29
M  V30 29 1 28 30
M  V30 30 1 30 31
M  V30 31 1 31 32
M  V30 32 1 6 7
M  V30 33 1 11 13
M  V30 34 1 16 17
M  V30 35 1 19 21
M  V30 36 1 3 33
M  V30 37 1 4 34
M  V30 38 1 6 35
M  V30 39 1 8 36
M  V30 40 1 8 37
M  V30 41 1 9 38
M  V30 42 1 10 39
M  V30 43 1 10 40
M  V30 44 1 10 41
M  V30 45 1 11 42
M  V30 46 1 11 43
M  V30 47 1 12 44
M  V30 48 1 13 45
M  V30 49 1 14 46
M  V30 50 1 15 47
M  V30 51 1 15 48
M  V30 52 1 16 49
M  V30 53 1 18 50
M  V30 54 1 18 51
M  V30 55 1 20 52
M  V30 56 1 20 53
M  V30 57 1 20 54
M  V30 58 1 21 55
M  V30 59 1 21 56
M  V30 60 1 26 57
M  V30 61 1 26 58
M  V30 62 1 28 59
M  V30 63 1 28 60
M  V30 64 1 29 61
M  V30 65 1 30 62
M  V30 66 1 30 63
M  V30 67 1 31 64
M  V30 68 1 31 65
M  V30 69 1 32 66
M  V30 70 1 32 67
M  V30 71 1 32 68
M  V30 END BOND
M  V30 END CTAB
M  END
>  <NO.>
1509

>  <Name>
prednival

>  <SMILES>
CCCCC(=O)OC1(C(=O)CO)CCC2C3CCC4=CC(=O)C=CC4(C)C3C(O)CC21C

>  <logBB>


>  <Class>
1

>  <MW>
444.25

>  <nHBAcc>
6

>  <nHBDon>
2

>  <SLogP>
3.3

>  <TopoPSA>
100.9

>  <MMFF94 Energy>
105.12

$$$$
CCCCC(=O)O[C@]1(C(=O)CO)CCC2C3CC(F)C4=CC(=O)C=CC4(C)C3C(O)CC21C
Actelion Java MolfileCreator 2.0

  0  0  0  0  0  0              0 V3000
M  V30 BEGIN CTAB
M  V30 COUNTS 68 71 0 0 0
M  V30 BEGIN ATOM
M  V30 1 F 1.7713 -4.0292 2.8998 0
M  V30 2 C 0.4968 -3.7267 3.2703 0
M  V30 3 C -0.4923 -4.401 2.3604 0
M  V30 4 C 0.3229 -2.2161 3.224 0
M  V30 5 C -1.3561 -5.2977 2.8726 0
M  V30 6 C -0.4921 -3.9545 0.8869 0
M  V30 7 C 0.4173 -1.6801 1.7859 0
M  V30 8 C -2.4053 -5.9333 2.054 0
M  V30 9 C -1.6208 -4.6489 0.1272 0
M  V30 10 C -0.638 -2.3732 0.8513 0
M  V30 11 C 0.8099 -4.4303 0.2016 0
M  V30 12 C 0.2145 -0.1591 1.7551 0
M  V30 13 O -3.183 -6.746 2.5367 0
M  V30 14 C -2.482 -5.5377 0.6392 0
M  V30 15 C -0.6147 -1.7271 -0.5706 0
M  V30 16 C 0.3748 0.4581 0.3496 0
M  V30 17 C 1.1237 0.7016 2.6239 0
M  V30 18 O -1.7168 -2.1697 -1.3609 0
M  V30 19 C -0.6755 -0.1831 -0.5671 0
M  V30 20 C 0.2347 1.9957 0.671 0 CFG=1
M  V30 21 C 1.7787 0.1859 -0.2762 0
M  V30 22 C 1.0373 2.1097 2.0109 0
M  V30 23 O 0.9403 2.8113 -0.2882 0
M  V30 24 C -1.1979 2.5315 0.994 0
M  V30 25 C 0.3687 3.0241 -1.5054 0
M  V30 26 O -2.1481 1.8043 1.3003 0
M  V30 27 C -1.3843 4.0496 1.0123 0
M  V30 28 O -0.7611 2.6768 -1.8069 0
M  V30 29 C 1.3302 3.7774 -2.3921 0
M  V30 30 O -2.4738 4.4222 1.8456 0
M  V30 31 C 0.776 3.961 -3.8034 0
M  V30 32 C 1.7633 4.7124 -4.695 0
M  V30 33 C 1.2147 4.8977 -6.1008 0
M  V30 34 H 0.3879 -4.0654 4.3068 0
M  V30 35 H -0.6423 -1.9372 3.6659 0
M  V30 36 H 1.1085 -1.7598 3.8373 0
M  V30 37 H -1.3508 -5.5938 3.916 0
M  V30 38 H 1.4259 -1.9084 1.4262 0
M  V30 39 H -1.7053 -4.4437 -0.9382 0
M  V30 40 H -1.6347 -2.1529 1.2682 0
M  V30 41 H 1.6991 -3.9112 0.5691 0
M  V30 42 H 0.7792 -4.2742 -0.8832 0
M  V30 43 H 0.9739 -5.5034 0.3639 0
M  V30 44 H -0.8095 0.0113 2.1141 0
M  V30 45 H -3.2494 -6.0148 0.042 0
M  V30 46 H 0.2881 -2.0429 -1.1009 0
M  V30 47 H 0.7996 0.708 3.6701 0
M  V30 48 H 2.1586 0.342 2.6036 0
M  V30 49 H -2.534 -1.8211 -0.9606 0
M  V30 50 H -1.6892 0.1151 -0.2823 0
M  V30 51 H -0.5595 0.1675 -1.5996 0
M  V30 52 H 1.8335 0.5837 -1.2958 0
M  V30 53 H 2.0154 -0.8783 -0.349 0
M  V30 54 H 2.5897 0.6496 0.2941 0
M  V30 55 H 2.0471 2.505 1.8455 0
M  V30 56 H 0.556 2.7878 2.7255 0
M  V30 57 H -0.4867 4.5367 1.4001 0
M  V30 58 H -1.5878 4.4078 0.0011 0
M  V30 59 H 2.2685 3.2131 -2.4357 0
M  V30 60 H 1.5211 4.7548 -1.9353 0
M  V30 61 H -3.1614 3.7397 1.7084 0
M  V30 62 H -0.1733 4.5096 -3.7589 0
M  V30 63 H 0.5523 2.9806 -4.2424 0
M  V30 64 H 1.9824 5.6955 -4.2621 0
M  V30 65 H 2.7101 4.1626 -4.7482 0
M  V30 66 H 1.9369 5.4373 -6.7215 0
M  V30 67 H 1.0147 3.9312 -6.5744 0
M  V30 68 H 0.2831 5.4726 -6.0859 0
M  V30 END ATOM
M  V30 BEGIN BOND
M  V30 1 1 1 2
M  V30 2 1 2 3
M  V30 3 1 2 4
M  V30 4 2 3 5
M  V30 5 1 3 6
M  V30 6 1 4 7
M  V30 7 1 5 8
M  V30 8 1 6 9
M  V30 9 1 6 10
M  V30 10 1 6 11
M  V30 11 1 7 12
M  V30 12 2 8 13
M  V30 13 1 8 14
M  V30 14 1 10 15
M  V30 15 1 12 16
M  V30 16 1 12 17
M  V30 17 1 15 18
M  V30 18 1 15 19
M  V30 19 1 16 20
M  V30 20 1 16 21
M  V30 21 1 17 22
M  V30 22 1 20 23
M  V30 23 1 20 24
M  V30 24 1 23 25
M  V30 25 2 24 26
M  V30 26 1 24 27
M  V30 27 2 25 28
M  V30 28 1 25 29
M  V30 29 1 27 30
M  V30 30 1 29 31
M  V30 31 1 31 32
M  V30 32 1 32 33
M  V30 33 1 7 10
M  V30 34 2 9 14
M  V30 35 1 16 19
M  V30 36 1 20 22
M  V30 37 1 2 34
M  V30 38 1 4 35
M  V30 39 1 4 36
M  V30 40 1 5 37
M  V30 41 1 7 38
M  V30 42 1 9 39
M  V30 43 1 10 40
M  V30 44 1 11 41
M  V30 45 1 11 42
M  V30 46 1 11 43
M  V30 47 1 12 44
M  V30 48 1 14 45
M  V30 49 1 15 46
M  V30 50 1 17 47
M  V30 51 1 17 48
M  V30 52 1 18 49
M  V30 53 1 19 50
M  V30 54 1 19 51
M  V30 55 1 21 52
M  V30 56 1 21 53
M  V30 57 1 21 54
M  V30 58 1 22 55
M  V30 59 1 22 56
M  V30 60 1 27 57
M  V30 61 1 27 58
M  V30 62 1 29 59
M  V30 63 1 29 60
M  V30 64 1 30 61
M  V30 65 1 31 62
M  V30 66 1 31 63
M  V30 67 1 32 64
M  V30 68 1 32 65
M  V30 69 1 33 66
M  V30 70 1 33 67
M  V30 71 1 33 68
M  V30 END BOND
M  V30 BEGIN COLLECTION
M  V30 MDLV30/STEABS ATOMS=(1 20)
M  V30 END COLLECTION
M  V30 END CTAB
M  END
>  <NO.>
1510

>  <Name>
fluprednisolone-valerate

>  <SMILES>
CCCCC(=O)O[C@]1(C(=O)CO)CCC2C3CC(F)C4=CC(=O)C=CC4(C)C3C(O)CC21C

>  <logBB>


>  <Class>
1

>  <MW>
462.24

>  <nHBAcc>
6

>  <nHBDon>
2

>  <SLogP>
3.25

>  <TopoPSA>
100.9

>  <MMFF94 Energy>
105.42

$$$$
CCCCC(=O)O[C@]1(C(=O)CO)CCC2C3CCC4=CC(=O)CCC4(C)C3C(O)CC21C
Actelion Java MolfileCreator 2.0

  0  0  0  0  0  0              0 V3000
M  V30 BEGIN CTAB
M  V30 COUNTS 70 73 0 0 0
M  V30 BEGIN ATOM
M  V30 1 O 0.6411 -1.2024 -7.2312 0
M  V30 2 C 1.0952 -0.9536 -6.1167 0
M  V30 3 C 1.1866 -2.0336 -5.1058 0
M  V30 4 C 1.6576 0.3994 -5.7625 0
M  V30 5 C 1.6576 -1.8079 -3.8655 0
M  V30 6 C 1.4441 0.6783 -4.2806 0
M  V30 7 C 2.0341 -0.4192 -3.3447 0
M  V30 8 C 1.8905 -2.9722 -2.935 0
M  V30 9 C 1.5765 -0.1825 -1.84 0
M  V30 10 C 3.5834 -0.3089 -3.4043 0
M  V30 11 C 1.3418 -2.7226 -1.5374 0
M  V30 12 C 0.121 0.3046 -1.6411 0
M  V30 13 C 1.8831 -1.4132 -0.9388 0
M  V30 14 O -0.8113 -0.5913 -2.2191 0
M  V30 15 C -0.2091 0.5744 -0.167 0
M  V30 16 C 1.4565 -1.2286 0.5384 0
M  V30 17 C 0.0693 -0.5962 0.8235 0
M  V30 18 C 2.4619 -0.3351 1.296 0
M  V30 19 C 0.2307 -0.0496 2.3057 0 CFG=1
M  V30 20 C -1.0798 -1.6169 0.7083 0
M  V30 21 C 1.6674 0.5249 2.2724 0
M  V30 22 O -0.6288 1.0855 2.545 0
M  V30 23 C 0.2586 -1.1111 3.4557 0
M  V30 24 C -1.9296 0.8846 2.8848 0
M  V30 25 O 0.503 -2.308 3.2724 0
M  V30 26 C 0.0901 -0.6007 4.887 0
M  V30 27 O -2.4222 -0.2026 3.1347 0
M  V30 28 C -2.6464 2.2126 2.9448 0
M  V30 29 O 0.8012 -1.4232 5.8036 0
M  V30 30 C -4.1521 2.0343 3.1351 0
M  V30 31 C -4.9315 3.3484 3.0611 0
M  V30 32 C -4.5978 4.3149 4.187 0
M  V30 33 H 0.9147 -3.0218 -5.4598 0
M  V30 34 H 2.7142 0.4311 -6.0429 0
M  V30 35 H 1.1279 1.1583 -6.3493 0
M  V30 36 H 0.3591 0.7521 -4.1484 0
M  V30 37 H 1.86 1.6608 -4.0257 0
M  V30 38 H 2.9691 -3.1631 -2.8725 0
M  V30 39 H 1.4405 -3.8915 -3.3298 0
M  V30 40 H 2.1972 0.6445 -1.4644 0
M  V30 41 H 3.9716 -0.5111 -4.4087 0
M  V30 42 H 3.9143 0.6968 -3.1205 0
M  V30 43 H 4.0801 -1.0154 -2.7321 0
M  V30 44 H 1.628 -3.5657 -0.8962 0
M  V30 45 H 0.2526 -2.7325 -1.5852 0
M  V30 46 H -0.0063 1.2651 -2.1529 0
M  V30 47 H 2.9749 -1.538 -0.9165 0
M  V30 48 H -1.7038 -0.2227 -2.1035 0
M  V30 49 H -1.2639 0.8691 -0.0873 0
M  V30 50 H 0.371 1.4579 0.1242 0
M  V30 51 H 1.502 -2.2172 1.014 0
M  V30 52 H 3.1793 -0.9648 1.8356 0
M  V30 53 H 3.0486 0.3085 0.6324 0
M  V30 54 H -0.9575 -2.4687 1.3808 0
M  V30 55 H -1.1729 -2.0357 -0.2923 0
M  V30 56 H -2.0471 -1.1563 0.925 0
M  V30 57 H 2.1523 0.5338 3.2553 0
M  V30 58 H 1.67 1.5696 1.9366 0
M  V30 59 H 0.4799 0.4153 4.98 0
M  V30 60 H -0.9657 -0.6152 5.1636 0
M  V30 61 H -2.4573 2.7453 2.006 0
M  V30 62 H -2.2191 2.7842 3.7748 0
M  V30 63 H 0.6726 -2.3415 5.4902 0
M  V30 64 H -4.3492 1.5414 4.0954 0
M  V30 65 H -4.5372 1.3606 2.3589 0
M  V30 66 H -4.7501 3.836 2.0963 0
M  V30 67 H -6.0031 3.1199 3.104 0
M  V30 68 H -5.2505 5.1923 4.1345 0
M  V30 69 H -4.7415 3.8442 5.1647 0
M  V30 70 H -3.5644 4.667 4.1202 0
M  V30 END ATOM
M  V30 BEGIN BOND
M  V30 1 2 1 2
M  V30 2 1 2 3
M  V30 3 1 2 4
M  V30 4 2 3 5
M  V30 5 1 4 6
M  V30 6 1 5 7
M  V30 7 1 5 8
M  V30 8 1 7 9
M  V30 9 1 7 10
M  V30 10 1 8 11
M  V30 11 1 9 12
M  V30 12 1 9 13
M  V30 13 1 12 14
M  V30 14 1 12 15
M  V30 15 1 13 16
M  V30 16 1 15 17
M  V30 17 1 16 18
M  V30 18 1 17 19
M  V30 19 1 17 20
M  V30 20 1 18 21
M  V30 21 1 19 22
M  V30 22 1 19 23
M  V30 23 1 22 24
M  V30 24 2 23 25
M  V30 25 1 23 26
M  V30 26 2 24 27
M  V30 27 1 24 28
M  V30 28 1 26 29
M  V30 29 1 28 30
M  V30 30 1 30 31
M  V30 31 1 31 32
M  V30 32 1 6 7
M  V30 33 1 11 13
M  V30 34 1 16 17
M  V30 35 1 19 21
M  V30 36 1 3 33
M  V30 37 1 4 34
M  V30 38 1 4 35
M  V30 39 1 6 36
M  V30 40 1 6 37
M  V30 41 1 8 38
M  V30 42 1 8 39
M  V30 43 1 9 40
M  V30 44 1 10 41
M  V30 45 1 10 42
M  V30 46 1 10 43
M  V30 47 1 11 44
M  V30 48 1 11 45
M  V30 49 1 12 46
M  V30 50 1 13 47
M  V30 51 1 14 48
M  V30 52 1 15 49
M  V30 53 1 15 50
M  V30 54 1 16 51
M  V30 55 1 18 52
M  V30 56 1 18 53
M  V30 57 1 20 54
M  V30 58 1 20 55
M  V30 59 1 20 56
M  V30 60 1 21 57
M  V30 61 1 21 58
M  V30 62 1 26 59
M  V30 63 1 26 60
M  V30 64 1 28 61
M  V30 65 1 28 62
M  V30 66 1 29 63
M  V30 67 1 30 64
M  V30 68 1 30 65
M  V30 69 1 31 66
M  V30 70 1 31 67
M  V30 71 1 32 68
M  V30 72 1 32 69
M  V30 73 1 32 70
M  V30 END BOND
M  V30 BEGIN COLLECTION
M  V30 MDLV30/STEABS ATOMS=(1 19)
M  V30 END COLLECTION
M  V30 END CTAB
M  END
>  <NO.>
1511

>  <Name>
hydrocortisone-hemisuccinate

>  <SMILES>
CCCCC(=O)O[C@]1(C(=O)CO)CCC2C3CCC4=CC(=O)CCC4(C)C3C(O)CC21C

>  <logBB>


>  <Class>
1

>  <MW>
446.27

>  <nHBAcc>
6

>  <nHBDon>
2

>  <SLogP>
3.52

>  <TopoPSA>
100.9

>  <MMFF94 Energy>
110.62

$$$$
CCCCC(=O)O[C@]1(C(=O)CO)[C@@H](C)C[C@H]2[C@@H]3CCC4=CC(=O)C=C[C@]4(C)[C@@]3(F)[C@@H](O)C[C@@]21C
Actelion Java MolfileCreator 2.0

  0  0  0  0  0  0              0 V3000
M  V30 BEGIN CTAB
M  V30 COUNTS 71 74 0 0 0
M  V30 BEGIN ATOM
M  V30 1 F -2.173 0.9653 0.1608 0
M  V30 2 C -2.4501 -0.2921 -0.3582 0 CFG=2
M  V30 3 C -3.9946 -0.2959 -0.7104 0 CFG=2
M  V30 4 C -2.0132 -1.2849 0.7632 0 CFG=1
M  V30 5 C -1.5559 -0.4254 -1.636 0 CFG=2
M  V30 6 C -4.2314 0.7812 -1.7853 0
M  V30 7 C -4.8377 -0.0143 0.5337 0
M  V30 8 C -4.5058 -1.6426 -1.2726 0
M  V30 9 O -2.4127 -2.6234 0.4923 0
M  V30 10 C -0.4929 -1.2461 1.0451 0
M  V30 11 C -0.0781 -0.3123 -1.2259 0 CFG=1
M  V30 12 C -1.9084 0.6564 -2.6751 0
M  V30 13 C -5.0868 1.8089 -1.6382 0
M  V30 14 C -3.3911 0.6614 -3.0304 0
M  V30 15 C -5.6875 1.0115 0.6757 0
M  V30 16 C 0.3788 -1.3986 -0.2243 0 CFG=1
M  V30 17 C 0.9842 -0.3864 -2.3133 0
M  V30 18 C -5.8808 1.994 -0.4068 0
M  V30 19 C 1.9126 -1.0187 -0.0662 0 CFG=1
M  V30 20 C 0.2317 -2.839 -0.7911 0
M  V30 21 C 2.3085 -0.5357 -1.5219 0 CFG=1
M  V30 22 O -6.6674 2.9251 -0.2887 0
M  V30 23 O 1.9594 0.1559 0.7977 0
M  V30 24 C 2.7053 -2.2109 0.5482 0
M  V30 25 C 3.3188 -1.3582 -2.3112 0
M  V30 26 C 3.172 0.7114 1.0783 0
M  V30 27 O 3.1816 -3.132 -0.1236 0
M  V30 28 C 2.8044 -2.2886 2.0698 0
M  V30 29 O 4.2417 0.2354 0.7342 0
M  V30 30 C 2.976 1.9746 1.8817 0
M  V30 31 O 2.8418 -3.6421 2.5035 0
M  V30 32 C 4.3095 2.6048 2.2809 0
M  V30 33 C 4.1548 3.8191 3.1983 0
M  V30 34 C 3.456 4.9955 2.5342 0
M  V30 35 H -2.5065 -0.9937 1.6978 0
M  V30 36 H -1.7311 -1.3971 -2.1082 0
M  V30 37 H -4.7597 -0.7208 1.3572 0
M  V30 38 H -5.5016 -1.5303 -1.722 0
M  V30 39 H -4.6102 -2.4065 -0.4945 0
M  V30 40 H -3.8509 -2.0523 -2.0472 0
M  V30 41 H -2.1572 -3.1751 1.2539 0
M  V30 42 H -0.2365 -2.036 1.7609 0
M  V30 43 H -0.2786 -0.2903 1.5383 0
M  V30 44 H 0.0356 0.6757 -0.7514 0
M  V30 45 H -1.6232 1.6463 -2.2944 0
M  V30 46 H -1.3321 0.4951 -3.5937 0
M  V30 47 H -5.2315 2.5678 -2.3988 0
M  V30 48 H -3.5862 1.4884 -3.7242 0
M  V30 49 H -3.653 -0.2566 -3.5686 0
M  V30 50 H -6.2747 1.1633 1.5732 0
M  V30 51 H 1.0034 0.5199 -2.9281 0
M  V30 52 H 0.8091 -1.2333 -2.9862 0
M  V30 53 H 0.4143 -3.5838 -0.0078 0
M  V30 54 H -0.7604 -3.0446 -1.1964 0
M  V30 55 H 0.9341 -3.047 -1.6024 0
M  V30 56 H 2.7295 0.4764 -1.4544 0
M  V30 57 H 3.5181 -0.8833 -3.2786 0
M  V30 58 H 2.9593 -2.3699 -2.5184 0
M  V30 59 H 4.2734 -1.4224 -1.7799 0
M  V30 60 H 3.7204 -1.7933 2.4001 0
M  V30 61 H 1.9434 -1.814 2.5424 0
M  V30 62 H 2.4038 1.7207 2.781 0
M  V30 63 H 2.394 2.6708 1.2692 0
M  V30 64 H 3.4241 -4.107 1.8684 0
M  V30 65 H 4.8696 2.8895 1.3813 0
M  V30 66 H 4.9218 1.8567 2.8005 0
M  V30 67 H 3.6081 3.5347 4.1049 0
M  V30 68 H 5.1526 4.1421 3.5184 0
M  V30 69 H 3.4597 5.8614 3.2043 0
M  V30 70 H 3.9633 5.2822 1.6077 0
M  V30 71 H 2.4128 4.7628 2.3007 0
M  V30 END ATOM
M  V30 BEGIN BOND
M  V30 1 1 1 2
M  V30 2 1 2 3
M  V30 3 1 2 4
M  V30 4 1 2 5
M  V30 5 1 3 6
M  V30 6 1 3 7
M  V30 7 1 3 8
M  V30 8 1 4 9
M  V30 9 1 4 10
M  V30 10 1 5 11
M  V30 11 1 5 12
M  V30 12 2 6 13
M  V30 13 1 6 14
M  V30 14 2 7 15
M  V30 15 1 10 16
M  V30 16 1 11 17
M  V30 17 1 13 18
M  V30 18 1 16 19
M  V30 19 1 16 20
M  V30 20 1 17 21
M  V30 21 2 18 22
M  V30 22 1 19 23
M  V30 23 1 19 24
M  V30 24 1 21 25
M  V30 25 1 23 26
M  V30 26 2 24 27
M  V30 27 1 24 28
M  V30 28 2 26 29
M  V30 29 1 26 30
M  V30 30 1 28 31
M  V30 31 1 30 32
M  V30 32 1 32 33
M  V30 33 1 33 34
M  V30 34 1 11 16
M  V30 35 1 12 14
M  V30 36 1 15 18
M  V30 37 1 19 21
M  V30 38 1 4 35
M  V30 39 1 5 36
M  V30 40 1 7 37
M  V30 41 1 8 38
M  V30 42 1 8 39
M  V30 43 1 8 40
M  V30 44 1 9 41
M  V30 45 1 10 42
M  V30 46 1 10 43
M  V30 47 1 11 44
M  V30 48 1 12 45
M  V30 49 1 12 46
M  V30 50 1 13 47
M  V30 51 1 14 48
M  V30 52 1 14 49
M  V30 53 1 15 50
M  V30 54 1 17 51
M  V30 55 1 17 52
M  V30 56 1 20 53
M  V30 57 1 20 54
M  V30 58 1 20 55
M  V30 59 1 21 56
M  V30 60 1 25 57
M  V30 61 1 25 58
M  V30 62 1 25 59
M  V30 63 1 28 60
M  V30 64 1 28 61
M  V30 65 1 30 62
M  V30 66 1 30 63
M  V30 67 1 31 64
M  V30 68 1 32 65
M  V30 69 1 32 66
M  V30 70 1 33 67
M  V30 71 1 33 68
M  V30 72 1 34 69
M  V30 73 1 34 70
M  V30 74 1 34 71
M  V30 END BOND
M  V30 BEGIN COLLECTION
M  V30 MDLV30/STEABS ATOMS=(8 2 3 4 5 11 16 19 21)
M  V30 END COLLECTION
M  V30 END CTAB
M  END
>  <NO.>
1512

>  <Name>
betamethasone valerate

>  <SMILES>
CCCCC(=O)O[C@]1(C(=O)CO)[C@@H](C)C[C@H]2[C@@H]3CCC4=CC(=O)C=C[C@]4(C)[C@@]3(F)[C@@H](O)C[C@@]21C

>  <logBB>


>  <Class>
1

>  <MW>
476.26

>  <nHBAcc>
6

>  <nHBDon>
2

>  <SLogP>
3.64

>  <TopoPSA>
100.9

>  <MMFF94 Energy>
155.03

$$$$
CCCCC(CC)CNC(=O)CC(C)O
Actelion Java MolfileCreator 2.0

  0  0  0  0  0  0              0 V3000
M  V30 BEGIN CTAB
M  V30 COUNTS 40 39 0 0 0
M  V30 BEGIN ATOM
M  V30 1 O 2.2321 1.77 -0.3076 0
M  V30 2 C 1.7523 0.8486 -0.961 0
M  V30 3 N 0.7425 0.0319 -0.5012 0
M  V30 4 C 2.25 0.467 -2.3412 0
M  V30 5 C 0.1244 0.2364 0.7947 0
M  V30 6 C 3.0981 1.5523 -3.0059 0
M  V30 7 C -0.4663 -1.0594 1.3805 0
M  V30 8 O 4.2521 1.849 -2.2241 0
M  V30 9 C 2.3309 2.8359 -3.2985 0
M  V30 10 C -1.5152 -0.7561 2.4788 0
M  V30 11 C 0.6194 -1.9754 1.998 0
M  V30 12 C -2.7543 0.0391 2.0472 0
M  V30 13 C 1.6448 -2.5118 1.0105 0
M  V30 14 C -3.5258 -0.602 0.8939 0
M  V30 15 C -4.8171 0.1487 0.6051 0
M  V30 16 H 0.358 -0.6731 -1.1167 0
M  V30 17 H 2.8541 -0.4396 -2.2131 0
M  V30 18 H 1.3944 0.2185 -2.9796 0
M  V30 19 H 0.8481 0.6819 1.4869 0
M  V30 20 H -0.6532 0.984 0.6164 0
M  V30 21 H 3.4654 1.1545 -3.9589 0
M  V30 22 H -0.9586 -1.6272 0.5812 0
M  V30 23 H 3.9283 2.1618 -1.3522 0
M  V30 24 H 1.4455 2.6379 -3.9101 0
M  V30 25 H 2.9728 3.5427 -3.8359 0
M  V30 26 H 2.0181 3.3435 -2.3807 0
M  V30 27 H -1.0298 -0.2125 3.3001 0
M  V30 28 H -1.8629 -1.7063 2.9057 0
M  V30 29 H 0.1272 -2.8392 2.463 0
M  V30 30 H 1.1431 -1.4455 2.8035 0
M  V30 31 H -2.4766 1.0657 1.7842 0
M  V30 32 H -3.4174 0.1226 2.9181 0
M  V30 33 H 2.2553 -3.284 1.4904 0
M  V30 34 H 2.3272 -1.7271 0.6732 0
M  V30 35 H 1.1593 -2.96 0.1383 0
M  V30 36 H -2.9155 -0.6064 -0.0154 0
M  V30 37 H -3.7623 -1.6443 1.1365 0
M  V30 38 H -5.3512 -0.3221 -0.226 0
M  V30 39 H -5.4774 0.145 1.4783 0
M  V30 40 H -4.613 1.1891 0.3324 0
M  V30 END ATOM
M  V30 BEGIN BOND
M  V30 1 2 1 2
M  V30 2 1 2 3
M  V30 3 1 2 4
M  V30 4 1 3 5
M  V30 5 1 4 6
M  V30 6 1 5 7
M  V30 7 1 6 8
M  V30 8 1 6 9
M  V30 9 1 7 10
M  V30 10 1 7 11
M  V30 11 1 10 12
M  V30 12 1 11 13
M  V30 13 1 12 14
M  V30 14 1 14 15
M  V30 15 1 3 16
M  V30 16 1 4 17
M  V30 17 1 4 18
M  V30 18 1 5 19
M  V30 19 1 5 20
M  V30 20 1 6 21
M  V30 21 1 7 22
M  V30 22 1 8 23
M  V30 23 1 9 24
M  V30 24 1 9 25
M  V30 25 1 9 26
M  V30 26 1 10 27
M  V30 27 1 10 28
M  V30 28 1 11 29
M  V30 29 1 11 30
M  V30 30 1 12 31
M  V30 31 1 12 32
M  V30 32 1 13 33
M  V30 33 1 13 34
M  V30 34 1 13 35
M  V30 35 1 14 36
M  V30 36 1 14 37
M  V30 37 1 15 38
M  V30 38 1 15 39
M  V30 39 1 15 40
M  V30 END BOND
M  V30 END CTAB
M  END
>  <NO.>
1513

>  <Name>
butoctamide

>  <SMILES>
CCCCC(CC)CNC(=O)CC(C)O

>  <logBB>


>  <Class>
1

>  <MW>
215.19

>  <nHBAcc>
2

>  <nHBDon>
2

>  <SLogP>
2.09

>  <TopoPSA>
49.33

>  <MMFF94 Energy>
-16.663

$$$$
CCCCC/C(=N\OCCN)c1ccc(C)c(N)c1
Actelion Java MolfileCreator 2.0

  0  0  0  0  0  0              0 V3000
M  V30 BEGIN CTAB
M  V30 COUNTS 44 44 0 0 0
M  V30 BEGIN ATOM
M  V30 1 O 2.1749 0.2328 1.864 0
M  V30 2 N 0.8322 -0.0534 1.5767 0
M  V30 3 C 2.2697 0.8106 3.1694 0
M  V30 4 C 0.6741 -0.5308 0.3724 0
M  V30 5 C 2.397 -0.28 4.2409 0
M  V30 6 C -0.7172 -0.9247 -0.0526 0
M  V30 7 C 1.8435 -0.7194 -0.598 0
M  V30 8 N 1.168 -1.0697 4.4045 0
M  V30 9 C -1.7318 -0.961 0.9185 0
M  V30 10 C -1.0453 -1.251 -1.3691 0
M  V30 11 C 2.349 0.5972 -1.1956 0
M  V30 12 C -3.0471 -1.3313 0.6031 0
M  V30 13 C -2.3566 -1.602 -1.7028 0
M  V30 14 C 1.3822 1.219 -2.2051 0
M  V30 15 N -4.0088 -1.319 1.6019 0
M  V30 16 C -3.3656 -1.64 -0.7284 0
M  V30 17 C 1.9555 2.5048 -2.8026 0
M  V30 18 C -4.7639 -2.0132 -1.1379 0
M  V30 19 C 0.9976 3.1268 -3.8064 0
M  V30 20 H 1.4208 1.4782 3.3635 0
M  V30 21 H 3.1757 1.4258 3.1782 0
M  V30 22 H 2.648 0.1762 5.2039 0
M  V30 23 H 3.2055 -0.9679 3.9711 0
M  V30 24 H 1.6039 -1.4331 -1.3896 0
M  V30 25 H 2.6619 -1.1925 -0.04 0
M  V30 26 H 0.4146 -0.4414 4.6839 0
M  V30 27 H 0.8926 -1.361 3.4579 0
M  V30 28 H -1.4968 -0.7005 1.9481 0
M  V30 29 H -0.3149 -1.2281 -2.1694 0
M  V30 30 H 3.3055 0.4001 -1.6956 0
M  V30 31 H 2.554 1.325 -0.4024 0
M  V30 32 H -2.5879 -1.842 -2.7389 0
M  V30 33 H 0.427 1.4448 -1.7176 0
M  V30 34 H 1.1809 0.5032 -3.0106 0
M  V30 35 H -3.7384 -1.1595 2.5632 0
M  V30 36 H -4.9442 -1.6555 1.4253 0
M  V30 37 H 2.1593 3.228 -2.0043 0
M  V30 38 H 2.9091 2.2921 -3.2996 0
M  V30 39 H -5.4571 -1.1966 -0.911 0
M  V30 40 H -5.083 -2.9204 -0.6147 0
M  V30 41 H -4.8303 -2.2117 -2.2129 0
M  V30 42 H 1.4266 4.0443 -4.2213 0
M  V30 43 H 0.7974 2.4401 -4.6351 0
M  V30 44 H 0.044 3.3815 -3.3329 0
M  V30 END ATOM
M  V30 BEGIN BOND
M  V30 1 1 1 2
M  V30 2 1 1 3
M  V30 3 2 2 4
M  V30 4 1 3 5
M  V30 5 1 4 6
M  V30 6 1 4 7
M  V30 7 1 5 8
M  V30 8 2 6 9
M  V30 9 1 6 10
M  V30 10 1 7 11
M  V30 11 1 9 12
M  V30 12 2 10 13
M  V30 13 1 11 14
M  V30 14 1 12 15
M  V30 15 2 12 16
M  V30 16 1 14 17
M  V30 17 1 16 18
M  V30 18 1 17 19
M  V30 19 1 13 16
M  V30 20 1 3 20
M  V30 21 1 3 21
M  V30 22 1 5 22
M  V30 23 1 5 23
M  V30 24 1 7 24
M  V30 25 1 7 25
M  V30 26 1 8 26
M  V30 27 1 8 27
M  V30 28 1 9 28
M  V30 29 1 10 29
M  V30 30 1 11 30
M  V30 31 1 11 31
M  V30 32 1 13 32
M  V30 33 1 14 33
M  V30 34 1 14 34
M  V30 35 1 15 35
M  V30 36 1 15 36
M  V30 37 1 17 37
M  V30 38 1 17 38
M  V30 39 1 18 39
M  V30 40 1 18 40
M  V30 41 1 18 41
M  V30 42 1 19 42
M  V30 43 1 19 43
M  V30 44 1 19 44
M  V30 END BOND
M  V30 END CTAB
M  END
>  <NO.>
1514

>  <Name>
caproxamine

>  <SMILES>
CCCCC/C(=N\OCCN)c1ccc(C)c(N)c1

>  <logBB>


>  <Class>
1

>  <MW>
263.2

>  <nHBAcc>
4

>  <nHBDon>
2

>  <SLogP>
2.84

>  <TopoPSA>
73.63

>  <MMFF94 Energy>
58.773

$$$$
CCCCC1(CCOC(N)=O)C(=O)NC(=O)NC1=O
Actelion Java MolfileCreator 2.0

  0  0  0  0  0  0              0 V3000
M  V30 BEGIN CTAB
M  V30 COUNTS 36 36 0 0 0
M  V30 BEGIN ATOM
M  V30 1 O 4.6247 2.1927 0.6261 0
M  V30 2 C 3.6848 1.5479 0.1751 0
M  V30 3 N 3.5802 0.2061 0.3659 0
M  V30 4 N 2.7294 2.1237 -0.6014 0
M  V30 5 C 2.6127 -0.6025 -0.1637 0
M  V30 6 C 1.6927 1.4701 -1.2078 0
M  V30 7 O 2.7815 -1.8186 -0.1818 0
M  V30 8 C 1.3382 0.093 -0.6443 0
M  V30 9 O 1.0679 2.0234 -2.11 0
M  V30 10 C 0.6691 -0.7526 -1.767 0
M  V30 11 C 0.4484 0.309 0.6134 0
M  V30 12 C -0.0129 -2.0618 -1.3506 0
M  V30 13 C -0.8308 1.126 0.379 0
M  V30 14 O -1.2903 -1.7686 -0.7708 0
M  V30 15 C -1.7278 1.1098 1.6184 0
M  V30 16 C -2.0019 -2.8566 -0.4039 0
M  V30 17 C -3.0014 1.9093 1.3946 0
M  V30 18 O -1.6602 -4.0214 -0.5179 0
M  V30 19 N -3.184 -2.4722 0.1247 0
M  V30 20 H 4.3654 -0.2472 0.8125 0
M  V30 21 H 2.8853 3.0862 -0.8677 0
M  V30 22 H -0.0773 -0.144 -2.2933 0
M  V30 23 H 1.4408 -0.9985 -2.5094 0
M  V30 24 H 1.0268 0.8222 1.3946 0
M  V30 25 H 0.1934 -0.6649 1.0501 0
M  V30 26 H -0.1743 -2.6682 -2.2502 0
M  V30 27 H 0.5881 -2.6387 -0.6433 0
M  V30 28 H -1.3909 0.7408 -0.4781 0
M  V30 29 H -0.5682 2.1645 0.1453 0
M  V30 30 H -1.9937 0.0774 1.8731 0
M  V30 31 H -1.186 1.5267 2.4754 0
M  V30 32 H -3.6264 1.8859 2.2928 0
M  V30 33 H -2.7733 2.9553 1.1664 0
M  V30 34 H -3.5833 1.495 0.565 0
M  V30 35 H -3.8295 -3.1788 0.4428 0
M  V30 36 H -3.4169 -1.4936 0.1833 0
M  V30 END ATOM
M  V30 BEGIN BOND
M  V30 1 2 1 2
M  V30 2 1 2 3
M  V30 3 1 2 4
M  V30 4 1 3 5
M  V30 5 1 4 6
M  V30 6 2 5 7
M  V30 7 1 5 8
M  V30 8 2 6 9
M  V30 9 1 8 10
M  V30 10 1 8 11
M  V30 11 1 10 12
M  V30 12 1 11 13
M  V30 13 1 12 14
M  V30 14 1 13 15
M  V30 15 1 14 16
M  V30 16 1 15 17
M  V30 17 2 16 18
M  V30 18 1 16 19
M  V30 19 1 6 8
M  V30 20 1 3 20
M  V30 21 1 4 21
M  V30 22 1 10 22
M  V30 23 1 10 23
M  V30 24 1 11 24
M  V30 25 1 11 25
M  V30 26 1 12 26
M  V30 27 1 12 27
M  V30 28 1 13 28
M  V30 29 1 13 29
M  V30 30 1 15 30
M  V30 31 1 15 31
M  V30 32 1 17 32
M  V30 33 1 17 33
M  V30 34 1 17 34
M  V30 35 1 19 35
M  V30 36 1 19 36
M  V30 END BOND
M  V30 END CTAB
M  END
>  <NO.>
1515

>  <Name>
carbubarb

>  <SMILES>
CCCCC1(CCOC(N)=O)C(=O)NC(=O)NC1=O

>  <logBB>


>  <Class>
1

>  <MW>
271.12

>  <nHBAcc>
5

>  <nHBDon>
3

>  <SLogP>
0.01

>  <TopoPSA>
127.59

>  <MMFF94 Energy>
-205.15

$$$$
CCCCCC(=O)CC[C@]1(C)[C@@H]2Cc3ccc(O)cc3[C@@]1(C)CCN2C
Actelion Java MolfileCreator 2.0

  0  0  0  0  0  0              0 V3000
M  V30 BEGIN CTAB
M  V30 COUNTS 61 63 0 0 0
M  V30 BEGIN ATOM
M  V30 1 O -0.9506 0.4752 2.616 0
M  V30 2 C -1.5282 0.9239 1.6276 0
M  V30 3 C -0.8489 1.0421 0.2691 0
M  V30 4 C -2.9724 1.3989 1.6787 0
M  V30 5 C 0.6041 0.5493 0.2942 0
M  V30 6 C -3.5916 1.2484 3.0664 0
M  V30 7 C 1.391 0.658 -1.0659 0 CFG=1
M  V30 8 C -5.0418 1.7331 3.0844 0
M  V30 9 C 2.8286 -0.0179 -0.951 0 CFG=1
M  V30 10 C 0.6752 -0.084 -2.2426 0 CFG=1
M  V30 11 C 1.4723 2.1778 -1.4056 0
M  V30 12 C -5.6614 1.5822 4.4735 0
M  V30 13 C 2.6962 -1.5382 -0.6815 0
M  V30 14 C 3.5851 0.1138 -2.3056 0
M  V30 15 C 3.685 0.6838 0.1331 0
M  V30 16 N 1.4102 0.1607 -3.5096 0
M  V30 17 C 0.4397 -1.5719 -1.8868 0
M  V30 18 C -7.1036 2.0631 4.4955 0
M  V30 19 C 1.5763 -2.2539 -1.1612 0
M  V30 20 C 3.705 -2.2612 -0.0177 0
M  V30 21 C 2.7729 -0.3762 -3.5087 0
M  V30 22 C 0.6791 -0.2662 -4.6992 0
M  V30 23 C 1.4749 -3.6394 -0.937 0
M  V30 24 C 3.588 -3.6332 0.1885 0
M  V30 25 C 2.478 -4.33 -0.2622 0
M  V30 26 O 4.6042 -4.2645 0.8442 0
M  V30 27 H -1.4427 0.4561 -0.4381 0
M  V30 28 H -0.894 2.0965 -0.0188 0
M  V30 29 H -2.9912 2.4513 1.3744 0
M  V30 30 H -3.5445 0.8139 0.9501 0
M  V30 31 H 1.137 1.1306 1.0584 0
M  V30 32 H 0.608 -0.4794 0.6699 0
M  V30 33 H -3.003 1.8172 3.797 0
M  V30 34 H -3.5497 0.197 3.3772 0
M  V30 35 H -5.6295 1.1612 2.356 0
M  V30 36 H -5.0815 2.7852 2.7768 0
M  V30 37 H -0.3133 0.3728 -2.3814 0
M  V30 38 H 2.1511 2.4024 -2.2318 0
M  V30 39 H 0.4921 2.5676 -1.7024 0
M  V30 40 H 1.8038 2.7665 -0.5438 0
M  V30 41 H -5.6281 0.5315 4.7842 0
M  V30 42 H -5.0801 2.1556 5.205 0
M  V30 43 H 4.5308 -0.4444 -2.2754 0
M  V30 44 H 3.8732 1.1588 -2.4752 0
M  V30 45 H 4.7319 0.3611 0.0971 0
M  V30 46 H 3.709 1.769 -0.0029 0
M  V30 47 H 3.3152 0.4764 1.1428 0
M  V30 48 H 0.1861 -2.1485 -2.7829 0
M  V30 49 H -0.4424 -1.6343 -1.2357 0
M  V30 50 H -7.527 1.9462 5.498 0
M  V30 51 H -7.1688 3.1207 4.2205 0
M  V30 52 H -7.7198 1.4876 3.7974 0
M  V30 53 H 4.6049 -1.7756 0.3466 0
M  V30 54 H 3.2951 -0.047 -4.4162 0
M  V30 55 H 2.7693 -1.4722 -3.5446 0
M  V30 56 H 0.6027 -1.3546 -4.7855 0
M  V30 57 H -0.3322 0.1548 -4.7077 0
M  V30 58 H 1.1766 0.1063 -5.6018 0
M  V30 59 H 0.6038 -4.1861 -1.2923 0
M  V30 60 H 2.3771 -5.3983 -0.1039 0
M  V30 61 H 4.3686 -5.2007 0.9478 0
M  V30 END ATOM
M  V30 BEGIN BOND
M  V30 1 2 1 2
M  V30 2 1 2 3
M  V30 3 1 2 4
M  V30 4 1 3 5
M  V30 5 1 4 6
M  V30 6 1 5 7
M  V30 7 1 6 8
M  V30 8 1 7 9
M  V30 9 1 7 10
M  V30 10 1 7 11
M  V30 11 1 8 12
M  V30 12 1 9 13
M  V30 13 1 9 14
M  V30 14 1 9 15
M  V30 15 1 10 16
M  V30 16 1 10 17
M  V30 17 1 12 18
M  V30 18 2 13 19
M  V30 19 1 13 20
M  V30 20 1 14 21
M  V30 21 1 16 22
M  V30 22 1 19 23
M  V30 23 2 20 24
M  V30 24 2 23 25
M  V30 25 1 24 26
M  V30 26 1 16 21
M  V30 27 1 17 19
M  V30 28 1 24 25
M  V30 29 1 3 27
M  V30 30 1 3 28
M  V30 31 1 4 29
M  V30 32 1 4 30
M  V30 33 1 5 31
M  V30 34 1 5 32
M  V30 35 1 6 33
M  V30 36 1 6 34
M  V30 37 1 8 35
M  V30 38 1 8 36
M  V30 39 1 10 37
M  V30 40 1 11 38
M  V30 41 1 11 39
M  V30 42 1 11 40
M  V30 43 1 12 41
M  V30 44 1 12 42
M  V30 45 1 14 43
M  V30 46 1 14 44
M  V30 47 1 15 45
M  V30 48 1 15 46
M  V30 49 1 15 47
M  V30 50 1 17 48
M  V30 51 1 17 49
M  V30 52 1 18 50
M  V30 53 1 18 51
M  V30 54 1 18 52
M  V30 55 1 20 53
M  V30 56 1 21 54
M  V30 57 1 21 55
M  V30 58 1 22 56
M  V30 59 1 22 57
M  V30 60 1 22 58
M  V30 61 1 23 59
M  V30 62 1 25 60
M  V30 63 1 26 61
M  V30 END BOND
M  V30 BEGIN COLLECTION
M  V30 MDLV30/STEABS ATOMS=(3 7 9 10)
M  V30 END COLLECTION
M  V30 END CTAB
M  END
>  <NO.>
1516

>  <Name>
tonazocine

>  <SMILES>
CCCCCC(=O)CC[C@]1(C)[C@@H]2Cc3ccc(O)cc3[C@@]1(C)CCN2C

>  <logBB>


>  <Class>
1

>  <MW>
357.27

>  <nHBAcc>
3

>  <nHBDon>
1

>  <SLogP>
4.85

>  <TopoPSA>
40.54

>  <MMFF94 Energy>
65.028

$$$$
CCCCCC(=O)OCC(=O)C1C(C)CC2C3CC(F)C4=CC(=O)C=CC4(C)C3C(O)CC21C
Actelion Java MolfileCreator 2.0

  0  0  0  0  0  0              0 V3000
M  V30 BEGIN CTAB
M  V30 COUNTS 73 76 0 0 0
M  V30 BEGIN ATOM
M  V30 1 F 4.5762 4.0937 -2.2459 0
M  V30 2 C 3.9582 3.5833 -1.1415 0
M  V30 3 C 4.9582 3.0598 -0.1453 0
M  V30 4 C 3.0593 2.4474 -1.603 0
M  V30 5 C 6.2789 3.1174 -0.395 0
M  V30 6 C 4.3524 2.4247 1.1127 0
M  V30 7 C 2.3592 1.7346 -0.4327 0
M  V30 8 C 7.2737 2.5516 0.5359 0
M  V30 9 C 5.4464 1.8505 2.0105 0
M  V30 10 C 3.376 1.2686 0.651 0
M  V30 11 C 3.6706 3.5417 1.9346 0
M  V30 12 C 1.4465 0.5976 -0.9553 0
M  V30 13 O 8.4739 2.6059 0.302 0
M  V30 14 C 6.7609 1.9061 1.7584 0
M  V30 15 C 2.62 0.5584 1.7997 0
M  V30 16 C 0.7976 -0.2982 0.1363 0
M  V30 17 C 2.0931 -0.413 -1.9058 0
M  V30 18 O 1.771 1.4617 2.4905 0
M  V30 19 C 1.8052 -0.6258 1.2742 0
M  V30 20 C 0.4649 -1.6459 -0.6113 0
M  V30 21 C -0.445 0.4125 0.7011 0
M  V30 22 C 0.9978 -1.4702 -2.0468 0
M  V30 23 C -0.9789 -2.1411 -0.4799 0
M  V30 24 C 1.5204 -2.7633 -2.6588 0
M  V30 25 O -1.3264 -2.7201 0.5556 0
M  V30 26 C -1.9601 -1.9002 -1.6264 0
M  V30 27 O -3.278 -2.3591 -1.3199 0
M  V30 28 C -4.0034 -1.5171 -0.5305 0
M  V30 29 O -3.6481 -0.3971 -0.1927 0
M  V30 30 C -5.3177 -2.17 -0.1719 0
M  V30 31 C -6.0981 -1.3468 0.8524 0
M  V30 32 C -7.3661 -2.0431 1.3532 0
M  V30 33 C -8.4218 -2.237 0.2641 0
M  V30 34 C -9.7019 -2.8307 0.8324 0
M  V30 35 H 3.3693 4.3978 -0.709 0
M  V30 36 H 2.3147 2.8423 -2.3053 0
M  V30 37 H 3.6692 1.7405 -2.1795 0
M  V30 38 H 6.6844 3.5618 -1.2979 0
M  V30 39 H 1.694 2.4739 0.0338 0
M  V30 40 H 5.136 1.3931 2.9476 0
M  V30 41 H 4.0117 0.5026 0.1791 0
M  V30 42 H 3.4284 3.2174 2.9531 0
M  V30 43 H 2.743 3.8949 1.4736 0
M  V30 44 H 4.3293 4.4139 2.0405 0
M  V30 45 H 0.641 1.0852 -1.527 0
M  V30 46 H 7.5026 1.5003 2.4357 0
M  V30 47 H 3.3331 0.1675 2.5323 0
M  V30 48 H 3.0102 -0.839 -1.4842 0
M  V30 49 H 2.3341 0.0242 -2.8799 0
M  V30 50 H 1.2791 0.9582 3.164 0
M  V30 51 H 2.5308 -1.3715 0.9223 0
M  V30 52 H 1.2609 -1.0955 2.104 0
M  V30 53 H 1.0495 -2.4604 -0.1579 0
M  V30 54 H -1.1928 0.5782 -0.0802 0
M  V30 55 H -0.9114 -0.1668 1.5046 0
M  V30 56 H -0.2096 1.4016 1.1027 0
M  V30 57 H 0.2227 -1.0669 -2.7082 0
M  V30 58 H 2.333 -3.1905 -2.0616 0
M  V30 59 H 1.9056 -2.5825 -3.6677 0
M  V30 60 H 0.724 -3.5108 -2.7296 0
M  V30 61 H -1.97 -0.8422 -1.9081 0
M  V30 62 H -1.6248 -2.4838 -2.4886 0
M  V30 63 H -5.1044 -3.1618 0.2422 0
M  V30 64 H -5.8957 -2.2821 -1.0947 0
M  V30 65 H -6.357 -0.3701 0.4249 0
M  V30 66 H -5.4539 -1.1425 1.7173 0
M  V30 67 H -7.7927 -1.4364 2.1618 0
M  V30 68 H -7.1039 -3.0134 1.7923 0
M  V30 69 H -8.651 -1.2751 -0.2086 0
M  V30 70 H -8.044 -2.904 -0.518 0
M  V30 71 H -10.4427 -2.9649 0.0378 0
M  V30 72 H -9.5122 -3.8074 1.2888 0
M  V30 73 H -10.1357 -2.1737 1.5931 0
M  V30 END ATOM
M  V30 BEGIN BOND
M  V30 1 1 1 2
M  V30 2 1 2 3
M  V30 3 1 2 4
M  V30 4 2 3 5
M  V30 5 1 3 6
M  V30 6 1 4 7
M  V30 7 1 5 8
M  V30 8 1 6 9
M  V30 9 1 6 10
M  V30 10 1 6 11
M  V30 11 1 7 12
M  V30 12 2 8 13
M  V30 13 1 8 14
M  V30 14 1 10 15
M  V30 15 1 12 16
M  V30 16 1 12 17
M  V30 17 1 15 18
M  V30 18 1 15 19
M  V30 19 1 16 20
M  V30 20 1 16 21
M  V30 21 1 17 22
M  V30 22 1 20 23
M  V30 23 1 22 24
M  V30 24 2 23 25
M  V30 25 1 23 26
M  V30 26 1 26 27
M  V30 27 1 27 28
M  V30 28 2 28 29
M  V30 29 1 28 30
M  V30 30 1 30 31
M  V30 31 1 31 32
M  V30 32 1 32 33
M  V30 33 1 33 34
M  V30 34 1 7 10
M  V30 35 2 9 14
M  V30 36 1 16 19
M  V30 37 1 20 22
M  V30 38 1 2 35
M  V30 39 1 4 36
M  V30 40 1 4 37
M  V30 41 1 5 38
M  V30 42 1 7 39
M  V30 43 1 9 40
M  V30 44 1 10 41
M  V30 45 1 11 42
M  V30 46 1 11 43
M  V30 47 1 11 44
M  V30 48 1 12 45
M  V30 49 1 14 46
M  V30 50 1 15 47
M  V30 51 1 17 48
M  V30 52 1 17 49
M  V30 53 1 18 50
M  V30 54 1 19 51
M  V30 55 1 19 52
M  V30 56 1 20 53
M  V30 57 1 21 54
M  V30 58 1 21 55
M  V30 59 1 21 56
M  V30 60 1 22 57
M  V30 61 1 24 58
M  V30 62 1 24 59
M  V30 63 1 24 60
M  V30 64 1 26 61
M  V30 65 1 26 62
M  V30 66 1 30 63
M  V30 67 1 30 64
M  V30 68 1 31 65
M  V30 69 1 31 66
M  V30 70 1 32 67
M  V30 71 1 32 68
M  V30 72 1 33 69
M  V30 73 1 33 70
M  V30 74 1 34 71
M  V30 75 1 34 72
M  V30 76 1 34 73
M  V30 END BOND
M  V30 END CTAB
M  END
>  <NO.>
1517

>  <Name>
fluocortolone-21-hexanoat

>  <SMILES>
CCCCCC(=O)OCC(=O)C1C(C)CC2C3CC(F)C4=CC(=O)C=CC4(C)C3C(O)CC21C

>  <logBB>


>  <Class>
1

>  <MW>
474.28

>  <nHBAcc>
5

>  <nHBDon>
1

>  <SLogP>
4.77

>  <TopoPSA>
80.67

>  <MMFF94 Energy>
82.616

$$$$
CCCCCC(N)C(O)(c1ccccc1)c1ccccc1
Actelion Java MolfileCreator 2.0

  0  0  0  0  0  0              0 V3000
M  V30 BEGIN CTAB
M  V30 COUNTS 46 47 0 0 0
M  V30 BEGIN ATOM
M  V30 1 O 1.8886 0.0 -1.3374 0
M  V30 2 C 1.1998 0.6984 -0.2732 0
M  V30 3 C 2.016 2.0066 -0.0972 0
M  V30 4 C -0.2464 0.9802 -0.7266 0
M  V30 5 C 1.2155 -0.2902 0.9928 0 CFG=1
M  V30 6 C 2.9118 2.2273 0.9634 0
M  V30 7 C 1.9347 3.008 -1.0906 0
M  V30 8 C -0.7933 0.354 -1.8626 0
M  V30 9 C -1.0645 1.8831 -0.0188 0
M  V30 10 N 0.6246 0.2122 2.2546 0
M  V30 11 C 0.7043 -1.7328 0.7018 0
M  V30 12 C 3.652 3.4117 1.0527 0
M  V30 13 C 2.6736 4.1899 -1.0011 0
M  V30 14 C -2.1061 0.6098 -2.2664 0
M  V30 15 C -2.3768 2.1384 -0.4242 0
M  V30 16 C -0.7981 -1.9911 0.8808 0
M  V30 17 C 3.529 4.3937 0.075 0
M  V30 18 C -2.8975 1.5 -1.5461 0
M  V30 19 C -1.1785 -3.392 0.3927 0
M  V30 20 C -2.6729 -3.6567 0.5757 0
M  V30 21 C -3.0562 -5.0452 0.0895 0
M  V30 22 H 2.8027 0.3301 -1.3606 0
M  V30 23 H 2.2804 -0.4527 1.2104 0
M  V30 24 H 3.0701 1.4877 1.744 0
M  V30 25 H 1.2854 2.8695 -1.9552 0
M  V30 26 H -0.1989 -0.3507 -2.4412 0
M  V30 27 H -0.6797 2.4113 0.851 0
M  V30 28 H 0.9114 1.1778 2.4086 0
M  V30 29 H -0.3899 0.2532 2.1455 0
M  V30 30 H 1.2304 -2.4152 1.385 0
M  V30 31 H 1.01 -2.0376 -0.3055 0
M  V30 32 H 4.333 3.5622 1.8874 0
M  V30 33 H 2.5815 4.9465 -1.7763 0
M  V30 34 H -2.5084 0.1104 -3.144 0
M  V30 35 H -2.9905 2.8409 0.134 0
M  V30 36 H -1.3935 -1.2531 0.3403 0
M  V30 37 H -1.0647 -1.9034 1.9409 0
M  V30 38 H 4.1065 5.3115 0.1468 0
M  V30 39 H -3.9183 1.6986 -1.8618 0
M  V30 40 H -0.6008 -4.1434 0.9446 0
M  V30 41 H -0.9161 -3.4952 -0.6672 0
M  V30 42 H -2.9419 -3.5592 1.634 0
M  V30 43 H -3.2539 -2.9091 0.023 0
M  V30 44 H -4.1287 -5.2133 0.2297 0
M  V30 45 H -2.83 -5.1644 -0.9748 0
M  V30 46 H -2.5157 -5.8184 0.6448 0
M  V30 END ATOM
M  V30 BEGIN BOND
M  V30 1 1 1 2
M  V30 2 1 2 3
M  V30 3 1 2 4
M  V30 4 1 2 5
M  V30 5 2 3 6
M  V30 6 1 3 7
M  V30 7 2 4 8
M  V30 8 1 4 9
M  V30 9 1 5 10
M  V30 10 1 5 11
M  V30 11 1 6 12
M  V30 12 2 7 13
M  V30 13 1 8 14
M  V30 14 2 9 15
M  V30 15 1 11 16
M  V30 16 2 12 17
M  V30 17 2 14 18
M  V30 18 1 16 19
M  V30 19 1 19 20
M  V30 20 1 20 21
M  V30 21 1 13 17
M  V30 22 1 15 18
M  V30 23 1 1 22
M  V30 24 1 5 23
M  V30 25 1 6 24
M  V30 26 1 7 25
M  V30 27 1 8 26
M  V30 28 1 9 27
M  V30 29 1 10 28
M  V30 30 1 10 29
M  V30 31 1 11 30
M  V30 32 1 11 31
M  V30 33 1 12 32
M  V30 34 1 13 33
M  V30 35 1 14 34
M  V30 36 1 15 35
M  V30 37 1 16 36
M  V30 38 1 16 37
M  V30 39 1 17 38
M  V30 40 1 18 39
M  V30 41 1 19 40
M  V30 42 1 19 41
M  V30 43 1 20 42
M  V30 44 1 20 43
M  V30 45 1 21 44
M  V30 46 1 21 45
M  V30 47 1 21 46
M  V30 END BOND
M  V30 BEGIN COLLECTION
M  V30 MDLV30/STERAC1 ATOMS=(1 5)
M  V30 END COLLECTION
M  V30 END CTAB
M  END
>  <NO.>
1519

>  <Name>
hexapradol

>  <SMILES>
CCCCCC(N)C(O)(c1ccccc1)c1ccccc1

>  <logBB>


>  <Class>
1

>  <MW>
283.19

>  <nHBAcc>
2

>  <nHBDon>
2

>  <SLogP>
3.83

>  <TopoPSA>
46.25

>  <MMFF94 Energy>
107.16

$$$$
CCCCCC1CNC(C(=O)NC(C(C)Cl)C2OC(SC)C(O)C(O)C2O)C1
Actelion Java MolfileCreator 2.0

  0  0  0  0  0  0              0 V3000
M  V30 BEGIN CTAB
M  V30 COUNTS 63 64 0 0 0
M  V30 BEGIN ATOM
M  V30 1 Cl 5.2186 0.561 -0.7213 0
M  V30 2 C 3.749 -0.132 -1.4934 0
M  V30 3 C 2.5122 0.7917 -1.3084 0
M  V30 4 C 4.0824 -0.3994 -2.9603 0
M  V30 5 N 1.3317 0.1753 -1.9295 0
M  V30 6 C 2.2028 1.0707 0.1907 0
M  V30 7 C 0.8334 0.5192 -3.1634 0
M  V30 8 O 1.8505 -0.1794 0.816 0
M  V30 9 C 1.069 2.1034 0.3715 0
M  V30 10 O 1.3316 1.3758 -3.8857 0
M  V30 11 C -0.4511 -0.2317 -3.5367 0
M  V30 12 C 1.6635 -0.0418 2.2223 0
M  V30 13 O 1.4659 3.381 -0.1327 0
M  V30 14 C 0.7044 2.253 1.8529 0
M  V30 15 N -0.4884 -1.5659 -2.8824 0
M  V30 16 C -1.6968 0.4938 -3.0278 0
M  V30 17 S 1.3164 -1.6788 2.9686 0
M  V30 18 C 0.4772 0.8964 2.5219 0
M  V30 19 O 1.7756 2.9485 2.5236 0
M  V30 20 C -1.9109 -1.8699 -2.7367 0
M  V30 21 C -2.5033 -0.5528 -2.2446 0
M  V30 22 C 2.813 -2.5415 2.4304 0
M  V30 23 O 0.3147 1.1209 3.9314 0
M  V30 24 C -2.366 -0.3399 -0.7228 0
M  V30 25 C -3.3231 -1.2318 0.0776 0
M  V30 26 C -3.1697 -1.0889 1.5948 0
M  V30 27 C -3.5593 0.2925 2.1216 0
M  V30 28 C -3.4986 0.3424 3.6407 0
M  V30 29 H 3.5721 -1.0945 -1.0 0
M  V30 30 H 2.7114 1.7439 -1.8156 0
M  V30 31 H 4.9864 -1.0118 -3.0526 0
M  V30 32 H 4.2486 0.5338 -3.5091 0
M  V30 33 H 3.2766 -0.9482 -3.4573 0
M  V30 34 H 0.8785 -0.6167 -1.4744 0
M  V30 35 H 3.1056 1.4646 0.6716 0
M  V30 36 H 0.1733 1.7819 -0.1712 0
M  V30 37 H -0.4835 -0.3518 -4.626 0
M  V30 38 H 2.5816 0.3297 2.6931 0
M  V30 39 H 1.9665 3.8092 0.593 0
M  V30 40 H -0.1767 2.8951 1.966 0
M  V30 41 H -0.0362 -2.2517 -3.4877 0
M  V30 42 H -1.4673 1.3797 -2.4255 0
M  V30 43 H -2.2878 0.832 -3.8881 0
M  V30 44 H -0.4527 0.4744 2.1244 0
M  V30 45 H 1.5353 2.9121 3.474 0
M  V30 46 H -2.3377 -2.1417 -3.7101 0
M  V30 47 H -2.0657 -2.7082 -2.054 0
M  V30 48 H -3.5638 -0.4824 -2.5154 0
M  V30 49 H 2.837 -2.6299 1.3414 0
M  V30 50 H 2.8181 -3.548 2.857 0
M  V30 51 H 3.7047 -2.0136 2.7783 0
M  V30 52 H 0.2254 0.2335 4.3338 0
M  V30 53 H -1.3347 -0.5206 -0.3975 0
M  V30 54 H -2.5899 0.7095 -0.499 0
M  V30 55 H -3.1492 -2.2832 -0.1749 0
M  V30 56 H -4.3584 -1.0078 -0.2067 0
M  V30 57 H -2.1376 -1.3211 1.8825 0
M  V30 58 H -3.8053 -1.8445 2.0734 0
M  V30 59 H -2.8884 1.0588 1.7197 0
M  V30 60 H -4.5747 0.5439 1.7944 0
M  V30 61 H -3.7647 1.3421 3.9981 0
M  V30 62 H -4.1973 -0.3736 4.0848 0
M  V30 63 H -2.4924 0.1088 4.0018 0
M  V30 END ATOM
M  V30 BEGIN BOND
M  V30 1 1 1 2
M  V30 2 1 2 3
M  V30 3 1 2 4
M  V30 4 1 3 5
M  V30 5 1 3 6
M  V30 6 1 5 7
M  V30 7 1 6 8
M  V30 8 1 6 9
M  V30 9 2 7 10
M  V30 10 1 7 11
M  V30 11 1 8 12
M  V30 12 1 9 13
M  V30 13 1 9 14
M  V30 14 1 11 15
M  V30 15 1 11 16
M  V30 16 1 12 17
M  V30 17 1 12 18
M  V30 18 1 14 19
M  V30 19 1 15 20
M  V30 20 1 16 21
M  V30 21 1 17 22
M  V30 22 1 18 23
M  V30 23 1 21 24
M  V30 24 1 24 25
M  V30 25 1 25 26
M  V30 26 1 26 27
M  V30 27 1 27 28
M  V30 28 1 14 18
M  V30 29 1 20 21
M  V30 30 1 2 29
M  V30 31 1 3 30
M  V30 32 1 4 31
M  V30 33 1 4 32
M  V30 34 1 4 33
M  V30 35 1 5 34
M  V30 36 1 6 35
M  V30 37 1 9 36
M  V30 38 1 11 37
M  V30 39 1 12 38
M  V30 40 1 13 39
M  V30 41 1 14 40
M  V30 42 1 15 41
M  V30 43 1 16 42
M  V30 44 1 16 43
M  V30 45 1 18 44
M  V30 46 1 19 45
M  V30 47 1 20 46
M  V30 48 1 20 47
M  V30 49 1 21 48
M  V30 50 1 22 49
M  V30 51 1 22 50
M  V30 52 1 22 51
M  V30 53 1 23 52
M  V30 54 1 24 53
M  V30 55 1 24 54
M  V30 56 1 25 55
M  V30 57 1 25 56
M  V30 58 1 26 57
M  V30 59 1 26 58
M  V30 60 1 27 59
M  V30 61 1 27 60
M  V30 62 1 28 61
M  V30 63 1 28 62
M  V30 64 1 28 63
M  V30 END BOND
M  V30 END CTAB
M  END
>  <NO.>
1520

>  <Name>
mirincamycin

>  <SMILES>
CCCCCC1CNC(C(=O)NC(C(C)Cl)C2OC(SC)C(O)C(O)C2O)C1

>  <logBB>


>  <Class>
-1

>  <MW>
438.2

>  <nHBAcc>
7

>  <nHBDon>
5

>  <SLogP>
0.83

>  <TopoPSA>
111.05

>  <MMFF94 Energy>
124.06

$$$$
CCCCCCC(C)NN
Actelion Java MolfileCreator 2.0

  0  0  0  0  0  0              0 V3000
M  V30 BEGIN CTAB
M  V30 COUNTS 30 29 0 0 0
M  V30 BEGIN ATOM
M  V30 1 N -2.745 -0.1523 -1.8293 0
M  V30 2 N -3.1835 -0.0509 -3.1961 0
M  V30 3 C -1.6786 0.8191 -1.5174 0 CFG=2
M  V30 4 C -0.9165 0.2725 -0.2911 0
M  V30 5 C -2.2723 2.207 -1.253 0
M  V30 6 C 0.3227 1.0985 0.0738 0
M  V30 7 C 1.0923 0.5411 1.2765 0
M  V30 8 C 1.7705 -0.8024 0.9994 0
M  V30 9 C 2.6228 -1.2472 2.189 0
M  V30 10 C 3.2971 -2.5836 1.9226 0
M  V30 11 H -3.5205 -0.0551 -1.1657 0
M  V30 12 H -3.4256 0.9016 -3.4767 0
M  V30 13 H -2.46 -0.3733 -3.8441 0
M  V30 14 H -0.9732 0.8799 -2.3566 0
M  V30 15 H -0.6066 -0.7568 -0.5089 0
M  V30 16 H -1.5868 0.2236 0.5772 0
M  V30 17 H -2.9168 2.2042 -0.3668 0
M  V30 18 H -1.4845 2.95 -1.0958 0
M  V30 19 H -2.8689 2.5588 -2.1011 0
M  V30 20 H 0.0206 2.1213 0.3245 0
M  V30 21 H 0.9923 1.1668 -0.7918 0
M  V30 22 H 0.416 0.4461 2.1349 0
M  V30 23 H 1.8585 1.2743 1.5584 0
M  V30 24 H 2.4021 -0.7187 0.1068 0
M  V30 25 H 1.0168 -1.5704 0.7939 0
M  V30 26 H 3.3904 -0.4937 2.4004 0
M  V30 27 H 1.9961 -1.3325 3.0846 0
M  V30 28 H 3.9013 -2.8818 2.7852 0
M  V30 29 H 2.5555 -3.3678 1.7399 0
M  V30 30 H 3.9561 -2.5234 1.0506 0
M  V30 END ATOM
M  V30 BEGIN BOND
M  V30 1 1 1 2
M  V30 2 1 1 3
M  V30 3 1 3 4
M  V30 4 1 3 5
M  V30 5 1 4 6
M  V30 6 1 6 7
M  V30 7 1 7 8
M  V30 8 1 8 9
M  V30 9 1 9 10
M  V30 10 1 1 11
M  V30 11 1 2 12
M  V30 12 1 2 13
M  V30 13 1 3 14
M  V30 14 1 4 15
M  V30 15 1 4 16
M  V30 16 1 5 17
M  V30 17 1 5 18
M  V30 18 1 5 19
M  V30 19 1 6 20
M  V30 20 1 6 21
M  V30 21 1 7 22
M  V30 22 1 7 23
M  V30 23 1 8 24
M  V30 24 1 8 25
M  V30 25 1 9 26
M  V30 26 1 9 27
M  V30 27 1 10 28
M  V30 28 1 10 29
M  V30 29 1 10 30
M  V30 END BOND
M  V30 BEGIN COLLECTION
M  V30 MDLV30/STERAC1 ATOMS=(1 3)
M  V30 END COLLECTION
M  V30 END CTAB
M  END
>  <NO.>
1523

>  <Name>
octamoxin

>  <SMILES>
CCCCCCC(C)NN

>  <logBB>


>  <Class>
1

>  <MW>
144.16

>  <nHBAcc>
2

>  <nHBDon>
2

>  <SLogP>
1.81

>  <TopoPSA>
38.05

>  <MMFF94 Energy>
41.965

$$$$
CCCCCCCCCC1(C)OCC(COC(N)=O)O1
Actelion Java MolfileCreator 2.0

  0  0  0  0  0  0              0 V3000
M  V30 BEGIN CTAB
M  V30 COUNTS 49 49 0 0 0
M  V30 BEGIN ATOM
M  V30 1 O -5.6961 -4.133 -0.1557 0
M  V30 2 C -6.1531 -3.5053 0.7845 0
M  V30 3 O -5.6354 -2.3814 1.3277 0
M  V30 4 N -7.2794 -3.8566 1.4416 0
M  V30 5 C -4.4372 -1.9254 0.687 0
M  V30 6 C -3.9367 -0.6743 1.391 0
M  V30 7 O -2.7333 -0.1814 0.795 0
M  V30 8 C -3.5392 -0.9056 2.8284 0
M  V30 9 C -2.0556 0.5173 1.8537 0
M  V30 10 O -2.6868 0.2055 3.1116 0
M  V30 11 C -0.5939 0.0469 1.9179 0
M  V30 12 C -2.1913 2.0197 1.6271 0
M  V30 13 C 0.2051 0.2823 0.6315 0
M  V30 14 C 1.6247 -0.279 0.7558 0
M  V30 15 C 2.4378 -0.1794 -0.5394 0
M  V30 16 C 2.767 1.2611 -0.9405 0
M  V30 17 C 3.5817 1.3621 -2.2355 0
M  V30 18 C 5.0134 0.8372 -2.0966 0
M  V30 19 C 5.8263 0.9492 -3.3894 0
M  V30 20 C 6.1106 2.3833 -3.8088 0
M  V30 21 H -7.7803 -4.6805 1.1451 0
M  V30 22 H -7.6154 -3.2987 2.2105 0
M  V30 23 H -4.642 -1.694 -0.3655 0
M  V30 24 H -3.6695 -2.7091 0.7161 0
M  V30 25 H -4.6917 0.1204 1.3382 0
M  V30 26 H -2.9545 -1.8229 2.9592 0
M  V30 27 H -4.3877 -0.9188 3.5177 0
M  V30 28 H -0.5841 -1.0285 2.1409 0
M  V30 29 H -0.0906 0.5313 2.7647 0
M  V30 30 H -3.2428 2.3229 1.6948 0
M  V30 31 H -1.646 2.5865 2.3889 0
M  V30 32 H -1.8412 2.3158 0.6336 0
M  V30 33 H 0.2527 1.3557 0.4246 0
M  V30 34 H -0.3014 -0.1944 -0.2154 0
M  V30 35 H 1.5657 -1.3375 1.0384 0
M  V30 36 H 2.1574 0.2345 1.5655 0
M  V30 37 H 1.8957 -0.6766 -1.3527 0
M  V30 38 H 3.3667 -0.74 -0.3885 0
M  V30 39 H 3.3055 1.7608 -0.1263 0
M  V30 40 H 1.836 1.8183 -1.0938 0
M  V30 41 H 3.6083 2.4184 -2.5264 0
M  V30 42 H 3.0641 0.8247 -3.0392 0
M  V30 43 H 4.9918 -0.2199 -1.8104 0
M  V30 44 H 5.5287 1.3739 -1.2908 0
M  V30 45 H 6.7839 0.436 -3.2409 0
M  V30 46 H 5.3095 0.4261 -4.2023 0
M  V30 47 H 6.7794 2.3947 -4.6755 0
M  V30 48 H 5.1943 2.9088 -4.0926 0
M  V30 49 H 6.5945 2.941 -3.0007 0
M  V30 END ATOM
M  V30 BEGIN BOND
M  V30 1 2 1 2
M  V30 2 1 2 3
M  V30 3 1 2 4
M  V30 4 1 3 5
M  V30 5 1 5 6
M  V30 6 1 6 7
M  V30 7 1 6 8
M  V30 8 1 7 9
M  V30 9 1 8 10
M  V30 10 1 9 11
M  V30 11 1 9 12
M  V30 12 1 11 13
M  V30 13 1 13 14
M  V30 14 1 14 15
M  V30 15 1 15 16
M  V30 16 1 16 17
M  V30 17 1 17 18
M  V30 18 1 18 19
M  V30 19 1 19 20
M  V30 20 1 9 10
M  V30 21 1 4 21
M  V30 22 1 4 22
M  V30 23 1 5 23
M  V30 24 1 5 24
M  V30 25 1 6 25
M  V30 26 1 8 26
M  V30 27 1 8 27
M  V30 28 1 11 28
M  V30 29 1 11 29
M  V30 30 1 12 30
M  V30 31 1 12 31
M  V30 32 1 12 32
M  V30 33 1 13 33
M  V30 34 1 13 34
M  V30 35 1 14 35
M  V30 36 1 14 36
M  V30 37 1 15 37
M  V30 38 1 15 38
M  V30 39 1 16 39
M  V30 40 1 16 40
M  V30 41 1 17 41
M  V30 42 1 17 42
M  V30 43 1 18 43
M  V30 44 1 18 44
M  V30 45 1 19 45
M  V30 46 1 19 46
M  V30 47 1 20 47
M  V30 48 1 20 48
M  V30 49 1 20 49
M  V30 END BOND
M  V30 END CTAB
M  END
>  <NO.>
1527

>  <Name>
dioxamate

>  <SMILES>
CCCCCCCCCC1(C)OCC(COC(N)=O)O1

>  <logBB>


>  <Class>
1

>  <MW>
287.21

>  <nHBAcc>
4

>  <nHBDon>
1

>  <SLogP>
3.35

>  <TopoPSA>
70.78

>  <MMFF94 Energy>
-46.039

$$$$
CCCCCCCCCCOc1c(OC)cc(C(N)=O)cc1OC
Actelion Java MolfileCreator 2.0

  0  0  0  0  0  0              0 V3000
M  V30 BEGIN CTAB
M  V30 COUNTS 55 55 0 0 0
M  V30 BEGIN ATOM
M  V30 1 O 3.4254 3.8152 6.6256 0
M  V30 2 C 4.0558 2.9652 6.0103 0
M  V30 3 N 5.2055 2.4357 6.524 0
M  V30 4 C 3.6232 2.5007 4.6663 0
M  V30 5 C 3.9477 1.2234 4.1871 0
M  V30 6 C 2.8516 3.3782 3.8898 0
M  V30 7 C 3.5213 0.8257 2.9187 0
M  V30 8 C 2.4182 2.9984 2.6201 0
M  V30 9 O 3.7815 -0.3946 2.3508 0
M  V30 10 C 2.7487 1.7154 2.1498 0
M  V30 11 O 1.6753 3.7832 1.777 0
M  V30 12 C 4.637 -1.2836 3.0546 0
M  V30 13 O 2.3672 1.3433 0.8788 0
M  V30 14 C 1.3735 5.1042 2.2068 0
M  V30 15 C 1.074 0.728 0.9152 0
M  V30 16 C 0.712 0.3207 -0.5103 0
M  V30 17 C -0.6589 -0.349 -0.5752 0
M  V30 18 C -1.013 -0.7536 -2.007 0
M  V30 19 C -2.3862 -1.4245 -2.0721 0
M  V30 20 C -2.7404 -1.8291 -3.5041 0
M  V30 21 C -4.1135 -2.5 -3.5692 0
M  V30 22 C -4.4678 -2.9047 -5.0011 0
M  V30 23 C -5.84 -3.5751 -5.0661 0
M  V30 24 C -6.1959 -3.979 -6.4881 0
M  V30 25 H 5.8229 1.8158 6.0222 0
M  V30 26 H 5.4976 2.7686 7.4344 0
M  V30 27 H 4.5048 0.5452 4.8215 0
M  V30 28 H 2.6113 4.3536 4.3032 0
M  V30 29 H 5.6214 -0.8352 3.2254 0
M  V30 30 H 4.7795 -2.1731 2.4336 0
M  V30 31 H 4.1798 -1.6049 3.9962 0
M  V30 32 H 0.744 5.0926 3.1027 0
M  V30 33 H 0.8066 5.5938 1.409 0
M  V30 34 H 2.2868 5.6857 2.3709 0
M  V30 35 H 0.3256 1.4327 1.2989 0
M  V30 36 H 1.0919 -0.1598 1.5596 0
M  V30 37 H 0.7325 1.2072 -1.1567 0
M  V30 38 H 1.4835 -0.3544 -0.9011 0
M  V30 39 H -1.4218 0.3373 -0.188 0
M  V30 40 H -0.6651 -1.2363 0.0695 0
M  V30 41 H -0.2501 -1.44 -2.3941 0
M  V30 42 H -1.0068 0.1337 -2.6517 0
M  V30 43 H -3.1492 -0.7381 -1.6849 0
M  V30 44 H -2.3924 -2.3119 -1.4274 0
M  V30 45 H -1.9774 -2.5154 -3.8912 0
M  V30 46 H -2.7342 -0.9417 -4.1488 0
M  V30 47 H -4.8765 -1.8136 -3.182 0
M  V30 48 H -4.1198 -3.3874 -2.9245 0
M  V30 49 H -3.7049 -3.591 -5.3884 0
M  V30 50 H -4.4615 -2.0174 -5.646 0
M  V30 51 H -5.8504 -4.4652 -4.4262 0
M  V30 52 H -6.6071 -2.8915 -4.6838 0
M  V30 53 H -7.1807 -4.4562 -6.5113 0
M  V30 54 H -6.2258 -3.106 -7.148 0
M  V30 55 H -5.465 -4.6884 -6.889 0
M  V30 END ATOM
M  V30 BEGIN BOND
M  V30 1 2 1 2
M  V30 2 1 2 3
M  V30 3 1 2 4
M  V30 4 2 4 5
M  V30 5 1 4 6
M  V30 6 1 5 7
M  V30 7 2 6 8
M  V30 8 1 7 9
M  V30 9 2 7 10
M  V30 10 1 8 11
M  V30 11 1 9 12
M  V30 12 1 10 13
M  V30 13 1 11 14
M  V30 14 1 13 15
M  V30 15 1 15 16
M  V30 16 1 16 17
M  V30 17 1 17 18
M  V30 18 1 18 19
M  V30 19 1 19 20
M  V30 20 1 20 21
M  V30 21 1 21 22
M  V30 22 1 22 23
M  V30 23 1 23 24
M  V30 24 1 8 10
M  V30 25 1 3 25
M  V30 26 1 3 26
M  V30 27 1 5 27
M  V30 28 1 6 28
M  V30 29 1 12 29
M  V30 30 1 12 30
M  V30 31 1 12 31
M  V30 32 1 14 32
M  V30 33 1 14 33
M  V30 34 1 14 34
M  V30 35 1 15 35
M  V30 36 1 15 36
M  V30 37 1 16 37
M  V30 38 1 16 38
M  V30 39 1 17 39
M  V30 40 1 17 40
M  V30 41 1 18 41
M  V30 42 1 18 42
M  V30 43 1 19 43
M  V30 44 1 19 44
M  V30 45 1 20 45
M  V30 46 1 20 46
M  V30 47 1 21 47
M  V30 48 1 21 48
M  V30 49 1 22 49
M  V30 50 1 22 50
M  V30 51 1 23 51
M  V30 52 1 23 52
M  V30 53 1 24 53
M  V30 54 1 24 54
M  V30 55 1 24 55
M  V30 END BOND
M  V30 END CTAB
M  END
>  <NO.>
1531

>  <Name>
decimemide

>  <SMILES>
CCCCCCCCCCOc1c(OC)cc(C(N)=O)cc1OC

>  <logBB>


>  <Class>
1

>  <MW>
337.23

>  <nHBAcc>
4

>  <nHBDon>
1

>  <SLogP>
4.32

>  <TopoPSA>
70.78

>  <MMFF94 Energy>
30.089

$$$$
CCCCCCCCCNc1ncnc2[nH]ccc12
Actelion Java MolfileCreator 2.0

  0  0  0  0  0  0              0 V3000
M  V30 BEGIN CTAB
M  V30 COUNTS 43 44 0 0 0
M  V30 BEGIN ATOM
M  V30 1 N 0.1559 1.4039 -3.7473 0
M  V30 2 C -1.0582 1.3625 -3.1458 0
M  V30 3 C 0.662 2.5971 -4.1161 0
M  V30 4 N -1.6037 0.1607 -2.7514 0
M  V30 5 C -1.7268 2.5841 -2.9414 0
M  V30 6 N 0.1144 3.8151 -3.9692 0
M  V30 7 C -0.9015 -1.0944 -2.9052 0
M  V30 8 C -1.0829 3.7335 -3.3731 0
M  V30 9 C -2.9659 3.0039 -2.374 0
M  V30 10 C -0.2774 -1.548 -1.5831 0
M  V30 11 N -1.8824 4.8064 -3.0882 0
M  V30 12 C -3.0342 4.3781 -2.4786 0
M  V30 13 C 0.9265 -0.7003 -1.1617 0
M  V30 14 C 1.6736 -1.2685 0.049 0
M  V30 15 C 0.8446 -1.2545 1.3352 0
M  V30 16 C 1.6732 -1.7234 2.5334 0
M  V30 17 C 0.8459 -1.7138 3.82 0
M  V30 18 C 1.6737 -2.1815 5.0167 0
M  V30 19 C 0.8549 -2.1735 6.2978 0
M  V30 20 H 1.6371 2.5683 -4.5924 0
M  V30 21 H -2.5005 0.1685 -2.2893 0
M  V30 22 H -0.1565 -1.074 -3.709 0
M  V30 23 H -1.6412 -1.8474 -3.2024 0
M  V30 24 H -3.7242 2.3681 -1.9371 0
M  V30 25 H 0.0444 -2.5904 -1.6964 0
M  V30 26 H -1.0417 -1.5315 -0.7973 0
M  V30 27 H -1.6364 5.7612 -3.3052 0
M  V30 28 H -3.7964 5.0834 -2.1748 0
M  V30 29 H 0.6076 0.3237 -0.9368 0
M  V30 30 H 1.6324 -0.6389 -1.999 0
M  V30 31 H 2.5808 -0.6704 0.2012 0
M  V30 32 H 2.0034 -2.2915 -0.1685 0
M  V30 33 H -0.0284 -1.9076 1.2266 0
M  V30 34 H 0.4716 -0.2401 1.5216 0
M  V30 35 H 2.5467 -1.0711 2.6542 0
M  V30 36 H 2.0492 -2.7365 2.3456 0
M  V30 37 H -0.0275 -2.3662 3.7002 0
M  V30 38 H 0.4693 -0.7008 4.0072 0
M  V30 39 H 2.0492 -3.1955 4.8364 0
M  V30 40 H 2.5461 -1.5301 5.1437 0
M  V30 41 H 1.4662 -2.5113 7.1404 0
M  V30 42 H 0.4908 -1.1663 6.5245 0
M  V30 43 H -0.0088 -2.841 6.2155 0
M  V30 END ATOM
M  V30 BEGIN BOND
M  V30 1 2 1 2
M  V30 2 1 1 3
M  V30 3 1 2 4
M  V30 4 1 2 5
M  V30 5 2 3 6
M  V30 6 1 4 7
M  V30 7 2 5 8
M  V30 8 1 5 9
M  V30 9 1 7 10
M  V30 10 1 8 11
M  V30 11 2 9 12
M  V30 12 1 10 13
M  V30 13 1 13 14
M  V30 14 1 14 15
M  V30 15 1 15 16
M  V30 16 1 16 17
M  V30 17 1 17 18
M  V30 18 1 18 19
M  V30 19 1 6 8
M  V30 20 1 11 12
M  V30 21 1 3 20
M  V30 22 1 4 21
M  V30 23 1 7 22
M  V30 24 1 7 23
M  V30 25 1 9 24
M  V30 26 1 10 25
M  V30 27 1 10 26
M  V30 28 1 11 27
M  V30 29 1 12 28
M  V30 30 1 13 29
M  V30 31 1 13 30
M  V30 32 1 14 31
M  V30 33 1 14 32
M  V30 34 1 15 33
M  V30 35 1 15 34
M  V30 36 1 16 35
M  V30 37 1 16 36
M  V30 38 1 17 37
M  V30 39 1 17 38
M  V30 40 1 18 39
M  V30 41 1 18 40
M  V30 42 1 19 41
M  V30 43 1 19 42
M  V30 44 1 19 43
M  V30 END BOND
M  V30 END CTAB
M  END
>  <NO.>
1532

>  <Name>
nonapyrimine

>  <SMILES>
CCCCCCCCCNc1ncnc2[nH]ccc12

>  <logBB>


>  <Class>
1

>  <MW>
260.2

>  <nHBAcc>
3

>  <nHBDon>
2

>  <SLogP>
4.12

>  <TopoPSA>
53.6

>  <MMFF94 Energy>
-25.541

$$$$
CCCCCCCNC(=O)Oc1ccc2c(c1)[C@]1(C)CCN(C)[C@@H]1N2C
Actelion Java MolfileCreator 2.0

  0  0  0  0  0  0              0 V3000
M  V30 BEGIN CTAB
M  V30 COUNTS 59 61 0 0 0
M  V30 BEGIN ATOM
M  V30 1 O -0.6293 -0.3932 -0.5506 0
M  V30 2 C -1.7705 -0.2321 -0.1411 0
M  V30 3 O -2.2087 0.7765 0.7037 0
M  V30 4 N -2.8273 -1.0423 -0.4528 0
M  V30 5 C -1.2521 1.7191 1.1094 0
M  V30 6 C -2.701 -2.1986 -1.3083 0
M  V30 7 C -0.5625 2.4987 0.1836 0
M  V30 8 C -1.085 1.9052 2.4864 0
M  V30 9 C -2.2558 -3.4294 -0.5225 0
M  V30 10 C 0.3304 3.443 0.6744 0
M  V30 11 C -0.1852 2.8672 2.9564 0
M  V30 12 C -2.1503 -4.6577 -1.4265 0
M  V30 13 C 0.5243 3.6351 2.0462 0
M  V30 14 C 1.2275 4.3765 -0.1012 0 CFG=1
M  V30 15 C -1.7049 -5.8911 -0.6393 0
M  V30 16 N 1.4428 4.6278 2.3066 0
M  V30 17 C 2.0334 5.0945 1.0503 0 CFG=1
M  V30 18 C 2.2918 3.6309 -0.9102 0
M  V30 19 C 0.4185 5.349 -0.9583 0
M  V30 20 C -1.5992 -7.12 -1.5437 0
M  V30 21 C 2.0799 4.8599 3.5755 0
M  V30 22 N 3.4644 4.8187 0.7898 0
M  V30 23 C 3.4815 3.5602 0.0335 0
M  V30 24 C -1.154 -8.3525 -0.757 0
M  V30 25 C 4.0958 5.9088 0.0519 0
M  V30 26 C -1.0476 -9.5764 -1.6525 0
M  V30 27 H -3.7182 -0.8052 -0.0394 0
M  V30 28 H -1.9856 -1.9746 -2.1073 0
M  V30 29 H -3.6815 -2.3686 -1.7653 0
M  V30 30 H -0.7049 2.3632 -0.8822 0
M  V30 31 H -1.6504 1.3036 3.1915 0
M  V30 32 H -2.9691 -3.6247 0.288 0
M  V30 33 H -1.2864 -3.2358 -0.0467 0
M  V30 34 H -0.0548 3.0061 4.0237 0
M  V30 35 H -1.4349 -4.4589 -2.2337 0
M  V30 36 H -3.1221 -4.8526 -1.8961 0
M  V30 37 H -2.4204 -6.0896 0.168 0
M  V30 38 H -0.7332 -5.696 -0.1695 0
M  V30 39 H 1.8554 6.1783 1.0157 0
M  V30 40 H 1.9802 2.6336 -1.2376 0
M  V30 41 H 2.5706 4.1977 -1.8071 0
M  V30 42 H -0.123 4.8227 -1.7523 0
M  V30 43 H -0.3214 5.8907 -0.3577 0
M  V30 44 H 1.0674 6.0924 -1.4337 0
M  V30 45 H -0.884 -6.9214 -2.3512 0
M  V30 46 H -2.5708 -7.3152 -2.0135 0
M  V30 47 H 2.678 5.7771 3.5497 0
M  V30 48 H 2.7432 4.0284 3.8355 0
M  V30 49 H 1.3396 4.9807 4.3732 0
M  V30 50 H 3.3609 2.7221 0.7311 0
M  V30 51 H 4.4239 3.3935 -0.4996 0
M  V30 52 H -0.1811 -8.164 -0.2885 0
M  V30 53 H -1.868 -8.5578 0.0491 0
M  V30 54 H 5.1455 5.6715 -0.1533 0
M  V30 55 H 4.097 6.823 0.6563 0
M  V30 56 H 3.6031 6.132 -0.9002 0
M  V30 57 H -0.728 -10.4458 -1.0696 0
M  V30 58 H -2.013 -9.8115 -2.1118 0
M  V30 59 H -0.3167 -9.4155 -2.4513 0
M  V30 END ATOM
M  V30 BEGIN BOND
M  V30 1 2 1 2
M  V30 2 1 2 3
M  V30 3 1 2 4
M  V30 4 1 3 5
M  V30 5 1 4 6
M  V30 6 2 5 7
M  V30 7 1 5 8
M  V30 8 1 6 9
M  V30 9 1 7 10
M  V30 10 2 8 11
M  V30 11 1 9 12
M  V30 12 2 10 13
M  V30 13 1 10 14
M  V30 14 1 12 15
M  V30 15 1 13 16
M  V30 16 1 14 17
M  V30 17 1 14 18
M  V30 18 1 14 19
M  V30 19 1 15 20
M  V30 20 1 16 21
M  V30 21 1 17 22
M  V30 22 1 18 23
M  V30 23 1 20 24
M  V30 24 1 22 25
M  V30 25 1 24 26
M  V30 26 1 11 13
M  V30 27 1 16 17
M  V30 28 1 22 23
M  V30 29 1 4 27
M  V30 30 1 6 28
M  V30 31 1 6 29
M  V30 32 1 7 30
M  V30 33 1 8 31
M  V30 34 1 9 32
M  V30 35 1 9 33
M  V30 36 1 11 34
M  V30 37 1 12 35
M  V30 38 1 12 36
M  V30 39 1 15 37
M  V30 40 1 15 38
M  V30 41 1 17 39
M  V30 42 1 18 40
M  V30 43 1 18 41
M  V30 44 1 19 42
M  V30 45 1 19 43
M  V30 46 1 19 44
M  V30 47 1 20 45
M  V30 48 1 20 46
M  V30 49 1 21 47
M  V30 50 1 21 48
M  V30 51 1 21 49
M  V30 52 1 23 50
M  V30 53 1 23 51
M  V30 54 1 24 52
M  V30 55 1 24 53
M  V30 56 1 25 54
M  V30 57 1 25 55
M  V30 58 1 25 56
M  V30 59 1 26 57
M  V30 60 1 26 58
M  V30 61 1 26 59
M  V30 END BOND
M  V30 BEGIN COLLECTION
M  V30 MDLV30/STEABS ATOMS=(2 14 17)
M  V30 END COLLECTION
M  V30 END CTAB
M  END
>  <NO.>
1533

>  <Name>
eptastigmine

>  <SMILES>
CCCCCCCNC(=O)Oc1ccc2c(c1)[C@]1(C)CCN(C)[C@@H]1N2C

>  <logBB>


>  <Class>
1

>  <MW>
359.26

>  <nHBAcc>
4

>  <nHBDon>
1

>  <SLogP>
4.11

>  <TopoPSA>
44.81

>  <MMFF94 Energy>
-21.561

$$$$
CCCCCCN1CCC(C(=O)N(C)CC)(c2ccccc2)CC1
Actelion Java MolfileCreator 2.0

  0  0  0  0  0  0              0 V3000
M  V30 BEGIN CTAB
M  V30 COUNTS 58 59 0 0 0
M  V30 BEGIN ATOM
M  V30 1 O -0.6275 0.4706 3.7699 0
M  V30 2 C -1.5084 0.148 2.9594 0
M  V30 3 N -2.8448 0.2238 3.3497 0
M  V30 4 C -1.0968 -0.3433 1.5215 0
M  V30 5 C -3.1369 0.8265 4.6524 0
M  V30 6 C -3.9976 -0.306 2.6385 0
M  V30 7 C -1.3497 -1.8641 1.3976 0
M  V30 8 C 0.4423 -0.0945 1.3879 0
M  V30 9 C -1.7744 0.5855 0.4744 0
M  V30 10 C -3.1102 -0.1977 5.7775 0
M  V30 11 C -0.8368 -2.7313 2.3855 0
M  V30 12 C -2.0765 -2.4476 0.347 0
M  V30 13 C 0.9603 -0.199 -0.0434 0
M  V30 14 C -1.1349 0.5761 -0.9204 0
M  V30 15 C -1.0316 -4.1129 2.3191 0
M  V30 16 C -2.2712 -3.8316 0.2796 0
M  V30 17 N 0.3106 0.8132 -0.8848 0
M  V30 18 C -1.7475 -4.6638 1.2632 0
M  V30 19 C 0.8536 0.8247 -2.2555 0
M  V30 20 C 2.2781 1.3919 -2.3294 0
M  V30 21 C 2.7461 1.5172 -3.7824 0
M  V30 22 C 4.1666 2.0791 -3.8632 0
M  V30 23 C 4.633 2.2048 -5.3133 0
M  V30 24 C 6.0447 2.7629 -5.3981 0
M  V30 25 H -4.1189 1.3113 4.6021 0
M  V30 26 H -2.4058 1.6149 4.8658 0
M  V30 27 H -4.5991 -0.9081 3.3262 0
M  V30 28 H -4.599 0.5358 2.2826 0
M  V30 29 H -3.7341 -0.9348 1.7965 0
M  V30 30 H 1.0201 -0.7772 2.0235 0
M  V30 31 H 0.6855 0.9151 1.752 0
M  V30 32 H -2.8384 0.3626 0.3529 0
M  V30 33 H -1.7358 1.6193 0.8486 0
M  V30 34 H -2.1312 -0.6825 5.849 0
M  V30 35 H -3.858 -0.981 5.619 0
M  V30 36 H -3.3227 0.2863 6.7358 0
M  V30 37 H -0.2743 -2.3339 3.2307 0
M  V30 38 H -2.5276 -1.8472 -0.4353 0
M  V30 39 H 0.8105 -1.2104 -0.4409 0
M  V30 40 H 2.0409 -0.0269 -0.0034 0
M  V30 41 H -1.6188 1.3707 -1.5032 0
M  V30 42 H -1.3522 -0.3617 -1.4421 0
M  V30 43 H -0.6222 -4.7548 3.095 0
M  V30 44 H -2.8378 -4.2588 -0.5442 0
M  V30 45 H -1.8998 -5.7382 1.2089 0
M  V30 46 H 0.218 1.4639 -2.8827 0
M  V30 47 H 0.8235 -0.1805 -2.6959 0
M  V30 48 H 2.9793 0.746 -1.79 0
M  V30 49 H 2.3075 2.3785 -1.8502 0
M  V30 50 H 2.0611 2.1722 -4.3345 0
M  V30 51 H 2.7121 0.5326 -4.2646 0
M  V30 52 H 4.8528 1.4245 -3.312 0
M  V30 53 H 4.2006 3.0631 -3.3795 0
M  V30 54 H 4.6045 1.223 -5.8001 0
M  V30 55 H 3.9527 2.8619 -5.8677 0
M  V30 56 H 6.3578 2.8444 -6.4436 0
M  V30 57 H 6.1003 3.7594 -4.9481 0
M  V30 58 H 6.7558 2.1115 -4.8801 0
M  V30 END ATOM
M  V30 BEGIN BOND
M  V30 1 2 1 2
M  V30 2 1 2 3
M  V30 3 1 2 4
M  V30 4 1 3 5
M  V30 5 1 3 6
M  V30 6 1 4 7
M  V30 7 1 4 8
M  V30 8 1 4 9
M  V30 9 1 5 10
M  V30 10 2 7 11
M  V30 11 1 7 12
M  V30 12 1 8 13
M  V30 13 1 9 14
M  V30 14 1 11 15
M  V30 15 2 12 16
M  V30 16 1 13 17
M  V30 17 2 15 18
M  V30 18 1 17 19
M  V30 19 1 19 20
M  V30 20 1 20 21
M  V30 21 1 21 22
M  V30 22 1 22 23
M  V30 23 1 23 24
M  V30 24 1 14 17
M  V30 25 1 16 18
M  V30 26 1 5 25
M  V30 27 1 5 26
M  V30 28 1 6 27
M  V30 29 1 6 28
M  V30 30 1 6 29
M  V30 31 1 8 30
M  V30 32 1 8 31
M  V30 33 1 9 32
M  V30 34 1 9 33
M  V30 35 1 10 34
M  V30 36 1 10 35
M  V30 37 1 10 36
M  V30 38 1 11 37
M  V30 39 1 12 38
M  V30 40 1 13 39
M  V30 41 1 13 40
M  V30 42 1 14 41
M  V30 43 1 14 42
M  V30 44 1 15 43
M  V30 45 1 16 44
M  V30 46 1 18 45
M  V30 47 1 19 46
M  V30 48 1 19 47
M  V30 49 1 20 48
M  V30 50 1 20 49
M  V30 51 1 21 50
M  V30 52 1 21 51
M  V30 53 1 22 52
M  V30 54 1 22 53
M  V30 55 1 23 54
M  V30 56 1 23 55
M  V30 57 1 24 56
M  V30 58 1 24 57
M  V30 59 1 24 58
M  V30 END BOND
M  V30 END CTAB
M  END
>  <NO.>
1534

>  <Name>
sameridine

>  <SMILES>
CCCCCCN1CCC(C(=O)N(C)CC)(c2ccccc2)CC1

>  <logBB>


>  <Class>
1

>  <MW>
330.27

>  <nHBAcc>
2

>  <nHBDon>
0

>  <SLogP>
4.08

>  <TopoPSA>
23.55

>  <MMFF94 Energy>
33.577

$$$$
CCCCCCOc1nsnc1C1=CCCN(C)C1
Actelion Java MolfileCreator 2.0

  0  0  0  0  0  0              0 V3000
M  V30 BEGIN CTAB
M  V30 COUNTS 42 43 0 0 0
M  V30 BEGIN ATOM
M  V30 1 S -0.3189 -0.1594 3.753 0
M  V30 2 N -1.0828 -0.5819 2.3325 0
M  V30 3 N 0.3919 1.2787 3.2964 0
M  V30 4 C -0.7872 0.4041 1.4827 0
M  V30 5 C 0.0385 1.4733 2.0149 0
M  V30 6 O -1.2513 0.3556 0.2044 0
M  V30 7 C 0.4711 2.6362 1.2759 0
M  V30 8 C -1.9644 -0.8242 -0.1683 0
M  V30 9 C -0.2709 3.2961 0.3651 0
M  V30 10 C 1.8842 3.0839 1.6104 0
M  V30 11 C -1.0027 -1.9245 -0.6172 0
M  V30 12 C 0.2501 4.5128 -0.3454 0
M  V30 13 N 2.4754 3.9948 0.6032 0
M  V30 14 C -1.7546 -3.167 -1.0909 0
M  V30 15 C 1.5349 5.0763 0.2832 0
M  V30 16 C 3.7461 4.5304 1.086 0
M  V30 17 C -0.7887 -4.263 -1.5432 0
M  V30 18 C -1.5411 -5.5062 -2.0169 0
M  V30 19 C -0.5843 -6.5983 -2.4673 0
M  V30 20 H -2.5916 -0.54 -1.0219 0
M  V30 21 H -2.6614 -1.1618 0.6089 0
M  V30 22 H -1.2774 2.9755 0.1141 0
M  V30 23 H 1.8719 3.5681 2.597 0
M  V30 24 H 2.5375 2.2039 1.6767 0
M  V30 25 H -0.3643 -1.5377 -1.4213 0
M  V30 26 H -0.3234 -2.19 0.201 0
M  V30 27 H 0.435 4.2455 -1.3929 0
M  V30 28 H -0.5197 5.2927 -0.3397 0
M  V30 29 H -2.4211 -2.8997 -1.9199 0
M  V30 30 H -2.3855 -3.546 -0.2776 0
M  V30 31 H 1.2851 5.653 1.1844 0
M  V30 32 H 1.9857 5.7756 -0.4316 0
M  V30 33 H 4.2126 5.1595 0.3199 0
M  V30 34 H 4.4505 3.7184 1.2973 0
M  V30 35 H 3.6263 5.1293 1.9961 0
M  V30 36 H -0.1223 -4.5306 -0.7142 0
M  V30 37 H -0.1572 -3.8837 -2.3558 0
M  V30 38 H -2.171 -5.8916 -1.2068 0
M  V30 39 H -2.2058 -5.245 -2.8485 0
M  V30 40 H -1.1434 -7.4777 -2.8018 0
M  V30 41 H 0.0389 -6.2552 -3.2992 0
M  V30 42 H 0.0738 -6.9055 -1.6484 0
M  V30 END ATOM
M  V30 BEGIN BOND
M  V30 1 1 1 2
M  V30 2 1 1 3
M  V30 3 2 2 4
M  V30 4 2 3 5
M  V30 5 1 4 6
M  V30 6 1 5 7
M  V30 7 1 6 8
M  V30 8 2 7 9
M  V30 9 1 7 10
M  V30 10 1 8 11
M  V30 11 1 9 12
M  V30 12 1 10 13
M  V30 13 1 11 14
M  V30 14 1 12 15
M  V30 15 1 13 16
M  V30 16 1 14 17
M  V30 17 1 17 18
M  V30 18 1 18 19
M  V30 19 1 4 5
M  V30 20 1 13 15
M  V30 21 1 8 20
M  V30 22 1 8 21
M  V30 23 1 9 22
M  V30 24 1 10 23
M  V30 25 1 10 24
M  V30 26 1 11 25
M  V30 27 1 11 26
M  V30 28 1 12 27
M  V30 29 1 12 28
M  V30 30 1 14 29
M  V30 31 1 14 30
M  V30 32 1 15 31
M  V30 33 1 15 32
M  V30 34 1 16 33
M  V30 35 1 16 34
M  V30 36 1 16 35
M  V30 37 1 17 36
M  V30 38 1 17 37
M  V30 39 1 18 38
M  V30 40 1 18 39
M  V30 41 1 19 40
M  V30 42 1 19 41
M  V30 43 1 19 42
M  V30 END BOND
M  V30 END CTAB
M  END
>  <NO.>
1535

>  <Name>
xanomeline

>  <SMILES>
CCCCCCOc1nsnc1C1=CCCN(C)C1

>  <logBB>


>  <Class>
1

>  <MW>
281.16

>  <nHBAcc>
5

>  <nHBDon>
0

>  <SLogP>
3.22

>  <TopoPSA>
38.25

>  <MMFF94 Energy>
32.986

$$$$
CCCCCCSc1nsnc1C1=CCCN(C)C1
Actelion Java MolfileCreator 2.0

  0  0  0  0  0  0              0 V3000
M  V30 BEGIN CTAB
M  V30 COUNTS 42 43 0 0 0
M  V30 BEGIN ATOM
M  V30 1 S -1.0519 0.9709 -4.2126 0
M  V30 2 N -1.3765 0.3627 -2.695 0
M  V30 3 N 0.5982 1.1819 -4.1036 0
M  V30 4 C -0.191 0.3083 -2.0818 0
M  V30 5 C 0.9402 0.7567 -2.8769 0
M  V30 6 S -0.0845 -0.2532 -0.4104 0
M  V30 7 C 2.3121 0.7876 -2.4428 0
M  V30 8 C -1.8282 -0.5558 9.0E-4 0
M  V30 9 C 3.0201 -0.2946 -2.0687 0
M  V30 10 C 2.9186 2.1768 -2.4479 0
M  V30 11 C -1.942 -1.0465 1.4439 0
M  V30 12 C 4.4568 -0.1795 -1.6463 0
M  V30 13 N 4.1565 2.2817 -1.6431 0
M  V30 14 C -3.4032 -1.3099 1.8185 0
M  V30 15 C 5.0776 1.1878 -1.982 0
M  V30 16 C 4.7892 3.5823 -1.8489 0
M  V30 17 C -3.5282 -1.8017 3.2615 0
M  V30 18 C -4.9868 -2.0644 3.6348 0
M  V30 19 C -5.1155 -2.5535 5.0686 0
M  V30 20 H -2.2371 -1.3096 -0.6802 0
M  V30 21 H -2.397 0.3722 -0.121 0
M  V30 22 H 2.5742 -1.2847 -2.0607 0
M  V30 23 H 3.1155 2.4678 -3.4891 0
M  V30 24 H 2.1938 2.8906 -2.0344 0
M  V30 25 H -1.3654 -1.971 1.5743 0
M  V30 26 H -1.5243 -0.2992 2.1305 0
M  V30 27 H 4.5121 -0.3571 -0.5654 0
M  V30 28 H 5.0424 -0.9656 -2.1361 0
M  V30 29 H -3.8277 -2.0576 1.1376 0
M  V30 30 H -3.9863 -0.3895 1.6925 0
M  V30 31 H 5.3433 1.2218 -3.0475 0
M  V30 32 H 6.0111 1.2861 -1.4144 0
M  V30 33 H 5.6739 3.6835 -1.2106 0
M  V30 34 H 4.1056 4.3914 -1.5684 0
M  V30 35 H 5.0967 3.7354 -2.8896 0
M  V30 36 H -3.1036 -1.0541 3.9427 0
M  V30 37 H -2.9451 -2.722 3.3879 0
M  V30 38 H -5.5736 -1.1463 3.5142 0
M  V30 39 H -5.415 -2.8142 2.9594 0
M  V30 40 H -6.1665 -2.7351 5.3143 0
M  V30 41 H -4.566 -3.4888 5.2149 0
M  V30 42 H -4.7254 -1.8116 5.7727 0
M  V30 END ATOM
M  V30 BEGIN BOND
M  V30 1 1 1 2
M  V30 2 1 1 3
M  V30 3 2 2 4
M  V30 4 2 3 5
M  V30 5 1 4 6
M  V30 6 1 5 7
M  V30 7 1 6 8
M  V30 8 2 7 9
M  V30 9 1 7 10
M  V30 10 1 8 11
M  V30 11 1 9 12
M  V30 12 1 10 13
M  V30 13 1 11 14
M  V30 14 1 12 15
M  V30 15 1 13 16
M  V30 16 1 14 17
M  V30 17 1 17 18
M  V30 18 1 18 19
M  V30 19 1 4 5
M  V30 20 1 13 15
M  V30 21 1 8 20
M  V30 22 1 8 21
M  V30 23 1 9 22
M  V30 24 1 10 23
M  V30 25 1 10 24
M  V30 26 1 11 25
M  V30 27 1 11 26
M  V30 28 1 12 27
M  V30 29 1 12 28
M  V30 30 1 14 29
M  V30 31 1 14 30
M  V30 32 1 15 31
M  V30 33 1 15 32
M  V30 34 1 16 33
M  V30 35 1 16 34
M  V30 36 1 16 35
M  V30 37 1 17 36
M  V30 38 1 17 37
M  V30 39 1 18 38
M  V30 40 1 18 39
M  V30 41 1 19 40
M  V30 42 1 19 41
M  V30 43 1 19 42
M  V30 END BOND
M  V30 END CTAB
M  END
>  <NO.>
1536

>  <Name>
tazomeline

>  <SMILES>
CCCCCCSc1nsnc1C1=CCCN(C)C1

>  <logBB>


>  <Class>
1

>  <MW>
297.13

>  <nHBAcc>
5

>  <nHBDon>
0

>  <SLogP>
3.93

>  <TopoPSA>
29.02

>  <MMFF94 Energy>
29.416

$$$$
CCCCCNCC(N)=O
Actelion Java MolfileCreator 2.0

  0  0  0  0  0  0              0 V3000
M  V30 BEGIN CTAB
M  V30 COUNTS 26 25 0 0 0
M  V30 BEGIN ATOM
M  V30 1 O -3.1278 -0.9146 -3.739 0
M  V30 2 C -2.4779 -0.128 -3.0593 0
M  V30 3 N -2.2517 1.1538 -3.4722 0
M  V30 4 C -1.8163 -0.5032 -1.7284 0
M  V30 5 N -1.6493 0.7021 -0.881 0
M  V30 6 C -1.0422 0.3767 0.4135 0
M  V30 7 C 0.459 0.0938 0.3083 0
M  V30 8 C 1.0753 -0.1302 1.6919 0
M  V30 9 C 2.5742 -0.4132 1.5941 0
M  V30 10 C 3.1898 -0.6358 2.9663 0
M  V30 11 H -1.7071 1.7718 -2.8806 0
M  V30 12 H -2.6352 1.4752 -4.3484 0
M  V30 13 H -2.4554 -1.2382 -1.2273 0
M  V30 14 H -0.8506 -0.9564 -1.9706 0
M  V30 15 H -2.586 1.0741 -0.7063 0
M  V30 16 H -1.1858 1.244 1.0694 0
M  V30 17 H -1.5656 -0.462 0.8883 0
M  V30 18 H 0.9603 0.9376 -0.1821 0
M  V30 19 H 0.6395 -0.7936 -0.3084 0
M  V30 20 H 0.5737 -0.9718 2.1851 0
M  V30 21 H 0.9094 0.756 2.3166 0
M  V30 22 H 2.746 -1.3011 0.9747 0
M  V30 23 H 3.0807 0.4269 1.1048 0
M  V30 24 H 4.2616 -0.8364 2.8729 0
M  V30 25 H 3.0635 0.2472 3.601 0
M  V30 26 H 2.7268 -1.4903 3.4701 0
M  V30 END ATOM
M  V30 BEGIN BOND
M  V30 1 2 1 2
M  V30 2 1 2 3
M  V30 3 1 2 4
M  V30 4 1 4 5
M  V30 5 1 5 6
M  V30 6 1 6 7
M  V30 7 1 7 8
M  V30 8 1 8 9
M  V30 9 1 9 10
M  V30 10 1 3 11
M  V30 11 1 3 12
M  V30 12 1 4 13
M  V30 13 1 4 14
M  V30 14 1 5 15
M  V30 15 1 6 16
M  V30 16 1 6 17
M  V30 17 1 7 18
M  V30 18 1 7 19
M  V30 19 1 8 20
M  V30 20 1 8 21
M  V30 21 1 9 22
M  V30 22 1 9 23
M  V30 23 1 10 24
M  V30 24 1 10 25
M  V30 25 1 10 26
M  V30 END BOND
M  V30 END CTAB
M  END
>  <NO.>
1537

>  <Name>
milacemide

>  <SMILES>
CCCCCNCC(N)=O

>  <logBB>


>  <Class>
1

>  <MW>
144.13

>  <nHBAcc>
2

>  <nHBDon>
2

>  <SLogP>
0.25

>  <TopoPSA>
55.12

>  <MMFF94 Energy>
7.8705

$$$$
CCCCCN[C@@]12C=CC(=O)[C@@H]3Oc4c(O)ccc5c4[C@@]31CCN(C)[C@@H]2C5
Actelion Java MolfileCreator 2.0

  0  0  0  0  0  0              0 V3000
M  V30 BEGIN CTAB
M  V30 COUNTS 55 59 0 0 0
M  V30 BEGIN ATOM
M  V30 1 O -1.288 1.8519 3.7064 0
M  V30 2 C -0.8094 1.5519 2.6118 0
M  V30 3 C -1.3633 2.2122 1.3979 0
M  V30 4 C 0.3464 0.5428 2.4686 0 CFG=2
M  V30 5 C -1.0576 1.7868 0.1635 0
M  V30 6 O 1.4544 1.0203 3.3076 0
M  V30 7 C 0.8775 0.4044 1.0343 0 CFG=1
M  V30 8 C -0.1377 0.6223 -0.1181 0 CFG=1
M  V30 9 C 2.1687 1.8033 2.4347 0
M  V30 10 C 1.8359 1.5547 1.1204 0
M  V30 11 C 1.7188 -0.8732 0.7938 0
M  V30 12 N -1.0258 -0.5196 -0.4633 0
M  V30 13 C 0.7925 0.8342 -1.4049 0 CFG=2
M  V30 14 C 3.0772 2.7836 2.7526 0
M  V30 15 C 2.3024 2.3223 0.0724 0
M  V30 16 C 2.3993 -0.8742 -0.5878 0
M  V30 17 C -1.787 -1.1746 0.5883 0
M  V30 18 N 1.4903 -0.4698 -1.6687 0
M  V30 19 C 1.7235 2.0927 -1.2944 0
M  V30 20 O 3.4213 3.0436 4.0412 0
M  V30 21 C 3.6214 3.5453 1.7191 0
M  V30 22 C 3.221 3.3294 0.3822 0
M  V30 23 C -2.6772 -2.2787 9.0E-4 0
M  V30 24 C 2.1615 -0.5057 -2.9652 0
M  V30 25 C -3.7453 -1.7394 -0.9572 0
M  V30 26 C -4.7414 -2.8084 -1.4129 0
M  V30 27 C -4.1113 -3.9009 -2.2629 0
M  V30 28 H -2.0627 3.0218 1.5725 0
M  V30 29 H 0.0039 -0.4156 2.8726 0
M  V30 30 H -1.5366 2.2613 -0.6897 0
M  V30 31 H 1.082 -1.7615 0.8749 0
M  V30 32 H 2.4935 -0.9943 1.5628 0
M  V30 33 H -0.4586 -1.1998 -0.9832 0
M  V30 34 H 0.1312 1.0125 -2.2663 0
M  V30 35 H 2.761 -1.8924 -0.7788 0
M  V30 36 H 3.2902 -0.2346 -0.5651 0
M  V30 37 H -1.1229 -1.6417 1.3198 0
M  V30 38 H -2.4261 -0.463 1.1205 0
M  V30 39 H 2.529 2.0534 -2.0342 0
M  V30 40 H 1.1188 2.9753 -1.5426 0
M  V30 41 H 2.8767 2.4482 4.5914 0
M  V30 42 H 4.3328 4.3339 1.9511 0
M  V30 43 H 3.6231 3.9686 -0.4007 0
M  V30 44 H -3.1689 -2.8015 0.8308 0
M  V30 45 H -2.0482 -3.0175 -0.5096 0
M  V30 46 H 3.0378 0.1484 -3.0098 0
M  V30 47 H 2.4939 -1.5256 -3.1888 0
M  V30 48 H 1.4729 -0.2206 -3.768 0
M  V30 49 H -3.272 -1.2886 -1.8375 0
M  V30 50 H -4.3059 -0.941 -0.4551 0
M  V30 51 H -5.2299 -3.2599 -0.5414 0
M  V30 52 H -5.529 -2.321 -2.0 0
M  V30 53 H -4.8854 -4.5789 -2.6367 0
M  V30 54 H -3.5884 -3.4756 -3.1253 0
M  V30 55 H -3.3995 -4.4981 -1.6857 0
M  V30 END ATOM
M  V30 BEGIN BOND
M  V30 1 2 1 2
M  V30 2 1 2 3
M  V30 3 1 2 4
M  V30 4 2 3 5
M  V30 5 1 4 6
M  V30 6 1 4 7
M  V30 7 1 5 8
M  V30 8 1 6 9
M  V30 9 1 7 10
M  V30 10 1 7 11
M  V30 11 1 8 12
M  V30 12 1 8 13
M  V30 13 1 9 14
M  V30 14 1 10 15
M  V30 15 1 11 16
M  V30 16 1 12 17
M  V30 17 1 13 18
M  V30 18 1 13 19
M  V30 19 1 14 20
M  V30 20 2 14 21
M  V30 21 2 15 22
M  V30 22 1 17 23
M  V30 23 1 18 24
M  V30 24 1 23 25
M  V30 25 1 25 26
M  V30 26 1 26 27
M  V30 27 1 7 8
M  V30 28 2 9 10
M  V30 29 1 15 19
M  V30 30 1 16 18
M  V30 31 1 21 22
M  V30 32 1 3 28
M  V30 33 1 4 29
M  V30 34 1 5 30
M  V30 35 1 11 31
M  V30 36 1 11 32
M  V30 37 1 12 33
M  V30 38 1 13 34
M  V30 39 1 16 35
M  V30 40 1 16 36
M  V30 41 1 17 37
M  V30 42 1 17 38
M  V30 43 1 19 39
M  V30 44 1 19 40
M  V30 45 1 20 41
M  V30 46 1 21 42
M  V30 47 1 22 43
M  V30 48 1 23 44
M  V30 49 1 23 45
M  V30 50 1 24 46
M  V30 51 1 24 47
M  V30 52 1 24 48
M  V30 53 1 25 49
M  V30 54 1 25 50
M  V30 55 1 26 51
M  V30 56 1 26 52
M  V30 57 1 27 53
M  V30 58 1 27 54
M  V30 59 1 27 55
M  V30 END BOND
M  V30 BEGIN COLLECTION
M  V30 MDLV30/STEABS ATOMS=(4 4 7 8 13)
M  V30 END COLLECTION
M  V30 END CTAB
M  END
>  <NO.>
1538

>  <Name>
pentamorphone

>  <SMILES>
CCCCCN[C@@]12C=CC(=O)[C@@H]3Oc4c(O)ccc5c4[C@@]31CCN(C)[C@@H]2C5

>  <logBB>


>  <Class>
1

>  <MW>
368.21

>  <nHBAcc>
5

>  <nHBDon>
2

>  <SLogP>
2.31

>  <TopoPSA>
61.8

>  <MMFF94 Energy>
107.18

$$$$
CCCCC[C@H](O)/C=C/[C@H]1[C@H](O)CC(=O)[C@@H]1CCCCCCC(=O)O
Actelion Java MolfileCreator 2.0

  0  0  0  0  0  0              0 V3000
M  V30 BEGIN CTAB
M  V30 COUNTS 59 59 0 0 0
M  V30 BEGIN ATOM
M  V30 1 O -0.3912 -4.3106 1.1742 0
M  V30 2 C 0.119 -3.2234 0.9336 0
M  V30 3 C -0.3558 -1.9084 1.5183 0 CFG=1
M  V30 4 C 1.3134 -3.0543 0.0375 0
M  V30 5 C 0.3666 -0.8944 0.612 0 CFG=2
M  V30 6 C -1.8811 -1.7965 1.6091 0
M  V30 7 C 1.7035 -1.6046 0.303 0 CFG=2
M  V30 8 C 0.4237 0.4803 1.2438 0
M  V30 9 C -2.6153 -1.7643 0.2631 0
M  V30 10 O 2.3178 -1.04 -0.8468 0
M  V30 11 C 1.5259 1.1913 1.5353 0
M  V30 12 C -4.1325 -1.8321 0.4626 0
M  V30 13 C 1.5096 2.5647 2.1443 0 CFG=1
M  V30 14 C -4.9277 -1.6411 -0.8323 0
M  V30 15 O 2.2686 2.5116 3.3466 0
M  V30 16 C 2.0742 3.6574 1.2262 0
M  V30 17 C -4.6903 -2.745 -1.8644 0
M  V30 18 C 3.552 3.4792 0.8497 0
M  V30 19 C -5.605 -2.5733 -3.0768 0
M  V30 20 C 4.0471 4.6525 -0.0015 0
M  V30 21 C -5.3675 -3.6409 -4.1102 0
M  V30 22 C 5.4824 4.4754 -0.5018 0
M  V30 23 O -4.522 -4.5181 -4.0942 0
M  V30 24 O -6.2267 -3.5373 -5.1437 0
M  V30 25 C 6.5176 4.4676 0.6123 0
M  V30 26 H 0.06 -1.8602 2.5346 0
M  V30 27 H 2.116 -3.7404 0.3188 0
M  V30 28 H 1.0235 -3.2219 -1.0038 0
M  V30 29 H -0.1635 -0.7711 -0.3416 0
M  V30 30 H -2.2591 -2.6426 2.1977 0
M  V30 31 H -2.139 -0.8912 2.1727 0
M  V30 32 H 2.3981 -1.5434 1.1499 0
M  V30 33 H -0.5479 0.9313 1.4464 0
M  V30 34 H -2.286 -2.6049 -0.3562 0
M  V30 35 H -2.3699 -0.8411 -0.2729 0
M  V30 36 H 3.1568 -1.5087 -0.9998 0
M  V30 37 H 2.5116 0.786 1.3226 0
M  V30 38 H -4.4378 -1.0494 1.1684 0
M  V30 39 H -4.402 -2.792 0.9198 0
M  V30 40 H 0.4871 2.8483 2.4219 0
M  V30 41 H -4.6829 -0.6664 -1.272 0
M  V30 42 H -5.9942 -1.612 -0.576 0
M  V30 43 H 1.8798 1.807 3.892 0
M  V30 44 H 1.4681 3.7162 0.3134 0
M  V30 45 H 1.9719 4.621 1.7427 0
M  V30 46 H -4.866 -3.7263 -1.4066 0
M  V30 47 H -3.6458 -2.732 -2.1967 0
M  V30 48 H 3.6864 2.5486 0.2873 0
M  V30 49 H 4.1544 3.4024 1.7612 0
M  V30 50 H -6.6525 -2.6299 -2.7601 0
M  V30 51 H -5.4253 -1.5994 -3.5454 0
M  V30 52 H 3.9704 5.5845 0.5718 0
M  V30 53 H 3.3918 4.7636 -0.8744 0
M  V30 54 H 5.5638 3.5489 -1.0819 0
M  V30 55 H 5.7148 5.2995 -1.1869 0
M  V30 56 H -5.9708 -4.2742 -5.7373 0
M  V30 57 H 7.526 4.4375 0.1872 0
M  V30 58 H 6.4373 5.3676 1.2302 0
M  V30 59 H 6.4053 3.5921 1.2585 0
M  V30 END ATOM
M  V30 BEGIN BOND
M  V30 1 2 1 2
M  V30 2 1 2 3
M  V30 3 1 2 4
M  V30 4 1 3 5
M  V30 5 1 3 6
M  V30 6 1 4 7
M  V30 7 1 5 8
M  V30 8 1 6 9
M  V30 9 1 7 10
M  V30 10 2 8 11
M  V30 11 1 9 12
M  V30 12 1 11 13
M  V30 13 1 12 14
M  V30 14 1 13 15
M  V30 15 1 13 16
M  V30 16 1 14 17
M  V30 17 1 16 18
M  V30 18 1 17 19
M  V30 19 1 18 20
M  V30 20 1 19 21
M  V30 21 1 20 22
M  V30 22 2 21 23
M  V30 23 1 21 24
M  V30 24 1 22 25
M  V30 25 1 5 7
M  V30 26 1 3 26
M  V30 27 1 4 27
M  V30 28 1 4 28
M  V30 29 1 5 29
M  V30 30 1 6 30
M  V30 31 1 6 31
M  V30 32 1 7 32
M  V30 33 1 8 33
M  V30 34 1 9 34
M  V30 35 1 9 35
M  V30 36 1 10 36
M  V30 37 1 11 37
M  V30 38 1 12 38
M  V30 39 1 12 39
M  V30 40 1 13 40
M  V30 41 1 14 41
M  V30 42 1 14 42
M  V30 43 1 15 43
M  V30 44 1 16 44
M  V30 45 1 16 45
M  V30 46 1 17 46
M  V30 47 1 17 47
M  V30 48 1 18 48
M  V30 49 1 18 49
M  V30 50 1 19 50
M  V30 51 1 19 51
M  V30 52 1 20 52
M  V30 53 1 20 53
M  V30 54 1 22 54
M  V30 55 1 22 55
M  V30 56 1 24 56
M  V30 57 1 25 57
M  V30 58 1 25 58
M  V30 59 1 25 59
M  V30 END BOND
M  V30 BEGIN COLLECTION
M  V30 MDLV30/STEABS ATOMS=(4 3 5 7 13)
M  V30 END COLLECTION
M  V30 END CTAB
M  END
>  <NO.>
1539

>  <Name>
alprostadil

>  <SMILES>
CCCCC[C@H](O)/C=C/[C@H]1[C@H](O)CC(=O)[C@@H]1CCCCCCC(=O)O

>  <logBB>


>  <Class>
-1

>  <MW>
354.24

>  <nHBAcc>
4

>  <nHBDon>
3

>  <SLogP>
3.48

>  <TopoPSA>
94.83

>  <MMFF94 Energy>
-3.9286

$$$$
CCCCCn1ccc(=O)c(O)c1C
Actelion Java MolfileCreator 2.0

  0  0  0  0  0  0              0 V3000
M  V30 BEGIN CTAB
M  V30 COUNTS 31 31 0 0 0
M  V30 BEGIN ATOM
M  V30 1 O 2.3415 1.7948 3.6704 0
M  V30 2 C 1.725 1.043 2.9199 0
M  V30 3 C 2.3867 -0.0823 2.172 0
M  V30 4 C 0.2724 1.2191 2.7465 0
M  V30 5 O 3.7384 -0.2593 2.4078 0
M  V30 6 C 1.6319 -0.849 1.3408 0
M  V30 7 C -0.3621 0.3894 1.9179 0
M  V30 8 N 0.2355 -0.6302 1.1852 0
M  V30 9 C 2.2609 -1.9701 0.5383 0
M  V30 10 C -0.6143 -1.4469 0.2867 0
M  V30 11 C -0.6525 -0.8967 -1.1447 0
M  V30 12 C -1.4568 0.3991 -1.2832 0
M  V30 13 C -1.5764 0.8226 -2.7481 0
M  V30 14 C -2.3681 2.1128 -2.8918 0
M  V30 15 H -0.2139 2.0097 3.2989 0
M  V30 16 H 3.9925 -1.1637 2.1798 0
M  V30 17 H -1.4343 0.4927 1.7701 0
M  V30 18 H 1.949 -2.9403 0.9386 0
M  V30 19 H 3.3536 -1.9494 0.5347 0
M  V30 20 H 1.9719 -1.9151 -0.5145 0
M  V30 21 H -0.257 -2.4829 0.2677 0
M  V30 22 H -1.6357 -1.5108 0.6853 0
M  V30 23 H -1.1084 -1.6616 -1.7858 0
M  V30 24 H 0.3619 -0.7303 -1.5228 0
M  V30 25 H -0.9714 1.2032 -0.7195 0
M  V30 26 H -2.4587 0.2597 -0.8595 0
M  V30 27 H -0.5777 0.9636 -3.1775 0
M  V30 28 H -2.0699 0.0323 -3.3257 0
M  V30 29 H -2.4418 2.3968 -3.9462 0
M  V30 30 H -3.3834 1.9958 -2.4995 0
M  V30 31 H -1.8834 2.9328 -2.3522 0
M  V30 END ATOM
M  V30 BEGIN BOND
M  V30 1 2 1 2
M  V30 2 1 2 3
M  V30 3 1 2 4
M  V30 4 1 3 5
M  V30 5 2 3 6
M  V30 6 2 4 7
M  V30 7 1 6 8
M  V30 8 1 6 9
M  V30 9 1 8 10
M  V30 10 1 10 11
M  V30 11 1 11 12
M  V30 12 1 12 13
M  V30 13 1 13 14
M  V30 14 1 7 8
M  V30 15 1 4 15
M  V30 16 1 5 16
M  V30 17 1 7 17
M  V30 18 1 9 18
M  V30 19 1 9 19
M  V30 20 1 9 20
M  V30 21 1 10 21
M  V30 22 1 10 22
M  V30 23 1 11 23
M  V30 24 1 11 24
M  V30 25 1 12 25
M  V30 26 1 12 26
M  V30 27 1 13 27
M  V30 28 1 13 28
M  V30 29 1 14 29
M  V30 30 1 14 30
M  V30 31 1 14 31
M  V30 END BOND
M  V30 END CTAB
M  END
>  <NO.>
1540

>  <Name>
cp29

>  <SMILES>
CCCCCn1ccc(=O)c(O)c1C

>  <logBB>


>  <Class>
1

>  <MW>
195.13

>  <nHBAcc>
2

>  <nHBDon>
1

>  <SLogP>
2.05

>  <TopoPSA>
42.23

>  <MMFF94 Energy>
47.68

$$$$
CCCCN1C(=O)C2C(=O)N(CCCCN3CCN(c4ccccc4OC)CC3)C(=O)C(C1=O)C2(C)C
Actelion Java MolfileCreator 2.0

  0  0  0  0  0  0              0 V3000
M  V30 BEGIN CTAB
M  V30 COUNTS 77 80 0 0 0
M  V30 BEGIN ATOM
M  V30 1 O -3.0237 1.1131 -0.3974 0
M  V30 2 C -2.8788 0.5796 -1.496 0
M  V30 3 N -1.9332 -0.4204 -1.7404 0
M  V30 4 C -3.7485 0.9797 -2.6746 0
M  V30 5 C -1.6272 -0.9475 -2.9984 0
M  V30 6 C -1.1162 -0.862 -0.6094 0
M  V30 7 C -4.9627 0.0686 -2.7128 0
M  V30 8 C -2.9697 0.9468 -3.9931 0
M  V30 9 O -0.6967 -1.7278 -3.192 0
M  V30 10 C -2.5254 -0.5114 -4.1424 0
M  V30 11 C 0.1328 0.0085 -0.444 0
M  V30 12 O -6.0006 0.38 -2.131 0
M  V30 13 N -4.8148 -1.1242 -3.4264 0
M  V30 14 C -3.8463 1.401 -5.1847 0
M  V30 15 C -1.7599 1.9115 -3.965 0
M  V30 16 C -3.7107 -1.4575 -4.2167 0
M  V30 17 C 0.9667 -0.4421 0.7573 0
M  V30 18 C -5.9538 -2.0442 -3.442 0
M  V30 19 O -3.6723 -2.4587 -4.9298 0
M  V30 20 C 2.2207 0.4271 0.9159 0
M  V30 21 C -6.9167 -1.7237 -4.5904 0
M  V30 22 N 3.1063 -0.0511 1.9889 0
M  V30 23 C -8.1773 -2.5895 -4.5819 0
M  V30 24 C 4.416 0.6481 1.9083 0
M  V30 25 C 2.5331 0.1935 3.3361 0
M  V30 26 C -7.9017 -4.063 -4.8379 0
M  V30 27 C 5.404 0.2292 3.0199 0
M  V30 28 C 3.4744 -0.2321 4.4894 0
M  V30 29 N 4.7882 0.4023 4.3442 0
M  V30 30 C 5.6483 0.5266 5.4359 0
M  V30 31 C 6.5402 1.6244 5.5609 0
M  V30 32 C 5.6542 -0.4379 6.4595 0
M  V30 33 O 6.4767 2.5799 4.5707 0
M  V30 34 C 7.4091 1.7077 6.6594 0
M  V30 35 C 6.5164 -0.3425 7.554 0
M  V30 36 C 7.182 3.7938 4.7816 0
M  V30 37 C 7.3959 0.7273 7.6512 0
M  V30 38 H -4.1049 2.0027 -2.4941 0
M  V30 39 H -1.7191 -0.8261 0.3057 0
M  V30 40 H -0.8234 -1.9077 -0.7606 0
M  V30 41 H -1.9544 -0.6184 -5.0742 0
M  V30 42 H -0.159 1.0581 -0.3162 0
M  V30 43 H 0.7397 -0.0387 -1.3564 0
M  V30 44 H -4.7466 0.7946 -5.3186 0
M  V30 45 H -3.2822 1.3491 -6.1231 0
M  V30 46 H -4.1754 2.4382 -5.0511 0
M  V30 47 H -1.1998 1.8588 -4.9058 0
M  V30 48 H -1.052 1.6983 -3.1589 0
M  V30 49 H -2.0929 2.9476 -3.8334 0
M  V30 50 H 0.3441 -0.3872 1.6571 0
M  V30 51 H 1.2592 -1.4912 0.6256 0
M  V30 52 H -5.5781 -3.0688 -3.535 0
M  V30 53 H -6.4833 -1.98 -2.4842 0
M  V30 54 H 2.7665 0.3896 -0.0359 0
M  V30 55 H 1.9364 1.4752 1.0769 0
M  V30 56 H -6.4008 -1.8319 -5.5523 0
M  V30 57 H -7.2215 -0.6716 -4.5244 0
M  V30 58 H -8.7015 -2.4767 -3.6258 0
M  V30 59 H -8.8563 -2.222 -5.3605 0
M  V30 60 H 4.8852 0.4281 0.9417 0
M  V30 61 H 4.2651 1.7351 1.9604 0
M  V30 62 H 2.2921 1.2588 3.4534 0
M  V30 63 H 1.6011 -0.3685 3.4566 0
M  V30 64 H -8.8449 -4.613 -4.9171 0
M  V30 65 H -7.3485 -4.2029 -5.7718 0
M  V30 66 H -7.3254 -4.511 -4.0232 0
M  V30 67 H 6.3225 0.8128 2.8994 0
M  V30 68 H 5.6793 -0.8254 2.8884 0
M  V30 69 H 3.5821 -1.3241 4.4873 0
M  V30 70 H 3.0061 0.0628 5.4366 0
M  V30 71 H 4.9962 -1.3002 6.4029 0
M  V30 72 H 8.1093 2.5279 6.7721 0
M  V30 73 H 6.5022 -1.1101 8.323 0
M  V30 74 H 6.8699 4.2817 5.7111 0
M  V30 75 H 6.9386 4.469 3.9556 0
M  V30 76 H 8.2638 3.6269 4.7639 0
M  V30 77 H 8.0717 0.8016 8.4989 0
M  V30 END ATOM
M  V30 BEGIN BOND
M  V30 1 2 1 2
M  V30 2 1 2 3
M  V30 3 1 2 4
M  V30 4 1 3 5
M  V30 5 1 3 6
M  V30 6 1 4 7
M  V30 7 1 4 8
M  V30 8 2 5 9
M  V30 9 1 5 10
M  V30 10 1 6 11
M  V30 11 2 7 12
M  V30 12 1 7 13
M  V30 13 1 8 14
M  V30 14 1 8 15
M  V30 15 1 10 16
M  V30 16 1 11 17
M  V30 17 1 13 18
M  V30 18 2 16 19
M  V30 19 1 17 20
M  V30 20 1 18 21
M  V30 21 1 20 22
M  V30 22 1 21 23
M  V30 23 1 22 24
M  V30 24 1 22 25
M  V30 25 1 23 26
M  V30 26 1 24 27
M  V30 27 1 25 28
M  V30 28 1 27 29
M  V30 29 1 29 30
M  V30 30 2 30 31
M  V30 31 1 30 32
M  V30 32 1 31 33
M  V30 33 1 31 34
M  V30 34 2 32 35
M  V30 35 1 33 36
M  V30 36 2 34 37
M  V30 37 1 8 10
M  V30 38 1 13 16
M  V30 39 1 28 29
M  V30 40 1 35 37
M  V30 41 1 4 38
M  V30 42 1 6 39
M  V30 43 1 6 40
M  V30 44 1 10 41
M  V30 45 1 11 42
M  V30 46 1 11 43
M  V30 47 1 14 44
M  V30 48 1 14 45
M  V30 49 1 14 46
M  V30 50 1 15 47
M  V30 51 1 15 48
M  V30 52 1 15 49
M  V30 53 1 17 50
M  V30 54 1 17 51
M  V30 55 1 18 52
M  V30 56 1 18 53
M  V30 57 1 20 54
M  V30 58 1 20 55
M  V30 59 1 21 56
M  V30 60 1 21 57
M  V30 61 1 23 58
M  V30 62 1 23 59
M  V30 63 1 24 60
M  V30 64 1 24 61
M  V30 65 1 25 62
M  V30 66 1 25 63
M  V30 67 1 26 64
M  V30 68 1 26 65
M  V30 69 1 26 66
M  V30 70 1 27 67
M  V30 71 1 27 68
M  V30 72 1 28 69
M  V30 73 1 28 70
M  V30 74 1 32 71
M  V30 75 1 34 72
M  V30 76 1 35 73
M  V30 77 1 36 74
M  V30 78 1 36 75
M  V30 79 1 36 76
M  V30 80 1 37 77
M  V30 END BOND
M  V30 END CTAB
M  END
>  <NO.>
1541

>  <Name>
umespirone

>  <SMILES>
CCCCN1C(=O)C2C(=O)N(CCCCN3CCN(c4ccccc4OC)CC3)C(=O)C(C1=O)C2(C)C

>  <logBB>


>  <Class>
1

>  <MW>
512.3

>  <nHBAcc>
7

>  <nHBDon>
0

>  <SLogP>
2.39

>  <TopoPSA>
90.47

>  <MMFF94 Energy>
51.122

$$$$
CCCCNC(=O)OCC(C)(CCC)COC(N)=O
Actelion Java MolfileCreator 2.0

  0  0  0  0  0  0              0 V3000
M  V30 BEGIN CTAB
M  V30 COUNTS 45 44 0 0 0
M  V30 BEGIN ATOM
M  V30 1 O -1.002 -2.3135 0.2311 0
M  V30 2 C -0.0651 -1.559 0.4388 0
M  V30 3 O -0.1595 -0.2166 0.5956 0
M  V30 4 N 1.2411 -1.9203 0.5481 0
M  V30 5 C -1.4901 0.303 0.475 0
M  V30 6 C 1.7099 -3.2804 0.4236 0
M  V30 7 C -1.494 1.8469 0.5953 0 CFG=2
M  V30 8 C 2.4709 -3.5086 -0.8821 0
M  V30 9 C -0.452 2.4711 -0.3639 0
M  V30 10 C -1.2392 2.3233 2.0566 0
M  V30 11 C -2.9068 2.3374 0.1967 0
M  V30 12 C 1.6246 -3.387 -2.1527 0
M  V30 13 O -0.7378 2.085 -1.7179 0
M  V30 14 C 0.0916 1.9209 2.6996 0
M  V30 15 C 0.564 -4.4699 -2.2787 0
M  V30 16 C 0.1565 2.5359 -2.6243 0
M  V30 17 C 0.2467 2.5482 4.079 0
M  V30 18 O 1.1353 3.2276 -2.3971 0
M  V30 19 N -0.1857 2.1057 -3.8579 0
M  V30 20 H 1.8936 -1.1697 0.7262 0
M  V30 21 H -2.1199 -0.1342 1.2605 0
M  V30 22 H -1.8955 0.0018 -0.4996 0
M  V30 23 H 0.8762 -3.9815 0.5275 0
M  V30 24 H 2.3878 -3.4503 1.2671 0
M  V30 25 H 2.9313 -4.5037 -0.8527 0
M  V30 26 H 3.2929 -2.7843 -0.9465 0
M  V30 27 H -0.4896 3.5658 -0.2946 0
M  V30 28 H 0.5619 2.1416 -0.1111 0
M  V30 29 H -2.0511 1.9507 2.6965 0
M  V30 30 H -1.3168 3.4192 2.082 0
M  V30 31 H -3.1732 2.0278 -0.8198 0
M  V30 32 H -3.6694 1.9331 0.8723 0
M  V30 33 H -2.9708 3.4307 0.2376 0
M  V30 34 H 1.151 -2.4003 -2.2055 0
M  V30 35 H 2.2934 -3.4581 -3.019 0
M  V30 36 H 0.1464 0.8342 2.814 0
M  V30 37 H 0.9357 2.2355 2.0788 0
M  V30 38 H 0.0512 -4.3822 -3.2419 0
M  V30 39 H 1.013 -5.4667 -2.2246 0
M  V30 40 H -0.1917 -4.3891 -1.4929 0
M  V30 41 H 1.1964 2.2424 4.5292 0
M  V30 42 H 0.2371 3.6411 4.0168 0
M  V30 43 H -0.5622 2.2339 4.7464 0
M  V30 44 H 0.3909 2.3612 -4.6444 0
M  V30 45 H -1.0035 1.5295 -3.9804 0
M  V30 END ATOM
M  V30 BEGIN BOND
M  V30 1 2 1 2
M  V30 2 1 2 3
M  V30 3 1 2 4
M  V30 4 1 3 5
M  V30 5 1 4 6
M  V30 6 1 5 7
M  V30 7 1 6 8
M  V30 8 1 7 9
M  V30 9 1 7 10
M  V30 10 1 7 11
M  V30 11 1 8 12
M  V30 12 1 9 13
M  V30 13 1 10 14
M  V30 14 1 12 15
M  V30 15 1 13 16
M  V30 16 1 14 17
M  V30 17 2 16 18
M  V30 18 1 16 19
M  V30 19 1 4 20
M  V30 20 1 5 21
M  V30 21 1 5 22
M  V30 22 1 6 23
M  V30 23 1 6 24
M  V30 24 1 8 25
M  V30 25 1 8 26
M  V30 26 1 9 27
M  V30 27 1 9 28
M  V30 28 1 10 29
M  V30 29 1 10 30
M  V30 30 1 11 31
M  V30 31 1 11 32
M  V30 32 1 11 33
M  V30 33 1 12 34
M  V30 34 1 12 35
M  V30 35 1 14 36
M  V30 36 1 14 37
M  V30 37 1 15 38
M  V30 38 1 15 39
M  V30 39 1 15 40
M  V30 40 1 17 41
M  V30 41 1 17 42
M  V30 42 1 17 43
M  V30 43 1 19 44
M  V30 44 1 19 45
M  V30 END BOND
M  V30 BEGIN COLLECTION
M  V30 MDLV30/STERAC1 ATOMS=(1 7)
M  V30 END COLLECTION
M  V30 END CTAB
M  END
>  <NO.>
1543

>  <Name>
tybamate

>  <SMILES>
CCCCNC(=O)OCC(C)(CCC)COC(N)=O

>  <logBB>


>  <Class>
1

>  <MW>
274.19

>  <nHBAcc>
4

>  <nHBDon>
2

>  <SLogP>
2.41

>  <TopoPSA>
90.65

>  <MMFF94 Energy>
-127.71

$$$$
CCCCNCC1COc2cccc(OCC)c2O1
Actelion Java MolfileCreator 2.0

  0  0  0  0  0  0              0 V3000
M  V30 BEGIN CTAB
M  V30 COUNTS 42 43 0 0 0
M  V30 BEGIN ATOM
M  V30 1 O 1.2565 0.0 -0.6281 0
M  V30 2 C 2.2069 -0.9859 -0.772 0
M  V30 3 C 1.6449 0.9839 0.3424 0 CFG=2
M  V30 4 C 3.2268 -1.1823 0.1698 0
M  V30 5 C 2.1227 -1.814 -1.9039 0
M  V30 6 C 2.1579 0.2948 1.6006 0
M  V30 7 C 0.4603 1.9376 0.6093 0
M  V30 8 O 3.3583 -0.4348 1.314 0
M  V30 9 C 4.187 -2.1705 -0.0307 0
M  V30 10 O 1.0881 -1.5566 -2.7662 0
M  V30 11 C 3.0858 -2.8123 -2.0886 0
M  V30 12 N -0.6787 1.3306 1.3147 0
M  V30 13 C 4.1155 -2.9858 -1.158 0
M  V30 14 C 0.9101 -2.4391 -3.8698 0
M  V30 15 C -1.8009 2.2644 1.4128 0
M  V30 16 C -0.3306 -1.9983 -4.6257 0
M  V30 17 C -2.9585 1.602 2.1633 0
M  V30 18 C -4.1564 2.5458 2.2764 0
M  V30 19 C -5.3108 1.8943 3.021 0
M  V30 20 H 2.4517 1.579 -0.109 0
M  V30 21 H 1.4272 -0.4091 2.018 0
M  V30 22 H 2.4018 1.0314 2.3733 0
M  V30 23 H 0.8253 2.793 1.1909 0
M  V30 24 H 0.1118 2.3138 -0.3606 0
M  V30 25 H 4.9825 -2.3107 0.6956 0
M  V30 26 H 3.0686 -3.469 -2.9518 0
M  V30 27 H -0.4064 1.026 2.2471 0
M  V30 28 H 4.8614 -3.7614 -1.3128 0
M  V30 29 H 0.7679 -3.4677 -3.5189 0
M  V30 30 H 1.7746 -2.3854 -4.5412 0
M  V30 31 H -1.4925 3.173 1.9437 0
M  V30 32 H -2.1372 2.5528 0.41 0
M  V30 33 H -0.5123 -2.6456 -5.4881 0
M  V30 34 H -1.2093 -2.0241 -3.9726 0
M  V30 35 H -0.2231 -0.9659 -4.9746 0
M  V30 36 H -2.6309 1.3073 3.1684 0
M  V30 37 H -3.2631 0.686 1.6414 0
M  V30 38 H -3.8608 3.4614 2.8017 0
M  V30 39 H -4.4944 2.8402 1.276 0
M  V30 40 H -6.156 2.5863 3.09 0
M  V30 41 H -5.652 0.992 2.5037 0
M  V30 42 H -5.0151 1.6168 4.0378 0
M  V30 END ATOM
M  V30 BEGIN BOND
M  V30 1 1 1 2
M  V30 2 1 1 3
M  V30 3 2 2 4
M  V30 4 1 2 5
M  V30 5 1 3 6
M  V30 6 1 3 7
M  V30 7 1 4 8
M  V30 8 1 4 9
M  V30 9 1 5 10
M  V30 10 2 5 11
M  V30 11 1 7 12
M  V30 12 2 9 13
M  V30 13 1 10 14
M  V30 14 1 12 15
M  V30 15 1 14 16
M  V30 16 1 15 17
M  V30 17 1 17 18
M  V30 18 1 18 19
M  V30 19 1 6 8
M  V30 20 1 11 13
M  V30 21 1 3 20
M  V30 22 1 6 21
M  V30 23 1 6 22
M  V30 24 1 7 23
M  V30 25 1 7 24
M  V30 26 1 9 25
M  V30 27 1 11 26
M  V30 28 1 12 27
M  V30 29 1 13 28
M  V30 30 1 14 29
M  V30 31 1 14 30
M  V30 32 1 15 31
M  V30 33 1 15 32
M  V30 34 1 16 33
M  V30 35 1 16 34
M  V30 36 1 16 35
M  V30 37 1 17 36
M  V30 38 1 17 37
M  V30 39 1 18 38
M  V30 40 1 18 39
M  V30 41 1 19 40
M  V30 42 1 19 41
M  V30 43 1 19 42
M  V30 END BOND
M  V30 BEGIN COLLECTION
M  V30 MDLV30/STERAC1 ATOMS=(1 3)
M  V30 END COLLECTION
M  V30 END CTAB
M  END
>  <NO.>
1544

>  <Name>
ethomoxane

>  <SMILES>
CCCCNCC1COc2cccc(OCC)c2O1

>  <logBB>


>  <Class>
1

>  <MW>
265.17

>  <nHBAcc>
4

>  <nHBDon>
1

>  <SLogP>
2.61

>  <TopoPSA>
39.72

>  <MMFF94 Energy>
76.345

$$$$
CCCCNCC1COc2ccccc2O1
Actelion Java MolfileCreator 2.0

  0  0  0  0  0  0              0 V3000
M  V30 BEGIN CTAB
M  V30 COUNTS 35 36 0 0 0
M  V30 BEGIN ATOM
M  V30 1 O 0.0 -0.629 -2.9117 0
M  V30 2 C -0.5057 -1.6516 -2.153 0
M  V30 3 C 1.273 -0.15 -2.4522 0 CFG=2
M  V30 4 C 0.2049 -2.288 -1.1313 0
M  V30 5 C -1.8109 -2.0485 -2.4402 0
M  V30 6 C 2.132 -1.2754 -1.8768 0
M  V30 7 C 1.1212 1.0878 -1.5303 0
M  V30 8 O 1.4924 -1.9548 -0.7947 0
M  V30 9 C -0.4 -3.2907 -0.3752 0
M  V30 10 C -2.4123 -3.0644 -1.695 0
M  V30 11 N 0.4483 0.855 -0.2493 0
M  V30 12 C -1.7088 -3.6821 -0.6602 0
M  V30 13 C 0.521 2.0162 0.6306 0
M  V30 14 C -0.2183 1.7172 1.9364 0
M  V30 15 C -0.1738 2.9161 2.8844 0
M  V30 16 C -0.9069 2.626 4.1844 0
M  V30 17 H 1.787 0.2089 -3.3533 0
M  V30 18 H -2.3636 -1.5558 -3.2349 0
M  V30 19 H 2.3644 -2.017 -2.6525 0
M  V30 20 H 3.085 -0.8811 -1.5081 0
M  V30 21 H 2.1251 1.4912 -1.3481 0
M  V30 22 H 0.5495 1.8472 -2.0775 0
M  V30 23 H 0.1491 -3.7702 0.4296 0
M  V30 24 H -3.4326 -3.3665 -1.9159 0
M  V30 25 H 0.8313 0.027 0.2103 0
M  V30 26 H -2.1803 -4.4667 -0.0745 0
M  V30 27 H 1.5667 2.2616 0.8505 0
M  V30 28 H 0.0626 2.8849 0.1436 0
M  V30 29 H 0.2326 0.8463 2.4289 0
M  V30 30 H -1.2634 1.4607 1.7209 0
M  V30 31 H 0.8673 3.1749 3.1089 0
M  V30 32 H -0.6288 3.7892 2.4025 0
M  V30 33 H -0.8626 3.496 4.8469 0
M  V30 34 H -1.9603 2.3946 3.9976 0
M  V30 35 H -0.456 1.777 4.708 0
M  V30 END ATOM
M  V30 BEGIN BOND
M  V30 1 1 1 2
M  V30 2 1 1 3
M  V30 3 2 2 4
M  V30 4 1 2 5
M  V30 5 1 3 6
M  V30 6 1 3 7
M  V30 7 1 4 8
M  V30 8 1 4 9
M  V30 9 2 5 10
M  V30 10 1 7 11
M  V30 11 2 9 12
M  V30 12 1 11 13
M  V30 13 1 13 14
M  V30 14 1 14 15
M  V30 15 1 15 16
M  V30 16 1 6 8
M  V30 17 1 10 12
M  V30 18 1 3 17
M  V30 19 1 5 18
M  V30 20 1 6 19
M  V30 21 1 6 20
M  V30 22 1 7 21
M  V30 23 1 7 22
M  V30 24 1 9 23
M  V30 25 1 10 24
M  V30 26 1 11 25
M  V30 27 1 12 26
M  V30 28 1 13 27
M  V30 29 1 13 28
M  V30 30 1 14 29
M  V30 31 1 14 30
M  V30 32 1 15 31
M  V30 33 1 15 32
M  V30 34 1 16 33
M  V30 35 1 16 34
M  V30 36 1 16 35
M  V30 END BOND
M  V30 BEGIN COLLECTION
M  V30 MDLV30/STERAC1 ATOMS=(1 3)
M  V30 END COLLECTION
M  V30 END CTAB
M  END
>  <NO.>
1545

>  <Name>
butamoxane

>  <SMILES>
CCCCNCC1COc2ccccc2O1

>  <logBB>


>  <Class>
1

>  <MW>
221.14

>  <nHBAcc>
3

>  <nHBDon>
1

>  <SLogP>
2.22

>  <TopoPSA>
30.49

>  <MMFF94 Energy>
62.178

$$$$
CCCCNc1c(C(=O)OCC)c(C)nc2c1cnn2CC
Actelion Java MolfileCreator 2.0

  0  0  0  0  0  0              0 V3000
M  V30 BEGIN CTAB
M  V30 COUNTS 46 47 0 0 0
M  V30 BEGIN ATOM
M  V30 1 O 1.9587 0.0 -2.3508 0
M  V30 2 C 1.7901 0.1175 -1.15 0
M  V30 3 O 2.5765 -0.3671 -0.1578 0
M  V30 4 C 0.7007 0.8789 -0.5313 0
M  V30 5 C 3.7135 -1.1037 -0.6216 0
M  V30 6 C -0.5176 0.2671 -0.148 0
M  V30 7 C 0.942 2.2517 -0.3185 0
M  V30 8 C 4.4714 -1.6134 0.5881 0
M  V30 9 N -0.8989 -1.048 -0.3276 0
M  V30 10 C -1.4168 1.1557 0.493 0
M  V30 11 N 0.0656 3.0927 0.2811 0
M  V30 12 C 2.2331 2.8954 -0.7519 0
M  V30 13 C -0.2479 -2.0344 -1.1731 0
M  V30 14 C -1.0725 2.4886 0.6628 0
M  V30 15 C -2.7123 1.0732 1.0639 0
M  V30 16 C -1.0696 -3.3264 -1.2278 0
M  V30 17 N -2.1333 3.0824 1.2953 0
M  V30 18 N -3.1541 2.2353 1.5549 0
M  V30 19 C -1.0615 -4.0861 0.1013 0
M  V30 20 C -2.2328 4.4747 1.6823 0
M  V30 21 C -1.8487 -5.3835 0.0031 0
M  V30 22 C -2.8511 5.3291 0.5904 0
M  V30 23 H 4.3594 -0.4472 -1.215 0
M  V30 24 H 3.3837 -1.9495 -1.2351 0
M  V30 25 H 5.3535 -2.1837 0.2841 0
M  V30 26 H 4.7901 -0.7798 1.2226 0
M  V30 27 H 3.8302 -2.254 1.2025 0
M  V30 28 H -1.8089 -1.3106 0.0358 0
M  V30 29 H 2.2282 3.9661 -0.5203 0
M  V30 30 H 2.3704 2.7923 -1.8326 0
M  V30 31 H 3.0822 2.4473 -0.227 0
M  V30 32 H -0.163 -1.6441 -2.193 0
M  V30 33 H 0.7516 -2.2695 -0.7964 0
M  V30 34 H -3.3531 0.2051 1.14 0
M  V30 35 H -0.6484 -3.9716 -2.0085 0
M  V30 36 H -2.1027 -3.1011 -1.5205 0
M  V30 37 H -0.0296 -4.3139 0.3925 0
M  V30 38 H -1.4936 -3.4688 0.8968 0
M  V30 39 H -1.2273 4.8314 1.9292 0
M  V30 40 H -2.8345 4.5236 2.5968 0
M  V30 41 H -1.8293 -5.9119 0.9613 0
M  V30 42 H -2.8942 -5.189 -0.2564 0
M  V30 43 H -1.4223 -6.0446 -0.7578 0
M  V30 44 H -3.8605 4.984 0.3431 0
M  V30 45 H -2.2526 5.2931 -0.3258 0
M  V30 46 H -2.9164 6.3721 0.915 0
M  V30 END ATOM
M  V30 BEGIN BOND
M  V30 1 2 1 2
M  V30 2 1 2 3
M  V30 3 1 2 4
M  V30 4 1 3 5
M  V30 5 2 4 6
M  V30 6 1 4 7
M  V30 7 1 5 8
M  V30 8 1 6 9
M  V30 9 1 6 10
M  V30 10 2 7 11
M  V30 11 1 7 12
M  V30 12 1 9 13
M  V30 13 2 10 14
M  V30 14 1 10 15
M  V30 15 1 13 16
M  V30 16 1 14 17
M  V30 17 2 15 18
M  V30 18 1 16 19
M  V30 19 1 17 20
M  V30 20 1 19 21
M  V30 21 1 20 22
M  V30 22 1 11 14
M  V30 23 1 17 18
M  V30 24 1 5 23
M  V30 25 1 5 24
M  V30 26 1 8 25
M  V30 27 1 8 26
M  V30 28 1 8 27
M  V30 29 1 9 28
M  V30 30 1 12 29
M  V30 31 1 12 30
M  V30 32 1 12 31
M  V30 33 1 13 32
M  V30 34 1 13 33
M  V30 35 1 15 34
M  V30 36 1 16 35
M  V30 37 1 16 36
M  V30 38 1 19 37
M  V30 39 1 19 38
M  V30 40 1 20 39
M  V30 41 1 20 40
M  V30 42 1 21 41
M  V30 43 1 21 42
M  V30 44 1 21 43
M  V30 45 1 22 44
M  V30 46 1 22 45
M  V30 47 1 22 46
M  V30 END BOND
M  V30 END CTAB
M  END
>  <NO.>
1546

>  <Name>
tracazolate

>  <SMILES>
CCCCNc1c(C(=O)OCC)c(C)nc2c1cnn2CC

>  <logBB>


>  <Class>
1

>  <MW>
304.19

>  <nHBAcc>
5

>  <nHBDon>
1

>  <SLogP>
3.15

>  <TopoPSA>
69.04

>  <MMFF94 Energy>
65.504

$$$$
CCCCNc1c(C(=O)OCC)cnc2c1cnn2CC
Actelion Java MolfileCreator 2.0

  0  0  0  0  0  0              0 V3000
M  V30 BEGIN CTAB
M  V30 COUNTS 43 44 0 0 0
M  V30 BEGIN ATOM
M  V30 1 O 2.9053 0.4706 0.0784 0
M  V30 2 C 2.3532 -0.0696 -0.8689 0
M  V30 3 O 2.9884 -0.5995 -1.9459 0
M  V30 4 C 0.8774 -0.2138 -1.0048 0
M  V30 5 C 4.4166 -0.4797 -1.908 0
M  V30 6 C -0.0081 0.5944 -0.2339 0
M  V30 7 C 0.3709 -1.1774 -1.8792 0
M  V30 8 C 4.9768 -1.1129 -3.1664 0
M  V30 9 N 0.5062 1.5688 0.6163 0
M  V30 10 C -1.3865 0.3424 -0.4677 0
M  V30 11 N -0.9354 -1.4375 -2.1024 0
M  V30 12 C -0.2194 2.4938 1.461 0
M  V30 13 C -1.7493 -0.648 -1.3772 0
M  V30 14 C -2.6405 0.8309 -0.0174 0
M  V30 15 C -0.6491 1.8428 2.7768 0
M  V30 16 N -3.1188 -0.677 -1.3998 0
M  V30 17 N -3.6924 0.221 -0.5735 0
M  V30 18 C 0.5403 1.4707 3.6665 0
M  V30 19 C -3.948 -1.5522 -2.2029 0
M  V30 20 C 0.0795 0.8803 4.9902 0
M  V30 21 C -4.2799 -2.8461 -1.4816 0
M  V30 22 H 4.8075 -0.9994 -1.0261 0
M  V30 23 H 4.6975 0.5786 -1.8689 0
M  V30 24 H 1.0356 -1.8152 -2.4584 0
M  V30 25 H 6.0681 -1.0466 -3.1841 0
M  V30 26 H 4.685 -2.1664 -3.2304 0
M  V30 27 H 4.5776 -0.6174 -4.0577 0
M  V30 28 H 1.5071 1.4819 0.8261 0
M  V30 29 H 0.4418 3.3398 1.685 0
M  V30 30 H -1.073 2.926 0.9311 0
M  V30 31 H -2.8413 1.6103 0.703 0
M  V30 32 H -1.2503 0.9468 2.5858 0
M  V30 33 H -1.2916 2.5489 3.3172 0
M  V30 34 H 1.1812 0.7416 3.1581 0
M  V30 35 H 1.1508 2.3596 3.8633 0
M  V30 36 H -3.4191 -1.7565 -3.1398 0
M  V30 37 H -4.8639 -1.0052 -2.4535 0
M  V30 38 H 0.943 0.6216 5.6109 0
M  V30 39 H -0.536 1.595 5.5459 0
M  V30 40 H -0.5087 -0.0289 4.8303 0
M  V30 41 H -4.817 -2.6508 -0.5472 0
M  V30 42 H -3.3711 -3.4045 -1.2334 0
M  V30 43 H -4.9099 -3.4815 -2.1115 0
M  V30 END ATOM
M  V30 BEGIN BOND
M  V30 1 2 1 2
M  V30 2 1 2 3
M  V30 3 1 2 4
M  V30 4 1 3 5
M  V30 5 2 4 6
M  V30 6 1 4 7
M  V30 7 1 5 8
M  V30 8 1 6 9
M  V30 9 1 6 10
M  V30 10 2 7 11
M  V30 11 1 9 12
M  V30 12 2 10 13
M  V30 13 1 10 14
M  V30 14 1 12 15
M  V30 15 1 13 16
M  V30 16 2 14 17
M  V30 17 1 15 18
M  V30 18 1 16 19
M  V30 19 1 18 20
M  V30 20 1 19 21
M  V30 21 1 11 13
M  V30 22 1 16 17
M  V30 23 1 5 22
M  V30 24 1 5 23
M  V30 25 1 7 24
M  V30 26 1 8 25
M  V30 27 1 8 26
M  V30 28 1 8 27
M  V30 29 1 9 28
M  V30 30 1 12 29
M  V30 31 1 12 30
M  V30 32 1 14 31
M  V30 33 1 15 32
M  V30 34 1 15 33
M  V30 35 1 18 34
M  V30 36 1 18 35
M  V30 37 1 19 36
M  V30 38 1 19 37
M  V30 39 1 20 38
M  V30 40 1 20 39
M  V30 41 1 20 40
M  V30 42 1 21 41
M  V30 43 1 21 42
M  V30 44 1 21 43
M  V30 END BOND
M  V30 END CTAB
M  END
>  <NO.>
1547

>  <Name>
cartazolate

>  <SMILES>
CCCCNc1c(C(=O)OCC)cnc2c1cnn2CC

>  <logBB>


>  <Class>
1

>  <MW>
290.17

>  <nHBAcc>
5

>  <nHBDon>
1

>  <SLogP>
2.84

>  <TopoPSA>
69.04

>  <MMFF94 Energy>
61.808

$$$$
CCCCOC(=O)C(=O)C1C(C)CC2C3CC(F)C4=CC(=O)C=CC4(C)C3C(O)CC21C
Actelion Java MolfileCreator 2.0

  0  0  0  0  0  0              0 V3000
M  V30 BEGIN CTAB
M  V30 COUNTS 67 70 0 0 0
M  V30 BEGIN ATOM
M  V30 1 F 3.1373 -3.2984 -2.4932 0
M  V30 2 C 2.1052 -3.7268 -1.7178 0
M  V30 3 C 0.8844 -4.0019 -2.5535 0
M  V30 4 C 1.8008 -2.6641 -0.6716 0
M  V30 5 C 0.3599 -5.2403 -2.5986 0
M  V30 6 C 0.273 -2.7886 -3.27 0
M  V30 7 C 1.215 -1.3772 -1.2874 0
M  V30 8 C -0.8813 -5.536 -3.3401 0
M  V30 9 C -1.0234 -3.1777 -3.9804 0
M  V30 10 C -0.0273 -1.6841 -2.1779 0
M  V30 11 C 1.2417 -2.3362 -4.3859 0
M  V30 12 C 0.9326 -0.3334 -0.1791 0
M  V30 13 O -1.3476 -6.6674 -3.3726 0
M  V30 14 C -1.5457 -4.4105 -4.0203 0
M  V30 15 C -0.6425 -0.3691 -2.7179 0
M  V30 16 C 0.2627 0.968 -0.6756 0
M  V30 17 C -0.005 -0.8048 0.9456 0
M  V30 18 O 0.2026 0.2364 -3.6845 0
M  V30 19 C -0.9389 0.6382 -1.5979 0
M  V30 20 C -0.1512 1.6296 0.6755 0
M  V30 21 C 1.2741 1.8821 -1.3935 0
M  V30 22 C -0.4969 0.4745 1.6423 0
M  V30 23 C -1.1828 2.7444 0.5887 0
M  V30 24 C -1.954 0.348 2.0746 0
M  V30 25 O -2.2476 2.6865 -0.0121 0
M  V30 26 C -0.8343 4.0073 1.3617 0
M  V30 27 O -0.5206 5.0508 0.8224 0
M  V30 28 O -0.9187 3.7405 2.6812 0
M  V30 29 C -0.6101 4.8561 3.5246 0
M  V30 30 C -0.6979 4.4131 4.9826 0
M  V30 31 C 0.3299 3.3303 5.3202 0
M  V30 32 C 0.2501 2.9258 6.7839 0
M  V30 33 H 2.4561 -4.6332 -1.2117 0
M  V30 34 H 1.1019 -3.0862 0.0606 0
M  V30 35 H 2.725 -2.4149 -0.1362 0
M  V30 36 H 0.7991 -6.0866 -2.0824 0
M  V30 37 H 1.9926 -0.9466 -1.9316 0
M  V30 38 H -1.5406 -2.3965 -4.5338 0
M  V30 39 H -0.7913 -2.1191 -1.5151 0
M  V30 40 H 0.7569 -1.6767 -5.1148 0
M  V30 41 H 1.6181 -3.1957 -4.9562 0
M  V30 42 H 2.1131 -1.8018 -3.9967 0
M  V30 43 H 1.8962 -0.079 0.288 0
M  V30 44 H -2.4575 -4.6406 -4.5579 0
M  V30 45 H -1.591 -0.5873 -3.22 0
M  V30 46 H 0.5204 -1.4501 1.6584 0
M  V30 47 H -0.8491 -1.3812 0.5534 0
M  V30 48 H -0.2426 1.0392 -4.0097 0
M  V30 49 H -1.304 1.5657 -2.0569 0
M  V30 50 H -1.7677 0.2347 -1.0047 0
M  V30 51 H 0.7559 2.0976 1.0894 0
M  V30 52 H 1.753 1.3927 -2.2445 0
M  V30 53 H 2.084 2.1861 -0.7202 0
M  V30 54 H 0.789 2.7953 -1.7553 0
M  V30 55 H 0.0971 0.6161 2.5558 0
M  V30 56 H -2.2784 1.2306 2.6346 0
M  V30 57 H -2.6236 0.2185 1.2188 0
M  V30 58 H -2.0825 -0.5199 2.7305 0
M  V30 59 H -1.3368 5.6568 3.3438 0
M  V30 60 H 0.3981 5.225 3.302 0
M  V30 61 H -0.5462 5.2834 5.6316 0
M  V30 62 H -1.7029 4.0209 5.1811 0
M  V30 63 H 0.1655 2.4438 4.6971 0
M  V30 64 H 1.34 3.6967 5.1031 0
M  V30 65 H 0.9929 2.1527 7.0045 0
M  V30 66 H 0.4454 3.7811 7.4388 0
M  V30 67 H -0.7394 2.5254 7.0268 0
M  V30 END ATOM
M  V30 BEGIN BOND
M  V30 1 1 1 2
M  V30 2 1 2 3
M  V30 3 1 2 4
M  V30 4 2 3 5
M  V30 5 1 3 6
M  V30 6 1 4 7
M  V30 7 1 5 8
M  V30 8 1 6 9
M  V30 9 1 6 10
M  V30 10 1 6 11
M  V30 11 1 7 12
M  V30 12 2 8 13
M  V30 13 1 8 14
M  V30 14 1 10 15
M  V30 15 1 12 16
M  V30 16 1 12 17
M  V30 17 1 15 18
M  V30 18 1 15 19
M  V30 19 1 16 20
M  V30 20 1 16 21
M  V30 21 1 17 22
M  V30 22 1 20 23
M  V30 23 1 22 24
M  V30 24 2 23 25
M  V30 25 1 23 26
M  V30 26 2 26 27
M  V30 27 1 26 28
M  V30 28 1 28 29
M  V30 29 1 29 30
M  V30 30 1 30 31
M  V30 31 1 31 32
M  V30 32 1 7 10
M  V30 33 2 9 14
M  V30 34 1 16 19
M  V30 35 1 20 22
M  V30 36 1 2 33
M  V30 37 1 4 34
M  V30 38 1 4 35
M  V30 39 1 5 36
M  V30 40 1 7 37
M  V30 41 1 9 38
M  V30 42 1 10 39
M  V30 43 1 11 40
M  V30 44 1 11 41
M  V30 45 1 11 42
M  V30 46 1 12 43
M  V30 47 1 14 44
M  V30 48 1 15 45
M  V30 49 1 17 46
M  V30 50 1 17 47
M  V30 51 1 18 48
M  V30 52 1 19 49
M  V30 53 1 19 50
M  V30 54 1 20 51
M  V30 55 1 21 52
M  V30 56 1 21 53
M  V30 57 1 21 54
M  V30 58 1 22 55
M  V30 59 1 24 56
M  V30 60 1 24 57
M  V30 61 1 24 58
M  V30 62 1 29 59
M  V30 63 1 29 60
M  V30 64 1 30 61
M  V30 65 1 30 62
M  V30 66 1 31 63
M  V30 67 1 31 64
M  V30 68 1 32 65
M  V30 69 1 32 66
M  V30 70 1 32 67
M  V30 END BOND
M  V30 END CTAB
M  END
>  <NO.>
1548

>  <Name>
schembl25219

>  <SMILES>
CCCCOC(=O)C(=O)C1C(C)CC2C3CC(F)C4=CC(=O)C=CC4(C)C3C(O)CC21C

>  <logBB>


>  <Class>
1

>  <MW>
446.25

>  <nHBAcc>
5

>  <nHBDon>
1

>  <SLogP>
3.99

>  <TopoPSA>
80.67

>  <MMFF94 Energy>
117.6

$$$$
CCCCOCC(CN1C(=O)NC(=O)C(CC)(c2ccccc2)C1=O)OC(N)=O
Actelion Java MolfileCreator 2.0

  0  0  0  0  0  0              0 V3000
M  V30 BEGIN CTAB
M  V30 COUNTS 56 57 0 0 0
M  V30 BEGIN ATOM
M  V30 1 O 1.4203 -2.447 0.2366 0
M  V30 2 C 0.3002 -2.1952 0.6734 0
M  V30 3 N -0.1588 -0.9334 0.9892 0
M  V30 4 N -0.5492 -3.2279 0.9443 0
M  V30 5 C -1.4401 -0.6892 1.4712 0
M  V30 6 C 0.78 0.1951 0.9347 0
M  V30 7 C -1.8514 -3.1282 1.3502 0
M  V30 8 O -1.7161 0.3568 2.0646 0
M  V30 9 C -2.5034 -1.7608 1.1343 0
M  V30 10 C 0.431 1.1695 -0.2045 0
M  V30 11 O -2.4256 -4.1225 1.7877 0
M  V30 12 C -2.9642 -1.5613 -0.332 0
M  V30 13 C -3.7114 -1.5805 2.1023 0
M  V30 14 O 0.6485 0.4705 -1.451 0
M  V30 15 C 1.2972 2.4373 -0.1373 0
M  V30 16 C -3.2432 -0.2698 -0.8197 0
M  V30 17 C -3.1531 -2.6454 -1.2093 0
M  V30 18 C -4.9717 -2.3823 1.7803 0
M  V30 19 C 0.0038 0.9706 -2.5246 0
M  V30 20 O 2.6812 2.0865 -0.0519 0
M  V30 21 C -3.6437 -0.0677 -2.1421 0
M  V30 22 C -3.5604 -2.4402 -2.5304 0
M  V30 23 O -0.7184 1.9538 -2.5421 0
M  V30 24 N 0.2725 0.2149 -3.6095 0
M  V30 25 C 3.5218 3.2384 -0.0334 0
M  V30 26 C -3.7977 -1.152 -2.9986 0
M  V30 27 C 4.9768 2.7956 0.0871 0
M  V30 28 C 5.2512 2.0659 1.4041 0
M  V30 29 C 6.7124 1.6622 1.5213 0
M  V30 30 H -0.1476 -4.1538 0.9054 0
M  V30 31 H 1.7996 -0.1852 0.811 0
M  V30 32 H 0.736 0.7201 1.8965 0
M  V30 33 H -0.6246 1.458 -0.134 0
M  V30 34 H -3.3931 -1.8344 3.1226 0
M  V30 35 H -4.0122 -0.5249 2.1382 0
M  V30 36 H 1.0251 3.0194 0.7507 0
M  V30 37 H 1.1447 3.0565 -1.0275 0
M  V30 38 H -3.1535 0.6064 -0.1785 0
M  V30 39 H -3.0047 -3.6737 -0.8851 0
M  V30 40 H -5.4247 -2.0584 0.8386 0
M  V30 41 H -4.781 -3.4559 1.7204 0
M  V30 42 H -5.7172 -2.2247 2.5673 0
M  V30 43 H -3.8329 0.9417 -2.5009 0
M  V30 44 H -3.6995 -3.2911 -3.1928 0
M  V30 45 H -0.1448 0.4528 -4.4952 0
M  V30 46 H 0.8788 -0.586 -3.5197 0
M  V30 47 H 3.2497 3.8842 0.8094 0
M  V30 48 H 3.3879 3.7987 -0.9656 0
M  V30 49 H -4.1134 -0.993 -4.026 0
M  V30 50 H 5.221 2.1261 -0.7464 0
M  V30 51 H 5.6265 3.6749 0.0091 0
M  V30 52 H 4.9884 2.7132 2.2489 0
M  V30 53 H 4.6269 1.168 1.4772 0
M  V30 54 H 6.8874 1.1438 2.4692 0
M  V30 55 H 6.9996 0.9888 0.7076 0
M  V30 56 H 7.3658 2.5398 1.4886 0
M  V30 END ATOM
M  V30 BEGIN BOND
M  V30 1 2 1 2
M  V30 2 1 2 3
M  V30 3 1 2 4
M  V30 4 1 3 5
M  V30 5 1 3 6
M  V30 6 1 4 7
M  V30 7 2 5 8
M  V30 8 1 5 9
M  V30 9 1 6 10
M  V30 10 2 7 11
M  V30 11 1 9 12
M  V30 12 1 9 13
M  V30 13 1 10 14
M  V30 14 1 10 15
M  V30 15 2 12 16
M  V30 16 1 12 17
M  V30 17 1 13 18
M  V30 18 1 14 19
M  V30 19 1 15 20
M  V30 20 1 16 21
M  V30 21 2 17 22
M  V30 22 2 19 23
M  V30 23 1 19 24
M  V30 24 1 20 25
M  V30 25 2 21 26
M  V30 26 1 25 27
M  V30 27 1 27 28
M  V30 28 1 28 29
M  V30 29 1 7 9
M  V30 30 1 22 26
M  V30 31 1 4 30
M  V30 32 1 6 31
M  V30 33 1 6 32
M  V30 34 1 10 33
M  V30 35 1 13 34
M  V30 36 1 13 35
M  V30 37 1 15 36
M  V30 38 1 15 37
M  V30 39 1 16 38
M  V30 40 1 17 39
M  V30 41 1 18 40
M  V30 42 1 18 41
M  V30 43 1 18 42
M  V30 44 1 21 43
M  V30 45 1 22 44
M  V30 46 1 24 45
M  V30 47 1 24 46
M  V30 48 1 25 47
M  V30 49 1 25 48
M  V30 50 1 26 49
M  V30 51 1 27 50
M  V30 52 1 27 51
M  V30 53 1 28 52
M  V30 54 1 28 53
M  V30 55 1 29 54
M  V30 56 1 29 55
M  V30 57 1 29 56
M  V30 END BOND
M  V30 END CTAB
M  END
>  <NO.>
1551

>  <Name>
febarbamate

>  <SMILES>
CCCCOCC(CN1C(=O)NC(=O)C(CC)(c2ccccc2)C1=O)OC(N)=O

>  <logBB>


>  <Class>
1

>  <MW>
405.19

>  <nHBAcc>
6

>  <nHBDon>
2

>  <SLogP>
1.69

>  <TopoPSA>
128.03

>  <MMFF94 Energy>
-123.71

$$$$
CCCCOc1ccc(C(=O)CCN2CCCCC2)cc1
Actelion Java MolfileCreator 2.0

  0  0  0  0  0  0              0 V3000
M  V30 BEGIN CTAB
M  V30 COUNTS 48 49 0 0 0
M  V30 BEGIN ATOM
M  V30 1 O -0.7864 0.7077 -2.4394 0
M  V30 2 C -0.1372 0.5613 -1.405 0
M  V30 3 C -0.7456 -0.1932 -0.2659 0
M  V30 4 C 1.2714 1.1048 -1.2459 0
M  V30 5 C -2.0702 -0.635 -0.3879 0
M  V30 6 C -0.0416 -0.4766 0.9081 0
M  V30 7 C 1.6693 1.9793 -2.4399 0
M  V30 8 C -2.6864 -1.3472 0.6482 0
M  V30 9 C -0.6619 -1.1886 1.9405 0
M  V30 10 N 2.9847 2.6219 -2.2508 0
M  V30 11 C -1.9833 -1.6259 1.8187 0
M  V30 12 C 3.1793 3.7362 -3.1956 0
M  V30 13 C 4.1208 1.6897 -2.3278 0
M  V30 14 O -2.4596 -2.3086 2.9025 0
M  V30 15 C 3.4215 3.2925 -4.6405 0
M  V30 16 C 4.412 1.1664 -3.737 0
M  V30 17 C -3.8144 -2.7548 2.8485 0
M  V30 18 C 4.5858 2.312 -4.7286 0
M  V30 19 C -4.1502 -3.4741 4.1549 0
M  V30 20 C -4.0806 -2.5397 5.3652 0
M  V30 21 C -4.4523 -3.2653 6.649 0
M  V30 22 H 1.9478 0.2493 -1.1534 0
M  V30 23 H 1.3141 1.7083 -0.332 0
M  V30 24 H -2.6351 -0.4267 -1.2955 0
M  V30 25 H 0.9875 -0.1616 1.051 0
M  V30 26 H 1.6275 1.3959 -3.3669 0
M  V30 27 H 0.9049 2.7624 -2.5372 0
M  V30 28 H -3.713 -1.6677 0.5041 0
M  V30 29 H -0.1088 -1.4057 2.8521 0
M  V30 30 H 4.0397 4.3282 -2.8565 0
M  V30 31 H 2.3246 4.4229 -3.1566 0
M  V30 32 H 3.9871 0.8466 -1.6422 0
M  V30 33 H 5.0131 2.2127 -1.9578 0
M  V30 34 H 3.6344 4.1696 -5.2626 0
M  V30 35 H 2.5164 2.8286 -5.0501 0
M  V30 36 H 3.6025 0.5075 -4.0718 0
M  V30 37 H 5.3236 0.5579 -3.7202 0
M  V30 38 H -3.9394 -3.4613 2.0193 0
M  V30 39 H -4.4928 -1.9034 2.7151 0
M  V30 40 H 4.6707 1.9185 -5.7474 0
M  V30 41 H 5.522 2.8408 -4.5105 0
M  V30 42 H -5.1557 -3.904 4.0779 0
M  V30 43 H -3.445 -4.3009 4.304 0
M  V30 44 H -3.0702 -2.1281 5.4688 0
M  V30 45 H -4.7624 -1.6935 5.2207 0
M  V30 46 H -4.3976 -2.5803 7.501 0
M  V30 47 H -5.4721 -3.6599 6.5957 0
M  V30 48 H -3.77 -4.0998 6.8395 0
M  V30 END ATOM
M  V30 BEGIN BOND
M  V30 1 2 1 2
M  V30 2 1 2 3
M  V30 3 1 2 4
M  V30 4 2 3 5
M  V30 5 1 3 6
M  V30 6 1 4 7
M  V30 7 1 5 8
M  V30 8 2 6 9
M  V30 9 1 7 10
M  V30 10 2 8 11
M  V30 11 1 10 12
M  V30 12 1 10 13
M  V30 13 1 11 14
M  V30 14 1 12 15
M  V30 15 1 13 16
M  V30 16 1 14 17
M  V30 17 1 15 18
M  V30 18 1 17 19
M  V30 19 1 19 20
M  V30 20 1 20 21
M  V30 21 1 9 11
M  V30 22 1 16 18
M  V30 23 1 4 22
M  V30 24 1 4 23
M  V30 25 1 5 24
M  V30 26 1 6 25
M  V30 27 1 7 26
M  V30 28 1 7 27
M  V30 29 1 8 28
M  V30 30 1 9 29
M  V30 31 1 12 30
M  V30 32 1 12 31
M  V30 33 1 13 32
M  V30 34 1 13 33
M  V30 35 1 15 34
M  V30 36 1 15 35
M  V30 37 1 16 36
M  V30 38 1 16 37
M  V30 39 1 17 38
M  V30 40 1 17 39
M  V30 41 1 18 40
M  V30 42 1 18 41
M  V30 43 1 19 42
M  V30 44 1 19 43
M  V30 45 1 20 44
M  V30 46 1 20 45
M  V30 47 1 21 46
M  V30 48 1 21 47
M  V30 49 1 21 48
M  V30 END BOND
M  V30 END CTAB
M  END
>  <NO.>
1552

>  <Name>
dyclonine hydrochloride

>  <SMILES>
CCCCOc1ccc(C(=O)CCN2CCCCC2)cc1

>  <logBB>


>  <Class>
-1

>  <MW>
289.2

>  <nHBAcc>
3

>  <nHBDon>
0

>  <SLogP>
3.92

>  <TopoPSA>
29.54

>  <MMFF94 Energy>
38.693

$$$$
CCCCn1c(=O)c2c(ncn2CC(C)=O)n(CCCC)c1=O
Actelion Java MolfileCreator 2.0

  0  0  0  0  0  0              0 V3000
M  V30 BEGIN CTAB
M  V30 COUNTS 47 48 0 0 0
M  V30 BEGIN ATOM
M  V30 1 O -0.157 1.021 -2.5147 0
M  V30 2 C -0.3734 0.2005 -1.6176 0
M  V30 3 N 0.6091 -0.7335 -1.2274 0
M  V30 4 N -1.5971 0.1614 -0.9436 0
M  V30 5 C 0.4791 -1.6577 -0.1863 0
M  V30 6 C 1.8836 -0.7026 -1.9371 0
M  V30 7 C -1.7688 -0.731 0.0873 0
M  V30 8 C -2.6465 1.1156 -1.2878 0
M  V30 9 O 1.3545 -2.4475 0.1579 0
M  V30 10 C -0.7867 -1.5993 0.4531 0
M  V30 11 C 2.8691 0.2637 -1.2733 0
M  V30 12 N -2.8824 -0.8717 0.8588 0
M  V30 13 C -2.5495 2.391 -0.4478 0
M  V30 14 N -1.3062 -2.3026 1.5032 0
M  V30 15 C 4.2035 0.2936 -2.0165 0
M  V30 16 C -2.5709 -1.8208 1.7193 0
M  V30 17 C -3.646 3.3869 -0.8221 0
M  V30 18 C -0.6682 -3.3833 2.228 0
M  V30 19 C 5.185 1.2514 -1.3602 0
M  V30 20 C -3.5542 4.6555 0.0106 0
M  V30 21 C 0.3697 -2.8871 3.2081 0
M  V30 22 O 0.2287 -1.8443 3.8481 0
M  V30 23 C 1.5653 -3.7759 3.4283 0
M  V30 24 H 2.3131 -1.7112 -1.9574 0
M  V30 25 H 1.7166 -0.4067 -2.9794 0
M  V30 26 H -2.5623 1.3706 -2.3509 0
M  V30 27 H -3.6239 0.6359 -1.1557 0
M  V30 28 H 3.0335 -0.0339 -0.2302 0
M  V30 29 H 2.4383 1.2723 -1.2464 0
M  V30 30 H -1.5649 2.8534 -0.5904 0
M  V30 31 H -2.6267 2.1408 0.6175 0
M  V30 32 H 4.6409 -0.7112 -2.0369 0
M  V30 33 H 4.0435 0.5996 -3.0568 0
M  V30 34 H -3.2161 -2.1908 2.5066 0
M  V30 35 H -3.5661 3.6473 -1.8838 0
M  V30 36 H -4.631 2.9294 -0.673 0
M  V30 37 H -1.4336 -3.9422 2.7758 0
M  V30 38 H -0.2157 -4.0529 1.4904 0
M  V30 39 H 6.1326 1.2572 -1.9078 0
M  V30 40 H 4.7908 2.2727 -1.3524 0
M  V30 41 H 5.3914 0.9547 -0.3269 0
M  V30 42 H -4.3477 5.3539 -0.2734 0
M  V30 43 H -3.663 4.4335 1.0771 0
M  V30 44 H -2.5919 5.155 -0.1401 0
M  V30 45 H 2.2556 -3.2982 4.1291 0
M  V30 46 H 1.2376 -4.7309 3.8461 0
M  V30 47 H 2.0857 -3.9373 2.4814 0
M  V30 END ATOM
M  V30 BEGIN BOND
M  V30 1 2 1 2
M  V30 2 1 2 3
M  V30 3 1 2 4
M  V30 4 1 3 5
M  V30 5 1 3 6
M  V30 6 1 4 7
M  V30 7 1 4 8
M  V30 8 2 5 9
M  V30 9 1 5 10
M  V30 10 1 6 11
M  V30 11 1 7 12
M  V30 12 1 8 13
M  V30 13 1 10 14
M  V30 14 1 11 15
M  V30 15 2 12 16
M  V30 16 1 13 17
M  V30 17 1 14 18
M  V30 18 1 15 19
M  V30 19 1 17 20
M  V30 20 1 18 21
M  V30 21 2 21 22
M  V30 22 1 21 23
M  V30 23 2 7 10
M  V30 24 1 14 16
M  V30 25 1 6 24
M  V30 26 1 6 25
M  V30 27 1 8 26
M  V30 28 1 8 27
M  V30 29 1 11 28
M  V30 30 1 11 29
M  V30 31 1 13 30
M  V30 32 1 13 31
M  V30 33 1 15 32
M  V30 34 1 15 33
M  V30 35 1 16 34
M  V30 36 1 17 35
M  V30 37 1 17 36
M  V30 38 1 18 37
M  V30 39 1 18 38
M  V30 40 1 19 39
M  V30 41 1 19 40
M  V30 42 1 19 41
M  V30 43 1 20 42
M  V30 44 1 20 43
M  V30 45 1 20 44
M  V30 46 1 23 45
M  V30 47 1 23 46
M  V30 48 1 23 47
M  V30 END BOND
M  V30 END CTAB
M  END
>  <NO.>
1555

>  <Name>
denbufylline

>  <SMILES>
CCCCn1c(=O)c2c(ncn2CC(C)=O)n(CCCC)c1=O

>  <logBB>


>  <Class>
1

>  <MW>
320.18

>  <nHBAcc>
4

>  <nHBDon>
0

>  <SLogP>
1.55

>  <TopoPSA>
78.89

>  <MMFF94 Energy>
-127.22

$$$$
CCCCn1ccc(=O)c(O)c1C
Actelion Java MolfileCreator 2.0

  0  0  0  0  0  0              0 V3000
M  V30 BEGIN CTAB
M  V30 COUNTS 28 28 0 0 0
M  V30 BEGIN ATOM
M  V30 1 O 3.3591 2.1863 2.6553 0
M  V30 2 C 2.5447 1.4826 2.0637 0
M  V30 3 C 1.0704 1.7851 2.0447 0
M  V30 4 C 3.0109 0.2958 1.3248 0
M  V30 5 O 0.671 2.9133 2.7381 0
M  V30 6 C 0.2403 0.9501 1.365 0
M  V30 7 C 2.1013 -0.4324 0.6765 0
M  V30 8 N 0.7355 -0.1722 0.6478 0
M  V30 9 C -1.2603 1.1602 1.3765 0
M  V30 10 C -0.1283 -1.0503 -0.1766 0
M  V30 11 C -0.2054 -0.5255 -1.6141 0
M  V30 12 C -1.0235 -1.4247 -2.5427 0
M  V30 13 C -2.5033 -1.4679 -2.194 0
M  V30 14 H 4.0679 0.0744 1.3325 0
M  V30 15 H -0.1772 3.2232 2.3932 0
M  V30 16 H 2.4131 -1.307 0.1111 0
M  V30 17 H -1.6306 1.352 0.3649 0
M  V30 18 H -1.5905 1.9934 2.0009 0
M  V30 19 H -1.7644 0.2752 1.7791 0
M  V30 20 H 0.2788 -2.0701 -0.1809 0
M  V30 21 H -1.1253 -1.1441 0.2624 0
M  V30 22 H 0.8096 -0.4447 -2.023 0
M  V30 23 H -0.6202 0.4893 -1.6266 0
M  V30 24 H -0.9193 -1.0503 -3.568 0
M  V30 25 H -0.6154 -2.4419 -2.5339 0
M  V30 26 H -3.0499 -2.0424 -2.9487 0
M  V30 27 H -2.6746 -1.9474 -1.226 0
M  V30 28 H -2.9293 -0.4601 -2.1616 0
M  V30 END ATOM
M  V30 BEGIN BOND
M  V30 1 2 1 2
M  V30 2 1 2 3
M  V30 3 1 2 4
M  V30 4 1 3 5
M  V30 5 2 3 6
M  V30 6 2 4 7
M  V30 7 1 6 8
M  V30 8 1 6 9
M  V30 9 1 8 10
M  V30 10 1 10 11
M  V30 11 1 11 12
M  V30 12 1 12 13
M  V30 13 1 7 8
M  V30 14 1 4 14
M  V30 15 1 5 15
M  V30 16 1 7 16
M  V30 17 1 9 17
M  V30 18 1 9 18
M  V30 19 1 9 19
M  V30 20 1 10 20
M  V30 21 1 10 21
M  V30 22 1 11 22
M  V30 23 1 11 23
M  V30 24 1 12 24
M  V30 25 1 12 25
M  V30 26 1 13 26
M  V30 27 1 13 27
M  V30 28 1 13 28
M  V30 END BOND
M  V30 END CTAB
M  END
>  <NO.>
1556

>  <Name>
cp24

>  <SMILES>
CCCCn1ccc(=O)c(O)c1C

>  <logBB>


>  <Class>
1

>  <MW>
181.11

>  <nHBAcc>
2

>  <nHBDon>
1

>  <SLogP>
1.66

>  <TopoPSA>
42.23

>  <MMFF94 Energy>
48.143

$$$$
CCCN(CCC)C1Cc2cccc3cc(O)cc(c23)C1
Actelion Java MolfileCreator 2.0

  0  0  0  0  0  0              0 V3000
M  V30 BEGIN CTAB
M  V30 COUNTS 46 48 0 0 0
M  V30 BEGIN ATOM
M  V30 1 O -3.4807 2.1347 4.3523 0
M  V30 2 C -2.4132 2.1321 3.5032 0
M  V30 3 C -1.4216 3.1042 3.5819 0
M  V30 4 C -2.35 1.1257 2.5505 0
M  V30 5 C -0.3394 3.0802 2.6877 0
M  V30 6 C -1.2702 1.0722 1.659 0
M  V30 7 C -0.2576 2.0552 1.7123 0
M  V30 8 C 0.6605 4.0634 2.7417 0
M  V30 9 C -1.2312 -0.0133 0.6068 0
M  V30 10 C 0.8334 2.0421 0.8161 0
M  V30 11 C 1.7257 4.0484 1.8427 0
M  V30 12 C 0.2161 -0.3263 0.1632 0 CFG=2
M  V30 13 C 1.8094 3.0469 0.8805 0
M  V30 14 C 0.9373 0.976 -0.253 0
M  V30 15 N 0.2642 -1.4295 -0.8325 0
M  V30 16 C -0.3968 -1.1285 -2.1117 0
M  V30 17 C 1.6316 -1.9506 -1.0042 0
M  V30 18 C -1.5543 -2.1072 -2.3357 0
M  V30 19 C 1.6585 -3.3419 -1.6504 0
M  V30 20 C -2.2631 -1.8338 -3.6537 0
M  V30 21 C 3.0763 -3.891 -1.7192 0
M  V30 22 H -3.3911 2.8852 4.962 0
M  V30 23 H -1.4846 3.8886 4.3302 0
M  V30 24 H -3.1419 0.3823 2.5056 0
M  V30 25 H 0.6139 4.8572 3.4841 0
M  V30 26 H -1.6851 -0.9284 1.0085 0
M  V30 27 H -1.8483 0.3218 -0.2347 0
M  V30 28 H 2.4888 4.8208 1.8917 0
M  V30 29 H 0.7203 -0.6991 1.0686 0
M  V30 30 H 2.6419 3.0497 0.1806 0
M  V30 31 H 1.9968 0.7622 -0.437 0
M  V30 32 H 0.5166 1.3885 -1.1771 0
M  V30 33 H 0.305 -1.1826 -2.9536 0
M  V30 34 H -0.7959 -0.1088 -2.1443 0
M  V30 35 H 2.1112 -2.0419 -0.0209 0
M  V30 36 H 2.2441 -1.2553 -1.5919 0
M  V30 37 H -1.1899 -3.1406 -2.338 0
M  V30 38 H -2.2809 -2.0242 -1.5184 0
M  V30 39 H 1.0355 -4.0342 -1.0716 0
M  V30 40 H 1.2522 -3.3078 -2.667 0
M  V30 41 H -3.0869 -2.5406 -3.7946 0
M  V30 42 H -2.6777 -0.8208 -3.6737 0
M  V30 43 H -1.575 -1.9413 -4.4983 0
M  V30 44 H 3.0764 -4.8821 -2.1837 0
M  V30 45 H 3.7214 -3.2364 -2.3139 0
M  V30 46 H 3.5102 -3.9855 -0.7186 0
M  V30 END ATOM
M  V30 BEGIN BOND
M  V30 1 1 1 2
M  V30 2 2 2 3
M  V30 3 1 2 4
M  V30 4 1 3 5
M  V30 5 2 4 6
M  V30 6 1 5 7
M  V30 7 2 5 8
M  V30 8 1 6 9
M  V30 9 2 7 10
M  V30 10 1 8 11
M  V30 11 1 9 12
M  V30 12 1 10 13
M  V30 13 1 10 14
M  V30 14 1 12 15
M  V30 15 1 15 16
M  V30 16 1 15 17
M  V30 17 1 16 18
M  V30 18 1 17 19
M  V30 19 1 18 20
M  V30 20 1 19 21
M  V30 21 1 6 7
M  V30 22 2 11 13
M  V30 23 1 12 14
M  V30 24 1 1 22
M  V30 25 1 3 23
M  V30 26 1 4 24
M  V30 27 1 8 25
M  V30 28 1 9 26
M  V30 29 1 9 27
M  V30 30 1 11 28
M  V30 31 1 12 29
M  V30 32 1 13 30
M  V30 33 1 14 31
M  V30 34 1 14 32
M  V30 35 1 16 33
M  V30 36 1 16 34
M  V30 37 1 17 35
M  V30 38 1 17 36
M  V30 39 1 18 37
M  V30 40 1 18 38
M  V30 41 1 19 39
M  V30 42 1 19 40
M  V30 43 1 20 41
M  V30 44 1 20 42
M  V30 45 1 20 43
M  V30 46 1 21 44
M  V30 47 1 21 45
M  V30 48 1 21 46
M  V30 END BOND
M  V30 BEGIN COLLECTION
M  V30 MDLV30/STERAC1 ATOMS=(1 12)
M  V30 END COLLECTION
M  V30 END CTAB
M  END
>  <NO.>
1558

>  <Name>
alentemol

>  <SMILES>
CCCN(CCC)C1Cc2cccc3cc(O)cc(c23)C1

>  <logBB>


>  <Class>
1

>  <MW>
283.19

>  <nHBAcc>
2

>  <nHBDon>
1

>  <SLogP>
4.13

>  <TopoPSA>
23.47

>  <MMFF94 Energy>
47.881

$$$$
CCCN(CCCCN1C(=O)CC2(CCCC2)CC1=O)C1COc2cccc(OC)c2C1
Actelion Java MolfileCreator 2.0

  0  0  0  0  0  0              0 V3000
M  V30 BEGIN CTAB
M  V30 COUNTS 70 73 0 0 0
M  V30 BEGIN ATOM
M  V30 1 O 1.9866 -0.7148 -1.9071 0
M  V30 2 C 1.2386 -0.7616 -2.8846 0
M  V30 3 N -0.101 -1.1344 -2.8053 0
M  V30 4 C 1.7488 -0.3344 -4.2408 0
M  V30 5 C -1.0049 -1.1382 -3.8643 0
M  V30 6 C -0.6106 -1.5112 -1.4883 0
M  V30 7 C 1.0198 -1.0256 -5.3853 0
M  V30 8 O -2.2016 -1.3997 -3.7307 0
M  V30 9 C -0.4737 -0.7355 -5.2218 0
M  V30 10 C -1.1367 -0.2921 -0.726 0
M  V30 11 C 1.5327 -0.5344 -6.7488 0
M  V30 12 C 1.3288 -2.53 -5.4758 0
M  V30 13 C -1.6311 -0.6827 0.6682 0
M  V30 14 C 1.1387 -1.6274 -7.7379 0
M  V30 15 C 1.0236 -2.9138 -6.9222 0
M  V30 16 C -2.1722 0.5113 1.4645 0
M  V30 17 N -1.237 1.632 1.6877 0
M  V30 18 C -0.0686 1.3367 2.5733 0 CFG=2
M  V30 19 C -1.963 2.8176 2.2054 0
M  V30 20 C 1.1538 0.7687 1.8315 0
M  V30 21 C -0.3282 0.4521 3.8042 0
M  V30 22 C -2.8573 3.491 1.1534 0
M  V30 23 O 2.3381 0.8351 2.6412 0
M  V30 24 C 0.9543 0.15 4.541 0
M  V30 25 C -3.4429 4.794 1.6811 0
M  V30 26 C 2.1919 0.3504 3.9138 0
M  V30 27 C 0.9208 -0.3659 5.8518 0
M  V30 28 C 3.38 0.0898 4.5937 0
M  V30 29 O -0.329 -0.567 6.3799 0
M  V30 30 C 2.1195 -0.6366 6.5201 0
M  V30 31 C 3.3453 -0.4039 5.8942 0
M  V30 32 C -0.4052 -1.0873 7.7007 0
M  V30 33 H 1.6316 0.7545 -4.3064 0
M  V30 34 H 2.8233 -0.5505 -4.282 0
M  V30 35 H -1.411 -2.2517 -1.6028 0
M  V30 36 H 0.189 -1.9924 -0.9128 0
M  V30 37 H -0.6725 0.3375 -5.3378 0
M  V30 38 H -1.0669 -1.2586 -5.9805 0
M  V30 39 H -1.9557 0.1713 -1.2899 0
M  V30 40 H -0.3455 0.4618 -0.655 0
M  V30 41 H 2.6263 -0.441 -6.7365 0
M  V30 42 H 1.1245 0.4399 -7.0368 0
M  V30 43 H 0.7564 -3.142 -4.7717 0
M  V30 44 H 2.3923 -2.7139 -5.2761 0
M  V30 45 H -2.446 -1.4104 0.5582 0
M  V30 46 H -0.8487 -1.2028 1.2268 0
M  V30 47 H 0.1748 -1.3936 -8.2045 0
M  V30 48 H 1.8756 -1.7203 -8.5421 0
M  V30 49 H 1.7142 -3.684 -7.2804 0
M  V30 50 H 0.0095 -3.3207 -7.0067 0
M  V30 51 H -3.0337 0.8653 0.8881 0
M  V30 52 H -2.5918 0.1566 2.4138 0
M  V30 53 H 0.2988 2.298 2.9644 0
M  V30 54 H -1.2399 3.5812 2.5203 0
M  V30 55 H -2.5504 2.5549 3.0946 0
M  V30 56 H 1.0235 -0.2673 1.5075 0
M  V30 57 H 1.3586 1.3678 0.9371 0
M  V30 58 H -1.0332 0.9666 4.468 0
M  V30 59 H -0.7641 -0.5115 3.5193 0
M  V30 60 H -2.2745 3.7022 0.249 0
M  V30 61 H -3.6886 2.8415 0.8632 0
M  V30 62 H -4.0808 5.2572 0.9219 0
M  V30 63 H -4.0507 4.6167 2.5742 0
M  V30 64 H -2.6517 5.5054 1.9383 0
M  V30 65 H 4.3333 0.2662 4.1026 0
M  V30 66 H 2.1363 -1.0288 7.5314 0
M  V30 67 H 4.2738 -0.612 6.4191 0
M  V30 68 H 0.044 -2.084 7.7592 0
M  V30 69 H -1.4638 -1.1847 7.9604 0
M  V30 70 H 0.0517 -0.4021 8.4222 0
M  V30 END ATOM
M  V30 BEGIN BOND
M  V30 1 2 1 2
M  V30 2 1 2 3
M  V30 3 1 2 4
M  V30 4 1 3 5
M  V30 5 1 3 6
M  V30 6 1 4 7
M  V30 7 2 5 8
M  V30 8 1 5 9
M  V30 9 1 6 10
M  V30 10 1 7 11
M  V30 11 1 7 12
M  V30 12 1 10 13
M  V30 13 1 11 14
M  V30 14 1 12 15
M  V30 15 1 13 16
M  V30 16 1 16 17
M  V30 17 1 17 18
M  V30 18 1 17 19
M  V30 19 1 18 20
M  V30 20 1 18 21
M  V30 21 1 19 22
M  V30 22 1 20 23
M  V30 23 1 21 24
M  V30 24 1 22 25
M  V30 25 1 23 26
M  V30 26 1 24 27
M  V30 27 1 26 28
M  V30 28 1 27 29
M  V30 29 2 27 30
M  V30 30 2 28 31
M  V30 31 1 29 32
M  V30 32 1 7 9
M  V30 33 1 14 15
M  V30 34 2 24 26
M  V30 35 1 30 31
M  V30 36 1 4 33
M  V30 37 1 4 34
M  V30 38 1 6 35
M  V30 39 1 6 36
M  V30 40 1 9 37
M  V30 41 1 9 38
M  V30 42 1 10 39
M  V30 43 1 10 40
M  V30 44 1 11 41
M  V30 45 1 11 42
M  V30 46 1 12 43
M  V30 47 1 12 44
M  V30 48 1 13 45
M  V30 49 1 13 46
M  V30 50 1 14 47
M  V30 51 1 14 48
M  V30 52 1 15 49
M  V30 53 1 15 50
M  V30 54 1 16 51
M  V30 55 1 16 52
M  V30 56 1 18 53
M  V30 57 1 19 54
M  V30 58 1 19 55
M  V30 59 1 20 56
M  V30 60 1 20 57
M  V30 61 1 21 58
M  V30 62 1 21 59
M  V30 63 1 22 60
M  V30 64 1 22 61
M  V30 65 1 25 62
M  V30 66 1 25 63
M  V30 67 1 25 64
M  V30 68 1 28 65
M  V30 69 1 30 66
M  V30 70 1 31 67
M  V30 71 1 32 68
M  V30 72 1 32 69
M  V30 73 1 32 70
M  V30 END BOND
M  V30 BEGIN COLLECTION
M  V30 MDLV30/STERAC1 ATOMS=(1 18)
M  V30 END COLLECTION
M  V30 END CTAB
M  END
>  <NO.>
1559

>  <Name>
alnespirone

>  <SMILES>
CCCN(CCCCN1C(=O)CC2(CCCC2)CC1=O)C1COc2cccc(OC)c2C1

>  <logBB>


>  <Class>
1

>  <MW>
442.28

>  <nHBAcc>
5

>  <nHBDon>
0

>  <SLogP>
4.2

>  <TopoPSA>
59.08

>  <MMFF94 Energy>
34.983

$$$$
CCCN(c1ccncc1)n1ccc2ccccc21
Actelion Java MolfileCreator 2.0

  0  0  0  0  0  0              0 V3000
M  V30 BEGIN CTAB
M  V30 COUNTS 36 38 0 0 0
M  V30 BEGIN ATOM
M  V30 1 N -2.9283 -2.1362 -2.7699 0
M  V30 2 C -3.483 -1.4679 -1.7417 0
M  V30 3 C -1.5922 -2.0289 -2.891 0
M  V30 4 C -2.7634 -0.7004 -0.8335 0
M  V30 5 C -0.7945 -1.2843 -2.0326 0
M  V30 6 C -1.3743 -0.5879 -0.9618 0
M  V30 7 N -0.5857 0.1686 -0.0788 0
M  V30 8 N 0.797 0.3012 -0.1944 0
M  V30 9 C -1.1419 0.8864 1.0733 0
M  V30 10 C 1.7407 -0.5177 0.4009 0
M  V30 11 C 1.4301 1.2812 -0.9174 0
M  V30 12 C -1.7097 2.2474 0.6606 0
M  V30 13 C 2.9988 -0.0224 0.0485 0
M  V30 14 C 1.5849 -1.6512 1.2157 0
M  V30 15 C 2.7887 1.1115 -0.7822 0
M  V30 16 C -2.3242 2.9736 1.8469 0
M  V30 17 C 4.1478 -0.6785 0.5322 0
M  V30 18 C 2.7393 -2.2857 1.6821 0
M  V30 19 C 4.0036 -1.8071 1.3476 0
M  V30 20 H -4.5618 -1.5636 -1.6567 0
M  V30 21 H -1.1553 -2.5741 -3.7227 0
M  V30 22 H -3.314 -0.2035 -0.0448 0
M  V30 23 H 0.2748 -1.2648 -2.214 0
M  V30 24 H -1.903 0.2794 1.5785 0
M  V30 25 H -0.3656 1.0487 1.8345 0
M  V30 26 H 0.8533 2.0116 -1.4665 0
M  V30 27 H -0.9159 2.8706 0.2332 0
M  V30 28 H -2.4701 2.1313 -0.1193 0
M  V30 29 H 0.598 -2.0263 1.4695 0
M  V30 30 H 3.5508 1.7316 -1.2355 0
M  V30 31 H -2.7181 3.9457 1.5337 0
M  V30 32 H -3.1488 2.3954 2.276 0
M  V30 33 H -1.5795 3.1456 2.6307 0
M  V30 34 H 5.1384 -0.3154 0.2742 0
M  V30 35 H 2.6468 -3.1669 2.3129 0
M  V30 36 H 4.8894 -2.3159 1.7202 0
M  V30 END ATOM
M  V30 BEGIN BOND
M  V30 1 2 1 2
M  V30 2 1 1 3
M  V30 3 1 2 4
M  V30 4 2 3 5
M  V30 5 2 4 6
M  V30 6 1 6 7
M  V30 7 1 7 8
M  V30 8 1 7 9
M  V30 9 1 8 10
M  V30 10 1 8 11
M  V30 11 1 9 12
M  V30 12 2 10 13
M  V30 13 1 10 14
M  V30 14 2 11 15
M  V30 15 1 12 16
M  V30 16 1 13 17
M  V30 17 2 14 18
M  V30 18 2 17 19
M  V30 19 1 5 6
M  V30 20 1 13 15
M  V30 21 1 18 19
M  V30 22 1 2 20
M  V30 23 1 3 21
M  V30 24 1 4 22
M  V30 25 1 5 23
M  V30 26 1 9 24
M  V30 27 1 9 25
M  V30 28 1 11 26
M  V30 29 1 12 27
M  V30 30 1 12 28
M  V30 31 1 14 29
M  V30 32 1 15 30
M  V30 33 1 16 31
M  V30 34 1 16 32
M  V30 35 1 16 33
M  V30 36 1 17 34
M  V30 37 1 18 35
M  V30 38 1 19 36
M  V30 END BOND
M  V30 END CTAB
M  END
>  <NO.>
1560

>  <Name>
besipirdine

>  <SMILES>
CCCN(c1ccncc1)n1ccc2ccccc21

>  <logBB>


>  <Class>
1

>  <MW>
251.14

>  <nHBAcc>
2

>  <nHBDon>
0

>  <SLogP>
3.72

>  <TopoPSA>
21.06

>  <MMFF94 Energy>
14.514

$$$$
CCCN1CC(NS(=O)(=O)N(CC)CC)CC2Cc3c(O)cccc3CC21
Actelion Java MolfileCreator 2.0

  0  0  0  0  0  0              0 V3000
M  V30 BEGIN CTAB
M  V30 COUNTS 60 62 0 0 0
M  V30 BEGIN ATOM
M  V30 1 S 0.7981 2.2361 2.7957 0
M  V30 2 O -0.5289 2.8006 2.8494 0
M  V30 3 O 1.8865 2.8768 2.1023 0
M  V30 4 N 1.2804 1.8457 4.3446 0
M  V30 5 N 0.5968 0.6878 2.1761 0
M  V30 6 C 0.3019 1.3049 5.3014 0
M  V30 7 C 2.6992 1.542 4.6144 0
M  V30 8 C 0.7119 0.5528 0.6951 0
M  V30 9 C -0.036 2.3648 6.3351 0
M  V30 10 C 3.1259 0.1912 4.0693 0
M  V30 11 C -0.4201 1.2913 -0.046 0
M  V30 12 C 0.6498 -0.9404 0.3715 0
M  V30 13 N -0.3867 1.0555 -1.4992 0
M  V30 14 C 0.6419 -1.1817 -1.1427 0
M  V30 15 C -0.4742 -0.3806 -1.8507 0
M  V30 16 C -1.3327 1.9395 -2.2037 0
M  V30 17 C 0.4845 -2.6874 -1.4148 0
M  V30 18 C -0.3319 -0.6147 -3.3735 0
M  V30 19 C -2.8242 1.6344 -2.007 0
M  V30 20 C 0.2358 -3.0485 -2.8566 0
M  V30 21 C -0.1725 -2.0626 -3.7742 0
M  V30 22 C -3.6913 2.6205 -2.7777 0
M  V30 23 C 0.3575 -4.3725 -3.3108 0
M  V30 24 C -0.3939 -2.408 -5.1192 0
M  V30 25 O 0.699 -5.4151 -2.4944 0
M  V30 26 C 0.128 -4.707 -4.6436 0
M  V30 27 C -0.2443 -3.723 -5.5517 0
M  V30 28 H -0.2932 0.3308 2.5209 0
M  V30 29 H -0.614 0.9868 4.7926 0
M  V30 30 H 0.7007 0.4128 5.7966 0
M  V30 31 H 3.333 2.335 4.2026 0
M  V30 32 H 2.8684 1.564 5.6979 0
M  V30 33 H 1.6887 0.9351 0.3736 0
M  V30 34 H -0.7665 1.9778 7.0524 0
M  V30 35 H 0.8555 2.6751 6.89 0
M  V30 36 H -0.4612 3.2557 5.861 0
M  V30 37 H 4.1417 -0.0435 4.4032 0
M  V30 38 H 2.4625 -0.6096 4.4102 0
M  V30 39 H 3.1328 0.1853 2.9755 0
M  V30 40 H -0.3141 2.3662 0.1419 0
M  V30 41 H -1.3875 0.988 0.3748 0
M  V30 42 H -0.2512 -1.3793 0.8223 0
M  V30 43 H 1.5043 -1.4554 0.8293 0
M  V30 44 H 1.6133 -0.8564 -1.5448 0
M  V30 45 H -1.4432 -0.7805 -1.5199 0
M  V30 46 H -1.0989 1.9343 -3.2751 0
M  V30 47 H -1.1382 2.976 -1.896 0
M  V30 48 H -0.3534 -3.0853 -0.8274 0
M  V30 49 H 1.3991 -3.1844 -1.0675 0
M  V30 50 H 0.5422 -0.0685 -3.7533 0
M  V30 51 H -1.2184 -0.2191 -3.8843 0
M  V30 52 H -3.0616 0.6225 -2.352 0
M  V30 53 H -3.0929 1.6902 -0.9467 0
M  V30 54 H -4.7509 2.3906 -2.6278 0
M  V30 55 H -3.5152 3.6464 -2.4387 0
M  V30 56 H -3.4817 2.5713 -3.8511 0
M  V30 57 H -0.6852 -1.6453 -5.8391 0
M  V30 58 H 0.7314 -5.1121 -1.5753 0
M  V30 59 H 0.2384 -5.7372 -4.9705 0
M  V30 60 H -0.4197 -3.9802 -6.5925 0
M  V30 END ATOM
M  V30 BEGIN BOND
M  V30 1 2 1 2
M  V30 2 2 1 3
M  V30 3 1 1 4
M  V30 4 1 1 5
M  V30 5 1 4 6
M  V30 6 1 4 7
M  V30 7 1 5 8
M  V30 8 1 6 9
M  V30 9 1 7 10
M  V30 10 1 8 11
M  V30 11 1 8 12
M  V30 12 1 11 13
M  V30 13 1 12 14
M  V30 14 1 13 15
M  V30 15 1 13 16
M  V30 16 1 14 17
M  V30 17 1 15 18
M  V30 18 1 16 19
M  V30 19 1 17 20
M  V30 20 1 18 21
M  V30 21 1 19 22
M  V30 22 1 20 23
M  V30 23 1 21 24
M  V30 24 1 23 25
M  V30 25 2 23 26
M  V30 26 2 24 27
M  V30 27 1 14 15
M  V30 28 2 20 21
M  V30 29 1 26 27
M  V30 30 1 5 28
M  V30 31 1 6 29
M  V30 32 1 6 30
M  V30 33 1 7 31
M  V30 34 1 7 32
M  V30 35 1 8 33
M  V30 36 1 9 34
M  V30 37 1 9 35
M  V30 38 1 9 36
M  V30 39 1 10 37
M  V30 40 1 10 38
M  V30 41 1 10 39
M  V30 42 1 11 40
M  V30 43 1 11 41
M  V30 44 1 12 42
M  V30 45 1 12 43
M  V30 46 1 14 44
M  V30 47 1 15 45
M  V30 48 1 16 46
M  V30 49 1 16 47
M  V30 50 1 17 48
M  V30 51 1 17 49
M  V30 52 1 18 50
M  V30 53 1 18 51
M  V30 54 1 19 52
M  V30 55 1 19 53
M  V30 56 1 22 54
M  V30 57 1 22 55
M  V30 58 1 22 56
M  V30 59 1 24 57
M  V30 60 1 25 58
M  V30 61 1 26 59
M  V30 62 1 27 60
M  V30 END BOND
M  V30 END CTAB
M  END
>  <NO.>
1561

>  <Name>
quinagolidum [inn-latin]

>  <SMILES>
CCCN1CC(NS(=O)(=O)N(CC)CC)CC2Cc3c(O)cccc3CC21

>  <logBB>


>  <Class>
1

>  <MW>
395.22

>  <nHBAcc>
4

>  <nHBDon>
2

>  <SLogP>
2.14

>  <TopoPSA>
72.88

>  <MMFF94 Energy>
-132.67

$$$$
CCCN1CC=C(c2c[nH]c3ccc(Cl)cc23)CC1
Actelion Java MolfileCreator 2.0

  0  0  0  0  0  0              0 V3000
M  V30 BEGIN CTAB
M  V30 COUNTS 38 40 0 0 0
M  V30 BEGIN ATOM
M  V30 1 Cl -4.0036 -1.5199 2.5609 0
M  V30 2 C -2.4064 -2.1496 2.4137 0
M  V30 3 C -1.475 -1.4738 1.6202 0
M  V30 4 C -2.0665 -3.3192 3.0876 0
M  V30 5 C -0.1684 -1.9927 1.4979 0
M  V30 6 C -0.7762 -3.8482 2.9923 0
M  V30 7 C 0.1486 -3.1622 2.195 0
M  V30 8 C 1.0121 -1.5916 0.8005 0
M  V30 9 N 1.4708 -3.4454 1.935 0
M  V30 10 C 1.196 -0.468 -0.0611 0
M  V30 11 C 2.0043 -2.4993 1.102 0
M  V30 12 C 2.1334 0.4783 0.127 0
M  V30 13 C 0.2994 -0.43 -1.2761 0
M  V30 14 C 2.3284 1.6429 -0.8031 0
M  V30 15 C 0.7991 0.5827 -2.3229 0
M  V30 16 N 1.2255 1.8743 -1.7545 0
M  V30 17 C 0.1383 2.6426 -1.1224 0
M  V30 18 C -0.9622 3.058 -2.1071 0
M  V30 19 C -1.9769 3.9788 -1.4437 0
M  V30 20 H -1.7508 -0.5564 1.111 0
M  V30 21 H -2.8058 -3.8294 3.7004 0
M  V30 22 H -0.5072 -4.7562 3.5225 0
M  V30 23 H 1.9723 -4.2376 2.3122 0
M  V30 24 H 3.0377 -2.5603 0.7876 0
M  V30 25 H 2.8025 0.4237 0.9813 0
M  V30 26 H 0.2538 -1.4188 -1.7495 0
M  V30 27 H -0.721 -0.1642 -0.978 0
M  V30 28 H 2.5221 2.5488 -0.2154 0
M  V30 29 H 3.2477 1.4646 -1.3755 0
M  V30 30 H 0.0364 0.7241 -3.0964 0
M  V30 31 H 1.6544 0.1461 -2.8579 0
M  V30 32 H 0.5655 3.5651 -0.707 0
M  V30 33 H -0.3084 2.1014 -0.2794 0
M  V30 34 H -0.5206 3.5737 -2.968 0
M  V30 35 H -1.4954 2.1798 -2.4862 0
M  V30 36 H -2.7567 4.2604 -2.1583 0
M  V30 37 H -2.4574 3.4844 -0.5933 0
M  V30 38 H -1.4994 4.8959 -1.0841 0
M  V30 END ATOM
M  V30 BEGIN BOND
M  V30 1 1 1 2
M  V30 2 2 2 3
M  V30 3 1 2 4
M  V30 4 1 3 5
M  V30 5 2 4 6
M  V30 6 2 5 7
M  V30 7 1 5 8
M  V30 8 1 7 9
M  V30 9 1 8 10
M  V30 10 2 8 11
M  V30 11 2 10 12
M  V30 12 1 10 13
M  V30 13 1 12 14
M  V30 14 1 13 15
M  V30 15 1 14 16
M  V30 16 1 16 17
M  V30 17 1 17 18
M  V30 18 1 18 19
M  V30 19 1 6 7
M  V30 20 1 9 11
M  V30 21 1 15 16
M  V30 22 1 3 20
M  V30 23 1 4 21
M  V30 24 1 6 22
M  V30 25 1 9 23
M  V30 26 1 11 24
M  V30 27 1 12 25
M  V30 28 1 13 26
M  V30 29 1 13 27
M  V30 30 1 14 28
M  V30 31 1 14 29
M  V30 32 1 15 30
M  V30 33 1 15 31
M  V30 34 1 17 32
M  V30 35 1 17 33
M  V30 36 1 18 34
M  V30 37 1 18 35
M  V30 38 1 19 36
M  V30 39 1 19 37
M  V30 40 1 19 38
M  V30 END BOND
M  V30 END CTAB
M  END
>  <NO.>
1562

>  <Name>
tepirindole

>  <SMILES>
CCCN1CC=C(c2c[nH]c3ccc(Cl)cc23)CC1

>  <logBB>


>  <Class>
1

>  <MW>
274.12

>  <nHBAcc>
1

>  <nHBDon>
1

>  <SLogP>
4.32

>  <TopoPSA>
19.03

>  <MMFF94 Energy>
19.085

$$$$
CCCN1CCCC1CNC(=O)c1cc(S(N)(=O)=O)ccc1OC
Actelion Java MolfileCreator 2.0

  0  0  0  0  0  0              0 V3000
M  V30 BEGIN CTAB
M  V30 COUNTS 49 50 0 0 0
M  V30 BEGIN ATOM
M  V30 1 S 0.8779 -4.7958 -4.1553 0
M  V30 2 O 0.9538 -6.2382 -4.1335 0
M  V30 3 O 1.7482 -3.9832 -4.9699 0
M  V30 4 N -0.6928 -4.4356 -4.6222 0
M  V30 5 C 0.9203 -4.1887 -2.4959 0
M  V30 6 C 0.8184 -2.8153 -2.2704 0
M  V30 7 C 1.0748 -5.0698 -1.4294 0
M  V30 8 C 0.8574 -2.3044 -0.9598 0
M  V30 9 C 1.1161 -4.5721 -0.1238 0
M  V30 10 C 1.0033 -3.1946 0.1288 0
M  V30 11 C 0.7235 -0.8143 -0.8364 0
M  V30 12 O 1.0316 -2.6608 1.3934 0
M  V30 13 O 0.4065 -0.1426 -1.8143 0
M  V30 14 N 0.9687 -0.2508 0.3919 0
M  V30 15 C 1.0573 -3.5575 2.4993 0
M  V30 16 C 0.8769 1.1778 0.6301 0
M  V30 17 C -0.5792 1.6732 0.7433 0 CFG=2
M  V30 18 N -0.6902 3.1191 1.0448 0
M  V30 19 C -1.3132 1.0063 1.9166 0
M  V30 20 C -2.0509 3.2707 1.5781 0
M  V30 21 C -0.4667 3.9586 -0.1414 0
M  V30 22 C -2.1715 2.1002 2.5348 0
M  V30 23 C 0.267 5.2642 0.1913 0
M  V30 24 C -0.5034 6.2217 1.0851 0
M  V30 25 H -1.1989 -5.2953 -4.8358 0
M  V30 26 H -0.6833 -3.7614 -5.3889 0
M  V30 27 H 0.7103 -2.1377 -3.1169 0
M  V30 28 H 1.1656 -6.1409 -1.5999 0
M  V30 29 H 1.2412 -5.2939 0.6779 0
M  V30 30 H 1.2025 -0.8632 1.1664 0
M  V30 31 H 0.1847 -4.2189 2.494 0
M  V30 32 H 1.0142 -2.9581 3.4139 0
M  V30 33 H 1.9915 -4.1279 2.5198 0
M  V30 34 H 1.3986 1.6867 -0.1873 0
M  V30 35 H 1.4295 1.384 1.554 0
M  V30 36 H -1.1288 1.4387 -0.1794 0
M  V30 37 H -0.629 0.6046 2.673 0
M  V30 38 H -1.9357 0.1787 1.5583 0
M  V30 39 H -2.8104 3.1804 0.7905 0
M  V30 40 H -2.2041 4.2186 2.0999 0
M  V30 41 H -1.402 4.1735 -0.6742 0
M  V30 42 H 0.166 3.4329 -0.867 0
M  V30 43 H -3.2103 1.7823 2.6679 0
M  V30 44 H -1.773 2.3694 3.5207 0
M  V30 45 H 1.2348 5.0376 0.6554 0
M  V30 46 H 0.4889 5.7781 -0.7522 0
M  V30 47 H 0.0181 7.1828 1.1414 0
M  V30 48 H -1.5092 6.4052 0.6947 0
M  V30 49 H -0.5848 5.8364 2.1055 0
M  V30 END ATOM
M  V30 BEGIN BOND
M  V30 1 2 1 2
M  V30 2 2 1 3
M  V30 3 1 1 4
M  V30 4 1 1 5
M  V30 5 2 5 6
M  V30 6 1 5 7
M  V30 7 1 6 8
M  V30 8 2 7 9
M  V30 9 2 8 10
M  V30 10 1 8 11
M  V30 11 1 10 12
M  V30 12 2 11 13
M  V30 13 1 11 14
M  V30 14 1 12 15
M  V30 15 1 14 16
M  V30 16 1 16 17
M  V30 17 1 17 18
M  V30 18 1 17 19
M  V30 19 1 18 20
M  V30 20 1 18 21
M  V30 21 1 19 22
M  V30 22 1 21 23
M  V30 23 1 23 24
M  V30 24 1 9 10
M  V30 25 1 20 22
M  V30 26 1 4 25
M  V30 27 1 4 26
M  V30 28 1 6 27
M  V30 29 1 7 28
M  V30 30 1 9 29
M  V30 31 1 14 30
M  V30 32 1 15 31
M  V30 33 1 15 32
M  V30 34 1 15 33
M  V30 35 1 16 34
M  V30 36 1 16 35
M  V30 37 1 17 36
M  V30 38 1 19 37
M  V30 39 1 19 38
M  V30 40 1 20 39
M  V30 41 1 20 40
M  V30 42 1 21 41
M  V30 43 1 21 42
M  V30 44 1 22 43
M  V30 45 1 22 44
M  V30 46 1 23 45
M  V30 47 1 23 46
M  V30 48 1 24 47
M  V30 49 1 24 48
M  V30 50 1 24 49
M  V30 END BOND
M  V30 BEGIN COLLECTION
M  V30 MDLV30/STERAC1 ATOMS=(1 17)
M  V30 END COLLECTION
M  V30 END CTAB
M  END
>  <NO.>
1563

>  <Name>
prosulpride

>  <SMILES>
CCCN1CCCC1CNC(=O)c1cc(S(N)(=O)=O)ccc1OC

>  <logBB>


>  <Class>
1

>  <MW>
355.16

>  <nHBAcc>
5

>  <nHBDon>
2

>  <SLogP>
0.95

>  <TopoPSA>
101.73

>  <MMFF94 Energy>
-40.535

$$$$
CCCNC(=O)N1CC(c2ccccc2)OC1=O
Actelion Java MolfileCreator 2.0

  0  0  0  0  0  0              0 V3000
M  V30 BEGIN CTAB
M  V30 COUNTS 34 35 0 0 0
M  V30 BEGIN ATOM
M  V30 1 O 2.0511 2.6829 -0.1576 0
M  V30 2 C 1.7817 1.5047 0.0047 0
M  V30 3 O 2.7577 0.5388 -0.0599 0
M  V30 4 N 0.5599 0.9233 0.3005 0
M  V30 5 C 2.1408 -0.7489 0.0144 0 CFG=1
M  V30 6 C -0.624 1.621 0.3699 0
M  V30 7 C 0.7572 -0.4722 0.5626 0
M  V30 8 C 2.1167 -1.4573 -1.3262 0
M  V30 9 O -0.7695 2.7776 -0.0127 0
M  V30 10 N -1.69 0.909 0.8808 0
M  V30 11 C 2.2084 -0.7654 -2.5435 0
M  V30 12 C 1.9696 -2.855 -1.3596 0
M  V30 13 C -3.0169 1.4881 0.9751 0
M  V30 14 C 2.1545 -1.4519 -3.7584 0
M  V30 15 C 1.9167 -3.5388 -2.5757 0
M  V30 16 C -3.1992 2.3348 2.2335 0
M  V30 17 C 2.008 -2.8366 -3.7746 0
M  V30 18 C -3.112 1.5126 3.5116 0
M  V30 19 H 2.7223 -1.3546 0.7197 0
M  V30 20 H -0.0378 -1.0869 0.1282 0
M  V30 21 H 0.7364 -0.6022 1.6515 0
M  V30 22 H -1.5531 -0.0012 1.2859 0
M  V30 23 H 2.3289 0.3165 -2.567 0
M  V30 24 H 1.9008 -3.4273 -0.4366 0
M  V30 25 H -3.734 0.6604 0.9602 0
M  V30 26 H -3.1985 2.104 0.0873 0
M  V30 27 H 2.2304 -0.9019 -4.6937 0
M  V30 28 H 1.8076 -4.6204 -2.589 0
M  V30 29 H -2.4484 3.1326 2.2681 0
M  V30 30 H -4.1822 2.8185 2.1938 0
M  V30 31 H 1.9694 -3.3675 -4.7223 0
M  V30 32 H -3.2969 2.1496 4.3826 0
M  V30 33 H -3.8574 0.7109 3.5139 0
M  V30 34 H -2.1212 1.0628 3.6296 0
M  V30 END ATOM
M  V30 BEGIN BOND
M  V30 1 2 1 2
M  V30 2 1 2 3
M  V30 3 1 2 4
M  V30 4 1 3 5
M  V30 5 1 4 6
M  V30 6 1 4 7
M  V30 7 1 5 8
M  V30 8 2 6 9
M  V30 9 1 6 10
M  V30 10 2 8 11
M  V30 11 1 8 12
M  V30 12 1 10 13
M  V30 13 1 11 14
M  V30 14 2 12 15
M  V30 15 1 13 16
M  V30 16 2 14 17
M  V30 17 1 16 18
M  V30 18 1 5 7
M  V30 19 1 15 17
M  V30 20 1 5 19
M  V30 21 1 7 20
M  V30 22 1 7 21
M  V30 23 1 10 22
M  V30 24 1 11 23
M  V30 25 1 12 24
M  V30 26 1 13 25
M  V30 27 1 13 26
M  V30 28 1 14 27
M  V30 29 1 15 28
M  V30 30 1 16 29
M  V30 31 1 16 30
M  V30 32 1 17 31
M  V30 33 1 18 32
M  V30 34 1 18 33
M  V30 35 1 18 34
M  V30 END BOND
M  V30 BEGIN COLLECTION
M  V30 MDLV30/STERAC1 ATOMS=(1 5)
M  V30 END COLLECTION
M  V30 END CTAB
M  END
>  <NO.>
1564

>  <Name>
profexalone

>  <SMILES>
CCCNC(=O)N1CC(c2ccccc2)OC1=O

>  <logBB>


>  <Class>
1

>  <MW>
248.12

>  <nHBAcc>
3

>  <nHBDon>
1

>  <SLogP>
2.3

>  <TopoPSA>
58.64

>  <MMFF94 Energy>
-71.704

$$$$
CCCNC(=O)c1ccc2c(c1)N([C@@H](C)CN1CCCC1)c1ccccc1S2
Actelion Java MolfileCreator 2.0

  0  0  0  0  0  0              0 V3000
M  V30 BEGIN CTAB
M  V30 COUNTS 57 60 0 0 0
M  V30 BEGIN ATOM
M  V30 1 S -1.0433 0.8828 3.6957 0
M  V30 2 C -0.0883 -0.1124 2.5675 0
M  V30 3 C -0.5751 2.5264 3.2007 0
M  V30 4 C 0.5084 0.4062 1.3992 0
M  V30 5 C 0.0374 -1.4734 2.9025 0
M  V30 6 C 0.0622 2.8032 1.976 0
M  V30 7 C -0.8917 3.5652 4.095 0
M  V30 8 N 0.3678 1.7696 1.0402 0
M  V30 9 C 1.2747 -0.4891 0.6317 0
M  V30 10 C 0.7714 -2.3431 2.1005 0
M  V30 11 C 0.415 4.147 1.7261 0
M  V30 12 C -0.5543 4.8846 3.8069 0
M  V30 13 C 0.1614 2.1476 -0.3997 0 CFG=2
M  V30 14 C 1.3892 -1.8514 0.9539 0
M  V30 15 C 0.1084 5.1748 2.6238 0
M  V30 16 C -0.7544 1.1854 -1.2279 0
M  V30 17 C 1.4896 2.4094 -1.1225 0
M  V30 18 C 2.1976 -2.7205 0.054 0
M  V30 19 N -2.021 0.7596 -0.5936 0
M  V30 20 O 3.1041 -2.2386 -0.616 0
M  V30 21 N 1.8375 -4.0512 -0.0011 0
M  V30 22 C -2.7785 -0.1511 -1.4623 0
M  V30 23 C -2.9541 1.8616 -0.3318 0
M  V30 24 C 2.5475 -4.9966 -0.8379 0
M  V30 25 C -3.629 0.7377 -2.3593 0
M  V30 26 C -3.7096 2.0747 -1.6345 0
M  V30 27 C 2.0003 -5.0013 -2.2622 0
M  V30 28 C 2.7236 -6.015 -3.133 0
M  V30 29 H -0.4312 -1.8587 3.8061 0
M  V30 30 H -1.3986 3.3453 5.0324 0
M  V30 31 H 1.816 -0.1419 -0.2392 0
M  V30 32 H 0.8766 -3.3787 2.4068 0
M  V30 33 H 0.9616 4.4191 0.8284 0
M  V30 34 H -0.7969 5.6766 4.5101 0
M  V30 35 H -0.3725 3.1064 -0.4353 0
M  V30 36 H 0.3966 6.1979 2.3963 0
M  V30 37 H -0.9548 1.6689 -2.1942 0
M  V30 38 H -0.1819 0.2835 -1.4739 0
M  V30 39 H 1.9794 1.4932 -1.4583 0
M  V30 40 H 1.3116 3.0125 -2.0203 0
M  V30 41 H 2.198 2.9529 -0.4897 0
M  V30 42 H 1.0127 -4.3734 0.4848 0
M  V30 43 H -2.1488 -0.843 -2.0324 0
M  V30 44 H -3.4328 -0.768 -0.8332 0
M  V30 45 H -3.6569 1.5404 0.4478 0
M  V30 46 H -2.4901 2.7806 0.0356 0
M  V30 47 H 2.4282 -5.9833 -0.3777 0
M  V30 48 H 3.6144 -4.7466 -0.8365 0
M  V30 49 H -4.6222 0.3063 -2.5209 0
M  V30 50 H -3.1568 0.8723 -3.3391 0
M  V30 51 H -4.7462 2.3778 -1.4552 0
M  V30 52 H -3.2304 2.8545 -2.2379 0
M  V30 53 H 0.9284 -5.2332 -2.2475 0
M  V30 54 H 2.0999 -4.0043 -2.7078 0
M  V30 55 H 2.3147 -6.003 -4.1482 0
M  V30 56 H 3.7926 -5.787 -3.1945 0
M  V30 57 H 2.6102 -7.0276 -2.7328 0
M  V30 END ATOM
M  V30 BEGIN BOND
M  V30 1 1 1 2
M  V30 2 1 1 3
M  V30 3 2 2 4
M  V30 4 1 2 5
M  V30 5 2 3 6
M  V30 6 1 3 7
M  V30 7 1 4 8
M  V30 8 1 4 9
M  V30 9 2 5 10
M  V30 10 1 6 11
M  V30 11 2 7 12
M  V30 12 1 8 13
M  V30 13 2 9 14
M  V30 14 2 11 15
M  V30 15 1 13 16
M  V30 16 1 13 17
M  V30 17 1 14 18
M  V30 18 1 16 19
M  V30 19 2 18 20
M  V30 20 1 18 21
M  V30 21 1 19 22
M  V30 22 1 19 23
M  V30 23 1 21 24
M  V30 24 1 22 25
M  V30 25 1 23 26
M  V30 26 1 24 27
M  V30 27 1 27 28
M  V30 28 1 6 8
M  V30 29 1 10 14
M  V30 30 1 12 15
M  V30 31 1 25 26
M  V30 32 1 5 29
M  V30 33 1 7 30
M  V30 34 1 9 31
M  V30 35 1 10 32
M  V30 36 1 11 33
M  V30 37 1 12 34
M  V30 38 1 13 35
M  V30 39 1 15 36
M  V30 40 1 16 37
M  V30 41 1 16 38
M  V30 42 1 17 39
M  V30 43 1 17 40
M  V30 44 1 17 41
M  V30 45 1 21 42
M  V30 46 1 22 43
M  V30 47 1 22 44
M  V30 48 1 23 45
M  V30 49 1 23 46
M  V30 50 1 24 47
M  V30 51 1 24 48
M  V30 52 1 25 49
M  V30 53 1 25 50
M  V30 54 1 26 51
M  V30 55 1 26 52
M  V30 56 1 27 53
M  V30 57 1 27 54
M  V30 58 1 28 55
M  V30 59 1 28 56
M  V30 60 1 28 57
M  V30 END BOND
M  V30 BEGIN COLLECTION
M  V30 MDLV30/STEABS ATOMS=(1 13)
M  V30 END COLLECTION
M  V30 END CTAB
M  END
>  <NO.>
1565

>  <Name>
rp 60180

>  <SMILES>
CCCNC(=O)c1ccc2c(c1)N([C@@H](C)CN1CCCC1)c1ccccc1S2

>  <logBB>


>  <Class>
1

>  <MW>
395.2

>  <nHBAcc>
4

>  <nHBDon>
1

>  <SLogP>
4.91

>  <TopoPSA>
35.58

>  <MMFF94 Energy>
93.076

$$$$
CCCNCC(O)COc1ccccc1C(=O)CCc1ccccc1
Actelion Java MolfileCreator 2.0

  0  0  0  0  0  0              0 V3000
M  V30 BEGIN CTAB
M  V30 COUNTS 52 53 0 0 0
M  V30 BEGIN ATOM
M  V30 1 O 0.3144 -1.6516 -1.6516 0
M  V30 2 C 1.3213 -0.9683 -1.4849 0
M  V30 3 C 2.1163 -1.1169 -0.2412 0
M  V30 4 C 1.8349 0.01 -2.5211 0
M  V30 5 C 1.4898 -1.1092 1.01 0
M  V30 6 C 3.5044 -1.2856 -0.3216 0
M  V30 7 C 0.6889 0.5629 -3.3651 0
M  V30 8 O 0.1464 -0.8713 1.1232 0
M  V30 9 C 2.2467 -1.2392 2.1761 0
M  V30 10 C 4.2566 -1.4341 0.8458 0
M  V30 11 C 1.1839 1.5818 -4.3611 0
M  V30 12 C -0.5658 -2.1006 1.3188 0
M  V30 13 C 3.6288 -1.4088 2.0919 0
M  V30 14 C 1.2484 2.9386 -4.0174 0
M  V30 15 C 1.6149 1.1801 -5.6323 0
M  V30 16 C -2.0368 -1.9156 0.9266 0 CFG=1
M  V30 17 C 1.7275 3.8772 -4.9324 0
M  V30 18 C 2.0936 2.1203 -6.5458 0
M  V30 19 O -2.7531 -3.1436 1.1092 0
M  V30 20 C -2.7495 -0.7655 1.6786 0
M  V30 21 C 2.1495 3.4681 -6.196 0
M  V30 22 N -2.6346 -0.8314 3.1461 0
M  V30 23 C -3.4323 0.2174 3.7812 0
M  V30 24 C -3.2627 0.1436 5.2992 0
M  V30 25 C -4.0849 1.2132 6.0015 0
M  V30 26 H 2.3515 0.834 -2.0143 0
M  V30 27 H 2.5614 -0.511 -3.1552 0
M  V30 28 H 4.0097 -1.3175 -1.2833 0
M  V30 29 H 0.1768 -0.2482 -3.8984 0
M  V30 30 H -0.074 1.0184 -2.7204 0
M  V30 31 H 1.7639 -1.199 3.1489 0
M  V30 32 H 5.3343 -1.5687 0.7851 0
M  V30 33 H -0.4838 -2.4137 2.3673 0
M  V30 34 H -0.1415 -2.9153 0.7153 0
M  V30 35 H 4.218 -1.5156 2.9999 0
M  V30 36 H 0.9229 3.2732 -3.035 0
M  V30 37 H 1.5767 0.1317 -5.9193 0
M  V30 38 H -2.0908 -1.6716 -0.1415 0
M  V30 39 H 1.7702 4.9284 -4.6596 0
M  V30 40 H 2.4214 1.801 -7.5315 0
M  V30 41 H -2.3808 -3.785 0.4804 0
M  V30 42 H -2.3435 0.1918 1.33 0
M  V30 43 H -3.8122 -0.7984 1.4075 0
M  V30 44 H 2.5206 4.1998 -6.9085 0
M  V30 45 H -1.6572 -0.7163 3.4091 0
M  V30 46 H -3.1148 1.2049 3.4253 0
M  V30 47 H -4.4911 0.0883 3.5278 0
M  V30 48 H -3.5729 -0.8428 5.6647 0
M  V30 49 H -2.2071 0.2719 5.5678 0
M  V30 50 H -3.9503 1.1439 7.0854 0
M  V30 51 H -3.778 2.215 5.6844 0
M  V30 52 H -5.1511 1.0949 5.7834 0
M  V30 END ATOM
M  V30 BEGIN BOND
M  V30 1 2 1 2
M  V30 2 1 2 3
M  V30 3 1 2 4
M  V30 4 2 3 5
M  V30 5 1 3 6
M  V30 6 1 4 7
M  V30 7 1 5 8
M  V30 8 1 5 9
M  V30 9 2 6 10
M  V30 10 1 7 11
M  V30 11 1 8 12
M  V30 12 2 9 13
M  V30 13 2 11 14
M  V30 14 1 11 15
M  V30 15 1 12 16
M  V30 16 1 14 17
M  V30 17 2 15 18
M  V30 18 1 16 19
M  V30 19 1 16 20
M  V30 20 2 17 21
M  V30 21 1 20 22
M  V30 22 1 22 23
M  V30 23 1 23 24
M  V30 24 1 24 25
M  V30 25 1 10 13
M  V30 26 1 18 21
M  V30 27 1 4 26
M  V30 28 1 4 27
M  V30 29 1 6 28
M  V30 30 1 7 29
M  V30 31 1 7 30
M  V30 32 1 9 31
M  V30 33 1 10 32
M  V30 34 1 12 33
M  V30 35 1 12 34
M  V30 36 1 13 35
M  V30 37 1 14 36
M  V30 38 1 15 37
M  V30 39 1 16 38
M  V30 40 1 17 39
M  V30 41 1 18 40
M  V30 42 1 19 41
M  V30 43 1 20 42
M  V30 44 1 20 43
M  V30 45 1 21 44
M  V30 46 1 22 45
M  V30 47 1 23 46
M  V30 48 1 23 47
M  V30 49 1 24 48
M  V30 50 1 24 49
M  V30 51 1 25 50
M  V30 52 1 25 51
M  V30 53 1 25 52
M  V30 END BOND
M  V30 BEGIN COLLECTION
M  V30 MDLV30/STERAC1 ATOMS=(1 16)
M  V30 END COLLECTION
M  V30 END CTAB
M  END
>  <NO.>
1567

>  <Name>
propafenone

>  <SMILES>
CCCNCC(O)COc1ccccc1C(=O)CCc1ccccc1

>  <logBB>


>  <Class>
-1

>  <MW>
341.2

>  <nHBAcc>
4

>  <nHBDon>
2

>  <SLogP>
3.24

>  <TopoPSA>
58.56

>  <MMFF94 Energy>
101.18

$$$$
CCCOC(=O)N1CCN(C(=O)Cc2ccc(Cl)c(Cl)c2)[C@@H](CN2CCCC2)C1
Actelion Java MolfileCreator 2.0

  0  0  0  0  0  0              0 V3000
M  V30 BEGIN CTAB
M  V30 COUNTS 58 60 0 0 0
M  V30 BEGIN ATOM
M  V30 1 Cl -5.8841 -2.2538 -5.6417 0
M  V30 2 C -5.5948 -1.3204 -4.2158 0
M  V30 3 C -6.6034 -0.589 -3.5807 0
M  V30 4 C -4.2945 -1.3095 -3.6982 0
M  V30 5 Cl -8.2298 -0.5503 -4.1637 0
M  V30 6 C -6.3076 0.1463 -2.4296 0
M  V30 7 C -3.9891 -0.5657 -2.5479 0
M  V30 8 C -5.0091 0.1561 -1.9142 0
M  V30 9 C -2.5865 -0.5711 -1.9806 0
M  V30 10 C -2.3162 -1.7014 -0.9895 0
M  V30 11 O -3.1537 -2.5762 -0.7628 0
M  V30 12 N -1.0726 -1.71 -0.3587 0
M  V30 13 C -0.0528 -0.625 -0.4769 0 CFG=2
M  V30 14 C -0.8227 -2.7291 0.6772 0
M  V30 15 C 1.3762 -1.2189 -0.4859 0
M  V30 16 C -0.2682 0.4392 0.6397 0
M  V30 17 C 0.6102 -3.2699 0.6366 0
M  V30 18 N 1.5701 -2.1718 0.6065 0
M  V30 19 N 0.0545 1.8185 0.2418 0
M  V30 20 C 2.5209 -2.0462 1.5958 0
M  V30 21 C 1.4872 2.0992 0.1283 0
M  V30 22 C -0.4325 2.7862 1.2332 0
M  V30 23 O 2.65 -2.8328 2.5257 0
M  V30 24 O 3.2923 -0.9375 1.4347 0
M  V30 25 C 1.5823 3.6181 0.2175 0
M  V30 26 C 0.2563 4.071 0.8119 0
M  V30 27 C 4.2976 -0.7615 2.442 0
M  V30 28 C 5.0619 0.518 2.1241 0
M  V30 29 C 6.1598 0.7869 3.1372 0
M  V30 30 H -3.5173 -1.8921 -4.1885 0
M  V30 31 H -7.0871 0.7113 -1.9238 0
M  V30 32 H -4.8021 0.7252 -1.0097 0
M  V30 33 H -1.8705 -0.6535 -2.8072 0
M  V30 34 H -2.4078 0.3914 -1.4877 0
M  V30 35 H -0.1944 -0.1312 -1.4433 0
M  V30 36 H -1.5273 -3.562 0.589 0
M  V30 37 H -1.0114 -2.2439 1.6427 0
M  V30 38 H 2.1394 -0.4409 -0.4814 0
M  V30 39 H 1.5185 -1.7879 -1.4137 0
M  V30 40 H 0.2644 0.154 1.5561 0
M  V30 41 H -1.3357 0.4264 0.9002 0
M  V30 42 H 0.7642 -3.8575 -0.2761 0
M  V30 43 H 0.7853 -3.9302 1.4916 0
M  V30 44 H 1.9002 1.7453 -0.8204 0
M  V30 45 H 2.0541 1.6505 0.9528 0
M  V30 46 H -1.5221 2.8895 1.2084 0
M  V30 47 H -0.1267 2.5112 2.251 0
M  V30 48 H 1.7247 4.0675 -0.7717 0
M  V30 49 H 2.4254 3.9195 0.8484 0
M  V30 50 H -0.3339 4.5898 0.0468 0
M  V30 51 H 0.3953 4.7582 1.6522 0
M  V30 52 H 4.9791 -1.6201 2.4324 0
M  V30 53 H 3.8206 -0.6796 3.4259 0
M  V30 54 H 5.4917 0.4491 1.1176 0
M  V30 55 H 4.366 1.3651 2.0969 0
M  V30 56 H 6.6908 1.7102 2.8852 0
M  V30 57 H 5.7455 0.8975 4.1445 0
M  V30 58 H 6.8879 -0.0302 3.1527 0
M  V30 END ATOM
M  V30 BEGIN BOND
M  V30 1 1 1 2
M  V30 2 2 2 3
M  V30 3 1 2 4
M  V30 4 1 3 5
M  V30 5 1 3 6
M  V30 6 2 4 7
M  V30 7 2 6 8
M  V30 8 1 7 9
M  V30 9 1 9 10
M  V30 10 2 10 11
M  V30 11 1 10 12
M  V30 12 1 12 13
M  V30 13 1 12 14
M  V30 14 1 13 15
M  V30 15 1 13 16
M  V30 16 1 14 17
M  V30 17 1 15 18
M  V30 18 1 16 19
M  V30 19 1 18 20
M  V30 20 1 19 21
M  V30 21 1 19 22
M  V30 22 2 20 23
M  V30 23 1 20 24
M  V30 24 1 21 25
M  V30 25 1 22 26
M  V30 26 1 24 27
M  V30 27 1 27 28
M  V30 28 1 28 29
M  V30 29 1 7 8
M  V30 30 1 17 18
M  V30 31 1 25 26
M  V30 32 1 4 30
M  V30 33 1 6 31
M  V30 34 1 8 32
M  V30 35 1 9 33
M  V30 36 1 9 34
M  V30 37 1 13 35
M  V30 38 1 14 36
M  V30 39 1 14 37
M  V30 40 1 15 38
M  V30 41 1 15 39
M  V30 42 1 16 40
M  V30 43 1 16 41
M  V30 44 1 17 42
M  V30 45 1 17 43
M  V30 46 1 21 44
M  V30 47 1 21 45
M  V30 48 1 22 46
M  V30 49 1 22 47
M  V30 50 1 25 48
M  V30 51 1 25 49
M  V30 52 1 26 50
M  V30 53 1 26 51
M  V30 54 1 27 52
M  V30 55 1 27 53
M  V30 56 1 28 54
M  V30 57 1 28 55
M  V30 58 1 29 56
M  V30 59 1 29 57
M  V30 60 1 29 58
M  V30 END BOND
M  V30 BEGIN COLLECTION
M  V30 MDLV30/STEABS ATOMS=(1 13)
M  V30 END COLLECTION
M  V30 END CTAB
M  END
>  <NO.>
1568

>  <Name>
gr89696_pr

>  <SMILES>
CCCOC(=O)N1CCN(C(=O)Cc2ccc(Cl)c(Cl)c2)[C@@H](CN2CCCC2)C1

>  <logBB>


>  <Class>
1

>  <MW>
441.16

>  <nHBAcc>
4

>  <nHBDon>
0

>  <SLogP>
3.69

>  <TopoPSA>
53.09

>  <MMFF94 Energy>
46.613

$$$$
CCCOC(=O)c1cncn1C(C)c1ccccc1
Actelion Java MolfileCreator 2.0

  0  0  0  0  0  0              0 V3000
M  V30 BEGIN CTAB
M  V30 COUNTS 37 38 0 0 0
M  V30 BEGIN ATOM
M  V30 1 O 0.5515 -0.5515 -1.2611 0
M  V30 2 C 0.4808 0.5478 -0.73 0
M  V30 3 O 1.5533 1.3614 -0.5121 0
M  V30 4 C -0.719 1.1963 -0.2675 0
M  V30 5 C 2.8078 0.8155 -0.9363 0
M  V30 6 N -1.9697 0.6411 -0.0717 0
M  V30 7 C -0.8942 2.5257 0.0841 0
M  V30 8 C 3.9146 1.821 -0.6352 0
M  V30 9 C -2.8104 1.65 0.3328 0
M  V30 10 C -2.4097 -0.7555 -0.193 0 CFG=2
M  V30 11 N -2.1857 2.7961 0.4419 0
M  V30 12 C 3.7483 3.1163 -1.4173 0
M  V30 13 C -1.6481 -1.6755 0.7528 0
M  V30 14 C -2.5436 -1.183 -1.6584 0
M  V30 15 C -0.8854 -2.7639 0.3031 0
M  V30 16 C -1.7255 -1.454 2.1419 0
M  V30 17 C -0.216 -3.5943 1.2064 0
M  V30 18 C -1.0571 -2.2849 3.0436 0
M  V30 19 C -0.3022 -3.3556 2.5751 0
M  V30 20 H 2.7753 0.6003 -2.0108 0
M  V30 21 H 3.0032 -0.112 -0.3858 0
M  V30 22 H -0.1447 3.3082 0.0811 0
M  V30 23 H 3.9125 2.0595 0.4348 0
M  V30 24 H 4.8857 1.3753 -0.8765 0
M  V30 25 H -3.8606 1.49 0.5433 0
M  V30 26 H -3.4422 -0.766 0.1895 0
M  V30 27 H 4.5745 3.7993 -1.1958 0
M  V30 28 H 3.7458 2.925 -2.4951 0
M  V30 29 H 2.814 3.6231 -1.1557 0
M  V30 30 H -1.587 -1.2138 -2.1849 0
M  V30 31 H -2.9957 -2.1784 -1.7329 0
M  V30 32 H -3.188 -0.4848 -2.2053 0
M  V30 33 H -0.7786 -2.9738 -0.7588 0
M  V30 34 H -2.3088 -0.6238 2.5374 0
M  V30 35 H 0.3789 -4.4255 0.8365 0
M  V30 36 H -1.1254 -2.0939 4.1116 0
M  V30 37 H 0.2211 -4.0015 3.2748 0
M  V30 END ATOM
M  V30 BEGIN BOND
M  V30 1 2 1 2
M  V30 2 1 2 3
M  V30 3 1 2 4
M  V30 4 1 3 5
M  V30 5 1 4 6
M  V30 6 2 4 7
M  V30 7 1 5 8
M  V30 8 1 6 9
M  V30 9 1 6 10
M  V30 10 1 7 11
M  V30 11 1 8 12
M  V30 12 1 10 13
M  V30 13 1 10 14
M  V30 14 2 13 15
M  V30 15 1 13 16
M  V30 16 1 15 17
M  V30 17 2 16 18
M  V30 18 2 17 19
M  V30 19 2 9 11
M  V30 20 1 18 19
M  V30 21 1 5 20
M  V30 22 1 5 21
M  V30 23 1 7 22
M  V30 24 1 8 23
M  V30 25 1 8 24
M  V30 26 1 9 25
M  V30 27 1 10 26
M  V30 28 1 12 27
M  V30 29 1 12 28
M  V30 30 1 12 29
M  V30 31 1 14 30
M  V30 32 1 14 31
M  V30 33 1 14 32
M  V30 34 1 15 33
M  V30 35 1 16 34
M  V30 36 1 17 35
M  V30 37 1 18 36
M  V30 38 1 19 37
M  V30 END BOND
M  V30 BEGIN COLLECTION
M  V30 MDLV30/STERAC1 ATOMS=(1 10)
M  V30 END COLLECTION
M  V30 END CTAB
M  END
>  <NO.>
1569

>  <Name>
propoxate

>  <SMILES>
CCCOC(=O)c1cncn1C(C)c1ccccc1

>  <logBB>


>  <Class>
1

>  <MW>
258.14

>  <nHBAcc>
3

>  <nHBDon>
0

>  <SLogP>
3.06

>  <TopoPSA>
44.12

>  <MMFF94 Energy>
15.096

$$$$
CCCSc1ccccc1N1CCN(CCCCn2c(=O)[nH]c3ccccc3c2=O)CC1
Actelion Java MolfileCreator 2.0

  0  0  0  0  0  0              0 V3000
M  V30 BEGIN CTAB
M  V30 COUNTS 64 67 0 0 0
M  V30 BEGIN ATOM
M  V30 1 S -2.0822 5.0512 -0.7204 0
M  V30 2 C -2.6854 4.7999 0.9583 0
M  V30 3 C -3.5616 4.5373 -1.6561 0
M  V30 4 C -2.4294 3.6185 1.6984 0
M  V30 5 C -3.4582 5.8334 1.5148 0
M  V30 6 C -3.7042 3.0193 -1.7225 0
M  V30 7 N -1.6438 2.5853 1.1899 0
M  V30 8 C -2.994 3.5207 2.9828 0
M  V30 9 C -3.9987 5.7078 2.7926 0
M  V30 10 C -4.8602 2.617 -2.6271 0
M  V30 11 C -0.1902 2.8146 1.1731 0
M  V30 12 C -2.0291 1.1873 1.4145 0
M  V30 13 C -3.7692 4.5498 3.5252 0
M  V30 14 C 0.4942 1.8529 0.1729 0
M  V30 15 C -1.3077 0.2675 0.4026 0
M  V30 16 N 0.1687 0.4251 0.4218 0
M  V30 17 C 0.7767 -0.459 -0.5861 0
M  V30 18 C 2.3072 -0.5596 -0.4873 0
M  V30 19 C 2.8434 -0.934 0.9002 0
M  V30 20 C 2.441 -2.3292 1.3958 0
M  V30 21 N 3.128 -3.404 0.6806 0
M  V30 22 C 4.4299 -3.6963 1.0613 0
M  V30 23 C 2.4371 -4.0862 -0.3197 0
M  V30 24 O 5.0393 -3.1117 1.9563 0
M  V30 25 N 5.0595 -4.7022 0.386 0
M  V30 26 O 1.2776 -3.8474 -0.6497 0
M  V30 27 C 3.1659 -5.1619 -1.0193 0
M  V30 28 C 4.473 -5.437 -0.6381 0
M  V30 29 C 2.5638 -5.8957 -2.0469 0
M  V30 30 C 5.1951 -6.4456 -1.2761 0
M  V30 31 C 3.2825 -6.9055 -2.6881 0
M  V30 32 C 4.5961 -7.1794 -2.3028 0
M  V30 33 H -3.45 4.9393 -2.669 0
M  V30 34 H -4.4573 4.9973 -1.2249 0
M  V30 35 H -3.6456 6.7436 0.9501 0
M  V30 36 H -2.7831 2.5632 -2.1046 0
M  V30 37 H -3.8899 2.6064 -0.7258 0
M  V30 38 H -2.8128 2.6397 3.5923 0
M  V30 39 H -4.5953 6.5125 3.2137 0
M  V30 40 H -5.8061 3.0289 -2.2609 0
M  V30 41 H -4.7016 2.9745 -3.6495 0
M  V30 42 H -4.9539 1.527 -2.6593 0
M  V30 43 H 0.0634 3.8435 0.8953 0
M  V30 44 H 0.2139 2.6461 2.18 0
M  V30 45 H -1.7686 0.8802 2.4351 0
M  V30 46 H -3.1112 1.0619 1.2867 0
M  V30 47 H -4.1835 4.4455 4.5246 0
M  V30 48 H 1.5747 2.0106 0.2573 0
M  V30 49 H 0.1977 2.1339 -0.8465 0
M  V30 50 H -1.6949 0.4754 -0.6042 0
M  V30 51 H -1.5672 -0.7697 0.6464 0
M  V30 52 H 0.5059 -0.1355 -1.5998 0
M  V30 53 H 0.3627 -1.4659 -0.47 0
M  V30 54 H 2.7543 0.3971 -0.783 0
M  V30 55 H 2.6597 -1.2887 -1.2264 0
M  V30 56 H 3.937 -0.8538 0.8754 0
M  V30 57 H 2.5034 -0.1925 1.6329 0
M  V30 58 H 1.3564 -2.466 1.3423 0
M  V30 59 H 2.7099 -2.4057 2.4569 0
M  V30 60 H 6.0079 -4.8928 0.682 0
M  V30 61 H 1.5399 -5.6832 -2.3475 0
M  V30 62 H 6.218 -6.6709 -0.9872 0
M  V30 63 H 2.818 -7.4785 -3.4875 0
M  V30 64 H 5.1541 -7.9672 -2.8041 0
M  V30 END ATOM
M  V30 BEGIN BOND
M  V30 1 1 1 2
M  V30 2 1 1 3
M  V30 3 2 2 4
M  V30 4 1 2 5
M  V30 5 1 3 6
M  V30 6 1 4 7
M  V30 7 1 4 8
M  V30 8 2 5 9
M  V30 9 1 6 10
M  V30 10 1 7 11
M  V30 11 1 7 12
M  V30 12 2 8 13
M  V30 13 1 11 14
M  V30 14 1 12 15
M  V30 15 1 14 16
M  V30 16 1 16 17
M  V30 17 1 17 18
M  V30 18 1 18 19
M  V30 19 1 19 20
M  V30 20 1 20 21
M  V30 21 1 21 22
M  V30 22 1 21 23
M  V30 23 2 22 24
M  V30 24 1 22 25
M  V30 25 2 23 26
M  V30 26 1 23 27
M  V30 27 1 25 28
M  V30 28 1 27 29
M  V30 29 1 28 30
M  V30 30 2 29 31
M  V30 31 2 30 32
M  V30 32 1 9 13
M  V30 33 1 15 16
M  V30 34 2 27 28
M  V30 35 1 31 32
M  V30 36 1 3 33
M  V30 37 1 3 34
M  V30 38 1 5 35
M  V30 39 1 6 36
M  V30 40 1 6 37
M  V30 41 1 8 38
M  V30 42 1 9 39
M  V30 43 1 10 40
M  V30 44 1 10 41
M  V30 45 1 10 42
M  V30 46 1 11 43
M  V30 47 1 11 44
M  V30 48 1 12 45
M  V30 49 1 12 46
M  V30 50 1 13 47
M  V30 51 1 14 48
M  V30 52 1 14 49
M  V30 53 1 15 50
M  V30 54 1 15 51
M  V30 55 1 17 52
M  V30 56 1 17 53
M  V30 57 1 18 54
M  V30 58 1 18 55
M  V30 59 1 19 56
M  V30 60 1 19 57
M  V30 61 1 20 58
M  V30 62 1 20 59
M  V30 63 1 25 60
M  V30 64 1 29 61
M  V30 65 1 30 62
M  V30 66 1 31 63
M  V30 67 1 32 64
M  V30 END BOND
M  V30 END CTAB
M  END
>  <NO.>
1570

>  <Name>
tioperidone

>  <SMILES>
CCCSc1ccccc1N1CCN(CCCCn2c(=O)[nH]c3ccccc3c2=O)CC1

>  <logBB>


>  <Class>
1

>  <MW>
452.22

>  <nHBAcc>
5

>  <nHBDon>
1

>  <SLogP>
3.79

>  <TopoPSA>
61.34

>  <MMFF94 Energy>
56.812

$$$$
CCC[C@@H]1C[C@@H](C(=O)NC(C(C)Cl)[C@H]2O[C@H](SC)[C@H](O)[C@@H](O)[C@H]2O)N(C)C1
Actelion Java MolfileCreator 2.0

  0  0  0  0  0  0              0 V3000
M  V30 BEGIN CTAB
M  V30 COUNTS 60 61 0 0 0
M  V30 BEGIN ATOM
M  V30 1 Cl -0.7227 4.9871 0.803 0
M  V30 2 C -0.9779 3.2649 1.261 0
M  V30 3 C 0.066 2.3114 0.6021 0
M  V30 4 C -0.9735 3.2174 2.79 0
M  V30 5 N 0.0474 0.9901 1.2533 0
M  V30 6 C -0.1706 2.0975 -0.9281 0 CFG=1
M  V30 7 C 0.9742 0.5694 2.1819 0
M  V30 8 O -0.3561 3.3488 -1.6053 0
M  V30 9 C 0.9707 1.2815 -1.5785 0 CFG=2
M  V30 10 O 1.9012 1.2618 2.587 0
M  V30 11 C 0.7849 -0.895 2.6144 0 CFG=1
M  V30 12 C -0.6159 3.26 -3.0107 0 CFG=2
M  V30 13 O 2.2327 1.9355 -1.3896 0
M  V30 14 C 0.7239 1.1194 -3.0818 0 CFG=1
M  V30 15 N -0.6156 -1.3417 2.3482 0
M  V30 16 C 1.6662 -1.8129 1.7595 0
M  V30 17 S -2.3085 2.6143 -3.3382 0
M  V30 18 C 0.5076 2.4885 -3.7307 0 CFG=1
M  V30 19 O 1.8709 0.4971 -3.6955 0
M  V30 20 C -0.5196 -2.7373 1.9076 0
M  V30 21 C -1.4622 -1.2058 3.5305 0
M  V30 22 C 0.6849 -2.6863 0.9772 0 CFG=2
M  V30 23 C -3.2516 3.9534 -2.5701 0
M  V30 24 O 0.2808 2.3367 -5.1373 0
M  V30 25 C 1.269 -4.0533 0.6158 0
M  V30 26 C 0.302 -4.9064 -0.2069 0
M  V30 27 C 0.9359 -6.2276 -0.6135 0
M  V30 28 H -1.9827 2.9986 0.9131 0
M  V30 29 H 1.058 2.7542 0.756 0
M  V30 30 H -1.6889 3.9349 3.2085 0
M  V30 31 H -1.2695 2.2309 3.1588 0
M  V30 32 H 0.0164 3.453 3.1953 0
M  V30 33 H -0.7261 0.3407 1.1137 0
M  V30 34 H -1.0992 1.5202 -1.0273 0
M  V30 35 H 1.0632 0.292 -1.118 0
M  V30 36 H 1.0567 -0.9868 3.6732 0
M  V30 37 H -0.6134 4.2818 -3.4062 0
M  V30 38 H 2.8475 1.5626 -2.0511 0
M  V30 39 H -0.1333 0.4645 -3.2748 0
M  V30 40 H 2.2864 -2.4324 2.4193 0
M  V30 41 H 2.3356 -1.2738 1.08 0
M  V30 42 H 1.4355 3.0683 -3.6406 0
M  V30 43 H 1.8744 -0.4368 -3.4166 0
M  V30 44 H -1.4287 -3.0482 1.3834 0
M  V30 45 H -0.3387 -3.4222 2.7463 0
M  V30 46 H -1.5203 -0.1583 3.8439 0
M  V30 47 H -2.4843 -1.5277 3.3032 0
M  V30 48 H -1.0958 -1.7976 4.377 0
M  V30 49 H 0.408 -2.1593 0.0526 0
M  V30 50 H -3.009 4.9113 -3.0375 0
M  V30 51 H -3.0466 4.0023 -1.4979 0
M  V30 52 H -4.3195 3.7627 -2.7072 0
M  V30 53 H 0.9895 1.7412 -5.449 0
M  V30 54 H 1.5466 -4.5962 1.5281 0
M  V30 55 H 2.1938 -3.9032 0.0447 0
M  V30 56 H -0.606 -5.1132 0.37 0
M  V30 57 H -0.0012 -4.3612 -1.1083 0
M  V30 58 H 0.2283 -6.8229 -1.1992 0
M  V30 59 H 1.8287 -6.0629 -1.225 0
M  V30 60 H 1.2244 -6.8113 0.2664 0
M  V30 END ATOM
M  V30 BEGIN BOND
M  V30 1 1 1 2
M  V30 2 1 2 3
M  V30 3 1 2 4
M  V30 4 1 3 5
M  V30 5 1 3 6
M  V30 6 1 5 7
M  V30 7 1 6 8
M  V30 8 1 6 9
M  V30 9 2 7 10
M  V30 10 1 7 11
M  V30 11 1 8 12
M  V30 12 1 9 13
M  V30 13 1 9 14
M  V30 14 1 11 15
M  V30 15 1 11 16
M  V30 16 1 12 17
M  V30 17 1 12 18
M  V30 18 1 14 19
M  V30 19 1 15 20
M  V30 20 1 15 21
M  V30 21 1 16 22
M  V30 22 1 17 23
M  V30 23 1 18 24
M  V30 24 1 22 25
M  V30 25 1 25 26
M  V30 26 1 26 27
M  V30 27 1 14 18
M  V30 28 1 20 22
M  V30 29 1 2 28
M  V30 30 1 3 29
M  V30 31 1 4 30
M  V30 32 1 4 31
M  V30 33 1 4 32
M  V30 34 1 5 33
M  V30 35 1 6 34
M  V30 36 1 9 35
M  V30 37 1 11 36
M  V30 38 1 12 37
M  V30 39 1 13 38
M  V30 40 1 14 39
M  V30 41 1 16 40
M  V30 42 1 16 41
M  V30 43 1 18 42
M  V30 44 1 19 43
M  V30 45 1 20 44
M  V30 46 1 20 45
M  V30 47 1 21 46
M  V30 48 1 21 47
M  V30 49 1 21 48
M  V30 50 1 22 49
M  V30 51 1 23 50
M  V30 52 1 23 51
M  V30 53 1 23 52
M  V30 54 1 24 53
M  V30 55 1 25 54
M  V30 56 1 25 55
M  V30 57 1 26 56
M  V30 58 1 26 57
M  V30 59 1 27 58
M  V30 60 1 27 59
M  V30 61 1 27 60
M  V30 END BOND
M  V30 BEGIN COLLECTION
M  V30 MDLV30/STEABS ATOMS=(7 6 9 11 12 14 18 22)
M  V30 END COLLECTION
M  V30 END CTAB
M  END
>  <NO.>
1571

>  <Name>
clindamycin

>  <SMILES>
CCC[C@@H]1C[C@@H](C(=O)NC(C(C)Cl)[C@H]2O[C@H](SC)[C@H](O)[C@@H](O)[C@H]2O)N(C)C1

>  <logBB>


>  <Class>
-1

>  <MW>
424.18

>  <nHBAcc>
7

>  <nHBDon>
4

>  <SLogP>
0.39

>  <TopoPSA>
102.26

>  <MMFF94 Energy>
143.15

$$$$
CCC[C@@H]1C[C@@H](C(=O)NC(C(C)Cl)[C@H]2O[C@H](SC)[C@H](OP(=O)(O)O)[C@@H](O)[C@H]2O)N(C)C1
Actelion Java MolfileCreator 2.0

  0  0  0  0  0  0              0 V3000
M  V30 BEGIN CTAB
M  V30 COUNTS 65 66 0 0 0
M  V30 BEGIN ATOM
M  V30 1 Cl -1.6227 3.4101 -2.7599 0
M  V30 2 C -1.1743 1.7324 -2.2873 0
M  V30 3 C 0.2157 1.7023 -1.5868 0
M  V30 4 C -1.2424 0.8717 -3.547 0
M  V30 5 N 0.6066 0.317 -1.2856 0
M  V30 6 C 0.2196 2.5469 -0.2773 0 CFG=1
M  V30 7 C 1.429 -0.4588 -2.0716 0
M  V30 8 O -0.6349 1.8891 0.6822 0
M  V30 9 C 1.6314 2.7785 0.2992 0 CFG=2
M  V30 10 O 2.0064 -0.0195 -3.0606 0
M  V30 11 C 1.5238 -1.9318 -1.6287 0 CFG=1
M  V30 12 C -0.781 2.5958 1.9236 0 CFG=2
M  V30 13 O 2.3275 1.5578 0.6012 0
M  V30 14 C 1.5498 3.5492 1.6245 0 CFG=1
M  V30 15 N 0.9793 -2.0913 -0.2498 0
M  V30 16 C 0.6382 -2.8062 -2.5214 0
M  V30 17 S -1.8085 4.1076 1.7224 0
M  V30 18 C 0.5861 2.8466 2.5944 0 CFG=1
M  V30 19 O 2.875 3.5963 2.2053 0
M  V30 20 C 0.1773 -3.3202 -0.2533 0
M  V30 21 C 2.0335 -2.1405 0.7594 0
M  V30 22 C -0.5055 -3.2532 -1.6126 0 CFG=2
M  V30 23 C -3.3513 3.3241 1.1989 0
M  V30 24 O 0.4243 3.5761 3.8092 0
M  V30 25 C -1.1446 -4.5658 -2.0698 0
M  V30 26 P 1.6226 3.5576 4.8683 0
M  V30 27 C -2.3146 -4.9903 -1.1807 0
M  V30 28 O 2.3299 2.2633 5.0729 0
M  V30 29 O 0.9497 4.1467 6.1906 0
M  V30 30 O 2.55 4.7765 4.4223 0
M  V30 31 C -2.9757 -6.2574 -1.7007 0
M  V30 32 H -1.9501 1.3895 -1.5937 0
M  V30 33 H 0.9591 2.1218 -2.2767 0
M  V30 34 H -2.2126 0.9793 -4.0453 0
M  V30 35 H -1.1288 -0.1893 -3.3076 0
M  V30 36 H -0.4618 1.1477 -4.2639 0
M  V30 37 H 0.176 -0.1644 -0.4917 0
M  V30 38 H -0.1945 3.535 -0.4987 0
M  V30 39 H 2.2578 3.3251 -0.4143 0
M  V30 40 H 2.5713 -2.2478 -1.706 0
M  V30 41 H -1.3551 1.946 2.5938 0
M  V30 42 H 2.2284 0.975 -0.1757 0
M  V30 43 H 1.2431 4.5877 1.4611 0
M  V30 44 H 1.2153 -3.6765 -2.8584 0
M  V30 45 H 0.2585 -2.2916 -3.4101 0
M  V30 46 H 1.0087 1.8668 2.8524 0
M  V30 47 H 3.2631 2.7148 1.9915 0
M  V30 48 H -0.545 -3.3195 0.5689 0
M  V30 49 H 0.8032 -4.2187 -0.1766 0
M  V30 50 H 2.6235 -1.2189 0.7469 0
M  V30 51 H 1.5964 -2.2267 1.7601 0
M  V30 52 H 2.7158 -2.9844 0.6072 0
M  V30 53 H -1.2726 -2.4655 -1.598 0
M  V30 54 H -3.7064 2.6296 1.9646 0
M  V30 55 H -3.2134 2.7927 0.2545 0
M  V30 56 H -4.1124 4.0951 1.0519 0
M  V30 57 H -0.3923 -5.3644 -2.0864 0
M  V30 58 H -1.4995 -4.4462 -3.1012 0
M  V30 59 H -1.9677 -5.1677 -0.1568 0
M  V30 60 H -3.0603 -4.1879 -1.1379 0
M  V30 61 H 1.5946 4.1759 6.9176 0
M  V30 62 H 2.9844 4.5415 3.5682 0
M  V30 63 H -3.8081 -6.5446 -1.0507 0
M  V30 64 H -3.3697 -6.1083 -2.711 0
M  V30 65 H -2.2635 -7.0882 -1.7281 0
M  V30 END ATOM
M  V30 BEGIN BOND
M  V30 1 1 1 2
M  V30 2 1 2 3
M  V30 3 1 2 4
M  V30 4 1 3 5
M  V30 5 1 3 6
M  V30 6 1 5 7
M  V30 7 1 6 8
M  V30 8 1 6 9
M  V30 9 2 7 10
M  V30 10 1 7 11
M  V30 11 1 8 12
M  V30 12 1 9 13
M  V30 13 1 9 14
M  V30 14 1 11 15
M  V30 15 1 11 16
M  V30 16 1 12 17
M  V30 17 1 12 18
M  V30 18 1 14 19
M  V30 19 1 15 20
M  V30 20 1 15 21
M  V30 21 1 16 22
M  V30 22 1 17 23
M  V30 23 1 18 24
M  V30 24 1 22 25
M  V30 25 1 24 26
M  V30 26 1 25 27
M  V30 27 2 26 28
M  V30 28 1 26 29
M  V30 29 1 26 30
M  V30 30 1 27 31
M  V30 31 1 14 18
M  V30 32 1 20 22
M  V30 33 1 2 32
M  V30 34 1 3 33
M  V30 35 1 4 34
M  V30 36 1 4 35
M  V30 37 1 4 36
M  V30 38 1 5 37
M  V30 39 1 6 38
M  V30 40 1 9 39
M  V30 41 1 11 40
M  V30 42 1 12 41
M  V30 43 1 13 42
M  V30 44 1 14 43
M  V30 45 1 16 44
M  V30 46 1 16 45
M  V30 47 1 18 46
M  V30 48 1 19 47
M  V30 49 1 20 48
M  V30 50 1 20 49
M  V30 51 1 21 50
M  V30 52 1 21 51
M  V30 53 1 21 52
M  V30 54 1 22 53
M  V30 55 1 23 54
M  V30 56 1 23 55
M  V30 57 1 23 56
M  V30 58 1 25 57
M  V30 59 1 25 58
M  V30 60 1 27 59
M  V30 61 1 27 60
M  V30 62 1 29 61
M  V30 63 1 30 62
M  V30 64 1 31 63
M  V30 65 1 31 64
M  V30 66 1 31 65
M  V30 END BOND
M  V30 BEGIN COLLECTION
M  V30 MDLV30/STEABS ATOMS=(7 6 9 11 12 14 18 22)
M  V30 END COLLECTION
M  V30 END CTAB
M  END
>  <NO.>
1572

>  <Name>
clindamycin-phosphate

>  <SMILES>
CCC[C@@H]1C[C@@H](C(=O)NC(C(C)Cl)[C@H]2O[C@H](SC)[C@H](OP(=O)(O)O)[C@@H](O)[C@H]2O)N(C)C1

>  <logBB>


>  <Class>
-1

>  <MW>
504.15

>  <nHBAcc>
8

>  <nHBDon>
5

>  <SLogP>
0.51

>  <TopoPSA>
148.79

>  <MMFF94 Energy>
-89.833

$$$$
CCC[C@@H]1O[C@@H]2C[C@H]3[C@@H]4C[C@H](F)C5=CC(=O)C=C[C@]5(C)C4(F)[C@@H](O)C[C@]3(C)[C@]2(C(=O)O[C@H](C)OC(=O)OCC)O1
Actelion Java MolfileCreator 2.0

  0  0  0  0  0  0              0 V3000
M  V30 BEGIN CTAB
M  V30 COUNTS 78 82 0 0 0
M  V30 BEGIN ATOM
M  V30 1 F -2.8306 1.455 -0.8081 0
M  V30 2 C -2.1827 2.2692 0.1088 0
M  V30 3 C -3.2297 3.3893 0.513 0 CFG=2
M  V30 4 C -0.9068 2.7725 -0.6413 0 CFG=1
M  V30 5 C -1.8321 1.3369 1.3193 0 CFG=2
M  V30 6 C -4.4403 2.6912 1.1603 0
M  V30 7 C -3.6605 4.1962 -0.7118 0
M  V30 8 C -2.6836 4.4211 1.5274 0
M  V30 9 O -0.2415 3.8177 0.0608 0
M  V30 10 C 0.1059 1.6472 -0.9575 0
M  V30 11 C -0.8838 0.2317 0.834 0 CFG=1
M  V30 12 C -3.1057 0.728 1.929 0
M  V30 13 C -5.7023 2.8146 0.7097 0
M  V30 14 C -4.1212 1.7913 2.3259 0 CFG=2
M  V30 15 C -4.919 4.314 -1.1557 0
M  V30 16 C 0.4508 0.7775 0.2691 0 CFG=1
M  V30 17 C -0.4363 -0.8585 1.8105 0
M  V30 18 C -6.0359 3.6423 -0.4655 0
M  V30 19 F -5.235 1.1504 2.7826 0
M  V30 20 C 1.1683 -0.5682 -0.047 0 CFG=1
M  V30 21 C 1.2594 1.5961 1.3093 0
M  V30 22 C 0.8037 -1.4845 1.1307 0 CFG=2
M  V30 23 O -7.1903 3.7709 -0.8519 0
M  V30 24 O 0.5274 -1.2026 -1.166 0
M  V30 25 C 2.6779 -0.454 -0.3226 0
M  V30 26 O 0.4653 -2.7524 0.5677 0
M  V30 27 C 0.5 -2.5911 -0.8496 0 CFG=1
M  V30 28 O 3.1673 -0.4412 -1.4451 0
M  V30 29 O 3.3918 -0.3659 0.829 0
M  V30 30 C -0.7271 -3.2538 -1.4648 0
M  V30 31 C 4.8291 -0.4085 0.746 0 CFG=1
M  V30 32 C -0.7329 -3.1643 -2.9904 0
M  V30 33 O 5.3525 -1.5038 -0.0053 0
M  V30 34 C 5.3816 0.8981 0.1872 0
M  V30 35 C -1.9494 -3.8583 -3.5825 0
M  V30 36 C 5.0968 -2.7184 0.5316 0
M  V30 37 O 4.5139 -2.9255 1.5849 0
M  V30 38 O 5.5829 -3.6634 -0.3091 0
M  V30 39 C 5.3433 -5.0221 0.0784 0
M  V30 40 C 3.9693 -5.4667 -0.3892 0
M  V30 41 H -1.2158 3.1902 -1.6066 0
M  V30 42 H -1.342 1.9191 2.1056 0
M  V30 43 H -2.8855 4.738 -1.2496 0
M  V30 44 H -3.4971 5.0219 1.9558 0
M  V30 45 H -1.9926 5.1348 1.0666 0
M  V30 46 H -2.159 3.9531 2.3654 0
M  V30 47 H 0.4694 4.152 -0.5161 0
M  V30 48 H 1.0276 2.0764 -1.3693 0
M  V30 49 H -0.3311 1.025 -1.7481 0
M  V30 50 H -1.4223 -0.2935 0.0292 0
M  V30 51 H -2.8581 0.1347 2.8175 0
M  V30 52 H -3.571 0.0263 1.2239 0
M  V30 53 H -6.5404 2.3021 1.1705 0
M  V30 54 H -3.7417 2.3853 3.1637 0
M  V30 55 H -5.1787 4.9079 -2.0236 0
M  V30 56 H -1.2272 -1.5941 1.9889 0
M  V30 57 H -0.1572 -0.4147 2.7727 0
M  V30 58 H 2.1443 2.0445 0.8436 0
M  V30 59 H 1.6052 0.9825 2.1472 0
M  V30 60 H 0.6902 2.4136 1.755 0
M  V30 61 H 1.5929 -1.6377 1.8721 0
M  V30 62 H 1.4184 -3.0586 -1.2243 0
M  V30 63 H -1.6323 -2.7725 -1.0721 0
M  V30 64 H -0.7729 -4.302 -1.1448 0
M  V30 65 H 5.1935 -0.4901 1.7781 0
M  V30 66 H -0.7322 -2.1154 -3.308 0
M  V30 67 H 0.1758 -3.6264 -3.3926 0
M  V30 68 H 6.4742 0.9126 0.2561 0
M  V30 69 H 4.9736 1.7583 0.727 0
M  V30 70 H 5.1326 1.0226 -0.871 0
M  V30 71 H -1.9341 -3.7838 -4.6743 0
M  V30 72 H -1.9648 -4.9196 -3.3147 0
M  V30 73 H -2.8762 -3.3994 -3.2235 0
M  V30 74 H 5.4613 -5.1543 1.1602 0
M  V30 75 H 6.1117 -5.6337 -0.4054 0
M  V30 76 H 3.8022 -6.5215 -0.1537 0
M  V30 77 H 3.1805 -4.8742 0.0852 0
M  V30 78 H 3.8665 -5.325 -1.4701 0
M  V30 END ATOM
M  V30 BEGIN BOND
M  V30 1 1 1 2
M  V30 2 1 2 3
M  V30 3 1 2 4
M  V30 4 1 2 5
M  V30 5 1 3 6
M  V30 6 1 3 7
M  V30 7 1 3 8
M  V30 8 1 4 9
M  V30 9 1 4 10
M  V30 10 1 5 11
M  V30 11 1 5 12
M  V30 12 2 6 13
M  V30 13 1 6 14
M  V30 14 2 7 15
M  V30 15 1 10 16
M  V30 16 1 11 17
M  V30 17 1 13 18
M  V30 18 1 14 19
M  V30 19 1 16 20
M  V30 20 1 16 21
M  V30 21 1 17 22
M  V30 22 2 18 23
M  V30 23 1 20 24
M  V30 24 1 20 25
M  V30 25 1 22 26
M  V30 26 1 24 27
M  V30 27 2 25 28
M  V30 28 1 25 29
M  V30 29 1 27 30
M  V30 30 1 29 31
M  V30 31 1 30 32
M  V30 32 1 31 33
M  V30 33 1 31 34
M  V30 34 1 32 35
M  V30 35 1 33 36
M  V30 36 2 36 37
M  V30 37 1 36 38
M  V30 38 1 38 39
M  V30 39 1 39 40
M  V30 40 1 11 16
M  V30 41 1 12 14
M  V30 42 1 15 18
M  V30 43 1 20 22
M  V30 44 1 26 27
M  V30 45 1 4 41
M  V30 46 1 5 42
M  V30 47 1 7 43
M  V30 48 1 8 44
M  V30 49 1 8 45
M  V30 50 1 8 46
M  V30 51 1 9 47
M  V30 52 1 10 48
M  V30 53 1 10 49
M  V30 54 1 11 50
M  V30 55 1 12 51
M  V30 56 1 12 52
M  V30 57 1 13 53
M  V30 58 1 14 54
M  V30 59 1 15 55
M  V30 60 1 17 56
M  V30 61 1 17 57
M  V30 62 1 21 58
M  V30 63 1 21 59
M  V30 64 1 21 60
M  V30 65 1 22 61
M  V30 66 1 27 62
M  V30 67 1 30 63
M  V30 68 1 30 64
M  V30 69 1 31 65
M  V30 70 1 32 66
M  V30 71 1 32 67
M  V30 72 1 34 68
M  V30 73 1 34 69
M  V30 74 1 34 70
M  V30 75 1 35 71
M  V30 76 1 35 72
M  V30 77 1 35 73
M  V30 78 1 39 74
M  V30 79 1 39 75
M  V30 80 1 40 76
M  V30 81 1 40 77
M  V30 82 1 40 78
M  V30 END BOND
M  V30 BEGIN COLLECTION
M  V30 MDLV30/STEABS ATOMS=(10 3 4 5 11 14 16 20 22 27 31)
M  V30 END COLLECTION
M  V30 END CTAB
M  END
>  <NO.>
1573

>  <Name>
itrocinonide

>  <SMILES>
CCC[C@@H]1O[C@@H]2C[C@H]3[C@@H]4C[C@H](F)C5=CC(=O)C=C[C@]5(C)C4(F)[C@@H](O)C[C@]3(C)[C@]2(C(=O)O[C@H](C)OC(=O)OCC)O1

>  <logBB>


>  <Class>
1

>  <MW>
568.25

>  <nHBAcc>
9

>  <nHBDon>
1

>  <SLogP>
4.26

>  <TopoPSA>
117.59

>  <MMFF94 Energy>
87.35

$$$$
CCC[C@@H]1O[C@@H]2C[C@H]3[C@@H]4C[C@H](F)C5=CC(=O)CC[C@]5(C)[C@@]4(F)[C@@H](O)C[C@]3(C)[C@]2(C(=O)CO)O1
Actelion Java MolfileCreator 2.0

  0  0  0  0  0  0              0 V3000
M  V30 BEGIN CTAB
M  V30 COUNTS 67 71 0 0 0
M  V30 BEGIN ATOM
M  V30 1 F 0.5674 1.7029 -0.4052 0
M  V30 2 C 0.7916 1.2372 0.8819 0 CFG=2
M  V30 3 C 1.2237 2.507 1.7283 0 CFG=2
M  V30 4 C 1.8888 0.1375 0.7184 0 CFG=1
M  V30 5 C -0.5784 0.649 1.3441 0 CFG=2
M  V30 6 C 0.0588 3.5129 1.7802 0
M  V30 7 C 2.4564 3.1622 1.0351 0
M  V30 8 C 1.5927 2.1769 3.1932 0
M  V30 9 O 2.4055 -0.2979 1.9706 0
M  V30 10 C 1.4082 -1.0923 -0.0862 0
M  V30 11 C -0.9562 -0.5172 0.419 0 CFG=1
M  V30 12 C -1.6624 1.7368 1.3028 0
M  V30 13 C 0.1988 4.8313 1.5488 0
M  V30 14 C -1.2906 2.9437 2.1489 0 CFG=2
M  V30 15 C 2.7442 4.5806 1.5045 0
M  V30 16 C 0.0736 -1.6727 0.426 0 CFG=1
M  V30 17 C -2.2914 -1.2299 0.6319 0
M  V30 18 C 1.526 5.4482 1.3277 0
M  V30 19 F -2.2783 3.8724 2.002 0
M  V30 20 C -0.6472 -2.674 -0.5274 0 CFG=1
M  V30 21 C 0.2573 -2.3165 1.8263 0
M  V30 22 C -2.1304 -2.5562 -0.1417 0 CFG=2
M  V30 23 O 1.6058 6.6499 1.0882 0
M  V30 24 O -0.5985 -2.2178 -1.8808 0
M  V30 25 C -0.1273 -4.1149 -0.4448 0
M  V30 26 O -2.8616 -2.4978 -1.3644 0
M  V30 27 C -1.9087 -2.4022 -2.4171 0 CFG=1
M  V30 28 O -0.5745 -4.9432 0.3544 0
M  V30 29 C 1.0013 -4.5007 -1.3929 0
M  V30 30 C -2.2771 -1.2402 -3.334 0
M  V30 31 O 1.6522 -5.6893 -0.9664 0
M  V30 32 C -1.3195 -1.1045 -4.5173 0
M  V30 33 C -1.727 0.039 -5.4327 0
M  V30 34 H 2.7298 0.5674 0.1622 0
M  V30 35 H -0.5038 0.2913 2.3758 0
M  V30 36 H 3.3544 2.5528 1.1928 0
M  V30 37 H 2.2953 3.1976 -0.0508 0
M  V30 38 H 2.581 1.7142 3.2723 0
M  V30 39 H 0.8692 1.5038 3.6629 0
M  V30 40 H 1.6311 3.0819 3.8123 0
M  V30 41 H 3.1602 -0.8884 1.7936 0
M  V30 42 H 1.3045 -0.7853 -1.1342 0
M  V30 43 H 2.1798 -1.8705 -0.0586 0
M  V30 44 H -1.0009 -0.0945 -0.597 0
M  V30 45 H -1.8491 2.059 0.2698 0
M  V30 46 H -2.6177 1.3398 1.6667 0
M  V30 47 H -0.6376 5.5228 1.5746 0
M  V30 48 H -1.2832 2.6633 3.2082 0
M  V30 49 H 3.5591 4.9995 0.9041 0
M  V30 50 H 3.0463 4.6073 2.5562 0
M  V30 51 H -2.4502 -1.429 1.6976 0
M  V30 52 H -3.1342 -0.6352 0.2652 0
M  V30 53 H 1.0785 -3.0422 1.8117 0
M  V30 54 H 0.4859 -1.5909 2.6088 0
M  V30 55 H -0.6378 -2.8504 2.1618 0
M  V30 56 H -2.5234 -3.3831 0.4573 0
M  V30 57 H -1.9237 -3.3463 -2.9736 0
M  V30 58 H 0.5859 -4.6683 -2.3902 0
M  V30 59 H 1.7491 -3.7072 -1.4345 0
M  V30 60 H -2.2702 -0.3067 -2.7569 0
M  V30 61 H -3.3062 -1.3716 -3.6904 0
M  V30 62 H 0.9671 -6.2374 -0.5334 0
M  V30 63 H -0.2989 -0.9269 -4.1599 0
M  V30 64 H -1.3052 -2.0376 -5.092 0
M  V30 65 H -1.0302 0.1187 -6.2728 0
M  V30 66 H -2.731 -0.1214 -5.8382 0
M  V30 67 H -1.7216 0.9926 -4.8951 0
M  V30 END ATOM
M  V30 BEGIN BOND
M  V30 1 1 1 2
M  V30 2 1 2 3
M  V30 3 1 2 4
M  V30 4 1 2 5
M  V30 5 1 3 6
M  V30 6 1 3 7
M  V30 7 1 3 8
M  V30 8 1 4 9
M  V30 9 1 4 10
M  V30 10 1 5 11
M  V30 11 1 5 12
M  V30 12 2 6 13
M  V30 13 1 6 14
M  V30 14 1 7 15
M  V30 15 1 10 16
M  V30 16 1 11 17
M  V30 17 1 13 18
M  V30 18 1 14 19
M  V30 19 1 16 20
M  V30 20 1 16 21
M  V30 21 1 17 22
M  V30 22 2 18 23
M  V30 23 1 20 24
M  V30 24 1 20 25
M  V30 25 1 22 26
M  V30 26 1 24 27
M  V30 27 2 25 28
M  V30 28 1 25 29
M  V30 29 1 27 30
M  V30 30 1 29 31
M  V30 31 1 30 32
M  V30 32 1 32 33
M  V30 33 1 11 16
M  V30 34 1 12 14
M  V30 35 1 15 18
M  V30 36 1 20 22
M  V30 37 1 26 27
M  V30 38 1 4 34
M  V30 39 1 5 35
M  V30 40 1 7 36
M  V30 41 1 7 37
M  V30 42 1 8 38
M  V30 43 1 8 39
M  V30 44 1 8 40
M  V30 45 1 9 41
M  V30 46 1 10 42
M  V30 47 1 10 43
M  V30 48 1 11 44
M  V30 49 1 12 45
M  V30 50 1 12 46
M  V30 51 1 13 47
M  V30 52 1 14 48
M  V30 53 1 15 49
M  V30 54 1 15 50
M  V30 55 1 17 51
M  V30 56 1 17 52
M  V30 57 1 21 53
M  V30 58 1 21 54
M  V30 59 1 21 55
M  V30 60 1 22 56
M  V30 61 1 27 57
M  V30 62 1 29 58
M  V30 63 1 29 59
M  V30 64 1 30 60
M  V30 65 1 30 61
M  V30 66 1 31 62
M  V30 67 1 32 63
M  V30 68 1 32 64
M  V30 69 1 33 65
M  V30 70 1 33 66
M  V30 71 1 33 67
M  V30 END BOND
M  V30 BEGIN COLLECTION
M  V30 MDLV30/STEABS ATOMS=(10 2 3 4 5 11 14 16 20 22 27)
M  V30 END COLLECTION
M  V30 END CTAB
M  END
>  <NO.>
1574

>  <Name>
rofleponide

>  <SMILES>
CCC[C@@H]1O[C@@H]2C[C@H]3[C@@H]4C[C@H](F)C5=CC(=O)CC[C@]5(C)[C@@]4(F)[C@@H](O)C[C@]3(C)[C@]2(C(=O)CO)O1

>  <logBB>


>  <Class>
1

>  <MW>
468.23

>  <nHBAcc>
6

>  <nHBDon>
2

>  <SLogP>
2.98

>  <TopoPSA>
93.06

>  <MMFF94 Energy>
148.03

$$$$
CCC[C@@](C)(O)[C@H]1CC23C=CC1(OC)[C@H]1Oc4c(OC(C)=O)ccc5c4C12CCN(C)C3C5
Actelion Java MolfileCreator 2.0

  0  0  0  0  0  0              0 V3000
M  V30 BEGIN CTAB
M  V30 COUNTS 68 73 0 0 0
M  V30 BEGIN ATOM
M  V30 1 O 4.5309 0.2423 3.3157 0
M  V30 2 C 4.0098 1.2116 3.8529 0
M  V30 3 O 2.6862 1.3449 4.2519 0
M  V30 4 C 4.7517 2.4582 4.2348 0
M  V30 5 C 1.8913 0.3012 3.7965 0
M  V30 6 C 1.493 0.2305 2.4793 0
M  V30 7 C 1.3883 -0.6321 4.713 0
M  V30 8 O 1.6977 1.1706 1.5018 0
M  V30 9 C 0.6896 -0.8076 2.0743 0
M  V30 10 C 0.461 -1.6104 4.2974 0
M  V30 11 C 0.9131 0.7165 0.3398 0 CFG=1
M  V30 12 C 0.0716 -1.6808 2.958 0
M  V30 13 C 0.3858 -0.7032 0.6249 0
M  V30 14 C -0.3004 1.6572 -0.0222 0
M  V30 15 C -1.1023 -2.5002 2.4586 0
M  V30 16 C -1.1568 -0.8017 0.4744 0
M  V30 17 C 1.153 -1.7919 -0.1507 0
M  V30 18 O 0.1909 2.9793 -0.2542 0
M  V30 19 C -1.3138 1.5418 1.1248 0
M  V30 20 C -1.0941 1.0732 -1.279 0 CFG=2
M  V30 21 C -1.5085 -2.2549 0.9404 0
M  V30 22 C -1.8137 0.3067 1.3188 0
M  V30 23 C -1.5 -0.4242 -0.9958 0
M  V30 24 C 0.5846 -3.1993 0.0622 0
M  V30 25 C -0.7514 4.0445 -0.1795 0
M  V30 26 C -0.5679 1.3435 -2.7346 0 CFG=2
M  V30 27 N -0.8814 -3.2082 -0.0126 0
M  V30 28 O -0.3734 2.7532 -2.9017 0
M  V30 29 C -1.6691 0.9285 -3.7555 0
M  V30 30 C 0.7625 0.6785 -3.0882 0
M  V30 31 C -1.4062 -4.5658 0.1118 0
M  V30 32 C -1.3878 1.3019 -5.2179 0
M  V30 33 C -2.574 0.9641 -6.1104 0
M  V30 34 H 4.2668 3.3303 3.7886 0
M  V30 35 H 4.7852 2.5503 5.3231 0
M  V30 36 H 5.775 2.4015 3.8531 0
M  V30 37 H 1.6706 -0.5685 5.7601 0
M  V30 38 H 0.0159 -2.2718 5.0366 0
M  V30 39 H 1.6365 0.721 -0.4758 0
M  V30 40 H -0.9172 -3.5596 2.6612 0
M  V30 41 H -1.9718 -2.2187 3.0683 0
M  V30 42 H 1.1256 -1.5722 -1.2218 0
M  V30 43 H 2.216 -1.7942 0.125 0
M  V30 44 H -1.632 2.3867 1.7195 0
M  V30 45 H -2.0457 1.6326 -1.2661 0
M  V30 46 H -2.5975 -2.3784 0.8636 0
M  V30 47 H -2.5604 0.0908 2.0742 0
M  V30 48 H -2.5785 -0.5404 -1.1694 0
M  V30 49 H -1.0096 -1.098 -1.7029 0
M  V30 50 H 0.9404 -3.6091 1.0152 0
M  V30 51 H 0.9971 -3.8482 -0.7205 0
M  V30 52 H -0.303 4.9218 -0.6547 0
M  V30 53 H -1.6831 3.8105 -0.7008 0
M  V30 54 H -0.9501 4.3043 0.8635 0
M  V30 55 H 0.2734 3.0364 -2.225 0
M  V30 56 H -1.8455 -0.1521 -3.6995 0
M  V30 57 H -2.6093 1.4202 -3.4707 0
M  V30 58 H 0.7069 -0.4105 -3.0484 0
M  V30 59 H 1.5733 1.0309 -2.4491 0
M  V30 60 H 1.0877 0.9574 -4.0965 0
M  V30 61 H -2.4982 -4.5686 0.0245 0
M  V30 62 H -1.1336 -5.0459 1.0567 0
M  V30 63 H -1.0291 -5.1926 -0.7039 0
M  V30 64 H -1.1737 2.3725 -5.306 0
M  V30 65 H -0.5135 0.7585 -5.5895 0
M  V30 66 H -2.3533 1.2282 -7.1493 0
M  V30 67 H -2.801 -0.106 -6.0725 0
M  V30 68 H -3.4673 1.5168 -5.8024 0
M  V30 END ATOM
M  V30 BEGIN BOND
M  V30 1 2 1 2
M  V30 2 1 2 3
M  V30 3 1 2 4
M  V30 4 1 3 5
M  V30 5 2 5 6
M  V30 6 1 5 7
M  V30 7 1 6 8
M  V30 8 1 6 9
M  V30 9 2 7 10
M  V30 10 1 8 11
M  V30 11 2 9 12
M  V30 12 1 9 13
M  V30 13 1 11 14
M  V30 14 1 12 15
M  V30 15 1 13 16
M  V30 16 1 13 17
M  V30 17 1 14 18
M  V30 18 1 14 19
M  V30 19 1 14 20
M  V30 20 1 15 21
M  V30 21 1 16 22
M  V30 22 1 16 23
M  V30 23 1 17 24
M  V30 24 1 18 25
M  V30 25 1 20 26
M  V30 26 1 21 27
M  V30 27 1 26 28
M  V30 28 1 26 29
M  V30 29 1 26 30
M  V30 30 1 27 31
M  V30 31 1 29 32
M  V30 32 1 32 33
M  V30 33 1 10 12
M  V30 34 1 11 13
M  V30 35 1 16 21
M  V30 36 2 19 22
M  V30 37 1 20 23
M  V30 38 1 24 27
M  V30 39 1 4 34
M  V30 40 1 4 35
M  V30 41 1 4 36
M  V30 42 1 7 37
M  V30 43 1 10 38
M  V30 44 1 11 39
M  V30 45 1 15 40
M  V30 46 1 15 41
M  V30 47 1 17 42
M  V30 48 1 17 43
M  V30 49 1 19 44
M  V30 50 1 20 45
M  V30 51 1 21 46
M  V30 52 1 22 47
M  V30 53 1 23 48
M  V30 54 1 23 49
M  V30 55 1 24 50
M  V30 56 1 24 51
M  V30 57 1 25 52
M  V30 58 1 25 53
M  V30 59 1 25 54
M  V30 60 1 28 55
M  V30 61 1 29 56
M  V30 62 1 29 57
M  V30 63 1 30 58
M  V30 64 1 30 59
M  V30 65 1 30 60
M  V30 66 1 31 61
M  V30 67 1 31 62
M  V30 68 1 31 63
M  V30 69 1 32 64
M  V30 70 1 32 65
M  V30 71 1 33 66
M  V30 72 1 33 67
M  V30 73 1 33 68
M  V30 END BOND
M  V30 BEGIN COLLECTION
M  V30 MDLV30/STEABS ATOMS=(3 11 20 26)
M  V30 END COLLECTION
M  V30 END CTAB
M  END
>  <NO.>
1575

>  <Name>
acetorphine

>  <SMILES>
CCC[C@@](C)(O)[C@H]1CC23C=CC1(OC)[C@H]1Oc4c(OC(C)=O)ccc5c4C12CCN(C)C3C5

>  <logBB>


>  <Class>
1

>  <MW>
453.25

>  <nHBAcc>
6

>  <nHBDon>
1

>  <SLogP>
3.38

>  <TopoPSA>
68.23

>  <MMFF94 Energy>
179.24

$$$$
CCC[C@]1(c2cccc(O)c2)CCN(C)C[C@@H]1C
Actelion Java MolfileCreator 2.0

  0  0  0  0  0  0              0 V3000
M  V30 BEGIN CTAB
M  V30 COUNTS 43 44 0 0 0
M  V30 BEGIN ATOM
M  V30 1 O -0.7862 -4.2513 -1.5729 0
M  V30 2 C -1.0284 -3.2645 -0.6629 0
M  V30 3 C -0.4278 -2.0254 -0.8763 0
M  V30 4 C -1.8478 -3.4795 0.4345 0
M  V30 5 C -0.6179 -0.952 0.0189 0
M  V30 6 C -2.0743 -2.4309 1.3198 0
M  V30 7 C -1.474 -1.1827 1.1105 0
M  V30 8 C 0.0555 0.4225 -0.2592 0 CFG=2
M  V30 9 C 1.6116 0.2157 -0.4761 0 CFG=2
M  V30 10 C -0.1086 1.4656 0.8912 0
M  V30 11 C -0.6019 1.0138 -1.5572 0
M  V30 12 C 2.3081 -0.1173 0.8605 0
M  V30 13 C 2.328 1.4012 -1.1524 0
M  V30 14 C 0.7194 1.1567 2.146 0
M  V30 15 C -2.1265 1.2048 -1.509 0
M  V30 16 N 2.138 0.9689 1.833 0
M  V30 17 C -2.6454 1.8033 -2.8093 0
M  V30 18 C 2.8991 0.69 3.0508 0
M  V30 19 H -1.2745 -5.0459 -1.3029 0
M  V30 20 H 0.1823 -1.9088 -1.7682 0
M  V30 21 H -2.3215 -4.4393 0.6096 0
M  V30 22 H -2.7272 -2.5767 2.177 0
M  V30 23 H -1.7118 -0.3997 1.8236 0
M  V30 24 H 1.7894 -0.6353 -1.143 0
M  V30 25 H 0.1965 2.456 0.5268 0
M  V30 26 H -1.1584 1.585 1.1817 0
M  V30 27 H -0.356 0.3782 -2.418 0
M  V30 28 H -0.1627 1.9963 -1.7717 0
M  V30 29 H 3.3774 -0.2706 0.665 0
M  V30 30 H 1.9285 -1.0663 1.2613 0
M  V30 31 H 3.4091 1.2259 -1.1887 0
M  V30 32 H 1.9974 1.5215 -2.1887 0
M  V30 33 H 2.1644 2.3468 -0.6281 0
M  V30 34 H 0.3202 0.2791 2.6668 0
M  V30 35 H 0.6087 2.0044 2.8341 0
M  V30 36 H -2.6333 0.2486 -1.3447 0
M  V30 37 H -2.4039 1.8701 -0.6852 0
M  V30 38 H -3.7311 1.9325 -2.7597 0
M  V30 39 H -2.1954 2.7833 -2.9977 0
M  V30 40 H -2.4194 1.1512 -3.6587 0
M  V30 41 H 2.8002 1.5162 3.7637 0
M  V30 42 H 3.967 0.5986 2.824 0
M  V30 43 H 2.5708 -0.2321 3.5437 0
M  V30 END ATOM
M  V30 BEGIN BOND
M  V30 1 1 1 2
M  V30 2 2 2 3
M  V30 3 1 2 4
M  V30 4 1 3 5
M  V30 5 2 4 6
M  V30 6 2 5 7
M  V30 7 1 5 8
M  V30 8 1 8 9
M  V30 9 1 8 10
M  V30 10 1 8 11
M  V30 11 1 9 12
M  V30 12 1 9 13
M  V30 13 1 10 14
M  V30 14 1 11 15
M  V30 15 1 12 16
M  V30 16 1 15 17
M  V30 17 1 16 18
M  V30 18 1 6 7
M  V30 19 1 14 16
M  V30 20 1 1 19
M  V30 21 1 3 20
M  V30 22 1 4 21
M  V30 23 1 6 22
M  V30 24 1 7 23
M  V30 25 1 9 24
M  V30 26 1 10 25
M  V30 27 1 10 26
M  V30 28 1 11 27
M  V30 29 1 11 28
M  V30 30 1 12 29
M  V30 31 1 12 30
M  V30 32 1 13 31
M  V30 33 1 13 32
M  V30 34 1 13 33
M  V30 35 1 14 34
M  V30 36 1 14 35
M  V30 37 1 15 36
M  V30 38 1 15 37
M  V30 39 1 17 38
M  V30 40 1 17 39
M  V30 41 1 17 40
M  V30 42 1 18 41
M  V30 43 1 18 42
M  V30 44 1 18 43
M  V30 END BOND
M  V30 BEGIN COLLECTION
M  V30 MDLV30/STEABS ATOMS=(2 8 9)
M  V30 END COLLECTION
M  V30 END CTAB
M  END
>  <NO.>
1576

>  <Name>
picenadol

>  <SMILES>
CCC[C@]1(c2cccc(O)c2)CCN(C)C[C@@H]1C

>  <logBB>


>  <Class>
1

>  <MW>
247.19

>  <nHBAcc>
2

>  <nHBDon>
1

>  <SLogP>
3.4

>  <TopoPSA>
23.47

>  <MMFF94 Energy>
33.687

$$$$
CCCl
Actelion Java MolfileCreator 2.0

  0  0  0  0  0  0              0 V3000
M  V30 BEGIN CTAB
M  V30 COUNTS 8 7 0 0 0
M  V30 BEGIN ATOM
M  V30 1 Cl -0.5477 -0.7825 -1.879 0
M  V30 2 C 0.2885 0.2245 -0.678 0
M  V30 3 C -0.1727 -0.1248 0.7212 0
M  V30 4 H 0.0735 1.272 -0.9073 0
M  V30 5 H 1.3635 0.0558 -0.7858 0
M  V30 6 H 0.0396 -1.1723 0.9588 0
M  V30 7 H 0.3458 0.4988 1.4561 0
M  V30 8 H -1.2486 0.0422 0.8374 0
M  V30 END ATOM
M  V30 BEGIN BOND
M  V30 1 1 1 2
M  V30 2 1 2 3
M  V30 3 1 2 4
M  V30 4 1 2 5
M  V30 5 1 3 6
M  V30 6 1 3 7
M  V30 7 1 3 8
M  V30 END BOND
M  V30 END CTAB
M  END
>  <NO.>
1577

>  <Name>
chloroethane

>  <SMILES>
CCCl

>  <logBB>


>  <Class>
1

>  <MW>
64.01

>  <nHBAcc>
0

>  <nHBDon>
0

>  <SLogP>
1.25

>  <TopoPSA>
0

>  <MMFF94 Energy>
-2.1527

$$$$
CCN(C(C)=O)c1cccc(-c2ccnc3c(C#N)cnn23)c1
Actelion Java MolfileCreator 2.0

  0  0  0  0  0  0              0 V3000
M  V30 BEGIN CTAB
M  V30 COUNTS 38 40 0 0 0
M  V30 BEGIN ATOM
M  V30 1 O 2.0791 1.679 4.0814 0
M  V30 2 C 1.5087 0.9383 3.278 0
M  V30 3 N 1.9704 0.7465 1.9795 0
M  V30 4 C 0.258 0.1949 3.687 0
M  V30 5 C 1.3588 -0.1362 1.0646 0
M  V30 6 C 3.1668 1.4544 1.5253 0
M  V30 7 C 0.455 0.3643 0.1223 0
M  V30 8 C 1.6633 -1.4975 1.0984 0
M  V30 9 C 4.4465 0.7161 1.8894 0
M  V30 10 C -0.1625 -0.5012 -0.7919 0
M  V30 11 C 1.0525 -2.364 0.1944 0
M  V30 12 C -1.1177 0.0156 -1.7905 0
M  V30 13 C 0.1436 -1.8691 -0.7441 0
M  V30 14 N -2.4517 -0.4335 -1.8485 0
M  V30 15 C -0.6959 0.9304 -2.6841 0
M  V30 16 N -3.0739 -1.349 -1.0506 0
M  V30 17 C -3.3331 0.0722 -2.8204 0
M  V30 18 C -1.7066 1.3968 -3.6674 0
M  V30 19 C -4.3227 -1.4093 -1.5124 0
M  V30 20 N -2.9412 1.0048 -3.7427 0
M  V30 21 C -4.5378 -0.5572 -2.601 0
M  V30 22 C -5.7429 -0.3739 -3.3326 0
M  V30 23 N -6.7469 -0.2561 -3.9033 0
M  V30 24 H -0.5633 0.4133 2.9999 0
M  V30 25 H 0.4505 -0.8802 3.718 0
M  V30 26 H -0.0428 0.5191 4.6881 0
M  V30 27 H 3.1842 2.4483 1.9876 0
M  V30 28 H 3.116 1.6062 0.4406 0
M  V30 29 H 0.2233 1.4269 0.1188 0
M  V30 30 H 2.3675 -1.8882 1.8283 0
M  V30 31 H 4.4872 -0.2659 1.4081 0
M  V30 32 H 4.5213 0.562 2.9707 0
M  V30 33 H 5.32 1.2895 1.5644 0
M  V30 34 H 1.2776 -3.4273 0.2227 0
M  V30 35 H -0.3304 -2.5654 -1.4339 0
M  V30 36 H 0.3067 1.3314 -2.7397 0
M  V30 37 H -1.3436 2.1473 -4.3898 0
M  V30 38 H -5.025 -2.0785 -1.0299 0
M  V30 END ATOM
M  V30 BEGIN BOND
M  V30 1 2 1 2
M  V30 2 1 2 3
M  V30 3 1 2 4
M  V30 4 1 3 5
M  V30 5 1 3 6
M  V30 6 2 5 7
M  V30 7 1 5 8
M  V30 8 1 6 9
M  V30 9 1 7 10
M  V30 10 2 8 11
M  V30 11 1 10 12
M  V30 12 2 10 13
M  V30 13 1 12 14
M  V30 14 2 12 15
M  V30 15 1 14 16
M  V30 16 1 14 17
M  V30 17 1 15 18
M  V30 18 2 16 19
M  V30 19 1 17 20
M  V30 20 2 17 21
M  V30 21 1 21 22
M  V30 22 3 22 23
M  V30 23 1 11 13
M  V30 24 2 18 20
M  V30 25 1 19 21
M  V30 26 1 4 24
M  V30 27 1 4 25
M  V30 28 1 4 26
M  V30 29 1 6 27
M  V30 30 1 6 28
M  V30 31 1 7 29
M  V30 32 1 8 30
M  V30 33 1 9 31
M  V30 34 1 9 32
M  V30 35 1 9 33
M  V30 36 1 11 34
M  V30 37 1 13 35
M  V30 38 1 15 36
M  V30 39 1 18 37
M  V30 40 1 19 38
M  V30 END BOND
M  V30 END CTAB
M  END
>  <NO.>
1578

>  <Name>
zaleplon

>  <SMILES>
CCN(C(C)=O)c1cccc(-c2ccnc3c(C#N)cnn23)c1

>  <logBB>


>  <Class>
1

>  <MW>
305.13

>  <nHBAcc>
4

>  <nHBDon>
0

>  <SLogP>
2.64

>  <TopoPSA>
74.29

>  <MMFF94 Energy>
69.028

$$$$
CCN(CC)C(=O)C1CN2CCc3cc(OC)c(OC)cc3C2CC1OC(C)=O
Actelion Java MolfileCreator 2.0

  0  0  0  0  0  0              0 V3000
M  V30 BEGIN CTAB
M  V30 COUNTS 61 63 0 0 0
M  V30 BEGIN ATOM
M  V30 1 O -0.3959 -2.3777 0.0 0
M  V30 2 C -1.5477 -2.0158 0.2548 0
M  V30 3 N -2.4916 -2.936 0.717 0
M  V30 4 C -1.9569 -0.5469 0.1092 0
M  V30 5 C -3.9345 -2.7064 0.8363 0
M  V30 6 C -2.0232 -4.2923 1.011 0
M  V30 7 C -1.4493 0.0887 -1.1917 0
M  V30 8 C -1.4984 0.2616 1.3306 0
M  V30 9 C -4.3246 -2.1781 2.2064 0
M  V30 10 C -2.0937 -5.1962 -0.2108 0
M  V30 11 O -1.6269 -0.7667 -2.3412 0
M  V30 12 C 0.0224 0.5034 -1.128 0
M  V30 13 N -0.0745 0.6105 1.3035 0
M  V30 14 C -2.8982 -0.9438 -2.7858 0
M  V30 15 C 0.2948 1.3893 0.1005 0
M  V30 16 C 0.3334 1.3004 2.5294 0
M  V30 17 O -3.8971 -0.4301 -2.3018 0
M  V30 18 C -2.9065 -1.8791 -3.9551 0
M  V30 19 C 1.7314 1.9209 0.1399 0
M  V30 20 C 1.8599 1.3605 2.6001 0
M  V30 21 C 2.4616 1.9311 1.3415 0
M  V30 22 C 2.3218 2.5003 -0.9991 0
M  V30 23 C 3.7713 2.4396 1.3753 0
M  V30 24 C 3.6264 3.0129 -0.9685 0
M  V30 25 C 4.3597 2.9803 0.2297 0
M  V30 26 O 4.255 3.5854 -2.048 0
M  V30 27 O 5.6275 3.5046 0.179 0
M  V30 28 C 3.6811 3.3658 -3.3284 0
M  V30 29 C 6.4275 3.404 1.3478 0
M  V30 30 H -3.0443 -0.4795 0.0879 0
M  V30 31 H -4.453 -3.6547 0.6526 0
M  V30 32 H -4.2745 -2.0253 0.053 0
M  V30 33 H -2.6273 -4.7044 1.8272 0
M  V30 34 H -0.9886 -4.2534 1.3704 0
M  V30 35 H -2.0228 1.0103 -1.3706 0
M  V30 36 H -1.7062 -0.3196 2.2374 0
M  V30 37 H -2.1013 1.1777 1.3966 0
M  V30 38 H -3.8794 -1.1991 2.4011 0
M  V30 39 H -3.9963 -2.858 2.9992 0
M  V30 40 H -5.4118 -2.0728 2.2756 0
M  V30 41 H -1.48 -4.8043 -1.0284 0
M  V30 42 H -3.1205 -5.2851 -0.5796 0
M  V30 43 H -1.7326 -6.1988 0.0377 0
M  V30 44 H 0.2547 1.0266 -2.063 0
M  V30 45 H 0.6788 -0.3762 -1.1308 0
M  V30 46 H -0.347 2.2814 0.0452 0
M  V30 47 H -0.021 0.7586 3.4149 0
M  V30 48 H -0.0975 2.3097 2.5727 0
M  V30 49 H -2.2858 -1.4747 -4.7586 0
M  V30 50 H -2.5431 -2.8619 -3.6444 0
M  V30 51 H -3.9296 -1.9851 -4.327 0
M  V30 52 H 2.2676 0.3532 2.753 0
M  V30 53 H 2.1469 1.9732 3.4632 0
M  V30 54 H 1.7415 2.565 -1.912 0
M  V30 55 H 4.3076 2.4057 2.318 0
M  V30 56 H 3.5317 2.2985 -3.5242 0
M  V30 57 H 4.3816 3.7459 -4.0783 0
M  V30 58 H 2.7453 3.9232 -3.4373 0
M  V30 59 H 6.0008 3.9897 2.1688 0
M  V30 60 H 7.4109 3.8249 1.1171 0
M  V30 61 H 6.5742 2.359 1.6401 0
M  V30 END ATOM
M  V30 BEGIN BOND
M  V30 1 2 1 2
M  V30 2 1 2 3
M  V30 3 1 2 4
M  V30 4 1 3 5
M  V30 5 1 3 6
M  V30 6 1 4 7
M  V30 7 1 4 8
M  V30 8 1 5 9
M  V30 9 1 6 10
M  V30 10 1 7 11
M  V30 11 1 7 12
M  V30 12 1 8 13
M  V30 13 1 11 14
M  V30 14 1 12 15
M  V30 15 1 13 16
M  V30 16 2 14 17
M  V30 17 1 14 18
M  V30 18 1 15 19
M  V30 19 1 16 20
M  V30 20 2 19 21
M  V30 21 1 19 22
M  V30 22 1 21 23
M  V30 23 2 22 24
M  V30 24 2 23 25
M  V30 25 1 24 26
M  V30 26 1 25 27
M  V30 27 1 26 28
M  V30 28 1 27 29
M  V30 29 1 13 15
M  V30 30 1 20 21
M  V30 31 1 24 25
M  V30 32 1 4 30
M  V30 33 1 5 31
M  V30 34 1 5 32
M  V30 35 1 6 33
M  V30 36 1 6 34
M  V30 37 1 7 35
M  V30 38 1 8 36
M  V30 39 1 8 37
M  V30 40 1 9 38
M  V30 41 1 9 39
M  V30 42 1 9 40
M  V30 43 1 10 41
M  V30 44 1 10 42
M  V30 45 1 10 43
M  V30 46 1 12 44
M  V30 47 1 12 45
M  V30 48 1 15 46
M  V30 49 1 16 47
M  V30 50 1 16 48
M  V30 51 1 18 49
M  V30 52 1 18 50
M  V30 53 1 18 51
M  V30 54 1 20 52
M  V30 55 1 20 53
M  V30 56 1 22 54
M  V30 57 1 23 55
M  V30 58 1 28 56
M  V30 59 1 28 57
M  V30 60 1 28 58
M  V30 61 1 29 59
M  V30 62 1 29 60
M  V30 63 1 29 61
M  V30 END BOND
M  V30 END CTAB
M  END
>  <NO.>
1579

>  <Name>
benzquinamide

>  <SMILES>
CCN(CC)C(=O)C1CN2CCc3cc(OC)c(OC)cc3C2CC1OC(C)=O

>  <logBB>


>  <Class>
1

>  <MW>
404.23

>  <nHBAcc>
6

>  <nHBDon>
0

>  <SLogP>
2.42

>  <TopoPSA>
68.31

>  <MMFF94 Energy>
44.062

$$$$
CCN(CC)C(=O)CNC(=O)c1cc(OC)c(OC)c(OC)c1
Actelion Java MolfileCreator 2.0

  0  0  0  0  0  0              0 V3000
M  V30 BEGIN CTAB
M  V30 COUNTS 47 47 0 0 0
M  V30 BEGIN ATOM
M  V30 1 O -1.6386 0.3899 1.7948 0
M  V30 2 C -0.6868 0.0493 1.1009 0
M  V30 3 N -0.2604 0.7741 0.0167 0
M  V30 4 C 0.0466 -1.2132 1.3952 0
M  V30 5 C -0.8877 2.0303 -0.3475 0
M  V30 6 C 1.3917 -1.388 1.0382 0
M  V30 7 C -0.6455 -2.229 2.0721 0
M  V30 8 C -0.2003 2.6062 -1.5908 0
M  V30 9 C 2.0424 -2.5877 1.3317 0
M  V30 10 C -0.0096 -3.4319 2.3787 0
M  V30 11 O 0.8015 2.0501 -2.0556 0
M  V30 12 N -0.7407 3.7594 -2.1555 0
M  V30 13 O 3.3504 -2.8615 1.0245 0
M  V30 14 C 1.3387 -3.5953 2.0159 0
M  V30 15 O -0.5981 -4.4874 3.0257 0
M  V30 16 C -0.1059 4.2969 -3.3603 0
M  V30 17 C -1.9305 4.4455 -1.6426 0
M  V30 18 C 4.0178 -1.9676 0.1436 0
M  V30 19 O 1.9652 -4.7961 2.2709 0
M  V30 20 C -1.9795 -4.3747 3.3413 0
M  V30 21 C -0.5037 3.5484 -4.6241 0
M  V30 22 C -3.2074 4.0124 -2.3432 0
M  V30 23 C 2.5825 -4.7562 3.5565 0
M  V30 24 H 0.4716 0.4466 -0.6045 0
M  V30 25 H -0.7805 2.7224 0.493 0
M  V30 26 H -1.9456 1.8398 -0.548 0
M  V30 27 H 1.9263 -0.5748 0.5617 0
M  V30 28 H -1.682 -2.0511 2.3434 0
M  V30 29 H 0.9815 4.23 -3.2383 0
M  V30 30 H -0.3521 5.3599 -3.4561 0
M  V30 31 H -1.785 5.5263 -1.7499 0
M  V30 32 H -2.0335 4.2544 -0.571 0
M  V30 33 H 3.4713 -1.8525 -0.7983 0
M  V30 34 H 4.9969 -2.397 -0.0895 0
M  V30 35 H 4.1859 -0.9986 0.6246 0
M  V30 36 H -2.1548 -3.565 4.0573 0
M  V30 37 H -2.2912 -5.3103 3.8156 0
M  V30 38 H -2.5832 -4.2429 2.4373 0
M  V30 39 H -1.5782 3.6196 -4.8116 0
M  V30 40 H -0.2484 2.4862 -4.5568 0
M  V30 41 H 0.0178 3.9682 -5.49 0
M  V30 42 H -3.3318 2.9256 -2.311 0
M  V30 43 H -3.2074 4.3213 -3.3921 0
M  V30 44 H -4.0766 4.4725 -1.8625 0
M  V30 45 H 3.347 -3.9732 3.609 0
M  V30 46 H 3.0751 -5.7192 3.7207 0
M  V30 47 H 1.8424 -4.6163 4.3519 0
M  V30 END ATOM
M  V30 BEGIN BOND
M  V30 1 2 1 2
M  V30 2 1 2 3
M  V30 3 1 2 4
M  V30 4 1 3 5
M  V30 5 2 4 6
M  V30 6 1 4 7
M  V30 7 1 5 8
M  V30 8 1 6 9
M  V30 9 2 7 10
M  V30 10 2 8 11
M  V30 11 1 8 12
M  V30 12 1 9 13
M  V30 13 2 9 14
M  V30 14 1 10 15
M  V30 15 1 12 16
M  V30 16 1 12 17
M  V30 17 1 13 18
M  V30 18 1 14 19
M  V30 19 1 15 20
M  V30 20 1 16 21
M  V30 21 1 17 22
M  V30 22 1 19 23
M  V30 23 1 10 14
M  V30 24 1 3 24
M  V30 25 1 5 25
M  V30 26 1 5 26
M  V30 27 1 6 27
M  V30 28 1 7 28
M  V30 29 1 16 29
M  V30 30 1 16 30
M  V30 31 1 17 31
M  V30 32 1 17 32
M  V30 33 1 18 33
M  V30 34 1 18 34
M  V30 35 1 18 35
M  V30 36 1 20 36
M  V30 37 1 20 37
M  V30 38 1 20 38
M  V30 39 1 21 39
M  V30 40 1 21 40
M  V30 41 1 21 41
M  V30 42 1 22 42
M  V30 43 1 22 43
M  V30 44 1 22 44
M  V30 45 1 23 45
M  V30 46 1 23 46
M  V30 47 1 23 47
M  V30 END BOND
M  V30 END CTAB
M  END
>  <NO.>
1580

>  <Name>
tricetamide

>  <SMILES>
CCN(CC)C(=O)CNC(=O)c1cc(OC)c(OC)c(OC)c1

>  <logBB>


>  <Class>
1

>  <MW>
324.17

>  <nHBAcc>
5

>  <nHBDon>
1

>  <SLogP>
1.31

>  <TopoPSA>
77.1

>  <MMFF94 Energy>
52.835

$$$$
CCN(CC)C(=O)N[C@H]1C=C2c3cccc4[nH]cc(c34)C[C@H]2N(C)C1
Actelion Java MolfileCreator 2.0

  0  0  0  0  0  0              0 V3000
M  V30 BEGIN CTAB
M  V30 COUNTS 51 54 0 0 0
M  V30 BEGIN ATOM
M  V30 1 O 3.257 -1.3494 1.7466 0
M  V30 2 C 2.194 -1.7424 1.2687 0
M  V30 3 N 1.7909 -3.0695 1.3202 0
M  V30 4 N 1.3434 -0.8867 0.6322 0
M  V30 5 C 2.6707 -4.0155 2.0085 0
M  V30 6 C 0.5921 -3.6145 0.6757 0
M  V30 7 C 1.629 0.5288 0.5126 0 CFG=1
M  V30 8 C 3.6492 -4.6959 1.0653 0
M  V30 9 C 0.7336 -3.7424 -0.834 0
M  V30 10 C 0.9398 0.9921 -0.7359 0
M  V30 11 C 1.1303 1.3108 1.7515 0
M  V30 12 C -0.1981 1.7113 -0.6981 0
M  V30 13 N -0.3511 1.3397 1.824 0
M  V30 14 C -0.8328 2.1964 -1.9458 0
M  V30 15 C -0.9233 2.0573 0.6436 0 CFG=2
M  V30 16 C -0.758 1.9564 3.0892 0
M  V30 17 C -2.2033 2.4624 -1.8254 0
M  V30 18 C -0.2432 2.4267 -3.1943 0
M  V30 19 C -2.481 1.816 0.5786 0
M  V30 20 C -2.9546 2.9315 -2.8898 0
M  V30 21 C -3.0471 2.3232 -0.7027 0
M  V30 22 C -1.0088 2.9005 -4.2698 0
M  V30 23 N -4.2412 3.078 -2.4169 0
M  V30 24 C -2.3825 3.1633 -4.1423 0
M  V30 25 C -4.3091 2.7105 -1.0895 0
M  V30 26 H 0.3886 -1.1543 0.4691 0
M  V30 27 H 2.0558 -4.7599 2.5266 0
M  V30 28 H 3.2388 -3.4894 2.7843 0
M  V30 29 H -0.2628 -2.9737 0.9149 0
M  V30 30 H 0.3692 -4.5969 1.107 0
M  V30 31 H 2.7101 0.6792 0.4116 0
M  V30 32 H 4.2412 -3.9607 0.5106 0
M  V30 33 H 3.1267 -5.326 0.3398 0
M  V30 34 H 4.3359 -5.335 1.6293 0
M  V30 35 H 1.5594 -4.4071 -1.1018 0
M  V30 36 H 0.9222 -2.7745 -1.3078 0
M  V30 37 H -0.1848 -4.1545 -1.2638 0
M  V30 38 H 1.4194 0.7229 -1.6712 0
M  V30 39 H 1.5333 0.8299 2.6522 0
M  V30 40 H 1.5274 2.3352 1.726 0
M  V30 41 H -0.7608 3.1384 0.7818 0
M  V30 42 H -0.3105 1.4245 3.9368 0
M  V30 43 H -0.4596 3.0091 3.1516 0
M  V30 44 H -1.84 1.8912 3.237 0
M  V30 45 H 0.8185 2.2527 -3.343 0
M  V30 46 H -2.6948 0.7422 0.657 0
M  V30 47 H -2.9817 2.3196 1.413 0
M  V30 48 H -0.5244 3.0725 -5.2293 0
M  V30 49 H -5.0216 3.4048 -2.9694 0
M  V30 50 H -2.9642 3.5303 -4.9808 0
M  V30 51 H -5.2467 2.7559 -0.5518 0
M  V30 END ATOM
M  V30 BEGIN BOND
M  V30 1 2 1 2
M  V30 2 1 2 3
M  V30 3 1 2 4
M  V30 4 1 3 5
M  V30 5 1 3 6
M  V30 6 1 4 7
M  V30 7 1 5 8
M  V30 8 1 6 9
M  V30 9 1 7 10
M  V30 10 1 7 11
M  V30 11 2 10 12
M  V30 12 1 11 13
M  V30 13 1 12 14
M  V30 14 1 12 15
M  V30 15 1 13 16
M  V30 16 2 14 17
M  V30 17 1 14 18
M  V30 18 1 15 19
M  V30 19 1 17 20
M  V30 20 1 17 21
M  V30 21 2 18 22
M  V30 22 1 20 23
M  V30 23 2 20 24
M  V30 24 2 21 25
M  V30 25 1 13 15
M  V30 26 1 19 21
M  V30 27 1 22 24
M  V30 28 1 23 25
M  V30 29 1 4 26
M  V30 30 1 5 27
M  V30 31 1 5 28
M  V30 32 1 6 29
M  V30 33 1 6 30
M  V30 34 1 7 31
M  V30 35 1 8 32
M  V30 36 1 8 33
M  V30 37 1 8 34
M  V30 38 1 9 35
M  V30 39 1 9 36
M  V30 40 1 9 37
M  V30 41 1 10 38
M  V30 42 1 11 39
M  V30 43 1 11 40
M  V30 44 1 15 41
M  V30 45 1 16 42
M  V30 46 1 16 43
M  V30 47 1 16 44
M  V30 48 1 18 45
M  V30 49 1 19 46
M  V30 50 1 19 47
M  V30 51 1 22 48
M  V30 52 1 23 49
M  V30 53 1 24 50
M  V30 54 1 25 51
M  V30 END BOND
M  V30 BEGIN COLLECTION
M  V30 MDLV30/STEABS ATOMS=(2 7 15)
M  V30 END COLLECTION
M  V30 END CTAB
M  END
>  <NO.>
1583

>  <Name>
lisuride

>  <SMILES>
CCN(CC)C(=O)N[C@H]1C=C2c3cccc4[nH]cc(c34)C[C@H]2N(C)C1

>  <logBB>


>  <Class>
1

>  <MW>
338.21

>  <nHBAcc>
2

>  <nHBDon>
2

>  <SLogP>
2.84

>  <TopoPSA>
51.37

>  <MMFF94 Energy>
-8.3886

$$$$
CCN(CC)C(=O)N[C@H]1C[C@@H]2c3cccc4[nH]cc(c34)C[C@H]2N(C)C1
Actelion Java MolfileCreator 2.0

  0  0  0  0  0  0              0 V3000
M  V30 BEGIN CTAB
M  V30 COUNTS 53 56 0 0 0
M  V30 BEGIN ATOM
M  V30 1 O -0.2379 -2.7786 -2.3813 0
M  V30 2 C 0.0165 -2.6605 -1.1841 0
M  V30 3 N -0.3227 -3.6236 -0.2442 0
M  V30 4 N 0.666 -1.5615 -0.7028 0
M  V30 5 C -1.0159 -4.8193 -0.7271 0
M  V30 6 C -1.0E-4 -3.565 1.1842 0
M  V30 7 C 1.0743 -0.4429 -1.5474 0 CFG=2
M  V30 8 C -0.0589 -5.9429 -1.0901 0
M  V30 9 C 1.4527 -3.9068 1.4802 0
M  V30 10 C 2.3029 0.2504 -0.9353 0
M  V30 11 C -0.0709 0.559 -1.7119 0
M  V30 12 N 1.996 0.8408 0.3901 0
M  V30 13 C -0.3849 1.2758 -0.3877 0 CFG=1
M  V30 14 C 0.9447 1.8941 0.2417 0 CFG=1
M  V30 15 C 3.2359 1.3672 0.9699 0
M  V30 16 C -1.4693 2.3334 -0.5206 0
M  V30 17 C 0.6475 2.6604 1.5908 0
M  V30 18 C -1.435 3.3877 0.4002 0
M  V30 19 C -2.5484 2.3289 -1.4145 0
M  V30 20 C -0.4858 3.6156 1.4163 0
M  V30 21 C -2.3796 4.3948 0.425 0
M  V30 22 C -3.5077 3.3543 -1.3941 0
M  V30 23 C -0.8614 4.7703 2.063 0
M  V30 24 N -2.0094 5.2351 1.4526 0
M  V30 25 C -3.4441 4.4149 -0.4756 0
M  V30 26 H 0.8166 -1.4357 0.2849 0
M  V30 27 H -1.6094 -4.5643 -1.6126 0
M  V30 28 H -1.7277 -5.153 0.036 0
M  V30 29 H -0.6576 -4.2512 1.7294 0
M  V30 30 H -0.2278 -2.5613 1.5584 0
M  V30 31 H 1.3439 -0.8405 -2.5331 0
M  V30 32 H 0.477 -6.3069 -0.2092 0
M  V30 33 H 0.6823 -5.6107 -1.8239 0
M  V30 34 H -0.6107 -6.7861 -1.5172 0
M  V30 35 H 2.1425 -3.2332 0.9631 0
M  V30 36 H 1.6929 -4.9269 1.1689 0
M  V30 37 H 1.6457 -3.8285 2.5548 0
M  V30 38 H 2.6799 1.0178 -1.6244 0
M  V30 39 H 3.0946 -0.5016 -0.8211 0
M  V30 40 H 0.2051 1.299 -2.4749 0
M  V30 41 H -0.9602 0.0369 -2.0847 0
M  V30 42 H -0.7752 0.5327 0.3231 0
M  V30 43 H 1.3157 2.6515 -0.4682 0
M  V30 44 H 3.0907 1.6595 2.0144 0
M  V30 45 H 3.6224 2.2262 0.4102 0
M  V30 46 H 4.0126 0.5937 0.9886 0
M  V30 47 H 1.53 3.2237 1.9135 0
M  V30 48 H 0.395 1.9404 2.3788 0
M  V30 49 H -2.6654 1.5252 -2.1369 0
M  V30 50 H -4.3298 3.3218 -2.1068 0
M  V30 51 H -0.4254 5.3065 2.895 0
M  V30 52 H -2.5125 6.0693 1.7204 0
M  V30 53 H -4.1934 5.1981 -0.4665 0
M  V30 END ATOM
M  V30 BEGIN BOND
M  V30 1 2 1 2
M  V30 2 1 2 3
M  V30 3 1 2 4
M  V30 4 1 3 5
M  V30 5 1 3 6
M  V30 6 1 4 7
M  V30 7 1 5 8
M  V30 8 1 6 9
M  V30 9 1 7 10
M  V30 10 1 7 11
M  V30 11 1 10 12
M  V30 12 1 11 13
M  V30 13 1 12 14
M  V30 14 1 12 15
M  V30 15 1 13 16
M  V30 16 1 14 17
M  V30 17 2 16 18
M  V30 18 1 16 19
M  V30 19 1 17 20
M  V30 20 1 18 21
M  V30 21 2 19 22
M  V30 22 2 20 23
M  V30 23 1 21 24
M  V30 24 2 21 25
M  V30 25 1 13 14
M  V30 26 1 18 20
M  V30 27 1 22 25
M  V30 28 1 23 24
M  V30 29 1 4 26
M  V30 30 1 5 27
M  V30 31 1 5 28
M  V30 32 1 6 29
M  V30 33 1 6 30
M  V30 34 1 7 31
M  V30 35 1 8 32
M  V30 36 1 8 33
M  V30 37 1 8 34
M  V30 38 1 9 35
M  V30 39 1 9 36
M  V30 40 1 9 37
M  V30 41 1 10 38
M  V30 42 1 10 39
M  V30 43 1 11 40
M  V30 44 1 11 41
M  V30 45 1 13 42
M  V30 46 1 14 43
M  V30 47 1 15 44
M  V30 48 1 15 45
M  V30 49 1 15 46
M  V30 50 1 17 47
M  V30 51 1 17 48
M  V30 52 1 19 49
M  V30 53 1 22 50
M  V30 54 1 23 51
M  V30 55 1 24 52
M  V30 56 1 25 53
M  V30 END BOND
M  V30 BEGIN COLLECTION
M  V30 MDLV30/STEABS ATOMS=(3 7 13 14)
M  V30 END COLLECTION
M  V30 END CTAB
M  END
>  <NO.>
1584

>  <Name>
terguride

>  <SMILES>
CCN(CC)C(=O)N[C@H]1C[C@@H]2c3cccc4[nH]cc(c34)C[C@H]2N(C)C1

>  <logBB>


>  <Class>
1

>  <MW>
340.23

>  <nHBAcc>
2

>  <nHBDon>
2

>  <SLogP>
2.93

>  <TopoPSA>
51.37

>  <MMFF94 Energy>
-11.371

$$$$
CCN(CC)C(=O)[C@@H]1[C@@H]2C=C[C@@H](C2)[C@H]1C(=O)N(CC)CC
Actelion Java MolfileCreator 2.0

  0  0  0  0  0  0              0 V3000
M  V30 BEGIN CTAB
M  V30 COUNTS 49 50 0 0 0
M  V30 BEGIN ATOM
M  V30 1 O -2.2064 1.5756 -1.7333 0
M  V30 2 C -1.0587 1.1307 -1.6397 0
M  V30 3 N 0.0364 1.9046 -2.0173 0
M  V30 4 C -0.8191 -0.2713 -1.0723 0 CFG=1
M  V30 5 C 1.4258 1.4412 -2.0386 0
M  V30 6 C -0.2292 3.2535 -2.5262 0
M  V30 7 C -0.6102 -0.227 0.487 0 CFG=2
M  V30 8 C -2.1006 -1.1462 -1.2013 0 CFG=1
M  V30 9 C 1.7991 0.731 -3.3296 0
M  V30 10 C -0.6219 3.2707 -3.9959 0
M  V30 11 C 0.7673 -0.6929 0.9538 0
M  V30 12 C -1.7355 -1.1697 1.0014 0 CFG=1
M  V30 13 C -1.7172 -2.5623 -0.8289 0
M  V30 14 C -2.8843 -0.7895 0.0685 0
M  V30 15 O 1.5545 -1.2198 0.1628 0
M  V30 16 N 1.1183 -0.5026 2.2912 0
M  V30 17 C -1.4989 -2.5764 0.4946 0
M  V30 18 C 0.3023 0.1743 3.3061 0
M  V30 19 C 2.4422 -0.9748 2.7094 0
M  V30 20 C -0.1524 -0.7523 4.4233 0
M  V30 21 C 2.4827 -2.4791 2.9417 0
M  V30 22 H -4.0E-4 -0.7489 -1.6166 0
M  V30 23 H 1.5918 0.7723 -1.1978 0
M  V30 24 H 2.0891 2.2983 -1.8766 0
M  V30 25 H 0.6513 3.8835 -2.3604 0
M  V30 26 H -1.044 3.6948 -1.9397 0
M  V30 27 H -0.7716 0.8016 0.8291 0
M  V30 28 H -2.6693 -1.0556 -2.1283 0
M  V30 29 H 1.7943 1.4213 -4.1771 0
M  V30 30 H 1.1061 -0.0839 -3.559 0
M  V30 31 H 2.8072 0.3119 -3.2503 0
M  V30 32 H -1.493 2.6357 -4.1854 0
M  V30 33 H 0.1932 2.9178 -4.6323 0
M  V30 34 H -0.8704 4.2905 -4.3067 0
M  V30 35 H -1.9852 -1.1089 2.06 0
M  V30 36 H -1.5833 -3.3839 -1.5161 0
M  V30 37 H -3.1681 0.2641 0.1484 0
M  V30 38 H -3.7847 -1.4022 0.2101 0
M  V30 39 H -1.1524 -3.4135 1.082 0
M  V30 40 H -0.5774 0.6392 2.8607 0
M  V30 41 H 0.9035 0.9919 3.7211 0
M  V30 42 H 2.7444 -0.4441 3.6192 0
M  V30 43 H 3.1707 -0.7131 1.9328 0
M  V30 44 H 0.6958 -1.1015 5.02 0
M  V30 45 H -0.67 -1.6307 4.0261 0
M  V30 46 H -0.8348 -0.2248 5.0973 0
M  V30 47 H 2.2283 -3.0317 2.0319 0
M  V30 48 H 1.7775 -2.7845 3.7198 0
M  V30 49 H 3.4861 -2.7851 3.2538 0
M  V30 END ATOM
M  V30 BEGIN BOND
M  V30 1 2 1 2
M  V30 2 1 2 3
M  V30 3 1 2 4
M  V30 4 1 3 5
M  V30 5 1 3 6
M  V30 6 1 4 7
M  V30 7 1 4 8
M  V30 8 1 5 9
M  V30 9 1 6 10
M  V30 10 1 7 11
M  V30 11 1 7 12
M  V30 12 1 8 13
M  V30 13 1 8 14
M  V30 14 2 11 15
M  V30 15 1 11 16
M  V30 16 1 12 17
M  V30 17 1 16 18
M  V30 18 1 16 19
M  V30 19 1 18 20
M  V30 20 1 19 21
M  V30 21 1 12 14
M  V30 22 2 13 17
M  V30 23 1 4 22
M  V30 24 1 5 23
M  V30 25 1 5 24
M  V30 26 1 6 25
M  V30 27 1 6 26
M  V30 28 1 7 27
M  V30 29 1 8 28
M  V30 30 1 9 29
M  V30 31 1 9 30
M  V30 32 1 9 31
M  V30 33 1 10 32
M  V30 34 1 10 33
M  V30 35 1 10 34
M  V30 36 1 12 35
M  V30 37 1 13 36
M  V30 38 1 14 37
M  V30 39 1 14 38
M  V30 40 1 17 39
M  V30 41 1 18 40
M  V30 42 1 18 41
M  V30 43 1 19 42
M  V30 44 1 19 43
M  V30 45 1 20 44
M  V30 46 1 20 45
M  V30 47 1 20 46
M  V30 48 1 21 47
M  V30 49 1 21 48
M  V30 50 1 21 49
M  V30 END BOND
M  V30 BEGIN COLLECTION
M  V30 MDLV30/STEABS ATOMS=(4 4 7 8 12)
M  V30 END COLLECTION
M  V30 END CTAB
M  END
>  <NO.>
1585

>  <Name>
endomid

>  <SMILES>
CCN(CC)C(=O)[C@@H]1[C@@H]2C=C[C@@H](C2)[C@H]1C(=O)N(CC)CC

>  <logBB>


>  <Class>
1

>  <MW>
292.22

>  <nHBAcc>
2

>  <nHBDon>
0

>  <SLogP>
2.16

>  <TopoPSA>
40.62

>  <MMFF94 Energy>
-2.8887

$$$$
CCN(CC)C(=O)[C@]1(c2ccccc2)C[C@@H]1CN
Actelion Java MolfileCreator 2.0

  0  0  0  0  0  0              0 V3000
M  V30 BEGIN CTAB
M  V30 COUNTS 40 41 0 0 0
M  V30 BEGIN ATOM
M  V30 1 O -0.3135 -2.0397 0.0 0
M  V30 2 C 0.2228 -0.9585 -0.2323 0
M  V30 3 N 0.9845 -0.7446 -1.3871 0
M  V30 4 C 0.0263 0.1855 0.7468 0 CFG=1
M  V30 5 C 1.4495 0.5579 -1.8615 0
M  V30 6 C 1.2772 -1.9052 -2.2279 0
M  V30 7 C -1.2511 1.0091 0.5318 0
M  V30 8 C 0.3673 -0.0449 2.2396 0 CFG=2
M  V30 9 C 1.258 0.816 1.3943 0
M  V30 10 C 0.5456 1.1235 -2.9484 0
M  V30 11 C 2.5514 -2.6044 -1.7796 0
M  V30 12 C -2.5122 0.4454 0.8008 0
M  V30 13 C -1.2256 2.3536 0.1211 0
M  V30 14 C 0.8905 -1.3344 2.7818 0
M  V30 15 C -3.6917 1.1769 0.6428 0
M  V30 16 C -2.4025 3.0913 -0.0389 0
M  V30 17 N -0.201 -2.0324 3.4404 0
M  V30 18 C -3.6359 2.5011 0.2204 0
M  V30 19 H 2.4711 0.4417 -2.2397 0
M  V30 20 H 1.4933 1.2795 -1.0471 0
M  V30 21 H 1.3729 -1.5865 -3.2708 0
M  V30 22 H 0.4437 -2.6148 -2.1852 0
M  V30 23 H -0.2227 0.4846 2.9828 0
M  V30 24 H 1.2618 1.8795 1.6024 0
M  V30 25 H 2.2352 0.4258 1.1293 0
M  V30 26 H -0.4899 1.1992 -2.6035 0
M  V30 27 H 0.55 0.4918 -3.8418 0
M  V30 28 H 0.885 2.1219 -3.2413 0
M  V30 29 H 2.4662 -2.9547 -0.7457 0
M  V30 30 H 3.4106 -1.9278 -1.8326 0
M  V30 31 H 2.756 -3.4688 -2.4185 0
M  V30 32 H -2.5688 -0.5903 1.1372 0
M  V30 33 H -0.2751 2.839 -0.0835 0
M  V30 34 H 1.6798 -1.1314 3.514 0
M  V30 35 H 1.3297 -1.9675 2.0056 0
M  V30 36 H -4.6495 0.7082 0.8523 0
M  V30 37 H -2.354 4.1272 -0.3637 0
M  V30 38 H -0.4585 -1.546 4.2957 0
M  V30 39 H 0.1104 -2.9619 3.7134 0
M  V30 40 H -4.552 3.0722 0.0969 0
M  V30 END ATOM
M  V30 BEGIN BOND
M  V30 1 2 1 2
M  V30 2 1 2 3
M  V30 3 1 2 4
M  V30 4 1 3 5
M  V30 5 1 3 6
M  V30 6 1 4 7
M  V30 7 1 4 8
M  V30 8 1 4 9
M  V30 9 1 5 10
M  V30 10 1 6 11
M  V30 11 2 7 12
M  V30 12 1 7 13
M  V30 13 1 8 14
M  V30 14 1 12 15
M  V30 15 2 13 16
M  V30 16 1 14 17
M  V30 17 2 15 18
M  V30 18 1 8 9
M  V30 19 1 16 18
M  V30 20 1 5 19
M  V30 21 1 5 20
M  V30 22 1 6 21
M  V30 23 1 6 22
M  V30 24 1 8 23
M  V30 25 1 9 24
M  V30 26 1 9 25
M  V30 27 1 10 26
M  V30 28 1 10 27
M  V30 29 1 10 28
M  V30 30 1 11 29
M  V30 31 1 11 30
M  V30 32 1 11 31
M  V30 33 1 12 32
M  V30 34 1 13 33
M  V30 35 1 14 34
M  V30 36 1 14 35
M  V30 37 1 15 36
M  V30 38 1 16 37
M  V30 39 1 17 38
M  V30 40 1 17 39
M  V30 41 1 18 40
M  V30 END BOND
M  V30 BEGIN COLLECTION
M  V30 MDLV30/STEABS ATOMS=(2 4 8)
M  V30 END COLLECTION
M  V30 END CTAB
M  END
>  <NO.>
1586

>  <Name>
milnacipran

>  <SMILES>
CCN(CC)C(=O)[C@]1(c2ccccc2)C[C@@H]1CN

>  <logBB>


>  <Class>
1

>  <MW>
246.17

>  <nHBAcc>
2

>  <nHBDon>
1

>  <SLogP>
1.77

>  <TopoPSA>
46.33

>  <MMFF94 Energy>
19.559

$$$$
CCN(CC)C(=O)c1cccnc1
Actelion Java MolfileCreator 2.0

  0  0  0  0  0  0              0 V3000
M  V30 BEGIN CTAB
M  V30 COUNTS 27 27 0 0 0
M  V30 BEGIN ATOM
M  V30 1 O 0.1556 1.4018 -1.9474 0
M  V30 2 C 0.1691 0.6743 -0.9574 0
M  V30 3 N -0.9287 0.4874 -0.1147 0
M  V30 4 C 1.4198 -0.0405 -0.6745 0
M  V30 5 C -1.0039 -0.5146 0.9552 0
M  V30 6 C -2.1417 1.2522 -0.4083 0
M  V30 7 C 1.8534 -1.0192 -1.5549 0
M  V30 8 C 2.2148 0.2761 0.4253 0
M  V30 9 C -0.9168 0.1053 2.3417 0
M  V30 10 C -3.0451 0.5317 -1.398 0
M  V30 11 N 2.9943 -1.7293 -1.3763 0
M  V30 12 C 3.3982 -0.4301 0.6241 0
M  V30 13 C 3.7396 -1.4159 -0.2918 0
M  V30 14 H -0.2092 -1.2565 0.8403 0
M  V30 15 H -1.9505 -1.0562 0.8491 0
M  V30 16 H -1.8616 2.2264 -0.8253 0
M  V30 17 H -2.6804 1.4457 0.5247 0
M  V30 18 H 1.2833 -1.2697 -2.4452 0
M  V30 19 H 1.9271 1.0711 1.1061 0
M  V30 20 H -1.7566 0.7811 2.5309 0
M  V30 21 H 0.0042 0.6811 2.4663 0
M  V30 22 H -0.9374 -0.677 3.1068 0
M  V30 23 H -3.374 -0.4348 -1.0038 0
M  V30 24 H -2.5266 0.3466 -2.3443 0
M  V30 25 H -3.9344 1.1342 -1.6077 0
M  V30 26 H 4.0453 -0.2125 1.4668 0
M  V30 27 H 4.6539 -1.9923 -0.1781 0
M  V30 END ATOM
M  V30 BEGIN BOND
M  V30 1 2 1 2
M  V30 2 1 2 3
M  V30 3 1 2 4
M  V30 4 1 3 5
M  V30 5 1 3 6
M  V30 6 2 4 7
M  V30 7 1 4 8
M  V30 8 1 5 9
M  V30 9 1 6 10
M  V30 10 1 7 11
M  V30 11 2 8 12
M  V30 12 2 11 13
M  V30 13 1 12 13
M  V30 14 1 5 14
M  V30 15 1 5 15
M  V30 16 1 6 16
M  V30 17 1 6 17
M  V30 18 1 7 18
M  V30 19 1 8 19
M  V30 20 1 9 20
M  V30 21 1 9 21
M  V30 22 1 9 22
M  V30 23 1 10 23
M  V30 24 1 10 24
M  V30 25 1 10 25
M  V30 26 1 12 26
M  V30 27 1 13 27
M  V30 END BOND
M  V30 END CTAB
M  END
>  <NO.>
1587

>  <Name>
nikethamide

>  <SMILES>
CCN(CC)C(=O)c1cccnc1

>  <logBB>


>  <Class>
1

>  <MW>
178.11

>  <nHBAcc>
2

>  <nHBDon>
0

>  <SLogP>
1.56

>  <TopoPSA>
33.2

>  <MMFF94 Energy>
20.709

$$$$
CCN(CC)CC(=O)OCC(=O)C1(O)CCC2C3CCC4=CC(=O)C=CC4(C)C3C(O)CC21C
Actelion Java MolfileCreator 2.0

  0  0  0  0  0  0              0 V3000
M  V30 BEGIN CTAB
M  V30 COUNTS 73 76 0 0 0
M  V30 BEGIN ATOM
M  V30 1 O -0.4802 5.7744 -6.4176 0
M  V30 2 C 0.1038 4.983 -5.6884 0
M  V30 3 C 0.2954 5.2583 -4.252 0
M  V30 4 C 0.6419 3.7141 -6.2033 0
M  V30 5 C 0.9488 4.4054 -3.4418 0
M  V30 6 C 1.2961 2.8667 -5.3982 0
M  V30 7 C 1.5686 3.0749 -3.9099 0
M  V30 8 C 1.0472 4.7103 -1.9718 0
M  V30 9 C 0.9663 1.8966 -3.0276 0
M  V30 10 C 3.1057 3.1686 -3.7719 0
M  V30 11 C 0.3801 3.5955 -1.1823 0
M  V30 12 C 1.6189 0.5005 -3.2388 0
M  V30 13 C 1.0062 2.2286 -1.5004 0
M  V30 14 O 1.5052 0.0772 -4.5943 0
M  V30 15 C 0.9543 -0.584 -2.3799 0
M  V30 16 C 0.3836 1.1342 -0.6067 0
M  V30 17 C 0.9354 -0.2819 -0.8608 0
M  V30 18 C -1.1434 0.9742 -0.7196 0
M  V30 19 C -0.1073 -1.1766 -0.1185 0
M  V30 20 C 2.3611 -0.4516 -0.305 0
M  V30 21 C -1.4546 -0.4986 -0.4328 0
M  V30 22 O -0.1154 -2.4906 -0.665 0
M  V30 23 C 0.103 -1.2202 1.423 0
M  V30 24 O -0.3265 -0.335 2.1699 0
M  V30 25 C 0.8711 -2.4128 1.9981 0
M  V30 26 O 0.1434 -3.1167 3.0032 0
M  V30 27 C -1.0383 -3.6521 2.5841 0
M  V30 28 O -1.4304 -3.6314 1.4196 0
M  V30 29 C -1.8005 -4.3205 3.7258 0
M  V30 30 N -1.8616 -3.4722 4.944 0
M  V30 31 C -2.3896 -4.2374 6.0887 0
M  V30 32 C -2.6804 -2.2676 4.6912 0
M  V30 33 C -1.3928 -5.263 6.6215 0
M  V30 34 C -2.3927 -1.1535 5.6932 0
M  V30 35 H -0.1455 6.1839 -3.8995 0
M  V30 36 H 0.4919 3.5153 -7.2571 0
M  V30 37 H 1.6942 1.9672 -5.8599 0
M  V30 38 H 2.0969 4.8177 -1.6767 0
M  V30 39 H 0.5606 5.6618 -1.7241 0
M  V30 40 H -0.0872 1.8075 -3.3321 0
M  V30 41 H 3.6078 2.3015 -4.2168 0
M  V30 42 H 3.431 3.229 -2.7288 0
M  V30 43 H 3.497 4.0582 -4.2825 0
M  V30 44 H 0.4788 3.81 -0.111 0
M  V30 45 H -0.6941 3.5862 -1.4058 0
M  V30 46 H 2.6875 0.5478 -3.008 0
M  V30 47 H 2.0636 2.2933 -1.209 0
M  V30 48 H 1.8578 -0.8278 -4.6579 0
M  V30 49 H 1.4592 -1.5428 -2.5622 0
M  V30 50 H -0.064 -0.7347 -2.7627 0
M  V30 51 H 0.6002 1.4137 0.4346 0
M  V30 52 H -1.6529 1.6262 -0.001 0
M  V30 53 H -1.5208 1.2373 -1.7128 0
M  V30 54 H 2.6886 -1.4941 -0.3825 0
M  V30 55 H 3.0895 0.1624 -0.8426 0
M  V30 56 H 2.4268 -0.1547 0.7469 0
M  V30 57 H -1.9342 -0.954 -1.3082 0
M  V30 58 H -2.1752 -0.5925 0.3877 0
M  V30 59 H -0.8514 -2.9805 -0.2329 0
M  V30 60 H 1.2018 -3.1126 1.2258 0
M  V30 61 H 1.7793 -2.0152 2.464 0
M  V30 62 H -1.273 -5.261 3.9135 0
M  V30 63 H -2.8107 -4.565 3.375 0
M  V30 64 H -2.6082 -3.5653 6.9253 0
M  V30 65 H -3.3341 -4.7327 5.8304 0
M  V30 66 H -2.4554 -1.8508 3.7026 0
M  V30 67 H -3.7505 -2.5104 4.6892 0
M  V30 68 H -1.7722 -5.7005 7.5512 0
M  V30 69 H -0.4272 -4.7959 6.8424 0
M  V30 70 H -1.2286 -6.0851 5.9195 0
M  V30 71 H -2.93 -0.2446 5.4019 0
M  V30 72 H -1.324 -0.9151 5.7186 0
M  V30 73 H -2.7135 -1.4114 6.7063 0
M  V30 END ATOM
M  V30 BEGIN BOND
M  V30 1 2 1 2
M  V30 2 1 2 3
M  V30 3 1 2 4
M  V30 4 2 3 5
M  V30 5 2 4 6
M  V30 6 1 5 7
M  V30 7 1 5 8
M  V30 8 1 7 9
M  V30 9 1 7 10
M  V30 10 1 8 11
M  V30 11 1 9 12
M  V30 12 1 9 13
M  V30 13 1 12 14
M  V30 14 1 12 15
M  V30 15 1 13 16
M  V30 16 1 15 17
M  V30 17 1 16 18
M  V30 18 1 17 19
M  V30 19 1 17 20
M  V30 20 1 18 21
M  V30 21 1 19 22
M  V30 22 1 19 23
M  V30 23 2 23 24
M  V30 24 1 23 25
M  V30 25 1 25 26
M  V30 26 1 26 27
M  V30 27 2 27 28
M  V30 28 1 27 29
M  V30 29 1 29 30
M  V30 30 1 30 31
M  V30 31 1 30 32
M  V30 32 1 31 33
M  V30 33 1 32 34
M  V30 34 1 6 7
M  V30 35 1 11 13
M  V30 36 1 16 17
M  V30 37 1 19 21
M  V30 38 1 3 35
M  V30 39 1 4 36
M  V30 40 1 6 37
M  V30 41 1 8 38
M  V30 42 1 8 39
M  V30 43 1 9 40
M  V30 44 1 10 41
M  V30 45 1 10 42
M  V30 46 1 10 43
M  V30 47 1 11 44
M  V30 48 1 11 45
M  V30 49 1 12 46
M  V30 50 1 13 47
M  V30 51 1 14 48
M  V30 52 1 15 49
M  V30 53 1 15 50
M  V30 54 1 16 51
M  V30 55 1 18 52
M  V30 56 1 18 53
M  V30 57 1 20 54
M  V30 58 1 20 55
M  V30 59 1 20 56
M  V30 60 1 21 57
M  V30 61 1 21 58
M  V30 62 1 22 59
M  V30 63 1 25 60
M  V30 64 1 25 61
M  V30 65 1 29 62
M  V30 66 1 29 63
M  V30 67 1 31 64
M  V30 68 1 31 65
M  V30 69 1 32 66
M  V30 70 1 32 67
M  V30 71 1 33 68
M  V30 72 1 33 69
M  V30 73 1 33 70
M  V30 74 1 34 71
M  V30 75 1 34 72
M  V30 76 1 34 73
M  V30 END BOND
M  V30 END CTAB
M  END
>  <NO.>
1591

>  <Name>
prednisolamate

>  <SMILES>
CCN(CC)CC(=O)OCC(=O)C1(O)CCC2C3CCC4=CC(=O)C=CC4(C)C3C(O)CC21C

>  <logBB>


>  <Class>
1

>  <MW>
473.28

>  <nHBAcc>
7

>  <nHBDon>
2

>  <SLogP>
2.45

>  <TopoPSA>
104.14

>  <MMFF94 Energy>
151.87

$$$$
CCN(CC)CC(=O)OCC(=O)[C@@]1(O)CC[C@H]2[C@@H]3CCC4=CC(=O)CC[C@]4(C)[C@H]3[C@@H](O)C[C@@]21C
Actelion Java MolfileCreator 2.0

  0  0  0  0  0  0              0 V3000
M  V30 BEGIN CTAB
M  V30 COUNTS 75 78 0 0 0
M  V30 BEGIN ATOM
M  V30 1 O 0.3998 -4.5656 -6.332 0
M  V30 2 C -0.0279 -3.8027 -5.4698 0
M  V30 3 C -1.2313 -4.1784 -4.6912 0
M  V30 4 C 0.6884 -2.5341 -5.0826 0
M  V30 5 C -1.7666 -3.3365 -3.7896 0
M  V30 6 C -0.3273 -1.4681 -4.7105 0
M  V30 7 C -1.2935 -1.8918 -3.5671 0 CFG=2
M  V30 8 C -2.7982 -3.8302 -2.8069 0
M  V30 9 C -0.6153 -1.8936 -2.1453 0 CFG=1
M  V30 10 C -2.5045 -0.9298 -3.6729 0
M  V30 11 C -2.204 -3.7845 -1.3989 0
M  V30 12 C 0.0998 -0.577 -1.7297 0 CFG=1
M  V30 13 C -1.6042 -2.4086 -1.0354 0 CFG=1
M  V30 14 O -0.7781 0.5335 -1.831 0
M  V30 15 C 0.7107 -0.6395 -0.3129 0
M  V30 16 C -0.8478 -2.4795 0.2993 0 CFG=1
M  V30 17 C -0.2825 -1.1168 0.7662 0 CFG=1
M  V30 18 C -1.582 -3.0016 1.5299 0
M  V30 19 C 0.3399 -1.5476 2.1331 0 CFG=1
M  V30 20 C -1.3895 -0.0521 1.0015 0
M  V30 21 C -0.7392 -2.5027 2.7218 0
M  V30 22 O 1.53 -2.3182 1.9143 0
M  V30 23 C 0.6785 -0.3684 3.0716 0
M  V30 24 O -0.1157 0.0456 3.9208 0
M  V30 25 C 2.0672 0.2533 2.9169 0
M  V30 26 O 2.1616 1.5328 3.5435 0
M  V30 27 C 1.6185 2.5516 2.8095 0
M  V30 28 O 1.1631 2.4156 1.6807 0
M  V30 29 C 1.6398 3.8386 3.6343 0
M  V30 30 N 1.6884 5.0472 2.773 0
M  V30 31 C 3.0727 5.4519 2.4612 0
M  V30 32 C 0.9706 6.173 3.3961 0
M  V30 33 C 3.8669 4.4294 1.6562 0
M  V30 34 C -0.5441 6.017 3.2948 0
M  V30 35 H -1.5717 -5.1992 -4.8231 0
M  V30 36 H 1.3768 -2.7493 -4.2596 0
M  V30 37 H 1.2753 -2.1906 -5.9413 0
M  V30 38 H 0.1878 -0.5327 -4.4694 0
M  V30 39 H -0.9165 -1.2498 -5.614 0
M  V30 40 H -3.7081 -3.2235 -2.8633 0
M  V30 41 H -3.1045 -4.8593 -3.0305 0
M  V30 42 H 0.1919 -2.643 -2.1872 0
M  V30 43 H -3.1029 -1.1541 -4.5652 0
M  V30 44 H -2.1858 0.1131 -3.7694 0
M  V30 45 H -3.1803 -0.9854 -2.816 0
M  V30 46 H -1.4256 -4.555 -1.3165 0
M  V30 47 H -2.9855 -4.0527 -0.678 0
M  V30 48 H 0.9244 -0.3851 -2.4246 0
M  V30 49 H -2.4414 -1.7113 -0.9368 0
M  V30 50 H -0.314 1.3191 -1.4879 0
M  V30 51 H 1.5724 -1.3168 -0.3542 0
M  V30 52 H 1.0991 0.3482 -0.0443 0
M  V30 53 H -0.0052 -3.1705 0.1333 0
M  V30 54 H -2.601 -2.6027 1.5895 0
M  V30 55 H -1.655 -4.094 1.5287 0
M  V30 56 H -2.0544 0.0762 0.1458 0
M  V30 57 H -2.0362 -0.2965 1.8502 0
M  V30 58 H -0.9479 0.927 1.2108 0
M  V30 59 H -1.4008 -2.0062 3.4398 0
M  V30 60 H -0.288 -3.3569 3.2392 0
M  V30 61 H 1.6941 -2.8609 2.7067 0
M  V30 62 H 2.7801 -0.4055 3.4231 0
M  V30 63 H 2.3632 0.3129 1.8661 0
M  V30 64 H 2.4864 3.8261 4.3314 0
M  V30 65 H 0.7264 3.8013 4.2375 0
M  V30 66 H 3.0441 6.3667 1.8553 0
M  V30 67 H 3.6218 5.6979 3.3791 0
M  V30 68 H 1.2728 6.3066 4.4423 0
M  V30 69 H 1.2176 7.1064 2.8742 0
M  V30 70 H 4.8222 4.865 1.3444 0
M  V30 71 H 3.3275 4.1312 0.7514 0
M  V30 72 H 4.0954 3.5357 2.2436 0
M  V30 73 H -1.0363 6.9187 3.6746 0
M  V30 74 H -0.9171 5.1704 3.8775 0
M  V30 75 H -0.8552 5.8809 2.2536 0
M  V30 END ATOM
M  V30 BEGIN BOND
M  V30 1 2 1 2
M  V30 2 1 2 3
M  V30 3 1 2 4
M  V30 4 2 3 5
M  V30 5 1 4 6
M  V30 6 1 5 7
M  V30 7 1 5 8
M  V30 8 1 7 9
M  V30 9 1 7 10
M  V30 10 1 8 11
M  V30 11 1 9 12
M  V30 12 1 9 13
M  V30 13 1 12 14
M  V30 14 1 12 15
M  V30 15 1 13 16
M  V30 16 1 15 17
M  V30 17 1 16 18
M  V30 18 1 17 19
M  V30 19 1 17 20
M  V30 20 1 18 21
M  V30 21 1 19 22
M  V30 22 1 19 23
M  V30 23 2 23 24
M  V30 24 1 23 25
M  V30 25 1 25 26
M  V30 26 1 26 27
M  V30 27 2 27 28
M  V30 28 1 27 29
M  V30 29 1 29 30
M  V30 30 1 30 31
M  V30 31 1 30 32
M  V30 32 1 31 33
M  V30 33 1 32 34
M  V30 34 1 6 7
M  V30 35 1 11 13
M  V30 36 1 16 17
M  V30 37 1 19 21
M  V30 38 1 3 35
M  V30 39 1 4 36
M  V30 40 1 4 37
M  V30 41 1 6 38
M  V30 42 1 6 39
M  V30 43 1 8 40
M  V30 44 1 8 41
M  V30 45 1 9 42
M  V30 46 1 10 43
M  V30 47 1 10 44
M  V30 48 1 10 45
M  V30 49 1 11 46
M  V30 50 1 11 47
M  V30 51 1 12 48
M  V30 52 1 13 49
M  V30 53 1 14 50
M  V30 54 1 15 51
M  V30 55 1 15 52
M  V30 56 1 16 53
M  V30 57 1 18 54
M  V30 58 1 18 55
M  V30 59 1 20 56
M  V30 60 1 20 57
M  V30 61 1 20 58
M  V30 62 1 21 59
M  V30 63 1 21 60
M  V30 64 1 22 61
M  V30 65 1 25 62
M  V30 66 1 25 63
M  V30 67 1 29 64
M  V30 68 1 29 65
M  V30 69 1 31 66
M  V30 70 1 31 67
M  V30 71 1 32 68
M  V30 72 1 32 69
M  V30 73 1 33 70
M  V30 74 1 33 71
M  V30 75 1 33 72
M  V30 76 1 34 73
M  V30 77 1 34 74
M  V30 78 1 34 75
M  V30 END BOND
M  V30 BEGIN COLLECTION
M  V30 MDLV30/STEABS ATOMS=(7 7 9 12 13 16 17 19)
M  V30 END COLLECTION
M  V30 END CTAB
M  END
>  <NO.>
1592

>  <Name>
hydrocortamate

>  <SMILES>
CCN(CC)CC(=O)OCC(=O)[C@@]1(O)CC[C@H]2[C@@H]3CCC4=CC(=O)CC[C@]4(C)[C@H]3[C@@H](O)C[C@@]21C

>  <logBB>


>  <Class>
1

>  <MW>
475.29

>  <nHBAcc>
7

>  <nHBDon>
2

>  <SLogP>
2.67

>  <TopoPSA>
104.14

>  <MMFF94 Energy>
154.93

$$$$
CCN(CC)CC(=O)Oc1ccc(NC(C)=O)cc1
Actelion Java MolfileCreator 2.0

  0  0  0  0  0  0              0 V3000
M  V30 BEGIN CTAB
M  V30 COUNTS 39 39 0 0 0
M  V30 BEGIN ATOM
M  V30 1 O -0.2343 -1.4067 -0.2343 0
M  V30 2 C 0.0598 -0.8263 0.8021 0
M  V30 3 O 0.1867 0.561 0.9573 0
M  V30 4 C 0.3371 -1.4599 2.1712 0
M  V30 5 C -0.0129 1.3689 -0.1713 0
M  V30 6 N 0.4397 -2.9419 2.113 0
M  V30 7 C -0.874 2.4531 -0.0274 0
M  V30 8 C 0.6759 1.1613 -1.3624 0
M  V30 9 C 0.3577 -3.5273 3.4637 0
M  V30 10 C 1.6909 -3.3435 1.4394 0
M  V30 11 C -1.076 3.3244 -1.1021 0
M  V30 12 C 0.4669 2.0329 -2.4346 0
M  V30 13 C -1.0627 -3.5115 4.0213 0
M  V30 14 C 1.6144 -4.7653 0.8916 0
M  V30 15 C -0.4069 3.1228 -2.3123 0
M  V30 16 N -0.5741 3.9455 -3.4442 0
M  V30 17 C -1.193 5.1817 -3.4947 0
M  V30 18 O -1.675 5.8047 -2.5557 0
M  V30 19 C -1.1983 5.7534 -4.8901 0
M  V30 20 H -0.505 -1.1561 2.801 0
M  V30 21 H 1.258 -1.0314 2.5853 0
M  V30 22 H -1.3942 2.6246 0.9104 0
M  V30 23 H 1.3632 0.3277 -1.4717 0
M  V30 24 H 0.6635 -4.5789 3.4427 0
M  V30 25 H 1.0399 -3.0189 4.1567 0
M  V30 26 H 1.8951 -2.6939 0.5804 0
M  V30 27 H 2.5517 -3.2416 2.1125 0
M  V30 28 H -1.7695 4.1489 -0.9661 0
M  V30 29 H 1.002 1.8487 -3.3623 0
M  V30 30 H -1.0975 -4.069 4.9635 0
M  V30 31 H -1.7633 -3.9869 3.3266 0
M  V30 32 H -1.4164 -2.4981 4.2303 0
M  V30 33 H 2.5172 -4.9895 0.3138 0
M  V30 34 H 0.7537 -4.8828 0.2247 0
M  V30 35 H 1.5401 -5.5138 1.6853 0
M  V30 36 H -0.1678 3.6028 -4.3056 0
M  V30 37 H -0.1864 6.0686 -5.1588 0
M  V30 38 H -1.8676 6.6174 -4.932 0
M  V30 39 H -1.5501 5.0049 -5.606 0
M  V30 END ATOM
M  V30 BEGIN BOND
M  V30 1 2 1 2
M  V30 2 1 2 3
M  V30 3 1 2 4
M  V30 4 1 3 5
M  V30 5 1 4 6
M  V30 6 2 5 7
M  V30 7 1 5 8
M  V30 8 1 6 9
M  V30 9 1 6 10
M  V30 10 1 7 11
M  V30 11 2 8 12
M  V30 12 1 9 13
M  V30 13 1 10 14
M  V30 14 2 11 15
M  V30 15 1 15 16
M  V30 16 1 16 17
M  V30 17 2 17 18
M  V30 18 1 17 19
M  V30 19 1 12 15
M  V30 20 1 4 20
M  V30 21 1 4 21
M  V30 22 1 7 22
M  V30 23 1 8 23
M  V30 24 1 9 24
M  V30 25 1 9 25
M  V30 26 1 10 26
M  V30 27 1 10 27
M  V30 28 1 11 28
M  V30 29 1 12 29
M  V30 30 1 13 30
M  V30 31 1 13 31
M  V30 32 1 13 32
M  V30 33 1 14 33
M  V30 34 1 14 34
M  V30 35 1 14 35
M  V30 36 1 16 36
M  V30 37 1 19 37
M  V30 38 1 19 38
M  V30 39 1 19 39
M  V30 END BOND
M  V30 END CTAB
M  END
>  <NO.>
1593

>  <Name>
propacetamol

>  <SMILES>
CCN(CC)CC(=O)Oc1ccc(NC(C)=O)cc1

>  <logBB>


>  <Class>
1

>  <MW>
264.15

>  <nHBAcc>
4

>  <nHBDon>
1

>  <SLogP>
1.89

>  <TopoPSA>
58.64

>  <MMFF94 Energy>
54.367

$$$$
CCN(CC)CCN1C(=O)CN=C(c2ccccc2F)c2cc(Cl)ccc21
Actelion Java MolfileCreator 2.0

  0  0  0  0  0  0              0 V3000
M  V30 BEGIN CTAB
M  V30 COUNTS 50 52 0 0 0
M  V30 BEGIN ATOM
M  V30 1 Cl -2.7318 3.0536 -3.6974 0
M  V30 2 C -1.6649 2.2672 -2.6025 0
M  V30 3 C -0.6457 1.456 -3.0902 0
M  V30 4 C -1.8206 2.4506 -1.234 0
M  V30 5 C 0.2277 0.8086 -2.1984 0
M  V30 6 C -0.949 1.8158 -0.3448 0
M  V30 7 C 1.306 -0.0368 -2.7848 0
M  V30 8 C 0.0847 0.9839 -0.808 0
M  V30 9 N 2.537 -0.0292 -2.3993 0
M  V30 10 C 0.9389 -0.9613 -3.8846 0
M  V30 11 N 0.9358 0.3498 0.1441 0
M  V30 12 C 2.9091 0.844 -1.2845 0
M  V30 13 C 1.5711 -0.8627 -5.1233 0
M  V30 14 C -0.0376 -1.9411 -3.6708 0
M  V30 15 C 2.3236 0.2671 -0.0025 0
M  V30 16 C 0.3285 -0.3052 1.3119 0
M  V30 17 F 2.4776 0.0957 -5.3624 0
M  V30 18 C 1.2319 -1.7327 -6.156 0
M  V30 19 C -0.3762 -2.8144 -4.7068 0
M  V30 20 O 3.0499 -0.2339 0.8587 0
M  V30 21 C 0.5451 0.4717 2.6311 0
M  V30 22 C 0.2574 -2.7103 -5.9475 0
M  V30 23 N -0.2119 -0.1045 3.7656 0
M  V30 24 C -1.6523 0.1852 3.6679 0
M  V30 25 C 0.3676 0.365 5.0386 0
M  V30 26 C -2.4528 -1.1057 3.7801 0
M  V30 27 C -0.1853 -0.3585 6.2622 0
M  V30 28 H -0.5245 1.3464 -4.1654 0
M  V30 29 H -2.611 3.0913 -0.8498 0
M  V30 30 H -1.0869 1.9979 0.7173 0
M  V30 31 H 4.0007 0.847 -1.192 0
M  V30 32 H 2.6031 1.8853 -1.4343 0
M  V30 33 H -0.5205 -2.043 -2.7023 0
M  V30 34 H 0.7842 -1.2993 1.4127 0
M  V30 35 H -0.7345 -0.4796 1.1107 0
M  V30 36 H 1.7288 -1.6412 -7.1169 0
M  V30 37 H -1.1282 -3.5838 -4.5453 0
M  V30 38 H 1.6184 0.4366 2.8543 0
M  V30 39 H 0.3009 1.5344 2.5092 0
M  V30 40 H -0.0052 -3.3942 -6.7514 0
M  V30 41 H -1.9839 0.8986 4.4325 0
M  V30 42 H -1.9102 0.6543 2.7108 0
M  V30 43 H 1.4492 0.1794 5.032 0
M  V30 44 H 0.2309 1.4477 5.1547 0
M  V30 45 H -3.5229 -0.8917 3.6896 0
M  V30 46 H -2.2923 -1.6035 4.741 0
M  V30 47 H -2.1835 -1.8069 2.983 0
M  V30 48 H 0.3645 -0.0488 7.1573 0
M  V30 49 H -0.0751 -1.4433 6.1616 0
M  V30 50 H -1.2416 -0.1296 6.432 0
M  V30 END ATOM
M  V30 BEGIN BOND
M  V30 1 1 1 2
M  V30 2 2 2 3
M  V30 3 1 2 4
M  V30 4 1 3 5
M  V30 5 2 4 6
M  V30 6 1 5 7
M  V30 7 2 5 8
M  V30 8 2 7 9
M  V30 9 1 7 10
M  V30 10 1 8 11
M  V30 11 1 9 12
M  V30 12 2 10 13
M  V30 13 1 10 14
M  V30 14 1 11 15
M  V30 15 1 11 16
M  V30 16 1 13 17
M  V30 17 1 13 18
M  V30 18 2 14 19
M  V30 19 2 15 20
M  V30 20 1 16 21
M  V30 21 2 18 22
M  V30 22 1 21 23
M  V30 23 1 23 24
M  V30 24 1 23 25
M  V30 25 1 24 26
M  V30 26 1 25 27
M  V30 27 1 6 8
M  V30 28 1 12 15
M  V30 29 1 19 22
M  V30 30 1 3 28
M  V30 31 1 4 29
M  V30 32 1 6 30
M  V30 33 1 12 31
M  V30 34 1 12 32
M  V30 35 1 14 33
M  V30 36 1 16 34
M  V30 37 1 16 35
M  V30 38 1 18 36
M  V30 39 1 19 37
M  V30 40 1 21 38
M  V30 41 1 21 39
M  V30 42 1 22 40
M  V30 43 1 24 41
M  V30 44 1 24 42
M  V30 45 1 25 43
M  V30 46 1 25 44
M  V30 47 1 26 45
M  V30 48 1 26 46
M  V30 49 1 26 47
M  V30 50 1 27 48
M  V30 51 1 27 49
M  V30 52 1 27 50
M  V30 END BOND
M  V30 END CTAB
M  END
>  <NO.>
1595

>  <Name>
methylprednisolone

>  <SMILES>
CCN(CC)CCN1C(=O)CN=C(c2ccccc2F)c2cc(Cl)ccc21

>  <logBB>


>  <Class>
1

>  <MW>
387.15

>  <nHBAcc>
3

>  <nHBDon>
0

>  <SLogP>
4

>  <TopoPSA>
35.91

>  <MMFF94 Energy>
129.26

$$$$
CCN(CC)CCN1c2ccccc2Sc2ccccc21
Actelion Java MolfileCreator 2.0

  0  0  0  0  0  0              0 V3000
M  V30 BEGIN CTAB
M  V30 COUNTS 43 45 0 0 0
M  V30 BEGIN ATOM
M  V30 1 S 0.1604 1.5248 -2.6496 0
M  V30 2 C -1.202 1.5954 -1.505 0
M  V30 3 C 1.5564 1.7574 -1.5677 0
M  V30 4 C -1.0378 1.5104 -0.1072 0
M  V30 5 C -2.4809 1.7401 -2.0738 0
M  V30 6 C 1.4709 1.6365 -0.1652 0
M  V30 7 C 2.7843 2.0415 -2.1927 0
M  V30 8 N 0.2415 1.327 0.479 0
M  V30 9 C -2.2001 1.6693 0.6762 0
M  V30 10 C -3.612 1.8456 -1.2713 0
M  V30 11 C 2.6571 1.86 0.5658 0
M  V30 12 C 3.9395 2.2359 -1.4427 0
M  V30 13 C 0.3145 0.581 1.7611 0
M  V30 14 C -3.4691 1.8244 0.1069 0
M  V30 15 C 3.8739 2.1514 -0.0605 0
M  V30 16 C 0.9258 -0.8468 1.6485 0
M  V30 17 N 0.1479 -1.9473 1.0334 0
M  V30 18 C 0.1225 -1.8559 -0.4324 0
M  V30 19 C -1.1847 -2.0864 1.6362 0
M  V30 20 C 0.4904 -3.1938 -1.0646 0
M  V30 21 C -1.8783 -3.4023 1.3062 0
M  V30 22 H -2.5984 1.7849 -3.1546 0
M  V30 23 H 2.8432 2.1175 -3.2764 0
M  V30 24 H -2.145 1.7157 1.7593 0
M  V30 25 H -4.5932 1.9661 -1.7218 0
M  V30 26 H 2.6636 1.8341 1.6504 0
M  V30 27 H 4.8809 2.4601 -1.9365 0
M  V30 28 H -0.6522 0.4817 2.2596 0
M  V30 29 H 0.8983 1.1589 2.4877 0
M  V30 30 H -4.3401 1.9401 0.7471 0
M  V30 31 H 4.7662 2.3164 0.538 0
M  V30 32 H 1.9149 -0.8058 1.1767 0
M  V30 33 H 1.1395 -1.1679 2.6777 0
M  V30 34 H -0.8478 -1.5121 -0.8084 0
M  V30 35 H 0.868 -1.142 -0.796 0
M  V30 36 H -1.0861 -2.0483 2.7286 0
M  V30 37 H -1.8433 -1.2602 1.3466 0
M  V30 38 H 0.5164 -3.0949 -2.1549 0
M  V30 39 H -0.2249 -3.9831 -0.8219 0
M  V30 40 H 1.4828 -3.5215 -0.7365 0
M  V30 41 H -2.7882 -3.5038 1.9073 0
M  V30 42 H -1.2338 -4.2585 1.5303 0
M  V30 43 H -2.177 -3.4487 0.2549 0
M  V30 END ATOM
M  V30 BEGIN BOND
M  V30 1 1 1 2
M  V30 2 1 1 3
M  V30 3 2 2 4
M  V30 4 1 2 5
M  V30 5 2 3 6
M  V30 6 1 3 7
M  V30 7 1 4 8
M  V30 8 1 4 9
M  V30 9 2 5 10
M  V30 10 1 6 11
M  V30 11 2 7 12
M  V30 12 1 8 13
M  V30 13 2 9 14
M  V30 14 2 11 15
M  V30 15 1 13 16
M  V30 16 1 16 17
M  V30 17 1 17 18
M  V30 18 1 17 19
M  V30 19 1 18 20
M  V30 20 1 19 21
M  V30 21 1 6 8
M  V30 22 1 10 14
M  V30 23 1 12 15
M  V30 24 1 5 22
M  V30 25 1 7 23
M  V30 26 1 9 24
M  V30 27 1 10 25
M  V30 28 1 11 26
M  V30 29 1 12 27
M  V30 30 1 13 28
M  V30 31 1 13 29
M  V30 32 1 14 30
M  V30 33 1 15 31
M  V30 34 1 16 32
M  V30 35 1 16 33
M  V30 36 1 18 34
M  V30 37 1 18 35
M  V30 38 1 19 36
M  V30 39 1 19 37
M  V30 40 1 20 38
M  V30 41 1 20 39
M  V30 42 1 20 40
M  V30 43 1 21 41
M  V30 44 1 21 42
M  V30 45 1 21 43
M  V30 END BOND
M  V30 END CTAB
M  END
>  <NO.>
1596

>  <Name>
diethazine

>  <SMILES>
CCN(CC)CCN1c2ccccc2Sc2ccccc21

>  <logBB>


>  <Class>
1

>  <MW>
298.15

>  <nHBAcc>
3

>  <nHBDon>
0

>  <SLogP>
4.63

>  <TopoPSA>
6.48

>  <MMFF94 Energy>
97.235

$$$$
CCN(CC)CCNC(=O)COc1ccc(Cl)cc1
Actelion Java MolfileCreator 2.0

  0  0  0  0  0  0              0 V3000
M  V30 BEGIN CTAB
M  V30 COUNTS 40 40 0 0 0
M  V30 BEGIN ATOM
M  V30 1 Cl -6.3135 -1.1026 -2.995 0
M  V30 2 C -4.6321 -0.9272 -2.6786 0
M  V30 3 C -3.7013 -1.3234 -3.6368 0
M  V30 4 C -4.207 -0.3901 -1.4671 0
M  V30 5 C -2.3321 -1.1826 -3.3838 0
M  V30 6 C -2.8403 -0.2507 -1.2169 0
M  V30 7 C -1.8971 -0.6456 -2.1709 0
M  V30 8 O -0.598 -0.4534 -1.7963 0
M  V30 9 C 0.4132 -0.8548 -2.717 0
M  V30 10 C 1.8062 -0.5891 -2.1452 0
M  V30 11 O 2.8136 -0.5923 -2.8484 0
M  V30 12 N 1.8341 -0.3877 -0.7891 0
M  V30 13 C 3.0361 -0.0636 -0.0509 0
M  V30 14 C 2.832 -0.2757 1.4613 0
M  V30 15 N 1.5677 0.316 1.9685 0
M  V30 16 C 1.6301 1.7896 1.9827 0
M  V30 17 C 1.265 -0.2392 3.3015 0
M  V30 18 C 0.416 2.3744 1.2715 0
M  V30 19 C -0.1286 0.12 3.806 0
M  V30 20 H -4.0331 -1.742 -4.5834 0
M  V30 21 H -4.9277 -0.079 -0.7161 0
M  V30 22 H -1.6376 -1.5007 -4.1544 0
M  V30 23 H -2.5073 0.1691 -0.2702 0
M  V30 24 H 0.3284 -0.2784 -3.6452 0
M  V30 25 H 0.3468 -1.9308 -2.9145 0
M  V30 26 H 0.9501 -0.3168 -0.2887 0
M  V30 27 H 3.2887 0.9766 -0.2803 0
M  V30 28 H 3.8583 -0.6897 -0.4142 0
M  V30 29 H 2.7973 -1.3623 1.6161 0
M  V30 30 H 3.7002 0.0979 2.0182 0
M  V30 31 H 1.692 2.1885 3.0028 0
M  V30 32 H 2.5258 2.1667 1.4755 0
M  V30 33 H 1.3036 -1.3347 3.2512 0
M  V30 34 H 2.0178 0.072 4.0368 0
M  V30 35 H 0.4649 3.4681 1.2875 0
M  V30 36 H -0.5217 2.0761 1.7491 0
M  V30 37 H 0.3802 2.0584 0.2239 0
M  V30 38 H -0.3369 -0.4171 4.7372 0
M  V30 39 H -0.8963 -0.1632 3.0784 0
M  V30 40 H -0.2251 1.1892 4.0167 0
M  V30 END ATOM
M  V30 BEGIN BOND
M  V30 1 1 1 2
M  V30 2 2 2 3
M  V30 3 1 2 4
M  V30 4 1 3 5
M  V30 5 2 4 6
M  V30 6 2 5 7
M  V30 7 1 7 8
M  V30 8 1 8 9
M  V30 9 1 9 10
M  V30 10 2 10 11
M  V30 11 1 10 12
M  V30 12 1 12 13
M  V30 13 1 13 14
M  V30 14 1 14 15
M  V30 15 1 15 16
M  V30 16 1 15 17
M  V30 17 1 16 18
M  V30 18 1 17 19
M  V30 19 1 6 7
M  V30 20 1 3 20
M  V30 21 1 4 21
M  V30 22 1 5 22
M  V30 23 1 6 23
M  V30 24 1 9 24
M  V30 25 1 9 25
M  V30 26 1 12 26
M  V30 27 1 13 27
M  V30 28 1 13 28
M  V30 29 1 14 29
M  V30 30 1 14 30
M  V30 31 1 16 31
M  V30 32 1 16 32
M  V30 33 1 17 33
M  V30 34 1 17 34
M  V30 35 1 18 35
M  V30 36 1 18 36
M  V30 37 1 18 37
M  V30 38 1 19 38
M  V30 39 1 19 39
M  V30 40 1 19 40
M  V30 END BOND
M  V30 END CTAB
M  END
>  <NO.>
1597

>  <Name>
clofexamide

>  <SMILES>
CCN(CC)CCNC(=O)COc1ccc(Cl)cc1

>  <logBB>


>  <Class>
1

>  <MW>
284.13

>  <nHBAcc>
3

>  <nHBDon>
1

>  <SLogP>
2.18

>  <TopoPSA>
41.57

>  <MMFF94 Energy>
39.966

$$$$
CCN(CC)CCNC(=O)COc1ccc(OC)cc1
Actelion Java MolfileCreator 2.0

  0  0  0  0  0  0              0 V3000
M  V30 BEGIN CTAB
M  V30 COUNTS 44 44 0 0 0
M  V30 BEGIN ATOM
M  V30 1 O -1.1668 -0.1555 -0.9334 0
M  V30 2 C -0.6636 -0.2806 0.1787 0
M  V30 3 N -0.1268 -1.4775 0.6202 0
M  V30 4 C -0.5587 0.847 1.2103 0
M  V30 5 C -0.1463 -2.6703 -0.2101 0
M  V30 6 O -1.0554 2.0712 0.6951 0
M  V30 7 C 0.9343 -2.64 -1.3086 0
M  V30 8 C -1.0179 3.1601 1.5192 0
M  V30 9 N 1.1224 -3.9223 -2.0212 0
M  V30 10 C -0.5419 3.1872 2.83 0
M  V30 11 C -1.5136 4.3351 0.9536 0
M  V30 12 C 2.2958 -3.8243 -2.9079 0
M  V30 13 C -0.0957 -4.3961 -2.7004 0
M  V30 14 C -0.5618 4.3804 3.5672 0
M  V30 15 C -1.5332 5.5231 1.6877 0
M  V30 16 C 2.6967 -5.1474 -3.552 0
M  V30 17 C -0.6499 -3.5081 -3.8108 0
M  V30 18 C -1.0577 5.5538 2.9988 0
M  V30 19 O -1.1319 6.7757 3.6072 0
M  V30 20 C -0.6622 6.8583 4.9465 0
M  V30 21 H 0.2881 -1.5407 1.5402 0
M  V30 22 H -1.1419 0.5382 2.0865 0
M  V30 23 H 0.5006 0.9494 1.4757 0
M  V30 24 H -1.1467 -2.7603 -0.646 0
M  V30 25 H 0.0158 -3.5217 0.4597 0
M  V30 26 H 0.7316 -1.8237 -2.0129 0
M  V30 27 H 1.8799 -2.3797 -0.8134 0
M  V30 28 H -0.1478 2.3009 3.3147 0
M  V30 29 H -1.8883 4.3269 -0.0672 0
M  V30 30 H 2.1483 -3.0665 -3.6866 0
M  V30 31 H 3.1575 -3.4948 -2.313 0
M  V30 32 H 0.0813 -5.3979 -3.1085 0
M  V30 33 H -0.8846 -4.5589 -1.9567 0
M  V30 34 H -0.1821 4.3567 4.5831 0
M  V30 35 H -1.9229 6.4299 1.232 0
M  V30 36 H 3.6614 -5.0368 -4.0584 0
M  V30 37 H 1.9705 -5.4726 -4.3029 0
M  V30 38 H 2.8024 -5.9372 -2.8009 0
M  V30 39 H -1.5484 -3.9684 -4.2355 0
M  V30 40 H 0.0676 -3.3804 -4.6261 0
M  V30 41 H -0.9354 -2.5201 -3.4379 0
M  V30 42 H -1.2492 6.2158 5.6111 0
M  V30 43 H -0.7915 7.8914 5.2831 0
M  V30 44 H 0.4047 6.6198 5.006 0
M  V30 END ATOM
M  V30 BEGIN BOND
M  V30 1 2 1 2
M  V30 2 1 2 3
M  V30 3 1 2 4
M  V30 4 1 3 5
M  V30 5 1 4 6
M  V30 6 1 5 7
M  V30 7 1 6 8
M  V30 8 1 7 9
M  V30 9 2 8 10
M  V30 10 1 8 11
M  V30 11 1 9 12
M  V30 12 1 9 13
M  V30 13 1 10 14
M  V30 14 2 11 15
M  V30 15 1 12 16
M  V30 16 1 13 17
M  V30 17 2 14 18
M  V30 18 1 18 19
M  V30 19 1 19 20
M  V30 20 1 15 18
M  V30 21 1 3 21
M  V30 22 1 4 22
M  V30 23 1 4 23
M  V30 24 1 5 24
M  V30 25 1 5 25
M  V30 26 1 7 26
M  V30 27 1 7 27
M  V30 28 1 10 28
M  V30 29 1 11 29
M  V30 30 1 12 30
M  V30 31 1 12 31
M  V30 32 1 13 32
M  V30 33 1 13 33
M  V30 34 1 14 34
M  V30 35 1 15 35
M  V30 36 1 16 36
M  V30 37 1 16 37
M  V30 38 1 16 38
M  V30 39 1 17 39
M  V30 40 1 17 40
M  V30 41 1 17 41
M  V30 42 1 20 42
M  V30 43 1 20 43
M  V30 44 1 20 44
M  V30 END BOND
M  V30 END CTAB
M  END
>  <NO.>
1598

>  <Name>
akos026749852

>  <SMILES>
CCN(CC)CCNC(=O)COc1ccc(OC)cc1

>  <logBB>


>  <Class>
1

>  <MW>
280.18

>  <nHBAcc>
4

>  <nHBDon>
1

>  <SLogP>
1.53

>  <TopoPSA>
50.8

>  <MMFF94 Energy>
50.33

$$$$
CCN(CC)CCNC(=O)c1cc(Br)c(N)cc1OC
Actelion Java MolfileCreator 2.0

  0  0  0  0  0  0              0 V3000
M  V30 BEGIN CTAB
M  V30 COUNTS 42 42 0 0 0
M  V30 BEGIN ATOM
M  V30 1 Br -6.3157 1.576 -1.1818 0
M  V30 2 C -4.7767 0.5066 -1.5012 0
M  V30 3 C -4.8605 -0.6722 -2.252 0
M  V30 4 C -3.5581 0.9323 -0.9724 0
M  V30 5 N -6.0625 -1.1386 -2.766 0
M  V30 6 C -3.694 -1.4266 -2.4365 0
M  V30 7 C -2.3861 0.1819 -1.1716 0
M  V30 8 C -2.4552 -1.0175 -1.9108 0
M  V30 9 C -1.1374 0.7447 -0.5543 0
M  V30 10 O -1.296 -1.7343 -2.0799 0
M  V30 11 O -1.1889 1.7749 0.1125 0
M  V30 12 N 0.0414 0.0702 -0.7614 0
M  V30 13 C -1.3631 -2.9638 -2.7951 0
M  V30 14 C 1.308 0.529 -0.2232 0
M  V30 15 C 1.4579 0.2032 1.2756 0
M  V30 16 N 2.8003 0.507 1.8223 0
M  V30 17 C 2.9283 -0.0723 3.1711 0
M  V30 18 C 3.0618 1.9591 1.8253 0
M  V30 19 C 4.3797 -0.1239 3.6407 0
M  V30 20 C 4.164 2.2826 0.8256 0
M  V30 21 H -3.5165 1.8566 -0.3979 0
M  V30 22 H -6.1062 -1.9447 -3.3725 0
M  V30 23 H -6.8936 -0.5669 -2.6603 0
M  V30 24 H -3.7812 -2.3469 -3.0049 0
M  V30 25 H 0.0207 -0.7816 -1.3122 0
M  V30 26 H -2.0198 -3.6793 -2.2895 0
M  V30 27 H -0.3565 -3.3925 -2.8131 0
M  V30 28 H -1.6725 -2.7996 -3.8323 0
M  V30 29 H 1.3815 1.6065 -0.4035 0
M  V30 30 H 2.0948 0.0309 -0.8 0
M  V30 31 H 0.679 0.713 1.8579 0
M  V30 32 H 1.2655 -0.8728 1.3837 0
M  V30 33 H 2.3119 0.4713 3.8981 0
M  V30 34 H 2.5689 -1.1092 3.1622 0
M  V30 35 H 2.1649 2.5432 1.5845 0
M  V30 36 H 3.377 2.3206 2.8117 0
M  V30 37 H 4.4406 -0.6397 4.6047 0
M  V30 38 H 4.8089 0.8735 3.773 0
M  V30 39 H 5.0029 -0.6737 2.9274 0
M  V30 40 H 4.3681 3.3583 0.8274 0
M  V30 41 H 3.8825 1.9973 -0.1928 0
M  V30 42 H 5.0944 1.7646 1.0817 0
M  V30 END ATOM
M  V30 BEGIN BOND
M  V30 1 1 1 2
M  V30 2 2 2 3
M  V30 3 1 2 4
M  V30 4 1 3 5
M  V30 5 1 3 6
M  V30 6 2 4 7
M  V30 7 2 6 8
M  V30 8 1 7 9
M  V30 9 1 8 10
M  V30 10 2 9 11
M  V30 11 1 9 12
M  V30 12 1 10 13
M  V30 13 1 12 14
M  V30 14 1 14 15
M  V30 15 1 15 16
M  V30 16 1 16 17
M  V30 17 1 16 18
M  V30 18 1 17 19
M  V30 19 1 18 20
M  V30 20 1 7 8
M  V30 21 1 4 21
M  V30 22 1 5 22
M  V30 23 1 5 23
M  V30 24 1 6 24
M  V30 25 1 12 25
M  V30 26 1 13 26
M  V30 27 1 13 27
M  V30 28 1 13 28
M  V30 29 1 14 29
M  V30 30 1 14 30
M  V30 31 1 15 31
M  V30 32 1 15 32
M  V30 33 1 17 33
M  V30 34 1 17 34
M  V30 35 1 18 35
M  V30 36 1 18 36
M  V30 37 1 19 37
M  V30 38 1 19 38
M  V30 39 1 19 39
M  V30 40 1 20 40
M  V30 41 1 20 41
M  V30 42 1 20 42
M  V30 END BOND
M  V30 END CTAB
M  END
>  <NO.>
1599

>  <Name>
bromopride

>  <SMILES>
CCN(CC)CCNC(=O)c1cc(Br)c(N)cc1OC

>  <logBB>


>  <Class>
1

>  <MW>
343.09

>  <nHBAcc>
4

>  <nHBDon>
2

>  <SLogP>
2.11

>  <TopoPSA>
67.59

>  <MMFF94 Energy>
43.501

$$$$
CCN(CC)CCNC(=O)c1cc(Cl)cc(Cl)c1OC
Actelion Java MolfileCreator 2.0

  0  0  0  0  0  0              0 V3000
M  V30 BEGIN CTAB
M  V30 COUNTS 40 40 0 0 0
M  V30 BEGIN ATOM
M  V30 1 Cl -5.7497 -1.8339 -0.7173 0
M  V30 2 C -4.3929 -1.189 -1.5691 0
M  V30 3 C -3.3024 -0.6233 -0.8959 0
M  V30 4 C -4.3991 -1.2668 -2.9642 0
M  V30 5 O -3.2564 -0.608 0.4739 0
M  V30 6 C -2.1994 -0.1794 -1.6376 0
M  V30 7 C -3.3055 -0.7963 -3.688 0
M  V30 8 C -3.8737 0.5739 0.9922 0
M  V30 9 C -1.018 0.4014 -0.9681 0
M  V30 10 C -2.2013 -0.2558 -3.0357 0
M  V30 11 Cl -3.3141 -0.8947 -5.4051 0
M  V30 12 O -1.1282 1.4064 -0.2797 0
M  V30 13 N 0.1649 -0.2609 -1.2059 0
M  V30 14 C 1.4191 0.1996 -0.6354 0
M  V30 15 C 1.5432 -0.1378 0.861 0
M  V30 16 N 2.8801 0.23 1.3778 0
M  V30 17 C 3.4936 -0.877 2.1325 0
M  V30 18 C 2.8203 1.435 2.2295 0
M  V30 19 C 3.9674 -2.0007 1.2148 0
M  V30 20 C 2.3951 2.6952 1.4834 0
M  V30 21 H -5.2504 -1.7008 -3.4831 0
M  V30 22 H -3.7143 1.4541 0.3591 0
M  V30 23 H -3.4369 0.7762 1.9747 0
M  V30 24 H -4.9468 0.4069 1.1259 0
M  V30 25 H -1.3542 0.1174 -3.6063 0
M  V30 26 H 0.171 -1.1122 -1.7521 0
M  V30 27 H 1.495 1.2784 -0.805 0
M  V30 28 H 2.219 -0.2891 -1.2025 0
M  V30 29 H 0.7392 0.3407 1.4349 0
M  V30 30 H 1.3506 -1.2124 0.9745 0
M  V30 31 H 4.3838 -0.5154 2.6629 0
M  V30 32 H 2.8076 -1.2682 2.8942 0
M  V30 33 H 2.1582 1.2745 3.09 0
M  V30 34 H 3.8212 1.6359 2.6325 0
M  V30 35 H 4.4918 -2.7629 1.8007 0
M  V30 36 H 4.6644 -1.6217 0.4597 0
M  V30 37 H 3.1391 -2.4942 0.6985 0
M  V30 38 H 2.5008 3.5676 2.1371 0
M  V30 39 H 1.3489 2.6501 1.1671 0
M  V30 40 H 3.0215 2.862 0.6011 0
M  V30 END ATOM
M  V30 BEGIN BOND
M  V30 1 1 1 2
M  V30 2 2 2 3
M  V30 3 1 2 4
M  V30 4 1 3 5
M  V30 5 1 3 6
M  V30 6 2 4 7
M  V30 7 1 5 8
M  V30 8 1 6 9
M  V30 9 2 6 10
M  V30 10 1 7 11
M  V30 11 2 9 12
M  V30 12 1 9 13
M  V30 13 1 13 14
M  V30 14 1 14 15
M  V30 15 1 15 16
M  V30 16 1 16 17
M  V30 17 1 16 18
M  V30 18 1 17 19
M  V30 19 1 18 20
M  V30 20 1 7 10
M  V30 21 1 4 21
M  V30 22 1 8 22
M  V30 23 1 8 23
M  V30 24 1 8 24
M  V30 25 1 10 25
M  V30 26 1 13 26
M  V30 27 1 14 27
M  V30 28 1 14 28
M  V30 29 1 15 29
M  V30 30 1 15 30
M  V30 31 1 17 31
M  V30 32 1 17 32
M  V30 33 1 18 33
M  V30 34 1 18 34
M  V30 35 1 19 35
M  V30 36 1 19 36
M  V30 37 1 19 37
M  V30 38 1 20 38
M  V30 39 1 20 39
M  V30 40 1 20 40
M  V30 END BOND
M  V30 END CTAB
M  END
>  <NO.>
1600

>  <Name>
diclometide

>  <SMILES>
CCN(CC)CCNC(=O)c1cc(Cl)cc(Cl)c1OC

>  <logBB>


>  <Class>
1

>  <MW>
318.09

>  <nHBAcc>
3

>  <nHBDon>
1

>  <SLogP>
3.07

>  <TopoPSA>
41.57

>  <MMFF94 Energy>
31.979

$$$$
CCN(CC)CCNC(=O)c1cc(S(C)(=O)=O)ccc1OC
Actelion Java MolfileCreator 2.0

  0  0  0  0  0  0              0 V3000
M  V30 BEGIN CTAB
M  V30 COUNTS 46 46 0 0 0
M  V30 BEGIN ATOM
M  V30 1 S 0.7145 5.1692 2.7013 0
M  V30 2 O 0.7885 6.5636 2.3066 0
M  V30 3 O -0.124 4.7511 3.8067 0
M  V30 4 C 0.1964 4.2402 1.2787 0
M  V30 5 C 2.3711 4.6094 2.9992 0
M  V30 6 C 0.053 2.8569 1.3823 0
M  V30 7 C -0.0848 4.8915 0.0812 0
M  V30 8 C -0.3558 2.0995 0.2686 0
M  V30 9 C -0.499 4.1483 -1.0277 0
M  V30 10 C -0.6348 2.7524 -0.9531 0
M  V30 11 C -0.4452 0.6183 0.4878 0
M  V30 12 O -1.0285 1.979 -2.0163 0
M  V30 13 O 0.043 0.1214 1.4991 0
M  V30 14 N -1.0816 -0.1324 -0.4695 0
M  V30 15 C -1.2585 2.623 -3.2653 0
M  V30 16 C -1.2573 -1.5679 -0.3477 0
M  V30 17 C 0.0368 -2.3438 -0.654 0
M  V30 18 N -0.1883 -3.809 -0.6681 0
M  V30 19 C 0.2566 -4.4429 0.5906 0
M  V30 20 C 0.4963 -4.4062 -1.8319 0
M  V30 21 C -0.4628 -3.9509 1.8423 0
M  V30 22 C 0.1253 -5.8652 -2.0817 0
M  V30 23 H 2.9761 4.8016 2.1112 0
M  V30 24 H 2.357 3.5448 3.2378 0
M  V30 25 H 2.7694 5.1711 3.8471 0
M  V30 26 H 0.2447 2.3604 2.3333 0
M  V30 27 H 0.0053 5.9734 -0.0016 0
M  V30 28 H -0.7118 4.6978 -1.9401 0
M  V30 29 H -1.4351 0.3371 -1.2965 0
M  V30 30 H -2.0941 3.3269 -3.1967 0
M  V30 31 H -1.5331 1.8514 -3.9909 0
M  V30 32 H -0.3505 3.1141 -3.6299 0
M  V30 33 H -2.0423 -1.8482 -1.0588 0
M  V30 34 H -1.6259 -1.7785 0.6598 0
M  V30 35 H 0.3815 -1.9955 -1.6376 0
M  V30 36 H 0.8422 -2.0641 0.0369 0
M  V30 37 H 0.0641 -5.5198 0.5419 0
M  V30 38 H 1.3386 -4.3181 0.7256 0
M  V30 39 H 0.2 -3.8593 -2.7365 0
M  V30 40 H 1.5855 -4.3101 -1.7404 0
M  V30 41 H -0.1799 -4.5705 2.7001 0
M  V30 42 H -1.5494 -4.02 1.7274 0
M  V30 43 H -0.1957 -2.9191 2.0875 0
M  V30 44 H 0.5218 -6.1878 -3.0502 0
M  V30 45 H -0.9613 -5.9984 -2.1047 0
M  V30 46 H 0.5437 -6.5319 -1.3224 0
M  V30 END ATOM
M  V30 BEGIN BOND
M  V30 1 2 1 2
M  V30 2 2 1 3
M  V30 3 1 1 4
M  V30 4 1 1 5
M  V30 5 2 4 6
M  V30 6 1 4 7
M  V30 7 1 6 8
M  V30 8 2 7 9
M  V30 9 2 8 10
M  V30 10 1 8 11
M  V30 11 1 10 12
M  V30 12 2 11 13
M  V30 13 1 11 14
M  V30 14 1 12 15
M  V30 15 1 14 16
M  V30 16 1 16 17
M  V30 17 1 17 18
M  V30 18 1 18 19
M  V30 19 1 18 20
M  V30 20 1 19 21
M  V30 21 1 20 22
M  V30 22 1 9 10
M  V30 23 1 5 23
M  V30 24 1 5 24
M  V30 25 1 5 25
M  V30 26 1 6 26
M  V30 27 1 7 27
M  V30 28 1 9 28
M  V30 29 1 14 29
M  V30 30 1 15 30
M  V30 31 1 15 31
M  V30 32 1 15 32
M  V30 33 1 16 33
M  V30 34 1 16 34
M  V30 35 1 17 35
M  V30 36 1 17 36
M  V30 37 1 19 37
M  V30 38 1 19 38
M  V30 39 1 20 39
M  V30 40 1 20 40
M  V30 41 1 21 41
M  V30 42 1 21 42
M  V30 43 1 21 43
M  V30 44 1 22 44
M  V30 45 1 22 45
M  V30 46 1 22 46
M  V30 END BOND
M  V30 END CTAB
M  END
>  <NO.>
1601

>  <Name>
tiapride

>  <SMILES>
CCN(CC)CCNC(=O)c1cc(S(C)(=O)=O)ccc1OC

>  <logBB>


>  <Class>
1

>  <MW>
328.15

>  <nHBAcc>
5

>  <nHBDon>
1

>  <SLogP>
1.17

>  <TopoPSA>
75.71

>  <MMFF94 Energy>
59.633

$$$$
CCN(CC)CCOC(=O)C(O)(c1ccccc1)c1ccccc1
Actelion Java MolfileCreator 2.0

  0  0  0  0  0  0              0 V3000
M  V30 BEGIN CTAB
M  V30 COUNTS 49 50 0 0 0
M  V30 BEGIN ATOM
M  V30 1 O -0.3157 1.8164 0.5525 0
M  V30 2 C -0.7397 0.8735 -0.1073 0
M  V30 3 O -1.9493 0.2553 0.1096 0
M  V30 4 C -0.0481 0.2366 -1.3616 0
M  V30 5 C -2.5929 0.5658 1.358 0
M  V30 6 O -0.584 -1.0928 -1.5676 0
M  V30 7 C 1.4633 0.1034 -1.1026 0
M  V30 8 C -0.3601 0.9987 -2.6636 0
M  V30 9 C -2.3915 -0.6044 2.3394 0
M  V30 10 C 2.022 -1.1121 -0.6656 0
M  V30 11 C 2.3253 1.2081 -1.2409 0
M  V30 12 C -0.1117 0.3806 -3.9063 0
M  V30 13 C -0.8571 2.3148 -2.6757 0
M  V30 14 N -0.9694 -0.948 2.5704 0
M  V30 15 C 3.3889 -1.2249 -0.4001 0
M  V30 16 C 3.6923 1.094 -0.9754 0
M  V30 17 C -0.3672 1.0419 -5.109 0
M  V30 18 C -1.1122 2.9755 -3.8814 0
M  V30 19 C -0.8344 -2.3159 3.104 0
M  V30 20 C -0.3348 0.0352 3.4706 0
M  V30 21 C 4.2237 -0.1225 -0.5575 0
M  V30 22 C -0.8702 2.3391 -5.0957 0
M  V30 23 C -0.9827 -3.3702 2.0105 0
M  V30 24 C 1.1849 0.0453 3.3327 0
M  V30 25 H -3.6622 0.672 1.1443 0
M  V30 26 H -2.2648 1.5215 1.7789 0
M  V30 27 H -1.5012 -1.0479 -1.2393 0
M  V30 28 H -2.9049 -0.394 3.2862 0
M  V30 29 H -2.904 -1.4611 1.888 0
M  V30 30 H 1.391 -1.9877 -0.5246 0
M  V30 31 H 1.938 2.1769 -1.5502 0
M  V30 32 H 0.2897 -0.6319 -3.9362 0
M  V30 33 H -1.0435 2.86 -1.7526 0
M  V30 34 H 3.7979 -2.1749 -0.0669 0
M  V30 35 H 4.3394 1.9595 -1.0907 0
M  V30 36 H -0.1688 0.5427 -6.0537 0
M  V30 37 H -1.4954 3.993 -3.8704 0
M  V30 38 H 0.1598 -2.4662 3.5381 0
M  V30 39 H -1.555 -2.4994 3.9109 0
M  V30 40 H -0.6711 1.05 3.2325 0
M  V30 41 H -0.6199 -0.146 4.5147 0
M  V30 42 H 5.2864 -0.2098 -0.3493 0
M  V30 43 H -1.067 2.8561 -6.0311 0
M  V30 44 H -0.7719 -4.3632 2.4215 0
M  V30 45 H -0.2758 -3.1903 1.1937 0
M  V30 46 H -1.9923 -3.3978 1.5915 0
M  V30 47 H 1.6072 0.8505 3.9434 0
M  V30 48 H 1.4847 0.2233 2.2952 0
M  V30 49 H 1.6407 -0.8908 3.6661 0
M  V30 END ATOM
M  V30 BEGIN BOND
M  V30 1 2 1 2
M  V30 2 1 2 3
M  V30 3 1 2 4
M  V30 4 1 3 5
M  V30 5 1 4 6
M  V30 6 1 4 7
M  V30 7 1 4 8
M  V30 8 1 5 9
M  V30 9 2 7 10
M  V30 10 1 7 11
M  V30 11 2 8 12
M  V30 12 1 8 13
M  V30 13 1 9 14
M  V30 14 1 10 15
M  V30 15 2 11 16
M  V30 16 1 12 17
M  V30 17 2 13 18
M  V30 18 1 14 19
M  V30 19 1 14 20
M  V30 20 2 15 21
M  V30 21 2 17 22
M  V30 22 1 19 23
M  V30 23 1 20 24
M  V30 24 1 16 21
M  V30 25 1 18 22
M  V30 26 1 5 25
M  V30 27 1 5 26
M  V30 28 1 6 27
M  V30 29 1 9 28
M  V30 30 1 9 29
M  V30 31 1 10 30
M  V30 32 1 11 31
M  V30 33 1 12 32
M  V30 34 1 13 33
M  V30 35 1 15 34
M  V30 36 1 16 35
M  V30 37 1 17 36
M  V30 38 1 18 37
M  V30 39 1 19 38
M  V30 40 1 19 39
M  V30 41 1 20 40
M  V30 42 1 20 41
M  V30 43 1 21 42
M  V30 44 1 22 43
M  V30 45 1 23 44
M  V30 46 1 23 45
M  V30 47 1 23 46
M  V30 48 1 24 47
M  V30 49 1 24 48
M  V30 50 1 24 49
M  V30 END BOND
M  V30 END CTAB
M  END
>  <NO.>
1602

>  <Name>
benactyzine

>  <SMILES>
CCN(CC)CCOC(=O)C(O)(c1ccccc1)c1ccccc1

>  <logBB>


>  <Class>
1

>  <MW>
327.18

>  <nHBAcc>
4

>  <nHBDon>
1

>  <SLogP>
2.81

>  <TopoPSA>
49.77

>  <MMFF94 Energy>
132.5

$$$$
CCN(CC)CCOC1(c2ccc(Cl)cc2)CCCCC1
Actelion Java MolfileCreator 2.0

  0  0  0  0  0  0              0 V3000
M  V30 BEGIN CTAB
M  V30 COUNTS 49 50 0 0 0
M  V30 BEGIN ATOM
M  V30 1 Cl 4.447 -4.288 -1.1103 0
M  V30 2 C 3.4133 -2.9227 -1.2723 0
M  V30 3 C 3.5549 -1.8402 -0.4124 0
M  V30 4 C 2.437 -2.9062 -2.2635 0
M  V30 5 C 2.7122 -0.7342 -0.5494 0
M  V30 6 C 1.5931 -1.7976 -2.3989 0
M  V30 7 C 1.7134 -0.6884 -1.5451 0
M  V30 8 C 0.8125 0.5551 -1.6524 0
M  V30 9 O 0.378 0.9397 -0.3283 0
M  V30 10 C -0.3951 0.4151 -2.6167 0
M  V30 11 C 1.6867 1.7346 -2.1628 0
M  V30 12 C -0.5495 0.0575 0.3155 0
M  V30 13 C -1.2017 1.7095 -2.7449 0
M  V30 14 C 0.8962 3.0374 -2.3165 0
M  V30 15 C -0.6074 0.4301 1.8067 0
M  V30 16 C -0.3219 2.8619 -3.2139 0
M  V30 17 N -1.53 -0.4283 2.583 0
M  V30 18 C -2.9235 0.0214 2.3974 0
M  V30 19 C -1.1641 -0.4214 4.0127 0
M  V30 20 C -3.9296 -1.0742 2.7373 0
M  V30 21 C 0.0361 -1.3199 4.2983 0
M  V30 22 H 4.312 -1.8475 0.3665 0
M  V30 23 H 2.3236 -3.7528 -2.9355 0
M  V30 24 H 2.8299 0.102 0.1388 0
M  V30 25 H 0.8436 -1.8306 -3.1845 0
M  V30 26 H -1.0675 -0.3874 -2.292 0
M  V30 27 H -0.0456 0.1411 -3.6206 0
M  V30 28 H 2.1413 1.4745 -3.1281 0
M  V30 29 H 2.5114 1.9352 -1.4671 0
M  V30 30 H -0.236 -0.9865 0.2133 0
M  V30 31 H -1.5317 0.1774 -0.1479 0
M  V30 32 H -1.6646 1.9664 -1.7853 0
M  V30 33 H -2.0189 1.5606 -3.4599 0
M  V30 34 H 0.5755 3.394 -1.3301 0
M  V30 35 H 1.549 3.8127 -2.7336 0
M  V30 36 H 0.4194 0.3437 2.1811 0
M  V30 37 H -0.8605 1.4929 1.923 0
M  V30 38 H 0.0086 2.6725 -4.2426 0
M  V30 39 H -0.9051 3.7893 -3.2328 0
M  V30 40 H -3.1309 0.9238 2.9864 0
M  V30 41 H -3.1049 0.2875 1.3502 0
M  V30 42 H -0.9693 0.5984 4.3677 0
M  V30 43 H -1.986 -0.8095 4.6238 0
M  V30 44 H -4.9419 -0.7388 2.488 0
M  V30 45 H -3.9232 -1.3313 3.8 0
M  V30 46 H -3.7284 -1.9836 2.1613 0
M  V30 47 H 0.2159 -1.367 5.3775 0
M  V30 48 H 0.9534 -0.9533 3.8297 0
M  V30 49 H -0.146 -2.3407 3.9457 0
M  V30 END ATOM
M  V30 BEGIN BOND
M  V30 1 1 1 2
M  V30 2 2 2 3
M  V30 3 1 2 4
M  V30 4 1 3 5
M  V30 5 2 4 6
M  V30 6 2 5 7
M  V30 7 1 7 8
M  V30 8 1 8 9
M  V30 9 1 8 10
M  V30 10 1 8 11
M  V30 11 1 9 12
M  V30 12 1 10 13
M  V30 13 1 11 14
M  V30 14 1 12 15
M  V30 15 1 13 16
M  V30 16 1 15 17
M  V30 17 1 17 18
M  V30 18 1 17 19
M  V30 19 1 18 20
M  V30 20 1 19 21
M  V30 21 1 6 7
M  V30 22 1 14 16
M  V30 23 1 3 22
M  V30 24 1 4 23
M  V30 25 1 5 24
M  V30 26 1 6 25
M  V30 27 1 10 26
M  V30 28 1 10 27
M  V30 29 1 11 28
M  V30 30 1 11 29
M  V30 31 1 12 30
M  V30 32 1 12 31
M  V30 33 1 13 32
M  V30 34 1 13 33
M  V30 35 1 14 34
M  V30 36 1 14 35
M  V30 37 1 15 36
M  V30 38 1 15 37
M  V30 39 1 16 38
M  V30 40 1 16 39
M  V30 41 1 18 40
M  V30 42 1 18 41
M  V30 43 1 19 42
M  V30 44 1 19 43
M  V30 45 1 20 44
M  V30 46 1 20 45
M  V30 47 1 20 46
M  V30 48 1 21 47
M  V30 49 1 21 48
M  V30 50 1 21 49
M  V30 END BOND
M  V30 END CTAB
M  END
>  <NO.>
1603

>  <Name>
clofenciclan

>  <SMILES>
CCN(CC)CCOC1(c2ccc(Cl)cc2)CCCCC1

>  <logBB>


>  <Class>
1

>  <MW>
309.19

>  <nHBAcc>
2

>  <nHBDon>
0

>  <SLogP>
4.86

>  <TopoPSA>
12.47

>  <MMFF94 Energy>
61.513

$$$$
CCN(CC)S(=O)(=O)N[C@H]1C[C@@H]2c3cccc4[nH]cc(c34)C[C@H]2N(C)C1
Actelion Java MolfileCreator 2.0

  0  0  0  0  0  0              0 V3000
M  V30 BEGIN CTAB
M  V30 COUNTS 54 57 0 0 0
M  V30 BEGIN ATOM
M  V30 1 S -1.3695 0.6443 -3.1439 0
M  V30 2 O -1.0983 -0.3262 -4.1751 0
M  V30 3 O -1.0794 2.0464 -3.3295 0
M  V30 4 N -2.9839 0.4791 -2.6449 0
M  V30 5 N -0.5717 0.1513 -1.7593 0
M  V30 6 C -3.5491 -0.9032 -2.6671 0
M  V30 7 C -3.9102 1.4633 -3.2785 0
M  V30 8 C -0.5699 1.0942 -0.6008 0 CFG=2
M  V30 9 C -2.9582 -1.8116 -1.6073 0
M  V30 10 C -4.2252 2.561 -2.2774 0
M  V30 11 C 0.6769 1.9971 -0.677 0
M  V30 12 C -0.534 0.2768 0.6938 0
M  V30 13 N 1.9214 1.1877 -0.6608 0
M  V30 14 C 0.7841 -0.4991 0.8532 0 CFG=1
M  V30 15 C 2.0338 0.4686 0.6444 0 CFG=1
M  V30 16 C 3.0629 2.0736 -0.9122 0
M  V30 17 C 0.8871 -1.2435 2.1751 0
M  V30 18 C 3.4005 -0.3046 0.8146 0
M  V30 19 C 2.179 -1.4898 2.656 0
M  V30 20 C -0.1652 -1.7821 2.9272 0
M  V30 21 C 3.4035 -1.0897 2.0844 0
M  V30 22 C 2.4267 -2.1919 3.819 0
M  V30 23 C 0.084 -2.4924 4.1126 0
M  V30 24 C 4.4009 -1.5571 2.9084 0
M  V30 25 N 3.7975 -2.2226 3.957 0
M  V30 26 C 1.3867 -2.7112 4.5894 0
M  V30 27 H 0.3967 -0.0831 -2.0049 0
M  V30 28 H -4.6261 -0.8438 -2.4648 0
M  V30 29 H -3.4445 -1.3424 -3.6651 0
M  V30 30 H -3.4805 1.8894 -4.1916 0
M  V30 31 H -4.8449 0.984 -3.5905 0
M  V30 32 H -1.4823 1.7003 -0.5998 0
M  V30 33 H -3.5108 -2.7565 -1.5759 0
M  V30 34 H -1.9139 -2.0583 -1.8143 0
M  V30 35 H -3.0228 -1.3531 -0.6168 0
M  V30 36 H -4.918 3.2871 -2.7138 0
M  V30 37 H -4.6873 2.1462 -1.3753 0
M  V30 38 H -3.3195 3.0949 -1.9729 0
M  V30 39 H 0.6687 2.7163 0.1529 0
M  V30 40 H 0.6401 2.5821 -1.6021 0
M  V30 41 H -1.3841 -0.4134 0.7103 0
M  V30 42 H -0.6654 0.9559 1.547 0
M  V30 43 H 0.8264 -1.2714 0.0715 0
M  V30 44 H 2.0022 1.2178 1.4525 0
M  V30 45 H 3.2228 2.7842 -0.0936 0
M  V30 46 H 3.9811 1.4994 -1.0691 0
M  V30 47 H 2.9138 2.6439 -1.8364 0
M  V30 48 H 3.5505 -0.985 -0.0321 0
M  V30 49 H 4.2387 0.4002 0.8393 0
M  V30 50 H -1.1951 -1.6658 2.6009 0
M  V30 51 H -0.7571 -2.8933 4.6752 0
M  V30 52 H 5.4782 -1.4819 2.8518 0
M  V30 53 H 4.2874 -2.6738 4.7165 0
M  V30 54 H 1.5669 -3.2661 5.5029 0
M  V30 END ATOM
M  V30 BEGIN BOND
M  V30 1 2 1 2
M  V30 2 2 1 3
M  V30 3 1 1 4
M  V30 4 1 1 5
M  V30 5 1 4 6
M  V30 6 1 4 7
M  V30 7 1 5 8
M  V30 8 1 6 9
M  V30 9 1 7 10
M  V30 10 1 8 11
M  V30 11 1 8 12
M  V30 12 1 11 13
M  V30 13 1 12 14
M  V30 14 1 13 15
M  V30 15 1 13 16
M  V30 16 1 14 17
M  V30 17 1 15 18
M  V30 18 2 17 19
M  V30 19 1 17 20
M  V30 20 1 18 21
M  V30 21 1 19 22
M  V30 22 2 20 23
M  V30 23 2 21 24
M  V30 24 1 22 25
M  V30 25 2 22 26
M  V30 26 1 14 15
M  V30 27 1 19 21
M  V30 28 1 23 26
M  V30 29 1 24 25
M  V30 30 1 5 27
M  V30 31 1 6 28
M  V30 32 1 6 29
M  V30 33 1 7 30
M  V30 34 1 7 31
M  V30 35 1 8 32
M  V30 36 1 9 33
M  V30 37 1 9 34
M  V30 38 1 9 35
M  V30 39 1 10 36
M  V30 40 1 10 37
M  V30 41 1 10 38
M  V30 42 1 11 39
M  V30 43 1 11 40
M  V30 44 1 12 41
M  V30 45 1 12 42
M  V30 46 1 14 43
M  V30 47 1 15 44
M  V30 48 1 16 45
M  V30 49 1 16 46
M  V30 50 1 16 47
M  V30 51 1 18 48
M  V30 52 1 18 49
M  V30 53 1 20 50
M  V30 54 1 23 51
M  V30 55 1 24 52
M  V30 56 1 25 53
M  V30 57 1 26 54
M  V30 END BOND
M  V30 BEGIN COLLECTION
M  V30 MDLV30/STEABS ATOMS=(3 8 14 15)
M  V30 END COLLECTION
M  V30 END CTAB
M  END
>  <NO.>
1605

>  <Name>
etisulergine

>  <SMILES>
CCN(CC)S(=O)(=O)N[C@H]1C[C@@H]2c3cccc4[nH]cc(c34)C[C@H]2N(C)C1

>  <logBB>


>  <Class>
1

>  <MW>
376.19

>  <nHBAcc>
3

>  <nHBDon>
2

>  <SLogP>
2.06

>  <TopoPSA>
68.44

>  <MMFF94 Energy>
-113.21

$$$$
CCN(CC)c1ccc(NC(=O)c2ccccc2N)c(C)c1
Actelion Java MolfileCreator 2.0

  0  0  0  0  0  0              0 V3000
M  V30 BEGIN CTAB
M  V30 COUNTS 45 46 0 0 0
M  V30 BEGIN ATOM
M  V30 1 O -0.0781 -0.9378 3.2855 0
M  V30 2 C 0.7893 -0.1757 2.8756 0
M  V30 3 N 0.9094 0.3335 1.5958 0
M  V30 4 C 1.8176 0.3266 3.8354 0
M  V30 5 C 0.1141 0.0388 0.4689 0
M  V30 6 C 3.1599 0.5617 3.4696 0
M  V30 7 C 1.3875 0.5717 5.1502 0
M  V30 8 C 0.1977 0.8605 -0.665 0
M  V30 9 C -0.7286 -1.0669 0.4228 0
M  V30 10 N 3.649 0.3509 2.1774 0
M  V30 11 C 4.0095 1.1477 4.4187 0
M  V30 12 C 2.2648 1.107 6.0909 0
M  V30 13 C -0.5735 0.5456 -1.8086 0
M  V30 14 C 1.0877 2.0738 -0.7134 0
M  V30 15 C -1.4852 -1.3525 -0.725 0
M  V30 16 C 3.5717 1.4072 5.7207 0
M  V30 17 C -1.4381 -0.5607 -1.8804 0
M  V30 18 N -2.189 -0.8501 -3.015 0
M  V30 19 C -2.9979 -2.0718 -3.1222 0
M  V30 20 C -2.2374 0.0499 -4.174 0
M  V30 21 C -4.3878 -1.8619 -2.5381 0
M  V30 22 C -1.1042 -0.248 -5.1453 0
M  V30 23 H 1.635 1.0328 1.476 0
M  V30 24 H 0.3582 0.3599 5.4347 0
M  V30 25 H -0.8214 -1.7446 1.2662 0
M  V30 26 H 3.1806 -0.3495 1.6061 0
M  V30 27 H 4.6478 0.435 2.0252 0
M  V30 28 H 5.0361 1.3926 4.157 0
M  V30 29 H 1.9235 1.3016 7.1045 0
M  V30 30 H -0.4701 1.203 -2.6665 0
M  V30 31 H 0.9557 2.6378 -1.6428 0
M  V30 32 H 0.8523 2.7532 0.1123 0
M  V30 33 H 2.1388 1.7741 -0.6547 0
M  V30 34 H -2.125 -2.2274 -0.6684 0
M  V30 35 H 4.2552 1.8423 6.4457 0
M  V30 36 H -2.5011 -2.9323 -2.6604 0
M  V30 37 H -3.108 -2.3485 -4.1786 0
M  V30 38 H -2.2335 1.1035 -3.8732 0
M  V30 39 H -3.1885 -0.0837 -4.7056 0
M  V30 40 H -4.9116 -1.0495 -3.0528 0
M  V30 41 H -4.3484 -1.6085 -1.4745 0
M  V30 42 H -4.9847 -2.7727 -2.6475 0
M  V30 43 H -1.1558 -1.2816 -5.5031 0
M  V30 44 H -0.1233 -0.107 -4.6818 0
M  V30 45 H -1.1673 0.4148 -6.0138 0
M  V30 END ATOM
M  V30 BEGIN BOND
M  V30 1 2 1 2
M  V30 2 1 2 3
M  V30 3 1 2 4
M  V30 4 1 3 5
M  V30 5 2 4 6
M  V30 6 1 4 7
M  V30 7 2 5 8
M  V30 8 1 5 9
M  V30 9 1 6 10
M  V30 10 1 6 11
M  V30 11 2 7 12
M  V30 12 1 8 13
M  V30 13 1 8 14
M  V30 14 2 9 15
M  V30 15 2 11 16
M  V30 16 2 13 17
M  V30 17 1 17 18
M  V30 18 1 18 19
M  V30 19 1 18 20
M  V30 20 1 19 21
M  V30 21 1 20 22
M  V30 22 1 12 16
M  V30 23 1 15 17
M  V30 24 1 3 23
M  V30 25 1 7 24
M  V30 26 1 9 25
M  V30 27 1 10 26
M  V30 28 1 10 27
M  V30 29 1 11 28
M  V30 30 1 12 29
M  V30 31 1 13 30
M  V30 32 1 14 31
M  V30 33 1 14 32
M  V30 34 1 14 33
M  V30 35 1 15 34
M  V30 36 1 16 35
M  V30 37 1 19 36
M  V30 38 1 19 37
M  V30 39 1 20 38
M  V30 40 1 20 39
M  V30 41 1 21 40
M  V30 42 1 21 41
M  V30 43 1 21 42
M  V30 44 1 22 43
M  V30 45 1 22 44
M  V30 46 1 22 45
M  V30 END BOND
M  V30 END CTAB
M  END
>  <NO.>
1606

>  <Name>
atolide

>  <SMILES>
CCN(CC)c1ccc(NC(=O)c2ccccc2N)c(C)c1

>  <logBB>


>  <Class>
1

>  <MW>
297.18

>  <nHBAcc>
3

>  <nHBDon>
2

>  <SLogP>
3.68

>  <TopoPSA>
58.36

>  <MMFF94 Energy>
50.941

$$$$
CCN1C(=O)NC(c2ccccc2)C1=O
Actelion Java MolfileCreator 2.0

  0  0  0  0  0  0              0 V3000
M  V30 BEGIN CTAB
M  V30 COUNTS 27 28 0 0 0
M  V30 BEGIN ATOM
M  V30 1 O -0.6323 -2.4522 2.2938 0
M  V30 2 C -0.3809 -1.9278 1.2221 0
M  V30 3 N -1.2572 -1.5971 0.2332 0
M  V30 4 N 0.884 -1.5632 0.8282 0
M  V30 5 C -0.6006 -1.0084 -0.816 0
M  V30 6 C -2.687 -1.8128 0.2954 0
M  V30 7 C 0.8918 -0.9509 -0.4736 0 CFG=1
M  V30 8 O -1.1126 -0.6056 -1.8527 0
M  V30 9 C -3.4016 -0.6152 0.9012 0
M  V30 10 C 1.4646 0.4445 -0.4714 0
M  V30 11 C 1.2189 1.3495 0.5751 0
M  V30 12 C 2.2405 0.8751 -1.5596 0
M  V30 13 C 1.7504 2.6404 0.541 0
M  V30 14 C 2.7704 2.1667 -1.5916 0
M  V30 15 C 2.5272 3.0476 -0.5406 0
M  V30 16 H 1.6922 -1.713 1.4159 0
M  V30 17 H -2.886 -2.7026 0.9022 0
M  V30 18 H -3.0635 -1.9887 -0.7178 0
M  V30 19 H 1.4434 -1.6195 -1.1432 0
M  V30 20 H -3.2251 0.2888 0.309 0
M  V30 21 H -3.0483 -0.4206 1.9194 0
M  V30 22 H -4.4804 -0.7946 0.9406 0
M  V30 23 H 0.6086 1.0604 1.4287 0
M  V30 24 H 2.4336 0.2091 -2.3985 0
M  V30 25 H 1.5537 3.3302 1.3582 0
M  V30 26 H 3.3684 2.4876 -2.441 0
M  V30 27 H 2.9373 4.0539 -0.5679 0
M  V30 END ATOM
M  V30 BEGIN BOND
M  V30 1 2 1 2
M  V30 2 1 2 3
M  V30 3 1 2 4
M  V30 4 1 3 5
M  V30 5 1 3 6
M  V30 6 1 4 7
M  V30 7 2 5 8
M  V30 8 1 6 9
M  V30 9 1 7 10
M  V30 10 2 10 11
M  V30 11 1 10 12
M  V30 12 1 11 13
M  V30 13 2 12 14
M  V30 14 2 13 15
M  V30 15 1 5 7
M  V30 16 1 14 15
M  V30 17 1 4 16
M  V30 18 1 6 17
M  V30 19 1 6 18
M  V30 20 1 7 19
M  V30 21 1 9 20
M  V30 22 1 9 21
M  V30 23 1 9 22
M  V30 24 1 11 23
M  V30 25 1 12 24
M  V30 26 1 13 25
M  V30 27 1 14 26
M  V30 28 1 15 27
M  V30 END BOND
M  V30 BEGIN COLLECTION
M  V30 MDLV30/STERAC1 ATOMS=(1 7)
M  V30 END COLLECTION
M  V30 END CTAB
M  END
>  <NO.>
1608

>  <Name>
ethotoin

>  <SMILES>
CCN1C(=O)NC(c2ccccc2)C1=O

>  <logBB>


>  <Class>
1

>  <MW>
204.09

>  <nHBAcc>
2

>  <nHBDon>
1

>  <SLogP>
1.3

>  <TopoPSA>
49.41

>  <MMFF94 Energy>
-37.248

$$$$
CCN1CC(CCN2CCOCC2)C(c2ccccc2)(c2ccccc2)C1=O
Actelion Java MolfileCreator 2.0

  0  0  0  0  0  0              0 V3000
M  V30 BEGIN CTAB
M  V30 COUNTS 58 61 0 0 0
M  V30 BEGIN ATOM
M  V30 1 O -1.2768 1.2768 -2.9546 0
M  V30 2 C -0.4072 0.7327 -2.2872 0
M  V30 3 N 0.082 -0.5476 -2.5303 0
M  V30 4 C 0.3926 1.3373 -1.0904 0
M  V30 5 C 1.1153 -0.9275 -1.6068 0
M  V30 6 C -0.3593 -1.4049 -3.6136 0
M  V30 7 C 1.5336 2.2046 -1.7072 0
M  V30 8 C -0.4178 2.198 -0.0961 0
M  V30 9 C 0.8707 -0.0116 -0.403 0 CFG=2
M  V30 10 C -1.3761 -2.428 -3.1375 0
M  V30 11 C 2.9004 1.9988 -1.4517 0
M  V30 12 C 1.1859 3.2843 -2.5474 0
M  V30 13 C 0.2546 2.8559 0.9564 0
M  V30 14 C -1.8145 2.3349 -0.1593 0
M  V30 15 C -0.1727 -0.6604 0.557 0
M  V30 16 C 3.8744 2.8227 -2.027 0
M  V30 17 C 2.159 4.1054 -3.1205 0
M  V30 18 C -0.439 3.6241 1.8944 0
M  V30 19 C -2.5075 3.104 0.781 0
M  V30 20 C 0.4036 -1.8486 1.3501 0
M  V30 21 C 3.5047 3.8727 -2.8619 0
M  V30 22 C -1.8212 3.7483 1.8059 0
M  V30 23 N -0.6185 -2.5625 2.1323 0
M  V30 24 C -0.0429 -3.795 2.7187 0
M  V30 25 C -1.1752 -1.7369 3.2285 0
M  V30 26 C -1.0662 -4.5426 3.5868 0
M  V30 27 C -2.1646 -2.535 4.0953 0
M  V30 28 O -1.5501 -3.707 4.6454 0
M  V30 29 H 1.0451 -1.9935 -1.383 0
M  V30 30 H 2.0824 -0.7361 -2.0828 0
M  V30 31 H 0.5186 -1.8986 -4.0428 0
M  V30 32 H -0.8139 -0.785 -4.3938 0
M  V30 33 H 1.785 0.1241 0.1826 0
M  V30 34 H -2.2537 -1.9354 -2.7053 0
M  V30 35 H -0.9504 -3.0821 -2.3697 0
M  V30 36 H -1.7084 -3.0522 -3.9724 0
M  V30 37 H 3.2511 1.2049 -0.8013 0
M  V30 38 H 0.1383 3.4982 -2.7615 0
M  V30 39 H 1.3359 2.7795 1.0522 0
M  V30 40 H -2.3993 1.8467 -0.9352 0
M  V30 41 H -0.5035 0.0835 1.286 0
M  V30 42 H -1.0596 -0.9814 -0.0034 0
M  V30 43 H 4.9265 2.6449 -1.8184 0
M  V30 44 H 1.8601 4.9271 -3.7662 0
M  V30 45 H 0.1025 4.1282 2.6903 0
M  V30 46 H -3.5881 3.1992 0.7071 0
M  V30 47 H 0.8501 -2.5602 0.6483 0
M  V30 48 H 1.2154 -1.4958 1.9997 0
M  V30 49 H 4.263 4.5115 -3.3062 0
M  V30 50 H -2.3634 4.3484 2.5315 0
M  V30 51 H 0.293 -4.466 1.9198 0
M  V30 52 H 0.8278 -3.5403 3.3373 0
M  V30 53 H -0.3612 -1.369 3.8666 0
M  V30 54 H -1.7116 -0.8718 2.826 0
M  V30 55 H -0.5935 -5.4168 4.0459 0
M  V30 56 H -1.9134 -4.8985 2.9879 0
M  V30 57 H -2.5039 -1.9165 4.9326 0
M  V30 58 H -3.0505 -2.8275 3.5185 0
M  V30 END ATOM
M  V30 BEGIN BOND
M  V30 1 2 1 2
M  V30 2 1 2 3
M  V30 3 1 2 4
M  V30 4 1 3 5
M  V30 5 1 3 6
M  V30 6 1 4 7
M  V30 7 1 4 8
M  V30 8 1 4 9
M  V30 9 1 6 10
M  V30 10 2 7 11
M  V30 11 1 7 12
M  V30 12 2 8 13
M  V30 13 1 8 14
M  V30 14 1 9 15
M  V30 15 1 11 16
M  V30 16 2 12 17
M  V30 17 1 13 18
M  V30 18 2 14 19
M  V30 19 1 15 20
M  V30 20 2 16 21
M  V30 21 2 18 22
M  V30 22 1 20 23
M  V30 23 1 23 24
M  V30 24 1 23 25
M  V30 25 1 24 26
M  V30 26 1 25 27
M  V30 27 1 26 28
M  V30 28 1 5 9
M  V30 29 1 17 21
M  V30 30 1 19 22
M  V30 31 1 27 28
M  V30 32 1 5 29
M  V30 33 1 5 30
M  V30 34 1 6 31
M  V30 35 1 6 32
M  V30 36 1 9 33
M  V30 37 1 10 34
M  V30 38 1 10 35
M  V30 39 1 10 36
M  V30 40 1 11 37
M  V30 41 1 12 38
M  V30 42 1 13 39
M  V30 43 1 14 40
M  V30 44 1 15 41
M  V30 45 1 15 42
M  V30 46 1 16 43
M  V30 47 1 17 44
M  V30 48 1 18 45
M  V30 49 1 19 46
M  V30 50 1 20 47
M  V30 51 1 20 48
M  V30 52 1 21 49
M  V30 53 1 22 50
M  V30 54 1 24 51
M  V30 55 1 24 52
M  V30 56 1 25 53
M  V30 57 1 25 54
M  V30 58 1 26 55
M  V30 59 1 26 56
M  V30 60 1 27 57
M  V30 61 1 27 58
M  V30 END BOND
M  V30 BEGIN COLLECTION
M  V30 MDLV30/STERAC1 ATOMS=(1 9)
M  V30 END COLLECTION
M  V30 END CTAB
M  END
>  <NO.>
1609

>  <Name>
doxapram

>  <SMILES>
CCN1CC(CCN2CCOCC2)C(c2ccccc2)(c2ccccc2)C1=O

>  <logBB>


>  <Class>
1

>  <MW>
378.23

>  <nHBAcc>
3

>  <nHBDon>
0

>  <SLogP>
3.17

>  <TopoPSA>
32.78

>  <MMFF94 Energy>
139.2

$$$$
CCN1CCC(=C(c2ccccc2)c2ccccc2)C1
Actelion Java MolfileCreator 2.0

  0  0  0  0  0  0              0 V3000
M  V30 BEGIN CTAB
M  V30 COUNTS 41 43 0 0 0
M  V30 BEGIN ATOM
M  V30 1 N -2.8547 0.7131 -0.7131 0
M  V30 2 C -1.8744 0.2278 0.2856 0
M  V30 3 C -2.185 1.8909 -1.2966 0
M  V30 4 C -3.1468 -0.2992 -1.7399 0
M  V30 5 C -0.506 0.6103 -0.2272 0
M  V30 6 C -0.7051 1.5422 -1.3935 0
M  V30 7 C -4.105 -1.3659 -1.2192 0
M  V30 8 C 0.6819 0.1879 0.2649 0
M  V30 9 C 1.937 0.6256 -0.3903 0
M  V30 10 C 0.6997 -0.7036 1.4484 0
M  V30 11 C 2.307 0.1196 -1.6437 0
M  V30 12 C 2.7798 1.5397 0.2537 0
M  V30 13 C 0.3745 -0.2149 2.721 0
M  V30 14 C 1.0612 -2.0486 1.3043 0
M  V30 15 C 3.4957 0.5321 -2.2485 0
M  V30 16 C 3.9685 1.9511 -0.3523 0
M  V30 17 C 0.3979 -1.0629 3.8298 0
M  V30 18 C 1.0846 -2.8953 2.4143 0
M  V30 19 C 4.3248 1.4485 -1.603 0
M  V30 20 C 0.7515 -2.4025 3.6755 0
M  V30 21 H -2.0695 0.7599 1.2247 0
M  V30 22 H -1.9659 -0.8442 0.4823 0
M  V30 23 H -2.6046 2.1946 -2.2621 0
M  V30 24 H -2.3225 2.7417 -0.6158 0
M  V30 25 H -3.6451 0.183 -2.5903 0
M  V30 26 H -2.2385 -0.7741 -2.1302 0
M  V30 27 H -0.5004 1.0216 -2.3353 0
M  V30 28 H -0.0894 2.4441 -1.3277 0
M  V30 29 H -4.3785 -2.0485 -2.0306 0
M  V30 30 H -5.0272 -0.9142 -0.8381 0
M  V30 31 H -3.6605 -1.9655 -0.4195 0
M  V30 32 H 1.6705 -0.6003 -2.1521 0
M  V30 33 H 2.5139 1.9359 1.2307 0
M  V30 34 H 0.1034 0.8297 2.8539 0
M  V30 35 H 1.3254 -2.4433 0.3264 0
M  V30 36 H 3.7757 0.1363 -3.2209 0
M  V30 37 H 4.6169 2.6616 0.1534 0
M  V30 38 H 0.1425 -0.6775 4.8134 0
M  V30 39 H 1.3648 -3.9384 2.2945 0
M  V30 40 H 5.2512 1.7683 -2.0729 0
M  V30 41 H 0.771 -3.0623 4.539 0
M  V30 END ATOM
M  V30 BEGIN BOND
M  V30 1 1 1 2
M  V30 2 1 1 3
M  V30 3 1 1 4
M  V30 4 1 2 5
M  V30 5 1 3 6
M  V30 6 1 4 7
M  V30 7 2 5 8
M  V30 8 1 8 9
M  V30 9 1 8 10
M  V30 10 2 9 11
M  V30 11 1 9 12
M  V30 12 2 10 13
M  V30 13 1 10 14
M  V30 14 1 11 15
M  V30 15 2 12 16
M  V30 16 1 13 17
M  V30 17 2 14 18
M  V30 18 2 15 19
M  V30 19 2 17 20
M  V30 20 1 5 6
M  V30 21 1 16 19
M  V30 22 1 18 20
M  V30 23 1 2 21
M  V30 24 1 2 22
M  V30 25 1 3 23
M  V30 26 1 3 24
M  V30 27 1 4 25
M  V30 28 1 4 26
M  V30 29 1 6 27
M  V30 30 1 6 28
M  V30 31 1 7 29
M  V30 32 1 7 30
M  V30 33 1 7 31
M  V30 34 1 11 32
M  V30 35 1 12 33
M  V30 36 1 13 34
M  V30 37 1 14 35
M  V30 38 1 15 36
M  V30 39 1 16 37
M  V30 40 1 17 38
M  V30 41 1 18 39
M  V30 42 1 19 40
M  V30 43 1 20 41
M  V30 END BOND
M  V30 END CTAB
M  END
>  <NO.>
1610

>  <Name>
pridefine

>  <SMILES>
CCN1CCC(=C(c2ccccc2)c2ccccc2)C1

>  <logBB>


>  <Class>
1

>  <MW>
263.17

>  <nHBAcc>
1

>  <nHBDon>
0

>  <SLogP>
4.21

>  <TopoPSA>
3.24

>  <MMFF94 Energy>
57.98

$$$$
CCN1CCCC1CNC(=O)c1cc(C(C)=O)ccc1OC
Actelion Java MolfileCreator 2.0

  0  0  0  0  0  0              0 V3000
M  V30 BEGIN CTAB
M  V30 COUNTS 46 47 0 0 0
M  V30 BEGIN ATOM
M  V30 1 O 1.0238 -0.4724 2.9161 0
M  V30 2 C 0.596 -0.101 1.8306 0
M  V30 3 N 0.0991 -0.9485 0.8715 0
M  V30 4 C 0.618 1.332 1.4492 0
M  V30 5 C 0.0759 -2.3894 1.0364 0
M  V30 6 C 0.1476 2.3204 2.3197 0
M  V30 7 C 1.1518 1.6996 0.2051 0
M  V30 8 C -0.8638 -3.0565 0.0148 0 CFG=2
M  V30 9 O -0.4477 1.9989 3.5098 0
M  V30 10 C 0.1715 3.6628 1.9328 0
M  V30 11 C 1.1959 3.048 -0.1778 0
M  V30 12 N -0.8176 -2.4499 -1.3376 0
M  V30 13 C -2.3362 -2.8848 0.4011 0
M  V30 14 C 0.4682 2.1782 4.5917 0
M  V30 15 C 0.6996 4.0282 0.6907 0
M  V30 16 C 1.7698 3.3855 -1.5144 0
M  V30 17 C -2.0345 -2.932 -2.0 0
M  V30 18 C 0.4049 -2.8041 -2.0686 0
M  V30 19 C -3.097 -2.8351 -0.9174 0
M  V30 20 O 2.131 2.4836 -2.2673 0
M  V30 21 C 1.8903 4.8323 -1.9152 0
M  V30 22 C 0.5109 -2.0703 -3.4008 0
M  V30 23 H -0.2378 -0.604 -0.0223 0
M  V30 24 H -0.2167 -2.6341 2.0637 0
M  V30 25 H 1.1046 -2.7375 0.8915 0
M  V30 26 H 1.5488 0.9351 -0.4609 0
M  V30 27 H -0.6427 -4.132 -0.0315 0
M  V30 28 H -0.2352 4.4239 2.5945 0
M  V30 29 H -2.6792 -3.7165 1.0261 0
M  V30 30 H -2.5144 -1.9581 0.9598 0
M  V30 31 H 1.4457 1.7274 4.3874 0
M  V30 32 H 0.045 1.689 5.474 0
M  V30 33 H 0.5865 3.2433 4.8175 0
M  V30 34 H 0.7015 5.0814 0.4243 0
M  V30 35 H -2.3057 -2.3238 -2.8684 0
M  V30 36 H -1.9319 -3.976 -2.3226 0
M  V30 37 H 1.282 -2.5199 -1.4759 0
M  V30 38 H 0.47 -3.8863 -2.2369 0
M  V30 39 H -3.6444 -1.8881 -0.9934 0
M  V30 40 H -3.8244 -3.6494 -0.9964 0
M  V30 41 H 0.8984 5.2821 -2.0084 0
M  V30 42 H 2.5009 5.3783 -1.1913 0
M  V30 43 H 2.3869 4.895 -2.8886 0
M  V30 44 H 1.4787 -2.2817 -3.8672 0
M  V30 45 H 0.4359 -0.9865 -3.261 0
M  V30 46 H -0.2687 -2.3846 -4.1014 0
M  V30 END ATOM
M  V30 BEGIN BOND
M  V30 1 2 1 2
M  V30 2 1 2 3
M  V30 3 1 2 4
M  V30 4 1 3 5
M  V30 5 2 4 6
M  V30 6 1 4 7
M  V30 7 1 5 8
M  V30 8 1 6 9
M  V30 9 1 6 10
M  V30 10 2 7 11
M  V30 11 1 8 12
M  V30 12 1 8 13
M  V30 13 1 9 14
M  V30 14 2 10 15
M  V30 15 1 11 16
M  V30 16 1 12 17
M  V30 17 1 12 18
M  V30 18 1 13 19
M  V30 19 2 16 20
M  V30 20 1 16 21
M  V30 21 1 18 22
M  V30 22 1 11 15
M  V30 23 1 17 19
M  V30 24 1 3 23
M  V30 25 1 5 24
M  V30 26 1 5 25
M  V30 27 1 7 26
M  V30 28 1 8 27
M  V30 29 1 10 28
M  V30 30 1 13 29
M  V30 31 1 13 30
M  V30 32 1 14 31
M  V30 33 1 14 32
M  V30 34 1 14 33
M  V30 35 1 15 34
M  V30 36 1 17 35
M  V30 37 1 17 36
M  V30 38 1 18 37
M  V30 39 1 18 38
M  V30 40 1 19 39
M  V30 41 1 19 40
M  V30 42 1 21 41
M  V30 43 1 21 42
M  V30 44 1 21 43
M  V30 45 1 22 44
M  V30 46 1 22 45
M  V30 47 1 22 46
M  V30 END BOND
M  V30 BEGIN COLLECTION
M  V30 MDLV30/STERAC1 ATOMS=(1 8)
M  V30 END COLLECTION
M  V30 END CTAB
M  END
>  <NO.>
1611

>  <Name>
etacepride

>  <SMILES>
CCN1CCCC1CNC(=O)c1cc(C(C)=O)ccc1OC

>  <logBB>


>  <Class>
1

>  <MW>
304.18

>  <nHBAcc>
4

>  <nHBDon>
1

>  <SLogP>
2.11

>  <TopoPSA>
58.64

>  <MMFF94 Energy>
53.986

$$$$
CCN1CCCC1CNC(=O)c1cc(S(=O)(=O)CC)c(N)cc1OC
Actelion Java MolfileCreator 2.0

  0  0  0  0  0  0              0 V3000
M  V30 BEGIN CTAB
M  V30 COUNTS 52 53 0 0 0
M  V30 BEGIN ATOM
M  V30 1 S 2.3896 -1.1942 -2.3896 0
M  V30 2 O 2.3909 -1.6879 -3.7562 0
M  V30 3 O 2.4491 0.2353 -2.1393 0
M  V30 4 C 0.9291 -1.7986 -1.5656 0
M  V30 5 C 3.7421 -1.9487 -1.5112 0
M  V30 6 C 0.1941 -2.8856 -2.0638 0
M  V30 7 C 0.519 -1.1122 -0.4109 0
M  V30 8 C 3.7698 -3.4593 -1.6091 0
M  V30 9 N 0.5778 -3.6273 -3.1736 0
M  V30 10 C -0.9052 -3.3291 -1.3139 0
M  V30 11 C -0.6065 -1.5464 0.2969 0
M  V30 12 C -1.2997 -2.6751 -0.1401 0
M  V30 13 C -1.0028 -0.8236 1.528 0
M  V30 14 O -2.4349 -3.1014 0.4958 0
M  V30 15 O -1.1775 -1.4229 2.5807 0
M  V30 16 N -1.1049 0.5368 1.385 0
M  V30 17 C -2.1492 -4.2255 1.33 0
M  V30 18 C -1.4609 1.4247 2.476 0
M  V30 19 C -0.8964 2.8393 2.2416 0 CFG=2
M  V30 20 N -1.0956 3.2994 0.8437 0
M  V30 21 C 0.6267 2.8868 2.4459 0
M  V30 22 C -0.004 4.2402 0.5773 0
M  V30 23 C -2.424 3.885 0.6365 0
M  V30 24 C 1.1857 3.5263 1.1851 0
M  V30 25 C -2.6914 4.2049 -0.8294 0
M  V30 26 H 3.6831 -1.6258 -0.4672 0
M  V30 27 H 4.658 -1.5309 -1.9418 0
M  V30 28 H 1.0814 -0.2518 -0.0517 0
M  V30 29 H 4.6612 -3.8522 -1.1104 0
M  V30 30 H 2.896 -3.9081 -1.1284 0
M  V30 31 H 3.7909 -3.7912 -2.6516 0
M  V30 32 H -0.0631 -4.3015 -3.5734 0
M  V30 33 H 1.2284 -3.194 -3.8358 0
M  V30 34 H -1.4823 -4.1862 -1.6532 0
M  V30 35 H -1.0272 0.9809 0.4747 0
M  V30 36 H -2.0072 -5.1257 0.723 0
M  V30 37 H -3.0132 -4.3878 1.9812 0
M  V30 38 H -1.2715 -4.0569 1.9639 0
M  V30 39 H -1.1046 1.0099 3.4252 0
M  V30 40 H -2.5554 1.451 2.5128 0
M  V30 41 H -1.3555 3.5342 2.9578 0
M  V30 42 H 0.8617 3.5129 3.315 0
M  V30 43 H 1.0812 1.9047 2.6134 0
M  V30 44 H 0.1489 4.4132 -0.4919 0
M  V30 45 H -0.165 5.2039 1.0766 0
M  V30 46 H -3.1906 3.1696 0.9569 0
M  V30 47 H -2.5587 4.7906 1.241 0
M  V30 48 H 1.5502 2.7465 0.5048 0
M  V30 49 H 2.017 4.2047 1.3986 0
M  V30 50 H -3.7258 4.5411 -0.9555 0
M  V30 51 H -2.5473 3.3205 -1.4589 0
M  V30 52 H -2.0384 5.0024 -1.197 0
M  V30 END ATOM
M  V30 BEGIN BOND
M  V30 1 2 1 2
M  V30 2 2 1 3
M  V30 3 1 1 4
M  V30 4 1 1 5
M  V30 5 2 4 6
M  V30 6 1 4 7
M  V30 7 1 5 8
M  V30 8 1 6 9
M  V30 9 1 6 10
M  V30 10 2 7 11
M  V30 11 2 10 12
M  V30 12 1 11 13
M  V30 13 1 12 14
M  V30 14 2 13 15
M  V30 15 1 13 16
M  V30 16 1 14 17
M  V30 17 1 16 18
M  V30 18 1 18 19
M  V30 19 1 19 20
M  V30 20 1 19 21
M  V30 21 1 20 22
M  V30 22 1 20 23
M  V30 23 1 21 24
M  V30 24 1 23 25
M  V30 25 1 11 12
M  V30 26 1 22 24
M  V30 27 1 5 26
M  V30 28 1 5 27
M  V30 29 1 7 28
M  V30 30 1 8 29
M  V30 31 1 8 30
M  V30 32 1 8 31
M  V30 33 1 9 32
M  V30 34 1 9 33
M  V30 35 1 10 34
M  V30 36 1 16 35
M  V30 37 1 17 36
M  V30 38 1 17 37
M  V30 39 1 17 38
M  V30 40 1 18 39
M  V30 41 1 18 40
M  V30 42 1 19 41
M  V30 43 1 21 42
M  V30 44 1 21 43
M  V30 45 1 22 44
M  V30 46 1 22 45
M  V30 47 1 23 46
M  V30 48 1 23 47
M  V30 49 1 24 48
M  V30 50 1 24 49
M  V30 51 1 25 50
M  V30 52 1 25 51
M  V30 53 1 25 52
M  V30 END BOND
M  V30 BEGIN COLLECTION
M  V30 MDLV30/STERAC1 ATOMS=(1 19)
M  V30 END COLLECTION
M  V30 END CTAB
M  END
>  <NO.>
1612

>  <Name>
amisulpride

>  <SMILES>
CCN1CCCC1CNC(=O)c1cc(S(=O)(=O)CC)c(N)cc1OC

>  <logBB>


>  <Class>
1

>  <MW>
369.17

>  <nHBAcc>
6

>  <nHBDon>
2

>  <SLogP>
1.29

>  <TopoPSA>
101.73

>  <MMFF94 Energy>
64.865

$$$$
CCN1CCCC1CNC(=O)c1cc(S(=O)(=O)CC)ccc1OC
Actelion Java MolfileCreator 2.0

  0  0  0  0  0  0              0 V3000
M  V30 BEGIN CTAB
M  V30 COUNTS 50 51 0 0 0
M  V30 BEGIN ATOM
M  V30 1 S 2.1571 3.117 1.4377 0
M  V30 2 O 3.0385 4.2565 1.2658 0
M  V30 3 O 0.7834 3.306 1.8638 0
M  V30 4 C 2.1249 2.2579 -0.1189 0
M  V30 5 C 2.9443 1.9783 2.5585 0
M  V30 6 C 0.9417 1.6528 -0.552 0
M  V30 7 C 3.2787 2.226 -0.9072 0
M  V30 8 C 2.1652 0.6953 2.7645 0
M  V30 9 C 0.9227 0.973 -1.7785 0
M  V30 10 C 3.254 1.5571 -2.1315 0
M  V30 11 C 2.0762 0.9434 -2.573 0
M  V30 12 C -0.3344 0.3178 -2.22 0
M  V30 13 O 2.1182 0.2279 -3.7397 0
M  V30 14 O -0.7703 0.4729 -3.3531 0
M  V30 15 N -0.9628 -0.4293 -1.2542 0
M  V30 16 C 1.9601 1.0969 -4.8634 0
M  V30 17 C -2.2522 -1.0597 -1.4639 0
M  V30 18 C -2.5791 -2.0429 -0.3238 0 CFG=2
M  V30 19 N -2.1392 -1.5801 1.0169 0
M  V30 20 C -1.8184 -3.3633 -0.4779 0
M  V30 21 C -2.164 -2.7894 1.8482 0
M  V30 22 C -2.9984 -0.5128 1.5462 0
M  V30 23 C -1.5821 -3.8618 0.9418 0
M  V30 24 C -2.4579 0.0618 2.8508 0
M  V30 25 H 3.0507 2.5077 3.5112 0
M  V30 26 H 3.9474 1.7705 2.1737 0
M  V30 27 H 0.0373 1.7187 0.0499 0
M  V30 28 H 4.1932 2.7177 -0.5814 0
M  V30 29 H 2.671 0.0613 3.4993 0
M  V30 30 H 1.1544 0.8985 3.1317 0
M  V30 31 H 2.0771 0.1247 1.8355 0
M  V30 32 H 4.1534 1.5064 -2.7405 0
M  V30 33 H -0.5771 -0.5326 -0.3216 0
M  V30 34 H 1.1209 1.7901 -4.7371 0
M  V30 35 H 1.7599 0.476 -5.7415 0
M  V30 36 H 2.8842 1.6558 -5.0455 0
M  V30 37 H -2.2565 -1.5599 -2.4386 0
M  V30 38 H -2.9947 -0.2545 -1.4977 0
M  V30 39 H -3.6561 -2.2616 -0.3296 0
M  V30 40 H -2.3982 -4.0866 -1.0615 0
M  V30 41 H -0.854 -3.2303 -0.9827 0
M  V30 42 H -1.5667 -2.6811 2.7588 0
M  V30 43 H -3.1881 -3.0636 2.1324 0
M  V30 44 H -3.0434 0.3132 0.8273 0
M  V30 45 H -4.0273 -0.8638 1.6942 0
M  V30 46 H -0.5065 -3.9791 1.1188 0
M  V30 47 H -2.0578 -4.8326 1.1146 0
M  V30 48 H -3.0677 0.916 3.1634 0
M  V30 49 H -1.4276 0.4127 2.7294 0
M  V30 50 H -2.4809 -0.6741 3.6603 0
M  V30 END ATOM
M  V30 BEGIN BOND
M  V30 1 2 1 2
M  V30 2 2 1 3
M  V30 3 1 1 4
M  V30 4 1 1 5
M  V30 5 2 4 6
M  V30 6 1 4 7
M  V30 7 1 5 8
M  V30 8 1 6 9
M  V30 9 2 7 10
M  V30 10 2 9 11
M  V30 11 1 9 12
M  V30 12 1 11 13
M  V30 13 2 12 14
M  V30 14 1 12 15
M  V30 15 1 13 16
M  V30 16 1 15 17
M  V30 17 1 17 18
M  V30 18 1 18 19
M  V30 19 1 18 20
M  V30 20 1 19 21
M  V30 21 1 19 22
M  V30 22 1 20 23
M  V30 23 1 22 24
M  V30 24 1 10 11
M  V30 25 1 21 23
M  V30 26 1 5 25
M  V30 27 1 5 26
M  V30 28 1 6 27
M  V30 29 1 7 28
M  V30 30 1 8 29
M  V30 31 1 8 30
M  V30 32 1 8 31
M  V30 33 1 10 32
M  V30 34 1 15 33
M  V30 35 1 16 34
M  V30 36 1 16 35
M  V30 37 1 16 36
M  V30 38 1 17 37
M  V30 39 1 17 38
M  V30 40 1 18 39
M  V30 41 1 20 40
M  V30 42 1 20 41
M  V30 43 1 21 42
M  V30 44 1 21 43
M  V30 45 1 22 44
M  V30 46 1 22 45
M  V30 47 1 23 46
M  V30 48 1 23 47
M  V30 49 1 24 48
M  V30 50 1 24 49
M  V30 51 1 24 50
M  V30 END BOND
M  V30 BEGIN COLLECTION
M  V30 MDLV30/STERAC1 ATOMS=(1 18)
M  V30 END COLLECTION
M  V30 END CTAB
M  END
>  <NO.>
1613

>  <Name>
sultopride

>  <SMILES>
CCN1CCCC1CNC(=O)c1cc(S(=O)(=O)CC)ccc1OC

>  <logBB>


>  <Class>
1

>  <MW>
354.16

>  <nHBAcc>
5

>  <nHBDon>
1

>  <SLogP>
1.7

>  <TopoPSA>
75.71

>  <MMFF94 Energy>
59.908

$$$$
CCN1CCC[C@H]1CNC(=O)c1c(OC)ccc(Br)c1OC
Actelion Java MolfileCreator 2.0

  0  0  0  0  0  0              0 V3000
M  V30 BEGIN CTAB
M  V30 COUNTS 45 46 0 0 0
M  V30 BEGIN ATOM
M  V30 1 Br -5.1048 -0.5573 -0.8759 0
M  V30 2 C -3.8317 -1.305 0.3181 0
M  V30 3 C -2.5836 -0.702 0.5354 0
M  V30 4 C -4.1687 -2.4905 0.9747 0
M  V30 5 O -2.2701 0.4492 -0.1472 0
M  V30 6 C -1.6484 -1.3189 1.3856 0
M  V30 7 C -3.2546 -3.0893 1.8398 0
M  V30 8 C -2.4932 1.5979 0.6773 0
M  V30 9 C -2.0048 -2.5007 2.0534 0
M  V30 10 C -0.298 -0.7376 1.5979 0
M  V30 11 O -1.1024 -3.1784 2.8313 0
M  V30 12 O 0.1471 -0.5866 2.7295 0
M  V30 13 N 0.3786 -0.3695 0.4564 0
M  V30 14 C -1.3549 -2.939 4.2173 0
M  V30 15 C 1.6897 0.2495 0.5188 0
M  V30 16 C 2.3734 0.3582 -0.8563 0 CFG=1
M  V30 17 N 2.0577 1.569 -1.6449 0
M  V30 18 C 3.8862 0.5061 -0.6986 0
M  V30 19 C 3.0857 1.6187 -2.691 0
M  V30 20 C 0.6929 1.5984 -2.1721 0
M  V30 21 C 4.3524 1.1147 -2.0124 0
M  V30 22 C 0.3945 2.8524 -2.9885 0
M  V30 23 H -5.1332 -2.964 0.8069 0
M  V30 24 H -3.505 -4.0282 2.3274 0
M  V30 25 H -2.3437 2.4861 0.0564 0
M  V30 26 H -1.777 1.6393 1.5038 0
M  V30 27 H -3.5178 1.6225 1.0642 0
M  V30 28 H -0.096 -0.4374 -0.4352 0
M  V30 29 H -1.5009 -1.8747 4.4338 0
M  V30 30 H -0.4839 -3.2851 4.7814 0
M  V30 31 H -2.226 -3.5128 4.5507 0
M  V30 32 H 1.5755 1.235 0.9859 0
M  V30 33 H 2.3012 -0.3587 1.1964 0
M  V30 34 H 2.1664 -0.5448 -1.4485 0
M  V30 35 H 4.375 -0.4534 -0.5013 0
M  V30 36 H 4.1347 1.1845 0.1277 0
M  V30 37 H 3.2288 2.6335 -3.0757 0
M  V30 38 H 2.8368 0.96 -3.5327 0
M  V30 39 H 0.483 0.7103 -2.7804 0
M  V30 40 H -0.0129 1.5993 -1.3366 0
M  V30 41 H 5.0623 1.9277 -1.8255 0
M  V30 42 H 4.8524 0.3664 -2.6366 0
M  V30 43 H -0.6668 2.8778 -3.2573 0
M  V30 44 H 0.9704 2.879 -3.9186 0
M  V30 45 H 0.6165 3.7587 -2.4154 0
M  V30 END ATOM
M  V30 BEGIN BOND
M  V30 1 1 1 2
M  V30 2 2 2 3
M  V30 3 1 2 4
M  V30 4 1 3 5
M  V30 5 1 3 6
M  V30 6 2 4 7
M  V30 7 1 5 8
M  V30 8 2 6 9
M  V30 9 1 6 10
M  V30 10 1 9 11
M  V30 11 2 10 12
M  V30 12 1 10 13
M  V30 13 1 11 14
M  V30 14 1 13 15
M  V30 15 1 15 16
M  V30 16 1 16 17
M  V30 17 1 16 18
M  V30 18 1 17 19
M  V30 19 1 17 20
M  V30 20 1 18 21
M  V30 21 1 20 22
M  V30 22 1 7 9
M  V30 23 1 19 21
M  V30 24 1 4 23
M  V30 25 1 7 24
M  V30 26 1 8 25
M  V30 27 1 8 26
M  V30 28 1 8 27
M  V30 29 1 13 28
M  V30 30 1 14 29
M  V30 31 1 14 30
M  V30 32 1 14 31
M  V30 33 1 15 32
M  V30 34 1 15 33
M  V30 35 1 16 34
M  V30 36 1 18 35
M  V30 37 1 18 36
M  V30 38 1 19 37
M  V30 39 1 19 38
M  V30 40 1 20 39
M  V30 41 1 20 40
M  V30 42 1 21 41
M  V30 43 1 21 42
M  V30 44 1 22 43
M  V30 45 1 22 44
M  V30 46 1 22 45
M  V30 END BOND
M  V30 BEGIN COLLECTION
M  V30 MDLV30/STEABS ATOMS=(1 16)
M  V30 END COLLECTION
M  V30 END CTAB
M  END
>  <NO.>
1614

>  <Name>
remoxipride

>  <SMILES>
CCN1CCC[C@H]1CNC(=O)c1c(OC)ccc(Br)c1OC

>  <logBB>


>  <Class>
1

>  <MW>
370.09

>  <nHBAcc>
4

>  <nHBDon>
1

>  <SLogP>
2.68

>  <TopoPSA>
50.8

>  <MMFF94 Energy>
64.174

$$$$
CCN1CCN(c2cc(-c3ccc(F)cc3)c3c(n2)CCCCCC3)CC1
Actelion Java MolfileCreator 2.0

  0  0  0  0  0  0              0 V3000
M  V30 BEGIN CTAB
M  V30 COUNTS 57 60 0 0 0
M  V30 BEGIN ATOM
M  V30 1 F 2.7882 4.5439 -4.8634 0
M  V30 2 C 2.4297 3.6774 -3.9073 0
M  V30 3 C 2.8358 2.352 -3.9979 0
M  V30 4 C 1.6548 4.1167 -2.8411 0
M  V30 5 C 2.4619 1.4483 -3.0013 0
M  V30 6 C 1.2806 3.2131 -1.8446 0
M  V30 7 C 1.6857 1.8691 -1.9077 0
M  V30 8 C 1.2803 0.9152 -0.8652 0
M  V30 9 C 2.1103 0.5553 0.2128 0
M  V30 10 C -0.0015 0.3466 -0.9525 0
M  V30 11 C 1.59 -0.351 1.1427 0
M  V30 12 C 3.478 1.1648 0.4051 0
M  V30 13 C -0.4516 -0.5582 -0.0015 0
M  V30 14 N 0.3422 -0.8782 1.0381 0
M  V30 15 C 2.3555 -0.8152 2.3575 0
M  V30 16 C 3.456 2.4778 1.1884 0
M  V30 17 N -1.7235 -1.1181 -0.0707 0
M  V30 18 C 2.2669 0.1322 3.5542 0
M  V30 19 C 2.718 2.4534 2.5299 0
M  V30 20 C -2.1283 -1.931 1.0873 0
M  V30 21 C -2.2138 -1.612 -1.3643 0
M  V30 22 C 3.1802 1.3618 3.496 0
M  V30 23 C -3.6464 -2.214 1.0653 0
M  V30 24 C -3.7316 -1.9115 -1.3142 0
M  V30 25 N -4.116 -2.8148 -0.2067 0
M  V30 26 C -5.5684 -3.0361 -0.1485 0
M  V30 27 C -6.0889 -3.8633 -1.3187 0
M  V30 28 H 3.4375 2.03 -4.8415 0
M  V30 29 H 1.3464 5.1559 -2.7916 0
M  V30 30 H 2.7781 0.4097 -3.077 0
M  V30 31 H 0.6725 3.5599 -1.0109 0
M  V30 32 H -0.6521 0.6511 -1.7651 0
M  V30 33 H 4.1571 0.4555 0.8878 0
M  V30 34 H 3.9531 1.3412 -0.5667 0
M  V30 35 H 1.9211 -1.7762 2.6675 0
M  V30 36 H 3.3949 -1.0536 2.1113 0
M  V30 37 H 4.4943 2.7888 1.3612 0
M  V30 38 H 3.0072 3.2661 0.5726 0
M  V30 39 H 1.2283 0.4436 3.7228 0
M  V30 40 H 2.5619 -0.4407 4.4433 0
M  V30 41 H 2.897 3.4265 3.0062 0
M  V30 42 H 1.6345 2.4013 2.3707 0
M  V30 43 H -1.9081 -1.4108 2.0283 0
M  V30 44 H -1.5793 -2.8818 1.0853 0
M  V30 45 H -1.6689 -2.5259 -1.6338 0
M  V30 46 H -2.0568 -0.8865 -2.1687 0
M  V30 47 H 4.2165 1.0654 3.2973 0
M  V30 48 H 3.1801 1.7983 4.5038 0
M  V30 49 H -3.8735 -2.8932 1.8961 0
M  V30 50 H -4.1832 -1.2745 1.2563 0
M  V30 51 H -4.2751 -0.9606 -1.2299 0
M  V30 52 H -4.0034 -2.359 -2.2762 0
M  V30 53 H -5.8078 -3.5938 0.7657 0
M  V30 54 H -6.1154 -2.0863 -0.0947 0
M  V30 55 H -7.1422 -4.1157 -1.1564 0
M  V30 56 H -5.532 -4.8008 -1.4186 0
M  V30 57 H -6.0256 -3.3184 -2.2651 0
M  V30 END ATOM
M  V30 BEGIN BOND
M  V30 1 1 1 2
M  V30 2 2 2 3
M  V30 3 1 2 4
M  V30 4 1 3 5
M  V30 5 2 4 6
M  V30 6 2 5 7
M  V30 7 1 7 8
M  V30 8 2 8 9
M  V30 9 1 8 10
M  V30 10 1 9 11
M  V30 11 1 9 12
M  V30 12 2 10 13
M  V30 13 2 11 14
M  V30 14 1 11 15
M  V30 15 1 12 16
M  V30 16 1 13 17
M  V30 17 1 15 18
M  V30 18 1 16 19
M  V30 19 1 17 20
M  V30 20 1 17 21
M  V30 21 1 18 22
M  V30 22 1 20 23
M  V30 23 1 21 24
M  V30 24 1 23 25
M  V30 25 1 25 26
M  V30 26 1 26 27
M  V30 27 1 6 7
M  V30 28 1 13 14
M  V30 29 1 19 22
M  V30 30 1 24 25
M  V30 31 1 3 28
M  V30 32 1 4 29
M  V30 33 1 5 30
M  V30 34 1 6 31
M  V30 35 1 10 32
M  V30 36 1 12 33
M  V30 37 1 12 34
M  V30 38 1 15 35
M  V30 39 1 15 36
M  V30 40 1 16 37
M  V30 41 1 16 38
M  V30 42 1 18 39
M  V30 43 1 18 40
M  V30 44 1 19 41
M  V30 45 1 19 42
M  V30 46 1 20 43
M  V30 47 1 20 44
M  V30 48 1 21 45
M  V30 49 1 21 46
M  V30 50 1 22 47
M  V30 51 1 22 48
M  V30 52 1 23 49
M  V30 53 1 23 50
M  V30 54 1 24 51
M  V30 55 1 24 52
M  V30 56 1 26 53
M  V30 57 1 26 54
M  V30 58 1 27 55
M  V30 59 1 27 56
M  V30 60 1 27 57
M  V30 END BOND
M  V30 END CTAB
M  END
>  <NO.>
1615

>  <Name>
blonanserin

>  <SMILES>
CCN1CCN(c2cc(-c3ccc(F)cc3)c3c(n2)CCCCCC3)CC1

>  <logBB>


>  <Class>
1

>  <MW>
367.24

>  <nHBAcc>
3

>  <nHBDon>
0

>  <SLogP>
4.69

>  <TopoPSA>
19.37

>  <MMFF94 Energy>
84.176

$$$$
CCN1CCc2[nH]c3cc(F)c4scc(C)c4c3c2C1
Actelion Java MolfileCreator 2.0

  0  0  0  0  0  0              0 V3000
M  V30 BEGIN CTAB
M  V30 COUNTS 37 40 0 0 0
M  V30 BEGIN ATOM
M  V30 1 S 4.5599 1.6267 -1.4639 0
M  V30 2 C 3.7079 0.9821 -0.1167 0
M  V30 3 C 3.1215 1.8537 -2.3423 0
M  V30 4 C 4.2467 0.6085 1.1205 0
M  V30 5 C 2.3528 0.8689 -0.4111 0
M  V30 6 C 1.9788 1.4603 -1.6614 0
M  V30 7 F 5.5578 0.7501 1.369 0
M  V30 8 C 3.4309 0.1096 2.1282 0
M  V30 9 C 1.5154 0.238 0.5976 0
M  V30 10 C 0.6335 1.7413 -2.2305 0
M  V30 11 C 2.0864 -0.071 1.8272 0
M  V30 12 C 0.1736 -0.2194 0.5833 0
M  V30 13 N 1.0763 -0.579 2.6122 0
M  V30 14 C -0.0629 -0.6767 1.8724 0
M  V30 15 C -0.8864 -0.3306 -0.4712 0
M  V30 16 C -1.3352 -1.2862 2.3486 0
M  V30 17 N -1.9178 -1.324 -0.0775 0
M  V30 18 C -2.4341 -1.0733 1.2824 0
M  V30 19 C -2.9758 -1.463 -1.0824 0
M  V30 20 C -3.8933 -0.2605 -1.2856 0
M  V30 21 H 3.1746 2.3139 -3.32 0
M  V30 22 H 3.8514 -0.1571 3.0906 0
M  V30 23 H 0.6903 2.5263 -2.9944 0
M  V30 24 H 0.219 0.8585 -2.7208 0
M  V30 25 H -0.0443 2.1194 -1.4624 0
M  V30 26 H 1.1892 -0.8942 3.5662 0
M  V30 27 H -0.4278 -0.6777 -1.4005 0
M  V30 28 H -1.3466 0.65 -0.6149 0
M  V30 29 H -1.18 -2.3602 2.5074 0
M  V30 30 H -1.6483 -0.8439 3.3005 0
M  V30 31 H -3.262 -1.755 1.5126 0
M  V30 32 H -2.8246 -0.0501 1.3616 0
M  V30 33 H -2.5197 -1.7243 -2.0455 0
M  V30 34 H -3.5951 -2.3289 -0.816 0
M  V30 35 H -4.6455 -0.4963 -2.046 0
M  V30 36 H -3.3432 0.6186 -1.6328 0
M  V30 37 H -4.4278 0.002 -0.3679 0
M  V30 END ATOM
M  V30 BEGIN BOND
M  V30 1 1 1 2
M  V30 2 1 1 3
M  V30 3 2 2 4
M  V30 4 1 2 5
M  V30 5 2 3 6
M  V30 6 1 4 7
M  V30 7 1 4 8
M  V30 8 2 5 9
M  V30 9 1 6 10
M  V30 10 2 8 11
M  V30 11 1 9 12
M  V30 12 1 11 13
M  V30 13 2 12 14
M  V30 14 1 12 15
M  V30 15 1 14 16
M  V30 16 1 15 17
M  V30 17 1 16 18
M  V30 18 1 17 19
M  V30 19 1 19 20
M  V30 20 1 5 6
M  V30 21 1 9 11
M  V30 22 1 13 14
M  V30 23 1 17 18
M  V30 24 1 3 21
M  V30 25 1 8 22
M  V30 26 1 10 23
M  V30 27 1 10 24
M  V30 28 1 10 25
M  V30 29 1 13 26
M  V30 30 1 15 27
M  V30 31 1 15 28
M  V30 32 1 16 29
M  V30 33 1 16 30
M  V30 34 1 18 31
M  V30 35 1 18 32
M  V30 36 1 19 33
M  V30 37 1 19 34
M  V30 38 1 20 35
M  V30 39 1 20 36
M  V30 40 1 20 37
M  V30 END BOND
M  V30 END CTAB
M  END
>  <NO.>
1616

>  <Name>
tiflucarbine

>  <SMILES>
CCN1CCc2[nH]c3cc(F)c4scc(C)c4c3c2C1

>  <logBB>


>  <Class>
1

>  <MW>
288.11

>  <nHBAcc>
2

>  <nHBDon>
1

>  <SLogP>
4.21

>  <TopoPSA>
19.03

>  <MMFF94 Energy>
79.333

$$$$
CCN=C1NC(=O)C(c2ccccc2)O1
Actelion Java MolfileCreator 2.0

  0  0  0  0  0  0              0 V3000
M  V30 BEGIN CTAB
M  V30 COUNTS 27 28 0 0 0
M  V30 BEGIN ATOM
M  V30 1 O -1.2647 -0.4741 -3.085 0
M  V30 2 C -0.8453 -0.7543 -1.9728 0
M  V30 3 N -1.4795 -1.5377 -1.0746 0
M  V30 4 C 0.4661 -0.3259 -1.3463 0 CFG=2
M  V30 5 C -0.7263 -1.6871 0.0159 0
M  V30 6 O 0.4474 -1.0181 -0.0815 0
M  V30 7 C 0.609 1.1724 -1.18 0
M  V30 8 N -1.103 -2.3941 1.0116 0
M  V30 9 C 0.6901 1.7803 0.083 0
M  V30 10 C 0.6822 1.9918 -2.3195 0
M  V30 11 C -0.155 -2.4529 2.1251 0
M  V30 12 C 0.8308 3.1651 0.2018 0
M  V30 13 C 0.8219 3.3759 -2.1989 0
M  V30 14 C -0.7568 -3.3161 3.2203 0
M  V30 15 C 0.8958 3.9621 -0.9381 0
M  V30 16 H -2.3804 -1.9641 -1.2053 0
M  V30 17 H 1.3019 -0.7272 -1.9298 0
M  V30 18 H 0.6469 1.1847 0.9929 0
M  V30 19 H 0.6218 1.5572 -3.3167 0
M  V30 20 H 0.7952 -2.8943 1.8025 0
M  V30 21 H 0.0375 -1.4502 2.5248 0
M  V30 22 H 0.8905 3.6215 1.1869 0
M  V30 23 H 0.8705 3.996 -3.0906 0
M  V30 24 H -0.9541 -4.3295 2.8554 0
M  V30 25 H -1.7057 -2.8969 3.5715 0
M  V30 26 H -0.0742 -3.384 4.0729 0
M  V30 27 H 1.0039 5.0395 -0.8441 0
M  V30 END ATOM
M  V30 BEGIN BOND
M  V30 1 2 1 2
M  V30 2 1 2 3
M  V30 3 1 2 4
M  V30 4 1 3 5
M  V30 5 1 4 6
M  V30 6 1 4 7
M  V30 7 2 5 8
M  V30 8 2 7 9
M  V30 9 1 7 10
M  V30 10 1 8 11
M  V30 11 1 9 12
M  V30 12 2 10 13
M  V30 13 1 11 14
M  V30 14 2 12 15
M  V30 15 1 5 6
M  V30 16 1 13 15
M  V30 17 1 3 16
M  V30 18 1 4 17
M  V30 19 1 9 18
M  V30 20 1 10 19
M  V30 21 1 11 20
M  V30 22 1 11 21
M  V30 23 1 12 22
M  V30 24 1 13 23
M  V30 25 1 14 24
M  V30 26 1 14 25
M  V30 27 1 14 26
M  V30 28 1 15 27
M  V30 END BOND
M  V30 BEGIN COLLECTION
M  V30 MDLV30/STERAC1 ATOMS=(1 4)
M  V30 END COLLECTION
M  V30 END CTAB
M  END
>  <NO.>
1617

>  <Name>
fenozolone

>  <SMILES>
CCN=C1NC(=O)C(c2ccccc2)O1

>  <logBB>


>  <Class>
1

>  <MW>
204.09

>  <nHBAcc>
3

>  <nHBDon>
1

>  <SLogP>
1.25

>  <TopoPSA>
50.69

>  <MMFF94 Energy>
-28.762

$$$$
CCN=C1Nc2ccc(Cl)cc2C(c2ccccc2)S1
Actelion Java MolfileCreator 2.0

  0  0  0  0  0  0              0 V3000
M  V30 BEGIN CTAB
M  V30 COUNTS 35 37 0 0 0
M  V30 BEGIN ATOM
M  V30 1 Cl -0.0818 -0.573 -5.3305 0
M  V30 2 C 0.139 -1.0495 -3.6926 0
M  V30 3 C -0.2114 -0.178 -2.6622 0
M  V30 4 C 0.6575 -2.3041 -3.4033 0
M  V30 5 C -0.0269 -0.5411 -1.3116 0
M  V30 6 C 0.8154 -2.6908 -2.0726 0
M  V30 7 C 0.4638 -1.8279 -1.0212 0
M  V30 8 C -0.473 0.3583 -0.1647 0 CFG=1
M  V30 9 N 0.6505 -2.2599 0.2948 0
M  V30 10 S 0.6059 0.2204 1.3008 0
M  V30 11 C -0.6526 1.8345 -0.516 0
M  V30 12 C 0.6385 -1.5209 1.4387 0
M  V30 13 C -1.9295 2.419 -0.4583 0
M  V30 14 C 0.4334 2.6366 -0.9136 0
M  V30 15 N 0.6984 -2.1531 2.5641 0
M  V30 16 C -2.1137 3.7627 -0.7904 0
M  V30 17 C 0.2453 3.9794 -1.245 0
M  V30 18 C 0.7143 -1.4224 3.827 0
M  V30 19 C -1.0275 4.5412 -1.1839 0
M  V30 20 C 0.7653 -2.4357 4.959 0
M  V30 21 H -0.6369 0.7885 -2.925 0
M  V30 22 H 0.9346 -2.9861 -4.2024 0
M  V30 23 H 1.2208 -3.6778 -1.8608 0
M  V30 24 H -1.4519 -0.0285 0.1503 0
M  V30 25 H 0.7909 -3.249 0.4491 0
M  V30 26 H -2.7934 1.8324 -0.1527 0
M  V30 27 H 1.4362 2.2165 -0.9681 0
M  V30 28 H -3.1063 4.2034 -0.7401 0
M  V30 29 H 1.0939 4.587 -1.5488 0
M  V30 30 H 1.5966 -0.7764 3.8965 0
M  V30 31 H -0.1904 -0.8151 3.9427 0
M  V30 32 H -1.1725 5.5874 -1.4402 0
M  V30 33 H 1.662 -3.0597 4.8849 0
M  V30 34 H -0.106 -3.0982 4.9302 0
M  V30 35 H 0.779 -1.927 5.9277 0
M  V30 END ATOM
M  V30 BEGIN BOND
M  V30 1 1 1 2
M  V30 2 2 2 3
M  V30 3 1 2 4
M  V30 4 1 3 5
M  V30 5 2 4 6
M  V30 6 2 5 7
M  V30 7 1 5 8
M  V30 8 1 7 9
M  V30 9 1 8 10
M  V30 10 1 8 11
M  V30 11 1 9 12
M  V30 12 2 11 13
M  V30 13 1 11 14
M  V30 14 2 12 15
M  V30 15 1 13 16
M  V30 16 2 14 17
M  V30 17 1 15 18
M  V30 18 2 16 19
M  V30 19 1 18 20
M  V30 20 1 6 7
M  V30 21 1 10 12
M  V30 22 1 17 19
M  V30 23 1 3 21
M  V30 24 1 4 22
M  V30 25 1 6 23
M  V30 26 1 8 24
M  V30 27 1 9 25
M  V30 28 1 13 26
M  V30 29 1 14 27
M  V30 30 1 16 28
M  V30 31 1 17 29
M  V30 32 1 18 30
M  V30 33 1 18 31
M  V30 34 1 19 32
M  V30 35 1 20 33
M  V30 36 1 20 34
M  V30 37 1 20 35
M  V30 END BOND
M  V30 BEGIN COLLECTION
M  V30 MDLV30/STERAC1 ATOMS=(1 8)
M  V30 END COLLECTION
M  V30 END CTAB
M  END
>  <NO.>
1618

>  <Name>
etasuline

>  <SMILES>
CCN=C1Nc2ccc(Cl)cc2C(c2ccccc2)S1

>  <logBB>


>  <Class>
1

>  <MW>
302.06

>  <nHBAcc>
2

>  <nHBDon>
1

>  <SLogP>
4.96

>  <TopoPSA>
24.39

>  <MMFF94 Energy>
-8.4063

$$$$
CCNC(=O)/C=C/c1cccc(Br)c1
Actelion Java MolfileCreator 2.0

  0  0  0  0  0  0              0 V3000
M  V30 BEGIN CTAB
M  V30 COUNTS 26 26 0 0 0
M  V30 BEGIN ATOM
M  V30 1 Br 0.9562 -4.2285 3.19 0
M  V30 2 C -0.134 -2.6882 3.0618 0
M  V30 3 C -0.1843 -1.9757 1.8621 0
M  V30 4 C -0.8817 -2.2796 4.1639 0
M  V30 5 C -0.9836 -0.8296 1.7583 0
M  V30 6 C -1.6929 -1.151 4.0634 0
M  V30 7 C -1.7473 -0.4339 2.8653 0
M  V30 8 C -1.0931 -0.0584 0.5132 0
M  V30 9 C -0.0637 0.183 -0.3131 0
M  V30 10 C -0.2817 0.9895 -1.5404 0
M  V30 11 O -1.3756 1.4412 -1.8519 0
M  V30 12 N 0.8672 1.1714 -2.2705 0
M  V30 13 C 0.8589 1.9586 -3.485 0
M  V30 14 C 2.1175 1.7393 -4.3016 0
M  V30 15 H 0.389 -2.3256 1.0082 0
M  V30 16 H -0.8448 -2.8338 5.098 0
M  V30 17 H -2.2856 -0.8284 4.9159 0
M  V30 18 H -2.388 0.4442 2.8059 0
M  V30 19 H -2.0791 0.3476 0.2898 0
M  V30 20 H 0.9343 -0.1808 -0.1106 0
M  V30 21 H 1.7488 0.8198 -1.9242 0
M  V30 22 H -0.0261 1.6949 -4.0741 0
M  V30 23 H 0.7696 3.0115 -3.1967 0
M  V30 24 H 2.0926 2.3443 -5.2129 0
M  V30 25 H 3.0092 2.0162 -3.7295 0
M  V30 26 H 2.2186 0.6874 -4.5887 0
M  V30 END ATOM
M  V30 BEGIN BOND
M  V30 1 1 1 2
M  V30 2 2 2 3
M  V30 3 1 2 4
M  V30 4 1 3 5
M  V30 5 2 4 6
M  V30 6 2 5 7
M  V30 7 1 5 8
M  V30 8 2 8 9
M  V30 9 1 9 10
M  V30 10 2 10 11
M  V30 11 1 10 12
M  V30 12 1 12 13
M  V30 13 1 13 14
M  V30 14 1 6 7
M  V30 15 1 3 15
M  V30 16 1 4 16
M  V30 17 1 6 17
M  V30 18 1 7 18
M  V30 19 1 8 19
M  V30 20 1 9 20
M  V30 21 1 12 21
M  V30 22 1 13 22
M  V30 23 1 13 23
M  V30 24 1 14 24
M  V30 25 1 14 25
M  V30 26 1 14 26
M  V30 END BOND
M  V30 END CTAB
M  END
>  <NO.>
1619

>  <Name>
cinromide

>  <SMILES>
CCNC(=O)/C=C/c1cccc(Br)c1

>  <logBB>


>  <Class>
1

>  <MW>
253.01

>  <nHBAcc>
1

>  <nHBDon>
1

>  <SLogP>
2.6

>  <TopoPSA>
29.1

>  <MMFF94 Energy>
-18.465

$$$$
CCNC(=O)N1CCN(CCCC(c2ccc(F)cc2)c2ccc(F)cc2)CC1
Actelion Java MolfileCreator 2.0

  0  0  0  0  0  0              0 V3000
M  V30 BEGIN CTAB
M  V30 COUNTS 58 60 0 0 0
M  V30 BEGIN ATOM
M  V30 1 F 2.6991 5.2446 1.6664 0
M  V30 2 C 2.7857 3.9089 1.6186 0
M  V30 3 C 3.4168 3.3026 0.5405 0
M  V30 4 C 2.2429 3.1505 2.6475 0
M  V30 5 C 3.5063 1.9108 0.4883 0
M  V30 6 C 2.3303 1.7583 2.5978 0
M  V30 7 C 2.9614 1.1199 1.5157 0
M  V30 8 C 3.0639 -0.4018 1.4378 0
M  V30 9 C 3.9395 -0.962 2.5612 0
M  V30 10 C 1.6723 -1.0743 1.3234 0
M  V30 11 C 3.4079 -1.5154 3.7389 0
M  V30 12 C 5.3402 -0.8941 2.4269 0
M  V30 13 C 0.9502 -0.7267 0.0122 0
M  V30 14 C 4.2509 -1.9996 4.7423 0
M  V30 15 C 6.1806 -1.3779 3.4308 0
M  V30 16 C -0.3922 -1.4634 -0.0892 0
M  V30 17 C 5.6277 -1.9277 4.5785 0
M  V30 18 N -1.0574 -1.2576 -1.3866 0
M  V30 19 F 6.4325 -2.3919 5.5432 0
M  V30 20 C -2.1989 -2.1984 -1.5182 0
M  V30 21 C -1.5516 0.1295 -1.5477 0
M  V30 22 C -2.9486 -2.0215 -2.8498 0
M  V30 23 C -2.3217 0.3446 -2.8707 0
M  V30 24 N -3.3947 -0.6401 -3.0266 0
M  V30 25 C -4.7375 -0.3871 -3.2021 0
M  V30 26 O -5.5999 -1.2523 -3.0702 0
M  V30 27 N -5.0581 0.8993 -3.5373 0
M  V30 28 C -6.4307 1.3387 -3.672 0
M  V30 29 C -7.048 1.6747 -2.3263 0
M  V30 30 H 3.8355 3.916 -0.2505 0
M  V30 31 H 1.7591 3.6462 3.4829 0
M  V30 32 H 4.0025 1.447 -0.3614 0
M  V30 33 H 1.9083 1.1766 3.4138 0
M  V30 34 H 3.5874 -0.6606 0.5052 0
M  V30 35 H 1.0283 -0.795 2.1666 0
M  V30 36 H 1.7976 -2.1643 1.3703 0
M  V30 37 H 2.3346 -1.574 3.8979 0
M  V30 38 H 5.7847 -0.4559 1.5354 0
M  V30 39 H 0.7885 0.3546 -0.034 0
M  V30 40 H 1.5858 -1.0015 -0.8384 0
M  V30 41 H 3.8414 -2.4286 5.6512 0
M  V30 42 H 7.2592 -1.3249 3.3253 0
M  V30 43 H -0.1885 -2.5349 0.0358 0
M  V30 44 H -1.0481 -1.1661 0.7394 0
M  V30 45 H -1.8307 -3.23 -1.4693 0
M  V30 46 H -2.9031 -2.0565 -0.6874 0
M  V30 47 H -0.7137 0.8341 -1.5434 0
M  V30 48 H -2.2108 0.3925 -0.7095 0
M  V30 49 H -2.2829 -2.2559 -3.6896 0
M  V30 50 H -3.7866 -2.724 -2.8962 0
M  V30 51 H -1.6454 0.2275 -3.7256 0
M  V30 52 H -2.7014 1.3684 -2.8805 0
M  V30 53 H -4.3372 1.4956 -3.9049 0
M  V30 54 H -6.4259 2.2265 -4.3125 0
M  V30 55 H -7.0139 0.5596 -4.174 0
M  V30 56 H -8.0739 2.0325 -2.4561 0
M  V30 57 H -7.0718 0.7985 -1.6705 0
M  V30 58 H -6.4733 2.4557 -1.8173 0
M  V30 END ATOM
M  V30 BEGIN BOND
M  V30 1 1 1 2
M  V30 2 2 2 3
M  V30 3 1 2 4
M  V30 4 1 3 5
M  V30 5 2 4 6
M  V30 6 2 5 7
M  V30 7 1 7 8
M  V30 8 1 8 9
M  V30 9 1 8 10
M  V30 10 2 9 11
M  V30 11 1 9 12
M  V30 12 1 10 13
M  V30 13 1 11 14
M  V30 14 2 12 15
M  V30 15 1 13 16
M  V30 16 2 14 17
M  V30 17 1 16 18
M  V30 18 1 17 19
M  V30 19 1 18 20
M  V30 20 1 18 21
M  V30 21 1 20 22
M  V30 22 1 21 23
M  V30 23 1 22 24
M  V30 24 1 24 25
M  V30 25 2 25 26
M  V30 26 1 25 27
M  V30 27 1 27 28
M  V30 28 1 28 29
M  V30 29 1 6 7
M  V30 30 1 15 17
M  V30 31 1 23 24
M  V30 32 1 3 30
M  V30 33 1 4 31
M  V30 34 1 5 32
M  V30 35 1 6 33
M  V30 36 1 8 34
M  V30 37 1 10 35
M  V30 38 1 10 36
M  V30 39 1 11 37
M  V30 40 1 12 38
M  V30 41 1 13 39
M  V30 42 1 13 40
M  V30 43 1 14 41
M  V30 44 1 15 42
M  V30 45 1 16 43
M  V30 46 1 16 44
M  V30 47 1 20 45
M  V30 48 1 20 46
M  V30 49 1 21 47
M  V30 50 1 21 48
M  V30 51 1 22 49
M  V30 52 1 22 50
M  V30 53 1 23 51
M  V30 54 1 23 52
M  V30 55 1 27 53
M  V30 56 1 28 54
M  V30 57 1 28 55
M  V30 58 1 29 56
M  V30 59 1 29 57
M  V30 60 1 29 58
M  V30 END BOND
M  V30 END CTAB
M  END
>  <NO.>
1620

>  <Name>
amperozide

>  <SMILES>
CCNC(=O)N1CCN(CCCC(c2ccc(F)cc2)c2ccc(F)cc2)CC1

>  <logBB>


>  <Class>
1

>  <MW>
401.23

>  <nHBAcc>
2

>  <nHBDon>
1

>  <SLogP>
4.22

>  <TopoPSA>
35.58

>  <MMFF94 Energy>
17.527

$$$$
CCNC1(c2ccccc2)CCCCC1
Actelion Java MolfileCreator 2.0

  0  0  0  0  0  0              0 V3000
M  V30 BEGIN CTAB
M  V30 COUNTS 36 37 0 0 0
M  V30 BEGIN ATOM
M  V30 1 N 0.9437 -0.3145 -0.865 0
M  V30 2 C -0.283 0.1808 -0.1903 0
M  V30 3 C 2.1586 -0.3096 -0.0521 0
M  V30 4 C -0.6646 -0.7437 0.9911 0
M  V30 5 C -0.122 1.6792 0.2143 0
M  V30 6 C -1.4335 0.1324 -1.2491 0
M  V30 7 C 3.3007 -0.9216 -0.8525 0
M  V30 8 C -0.9703 -2.1024 0.7639 0
M  V30 9 C -0.6996 -0.2947 2.3237 0
M  V30 10 C 0.1172 2.6174 -0.971 0
M  V30 11 C -1.227 1.0762 -2.4384 0
M  V30 12 C -1.3083 -2.9623 1.8128 0
M  V30 13 C -1.0379 -1.1553 3.3738 0
M  V30 14 C -1.0067 2.5148 -1.9928 0
M  V30 15 C -1.3441 -2.4874 3.1185 0
M  V30 16 H 0.7738 -1.2578 -1.208 0
M  V30 17 H 2.0324 -0.889 0.8679 0
M  V30 18 H 2.446 0.7102 0.2201 0
M  V30 19 H 0.6911 1.816 0.9368 0
M  V30 20 H -1.0353 2.0177 0.7242 0
M  V30 21 H -1.5667 -0.8803 -1.6497 0
M  V30 22 H -2.3848 0.3891 -0.7615 0
M  V30 23 H 3.0855 -1.9614 -1.1211 0
M  V30 24 H 3.4846 -0.3588 -1.774 0
M  V30 25 H 4.2223 -0.9108 -0.2617 0
M  V30 26 H -0.9442 -2.5143 -0.2419 0
M  V30 27 H -0.4609 0.7332 2.5812 0
M  V30 28 H 1.0771 2.3891 -1.4485 0
M  V30 29 H 0.1847 3.6499 -0.6091 0
M  V30 30 H -2.1039 1.0294 -3.0946 0
M  V30 31 H -0.3717 0.7415 -3.0372 0
M  V30 32 H -1.5412 -4.0036 1.6064 0
M  V30 33 H -1.0591 -0.7803 4.3941 0
M  V30 34 H -0.7772 3.1417 -2.8616 0
M  V30 35 H -1.9336 2.9055 -1.5548 0
M  V30 36 H -1.6059 -3.1539 3.9355 0
M  V30 END ATOM
M  V30 BEGIN BOND
M  V30 1 1 1 2
M  V30 2 1 1 3
M  V30 3 1 2 4
M  V30 4 1 2 5
M  V30 5 1 2 6
M  V30 6 1 3 7
M  V30 7 2 4 8
M  V30 8 1 4 9
M  V30 9 1 5 10
M  V30 10 1 6 11
M  V30 11 1 8 12
M  V30 12 2 9 13
M  V30 13 1 10 14
M  V30 14 2 12 15
M  V30 15 1 11 14
M  V30 16 1 13 15
M  V30 17 1 1 16
M  V30 18 1 3 17
M  V30 19 1 3 18
M  V30 20 1 5 19
M  V30 21 1 5 20
M  V30 22 1 6 21
M  V30 23 1 6 22
M  V30 24 1 7 23
M  V30 25 1 7 24
M  V30 26 1 7 25
M  V30 27 1 8 26
M  V30 28 1 9 27
M  V30 29 1 10 28
M  V30 30 1 10 29
M  V30 31 1 11 30
M  V30 32 1 11 31
M  V30 33 1 12 32
M  V30 34 1 13 33
M  V30 35 1 14 34
M  V30 36 1 14 35
M  V30 37 1 15 36
M  V30 END BOND
M  V30 END CTAB
M  END
>  <NO.>
1621

>  <Name>
eticyclidine

>  <SMILES>
CCNC1(c2ccccc2)CCCCC1

>  <logBB>


>  <Class>
1

>  <MW>
203.17

>  <nHBAcc>
1

>  <nHBDon>
1

>  <SLogP>
3.46

>  <TopoPSA>
12.03

>  <MMFF94 Energy>
23.842

$$$$
CCNC1(c2cccs2)CCCCC1=O
Actelion Java MolfileCreator 2.0

  0  0  0  0  0  0              0 V3000
M  V30 BEGIN CTAB
M  V30 COUNTS 32 33 0 0 0
M  V30 BEGIN ATOM
M  V30 1 S -0.6452 -1.856 -1.9367 0
M  V30 2 C -0.0408 -0.4275 -1.1715 0
M  V30 3 C -0.1426 -1.338 -3.482 0
M  V30 4 C 0.5733 0.3901 -2.1094 0
M  V30 5 C -0.1633 -0.2436 0.3452 0 CFG=2
M  V30 6 C 0.501 -0.1248 -3.436 0
M  V30 7 N 0.783 -1.173 1.0078 0
M  V30 8 C -1.6056 -0.627 0.8062 0
M  V30 9 C 0.0217 1.2279 0.8085 0
M  V30 10 C 2.1695 -0.7457 1.0949 0
M  V30 11 O -1.8427 -1.5484 1.5939 0
M  V30 12 C -2.728 0.2604 0.3069 0
M  V30 13 C -1.0948 2.176 0.3445 0
M  V30 14 C 3.0159 -1.8893 1.6356 0
M  V30 15 C -2.4741 1.6841 0.7741 0
M  V30 16 H -0.3306 -1.9564 -4.3489 0
M  V30 17 H 1.062 1.3248 -1.8633 0
M  V30 18 H 0.9122 0.3647 -4.3103 0
M  V30 19 H 0.4105 -1.4339 1.9235 0
M  V30 20 H 0.0434 1.2592 1.9075 0
M  V30 21 H 0.9813 1.6364 0.4694 0
M  V30 22 H 2.276 0.1121 1.767 0
M  V30 23 H 2.5572 -0.4614 0.1111 0
M  V30 24 H -2.7892 0.2018 -0.7835 0
M  V30 25 H -3.6792 -0.1053 0.7085 0
M  V30 26 H -1.071 2.2925 -0.7443 0
M  V30 27 H -0.9192 3.1721 0.7677 0
M  V30 28 H 2.6887 -2.187 2.6378 0
M  V30 29 H 2.9613 -2.7661 0.9814 0
M  V30 30 H 4.0649 -1.5829 1.7014 0
M  V30 31 H -3.2466 2.3502 0.3739 0
M  V30 32 H -2.5457 1.7297 1.8682 0
M  V30 END ATOM
M  V30 BEGIN BOND
M  V30 1 1 1 2
M  V30 2 1 1 3
M  V30 3 2 2 4
M  V30 4 1 2 5
M  V30 5 2 3 6
M  V30 6 1 5 7
M  V30 7 1 5 8
M  V30 8 1 5 9
M  V30 9 1 7 10
M  V30 10 2 8 11
M  V30 11 1 8 12
M  V30 12 1 9 13
M  V30 13 1 10 14
M  V30 14 1 12 15
M  V30 15 1 4 6
M  V30 16 1 13 15
M  V30 17 1 3 16
M  V30 18 1 4 17
M  V30 19 1 6 18
M  V30 20 1 7 19
M  V30 21 1 9 20
M  V30 22 1 9 21
M  V30 23 1 10 22
M  V30 24 1 10 23
M  V30 25 1 12 24
M  V30 26 1 12 25
M  V30 27 1 13 26
M  V30 28 1 13 27
M  V30 29 1 14 28
M  V30 30 1 14 29
M  V30 31 1 14 30
M  V30 32 1 15 31
M  V30 33 1 15 32
M  V30 END BOND
M  V30 BEGIN COLLECTION
M  V30 MDLV30/STERAC1 ATOMS=(1 5)
M  V30 END COLLECTION
M  V30 END CTAB
M  END
>  <NO.>
1622

>  <Name>
tiletamine

>  <SMILES>
CCNC1(c2cccs2)CCCCC1=O

>  <logBB>


>  <Class>
1

>  <MW>
223.1

>  <nHBAcc>
3

>  <nHBDon>
1

>  <SLogP>
2.7

>  <TopoPSA>
29.1

>  <MMFF94 Energy>
52.779

$$$$
CCNC1=Nc2ccc(Cl)cc2C(C)(c2ccccc2)O1
Actelion Java MolfileCreator 2.0

  0  0  0  0  0  0              0 V3000
M  V30 BEGIN CTAB
M  V30 COUNTS 38 40 0 0 0
M  V30 BEGIN ATOM
M  V30 1 Cl -2.2496 4.5031 2.8931 0
M  V30 2 C -1.2339 3.1554 2.5607 0
M  V30 3 C -1.1199 2.6801 1.2544 0
M  V30 4 C -0.5393 2.5405 3.5963 0
M  V30 5 C -0.2936 1.5756 0.9695 0
M  V30 6 C 0.2735 1.4416 3.3181 0
M  V30 7 C 0.4 0.9587 2.0118 0
M  V30 8 C -0.1452 0.9762 -0.418 0 CFG=1
M  V30 9 N 1.2267 -0.1383 1.7865 0
M  V30 10 O 1.079 0.2052 -0.5236 0
M  V30 11 C -1.2885 0.0379 -0.8552 0
M  V30 12 C 0.0293 2.1076 -1.457 0
M  V30 13 C 1.5337 -0.4416 0.5697 0
M  V30 14 C -1.2211 -0.6087 -2.1073 0
M  V30 15 C -2.408 -0.2348 -0.0487 0
M  V30 16 N 2.3929 -1.4523 0.2842 0
M  V30 17 C -2.235 -1.466 -2.542 0
M  V30 18 C -3.4229 -1.0933 -0.484 0
M  V30 19 C 2.7739 -1.8879 -1.0346 0
M  V30 20 C -3.3386 -1.7048 -1.7307 0
M  V30 21 C 3.751 -3.0468 -0.9435 0
M  V30 22 H -1.6905 3.1619 0.4647 0
M  V30 23 H -0.6253 2.9038 4.6164 0
M  V30 24 H 0.819 0.9523 4.1212 0
M  V30 25 H 0.3558 1.7216 -2.4297 0
M  V30 26 H 0.8109 2.8101 -1.141 0
M  V30 27 H -0.8947 2.6731 -1.6199 0
M  V30 28 H -0.3603 -0.457 -2.7556 0
M  V30 29 H -2.5138 0.2027 0.9408 0
M  V30 30 H 2.7491 -1.95 1.0896 0
M  V30 31 H -2.1576 -1.9506 -3.5115 0
M  V30 32 H -4.2778 -1.2879 0.1589 0
M  V30 33 H 1.8872 -2.2051 -1.5947 0
M  V30 34 H 3.2426 -1.0623 -1.5814 0
M  V30 35 H -4.1273 -2.3736 -2.0642 0
M  V30 36 H 4.0432 -3.3792 -1.9443 0
M  V30 37 H 4.6567 -2.7553 -0.401 0
M  V30 38 H 3.3043 -3.8968 -0.4168 0
M  V30 END ATOM
M  V30 BEGIN BOND
M  V30 1 1 1 2
M  V30 2 2 2 3
M  V30 3 1 2 4
M  V30 4 1 3 5
M  V30 5 2 4 6
M  V30 6 2 5 7
M  V30 7 1 5 8
M  V30 8 1 7 9
M  V30 9 1 8 10
M  V30 10 1 8 11
M  V30 11 1 8 12
M  V30 12 2 9 13
M  V30 13 2 11 14
M  V30 14 1 11 15
M  V30 15 1 13 16
M  V30 16 1 14 17
M  V30 17 2 15 18
M  V30 18 1 16 19
M  V30 19 2 17 20
M  V30 20 1 19 21
M  V30 21 1 6 7
M  V30 22 1 10 13
M  V30 23 1 18 20
M  V30 24 1 3 22
M  V30 25 1 4 23
M  V30 26 1 6 24
M  V30 27 1 12 25
M  V30 28 1 12 26
M  V30 29 1 12 27
M  V30 30 1 14 28
M  V30 31 1 15 29
M  V30 32 1 16 30
M  V30 33 1 17 31
M  V30 34 1 18 32
M  V30 35 1 19 33
M  V30 36 1 19 34
M  V30 37 1 20 35
M  V30 38 1 21 36
M  V30 39 1 21 37
M  V30 40 1 21 38
M  V30 END BOND
M  V30 BEGIN COLLECTION
M  V30 MDLV30/STERAC1 ATOMS=(1 8)
M  V30 END COLLECTION
M  V30 END CTAB
M  END
>  <NO.>
1623

>  <Name>
etifoxine

>  <SMILES>
CCNC1=Nc2ccc(Cl)cc2C(C)(c2ccccc2)O1

>  <logBB>


>  <Class>
1

>  <MW>
300.1

>  <nHBAcc>
3

>  <nHBDon>
1

>  <SLogP>
4.23

>  <TopoPSA>
33.62

>  <MMFF94 Energy>
-39.69

$$$$
CCNCC(O)c1cccc(O)c1
Actelion Java MolfileCreator 2.0

  0  0  0  0  0  0              0 V3000
M  V30 BEGIN CTAB
M  V30 COUNTS 28 28 0 0 0
M  V30 BEGIN ATOM
M  V30 1 O -2.4099 -3.2661 0.0 0
M  V30 2 C -2.3355 -1.9166 0.1827 0
M  V30 3 C -1.2008 -1.4091 0.8084 0
M  V30 4 C -3.3547 -1.0726 -0.244 0
M  V30 5 C -1.0639 -0.0287 1.019 0
M  V30 6 C -3.2334 0.3009 -0.0403 0
M  V30 7 C -2.0964 0.8198 0.5844 0
M  V30 8 C 0.1729 0.5653 1.6642 0 CFG=1
M  V30 9 O 0.8088 -0.3862 2.5245 0
M  V30 10 C 1.204 1.0819 0.6262 0
M  V30 11 N 1.9525 -0.0416 0.0256 0
M  V30 12 C 2.9883 0.4075 -0.9052 0
M  V30 13 C 2.4335 0.8976 -2.2356 0
M  V30 14 H -3.2752 -3.4785 -0.3854 0
M  V30 15 H -0.4265 -2.0976 1.138 0
M  V30 16 H -4.2421 -1.4622 -0.7318 0
M  V30 17 H -4.025 0.9704 -0.367 0
M  V30 18 H -2.0221 1.8951 0.7342 0
M  V30 19 H -0.1375 1.3984 2.3059 0
M  V30 20 H 1.5793 -0.7025 2.0093 0
M  V30 21 H 0.7061 1.6915 -0.1349 0
M  V30 22 H 1.9227 1.7163 1.1593 0
M  V30 23 H 1.2923 -0.6471 -0.4695 0
M  V30 24 H 3.6461 -0.4462 -1.1029 0
M  V30 25 H 3.6168 1.179 -0.4457 0
M  V30 26 H 1.8067 0.1343 -2.7084 0
M  V30 27 H 1.8383 1.808 -2.1176 0
M  V30 28 H 3.256 1.1263 -2.9212 0
M  V30 END ATOM
M  V30 BEGIN BOND
M  V30 1 1 1 2
M  V30 2 2 2 3
M  V30 3 1 2 4
M  V30 4 1 3 5
M  V30 5 2 4 6
M  V30 6 2 5 7
M  V30 7 1 5 8
M  V30 8 1 8 9
M  V30 9 1 8 10
M  V30 10 1 10 11
M  V30 11 1 11 12
M  V30 12 1 12 13
M  V30 13 1 6 7
M  V30 14 1 1 14
M  V30 15 1 3 15
M  V30 16 1 4 16
M  V30 17 1 6 17
M  V30 18 1 7 18
M  V30 19 1 8 19
M  V30 20 1 9 20
M  V30 21 1 10 21
M  V30 22 1 10 22
M  V30 23 1 11 23
M  V30 24 1 12 24
M  V30 25 1 12 25
M  V30 26 1 13 26
M  V30 27 1 13 27
M  V30 28 1 13 28
M  V30 END BOND
M  V30 BEGIN COLLECTION
M  V30 MDLV30/STERAC1 ATOMS=(1 8)
M  V30 END COLLECTION
M  V30 END CTAB
M  END
>  <NO.>
1624

>  <Name>
etilefrine

>  <SMILES>
CCNCC(O)c1cccc(O)c1

>  <logBB>


>  <Class>
-1

>  <MW>
181.11

>  <nHBAcc>
3

>  <nHBDon>
3

>  <SLogP>
1.04

>  <TopoPSA>
52.49

>  <MMFF94 Energy>
36.619

$$$$
CCNCc1c(CSC)cnc(C)c1O
Actelion Java MolfileCreator 2.0

  0  0  0  0  0  0              0 V3000
M  V30 BEGIN CTAB
M  V30 COUNTS 33 33 0 0 0
M  V30 BEGIN ATOM
M  V30 1 S -2.3757 2.2172 0.6331 0
M  V30 2 C -1.8624 0.8651 -0.4727 0
M  V30 3 C -4.0547 1.6479 0.9861 0
M  V30 4 C -0.4419 1.0404 -0.9455 0
M  V30 5 C 0.6814 0.5101 -0.272 0
M  V30 6 C -0.2155 1.781 -2.1069 0
M  V30 7 C 1.947 0.7112 -0.8511 0
M  V30 8 C 0.5174 -0.2561 1.0214 0
M  V30 9 N 0.9972 2.0056 -2.654 0
M  V30 10 O 3.0926 0.1838 -0.317 0
M  V30 11 C 2.0655 1.4689 -2.0207 0
M  V30 12 N 0.1878 -1.6546 0.754 0
M  V30 13 C 3.4074 1.7149 -2.6457 0
M  V30 14 C 0.0853 -2.4227 1.992 0
M  V30 15 C -0.2672 -3.8672 1.6732 0
M  V30 16 H -2.5353 0.8469 -1.3383 0
M  V30 17 H -1.9931 -0.0956 0.0333 0
M  V30 18 H -4.5425 2.3589 1.6583 0
M  V30 19 H -4.0305 0.6699 1.4737 0
M  V30 20 H -4.6379 1.5858 0.0637 0
M  V30 21 H -1.04 2.2351 -2.6524 0
M  V30 22 H -0.2634 0.2103 1.6325 0
M  V30 23 H 1.4294 -0.1764 1.6251 0
M  V30 24 H 2.8683 -0.5662 0.2538 0
M  V30 25 H 0.8795 -2.0727 0.1346 0
M  V30 26 H 3.3108 2.336 -3.5423 0
M  V30 27 H 4.0645 2.2374 -1.9435 0
M  V30 28 H 3.8695 0.7674 -2.9396 0
M  V30 29 H -0.6939 -2.0009 2.637 0
M  V30 30 H 1.0339 -2.3976 2.5404 0
M  V30 31 H -1.2226 -3.9336 1.1416 0
M  V30 32 H 0.5039 -4.3371 1.0536 0
M  V30 33 H -0.3553 -4.4465 2.598 0
M  V30 END ATOM
M  V30 BEGIN BOND
M  V30 1 1 1 2
M  V30 2 1 1 3
M  V30 3 1 2 4
M  V30 4 2 4 5
M  V30 5 1 4 6
M  V30 6 1 5 7
M  V30 7 1 5 8
M  V30 8 2 6 9
M  V30 9 1 7 10
M  V30 10 2 7 11
M  V30 11 1 8 12
M  V30 12 1 11 13
M  V30 13 1 12 14
M  V30 14 1 14 15
M  V30 15 1 9 11
M  V30 16 1 2 16
M  V30 17 1 2 17
M  V30 18 1 3 18
M  V30 19 1 3 19
M  V30 20 1 3 20
M  V30 21 1 6 21
M  V30 22 1 8 22
M  V30 23 1 8 23
M  V30 24 1 10 24
M  V30 25 1 12 25
M  V30 26 1 13 26
M  V30 27 1 13 27
M  V30 28 1 13 28
M  V30 29 1 14 29
M  V30 30 1 14 30
M  V30 31 1 15 31
M  V30 32 1 15 32
M  V30 33 1 15 33
M  V30 END BOND
M  V30 END CTAB
M  END
>  <NO.>
1625

>  <Name>
skb_a

>  <SMILES>
CCNCc1c(CSC)cnc(C)c1O

>  <logBB>


>  <Class>
1

>  <MW>
226.11

>  <nHBAcc>
4

>  <nHBDon>
2

>  <SLogP>
2.07

>  <TopoPSA>
45.15

>  <MMFF94 Energy>
25.827

$$$$
CCN[C@H](Cc1ccccc1)[C@H]1CCCO1
Actelion Java MolfileCreator 2.0

  0  0  0  0  0  0              0 V3000
M  V30 BEGIN CTAB
M  V30 COUNTS 37 38 0 0 0
M  V30 BEGIN ATOM
M  V30 1 O -1.9662 0.5502 0.5502 0
M  V30 2 C -1.095 0.1265 -0.5265 0 CFG=1
M  V30 3 C -3.3233 0.3183 0.1455 0
M  V30 4 C 0.1521 -0.6205 0.024 0 CFG=2
M  V30 5 C -1.9644 -0.6833 -1.4831 0
M  V30 6 C -3.2971 0.0071 -1.335 0
M  V30 7 N -0.3033 -1.8315 0.7481 0
M  V30 8 C 0.9959 0.3149 0.9304 0
M  V30 9 C 0.7673 -2.7255 1.1667 0
M  V30 10 C 1.5956 1.4966 0.2006 0
M  V30 11 C 0.164 -4.013 1.7088 0
M  V30 12 C 2.6725 1.3187 -0.6787 0
M  V30 13 C 1.0768 2.7848 0.389 0
M  V30 14 C 3.2181 2.4093 -1.3574 0
M  V30 15 C 1.6235 3.8738 -0.2912 0
M  V30 16 C 2.6936 3.686 -1.1639 0
M  V30 17 H -0.7827 1.0393 -1.0479 0
M  V30 18 H -3.7015 -0.5324 0.7224 0
M  V30 19 H -3.9322 1.1962 0.3793 0
M  V30 20 H 0.7514 -0.9386 -0.8387 0
M  V30 21 H -1.5833 -0.6722 -2.5081 0
M  V30 22 H -2.0626 -1.7281 -1.1689 0
M  V30 23 H -3.2998 0.9381 -1.9142 0
M  V30 24 H -4.1461 -0.6005 -1.6586 0
M  V30 25 H -0.8693 -1.5367 1.5469 0
M  V30 26 H 1.8365 -0.2322 1.3738 0
M  V30 27 H 0.3956 0.6651 1.7804 0
M  V30 28 H 1.3814 -2.273 1.9513 0
M  V30 29 H 1.4168 -2.9696 0.3189 0
M  V30 30 H -0.4719 -3.8183 2.5792 0
M  V30 31 H -0.4402 -4.5187 0.9479 0
M  V30 32 H 0.9582 -4.6997 2.0191 0
M  V30 33 H 3.095 0.3292 -0.8372 0
M  V30 34 H 0.2361 2.9445 1.0619 0
M  V30 35 H 4.0541 2.2632 -2.0363 0
M  V30 36 H 1.2127 4.8686 -0.14 0
M  V30 37 H 3.1191 4.5349 -1.6923 0
M  V30 END ATOM
M  V30 BEGIN BOND
M  V30 1 1 1 2
M  V30 2 1 1 3
M  V30 3 1 2 4
M  V30 4 1 2 5
M  V30 5 1 3 6
M  V30 6 1 4 7
M  V30 7 1 4 8
M  V30 8 1 7 9
M  V30 9 1 8 10
M  V30 10 1 9 11
M  V30 11 2 10 12
M  V30 12 1 10 13
M  V30 13 1 12 14
M  V30 14 2 13 15
M  V30 15 2 14 16
M  V30 16 1 5 6
M  V30 17 1 15 16
M  V30 18 1 2 17
M  V30 19 1 3 18
M  V30 20 1 3 19
M  V30 21 1 4 20
M  V30 22 1 5 21
M  V30 23 1 5 22
M  V30 24 1 6 23
M  V30 25 1 6 24
M  V30 26 1 7 25
M  V30 27 1 8 26
M  V30 28 1 8 27
M  V30 29 1 9 28
M  V30 30 1 9 29
M  V30 31 1 11 30
M  V30 32 1 11 31
M  V30 33 1 11 32
M  V30 34 1 12 33
M  V30 35 1 13 34
M  V30 36 1 14 35
M  V30 37 1 15 36
M  V30 38 1 16 37
M  V30 END BOND
M  V30 BEGIN COLLECTION
M  V30 MDLV30/STEABS ATOMS=(2 2 4)
M  V30 END COLLECTION
M  V30 END CTAB
M  END
>  <NO.>
1627

>  <Name>
zylofuramine

>  <SMILES>
CCN[C@H](Cc1ccccc1)[C@H]1CCCO1

>  <logBB>


>  <Class>
1

>  <MW>
219.16

>  <nHBAcc>
2

>  <nHBDon>
1

>  <SLogP>
2.39

>  <TopoPSA>
21.26

>  <MMFF94 Energy>
55.057

$$$$
CCOC(=O)C(c1c(O)c2ccccc2oc1=O)c1c(O)c2ccccc2oc1=O
Actelion Java MolfileCreator 2.0

  0  0  0  0  0  0              0 V3000
M  V30 BEGIN CTAB
M  V30 COUNTS 46 49 0 0 0
M  V30 BEGIN ATOM
M  V30 1 O -0.6479 -2.6746 0.4049 0
M  V30 2 C 0.4704 -2.1628 0.456 0
M  V30 3 O 1.5367 -2.8343 1.0239 0
M  V30 4 C 0.6952 -0.7942 -0.0786 0
M  V30 5 C 2.7948 -2.2259 1.1469 0
M  V30 6 C 1.8956 -0.2075 0.0788 0
M  V30 7 C -0.5145 -0.2393 -0.8123 0
M  V30 8 C 3.008 -0.9278 0.6973 0
M  V30 9 C 3.806 -2.9792 1.7431 0
M  V30 10 O 2.1948 1.0702 -0.3421 0
M  V30 11 C -1.4948 0.454 0.1168 0
M  V30 12 C -0.1976 0.594 -2.0692 0
M  V30 13 C 4.2854 -0.3771 0.8564 0
M  V30 14 C 5.0716 -2.419 1.8952 0
M  V30 15 C -1.1281 1.8229 0.5584 0
M  V30 16 C -2.6579 -0.0877 0.5209 0
M  V30 17 O -0.7552 1.6386 -2.3815 0
M  V30 18 O 0.7315 -0.0437 -2.8401 0
M  V30 19 C 5.3115 -1.1183 1.4523 0
M  V30 20 O 0.001 2.265 0.3549 0
M  V30 21 O -2.0728 2.5669 1.2425 0
M  V30 22 O -3.0455 -1.3813 0.2359 0
M  V30 23 C -3.6219 0.6941 1.2934 0
M  V30 24 C 1.1116 0.6703 -4.0224 0
M  V30 25 C -3.3041 2.0082 1.6186 0
M  V30 26 C -4.8594 0.1918 1.7127 0
M  V30 27 C 2.2112 -0.1128 -4.7119 0
M  V30 28 C -4.1753 2.8241 2.34 0
M  V30 29 C -5.7451 0.9961 2.4383 0
M  V30 30 C -5.4032 2.3118 2.751 0
M  V30 31 H -1.0409 -1.0827 -1.285 0
M  V30 32 H 3.6091 -3.9908 2.0859 0
M  V30 33 H 1.4367 1.6693 -0.1504 0
M  V30 34 H 4.4949 0.6346 0.515 0
M  V30 35 H 5.8705 -2.9928 2.3578 0
M  V30 36 H 6.2987 -0.6772 1.5685 0
M  V30 37 H -2.2631 -1.9763 0.2435 0
M  V30 38 H 1.4802 1.6666 -3.7535 0
M  V30 39 H 0.2469 0.7625 -4.6886 0
M  V30 40 H -5.1484 -0.8295 1.4737 0
M  V30 41 H 2.5369 0.3929 -5.6249 0
M  V30 42 H 3.073 -0.233 -4.047 0
M  V30 43 H 1.8648 -1.1191 -4.969 0
M  V30 44 H -3.899 3.8468 2.5797 0
M  V30 45 H -6.704 0.5932 2.7558 0
M  V30 46 H -6.0938 2.9352 3.3134 0
M  V30 END ATOM
M  V30 BEGIN BOND
M  V30 1 2 1 2
M  V30 2 1 2 3
M  V30 3 1 2 4
M  V30 4 1 3 5
M  V30 5 2 4 6
M  V30 6 1 4 7
M  V30 7 2 5 8
M  V30 8 1 5 9
M  V30 9 1 6 10
M  V30 10 1 7 11
M  V30 11 1 7 12
M  V30 12 1 8 13
M  V30 13 2 9 14
M  V30 14 1 11 15
M  V30 15 2 11 16
M  V30 16 2 12 17
M  V30 17 1 12 18
M  V30 18 2 13 19
M  V30 19 2 15 20
M  V30 20 1 15 21
M  V30 21 1 16 22
M  V30 22 1 16 23
M  V30 23 1 18 24
M  V30 24 1 21 25
M  V30 25 1 23 26
M  V30 26 1 24 27
M  V30 27 1 25 28
M  V30 28 2 26 29
M  V30 29 2 28 30
M  V30 30 1 6 8
M  V30 31 1 14 19
M  V30 32 2 23 25
M  V30 33 1 29 30
M  V30 34 1 7 31
M  V30 35 1 9 32
M  V30 36 1 10 33
M  V30 37 1 13 34
M  V30 38 1 14 35
M  V30 39 1 19 36
M  V30 40 1 22 37
M  V30 41 1 24 38
M  V30 42 1 24 39
M  V30 43 1 26 40
M  V30 44 1 27 41
M  V30 45 1 27 42
M  V30 46 1 27 43
M  V30 47 1 28 44
M  V30 48 1 29 45
M  V30 49 1 30 46
M  V30 END BOND
M  V30 END CTAB
M  END
>  <NO.>
1628

>  <Name>
ethyl biscoumacetate

>  <SMILES>
CCOC(=O)C(c1c(O)c2ccccc2oc1=O)c1c(O)c2ccccc2oc1=O

>  <logBB>


>  <Class>
-1

>  <MW>
408.08

>  <nHBAcc>
8

>  <nHBDon>
2

>  <SLogP>
3.01

>  <TopoPSA>
127.18

>  <MMFF94 Energy>
29.758

$$$$
CCOC(=O)C1(c2cccc(O)c2)CCN(C)CC1
Actelion Java MolfileCreator 2.0

  0  0  0  0  0  0              0 V3000
M  V30 BEGIN CTAB
M  V30 COUNTS 40 41 0 0 0
M  V30 BEGIN ATOM
M  V30 1 O -1.2643 1.8969 1.8178 0
M  V30 2 C -1.2142 0.868 1.1527 0
M  V30 3 O -1.9924 -0.2298 1.3893 0
M  V30 4 C -0.2301 0.6236 -0.0116 0
M  V30 5 C -2.8947 -0.0872 2.4928 0
M  V30 6 C 1.0061 -0.1116 0.5601 0
M  V30 7 C 0.0712 2.0197 -0.6332 0
M  V30 8 C -0.9433 -0.1788 -1.1391 0
M  V30 9 C -3.6718 -1.3812 2.6353 0
M  V30 10 C 0.9585 -1.4962 0.8276 0
M  V30 11 C 2.193 0.5648 0.8991 0
M  V30 12 C 0.8479 1.9357 -1.9481 0
M  V30 13 C -0.1264 -0.2243 -2.4309 0
M  V30 14 C 2.0624 -2.1642 1.3593 0
M  V30 15 C 3.2955 -0.1142 1.4307 0
M  V30 16 N 0.1177 1.1308 -2.9321 0
M  V30 17 O 2.0267 -3.5036 1.6142 0
M  V30 18 C 3.2324 -1.4841 1.6546 0
M  V30 19 C 0.848 1.0854 -4.1995 0
M  V30 20 H -3.5861 0.7408 2.3004 0
M  V30 21 H -2.3293 0.1072 3.4111 0
M  V30 22 H -0.8801 2.5364 -0.833 0
M  V30 23 H 0.599 2.6769 0.0676 0
M  V30 24 H -1.9159 0.2884 -1.3554 0
M  V30 25 H -1.1866 -1.2037 -0.8399 0
M  V30 26 H -4.3776 -1.3231 3.4685 0
M  V30 27 H -4.2258 -1.6011 1.7167 0
M  V30 28 H -2.9914 -2.2222 2.8056 0
M  V30 29 H 0.0506 -2.0608 0.64 0
M  V30 30 H 2.2949 1.6387 0.7692 0
M  V30 31 H 1.8541 1.5338 -1.779 0
M  V30 32 H 0.9722 2.9561 -2.3315 0
M  V30 33 H 0.8138 -0.7668 -2.2713 0
M  V30 34 H -0.7021 -0.7902 -3.1737 0
M  V30 35 H 4.2018 0.4329 1.6777 0
M  V30 36 H 1.1449 -3.8414 1.3885 0
M  V30 37 H 4.0837 -2.0146 2.0702 0
M  V30 38 H 0.9884 2.096 -4.599 0
M  V30 39 H 0.2789 0.5276 -4.9515 0
M  V30 40 H 1.8328 0.616 -4.0936 0
M  V30 END ATOM
M  V30 BEGIN BOND
M  V30 1 2 1 2
M  V30 2 1 2 3
M  V30 3 1 2 4
M  V30 4 1 3 5
M  V30 5 1 4 6
M  V30 6 1 4 7
M  V30 7 1 4 8
M  V30 8 1 5 9
M  V30 9 2 6 10
M  V30 10 1 6 11
M  V30 11 1 7 12
M  V30 12 1 8 13
M  V30 13 1 10 14
M  V30 14 2 11 15
M  V30 15 1 12 16
M  V30 16 1 14 17
M  V30 17 2 14 18
M  V30 18 1 16 19
M  V30 19 1 13 16
M  V30 20 1 15 18
M  V30 21 1 5 20
M  V30 22 1 5 21
M  V30 23 1 7 22
M  V30 24 1 7 23
M  V30 25 1 8 24
M  V30 26 1 8 25
M  V30 27 1 9 26
M  V30 28 1 9 27
M  V30 29 1 9 28
M  V30 30 1 10 29
M  V30 31 1 11 30
M  V30 32 1 12 31
M  V30 33 1 12 32
M  V30 34 1 13 33
M  V30 35 1 13 34
M  V30 36 1 15 35
M  V30 37 1 17 36
M  V30 38 1 18 37
M  V30 39 1 19 38
M  V30 40 1 19 39
M  V30 41 1 19 40
M  V30 END BOND
M  V30 END CTAB
M  END
>  <NO.>
1629

>  <Name>
hydroxypethidine

>  <SMILES>
CCOC(=O)C1(c2cccc(O)c2)CCN(C)CC1

>  <logBB>


>  <Class>
1

>  <MW>
263.15

>  <nHBAcc>
4

>  <nHBDon>
1

>  <SLogP>
1.92

>  <TopoPSA>
49.77

>  <MMFF94 Energy>
21.78

$$$$
CCOC(=O)C1(c2ccccc2)CCC=CC1N(C)C
Actelion Java MolfileCreator 2.0

  0  0  0  0  0  0              0 V3000
M  V30 BEGIN CTAB
M  V30 COUNTS 43 44 0 0 0
M  V30 BEGIN ATOM
M  V30 1 O 0.5538 1.2662 1.8206 0
M  V30 2 C 0.5814 1.1255 0.6052 0
M  V30 3 O 1.4628 1.8122 -0.1925 0
M  V30 4 C -0.27 0.1356 -0.2363 0
M  V30 5 C 2.3024 2.7388 0.5067 0
M  V30 6 C 0.5222 -1.1426 -0.6375 0
M  V30 7 C -1.6457 -0.1899 0.5163 0
M  V30 8 C -0.6517 0.8518 -1.5844 0
M  V30 9 C 3.1894 3.4287 -0.5106 0
M  V30 10 C 1.8681 -1.3391 -0.275 0
M  V30 11 C -0.0922 -2.1553 -1.4034 0
M  V30 12 N -1.6793 -0.8158 1.8719 0
M  V30 13 C -2.5213 1.0635 0.5545 0
M  V30 14 C -1.4012 2.1714 -1.3862 0
M  V30 15 C 2.5615 -2.4935 -0.6524 0
M  V30 16 C 0.6021 -3.3081 -1.7804 0
M  V30 17 C -2.9439 -1.5297 2.112 0
M  V30 18 C -0.5809 -1.7265 2.1832 0
M  V30 19 C -2.4024 2.1059 -0.281 0
M  V30 20 C 1.9292 -3.4773 -1.4041 0
M  V30 21 H 2.9215 2.2006 1.2329 0
M  V30 22 H 1.6845 3.4818 1.0231 0
M  V30 23 H -2.1857 -0.8864 -0.1411 0
M  V30 24 H -1.295 0.1948 -2.1861 0
M  V30 25 H 0.2351 1.0349 -2.2057 0
M  V30 26 H 3.8527 4.1498 -0.025 0
M  V30 27 H 3.7977 2.6961 -1.051 0
M  V30 28 H 2.5835 3.9522 -1.2576 0
M  V30 29 H 2.4112 -0.6079 0.3191 0
M  V30 30 H -1.1278 -2.0647 -1.7231 0
M  V30 31 H -3.2854 1.1268 1.3251 0
M  V30 32 H -1.9089 2.4372 -2.3206 0
M  V30 33 H -0.697 2.9834 -1.173 0
M  V30 34 H 3.5993 -2.6214 -0.3549 0
M  V30 35 H 0.1032 -4.073 -2.3698 0
M  V30 36 H -2.9911 -1.8877 3.1472 0
M  V30 37 H -3.818 -0.8852 1.9794 0
M  V30 38 H -3.0554 -2.3939 1.4466 0
M  V30 39 H -0.5573 -2.5948 1.5172 0
M  V30 40 H 0.388 -1.2253 2.168 0
M  V30 41 H -0.6826 -2.1053 3.2079 0
M  V30 42 H -3.0598 2.9638 -0.156 0
M  V30 43 H 2.4702 -4.373 -1.6963 0
M  V30 END ATOM
M  V30 BEGIN BOND
M  V30 1 2 1 2
M  V30 2 1 2 3
M  V30 3 1 2 4
M  V30 4 1 3 5
M  V30 5 1 4 6
M  V30 6 1 4 7
M  V30 7 1 4 8
M  V30 8 1 5 9
M  V30 9 2 6 10
M  V30 10 1 6 11
M  V30 11 1 7 12
M  V30 12 1 7 13
M  V30 13 1 8 14
M  V30 14 1 10 15
M  V30 15 2 11 16
M  V30 16 1 12 17
M  V30 17 1 12 18
M  V30 18 2 13 19
M  V30 19 2 15 20
M  V30 20 1 14 19
M  V30 21 1 16 20
M  V30 22 1 5 21
M  V30 23 1 5 22
M  V30 24 1 7 23
M  V30 25 1 8 24
M  V30 26 1 8 25
M  V30 27 1 9 26
M  V30 28 1 9 27
M  V30 29 1 9 28
M  V30 30 1 10 29
M  V30 31 1 11 30
M  V30 32 1 13 31
M  V30 33 1 14 32
M  V30 34 1 14 33
M  V30 35 1 15 34
M  V30 36 1 16 35
M  V30 37 1 17 36
M  V30 38 1 17 37
M  V30 39 1 17 38
M  V30 40 1 18 39
M  V30 41 1 18 40
M  V30 42 1 18 41
M  V30 43 1 19 42
M  V30 44 1 20 43
M  V30 END BOND
M  V30 END CTAB
M  END
>  <NO.>
1630

>  <Name>
tilidine

>  <SMILES>
CCOC(=O)C1(c2ccccc2)CCC=CC1N(C)C

>  <logBB>


>  <Class>
1

>  <MW>
273.17

>  <nHBAcc>
3

>  <nHBDon>
0

>  <SLogP>
2.77

>  <TopoPSA>
29.54

>  <MMFF94 Energy>
73.005

$$$$
CCOC(=O)C1(c2ccccc2)CCN(CCCNc2ccccc2)CC1
Actelion Java MolfileCreator 2.0

  0  0  0  0  0  0              0 V3000
M  V30 BEGIN CTAB
M  V30 COUNTS 57 59 0 0 0
M  V30 BEGIN ATOM
M  V30 1 O 2.8484 -0.4743 -2.69 0
M  V30 2 C 2.1429 -1.3212 -2.152 0
M  V30 3 O 1.2297 -2.0831 -2.8222 0
M  V30 4 C 2.2011 -1.6835 -0.6489 0
M  V30 5 C 1.1607 -1.8254 -4.2296 0
M  V30 6 C 3.2073 -2.8474 -0.4769 0
M  V30 7 C 0.8087 -2.0932 -0.0986 0
M  V30 8 C 2.6142 -0.4003 0.1234 0
M  V30 9 C 0.1139 -2.7464 -4.8251 0
M  V30 10 C 2.886 -4.1369 -0.9479 0
M  V30 11 C 4.4743 -2.6745 0.1076 0
M  V30 12 C -0.2052 -0.9476 -0.1333 0
M  V30 13 C 1.5479 0.6987 0.0781 0
M  V30 14 C 3.7787 -5.2047 -0.8201 0
M  V30 15 C 5.3676 -3.7436 0.2355 0
M  V30 16 N 0.2718 0.2185 0.6207 0
M  V30 17 C 5.0192 -5.0084 -0.2252 0
M  V30 18 C -0.765 1.2717 0.6195 0
M  V30 19 C -0.4928 2.3811 1.646 0
M  V30 20 C -1.6318 3.4023 1.6991 0
M  V30 21 N -2.8202 2.8239 2.298 0
M  V30 22 C -4.0321 3.4822 2.4006 0
M  V30 23 C -4.2596 4.768 1.8975 0
M  V30 24 C -5.114 2.82 2.9982 0
M  V30 25 C -5.5143 5.3796 2.0044 0
M  V30 26 C -6.3706 3.424 3.1084 0
M  V30 27 C -6.5703 4.7074 2.6118 0
M  V30 28 H 2.1346 -2.0247 -4.6905 0
M  V30 29 H 0.8756 -0.7813 -4.4007 0
M  V30 30 H 0.915 -2.4409 0.9391 0
M  V30 31 H 0.3782 -2.9362 -0.6517 0
M  V30 32 H 2.8076 -0.6459 1.1775 0
M  V30 33 H 3.5476 0.018 -0.2752 0
M  V30 34 H 0.0224 -2.588 -5.9032 0
M  V30 35 H 0.3737 -3.7943 -4.6418 0
M  V30 36 H -0.8614 -2.5741 -4.3578 0
M  V30 37 H 1.9322 -4.332 -1.4339 0
M  V30 38 H 4.8045 -1.7067 0.4755 0
M  V30 39 H -0.439 -0.6748 -1.1702 0
M  V30 40 H -1.1354 -1.3188 0.315 0
M  V30 41 H 1.4239 1.0743 -0.9451 0
M  V30 42 H 1.9276 1.5319 0.679 0
M  V30 43 H 3.5033 -6.1888 -1.1905 0
M  V30 44 H 6.3401 -3.5826 0.6943 0
M  V30 45 H 5.7154 -5.8366 -0.1261 0
M  V30 46 H -1.7286 0.812 0.8735 0
M  V30 47 H -0.8764 1.704 -0.3834 0
M  V30 48 H -0.3355 1.9426 2.6395 0
M  V30 49 H 0.4223 2.9213 1.3801 0
M  V30 50 H -1.3062 4.2602 2.2994 0
M  V30 51 H -1.8433 3.7589 0.684 0
M  V30 52 H -2.7199 1.9525 2.8069 0
M  V30 53 H -3.462 5.3248 1.4156 0
M  V30 54 H -4.9856 1.8132 3.3879 0
M  V30 55 H -5.6622 6.3814 1.6101 0
M  V30 56 H -7.1896 2.8878 3.58 0
M  V30 57 H -7.5447 5.1808 2.6947 0
M  V30 END ATOM
M  V30 BEGIN BOND
M  V30 1 2 1 2
M  V30 2 1 2 3
M  V30 3 1 2 4
M  V30 4 1 3 5
M  V30 5 1 4 6
M  V30 6 1 4 7
M  V30 7 1 4 8
M  V30 8 1 5 9
M  V30 9 2 6 10
M  V30 10 1 6 11
M  V30 11 1 7 12
M  V30 12 1 8 13
M  V30 13 1 10 14
M  V30 14 2 11 15
M  V30 15 1 12 16
M  V30 16 2 14 17
M  V30 17 1 16 18
M  V30 18 1 18 19
M  V30 19 1 19 20
M  V30 20 1 20 21
M  V30 21 1 21 22
M  V30 22 2 22 23
M  V30 23 1 22 24
M  V30 24 1 23 25
M  V30 25 2 24 26
M  V30 26 2 25 27
M  V30 27 1 13 16
M  V30 28 1 15 17
M  V30 29 1 26 27
M  V30 30 1 5 28
M  V30 31 1 5 29
M  V30 32 1 7 30
M  V30 33 1 7 31
M  V30 34 1 8 32
M  V30 35 1 8 33
M  V30 36 1 9 34
M  V30 37 1 9 35
M  V30 38 1 9 36
M  V30 39 1 10 37
M  V30 40 1 11 38
M  V30 41 1 12 39
M  V30 42 1 12 40
M  V30 43 1 13 41
M  V30 44 1 13 42
M  V30 45 1 14 43
M  V30 46 1 15 44
M  V30 47 1 17 45
M  V30 48 1 18 46
M  V30 49 1 18 47
M  V30 50 1 19 48
M  V30 51 1 19 49
M  V30 52 1 20 50
M  V30 53 1 20 51
M  V30 54 1 21 52
M  V30 55 1 23 53
M  V30 56 1 24 54
M  V30 57 1 25 55
M  V30 58 1 26 56
M  V30 59 1 27 57
M  V30 END BOND
M  V30 END CTAB
M  END
>  <NO.>
1631

>  <Name>
piminodine

>  <SMILES>
CCOC(=O)C1(c2ccccc2)CCN(CCCNc2ccccc2)CC1

>  <logBB>


>  <Class>
1

>  <MW>
366.23

>  <nHBAcc>
4

>  <nHBDon>
1

>  <SLogP>
4.09

>  <TopoPSA>
41.57

>  <MMFF94 Energy>
40.307

$$$$
CCOC(=O)C1(c2ccccc2)CCN(CCc2ccc(N)cc2)CC1
Actelion Java MolfileCreator 2.0

  0  0  0  0  0  0              0 V3000
M  V30 BEGIN CTAB
M  V30 COUNTS 54 56 0 0 0
M  V30 BEGIN ATOM
M  V30 1 O 0.6329 -1.6622 -2.6922 0
M  V30 2 C 1.5769 -1.3369 -1.9806 0
M  V30 3 O 2.6648 -0.6403 -2.4221 0
M  V30 4 C 1.7121 -1.6955 -0.4822 0
M  V30 5 C 2.6657 -0.2876 -3.8125 0
M  V30 6 C 2.6911 -2.8854 -0.359 0
M  V30 7 C 0.3268 -2.1144 0.0775 0
M  V30 8 C 2.1478 -0.4357 0.3099 0
M  V30 9 C 1.9249 1.0202 -4.0182 0
M  V30 10 C 2.3995 -4.0992 -1.0151 0
M  V30 11 C 3.8898 -2.816 0.3702 0
M  V30 12 C -0.6857 -0.9633 0.1093 0
M  V30 13 C 1.0903 0.6683 0.2804 0
M  V30 14 C 3.2619 -5.1952 -0.9353 0
M  V30 15 C 4.7523 -3.9142 0.4499 0
M  V30 16 N -0.1742 0.193 0.8555 0
M  V30 17 C 4.4383 -5.103 -0.2006 0
M  V30 18 C -1.1527 1.3018 0.892 0
M  V30 19 C -2.403 0.994 1.734 0
M  V30 20 C -3.3002 2.2032 1.8559 0
M  V30 21 C -3.1599 3.0884 2.9302 0
M  V30 22 C -4.2619 2.4779 0.8774 0
M  V30 23 C -3.9779 4.2184 3.0284 0
M  V30 24 C -5.0761 3.61 0.9828 0
M  V30 25 C -4.9551 4.4803 2.0671 0
M  V30 26 N -5.7337 5.621 2.1459 0
M  V30 27 H 2.2444 -1.0904 -4.4281 0
M  V30 28 H 3.7121 -0.1688 -4.1114 0
M  V30 29 H 0.4482 -2.5046 1.0982 0
M  V30 30 H -0.1122 -2.9316 -0.5082 0
M  V30 31 H 2.3301 -0.6991 1.3614 0
M  V30 32 H 3.0917 -0.0268 -0.0715 0
M  V30 33 H 1.9696 1.3309 -5.0657 0
M  V30 34 H 0.8742 0.9276 -3.7256 0
M  V30 35 H 2.3593 1.8097 -3.3961 0
M  V30 36 H 1.4918 -4.2057 -1.6077 0
M  V30 37 H 4.187 -1.9111 0.8928 0
M  V30 38 H -0.9691 -0.6739 -0.9097 0
M  V30 39 H -1.5897 -1.3526 0.59 0
M  V30 40 H 0.9469 1.0406 -0.7416 0
M  V30 41 H 1.4723 1.5073 0.8754 0
M  V30 42 H 3.0126 -6.1194 -1.4501 0
M  V30 43 H 5.6732 -3.8373 1.0226 0
M  V30 44 H 5.1105 -5.9541 -0.1371 0
M  V30 45 H -1.4439 1.5916 -0.1267 0
M  V30 46 H -0.667 2.1817 1.3358 0
M  V30 47 H -2.9846 0.1751 1.2952 0
M  V30 48 H -2.109 0.6571 2.7364 0
M  V30 49 H -2.4099 2.9084 3.6969 0
M  V30 50 H -4.3835 1.8158 0.0235 0
M  V30 51 H -3.8429 4.8943 3.8682 0
M  V30 52 H -5.8097 3.8051 0.2055 0
M  V30 53 H -5.7002 6.2002 2.9732 0
M  V30 54 H -6.4941 5.7608 1.4956 0
M  V30 END ATOM
M  V30 BEGIN BOND
M  V30 1 2 1 2
M  V30 2 1 2 3
M  V30 3 1 2 4
M  V30 4 1 3 5
M  V30 5 1 4 6
M  V30 6 1 4 7
M  V30 7 1 4 8
M  V30 8 1 5 9
M  V30 9 2 6 10
M  V30 10 1 6 11
M  V30 11 1 7 12
M  V30 12 1 8 13
M  V30 13 1 10 14
M  V30 14 2 11 15
M  V30 15 1 12 16
M  V30 16 2 14 17
M  V30 17 1 16 18
M  V30 18 1 18 19
M  V30 19 1 19 20
M  V30 20 2 20 21
M  V30 21 1 20 22
M  V30 22 1 21 23
M  V30 23 2 22 24
M  V30 24 2 23 25
M  V30 25 1 25 26
M  V30 26 1 13 16
M  V30 27 1 15 17
M  V30 28 1 24 25
M  V30 29 1 5 27
M  V30 30 1 5 28
M  V30 31 1 7 29
M  V30 32 1 7 30
M  V30 33 1 8 31
M  V30 34 1 8 32
M  V30 35 1 9 33
M  V30 36 1 9 34
M  V30 37 1 9 35
M  V30 38 1 10 36
M  V30 39 1 11 37
M  V30 40 1 12 38
M  V30 41 1 12 39
M  V30 42 1 13 40
M  V30 43 1 13 41
M  V30 44 1 14 42
M  V30 45 1 15 43
M  V30 46 1 17 44
M  V30 47 1 18 45
M  V30 48 1 18 46
M  V30 49 1 19 47
M  V30 50 1 19 48
M  V30 51 1 21 49
M  V30 52 1 22 50
M  V30 53 1 23 51
M  V30 54 1 24 52
M  V30 55 1 26 53
M  V30 56 1 26 54
M  V30 END BOND
M  V30 END CTAB
M  END
>  <NO.>
1632

>  <Name>
anileridine

>  <SMILES>
CCOC(=O)C1(c2ccccc2)CCN(CCc2ccc(N)cc2)CC1

>  <logBB>


>  <Class>
1

>  <MW>
352.22

>  <nHBAcc>
4

>  <nHBDon>
1

>  <SLogP>
3.41

>  <TopoPSA>
55.56

>  <MMFF94 Energy>
50.222

$$$$
CCOC(=O)C1=C(C)NC(C)=C(C(=O)OC)C1c1cccc(Cl)c1Cl
Actelion Java MolfileCreator 2.0

  0  0  0  0  0  0              0 V3000
M  V30 BEGIN CTAB
M  V30 COUNTS 44 45 0 0 0
M  V30 BEGIN ATOM
M  V30 1 Cl 1.6974 2.5065 -0.5655 0
M  V30 2 C 1.4333 1.7153 0.9571 0
M  V30 3 C 1.9322 2.2999 2.1366 0
M  V30 4 C 0.7266 0.4941 1.0213 0
M  V30 5 Cl 2.8068 3.7952 2.1392 0
M  V30 6 C 1.7356 1.6813 3.3738 0
M  V30 7 C 0.5449 -0.1083 2.2872 0
M  V30 8 C 0.1468 -0.2126 -0.2165 0 CFG=2
M  V30 9 C 1.043 0.4783 3.4489 0
M  V30 10 C -1.376 -0.3149 -0.1202 0
M  V30 11 C 0.8149 -1.5722 -0.4283 0
M  V30 12 C -2.0116 -1.5081 -0.1351 0
M  V30 13 C -2.1258 0.9498 0.0307 0
M  V30 14 C 0.1027 -2.7216 -0.4324 0
M  V30 15 C 2.2845 -1.5807 -0.5899 0
M  V30 16 N -1.2722 -2.6731 -0.2646 0
M  V30 17 C -3.5069 -1.6856 -0.0541 0
M  V30 18 O -2.9658 1.1566 0.8921 0
M  V30 19 O -1.7328 1.8186 -0.9321 0
M  V30 20 C 0.6895 -4.0943 -0.6451 0
M  V30 21 O 3.0449 -2.3037 0.034 0
M  V30 22 O 2.6343 -0.669 -1.5294 0
M  V30 23 C -2.3856 3.0922 -0.8733 0
M  V30 24 C 4.0422 -0.5661 -1.7425 0
M  V30 25 C -1.8951 3.9322 -2.0362 0
M  V30 26 H 2.1216 2.134 4.2842 0
M  V30 27 H 0.0054 -1.0522 2.3748 0
M  V30 28 H 0.3466 0.3616 -1.1273 0
M  V30 29 H 0.8895 -0.0047 4.4113 0
M  V30 30 H -1.779 -3.5553 -0.2677 0
M  V30 31 H -3.8359 -2.4619 -0.7544 0
M  V30 32 H -4.0636 -0.7818 -0.3154 0
M  V30 33 H -3.7942 -1.9939 0.9562 0
M  V30 34 H 1.6669 -4.0741 -1.1341 0
M  V30 35 H 0.7872 -4.6136 0.3136 0
M  V30 36 H 0.0358 -4.6913 -1.2915 0
M  V30 37 H -2.1389 3.5874 0.0725 0
M  V30 38 H -3.4707 2.958 -0.9479 0
M  V30 39 H 4.2144 0.2003 -2.5032 0
M  V30 40 H 4.5477 -0.2592 -0.8214 0
M  V30 41 H 4.4445 -1.5156 -2.1089 0
M  V30 42 H -2.373 4.9158 -2.0355 0
M  V30 43 H -0.81 4.0675 -1.9852 0
M  V30 44 H -2.1095 3.4351 -2.988 0
M  V30 END ATOM
M  V30 BEGIN BOND
M  V30 1 1 1 2
M  V30 2 2 2 3
M  V30 3 1 2 4
M  V30 4 1 3 5
M  V30 5 1 3 6
M  V30 6 2 4 7
M  V30 7 1 4 8
M  V30 8 2 6 9
M  V30 9 1 8 10
M  V30 10 1 8 11
M  V30 11 2 10 12
M  V30 12 1 10 13
M  V30 13 2 11 14
M  V30 14 1 11 15
M  V30 15 1 12 16
M  V30 16 1 12 17
M  V30 17 2 13 18
M  V30 18 1 13 19
M  V30 19 1 14 20
M  V30 20 2 15 21
M  V30 21 1 15 22
M  V30 22 1 19 23
M  V30 23 1 22 24
M  V30 24 1 23 25
M  V30 25 1 7 9
M  V30 26 1 14 16
M  V30 27 1 6 26
M  V30 28 1 7 27
M  V30 29 1 8 28
M  V30 30 1 9 29
M  V30 31 1 16 30
M  V30 32 1 17 31
M  V30 33 1 17 32
M  V30 34 1 17 33
M  V30 35 1 20 34
M  V30 36 1 20 35
M  V30 37 1 20 36
M  V30 38 1 23 37
M  V30 39 1 23 38
M  V30 40 1 24 39
M  V30 41 1 24 40
M  V30 42 1 24 41
M  V30 43 1 25 42
M  V30 44 1 25 43
M  V30 45 1 25 44
M  V30 END BOND
M  V30 BEGIN COLLECTION
M  V30 MDLV30/STERAC1 ATOMS=(1 8)
M  V30 END COLLECTION
M  V30 END CTAB
M  END
>  <NO.>
1633

>  <Name>
felodipine

>  <SMILES>
CCOC(=O)C1=C(C)NC(C)=C(C(=O)OC)C1c1cccc(Cl)c1Cl

>  <logBB>


>  <Class>
-1

>  <MW>
383.07

>  <nHBAcc>
5

>  <nHBDon>
1

>  <SLogP>
3.96

>  <TopoPSA>
64.63

>  <MMFF94 Energy>
14.362

$$$$
CCOC(=O)C1N=C(c2ccccc2F)c2cc(Cl)ccc2NC1=O
Actelion Java MolfileCreator 2.0

  0  0  0  0  0  0              0 V3000
M  V30 BEGIN CTAB
M  V30 COUNTS 39 41 0 0 0
M  V30 BEGIN ATOM
M  V30 1 Cl -1.8722 -3.2577 3.9918 0
M  V30 2 C -1.9334 -2.3195 2.5519 0
M  V30 3 C -0.7517 -1.9795 1.8968 0
M  V30 4 C -3.1635 -1.9133 2.0446 0
M  V30 5 C -0.794 -1.2169 0.7178 0
M  V30 6 C -3.2124 -1.1471 0.8788 0
M  V30 7 C 0.4858 -0.9476 -2.0E-4 0
M  V30 8 C -2.0323 -0.7774 0.22 0
M  V30 9 N 0.8058 0.1566 -0.5815 0
M  V30 10 C 1.4701 -2.0522 -0.0843 0
M  V30 11 N -2.1814 -0.0041 -0.9385 0
M  V30 12 C -0.1212 1.3044 -0.5327 0 CFG=2
M  V30 13 C 2.7037 -1.9339 0.5533 0
M  V30 14 C 1.1595 -3.2045 -0.8136 0
M  V30 15 C -1.34 0.9869 -1.3856 0
M  V30 16 C 0.5906 2.5606 -1.0247 0
M  V30 17 F 2.995 -0.854 1.2926 0
M  V30 18 C 3.635 -2.9648 0.4739 0
M  V30 19 C 2.0953 -4.238 -0.8939 0
M  V30 20 O -1.6438 1.5874 -2.4168 0
M  V30 21 O 1.665 2.6138 -1.6108 0
M  V30 22 O -0.1496 3.6639 -0.6819 0
M  V30 23 C 3.3308 -4.1183 -0.2514 0
M  V30 24 C 0.4113 4.9034 -1.1289 0
M  V30 25 C -0.5247 6.0222 -0.7149 0
M  V30 26 H 0.1966 -2.3092 2.3144 0
M  V30 27 H -4.0863 -2.1832 2.553 0
M  V30 28 H -4.1821 -0.8271 0.5023 0
M  V30 29 H -3.0215 -0.1029 -1.4965 0
M  V30 30 H -0.4174 1.501 0.5059 0
M  V30 31 H 0.2089 -3.2945 -1.3324 0
M  V30 32 H 4.5912 -2.8626 0.9779 0
M  V30 33 H 1.8671 -5.1345 -1.4663 0
M  V30 34 H 4.0593 -4.9231 -0.3204 0
M  V30 35 H 0.5138 4.8927 -2.2198 0
M  V30 36 H 1.393 5.0528 -0.6657 0
M  V30 37 H -0.1374 6.9936 -1.0348 0
M  V30 38 H -1.5178 5.8756 -1.1525 0
M  V30 39 H -0.6545 6.0338 0.3723 0
M  V30 END ATOM
M  V30 BEGIN BOND
M  V30 1 1 1 2
M  V30 2 2 2 3
M  V30 3 1 2 4
M  V30 4 1 3 5
M  V30 5 2 4 6
M  V30 6 1 5 7
M  V30 7 2 5 8
M  V30 8 2 7 9
M  V30 9 1 7 10
M  V30 10 1 8 11
M  V30 11 1 9 12
M  V30 12 2 10 13
M  V30 13 1 10 14
M  V30 14 1 11 15
M  V30 15 1 12 16
M  V30 16 1 13 17
M  V30 17 1 13 18
M  V30 18 2 14 19
M  V30 19 2 15 20
M  V30 20 2 16 21
M  V30 21 1 16 22
M  V30 22 2 18 23
M  V30 23 1 22 24
M  V30 24 1 24 25
M  V30 25 1 6 8
M  V30 26 1 12 15
M  V30 27 1 19 23
M  V30 28 1 3 26
M  V30 29 1 4 27
M  V30 30 1 6 28
M  V30 31 1 11 29
M  V30 32 1 12 30
M  V30 33 1 14 31
M  V30 34 1 18 32
M  V30 35 1 19 33
M  V30 36 1 23 34
M  V30 37 1 24 35
M  V30 38 1 24 36
M  V30 39 1 25 37
M  V30 40 1 25 38
M  V30 41 1 25 39
M  V30 END BOND
M  V30 BEGIN COLLECTION
M  V30 MDLV30/STERAC1 ATOMS=(1 12)
M  V30 END COLLECTION
M  V30 END CTAB
M  END
>  <NO.>
1634

>  <Name>
ethyl-loflazepate

>  <SMILES>
CCOC(=O)C1N=C(c2ccccc2F)c2cc(Cl)ccc2NC1=O

>  <logBB>


>  <Class>
1

>  <MW>
360.07

>  <nHBAcc>
4

>  <nHBDon>
1

>  <SLogP>
3.2

>  <TopoPSA>
67.76

>  <MMFF94 Energy>
121.76

$$$$
CCOC(=O)C[C@@H](O)C[C@@H](O)/C=C/C1=C(c2ccc(F)cc2)c2ccccc2OC12CCCC2
Actelion Java MolfileCreator 2.0

  0  0  0  0  0  0              0 V3000
M  V30 BEGIN CTAB
M  V30 COUNTS 65 68 0 0 0
M  V30 BEGIN ATOM
M  V30 1 F -2.1579 -2.798 3.9989 0
M  V30 2 C -1.3848 -2.7855 2.9055 0
M  V30 3 C -0.0015 -2.7829 3.0466 0
M  V30 4 C -1.9791 -2.7758 1.6485 0
M  V30 5 C 0.8058 -2.7666 1.9084 0
M  V30 6 C -1.1747 -2.7604 0.5084 0
M  V30 7 C 0.2234 -2.7498 0.6322 0
M  V30 8 C 1.0851 -2.7211 -0.5768 0
M  V30 9 C 1.4654 -3.934 -1.3349 0
M  V30 10 C 1.5747 -1.541 -1.0339 0
M  V30 11 C 2.4643 -3.865 -2.3055 0
M  V30 12 C 0.8758 -5.1836 -1.0795 0
M  V30 13 C 1.2459 -0.2621 -0.3991 0
M  V30 14 C 2.488 -1.4684 -2.2676 0
M  V30 15 O 3.13 -2.7167 -2.6108 0
M  V30 16 C 2.878 -5.0073 -2.9964 0
M  V30 17 C 1.2753 -6.3258 -1.7803 0
M  V30 18 C 0.0457 0.3342 -0.501 0
M  V30 19 C 3.6737 -0.4664 -2.1447 0
M  V30 20 C 1.7038 -0.9953 -3.5217 0
M  V30 21 C 2.2791 -6.2376 -2.7392 0
M  V30 22 C -0.3807 1.6248 0.1497 0 CFG=2
M  V30 23 C 3.3857 0.6448 -3.1468 0
M  V30 24 C 2.6619 -0.0753 -4.268 0
M  V30 25 O 0.6091 2.0641 1.0724 0
M  V30 26 C -1.7245 1.4599 0.8752 0
M  V30 27 C -2.348 2.7652 1.3993 0 CFG=2
M  V30 28 O -2.5643 3.6548 0.3008 0
M  V30 29 C -1.5396 3.4462 2.5 0
M  V30 30 C -2.4447 4.323 3.3238 0
M  V30 31 O -3.177 3.9033 4.2101 0
M  V30 32 O -2.3415 5.621 2.928 0
M  V30 33 C -3.1931 6.5518 3.6117 0
M  V30 34 C -4.5531 6.6047 2.941 0
M  V30 35 H 0.438 -2.7965 4.0388 0
M  V30 36 H -3.0612 -2.7812 1.565 0
M  V30 37 H 1.8882 -2.7681 2.0163 0
M  V30 38 H -1.6372 -2.7528 -0.4758 0
M  V30 39 H 0.0998 -5.292 -0.3257 0
M  V30 40 H 2.046 0.2024 0.1723 0
M  V30 41 H 3.669 -4.9324 -3.7377 0
M  V30 42 H 0.8068 -7.2836 -1.5684 0
M  V30 43 H -0.7166 -0.1375 -1.1201 0
M  V30 44 H 3.824 -0.0604 -1.1405 0
M  V30 45 H 4.621 -0.9511 -2.4175 0
M  V30 46 H 0.8087 -0.4222 -3.2541 0
M  V30 47 H 1.3876 -1.8237 -4.1647 0
M  V30 48 H 2.599 -7.1236 -3.2807 0
M  V30 49 H -0.4655 2.3845 -0.6343 0
M  V30 50 H 2.7352 1.4042 -2.6972 0
M  V30 51 H 4.2994 1.1379 -3.4907 0
M  V30 52 H 2.1375 0.614 -4.9359 0
M  V30 53 H 3.3681 -0.6638 -4.8654 0
M  V30 54 H 0.7431 1.3391 1.7089 0
M  V30 55 H -1.6105 0.7658 1.7182 0
M  V30 56 H -2.4422 1.0084 0.177 0
M  V30 57 H -3.3444 2.5119 1.7822 0
M  V30 58 H -1.7448 4.1547 0.1354 0
M  V30 59 H -0.7215 4.0564 2.1015 0
M  V30 60 H -1.1001 2.7154 3.1888 0
M  V30 61 H -2.7121 7.5332 3.5464 0
M  V30 62 H -3.2795 6.3058 4.6763 0
M  V30 63 H -5.1917 7.3542 3.4172 0
M  V30 64 H -4.4487 6.8521 1.8794 0
M  V30 65 H -5.0552 5.6335 2.9933 0
M  V30 END ATOM
M  V30 BEGIN BOND
M  V30 1 1 1 2
M  V30 2 2 2 3
M  V30 3 1 2 4
M  V30 4 1 3 5
M  V30 5 2 4 6
M  V30 6 2 5 7
M  V30 7 1 7 8
M  V30 8 1 8 9
M  V30 9 2 8 10
M  V30 10 2 9 11
M  V30 11 1 9 12
M  V30 12 1 10 13
M  V30 13 1 10 14
M  V30 14 1 11 15
M  V30 15 1 11 16
M  V30 16 2 12 17
M  V30 17 2 13 18
M  V30 18 1 14 19
M  V30 19 1 14 20
M  V30 20 2 16 21
M  V30 21 1 18 22
M  V30 22 1 19 23
M  V30 23 1 20 24
M  V30 24 1 22 25
M  V30 25 1 22 26
M  V30 26 1 26 27
M  V30 27 1 27 28
M  V30 28 1 27 29
M  V30 29 1 29 30
M  V30 30 2 30 31
M  V30 31 1 30 32
M  V30 32 1 32 33
M  V30 33 1 33 34
M  V30 34 1 6 7
M  V30 35 1 14 15
M  V30 36 1 17 21
M  V30 37 1 23 24
M  V30 38 1 3 35
M  V30 39 1 4 36
M  V30 40 1 5 37
M  V30 41 1 6 38
M  V30 42 1 12 39
M  V30 43 1 13 40
M  V30 44 1 16 41
M  V30 45 1 17 42
M  V30 46 1 18 43
M  V30 47 1 19 44
M  V30 48 1 19 45
M  V30 49 1 20 46
M  V30 50 1 20 47
M  V30 51 1 21 48
M  V30 52 1 22 49
M  V30 53 1 23 50
M  V30 54 1 23 51
M  V30 55 1 24 52
M  V30 56 1 24 53
M  V30 57 1 25 54
M  V30 58 1 26 55
M  V30 59 1 26 56
M  V30 60 1 27 57
M  V30 61 1 28 58
M  V30 62 1 29 59
M  V30 63 1 29 60
M  V30 64 1 33 61
M  V30 65 1 33 62
M  V30 66 1 34 63
M  V30 67 1 34 64
M  V30 68 1 34 65
M  V30 END BOND
M  V30 BEGIN COLLECTION
M  V30 MDLV30/STEABS ATOMS=(2 22 27)
M  V30 END COLLECTION
M  V30 END CTAB
M  END
>  <NO.>
1635

>  <Name>
bervastatin

>  <SMILES>
CCOC(=O)C[C@@H](O)C[C@@H](O)/C=C/C1=C(c2ccc(F)cc2)c2ccccc2OC12CCCC2

>  <logBB>


>  <Class>
1

>  <MW>
466.22

>  <nHBAcc>
5

>  <nHBDon>
2

>  <SLogP>
4.95

>  <TopoPSA>
75.99

>  <MMFF94 Energy>
73.126

$$$$
CCOC(=O)N(CCN(C)C)c1cccc(C(F)(F)F)c1
Actelion Java MolfileCreator 2.0

  0  0  0  0  0  0              0 V3000
M  V30 BEGIN CTAB
M  V30 COUNTS 40 40 0 0 0
M  V30 BEGIN ATOM
M  V30 1 F -4.2721 0.4739 -0.79 0
M  V30 2 C -4.0702 -0.4859 -1.7359 0
M  V30 3 F -4.1479 0.1469 -2.938 0
M  V30 4 F -5.165 -1.297 -1.6717 0
M  V30 5 C -2.7748 -1.2344 -1.5552 0
M  V30 6 C -1.6462 -0.5814 -1.0373 0
M  V30 7 C -2.665 -2.5821 -1.9326 0
M  V30 8 C -0.4363 -1.2664 -0.8852 0
M  V30 9 C -1.457 -3.2655 -1.7824 0
M  V30 10 N 0.6881 -0.6018 -0.336 0
M  V30 11 C -0.344 -2.6093 -1.2571 0
M  V30 12 C 1.2334 0.4871 -1.0089 0
M  V30 13 C 1.1303 -1.0278 0.9998 0
M  V30 14 O 0.8358 0.9085 -2.0914 0
M  V30 15 O 2.2963 1.032 -0.3491 0
M  V30 16 C 0.1695 -0.5865 2.1296 0
M  V30 17 C 2.9025 2.1761 -0.9656 0
M  V30 18 N -0.0319 0.8727 2.2308 0
M  V30 19 C 3.9614 1.736 -1.9586 0
M  V30 20 C 1.1208 1.5344 2.8453 0
M  V30 21 C -1.24 1.1686 3.0043 0
M  V30 22 H -1.7093 0.4672 -0.7477 0
M  V30 23 H -3.5245 -3.1047 -2.3507 0
M  V30 24 H -1.3808 -4.3075 -2.0833 0
M  V30 25 H 0.5961 -3.145 -1.1598 0
M  V30 26 H 2.1406 -0.6598 1.2026 0
M  V30 27 H 1.2073 -2.1218 1.0072 0
M  V30 28 H -0.7976 -1.0694 1.9379 0
M  V30 29 H 0.5262 -0.9928 3.0852 0
M  V30 30 H 3.3703 2.7584 -0.1649 0
M  V30 31 H 2.1533 2.8239 -1.435 0
M  V30 32 H 4.4719 2.6016 -2.3901 0
M  V30 33 H 4.7031 1.0954 -1.4705 0
M  V30 34 H 3.5201 1.15 -2.7708 0
M  V30 35 H 2.0364 1.3644 2.2725 0
M  V30 36 H 1.2936 1.1912 3.872 0
M  V30 37 H 0.9698 2.6197 2.8682 0
M  V30 38 H -1.1838 0.7745 4.0255 0
M  V30 39 H -2.1235 0.7419 2.5163 0
M  V30 40 H -1.4082 2.2501 3.0591 0
M  V30 END ATOM
M  V30 BEGIN BOND
M  V30 1 1 1 2
M  V30 2 1 2 3
M  V30 3 1 2 4
M  V30 4 1 2 5
M  V30 5 2 5 6
M  V30 6 1 5 7
M  V30 7 1 6 8
M  V30 8 2 7 9
M  V30 9 1 8 10
M  V30 10 2 8 11
M  V30 11 1 10 12
M  V30 12 1 10 13
M  V30 13 2 12 14
M  V30 14 1 12 15
M  V30 15 1 13 16
M  V30 16 1 15 17
M  V30 17 1 16 18
M  V30 18 1 17 19
M  V30 19 1 18 20
M  V30 20 1 18 21
M  V30 21 1 9 11
M  V30 22 1 6 22
M  V30 23 1 7 23
M  V30 24 1 9 24
M  V30 25 1 11 25
M  V30 26 1 13 26
M  V30 27 1 13 27
M  V30 28 1 16 28
M  V30 29 1 16 29
M  V30 30 1 17 30
M  V30 31 1 17 31
M  V30 32 1 19 32
M  V30 33 1 19 33
M  V30 34 1 19 34
M  V30 35 1 20 35
M  V30 36 1 20 36
M  V30 37 1 20 37
M  V30 38 1 21 38
M  V30 39 1 21 39
M  V30 40 1 21 40
M  V30 END BOND
M  V30 END CTAB
M  END
>  <NO.>
1636

>  <Name>
flubanilate

>  <SMILES>
CCOC(=O)N(CCN(C)C)c1cccc(C(F)(F)F)c1

>  <logBB>


>  <Class>
1

>  <MW>
304.14

>  <nHBAcc>
3

>  <nHBDon>
0

>  <SLogP>
3.23

>  <TopoPSA>
32.78

>  <MMFF94 Energy>
28.884

$$$$
CCOC(=O)N(Cc1ccccc1)C1CC1
Actelion Java MolfileCreator 2.0

  0  0  0  0  0  0              0 V3000
M  V30 BEGIN CTAB
M  V30 COUNTS 33 34 0 0 0
M  V30 BEGIN ATOM
M  V30 1 O -0.3931 -1.1797 -2.2031 0
M  V30 2 C 0.3269 -1.1919 -1.2101 0
M  V30 3 O 0.7775 -2.3405 -0.6289 0
M  V30 4 N 0.7878 -0.0529 -0.5592 0
M  V30 5 C 0.3243 -3.5438 -1.2573 0
M  V30 6 C 1.6839 -0.1185 0.5709 0
M  V30 7 C 0.5101 1.2515 -1.1517 0
M  V30 8 C 0.89 -4.7199 -0.4856 0
M  V30 9 C 1.497 0.7019 1.8218 0
M  V30 10 C 1.2708 -0.7758 1.8646 0
M  V30 11 C -0.6526 1.9817 -0.5174 0
M  V30 12 C -1.9374 1.4195 -0.5004 0
M  V30 13 C -0.4701 3.259 0.0354 0
M  V30 14 C -3.0079 2.108 0.0733 0
M  V30 15 C -1.5417 3.9461 0.6092 0
M  V30 16 C -2.8095 3.3695 0.6297 0
M  V30 17 H 0.679 -3.5763 -2.2934 0
M  V30 18 H -0.7705 -3.5827 -1.2389 0
M  V30 19 H 2.7117 -0.2892 0.256 0
M  V30 20 H 1.427 1.8497 -1.078 0
M  V30 21 H 0.3032 1.1446 -2.2235 0
M  V30 22 H 0.5706 -5.6672 -0.9285 0
M  V30 23 H 1.9844 -4.6844 -0.4767 0
M  V30 24 H 0.5622 -4.689 0.5587 0
M  V30 25 H 0.6211 1.3275 1.9368 0
M  V30 26 H 2.3838 1.0943 2.3056 0
M  V30 27 H 2.0025 -1.3946 2.3696 0
M  V30 28 H 0.2499 -1.1274 1.9606 0
M  V30 29 H -2.1153 0.4404 -0.9402 0
M  V30 30 H 0.5118 3.7267 0.0282 0
M  V30 31 H -3.9976 1.6588 0.0814 0
M  V30 32 H -1.3873 4.9324 1.0389 0
M  V30 33 H -3.6441 3.9044 1.0751 0
M  V30 END ATOM
M  V30 BEGIN BOND
M  V30 1 2 1 2
M  V30 2 1 2 3
M  V30 3 1 2 4
M  V30 4 1 3 5
M  V30 5 1 4 6
M  V30 6 1 4 7
M  V30 7 1 5 8
M  V30 8 1 6 9
M  V30 9 1 6 10
M  V30 10 1 7 11
M  V30 11 2 11 12
M  V30 12 1 11 13
M  V30 13 1 12 14
M  V30 14 2 13 15
M  V30 15 2 14 16
M  V30 16 1 9 10
M  V30 17 1 15 16
M  V30 18 1 5 17
M  V30 19 1 5 18
M  V30 20 1 6 19
M  V30 21 1 7 20
M  V30 22 1 7 21
M  V30 23 1 8 22
M  V30 24 1 8 23
M  V30 25 1 8 24
M  V30 26 1 9 25
M  V30 27 1 9 26
M  V30 28 1 10 27
M  V30 29 1 10 28
M  V30 30 1 12 29
M  V30 31 1 13 30
M  V30 32 1 14 31
M  V30 33 1 15 32
M  V30 34 1 16 33
M  V30 END BOND
M  V30 END CTAB
M  END
>  <NO.>
1637

>  <Name>
encyprate

>  <SMILES>
CCOC(=O)N(Cc1ccccc1)C1CC1

>  <logBB>


>  <Class>
1

>  <MW>
219.13

>  <nHBAcc>
2

>  <nHBDon>
0

>  <SLogP>
2.81

>  <TopoPSA>
29.54

>  <MMFF94 Energy>
-10.407

$$$$
CCOC(=O)N1CCC(=O)N(c2ccccc2)c2cc(Cl)ccc21
Actelion Java MolfileCreator 2.0

  0  0  0  0  0  0              0 V3000
M  V30 BEGIN CTAB
M  V30 COUNTS 41 43 0 0 0
M  V30 BEGIN ATOM
M  V30 1 Cl 0.0 3.1432 -3.7081 0
M  V30 2 C -0.5131 1.9803 -2.5489 0
M  V30 3 C 0.3181 0.9073 -2.2316 0
M  V30 4 C -1.7592 2.1157 -1.9424 0
M  V30 5 C -0.0912 -0.0476 -1.2867 0
M  V30 6 C -2.1799 1.171 -1.0059 0
M  V30 7 N 0.7621 -1.1521 -0.9848 0
M  V30 8 C -1.3503 0.0927 -0.6685 0
M  V30 9 C 0.3208 -2.4789 -0.99 0
M  V30 10 C 2.1081 -0.833 -0.6436 0
M  V30 11 N -1.8004 -0.8544 0.2841 0
M  V30 12 O 1.0298 -3.4571 -0.7451 0
M  V30 13 C -1.1404 -2.6889 -1.3193 0
M  V30 14 C 2.3813 0.1155 0.3531 0
M  V30 15 C 3.1739 -1.4547 -1.3052 0
M  V30 16 C -2.123 -0.5068 1.5936 0
M  V30 17 C -1.9868 -2.2388 -0.1391 0
M  V30 18 C 3.7005 0.4423 0.6732 0
M  V30 19 C 4.4922 -1.1264 -0.9824 0
M  V30 20 O -2.6297 -1.2826 2.3975 0
M  V30 21 O -1.8006 0.7829 1.8992 0
M  V30 22 C 4.7545 -0.177 0.0039 0
M  V30 23 C -2.0891 1.1658 3.2483 0
M  V30 24 C -1.6646 2.6103 3.4272 0
M  V30 25 H 1.2817 0.8129 -2.7266 0
M  V30 26 H -2.4069 2.9521 -2.193 0
M  V30 27 H -3.1557 1.2832 -0.5387 0
M  V30 28 H -1.401 -2.1667 -2.2463 0
M  V30 29 H -1.3077 -3.7557 -1.5073 0
M  V30 30 H 1.5722 0.5978 0.8961 0
M  V30 31 H 2.987 -2.202 -2.0723 0
M  V30 32 H -1.7847 -2.892 0.7192 0
M  V30 33 H -3.0499 -2.3593 -0.3805 0
M  V30 34 H 3.9051 1.1755 1.449 0
M  V30 35 H 5.3136 -1.6178 -1.4971 0
M  V30 36 H 5.7815 0.0737 0.2568 0
M  V30 37 H -1.5308 0.5279 3.9424 0
M  V30 38 H -3.1638 1.0698 3.4386 0
M  V30 39 H -1.8651 2.9529 4.4462 0
M  V30 40 H -0.596 2.7264 3.2185 0
M  V30 41 H -2.1982 3.2586 2.7244 0
M  V30 END ATOM
M  V30 BEGIN BOND
M  V30 1 1 1 2
M  V30 2 2 2 3
M  V30 3 1 2 4
M  V30 4 1 3 5
M  V30 5 2 4 6
M  V30 6 1 5 7
M  V30 7 2 5 8
M  V30 8 1 7 9
M  V30 9 1 7 10
M  V30 10 1 8 11
M  V30 11 2 9 12
M  V30 12 1 9 13
M  V30 13 2 10 14
M  V30 14 1 10 15
M  V30 15 1 11 16
M  V30 16 1 11 17
M  V30 17 1 14 18
M  V30 18 2 15 19
M  V30 19 2 16 20
M  V30 20 1 16 21
M  V30 21 2 18 22
M  V30 22 1 21 23
M  V30 23 1 23 24
M  V30 24 1 6 8
M  V30 25 1 13 17
M  V30 26 1 19 22
M  V30 27 1 3 25
M  V30 28 1 4 26
M  V30 29 1 6 27
M  V30 30 1 13 28
M  V30 31 1 13 29
M  V30 32 1 14 30
M  V30 33 1 15 31
M  V30 34 1 17 32
M  V30 35 1 17 33
M  V30 36 1 18 34
M  V30 37 1 19 35
M  V30 38 1 22 36
M  V30 39 1 23 37
M  V30 40 1 23 38
M  V30 41 1 24 39
M  V30 42 1 24 40
M  V30 43 1 24 41
M  V30 END BOND
M  V30 END CTAB
M  END
>  <NO.>
1638

>  <Name>
arfendazam

>  <SMILES>
CCOC(=O)N1CCC(=O)N(c2ccccc2)c2cc(Cl)ccc21

>  <logBB>


>  <Class>
1

>  <MW>
344.09

>  <nHBAcc>
3

>  <nHBDon>
0

>  <SLogP>
4.37

>  <TopoPSA>
49.85

>  <MMFF94 Energy>
12.57

$$$$
CCOC(=O)N1CCN(C(=O)Cc2ccc(Cl)c(Cl)c2)[C@@H](CN2CCCC2)C1
Actelion Java MolfileCreator 2.0

  0  0  0  0  0  0              0 V3000
M  V30 BEGIN CTAB
M  V30 COUNTS 55 57 0 0 0
M  V30 BEGIN ATOM
M  V30 1 Cl -6.7038 2.6613 -0.8865 0
M  V30 2 C -5.9335 1.3885 -1.766 0
M  V30 3 C -6.6285 0.5637 -2.6557 0
M  V30 4 C -4.5613 1.1986 -1.566 0
M  V30 5 Cl -8.3205 0.742 -2.9579 0
M  V30 6 C -5.9489 -0.4492 -3.3372 0
M  V30 7 C -3.8712 0.1899 -2.2555 0
M  V30 8 C -4.5792 -0.6372 -3.1367 0
M  V30 9 C -2.3916 -0.022 -2.0214 0
M  V30 10 C -2.068 -0.9766 -0.8748 0
M  V30 11 O -2.9584 -1.5885 -0.2819 0
M  V30 12 N -0.7238 -1.1522 -0.5514 0
M  V30 13 C 0.3998 -0.3355 -1.0945 0 CFG=2
M  V30 14 C -0.3981 -2.0901 0.5429 0
M  V30 15 C 1.7203 -1.1423 -1.2171 0
M  V30 16 C 0.6095 1.028 -0.3622 0
M  V30 17 C 0.8861 -2.8829 0.2926 0
M  V30 18 N 1.9773 -1.9884 -0.0598 0
M  V30 19 N 0.8939 0.9326 1.0707 0
M  V30 20 C 3.0885 -1.8912 0.7484 0
M  V30 21 C -0.2511 1.2943 1.9145 0
M  V30 22 C 1.9556 1.84 1.5111 0
M  V30 23 O 3.2615 -2.5602 1.7608 0
M  V30 24 O 3.9881 -0.978 0.2895 0
M  V30 25 C 0.3806 1.4091 3.2932 0
M  V30 26 C 1.8301 1.8023 3.027 0
M  V30 27 C 5.1537 -0.8373 1.1088 0
M  V30 28 C 6.0433 0.2203 0.4849 0
M  V30 29 H -4.0301 1.8349 -0.8612 0
M  V30 30 H -6.4829 -1.103 -4.0227 0
M  V30 31 H -4.0726 -1.443 -3.6645 0
M  V30 32 H -1.9387 -0.4173 -2.9386 0
M  V30 33 H -1.934 0.953 -1.8297 0
M  V30 34 H 0.134 -0.0629 -2.1225 0
M  V30 35 H -1.2217 -2.7934 0.7039 0
M  V30 36 H -0.2973 -1.5076 1.4621 0
M  V30 37 H 2.5598 -0.4766 -1.438 0
M  V30 38 H 1.6323 -1.8264 -2.0711 0
M  V30 39 H -0.2605 1.6724 -0.5361 0
M  V30 40 H 1.4406 1.5328 -0.8743 0
M  V30 41 H 0.7451 -3.5701 -0.5499 0
M  V30 42 H 1.131 -3.4846 1.1735 0
M  V30 43 H -1.0537 0.5526 1.8994 0
M  V30 44 H -0.6766 2.2642 1.6244 0
M  V30 45 H 2.9456 1.5123 1.1821 0
M  V30 46 H 1.7883 2.8626 1.1485 0
M  V30 47 H 0.3479 0.4461 3.8165 0
M  V30 48 H -0.1348 2.1483 3.9144 0
M  V30 49 H 2.504 1.0521 3.457 0
M  V30 50 H 2.0758 2.7714 3.4729 0
M  V30 51 H 5.6911 -1.791 1.1557 0
M  V30 52 H 4.8625 -0.525 2.1181 0
M  V30 53 H 6.9513 0.365 1.0768 0
M  V30 54 H 6.3263 -0.0659 -0.5332 0
M  V30 55 H 5.5132 1.1756 0.4111 0
M  V30 END ATOM
M  V30 BEGIN BOND
M  V30 1 1 1 2
M  V30 2 2 2 3
M  V30 3 1 2 4
M  V30 4 1 3 5
M  V30 5 1 3 6
M  V30 6 2 4 7
M  V30 7 2 6 8
M  V30 8 1 7 9
M  V30 9 1 9 10
M  V30 10 2 10 11
M  V30 11 1 10 12
M  V30 12 1 12 13
M  V30 13 1 12 14
M  V30 14 1 13 15
M  V30 15 1 13 16
M  V30 16 1 14 17
M  V30 17 1 15 18
M  V30 18 1 16 19
M  V30 19 1 18 20
M  V30 20 1 19 21
M  V30 21 1 19 22
M  V30 22 2 20 23
M  V30 23 1 20 24
M  V30 24 1 21 25
M  V30 25 1 22 26
M  V30 26 1 24 27
M  V30 27 1 27 28
M  V30 28 1 7 8
M  V30 29 1 17 18
M  V30 30 1 25 26
M  V30 31 1 4 29
M  V30 32 1 6 30
M  V30 33 1 8 31
M  V30 34 1 9 32
M  V30 35 1 9 33
M  V30 36 1 13 34
M  V30 37 1 14 35
M  V30 38 1 14 36
M  V30 39 1 15 37
M  V30 40 1 15 38
M  V30 41 1 16 39
M  V30 42 1 16 40
M  V30 43 1 17 41
M  V30 44 1 17 42
M  V30 45 1 21 43
M  V30 46 1 21 44
M  V30 47 1 22 45
M  V30 48 1 22 46
M  V30 49 1 25 47
M  V30 50 1 25 48
M  V30 51 1 26 49
M  V30 52 1 26 50
M  V30 53 1 27 51
M  V30 54 1 27 52
M  V30 55 1 28 53
M  V30 56 1 28 54
M  V30 57 1 28 55
M  V30 END BOND
M  V30 BEGIN COLLECTION
M  V30 MDLV30/STEABS ATOMS=(1 13)
M  V30 END COLLECTION
M  V30 END CTAB
M  END
>  <NO.>
1639

>  <Name>
gr89696_et

>  <SMILES>
CCOC(=O)N1CCN(C(=O)Cc2ccc(Cl)c(Cl)c2)[C@@H](CN2CCCC2)C1

>  <logBB>


>  <Class>
1

>  <MW>
427.14

>  <nHBAcc>
4

>  <nHBDon>
0

>  <SLogP>
3.3

>  <TopoPSA>
53.09

>  <MMFF94 Energy>
51.529

$$$$
CCOC(=O)NC(O)C(Cl)(Cl)Cl
Actelion Java MolfileCreator 2.0

  0  0  0  0  0  0              0 V3000
M  V30 BEGIN CTAB
M  V30 COUNTS 20 19 0 0 0
M  V30 BEGIN ATOM
M  V30 1 Cl -3.4129 3.2462 -0.4989 0
M  V30 2 C -1.8442 2.3696 -0.6818 0
M  V30 3 Cl -0.5302 3.5999 -0.6692 0
M  V30 4 Cl -1.8489 1.561 -2.2764 0
M  V30 5 C -1.6849 1.3618 0.5197 0 CFG=2
M  V30 6 O -1.7856 2.0092 1.7922 0
M  V30 7 N -0.4237 0.6746 0.5934 0
M  V30 8 C -0.1904 -0.5078 -0.025 0
M  V30 9 O -1.0133 -1.1247 -0.6825 0
M  V30 10 O 1.0865 -0.8896 0.2051 0
M  V30 11 C 1.4467 -2.1333 -0.408 0
M  V30 12 C 2.8957 -2.4254 -0.0703 0
M  V30 13 H -2.4865 0.6139 0.4743 0
M  V30 14 H -2.6605 2.4383 1.8261 0
M  V30 15 H 0.3192 1.0754 1.1462 0
M  V30 16 H 1.3282 -2.0581 -1.4948 0
M  V30 17 H 0.8077 -2.9351 -0.0211 0
M  V30 18 H 3.218 -3.3694 -0.5183 0
M  V30 19 H 3.5454 -1.6218 -0.4323 0
M  V30 20 H 3.0346 -2.4829 1.0144 0
M  V30 END ATOM
M  V30 BEGIN BOND
M  V30 1 1 1 2
M  V30 2 1 2 3
M  V30 3 1 2 4
M  V30 4 1 2 5
M  V30 5 1 5 6
M  V30 6 1 5 7
M  V30 7 1 7 8
M  V30 8 2 8 9
M  V30 9 1 8 10
M  V30 10 1 10 11
M  V30 11 1 11 12
M  V30 12 1 5 13
M  V30 13 1 6 14
M  V30 14 1 7 15
M  V30 15 1 11 16
M  V30 16 1 11 17
M  V30 17 1 12 18
M  V30 18 1 12 19
M  V30 19 1 12 20
M  V30 END BOND
M  V30 BEGIN COLLECTION
M  V30 MDLV30/STERAC1 ATOMS=(1 5)
M  V30 END COLLECTION
M  V30 END CTAB
M  END
>  <NO.>
1640

>  <Name>
carbocloral

>  <SMILES>
CCOC(=O)NC(O)C(Cl)(Cl)Cl

>  <logBB>


>  <Class>
1

>  <MW>
234.96

>  <nHBAcc>
3

>  <nHBDon>
2

>  <SLogP>
1.42

>  <TopoPSA>
58.56

>  <MMFF94 Energy>
-31.087

$$$$
CCOC(=O)NNC(C)c1ccccc1
Actelion Java MolfileCreator 2.0

  0  0  0  0  0  0              0 V3000
M  V30 BEGIN CTAB
M  V30 COUNTS 31 31 0 0 0
M  V30 BEGIN ATOM
M  V30 1 O -2.1018 -1.5566 1.7123 0
M  V30 2 C -1.3916 -1.6468 0.7185 0
M  V30 3 O -1.727 -2.2747 -0.4357 0
M  V30 4 N -0.1288 -1.1146 0.6097 0
M  V30 5 C -3.031 -2.866 -0.421 0
M  V30 6 N 0.4598 -0.3966 1.6798 0
M  V30 7 C -3.2662 -3.527 -1.7651 0
M  V30 8 C 0.4005 1.0609 1.4387 0 CFG=2
M  V30 9 C 1.2411 1.4837 0.2427 0
M  V30 10 C 0.8545 1.7959 2.7036 0
M  V30 11 C 2.5968 1.131 0.1396 0
M  V30 12 C 0.6651 2.244 -0.7868 0
M  V30 13 C 3.3546 1.5276 -0.9632 0
M  V30 14 C 1.4248 2.6401 -1.8893 0
M  V30 15 C 2.7684 2.2822 -1.9768 0
M  V30 16 H 0.3788 -1.2352 -0.2613 0
M  V30 17 H -3.7873 -2.0909 -0.2533 0
M  V30 18 H -3.0884 -3.6168 0.375 0
M  V30 19 H -0.0982 -0.6013 2.5183 0
M  V30 20 H -4.254 -3.9947 -1.8023 0
M  V30 21 H -3.1917 -2.7927 -2.574 0
M  V30 22 H -2.5056 -4.2908 -1.9573 0
M  V30 23 H -0.6474 1.3386 1.261 0
M  V30 24 H 0.8142 2.8816 2.559 0
M  V30 25 H 1.8823 1.5379 2.9836 0
M  V30 26 H 0.2058 1.5506 3.5521 0
M  V30 27 H 3.0654 0.5361 0.9212 0
M  V30 28 H -0.3823 2.5335 -0.737 0
M  V30 29 H 4.4021 1.2463 -1.03 0
M  V30 30 H 0.9675 3.2293 -2.6798 0
M  V30 31 H 3.359 2.5916 -2.8349 0
M  V30 END ATOM
M  V30 BEGIN BOND
M  V30 1 2 1 2
M  V30 2 1 2 3
M  V30 3 1 2 4
M  V30 4 1 3 5
M  V30 5 1 4 6
M  V30 6 1 5 7
M  V30 7 1 6 8
M  V30 8 1 8 9
M  V30 9 1 8 10
M  V30 10 2 9 11
M  V30 11 1 9 12
M  V30 12 1 11 13
M  V30 13 2 12 14
M  V30 14 2 13 15
M  V30 15 1 14 15
M  V30 16 1 4 16
M  V30 17 1 5 17
M  V30 18 1 5 18
M  V30 19 1 6 19
M  V30 20 1 7 20
M  V30 21 1 7 21
M  V30 22 1 7 22
M  V30 23 1 8 23
M  V30 24 1 10 24
M  V30 25 1 10 25
M  V30 26 1 10 26
M  V30 27 1 11 27
M  V30 28 1 12 28
M  V30 29 1 13 29
M  V30 30 1 14 30
M  V30 31 1 15 31
M  V30 END BOND
M  V30 BEGIN COLLECTION
M  V30 MDLV30/STERAC1 ATOMS=(1 8)
M  V30 END COLLECTION
M  V30 END CTAB
M  END
>  <NO.>
1641

>  <Name>
carbenzide

>  <SMILES>
CCOC(=O)NNC(C)c1ccccc1

>  <logBB>


>  <Class>
1

>  <MW>
208.12

>  <nHBAcc>
3

>  <nHBDon>
2

>  <SLogP>
2

>  <TopoPSA>
50.36

>  <MMFF94 Energy>
29.897

$$$$
CCOC(=O)Nc1ccc(NCc2ccc(F)cc2)cc1N
Actelion Java MolfileCreator 2.0

  0  0  0  0  0  0              0 V3000
M  V30 BEGIN CTAB
M  V30 COUNTS 40 41 0 0 0
M  V30 BEGIN ATOM
M  V30 1 F -8.5039 -0.3139 -0.785 0
M  V30 2 C -7.2346 0.0354 -0.5382 0
M  V30 3 C -6.4992 0.6825 -1.5238 0
M  V30 4 C -6.6714 -0.2606 0.6972 0
M  V30 5 C -5.1761 1.0458 -1.2686 0
M  V30 6 C -5.3485 0.1014 0.9553 0
M  V30 7 C -4.592 0.7693 -0.0215 0
M  V30 8 C -3.1512 1.1382 0.2468 0
M  V30 9 N -2.2945 0.0422 -0.1491 0
M  V30 10 C -0.918 0.0476 -0.0405 0
M  V30 11 C -0.1848 1.1254 0.472 0
M  V30 12 C -0.2033 -1.0767 -0.467 0
M  V30 13 C 1.2141 1.0842 0.5891 0
M  V30 14 C 1.1932 -1.1221 -0.4081 0
M  V30 15 N 1.8949 2.1982 1.094 0
M  V30 16 C 1.9078 -0.0397 0.1018 0
M  V30 17 N 3.3132 0.0088 0.0865 0
M  V30 18 C 4.1874 -1.0355 0.0397 0
M  V30 19 O 3.9285 -2.2292 0.0292 0
M  V30 20 O 5.4505 -0.5292 0.0203 0
M  V30 21 C 6.4818 -1.5228 -0.0264 0
M  V30 22 C 7.8215 -0.8129 -0.0486 0
M  V30 23 H -6.9581 0.8955 -2.4839 0
M  V30 24 H -7.263 -0.7743 1.4482 0
M  V30 25 H -4.5981 1.5409 -2.0466 0
M  V30 26 H -4.9057 -0.143 1.9189 0
M  V30 27 H -3.0279 1.3634 1.3134 0
M  V30 28 H -2.901 2.0494 -0.3103 0
M  V30 29 H -2.7436 -0.784 -0.5264 0
M  V30 30 H -0.7025 2.0179 0.8082 0
M  V30 31 H -0.7311 -1.9358 -0.8747 0
M  V30 32 H 1.6969 -2.0035 -0.7934 0
M  V30 33 H 1.3461 2.9616 1.4696 0
M  V30 34 H 2.7919 2.0385 1.5332 0
M  V30 35 H 3.7353 0.9251 0.1072 0
M  V30 36 H 6.3706 -2.1298 -0.9318 0
M  V30 37 H 6.4185 -2.1641 0.8598 0
M  V30 38 H 8.6439 -1.5326 -0.0844 0
M  V30 39 H 7.8925 -0.1509 -0.918 0
M  V30 40 H 7.9396 -0.1845 0.8404 0
M  V30 END ATOM
M  V30 BEGIN BOND
M  V30 1 1 1 2
M  V30 2 2 2 3
M  V30 3 1 2 4
M  V30 4 1 3 5
M  V30 5 2 4 6
M  V30 6 2 5 7
M  V30 7 1 7 8
M  V30 8 1 8 9
M  V30 9 1 9 10
M  V30 10 2 10 11
M  V30 11 1 10 12
M  V30 12 1 11 13
M  V30 13 2 12 14
M  V30 14 1 13 15
M  V30 15 2 13 16
M  V30 16 1 16 17
M  V30 17 1 17 18
M  V30 18 2 18 19
M  V30 19 1 18 20
M  V30 20 1 20 21
M  V30 21 1 21 22
M  V30 22 1 6 7
M  V30 23 1 14 16
M  V30 24 1 3 23
M  V30 25 1 4 24
M  V30 26 1 5 25
M  V30 27 1 6 26
M  V30 28 1 8 27
M  V30 29 1 8 28
M  V30 30 1 9 29
M  V30 31 1 11 30
M  V30 32 1 12 31
M  V30 33 1 14 32
M  V30 34 1 15 33
M  V30 35 1 15 34
M  V30 36 1 17 35
M  V30 37 1 21 36
M  V30 38 1 21 37
M  V30 39 1 22 38
M  V30 40 1 22 39
M  V30 41 1 22 40
M  V30 END BOND
M  V30 END CTAB
M  END
>  <NO.>
1642

>  <Name>
ezogabine

>  <SMILES>
CCOC(=O)Nc1ccc(NCc2ccc(F)cc2)cc1N

>  <logBB>


>  <Class>
1

>  <MW>
303.14

>  <nHBAcc>
4

>  <nHBDon>
3

>  <SLogP>
3.59

>  <TopoPSA>
76.38

>  <MMFF94 Energy>
-15.699

$$$$
CCOC(=O)OC(C)OC(=O)[C@@H]1N2C(=O)[C@@H](N=CN3CCCCCC3)[C@H]2SC1(C)C
Actelion Java MolfileCreator 2.0

  0  0  0  0  0  0              0 V3000
M  V30 BEGIN CTAB
M  V30 COUNTS 61 63 0 0 0
M  V30 BEGIN ATOM
M  V30 1 S -1.3666 -0.9645 -0.4018 0
M  V30 2 C -1.1477 0.848 -0.047 0
M  V30 3 C 0.4266 -1.2784 -0.6612 0 CFG=1
M  V30 4 C 0.2707 1.2225 -0.533 0 CFG=1
M  V30 5 C -2.2832 1.6156 -0.7336 0
M  V30 6 C -1.274 1.041 1.4741 0
M  V30 7 N 1.0636 0.0142 -0.4307 0
M  V30 8 C 1.28 -1.8489 0.5103 0 CFG=1
M  V30 9 C 0.3274 1.7069 -1.9827 0
M  V30 10 C 1.7657 -0.3703 0.667 0
M  V30 11 N 0.5253 -2.3452 1.6719 0
M  V30 12 O 0.4107 0.9882 -2.9706 0
M  V30 13 O 0.232 3.0651 -2.0196 0
M  V30 14 O 2.4098 0.2979 1.4418 0
M  V30 15 C 0.1049 -3.5581 1.5445 0
M  V30 16 C 0.2927 3.6569 -3.3304 0
M  V30 17 N -0.6265 -4.2574 2.4737 0
M  V30 18 O 0.6833 5.0264 -3.1628 0
M  V30 19 C -1.0992 3.6126 -3.9558 0
M  V30 20 C -0.9809 -3.6189 3.7411 0
M  V30 21 C -1.1349 -5.5896 2.1771 0
M  V30 22 C 1.2286 5.6027 -4.2584 0
M  V30 23 C -1.251 -4.5842 4.8946 0
M  V30 24 C -0.1901 -6.6496 2.736 0
M  V30 25 O 1.3967 5.0684 -5.3432 0
M  V30 26 O 1.5517 6.8819 -3.9454 0
M  V30 27 C -0.1525 -5.6266 5.1035 0
M  V30 28 C -0.3352 -6.8747 4.2401 0
M  V30 29 C 2.1449 7.6161 -5.0208 0
M  V30 30 C 2.4525 9.0163 -4.5265 0
M  V30 31 H 0.6672 -1.6983 -1.6428 0
M  V30 32 H 0.7272 1.9893 0.1052 0
M  V30 33 H -2.1687 2.695 -0.5812 0
M  V30 34 H -2.3191 1.4324 -1.813 0
M  V30 35 H -3.2621 1.3359 -0.3253 0
M  V30 36 H -1.1453 2.0977 1.7371 0
M  V30 37 H -0.5235 0.4754 2.0355 0
M  V30 38 H -2.2613 0.7347 1.8404 0
M  V30 39 H 2.0947 -2.5157 0.2013 0
M  V30 40 H 0.3113 -4.1463 0.6309 0
M  V30 41 H 1.0337 3.1262 -3.9414 0
M  V30 42 H -1.4552 2.5847 -4.0714 0
M  V30 43 H -1.1158 4.1011 -4.9346 0
M  V30 44 H -1.8202 4.1365 -3.3177 0
M  V30 45 H -0.1695 -2.951 4.0577 0
M  V30 46 H -1.8652 -2.989 3.5861 0
M  V30 47 H -2.1552 -5.7213 2.5556 0
M  V30 48 H -1.2076 -5.7224 1.0903 0
M  V30 49 H -1.3381 -3.984 5.8096 0
M  V30 50 H -2.2235 -5.0748 4.7679 0
M  V30 51 H 0.8508 -6.3928 2.5033 0
M  V30 52 H -0.398 -7.6023 2.2336 0
M  V30 53 H 0.8384 -5.1872 4.9401 0
M  V30 54 H -0.1835 -5.9464 6.1529 0
M  V30 55 H 0.4053 -7.623 4.5484 0
M  V30 56 H -1.319 -7.3158 4.4453 0
M  V30 57 H 1.4468 7.6673 -5.864 0
M  V30 58 H 3.0715 7.1247 -5.3382 0
M  V30 59 H 2.9093 9.6178 -5.3174 0
M  V30 60 H 1.5385 9.5146 -4.1864 0
M  V30 61 H 3.1339 8.9818 -3.67 0
M  V30 END ATOM
M  V30 BEGIN BOND
M  V30 1 1 1 2
M  V30 2 1 1 3
M  V30 3 1 2 4
M  V30 4 1 2 5
M  V30 5 1 2 6
M  V30 6 1 3 7
M  V30 7 1 3 8
M  V30 8 1 4 9
M  V30 9 1 7 10
M  V30 10 1 8 11
M  V30 11 2 9 12
M  V30 12 1 9 13
M  V30 13 2 10 14
M  V30 14 2 11 15
M  V30 15 1 13 16
M  V30 16 1 15 17
M  V30 17 1 16 18
M  V30 18 1 16 19
M  V30 19 1 17 20
M  V30 20 1 17 21
M  V30 21 1 18 22
M  V30 22 1 20 23
M  V30 23 1 21 24
M  V30 24 2 22 25
M  V30 25 1 22 26
M  V30 26 1 23 27
M  V30 27 1 24 28
M  V30 28 1 26 29
M  V30 29 1 29 30
M  V30 30 1 4 7
M  V30 31 1 8 10
M  V30 32 1 27 28
M  V30 33 1 3 31
M  V30 34 1 4 32
M  V30 35 1 5 33
M  V30 36 1 5 34
M  V30 37 1 5 35
M  V30 38 1 6 36
M  V30 39 1 6 37
M  V30 40 1 6 38
M  V30 41 1 8 39
M  V30 42 1 15 40
M  V30 43 1 16 41
M  V30 44 1 19 42
M  V30 45 1 19 43
M  V30 46 1 19 44
M  V30 47 1 20 45
M  V30 48 1 20 46
M  V30 49 1 21 47
M  V30 50 1 21 48
M  V30 51 1 23 49
M  V30 52 1 23 50
M  V30 53 1 24 51
M  V30 54 1 24 52
M  V30 55 1 27 53
M  V30 56 1 27 54
M  V30 57 1 28 55
M  V30 58 1 28 56
M  V30 59 1 29 57
M  V30 60 1 29 58
M  V30 61 1 30 59
M  V30 62 1 30 60
M  V30 63 1 30 61
M  V30 END BOND
M  V30 BEGIN COLLECTION
M  V30 MDLV30/STEABS ATOMS=(3 3 4 8)
M  V30 END COLLECTION
M  V30 END CTAB
M  END
>  <NO.>
1643

>  <Name>
bacmecillinam

>  <SMILES>
CCOC(=O)OC(C)OC(=O)[C@@H]1N2C(=O)[C@@H](N=CN3CCCCCC3)[C@H]2SC1(C)C

>  <logBB>


>  <Class>
-1

>  <MW>
441.19

>  <nHBAcc>
8

>  <nHBDon>
0

>  <SLogP>
2.38

>  <TopoPSA>
97.74

>  <MMFF94 Energy>
-8.2852

$$$$
CCOC(=O)OC1(C(=O)OCCl)CCC2C3CCC4=CC(=O)C=CC4(C)C3C(O)CC21C
Actelion Java MolfileCreator 2.0

  0  0  0  0  0  0              0 V3000
M  V30 BEGIN CTAB
M  V30 COUNTS 63 66 0 0 0
M  V30 BEGIN ATOM
M  V30 1 Cl -0.243 -2.4323 -6.0893 0
M  V30 2 C -0.5986 -0.8769 -5.3091 0
M  V30 3 O -0.7919 -1.1191 -3.922 0
M  V30 4 C -1.0516 0.0174 -3.2183 0
M  V30 5 O -1.0231 1.1429 -3.6992 0
M  V30 6 C -1.3234 -0.3125 -1.7291 0
M  V30 7 O -2.0248 -1.5616 -1.5264 0
M  V30 8 C 0.021 -0.3809 -0.9123 0
M  V30 9 C -2.1104 0.8042 -1.0071 0
M  V30 10 C -3.1567 -1.7724 -2.2416 0
M  V30 11 C -0.4955 -0.2317 0.5361 0
M  V30 12 C 0.9865 0.7798 -1.2455 0
M  V30 13 C 0.7483 -1.728 -1.1014 0
M  V30 14 C -1.5939 0.838 0.4365 0
M  V30 15 O -3.65 -0.993 -3.0411 0
M  V30 16 O -3.6412 -2.9933 -1.9131 0
M  V30 17 C 0.6053 0.0435 1.5827 0
M  V30 18 C 2.103 0.9975 -0.2137 0
M  V30 19 C -4.8365 -3.3547 -2.6113 0
M  V30 20 C 1.5402 1.2406 1.2154 0
M  V30 21 C -0.0125 0.1939 2.9818 0
M  V30 22 O 2.8601 2.1151 -0.6657 0
M  V30 23 C -5.2526 -4.7391 -2.154 0
M  V30 24 C 2.6269 1.5156 2.3434 0
M  V30 25 C 1.0589 0.3582 4.0478 0
M  V30 26 C 1.9172 1.5467 3.7105 0
M  V30 27 C 3.3684 2.8298 2.1095 0
M  V30 28 C 3.7149 0.4178 2.3739 0
M  V30 29 C 1.9831 2.5799 4.5699 0
M  V30 30 C 3.43 3.8597 2.9638 0
M  V30 31 C 2.7496 3.8031 4.2671 0
M  V30 32 O 2.8122 4.7304 5.064 0
M  V30 33 H 0.2578 -0.2171 -5.4783 0
M  V30 34 H -1.5069 -0.4709 -5.7649 0
M  V30 35 H -3.1911 0.6282 -1.0054 0
M  V30 36 H -1.9505 1.7868 -1.4647 0
M  V30 37 H -0.9903 -1.1699 0.8297 0
M  V30 38 H 0.441 1.7266 -1.3529 0
M  V30 39 H 1.445 0.6119 -2.2295 0
M  V30 40 H 0.1137 -2.5784 -0.831 0
M  V30 41 H 1.6467 -1.801 -0.4816 0
M  V30 42 H 1.061 -1.8636 -2.1417 0
M  V30 43 H -2.4036 0.6267 1.1441 0
M  V30 44 H -1.2244 1.8425 0.6659 0
M  V30 45 H 1.2292 -0.8599 1.6133 0
M  V30 46 H 2.7749 0.1338 -0.2108 0
M  V30 47 H -4.647 -3.3636 -3.6906 0
M  V30 48 H -5.631 -2.6356 -2.3822 0
M  V30 49 H 0.9272 2.153 1.1674 0
M  V30 50 H -0.6175 -0.6897 3.2186 0
M  V30 51 H -0.6881 1.0579 3.0113 0
M  V30 52 H 3.178 1.925 -1.5656 0
M  V30 53 H -6.166 -5.0598 -2.6626 0
M  V30 54 H -4.4602 -5.4666 -2.3577 0
M  V30 55 H -5.4266 -4.7519 -1.073 0
M  V30 56 H 1.6745 -0.5453 4.1187 0
M  V30 57 H 0.5737 0.4757 5.0245 0
M  V30 58 H 3.9262 2.9334 1.1828 0
M  V30 59 H 4.3401 0.4398 1.4737 0
M  V30 60 H 4.3879 0.5491 3.231 0
M  V30 61 H 3.2938 -0.5892 2.4489 0
M  V30 62 H 1.4652 2.5877 5.5223 0
M  V30 63 H 3.9855 4.7632 2.7454 0
M  V30 END ATOM
M  V30 BEGIN BOND
M  V30 1 1 1 2
M  V30 2 1 2 3
M  V30 3 1 3 4
M  V30 4 2 4 5
M  V30 5 1 4 6
M  V30 6 1 6 7
M  V30 7 1 6 8
M  V30 8 1 6 9
M  V30 9 1 7 10
M  V30 10 1 8 11
M  V30 11 1 8 12
M  V30 12 1 8 13
M  V30 13 1 9 14
M  V30 14 2 10 15
M  V30 15 1 10 16
M  V30 16 1 11 17
M  V30 17 1 12 18
M  V30 18 1 16 19
M  V30 19 1 17 20
M  V30 20 1 17 21
M  V30 21 1 18 22
M  V30 22 1 19 23
M  V30 23 1 20 24
M  V30 24 1 21 25
M  V30 25 1 24 26
M  V30 26 1 24 27
M  V30 27 1 24 28
M  V30 28 2 26 29
M  V30 29 2 27 30
M  V30 30 1 29 31
M  V30 31 2 31 32
M  V30 32 1 11 14
M  V30 33 1 18 20
M  V30 34 1 25 26
M  V30 35 1 30 31
M  V30 36 1 2 33
M  V30 37 1 2 34
M  V30 38 1 9 35
M  V30 39 1 9 36
M  V30 40 1 11 37
M  V30 41 1 12 38
M  V30 42 1 12 39
M  V30 43 1 13 40
M  V30 44 1 13 41
M  V30 45 1 13 42
M  V30 46 1 14 43
M  V30 47 1 14 44
M  V30 48 1 17 45
M  V30 49 1 18 46
M  V30 50 1 19 47
M  V30 51 1 19 48
M  V30 52 1 20 49
M  V30 53 1 21 50
M  V30 54 1 21 51
M  V30 55 1 22 52
M  V30 56 1 23 53
M  V30 57 1 23 54
M  V30 58 1 23 55
M  V30 59 1 25 56
M  V30 60 1 25 57
M  V30 61 1 27 58
M  V30 62 1 28 59
M  V30 63 1 28 60
M  V30 64 1 28 61
M  V30 65 1 29 62
M  V30 66 1 30 63
M  V30 END BOND
M  V30 END CTAB
M  END
>  <NO.>
1644

>  <Name>
loteprednol etabonate

>  <SMILES>
CCOC(=O)OC1(C(=O)OCCl)CCC2C3CCC4=CC(=O)C=CC4(C)C3C(O)CC21C

>  <logBB>


>  <Class>
1

>  <MW>
466.18

>  <nHBAcc>
7

>  <nHBDon>
1

>  <SLogP>
3.92

>  <TopoPSA>
99.13

>  <MMFF94 Energy>
41.566

$$$$
CCOC(=O)OCC/C(SC(=O)OCC)=C(\C)N(C=O)Cc1cnc(C)nc1N
Actelion Java MolfileCreator 2.0

  0  0  0  0  0  0              0 V3000
M  V30 BEGIN CTAB
M  V30 COUNTS 55 55 0 0 0
M  V30 BEGIN ATOM
M  V30 1 S 3.169 -0.3165 -0.0791 0
M  V30 2 C 3.8434 0.2956 1.4351 0
M  V30 3 C 1.7482 -1.1835 0.52 0
M  V30 4 O 3.9571 -0.4239 2.4196 0
M  V30 5 O 4.1984 1.6105 1.3971 0
M  V30 6 C 0.8056 -0.5972 1.307 0
M  V30 7 C 1.7796 -2.6764 0.2012 0
M  V30 8 C 4.6831 2.1263 2.6415 0
M  V30 9 N 0.734 0.7843 1.563 0
M  V30 10 C -0.2988 -1.3985 1.975 0
M  V30 11 C 1.1431 -2.9944 -1.1556 0
M  V30 12 C 4.9591 3.6063 2.4635 0
M  V30 13 C 0.5476 1.2608 2.8589 0
M  V30 14 C 0.5806 1.7524 0.4636 0
M  V30 15 O -0.2825 -3.0158 -1.0076 0
M  V30 16 O 0.3235 2.4242 3.1724 0
M  V30 17 C -0.7706 1.6854 -0.1864 0
M  V30 18 C -0.9965 -2.7154 -2.119 0
M  V30 19 C -1.0285 1.0535 -1.3889 0
M  V30 20 C -1.8725 2.2451 0.4339 0
M  V30 21 O -0.5381 -2.4546 -3.2217 0
M  V30 22 O -2.3121 -2.7695 -1.7962 0
M  V30 23 N -2.264 0.9622 -1.9047 0
M  V30 24 N -0.0511 0.4143 -2.1208 0
M  V30 25 N -3.1218 2.1975 -0.0608 0
M  V30 26 C -3.1917 -2.4376 -2.8732 0
M  V30 27 C -3.2663 1.5462 -1.2241 0
M  V30 28 C -4.6119 -2.4452 -2.3426 0
M  V30 29 C -4.6439 1.4663 -1.8017 0
M  V30 30 H 2.8214 -3.0231 0.1917 0
M  V30 31 H 1.294 -3.2585 0.9919 0
M  V30 32 H 5.6068 1.6072 2.9198 0
M  V30 33 H 3.9285 1.9843 3.4235 0
M  V30 34 H -0.5867 -2.2881 1.4124 0
M  V30 35 H -1.2133 -0.801 2.0678 0
M  V30 36 H 0.0113 -1.7115 2.9771 0
M  V30 37 H 1.4691 -2.2789 -1.9192 0
M  V30 38 H 1.4506 -3.9984 -1.4679 0
M  V30 39 H 5.3343 4.0477 3.391 0
M  V30 40 H 5.6965 3.7686 1.6706 0
M  V30 41 H 4.0478 4.1344 2.1638 0
M  V30 42 H 0.648 0.4743 3.6255 0
M  V30 43 H 0.7242 2.7701 0.85 0
M  V30 44 H 1.3749 1.639 -0.2729 0
M  V30 45 H -1.781 2.7638 1.3861 0
M  V30 46 H 0.8648 0.8257 -2.2058 0
M  V30 47 H -0.4058 -0.0535 -2.9499 0
M  V30 48 H -3.0913 -3.1817 -3.671 0
M  V30 49 H -2.9499 -1.4446 -3.2669 0
M  V30 50 H -5.3242 -2.1836 -3.1299 0
M  V30 51 H -4.8697 -3.433 -1.9466 0
M  V30 52 H -4.7193 -1.7345 -1.5167 0
M  V30 53 H -5.0352 2.4733 -1.974 0
M  V30 54 H -4.6406 0.9284 -2.7545 0
M  V30 55 H -5.3083 0.941 -1.1093 0
M  V30 END ATOM
M  V30 BEGIN BOND
M  V30 1 1 1 2
M  V30 2 1 1 3
M  V30 3 2 2 4
M  V30 4 1 2 5
M  V30 5 2 3 6
M  V30 6 1 3 7
M  V30 7 1 5 8
M  V30 8 1 6 9
M  V30 9 1 6 10
M  V30 10 1 7 11
M  V30 11 1 8 12
M  V30 12 1 9 13
M  V30 13 1 9 14
M  V30 14 1 11 15
M  V30 15 2 13 16
M  V30 16 1 14 17
M  V30 17 1 15 18
M  V30 18 2 17 19
M  V30 19 1 17 20
M  V30 20 2 18 21
M  V30 21 1 18 22
M  V30 22 1 19 23
M  V30 23 1 19 24
M  V30 24 2 20 25
M  V30 25 1 22 26
M  V30 26 2 23 27
M  V30 27 1 26 28
M  V30 28 1 27 29
M  V30 29 1 25 27
M  V30 30 1 7 30
M  V30 31 1 7 31
M  V30 32 1 8 32
M  V30 33 1 8 33
M  V30 34 1 10 34
M  V30 35 1 10 35
M  V30 36 1 10 36
M  V30 37 1 11 37
M  V30 38 1 11 38
M  V30 39 1 12 39
M  V30 40 1 12 40
M  V30 41 1 12 41
M  V30 42 1 13 42
M  V30 43 1 14 43
M  V30 44 1 14 44
M  V30 45 1 20 45
M  V30 46 1 24 46
M  V30 47 1 24 47
M  V30 48 1 26 48
M  V30 49 1 26 49
M  V30 50 1 28 50
M  V30 51 1 28 51
M  V30 52 1 28 52
M  V30 53 1 29 53
M  V30 54 1 29 54
M  V30 55 1 29 55
M  V30 END BOND
M  V30 END CTAB
M  END
>  <NO.>
1645

>  <Name>
cetotiamine

>  <SMILES>
CCOC(=O)OCC/C(SC(=O)OCC)=C(\C)N(C=O)Cc1cnc(C)nc1N

>  <logBB>


>  <Class>
1

>  <MW>
426.16

>  <nHBAcc>
10

>  <nHBDon>
1

>  <SLogP>
3.01

>  <TopoPSA>
133.94

>  <MMFF94 Energy>
-79.6

$$$$
CCOC(=O)O[C@]1(C(=O)COC(=O)CC)CC[C@H]2[C@@H]3CCC4=CC(=O)C=C[C@]4(C)[C@H]3[C@@H](O)C[C@@]21C
Actelion Java MolfileCreator 2.0

  0  0  0  0  0  0              0 V3000
M  V30 BEGIN CTAB
M  V30 COUNTS 71 74 0 0 0
M  V30 BEGIN ATOM
M  V30 1 O 4.9876 4.907 -3.1352 0
M  V30 2 C 4.5238 4.2382 -2.2206 0
M  V30 3 C 3.5459 4.8077 -1.2712 0
M  V30 4 C 4.9105 2.8285 -2.0269 0
M  V30 5 C 3.0336 4.0842 -0.2596 0
M  V30 6 C 4.4026 2.107 -1.0189 0
M  V30 7 C 3.4092 2.6212 0.0163 0 CFG=2
M  V30 8 C 1.9913 4.6788 0.6516 0
M  V30 9 C 2.0755 1.781 -0.0447 0 CFG=1
M  V30 10 C 4.1363 2.5638 1.3778 0
M  V30 11 C 0.7103 3.8557 0.5915 0
M  V30 12 C 2.2262 0.2405 0.1253 0 CFG=1
M  V30 13 C 0.9513 2.3613 0.8799 0 CFG=1
M  V30 14 O 2.9317 -0.1383 1.2978 0
M  V30 15 C 0.887 -0.5283 0.0704 0
M  V30 16 C -0.3386 1.5568 0.645 0 CFG=1
M  V30 17 C -0.2217 0.0499 0.9806 0 CFG=1
M  V30 18 C -1.6034 1.9822 1.3746 0
M  V30 19 C -1.6994 -0.4182 0.6621 0 CFG=1
M  V30 20 C 0.1011 -0.216 2.4762 0
M  V30 21 C -2.5472 0.7735 1.23 0
M  V30 22 O -1.8489 -0.4441 -0.7752 0
M  V30 23 C -2.0527 -1.7742 1.3452 0
M  V30 24 C -3.0486 -0.7979 -1.2983 0
M  V30 25 O -2.6551 -1.8162 2.4222 0
M  V30 26 C -1.5535 -3.0472 0.6652 0
M  V30 27 O -4.0174 -1.1736 -0.6609 0
M  V30 28 O -2.9686 -0.6867 -2.6445 0
M  V30 29 O -2.0511 -4.2054 1.3378 0
M  V30 30 C -4.1694 -1.05 -3.3333 0
M  V30 31 C -1.6943 -5.3798 0.7515 0
M  V30 32 C -3.9337 -0.8755 -4.8209 0
M  V30 33 O -1.0066 -5.4726 -0.2551 0
M  V30 34 C -2.2749 -6.5327 1.5336 0
M  V30 35 C -1.9118 -7.8748 0.9232 0
M  V30 36 H 3.2634 5.837 -1.4613 0
M  V30 37 H 5.6282 2.4239 -2.73 0
M  V30 38 H 4.7499 1.0809 -0.9086 0
M  V30 39 H 2.3696 4.7167 1.6794 0
M  V30 40 H 1.7611 5.7145 0.3728 0
M  V30 41 H 1.6951 1.9038 -1.0738 0
M  V30 42 H 4.6486 1.6088 1.5367 0
M  V30 43 H 4.9114 3.3388 1.4448 0
M  V30 44 H 3.4583 2.7165 2.2231 0
M  V30 45 H 0.2536 3.9726 -0.4004 0
M  V30 46 H -0.0034 4.2659 1.3158 0
M  V30 47 H 2.8266 -0.1424 -0.7075 0
M  V30 48 H 1.256 2.2769 1.9278 0
M  V30 49 H 2.7001 0.4578 2.0263 0
M  V30 50 H 1.0717 -1.5759 0.3296 0
M  V30 51 H 0.5529 -0.5166 -0.974 0
M  V30 52 H -0.5623 1.6577 -0.4297 0
M  V30 53 H -1.4067 2.1917 2.4322 0
M  V30 54 H -2.0488 2.8819 0.9377 0
M  V30 55 H -0.745 0.009 3.134 0
M  V30 56 H 0.9297 0.381 2.855 0
M  V30 57 H 0.359 -1.2691 2.6356 0
M  V30 58 H -3.3699 1.0461 0.5606 0
M  V30 59 H -2.9911 0.5572 2.2071 0
M  V30 60 H -1.8955 -3.0588 -0.3728 0
M  V30 61 H -0.4627 -3.0575 0.7137 0
M  V30 62 H -4.9921 -0.4018 -3.0108 0
M  V30 63 H -4.4175 -2.0956 -3.1186 0
M  V30 64 H -4.8277 -1.1424 -5.3915 0
M  V30 65 H -3.6644 0.1609 -5.0495 0
M  V30 66 H -3.1004 -1.5022 -5.1552 0
M  V30 67 H -3.3646 -6.4253 1.552 0
M  V30 68 H -1.8919 -6.4843 2.5584 0
M  V30 69 H -2.3457 -8.6904 1.5098 0
M  V30 70 H -0.8259 -8.0131 0.8952 0
M  V30 71 H -2.2858 -7.9541 -0.1028 0
M  V30 END ATOM
M  V30 BEGIN BOND
M  V30 1 2 1 2
M  V30 2 1 2 3
M  V30 3 1 2 4
M  V30 4 2 3 5
M  V30 5 2 4 6
M  V30 6 1 5 7
M  V30 7 1 5 8
M  V30 8 1 7 9
M  V30 9 1 7 10
M  V30 10 1 8 11
M  V30 11 1 9 12
M  V30 12 1 9 13
M  V30 13 1 12 14
M  V30 14 1 12 15
M  V30 15 1 13 16
M  V30 16 1 15 17
M  V30 17 1 16 18
M  V30 18 1 17 19
M  V30 19 1 17 20
M  V30 20 1 18 21
M  V30 21 1 19 22
M  V30 22 1 19 23
M  V30 23 1 22 24
M  V30 24 2 23 25
M  V30 25 1 23 26
M  V30 26 2 24 27
M  V30 27 1 24 28
M  V30 28 1 26 29
M  V30 29 1 28 30
M  V30 30 1 29 31
M  V30 31 1 30 32
M  V30 32 2 31 33
M  V30 33 1 31 34
M  V30 34 1 34 35
M  V30 35 1 6 7
M  V30 36 1 11 13
M  V30 37 1 16 17
M  V30 38 1 19 21
M  V30 39 1 3 36
M  V30 40 1 4 37
M  V30 41 1 6 38
M  V30 42 1 8 39
M  V30 43 1 8 40
M  V30 44 1 9 41
M  V30 45 1 10 42
M  V30 46 1 10 43
M  V30 47 1 10 44
M  V30 48 1 11 45
M  V30 49 1 11 46
M  V30 50 1 12 47
M  V30 51 1 13 48
M  V30 52 1 14 49
M  V30 53 1 15 50
M  V30 54 1 15 51
M  V30 55 1 16 52
M  V30 56 1 18 53
M  V30 57 1 18 54
M  V30 58 1 20 55
M  V30 59 1 20 56
M  V30 60 1 20 57
M  V30 61 1 21 58
M  V30 62 1 21 59
M  V30 63 1 26 60
M  V30 64 1 26 61
M  V30 65 1 30 62
M  V30 66 1 30 63
M  V30 67 1 32 64
M  V30 68 1 32 65
M  V30 69 1 32 66
M  V30 70 1 34 67
M  V30 71 1 34 68
M  V30 72 1 35 69
M  V30 73 1 35 70
M  V30 74 1 35 71
M  V30 END BOND
M  V30 BEGIN COLLECTION
M  V30 MDLV30/STEABS ATOMS=(7 7 9 12 13 16 17 19)
M  V30 END COLLECTION
M  V30 END CTAB
M  END
>  <NO.>
1646

>  <Name>
prednicarbate

>  <SMILES>
CCOC(=O)O[C@]1(C(=O)COC(=O)CC)CC[C@H]2[C@@H]3CCC4=CC(=O)C=C[C@]4(C)[C@H]3[C@@H](O)C[C@@]21C

>  <logBB>


>  <Class>
1

>  <MW>
488.24

>  <nHBAcc>
8

>  <nHBDon>
1

>  <SLogP>
3.7

>  <TopoPSA>
116.2

>  <MMFF94 Energy>
65.777

$$$$
CCOC(=O)[C@H](CCc1ccccc1)N[C@@H](C)C(=O)N1CCC[C@H]1C(=O)O
Actelion Java MolfileCreator 2.0

  0  0  0  0  0  0              0 V3000
M  V30 BEGIN CTAB
M  V30 COUNTS 55 56 0 0 0
M  V30 BEGIN ATOM
M  V30 1 O -4.9831 -3.4783 1.1057 0
M  V30 2 C -3.8323 -3.3838 0.7026 0
M  V30 3 O -2.9083 -4.2828 1.1028 0
M  V30 4 C -3.3305 -2.3478 -0.3109 0 CFG=1
M  V30 5 N -1.889 -2.4101 -0.5608 0
M  V30 6 C -3.9425 -2.6195 -1.6852 0
M  V30 7 C -0.9985 -1.8758 0.3483 0
M  V30 8 C -1.5936 -3.0266 -1.8428 0
M  V30 9 C -2.9309 -3.5607 -2.3337 0
M  V30 10 O -1.4038 -1.3243 1.3745 0
M  V30 11 C 0.5085 -2.0081 0.0155 0 CFG=1
M  V30 12 N 1.29 -0.8551 0.5199 0
M  V30 13 C 1.0323 -3.2821 0.6761 0
M  V30 14 C 0.9273 0.4287 -0.132 0 CFG=2
M  V30 15 C 1.4882 0.4928 -1.5623 0
M  V30 16 C 1.5085 1.5957 0.6797 0
M  V30 17 O 2.3534 -0.2522 -2.0087 0
M  V30 18 O 0.88 1.4907 -2.2647 0
M  V30 19 C 0.899 1.6968 2.082 0
M  V30 20 C 1.3542 1.6395 -3.6079 0
M  V30 21 C 1.4224 2.9065 2.8187 0
M  V30 22 C 0.5995 2.7863 -4.2512 0
M  V30 23 C 2.6154 2.8298 3.5494 0
M  V30 24 C 0.7389 4.1281 2.7579 0
M  V30 25 C 3.111 3.9525 4.214 0
M  V30 26 C 1.236 5.2499 3.4232 0
M  V30 27 C 2.4212 5.1619 4.1511 0
M  V30 28 H -3.3785 -4.8221 1.7714 0
M  V30 29 H -3.5955 -1.3571 0.0747 0
M  V30 30 H -4.9458 -3.0539 -1.6489 0
M  V30 31 H -3.9922 -1.6871 -2.261 0
M  V30 32 H -0.8413 -3.8125 -1.7373 0
M  V30 33 H -1.2078 -2.248 -2.5098 0
M  V30 34 H -3.0018 -3.5766 -3.4247 0
M  V30 35 H -3.0851 -4.5826 -1.9673 0
M  V30 36 H 0.6551 -2.0921 -1.0643 0
M  V30 37 H 2.2811 -1.0311 0.3387 0
M  V30 38 H 0.4742 -4.1601 0.3339 0
M  V30 39 H 0.9297 -3.2386 1.7668 0
M  V30 40 H 2.0894 -3.444 0.4389 0
M  V30 41 H -0.1618 0.5353 -0.1888 0
M  V30 42 H 1.3313 2.5362 0.1408 0
M  V30 43 H 2.6009 1.4987 0.7495 0
M  V30 44 H -0.1946 1.7562 2.0152 0
M  V30 45 H 1.1187 0.7981 2.6711 0
M  V30 46 H 1.1717 0.7157 -4.1682 0
M  V30 47 H 2.4271 1.8611 -3.5991 0
M  V30 48 H 0.9279 2.9396 -5.2829 0
M  V30 49 H -0.4775 2.5887 -4.2484 0
M  V30 50 H 0.7545 3.7132 -3.689 0
M  V30 51 H 3.1628 1.8916 3.6055 0
M  V30 52 H -0.1867 4.211 2.1933 0
M  V30 53 H 4.035 3.8824 4.7815 0
M  V30 54 H 0.6972 6.1923 3.3743 0
M  V30 55 H 2.8067 6.0352 4.6701 0
M  V30 END ATOM
M  V30 BEGIN BOND
M  V30 1 2 1 2
M  V30 2 1 2 3
M  V30 3 1 2 4
M  V30 4 1 4 5
M  V30 5 1 4 6
M  V30 6 1 5 7
M  V30 7 1 5 8
M  V30 8 1 6 9
M  V30 9 2 7 10
M  V30 10 1 7 11
M  V30 11 1 11 12
M  V30 12 1 11 13
M  V30 13 1 12 14
M  V30 14 1 14 15
M  V30 15 1 14 16
M  V30 16 2 15 17
M  V30 17 1 15 18
M  V30 18 1 16 19
M  V30 19 1 18 20
M  V30 20 1 19 21
M  V30 21 1 20 22
M  V30 22 2 21 23
M  V30 23 1 21 24
M  V30 24 1 23 25
M  V30 25 2 24 26
M  V30 26 2 25 27
M  V30 27 1 8 9
M  V30 28 1 26 27
M  V30 29 1 3 28
M  V30 30 1 4 29
M  V30 31 1 6 30
M  V30 32 1 6 31
M  V30 33 1 8 32
M  V30 34 1 8 33
M  V30 35 1 9 34
M  V30 36 1 9 35
M  V30 37 1 11 36
M  V30 38 1 12 37
M  V30 39 1 13 38
M  V30 40 1 13 39
M  V30 41 1 13 40
M  V30 42 1 14 41
M  V30 43 1 16 42
M  V30 44 1 16 43
M  V30 45 1 19 44
M  V30 46 1 19 45
M  V30 47 1 20 46
M  V30 48 1 20 47
M  V30 49 1 22 48
M  V30 50 1 22 49
M  V30 51 1 22 50
M  V30 52 1 23 51
M  V30 53 1 24 52
M  V30 54 1 25 53
M  V30 55 1 26 54
M  V30 56 1 27 55
M  V30 END BOND
M  V30 BEGIN COLLECTION
M  V30 MDLV30/STEABS ATOMS=(3 4 11 14)
M  V30 END COLLECTION
M  V30 END CTAB
M  END
>  <NO.>
1647

>  <Name>
enalapril

>  <SMILES>
CCOC(=O)[C@H](CCc1ccccc1)N[C@@H](C)C(=O)N1CCC[C@H]1C(=O)O

>  <logBB>


>  <Class>
-1

>  <MW>
376.2

>  <nHBAcc>
5

>  <nHBDon>
2

>  <SLogP>
1.6

>  <TopoPSA>
95.94

>  <MMFF94 Energy>
92.342

$$$$
CCOC(=O)c1[nH]c2cc(OC)c(OC)cc2c1CCN1CCN(c2ccccc2)CC1
Actelion Java MolfileCreator 2.0

  0  0  0  0  0  0              0 V3000
M  V30 BEGIN CTAB
M  V30 COUNTS 63 66 0 0 0
M  V30 BEGIN ATOM
M  V30 1 O 2.5384 4.525 -1.9033 0
M  V30 2 C 1.8299 3.5752 -1.5941 0
M  V30 3 O 1.4705 2.565 -2.4258 0
M  V30 4 C 1.2804 3.3799 -0.27 0
M  V30 5 C 1.9652 2.6441 -3.7688 0
M  V30 6 N 1.6132 4.2511 0.7452 0
M  V30 7 C 0.4134 2.4366 0.2806 0
M  V30 8 C 1.0202 3.4659 -4.6248 0
M  V30 9 C 1.0265 3.8895 1.93 0
M  V30 10 C 0.2671 2.7556 1.6751 0
M  V30 11 C -0.2628 1.2817 -0.4089 0
M  V30 12 C 1.114 4.4833 3.1965 0
M  V30 13 C -0.4487 2.1736 2.7443 0
M  V30 14 C 0.6062 0.0116 -0.3991 0
M  V30 15 C 0.398 3.8944 4.2491 0
M  V30 16 C -0.381 2.7425 4.0262 0
M  V30 17 N 0.0206 -1.1112 -1.1583 0
M  V30 18 O 0.3983 4.3744 5.5386 0
M  V30 19 O -1.0418 2.2436 5.1246 0
M  V30 20 C -1.176 -1.6713 -0.4883 0
M  V30 21 C 1.0221 -2.1961 -1.2984 0
M  V30 22 C 1.1605 5.5413 5.8091 0
M  V30 23 C -1.837 1.0812 4.9456 0
M  V30 24 C -1.7753 -2.8949 -1.2223 0
M  V30 25 C 0.4881 -3.4258 -2.0665 0
M  V30 26 N -0.7532 -3.9301 -1.4594 0
M  V30 27 C -1.1877 -5.226 -1.7215 0
M  V30 28 C -2.0949 -5.8643 -0.8599 0
M  V30 29 C -0.738 -5.9672 -2.825 0
M  V30 30 C -2.5451 -7.1687 -1.0936 0
M  V30 31 C -1.1845 -7.2721 -3.0681 0
M  V30 32 C -2.0908 -7.8727 -2.2021 0
M  V30 33 H 2.0129 1.6198 -4.1526 0
M  V30 34 H 2.9844 3.0459 -3.7966 0
M  V30 35 H 2.2276 5.0452 0.6188 0
M  V30 36 H 1.3558 3.4842 -5.6653 0
M  V30 37 H 0.0078 3.0503 -4.5869 0
M  V30 38 H 0.9553 4.4959 -4.26 0
M  V30 39 H -0.5268 1.5569 -1.4361 0
M  V30 40 H -1.2171 1.0904 0.0955 0
M  V30 41 H 1.7228 5.3682 3.3319 0
M  V30 42 H -1.0397 1.2888 2.5454 0
M  V30 43 H 1.5752 0.2681 -0.8474 0
M  V30 44 H 0.8179 -0.289 0.636 0
M  V30 45 H -0.9283 -1.9651 0.5407 0
M  V30 46 H -1.9637 -0.9125 -0.4313 0
M  V30 47 H 1.8977 -1.8171 -1.8395 0
M  V30 48 H 1.3658 -2.5205 -0.3066 0
M  V30 49 H 2.226 5.3686 5.6258 0
M  V30 50 H 1.0414 5.78 6.8704 0
M  V30 51 H 0.7921 6.3969 5.2336 0
M  V30 52 H -2.6558 1.2667 4.2427 0
M  V30 53 H -2.2818 0.8281 5.9129 0
M  V30 54 H -1.2266 0.2295 4.6283 0
M  V30 55 H -2.6097 -3.2651 -0.6173 0
M  V30 56 H -2.1913 -2.5765 -2.187 0
M  V30 57 H 0.3057 -3.1537 -3.1138 0
M  V30 58 H 1.2701 -4.1947 -2.0429 0
M  V30 59 H -2.4427 -5.3573 0.0359 0
M  V30 60 H -0.0426 -5.5331 -3.5369 0
M  V30 61 H -3.2429 -7.6317 -0.4015 0
M  V30 62 H -0.8217 -7.8135 -3.9375 0
M  V30 63 H -2.4367 -8.8856 -2.3872 0
M  V30 END ATOM
M  V30 BEGIN BOND
M  V30 1 2 1 2
M  V30 2 1 2 3
M  V30 3 1 2 4
M  V30 4 1 3 5
M  V30 5 1 4 6
M  V30 6 2 4 7
M  V30 7 1 5 8
M  V30 8 1 6 9
M  V30 9 1 7 10
M  V30 10 1 7 11
M  V30 11 1 9 12
M  V30 12 1 10 13
M  V30 13 1 11 14
M  V30 14 2 12 15
M  V30 15 2 13 16
M  V30 16 1 14 17
M  V30 17 1 15 18
M  V30 18 1 16 19
M  V30 19 1 17 20
M  V30 20 1 17 21
M  V30 21 1 18 22
M  V30 22 1 19 23
M  V30 23 1 20 24
M  V30 24 1 21 25
M  V30 25 1 24 26
M  V30 26 1 26 27
M  V30 27 2 27 28
M  V30 28 1 27 29
M  V30 29 1 28 30
M  V30 30 2 29 31
M  V30 31 2 30 32
M  V30 32 2 9 10
M  V30 33 1 15 16
M  V30 34 1 25 26
M  V30 35 1 31 32
M  V30 36 1 5 33
M  V30 37 1 5 34
M  V30 38 1 6 35
M  V30 39 1 8 36
M  V30 40 1 8 37
M  V30 41 1 8 38
M  V30 42 1 11 39
M  V30 43 1 11 40
M  V30 44 1 12 41
M  V30 45 1 13 42
M  V30 46 1 14 43
M  V30 47 1 14 44
M  V30 48 1 20 45
M  V30 49 1 20 46
M  V30 50 1 21 47
M  V30 51 1 21 48
M  V30 52 1 22 49
M  V30 53 1 22 50
M  V30 54 1 22 51
M  V30 55 1 23 52
M  V30 56 1 23 53
M  V30 57 1 23 54
M  V30 58 1 24 55
M  V30 59 1 24 56
M  V30 60 1 25 57
M  V30 61 1 25 58
M  V30 62 1 28 59
M  V30 63 1 29 60
M  V30 64 1 30 61
M  V30 65 1 31 62
M  V30 66 1 32 63
M  V30 END BOND
M  V30 END CTAB
M  END
>  <NO.>
1648

>  <Name>
alpertine

>  <SMILES>
CCOC(=O)c1[nH]c2cc(OC)c(OC)cc2c1CCN1CCN(c2ccccc2)CC1

>  <logBB>


>  <Class>
1

>  <MW>
437.23

>  <nHBAcc>
6

>  <nHBDon>
1

>  <SLogP>
3.73

>  <TopoPSA>
67.03

>  <MMFF94 Energy>
132.71

$$$$
CCOC(=O)c1cnc2c(cnn2CC)c1NN=C(C)C
Actelion Java MolfileCreator 2.0

  0  0  0  0  0  0              0 V3000
M  V30 BEGIN CTAB
M  V30 COUNTS 40 41 0 0 0
M  V30 BEGIN ATOM
M  V30 1 O -2.1241 0.3144 -1.8092 0
M  V30 2 C -2.1152 -0.4741 -0.874 0
M  V30 3 O -3.1588 -1.2561 -0.5013 0
M  V30 4 C -0.9371 -0.6912 0.0079 0
M  V30 5 C -4.336 -1.1001 -1.3053 0
M  V30 6 C 0.2482 0.065 -0.1817 0
M  V30 7 C -0.9908 -1.6452 1.027 0
M  V30 8 C -5.4026 -2.0333 -0.7666 0
M  V30 9 N 0.3279 1.0396 -1.2001 0
M  V30 10 C 1.302 -0.2286 0.717 0
M  V30 11 N 0.0042 -1.9438 1.8955 0
M  V30 12 N 1.4473 1.7709 -1.3671 0
M  V30 13 C 1.1113 -1.2057 1.6855 0
M  V30 14 C 2.6257 0.218 0.9516 0
M  V30 15 C 1.4642 2.6522 -2.3226 0
M  V30 16 N 2.2802 -1.2715 2.3979 0
M  V30 17 N 3.2273 -0.4089 1.9699 0
M  V30 18 C 2.7202 3.4662 -2.5072 0
M  V30 19 C 0.3202 2.9259 -3.2679 0
M  V30 20 C 2.5576 -2.1509 3.5147 0
M  V30 21 C 2.1952 -1.5171 4.8459 0
M  V30 22 H -4.1091 -1.3576 -2.3458 0
M  V30 23 H -4.6871 -0.0636 -1.2485 0
M  V30 24 H -1.8863 -2.2409 1.1939 0
M  V30 25 H -6.3242 -1.9506 -1.3496 0
M  V30 26 H -5.0569 -3.0719 -0.7965 0
M  V30 27 H -5.6243 -1.8018 0.2804 0
M  V30 28 H -0.499 1.1253 -1.8017 0
M  V30 29 H 3.173 0.9811 0.4138 0
M  V30 30 H 3.4779 3.1831 -1.7713 0
M  V30 31 H 3.1163 3.2961 -3.5119 0
M  V30 32 H 2.4839 4.527 -2.3872 0
M  V30 33 H 0.0888 2.0224 -3.8385 0
M  V30 34 H -0.5598 3.2428 -2.7017 0
M  V30 35 H 0.5879 3.7214 -3.9686 0
M  V30 36 H 3.624 -2.4009 3.4846 0
M  V30 37 H 1.9965 -3.0793 3.3637 0
M  V30 38 H 1.129 -1.2703 4.8888 0
M  V30 39 H 2.7583 -0.5921 5.0091 0
M  V30 40 H 2.4202 -2.2038 5.6677 0
M  V30 END ATOM
M  V30 BEGIN BOND
M  V30 1 2 1 2
M  V30 2 1 2 3
M  V30 3 1 2 4
M  V30 4 1 3 5
M  V30 5 2 4 6
M  V30 6 1 4 7
M  V30 7 1 5 8
M  V30 8 1 6 9
M  V30 9 1 6 10
M  V30 10 2 7 11
M  V30 11 1 9 12
M  V30 12 2 10 13
M  V30 13 1 10 14
M  V30 14 2 12 15
M  V30 15 1 13 16
M  V30 16 2 14 17
M  V30 17 1 15 18
M  V30 18 1 15 19
M  V30 19 1 16 20
M  V30 20 1 20 21
M  V30 21 1 11 13
M  V30 22 1 16 17
M  V30 23 1 5 22
M  V30 24 1 5 23
M  V30 25 1 7 24
M  V30 26 1 8 25
M  V30 27 1 8 26
M  V30 28 1 8 27
M  V30 29 1 9 28
M  V30 30 1 14 29
M  V30 31 1 18 30
M  V30 32 1 18 31
M  V30 33 1 18 32
M  V30 34 1 19 33
M  V30 35 1 19 34
M  V30 36 1 19 35
M  V30 37 1 20 36
M  V30 38 1 20 37
M  V30 39 1 21 38
M  V30 40 1 21 39
M  V30 41 1 21 40
M  V30 END BOND
M  V30 END CTAB
M  END
>  <NO.>
1649

>  <Name>
etazolate

>  <SMILES>
CCOC(=O)c1cnc2c(cnn2CC)c1NN=C(C)C

>  <logBB>


>  <Class>
1

>  <MW>
289.15

>  <nHBAcc>
6

>  <nHBDon>
1

>  <SLogP>
2.44

>  <TopoPSA>
81.4

>  <MMFF94 Energy>
71.062

$$$$
CCOC(=O)c1cncn1C(C)c1ccc(F)cc1
Actelion Java MolfileCreator 2.0

  0  0  0  0  0  0              0 V3000
M  V30 BEGIN CTAB
M  V30 COUNTS 34 35 0 0 0
M  V30 BEGIN ATOM
M  V30 1 F 1.1109 -1.7462 -4.6088 0
M  V30 2 C 0.7117 -1.7822 -3.3309 0
M  V30 3 C -0.6077 -1.4895 -3.0162 0
M  V30 4 C 1.6226 -2.1112 -2.3376 0
M  V30 5 C -1.0272 -1.526 -1.6835 0
M  V30 6 C 1.2053 -2.1472 -1.0055 0
M  V30 7 C -0.1277 -1.8489 -0.6531 0
M  V30 8 C -0.5456 -1.9178 0.8122 0 CFG=1
M  V30 9 N 0.2345 -0.996 1.6493 0
M  V30 10 C -2.0417 -1.8481 1.1369 0
M  V30 11 C 0.3532 0.3796 1.5799 0
M  V30 12 C 1.0446 -1.4294 2.6708 0
M  V30 13 C -0.3287 1.2887 0.695 0
M  V30 14 C 1.2822 0.676 2.565 0
M  V30 15 N 1.6947 -0.442 3.2344 0
M  V30 16 O -1.2857 1.022 -0.0181 0
M  V30 17 O 0.2411 2.5248 0.7782 0
M  V30 18 C -0.3577 3.5104 -0.0705 0
M  V30 19 C 0.389 4.8159 0.1212 0
M  V30 20 H -1.3034 -1.2279 -3.8072 0
M  V30 21 H 2.6503 -2.3362 -2.604 0
M  V30 22 H -2.0632 -1.2738 -1.467 0
M  V30 23 H 1.9351 -2.4077 -0.2403 0
M  V30 24 H -0.2421 -2.926 1.134 0
M  V30 25 H -2.4923 -0.8883 0.8737 0
M  V30 26 H -2.5921 -2.631 0.6034 0
M  V30 27 H -2.2099 -1.9977 2.2097 0
M  V30 28 H 1.1289 -2.4718 2.952 0
M  V30 29 H 1.665 1.6539 2.8319 0
M  V30 30 H -1.4105 3.6433 0.2027 0
M  V30 31 H -0.2841 3.1926 -1.1165 0
M  V30 32 H -0.0336 5.6035 -0.5087 0
M  V30 33 H 0.3427 5.1365 1.1672 0
M  V30 34 H 1.4483 4.694 -0.1276 0
M  V30 END ATOM
M  V30 BEGIN BOND
M  V30 1 1 1 2
M  V30 2 2 2 3
M  V30 3 1 2 4
M  V30 4 1 3 5
M  V30 5 2 4 6
M  V30 6 2 5 7
M  V30 7 1 7 8
M  V30 8 1 8 9
M  V30 9 1 8 10
M  V30 10 1 9 11
M  V30 11 1 9 12
M  V30 12 1 11 13
M  V30 13 2 11 14
M  V30 14 2 12 15
M  V30 15 2 13 16
M  V30 16 1 13 17
M  V30 17 1 17 18
M  V30 18 1 18 19
M  V30 19 1 6 7
M  V30 20 1 14 15
M  V30 21 1 3 20
M  V30 22 1 4 21
M  V30 23 1 5 22
M  V30 24 1 6 23
M  V30 25 1 8 24
M  V30 26 1 10 25
M  V30 27 1 10 26
M  V30 28 1 10 27
M  V30 29 1 12 28
M  V30 30 1 14 29
M  V30 31 1 18 30
M  V30 32 1 18 31
M  V30 33 1 19 32
M  V30 34 1 19 33
M  V30 35 1 19 34
M  V30 END BOND
M  V30 BEGIN COLLECTION
M  V30 MDLV30/STERAC1 ATOMS=(1 8)
M  V30 END COLLECTION
M  V30 END CTAB
M  END
>  <NO.>
1650

>  <Name>
flutomidate

>  <SMILES>
CCOC(=O)c1cncn1C(C)c1ccc(F)cc1

>  <logBB>


>  <Class>
1

>  <MW>
262.11

>  <nHBAcc>
3

>  <nHBDon>
0

>  <SLogP>
2.81

>  <TopoPSA>
44.12

>  <MMFF94 Energy>
13.482

$$$$
CCOC(=O)c1cncn1C(C)c1ccccc1
Actelion Java MolfileCreator 2.0

  0  0  0  0  0  0              0 V3000
M  V30 BEGIN CTAB
M  V30 COUNTS 34 35 0 0 0
M  V30 BEGIN ATOM
M  V30 1 O -1.3416 1.0258 0.0788 0
M  V30 2 C -0.3486 1.2519 0.756 0
M  V30 3 O 0.2662 2.4674 0.8281 0
M  V30 4 C 0.3332 0.3132 1.6092 0
M  V30 5 C -0.3285 3.4792 0.0078 0
M  V30 6 N 0.1974 -1.0618 1.6475 0
M  V30 7 C 1.2793 0.5743 2.5881 0
M  V30 8 C 0.4701 4.7565 0.1793 0
M  V30 9 C 1.0141 -1.5294 2.6488 0
M  V30 10 C -0.5987 -1.9539 0.7935 0 CFG=2
M  V30 11 N 1.6837 -0.5641 3.2279 0
M  V30 12 C -0.1936 -1.8492 -0.6713 0
M  V30 13 C -2.0913 -1.8823 1.1334 0
M  V30 14 C -1.0906 -1.4716 -1.682 0
M  V30 15 C 1.1258 -2.1687 -1.0468 0
M  V30 16 C -0.6824 -1.4053 -3.0171 0
M  V30 17 C 1.5322 -2.1032 -2.3812 0
M  V30 18 C 0.6273 -1.7213 -3.3664 0
M  V30 19 H -1.3652 3.6469 0.3208 0
M  V30 20 H -0.3048 3.1667 -1.0421 0
M  V30 21 H 1.6786 1.5408 2.8719 0
M  V30 22 H 0.0523 5.5629 -0.4299 0
M  V30 23 H 0.4737 5.0711 1.2282 0
M  V30 24 H 1.5146 4.5996 -0.1094 0
M  V30 25 H 1.0886 -2.5794 2.9032 0
M  V30 26 H -0.3012 -2.9729 1.0861 0
M  V30 27 H -2.5372 -0.9121 0.9026 0
M  V30 28 H -2.6523 -2.6449 0.5818 0
M  V30 29 H -2.2513 -2.0621 2.2029 0
M  V30 30 H -2.1178 -1.1999 -1.4482 0
M  V30 31 H 1.8557 -2.4708 -0.2974 0
M  V30 32 H -1.3902 -1.0993 -3.7834 0
M  V30 33 H 2.5565 -2.3489 -2.6496 0
M  V30 34 H 0.9423 -1.6666 -4.4049 0
M  V30 END ATOM
M  V30 BEGIN BOND
M  V30 1 2 1 2
M  V30 2 1 2 3
M  V30 3 1 2 4
M  V30 4 1 3 5
M  V30 5 1 4 6
M  V30 6 2 4 7
M  V30 7 1 5 8
M  V30 8 1 6 9
M  V30 9 1 6 10
M  V30 10 1 7 11
M  V30 11 1 10 12
M  V30 12 1 10 13
M  V30 13 2 12 14
M  V30 14 1 12 15
M  V30 15 1 14 16
M  V30 16 2 15 17
M  V30 17 2 16 18
M  V30 18 2 9 11
M  V30 19 1 17 18
M  V30 20 1 5 19
M  V30 21 1 5 20
M  V30 22 1 7 21
M  V30 23 1 8 22
M  V30 24 1 8 23
M  V30 25 1 8 24
M  V30 26 1 9 25
M  V30 27 1 10 26
M  V30 28 1 13 27
M  V30 29 1 13 28
M  V30 30 1 13 29
M  V30 31 1 14 30
M  V30 32 1 15 31
M  V30 33 1 16 32
M  V30 34 1 17 33
M  V30 35 1 18 34
M  V30 END BOND
M  V30 BEGIN COLLECTION
M  V30 MDLV30/STERAC1 ATOMS=(1 10)
M  V30 END COLLECTION
M  V30 END CTAB
M  END
>  <NO.>
1651

>  <Name>
pimozide

>  <SMILES>
CCOC(=O)c1cncn1C(C)c1ccccc1

>  <logBB>


>  <Class>
1

>  <MW>
244.12

>  <nHBAcc>
3

>  <nHBDon>
0

>  <SLogP>
2.67

>  <TopoPSA>
44.12

>  <MMFF94 Energy>
15.312

$$$$
CCOC(N)=O
Actelion Java MolfileCreator 2.0

  0  0  0  0  0  0              0 V3000
M  V30 BEGIN CTAB
M  V30 COUNTS 13 12 0 0 0
M  V30 BEGIN ATOM
M  V30 1 O 0.1496 2.246 0.0748 0
M  V30 2 C -0.4628 1.3376 0.6114 0
M  V30 3 O -0.3428 0.0184 0.3451 0
M  V30 4 N -1.3813 1.5275 1.5834 0
M  V30 5 C 0.6131 -0.2833 -0.6776 0
M  V30 6 C 0.6423 -1.7871 -0.8697 0
M  V30 7 H -1.5818 2.4663 1.8921 0
M  V30 8 H -1.8547 0.7357 1.9886 0
M  V30 9 H 1.605 0.0695 -0.3734 0
M  V30 10 H 0.3192 0.2031 -1.6145 0
M  V30 11 H 1.3612 -2.0675 -1.6446 0
M  V30 12 H 0.9146 -2.2898 0.0641 0
M  V30 13 H -0.3476 -2.1587 -1.1544 0
M  V30 END ATOM
M  V30 BEGIN BOND
M  V30 1 2 1 2
M  V30 2 1 2 3
M  V30 3 1 2 4
M  V30 4 1 3 5
M  V30 5 1 5 6
M  V30 6 1 4 7
M  V30 7 1 4 8
M  V30 8 1 5 9
M  V30 9 1 5 10
M  V30 10 1 6 11
M  V30 11 1 6 12
M  V30 12 1 6 13
M  V30 END BOND
M  V30 END CTAB
M  END
>  <NO.>
1652

>  <Name>
urethane

>  <SMILES>
CCOC(N)=O

>  <logBB>


>  <Class>
1

>  <MW>
89.05

>  <nHBAcc>
2

>  <nHBDon>
1

>  <SLogP>
0.1

>  <TopoPSA>
52.32

>  <MMFF94 Energy>
-74.691

$$$$
CCOC1c2ccccc2C(=O)N(C)c2ccccc21
Actelion Java MolfileCreator 2.0

  0  0  0  0  0  0              0 V3000
M  V30 BEGIN CTAB
M  V30 COUNTS 37 39 0 0 0
M  V30 BEGIN ATOM
M  V30 1 O -1.4365 2.3951 -2.2353 0
M  V30 2 C -1.1456 1.7051 -1.2553 0
M  V30 3 N -0.6177 2.2633 -0.082 0
M  V30 4 C -1.3935 0.2405 -1.3723 0
M  V30 5 C -0.388 1.5639 1.1368 0
M  V30 6 C -0.3679 3.7005 -0.0819 0
M  V30 7 C -0.4872 -0.7223 -0.8921 0
M  V30 8 C -2.5502 -0.1629 -2.0585 0
M  V30 9 C 0.3284 0.3538 1.1573 0
M  V30 10 C -0.8492 2.1126 2.3439 0
M  V30 11 C -0.7959 -2.0838 -1.065 0
M  V30 12 C 0.7582 -0.2672 -0.1565 0 CFG=1
M  V30 13 C -2.8321 -1.5168 -2.2343 0
M  V30 14 C 0.567 -0.2798 2.3904 0
M  V30 15 C -0.6009 1.4744 3.5596 0
M  V30 16 C -1.9578 -2.4761 -1.7324 0
M  V30 17 O 1.6692 -1.3546 0.0697 0
M  V30 18 C 0.1101 0.2801 3.583 0
M  V30 19 C 2.6829 -1.4367 -0.93 0
M  V30 20 C 3.5264 -2.6646 -0.6508 0
M  V30 21 H -1.2846 4.22 0.2145 0
M  V30 22 H -0.0867 4.0426 -1.0829 0
M  V30 23 H 0.4485 3.9512 0.6029 0
M  V30 24 H -3.235 0.5831 -2.4575 0
M  V30 25 H -1.4199 3.0375 2.351 0
M  V30 26 H -0.132 -2.852 -0.6727 0
M  V30 27 H 1.2827 0.4981 -0.7452 0
M  V30 28 H -3.7331 -1.8207 -2.761 0
M  V30 29 H 1.1041 -1.2259 2.426 0
M  V30 30 H -0.9673 1.9081 4.4865 0
M  V30 31 H -2.1788 -3.5331 -1.8596 0
M  V30 32 H 0.3011 -0.2237 4.5271 0
M  V30 33 H 3.3107 -0.5398 -0.8909 0
M  V30 34 H 2.2281 -1.516 -1.9234 0
M  V30 35 H 4.3234 -2.7675 -1.3923 0
M  V30 36 H 3.9758 -2.6053 0.3459 0
M  V30 37 H 2.9081 -3.5683 -0.6682 0
M  V30 END ATOM
M  V30 BEGIN BOND
M  V30 1 2 1 2
M  V30 2 1 2 3
M  V30 3 1 2 4
M  V30 4 1 3 5
M  V30 5 1 3 6
M  V30 6 2 4 7
M  V30 7 1 4 8
M  V30 8 2 5 9
M  V30 9 1 5 10
M  V30 10 1 7 11
M  V30 11 1 7 12
M  V30 12 2 8 13
M  V30 13 1 9 14
M  V30 14 2 10 15
M  V30 15 2 11 16
M  V30 16 1 12 17
M  V30 17 2 14 18
M  V30 18 1 17 19
M  V30 19 1 19 20
M  V30 20 1 9 12
M  V30 21 1 13 16
M  V30 22 1 15 18
M  V30 23 1 6 21
M  V30 24 1 6 22
M  V30 25 1 6 23
M  V30 26 1 8 24
M  V30 27 1 10 25
M  V30 28 1 11 26
M  V30 29 1 12 27
M  V30 30 1 13 28
M  V30 31 1 14 29
M  V30 32 1 15 30
M  V30 33 1 16 31
M  V30 34 1 18 32
M  V30 35 1 19 33
M  V30 36 1 19 34
M  V30 37 1 20 35
M  V30 38 1 20 36
M  V30 39 1 20 37
M  V30 END BOND
M  V30 BEGIN COLLECTION
M  V30 MDLV30/STERAC1 ATOMS=(1 12)
M  V30 END COLLECTION
M  V30 END CTAB
M  END
>  <NO.>
1654

>  <Name>
etazepine

>  <SMILES>
CCOC1c2ccccc2C(=O)N(C)c2ccccc21

>  <logBB>


>  <Class>
1

>  <MW>
267.13

>  <nHBAcc>
2

>  <nHBDon>
0

>  <SLogP>
3.4

>  <TopoPSA>
29.54

>  <MMFF94 Energy>
60.272

$$$$
CCO[C@H]1CCN(C(=O)c2cc(-c3ccccc3)c(=O)n3c2-c2cc(Cl)ccc2CC3)C1
Actelion Java MolfileCreator 2.0

  0  0  0  0  0  0              0 V3000
M  V30 BEGIN CTAB
M  V30 COUNTS 57 61 0 0 0
M  V30 BEGIN ATOM
M  V30 1 Cl 5.6739 -0.89 1.2138 0
M  V30 2 C 4.3384 -1.9766 1.2628 0
M  V30 3 C 3.047 -1.4913 1.0399 0
M  V30 4 C 4.5558 -3.3222 1.5336 0
M  V30 5 C 1.9382 -2.3503 1.0551 0
M  V30 6 C 3.4679 -4.1848 1.6185 0
M  V30 7 C 0.5261 -1.9047 0.7921 0
M  V30 8 C 2.1678 -3.6973 1.4139 0
M  V30 9 N -0.4931 -2.629 1.442 0
M  V30 10 C 0.1664 -0.9101 -0.0528 0
M  V30 11 C 0.9833 -4.6057 1.607 0
M  V30 12 C -1.8512 -2.3073 1.357 0
M  V30 13 C -0.1342 -3.794 2.2541 0
M  V30 14 C 1.1443 -0.1813 -0.9154 0
M  V30 15 C -1.2318 -0.5694 -0.235 0
M  V30 16 O -2.7218 -2.9053 1.9882 0
M  V30 17 C -2.2196 -1.1836 0.4335 0
M  V30 18 O 1.6857 -0.7503 -1.8593 0
M  V30 19 N 1.3722 1.1381 -0.5998 0
M  V30 20 C -3.6227 -0.7851 0.204 0
M  V30 21 C 2.2462 1.964 -1.4217 0
M  V30 22 C 0.8473 1.8957 0.5269 0
M  V30 23 C -4.0224 0.554 0.3407 0
M  V30 24 C -4.5835 -1.7382 -0.1608 0
M  V30 25 C 2.0856 3.3859 -0.8668 0 CFG=2
M  V30 26 C 1.7416 3.1264 0.5996 0
M  V30 27 C -5.3485 0.9291 0.1104 0
M  V30 28 C -5.9094 -1.3623 -0.3901 0
M  V30 29 O 0.9772 4.0768 -1.4558 0
M  V30 30 C -6.2907 -0.029 -0.2562 0
M  V30 31 C 1.289 4.6497 -2.7242 0
M  V30 32 C 0.0441 5.3324 -3.2555 0
M  V30 33 H 2.9338 -0.4279 0.8657 0
M  V30 34 H 5.5613 -3.698 1.7008 0
M  V30 35 H 3.6337 -5.2313 1.8648 0
M  V30 36 H 0.671 -5.0033 0.6342 0
M  V30 37 H 1.2394 -5.45 2.2569 0
M  V30 38 H 0.1635 -3.4211 3.243 0
M  V30 39 H -1.0023 -4.4453 2.4031 0
M  V30 40 H -1.4516 0.213 -0.9584 0
M  V30 41 H 1.9685 1.8562 -2.4735 0
M  V30 42 H 3.2684 1.5967 -1.2775 0
M  V30 43 H -0.188 2.1714 0.2991 0
M  V30 44 H 0.8667 1.3062 1.4478 0
M  V30 45 H -3.307 1.3178 0.6369 0
M  V30 46 H -4.3087 -2.7862 -0.2639 0
M  V30 47 H 2.996 3.9865 -0.9677 0
M  V30 48 H 1.2333 3.9644 1.0856 0
M  V30 49 H 2.6538 2.888 1.1596 0
M  V30 50 H -5.6462 1.9685 0.2218 0
M  V30 51 H -6.6439 -2.1137 -0.6681 0
M  V30 52 H -7.3233 0.2612 -0.432 0
M  V30 53 H 1.6121 3.8746 -3.4256 0
M  V30 54 H 2.0931 5.3844 -2.6074 0
M  V30 55 H 0.2366 5.7934 -4.2282 0
M  V30 56 H -0.7744 4.6128 -3.361 0
M  V30 57 H -0.2989 6.1053 -2.5596 0
M  V30 END ATOM
M  V30 BEGIN BOND
M  V30 1 1 1 2
M  V30 2 2 2 3
M  V30 3 1 2 4
M  V30 4 1 3 5
M  V30 5 2 4 6
M  V30 6 1 5 7
M  V30 7 2 5 8
M  V30 8 1 7 9
M  V30 9 2 7 10
M  V30 10 1 8 11
M  V30 11 1 9 12
M  V30 12 1 9 13
M  V30 13 1 10 14
M  V30 14 1 10 15
M  V30 15 2 12 16
M  V30 16 1 12 17
M  V30 17 2 14 18
M  V30 18 1 14 19
M  V30 19 1 17 20
M  V30 20 1 19 21
M  V30 21 1 19 22
M  V30 22 2 20 23
M  V30 23 1 20 24
M  V30 24 1 21 25
M  V30 25 1 22 26
M  V30 26 1 23 27
M  V30 27 2 24 28
M  V30 28 1 25 29
M  V30 29 2 27 30
M  V30 30 1 29 31
M  V30 31 1 31 32
M  V30 32 1 6 8
M  V30 33 1 11 13
M  V30 34 2 15 17
M  V30 35 1 25 26
M  V30 36 1 28 30
M  V30 37 1 3 33
M  V30 38 1 4 34
M  V30 39 1 6 35
M  V30 40 1 11 36
M  V30 41 1 11 37
M  V30 42 1 13 38
M  V30 43 1 13 39
M  V30 44 1 15 40
M  V30 45 1 21 41
M  V30 46 1 21 42
M  V30 47 1 22 43
M  V30 48 1 22 44
M  V30 49 1 23 45
M  V30 50 1 24 46
M  V30 51 1 25 47
M  V30 52 1 26 48
M  V30 53 1 26 49
M  V30 54 1 27 50
M  V30 55 1 28 51
M  V30 56 1 30 52
M  V30 57 1 31 53
M  V30 58 1 31 54
M  V30 59 1 32 55
M  V30 60 1 32 56
M  V30 61 1 32 57
M  V30 END BOND
M  V30 BEGIN COLLECTION
M  V30 MDLV30/STEABS ATOMS=(1 25)
M  V30 END COLLECTION
M  V30 END CTAB
M  END
>  <NO.>
1655

>  <Name>
lirequinil

>  <SMILES>
CCO[C@H]1CCN(C(=O)c2cc(-c3ccccc3)c(=O)n3c2-c2cc(Cl)ccc2CC3)C1

>  <logBB>


>  <Class>
1

>  <MW>
448.16

>  <nHBAcc>
3

>  <nHBDon>
0

>  <SLogP>
4.64

>  <TopoPSA>
51.54

>  <MMFF94 Energy>
86.117

$$$$
CCO[C@H]1C[C@@]2(C)[C@@H](CC[C@H]3[C@@H]4CC[C@H](C(C)=O)[C@@]4(C)C[C@@H](N(C)C)[C@@H]32)C[C@@H]1O
Actelion Java MolfileCreator 2.0

  0  0  0  0  0  0              0 V3000
M  V30 BEGIN CTAB
M  V30 COUNTS 72 75 0 0 0
M  V30 BEGIN ATOM
M  V30 1 O -3.5868 3.3474 4.3054 0
M  V30 2 C -3.3482 3.332 3.0976 0
M  V30 3 C -1.9285 3.2451 2.5403 0 CFG=2
M  V30 4 C -4.479 3.3616 2.1013 0
M  V30 5 C -1.4983 1.8545 2.006 0 CFG=2
M  V30 6 C -0.8414 3.5981 3.5854 0
M  V30 7 C 0.0268 2.0646 1.9402 0 CFG=1
M  V30 8 C -1.9644 1.5372 0.58 0
M  V30 9 C -1.951 0.7371 2.9787 0
M  V30 10 C 0.3581 2.685 3.2931 0
M  V30 11 C 0.7843 0.8066 1.506 0 CFG=1
M  V30 12 C -1.2492 0.295 -0.0377 0 CFG=2
M  V30 13 C 0.3323 0.3827 0.0541 0 CFG=2
M  V30 14 C 2.2995 1.0287 1.5947 0
M  V30 15 N -1.7392 0.0218 -1.4059 0
M  V30 16 C 1.1539 -0.9065 -0.4299 0 CFG=2
M  V30 17 C 3.0853 -0.184 1.1197 0
M  V30 18 C -1.6908 1.1453 -2.3367 0
M  V30 19 C -3.0561 -0.6124 -1.4261 0
M  V30 20 C 2.677 -0.5621 -0.3044 0 CFG=1
M  V30 21 C 0.8948 -1.2448 -1.9328 0
M  V30 22 C 0.7593 -2.1337 0.4305 0
M  V30 23 C 3.6025 -1.6593 -0.8556 0
M  V30 24 C 1.8428 -2.2723 -2.5844 0 CFG=1
M  V30 25 C 3.3225 -1.9423 -2.3306 0 CFG=1
M  V30 26 O 1.5249 -3.5792 -2.0908 0
M  V30 27 O 3.7175 -0.7986 -3.096 0
M  V30 28 C 1.7695 -4.6359 -3.015 0
M  V30 29 C 0.5695 -4.8347 -3.9238 0
M  V30 30 H -1.8599 3.9949 1.7393 0
M  V30 31 H -4.1852 3.925 1.2122 0
M  V30 32 H -4.7551 2.3418 1.8265 0
M  V30 33 H -5.3429 3.8617 2.5487 0
M  V30 34 H -0.5561 4.6515 3.48 0
M  V30 35 H -1.168 3.4605 4.6214 0
M  V30 36 H 0.2433 2.8406 1.1868 0
M  V30 37 H -3.0479 1.3791 0.5771 0
M  V30 38 H -1.7784 2.419 -0.046 0
M  V30 39 H -1.6834 0.9558 4.0175 0
M  V30 40 H -1.5205 -0.2382 2.7395 0
M  V30 41 H -3.0395 0.613 2.9456 0
M  V30 42 H 0.4568 1.9207 4.0721 0
M  V30 43 H 1.2919 3.2561 3.2691 0
M  V30 44 H 0.5441 0.0044 2.2099 0
M  V30 45 H -1.5237 -0.5711 0.5753 0
M  V30 46 H 0.6376 1.2069 -0.6074 0
M  V30 47 H 2.5832 1.9038 0.9959 0
M  V30 48 H 2.5922 1.2462 2.6285 0
M  V30 49 H 2.9382 -1.025 1.807 0
M  V30 50 H 4.1545 0.0591 1.1515 0
M  V30 51 H -2.455 1.9012 -2.1256 0
M  V30 52 H -0.7115 1.633 -2.336 0
M  V30 53 H -1.8533 0.789 -3.3605 0
M  V30 54 H -3.8513 0.0568 -1.0818 0
M  V30 55 H -3.0657 -1.5131 -0.8024 0
M  V30 56 H -3.306 -0.94 -2.4418 0
M  V30 57 H 2.8563 0.3321 -0.9214 0
M  V30 58 H 0.9585 -0.3167 -2.515 0
M  V30 59 H -0.116 -1.646 -2.0516 0
M  V30 60 H 0.8123 -1.9373 1.5035 0
M  V30 61 H -0.2649 -2.4544 0.2115 0
M  V30 62 H 1.4063 -2.996 0.2559 0
M  V30 63 H 4.6435 -1.3256 -0.7542 0
M  V30 64 H 3.5084 -2.5792 -0.2684 0
M  V30 65 H 1.6447 -2.2347 -3.6635 0
M  V30 66 H 3.963 -2.7741 -2.6433 0
M  V30 67 H 3.621 -1.0286 -4.0357 0
M  V30 68 H 1.9251 -5.5466 -2.4277 0
M  V30 69 H 2.6811 -4.4576 -3.5952 0
M  V30 70 H 0.7221 -5.6937 -4.5833 0
M  V30 71 H -0.3368 -5.0003 -3.3318 0
M  V30 72 H 0.3876 -3.9506 -4.5424 0
M  V30 END ATOM
M  V30 BEGIN BOND
M  V30 1 2 1 2
M  V30 2 1 2 3
M  V30 3 1 2 4
M  V30 4 1 3 5
M  V30 5 1 3 6
M  V30 6 1 5 7
M  V30 7 1 5 8
M  V30 8 1 5 9
M  V30 9 1 6 10
M  V30 10 1 7 11
M  V30 11 1 8 12
M  V30 12 1 11 13
M  V30 13 1 11 14
M  V30 14 1 12 15
M  V30 15 1 13 16
M  V30 16 1 14 17
M  V30 17 1 15 18
M  V30 18 1 15 19
M  V30 19 1 16 20
M  V30 20 1 16 21
M  V30 21 1 16 22
M  V30 22 1 20 23
M  V30 23 1 21 24
M  V30 24 1 23 25
M  V30 25 1 24 26
M  V30 26 1 25 27
M  V30 27 1 26 28
M  V30 28 1 28 29
M  V30 29 1 7 10
M  V30 30 1 12 13
M  V30 31 1 17 20
M  V30 32 1 24 25
M  V30 33 1 3 30
M  V30 34 1 4 31
M  V30 35 1 4 32
M  V30 36 1 4 33
M  V30 37 1 6 34
M  V30 38 1 6 35
M  V30 39 1 7 36
M  V30 40 1 8 37
M  V30 41 1 8 38
M  V30 42 1 9 39
M  V30 43 1 9 40
M  V30 44 1 9 41
M  V30 45 1 10 42
M  V30 46 1 10 43
M  V30 47 1 11 44
M  V30 48 1 12 45
M  V30 49 1 13 46
M  V30 50 1 14 47
M  V30 51 1 14 48
M  V30 52 1 17 49
M  V30 53 1 17 50
M  V30 54 1 18 51
M  V30 55 1 18 52
M  V30 56 1 18 53
M  V30 57 1 19 54
M  V30 58 1 19 55
M  V30 59 1 19 56
M  V30 60 1 20 57
M  V30 61 1 21 58
M  V30 62 1 21 59
M  V30 63 1 22 60
M  V30 64 1 22 61
M  V30 65 1 22 62
M  V30 66 1 23 63
M  V30 67 1 23 64
M  V30 68 1 24 65
M  V30 69 1 25 66
M  V30 70 1 27 67
M  V30 71 1 28 68
M  V30 72 1 28 69
M  V30 73 1 29 70
M  V30 74 1 29 71
M  V30 75 1 29 72
M  V30 END BOND
M  V30 BEGIN COLLECTION
M  V30 MDLV30/STEABS ATOMS=(10 3 5 7 11 12 13 16 20 24 25)
M  V30 END COLLECTION
M  V30 END CTAB
M  END
>  <NO.>
1656

>  <Name>
minaxolone

>  <SMILES>
CCO[C@H]1C[C@@]2(C)[C@@H](CC[C@H]3[C@@H]4CC[C@H](C(C)=O)[C@@]4(C)C[C@@H](N(C)C)[C@@H]32)C[C@@H]1O

>  <logBB>


>  <Class>
1

>  <MW>
405.32

>  <nHBAcc>
4

>  <nHBDon>
1

>  <SLogP>
4.15

>  <TopoPSA>
49.77

>  <MMFF94 Energy>
124.64

$$$$
CCOc1ccc2ccccc2c1C(=O)N[C@@H]1C(=O)N2[C@@H](C(=O)O)C(C)(C)S[C@H]12
Actelion Java MolfileCreator 2.0

  0  0  0  0  0  0              0 V3000
M  V30 BEGIN CTAB
M  V30 COUNTS 51 54 0 0 0
M  V30 BEGIN ATOM
M  V30 1 S -1.6259 -1.2193 1.7073 0
M  V30 2 C -2.9475 -2.4555 1.2379 0
M  V30 3 C -0.3005 -2.3532 1.1229 0 CFG=1
M  V30 4 C -2.4032 -3.1021 -0.0522 0 CFG=1
M  V30 5 C -3.1168 -3.4251 2.4153 0
M  V30 6 C -4.254 -1.7003 0.9857 0
M  V30 7 N -0.9541 -3.0684 0.0344 0
M  V30 8 C 0.7196 -1.8116 0.0894 0 CFG=1
M  V30 9 C -2.8955 -4.5207 -0.2942 0
M  V30 10 C -0.1471 -2.5892 -0.9494 0
M  V30 11 N 0.7617 -0.3367 -0.0798 0
M  V30 12 O -2.3733 -5.5584 0.0808 0
M  V30 13 O -4.0766 -4.5564 -0.947 0
M  V30 14 O -0.2555 -2.6714 -2.1499 0
M  V30 15 C 1.8367 0.3071 -0.6488 0
M  V30 16 O 2.8557 -0.276 -0.9983 0
M  V30 17 C 1.6981 1.7814 -0.807 0
M  V30 18 C 1.2748 2.5503 0.2909 0
M  V30 19 C 2.0069 2.4091 -2.0475 0
M  V30 20 O 0.9391 1.9699 1.4881 0
M  V30 21 C 1.1175 3.9274 0.1761 0
M  V30 22 C 1.8631 3.8189 -2.138 0
M  V30 23 C 2.4291 1.7239 -3.214 0
M  V30 24 C 2.0696 1.9596 2.3711 0
M  V30 25 C 1.4203 4.5559 -1.0284 0
M  V30 26 C 2.1526 4.4816 -3.3424 0
M  V30 27 C 2.7116 2.3979 -4.4043 0
M  V30 28 C 1.713 1.1042 3.5726 0
M  V30 29 C 2.5756 3.7772 -4.4676 0
M  V30 30 H 0.1096 -3.0204 1.8866 0
M  V30 31 H -2.6786 -2.5075 -0.9346 0
M  V30 32 H -2.206 -4.0008 2.614 0
M  V30 33 H -3.3858 -2.8947 3.3368 0
M  V30 34 H -3.9212 -4.1432 2.219 0
M  V30 35 H -5.05 -2.3919 0.6877 0
M  V30 36 H -4.5981 -1.1761 1.885 0
M  V30 37 H -4.1492 -0.9593 0.1847 0
M  V30 38 H 1.7196 -2.2439 0.2131 0
M  V30 39 H -0.0166 0.2294 0.2502 0
M  V30 40 H -4.257 -5.5144 -1.0612 0
M  V30 41 H 0.7609 4.5118 1.0198 0
M  V30 42 H 2.5464 0.641 -3.2114 0
M  V30 43 H 2.2928 2.9812 2.7007 0
M  V30 44 H 2.9531 1.5382 1.8761 0
M  V30 45 H 1.2988 5.6355 -1.0982 0
M  V30 46 H 2.0467 5.5622 -3.4165 0
M  V30 47 H 3.0375 1.8382 -5.2775 0
M  V30 48 H 2.5394 1.0728 4.2881 0
M  V30 49 H 0.8233 1.4971 4.0759 0
M  V30 50 H 1.4773 0.0815 3.2601 0
M  V30 51 H 2.795 4.3051 -5.3917 0
M  V30 END ATOM
M  V30 BEGIN BOND
M  V30 1 1 1 2
M  V30 2 1 1 3
M  V30 3 1 2 4
M  V30 4 1 2 5
M  V30 5 1 2 6
M  V30 6 1 3 7
M  V30 7 1 3 8
M  V30 8 1 4 9
M  V30 9 1 7 10
M  V30 10 1 8 11
M  V30 11 2 9 12
M  V30 12 1 9 13
M  V30 13 2 10 14
M  V30 14 1 11 15
M  V30 15 2 15 16
M  V30 16 1 15 17
M  V30 17 2 17 18
M  V30 18 1 17 19
M  V30 19 1 18 20
M  V30 20 1 18 21
M  V30 21 1 19 22
M  V30 22 2 19 23
M  V30 23 1 20 24
M  V30 24 2 21 25
M  V30 25 2 22 26
M  V30 26 1 23 27
M  V30 27 1 24 28
M  V30 28 1 26 29
M  V30 29 1 4 7
M  V30 30 1 8 10
M  V30 31 1 22 25
M  V30 32 2 27 29
M  V30 33 1 3 30
M  V30 34 1 4 31
M  V30 35 1 5 32
M  V30 36 1 5 33
M  V30 37 1 5 34
M  V30 38 1 6 35
M  V30 39 1 6 36
M  V30 40 1 6 37
M  V30 41 1 8 38
M  V30 42 1 11 39
M  V30 43 1 13 40
M  V30 44 1 21 41
M  V30 45 1 23 42
M  V30 46 1 24 43
M  V30 47 1 24 44
M  V30 48 1 25 45
M  V30 49 1 26 46
M  V30 50 1 27 47
M  V30 51 1 28 48
M  V30 52 1 28 49
M  V30 53 1 28 50
M  V30 54 1 29 51
M  V30 END BOND
M  V30 BEGIN COLLECTION
M  V30 MDLV30/STEABS ATOMS=(3 3 4 8)
M  V30 END COLLECTION
M  V30 END CTAB
M  END
>  <NO.>
1657

>  <Name>
nafcillin

>  <SMILES>
CCOc1ccc2ccccc2c1C(=O)N[C@@H]1C(=O)N2[C@@H](C(=O)O)C(C)(C)S[C@H]12

>  <logBB>


>  <Class>
-1

>  <MW>
414.12

>  <nHBAcc>
5

>  <nHBDon>
2

>  <SLogP>
2.48

>  <TopoPSA>
95.94

>  <MMFF94 Energy>
74.863

$$$$
CCOc1ccccc1OCC1CNCCO1
Actelion Java MolfileCreator 2.0

  0  0  0  0  0  0              0 V3000
M  V30 BEGIN CTAB
M  V30 COUNTS 36 37 0 0 0
M  V30 BEGIN ATOM
M  V30 1 O 0.5517 -2.4453 2.5243 0
M  V30 2 C 0.0423 -1.8078 1.334 0 CFG=2
M  V30 3 C 1.9378 -2.794 2.4067 0
M  V30 4 C 0.3231 -2.6693 0.082 0
M  V30 5 C 0.5558 -0.3649 1.1933 0
M  V30 6 C 2.199 -3.6756 1.1787 0
M  V30 7 N 1.7467 -3.0254 -0.06 0
M  V30 8 O -0.2204 0.3051 0.1978 0
M  V30 9 C 0.1353 1.5818 -0.1443 0
M  V30 10 C -0.5318 2.1642 -1.2363 0
M  V30 11 C 1.1238 2.3251 0.5127 0
M  V30 12 O -1.5124 1.5563 -1.9809 0
M  V30 13 C -0.1678 3.4372 -1.6886 0
M  V30 14 C 1.4628 3.6091 0.0729 0
M  V30 15 C -2.5594 0.9673 -1.2057 0
M  V30 16 C 0.8229 4.1625 -1.0317 0
M  V30 17 C -3.8396 1.0446 -2.0193 0
M  V30 18 H -1.047 -1.7631 1.4576 0
M  V30 19 H 2.2139 -3.34 3.3148 0
M  V30 20 H 2.5453 -1.8826 2.3809 0
M  V30 21 H -0.0098 -2.1511 -0.8235 0
M  V30 22 H -0.2582 -3.5975 0.153 0
M  V30 23 H 0.4432 0.1432 2.159 0
M  V30 24 H 1.6162 -0.3616 0.9155 0
M  V30 25 H 1.6748 -4.6322 1.2941 0
M  V30 26 H 3.2696 -3.8912 1.1026 0
M  V30 27 H 1.8514 -3.673 -0.8409 0
M  V30 28 H 1.6587 1.9322 1.371 0
M  V30 29 H -0.669 3.8644 -2.5532 0
M  V30 30 H 2.2358 4.1722 0.5901 0
M  V30 31 H -2.7104 1.4911 -0.2534 0
M  V30 32 H -2.3246 -0.0852 -1.0172 0
M  V30 33 H 1.0941 5.1547 -1.3821 0
M  V30 34 H -4.6738 0.5899 -1.4776 0
M  V30 35 H -4.0901 2.0867 -2.2444 0
M  V30 36 H -3.7189 0.531 -2.9788 0
M  V30 END ATOM
M  V30 BEGIN BOND
M  V30 1 1 1 2
M  V30 2 1 1 3
M  V30 3 1 2 4
M  V30 4 1 2 5
M  V30 5 1 3 6
M  V30 6 1 4 7
M  V30 7 1 5 8
M  V30 8 1 8 9
M  V30 9 2 9 10
M  V30 10 1 9 11
M  V30 11 1 10 12
M  V30 12 1 10 13
M  V30 13 2 11 14
M  V30 14 1 12 15
M  V30 15 2 13 16
M  V30 16 1 15 17
M  V30 17 1 6 7
M  V30 18 1 14 16
M  V30 19 1 2 18
M  V30 20 1 3 19
M  V30 21 1 3 20
M  V30 22 1 4 21
M  V30 23 1 4 22
M  V30 24 1 5 23
M  V30 25 1 5 24
M  V30 26 1 6 25
M  V30 27 1 6 26
M  V30 28 1 7 27
M  V30 29 1 11 28
M  V30 30 1 13 29
M  V30 31 1 14 30
M  V30 32 1 15 31
M  V30 33 1 15 32
M  V30 34 1 16 33
M  V30 35 1 17 34
M  V30 36 1 17 35
M  V30 37 1 17 36
M  V30 END BOND
M  V30 BEGIN COLLECTION
M  V30 MDLV30/STERAC1 ATOMS=(1 2)
M  V30 END COLLECTION
M  V30 END CTAB
M  END
>  <NO.>
1658

>  <Name>
viloxazine

>  <SMILES>
CCOc1ccccc1OCC1CNCCO1

>  <logBB>


>  <Class>
1

>  <MW>
237.14

>  <nHBAcc>
4

>  <nHBDon>
1

>  <SLogP>
1.45

>  <TopoPSA>
39.72

>  <MMFF94 Energy>
110.93

$$$$
CCOc1ccccc1O[C@@H](c1ccccc1)[C@@H]1CNCCO1
Actelion Java MolfileCreator 2.0

  0  0  0  0  0  0              0 V3000
M  V30 BEGIN CTAB
M  V30 COUNTS 46 48 0 0 0
M  V30 BEGIN ATOM
M  V30 1 O -0.5556 2.3034 -1.3498 0
M  V30 2 C -1.1371 1.3142 -0.4684 0 CFG=2
M  V30 3 C -1.5662 2.9939 -2.0914 0
M  V30 4 C -0.0439 0.5641 0.3468 0 CFG=1
M  V30 5 C -1.9762 0.3151 -1.2995 0
M  V30 6 C -2.4177 2.0195 -2.9165 0
M  V30 7 O 0.9161 -0.0259 -0.5541 0
M  V30 8 C 0.6474 1.4923 1.3429 0
M  V30 9 N -3.0456 0.9833 -2.0762 0
M  V30 10 C 1.5074 -1.1478 -0.026 0
M  V30 11 C 0.4028 1.3564 2.7186 0
M  V30 12 C 1.5372 2.489 0.914 0
M  V30 13 C 0.8465 -2.3843 0.0319 0
M  V30 14 C 2.8404 -1.0304 0.3727 0
M  V30 15 C 1.03 2.1991 3.6386 0
M  V30 16 C 2.1624 3.3311 1.8345 0
M  V30 17 O -0.4469 -2.4164 -0.4198 0
M  V30 18 C 1.5285 -3.4862 0.5574 0
M  V30 19 C 3.5127 -2.1367 0.8855 0
M  V30 20 C 1.9082 3.1864 3.1964 0
M  V30 21 C -0.9785 -3.6991 -0.7497 0
M  V30 22 C 2.8554 -3.3611 0.9834 0
M  V30 23 C -2.2995 -3.4916 -1.4684 0
M  V30 24 H -1.7966 1.8399 0.2366 0
M  V30 25 H -1.0629 3.7018 -2.7574 0
M  V30 26 H -2.1873 3.5738 -1.3983 0
M  V30 27 H -0.5603 -0.2192 0.919 0
M  V30 28 H -1.3374 -0.2338 -2.0015 0
M  V30 29 H -2.446 -0.4189 -0.6368 0
M  V30 30 H -3.1993 2.5699 -3.4505 0
M  V30 31 H -1.792 1.528 -3.6711 0
M  V30 32 H -3.6806 1.44 -1.4218 0
M  V30 33 H -0.2728 0.5873 3.0857 0
M  V30 34 H 1.7466 2.6089 -0.1477 0
M  V30 35 H 3.3478 -0.0732 0.2906 0
M  V30 36 H 0.8355 2.0828 4.7015 0
M  V30 37 H 2.8481 4.0985 1.4858 0
M  V30 38 H 1.0549 -4.4573 0.653 0
M  V30 39 H 4.5462 -2.0422 1.2075 0
M  V30 40 H 2.3966 3.8412 3.9128 0
M  V30 41 H -1.1578 -4.2761 0.1642 0
M  V30 42 H -0.2944 -4.244 -1.4109 0
M  V30 43 H 3.3779 -4.2243 1.388 0
M  V30 44 H -2.746 -4.45 -1.7474 0
M  V30 45 H -3.0039 -2.9469 -0.8311 0
M  V30 46 H -2.1566 -2.8911 -2.3728 0
M  V30 END ATOM
M  V30 BEGIN BOND
M  V30 1 1 1 2
M  V30 2 1 1 3
M  V30 3 1 2 4
M  V30 4 1 2 5
M  V30 5 1 3 6
M  V30 6 1 4 7
M  V30 7 1 4 8
M  V30 8 1 5 9
M  V30 9 1 7 10
M  V30 10 2 8 11
M  V30 11 1 8 12
M  V30 12 2 10 13
M  V30 13 1 10 14
M  V30 14 1 11 15
M  V30 15 2 12 16
M  V30 16 1 13 17
M  V30 17 1 13 18
M  V30 18 2 14 19
M  V30 19 2 15 20
M  V30 20 1 17 21
M  V30 21 2 18 22
M  V30 22 1 21 23
M  V30 23 1 6 9
M  V30 24 1 16 20
M  V30 25 1 19 22
M  V30 26 1 2 24
M  V30 27 1 3 25
M  V30 28 1 3 26
M  V30 29 1 4 27
M  V30 30 1 5 28
M  V30 31 1 5 29
M  V30 32 1 6 30
M  V30 33 1 6 31
M  V30 34 1 9 32
M  V30 35 1 11 33
M  V30 36 1 12 34
M  V30 37 1 14 35
M  V30 38 1 15 36
M  V30 39 1 16 37
M  V30 40 1 18 38
M  V30 41 1 19 39
M  V30 42 1 20 40
M  V30 43 1 21 41
M  V30 44 1 21 42
M  V30 45 1 22 43
M  V30 46 1 23 44
M  V30 47 1 23 45
M  V30 48 1 23 46
M  V30 END BOND
M  V30 BEGIN COLLECTION
M  V30 MDLV30/STEABS ATOMS=(2 2 4)
M  V30 END COLLECTION
M  V30 END CTAB
M  END
>  <NO.>
1659

>  <Name>
reboxetine

>  <SMILES>
CCOc1ccccc1O[C@@H](c1ccccc1)[C@@H]1CNCCO1

>  <logBB>


>  <Class>
1

>  <MW>
313.17

>  <nHBAcc>
4

>  <nHBDon>
1

>  <SLogP>
3.19

>  <TopoPSA>
39.72

>  <MMFF94 Energy>
146.72

$$$$
CCS(=O)(=O)C(C)(C)S(=O)(=O)CC
Actelion Java MolfileCreator 2.0

  0  0  0  0  0  0              0 V3000
M  V30 BEGIN CTAB
M  V30 COUNTS 29 28 0 0 0
M  V30 BEGIN ATOM
M  V30 1 S -0.0818 0.1636 1.6369 0
M  V30 2 O -1.1678 1.001 2.1061 0
M  V30 3 O 0.0612 -1.2039 2.1025 0
M  V30 4 C -0.0428 0.1673 -0.1863 0
M  V30 5 C 1.419 1.0011 2.1397 0
M  V30 6 S -1.7135 -0.2921 -0.751 0
M  V30 7 C 0.3082 1.5685 -0.7096 0
M  V30 8 C 0.9985 -0.8471 -0.6748 0
M  V30 9 C 1.5921 0.9781 3.6479 0
M  V30 10 O -2.1286 -1.5252 -0.1129 0
M  V30 11 O -2.5562 0.8893 -0.679 0
M  V30 12 C -1.5722 -0.6418 -2.5051 0
M  V30 13 C -1.3868 -2.1107 -2.8309 0
M  V30 14 H 1.36 2.0371 1.7964 0
M  V30 15 H 2.266 0.5045 1.6617 0
M  V30 16 H 0.1963 1.636 -1.796 0
M  V30 17 H 1.3454 1.8351 -0.4818 0
M  V30 18 H -0.3342 2.3374 -0.2666 0
M  V30 19 H 1.9887 -0.6422 -0.2559 0
M  V30 20 H 0.7302 -1.8696 -0.3888 0
M  V30 21 H 1.1072 -0.8234 -1.7633 0
M  V30 22 H 2.5059 1.5085 3.9329 0
M  V30 23 H 0.7469 1.4599 4.15 0
M  V30 24 H 1.6634 -0.0477 4.0228 0
M  V30 25 H -0.7686 -0.0339 -2.9246 0
M  V30 26 H -2.507 -0.2959 -2.961 0
M  V30 27 H -1.2884 -2.246 -3.9126 0
M  V30 28 H -0.4964 -2.5286 -2.3556 0
M  V30 29 H -2.249 -2.6985 -2.4994 0
M  V30 END ATOM
M  V30 BEGIN BOND
M  V30 1 2 1 2
M  V30 2 2 1 3
M  V30 3 1 1 4
M  V30 4 1 1 5
M  V30 5 1 4 6
M  V30 6 1 4 7
M  V30 7 1 4 8
M  V30 8 1 5 9
M  V30 9 2 6 10
M  V30 10 2 6 11
M  V30 11 1 6 12
M  V30 12 1 12 13
M  V30 13 1 5 14
M  V30 14 1 5 15
M  V30 15 1 7 16
M  V30 16 1 7 17
M  V30 17 1 7 18
M  V30 18 1 8 19
M  V30 19 1 8 20
M  V30 20 1 8 21
M  V30 21 1 9 22
M  V30 22 1 9 23
M  V30 23 1 9 24
M  V30 24 1 12 25
M  V30 25 1 12 26
M  V30 26 1 13 27
M  V30 27 1 13 28
M  V30 28 1 13 29
M  V30 END BOND
M  V30 END CTAB
M  END
>  <NO.>
1660

>  <Name>
sulfonmethane

>  <SMILES>
CCS(=O)(=O)C(C)(C)S(=O)(=O)CC

>  <logBB>


>  <Class>
1

>  <MW>
228.05

>  <nHBAcc>
4

>  <nHBDon>
0

>  <SLogP>
0.59

>  <TopoPSA>
68.28

>  <MMFF94 Energy>
-40.402

$$$$
CCS(=O)(=O)CCN1C(=O)CN=C(c2ccccc2F)c2cc(Cl)ccc21
Actelion Java MolfileCreator 2.0

  0  0  0  0  0  0              0 V3000
M  V30 BEGIN CTAB
M  V30 COUNTS 45 47 0 0 0
M  V30 BEGIN ATOM
M  V30 1 Cl -3.1249 2.3019 -3.619 0
M  V30 2 C -2.0648 1.6815 -2.4161 0
M  V30 3 C -0.9376 0.9586 -2.7929 0
M  V30 4 C -2.3357 1.9082 -1.0721 0
M  V30 5 C -0.069 0.4468 -1.8131 0
M  V30 6 C -1.4693 1.4105 -0.0948 0
M  V30 7 C 1.1195 -0.3225 -2.2785 0
M  V30 8 C -0.3244 0.6736 -0.4467 0
M  V30 9 N 2.3147 -0.1781 -1.815 0
M  V30 10 C 0.9143 -1.3366 -3.3418 0
M  V30 11 N 0.5217 0.1831 0.5906 0
M  V30 12 C 2.5325 0.792 -0.7414 0
M  V30 13 C 1.6408 -1.2627 -4.5297 0
M  V30 14 C -0.0037 -2.375 -3.1449 0
M  V30 15 C 1.9167 0.2459 0.539 0
M  V30 16 C -0.0945 -0.452 1.7633 0
M  V30 17 F 2.4934 -0.2531 -4.757 0
M  V30 18 C 1.4546 -2.2154 -5.5278 0
M  V30 19 C -0.1889 -3.331 -4.1461 0
M  V30 20 O 2.6185 -0.0973 1.4939 0
M  V30 21 C 0.0488 0.3858 3.0266 0
M  V30 22 C 0.5391 -3.2514 -5.3357 0
M  V30 23 S -1.1468 -0.1328 4.2356 0
M  V30 24 O -2.4306 0.4122 3.8341 0
M  V30 25 O -0.9866 -1.5604 4.4347 0
M  V30 26 C -0.6354 0.6753 5.7435 0
M  V30 27 C -0.6749 2.1867 5.6582 0
M  V30 28 H -0.7322 0.8097 -3.8505 0
M  V30 29 H -3.2156 2.4741 -0.7738 0
M  V30 30 H -1.7078 1.6187 0.9459 0
M  V30 31 H 3.6109 0.9017 -0.5833 0
M  V30 32 H 2.145 1.7889 -0.979 0
M  V30 33 H -0.5604 -2.4576 -2.2149 0
M  V30 34 H 0.4046 -1.4177 1.9178 0
M  V30 35 H -1.1424 -0.6898 1.5438 0
M  V30 36 H 2.0234 -2.1422 -6.4497 0
M  V30 37 H -0.8953 -4.1448 -3.9965 0
M  V30 38 H -0.1237 1.4473 2.8273 0
M  V30 39 H 1.0405 0.2659 3.4718 0
M  V30 40 H 0.3952 -3.9993 -6.1123 0
M  V30 41 H 0.3727 0.3219 5.9796 0
M  V30 42 H -1.3133 0.3243 6.5284 0
M  V30 43 H -0.4013 2.6262 6.6226 0
M  V30 44 H 0.0264 2.5633 4.9082 0
M  V30 45 H -1.6748 2.5447 5.3938 0
M  V30 END ATOM
M  V30 BEGIN BOND
M  V30 1 1 1 2
M  V30 2 2 2 3
M  V30 3 1 2 4
M  V30 4 1 3 5
M  V30 5 2 4 6
M  V30 6 1 5 7
M  V30 7 2 5 8
M  V30 8 2 7 9
M  V30 9 1 7 10
M  V30 10 1 8 11
M  V30 11 1 9 12
M  V30 12 2 10 13
M  V30 13 1 10 14
M  V30 14 1 11 15
M  V30 15 1 11 16
M  V30 16 1 13 17
M  V30 17 1 13 18
M  V30 18 2 14 19
M  V30 19 2 15 20
M  V30 20 1 16 21
M  V30 21 2 18 22
M  V30 22 1 21 23
M  V30 23 2 23 24
M  V30 24 2 23 25
M  V30 25 1 23 26
M  V30 26 1 26 27
M  V30 27 1 6 8
M  V30 28 1 12 15
M  V30 29 1 19 22
M  V30 30 1 3 28
M  V30 31 1 4 29
M  V30 32 1 6 30
M  V30 33 1 12 31
M  V30 34 1 12 32
M  V30 35 1 14 33
M  V30 36 1 16 34
M  V30 37 1 16 35
M  V30 38 1 18 36
M  V30 39 1 19 37
M  V30 40 1 21 38
M  V30 41 1 21 39
M  V30 42 1 22 40
M  V30 43 1 26 41
M  V30 44 1 26 42
M  V30 45 1 27 43
M  V30 46 1 27 44
M  V30 47 1 27 45
M  V30 END BOND
M  V30 END CTAB
M  END
>  <NO.>
1661

>  <Name>
elfazepam

>  <SMILES>
CCS(=O)(=O)CCN1C(=O)CN=C(c2ccccc2F)c2cc(Cl)ccc21

>  <logBB>


>  <Class>
1

>  <MW>
408.07

>  <nHBAcc>
4

>  <nHBDon>
0

>  <SLogP>
3.1

>  <TopoPSA>
66.81

>  <MMFF94 Energy>
92.279

$$$$
CCS(=O)(=O)c1ccc(F)cc1
Actelion Java MolfileCreator 2.0

  0  0  0  0  0  0              0 V3000
M  V30 BEGIN CTAB
M  V30 COUNTS 21 21 0 0 0
M  V30 BEGIN ATOM
M  V30 1 S 1.5565 0.5732 -0.8189 0
M  V30 2 O 1.5929 1.8189 -1.5622 0
M  V30 3 O 2.693 0.1611 -0.0172 0
M  V30 4 C 0.1401 0.6625 0.2549 0
M  V30 5 C 1.1686 -0.7352 -1.9627 0
M  V30 6 C -1.0152 1.3147 -0.1921 0
M  V30 7 C 0.2072 0.1212 1.5438 0
M  V30 8 C 1.0012 -2.0878 -1.3016 0
M  V30 9 C -2.1227 1.3983 0.6522 0
M  V30 10 C -0.9057 0.2094 2.3806 0
M  V30 11 C -2.0593 0.8433 1.9274 0
M  V30 12 F -3.1249 0.9257 2.7341 0
M  V30 13 H 1.9935 -0.7702 -2.6818 0
M  V30 14 H 0.2613 -0.4486 -2.5032 0
M  V30 15 H -1.0555 1.7669 -1.1808 0
M  V30 16 H 1.1137 -0.3614 1.9029 0
M  V30 17 H 0.8199 -2.8571 -2.0585 0
M  V30 18 H 1.8968 -2.3697 -0.7395 0
M  V30 19 H 0.1539 -2.0941 -0.6098 0
M  V30 20 H -3.0306 1.8998 0.3308 0
M  V30 21 H -0.8798 -0.2037 3.3844 0
M  V30 END ATOM
M  V30 BEGIN BOND
M  V30 1 2 1 2
M  V30 2 2 1 3
M  V30 3 1 1 4
M  V30 4 1 1 5
M  V30 5 2 4 6
M  V30 6 1 4 7
M  V30 7 1 5 8
M  V30 8 1 6 9
M  V30 9 2 7 10
M  V30 10 2 9 11
M  V30 11 1 11 12
M  V30 12 1 10 11
M  V30 13 1 5 13
M  V30 14 1 5 14
M  V30 15 1 6 15
M  V30 16 1 7 16
M  V30 17 1 8 17
M  V30 18 1 8 18
M  V30 19 1 8 19
M  V30 20 1 9 20
M  V30 21 1 10 21
M  V30 END BOND
M  V30 END CTAB
M  END
>  <NO.>
1662

>  <Name>
fluoresone

>  <SMILES>
CCS(=O)(=O)c1ccc(F)cc1

>  <logBB>


>  <Class>
1

>  <MW>
188.03

>  <nHBAcc>
2

>  <nHBDon>
0

>  <SLogP>
1.62

>  <TopoPSA>
34.14

>  <MMFF94 Energy>
39.066

$$$$
CC[C@H](C)C(=O)O[C@H]1CCC=C2C=C[C@H](C)[C@H](CC[C@@H]3C[C@@H](O)CC(=O)O3)[C@H]21
Actelion Java MolfileCreator 2.0

  0  0  0  0  0  0              0 V3000
M  V30 BEGIN CTAB
M  V30 COUNTS 62 64 0 0 0
M  V30 BEGIN ATOM
M  V30 1 O -1.5892 4.3751 2.862 0
M  V30 2 C -1.0364 4.3748 1.7669 0
M  V30 3 O -1.3437 3.4457 0.8316 0
M  V30 4 C -0.1048 5.4748 1.3485 0
M  V30 5 C -0.3996 3.0325 -0.1778 0 CFG=1
M  V30 6 C 1.0108 4.9913 0.4499 0 CFG=1
M  V30 7 C 0.429 4.1959 -0.7024 0
M  V30 8 C 0.4634 1.8901 0.3878 0
M  V30 9 O 1.7136 6.1204 -0.062 0
M  V30 10 C -0.382 0.6485 0.7165 0
M  V30 11 C 0.4531 -0.5514 1.226 0 CFG=2
M  V30 12 C -0.4054 -1.8435 1.4258 0 CFG=2
M  V30 13 C 1.2606 -0.231 2.523 0 CFG=2
M  V30 14 C 0.4767 -3.0122 1.872 0
M  V30 15 C -1.2633 -2.2188 0.185 0 CFG=1
M  V30 16 C 1.9455 -1.4602 3.0638 0
M  V30 17 C 0.4356 0.4037 3.6486 0
M  V30 18 C 1.5908 -2.7119 2.7481 0
M  V30 19 C 0.2559 -4.278 1.4741 0
M  V30 20 O -0.4267 -2.2207 -0.9922 0
M  V30 21 C -1.9091 -3.5956 0.3686 0
M  V30 22 C -0.8633 -4.6891 0.5667 0
M  V30 23 C -1.0436 -1.9869 -2.1813 0
M  V30 24 O -2.2384 -1.7717 -2.3284 0
M  V30 25 C -0.0293 -2.0421 -3.3084 0 CFG=2
M  V30 26 C -0.1604 -0.821 -4.2283 0
M  V30 27 C -0.2375 -3.3416 -4.0804 0
M  V30 28 C 0.2034 0.4815 -3.5268 0
M  V30 29 H -0.6976 6.2555 0.8566 0
M  V30 30 H 0.3298 5.931 2.2459 0
M  V30 31 H -0.9926 2.6421 -1.0134 0
M  V30 32 H 1.7242 4.3889 1.0228 0
M  V30 33 H 1.2193 3.851 -1.3794 0
M  V30 34 H -0.2102 4.8586 -1.3014 0
M  V30 35 H 0.9689 2.2318 1.296 0
M  V30 36 H 1.2354 1.616 -0.3409 0
M  V30 37 H 2.4598 5.7969 -0.5966 0
M  V30 38 H -1.1636 0.8962 1.4438 0
M  V30 39 H -0.9026 0.3678 -0.2044 0
M  V30 40 H 1.1947 -0.7717 0.4421 0
M  V30 41 H -1.1118 -1.6587 2.2486 0
M  V30 42 H 2.0569 0.4748 2.2532 0
M  V30 43 H -2.061 -1.4734 0.0756 0
M  V30 44 H 2.7805 -1.3043 3.7434 0
M  V30 45 H 0.0364 1.3793 3.3559 0
M  V30 46 H 1.0538 0.5699 4.539 0
M  V30 47 H -0.4058 -0.2304 3.9467 0
M  V30 48 H 2.1572 -3.5422 3.1644 0
M  V30 49 H 0.9175 -5.0794 1.7967 0
M  V30 50 H -2.5794 -3.5672 1.2374 0
M  V30 51 H -2.5237 -3.8536 -0.5015 0
M  V30 52 H -0.4353 -4.9756 -0.4015 0
M  V30 53 H -1.3527 -5.5811 0.9743 0
M  V30 54 H 0.981 -2.0499 -2.8796 0
M  V30 55 H 0.5028 -0.9447 -5.093 0
M  V30 56 H -1.1822 -0.741 -4.6192 0
M  V30 57 H 0.5099 -3.4486 -4.8732 0
M  V30 58 H -1.2312 -3.3778 -4.541 0
M  V30 59 H -0.1519 -4.2075 -3.4145 0
M  V30 60 H 0.1579 1.3157 -4.2342 0
M  V30 61 H -0.489 0.7002 -2.7088 0
M  V30 62 H 1.218 0.4387 -3.118 0
M  V30 END ATOM
M  V30 BEGIN BOND
M  V30 1 2 1 2
M  V30 2 1 2 3
M  V30 3 1 2 4
M  V30 4 1 3 5
M  V30 5 1 4 6
M  V30 6 1 5 7
M  V30 7 1 5 8
M  V30 8 1 6 9
M  V30 9 1 8 10
M  V30 10 1 10 11
M  V30 11 1 11 12
M  V30 12 1 11 13
M  V30 13 1 12 14
M  V30 14 1 12 15
M  V30 15 1 13 16
M  V30 16 1 13 17
M  V30 17 1 14 18
M  V30 18 2 14 19
M  V30 19 1 15 20
M  V30 20 1 15 21
M  V30 21 1 19 22
M  V30 22 1 20 23
M  V30 23 2 23 24
M  V30 24 1 23 25
M  V30 25 1 25 26
M  V30 26 1 25 27
M  V30 27 1 26 28
M  V30 28 1 6 7
M  V30 29 2 16 18
M  V30 30 1 21 22
M  V30 31 1 4 29
M  V30 32 1 4 30
M  V30 33 1 5 31
M  V30 34 1 6 32
M  V30 35 1 7 33
M  V30 36 1 7 34
M  V30 37 1 8 35
M  V30 38 1 8 36
M  V30 39 1 9 37
M  V30 40 1 10 38
M  V30 41 1 10 39
M  V30 42 1 11 40
M  V30 43 1 12 41
M  V30 44 1 13 42
M  V30 45 1 15 43
M  V30 46 1 16 44
M  V30 47 1 17 45
M  V30 48 1 17 46
M  V30 49 1 17 47
M  V30 50 1 18 48
M  V30 51 1 19 49
M  V30 52 1 21 50
M  V30 53 1 21 51
M  V30 54 1 22 52
M  V30 55 1 22 53
M  V30 56 1 25 54
M  V30 57 1 26 55
M  V30 58 1 26 56
M  V30 59 1 27 57
M  V30 60 1 27 58
M  V30 61 1 27 59
M  V30 62 1 28 60
M  V30 63 1 28 61
M  V30 64 1 28 62
M  V30 END BOND
M  V30 BEGIN COLLECTION
M  V30 MDLV30/STEABS ATOMS=(7 5 6 11 12 13 15 25)
M  V30 END COLLECTION
M  V30 END CTAB
M  END
>  <NO.>
1669

>  <Name>
mevastatin

>  <SMILES>
CC[C@H](C)C(=O)O[C@H]1CCC=C2C=C[C@H](C)[C@H](CC[C@@H]3C[C@@H](O)CC(=O)O3)[C@H]21

>  <logBB>


>  <Class>
1

>  <MW>
390.24

>  <nHBAcc>
5

>  <nHBDon>
1

>  <SLogP>
3.95

>  <TopoPSA>
72.83

>  <MMFF94 Energy>
14.999

$$$$
CC[C@H]1CC(=O)[C@@H]2Oc3c(OC)ccc4c3[C@@]23CCN(CC2CC2)C(C4)[C@H]13
Actelion Java MolfileCreator 2.0

  0  0  0  0  0  0              0 V3000
M  V30 BEGIN CTAB
M  V30 COUNTS 56 61 0 0 0
M  V30 BEGIN ATOM
M  V30 1 O 4.2887 -1.1315 0.8889 0
M  V30 2 C 3.3269 -0.8523 0.1698 0
M  V30 3 C 2.8607 0.5892 -0.0662 0 CFG=2
M  V30 4 C 2.6329 -1.9415 -0.6153 0
M  V30 5 O 3.1066 1.3922 1.1268 0
M  V30 6 C 1.3656 0.7068 -0.3914 0 CFG=2
M  V30 7 C 1.1064 -1.8495 -0.4773 0 CFG=1
M  V30 8 C 1.9161 1.3188 1.8169 0
M  V30 9 C 0.889 0.8687 1.0096 0
M  V30 10 C 0.6454 -0.4799 -1.0516 0 CFG=1
M  V30 11 C 1.057 1.988 -1.1938 0
M  V30 12 C 0.4062 -3.0281 -1.1896 0
M  V30 13 C 1.7004 1.6039 3.1516 0
M  V30 14 C -0.3774 0.584 1.4792 0
M  V30 15 C -0.8876 -0.1728 -0.9432 0
M  V30 16 C -0.4486 2.2229 -1.3605 0
M  V30 17 C 0.8182 -4.4022 -0.6768 0
M  V30 18 O 2.7651 2.0743 3.8606 0
M  V30 19 C 0.4082 1.37 3.6499 0
M  V30 20 C -0.6175 0.8478 2.8262 0
M  V30 21 C -1.3676 -0.0648 0.5484 0
M  V30 22 N -1.1552 1.0133 -1.8028 0
M  V30 23 C 2.5741 2.2805 5.2525 0
M  V30 24 C -2.5781 1.31 -2.0152 0
M  V30 25 C -3.2648 0.2009 -2.7559 0
M  V30 26 C -4.1156 -0.8171 -2.0356 0
M  V30 27 C -4.7664 0.2216 -2.9031 0
M  V30 28 H 3.4779 0.9867 -0.8808 0
M  V30 29 H 2.9479 -1.8657 -1.662 0
M  V30 30 H 2.9983 -2.8966 -0.2244 0
M  V30 31 H 0.8539 -1.9081 0.5888 0
M  V30 32 H 0.9125 -0.495 -2.1202 0
M  V30 33 H 1.5007 2.8754 -0.7239 0
M  V30 34 H 1.5158 1.9033 -2.1882 0
M  V30 35 H -0.6765 -2.9504 -1.0477 0
M  V30 36 H 0.5908 -2.9789 -2.2694 0
M  V30 37 H -1.4239 -1.0098 -1.3971 0
M  V30 38 H -0.575 3.0168 -2.1076 0
M  V30 39 H -0.877 2.6104 -0.4279 0
M  V30 40 H 0.1724 -5.1719 -1.1119 0
M  V30 41 H 1.8467 -4.6462 -0.9567 0
M  V30 42 H 0.7269 -4.46 0.4122 0
M  V30 43 H 0.164 1.564 4.69 0
M  V30 44 H -1.594 0.6442 3.2601 0
M  V30 45 H -2.3301 0.4503 0.6199 0
M  V30 46 H -1.5349 -1.0861 0.9155 0
M  V30 47 H 1.8293 3.0618 5.4365 0
M  V30 48 H 3.5244 2.6214 5.6744 0
M  V30 49 H 2.3011 1.348 5.7576 0
M  V30 50 H -2.665 2.2011 -2.6503 0
M  V30 51 H -3.0942 1.5492 -1.0786 0
M  V30 52 H -2.6988 -0.1193 -3.6245 0
M  V30 53 H -4.2406 -0.7295 -0.9628 0
M  V30 54 H -4.0909 -1.839 -2.3968 0
M  V30 55 H -5.3275 1.0108 -2.4156 0
M  V30 56 H -5.1858 -0.0976 -3.8507 0
M  V30 END ATOM
M  V30 BEGIN BOND
M  V30 1 2 1 2
M  V30 2 1 2 3
M  V30 3 1 2 4
M  V30 4 1 3 5
M  V30 5 1 3 6
M  V30 6 1 4 7
M  V30 7 1 5 8
M  V30 8 1 6 9
M  V30 9 1 6 10
M  V30 10 1 6 11
M  V30 11 1 7 12
M  V30 12 1 8 13
M  V30 13 1 9 14
M  V30 14 1 10 15
M  V30 15 1 11 16
M  V30 16 1 12 17
M  V30 17 1 13 18
M  V30 18 2 13 19
M  V30 19 2 14 20
M  V30 20 1 14 21
M  V30 21 1 15 22
M  V30 22 1 18 23
M  V30 23 1 22 24
M  V30 24 1 24 25
M  V30 25 1 25 26
M  V30 26 1 25 27
M  V30 27 1 7 10
M  V30 28 2 8 9
M  V30 29 1 15 21
M  V30 30 1 16 22
M  V30 31 1 19 20
M  V30 32 1 26 27
M  V30 33 1 3 28
M  V30 34 1 4 29
M  V30 35 1 4 30
M  V30 36 1 7 31
M  V30 37 1 10 32
M  V30 38 1 11 33
M  V30 39 1 11 34
M  V30 40 1 12 35
M  V30 41 1 12 36
M  V30 42 1 15 37
M  V30 43 1 16 38
M  V30 44 1 16 39
M  V30 45 1 17 40
M  V30 46 1 17 41
M  V30 47 1 17 42
M  V30 48 1 19 43
M  V30 49 1 20 44
M  V30 50 1 21 45
M  V30 51 1 21 46
M  V30 52 1 23 47
M  V30 53 1 23 48
M  V30 54 1 23 49
M  V30 55 1 24 50
M  V30 56 1 24 51
M  V30 57 1 25 52
M  V30 58 1 26 53
M  V30 59 1 26 54
M  V30 60 1 27 55
M  V30 61 1 27 56
M  V30 END BOND
M  V30 BEGIN COLLECTION
M  V30 MDLV30/STEABS ATOMS=(4 3 6 7 10)
M  V30 END COLLECTION
M  V30 END CTAB
M  END
>  <NO.>
1678

>  <Name>
conorphone(conorfone)

>  <SMILES>
CC[C@H]1CC(=O)[C@@H]2Oc3c(OC)ccc4c3[C@@]23CCN(CC2CC2)C(C4)[C@H]13

>  <logBB>


>  <Class>
1

>  <MW>
367.21

>  <nHBAcc>
4

>  <nHBDon>
0

>  <SLogP>
3.35

>  <TopoPSA>
38.77

>  <MMFF94 Energy>
112.02

$$$$
CC[C@H]1CN2CCc3cc(OC)c(OC)cc3[C@@H]2C[C@@H]1C[C@H]1NCCc2cc(OC)c(OC)cc21
Actelion Java MolfileCreator 2.0

  0  0  0  0  0  0              0 V3000
M  V30 BEGIN CTAB
M  V30 COUNTS 75 79 0 0 0
M  V30 BEGIN ATOM
M  V30 1 O 4.3842 3.7456 0.0 0
M  V30 2 C 4.4426 2.373 0.0135 0
M  V30 3 C 3.1575 4.3512 -0.3797 0
M  V30 4 C 5.6416 1.8116 0.4857 0
M  V30 5 C 3.4056 1.5327 -0.4149 0
M  V30 6 O 6.6072 2.6991 0.8924 0
M  V30 7 C 5.7859 0.4222 0.5029 0
M  V30 8 C 3.5239 0.1308 -0.3632 0
M  V30 9 C 7.8067 2.1649 1.4323 0
M  V30 10 C 4.7474 -0.4151 0.0619 0
M  V30 11 C 2.3886 -0.7757 -0.854 0 CFG=1
M  V30 12 C 4.945 -1.909 0.0799 0
M  V30 13 N 2.5883 -2.2006 -0.5078 0
M  V30 14 C 1.0161 -0.3631 -0.2859 0
M  V30 15 C 3.9522 -2.6275 -0.835 0
M  V30 16 C 1.5969 -3.0436 -1.182 0
M  V30 17 C -0.1412 -1.2091 -0.8575 0 CFG=1
M  V30 18 C 0.1669 -2.7274 -0.6971 0 CFG=1
M  V30 19 C -1.4919 -0.8215 -0.1984 0
M  V30 20 C -0.8736 -3.6044 -1.4342 0
M  V30 21 C -1.8784 0.6789 -0.2666 0 CFG=1
M  V30 22 C -0.627 -5.1035 -1.3188 0
M  V30 23 N -1.7819 1.2271 -1.6343 0
M  V30 24 C -3.2488 0.9105 0.3602 0
M  V30 25 C -2.9098 0.7823 -2.4602 0
M  V30 26 C -4.378 1.1686 -0.4338 0
M  V30 27 C -3.397 0.8395 1.757 0
M  V30 28 C -4.2461 1.3093 -1.93 0
M  V30 29 C -5.6296 1.3618 0.1719 0
M  V30 30 C -4.6459 1.0223 2.3621 0
M  V30 31 C -5.7735 1.2854 1.5615 0
M  V30 32 O -4.8677 0.9655 3.7164 0
M  V30 33 O -6.9608 1.4578 2.2299 0
M  V30 34 C -3.759 0.6806 4.5565 0
M  V30 35 C -8.1268 1.6937 1.455 0
M  V30 36 H 2.922 4.1394 -1.4277 0
M  V30 37 H 3.2742 5.4346 -0.2792 0
M  V30 38 H 2.3403 4.0432 0.281 0
M  V30 39 H 2.4928 1.962 -0.8116 0
M  V30 40 H 6.7039 -0.0419 0.8479 0
M  V30 41 H 7.6067 1.5631 2.325 0
M  V30 42 H 8.4406 3.0044 1.7339 0
M  V30 43 H 8.3553 1.5889 0.68 0
M  V30 44 H 2.3719 -0.6651 -1.9485 0
M  V30 45 H 4.8268 -2.2621 1.1121 0
M  V30 46 H 5.963 -2.1552 -0.2447 0
M  V30 47 H 0.8227 0.6866 -0.5217 0
M  V30 48 H 1.0267 -0.4379 0.8105 0
M  V30 49 H 4.1841 -2.4312 -1.8904 0
M  V30 50 H 4.069 -3.706 -0.6725 0
M  V30 51 H 1.8199 -4.09 -0.9444 0
M  V30 52 H 1.6641 -2.9369 -2.2728 0
M  V30 53 H -0.209 -0.9968 -1.9333 0
M  V30 54 H 0.1142 -2.9741 0.3732 0
M  V30 55 H -1.4599 -1.1308 0.8553 0
M  V30 56 H -2.3007 -1.4061 -0.6498 0
M  V30 57 H -1.8714 -3.4173 -1.0253 0
M  V30 58 H -0.9086 -3.3296 -2.4953 0
M  V30 59 H -1.1599 1.2458 0.3388 0
M  V30 60 H -1.4783 -5.6548 -1.7316 0
M  V30 61 H 0.2605 -5.4107 -1.8794 0
M  V30 62 H -0.5046 -5.4032 -0.2734 0
M  V30 63 H -1.8278 2.244 -1.5573 0
M  V30 64 H -2.9281 -0.3114 -2.5291 0
M  V30 65 H -2.7636 1.1443 -3.4842 0
M  V30 66 H -2.5136 0.6375 2.3547 0
M  V30 67 H -4.3393 2.3743 -2.1782 0
M  V30 68 H -5.0628 0.775 -2.4294 0
M  V30 69 H -6.4794 1.5768 -0.4678 0
M  V30 70 H -3.338 -0.3055 4.3352 0
M  V30 71 H -4.1183 0.6633 5.59 0
M  V30 72 H -2.9968 1.4632 4.4836 0
M  V30 73 H -8.0477 2.6336 0.8989 0
M  V30 74 H -8.9728 1.7862 2.143 0
M  V30 75 H -8.3344 0.8526 0.7854 0
M  V30 END ATOM
M  V30 BEGIN BOND
M  V30 1 1 1 2
M  V30 2 1 1 3
M  V30 3 2 2 4
M  V30 4 1 2 5
M  V30 5 1 4 6
M  V30 6 1 4 7
M  V30 7 2 5 8
M  V30 8 1 6 9
M  V30 9 2 7 10
M  V30 10 1 8 11
M  V30 11 1 10 12
M  V30 12 1 11 13
M  V30 13 1 11 14
M  V30 14 1 12 15
M  V30 15 1 13 16
M  V30 16 1 14 17
M  V30 17 1 16 18
M  V30 18 1 17 19
M  V30 19 1 18 20
M  V30 20 1 19 21
M  V30 21 1 20 22
M  V30 22 1 21 23
M  V30 23 1 21 24
M  V30 24 1 23 25
M  V30 25 2 24 26
M  V30 26 1 24 27
M  V30 27 1 25 28
M  V30 28 1 26 29
M  V30 29 2 27 30
M  V30 30 2 29 31
M  V30 31 1 30 32
M  V30 32 1 31 33
M  V30 33 1 32 34
M  V30 34 1 33 35
M  V30 35 1 8 10
M  V30 36 1 13 15
M  V30 37 1 17 18
M  V30 38 1 26 28
M  V30 39 1 30 31
M  V30 40 1 3 36
M  V30 41 1 3 37
M  V30 42 1 3 38
M  V30 43 1 5 39
M  V30 44 1 7 40
M  V30 45 1 9 41
M  V30 46 1 9 42
M  V30 47 1 9 43
M  V30 48 1 11 44
M  V30 49 1 12 45
M  V30 50 1 12 46
M  V30 51 1 14 47
M  V30 52 1 14 48
M  V30 53 1 15 49
M  V30 54 1 15 50
M  V30 55 1 16 51
M  V30 56 1 16 52
M  V30 57 1 17 53
M  V30 58 1 18 54
M  V30 59 1 19 55
M  V30 60 1 19 56
M  V30 61 1 20 57
M  V30 62 1 20 58
M  V30 63 1 21 59
M  V30 64 1 22 60
M  V30 65 1 22 61
M  V30 66 1 22 62
M  V30 67 1 23 63
M  V30 68 1 25 64
M  V30 69 1 25 65
M  V30 70 1 27 66
M  V30 71 1 28 67
M  V30 72 1 28 68
M  V30 73 1 29 69
M  V30 74 1 34 70
M  V30 75 1 34 71
M  V30 76 1 34 72
M  V30 77 1 35 73
M  V30 78 1 35 74
M  V30 79 1 35 75
M  V30 END BOND
M  V30 BEGIN COLLECTION
M  V30 MDLV30/STEABS ATOMS=(4 11 17 18 21)
M  V30 END COLLECTION
M  V30 END CTAB
M  END
>  <NO.>
1679

>  <Name>
emetine hydrochloride

>  <SMILES>
CC[C@H]1CN2CCc3cc(OC)c(OC)cc3[C@@H]2C[C@@H]1C[C@H]1NCCc2cc(OC)c(OC)cc21

>  <logBB>


>  <Class>
-1

>  <MW>
480.3

>  <nHBAcc>
6

>  <nHBDon>
1

>  <SLogP>
4.94

>  <TopoPSA>
52.19

>  <MMFF94 Energy>
133.76

$$$$
CC[C@]1(O)C[C@H]2CN(CCc3c([nH]c4ccccc34)[C@@](C(=O)OC)(c3cc4c(cc3OC)N(C)[C@H]3[C@@](O)(C(N)=O)[C@H](O)[C@]5(CC)C=CCN6CC[C@]43[C@@H]65)C2)C1
Actelion Java MolfileCreator 2.0

  0  0  0  0  0  0              0 V3000
M  V30 BEGIN CTAB
M  V30 COUNTS 110 118 0 0 0
M  V30 BEGIN ATOM
M  V30 1 O 0.9665 0.7248 3.4668 0
M  V30 2 C 0.3737 1.3978 2.6271 0
M  V30 3 O 0.6466 2.723 2.4101 0
M  V30 4 C -0.7871 0.8939 1.6765 0 CFG=1
M  V30 5 C 1.716 3.2444 3.1986 0
M  V30 6 C -0.2041 1.0467 0.2406 0
M  V30 7 C -1.1303 -0.6314 1.9776 0
M  V30 8 C -2.04 1.7572 2.1556 0
M  V30 9 C -0.3605 2.1917 -0.5782 0
M  V30 10 C 0.6401 0.0173 -0.246 0
M  V30 11 N -0.6364 -1.2438 3.116 0
M  V30 12 C -1.911 -1.6066 1.3214 0
M  V30 13 C -3.4113 1.2333 1.7233 0 CFG=2
M  V30 14 O -1.1261 3.2339 -0.1251 0
M  V30 15 C 0.2054 2.2586 -1.8641 0
M  V30 16 C 1.2323 0.1214 -1.4974 0
M  V30 17 C -1.0517 -2.5421 3.2259 0
M  V30 18 C -1.8543 -2.8041 2.1251 0
M  V30 19 C -2.7083 -1.5434 0.0274 0
M  V30 20 C -3.5937 1.1999 0.2092 0
M  V30 21 C -4.6433 1.9387 2.3066 0
M  V30 22 C -0.4969 4.5082 -0.2632 0
M  V30 23 C 1.0125 1.2321 -2.3062 0
M  V30 24 C 2.0493 -0.8925 -2.2701 0 CFG=1
M  V30 25 C -0.7726 -3.4936 4.2144 0
M  V30 26 C -2.42 -4.0931 2.0073 0
M  V30 27 C -4.2154 -1.1689 0.2061 0
M  V30 28 N -4.6144 0.2179 -0.1444 0
M  V30 29 C -5.9083 1.1097 1.947 0 CFG=1
M  V30 30 N 1.701 1.1442 -3.5046 0
M  V30 31 C 2.6841 0.043 -3.3667 0 CFG=1
M  V30 32 C 3.0011 -1.8213 -1.4695 0 CFG=1
M  V30 33 C 1.0767 -1.8888 -2.9366 0
M  V30 34 C -1.3421 -4.7613 4.0732 0
M  V30 35 C -2.1566 -5.0598 2.9851 0
M  V30 36 C -5.9068 0.6395 0.442 0
M  V30 37 O -5.9147 -0.0436 2.8055 0
M  V30 38 C -7.2076 1.8969 2.2301 0
M  V30 39 C 1.1418 1.5634 -4.766 0
M  V30 40 C 4.0969 0.6052 -3.0171 0 CFG=1
M  V30 41 N 2.743 -3.1907 -2.0016 0
M  V30 42 C 4.4907 -1.343 -1.3305 0 CFG=2
M  V30 43 C 1.9668 -3.073 -3.2309 0
M  V30 44 C -7.3729 2.3498 3.6768 0
M  V30 45 O 5.0407 0.146 -4.0269 0
M  V30 46 C 4.2037 2.1548 -3.1078 0
M  V30 47 C 4.5819 0.1833 -1.6122 0 CFG=1
M  V30 48 C 3.8849 -4.0794 -2.1376 0
M  V30 49 C 5.4049 -2.1405 -2.2623 0
M  V30 50 C 5.038 -1.665 0.108 0
M  V30 51 O 4.2915 2.9017 -2.134 0
M  V30 52 N 4.288 2.67 -4.3744 0
M  V30 53 O 5.9526 0.6188 -1.4433 0
M  V30 54 C 5.1175 -3.3971 -2.6249 0
M  V30 55 C 4.4629 -0.8386 1.2569 0
M  V30 56 H 1.8605 4.2923 2.9217 0
M  V30 57 H 1.464 3.1985 4.2626 0
M  V30 58 H 2.6441 2.7014 2.9941 0
M  V30 59 H -2.0423 1.7398 3.2572 0
M  V30 60 H -1.9434 2.818 1.9149 0
M  V30 61 H 0.8105 -0.8803 0.3435 0
M  V30 62 H -0.0063 -0.7978 3.7745 0
M  V30 63 H -3.4667 0.2344 2.159 0
M  V30 64 H 0.0373 3.1184 -2.5011 0
M  V30 65 H -2.6818 -2.5479 -0.4182 0
M  V30 66 H -2.2038 -0.9287 -0.7223 0
M  V30 67 H -3.8879 2.191 -0.1641 0
M  V30 68 H -2.688 0.9821 -0.3425 0
M  V30 69 H -4.5306 2.0093 3.3952 0
M  V30 70 H -4.7191 2.9581 1.9092 0
M  V30 71 H 0.575 4.4666 -0.0384 0
M  V30 72 H -0.9638 5.1881 0.4561 0
M  V30 73 H -0.6682 4.9134 -1.2651 0
M  V30 74 H -0.1382 -3.2586 5.0628 0
M  V30 75 H -3.0563 -4.3418 1.1639 0
M  V30 76 H -4.7893 -1.8172 -0.4688 0
M  V30 77 H -4.5374 -1.4416 1.2171 0
M  V30 78 H 2.7559 -0.4979 -4.3193 0
M  V30 79 H 2.6018 -1.8915 -0.4534 0
M  V30 80 H 0.6009 -1.5035 -3.845 0
M  V30 81 H 0.2734 -2.1876 -2.2485 0
M  V30 82 H -1.1457 -5.5226 4.8242 0
M  V30 83 H -2.592 -6.0511 2.891 0
M  V30 84 H -6.2593 1.4775 -0.1745 0
M  V30 85 H -6.6414 -0.1634 0.2998 0
M  V30 86 H -6.6106 -0.6471 2.4964 0
M  V30 87 H -8.0696 1.2631 1.9845 0
M  V30 88 H -7.2601 2.7774 1.5783 0
M  V30 89 H 0.8564 2.6199 -4.7419 0
M  V30 90 H 0.2586 0.9663 -5.0159 0
M  V30 91 H 1.8709 1.4391 -5.573 0
M  V30 92 H 2.6006 -2.8719 -4.1029 0
M  V30 93 H 1.3775 -3.9742 -3.4278 0
M  V30 94 H -8.3412 2.8453 3.8034 0
M  V30 95 H -7.3382 1.5031 4.369 0
M  V30 96 H -6.597 3.0656 3.9635 0
M  V30 97 H 5.9208 0.2996 -3.6249 0
M  V30 98 H 3.99 0.7151 -0.8572 0
M  V30 99 H 4.1028 -4.5405 -1.1666 0
M  V30 100 H 3.6407 -4.9149 -2.8057 0
M  V30 101 H 6.357 -1.7071 -2.5574 0
M  V30 102 H 6.1292 -1.5365 0.1297 0
M  V30 103 H 4.8587 -2.7233 0.3398 0
M  V30 104 H 4.3714 3.6683 -4.4968 0
M  V30 105 H 4.3273 2.0476 -5.1713 0
M  V30 106 H 5.9038 1.5759 -1.2347 0
M  V30 107 H 5.8187 -3.9695 -3.2237 0
M  V30 108 H 4.8447 -1.2203 2.21 0
M  V30 109 H 4.7653 0.2103 1.1884 0
M  V30 110 H 3.3723 -0.8839 1.2988 0
M  V30 END ATOM
M  V30 BEGIN BOND
M  V30 1 2 1 2
M  V30 2 1 2 3
M  V30 3 1 2 4
M  V30 4 1 3 5
M  V30 5 1 4 6
M  V30 6 1 4 7
M  V30 7 1 4 8
M  V30 8 2 6 9
M  V30 9 1 6 10
M  V30 10 1 7 11
M  V30 11 2 7 12
M  V30 12 1 8 13
M  V30 13 1 9 14
M  V30 14 1 9 15
M  V30 15 2 10 16
M  V30 16 1 11 17
M  V30 17 1 12 18
M  V30 18 1 12 19
M  V30 19 1 13 20
M  V30 20 1 13 21
M  V30 21 1 14 22
M  V30 22 2 15 23
M  V30 23 1 16 24
M  V30 24 1 17 25
M  V30 25 1 18 26
M  V30 26 1 19 27
M  V30 27 1 20 28
M  V30 28 1 21 29
M  V30 29 1 23 30
M  V30 30 1 24 31
M  V30 31 1 24 32
M  V30 32 1 24 33
M  V30 33 2 25 34
M  V30 34 2 26 35
M  V30 35 1 28 36
M  V30 36 1 29 37
M  V30 37 1 29 38
M  V30 38 1 30 39
M  V30 39 1 31 40
M  V30 40 1 32 41
M  V30 41 1 32 42
M  V30 42 1 33 43
M  V30 43 1 38 44
M  V30 44 1 40 45
M  V30 45 1 40 46
M  V30 46 1 40 47
M  V30 47 1 41 48
M  V30 48 1 42 49
M  V30 49 1 42 50
M  V30 50 2 46 51
M  V30 51 1 46 52
M  V30 52 1 47 53
M  V30 53 1 48 54
M  V30 54 1 50 55
M  V30 55 1 16 23
M  V30 56 2 17 18
M  V30 57 1 27 28
M  V30 58 1 29 36
M  V30 59 1 30 31
M  V30 60 1 34 35
M  V30 61 1 41 43
M  V30 62 1 42 47
M  V30 63 2 49 54
M  V30 64 1 5 56
M  V30 65 1 5 57
M  V30 66 1 5 58
M  V30 67 1 8 59
M  V30 68 1 8 60
M  V30 69 1 10 61
M  V30 70 1 11 62
M  V30 71 1 13 63
M  V30 72 1 15 64
M  V30 73 1 19 65
M  V30 74 1 19 66
M  V30 75 1 20 67
M  V30 76 1 20 68
M  V30 77 1 21 69
M  V30 78 1 21 70
M  V30 79 1 22 71
M  V30 80 1 22 72
M  V30 81 1 22 73
M  V30 82 1 25 74
M  V30 83 1 26 75
M  V30 84 1 27 76
M  V30 85 1 27 77
M  V30 86 1 31 78
M  V30 87 1 32 79
M  V30 88 1 33 80
M  V30 89 1 33 81
M  V30 90 1 34 82
M  V30 91 1 35 83
M  V30 92 1 36 84
M  V30 93 1 36 85
M  V30 94 1 37 86
M  V30 95 1 38 87
M  V30 96 1 38 88
M  V30 97 1 39 89
M  V30 98 1 39 90
M  V30 99 1 39 91
M  V30 100 1 43 92
M  V30 101 1 43 93
M  V30 102 1 44 94
M  V30 103 1 44 95
M  V30 104 1 44 96
M  V30 105 1 45 97
M  V30 106 1 47 98
M  V30 107 1 48 99
M  V30 108 1 48 100
M  V30 109 1 49 101
M  V30 110 1 50 102
M  V30 111 1 50 103
M  V30 112 1 52 104
M  V30 113 1 52 105
M  V30 114 1 53 106
M  V30 115 1 54 107
M  V30 116 1 55 108
M  V30 117 1 55 109
M  V30 118 1 55 110
M  V30 END BOND
M  V30 BEGIN COLLECTION
M  V30 MDLV30/STEABS ATOMS=(9 4 13 24 29 31 32 40 42 47)
M  V30 END COLLECTION
M  V30 END CTAB
M  END
>  <NO.>
1688

>  <Name>
vindesine

>  <SMILES>
CC[C@]1(O)C[C@H]2CN(CCc3c([nH]c4ccccc34)[C@@](C(=O)OC)(c3cc4c(cc3OC)N(C)[C@H]3[C@@](O)(C(N)=O)[C@H](O)[C@]5(CC)C=CCN6CC[C@]43[C@@H]65)C2)C1

>  <logBB>


>  <Class>
-1

>  <MW>
753.41

>  <nHBAcc>
10

>  <nHBDon>
5

>  <SLogP>
2.73

>  <TopoPSA>
164.82

>  <MMFF94 Energy>
317.23

$$$$
CC[N+](C)(C)Cc1ccccc1Br
Actelion Java MolfileCreator 2.0

  0  0  0  0  0  0              0 V3000
M  V30 BEGIN CTAB
M  V30 COUNTS 30 30 0 0 0
M  V30 BEGIN ATOM
M  V30 1 Br 0.0793 -0.7932 3.176 0
M  V30 2 C 0.3034 0.8371 2.2259 0
M  V30 3 C -0.179 1.0349 0.9189 0
M  V30 4 C 0.9549 1.8695 2.912 0
M  V30 5 C -0.025 2.3172 0.3503 0
M  V30 6 C -0.8821 -0.0336 0.1114 0
M  V30 7 C 1.1202 3.1175 2.3165 0
M  V30 8 C 0.6234 3.3441 1.0389 0
M  V30 9 N -0.0309 -0.8685 -0.8852 0 CHG=1
M  V30 10 C -0.9533 -1.7128 -1.7924 0
M  V30 11 C 0.7767 0.0474 -1.8087 0
M  V30 12 C 0.9556 -1.7652 -0.1471 0
M  V30 13 C -1.8256 -2.7073 -1.0426 0
M  V30 14 H 1.328 1.7186 3.9239 0
M  V30 15 H -0.4224 2.5427 -0.6383 0
M  V30 16 H -1.3951 -0.7411 0.7683 0
M  V30 17 H -1.6683 0.4415 -0.4905 0
M  V30 18 H 1.6198 3.9181 2.8588 0
M  V30 19 H 0.732 4.3274 0.5842 0
M  V30 20 H -1.5791 -1.0104 -2.3554 0
M  V30 21 H -0.3077 -2.2453 -2.5007 0
M  V30 22 H 0.0864 0.7364 -2.3037 0
M  V30 23 H 1.2863 -0.5742 -2.5518 0
M  V30 24 H 1.5218 0.5876 -1.219 0
M  V30 25 H 1.463 -2.3969 -0.8826 0
M  V30 26 H 1.688 -1.1371 0.367 0
M  V30 27 H 0.4106 -2.3836 0.568 0
M  V30 28 H -1.2358 -3.4278 -0.4703 0
M  V30 29 H -2.4214 -3.2794 -1.7621 0
M  V30 30 H -2.5305 -2.2137 -0.3684 0
M  V30 END ATOM
M  V30 BEGIN BOND
M  V30 1 1 1 2
M  V30 2 2 2 3
M  V30 3 1 2 4
M  V30 4 1 3 5
M  V30 5 1 3 6
M  V30 6 2 4 7
M  V30 7 2 5 8
M  V30 8 1 6 9
M  V30 9 1 9 10
M  V30 10 1 9 11
M  V30 11 1 9 12
M  V30 12 1 10 13
M  V30 13 1 7 8
M  V30 14 1 4 14
M  V30 15 1 5 15
M  V30 16 1 6 16
M  V30 17 1 6 17
M  V30 18 1 7 18
M  V30 19 1 8 19
M  V30 20 1 10 20
M  V30 21 1 10 21
M  V30 22 1 11 22
M  V30 23 1 11 23
M  V30 24 1 11 24
M  V30 25 1 12 25
M  V30 26 1 12 26
M  V30 27 1 12 27
M  V30 28 1 13 28
M  V30 29 1 13 29
M  V30 30 1 13 30
M  V30 END BOND
M  V30 END CTAB
M  END
>  <NO.>
1690

>  <Name>
bretylium

>  <SMILES>
CC[N+](C)(C)Cc1ccccc1Br

>  <logBB>


>  <Class>
-1

>  <MW>
242.05

>  <nHBAcc>
0

>  <nHBDon>
0

>  <SLogP>
3.05

>  <TopoPSA>
0

>  <MMFF94 Energy>
28.399

$$$$
CC[N+](C)(CC)CCOC(=O)C1c2ccccc2Oc2ccccc21
Actelion Java MolfileCreator 2.0

  0  0  0  0  0  0              0 V3000
M  V30 BEGIN CTAB
M  V30 COUNTS 51 53 0 0 0
M  V30 BEGIN ATOM
M  V30 1 O -3.2562 -1.2697 -0.7934 0
M  V30 2 C -2.4441 -0.4097 -0.4733 0
M  V30 3 O -1.3426 -0.6619 0.3 0
M  V30 4 C -2.5022 1.0438 -0.9348 0
M  V30 5 C -1.2241 -2.0245 0.7172 0
M  V30 6 C -2.4289 1.9959 0.2359 0
M  V30 7 C -1.4232 1.3077 -1.9599 0
M  V30 8 C 0.069 -2.2419 1.5164 0
M  V30 9 C -1.2966 2.7938 0.4178 0
M  V30 10 C -3.4793 2.0767 1.1645 0
M  V30 11 C -0.3529 2.1489 -1.6468 0
M  V30 12 C -1.4655 0.6966 -3.2235 0
M  V30 13 N 1.4131 -2.1243 0.7134 0 CHG=1
M  V30 14 O -0.2248 2.7934 -0.441 0
M  V30 15 C -1.2026 3.647 1.5188 0
M  V30 16 C -3.3861 2.9353 2.2606 0
M  V30 17 C 0.67 2.366 -2.5719 0
M  V30 18 C -0.445 0.9191 -4.1488 0
M  V30 19 C 1.6343 -0.7108 0.1295 0
M  V30 20 C 2.5345 -2.5348 1.706 0
M  V30 21 C 1.3914 -3.1156 -0.457 0
M  V30 22 C -2.2472 3.7179 2.4396 0
M  V30 23 C 0.6237 1.7516 -3.8225 0
M  V30 24 C 1.6864 0.3862 1.1794 0
M  V30 25 C 3.9471 -2.394 1.1607 0
M  V30 26 H -3.4731 1.2059 -1.4231 0
M  V30 27 H -1.2768 -2.6982 -0.1435 0
M  V30 28 H -2.0694 -2.2525 1.3784 0
M  V30 29 H 0.1354 -1.5279 2.3434 0
M  V30 30 H 0.0584 -3.2553 1.9352 0
M  V30 31 H -4.3808 1.4789 1.0387 0
M  V30 32 H -2.299 0.0517 -3.5003 0
M  V30 33 H -0.3225 4.2711 1.6525 0
M  V30 34 H -4.2066 3.0017 2.9723 0
M  V30 35 H 1.4929 3.0337 -2.3278 0
M  V30 36 H -0.4918 0.4561 -5.1325 0
M  V30 37 H 0.8435 -0.5254 -0.6005 0
M  V30 38 H 2.5729 -0.7377 -0.4343 0
M  V30 39 H 2.3451 -3.5793 1.9808 0
M  V30 40 H 2.4139 -1.9234 2.6069 0
M  V30 41 H 2.3557 -3.0841 -0.9688 0
M  V30 42 H 0.612 -2.8152 -1.1614 0
M  V30 43 H 1.1949 -4.1157 -0.0609 0
M  V30 44 H -2.1794 4.3939 3.2891 0
M  V30 45 H 1.4093 1.9395 -4.5511 0
M  V30 46 H 0.7352 0.5027 1.7048 0
M  V30 47 H 2.473 0.2181 1.9192 0
M  V30 48 H 1.9066 1.3427 0.6943 0
M  V30 49 H 4.1133 -3.001 0.2676 0
M  V30 50 H 4.6608 -2.7371 1.9178 0
M  V30 51 H 4.2025 -1.3558 0.9332 0
M  V30 END ATOM
M  V30 BEGIN BOND
M  V30 1 2 1 2
M  V30 2 1 2 3
M  V30 3 1 2 4
M  V30 4 1 3 5
M  V30 5 1 4 6
M  V30 6 1 4 7
M  V30 7 1 5 8
M  V30 8 2 6 9
M  V30 9 1 6 10
M  V30 10 2 7 11
M  V30 11 1 7 12
M  V30 12 1 8 13
M  V30 13 1 9 14
M  V30 14 1 9 15
M  V30 15 2 10 16
M  V30 16 1 11 17
M  V30 17 2 12 18
M  V30 18 1 13 19
M  V30 19 1 13 20
M  V30 20 1 13 21
M  V30 21 2 15 22
M  V30 22 2 17 23
M  V30 23 1 19 24
M  V30 24 1 20 25
M  V30 25 1 11 14
M  V30 26 1 16 22
M  V30 27 1 18 23
M  V30 28 1 4 26
M  V30 29 1 5 27
M  V30 30 1 5 28
M  V30 31 1 8 29
M  V30 32 1 8 30
M  V30 33 1 10 31
M  V30 34 1 12 32
M  V30 35 1 15 33
M  V30 36 1 16 34
M  V30 37 1 17 35
M  V30 38 1 18 36
M  V30 39 1 19 37
M  V30 40 1 19 38
M  V30 41 1 20 39
M  V30 42 1 20 40
M  V30 43 1 21 41
M  V30 44 1 21 42
M  V30 45 1 21 43
M  V30 46 1 22 44
M  V30 47 1 23 45
M  V30 48 1 24 46
M  V30 49 1 24 47
M  V30 50 1 24 48
M  V30 51 1 25 49
M  V30 52 1 25 50
M  V30 53 1 25 51
M  V30 END BOND
M  V30 END CTAB
M  END
>  <NO.>
1691

>  <Name>
methantheline

>  <SMILES>
CC[N+](C)(CC)CCOC(=O)C1c2ccccc2Oc2ccccc21

>  <logBB>


>  <Class>
-1

>  <MW>
340.19

>  <nHBAcc>
3

>  <nHBDon>
0

>  <SLogP>
3.95

>  <TopoPSA>
35.53

>  <MMFF94 Energy>
96.899

$$$$
CCc1c(C)[n+]([NH-])c(-c2ccc(OC)c(OC)c2)c2cc(OC)c(OC)cc12
Actelion Java MolfileCreator 2.0

  0  0  0  0  0  0              0 V3000
M  V30 BEGIN CTAB
M  V30 COUNTS 54 56 0 0 0
M  V30 BEGIN ATOM
M  V30 1 O 2.1382 -3.3277 1.2666 0
M  V30 2 C 1.2341 -2.3221 1.4953 0
M  V30 3 C 2.647 -3.4751 -0.0519 0
M  V30 4 C 0.6484 -2.2888 2.7629 0
M  V30 5 C 0.8814 -1.3449 0.5626 0
M  V30 6 O 1.0444 -3.2679 3.6382 0
M  V30 7 C -0.2836 -1.2862 3.0567 0
M  V30 8 C -0.0606 -0.3206 0.8477 0
M  V30 9 C 0.4641 -3.2827 4.9338 0
M  V30 10 C -0.6643 -0.2884 2.1183 0
M  V30 11 C -0.4096 0.6684 -0.1052 0
M  V30 12 C -1.6169 0.7325 2.3954 0
M  V30 13 N -1.3021 1.6498 0.201 0 CHG=1
M  V30 14 C 0.1744 0.7088 -1.4585 0
M  V30 15 C -1.9096 1.7195 1.4151 0
M  V30 16 C -2.3213 0.7893 3.7452 0
M  V30 17 N -1.6573 2.6719 -0.8568 0 CHG=-1
M  V30 18 C -0.3779 -0.0479 -2.5007 0
M  V30 19 C 1.3238 1.4712 -1.7261 0
M  V30 20 C -2.9283 2.8012 1.686 0
M  V30 21 C -1.5003 1.5272 4.7944 0
M  V30 22 C 0.2006 -0.0282 -3.7721 0
M  V30 23 C 1.9135 1.4722 -2.9971 0
M  V30 24 O -0.3789 -0.8196 -4.734 0
M  V30 25 C 1.3632 0.7126 -4.0315 0
M  V30 26 C -1.1968 -0.0218 -5.5908 0
M  V30 27 O 1.8739 0.6231 -5.299 0
M  V30 28 C 3.0475 1.371 -5.5845 0
M  V30 29 H 1.8399 -3.6377 -0.7738 0
M  V30 30 H 3.2882 -4.3616 -0.0653 0
M  V30 31 H 3.2639 -2.6153 -0.3327 0
M  V30 32 H 1.3464 -1.3627 -0.4189 0
M  V30 33 H -0.7259 -1.2701 4.0457 0
M  V30 34 H 0.7103 -2.3705 5.4871 0
M  V30 35 H 0.8905 -4.1282 5.482 0
M  V30 36 H -0.6189 -3.4341 4.8802 0
M  V30 37 H -2.5618 -0.2217 4.0925 0
M  V30 38 H -3.3041 1.264 3.6545 0
M  V30 39 H -1.3999 3.608 -0.52 0
M  V30 40 H -1.2691 -0.6469 -2.3301 0
M  V30 41 H 1.764 2.0783 -0.9368 0
M  V30 42 H -2.7408 3.2704 2.6569 0
M  V30 43 H -2.9215 3.6187 0.9638 0
M  V30 44 H -3.9335 2.3677 1.6825 0
M  V30 45 H -2.0427 1.5555 5.7449 0
M  V30 46 H -1.2981 2.5592 4.49 0
M  V30 47 H -0.5368 1.0394 4.9717 0
M  V30 48 H 2.8011 2.0788 -3.1408 0
M  V30 49 H -1.9538 0.5282 -5.0202 0
M  V30 50 H -1.7175 -0.6966 -6.2768 0
M  V30 51 H -0.5967 0.6695 -6.191 0
M  V30 52 H 2.8688 2.4454 -5.4707 0
M  V30 53 H 3.3145 1.1879 -6.6297 0
M  V30 54 H 3.8872 1.0408 -4.9643 0
M  V30 END ATOM
M  V30 BEGIN BOND
M  V30 1 1 1 2
M  V30 2 1 1 3
M  V30 3 1 2 4
M  V30 4 2 2 5
M  V30 5 1 4 6
M  V30 6 2 4 7
M  V30 7 1 5 8
M  V30 8 1 6 9
M  V30 9 1 7 10
M  V30 10 2 8 11
M  V30 11 2 10 12
M  V30 12 1 11 13
M  V30 13 1 11 14
M  V30 14 1 12 15
M  V30 15 1 12 16
M  V30 16 1 13 17
M  V30 17 2 14 18
M  V30 18 1 14 19
M  V30 19 1 15 20
M  V30 20 1 16 21
M  V30 21 1 18 22
M  V30 22 2 19 23
M  V30 23 1 22 24
M  V30 24 2 22 25
M  V30 25 1 24 26
M  V30 26 1 25 27
M  V30 27 1 27 28
M  V30 28 1 8 10
M  V30 29 2 13 15
M  V30 30 1 23 25
M  V30 31 1 3 29
M  V30 32 1 3 30
M  V30 33 1 3 31
M  V30 34 1 5 32
M  V30 35 1 7 33
M  V30 36 1 9 34
M  V30 37 1 9 35
M  V30 38 1 9 36
M  V30 39 1 16 37
M  V30 40 1 16 38
M  V30 41 1 17 39
M  V30 42 1 18 40
M  V30 43 1 19 41
M  V30 44 1 20 42
M  V30 45 1 20 43
M  V30 46 1 20 44
M  V30 47 1 21 45
M  V30 48 1 21 46
M  V30 49 1 21 47
M  V30 50 1 23 48
M  V30 51 1 26 49
M  V30 52 1 26 50
M  V30 53 1 26 51
M  V30 54 1 28 52
M  V30 55 1 28 53
M  V30 56 1 28 54
M  V30 END BOND
M  V30 END CTAB
M  END
>  <NO.>
1692

>  <Name>
tofisoline

>  <SMILES>
CCc1c(C)[n+]([NH-])c(-c2ccc(OC)c(OC)c2)c2cc(OC)c(OC)cc12

>  <logBB>


>  <Class>
1

>  <MW>
382.19

>  <nHBAcc>
4

>  <nHBDon>
0

>  <SLogP>
4.51

>  <TopoPSA>
64.6

>  <MMFF94 Energy>
139.5

$$$$
CCc1c(C)[nH]c2c1C(=O)C(CN1CCOCC1)CC2
Actelion Java MolfileCreator 2.0

  0  0  0  0  0  0              0 V3000
M  V30 BEGIN CTAB
M  V30 COUNTS 44 46 0 0 0
M  V30 BEGIN ATOM
M  V30 1 O 0.0793 0.4761 2.0645 0
M  V30 2 C 0.195 0.6227 0.8495 0
M  V30 3 C 0.2715 1.9472 0.2334 0
M  V30 4 C 0.3432 -0.5767 -0.109 0 CFG=2
M  V30 5 C 0.3537 2.0899 -1.1367 0
M  V30 6 C 0.2688 3.2602 0.794 0
M  V30 7 C -0.2498 -0.2616 -1.5055 0
M  V30 8 C -0.3234 -1.8124 0.5265 0
M  V30 9 N 0.4095 3.4204 -1.4358 0
M  V30 10 C 0.3748 0.9923 -2.1358 0
M  V30 11 C 0.3525 4.1494 -0.2718 0
M  V30 12 C 0.1897 3.6132 2.2478 0
M  V30 13 N -0.2624 -3.0305 -0.3073 0
M  V30 14 C 0.3858 5.6357 -0.2871 0
M  V30 15 C -1.244 3.6692 2.7526 0
M  V30 16 C 1.1125 -3.5711 -0.3985 0
M  V30 17 C -1.1375 -4.0798 0.2665 0
M  V30 18 C 1.1456 -4.8907 -1.188 0
M  V30 19 C -1.0553 -5.3845 -0.5406 0
M  V30 20 O 0.29 -5.8754 -0.5951 0
M  V30 21 H 1.4228 -0.7464 -0.2097 0
M  V30 22 H -0.1015 -1.1049 -2.1893 0
M  V30 23 H -1.3341 -0.1114 -1.4109 0
M  V30 24 H -1.3783 -1.5619 0.7072 0
M  V30 25 H 0.1148 -2.012 1.5138 0
M  V30 26 H 0.4735 3.8129 -2.3668 0
M  V30 27 H 1.4106 0.7856 -2.4287 0
M  V30 28 H -0.1808 1.2702 -3.038 0
M  V30 29 H 0.667 4.5858 2.4183 0
M  V30 30 H 0.7605 2.8887 2.8395 0
M  V30 31 H -0.4327 6.0433 0.3147 0
M  V30 32 H 1.3324 5.9971 0.1267 0
M  V30 33 H 0.2848 6.0313 -1.3029 0
M  V30 34 H -1.2622 3.9328 3.8149 0
M  V30 35 H -1.7465 2.7035 2.6336 0
M  V30 36 H -1.8262 4.4189 2.2062 0
M  V30 37 H 1.7713 -2.858 -0.9041 0
M  V30 38 H 1.5117 -3.7499 0.6083 0
M  V30 39 H -0.8433 -4.2846 1.3044 0
M  V30 40 H -2.1783 -3.7363 0.2699 0
M  V30 41 H 2.1629 -5.2949 -1.1888 0
M  V30 42 H 0.8491 -4.7354 -2.2325 0
M  V30 43 H -1.6688 -6.1549 -0.0624 0
M  V30 44 H -1.4319 -5.2454 -1.5612 0
M  V30 END ATOM
M  V30 BEGIN BOND
M  V30 1 2 1 2
M  V30 2 1 2 3
M  V30 3 1 2 4
M  V30 4 2 3 5
M  V30 5 1 3 6
M  V30 6 1 4 7
M  V30 7 1 4 8
M  V30 8 1 5 9
M  V30 9 1 5 10
M  V30 10 2 6 11
M  V30 11 1 6 12
M  V30 12 1 8 13
M  V30 13 1 11 14
M  V30 14 1 12 15
M  V30 15 1 13 16
M  V30 16 1 13 17
M  V30 17 1 16 18
M  V30 18 1 17 19
M  V30 19 1 18 20
M  V30 20 1 7 10
M  V30 21 1 9 11
M  V30 22 1 19 20
M  V30 23 1 4 21
M  V30 24 1 7 22
M  V30 25 1 7 23
M  V30 26 1 8 24
M  V30 27 1 8 25
M  V30 28 1 9 26
M  V30 29 1 10 27
M  V30 30 1 10 28
M  V30 31 1 12 29
M  V30 32 1 12 30
M  V30 33 1 14 31
M  V30 34 1 14 32
M  V30 35 1 14 33
M  V30 36 1 15 34
M  V30 37 1 15 35
M  V30 38 1 15 36
M  V30 39 1 16 37
M  V30 40 1 16 38
M  V30 41 1 17 39
M  V30 42 1 17 40
M  V30 43 1 18 41
M  V30 44 1 18 42
M  V30 45 1 19 43
M  V30 46 1 19 44
M  V30 END BOND
M  V30 BEGIN COLLECTION
M  V30 MDLV30/STERAC1 ATOMS=(1 4)
M  V30 END COLLECTION
M  V30 END CTAB
M  END
>  <NO.>
1693

>  <Name>
molindone

>  <SMILES>
CCc1c(C)[nH]c2c1C(=O)C(CN1CCOCC1)CC2

>  <logBB>


>  <Class>
1

>  <MW>
276.18

>  <nHBAcc>
3

>  <nHBDon>
1

>  <SLogP>
1.96

>  <TopoPSA>
45.33

>  <MMFF94 Energy>
88.876

$$$$
CCc1c(C)[nH]c2c1C(=O)[C@@H]1CN(C)CC[C@H]1C2
Actelion Java MolfileCreator 2.0

  0  0  0  0  0  0              0 V3000
M  V30 BEGIN CTAB
M  V30 COUNTS 40 42 0 0 0
M  V30 BEGIN ATOM
M  V30 1 O 0.5553 0.7933 1.9843 0
M  V30 2 C 0.3372 0.3581 0.8562 0
M  V30 3 C 0.2376 -1.0755 0.5763 0
M  V30 4 C 0.2163 1.2752 -0.3718 0 CFG=1
M  V30 5 C -0.0943 -1.5312 -0.6853 0
M  V30 6 C 0.417 -2.2233 1.4053 0
M  V30 7 C -0.8087 0.7128 -1.3896 0 CFG=2
M  V30 8 C -0.1726 2.6956 0.049 0
M  V30 9 N -0.1058 -2.8959 -0.6671 0
M  V30 10 C -0.3976 -0.6921 -1.8772 0
M  V30 11 C 0.2037 -3.3354 0.5981 0
M  V30 12 C 0.7737 -2.2292 2.8604 0
M  V30 13 C -0.9778 1.6859 -2.5586 0
M  V30 14 N -0.304 3.5808 -1.1238 0
M  V30 15 C 0.2637 -4.7857 0.9202 0
M  V30 16 C 2.2728 -2.1124 3.0894 0
M  V30 17 C -1.3247 3.0894 -2.0577 0
M  V30 18 C -0.6163 4.9455 -0.6955 0
M  V30 19 H 1.2124 1.3037 -0.8372 0
M  V30 20 H -1.7804 0.6202 -0.8797 0
M  V30 21 H -1.1055 2.6774 0.6295 0
M  V30 22 H 0.6065 3.0926 0.7127 0
M  V30 23 H -0.3133 -3.4939 -1.4571 0
M  V30 24 H -1.2065 -1.136 -2.4686 0
M  V30 25 H 0.4925 -0.6341 -2.5149 0
M  V30 26 H 0.4119 -3.154 3.326 0
M  V30 27 H 0.2576 -1.4103 3.3743 0
M  V30 28 H -0.0546 1.7264 -3.1512 0
M  V30 29 H -1.7708 1.332 -3.2281 0
M  V30 30 H 0.2128 -5.4021 0.0169 0
M  V30 31 H 1.1984 -5.0245 1.4376 0
M  V30 32 H -0.572 -5.0636 1.5701 0
M  V30 33 H 2.4949 -2.1257 4.1611 0
M  V30 34 H 2.6682 -1.1803 2.672 0
M  V30 35 H 2.8099 -2.9437 2.6202 0
M  V30 36 H -2.316 3.0789 -1.5853 0
M  V30 37 H -1.385 3.7559 -2.9268 0
M  V30 38 H 0.1718 5.3335 -0.0407 0
M  V30 39 H -0.6647 5.6181 -1.5593 0
M  V30 40 H -1.5706 5.003 -0.1593 0
M  V30 END ATOM
M  V30 BEGIN BOND
M  V30 1 2 1 2
M  V30 2 1 2 3
M  V30 3 1 2 4
M  V30 4 2 3 5
M  V30 5 1 3 6
M  V30 6 1 4 7
M  V30 7 1 4 8
M  V30 8 1 5 9
M  V30 9 1 5 10
M  V30 10 2 6 11
M  V30 11 1 6 12
M  V30 12 1 7 13
M  V30 13 1 8 14
M  V30 14 1 11 15
M  V30 15 1 12 16
M  V30 16 1 13 17
M  V30 17 1 14 18
M  V30 18 1 7 10
M  V30 19 1 9 11
M  V30 20 1 14 17
M  V30 21 1 4 19
M  V30 22 1 7 20
M  V30 23 1 8 21
M  V30 24 1 8 22
M  V30 25 1 9 23
M  V30 26 1 10 24
M  V30 27 1 10 25
M  V30 28 1 12 26
M  V30 29 1 12 27
M  V30 30 1 13 28
M  V30 31 1 13 29
M  V30 32 1 15 30
M  V30 33 1 15 31
M  V30 34 1 15 32
M  V30 35 1 16 33
M  V30 36 1 16 34
M  V30 37 1 16 35
M  V30 38 1 17 36
M  V30 39 1 17 37
M  V30 40 1 18 38
M  V30 41 1 18 39
M  V30 42 1 18 40
M  V30 END BOND
M  V30 BEGIN COLLECTION
M  V30 MDLV30/STEABS ATOMS=(2 4 7)
M  V30 END COLLECTION
M  V30 END CTAB
M  END
>  <NO.>
1694

>  <Name>
piquindone

>  <SMILES>
CCc1c(C)[nH]c2c1C(=O)[C@@H]1CN(C)CC[C@H]1C2

>  <logBB>


>  <Class>
1

>  <MW>
246.17

>  <nHBAcc>
2

>  <nHBDon>
1

>  <SLogP>
2.19

>  <TopoPSA>
36.1

>  <MMFF94 Energy>
36.426

$$$$
CCc1c(O)c(=O)ccn1CC
Actelion Java MolfileCreator 2.0

  0  0  0  0  0  0              0 V3000
M  V30 BEGIN CTAB
M  V30 COUNTS 25 25 0 0 0
M  V30 BEGIN ATOM
M  V30 1 O 1.8746 -0.6245 3.3607 0
M  V30 2 C 1.201 -0.683 2.3346 0
M  V30 3 C 1.1175 0.4999 1.4292 0
M  V30 4 C 0.46 -1.8968 1.9567 0
M  V30 5 O 1.8295 1.6269 1.8 0
M  V30 6 C 0.3774 0.4197 0.2998 0
M  V30 7 C -0.2433 -1.8571 0.8219 0
M  V30 8 N -0.3317 -0.7628 -0.0372 0
M  V30 9 C 0.3061 1.6371 -0.6086 0
M  V30 10 C -1.1991 -0.8718 -1.229 0
M  V30 11 C 1.3669 1.5998 -1.7014 0
M  V30 12 C -2.6339 -0.4969 -0.8861 0
M  V30 13 H 0.5119 -2.757 2.607 0
M  V30 14 H 2.2616 1.3767 2.6442 0
M  V30 15 H -0.8124 -2.7282 0.5068 0
M  V30 16 H -0.6887 1.738 -1.0539 0
M  V30 17 H 0.4373 2.5596 -0.0287 0
M  V30 18 H -1.1783 -1.9 -1.6125 0
M  V30 19 H -0.8358 -0.2516 -2.0536 0
M  V30 20 H 1.272 0.7097 -2.3306 0
M  V30 21 H 1.2733 2.4799 -2.3457 0
M  V30 22 H 2.3747 1.6042 -1.2727 0
M  V30 23 H -2.7006 0.5276 -0.5069 0
M  V30 24 H -3.0435 -1.1626 -0.1192 0
M  V30 25 H -3.2678 -0.5737 -1.7749 0
M  V30 END ATOM
M  V30 BEGIN BOND
M  V30 1 2 1 2
M  V30 2 1 2 3
M  V30 3 1 2 4
M  V30 4 1 3 5
M  V30 5 2 3 6
M  V30 6 2 4 7
M  V30 7 1 6 8
M  V30 8 1 6 9
M  V30 9 1 8 10
M  V30 10 1 9 11
M  V30 11 1 10 12
M  V30 12 1 7 8
M  V30 13 1 4 13
M  V30 14 1 5 14
M  V30 15 1 7 15
M  V30 16 1 9 16
M  V30 17 1 9 17
M  V30 18 1 10 18
M  V30 19 1 10 19
M  V30 20 1 11 20
M  V30 21 1 11 21
M  V30 22 1 11 22
M  V30 23 1 12 23
M  V30 24 1 12 24
M  V30 25 1 12 25
M  V30 END BOND
M  V30 END CTAB
M  END
>  <NO.>
1695

>  <Name>
cp94

>  <SMILES>
CCc1c(O)c(=O)ccn1CC

>  <logBB>


>  <Class>
1

>  <MW>
167.09

>  <nHBAcc>
2

>  <nHBDon>
1

>  <SLogP>
1.14

>  <TopoPSA>
42.23

>  <MMFF94 Energy>
35.287

$$$$
CCc1c(O)c(=O)ccn1CCCCO
Actelion Java MolfileCreator 2.0

  0  0  0  0  0  0              0 V3000
M  V30 BEGIN CTAB
M  V30 COUNTS 32 32 0 0 0
M  V30 BEGIN ATOM
M  V30 1 O -0.9373 -4.3016 -0.1561 0
M  V30 2 C -0.5948 -3.1421 -0.3773 0
M  V30 3 C 0.38 -2.4683 0.5289 0
M  V30 4 C -1.108 -2.3827 -1.5271 0
M  V30 5 O 0.8726 -3.2152 1.5849 0
M  V30 6 C 0.7494 -1.1911 0.2772 0
M  V30 7 C -0.6776 -1.1268 -1.6721 0
M  V30 8 N 0.2138 -0.4694 -0.8232 0
M  V30 9 C 1.7545 -0.5347 1.2101 0
M  V30 10 C 0.5479 0.9432 -1.1172 0
M  V30 11 C 3.1777 -0.6242 0.6734 0
M  V30 12 C -0.6247 1.8932 -0.8419 0
M  V30 13 C -1.0359 1.9468 0.6325 0
M  V30 14 C -2.1357 2.9717 0.8861 0
M  V30 15 O -3.294 2.6402 0.1349 0
M  V30 16 H -1.8046 -2.8644 -2.1966 0
M  V30 17 H 0.4263 -4.0844 1.4975 0
M  V30 18 H -1.033 -0.5275 -2.5068 0
M  V30 19 H 1.4867 0.5078 1.4043 0
M  V30 20 H 1.7313 -1.0049 2.2014 0
M  V30 21 H 1.4316 1.2897 -0.575 0
M  V30 22 H 0.8189 1.0217 -2.1786 0
M  V30 23 H 3.2755 -0.1442 -0.3051 0
M  V30 24 H 3.8704 -0.1296 1.362 0
M  V30 25 H 3.4944 -1.6676 0.5709 0
M  V30 26 H -1.487 1.6093 -1.4562 0
M  V30 27 H -0.3305 2.8993 -1.1662 0
M  V30 28 H -0.169 2.1993 1.2524 0
M  V30 29 H -1.3959 0.9592 0.9429 0
M  V30 30 H -2.401 2.9801 1.9481 0
M  V30 31 H -1.8074 3.9758 0.5989 0
M  V30 32 H -3.9866 3.2771 0.381 0
M  V30 END ATOM
M  V30 BEGIN BOND
M  V30 1 2 1 2
M  V30 2 1 2 3
M  V30 3 1 2 4
M  V30 4 1 3 5
M  V30 5 2 3 6
M  V30 6 2 4 7
M  V30 7 1 6 8
M  V30 8 1 6 9
M  V30 9 1 8 10
M  V30 10 1 9 11
M  V30 11 1 10 12
M  V30 12 1 12 13
M  V30 13 1 13 14
M  V30 14 1 14 15
M  V30 15 1 7 8
M  V30 16 1 4 16
M  V30 17 1 5 17
M  V30 18 1 7 18
M  V30 19 1 9 19
M  V30 20 1 9 20
M  V30 21 1 10 21
M  V30 22 1 10 22
M  V30 23 1 11 23
M  V30 24 1 11 24
M  V30 25 1 11 25
M  V30 26 1 12 26
M  V30 27 1 12 27
M  V30 28 1 13 28
M  V30 29 1 13 29
M  V30 30 1 14 30
M  V30 31 1 14 31
M  V30 32 1 15 32
M  V30 END BOND
M  V30 END CTAB
M  END
>  <NO.>
1696

>  <Name>
cp-107

>  <SMILES>
CCc1c(O)c(=O)ccn1CCCCO

>  <logBB>


>  <Class>
-1

>  <MW>
211.12

>  <nHBAcc>
3

>  <nHBDon>
2

>  <SLogP>
0.89

>  <TopoPSA>
62.46

>  <MMFF94 Energy>
36.572

$$$$
CCc1c(O)c(=O)ccn1CCO
Actelion Java MolfileCreator 2.0

  0  0  0  0  0  0              0 V3000
M  V30 BEGIN CTAB
M  V30 COUNTS 26 26 0 0 0
M  V30 BEGIN ATOM
M  V30 1 O 0.0782 -3.9186 -1.0176 0
M  V30 2 C 0.1988 -2.8336 -0.4531 0
M  V30 3 C -0.777 -1.7385 -0.7231 0
M  V30 4 C 1.297 -2.563 0.4871 0
M  V30 5 O -1.7825 -2.0055 -1.6362 0
M  V30 6 C -0.6351 -0.549 -0.0925 0
M  V30 7 C 1.3279 -1.3584 1.0635 0
M  V30 8 N 0.4063 -0.3328 0.8498 0
M  V30 9 C -1.6326 0.5531 -0.4172 0
M  V30 10 C 0.547 0.9164 1.6449 0
M  V30 11 C -1.2928 1.2744 -1.7171 0
M  V30 12 C 1.3147 2.0034 0.8823 0
M  V30 13 O 0.4318 3.0313 0.4359 0
M  V30 14 H 2.0191 -3.3435 0.6753 0
M  V30 15 H -1.6218 -2.932 -1.9146 0
M  V30 16 H 2.1185 -1.1228 1.7716 0
M  V30 17 H -2.6417 0.1285 -0.5035 0
M  V30 18 H -1.7176 1.283 0.3903 0
M  V30 19 H 1.1095 0.6842 2.5594 0
M  V30 20 H -0.4272 1.2713 1.9966 0
M  V30 21 H -1.3929 0.6072 -2.5797 0
M  V30 22 H -1.9757 2.1166 -1.8689 0
M  V30 23 H -0.2698 1.6613 -1.7126 0
M  V30 24 H 2.04 2.4787 1.5508 0
M  V30 25 H 1.8517 1.5992 0.018 0
M  V30 26 H 0.9478 3.6166 -0.145 0
M  V30 END ATOM
M  V30 BEGIN BOND
M  V30 1 2 1 2
M  V30 2 1 2 3
M  V30 3 1 2 4
M  V30 4 1 3 5
M  V30 5 2 3 6
M  V30 6 2 4 7
M  V30 7 1 6 8
M  V30 8 1 6 9
M  V30 9 1 8 10
M  V30 10 1 9 11
M  V30 11 1 10 12
M  V30 12 1 12 13
M  V30 13 1 7 8
M  V30 14 1 4 14
M  V30 15 1 5 15
M  V30 16 1 7 16
M  V30 17 1 9 17
M  V30 18 1 9 18
M  V30 19 1 10 19
M  V30 20 1 10 20
M  V30 21 1 11 21
M  V30 22 1 11 22
M  V30 23 1 11 23
M  V30 24 1 12 24
M  V30 25 1 12 25
M  V30 26 1 13 26
M  V30 END BOND
M  V30 END CTAB
M  END
>  <NO.>
1697

>  <Name>
cp102

>  <SMILES>
CCc1c(O)c(=O)ccn1CCO

>  <logBB>


>  <Class>
-1

>  <MW>
183.09

>  <nHBAcc>
3

>  <nHBDon>
2

>  <SLogP>
0.11

>  <TopoPSA>
62.46

>  <MMFF94 Energy>
62.796

$$$$
CCc1c(OC)nc2nc(-c3noc(C)n3)cn2c1C
Actelion Java MolfileCreator 2.0

  0  0  0  0  0  0              0 V3000
M  V30 BEGIN CTAB
M  V30 COUNTS 35 37 0 0 0
M  V30 BEGIN ATOM
M  V30 1 O -0.3987 4.873 -2.8737 0
M  V30 2 N -0.2649 3.4844 -2.7994 0
M  V30 3 C -0.392 5.3303 -1.5883 0
M  V30 4 C -0.192 3.2545 -1.4785 0
M  V30 5 N -0.2676 4.3791 -0.6944 0
M  V30 6 C -0.522 6.785 -1.4023 0
M  V30 7 C -0.0434 1.9189 -0.8913 0
M  V30 8 N 0.0279 1.7288 0.467 0
M  V30 9 C 0.0448 0.7149 -1.5536 0
M  V30 10 C 0.1584 0.4311 0.6473 0
M  V30 11 N 0.1725 -0.2395 -0.5754 0
M  V30 12 N 0.2675 -0.2478 1.8194 0
M  V30 13 C 0.3036 -1.6353 -0.6811 0
M  V30 14 C 0.3895 -1.5301 1.7173 0
M  V30 15 C 0.4259 -2.3559 0.4607 0
M  V30 16 C 0.2845 -2.2324 -2.0623 0
M  V30 17 O 0.4991 -2.328 2.8095 0
M  V30 18 C 0.62 -3.8461 0.5626 0
M  V30 19 C 0.4721 -1.6693 4.0815 0
M  V30 20 C -0.6961 -4.5794 0.7776 0
M  V30 21 H 0.3019 7.3099 -1.8944 0
M  V30 22 H -0.5048 7.0421 -0.339 0
M  V30 23 H -1.4649 7.1433 -1.8256 0
M  V30 24 H 0.0284 0.4787 -2.6072 0
M  V30 25 H 1.1647 -1.9107 -2.6288 0
M  V30 26 H -0.6141 -1.9172 -2.6041 0
M  V30 27 H 0.2733 -3.3247 -2.0628 0
M  V30 28 H 1.3154 -4.0894 1.3744 0
M  V30 29 H 1.1066 -4.2388 -0.3364 0
M  V30 30 H -0.4813 -1.1517 4.225 0
M  V30 31 H 0.5693 -2.434 4.857 0
M  V30 32 H 1.314 -0.9763 4.1724 0
M  V30 33 H -0.5195 -5.6576 0.8442 0
M  V30 34 H -1.388 -4.4024 -0.0526 0
M  V30 35 H -1.1871 -4.2617 1.7032 0
M  V30 END ATOM
M  V30 BEGIN BOND
M  V30 1 1 1 2
M  V30 2 1 1 3
M  V30 3 2 2 4
M  V30 4 2 3 5
M  V30 5 1 3 6
M  V30 6 1 4 7
M  V30 7 1 7 8
M  V30 8 2 7 9
M  V30 9 2 8 10
M  V30 10 1 9 11
M  V30 11 1 10 12
M  V30 12 1 11 13
M  V30 13 2 12 14
M  V30 14 2 13 15
M  V30 15 1 13 16
M  V30 16 1 14 17
M  V30 17 1 15 18
M  V30 18 1 17 19
M  V30 19 1 18 20
M  V30 20 1 4 5
M  V30 21 1 10 11
M  V30 22 1 14 15
M  V30 23 1 6 21
M  V30 24 1 6 22
M  V30 25 1 6 23
M  V30 26 1 9 24
M  V30 27 1 16 25
M  V30 28 1 16 26
M  V30 29 1 16 27
M  V30 30 1 18 28
M  V30 31 1 18 29
M  V30 32 1 19 30
M  V30 33 1 19 31
M  V30 34 1 19 32
M  V30 35 1 20 33
M  V30 36 1 20 34
M  V30 37 1 20 35
M  V30 END BOND
M  V30 END CTAB
M  END
>  <NO.>
1698

>  <Name>
fasiplon

>  <SMILES>
CCc1c(OC)nc2nc(-c3noc(C)n3)cn2c1C

>  <logBB>


>  <Class>
1

>  <MW>
273.12

>  <nHBAcc>
6

>  <nHBDon>
0

>  <SLogP>
1.97

>  <TopoPSA>
78.34

>  <MMFF94 Energy>
41.375

$$$$
CCc1c(OC)nc2nc(C(=O)c3ccccc3)cn2c1C
Actelion Java MolfileCreator 2.0

  0  0  0  0  0  0              0 V3000
M  V30 BEGIN CTAB
M  V30 COUNTS 39 41 0 0 0
M  V30 BEGIN ATOM
M  V30 1 O -0.7165 -0.5572 4.225 0
M  V30 2 C -0.1209 -0.9207 3.2134 0
M  V30 3 C 0.6908 -2.1631 3.2908 0
M  V30 4 C -0.2003 -0.2042 1.9381 0
M  V30 5 C 1.965 -2.2443 2.7134 0
M  V30 6 C 0.177 -3.2544 4.0026 0
M  V30 7 N -0.515 1.1368 1.8576 0
M  V30 8 C -0.0307 -0.7117 0.6636 0
M  V30 9 C 2.7018 -3.4256 2.8181 0
M  V30 10 C 0.9174 -4.4328 4.1036 0
M  V30 11 C -0.5272 1.4517 0.5803 0
M  V30 12 N -0.2387 0.3366 -0.2016 0
M  V30 13 C 2.1757 -4.5188 3.5075 0
M  V30 14 N -0.7783 2.6602 0.0126 0
M  V30 15 C -0.1892 0.3783 -1.6062 0
M  V30 16 C -0.7311 2.6959 -1.2781 0
M  V30 17 C -0.4275 1.5634 -2.2207 0
M  V30 18 C 0.111 -0.906 -2.3306 0
M  V30 19 O -0.9714 3.8368 -1.9726 0
M  V30 20 C -0.3819 1.8297 -3.7027 0
M  V30 21 C -1.2887 4.9976 -1.1946 0
M  V30 22 C -1.7606 1.7392 -4.3412 0
M  V30 23 H 2.4025 -1.3905 2.2018 0
M  V30 24 H -0.798 -3.1852 4.4816 0
M  V30 25 H 0.1963 -1.7078 0.3131 0
M  V30 26 H 3.6925 -3.4905 2.3744 0
M  V30 27 H 0.5165 -5.2799 4.6552 0
M  V30 28 H 2.7542 -5.4359 3.5939 0
M  V30 29 H 1.1299 -1.2401 -2.1075 0
M  V30 30 H -0.5892 -1.6915 -2.025 0
M  V30 31 H 0.0217 -0.8236 -3.4163 0
M  V30 32 H 0.2927 1.1282 -4.205 0
M  V30 33 H 0.0545 2.8153 -3.9039 0
M  V30 34 H -0.4526 5.2598 -0.5389 0
M  V30 35 H -1.4588 5.8279 -1.8856 0
M  V30 36 H -2.205 4.8346 -0.6186 0
M  V30 37 H -1.6909 1.9349 -5.4162 0
M  V30 38 H -2.4521 2.471 -3.9107 0
M  V30 39 H -2.1937 0.7421 -4.208 0
M  V30 END ATOM
M  V30 BEGIN BOND
M  V30 1 2 1 2
M  V30 2 1 2 3
M  V30 3 1 2 4
M  V30 4 2 3 5
M  V30 5 1 3 6
M  V30 6 1 4 7
M  V30 7 2 4 8
M  V30 8 1 5 9
M  V30 9 2 6 10
M  V30 10 2 7 11
M  V30 11 1 8 12
M  V30 12 2 9 13
M  V30 13 1 11 14
M  V30 14 1 12 15
M  V30 15 2 14 16
M  V30 16 2 15 17
M  V30 17 1 15 18
M  V30 18 1 16 19
M  V30 19 1 17 20
M  V30 20 1 19 21
M  V30 21 1 20 22
M  V30 22 1 10 13
M  V30 23 1 11 12
M  V30 24 1 16 17
M  V30 25 1 5 23
M  V30 26 1 6 24
M  V30 27 1 8 25
M  V30 28 1 9 26
M  V30 29 1 10 27
M  V30 30 1 13 28
M  V30 31 1 18 29
M  V30 32 1 18 30
M  V30 33 1 18 31
M  V30 34 1 20 32
M  V30 35 1 20 33
M  V30 36 1 21 34
M  V30 37 1 21 35
M  V30 38 1 21 36
M  V30 39 1 22 37
M  V30 40 1 22 38
M  V30 41 1 22 39
M  V30 END BOND
M  V30 END CTAB
M  END
>  <NO.>
1699

>  <Name>
divaplon

>  <SMILES>
CCc1c(OC)nc2nc(C(=O)c3ccccc3)cn2c1C

>  <logBB>


>  <Class>
1

>  <MW>
295.13

>  <nHBAcc>
4

>  <nHBDon>
0

>  <SLogP>
2.84

>  <TopoPSA>
56.49

>  <MMFF94 Energy>
85.663

$$$$
CCc1cc2c(s1)-n1c(C)nnc1CN=C2c1ccccc1Cl
Actelion Java MolfileCreator 2.0

  0  0  0  0  0  0              0 V3000
M  V30 BEGIN CTAB
M  V30 COUNTS 38 41 0 0 0
M  V30 BEGIN ATOM
M  V30 1 Cl 0.8228 -2.7174 0.8228 0
M  V30 2 C -0.5584 -2.8713 -0.2027 0
M  V30 3 C -0.9027 -1.9131 -1.1641 0
M  V30 4 C -1.3317 -4.0299 -0.0763 0
M  V30 5 C -0.1403 -0.6521 -1.3519 0
M  V30 6 C -1.9953 -2.1361 -2.016 0
M  V30 7 C -2.4323 -4.2381 -0.9109 0
M  V30 8 N 0.3785 -0.436 -2.5094 0
M  V30 9 C -0.0589 0.2693 -0.2122 0
M  V30 10 C -2.7606 -3.295 -1.8837 0
M  V30 11 C 1.0767 0.8056 -2.8142 0
M  V30 12 C 1.0472 1.0273 0.1346 0
M  V30 13 C -1.095 0.449 0.7761 0
M  V30 14 C 2.286 1.0128 -1.9839 0
M  V30 15 S 0.8637 1.863 1.5954 0
M  V30 16 N 2.2223 1.1693 -0.6114 0
M  V30 17 C -0.7289 1.291 1.8062 0
M  V30 18 N 3.5098 1.2245 -2.4144 0
M  V30 19 C 3.5243 1.5052 -0.2561 0
M  V30 20 C -1.5359 1.6994 3.0021 0
M  V30 21 N 4.2828 1.5342 -1.3346 0
M  V30 22 C 4.0401 1.7085 1.1178 0
M  V30 23 C -2.3868 2.927 2.7133 0
M  V30 24 H -1.0742 -4.7845 0.6637 0
M  V30 25 H -2.2483 -1.4085 -2.7847 0
M  V30 26 H -3.0248 -5.1452 -0.8116 0
M  V30 27 H -3.6075 -3.4661 -2.5447 0
M  V30 28 H 1.3766 0.7689 -3.8681 0
M  V30 29 H 0.3954 1.6617 -2.7295 0
M  V30 30 H -2.0657 -0.0336 0.7382 0
M  V30 31 H -0.8828 1.8996 3.8601 0
M  V30 32 H -2.1897 0.8694 3.297 0
M  V30 33 H 3.7316 2.6799 1.5142 0
M  V30 34 H 3.7137 0.9113 1.7921 0
M  V30 35 H 5.1356 1.6947 1.1121 0
M  V30 36 H -2.9763 3.1953 3.5959 0
M  V30 37 H -3.0801 2.7436 1.8853 0
M  V30 38 H -1.7653 3.7884 2.4461 0
M  V30 END ATOM
M  V30 BEGIN BOND
M  V30 1 1 1 2
M  V30 2 2 2 3
M  V30 3 1 2 4
M  V30 4 1 3 5
M  V30 5 1 3 6
M  V30 6 2 4 7
M  V30 7 2 5 8
M  V30 8 1 5 9
M  V30 9 2 6 10
M  V30 10 1 8 11
M  V30 11 2 9 12
M  V30 12 1 9 13
M  V30 13 1 11 14
M  V30 14 1 12 15
M  V30 15 1 12 16
M  V30 16 2 13 17
M  V30 17 2 14 18
M  V30 18 1 16 19
M  V30 19 1 17 20
M  V30 20 1 18 21
M  V30 21 1 19 22
M  V30 22 1 20 23
M  V30 23 1 7 10
M  V30 24 1 14 16
M  V30 25 1 15 17
M  V30 26 2 19 21
M  V30 27 1 4 24
M  V30 28 1 6 25
M  V30 29 1 7 26
M  V30 30 1 10 27
M  V30 31 1 11 28
M  V30 32 1 11 29
M  V30 33 1 13 30
M  V30 34 1 20 31
M  V30 35 1 20 32
M  V30 36 1 22 33
M  V30 37 1 22 34
M  V30 38 1 22 35
M  V30 39 1 23 36
M  V30 40 1 23 37
M  V30 41 1 23 38
M  V30 END BOND
M  V30 END CTAB
M  END
>  <NO.>
1700

>  <Name>
etizolam

>  <SMILES>
CCc1cc2c(s1)-n1c(C)nnc1CN=C2c1ccccc1Cl

>  <logBB>


>  <Class>
1

>  <MW>
342.07

>  <nHBAcc>
4

>  <nHBDon>
0

>  <SLogP>
4.2

>  <TopoPSA>
43.07

>  <MMFF94 Energy>
74.583

$$$$
CCc1ccccc1-n1c(C)nc2ccccc2c1=O
Actelion Java MolfileCreator 2.0

  0  0  0  0  0  0              0 V3000
M  V30 BEGIN CTAB
M  V30 COUNTS 36 38 0 0 0
M  V30 BEGIN ATOM
M  V30 1 O -0.3183 1.9111 0.9552 0
M  V30 2 C -0.5164 1.1979 -0.0268 0
M  V30 3 N 0.311 0.1564 -0.4502 0
M  V30 4 C -1.7152 1.4388 -0.8502 0
M  V30 5 C 1.4637 -0.119 0.3319 0
M  V30 6 C 0.0404 -0.564 -1.6026 0
M  V30 7 C -1.9027 0.6422 -1.9771 0
M  V30 8 C -2.6372 2.4367 -0.5092 0
M  V30 9 C 1.443 -1.0846 1.3573 0
M  V30 10 C 2.6374 0.5984 0.0563 0
M  V30 11 N -1.0 -0.3598 -2.3487 0
M  V30 12 C 1.0015 -1.6526 -2.0291 0
M  V30 13 C -3.0339 0.8544 -2.7691 0
M  V30 14 C -3.7623 2.6385 -1.3075 0
M  V30 15 C 2.6249 -1.3141 2.0825 0
M  V30 16 C 0.2004 -1.8579 1.7335 0
M  V30 17 C 3.7989 0.3528 0.7859 0
M  V30 18 C -3.9608 1.8468 -2.4379 0
M  V30 19 C 3.7928 -0.6046 1.7962 0
M  V30 20 C -0.5249 -1.2383 2.9189 0
M  V30 21 H -2.4795 3.0527 0.3734 0
M  V30 22 H 2.6472 1.3564 -0.7229 0
M  V30 23 H 1.9995 -1.2358 -2.188 0
M  V30 24 H 1.0532 -2.4322 -1.2647 0
M  V30 25 H 0.6657 -2.1095 -2.9649 0
M  V30 26 H -3.191 0.2396 -3.6519 0
M  V30 27 H -4.4822 3.4113 -1.0488 0
M  V30 28 H 2.6385 -2.047 2.8872 0
M  V30 29 H 0.4816 -2.8904 1.9764 0
M  V30 30 H -0.4861 -1.9366 0.8842 0
M  V30 31 H 4.7048 0.9139 0.5722 0
M  V30 32 H -4.8363 2.0004 -3.0641 0
M  V30 33 H 4.6958 -0.7925 2.3718 0
M  V30 34 H -1.4132 -1.8276 3.1672 0
M  V30 35 H -0.8481 -0.2159 2.7003 0
M  V30 36 H 0.1161 -1.2045 3.8061 0
M  V30 END ATOM
M  V30 BEGIN BOND
M  V30 1 2 1 2
M  V30 2 1 2 3
M  V30 3 1 2 4
M  V30 4 1 3 5
M  V30 5 1 3 6
M  V30 6 2 4 7
M  V30 7 1 4 8
M  V30 8 2 5 9
M  V30 9 1 5 10
M  V30 10 2 6 11
M  V30 11 1 6 12
M  V30 12 1 7 13
M  V30 13 2 8 14
M  V30 14 1 9 15
M  V30 15 1 9 16
M  V30 16 2 10 17
M  V30 17 2 13 18
M  V30 18 2 15 19
M  V30 19 1 16 20
M  V30 20 1 7 11
M  V30 21 1 14 18
M  V30 22 1 17 19
M  V30 23 1 8 21
M  V30 24 1 10 22
M  V30 25 1 12 23
M  V30 26 1 12 24
M  V30 27 1 12 25
M  V30 28 1 13 26
M  V30 29 1 14 27
M  V30 30 1 15 28
M  V30 31 1 16 29
M  V30 32 1 16 30
M  V30 33 1 17 31
M  V30 34 1 18 32
M  V30 35 1 19 33
M  V30 36 1 20 34
M  V30 37 1 20 35
M  V30 38 1 20 36
M  V30 END BOND
M  V30 END CTAB
M  END
>  <NO.>
1702

>  <Name>
etaqualone

>  <SMILES>
CCc1ccccc1-n1c(C)nc2ccccc2c1=O

>  <logBB>


>  <Class>
1

>  <MW>
264.13

>  <nHBAcc>
2

>  <nHBDon>
0

>  <SLogP>
3.26

>  <TopoPSA>
34.89

>  <MMFF94 Energy>
43.494

$$$$
CCc1nn(CCCN2CCN(c3cccc(Cl)c3)CC2)c(=O)n1CC
Actelion Java MolfileCreator 2.0

  0  0  0  0  0  0              0 V3000
M  V30 BEGIN CTAB
M  V30 COUNTS 54 56 0 0 0
M  V30 BEGIN ATOM
M  V30 1 Cl 3.9758 6.1279 4.2944 0
M  V30 2 C 3.5228 4.4773 4.489 0
M  V30 3 C 2.56 3.9193 3.6421 0
M  V30 4 C 4.1204 3.7148 5.4858 0
M  V30 5 C 2.1726 2.5764 3.7637 0
M  V30 6 C 3.7471 2.3847 5.6366 0
M  V30 7 N 1.2126 1.9946 2.9413 0
M  V30 8 C 2.7842 1.8296 4.7858 0
M  V30 9 C 0.2675 2.8354 2.1871 0
M  V30 10 C 1.5486 0.7203 2.276 0
M  V30 11 C -0.9714 2.0251 1.7383 0
M  V30 12 C 0.2737 -0.0262 1.8232 0
M  V30 13 N -0.6212 0.8018 0.9826 0
M  V30 14 C -1.8126 0.0276 0.5971 0
M  V30 15 C -2.5825 0.6421 -0.5786 0
M  V30 16 C -1.774 0.7094 -1.8749 0
M  V30 17 N -1.6003 -0.5869 -2.4897 0
M  V30 18 N -0.5251 -1.4007 -2.2323 0
M  V30 19 C -2.4744 -1.2054 -3.3828 0
M  V30 20 C -0.7487 -2.4585 -2.9582 0
M  V30 21 O -3.5301 -0.7703 -3.8145 0
M  V30 22 N -1.8943 -2.418 -3.6697 0
M  V30 23 C 0.1618 -3.6546 -3.0127 0
M  V30 24 C -2.4611 -3.3934 -4.5801 0
M  V30 25 C 1.4502 -3.4676 -2.2329 0
M  V30 26 C -2.03 -3.131 -6.0141 0
M  V30 27 H 2.1317 4.5475 2.8674 0
M  V30 28 H 4.8664 4.1491 6.1448 0
M  V30 29 H 4.1936 1.7768 6.4188 0
M  V30 30 H 2.4885 0.7972 4.9551 0
M  V30 31 H 0.7684 3.2567 1.3063 0
M  V30 32 H -0.0896 3.6661 2.8083 0
M  V30 33 H 2.1112 0.0459 2.9299 0
M  V30 34 H 2.1823 0.9297 1.4045 0
M  V30 35 H -1.5884 2.6867 1.1209 0
M  V30 36 H -1.5615 1.7634 2.6272 0
M  V30 37 H -0.2657 -0.3791 2.7129 0
M  V30 38 H 0.5887 -0.9124 1.2587 0
M  V30 39 H -2.49 -0.0865 1.4536 0
M  V30 40 H -1.5186 -0.9891 0.3092 0
M  V30 41 H -3.4916 0.0503 -0.7451 0
M  V30 42 H -2.9203 1.6512 -0.3178 0
M  V30 43 H -0.7902 1.1664 -1.7266 0
M  V30 44 H -2.3236 1.3341 -2.5886 0
M  V30 45 H 0.3927 -3.8706 -4.0614 0
M  V30 46 H -0.3854 -4.5175 -2.6167 0
M  V30 47 H -3.5532 -3.3413 -4.5144 0
M  V30 48 H -2.1433 -4.3957 -4.2777 0
M  V30 49 H 2.0755 -4.3621 -2.3117 0
M  V30 50 H 1.2474 -3.2868 -1.172 0
M  V30 51 H 2.0224 -2.6163 -2.6162 0
M  V30 52 H -0.9407 -3.1748 -6.1131 0
M  V30 53 H -2.3544 -2.1394 -6.3468 0
M  V30 54 H -2.466 -3.877 -6.6853 0
M  V30 END ATOM
M  V30 BEGIN BOND
M  V30 1 1 1 2
M  V30 2 2 2 3
M  V30 3 1 2 4
M  V30 4 1 3 5
M  V30 5 2 4 6
M  V30 6 1 5 7
M  V30 7 2 5 8
M  V30 8 1 7 9
M  V30 9 1 7 10
M  V30 10 1 9 11
M  V30 11 1 10 12
M  V30 12 1 11 13
M  V30 13 1 13 14
M  V30 14 1 14 15
M  V30 15 1 15 16
M  V30 16 1 16 17
M  V30 17 1 17 18
M  V30 18 1 17 19
M  V30 19 2 18 20
M  V30 20 2 19 21
M  V30 21 1 19 22
M  V30 22 1 20 23
M  V30 23 1 22 24
M  V30 24 1 23 25
M  V30 25 1 24 26
M  V30 26 1 6 8
M  V30 27 1 12 13
M  V30 28 1 20 22
M  V30 29 1 3 27
M  V30 30 1 4 28
M  V30 31 1 6 29
M  V30 32 1 8 30
M  V30 33 1 9 31
M  V30 34 1 9 32
M  V30 35 1 10 33
M  V30 36 1 10 34
M  V30 37 1 11 35
M  V30 38 1 11 36
M  V30 39 1 12 37
M  V30 40 1 12 38
M  V30 41 1 14 39
M  V30 42 1 14 40
M  V30 43 1 15 41
M  V30 44 1 15 42
M  V30 45 1 16 43
M  V30 46 1 16 44
M  V30 47 1 23 45
M  V30 48 1 23 46
M  V30 49 1 24 47
M  V30 50 1 24 48
M  V30 51 1 25 49
M  V30 52 1 25 50
M  V30 53 1 25 51
M  V30 54 1 26 52
M  V30 55 1 26 53
M  V30 56 1 26 54
M  V30 END BOND
M  V30 END CTAB
M  END
>  <NO.>
1703

>  <Name>
etoperidone

>  <SMILES>
CCc1nn(CCCN2CCN(c3cccc(Cl)c3)CC2)c(=O)n1CC

>  <logBB>


>  <Class>
1

>  <MW>
377.2

>  <nHBAcc>
4

>  <nHBDon>
0

>  <SLogP>
2.49

>  <TopoPSA>
46.3

>  <MMFF94 Energy>
71.863

$$$$
CCc1nn(CCCN2CCN(c3cccc(Cl)c3)CC2)c(=O)n1CCOc1ccccc1
Actelion Java MolfileCreator 2.0

  0  0  0  0  0  0              0 V3000
M  V30 BEGIN CTAB
M  V30 COUNTS 65 68 0 0 0
M  V30 BEGIN ATOM
M  V30 1 Cl 10.2357 2.711 0.7967 0
M  V30 2 C 8.6003 3.252 0.7824 0
M  V30 3 C 7.5619 2.3197 0.8726 0
M  V30 4 C 8.3282 4.6115 0.6832 0
M  V30 5 C 6.2181 2.7229 0.874 0
M  V30 6 C 7.0057 5.0383 0.6704 0
M  V30 7 N 5.1633 1.8189 0.9555 0
M  V30 8 C 5.9694 4.102 0.7623 0
M  V30 9 C 5.3731 0.3971 0.6352 0
M  V30 10 C 4.1184 2.0602 1.9693 0
M  V30 11 C 4.0339 -0.3088 0.327 0
M  V30 12 C 2.816 1.2963 1.6309 0
M  V30 13 N 3.0278 -0.1523 1.4051 0
M  V30 14 C 1.7795 -0.84 1.0221 0
M  V30 15 C 0.7781 -0.9284 2.1809 0
M  V30 16 C -0.4045 -1.8408 1.8568 0
M  V30 17 N -1.2385 -1.3186 0.8018 0
M  V30 18 N -1.039 -1.6178 -0.5228 0
M  V30 19 C -2.3132 -0.4447 0.9444 0
M  V30 20 C -1.9742 -0.953 -1.1419 0
M  V30 21 O -2.762 0.0301 1.9756 0
M  V30 22 N -2.768 -0.2227 -0.3321 0
M  V30 23 C -2.1651 -0.9567 -2.6343 0
M  V30 24 C -3.9098 0.6225 -0.6417 0
M  V30 25 C -1.2158 -1.8906 -3.3617 0
M  V30 26 C -5.2375 -0.096 -0.3861 0
M  V30 27 O -5.4132 -1.0926 -1.3956 0
M  V30 28 C -6.5403 -1.8627 -1.322 0
M  V30 29 C -7.5521 -1.7503 -0.3676 0
M  V30 30 C -6.6454 -2.8376 -2.3176 0
M  V30 31 C -8.6566 -2.6072 -0.4118 0
M  V30 32 C -7.7474 -3.6931 -2.3624 0
M  V30 33 C -8.7544 -3.5771 -1.4077 0
M  V30 34 H 7.8214 1.2699 0.9648 0
M  V30 35 H 9.1346 5.3351 0.6112 0
M  V30 36 H 6.7734 6.096 0.5799 0
M  V30 37 H 4.9466 4.4671 0.7117 0
M  V30 38 H 5.8671 -0.1034 1.4775 0
M  V30 39 H 6.0127 0.2915 -0.2495 0
M  V30 40 H 3.8633 3.1214 2.0583 0
M  V30 41 H 4.4912 1.7342 2.9489 0
M  V30 42 H 4.244 -1.3744 0.1748 0
M  V30 43 H 3.6363 0.0842 -0.6187 0
M  V30 44 H 2.3603 1.7539 0.7425 0
M  V30 45 H 2.1269 1.4495 2.4682 0
M  V30 46 H 2.0244 -1.8654 0.7166 0
M  V30 47 H 1.3221 -0.3468 0.1557 0
M  V30 48 H 1.2849 -1.3248 3.0695 0
M  V30 49 H 0.4011 0.0678 2.4384 0
M  V30 50 H -1.026 -1.9387 2.7542 0
M  V30 51 H -0.0659 -2.8431 1.5728 0
M  V30 52 H -2.0242 0.0671 -2.9984 0
M  V30 53 H -3.1986 -1.2399 -2.8562 0
M  V30 54 H -3.8455 0.9382 -1.6872 0
M  V30 55 H -3.854 1.5069 0.0023 0
M  V30 56 H -1.4007 -1.8564 -4.4397 0
M  V30 57 H -1.3463 -2.9246 -3.026 0
M  V30 58 H -0.1724 -1.6083 -3.1865 0
M  V30 59 H -5.2344 -0.5557 0.6091 0
M  V30 60 H -6.0489 0.638 -0.4567 0
M  V30 61 H -7.5153 -1.0108 0.4249 0
M  V30 62 H -5.8611 -2.9335 -3.064 0
M  V30 63 H -9.4417 -2.5174 0.3349 0
M  V30 64 H -7.8171 -4.4484 -3.1403 0
M  V30 65 H -9.6134 -4.2423 -1.4383 0
M  V30 END ATOM
M  V30 BEGIN BOND
M  V30 1 1 1 2
M  V30 2 2 2 3
M  V30 3 1 2 4
M  V30 4 1 3 5
M  V30 5 2 4 6
M  V30 6 1 5 7
M  V30 7 2 5 8
M  V30 8 1 7 9
M  V30 9 1 7 10
M  V30 10 1 9 11
M  V30 11 1 10 12
M  V30 12 1 11 13
M  V30 13 1 13 14
M  V30 14 1 14 15
M  V30 15 1 15 16
M  V30 16 1 16 17
M  V30 17 1 17 18
M  V30 18 1 17 19
M  V30 19 2 18 20
M  V30 20 2 19 21
M  V30 21 1 19 22
M  V30 22 1 20 23
M  V30 23 1 22 24
M  V30 24 1 23 25
M  V30 25 1 24 26
M  V30 26 1 26 27
M  V30 27 1 27 28
M  V30 28 2 28 29
M  V30 29 1 28 30
M  V30 30 1 29 31
M  V30 31 2 30 32
M  V30 32 2 31 33
M  V30 33 1 6 8
M  V30 34 1 12 13
M  V30 35 1 20 22
M  V30 36 1 32 33
M  V30 37 1 3 34
M  V30 38 1 4 35
M  V30 39 1 6 36
M  V30 40 1 8 37
M  V30 41 1 9 38
M  V30 42 1 9 39
M  V30 43 1 10 40
M  V30 44 1 10 41
M  V30 45 1 11 42
M  V30 46 1 11 43
M  V30 47 1 12 44
M  V30 48 1 12 45
M  V30 49 1 14 46
M  V30 50 1 14 47
M  V30 51 1 15 48
M  V30 52 1 15 49
M  V30 53 1 16 50
M  V30 54 1 16 51
M  V30 55 1 23 52
M  V30 56 1 23 53
M  V30 57 1 24 54
M  V30 58 1 24 55
M  V30 59 1 25 56
M  V30 60 1 25 57
M  V30 61 1 25 58
M  V30 62 1 26 59
M  V30 63 1 26 60
M  V30 64 1 29 61
M  V30 65 1 30 62
M  V30 66 1 31 63
M  V30 67 1 32 64
M  V30 68 1 33 65
M  V30 END BOND
M  V30 END CTAB
M  END
>  <NO.>
1704

>  <Name>
nefazodone

>  <SMILES>
CCc1nn(CCCN2CCN(c3cccc(Cl)c3)CC2)c(=O)n1CCOc1ccccc1

>  <logBB>


>  <Class>
1

>  <MW>
469.22

>  <nHBAcc>
5

>  <nHBDon>
0

>  <SLogP>
3.55

>  <TopoPSA>
55.53

>  <MMFF94 Energy>
93.676

$$$$
CCn1c2c(c3ccccc31)CCSC2(C)CCN(C)C
Actelion Java MolfileCreator 2.0

  0  0  0  0  0  0              0 V3000
M  V30 BEGIN CTAB
M  V30 COUNTS 47 49 0 0 0
M  V30 BEGIN ATOM
M  V30 1 S -2.9625 0.6399 -0.3999 0
M  V30 2 C -1.5584 -0.6048 -0.2741 0 CFG=2
M  V30 3 C -3.0114 1.2593 1.307 0
M  V30 4 C -0.5029 -0.1574 0.7423 0
M  V30 5 C -1.0116 -0.7412 -1.7235 0
M  V30 6 C -2.239 -1.9117 0.1706 0
M  V30 7 C -1.6896 1.922 1.6634 0
M  V30 8 N 0.6868 -0.8099 1.0488 0
M  V30 9 C -0.5457 0.968 1.5649 0
M  V30 10 C -0.2144 0.472 -2.2418 0
M  V30 11 C 1.4542 -0.0319 1.9088 0
M  V30 12 C 1.136 -2.1229 0.6066 0
M  V30 13 C 0.6879 1.0732 2.2632 0
M  V30 14 N 0.3662 0.2289 -3.5813 0
M  V30 15 C 2.7496 -0.2244 2.425 0
M  V30 16 C 0.976 -3.1891 1.6812 0
M  V30 17 C 1.2213 2.0157 3.1679 0
M  V30 18 C 1.3607 1.2645 -3.8815 0
M  V30 19 C -0.6628 0.2277 -4.6252 0
M  V30 20 C 3.2608 0.7252 3.3142 0
M  V30 21 C 2.507 1.832 3.6846 0
M  V30 22 H -3.8235 1.9897 1.3818 0
M  V30 23 H -3.2483 0.4345 1.9877 0
M  V30 24 H -1.8517 -0.9527 -2.3987 0
M  V30 25 H -0.3709 -1.6235 -1.8101 0
M  V30 26 H -1.55 -2.7601 0.145 0
M  V30 27 H -2.621 -1.8464 1.1965 0
M  V30 28 H -3.0743 -2.182 -0.4872 0
M  V30 29 H -1.7618 2.3063 2.6882 0
M  V30 30 H -1.5006 2.7859 1.0136 0
M  V30 31 H -0.8298 1.3794 -2.2531 0
M  V30 32 H 0.6118 0.6561 -1.5454 0
M  V30 33 H 2.1841 -2.032 0.3008 0
M  V30 34 H 0.5853 -2.4226 -0.2789 0
M  V30 35 H 3.3498 -1.0855 2.1499 0
M  V30 36 H -0.0638 -3.2644 2.0149 0
M  V30 37 H 1.5893 -2.9714 2.5612 0
M  V30 38 H 1.2821 -4.1651 1.2922 0
M  V30 39 H 0.6417 2.8867 3.4591 0
M  V30 40 H 2.172 1.2453 -3.1451 0
M  V30 41 H 0.9228 2.2695 -3.8884 0
M  V30 42 H 1.8242 1.0823 -4.8576 0
M  V30 43 H -1.2344 1.1628 -4.6448 0
M  V30 44 H -1.3611 -0.6044 -4.4961 0
M  V30 45 H -0.2068 0.0857 -5.6119 0
M  V30 46 H 4.2602 0.5933 3.7219 0
M  V30 47 H 2.9178 2.5613 4.3779 0
M  V30 END ATOM
M  V30 BEGIN BOND
M  V30 1 1 1 2
M  V30 2 1 1 3
M  V30 3 1 2 4
M  V30 4 1 2 5
M  V30 5 1 2 6
M  V30 6 1 3 7
M  V30 7 1 4 8
M  V30 8 2 4 9
M  V30 9 1 5 10
M  V30 10 1 8 11
M  V30 11 1 8 12
M  V30 12 1 9 13
M  V30 13 1 10 14
M  V30 14 1 11 15
M  V30 15 1 12 16
M  V30 16 1 13 17
M  V30 17 1 14 18
M  V30 18 1 14 19
M  V30 19 2 15 20
M  V30 20 2 17 21
M  V30 21 1 7 9
M  V30 22 2 11 13
M  V30 23 1 20 21
M  V30 24 1 3 22
M  V30 25 1 3 23
M  V30 26 1 5 24
M  V30 27 1 5 25
M  V30 28 1 6 26
M  V30 29 1 6 27
M  V30 30 1 6 28
M  V30 31 1 7 29
M  V30 32 1 7 30
M  V30 33 1 10 31
M  V30 34 1 10 32
M  V30 35 1 12 33
M  V30 36 1 12 34
M  V30 37 1 15 35
M  V30 38 1 16 36
M  V30 39 1 16 37
M  V30 40 1 16 38
M  V30 41 1 17 39
M  V30 42 1 18 40
M  V30 43 1 18 41
M  V30 44 1 18 42
M  V30 45 1 19 43
M  V30 46 1 19 44
M  V30 47 1 19 45
M  V30 48 1 20 46
M  V30 49 1 21 47
M  V30 END BOND
M  V30 BEGIN COLLECTION
M  V30 MDLV30/STERAC1 ATOMS=(1 2)
M  V30 END COLLECTION
M  V30 END CTAB
M  END
>  <NO.>
1705

>  <Name>
tandamine

>  <SMILES>
CCn1c2c(c3ccccc31)CCSC2(C)CCN(C)C

>  <logBB>


>  <Class>
1

>  <MW>
302.18

>  <nHBAcc>
2

>  <nHBDon>
0

>  <SLogP>
4.12

>  <TopoPSA>
8.17

>  <MMFF94 Energy>
49.075

$$$$
CCn1cc(C(=O)O)c(=O)c2ccc(Cc3ccccc3)nc21
Actelion Java MolfileCreator 2.0

  0  0  0  0  0  0              0 V3000
M  V30 BEGIN CTAB
M  V30 COUNTS 39 41 0 0 0
M  V30 BEGIN ATOM
M  V30 1 O -1.5185 3.9198 -0.6391 0
M  V30 2 C -1.6109 2.9154 0.059 0
M  V30 3 C -2.3952 2.8795 1.3171 0
M  V30 4 C -0.9522 1.6619 -0.3787 0
M  V30 5 C -3.0671 4.0305 1.9333 0
M  V30 6 C -2.5033 1.6927 1.9341 0
M  V30 7 C -1.1269 0.4825 0.3527 0
M  V30 8 C -0.1682 1.65 -1.5344 0
M  V30 9 O -4.0119 3.9719 2.7043 0
M  V30 10 O -2.5067 5.209 1.6272 0
M  V30 11 N -1.9203 0.5089 1.5217 0
M  V30 12 N -0.5451 -0.6758 -0.047 0
M  V30 13 C 0.428 0.4621 -1.9366 0
M  V30 14 C -2.1027 -0.767 2.2222 0
M  V30 15 C 0.2193 -0.6804 -1.1712 0
M  V30 16 C -3.2505 -1.5628 1.6167 0
M  V30 17 C 0.8516 -1.9965 -1.5672 0
M  V30 18 C 2.3559 -2.023 -1.4177 0
M  V30 19 C 3.1855 -2.1359 -2.5424 0
M  V30 20 C 2.9433 -1.9363 -0.1466 0
M  V30 21 C 4.5737 -2.1573 -2.3972 0
M  V30 22 C 4.3311 -1.9573 -0.0044 0
M  V30 23 C 5.1457 -2.0674 -1.1294 0
M  V30 24 H -3.0797 1.5933 2.8527 0
M  V30 25 H -0.0225 2.5583 -2.1141 0
M  V30 26 H -3.0522 5.8783 2.0871 0
M  V30 27 H 1.048 0.4343 -2.8273 0
M  V30 28 H -2.3329 -0.5755 3.2784 0
M  V30 29 H -1.1825 -1.3639 2.2327 0
M  V30 30 H -3.0552 -1.8195 0.5709 0
M  V30 31 H -4.1851 -0.9929 1.6519 0
M  V30 32 H -3.399 -2.4942 2.172 0
M  V30 33 H 0.5628 -2.2237 -2.6014 0
M  V30 34 H 0.4293 -2.8064 -0.958 0
M  V30 35 H 2.7582 -2.2092 -3.5398 0
M  V30 36 H 2.3176 -1.8473 0.74 0
M  V30 37 H 5.2103 -2.245 -3.2739 0
M  V30 38 H 4.776 -1.8867 0.9846 0
M  V30 39 H 6.2266 -2.0838 -1.0178 0
M  V30 END ATOM
M  V30 BEGIN BOND
M  V30 1 2 1 2
M  V30 2 1 2 3
M  V30 3 1 2 4
M  V30 4 1 3 5
M  V30 5 2 3 6
M  V30 6 2 4 7
M  V30 7 1 4 8
M  V30 8 2 5 9
M  V30 9 1 5 10
M  V30 10 1 6 11
M  V30 11 1 7 12
M  V30 12 2 8 13
M  V30 13 1 11 14
M  V30 14 2 12 15
M  V30 15 1 14 16
M  V30 16 1 15 17
M  V30 17 1 17 18
M  V30 18 2 18 19
M  V30 19 1 18 20
M  V30 20 1 19 21
M  V30 21 2 20 22
M  V30 22 2 21 23
M  V30 23 1 7 11
M  V30 24 1 13 15
M  V30 25 1 22 23
M  V30 26 1 6 24
M  V30 27 1 8 25
M  V30 28 1 10 26
M  V30 29 1 13 27
M  V30 30 1 14 28
M  V30 31 1 14 29
M  V30 32 1 16 30
M  V30 33 1 16 31
M  V30 34 1 16 32
M  V30 35 1 17 33
M  V30 36 1 17 34
M  V30 37 1 19 35
M  V30 38 1 20 36
M  V30 39 1 21 37
M  V30 40 1 22 38
M  V30 41 1 23 39
M  V30 END BOND
M  V30 END CTAB
M  END
>  <NO.>
1706

>  <Name>
amfonelic-acid

>  <SMILES>
CCn1cc(C(=O)O)c(=O)c2ccc(Cc3ccccc3)nc21

>  <logBB>


>  <Class>
1

>  <MW>
308.12

>  <nHBAcc>
3

>  <nHBDon>
1

>  <SLogP>
2.71

>  <TopoPSA>
72.19

>  <MMFF94 Energy>
36.965

$$$$
CCn1ccc(=O)c(O)c1C
Actelion Java MolfileCreator 2.0

  0  0  0  0  0  0              0 V3000
M  V30 BEGIN CTAB
M  V30 COUNTS 22 22 0 0 0
M  V30 BEGIN ATOM
M  V30 1 O 2.8159 1.9548 1.7201 0
M  V30 2 C 2.0162 1.2904 1.0664 0
M  V30 3 C 0.5496 1.6204 0.9966 0
M  V30 4 C 2.493 0.1242 0.3015 0
M  V30 5 O 0.1378 2.7332 1.7081 0
M  V30 6 C -0.2638 0.8285 0.2494 0
M  V30 7 C 1.5995 -0.5617 -0.4121 0
M  V30 8 N 0.2416 -0.2723 -0.4915 0
M  V30 9 C -1.7572 1.0789 0.2 0
M  V30 10 C -0.6128 -1.1426 -1.3295 0
M  V30 11 C -1.0544 -2.376 -0.5546 0
M  V30 12 H 3.5438 -0.1203 0.3493 0
M  V30 13 H -0.6963 3.0595 1.3436 0
M  V30 14 H 1.9175 -1.426 -0.9898 0
M  V30 15 H -2.0414 1.4773 -0.7793 0
M  V30 16 H -2.1103 1.7811 0.9596 0
M  V30 17 H -2.3152 0.1552 0.3817 0
M  V30 18 H -0.0578 -1.4579 -2.2226 0
M  V30 19 H -1.4868 -0.6037 -1.71 0
M  V30 20 H -1.6145 -2.1055 0.3457 0
M  V30 21 H -0.1932 -2.9757 -0.2421 0
M  V30 22 H -1.6957 -3.0054 -1.1793 0
M  V30 END ATOM
M  V30 BEGIN BOND
M  V30 1 2 1 2
M  V30 2 1 2 3
M  V30 3 1 2 4
M  V30 4 1 3 5
M  V30 5 2 3 6
M  V30 6 2 4 7
M  V30 7 1 6 8
M  V30 8 1 6 9
M  V30 9 1 8 10
M  V30 10 1 10 11
M  V30 11 1 7 8
M  V30 12 1 4 12
M  V30 13 1 5 13
M  V30 14 1 7 14
M  V30 15 1 9 15
M  V30 16 1 9 16
M  V30 17 1 9 17
M  V30 18 1 10 18
M  V30 19 1 10 19
M  V30 20 1 11 20
M  V30 21 1 11 21
M  V30 22 1 11 22
M  V30 END BOND
M  V30 END CTAB
M  END
>  <NO.>
1707

>  <Name>
metronidazole

>  <SMILES>
CCn1ccc(=O)c(O)c1C

>  <logBB>


>  <Class>
1

>  <MW>
153.08

>  <nHBAcc>
2

>  <nHBDon>
1

>  <SLogP>
0.88

>  <TopoPSA>
42.23

>  <MMFF94 Energy>
47.822

$$$$
CCn1nc(C)c2c1C(c1ccccc1)=NCC(=O)N2
Actelion Java MolfileCreator 2.0

  0  0  0  0  0  0              0 V3000
M  V30 BEGIN CTAB
M  V30 COUNTS 36 38 0 0 0
M  V30 BEGIN ATOM
M  V30 1 O 1.0332 4.6163 -0.7947 0
M  V30 2 C 1.0467 3.3843 -0.7717 0
M  V30 3 N 1.5243 2.7324 0.3384 0
M  V30 4 C 0.6219 2.5355 -1.9709 0
M  V30 5 C 1.6101 1.3638 0.453 0
M  V30 6 N -0.57 1.7264 -1.679 0
M  V30 7 C 0.7179 0.4597 -0.089 0
M  V30 8 C 2.5842 0.597 1.1277 0
M  V30 9 C -0.495 0.7675 -0.8169 0
M  V30 10 N 1.2589 -0.7751 0.1916 0
M  V30 11 N 2.3607 -0.7112 0.9712 0
M  V30 12 C 3.755 1.0716 1.9036 0
M  V30 13 C -1.739 -0.0071 -0.5331 0
M  V30 14 C 0.8913 -2.0707 -0.3552 0
M  V30 15 C -2.0521 -0.4148 0.7695 0
M  V30 16 C -2.6205 -0.2931 -1.583 0
M  V30 17 C 0.4702 -3.0724 0.7071 0
M  V30 18 C -3.2241 -1.1343 1.0112 0
M  V30 19 C -3.7901 -1.0134 -1.3363 0
M  V30 20 C -4.0882 -1.4372 -0.0412 0
M  V30 21 H 1.8961 3.3209 1.0721 0
M  V30 22 H 0.374 3.2193 -2.7905 0
M  V30 23 H 1.4584 1.9191 -2.3205 0
M  V30 24 H 4.4441 1.621 1.2542 0
M  V30 25 H 3.4334 1.7393 2.7095 0
M  V30 26 H 4.3048 0.2392 2.3548 0
M  V30 27 H 1.7696 -2.4428 -0.8959 0
M  V30 28 H 0.0971 -1.9348 -1.0928 0
M  V30 29 H -1.4027 -0.1658 1.6055 0
M  V30 30 H -2.4002 0.0466 -2.5927 0
M  V30 31 H -0.3686 -2.7012 1.302 0
M  V30 32 H 1.2934 -3.2883 1.3964 0
M  V30 33 H 0.168 -4.0145 0.2391 0
M  V30 34 H -3.4692 -1.4504 2.0226 0
M  V30 35 H -4.4732 -1.2354 -2.1527 0
M  V30 36 H -5.0036 -1.9924 0.1503 0
M  V30 END ATOM
M  V30 BEGIN BOND
M  V30 1 2 1 2
M  V30 2 1 2 3
M  V30 3 1 2 4
M  V30 4 1 3 5
M  V30 5 1 4 6
M  V30 6 2 5 7
M  V30 7 1 5 8
M  V30 8 2 6 9
M  V30 9 1 7 10
M  V30 10 2 8 11
M  V30 11 1 8 12
M  V30 12 1 9 13
M  V30 13 1 10 14
M  V30 14 2 13 15
M  V30 15 1 13 16
M  V30 16 1 14 17
M  V30 17 1 15 18
M  V30 18 2 16 19
M  V30 19 2 18 20
M  V30 20 1 7 9
M  V30 21 1 10 11
M  V30 22 1 19 20
M  V30 23 1 3 21
M  V30 24 1 4 22
M  V30 25 1 4 23
M  V30 26 1 12 24
M  V30 27 1 12 25
M  V30 28 1 12 26
M  V30 29 1 14 27
M  V30 30 1 14 28
M  V30 31 1 15 29
M  V30 32 1 16 30
M  V30 33 1 17 31
M  V30 34 1 17 32
M  V30 35 1 17 33
M  V30 36 1 18 34
M  V30 37 1 19 35
M  V30 38 1 20 36
M  V30 END BOND
M  V30 END CTAB
M  END
>  <NO.>
1708

>  <Name>
ripazepam

>  <SMILES>
CCn1nc(C)c2c1C(c1ccccc1)=NCC(=O)N2

>  <logBB>


>  <Class>
1

>  <MW>
268.13

>  <nHBAcc>
3

>  <nHBDon>
1

>  <SLogP>
2

>  <TopoPSA>
59.28

>  <MMFF94 Energy>
72.96

$$$$
CCn1nnn(CCN2CC[C@H](N(C(=O)COC)c3ccccc3F)[C@H](C)C2)c1=O
Actelion Java MolfileCreator 2.0

  0  0  0  0  0  0              0 V3000
M  V30 BEGIN CTAB
M  V30 COUNTS 59 61 0 0 0
M  V30 BEGIN ATOM
M  V30 1 F 2.2226 2.5405 -2.6199 0
M  V30 2 C 2.2011 1.1995 -2.5829 0
M  V30 3 C 2.0655 0.5331 -1.3588 0
M  V30 4 C 2.3198 0.4922 -3.7751 0
M  V30 5 N 1.9346 1.27 -0.1532 0
M  V30 6 C 2.0587 -0.8627 -1.3405 0
M  V30 7 C 2.3063 -0.9016 -3.7513 0
M  V30 8 C 3.0518 1.8226 0.4854 0
M  V30 9 C 0.5809 1.6462 0.323 0 CFG=2
M  V30 10 C 2.1783 -1.5772 -2.5358 0
M  V30 11 O 2.9469 2.6311 1.4148 0
M  V30 12 C 4.4467 1.418 -0.0147 0
M  V30 13 C 0.2632 1.0957 1.7414 0 CFG=1
M  V30 14 C -0.5815 1.352 -0.645 0
M  V30 15 O 4.7118 0.0346 0.1874 0
M  V30 16 C -1.1195 1.6007 2.1913 0
M  V30 17 C 0.3438 -0.432 1.841 0
M  V30 18 C -1.9191 1.8199 -0.0723 0
M  V30 19 C 5.9821 -0.3342 -0.3288 0
M  V30 20 N -2.1687 1.2115 1.2399 0
M  V30 21 C -3.5083 1.5398 1.7642 0
M  V30 22 C -4.67 0.8439 1.0261 0
M  V30 23 N -4.4994 -0.585 0.9587 0
M  V30 24 N -4.6397 -1.3997 2.049 0
M  V30 25 C -4.0101 -1.3109 -0.1075 0
M  V30 26 N -4.2898 -2.5782 1.7289 0
M  V30 27 O -3.7359 -0.9325 -1.2337 0
M  V30 28 N -3.9054 -2.5835 0.4167 0
M  V30 29 C -3.363 -3.7446 -0.2327 0
M  V30 30 C -1.872 -3.8823 0.0228 0
M  V30 31 H 2.4196 1.0308 -4.7118 0
M  V30 32 H 1.9764 -1.403 -0.4029 0
M  V30 33 H 2.3964 -1.4628 -4.6782 0
M  V30 34 H 0.6185 2.7419 0.4232 0
M  V30 35 H 2.1735 -2.6645 -2.5163 0
M  V30 36 H 4.5465 1.6846 -1.072 0
M  V30 37 H 5.1823 2.0052 0.5483 0
M  V30 38 H 0.9938 1.4933 2.4562 0
M  V30 39 H -0.4183 1.8677 -1.5987 0
M  V30 40 H -0.6444 0.2806 -0.8703 0
M  V30 41 H -1.3345 1.1788 3.1814 0
M  V30 42 H -1.0952 2.692 2.3134 0
M  V30 43 H 1.3742 -0.773 1.7077 0
M  V30 44 H 0.0244 -0.771 2.8328 0
M  V30 45 H -0.2853 -0.934 1.1006 0
M  V30 46 H -2.698 1.5405 -0.7884 0
M  V30 47 H -1.931 2.9156 -0.0017 0
M  V30 48 H 6.1354 -1.3995 -0.1372 0
M  V30 49 H 6.7775 0.2287 0.1689 0
M  V30 50 H 6.0196 -0.1656 -1.4093 0
M  V30 51 H -3.6716 2.625 1.7643 0
M  V30 52 H -3.5648 1.2152 2.8118 0
M  V30 53 H -4.7666 1.2357 0.0083 0
M  V30 54 H -5.6123 1.0459 1.5477 0
M  V30 55 H -3.5369 -3.6529 -1.3102 0
M  V30 56 H -3.8993 -4.6284 0.1279 0
M  V30 57 H -1.6636 -3.9749 1.0938 0
M  V30 58 H -1.3277 -3.007 -0.3475 0
M  V30 59 H -1.4785 -4.7697 -0.4817 0
M  V30 END ATOM
M  V30 BEGIN BOND
M  V30 1 1 1 2
M  V30 2 2 2 3
M  V30 3 1 2 4
M  V30 4 1 3 5
M  V30 5 1 3 6
M  V30 6 2 4 7
M  V30 7 1 5 8
M  V30 8 1 5 9
M  V30 9 2 6 10
M  V30 10 2 8 11
M  V30 11 1 8 12
M  V30 12 1 9 13
M  V30 13 1 9 14
M  V30 14 1 12 15
M  V30 15 1 13 16
M  V30 16 1 13 17
M  V30 17 1 14 18
M  V30 18 1 15 19
M  V30 19 1 16 20
M  V30 20 1 20 21
M  V30 21 1 21 22
M  V30 22 1 22 23
M  V30 23 1 23 24
M  V30 24 1 23 25
M  V30 25 2 24 26
M  V30 26 2 25 27
M  V30 27 1 25 28
M  V30 28 1 28 29
M  V30 29 1 29 30
M  V30 30 1 7 10
M  V30 31 1 18 20
M  V30 32 1 26 28
M  V30 33 1 4 31
M  V30 34 1 6 32
M  V30 35 1 7 33
M  V30 36 1 9 34
M  V30 37 1 10 35
M  V30 38 1 12 36
M  V30 39 1 12 37
M  V30 40 1 13 38
M  V30 41 1 14 39
M  V30 42 1 14 40
M  V30 43 1 16 41
M  V30 44 1 16 42
M  V30 45 1 17 43
M  V30 46 1 17 44
M  V30 47 1 17 45
M  V30 48 1 18 46
M  V30 49 1 18 47
M  V30 50 1 19 48
M  V30 51 1 19 49
M  V30 52 1 19 50
M  V30 53 1 21 51
M  V30 54 1 21 52
M  V30 55 1 22 53
M  V30 56 1 22 54
M  V30 57 1 29 55
M  V30 58 1 29 56
M  V30 59 1 30 57
M  V30 60 1 30 58
M  V30 61 1 30 59
M  V30 END BOND
M  V30 BEGIN COLLECTION
M  V30 MDLV30/STEABS ATOMS=(2 9 13)
M  V30 END COLLECTION
M  V30 END CTAB
M  END
>  <NO.>
1709

>  <Name>
brifentanil

>  <SMILES>
CCn1nnn(CCN2CC[C@H](N(C(=O)COC)c3ccccc3F)[C@H](C)C2)c1=O

>  <logBB>


>  <Class>
1

>  <MW>
420.23

>  <nHBAcc>
6

>  <nHBDon>
0

>  <SLogP>
0.99

>  <TopoPSA>
85.49

>  <MMFF94 Energy>
57.528

$$$$
CN(C(=O)CN(CCO)CCO)c1ccc(Cl)cc1C(=O)c1ccccc1Cl
Actelion Java MolfileCreator 2.0

  0  0  0  0  0  0              0 V3000
M  V30 BEGIN CTAB
M  V30 COUNTS 50 51 0 0 0
M  V30 BEGIN ATOM
M  V30 1 Cl 1.5293 -3.3023 -2.7379 0
M  V30 2 C 1.4147 -2.0041 -3.8707 0
M  V30 3 C 0.924 -0.7327 -3.5452 0
M  V30 4 C 1.7992 -2.283 -5.1884 0
M  V30 5 C 0.5068 -0.3163 -2.1824 0
M  V30 6 C 0.7918 0.2338 -4.5568 0
M  V30 7 C 1.685 -1.309 -6.1818 0
M  V30 8 O -0.479 0.4034 -2.0491 0
M  V30 9 C 1.3173 -0.645 -0.989 0
M  V30 10 C 1.1755 -0.0523 -5.8674 0
M  V30 11 C 0.7299 -1.1583 0.1822 0
M  V30 12 C 2.695 -0.3841 -1.0274 0
M  V30 13 N -0.6441 -1.4764 0.2765 0
M  V30 14 C 1.5381 -1.4365 1.2927 0
M  V30 15 C 3.4806 -0.6586 0.0903 0
M  V30 16 C -1.6497 -0.558 0.5876 0
M  V30 17 C -1.0253 -2.8412 -0.0506 0
M  V30 18 C 2.9104 -1.1841 1.2478 0
M  V30 19 Cl 5.1707 -0.3433 0.0393 0
M  V30 20 O -2.838 -0.9013 0.6253 0
M  V30 21 C -1.246 0.8984 0.9049 0
M  V30 22 N -1.6997 1.3024 2.2671 0
M  V30 23 C -1.607 2.7684 2.42 0
M  V30 24 C -0.8997 0.6076 3.2951 0
M  V30 25 C -2.7029 3.5361 1.6639 0
M  V30 26 C -1.5223 0.6383 4.6988 0
M  V30 27 O -2.6023 4.927 1.9676 0
M  V30 28 O -0.7184 -0.139 5.5866 0
M  V30 29 H 2.1791 -3.2676 -5.4536 0
M  V30 30 H 0.3872 1.2182 -4.3233 0
M  V30 31 H 1.9807 -1.5366 -7.2036 0
M  V30 32 H 1.0708 0.7043 -6.642 0
M  V30 33 H 3.1564 0.0414 -1.9148 0
M  V30 34 H 1.1022 -1.8538 2.1987 0
M  V30 35 H -1.8647 -3.1615 0.5743 0
M  V30 36 H -1.341 -2.8715 -1.0981 0
M  V30 37 H -0.1911 -3.5322 0.1048 0
M  V30 38 H 3.5258 -1.4001 2.1181 0
M  V30 39 H -0.1757 1.0862 0.7945 0
M  V30 40 H -1.7533 1.4937 0.1381 0
M  V30 41 H -0.6173 3.1383 2.1201 0
M  V30 42 H -1.7104 3.0528 3.4735 0
M  V30 43 H 0.1265 0.9972 3.3315 0
M  V30 44 H -0.7992 -0.4542 3.042 0
M  V30 45 H -2.6061 3.4258 0.5808 0
M  V30 46 H -3.6957 3.1901 1.9706 0
M  V30 47 H -1.5756 1.6526 5.1027 0
M  V30 48 H -2.5293 0.2079 4.6816 0
M  V30 49 H -3.3337 5.3647 1.4983 0
M  V30 50 H -1.1804 -0.143 6.443 0
M  V30 END ATOM
M  V30 BEGIN BOND
M  V30 1 1 1 2
M  V30 2 2 2 3
M  V30 3 1 2 4
M  V30 4 1 3 5
M  V30 5 1 3 6
M  V30 6 2 4 7
M  V30 7 2 5 8
M  V30 8 1 5 9
M  V30 9 2 6 10
M  V30 10 2 9 11
M  V30 11 1 9 12
M  V30 12 1 11 13
M  V30 13 1 11 14
M  V30 14 2 12 15
M  V30 15 1 13 16
M  V30 16 1 13 17
M  V30 17 2 14 18
M  V30 18 1 15 19
M  V30 19 2 16 20
M  V30 20 1 16 21
M  V30 21 1 21 22
M  V30 22 1 22 23
M  V30 23 1 22 24
M  V30 24 1 23 25
M  V30 25 1 24 26
M  V30 26 1 25 27
M  V30 27 1 26 28
M  V30 28 1 7 10
M  V30 29 1 15 18
M  V30 30 1 4 29
M  V30 31 1 6 30
M  V30 32 1 7 31
M  V30 33 1 10 32
M  V30 34 1 12 33
M  V30 35 1 14 34
M  V30 36 1 17 35
M  V30 37 1 17 36
M  V30 38 1 17 37
M  V30 39 1 18 38
M  V30 40 1 21 39
M  V30 41 1 21 40
M  V30 42 1 23 41
M  V30 43 1 23 42
M  V30 44 1 24 43
M  V30 45 1 24 44
M  V30 46 1 25 45
M  V30 47 1 25 46
M  V30 48 1 26 47
M  V30 49 1 26 48
M  V30 50 1 27 49
M  V30 51 1 28 50
M  V30 END BOND
M  V30 END CTAB
M  END
>  <NO.>
1710

>  <Name>
dulozafone

>  <SMILES>
CN(C(=O)CN(CCO)CCO)c1ccc(Cl)cc1C(=O)c1ccccc1Cl

>  <logBB>


>  <Class>
1

>  <MW>
424.1

>  <nHBAcc>
5

>  <nHBDon>
2

>  <SLogP>
2.47

>  <TopoPSA>
81.08

>  <MMFF94 Energy>
147.62

$$$$
CN(C(=O)CNC(=O)CN)c1ccc(Cl)cc1C(=O)c1ccccc1Cl
Actelion Java MolfileCreator 2.0

  0  0  0  0  0  0              0 V3000
M  V30 BEGIN CTAB
M  V30 COUNTS 43 44 0 0 0
M  V30 BEGIN ATOM
M  V30 1 Cl -1.6162 1.4545 -1.4545 0
M  V30 2 C -2.8254 1.5617 -0.2296 0
M  V30 3 C -2.6335 1.1038 1.0793 0
M  V30 4 C -4.0592 2.1111 -0.5976 0
M  V30 5 C -1.3665 0.5147 1.5761 0
M  V30 6 C -3.6946 1.167 1.9975 0
M  V30 7 C -5.102 2.1919 0.3271 0
M  V30 8 O -1.4425 -0.5519 2.1782 0
M  V30 9 C -0.0604 1.2279 1.4449 0
M  V30 10 C -4.9219 1.7146 1.6229 0
M  V30 11 C 1.1706 0.5381 1.4064 0
M  V30 12 C -0.0551 2.6334 1.408 0
M  V30 13 N 1.2773 -0.8688 1.5088 0
M  V30 14 C 2.3718 1.258 1.3057 0
M  V30 15 C 1.1477 3.3307 1.2975 0
M  V30 16 C 1.4514 -1.7197 0.4209 0
M  V30 17 C 1.3281 -1.4301 2.8504 0
M  V30 18 C 2.3595 2.6508 1.2415 0
M  V30 19 Cl 1.1315 5.0501 1.2437 0
M  V30 20 O 1.6764 -2.9271 0.5599 0
M  V30 21 C 1.3698 -1.0948 -0.9758 0
M  V30 22 N 1.5486 -2.0993 -2.0004 0
M  V30 23 C 1.7 -1.7911 -3.3269 0
M  V30 24 O 1.7015 -0.6403 -3.755 0
M  V30 25 C 1.8295 -3.0116 -4.245 0
M  V30 26 N 2.2459 -4.2128 -3.4946 0
M  V30 27 H -4.2204 2.4692 -1.6123 0
M  V30 28 H -3.5653 0.784 3.0089 0
M  V30 29 H -6.0597 2.6144 0.0309 0
M  V30 30 H -5.7384 1.7609 2.3403 0
M  V30 31 H -0.9797 3.2009 1.4751 0
M  V30 32 H 3.3254 0.7337 1.283 0
M  V30 33 H 0.9098 -0.7397 3.5893 0
M  V30 34 H 0.7704 -2.3714 2.8808 0
M  V30 35 H 2.3736 -1.6393 3.0982 0
M  V30 36 H 3.2965 3.1963 1.1596 0
M  V30 37 H 0.3841 -0.6488 -1.1197 0
M  V30 38 H 2.1446 -0.3335 -1.1006 0
M  V30 39 H 1.5542 -3.0861 -1.7395 0
M  V30 40 H 0.8562 -3.1907 -4.7112 0
M  V30 41 H 2.568 -2.7894 -5.0212 0
M  V30 42 H 3.1865 -4.0548 -3.1297 0
M  V30 43 H 2.3289 -4.9901 -4.1491 0
M  V30 END ATOM
M  V30 BEGIN BOND
M  V30 1 1 1 2
M  V30 2 2 2 3
M  V30 3 1 2 4
M  V30 4 1 3 5
M  V30 5 1 3 6
M  V30 6 2 4 7
M  V30 7 2 5 8
M  V30 8 1 5 9
M  V30 9 2 6 10
M  V30 10 2 9 11
M  V30 11 1 9 12
M  V30 12 1 11 13
M  V30 13 1 11 14
M  V30 14 2 12 15
M  V30 15 1 13 16
M  V30 16 1 13 17
M  V30 17 2 14 18
M  V30 18 1 15 19
M  V30 19 2 16 20
M  V30 20 1 16 21
M  V30 21 1 21 22
M  V30 22 1 22 23
M  V30 23 2 23 24
M  V30 24 1 23 25
M  V30 25 1 25 26
M  V30 26 1 7 10
M  V30 27 1 15 18
M  V30 28 1 4 27
M  V30 29 1 6 28
M  V30 30 1 7 29
M  V30 31 1 10 30
M  V30 32 1 12 31
M  V30 33 1 14 32
M  V30 34 1 17 33
M  V30 35 1 17 34
M  V30 36 1 17 35
M  V30 37 1 18 36
M  V30 38 1 21 37
M  V30 39 1 21 38
M  V30 40 1 22 39
M  V30 41 1 25 40
M  V30 42 1 25 41
M  V30 43 1 26 42
M  V30 44 1 26 43
M  V30 END BOND
M  V30 END CTAB
M  END
>  <NO.>
1711

>  <Name>
lorzafone

>  <SMILES>
CN(C(=O)CNC(=O)CN)c1ccc(Cl)cc1C(=O)c1ccccc1Cl

>  <logBB>


>  <Class>
1

>  <MW>
393.06

>  <nHBAcc>
4

>  <nHBDon>
2

>  <SLogP>
2.26

>  <TopoPSA>
92.5

>  <MMFF94 Energy>
106.04

$$$$
CN(C(=O)CNC(=O)[C@@H](N)CCCCN)c1ccc(Cl)cc1C(=O)c1ccccc1
Actelion Java MolfileCreator 2.0

  0  0  0  0  0  0              0 V3000
M  V30 BEGIN CTAB
M  V30 COUNTS 57 58 0 0 0
M  V30 BEGIN ATOM
M  V30 1 Cl 1.5853 -5.6369 -4.921 0
M  V30 2 C 0.8081 -4.3464 -4.0899 0
M  V30 3 C 1.1528 -3.0294 -4.3862 0
M  V30 4 C -0.1633 -4.6303 -3.1291 0
M  V30 5 C 0.5191 -1.9845 -3.7026 0
M  V30 6 C -0.8019 -3.5876 -2.4534 0
M  V30 7 C -0.4647 -2.2601 -2.7387 0
M  V30 8 C 0.8605 -0.591 -4.0568 0
M  V30 9 N -1.1098 -1.2287 -2.014 0
M  V30 10 O -0.0255 0.1395 -4.4921 0
M  V30 11 C 2.2546 -0.0923 -3.9192 0
M  V30 12 C -0.4195 -0.5958 -0.9847 0
M  V30 13 C -2.4166 -0.805 -2.5017 0
M  V30 14 C 2.6505 1.0029 -4.6967 0
M  V30 15 C 3.162 -0.6703 -3.0231 0
M  V30 16 O 0.7109 -0.9401 -0.6194 0
M  V30 17 C -1.1333 0.5767 -0.3058 0
M  V30 18 C 3.9507 1.5004 -4.5972 0
M  V30 19 C 4.4618 -0.1683 -2.926 0
M  V30 20 N -0.3299 1.0753 0.7925 0
M  V30 21 C 4.8559 0.9122 -3.7148 0
M  V30 22 C -0.7961 2.0477 1.6407 0
M  V30 23 O -1.9219 2.5345 1.5382 0
M  V30 24 C 0.1898 2.4488 2.7604 0 CFG=1
M  V30 25 N -0.0443 3.8495 3.1523 0
M  V30 26 C 0.0992 1.4693 3.9423 0
M  V30 27 C -1.2589 1.4539 4.6576 0
M  V30 28 C -1.2564 0.4577 5.8227 0
M  V30 29 C -2.5687 0.4385 6.6097 0
M  V30 30 N -3.68 -0.0719 5.8161 0
M  V30 31 H 1.8971 -2.8189 -5.1497 0
M  V30 32 H -0.4259 -5.6602 -2.8999 0
M  V30 33 H -1.5496 -3.8154 -1.6977 0
M  V30 34 H -3.1454 -0.9072 -1.6922 0
M  V30 35 H -2.3677 0.246 -2.8006 0
M  V30 36 H -2.7409 -1.4086 -3.3552 0
M  V30 37 H 1.9472 1.471 -5.3827 0
M  V30 38 H 2.8698 -1.4918 -2.3734 0
M  V30 39 H -1.276 1.3919 -1.0213 0
M  V30 40 H -2.1008 0.2537 0.0897 0
M  V30 41 H 4.2546 2.3495 -5.2042 0
M  V30 42 H 5.1641 -0.6142 -2.2258 0
M  V30 43 H 0.6077 0.6964 0.8889 0
M  V30 44 H 5.8673 1.3033 -3.6341 0
M  V30 45 H 1.2055 2.3956 2.3504 0
M  V30 46 H -1.0537 4.0202 3.1108 0
M  V30 47 H 0.2358 3.9961 4.1188 0
M  V30 48 H 0.8837 1.7177 4.669 0
M  V30 49 H 0.319 0.4557 3.583 0
M  V30 50 H -2.0431 1.1835 3.9432 0
M  V30 51 H -1.4954 2.4531 5.0407 0
M  V30 52 H -1.0357 -0.5497 5.448 0
M  V30 53 H -0.4459 0.7194 6.5145 0
M  V30 54 H -2.8074 1.4442 6.9733 0
M  V30 55 H -2.4454 -0.2048 7.4876 0
M  V30 56 H -4.5265 -0.0731 6.3845 0
M  V30 57 H -3.8698 0.5588 5.0378 0
M  V30 END ATOM
M  V30 BEGIN BOND
M  V30 1 1 1 2
M  V30 2 2 2 3
M  V30 3 1 2 4
M  V30 4 1 3 5
M  V30 5 2 4 6
M  V30 6 2 5 7
M  V30 7 1 5 8
M  V30 8 1 7 9
M  V30 9 2 8 10
M  V30 10 1 8 11
M  V30 11 1 9 12
M  V30 12 1 9 13
M  V30 13 2 11 14
M  V30 14 1 11 15
M  V30 15 2 12 16
M  V30 16 1 12 17
M  V30 17 1 14 18
M  V30 18 2 15 19
M  V30 19 1 17 20
M  V30 20 2 18 21
M  V30 21 1 20 22
M  V30 22 2 22 23
M  V30 23 1 22 24
M  V30 24 1 24 25
M  V30 25 1 24 26
M  V30 26 1 26 27
M  V30 27 1 27 28
M  V30 28 1 28 29
M  V30 29 1 29 30
M  V30 30 1 6 7
M  V30 31 1 19 21
M  V30 32 1 3 31
M  V30 33 1 4 32
M  V30 34 1 6 33
M  V30 35 1 13 34
M  V30 36 1 13 35
M  V30 37 1 13 36
M  V30 38 1 14 37
M  V30 39 1 15 38
M  V30 40 1 17 39
M  V30 41 1 17 40
M  V30 42 1 18 41
M  V30 43 1 19 42
M  V30 44 1 20 43
M  V30 45 1 21 44
M  V30 46 1 24 45
M  V30 47 1 25 46
M  V30 48 1 25 47
M  V30 49 1 26 48
M  V30 50 1 26 49
M  V30 51 1 27 50
M  V30 52 1 27 51
M  V30 53 1 28 52
M  V30 54 1 28 53
M  V30 55 1 29 54
M  V30 56 1 29 55
M  V30 57 1 30 56
M  V30 58 1 30 57
M  V30 END BOND
M  V30 BEGIN COLLECTION
M  V30 MDLV30/STEABS ATOMS=(1 24)
M  V30 END COLLECTION
M  V30 END CTAB
M  END
>  <NO.>
1712

>  <Name>
avizafone

>  <SMILES>
CN(C(=O)CNC(=O)[C@@H](N)CCCCN)c1ccc(Cl)cc1C(=O)c1ccccc1

>  <logBB>


>  <Class>
1

>  <MW>
430.18

>  <nHBAcc>
5

>  <nHBDon>
3

>  <SLogP>
2.11

>  <TopoPSA>
118.52

>  <MMFF94 Energy>
108.24

$$$$
CN(C(=O)CNC1CC1)c1ccc(Cl)cc1C(=O)c1ccccc1Cl
Actelion Java MolfileCreator 2.0

  0  0  0  0  0  0              0 V3000
M  V30 BEGIN CTAB
M  V30 COUNTS 43 45 0 0 0
M  V30 BEGIN ATOM
M  V30 1 Cl 3.1688 -3.8198 -1.2178 0
M  V30 2 C 2.6233 -2.6407 -2.3546 0
M  V30 3 C 1.9197 -1.4943 -1.9718 0
M  V30 4 C 2.9531 -2.8289 -3.7001 0
M  V30 5 C 1.5355 -1.2577 -0.5652 0
M  V30 6 C 1.5461 -0.5424 -2.9308 0
M  V30 7 C 2.5807 -1.8804 -4.6557 0
M  V30 8 O 0.7663 -2.0383 -0.015 0
M  V30 9 C 2.0742 -0.0666 0.1473 0
M  V30 10 C 1.8789 -0.7383 -4.2714 0
M  V30 11 C 1.2719 0.6797 1.0318 0
M  V30 12 C 3.4168 0.2927 -0.0436 0
M  V30 13 N -0.0994 0.3874 1.2414 0
M  V30 14 C 1.8177 1.7797 1.7073 0
M  V30 15 C 3.9438 1.3898 0.6368 0
M  V30 16 C -1.0 0.5974 0.1993 0
M  V30 17 C -0.4458 -0.2582 2.5014 0
M  V30 18 C 3.1528 2.1341 1.5096 0
M  V30 19 Cl 5.5911 1.8265 0.3991 0
M  V30 20 O -0.6918 1.1898 -0.8423 0
M  V30 21 C -2.4334 0.0928 0.3906 0
M  V30 22 N -3.2277 1.1453 1.0458 0
M  V30 23 C -4.6216 0.7403 1.2375 0
M  V30 24 C -5.0045 -0.0135 2.4791 0
M  V30 25 C -5.4212 1.4189 2.3133 0
M  V30 26 H 3.5045 -3.713 -4.0117 0
M  V30 27 H 0.9822 0.3438 -2.6441 0
M  V30 28 H 2.8376 -2.0338 -5.7015 0
M  V30 29 H 1.5834 -0.0027 -5.0165 0
M  V30 30 H 4.0609 -0.2826 -0.7028 0
M  V30 31 H 1.1983 2.3737 2.3756 0
M  V30 32 H -1.3575 0.1879 2.9076 0
M  V30 33 H -0.6226 -1.3222 2.3183 0
M  V30 34 H 0.3549 -0.1493 3.2395 0
M  V30 35 H 3.5659 2.9921 2.0342 0
M  V30 36 H -2.8413 -0.1343 -0.6017 0
M  V30 37 H -2.4453 -0.8365 0.9668 0
M  V30 38 H -3.1775 1.9853 0.4639 0
M  V30 39 H -5.1633 0.4938 0.3257 0
M  V30 40 H -5.7665 -0.7788 2.3914 0
M  V30 41 H -4.235 -0.2337 3.2095 0
M  V30 42 H -6.4663 1.6249 2.1146 0
M  V30 43 H -4.9315 2.1623 2.9317 0
M  V30 END ATOM
M  V30 BEGIN BOND
M  V30 1 1 1 2
M  V30 2 2 2 3
M  V30 3 1 2 4
M  V30 4 1 3 5
M  V30 5 1 3 6
M  V30 6 2 4 7
M  V30 7 2 5 8
M  V30 8 1 5 9
M  V30 9 2 6 10
M  V30 10 2 9 11
M  V30 11 1 9 12
M  V30 12 1 11 13
M  V30 13 1 11 14
M  V30 14 2 12 15
M  V30 15 1 13 16
M  V30 16 1 13 17
M  V30 17 2 14 18
M  V30 18 1 15 19
M  V30 19 2 16 20
M  V30 20 1 16 21
M  V30 21 1 21 22
M  V30 22 1 22 23
M  V30 23 1 23 24
M  V30 24 1 23 25
M  V30 25 1 7 10
M  V30 26 1 15 18
M  V30 27 1 24 25
M  V30 28 1 4 26
M  V30 29 1 6 27
M  V30 30 1 7 28
M  V30 31 1 10 29
M  V30 32 1 12 30
M  V30 33 1 14 31
M  V30 34 1 17 32
M  V30 35 1 17 33
M  V30 36 1 17 34
M  V30 37 1 18 35
M  V30 38 1 21 36
M  V30 39 1 21 37
M  V30 40 1 22 38
M  V30 41 1 23 39
M  V30 42 1 24 40
M  V30 43 1 24 41
M  V30 44 1 25 42
M  V30 45 1 25 43
M  V30 END BOND
M  V30 END CTAB
M  END
>  <NO.>
1713

>  <Name>
ciprazafone

>  <SMILES>
CN(C(=O)CNC1CC1)c1ccc(Cl)cc1C(=O)c1ccccc1Cl

>  <logBB>


>  <Class>
1

>  <MW>
376.07

>  <nHBAcc>
3

>  <nHBDon>
1

>  <SLogP>
3.94

>  <TopoPSA>
49.41

>  <MMFF94 Energy>
98.539

$$$$
CN(C(=O)Cc1ccc(Cl)c(Cl)c1)C1CCCC[C@H]1N1CCCC1
Actelion Java MolfileCreator 2.0

  0  0  0  0  0  0              0 V3000
M  V30 BEGIN CTAB
M  V30 COUNTS 50 52 0 0 0
M  V30 BEGIN ATOM
M  V30 1 Cl 5.7445 0.1614 -2.1815 0
M  V30 2 C 4.6115 1.4407 -1.925 0
M  V30 3 C 5.0112 2.7512 -1.6477 0
M  V30 4 C 3.2486 1.1302 -2.0033 0
M  V30 5 Cl 6.6723 3.2117 -1.533 0
M  V30 6 C 4.0467 3.7443 -1.4564 0
M  V30 7 C 2.2725 2.1179 -1.7912 0
M  V30 8 C 2.687 3.4315 -1.5334 0
M  V30 9 C 0.7978 1.7917 -1.8934 0
M  V30 10 C 0.3965 0.5103 -1.174 0
M  V30 11 O 0.1893 -0.5053 -1.8441 0
M  V30 12 N 0.287 0.522 0.2135 0
M  V30 13 C 0.0121 -0.7422 0.942 0
M  V30 14 C 0.5814 1.6763 1.0554 0
M  V30 15 C -1.3519 -1.4642 0.5983 0 CFG=2
M  V30 16 C 1.237 -1.6729 0.815 0
M  V30 17 N -2.5537 -0.6254 0.9066 0
M  V30 18 C -1.4176 -2.7991 1.3942 0
M  V30 19 C 1.0788 -2.9516 1.6199 0
M  V30 20 C -3.8264 -1.3585 0.8363 0
M  V30 21 C -2.7433 0.4908 -0.0313 0
M  V30 22 C -0.1875 -3.6809 1.2112 0
M  V30 23 C -4.8652 -0.2533 0.8554 0
M  V30 24 C -4.209 0.8904 0.1058 0
M  V30 25 H 2.9475 0.1081 -2.2327 0
M  V30 26 H 4.3486 4.7687 -1.2499 0
M  V30 27 H 1.9549 4.2245 -1.3898 0
M  V30 28 H 0.1706 2.6171 -1.5402 0
M  V30 29 H 0.5531 1.6723 -2.957 0
M  V30 30 H -0.0584 -0.4738 2.0068 0
M  V30 31 H 0.6064 2.6139 0.503 0
M  V30 32 H 1.5544 1.5176 1.5295 0
M  V30 33 H -0.1892 1.7638 1.8276 0
M  V30 34 H -1.3708 -1.7322 -0.4648 0
M  V30 35 H 1.4157 -1.9391 -0.233 0
M  V30 36 H 2.1378 -1.1454 1.1536 0
M  V30 37 H -1.5475 -2.5854 2.4637 0
M  V30 38 H -2.2833 -3.3925 1.0779 0
M  V30 39 H 1.948 -3.5993 1.4598 0
M  V30 40 H 1.0467 -2.7165 2.6907 0
M  V30 41 H -3.9083 -1.9356 -0.0936 0
M  V30 42 H -3.978 -2.0268 1.6895 0
M  V30 43 H -2.5528 0.1879 -1.0682 0
M  V30 44 H -2.1148 1.3507 0.2079 0
M  V30 45 H -0.1144 -3.9982 0.1638 0
M  V30 46 H -0.2969 -4.59 1.8135 0
M  V30 47 H -5.0786 0.0532 1.8868 0
M  V30 48 H -5.8083 -0.5631 0.3948 0
M  V30 49 H -4.6653 1.031 -0.88 0
M  V30 50 H -4.321 1.8259 0.6651 0
M  V30 END ATOM
M  V30 BEGIN BOND
M  V30 1 1 1 2
M  V30 2 2 2 3
M  V30 3 1 2 4
M  V30 4 1 3 5
M  V30 5 1 3 6
M  V30 6 2 4 7
M  V30 7 2 6 8
M  V30 8 1 7 9
M  V30 9 1 9 10
M  V30 10 2 10 11
M  V30 11 1 10 12
M  V30 12 1 12 13
M  V30 13 1 12 14
M  V30 14 1 13 15
M  V30 15 1 13 16
M  V30 16 1 15 17
M  V30 17 1 15 18
M  V30 18 1 16 19
M  V30 19 1 17 20
M  V30 20 1 17 21
M  V30 21 1 18 22
M  V30 22 1 20 23
M  V30 23 1 21 24
M  V30 24 1 7 8
M  V30 25 1 19 22
M  V30 26 1 23 24
M  V30 27 1 4 25
M  V30 28 1 6 26
M  V30 29 1 8 27
M  V30 30 1 9 28
M  V30 31 1 9 29
M  V30 32 1 13 30
M  V30 33 1 14 31
M  V30 34 1 14 32
M  V30 35 1 14 33
M  V30 36 1 15 34
M  V30 37 1 16 35
M  V30 38 1 16 36
M  V30 39 1 18 37
M  V30 40 1 18 38
M  V30 41 1 19 39
M  V30 42 1 19 40
M  V30 43 1 20 41
M  V30 44 1 20 42
M  V30 45 1 21 43
M  V30 46 1 21 44
M  V30 47 1 22 45
M  V30 48 1 22 46
M  V30 49 1 23 47
M  V30 50 1 23 48
M  V30 51 1 24 49
M  V30 52 1 24 50
M  V30 END BOND
M  V30 BEGIN COLLECTION
M  V30 MDLV30/STEABS ATOMS=(1 15)
M  V30 END COLLECTION
M  V30 END CTAB
M  END
>  <NO.>
1714

>  <Name>
u50488

>  <SMILES>
CN(C(=O)Cc1ccc(Cl)c(Cl)c1)C1CCCC[C@H]1N1CCCC1

>  <logBB>


>  <Class>
1

>  <MW>
368.14

>  <nHBAcc>
2

>  <nHBDon>
0

>  <SLogP>
4.4

>  <TopoPSA>
23.55

>  <MMFF94 Energy>
68.07

$$$$
CN(C(=O)Cc1ccc(Cl)c(Cl)c1)[C@@H](CN1CCCC1)c1ccccc1
Actelion Java MolfileCreator 2.0

  0  0  0  0  0  0              0 V3000
M  V30 BEGIN CTAB
M  V30 COUNTS 50 52 0 0 0
M  V30 BEGIN ATOM
M  V30 1 Cl 1.7769 -6.2296 -3.6371 0
M  V30 2 C 2.5577 -4.8999 -2.8561 0
M  V30 3 C 3.7784 -4.3816 -3.2994 0
M  V30 4 C 1.927 -4.3397 -1.7392 0
M  V30 5 Cl 4.618 -5.0234 -4.6665 0
M  V30 6 C 4.3599 -3.3036 -2.6263 0
M  V30 7 C 2.5105 -3.2634 -1.0533 0
M  V30 8 C 3.729 -2.7455 -1.5116 0
M  V30 9 C 1.8164 -2.6473 0.1416 0
M  V30 10 C 0.9021 -1.4757 -0.2074 0
M  V30 11 O 0.5325 -1.2691 -1.3647 0
M  V30 12 N 0.501 -0.652 0.8432 0
M  V30 13 C -0.2741 0.5739 0.509 0 CFG=2
M  V30 14 C 0.7294 -0.9567 2.2534 0
M  V30 15 C 0.2084 1.773 1.3248 0
M  V30 16 C -1.8076 0.2539 0.5383 0
M  V30 17 C -0.5227 2.3271 2.3856 0
M  V30 18 C 1.4621 2.3344 1.0169 0
M  V30 19 N -2.7113 1.3474 0.1431 0
M  V30 20 C -0.0194 3.41 3.1116 0
M  V30 21 C 1.9644 3.4153 1.7434 0
M  V30 22 C -2.5193 1.7845 -1.2418 0
M  V30 23 C -4.1189 0.9531 0.2212 0
M  V30 24 C 1.2227 3.9528 2.7916 0
M  V30 25 C -3.7943 2.5583 -1.5513 0
M  V30 26 C -4.8202 2.0679 -0.5362 0
M  V30 27 H 0.9696 -4.7377 -1.4085 0
M  V30 28 H 5.3046 -2.8881 -2.969 0
M  V30 29 H 4.1924 -1.8981 -1.0096 0
M  V30 30 H 1.2166 -3.4137 0.6471 0
M  V30 31 H 2.5843 -2.314 0.8499 0
M  V30 32 H -0.0463 0.8275 -0.535 0
M  V30 33 H 0.9553 -2.0126 2.4107 0
M  V30 34 H -0.1669 -0.7204 2.8335 0
M  V30 35 H 1.573 -0.3606 2.6122 0
M  V30 36 H -2.0765 -0.0609 1.5553 0
M  V30 37 H -1.989 -0.6232 -0.0987 0
M  V30 38 H -1.4996 1.9346 2.6566 0
M  V30 39 H 2.0539 1.9249 0.2001 0
M  V30 40 H -0.6038 3.8337 3.9245 0
M  V30 41 H 2.9321 3.8388 1.4882 0
M  V30 42 H -1.6363 2.4202 -1.3593 0
M  V30 43 H -2.4305 0.9315 -1.9266 0
M  V30 44 H -4.4722 0.8852 1.255 0
M  V30 45 H -4.3008 -0.0079 -0.2763 0
M  V30 46 H 1.6089 4.7976 3.3555 0
M  V30 47 H -3.6391 3.637 -1.4336 0
M  V30 48 H -4.1272 2.3769 -2.5785 0
M  V30 49 H -5.738 1.7177 -1.0187 0
M  V30 50 H -5.0886 2.8863 0.1427 0
M  V30 END ATOM
M  V30 BEGIN BOND
M  V30 1 1 1 2
M  V30 2 2 2 3
M  V30 3 1 2 4
M  V30 4 1 3 5
M  V30 5 1 3 6
M  V30 6 2 4 7
M  V30 7 2 6 8
M  V30 8 1 7 9
M  V30 9 1 9 10
M  V30 10 2 10 11
M  V30 11 1 10 12
M  V30 12 1 12 13
M  V30 13 1 12 14
M  V30 14 1 13 15
M  V30 15 1 13 16
M  V30 16 2 15 17
M  V30 17 1 15 18
M  V30 18 1 16 19
M  V30 19 1 17 20
M  V30 20 2 18 21
M  V30 21 1 19 22
M  V30 22 1 19 23
M  V30 23 2 20 24
M  V30 24 1 22 25
M  V30 25 1 23 26
M  V30 26 1 7 8
M  V30 27 1 21 24
M  V30 28 1 25 26
M  V30 29 1 4 27
M  V30 30 1 6 28
M  V30 31 1 8 29
M  V30 32 1 9 30
M  V30 33 1 9 31
M  V30 34 1 13 32
M  V30 35 1 14 33
M  V30 36 1 14 34
M  V30 37 1 14 35
M  V30 38 1 16 36
M  V30 39 1 16 37
M  V30 40 1 17 38
M  V30 41 1 18 39
M  V30 42 1 20 40
M  V30 43 1 21 41
M  V30 44 1 22 42
M  V30 45 1 22 43
M  V30 46 1 23 44
M  V30 47 1 23 45
M  V30 48 1 24 46
M  V30 49 1 25 47
M  V30 50 1 25 48
M  V30 51 1 26 49
M  V30 52 1 26 50
M  V30 END BOND
M  V30 BEGIN COLLECTION
M  V30 MDLV30/STEABS ATOMS=(1 13)
M  V30 END COLLECTION
M  V30 END CTAB
M  END
>  <NO.>
1715

>  <Name>
chembl106345

>  <SMILES>
CN(C(=O)Cc1ccc(Cl)c(Cl)c1)[C@@H](CN1CCCC1)c1ccccc1

>  <logBB>


>  <Class>
1

>  <MW>
390.13

>  <nHBAcc>
2

>  <nHBDon>
0

>  <SLogP>
4.83

>  <TopoPSA>
23.55

>  <MMFF94 Energy>
89.754

$$$$
CN(C(=O)Cc1ccc(Cl)c(Cl)c1)[C@H]1CC[C@@]2(CCCO2)C[C@@H]1N1CCCC1
Actelion Java MolfileCreator 2.0

  0  0  0  0  0  0              0 V3000
M  V30 BEGIN CTAB
M  V30 COUNTS 58 61 0 0 0
M  V30 BEGIN ATOM
M  V30 1 Cl -6.9742 -0.3235 -2.1856 0
M  V30 2 C -5.3309 -0.4395 -2.7081 0
M  V30 3 C -4.8975 -1.4179 -3.6079 0
M  V30 4 C -4.4195 0.4931 -2.1998 0
M  V30 5 Cl -5.9648 -2.5986 -4.2805 0
M  V30 6 C -3.5547 -1.4613 -3.992 0
M  V30 7 C -3.072 0.4608 -2.589 0
M  V30 8 C -2.6463 -0.5296 -3.484 0
M  V30 9 C -2.0844 1.4569 -2.0216 0
M  V30 10 C -1.331 0.9544 -0.7924 0
M  V30 11 O -1.681 -0.0711 -0.2065 0
M  V30 12 N -0.2279 1.7037 -0.374 0
M  V30 13 C 0.6085 1.2205 0.752 0 CFG=2
M  V30 14 C 0.142 2.998 -0.9344 0
M  V30 15 C 1.2562 -0.1988 0.5499 0 CFG=1
M  V30 16 C -0.1828 1.3262 2.0731 0
M  V30 17 N 2.1534 -0.4016 -0.6039 0
M  V30 18 C 2.048 -0.5947 1.8176 0
M  V30 19 C 0.6214 0.8571 3.278 0
M  V30 20 C 1.5155 -0.5836 -1.8978 0
M  V30 21 C 3.2538 0.5322 -0.7974 0
M  V30 22 C 1.2013 -0.5519 3.0941 0 CFG=2
M  V30 23 C 2.7221 -0.7201 -2.8092 0
M  V30 24 C 3.7583 0.2194 -2.2046 0
M  V30 25 O 2.0709 -0.7976 4.2238 0
M  V30 26 C 0.1419 -1.6584 3.1405 0
M  V30 27 C 1.5029 -1.8316 5.0388 0
M  V30 28 C 0.0619 -1.9822 4.6119 0
M  V30 29 H -4.7605 1.2424 -1.4882 0
M  V30 30 H -3.2065 -2.2248 -4.6834 0
M  V30 31 H -1.6021 -0.5902 -3.7842 0
M  V30 32 H -1.3656 1.7085 -2.8104 0
M  V30 33 H -2.6134 2.3784 -1.7507 0
M  V30 34 H 1.4401 1.932 0.8484 0
M  V30 35 H -0.6092 3.4003 -1.6138 0
M  V30 36 H 1.0853 2.8877 -1.4751 0
M  V30 37 H 0.2717 3.7136 -0.1165 0
M  V30 38 H 0.4554 -0.9409 0.455 0
M  V30 39 H -0.4853 2.3694 2.2314 0
M  V30 40 H -1.1151 0.7556 2.0217 0
M  V30 41 H 2.4787 -1.5989 1.7011 0
M  V30 42 H 2.9116 0.0713 1.9522 0
M  V30 43 H 1.442 1.5645 3.4607 0
M  V30 44 H -4.0E-4 0.9061 4.1802 0
M  V30 45 H 0.9295 0.2843 -2.2094 0
M  V30 46 H 0.8838 -1.4761 -1.9366 0
M  V30 47 H 2.934 1.5776 -0.7589 0
M  V30 48 H 4.0511 0.39 -0.0618 0
M  V30 49 H 3.1004 -1.7497 -2.79 0
M  V30 50 H 2.4906 -0.4656 -3.8478 0
M  V30 51 H 3.8388 1.139 -2.7947 0
M  V30 52 H 4.744 -0.2574 -2.1858 0
M  V30 53 H -0.8256 -1.3791 2.7165 0
M  V30 54 H 0.4904 -2.5493 2.603 0
M  V30 55 H 1.604 -1.5659 6.0946 0
M  V30 56 H 2.0692 -2.7507 4.8542 0
M  V30 57 H -0.565 -1.2455 5.1267 0
M  V30 58 H -0.3411 -2.9768 4.8197 0
M  V30 END ATOM
M  V30 BEGIN BOND
M  V30 1 1 1 2
M  V30 2 2 2 3
M  V30 3 1 2 4
M  V30 4 1 3 5
M  V30 5 1 3 6
M  V30 6 2 4 7
M  V30 7 2 6 8
M  V30 8 1 7 9
M  V30 9 1 9 10
M  V30 10 2 10 11
M  V30 11 1 10 12
M  V30 12 1 12 13
M  V30 13 1 12 14
M  V30 14 1 13 15
M  V30 15 1 13 16
M  V30 16 1 15 17
M  V30 17 1 15 18
M  V30 18 1 16 19
M  V30 19 1 17 20
M  V30 20 1 17 21
M  V30 21 1 18 22
M  V30 22 1 20 23
M  V30 23 1 21 24
M  V30 24 1 22 25
M  V30 25 1 22 26
M  V30 26 1 25 27
M  V30 27 1 26 28
M  V30 28 1 7 8
M  V30 29 1 19 22
M  V30 30 1 23 24
M  V30 31 1 27 28
M  V30 32 1 4 29
M  V30 33 1 6 30
M  V30 34 1 8 31
M  V30 35 1 9 32
M  V30 36 1 9 33
M  V30 37 1 13 34
M  V30 38 1 14 35
M  V30 39 1 14 36
M  V30 40 1 14 37
M  V30 41 1 15 38
M  V30 42 1 16 39
M  V30 43 1 16 40
M  V30 44 1 18 41
M  V30 45 1 18 42
M  V30 46 1 19 43
M  V30 47 1 19 44
M  V30 48 1 20 45
M  V30 49 1 20 46
M  V30 50 1 21 47
M  V30 51 1 21 48
M  V30 52 1 23 49
M  V30 53 1 23 50
M  V30 54 1 24 51
M  V30 55 1 24 52
M  V30 56 1 26 53
M  V30 57 1 26 54
M  V30 58 1 27 55
M  V30 59 1 27 56
M  V30 60 1 28 57
M  V30 61 1 28 58
M  V30 END BOND
M  V30 BEGIN COLLECTION
M  V30 MDLV30/STEABS ATOMS=(3 13 15 22)
M  V30 END COLLECTION
M  V30 END CTAB
M  END
>  <NO.>
1716

>  <Name>
spiradoline

>  <SMILES>
CN(C(=O)Cc1ccc(Cl)c(Cl)c1)[C@H]1CC[C@@]2(CCCO2)C[C@@H]1N1CCCC1

>  <logBB>


>  <Class>
1

>  <MW>
424.17

>  <nHBAcc>
3

>  <nHBDon>
0

>  <SLogP>
4.56

>  <TopoPSA>
32.78

>  <MMFF94 Energy>
86.344

$$$$
CN(C(=O)Cc1ccccc1N)[C@@H](CN1CC[C@@H](O)C1)c1ccccc1
Actelion Java MolfileCreator 2.0

  0  0  0  0  0  0              0 V3000
M  V30 BEGIN CTAB
M  V30 COUNTS 53 55 0 0 0
M  V30 BEGIN ATOM
M  V30 1 O 0.079 0.079 0.6322 0
M  V30 2 C 0.9088 -0.342 -0.1756 0
M  V30 3 N 0.9646 0.0969 -1.5083 0
M  V30 4 C 1.9195 -1.4151 0.2256 0
M  V30 5 C 0.1017 1.2109 -1.9684 0 CFG=2
M  V30 6 C 1.8012 -0.5133 -2.5326 0
M  V30 7 C 2.0486 -1.6949 1.7115 0
M  V30 8 C 0.346 2.5036 -1.1925 0
M  V30 9 C -1.399 0.8317 -2.2519 0
M  V30 10 C 1.0093 -2.279 2.4601 0
M  V30 11 C 3.274 -1.4124 2.3459 0
M  V30 12 C -0.4945 2.9298 -0.1551 0
M  V30 13 C 1.4643 3.2974 -1.5077 0
M  V30 14 N -2.0213 -0.0837 -1.3014 0
M  V30 15 N -0.2143 -2.6124 1.8782 0
M  V30 16 C 1.2561 -2.6591 3.7858 0
M  V30 17 C 3.4829 -1.7453 3.6836 0
M  V30 18 C -0.2413 4.1197 0.5312 0
M  V30 19 C 1.7159 4.4888 -0.8238 0
M  V30 20 C -3.398 0.233 -0.9244 0
M  V30 21 C -2.0282 -1.4923 -1.6939 0
M  V30 22 C 2.4773 -2.3816 4.4007 0
M  V30 23 C 0.86 4.9015 0.1936 0
M  V30 24 C -3.6793 -0.9579 -0.0121 0 CFG=1
M  V30 25 C -3.0538 -2.1337 -0.7561 0
M  V30 26 O -2.9978 -0.7834 1.2363 0
M  V30 27 H 2.9023 -1.1133 -0.1562 0
M  V30 28 H 1.6484 -2.3527 -0.2748 0
M  V30 29 H 0.47 1.4597 -2.9766 0
M  V30 30 H 2.2718 -1.442 -2.2119 0
M  V30 31 H 2.579 0.2017 -2.8155 0
M  V30 32 H 1.1805 -0.7397 -3.4053 0
M  V30 33 H -1.4502 0.3916 -3.2573 0
M  V30 34 H -1.9778 1.7622 -2.3266 0
M  V30 35 H 4.0836 -0.9408 1.794 0
M  V30 36 H -1.3386 2.3187 0.1553 0
M  V30 37 H 2.1519 2.9882 -2.2912 0
M  V30 38 H -0.5315 -1.9766 1.1511 0
M  V30 39 H -0.961 -2.8983 2.5006 0
M  V30 40 H 0.4811 -3.1595 4.36 0
M  V30 41 H 4.4341 -1.5226 4.1587 0
M  V30 42 H -0.8983 4.4239 1.3419 0
M  V30 43 H 2.5836 5.0903 -1.0799 0
M  V30 44 H -4.0673 0.2455 -1.7924 0
M  V30 45 H -3.461 1.1827 -0.3849 0
M  V30 46 H -2.3541 -1.6265 -2.7327 0
M  V30 47 H -1.0459 -1.9593 -1.5809 0
M  V30 48 H 2.6382 -2.662 5.4376 0
M  V30 49 H 1.0581 5.823 0.7339 0
M  V30 50 H -4.743 -1.104 0.1931 0
M  V30 51 H -2.5822 -2.8486 -0.0746 0
M  V30 52 H -3.8112 -2.6574 -1.3499 0
M  V30 53 H -2.1279 -0.381 1.0088 0
M  V30 END ATOM
M  V30 BEGIN BOND
M  V30 1 2 1 2
M  V30 2 1 2 3
M  V30 3 1 2 4
M  V30 4 1 3 5
M  V30 5 1 3 6
M  V30 6 1 4 7
M  V30 7 1 5 8
M  V30 8 1 5 9
M  V30 9 2 7 10
M  V30 10 1 7 11
M  V30 11 2 8 12
M  V30 12 1 8 13
M  V30 13 1 9 14
M  V30 14 1 10 15
M  V30 15 1 10 16
M  V30 16 2 11 17
M  V30 17 1 12 18
M  V30 18 2 13 19
M  V30 19 1 14 20
M  V30 20 1 14 21
M  V30 21 2 16 22
M  V30 22 2 18 23
M  V30 23 1 20 24
M  V30 24 1 21 25
M  V30 25 1 24 26
M  V30 26 1 17 22
M  V30 27 1 19 23
M  V30 28 1 24 25
M  V30 29 1 4 27
M  V30 30 1 4 28
M  V30 31 1 5 29
M  V30 32 1 6 30
M  V30 33 1 6 31
M  V30 34 1 6 32
M  V30 35 1 9 33
M  V30 36 1 9 34
M  V30 37 1 11 35
M  V30 38 1 12 36
M  V30 39 1 13 37
M  V30 40 1 15 38
M  V30 41 1 15 39
M  V30 42 1 16 40
M  V30 43 1 17 41
M  V30 44 1 18 42
M  V30 45 1 19 43
M  V30 46 1 20 44
M  V30 47 1 20 45
M  V30 48 1 21 46
M  V30 49 1 21 47
M  V30 50 1 22 48
M  V30 51 1 23 49
M  V30 52 1 24 50
M  V30 53 1 25 51
M  V30 54 1 25 52
M  V30 55 1 26 53
M  V30 END BOND
M  V30 BEGIN COLLECTION
M  V30 MDLV30/STEABS ATOMS=(2 5 24)
M  V30 END COLLECTION
M  V30 END CTAB
M  END
>  <NO.>
1717

>  <Name>
emd60400

>  <SMILES>
CN(C(=O)Cc1ccccc1N)[C@@H](CN1CC[C@@H](O)C1)c1ccccc1

>  <logBB>


>  <Class>
-1

>  <MW>
353.21

>  <nHBAcc>
4

>  <nHBDon>
2

>  <SLogP>
2.08

>  <TopoPSA>
69.8

>  <MMFF94 Energy>
103.83

$$$$
CN(C)C(=O)C1(c2ccc(Cl)cc2)CCN(CCCC(=O)c2ccc(F)cc2)CC1
Actelion Java MolfileCreator 2.0

  0  0  0  0  0  0              0 V3000
M  V30 BEGIN CTAB
M  V30 COUNTS 58 60 0 0 0
M  V30 BEGIN ATOM
M  V30 1 Cl -6.0296 -3.0515 -2.8103 0
M  V30 2 C -4.9447 -1.7853 -2.3899 0
M  V30 3 C -4.7033 -1.495 -1.0517 0
M  V30 4 C -4.3162 -1.0497 -3.386 0
M  V30 5 C -3.8223 -0.4635 -0.7047 0
M  V30 6 C -3.4368 -0.0206 -3.037 0
M  V30 7 C -3.1632 0.2935 -1.6878 0
M  V30 8 C -2.1745 1.4397 -1.364 0
M  V30 9 C -2.5932 2.7388 -2.1498 0
M  V30 10 C -1.9726 1.8105 0.1325 0
M  V30 11 C -0.7617 1.0319 -1.8999 0
M  V30 12 O -1.9286 3.0962 -3.1326 0
M  V30 13 N -3.7029 3.49 -1.7722 0
M  V30 14 C -1.1281 0.8187 0.9436 0
M  V30 15 C -0.0513 -0.0078 -1.0382 0
M  V30 16 C -4.7534 3.1006 -0.8472 0
M  V30 17 C -3.9202 4.7707 -2.4322 0
M  V30 18 N 0.1602 0.5209 0.314 0
M  V30 19 C 0.9364 -0.4026 1.1597 0
M  V30 20 C 2.3983 -0.5488 0.7183 0
M  V30 21 C 3.1984 -1.3652 1.7373 0
M  V30 22 C 4.644 -1.5603 1.3102 0
M  V30 23 O 5.0691 -1.1659 0.2267 0
M  V30 24 C 5.578 -2.2663 2.2422 0
M  V30 25 C 6.9255 -2.3925 1.866 0
M  V30 26 C 5.1541 -2.8038 3.4664 0
M  V30 27 C 7.8359 -3.0436 2.7013 0
M  V30 28 C 6.0691 -3.455 4.2998 0
M  V30 29 C 7.399 -3.5685 3.9106 0
M  V30 30 F 8.2694 -4.1934 4.7134 0
M  V30 31 H -5.1998 -2.0638 -0.2697 0
M  V30 32 H -4.5022 -1.2655 -4.4347 0
M  V30 33 H -3.6882 -0.2639 0.3532 0
M  V30 34 H -2.9633 0.5424 -3.8422 0
M  V30 35 H -2.9236 1.9415 0.6566 0
M  V30 36 H -1.4748 2.79 0.1854 0
M  V30 37 H -0.115 1.9214 -1.9426 0
M  V30 38 H -0.81 0.6611 -2.9313 0
M  V30 39 H -1.6837 -0.1072 1.1249 0
M  V30 40 H -0.9552 1.2708 1.9289 0
M  V30 41 H -0.614 -0.9494 -1.0182 0
M  V30 42 H 0.9083 -0.2169 -1.522 0
M  V30 43 H -4.7007 2.0599 -0.5494 0
M  V30 44 H -4.6857 3.7352 0.0412 0
M  V30 45 H -5.7245 3.2598 -1.3272 0
M  V30 46 H -3.0361 5.1197 -2.972 0
M  V30 47 H -4.1809 5.5201 -1.6784 0
M  V30 48 H -4.748 4.6618 -3.1394 0
M  V30 49 H 0.4574 -1.3899 1.1982 0
M  V30 50 H 0.9434 -0.0143 2.1868 0
M  V30 51 H 2.8557 0.4422 0.6043 0
M  V30 52 H 2.4577 -1.0438 -0.2574 0
M  V30 53 H 2.7365 -2.3522 1.8526 0
M  V30 54 H 3.1862 -0.8431 2.7007 0
M  V30 55 H 7.2721 -1.9824 0.9185 0
M  V30 56 H 4.1219 -2.7332 3.7957 0
M  V30 57 H 8.8781 -3.1426 2.4143 0
M  V30 58 H 5.7534 -3.8754 5.25 0
M  V30 END ATOM
M  V30 BEGIN BOND
M  V30 1 1 1 2
M  V30 2 2 2 3
M  V30 3 1 2 4
M  V30 4 1 3 5
M  V30 5 2 4 6
M  V30 6 2 5 7
M  V30 7 1 7 8
M  V30 8 1 8 9
M  V30 9 1 8 10
M  V30 10 1 8 11
M  V30 11 2 9 12
M  V30 12 1 9 13
M  V30 13 1 10 14
M  V30 14 1 11 15
M  V30 15 1 13 16
M  V30 16 1 13 17
M  V30 17 1 14 18
M  V30 18 1 18 19
M  V30 19 1 19 20
M  V30 20 1 20 21
M  V30 21 1 21 22
M  V30 22 2 22 23
M  V30 23 1 22 24
M  V30 24 2 24 25
M  V30 25 1 24 26
M  V30 26 1 25 27
M  V30 27 2 26 28
M  V30 28 2 27 29
M  V30 29 1 29 30
M  V30 30 1 6 7
M  V30 31 1 15 18
M  V30 32 1 28 29
M  V30 33 1 3 31
M  V30 34 1 4 32
M  V30 35 1 5 33
M  V30 36 1 6 34
M  V30 37 1 10 35
M  V30 38 1 10 36
M  V30 39 1 11 37
M  V30 40 1 11 38
M  V30 41 1 14 39
M  V30 42 1 14 40
M  V30 43 1 15 41
M  V30 44 1 15 42
M  V30 45 1 16 43
M  V30 46 1 16 44
M  V30 47 1 16 45
M  V30 48 1 17 46
M  V30 49 1 17 47
M  V30 50 1 17 48
M  V30 51 1 19 49
M  V30 52 1 19 50
M  V30 53 1 20 51
M  V30 54 1 20 52
M  V30 55 1 21 53
M  V30 56 1 21 54
M  V30 57 1 25 55
M  V30 58 1 26 56
M  V30 59 1 27 57
M  V30 60 1 28 58
M  V30 END BOND
M  V30 END CTAB
M  END
>  <NO.>
1718

>  <Name>
amiperone

>  <SMILES>
CN(C)C(=O)C1(c2ccc(Cl)cc2)CCN(CCCC(=O)c2ccc(F)cc2)CC1

>  <logBB>


>  <Class>
1

>  <MW>
430.18

>  <nHBAcc>
3

>  <nHBDon>
0

>  <SLogP>
4.56

>  <TopoPSA>
40.62

>  <MMFF94 Energy>
69.291

$$$$
CN(C)C(=O)CCNc1ccc(Br)cc1
Actelion Java MolfileCreator 2.0

  0  0  0  0  0  0              0 V3000
M  V30 BEGIN CTAB
M  V30 COUNTS 30 30 0 0 0
M  V30 BEGIN ATOM
M  V30 1 Br 5.2343 -4.9164 0.0 0
M  V30 2 C 3.8577 -3.6381 0.2018 0
M  V30 3 C 3.3091 -3.0259 -0.9195 0
M  V30 4 C 3.3953 -3.3114 1.4714 0
M  V30 5 C 2.2891 -2.0791 -0.766 0
M  V30 6 C 2.3757 -2.364 1.613 0
M  V30 7 C 1.8037 -1.7305 0.5 0
M  V30 8 N 0.7992 -0.8024 0.7019 0
M  V30 9 C 0.1347 -0.0847 -0.3783 0
M  V30 10 C -0.9202 0.8596 0.189 0
M  V30 11 C -1.6294 1.6214 -0.9145 0
M  V30 12 O -1.3326 1.4431 -2.0963 0
M  V30 13 N -2.6187 2.5194 -0.5276 0
M  V30 14 C -3.3258 3.2726 -1.5524 0
M  V30 15 C -3.0271 2.7865 0.8443 0
M  V30 16 H 3.6619 -3.2726 -1.9169 0
M  V30 17 H 3.8154 -3.7824 2.3553 0
M  V30 18 H 1.8823 -1.6196 -1.6625 0
M  V30 19 H 2.0277 -2.122 2.6142 0
M  V30 20 H 0.5137 -0.6152 1.6551 0
M  V30 21 H -0.3417 -0.7995 -1.0602 0
M  V30 22 H 0.8728 0.4909 -0.9499 0
M  V30 23 H -1.6611 0.2832 0.755 0
M  V30 24 H -0.4428 1.5778 0.8657 0
M  V30 25 H -2.9806 3.0339 -2.5612 0
M  V30 26 H -4.3933 3.0428 -1.483 0
M  V30 27 H -3.1718 4.3407 -1.372 0
M  V30 28 H -2.4733 2.2025 1.579 0
M  V30 29 H -4.0912 2.552 0.943 0
M  V30 30 H -2.8706 3.849 1.0539 0
M  V30 END ATOM
M  V30 BEGIN BOND
M  V30 1 1 1 2
M  V30 2 2 2 3
M  V30 3 1 2 4
M  V30 4 1 3 5
M  V30 5 2 4 6
M  V30 6 2 5 7
M  V30 7 1 7 8
M  V30 8 1 8 9
M  V30 9 1 9 10
M  V30 10 1 10 11
M  V30 11 2 11 12
M  V30 12 1 11 13
M  V30 13 1 13 14
M  V30 14 1 13 15
M  V30 15 1 6 7
M  V30 16 1 3 16
M  V30 17 1 4 17
M  V30 18 1 5 18
M  V30 19 1 6 19
M  V30 20 1 8 20
M  V30 21 1 9 21
M  V30 22 1 9 22
M  V30 23 1 10 23
M  V30 24 1 10 24
M  V30 25 1 14 25
M  V30 26 1 14 26
M  V30 27 1 14 27
M  V30 28 1 15 28
M  V30 29 1 15 29
M  V30 30 1 15 30
M  V30 END BOND
M  V30 END CTAB
M  END
>  <NO.>
1719

>  <Name>
bromamid

>  <SMILES>
CN(C)C(=O)CCNc1ccc(Br)cc1

>  <logBB>


>  <Class>
1

>  <MW>
270.04

>  <nHBAcc>
2

>  <nHBDon>
1

>  <SLogP>
2.34

>  <TopoPSA>
32.34

>  <MMFF94 Energy>
-4.9861

$$$$
CN(C)C(=O)COC1c2ccccc2CCc2ccccc21
Actelion Java MolfileCreator 2.0

  0  0  0  0  0  0              0 V3000
M  V30 BEGIN CTAB
M  V30 COUNTS 43 45 0 0 0
M  V30 BEGIN ATOM
M  V30 1 O 0.7165 3.2672 -1.6724 0
M  V30 2 C 0.3698 3.2235 -0.4899 0
M  V30 3 N 0.3871 4.3586 0.322 0
M  V30 4 C -0.1002 1.91 0.157 0
M  V30 5 C 0.0052 4.3963 1.7257 0
M  V30 6 C 0.8293 5.6224 -0.2472 0
M  V30 7 O -0.0909 0.8142 -0.7493 0
M  V30 8 C -0.3626 -0.4444 -0.1115 0
M  V30 9 C -1.1931 -1.3564 -1.0159 0
M  V30 10 C 0.9359 -1.0917 0.3517 0
M  V30 11 C -1.5946 -2.6593 -0.6306 0
M  V30 12 C -1.6213 -0.8688 -2.2719 0
M  V30 13 C 0.8853 -2.1362 1.2961 0
M  V30 14 C 2.1862 -0.6907 -0.1482 0
M  V30 15 C -2.3986 -3.4123 -1.5172 0
M  V30 16 C -1.2014 -3.3841 0.6476 0
M  V30 17 C -2.4162 -1.6314 -3.1273 0
M  V30 18 C 2.0734 -2.7262 1.7509 0
M  V30 19 C -0.4517 -2.652 1.7633 0
M  V30 20 C 3.3626 -1.285 0.3087 0
M  V30 21 C -2.8077 -2.9052 -2.7484 0
M  V30 22 C 3.3065 -2.2965 1.2629 0
M  V30 23 H 0.5659 1.6955 1.0001 0
M  V30 24 H -1.1256 2.0555 0.5148 0
M  V30 25 H -0.3313 3.4315 2.1044 0
M  V30 26 H 0.8696 4.7199 2.3133 0
M  V30 27 H -0.8058 5.1206 1.8476 0
M  V30 28 H 1.0989 5.5366 -1.3025 0
M  V30 29 H 1.7029 5.9717 0.3111 0
M  V30 30 H 0.0206 6.3531 -0.15 0
M  V30 31 H -0.9956 -0.227 0.7587 0
M  V30 32 H -1.3287 0.1269 -2.604 0
M  V30 33 H 2.2504 0.0891 -0.906 0
M  V30 34 H -2.7055 -4.4216 -1.2465 0
M  V30 35 H -2.1243 -3.7786 1.095 0
M  V30 36 H -0.5992 -4.2536 0.3482 0
M  V30 37 H -2.7216 -1.2257 -4.0878 0
M  V30 38 H 2.0459 -3.5364 2.4757 0
M  V30 39 H -1.0532 -1.8348 2.1775 0
M  V30 40 H -0.3037 -3.3503 2.5973 0
M  V30 41 H 4.3211 -0.9608 -0.0878 0
M  V30 42 H -3.4221 -3.5081 -3.4109 0
M  V30 43 H 4.2232 -2.7628 1.6139 0
M  V30 END ATOM
M  V30 BEGIN BOND
M  V30 1 2 1 2
M  V30 2 1 2 3
M  V30 3 1 2 4
M  V30 4 1 3 5
M  V30 5 1 3 6
M  V30 6 1 4 7
M  V30 7 1 7 8
M  V30 8 1 8 9
M  V30 9 1 8 10
M  V30 10 2 9 11
M  V30 11 1 9 12
M  V30 12 2 10 13
M  V30 13 1 10 14
M  V30 14 1 11 15
M  V30 15 1 11 16
M  V30 16 2 12 17
M  V30 17 1 13 18
M  V30 18 1 13 19
M  V30 19 2 14 20
M  V30 20 2 15 21
M  V30 21 2 18 22
M  V30 22 1 16 19
M  V30 23 1 17 21
M  V30 24 1 20 22
M  V30 25 1 4 23
M  V30 26 1 4 24
M  V30 27 1 5 25
M  V30 28 1 5 26
M  V30 29 1 5 27
M  V30 30 1 6 28
M  V30 31 1 6 29
M  V30 32 1 6 30
M  V30 33 1 8 31
M  V30 34 1 12 32
M  V30 35 1 14 33
M  V30 36 1 15 34
M  V30 37 1 16 35
M  V30 38 1 16 36
M  V30 39 1 17 37
M  V30 40 1 18 38
M  V30 41 1 19 39
M  V30 42 1 19 40
M  V30 43 1 20 41
M  V30 44 1 21 42
M  V30 45 1 22 43
M  V30 END BOND
M  V30 END CTAB
M  END
>  <NO.>
1720

>  <Name>
oxitriptyline

>  <SMILES>
CN(C)C(=O)COC1c2ccccc2CCc2ccccc21

>  <logBB>


>  <Class>
1

>  <MW>
295.16

>  <nHBAcc>
2

>  <nHBDon>
0

>  <SLogP>
2.98

>  <TopoPSA>
29.54

>  <MMFF94 Energy>
93.562

$$$$
CN(C)C(=O)OC1N=C(c2ccccc2)c2cc(Cl)ccc2N(C)C1=O
Actelion Java MolfileCreator 2.0

  0  0  0  0  0  0              0 V3000
M  V30 BEGIN CTAB
M  V30 COUNTS 44 46 0 0 0
M  V30 BEGIN ATOM
M  V30 1 Cl -5.1644 -0.0805 -2.3376 0
M  V30 2 C -3.4488 -0.0601 -2.2279 0
M  V30 3 C -2.8215 -0.5837 -1.1016 0
M  V30 4 C -2.6964 0.4847 -3.263 0
M  V30 5 C -1.4197 -0.5762 -1.0142 0
M  V30 6 C -1.3023 0.5103 -3.1704 0
M  V30 7 C -0.7934 -1.1343 0.2193 0
M  V30 8 C -0.6455 -0.0165 -2.0467 0
M  V30 9 N 0.113 -0.5205 0.9062 0
M  V30 10 C -1.2448 -2.4752 0.7105 0
M  V30 11 N 0.7726 0.041 -1.9877 0
M  V30 12 C 0.6137 0.7808 0.4154 0 CFG=2
M  V30 13 C -1.6298 -3.4861 -0.1795 0
M  V30 14 C -1.2517 -2.7266 2.088 0
M  V30 15 C 1.4747 0.4621 -0.8493 0
M  V30 16 C 1.5361 -0.2864 -3.1814 0
M  V30 17 O 1.3996 1.4757 1.3881 0
M  V30 18 C -2.0451 -4.7264 0.3099 0
M  V30 19 C -1.6674 -3.9677 2.5726 0
M  V30 20 O 2.7056 0.5709 -0.8529 0
M  V30 21 C 1.6703 2.7656 1.0618 0
M  V30 22 C -2.0675 -4.9646 1.6839 0
M  V30 23 O 1.2047 3.3227 0.0726 0
M  V30 24 N 2.5089 3.3827 1.9738 0
M  V30 25 C 2.9132 4.7578 1.76 0
M  V30 26 C 3.0844 2.7007 3.1208 0
M  V30 27 H -3.4248 -0.9847 -0.2901 0
M  V30 28 H -3.1857 0.9042 -4.1389 0
M  V30 29 H -0.7392 0.9711 -3.9792 0
M  V30 30 H -0.2373 1.423 0.1552 0
M  V30 31 H -1.5956 -3.3337 -1.2545 0
M  V30 32 H -0.9327 -1.9572 2.7881 0
M  V30 33 H 1.6721 0.6225 -3.7754 0
M  V30 34 H 1.0182 -1.0494 -3.7711 0
M  V30 35 H 2.5239 -0.6748 -2.9151 0
M  V30 36 H -2.3429 -5.5117 -0.3806 0
M  V30 37 H -1.6724 -4.1571 3.6431 0
M  V30 38 H -2.3868 -5.9324 2.0629 0
M  V30 39 H 2.42 5.2027 0.8921 0
M  V30 40 H 2.6595 5.3432 2.6487 0
M  V30 41 H 3.9955 4.7853 1.6034 0
M  V30 42 H 2.7058 1.6845 3.2464 0
M  V30 43 H 2.8518 3.2745 4.0229 0
M  V30 44 H 4.1697 2.657 2.9903 0
M  V30 END ATOM
M  V30 BEGIN BOND
M  V30 1 1 1 2
M  V30 2 2 2 3
M  V30 3 1 2 4
M  V30 4 1 3 5
M  V30 5 2 4 6
M  V30 6 1 5 7
M  V30 7 2 5 8
M  V30 8 2 7 9
M  V30 9 1 7 10
M  V30 10 1 8 11
M  V30 11 1 9 12
M  V30 12 2 10 13
M  V30 13 1 10 14
M  V30 14 1 11 15
M  V30 15 1 11 16
M  V30 16 1 12 17
M  V30 17 1 13 18
M  V30 18 2 14 19
M  V30 19 2 15 20
M  V30 20 1 17 21
M  V30 21 2 18 22
M  V30 22 2 21 23
M  V30 23 1 21 24
M  V30 24 1 24 25
M  V30 25 1 24 26
M  V30 26 1 6 8
M  V30 27 1 12 15
M  V30 28 1 19 22
M  V30 29 1 3 27
M  V30 30 1 4 28
M  V30 31 1 6 29
M  V30 32 1 12 30
M  V30 33 1 13 31
M  V30 34 1 14 32
M  V30 35 1 16 33
M  V30 36 1 16 34
M  V30 37 1 16 35
M  V30 38 1 18 36
M  V30 39 1 19 37
M  V30 40 1 22 38
M  V30 41 1 25 39
M  V30 42 1 25 40
M  V30 43 1 25 41
M  V30 44 1 26 42
M  V30 45 1 26 43
M  V30 46 1 26 44
M  V30 END BOND
M  V30 BEGIN COLLECTION
M  V30 MDLV30/STERAC1 ATOMS=(1 12)
M  V30 END COLLECTION
M  V30 END CTAB
M  END
>  <NO.>
1721

>  <Name>
camazepam

>  <SMILES>
CN(C)C(=O)OC1N=C(c2ccccc2)c2cc(Cl)ccc2N(C)C1=O

>  <logBB>


>  <Class>
1

>  <MW>
371.1

>  <nHBAcc>
4

>  <nHBDon>
0

>  <SLogP>
3.18

>  <TopoPSA>
62.21

>  <MMFF94 Energy>
53.073

$$$$
CN(C)C(=O)c1nc(CNC(=O)CN)n(-c2ccc(Cl)cc2C(=O)c2ccccc2Cl)n1
Actelion Java MolfileCreator 2.0

  0  0  0  0  0  0              0 V3000
M  V30 BEGIN CTAB
M  V30 COUNTS 52 54 0 0 0
M  V30 BEGIN ATOM
M  V30 1 Cl -4.5288 3.3142 0.0 0
M  V30 2 C -3.901 2.7868 -1.5184 0
M  V30 3 C -2.965 1.7546 -1.6243 0
M  V30 4 C -4.3898 3.3929 -2.6789 0
M  V30 5 C -2.4083 1.0953 -0.4308 0
M  V30 6 C -2.511 1.3339 -2.8814 0
M  V30 7 C -3.941 2.9731 -3.9337 0
M  V30 8 O -1.666 1.6946 0.3373 0
M  V30 9 C -2.7216 -0.3247 -0.1705 0
M  V30 10 C -3.0027 1.9459 -4.0345 0
M  V30 11 C -1.697 -1.2467 0.0796 0
M  V30 12 C -4.0556 -0.74 -0.1091 0
M  V30 13 N -0.3572 -0.865 -0.0808 0
M  V30 14 C -1.9863 -2.5824 0.3791 0
M  V30 15 C -4.3443 -2.0706 0.1971 0
M  V30 16 N 0.183 -0.8333 -1.3117 0
M  V30 17 C 0.5779 -0.5601 0.8745 0
M  V30 18 C -3.3202 -2.9893 0.4425 0
M  V30 19 Cl -5.9839 -2.5865 0.2762 0
M  V30 20 C 1.4582 -0.4681 -1.0716 0
M  V30 21 N 1.7313 -0.3167 0.2779 0
M  V30 22 C 0.2691 -0.4882 2.3251 0
M  V30 23 C 2.4293 -0.2264 -2.1777 0
M  V30 24 N 1.5083 -0.4808 3.0603 0
M  V30 25 O 2.0387 -0.1592 -3.3473 0
M  V30 26 N 3.793 -0.062 -1.8734 0
M  V30 27 C 1.5887 -0.7848 4.3939 0
M  V30 28 C 4.3739 -0.2566 -0.5549 0
M  V30 29 C 4.7014 0.3644 -2.9227 0
M  V30 30 O 0.6205 -1.1183 5.0705 0
M  V30 31 C 2.9958 -0.6312 4.9819 0
M  V30 32 N 4.0332 -0.7526 3.9353 0
M  V30 33 H -5.122 4.1946 -2.6142 0
M  V30 34 H -1.76 0.5504 -2.9716 0
M  V30 35 H -4.32 3.4519 -4.834 0
M  V30 36 H -2.6442 1.6281 -5.0114 0
M  V30 37 H -4.8676 -0.0366 -0.2746 0
M  V30 38 H -1.1931 -3.3099 0.5399 0
M  V30 39 H -3.5575 -4.0258 0.673 0
M  V30 40 H -0.2669 0.4357 2.5636 0
M  V30 41 H -0.3332 -1.3396 2.6568 0
M  V30 42 H 2.3658 -0.1867 2.5959 0
M  V30 43 H 3.9655 -1.1554 -0.0866 0
M  V30 44 H 5.4575 -0.3852 -0.639 0
M  V30 45 H 4.1656 0.6242 0.0585 0
M  V30 46 H 4.1893 0.5641 -3.8669 0
M  V30 47 H 5.4443 -0.4223 -3.0837 0
M  V30 48 H 5.2055 1.2802 -2.599 0
M  V30 49 H 3.0632 0.3545 5.4517 0
M  V30 50 H 3.1472 -1.4056 5.74 0
M  V30 51 H 4.0035 -1.7068 3.5723 0
M  V30 52 H 4.9455 -0.6558 4.3816 0
M  V30 END ATOM
M  V30 BEGIN BOND
M  V30 1 1 1 2
M  V30 2 2 2 3
M  V30 3 1 2 4
M  V30 4 1 3 5
M  V30 5 1 3 6
M  V30 6 2 4 7
M  V30 7 2 5 8
M  V30 8 1 5 9
M  V30 9 2 6 10
M  V30 10 2 9 11
M  V30 11 1 9 12
M  V30 12 1 11 13
M  V30 13 1 11 14
M  V30 14 2 12 15
M  V30 15 1 13 16
M  V30 16 1 13 17
M  V30 17 2 14 18
M  V30 18 1 15 19
M  V30 19 2 16 20
M  V30 20 2 17 21
M  V30 21 1 17 22
M  V30 22 1 20 23
M  V30 23 1 22 24
M  V30 24 2 23 25
M  V30 25 1 23 26
M  V30 26 1 24 27
M  V30 27 1 26 28
M  V30 28 1 26 29
M  V30 29 2 27 30
M  V30 30 1 27 31
M  V30 31 1 31 32
M  V30 32 1 7 10
M  V30 33 1 15 18
M  V30 34 1 20 21
M  V30 35 1 4 33
M  V30 36 1 6 34
M  V30 37 1 7 35
M  V30 38 1 10 36
M  V30 39 1 12 37
M  V30 40 1 14 38
M  V30 41 1 18 39
M  V30 42 1 22 40
M  V30 43 1 22 41
M  V30 44 1 24 42
M  V30 45 1 28 43
M  V30 46 1 28 44
M  V30 47 1 28 45
M  V30 48 1 29 46
M  V30 49 1 29 47
M  V30 50 1 29 48
M  V30 51 1 31 49
M  V30 52 1 31 50
M  V30 53 1 32 51
M  V30 54 1 32 52
M  V30 END BOND
M  V30 END CTAB
M  END
>  <NO.>
1722

>  <Name>
rilmazafone

>  <SMILES>
CN(C)C(=O)c1nc(CNC(=O)CN)n(-c2ccc(Cl)cc2C(=O)c2ccccc2Cl)n1

>  <logBB>


>  <Class>
1

>  <MW>
474.1

>  <nHBAcc>
6

>  <nHBDon>
2

>  <SLogP>
2.08

>  <TopoPSA>
123.21

>  <MMFF94 Energy>
132.53

$$$$
CN(C)C(C)(CO)Cc1ccc(Cl)c(Cl)c1
Actelion Java MolfileCreator 2.0

  0  0  0  0  0  0              0 V3000
M  V30 BEGIN CTAB
M  V30 COUNTS 33 33 0 0 0
M  V30 BEGIN ATOM
M  V30 1 Cl -4.0222 -2.09 1.4465 0
M  V30 2 C -2.5798 -1.2891 1.9621 0
M  V30 3 C -2.479 -0.6509 3.2016 0
M  V30 4 C -1.4846 -1.2957 1.091 0
M  V30 5 Cl -3.7861 -0.6023 4.3308 0
M  V30 6 C -1.2843 -0.0235 3.5624 0
M  V30 7 C -0.2823 -0.6649 1.4418 0
M  V30 8 C -0.1935 -0.0316 2.6895 0
M  V30 9 C 0.9055 -0.6689 0.4972 0
M  V30 10 C 0.8907 0.3836 -0.6748 0 CFG=2
M  V30 11 N -0.2896 0.1484 -1.5729 0
M  V30 12 C 2.253 0.2727 -1.4435 0
M  V30 13 C 0.8348 1.7938 -0.024 0
M  V30 14 C -0.6531 1.2867 -2.4225 0
M  V30 15 C -0.1955 -1.0548 -2.4054 0
M  V30 16 O 3.3804 0.5974 -0.631 0
M  V30 17 H -1.5741 -1.7893 0.1265 0
M  V30 18 H -1.1953 0.4769 4.5237 0
M  V30 19 H 0.7258 0.4677 2.9898 0
M  V30 20 H 1.0221 -1.6856 0.1007 0
M  V30 21 H 1.8078 -0.5182 1.106 0
M  V30 22 H 2.4145 -0.7355 -1.8401 0
M  V30 23 H 2.27 0.9657 -2.2911 0
M  V30 24 H -0.1454 1.9975 0.4217 0
M  V30 25 H 1.0411 2.5848 -0.7541 0
M  V30 26 H 1.5807 1.8972 0.7726 0
M  V30 27 H -0.9657 2.1508 -1.8283 0
M  V30 28 H -1.5204 1.0401 -3.0469 0
M  V30 29 H 0.1629 1.5881 -3.0871 0
M  V30 30 H 0.544 -0.9517 -3.207 0
M  V30 31 H 0.0505 -1.9451 -1.8206 0
M  V30 32 H -1.1649 -1.2642 -2.8728 0
M  V30 33 H 3.6485 -0.2085 -0.1579 0
M  V30 END ATOM
M  V30 BEGIN BOND
M  V30 1 1 1 2
M  V30 2 2 2 3
M  V30 3 1 2 4
M  V30 4 1 3 5
M  V30 5 1 3 6
M  V30 6 2 4 7
M  V30 7 2 6 8
M  V30 8 1 7 9
M  V30 9 1 9 10
M  V30 10 1 10 11
M  V30 11 1 10 12
M  V30 12 1 10 13
M  V30 13 1 11 14
M  V30 14 1 11 15
M  V30 15 1 12 16
M  V30 16 1 7 8
M  V30 17 1 4 17
M  V30 18 1 6 18
M  V30 19 1 8 19
M  V30 20 1 9 20
M  V30 21 1 9 21
M  V30 22 1 12 22
M  V30 23 1 12 23
M  V30 24 1 13 24
M  V30 25 1 13 25
M  V30 26 1 13 26
M  V30 27 1 14 27
M  V30 28 1 14 28
M  V30 29 1 14 29
M  V30 30 1 15 30
M  V30 31 1 15 31
M  V30 32 1 15 32
M  V30 33 1 16 33
M  V30 END BOND
M  V30 BEGIN COLLECTION
M  V30 MDLV30/STERAC1 ATOMS=(1 10)
M  V30 END COLLECTION
M  V30 END CTAB
M  END
>  <NO.>
1723

>  <Name>
cericlamine

>  <SMILES>
CN(C)C(C)(CO)Cc1ccc(Cl)c(Cl)c1

>  <logBB>


>  <Class>
1

>  <MW>
261.07

>  <nHBAcc>
2

>  <nHBDon>
1

>  <SLogP>
2.85

>  <TopoPSA>
23.47

>  <MMFF94 Energy>
82.1

$$$$
CN(C)C/C=C(/c1ccc(Br)cc1)c1cccnc1
Actelion Java MolfileCreator 2.0

  0  0  0  0  0  0              0 V3000
M  V30 BEGIN CTAB
M  V30 COUNTS 36 37 0 0 0
M  V30 BEGIN ATOM
M  V30 1 Br 6.4912 -0.3997 -1.3597 0
M  V30 2 C 4.658 -0.1642 -0.9643 0
M  V30 3 C 4.2756 0.7118 0.0485 0
M  V30 4 C 3.6982 -0.8649 -1.6905 0
M  V30 5 C 2.9194 0.8853 0.3392 0
M  V30 6 C 2.3424 -0.6897 -1.3979 0
M  V30 7 C 1.9376 0.1797 -0.3744 0
M  V30 8 C 0.4903 0.3725 -0.0933 0
M  V30 9 C -0.4784 0.7079 -1.1565 0
M  V30 10 C 0.0745 0.2392 1.1861 0
M  V30 11 C -0.5114 1.983 -1.7142 0
M  V30 12 C -1.376 -0.2374 -1.6591 0
M  V30 13 C -1.3106 0.4291 1.7459 0
M  V30 14 N -1.3667 2.3639 -2.6939 0
M  V30 15 C -2.2648 0.1237 -2.6686 0
M  V30 16 N -1.7134 -0.7045 2.5932 0
M  V30 17 C -2.223 1.4236 -3.1473 0
M  V30 18 C -1.9897 -1.9013 1.7955 0
M  V30 19 C -2.9006 -0.3484 3.3742 0
M  V30 20 H 5.0199 1.2659 0.6141 0
M  V30 21 H 3.9907 -1.5462 -2.4847 0
M  V30 22 H 2.6352 1.5833 1.1239 0
M  V30 23 H 1.6054 -1.2438 -1.9747 0
M  V30 24 H 0.8044 -0.0221 1.9527 0
M  V30 25 H 0.1684 2.7612 -1.3775 0
M  V30 26 H -1.3827 -1.2518 -1.2705 0
M  V30 27 H -1.2581 1.3346 2.3655 0
M  V30 28 H -2.0639 0.6276 0.9761 0
M  V30 29 H -2.9713 -0.5915 -3.074 0
M  V30 30 H -2.8962 1.7523 -3.9341 0
M  V30 31 H -1.0966 -2.2352 1.2573 0
M  V30 32 H -2.7924 -1.7372 1.0675 0
M  V30 33 H -2.2828 -2.7342 2.4449 0
M  V30 34 H -3.7573 -0.1016 2.7365 0
M  V30 35 H -2.6932 0.5107 4.022 0
M  V30 36 H -3.1886 -1.1732 4.0356 0
M  V30 END ATOM
M  V30 BEGIN BOND
M  V30 1 1 1 2
M  V30 2 2 2 3
M  V30 3 1 2 4
M  V30 4 1 3 5
M  V30 5 2 4 6
M  V30 6 2 5 7
M  V30 7 1 7 8
M  V30 8 1 8 9
M  V30 9 2 8 10
M  V30 10 2 9 11
M  V30 11 1 9 12
M  V30 12 1 10 13
M  V30 13 1 11 14
M  V30 14 2 12 15
M  V30 15 1 13 16
M  V30 16 2 14 17
M  V30 17 1 16 18
M  V30 18 1 16 19
M  V30 19 1 6 7
M  V30 20 1 15 17
M  V30 21 1 3 20
M  V30 22 1 4 21
M  V30 23 1 5 22
M  V30 24 1 6 23
M  V30 25 1 10 24
M  V30 26 1 11 25
M  V30 27 1 12 26
M  V30 28 1 13 27
M  V30 29 1 13 28
M  V30 30 1 15 29
M  V30 31 1 17 30
M  V30 32 1 18 31
M  V30 33 1 18 32
M  V30 34 1 18 33
M  V30 35 1 19 34
M  V30 36 1 19 35
M  V30 37 1 19 36
M  V30 END BOND
M  V30 END CTAB
M  END
>  <NO.>
1724

>  <Name>
zimeldine

>  <SMILES>
CN(C)C/C=C(/c1ccc(Br)cc1)c1cccnc1

>  <logBB>


>  <Class>
1

>  <MW>
316.06

>  <nHBAcc>
2

>  <nHBDon>
0

>  <SLogP>
3.84

>  <TopoPSA>
16.13

>  <MMFF94 Energy>
50.193

$$$$
CN(C)C1=NC(=O)C(c2ccccc2)O1
Actelion Java MolfileCreator 2.0

  0  0  0  0  0  0              0 V3000
M  V30 BEGIN CTAB
M  V30 COUNTS 27 28 0 0 0
M  V30 BEGIN ATOM
M  V30 1 O -1.7426 -0.3958 -2.5355 0
M  V30 2 C -1.2047 -0.6783 -1.4728 0
M  V30 3 N -1.8287 -1.2659 -0.4077 0
M  V30 4 C 0.2593 -0.4647 -1.1502 0 CFG=2
M  V30 5 C -0.9178 -1.4276 0.4847 0
M  V30 6 O 0.3382 -1.0181 0.1702 0
M  V30 7 C 0.7117 0.9786 -1.2056 0
M  V30 8 N -1.0498 -1.974 1.7313 0
M  V30 9 C 1.0798 1.6923 -0.0539 0
M  V30 10 C 0.7805 1.6341 -2.4467 0
M  V30 11 C -2.3259 -2.5318 2.1492 0
M  V30 12 C 0.0944 -2.2152 2.5927 0
M  V30 13 C 1.5005 3.0214 -0.1414 0
M  V30 14 C 1.2003 2.963 -2.5321 0
M  V30 15 C 1.5606 3.656 -1.3795 0
M  V30 16 H 0.8768 -1.0872 -1.8068 0
M  V30 17 H 1.0426 1.223 0.927 0
M  V30 18 H 0.4951 1.1151 -3.361 0
M  V30 19 H -3.1628 -1.917 1.8005 0
M  V30 20 H -2.4442 -3.543 1.747 0
M  V30 21 H -2.4043 -2.5838 3.2404 0
M  V30 22 H 0.678 -1.2982 2.7277 0
M  V30 23 H 0.7414 -2.9836 2.1571 0
M  V30 24 H -0.2061 -2.5558 3.5892 0
M  V30 25 H 1.7799 3.5621 0.7592 0
M  V30 26 H 1.2408 3.4577 -3.4992 0
M  V30 27 H 1.885 4.6912 -1.446 0
M  V30 END ATOM
M  V30 BEGIN BOND
M  V30 1 2 1 2
M  V30 2 1 2 3
M  V30 3 1 2 4
M  V30 4 2 3 5
M  V30 5 1 4 6
M  V30 6 1 4 7
M  V30 7 1 5 8
M  V30 8 2 7 9
M  V30 9 1 7 10
M  V30 10 1 8 11
M  V30 11 1 8 12
M  V30 12 1 9 13
M  V30 13 2 10 14
M  V30 14 2 13 15
M  V30 15 1 5 6
M  V30 16 1 14 15
M  V30 17 1 4 16
M  V30 18 1 9 17
M  V30 19 1 10 18
M  V30 20 1 11 19
M  V30 21 1 11 20
M  V30 22 1 11 21
M  V30 23 1 12 22
M  V30 24 1 12 23
M  V30 25 1 12 24
M  V30 26 1 13 25
M  V30 27 1 14 26
M  V30 28 1 15 27
M  V30 END BOND
M  V30 BEGIN COLLECTION
M  V30 MDLV30/STERAC1 ATOMS=(1 4)
M  V30 END COLLECTION
M  V30 END CTAB
M  END
>  <NO.>
1725

>  <Name>
thozalinone

>  <SMILES>
CN(C)C1=NC(=O)C(c2ccccc2)O1

>  <logBB>


>  <Class>
1

>  <MW>
204.09

>  <nHBAcc>
3

>  <nHBDon>
0

>  <SLogP>
1.2

>  <TopoPSA>
41.9

>  <MMFF94 Energy>
-12.096

$$$$
CN(C)C1CCc2[nH]c3c(F)cc(F)cc3c2C1
Actelion Java MolfileCreator 2.0

  0  0  0  0  0  0              0 V3000
M  V30 BEGIN CTAB
M  V30 COUNTS 34 36 0 0 0
M  V30 BEGIN ATOM
M  V30 1 F -4.0866 2.8833 1.7613 0
M  V30 2 C -3.0325 2.1474 2.1362 0
M  V30 3 C -2.1969 1.5582 1.1857 0
M  V30 4 C -2.7561 1.959 3.485 0
M  V30 5 N -2.2553 1.5909 -0.1896 0
M  V30 6 C -1.0891 0.7855 1.5469 0
M  V30 7 C -1.6615 1.1931 3.8584 0
M  V30 8 C -1.222 0.8619 -0.7068 0
M  V30 9 C -0.4778 0.3534 0.3379 0
M  V30 10 C -0.8176 0.5987 2.9162 0
M  V30 11 F -1.4039 1.0168 5.1619 0
M  V30 12 C -0.9431 0.6843 -2.1566 0
M  V30 13 C 0.7245 -0.5096 0.1217 0
M  V30 14 C 0.0613 -0.4665 -2.3587 0
M  V30 15 C 1.243 -0.3936 -1.3469 0 CFG=2
M  V30 16 N 2.3255 -1.3337 -1.7263 0
M  V30 17 C 1.9822 -2.7479 -1.5911 0
M  V30 18 C 3.5714 -1.0465 -1.0142 0
M  V30 19 H -3.3921 2.4072 4.2395 0
M  V30 20 H -2.9612 2.0855 -0.7196 0
M  V30 21 H 0.0286 0.0065 3.2472 0
M  V30 22 H -0.5198 1.6137 -2.5559 0
M  V30 23 H -1.8647 0.4735 -2.71 0
M  V30 24 H 1.5153 -0.2208 0.8232 0
M  V30 25 H 0.4364 -1.5417 0.3509 0
M  V30 26 H 0.4348 -0.4309 -3.3894 0
M  V30 27 H -0.4718 -1.4186 -2.2414 0
M  V30 28 H 1.656 0.62 -1.4641 0
M  V30 29 H 1.8256 -3.0478 -0.5497 0
M  V30 30 H 2.7882 -3.3703 -1.997 0
M  V30 31 H 1.0881 -3.0046 -2.1665 0
M  V30 32 H 3.8685 -0.0011 -1.1536 0
M  V30 33 H 4.3891 -1.656 -1.4152 0
M  V30 34 H 3.4959 -1.2457 0.0601 0
M  V30 END ATOM
M  V30 BEGIN BOND
M  V30 1 1 1 2
M  V30 2 2 2 3
M  V30 3 1 2 4
M  V30 4 1 3 5
M  V30 5 1 3 6
M  V30 6 2 4 7
M  V30 7 1 5 8
M  V30 8 1 6 9
M  V30 9 2 6 10
M  V30 10 1 7 11
M  V30 11 1 8 12
M  V30 12 1 9 13
M  V30 13 1 12 14
M  V30 14 1 13 15
M  V30 15 1 15 16
M  V30 16 1 16 17
M  V30 17 1 16 18
M  V30 18 1 7 10
M  V30 19 2 8 9
M  V30 20 1 14 15
M  V30 21 1 4 19
M  V30 22 1 5 20
M  V30 23 1 10 21
M  V30 24 1 12 22
M  V30 25 1 12 23
M  V30 26 1 13 24
M  V30 27 1 13 25
M  V30 28 1 14 26
M  V30 29 1 14 27
M  V30 30 1 15 28
M  V30 31 1 17 29
M  V30 32 1 17 30
M  V30 33 1 17 31
M  V30 34 1 18 32
M  V30 35 1 18 33
M  V30 36 1 18 34
M  V30 END BOND
M  V30 BEGIN COLLECTION
M  V30 MDLV30/STERAC1 ATOMS=(1 15)
M  V30 END COLLECTION
M  V30 END CTAB
M  END
>  <NO.>
1728

>  <Name>
flucindol

>  <SMILES>
CN(C)C1CCc2[nH]c3c(F)cc(F)cc3c2C1

>  <logBB>


>  <Class>
1

>  <MW>
250.13

>  <nHBAcc>
1

>  <nHBDon>
1

>  <SLogP>
2.87

>  <TopoPSA>
19.03

>  <MMFF94 Energy>
26.112

$$$$
CN(C)C1CCc2[nH]c3ccccc3c2C1
Actelion Java MolfileCreator 2.0

  0  0  0  0  0  0              0 V3000
M  V30 BEGIN CTAB
M  V30 COUNTS 34 36 0 0 0
M  V30 BEGIN ATOM
M  V30 1 N 0.475 3.0118 -0.475 0
M  V30 2 C 0.3497 1.6971 0.2015 0 CFG=2
M  V30 3 C 1.0448 4.0276 0.411 0
M  V30 4 C -0.7659 3.5042 -1.071 0
M  V30 5 C 0.3034 0.5383 -0.8453 0
M  V30 6 C -0.8266 1.5779 1.2144 0
M  V30 7 C 0.0372 -0.775 -0.1824 0
M  V30 8 C -0.7702 0.2598 2.0117 0
M  V30 9 C 0.1981 -2.0985 -0.6782 0
M  V30 10 C -0.4651 -0.8708 1.098 0
M  V30 11 C -0.2135 -2.9678 0.3359 0
M  V30 12 C 0.6526 -2.6454 -1.8939 0
M  V30 13 N -0.6103 -2.1939 1.4057 0
M  V30 14 C -0.1888 -4.3602 0.1913 0
M  V30 15 C 0.6827 -4.0355 -2.0535 0
M  V30 16 C 0.2678 -4.8779 -1.0244 0
M  V30 17 H 1.2777 1.5362 0.7712 0
M  V30 18 H 0.3897 4.2645 1.2559 0
M  V30 19 H 1.2341 4.9546 -0.1421 0
M  V30 20 H 2.0138 3.7015 0.8046 0
M  V30 21 H -1.1997 2.7775 -1.7639 0
M  V30 22 H -0.5669 4.4054 -1.6625 0
M  V30 23 H -1.521 3.7602 -0.3198 0
M  V30 24 H 1.2543 0.4986 -1.3902 0
M  V30 25 H -0.4902 0.7063 -1.582 0
M  V30 26 H -0.8215 2.4121 1.9245 0
M  V30 27 H -1.7821 1.6197 0.6753 0
M  V30 28 H -1.722 0.0996 2.5296 0
M  V30 29 H 0.0159 0.3273 2.7729 0
M  V30 30 H 0.978 -1.9957 -2.7006 0
M  V30 31 H -0.9534 -2.5619 2.2818 0
M  V30 32 H -0.5118 -5.0196 0.9898 0
M  V30 33 H 1.034 -4.4592 -2.9907 0
M  V30 34 H 0.299 -5.9553 -1.1681 0
M  V30 END ATOM
M  V30 BEGIN BOND
M  V30 1 1 1 2
M  V30 2 1 1 3
M  V30 3 1 1 4
M  V30 4 1 2 5
M  V30 5 1 2 6
M  V30 6 1 5 7
M  V30 7 1 6 8
M  V30 8 1 7 9
M  V30 9 2 7 10
M  V30 10 2 9 11
M  V30 11 1 9 12
M  V30 12 1 10 13
M  V30 13 1 11 14
M  V30 14 2 12 15
M  V30 15 2 14 16
M  V30 16 1 8 10
M  V30 17 1 11 13
M  V30 18 1 15 16
M  V30 19 1 2 17
M  V30 20 1 3 18
M  V30 21 1 3 19
M  V30 22 1 3 20
M  V30 23 1 4 21
M  V30 24 1 4 22
M  V30 25 1 4 23
M  V30 26 1 5 24
M  V30 27 1 5 25
M  V30 28 1 6 26
M  V30 29 1 6 27
M  V30 30 1 8 28
M  V30 31 1 8 29
M  V30 32 1 12 30
M  V30 33 1 13 31
M  V30 34 1 14 32
M  V30 35 1 15 33
M  V30 36 1 16 34
M  V30 END BOND
M  V30 BEGIN COLLECTION
M  V30 MDLV30/STERAC1 ATOMS=(1 2)
M  V30 END COLLECTION
M  V30 END CTAB
M  END
>  <NO.>
1729

>  <Name>
cyclindole

>  <SMILES>
CN(C)C1CCc2[nH]c3ccccc3c2C1

>  <logBB>


>  <Class>
1

>  <MW>
214.15

>  <nHBAcc>
1

>  <nHBDon>
1

>  <SLogP>
2.59

>  <TopoPSA>
19.03

>  <MMFF94 Energy>
41.556

$$$$
CN(C)CC#CC=C1c2ccccc2C=Cc2ccccc21
Actelion Java MolfileCreator 2.0

  0  0  0  0  0  0              0 V3000
M  V30 BEGIN CTAB
M  V30 COUNTS 41 43 0 0 0
M  V30 BEGIN ATOM
M  V30 1 N -1.1124 -2.544 -3.7382 0
M  V30 2 C -0.8527 -1.1005 -3.6191 0
M  V30 3 C -0.1336 -3.3272 -2.9785 0
M  V30 4 C -1.0807 -2.9433 -5.1457 0
M  V30 5 C -1.1183 -0.6008 -2.2624 0
M  V30 6 C -1.3124 -0.1875 -1.1513 0
M  V30 7 C -1.5362 0.291 0.1705 0
M  V30 8 C -0.5962 0.8682 0.9503 0
M  V30 9 C -0.9907 1.2139 2.3388 0
M  V30 10 C 0.8055 1.0484 0.4977 0
M  V30 11 C -0.3239 0.6418 3.4396 0
M  V30 12 C -2.0209 2.1464 2.5578 0
M  V30 13 C 1.8681 0.4357 1.1892 0
M  V30 14 C 1.0827 1.8801 -0.6018 0
M  V30 15 C 0.746 -0.3645 3.3112 0
M  V30 16 C -0.7356 0.9902 4.7372 0
M  V30 17 C -2.4068 2.4904 3.853 0
M  V30 18 C 1.6804 -0.4541 2.3498 0
M  V30 19 C 3.1809 0.6302 0.7268 0
M  V30 20 C 2.3927 2.0733 -1.0388 0
M  V30 21 C -1.7665 1.9097 4.9426 0
M  V30 22 C 3.4416 1.4443 -0.3773 0
M  V30 23 H -1.5154 -0.5537 -4.3024 0
M  V30 24 H 0.1758 -0.8588 -3.9156 0
M  V30 25 H -0.1918 -3.1096 -1.9068 0
M  V30 26 H 0.8934 -3.143 -3.314 0
M  V30 27 H -0.3395 -4.3988 -3.0821 0
M  V30 28 H -0.1059 -2.7524 -5.6091 0
M  V30 29 H -1.8458 -2.4056 -5.717 0
M  V30 30 H -1.3089 -4.0101 -5.2491 0
M  V30 31 H -2.5385 0.1281 0.5592 0
M  V30 32 H -2.5237 2.6156 1.715 0
M  V30 33 H 0.2715 2.3828 -1.1237 0
M  V30 34 H 0.7742 -1.1036 4.11 0
M  V30 35 H -0.2465 0.5525 5.6048 0
M  V30 36 H -3.2043 3.2121 4.0095 0
M  V30 37 H 2.4082 -1.2596 2.4284 0
M  V30 38 H 4.0178 0.1559 1.2347 0
M  V30 39 H 2.5912 2.715 -1.8928 0
M  V30 40 H -2.065 2.1734 5.9539 0
M  V30 41 H 4.4642 1.5904 -0.7146 0
M  V30 END ATOM
M  V30 BEGIN BOND
M  V30 1 1 1 2
M  V30 2 1 1 3
M  V30 3 1 1 4
M  V30 4 1 2 5
M  V30 5 3 5 6
M  V30 6 1 6 7
M  V30 7 2 7 8
M  V30 8 1 8 9
M  V30 9 1 8 10
M  V30 10 2 9 11
M  V30 11 1 9 12
M  V30 12 2 10 13
M  V30 13 1 10 14
M  V30 14 1 11 15
M  V30 15 1 11 16
M  V30 16 2 12 17
M  V30 17 1 13 18
M  V30 18 1 13 19
M  V30 19 2 14 20
M  V30 20 2 16 21
M  V30 21 2 19 22
M  V30 22 2 15 18
M  V30 23 1 17 21
M  V30 24 1 20 22
M  V30 25 1 2 23
M  V30 26 1 2 24
M  V30 27 1 3 25
M  V30 28 1 3 26
M  V30 29 1 3 27
M  V30 30 1 4 28
M  V30 31 1 4 29
M  V30 32 1 4 30
M  V30 33 1 7 31
M  V30 34 1 12 32
M  V30 35 1 14 33
M  V30 36 1 15 34
M  V30 37 1 16 35
M  V30 38 1 17 36
M  V30 39 1 18 37
M  V30 40 1 19 38
M  V30 41 1 20 39
M  V30 42 1 21 40
M  V30 43 1 22 41
M  V30 END BOND
M  V30 END CTAB
M  END
>  <NO.>
1730

>  <Name>
intriptyline

>  <SMILES>
CN(C)CC#CC=C1c2ccccc2C=Cc2ccccc21

>  <logBB>


>  <Class>
1

>  <MW>
285.15

>  <nHBAcc>
1

>  <nHBDon>
0

>  <SLogP>
4.17

>  <TopoPSA>
3.24

>  <MMFF94 Energy>
74.825

$$$$
CN(C)CC(=O)C=C1c2ccccc2CCc2ccccc21
Actelion Java MolfileCreator 2.0

  0  0  0  0  0  0              0 V3000
M  V30 BEGIN CTAB
M  V30 COUNTS 43 45 0 0 0
M  V30 BEGIN ATOM
M  V30 1 O -0.3977 1.9104 -1.9104 0
M  V30 2 C -1.1732 1.1624 -1.3191 0
M  V30 3 C -0.8701 -0.295 -1.2819 0
M  V30 4 C -2.5103 1.5772 -0.6964 0
M  V30 5 C -0.0158 -0.8573 -0.4023 0
M  V30 6 N -2.6346 3.0373 -0.5057 0
M  V30 7 C 0.343 -2.2815 -0.6216 0
M  V30 8 C 0.6664 -0.0318 0.6151 0
M  V30 9 C -1.6986 3.5322 0.5067 0
M  V30 10 C -4.0051 3.3855 -0.1335 0
M  V30 11 C 1.6815 -2.7068 -0.7623 0
M  V30 12 C -0.6916 -3.2384 -0.66 0
M  V30 13 C 2.0269 0.2659 0.4391 0
M  V30 14 C -0.0069 0.4218 1.7557 0
M  V30 15 C 1.9321 -4.0832 -0.95 0
M  V30 16 C 2.9114 -1.8135 -0.6854 0
M  V30 17 C -0.4184 -4.5919 -0.8539 0
M  V30 18 C 2.6874 1.0534 1.391 0
M  V30 19 C 2.7601 -0.2883 -0.7576 0
M  V30 20 C 0.6612 1.201 2.7004 0
M  V30 21 C 0.8951 -5.0141 -1.0018 0
M  V30 22 C 2.0042 1.5222 2.514 0
M  V30 23 H -1.3205 -0.8541 -2.0948 0
M  V30 24 H -2.6536 1.0481 0.2526 0
M  V30 25 H -3.2825 1.2366 -1.3978 0
M  V30 26 H -0.6581 3.3471 0.2236 0
M  V30 27 H -1.8763 3.076 1.4872 0
M  V30 28 H -1.7951 4.6186 0.6152 0
M  V30 29 H -4.3081 2.9198 0.8113 0
M  V30 30 H -4.7081 3.0721 -0.9133 0
M  V30 31 H -4.1146 4.4713 -0.034 0
M  V30 32 H -1.7276 -2.9349 -0.5253 0
M  V30 33 H -1.0489 0.1641 1.9214 0
M  V30 34 H 2.9563 -4.4387 -1.0527 0
M  V30 35 H 3.4396 -2.0697 0.2433 0
M  V30 36 H 3.5719 -2.0998 -1.5153 0
M  V30 37 H -1.2301 -5.3138 -0.8813 0
M  V30 38 H 3.7385 1.3021 1.2666 0
M  V30 39 H 3.7621 0.1569 -0.8067 0
M  V30 40 H 2.2555 0.0159 -1.683 0
M  V30 41 H 0.1362 1.5554 3.5834 0
M  V30 42 H 1.1174 -6.0678 -1.1478 0
M  V30 43 H 2.5245 2.1315 3.2486 0
M  V30 END ATOM
M  V30 BEGIN BOND
M  V30 1 2 1 2
M  V30 2 1 2 3
M  V30 3 1 2 4
M  V30 4 2 3 5
M  V30 5 1 4 6
M  V30 6 1 5 7
M  V30 7 1 5 8
M  V30 8 1 6 9
M  V30 9 1 6 10
M  V30 10 2 7 11
M  V30 11 1 7 12
M  V30 12 2 8 13
M  V30 13 1 8 14
M  V30 14 1 11 15
M  V30 15 1 11 16
M  V30 16 2 12 17
M  V30 17 1 13 18
M  V30 18 1 13 19
M  V30 19 2 14 20
M  V30 20 2 15 21
M  V30 21 2 18 22
M  V30 22 1 16 19
M  V30 23 1 17 21
M  V30 24 1 20 22
M  V30 25 1 3 23
M  V30 26 1 4 24
M  V30 27 1 4 25
M  V30 28 1 9 26
M  V30 29 1 9 27
M  V30 30 1 9 28
M  V30 31 1 10 29
M  V30 32 1 10 30
M  V30 33 1 10 31
M  V30 34 1 12 32
M  V30 35 1 14 33
M  V30 36 1 15 34
M  V30 37 1 16 35
M  V30 38 1 16 36
M  V30 39 1 17 37
M  V30 40 1 18 38
M  V30 41 1 19 39
M  V30 42 1 19 40
M  V30 43 1 20 41
M  V30 44 1 21 42
M  V30 45 1 22 43
M  V30 END BOND
M  V30 END CTAB
M  END
>  <NO.>
1731

>  <Name>
cotriptyline

>  <SMILES>
CN(C)CC(=O)C=C1c2ccccc2CCc2ccccc21

>  <logBB>


>  <Class>
1

>  <MW>
291.16

>  <nHBAcc>
2

>  <nHBDon>
0

>  <SLogP>
3.35

>  <TopoPSA>
20.31

>  <MMFF94 Energy>
113.44

$$$$
CN(C)CC(=O)N1c2ccccc2Sc2ccccc21
Actelion Java MolfileCreator 2.0

  0  0  0  0  0  0              0 V3000
M  V30 BEGIN CTAB
M  V30 COUNTS 36 38 0 0 0
M  V30 BEGIN ATOM
M  V30 1 S 2.5152 -1.4599 0.8108 0
M  V30 2 C 2.6941 -0.3465 -0.5773 0
M  V30 3 C 0.8958 -2.103 0.4291 0
M  V30 4 C 1.5727 0.2108 -1.2212 0
M  V30 5 C 3.9836 -0.0532 -1.0387 0
M  V30 6 C -0.0201 -1.3622 -0.3367 0
M  V30 7 C 0.5612 -3.3931 0.8568 0
M  V30 8 N 0.2583 -0.0159 -0.7064 0
M  V30 9 C 1.7673 1.0234 -2.3467 0
M  V30 10 C 4.1625 0.7676 -2.1525 0
M  V30 11 C -1.2224 -1.9618 -0.7411 0
M  V30 12 C -0.6571 -3.964 0.4857 0
M  V30 13 C -0.5862 1.0738 -0.4194 0
M  V30 14 C 3.0556 1.2992 -2.8096 0
M  V30 15 C -1.541 -3.2554 -0.325 0
M  V30 16 O -0.4029 2.204 -0.8854 0
M  V30 17 C -1.7614 0.7983 0.553 0
M  V30 18 N -2.1591 2.0031 1.3227 0
M  V30 19 C -1.106 2.4083 2.2572 0
M  V30 20 C -3.4039 1.7508 2.0476 0
M  V30 21 H 4.8561 -0.4716 -0.5424 0
M  V30 22 H 1.2578 -3.9723 1.4591 0
M  V30 23 H 0.9174 1.463 -2.8641 0
M  V30 24 H 5.1652 0.9898 -2.509 0
M  V30 25 H -1.9168 -1.4306 -1.3879 0
M  V30 26 H -0.9048 -4.972 0.8108 0
M  V30 27 H 3.1917 1.9412 -3.6766 0
M  V30 28 H -2.4779 -3.712 -0.6363 0
M  V30 29 H -2.6035 0.4805 -0.073 0
M  V30 30 H -1.5148 -0.0066 1.2527 0
M  V30 31 H -0.1813 2.6694 1.7327 0
M  V30 32 H -0.877 1.6217 2.9855 0
M  V30 33 H -1.4093 3.3063 2.8078 0
M  V30 34 H -3.3038 0.9329 2.7705 0
M  V30 35 H -4.2112 1.4985 1.351 0
M  V30 36 H -3.7261 2.6494 2.5857 0
M  V30 END ATOM
M  V30 BEGIN BOND
M  V30 1 1 1 2
M  V30 2 1 1 3
M  V30 3 2 2 4
M  V30 4 1 2 5
M  V30 5 2 3 6
M  V30 6 1 3 7
M  V30 7 1 4 8
M  V30 8 1 4 9
M  V30 9 2 5 10
M  V30 10 1 6 11
M  V30 11 2 7 12
M  V30 12 1 8 13
M  V30 13 2 9 14
M  V30 14 2 11 15
M  V30 15 2 13 16
M  V30 16 1 13 17
M  V30 17 1 17 18
M  V30 18 1 18 19
M  V30 19 1 18 20
M  V30 20 1 6 8
M  V30 21 1 10 14
M  V30 22 1 12 15
M  V30 23 1 5 21
M  V30 24 1 7 22
M  V30 25 1 9 23
M  V30 26 1 10 24
M  V30 27 1 11 25
M  V30 28 1 12 26
M  V30 29 1 14 27
M  V30 30 1 15 28
M  V30 31 1 17 29
M  V30 32 1 17 30
M  V30 33 1 19 31
M  V30 34 1 19 32
M  V30 35 1 19 33
M  V30 36 1 20 34
M  V30 37 1 20 35
M  V30 38 1 20 36
M  V30 END BOND
M  V30 END CTAB
M  END
>  <NO.>
1732

>  <Name>
dacemazine

>  <SMILES>
CN(C)CC(=O)N1c2ccccc2Sc2ccccc21

>  <logBB>


>  <Class>
1

>  <MW>
284.1

>  <nHBAcc>
3

>  <nHBDon>
0

>  <SLogP>
3.38

>  <TopoPSA>
23.55

>  <MMFF94 Energy>
115.28

$$$$
CN(C)CC(CN1c2ccccc2Sc2ccccc21)N(C)C
Actelion Java MolfileCreator 2.0

  0  0  0  0  0  0              0 V3000
M  V30 BEGIN CTAB
M  V30 COUNTS 48 50 0 0 0
M  V30 BEGIN ATOM
M  V30 1 S 3.6035 -1.04 0.2399 0
M  V30 2 C 2.2708 -1.7096 1.2154 0
M  V30 3 C 2.8811 -1.0002 -1.3887 0
M  V30 4 C 0.9455 -1.7961 0.7464 0
M  V30 5 C 2.5965 -2.1352 2.5156 0
M  V30 6 C 1.5013 -1.1619 -1.6182 0
M  V30 7 C 3.7638 -0.7911 -2.4632 0
M  V30 8 N 0.585 -1.348 -0.552 0
M  V30 9 C -0.0102 -2.3691 1.6106 0
M  V30 10 C 1.626 -2.6753 3.3553 0
M  V30 11 C 1.0689 -1.183 -2.96 0
M  V30 12 C 3.3009 -0.7776 -3.7762 0
M  V30 13 C -0.7014 -0.5954 -0.6472 0
M  V30 14 C 0.3218 -2.7993 2.8988 0
M  V30 15 C 1.9522 -0.986 -4.0257 0
M  V30 16 C -0.6614 0.7858 0.0969 0 CFG=1
M  V30 17 N 0.3628 1.7111 -0.4699 0
M  V30 18 C -2.1014 1.3938 0.1564 0
M  V30 19 C 0.8013 2.7149 0.4947 0
M  V30 20 C 0.0078 2.3257 -1.7428 0
M  V30 21 N -3.113 0.566 0.8519 0
M  V30 22 C -4.4543 1.1074 0.6098 0
M  V30 23 C -2.8644 0.5085 2.2958 0
M  V30 24 H 3.6187 -2.0525 2.8781 0
M  V30 25 H 4.8259 -0.6475 -2.2781 0
M  V30 26 H -1.0355 -2.5168 1.2847 0
M  V30 27 H 1.8925 -3.0075 4.3547 0
M  V30 28 H 0.03 -1.388 -3.2008 0
M  V30 29 H 3.9945 -0.6228 -4.5976 0
M  V30 30 H -1.0082 -0.4246 -1.6837 0
M  V30 31 H -1.5125 -1.2142 -0.2503 0
M  V30 32 H -0.4408 -3.2382 3.5367 0
M  V30 33 H 1.5825 -1.0063 -5.0471 0
M  V30 34 H -0.3462 0.5756 1.1251 0
M  V30 35 H -2.4395 1.5375 -0.8782 0
M  V30 36 H -2.0687 2.3897 0.6165 0
M  V30 37 H 0.0029 3.4147 0.7628 0
M  V30 38 H 1.6396 3.2942 0.0914 0
M  V30 39 H 1.1691 2.2409 1.4114 0
M  V30 40 H -0.302 1.5807 -2.4811 0
M  V30 41 H 0.8781 2.8361 -2.1707 0
M  V30 42 H -0.7947 3.0644 -1.6413 0
M  V30 43 H -4.6829 1.1056 -0.4617 0
M  V30 44 H -4.5611 2.1318 0.985 0
M  V30 45 H -5.2149 0.4818 1.0902 0
M  V30 46 H -2.8502 1.5044 2.7531 0
M  V30 47 H -1.9167 0.0108 2.5185 0
M  V30 48 H -3.6394 -0.0853 2.7939 0
M  V30 END ATOM
M  V30 BEGIN BOND
M  V30 1 1 1 2
M  V30 2 1 1 3
M  V30 3 2 2 4
M  V30 4 1 2 5
M  V30 5 2 3 6
M  V30 6 1 3 7
M  V30 7 1 4 8
M  V30 8 1 4 9
M  V30 9 2 5 10
M  V30 10 1 6 11
M  V30 11 2 7 12
M  V30 12 1 8 13
M  V30 13 2 9 14
M  V30 14 2 11 15
M  V30 15 1 13 16
M  V30 16 1 16 17
M  V30 17 1 16 18
M  V30 18 1 17 19
M  V30 19 1 17 20
M  V30 20 1 18 21
M  V30 21 1 21 22
M  V30 22 1 21 23
M  V30 23 1 6 8
M  V30 24 1 10 14
M  V30 25 1 12 15
M  V30 26 1 5 24
M  V30 27 1 7 25
M  V30 28 1 9 26
M  V30 29 1 10 27
M  V30 30 1 11 28
M  V30 31 1 12 29
M  V30 32 1 13 30
M  V30 33 1 13 31
M  V30 34 1 14 32
M  V30 35 1 15 33
M  V30 36 1 16 34
M  V30 37 1 18 35
M  V30 38 1 18 36
M  V30 39 1 19 37
M  V30 40 1 19 38
M  V30 41 1 19 39
M  V30 42 1 20 40
M  V30 43 1 20 41
M  V30 44 1 20 42
M  V30 45 1 22 43
M  V30 46 1 22 44
M  V30 47 1 22 45
M  V30 48 1 23 46
M  V30 49 1 23 47
M  V30 50 1 23 48
M  V30 END BOND
M  V30 BEGIN COLLECTION
M  V30 MDLV30/STERAC1 ATOMS=(1 16)
M  V30 END COLLECTION
M  V30 END CTAB
M  END
>  <NO.>
1733

>  <Name>
aminopromazine

>  <SMILES>
CN(C)CC(CN1c2ccccc2Sc2ccccc21)N(C)C

>  <logBB>


>  <Class>
1

>  <MW>
327.18

>  <nHBAcc>
4

>  <nHBDon>
0

>  <SLogP>
3.78

>  <TopoPSA>
9.72

>  <MMFF94 Energy>
129.91

$$$$
CN(C)CC(O)C(c1ccccc1)c1ccc(Cl)cc1
Actelion Java MolfileCreator 2.0

  0  0  0  0  0  0              0 V3000
M  V30 BEGIN CTAB
M  V30 COUNTS 40 41 0 0 0
M  V30 BEGIN ATOM
M  V30 1 Cl -3.4312 3.3513 3.0317 0
M  V30 2 C -2.577 2.1834 2.1007 0
M  V30 3 C -3.0866 1.7716 0.8716 0
M  V30 4 C -1.3811 1.6557 2.5811 0
M  V30 5 C -2.3936 0.8246 0.1141 0
M  V30 6 C -0.6862 0.7096 1.8247 0
M  V30 7 C -1.1832 0.2849 0.5806 0
M  V30 8 C -0.4254 -0.7424 -0.2658 0
M  V30 9 C -0.3215 -2.0825 0.4779 0
M  V30 10 C 0.9129 -0.1424 -0.8005 0
M  V30 11 C -1.5003 -2.8146 0.7216 0
M  V30 12 C 0.89 -2.6154 0.9429 0
M  V30 13 O 1.5362 -1.0635 -1.7168 0
M  V30 14 C 0.7077 1.1901 -1.5727 0
M  V30 15 C -1.4674 -4.0297 1.4089 0
M  V30 16 C 0.9222 -3.8332 1.6292 0
M  V30 17 N 1.9423 1.6055 -2.2899 0
M  V30 18 C -0.255 -4.5386 1.8637 0
M  V30 19 C 2.959 2.1075 -1.358 0
M  V30 20 C 1.6169 2.6553 -3.2627 0
M  V30 21 H -4.0223 2.1803 0.4994 0
M  V30 22 H -0.9875 1.9701 3.5441 0
M  V30 23 H -2.8065 0.5098 -0.8423 0
M  V30 24 H 0.2396 0.2953 2.2195 0
M  V30 25 H -1.0249 -0.9726 -1.1601 0
M  V30 26 H 1.613 0.0216 0.0261 0
M  V30 27 H -2.4602 -2.4353 0.3767 0
M  V30 28 H 1.8332 -2.1052 0.7686 0
M  V30 29 H 2.105 -0.5011 -2.2844 0
M  V30 30 H 0.3557 1.9898 -0.9104 0
M  V30 31 H -0.0741 1.0122 -2.3232 0
M  V30 32 H -2.3889 -4.5773 1.5871 0
M  V30 33 H 1.872 -4.233 1.9748 0
M  V30 34 H -0.2262 -5.4855 2.3956 0
M  V30 35 H 3.293 1.3209 -0.6745 0
M  V30 36 H 2.5944 2.9532 -0.7637 0
M  V30 37 H 3.8516 2.4324 -1.9051 0
M  V30 38 H 1.1919 3.5453 -2.7842 0
M  V30 39 H 0.8999 2.2843 -4.0036 0
M  V30 40 H 2.5119 2.955 -3.8195 0
M  V30 END ATOM
M  V30 BEGIN BOND
M  V30 1 1 1 2
M  V30 2 2 2 3
M  V30 3 1 2 4
M  V30 4 1 3 5
M  V30 5 2 4 6
M  V30 6 2 5 7
M  V30 7 1 7 8
M  V30 8 1 8 9
M  V30 9 1 8 10
M  V30 10 2 9 11
M  V30 11 1 9 12
M  V30 12 1 10 13
M  V30 13 1 10 14
M  V30 14 1 11 15
M  V30 15 2 12 16
M  V30 16 1 14 17
M  V30 17 2 15 18
M  V30 18 1 17 19
M  V30 19 1 17 20
M  V30 20 1 6 7
M  V30 21 1 16 18
M  V30 22 1 3 21
M  V30 23 1 4 22
M  V30 24 1 5 23
M  V30 25 1 6 24
M  V30 26 1 8 25
M  V30 27 1 10 26
M  V30 28 1 11 27
M  V30 29 1 12 28
M  V30 30 1 13 29
M  V30 31 1 14 30
M  V30 32 1 14 31
M  V30 33 1 15 32
M  V30 34 1 16 33
M  V30 35 1 18 34
M  V30 36 1 19 35
M  V30 37 1 19 36
M  V30 38 1 19 37
M  V30 39 1 20 38
M  V30 40 1 20 39
M  V30 41 1 20 40
M  V30 END BOND
M  V30 END CTAB
M  END
>  <NO.>
1734

>  <Name>
clemeprol

>  <SMILES>
CN(C)CC(O)C(c1ccccc1)c1ccc(Cl)cc1

>  <logBB>


>  <Class>
1

>  <MW>
289.12

>  <nHBAcc>
2

>  <nHBDon>
1

>  <SLogP>
3.39

>  <TopoPSA>
23.47

>  <MMFF94 Energy>
95.104

$$$$
CN(C)CC(Oc1ccccc1)Oc1ccccc1
Actelion Java MolfileCreator 2.0

  0  0  0  0  0  0              0 V3000
M  V30 BEGIN CTAB
M  V30 COUNTS 38 39 0 0 0
M  V30 BEGIN ATOM
M  V30 1 O -1.0223 0.2358 0.3931 0
M  V30 2 C -0.4879 0.5936 1.5952 0
M  V30 3 C -0.2658 -0.5141 -0.5703 0
M  V30 4 C 0.8617 0.6073 1.9405 0
M  V30 5 C -1.4314 1.0111 2.5399 0
M  V30 6 O 0.9678 0.0845 -1.0034 0
M  V30 7 C 0.0324 -1.9698 -0.0908 0
M  V30 8 C 1.2599 1.0169 3.2181 0
M  V30 9 C -1.0377 1.4193 3.8157 0
M  V30 10 C 0.901 1.1808 -1.8173 0
M  V30 11 N -1.1362 -2.8053 0.2786 0
M  V30 12 C 0.3115 1.4205 4.1557 0
M  V30 13 C -0.2388 1.9372 -2.0894 0
M  V30 14 C 2.1192 1.552 -2.3939 0
M  V30 15 C -0.6843 -4.0577 0.8879 0
M  V30 16 C -1.9961 -3.0876 -0.8696 0
M  V30 17 C -0.1614 3.0434 -2.9417 0
M  V30 18 C 2.1977 2.6552 -3.2456 0
M  V30 19 C 1.0544 3.4007 -3.5214 0
M  V30 20 H -0.9066 -0.6085 -1.4554 0
M  V30 21 H 1.6376 0.3187 1.2417 0
M  V30 22 H -2.4871 1.0109 2.2796 0
M  V30 23 H 0.6261 -2.4752 -0.8655 0
M  V30 24 H 0.6947 -1.9048 0.7808 0
M  V30 25 H 2.3155 1.0253 3.4769 0
M  V30 26 H -1.7844 1.7353 4.5388 0
M  V30 27 H 0.6245 1.7389 5.1463 0
M  V30 28 H -1.2007 1.7072 -1.6426 0
M  V30 29 H 3.0157 0.976 -2.179 0
M  V30 30 H -0.0906 -3.8578 1.787 0
M  V30 31 H -0.0786 -4.6571 0.1988 0
M  V30 32 H -1.5406 -4.6612 1.2097 0
M  V30 33 H -1.4509 -3.5796 -1.6829 0
M  V30 34 H -2.4511 -2.1711 -1.2578 0
M  V30 35 H -2.8302 -3.7355 -0.5762 0
M  V30 36 H -1.053 3.6313 -3.1455 0
M  V30 37 H 3.1501 2.9325 -3.6889 0
M  V30 38 H 1.1112 4.2628 -4.1806 0
M  V30 END ATOM
M  V30 BEGIN BOND
M  V30 1 1 1 2
M  V30 2 1 1 3
M  V30 3 2 2 4
M  V30 4 1 2 5
M  V30 5 1 3 6
M  V30 6 1 3 7
M  V30 7 1 4 8
M  V30 8 2 5 9
M  V30 9 1 6 10
M  V30 10 1 7 11
M  V30 11 2 8 12
M  V30 12 2 10 13
M  V30 13 1 10 14
M  V30 14 1 11 15
M  V30 15 1 11 16
M  V30 16 1 13 17
M  V30 17 2 14 18
M  V30 18 2 17 19
M  V30 19 1 9 12
M  V30 20 1 18 19
M  V30 21 1 3 20
M  V30 22 1 4 21
M  V30 23 1 5 22
M  V30 24 1 7 23
M  V30 25 1 7 24
M  V30 26 1 8 25
M  V30 27 1 9 26
M  V30 28 1 12 27
M  V30 29 1 13 28
M  V30 30 1 14 29
M  V30 31 1 15 30
M  V30 32 1 15 31
M  V30 33 1 15 32
M  V30 34 1 16 33
M  V30 35 1 16 34
M  V30 36 1 16 35
M  V30 37 1 17 36
M  V30 38 1 18 37
M  V30 39 1 19 38
M  V30 END BOND
M  V30 END CTAB
M  END
>  <NO.>
1735

>  <Name>
medifoxamine

>  <SMILES>
CN(C)CC(Oc1ccccc1)Oc1ccccc1

>  <logBB>


>  <Class>
1

>  <MW>
257.14

>  <nHBAcc>
3

>  <nHBDon>
0

>  <SLogP>
3.03

>  <TopoPSA>
21.7

>  <MMFF94 Energy>
88.647

$$$$
CN(C)CC/C=C1/c2ccccc2CSc2ccccc21
Actelion Java MolfileCreator 2.0

  0  0  0  0  0  0              0 V3000
M  V30 BEGIN CTAB
M  V30 COUNTS 42 44 0 0 0
M  V30 BEGIN ATOM
M  V30 1 S 0.8048 -2.7385 -2.013 0
M  V30 2 C 0.6128 -2.652 -0.2218 0
M  V30 3 C 0.9312 -1.0134 -2.5669 0
M  V30 4 C 0.7275 -1.5292 0.6268 0
M  V30 5 C 0.342 -3.9083 0.3609 0
M  V30 6 C 2.163 -0.3188 -2.0509 0
M  V30 7 C 1.0455 -0.1584 0.1567 0
M  V30 8 C 0.6175 -1.7153 2.0228 0
M  V30 9 C 0.2042 -4.065 1.7411 0
M  V30 10 C 2.2115 0.1056 -0.7127 0
M  V30 11 C 3.2721 -0.0959 -2.8792 0
M  V30 12 C 0.2464 0.9066 0.3946 0
M  V30 13 C 0.3488 -2.9668 2.5748 0
M  V30 14 C 3.351 0.7524 -0.2192 0
M  V30 15 C 4.4055 0.5504 -2.3825 0
M  V30 16 C -1.0798 0.9494 1.1156 0
M  V30 17 C 4.4446 0.9754 -1.0553 0
M  V30 18 C -2.1798 1.5406 0.2126 0
M  V30 19 N -3.5163 1.542 0.8378 0
M  V30 20 C -4.5357 1.8684 -0.1632 0
M  V30 21 C -3.6011 2.486 1.9537 0
M  V30 22 H 0.02 -0.4612 -2.3102 0
M  V30 23 H 0.9566 -1.0318 -3.6628 0
M  V30 24 H 0.2426 -4.7932 -0.2663 0
M  V30 25 H 0.7461 -0.8695 2.6963 0
M  V30 26 H -0.0029 -5.0467 2.1584 0
M  V30 27 H 3.2619 -0.4291 -3.9145 0
M  V30 28 H 0.5518 1.8768 -0.0017 0
M  V30 29 H 0.2588 -3.0801 3.6518 0
M  V30 30 H 3.3929 1.0738 0.8184 0
M  V30 31 H 5.2621 0.7172 -3.0308 0
M  V30 32 H -0.9453 1.5655 2.0115 0
M  V30 33 H -1.4009 -0.0418 1.4481 0
M  V30 34 H 5.3305 1.4729 -0.6693 0
M  V30 35 H -1.9032 2.5555 -0.1045 0
M  V30 36 H -2.2179 0.9266 -0.6978 0
M  V30 37 H -4.5269 1.1345 -0.9768 0
M  V30 38 H -4.3872 2.8652 -0.5944 0
M  V30 39 H -5.5376 1.8289 0.2791 0
M  V30 40 H -3.355 3.5097 1.6491 0
M  V30 41 H -2.9343 2.1957 2.7713 0
M  V30 42 H -4.612 2.4897 2.3779 0
M  V30 END ATOM
M  V30 BEGIN BOND
M  V30 1 1 1 2
M  V30 2 1 1 3
M  V30 3 2 2 4
M  V30 4 1 2 5
M  V30 5 1 3 6
M  V30 6 1 4 7
M  V30 7 1 4 8
M  V30 8 2 5 9
M  V30 9 2 6 10
M  V30 10 1 6 11
M  V30 11 2 7 12
M  V30 12 2 8 13
M  V30 13 1 10 14
M  V30 14 2 11 15
M  V30 15 1 12 16
M  V30 16 2 14 17
M  V30 17 1 16 18
M  V30 18 1 18 19
M  V30 19 1 19 20
M  V30 20 1 19 21
M  V30 21 1 7 10
M  V30 22 1 9 13
M  V30 23 1 15 17
M  V30 24 1 3 22
M  V30 25 1 3 23
M  V30 26 1 5 24
M  V30 27 1 8 25
M  V30 28 1 9 26
M  V30 29 1 11 27
M  V30 30 1 12 28
M  V30 31 1 13 29
M  V30 32 1 14 30
M  V30 33 1 15 31
M  V30 34 1 16 32
M  V30 35 1 16 33
M  V30 36 1 17 34
M  V30 37 1 18 35
M  V30 38 1 18 36
M  V30 39 1 20 37
M  V30 40 1 20 38
M  V30 41 1 20 39
M  V30 42 1 21 40
M  V30 43 1 21 41
M  V30 44 1 21 42
M  V30 END BOND
M  V30 END CTAB
M  END
>  <NO.>
1737

>  <Name>
dothiepin

>  <SMILES>
CN(C)CC/C=C1/c2ccccc2CSc2ccccc21

>  <logBB>


>  <Class>
1

>  <MW>
295.14

>  <nHBAcc>
2

>  <nHBDon>
0

>  <SLogP>
4.68

>  <TopoPSA>
3.24

>  <MMFF94 Energy>
84.318

$$$$
CN(C)CC1=Cc2ccccc2Sc2ccccc21
Actelion Java MolfileCreator 2.0

  0  0  0  0  0  0              0 V3000
M  V30 BEGIN CTAB
M  V30 COUNTS 36 38 0 0 0
M  V30 BEGIN ATOM
M  V30 1 S -1.295 2.1861 0.6473 0
M  V30 2 C -0.0368 2.0319 -0.6173 0
M  V30 3 C -2.3792 0.8493 0.1562 0
M  V30 4 C 0.6973 0.8536 -0.856 0
M  V30 5 C 0.1977 3.1736 -1.4034 0
M  V30 6 C -1.9446 -0.4776 -0.0036 0
M  V30 7 C -3.7287 1.1672 -0.0653 0
M  V30 8 C 0.592 -0.3625 -0.0048 0
M  V30 9 C 1.6208 0.8487 -1.9206 0
M  V30 10 C 1.1261 3.1494 -2.4429 0
M  V30 11 C -0.5852 -0.9319 0.3264 0
M  V30 12 C -2.8745 -1.4581 -0.3887 0
M  V30 13 C -4.6381 0.185 -0.4593 0
M  V30 14 C 1.924 -0.9427 0.4683 0
M  V30 15 C 1.8315 1.983 -2.7076 0
M  V30 16 C -4.21 -1.1276 -0.6244 0
M  V30 17 N 1.8813 -1.6865 1.7443 0
M  V30 18 C 1.7103 -0.7697 2.8776 0
M  V30 19 C 3.1132 -2.4582 1.9193 0
M  V30 20 H -0.3576 4.0909 -1.2182 0
M  V30 21 H -4.0798 2.1891 0.0608 0
M  V30 22 H 2.1874 -0.0497 -2.1556 0
M  V30 23 H 1.2885 4.0373 -3.0484 0
M  V30 24 H -0.5674 -1.8429 0.9246 0
M  V30 25 H -2.561 -2.4938 -0.5041 0
M  V30 26 H -5.6786 0.4463 -0.6341 0
M  V30 27 H 2.6794 -0.1479 0.5439 0
M  V30 28 H 2.2613 -1.6231 -0.3259 0
M  V30 29 H 2.5489 1.9527 -3.5237 0
M  V30 30 H -4.915 -1.8979 -0.9262 0
M  V30 31 H 0.7724 -0.2097 2.8045 0
M  V30 32 H 2.5339 -0.0503 2.9557 0
M  V30 33 H 1.6582 -1.3325 3.8167 0
M  V30 34 H 4.0039 -1.8196 1.9388 0
M  V30 35 H 3.2289 -3.188 1.1103 0
M  V30 36 H 3.0791 -3.0319 2.8525 0
M  V30 END ATOM
M  V30 BEGIN BOND
M  V30 1 1 1 2
M  V30 2 1 1 3
M  V30 3 2 2 4
M  V30 4 1 2 5
M  V30 5 2 3 6
M  V30 6 1 3 7
M  V30 7 1 4 8
M  V30 8 1 4 9
M  V30 9 2 5 10
M  V30 10 1 6 11
M  V30 11 1 6 12
M  V30 12 2 7 13
M  V30 13 1 8 14
M  V30 14 2 9 15
M  V30 15 2 12 16
M  V30 16 1 14 17
M  V30 17 1 17 18
M  V30 18 1 17 19
M  V30 19 2 8 11
M  V30 20 1 10 15
M  V30 21 1 13 16
M  V30 22 1 5 20
M  V30 23 1 7 21
M  V30 24 1 9 22
M  V30 25 1 10 23
M  V30 26 1 11 24
M  V30 27 1 12 25
M  V30 28 1 13 26
M  V30 29 1 14 27
M  V30 30 1 14 28
M  V30 31 1 15 29
M  V30 32 1 16 30
M  V30 33 1 18 31
M  V30 34 1 18 32
M  V30 35 1 18 33
M  V30 36 1 19 34
M  V30 37 1 19 35
M  V30 38 1 19 36
M  V30 END BOND
M  V30 END CTAB
M  END
>  <NO.>
1739

>  <Name>
damotepine

>  <SMILES>
CN(C)CC1=Cc2ccccc2Sc2ccccc21

>  <logBB>


>  <Class>
1

>  <MW>
267.11

>  <nHBAcc>
2

>  <nHBDon>
0

>  <SLogP>
4.25

>  <TopoPSA>
3.24

>  <MMFF94 Energy>
74.749

$$$$
CN(C)CC1COC2(O1)c1ccccc1COc1ccccc12
Actelion Java MolfileCreator 2.0

  0  0  0  0  0  0              0 V3000
M  V30 BEGIN CTAB
M  V30 COUNTS 44 47 0 0 0
M  V30 BEGIN ATOM
M  V30 1 O -3.2127 0.2406 1.0432 0
M  V30 2 C -2.8775 0.0576 -0.2698 0
M  V30 3 C -2.9672 1.5959 1.4248 0
M  V30 4 C -1.5306 -0.0459 -0.6306 0
M  V30 5 C -3.9047 -0.0487 -1.2075 0
M  V30 6 C -1.5258 2.0213 1.6658 0
M  V30 7 C -1.2353 -0.1923 -1.9976 0
M  V30 8 C -0.4603 -0.0107 0.4526 0
M  V30 9 C -3.5909 -0.2101 -2.5539 0
M  V30 10 C -0.3811 1.332 1.1948 0
M  V30 11 C -1.3574 3.2386 2.3653 0
M  V30 12 C -2.2565 -0.2719 -2.9502 0
M  V30 13 O 0.8234 -0.3125 -0.1523 0
M  V30 14 O -0.7371 -1.0368 1.4337 0
M  V30 15 C 0.8887 1.8926 1.4742 0
M  V30 16 C -0.0941 3.7665 2.6193 0
M  V30 17 C 1.12 -1.6589 0.2344 0
M  V30 18 C 0.4811 -1.7509 1.5963 0
M  V30 19 C 1.0311 3.0919 2.1734 0
M  V30 20 C 2.6315 -1.9362 0.2834 0
M  V30 21 N 3.3738 -1.9979 -0.9903 0
M  V30 22 C 3.3743 -0.725 -1.7077 0
M  V30 23 C 2.9209 -3.0814 -1.8577 0
M  V30 24 H -3.4286 2.2828 0.7004 0
M  V30 25 H -3.5146 1.7278 2.3668 0
M  V30 26 H -4.9414 0.0042 -0.8882 0
M  V30 27 H -0.2031 -0.2538 -2.3349 0
M  V30 28 H -4.384 -0.2844 -3.293 0
M  V30 29 H -2.2291 3.788 2.7187 0
M  V30 30 H -2.0073 -0.3913 -4.0017 0
M  V30 31 H 1.7963 1.3913 1.1424 0
M  V30 32 H 0.0081 4.7024 3.1619 0
M  V30 33 H 0.6088 -2.3329 -0.4624 0
M  V30 34 H 1.0703 -1.2492 2.3723 0
M  V30 35 H 0.2822 -2.7793 1.9101 0
M  V30 36 H 2.0222 3.4938 2.3665 0
M  V30 37 H 3.1125 -1.1692 0.9053 0
M  V30 38 H 2.7965 -2.886 0.8088 0
M  V30 39 H 3.6947 0.0937 -1.0539 0
M  V30 40 H 2.3956 -0.4748 -2.1295 0
M  V30 41 H 4.0924 -0.7616 -2.5349 0
M  V30 42 H 1.9088 -2.9192 -2.2438 0
M  V30 43 H 2.9396 -4.0386 -1.325 0
M  V30 44 H 3.5951 -3.188 -2.715 0
M  V30 END ATOM
M  V30 BEGIN BOND
M  V30 1 1 1 2
M  V30 2 1 1 3
M  V30 3 2 2 4
M  V30 4 1 2 5
M  V30 5 1 3 6
M  V30 6 1 4 7
M  V30 7 1 4 8
M  V30 8 2 5 9
M  V30 9 2 6 10
M  V30 10 1 6 11
M  V30 11 2 7 12
M  V30 12 1 8 13
M  V30 13 1 8 14
M  V30 14 1 10 15
M  V30 15 2 11 16
M  V30 16 1 13 17
M  V30 17 1 14 18
M  V30 18 2 15 19
M  V30 19 1 17 20
M  V30 20 1 20 21
M  V30 21 1 21 22
M  V30 22 1 21 23
M  V30 23 1 8 10
M  V30 24 1 9 12
M  V30 25 1 16 19
M  V30 26 1 17 18
M  V30 27 1 3 24
M  V30 28 1 3 25
M  V30 29 1 5 26
M  V30 30 1 7 27
M  V30 31 1 9 28
M  V30 32 1 11 29
M  V30 33 1 12 30
M  V30 34 1 15 31
M  V30 35 1 16 32
M  V30 36 1 17 33
M  V30 37 1 18 34
M  V30 38 1 18 35
M  V30 39 1 19 36
M  V30 40 1 20 37
M  V30 41 1 20 38
M  V30 42 1 22 39
M  V30 43 1 22 40
M  V30 44 1 22 41
M  V30 45 1 23 42
M  V30 46 1 23 43
M  V30 47 1 23 44
M  V30 END BOND
M  V30 END CTAB
M  END
>  <NO.>
1740

>  <Name>
spiroxepin

>  <SMILES>
CN(C)CC1COC2(O1)c1ccccc1COc1ccccc12

>  <logBB>


>  <Class>
1

>  <MW>
311.15

>  <nHBAcc>
4

>  <nHBDon>
0

>  <SLogP>
2.76

>  <TopoPSA>
30.93

>  <MMFF94 Energy>
105.72

$$$$
CN(C)CCC(c1ccccc1)C1CCCCC1
Actelion Java MolfileCreator 2.0

  0  0  0  0  0  0              0 V3000
M  V30 BEGIN CTAB
M  V30 COUNTS 45 46 0 0 0
M  V30 BEGIN ATOM
M  V30 1 N -1.0985 3.0626 1.8838 0
M  V30 2 C -0.3204 1.826 1.6722 0
M  V30 3 C -0.7551 4.0979 0.9061 0
M  V30 4 C -0.8623 3.5709 3.2385 0
M  V30 5 C -0.7151 1.0927 0.3761 0
M  V30 6 C -0.0936 -0.3247 0.2613 0 CFG=2
M  V30 7 C 1.4277 -0.2559 0.3749 0
M  V30 8 C -0.5339 -1.0841 -1.0386 0
M  V30 9 C 2.0761 -0.887 1.4481 0
M  V30 10 C 2.205 0.4329 -0.5691 0
M  V30 11 C 0.018 -2.5293 -1.0481 0
M  V30 12 C -2.0673 -1.1157 -1.2122 0
M  V30 13 C 3.4653 -0.8302 1.5727 0
M  V30 14 C 3.594 0.4883 -0.4423 0
M  V30 15 C -0.4292 -3.3209 -2.274 0
M  V30 16 C -2.5066 -1.9251 -2.4311 0
M  V30 17 C 4.2236 -0.1426 0.628 0
M  V30 18 C -1.9451 -3.339 -2.4064 0
M  V30 19 H -0.5159 1.1417 2.5083 0
M  V30 20 H 0.7532 2.0499 1.6832 0
M  V30 21 H -1.0318 3.7941 -0.108 0
M  V30 22 H 0.3134 4.3411 0.9186 0
M  V30 23 H -1.317 5.0174 1.1074 0
M  V30 24 H 0.191 3.8219 3.4086 0
M  V30 25 H -1.1668 2.8306 3.987 0
M  V30 26 H -1.4657 4.4665 3.425 0
M  V30 27 H -0.4347 1.6884 -0.5001 0
M  V30 28 H -1.8078 1.009 0.37 0
M  V30 29 H -0.4759 -0.9043 1.1141 0
M  V30 30 H -0.1192 -0.5619 -1.9118 0
M  V30 31 H 1.5025 -1.4304 2.1957 0
M  V30 32 H 1.7346 0.933 -1.4125 0
M  V30 33 H 1.1134 -2.5242 -1.032 0
M  V30 34 H -0.3109 -3.0543 -0.1419 0
M  V30 35 H -2.4592 -0.1007 -1.3361 0
M  V30 36 H -2.5325 -1.5353 -0.3113 0
M  V30 37 H 3.9555 -1.3243 2.4074 0
M  V30 38 H 4.1848 1.0241 -1.1806 0
M  V30 39 H -0.054 -4.3482 -2.2046 0
M  V30 40 H 0.0137 -2.8793 -3.1751 0
M  V30 41 H -3.6013 -1.9645 -2.4698 0
M  V30 42 H -2.1743 -1.4154 -3.3441 0
M  V30 43 H 5.305 -0.0998 0.7251 0
M  V30 44 H -2.3819 -3.8941 -1.5672 0
M  V30 45 H -2.2306 -3.8669 -3.3232 0
M  V30 END ATOM
M  V30 BEGIN BOND
M  V30 1 1 1 2
M  V30 2 1 1 3
M  V30 3 1 1 4
M  V30 4 1 2 5
M  V30 5 1 5 6
M  V30 6 1 6 7
M  V30 7 1 6 8
M  V30 8 2 7 9
M  V30 9 1 7 10
M  V30 10 1 8 11
M  V30 11 1 8 12
M  V30 12 1 9 13
M  V30 13 2 10 14
M  V30 14 1 11 15
M  V30 15 1 12 16
M  V30 16 2 13 17
M  V30 17 1 15 18
M  V30 18 1 14 17
M  V30 19 1 16 18
M  V30 20 1 2 19
M  V30 21 1 2 20
M  V30 22 1 3 21
M  V30 23 1 3 22
M  V30 24 1 3 23
M  V30 25 1 4 24
M  V30 26 1 4 25
M  V30 27 1 4 26
M  V30 28 1 5 27
M  V30 29 1 5 28
M  V30 30 1 6 29
M  V30 31 1 8 30
M  V30 32 1 9 31
M  V30 33 1 10 32
M  V30 34 1 11 33
M  V30 35 1 11 34
M  V30 36 1 12 35
M  V30 37 1 12 36
M  V30 38 1 13 37
M  V30 39 1 14 38
M  V30 40 1 15 39
M  V30 41 1 15 40
M  V30 42 1 16 41
M  V30 43 1 16 42
M  V30 44 1 17 43
M  V30 45 1 18 44
M  V30 46 1 18 45
M  V30 END BOND
M  V30 BEGIN COLLECTION
M  V30 MDLV30/STERAC1 ATOMS=(1 6)
M  V30 END COLLECTION
M  V30 END CTAB
M  END
>  <NO.>
1741

>  <Name>
gamfexine

>  <SMILES>
CN(C)CCC(c1ccccc1)C1CCCCC1

>  <logBB>


>  <Class>
1

>  <MW>
245.21

>  <nHBAcc>
1

>  <nHBDon>
0

>  <SLogP>
4.3

>  <TopoPSA>
3.24

>  <MMFF94 Energy>
37.781

$$$$
CN(C)CCC1(C)OCCC2=C1c1ccccc1C2
Actelion Java MolfileCreator 2.0

  0  0  0  0  0  0              0 V3000
M  V30 BEGIN CTAB
M  V30 COUNTS 42 44 0 0 0
M  V30 BEGIN ATOM
M  V30 1 O 0.6342 -1.9035 0.7928 0
M  V30 2 C 0.6674 -0.4849 0.4614 0 CFG=2
M  V30 3 C 0.4096 -2.1969 2.1749 0
M  V30 4 C -0.4072 0.2526 1.2292 0
M  V30 5 C 0.4006 -0.4221 -1.065 0
M  V30 6 C 2.059 0.0582 0.8215 0
M  V30 7 C -0.9747 -1.7202 2.62 0
M  V30 8 C -0.8291 1.6502 1.1209 0
M  V30 9 C -1.1682 -0.3119 2.1862 0
M  V30 10 C 1.3416 -1.3043 -1.9049 0
M  V30 11 C -1.8868 1.8704 2.0217 0
M  V30 12 C -0.3616 2.6932 0.3383 0
M  V30 13 C -2.1937 0.6118 2.7755 0
M  V30 14 N 1.1714 -1.1035 -3.3606 0
M  V30 15 C -2.4983 3.1085 2.1447 0
M  V30 16 C -0.971 3.9481 0.4531 0
M  V30 17 C -0.1303 -1.5842 -3.8302 0
M  V30 18 C 2.2396 -1.7999 -4.0838 0
M  V30 19 C -2.0323 4.1533 1.3474 0
M  V30 20 H 1.2044 -1.7523 2.7848 0
M  V30 21 H 0.4793 -3.2825 2.2987 0
M  V30 22 H -0.6317 -0.7507 -1.2415 0
M  V30 23 H 0.474 0.6088 -1.4264 0
M  V30 24 H 2.2484 1.034 0.3634 0
M  V30 25 H 2.1751 0.1754 1.9055 0
M  V30 26 H 2.85 -0.6316 0.5091 0
M  V30 27 H -1.0601 -1.8127 3.7075 0
M  V30 28 H -1.7537 -2.3391 2.1608 0
M  V30 29 H 2.3738 -1.0401 -1.6497 0
M  V30 30 H 1.2065 -2.3624 -1.6479 0
M  V30 31 H 0.4619 2.5639 -0.3536 0
M  V30 32 H -3.2096 0.263 2.5698 0
M  V30 33 H -2.0359 0.7482 3.8492 0
M  V30 34 H -3.3145 3.2649 2.8421 0
M  V30 35 H -0.6167 4.7749 -0.1579 0
M  V30 36 H -0.9484 -0.9932 -3.4074 0
M  V30 37 H -0.2959 -2.639 -3.5833 0
M  V30 38 H -0.2118 -1.4712 -4.9175 0
M  V30 39 H 2.2232 -2.8812 -3.9056 0
M  V30 40 H 3.2215 -1.415 -3.7867 0
M  V30 41 H 2.152 -1.6258 -5.1621 0
M  V30 42 H -2.4914 5.1363 1.4206 0
M  V30 END ATOM
M  V30 BEGIN BOND
M  V30 1 1 1 2
M  V30 2 1 1 3
M  V30 3 1 2 4
M  V30 4 1 2 5
M  V30 5 1 2 6
M  V30 6 1 3 7
M  V30 7 1 4 8
M  V30 8 2 4 9
M  V30 9 1 5 10
M  V30 10 2 8 11
M  V30 11 1 8 12
M  V30 12 1 9 13
M  V30 13 1 10 14
M  V30 14 1 11 15
M  V30 15 2 12 16
M  V30 16 1 14 17
M  V30 17 1 14 18
M  V30 18 2 15 19
M  V30 19 1 7 9
M  V30 20 1 11 13
M  V30 21 1 16 19
M  V30 22 1 3 20
M  V30 23 1 3 21
M  V30 24 1 5 22
M  V30 25 1 5 23
M  V30 26 1 6 24
M  V30 27 1 6 25
M  V30 28 1 6 26
M  V30 29 1 7 27
M  V30 30 1 7 28
M  V30 31 1 10 29
M  V30 32 1 10 30
M  V30 33 1 12 31
M  V30 34 1 13 32
M  V30 35 1 13 33
M  V30 36 1 15 34
M  V30 37 1 16 35
M  V30 38 1 17 36
M  V30 39 1 17 37
M  V30 40 1 17 38
M  V30 41 1 18 39
M  V30 42 1 18 40
M  V30 43 1 18 41
M  V30 44 1 19 42
M  V30 END BOND
M  V30 BEGIN COLLECTION
M  V30 MDLV30/STERAC1 ATOMS=(1 2)
M  V30 END COLLECTION
M  V30 END CTAB
M  END
>  <NO.>
1742

>  <Name>
57932-12-4

>  <SMILES>
CN(C)CCC1(C)OCCC2=C1c1ccccc1C2

>  <logBB>


>  <Class>
1

>  <MW>
257.18

>  <nHBAcc>
2

>  <nHBDon>
0

>  <SLogP>
3.13

>  <TopoPSA>
12.47

>  <MMFF94 Energy>
64.825

$$$$
CN(C)CCC1(c2ccccc2)C=Cc2ccccc21
Actelion Java MolfileCreator 2.0

  0  0  0  0  0  0              0 V3000
M  V30 BEGIN CTAB
M  V30 COUNTS 41 43 0 0 0
M  V30 BEGIN ATOM
M  V30 1 N 1.7466 -0.4761 -1.5877 0
M  V30 2 C 1.6689 0.9214 -1.1474 0
M  V30 3 C 3.0797 -1.0256 -1.3292 0
M  V30 4 C 1.4366 -0.6131 -3.0131 0
M  V30 5 C 0.2468 1.486 -0.9657 0
M  V30 6 C -0.6978 0.8142 0.0852 0 CFG=1
M  V30 7 C -1.257 -0.5641 -0.3193 0
M  V30 8 C -0.123 0.9226 1.4999 0
M  V30 9 C -1.904 1.7731 0.2618 0
M  V30 10 C -1.2778 -1.6662 0.5543 0
M  V30 11 C -1.8418 -0.7475 -1.5898 0
M  V30 12 C -0.8933 1.8063 2.2712 0
M  V30 13 C 0.9779 0.2872 2.0641 0
M  V30 14 C -1.9944 2.3186 1.4833 0
M  V30 15 C -1.8155 -2.898 0.1647 0
M  V30 16 C -2.3797 -1.9773 -1.981 0
M  V30 17 C -0.5772 2.0816 3.5917 0
M  V30 18 C 1.3057 0.5579 3.3952 0
M  V30 19 C -2.3614 -3.0552 -1.1042 0
M  V30 20 C 0.5351 1.4515 4.1531 0
M  V30 21 H 2.207 1.5645 -1.8581 0
M  V30 22 H 2.2052 1.0496 -0.2011 0
M  V30 23 H 3.3085 -0.9992 -0.2583 0
M  V30 24 H 3.8639 -0.4763 -1.8628 0
M  V30 25 H 3.128 -2.0782 -1.6301 0
M  V30 26 H 2.1659 -0.0923 -3.6447 0
M  V30 27 H 0.4454 -0.22 -3.2534 0
M  V30 28 H 1.428 -1.6705 -3.3005 0
M  V30 29 H -0.2433 1.532 -1.9459 0
M  V30 30 H 0.3866 2.541 -0.6818 0
M  V30 31 H -2.6044 1.976 -0.5372 0
M  V30 32 H -0.8871 -1.5905 1.5648 0
M  V30 33 H -1.8913 0.0764 -2.2969 0
M  V30 34 H 1.5643 -0.4247 1.4915 0
M  V30 35 H -2.7433 3.0061 1.8402 0
M  V30 36 H -1.8104 -3.7319 0.8615 0
M  V30 37 H -2.816 -2.088 -2.9698 0
M  V30 38 H -1.179 2.7656 4.1806 0
M  V30 39 H 2.1621 0.0658 3.8498 0
M  V30 40 H -2.779 -4.0118 -1.404 0
M  V30 41 H 0.8022 1.6489 5.1883 0
M  V30 END ATOM
M  V30 BEGIN BOND
M  V30 1 1 1 2
M  V30 2 1 1 3
M  V30 3 1 1 4
M  V30 4 1 2 5
M  V30 5 1 5 6
M  V30 6 1 6 7
M  V30 7 1 6 8
M  V30 8 1 6 9
M  V30 9 2 7 10
M  V30 10 1 7 11
M  V30 11 2 8 12
M  V30 12 1 8 13
M  V30 13 2 9 14
M  V30 14 1 10 15
M  V30 15 2 11 16
M  V30 16 1 12 17
M  V30 17 2 13 18
M  V30 18 2 15 19
M  V30 19 2 17 20
M  V30 20 1 12 14
M  V30 21 1 16 19
M  V30 22 1 18 20
M  V30 23 1 2 21
M  V30 24 1 2 22
M  V30 25 1 3 23
M  V30 26 1 3 24
M  V30 27 1 3 25
M  V30 28 1 4 26
M  V30 29 1 4 27
M  V30 30 1 4 28
M  V30 31 1 5 29
M  V30 32 1 5 30
M  V30 33 1 9 31
M  V30 34 1 10 32
M  V30 35 1 11 33
M  V30 36 1 13 34
M  V30 37 1 14 35
M  V30 38 1 15 36
M  V30 39 1 16 37
M  V30 40 1 17 38
M  V30 41 1 18 39
M  V30 42 1 19 40
M  V30 43 1 20 41
M  V30 END BOND
M  V30 BEGIN COLLECTION
M  V30 MDLV30/STERAC1 ATOMS=(1 6)
M  V30 END COLLECTION
M  V30 END CTAB
M  END
>  <NO.>
1743

>  <Name>
indriline

>  <SMILES>
CN(C)CCC1(c2ccccc2)C=Cc2ccccc21

>  <logBB>


>  <Class>
1

>  <MW>
263.17

>  <nHBAcc>
1

>  <nHBDon>
0

>  <SLogP>
3.95

>  <TopoPSA>
3.24

>  <MMFF94 Energy>
79.667

$$$$
CN(C)CCC=C1c2ccccc2C(C)(C)c2ccccc21
Actelion Java MolfileCreator 2.0

  0  0  0  0  0  0              0 V3000
M  V30 BEGIN CTAB
M  V30 COUNTS 47 49 0 0 0
M  V30 BEGIN ATOM
M  V30 1 N -1.7442 -2.379 3.3319 0
M  V30 2 C -1.3887 -2.0909 1.928 0
M  V30 3 C -0.9714 -1.5614 4.2703 0
M  V30 4 C -1.5201 -3.7989 3.6193 0
M  V30 5 C -1.8115 -0.6832 1.4608 0
M  V30 6 C -1.5784 -0.509 -0.0213 0
M  V30 7 C -0.869 0.4406 -0.6727 0
M  V30 8 C -0.6104 0.2456 -2.121 0
M  V30 9 C -0.162 1.5493 0.0052 0
M  V30 10 C 0.7005 0.5164 -2.5808 0
M  V30 11 C -1.6159 -0.1445 -3.0198 0
M  V30 12 C 1.1557 1.833 -0.4237 0
M  V30 13 C -0.788 2.3656 0.9592 0
M  V30 14 C 0.969 0.3161 -3.9479 0
M  V30 15 C 1.7826 0.9774 -1.5611 0
M  V30 16 C -1.3263 -0.3168 -4.3704 0
M  V30 17 C 1.8441 2.8794 0.219 0
M  V30 18 C -0.0923 3.4084 1.5645 0
M  V30 19 C -0.034 -0.0949 -4.8311 0
M  V30 20 C 2.4171 -0.2818 -0.925 0
M  V30 21 C 2.9215 1.7527 -2.2756 0
M  V30 22 C 1.2268 3.655 1.2049 0
M  V30 23 H -1.8998 -2.8212 1.2859 0
M  V30 24 H -0.311 -2.229 1.7648 0
M  V30 25 H -1.216 -0.4998 4.1676 0
M  V30 26 H 0.1089 -1.6865 4.1357 0
M  V30 27 H -1.2195 -1.8262 5.3049 0
M  V30 28 H -0.4703 -4.0863 3.4904 0
M  V30 29 H -2.134 -4.427 2.9641 0
M  V30 30 H -1.8201 -4.0365 4.6462 0
M  V30 31 H -2.8796 -0.5341 1.6593 0
M  V30 32 H -1.2623 0.0585 2.042 0
M  V30 33 H -2.0153 -1.3188 -0.606 0
M  V30 34 H -2.6339 -0.3057 -2.6743 0
M  V30 35 H -1.8274 2.1976 1.2302 0
M  V30 36 H 1.9591 0.4729 -4.3633 0
M  V30 37 H -2.1079 -0.6219 -5.0606 0
M  V30 38 H 2.8709 3.1252 -0.032 0
M  V30 39 H -0.5811 4.0278 2.3115 0
M  V30 40 H 0.1971 -0.235 -5.8842 0
M  V30 41 H 1.6827 -0.8974 -0.3928 0
M  V30 42 H 3.1945 -0.0112 -0.2004 0
M  V30 43 H 2.8802 -0.9205 -1.6867 0
M  V30 44 H 2.5451 2.6646 -2.7543 0
M  V30 45 H 3.4185 1.148 -3.0416 0
M  V30 46 H 3.725 2.0376 -1.5879 0
M  V30 47 H 1.7759 4.4643 1.6796 0
M  V30 END ATOM
M  V30 BEGIN BOND
M  V30 1 1 1 2
M  V30 2 1 1 3
M  V30 3 1 1 4
M  V30 4 1 2 5
M  V30 5 1 5 6
M  V30 6 2 6 7
M  V30 7 1 7 8
M  V30 8 1 7 9
M  V30 9 2 8 10
M  V30 10 1 8 11
M  V30 11 2 9 12
M  V30 12 1 9 13
M  V30 13 1 10 14
M  V30 14 1 10 15
M  V30 15 2 11 16
M  V30 16 1 12 17
M  V30 17 2 13 18
M  V30 18 2 14 19
M  V30 19 1 15 20
M  V30 20 1 15 21
M  V30 21 2 17 22
M  V30 22 1 12 15
M  V30 23 1 16 19
M  V30 24 1 18 22
M  V30 25 1 2 23
M  V30 26 1 2 24
M  V30 27 1 3 25
M  V30 28 1 3 26
M  V30 29 1 3 27
M  V30 30 1 4 28
M  V30 31 1 4 29
M  V30 32 1 4 30
M  V30 33 1 5 31
M  V30 34 1 5 32
M  V30 35 1 6 33
M  V30 36 1 11 34
M  V30 37 1 13 35
M  V30 38 1 14 36
M  V30 39 1 16 37
M  V30 40 1 17 38
M  V30 41 1 18 39
M  V30 42 1 19 40
M  V30 43 1 20 41
M  V30 44 1 20 42
M  V30 45 1 20 43
M  V30 46 1 21 44
M  V30 47 1 21 45
M  V30 48 1 21 46
M  V30 49 1 22 47
M  V30 END BOND
M  V30 END CTAB
M  END
>  <NO.>
1744

>  <Name>
melitracen

>  <SMILES>
CN(C)CCC=C1c2ccccc2C(C)(C)c2ccccc21

>  <logBB>


>  <Class>
1

>  <MW>
291.2

>  <nHBAcc>
1

>  <nHBDon>
0

>  <SLogP>
4.71

>  <TopoPSA>
3.24

>  <MMFF94 Energy>
95.42

$$$$
CN(C)CCC=C1c2ccccc2Sc2ccccc21
Actelion Java MolfileCreator 2.0

  0  0  0  0  0  0              0 V3000
M  V30 BEGIN CTAB
M  V30 COUNTS 39 41 0 0 0
M  V30 BEGIN ATOM
M  V30 1 S 2.9884 1.0492 1.8568 0
M  V30 2 C 3.0958 -0.1678 0.5447 0
M  V30 3 C 1.4618 0.5723 2.6658 0
M  V30 4 C 1.9667 -0.842 0.0422 0
M  V30 5 C 4.3652 -0.4531 0.0221 0
M  V30 6 C 0.4553 -0.1597 2.0096 0
M  V30 7 C 1.3026 0.9196 4.015 0
M  V30 8 C 0.6195 -0.4836 0.5694 0
M  V30 9 C 2.1444 -1.8377 -0.9333 0
M  V30 10 C 4.5231 -1.426 -0.9654 0
M  V30 11 C -0.6477 -0.6134 2.7509 0
M  V30 12 C 0.1773 0.5019 4.7262 0
M  V30 13 C -0.3682 -0.2934 -0.3375 0
M  V30 14 C 3.4149 -2.1247 -1.4355 0
M  V30 15 C -0.7903 -0.2763 4.0982 0
M  V30 16 C -1.7587 0.2635 -0.1308 0
M  V30 17 C -2.1583 1.3085 -1.1983 0
M  V30 18 N -3.0603 0.7947 -2.2496 0
M  V30 19 C -2.4128 -0.1989 -3.1053 0
M  V30 20 C -3.5517 1.9062 -3.0697 0
M  V30 21 H 5.2431 0.0707 0.3934 0
M  V30 22 H 2.0668 1.4994 4.5278 0
M  V30 23 H 1.2932 -2.4022 -1.3067 0
M  V30 24 H 5.5129 -1.6459 -1.3571 0
M  V30 25 H -1.407 -1.2348 2.2819 0
M  V30 26 H 0.0676 0.7675 5.7746 0
M  V30 27 H -0.1501 -0.4996 -1.3841 0
M  V30 28 H 3.538 -2.8941 -2.1935 0
M  V30 29 H -1.6568 -0.6235 4.6555 0
M  V30 30 H -1.8302 0.7672 0.8383 0
M  V30 31 H -2.4801 -0.5617 -0.1098 0
M  V30 32 H -2.6994 2.1003 -0.662 0
M  V30 33 H -1.2712 1.785 -1.6367 0
M  V30 34 H -2.1608 -1.1014 -2.5401 0
M  V30 35 H -1.502 0.1895 -3.5748 0
M  V30 36 H -3.0936 -0.5254 -3.9 0
M  V30 37 H -2.7386 2.4295 -3.5858 0
M  V30 38 H -4.0939 2.6318 -2.453 0
M  V30 39 H -4.2631 1.546 -3.8214 0
M  V30 END ATOM
M  V30 BEGIN BOND
M  V30 1 1 1 2
M  V30 2 1 1 3
M  V30 3 2 2 4
M  V30 4 1 2 5
M  V30 5 2 3 6
M  V30 6 1 3 7
M  V30 7 1 4 8
M  V30 8 1 4 9
M  V30 9 2 5 10
M  V30 10 1 6 11
M  V30 11 2 7 12
M  V30 12 2 8 13
M  V30 13 2 9 14
M  V30 14 2 11 15
M  V30 15 1 13 16
M  V30 16 1 16 17
M  V30 17 1 17 18
M  V30 18 1 18 19
M  V30 19 1 18 20
M  V30 20 1 6 8
M  V30 21 1 10 14
M  V30 22 1 12 15
M  V30 23 1 5 21
M  V30 24 1 7 22
M  V30 25 1 9 23
M  V30 26 1 10 24
M  V30 27 1 11 25
M  V30 28 1 12 26
M  V30 29 1 13 27
M  V30 30 1 14 28
M  V30 31 1 15 29
M  V30 32 1 16 30
M  V30 33 1 16 31
M  V30 34 1 17 32
M  V30 35 1 17 33
M  V30 36 1 19 34
M  V30 37 1 19 35
M  V30 38 1 19 36
M  V30 39 1 20 37
M  V30 40 1 20 38
M  V30 41 1 20 39
M  V30 END BOND
M  V30 END CTAB
M  END
>  <NO.>
1745

>  <Name>
prothixene

>  <SMILES>
CN(C)CCC=C1c2ccccc2Sc2ccccc21

>  <logBB>


>  <Class>
1

>  <MW>
281.12

>  <nHBAcc>
2

>  <nHBDon>
0

>  <SLogP>
4.53

>  <TopoPSA>
3.24

>  <MMFF94 Energy>
83.708

$$$$
CN(C)CCCC1c2ccccc2Nc2ccc(Cl)cc21
Actelion Java MolfileCreator 2.0

  0  0  0  0  0  0              0 V3000
M  V30 BEGIN CTAB
M  V30 COUNTS 42 44 0 0 0
M  V30 BEGIN ATOM
M  V30 1 Cl 5.6065 -1.9195 -1.2793 0
M  V30 2 C 4.5259 -0.5946 -1.0845 0
M  V30 3 C 3.1516 -0.8028 -1.1815 0
M  V30 4 C 5.0313 0.6766 -0.8231 0
M  V30 5 C 2.2645 0.274 -1.0168 0
M  V30 6 C 4.1552 1.7536 -0.6675 0
M  V30 7 C 2.7733 1.5615 -0.7656 0
M  V30 8 C 0.7509 0.0468 -1.0318 0 CFG=2
M  V30 9 N 1.8922 2.6464 -0.6961 0
M  V30 10 C -0.038 1.3198 -1.3267 0
M  V30 11 C 0.3511 -0.5766 0.333 0
M  V30 12 C 0.5409 2.5741 -1.0602 0
M  V30 13 C -1.3443 1.2621 -1.8375 0
M  V30 14 C -1.0597 -1.1786 0.37 0
M  V30 15 C -0.2063 3.7398 -1.2573 0
M  V30 16 C -2.0797 2.4308 -2.0358 0
M  V30 17 C -1.2971 -1.9483 1.6781 0
M  V30 18 C -1.5152 3.668 -1.7359 0
M  V30 19 N -2.5933 -2.6489 1.7016 0
M  V30 20 C -3.722 -1.7174 1.7667 0
M  V30 21 C -2.645 -3.5611 2.8483 0
M  V30 22 H 2.7667 -1.8014 -1.3723 0
M  V30 23 H 6.103 0.8388 -0.7487 0
M  V30 24 H 4.5608 2.7451 -0.4865 0
M  V30 25 H 0.5434 -0.6659 -1.842 0
M  V30 26 H 2.263 3.548 -0.4352 0
M  V30 27 H 1.0587 -1.3777 0.5851 0
M  V30 28 H 0.4437 0.1721 1.1318 0
M  V30 29 H -1.7998 0.3038 -2.0759 0
M  V30 30 H -1.7965 -0.3757 0.2832 0
M  V30 31 H -1.1934 -1.8541 -0.4835 0
M  V30 32 H 0.2329 4.7139 -1.0628 0
M  V30 33 H -3.0936 2.3748 -2.4236 0
M  V30 34 H -0.4949 -2.692 1.7723 0
M  V30 35 H -1.2033 -1.2692 2.5358 0
M  V30 36 H -2.0869 4.5788 -1.8927 0
M  V30 37 H -3.7872 -1.1067 0.8611 0
M  V30 38 H -3.6588 -1.0507 2.6343 0
M  V30 39 H -4.6695 -2.2657 1.826 0
M  V30 40 H -2.5528 -3.0306 3.8031 0
M  V30 41 H -1.8425 -4.3047 2.7866 0
M  V30 42 H -3.5868 -4.1215 2.8534 0
M  V30 END ATOM
M  V30 BEGIN BOND
M  V30 1 1 1 2
M  V30 2 2 2 3
M  V30 3 1 2 4
M  V30 4 1 3 5
M  V30 5 2 4 6
M  V30 6 2 5 7
M  V30 7 1 5 8
M  V30 8 1 7 9
M  V30 9 1 8 10
M  V30 10 1 8 11
M  V30 11 1 9 12
M  V30 12 1 10 13
M  V30 13 1 11 14
M  V30 14 1 12 15
M  V30 15 2 13 16
M  V30 16 1 14 17
M  V30 17 2 15 18
M  V30 18 1 17 19
M  V30 19 1 19 20
M  V30 20 1 19 21
M  V30 21 1 6 7
M  V30 22 2 10 12
M  V30 23 1 16 18
M  V30 24 1 3 22
M  V30 25 1 4 23
M  V30 26 1 6 24
M  V30 27 1 8 25
M  V30 28 1 9 26
M  V30 29 1 11 27
M  V30 30 1 11 28
M  V30 31 1 13 29
M  V30 32 1 14 30
M  V30 33 1 14 31
M  V30 34 1 15 32
M  V30 35 1 16 33
M  V30 36 1 17 34
M  V30 37 1 17 35
M  V30 38 1 18 36
M  V30 39 1 20 37
M  V30 40 1 20 38
M  V30 41 1 20 39
M  V30 42 1 21 40
M  V30 43 1 21 41
M  V30 44 1 21 42
M  V30 END BOND
M  V30 BEGIN COLLECTION
M  V30 MDLV30/STERAC1 ATOMS=(1 8)
M  V30 END COLLECTION
M  V30 END CTAB
M  END
>  <NO.>
1746

>  <Name>
clomacran

>  <SMILES>
CN(C)CCCC1c2ccccc2Nc2ccc(Cl)cc21

>  <logBB>


>  <Class>
1

>  <MW>
300.14

>  <nHBAcc>
2

>  <nHBDon>
1

>  <SLogP>
4.87

>  <TopoPSA>
15.27

>  <MMFF94 Energy>
38.705

$$$$
CN(C)CCCN1c2ccccc2C(C)(C)c2ccccc21
Actelion Java MolfileCreator 2.0

  0  0  0  0  0  0              0 V3000
M  V30 BEGIN CTAB
M  V30 COUNTS 48 50 0 0 0
M  V30 BEGIN ATOM
M  V30 1 N -1.0275 -0.237 0.4741 0
M  V30 2 C -0.7962 1.1603 0.4158 0
M  V30 3 C -0.4358 -1.0877 1.4463 0
M  V30 4 C -1.9011 -0.8661 -0.5419 0
M  V30 5 C 0.081 1.7664 1.3388 0
M  V30 6 C -1.4041 2.011 -0.5353 0
M  V30 7 C 0.4496 -0.5545 2.4034 0
M  V30 8 C -0.694 -2.4763 1.5168 0
M  V30 9 C -1.1253 -1.5565 -1.6759 0
M  V30 10 C 0.3168 3.1652 1.2701 0
M  V30 11 C 0.7964 0.9411 2.4199 0
M  V30 12 C -1.1625 3.3882 -0.5875 0
M  V30 13 C 1.0378 -1.4139 3.3683 0
M  V30 14 C -0.1078 -3.3084 2.4756 0
M  V30 15 C -0.289 -0.594 -2.5261 0
M  V30 16 C -0.2977 3.9684 0.3182 0
M  V30 17 C 0.4034 1.5149 3.8075 0
M  V30 18 C 2.3259 1.0847 2.2057 0
M  V30 19 C 0.7626 -2.7754 3.4053 0
M  V30 20 N 0.4057 -1.2776 -3.6362 0
M  V30 21 C 1.4578 -0.4083 -4.1723 0
M  V30 22 C -0.5125 -1.6552 -4.7123 0
M  V30 23 H -2.6282 -0.1743 -0.9744 0
M  V30 24 H -2.5695 -1.5937 -0.0644 0
M  V30 25 H -2.0919 1.6415 -1.2854 0
M  V30 26 H -1.3614 -2.9704 0.8196 0
M  V30 27 H -1.8659 -2.0665 -2.3022 0
M  V30 28 H -0.4681 -2.3368 -1.2761 0
M  V30 29 H 0.9946 3.6465 1.9715 0
M  V30 30 H -1.6553 3.9976 -1.3401 0
M  V30 31 H 1.7287 -1.0207 4.1107 0
M  V30 32 H -0.3362 -4.3705 2.4848 0
M  V30 33 H -0.9137 0.2204 -2.9126 0
M  V30 34 H 0.465 -0.143 -1.8699 0
M  V30 35 H -0.1003 5.0359 0.2888 0
M  V30 36 H -0.6765 1.4223 3.9789 0
M  V30 37 H 0.9096 1.0016 4.6322 0
M  V30 38 H 0.6603 2.5746 3.9115 0
M  V30 39 H 2.6247 0.6853 1.2283 0
M  V30 40 H 2.9063 0.5522 2.967 0
M  V30 41 H 2.6577 2.1279 2.2469 0
M  V30 42 H 1.2272 -3.4101 4.1541 0
M  V30 43 H 2.1944 -0.17 -3.3968 0
M  V30 44 H 1.0552 0.5311 -4.5683 0
M  V30 45 H 2.0059 -0.9153 -4.9743 0
M  V30 46 H -1.046 -0.7904 -5.1232 0
M  V30 47 H -1.2501 -2.3871 -4.3702 0
M  V30 48 H 0.0338 -2.139 -5.5301 0
M  V30 END ATOM
M  V30 BEGIN BOND
M  V30 1 1 1 2
M  V30 2 1 1 3
M  V30 3 1 1 4
M  V30 4 2 2 5
M  V30 5 1 2 6
M  V30 6 2 3 7
M  V30 7 1 3 8
M  V30 8 1 4 9
M  V30 9 1 5 10
M  V30 10 1 5 11
M  V30 11 2 6 12
M  V30 12 1 7 13
M  V30 13 2 8 14
M  V30 14 1 9 15
M  V30 15 2 10 16
M  V30 16 1 11 17
M  V30 17 1 11 18
M  V30 18 2 13 19
M  V30 19 1 15 20
M  V30 20 1 20 21
M  V30 21 1 20 22
M  V30 22 1 7 11
M  V30 23 1 12 16
M  V30 24 1 14 19
M  V30 25 1 4 23
M  V30 26 1 4 24
M  V30 27 1 6 25
M  V30 28 1 8 26
M  V30 29 1 9 27
M  V30 30 1 9 28
M  V30 31 1 10 29
M  V30 32 1 12 30
M  V30 33 1 13 31
M  V30 34 1 14 32
M  V30 35 1 15 33
M  V30 36 1 15 34
M  V30 37 1 16 35
M  V30 38 1 17 36
M  V30 39 1 17 37
M  V30 40 1 17 38
M  V30 41 1 18 39
M  V30 42 1 18 40
M  V30 43 1 18 41
M  V30 44 1 19 42
M  V30 45 1 21 43
M  V30 46 1 21 44
M  V30 47 1 21 45
M  V30 48 1 22 46
M  V30 49 1 22 47
M  V30 50 1 22 48
M  V30 END BOND
M  V30 END CTAB
M  END
>  <NO.>
1747

>  <Name>
dimetacrine

>  <SMILES>
CN(C)CCCN1c2ccccc2C(C)(C)c2ccccc21

>  <logBB>


>  <Class>
1

>  <MW>
294.21

>  <nHBAcc>
2

>  <nHBDon>
0

>  <SLogP>
4.42

>  <TopoPSA>
6.48

>  <MMFF94 Energy>
66.907

$$$$
CN(C)CCCN1c2ccccc2C(c2ccccc2)=Nc2cccnc21
Actelion Java MolfileCreator 2.0

  0  0  0  0  0  0              0 V3000
M  V30 BEGIN CTAB
M  V30 COUNTS 51 54 0 0 0
M  V30 BEGIN ATOM
M  V30 1 N -1.5922 -1.9108 -0.1591 0
M  V30 2 C -0.5865 -2.1146 -0.9546 0
M  V30 3 C -2.3761 -0.7445 -0.1581 0
M  V30 4 C -0.1325 -1.2141 -2.0563 0
M  V30 5 C 0.1752 -3.3877 -0.7313 0
M  V30 6 C -1.8916 0.5728 -0.3054 0
M  V30 7 C -3.7231 -0.9085 0.182 0
M  V30 8 C -0.0503 0.1775 -1.8742 0
M  V30 9 C 0.265 -1.8051 -3.2722 0
M  V30 10 C -0.5277 -4.5598 -0.4295 0
M  V30 11 C 1.5747 -3.4091 -0.7845 0
M  V30 12 N -2.6959 1.6576 -0.1124 0
M  V30 13 N -0.5574 0.8027 -0.7199 0
M  V30 14 C -4.5483 0.1942 0.3595 0
M  V30 15 C 0.4778 0.9371 -2.9389 0
M  V30 16 C 0.7823 -1.0276 -4.3045 0
M  V30 17 C 0.1631 -5.7528 -0.2129 0
M  V30 18 C 2.2616 -4.6049 -0.567 0
M  V30 19 C -3.989 1.4462 0.2101 0
M  V30 20 C 0.0298 2.0735 -0.2685 0
M  V30 21 C 0.8964 0.3446 -4.1341 0
M  V30 22 C 1.556 -5.7752 -0.2859 0
M  V30 23 C 0.1687 2.1243 1.262 0
M  V30 24 C 0.9195 3.3919 1.6901 0
M  V30 25 N 0.9847 3.5747 3.1509 0
M  V30 26 C 1.5367 4.8941 3.4681 0
M  V30 27 C 1.7791 2.5346 3.8067 0
M  V30 28 H -4.1144 -1.9107 0.3322 0
M  V30 29 H 0.1724 -2.8783 -3.4232 0
M  V30 30 H -1.6129 -4.5433 -0.3616 0
M  V30 31 H 2.1383 -2.5001 -0.9774 0
M  V30 32 H -5.5913 0.0762 0.6279 0
M  V30 33 H 0.5237 2.0214 -2.8723 0
M  V30 34 H 1.0881 -1.4918 -5.2383 0
M  V30 35 H -0.3853 -6.6618 0.0197 0
M  V30 36 H 3.3477 -4.622 -0.607 0
M  V30 37 H -4.5823 2.345 0.3507 0
M  V30 38 H -0.54 2.9323 -0.6461 0
M  V30 39 H 1.0477 2.1765 -0.6677 0
M  V30 40 H 1.2853 0.9641 -4.9384 0
M  V30 41 H 2.0929 -6.7043 -0.1116 0
M  V30 42 H 0.7051 1.2279 1.5945 0
M  V30 43 H -0.8155 2.1062 1.7434 0
M  V30 44 H 1.9293 3.389 1.2587 0
M  V30 45 H 0.3905 4.2499 1.2545 0
M  V30 46 H 0.9173 5.6868 3.0337 0
M  V30 47 H 2.5611 5.0132 3.0971 0
M  V30 48 H 1.5396 5.0613 4.5511 0
M  V30 49 H 2.7986 2.4811 3.4084 0
M  V30 50 H 1.3106 1.5512 3.7025 0
M  V30 51 H 1.8432 2.722 4.885 0
M  V30 END ATOM
M  V30 BEGIN BOND
M  V30 1 2 1 2
M  V30 2 1 1 3
M  V30 3 1 2 4
M  V30 4 1 2 5
M  V30 5 2 3 6
M  V30 6 1 3 7
M  V30 7 2 4 8
M  V30 8 1 4 9
M  V30 9 2 5 10
M  V30 10 1 5 11
M  V30 11 1 6 12
M  V30 12 1 6 13
M  V30 13 2 7 14
M  V30 14 1 8 15
M  V30 15 2 9 16
M  V30 16 1 10 17
M  V30 17 2 11 18
M  V30 18 2 12 19
M  V30 19 1 13 20
M  V30 20 2 15 21
M  V30 21 2 17 22
M  V30 22 1 20 23
M  V30 23 1 23 24
M  V30 24 1 24 25
M  V30 25 1 25 26
M  V30 26 1 25 27
M  V30 27 1 8 13
M  V30 28 1 14 19
M  V30 29 1 16 21
M  V30 30 1 18 22
M  V30 31 1 7 28
M  V30 32 1 9 29
M  V30 33 1 10 30
M  V30 34 1 11 31
M  V30 35 1 14 32
M  V30 36 1 15 33
M  V30 37 1 16 34
M  V30 38 1 17 35
M  V30 39 1 18 36
M  V30 40 1 19 37
M  V30 41 1 20 38
M  V30 42 1 20 39
M  V30 43 1 21 40
M  V30 44 1 22 41
M  V30 45 1 23 42
M  V30 46 1 23 43
M  V30 47 1 24 44
M  V30 48 1 24 45
M  V30 49 1 26 46
M  V30 50 1 26 47
M  V30 51 1 26 48
M  V30 52 1 27 49
M  V30 53 1 27 50
M  V30 54 1 27 51
M  V30 END BOND
M  V30 END CTAB
M  END
>  <NO.>
1748

>  <Name>
tampramine

>  <SMILES>
CN(C)CCCN1c2ccccc2C(c2ccccc2)=Nc2cccnc21

>  <logBB>


>  <Class>
1

>  <MW>
356.2

>  <nHBAcc>
4

>  <nHBDon>
0

>  <SLogP>
4.65

>  <TopoPSA>
31.73

>  <MMFF94 Energy>
131.49

$$$$
CN(C)CCCN1c2ccccc2C=Cc2ccccc21
Actelion Java MolfileCreator 2.0

  0  0  0  0  0  0              0 V3000
M  V30 BEGIN CTAB
M  V30 COUNTS 43 45 0 0 0
M  V30 BEGIN ATOM
M  V30 1 N 1.3438 -0.316 -0.079 0
M  V30 2 C 1.4993 -0.4893 1.3135 0
M  V30 3 C 1.8253 0.7682 -0.8444 0
M  V30 4 C 0.295 -1.1373 -0.7164 0
M  V30 5 C 1.3199 0.5445 2.2514 0
M  V30 6 C 1.8888 -1.7595 1.7908 0
M  V30 7 C 1.7266 2.1119 -0.4376 0
M  V30 8 C 2.4704 0.4899 -2.0688 0
M  V30 9 C -1.0865 -0.4822 -0.5788 0
M  V30 10 C 0.8347 1.8885 1.9109 0
M  V30 11 C 1.5088 0.2757 3.6222 0
M  V30 12 C 2.0816 -2.01 3.1499 0
M  V30 13 C 1.0081 2.5568 0.7639 0
M  V30 14 C 2.248 3.1258 -1.2665 0
M  V30 15 C 2.9906 1.5026 -2.8756 0
M  V30 16 C -2.1707 -1.3819 -1.1841 0
M  V30 17 C 1.8898 -0.9891 4.0685 0
M  V30 18 C 2.878 2.8248 -2.4734 0
M  V30 19 N -3.5027 -0.7532 -1.2202 0
M  V30 20 C -4.0414 -0.5176 0.1209 0
M  V30 21 C -4.4315 -1.5889 -1.9856 0
M  V30 22 H 0.2615 -2.1423 -0.2777 0
M  V30 23 H 0.5133 -1.3013 -1.7787 0
M  V30 24 H 2.0778 -2.564 1.0841 0
M  V30 25 H 2.5983 -0.5418 -2.3867 0
M  V30 26 H -1.089 0.4917 -1.083 0
M  V30 27 H -1.2945 -0.2978 0.4807 0
M  V30 28 H 0.2795 2.3916 2.7001 0
M  V30 29 H 1.3613 1.062 4.3599 0
M  V30 30 H 2.3906 -2.9966 3.483 0
M  V30 31 H 0.5809 3.5557 0.7008 0
M  V30 32 H 2.1663 4.1701 -0.9718 0
M  V30 33 H 3.4881 1.2536 -3.8085 0
M  V30 34 H -1.8686 -1.6159 -2.2134 0
M  V30 35 H -2.2084 -2.3347 -0.6398 0
M  V30 36 H 2.0384 -1.1709 5.1293 0
M  V30 37 H 3.2787 3.6223 -3.0927 0
M  V30 38 H -3.4399 0.2146 0.6681 0
M  V30 39 H -4.0954 -1.4387 0.712 0
M  V30 40 H -5.0493 -0.0907 0.061 0
M  V30 41 H -4.5681 -2.5771 -1.5317 0
M  V30 42 H -4.0719 -1.7262 -3.0114 0
M  V30 43 H -5.4119 -1.1055 -2.0628 0
M  V30 END ATOM
M  V30 BEGIN BOND
M  V30 1 1 1 2
M  V30 2 1 1 3
M  V30 3 1 1 4
M  V30 4 2 2 5
M  V30 5 1 2 6
M  V30 6 2 3 7
M  V30 7 1 3 8
M  V30 8 1 4 9
M  V30 9 1 5 10
M  V30 10 1 5 11
M  V30 11 2 6 12
M  V30 12 1 7 13
M  V30 13 1 7 14
M  V30 14 2 8 15
M  V30 15 1 9 16
M  V30 16 2 11 17
M  V30 17 2 14 18
M  V30 18 1 16 19
M  V30 19 1 19 20
M  V30 20 1 19 21
M  V30 21 2 10 13
M  V30 22 1 12 17
M  V30 23 1 15 18
M  V30 24 1 4 22
M  V30 25 1 4 23
M  V30 26 1 6 24
M  V30 27 1 8 25
M  V30 28 1 9 26
M  V30 29 1 9 27
M  V30 30 1 10 28
M  V30 31 1 11 29
M  V30 32 1 12 30
M  V30 33 1 13 31
M  V30 34 1 14 32
M  V30 35 1 15 33
M  V30 36 1 16 34
M  V30 37 1 16 35
M  V30 38 1 17 36
M  V30 39 1 18 37
M  V30 40 1 20 38
M  V30 41 1 20 39
M  V30 42 1 20 40
M  V30 43 1 21 41
M  V30 44 1 21 42
M  V30 45 1 21 43
M  V30 END BOND
M  V30 END CTAB
M  END
>  <NO.>
1749

>  <Name>
depramine

>  <SMILES>
CN(C)CCCN1c2ccccc2C=Cc2ccccc21

>  <logBB>


>  <Class>
1

>  <MW>
278.18

>  <nHBAcc>
2

>  <nHBDon>
0

>  <SLogP>
4.26

>  <TopoPSA>
6.48

>  <MMFF94 Energy>
83.203

$$$$
CN(C)CCCN1c2ccccc2C=Cc2sccc21
Actelion Java MolfileCreator 2.0

  0  0  0  0  0  0              0 V3000
M  V30 BEGIN CTAB
M  V30 COUNTS 40 42 0 0 0
M  V30 BEGIN ATOM
M  V30 1 S -1.7645 -2.6477 2.969 0
M  V30 2 C -1.7266 -1.1852 2.0514 0
M  V30 3 C -0.0655 -2.7364 3.0455 0
M  V30 4 C -0.4227 -0.7905 1.806 0
M  V30 5 C -2.9573 -0.6259 1.6245 0
M  V30 6 C 0.5296 -1.6912 2.38 0
M  V30 7 N -0.0586 0.3174 1.0856 0
M  V30 8 C -3.1062 0.6464 1.2348 0
M  V30 9 C -0.7138 1.58 1.1101 0
M  V30 10 C 0.8999 0.1337 -0.033 0
M  V30 11 C -2.1142 1.7384 1.2102 0
M  V30 12 C 0.0795 2.7521 1.0907 0
M  V30 13 C 0.1674 -0.3687 -1.2845 0
M  V30 14 C -2.66 3.0421 1.2304 0
M  V30 15 C -0.4769 4.0317 1.1206 0
M  V30 16 C 1.0957 -0.4914 -2.4983 0
M  V30 17 C -1.8523 4.1772 1.1838 0
M  V30 18 N 2.2649 -1.3625 -2.2898 0
M  V30 19 C 3.1816 -1.2504 -3.4285 0
M  V30 20 C 1.8769 -2.7643 -2.1076 0
M  V30 21 H 0.4179 -3.5469 3.5726 0
M  V30 22 H -3.8355 -1.2675 1.6165 0
M  V30 23 H 1.6035 -1.5688 2.3267 0
M  V30 24 H -4.1095 0.9384 0.928 0
M  V30 25 H 1.6816 -0.58 0.251 0
M  V30 26 H 1.4399 1.055 -0.2765 0
M  V30 27 H 1.1642 2.6737 1.0923 0
M  V30 28 H -0.638 0.3306 -1.543 0
M  V30 29 H -0.3243 -1.3268 -1.0797 0
M  V30 30 H -3.7373 3.1858 1.295 0
M  V30 31 H 0.1678 4.9061 1.1086 0
M  V30 32 H 0.5098 -0.8333 -3.3619 0
M  V30 33 H 1.4453 0.521 -2.7409 0
M  V30 34 H -2.2992 5.1672 1.2111 0
M  V30 35 H 3.5262 -0.2168 -3.5455 0
M  V30 36 H 2.7149 -1.5682 -4.368 0
M  V30 37 H 4.0773 -1.8597 -3.2634 0
M  V30 38 H 1.2989 -3.1469 -2.9565 0
M  V30 39 H 1.2869 -2.8973 -1.1953 0
M  V30 40 H 2.765 -3.3951 -1.9858 0
M  V30 END ATOM
M  V30 BEGIN BOND
M  V30 1 1 1 2
M  V30 2 1 1 3
M  V30 3 2 2 4
M  V30 4 1 2 5
M  V30 5 2 3 6
M  V30 6 1 4 7
M  V30 7 2 5 8
M  V30 8 1 7 9
M  V30 9 1 7 10
M  V30 10 1 8 11
M  V30 11 1 9 12
M  V30 12 1 10 13
M  V30 13 1 11 14
M  V30 14 2 12 15
M  V30 15 1 13 16
M  V30 16 2 14 17
M  V30 17 1 16 18
M  V30 18 1 18 19
M  V30 19 1 18 20
M  V30 20 1 4 6
M  V30 21 2 9 11
M  V30 22 1 15 17
M  V30 23 1 3 21
M  V30 24 1 5 22
M  V30 25 1 6 23
M  V30 26 1 8 24
M  V30 27 1 10 25
M  V30 28 1 10 26
M  V30 29 1 12 27
M  V30 30 1 13 28
M  V30 31 1 13 29
M  V30 32 1 14 30
M  V30 33 1 15 31
M  V30 34 1 16 32
M  V30 35 1 16 33
M  V30 36 1 17 34
M  V30 37 1 19 35
M  V30 38 1 19 36
M  V30 39 1 19 37
M  V30 40 1 20 38
M  V30 41 1 20 39
M  V30 42 1 20 40
M  V30 END BOND
M  V30 END CTAB
M  END
>  <NO.>
1750

>  <Name>
tienopramine

>  <SMILES>
CN(C)CCCN1c2ccccc2C=Cc2sccc21

>  <logBB>


>  <Class>
1

>  <MW>
284.13

>  <nHBAcc>
3

>  <nHBDon>
0

>  <SLogP>
4.32

>  <TopoPSA>
6.48

>  <MMFF94 Energy>
60.137

$$$$
CN(C)CCCN1c2ccccc2CC(=O)c2ccccc21
Actelion Java MolfileCreator 2.0

  0  0  0  0  0  0              0 V3000
M  V30 BEGIN CTAB
M  V30 COUNTS 44 46 0 0 0
M  V30 BEGIN ATOM
M  V30 1 O -3.0954 -2.857 0.3964 0
M  V30 2 C -2.1391 -2.0863 0.2828 0
M  V30 3 C -0.7529 -2.5701 0.5712 0
M  V30 4 C -2.3519 -0.6789 -0.1986 0
M  V30 5 C 0.3901 -1.7407 0.6782 0
M  V30 6 C -0.6338 -3.9745 0.687 0
M  V30 7 C -1.996 0.323 0.8555 0
M  V30 8 N 0.3576 -0.323 0.6415 0
M  V30 9 C 1.6207 -2.4041 0.9094 0
M  V30 10 C 0.5968 -4.5835 0.904 0
M  V30 11 C -0.6556 0.4692 1.2383 0
M  V30 12 C -2.9955 1.1091 1.4524 0
M  V30 13 C 1.5595 0.4459 0.232 0
M  V30 14 C 1.7277 -3.7952 1.0144 0
M  V30 15 C -0.3511 1.4084 2.2403 0
M  V30 16 C -2.6697 2.0421 2.4334 0
M  V30 17 C 2.0447 0.1293 -1.1858 0
M  V30 18 C -1.3463 2.1907 2.8303 0
M  V30 19 C 1.083 0.4771 -2.333 0
M  V30 20 N 0.8004 1.8783 -2.6596 0
M  V30 21 C 1.972 2.7411 -2.6918 0
M  V30 22 C -0.2926 2.4671 -1.8984 0
M  V30 23 H -1.7861 -0.5135 -1.1202 0
M  V30 24 H -3.4067 -0.575 -0.4837 0
M  V30 25 H -1.5162 -4.608 0.6 0
M  V30 26 H 2.5397 -1.8421 1.0491 0
M  V30 27 H 0.6648 -5.6645 0.9901 0
M  V30 28 H -4.0364 0.9912 1.158 0
M  V30 29 H 2.3712 0.2739 0.9499 0
M  V30 30 H 1.3847 1.5261 0.2786 0
M  V30 31 H 2.6964 -4.2533 1.1977 0
M  V30 32 H 0.6708 1.5217 2.5925 0
M  V30 33 H -3.4496 2.6429 2.894 0
M  V30 34 H 2.2829 -0.9366 -1.2725 0
M  V30 35 H 3.0014 0.6419 -1.3442 0
M  V30 36 H -1.0873 2.9055 3.6068 0
M  V30 37 H 1.5283 0.0466 -3.2408 0
M  V30 38 H 0.1461 -0.0771 -2.2124 0
M  V30 39 H 2.7571 2.3081 -3.3213 0
M  V30 40 H 2.3849 2.9218 -1.6935 0
M  V30 41 H 1.7202 3.7123 -3.1324 0
M  V30 42 H -0.0341 2.6587 -0.8549 0
M  V30 43 H -1.1818 1.8292 -1.9296 0
M  V30 44 H -0.5885 3.4237 -2.3443 0
M  V30 END ATOM
M  V30 BEGIN BOND
M  V30 1 2 1 2
M  V30 2 1 2 3
M  V30 3 1 2 4
M  V30 4 2 3 5
M  V30 5 1 3 6
M  V30 6 1 4 7
M  V30 7 1 5 8
M  V30 8 1 5 9
M  V30 9 2 6 10
M  V30 10 2 7 11
M  V30 11 1 7 12
M  V30 12 1 8 13
M  V30 13 2 9 14
M  V30 14 1 11 15
M  V30 15 2 12 16
M  V30 16 1 13 17
M  V30 17 2 15 18
M  V30 18 1 17 19
M  V30 19 1 19 20
M  V30 20 1 20 21
M  V30 21 1 20 22
M  V30 22 1 8 11
M  V30 23 1 10 14
M  V30 24 1 16 18
M  V30 25 1 4 23
M  V30 26 1 4 24
M  V30 27 1 6 25
M  V30 28 1 9 26
M  V30 29 1 10 27
M  V30 30 1 12 28
M  V30 31 1 13 29
M  V30 32 1 13 30
M  V30 33 1 14 31
M  V30 34 1 15 32
M  V30 35 1 16 33
M  V30 36 1 17 34
M  V30 37 1 17 35
M  V30 38 1 18 36
M  V30 39 1 19 37
M  V30 40 1 19 38
M  V30 41 1 21 39
M  V30 42 1 21 40
M  V30 43 1 21 41
M  V30 44 1 22 42
M  V30 45 1 22 43
M  V30 46 1 22 44
M  V30 END BOND
M  V30 END CTAB
M  END
>  <NO.>
1751

>  <Name>
ketipramine(ketimipramine)

>  <SMILES>
CN(C)CCCN1c2ccccc2CC(=O)c2ccccc21

>  <logBB>


>  <Class>
1

>  <MW>
294.17

>  <nHBAcc>
3

>  <nHBDon>
0

>  <SLogP>
3.52

>  <TopoPSA>
23.55

>  <MMFF94 Energy>
94.439

$$$$
CN(C)CCCN1c2ccccc2CCc2ccc(C#N)cc21
Actelion Java MolfileCreator 2.0

  0  0  0  0  0  0              0 V3000
M  V30 BEGIN CTAB
M  V30 COUNTS 46 48 0 0 0
M  V30 BEGIN ATOM
M  V30 1 N -3.4137 -4.2884 -1.2691 0
M  V30 2 C -2.7481 -3.4231 -1.663 0
M  V30 3 C -1.9179 -2.3584 -2.1425 0
M  V30 4 C -1.2852 -1.5002 -1.2362 0
M  V30 5 C -1.7443 -2.1631 -3.5057 0
M  V30 6 C -0.458 -0.4313 -1.653 0
M  V30 7 C -0.9357 -1.1193 -3.9473 0
M  V30 8 N 0.0898 0.4171 -0.6598 0
M  V30 9 C -0.2744 -0.256 -3.0415 0
M  V30 10 C 0.3939 1.7924 -0.7716 0
M  V30 11 C 0.8222 -0.2589 0.4399 0
M  V30 12 C 0.5951 0.8085 -3.6803 0
M  V30 13 C 1.2246 2.2842 -1.7888 0
M  V30 14 C -0.1249 2.704 0.1616 0
M  V30 15 C 0.0735 -0.2121 1.7766 0
M  V30 16 C 1.7477 1.3476 -2.84 0
M  V30 17 C 1.5474 3.651 -1.8391 0
M  V30 18 C 0.193 4.0624 0.1062 0
M  V30 19 C 0.6451 -1.2517 2.7495 0
M  V30 20 C 1.0364 4.535 -0.8916 0
M  V30 21 N 0.0674 -1.1557 4.1007 0
M  V30 22 C 0.8276 -1.9951 5.0318 0
M  V30 23 C -1.3439 -1.5476 4.1296 0
M  V30 24 H -1.4732 -1.65 -0.1758 0
M  V30 25 H -2.2329 -2.8103 -4.2305 0
M  V30 26 H -0.8117 -0.9772 -5.0203 0
M  V30 27 H 1.8176 0.1906 0.5659 0
M  V30 28 H 1.0266 -1.3039 0.1687 0
M  V30 29 H -0.0553 1.6276 -4.0145 0
M  V30 30 H 1.0478 0.375 -4.5825 0
M  V30 31 H -0.8087 2.3608 0.9329 0
M  V30 32 H -0.9953 -0.3817 1.616 0
M  V30 33 H 0.1753 0.7831 2.223 0
M  V30 34 H 2.4416 1.8848 -3.4985 0
M  V30 35 H 2.3282 0.5407 -2.376 0
M  V30 36 H 2.1933 4.0353 -2.6248 0
M  V30 37 H -0.2237 4.747 0.8397 0
M  V30 38 H 0.5093 -2.262 2.3416 0
M  V30 39 H 1.7273 -1.0779 2.8154 0
M  V30 40 H 1.2865 5.5913 -0.9398 0
M  V30 41 H 1.8755 -1.6774 5.0703 0
M  V30 42 H 0.7971 -3.0543 4.7518 0
M  V30 43 H 0.4356 -1.8948 6.0501 0
M  V30 44 H -1.4981 -2.5641 3.7504 0
M  V30 45 H -1.9599 -0.8593 3.5432 0
M  V30 46 H -1.7347 -1.5014 5.1527 0
M  V30 END ATOM
M  V30 BEGIN BOND
M  V30 1 3 1 2
M  V30 2 1 2 3
M  V30 3 2 3 4
M  V30 4 1 3 5
M  V30 5 1 4 6
M  V30 6 2 5 7
M  V30 7 1 6 8
M  V30 8 2 6 9
M  V30 9 1 8 10
M  V30 10 1 8 11
M  V30 11 1 9 12
M  V30 12 2 10 13
M  V30 13 1 10 14
M  V30 14 1 11 15
M  V30 15 1 12 16
M  V30 16 1 13 17
M  V30 17 2 14 18
M  V30 18 1 15 19
M  V30 19 2 17 20
M  V30 20 1 19 21
M  V30 21 1 21 22
M  V30 22 1 21 23
M  V30 23 1 7 9
M  V30 24 1 13 16
M  V30 25 1 18 20
M  V30 26 1 4 24
M  V30 27 1 5 25
M  V30 28 1 7 26
M  V30 29 1 11 27
M  V30 30 1 11 28
M  V30 31 1 12 29
M  V30 32 1 12 30
M  V30 33 1 14 31
M  V30 34 1 15 32
M  V30 35 1 15 33
M  V30 36 1 16 34
M  V30 37 1 16 35
M  V30 38 1 17 36
M  V30 39 1 18 37
M  V30 40 1 19 38
M  V30 41 1 19 39
M  V30 42 1 20 40
M  V30 43 1 22 41
M  V30 44 1 22 42
M  V30 45 1 22 43
M  V30 46 1 23 44
M  V30 47 1 23 45
M  V30 48 1 23 46
M  V30 END BOND
M  V30 END CTAB
M  END
>  <NO.>
1752

>  <Name>
cianopramine

>  <SMILES>
CN(C)CCCN1c2ccccc2CCc2ccc(C#N)cc21

>  <logBB>


>  <Class>
1

>  <MW>
305.19

>  <nHBAcc>
3

>  <nHBDon>
0

>  <SLogP>
3.75

>  <TopoPSA>
30.27

>  <MMFF94 Energy>
73.739

$$$$
CN(C)CCCN1c2ccccc2Sc2cccnc21
Actelion Java MolfileCreator 2.0

  0  0  0  0  0  0              0 V3000
M  V30 BEGIN CTAB
M  V30 COUNTS 39 41 0 0 0
M  V30 BEGIN ATOM
M  V30 1 S -3.3845 -1.3688 -0.1609 0
M  V30 2 C -3.1178 0.3298 0.2575 0
M  V30 3 C -1.8486 -2.1264 0.3241 0
M  V30 4 C -1.9287 0.8348 0.7999 0
M  V30 5 C -4.1856 1.2096 0.0155 0
M  V30 6 C -0.7563 -1.4126 0.8646 0
M  V30 7 C -1.7857 -3.521 0.1265 0
M  V30 8 N -1.8271 2.1639 1.0914 0
M  V30 9 N -0.811 -0.0115 1.0618 0
M  V30 10 C -4.0643 2.5585 0.3117 0
M  V30 11 C 0.3798 -2.1854 1.1934 0
M  V30 12 C -0.6468 -4.2421 0.4604 0
M  V30 13 C -2.8705 2.9847 0.8459 0
M  V30 14 C 0.3695 0.7348 1.5505 0
M  V30 15 C 0.4381 -3.5716 0.9959 0
M  V30 16 C 1.1606 1.4306 0.4292 0
M  V30 17 C 1.8143 0.4547 -0.5554 0
M  V30 18 N 2.6005 1.1333 -1.6054 0
M  V30 19 C 2.9203 0.186 -2.6775 0
M  V30 20 C 3.8362 1.7178 -1.0815 0
M  V30 21 H -5.1178 0.8425 -0.4075 0
M  V30 22 H -2.6363 -4.055 -0.293 0
M  V30 23 H -4.877 3.2518 0.13 0
M  V30 24 H 1.2734 -1.7425 1.6171 0
M  V30 25 H -0.6112 -5.3164 0.3041 0
M  V30 26 H -2.7081 4.0279 1.1007 0
M  V30 27 H 1.0491 0.1157 2.1422 0
M  V30 28 H 0.0653 1.4917 2.2876 0
M  V30 29 H 1.3378 -4.1192 1.2656 0
M  V30 30 H 1.9282 2.0426 0.9161 0
M  V30 31 H 0.5165 2.1226 -0.1256 0
M  V30 32 H 2.442 -0.2659 -0.0169 0
M  V30 33 H 1.0114 -0.1125 -1.0412 0
M  V30 34 H 2.0039 -0.2118 -3.1278 0
M  V30 35 H 3.5234 -0.6556 -2.3181 0
M  V30 36 H 3.4692 0.686 -3.4834 0
M  V30 37 H 4.4742 0.97 -0.597 0
M  V30 38 H 3.6276 2.5155 -0.3624 0
M  V30 39 H 4.4117 2.1857 -1.8888 0
M  V30 END ATOM
M  V30 BEGIN BOND
M  V30 1 1 1 2
M  V30 2 1 1 3
M  V30 3 2 2 4
M  V30 4 1 2 5
M  V30 5 2 3 6
M  V30 6 1 3 7
M  V30 7 1 4 8
M  V30 8 1 4 9
M  V30 9 2 5 10
M  V30 10 1 6 11
M  V30 11 2 7 12
M  V30 12 2 8 13
M  V30 13 1 9 14
M  V30 14 2 11 15
M  V30 15 1 14 16
M  V30 16 1 16 17
M  V30 17 1 17 18
M  V30 18 1 18 19
M  V30 19 1 18 20
M  V30 20 1 6 9
M  V30 21 1 10 13
M  V30 22 1 12 15
M  V30 23 1 5 21
M  V30 24 1 7 22
M  V30 25 1 10 23
M  V30 26 1 11 24
M  V30 27 1 12 25
M  V30 28 1 13 26
M  V30 29 1 14 27
M  V30 30 1 14 28
M  V30 31 1 15 29
M  V30 32 1 16 30
M  V30 33 1 16 31
M  V30 34 1 17 32
M  V30 35 1 17 33
M  V30 36 1 19 34
M  V30 37 1 19 35
M  V30 38 1 19 36
M  V30 39 1 20 37
M  V30 40 1 20 38
M  V30 41 1 20 39
M  V30 END BOND
M  V30 END CTAB
M  END
>  <NO.>
1753

>  <Name>
prothipendyl

>  <SMILES>
CN(C)CCCN1c2ccccc2Sc2cccnc21

>  <logBB>


>  <Class>
1

>  <MW>
285.13

>  <nHBAcc>
4

>  <nHBDon>
0

>  <SLogP>
3.64

>  <TopoPSA>
19.37

>  <MMFF94 Energy>
57.859

$$$$
CN(C)CCCn1c(=O)c2ccccc2c2ccccc21
Actelion Java MolfileCreator 2.0

  0  0  0  0  0  0              0 V3000
M  V30 BEGIN CTAB
M  V30 COUNTS 41 43 0 0 0
M  V30 BEGIN ATOM
M  V30 1 O 1.4297 -0.0793 -2.7019 0
M  V30 2 C 1.4618 0.2507 -1.5158 0
M  V30 3 N 0.4375 0.982 -0.9012 0
M  V30 4 C 2.6329 -0.1517 -0.7045 0
M  V30 5 C 0.4952 1.3568 0.482 0
M  V30 6 C -0.6992 1.3354 -1.7574 0
M  V30 7 C 2.7078 0.195 0.6501 0
M  V30 8 C 3.6556 -0.8889 -1.331 0
M  V30 9 C 1.6105 0.9717 1.2643 0
M  V30 10 C -0.5363 2.1019 1.0866 0
M  V30 11 C -1.696 0.1865 -1.9701 0
M  V30 12 C 3.8555 -0.2308 1.3519 0
M  V30 13 C 4.7748 -1.2942 -0.613 0
M  V30 14 C 1.6322 1.353 2.6253 0
M  V30 15 C -0.4868 2.4634 2.4331 0
M  V30 16 C -2.4291 -0.2284 -0.6899 0
M  V30 17 C 4.8741 -0.9643 0.7308 0
M  V30 18 C 0.5982 2.0885 3.2039 0
M  V30 19 N -3.5251 -1.186 -0.9336 0
M  V30 20 C -4.3026 -1.3749 0.2947 0
M  V30 21 C -3.0271 -2.4822 -1.4017 0
M  V30 22 H -1.2036 2.2439 -1.4214 0
M  V30 23 H -0.2974 1.6039 -2.744 0
M  V30 24 H 3.5769 -1.1477 -2.3854 0
M  V30 25 H -1.4146 2.4257 0.5407 0
M  V30 26 H -1.1667 -0.6725 -2.3962 0
M  V30 27 H -2.4313 0.5099 -2.7178 0
M  V30 28 H 3.9939 -0.0045 2.4048 0
M  V30 29 H 5.5616 -1.8628 -1.1012 0
M  V30 30 H 2.4601 1.0872 3.2755 0
M  V30 31 H -1.298 3.0381 2.8732 0
M  V30 32 H -1.7195 -0.6399 0.0383 0
M  V30 33 H -2.8617 0.6781 -0.2493 0
M  V30 34 H 5.7447 -1.2751 1.3037 0
M  V30 35 H 0.6468 2.366 4.2539 0
M  V30 36 H -4.7297 -0.4234 0.6313 0
M  V30 37 H -3.6962 -1.7887 1.1087 0
M  V30 38 H -5.1483 -2.0486 0.1163 0
M  V30 39 H -2.3051 -2.9237 -0.7053 0
M  V30 40 H -2.5564 -2.3953 -2.3856 0
M  V30 41 H -3.8556 -3.1888 -1.5283 0
M  V30 END ATOM
M  V30 BEGIN BOND
M  V30 1 2 1 2
M  V30 2 1 2 3
M  V30 3 1 2 4
M  V30 4 1 3 5
M  V30 5 1 3 6
M  V30 6 2 4 7
M  V30 7 1 4 8
M  V30 8 2 5 9
M  V30 9 1 5 10
M  V30 10 1 6 11
M  V30 11 1 7 12
M  V30 12 2 8 13
M  V30 13 1 9 14
M  V30 14 2 10 15
M  V30 15 1 11 16
M  V30 16 2 12 17
M  V30 17 2 14 18
M  V30 18 1 16 19
M  V30 19 1 19 20
M  V30 20 1 19 21
M  V30 21 1 7 9
M  V30 22 1 13 17
M  V30 23 1 15 18
M  V30 24 1 6 22
M  V30 25 1 6 23
M  V30 26 1 8 24
M  V30 27 1 10 25
M  V30 28 1 11 26
M  V30 29 1 11 27
M  V30 30 1 12 28
M  V30 31 1 13 29
M  V30 32 1 14 30
M  V30 33 1 15 31
M  V30 34 1 16 32
M  V30 35 1 16 33
M  V30 36 1 17 34
M  V30 37 1 18 35
M  V30 38 1 20 36
M  V30 39 1 20 37
M  V30 40 1 20 38
M  V30 41 1 21 39
M  V30 42 1 21 40
M  V30 43 1 21 41
M  V30 END BOND
M  V30 END CTAB
M  END
>  <NO.>
1754

>  <Name>
fantridone

>  <SMILES>
CN(C)CCCn1c(=O)c2ccccc2c2ccccc21

>  <logBB>


>  <Class>
1

>  <MW>
280.16

>  <nHBAcc>
2

>  <nHBDon>
0

>  <SLogP>
3.11

>  <TopoPSA>
25.24

>  <MMFF94 Energy>
56.713

$$$$
CN(C)CCCn1c(=O)n(-c2ccccc2)c2cc(Cl)ccc21
Actelion Java MolfileCreator 2.0

  0  0  0  0  0  0              0 V3000
M  V30 BEGIN CTAB
M  V30 COUNTS 43 45 0 0 0
M  V30 BEGIN ATOM
M  V30 1 Cl 0.0 4.3189 3.9184 0
M  V30 2 C -0.2267 3.2297 2.6032 0
M  V30 3 C 0.8473 2.9469 1.7559 0
M  V30 4 C -1.4908 2.6399 2.4104 0
M  V30 5 C 0.6145 2.0738 0.7102 0
M  V30 6 C -1.7059 1.7412 1.3608 0
M  V30 7 N 1.4727 1.5757 -0.2858 0
M  V30 8 C -0.6373 1.4726 0.5289 0
M  V30 9 C 2.8188 1.9337 -0.4276 0
M  V30 10 C 0.772 0.6253 -1.0748 0
M  V30 11 N -0.5505 0.6009 -0.5648 0
M  V30 12 C 3.8005 0.9392 -0.4876 0
M  V30 13 C 3.1961 3.2772 -0.5445 0
M  V30 14 O 1.1928 -0.0474 -2.004 0
M  V30 15 C -1.5992 -0.2613 -1.0498 0
M  V30 16 C 5.1456 1.2844 -0.634 0
M  V30 17 C 4.5418 3.6212 -0.6908 0
M  V30 18 C -1.69 -1.5603 -0.2483 0
M  V30 19 C 5.5158 2.6248 -0.7313 0
M  V30 20 C -2.7624 -2.4852 -0.8348 0
M  V30 21 N -3.0177 -3.672 -7.0E-4 0
M  V30 22 C -1.8694 -4.5819 0.0298 0
M  V30 23 C -4.1965 -4.3885 -0.4977 0
M  V30 24 H 1.821 3.3891 1.9281 0
M  V30 25 H -2.3083 2.875 3.0889 0
M  V30 26 H -2.6742 1.2742 1.224 0
M  V30 27 H 3.5249 -0.1107 -0.4225 0
M  V30 28 H 2.4469 4.0645 -0.5425 0
M  V30 29 H -2.549 0.2847 -1.0279 0
M  V30 30 H -1.3849 -0.499 -2.0985 0
M  V30 31 H 5.9022 0.5053 -0.6789 0
M  V30 32 H 4.8287 4.6656 -0.7831 0
M  V30 33 H -1.9243 -1.3338 0.7991 0
M  V30 34 H -0.7102 -2.052 -0.2561 0
M  V30 35 H 6.5629 2.8918 -0.8502 0
M  V30 36 H -3.6919 -1.9055 -0.911 0
M  V30 37 H -2.4859 -2.7781 -1.8563 0
M  V30 38 H -1.0064 -4.1162 0.5154 0
M  V30 39 H -1.5732 -4.9072 -0.9738 0
M  V30 40 H -2.1018 -5.4737 0.6236 0
M  V30 41 H -4.059 -4.7487 -1.5238 0
M  V30 42 H -5.0801 -3.7409 -0.4739 0
M  V30 43 H -4.4245 -5.2477 0.143 0
M  V30 END ATOM
M  V30 BEGIN BOND
M  V30 1 1 1 2
M  V30 2 2 2 3
M  V30 3 1 2 4
M  V30 4 1 3 5
M  V30 5 2 4 6
M  V30 6 1 5 7
M  V30 7 2 5 8
M  V30 8 1 7 9
M  V30 9 1 7 10
M  V30 10 1 8 11
M  V30 11 2 9 12
M  V30 12 1 9 13
M  V30 13 2 10 14
M  V30 14 1 11 15
M  V30 15 1 12 16
M  V30 16 2 13 17
M  V30 17 1 15 18
M  V30 18 2 16 19
M  V30 19 1 18 20
M  V30 20 1 20 21
M  V30 21 1 21 22
M  V30 22 1 21 23
M  V30 23 1 6 8
M  V30 24 1 10 11
M  V30 25 1 17 19
M  V30 26 1 3 24
M  V30 27 1 4 25
M  V30 28 1 6 26
M  V30 29 1 12 27
M  V30 30 1 13 28
M  V30 31 1 15 29
M  V30 32 1 15 30
M  V30 33 1 16 31
M  V30 34 1 17 32
M  V30 35 1 18 33
M  V30 36 1 18 34
M  V30 37 1 19 35
M  V30 38 1 20 36
M  V30 39 1 20 37
M  V30 40 1 22 38
M  V30 41 1 22 39
M  V30 42 1 22 40
M  V30 43 1 23 41
M  V30 44 1 23 42
M  V30 45 1 23 43
M  V30 END BOND
M  V30 END CTAB
M  END
>  <NO.>
1755

>  <Name>
clodazon

>  <SMILES>
CN(C)CCCn1c(=O)n(-c2ccccc2)c2cc(Cl)ccc21

>  <logBB>


>  <Class>
1

>  <MW>
329.13

>  <nHBAcc>
2

>  <nHBDon>
0

>  <SLogP>
3.4

>  <TopoPSA>
30.17

>  <MMFF94 Energy>
32.671

$$$$
CN(C)CCCn1c2c(c3ccccc31)CCCCCC2
Actelion Java MolfileCreator 2.0

  0  0  0  0  0  0              0 V3000
M  V30 BEGIN CTAB
M  V30 COUNTS 49 51 0 0 0
M  V30 BEGIN ATOM
M  V30 1 N 1.4963 -0.4723 0.1574 0
M  V30 2 C 1.6623 -0.9228 -1.145 0
M  V30 3 C 0.5719 -1.2631 0.817 0
M  V30 4 C 2.2464 0.6487 0.7083 0
M  V30 5 C 0.7802 -1.9864 -1.3314 0
M  V30 6 C 2.5115 -0.482 -2.1769 0
M  V30 7 C 0.1042 -2.201 -0.0954 0
M  V30 8 C 0.1815 -1.1374 2.2621 0
M  V30 9 C 1.8172 2.0219 0.1802 0
M  V30 10 C 0.7266 -2.6154 -2.5938 0
M  V30 11 C 2.4429 -1.1236 -3.4168 0
M  V30 12 C -0.9268 -3.2462 0.1842 0
M  V30 13 C -1.1877 -0.4905 2.4869 0
M  V30 14 C 0.3784 2.3786 0.5667 0
M  V30 15 C 1.5592 -2.1752 -3.6267 0
M  V30 16 C -2.355 -2.7525 -0.0399 0
M  V30 17 C -2.408 -1.3552 2.1368 0
M  V30 18 N 0.0263 3.7718 0.2352 0
M  V30 19 C -2.7253 -1.4287 0.64 0
M  V30 20 C -1.2568 4.1181 0.8558 0
M  V30 21 C -0.0623 3.9818 -1.2129 0
M  V30 22 H 2.1861 0.6304 1.7978 0
M  V30 23 H 3.3007 0.4711 0.4627 0
M  V30 24 H 3.2086 0.3361 -2.0292 0
M  V30 25 H 0.1927 -2.1329 2.7239 0
M  V30 26 H 0.9272 -0.5659 2.821 0
M  V30 27 H 1.9348 2.0533 -0.9072 0
M  V30 28 H 2.5009 2.774 0.5942 0
M  V30 29 H 0.0453 -3.4435 -2.7645 0
M  V30 30 H 3.0899 -0.7942 -4.2263 0
M  V30 31 H -0.817 -3.6145 1.2109 0
M  V30 32 H -0.7509 -4.1209 -0.4539 0
M  V30 33 H -1.2564 0.4696 1.9663 0
M  V30 34 H -1.2589 -0.2595 3.5583 0
M  V30 35 H -0.3277 1.6837 0.0957 0
M  V30 36 H 0.2923 2.248 1.653 0
M  V30 37 H 1.5171 -2.6638 -4.5965 0
M  V30 38 H -2.5324 -2.6392 -1.1174 0
M  V30 39 H -3.0461 -3.5337 0.3015 0
M  V30 40 H -3.2718 -0.8838 2.6252 0
M  V30 41 H -2.3217 -2.3522 2.5831 0
M  V30 42 H -2.2697 -0.5878 0.1035 0
M  V30 43 H -3.8087 -1.3007 0.5136 0
M  V30 44 H -1.1966 4.0213 1.9457 0
M  V30 45 H -2.0749 3.4828 0.4969 0
M  V30 46 H -1.5146 5.1634 0.6511 0
M  V30 47 H -0.7826 3.3046 -1.6862 0
M  V30 48 H 0.911 3.8479 -1.6943 0
M  V30 49 H -0.3662 5.012 -1.433 0
M  V30 END ATOM
M  V30 BEGIN BOND
M  V30 1 1 1 2
M  V30 2 1 1 3
M  V30 3 1 1 4
M  V30 4 2 2 5
M  V30 5 1 2 6
M  V30 6 2 3 7
M  V30 7 1 3 8
M  V30 8 1 4 9
M  V30 9 1 5 10
M  V30 10 2 6 11
M  V30 11 1 7 12
M  V30 12 1 8 13
M  V30 13 1 9 14
M  V30 14 2 10 15
M  V30 15 1 12 16
M  V30 16 1 13 17
M  V30 17 1 14 18
M  V30 18 1 16 19
M  V30 19 1 18 20
M  V30 20 1 18 21
M  V30 21 1 5 7
M  V30 22 1 11 15
M  V30 23 1 17 19
M  V30 24 1 4 22
M  V30 25 1 4 23
M  V30 26 1 6 24
M  V30 27 1 8 25
M  V30 28 1 8 26
M  V30 29 1 9 27
M  V30 30 1 9 28
M  V30 31 1 10 29
M  V30 32 1 11 30
M  V30 33 1 12 31
M  V30 34 1 12 32
M  V30 35 1 13 33
M  V30 36 1 13 34
M  V30 37 1 14 35
M  V30 38 1 14 36
M  V30 39 1 15 37
M  V30 40 1 16 38
M  V30 41 1 16 39
M  V30 42 1 17 40
M  V30 43 1 17 41
M  V30 44 1 19 42
M  V30 45 1 19 43
M  V30 46 1 20 44
M  V30 47 1 20 45
M  V30 48 1 20 46
M  V30 49 1 21 47
M  V30 50 1 21 48
M  V30 51 1 21 49
M  V30 END BOND
M  V30 END CTAB
M  END
>  <NO.>
1756

>  <Name>
iprindole

>  <SMILES>
CN(C)CCCn1c2c(c3ccccc31)CCCCCC2

>  <logBB>


>  <Class>
1

>  <MW>
284.23

>  <nHBAcc>
1

>  <nHBDon>
0

>  <SLogP>
4.25

>  <TopoPSA>
8.17

>  <MMFF94 Energy>
32.634

$$$$
CN(C)CCCn1cc(-c2ccccc2)c(-c2ccccc2)n1
Actelion Java MolfileCreator 2.0

  0  0  0  0  0  0              0 V3000
M  V30 BEGIN CTAB
M  V30 COUNTS 46 48 0 0 0
M  V30 BEGIN ATOM
M  V30 1 N 0.7099 0.8677 -0.5521 0
M  V30 2 N -0.1032 -0.0224 -1.1395 0
M  V30 3 C 1.491 0.1316 0.2601 0
M  V30 4 C 0.1043 -1.3047 -0.7365 0
M  V30 5 C -1.0871 0.4346 -2.1027 0
M  V30 6 C 2.536 0.7738 1.062 0
M  V30 7 C 1.1294 -1.2528 0.185 0
M  V30 8 C -2.3887 0.8631 -1.4302 0
M  V30 9 C 3.7833 0.1638 1.2532 0
M  V30 10 C 2.3025 2.0288 1.6435 0
M  V30 11 C 1.6037 -2.423 0.9009 0
M  V30 12 C -3.3783 1.402 -2.4681 0
M  V30 13 C 4.7675 0.7863 2.0261 0
M  V30 14 C 3.2867 2.6512 2.4151 0
M  V30 15 C 1.6904 -2.4086 2.2986 0
M  V30 16 C 1.9787 -3.5796 0.205 0
M  V30 17 N -4.7145 1.6634 -1.9083 0
M  V30 18 C 4.5177 2.0277 2.6084 0
M  V30 19 C 2.1509 -3.5317 2.9891 0
M  V30 20 C 2.4389 -4.702 0.8973 0
M  V30 21 C -5.661 1.9619 -2.9874 0
M  V30 22 C -4.7055 2.7679 -0.9453 0
M  V30 23 C 2.5251 -4.6771 2.2884 0
M  V30 24 H -0.4943 -2.1249 -1.1072 0
M  V30 25 H -0.6375 1.2638 -2.6615 0
M  V30 26 H -1.262 -0.3859 -2.8081 0
M  V30 27 H -2.1695 1.6271 -0.6751 0
M  V30 28 H -2.8274 0.0077 -0.9005 0
M  V30 29 H 4.0068 -0.7963 0.7949 0
M  V30 30 H 1.3463 2.5265 1.4941 0
M  V30 31 H -2.9697 2.3052 -2.9403 0
M  V30 32 H -3.4727 0.6456 -3.2583 0
M  V30 33 H 5.7302 0.3025 2.1677 0
M  V30 34 H 3.0909 3.623 2.8602 0
M  V30 35 H 1.3964 -1.5249 2.8612 0
M  V30 36 H 1.9251 -3.6114 -0.8804 0
M  V30 37 H 5.2847 2.5124 3.2067 0
M  V30 38 H 2.2154 -3.511 4.0739 0
M  V30 39 H 2.7311 -5.5946 0.3504 0
M  V30 40 H -5.726 1.1212 -3.6872 0
M  V30 41 H -5.377 2.859 -3.5495 0
M  V30 42 H -6.6699 2.11 -2.586 0
M  V30 43 H -4.315 3.6939 -1.3825 0
M  V30 44 H -4.1095 2.52 -0.0616 0
M  V30 45 H -5.7191 2.9647 -0.5768 0
M  V30 46 H 2.8831 -5.5507 2.8271 0
M  V30 END ATOM
M  V30 BEGIN BOND
M  V30 1 1 1 2
M  V30 2 2 1 3
M  V30 3 1 2 4
M  V30 4 1 2 5
M  V30 5 1 3 6
M  V30 6 1 3 7
M  V30 7 1 5 8
M  V30 8 2 6 9
M  V30 9 1 6 10
M  V30 10 1 7 11
M  V30 11 1 8 12
M  V30 12 1 9 13
M  V30 13 2 10 14
M  V30 14 2 11 15
M  V30 15 1 11 16
M  V30 16 1 12 17
M  V30 17 2 13 18
M  V30 18 1 15 19
M  V30 19 2 16 20
M  V30 20 1 17 21
M  V30 21 1 17 22
M  V30 22 2 19 23
M  V30 23 2 4 7
M  V30 24 1 14 18
M  V30 25 1 20 23
M  V30 26 1 4 24
M  V30 27 1 5 25
M  V30 28 1 5 26
M  V30 29 1 8 27
M  V30 30 1 8 28
M  V30 31 1 9 29
M  V30 32 1 10 30
M  V30 33 1 12 31
M  V30 34 1 12 32
M  V30 35 1 13 33
M  V30 36 1 14 34
M  V30 37 1 15 35
M  V30 38 1 16 36
M  V30 39 1 18 37
M  V30 40 1 19 38
M  V30 41 1 20 39
M  V30 42 1 21 40
M  V30 43 1 21 41
M  V30 44 1 21 42
M  V30 45 1 22 43
M  V30 46 1 22 44
M  V30 47 1 22 45
M  V30 48 1 23 46
M  V30 END BOND
M  V30 END CTAB
M  END
>  <NO.>
1757

>  <Name>
fezolamine

>  <SMILES>
CN(C)CCCn1cc(-c2ccccc2)c(-c2ccccc2)n1

>  <logBB>


>  <Class>
1

>  <MW>
305.19

>  <nHBAcc>
2

>  <nHBDon>
0

>  <SLogP>
4.17

>  <TopoPSA>
21.06

>  <MMFF94 Energy>
57.61

$$$$
CN(C)CCN(C)n1cc(-c2ccccc2)c2ccccc21
Actelion Java MolfileCreator 2.0

  0  0  0  0  0  0              0 V3000
M  V30 BEGIN CTAB
M  V30 COUNTS 45 47 0 0 0
M  V30 BEGIN ATOM
M  V30 1 N -0.3939 -0.7091 -0.4727 0
M  V30 2 N -1.0739 -1.8747 0.0313 0
M  V30 3 C -0.9882 0.5266 -0.6222 0
M  V30 4 C 0.9103 -0.657 -0.8917 0
M  V30 5 C -0.5003 -2.3554 1.2977 0
M  V30 6 C -1.147 -2.9264 -0.9754 0
M  V30 7 C -0.0247 1.3858 -1.1594 0
M  V30 8 C -2.2912 0.9569 -0.3216 0
M  V30 9 C 1.1751 0.6254 -1.3296 0
M  V30 10 C -0.6316 -1.3646 2.487 0
M  V30 11 C -0.3827 2.7306 -1.3997 0
M  V30 12 C -2.6192 2.2909 -0.5739 0
M  V30 13 C 2.4644 1.0223 -1.8695 0
M  V30 14 N -1.9999 -0.8905 2.7756 0
M  V30 15 C -1.6794 3.168 -1.1061 0
M  V30 16 C 3.6459 0.7525 -1.1672 0
M  V30 17 C 2.5384 1.6803 -3.1031 0
M  V30 18 C -1.9649 0.189 3.7616 0
M  V30 19 C -2.8754 -1.9676 3.2304 0
M  V30 20 C 4.8821 1.138 -1.6908 0
M  V30 21 C 3.7753 2.0641 -3.6259 0
M  V30 22 C 4.9459 1.7933 -2.9194 0
M  V30 23 H 1.5364 -1.5367 -0.8617 0
M  V30 24 H -0.9987 -3.29 1.5843 0
M  V30 25 H 0.56 -2.612 1.1736 0
M  V30 26 H -0.1645 -3.346 -1.2188 0
M  V30 27 H -1.5995 -2.5497 -1.9 0
M  V30 28 H -1.7876 -3.744 -0.6264 0
M  V30 29 H -3.0151 0.2716 0.1104 0
M  V30 30 H -0.2019 -1.8384 3.3798 0
M  V30 31 H 0.0058 -0.4985 2.2664 0
M  V30 32 H 0.3451 3.4287 -1.8024 0
M  V30 33 H -3.6207 2.6454 -0.3431 0
M  V30 34 H -1.9509 4.2043 -1.29 0
M  V30 35 H 3.6109 0.2517 -0.203 0
M  V30 36 H 1.6344 1.888 -3.6709 0
M  V30 37 H -1.3651 1.0291 3.394 0
M  V30 38 H -1.5482 -0.1407 4.7201 0
M  V30 39 H -2.972 0.5822 3.9398 0
M  V30 40 H -2.491 -2.4594 4.1311 0
M  V30 41 H -3.012 -2.7242 2.4517 0
M  V30 42 H -3.8767 -1.5814 3.4533 0
M  V30 43 H 5.794 0.9289 -1.1379 0
M  V30 44 H 3.8236 2.572 -4.5855 0
M  V30 45 H 5.908 2.0929 -3.3266 0
M  V30 END ATOM
M  V30 BEGIN BOND
M  V30 1 1 1 2
M  V30 2 1 1 3
M  V30 3 1 1 4
M  V30 4 1 2 5
M  V30 5 1 2 6
M  V30 6 2 3 7
M  V30 7 1 3 8
M  V30 8 2 4 9
M  V30 9 1 5 10
M  V30 10 1 7 11
M  V30 11 2 8 12
M  V30 12 1 9 13
M  V30 13 1 10 14
M  V30 14 2 11 15
M  V30 15 2 13 16
M  V30 16 1 13 17
M  V30 17 1 14 18
M  V30 18 1 14 19
M  V30 19 1 16 20
M  V30 20 2 17 21
M  V30 21 2 20 22
M  V30 22 1 7 9
M  V30 23 1 12 15
M  V30 24 1 21 22
M  V30 25 1 4 23
M  V30 26 1 5 24
M  V30 27 1 5 25
M  V30 28 1 6 26
M  V30 29 1 6 27
M  V30 30 1 6 28
M  V30 31 1 8 29
M  V30 32 1 10 30
M  V30 33 1 10 31
M  V30 34 1 11 32
M  V30 35 1 12 33
M  V30 36 1 15 34
M  V30 37 1 16 35
M  V30 38 1 17 36
M  V30 39 1 18 37
M  V30 40 1 18 38
M  V30 41 1 18 39
M  V30 42 1 19 40
M  V30 43 1 19 41
M  V30 44 1 19 42
M  V30 45 1 20 43
M  V30 46 1 21 44
M  V30 47 1 22 45
M  V30 END BOND
M  V30 END CTAB
M  END
>  <NO.>
1758

>  <Name>
binedaline

>  <SMILES>
CN(C)CCN(C)n1cc(-c2ccccc2)c2ccccc21

>  <logBB>


>  <Class>
1

>  <MW>
293.19

>  <nHBAcc>
2

>  <nHBDon>
0

>  <SLogP>
3.44

>  <TopoPSA>
11.41

>  <MMFF94 Energy>
54.287

$$$$
CN(C)CCN(Cc1cccs1)c1ccccn1
Actelion Java MolfileCreator 2.0

  0  0  0  0  0  0              0 V3000
M  V30 BEGIN CTAB
M  V30 COUNTS 37 38 0 0 0
M  V30 BEGIN ATOM
M  V30 1 S 3.1882 2.1511 -1.7525 0
M  V30 2 C 2.192 0.8015 -1.3897 0
M  V30 3 C 3.9213 1.3403 -3.0666 0
M  V30 4 C 2.4287 -0.2443 -2.2619 0
M  V30 5 C 1.2294 0.8782 -0.2301 0
M  V30 6 C 3.4247 0.0674 -3.2309 0
M  V30 7 N 0.2042 -0.1628 -0.1816 0
M  V30 8 C -0.9297 -0.1627 -0.9691 0
M  V30 9 C 0.4413 -1.3016 0.7105 0
M  V30 10 N -1.7952 -1.1961 -0.8354 0
M  V30 11 C -1.2102 0.8512 -1.8868 0
M  V30 12 C -0.4 -1.283 2.0094 0
M  V30 13 C -2.9154 -1.2241 -1.5925 0
M  V30 14 C -2.3714 0.8078 -2.6619 0
M  V30 15 N -0.0213 -0.2197 2.9754 0
M  V30 16 C -3.2469 -0.2526 -2.513 0
M  V30 17 C -0.2434 -0.6851 4.3479 0
M  V30 18 C -0.8214 0.9894 2.7513 0
M  V30 19 H 4.6813 1.8355 -3.655 0
M  V30 20 H 1.9014 -1.1899 -2.2072 0
M  V30 21 H 1.8288 0.8408 0.6901 0
M  V30 22 H 0.7522 1.8668 -0.2048 0
M  V30 23 H 3.7585 -0.6086 -4.0081 0
M  V30 24 H 1.5032 -1.3469 0.9876 0
M  V30 25 H 0.2597 -2.2438 0.1761 0
M  V30 26 H -0.5366 1.6878 -2.0291 0
M  V30 27 H -1.4751 -1.2552 1.7947 0
M  V30 28 H -0.2183 -2.2614 2.4754 0
M  V30 29 H -3.5586 -2.0834 -1.4288 0
M  V30 30 H -2.5794 1.5993 -3.3755 0
M  V30 31 H -4.1567 -0.322 -3.0967 0
M  V30 32 H 0.3908 -1.5514 4.5669 0
M  V30 33 H -1.2878 -0.9656 4.5273 0
M  V30 34 H 0.0353 0.0916 5.069 0
M  V30 35 H -1.8944 0.8073 2.8842 0
M  V30 36 H -0.6692 1.4021 1.7526 0
M  V30 37 H -0.5216 1.7766 3.4528 0
M  V30 END ATOM
M  V30 BEGIN BOND
M  V30 1 1 1 2
M  V30 2 1 1 3
M  V30 3 2 2 4
M  V30 4 1 2 5
M  V30 5 2 3 6
M  V30 6 1 5 7
M  V30 7 1 7 8
M  V30 8 1 7 9
M  V30 9 2 8 10
M  V30 10 1 8 11
M  V30 11 1 9 12
M  V30 12 1 10 13
M  V30 13 2 11 14
M  V30 14 1 12 15
M  V30 15 2 13 16
M  V30 16 1 15 17
M  V30 17 1 15 18
M  V30 18 1 4 6
M  V30 19 1 14 16
M  V30 20 1 3 19
M  V30 21 1 4 20
M  V30 22 1 5 21
M  V30 23 1 5 22
M  V30 24 1 6 23
M  V30 25 1 9 24
M  V30 26 1 9 25
M  V30 27 1 11 26
M  V30 28 1 12 27
M  V30 29 1 12 28
M  V30 30 1 13 29
M  V30 31 1 14 30
M  V30 32 1 16 31
M  V30 33 1 17 32
M  V30 34 1 17 33
M  V30 35 1 17 34
M  V30 36 1 18 35
M  V30 37 1 18 36
M  V30 38 1 18 37
M  V30 END BOND
M  V30 END CTAB
M  END
>  <NO.>
1759

>  <Name>
methapyrilene

>  <SMILES>
CN(C)CCN(Cc1cccs1)c1ccccn1

>  <logBB>


>  <Class>
1

>  <MW>
261.13

>  <nHBAcc>
4

>  <nHBDon>
0

>  <SLogP>
2.71

>  <TopoPSA>
19.37

>  <MMFF94 Energy>
20.222

$$$$
CN(C)CCN1C(=O)CC(c2ccccc2)Sc2ccccc21
Actelion Java MolfileCreator 2.0

  0  0  0  0  0  0              0 V3000
M  V30 BEGIN CTAB
M  V30 COUNTS 45 47 0 0 0
M  V30 BEGIN ATOM
M  V30 1 S -1.2069 -1.69 -0.4021 0
M  V30 2 C -0.9599 -0.8208 -1.94 0
M  V30 3 C 0.5008 -2.3362 -0.1424 0 CFG=2
M  V30 4 C -0.1091 0.2956 -2.0483 0
M  V30 5 C -1.6601 -1.2671 -3.0677 0
M  V30 6 C 0.6372 -2.9101 1.2616 0
M  V30 7 C 1.6523 -1.3945 -0.5182 0
M  V30 8 N 0.5926 0.8162 -0.9251 0
M  V30 9 C 0.0543 0.9195 -3.293 0
M  V30 10 C -1.4978 -0.6315 -4.2994 0
M  V30 11 C 0.578 -2.0992 2.4065 0
M  V30 12 C 0.8307 -4.2917 1.434 0
M  V30 13 C 1.4272 0.048 -0.1176 0
M  V30 14 C 0.2946 2.1951 -0.5138 0
M  V30 15 C -0.6369 0.4567 -4.4133 0
M  V30 16 C 0.7152 -2.6517 3.682 0
M  V30 17 C 0.9667 -4.8423 2.7105 0
M  V30 18 O 1.9845 0.5098 0.8807 0
M  V30 19 C -0.8632 2.2525 0.5084 0
M  V30 20 C 0.9104 -4.0219 3.8339 0
M  V30 21 N -1.2291 3.5758 1.0458 0
M  V30 22 C -1.6806 4.5028 0.0137 0
M  V30 23 C -0.1626 4.1613 1.8539 0
M  V30 24 H 0.5736 -3.1816 -0.8397 0
M  V30 25 H -2.337 -2.1161 -2.9958 0
M  V30 26 H 2.593 -1.7318 -0.0634 0
M  V30 27 H 1.8354 -1.432 -1.5997 0
M  V30 28 H 0.728 1.766 -3.4024 0
M  V30 29 H -2.0436 -0.9882 -5.1698 0
M  V30 30 H 0.4186 -1.026 2.3233 0
M  V30 31 H 0.8751 -4.9556 0.5733 0
M  V30 32 H 0.0587 2.8006 -1.3947 0
M  V30 33 H 1.2033 2.62 -0.0729 0
M  V30 34 H -0.5057 0.9481 -5.3745 0
M  V30 35 H 0.6675 -2.0077 4.5565 0
M  V30 36 H 1.115 -5.9125 2.8275 0
M  V30 37 H -1.7592 1.8134 0.0498 0
M  V30 38 H -0.6334 1.5892 1.3529 0
M  V30 39 H 1.0155 -4.449 4.8275 0
M  V30 40 H -2.4917 4.0618 -0.5762 0
M  V30 41 H -0.8765 4.7986 -0.6684 0
M  V30 42 H -2.0858 5.4126 0.4712 0
M  V30 43 H 0.7158 4.4334 1.2594 0
M  V30 44 H 0.1524 3.4691 2.6426 0
M  V30 45 H -0.5217 5.0659 2.3578 0
M  V30 END ATOM
M  V30 BEGIN BOND
M  V30 1 1 1 2
M  V30 2 1 1 3
M  V30 3 2 2 4
M  V30 4 1 2 5
M  V30 5 1 3 6
M  V30 6 1 3 7
M  V30 7 1 4 8
M  V30 8 1 4 9
M  V30 9 2 5 10
M  V30 10 2 6 11
M  V30 11 1 6 12
M  V30 12 1 7 13
M  V30 13 1 8 14
M  V30 14 2 9 15
M  V30 15 1 11 16
M  V30 16 2 12 17
M  V30 17 2 13 18
M  V30 18 1 14 19
M  V30 19 2 16 20
M  V30 20 1 19 21
M  V30 21 1 21 22
M  V30 22 1 21 23
M  V30 23 1 8 13
M  V30 24 1 10 15
M  V30 25 1 17 20
M  V30 26 1 3 24
M  V30 27 1 5 25
M  V30 28 1 7 26
M  V30 29 1 7 27
M  V30 30 1 9 28
M  V30 31 1 10 29
M  V30 32 1 11 30
M  V30 33 1 12 31
M  V30 34 1 14 32
M  V30 35 1 14 33
M  V30 36 1 15 34
M  V30 37 1 16 35
M  V30 38 1 17 36
M  V30 39 1 19 37
M  V30 40 1 19 38
M  V30 41 1 20 39
M  V30 42 1 22 40
M  V30 43 1 22 41
M  V30 44 1 22 42
M  V30 45 1 23 43
M  V30 46 1 23 44
M  V30 47 1 23 45
M  V30 END BOND
M  V30 BEGIN COLLECTION
M  V30 MDLV30/STERAC1 ATOMS=(1 3)
M  V30 END COLLECTION
M  V30 END CTAB
M  END
>  <NO.>
1760

>  <Name>
thiazesim

>  <SMILES>
CN(C)CCN1C(=O)CC(c2ccccc2)Sc2ccccc21

>  <logBB>


>  <Class>
1

>  <MW>
326.15

>  <nHBAcc>
3

>  <nHBDon>
0

>  <SLogP>
3.82

>  <TopoPSA>
23.55

>  <MMFF94 Energy>
71.015

$$$$
CN(C)CCN1C(=O)c2ccccc2N(C)c2ccccc21
Actelion Java MolfileCreator 2.0

  0  0  0  0  0  0              0 V3000
M  V30 BEGIN CTAB
M  V30 COUNTS 43 45 0 0 0
M  V30 BEGIN ATOM
M  V30 1 O 2.2185 -1.188 0.2375 0
M  V30 2 C 1.0748 -0.8405 -0.0738 0
M  V30 3 N 0.2182 -0.1699 0.8094 0
M  V30 4 C 0.6663 -1.1697 -1.4558 0
M  V30 5 C -1.142 0.1848 0.5367 0
M  V30 6 C 0.7014 -0.0125 2.1898 0
M  V30 7 C -0.5659 -1.776 -1.7344 0
M  V30 8 C 1.6446 -1.0315 -2.4585 0
M  V30 9 C -2.0343 -0.7099 -0.0969 0
M  V30 10 C -1.6356 1.411 1.0183 0
M  V30 11 C 1.4328 1.3041 2.5688 0
M  V30 12 N -1.5738 -1.8682 -0.7569 0
M  V30 13 C -0.7855 -2.2267 -3.0517 0
M  V30 14 C 1.398 -1.4732 -3.7553 0
M  V30 15 C -3.403 -0.3653 -0.1495 0
M  V30 16 C -2.9891 1.7379 0.9352 0
M  V30 17 N 2.5902 1.6993 1.7465 0
M  V30 18 C -2.4324 -3.0498 -0.7689 0
M  V30 19 C 0.1815 -2.075 -4.0509 0
M  V30 20 C -3.8778 0.8403 0.3663 0
M  V30 21 C 3.543 2.4842 2.5336 0
M  V30 22 C 2.1886 2.4651 0.5656 0
M  V30 23 H 1.3801 -0.8453 2.4163 0
M  V30 24 H -0.1482 -0.1499 2.8722 0
M  V30 25 H 2.6127 -0.5989 -2.2117 0
M  V30 26 H -0.9712 2.1425 1.4603 0
M  V30 27 H 0.727 2.1369 2.652 0
M  V30 28 H 1.7766 1.1342 3.5994 0
M  V30 29 H -1.735 -2.6757 -3.3294 0
M  V30 30 H 2.1591 -1.3629 -4.5228 0
M  V30 31 H -4.1177 -1.0173 -0.6437 0
M  V30 32 H -3.3437 2.6915 1.3175 0
M  V30 33 H -1.8473 -3.9567 -0.9635 0
M  V30 34 H -3.217 -2.9763 -1.5304 0
M  V30 35 H -2.9103 -3.1966 0.2072 0
M  V30 36 H -0.021 -2.4255 -5.0597 0
M  V30 37 H -4.9342 1.0855 0.2949 0
M  V30 38 H 3.9223 1.8973 3.3777 0
M  V30 39 H 3.0952 3.4049 2.9251 0
M  V30 40 H 4.4161 2.754 1.9287 0
M  V30 41 H 1.6887 3.4031 0.8347 0
M  V30 42 H 1.5178 1.901 -0.0849 0
M  V30 43 H 3.0651 2.7105 -0.0449 0
M  V30 END ATOM
M  V30 BEGIN BOND
M  V30 1 2 1 2
M  V30 2 1 2 3
M  V30 3 1 2 4
M  V30 4 1 3 5
M  V30 5 1 3 6
M  V30 6 2 4 7
M  V30 7 1 4 8
M  V30 8 2 5 9
M  V30 9 1 5 10
M  V30 10 1 6 11
M  V30 11 1 7 12
M  V30 12 1 7 13
M  V30 13 2 8 14
M  V30 14 1 9 15
M  V30 15 2 10 16
M  V30 16 1 11 17
M  V30 17 1 12 18
M  V30 18 2 13 19
M  V30 19 2 15 20
M  V30 20 1 17 21
M  V30 21 1 17 22
M  V30 22 1 9 12
M  V30 23 1 14 19
M  V30 24 1 16 20
M  V30 25 1 6 23
M  V30 26 1 6 24
M  V30 27 1 8 25
M  V30 28 1 10 26
M  V30 29 1 11 27
M  V30 30 1 11 28
M  V30 31 1 13 29
M  V30 32 1 14 30
M  V30 33 1 15 31
M  V30 34 1 16 32
M  V30 35 1 18 33
M  V30 36 1 18 34
M  V30 37 1 18 35
M  V30 38 1 19 36
M  V30 39 1 20 37
M  V30 40 1 21 38
M  V30 41 1 21 39
M  V30 42 1 21 40
M  V30 43 1 22 41
M  V30 44 1 22 42
M  V30 45 1 22 43
M  V30 END BOND
M  V30 END CTAB
M  END
>  <NO.>
1761

>  <Name>
dibenzepin

>  <SMILES>
CN(C)CCN1C(=O)c2ccccc2N(C)c2ccccc21

>  <logBB>


>  <Class>
1

>  <MW>
295.17

>  <nHBAcc>
3

>  <nHBDon>
0

>  <SLogP>
2.98

>  <TopoPSA>
26.79

>  <MMFF94 Energy>
118.4

$$$$
CN(C)CCN1CCN(c2cccc(Cl)c2)C1=O
Actelion Java MolfileCreator 2.0

  0  0  0  0  0  0              0 V3000
M  V30 BEGIN CTAB
M  V30 COUNTS 36 37 0 0 0
M  V30 BEGIN ATOM
M  V30 1 Cl -2.7047 -3.1826 -5.0162 0
M  V30 2 C -2.3381 -1.7773 -4.0905 0
M  V30 3 C -1.7924 -1.916 -2.8121 0
M  V30 4 C -2.5882 -0.5169 -4.6248 0
M  V30 5 C -1.4918 -0.7838 -2.0432 0
M  V30 6 C -2.2881 0.6154 -3.8729 0
M  V30 7 N -0.9245 -0.917 -0.7556 0
M  V30 8 C -1.7416 0.4806 -2.5926 0
M  V30 9 C -1.0377 0.0078 0.3035 0
M  V30 10 C -0.196 -2.0899 -0.326 0
M  V30 11 O -1.6751 1.05 0.3266 0
M  V30 12 N -0.2885 -0.4928 1.3712 0
M  V30 13 C 0.4205 -1.693 1.0067 0
M  V30 14 C -0.1098 0.1892 2.6428 0
M  V30 15 C 1.3558 0.5446 2.9814 0
M  V30 16 N 2.11 1.2551 1.9292 0
M  V30 17 C 3.5102 1.4107 2.3273 0
M  V30 18 C 1.5278 2.5667 1.6348 0
M  V30 19 H -1.6218 -2.9152 -2.4254 0
M  V30 20 H -3.0137 -0.4102 -5.6187 0
M  V30 21 H -2.4764 1.6069 -4.2772 0
M  V30 22 H -1.5064 1.3859 -2.037 0
M  V30 23 H -0.9046 -2.914 -0.1857 0
M  V30 24 H 0.5653 -2.3758 -1.0585 0
M  V30 25 H 0.2942 -2.4637 1.7723 0
M  V30 26 H 1.4833 -1.4585 0.892 0
M  V30 27 H -0.5019 -0.4786 3.4186 0
M  V30 28 H -0.7284 1.093 2.6577 0
M  V30 29 H 1.3675 1.1178 3.918 0
M  V30 30 H 1.873 -0.4011 3.1906 0
M  V30 31 H 3.9732 0.4324 2.498 0
M  V30 32 H 3.6172 2.0077 3.2403 0
M  V30 33 H 4.0866 1.8927 1.5298 0
M  V30 34 H 1.493 3.2098 2.5217 0
M  V30 35 H 0.5145 2.4751 1.2344 0
M  V30 36 H 2.1121 3.0803 0.8627 0
M  V30 END ATOM
M  V30 BEGIN BOND
M  V30 1 1 1 2
M  V30 2 2 2 3
M  V30 3 1 2 4
M  V30 4 1 3 5
M  V30 5 2 4 6
M  V30 6 1 5 7
M  V30 7 2 5 8
M  V30 8 1 7 9
M  V30 9 1 7 10
M  V30 10 2 9 11
M  V30 11 1 9 12
M  V30 12 1 10 13
M  V30 13 1 12 14
M  V30 14 1 14 15
M  V30 15 1 15 16
M  V30 16 1 16 17
M  V30 17 1 16 18
M  V30 18 1 6 8
M  V30 19 1 12 13
M  V30 20 1 3 19
M  V30 21 1 4 20
M  V30 22 1 6 21
M  V30 23 1 8 22
M  V30 24 1 10 23
M  V30 25 1 10 24
M  V30 26 1 13 25
M  V30 27 1 13 26
M  V30 28 1 14 27
M  V30 29 1 14 28
M  V30 30 1 15 29
M  V30 31 1 15 30
M  V30 32 1 17 31
M  V30 33 1 17 32
M  V30 34 1 17 33
M  V30 35 1 18 34
M  V30 36 1 18 35
M  V30 37 1 18 36
M  V30 END BOND
M  V30 END CTAB
M  END
>  <NO.>
1762

>  <Name>
imidoline

>  <SMILES>
CN(C)CCN1CCN(c2cccc(Cl)c2)C1=O

>  <logBB>


>  <Class>
1

>  <MW>
267.11

>  <nHBAcc>
2

>  <nHBDon>
0

>  <SLogP>
2.14

>  <TopoPSA>
26.79

>  <MMFF94 Energy>
6.1573

$$$$
CN(C)CCOC(=O)CCC1CCCCC1
Actelion Java MolfileCreator 2.0

  0  0  0  0  0  0              0 V3000
M  V30 BEGIN CTAB
M  V30 COUNTS 41 41 0 0 0
M  V30 BEGIN ATOM
M  V30 1 O -0.2338 -0.3118 -2.575 0
M  V30 2 C 0.134 0.2895 -1.5758 0
M  V30 3 O 0.4712 1.6074 -1.536 0
M  V30 4 C 0.3061 -0.3127 -0.2001 0
M  V30 5 C 0.3154 2.2981 -2.7843 0
M  V30 6 C -0.2 -1.755 -0.1435 0
M  V30 7 C 0.5577 3.8029 -2.5755 0
M  V30 8 C -0.1939 -2.3536 1.2763 0
M  V30 9 N -0.3812 4.4648 -1.6441 0
M  V30 10 C -0.8628 -3.7393 1.2562 0
M  V30 11 C 1.2232 -2.4505 1.8646 0
M  V30 12 C -1.7515 4.4778 -2.1575 0
M  V30 13 C 0.0624 5.8348 -1.3751 0
M  V30 14 C -0.8555 -4.399 2.6325 0
M  V30 15 C 1.2284 -3.1218 3.237 0
M  V30 16 C 0.5552 -4.4889 3.2023 0
M  V30 17 H -0.2556 0.3007 0.5132 0
M  V30 18 H 1.3713 -0.2701 0.0476 0
M  V30 19 H -0.6788 2.1141 -3.2056 0
M  V30 20 H 1.066 1.9159 -3.4864 0
M  V30 21 H -1.2252 -1.786 -0.5361 0
M  V30 22 H 0.4033 -2.3797 -0.8148 0
M  V30 23 H 1.571 3.9064 -2.1657 0
M  V30 24 H 0.5464 4.3061 -3.5508 0
M  V30 25 H -0.7915 -1.6999 1.9266 0
M  V30 26 H -1.8991 -3.6484 0.9088 0
M  V30 27 H -0.3448 -4.3917 0.5415 0
M  V30 28 H 1.8702 -3.0167 1.1827 0
M  V30 29 H 1.6637 -1.4528 1.9678 0
M  V30 30 H -2.1531 3.4634 -2.2417 0
M  V30 31 H -1.821 4.9644 -3.137 0
M  V30 32 H -2.4168 5.0068 -1.4652 0
M  V30 33 H 0.0827 6.4482 -2.2832 0
M  V30 34 H 1.0654 5.8365 -0.9339 0
M  V30 35 H -0.5978 6.3182 -0.6461 0
M  V30 36 H -1.289 -5.4029 2.562 0
M  V30 37 H -1.4913 -3.8237 3.3168 0
M  V30 38 H 2.2604 -3.2286 3.5899 0
M  V30 39 H 0.7099 -2.478 3.9585 0
M  V30 40 H 1.1537 -5.1759 2.5915 0
M  V30 41 H 0.5191 -4.9088 4.2138 0
M  V30 END ATOM
M  V30 BEGIN BOND
M  V30 1 2 1 2
M  V30 2 1 2 3
M  V30 3 1 2 4
M  V30 4 1 3 5
M  V30 5 1 4 6
M  V30 6 1 5 7
M  V30 7 1 6 8
M  V30 8 1 7 9
M  V30 9 1 8 10
M  V30 10 1 8 11
M  V30 11 1 9 12
M  V30 12 1 9 13
M  V30 13 1 10 14
M  V30 14 1 11 15
M  V30 15 1 14 16
M  V30 16 1 15 16
M  V30 17 1 4 17
M  V30 18 1 4 18
M  V30 19 1 5 19
M  V30 20 1 5 20
M  V30 21 1 6 21
M  V30 22 1 6 22
M  V30 23 1 7 23
M  V30 24 1 7 24
M  V30 25 1 8 25
M  V30 26 1 10 26
M  V30 27 1 10 27
M  V30 28 1 11 28
M  V30 29 1 11 29
M  V30 30 1 12 30
M  V30 31 1 12 31
M  V30 32 1 12 32
M  V30 33 1 13 33
M  V30 34 1 13 34
M  V30 35 1 13 35
M  V30 36 1 14 36
M  V30 37 1 14 37
M  V30 38 1 15 38
M  V30 39 1 15 39
M  V30 40 1 16 40
M  V30 41 1 16 41
M  V30 END BOND
M  V30 END CTAB
M  END
>  <NO.>
1764

>  <Name>
cyprodenate

>  <SMILES>
CN(C)CCOC(=O)CCC1CCCCC1

>  <logBB>


>  <Class>
1

>  <MW>
227.19

>  <nHBAcc>
3

>  <nHBDon>
0

>  <SLogP>
2.45

>  <TopoPSA>
29.54

>  <MMFF94 Energy>
18.269

$$$$
CN(C)CCOC(=O)COc1ccc(Cl)cc1
Actelion Java MolfileCreator 2.0

  0  0  0  0  0  0              0 V3000
M  V30 BEGIN CTAB
M  V30 COUNTS 33 33 0 0 0
M  V30 BEGIN ATOM
M  V30 1 Cl -4.4476 -5.323 3.0163 0
M  V30 2 C -3.6849 -4.1445 2.0226 0
M  V30 3 C -2.8335 -3.2014 2.5951 0
M  V30 4 C -3.9202 -4.1362 0.6513 0
M  V30 5 C -2.2102 -2.2402 1.7911 0
M  V30 6 C -3.297 -3.1759 -0.1486 0
M  V30 7 C -2.4404 -2.2246 0.4141 0
M  V30 8 O -1.9001 -1.3471 -0.483 0
M  V30 9 C -1.0151 -0.3577 0.0266 0
M  V30 10 C -0.5009 0.5329 -1.0946 0
M  V30 11 O -0.7951 0.4493 -2.2787 0
M  V30 12 O 0.3555 1.461 -0.5718 0
M  V30 13 C 0.9175 2.3557 -1.5442 0
M  V30 14 C 1.9114 3.3162 -0.8666 0
M  V30 15 N 3.234 2.7945 -0.4743 0
M  V30 16 C 4.0418 2.3823 -1.6188 0
M  V30 17 C 3.1593 1.7307 0.5215 0
M  V30 18 H -2.6503 -3.2079 3.6665 0
M  V30 19 H -4.5829 -4.868 0.1981 0
M  V30 20 H -1.5551 -1.5229 2.274 0
M  V30 21 H -3.4801 -3.1679 -1.2211 0
M  V30 22 H -0.1448 -0.8381 0.4884 0
M  V30 23 H -1.5444 0.2855 0.739 0
M  V30 24 H 0.1016 2.9502 -1.9731 0
M  V30 25 H 1.3977 1.7913 -2.3504 0
M  V30 26 H 2.0767 4.166 -1.5411 0
M  V30 27 H 1.4374 3.7373 0.0294 0
M  V30 28 H 4.1203 3.1931 -2.3513 0
M  V30 29 H 3.6397 1.4973 -2.1229 0
M  V30 30 H 5.064 2.152 -1.2983 0
M  V30 31 H 2.7469 0.8008 0.1163 0
M  V30 32 H 2.5513 2.0396 1.3789 0
M  V30 33 H 4.1588 1.5095 0.9127 0
M  V30 END ATOM
M  V30 BEGIN BOND
M  V30 1 1 1 2
M  V30 2 2 2 3
M  V30 3 1 2 4
M  V30 4 1 3 5
M  V30 5 2 4 6
M  V30 6 2 5 7
M  V30 7 1 7 8
M  V30 8 1 8 9
M  V30 9 1 9 10
M  V30 10 2 10 11
M  V30 11 1 10 12
M  V30 12 1 12 13
M  V30 13 1 13 14
M  V30 14 1 14 15
M  V30 15 1 15 16
M  V30 16 1 15 17
M  V30 17 1 6 7
M  V30 18 1 3 18
M  V30 19 1 4 19
M  V30 20 1 5 20
M  V30 21 1 6 21
M  V30 22 1 9 22
M  V30 23 1 9 23
M  V30 24 1 13 24
M  V30 25 1 13 25
M  V30 26 1 14 26
M  V30 27 1 14 27
M  V30 28 1 16 28
M  V30 29 1 16 29
M  V30 30 1 16 30
M  V30 31 1 17 31
M  V30 32 1 17 32
M  V30 33 1 17 33
M  V30 END BOND
M  V30 END CTAB
M  END
>  <NO.>
1765

>  <Name>
meclofenoxate

>  <SMILES>
CN(C)CCOC(=O)COc1ccc(Cl)cc1

>  <logBB>


>  <Class>
1

>  <MW>
257.08

>  <nHBAcc>
4

>  <nHBDon>
0

>  <SLogP>
1.82

>  <TopoPSA>
38.77

>  <MMFF94 Energy>
57.945

$$$$
CN(C)CCOC(C)(c1ccccc1)c1ccc(Cl)cc1
Actelion Java MolfileCreator 2.0

  0  0  0  0  0  0              0 V3000
M  V30 BEGIN CTAB
M  V30 COUNTS 43 44 0 0 0
M  V30 BEGIN ATOM
M  V30 1 Cl 4.3029 -3.1062 4.1433 0
M  V30 2 C 3.3265 -2.1228 3.1237 0
M  V30 3 C 2.918 -2.6027 1.8834 0
M  V30 4 C 2.9522 -0.8496 3.5417 0
M  V30 5 C 2.1249 -1.8033 1.0545 0
M  V30 6 C 2.1598 -0.0504 2.7123 0
M  V30 7 C 1.7221 -0.5149 1.4551 0
M  V30 8 C 0.8621 0.3861 0.5304 0 CFG=1
M  V30 9 O 0.2801 -0.4733 -0.4791 0
M  V30 10 C -0.2946 1.029 1.3181 0
M  V30 11 C 1.8447 1.382 -0.1265 0
M  V30 12 C -0.3395 0.1793 -1.5917 0
M  V30 13 C -0.3776 2.4098 1.5673 0
M  V30 14 C -1.3208 0.2069 1.8273 0
M  V30 15 C -1.2011 -0.8545 -2.3349 0
M  V30 16 C -1.4458 2.9454 2.2935 0
M  V30 17 C -2.3865 0.7431 2.5521 0
M  V30 18 N -1.9449 -0.3069 -3.4854 0
M  V30 19 C -2.4485 2.1133 2.7846 0
M  V30 20 C -2.933 -1.2853 -3.9484 0
M  V30 21 C -1.0526 0.0517 -4.5894 0
M  V30 22 H 3.2106 -3.5953 1.5524 0
M  V30 23 H 3.2702 -0.4714 4.5094 0
M  V30 24 H 1.8213 -2.1994 0.0873 0
M  V30 25 H 1.8807 0.9419 3.0619 0
M  V30 26 H 2.5715 0.8537 -0.756 0
M  V30 27 H 1.3307 2.0975 -0.7781 0
M  V30 28 H 2.4063 1.9634 0.6141 0
M  V30 29 H 0.4455 0.5601 -2.2509 0
M  V30 30 H -0.9694 1.0118 -1.2606 0
M  V30 31 H 0.3831 3.096 1.2057 0
M  V30 32 H -1.2881 -0.8679 1.6539 0
M  V30 33 H -0.5763 -1.7066 -2.6354 0
M  V30 34 H -1.9122 -1.2577 -1.6006 0
M  V30 35 H -1.4949 4.0162 2.4752 0
M  V30 36 H -3.1663 0.0889 2.9328 0
M  V30 37 H -3.278 2.5327 3.3477 0
M  V30 38 H -3.6458 -1.5212 -3.1502 0
M  V30 39 H -2.4656 -2.2189 -4.2823 0
M  V30 40 H -3.5207 -0.8767 -4.7781 0
M  V30 41 H -0.4539 -0.8001 -4.9312 0
M  V30 42 H -0.3744 0.8616 -4.3035 0
M  V30 43 H -1.6292 0.4285 -5.4421 0
M  V30 END ATOM
M  V30 BEGIN BOND
M  V30 1 1 1 2
M  V30 2 2 2 3
M  V30 3 1 2 4
M  V30 4 1 3 5
M  V30 5 2 4 6
M  V30 6 2 5 7
M  V30 7 1 7 8
M  V30 8 1 8 9
M  V30 9 1 8 10
M  V30 10 1 8 11
M  V30 11 1 9 12
M  V30 12 2 10 13
M  V30 13 1 10 14
M  V30 14 1 12 15
M  V30 15 1 13 16
M  V30 16 2 14 17
M  V30 17 1 15 18
M  V30 18 2 16 19
M  V30 19 1 18 20
M  V30 20 1 18 21
M  V30 21 1 6 7
M  V30 22 1 17 19
M  V30 23 1 3 22
M  V30 24 1 4 23
M  V30 25 1 5 24
M  V30 26 1 6 25
M  V30 27 1 11 26
M  V30 28 1 11 27
M  V30 29 1 11 28
M  V30 30 1 12 29
M  V30 31 1 12 30
M  V30 32 1 13 31
M  V30 33 1 14 32
M  V30 34 1 15 33
M  V30 35 1 15 34
M  V30 36 1 16 35
M  V30 37 1 17 36
M  V30 38 1 19 37
M  V30 39 1 20 38
M  V30 40 1 20 39
M  V30 41 1 20 40
M  V30 42 1 21 41
M  V30 43 1 21 42
M  V30 44 1 21 43
M  V30 END BOND
M  V30 BEGIN COLLECTION
M  V30 MDLV30/STERAC1 ATOMS=(1 8)
M  V30 END COLLECTION
M  V30 END CTAB
M  END
>  <NO.>
1766

>  <Name>
chlorphenoxamine

>  <SMILES>
CN(C)CCOC(C)(c1ccccc1)c1ccc(Cl)cc1

>  <logBB>


>  <Class>
1

>  <MW>
303.14

>  <nHBAcc>
2

>  <nHBDon>
0

>  <SLogP>
4.18

>  <TopoPSA>
12.47

>  <MMFF94 Energy>
92.595

$$$$
CN(C)CCOC(c1ccccc1)c1ccc(Br)cc1
Actelion Java MolfileCreator 2.0

  0  0  0  0  0  0              0 V3000
M  V30 BEGIN CTAB
M  V30 COUNTS 40 41 0 0 0
M  V30 BEGIN ATOM
M  V30 1 Br 2.1574 -5.1197 -2.2374 0
M  V30 2 C 1.3415 -3.7011 -1.2909 0
M  V30 3 C 0.5714 -2.7654 -1.9765 0
M  V30 4 C 1.5171 -3.5987 0.0874 0
M  V30 5 C -0.0292 -1.718 -1.2753 0
M  V30 6 C 0.9151 -2.5503 0.7882 0
M  V30 7 C 0.132 -1.5979 0.1158 0
M  V30 8 C -0.5172 -0.4558 0.8825 0 CFG=1
M  V30 9 O -0.0261 0.7763 0.335 0
M  V30 10 C -2.0407 -0.4981 0.834 0
M  V30 11 C 0.8941 1.4364 1.2073 0
M  V30 12 C -2.7893 0.4193 0.0792 0
M  V30 13 C -2.731 -1.4877 1.5564 0
M  V30 14 C 1.4462 2.7029 0.5288 0
M  V30 15 C -4.184 0.3531 0.0516 0
M  V30 16 C -4.1255 -1.5529 1.5273 0
M  V30 17 N 2.6461 2.4826 -0.3085 0
M  V30 18 C -4.8512 -0.6318 0.7759 0
M  V30 19 C 3.1262 3.7629 -0.8344 0
M  V30 20 C 2.3774 1.5613 -1.4153 0
M  V30 21 H 0.4325 -2.8388 -3.0515 0
M  V30 22 H 2.1205 -4.3258 0.6241 0
M  V30 23 H -0.6248 -0.9853 -1.817 0
M  V30 24 H 1.0652 -2.4812 1.8632 0
M  V30 25 H -0.2402 -0.5188 1.9446 0
M  V30 26 H 1.7084 0.7605 1.4947 0
M  V30 27 H 0.3521 1.7313 2.1138 0
M  V30 28 H -2.2879 1.1937 -0.4976 0
M  V30 29 H -2.182 -2.2209 2.1435 0
M  V30 30 H 0.6526 3.1837 -0.0577 0
M  V30 31 H 1.7316 3.3931 1.3328 0
M  V30 32 H -4.7483 1.0707 -0.5381 0
M  V30 33 H -4.6448 -2.3253 2.0885 0
M  V30 34 H -5.9364 -0.6835 0.7517 0
M  V30 35 H 3.3731 4.4482 -0.0158 0
M  V30 36 H 2.3862 4.2488 -1.4807 0
M  V30 37 H 4.0477 3.6217 -1.41 0
M  V30 38 H 1.529 1.8851 -2.0287 0
M  V30 39 H 2.1835 0.5508 -1.0452 0
M  V30 40 H 3.2553 1.4747 -2.0659 0
M  V30 END ATOM
M  V30 BEGIN BOND
M  V30 1 1 1 2
M  V30 2 2 2 3
M  V30 3 1 2 4
M  V30 4 1 3 5
M  V30 5 2 4 6
M  V30 6 2 5 7
M  V30 7 1 7 8
M  V30 8 1 8 9
M  V30 9 1 8 10
M  V30 10 1 9 11
M  V30 11 2 10 12
M  V30 12 1 10 13
M  V30 13 1 11 14
M  V30 14 1 12 15
M  V30 15 2 13 16
M  V30 16 1 14 17
M  V30 17 2 15 18
M  V30 18 1 17 19
M  V30 19 1 17 20
M  V30 20 1 6 7
M  V30 21 1 16 18
M  V30 22 1 3 21
M  V30 23 1 4 22
M  V30 24 1 5 23
M  V30 25 1 6 24
M  V30 26 1 8 25
M  V30 27 1 11 26
M  V30 28 1 11 27
M  V30 29 1 12 28
M  V30 30 1 13 29
M  V30 31 1 14 30
M  V30 32 1 14 31
M  V30 33 1 15 32
M  V30 34 1 16 33
M  V30 35 1 18 34
M  V30 36 1 19 35
M  V30 37 1 19 36
M  V30 38 1 19 37
M  V30 39 1 20 38
M  V30 40 1 20 39
M  V30 41 1 20 40
M  V30 END BOND
M  V30 BEGIN COLLECTION
M  V30 MDLV30/STERAC1 ATOMS=(1 8)
M  V30 END COLLECTION
M  V30 END CTAB
M  END
>  <NO.>
1767

>  <Name>
bromodiphenhydramine

>  <SMILES>
CN(C)CCOC(c1ccccc1)c1ccc(Br)cc1

>  <logBB>


>  <Class>
1

>  <MW>
333.07

>  <nHBAcc>
2

>  <nHBDon>
0

>  <SLogP>
4.12

>  <TopoPSA>
12.47

>  <MMFF94 Energy>
81.92

$$$$
CN(C)CCOC(c1ccccc1)c1ccccc1C(C)(C)C
Actelion Java MolfileCreator 2.0

  0  0  0  0  0  0              0 V3000
M  V30 BEGIN CTAB
M  V30 COUNTS 52 53 0 0 0
M  V30 BEGIN ATOM
M  V30 1 O 1.0999 -0.0785 0.3141 0
M  V30 2 C -0.1975 -0.4374 -0.1979 0 CFG=2
M  V30 3 C 1.6717 1.0567 -0.3459 0
M  V30 4 C -0.9673 -1.0941 0.956 0
M  V30 5 C -0.0875 -1.3438 -1.4328 0
M  V30 6 C 3.0696 1.3049 0.2399 0
M  V30 7 C -2.128 -0.5721 1.6049 0
M  V30 8 C -0.4345 -2.337 1.4008 0
M  V30 9 C -1.2197 -1.5786 -2.2312 0
M  V30 10 C 1.1166 -1.9752 -1.7912 0
M  V30 11 N 3.7422 2.5051 -0.2932 0
M  V30 12 C -2.7026 -1.3832 2.6206 0
M  V30 13 C -2.7849 0.808 1.3129 0
M  V30 14 C -1.0247 -3.0889 2.4085 0
M  V30 15 C -1.1459 -2.4007 -3.358 0
M  V30 16 C 1.1899 -2.7966 -2.9182 0
M  V30 17 C 4.1224 2.3355 -1.6972 0
M  V30 18 C 4.9339 2.8013 0.507 0
M  V30 19 C -2.1696 -2.6139 3.0129 0
M  V30 20 C -3.9993 1.1355 2.2351 0
M  V30 21 C -1.7844 1.9549 1.5693 0
M  V30 22 C -3.3532 0.8747 -0.1198 0
M  V30 23 C 0.0592 -3.0065 -3.7027 0
M  V30 24 H -0.6882 0.474 -0.5289 0
M  V30 25 H 1.041 1.9361 -0.1795 0
M  V30 26 H 1.7298 0.8626 -1.421 0
M  V30 27 H 2.9435 1.4113 1.3262 0
M  V30 28 H 3.6894 0.4083 0.1033 0
M  V30 29 H 0.4729 -2.7288 0.9429 0
M  V30 30 H -2.1765 -1.132 -1.9744 0
M  V30 31 H 2.0097 -1.8373 -1.1853 0
M  V30 32 H -3.5954 -1.0766 3.1584 0
M  V30 33 H -0.5897 -4.0359 2.7122 0
M  V30 34 H -2.0328 -2.5729 -3.9622 0
M  V30 35 H 2.1295 -3.2764 -3.1788 0
M  V30 36 H 3.2409 2.2235 -2.3358 0
M  V30 37 H 4.7746 1.4677 -1.8475 0
M  V30 38 H 4.6477 3.2255 -2.0627 0
M  V30 39 H 5.6637 1.984 0.4806 0
M  V30 40 H 4.6606 2.9877 1.5517 0
M  V30 41 H 5.423 3.7135 0.147 0
M  V30 42 H -2.65 -3.1876 3.8006 0
M  V30 43 H -3.7143 1.1495 3.2938 0
M  V30 44 H -4.4137 2.1262 2.009 0
M  V30 45 H -4.8166 0.4171 2.1011 0
M  V30 46 H -0.9363 1.95 0.8881 0
M  V30 47 H -2.2653 2.9335 1.4515 0
M  V30 48 H -1.3818 1.9039 2.5881 0
M  V30 49 H -4.0006 0.0143 -0.3257 0
M  V30 50 H -2.5873 0.9038 -0.8935 0
M  V30 51 H -3.9536 1.7812 -0.2649 0
M  V30 52 H 0.1149 -3.6487 -4.5774 0
M  V30 END ATOM
M  V30 BEGIN BOND
M  V30 1 1 1 2
M  V30 2 1 1 3
M  V30 3 1 2 4
M  V30 4 1 2 5
M  V30 5 1 3 6
M  V30 6 2 4 7
M  V30 7 1 4 8
M  V30 8 2 5 9
M  V30 9 1 5 10
M  V30 10 1 6 11
M  V30 11 1 7 12
M  V30 12 1 7 13
M  V30 13 2 8 14
M  V30 14 1 9 15
M  V30 15 2 10 16
M  V30 16 1 11 17
M  V30 17 1 11 18
M  V30 18 2 12 19
M  V30 19 1 13 20
M  V30 20 1 13 21
M  V30 21 1 13 22
M  V30 22 2 15 23
M  V30 23 1 14 19
M  V30 24 1 16 23
M  V30 25 1 2 24
M  V30 26 1 3 25
M  V30 27 1 3 26
M  V30 28 1 6 27
M  V30 29 1 6 28
M  V30 30 1 8 29
M  V30 31 1 9 30
M  V30 32 1 10 31
M  V30 33 1 12 32
M  V30 34 1 14 33
M  V30 35 1 15 34
M  V30 36 1 16 35
M  V30 37 1 17 36
M  V30 38 1 17 37
M  V30 39 1 17 38
M  V30 40 1 18 39
M  V30 41 1 18 40
M  V30 42 1 18 41
M  V30 43 1 19 42
M  V30 44 1 20 43
M  V30 45 1 20 44
M  V30 46 1 20 45
M  V30 47 1 21 46
M  V30 48 1 21 47
M  V30 49 1 21 48
M  V30 50 1 22 49
M  V30 51 1 22 50
M  V30 52 1 22 51
M  V30 53 1 23 52
M  V30 END BOND
M  V30 BEGIN COLLECTION
M  V30 MDLV30/STERAC1 ATOMS=(1 2)
M  V30 END COLLECTION
M  V30 END CTAB
M  END
>  <NO.>
1768

>  <Name>
bufenadrine

>  <SMILES>
CN(C)CCOC(c1ccccc1)c1ccccc1C(C)(C)C

>  <logBB>


>  <Class>
1

>  <MW>
311.22

>  <nHBAcc>
2

>  <nHBDon>
0

>  <SLogP>
4.65

>  <TopoPSA>
12.47

>  <MMFF94 Energy>
110.87

$$$$
CN(C)CCOC1(Cc2ccccc2)CC2CCC1(C)C2(C)C
Actelion Java MolfileCreator 2.0

  0  0  0  0  0  0              0 V3000
M  V30 BEGIN CTAB
M  V30 COUNTS 56 58 0 0 0
M  V30 BEGIN ATOM
M  V30 1 O 0.5542 -0.7126 -0.475 0
M  V30 2 C -0.5191 0.0816 0.0798 0
M  V30 3 C 1.488 -0.0929 -1.3569 0
M  V30 4 C -0.0372 0.9609 1.3314 0
M  V30 5 C -1.4349 -0.9553 0.8143 0
M  V30 6 C -1.2651 0.8881 -1.0281 0
M  V30 7 C 2.6259 -1.0802 -1.6943 0
M  V30 8 C -1.238 0.9054 2.3541 0
M  V30 9 C 1.0338 0.12 2.0935 0
M  V30 10 C 0.457 2.368 1.0242 0
M  V30 11 C -1.2478 -0.6369 2.3183 0
M  V30 12 C -2.1109 0.1421 -2.0468 0
M  V30 13 N 3.572 -1.35 -0.5901 0
M  V30 14 C -0.9464 1.4926 3.7575 0
M  V30 15 C -2.5727 1.5485 1.9313 0
M  V30 16 C 0.1998 -1.0217 2.6977 0
M  V30 17 C -1.833 -1.1629 -2.4727 0
M  V30 18 C -3.1962 0.8138 -2.6364 0
M  V30 19 C 4.4204 -0.1945 -0.2986 0
M  V30 20 C 4.4046 -2.51 -0.9135 0
M  V30 21 C -2.6298 -1.7876 -3.4361 0
M  V30 22 C -3.9922 0.1904 -3.5998 0
M  V30 23 C -3.7099 -1.1125 -3.998 0
M  V30 24 H 1.8806 0.8315 -0.9367 0
M  V30 25 H 0.9849 0.1458 -2.2992 0
M  V30 26 H -1.1524 -1.9924 0.5973 0
M  V30 27 H -2.4891 -0.8496 0.5413 0
M  V30 28 H -0.5461 1.4867 -1.6001 0
M  V30 29 H -1.9158 1.6288 -0.5576 0
M  V30 30 H 2.1482 -2.0255 -1.9837 0
M  V30 31 H 3.173 -0.71 -2.5709 0
M  V30 32 H 1.8391 -0.2583 1.4618 0
M  V30 33 H 1.5295 0.7005 2.8795 0
M  V30 34 H 0.7565 2.8894 1.9398 0
M  V30 35 H -0.3159 2.9769 0.5464 0
M  V30 36 H 1.3303 2.3623 0.3695 0
M  V30 37 H -1.9986 -1.118 2.9501 0
M  V30 38 H -1.7558 1.2376 4.4525 0
M  V30 39 H -0.0258 1.141 4.2261 0
M  V30 40 H -0.8824 2.5858 3.7122 0
M  V30 41 H -3.0568 1.088 1.0711 0
M  V30 42 H -2.4401 2.6136 1.7129 0
M  V30 43 H -3.3083 1.4713 2.7418 0
M  V30 44 H 0.3325 -1.0651 3.7839 0
M  V30 45 H 0.4902 -1.9962 2.2912 0
M  V30 46 H -0.9966 -1.7219 -2.0614 0
M  V30 47 H -3.4321 1.8356 -2.3456 0
M  V30 48 H 3.8298 0.6596 0.0458 0
M  V30 49 H 5.0062 0.1183 -1.1705 0
M  V30 50 H 5.1171 -0.4262 0.5153 0
M  V30 51 H 5.0069 -2.3477 -1.8147 0
M  V30 52 H 3.7843 -3.4001 -1.0673 0
M  V30 53 H 5.0808 -2.7435 -0.0833 0
M  V30 54 H -2.4029 -2.8042 -3.7467 0
M  V30 55 H -4.8308 0.7239 -4.0392 0
M  V30 56 H -4.3278 -1.6006 -4.7465 0
M  V30 END ATOM
M  V30 BEGIN BOND
M  V30 1 1 1 2
M  V30 2 1 1 3
M  V30 3 1 2 4
M  V30 4 1 2 5
M  V30 5 1 2 6
M  V30 6 1 3 7
M  V30 7 1 4 8
M  V30 8 1 4 9
M  V30 9 1 4 10
M  V30 10 1 5 11
M  V30 11 1 6 12
M  V30 12 1 7 13
M  V30 13 1 8 14
M  V30 14 1 8 15
M  V30 15 1 9 16
M  V30 16 2 12 17
M  V30 17 1 12 18
M  V30 18 1 13 19
M  V30 19 1 13 20
M  V30 20 1 17 21
M  V30 21 2 18 22
M  V30 22 2 21 23
M  V30 23 1 8 11
M  V30 24 1 11 16
M  V30 25 1 22 23
M  V30 26 1 3 24
M  V30 27 1 3 25
M  V30 28 1 5 26
M  V30 29 1 5 27
M  V30 30 1 6 28
M  V30 31 1 6 29
M  V30 32 1 7 30
M  V30 33 1 7 31
M  V30 34 1 9 32
M  V30 35 1 9 33
M  V30 36 1 10 34
M  V30 37 1 10 35
M  V30 38 1 10 36
M  V30 39 1 11 37
M  V30 40 1 14 38
M  V30 41 1 14 39
M  V30 42 1 14 40
M  V30 43 1 15 41
M  V30 44 1 15 42
M  V30 45 1 15 43
M  V30 46 1 16 44
M  V30 47 1 16 45
M  V30 48 1 17 46
M  V30 49 1 18 47
M  V30 50 1 19 48
M  V30 51 1 19 49
M  V30 52 1 19 50
M  V30 53 1 20 51
M  V30 54 1 20 52
M  V30 55 1 20 53
M  V30 56 1 21 54
M  V30 57 1 22 55
M  V30 58 1 23 56
M  V30 END BOND
M  V30 END CTAB
M  END
>  <NO.>
1769

>  <Name>
ramciclane

>  <SMILES>
CN(C)CCOC1(Cc2ccccc2)CC2CCC1(C)C2(C)C

>  <logBB>


>  <Class>
1

>  <MW>
315.26

>  <nHBAcc>
2

>  <nHBDon>
0

>  <SLogP>
4.39

>  <TopoPSA>
12.47

>  <MMFF94 Energy>
137.47

$$$$
CN(C)CCOC1=Cc2ccccc2Sc2ccc(Cl)cc21
Actelion Java MolfileCreator 2.0

  0  0  0  0  0  0              0 V3000
M  V30 BEGIN CTAB
M  V30 COUNTS 40 42 0 0 0
M  V30 BEGIN ATOM
M  V30 1 Cl -1.2244 -4.4131 1.8778 0
M  V30 2 C 0.0411 -3.4344 1.2451 0
M  V30 3 C -0.2306 -2.1324 0.8301 0
M  V30 4 C 1.3265 -3.9497 1.1416 0
M  V30 5 C 0.7866 -1.3088 0.307 0
M  V30 6 C 2.3473 -3.1497 0.6274 0
M  V30 7 C 0.3933 0.0317 -0.1936 0
M  V30 8 C 2.0927 -1.8279 0.2201 0
M  V30 9 O -0.761 -0.0322 -0.954 0
M  V30 10 C 1.0682 1.1635 0.089 0
M  V30 11 S 3.4965 -0.9004 -0.3881 0
M  V30 12 C -1.2464 1.1563 -1.5831 0
M  V30 13 C 2.2986 1.308 0.8869 0
M  V30 14 C 3.4377 0.5023 0.7192 0
M  V30 15 C -2.489 0.8188 -2.4288 0
M  V30 16 C 2.3548 2.3877 1.7858 0
M  V30 17 C 4.6059 0.7955 1.4408 0
M  V30 18 N -3.7697 0.8386 -1.686 0
M  V30 19 C 3.5155 2.6584 2.5122 0
M  V30 20 C 4.6431 1.8645 2.3365 0
M  V30 21 C -3.8065 -0.1779 -0.6321 0
M  V30 22 C -4.8842 0.6279 -2.6142 0
M  V30 23 H -1.2473 -1.7522 0.9049 0
M  V30 24 H 1.5432 -4.9664 1.4577 0
M  V30 25 H 3.3515 -3.5632 0.5557 0
M  V30 26 H 0.7065 2.1172 -0.2837 0
M  V30 27 H -0.4707 1.5433 -2.2552 0
M  V30 28 H -1.4924 1.9205 -0.836 0
M  V30 29 H -2.5529 1.5863 -3.2107 0
M  V30 30 H -2.3491 -0.1505 -2.9245 0
M  V30 31 H 1.4884 3.0313 1.9267 0
M  V30 32 H 5.4972 0.1842 1.3155 0
M  V30 33 H 3.5397 3.4943 3.207 0
M  V30 34 H 5.552 2.0753 2.8942 0
M  V30 35 H -3.0854 0.0499 0.1587 0
M  V30 36 H -3.6039 -1.1834 -1.0178 0
M  V30 37 H -4.788 -0.191 -0.1439 0
M  V30 38 H -4.8294 -0.3469 -3.1122 0
M  V30 39 H -4.8993 1.4087 -3.3828 0
M  V30 40 H -5.8426 0.6929 -2.0866 0
M  V30 END ATOM
M  V30 BEGIN BOND
M  V30 1 1 1 2
M  V30 2 2 2 3
M  V30 3 1 2 4
M  V30 4 1 3 5
M  V30 5 2 4 6
M  V30 6 1 5 7
M  V30 7 2 5 8
M  V30 8 1 7 9
M  V30 9 2 7 10
M  V30 10 1 8 11
M  V30 11 1 9 12
M  V30 12 1 10 13
M  V30 13 1 11 14
M  V30 14 1 12 15
M  V30 15 1 13 16
M  V30 16 1 14 17
M  V30 17 1 15 18
M  V30 18 2 16 19
M  V30 19 2 17 20
M  V30 20 1 18 21
M  V30 21 1 18 22
M  V30 22 1 6 8
M  V30 23 2 13 14
M  V30 24 1 19 20
M  V30 25 1 3 23
M  V30 26 1 4 24
M  V30 27 1 6 25
M  V30 28 1 10 26
M  V30 29 1 12 27
M  V30 30 1 12 28
M  V30 31 1 15 29
M  V30 32 1 15 30
M  V30 33 1 16 31
M  V30 34 1 17 32
M  V30 35 1 19 33
M  V30 36 1 20 34
M  V30 37 1 21 35
M  V30 38 1 21 36
M  V30 39 1 21 37
M  V30 40 1 22 38
M  V30 41 1 22 39
M  V30 42 1 22 40
M  V30 END BOND
M  V30 END CTAB
M  END
>  <NO.>
1770

>  <Name>
zotepine

>  <SMILES>
CN(C)CCOC1=Cc2ccccc2Sc2ccc(Cl)cc21

>  <logBB>


>  <Class>
1

>  <MW>
331.08

>  <nHBAcc>
3

>  <nHBDon>
0

>  <SLogP>
4.88

>  <TopoPSA>
12.47

>  <MMFF94 Energy>
86.991

$$$$
CN(C)CCON=C1c2ccccc2CCc2ccccc21
Actelion Java MolfileCreator 2.0

  0  0  0  0  0  0              0 V3000
M  V30 BEGIN CTAB
M  V30 COUNTS 44 46 0 0 0
M  V30 BEGIN ATOM
M  V30 1 O 1.1914 -0.6353 -0.7942 0
M  V30 2 N 0.0484 -1.3878 -0.4874 0
M  V30 3 C 2.3108 -1.5173 -0.8578 0
M  V30 4 C -1.0052 -0.6437 -0.3001 0
M  V30 5 C 3.5636 -0.7501 -1.3122 0
M  V30 6 C -2.2408 -1.3362 0.1286 0
M  V30 7 C -1.092 0.835 -0.4972 0
M  V30 8 N 4.0288 0.3284 -0.4129 0
M  V30 9 C -2.7688 -1.0718 1.3972 0
M  V30 10 C -2.8284 -2.2785 -0.7187 0
M  V30 11 C -1.6579 1.7183 0.4421 0
M  V30 12 C -0.6369 1.3277 -1.7345 0
M  V30 13 C 5.1417 1.0525 -1.0283 0
M  V30 14 C 4.4207 -0.1757 0.9021 0
M  V30 15 C -3.9291 -1.7447 1.7976 0
M  V30 16 C -2.0761 -0.0875 2.2975 0
M  V30 17 C -3.9828 -2.943 -0.3086 0
M  V30 18 C -1.7228 3.0891 0.1075 0
M  V30 19 C -2.2336 1.3444 1.7925 0
M  V30 20 C -0.7079 2.6857 -2.0389 0
M  V30 21 C -4.5339 -2.6729 0.9453 0
M  V30 22 C -1.25 3.5682 -1.1147 0
M  V30 23 H 2.0978 -2.3026 -1.5937 0
M  V30 24 H 2.4603 -1.9988 0.1142 0
M  V30 25 H 4.3731 -1.4721 -1.4802 0
M  V30 26 H 3.3236 -0.297 -2.2831 0
M  V30 27 H -2.3872 -2.4924 -1.6883 0
M  V30 28 H -0.2209 0.6437 -2.4713 0
M  V30 29 H 4.8382 1.4846 -1.9885 0
M  V30 30 H 6.0107 0.4067 -1.1989 0
M  V30 31 H 5.4538 1.891 -0.3954 0
M  V30 32 H 5.1995 -0.9436 0.8344 0
M  V30 33 H 3.5629 -0.5929 1.4385 0
M  V30 34 H 4.7985 0.6393 1.5304 0
M  V30 35 H -4.3664 -1.5586 2.7758 0
M  V30 36 H -2.4974 -0.1535 3.3088 0
M  V30 37 H -1.0167 -0.3553 2.3992 0
M  V30 38 H -4.4495 -3.6748 -0.9625 0
M  V30 39 H -2.152 3.8001 0.8123 0
M  V30 40 H -3.3045 1.5907 1.7713 0
M  V30 41 H -1.7709 2.0012 2.5417 0
M  V30 42 H -0.3401 3.0485 -2.9946 0
M  V30 43 H -5.4329 -3.1948 1.2644 0
M  V30 44 H -1.309 4.6291 -1.3432 0
M  V30 END ATOM
M  V30 BEGIN BOND
M  V30 1 1 1 2
M  V30 2 1 1 3
M  V30 3 2 2 4
M  V30 4 1 3 5
M  V30 5 1 4 6
M  V30 6 1 4 7
M  V30 7 1 5 8
M  V30 8 2 6 9
M  V30 9 1 6 10
M  V30 10 2 7 11
M  V30 11 1 7 12
M  V30 12 1 8 13
M  V30 13 1 8 14
M  V30 14 1 9 15
M  V30 15 1 9 16
M  V30 16 2 10 17
M  V30 17 1 11 18
M  V30 18 1 11 19
M  V30 19 2 12 20
M  V30 20 2 15 21
M  V30 21 2 18 22
M  V30 22 1 16 19
M  V30 23 1 17 21
M  V30 24 1 20 22
M  V30 25 1 3 23
M  V30 26 1 3 24
M  V30 27 1 5 25
M  V30 28 1 5 26
M  V30 29 1 10 27
M  V30 30 1 12 28
M  V30 31 1 13 29
M  V30 32 1 13 30
M  V30 33 1 13 31
M  V30 34 1 14 32
M  V30 35 1 14 33
M  V30 36 1 14 34
M  V30 37 1 15 35
M  V30 38 1 16 36
M  V30 39 1 16 37
M  V30 40 1 17 38
M  V30 41 1 18 39
M  V30 42 1 19 40
M  V30 43 1 19 41
M  V30 44 1 20 42
M  V30 45 1 21 43
M  V30 46 1 22 44
M  V30 END BOND
M  V30 END CTAB
M  END
>  <NO.>
1771

>  <Name>
noxiptiline

>  <SMILES>
CN(C)CCON=C1c2ccccc2CCc2ccccc21

>  <logBB>


>  <Class>
1

>  <MW>
294.17

>  <nHBAcc>
3

>  <nHBDon>
0

>  <SLogP>
3.12

>  <TopoPSA>
24.83

>  <MMFF94 Energy>
123.79

$$$$
CN(C)CC[C@]1(c2ccccc2)CCc2ccccc2C1=O
Actelion Java MolfileCreator 2.0

  0  0  0  0  0  0              0 V3000
M  V30 BEGIN CTAB
M  V30 COUNTS 45 47 0 0 0
M  V30 BEGIN ATOM
M  V30 1 O 2.3093 0.8754 -1.0347 0
M  V30 2 C 1.1331 1.1329 -0.7752 0
M  V30 3 C 0.662 2.5365 -0.9372 0
M  V30 4 C 0.1338 0.0715 -0.2407 0 CFG=1
M  V30 5 C -0.7017 2.8473 -0.8787 0
M  V30 6 C 1.606 3.5481 -1.1633 0
M  V30 7 C 0.1078 0.088 1.3024 0
M  V30 8 C -1.2226 0.3835 -0.9283 0
M  V30 9 C 0.6519 -1.3252 -0.7291 0
M  V30 10 C -1.101 4.186 -1.0176 0
M  V30 11 C -1.7411 1.7926 -0.6385 0
M  V30 12 C 1.1957 4.8725 -1.3119 0
M  V30 13 C 1.3047 0.25 2.0276 0
M  V30 14 C -1.0711 -0.1119 2.0426 0
M  V30 15 C -0.2684 -2.5214 -0.426 0
M  V30 16 C -0.1574 5.1912 -1.2354 0
M  V30 17 C 1.3158 0.2531 3.4249 0
M  V30 18 C -1.0601 -0.1085 3.4413 0
M  V30 19 N 0.3264 -3.8172 -0.8072 0
M  V30 20 C 0.1318 0.0793 4.1322 0
M  V30 21 C 0.4569 -3.9676 -2.2574 0
M  V30 22 C -0.4764 -4.917 -0.2658 0
M  V30 23 H 2.666 3.3073 -1.2188 0
M  V30 24 H -1.0988 0.2838 -2.0168 0
M  V30 25 H -2.0007 -0.335 -0.6499 0
M  V30 26 H 0.8154 -1.2629 -1.813 0
M  V30 27 H 1.6384 -1.528 -0.2885 0
M  V30 28 H -2.1544 4.4536 -0.9587 0
M  V30 29 H -2.0922 1.8779 0.3952 0
M  V30 30 H -2.6067 1.9778 -1.287 0
M  V30 31 H 1.9325 5.6533 -1.4829 0
M  V30 32 H 2.2578 0.3649 1.5121 0
M  V30 33 H -2.0248 -0.2879 1.5535 0
M  V30 34 H -0.4589 -2.54 0.6527 0
M  V30 35 H -1.2375 -2.3986 -0.9232 0
M  V30 36 H -0.479 6.2242 -1.3451 0
M  V30 37 H 2.2548 0.3836 3.957 0
M  V30 38 H -1.9854 -0.2613 3.9912 0
M  V30 39 H 0.1408 0.0782 5.2187 0
M  V30 40 H 1.1637 -3.2424 -2.6716 0
M  V30 41 H -0.5037 -3.8535 -2.7724 0
M  V30 42 H 0.8625 -4.9551 -2.5066 0
M  V30 43 H -1.4985 -4.9157 -0.6621 0
M  V30 44 H -0.529 -4.856 0.827 0
M  V30 45 H -0.0158 -5.8833 -0.5001 0
M  V30 END ATOM
M  V30 BEGIN BOND
M  V30 1 2 1 2
M  V30 2 1 2 3
M  V30 3 1 2 4
M  V30 4 2 3 5
M  V30 5 1 3 6
M  V30 6 1 4 7
M  V30 7 1 4 8
M  V30 8 1 4 9
M  V30 9 1 5 10
M  V30 10 1 5 11
M  V30 11 2 6 12
M  V30 12 2 7 13
M  V30 13 1 7 14
M  V30 14 1 9 15
M  V30 15 2 10 16
M  V30 16 1 13 17
M  V30 17 2 14 18
M  V30 18 1 15 19
M  V30 19 2 17 20
M  V30 20 1 19 21
M  V30 21 1 19 22
M  V30 22 1 8 11
M  V30 23 1 12 16
M  V30 24 1 18 20
M  V30 25 1 6 23
M  V30 26 1 8 24
M  V30 27 1 8 25
M  V30 28 1 9 26
M  V30 29 1 9 27
M  V30 30 1 10 28
M  V30 31 1 11 29
M  V30 32 1 11 30
M  V30 33 1 12 31
M  V30 34 1 13 32
M  V30 35 1 14 33
M  V30 36 1 15 34
M  V30 37 1 15 35
M  V30 38 1 16 36
M  V30 39 1 17 37
M  V30 40 1 18 38
M  V30 41 1 20 39
M  V30 42 1 21 40
M  V30 43 1 21 41
M  V30 44 1 21 42
M  V30 45 1 22 43
M  V30 46 1 22 44
M  V30 47 1 22 45
M  V30 END BOND
M  V30 BEGIN COLLECTION
M  V30 MDLV30/STEABS ATOMS=(1 4)
M  V30 END COLLECTION
M  V30 END CTAB
M  END
>  <NO.>
1772

>  <Name>
dexnafenodone

>  <SMILES>
CN(C)CC[C@]1(c2ccccc2)CCc2ccccc2C1=O

>  <logBB>


>  <Class>
1

>  <MW>
293.18

>  <nHBAcc>
2

>  <nHBDon>
0

>  <SLogP>
3.71

>  <TopoPSA>
20.31

>  <MMFF94 Energy>
86.282

$$$$
CN(C)CCc1c[nH]c2cccc(OP(=O)(O)O)c12
Actelion Java MolfileCreator 2.0

  0  0  0  0  0  0              0 V3000
M  V30 BEGIN CTAB
M  V30 COUNTS 36 37 0 0 0
M  V30 BEGIN ATOM
M  V30 1 P -3.3626 0.8798 0.0 0
M  V30 2 O -3.272 1.5523 -1.3276 0
M  V30 3 O -2.1389 -0.0417 0.4725 0
M  V30 4 O -3.5126 1.9495 1.1827 0
M  V30 5 O -4.6991 0.0231 0.1928 0
M  V30 6 C -1.7156 -1.0741 -0.328 0
M  V30 7 C -0.468 -1.006 -0.9875 0
M  V30 8 C -2.5115 -2.2189 -0.446 0
M  V30 9 C -0.0878 -2.0957 -1.7757 0
M  V30 10 C 0.5904 -0.0376 -1.0638 0
M  V30 11 C -2.0983 -3.285 -1.2402 0
M  V30 12 N 1.1421 -1.7996 -2.3138 0
M  V30 13 C -0.8806 -3.2413 -1.9244 0
M  V30 14 C 1.5569 -0.5658 -1.8981 0
M  V30 15 C 0.6547 1.2943 -0.3809 0
M  V30 16 C 1.1289 1.2198 1.0843 0
M  V30 17 N 2.5406 0.8271 1.2782 0
M  V30 18 C 2.7941 0.5475 2.693 0
M  V30 19 C 3.4699 1.848 0.7959 0
M  V30 20 H -2.9517 2.7272 1.0122 0
M  V30 21 H -5.4559 0.4788 -0.2155 0
M  V30 22 H -3.4557 -2.2849 0.0886 0
M  V30 23 H -2.7293 -4.1667 -1.3256 0
M  V30 24 H 1.6645 -2.4141 -2.9218 0
M  V30 25 H -0.5603 -4.0753 -2.5406 0
M  V30 26 H 2.5124 -0.1687 -2.2137 0
M  V30 27 H -0.3449 1.7459 -0.3967 0
M  V30 28 H 1.2838 1.9799 -0.9601 0
M  V30 29 H 0.9486 2.194 1.5588 0
M  V30 30 H 0.4852 0.4986 1.6054 0
M  V30 31 H 2.1486 -0.2635 3.0485 0
M  V30 32 H 2.6244 1.4271 3.3247 0
M  V30 33 H 3.826 0.2097 2.841 0
M  V30 34 H 3.3122 2.8155 1.2863 0
M  V30 35 H 3.3826 1.9878 -0.2856 0
M  V30 36 H 4.5064 1.5396 0.9757 0
M  V30 END ATOM
M  V30 BEGIN BOND
M  V30 1 2 1 2
M  V30 2 1 1 3
M  V30 3 1 1 4
M  V30 4 1 1 5
M  V30 5 1 3 6
M  V30 6 2 6 7
M  V30 7 1 6 8
M  V30 8 1 7 9
M  V30 9 1 7 10
M  V30 10 2 8 11
M  V30 11 1 9 12
M  V30 12 2 9 13
M  V30 13 2 10 14
M  V30 14 1 10 15
M  V30 15 1 15 16
M  V30 16 1 16 17
M  V30 17 1 17 18
M  V30 18 1 17 19
M  V30 19 1 11 13
M  V30 20 1 12 14
M  V30 21 1 4 20
M  V30 22 1 5 21
M  V30 23 1 8 22
M  V30 24 1 11 23
M  V30 25 1 12 24
M  V30 26 1 13 25
M  V30 27 1 14 26
M  V30 28 1 15 27
M  V30 29 1 15 28
M  V30 30 1 16 29
M  V30 31 1 16 30
M  V30 32 1 18 31
M  V30 33 1 18 32
M  V30 34 1 18 33
M  V30 35 1 19 34
M  V30 36 1 19 35
M  V30 37 1 19 36
M  V30 END BOND
M  V30 END CTAB
M  END
>  <NO.>
1773

>  <Name>
psilocybine

>  <SMILES>
CN(C)CCc1c[nH]c2cccc(OP(=O)(O)O)c12

>  <logBB>


>  <Class>
1

>  <MW>
284.09

>  <nHBAcc>
3

>  <nHBDon>
3

>  <SLogP>
1.74

>  <TopoPSA>
85.79

>  <MMFF94 Energy>
-111.26

$$$$
CN(C)CCc1ccccn1
Actelion Java MolfileCreator 2.0

  0  0  0  0  0  0              0 V3000
M  V30 BEGIN CTAB
M  V30 COUNTS 25 25 0 0 0
M  V30 BEGIN ATOM
M  V30 1 N -0.1551 1.5522 -1.6299 0
M  V30 2 C -0.7576 1.1925 -0.4699 0
M  V30 3 C -0.9446 2.0277 -2.618 0
M  V30 4 C -2.1348 1.2874 -0.282 0
M  V30 5 C 0.1292 0.6491 0.6222 0
M  V30 6 C -2.3185 2.1586 -2.5116 0
M  V30 7 C -2.9222 1.7792 -1.3193 0
M  V30 8 C 0.4434 -0.8343 0.382 0
M  V30 9 N 1.1694 -1.4703 1.5029 0
M  V30 10 C 2.5282 -0.9388 1.6383 0
M  V30 11 C 1.2293 -2.9203 1.2941 0
M  V30 12 H -0.4248 2.3098 -3.5289 0
M  V30 13 H -2.5915 0.984 0.6547 0
M  V30 14 H -0.3538 0.7863 1.5976 0
M  V30 15 H 1.049 1.245 0.6397 0
M  V30 16 H -2.9034 2.5463 -3.3377 0
M  V30 17 H -3.9981 1.8649 -1.1968 0
M  V30 18 H -0.5121 -1.3597 0.2472 0
M  V30 19 H 0.9987 -0.956 -0.558 0
M  V30 20 H 2.5138 0.1209 1.911 0
M  V30 21 H 3.1121 -1.0553 0.7182 0
M  V30 22 H 3.0611 -1.4501 2.4485 0
M  V30 23 H 1.7623 -3.1844 0.3735 0
M  V30 24 H 0.2203 -3.3447 1.2439 0
M  V30 25 H 1.7304 -3.4104 2.1366 0
M  V30 END ATOM
M  V30 BEGIN BOND
M  V30 1 2 1 2
M  V30 2 1 1 3
M  V30 3 1 2 4
M  V30 4 1 2 5
M  V30 5 2 3 6
M  V30 6 2 4 7
M  V30 7 1 5 8
M  V30 8 1 8 9
M  V30 9 1 9 10
M  V30 10 1 9 11
M  V30 11 1 6 7
M  V30 12 1 3 12
M  V30 13 1 4 13
M  V30 14 1 5 14
M  V30 15 1 5 15
M  V30 16 1 6 16
M  V30 17 1 7 17
M  V30 18 1 8 18
M  V30 19 1 8 19
M  V30 20 1 10 20
M  V30 21 1 10 21
M  V30 22 1 10 22
M  V30 23 1 11 23
M  V30 24 1 11 24
M  V30 25 1 11 25
M  V30 END BOND
M  V30 END CTAB
M  END
>  <NO.>
1774

>  <Name>
6304-27-4

>  <SMILES>
CN(C)CCc1ccccn1

>  <logBB>


>  <Class>
1

>  <MW>
150.12

>  <nHBAcc>
2

>  <nHBDon>
0

>  <SLogP>
1.19

>  <TopoPSA>
16.13

>  <MMFF94 Energy>
32.098

$$$$
CN(C)Cc1nnc2n1-c1ccc(Cl)cc1C(c1ccccc1)=NC2
Actelion Java MolfileCreator 2.0

  0  0  0  0  0  0              0 V3000
M  V30 BEGIN CTAB
M  V30 COUNTS 43 46 0 0 0
M  V30 BEGIN ATOM
M  V30 1 Cl -3.3979 2.75 -2.4261 0
M  V30 2 C -2.6153 1.8603 -1.1794 0
M  V30 3 C -1.2762 2.1128 -0.8868 0
M  V30 4 C -3.3295 0.9025 -0.4634 0
M  V30 5 C -0.6278 1.3856 0.1237 0
M  V30 6 C -2.7023 0.1862 0.5571 0
M  V30 7 C 0.8117 1.6948 0.3984 0
M  V30 8 C -1.3488 0.4176 0.8421 0
M  V30 9 N 1.312 1.8816 1.5755 0
M  V30 10 C 1.7453 1.7973 -0.7676 0
M  V30 11 N -0.7448 -0.2732 1.9119 0
M  V30 12 C 0.4869 1.7163 2.7733 0
M  V30 13 C 1.6152 0.9473 -1.8738 0
M  V30 14 C 2.7836 2.7349 -0.7295 0
M  V30 15 C 0.0376 0.3084 2.8802 0
M  V30 16 C -0.7821 -1.6136 2.2389 0
M  V30 17 C 2.5014 1.0605 -2.9467 0
M  V30 18 C 3.6668 2.8439 -1.8045 0
M  V30 19 N 0.3117 -0.5747 3.8162 0
M  V30 20 N -0.2038 -1.7816 3.4143 0
M  V30 21 C -1.318 -2.7083 1.3751 0
M  V30 22 C 3.5223 2.0104 -2.9133 0
M  V30 23 N -0.7948 -2.6735 -0.0075 0
M  V30 24 C -1.5306 -3.6286 -0.8395 0
M  V30 25 C 0.6371 -2.9999 -0.0352 0
M  V30 26 H -0.7453 2.8829 -1.4423 0
M  V30 27 H -4.3784 0.7197 -0.6849 0
M  V30 28 H -3.2916 -0.5246 1.1309 0
M  V30 29 H -0.3578 2.415 2.7744 0
M  V30 30 H 1.0986 1.9676 3.6468 0
M  V30 31 H 0.8445 0.1816 -1.9075 0
M  V30 32 H 2.9084 3.3804 0.137 0
M  V30 33 H 2.4023 0.4012 -3.8055 0
M  V30 34 H 4.4714 3.5742 -1.7726 0
M  V30 35 H -1.0959 -3.6773 1.8421 0
M  V30 36 H -2.4111 -2.622 1.3654 0
M  V30 37 H 4.2146 2.0937 -3.7476 0
M  V30 38 H -2.5954 -3.3715 -0.869 0
M  V30 39 H -1.433 -4.6579 -0.4759 0
M  V30 40 H -1.1732 -3.5918 -1.8746 0
M  V30 41 H 0.8442 -3.9917 0.3826 0
M  V30 42 H 1.225 -2.2601 0.5183 0
M  V30 43 H 1.0117 -2.9765 -1.0649 0
M  V30 END ATOM
M  V30 BEGIN BOND
M  V30 1 1 1 2
M  V30 2 2 2 3
M  V30 3 1 2 4
M  V30 4 1 3 5
M  V30 5 2 4 6
M  V30 6 1 5 7
M  V30 7 2 5 8
M  V30 8 2 7 9
M  V30 9 1 7 10
M  V30 10 1 8 11
M  V30 11 1 9 12
M  V30 12 2 10 13
M  V30 13 1 10 14
M  V30 14 1 11 15
M  V30 15 1 11 16
M  V30 16 1 13 17
M  V30 17 2 14 18
M  V30 18 2 15 19
M  V30 19 2 16 20
M  V30 20 1 16 21
M  V30 21 2 17 22
M  V30 22 1 21 23
M  V30 23 1 23 24
M  V30 24 1 23 25
M  V30 25 1 6 8
M  V30 26 1 12 15
M  V30 27 1 18 22
M  V30 28 1 19 20
M  V30 29 1 3 26
M  V30 30 1 4 27
M  V30 31 1 6 28
M  V30 32 1 12 29
M  V30 33 1 12 30
M  V30 34 1 13 31
M  V30 35 1 14 32
M  V30 36 1 17 33
M  V30 37 1 18 34
M  V30 38 1 21 35
M  V30 39 1 21 36
M  V30 40 1 22 37
M  V30 41 1 24 38
M  V30 42 1 24 39
M  V30 43 1 24 40
M  V30 44 1 25 41
M  V30 45 1 25 42
M  V30 46 1 25 43
M  V30 END BOND
M  V30 END CTAB
M  END
>  <NO.>
1777

>  <Name>
adinazolam

>  <SMILES>
CN(C)Cc1nnc2n1-c1ccc(Cl)cc1C(c1ccccc1)=NC2

>  <logBB>


>  <Class>
1

>  <MW>
351.13

>  <nHBAcc>
4

>  <nHBDon>
0

>  <SLogP>
3.33

>  <TopoPSA>
46.31

>  <MMFF94 Energy>
96.123

$$$$
CN(C)S(=O)(=O)c1ccc2c(c1)N(CCCN1CCC(CCO)CC1)c1ccccc1S2
Actelion Java MolfileCreator 2.0

  0  0  0  0  0  0              0 V3000
M  V30 BEGIN CTAB
M  V30 COUNTS 65 68 0 0 0
M  V30 BEGIN ATOM
M  V30 1 S 3.4874 -4.381 0.7291 0
M  V30 2 O 3.3192 -5.7111 1.2747 0
M  V30 3 O 4.7542 -3.6873 0.8272 0
M  V30 4 N 3.0214 -4.4112 -0.9075 0
M  V30 5 C 2.2501 -3.3391 1.4756 0
M  V30 6 C 1.7859 -5.1416 -1.2372 0
M  V30 7 C 3.1802 -3.1631 -1.673 0
M  V30 8 C 2.4727 -1.9585 1.565 0
M  V30 9 C 1.1016 -3.909 2.0128 0
M  V30 10 C 1.5172 -1.0944 2.1342 0
M  V30 11 C 0.1638 -3.0809 2.6212 0
M  V30 12 N 1.7228 0.3091 2.1775 0
M  V30 13 C 0.3667 -1.6896 2.6938 0
M  V30 14 C 1.0745 1.1898 3.0869 0
M  V30 15 C 2.3997 0.936 1.0148 0
M  V30 16 S -0.9093 -0.7537 3.5096 0
M  V30 17 C -0.1149 0.8222 3.7472 0
M  V30 18 C 1.6055 2.4621 3.3863 0
M  V30 19 C 1.4212 1.6389 0.0598 0
M  V30 20 C -0.7559 1.717 4.6229 0
M  V30 21 C 0.9687 3.3443 4.2656 0
M  V30 22 C 0.4139 0.6677 -0.5693 0
M  V30 23 C -0.2181 2.9743 4.8796 0
M  V30 24 N -0.3168 1.2515 -1.7118 0
M  V30 25 C -1.2147 2.3417 -1.2853 0
M  V30 26 C -1.0758 0.1951 -2.4035 0
M  V30 27 C -1.9543 2.9453 -2.4819 0
M  V30 28 C -1.8355 0.7387 -3.6172 0
M  V30 29 C -2.7718 1.9025 -3.253 0
M  V30 30 C -4.0271 1.3841 -2.5123 0
M  V30 31 C -5.0697 2.4578 -2.2128 0
M  V30 32 O -4.6975 3.1932 -1.0566 0
M  V30 33 H 1.7458 -6.1062 -0.7244 0
M  V30 34 H 0.9004 -4.5537 -0.9797 0
M  V30 35 H 1.7602 -5.3529 -2.3113 0
M  V30 36 H 4.1443 -2.6903 -1.4674 0
M  V30 37 H 2.3738 -2.4589 -1.4499 0
M  V30 38 H 3.1587 -3.3851 -2.745 0
M  V30 39 H 3.4261 -1.5731 1.2136 0
M  V30 40 H 0.9377 -4.9835 1.9806 0
M  V30 41 H -0.729 -3.5278 3.0554 0
M  V30 42 H 2.9703 0.2209 0.4151 0
M  V30 43 H 3.1606 1.6487 1.3514 0
M  V30 44 H 2.5465 2.7922 2.9581 0
M  V30 45 H 2.0118 2.1127 -0.7347 0
M  V30 46 H 0.8973 2.4448 0.5838 0
M  V30 47 H -1.6825 1.4322 5.1173 0
M  V30 48 H 1.4087 4.3168 4.4711 0
M  V30 49 H 0.9749 -0.2046 -0.9281 0
M  V30 50 H -0.2928 0.3077 0.1878 0
M  V30 51 H -0.7194 3.6545 5.5627 0
M  V30 52 H -0.6345 3.1511 -0.8295 0
M  V30 53 H -1.9298 1.9918 -0.5307 0
M  V30 54 H -0.3823 -0.5747 -2.7641 0
M  V30 55 H -1.7713 -0.3014 -1.7153 0
M  V30 56 H -2.5789 3.7819 -2.1557 0
M  V30 57 H -1.2134 3.3836 -3.165 0
M  V30 58 H -2.3998 -0.0723 -4.0925 0
M  V30 59 H -1.1087 1.0877 -4.363 0
M  V30 60 H -3.1143 2.3636 -4.1889 0
M  V30 61 H -4.5017 0.6273 -3.1495 0
M  V30 62 H -3.745 0.8865 -1.5782 0
M  V30 63 H -5.192 3.1457 -3.0553 0
M  V30 64 H -6.0348 1.9841 -2.0057 0
M  V30 65 H -5.4011 3.8448 -0.8938 0
M  V30 END ATOM
M  V30 BEGIN BOND
M  V30 1 2 1 2
M  V30 2 2 1 3
M  V30 3 1 1 4
M  V30 4 1 1 5
M  V30 5 1 4 6
M  V30 6 1 4 7
M  V30 7 2 5 8
M  V30 8 1 5 9
M  V30 9 1 8 10
M  V30 10 2 9 11
M  V30 11 1 10 12
M  V30 12 2 10 13
M  V30 13 1 12 14
M  V30 14 1 12 15
M  V30 15 1 13 16
M  V30 16 2 14 17
M  V30 17 1 14 18
M  V30 18 1 15 19
M  V30 19 1 17 20
M  V30 20 2 18 21
M  V30 21 1 19 22
M  V30 22 2 20 23
M  V30 23 1 22 24
M  V30 24 1 24 25
M  V30 25 1 24 26
M  V30 26 1 25 27
M  V30 27 1 26 28
M  V30 28 1 27 29
M  V30 29 1 29 30
M  V30 30 1 30 31
M  V30 31 1 31 32
M  V30 32 1 11 13
M  V30 33 1 16 17
M  V30 34 1 21 23
M  V30 35 1 28 29
M  V30 36 1 6 33
M  V30 37 1 6 34
M  V30 38 1 6 35
M  V30 39 1 7 36
M  V30 40 1 7 37
M  V30 41 1 7 38
M  V30 42 1 8 39
M  V30 43 1 9 40
M  V30 44 1 11 41
M  V30 45 1 15 42
M  V30 46 1 15 43
M  V30 47 1 18 44
M  V30 48 1 19 45
M  V30 49 1 19 46
M  V30 50 1 20 47
M  V30 51 1 21 48
M  V30 52 1 22 49
M  V30 53 1 22 50
M  V30 54 1 23 51
M  V30 55 1 25 52
M  V30 56 1 25 53
M  V30 57 1 26 54
M  V30 58 1 26 55
M  V30 59 1 27 56
M  V30 60 1 27 57
M  V30 61 1 28 58
M  V30 62 1 28 59
M  V30 63 1 29 60
M  V30 64 1 30 61
M  V30 65 1 30 62
M  V30 66 1 31 63
M  V30 67 1 31 64
M  V30 68 1 32 65
M  V30 END BOND
M  V30 END CTAB
M  END
>  <NO.>
1778

>  <Name>
pipotiazine

>  <SMILES>
CN(C)S(=O)(=O)c1ccc2c(c1)N(CCCN1CCC(CCO)CC1)c1ccccc1S2

>  <logBB>


>  <Class>
1

>  <MW>
475.2

>  <nHBAcc>
6

>  <nHBDon>
1

>  <SLogP>
4.02

>  <TopoPSA>
64.09

>  <MMFF94 Energy>
30.12

$$$$
CN(C)[C@@H](CCOc1cccc2ccccc12)c1ccccc1
Actelion Java MolfileCreator 2.0

  0  0  0  0  0  0              0 V3000
M  V30 BEGIN CTAB
M  V30 COUNTS 46 48 0 0 0
M  V30 BEGIN ATOM
M  V30 1 O 0.1582 0.7122 -1.9795 0
M  V30 2 C -0.9079 0.1034 -2.5988 0
M  V30 3 C -0.0888 0.8236 -0.5676 0
M  V30 4 C -0.8542 -1.2708 -2.9169 0
M  V30 5 C -2.0036 0.8926 -2.9549 0
M  V30 6 C 1.1981 1.332 0.0876 0
M  V30 7 C -1.9649 -1.8516 -3.5735 0
M  V30 8 C 0.2519 -2.0901 -2.6081 0
M  V30 9 C -3.0895 0.3123 -3.6016 0
M  V30 10 C 1.0382 1.6631 1.5946 0 CFG=2
M  V30 11 C -3.0722 -1.0506 -3.9035 0
M  V30 12 C -1.943 -3.2202 -3.8905 0
M  V30 13 C 0.2582 -3.4478 -2.9309 0
M  V30 14 N 2.2934 2.1689 2.2244 0
M  V30 15 C 0.5139 0.4291 2.3332 0
M  V30 16 C -0.8396 -4.0126 -3.5704 0
M  V30 17 C 2.9128 3.2628 1.4719 0
M  V30 18 C 2.0492 2.6242 3.6016 0
M  V30 19 C 1.3094 -0.7193 2.481 0
M  V30 20 C -0.7851 0.4229 2.8671 0
M  V30 21 C 0.8156 -1.8466 3.1383 0
M  V30 22 C -1.2766 -0.7068 3.5238 0
M  V30 23 C -0.4774 -1.8406 3.6575 0
M  V30 24 H -0.3696 -0.1548 -0.1605 0
M  V30 25 H -0.9019 1.5387 -0.3917 0
M  V30 26 H -2.006 1.9555 -2.7329 0
M  V30 27 H 1.5045 2.2268 -0.4677 0
M  V30 28 H 1.9969 0.5959 -0.073 0
M  V30 29 H 1.1213 -1.6648 -2.1107 0
M  V30 30 H -3.9476 0.9194 -3.8776 0
M  V30 31 H 0.2824 2.4591 1.6652 0
M  V30 32 H -3.9308 -1.4854 -4.4111 0
M  V30 33 H -2.7898 -3.6809 -4.3945 0
M  V30 34 H 1.1211 -4.0599 -2.6827 0
M  V30 35 H -0.8378 -5.0694 -3.8236 0
M  V30 36 H 2.2132 4.0866 1.2903 0
M  V30 37 H 3.309 2.9112 0.5143 0
M  V30 38 H 3.7791 3.665 2.0109 0
M  V30 39 H 1.3157 3.438 3.6404 0
M  V30 40 H 1.7001 1.8103 4.2449 0
M  V30 41 H 2.9798 2.9816 4.0583 0
M  V30 42 H 2.3244 -0.7304 2.0887 0
M  V30 43 H -1.4242 1.2978 2.7736 0
M  V30 44 H 1.4421 -2.7278 3.2469 0
M  V30 45 H -2.2841 -0.7029 3.9316 0
M  V30 46 H -0.8611 -2.7193 4.1691 0
M  V30 END ATOM
M  V30 BEGIN BOND
M  V30 1 1 1 2
M  V30 2 1 1 3
M  V30 3 1 2 4
M  V30 4 2 2 5
M  V30 5 1 3 6
M  V30 6 1 4 7
M  V30 7 2 4 8
M  V30 8 1 5 9
M  V30 9 1 6 10
M  V30 10 1 7 11
M  V30 11 2 7 12
M  V30 12 1 8 13
M  V30 13 1 10 14
M  V30 14 1 10 15
M  V30 15 1 12 16
M  V30 16 1 14 17
M  V30 17 1 14 18
M  V30 18 2 15 19
M  V30 19 1 15 20
M  V30 20 1 19 21
M  V30 21 2 20 22
M  V30 22 2 21 23
M  V30 23 2 9 11
M  V30 24 2 13 16
M  V30 25 1 22 23
M  V30 26 1 3 24
M  V30 27 1 3 25
M  V30 28 1 5 26
M  V30 29 1 6 27
M  V30 30 1 6 28
M  V30 31 1 8 29
M  V30 32 1 9 30
M  V30 33 1 10 31
M  V30 34 1 11 32
M  V30 35 1 12 33
M  V30 36 1 13 34
M  V30 37 1 16 35
M  V30 38 1 17 36
M  V30 39 1 17 37
M  V30 40 1 17 38
M  V30 41 1 18 39
M  V30 42 1 18 40
M  V30 43 1 18 41
M  V30 44 1 19 42
M  V30 45 1 20 43
M  V30 46 1 21 44
M  V30 47 1 22 45
M  V30 48 1 23 46
M  V30 END BOND
M  V30 BEGIN COLLECTION
M  V30 MDLV30/STEABS ATOMS=(1 10)
M  V30 END COLLECTION
M  V30 END CTAB
M  END
>  <NO.>
1779

>  <Name>
dapoxetine

>  <SMILES>
CN(C)[C@@H](CCOc1cccc2ccccc12)c1ccccc1

>  <logBB>


>  <Class>
1

>  <MW>
305.18

>  <nHBAcc>
2

>  <nHBDon>
0

>  <SLogP>
4.91

>  <TopoPSA>
12.47

>  <MMFF94 Energy>
71.623

$$$$
CN(C)c1cnccn1
Actelion Java MolfileCreator 2.0

  0  0  0  0  0  0              0 V3000
M  V30 BEGIN CTAB
M  V30 COUNTS 18 18 0 0 0
M  V30 BEGIN ATOM
M  V30 1 N 0.7749 1.085 0.6974 0
M  V30 2 C 0.0343 0.2741 -0.0978 0
M  V30 3 C 1.1963 2.2614 0.1753 0
M  V30 4 N -0.4097 -0.9318 0.4191 0
M  V30 5 C -0.2489 0.7055 -1.4014 0
M  V30 6 C 0.9016 2.6524 -1.1149 0
M  V30 7 C -1.0148 -1.95 -0.4155 0
M  V30 8 C 0.0146 -1.2769 1.7656 0
M  V30 9 N 0.1696 1.8834 -1.9411 0
M  V30 10 H 1.7852 2.8862 0.8362 0
M  V30 11 H -0.842 0.1043 -2.08 0
M  V30 12 H 1.2471 3.597 -1.5172 0
M  V30 13 H -1.9265 -1.5764 -0.894 0
M  V30 14 H -1.3055 -2.8302 0.1681 0
M  V30 15 H -0.3155 -2.2868 -1.1885 0
M  V30 16 H -0.2498 -0.4908 2.4824 0
M  V30 17 H 1.0964 -1.4468 1.8018 0
M  V30 18 H -0.4736 -2.1931 2.1157 0
M  V30 END ATOM
M  V30 BEGIN BOND
M  V30 1 2 1 2
M  V30 2 1 1 3
M  V30 3 1 2 4
M  V30 4 1 2 5
M  V30 5 2 3 6
M  V30 6 1 4 7
M  V30 7 1 4 8
M  V30 8 2 5 9
M  V30 9 1 6 9
M  V30 10 1 3 10
M  V30 11 1 5 11
M  V30 12 1 6 12
M  V30 13 1 7 13
M  V30 14 1 7 14
M  V30 15 1 7 15
M  V30 16 1 8 16
M  V30 17 1 8 17
M  V30 18 1 8 18
M  V30 END BOND
M  V30 END CTAB
M  END
>  <NO.>
1791

>  <Name>
ampyzine

>  <SMILES>
CN(C)c1cnccn1

>  <logBB>


>  <Class>
1

>  <MW>
123.08

>  <nHBAcc>
3

>  <nHBDon>
0

>  <SLogP>
0.54

>  <TopoPSA>
29.02

>  <MMFF94 Energy>
45.228

$$$$
CN1C(=O)C(O)N=C(c2ccccc2)c2cc(Cl)ccc21
Actelion Java MolfileCreator 2.0

  0  0  0  0  0  0              0 V3000
M  V30 BEGIN CTAB
M  V30 COUNTS 34 36 0 0 0
M  V30 BEGIN ATOM
M  V30 1 Cl 3.6595 1.9505 -2.1131 0
M  V30 2 C 2.5733 0.705 -1.6377 0
M  V30 3 C 1.3482 1.0348 -1.0675 0
M  V30 4 C 2.9247 -0.627 -1.8266 0
M  V30 5 C 0.4634 0.0183 -0.6691 0
M  V30 6 C 2.0383 -1.6396 -1.4494 0
M  V30 7 C -0.8338 0.4233 -0.0587 0
M  V30 8 C 0.7951 -1.3331 -0.8698 0
M  V30 9 N -1.9805 -0.0528 -0.4124 0
M  V30 10 C -0.822 1.4522 1.0296 0
M  V30 11 N -0.0825 -2.3972 -0.5238 0
M  V30 12 C -2.0326 -1.0869 -1.4488 0 CFG=2
M  V30 13 C -1.8894 2.3534 1.1238 0
M  V30 14 C 0.2177 1.5087 1.9667 0
M  V30 15 C -1.4415 -2.3977 -0.8504 0
M  V30 16 C 0.4716 -3.585 0.1053 0
M  V30 17 O -1.5016 -0.7329 -2.7154 0
M  V30 18 C -1.9037 3.3205 2.1302 0
M  V30 19 C 0.1991 2.4781 2.972 0
M  V30 20 O -2.1512 -3.3982 -0.6997 0
M  V30 21 C -0.8583 3.3845 3.0507 0
M  V30 22 H 1.0762 2.081 -0.9477 0
M  V30 23 H 3.8782 -0.8863 -2.2801 0
M  V30 24 H 2.3251 -2.671 -1.6401 0
M  V30 25 H -3.0978 -1.2881 -1.6177 0
M  V30 26 H -2.7109 2.3057 0.4122 0
M  V30 27 H 1.0386 0.7979 1.9394 0
M  V30 28 H 0.7937 -4.2832 -0.6733 0
M  V30 29 H 1.3154 -3.3198 0.7501 0
M  V30 30 H -0.2848 -4.0819 0.7209 0
M  V30 31 H -1.7795 -1.4403 -3.3211 0
M  V30 32 H -2.7333 4.02 2.1974 0
M  V30 33 H 1.0055 2.5224 3.6999 0
M  V30 34 H -0.8728 4.1363 3.8362 0
M  V30 END ATOM
M  V30 BEGIN BOND
M  V30 1 1 1 2
M  V30 2 2 2 3
M  V30 3 1 2 4
M  V30 4 1 3 5
M  V30 5 2 4 6
M  V30 6 1 5 7
M  V30 7 2 5 8
M  V30 8 2 7 9
M  V30 9 1 7 10
M  V30 10 1 8 11
M  V30 11 1 9 12
M  V30 12 2 10 13
M  V30 13 1 10 14
M  V30 14 1 11 15
M  V30 15 1 11 16
M  V30 16 1 12 17
M  V30 17 1 13 18
M  V30 18 2 14 19
M  V30 19 2 15 20
M  V30 20 2 18 21
M  V30 21 1 6 8
M  V30 22 1 12 15
M  V30 23 1 19 21
M  V30 24 1 3 22
M  V30 25 1 4 23
M  V30 26 1 6 24
M  V30 27 1 12 25
M  V30 28 1 13 26
M  V30 29 1 14 27
M  V30 30 1 16 28
M  V30 31 1 16 29
M  V30 32 1 16 30
M  V30 33 1 17 31
M  V30 34 1 18 32
M  V30 35 1 19 33
M  V30 36 1 21 34
M  V30 END BOND
M  V30 BEGIN COLLECTION
M  V30 MDLV30/STERAC1 ATOMS=(1 12)
M  V30 END COLLECTION
M  V30 END CTAB
M  END
>  <NO.>
1797

>  <Name>
temazepam

>  <SMILES>
CN1C(=O)C(O)N=C(c2ccccc2)c2cc(Cl)ccc21

>  <logBB>


>  <Class>
1

>  <MW>
300.07

>  <nHBAcc>
3

>  <nHBDon>
1

>  <SLogP>
2.47

>  <TopoPSA>
52.9

>  <MMFF94 Energy>
109.3

$$$$
CN1C(=O)C(O)N=C(c2ccccc2Cl)c2cc(Cl)ccc21
Actelion Java MolfileCreator 2.0

  0  0  0  0  0  0              0 V3000
M  V30 BEGIN CTAB
M  V30 COUNTS 34 36 0 0 0
M  V30 BEGIN ATOM
M  V30 1 Cl -3.7091 0.1646 -1.0704 0
M  V30 2 C -2.3469 0.7073 -1.9809 0
M  V30 3 C -1.0292 0.4512 -1.586 0
M  V30 4 C -2.5848 1.4739 -3.1249 0
M  V30 5 C -0.7142 -0.3688 -0.3899 0
M  V30 6 C 0.0447 0.9533 -2.3333 0
M  V30 7 C -1.5147 1.9768 -3.8695 0
M  V30 8 N -0.9665 -1.6326 -0.4575 0
M  V30 9 C -0.1059 0.3246 0.7818 0
M  V30 10 C -0.2022 1.7172 -3.4742 0
M  V30 11 C -0.6462 -2.4618 0.7023 0 CFG=1
M  V30 12 C 0.9942 -0.2185 1.4745 0
M  V30 13 C -0.6688 1.5447 1.1926 0
M  V30 14 O -1.2509 -3.7419 0.6282 0
M  V30 15 C 0.9049 -2.5903 0.7388 0
M  V30 16 N 1.6181 -1.4388 1.0903 0
M  V30 17 C 1.5052 0.4831 2.5798 0
M  V30 18 C -0.1385 2.2229 2.2864 0
M  V30 19 O 1.4701 -3.653 0.4598 0
M  V30 20 C 3.0719 -1.5142 1.1043 0
M  V30 21 C 0.9439 1.6976 2.9826 0
M  V30 22 Cl -0.8308 3.7163 2.784 0
M  V30 23 H -3.6034 1.6853 -3.4422 0
M  V30 24 H 1.0703 0.7376 -2.0436 0
M  V30 25 H -1.7067 2.5691 -4.7616 0
M  V30 26 H 0.6279 2.1029 -4.0619 0
M  V30 27 H -1.0047 -2.0204 1.6386 0
M  V30 28 H -1.5311 1.9635 0.6797 0
M  V30 29 H -0.9255 -4.0984 -0.2168 0
M  V30 30 H 2.3392 0.0868 3.1553 0
M  V30 31 H 3.4011 -1.8219 2.1017 0
M  V30 32 H 3.4302 -2.2529 0.3807 0
M  V30 33 H 3.5088 -0.5448 0.8438 0
M  V30 34 H 1.353 2.222 3.8433 0
M  V30 END ATOM
M  V30 BEGIN BOND
M  V30 1 1 1 2
M  V30 2 2 2 3
M  V30 3 1 2 4
M  V30 4 1 3 5
M  V30 5 1 3 6
M  V30 6 2 4 7
M  V30 7 2 5 8
M  V30 8 1 5 9
M  V30 9 2 6 10
M  V30 10 1 8 11
M  V30 11 2 9 12
M  V30 12 1 9 13
M  V30 13 1 11 14
M  V30 14 1 11 15
M  V30 15 1 12 16
M  V30 16 1 12 17
M  V30 17 2 13 18
M  V30 18 2 15 19
M  V30 19 1 16 20
M  V30 20 2 17 21
M  V30 21 1 18 22
M  V30 22 1 7 10
M  V30 23 1 15 16
M  V30 24 1 18 21
M  V30 25 1 4 23
M  V30 26 1 6 24
M  V30 27 1 7 25
M  V30 28 1 10 26
M  V30 29 1 11 27
M  V30 30 1 13 28
M  V30 31 1 14 29
M  V30 32 1 17 30
M  V30 33 1 20 31
M  V30 34 1 20 32
M  V30 35 1 20 33
M  V30 36 1 21 34
M  V30 END BOND
M  V30 BEGIN COLLECTION
M  V30 MDLV30/STERAC1 ATOMS=(1 11)
M  V30 END COLLECTION
M  V30 END CTAB
M  END
>  <NO.>
1798

>  <Name>
lormetazepam

>  <SMILES>
CN1C(=O)C(O)N=C(c2ccccc2Cl)c2cc(Cl)ccc21

>  <logBB>


>  <Class>
1

>  <MW>
334.03

>  <nHBAcc>
3

>  <nHBDon>
1

>  <SLogP>
3.13

>  <TopoPSA>
52.9

>  <MMFF94 Energy>
110

$$$$
CN1C(=O)C(O)N=C(c2ccccc2F)c2cc(Cl)ccc21
Actelion Java MolfileCreator 2.0

  0  0  0  0  0  0              0 V3000
M  V30 BEGIN CTAB
M  V30 COUNTS 34 36 0 0 0
M  V30 BEGIN ATOM
M  V30 1 Cl -3.188 -1.6339 3.1061 0
M  V30 2 C -2.1456 -1.6488 1.7388 0
M  V30 3 C -1.5736 -0.4614 1.2926 0
M  V30 4 C -1.8855 -2.8464 1.081 0
M  V30 5 C -0.7158 -0.4725 0.1805 0
M  V30 6 C -1.0483 -2.8577 -0.0377 0
M  V30 7 C -0.131 0.8264 -0.2635 0
M  V30 8 C -0.4553 -1.6737 -0.5054 0
M  V30 9 N -0.1494 1.2426 -1.4875 0
M  V30 10 C 0.4957 1.7222 0.7536 0
M  V30 11 N 0.3762 -1.7292 -1.6573 0
M  V30 12 C -0.7169 0.3687 -2.513 0 CFG=2
M  V30 13 C 1.2365 1.215 1.8237 0
M  V30 14 C 0.3645 3.1098 0.61 0
M  V30 15 C 0.2891 -0.8067 -2.7044 0
M  V30 16 C 1.3362 -2.8161 -1.7727 0
M  V30 17 O -0.9235 1.0484 -3.7412 0
M  V30 18 F 1.4254 -0.1044 1.9711 0
M  V30 19 C 1.8161 2.071 2.7579 0
M  V30 20 C 0.9451 3.97 1.5455 0
M  V30 21 O 0.9746 -0.9013 -3.728 0
M  V30 22 C 1.667 3.4509 2.6209 0
M  V30 23 H -1.8036 0.4683 1.8072 0
M  V30 24 H -2.3378 -3.7735 1.4252 0
M  V30 25 H -0.8838 -3.8036 -0.5488 0
M  V30 26 H -1.6988 -0.0221 -2.2255 0
M  V30 27 H -0.1892 3.5249 -0.23 0
M  V30 28 H 2.1877 -2.5178 -2.3918 0
M  V30 29 H 1.7149 -3.0988 -0.7853 0
M  V30 30 H 0.8474 -3.6715 -2.249 0
M  V30 31 H -0.0246 1.3017 -4.0171 0
M  V30 32 H 2.3883 1.6566 3.5824 0
M  V30 33 H 0.8382 5.0465 1.43 0
M  V30 34 H 2.1217 4.1226 3.3454 0
M  V30 END ATOM
M  V30 BEGIN BOND
M  V30 1 1 1 2
M  V30 2 2 2 3
M  V30 3 1 2 4
M  V30 4 1 3 5
M  V30 5 2 4 6
M  V30 6 1 5 7
M  V30 7 2 5 8
M  V30 8 2 7 9
M  V30 9 1 7 10
M  V30 10 1 8 11
M  V30 11 1 9 12
M  V30 12 2 10 13
M  V30 13 1 10 14
M  V30 14 1 11 15
M  V30 15 1 11 16
M  V30 16 1 12 17
M  V30 17 1 13 18
M  V30 18 1 13 19
M  V30 19 2 14 20
M  V30 20 2 15 21
M  V30 21 2 19 22
M  V30 22 1 6 8
M  V30 23 1 12 15
M  V30 24 1 20 22
M  V30 25 1 3 23
M  V30 26 1 4 24
M  V30 27 1 6 25
M  V30 28 1 12 26
M  V30 29 1 14 27
M  V30 30 1 16 28
M  V30 31 1 16 29
M  V30 32 1 16 30
M  V30 33 1 17 31
M  V30 34 1 19 32
M  V30 35 1 20 33
M  V30 36 1 22 34
M  V30 END BOND
M  V30 BEGIN COLLECTION
M  V30 MDLV30/STERAC1 ATOMS=(1 12)
M  V30 END COLLECTION
M  V30 END CTAB
M  END
>  <NO.>
1799

>  <Name>
flutemazepam

>  <SMILES>
CN1C(=O)C(O)N=C(c2ccccc2F)c2cc(Cl)ccc21

>  <logBB>


>  <Class>
1

>  <MW>
318.06

>  <nHBAcc>
3

>  <nHBDon>
1

>  <SLogP>
2.61

>  <TopoPSA>
52.9

>  <MMFF94 Energy>
103.48

$$$$
CN1C(=O)CC(=O)N(c2ccccc2)c2cc(C(F)(F)F)ccc21
Actelion Java MolfileCreator 2.0

  0  0  0  0  0  0              0 V3000
M  V30 BEGIN CTAB
M  V30 COUNTS 37 39 0 0 0
M  V30 BEGIN ATOM
M  V30 1 F 1.0539 -3.7332 2.1899 0
M  V30 2 C -0.1856 -3.7265 1.6276 0
M  V30 3 F -0.9918 -4.398 2.4959 0
M  V30 4 F -0.1007 -4.5045 0.5151 0
M  V30 5 C -0.6818 -2.3349 1.3155 0
M  V30 6 C 0.21 -1.3466 0.8715 0
M  V30 7 C -2.0366 -2.0116 1.4303 0
M  V30 8 C -0.2278 -0.046 0.5464 0
M  V30 9 C -2.4855 -0.7248 1.124 0
M  V30 10 N 0.7378 0.9091 0.1023 0
M  V30 11 C -1.596 0.2689 0.6821 0
M  V30 12 C 0.8316 2.2048 0.6168 0
M  V30 13 C 1.6393 0.4708 -0.9118 0
M  V30 14 N -2.1154 1.5625 0.3959 0
M  V30 15 O 1.7116 3.0133 0.3132 0
M  V30 16 C -0.235 2.5953 1.6017 0
M  V30 17 C 1.1464 -0.0644 -2.1108 0
M  V30 18 C 3.0235 0.5564 -0.719 0
M  V30 19 C -1.5494 2.7344 0.8876 0
M  V30 20 C -3.3506 1.6624 -0.3685 0
M  V30 21 C 2.0271 -0.5161 -3.0955 0
M  V30 22 C 3.9016 0.1047 -1.706 0
M  V30 23 O -2.0892 3.8349 0.7661 0
M  V30 24 C 3.4034 -0.4332 -2.8914 0
M  V30 25 H 1.2676 -1.5999 0.7854 0
M  V30 26 H -2.7535 -2.7593 1.7694 0
M  V30 27 H -3.5434 -0.5052 1.2533 0
M  V30 28 H 0.0298 3.5648 2.0395 0
M  V30 29 H -0.2995 1.8846 2.4309 0
M  V30 30 H 0.0765 -0.1231 -2.2925 0
M  V30 31 H 3.4288 0.9802 0.1965 0
M  V30 32 H -3.4199 0.846 -1.0941 0
M  V30 33 H -4.1997 1.6304 0.3211 0
M  V30 34 H -3.3871 2.6102 -0.9148 0
M  V30 35 H 1.6397 -0.9259 -4.0247 0
M  V30 36 H 4.9749 0.1807 -1.5512 0
M  V30 37 H 4.0892 -0.7793 -3.6606 0
M  V30 END ATOM
M  V30 BEGIN BOND
M  V30 1 1 1 2
M  V30 2 1 2 3
M  V30 3 1 2 4
M  V30 4 1 2 5
M  V30 5 2 5 6
M  V30 6 1 5 7
M  V30 7 1 6 8
M  V30 8 2 7 9
M  V30 9 1 8 10
M  V30 10 2 8 11
M  V30 11 1 10 12
M  V30 12 1 10 13
M  V30 13 1 11 14
M  V30 14 2 12 15
M  V30 15 1 12 16
M  V30 16 2 13 17
M  V30 17 1 13 18
M  V30 18 1 14 19
M  V30 19 1 14 20
M  V30 20 1 17 21
M  V30 21 2 18 22
M  V30 22 2 19 23
M  V30 23 2 21 24
M  V30 24 1 9 11
M  V30 25 1 16 19
M  V30 26 1 22 24
M  V30 27 1 6 25
M  V30 28 1 7 26
M  V30 29 1 9 27
M  V30 30 1 16 28
M  V30 31 1 16 29
M  V30 32 1 17 30
M  V30 33 1 18 31
M  V30 34 1 20 32
M  V30 35 1 20 33
M  V30 36 1 20 34
M  V30 37 1 21 35
M  V30 38 1 22 36
M  V30 39 1 24 37
M  V30 END BOND
M  V30 END CTAB
M  END
>  <NO.>
1800

>  <Name>
triflubazam

>  <SMILES>
CN1C(=O)CC(=O)N(c2ccccc2)c2cc(C(F)(F)F)ccc21

>  <logBB>


>  <Class>
1

>  <MW>
334.09

>  <nHBAcc>
2

>  <nHBDon>
0

>  <SLogP>
3.74

>  <TopoPSA>
40.62

>  <MMFF94 Energy>
69.378

$$$$
CN1C(=O)CC(C)(c2ccccc2)C1=O
Actelion Java MolfileCreator 2.0

  0  0  0  0  0  0              0 V3000
M  V30 BEGIN CTAB
M  V30 COUNTS 28 29 0 0 0
M  V30 BEGIN ATOM
M  V30 1 O -2.3045 -0.0793 -0.7942 0
M  V30 2 C -1.5608 -0.0676 0.1788 0
M  V30 3 N -1.9159 0.3591 1.4269 0
M  V30 4 C -0.1341 -0.6078 0.2154 0 CFG=1
M  V30 5 C -0.9278 0.1942 2.346 0
M  V30 6 C -3.2349 0.8528 1.7425 0
M  V30 7 C 0.8412 -0.01 -0.8016 0
M  V30 8 C 0.3146 -0.2682 1.65 0
M  V30 9 C -0.2449 -2.1328 0.024 0
M  V30 10 O -1.0038 0.3983 3.5484 0
M  V30 11 C 0.4516 0.919 -1.7789 0
M  V30 12 C 2.1988 -0.3893 -0.7673 0
M  V30 13 C 1.379 1.4469 -2.683 0
M  V30 14 C 3.1242 0.1391 -1.6701 0
M  V30 15 C 2.7136 1.0585 -2.6285 0
M  V30 16 H -3.2487 1.3379 2.7218 0
M  V30 17 H -3.5556 1.5572 0.9694 0
M  V30 18 H -3.9278 0.006 1.746 0
M  V30 19 H 0.7333 -1.1314 2.1773 0
M  V30 20 H 1.0363 0.5559 1.6909 0
M  V30 21 H -0.5637 -2.3787 -0.9961 0
M  V30 22 H -0.9827 -2.5696 0.7079 0
M  V30 23 H 0.7088 -2.6408 0.2031 0
M  V30 24 H -0.5794 1.2525 -1.8722 0
M  V30 25 H 2.5553 -1.1055 -0.0293 0
M  V30 26 H 1.0524 2.1619 -3.4344 0
M  V30 27 H 4.1655 -0.169 -1.6243 0
M  V30 28 H 3.4304 1.4699 -3.3339 0
M  V30 END ATOM
M  V30 BEGIN BOND
M  V30 1 2 1 2
M  V30 2 1 2 3
M  V30 3 1 2 4
M  V30 4 1 3 5
M  V30 5 1 3 6
M  V30 6 1 4 7
M  V30 7 1 4 8
M  V30 8 1 4 9
M  V30 9 2 5 10
M  V30 10 2 7 11
M  V30 11 1 7 12
M  V30 12 1 11 13
M  V30 13 2 12 14
M  V30 14 2 13 15
M  V30 15 1 5 8
M  V30 16 1 14 15
M  V30 17 1 6 16
M  V30 18 1 6 17
M  V30 19 1 6 18
M  V30 20 1 8 19
M  V30 21 1 8 20
M  V30 22 1 9 21
M  V30 23 1 9 22
M  V30 24 1 9 23
M  V30 25 1 11 24
M  V30 26 1 12 25
M  V30 27 1 13 26
M  V30 28 1 14 27
M  V30 29 1 15 28
M  V30 END BOND
M  V30 BEGIN COLLECTION
M  V30 MDLV30/STERAC1 ATOMS=(1 4)
M  V30 END COLLECTION
M  V30 END CTAB
M  END
>  <NO.>
1801

>  <Name>
methsuximide(mesuximide)

>  <SMILES>
CN1C(=O)CC(C)(c2ccccc2)C1=O

>  <logBB>


>  <Class>
1

>  <MW>
203.09

>  <nHBAcc>
2

>  <nHBDon>
0

>  <SLogP>
1.33

>  <TopoPSA>
37.38

>  <MMFF94 Energy>
-3.3941

$$$$
CN1C(=O)CC(c2ccccc2)C1=O
Actelion Java MolfileCreator 2.0

  0  0  0  0  0  0              0 V3000
M  V30 BEGIN CTAB
M  V30 COUNTS 25 26 0 0 0
M  V30 BEGIN ATOM
M  V30 1 O 0.3974 2.3069 -1.0336 0
M  V30 2 C 0.9431 1.2908 -0.6274 0
M  V30 3 N 1.8467 0.5328 -1.3178 0
M  V30 4 C 0.7108 0.6543 0.7246 0 CFG=1
M  V30 5 C 2.3499 -0.4954 -0.5787 0
M  V30 6 C 2.2209 0.8132 -2.6828 0
M  V30 7 C -0.6942 0.1033 0.8692 0
M  V30 8 C 1.809 -0.4035 0.8179 0
M  V30 9 O 3.1433 -1.3462 -0.9512 0
M  V30 10 C -1.5818 0.7054 1.7747 0
M  V30 11 C -1.1498 -0.9865 0.1095 0
M  V30 12 C -2.8832 0.2232 1.9264 0
M  V30 13 C -2.4519 -1.4671 0.2637 0
M  V30 14 C -3.3173 -0.8638 1.1726 0
M  V30 15 H 0.8929 1.4164 1.4928 0
M  V30 16 H 2.9154 0.062 -3.0663 0
M  V30 17 H 2.6866 1.8025 -2.7219 0
M  V30 18 H 1.3178 0.8369 -3.2999 0
M  V30 19 H 2.6204 -0.0627 1.4707 0
M  V30 20 H 1.4623 -1.3812 1.164 0
M  V30 21 H -1.2705 1.5628 2.3684 0
M  V30 22 H -0.5036 -1.4769 -0.615 0
M  V30 23 H -3.5603 0.7007 2.6301 0
M  V30 24 H -2.7929 -2.3116 -0.3298 0
M  V30 25 H -4.3315 -1.2367 1.2891 0
M  V30 END ATOM
M  V30 BEGIN BOND
M  V30 1 2 1 2
M  V30 2 1 2 3
M  V30 3 1 2 4
M  V30 4 1 3 5
M  V30 5 1 3 6
M  V30 6 1 4 7
M  V30 7 1 4 8
M  V30 8 2 5 9
M  V30 9 2 7 10
M  V30 10 1 7 11
M  V30 11 1 10 12
M  V30 12 2 11 13
M  V30 13 2 12 14
M  V30 14 1 5 8
M  V30 15 1 13 14
M  V30 16 1 4 15
M  V30 17 1 6 16
M  V30 18 1 6 17
M  V30 19 1 6 18
M  V30 20 1 8 19
M  V30 21 1 8 20
M  V30 22 1 10 21
M  V30 23 1 11 22
M  V30 24 1 12 23
M  V30 25 1 13 24
M  V30 26 1 14 25
M  V30 END BOND
M  V30 BEGIN COLLECTION
M  V30 MDLV30/STERAC1 ATOMS=(1 4)
M  V30 END COLLECTION
M  V30 END CTAB
M  END
>  <NO.>
1802

>  <Name>
phensuximide

>  <SMILES>
CN1C(=O)CC(c2ccccc2)C1=O

>  <logBB>


>  <Class>
1

>  <MW>
189.08

>  <nHBAcc>
2

>  <nHBDon>
0

>  <SLogP>
1.16

>  <TopoPSA>
37.38

>  <MMFF94 Energy>
-13.049

$$$$
CN1C(=O)CC2(CCN(CCCC(=O)c3ccc(F)cc3)CC2)C1=O
Actelion Java MolfileCreator 2.0

  0  0  0  0  0  0              0 V3000
M  V30 BEGIN CTAB
M  V30 COUNTS 48 50 0 0 0
M  V30 BEGIN ATOM
M  V30 1 F -6.5685 4.0013 -2.3993 0
M  V30 2 C -5.6061 3.7141 -1.5137 0
M  V30 3 C -5.2212 4.6723 -0.5846 0
M  V30 4 C -5.0058 2.4602 -1.5374 0
M  V30 5 C -4.2172 4.3705 0.3381 0
M  V30 6 C -4.0004 2.1538 -0.6149 0
M  V30 7 C -3.5991 3.1091 0.3304 0
M  V30 8 C -2.5291 2.8358 1.3405 0
M  V30 9 O -2.2199 3.7192 2.1383 0
M  V30 10 C -1.8667 1.4691 1.3452 0
M  V30 11 C -0.7742 1.3641 2.4123 0
M  V30 12 C -0.1686 -0.0426 2.505 0
M  V30 13 N 0.3508 -0.5658 1.2283 0
M  V30 14 C 1.5359 0.1756 0.7727 0
M  V30 15 C 0.6394 -2.002 1.3554 0
M  V30 16 C 2.0072 -0.3381 -0.5886 0
M  V30 17 C 1.1067 -2.5975 0.0256 0
M  V30 18 C 2.3097 -1.8397 -0.5598 0
M  V30 19 C 2.581 -2.3615 -1.9573 0
M  V30 20 C 3.6131 -2.1655 0.1841 0
M  V30 21 O 1.8937 -2.1323 -2.9419 0
M  V30 22 N 3.6897 -3.1579 -1.9219 0
M  V30 23 C 4.3209 -3.1377 -0.7151 0
M  V30 24 C 4.1599 -3.8981 -3.0681 0
M  V30 25 O 5.3223 -3.7607 -0.397 0
M  V30 26 H -5.7016 5.6459 -0.5823 0
M  V30 27 H -5.3238 1.729 -2.2747 0
M  V30 28 H -3.918 5.1247 1.0647 0
M  V30 29 H -3.5486 1.1668 -0.6582 0
M  V30 30 H -2.6358 0.7129 1.5392 0
M  V30 31 H -1.4288 1.2999 0.3556 0
M  V30 32 H 0.0067 2.1101 2.2237 0
M  V30 33 H -1.1976 1.6176 3.3931 0
M  V30 34 H 0.6149 -0.0497 3.2739 0
M  V30 35 H -0.965 -0.7074 2.8658 0
M  V30 36 H 2.3489 0.1051 1.5065 0
M  V30 37 H 1.3015 1.2385 0.6509 0
M  V30 38 H -0.2696 -2.5371 1.6572 0
M  V30 39 H 1.3892 -2.1806 2.1363 0
M  V30 40 H 2.8906 0.2276 -0.9111 0
M  V30 41 H 1.2289 -0.126 -1.3349 0
M  V30 42 H 1.3468 -3.6595 0.1644 0
M  V30 43 H 0.2702 -2.57 -0.6869 0
M  V30 44 H 4.2574 -1.2875 0.3024 0
M  V30 45 H 3.4523 -2.6242 1.1636 0
M  V30 46 H 3.3228 -4.4448 -3.5125 0
M  V30 47 H 4.9568 -4.5923 -2.7903 0
M  V30 48 H 4.5361 -3.186 -3.8089 0
M  V30 END ATOM
M  V30 BEGIN BOND
M  V30 1 1 1 2
M  V30 2 2 2 3
M  V30 3 1 2 4
M  V30 4 1 3 5
M  V30 5 2 4 6
M  V30 6 2 5 7
M  V30 7 1 7 8
M  V30 8 2 8 9
M  V30 9 1 8 10
M  V30 10 1 10 11
M  V30 11 1 11 12
M  V30 12 1 12 13
M  V30 13 1 13 14
M  V30 14 1 13 15
M  V30 15 1 14 16
M  V30 16 1 15 17
M  V30 17 1 16 18
M  V30 18 1 18 19
M  V30 19 1 18 20
M  V30 20 2 19 21
M  V30 21 1 19 22
M  V30 22 1 20 23
M  V30 23 1 22 24
M  V30 24 2 23 25
M  V30 25 1 6 7
M  V30 26 1 17 18
M  V30 27 1 22 23
M  V30 28 1 3 26
M  V30 29 1 4 27
M  V30 30 1 5 28
M  V30 31 1 6 29
M  V30 32 1 10 30
M  V30 33 1 10 31
M  V30 34 1 11 32
M  V30 35 1 11 33
M  V30 36 1 12 34
M  V30 37 1 12 35
M  V30 38 1 14 36
M  V30 39 1 14 37
M  V30 40 1 15 38
M  V30 41 1 15 39
M  V30 42 1 16 40
M  V30 43 1 16 41
M  V30 44 1 17 42
M  V30 45 1 17 43
M  V30 46 1 20 44
M  V30 47 1 20 45
M  V30 48 1 24 46
M  V30 49 1 24 47
M  V30 50 1 24 48
M  V30 END BOND
M  V30 END CTAB
M  END
>  <NO.>
1803

>  <Name>
roxoperone

>  <SMILES>
CN1C(=O)CC2(CCN(CCCC(=O)c3ccc(F)cc3)CC2)C1=O

>  <logBB>


>  <Class>
1

>  <MW>
346.17

>  <nHBAcc>
4

>  <nHBDon>
0

>  <SLogP>
2.26

>  <TopoPSA>
57.69

>  <MMFF94 Energy>
-11.627

$$$$
CN1C(=O)CCS(=O)(=O)C1c1ccc(Cl)c(Cl)c1
Actelion Java MolfileCreator 2.0

  0  0  0  0  0  0              0 V3000
M  V30 BEGIN CTAB
M  V30 COUNTS 29 30 0 0 0
M  V30 BEGIN ATOM
M  V30 1 Cl -3.7155 0.253 -2.1943 0
M  V30 2 C -2.6201 1.0302 -1.1073 0
M  V30 3 C -2.8324 2.3256 -0.6285 0
M  V30 4 C -1.4871 0.3117 -0.7032 0
M  V30 5 Cl -4.2072 3.2692 -1.078 0
M  V30 6 C -1.9099 2.8968 0.2507 0
M  V30 7 C -0.5531 0.8737 0.1856 0
M  V30 8 C -0.7803 2.1791 0.6541 0
M  V30 9 C 0.6946 0.1217 0.629 0 CFG=2
M  V30 10 S 2.0706 0.579 -0.4775 0
M  V30 11 N 0.4551 -1.3164 0.8896 0
M  V30 12 O 1.5749 1.099 -1.7389 0
M  V30 13 O 3.0591 1.3191 0.2859 0
M  V30 14 C 2.7574 -1.0142 -0.8278 0
M  V30 15 C 0.8243 -2.3371 0.0317 0
M  V30 16 C -0.3002 -1.6455 2.092 0
M  V30 17 C 1.6437 -1.9704 -1.1847 0
M  V30 18 O 0.4994 -3.5085 0.2149 0
M  V30 19 H -1.3423 -0.694 -1.0924 0
M  V30 20 H -2.0621 3.9079 0.6229 0
M  V30 21 H -0.0739 2.6593 1.3312 0
M  V30 22 H 1.0112 0.5238 1.6016 0
M  V30 23 H 3.457 -0.8906 -1.6595 0
M  V30 24 H 3.3114 -1.3432 0.0571 0
M  V30 25 H -1.3167 -1.254 1.9962 0
M  V30 26 H 0.1885 -1.1847 2.9555 0
M  V30 27 H -0.3562 -2.7239 2.2607 0
M  V30 28 H 2.0818 -2.8933 -1.5816 0
M  V30 29 H 0.9732 -1.5654 -1.9497 0
M  V30 END ATOM
M  V30 BEGIN BOND
M  V30 1 1 1 2
M  V30 2 2 2 3
M  V30 3 1 2 4
M  V30 4 1 3 5
M  V30 5 1 3 6
M  V30 6 2 4 7
M  V30 7 2 6 8
M  V30 8 1 7 9
M  V30 9 1 9 10
M  V30 10 1 9 11
M  V30 11 2 10 12
M  V30 12 2 10 13
M  V30 13 1 10 14
M  V30 14 1 11 15
M  V30 15 1 11 16
M  V30 16 1 14 17
M  V30 17 2 15 18
M  V30 18 1 7 8
M  V30 19 1 15 17
M  V30 20 1 4 19
M  V30 21 1 6 20
M  V30 22 1 8 21
M  V30 23 1 9 22
M  V30 24 1 14 23
M  V30 25 1 14 24
M  V30 26 1 16 25
M  V30 27 1 16 26
M  V30 28 1 16 27
M  V30 29 1 17 28
M  V30 30 1 17 29
M  V30 END BOND
M  V30 BEGIN COLLECTION
M  V30 MDLV30/STERAC1 ATOMS=(1 9)
M  V30 END COLLECTION
M  V30 END CTAB
M  END
>  <NO.>
1805

>  <Name>
dichlormezanone

>  <SMILES>
CN1C(=O)CCS(=O)(=O)C1c1ccc(Cl)c(Cl)c1

>  <logBB>


>  <Class>
1

>  <MW>
306.98

>  <nHBAcc>
3

>  <nHBDon>
0

>  <SLogP>
2.27

>  <TopoPSA>
54.45

>  <MMFF94 Energy>
66.69

$$$$
CN1C(=O)CCS(=O)(=O)C1c1ccc(Cl)cc1
Actelion Java MolfileCreator 2.0

  0  0  0  0  0  0              0 V3000
M  V30 BEGIN CTAB
M  V30 COUNTS 29 30 0 0 0
M  V30 BEGIN ATOM
M  V30 1 Cl 0.7473 2.8253 -4.8232 0
M  V30 2 C 0.4505 1.8859 -3.4136 0
M  V30 3 C 0.2954 0.507 -3.5202 0
M  V30 4 C 0.3681 2.5066 -2.1711 0
M  V30 5 C 0.0563 -0.2578 -2.3748 0
M  V30 6 C 0.1303 1.7422 -1.0255 0
M  V30 7 C -0.0312 0.348 -1.1078 0
M  V30 8 C -0.2803 -0.5158 0.121 0 CFG=2
M  V30 9 S -1.9564 -0.1383 0.7687 0
M  V30 10 N 0.7991 -0.5605 1.1332 0
M  V30 11 O -2.1892 1.292 0.8485 0
M  V30 12 O -2.9099 -1.011 0.1061 0
M  V30 13 C -1.8134 -0.7082 2.4458 0
M  V30 14 C 0.6111 -1.26 2.3194 0
M  V30 15 C 2.1418 -0.1081 0.7939 0
M  V30 16 C -0.7823 -1.807 2.5621 0
M  V30 17 O 1.5037 -1.4576 3.1387 0
M  V30 18 H 0.3559 0.0214 -4.4909 0
M  V30 19 H 0.4819 3.5843 -2.0849 0
M  V30 20 H -0.065 -1.3341 -2.4878 0
M  V30 21 H 0.0644 2.2538 -0.0655 0
M  V30 22 H -0.3729 -1.5595 -0.212 0
M  V30 23 H -1.5343 0.1533 3.0618 0
M  V30 24 H -2.8019 -1.0569 2.7592 0
M  V30 25 H 2.4676 -0.6078 -0.1227 0
M  V30 26 H 2.1385 0.9752 0.6569 0
M  V30 27 H 2.8618 -0.3413 1.5829 0
M  V30 28 H -0.8103 -2.2239 3.5753 0
M  V30 29 H -0.9725 -2.6275 1.8621 0
M  V30 END ATOM
M  V30 BEGIN BOND
M  V30 1 1 1 2
M  V30 2 2 2 3
M  V30 3 1 2 4
M  V30 4 1 3 5
M  V30 5 2 4 6
M  V30 6 2 5 7
M  V30 7 1 7 8
M  V30 8 1 8 9
M  V30 9 1 8 10
M  V30 10 2 9 11
M  V30 11 2 9 12
M  V30 12 1 9 13
M  V30 13 1 10 14
M  V30 14 1 10 15
M  V30 15 1 13 16
M  V30 16 2 14 17
M  V30 17 1 6 7
M  V30 18 1 14 16
M  V30 19 1 3 18
M  V30 20 1 4 19
M  V30 21 1 5 20
M  V30 22 1 6 21
M  V30 23 1 8 22
M  V30 24 1 13 23
M  V30 25 1 13 24
M  V30 26 1 15 25
M  V30 27 1 15 26
M  V30 28 1 15 27
M  V30 29 1 16 28
M  V30 30 1 16 29
M  V30 END BOND
M  V30 BEGIN COLLECTION
M  V30 MDLV30/STERAC1 ATOMS=(1 8)
M  V30 END COLLECTION
M  V30 END CTAB
M  END
>  <NO.>
1806

>  <Name>
chlormezanone

>  <SMILES>
CN1C(=O)CCS(=O)(=O)C1c1ccc(Cl)cc1

>  <logBB>


>  <Class>
1

>  <MW>
273.02

>  <nHBAcc>
3

>  <nHBDon>
0

>  <SLogP>
1.62

>  <TopoPSA>
54.45

>  <MMFF94 Energy>
59.944

$$$$
CN1C(=O)CN(C(N)=O)C(c2ccccc2)c2cc(Cl)ccc21
Actelion Java MolfileCreator 2.0

  0  0  0  0  0  0              0 V3000
M  V30 BEGIN CTAB
M  V30 COUNTS 39 41 0 0 0
M  V30 BEGIN ATOM
M  V30 1 Cl 1.3687 -1.127 5.1602 0
M  V30 2 C 1.0184 -0.278 3.7066 0
M  V30 3 C 0.5434 -0.9704 2.5952 0
M  V30 4 C 1.2056 1.0978 3.6478 0
M  V30 5 C 0.256 -0.2904 1.3938 0
M  V30 6 C 0.9144 1.7852 2.4681 0
M  V30 7 C 0.4376 1.1024 1.3377 0
M  V30 8 C -0.2938 -1.0812 0.2125 0 CFG=1
M  V30 9 N 0.1672 1.8328 0.1537 0
M  V30 10 N -1.71 -0.7215 0.0493 0
M  V30 11 C 0.5309 -1.0249 -1.0807 0
M  V30 12 C -0.9958 1.6988 -0.5972 0
M  V30 13 C 1.1707 2.7865 -0.3008 0
M  V30 14 C -2.6437 -1.7174 0.2052 0
M  V30 15 C -2.0604 0.6913 -0.1403 0
M  V30 16 C -0.08 -1.1245 -2.3433 0
M  V30 17 C 1.9368 -0.9622 -1.0363 0
M  V30 18 O -1.2499 2.4538 -1.543 0
M  V30 19 O -2.3747 -2.9012 0.3831 0
M  V30 20 N -3.9459 -1.3547 0.1664 0
M  V30 21 C 0.6796 -1.1017 -3.5154 0
M  V30 22 C 2.6956 -0.9406 -2.209 0
M  V30 23 C 2.0661 -1.0034 -3.4482 0
M  V30 24 H 0.3874 -2.0462 2.6629 0
M  V30 25 H 1.5706 1.6425 4.5146 0
M  V30 26 H 1.051 2.8639 2.4487 0
M  V30 27 H -0.2347 -2.1427 0.4868 0
M  V30 28 H 1.1316 2.9 -1.3887 0
M  V30 29 H 2.1756 2.4468 -0.0301 0
M  V30 30 H 0.9661 3.7597 0.1561 0
M  V30 31 H -2.8641 0.7346 -0.8854 0
M  V30 32 H -2.4821 1.0546 0.8053 0
M  V30 33 H -1.1596 -1.2257 -2.4318 0
M  V30 34 H 2.4616 -0.9305 -0.0837 0
M  V30 35 H -4.6213 -2.0993 0.2776 0
M  V30 36 H -4.2901 -0.4148 0.0762 0
M  V30 37 H 0.1854 -1.1678 -4.4814 0
M  V30 38 H 3.7795 -0.8824 -2.1533 0
M  V30 39 H 2.6553 -0.9888 -4.3611 0
M  V30 END ATOM
M  V30 BEGIN BOND
M  V30 1 1 1 2
M  V30 2 2 2 3
M  V30 3 1 2 4
M  V30 4 1 3 5
M  V30 5 2 4 6
M  V30 6 2 5 7
M  V30 7 1 5 8
M  V30 8 1 7 9
M  V30 9 1 8 10
M  V30 10 1 8 11
M  V30 11 1 9 12
M  V30 12 1 9 13
M  V30 13 1 10 14
M  V30 14 1 10 15
M  V30 15 2 11 16
M  V30 16 1 11 17
M  V30 17 2 12 18
M  V30 18 2 14 19
M  V30 19 1 14 20
M  V30 20 1 16 21
M  V30 21 2 17 22
M  V30 22 2 21 23
M  V30 23 1 6 7
M  V30 24 1 12 15
M  V30 25 1 22 23
M  V30 26 1 3 24
M  V30 27 1 4 25
M  V30 28 1 6 26
M  V30 29 1 8 27
M  V30 30 1 13 28
M  V30 31 1 13 29
M  V30 32 1 13 30
M  V30 33 1 15 31
M  V30 34 1 15 32
M  V30 35 1 16 33
M  V30 36 1 17 34
M  V30 37 1 20 35
M  V30 38 1 20 36
M  V30 39 1 21 37
M  V30 40 1 22 38
M  V30 41 1 23 39
M  V30 END BOND
M  V30 BEGIN COLLECTION
M  V30 MDLV30/STERAC1 ATOMS=(1 8)
M  V30 END COLLECTION
M  V30 END CTAB
M  END
>  <NO.>
1807

>  <Name>
carburazepam

>  <SMILES>
CN1C(=O)CN(C(N)=O)C(c2ccccc2)c2cc(Cl)ccc21

>  <logBB>


>  <Class>
1

>  <MW>
329.09

>  <nHBAcc>
2

>  <nHBDon>
1

>  <SLogP>
2.79

>  <TopoPSA>
66.64

>  <MMFF94 Energy>
-27.679

$$$$
CN1C(=O)CN2CCc3ccccc3C2c2cc(Cl)ccc21
Actelion Java MolfileCreator 2.0

  0  0  0  0  0  0              0 V3000
M  V30 BEGIN CTAB
M  V30 COUNTS 39 42 0 0 0
M  V30 BEGIN ATOM
M  V30 1 Cl -0.8949 -1.3019 -5.3789 0
M  V30 2 C -0.122 -0.9523 -3.8825 0
M  V30 3 C -0.8546 -0.998 -2.6977 0
M  V30 4 C 1.2295 -0.6238 -3.8634 0
M  V30 5 C -0.2383 -0.7074 -1.4654 0
M  V30 6 C 1.8574 -0.344 -2.6484 0
M  V30 7 C 1.1348 -0.3877 -1.4475 0
M  V30 8 C -1.0681 -0.7376 -0.1825 0 CFG=1
M  V30 9 N 1.801 -0.125 -0.2229 0
M  V30 10 N -0.687 -1.8789 0.6812 0
M  V30 11 C -1.1771 0.6224 0.526 0
M  V30 12 C 1.6553 -0.9326 0.9055 0
M  V30 13 C 2.6368 1.0616 -0.1354 0
M  V30 14 C 0.7586 -2.1662 0.7633 0
M  V30 15 C -1.3441 -1.8008 1.9891 0
M  V30 16 C -1.183 0.7101 1.9322 0
M  V30 17 C -1.3485 1.8062 -0.2176 0
M  V30 18 O 2.2459 -0.7096 1.9662 0
M  V30 19 C -1.0433 -0.5268 2.7802 0
M  V30 20 C -1.2846 1.9615 2.559 0
M  V30 21 C -1.4628 3.045 0.4153 0
M  V30 22 C -1.4227 3.1231 1.803 0
M  V30 23 H -1.9104 -1.2586 -2.7313 0
M  V30 24 H 1.8022 -0.592 -4.7865 0
M  V30 25 H 2.9195 -0.1128 -2.649 0
M  V30 26 H -2.1059 -0.9502 -0.4809 0
M  V30 27 H 3.6432 0.8112 -0.4842 0
M  V30 28 H 2.2184 1.8686 -0.7455 0
M  V30 29 H 2.707 1.4147 0.8978 0
M  V30 30 H 1.0722 -2.7288 -0.1249 0
M  V30 31 H 0.9698 -2.8417 1.6021 0
M  V30 32 H -1.0968 -2.68 2.597 0
M  V30 33 H -2.4289 -1.8671 1.8258 0
M  V30 34 H -1.3902 1.7768 -1.3042 0
M  V30 35 H -0.0317 -0.5632 3.1972 0
M  V30 36 H -1.7414 -0.4717 3.6247 0
M  V30 37 H -1.2594 2.033 3.6443 0
M  V30 38 H -1.5829 3.9485 -0.1766 0
M  V30 39 H -1.5051 4.087 2.2979 0
M  V30 END ATOM
M  V30 BEGIN BOND
M  V30 1 1 1 2
M  V30 2 2 2 3
M  V30 3 1 2 4
M  V30 4 1 3 5
M  V30 5 2 4 6
M  V30 6 2 5 7
M  V30 7 1 5 8
M  V30 8 1 7 9
M  V30 9 1 8 10
M  V30 10 1 8 11
M  V30 11 1 9 12
M  V30 12 1 9 13
M  V30 13 1 10 14
M  V30 14 1 10 15
M  V30 15 2 11 16
M  V30 16 1 11 17
M  V30 17 2 12 18
M  V30 18 1 15 19
M  V30 19 1 16 20
M  V30 20 2 17 21
M  V30 21 2 20 22
M  V30 22 1 6 7
M  V30 23 1 12 14
M  V30 24 1 16 19
M  V30 25 1 21 22
M  V30 26 1 3 23
M  V30 27 1 4 24
M  V30 28 1 6 25
M  V30 29 1 8 26
M  V30 30 1 13 27
M  V30 31 1 13 28
M  V30 32 1 13 29
M  V30 33 1 14 30
M  V30 34 1 14 31
M  V30 35 1 15 32
M  V30 36 1 15 33
M  V30 37 1 17 34
M  V30 38 1 19 35
M  V30 39 1 19 36
M  V30 40 1 20 37
M  V30 41 1 21 38
M  V30 42 1 22 39
M  V30 END BOND
M  V30 BEGIN COLLECTION
M  V30 MDLV30/STERAC1 ATOMS=(1 8)
M  V30 END COLLECTION
M  V30 END CTAB
M  END
>  <NO.>
1808

>  <Name>
clazolam

>  <SMILES>
CN1C(=O)CN2CCc3ccccc3C2c2cc(Cl)ccc21

>  <logBB>


>  <Class>
1

>  <MW>
312.1

>  <nHBAcc>
2

>  <nHBDon>
0

>  <SLogP>
3.26

>  <TopoPSA>
23.55

>  <MMFF94 Energy>
97.424

$$$$
CN1C(=O)CN=C(C2=CCCCC2)c2cc(Cl)ccc21
Actelion Java MolfileCreator 2.0

  0  0  0  0  0  0              0 V3000
M  V30 BEGIN CTAB
M  V30 COUNTS 37 39 0 0 0
M  V30 BEGIN ATOM
M  V30 1 Cl -4.4534 0.8894 1.3749 0
M  V30 2 C -3.1095 -0.1619 1.164 0
M  V30 3 C -1.8435 0.3695 0.9402 0
M  V30 4 C -3.293 -1.5389 1.224 0
M  V30 5 C -0.7436 -0.4866 0.7587 0
M  V30 6 C -2.1987 -2.3931 1.0637 0
M  V30 7 C 0.5941 0.1308 0.5292 0
M  V30 8 C -0.9104 -1.8816 0.8325 0
M  V30 9 N 1.667 -0.2121 1.1622 0
M  V30 10 C 0.681 1.2379 -0.4874 0
M  V30 11 N 0.1736 -2.7916 0.6938 0
M  V30 12 C 1.589 -1.3227 2.1149 0
M  V30 13 C -0.0233 1.1775 -1.6334 0
M  V30 14 C 1.6404 2.3627 -0.1848 0
M  V30 15 C 1.3985 -2.6247 1.344 0
M  V30 16 C -0.0195 -3.993 -0.1032 0
M  V30 17 C 0.0208 2.2506 -2.6832 0
M  V30 18 C 1.9455 3.2425 -1.4012 0
M  V30 19 O 2.2796 -3.4877 1.3246 0
M  V30 20 C 0.6819 3.5413 -2.1994 0
M  V30 21 H -1.7122 1.4488 0.9148 0
M  V30 22 H -4.2805 -1.9562 1.4066 0
M  V30 23 H -2.3662 -3.4649 1.1444 0
M  V30 24 H 2.54 -1.3827 2.6555 0
M  V30 25 H 0.8067 -1.1851 2.8695 0
M  V30 26 H -0.6523 0.3215 -1.8637 0
M  V30 27 H 1.2015 2.9827 0.607 0
M  V30 28 H 2.5918 1.9777 0.199 0
M  V30 29 H -0.7034 -3.7958 -0.9349 0
M  V30 30 H 0.9325 -4.3373 -0.519 0
M  V30 31 H -0.421 -4.784 0.5378 0
M  V30 32 H 0.5633 1.86 -3.5523 0
M  V30 33 H -0.999 2.4752 -3.0156 0
M  V30 34 H 2.4123 4.1775 -1.071 0
M  V30 35 H 2.6726 2.7348 -2.0479 0
M  V30 36 H 0.9196 4.1788 -3.0585 0
M  V30 37 H -0.0214 4.1027 -1.571 0
M  V30 END ATOM
M  V30 BEGIN BOND
M  V30 1 1 1 2
M  V30 2 2 2 3
M  V30 3 1 2 4
M  V30 4 1 3 5
M  V30 5 2 4 6
M  V30 6 1 5 7
M  V30 7 2 5 8
M  V30 8 2 7 9
M  V30 9 1 7 10
M  V30 10 1 8 11
M  V30 11 1 9 12
M  V30 12 2 10 13
M  V30 13 1 10 14
M  V30 14 1 11 15
M  V30 15 1 11 16
M  V30 16 1 13 17
M  V30 17 1 14 18
M  V30 18 2 15 19
M  V30 19 1 17 20
M  V30 20 1 6 8
M  V30 21 1 12 15
M  V30 22 1 18 20
M  V30 23 1 3 21
M  V30 24 1 4 22
M  V30 25 1 6 23
M  V30 26 1 12 24
M  V30 27 1 12 25
M  V30 28 1 13 26
M  V30 29 1 14 27
M  V30 30 1 14 28
M  V30 31 1 16 29
M  V30 32 1 16 30
M  V30 33 1 16 31
M  V30 34 1 17 32
M  V30 35 1 17 33
M  V30 36 1 18 34
M  V30 37 1 18 35
M  V30 38 1 20 36
M  V30 39 1 20 37
M  V30 END BOND
M  V30 END CTAB
M  END
>  <NO.>
1809

>  <Name>
tetrazepam

>  <SMILES>
CN1C(=O)CN=C(C2=CCCCC2)c2cc(Cl)ccc21

>  <logBB>


>  <Class>
1

>  <MW>
288.1

>  <nHBAcc>
2

>  <nHBDon>
0

>  <SLogP>
3.61

>  <TopoPSA>
32.67

>  <MMFF94 Energy>
82.281

$$$$
CN1C(=O)CN=C(C2=CCCCC2)c2cc([N+](=O)[O-])ccc21
Actelion Java MolfileCreator 2.0

  0  0  0  0  0  0              0 V3000
M  V30 BEGIN CTAB
M  V30 COUNTS 39 41 0 0 0
M  V30 BEGIN ATOM
M  V30 1 O 2.4113 1.0443 4.6658 0
M  V30 2 N 1.5222 0.5183 3.9827 0 CHG=1
M  V30 3 O 0.474 0.0389 4.4357 0 CHG=-1
M  V30 4 C 1.7223 0.4642 2.529 0
M  V30 5 C 0.7894 -0.197 1.7235 0
M  V30 6 C 2.8452 1.0708 1.9599 0
M  V30 7 C 0.9747 -0.238 0.3302 0
M  V30 8 C 3.0343 1.0093 0.5758 0
M  V30 9 C -0.0381 -0.9619 -0.4864 0
M  V30 10 C 2.1085 0.355 -0.2561 0
M  V30 11 N 0.2468 -1.8239 -1.4053 0
M  V30 12 C -1.4749 -0.6327 -0.2037 0
M  V30 13 N 2.36 0.309 -1.6549 0
M  V30 14 C 1.6574 -2.0758 -1.7095 0
M  V30 15 C -2.3569 -1.6474 -0.1671 0
M  V30 16 C -1.8845 0.8081 -0.0577 0
M  V30 17 C 2.2353 -0.8552 -2.4176 0
M  V30 18 C 2.8455 1.5093 -2.3191 0
M  V30 19 C -3.8272 -1.4524 0.0612 0
M  V30 20 C -3.3899 1.0132 -0.254 0
M  V30 21 O 2.5931 -0.9127 -3.5964 0
M  V30 22 C -4.1887 -0.036 0.514 0
M  V30 23 H -0.0731 -0.6902 2.1696 0
M  V30 24 H 3.585 1.5831 2.5732 0
M  V30 25 H 3.9312 1.4638 0.1588 0
M  V30 26 H 2.2455 -2.3407 -0.8239 0
M  V30 27 H 1.7176 -2.9284 -2.3945 0
M  V30 28 H -2.0235 -2.6704 -0.3324 0
M  V30 29 H -1.6091 1.1647 0.9416 0
M  V30 30 H -1.3488 1.4298 -0.7847 0
M  V30 31 H 3.9384 1.5268 -2.2671 0
M  V30 32 H 2.5509 1.5127 -3.3732 0
M  V30 33 H 2.4292 2.4046 -1.8462 0
M  V30 34 H -4.3521 -1.6833 -0.8734 0
M  V30 35 H -4.1785 -2.1693 0.8118 0
M  V30 36 H -3.671 2.0182 0.0802 0
M  V30 37 H -3.6358 0.951 -1.3217 0
M  V30 38 H -5.2629 0.132 0.3771 0
M  V30 39 H -3.9852 0.0683 1.5875 0
M  V30 END ATOM
M  V30 BEGIN BOND
M  V30 1 2 1 2
M  V30 2 1 2 3
M  V30 3 1 2 4
M  V30 4 2 4 5
M  V30 5 1 4 6
M  V30 6 1 5 7
M  V30 7 2 6 8
M  V30 8 1 7 9
M  V30 9 2 7 10
M  V30 10 2 9 11
M  V30 11 1 9 12
M  V30 12 1 10 13
M  V30 13 1 11 14
M  V30 14 2 12 15
M  V30 15 1 12 16
M  V30 16 1 13 17
M  V30 17 1 13 18
M  V30 18 1 15 19
M  V30 19 1 16 20
M  V30 20 2 17 21
M  V30 21 1 19 22
M  V30 22 1 8 10
M  V30 23 1 14 17
M  V30 24 1 20 22
M  V30 25 1 5 23
M  V30 26 1 6 24
M  V30 27 1 8 25
M  V30 28 1 14 26
M  V30 29 1 14 27
M  V30 30 1 15 28
M  V30 31 1 16 29
M  V30 32 1 16 30
M  V30 33 1 18 31
M  V30 34 1 18 32
M  V30 35 1 18 33
M  V30 36 1 19 34
M  V30 37 1 19 35
M  V30 38 1 20 36
M  V30 39 1 20 37
M  V30 40 1 22 38
M  V30 41 1 22 39
M  V30 END BOND
M  V30 END CTAB
M  END
>  <NO.>
1810

>  <Name>
menitrazepam

>  <SMILES>
CN1C(=O)CN=C(C2=CCCCC2)c2cc([N+](=O)[O-])ccc21

>  <logBB>


>  <Class>
1

>  <MW>
299.13

>  <nHBAcc>
4

>  <nHBDon>
0

>  <SLogP>
2.86

>  <TopoPSA>
75.81

>  <MMFF94 Energy>
114.9

$$$$
CN1C(=O)CN=C(c2ccccc2)c2cc([N+](=O)[O-])ccc21
Actelion Java MolfileCreator 2.0

  0  0  0  0  0  0              0 V3000
M  V30 BEGIN CTAB
M  V30 COUNTS 35 37 0 0 0
M  V30 BEGIN ATOM
M  V30 1 O 1.7738 4.0348 0.4029 0
M  V30 2 N 1.0929 3.9701 -0.6293 0 CHG=1
M  V30 3 O 1.0263 4.8603 -1.4879 0 CHG=-1
M  V30 4 C 0.3118 2.7468 -0.8544 0
M  V30 5 C 0.3288 1.7249 0.101 0
M  V30 6 C -0.4475 2.6135 -2.0203 0
M  V30 7 C -0.4134 0.551 -0.1199 0
M  V30 8 C -1.1983 1.4517 -2.2251 0
M  V30 9 C -0.3713 -0.5075 0.9304 0
M  V30 10 C -1.1959 0.4093 -1.2815 0
M  V30 11 N -1.4237 -1.0852 1.4073 0
M  V30 12 C 0.9569 -0.9197 1.4842 0
M  V30 13 N -1.9942 -0.7404 -1.5306 0
M  V30 14 C -2.7326 -0.7436 0.8434 0
M  V30 15 C 1.0465 -1.2861 2.8325 0
M  V30 16 C 2.0984 -0.9713 0.6737 0
M  V30 17 C -2.8278 -1.3149 -0.5672 0
M  V30 18 C -2.0119 -1.3048 -2.8715 0
M  V30 19 C 2.2738 -1.6717 3.3736 0
M  V30 20 C 3.3243 -1.3577 1.2199 0
M  V30 21 O -3.6214 -2.2199 -0.8362 0
M  V30 22 C 3.4118 -1.7028 2.5686 0
M  V30 23 H 0.903 1.839 1.0196 0
M  V30 24 H -0.4779 3.4023 -2.7705 0
M  V30 25 H -1.8055 1.3836 -3.126 0
M  V30 26 H -3.508 -1.2164 1.4561 0
M  V30 27 H -2.9352 0.333 0.8545 0
M  V30 28 H 0.1612 -1.2728 3.4648 0
M  V30 29 H 2.0487 -0.7349 -0.385 0
M  V30 30 H -1.0386 -1.1748 -3.3553 0
M  V30 31 H -2.7942 -0.8096 -3.4552 0
M  V30 32 H -2.2349 -2.3758 -2.836 0
M  V30 33 H 2.3393 -1.9531 4.4217 0
M  V30 34 H 4.2113 -1.3995 0.5923 0
M  V30 35 H 4.3664 -2.0073 2.9912 0
M  V30 END ATOM
M  V30 BEGIN BOND
M  V30 1 2 1 2
M  V30 2 1 2 3
M  V30 3 1 2 4
M  V30 4 2 4 5
M  V30 5 1 4 6
M  V30 6 1 5 7
M  V30 7 2 6 8
M  V30 8 1 7 9
M  V30 9 2 7 10
M  V30 10 2 9 11
M  V30 11 1 9 12
M  V30 12 1 10 13
M  V30 13 1 11 14
M  V30 14 2 12 15
M  V30 15 1 12 16
M  V30 16 1 13 17
M  V30 17 1 13 18
M  V30 18 1 15 19
M  V30 19 2 16 20
M  V30 20 2 17 21
M  V30 21 2 19 22
M  V30 22 1 8 10
M  V30 23 1 14 17
M  V30 24 1 20 22
M  V30 25 1 5 23
M  V30 26 1 6 24
M  V30 27 1 8 25
M  V30 28 1 14 26
M  V30 29 1 14 27
M  V30 30 1 15 28
M  V30 31 1 16 29
M  V30 32 1 18 30
M  V30 33 1 18 31
M  V30 34 1 18 32
M  V30 35 1 19 33
M  V30 36 1 20 34
M  V30 37 1 22 35
M  V30 END BOND
M  V30 END CTAB
M  END
>  <NO.>
1811

>  <Name>
nimetazepam

>  <SMILES>
CN1C(=O)CN=C(c2ccccc2)c2cc([N+](=O)[O-])ccc21

>  <logBB>


>  <Class>
1

>  <MW>
295.1

>  <nHBAcc>
4

>  <nHBDon>
0

>  <SLogP>
2.41

>  <TopoPSA>
75.81

>  <MMFF94 Energy>
139.59

$$$$
CN1C(=O)CN=C(c2ccccc2F)c2cc(Cl)ccc21
Actelion Java MolfileCreator 2.0

  0  0  0  0  0  0              0 V3000
M  V30 BEGIN CTAB
M  V30 COUNTS 33 35 0 0 0
M  V30 BEGIN ATOM
M  V30 1 Cl -4.5779 0.7346 0.4081 0
M  V30 2 C -3.0968 -0.1367 0.4755 0
M  V30 3 C -1.8877 0.5513 0.4448 0
M  V30 4 C -3.115 -1.5241 0.5685 0
M  V30 5 C -0.6761 -0.1585 0.4927 0
M  V30 6 C -1.9116 -2.2314 0.6376 0
M  V30 7 C 0.5927 0.6238 0.4592 0
M  V30 8 C -0.6774 -1.5608 0.6047 0
M  V30 9 N 1.5665 0.4448 1.291 0
M  V30 10 C 0.7577 1.6953 -0.5684 0
M  V30 11 N 0.52 -2.3217 0.7009 0
M  V30 12 C 1.4586 -0.6401 2.2721 0
M  V30 13 C 0.2542 1.5573 -1.8642 0
M  V30 14 C 1.468 2.8557 -0.2325 0
M  V30 15 C 1.5765 -1.9769 1.5465 0
M  V30 16 C 0.6271 -3.5537 -0.0647 0
M  V30 17 F -0.3908 0.4439 -2.2426 0
M  V30 18 C 0.4254 2.5693 -2.8069 0
M  V30 19 C 1.6413 3.8717 -1.1762 0
M  V30 20 O 2.5494 -2.714 1.7249 0
M  V30 21 C 1.1167 3.7304 -2.4614 0
M  V30 22 H -1.8923 1.6371 0.3909 0
M  V30 23 H -4.0592 -2.0626 0.599 0
M  V30 24 H -1.9549 -3.3135 0.7383 0
M  V30 25 H 2.2969 -0.5574 2.9726 0
M  V30 26 H 0.5423 -0.5866 2.8702 0
M  V30 27 H 1.8901 2.9705 0.7641 0
M  V30 28 H 0.0879 -3.4639 -1.0132 0
M  V30 29 H 1.6747 -3.7794 -0.2877 0
M  V30 30 H 0.2165 -4.3772 0.5277 0
M  V30 31 H 0.0264 2.4415 -3.8087 0
M  V30 32 H 2.1928 4.7703 -0.9085 0
M  V30 33 H 1.2569 4.52 -3.196 0
M  V30 END ATOM
M  V30 BEGIN BOND
M  V30 1 1 1 2
M  V30 2 2 2 3
M  V30 3 1 2 4
M  V30 4 1 3 5
M  V30 5 2 4 6
M  V30 6 1 5 7
M  V30 7 2 5 8
M  V30 8 2 7 9
M  V30 9 1 7 10
M  V30 10 1 8 11
M  V30 11 1 9 12
M  V30 12 2 10 13
M  V30 13 1 10 14
M  V30 14 1 11 15
M  V30 15 1 11 16
M  V30 16 1 13 17
M  V30 17 1 13 18
M  V30 18 2 14 19
M  V30 19 2 15 20
M  V30 20 2 18 21
M  V30 21 1 6 8
M  V30 22 1 12 15
M  V30 23 1 19 21
M  V30 24 1 3 22
M  V30 25 1 4 23
M  V30 26 1 6 24
M  V30 27 1 12 25
M  V30 28 1 12 26
M  V30 29 1 14 27
M  V30 30 1 16 28
M  V30 31 1 16 29
M  V30 32 1 16 30
M  V30 33 1 18 31
M  V30 34 1 19 32
M  V30 35 1 21 33
M  V30 END BOND
M  V30 END CTAB
M  END
>  <NO.>
1812

>  <Name>
fludiazepam

>  <SMILES>
CN1C(=O)CN=C(c2ccccc2F)c2cc(Cl)ccc21

>  <logBB>


>  <Class>
1

>  <MW>
302.06

>  <nHBAcc>
2

>  <nHBDon>
0

>  <SLogP>
3.29

>  <TopoPSA>
32.67

>  <MMFF94 Energy>
104.06

$$$$
CN1C(=O)OC(C)(C)C1=O
Actelion Java MolfileCreator 2.0

  0  0  0  0  0  0              0 V3000
M  V30 BEGIN CTAB
M  V30 COUNTS 19 19 0 0 0
M  V30 BEGIN ATOM
M  V30 1 O 1.8015 1.8015 1.4096 0
M  V30 2 C 1.0487 1.0574 0.8015 0
M  V30 3 O 1.0332 0.9634 -0.5591 0
M  V30 4 N 0.1321 0.2261 1.3411 0
M  V30 5 C 0.0395 0.0051 -0.9509 0
M  V30 6 C -0.5282 -0.4521 0.372 0
M  V30 7 C -0.0965 0.0935 2.7572 0
M  V30 8 C -1.0204 0.698 -1.7938 0
M  V30 9 C 0.7131 -1.1434 -1.6863 0
M  V30 10 O -1.4153 -1.2783 0.5228 0
M  V30 11 H -0.8839 -0.6355 2.9633 0
M  V30 12 H 0.8356 -0.2186 3.2375 0
M  V30 13 H -0.3778 1.0704 3.1623 0
M  V30 14 H -0.5769 1.1354 -2.6951 0
M  V30 15 H -1.4853 1.5224 -1.2404 0
M  V30 16 H -1.8131 0.0046 -2.0935 0
M  V30 17 H -0.0094 -1.9113 -1.9816 0
M  V30 18 H 1.2288 -0.7828 -2.5831 0
M  V30 19 H 1.4734 -1.6205 -1.0568 0
M  V30 END ATOM
M  V30 BEGIN BOND
M  V30 1 2 1 2
M  V30 2 1 2 3
M  V30 3 1 2 4
M  V30 4 1 3 5
M  V30 5 1 4 6
M  V30 6 1 4 7
M  V30 7 1 5 8
M  V30 8 1 5 9
M  V30 9 2 6 10
M  V30 10 1 5 6
M  V30 11 1 7 11
M  V30 12 1 7 12
M  V30 13 1 7 13
M  V30 14 1 8 14
M  V30 15 1 8 15
M  V30 16 1 8 16
M  V30 17 1 9 17
M  V30 18 1 9 18
M  V30 19 1 9 19
M  V30 END BOND
M  V30 END CTAB
M  END
>  <NO.>
1813

>  <Name>
trimethadione

>  <SMILES>
CN1C(=O)OC(C)(C)C1=O

>  <logBB>


>  <Class>
1

>  <MW>
143.06

>  <nHBAcc>
3

>  <nHBDon>
0

>  <SLogP>
0.37

>  <TopoPSA>
46.61

>  <MMFF94 Energy>
-45.898

$$$$
CN1C(=S)CN=C(c2ccccc2)c2cc(Cl)ccc21
Actelion Java MolfileCreator 2.0

  0  0  0  0  0  0              0 V3000
M  V30 BEGIN CTAB
M  V30 COUNTS 33 35 0 0 0
M  V30 BEGIN ATOM
M  V30 1 Cl -4.6018 -0.7385 -0.4923 0
M  V30 2 C -3.1166 -0.4928 0.3384 0
M  V30 3 C -1.9114 -0.6413 -0.3408 0
M  V30 4 C -3.1277 -0.1551 1.6881 0
M  V30 5 C -0.6979 -0.4334 0.3347 0
M  V30 6 C -1.9212 0.0343 2.3671 0
M  V30 7 C 0.57 -0.6357 -0.4215 0
M  V30 8 C -0.6919 -0.0999 1.701 0
M  V30 9 N 1.5496 -1.3584 0.0146 0
M  V30 10 C 0.7234 0.0124 -1.7622 0
M  V30 11 N 0.515 0.095 2.439 0
M  V30 12 C 1.4334 -1.959 1.3485 0
M  V30 13 C 0.1424 1.2562 -2.0421 0
M  V30 14 C 1.4894 -0.6291 -2.7429 0
M  V30 15 C 1.5681 -0.8321 2.3788 0
M  V30 16 C 0.5779 1.2892 3.2887 0
M  V30 17 C 0.3048 1.8353 -3.3027 0
M  V30 18 C 1.6493 -0.0467 -4.0012 0
M  V30 19 S 2.9412 -0.795 3.3621 0
M  V30 20 C 1.0537 1.1823 -4.2813 0
M  V30 21 H -1.9178 -0.9328 -1.3885 0
M  V30 22 H -4.0691 -0.0495 2.2223 0
M  V30 23 H -1.9541 0.2687 3.4289 0
M  V30 24 H 0.4928 -2.5068 1.4787 0
M  V30 25 H 2.2355 -2.6967 1.461 0
M  V30 26 H -0.4224 1.7963 -1.2877 0
M  V30 27 H 1.9646 -1.584 -2.529 0
M  V30 28 H 0.3307 1.0057 4.3165 0
M  V30 29 H 1.5822 1.7216 3.2679 0
M  V30 30 H -0.1175 2.0579 2.9359 0
M  V30 31 H -0.1448 2.8011 -3.5196 0
M  V30 32 H 2.2439 -0.5501 -4.7591 0
M  V30 33 H 1.183 1.6367 -5.2605 0
M  V30 END ATOM
M  V30 BEGIN BOND
M  V30 1 1 1 2
M  V30 2 2 2 3
M  V30 3 1 2 4
M  V30 4 1 3 5
M  V30 5 2 4 6
M  V30 6 1 5 7
M  V30 7 2 5 8
M  V30 8 2 7 9
M  V30 9 1 7 10
M  V30 10 1 8 11
M  V30 11 1 9 12
M  V30 12 2 10 13
M  V30 13 1 10 14
M  V30 14 1 11 15
M  V30 15 1 11 16
M  V30 16 1 13 17
M  V30 17 2 14 18
M  V30 18 2 15 19
M  V30 19 2 17 20
M  V30 20 1 6 8
M  V30 21 1 12 15
M  V30 22 1 18 20
M  V30 23 1 3 21
M  V30 24 1 4 22
M  V30 25 1 6 23
M  V30 26 1 12 24
M  V30 27 1 12 25
M  V30 28 1 13 26
M  V30 29 1 14 27
M  V30 30 1 16 28
M  V30 31 1 16 29
M  V30 32 1 16 30
M  V30 33 1 17 31
M  V30 34 1 18 32
M  V30 35 1 20 33
M  V30 END BOND
M  V30 END CTAB
M  END
>  <NO.>
1814

>  <Name>
sulazepam

>  <SMILES>
CN1C(=S)CN=C(c2ccccc2)c2cc(Cl)ccc21

>  <logBB>


>  <Class>
1

>  <MW>
300.05

>  <nHBAcc>
2

>  <nHBDon>
0

>  <SLogP>
3.95

>  <TopoPSA>
15.6

>  <MMFF94 Energy>
110.46

$$$$
CN1C(C(=O)Nc2ccccn2)=C(O)c2sccc2S1(=O)=O
Actelion Java MolfileCreator 2.0

  0  0  0  0  0  0              0 V3000
M  V30 BEGIN CTAB
M  V30 COUNTS 33 35 0 0 0
M  V30 BEGIN ATOM
M  V30 1 S 2.0785 0.4985 -2.5779 0
M  V30 2 O 2.8632 -0.1179 -3.6231 0
M  V30 3 O 1.2538 1.6646 -2.8043 0
M  V30 4 N 1.1472 -0.6809 -1.7983 0
M  V30 5 C 3.2241 1.0041 -1.4126 0
M  V30 6 C 0.8353 -0.429 -0.4008 0
M  V30 7 C 0.1587 -1.3548 -2.6621 0
M  V30 8 C 2.9142 0.7969 -0.0881 0
M  V30 9 C 4.4776 1.6204 -1.6487 0
M  V30 10 C 1.7096 0.2115 0.4151 0
M  V30 11 C -0.4353 -0.989 0.1692 0
M  V30 12 S 4.2018 1.372 0.8973 0
M  V30 13 C 5.122 1.8764 -0.4592 0
M  V30 14 O 1.5187 0.4032 1.7722 0
M  V30 15 O -0.6863 -2.1839 0.0782 0
M  V30 16 N -1.2173 -0.0272 0.7591 0
M  V30 17 C -2.4411 -0.1894 1.4083 0
M  V30 18 N -2.9105 0.96 1.9364 0
M  V30 19 C -3.1197 -1.3946 1.518 0
M  V30 20 C -4.0927 0.9099 2.5907 0
M  V30 21 C -4.3362 -1.4185 2.1995 0
M  V30 22 C -4.836 -0.2451 2.7479 0
M  V30 23 H 0.4993 -1.3922 -3.7017 0
M  V30 24 H -0.8044 -0.8364 -2.6351 0
M  V30 25 H 0.0289 -2.394 -2.3459 0
M  V30 26 H 4.8838 1.856 -2.6252 0
M  V30 27 H 6.0908 2.3353 -0.3141 0
M  V30 28 H 0.7801 -0.1364 2.1047 0
M  V30 29 H -0.9354 0.9469 0.7315 0
M  V30 30 H -2.7424 -2.3157 1.091 0
M  V30 31 H -4.437 1.8563 2.9988 0
M  V30 32 H -4.8875 -2.3498 2.2974 0
M  V30 33 H -5.7795 -0.2316 3.2821 0
M  V30 END ATOM
M  V30 BEGIN BOND
M  V30 1 2 1 2
M  V30 2 2 1 3
M  V30 3 1 1 4
M  V30 4 1 1 5
M  V30 5 1 4 6
M  V30 6 1 4 7
M  V30 7 2 5 8
M  V30 8 1 5 9
M  V30 9 2 6 10
M  V30 10 1 6 11
M  V30 11 1 8 12
M  V30 12 2 9 13
M  V30 13 1 10 14
M  V30 14 2 11 15
M  V30 15 1 11 16
M  V30 16 1 16 17
M  V30 17 2 17 18
M  V30 18 1 17 19
M  V30 19 1 18 20
M  V30 20 2 19 21
M  V30 21 2 20 22
M  V30 22 1 8 10
M  V30 23 1 12 13
M  V30 24 1 21 22
M  V30 25 1 7 23
M  V30 26 1 7 24
M  V30 27 1 7 25
M  V30 28 1 9 26
M  V30 29 1 13 27
M  V30 30 1 14 28
M  V30 31 1 16 29
M  V30 32 1 19 30
M  V30 33 1 20 31
M  V30 34 1 21 32
M  V30 35 1 22 33
M  V30 END BOND
M  V30 END CTAB
M  END
>  <NO.>
1815

>  <Name>
tenoxicam

>  <SMILES>
CN1C(C(=O)Nc2ccccn2)=C(O)c2sccc2S1(=O)=O

>  <logBB>


>  <Class>
-1

>  <MW>
337.02

>  <nHBAcc>
6

>  <nHBDon>
2

>  <SLogP>
1.64

>  <TopoPSA>
99.6

>  <MMFF94 Energy>
-16.18

$$$$
CN1C(CC(=O)c2ccccc2)CCCC1CC(O)c1ccccc1
Actelion Java MolfileCreator 2.0

  0  0  0  0  0  0              0 V3000
M  V30 BEGIN CTAB
M  V30 COUNTS 52 54 0 0 0
M  V30 BEGIN ATOM
M  V30 1 O 1.27 -4.1322 0.6348 0
M  V30 2 C 1.223 -3.1566 1.3816 0
M  V30 3 C 0.4902 -3.2802 2.6771 0
M  V30 4 C 1.9115 -1.8407 1.0554 0
M  V30 5 C -0.4336 -4.3244 2.8212 0
M  V30 6 C 0.7071 -2.4032 3.7469 0
M  V30 7 C 2.101 -1.5968 -0.4638 0
M  V30 8 C -1.1433 -4.4801 4.0133 0
M  V30 9 C -0.0054 -2.5624 4.9388 0
M  V30 10 N 0.9788 -0.9113 -1.1573 0
M  V30 11 C 3.3962 -0.8063 -0.724 0
M  V30 12 C -0.9303 -3.5974 5.0702 0
M  V30 13 C 0.7674 0.5019 -0.7429 0
M  V30 14 C -0.2352 -1.7283 -1.1348 0
M  V30 15 C 3.277 0.6381 -0.268 0
M  V30 16 C 2.0763 1.3003 -0.9302 0
M  V30 17 C -0.3897 1.1746 -1.5328 0
M  V30 18 C -0.6103 2.6626 -1.2202 0
M  V30 19 O -0.7647 2.8476 0.1874 0
M  V30 20 C -1.8189 3.2239 -1.9457 0
M  V30 21 C -1.6493 4.0877 -3.0375 0
M  V30 22 C -3.1231 2.8846 -1.5505 0
M  V30 23 C -2.757 4.6051 -3.712 0
M  V30 24 C -4.2289 3.4028 -2.2259 0
M  V30 25 C -4.0454 4.2636 -3.3056 0
M  V30 26 H 1.3597 -1.0126 1.5065 0
M  V30 27 H 2.8895 -1.8885 1.5507 0
M  V30 28 H -0.605 -5.0217 2.0031 0
M  V30 29 H 1.4329 -1.5979 3.6856 0
M  V30 30 H 2.2549 -2.5622 -0.9632 0
M  V30 31 H -1.8593 -5.2917 4.1159 0
M  V30 32 H 0.1645 -1.8804 5.7688 0
M  V30 33 H 3.6232 -0.8265 -1.7984 0
M  V30 34 H 4.2455 -1.2855 -0.2227 0
M  V30 35 H -1.4819 -3.7197 5.9994 0
M  V30 36 H 0.4951 0.5299 0.3188 0
M  V30 37 H -0.014 -2.771 -1.3882 0
M  V30 38 H -0.9467 -1.3988 -1.8984 0
M  V30 39 H -0.7331 -1.7041 -0.1598 0
M  V30 40 H 4.1905 1.1863 -0.5245 0
M  V30 41 H 3.1734 0.6861 0.8222 0
M  V30 42 H 2.2817 1.4254 -2.0015 0
M  V30 43 H 1.9785 2.3046 -0.5042 0
M  V30 44 H -1.3198 0.6458 -1.2902 0
M  V30 45 H -0.2252 1.052 -2.6117 0
M  V30 46 H 0.269 3.2439 -1.5164 0
M  V30 47 H -1.2546 3.68 0.3104 0
M  V30 48 H -0.6521 4.3626 -3.3746 0
M  V30 49 H -3.2812 2.209 -0.7116 0
M  V30 50 H -2.6143 5.2729 -4.5577 0
M  V30 51 H -5.2334 3.1316 -1.9113 0
M  V30 52 H -4.9065 4.6652 -3.8333 0
M  V30 END ATOM
M  V30 BEGIN BOND
M  V30 1 2 1 2
M  V30 2 1 2 3
M  V30 3 1 2 4
M  V30 4 2 3 5
M  V30 5 1 3 6
M  V30 6 1 4 7
M  V30 7 1 5 8
M  V30 8 2 6 9
M  V30 9 1 7 10
M  V30 10 1 7 11
M  V30 11 2 8 12
M  V30 12 1 10 13
M  V30 13 1 10 14
M  V30 14 1 11 15
M  V30 15 1 13 16
M  V30 16 1 13 17
M  V30 17 1 17 18
M  V30 18 1 18 19
M  V30 19 1 18 20
M  V30 20 2 20 21
M  V30 21 1 20 22
M  V30 22 1 21 23
M  V30 23 2 22 24
M  V30 24 2 23 25
M  V30 25 1 9 12
M  V30 26 1 15 16
M  V30 27 1 24 25
M  V30 28 1 4 26
M  V30 29 1 4 27
M  V30 30 1 5 28
M  V30 31 1 6 29
M  V30 32 1 7 30
M  V30 33 1 8 31
M  V30 34 1 9 32
M  V30 35 1 11 33
M  V30 36 1 11 34
M  V30 37 1 12 35
M  V30 38 1 13 36
M  V30 39 1 14 37
M  V30 40 1 14 38
M  V30 41 1 14 39
M  V30 42 1 15 40
M  V30 43 1 15 41
M  V30 44 1 16 42
M  V30 45 1 16 43
M  V30 46 1 17 44
M  V30 47 1 17 45
M  V30 48 1 18 46
M  V30 49 1 19 47
M  V30 50 1 21 48
M  V30 51 1 22 49
M  V30 52 1 23 50
M  V30 53 1 24 51
M  V30 54 1 25 52
M  V30 END BOND
M  V30 END CTAB
M  END
>  <NO.>
1816

>  <Name>
lobeline

>  <SMILES>
CN1C(CC(=O)c2ccccc2)CCCC1CC(O)c1ccccc1

>  <logBB>


>  <Class>
1

>  <MW>
337.2

>  <nHBAcc>
3

>  <nHBDon>
1

>  <SLogP>
4.24

>  <TopoPSA>
40.54

>  <MMFF94 Energy>
74.729

$$$$
CN1C(CCl)Nc2cc(Cl)c(S(N)(=O)=O)cc2S1(=O)=O
Actelion Java MolfileCreator 2.0

  0  0  0  0  0  0              0 V3000
M  V30 BEGIN CTAB
M  V30 COUNTS 31 32 0 0 0
M  V30 BEGIN ATOM
M  V30 1 Cl -0.7679 -2.1342 3.7585 0
M  V30 2 C -0.1981 -1.337 2.3359 0
M  V30 3 C 1.0438 -1.5785 1.7494 0
M  V30 4 C -1.0693 -0.4009 1.751 0
M  V30 5 S 2.1951 -2.7213 2.4425 0
M  V30 6 C 1.4087 -0.8864 0.5895 0
M  V30 7 C -0.7304 0.303 0.5867 0
M  V30 8 O 2.3824 -2.4252 3.8415 0
M  V30 9 O 3.3126 -2.8625 1.5368 0
M  V30 10 N 1.3841 -4.1872 2.3441 0
M  V30 11 C 0.5139 0.0311 0.025 0
M  V30 12 N -1.6257 1.208 0.0606 0
M  V30 13 S 1.0027 0.9157 -1.4103 0
M  V30 14 C -1.4662 1.8949 -1.2139 0 CFG=1
M  V30 15 O 0.7183 0.0774 -2.5537 0
M  V30 16 O 2.3339 1.4336 -1.1776 0
M  V30 17 N -0.0544 2.2173 -1.4165 0
M  V30 18 C -2.1807 1.1048 -2.3338 0
M  V30 19 C 0.2399 3.2599 -2.4087 0
M  V30 20 Cl -2.5361 2.1024 -3.7717 0
M  V30 21 H -2.0351 -0.22 2.2209 0
M  V30 22 H 2.3803 -1.0471 0.1229 0
M  V30 23 H 1.2004 -4.5446 3.2833 0
M  V30 24 H 1.91 -4.8337 1.7543 0
M  V30 25 H -2.4789 1.4057 0.5721 0
M  V30 26 H -2.0045 2.8444 -1.0914 0
M  V30 27 H -1.6384 0.2185 -2.6633 0
M  V30 28 H -3.1547 0.757 -1.9713 0
M  V30 29 H 1.2046 3.7251 -2.1831 0
M  V30 30 H 0.2749 2.8492 -3.4213 0
M  V30 31 H -0.5109 4.0554 -2.375 0
M  V30 END ATOM
M  V30 BEGIN BOND
M  V30 1 1 1 2
M  V30 2 2 2 3
M  V30 3 1 2 4
M  V30 4 1 3 5
M  V30 5 1 3 6
M  V30 6 2 4 7
M  V30 7 2 5 8
M  V30 8 2 5 9
M  V30 9 1 5 10
M  V30 10 2 6 11
M  V30 11 1 7 12
M  V30 12 1 11 13
M  V30 13 1 12 14
M  V30 14 2 13 15
M  V30 15 2 13 16
M  V30 16 1 13 17
M  V30 17 1 14 18
M  V30 18 1 17 19
M  V30 19 1 18 20
M  V30 20 1 7 11
M  V30 21 1 14 17
M  V30 22 1 4 21
M  V30 23 1 6 22
M  V30 24 1 10 23
M  V30 25 1 10 24
M  V30 26 1 12 25
M  V30 27 1 14 26
M  V30 28 1 18 27
M  V30 29 1 18 28
M  V30 30 1 19 29
M  V30 31 1 19 30
M  V30 32 1 19 31
M  V30 END BOND
M  V30 BEGIN COLLECTION
M  V30 MDLV30/STERAC1 ATOMS=(1 14)
M  V30 END COLLECTION
M  V30 END CTAB
M  END
>  <NO.>
1817

>  <Name>
methyclothiazide

>  <SMILES>
CN1C(CCl)Nc2cc(Cl)c(S(N)(=O)=O)cc2S1(=O)=O

>  <logBB>


>  <Class>
-1

>  <MW>
358.96

>  <nHBAcc>
5

>  <nHBDon>
2

>  <SLogP>
0.6

>  <TopoPSA>
109.57

>  <MMFF94 Energy>
-166.09

$$$$
CN1C(CSCC(F)(F)F)Nc2cc(Cl)c(S(N)(=O)=O)cc2S1(=O)=O
Actelion Java MolfileCreator 2.0

  0  0  0  0  0  0              0 V3000
M  V30 BEGIN CTAB
M  V30 COUNTS 38 39 0 0 0
M  V30 BEGIN ATOM
M  V30 1 Cl -4.4532 2.3961 -0.4275 0
M  V30 2 C -3.1266 1.4725 0.1818 0
M  V30 3 C -3.2628 0.248 0.8355 0
M  V30 4 C -1.8442 2.0126 -0.0152 0
M  V30 5 S -4.8421 -0.4781 1.1329 0
M  V30 6 C -2.1248 -0.4238 1.295 0
M  V30 7 C -0.6857 1.3497 0.4147 0
M  V30 8 O -5.7028 0.4866 1.7721 0
M  V30 9 O -4.6497 -1.8039 1.676 0
M  V30 10 N -5.4422 -0.7393 -0.4119 0
M  V30 11 C -0.8601 0.134 1.0739 0
M  V30 12 N 0.5449 1.9456 0.2135 0
M  V30 13 S 0.5523 -0.699 1.698 0
M  V30 14 C 1.8125 1.3071 0.5136 0 CFG=1
M  V30 15 O 0.9703 -1.6895 0.7292 0
M  V30 16 O 0.2753 -1.0782 3.0676 0
M  V30 17 N 1.7016 0.519 1.7398 0
M  V30 18 C 2.4538 0.5672 -0.6995 0
M  V30 19 C 2.9698 0.1741 2.3962 0
M  V30 20 S 1.3445 0.0317 -2.0716 0
M  V30 21 C 2.2021 -1.5124 -2.5842 0
M  V30 22 C 3.5931 -1.3275 -3.1711 0
M  V30 23 F 3.5821 -0.5238 -4.2565 0
M  V30 24 F 4.452 -0.794 -2.2721 0
M  V30 25 F 4.1071 -2.5188 -3.5554 0
M  V30 26 H -1.7505 2.9728 -0.52 0
M  V30 27 H -2.2099 -1.3701 1.8281 0
M  V30 28 H -6.269 -0.1596 -0.5657 0
M  V30 29 H -5.604 -1.7365 -0.5569 0
M  V30 30 H 0.5876 2.7449 -0.4085 0
M  V30 31 H 2.4996 2.1312 0.7512 0
M  V30 32 H 3.0443 -0.2853 -0.3535 0
M  V30 33 H 3.159 1.2604 -1.1735 0
M  V30 34 H 2.7913 -0.1079 3.4383 0
M  V30 35 H 3.4743 -0.6496 1.8842 0
M  V30 36 H 3.6427 1.0372 2.4101 0
M  V30 37 H 2.2453 -2.1887 -1.7251 0
M  V30 38 H 1.5643 -1.9909 -3.3342 0
M  V30 END ATOM
M  V30 BEGIN BOND
M  V30 1 1 1 2
M  V30 2 2 2 3
M  V30 3 1 2 4
M  V30 4 1 3 5
M  V30 5 1 3 6
M  V30 6 2 4 7
M  V30 7 2 5 8
M  V30 8 2 5 9
M  V30 9 1 5 10
M  V30 10 2 6 11
M  V30 11 1 7 12
M  V30 12 1 11 13
M  V30 13 1 12 14
M  V30 14 2 13 15
M  V30 15 2 13 16
M  V30 16 1 13 17
M  V30 17 1 14 18
M  V30 18 1 17 19
M  V30 19 1 18 20
M  V30 20 1 20 21
M  V30 21 1 21 22
M  V30 22 1 22 23
M  V30 23 1 22 24
M  V30 24 1 22 25
M  V30 25 1 7 11
M  V30 26 1 14 17
M  V30 27 1 4 26
M  V30 28 1 6 27
M  V30 29 1 10 28
M  V30 30 1 10 29
M  V30 31 1 12 30
M  V30 32 1 14 31
M  V30 33 1 18 32
M  V30 34 1 18 33
M  V30 35 1 19 34
M  V30 36 1 19 35
M  V30 37 1 19 36
M  V30 38 1 21 37
M  V30 39 1 21 38
M  V30 END BOND
M  V30 BEGIN COLLECTION
M  V30 MDLV30/STERAC1 ATOMS=(1 14)
M  V30 END COLLECTION
M  V30 END CTAB
M  END
>  <NO.>
1818

>  <Name>
polythiazide

>  <SMILES>
CN1C(CSCC(F)(F)F)Nc2cc(Cl)c(S(N)(=O)=O)cc2S1(=O)=O

>  <logBB>


>  <Class>
-1

>  <MW>
438.97

>  <nHBAcc>
6

>  <nHBDon>
2

>  <SLogP>
1.66

>  <TopoPSA>
109.57

>  <MMFF94 Energy>
-125.61

$$$$
CN1C2CCC1CC(OC(=O)C(C)(CO)c1ccccc1)C2
Actelion Java MolfileCreator 2.0

  0  0  0  0  0  0              0 V3000
M  V30 BEGIN CTAB
M  V30 COUNTS 47 49 0 0 0
M  V30 BEGIN ATOM
M  V30 1 O -1.673 -0.0796 -1.5933 0
M  V30 2 C -0.5328 0.3437 -1.4272 0
M  V30 3 O -0.0711 0.8194 -0.2338 0
M  V30 4 C 0.5628 0.3282 -2.5125 0
M  V30 5 C -1.0128 0.8382 0.8567 0
M  V30 6 C 1.2694 -1.0457 -2.513 0
M  V30 7 C 1.6296 1.4282 -2.2654 0
M  V30 8 C -0.1592 0.6568 -3.8432 0
M  V30 9 C -1.1345 -0.5595 1.4828 0
M  V30 10 C -0.529 1.8807 1.875 0
M  V30 11 C 1.8911 -1.5175 -1.3382 0
M  V30 12 C 1.3399 -1.8629 -3.6542 0
M  V30 13 O 1.0918 2.7432 -2.4036 0
M  V30 14 C -1.7273 -0.5167 2.9019 0
M  V30 15 C -1.1782 1.6982 3.2575 0
M  V30 16 C 2.5462 -2.7511 -1.3062 0
M  V30 17 C 1.9963 -3.0975 -3.621 0
M  V30 18 N -0.9573 0.353 3.7976 0
M  V30 19 C -3.0753 0.2164 2.9292 0
M  V30 20 C -2.7101 1.6892 3.1673 0
M  V30 21 C 2.5985 -3.5415 -2.4484 0
M  V30 22 C 0.4253 -0.0266 4.0201 0
M  V30 23 H -1.991 1.1651 0.4803 0
M  V30 24 H 2.441 1.3343 -2.9979 0
M  V30 25 H 2.0843 1.3567 -1.2711 0
M  V30 26 H -0.8798 -0.1228 -4.1184 0
M  V30 27 H -0.7289 1.5913 -3.7715 0
M  V30 28 H 0.5516 0.766 -4.6705 0
M  V30 29 H -1.7671 -1.1874 0.8431 0
M  V30 30 H -0.156 -1.0554 1.4894 0
M  V30 31 H -0.7547 2.8827 1.4873 0
M  V30 32 H 0.5645 1.8495 1.9578 0
M  V30 33 H 1.8728 -0.9298 -0.4222 0
M  V30 34 H 0.8865 -1.5654 -4.5962 0
M  V30 35 H 1.8204 3.3678 -2.2408 0
M  V30 36 H -1.8293 -1.531 3.3026 0
M  V30 37 H -0.8349 2.4785 3.9454 0
M  V30 38 H 3.0133 -3.0942 -0.3866 0
M  V30 39 H 2.0332 -3.7137 -4.5161 0
M  V30 40 H -3.6532 0.0816 2.0091 0
M  V30 41 H -3.6916 -0.1422 3.7631 0
M  V30 42 H -3.153 2.0226 4.1142 0
M  V30 43 H -3.0951 2.3401 2.3754 0
M  V30 44 H 3.1051 -4.5025 -2.4254 0
M  V30 45 H 1.0412 -0.0354 3.1164 0
M  V30 46 H 0.4726 -1.0259 4.4664 0
M  V30 47 H 0.892 0.6592 4.7357 0
M  V30 END ATOM
M  V30 BEGIN BOND
M  V30 1 2 1 2
M  V30 2 1 2 3
M  V30 3 1 2 4
M  V30 4 1 3 5
M  V30 5 1 4 6
M  V30 6 1 4 7
M  V30 7 1 4 8
M  V30 8 1 5 9
M  V30 9 1 5 10
M  V30 10 2 6 11
M  V30 11 1 6 12
M  V30 12 1 7 13
M  V30 13 1 9 14
M  V30 14 1 10 15
M  V30 15 1 11 16
M  V30 16 2 12 17
M  V30 17 1 14 18
M  V30 18 1 14 19
M  V30 19 1 15 20
M  V30 20 2 16 21
M  V30 21 1 18 22
M  V30 22 1 15 18
M  V30 23 1 17 21
M  V30 24 1 19 20
M  V30 25 1 5 23
M  V30 26 1 7 24
M  V30 27 1 7 25
M  V30 28 1 8 26
M  V30 29 1 8 27
M  V30 30 1 8 28
M  V30 31 1 9 29
M  V30 32 1 9 30
M  V30 33 1 10 31
M  V30 34 1 10 32
M  V30 35 1 11 33
M  V30 36 1 12 34
M  V30 37 1 13 35
M  V30 38 1 14 36
M  V30 39 1 15 37
M  V30 40 1 16 38
M  V30 41 1 17 39
M  V30 42 1 19 40
M  V30 43 1 19 41
M  V30 44 1 20 42
M  V30 45 1 20 43
M  V30 46 1 21 44
M  V30 47 1 22 45
M  V30 48 1 22 46
M  V30 49 1 22 47
M  V30 END BOND
M  V30 END CTAB
M  END
>  <NO.>
1819

>  <Name>
atromepine

>  <SMILES>
CN1C2CCC1CC(OC(=O)C(C)(CO)c1ccccc1)C2

>  <logBB>


>  <Class>
1

>  <MW>
303.18

>  <nHBAcc>
4

>  <nHBDon>
1

>  <SLogP>
2.1

>  <TopoPSA>
49.77

>  <MMFF94 Energy>
65.383

$$$$
CN1C2CCC1CC(OC(c1ccccc1)c1ccccc1)C2
Actelion Java MolfileCreator 2.0

  0  0  0  0  0  0              0 V3000
M  V30 BEGIN CTAB
M  V30 COUNTS 48 51 0 0 0
M  V30 BEGIN ATOM
M  V30 1 O -0.0798 0.7187 0.0 0
M  V30 2 C 0.39 -0.1848 1.0056 0
M  V30 3 C -0.5442 0.0804 -1.201 0
M  V30 4 C 1.3517 0.5922 1.9169 0
M  V30 5 C -0.784 -0.7821 1.7982 0
M  V30 6 C -1.6182 0.9376 -1.8611 0
M  V30 7 C 0.6346 -0.1851 -2.1258 0
M  V30 8 C 1.5949 -0.1144 3.2612 0
M  V30 9 C -0.3451 -1.3599 3.156 0
M  V30 10 C -1.7299 2.3144 -1.6071 0
M  V30 11 C -2.5177 0.3521 -2.7692 0
M  V30 12 C 1.589 0.8114 -2.3868 0
M  V30 13 C 0.783 -1.4373 -2.7439 0
M  V30 14 N 0.3461 -0.3701 3.9872 0
M  V30 15 C 2.0741 -1.5586 3.0621 0
M  V30 16 C 0.7829 -2.3876 2.9918 0
M  V30 17 C -2.7162 3.0798 -2.233 0
M  V30 18 C -3.5031 1.1188 -3.395 0
M  V30 19 C 2.6661 0.5609 -3.2379 0
M  V30 20 C 1.8614 -1.6859 -3.5952 0
M  V30 21 C -0.4275 0.8042 4.3493 0
M  V30 22 C -3.6026 2.4817 -3.1256 0
M  V30 23 C 2.802 -0.6874 -3.8411 0
M  V30 24 H 0.9572 -0.9938 0.5279 0
M  V30 25 H -1.0219 -0.8689 -0.9274 0
M  V30 26 H 0.9775 1.6106 2.0815 0
M  V30 27 H 2.3053 0.7242 1.389 0
M  V30 28 H -1.5677 -0.0267 1.9351 0
M  V30 29 H -1.2539 -1.5766 1.2054 0
M  V30 30 H 2.3119 0.4523 3.865 0
M  V30 31 H -1.2017 -1.8045 3.6743 0
M  V30 32 H -1.0445 2.8001 -0.9152 0
M  V30 33 H -2.4518 -0.7087 -2.9993 0
M  V30 34 H 1.492 1.7905 -1.9213 0
M  V30 35 H 0.0582 -2.2285 -2.5673 0
M  V30 36 H 2.669 -1.8886 3.9229 0
M  V30 37 H 2.6909 -1.6842 2.1663 0
M  V30 38 H 0.7111 -2.9551 2.0582 0
M  V30 39 H 0.7706 -3.1081 3.8193 0
M  V30 40 H -2.7893 4.1437 -2.0235 0
M  V30 41 H -4.1905 0.6526 -4.0959 0
M  V30 42 H 3.3966 1.342 -3.4309 0
M  V30 43 H 1.9669 -2.6582 -4.0693 0
M  V30 44 H -1.312 0.5073 4.9235 0
M  V30 45 H 0.1645 1.4572 4.9999 0
M  V30 46 H -0.7678 1.4009 3.4983 0
M  V30 47 H -4.3682 3.0789 -3.6136 0
M  V30 48 H 3.64 -0.8809 -4.5055 0
M  V30 END ATOM
M  V30 BEGIN BOND
M  V30 1 1 1 2
M  V30 2 1 1 3
M  V30 3 1 2 4
M  V30 4 1 2 5
M  V30 5 1 3 6
M  V30 6 1 3 7
M  V30 7 1 4 8
M  V30 8 1 5 9
M  V30 9 2 6 10
M  V30 10 1 6 11
M  V30 11 2 7 12
M  V30 12 1 7 13
M  V30 13 1 8 14
M  V30 14 1 8 15
M  V30 15 1 9 16
M  V30 16 1 10 17
M  V30 17 2 11 18
M  V30 18 1 12 19
M  V30 19 2 13 20
M  V30 20 1 14 21
M  V30 21 2 17 22
M  V30 22 2 19 23
M  V30 23 1 9 14
M  V30 24 1 15 16
M  V30 25 1 18 22
M  V30 26 1 20 23
M  V30 27 1 2 24
M  V30 28 1 3 25
M  V30 29 1 4 26
M  V30 30 1 4 27
M  V30 31 1 5 28
M  V30 32 1 5 29
M  V30 33 1 8 30
M  V30 34 1 9 31
M  V30 35 1 10 32
M  V30 36 1 11 33
M  V30 37 1 12 34
M  V30 38 1 13 35
M  V30 39 1 15 36
M  V30 40 1 15 37
M  V30 41 1 16 38
M  V30 42 1 16 39
M  V30 43 1 17 40
M  V30 44 1 18 41
M  V30 45 1 19 42
M  V30 46 1 20 43
M  V30 47 1 21 44
M  V30 48 1 21 45
M  V30 49 1 21 46
M  V30 50 1 22 47
M  V30 51 1 23 48
M  V30 END BOND
M  V30 END CTAB
M  END
>  <NO.>
1821

>  <Name>
benztropine (benzatropine)

>  <SMILES>
CN1C2CCC1CC(OC(c1ccccc1)c1ccccc1)C2

>  <logBB>


>  <Class>
1

>  <MW>
307.19

>  <nHBAcc>
2

>  <nHBDon>
0

>  <SLogP>
4.42

>  <TopoPSA>
12.47

>  <MMFF94 Energy>
73.422

$$$$
CN1CC(=O)NC1=NC(=O)Nc1cccc(Cl)c1
Actelion Java MolfileCreator 2.0

  0  0  0  0  0  0              0 V3000
M  V30 BEGIN CTAB
M  V30 COUNTS 29 30 0 0 0
M  V30 BEGIN ATOM
M  V30 1 Cl -3.9179 -1.7576 4.719 0
M  V30 2 C -3.6338 -1.0923 3.1569 0
M  V30 3 C -2.3272 -0.9898 2.6765 0
M  V30 4 C -4.7084 -0.6616 2.3847 0
M  V30 5 C -2.0823 -0.4506 1.4078 0
M  V30 6 C -4.4717 -0.124 1.1215 0
M  V30 7 N -0.7438 -0.3778 0.9896 0
M  V30 8 C -3.1639 -0.019 0.6353 0
M  V30 9 C -0.2274 0.0916 -0.1859 0
M  V30 10 O -0.8693 0.5511 -1.1228 0
M  V30 11 N 1.1353 -0.0346 -0.1492 0
M  V30 12 C 1.852 0.3315 -1.1555 0
M  V30 13 N 3.2148 0.2542 -1.2355 0
M  V30 14 N 1.3847 0.8617 -2.3124 0
M  V30 15 C 3.7049 0.7982 -2.4934 0
M  V30 16 C 4.1092 -0.1387 -0.1837 0
M  V30 17 C 2.3953 1.1754 -3.1815 0
M  V30 18 O 2.2731 1.6691 -4.2908 0
M  V30 19 H -1.5054 -1.3332 3.2988 0
M  V30 20 H -5.726 -0.7408 2.7576 0
M  V30 21 H -5.3037 0.2159 0.5091 0
M  V30 22 H -0.0221 -0.7101 1.6131 0
M  V30 23 H -3.0253 0.4063 -0.3541 0
M  V30 24 H 0.4007 1.0134 -2.4962 0
M  V30 25 H 4.2334 0.0431 -3.0807 0
M  V30 26 H 4.3141 1.6926 -2.3379 0
M  V30 27 H 4.2137 0.668 0.5484 0
M  V30 28 H 5.1032 -0.3727 -0.5787 0
M  V30 29 H 3.7394 -1.0306 0.3324 0
M  V30 END ATOM
M  V30 BEGIN BOND
M  V30 1 1 1 2
M  V30 2 2 2 3
M  V30 3 1 2 4
M  V30 4 1 3 5
M  V30 5 2 4 6
M  V30 6 1 5 7
M  V30 7 2 5 8
M  V30 8 1 7 9
M  V30 9 2 9 10
M  V30 10 1 9 11
M  V30 11 2 11 12
M  V30 12 1 12 13
M  V30 13 1 12 14
M  V30 14 1 13 15
M  V30 15 1 13 16
M  V30 16 1 14 17
M  V30 17 2 17 18
M  V30 18 1 6 8
M  V30 19 1 15 17
M  V30 20 1 3 19
M  V30 21 1 4 20
M  V30 22 1 6 21
M  V30 23 1 7 22
M  V30 24 1 8 23
M  V30 25 1 14 24
M  V30 26 1 15 25
M  V30 27 1 15 26
M  V30 28 1 16 27
M  V30 29 1 16 28
M  V30 30 1 16 29
M  V30 END BOND
M  V30 END CTAB
M  END
>  <NO.>
1822

>  <Name>
fenobam

>  <SMILES>
CN1CC(=O)NC1=NC(=O)Nc1cccc(Cl)c1

>  <logBB>


>  <Class>
1

>  <MW>
266.06

>  <nHBAcc>
2

>  <nHBDon>
2

>  <SLogP>
1.29

>  <TopoPSA>
73.8

>  <MMFF94 Energy>
-109.26

$$$$
CN1CC(CSc2ccccn2)C=C2c3cccc4[nH]cc(c34)CC21
Actelion Java MolfileCreator 2.0

  0  0  0  0  0  0              0 V3000
M  V30 BEGIN CTAB
M  V30 COUNTS 46 50 0 0 0
M  V30 BEGIN ATOM
M  V30 1 S 1.8741 -2.6898 -2.2004 0
M  V30 2 C 3.5139 -2.3256 -2.8041 0
M  V30 3 C 1.6299 -1.3041 -1.0297 0
M  V30 4 N 4.1423 -1.2185 -2.3505 0
M  V30 5 C 4.0927 -3.1921 -3.7249 0
M  V30 6 C 0.2566 -1.3522 -0.3286 0
M  V30 7 C 5.3816 -0.9707 -2.8282 0
M  V30 8 C 5.3714 -2.9121 -4.2006 0
M  V30 9 C 0.2149 -0.3267 0.782 0
M  V30 10 C -0.8983 -1.1244 -1.3299 0
M  V30 11 C 6.0318 -1.7789 -3.7446 0
M  V30 12 C -0.8703 0.4345 1.0133 0
M  V30 13 N -2.1963 -0.9651 -0.6477 0
M  V30 14 C -0.858 1.4738 2.0702 0
M  V30 15 C -2.198 0.2551 0.2144 0
M  V30 16 C -3.2684 -0.9279 -1.6459 0
M  V30 17 C -2.1281 1.8265 2.5444 0
M  V30 18 C 0.2395 2.143 2.6247 0
M  V30 19 C -3.4768 0.2541 1.1391 0
M  V30 20 C -2.3039 2.7911 3.5222 0
M  V30 21 C -3.3928 1.325 2.1715 0
M  V30 22 C 0.0569 3.118 3.6165 0
M  V30 23 N -3.6626 2.8747 3.739 0
M  V30 24 C -1.2194 3.4638 4.0887 0
M  V30 25 C -4.3341 1.9888 2.9235 0
M  V30 26 H 2.4269 -1.3607 -0.2788 0
M  V30 27 H 1.74 -0.3554 -1.5684 0
M  V30 28 H 3.5631 -4.0737 -4.0709 0
M  V30 29 H 0.1341 -2.3356 0.1464 0
M  V30 30 H 5.8549 -0.0729 -2.4406 0
M  V30 31 H 5.845 -3.574 -4.9198 0
M  V30 32 H 1.1033 -0.238 1.4002 0
M  V30 33 H -0.9547 -1.9947 -1.9948 0
M  V30 34 H -0.6916 -0.2501 -1.9633 0
M  V30 35 H 7.0277 -1.5312 -4.0938 0
M  V30 36 H -2.2611 1.142 -0.4362 0
M  V30 37 H -3.2009 -0.0461 -2.293 0
M  V30 38 H -3.2333 -1.8202 -2.2817 0
M  V30 39 H -4.2557 -0.9412 -1.1751 0
M  V30 40 H 1.2471 1.9237 2.2839 0
M  V30 41 H -4.3815 0.4087 0.541 0
M  V30 42 H -3.5698 -0.7152 1.6453 0
M  V30 43 H 0.9282 3.6226 4.0294 0
M  V30 44 H -4.0997 3.495 4.406 0
M  V30 45 H -1.3489 4.2193 4.8557 0
M  V30 46 H -5.4122 1.9115 2.9618 0
M  V30 END ATOM
M  V30 BEGIN BOND
M  V30 1 1 1 2
M  V30 2 1 1 3
M  V30 3 2 2 4
M  V30 4 1 2 5
M  V30 5 1 3 6
M  V30 6 1 4 7
M  V30 7 2 5 8
M  V30 8 1 6 9
M  V30 9 1 6 10
M  V30 10 2 7 11
M  V30 11 2 9 12
M  V30 12 1 10 13
M  V30 13 1 12 14
M  V30 14 1 12 15
M  V30 15 1 13 16
M  V30 16 2 14 17
M  V30 17 1 14 18
M  V30 18 1 15 19
M  V30 19 1 17 20
M  V30 20 1 17 21
M  V30 21 2 18 22
M  V30 22 1 20 23
M  V30 23 2 20 24
M  V30 24 2 21 25
M  V30 25 1 8 11
M  V30 26 1 13 15
M  V30 27 1 19 21
M  V30 28 1 22 24
M  V30 29 1 23 25
M  V30 30 1 3 26
M  V30 31 1 3 27
M  V30 32 1 5 28
M  V30 33 1 6 29
M  V30 34 1 7 30
M  V30 35 1 8 31
M  V30 36 1 9 32
M  V30 37 1 10 33
M  V30 38 1 10 34
M  V30 39 1 11 35
M  V30 40 1 15 36
M  V30 41 1 16 37
M  V30 42 1 16 38
M  V30 43 1 16 39
M  V30 44 1 18 40
M  V30 45 1 19 41
M  V30 46 1 19 42
M  V30 47 1 22 43
M  V30 48 1 23 44
M  V30 49 1 24 45
M  V30 50 1 25 46
M  V30 END BOND
M  V30 END CTAB
M  END
>  <NO.>
1823

>  <Name>
7-methyl-9-(pyridin-2-ylsulfanylmethyl)-6,6a,8,9-tetrahydro-4h-indolo[4,3-fg]quinoline

>  <SMILES>
CN1CC(CSc2ccccn2)C=C2c3cccc4[nH]cc(c34)CC21

>  <logBB>


>  <Class>
1

>  <MW>
347.15

>  <nHBAcc>
3

>  <nHBDon>
1

>  <SLogP>
4.22

>  <TopoPSA>
31.92

>  <MMFF94 Energy>
83.827

$$$$
CN1CC=C(c2ccccc2)CC1
Actelion Java MolfileCreator 2.0

  0  0  0  0  0  0              0 V3000
M  V30 BEGIN CTAB
M  V30 COUNTS 28 29 0 0 0
M  V30 BEGIN ATOM
M  V30 1 N -2.2872 1.6558 0.867 0
M  V30 2 C -0.9389 2.1572 1.1691 0
M  V30 3 C -2.3211 1.0702 -0.4824 0
M  V30 4 C -2.7503 0.714 1.8853 0
M  V30 5 C 0.1938 1.2681 0.7325 0
M  V30 6 C -1.3149 -0.0753 -0.7005 0
M  V30 7 C 0.0455 0.2381 -0.1225 0
M  V30 8 C 1.1873 -0.6119 -0.5187 0
M  V30 9 C 2.4213 -0.0436 -0.8708 0
M  V30 10 C 1.0563 -2.0065 -0.5796 0
M  V30 11 C 3.4959 -0.8471 -1.2619 0
M  V30 12 C 2.131 -2.811 -0.9694 0
M  V30 13 C 3.3504 -2.231 -1.3098 0
M  V30 14 H -0.8441 2.3641 2.2425 0
M  V30 15 H -0.8115 3.1268 0.671 0
M  V30 16 H -3.3338 0.7182 -0.7159 0
M  V30 17 H -2.1174 1.8681 -1.2097 0
M  V30 18 H -3.7583 0.3565 1.6464 0
M  V30 19 H -2.0967 -0.1566 2.002 0
M  V30 20 H -2.8228 1.214 2.8579 0
M  V30 21 H 1.1657 1.5064 1.156 0
M  V30 22 H -1.233 -0.2601 -1.7787 0
M  V30 23 H -1.7061 -0.9909 -0.2405 0
M  V30 24 H 2.5541 1.0357 -0.8586 0
M  V30 25 H 0.1199 -2.4873 -0.3084 0
M  V30 26 H 4.4438 -0.3896 -1.5326 0
M  V30 27 H 2.0142 -3.891 -1.0046 0
M  V30 28 H 4.1856 -2.8565 -1.6135 0
M  V30 END ATOM
M  V30 BEGIN BOND
M  V30 1 1 1 2
M  V30 2 1 1 3
M  V30 3 1 1 4
M  V30 4 1 2 5
M  V30 5 1 3 6
M  V30 6 2 5 7
M  V30 7 1 7 8
M  V30 8 2 8 9
M  V30 9 1 8 10
M  V30 10 1 9 11
M  V30 11 2 10 12
M  V30 12 2 11 13
M  V30 13 1 6 7
M  V30 14 1 12 13
M  V30 15 1 2 14
M  V30 16 1 2 15
M  V30 17 1 3 16
M  V30 18 1 3 17
M  V30 19 1 4 18
M  V30 20 1 4 19
M  V30 21 1 4 20
M  V30 22 1 5 21
M  V30 23 1 6 22
M  V30 24 1 6 23
M  V30 25 1 9 24
M  V30 26 1 10 25
M  V30 27 1 11 26
M  V30 28 1 12 27
M  V30 29 1 13 28
M  V30 END BOND
M  V30 END CTAB
M  END
>  <NO.>
1824

>  <Name>
mptp

>  <SMILES>
CN1CC=C(c2ccccc2)CC1

>  <logBB>


>  <Class>
1

>  <MW>
173.12

>  <nHBAcc>
1

>  <nHBDon>
0

>  <SLogP>
2.41

>  <TopoPSA>
3.24

>  <MMFF94 Energy>
33.324

$$$$
CN1CCC(=C2c3ccccc3C(O)c3ccccc32)CC1
Actelion Java MolfileCreator 2.0

  0  0  0  0  0  0              0 V3000
M  V30 BEGIN CTAB
M  V30 COUNTS 43 46 0 0 0
M  V30 BEGIN ATOM
M  V30 1 O 0.8818 3.6115 1.6841 0
M  V30 2 C 0.5793 2.3505 1.0874 0
M  V30 3 C 0.743 1.227 2.1067 0
M  V30 4 C -0.8259 2.3529 0.4911 0
M  V30 5 C 0.1486 -0.0227 1.8121 0
M  V30 6 C 1.4487 1.3843 3.3071 0
M  V30 7 C -1.4152 1.1001 0.1941 0
M  V30 8 C -1.5514 3.5259 0.239 0
M  V30 9 C -0.5917 -0.1028 0.5177 0
M  V30 10 C 0.1788 -1.0487 2.7623 0
M  V30 11 C 1.5175 0.335 4.2251 0
M  V30 12 C -2.7393 1.0407 -0.2531 0
M  V30 13 C -2.8543 3.4548 -0.2581 0
M  V30 14 C -0.3602 -1.0901 -0.3909 0
M  V30 15 C 0.8739 -0.8732 3.9595 0
M  V30 16 C -3.4504 2.2166 -0.493 0
M  V30 17 C -0.9571 -1.1543 -1.7945 0
M  V30 18 C 0.5915 -2.2668 -0.1903 0
M  V30 19 C 0.1197 -1.3169 -2.8814 0
M  V30 20 C 1.616 -2.3917 -1.3314 0
M  V30 21 N 0.9666 -2.4967 -2.6474 0
M  V30 22 C 1.9669 -2.63 -3.7052 0
M  V30 23 H 1.1973 4.178 0.962 0
M  V30 24 H 1.3073 2.1851 0.2819 0
M  V30 25 H 1.9242 2.3332 3.5443 0
M  V30 26 H -1.1256 4.5014 0.4578 0
M  V30 27 H -0.3431 -1.9843 2.5799 0
M  V30 28 H 2.0543 0.4702 5.1606 0
M  V30 29 H -3.2265 0.0813 -0.4067 0
M  V30 30 H -3.416 4.3685 -0.4364 0
M  V30 31 H 0.905 -1.6765 4.6908 0
M  V30 32 H -4.4758 2.1665 -0.85 0
M  V30 33 H -1.5319 -0.2657 -2.0597 0
M  V30 34 H -1.6529 -2.0023 -1.836 0
M  V30 35 H -0.0043 -3.1868 -0.1284 0
M  V30 36 H 1.1659 -2.2044 0.7349 0
M  V30 37 H 0.7285 -0.4035 -2.9303 0
M  V30 38 H -0.3886 -1.4194 -3.8481 0
M  V30 39 H 2.3005 -1.5328 -1.3019 0
M  V30 40 H 2.2169 -3.2912 -1.149 0
M  V30 41 H 2.6385 -1.7653 -3.7538 0
M  V30 42 H 1.4812 -2.7444 -4.6805 0
M  V30 43 H 2.5731 -3.5291 -3.549 0
M  V30 END ATOM
M  V30 BEGIN BOND
M  V30 1 1 1 2
M  V30 2 1 2 3
M  V30 3 1 2 4
M  V30 4 2 3 5
M  V30 5 1 3 6
M  V30 6 2 4 7
M  V30 7 1 4 8
M  V30 8 1 5 9
M  V30 9 1 5 10
M  V30 10 2 6 11
M  V30 11 1 7 12
M  V30 12 2 8 13
M  V30 13 2 9 14
M  V30 14 2 10 15
M  V30 15 2 12 16
M  V30 16 1 14 17
M  V30 17 1 14 18
M  V30 18 1 17 19
M  V30 19 1 18 20
M  V30 20 1 19 21
M  V30 21 1 21 22
M  V30 22 1 7 9
M  V30 23 1 11 15
M  V30 24 1 13 16
M  V30 25 1 20 21
M  V30 26 1 1 23
M  V30 27 1 2 24
M  V30 28 1 6 25
M  V30 29 1 8 26
M  V30 30 1 10 27
M  V30 31 1 11 28
M  V30 32 1 12 29
M  V30 33 1 13 30
M  V30 34 1 15 31
M  V30 35 1 16 32
M  V30 36 1 17 33
M  V30 37 1 17 34
M  V30 38 1 18 35
M  V30 39 1 18 36
M  V30 40 1 19 37
M  V30 41 1 19 38
M  V30 42 1 20 39
M  V30 43 1 20 40
M  V30 44 1 22 41
M  V30 45 1 22 42
M  V30 46 1 22 43
M  V30 END BOND
M  V30 END CTAB
M  END
>  <NO.>
1825

>  <Name>
danitracen

>  <SMILES>
CN1CCC(=C2c3ccccc3C(O)c3ccccc32)CC1

>  <logBB>


>  <Class>
1

>  <MW>
291.16

>  <nHBAcc>
2

>  <nHBDon>
1

>  <SLogP>
3.61

>  <TopoPSA>
23.47

>  <MMFF94 Energy>
99.599

$$$$
CN1CCC(=C2c3ccccc3CCc3sccc32)CC1
Actelion Java MolfileCreator 2.0

  0  0  0  0  0  0              0 V3000
M  V30 BEGIN CTAB
M  V30 COUNTS 42 45 0 0 0
M  V30 BEGIN ATOM
M  V30 1 S 2.4343 3.6532 0.892 0
M  V30 2 C 1.8226 2.2501 0.1048 0
M  V30 3 C 2.0377 3.0473 2.4367 0
M  V30 4 C 1.2812 1.359 1.0198 0
M  V30 5 C 1.9749 2.1575 -1.3957 0
M  V30 6 C 1.443 1.809 2.3677 0
M  V30 7 C 0.7007 0.0895 0.6334 0
M  V30 8 C 1.2529 0.9833 -2.0676 0
M  V30 9 C 1.4951 -0.7876 -0.2727 0
M  V30 10 C -0.5647 -0.285 0.9672 0
M  V30 11 C 1.756 -0.3619 -1.5912 0
M  V30 12 C 2.0278 -2.0004 0.1866 0
M  V30 13 C -1.5345 0.5628 1.7806 0
M  V30 14 C -1.2474 -1.5763 0.5297 0
M  V30 15 C 2.5139 -1.1809 -2.4393 0
M  V30 16 C 2.7809 -2.8053 -0.6675 0
M  V30 17 C -2.867 0.769 1.0393 0
M  V30 18 C -2.5859 -1.299 -0.1748 0
M  V30 19 C 3.0183 -2.3983 -1.9792 0
M  V30 20 N -3.4987 -0.5087 0.6689 0
M  V30 21 C -4.7644 -0.2738 -0.0239 0
M  V30 22 H 2.267 3.6225 3.3229 0
M  V30 23 H 1.5982 3.0851 -1.8461 0
M  V30 24 H 3.0464 2.0998 -1.6302 0
M  V30 25 H 1.1324 1.2529 3.2438 0
M  V30 26 H 1.3956 1.0628 -3.1528 0
M  V30 27 H 0.1685 1.047 -1.9092 0
M  V30 28 H 1.8546 -2.3197 1.2114 0
M  V30 29 H -1.1421 1.5543 2.0177 0
M  V30 30 H -1.7183 0.0607 2.7393 0
M  V30 31 H -0.6398 -2.179 -0.1492 0
M  V30 32 H -1.4211 -2.1951 1.4199 0
M  V30 33 H 2.7265 -0.8718 -3.4599 0
M  V30 34 H 3.1862 -3.7473 -0.3081 0
M  V30 35 H -3.5393 1.3286 1.7013 0
M  V30 36 H -2.6961 1.3902 0.1494 0
M  V30 37 H -2.3973 -0.7883 -1.129 0
M  V30 38 H -3.0515 -2.2641 -0.4092 0
M  V30 39 H 3.6085 -3.0255 -2.6425 0
M  V30 40 H -5.2527 -1.2246 -0.2645 0
M  V30 41 H -5.4571 0.2806 0.6188 0
M  V30 42 H -4.6308 0.2901 -0.9541 0
M  V30 END ATOM
M  V30 BEGIN BOND
M  V30 1 1 1 2
M  V30 2 1 1 3
M  V30 3 2 2 4
M  V30 4 1 2 5
M  V30 5 2 3 6
M  V30 6 1 4 7
M  V30 7 1 5 8
M  V30 8 1 7 9
M  V30 9 2 7 10
M  V30 10 1 8 11
M  V30 11 1 9 12
M  V30 12 1 10 13
M  V30 13 1 10 14
M  V30 14 1 11 15
M  V30 15 2 12 16
M  V30 16 1 13 17
M  V30 17 1 14 18
M  V30 18 2 15 19
M  V30 19 1 17 20
M  V30 20 1 20 21
M  V30 21 1 4 6
M  V30 22 2 9 11
M  V30 23 1 16 19
M  V30 24 1 18 20
M  V30 25 1 3 22
M  V30 26 1 5 23
M  V30 27 1 5 24
M  V30 28 1 6 25
M  V30 29 1 8 26
M  V30 30 1 8 27
M  V30 31 1 12 28
M  V30 32 1 13 29
M  V30 33 1 13 30
M  V30 34 1 14 31
M  V30 35 1 14 32
M  V30 36 1 15 33
M  V30 37 1 16 34
M  V30 38 1 17 35
M  V30 39 1 17 36
M  V30 40 1 18 37
M  V30 41 1 18 38
M  V30 42 1 19 39
M  V30 43 1 21 40
M  V30 44 1 21 41
M  V30 45 1 21 42
M  V30 END BOND
M  V30 END CTAB
M  END
>  <NO.>
1826

>  <Name>
pizotifen

>  <SMILES>
CN1CCC(=C2c3ccccc3CCc3sccc32)CC1

>  <logBB>


>  <Class>
1

>  <MW>
295.14

>  <nHBAcc>
2

>  <nHBDon>
0

>  <SLogP>
4.37

>  <TopoPSA>
3.24

>  <MMFF94 Energy>
82.834

$$$$
CN1CCC(=C2c3ccccc3Oc3ccc(Cl)cc32)CC1
Actelion Java MolfileCreator 2.0

  0  0  0  0  0  0              0 V3000
M  V30 BEGIN CTAB
M  V30 COUNTS 40 43 0 0 0
M  V30 BEGIN ATOM
M  V30 1 Cl -0.0811 5.4454 1.2983 0
M  V30 2 C -0.8599 3.92 1.124 0
M  V30 3 C -0.0898 2.758 1.0474 0
M  V30 4 C -2.2536 3.8613 1.0645 0
M  V30 5 C -0.7172 1.5211 0.8771 0
M  V30 6 C -2.891 2.6248 0.9625 0
M  V30 7 C -0.028 0.2077 0.7775 0
M  V30 8 C -2.1235 1.4619 0.9024 0
M  V30 9 C -0.7287 -0.8747 1.5177 0
M  V30 10 C 0.9983 -0.0279 -0.0879 0
M  V30 11 O -2.805 0.2561 0.9119 0
M  V30 12 C -2.1334 -0.7991 1.5075 0
M  V30 13 C -0.1141 -1.8671 2.2862 0
M  V30 14 C 1.632 -1.3925 -0.3553 0
M  V30 15 C 1.6459 1.014 -0.999 0
M  V30 16 C -2.9091 -1.77 2.14 0
M  V30 17 C -0.8893 -2.8321 2.9367 0
M  V30 18 C 1.6726 -1.7472 -1.8522 0
M  V30 19 C 1.6875 0.5737 -2.4731 0
M  V30 20 C -2.2824 -2.7941 2.8489 0
M  V30 21 N 2.3662 -0.7194 -2.6426 0
M  V30 22 C 2.4055 -1.0973 -4.0546 0
M  V30 23 H 0.9918 2.8205 1.1263 0
M  V30 24 H -2.8464 4.7704 1.124 0
M  V30 25 H -3.9756 2.5649 0.9601 0
M  V30 26 H 0.9671 -1.8956 2.3912 0
M  V30 27 H 1.1087 -2.2143 0.1338 0
M  V30 28 H 2.653 -1.3835 0.0481 0
M  V30 29 H 2.6675 1.1974 -0.6413 0
M  V30 30 H 1.1321 1.9756 -0.9872 0
M  V30 31 H -3.9929 -1.7109 2.106 0
M  V30 32 H -0.4044 -3.6121 3.519 0
M  V30 33 H 2.1979 -2.7046 -1.9581 0
M  V30 34 H 0.6479 -1.8974 -2.2193 0
M  V30 35 H 2.2242 1.3444 -3.0405 0
M  V30 36 H 0.6638 0.533 -2.8701 0
M  V30 37 H -2.8796 -3.5475 3.3564 0
M  V30 38 H 2.9404 -2.0448 -4.1835 0
M  V30 39 H 1.4031 -1.2059 -4.4846 0
M  V30 40 H 2.9511 -0.3469 -4.6376 0
M  V30 END ATOM
M  V30 BEGIN BOND
M  V30 1 1 1 2
M  V30 2 2 2 3
M  V30 3 1 2 4
M  V30 4 1 3 5
M  V30 5 2 4 6
M  V30 6 1 5 7
M  V30 7 2 5 8
M  V30 8 1 7 9
M  V30 9 2 7 10
M  V30 10 1 8 11
M  V30 11 2 9 12
M  V30 12 1 9 13
M  V30 13 1 10 14
M  V30 14 1 10 15
M  V30 15 1 12 16
M  V30 16 2 13 17
M  V30 17 1 14 18
M  V30 18 1 15 19
M  V30 19 2 16 20
M  V30 20 1 18 21
M  V30 21 1 21 22
M  V30 22 1 6 8
M  V30 23 1 11 12
M  V30 24 1 17 20
M  V30 25 1 19 21
M  V30 26 1 3 23
M  V30 27 1 4 24
M  V30 28 1 6 25
M  V30 29 1 13 26
M  V30 30 1 14 27
M  V30 31 1 14 28
M  V30 32 1 15 29
M  V30 33 1 15 30
M  V30 34 1 16 31
M  V30 35 1 17 32
M  V30 36 1 18 33
M  V30 37 1 18 34
M  V30 38 1 19 35
M  V30 39 1 19 36
M  V30 40 1 20 37
M  V30 41 1 22 38
M  V30 42 1 22 39
M  V30 43 1 22 40
M  V30 END BOND
M  V30 END CTAB
M  END
>  <NO.>
1827

>  <Name>
clopipazan

>  <SMILES>
CN1CCC(=C2c3ccccc3Oc3ccc(Cl)cc32)CC1

>  <logBB>


>  <Class>
1

>  <MW>
311.11

>  <nHBAcc>
2

>  <nHBDon>
0

>  <SLogP>
4.97

>  <TopoPSA>
12.47

>  <MMFF94 Energy>
102.86

$$$$
CN1CCC(=C2c3ccccc3Sc3ccccc32)CC1
Actelion Java MolfileCreator 2.0

  0  0  0  0  0  0              0 V3000
M  V30 BEGIN CTAB
M  V30 COUNTS 40 43 0 0 0
M  V30 BEGIN ATOM
M  V30 1 S 2.0372 2.4451 0.0814 0
M  V30 2 C 1.6291 1.5799 1.6042 0
M  V30 3 C 2.3888 1.0487 -0.9957 0
M  V30 4 C 1.1014 0.2735 1.5956 0
M  V30 5 C 1.9056 2.2095 2.8237 0
M  V30 6 C 1.7981 -0.2136 -0.7889 0
M  V30 7 C 3.3224 1.2189 -2.0248 0
M  V30 8 C 0.77 -0.3433 0.281 0
M  V30 9 C 0.962 -0.4183 2.807 0
M  V30 10 C 1.7126 1.528 4.0266 0
M  V30 11 C 2.2346 -1.3082 -1.5485 0
M  V30 12 C 3.71 0.1314 -2.8094 0
M  V30 13 C -0.4875 -0.7924 0.0054 0
M  V30 14 C 1.2568 0.2111 4.0175 0
M  V30 15 C 3.179 -1.1329 -2.5611 0
M  V30 16 C -1.6561 -0.8061 0.9889 0
M  V30 17 C -0.9707 -1.2854 -1.3568 0
M  V30 18 C -2.8915 -0.0754 0.4345 0
M  V30 19 C -2.2291 -0.5387 -1.8328 0
M  V30 20 N -3.3268 -0.6308 -0.8568 0
M  V30 21 C -4.5087 0.0771 -1.3467 0
M  V30 22 H 2.2998 3.2226 2.8439 0
M  V30 23 H 3.7747 2.1915 -2.2033 0
M  V30 24 H 0.6141 -1.4485 2.8125 0
M  V30 25 H 1.9406 2.0181 4.9698 0
M  V30 26 H 1.8331 -2.3009 -1.3595 0
M  V30 27 H 4.4444 0.2675 -3.5992 0
M  V30 28 H 1.1306 -0.3272 4.9535 0
M  V30 29 H 3.5001 -1.984 -3.1561 0
M  V30 30 H -1.9129 -1.851 1.2065 0
M  V30 31 H -1.4219 -0.3382 1.9463 0
M  V30 32 H -1.1866 -2.359 -1.2796 0
M  V30 33 H -0.2261 -1.1745 -2.1464 0
M  V30 34 H -3.7021 -0.1787 1.1666 0
M  V30 35 H -2.6708 0.997 0.344 0
M  V30 36 H -1.9752 0.5105 -2.0369 0
M  V30 37 H -2.5483 -0.9856 -2.7824 0
M  V30 38 H -4.3174 1.144 -1.5088 0
M  V30 39 H -4.853 -0.3586 -2.2911 0
M  V30 40 H -5.3366 -0.0203 -0.6358 0
M  V30 END ATOM
M  V30 BEGIN BOND
M  V30 1 1 1 2
M  V30 2 1 1 3
M  V30 3 2 2 4
M  V30 4 1 2 5
M  V30 5 2 3 6
M  V30 6 1 3 7
M  V30 7 1 4 8
M  V30 8 1 4 9
M  V30 9 2 5 10
M  V30 10 1 6 11
M  V30 11 2 7 12
M  V30 12 2 8 13
M  V30 13 2 9 14
M  V30 14 2 11 15
M  V30 15 1 13 16
M  V30 16 1 13 17
M  V30 17 1 16 18
M  V30 18 1 17 19
M  V30 19 1 18 20
M  V30 20 1 20 21
M  V30 21 1 6 8
M  V30 22 1 10 14
M  V30 23 1 12 15
M  V30 24 1 19 20
M  V30 25 1 5 22
M  V30 26 1 7 23
M  V30 27 1 9 24
M  V30 28 1 10 25
M  V30 29 1 11 26
M  V30 30 1 12 27
M  V30 31 1 14 28
M  V30 32 1 15 29
M  V30 33 1 16 30
M  V30 34 1 16 31
M  V30 35 1 17 32
M  V30 36 1 17 33
M  V30 37 1 18 34
M  V30 38 1 18 35
M  V30 39 1 19 36
M  V30 40 1 19 37
M  V30 41 1 21 38
M  V30 42 1 21 39
M  V30 43 1 21 40
M  V30 END BOND
M  V30 END CTAB
M  END
>  <NO.>
1828

>  <Name>
pimethixene

>  <SMILES>
CN1CCC(=C2c3ccccc3Sc3ccccc32)CC1

>  <logBB>


>  <Class>
1

>  <MW>
293.12

>  <nHBAcc>
2

>  <nHBDon>
0

>  <SLogP>
4.68

>  <TopoPSA>
3.24

>  <MMFF94 Energy>
103.16

$$$$
CN1CCC(C)(CN2c3ccccc3Sc3ccccc32)C1
Actelion Java MolfileCreator 2.0

  0  0  0  0  0  0              0 V3000
M  V30 BEGIN CTAB
M  V30 COUNTS 44 47 0 0 0
M  V30 BEGIN ATOM
M  V30 1 S -0.2426 2.3476 -2.3476 0
M  V30 2 C 0.1489 0.6308 -2.6185 0
M  V30 3 C -1.6552 2.2236 -1.2674 0
M  V30 4 C -0.3504 -0.4033 -1.8013 0
M  V30 5 C 1.007 0.3438 -3.6945 0
M  V30 6 C -1.9813 1.0416 -0.5709 0
M  V30 7 C -2.4342 3.3842 -1.1157 0
M  V30 8 N -1.1863 -0.1286 -0.6877 0
M  V30 9 C -0.0145 -1.7241 -2.1619 0
M  V30 10 C 1.3512 -0.969 -4.0014 0
M  V30 11 C -3.1502 1.0635 0.2166 0
M  V30 12 C -3.5643 3.383 -0.3035 0
M  V30 13 C -0.9775 -0.9398 0.5409 0
M  V30 14 C 0.8297 -2.0052 -3.241 0
M  V30 15 C -3.9284 2.2178 0.3551 0
M  V30 16 C 0.1965 -0.4782 1.4467 0 CFG=2
M  V30 17 C 1.5723 -0.6035 0.7793 0
M  V30 18 C 0.3417 -1.4424 2.6539 0
M  V30 19 C -0.0166 0.9519 1.9877 0
M  V30 20 N 2.4748 -0.7117 1.9308 0
M  V30 21 C 1.8435 -1.6743 2.83 0
M  V30 22 C 3.8243 -1.0969 1.5477 0
M  V30 23 H 1.4039 1.1494 -4.3087 0
M  V30 24 H -2.1646 4.298 -1.6408 0
M  V30 25 H -0.4304 -2.5719 -1.6267 0
M  V30 26 H 2.008 -1.1791 -4.8409 0
M  V30 27 H -3.5035 0.1681 0.7179 0
M  V30 28 H -4.1629 4.2837 -0.199 0
M  V30 29 H -1.8839 -0.9726 1.1547 0
M  V30 30 H -0.8306 -1.9945 0.2847 0
M  V30 31 H 1.0683 -3.0363 -3.4887 0
M  V30 32 H -4.8228 2.1977 0.9726 0
M  V30 33 H 1.8198 0.2664 0.1623 0
M  V30 34 H 1.633 -1.508 0.1622 0
M  V30 35 H -0.1019 -1.0228 3.5643 0
M  V30 36 H -0.1507 -2.4046 2.4689 0
M  V30 37 H 0.7174 1.2106 2.7597 0
M  V30 38 H 0.083 1.7007 1.1968 0
M  V30 39 H -1.008 1.0562 2.4417 0
M  V30 40 H 2.0824 -2.7098 2.5563 0
M  V30 41 H 2.1541 -1.5141 3.8675 0
M  V30 42 H 3.8528 -2.0617 1.0288 0
M  V30 43 H 4.4674 -1.1633 2.432 0
M  V30 44 H 4.264 -0.3404 0.8888 0
M  V30 END ATOM
M  V30 BEGIN BOND
M  V30 1 1 1 2
M  V30 2 1 1 3
M  V30 3 2 2 4
M  V30 4 1 2 5
M  V30 5 2 3 6
M  V30 6 1 3 7
M  V30 7 1 4 8
M  V30 8 1 4 9
M  V30 9 2 5 10
M  V30 10 1 6 11
M  V30 11 2 7 12
M  V30 12 1 8 13
M  V30 13 2 9 14
M  V30 14 2 11 15
M  V30 15 1 13 16
M  V30 16 1 16 17
M  V30 17 1 16 18
M  V30 18 1 16 19
M  V30 19 1 17 20
M  V30 20 1 18 21
M  V30 21 1 20 22
M  V30 22 1 6 8
M  V30 23 1 10 14
M  V30 24 1 12 15
M  V30 25 1 20 21
M  V30 26 1 5 23
M  V30 27 1 7 24
M  V30 28 1 9 25
M  V30 29 1 10 26
M  V30 30 1 11 27
M  V30 31 1 12 28
M  V30 32 1 13 29
M  V30 33 1 13 30
M  V30 34 1 14 31
M  V30 35 1 15 32
M  V30 36 1 17 33
M  V30 37 1 17 34
M  V30 38 1 18 35
M  V30 39 1 18 36
M  V30 40 1 19 37
M  V30 41 1 19 38
M  V30 42 1 19 39
M  V30 43 1 21 40
M  V30 44 1 21 41
M  V30 45 1 22 42
M  V30 46 1 22 43
M  V30 47 1 22 44
M  V30 END BOND
M  V30 BEGIN COLLECTION
M  V30 MDLV30/STERAC1 ATOMS=(1 16)
M  V30 END COLLECTION
M  V30 END CTAB
M  END
>  <NO.>
1829

>  <Name>
dimelazine

>  <SMILES>
CN1CCC(C)(CN2c3ccccc3Sc3ccccc32)C1

>  <logBB>


>  <Class>
1

>  <MW>
310.15

>  <nHBAcc>
3

>  <nHBDon>
0

>  <SLogP>
4.63

>  <TopoPSA>
6.48

>  <MMFF94 Energy>
88.706

$$$$
CN1CCC(OC2c3ccccc3CCc3ccccc32)CC1
Actelion Java MolfileCreator 2.0

  0  0  0  0  0  0              0 V3000
M  V30 BEGIN CTAB
M  V30 COUNTS 48 51 0 0 0
M  V30 BEGIN ATOM
M  V30 1 O 0.3993 0.4791 -0.7188 0
M  V30 2 C -0.1132 -0.776 -0.2313 0
M  V30 3 C 0.4164 1.5243 0.2582 0
M  V30 4 C -1.0574 -1.4192 -1.2491 0
M  V30 5 C 1.0457 -1.6805 0.17 0
M  V30 6 C 1.436 2.567 -0.1952 0
M  V30 7 C -0.9605 2.1775 0.38 0
M  V30 8 C -1.6718 -2.6784 -1.0406 0
M  V30 9 C -1.3787 -0.7078 -2.428 0
M  V30 10 C 0.7919 -2.8102 0.9729 0
M  V30 11 C 2.3646 -1.4297 -0.244 0
M  V30 12 C 1.4287 3.7793 0.731 0
M  V30 13 C -0.9044 3.4026 1.2896 0
M  V30 14 C -2.5628 -3.1712 -2.0222 0
M  V30 15 C -1.4364 -3.6146 0.1343 0
M  V30 16 C -2.2644 -1.2142 -3.3789 0
M  V30 17 C 1.851 -3.6381 1.3729 0
M  V30 18 C -0.6269 -3.1532 1.3474 0
M  V30 19 C 3.4117 -2.26 0.157 0
M  V30 20 N 0.0878 4.3733 0.8121 0
M  V30 21 C -2.8584 -2.4487 -3.1754 0
M  V30 22 C 3.1557 -3.3593 0.9704 0
M  V30 23 C 0.1016 5.5598 1.6677 0
M  V30 24 H -0.7211 -0.5629 0.6557 0
M  V30 25 H 0.7364 1.1221 1.2288 0
M  V30 26 H 2.4368 2.1194 -0.2206 0
M  V30 27 H 1.2226 2.876 -1.2273 0
M  V30 28 H -1.693 1.4632 0.7721 0
M  V30 29 H -1.3269 2.4599 -0.6159 0
M  V30 30 H -0.9308 0.2658 -2.6211 0
M  V30 31 H 2.5848 -0.5821 -0.8899 0
M  V30 32 H 2.1375 4.5167 0.3352 0
M  V30 33 H 1.7865 3.4853 1.7265 0
M  V30 34 H -1.8988 3.8651 1.3015 0
M  V30 35 H -0.6798 3.0877 2.3173 0
M  V30 36 H -3.0325 -4.1446 -1.8878 0
M  V30 37 H -2.423 -3.9168 0.512 0
M  V30 38 H -0.9619 -4.5204 -0.2688 0
M  V30 39 H -2.4836 -0.6408 -4.2752 0
M  V30 40 H 1.6644 -4.5148 1.9886 0
M  V30 41 H -1.107 -2.3051 1.8485 0
M  V30 42 H -0.6242 -3.9616 2.0901 0
M  V30 43 H 4.4257 -2.0492 -0.1716 0
M  V30 44 H -3.5456 -2.8535 -3.9127 0
M  V30 45 H 3.9707 -4.0082 1.279 0
M  V30 46 H -0.8856 6.0346 1.6834 0
M  V30 47 H 0.8022 6.307 1.2785 0
M  V30 48 H 0.3872 5.3229 2.6989 0
M  V30 END ATOM
M  V30 BEGIN BOND
M  V30 1 1 1 2
M  V30 2 1 1 3
M  V30 3 1 2 4
M  V30 4 1 2 5
M  V30 5 1 3 6
M  V30 6 1 3 7
M  V30 7 2 4 8
M  V30 8 1 4 9
M  V30 9 2 5 10
M  V30 10 1 5 11
M  V30 11 1 6 12
M  V30 12 1 7 13
M  V30 13 1 8 14
M  V30 14 1 8 15
M  V30 15 2 9 16
M  V30 16 1 10 17
M  V30 17 1 10 18
M  V30 18 2 11 19
M  V30 19 1 12 20
M  V30 20 2 14 21
M  V30 21 2 17 22
M  V30 22 1 20 23
M  V30 23 1 13 20
M  V30 24 1 15 18
M  V30 25 1 16 21
M  V30 26 1 19 22
M  V30 27 1 2 24
M  V30 28 1 3 25
M  V30 29 1 6 26
M  V30 30 1 6 27
M  V30 31 1 7 28
M  V30 32 1 7 29
M  V30 33 1 9 30
M  V30 34 1 11 31
M  V30 35 1 12 32
M  V30 36 1 12 33
M  V30 37 1 13 34
M  V30 38 1 13 35
M  V30 39 1 14 36
M  V30 40 1 15 37
M  V30 41 1 15 38
M  V30 42 1 16 39
M  V30 43 1 17 40
M  V30 44 1 18 41
M  V30 45 1 18 42
M  V30 46 1 19 43
M  V30 47 1 21 44
M  V30 48 1 22 45
M  V30 49 1 23 46
M  V30 50 1 23 47
M  V30 51 1 23 48
M  V30 END BOND
M  V30 END CTAB
M  END
>  <NO.>
1830

>  <Name>
hepzidine

>  <SMILES>
CN1CCC(OC2c3ccccc3CCc3ccccc32)CC1

>  <logBB>


>  <Class>
1

>  <MW>
307.19

>  <nHBAcc>
2

>  <nHBDon>
0

>  <SLogP>
3.99

>  <TopoPSA>
12.47

>  <MMFF94 Energy>
75.466

$$$$
CN1CCC2(C)CC(Cc3ccc(O)cc32)C1
Actelion Java MolfileCreator 2.0

  0  0  0  0  0  0              0 V3000
M  V30 BEGIN CTAB
M  V30 COUNTS 38 40 0 0 0
M  V30 BEGIN ATOM
M  V30 1 O -0.3974 4.4584 -1.1927 0
M  V30 2 C 0.1749 3.2497 -0.9227 0
M  V30 3 C -0.4833 2.0555 -1.2084 0
M  V30 4 C 1.4364 3.2472 -0.3511 0
M  V30 5 C 0.1258 0.8156 -0.9316 0
M  V30 6 C 2.0462 2.0331 -0.047 0
M  V30 7 C 1.3988 0.8142 -0.3165 0
M  V30 8 C -0.5981 -0.4979 -1.2391 0
M  V30 9 C 2.1182 -0.465 0.0582 0
M  V30 10 C -1.7602 -0.7651 -0.2493 0
M  V30 11 C 0.3756 -1.6964 -1.2195 0
M  V30 12 C -1.1929 -0.475 -2.6733 0
M  V30 13 C 1.2493 -1.7332 0.0241 0
M  V30 14 C -1.528 -0.5221 1.2501 0
M  V30 15 C 0.4665 -1.9915 1.3295 0
M  V30 16 N -0.2282 -0.8213 1.8479 0
M  V30 17 C -0.3309 -0.8477 3.3064 0
M  V30 18 H -1.2715 4.3025 -1.5848 0
M  V30 19 H -1.4779 2.0865 -1.6403 0
M  V30 20 H 1.9395 4.184 -0.1331 0
M  V30 21 H 3.0304 2.0377 0.4154 0
M  V30 22 H 2.9386 -0.5893 -0.6616 0
M  V30 23 H 2.5777 -0.3595 1.0491 0
M  V30 24 H -2.6222 -0.1433 -0.5312 0
M  V30 25 H -2.1043 -1.8007 -0.38 0
M  V30 26 H -0.1724 -2.6432 -1.3147 0
M  V30 27 H 1.0372 -1.6493 -2.0972 0
M  V30 28 H -0.4254 -0.2337 -3.4183 0
M  V30 29 H -1.9972 0.2604 -2.7815 0
M  V30 30 H -1.6197 -1.4502 -2.9371 0
M  V30 31 H 1.9332 -2.5872 -0.0834 0
M  V30 32 H -1.7402 0.5371 1.4486 0
M  V30 33 H -2.3147 -1.0827 1.7748 0
M  V30 34 H -0.2161 -2.8434 1.2152 0
M  V30 35 H 1.2191 -2.3151 2.0623 0
M  V30 36 H -0.9206 -1.7014 3.6589 0
M  V30 37 H 0.663 -0.9006 3.7645 0
M  V30 38 H -0.7941 0.0722 3.6811 0
M  V30 END ATOM
M  V30 BEGIN BOND
M  V30 1 1 1 2
M  V30 2 2 2 3
M  V30 3 1 2 4
M  V30 4 1 3 5
M  V30 5 2 4 6
M  V30 6 2 5 7
M  V30 7 1 5 8
M  V30 8 1 7 9
M  V30 9 1 8 10
M  V30 10 1 8 11
M  V30 11 1 8 12
M  V30 12 1 9 13
M  V30 13 1 10 14
M  V30 14 1 13 15
M  V30 15 1 14 16
M  V30 16 1 16 17
M  V30 17 1 6 7
M  V30 18 1 11 13
M  V30 19 1 15 16
M  V30 20 1 1 18
M  V30 21 1 3 19
M  V30 22 1 4 20
M  V30 23 1 6 21
M  V30 24 1 9 22
M  V30 25 1 9 23
M  V30 26 1 10 24
M  V30 27 1 10 25
M  V30 28 1 11 26
M  V30 29 1 11 27
M  V30 30 1 12 28
M  V30 31 1 12 29
M  V30 32 1 12 30
M  V30 33 1 13 31
M  V30 34 1 14 32
M  V30 35 1 14 33
M  V30 36 1 15 34
M  V30 37 1 15 35
M  V30 38 1 17 36
M  V30 39 1 17 37
M  V30 40 1 17 38
M  V30 END BOND
M  V30 END CTAB
M  END
>  <NO.>
1831

>  <Name>
eptazocine

>  <SMILES>
CN1CCC2(C)CC(Cc3ccc(O)cc32)C1

>  <logBB>


>  <Class>
1

>  <MW>
231.16

>  <nHBAcc>
2

>  <nHBDon>
1

>  <SLogP>
2.55

>  <TopoPSA>
23.47

>  <MMFF94 Energy>
47.198

$$$$
CN1CCC23c4c5ccc(O)c4OC2C(O)CCC3C1C5
Actelion Java MolfileCreator 2.0

  0  0  0  0  0  0              0 V3000
M  V30 BEGIN CTAB
M  V30 COUNTS 42 46 0 0 0
M  V30 BEGIN ATOM
M  V30 1 O 1.2959 -2.512 0.2428 0
M  V30 2 C 0.1793 -2.0894 0.9288 0
M  V30 3 C 1.4428 -1.5012 -0.8201 0
M  V30 4 C -0.618 -2.8184 1.7806 0
M  V30 5 C -0.1425 -0.78 0.6307 0
M  V30 6 C 0.9023 -0.1806 -0.2423 0
M  V30 7 C 0.6929 -2.0079 -2.0829 0
M  V30 8 O -0.2927 -4.1021 2.0895 0
M  V30 9 C -1.774 -2.2122 2.2896 0
M  V30 10 C -1.297 -0.1583 1.0677 0
M  V30 11 C 0.2753 0.8294 -1.206 0
M  V30 12 C 1.9366 0.5561 0.6358 0
M  V30 13 O 1.5019 -2.9307 -2.8238 0
M  V30 14 C 0.2659 -0.8851 -3.0261 0
M  V30 15 C -2.1221 -0.8932 1.92 0
M  V30 16 C -1.6278 1.21 0.5295 0
M  V30 17 C -0.4927 1.8687 -0.337 0
M  V30 18 C -0.5662 0.1698 -2.3021 0
M  V30 19 C 1.3321 1.7843 1.3358 0
M  V30 20 N 0.5428 2.6186 0.4204 0
M  V30 21 C 0.0167 3.7969 1.1035 0
M  V30 22 H 2.5151 -1.4238 -1.0365 0
M  V30 23 H -0.198 -2.5751 -1.7888 0
M  V30 24 H -0.9744 -4.4681 2.6736 0
M  V30 25 H -2.4357 -2.7573 2.9568 0
M  V30 26 H 1.0861 1.3549 -1.7349 0
M  V30 27 H 2.3689 -0.1068 1.3962 0
M  V30 28 H 2.7707 0.8847 0.0013 0
M  V30 29 H 2.3743 -2.5289 -2.9689 0
M  V30 30 H 1.1497 -0.4247 -3.486 0
M  V30 31 H -0.3124 -1.3077 -3.8568 0
M  V30 32 H -3.0461 -0.4605 2.2966 0
M  V30 33 H -2.5108 1.0987 -0.1136 0
M  V30 34 H -1.9267 1.8664 1.3527 0
M  V30 35 H -0.9724 2.5843 -1.0183 0
M  V30 36 H -0.8925 0.9314 -3.02 0
M  V30 37 H -1.4744 -0.2912 -1.899 0
M  V30 38 H 2.1609 2.3755 1.7454 0
M  V30 39 H 0.7294 1.4663 2.1954 0
M  V30 40 H -0.6281 3.545 1.9513 0
M  V30 41 H 0.8401 4.4134 1.4815 0
M  V30 42 H -0.5505 4.4282 0.411 0
M  V30 END ATOM
M  V30 BEGIN BOND
M  V30 1 1 1 2
M  V30 2 1 1 3
M  V30 3 2 2 4
M  V30 4 1 2 5
M  V30 5 1 3 6
M  V30 6 1 3 7
M  V30 7 1 4 8
M  V30 8 1 4 9
M  V30 9 2 5 10
M  V30 10 1 6 11
M  V30 11 1 6 12
M  V30 12 1 7 13
M  V30 13 1 7 14
M  V30 14 2 9 15
M  V30 15 1 10 16
M  V30 16 1 11 17
M  V30 17 1 11 18
M  V30 18 1 12 19
M  V30 19 1 17 20
M  V30 20 1 20 21
M  V30 21 1 5 6
M  V30 22 1 10 15
M  V30 23 1 14 18
M  V30 24 1 16 17
M  V30 25 1 19 20
M  V30 26 1 3 22
M  V30 27 1 7 23
M  V30 28 1 8 24
M  V30 29 1 9 25
M  V30 30 1 11 26
M  V30 31 1 12 27
M  V30 32 1 12 28
M  V30 33 1 13 29
M  V30 34 1 14 30
M  V30 35 1 14 31
M  V30 36 1 15 32
M  V30 37 1 16 33
M  V30 38 1 16 34
M  V30 39 1 17 35
M  V30 40 1 18 36
M  V30 41 1 18 37
M  V30 42 1 19 38
M  V30 43 1 19 39
M  V30 44 1 21 40
M  V30 45 1 21 41
M  V30 46 1 21 42
M  V30 END BOND
M  V30 END CTAB
M  END
>  <NO.>
1832

>  <Name>
paramorfan

>  <SMILES>
CN1CCC23c4c5ccc(O)c4OC2C(O)CCC3C1C5

>  <logBB>


>  <Class>
1

>  <MW>
287.15

>  <nHBAcc>
4

>  <nHBDon>
2

>  <SLogP>
1.42

>  <TopoPSA>
52.93

>  <MMFF94 Energy>
90.337

$$$$
CN1CCC23c4c5ccc(O)c4OC2CCCC3C1C5
Actelion Java MolfileCreator 2.0

  0  0  0  0  0  0              0 V3000
M  V30 BEGIN CTAB
M  V30 COUNTS 41 45 0 0 0
M  V30 BEGIN ATOM
M  V30 1 O 2.025 -1.6197 1.0526 0
M  V30 2 C 1.6156 -1.6704 -0.2619 0
M  V30 3 C 1.4062 -0.382 1.5472 0
M  V30 4 C 2.1631 -2.3987 -1.2927 0
M  V30 5 C 0.5584 -0.8152 -0.5049 0
M  V30 6 C 0.0923 -0.1987 0.7668 0
M  V30 7 C 2.428 0.7613 1.372 0
M  V30 8 O 3.1949 -3.2526 -1.0539 0
M  V30 9 C 1.6497 -2.2123 -2.5834 0
M  V30 10 C 0.0559 -0.5593 -1.7673 0
M  V30 11 C -0.4029 1.2252 0.5182 0
M  V30 12 C -1.0773 -1.0268 1.3415 0
M  V30 13 C 1.7928 2.1447 1.2938 0
M  V30 14 C 0.6121 -1.2826 -2.8227 0
M  V30 15 C -0.9806 0.5249 -1.9244 0
M  V30 16 C -1.5092 1.1316 -0.5716 0
M  V30 17 C 0.7293 2.2064 0.1967 0
M  V30 18 C -2.3166 -0.9847 0.4302 0
M  V30 19 N -2.677 0.3496 -0.0781 0
M  V30 20 C -3.485 1.0904 0.8898 0
M  V30 21 H 1.2031 -0.5127 2.6172 0
M  V30 22 H 3.0346 0.6003 0.4711 0
M  V30 23 H 3.1439 0.7272 2.2026 0
M  V30 24 H 3.444 -3.6815 -1.887 0
M  V30 25 H 2.0602 -2.7607 -3.4264 0
M  V30 26 H -0.849 1.6037 1.4483 0
M  V30 27 H -0.7894 -2.075 1.4941 0
M  V30 28 H -1.3442 -0.6326 2.3308 0
M  V30 29 H 2.5699 2.8904 1.091 0
M  V30 30 H 1.3474 2.4031 2.2621 0
M  V30 31 H 0.2571 -1.1276 -3.839 0
M  V30 32 H -0.5181 1.3385 -2.4984 0
M  V30 33 H -1.8206 0.1517 -2.5234 0
M  V30 34 H -1.8661 2.1419 -0.8135 0
M  V30 35 H 1.19 1.9957 -0.7745 0
M  V30 36 H 0.3251 3.224 0.1392 0
M  V30 37 H -2.1534 -1.6458 -0.4295 0
M  V30 38 H -3.1669 -1.4372 0.9571 0
M  V30 39 H -4.4191 0.5535 1.091 0
M  V30 40 H -2.977 1.2475 1.8461 0
M  V30 41 H -3.7745 2.0676 0.4877 0
M  V30 END ATOM
M  V30 BEGIN BOND
M  V30 1 1 1 2
M  V30 2 1 1 3
M  V30 3 2 2 4
M  V30 4 1 2 5
M  V30 5 1 3 6
M  V30 6 1 3 7
M  V30 7 1 4 8
M  V30 8 1 4 9
M  V30 9 2 5 10
M  V30 10 1 6 11
M  V30 11 1 6 12
M  V30 12 1 7 13
M  V30 13 2 9 14
M  V30 14 1 10 15
M  V30 15 1 11 16
M  V30 16 1 11 17
M  V30 17 1 12 18
M  V30 18 1 16 19
M  V30 19 1 19 20
M  V30 20 1 5 6
M  V30 21 1 10 14
M  V30 22 1 13 17
M  V30 23 1 15 16
M  V30 24 1 18 19
M  V30 25 1 3 21
M  V30 26 1 7 22
M  V30 27 1 7 23
M  V30 28 1 8 24
M  V30 29 1 9 25
M  V30 30 1 11 26
M  V30 31 1 12 27
M  V30 32 1 12 28
M  V30 33 1 13 29
M  V30 34 1 13 30
M  V30 35 1 14 31
M  V30 36 1 15 32
M  V30 37 1 15 33
M  V30 38 1 16 34
M  V30 39 1 17 35
M  V30 40 1 17 36
M  V30 41 1 18 37
M  V30 42 1 18 38
M  V30 43 1 20 39
M  V30 44 1 20 40
M  V30 45 1 20 41
M  V30 END BOND
M  V30 END CTAB
M  END
>  <NO.>
1833

>  <Name>
desomorphine

>  <SMILES>
CN1CCC23c4c5ccc(O)c4OC2CCCC3C1C5

>  <logBB>


>  <Class>
1

>  <MW>
271.16

>  <nHBAcc>
3

>  <nHBDon>
1

>  <SLogP>
2.45

>  <TopoPSA>
32.7

>  <MMFF94 Energy>
72.988

$$$$
CN1CCC2=C(C1)c1ccccc1Cc1ccccc12
Actelion Java MolfileCreator 2.0

  0  0  0  0  0  0              0 V3000
M  V30 BEGIN CTAB
M  V30 COUNTS 39 42 0 0 0
M  V30 BEGIN ATOM
M  V30 1 N -0.3209 1.6055 2.8914 0
M  V30 2 C 0.6637 0.6865 2.2953 0
M  V30 3 C -1.6766 1.1244 2.6103 0
M  V30 4 C -0.1121 2.9808 2.4417 0
M  V30 5 C 0.376 0.2036 0.8742 0
M  V30 6 C -1.982 0.9879 1.1131 0
M  V30 7 C 1.5265 -0.4488 0.1822 0
M  V30 8 C -0.8588 0.3376 0.3235 0
M  V30 9 C 1.3793 -1.6842 -0.4846 0
M  V30 10 C 2.7991 0.1476 0.2012 0
M  V30 11 C -1.2492 -0.1566 -1.0261 0
M  V30 12 C 2.4943 -2.3012 -1.0796 0
M  V30 13 C 0.0153 -2.3182 -0.6269 0
M  V30 14 C 3.9006 -0.4729 -0.3939 0
M  V30 15 C -0.8834 -1.4445 -1.4714 0
M  V30 16 C -2.0442 0.641 -1.8664 0
M  V30 17 C 3.7497 -1.7008 -1.027 0
M  V30 18 C -1.3165 -1.902 -2.7283 0
M  V30 19 C -2.4693 0.1769 -3.1135 0
M  V30 20 C -2.1086 -1.0953 -3.5425 0
M  V30 21 H 1.6521 1.1496 2.3817 0
M  V30 22 H 0.7124 -0.2058 2.9353 0
M  V30 23 H -1.8097 0.148 3.096 0
M  V30 24 H -2.4176 1.7841 3.0789 0
M  V30 25 H 0.8674 3.3424 2.7746 0
M  V30 26 H -0.1603 3.0965 1.3538 0
M  V30 27 H -0.8566 3.6479 2.8908 0
M  V30 28 H -2.9029 0.3995 1.0106 0
M  V30 29 H -2.1863 1.9837 0.7006 0
M  V30 30 H 2.9519 1.1201 0.6623 0
M  V30 31 H 2.3841 -3.2484 -1.6026 0
M  V30 32 H 0.1061 -3.3148 -1.0775 0
M  V30 33 H -0.4334 -2.4912 0.3598 0
M  V30 34 H 4.8741 0.0095 -0.3669 0
M  V30 35 H -2.3333 1.6449 -1.5664 0
M  V30 36 H 4.6043 -2.1823 -1.4945 0
M  V30 37 H -1.028 -2.8886 -3.0832 0
M  V30 38 H -3.0793 0.8131 -3.7494 0
M  V30 39 H -2.4351 -1.456 -4.5141 0
M  V30 END ATOM
M  V30 BEGIN BOND
M  V30 1 1 1 2
M  V30 2 1 1 3
M  V30 3 1 1 4
M  V30 4 1 2 5
M  V30 5 1 3 6
M  V30 6 1 5 7
M  V30 7 2 5 8
M  V30 8 2 7 9
M  V30 9 1 7 10
M  V30 10 1 8 11
M  V30 11 1 9 12
M  V30 12 1 9 13
M  V30 13 2 10 14
M  V30 14 2 11 15
M  V30 15 1 11 16
M  V30 16 2 12 17
M  V30 17 1 15 18
M  V30 18 2 16 19
M  V30 19 2 18 20
M  V30 20 1 6 8
M  V30 21 1 13 15
M  V30 22 1 14 17
M  V30 23 1 19 20
M  V30 24 1 2 21
M  V30 25 1 2 22
M  V30 26 1 3 23
M  V30 27 1 3 24
M  V30 28 1 4 25
M  V30 29 1 4 26
M  V30 30 1 4 27
M  V30 31 1 6 28
M  V30 32 1 6 29
M  V30 33 1 10 30
M  V30 34 1 12 31
M  V30 35 1 13 32
M  V30 36 1 13 33
M  V30 37 1 14 34
M  V30 38 1 16 35
M  V30 39 1 17 36
M  V30 40 1 18 37
M  V30 41 1 19 38
M  V30 42 1 20 39
M  V30 END BOND
M  V30 END CTAB
M  END
>  <NO.>
1834

>  <Name>
setiptiline

>  <SMILES>
CN1CCC2=C(C1)c1ccccc1Cc1ccccc12

>  <logBB>


>  <Class>
1

>  <MW>
261.15

>  <nHBAcc>
1

>  <nHBDon>
0

>  <SLogP>
3.84

>  <TopoPSA>
3.24

>  <MMFF94 Energy>
82.371

$$$$
CN1CCC2=C(CC1)c1cc(C#N)ccc1Sc1ccccc12
Actelion Java MolfileCreator 2.0

  0  0  0  0  0  0              0 V3000
M  V30 BEGIN CTAB
M  V30 COUNTS 41 44 0 0 0
M  V30 BEGIN ATOM
M  V30 1 S -3.1097 0.9812 -0.654 0
M  V30 2 C -1.8534 0.6148 -1.8782 0
M  V30 3 C -2.8044 -0.4091 0.4361 0
M  V30 4 C -0.486 0.4864 -1.5614 0
M  V30 5 C -2.292 0.4062 -3.1956 0
M  V30 6 C -1.55 -0.6598 1.0272 0
M  V30 7 C -3.8726 -1.2944 0.6532 0
M  V30 8 C 0.0607 0.8132 -0.2169 0
M  V30 9 C 0.4046 0.0972 -2.5802 0
M  V30 10 C -1.392 0.0372 -4.1962 0
M  V30 11 C -0.4158 0.2992 0.9417 0
M  V30 12 C -1.3929 -1.8341 1.7869 0
M  V30 13 C -3.6989 -2.4436 1.4232 0
M  V30 14 C 1.2175 1.8017 -0.2027 0
M  V30 15 C -0.0424 -0.1287 -3.8877 0
M  V30 16 C 0.1969 0.7035 2.2745 0
M  V30 17 C -2.456 -2.7189 1.9811 0
M  V30 18 C 2.5324 1.2095 0.3329 0
M  V30 19 C 0.887 -0.5214 -4.906 0
M  V30 20 C 1.6659 0.2773 2.4348 0
M  V30 21 N 2.6324 1.1941 1.8033 0
M  V30 22 N 1.6429 -0.8379 -5.7276 0
M  V30 23 C 3.9953 0.8276 2.2026 0
M  V30 24 H -3.3462 0.5111 -3.4464 0
M  V30 25 H -4.8458 -1.102 0.2067 0
M  V30 26 H 1.4623 -0.0318 -2.3549 0
M  V30 27 H -1.7558 -0.1289 -5.2085 0
M  V30 28 H -0.4339 -2.0721 2.2414 0
M  V30 29 H -4.5307 -3.1261 1.5773 0
M  V30 30 H 0.9356 2.6943 0.3722 0
M  V30 31 H 1.4064 2.1853 -1.2139 0
M  V30 32 H 0.0936 1.788 2.4165 0
M  V30 33 H -0.3737 0.2711 3.1069 0
M  V30 34 H -2.3127 -3.6183 2.5748 0
M  V30 35 H 3.3356 1.8516 -0.0528 0
M  V30 36 H 2.705 0.2086 -0.0845 0
M  V30 37 H 1.8654 0.2693 3.5148 0
M  V30 38 H 1.8114 -0.7526 2.0828 0
M  V30 39 H 4.2661 -0.1801 1.8676 0
M  V30 40 H 4.7227 1.5365 1.7913 0
M  V30 41 H 4.104 0.8711 3.2922 0
M  V30 END ATOM
M  V30 BEGIN BOND
M  V30 1 1 1 2
M  V30 2 1 1 3
M  V30 3 2 2 4
M  V30 4 1 2 5
M  V30 5 2 3 6
M  V30 6 1 3 7
M  V30 7 1 4 8
M  V30 8 1 4 9
M  V30 9 2 5 10
M  V30 10 1 6 11
M  V30 11 1 6 12
M  V30 12 2 7 13
M  V30 13 1 8 14
M  V30 14 2 9 15
M  V30 15 1 11 16
M  V30 16 2 12 17
M  V30 17 1 14 18
M  V30 18 1 15 19
M  V30 19 1 16 20
M  V30 20 1 18 21
M  V30 21 3 19 22
M  V30 22 1 21 23
M  V30 23 2 8 11
M  V30 24 1 10 15
M  V30 25 1 13 17
M  V30 26 1 20 21
M  V30 27 1 5 24
M  V30 28 1 7 25
M  V30 29 1 9 26
M  V30 30 1 10 27
M  V30 31 1 12 28
M  V30 32 1 13 29
M  V30 33 1 14 30
M  V30 34 1 14 31
M  V30 35 1 16 32
M  V30 36 1 16 33
M  V30 37 1 17 34
M  V30 38 1 18 35
M  V30 39 1 18 36
M  V30 40 1 20 37
M  V30 41 1 20 38
M  V30 42 1 23 39
M  V30 43 1 23 40
M  V30 44 1 23 41
M  V30 END BOND
M  V30 END CTAB
M  END
>  <NO.>
1835

>  <Name>
citatepine

>  <SMILES>
CN1CCC2=C(CC1)c1cc(C#N)ccc1Sc1ccccc12

>  <logBB>


>  <Class>
1

>  <MW>
318.12

>  <nHBAcc>
3

>  <nHBDon>
0

>  <SLogP>
4.66

>  <TopoPSA>
27.03

>  <MMFF94 Energy>
115.74

$$$$
CN1CCC2=C(CC1)c1ccccc1N(C)c1ccccc12
Actelion Java MolfileCreator 2.0

  0  0  0  0  0  0              0 V3000
M  V30 BEGIN CTAB
M  V30 COUNTS 44 47 0 0 0
M  V30 BEGIN ATOM
M  V30 1 N -1.278 -1.0383 1.9175 0
M  V30 2 C -1.4017 -1.7741 0.716 0
M  V30 3 C -0.0194 -0.5556 2.3459 0
M  V30 4 C -2.3358 -1.1708 2.9137 0
M  V30 5 C -0.9166 -1.2621 -0.5098 0
M  V30 6 C -1.9302 -3.0825 0.7348 0
M  V30 7 C 0.787 0.2397 1.499 0
M  V30 8 C 0.4999 -0.9401 3.6004 0
M  V30 9 C -0.5064 0.1632 -0.657 0
M  V30 10 C -0.9192 -2.0969 -1.6464 0
M  V30 11 C -1.9501 -3.8818 -0.4087 0
M  V30 12 C 0.2545 0.834 0.2401 0
M  V30 13 C 2.0969 0.5621 1.9101 0
M  V30 14 C 1.789 -0.5855 4.0003 0
M  V30 15 C -1.0182 0.8801 -1.8996 0
M  V30 16 C -1.4305 -3.3933 -1.5978 0
M  V30 17 C 0.5919 2.2997 -0.001 0
M  V30 18 C 2.5939 0.1544 3.1477 0
M  V30 19 C 0.1028 1.3083 -2.8619 0
M  V30 20 C 1.4833 2.5254 -1.2342 0
M  V30 21 N 0.7453 2.5887 -2.5098 0
M  V30 22 C 1.6518 2.9999 -3.586 0
M  V30 23 H -2.2272 -2.0863 3.506 0
M  V30 24 H -3.3236 -1.1837 2.4373 0
M  V30 25 H -2.338 -0.3149 3.5995 0
M  V30 26 H -2.2921 -3.5164 1.6622 0
M  V30 27 H -0.0823 -1.5684 4.2679 0
M  V30 28 H -0.521 -1.7399 -2.5928 0
M  V30 29 H -2.3482 -4.8914 -0.3595 0
M  V30 30 H 2.7496 1.1434 1.2639 0
M  V30 31 H 2.1676 -0.9105 4.9654 0
M  V30 32 H -1.6261 1.7472 -1.6071 0
M  V30 33 H -1.7242 0.2495 -2.454 0
M  V30 34 H -1.4244 -4.0148 -2.4888 0
M  V30 35 H -0.3324 2.8878 -0.0817 0
M  V30 36 H 1.0956 2.7354 0.8709 0
M  V30 37 H 3.6055 0.4193 3.4423 0
M  V30 38 H 0.8482 0.5089 -2.9679 0
M  V30 39 H -0.3678 1.4294 -3.8467 0
M  V30 40 H 2.282 1.7729 -1.2774 0
M  V30 41 H 1.9757 3.4953 -1.0834 0
M  V30 42 H 2.0923 3.9792 -3.3674 0
M  V30 43 H 1.1064 3.1101 -4.5299 0
M  V30 44 H 2.4649 2.281 -3.738 0
M  V30 END ATOM
M  V30 BEGIN BOND
M  V30 1 1 1 2
M  V30 2 1 1 3
M  V30 3 1 1 4
M  V30 4 2 2 5
M  V30 5 1 2 6
M  V30 6 2 3 7
M  V30 7 1 3 8
M  V30 8 1 5 9
M  V30 9 1 5 10
M  V30 10 2 6 11
M  V30 11 1 7 12
M  V30 12 1 7 13
M  V30 13 2 8 14
M  V30 14 1 9 15
M  V30 15 2 10 16
M  V30 16 1 12 17
M  V30 17 2 13 18
M  V30 18 1 15 19
M  V30 19 1 17 20
M  V30 20 1 19 21
M  V30 21 1 21 22
M  V30 22 2 9 12
M  V30 23 1 11 16
M  V30 24 1 14 18
M  V30 25 1 20 21
M  V30 26 1 4 23
M  V30 27 1 4 24
M  V30 28 1 4 25
M  V30 29 1 6 26
M  V30 30 1 8 27
M  V30 31 1 10 28
M  V30 32 1 11 29
M  V30 33 1 13 30
M  V30 34 1 14 31
M  V30 35 1 15 32
M  V30 36 1 15 33
M  V30 37 1 16 34
M  V30 38 1 17 35
M  V30 39 1 17 36
M  V30 40 1 18 37
M  V30 41 1 19 38
M  V30 42 1 19 39
M  V30 43 1 20 40
M  V30 44 1 20 41
M  V30 45 1 22 42
M  V30 46 1 22 43
M  V30 47 1 22 44
M  V30 END BOND
M  V30 END CTAB
M  END
>  <NO.>
1836

>  <Name>
erizepine

>  <SMILES>
CN1CCC2=C(CC1)c1ccccc1N(C)c1ccccc12

>  <logBB>


>  <Class>
1

>  <MW>
290.18

>  <nHBAcc>
2

>  <nHBDon>
0

>  <SLogP>
4.4

>  <TopoPSA>
6.48

>  <MMFF94 Energy>
121.36

$$$$
CN1CCC2=C(CC1)c1ccccc1Oc1ccccc12
Actelion Java MolfileCreator 2.0

  0  0  0  0  0  0              0 V3000
M  V30 BEGIN CTAB
M  V30 COUNTS 40 43 0 0 0
M  V30 BEGIN ATOM
M  V30 1 O -1.2837 -0.401 -1.8457 0
M  V30 2 C -1.5485 -1.449 -0.989 0
M  V30 3 C -1.7263 0.8055 -1.3449 0
M  V30 4 C -0.9359 -1.5447 0.2713 0
M  V30 5 C -2.4563 -2.4143 -1.4368 0
M  V30 6 C -1.1662 1.3752 -0.1896 0
M  V30 7 C -2.7599 1.4367 -2.0447 0
M  V30 8 C 0.1096 -0.5775 0.7007 0
M  V30 9 C -1.3198 -2.6117 1.1 0
M  V30 10 C -2.8048 -3.4752 -0.6056 0
M  V30 11 C 0.0043 0.7578 0.4899 0
M  V30 12 C -1.7285 2.5727 0.2816 0
M  V30 13 C -3.2865 2.6349 -1.5701 0
M  V30 14 C 1.3334 -1.1673 1.3823 0
M  V30 15 C -2.2455 -3.5675 0.6665 0
M  V30 16 C 1.1067 1.7079 0.9285 0
M  V30 17 C -2.7788 3.1966 -0.4011 0
M  V30 18 C 2.6424 -0.9458 0.6048 0
M  V30 19 C 2.4526 1.4621 0.2248 0
M  V30 20 N 3.2552 0.3774 0.8175 0
M  V30 21 C 4.6027 0.3922 0.2374 0
M  V30 22 H -2.9014 -2.3242 -2.4233 0
M  V30 23 H -3.162 0.9821 -2.9453 0
M  V30 24 H -0.9081 -2.7087 2.1021 0
M  V30 25 H -3.5193 -4.2209 -0.9437 0
M  V30 26 H -1.3609 3.0337 1.1956 0
M  V30 27 H -4.0982 3.1228 -2.103 0
M  V30 28 H 1.2299 -2.2531 1.4943 0
M  V30 29 H 1.416 -0.7812 2.4069 0
M  V30 30 H -2.5262 -4.3857 1.3252 0
M  V30 31 H 0.8357 2.7467 0.705 0
M  V30 32 H 1.2226 1.6715 2.0197 0
M  V30 33 H -3.1971 4.1243 -0.018 0
M  V30 34 H 2.4956 -1.1501 -0.4644 0
M  V30 35 H 3.3462 -1.705 0.9723 0
M  V30 36 H 3.0229 2.3956 0.325 0
M  V30 37 H 2.3021 1.3041 -0.8518 0
M  V30 38 H 5.2317 -0.3755 0.7019 0
M  V30 39 H 5.0955 1.352 0.4292 0
M  V30 40 H 4.5888 0.2202 -0.845 0
M  V30 END ATOM
M  V30 BEGIN BOND
M  V30 1 1 1 2
M  V30 2 1 1 3
M  V30 3 2 2 4
M  V30 4 1 2 5
M  V30 5 2 3 6
M  V30 6 1 3 7
M  V30 7 1 4 8
M  V30 8 1 4 9
M  V30 9 2 5 10
M  V30 10 1 6 11
M  V30 11 1 6 12
M  V30 12 2 7 13
M  V30 13 1 8 14
M  V30 14 2 9 15
M  V30 15 1 11 16
M  V30 16 2 12 17
M  V30 17 1 14 18
M  V30 18 1 16 19
M  V30 19 1 18 20
M  V30 20 1 20 21
M  V30 21 2 8 11
M  V30 22 1 10 15
M  V30 23 1 13 17
M  V30 24 1 19 20
M  V30 25 1 5 22
M  V30 26 1 7 23
M  V30 27 1 9 24
M  V30 28 1 10 25
M  V30 29 1 12 26
M  V30 30 1 13 27
M  V30 31 1 14 28
M  V30 32 1 14 29
M  V30 33 1 15 30
M  V30 34 1 16 31
M  V30 35 1 16 32
M  V30 36 1 17 33
M  V30 37 1 18 34
M  V30 38 1 18 35
M  V30 39 1 19 36
M  V30 40 1 19 37
M  V30 41 1 21 38
M  V30 42 1 21 39
M  V30 43 1 21 40
M  V30 END BOND
M  V30 END CTAB
M  END
>  <NO.>
1837

>  <Name>
maroxepin

>  <SMILES>
CN1CCC2=C(CC1)c1ccccc1Oc1ccccc12

>  <logBB>


>  <Class>
1

>  <MW>
277.15

>  <nHBAcc>
2

>  <nHBDon>
0

>  <SLogP>
4.43

>  <TopoPSA>
12.47

>  <MMFF94 Energy>
107.7

$$$$
CN1CCCC(CN2c3ccccc3Sc3ccccc32)C1
Actelion Java MolfileCreator 2.0

  0  0  0  0  0  0              0 V3000
M  V30 BEGIN CTAB
M  V30 COUNTS 44 47 0 0 0
M  V30 BEGIN ATOM
M  V30 1 S -0.6472 1.2949 -3.4829 0
M  V30 2 C -2.0279 1.0202 -2.3908 0
M  V30 3 C 0.5964 1.8895 -2.3543 0
M  V30 4 C -1.8972 0.9674 -0.9886 0
M  V30 5 C -3.2796 0.8259 -3.002 0
M  V30 6 C 0.4828 1.7669 -0.9549 0
M  V30 7 C 1.7287 2.4906 -2.9332 0
M  V30 8 N -0.6373 1.1357 -0.3543 0
M  V30 9 C -3.0765 0.7633 -0.2415 0
M  V30 10 C -4.4214 0.6046 -2.2375 0
M  V30 11 C 1.51 2.3415 -0.1785 0
M  V30 12 C 2.7451 3.012 -2.1386 0
M  V30 13 C -0.3908 0.3397 0.8781 0
M  V30 14 C -4.3204 0.5806 -0.8545 0
M  V30 15 C 2.6294 2.9477 -0.7582 0
M  V30 16 C -0.3868 -1.1883 0.6107 0 CFG=2
M  V30 17 C -0.3858 -1.9613 1.9433 0
M  V30 18 C 0.8004 -1.6568 -0.2466 0
M  V30 19 N 0.8847 -1.8032 2.6673 0
M  V30 20 C 2.1171 -1.607 0.5237 0
M  V30 21 C 2.0062 -2.3245 1.8699 0
M  V30 22 C 0.8245 -2.4847 3.9614 0
M  V30 23 H -3.3702 0.8537 -4.0858 0
M  V30 24 H 1.8171 2.5647 -4.0149 0
M  V30 25 H -3.0577 0.7668 0.8435 0
M  V30 26 H -5.3838 0.4632 -2.7213 0
M  V30 27 H 1.4451 2.3614 0.9056 0
M  V30 28 H 3.6112 3.4812 -2.5967 0
M  V30 29 H 0.5452 0.6098 1.3726 0
M  V30 30 H -1.1497 0.5871 1.6296 0
M  V30 31 H -5.2077 0.4276 -0.2455 0
M  V30 32 H 3.4017 3.3763 -0.1248 0
M  V30 33 H -1.3058 -1.4627 0.0791 0
M  V30 34 H -0.5845 -3.0237 1.7461 0
M  V30 35 H -1.2151 -1.5965 2.5629 0
M  V30 36 H 0.6183 -2.6948 -0.5555 0
M  V30 37 H 0.8817 -1.0769 -1.1706 0
M  V30 38 H 2.4204 -0.566 0.6838 0
M  V30 39 H 2.908 -2.0734 -0.0749 0
M  V30 40 H 2.9474 -2.1778 2.4135 0
M  V30 41 H 1.8941 -3.4036 1.7002 0
M  V30 42 H 1.7557 -2.334 4.5188 0
M  V30 43 H 0.0199 -2.0681 4.5776 0
M  V30 44 H 0.6556 -3.5623 3.8554 0
M  V30 END ATOM
M  V30 BEGIN BOND
M  V30 1 1 1 2
M  V30 2 1 1 3
M  V30 3 2 2 4
M  V30 4 1 2 5
M  V30 5 2 3 6
M  V30 6 1 3 7
M  V30 7 1 4 8
M  V30 8 1 4 9
M  V30 9 2 5 10
M  V30 10 1 6 11
M  V30 11 2 7 12
M  V30 12 1 8 13
M  V30 13 2 9 14
M  V30 14 2 11 15
M  V30 15 1 13 16
M  V30 16 1 16 17
M  V30 17 1 16 18
M  V30 18 1 17 19
M  V30 19 1 18 20
M  V30 20 1 19 21
M  V30 21 1 19 22
M  V30 22 1 6 8
M  V30 23 1 10 14
M  V30 24 1 12 15
M  V30 25 1 20 21
M  V30 26 1 5 23
M  V30 27 1 7 24
M  V30 28 1 9 25
M  V30 29 1 10 26
M  V30 30 1 11 27
M  V30 31 1 12 28
M  V30 32 1 13 29
M  V30 33 1 13 30
M  V30 34 1 14 31
M  V30 35 1 15 32
M  V30 36 1 16 33
M  V30 37 1 17 34
M  V30 38 1 17 35
M  V30 39 1 18 36
M  V30 40 1 18 37
M  V30 41 1 20 38
M  V30 42 1 20 39
M  V30 43 1 21 40
M  V30 44 1 21 41
M  V30 45 1 22 42
M  V30 46 1 22 43
M  V30 47 1 22 44
M  V30 END BOND
M  V30 BEGIN COLLECTION
M  V30 MDLV30/STERAC1 ATOMS=(1 16)
M  V30 END COLLECTION
M  V30 END CTAB
M  END
>  <NO.>
1838

>  <Name>
pecazine

>  <SMILES>
CN1CCCC(CN2c3ccccc3Sc3ccccc32)C1

>  <logBB>


>  <Class>
1

>  <MW>
310.15

>  <nHBAcc>
3

>  <nHBDon>
0

>  <SLogP>
4.63

>  <TopoPSA>
6.48

>  <MMFF94 Energy>
73.065

$$$$
CN1CCCN(C(c2ccccc2)c2ccc(Cl)cc2)CC1
Actelion Java MolfileCreator 2.0

  0  0  0  0  0  0              0 V3000
M  V30 BEGIN CTAB
M  V30 COUNTS 45 47 0 0 0
M  V30 BEGIN ATOM
M  V30 1 Cl 3.6056 2.2423 -4.6491 0
M  V30 2 C 2.4124 1.8098 -3.4871 0
M  V30 3 C 2.802 1.394 -2.217 0
M  V30 4 C 1.0625 1.8774 -3.8242 0
M  V30 5 C 1.8323 1.0423 -1.2753 0
M  V30 6 C 0.0919 1.5254 -2.8827 0
M  V30 7 C 0.4634 1.0989 -1.5954 0
M  V30 8 C -0.6186 0.7298 -0.567 0 CFG=1
M  V30 9 N -0.4497 -0.6349 0.0246 0
M  V30 10 C -0.7066 1.8511 0.4815 0
M  V30 11 C -0.2417 -1.6586 -1.0266 0
M  V30 12 C -1.5767 -0.9991 0.9004 0
M  V30 13 C 0.0975 1.8549 1.6348 0
M  V30 14 C -1.5855 2.9292 0.2767 0
M  V30 15 C -0.3623 -3.1597 -0.6518 0
M  V30 16 C -1.0945 -1.8593 2.0703 0
M  V30 17 C 0.0128 2.8947 2.5621 0
M  V30 18 C -1.6677 3.9689 1.2052 0
M  V30 19 N 0.1204 -3.6164 0.6546 0
M  V30 20 C -0.821 -3.3237 1.733 0
M  V30 21 C -0.8702 3.9503 2.3475 0
M  V30 22 C 1.4842 -3.1928 0.9458 0
M  V30 23 H 3.854 1.3415 -1.9513 0
M  V30 24 H 0.7594 2.2053 -4.8148 0
M  V30 25 H 2.1462 0.7127 -0.2873 0
M  V30 26 H -0.9578 1.5892 -3.1603 0
M  V30 27 H -1.5833 0.7114 -1.0965 0
M  V30 28 H -0.9386 -1.4872 -1.8584 0
M  V30 29 H 0.7698 -1.5316 -1.4291 0
M  V30 30 H -2.3909 -1.4837 0.3466 0
M  V30 31 H -2.0329 -0.112 1.3538 0
M  V30 32 H 0.7914 1.0371 1.817 0
M  V30 33 H -2.21 2.9676 -0.6125 0
M  V30 34 H 0.17 -3.7322 -1.4232 0
M  V30 35 H -1.4116 -3.4643 -0.7667 0
M  V30 36 H -0.2073 -1.4056 2.5302 0
M  V30 37 H -1.8702 -1.8398 2.8472 0
M  V30 38 H 0.6385 2.8805 3.4505 0
M  V30 39 H -2.3514 4.7965 1.0348 0
M  V30 40 H -0.4733 -3.8256 2.6457 0
M  V30 41 H -1.7777 -3.8112 1.5016 0
M  V30 42 H -0.9335 4.761 3.0685 0
M  V30 43 H 1.8432 -3.675 1.862 0
M  V30 44 H 2.1611 -3.5087 0.1442 0
M  V30 45 H 1.5918 -2.1117 1.0733 0
M  V30 END ATOM
M  V30 BEGIN BOND
M  V30 1 1 1 2
M  V30 2 2 2 3
M  V30 3 1 2 4
M  V30 4 1 3 5
M  V30 5 2 4 6
M  V30 6 2 5 7
M  V30 7 1 7 8
M  V30 8 1 8 9
M  V30 9 1 8 10
M  V30 10 1 9 11
M  V30 11 1 9 12
M  V30 12 2 10 13
M  V30 13 1 10 14
M  V30 14 1 11 15
M  V30 15 1 12 16
M  V30 16 1 13 17
M  V30 17 2 14 18
M  V30 18 1 15 19
M  V30 19 1 16 20
M  V30 20 2 17 21
M  V30 21 1 19 22
M  V30 22 1 6 7
M  V30 23 1 18 21
M  V30 24 1 19 20
M  V30 25 1 3 23
M  V30 26 1 4 24
M  V30 27 1 5 25
M  V30 28 1 6 26
M  V30 29 1 8 27
M  V30 30 1 11 28
M  V30 31 1 11 29
M  V30 32 1 12 30
M  V30 33 1 12 31
M  V30 34 1 13 32
M  V30 35 1 14 33
M  V30 36 1 15 34
M  V30 37 1 15 35
M  V30 38 1 16 36
M  V30 39 1 16 37
M  V30 40 1 17 38
M  V30 41 1 18 39
M  V30 42 1 20 40
M  V30 43 1 20 41
M  V30 44 1 21 42
M  V30 45 1 22 43
M  V30 46 1 22 44
M  V30 47 1 22 45
M  V30 END BOND
M  V30 BEGIN COLLECTION
M  V30 MDLV30/STERAC1 ATOMS=(1 8)
M  V30 END COLLECTION
M  V30 END CTAB
M  END
>  <NO.>
1839

>  <Name>
homochlorcyclizine

>  <SMILES>
CN1CCCN(C(c2ccccc2)c2ccc(Cl)cc2)CC1

>  <logBB>


>  <Class>
1

>  <MW>
314.15

>  <nHBAcc>
2

>  <nHBDon>
0

>  <SLogP>
4.07

>  <TopoPSA>
6.48

>  <MMFF94 Energy>
89.755

$$$$
CN1CCCc2cccc(OCC3CNCCO3)c21
Actelion Java MolfileCreator 2.0

  0  0  0  0  0  0              0 V3000
M  V30 BEGIN CTAB
M  V30 COUNTS 41 43 0 0 0
M  V30 BEGIN ATOM
M  V30 1 O 1.6664 -1.587 1.8252 0
M  V30 2 C 1.1655 -2.5418 0.8626 0 CFG=2
M  V30 3 C 2.8805 -0.9589 1.3939 0
M  V30 4 C 2.2538 -3.5874 0.5433 0
M  V30 5 C 0.6087 -1.881 -0.4142 0
M  V30 6 C 3.9629 -1.9915 1.0471 0
M  V30 7 N 3.4999 -2.9746 0.0515 0
M  V30 8 O -0.5378 -1.0938 -0.0637 0
M  V30 9 C -0.9426 -0.1581 -0.9897 0
M  V30 10 C -1.4915 1.0744 -0.533 0
M  V30 11 C -0.871 -0.4561 -2.3634 0
M  V30 12 N -1.6165 1.4423 0.8139 0
M  V30 13 C -1.9507 1.9717 -1.5379 0
M  V30 14 C -1.3026 0.4566 -3.3172 0
M  V30 15 C -1.9796 2.815 1.157 0
M  V30 16 C -1.0985 0.6193 1.8995 0
M  V30 17 C -1.8348 1.6676 -2.9069 0
M  V30 18 C -2.5517 3.3108 -1.1833 0
M  V30 19 C -3.0712 3.3271 0.24 0
M  V30 20 H 0.335 -3.0496 1.3678 0
M  V30 21 H 3.2298 -0.328 2.2181 0
M  V30 22 H 2.6754 -0.2933 0.5491 0
M  V30 23 H 1.886 -4.2995 -0.2033 0
M  V30 24 H 2.4805 -4.1597 1.4519 0
M  V30 25 H 1.364 -1.2533 -0.8991 0
M  V30 26 H 0.2939 -2.6721 -1.1045 0
M  V30 27 H 4.2609 -2.5249 1.9583 0
M  V30 28 H 4.8497 -1.4783 0.6614 0
M  V30 29 H 4.2107 -3.6987 -0.053 0
M  V30 30 H -0.4951 -1.4115 -2.713 0
M  V30 31 H -1.2357 0.2172 -4.3744 0
M  V30 32 H -1.0902 3.4552 1.1 0
M  V30 33 H -2.347 2.8689 2.1889 0
M  V30 34 H -1.2878 1.0825 2.875 0
M  V30 35 H -1.5943 -0.3558 1.934 0
M  V30 36 H -0.0138 0.5049 1.8182 0
M  V30 37 H -2.1775 2.3784 -3.6555 0
M  V30 38 H -3.379 3.5477 -1.8631 0
M  V30 39 H -1.7821 4.0819 -1.3128 0
M  V30 40 H -3.3648 4.3442 0.522 0
M  V30 41 H -3.9626 2.6923 0.3255 0
M  V30 END ATOM
M  V30 BEGIN BOND
M  V30 1 1 1 2
M  V30 2 1 1 3
M  V30 3 1 2 4
M  V30 4 1 2 5
M  V30 5 1 3 6
M  V30 6 1 4 7
M  V30 7 1 5 8
M  V30 8 1 8 9
M  V30 9 2 9 10
M  V30 10 1 9 11
M  V30 11 1 10 12
M  V30 12 1 10 13
M  V30 13 2 11 14
M  V30 14 1 12 15
M  V30 15 1 12 16
M  V30 16 2 13 17
M  V30 17 1 13 18
M  V30 18 1 15 19
M  V30 19 1 6 7
M  V30 20 1 14 17
M  V30 21 1 18 19
M  V30 22 1 2 20
M  V30 23 1 3 21
M  V30 24 1 3 22
M  V30 25 1 4 23
M  V30 26 1 4 24
M  V30 27 1 5 25
M  V30 28 1 5 26
M  V30 29 1 6 27
M  V30 30 1 6 28
M  V30 31 1 7 29
M  V30 32 1 11 30
M  V30 33 1 14 31
M  V30 34 1 15 32
M  V30 35 1 15 33
M  V30 36 1 16 34
M  V30 37 1 16 35
M  V30 38 1 16 36
M  V30 39 1 17 37
M  V30 40 1 18 38
M  V30 41 1 18 39
M  V30 42 1 19 40
M  V30 43 1 19 41
M  V30 END BOND
M  V30 BEGIN COLLECTION
M  V30 MDLV30/STERAC1 ATOMS=(1 2)
M  V30 END COLLECTION
M  V30 END CTAB
M  END
>  <NO.>
1840

>  <Name>
dabelotine

>  <SMILES>
CN1CCCc2cccc(OCC3CNCCO3)c21

>  <logBB>


>  <Class>
1

>  <MW>
262.17

>  <nHBAcc>
4

>  <nHBDon>
1

>  <SLogP>
1.44

>  <TopoPSA>
33.73

>  <MMFF94 Energy>
112.82

$$$$
CN1CCN(/C=C2\N=C3CN=C(c4ccccc4Cl)c4cc([N+](=O)[O-])ccc4N3C2=O)CC1
Actelion Java MolfileCreator 2.0

  0  0  0  0  0  0              0 V3000
M  V30 BEGIN CTAB
M  V30 COUNTS 54 58 0 0 0
M  V30 BEGIN ATOM
M  V30 1 Cl 0.4063 -2.8471 2.8471 0
M  V30 2 C 2.045 -2.4503 3.2215 0
M  V30 3 C 2.9097 -1.838 2.3044 0
M  V30 4 C 2.4946 -2.7288 4.5164 0
M  V30 5 C 2.5198 -1.5239 0.8975 0
M  V30 6 C 4.2053 -1.4764 2.7037 0
M  V30 7 C 3.7931 -2.3881 4.9009 0
M  V30 8 N 2.6925 -0.3042 0.5112 0
M  V30 9 C 1.9981 -2.6332 0.0381 0
M  V30 10 C 4.6457 -1.7568 3.9974 0
M  V30 11 C 2.3255 0.0947 -0.8453 0
M  V30 12 C 0.8808 -2.466 -0.8055 0
M  V30 13 C 2.6426 -3.8811 0.1196 0
M  V30 14 C 0.8312 -0.0084 -0.9799 0
M  V30 15 N 0.2319 -1.2244 -0.9489 0
M  V30 16 C 0.4133 -3.5723 -1.537 0
M  V30 17 C 2.1577 -4.9663 -0.6201 0
M  V30 18 N 0.0462 1.015 -1.1444 0
M  V30 19 C -1.1157 -1.028 -1.1023 0
M  V30 20 C 1.0416 -4.8178 -1.4463 0
M  V30 21 N 2.8279 -6.2697 -0.5256 0 CHG=1
M  V30 22 C -1.2118 0.4589 -1.2216 0
M  V30 23 O -2.032 -1.829 -1.1441 0
M  V30 24 O 2.4022 -7.1894 -1.237 0
M  V30 25 O 3.7827 -6.3669 0.2575 0 CHG=-1
M  V30 26 C -2.3901 1.0746 -1.394 0
M  V30 27 N -2.738 2.4171 -1.5315 0
M  V30 28 C -1.7601 3.5245 -1.5583 0
M  V30 29 C -4.0892 2.8195 -1.9759 0
M  V30 30 C -2.3133 4.7931 -0.8673 0
M  V30 31 C -4.5757 4.0921 -1.2512 0
M  V30 32 N -3.6303 5.2192 -1.3886 0
M  V30 33 C -4.1154 6.3909 -0.6632 0
M  V30 34 H 1.833 -3.2019 5.2389 0
M  V30 35 H 4.8726 -0.9731 2.0067 0
M  V30 36 H 4.1344 -2.6029 5.9113 0
M  V30 37 H 5.6516 -1.4766 4.3017 0
M  V30 38 H 2.63 1.1337 -1.0066 0
M  V30 39 H 2.8292 -0.5208 -1.5983 0
M  V30 40 H 3.5178 -4.0036 0.7555 0
M  V30 41 H -0.4496 -3.4794 -2.1963 0
M  V30 42 H 0.6476 -5.6515 -2.0256 0
M  V30 43 H -3.2735 0.4375 -1.4448 0
M  V30 44 H -1.5048 3.7469 -2.6014 0
M  V30 45 H -0.8352 3.2627 -1.0389 0
M  V30 46 H -4.815 2.019 -1.7886 0
M  V30 47 H -4.0678 2.991 -3.0592 0
M  V30 48 H -1.5864 5.602 -1.0094 0
M  V30 49 H -2.3801 4.6016 0.2126 0
M  V30 50 H -4.7373 3.857 -0.1904 0
M  V30 51 H -5.5466 4.376 -1.6749 0
M  V30 52 H -3.4223 7.2306 -0.7847 0
M  V30 53 H -5.0802 6.7183 -1.0661 0
M  V30 54 H -4.2379 6.1979 0.4086 0
M  V30 END ATOM
M  V30 BEGIN BOND
M  V30 1 1 1 2
M  V30 2 2 2 3
M  V30 3 1 2 4
M  V30 4 1 3 5
M  V30 5 1 3 6
M  V30 6 2 4 7
M  V30 7 2 5 8
M  V30 8 1 5 9
M  V30 9 2 6 10
M  V30 10 1 8 11
M  V30 11 2 9 12
M  V30 12 1 9 13
M  V30 13 1 11 14
M  V30 14 1 12 15
M  V30 15 1 12 16
M  V30 16 2 13 17
M  V30 17 2 14 18
M  V30 18 1 15 19
M  V30 19 2 16 20
M  V30 20 1 17 21
M  V30 21 1 18 22
M  V30 22 2 19 23
M  V30 23 2 21 24
M  V30 24 1 21 25
M  V30 25 2 22 26
M  V30 26 1 26 27
M  V30 27 1 27 28
M  V30 28 1 27 29
M  V30 29 1 28 30
M  V30 30 1 29 31
M  V30 31 1 30 32
M  V30 32 1 32 33
M  V30 33 1 7 10
M  V30 34 1 14 15
M  V30 35 1 17 20
M  V30 36 1 19 22
M  V30 37 1 31 32
M  V30 38 1 4 34
M  V30 39 1 6 35
M  V30 40 1 7 36
M  V30 41 1 10 37
M  V30 42 1 11 38
M  V30 43 1 11 39
M  V30 44 1 13 40
M  V30 45 1 16 41
M  V30 46 1 20 42
M  V30 47 1 26 43
M  V30 48 1 28 44
M  V30 49 1 28 45
M  V30 50 1 29 46
M  V30 51 1 29 47
M  V30 52 1 30 48
M  V30 53 1 30 49
M  V30 54 1 31 50
M  V30 55 1 31 51
M  V30 56 1 33 52
M  V30 57 1 33 53
M  V30 58 1 33 54
M  V30 END BOND
M  V30 END CTAB
M  END
>  <NO.>
1841

>  <Name>
loprazolam

>  <SMILES>
CN1CCN(/C=C2\N=C3CN=C(c4ccccc4Cl)c4cc([N+](=O)[O-])ccc4N3C2=O)CC1

>  <logBB>


>  <Class>
1

>  <MW>
464.14

>  <nHBAcc>
7

>  <nHBDon>
0

>  <SLogP>
2.93

>  <TopoPSA>
94.65

>  <MMFF94 Energy>
261.16

$$$$
CN1CCN(C(=O)Cc2ccc(Cl)c(Cl)c2)[C@@H](CN2CCCC2)C1
Actelion Java MolfileCreator 2.0

  0  0  0  0  0  0              0 V3000
M  V30 BEGIN CTAB
M  V30 COUNTS 49 51 0 0 0
M  V30 BEGIN ATOM
M  V30 1 Cl -3.0714 -5.8256 3.476 0
M  V30 2 C -2.6508 -5.0184 2.0066 0
M  V30 3 C -2.5307 -5.6939 0.7881 0
M  V30 4 C -2.4301 -3.6375 2.063 0
M  V30 5 Cl -2.7928 -7.3956 0.6401 0
M  V30 6 C -2.1866 -4.9861 -0.3666 0
M  V30 7 C -2.094 -2.9197 0.9052 0
M  V30 8 C -1.9667 -3.6077 -0.3086 0
M  V30 9 C -1.8366 -1.4303 0.9726 0
M  V30 10 C -0.3749 -1.0589 1.2041 0
M  V30 11 O 0.4751 -1.9114 1.4693 0
M  V30 12 N -0.0455 0.2898 1.1077 0
M  V30 13 C 1.3892 0.6567 1.1499 0 CFG=2
M  V30 14 C -0.9791 1.3493 0.6976 0
M  V30 15 C 1.6253 2.105 1.6623 0
M  V30 16 C 2.1423 0.3482 -0.182 0
M  V30 17 C -0.6591 2.7279 1.3008 0
M  V30 18 N 0.7379 3.1256 1.0766 0
M  V30 19 N 1.5595 0.9433 -1.3931 0
M  V30 20 C 1.0066 4.4421 1.6483 0
M  V30 21 C 2.5617 1.541 -2.2751 0
M  V30 22 C 0.8669 -0.0335 -2.2357 0
M  V30 23 C 1.798 1.747 -3.5754 0
M  V30 24 C 0.6553 0.7379 -3.5291 0
M  V30 25 H -2.5105 -3.1199 3.0169 0
M  V30 26 H -2.0816 -5.5042 -1.3168 0
M  V30 27 H -1.6854 -3.0769 -1.2162 0
M  V30 28 H -2.1795 -0.9796 0.0336 0
M  V30 29 H -2.437 -0.9964 1.7814 0
M  V30 30 H 1.8584 0.0035 1.8994 0
M  V30 31 H -0.9608 1.4046 -0.3954 0
M  V30 32 H -2.0002 1.0812 0.9827 0
M  V30 33 H 2.6729 2.3802 1.4879 0
M  V30 34 H 1.4856 2.0964 2.7532 0
M  V30 35 H 2.2255 -0.7407 -0.296 0
M  V30 36 H 3.1766 0.6952 -0.0512 0
M  V30 37 H -1.3333 3.464 0.8463 0
M  V30 38 H -0.8808 2.7047 2.3766 0
M  V30 39 H 0.3655 5.1998 1.1843 0
M  V30 40 H 0.8412 4.468 2.7315 0
M  V30 41 H 2.0416 4.7422 1.4505 0
M  V30 42 H 2.9463 2.4869 -1.8806 0
M  V30 43 H 3.4072 0.862 -2.4456 0
M  V30 44 H -0.0833 -0.3671 -1.8095 0
M  V30 45 H 1.4887 -0.9165 -2.4326 0
M  V30 46 H 1.3939 2.7642 -3.6363 0
M  V30 47 H 2.4427 1.5882 -4.4458 0
M  V30 48 H 0.6599 0.0761 -4.4009 0
M  V30 49 H -0.3051 1.2667 -3.5121 0
M  V30 END ATOM
M  V30 BEGIN BOND
M  V30 1 1 1 2
M  V30 2 2 2 3
M  V30 3 1 2 4
M  V30 4 1 3 5
M  V30 5 1 3 6
M  V30 6 2 4 7
M  V30 7 2 6 8
M  V30 8 1 7 9
M  V30 9 1 9 10
M  V30 10 2 10 11
M  V30 11 1 10 12
M  V30 12 1 12 13
M  V30 13 1 12 14
M  V30 14 1 13 15
M  V30 15 1 13 16
M  V30 16 1 14 17
M  V30 17 1 15 18
M  V30 18 1 16 19
M  V30 19 1 18 20
M  V30 20 1 19 21
M  V30 21 1 19 22
M  V30 22 1 21 23
M  V30 23 1 22 24
M  V30 24 1 7 8
M  V30 25 1 17 18
M  V30 26 1 23 24
M  V30 27 1 4 25
M  V30 28 1 6 26
M  V30 29 1 8 27
M  V30 30 1 9 28
M  V30 31 1 9 29
M  V30 32 1 13 30
M  V30 33 1 14 31
M  V30 34 1 14 32
M  V30 35 1 15 33
M  V30 36 1 15 34
M  V30 37 1 16 35
M  V30 38 1 16 36
M  V30 39 1 17 37
M  V30 40 1 17 38
M  V30 41 1 20 39
M  V30 42 1 20 40
M  V30 43 1 20 41
M  V30 44 1 21 42
M  V30 45 1 21 43
M  V30 46 1 22 44
M  V30 47 1 22 45
M  V30 48 1 23 46
M  V30 49 1 23 47
M  V30 50 1 24 48
M  V30 51 1 24 49
M  V30 END BOND
M  V30 BEGIN COLLECTION
M  V30 MDLV30/STEABS ATOMS=(1 13)
M  V30 END COLLECTION
M  V30 END CTAB
M  END
>  <NO.>
1842

>  <Name>
sankyo

>  <SMILES>
CN1CCN(C(=O)Cc2ccc(Cl)c(Cl)c2)[C@@H](CN2CCCC2)C1

>  <logBB>


>  <Class>
1

>  <MW>
369.14

>  <nHBAcc>
3

>  <nHBDon>
0

>  <SLogP>
2.77

>  <TopoPSA>
26.79

>  <MMFF94 Energy>
124.69

$$$$
CN1CCN(C(=O)OC2C3=C(SCCS3)C(=O)N2c2ccc3ccc(Cl)nc3n2)CC1
Actelion Java MolfileCreator 2.0

  0  0  0  0  0  0              0 V3000
M  V30 BEGIN CTAB
M  V30 COUNTS 51 55 0 0 0
M  V30 BEGIN ATOM
M  V30 1 Cl 1.243 -5.3114 -0.2485 0
M  V30 2 C 1.6138 -3.9448 -1.217 0
M  V30 3 N 0.8387 -2.8695 -0.9848 0
M  V30 4 C 2.6389 -3.9944 -2.1393 0
M  V30 5 C 1.0634 -1.7671 -1.6947 0
M  V30 6 C 2.8823 -2.8472 -2.8769 0
M  V30 7 N 0.289 -0.7093 -1.4598 0
M  V30 8 C 2.0883 -1.7133 -2.6549 0
M  V30 9 C 0.4786 0.4519 -2.1268 0
M  V30 10 C 2.2844 -0.5237 -3.3585 0
M  V30 11 N -0.3809 1.5175 -1.7956 0
M  V30 12 C 1.4707 0.5711 -3.0886 0
M  V30 13 C -0.3605 2.8078 -2.2914 0
M  V30 14 C -1.4473 1.3272 -0.8411 0 CFG=1
M  V30 15 O 0.4178 3.306 -3.0881 0
M  V30 16 C -1.5105 3.5294 -1.6841 0
M  V30 17 O -0.8755 1.102 0.4432 0
M  V30 18 C -2.1229 2.6754 -0.8588 0
M  V30 19 S -1.8546 5.1562 -2.0676 0
M  V30 20 C -1.4733 0.1142 1.1554 0
M  V30 21 S -3.5455 2.9858 0.0736 0
M  V30 22 C -3.5171 5.3537 -1.3654 0
M  V30 23 O -2.5302 -0.4156 0.834 0
M  V30 24 N -0.7533 -0.2287 2.2789 0
M  V30 25 C -3.6161 4.8012 0.0488 0
M  V30 26 C 0.5713 0.2954 2.6038 0
M  V30 27 C -1.152 -1.3786 3.0822 0
M  V30 28 C 1.6248 -0.828 2.5222 0
M  V30 29 C -0.0832 -2.4873 2.9939 0
M  V30 30 N 1.2639 -1.9899 3.3681 0
M  V30 31 C 2.255 -3.054 3.2219 0
M  V30 32 H 3.2295 -4.8918 -2.2804 0
M  V30 33 H 3.6808 -2.8372 -3.6142 0
M  V30 34 H 3.0636 -0.4358 -4.1113 0
M  V30 35 H 1.6386 1.4868 -3.6433 0
M  V30 36 H -2.113 0.5363 -1.2106 0
M  V30 37 H -4.2531 4.8887 -2.0311 0
M  V30 38 H -3.7344 6.427 -1.3492 0
M  V30 39 H -2.8342 5.2099 0.6989 0
M  V30 40 H -4.5784 5.092 0.4832 0
M  V30 41 H 0.858 1.1169 1.9416 0
M  V30 42 H 0.5237 0.6953 3.6238 0
M  V30 43 H -1.26 -1.0367 4.1185 0
M  V30 44 H -2.1207 -1.7723 2.7587 0
M  V30 45 H 1.734 -1.1399 1.4754 0
M  V30 46 H 2.5891 -0.422 2.8496 0
M  V30 47 H -0.0684 -2.8888 1.9721 0
M  V30 48 H -0.3732 -3.3022 3.6675 0
M  V30 49 H 2.0026 -3.9052 3.8638 0
M  V30 50 H 3.2428 -2.7023 3.5394 0
M  V30 51 H 2.3335 -3.4114 2.1895 0
M  V30 END ATOM
M  V30 BEGIN BOND
M  V30 1 1 1 2
M  V30 2 2 2 3
M  V30 3 1 2 4
M  V30 4 1 3 5
M  V30 5 2 4 6
M  V30 6 2 5 7
M  V30 7 1 5 8
M  V30 8 1 7 9
M  V30 9 2 8 10
M  V30 10 1 9 11
M  V30 11 2 9 12
M  V30 12 1 11 13
M  V30 13 1 11 14
M  V30 14 2 13 15
M  V30 15 1 13 16
M  V30 16 1 14 17
M  V30 17 1 14 18
M  V30 18 1 16 19
M  V30 19 1 17 20
M  V30 20 1 18 21
M  V30 21 1 19 22
M  V30 22 2 20 23
M  V30 23 1 20 24
M  V30 24 1 21 25
M  V30 25 1 24 26
M  V30 26 1 24 27
M  V30 27 1 26 28
M  V30 28 1 27 29
M  V30 29 1 28 30
M  V30 30 1 30 31
M  V30 31 1 6 8
M  V30 32 1 10 12
M  V30 33 2 16 18
M  V30 34 1 22 25
M  V30 35 1 29 30
M  V30 36 1 4 32
M  V30 37 1 6 33
M  V30 38 1 10 34
M  V30 39 1 12 35
M  V30 40 1 14 36
M  V30 41 1 22 37
M  V30 42 1 22 38
M  V30 43 1 25 39
M  V30 44 1 25 40
M  V30 45 1 26 41
M  V30 46 1 26 42
M  V30 47 1 27 43
M  V30 48 1 27 44
M  V30 49 1 28 45
M  V30 50 1 28 46
M  V30 51 1 29 47
M  V30 52 1 29 48
M  V30 53 1 31 49
M  V30 54 1 31 50
M  V30 55 1 31 51
M  V30 END BOND
M  V30 BEGIN COLLECTION
M  V30 MDLV30/STERAC1 ATOMS=(1 14)
M  V30 END COLLECTION
M  V30 END CTAB
M  END
>  <NO.>
1843

>  <Name>
suriclone

>  <SMILES>
CN1CCN(C(=O)OC2C3=C(SCCS3)C(=O)N2c2ccc3ccc(Cl)nc3n2)CC1

>  <logBB>


>  <Class>
1

>  <MW>
477.07

>  <nHBAcc>
8

>  <nHBDon>
0

>  <SLogP>
3.03

>  <TopoPSA>
78.87

>  <MMFF94 Energy>
-17.139

$$$$
CN1CCN(C(c2ccccc2)c2ccc(Cl)cc2)CC1
Actelion Java MolfileCreator 2.0

  0  0  0  0  0  0              0 V3000
M  V30 BEGIN CTAB
M  V30 COUNTS 42 44 0 0 0
M  V30 BEGIN ATOM
M  V30 1 Cl -5.8704 1.2041 1.8467 0
M  V30 2 C -4.2537 0.7667 1.4526 0
M  V30 3 C -3.341 1.7507 1.0833 0
M  V30 4 C -3.8667 -0.5701 1.5056 0
M  V30 5 C -2.0293 1.3939 0.763 0
M  V30 6 C -2.5546 -0.9275 1.1847 0
M  V30 7 C -1.6182 0.0491 0.8021 0
M  V30 8 C -0.1742 -0.3628 0.4747 0 CFG=1
M  V30 9 N 0.357 0.2693 -0.7704 0
M  V30 10 C 0.7076 -0.1317 1.7098 0
M  V30 11 C -0.4971 -0.0457 -1.9426 0
M  V30 12 C 1.7368 -0.1927 -1.0638 0
M  V30 13 C 1.1965 1.1439 2.0416 0
M  V30 14 C 1.0178 -1.2076 2.5594 0
M  V30 15 C 0.0661 0.5209 -3.2681 0
M  V30 16 C 2.2918 0.3739 -2.3928 0
M  V30 17 C 1.9814 1.3349 3.1799 0
M  V30 18 C 1.8027 -1.0141 3.6981 0
M  V30 19 N 1.4509 0.1222 -3.5771 0
M  V30 20 C 2.2844 0.256 4.0071 0
M  V30 21 C 1.5309 -1.2692 -4.0135 0
M  V30 22 H -3.6398 2.7945 1.0435 0
M  V30 23 H -4.5782 -1.3369 1.7997 0
M  V30 24 H -1.3242 2.1699 0.4719 0
M  V30 25 H -2.2662 -1.9747 1.2404 0
M  V30 26 H -0.185 -1.447 0.2859 0
M  V30 27 H -0.6304 -1.131 -2.039 0
M  V30 28 H -1.4946 0.3886 -1.8172 0
M  V30 29 H 2.4251 0.1318 -0.2764 0
M  V30 30 H 1.7756 -1.2894 -1.0918 0
M  V30 31 H 0.9735 1.9954 1.4026 0
M  V30 32 H 0.646 -2.206 2.3417 0
M  V30 33 H 0.0331 1.6177 -3.2185 0
M  V30 34 H -0.599 0.2459 -4.0961 0
M  V30 35 H 3.3049 -0.012 -2.5609 0
M  V30 36 H 2.4072 1.461 -2.2852 0
M  V30 37 H 2.3543 2.327 3.4204 0
M  V30 38 H 2.035 -1.8544 4.3471 0
M  V30 39 H 2.8933 0.4062 4.8945 0
M  V30 40 H 1.1873 -1.9835 -3.2588 0
M  V30 41 H 0.9324 -1.4184 -4.9191 0
M  V30 42 H 2.5626 -1.5256 -4.2785 0
M  V30 END ATOM
M  V30 BEGIN BOND
M  V30 1 1 1 2
M  V30 2 2 2 3
M  V30 3 1 2 4
M  V30 4 1 3 5
M  V30 5 2 4 6
M  V30 6 2 5 7
M  V30 7 1 7 8
M  V30 8 1 8 9
M  V30 9 1 8 10
M  V30 10 1 9 11
M  V30 11 1 9 12
M  V30 12 2 10 13
M  V30 13 1 10 14
M  V30 14 1 11 15
M  V30 15 1 12 16
M  V30 16 1 13 17
M  V30 17 2 14 18
M  V30 18 1 15 19
M  V30 19 2 17 20
M  V30 20 1 19 21
M  V30 21 1 6 7
M  V30 22 1 16 19
M  V30 23 1 18 20
M  V30 24 1 3 22
M  V30 25 1 4 23
M  V30 26 1 5 24
M  V30 27 1 6 25
M  V30 28 1 8 26
M  V30 29 1 11 27
M  V30 30 1 11 28
M  V30 31 1 12 29
M  V30 32 1 12 30
M  V30 33 1 13 31
M  V30 34 1 14 32
M  V30 35 1 15 33
M  V30 36 1 15 34
M  V30 37 1 16 35
M  V30 38 1 16 36
M  V30 39 1 17 37
M  V30 40 1 18 38
M  V30 41 1 20 39
M  V30 42 1 21 40
M  V30 43 1 21 41
M  V30 44 1 21 42
M  V30 END BOND
M  V30 BEGIN COLLECTION
M  V30 MDLV30/STERAC1 ATOMS=(1 8)
M  V30 END COLLECTION
M  V30 END CTAB
M  END
>  <NO.>
1844

>  <Name>
chlorcyclizine

>  <SMILES>
CN1CCN(C(c2ccccc2)c2ccc(Cl)cc2)CC1

>  <logBB>


>  <Class>
1

>  <MW>
300.14

>  <nHBAcc>
2

>  <nHBDon>
0

>  <SLogP>
3.68

>  <TopoPSA>
6.48

>  <MMFF94 Energy>
117.65

$$$$
CN1CCN(C2=Cc3cc(Cl)ccc3/C(=C\C#N)c3ccccc32)CC1
Actelion Java MolfileCreator 2.0

  0  0  0  0  0  0              0 V3000
M  V30 BEGIN CTAB
M  V30 COUNTS 46 49 0 0 0
M  V30 BEGIN ATOM
M  V30 1 Cl -1.1339 -2.4309 6.0044 0
M  V30 2 C -0.2179 -1.5893 4.8151 0
M  V30 3 C -0.8108 -1.247 3.6002 0
M  V30 4 C 1.1077 -1.2561 5.0737 0
M  V30 5 C -0.0747 -0.5686 2.616 0
M  V30 6 C 1.8485 -0.572 4.1092 0
M  V30 7 C 1.2612 -0.2105 2.8853 0
M  V30 8 C -0.7782 -0.1689 1.381 0
M  V30 9 C 2.0629 0.4707 1.8423 0
M  V30 10 C -0.3145 -0.0812 0.1144 0
M  V30 11 C 2.2148 -0.1729 0.5177 0
M  V30 12 C 2.5925 1.6996 2.008 0
M  V30 13 N -1.123 0.3715 -0.9434 0
M  V30 14 C 1.0794 -0.4932 -0.2541 0
M  V30 15 C 3.4977 -0.5502 0.0793 0
M  V30 16 C 2.4752 2.4812 3.1897 0
M  V30 17 C -2.5862 0.1701 -0.9906 0
M  V30 18 C -0.6717 1.4382 -1.8685 0
M  V30 19 C 1.2743 -1.2127 -1.4499 0
M  V30 20 C 3.6634 -1.2429 -1.1188 0
M  V30 21 N 2.4089 3.1283 4.1501 0
M  V30 22 C -3.0709 -0.0447 -2.4428 0
M  V30 23 C -1.1921 1.1929 -3.3012 0
M  V30 24 C 2.5509 -1.58 -1.881 0
M  V30 25 N -2.6629 1.0454 -3.3547 0
M  V30 26 C -3.1049 0.77 -4.7197 0
M  V30 27 H -1.8494 -1.514 3.4193 0
M  V30 28 H 1.5706 -1.5251 6.0195 0
M  V30 29 H 2.8882 -0.3302 4.3192 0
M  V30 30 H -1.806 0.1356 1.5675 0
M  V30 31 H 3.1324 2.1747 1.1949 0
M  V30 32 H 4.3746 -0.3294 0.684 0
M  V30 33 H -3.0875 1.0409 -0.5501 0
M  V30 34 H -2.8735 -0.7127 -0.4071 0
M  V30 35 H 0.4204 1.5172 -1.8999 0
M  V30 36 H -1.045 2.4019 -1.4986 0
M  V30 37 H 0.4143 -1.4925 -2.0555 0
M  V30 38 H 4.6575 -1.5361 -1.4462 0
M  V30 39 H -4.165 -0.1195 -2.4298 0
M  V30 40 H -2.6807 -1.0058 -2.805 0
M  V30 41 H -0.8889 2.0424 -3.9249 0
M  V30 42 H -0.7054 0.2965 -3.708 0
M  V30 43 H 2.6708 -2.1338 -2.8084 0
M  V30 44 H -4.1969 0.6892 -4.7598 0
M  V30 45 H -2.6761 -0.1565 -5.118 0
M  V30 46 H -2.8252 1.5933 -5.3863 0
M  V30 END ATOM
M  V30 BEGIN BOND
M  V30 1 1 1 2
M  V30 2 2 2 3
M  V30 3 1 2 4
M  V30 4 1 3 5
M  V30 5 2 4 6
M  V30 6 2 5 7
M  V30 7 1 5 8
M  V30 8 1 7 9
M  V30 9 2 8 10
M  V30 10 1 9 11
M  V30 11 2 9 12
M  V30 12 1 10 13
M  V30 13 1 10 14
M  V30 14 1 11 15
M  V30 15 1 12 16
M  V30 16 1 13 17
M  V30 17 1 13 18
M  V30 18 1 14 19
M  V30 19 2 15 20
M  V30 20 3 16 21
M  V30 21 1 17 22
M  V30 22 1 18 23
M  V30 23 2 19 24
M  V30 24 1 22 25
M  V30 25 1 25 26
M  V30 26 1 6 7
M  V30 27 2 11 14
M  V30 28 1 20 24
M  V30 29 1 23 25
M  V30 30 1 3 27
M  V30 31 1 4 28
M  V30 32 1 6 29
M  V30 33 1 8 30
M  V30 34 1 12 31
M  V30 35 1 15 32
M  V30 36 1 17 33
M  V30 37 1 17 34
M  V30 38 1 18 35
M  V30 39 1 18 36
M  V30 40 1 19 37
M  V30 41 1 20 38
M  V30 42 1 22 39
M  V30 43 1 22 40
M  V30 44 1 23 41
M  V30 45 1 23 42
M  V30 46 1 24 43
M  V30 47 1 26 44
M  V30 48 1 26 45
M  V30 49 1 26 46
M  V30 END BOND
M  V30 END CTAB
M  END
>  <NO.>
1845

>  <Name>
schembl11084330

>  <SMILES>
CN1CCN(C2=Cc3cc(Cl)ccc3/C(=C\C#N)c3ccccc32)CC1

>  <logBB>


>  <Class>
1

>  <MW>
361.13

>  <nHBAcc>
3

>  <nHBDon>
0

>  <SLogP>
4.35

>  <TopoPSA>
30.27

>  <MMFF94 Energy>
148.02

$$$$
CN1CCN(C2=Nc3cc(Cl)ccc3Nc3ccccc32)CC1
Actelion Java MolfileCreator 2.0

  0  0  0  0  0  0              0 V3000
M  V30 BEGIN CTAB
M  V30 COUNTS 42 45 0 0 0
M  V30 BEGIN ATOM
M  V30 1 Cl -0.726 6.0625 0.8067 0
M  V30 2 C -1.2728 4.4693 0.4575 0
M  V30 3 C -0.3535 3.4394 0.288 0
M  V30 4 C -2.6319 4.2117 0.3603 0
M  V30 5 C -0.77 2.1283 0.002 0
M  V30 6 C -3.0619 2.9147 0.0791 0
M  V30 7 N 0.2516 1.1766 0.0242 0
M  V30 8 C -2.1449 1.8583 -0.1053 0
M  V30 9 C 0.3013 0.0422 -0.6127 0
M  V30 10 N -2.671 0.6204 -0.5093 0
M  V30 11 N 1.4217 -0.7636 -0.3727 0
M  V30 12 C -0.7225 -0.4681 -1.5831 0
M  V30 13 C -2.0974 -0.2856 -1.4102 0
M  V30 14 C 2.6788 -0.1704 0.1167 0
M  V30 15 C 1.2668 -2.1597 0.0748 0
M  V30 16 C -0.2499 -1.2568 -2.6533 0
M  V30 17 C -2.9723 -0.9542 -2.2924 0
M  V30 18 C 2.7581 -0.2633 1.6563 0
M  V30 19 C 1.3588 -2.235 1.6177 0
M  V30 20 C -1.131 -1.8971 -3.5225 0
M  V30 21 C -2.4977 -1.7569 -3.3319 0
M  V30 22 N 2.6208 -1.6605 2.1406 0
M  V30 23 C 2.6333 -1.6951 3.6017 0
M  V30 24 H 0.7099 3.6362 0.3984 0
M  V30 25 H -3.3585 5.0085 0.4915 0
M  V30 26 H -4.1294 2.734 -0.0227 0
M  V30 27 H -3.6537 0.4833 -0.3159 0
M  V30 28 H 2.7827 0.8712 -0.2087 0
M  V30 29 H 3.5209 -0.7163 -0.3271 0
M  V30 30 H 2.0588 -2.77 -0.3762 0
M  V30 31 H 0.3117 -2.59 -0.2434 0
M  V30 32 H 0.8206 -1.3802 -2.8035 0
M  V30 33 H -4.0477 -0.8218 -2.1949 0
M  V30 34 H 3.729 0.1348 1.9743 0
M  V30 35 H 1.9803 0.3709 2.1014 0
M  V30 36 H 1.2908 -3.2887 1.9134 0
M  V30 37 H 0.4948 -1.7136 2.0519 0
M  V30 38 H -0.7483 -2.5041 -4.3384 0
M  V30 39 H -3.1968 -2.249 -4.003 0
M  V30 40 H 1.8106 -1.1187 4.0403 0
M  V30 41 H 2.5598 -2.7276 3.9606 0
M  V30 42 H 3.5777 -1.2943 3.9862 0
M  V30 END ATOM
M  V30 BEGIN BOND
M  V30 1 1 1 2
M  V30 2 2 2 3
M  V30 3 1 2 4
M  V30 4 1 3 5
M  V30 5 2 4 6
M  V30 6 1 5 7
M  V30 7 2 5 8
M  V30 8 2 7 9
M  V30 9 1 8 10
M  V30 10 1 9 11
M  V30 11 1 9 12
M  V30 12 1 10 13
M  V30 13 1 11 14
M  V30 14 1 11 15
M  V30 15 1 12 16
M  V30 16 1 13 17
M  V30 17 1 14 18
M  V30 18 1 15 19
M  V30 19 2 16 20
M  V30 20 2 17 21
M  V30 21 1 18 22
M  V30 22 1 22 23
M  V30 23 1 6 8
M  V30 24 2 12 13
M  V30 25 1 19 22
M  V30 26 1 20 21
M  V30 27 1 3 24
M  V30 28 1 4 25
M  V30 29 1 6 26
M  V30 30 1 10 27
M  V30 31 1 14 28
M  V30 32 1 14 29
M  V30 33 1 15 30
M  V30 34 1 15 31
M  V30 35 1 16 32
M  V30 36 1 17 33
M  V30 37 1 18 34
M  V30 38 1 18 35
M  V30 39 1 19 36
M  V30 40 1 19 37
M  V30 41 1 20 38
M  V30 42 1 21 39
M  V30 43 1 23 40
M  V30 44 1 23 41
M  V30 45 1 23 42
M  V30 END BOND
M  V30 END CTAB
M  END
>  <NO.>
1846

>  <Name>
oxacillin

>  <SMILES>
CN1CCN(C2=Nc3cc(Cl)ccc3Nc3ccccc32)CC1

>  <logBB>


>  <Class>
1

>  <MW>
326.13

>  <nHBAcc>
4

>  <nHBDon>
1

>  <SLogP>
3.72

>  <TopoPSA>
30.87

>  <MMFF94 Energy>
128.42

$$$$
CN1CCN(C2=Nc3cc(F)ccc3Cc3ccccc32)CC1
Actelion Java MolfileCreator 2.0

  0  0  0  0  0  0              0 V3000
M  V30 BEGIN CTAB
M  V30 COUNTS 43 46 0 0 0
M  V30 BEGIN ATOM
M  V30 1 F -3.7766 4.179 2.4897 0
M  V30 2 C -3.5798 3.025 1.8377 0
M  V30 3 C -2.3174 2.4453 1.8366 0
M  V30 4 C -4.6446 2.4253 1.1788 0
M  V30 5 C -2.0929 1.2455 1.1574 0
M  V30 6 C -4.4419 1.2225 0.5057 0
M  V30 7 N -0.8137 0.681 1.2587 0
M  V30 8 C -3.1696 0.6245 0.4967 0
M  V30 9 C -0.1517 0.1333 0.2718 0
M  V30 10 C -2.93 -0.6496 -0.2702 0
M  V30 11 N 1.1161 -0.3871 0.5372 0
M  V30 12 C -0.6704 0.0451 -1.1385 0
M  V30 13 C -1.9793 -0.3853 -1.4073 0
M  V30 14 C 1.5671 -1.6775 -0.0115 0
M  V30 15 C 1.8218 -0.0148 1.7771 0
M  V30 16 C 0.1913 0.3799 -2.1926 0
M  V30 17 C -2.4005 -0.499 -2.7407 0
M  V30 18 C 3.1002 -1.6964 -0.1868 0
M  V30 19 C 3.3524 -0.0791 1.5814 0
M  V30 20 C -0.2394 0.2646 -3.5138 0
M  V30 21 C -1.5318 -0.1803 -3.7865 0
M  V30 22 N 3.8165 -1.3868 1.068 0
M  V30 23 C 5.2612 -1.3728 0.8511 0
M  V30 24 H -1.5053 2.9258 2.3718 0
M  V30 25 H -5.6212 2.898 1.1937 0
M  V30 26 H -5.2747 0.7577 -0.0161 0
M  V30 27 H -3.8779 -1.0496 -0.6514 0
M  V30 28 H -2.5279 -1.4259 0.393 0
M  V30 29 H 1.1063 -1.9012 -0.9782 0
M  V30 30 H 1.2614 -2.4786 0.6736 0
M  V30 31 H 1.5149 -0.6882 2.5868 0
M  V30 32 H 1.5672 1.0085 2.0776 0
M  V30 33 H 1.1967 0.7349 -1.9808 0
M  V30 34 H -3.4135 -0.8203 -2.9729 0
M  V30 35 H 3.3925 -2.6936 -0.5369 0
M  V30 36 H 3.3769 -0.9781 -0.9705 0
M  V30 37 H 3.83 0.1242 2.5476 0
M  V30 38 H 3.6521 0.7227 0.8927 0
M  V30 39 H 0.4301 0.5262 -4.329 0
M  V30 40 H -1.8699 -0.2653 -4.8165 0
M  V30 41 H 5.5653 -0.6176 0.1172 0
M  V30 42 H 5.7879 -1.1718 1.7906 0
M  V30 43 H 5.6052 -2.352 0.5002 0
M  V30 END ATOM
M  V30 BEGIN BOND
M  V30 1 1 1 2
M  V30 2 2 2 3
M  V30 3 1 2 4
M  V30 4 1 3 5
M  V30 5 2 4 6
M  V30 6 1 5 7
M  V30 7 2 5 8
M  V30 8 2 7 9
M  V30 9 1 8 10
M  V30 10 1 9 11
M  V30 11 1 9 12
M  V30 12 1 10 13
M  V30 13 1 11 14
M  V30 14 1 11 15
M  V30 15 1 12 16
M  V30 16 1 13 17
M  V30 17 1 14 18
M  V30 18 1 15 19
M  V30 19 2 16 20
M  V30 20 2 17 21
M  V30 21 1 18 22
M  V30 22 1 22 23
M  V30 23 1 6 8
M  V30 24 2 12 13
M  V30 25 1 19 22
M  V30 26 1 20 21
M  V30 27 1 3 24
M  V30 28 1 4 25
M  V30 29 1 6 26
M  V30 30 1 10 27
M  V30 31 1 10 28
M  V30 32 1 14 29
M  V30 33 1 14 30
M  V30 34 1 15 31
M  V30 35 1 15 32
M  V30 36 1 16 33
M  V30 37 1 17 34
M  V30 38 1 18 35
M  V30 39 1 18 36
M  V30 40 1 19 37
M  V30 41 1 19 38
M  V30 42 1 20 39
M  V30 43 1 21 40
M  V30 44 1 23 41
M  V30 45 1 23 42
M  V30 46 1 23 43
M  V30 END BOND
M  V30 END CTAB
M  END
>  <NO.>
1847

>  <Name>
fluperlapine

>  <SMILES>
CN1CCN(C2=Nc3cc(F)ccc3Cc3ccccc32)CC1

>  <logBB>


>  <Class>
1

>  <MW>
309.16

>  <nHBAcc>
3

>  <nHBDon>
0

>  <SLogP>
3.06

>  <TopoPSA>
18.84

>  <MMFF94 Energy>
102.65

$$$$
CN1CCN(C2=Nc3ccccc3Cc3ccccc32)CC1
Actelion Java MolfileCreator 2.0

  0  0  0  0  0  0              0 V3000
M  V30 BEGIN CTAB
M  V30 COUNTS 43 46 0 0 0
M  V30 BEGIN ATOM
M  V30 1 N -0.3197 0.5595 1.1993 0
M  V30 2 C 0.3357 -0.3556 0.533 0
M  V30 3 C -1.6959 0.5313 1.4661 0
M  V30 4 N 1.7097 -0.1835 0.3548 0
M  V30 5 C -0.2977 -1.5902 -0.0503 0
M  V30 6 C -2.6724 0.2323 0.5022 0
M  V30 7 C -2.1083 0.9171 2.7461 0
M  V30 8 C 2.3675 -0.4178 -0.9416 0
M  V30 9 C 2.4541 0.7901 1.1725 0
M  V30 10 C -1.5014 -1.5225 -0.7696 0
M  V30 11 C 0.3603 -2.8182 0.106 0
M  V30 12 C -4.0347 0.3009 0.8396 0
M  V30 13 C -2.2456 -0.2177 -0.8683 0
M  V30 14 C -3.4623 0.985 3.0791 0
M  V30 15 C 2.5262 0.9241 -1.6973 0
M  V30 16 C 2.6 2.1226 0.4062 0
M  V30 17 C -2.0231 -2.6935 -1.3398 0
M  V30 18 C -0.1686 -3.9755 -0.4643 0
M  V30 19 C -4.426 0.6765 2.1241 0
M  V30 20 N 3.2642 1.9396 -0.9096 0
M  V30 21 C -1.3564 -3.9112 -1.1904 0
M  V30 22 C 3.3219 3.2086 -1.6316 0
M  V30 23 H -1.3565 1.1713 3.4887 0
M  V30 24 H 1.8095 -1.1147 -1.5741 0
M  V30 25 H 3.3534 -0.8663 -0.7679 0
M  V30 26 H 3.4485 0.381 1.3915 0
M  V30 27 H 1.9728 0.9581 2.1428 0
M  V30 28 H 1.2842 -2.8707 0.6768 0
M  V30 29 H -4.7968 0.0546 0.1044 0
M  V30 30 H -3.1191 -0.3265 -1.5234 0
M  V30 31 H -1.6158 0.5456 -1.3426 0
M  V30 32 H -3.7592 1.2828 4.0807 0
M  V30 33 H 3.0649 0.7292 -2.6321 0
M  V30 34 H 1.5291 1.3011 -1.9626 0
M  V30 35 H 3.1962 2.8087 1.0192 0
M  V30 36 H 1.6085 2.5749 0.2717 0
M  V30 37 H -2.9605 -2.6673 -1.8906 0
M  V30 38 H 0.3431 -4.9259 -0.3386 0
M  V30 39 H -5.481 0.7269 2.3796 0
M  V30 40 H -1.7722 -4.8143 -1.6304 0
M  V30 41 H 2.3262 3.6216 -1.8299 0
M  V30 42 H 3.8942 3.9483 -1.061 0
M  V30 43 H 3.8385 3.0809 -2.5892 0
M  V30 END ATOM
M  V30 BEGIN BOND
M  V30 1 2 1 2
M  V30 2 1 1 3
M  V30 3 1 2 4
M  V30 4 1 2 5
M  V30 5 2 3 6
M  V30 6 1 3 7
M  V30 7 1 4 8
M  V30 8 1 4 9
M  V30 9 2 5 10
M  V30 10 1 5 11
M  V30 11 1 6 12
M  V30 12 1 6 13
M  V30 13 2 7 14
M  V30 14 1 8 15
M  V30 15 1 9 16
M  V30 16 1 10 17
M  V30 17 2 11 18
M  V30 18 2 12 19
M  V30 19 1 15 20
M  V30 20 2 17 21
M  V30 21 1 20 22
M  V30 22 1 10 13
M  V30 23 1 14 19
M  V30 24 1 16 20
M  V30 25 1 18 21
M  V30 26 1 7 23
M  V30 27 1 8 24
M  V30 28 1 8 25
M  V30 29 1 9 26
M  V30 30 1 9 27
M  V30 31 1 11 28
M  V30 32 1 12 29
M  V30 33 1 13 30
M  V30 34 1 13 31
M  V30 35 1 14 32
M  V30 36 1 15 33
M  V30 37 1 15 34
M  V30 38 1 16 35
M  V30 39 1 16 36
M  V30 40 1 17 37
M  V30 41 1 18 38
M  V30 42 1 19 39
M  V30 43 1 21 40
M  V30 44 1 22 41
M  V30 45 1 22 42
M  V30 46 1 22 43
M  V30 END BOND
M  V30 END CTAB
M  END
>  <NO.>
1848

>  <Name>
perlapine

>  <SMILES>
CN1CCN(C2=Nc3ccccc3Cc3ccccc32)CC1

>  <logBB>


>  <Class>
1

>  <MW>
291.17

>  <nHBAcc>
3

>  <nHBDon>
0

>  <SLogP>
2.92

>  <TopoPSA>
18.84

>  <MMFF94 Energy>
109.55

$$$$
CN1CCN(C2=Nc3ccccc3Sc3ccc(Cl)cc32)CC1
Actelion Java MolfileCreator 2.0

  0  0  0  0  0  0              0 V3000
M  V30 BEGIN CTAB
M  V30 COUNTS 41 44 0 0 0
M  V30 BEGIN ATOM
M  V30 1 Cl -0.9037 -2.3839 -4.9369 0
M  V30 2 C -0.072 -2.1452 -3.4507 0
M  V30 3 C -0.6336 -1.3412 -2.4645 0
M  V30 4 C 1.1675 -2.7459 -3.2477 0
M  V30 5 C 0.0498 -1.1401 -1.2548 0
M  V30 6 C 1.844 -2.5522 -2.04 0
M  V30 7 C -0.5491 -0.1704 -0.2844 0
M  V30 8 C 1.2854 -1.759 -1.0267 0
M  V30 9 N -0.751 -0.431 0.978 0
M  V30 10 N -0.9384 1.0783 -0.7746 0
M  V30 11 S 2.1741 -1.6296 0.5133 0
M  V30 12 C -0.4069 -1.6305 1.6195 0
M  V30 13 C -1.8072 1.9591 0.0284 0
M  V30 14 C -0.0965 1.8562 -1.7012 0
M  V30 15 C 0.8721 -2.2149 1.5925 0
M  V30 16 C -1.3822 -2.1924 2.4546 0
M  V30 17 C -0.9479 2.969 0.82 0
M  V30 18 C 0.7523 2.8763 -0.9037 0
M  V30 19 C 1.1496 -3.3321 2.3965 0
M  V30 20 C -1.1081 -3.3143 3.2389 0
M  V30 21 N -0.0774 3.7784 -0.0706 0
M  V30 22 C 0.1614 -3.8815 3.2136 0
M  V30 23 C 0.7686 4.671 0.719 0
M  V30 24 H -1.5938 -0.858 -2.6297 0
M  V30 25 H 1.6104 -3.3711 -4.019 0
M  V30 26 H 2.8043 -3.0419 -1.8895 0
M  V30 27 H -2.4488 1.3871 0.7083 0
M  V30 28 H -2.4832 2.5 -0.6461 0
M  V30 29 H -0.7416 2.385 -2.414 0
M  V30 30 H 0.5715 1.2219 -2.2916 0
M  V30 31 H -2.3656 -1.7305 2.5023 0
M  V30 32 H -1.6211 3.6366 1.3708 0
M  V30 33 H -0.3398 2.4289 1.5577 0
M  V30 34 H 1.331 3.4737 -1.6182 0
M  V30 35 H 1.4671 2.3285 -0.2746 0
M  V30 36 H 2.1362 -3.7894 2.3814 0
M  V30 37 H -1.8818 -3.7307 3.8785 0
M  V30 38 H 0.3838 -4.7495 3.829 0
M  V30 39 H 1.4289 4.1242 1.4019 0
M  V30 40 H 1.3892 5.2905 0.0622 0
M  V30 41 H 0.1533 5.3577 1.3109 0
M  V30 END ATOM
M  V30 BEGIN BOND
M  V30 1 1 1 2
M  V30 2 2 2 3
M  V30 3 1 2 4
M  V30 4 1 3 5
M  V30 5 2 4 6
M  V30 6 1 5 7
M  V30 7 2 5 8
M  V30 8 2 7 9
M  V30 9 1 7 10
M  V30 10 1 8 11
M  V30 11 1 9 12
M  V30 12 1 10 13
M  V30 13 1 10 14
M  V30 14 1 11 15
M  V30 15 1 12 16
M  V30 16 1 13 17
M  V30 17 1 14 18
M  V30 18 1 15 19
M  V30 19 2 16 20
M  V30 20 1 17 21
M  V30 21 2 19 22
M  V30 22 1 21 23
M  V30 23 1 6 8
M  V30 24 2 12 15
M  V30 25 1 18 21
M  V30 26 1 20 22
M  V30 27 1 3 24
M  V30 28 1 4 25
M  V30 29 1 6 26
M  V30 30 1 13 27
M  V30 31 1 13 28
M  V30 32 1 14 29
M  V30 33 1 14 30
M  V30 34 1 16 31
M  V30 35 1 17 32
M  V30 36 1 17 33
M  V30 37 1 18 34
M  V30 38 1 18 35
M  V30 39 1 19 36
M  V30 40 1 20 37
M  V30 41 1 22 38
M  V30 42 1 23 39
M  V30 43 1 23 40
M  V30 44 1 23 41
M  V30 END BOND
M  V30 END CTAB
M  END
>  <NO.>
1849

>  <Name>
clothiapine (clotiapine)

>  <SMILES>
CN1CCN(C2=Nc3ccccc3Sc3ccc(Cl)cc32)CC1

>  <logBB>


>  <Class>
1

>  <MW>
343.09

>  <nHBAcc>
4

>  <nHBDon>
0

>  <SLogP>
4.13

>  <TopoPSA>
18.84

>  <MMFF94 Energy>
114.69

$$$$
CN1CCN(C2=Nc3ccccc3Sc3nccn32)CC1
Actelion Java MolfileCreator 2.0

  0  0  0  0  0  0              0 V3000
M  V30 BEGIN CTAB
M  V30 COUNTS 38 41 0 0 0
M  V30 BEGIN ATOM
M  V30 1 S 2.8458 1.2188 -0.8124 0
M  V30 2 C 1.8002 1.1317 -2.2484 0
M  V30 3 C 1.7935 2.2077 0.1405 0
M  V30 4 C 0.472 0.6812 -2.1897 0
M  V30 5 C 2.3487 1.5433 -3.4748 0
M  V30 6 N 2.1649 3.3357 0.7074 0
M  V30 7 N 0.5207 1.825 0.5012 0
M  V30 8 N -0.1662 0.1397 -1.0617 0
M  V30 9 C -0.2768 0.6634 -3.3765 0
M  V30 10 C 1.5829 1.5269 -4.6398 0
M  V30 11 C 1.1022 3.7178 1.4757 0
M  V30 12 C -0.1969 0.6641 0.1332 0
M  V30 13 C 0.0882 2.797 1.3916 0
M  V30 14 C 0.2655 1.0888 -4.5904 0
M  V30 15 N -1.0128 0.0819 1.1064 0
M  V30 16 C -2.105 -0.8273 0.715 0
M  V30 17 C -0.5062 -0.226 2.4574 0
M  V30 18 C -1.6314 -2.295 0.7878 0
M  V30 19 C -0.0503 -1.7039 2.5259 0
M  V30 20 N -1.1238 -2.6464 2.1367 0
M  V30 21 C -0.6311 -4.0226 2.1543 0
M  V30 22 H 3.3781 1.8928 -3.5262 0
M  V30 23 H -1.3009 0.2974 -3.3501 0
M  V30 24 H 2.0162 1.8545 -5.5813 0
M  V30 25 H 1.1259 4.631 2.0569 0
M  V30 26 H -0.8928 2.7489 1.8419 0
M  V30 27 H -0.3385 1.0655 -5.4935 0
M  V30 28 H -2.95 -0.6788 1.3996 0
M  V30 29 H -2.4796 -0.5965 -0.2888 0
M  V30 30 H 0.3347 0.4145 2.7401 0
M  V30 31 H -1.3045 -0.0473 3.1883 0
M  V30 32 H -0.8533 -2.4648 0.0321 0
M  V30 33 H -2.4804 -2.943 0.5398 0
M  V30 34 H 0.825 -1.8357 1.8756 0
M  V30 35 H 0.2663 -1.9175 3.5537 0
M  V30 36 H 0.1964 -4.1777 1.4527 0
M  V30 37 H -0.2868 -4.2931 3.1586 0
M  V30 38 H -1.4356 -4.7208 1.8983 0
M  V30 END ATOM
M  V30 BEGIN BOND
M  V30 1 1 1 2
M  V30 2 1 1 3
M  V30 3 2 2 4
M  V30 4 1 2 5
M  V30 5 2 3 6
M  V30 6 1 3 7
M  V30 7 1 4 8
M  V30 8 1 4 9
M  V30 9 2 5 10
M  V30 10 1 6 11
M  V30 11 1 7 12
M  V30 12 1 7 13
M  V30 13 2 9 14
M  V30 14 1 12 15
M  V30 15 1 15 16
M  V30 16 1 15 17
M  V30 17 1 16 18
M  V30 18 1 17 19
M  V30 19 1 18 20
M  V30 20 1 20 21
M  V30 21 2 8 12
M  V30 22 1 10 14
M  V30 23 2 11 13
M  V30 24 1 19 20
M  V30 25 1 5 22
M  V30 26 1 9 23
M  V30 27 1 10 24
M  V30 28 1 11 25
M  V30 29 1 13 26
M  V30 30 1 14 27
M  V30 31 1 16 28
M  V30 32 1 16 29
M  V30 33 1 17 30
M  V30 34 1 17 31
M  V30 35 1 18 32
M  V30 36 1 18 33
M  V30 37 1 19 34
M  V30 38 1 19 35
M  V30 39 1 21 36
M  V30 40 1 21 37
M  V30 41 1 21 38
M  V30 END BOND
M  V30 END CTAB
M  END
>  <NO.>
1850

>  <Name>
pentiapine

>  <SMILES>
CN1CCN(C2=Nc3ccccc3Sc3nccn32)CC1

>  <logBB>


>  <Class>
1

>  <MW>
299.12

>  <nHBAcc>
5

>  <nHBDon>
0

>  <SLogP>
2.13

>  <TopoPSA>
36.66

>  <MMFF94 Energy>
126.49

$$$$
CN1CCN(C2=Nc3cscc3/C(=C/C#N)c3cscc32)CC1
Actelion Java MolfileCreator 2.0

  0  0  0  0  0  0              0 V3000
M  V30 BEGIN CTAB
M  V30 COUNTS 39 42 0 0 0
M  V30 BEGIN ATOM
M  V30 1 S 1.4052 -2.8119 4.5516 0
M  V30 2 C 0.5102 -1.5129 3.8925 0
M  V30 3 C 2.2093 -3.0805 3.0634 0
M  V30 4 C 0.801 -1.3016 2.5642 0
M  V30 5 C 1.8017 -2.1965 2.0817 0
M  V30 6 N 0.219 -0.2172 1.8956 0
M  V30 7 C 2.288 -2.2417 0.7281 0
M  V30 8 C -0.0857 -0.265 0.6306 0
M  V30 9 C 1.2376 -2.3131 -0.2528 0
M  V30 10 C 3.6069 -2.1976 0.4536 0
M  V30 11 N -0.6761 0.8192 -0.0038 0
M  V30 12 C 0.1149 -1.4163 -0.2586 0
M  V30 13 C 1.1545 -3.2819 -1.232 0
M  V30 14 C 4.1565 -2.1909 -0.855 0
M  V30 15 C -1.4236 1.802 0.7997 0
M  V30 16 C -0.0946 1.4093 -1.2247 0
M  V30 17 C -0.7863 -1.7852 -1.2462 0
M  V30 18 S -0.2704 -3.1305 -2.1625 0
M  V30 19 N 4.6231 -2.1948 -1.9166 0
M  V30 20 C -2.4796 2.5264 -0.0624 0
M  V30 21 C -1.1773 2.1312 -2.0542 0
M  V30 22 N -1.8995 3.1541 -1.2688 0
M  V30 23 C -2.9418 3.7856 -2.0754 0
M  V30 24 H -0.1821 -0.9576 4.509 0
M  V30 25 H 2.9271 -3.886 2.9878 0
M  V30 26 H 4.3272 -2.1259 1.2618 0
M  V30 27 H 1.8439 -4.088 -1.4455 0
M  V30 28 H -1.9438 1.3033 1.6265 0
M  V30 29 H -0.7255 2.529 1.233 0
M  V30 30 H 0.6882 2.1218 -0.9348 0
M  V30 31 H 0.3856 0.6578 -1.8592 0
M  V30 32 H -1.7317 -1.3135 -1.4781 0
M  V30 33 H -2.9587 3.295 0.556 0
M  V30 34 H -3.2564 1.8045 -0.3492 0
M  V30 35 H -0.6902 2.6074 -2.9135 0
M  V30 36 H -1.8816 1.385 -2.4461 0
M  V30 37 H -3.4528 4.5649 -1.4992 0
M  V30 38 H -2.5036 4.2773 -2.9508 0
M  V30 39 H -3.692 3.0665 -2.4235 0
M  V30 END ATOM
M  V30 BEGIN BOND
M  V30 1 1 1 2
M  V30 2 1 1 3
M  V30 3 2 2 4
M  V30 4 2 3 5
M  V30 5 1 4 6
M  V30 6 1 5 7
M  V30 7 2 6 8
M  V30 8 1 7 9
M  V30 9 2 7 10
M  V30 10 1 8 11
M  V30 11 1 8 12
M  V30 12 2 9 13
M  V30 13 1 10 14
M  V30 14 1 11 15
M  V30 15 1 11 16
M  V30 16 2 12 17
M  V30 17 1 13 18
M  V30 18 3 14 19
M  V30 19 1 15 20
M  V30 20 1 16 21
M  V30 21 1 20 22
M  V30 22 1 22 23
M  V30 23 1 4 5
M  V30 24 1 9 12
M  V30 25 1 17 18
M  V30 26 1 21 22
M  V30 27 1 2 24
M  V30 28 1 3 25
M  V30 29 1 10 26
M  V30 30 1 13 27
M  V30 31 1 15 28
M  V30 32 1 15 29
M  V30 33 1 16 30
M  V30 34 1 16 31
M  V30 35 1 17 32
M  V30 36 1 20 33
M  V30 37 1 20 34
M  V30 38 1 21 35
M  V30 39 1 21 36
M  V30 40 1 23 37
M  V30 41 1 23 38
M  V30 42 1 23 39
M  V30 END BOND
M  V30 END CTAB
M  END
>  <NO.>
1851

>  <Name>
tenilapine

>  <SMILES>
CN1CCN(C2=Nc3cscc3/C(=C/C#N)c3cscc32)CC1

>  <logBB>


>  <Class>
1

>  <MW>
340.08

>  <nHBAcc>
6

>  <nHBDon>
0

>  <SLogP>
3.4

>  <TopoPSA>
42.63

>  <MMFF94 Energy>
77.265

$$$$
CN1CCN(C2Cc3ccccc3Sc3ccc(Cl)cc32)CC1
Actelion Java MolfileCreator 2.0

  0  0  0  0  0  0              0 V3000
M  V30 BEGIN CTAB
M  V30 COUNTS 44 47 0 0 0
M  V30 BEGIN ATOM
M  V30 1 Cl 2.6255 4.4336 -0.9839 0
M  V30 2 C 2.5496 2.8727 -0.2654 0
M  V30 3 C 1.3997 2.0982 -0.4073 0
M  V30 4 C 3.6348 2.3913 0.4572 0
M  V30 5 C 1.3091 0.8235 0.1897 0
M  V30 6 C 3.5747 1.1167 1.0217 0
M  V30 7 C 2.4286 0.322 0.8716 0
M  V30 8 C 0.0439 -0.03 0.063 0 CFG=1
M  V30 9 S 2.4602 -1.3262 1.5411 0
M  V30 10 N -1.1768 0.8291 -0.0639 0
M  V30 11 C 0.2862 -1.0242 -1.1023 0
M  V30 12 C 2.2604 -2.3206 0.0639 0
M  V30 13 C -1.4951 1.4727 1.2381 0
M  V30 14 C -2.3732 0.1167 -0.5529 0
M  V30 15 C 1.3669 -2.0958 -1.0012 0
M  V30 16 C 3.1254 -3.4333 0.009 0
M  V30 17 C -2.7608 2.3597 1.1821 0
M  V30 18 C -3.6442 1.0032 -0.5833 0
M  V30 19 C 1.4133 -2.9801 -2.1072 0
M  V30 20 C 3.1433 -4.2953 -1.0867 0
M  V30 21 N -3.9703 1.6795 0.6841 0
M  V30 22 C 2.2898 -4.0628 -2.1524 0
M  V30 23 C -4.5157 0.7496 1.6698 0
M  V30 24 H 0.5596 2.4917 -0.9765 0
M  V30 25 H 4.5324 2.9922 0.5732 0
M  V30 26 H 4.4397 0.7386 1.5628 0
M  V30 27 H -0.1031 -0.6223 0.9751 0
M  V30 28 H -0.6355 -1.6 -1.2523 0
M  V30 29 H 0.4648 -0.4546 -2.0255 0
M  V30 30 H -1.6251 0.7103 2.0172 0
M  V30 31 H -0.6664 2.1135 1.559 0
M  V30 32 H -2.2098 -0.2121 -1.5849 0
M  V30 33 H -2.5643 -0.7747 0.0574 0
M  V30 34 H 3.8161 -3.6324 0.8274 0
M  V30 35 H -2.5575 3.216 0.5251 0
M  V30 36 H -2.9518 2.7898 2.1732 0
M  V30 37 H -4.4989 0.4051 -0.9233 0
M  V30 38 H -3.5065 1.7771 -1.3505 0
M  V30 39 H 0.74 -2.8275 -2.9504 0
M  V30 40 H 3.8275 -5.139 -1.1053 0
M  V30 41 H 2.2969 -4.7239 -3.0148 0
M  V30 42 H -3.8276 -0.0592 1.9342 0
M  V30 43 H -4.7829 1.2827 2.5891 0
M  V30 44 H -5.4407 0.2979 1.2939 0
M  V30 END ATOM
M  V30 BEGIN BOND
M  V30 1 1 1 2
M  V30 2 2 2 3
M  V30 3 1 2 4
M  V30 4 1 3 5
M  V30 5 2 4 6
M  V30 6 2 5 7
M  V30 7 1 5 8
M  V30 8 1 7 9
M  V30 9 1 8 10
M  V30 10 1 8 11
M  V30 11 1 9 12
M  V30 12 1 10 13
M  V30 13 1 10 14
M  V30 14 1 11 15
M  V30 15 1 12 16
M  V30 16 1 13 17
M  V30 17 1 14 18
M  V30 18 1 15 19
M  V30 19 2 16 20
M  V30 20 1 17 21
M  V30 21 2 19 22
M  V30 22 1 21 23
M  V30 23 1 6 7
M  V30 24 2 12 15
M  V30 25 1 18 21
M  V30 26 1 20 22
M  V30 27 1 3 24
M  V30 28 1 4 25
M  V30 29 1 6 26
M  V30 30 1 8 27
M  V30 31 1 11 28
M  V30 32 1 11 29
M  V30 33 1 13 30
M  V30 34 1 13 31
M  V30 35 1 14 32
M  V30 36 1 14 33
M  V30 37 1 16 34
M  V30 38 1 17 35
M  V30 39 1 17 36
M  V30 40 1 18 37
M  V30 41 1 18 38
M  V30 42 1 19 39
M  V30 43 1 20 40
M  V30 44 1 22 41
M  V30 45 1 23 42
M  V30 46 1 23 43
M  V30 47 1 23 44
M  V30 END BOND
M  V30 BEGIN COLLECTION
M  V30 MDLV30/STERAC1 ATOMS=(1 8)
M  V30 END COLLECTION
M  V30 END CTAB
M  END
>  <NO.>
1852

>  <Name>
clorotepine

>  <SMILES>
CN1CCN(C2Cc3ccccc3Sc3ccc(Cl)cc32)CC1

>  <logBB>


>  <Class>
1

>  <MW>
344.11

>  <nHBAcc>
3

>  <nHBDon>
0

>  <SLogP>
4.34

>  <TopoPSA>
6.48

>  <MMFF94 Energy>
133.29

$$$$
CN1CCN(CC(=O)[C@@]2(O)CC[C@H]3[C@@H]4CCC5=CC(=O)C=C[C@]5(C)[C@H]4[C@@H](O)C[C@@]32C)CC1
Actelion Java MolfileCreator 2.0

  0  0  0  0  0  0              0 V3000
M  V30 BEGIN CTAB
M  V30 COUNTS 70 74 0 0 0
M  V30 BEGIN ATOM
M  V30 1 O 6.2037 -3.7026 -3.3802 0
M  V30 2 C 5.7075 -2.8454 -2.6598 0
M  V30 3 C 5.3043 -1.5295 -3.195 0
M  V30 4 C 5.481 -3.0888 -1.2233 0
M  V30 5 C 4.7612 -0.5806 -2.4116 0
M  V30 6 C 4.9414 -2.1446 -0.4412 0
M  V30 7 C 4.5128 -0.7555 -0.9046 0 CFG=2
M  V30 8 C 4.3041 0.7276 -3.004 0
M  V30 9 C 2.967 -0.5515 -0.6625 0 CFG=1
M  V30 10 C 5.4127 0.2481 -0.1491 0
M  V30 11 C 2.8143 0.9271 -2.7528 0
M  V30 12 C 2.4728 -0.7727 0.7997 0 CFG=1
M  V30 13 C 2.449 0.803 -1.2621 0 CFG=1
M  V30 14 O 3.1984 0.0355 1.7153 0
M  V30 15 C 0.958 -0.5284 0.983 0
M  V30 16 C 0.9266 0.872 -1.0746 0 CFG=1
M  V30 17 C 0.4809 0.8207 0.4051 0 CFG=1
M  V30 18 C 0.1657 2.0717 -1.6309 0
M  V30 19 C -1.0646 0.9671 0.2193 0 CFG=1
M  V30 20 C 1.0408 1.9994 1.2467 0
M  V30 21 C -1.1924 2.037 -0.8987 0
M  V30 22 O -1.586 -0.2547 -0.3197 0
M  V30 23 C -1.8172 1.3863 1.5104 0
M  V30 24 O -1.8384 2.5506 1.9203 0
M  V30 25 C -2.5605 0.2896 2.2654 0
M  V30 26 N -3.7756 -0.0965 1.514 0
M  V30 27 C -4.3419 -1.3384 2.0886 0
M  V30 28 C -4.8064 0.9692 1.5876 0
M  V30 29 C -5.66 -1.757 1.3986 0
M  V30 30 C -6.1302 0.5528 0.9039 0
M  V30 31 N -6.6782 -0.6936 1.4692 0
M  V30 32 C -7.8951 -1.0915 0.7655 0
M  V30 33 H 5.4615 -1.3947 -4.2589 0
M  V30 34 H 5.7862 -4.0562 -0.8441 0
M  V30 35 H 4.8303 -2.3688 0.6175 0
M  V30 36 H 4.876 1.5553 -2.5691 0
M  V30 37 H 4.4896 0.7628 -4.0845 0
M  V30 38 H 2.4629 -1.3423 -1.2446 0
M  V30 39 H 5.0621 1.2804 -0.2402 0
M  V30 40 H 5.4851 0.0212 0.92 0
M  V30 41 H 6.4407 0.2236 -0.5344 0
M  V30 42 H 2.5245 1.9156 -3.1286 0
M  V30 43 H 2.2473 0.1897 -3.3366 0
M  V30 44 H 2.6658 -1.8127 1.086 0
M  V30 45 H 2.9223 1.6411 -0.7408 0
M  V30 46 H 2.8858 -0.1717 2.6131 0
M  V30 47 H 0.6975 -0.5804 2.0474 0
M  V30 48 H 0.433 -1.356 0.4906 0
M  V30 49 H 0.52 -0.0101 -1.5958 0
M  V30 50 H 0.6893 3.0112 -1.4216 0
M  V30 51 H 0.0294 2.0044 -2.7152 0
M  V30 52 H 0.6253 2.9659 0.9438 0
M  V30 53 H 0.8037 1.8622 2.3081 0
M  V30 54 H 2.1246 2.1052 1.1757 0
M  V30 55 H -1.9894 1.7766 -1.6053 0
M  V30 56 H -1.416 3.0368 -0.5111 0
M  V30 57 H -2.5626 -0.2169 -0.2356 0
M  V30 58 H -2.7939 0.6388 3.2785 0
M  V30 59 H -1.8717 -0.5573 2.3667 0
M  V30 60 H -3.6198 -2.1548 1.9668 0
M  V30 61 H -4.522 -1.2175 3.1657 0
M  V30 62 H -4.4429 1.8729 1.0852 0
M  V30 63 H -5.0129 1.234 2.6336 0
M  V30 64 H -6.0367 -2.6584 1.897 0
M  V30 65 H -5.4491 -2.0234 0.354 0
M  V30 66 H -5.9553 0.4439 -0.175 0
M  V30 67 H -6.8551 1.365 1.0377 0
M  V30 68 H -7.7169 -1.2832 -0.2987 0
M  V30 69 H -8.3175 -1.9982 1.2128 0
M  V30 70 H -8.6603 -0.312 0.8517 0
M  V30 END ATOM
M  V30 BEGIN BOND
M  V30 1 2 1 2
M  V30 2 1 2 3
M  V30 3 1 2 4
M  V30 4 2 3 5
M  V30 5 2 4 6
M  V30 6 1 5 7
M  V30 7 1 5 8
M  V30 8 1 7 9
M  V30 9 1 7 10
M  V30 10 1 8 11
M  V30 11 1 9 12
M  V30 12 1 9 13
M  V30 13 1 12 14
M  V30 14 1 12 15
M  V30 15 1 13 16
M  V30 16 1 15 17
M  V30 17 1 16 18
M  V30 18 1 17 19
M  V30 19 1 17 20
M  V30 20 1 18 21
M  V30 21 1 19 22
M  V30 22 1 19 23
M  V30 23 2 23 24
M  V30 24 1 23 25
M  V30 25 1 25 26
M  V30 26 1 26 27
M  V30 27 1 26 28
M  V30 28 1 27 29
M  V30 29 1 28 30
M  V30 30 1 29 31
M  V30 31 1 31 32
M  V30 32 1 6 7
M  V30 33 1 11 13
M  V30 34 1 16 17
M  V30 35 1 19 21
M  V30 36 1 30 31
M  V30 37 1 3 33
M  V30 38 1 4 34
M  V30 39 1 6 35
M  V30 40 1 8 36
M  V30 41 1 8 37
M  V30 42 1 9 38
M  V30 43 1 10 39
M  V30 44 1 10 40
M  V30 45 1 10 41
M  V30 46 1 11 42
M  V30 47 1 11 43
M  V30 48 1 12 44
M  V30 49 1 13 45
M  V30 50 1 14 46
M  V30 51 1 15 47
M  V30 52 1 15 48
M  V30 53 1 16 49
M  V30 54 1 18 50
M  V30 55 1 18 51
M  V30 56 1 20 52
M  V30 57 1 20 53
M  V30 58 1 20 54
M  V30 59 1 21 55
M  V30 60 1 21 56
M  V30 61 1 22 57
M  V30 62 1 25 58
M  V30 63 1 25 59
M  V30 64 1 27 60
M  V30 65 1 27 61
M  V30 66 1 28 62
M  V30 67 1 28 63
M  V30 68 1 29 64
M  V30 69 1 29 65
M  V30 70 1 30 66
M  V30 71 1 30 67
M  V30 72 1 32 68
M  V30 73 1 32 69
M  V30 74 1 32 70
M  V30 END BOND
M  V30 BEGIN COLLECTION
M  V30 MDLV30/STEABS ATOMS=(7 7 9 12 13 16 17 19)
M  V30 END COLLECTION
M  V30 END CTAB
M  END
>  <NO.>
1853

>  <Name>
mazipredone

>  <SMILES>
CN1CCN(CC(=O)[C@@]2(O)CC[C@H]3[C@@H]4CCC5=CC(=O)C=C[C@]5(C)[C@H]4[C@@H](O)C[C@@]32C)CC1

>  <logBB>


>  <Class>
1

>  <MW>
442.28

>  <nHBAcc>
6

>  <nHBDon>
2

>  <SLogP>
1.81

>  <TopoPSA>
81.08

>  <MMFF94 Energy>
211.05

$$$$
CN1CCN(CC/C=C2\c3ccccc3Sc3ccc(S(=O)(=O)N(C)C)cc32)CC1
Actelion Java MolfileCreator 2.0

  0  0  0  0  0  0              0 V3000
M  V30 BEGIN CTAB
M  V30 COUNTS 59 62 0 0 0
M  V30 BEGIN ATOM
M  V30 1 S 4.6479 -1.955 -0.4884 0
M  V30 2 O 4.0972 -1.4073 -1.7101 0
M  V30 3 O 5.4004 -3.1918 -0.4971 0
M  V30 4 N 5.6009 -0.7553 0.2524 0
M  V30 5 C 3.3 -2.1616 0.6583 0
M  V30 6 C 5.0443 0.6071 0.2987 0
M  V30 7 C 6.3144 -1.1346 1.4835 0
M  V30 8 C 2.1435 -1.3898 0.5094 0
M  V30 9 C 3.3874 -3.1291 1.6615 0
M  V30 10 C 1.0741 -1.549 1.4045 0
M  V30 11 C 2.316 -3.3089 2.5379 0
M  V30 12 C 1.1534 -2.5342 2.4099 0
M  V30 13 C -0.1535 -0.7111 1.3171 0
M  V30 14 S -0.1997 -2.8643 3.5413 0
M  V30 15 C -1.4772 -1.3314 1.5642 0
M  V30 16 C 0.023 0.6275 1.2194 0
M  V30 17 C -1.6061 -2.2826 2.5926 0
M  V30 18 C -2.5866 -1.0513 0.7553 0
M  V30 19 C -0.9788 1.7553 1.3278 0
M  V30 20 C -2.8602 -2.8466 2.8655 0
M  V30 21 C -3.8289 -1.6293 1.0212 0
M  V30 22 C -0.9634 2.694 0.1038 0
M  V30 23 C -3.9696 -2.5135 2.0871 0
M  V30 24 N -1.6648 2.1357 -1.0634 0
M  V30 25 C -3.1266 2.3547 -0.9691 0
M  V30 26 C -1.1808 2.7589 -2.314 0
M  V30 27 C -3.877 1.8169 -2.2096 0
M  V30 28 C -1.9289 2.2295 -3.5595 0
M  V30 29 N -3.388 2.4286 -3.4595 0
M  V30 30 C -4.0682 1.8553 -4.6181 0
M  V30 31 H 4.6021 0.8887 -0.6605 0
M  V30 32 H 4.293 0.6993 1.0881 0
M  V30 33 H 5.8468 1.3245 0.4998 0
M  V30 34 H 6.7953 -2.1108 1.3791 0
M  V30 35 H 5.6372 -1.1508 2.342 0
M  V30 36 H 7.1102 -0.4097 1.6846 0
M  V30 37 H 2.0712 -0.6709 -0.3046 0
M  V30 38 H 4.2728 -3.7538 1.7583 0
M  V30 39 H 2.3845 -4.074 3.3089 0
M  V30 40 H 1.0402 1.0078 1.1264 0
M  V30 41 H -2.4817 -0.3851 -0.0966 0
M  V30 42 H -0.6786 2.3515 2.2002 0
M  V30 43 H -1.9908 1.4126 1.5542 0
M  V30 44 H -2.9757 -3.5704 3.6689 0
M  V30 45 H -4.6828 -1.3929 0.3917 0
M  V30 46 H -1.3926 3.6654 0.3828 0
M  V30 47 H 0.0866 2.8934 -0.1502 0
M  V30 48 H -4.9358 -2.9652 2.297 0
M  V30 49 H -3.5292 1.8489 -0.0851 0
M  V30 50 H -3.3493 3.4247 -0.8565 0
M  V30 51 H -0.1143 2.5373 -2.4422 0
M  V30 52 H -1.2858 3.8514 -2.2655 0
M  V30 53 H -4.9439 2.0402 -2.088 0
M  V30 54 H -3.7733 0.7239 -2.2455 0
M  V30 55 H -1.6924 1.1649 -3.6918 0
M  V30 56 H -1.548 2.7611 -4.4398 0
M  V30 57 H -3.9015 0.7758 -4.7076 0
M  V30 58 H -5.1475 2.0327 -4.5552 0
M  V30 59 H -3.7234 2.3348 -5.5409 0
M  V30 END ATOM
M  V30 BEGIN BOND
M  V30 1 2 1 2
M  V30 2 2 1 3
M  V30 3 1 1 4
M  V30 4 1 1 5
M  V30 5 1 4 6
M  V30 6 1 4 7
M  V30 7 2 5 8
M  V30 8 1 5 9
M  V30 9 1 8 10
M  V30 10 2 9 11
M  V30 11 2 10 12
M  V30 12 1 10 13
M  V30 13 1 12 14
M  V30 14 1 13 15
M  V30 15 2 13 16
M  V30 16 1 14 17
M  V30 17 1 15 18
M  V30 18 1 16 19
M  V30 19 1 17 20
M  V30 20 2 18 21
M  V30 21 1 19 22
M  V30 22 2 20 23
M  V30 23 1 22 24
M  V30 24 1 24 25
M  V30 25 1 24 26
M  V30 26 1 25 27
M  V30 27 1 26 28
M  V30 28 1 27 29
M  V30 29 1 29 30
M  V30 30 1 11 12
M  V30 31 2 15 17
M  V30 32 1 21 23
M  V30 33 1 28 29
M  V30 34 1 6 31
M  V30 35 1 6 32
M  V30 36 1 6 33
M  V30 37 1 7 34
M  V30 38 1 7 35
M  V30 39 1 7 36
M  V30 40 1 8 37
M  V30 41 1 9 38
M  V30 42 1 11 39
M  V30 43 1 16 40
M  V30 44 1 18 41
M  V30 45 1 19 42
M  V30 46 1 19 43
M  V30 47 1 20 44
M  V30 48 1 21 45
M  V30 49 1 22 46
M  V30 50 1 22 47
M  V30 51 1 23 48
M  V30 52 1 25 49
M  V30 53 1 25 50
M  V30 54 1 26 51
M  V30 55 1 26 52
M  V30 56 1 27 53
M  V30 57 1 27 54
M  V30 58 1 28 55
M  V30 59 1 28 56
M  V30 60 1 30 57
M  V30 61 1 30 58
M  V30 62 1 30 59
M  V30 END BOND
M  V30 END CTAB
M  END
>  <NO.>
1854

>  <Name>
trans-thiothixene

>  <SMILES>
CN1CCN(CC/C=C2\c3ccccc3Sc3ccc(S(=O)(=O)N(C)C)cc32)CC1

>  <logBB>


>  <Class>
1

>  <MW>
443.17

>  <nHBAcc>
5

>  <nHBDon>
0

>  <SLogP>
3.47

>  <TopoPSA>
43.86

>  <MMFF94 Energy>
101.51

$$$$
CN1CCN(CCC(=O)N2c3ccccc3Sc3ccc(C(F)(F)F)cc32)CC1
Actelion Java MolfileCreator 2.0

  0  0  0  0  0  0              0 V3000
M  V30 BEGIN CTAB
M  V30 COUNTS 51 54 0 0 0
M  V30 BEGIN ATOM
M  V30 1 S 0.8983 1.7154 3.8424 0
M  V30 2 C -0.8009 2.1904 3.5565 0
M  V30 3 C 1.5725 2.1636 2.2516 0
M  V30 4 C -1.3465 2.216 2.2606 0
M  V30 5 C -1.5891 2.5632 4.6508 0
M  V30 6 C 0.7628 2.2087 1.1031 0
M  V30 7 C 2.9192 2.5364 2.1699 0
M  V30 8 N -0.5846 1.7491 1.1457 0
M  V30 9 C -2.6659 2.6569 2.0777 0
M  V30 10 C -2.906 2.9886 4.4594 0
M  V30 11 C 1.2929 2.7208 -0.0891 0
M  V30 12 C 3.4487 2.9994 0.9648 0
M  V30 13 C -1.0961 0.7155 0.343 0
M  V30 14 C -3.454 3.0534 3.1704 0
M  V30 15 C 2.6326 3.1068 -0.1588 0
M  V30 16 O -2.2775 0.357 0.3823 0
M  V30 17 C -0.1136 -0.0023 -0.5778 0
M  V30 18 C -4.8823 3.4951 2.9637 0
M  V30 19 C -0.7122 -1.2991 -1.1335 0
M  V30 20 F -5.2848 4.4232 3.8776 0
M  V30 21 F -5.0978 4.0629 1.7444 0
M  V30 22 F -5.7666 2.4661 3.0639 0
M  V30 23 N 0.1859 -1.9749 -2.0914 0
M  V30 24 C -0.5541 -3.0469 -2.7975 0
M  V30 25 C 1.3614 -2.577 -1.4242 0
M  V30 26 C 0.3395 -3.8379 -3.7793 0
M  V30 27 C 2.255 -3.374 -2.4045 0
M  V30 28 N 1.5086 -4.4342 -3.1063 0
M  V30 29 C 2.3648 -5.123 -4.068 0
M  V30 30 H -1.1811 2.5358 5.6592 0
M  V30 31 H 3.5578 2.4948 3.0496 0
M  V30 32 H -3.0944 2.6778 1.0757 0
M  V30 33 H -3.504 3.2758 5.324 0
M  V30 34 H 0.6686 2.8292 -0.9727 0
M  V30 35 H 4.4929 3.2986 0.9102 0
M  V30 36 H 3.0391 3.4926 -1.0909 0
M  V30 37 H 0.7968 -0.2222 -0.0127 0
M  V30 38 H 0.1282 0.6588 -1.4154 0
M  V30 39 H -0.9904 -1.9731 -0.3123 0
M  V30 40 H -1.644 -1.0396 -1.6538 0
M  V30 41 H -0.9992 -3.7455 -2.0756 0
M  V30 42 H -1.376 -2.6031 -3.3724 0
M  V30 43 H 1.0428 -3.2415 -0.6096 0
M  V30 44 H 1.9847 -1.7922 -0.9824 0
M  V30 45 H 0.6587 -3.1694 -4.5905 0
M  V30 46 H -0.2667 -4.6328 -4.2301 0
M  V30 47 H 2.7044 -2.6761 -3.1243 0
M  V30 48 H 3.0746 -3.8238 -1.831 0
M  V30 49 H 2.7538 -4.4477 -4.8387 0
M  V30 50 H 1.8131 -5.9294 -4.5636 0
M  V30 51 H 3.2151 -5.5898 -3.5585 0
M  V30 END ATOM
M  V30 BEGIN BOND
M  V30 1 1 1 2
M  V30 2 1 1 3
M  V30 3 2 2 4
M  V30 4 1 2 5
M  V30 5 2 3 6
M  V30 6 1 3 7
M  V30 7 1 4 8
M  V30 8 1 4 9
M  V30 9 2 5 10
M  V30 10 1 6 11
M  V30 11 2 7 12
M  V30 12 1 8 13
M  V30 13 2 9 14
M  V30 14 2 11 15
M  V30 15 2 13 16
M  V30 16 1 13 17
M  V30 17 1 14 18
M  V30 18 1 17 19
M  V30 19 1 18 20
M  V30 20 1 18 21
M  V30 21 1 18 22
M  V30 22 1 19 23
M  V30 23 1 23 24
M  V30 24 1 23 25
M  V30 25 1 24 26
M  V30 26 1 25 27
M  V30 27 1 26 28
M  V30 28 1 28 29
M  V30 29 1 6 8
M  V30 30 1 10 14
M  V30 31 1 12 15
M  V30 32 1 27 28
M  V30 33 1 5 30
M  V30 34 1 7 31
M  V30 35 1 9 32
M  V30 36 1 10 33
M  V30 37 1 11 34
M  V30 38 1 12 35
M  V30 39 1 15 36
M  V30 40 1 17 37
M  V30 41 1 17 38
M  V30 42 1 19 39
M  V30 43 1 19 40
M  V30 44 1 24 41
M  V30 45 1 24 42
M  V30 46 1 25 43
M  V30 47 1 25 44
M  V30 48 1 26 45
M  V30 49 1 26 46
M  V30 50 1 27 47
M  V30 51 1 27 48
M  V30 52 1 29 49
M  V30 53 1 29 50
M  V30 54 1 29 51
M  V30 END BOND
M  V30 END CTAB
M  END
>  <NO.>
1855

>  <Name>
ftormetazine

>  <SMILES>
CN1CCN(CCC(=O)N2c3ccccc3Sc3ccc(C(F)(F)F)cc32)CC1

>  <logBB>


>  <Class>
1

>  <MW>
421.14

>  <nHBAcc>
4

>  <nHBDon>
0

>  <SLogP>
4.47

>  <TopoPSA>
26.79

>  <MMFF94 Energy>
158.01

$$$$
CN1CCN(CCCN2c3ccccc3Sc3ccc(Cl)cc32)CC1
Actelion Java MolfileCreator 2.0

  0  0  0  0  0  0              0 V3000
M  V30 BEGIN CTAB
M  V30 COUNTS 49 52 0 0 0
M  V30 BEGIN ATOM
M  V30 1 Cl -0.0813 -4.3177 -4.4809 0
M  V30 2 C -0.7139 -2.7564 -4.1267 0
M  V30 3 C -1.2159 -2.4849 -2.8522 0
M  V30 4 C -0.7264 -1.78 -5.1117 0
M  V30 5 C -1.7372 -1.2178 -2.5212 0
M  V30 6 C -1.2634 -0.5287 -4.82 0
M  V30 7 N -2.2306 -0.9481 -1.2158 0
M  V30 8 C -1.7804 -0.2468 -3.5427 0
M  V30 9 C -3.1342 0.1022 -0.8995 0
M  V30 10 C -1.3831 -1.4257 -0.094 0
M  V30 11 S -2.4493 1.3858 -3.3013 0
M  V30 12 C -3.3149 1.2062 -1.7552 0
M  V30 13 C -3.9172 0.0591 0.2723 0
M  V30 14 C -0.1717 -0.504 0.1141 0
M  V30 15 C -4.1954 2.2451 -1.4045 0
M  V30 16 C -4.7989 1.0903 0.6109 0
M  V30 17 C 0.6611 -0.9703 1.3138 0
M  V30 18 C -4.9308 2.1904 -0.2237 0
M  V30 19 N 1.9161 -0.2196 1.4721 0
M  V30 20 C 2.7641 -0.858 2.5036 0
M  V30 21 C 1.6854 1.1914 1.8513 0
M  V30 22 C 4.0805 -0.088 2.7524 0
M  V30 23 C 3.0025 1.9604 2.1132 0
M  V30 24 N 3.8344 1.3121 3.1446 0
M  V30 25 C 5.0944 2.03 3.319 0
M  V30 26 H -1.2253 -3.2926 -2.1274 0
M  V30 27 H -0.3356 -1.985 -6.1042 0
M  V30 28 H -1.2837 0.2297 -5.6002 0
M  V30 29 H -1.036 -2.4511 -0.2565 0
M  V30 30 H -1.9452 -1.4931 0.8428 0
M  V30 31 H -3.8839 -0.803 0.9318 0
M  V30 32 H -0.5221 0.5222 0.2699 0
M  V30 33 H 0.4517 -0.4974 -0.7883 0
M  V30 34 H -4.3192 3.104 -2.0608 0
M  V30 35 H -5.3879 1.0236 1.5222 0
M  V30 36 H 0.0575 -0.9181 2.2296 0
M  V30 37 H 0.9059 -2.0286 1.1548 0
M  V30 38 H -5.6139 2.9958 0.032 0
M  V30 39 H 2.2151 -0.9437 3.4515 0
M  V30 40 H 3.0228 -1.8745 2.1832 0
M  V30 41 H 1.0538 1.2485 2.7481 0
M  V30 42 H 1.1606 1.7159 1.0456 0
M  V30 43 H 4.7001 -0.1345 1.8466 0
M  V30 44 H 4.6307 -0.5995 3.5515 0
M  V30 45 H 3.5569 2.0489 1.1689 0
M  V30 46 H 2.7463 2.9764 2.4376 0
M  V30 47 H 5.6903 2.0565 2.3996 0
M  V30 48 H 5.6962 1.562 4.1058 0
M  V30 49 H 4.9068 3.0614 3.6374 0
M  V30 END ATOM
M  V30 BEGIN BOND
M  V30 1 1 1 2
M  V30 2 2 2 3
M  V30 3 1 2 4
M  V30 4 1 3 5
M  V30 5 2 4 6
M  V30 6 1 5 7
M  V30 7 2 5 8
M  V30 8 1 7 9
M  V30 9 1 7 10
M  V30 10 1 8 11
M  V30 11 2 9 12
M  V30 12 1 9 13
M  V30 13 1 10 14
M  V30 14 1 12 15
M  V30 15 2 13 16
M  V30 16 1 14 17
M  V30 17 2 15 18
M  V30 18 1 17 19
M  V30 19 1 19 20
M  V30 20 1 19 21
M  V30 21 1 20 22
M  V30 22 1 21 23
M  V30 23 1 22 24
M  V30 24 1 24 25
M  V30 25 1 6 8
M  V30 26 1 11 12
M  V30 27 1 16 18
M  V30 28 1 23 24
M  V30 29 1 3 26
M  V30 30 1 4 27
M  V30 31 1 6 28
M  V30 32 1 10 29
M  V30 33 1 10 30
M  V30 34 1 13 31
M  V30 35 1 14 32
M  V30 36 1 14 33
M  V30 37 1 15 34
M  V30 38 1 16 35
M  V30 39 1 17 36
M  V30 40 1 17 37
M  V30 41 1 18 38
M  V30 42 1 20 39
M  V30 43 1 20 40
M  V30 44 1 21 41
M  V30 45 1 21 42
M  V30 46 1 22 43
M  V30 47 1 22 44
M  V30 48 1 23 45
M  V30 49 1 23 46
M  V30 50 1 25 47
M  V30 51 1 25 48
M  V30 52 1 25 49
M  V30 END BOND
M  V30 END CTAB
M  END
>  <NO.>
1856

>  <Name>
phenobarbital

>  <SMILES>
CN1CCN(CCCN2c3ccccc3Sc3ccc(Cl)cc32)CC1

>  <logBB>


>  <Class>
1

>  <MW>
373.14

>  <nHBAcc>
4

>  <nHBDon>
0

>  <SLogP>
4.58

>  <TopoPSA>
9.72

>  <MMFF94 Energy>
129.99

$$$$
CN1CCN(CCCN2c3ccccc3Sc3ccc(S(=O)(=O)N(C)C)cc32)CC1
Actelion Java MolfileCreator 2.0

  0  0  0  0  0  0              0 V3000
M  V30 BEGIN CTAB
M  V30 COUNTS 60 63 0 0 0
M  V30 BEGIN ATOM
M  V30 1 S 0.8936 -5.3708 -1.1374 0
M  V30 2 O 0.9156 -6.6209 -0.4098 0
M  V30 3 O 2.1155 -4.7461 -1.6004 0
M  V30 4 N -0.126 -5.5569 -2.502 0
M  V30 5 C 0.0026 -4.2026 -0.1426 0
M  V30 6 C -0.2725 -4.3474 -3.3428 0
M  V30 7 C 0.2181 -6.7444 -3.3172 0
M  V30 8 C 0.5711 -2.9589 0.1578 0
M  V30 9 C -1.2578 -4.5461 0.3324 0
M  V30 10 C -0.122 -2.0044 0.9284 0
M  V30 11 C -1.9518 -3.6284 1.1134 0
M  V30 12 N 0.4454 -0.7343 1.2168 0
M  V30 13 C -1.3932 -2.3726 1.42 0
M  V30 14 C 0.035 0.1059 2.287 0
M  V30 15 C 1.2785 -0.1092 0.1559 0
M  V30 16 S -2.3983 -1.291 2.4158 0
M  V30 17 C -1.2254 -0.0415 2.8991 0
M  V30 18 C 0.8854 1.0989 2.8159 0
M  V30 19 C 0.471 0.2485 -1.1035 0
M  V30 20 C -1.628 0.8208 3.9356 0
M  V30 21 C 0.4847 1.9486 3.8528 0
M  V30 22 C -0.5556 1.3682 -0.8917 0
M  V30 23 C -0.7789 1.8171 4.4067 0
M  V30 24 N 0.0427 2.624 -0.4163 0
M  V30 25 C 0.7524 3.3525 -1.4868 0
M  V30 26 C -1.0007 3.5046 0.1521 0
M  V30 27 C 1.3258 4.7025 -0.9937 0
M  V30 28 C -0.4255 4.8498 0.6478 0
M  V30 29 N 0.2853 5.5772 -0.4217 0
M  V30 30 C 0.8703 6.8122 0.0931 0
M  V30 31 H -0.6028 -3.4914 -2.7493 0
M  V30 32 H 0.6659 -4.1017 -3.8485 0
M  V30 33 H -1.0408 -4.5205 -4.1036 0
M  V30 34 H 0.1521 -7.6552 -2.7154 0
M  V30 35 H 1.2235 -6.6528 -3.7391 0
M  V30 36 H -0.4962 -6.8521 -4.1398 0
M  V30 37 H 1.5763 -2.7582 -0.1992 0
M  V30 38 H -1.6937 -5.5163 0.1064 0
M  V30 39 H -2.936 -3.8984 1.4922 0
M  V30 40 H 2.0971 -0.7813 -0.1234 0
M  V30 41 H 1.8045 0.7891 0.4886 0
M  V30 42 H 1.9004 1.2183 2.4498 0
M  V30 43 H -0.0556 -0.6337 -1.4849 0
M  V30 44 H 1.1732 0.5364 -1.8947 0
M  V30 45 H -2.61 0.7102 4.3907 0
M  V30 46 H 1.17 2.7045 4.2273 0
M  V30 47 H -1.1092 1.534 -1.8251 0
M  V30 48 H -1.2958 1.009 -0.1667 0
M  V30 49 H -1.0974 2.4717 5.213 0
M  V30 50 H 1.5913 2.7526 -1.8557 0
M  V30 51 H 0.0824 3.5376 -2.3371 0
M  V30 52 H -1.4758 3.0067 1.006 0
M  V30 53 H -1.7854 3.699 -0.5914 0
M  V30 54 H 1.7966 5.206 -1.8466 0
M  V30 55 H 2.1141 4.5055 -0.2543 0
M  V30 56 H 0.2438 4.6611 1.4981 0
M  V30 57 H -1.2565 5.4634 1.0161 0
M  V30 58 H 1.6 6.6276 0.8897 0
M  V30 59 H 1.3704 7.3636 -0.7105 0
M  V30 60 H 0.0891 7.4709 0.4882 0
M  V30 END ATOM
M  V30 BEGIN BOND
M  V30 1 2 1 2
M  V30 2 2 1 3
M  V30 3 1 1 4
M  V30 4 1 1 5
M  V30 5 1 4 6
M  V30 6 1 4 7
M  V30 7 2 5 8
M  V30 8 1 5 9
M  V30 9 1 8 10
M  V30 10 2 9 11
M  V30 11 1 10 12
M  V30 12 2 10 13
M  V30 13 1 12 14
M  V30 14 1 12 15
M  V30 15 1 13 16
M  V30 16 2 14 17
M  V30 17 1 14 18
M  V30 18 1 15 19
M  V30 19 1 17 20
M  V30 20 2 18 21
M  V30 21 1 19 22
M  V30 22 2 20 23
M  V30 23 1 22 24
M  V30 24 1 24 25
M  V30 25 1 24 26
M  V30 26 1 25 27
M  V30 27 1 26 28
M  V30 28 1 27 29
M  V30 29 1 29 30
M  V30 30 1 11 13
M  V30 31 1 16 17
M  V30 32 1 21 23
M  V30 33 1 28 29
M  V30 34 1 6 31
M  V30 35 1 6 32
M  V30 36 1 6 33
M  V30 37 1 7 34
M  V30 38 1 7 35
M  V30 39 1 7 36
M  V30 40 1 8 37
M  V30 41 1 9 38
M  V30 42 1 11 39
M  V30 43 1 15 40
M  V30 44 1 15 41
M  V30 45 1 18 42
M  V30 46 1 19 43
M  V30 47 1 19 44
M  V30 48 1 20 45
M  V30 49 1 21 46
M  V30 50 1 22 47
M  V30 51 1 22 48
M  V30 52 1 23 49
M  V30 53 1 25 50
M  V30 54 1 25 51
M  V30 55 1 26 52
M  V30 56 1 26 53
M  V30 57 1 27 54
M  V30 58 1 27 55
M  V30 59 1 28 56
M  V30 60 1 28 57
M  V30 61 1 30 58
M  V30 62 1 30 59
M  V30 63 1 30 60
M  V30 END BOND
M  V30 END CTAB
M  END
>  <NO.>
1857

>  <Name>
thioproperazine

>  <SMILES>
CN1CCN(CCCN2c3ccccc3Sc3ccc(S(=O)(=O)N(C)C)cc32)CC1

>  <logBB>


>  <Class>
1

>  <MW>
446.18

>  <nHBAcc>
6

>  <nHBDon>
0

>  <SLogP>
3.18

>  <TopoPSA>
47.1

>  <MMFF94 Energy>
90.73

$$$$
CN1CCN(CCN2CCN(CCCN3c4ccccc4Sc4ccc(Cl)cc43)CC2)C1=O
Actelion Java MolfileCreator 2.0

  0  0  0  0  0  0              0 V3000
M  V30 BEGIN CTAB
M  V30 COUNTS 65 69 0 0 0
M  V30 BEGIN ATOM
M  V30 1 Cl 2.7528 -5.7551 -2.5097 0
M  V30 2 C 1.3922 -5.4448 -1.5022 0
M  V30 3 C 1.5838 -4.9266 -0.2191 0
M  V30 4 C 0.1153 -5.717 -1.9689 0
M  V30 5 C 0.4976 -4.6463 0.6346 0
M  V30 6 C -0.9735 -5.49 -1.1323 0
M  V30 7 N 0.6953 -4.0983 1.9289 0
M  V30 8 C -0.7905 -4.9776 0.1649 0
M  V30 9 C -0.2271 -4.2236 3.0027 0
M  V30 10 C 1.7746 -3.0933 2.0871 0
M  V30 11 S -2.2623 -4.7685 1.1449 0
M  V30 12 C -1.5846 -4.5262 2.7748 0
M  V30 13 C 0.18 -4.0741 4.3448 0
M  V30 14 C 1.2531 -1.6517 2.2142 0
M  V30 15 C -2.4879 -4.6238 3.8482 0
M  V30 16 C -0.7209 -4.1818 5.4092 0
M  V30 17 C 0.5011 -1.1843 0.962 0
M  V30 18 C -2.0586 -4.4504 5.1605 0
M  V30 19 N 0.0695 0.2219 1.057 0
M  V30 20 C -0.9498 0.5073 0.0244 0
M  V30 21 C 1.1931 1.1657 0.8842 0
M  V30 22 C -1.4123 1.9828 0.0341 0
M  V30 23 C 0.7297 2.6411 0.8936 0
M  V30 24 N -0.2869 2.9223 -0.1415 0
M  V30 25 C -0.7223 4.3329 -0.0498 0
M  V30 26 C -1.5782 4.8306 -1.2331 0
M  V30 27 N -0.8457 4.9162 -2.4835 0
M  V30 28 C -0.1104 6.0293 -2.8804 0
M  V30 29 C -0.5912 3.779 -3.3388 0
M  V30 30 O -0.0372 7.0932 -2.2883 0
M  V30 31 N 0.5202 5.7 -4.0754 0
M  V30 32 C 0.1492 4.3794 -4.5288 0
M  V30 33 C 1.3363 6.5948 -4.8548 0
M  V30 34 H 2.6055 -4.7822 0.1181 0
M  V30 35 H -0.0399 -6.12 -2.9654 0
M  V30 36 H -1.9726 -5.7267 -1.4933 0
M  V30 37 H 2.4832 -3.0955 1.2532 0
M  V30 38 H 2.395 -3.3383 2.9566 0
M  V30 39 H 1.2192 -3.8888 4.5971 0
M  V30 40 H 2.1242 -1.0116 2.3938 0
M  V30 41 H 0.6052 -1.5442 3.0915 0
M  V30 42 H -3.5377 -4.8421 3.6641 0
M  V30 43 H -0.3706 -4.0589 6.4309 0
M  V30 44 H 1.1108 -1.3457 0.0639 0
M  V30 45 H -0.3912 -1.8121 0.8579 0
M  V30 46 H -2.7648 -4.533 5.9822 0
M  V30 47 H -1.8313 -0.1218 0.1988 0
M  V30 48 H -0.5638 0.26 -0.9739 0
M  V30 49 H 1.9153 1.0459 1.6984 0
M  V30 50 H 1.7234 0.9645 -0.0562 0
M  V30 51 H -2.1334 2.1046 -0.7811 0
M  V30 52 H -1.9422 2.1857 0.9745 0
M  V30 53 H 1.6101 3.2717 0.7198 0
M  V30 54 H 0.3419 2.8882 1.8914 0
M  V30 55 H 0.1668 4.9751 0.0011 0
M  V30 56 H -1.2807 4.4934 0.8817 0
M  V30 57 H -2.4686 4.2151 -1.3922 0
M  V30 58 H -1.9277 5.8408 -0.9877 0
M  V30 59 H -1.5288 3.2964 -3.6278 0
M  V30 60 H 0.0455 3.0643 -2.8106 0
M  V30 61 H 1.037 3.8021 -4.802 0
M  V30 62 H -0.5065 4.4836 -5.3992 0
M  V30 63 H 1.5026 7.5322 -4.3178 0
M  V30 64 H 0.8255 6.8048 -5.7983 0
M  V30 65 H 2.2965 6.113 -5.056 0
M  V30 END ATOM
M  V30 BEGIN BOND
M  V30 1 1 1 2
M  V30 2 2 2 3
M  V30 3 1 2 4
M  V30 4 1 3 5
M  V30 5 2 4 6
M  V30 6 1 5 7
M  V30 7 2 5 8
M  V30 8 1 7 9
M  V30 9 1 7 10
M  V30 10 1 8 11
M  V30 11 2 9 12
M  V30 12 1 9 13
M  V30 13 1 10 14
M  V30 14 1 12 15
M  V30 15 2 13 16
M  V30 16 1 14 17
M  V30 17 2 15 18
M  V30 18 1 17 19
M  V30 19 1 19 20
M  V30 20 1 19 21
M  V30 21 1 20 22
M  V30 22 1 21 23
M  V30 23 1 22 24
M  V30 24 1 24 25
M  V30 25 1 25 26
M  V30 26 1 26 27
M  V30 27 1 27 28
M  V30 28 1 27 29
M  V30 29 2 28 30
M  V30 30 1 28 31
M  V30 31 1 29 32
M  V30 32 1 31 33
M  V30 33 1 6 8
M  V30 34 1 11 12
M  V30 35 1 16 18
M  V30 36 1 23 24
M  V30 37 1 31 32
M  V30 38 1 3 34
M  V30 39 1 4 35
M  V30 40 1 6 36
M  V30 41 1 10 37
M  V30 42 1 10 38
M  V30 43 1 13 39
M  V30 44 1 14 40
M  V30 45 1 14 41
M  V30 46 1 15 42
M  V30 47 1 16 43
M  V30 48 1 17 44
M  V30 49 1 17 45
M  V30 50 1 18 46
M  V30 51 1 20 47
M  V30 52 1 20 48
M  V30 53 1 21 49
M  V30 54 1 21 50
M  V30 55 1 22 51
M  V30 56 1 22 52
M  V30 57 1 23 53
M  V30 58 1 23 54
M  V30 59 1 25 55
M  V30 60 1 25 56
M  V30 61 1 26 57
M  V30 62 1 26 58
M  V30 63 1 29 59
M  V30 64 1 29 60
M  V30 65 1 32 61
M  V30 66 1 32 62
M  V30 67 1 33 63
M  V30 68 1 33 64
M  V30 69 1 33 65
M  V30 END BOND
M  V30 END CTAB
M  END
>  <NO.>
1858

>  <Name>
imiclopazine

>  <SMILES>
CN1CCN(CCN2CCN(CCCN3c4ccccc4Sc4ccc(Cl)cc43)CC2)C1=O

>  <logBB>


>  <Class>
1

>  <MW>
485.2

>  <nHBAcc>
5

>  <nHBDon>
0

>  <SLogP>
4.32

>  <TopoPSA>
33.27

>  <MMFF94 Energy>
98.533

$$$$
CN1CCN(c2c(F)cc3c(=O)c(C(=O)O)cn4c3c2SCC4)CC1
Actelion Java MolfileCreator 2.0

  0  0  0  0  0  0              0 V3000
M  V30 BEGIN CTAB
M  V30 COUNTS 43 46 0 0 0
M  V30 BEGIN ATOM
M  V30 1 S -1.802 0.8188 1.72 0
M  V30 2 C -0.8144 0.5508 0.2156 0
M  V30 3 C -2.8882 2.1295 1.131 0
M  V30 4 C -0.1112 -0.6912 0.094 0
M  V30 5 C -0.8066 1.516 -0.8375 0
M  V30 6 C -2.0364 3.2138 0.5053 0
M  V30 7 N -0.0543 -1.6222 1.127 0
M  V30 8 C 0.5356 -0.9472 -1.1281 0
M  V30 9 N -1.4456 2.783 -0.7717 0
M  V30 10 C -0.1292 1.1776 -2.0304 0
M  V30 11 C 0.645 -1.2919 2.3768 0
M  V30 12 C -0.2988 -3.0527 0.9019 0
M  V30 13 F 1.2102 -2.093 -1.3111 0
M  V30 14 C 0.5296 -0.0427 -2.1758 0
M  V30 15 C -1.3797 3.648 -1.8536 0
M  V30 16 C -0.1064 2.1162 -3.1835 0
M  V30 17 C 1.9084 -2.169 2.5456 0
M  V30 18 C 0.9766 -3.8953 1.1412 0
M  V30 19 C -0.7792 3.426 -3.032 0
M  V30 20 O 0.4559 1.7831 -4.2208 0
M  V30 21 N 1.618 -3.6175 2.4481 0
M  V30 22 C -0.7764 4.4454 -4.0992 0
M  V30 23 C 2.8441 -4.3987 2.593 0
M  V30 24 O -0.156 4.4221 -5.1454 0
M  V30 25 O -1.569 5.5044 -3.8286 0
M  V30 26 H -3.4426 2.5275 1.9864 0
M  V30 27 H -3.612 1.7215 0.4174 0
M  V30 28 H -2.6847 4.0835 0.3362 0
M  V30 29 H -1.2435 3.5559 1.1839 0
M  V30 30 H 0.9477 -0.2387 2.4148 0
M  V30 31 H -0.0336 -1.4704 3.22 0
M  V30 32 H -0.6979 -3.2491 -0.1 0
M  V30 33 H -1.073 -3.3768 1.6092 0
M  V30 34 H 1.0496 -0.2979 -3.0954 0
M  V30 35 H -1.8798 4.5962 -1.6655 0
M  V30 36 H 2.6461 -1.8785 1.7854 0
M  V30 37 H 2.3454 -1.95 3.5273 0
M  V30 38 H 0.6971 -4.9546 1.0927 0
M  V30 39 H 1.6912 -3.7127 0.3296 0
M  V30 40 H 3.3016 -4.2151 3.5714 0
M  V30 41 H 3.5827 -4.1637 1.8181 0
M  V30 42 H 2.6233 -5.4706 2.5448 0
M  V30 43 H -1.4574 6.0659 -4.6258 0
M  V30 END ATOM
M  V30 BEGIN BOND
M  V30 1 1 1 2
M  V30 2 1 1 3
M  V30 3 2 2 4
M  V30 4 1 2 5
M  V30 5 1 3 6
M  V30 6 1 4 7
M  V30 7 1 4 8
M  V30 8 1 5 9
M  V30 9 2 5 10
M  V30 10 1 7 11
M  V30 11 1 7 12
M  V30 12 1 8 13
M  V30 13 2 8 14
M  V30 14 1 9 15
M  V30 15 1 10 16
M  V30 16 1 11 17
M  V30 17 1 12 18
M  V30 18 2 15 19
M  V30 19 2 16 20
M  V30 20 1 17 21
M  V30 21 1 19 22
M  V30 22 1 21 23
M  V30 23 2 22 24
M  V30 24 1 22 25
M  V30 25 1 6 9
M  V30 26 1 10 14
M  V30 27 1 16 19
M  V30 28 1 18 21
M  V30 29 1 3 26
M  V30 30 1 3 27
M  V30 31 1 6 28
M  V30 32 1 6 29
M  V30 33 1 11 30
M  V30 34 1 11 31
M  V30 35 1 12 32
M  V30 36 1 12 33
M  V30 37 1 14 34
M  V30 38 1 15 35
M  V30 39 1 17 36
M  V30 40 1 17 37
M  V30 41 1 18 38
M  V30 42 1 18 39
M  V30 43 1 23 40
M  V30 44 1 23 41
M  V30 45 1 23 42
M  V30 46 1 25 43
M  V30 END BOND
M  V30 END CTAB
M  END
>  <NO.>
1859

>  <Name>
flupentixol

>  <SMILES>
CN1CCN(c2c(F)cc3c(=O)c(C(=O)O)cn4c3c2SCC4)CC1

>  <logBB>


>  <Class>
-1

>  <MW>
363.11

>  <nHBAcc>
5

>  <nHBDon>
1

>  <SLogP>
1.7

>  <TopoPSA>
65.78

>  <MMFF94 Energy>
162.54

$$$$
CN1CCN(c2cc3c(cc2F)c(=O)c(C(=O)O)cn3-c2ccc(F)cc2)CC1
Actelion Java MolfileCreator 2.0

  0  0  0  0  0  0              0 V3000
M  V30 BEGIN CTAB
M  V30 COUNTS 48 51 0 0 0
M  V30 BEGIN ATOM
M  V30 1 F -1.291 2.5832 2.6641 0
M  V30 2 C -0.468 2.0384 1.7539 0
M  V30 3 C -0.8282 0.8539 1.0837 0
M  V30 4 C 0.7203 2.7119 1.4901 0
M  V30 5 N -2.0134 0.1738 1.3607 0
M  V30 6 C 0.0699 0.3973 0.0982 0
M  V30 7 C 1.5915 2.2206 0.5168 0
M  V30 8 C -2.6194 -0.7263 0.3653 0
M  V30 9 C -2.3429 -0.1212 2.7696 0
M  V30 10 C 1.2719 1.0679 -0.2195 0
M  V30 11 C 2.8675 2.9346 0.2685 0
M  V30 12 C -4.1241 -0.9533 0.6449 0
M  V30 13 C -3.858 -0.3727 2.9572 0
M  V30 14 N 2.1738 0.5866 -1.2276 0
M  V30 15 O 3.0833 4.0066 0.8219 0
M  V30 16 C 3.8183 2.3142 -0.6789 0
M  V30 17 N -4.4662 -1.3488 2.0271 0
M  V30 18 C 1.8663 -0.4752 -2.1355 0
M  V30 19 C 3.4041 1.2287 -1.3502 0
M  V30 20 C 5.1694 2.8133 -0.9615 0
M  V30 21 C -4.041 -2.7146 2.3218 0
M  V30 22 C 0.7463 -0.3903 -2.9829 0
M  V30 23 C 2.6881 -1.6136 -2.2159 0
M  V30 24 O 5.7919 2.6307 -1.995 0
M  V30 25 O 5.7288 3.4539 0.0745 0
M  V30 26 C 0.4491 -1.4216 -3.8763 0
M  V30 27 C 2.3889 -2.6451 -3.1088 0
M  V30 28 C 1.2723 -2.5394 -3.9291 0
M  V30 29 F 0.9857 -3.5294 -4.784 0
M  V30 30 H 0.9497 3.6172 2.0459 0
M  V30 31 H -0.1547 -0.5341 -0.4119 0
M  V30 32 H -2.5347 -0.2965 -0.6406 0
M  V30 33 H -2.0912 -1.6873 0.3666 0
M  V30 34 H -2.0599 0.6872 3.4492 0
M  V30 35 H -1.7758 -1.0059 3.0849 0
M  V30 36 H -4.6592 -0.0193 0.4256 0
M  V30 37 H -4.52 -1.6906 -0.0644 0
M  V30 38 H -4.3837 0.5828 2.8262 0
M  V30 39 H -4.0524 -0.6747 3.9939 0
M  V30 40 H 4.0581 0.7756 -2.095 0
M  V30 41 H -4.5366 -3.4203 1.6458 0
M  V30 42 H -2.9602 -2.8639 2.2342 0
M  V30 43 H -4.3411 -2.9948 3.3378 0
M  V30 44 H 0.1098 0.4917 -2.9599 0
M  V30 45 H 3.557 -1.7089 -1.5688 0
M  V30 46 H 6.6053 3.747 -0.2472 0
M  V30 47 H -0.412 -1.3559 -4.5337 0
M  V30 48 H 3.018 -3.5276 -3.1683 0
M  V30 END ATOM
M  V30 BEGIN BOND
M  V30 1 1 1 2
M  V30 2 2 2 3
M  V30 3 1 2 4
M  V30 4 1 3 5
M  V30 5 1 3 6
M  V30 6 2 4 7
M  V30 7 1 5 8
M  V30 8 1 5 9
M  V30 9 2 6 10
M  V30 10 1 7 11
M  V30 11 1 8 12
M  V30 12 1 9 13
M  V30 13 1 10 14
M  V30 14 2 11 15
M  V30 15 1 11 16
M  V30 16 1 12 17
M  V30 17 1 14 18
M  V30 18 1 14 19
M  V30 19 1 16 20
M  V30 20 1 17 21
M  V30 21 2 18 22
M  V30 22 1 18 23
M  V30 23 2 20 24
M  V30 24 1 20 25
M  V30 25 1 22 26
M  V30 26 2 23 27
M  V30 27 2 26 28
M  V30 28 1 28 29
M  V30 29 1 7 10
M  V30 30 1 13 17
M  V30 31 2 16 19
M  V30 32 1 27 28
M  V30 33 1 4 30
M  V30 34 1 6 31
M  V30 35 1 8 32
M  V30 36 1 8 33
M  V30 37 1 9 34
M  V30 38 1 9 35
M  V30 39 1 12 36
M  V30 40 1 12 37
M  V30 41 1 13 38
M  V30 42 1 13 39
M  V30 43 1 19 40
M  V30 44 1 21 41
M  V30 45 1 21 42
M  V30 46 1 21 43
M  V30 47 1 22 44
M  V30 48 1 23 45
M  V30 49 1 25 46
M  V30 50 1 26 47
M  V30 51 1 27 48
M  V30 END BOND
M  V30 END CTAB
M  END
>  <NO.>
1860

>  <Name>
sevoflurane

>  <SMILES>
CN1CCN(c2cc3c(cc2F)c(=O)c(C(=O)O)cn3-c2ccc(F)cc2)CC1

>  <logBB>


>  <Class>
-1

>  <MW>
399.14

>  <nHBAcc>
4

>  <nHBDon>
1

>  <SLogP>
2.72

>  <TopoPSA>
65.78

>  <MMFF94 Energy>
127.65

$$$$
CN1CCN(c2cc3c(nn2)Oc2ccccc2N3C)CC1
Actelion Java MolfileCreator 2.0

  0  0  0  0  0  0              0 V3000
M  V30 BEGIN CTAB
M  V30 COUNTS 41 44 0 0 0
M  V30 BEGIN ATOM
M  V30 1 O 1.2005 3.2839 1.3606 0
M  V30 2 C 0.5986 2.2318 0.7052 0
M  V30 3 C 2.2016 2.9848 2.2618 0
M  V30 4 N -0.2618 2.5908 -0.2669 0
M  V30 5 C 0.8686 0.9003 1.021 0
M  V30 6 C 2.5263 1.6621 2.6261 0
M  V30 7 C 2.8818 4.083 2.797 0
M  V30 8 N -0.9018 1.6183 -0.9921 0
M  V30 9 N 1.7825 0.6136 2.0531 0
M  V30 10 C 0.2057 -0.0615 0.2498 0
M  V30 11 C 3.5843 1.4866 3.5293 0
M  V30 12 C 3.9181 3.8812 3.7023 0
M  V30 13 C -0.6978 0.3048 -0.7486 0
M  V30 14 C 2.0211 -0.7649 2.4674 0
M  V30 15 C 4.2715 2.5844 4.0641 0
M  V30 16 N -1.3524 -0.6574 -1.5201 0
M  V30 17 C -1.9812 -1.7986 -0.8373 0
M  V30 18 C -2.1153 -0.1344 -2.669 0
M  V30 19 C -2.4022 -2.8902 -1.8494 0
M  V30 20 C -2.5328 -1.274 -3.6257 0
M  V30 21 N -3.2531 -2.368 -2.9378 0
M  V30 22 C -3.5972 -3.4294 -3.8811 0
M  V30 23 H 2.6035 5.0908 2.5008 0
M  V30 24 H 0.4223 -1.1114 0.3874 0
M  V30 25 H 3.9132 0.4984 3.833 0
M  V30 26 H 4.4523 4.7312 4.1186 0
M  V30 27 H 1.1266 -1.3896 2.3713 0
M  V30 28 H 2.8257 -1.2095 1.8722 0
M  V30 29 H 2.2836 -0.8405 3.5282 0
M  V30 30 H 5.088 2.4217 4.7637 0
M  V30 31 H -1.3053 -2.2686 -0.1156 0
M  V30 32 H -2.8635 -1.4503 -0.2846 0
M  V30 33 H -3.012 0.3895 -2.3124 0
M  V30 34 H -1.5104 0.5759 -3.2468 0
M  V30 35 H -2.9455 -3.6701 -1.3022 0
M  V30 36 H -1.4967 -3.3531 -2.2651 0
M  V30 37 H -3.1742 -0.8466 -4.406 0
M  V30 38 H -1.6337 -1.6665 -4.1201 0
M  V30 39 H -4.1536 -4.226 -3.3748 0
M  V30 40 H -4.25 -3.0428 -4.6715 0
M  V30 41 H -2.7121 -3.8729 -4.3513 0
M  V30 END ATOM
M  V30 BEGIN BOND
M  V30 1 1 1 2
M  V30 2 1 1 3
M  V30 3 2 2 4
M  V30 4 1 2 5
M  V30 5 2 3 6
M  V30 6 1 3 7
M  V30 7 1 4 8
M  V30 8 1 5 9
M  V30 9 2 5 10
M  V30 10 1 6 11
M  V30 11 2 7 12
M  V30 12 2 8 13
M  V30 13 1 9 14
M  V30 14 2 11 15
M  V30 15 1 13 16
M  V30 16 1 16 17
M  V30 17 1 16 18
M  V30 18 1 17 19
M  V30 19 1 18 20
M  V30 20 1 19 21
M  V30 21 1 21 22
M  V30 22 1 6 9
M  V30 23 1 10 13
M  V30 24 1 12 15
M  V30 25 1 20 21
M  V30 26 1 7 23
M  V30 27 1 10 24
M  V30 28 1 11 25
M  V30 29 1 12 26
M  V30 30 1 14 27
M  V30 31 1 14 28
M  V30 32 1 14 29
M  V30 33 1 15 30
M  V30 34 1 17 31
M  V30 35 1 17 32
M  V30 36 1 18 33
M  V30 37 1 18 34
M  V30 38 1 19 35
M  V30 39 1 19 36
M  V30 40 1 20 37
M  V30 41 1 20 38
M  V30 42 1 22 39
M  V30 43 1 22 40
M  V30 44 1 22 41
M  V30 END BOND
M  V30 END CTAB
M  END
>  <NO.>
1861

>  <Name>
pipofezine

>  <SMILES>
CN1CCN(c2cc3c(nn2)Oc2ccccc2N3C)CC1

>  <logBB>


>  <Class>
1

>  <MW>
297.16

>  <nHBAcc>
6

>  <nHBDon>
0

>  <SLogP>
2.1

>  <TopoPSA>
44.73

>  <MMFF94 Energy>
147.64

$$$$
CN1CCN(c2ccccc2Cc2ccccc2)CC1
Actelion Java MolfileCreator 2.0

  0  0  0  0  0  0              0 V3000
M  V30 BEGIN CTAB
M  V30 COUNTS 42 44 0 0 0
M  V30 BEGIN ATOM
M  V30 1 N -0.6333 -0.6333 -1.1085 0
M  V30 2 C 0.5194 0.1096 -1.361 0
M  V30 3 C -1.6231 -0.741 -2.1888 0
M  V30 4 C -0.4412 -1.8409 -0.2921 0
M  V30 5 C 0.8743 1.1949 -0.5314 0
M  V30 6 C 1.3605 -0.2189 -2.4381 0
M  V30 7 C -2.9482 -1.3353 -1.6533 0
M  V30 8 C -1.8042 -2.4055 0.176 0
M  V30 9 C 2.0357 1.9368 -0.8286 0
M  V30 10 C -0.0113 1.6351 0.622 0
M  V30 11 C 2.5174 0.5133 -2.708 0
M  V30 12 N -2.819 -2.597 -0.8867 0
M  V30 13 C 2.8534 1.5946 -1.904 0
M  V30 14 C 0.7123 1.8964 1.929 0
M  V30 15 C -2.4809 -3.722 -1.7549 0
M  V30 16 C 1.4483 0.88 2.556 0
M  V30 17 C 0.6343 3.1537 2.5454 0
M  V30 18 C 2.1019 1.1198 3.7657 0
M  V30 19 C 1.2881 3.3915 3.7559 0
M  V30 20 C 2.0219 2.3753 4.365 0
M  V30 21 H -1.8323 0.2513 -2.6072 0
M  V30 22 H -1.2397 -1.3705 -3.0005 0
M  V30 23 H 0.1599 -1.6136 0.5963 0
M  V30 24 H 0.1003 -2.6002 -0.8696 0
M  V30 25 H 1.1198 -1.065 -3.0758 0
M  V30 26 H -3.4162 -0.5937 -0.9918 0
M  V30 27 H -3.6506 -1.4728 -2.4847 0
M  V30 28 H -2.2279 -1.7111 0.9143 0
M  V30 29 H -1.6448 -3.347 0.7159 0
M  V30 30 H 2.3098 2.7916 -0.213 0
M  V30 31 H -0.7931 0.8984 0.8396 0
M  V30 32 H -0.5409 2.5404 0.2968 0
M  V30 33 H 3.1517 0.2382 -3.5458 0
M  V30 34 H 3.7492 2.1735 -2.111 0
M  V30 35 H -3.2628 -3.8682 -2.5085 0
M  V30 36 H -1.5262 -3.5996 -2.276 0
M  V30 37 H -2.4332 -4.6492 -1.173 0
M  V30 38 H 1.5212 -0.1029 2.0969 0
M  V30 39 H 0.0636 3.9571 2.0852 0
M  V30 40 H 2.6738 0.3264 4.2392 0
M  V30 41 H 1.2231 4.37 4.2243 0
M  V30 42 H 2.5307 2.5614 5.307 0
M  V30 END ATOM
M  V30 BEGIN BOND
M  V30 1 1 1 2
M  V30 2 1 1 3
M  V30 3 1 1 4
M  V30 4 2 2 5
M  V30 5 1 2 6
M  V30 6 1 3 7
M  V30 7 1 4 8
M  V30 8 1 5 9
M  V30 9 1 5 10
M  V30 10 2 6 11
M  V30 11 1 7 12
M  V30 12 2 9 13
M  V30 13 1 10 14
M  V30 14 1 12 15
M  V30 15 2 14 16
M  V30 16 1 14 17
M  V30 17 1 16 18
M  V30 18 2 17 19
M  V30 19 2 18 20
M  V30 20 1 8 12
M  V30 21 1 11 13
M  V30 22 1 19 20
M  V30 23 1 3 21
M  V30 24 1 3 22
M  V30 25 1 4 23
M  V30 26 1 4 24
M  V30 27 1 6 25
M  V30 28 1 7 26
M  V30 29 1 7 27
M  V30 30 1 8 28
M  V30 31 1 8 29
M  V30 32 1 9 30
M  V30 33 1 10 31
M  V30 34 1 10 32
M  V30 35 1 11 33
M  V30 36 1 13 34
M  V30 37 1 15 35
M  V30 38 1 15 36
M  V30 39 1 15 37
M  V30 40 1 16 38
M  V30 41 1 17 39
M  V30 42 1 18 40
M  V30 43 1 19 41
M  V30 44 1 20 42
M  V30 END BOND
M  V30 END CTAB
M  END
>  <NO.>
1862

>  <Name>
sifaprazine

>  <SMILES>
CN1CCN(c2ccccc2Cc2ccccc2)CC1

>  <logBB>


>  <Class>
1

>  <MW>
266.18

>  <nHBAcc>
2

>  <nHBDon>
0

>  <SLogP>
3.03

>  <TopoPSA>
6.48

>  <MMFF94 Energy>
131.53

$$$$
CN1CCN(c2ncc(-c3cc(Cl)cc(Cl)c3Cl)c(N)n2)CC1
Actelion Java MolfileCreator 2.0

  0  0  0  0  0  0              0 V3000
M  V30 BEGIN CTAB
M  V30 COUNTS 39 41 0 0 0
M  V30 BEGIN ATOM
M  V30 1 Cl 2.2142 -3.9389 -0.9016 0
M  V30 2 C 0.6705 -4.2972 -1.6144 0
M  V30 3 C 0.4366 -5.5518 -2.2044 0
M  V30 4 C -0.3505 -3.3207 -1.6053 0
M  V30 5 Cl 1.6391 -6.7952 -2.2534 0
M  V30 6 C -0.8001 -5.8425 -2.785 0
M  V30 7 C -0.1769 -1.9945 -1.001 0
M  V30 8 C -1.5883 -3.6344 -2.1996 0
M  V30 9 C -1.8048 -4.8827 -2.78 0
M  V30 10 C -0.5294 -1.6798 0.3017 0
M  V30 11 C 0.3598 -0.9394 -1.7084 0
M  V30 12 Cl -3.3286 -5.2371 -3.4933 0
M  V30 13 N -0.3425 -0.4614 0.8342 0
M  V30 14 N -1.0498 -2.6235 1.1712 0
M  V30 15 N 0.5391 0.2973 -1.2082 0
M  V30 16 C 0.1872 0.5077 0.0689 0
M  V30 17 N 0.3844 1.7602 0.6166 0
M  V30 18 C 0.6316 2.8742 -0.2985 0
M  V30 19 C -0.2946 2.069 1.8746 0
M  V30 20 C 1.1864 4.1069 0.4496 0
M  V30 21 C 0.2964 3.332 2.5397 0
M  V30 22 N 0.3699 4.4892 1.622 0
M  V30 23 C 0.9537 5.6452 2.299 0
M  V30 24 H -0.9768 -6.8141 -3.2401 0
M  V30 25 H -2.3893 -2.8953 -2.207 0
M  V30 26 H 0.6791 -1.0556 -2.7405 0
M  V30 27 H -1.6914 -3.3173 0.8215 0
M  V30 28 H -1.223 -2.2498 2.0966 0
M  V30 29 H 1.3658 2.6077 -1.0686 0
M  V30 30 H -0.3038 3.1447 -0.8048 0
M  V30 31 H -1.3643 2.2233 1.6835 0
M  V30 32 H -0.197 1.2491 2.5967 0
M  V30 33 H 1.2276 4.9441 -0.2576 0
M  V30 34 H 2.2181 3.8944 0.7618 0
M  V30 35 H -0.3305 3.5873 3.4027 0
M  V30 36 H 1.2969 3.0919 2.925 0
M  V30 37 H 0.9879 6.5073 1.6239 0
M  V30 38 H 1.9701 5.4492 2.6591 0
M  V30 39 H 0.3362 5.9399 3.1547 0
M  V30 END ATOM
M  V30 BEGIN BOND
M  V30 1 1 1 2
M  V30 2 2 2 3
M  V30 3 1 2 4
M  V30 4 1 3 5
M  V30 5 1 3 6
M  V30 6 1 4 7
M  V30 7 2 4 8
M  V30 8 2 6 9
M  V30 9 2 7 10
M  V30 10 1 7 11
M  V30 11 1 9 12
M  V30 12 1 10 13
M  V30 13 1 10 14
M  V30 14 2 11 15
M  V30 15 2 13 16
M  V30 16 1 16 17
M  V30 17 1 17 18
M  V30 18 1 17 19
M  V30 19 1 18 20
M  V30 20 1 19 21
M  V30 21 1 20 22
M  V30 22 1 22 23
M  V30 23 1 8 9
M  V30 24 1 15 16
M  V30 25 1 21 22
M  V30 26 1 6 24
M  V30 27 1 8 25
M  V30 28 1 11 26
M  V30 29 1 14 27
M  V30 30 1 14 28
M  V30 31 1 18 29
M  V30 32 1 18 30
M  V30 33 1 19 31
M  V30 34 1 19 32
M  V30 35 1 20 33
M  V30 36 1 20 34
M  V30 37 1 21 35
M  V30 38 1 21 36
M  V30 39 1 23 37
M  V30 40 1 23 38
M  V30 41 1 23 39
M  V30 END BOND
M  V30 END CTAB
M  END
>  <NO.>
1863

>  <Name>
sipatrigine

>  <SMILES>
CN1CCN(c2ncc(-c3cc(Cl)cc(Cl)c3Cl)c(N)n2)CC1

>  <logBB>


>  <Class>
1

>  <MW>
371.05

>  <nHBAcc>
5

>  <nHBDon>
1

>  <SLogP>
3.44

>  <TopoPSA>
58.28

>  <MMFF94 Energy>
0.26805

$$$$
CN1CCN2c3cc(F)ccc3C(c3cccs3)=NCC2C1
Actelion Java MolfileCreator 2.0

  0  0  0  0  0  0              0 V3000
M  V30 BEGIN CTAB
M  V30 COUNTS 40 43 0 0 0
M  V30 BEGIN ATOM
M  V30 1 S -1.797 -2.5328 2.86 0
M  V30 2 C -0.441 -1.9427 1.9852 0
M  V30 3 C -1.1855 -4.1277 2.8779 0
M  V30 4 C -0.3526 -0.526 1.63 0
M  V30 5 C 0.4477 -2.968 1.7062 0
M  V30 6 C 0.0206 -4.2254 2.2244 0
M  V30 7 N -1.4499 0.147 1.4862 0
M  V30 8 C 1.0135 0.057 1.4408 0
M  V30 9 C -1.3302 1.5521 1.0887 0
M  V30 10 C 1.3276 0.7674 0.2604 0
M  V30 11 C 1.9682 -0.1385 2.457 0
M  V30 12 C -0.8897 1.6995 -0.3815 0 CFG=1
M  V30 13 N 0.3809 0.9957 -0.724 0
M  V30 14 C 2.6465 1.2281 0.1256 0
M  V30 15 C 3.2627 0.3441 2.2963 0
M  V30 16 C -2.0214 1.2308 -1.3401 0
M  V30 17 C 0.7599 1.0937 -2.1417 0
M  V30 18 C 3.5906 1.0173 1.1293 0
M  V30 19 N -1.6635 1.4181 -2.7698 0
M  V30 20 C -0.4175 0.6728 -3.0524 0
M  V30 21 F 4.8359 1.4831 0.9676 0
M  V30 22 C -2.7482 0.9474 -3.6294 0
M  V30 23 H -1.7449 -4.917 3.3609 0
M  V30 24 H 1.363 -2.8305 1.1429 0
M  V30 25 H 0.5668 -5.1543 2.1161 0
M  V30 26 H -0.6544 2.0948 1.7627 0
M  V30 27 H -2.3099 2.0261 1.2239 0
M  V30 28 H 1.7037 -0.6641 3.3719 0
M  V30 29 H -0.7259 2.7726 -0.5552 0
M  V30 30 H 2.9577 1.7867 -0.7512 0
M  V30 31 H 4.0129 0.2011 3.0674 0
M  V30 32 H -2.2548 0.1746 -1.1489 0
M  V30 33 H -2.9261 1.8124 -1.1233 0
M  V30 34 H 1.0624 2.1225 -2.3733 0
M  V30 35 H 1.6064 0.4326 -2.3644 0
M  V30 36 H -0.587 -0.4058 -2.9313 0
M  V30 37 H -0.1191 0.8416 -4.094 0
M  V30 38 H -2.4962 1.1044 -4.6839 0
M  V30 39 H -3.6642 1.5168 -3.4366 0
M  V30 40 H -2.9664 -0.1164 -3.482 0
M  V30 END ATOM
M  V30 BEGIN BOND
M  V30 1 1 1 2
M  V30 2 1 1 3
M  V30 3 1 2 4
M  V30 4 2 2 5
M  V30 5 2 3 6
M  V30 6 2 4 7
M  V30 7 1 4 8
M  V30 8 1 7 9
M  V30 9 2 8 10
M  V30 10 1 8 11
M  V30 11 1 9 12
M  V30 12 1 10 13
M  V30 13 1 10 14
M  V30 14 2 11 15
M  V30 15 1 12 16
M  V30 16 1 13 17
M  V30 17 2 14 18
M  V30 18 1 16 19
M  V30 19 1 17 20
M  V30 20 1 18 21
M  V30 21 1 19 22
M  V30 22 1 5 6
M  V30 23 1 12 13
M  V30 24 1 15 18
M  V30 25 1 19 20
M  V30 26 1 3 23
M  V30 27 1 5 24
M  V30 28 1 6 25
M  V30 29 1 9 26
M  V30 30 1 9 27
M  V30 31 1 11 28
M  V30 32 1 12 29
M  V30 33 1 14 30
M  V30 34 1 15 31
M  V30 35 1 16 32
M  V30 36 1 16 33
M  V30 37 1 17 34
M  V30 38 1 17 35
M  V30 39 1 20 36
M  V30 40 1 20 37
M  V30 41 1 22 38
M  V30 42 1 22 39
M  V30 43 1 22 40
M  V30 END BOND
M  V30 BEGIN COLLECTION
M  V30 MDLV30/STERAC1 ATOMS=(1 12)
M  V30 END COLLECTION
M  V30 END CTAB
M  END
>  <NO.>
1864

>  <Name>
timelotem

>  <SMILES>
CN1CCN2c3cc(F)ccc3C(c3cccs3)=NCC2C1

>  <logBB>


>  <Class>
1

>  <MW>
315.12

>  <nHBAcc>
4

>  <nHBDon>
0

>  <SLogP>
2.86

>  <TopoPSA>
18.84

>  <MMFF94 Energy>
183.44

$$$$
CN1CCN2c3ccccc3Cn3cccc3C2C1
Actelion Java MolfileCreator 2.0

  0  0  0  0  0  0              0 V3000
M  V30 BEGIN CTAB
M  V30 COUNTS 38 41 0 0 0
M  V30 BEGIN ATOM
M  V30 1 N 0.4799 0.6399 -0.3999 0
M  V30 2 C -0.6877 1.3259 -0.7287 0
M  V30 3 C 0.4725 -0.8529 -0.3714 0 CFG=2
M  V30 4 C 1.7666 1.2312 -0.8113 0
M  V30 5 C -1.8102 1.2498 0.1193 0
M  V30 6 C -0.7931 2.1285 -1.8758 0
M  V30 7 C -0.7395 -1.5802 0.178 0
M  V30 8 C 1.7335 -1.363 0.4238 0
M  V30 9 C 2.9312 0.6837 0.038 0
M  V30 10 C -2.9918 1.9477 -0.1893 0
M  V30 11 C -1.7403 0.4019 1.3601 0
M  V30 12 C -1.9677 2.8242 -2.1785 0
M  V30 13 N -1.6925 -1.0032 0.9876 0
M  V30 14 C -1.1157 -2.903 -0.002 0
M  V30 15 N 3.024 -0.7867 -0.0282 0
M  V30 16 C -3.0677 2.7337 -1.3349 0
M  V30 17 C -2.628 -1.9408 1.3479 0
M  V30 18 C -2.2959 -3.1296 0.7413 0
M  V30 19 C 4.122 -1.274 0.8034 0
M  V30 20 H 0.5858 -1.184 -1.4146 0
M  V30 21 H 1.7471 2.3209 -0.6816 0
M  V30 22 H 1.9548 1.0183 -1.8714 0
M  V30 23 H 0.0368 2.2082 -2.5716 0
M  V30 24 H 1.7912 -2.4552 0.3263 0
M  V30 25 H 1.5858 -1.1467 1.4924 0
M  V30 26 H 2.8026 1.0139 1.0779 0
M  V30 27 H 3.863 1.1265 -0.3338 0
M  V30 28 H -3.8598 1.8756 0.4617 0
M  V30 29 H -2.6147 0.5585 2.002 0
M  V30 30 H -0.8505 0.6254 1.9598 0
M  V30 31 H -2.0204 3.4296 -3.0794 0
M  V30 32 H -0.5836 -3.6309 -0.6014 0
M  V30 33 H -3.9835 3.2684 -1.5715 0
M  V30 34 H -3.4615 -1.6849 1.9887 0
M  V30 35 H -2.8481 -4.0568 0.8206 0
M  V30 36 H 3.9987 -1.0039 1.8585 0
M  V30 37 H 5.0769 -0.8666 0.4535 0
M  V30 38 H 4.2005 -2.3645 0.734 0
M  V30 END ATOM
M  V30 BEGIN BOND
M  V30 1 1 1 2
M  V30 2 1 1 3
M  V30 3 1 1 4
M  V30 4 2 2 5
M  V30 5 1 2 6
M  V30 6 1 3 7
M  V30 7 1 3 8
M  V30 8 1 4 9
M  V30 9 1 5 10
M  V30 10 1 5 11
M  V30 11 2 6 12
M  V30 12 1 7 13
M  V30 13 2 7 14
M  V30 14 1 8 15
M  V30 15 2 10 16
M  V30 16 1 13 17
M  V30 17 1 14 18
M  V30 18 1 15 19
M  V30 19 1 9 15
M  V30 20 1 11 13
M  V30 21 1 12 16
M  V30 22 2 17 18
M  V30 23 1 3 20
M  V30 24 1 4 21
M  V30 25 1 4 22
M  V30 26 1 6 23
M  V30 27 1 8 24
M  V30 28 1 8 25
M  V30 29 1 9 26
M  V30 30 1 9 27
M  V30 31 1 10 28
M  V30 32 1 11 29
M  V30 33 1 11 30
M  V30 34 1 12 31
M  V30 35 1 14 32
M  V30 36 1 16 33
M  V30 37 1 17 34
M  V30 38 1 18 35
M  V30 39 1 19 36
M  V30 40 1 19 37
M  V30 41 1 19 38
M  V30 END BOND
M  V30 BEGIN COLLECTION
M  V30 MDLV30/STERAC1 ATOMS=(1 3)
M  V30 END COLLECTION
M  V30 END CTAB
M  END
>  <NO.>
1865

>  <Name>
aptazapine maleate

>  <SMILES>
CN1CCN2c3ccccc3Cn3cccc3C2C1

>  <logBB>


>  <Class>
1

>  <MW>
253.16

>  <nHBAcc>
2

>  <nHBDon>
0

>  <SLogP>
2.34

>  <TopoPSA>
11.41

>  <MMFF94 Energy>
129.93

$$$$
CN1CCN=C(c2ccccc2)c2cc(Cl)ccc21
Actelion Java MolfileCreator 2.0

  0  0  0  0  0  0              0 V3000
M  V30 BEGIN CTAB
M  V30 COUNTS 34 36 0 0 0
M  V30 BEGIN ATOM
M  V30 1 Cl 0.5649 -1.6149 4.3647 0
M  V30 2 C 0.8805 -0.6734 2.9611 0
M  V30 3 C -0.0917 -0.5451 1.979 0
M  V30 4 C 2.1095 -0.0471 2.8097 0
M  V30 5 C 0.1722 0.2178 0.8266 0
M  V30 6 C 2.3598 0.727 1.6709 0
M  V30 7 C -0.8961 0.2607 -0.2197 0
M  V30 8 C 1.3983 0.8995 0.6565 0
M  V30 9 N -1.3505 1.3513 -0.7496 0
M  V30 10 C -1.4959 -1.033 -0.6788 0
M  V30 11 N 1.6702 1.6948 -0.4457 0
M  V30 12 C -0.7114 2.6035 -0.3427 0
M  V30 13 C -2.8472 -1.0656 -1.0441 0
M  V30 14 C -0.7239 -2.1978 -0.775 0
M  V30 15 C 0.7007 2.6981 -0.928 0
M  V30 16 C 3.0324 1.832 -0.9443 0
M  V30 17 C -3.4287 -2.2595 -1.4742 0
M  V30 18 C -1.3096 -3.3902 -1.2058 0
M  V30 19 C -2.661 -3.4211 -1.5507 0
M  V30 20 H -1.0533 -1.0363 2.1052 0
M  V30 21 H 2.8765 -0.1423 3.5738 0
M  V30 22 H 3.3235 1.2258 1.6045 0
M  V30 23 H -1.3107 3.4277 -0.7469 0
M  V30 24 H -0.7218 2.7335 0.7466 0
M  V30 25 H -3.4485 -0.1606 -0.9934 0
M  V30 26 H 0.336 -2.1874 -0.5365 0
M  V30 27 H 1.0962 3.6951 -0.6966 0
M  V30 28 H 0.6409 2.622 -2.021 0
M  V30 29 H 3.553 0.8679 -0.9534 0
M  V30 30 H 3.0306 2.2026 -1.9755 0
M  V30 31 H 3.601 2.5435 -0.3361 0
M  V30 32 H -4.4788 -2.28 -1.7541 0
M  V30 33 H -0.7096 -4.2935 -1.2809 0
M  V30 34 H -3.1143 -4.3494 -1.8895 0
M  V30 END ATOM
M  V30 BEGIN BOND
M  V30 1 1 1 2
M  V30 2 2 2 3
M  V30 3 1 2 4
M  V30 4 1 3 5
M  V30 5 2 4 6
M  V30 6 1 5 7
M  V30 7 2 5 8
M  V30 8 2 7 9
M  V30 9 1 7 10
M  V30 10 1 8 11
M  V30 11 1 9 12
M  V30 12 2 10 13
M  V30 13 1 10 14
M  V30 14 1 11 15
M  V30 15 1 11 16
M  V30 16 1 13 17
M  V30 17 2 14 18
M  V30 18 2 17 19
M  V30 19 1 6 8
M  V30 20 1 12 15
M  V30 21 1 18 19
M  V30 22 1 3 20
M  V30 23 1 4 21
M  V30 24 1 6 22
M  V30 25 1 12 23
M  V30 26 1 12 24
M  V30 27 1 13 25
M  V30 28 1 14 26
M  V30 29 1 15 27
M  V30 30 1 15 28
M  V30 31 1 16 29
M  V30 32 1 16 30
M  V30 33 1 16 31
M  V30 34 1 17 32
M  V30 35 1 18 33
M  V30 36 1 19 34
M  V30 END BOND
M  V30 END CTAB
M  END
>  <NO.>
1866

>  <Name>
medazepam

>  <SMILES>
CN1CCN=C(c2ccccc2)c2cc(Cl)ccc21

>  <logBB>


>  <Class>
1

>  <MW>
270.09

>  <nHBAcc>
2

>  <nHBDon>
0

>  <SLogP>
3.63

>  <TopoPSA>
15.6

>  <MMFF94 Energy>
113.45

$$$$
CN1CCOC(c2ccccc2)c2ccccc2C1
Actelion Java MolfileCreator 2.0

  0  0  0  0  0  0              0 V3000
M  V30 BEGIN CTAB
M  V30 COUNTS 38 40 0 0 0
M  V30 BEGIN ATOM
M  V30 1 O 1.1148 -0.7165 1.0351 0
M  V30 2 C 0.1322 0.3084 0.8986 0 CFG=2
M  V30 3 C 0.6442 -1.9244 1.6293 0
M  V30 4 C -0.5968 0.3307 -0.4542 0
M  V30 5 C 0.878 1.6067 1.1941 0
M  V30 6 C -0.4708 -2.6287 0.8365 0
M  V30 7 C -0.4704 -0.6535 -1.4649 0
M  V30 8 C -1.5022 1.397 -0.6744 0
M  V30 9 C 0.5348 2.3899 2.3083 0
M  V30 10 C 1.9266 2.0391 0.3648 0
M  V30 11 N -0.1113 -2.9933 -0.5427 0
M  V30 12 C -1.2238 -0.517 -2.6524 0
M  V30 13 C 0.4201 -1.8791 -1.3489 0
M  V30 14 C -2.2353 1.5109 -1.8552 0
M  V30 15 C 1.2143 3.5801 2.5763 0
M  V30 16 C 2.604 3.2289 0.6347 0
M  V30 17 C -1.2279 -3.6675 -1.2025 0
M  V30 18 C -2.0935 0.5535 -2.8473 0
M  V30 19 C 2.2463 3.9996 1.7389 0
M  V30 20 H -0.6367 0.1718 1.6722 0
M  V30 21 H 1.507 -2.5946 1.7137 0
M  V30 22 H 0.3057 -1.7134 2.6506 0
M  V30 23 H -1.3785 -2.0134 0.8475 0
M  V30 24 H -0.7199 -3.5465 1.3845 0
M  V30 25 H -1.6366 2.1652 0.0861 0
M  V30 26 H -0.2638 2.0775 2.9767 0
M  V30 27 H 2.2188 1.4394 -0.495 0
M  V30 28 H -1.1364 -1.2635 -3.4401 0
M  V30 29 H 1.4232 -1.591 -1.0171 0
M  V30 30 H 0.6282 -2.2616 -2.3589 0
M  V30 31 H -2.9131 2.3484 -1.9961 0
M  V30 32 H 0.9408 4.179 3.441 0
M  V30 33 H 3.4128 3.5504 -0.0157 0
M  V30 34 H -0.9476 -3.9914 -2.2109 0
M  V30 35 H -2.1194 -3.0352 -1.2759 0
M  V30 36 H -1.5028 -4.575 -0.6529 0
M  V30 37 H -2.66 0.6347 -3.7708 0
M  V30 38 H 2.7761 4.9247 1.9496 0
M  V30 END ATOM
M  V30 BEGIN BOND
M  V30 1 1 1 2
M  V30 2 1 1 3
M  V30 3 1 2 4
M  V30 4 1 2 5
M  V30 5 1 3 6
M  V30 6 2 4 7
M  V30 7 1 4 8
M  V30 8 2 5 9
M  V30 9 1 5 10
M  V30 10 1 6 11
M  V30 11 1 7 12
M  V30 12 1 7 13
M  V30 13 2 8 14
M  V30 14 1 9 15
M  V30 15 2 10 16
M  V30 16 1 11 17
M  V30 17 2 12 18
M  V30 18 2 15 19
M  V30 19 1 11 13
M  V30 20 1 14 18
M  V30 21 1 16 19
M  V30 22 1 2 20
M  V30 23 1 3 21
M  V30 24 1 3 22
M  V30 25 1 6 23
M  V30 26 1 6 24
M  V30 27 1 8 25
M  V30 28 1 9 26
M  V30 29 1 10 27
M  V30 30 1 12 28
M  V30 31 1 13 29
M  V30 32 1 13 30
M  V30 33 1 14 31
M  V30 34 1 15 32
M  V30 35 1 16 33
M  V30 36 1 17 34
M  V30 37 1 17 35
M  V30 38 1 17 36
M  V30 39 1 18 37
M  V30 40 1 19 38
M  V30 END BOND
M  V30 BEGIN COLLECTION
M  V30 MDLV30/STERAC1 ATOMS=(1 2)
M  V30 END COLLECTION
M  V30 END CTAB
M  END
>  <NO.>
1867

>  <Name>
nefopam

>  <SMILES>
CN1CCOC(c2ccccc2)c2ccccc2C1

>  <logBB>


>  <Class>
1

>  <MW>
253.15

>  <nHBAcc>
2

>  <nHBDon>
0

>  <SLogP>
3.24

>  <TopoPSA>
12.47

>  <MMFF94 Energy>
89.163

$$$$
CN1CC[C@@]2(C)c3cc(OC(=O)N4CCc5ccccc5C4)ccc3N(C)[C@@H]12
Actelion Java MolfileCreator 2.0

  0  0  0  0  0  0              0 V3000
M  V30 BEGIN CTAB
M  V30 COUNTS 55 59 0 0 0
M  V30 BEGIN ATOM
M  V30 1 O 0.6399 2.2413 -1.0401 0
M  V30 2 C 0.7819 1.2567 -1.7584 0
M  V30 3 O 0.0607 0.0722 -1.6247 0
M  V30 4 N 1.6791 1.2063 -2.8135 0
M  V30 5 C -0.8448 0.0368 -0.5581 0
M  V30 6 C 1.7821 0.0468 -3.6913 0
M  V30 7 C 2.4213 2.4 -3.1918 0
M  V30 8 C -0.3861 -0.0403 0.7545 0
M  V30 9 C -2.2094 -0.0063 -0.86 0
M  V30 10 C 3.0763 -0.0413 -4.4687 0
M  V30 11 C 3.901 2.0863 -3.3895 0
M  V30 12 C -1.336 -0.1276 1.7644 0
M  V30 13 C -3.1462 -0.0971 0.1739 0
M  V30 14 C 4.0855 0.9307 -4.3396 0
M  V30 15 C 3.2759 -1.1216 -5.3421 0
M  V30 16 C -2.7056 -0.1561 1.4889 0
M  V30 17 C -1.1148 -0.1763 3.2526 0 CFG=1
M  V30 18 C 5.2805 0.7952 -5.0585 0
M  V30 19 C 4.4629 -1.2402 -6.0653 0
M  V30 20 N -3.4756 -0.2567 2.6373 0
M  V30 21 C -2.5912 -0.2282 3.8113 0 CFG=1
M  V30 22 C -0.4767 -1.4966 3.7079 0
M  V30 23 C -0.3377 1.0395 3.7592 0
M  V30 24 C 5.4649 -0.284 -5.9213 0
M  V30 25 C -4.8261 0.2501 2.6902 0
M  V30 26 N -2.5291 -1.3432 4.7739 0
M  V30 27 C -1.6557 -2.341 4.1596 0
M  V30 28 C -3.8285 -1.8929 5.1144 0
M  V30 29 H 0.9437 0.1096 -4.3956 0
M  V30 30 H 1.6643 -0.8668 -3.098 0
M  V30 31 H 2.3104 3.189 -2.4408 0
M  V30 32 H 1.9763 2.7741 -4.1226 0
M  V30 33 H 0.674 -0.0196 0.9788 0
M  V30 34 H -2.5426 0.0305 -1.8924 0
M  V30 35 H 4.4077 2.9796 -3.7722 0
M  V30 36 H 4.3597 1.8191 -2.4297 0
M  V30 37 H -4.2036 -0.1337 -0.0629 0
M  V30 38 H 2.5062 -1.8815 -5.4597 0
M  V30 39 H 6.0739 1.5313 -4.95 0
M  V30 40 H 4.6082 -2.082 -6.7372 0
M  V30 41 H -2.8039 0.6897 4.3763 0
M  V30 42 H 0.1928 -1.3301 4.5619 0
M  V30 43 H 0.1036 -2.0008 2.9282 0
M  V30 44 H -0.2855 1.0472 4.8536 0
M  V30 45 H 0.6887 1.0437 3.3759 0
M  V30 46 H -0.8114 1.976 3.4426 0
M  V30 47 H 6.3925 -0.3806 -6.4794 0
M  V30 48 H -4.8473 1.3254 2.4818 0
M  V30 49 H -5.4685 -0.2621 1.9666 0
M  V30 50 H -5.2693 0.0969 3.6785 0
M  V30 51 H -1.3406 -3.107 4.8754 0
M  V30 52 H -2.1289 -2.8368 3.3025 0
M  V30 53 H -3.7175 -2.6926 5.8554 0
M  V30 54 H -4.3569 -2.3102 4.2501 0
M  V30 55 H -4.4608 -1.1274 5.5764 0
M  V30 END ATOM
M  V30 BEGIN BOND
M  V30 1 2 1 2
M  V30 2 1 2 3
M  V30 3 1 2 4
M  V30 4 1 3 5
M  V30 5 1 4 6
M  V30 6 1 4 7
M  V30 7 2 5 8
M  V30 8 1 5 9
M  V30 9 1 6 10
M  V30 10 1 7 11
M  V30 11 1 8 12
M  V30 12 2 9 13
M  V30 13 2 10 14
M  V30 14 1 10 15
M  V30 15 2 12 16
M  V30 16 1 12 17
M  V30 17 1 14 18
M  V30 18 2 15 19
M  V30 19 1 16 20
M  V30 20 1 17 21
M  V30 21 1 17 22
M  V30 22 1 17 23
M  V30 23 2 18 24
M  V30 24 1 20 25
M  V30 25 1 21 26
M  V30 26 1 22 27
M  V30 27 1 26 28
M  V30 28 1 11 14
M  V30 29 1 13 16
M  V30 30 1 19 24
M  V30 31 1 20 21
M  V30 32 1 26 27
M  V30 33 1 6 29
M  V30 34 1 6 30
M  V30 35 1 7 31
M  V30 36 1 7 32
M  V30 37 1 8 33
M  V30 38 1 9 34
M  V30 39 1 11 35
M  V30 40 1 11 36
M  V30 41 1 13 37
M  V30 42 1 15 38
M  V30 43 1 18 39
M  V30 44 1 19 40
M  V30 45 1 21 41
M  V30 46 1 22 42
M  V30 47 1 22 43
M  V30 48 1 23 44
M  V30 49 1 23 45
M  V30 50 1 23 46
M  V30 51 1 24 47
M  V30 52 1 25 48
M  V30 53 1 25 49
M  V30 54 1 25 50
M  V30 55 1 27 51
M  V30 56 1 27 52
M  V30 57 1 28 53
M  V30 58 1 28 54
M  V30 59 1 28 55
M  V30 END BOND
M  V30 BEGIN COLLECTION
M  V30 MDLV30/STEABS ATOMS=(2 17 21)
M  V30 END COLLECTION
M  V30 END CTAB
M  END
>  <NO.>
1869

>  <Name>
quilostigmine

>  <SMILES>
CN1CC[C@@]2(C)c3cc(OC(=O)N4CCc5ccccc5C4)ccc3N(C)[C@@H]12

>  <logBB>


>  <Class>
1

>  <MW>
377.21

>  <nHBAcc>
4

>  <nHBDon>
0

>  <SLogP>
3.61

>  <TopoPSA>
36.02

>  <MMFF94 Energy>
16.704

$$$$
CN1CC[C@]23NC(=O)CC(c4cc(Cl)ccc4O2)C3C1
Actelion Java MolfileCreator 2.0

  0  0  0  0  0  0              0 V3000
M  V30 BEGIN CTAB
M  V30 COUNTS 37 40 0 0 0
M  V30 BEGIN ATOM
M  V30 1 Cl -0.1628 -0.8145 -6.0394 0
M  V30 2 C -0.0326 -1.0906 -4.346 0
M  V30 3 C -0.1943 -0.0267 -3.4578 0
M  V30 4 C 0.2338 -2.3739 -3.873 0
M  V30 5 C -0.0861 -0.245 -2.0771 0
M  V30 6 C 0.3378 -2.5969 -2.4992 0
M  V30 7 C 0.1742 -1.5387 -1.6056 0
M  V30 8 C -0.2695 0.8912 -1.093 0
M  V30 9 O 0.2958 -1.8449 -0.2758 0
M  V30 10 C 0.5673 0.5619 0.1461 0
M  V30 11 C -1.7541 1.0516 -0.7524 0
M  V30 12 C 0.041 -0.78 0.6605 0 CFG=1
M  V30 13 C 0.5375 1.6431 1.2315 0
M  V30 14 C -2.2927 -0.033 0.1582 0
M  V30 15 N -1.3972 -0.7607 0.8816 0
M  V30 16 C 0.7709 -1.1584 1.9551 0
M  V30 17 N 1.3156 1.2052 2.3983 0
M  V30 18 O -3.4986 -0.2094 0.3137 0
M  V30 19 C 0.7535 -0.0234 2.9751 0
M  V30 20 C 1.3666 2.2651 3.408 0
M  V30 21 H -0.4043 0.9688 -3.8411 0
M  V30 22 H 0.3593 -3.2023 -4.5646 0
M  V30 23 H 0.5432 -3.5966 -2.1256 0
M  V30 24 H 0.1041 1.8186 -1.5453 0
M  V30 25 H 1.6155 0.4363 -0.1692 0
M  V30 26 H -1.9192 2.0081 -0.243 0
M  V30 27 H -2.3647 1.0621 -1.6634 0
M  V30 28 H -0.487 1.89 1.534 0
M  V30 29 H 0.9783 2.5584 0.8166 0
M  V30 30 H -1.8114 -1.5039 1.4286 0
M  V30 31 H 0.3291 -2.061 2.3967 0
M  V30 32 H 1.8117 -1.4242 1.723 0
M  V30 33 H -0.2691 0.1429 3.338 0
M  V30 34 H 1.3545 -0.3348 3.8384 0
M  V30 35 H 1.9871 1.9576 4.257 0
M  V30 36 H 0.371 2.5269 3.7843 0
M  V30 37 H 1.8278 3.1685 2.9936 0
M  V30 END ATOM
M  V30 BEGIN BOND
M  V30 1 1 1 2
M  V30 2 2 2 3
M  V30 3 1 2 4
M  V30 4 1 3 5
M  V30 5 2 4 6
M  V30 6 2 5 7
M  V30 7 1 5 8
M  V30 8 1 7 9
M  V30 9 1 8 10
M  V30 10 1 8 11
M  V30 11 1 9 12
M  V30 12 1 10 13
M  V30 13 1 11 14
M  V30 14 1 12 15
M  V30 15 1 12 16
M  V30 16 1 13 17
M  V30 17 2 14 18
M  V30 18 1 16 19
M  V30 19 1 17 20
M  V30 20 1 6 7
M  V30 21 1 10 12
M  V30 22 1 14 15
M  V30 23 1 17 19
M  V30 24 1 3 21
M  V30 25 1 4 22
M  V30 26 1 6 23
M  V30 27 1 8 24
M  V30 28 1 10 25
M  V30 29 1 11 26
M  V30 30 1 11 27
M  V30 31 1 13 28
M  V30 32 1 13 29
M  V30 33 1 15 30
M  V30 34 1 16 31
M  V30 35 1 16 32
M  V30 36 1 19 33
M  V30 37 1 19 34
M  V30 38 1 20 35
M  V30 39 1 20 36
M  V30 40 1 20 37
M  V30 END BOND
M  V30 BEGIN COLLECTION
M  V30 MDLV30/STEABS ATOMS=(1 12)
M  V30 END COLLECTION
M  V30 END CTAB
M  END
>  <NO.>
1871

>  <Name>
lortalamine

>  <SMILES>
CN1CC[C@]23NC(=O)CC(c4cc(Cl)ccc4O2)C3C1

>  <logBB>


>  <Class>
1

>  <MW>
292.1

>  <nHBAcc>
3

>  <nHBDon>
1

>  <SLogP>
1.98

>  <TopoPSA>
41.57

>  <MMFF94 Energy>
-29.175

$$$$
CN1CC[C@]23c4c5ccc(O)c4O[C@@]2(C)C(=O)CC[C@H]3[C@H]1C5
Actelion Java MolfileCreator 2.0

  0  0  0  0  0  0              0 V3000
M  V30 BEGIN CTAB
M  V30 COUNTS 43 47 0 0 0
M  V30 BEGIN ATOM
M  V30 1 O 1.1366 2.9248 2.2743 0
M  V30 2 C 0.3842 2.316 1.5103 0
M  V30 3 C -0.1373 0.8851 1.8029 0 CFG=2
M  V30 4 C -0.1635 3.014 0.2852 0
M  V30 5 O 0.8895 0.1556 2.5523 0
M  V30 6 C -0.3997 0.0682 0.509 0 CFG=2
M  V30 7 C -1.3554 1.035 2.7156 0
M  V30 8 C -0.0096 2.1365 -0.9457 0
M  V30 9 C 1.6415 -0.4444 1.5708 0
M  V30 10 C 0.9865 -0.4611 0.3561 0
M  V30 11 C -0.792 0.8303 -0.7633 0 CFG=1
M  V30 12 C -1.3797 -1.1196 0.6829 0
M  V30 13 C 2.9166 -0.9511 1.6766 0
M  V30 14 C 1.5828 -0.8736 -0.8226 0
M  V30 15 C -0.6346 -0.1571 -1.9587 0 CFG=1
M  V30 16 C -1.4493 -2.0217 -0.5595 0
M  V30 17 O 3.5488 -0.9604 2.8806 0
M  V30 18 C 3.5401 -1.4295 0.5177 0
M  V30 19 C 2.8823 -1.3743 -0.7308 0
M  V30 20 C 0.8397 -0.68 -2.1208 0
M  V30 21 N -1.5729 -1.3018 -1.8349 0
M  V30 22 C -2.9598 -0.9369 -2.1185 0
M  V30 23 H 0.3878 3.9492 0.1379 0
M  V30 24 H -1.2126 3.2688 0.4687 0
M  V30 25 H -2.2007 1.4887 2.188 0
M  V30 26 H -1.1193 1.6718 3.5768 0
M  V30 27 H -1.6685 0.0721 3.1324 0
M  V30 28 H 1.054 1.9506 -1.1299 0
M  V30 29 H -0.3917 2.6714 -1.8233 0
M  V30 30 H -1.8458 1.129 -0.6782 0
M  V30 31 H -1.1019 -1.7402 1.5447 0
M  V30 32 H -2.3866 -0.7328 0.886 0
M  V30 33 H -0.8738 0.3664 -2.8941 0
M  V30 34 H -0.5532 -2.6523 -0.6011 0
M  V30 35 H -2.2737 -2.7368 -0.4409 0
M  V30 36 H 4.4582 -1.2723 2.7568 0
M  V30 37 H 4.5492 -1.8298 0.5579 0
M  V30 38 H 3.4018 -1.7166 -1.623 0
M  V30 39 H 1.3959 0.0613 -2.7093 0
M  V30 40 H 0.8493 -1.6131 -2.6978 0
M  V30 41 H -3.3979 -0.2828 -1.3583 0
M  V30 42 H -3.5815 -1.8369 -2.1849 0
M  V30 43 H -3.039 -0.4375 -3.0903 0
M  V30 END ATOM
M  V30 BEGIN BOND
M  V30 1 2 1 2
M  V30 2 1 2 3
M  V30 3 1 2 4
M  V30 4 1 3 5
M  V30 5 1 3 6
M  V30 6 1 3 7
M  V30 7 1 4 8
M  V30 8 1 5 9
M  V30 9 1 6 10
M  V30 10 1 6 11
M  V30 11 1 6 12
M  V30 12 1 9 13
M  V30 13 1 10 14
M  V30 14 1 11 15
M  V30 15 1 12 16
M  V30 16 1 13 17
M  V30 17 2 13 18
M  V30 18 2 14 19
M  V30 19 1 14 20
M  V30 20 1 15 21
M  V30 21 1 21 22
M  V30 22 1 8 11
M  V30 23 2 9 10
M  V30 24 1 15 20
M  V30 25 1 16 21
M  V30 26 1 18 19
M  V30 27 1 4 23
M  V30 28 1 4 24
M  V30 29 1 7 25
M  V30 30 1 7 26
M  V30 31 1 7 27
M  V30 32 1 8 28
M  V30 33 1 8 29
M  V30 34 1 11 30
M  V30 35 1 12 31
M  V30 36 1 12 32
M  V30 37 1 15 33
M  V30 38 1 16 34
M  V30 39 1 16 35
M  V30 40 1 17 36
M  V30 41 1 18 37
M  V30 42 1 19 38
M  V30 43 1 20 39
M  V30 44 1 20 40
M  V30 45 1 22 41
M  V30 46 1 22 42
M  V30 47 1 22 43
M  V30 END BOND
M  V30 BEGIN COLLECTION
M  V30 MDLV30/STEABS ATOMS=(4 3 6 11 15)
M  V30 END COLLECTION
M  V30 END CTAB
M  END
>  <NO.>
1872

>  <Name>
metopon

>  <SMILES>
CN1CC[C@]23c4c5ccc(O)c4O[C@@]2(C)C(=O)CC[C@H]3[C@H]1C5

>  <logBB>


>  <Class>
1

>  <MW>
299.15

>  <nHBAcc>
4

>  <nHBDon>
1

>  <SLogP>
2.02

>  <TopoPSA>
49.77

>  <MMFF94 Energy>
91.756

$$$$
CN1CC[C@]23c4c5ccc(O)c4O[C@H]2C(=O)CC[C@H]3[C@H]1C5
Actelion Java MolfileCreator 2.0

  0  0  0  0  0  0              0 V3000
M  V30 BEGIN CTAB
M  V30 COUNTS 40 44 0 0 0
M  V30 BEGIN ATOM
M  V30 1 O -1.3837 1.3837 3.5028 0
M  V30 2 C -0.5599 1.1628 2.6121 0
M  V30 3 C -0.7714 1.64 1.1643 0 CFG=2
M  V30 4 C 0.762 0.5074 2.9465 0
M  V30 5 O -2.2009 1.5864 0.8484 0
M  V30 6 C -0.0371 0.7894 0.114 0 CFG=2
M  V30 7 C 1.1129 -0.5727 1.932 0
M  V30 8 C -2.3402 0.3493 0.2677 0
M  V30 9 C -1.1332 -0.1878 -0.1205 0
M  V30 10 C 1.2316 0.0458 0.5346 0 CFG=1
M  V30 11 C 0.2587 1.5699 -1.1847 0
M  V30 12 C -3.502 -0.3646 0.1006 0
M  V30 13 C -0.9967 -1.4778 -0.5992 0
M  V30 14 C 1.5491 -0.9784 -0.5949 0 CFG=1
M  V30 15 C 0.8065 0.66 -2.2969 0
M  V30 16 O -4.7066 0.1412 0.4755 0
M  V30 17 C -3.423 -1.6508 -0.4353 0
M  V30 18 C -2.1714 -2.2148 -0.7693 0
M  V30 19 C 0.3925 -2.0243 -0.8134 0
M  V30 20 N 1.8568 -0.2769 -1.8694 0
M  V30 21 C 3.1761 0.3528 -1.8709 0
M  V30 22 H -0.4487 2.6873 1.1258 0
M  V30 23 H 1.5319 1.2858 2.9819 0
M  V30 24 H 0.6885 0.0596 3.9436 0
M  V30 25 H 2.0671 -1.0358 2.2097 0
M  V30 26 H 0.3569 -1.3649 1.9633 0
M  V30 27 H 2.055 0.7696 0.6051 0
M  V30 28 H 0.9926 2.3578 -0.97 0
M  V30 29 H -0.6399 2.0776 -1.5584 0
M  V30 30 H 2.4358 -1.5629 -0.3152 0
M  V30 31 H 1.1601 1.2807 -3.1303 0
M  V30 32 H -0.0187 0.0793 -2.7266 0
M  V30 33 H -4.5163 1.0023 0.895 0
M  V30 34 H -4.3312 -2.2335 -0.566 0
M  V30 35 H -2.1317 -3.2347 -1.1447 0
M  V30 36 H 0.5381 -2.8388 -0.0916 0
M  V30 37 H 0.4677 -2.469 -1.8134 0
M  V30 38 H 3.9515 -0.3684 -1.5905 0
M  V30 39 H 3.4291 0.6979 -2.8798 0
M  V30 40 H 3.2437 1.2118 -1.1963 0
M  V30 END ATOM
M  V30 BEGIN BOND
M  V30 1 2 1 2
M  V30 2 1 2 3
M  V30 3 1 2 4
M  V30 4 1 3 5
M  V30 5 1 3 6
M  V30 6 1 4 7
M  V30 7 1 5 8
M  V30 8 1 6 9
M  V30 9 1 6 10
M  V30 10 1 6 11
M  V30 11 1 8 12
M  V30 12 1 9 13
M  V30 13 1 10 14
M  V30 14 1 11 15
M  V30 15 1 12 16
M  V30 16 2 12 17
M  V30 17 2 13 18
M  V30 18 1 13 19
M  V30 19 1 14 20
M  V30 20 1 20 21
M  V30 21 1 7 10
M  V30 22 2 8 9
M  V30 23 1 14 19
M  V30 24 1 15 20
M  V30 25 1 17 18
M  V30 26 1 3 22
M  V30 27 1 4 23
M  V30 28 1 4 24
M  V30 29 1 7 25
M  V30 30 1 7 26
M  V30 31 1 10 27
M  V30 32 1 11 28
M  V30 33 1 11 29
M  V30 34 1 14 30
M  V30 35 1 15 31
M  V30 36 1 15 32
M  V30 37 1 16 33
M  V30 38 1 17 34
M  V30 39 1 18 35
M  V30 40 1 19 36
M  V30 41 1 19 37
M  V30 42 1 21 38
M  V30 43 1 21 39
M  V30 44 1 21 40
M  V30 END BOND
M  V30 BEGIN COLLECTION
M  V30 MDLV30/STEABS ATOMS=(4 3 6 10 14)
M  V30 END COLLECTION
M  V30 END CTAB
M  END
>  <NO.>
1873

>  <Name>
hydromorphone

>  <SMILES>
CN1CC[C@]23c4c5ccc(O)c4O[C@H]2C(=O)CC[C@H]3[C@H]1C5

>  <logBB>


>  <Class>
1

>  <MW>
285.14

>  <nHBAcc>
4

>  <nHBDon>
1

>  <SLogP>
1.63

>  <TopoPSA>
49.77

>  <MMFF94 Energy>
77.583

$$$$
CN1CC[C@]23c4c5ccc(O)c4O[C@H]2[C@@H](O)CC[C@@]3(O)[C@H]1C5
Actelion Java MolfileCreator 2.0

  0  0  0  0  0  0              0 V3000
M  V30 BEGIN CTAB
M  V30 COUNTS 43 47 0 0 0
M  V30 BEGIN ATOM
M  V30 1 O -2.0287 1.7851 -0.8111 0
M  V30 2 C -0.8276 1.5596 -1.4529 0
M  V30 3 C -2.0881 0.6994 0.1868 0 CFG=2
M  V30 4 C -0.4281 2.0325 -2.6814 0
M  V30 5 C -0.029 0.6721 -0.7594 0
M  V30 6 C -0.6351 0.3641 0.5636 0 CFG=2
M  V30 7 C -2.9284 -0.4757 -0.3954 0 CFG=1
M  V30 8 O -1.2217 2.8977 -3.3681 0
M  V30 9 C 0.7816 1.5652 -3.2104 0
M  V30 10 C 1.1425 0.142 -1.2639 0
M  V30 11 C -0.3239 -1.0749 0.9907 0 CFG=2
M  V30 12 C -0.0368 1.3531 1.5966 0
M  V30 13 O -2.754 -0.6327 -1.8101 0
M  V30 14 C -2.6041 -1.8257 0.239 0
M  V30 15 C 1.555 0.6093 -2.5124 0
M  V30 16 C 1.8271 -0.955 -0.4913 0
M  V30 17 O -0.7399 -1.2658 2.3657 0
M  V30 18 C 1.238 -1.2169 0.9391 0 CFG=1
M  V30 19 C -1.0975 -2.1223 0.1857 0
M  V30 20 C 1.4597 1.0865 1.8485 0
M  V30 21 N 1.7612 -0.3427 2.0419 0
M  V30 22 C 3.1865 -0.545 2.2954 0
M  V30 23 H -2.6152 1.0842 1.0692 0
M  V30 24 H -3.9915 -0.249 -0.2543 0
M  V30 25 H -0.7861 3.1239 -4.205 0
M  V30 26 H 1.1273 1.9031 -4.1833 0
M  V30 27 H -0.5817 1.2656 2.5459 0
M  V30 28 H -0.1578 2.3967 1.277 0
M  V30 29 H -2.8457 0.2606 -2.1954 0
M  V30 30 H -2.9603 -1.8445 1.2754 0
M  V30 31 H -3.1309 -2.6239 -0.298 0
M  V30 32 H 2.4659 0.2269 -2.9674 0
M  V30 33 H 2.9019 -0.7546 -0.4424 0
M  V30 34 H 1.7096 -1.8799 -1.0712 0
M  V30 35 H 0.042 -1.0061 2.9 0
M  V30 36 H 1.4894 -2.2475 1.225 0
M  V30 37 H -0.7625 -2.1643 -0.8561 0
M  V30 38 H -0.9298 -3.1173 0.6164 0
M  V30 39 H 2.0557 1.5037 1.0275 0
M  V30 40 H 1.7491 1.6427 2.7491 0
M  V30 41 H 3.4835 -0.0236 3.2124 0
M  V30 42 H 3.8199 -0.1782 1.4817 0
M  V30 43 H 3.4057 -1.606 2.4562 0
M  V30 END ATOM
M  V30 BEGIN BOND
M  V30 1 1 1 2
M  V30 2 1 1 3
M  V30 3 2 2 4
M  V30 4 1 2 5
M  V30 5 1 3 6
M  V30 6 1 3 7
M  V30 7 1 4 8
M  V30 8 1 4 9
M  V30 9 2 5 10
M  V30 10 1 6 11
M  V30 11 1 6 12
M  V30 12 1 7 13
M  V30 13 1 7 14
M  V30 14 2 9 15
M  V30 15 1 10 16
M  V30 16 1 11 17
M  V30 17 1 11 18
M  V30 18 1 11 19
M  V30 19 1 12 20
M  V30 20 1 18 21
M  V30 21 1 21 22
M  V30 22 1 5 6
M  V30 23 1 10 15
M  V30 24 1 14 19
M  V30 25 1 16 18
M  V30 26 1 20 21
M  V30 27 1 3 23
M  V30 28 1 7 24
M  V30 29 1 8 25
M  V30 30 1 9 26
M  V30 31 1 12 27
M  V30 32 1 12 28
M  V30 33 1 13 29
M  V30 34 1 14 30
M  V30 35 1 14 31
M  V30 36 1 15 32
M  V30 37 1 16 33
M  V30 38 1 16 34
M  V30 39 1 17 35
M  V30 40 1 18 36
M  V30 41 1 19 37
M  V30 42 1 19 38
M  V30 43 1 20 39
M  V30 44 1 20 40
M  V30 45 1 22 41
M  V30 46 1 22 42
M  V30 47 1 22 43
M  V30 END BOND
M  V30 BEGIN COLLECTION
M  V30 MDLV30/STEABS ATOMS=(5 3 6 7 11 18)
M  V30 END COLLECTION
M  V30 END CTAB
M  END
>  <NO.>
1875

>  <Name>
hydromorphinol

>  <SMILES>
CN1CC[C@]23c4c5ccc(O)c4O[C@H]2[C@@H](O)CC[C@@]3(O)[C@H]1C5

>  <logBB>


>  <Class>
1

>  <MW>
303.15

>  <nHBAcc>
5

>  <nHBDon>
3

>  <SLogP>
0.54

>  <TopoPSA>
73.16

>  <MMFF94 Energy>
112.21

$$$$
CN1CC[C@]23c4c5ccc(OC(=O)c6cccnc6)c4O[C@H]2[C@@H](OC(=O)c2cccnc2)C=C[C@H]3[C@H]1C5
Actelion Java MolfileCreator 2.0

  0  0  0  0  0  0              0 V3000
M  V30 BEGIN CTAB
M  V30 COUNTS 62 68 0 0 0
M  V30 BEGIN ATOM
M  V30 1 O -2.855 0.5705 -3.0183 0
M  V30 2 C -2.5144 1.3539 -2.1462 0
M  V30 3 O -1.773 1.0877 -1.011 0
M  V30 4 C -2.895 2.7819 -2.1467 0
M  V30 5 C -1.266 -0.2046 -0.8587 0
M  V30 6 C -3.9296 3.193 -2.9762 0
M  V30 7 C -2.2626 3.7506 -1.3637 0
M  V30 8 C 0.0621 -0.344 -0.5246 0
M  V30 9 C -2.0652 -1.3536 -0.9148 0
M  V30 10 N -4.3745 4.473 -3.0521 0
M  V30 11 C -2.6968 5.0733 -1.4249 0
M  V30 12 O 0.9759 0.6532 -0.2968 0
M  V30 13 C 0.6013 -1.5955 -0.3266 0
M  V30 14 C -1.5113 -2.6241 -0.6471 0
M  V30 15 C -3.7467 5.3828 -2.2743 0
M  V30 16 C 2.0522 -0.0282 0.4535 0 CFG=2
M  V30 17 C -0.1546 -2.7536 -0.3383 0
M  V30 18 C 2.0623 -1.4925 -0.0338 0 CFG=1
M  V30 19 C 1.8672 0.1566 1.9995 0 CFG=1
M  V30 20 C 0.498 -4.0444 0.0814 0
M  V30 21 C 2.4687 -2.5849 0.9616 0 CFG=2
M  V30 22 C 2.8585 -1.6828 -1.3419 0
M  V30 23 O 0.7417 1.0023 2.3042 0
M  V30 24 C 1.6631 -1.1078 2.7977 0
M  V30 25 C 2.0486 -3.9483 0.3179 0 CFG=2
M  V30 26 C 1.9295 -2.3419 2.3467 0
M  V30 27 C 2.7138 -3.1031 -1.9113 0
M  V30 28 C 0.9426 2.3262 2.1053 0
M  V30 29 N 2.9026 -4.1368 -0.8856 0
M  V30 30 O 2.006 2.8601 1.835 0
M  V30 31 C -0.333 3.0604 2.2403 0
M  V30 32 C 2.798 -5.4743 -1.4623 0
M  V30 33 C -0.3209 4.4415 2.0934 0
M  V30 34 C -1.5636 2.4403 2.4757 0
M  V30 35 N -1.431 5.2205 2.1631 0
M  V30 36 C -2.7174 3.2174 2.5622 0
M  V30 37 C -2.6018 4.5894 2.4035 0
M  V30 38 H -4.4531 2.4906 -3.6209 0
M  V30 39 H -1.4311 3.4964 -0.7131 0
M  V30 40 H -3.1249 -1.2757 -1.144 0
M  V30 41 H -2.2237 5.8425 -0.8219 0
M  V30 42 H -2.1566 -3.4995 -0.6655 0
M  V30 43 H -4.1194 6.4003 -2.3564 0
M  V30 44 H 2.988 0.4701 0.1699 0
M  V30 45 H 2.78 0.6115 2.4091 0
M  V30 46 H 0.0377 -4.3434 1.0328 0
M  V30 47 H 0.2556 -4.831 -0.6397 0
M  V30 48 H 3.5636 -2.5862 1.0766 0
M  V30 49 H 2.5507 -0.9616 -2.1101 0
M  V30 50 H 3.9206 -1.4878 -1.1412 0
M  V30 51 H 1.3155 -0.9837 3.821 0
M  V30 52 H 2.3182 -4.7465 1.0235 0
M  V30 53 H 1.8051 -3.1953 3.0091 0
M  V30 54 H 3.4698 -3.2256 -2.697 0
M  V30 55 H 1.7396 -3.2114 -2.404 0
M  V30 56 H 3.5769 -5.6206 -2.2191 0
M  V30 57 H 1.8301 -5.6579 -1.9393 0
M  V30 58 H 2.9601 -6.242 -0.6979 0
M  V30 59 H 0.6032 4.9825 1.9022 0
M  V30 60 H -1.6375 1.3612 2.5835 0
M  V30 61 H -3.6849 2.762 2.7449 0
M  V30 62 H -3.474 5.2352 2.4622 0
M  V30 END ATOM
M  V30 BEGIN BOND
M  V30 1 2 1 2
M  V30 2 1 2 3
M  V30 3 1 2 4
M  V30 4 1 3 5
M  V30 5 2 4 6
M  V30 6 1 4 7
M  V30 7 2 5 8
M  V30 8 1 5 9
M  V30 9 1 6 10
M  V30 10 2 7 11
M  V30 11 1 8 12
M  V30 12 1 8 13
M  V30 13 2 9 14
M  V30 14 2 10 15
M  V30 15 1 12 16
M  V30 16 2 13 17
M  V30 17 1 13 18
M  V30 18 1 16 19
M  V30 19 1 17 20
M  V30 20 1 18 21
M  V30 21 1 18 22
M  V30 22 1 19 23
M  V30 23 1 19 24
M  V30 24 1 20 25
M  V30 25 1 21 26
M  V30 26 1 22 27
M  V30 27 1 23 28
M  V30 28 1 25 29
M  V30 29 2 28 30
M  V30 30 1 28 31
M  V30 31 1 29 32
M  V30 32 2 31 33
M  V30 33 1 31 34
M  V30 34 1 33 35
M  V30 35 2 34 36
M  V30 36 2 35 37
M  V30 37 1 11 15
M  V30 38 1 14 17
M  V30 39 1 16 18
M  V30 40 1 21 25
M  V30 41 2 24 26
M  V30 42 1 27 29
M  V30 43 1 36 37
M  V30 44 1 6 38
M  V30 45 1 7 39
M  V30 46 1 9 40
M  V30 47 1 11 41
M  V30 48 1 14 42
M  V30 49 1 15 43
M  V30 50 1 16 44
M  V30 51 1 19 45
M  V30 52 1 20 46
M  V30 53 1 20 47
M  V30 54 1 21 48
M  V30 55 1 22 49
M  V30 56 1 22 50
M  V30 57 1 24 51
M  V30 58 1 25 52
M  V30 59 1 26 53
M  V30 60 1 27 54
M  V30 61 1 27 55
M  V30 62 1 32 56
M  V30 63 1 32 57
M  V30 64 1 32 58
M  V30 65 1 33 59
M  V30 66 1 34 60
M  V30 67 1 36 61
M  V30 68 1 37 62
M  V30 END BOND
M  V30 BEGIN COLLECTION
M  V30 MDLV30/STEABS ATOMS=(5 16 18 19 21 25)
M  V30 END COLLECTION
M  V30 END CTAB
M  END
>  <NO.>
1876

>  <Name>
nicomorphine

>  <SMILES>
CN1CC[C@]23c4c5ccc(OC(=O)c6cccnc6)c4O[C@H]2[C@@H](OC(=O)c2cccnc2)C=C[C@H]3[C@H]1C5

>  <logBB>


>  <Class>
1

>  <MW>
495.18

>  <nHBAcc>
8

>  <nHBDon>
0

>  <SLogP>
3.37

>  <TopoPSA>
90.85

>  <MMFF94 Energy>
164.68

$$$$
CN1CCc2cc(Cl)c(O)cc2[C@@H](c2cc(Br)cc3c2OCC3)C1
Actelion Java MolfileCreator 2.0

  0  0  0  0  0  0              0 V3000
M  V30 BEGIN CTAB
M  V30 COUNTS 43 46 0 0 0
M  V30 BEGIN ATOM
M  V30 1 Br -3.9407 4.1052 1.0661 0
M  V30 2 C -2.3223 3.1263 1.1118 0
M  V30 3 C -2.1237 2.0783 0.1975 0
M  V30 4 C -1.3515 3.4506 2.0587 0
M  V30 5 C -0.9346 1.3232 0.2085 0
M  V30 6 C -0.18 2.7153 2.0568 0
M  V30 7 C 0.0217 1.6806 1.1505 0
M  V30 8 C -0.7423 0.175 -0.7777 0 CFG=2
M  V30 9 C 0.9743 2.7962 2.9795 0
M  V30 10 O 1.2371 1.0635 1.3096 0
M  V30 11 C -0.6911 -1.1932 -0.0851 0
M  V30 12 C 0.3561 0.5521 -1.8145 0
M  V30 13 C 1.9669 1.9414 2.1958 0
M  V30 14 C 0.4188 -2.0644 -0.1059 0
M  V30 15 C -1.8597 -1.6104 0.5952 0
M  V30 16 N 0.6073 -0.5274 -2.7797 0
M  V30 17 C 0.3393 -3.3068 0.5582 0
M  V30 18 C 1.7174 -1.7077 -0.7833 0
M  V30 19 C -1.9203 -2.84 1.2401 0
M  V30 20 C 1.619 -1.4846 -2.3016 0
M  V30 21 C 0.9753 -0.0082 -4.0951 0
M  V30 22 C -0.822 -3.6901 1.2245 0
M  V30 23 O -3.0873 -3.1661 1.875 0
M  V30 24 Cl -0.883 -5.2169 2.0235 0
M  V30 25 H -2.906 1.843 -0.5216 0
M  V30 26 H -1.5095 4.2454 2.7802 0
M  V30 27 H -1.6609 0.1159 -1.385 0
M  V30 28 H 1.3459 3.8118 3.1376 0
M  V30 29 H 0.7246 2.3327 3.9394 0
M  V30 30 H -0.0202 1.4386 -2.3471 0
M  V30 31 H 1.289 0.8925 -1.3485 0
M  V30 32 H 2.597 1.3424 2.8614 0
M  V30 33 H 2.6257 2.5658 1.5787 0
M  V30 34 H -2.7377 -0.9679 0.6221 0
M  V30 35 H 1.1936 -3.9801 0.5551 0
M  V30 36 H 2.4527 -2.507 -0.6202 0
M  V30 37 H 2.1494 -0.833 -0.2844 0
M  V30 38 H 1.417 -2.4484 -2.7864 0
M  V30 39 H 2.6193 -1.1722 -2.6319 0
M  V30 40 H 0.1663 0.6058 -4.5064 0
M  V30 41 H 1.8859 0.6004 -4.058 0
M  V30 42 H 1.1345 -0.829 -4.8035 0
M  V30 43 H -2.9583 -4.0488 2.2687 0
M  V30 END ATOM
M  V30 BEGIN BOND
M  V30 1 1 1 2
M  V30 2 2 2 3
M  V30 3 1 2 4
M  V30 4 1 3 5
M  V30 5 2 4 6
M  V30 6 2 5 7
M  V30 7 1 5 8
M  V30 8 1 6 9
M  V30 9 1 7 10
M  V30 10 1 8 11
M  V30 11 1 8 12
M  V30 12 1 9 13
M  V30 13 2 11 14
M  V30 14 1 11 15
M  V30 15 1 12 16
M  V30 16 1 14 17
M  V30 17 1 14 18
M  V30 18 2 15 19
M  V30 19 1 16 20
M  V30 20 1 16 21
M  V30 21 2 17 22
M  V30 22 1 19 23
M  V30 23 1 22 24
M  V30 24 1 6 7
M  V30 25 1 10 13
M  V30 26 1 18 20
M  V30 27 1 19 22
M  V30 28 1 3 25
M  V30 29 1 4 26
M  V30 30 1 8 27
M  V30 31 1 9 28
M  V30 32 1 9 29
M  V30 33 1 12 30
M  V30 34 1 12 31
M  V30 35 1 13 32
M  V30 36 1 13 33
M  V30 37 1 15 34
M  V30 38 1 17 35
M  V30 39 1 18 36
M  V30 40 1 18 37
M  V30 41 1 20 38
M  V30 42 1 20 39
M  V30 43 1 21 40
M  V30 44 1 21 41
M  V30 45 1 21 42
M  V30 46 1 23 43
M  V30 END BOND
M  V30 BEGIN COLLECTION
M  V30 MDLV30/STEABS ATOMS=(1 8)
M  V30 END COLLECTION
M  V30 END CTAB
M  END
>  <NO.>
1877

>  <Name>
berupipam

>  <SMILES>
CN1CCc2cc(Cl)c(O)cc2[C@@H](c2cc(Br)cc3c2OCC3)C1

>  <logBB>


>  <Class>
1

>  <MW>
407.03

>  <nHBAcc>
3

>  <nHBDon>
1

>  <SLogP>
4.36

>  <TopoPSA>
32.7

>  <MMFF94 Energy>
106.77

$$$$
CN1CCc2cc(Cl)c(O)cc2[C@@H](c2cccc3c2OCC3)C1
Actelion Java MolfileCreator 2.0

  0  0  0  0  0  0              0 V3000
M  V30 BEGIN CTAB
M  V30 COUNTS 43 46 0 0 0
M  V30 BEGIN ATOM
M  V30 1 Cl -0.7281 -5.1866 2.0236 0
M  V30 2 C -0.7112 -3.6621 1.2182 0
M  V30 3 C -1.8294 -2.8381 1.2415 0
M  V30 4 C 0.4343 -3.2539 0.5397 0
M  V30 5 O -2.9818 -3.1896 1.889 0
M  V30 6 C -1.8041 -1.61 0.5916 0
M  V30 7 C 0.4778 -2.0127 -0.1296 0
M  V30 8 C -0.6526 -1.1684 -0.102 0
M  V30 9 C 1.7615 -1.6264 -0.8187 0
M  V30 10 C -0.7436 0.1954 -0.7999 0 CFG=1
M  V30 11 C 1.646 -1.4114 -2.3368 0
M  V30 12 C -0.9544 1.3439 0.1811 0
M  V30 13 C 0.3367 0.5949 -1.8469 0
M  V30 14 N 0.6067 -0.4822 -2.8108 0
M  V30 15 C -0.0083 1.713 1.1273 0
M  V30 16 C -2.1516 2.0844 0.1656 0
M  V30 17 C 0.9532 0.0426 -4.1296 0
M  V30 18 O 1.2232 1.1253 1.2817 0
M  V30 19 C -0.2191 2.7606 2.0167 0
M  V30 20 C -2.366 3.145 1.0631 0
M  V30 21 C 1.6822 1.619 2.5599 0
M  V30 22 C -1.3905 3.4943 1.9968 0
M  V30 23 C 0.9876 2.9462 2.8533 0
M  V30 24 H 1.3044 -3.9064 0.5312 0
M  V30 25 H -2.8276 -4.0677 2.2837 0
M  V30 26 H -2.6954 -0.9864 0.6253 0
M  V30 27 H 2.5177 -2.4066 -0.6587 0
M  V30 28 H 2.1757 -0.7396 -0.3263 0
M  V30 29 H -1.6658 0.1111 -1.3986 0
M  V30 30 H 1.4651 -2.3817 -2.8165 0
M  V30 31 H 2.6356 -1.0751 -2.6757 0
M  V30 32 H -0.0651 1.4697 -2.3799 0
M  V30 33 H 1.2645 0.9597 -1.3893 0
M  V30 34 H -2.9357 1.8406 -0.549 0
M  V30 35 H 0.1264 0.6351 -4.5372 0
M  V30 36 H 1.8484 0.6741 -4.0999 0
M  V30 37 H 1.1285 -0.7756 -4.837 0
M  V30 38 H -3.301 3.6994 1.025 0
M  V30 39 H 1.436 0.8648 3.3187 0
M  V30 40 H 2.771 1.7304 2.5359 0
M  V30 41 H -1.55 4.3205 2.6817 0
M  V30 42 H 0.7759 3.0697 3.9183 0
M  V30 43 H 1.5764 3.792 2.4843 0
M  V30 END ATOM
M  V30 BEGIN BOND
M  V30 1 1 1 2
M  V30 2 2 2 3
M  V30 3 1 2 4
M  V30 4 1 3 5
M  V30 5 1 3 6
M  V30 6 2 4 7
M  V30 7 2 6 8
M  V30 8 1 7 9
M  V30 9 1 8 10
M  V30 10 1 9 11
M  V30 11 1 10 12
M  V30 12 1 10 13
M  V30 13 1 11 14
M  V30 14 2 12 15
M  V30 15 1 12 16
M  V30 16 1 14 17
M  V30 17 1 15 18
M  V30 18 1 15 19
M  V30 19 2 16 20
M  V30 20 1 18 21
M  V30 21 2 19 22
M  V30 22 1 19 23
M  V30 23 1 7 8
M  V30 24 1 13 14
M  V30 25 1 20 22
M  V30 26 1 21 23
M  V30 27 1 4 24
M  V30 28 1 5 25
M  V30 29 1 6 26
M  V30 30 1 9 27
M  V30 31 1 9 28
M  V30 32 1 10 29
M  V30 33 1 11 30
M  V30 34 1 11 31
M  V30 35 1 13 32
M  V30 36 1 13 33
M  V30 37 1 16 34
M  V30 38 1 17 35
M  V30 39 1 17 36
M  V30 40 1 17 37
M  V30 41 1 20 38
M  V30 42 1 21 39
M  V30 43 1 21 40
M  V30 44 1 22 41
M  V30 45 1 23 42
M  V30 46 1 23 43
M  V30 END BOND
M  V30 BEGIN COLLECTION
M  V30 MDLV30/STEABS ATOMS=(1 10)
M  V30 END COLLECTION
M  V30 END CTAB
M  END
>  <NO.>
1878

>  <Name>
odapipam acetate

>  <SMILES>
CN1CCc2cc(Cl)c(O)cc2[C@@H](c2cccc3c2OCC3)C1

>  <logBB>


>  <Class>
1

>  <MW>
329.12

>  <nHBAcc>
3

>  <nHBDon>
1

>  <SLogP>
3.6

>  <TopoPSA>
32.7

>  <MMFF94 Energy>
108.93

$$$$
CN1CCc2cccc3c2[C@H]1Cc1ccc(O)c(O)c1-3
Actelion Java MolfileCreator 2.0

  0  0  0  0  0  0              0 V3000
M  V30 BEGIN CTAB
M  V30 COUNTS 37 40 0 0 0
M  V30 BEGIN ATOM
M  V30 1 O 2.4152 1.4486 2.657 0
M  V30 2 C 2.4774 1.2013 1.3077 0
M  V30 3 C 1.491 0.4562 0.6399 0
M  V30 4 C 3.565 1.7604 0.6216 0
M  V30 5 C 0.3301 -0.2161 1.2862 0
M  V30 6 C 1.6241 0.3538 -0.7678 0
M  V30 7 O 4.4788 2.4687 1.3592 0
M  V30 8 C 3.7068 1.6067 -0.7481 0
M  V30 9 C -0.8186 -0.5307 0.5115 0
M  V30 10 C 0.334 -0.6187 2.6329 0
M  V30 11 C 2.7302 0.9026 -1.4448 0
M  V30 12 C 0.5582 -0.3806 -1.5566 0
M  V30 13 C -1.9274 -1.1743 1.0998 0
M  V30 14 C -0.8473 -0.1169 -0.9644 0 CFG=1
M  V30 15 C -0.7595 -1.2685 3.2094 0
M  V30 16 C -1.8865 -1.545 2.4468 0
M  V30 17 C -3.1266 -1.5329 0.2665 0
M  V30 18 N -1.9135 -0.7962 -1.756 0
M  V30 19 C -3.1923 -0.7233 -1.0278 0
M  V30 20 C -2.081 -0.1861 -3.0783 0
M  V30 21 H 3.2021 1.998 2.8447 0
M  V30 22 H 5.1749 2.7822 0.7563 0
M  V30 23 H 4.5484 2.0301 -1.2855 0
M  V30 24 H 1.2049 -0.4494 3.2604 0
M  V30 25 H 2.8241 0.7867 -2.5226 0
M  V30 26 H 0.6023 -0.0394 -2.5962 0
M  V30 27 H 0.795 -1.4528 -1.5496 0
M  V30 28 H -1.0442 0.9665 -0.9682 0
M  V30 29 H -0.7207 -1.5656 4.2539 0
M  V30 30 H -2.7275 -2.0617 2.9025 0
M  V30 31 H -3.0765 -2.6036 0.0314 0
M  V30 32 H -4.0454 -1.358 0.8391 0
M  V30 33 H -3.4576 0.3207 -0.8106 0
M  V30 34 H -4.0032 -1.1404 -1.6384 0
M  V30 35 H -2.9043 -0.6659 -3.6208 0
M  V30 36 H -1.1952 -0.3314 -3.7031 0
M  V30 37 H -2.2947 0.887 -3.0164 0
M  V30 END ATOM
M  V30 BEGIN BOND
M  V30 1 1 1 2
M  V30 2 2 2 3
M  V30 3 1 2 4
M  V30 4 1 3 5
M  V30 5 1 3 6
M  V30 6 1 4 7
M  V30 7 2 4 8
M  V30 8 2 5 9
M  V30 9 1 5 10
M  V30 10 2 6 11
M  V30 11 1 6 12
M  V30 12 1 9 13
M  V30 13 1 9 14
M  V30 14 2 10 15
M  V30 15 2 13 16
M  V30 16 1 13 17
M  V30 17 1 14 18
M  V30 18 1 17 19
M  V30 19 1 18 20
M  V30 20 1 8 11
M  V30 21 1 12 14
M  V30 22 1 15 16
M  V30 23 1 18 19
M  V30 24 1 1 21
M  V30 25 1 7 22
M  V30 26 1 8 23
M  V30 27 1 10 24
M  V30 28 1 11 25
M  V30 29 1 12 26
M  V30 30 1 12 27
M  V30 31 1 14 28
M  V30 32 1 15 29
M  V30 33 1 16 30
M  V30 34 1 17 31
M  V30 35 1 17 32
M  V30 36 1 19 33
M  V30 37 1 19 34
M  V30 38 1 20 35
M  V30 39 1 20 36
M  V30 40 1 20 37
M  V30 END BOND
M  V30 BEGIN COLLECTION
M  V30 MDLV30/STEABS ATOMS=(1 14)
M  V30 END COLLECTION
M  V30 END CTAB
M  END
>  <NO.>
1879

>  <Name>
apomorphine

>  <SMILES>
CN1CCc2cccc3c2[C@H]1Cc1ccc(O)c(O)c1-3

>  <logBB>


>  <Class>
1

>  <MW>
267.13

>  <nHBAcc>
3

>  <nHBDon>
2

>  <SLogP>
2.85

>  <TopoPSA>
43.7

>  <MMFF94 Energy>
77.28

$$$$
CN1C[C@@H](CC#N)CC2c3cccc4[nH]cc(c34)C[C@H]21
Actelion Java MolfileCreator 2.0

  0  0  0  0  0  0              0 V3000
M  V30 BEGIN CTAB
M  V30 COUNTS 39 42 0 0 0
M  V30 BEGIN ATOM
M  V30 1 N -3.3821 2.8178 -3.866 0
M  V30 2 C -2.4488 2.3764 -3.3363 0
M  V30 3 C -1.2667 1.7998 -2.6773 0
M  V30 4 C -1.4884 0.3191 -2.3047 0 CFG=2
M  V30 5 C -2.5131 0.1501 -1.1727 0
M  V30 6 C -0.1697 -0.3637 -1.9111 0
M  V30 7 N -2.0242 0.7179 0.0959 0
M  V30 8 C 0.3494 0.1175 -0.5472 0
M  V30 9 C -0.7984 -0.0031 0.5513 0 CFG=1
M  V30 10 C -3.1037 0.6661 1.0885 0
M  V30 11 C 1.6136 -0.5967 -0.0989 0
M  V30 12 C -0.2924 0.4653 1.9726 0
M  V30 13 C 1.8353 -0.6678 1.2819 0
M  V30 14 C 2.6234 -1.1248 -0.9144 0
M  V30 15 C 1.0004 -0.1973 2.3153 0
M  V30 16 C 2.9612 -1.2462 1.8337 0
M  V30 17 C 3.7671 -1.7176 -0.3553 0
M  V30 18 C 1.63 -0.4904 3.5027 0
M  V30 19 N 2.8167 -1.1273 3.1991 0
M  V30 20 C 3.9621 -1.7953 1.0332 0
M  V30 21 H -1.0108 2.4021 -1.799 0
M  V30 22 H -0.4179 1.8777 -3.3677 0
M  V30 23 H -1.8759 -0.2022 -3.1911 0
M  V30 24 H -2.7494 -0.9157 -1.0493 0
M  V30 25 H -3.4493 0.6408 -1.4661 0
M  V30 26 H -0.3298 -1.45 -1.8772 0
M  V30 27 H 0.5751 -0.1866 -2.6959 0
M  V30 28 H 0.6205 1.1792 -0.6345 0
M  V30 29 H -1.0448 -1.0731 0.6488 0
M  V30 30 H -2.8431 1.2346 1.9865 0
M  V30 31 H -3.3505 -0.3618 1.3765 0
M  V30 32 H -4.0123 1.1394 0.6979 0
M  V30 33 H -1.0286 0.2119 2.7434 0
M  V30 34 H -0.153 1.5532 1.9774 0
M  V30 35 H 2.5424 -1.0807 -1.9968 0
M  V30 36 H 4.5296 -2.1233 -1.0176 0
M  V30 37 H 1.3501 -0.31 4.5318 0
M  V30 38 H 3.488 -1.4578 3.878 0
M  V30 39 H 4.8513 -2.2513 1.4531 0
M  V30 END ATOM
M  V30 BEGIN BOND
M  V30 1 3 1 2
M  V30 2 1 2 3
M  V30 3 1 3 4
M  V30 4 1 4 5
M  V30 5 1 4 6
M  V30 6 1 5 7
M  V30 7 1 6 8
M  V30 8 1 7 9
M  V30 9 1 7 10
M  V30 10 1 8 11
M  V30 11 1 9 12
M  V30 12 2 11 13
M  V30 13 1 11 14
M  V30 14 1 12 15
M  V30 15 1 13 16
M  V30 16 2 14 17
M  V30 17 2 15 18
M  V30 18 1 16 19
M  V30 19 2 16 20
M  V30 20 1 8 9
M  V30 21 1 13 15
M  V30 22 1 17 20
M  V30 23 1 18 19
M  V30 24 1 3 21
M  V30 25 1 3 22
M  V30 26 1 4 23
M  V30 27 1 5 24
M  V30 28 1 5 25
M  V30 29 1 6 26
M  V30 30 1 6 27
M  V30 31 1 8 28
M  V30 32 1 9 29
M  V30 33 1 10 30
M  V30 34 1 10 31
M  V30 35 1 10 32
M  V30 36 1 12 33
M  V30 37 1 12 34
M  V30 38 1 14 35
M  V30 39 1 17 36
M  V30 40 1 18 37
M  V30 41 1 19 38
M  V30 42 1 20 39
M  V30 END BOND
M  V30 BEGIN COLLECTION
M  V30 MDLV30/STEABS ATOMS=(2 4 9)
M  V30 END COLLECTION
M  V30 END CTAB
M  END
>  <NO.>
1880

>  <Name>
delergotrile

>  <SMILES>
CN1C[C@@H](CC#N)CC2c3cccc4[nH]cc(c34)C[C@H]21

>  <logBB>


>  <Class>
1

>  <MW>
265.16

>  <nHBAcc>
2

>  <nHBDon>
1

>  <SLogP>
3.04

>  <TopoPSA>
42.82

>  <MMFF94 Energy>
55.688

$$$$
CN1C[C@@H](NS(=O)(=O)N(C)C)C[C@@H]2c3cccc4c3c(cn4C)C[C@H]21
Actelion Java MolfileCreator 2.0

  0  0  0  0  0  0              0 V3000
M  V30 BEGIN CTAB
M  V30 COUNTS 51 54 0 0 0
M  V30 BEGIN ATOM
M  V30 1 S -2.4225 -1.8568 -2.9884 0
M  V30 2 O -1.7983 -3.0322 -3.544 0
M  V30 3 O -2.8739 -0.7707 -3.8242 0
M  V30 4 N -3.7055 -2.346 -1.9982 0
M  V30 5 N -1.3899 -1.2316 -1.8325 0
M  V30 6 C -3.3718 -3.4349 -1.053 0
M  V30 7 C -4.9409 -2.6472 -2.7535 0
M  V30 8 C -1.7989 0.049 -1.1831 0 CFG=2
M  V30 9 C -1.1574 1.2302 -1.9341 0
M  V30 10 C -1.3181 0.0242 0.27 0
M  V30 11 N 0.3229 1.1261 -1.9232 0
M  V30 12 C 0.2167 0.0506 0.3727 0 CFG=1
M  V30 13 C 0.8212 1.2273 -0.5172 0 CFG=1
M  V30 14 C 0.8751 2.1728 -2.7898 0
M  V30 15 C 0.721 0.1367 1.8055 0
M  V30 16 C 2.3963 1.2762 -0.4174 0
M  V30 17 C 1.9854 0.7114 1.9921 0
M  V30 18 C 0.0931 -0.3674 2.9519 0
M  V30 19 C 2.8316 1.2645 1.0103 0
M  V30 20 C 2.591 0.8179 3.2312 0
M  V30 21 C 0.6991 -0.2586 4.2126 0
M  V30 22 C 3.9617 1.7073 1.6585 0
M  V30 23 N 3.8057 1.4329 3.0019 0
M  V30 24 C 1.9583 0.3388 4.3824 0
M  V30 25 C 4.7797 1.7417 4.024 0
M  V30 26 H -0.4543 -1.1236 -2.2404 0
M  V30 27 H -3.2017 -4.3785 -1.5802 0
M  V30 28 H -2.4903 -3.1866 -0.456 0
M  V30 29 H -4.2001 -3.5755 -0.3504 0
M  V30 30 H -4.7893 -3.4878 -3.4375 0
M  V30 31 H -5.2707 -1.7692 -3.3167 0
M  V30 32 H -5.7491 -2.9042 -2.0607 0
M  V30 33 H -2.8901 0.1487 -1.1819 0
M  V30 34 H -1.4854 2.1791 -1.4888 0
M  V30 35 H -1.5117 1.2254 -2.9711 0
M  V30 36 H -1.7365 0.8916 0.7983 0
M  V30 37 H -1.717 -0.8699 0.7647 0
M  V30 38 H 0.6043 -0.8989 -0.0241 0
M  V30 39 H 0.4561 2.1765 -0.0913 0
M  V30 40 H 1.95 2.0338 -2.9408 0
M  V30 41 H 0.6987 3.1773 -2.3888 0
M  V30 42 H 0.4306 2.1208 -3.7906 0
M  V30 43 H 2.7819 2.1856 -0.8912 0
M  V30 44 H 2.8286 0.4113 -0.9349 0
M  V30 45 H -0.8733 -0.859 2.8834 0
M  V30 46 H 0.1825 -0.6561 5.0842 0
M  V30 47 H 4.8554 2.1895 1.2846 0
M  V30 48 H 2.4161 0.4104 5.3625 0
M  V30 49 H 5.6472 2.2267 3.5694 0
M  V30 50 H 4.317 2.4155 4.7498 0
M  V30 51 H 5.0858 0.8082 4.5029 0
M  V30 END ATOM
M  V30 BEGIN BOND
M  V30 1 2 1 2
M  V30 2 2 1 3
M  V30 3 1 1 4
M  V30 4 1 1 5
M  V30 5 1 4 6
M  V30 6 1 4 7
M  V30 7 1 5 8
M  V30 8 1 8 9
M  V30 9 1 8 10
M  V30 10 1 9 11
M  V30 11 1 10 12
M  V30 12 1 11 13
M  V30 13 1 11 14
M  V30 14 1 12 15
M  V30 15 1 13 16
M  V30 16 2 15 17
M  V30 17 1 15 18
M  V30 18 1 16 19
M  V30 19 1 17 20
M  V30 20 2 18 21
M  V30 21 2 19 22
M  V30 22 1 20 23
M  V30 23 2 20 24
M  V30 24 1 23 25
M  V30 25 1 12 13
M  V30 26 1 17 19
M  V30 27 1 21 24
M  V30 28 1 22 23
M  V30 29 1 5 26
M  V30 30 1 6 27
M  V30 31 1 6 28
M  V30 32 1 6 29
M  V30 33 1 7 30
M  V30 34 1 7 31
M  V30 35 1 7 32
M  V30 36 1 8 33
M  V30 37 1 9 34
M  V30 38 1 9 35
M  V30 39 1 10 36
M  V30 40 1 10 37
M  V30 41 1 12 38
M  V30 42 1 13 39
M  V30 43 1 14 40
M  V30 44 1 14 41
M  V30 45 1 14 42
M  V30 46 1 16 43
M  V30 47 1 16 44
M  V30 48 1 18 45
M  V30 49 1 21 46
M  V30 50 1 22 47
M  V30 51 1 24 48
M  V30 52 1 25 49
M  V30 53 1 25 50
M  V30 54 1 25 51
M  V30 END BOND
M  V30 BEGIN COLLECTION
M  V30 MDLV30/STEABS ATOMS=(3 8 12 13)
M  V30 END COLLECTION
M  V30 END CTAB
M  END
>  <NO.>
1881

>  <Name>
mesulergine

>  <SMILES>
CN1C[C@@H](NS(=O)(=O)N(C)C)C[C@@H]2c3cccc4c3c(cn4C)C[C@H]21

>  <logBB>


>  <Class>
1

>  <MW>
362.18

>  <nHBAcc>
3

>  <nHBDon>
1

>  <SLogP>
1.29

>  <TopoPSA>
57.58

>  <MMFF94 Energy>
-111.91

$$$$
CN1C[C@@H]2[C@@H](Cc3ccc(Cl)cc3[C@H]2c2ccccc2)C1
Actelion Java MolfileCreator 2.0

  0  0  0  0  0  0              0 V3000
M  V30 BEGIN CTAB
M  V30 COUNTS 41 44 0 0 0
M  V30 BEGIN ATOM
M  V30 1 Cl -0.8907 -5.1096 -1.4578 0
M  V30 2 C -1.0237 -3.739 -0.4259 0
M  V30 3 C -0.426 -2.5343 -0.7904 0
M  V30 4 C -1.7266 -3.8391 0.7676 0
M  V30 5 C -0.5302 -1.394 0.0334 0
M  V30 6 C -1.8214 -2.7276 1.604 0
M  V30 7 C -1.2131 -1.5084 1.2559 0
M  V30 8 C 0.165 -0.1016 -0.392 0 CFG=1
M  V30 9 C -1.3619 -0.3423 2.1928 0
M  V30 10 C -0.159 0.3088 -1.8314 0
M  V30 11 C -0.0746 1.1213 0.5391 0 CFG=1
M  V30 12 C -0.332 0.7557 1.9959 0 CFG=2
M  V30 13 C -1.4862 0.4736 -2.2618 0
M  V30 14 C 0.8797 0.5418 -2.7461 0
M  V30 15 C 1.1946 1.961 0.7063 0
M  V30 16 C 1.0621 0.4778 2.5634 0
M  V30 17 C -1.7649 0.8558 -3.5748 0
M  V30 18 C 0.5979 0.9249 -4.0584 0
M  V30 19 N 1.9911 1.183 1.6653 0
M  V30 20 C -0.7233 1.0813 -4.4721 0
M  V30 21 C 2.9702 1.9935 2.3719 0
M  V30 22 H 0.1243 -2.4779 -1.7277 0
M  V30 23 H -2.1979 -4.7747 1.0547 0
M  V30 24 H -2.3724 -2.817 2.5384 0
M  V30 25 H 1.2335 -0.3611 -0.3594 0
M  V30 26 H -2.3627 0.0783 2.0291 0
M  V30 27 H -1.3223 -0.6885 3.2331 0
M  V30 28 H -0.899 1.7447 0.171 0
M  V30 29 H -0.7106 1.6517 2.5122 0
M  V30 30 H -2.3118 0.2976 -1.5753 0
M  V30 31 H 1.9177 0.4249 -2.4413 0
M  V30 32 H 1.7341 2.1151 -0.2329 0
M  V30 33 H 0.9301 2.9457 1.1147 0
M  V30 34 H 1.1182 0.8233 3.6028 0
M  V30 35 H 1.3046 -0.5902 2.5542 0
M  V30 36 H -2.7958 0.9747 -3.8976 0
M  V30 37 H 1.4105 1.0999 -4.7586 0
M  V30 38 H -0.9414 1.3771 -5.4948 0
M  V30 39 H 3.5763 1.368 3.0362 0
M  V30 40 H 2.5005 2.7802 2.9732 0
M  V30 41 H 3.6587 2.4666 1.6633 0
M  V30 END ATOM
M  V30 BEGIN BOND
M  V30 1 1 1 2
M  V30 2 2 2 3
M  V30 3 1 2 4
M  V30 4 1 3 5
M  V30 5 2 4 6
M  V30 6 2 5 7
M  V30 7 1 5 8
M  V30 8 1 7 9
M  V30 9 1 8 10
M  V30 10 1 8 11
M  V30 11 1 9 12
M  V30 12 2 10 13
M  V30 13 1 10 14
M  V30 14 1 11 15
M  V30 15 1 12 16
M  V30 16 1 13 17
M  V30 17 2 14 18
M  V30 18 1 15 19
M  V30 19 2 17 20
M  V30 20 1 19 21
M  V30 21 1 6 7
M  V30 22 1 11 12
M  V30 23 1 16 19
M  V30 24 1 18 20
M  V30 25 1 3 22
M  V30 26 1 4 23
M  V30 27 1 6 24
M  V30 28 1 8 25
M  V30 29 1 9 26
M  V30 30 1 9 27
M  V30 31 1 11 28
M  V30 32 1 12 29
M  V30 33 1 13 30
M  V30 34 1 14 31
M  V30 35 1 15 32
M  V30 36 1 15 33
M  V30 37 1 16 34
M  V30 38 1 16 35
M  V30 39 1 17 36
M  V30 40 1 18 37
M  V30 41 1 20 38
M  V30 42 1 21 39
M  V30 43 1 21 40
M  V30 44 1 21 41
M  V30 END BOND
M  V30 BEGIN COLLECTION
M  V30 MDLV30/STEABS ATOMS=(3 8 11 12)
M  V30 END COLLECTION
M  V30 END CTAB
M  END
>  <NO.>
1882

>  <Name>
losindole

>  <SMILES>
CN1C[C@@H]2[C@@H](Cc3ccc(Cl)cc3[C@H]2c2ccccc2)C1

>  <logBB>


>  <Class>
1

>  <MW>
297.13

>  <nHBAcc>
1

>  <nHBDon>
0

>  <SLogP>
4.21

>  <TopoPSA>
3.24

>  <MMFF94 Energy>
67.254

$$$$
CN1C[C@H](C(=O)N[C@]2(C)O[C@@]3(O)[C@@H]4CCCN4C(=O)[C@H](Cc4ccccc4)N3C2=O)C[C@@H]2c3cccc4[nH]cc(c34)C[C@H]21
Actelion Java MolfileCreator 2.0

  0  0  0  0  0  0              0 V3000
M  V30 BEGIN CTAB
M  V30 COUNTS 80 87 0 0 0
M  V30 BEGIN ATOM
M  V30 1 O 5.0132 -2.9085 -2.6659 0
M  V30 2 C 4.5356 -2.4271 -1.6382 0
M  V30 3 N 5.3504 -1.9338 -0.6388 0
M  V30 4 C 2.9935 -2.3476 -1.3988 0 CFG=1
M  V30 5 C 4.8608 -1.3575 0.6141 0 CFG=2
M  V30 6 C 6.7828 -1.7741 -0.7826 0
M  V30 7 N 2.6124 -1.667 -0.1559 0
M  V30 8 C 2.3099 -1.6813 -2.61 0
M  V30 9 C 3.4685 -0.7176 0.4613 0 CFG=1
M  V30 10 C 5.9964 -0.427 1.0376 0
M  V30 11 C 7.2325 -1.1851 0.5502 0
M  V30 12 C 1.4833 -1.8906 0.5819 0
M  V30 13 C 1.7031 -2.6863 -3.5623 0
M  V30 14 O 2.9139 -0.3858 1.7318 0
M  V30 15 O 3.5166 0.4272 -0.3526 0
M  V30 16 O 0.5479 -2.6209 0.3006 0
M  V30 17 C 1.6409 -1.029 1.8389 0 CFG=1
M  V30 18 C 2.415 -3.1324 -4.6823 0
M  V30 19 C 0.4241 -3.2055 -3.3173 0
M  V30 20 N 0.5976 -0.0355 1.9884 0
M  V30 21 C 1.6869 -1.9426 3.0617 0
M  V30 22 C 1.8535 -4.0723 -5.5477 0
M  V30 23 C -0.1357 -4.1446 -4.1843 0
M  V30 24 C 0.3417 0.9309 1.0439 0
M  V30 25 C 0.5782 -4.5766 -5.3 0
M  V30 26 O 0.9667 1.0127 -0.009 0
M  V30 27 C -0.7963 1.8723 1.4202 0 CFG=1
M  V30 28 C -0.7918 3.1094 0.5126 0
M  V30 29 C -2.1387 1.1351 1.3322 0
M  V30 30 N -1.8935 4.051 0.7801 0
M  V30 31 C -3.3244 2.0798 1.5916 0 CFG=1
M  V30 32 C -3.2037 3.362 0.6613 0 CFG=1
M  V30 33 C -1.7004 4.7798 2.0308 0
M  V30 34 C -4.6758 1.4053 1.4124 0
M  V30 35 C -4.4284 4.3435 0.7831 0
M  V30 36 C -5.7378 2.2134 0.9824 0
M  V30 37 C -4.9903 0.0678 1.6898 0
M  V30 38 C -5.7089 3.5867 0.6597 0
M  V30 39 C -7.0203 1.7331 0.8022 0
M  V30 40 C -6.2935 -0.421 1.5065 0
M  V30 41 C -6.9837 3.9369 0.2808 0
M  V30 42 N -7.7691 2.805 0.3663 0
M  V30 43 C -7.3393 0.3993 1.0542 0
M  V30 44 H 2.6478 -3.3836 -1.2877 0
M  V30 45 H 4.8019 -2.1907 1.3289 0
M  V30 46 H 7.2553 -2.7341 -1.0091 0
M  V30 47 H 6.9673 -1.0832 -1.6124 0
M  V30 48 H 3.013 -1.0384 -3.1553 0
M  V30 49 H 1.5049 -1.0088 -2.2837 0
M  V30 50 H 5.9375 0.5406 0.5262 0
M  V30 51 H 6.0113 -0.247 2.1162 0
M  V30 52 H 8.1138 -0.5457 0.4513 0
M  V30 53 H 7.4717 -1.9915 1.254 0
M  V30 54 H 2.5759 0.6756 -0.4715 0
M  V30 55 H 3.4169 -2.7572 -4.883 0
M  V30 56 H -0.1419 -2.8831 -2.4448 0
M  V30 57 H 0.0528 -0.0487 2.8388 0
M  V30 58 H 2.4828 -2.6903 2.9659 0
M  V30 59 H 0.7385 -2.4715 3.2054 0
M  V30 60 H 1.8996 -1.3678 3.9705 0
M  V30 61 H 2.4156 -4.4132 -6.4128 0
M  V30 62 H -1.128 -4.54 -3.9859 0
M  V30 63 H 0.1431 -5.3091 -5.9741 0
M  V30 64 H -0.6259 2.1863 2.4584 0
M  V30 65 H -0.8575 2.8002 -0.5395 0
M  V30 66 H 0.1709 3.6312 0.5915 0
M  V30 67 H -2.1487 0.3124 2.0572 0
M  V30 68 H -2.2397 0.6686 0.3424 0
M  V30 69 H -3.283 2.4052 2.64 0
M  V30 70 H -3.25 2.9914 -0.376 0
M  V30 71 H -2.3997 5.6178 2.1093 0
M  V30 72 H -1.8138 4.1519 2.9194 0
M  V30 73 H -0.7009 5.2289 2.0622 0
M  V30 74 H -4.4292 4.8441 1.7578 0
M  V30 75 H -4.3661 5.1133 0.0054 0
M  V30 76 H -4.2291 -0.6178 2.0507 0
M  V30 77 H -6.501 -1.4676 1.7219 0
M  V30 78 H -7.4074 4.878 -0.0426 0
M  V30 79 H -8.7538 2.7643 0.1441 0
M  V30 80 H -8.3415 0.0101 0.9154 0
M  V30 END ATOM
M  V30 BEGIN BOND
M  V30 1 2 1 2
M  V30 2 1 2 3
M  V30 3 1 2 4
M  V30 4 1 3 5
M  V30 5 1 3 6
M  V30 6 1 4 7
M  V30 7 1 4 8
M  V30 8 1 5 9
M  V30 9 1 5 10
M  V30 10 1 6 11
M  V30 11 1 7 12
M  V30 12 1 8 13
M  V30 13 1 9 14
M  V30 14 1 9 15
M  V30 15 2 12 16
M  V30 16 1 12 17
M  V30 17 2 13 18
M  V30 18 1 13 19
M  V30 19 1 17 20
M  V30 20 1 17 21
M  V30 21 1 18 22
M  V30 22 2 19 23
M  V30 23 1 20 24
M  V30 24 2 22 25
M  V30 25 2 24 26
M  V30 26 1 24 27
M  V30 27 1 27 28
M  V30 28 1 27 29
M  V30 29 1 28 30
M  V30 30 1 29 31
M  V30 31 1 30 32
M  V30 32 1 30 33
M  V30 33 1 31 34
M  V30 34 1 32 35
M  V30 35 2 34 36
M  V30 36 1 34 37
M  V30 37 1 35 38
M  V30 38 1 36 39
M  V30 39 2 37 40
M  V30 40 2 38 41
M  V30 41 1 39 42
M  V30 42 2 39 43
M  V30 43 1 7 9
M  V30 44 1 10 11
M  V30 45 1 14 17
M  V30 46 1 23 25
M  V30 47 1 31 32
M  V30 48 1 36 38
M  V30 49 1 40 43
M  V30 50 1 41 42
M  V30 51 1 4 44
M  V30 52 1 5 45
M  V30 53 1 6 46
M  V30 54 1 6 47
M  V30 55 1 8 48
M  V30 56 1 8 49
M  V30 57 1 10 50
M  V30 58 1 10 51
M  V30 59 1 11 52
M  V30 60 1 11 53
M  V30 61 1 15 54
M  V30 62 1 18 55
M  V30 63 1 19 56
M  V30 64 1 20 57
M  V30 65 1 21 58
M  V30 66 1 21 59
M  V30 67 1 21 60
M  V30 68 1 22 61
M  V30 69 1 23 62
M  V30 70 1 25 63
M  V30 71 1 27 64
M  V30 72 1 28 65
M  V30 73 1 28 66
M  V30 74 1 29 67
M  V30 75 1 29 68
M  V30 76 1 31 69
M  V30 77 1 32 70
M  V30 78 1 33 71
M  V30 79 1 33 72
M  V30 80 1 33 73
M  V30 81 1 35 74
M  V30 82 1 35 75
M  V30 83 1 37 76
M  V30 84 1 40 77
M  V30 85 1 41 78
M  V30 86 1 42 79
M  V30 87 1 43 80
M  V30 END BOND
M  V30 BEGIN COLLECTION
M  V30 MDLV30/STEABS ATOMS=(7 4 5 9 17 27 31 32)
M  V30 END COLLECTION
M  V30 END CTAB
M  END
>  <NO.>
1884

>  <Name>
dihydroergotamine

>  <SMILES>
CN1C[C@H](C(=O)N[C@]2(C)O[C@@]3(O)[C@@H]4CCCN4C(=O)[C@H](Cc4ccccc4)N3C2=O)C[C@@H]2c3cccc4[nH]cc(c34)C[C@H]21

>  <logBB>


>  <Class>
-1

>  <MW>
583.28

>  <nHBAcc>
6

>  <nHBDon>
3

>  <SLogP>
2.08

>  <TopoPSA>
118.21

>  <MMFF94 Energy>
80.404

$$$$
CN1C[C@H](CN2CC(=O)NC(=O)C2)C=C2c3cccc4[nH]cc(c34)C[C@H]21
Actelion Java MolfileCreator 2.0

  0  0  0  0  0  0              0 V3000
M  V30 BEGIN CTAB
M  V30 COUNTS 48 52 0 0 0
M  V30 BEGIN ATOM
M  V30 1 O -4.5193 -4.2768 1.6122 0
M  V30 2 C -3.3449 -4.1145 1.9392 0
M  V30 3 N -2.8788 -4.5894 3.1377 0
M  V30 4 C -2.3183 -3.4679 1.0104 0
M  V30 5 C -1.5747 -4.5595 3.5595 0
M  V30 6 N -1.2036 -2.8742 1.7787 0
M  V30 7 O -1.2417 -5.0961 4.6146 0
M  V30 8 C -0.5659 -3.9194 2.6096 0
M  V30 9 C -0.1954 -2.2563 0.8939 0
M  V30 10 C -0.6673 -0.9777 0.1529 0 CFG=2
M  V30 11 C 0.4374 -0.4518 -0.7399 0
M  V30 12 C -1.1337 0.0992 1.1618 0
M  V30 13 C 0.7592 0.8559 -0.7955 0
M  V30 14 N -1.3357 1.4329 0.5651 0
M  V30 15 C 1.9305 1.3292 -1.5768 0
M  V30 16 C -0.048 1.9326 -0.0028 0 CFG=2
M  V30 17 C -2.4456 1.4224 -0.3872 0
M  V30 18 C 1.9752 2.7158 -1.7864 0
M  V30 19 C 3.0016 0.5775 -2.0794 0
M  V30 20 C -0.2132 3.3203 -0.7302 0
M  V30 21 C 3.0282 3.3233 -2.4517 0
M  V30 22 C 1.0488 3.7139 -1.4126 0
M  V30 23 C 4.0599 1.1969 -2.7604 0
M  V30 24 N 2.752 4.6739 -2.4625 0
M  V30 25 C 4.098 2.5848 -2.9599 0
M  V30 26 C 1.5498 4.9223 -1.8371 0
M  V30 27 H -3.55 -5.0253 3.7517 0
M  V30 28 H -2.8526 -2.6911 0.4543 0
M  V30 29 H -1.9659 -4.2317 0.3071 0
M  V30 30 H -0.1234 -4.7126 1.9952 0
M  V30 31 H 0.2184 -3.4706 3.23 0
M  V30 32 H 0.6799 -1.9808 1.499 0
M  V30 33 H 0.1599 -2.9959 0.1626 0
M  V30 34 H -1.5001 -1.2404 -0.5105 0
M  V30 35 H 0.9727 -1.188 -1.3309 0
M  V30 36 H -0.401 0.1939 1.9755 0
M  V30 37 H -2.0627 -0.2221 1.6501 0
M  V30 38 H 0.5862 2.1508 0.8722 0
M  V30 39 H -2.198 0.9301 -1.3333 0
M  V30 40 H -3.3195 0.9162 0.0399 0
M  V30 41 H -2.7806 2.4421 -0.6028 0
M  V30 42 H 3.0398 -0.4975 -1.9341 0
M  V30 43 H -0.9861 3.2688 -1.5054 0
M  V30 44 H -0.5143 4.0856 -0.0051 0
M  V30 45 H 4.8783 0.586 -3.1364 0
M  V30 46 H 3.3449 5.3772 -2.8804 0
M  V30 47 H 4.9238 3.055 -3.4824 0
M  V30 48 H 1.1617 5.9295 -1.7649 0
M  V30 END ATOM
M  V30 BEGIN BOND
M  V30 1 2 1 2
M  V30 2 1 2 3
M  V30 3 1 2 4
M  V30 4 1 3 5
M  V30 5 1 4 6
M  V30 6 2 5 7
M  V30 7 1 5 8
M  V30 8 1 6 9
M  V30 9 1 9 10
M  V30 10 1 10 11
M  V30 11 1 10 12
M  V30 12 2 11 13
M  V30 13 1 12 14
M  V30 14 1 13 15
M  V30 15 1 13 16
M  V30 16 1 14 17
M  V30 17 2 15 18
M  V30 18 1 15 19
M  V30 19 1 16 20
M  V30 20 1 18 21
M  V30 21 1 18 22
M  V30 22 2 19 23
M  V30 23 1 21 24
M  V30 24 2 21 25
M  V30 25 2 22 26
M  V30 26 1 6 8
M  V30 27 1 14 16
M  V30 28 1 20 22
M  V30 29 1 23 25
M  V30 30 1 24 26
M  V30 31 1 3 27
M  V30 32 1 4 28
M  V30 33 1 4 29
M  V30 34 1 8 30
M  V30 35 1 8 31
M  V30 36 1 9 32
M  V30 37 1 9 33
M  V30 38 1 10 34
M  V30 39 1 11 35
M  V30 40 1 12 36
M  V30 41 1 12 37
M  V30 42 1 16 38
M  V30 43 1 17 39
M  V30 44 1 17 40
M  V30 45 1 17 41
M  V30 46 1 19 42
M  V30 47 1 20 43
M  V30 48 1 20 44
M  V30 49 1 23 45
M  V30 50 1 24 46
M  V30 51 1 25 47
M  V30 52 1 26 48
M  V30 END BOND
M  V30 BEGIN COLLECTION
M  V30 MDLV30/STEABS ATOMS=(2 10 16)
M  V30 END COLLECTION
M  V30 END CTAB
M  END
>  <NO.>
1885

>  <Name>
romergoline

>  <SMILES>
CN1C[C@H](CN2CC(=O)NC(=O)C2)C=C2c3cccc4[nH]cc(c34)C[C@H]21

>  <logBB>


>  <Class>
1

>  <MW>
350.17

>  <nHBAcc>
4

>  <nHBDon>
2

>  <SLogP>
1

>  <TopoPSA>
68.44

>  <MMFF94 Energy>
136.28

$$$$
CN1Cc2c(N)cccc2C(c2ccccc2)C1
Actelion Java MolfileCreator 2.0

  0  0  0  0  0  0              0 V3000
M  V30 BEGIN CTAB
M  V30 COUNTS 36 38 0 0 0
M  V30 BEGIN ATOM
M  V30 1 N 2.3815 -0.0793 0.714 0
M  V30 2 C 2.3336 -0.1107 -0.7598 0
M  V30 3 C 1.1408 0.5179 1.2271 0
M  V30 4 C 3.5476 0.6756 1.168 0
M  V30 5 C 1.0824 -0.7502 -1.3361 0
M  V30 6 C -0.0777 -0.3829 0.9106 0 CFG=2
M  V30 7 C 1.0583 -1.1927 -2.6775 0
M  V30 8 C -0.0873 -0.8568 -0.5417 0
M  V30 9 C -1.3517 0.3307 1.3586 0
M  V30 10 N 2.1304 -1.0149 -3.5444 0
M  V30 11 C -0.123 -1.7428 -3.1929 0
M  V30 12 C -1.2346 -1.4663 -1.077 0
M  V30 13 C -2.0299 -0.1032 2.5084 0
M  V30 14 C -1.8583 1.4359 0.6545 0
M  V30 15 C -1.255 -1.8977 -2.3974 0
M  V30 16 C -3.1877 0.5476 2.9385 0
M  V30 17 C -3.0165 2.0841 1.0864 0
M  V30 18 C -3.6804 1.6401 2.2278 0
M  V30 19 H 2.4113 0.9037 -1.1738 0
M  V30 20 H 3.2055 -0.6859 -1.0926 0
M  V30 21 H 1.2066 0.6353 2.3174 0
M  V30 22 H 1.0079 1.5272 0.8118 0
M  V30 23 H 3.5227 1.7202 0.8372 0
M  V30 24 H 3.6103 0.6629 2.2618 0
M  V30 25 H 4.4708 0.2178 0.7959 0
M  V30 26 H 0.0324 -1.3015 1.5066 0
M  V30 27 H 3.0414 -0.751 -3.2014 0
M  V30 28 H 2.0898 -1.4283 -4.4666 0
M  V30 29 H -0.1672 -2.0655 -4.2297 0
M  V30 30 H -2.1275 -1.5942 -0.4684 0
M  V30 31 H -1.6604 -0.9535 3.0777 0
M  V30 32 H -1.3561 1.7923 -0.2428 0
M  V30 33 H -2.1542 -2.3459 -2.8102 0
M  V30 34 H -3.7055 0.2013 3.8293 0
M  V30 35 H -3.4012 2.9344 0.5295 0
M  V30 36 H -4.5825 2.145 2.563 0
M  V30 END ATOM
M  V30 BEGIN BOND
M  V30 1 1 1 2
M  V30 2 1 1 3
M  V30 3 1 1 4
M  V30 4 1 2 5
M  V30 5 1 3 6
M  V30 6 2 5 7
M  V30 7 1 5 8
M  V30 8 1 6 9
M  V30 9 1 7 10
M  V30 10 1 7 11
M  V30 11 2 8 12
M  V30 12 2 9 13
M  V30 13 1 9 14
M  V30 14 2 11 15
M  V30 15 1 13 16
M  V30 16 2 14 17
M  V30 17 2 16 18
M  V30 18 1 6 8
M  V30 19 1 12 15
M  V30 20 1 17 18
M  V30 21 1 2 19
M  V30 22 1 2 20
M  V30 23 1 3 21
M  V30 24 1 3 22
M  V30 25 1 4 23
M  V30 26 1 4 24
M  V30 27 1 4 25
M  V30 28 1 6 26
M  V30 29 1 10 27
M  V30 30 1 10 28
M  V30 31 1 11 29
M  V30 32 1 12 30
M  V30 33 1 13 31
M  V30 34 1 14 32
M  V30 35 1 15 33
M  V30 36 1 16 34
M  V30 37 1 17 35
M  V30 38 1 18 36
M  V30 END BOND
M  V30 BEGIN COLLECTION
M  V30 MDLV30/STERAC1 ATOMS=(1 6)
M  V30 END COLLECTION
M  V30 END CTAB
M  END
>  <NO.>
1886

>  <Name>
nomifensine

>  <SMILES>
CN1Cc2c(N)cccc2C(c2ccccc2)C1

>  <logBB>


>  <Class>
1

>  <MW>
238.15

>  <nHBAcc>
2

>  <nHBDon>
1

>  <SLogP>
2.85

>  <TopoPSA>
29.26

>  <MMFF94 Energy>
79.039

$$$$
CN1[C@H]2CC[C@@H]1CC(NC(=O)N1CC(C)(C)c3ccccc31)C2
Actelion Java MolfileCreator 2.0

  0  0  0  0  0  0              0 V3000
M  V30 BEGIN CTAB
M  V30 COUNTS 50 53 0 0 0
M  V30 BEGIN ATOM
M  V30 1 O 1.8297 1.4317 0.5566 0
M  V30 2 C 1.163 0.4092 0.4025 0
M  V30 3 N 1.7431 -0.8158 0.1729 0
M  V30 4 N -0.2046 0.4343 0.3906 0
M  V30 5 C 1.2229 -2.1184 0.2519 0
M  V30 6 C 3.1593 -0.9128 -0.1996 0
M  V30 7 C -0.972 1.6448 0.6462 0
M  V30 8 C 2.1191 -3.022 -0.3314 0
M  V30 9 C 0.069 -2.5681 0.8743 0
M  V30 10 C 3.3453 -2.3046 -0.8535 0
M  V30 11 C -1.0834 2.5102 -0.621 0
M  V30 12 C -2.3473 1.2996 1.2395 0
M  V30 13 C 1.8367 -4.3816 -0.3729 0
M  V30 14 C -0.2186 -3.936 0.841 0
M  V30 15 C 4.6559 -2.9523 -0.4015 0
M  V30 16 C 3.2928 -2.2059 -2.3831 0
M  V30 17 C -2.1875 3.5774 -0.5074 0 CFG=1
M  V30 18 C -3.329 2.4842 1.1754 0 CFG=2
M  V30 19 C 0.6538 -4.8349 0.2122 0
M  V30 20 N -3.4953 2.9943 -0.1886 0
M  V30 21 C -1.992 4.4628 0.7305 0
M  V30 22 C -2.7509 3.7354 1.85 0
M  V30 23 C -4.0302 2.0601 -1.1612 0
M  V30 24 H -0.6598 -0.3347 -0.0769 0
M  V30 25 H 3.7382 -0.8083 0.7275 0
M  V30 26 H 3.4403 -0.0858 -0.862 0
M  V30 27 H -0.4146 2.2187 1.3981 0
M  V30 28 H -0.5924 -1.9016 1.4157 0
M  V30 29 H -0.1197 3.0 -0.811 0
M  V30 30 H -1.2686 1.8756 -1.4968 0
M  V30 31 H -2.779 0.4332 0.7225 0
M  V30 32 H -2.2172 0.9839 2.2829 0
M  V30 33 H 2.5199 -5.0842 -0.8398 0
M  V30 34 H -1.1201 -4.3096 1.3215 0
M  V30 35 H 5.5159 -2.3414 -0.6978 0
M  V30 36 H 4.6898 -3.0733 0.6875 0
M  V30 37 H 4.7856 -3.9466 -0.8434 0
M  V30 38 H 4.134 -1.6176 -2.7665 0
M  V30 39 H 2.368 -1.7277 -2.7273 0
M  V30 40 H 3.3391 -3.1977 -2.8474 0
M  V30 41 H -2.2213 4.1867 -1.4171 0
M  V30 42 H -4.2868 2.2078 1.6295 0
M  V30 43 H 0.4157 -5.8961 0.1981 0
M  V30 44 H -0.9378 4.6168 0.9834 0
M  V30 45 H -2.4421 5.4508 0.5718 0
M  V30 46 H -3.5577 4.3814 2.2183 0
M  V30 47 H -2.1015 3.501 2.6998 0
M  V30 48 H -5.0249 1.7228 -0.8496 0
M  V30 49 H -3.4118 1.1722 -1.3202 0
M  V30 50 H -4.1561 2.5574 -2.1292 0
M  V30 END ATOM
M  V30 BEGIN BOND
M  V30 1 2 1 2
M  V30 2 1 2 3
M  V30 3 1 2 4
M  V30 4 1 3 5
M  V30 5 1 3 6
M  V30 6 1 4 7
M  V30 7 2 5 8
M  V30 8 1 5 9
M  V30 9 1 6 10
M  V30 10 1 7 11
M  V30 11 1 7 12
M  V30 12 1 8 13
M  V30 13 2 9 14
M  V30 14 1 10 15
M  V30 15 1 10 16
M  V30 16 1 11 17
M  V30 17 1 12 18
M  V30 18 2 13 19
M  V30 19 1 17 20
M  V30 20 1 17 21
M  V30 21 1 18 22
M  V30 22 1 20 23
M  V30 23 1 8 10
M  V30 24 1 14 19
M  V30 25 1 18 20
M  V30 26 1 21 22
M  V30 27 1 4 24
M  V30 28 1 6 25
M  V30 29 1 6 26
M  V30 30 1 7 27
M  V30 31 1 9 28
M  V30 32 1 11 29
M  V30 33 1 11 30
M  V30 34 1 12 31
M  V30 35 1 12 32
M  V30 36 1 13 33
M  V30 37 1 14 34
M  V30 38 1 15 35
M  V30 39 1 15 36
M  V30 40 1 15 37
M  V30 41 1 16 38
M  V30 42 1 16 39
M  V30 43 1 16 40
M  V30 44 1 17 41
M  V30 45 1 18 42
M  V30 46 1 19 43
M  V30 47 1 21 44
M  V30 48 1 21 45
M  V30 49 1 22 46
M  V30 50 1 22 47
M  V30 51 1 23 48
M  V30 52 1 23 49
M  V30 53 1 23 50
M  V30 END BOND
M  V30 BEGIN COLLECTION
M  V30 MDLV30/STEABS ATOMS=(2 17 18)
M  V30 END COLLECTION
M  V30 END CTAB
M  END
>  <NO.>
1888

>  <Name>
ricasetron

>  <SMILES>
CN1[C@H]2CC[C@@H]1CC(NC(=O)N1CC(C)(C)c3ccccc31)C2

>  <logBB>


>  <Class>
1

>  <MW>
313.22

>  <nHBAcc>
2

>  <nHBDon>
1

>  <SLogP>
3.12

>  <TopoPSA>
35.58

>  <MMFF94 Energy>
-9.5686

$$$$
CN1[C@H]2CC[C@@H]1CC(NC(=O)c1cn(C3CCCCC3)c3ccccc3c1=O)C2
Actelion Java MolfileCreator 2.0

  0  0  0  0  0  0              0 V3000
M  V30 BEGIN CTAB
M  V30 COUNTS 60 64 0 0 0
M  V30 BEGIN ATOM
M  V30 1 O 2.2436 0.2402 -1.2816 0
M  V30 2 C 1.8685 -0.3634 -0.2777 0
M  V30 3 C 0.5168 -0.157 0.2877 0
M  V30 4 C 2.7525 -1.3521 0.3875 0
M  V30 5 C -0.5385 0.7025 -0.3216 0
M  V30 6 C 0.2417 -0.7948 1.4348 0
M  V30 7 C 2.3342 -1.9819 1.5819 0
M  V30 8 C 3.9853 -1.6499 -0.2175 0
M  V30 9 O -1.6637 0.7889 0.1639 0
M  V30 10 N -0.1608 1.3781 -1.4543 0
M  V30 11 N 1.0903 -1.6241 2.1634 0
M  V30 12 C 3.1982 -2.9595 2.1063 0
M  V30 13 C 4.8248 -2.6027 0.3458 0
M  V30 14 C -1.0691 2.2248 -2.2135 0
M  V30 15 C 0.7107 -2.1742 3.4931 0
M  V30 16 C 4.4269 -3.262 1.5018 0
M  V30 17 C -0.3002 3.3352 -2.9473 0
M  V30 18 C -1.9359 1.3864 -3.1685 0
M  V30 19 C 0.1108 -1.1026 4.4267 0
M  V30 20 C -0.2504 -3.3599 3.3265 0
M  V30 21 C -1.1455 4.0087 -4.0444 0 CFG=1
M  V30 22 C -2.6227 2.2463 -4.2454 0 CFG=2
M  V30 23 C -0.268 -1.7049 5.7799 0
M  V30 24 C -0.6497 -3.9487 4.6786 0
M  V30 25 N -1.6646 3.0437 -5.0186 0
M  V30 26 C -2.4694 4.5487 -3.487 0
M  V30 27 C -3.4522 3.3765 -3.6211 0
M  V30 28 C -1.2199 -2.8872 5.616 0
M  V30 29 C -0.6705 2.2942 -5.7648 0
M  V30 30 H -0.7441 -0.6797 1.8792 0
M  V30 31 H 4.2857 -1.1447 -1.1332 0
M  V30 32 H 0.7831 1.2209 -1.8113 0
M  V30 33 H 2.9448 -3.5382 2.9881 0
M  V30 34 H 5.7773 -2.8383 -0.1215 0
M  V30 35 H -1.7367 2.7025 -1.4845 0
M  V30 36 H 1.5977 -2.5224 4.0317 0
M  V30 37 H 5.0698 -4.0229 1.9392 0
M  V30 38 H 0.0238 4.0879 -2.2168 0
M  V30 39 H 0.6226 2.9352 -3.3857 0
M  V30 40 H -1.3276 0.6081 -3.6462 0
M  V30 41 H -2.6973 0.8497 -2.588 0
M  V30 42 H -0.7886 -0.65 3.9953 0
M  V30 43 H 0.8329 -0.2904 4.5744 0
M  V30 44 H -1.1547 -3.0429 2.7914 0
M  V30 45 H 0.2154 -4.1413 2.7144 0
M  V30 46 H -0.5733 4.8093 -4.5256 0
M  V30 47 H -3.2477 1.6187 -4.89 0
M  V30 48 H -0.7379 -0.9377 6.4058 0
M  V30 49 H 0.6384 -2.033 6.303 0
M  V30 50 H -1.3888 -4.7439 4.5298 0
M  V30 51 H 0.2277 -4.4126 5.1459 0
M  V30 52 H -2.8267 5.3909 -4.0927 0
M  V30 53 H -2.3866 4.8976 -2.4524 0
M  V30 54 H -3.8941 3.1003 -2.6581 0
M  V30 55 H -4.2718 3.667 -4.2903 0
M  V30 56 H -2.179 -2.5302 5.2205 0
M  V30 57 H -1.4251 -3.3332 6.5958 0
M  V30 58 H -1.163 1.6393 -6.4919 0
M  V30 59 H -0.016 1.6733 -5.1466 0
M  V30 60 H -0.0369 2.9797 -6.3381 0
M  V30 END ATOM
M  V30 BEGIN BOND
M  V30 1 2 1 2
M  V30 2 1 2 3
M  V30 3 1 2 4
M  V30 4 1 3 5
M  V30 5 2 3 6
M  V30 6 2 4 7
M  V30 7 1 4 8
M  V30 8 2 5 9
M  V30 9 1 5 10
M  V30 10 1 6 11
M  V30 11 1 7 12
M  V30 12 2 8 13
M  V30 13 1 10 14
M  V30 14 1 11 15
M  V30 15 2 12 16
M  V30 16 1 14 17
M  V30 17 1 14 18
M  V30 18 1 15 19
M  V30 19 1 15 20
M  V30 20 1 17 21
M  V30 21 1 18 22
M  V30 22 1 19 23
M  V30 23 1 20 24
M  V30 24 1 21 25
M  V30 25 1 21 26
M  V30 26 1 22 27
M  V30 27 1 23 28
M  V30 28 1 25 29
M  V30 29 1 7 11
M  V30 30 1 13 16
M  V30 31 1 22 25
M  V30 32 1 24 28
M  V30 33 1 26 27
M  V30 34 1 6 30
M  V30 35 1 8 31
M  V30 36 1 10 32
M  V30 37 1 12 33
M  V30 38 1 13 34
M  V30 39 1 14 35
M  V30 40 1 15 36
M  V30 41 1 16 37
M  V30 42 1 17 38
M  V30 43 1 17 39
M  V30 44 1 18 40
M  V30 45 1 18 41
M  V30 46 1 19 42
M  V30 47 1 19 43
M  V30 48 1 20 44
M  V30 49 1 20 45
M  V30 50 1 21 46
M  V30 51 1 22 47
M  V30 52 1 23 48
M  V30 53 1 23 49
M  V30 54 1 24 50
M  V30 55 1 24 51
M  V30 56 1 26 52
M  V30 57 1 26 53
M  V30 58 1 27 54
M  V30 59 1 27 55
M  V30 60 1 28 56
M  V30 61 1 28 57
M  V30 62 1 29 58
M  V30 63 1 29 59
M  V30 64 1 29 60
M  V30 END BOND
M  V30 BEGIN COLLECTION
M  V30 MDLV30/STEABS ATOMS=(2 21 22)
M  V30 END COLLECTION
M  V30 END CTAB
M  END
>  <NO.>
1889

>  <Name>
mirisetron

>  <SMILES>
CN1[C@H]2CC[C@@H]1CC(NC(=O)c1cn(C3CCCCC3)c3ccccc3c1=O)C2

>  <logBB>


>  <Class>
1

>  <MW>
393.24

>  <nHBAcc>
3

>  <nHBDon>
1

>  <SLogP>
3.86

>  <TopoPSA>
54.34

>  <MMFF94 Energy>
44.558

$$$$
CN1c2cc(F)ccc2C(c2ccccc2)=NCC1CNC(=O)c1ccoc1
Actelion Java MolfileCreator 2.0

  0  0  0  0  0  0              0 V3000
M  V30 BEGIN CTAB
M  V30 COUNTS 48 51 0 0 0
M  V30 BEGIN ATOM
M  V30 1 F 2.8897 2.8093 0.4811 0
M  V30 2 C 2.2516 1.6321 0.4597 0
M  V30 3 C 0.8703 1.5984 0.6411 0
M  V30 4 C 2.9768 0.4705 0.2445 0
M  V30 5 C 0.1601 0.387 0.6046 0
M  V30 6 C 2.309 -0.7493 0.2255 0
M  V30 7 N -1.2186 0.3694 0.7483 0
M  V30 8 C 0.9157 -0.7921 0.4214 0
M  V30 9 C -2.0892 -0.3307 -0.2351 0 CFG=2
M  V30 10 C -1.8561 1.2562 1.7153 0
M  V30 11 C 0.256 -2.1336 0.4592 0
M  V30 12 C -1.3637 -1.3969 -1.0865 0
M  V30 13 C -2.8012 0.6802 -1.1763 0
M  V30 14 N -0.7855 -2.4471 -0.2439 0
M  V30 15 C 0.8326 -3.1857 1.3553 0
M  V30 16 N -1.8867 1.5847 -1.8603 0
M  V30 17 C 0.7545 -4.5286 0.9665 0
M  V30 18 C 1.4197 -2.8536 2.583 0
M  V30 19 C -1.8837 2.9417 -1.635 0
M  V30 20 C 1.2842 -5.5278 1.7847 0
M  V30 21 C 1.9482 -3.8565 3.3989 0
M  V30 22 O -2.7126 3.5078 -0.9298 0
M  V30 23 C -0.8135 3.6688 -2.2997 0
M  V30 24 C 1.8838 -5.1907 2.9977 0
M  V30 25 C -0.7103 5.0472 -2.2971 0
M  V30 26 C 0.3201 3.2175 -3.0403 0
M  V30 27 O 0.3852 5.459 -2.9823 0
M  V30 28 C 1.0104 4.3422 -3.429 0
M  V30 29 H 0.3554 2.5444 0.7797 0
M  V30 30 H 4.0511 0.5229 0.1 0
M  V30 31 H 2.8739 -1.6641 0.0622 0
M  V30 32 H -2.8689 -0.854 0.335 0
M  V30 33 H -1.9003 2.2853 1.3477 0
M  V30 34 H -1.3165 1.2461 2.6692 0
M  V30 35 H -2.8809 0.9308 1.925 0
M  V30 36 H -0.6072 -0.9632 -1.7528 0
M  V30 37 H -2.0931 -1.8799 -1.7483 0
M  V30 38 H -3.3606 0.1466 -1.9527 0
M  V30 39 H -3.5288 1.2626 -0.6006 0
M  V30 40 H -1.1932 1.1864 -2.4735 0
M  V30 41 H 0.2801 -4.7983 0.0257 0
M  V30 42 H 1.4547 -1.8231 2.9262 0
M  V30 43 H 1.2223 -6.5686 1.4776 0
M  V30 44 H 2.4013 -3.5977 4.3527 0
M  V30 45 H 2.2914 -5.9704 3.6365 0
M  V30 46 H -1.3172 5.8329 -1.8668 0
M  V30 47 H 0.6169 2.2022 -3.2581 0
M  V30 48 H 1.918 4.5088 -3.9926 0
M  V30 END ATOM
M  V30 BEGIN BOND
M  V30 1 1 1 2
M  V30 2 2 2 3
M  V30 3 1 2 4
M  V30 4 1 3 5
M  V30 5 2 4 6
M  V30 6 1 5 7
M  V30 7 2 5 8
M  V30 8 1 7 9
M  V30 9 1 7 10
M  V30 10 1 8 11
M  V30 11 1 9 12
M  V30 12 1 9 13
M  V30 13 2 11 14
M  V30 14 1 11 15
M  V30 15 1 13 16
M  V30 16 2 15 17
M  V30 17 1 15 18
M  V30 18 1 16 19
M  V30 19 1 17 20
M  V30 20 2 18 21
M  V30 21 2 19 22
M  V30 22 1 19 23
M  V30 23 2 20 24
M  V30 24 2 23 25
M  V30 25 1 23 26
M  V30 26 1 25 27
M  V30 27 2 26 28
M  V30 28 1 6 8
M  V30 29 1 12 14
M  V30 30 1 21 24
M  V30 31 1 27 28
M  V30 32 1 3 29
M  V30 33 1 4 30
M  V30 34 1 6 31
M  V30 35 1 9 32
M  V30 36 1 10 33
M  V30 37 1 10 34
M  V30 38 1 10 35
M  V30 39 1 12 36
M  V30 40 1 12 37
M  V30 41 1 13 38
M  V30 42 1 13 39
M  V30 43 1 16 40
M  V30 44 1 17 41
M  V30 45 1 18 42
M  V30 46 1 20 43
M  V30 47 1 21 44
M  V30 48 1 24 45
M  V30 49 1 25 46
M  V30 50 1 26 47
M  V30 51 1 28 48
M  V30 END BOND
M  V30 BEGIN COLLECTION
M  V30 MDLV30/STERAC1 ATOMS=(1 9)
M  V30 END COLLECTION
M  V30 END CTAB
M  END
>  <NO.>
1890

>  <Name>
lufuradom

>  <SMILES>
CN1c2cc(F)ccc2C(c2ccccc2)=NCC1CNC(=O)c1ccoc1

>  <logBB>


>  <Class>
1

>  <MW>
377.15

>  <nHBAcc>
4

>  <nHBDon>
1

>  <SLogP>
3.5

>  <TopoPSA>
57.84

>  <MMFF94 Energy>
115.81

$$$$
CN1c2ccccc2C(NCCCCCCC(=O)O)c2ccc(Cl)cc2S1(=O)=O
Actelion Java MolfileCreator 2.0

  0  0  0  0  0  0              0 V3000
M  V30 BEGIN CTAB
M  V30 COUNTS 54 56 0 0 0
M  V30 BEGIN ATOM
M  V30 1 Cl -3.3303 -4.958 -2.9238 0
M  V30 2 C -2.4085 -3.5555 -2.552 0
M  V30 3 C -2.7505 -2.3314 -3.1085 0
M  V30 4 C -1.3183 -3.6501 -1.6992 0
M  V30 5 C -1.9991 -1.178 -2.8065 0
M  V30 6 C -0.5658 -2.5099 -1.3976 0
M  V30 7 S -2.5802 0.2952 -3.6458 0
M  V30 8 C -0.8894 -1.2412 -1.929 0
M  V30 9 O -3.7849 0.6908 -2.9432 0
M  V30 10 O -2.6245 -0.0208 -5.06 0
M  V30 11 N -1.4423 1.543 -3.4362 0
M  V30 12 C -0.0379 -0.0053 -1.6215 0 CFG=1
M  V30 13 C -0.0953 1.2151 -3.8124 0
M  V30 14 C -1.9448 2.8762 -3.8323 0
M  V30 15 N 0.9272 -0.1318 -0.5132 0
M  V30 16 C 0.6501 0.4442 -2.9057 0
M  V30 17 C 0.4277 1.5413 -5.067 0
M  V30 18 C 0.3074 -0.0629 0.8076 0
M  V30 19 C 1.9483 0.0473 -3.266 0
M  V30 20 C 1.722 1.149 -5.4054 0
M  V30 21 C 1.3798 -0.2437 1.8851 0
M  V30 22 C 2.4836 0.4098 -4.5035 0
M  V30 23 C 0.7744 -0.1605 3.2891 0
M  V30 24 C 1.8472 -0.3378 4.3658 0
M  V30 25 C 1.2805 -0.3746 5.7875 0
M  V30 26 C 0.6488 0.9465 6.2245 0
M  V30 27 C 0.227 0.9073 7.669 0
M  V30 28 O 0.2677 -0.043 8.4305 0
M  V30 29 O -0.2471 2.0986 8.0847 0
M  V30 30 H -3.6024 -2.2667 -3.7844 0
M  V30 31 H -1.0415 -4.6082 -1.2657 0
M  V30 32 H 0.2828 -2.6447 -0.7321 0
M  V30 33 H -0.7216 0.7904 -1.2984 0
M  V30 34 H -1.1752 3.6389 -3.6715 0
M  V30 35 H -2.8005 3.1549 -3.2094 0
M  V30 36 H -2.2451 2.8957 -4.8843 0
M  V30 37 H 1.4976 -0.9631 -0.6208 0
M  V30 38 H -0.1643 2.0859 -5.7962 0
M  V30 39 H -0.175 0.9124 0.9417 0
M  V30 40 H -0.4591 -0.8358 0.9289 0
M  V30 41 H 2.5532 -0.5543 -2.5934 0
M  V30 42 H 2.1314 1.4085 -6.3785 0
M  V30 43 H 2.1516 0.5285 1.7744 0
M  V30 44 H 1.8733 -1.2156 1.7581 0
M  V30 45 H 3.4905 0.0983 -4.7711 0
M  V30 46 H 0.0065 -0.935 3.4038 0
M  V30 47 H 0.2792 0.8096 3.4085 0
M  V30 48 H 2.5888 0.4662 4.2863 0
M  V30 49 H 2.3819 -1.2789 4.187 0
M  V30 50 H 2.0966 -0.6291 6.4759 0
M  V30 51 H 0.5446 -1.1841 5.8717 0
M  V30 52 H 1.3725 1.76 6.1021 0
M  V30 53 H -0.2404 1.1627 5.6241 0
M  V30 54 H -0.4891 1.9439 9.0221 0
M  V30 END ATOM
M  V30 BEGIN BOND
M  V30 1 1 1 2
M  V30 2 2 2 3
M  V30 3 1 2 4
M  V30 4 1 3 5
M  V30 5 2 4 6
M  V30 6 1 5 7
M  V30 7 2 5 8
M  V30 8 2 7 9
M  V30 9 2 7 10
M  V30 10 1 7 11
M  V30 11 1 8 12
M  V30 12 1 11 13
M  V30 13 1 11 14
M  V30 14 1 12 15
M  V30 15 1 12 16
M  V30 16 1 13 17
M  V30 17 1 15 18
M  V30 18 1 16 19
M  V30 19 2 17 20
M  V30 20 1 18 21
M  V30 21 2 19 22
M  V30 22 1 21 23
M  V30 23 1 23 24
M  V30 24 1 24 25
M  V30 25 1 25 26
M  V30 26 1 26 27
M  V30 27 2 27 28
M  V30 28 1 27 29
M  V30 29 1 6 8
M  V30 30 2 13 16
M  V30 31 1 20 22
M  V30 32 1 3 30
M  V30 33 1 4 31
M  V30 34 1 6 32
M  V30 35 1 12 33
M  V30 36 1 14 34
M  V30 37 1 14 35
M  V30 38 1 14 36
M  V30 39 1 15 37
M  V30 40 1 17 38
M  V30 41 1 18 39
M  V30 42 1 18 40
M  V30 43 1 19 41
M  V30 44 1 20 42
M  V30 45 1 21 43
M  V30 46 1 21 44
M  V30 47 1 22 45
M  V30 48 1 23 46
M  V30 49 1 23 47
M  V30 50 1 24 48
M  V30 51 1 24 49
M  V30 52 1 25 50
M  V30 53 1 25 51
M  V30 54 1 26 52
M  V30 55 1 26 53
M  V30 56 1 29 54
M  V30 END BOND
M  V30 BEGIN COLLECTION
M  V30 MDLV30/STERAC1 ATOMS=(1 12)
M  V30 END COLLECTION
M  V30 END CTAB
M  END
>  <NO.>
1891

>  <Name>
tianeptine

>  <SMILES>
CN1c2ccccc2C(NCCCCCCC(=O)O)c2ccc(Cl)cc2S1(=O)=O

>  <logBB>


>  <Class>
1

>  <MW>
436.12

>  <nHBAcc>
4

>  <nHBDon>
2

>  <SLogP>
4.19

>  <TopoPSA>
86.71

>  <MMFF94 Energy>
-13.143

$$$$
CN1c2ccccc2C(c2ccccc2Cl)=NCC1(Cl)CO
Actelion Java MolfileCreator 2.0

  0  0  0  0  0  0              0 V3000
M  V30 BEGIN CTAB
M  V30 COUNTS 38 40 0 0 0
M  V30 BEGIN ATOM
M  V30 1 Cl -2.5363 -2.1269 -2.6182 0
M  V30 2 C -1.1333 -2.835 -1.9031 0
M  V30 3 C -0.2511 -2.1101 -1.0958 0
M  V30 4 C -0.9126 -4.2003 -2.1077 0
M  V30 5 C -0.4157 -0.6566 -0.8544 0
M  V30 6 C 0.8485 -2.7443 -0.502 0
M  V30 7 C 0.1822 -4.8337 -1.5139 0
M  V30 8 N -0.2193 0.1402 -1.8508 0
M  V30 9 C -0.7619 -0.2255 0.528 0
M  V30 10 C 1.0616 -4.1066 -0.7118 0
M  V30 11 C -0.3398 1.5856 -1.5834 0
M  V30 12 C -0.0168 0.7803 1.179 0
M  V30 13 C -1.8344 -0.8741 1.1661 0
M  V30 14 C 0.836 2.1447 -0.7341 0 CFG=1
M  V30 15 N 1.0568 1.4348 0.5694 0
M  V30 16 C -0.3928 1.084 2.5022 0
M  V30 17 C -2.181 -0.5399 2.4709 0
M  V30 18 Cl 2.3563 1.95 -1.7054 0
M  V30 19 C 0.6031 3.6629 -0.4649 0
M  V30 20 C 2.1846 1.8245 1.4141 0
M  V30 21 C -1.4578 0.4378 3.14 0
M  V30 22 O 0.2447 4.4109 -1.6281 0
M  V30 23 H -1.5917 -4.7779 -2.7299 0
M  V30 24 H 1.5479 -2.1738 0.1052 0
M  V30 25 H 0.3511 -5.8948 -1.6819 0
M  V30 26 H 1.9191 -4.5982 -0.2586 0
M  V30 27 H -0.3695 2.087 -2.5589 0
M  V30 28 H -1.3099 1.8087 -1.1186 0
M  V30 29 H -2.4133 -1.6341 0.6477 0
M  V30 30 H 0.13 1.8538 3.0635 0
M  V30 31 H -3.0125 -1.0396 2.9611 0
M  V30 32 H -0.2095 3.788 0.2602 0
M  V30 33 H 1.4987 4.1248 -0.0337 0
M  V30 34 H 1.954 2.7288 1.988 0
M  V30 35 H 3.0901 2.0293 0.8371 0
M  V30 36 H 2.4457 1.0214 2.1135 0
M  V30 37 H -1.7216 0.707 4.16 0
M  V30 38 H 0.2088 5.348 -1.3699 0
M  V30 END ATOM
M  V30 BEGIN BOND
M  V30 1 1 1 2
M  V30 2 2 2 3
M  V30 3 1 2 4
M  V30 4 1 3 5
M  V30 5 1 3 6
M  V30 6 2 4 7
M  V30 7 2 5 8
M  V30 8 1 5 9
M  V30 9 2 6 10
M  V30 10 1 8 11
M  V30 11 2 9 12
M  V30 12 1 9 13
M  V30 13 1 11 14
M  V30 14 1 12 15
M  V30 15 1 12 16
M  V30 16 2 13 17
M  V30 17 1 14 18
M  V30 18 1 14 19
M  V30 19 1 15 20
M  V30 20 2 16 21
M  V30 21 1 19 22
M  V30 22 1 7 10
M  V30 23 1 14 15
M  V30 24 1 17 21
M  V30 25 1 4 23
M  V30 26 1 6 24
M  V30 27 1 7 25
M  V30 28 1 10 26
M  V30 29 1 11 27
M  V30 30 1 11 28
M  V30 31 1 13 29
M  V30 32 1 16 30
M  V30 33 1 17 31
M  V30 34 1 19 32
M  V30 35 1 19 33
M  V30 36 1 20 34
M  V30 37 1 20 35
M  V30 38 1 20 36
M  V30 39 1 21 37
M  V30 40 1 22 38
M  V30 END BOND
M  V30 BEGIN COLLECTION
M  V30 MDLV30/STERAC1 ATOMS=(1 14)
M  V30 END COLLECTION
M  V30 END CTAB
M  END
>  <NO.>
1892

>  <Name>
tuclazepam

>  <SMILES>
CN1c2ccccc2C(c2ccccc2Cl)=NCC1(Cl)CO

>  <logBB>


>  <Class>
1

>  <MW>
334.06

>  <nHBAcc>
3

>  <nHBDon>
1

>  <SLogP>
3.55

>  <TopoPSA>
35.83

>  <MMFF94 Energy>
183.09

$$$$
CN1c2ccccc2C(c2ccccc2F)=NCC1CNC(=O)c1ccsc1
Actelion Java MolfileCreator 2.0

  0  0  0  0  0  0              0 V3000
M  V30 BEGIN CTAB
M  V30 COUNTS 48 51 0 0 0
M  V30 BEGIN ATOM
M  V30 1 S -6.42 -4.2224 0.4865 0
M  V30 2 C -5.5248 -2.8237 0.8858 0
M  V30 3 C -5.0183 -5.1935 0.5355 0
M  V30 4 C -4.1714 -3.0663 1.0648 0
M  V30 5 C -3.8932 -4.4626 0.8526 0
M  V30 6 C -3.2472 -1.9817 1.4139 0
M  V30 7 O -3.6224 -0.8196 1.533 0
M  V30 8 N -1.9338 -2.3549 1.5981 0
M  V30 9 C -0.8987 -1.3927 1.9446 0
M  V30 10 C 0.0076 -0.994 0.7509 0 CFG=2
M  V30 11 N 1.2335 -0.3164 1.2555 0
M  V30 12 C -0.7969 -0.1689 -0.2776 0
M  V30 13 C 1.3179 1.0682 1.2648 0
M  V30 14 C 2.2211 -1.1017 1.9794 0
M  V30 15 N 0.0375 0.2241 -1.4213 0
M  V30 16 C 1.1256 1.8394 0.0995 0
M  V30 17 C 1.6229 1.7636 2.4466 0
M  V30 18 C 0.8978 1.1682 -1.2152 0
M  V30 19 C 1.2018 3.242 0.1285 0
M  V30 20 C 1.7049 3.1603 2.4781 0
M  V30 21 C 1.7477 1.5922 -2.3563 0
M  V30 22 C 1.4889 3.8999 1.3207 0
M  V30 23 C 1.1673 1.9606 -3.5694 0
M  V30 24 C 3.1417 1.6072 -2.2176 0
M  V30 25 F -0.1643 1.9941 -3.7223 0
M  V30 26 C 1.9663 2.3493 -4.6425 0
M  V30 27 C 3.9423 1.9962 -3.2941 0
M  V30 28 C 3.3551 2.3668 -4.5056 0
M  V30 29 H -6.0323 -1.871 0.9741 0
M  V30 30 H -5.0844 -6.2529 0.328 0
M  V30 31 H -2.9185 -4.9268 0.9213 0
M  V30 32 H -1.6668 -3.3211 1.4957 0
M  V30 33 H -0.3033 -1.8801 2.7245 0
M  V30 34 H -1.3461 -0.5012 2.3996 0
M  V30 35 H 0.3343 -1.9124 0.244 0
M  V30 36 H -1.2821 0.7037 0.1791 0
M  V30 37 H -1.6123 -0.7824 -0.6775 0
M  V30 38 H 3.2317 -0.7104 1.817 0
M  V30 39 H 2.2201 -2.1411 1.6338 0
M  V30 40 H 2.0127 -1.1071 3.0543 0
M  V30 41 H 1.7734 1.2215 3.3764 0
M  V30 42 H 1.0315 3.8251 -0.7729 0
M  V30 43 H 1.9272 3.6673 3.4139 0
M  V30 44 H 1.5428 4.9852 1.3467 0
M  V30 45 H 3.6065 1.3026 -1.2831 0
M  V30 46 H 1.4975 2.6384 -5.5781 0
M  V30 47 H 5.0248 2.0037 -3.1901 0
M  V30 48 H 3.9793 2.6671 -5.3438 0
M  V30 END ATOM
M  V30 BEGIN BOND
M  V30 1 1 1 2
M  V30 2 1 1 3
M  V30 3 2 2 4
M  V30 4 2 3 5
M  V30 5 1 4 6
M  V30 6 2 6 7
M  V30 7 1 6 8
M  V30 8 1 8 9
M  V30 9 1 9 10
M  V30 10 1 10 11
M  V30 11 1 10 12
M  V30 12 1 11 13
M  V30 13 1 11 14
M  V30 14 1 12 15
M  V30 15 2 13 16
M  V30 16 1 13 17
M  V30 17 2 15 18
M  V30 18 1 16 19
M  V30 19 2 17 20
M  V30 20 1 18 21
M  V30 21 2 19 22
M  V30 22 2 21 23
M  V30 23 1 21 24
M  V30 24 1 23 25
M  V30 25 1 23 26
M  V30 26 2 24 27
M  V30 27 2 26 28
M  V30 28 1 4 5
M  V30 29 1 16 18
M  V30 30 1 20 22
M  V30 31 1 27 28
M  V30 32 1 2 29
M  V30 33 1 3 30
M  V30 34 1 5 31
M  V30 35 1 8 32
M  V30 36 1 9 33
M  V30 37 1 9 34
M  V30 38 1 10 35
M  V30 39 1 12 36
M  V30 40 1 12 37
M  V30 41 1 14 38
M  V30 42 1 14 39
M  V30 43 1 14 40
M  V30 44 1 17 41
M  V30 45 1 19 42
M  V30 46 1 20 43
M  V30 47 1 22 44
M  V30 48 1 24 45
M  V30 49 1 26 46
M  V30 50 1 27 47
M  V30 51 1 28 48
M  V30 END BOND
M  V30 BEGIN COLLECTION
M  V30 MDLV30/STERAC1 ATOMS=(1 10)
M  V30 END COLLECTION
M  V30 END CTAB
M  END
>  <NO.>
1893

>  <Name>
tifluadom

>  <SMILES>
CN1c2ccccc2C(c2ccccc2F)=NCC1CNC(=O)c1ccsc1

>  <logBB>


>  <Class>
1

>  <MW>
393.13

>  <nHBAcc>
4

>  <nHBDon>
1

>  <SLogP>
3.97

>  <TopoPSA>
44.7

>  <MMFF94 Energy>
132.27

$$$$
CN=C(Cc1ccc2ccccc2c1)NC
Actelion Java MolfileCreator 2.0

  0  0  0  0  0  0              0 V3000
M  V30 BEGIN CTAB
M  V30 COUNTS 32 33 0 0 0
M  V30 BEGIN ATOM
M  V30 1 N -2.512 -2.1192 1.5694 0
M  V30 2 C -1.2939 -1.8432 1.2307 0
M  V30 3 C -3.236 -1.2452 2.4742 0
M  V30 4 N -0.6149 -2.6823 0.3748 0
M  V30 5 C -0.5133 -0.6192 1.7333 0
M  V30 6 C -1.1899 -3.8693 -0.2038 0
M  V30 7 C -0.0343 0.2778 0.6124 0
M  V30 8 C 1.3221 0.6202 0.5061 0
M  V30 9 C -0.9397 0.8047 -0.3151 0
M  V30 10 C 1.7826 1.4612 -0.5217 0
M  V30 11 C -0.4966 1.641 -1.342 0
M  V30 12 C 0.8601 1.9767 -1.4596 0
M  V30 13 C 3.1403 1.8018 -0.6372 0
M  V30 14 C 1.3203 2.8157 -2.4873 0
M  V30 15 C 3.5821 2.6372 -1.6645 0
M  V30 16 C 2.6732 3.1433 -2.5888 0
M  V30 17 H -4.244 -1.6453 2.6229 0
M  V30 18 H -2.759 -1.1998 3.4585 0
M  V30 19 H -3.3477 -0.2377 2.061 0
M  V30 20 H 0.3052 -2.4099 0.0493 0
M  V30 21 H 0.3452 -1.0094 2.295 0
M  V30 22 H -1.0886 -0.0109 2.4348 0
M  V30 23 H -2.0618 -3.6208 -0.8168 0
M  V30 24 H -0.4543 -4.3633 -0.8455 0
M  V30 25 H -1.4888 -4.5775 0.575 0
M  V30 26 H 2.0314 0.2289 1.2331 0
M  V30 27 H -1.9989 0.5616 -0.2496 0
M  V30 28 H -1.2233 2.0298 -2.0518 0
M  V30 29 H 3.8662 1.4177 0.0756 0
M  V30 30 H 0.6244 3.222 -3.2178 0
M  V30 31 H 4.6357 2.8927 -1.7415 0
M  V30 32 H 3.0153 3.7944 -3.3888 0
M  V30 END ATOM
M  V30 BEGIN BOND
M  V30 1 2 1 2
M  V30 2 1 1 3
M  V30 3 1 2 4
M  V30 4 1 2 5
M  V30 5 1 4 6
M  V30 6 1 5 7
M  V30 7 2 7 8
M  V30 8 1 7 9
M  V30 9 1 8 10
M  V30 10 2 9 11
M  V30 11 1 10 12
M  V30 12 2 10 13
M  V30 13 2 12 14
M  V30 14 1 13 15
M  V30 15 1 14 16
M  V30 16 1 11 12
M  V30 17 2 15 16
M  V30 18 1 3 17
M  V30 19 1 3 18
M  V30 20 1 3 19
M  V30 21 1 4 20
M  V30 22 1 5 21
M  V30 23 1 5 22
M  V30 24 1 6 23
M  V30 25 1 6 24
M  V30 26 1 6 25
M  V30 27 1 8 26
M  V30 28 1 9 27
M  V30 29 1 11 28
M  V30 30 1 13 29
M  V30 31 1 14 30
M  V30 32 1 15 31
M  V30 33 1 16 32
M  V30 END BOND
M  V30 END CTAB
M  END
>  <NO.>
1894

>  <Name>
napactadine hydrochloride

>  <SMILES>
CN=C(Cc1ccc2ccccc2c1)NC

>  <logBB>


>  <Class>
1

>  <MW>
212.13

>  <nHBAcc>
1

>  <nHBDon>
1

>  <SLogP>
2.63

>  <TopoPSA>
24.39

>  <MMFF94 Energy>
31.71

$$$$
CN=C1CN(O)C(c2ccccc2)=c2cc(Cl)ccc2=N1
Actelion Java MolfileCreator 2.0

  0  0  0  0  0  0              0 V3000
M  V30 BEGIN CTAB
M  V30 COUNTS 35 37 0 0 0
M  V30 BEGIN ATOM
M  V30 1 Cl -2.5916 -0.4855 -3.8894 0
M  V30 2 C -2.3116 -0.2903 -2.1999 0
M  V30 3 C -1.0656 -0.2033 -1.7164 0
M  V30 4 C -3.4538 -0.1934 -1.3319 0
M  V30 5 C -0.7954 -0.0099 -0.2821 0
M  V30 6 C -3.32 -0.197 -7.0E-4 0
M  V30 7 C 0.3996 0.4431 0.1898 0
M  V30 8 C -1.9727 -0.3023 0.6439 0
M  V30 9 N 0.782 0.6922 1.5105 0
M  V30 10 C 1.467 0.7541 -0.8068 0
M  V30 11 N -2.0034 -0.6671 1.8863 0
M  V30 12 O 2.0383 1.241 1.8106 0
M  V30 13 C 0.0345 0.387 2.7269 0
M  V30 14 C 1.4599 1.9721 -1.5045 0
M  V30 15 C 2.4952 -0.1683 -1.0441 0
M  V30 16 C -0.8154 -0.8472 2.5342 0
M  V30 17 C 2.4604 2.2536 -2.4358 0
M  V30 18 C 3.4945 0.1177 -1.9751 0
M  V30 19 N -0.4426 -1.9955 2.9881 0
M  V30 20 C 3.475 1.3261 -2.6712 0
M  V30 21 C -1.3477 -3.1151 2.7645 0
M  V30 22 H -0.2299 -0.265 -2.4071 0
M  V30 23 H -4.4423 -0.1459 -1.7788 0
M  V30 24 H -4.1799 -0.1802 0.6596 0
M  V30 25 H 2.0583 2.0753 1.3057 0
M  V30 26 H -0.6093 1.2353 2.9841 0
M  V30 27 H 0.7173 0.2135 3.5668 0
M  V30 28 H 0.6734 2.7019 -1.3275 0
M  V30 29 H 2.5237 -1.106 -0.4929 0
M  V30 30 H 2.45 3.1958 -2.9779 0
M  V30 31 H 4.2911 -0.6003 -2.1519 0
M  V30 32 H 4.2556 1.5468 -3.395 0
M  V30 33 H -1.4814 -3.3178 1.6967 0
M  V30 34 H -2.3215 -2.9496 3.2378 0
M  V30 35 H -0.9162 -4.0144 3.2151 0
M  V30 END ATOM
M  V30 BEGIN BOND
M  V30 1 1 1 2
M  V30 2 2 2 3
M  V30 3 1 2 4
M  V30 4 1 3 5
M  V30 5 2 4 6
M  V30 6 2 5 7
M  V30 7 1 5 8
M  V30 8 1 7 9
M  V30 9 1 7 10
M  V30 10 2 8 11
M  V30 11 1 9 12
M  V30 12 1 9 13
M  V30 13 2 10 14
M  V30 14 1 10 15
M  V30 15 1 11 16
M  V30 16 1 14 17
M  V30 17 2 15 18
M  V30 18 2 16 19
M  V30 19 2 17 20
M  V30 20 1 19 21
M  V30 21 1 6 8
M  V30 22 1 13 16
M  V30 23 1 18 20
M  V30 24 1 3 22
M  V30 25 1 4 23
M  V30 26 1 6 24
M  V30 27 1 12 25
M  V30 28 1 13 26
M  V30 29 1 13 27
M  V30 30 1 14 28
M  V30 31 1 15 29
M  V30 32 1 17 30
M  V30 33 1 18 31
M  V30 34 1 20 32
M  V30 35 1 21 33
M  V30 36 1 21 34
M  V30 37 1 21 35
M  V30 END BOND
M  V30 END CTAB
M  END
>  <NO.>
1895

>  <Name>
sertraline

>  <SMILES>
CN=C1CN(O)C(c2ccccc2)=c2cc(Cl)ccc2=N1

>  <logBB>


>  <Class>
1

>  <MW>
299.08

>  <nHBAcc>
3

>  <nHBDon>
1

>  <SLogP>
1.85

>  <TopoPSA>
48.19

>  <MMFF94 Energy>
118.03

$$$$
CNC(=O)CCN1CCN(CCC=C2c3ccccc3Sc3ccc(Cl)cc32)CC1
Actelion Java MolfileCreator 2.0

  0  0  0  0  0  0              0 V3000
M  V30 BEGIN CTAB
M  V30 COUNTS 58 61 0 0 0
M  V30 BEGIN ATOM
M  V30 1 Cl 5.195 -6.5784 1.7024 0
M  V30 2 C 3.4966 -6.3845 1.8987 0
M  V30 3 C 2.88 -5.2115 1.4657 0
M  V30 4 C 2.7503 -7.3989 2.4909 0
M  V30 5 C 1.4952 -5.0376 1.6288 0
M  V30 6 C 1.37 -7.2474 2.6352 0
M  V30 7 C 0.7324 -6.08 2.1913 0
M  V30 8 C 0.8058 -3.783 1.2158 0
M  V30 9 S -1.0497 -5.9895 2.3562 0
M  V30 10 C -0.5441 -3.8537 0.599 0
M  V30 11 C 1.3696 -2.6156 1.6071 0
M  V30 12 C -1.4694 -4.7947 1.0879 0
M  V30 13 C -0.9076 -3.0512 -0.4939 0
M  V30 14 C 0.821 -1.2108 1.5296 0
M  V30 15 C -2.7626 -4.846 0.5481 0
M  V30 16 C -2.1923 -3.1201 -1.0362 0
M  V30 17 C 1.6095 -0.3514 0.526 0
M  V30 18 C -3.1242 -4.0065 -0.5055 0
M  V30 19 N 1.1844 1.0593 0.5022 0
M  V30 20 C -0.1689 1.2268 -0.0658 0
M  V30 21 C 2.1363 1.86 -0.298 0
M  V30 22 C -0.5858 2.7133 -0.1897 0
M  V30 23 C 1.7177 3.3427 -0.4076 0
M  V30 24 N 0.3684 3.5053 -0.9935 0
M  V30 25 C 0.0103 4.938 -1.0266 0
M  V30 26 C -1.2342 5.2141 -1.8709 0
M  V30 27 C -1.5038 6.7005 -1.986 0
M  V30 28 O -0.8855 7.5577 -1.3649 0
M  V30 29 N -2.5365 6.9936 -2.8519 0
M  V30 30 C -2.9449 8.3542 -3.0878 0
M  V30 31 H 3.4797 -4.4344 0.9988 0
M  V30 32 H 3.2312 -8.3117 2.8322 0
M  V30 33 H 0.7931 -8.0537 3.0835 0
M  V30 34 H 2.3252 -2.6441 2.1324 0
M  V30 35 H -0.1908 -2.3659 -0.937 0
M  V30 36 H 0.9063 -0.7658 2.5298 0
M  V30 37 H -0.2468 -1.2137 1.3009 0
M  V30 38 H -3.4908 -5.558 0.9304 0
M  V30 39 H -2.4625 -2.4836 -1.875 0
M  V30 40 H 2.6672 -0.3912 0.8201 0
M  V30 41 H 1.5504 -0.7901 -0.4784 0
M  V30 42 H -4.1259 -4.0613 -0.9243 0
M  V30 43 H -0.9094 0.7374 0.5756 0
M  V30 44 H -0.2304 0.7559 -1.0563 0
M  V30 45 H 3.1272 1.8224 0.1705 0
M  V30 46 H 2.2362 1.4409 -1.3085 0
M  V30 47 H -1.5765 2.735 -0.6566 0
M  V30 48 H -0.6884 3.1398 0.8173 0
M  V30 49 H 2.4534 3.8549 -1.0396 0
M  V30 50 H 1.764 3.804 0.5884 0
M  V30 51 H 0.8429 5.499 -1.472 0
M  V30 52 H -0.1214 5.3328 -0.0102 0
M  V30 53 H -1.1041 4.8059 -2.8804 0
M  V30 54 H -2.124 4.7536 -1.428 0
M  V30 55 H -3.0075 6.2444 -3.3422 0
M  V30 56 H -2.1109 8.9094 -3.5254 0
M  V30 57 H -3.2321 8.8167 -2.1396 0
M  V30 58 H -3.794 8.3522 -3.7749 0
M  V30 END ATOM
M  V30 BEGIN BOND
M  V30 1 1 1 2
M  V30 2 2 2 3
M  V30 3 1 2 4
M  V30 4 1 3 5
M  V30 5 2 4 6
M  V30 6 2 5 7
M  V30 7 1 5 8
M  V30 8 1 7 9
M  V30 9 1 8 10
M  V30 10 2 8 11
M  V30 11 1 9 12
M  V30 12 1 10 13
M  V30 13 1 11 14
M  V30 14 1 12 15
M  V30 15 2 13 16
M  V30 16 1 14 17
M  V30 17 2 15 18
M  V30 18 1 17 19
M  V30 19 1 19 20
M  V30 20 1 19 21
M  V30 21 1 20 22
M  V30 22 1 21 23
M  V30 23 1 22 24
M  V30 24 1 24 25
M  V30 25 1 25 26
M  V30 26 1 26 27
M  V30 27 2 27 28
M  V30 28 1 27 29
M  V30 29 1 29 30
M  V30 30 1 6 7
M  V30 31 2 10 12
M  V30 32 1 16 18
M  V30 33 1 23 24
M  V30 34 1 3 31
M  V30 35 1 4 32
M  V30 36 1 6 33
M  V30 37 1 11 34
M  V30 38 1 13 35
M  V30 39 1 14 36
M  V30 40 1 14 37
M  V30 41 1 15 38
M  V30 42 1 16 39
M  V30 43 1 17 40
M  V30 44 1 17 41
M  V30 45 1 18 42
M  V30 46 1 20 43
M  V30 47 1 20 44
M  V30 48 1 21 45
M  V30 49 1 21 46
M  V30 50 1 22 47
M  V30 51 1 22 48
M  V30 52 1 23 49
M  V30 53 1 23 50
M  V30 54 1 25 51
M  V30 55 1 25 52
M  V30 56 1 26 53
M  V30 57 1 26 54
M  V30 58 1 29 55
M  V30 59 1 30 56
M  V30 60 1 30 57
M  V30 61 1 30 58
M  V30 END BOND
M  V30 END CTAB
M  END
>  <NO.>
1896

>  <Name>
clothixamide

>  <SMILES>
CNC(=O)CCN1CCN(CCC=C2c3ccccc3Sc3ccc(Cl)cc32)CC1

>  <logBB>


>  <Class>
1

>  <MW>
441.16

>  <nHBAcc>
4

>  <nHBDon>
1

>  <SLogP>
4.38

>  <TopoPSA>
35.58

>  <MMFF94 Energy>
112.22

$$$$
CNC(=O)N1CC(Oc2cccc(C(F)(F)F)c2)C1
Actelion Java MolfileCreator 2.0

  0  0  0  0  0  0              0 V3000
M  V30 BEGIN CTAB
M  V30 COUNTS 32 33 0 0 0
M  V30 BEGIN ATOM
M  V30 1 F -2.7255 -4.894 1.5224 0
M  V30 2 C -1.3914 -4.9779 1.7857 0
M  V30 3 F -1.0542 -6.281 1.5726 0
M  V30 4 F -1.2607 -4.7729 3.1253 0
M  V30 5 C -0.5662 -4.0119 0.9744 0
M  V30 6 C -1.0803 -2.7505 0.6348 0
M  V30 7 C 0.7378 -4.3385 0.577 0
M  V30 8 C -0.3159 -1.8377 -0.0956 0
M  V30 9 C 1.4993 -3.4301 -0.1589 0
M  V30 10 O -0.9385 -0.6451 -0.3675 0
M  V30 11 C 0.9726 -2.1817 -0.4987 0
M  V30 12 C -0.1582 0.4467 -0.9056 0
M  V30 13 C -0.9072 1.7953 -0.999 0
M  V30 14 C 0.8365 1.149 0.0438 0
M  V30 15 N 0.2609 2.3988 -0.4053 0
M  V30 16 C 0.7227 3.6671 -0.2552 0
M  V30 17 O 1.7903 3.9207 0.2935 0
M  V30 18 N -0.0992 4.6308 -0.7715 0
M  V30 19 C 0.241 6.027 -0.6996 0
M  V30 20 H -2.0877 -2.473 0.9426 0
M  V30 21 H 1.1648 -5.3065 0.8366 0
M  V30 22 H 2.5073 -3.6953 -0.4702 0
M  V30 23 H 1.5917 -1.5071 -1.0803 0
M  V30 24 H 0.2766 0.1835 -1.8805 0
M  V30 25 H -1.8002 1.8873 -0.374 0
M  V30 26 H -1.1199 2.1305 -2.0173 0
M  V30 27 H 0.6835 0.9713 1.1122 0
M  V30 28 H 1.8907 1.0253 -0.216 0
M  V30 29 H -0.9959 4.357 -1.14 0
M  V30 30 H -0.4407 6.5873 -1.3435 0
M  V30 31 H 1.273 6.1769 -1.0283 0
M  V30 32 H 0.136 6.3635 0.3352 0
M  V30 END ATOM
M  V30 BEGIN BOND
M  V30 1 1 1 2
M  V30 2 1 2 3
M  V30 3 1 2 4
M  V30 4 1 2 5
M  V30 5 2 5 6
M  V30 6 1 5 7
M  V30 7 1 6 8
M  V30 8 2 7 9
M  V30 9 1 8 10
M  V30 10 2 8 11
M  V30 11 1 10 12
M  V30 12 1 12 13
M  V30 13 1 12 14
M  V30 14 1 13 15
M  V30 15 1 15 16
M  V30 16 2 16 17
M  V30 17 1 16 18
M  V30 18 1 18 19
M  V30 19 1 9 11
M  V30 20 1 14 15
M  V30 21 1 6 20
M  V30 22 1 7 21
M  V30 23 1 9 22
M  V30 24 1 11 23
M  V30 25 1 12 24
M  V30 26 1 13 25
M  V30 27 1 13 26
M  V30 28 1 14 27
M  V30 29 1 14 28
M  V30 30 1 18 29
M  V30 31 1 19 30
M  V30 32 1 19 31
M  V30 33 1 19 32
M  V30 END BOND
M  V30 END CTAB
M  END
>  <NO.>
1898

>  <Name>
fluzinamide

>  <SMILES>
CNC(=O)N1CC(Oc2cccc(C(F)(F)F)c2)C1

>  <logBB>


>  <Class>
1

>  <MW>
274.09

>  <nHBAcc>
2

>  <nHBDon>
1

>  <SLogP>
2.11

>  <TopoPSA>
41.57

>  <MMFF94 Energy>
-17.698

$$$$
CNC(=O)NC(O)C(Cl)(Cl)Cl
Actelion Java MolfileCreator 2.0

  0  0  0  0  0  0              0 V3000
M  V30 BEGIN CTAB
M  V30 COUNTS 18 17 0 0 0
M  V30 BEGIN ATOM
M  V30 1 Cl 2.745 -2.4952 -1.9126 0
M  V30 2 C 1.8561 -0.9996 -1.4186 0
M  V30 3 Cl 1.5214 -0.0544 -2.9167 0
M  V30 4 Cl 2.9422 -0.0385 -0.3747 0
M  V30 5 C 0.5131 -1.4227 -0.7101 0 CFG=2
M  V30 6 O -0.2865 -2.2825 -1.5313 0
M  V30 7 N -0.3913 -0.3469 -0.3887 0
M  V30 8 C -0.3235 0.3266 0.7912 0
M  V30 9 O 0.4796 0.0554 1.6726 0
M  V30 10 N -1.2438 1.3312 0.8722 0
M  V30 11 C -1.3343 2.169 2.0399 0
M  V30 12 H 0.7422 -1.9764 0.2087 0
M  V30 13 H 0.2485 -3.0777 -1.7095 0
M  V30 14 H -1.1397 -0.1745 -1.0391 0
M  V30 15 H -1.8321 1.5318 0.0787 0
M  V30 16 H -0.4655 2.832 2.0671 0
M  V30 17 H -1.3489 1.5508 2.9417 0
M  V30 18 H -2.251 2.7598 1.9772 0
M  V30 END ATOM
M  V30 BEGIN BOND
M  V30 1 1 1 2
M  V30 2 1 2 3
M  V30 3 1 2 4
M  V30 4 1 2 5
M  V30 5 1 5 6
M  V30 6 1 5 7
M  V30 7 1 7 8
M  V30 8 2 8 9
M  V30 9 1 8 10
M  V30 10 1 10 11
M  V30 11 1 5 12
M  V30 12 1 6 13
M  V30 13 1 7 14
M  V30 14 1 10 15
M  V30 15 1 11 16
M  V30 16 1 11 17
M  V30 17 1 11 18
M  V30 END BOND
M  V30 BEGIN COLLECTION
M  V30 MDLV30/STERAC1 ATOMS=(1 5)
M  V30 END COLLECTION
M  V30 END CTAB
M  END
>  <NO.>
1899

>  <Name>
mecloralurea

>  <SMILES>
CNC(=O)NC(O)C(Cl)(Cl)Cl

>  <logBB>


>  <Class>
1

>  <MW>
219.96

>  <nHBAcc>
2

>  <nHBDon>
3

>  <SLogP>
0.6

>  <TopoPSA>
61.36

>  <MMFF94 Energy>
-58.591

$$$$
CNC(=O)O[C@H]1OC(=O)[C@]2(C)[C@@H]3C=C[C@@H](C3)[C@H]12
Actelion Java MolfileCreator 2.0

  0  0  0  0  0  0              0 V3000
M  V30 BEGIN CTAB
M  V30 COUNTS 32 34 0 0 0
M  V30 BEGIN ATOM
M  V30 1 O -0.9656 0.8046 3.3829 0
M  V30 2 C -0.679 0.3936 2.2685 0
M  V30 3 O -0.2203 -0.8609 2.024 0
M  V30 4 C -0.7891 1.1923 0.9969 0 CFG=1
M  V30 5 C 0.1454 -1.0244 0.649 0 CFG=1
M  V30 6 C -0.3632 0.1927 -0.1015 0 CFG=1
M  V30 7 C -2.254 1.5326 0.6045 0 CFG=2
M  V30 8 C 0.1228 2.4127 1.0682 0
M  V30 9 O 1.5747 -1.0993 0.5737 0
M  V30 10 C -1.6691 0.007 -0.921 0 CFG=2
M  V30 11 C -3.134 0.3177 0.8189 0
M  V30 12 C -2.1797 1.4557 -0.9289 0
M  V30 13 C 2.0424 -1.6009 -0.5924 0
M  V30 14 C -2.767 -0.6031 -0.0837 0
M  V30 15 O 1.3504 -1.9195 -1.5465 0
M  V30 16 N 3.3985 -1.6736 -0.5342 0
M  V30 17 C 4.202 -2.1492 -1.6269 0
M  V30 18 H -0.2956 -1.9653 0.2995 0
M  V30 19 H 0.4002 0.6222 -0.7629 0
M  V30 20 H -2.6622 2.4646 0.9987 0
M  V30 21 H 0.1543 2.9563 0.1188 0
M  V30 22 H -0.2203 3.1096 1.8411 0
M  V30 23 H 1.1491 2.1244 1.3227 0
M  V30 24 H -1.5468 -0.4389 -1.9088 0
M  V30 25 H -3.874 0.204 1.5984 0
M  V30 26 H -3.1534 1.5756 -1.4224 0
M  V30 27 H -1.4736 2.1642 -1.3748 0
M  V30 28 H -3.1629 -1.6033 -0.1841 0
M  V30 29 H 3.8326 -1.354 0.3208 0
M  V30 30 H 4.4697 -1.2962 -2.2555 0
M  V30 31 H 3.653 -2.8837 -2.2218 0
M  V30 32 H 5.1087 -2.6022 -1.2195 0
M  V30 END ATOM
M  V30 BEGIN BOND
M  V30 1 2 1 2
M  V30 2 1 2 3
M  V30 3 1 2 4
M  V30 4 1 3 5
M  V30 5 1 4 6
M  V30 6 1 4 7
M  V30 7 1 4 8
M  V30 8 1 5 9
M  V30 9 1 6 10
M  V30 10 1 7 11
M  V30 11 1 7 12
M  V30 12 1 9 13
M  V30 13 1 10 14
M  V30 14 2 13 15
M  V30 15 1 13 16
M  V30 16 1 16 17
M  V30 17 1 5 6
M  V30 18 1 10 12
M  V30 19 2 11 14
M  V30 20 1 5 18
M  V30 21 1 6 19
M  V30 22 1 7 20
M  V30 23 1 8 21
M  V30 24 1 8 22
M  V30 25 1 8 23
M  V30 26 1 10 24
M  V30 27 1 11 25
M  V30 28 1 12 26
M  V30 29 1 12 27
M  V30 30 1 14 28
M  V30 31 1 16 29
M  V30 32 1 17 30
M  V30 33 1 17 31
M  V30 34 1 17 32
M  V30 END BOND
M  V30 BEGIN COLLECTION
M  V30 MDLV30/STEABS ATOMS=(5 4 5 6 7 10)
M  V30 END COLLECTION
M  V30 END CTAB
M  END
>  <NO.>
1900

>  <Name>
moxadolen

>  <SMILES>
CNC(=O)O[C@H]1OC(=O)[C@]2(C)[C@@H]3C=C[C@@H](C3)[C@H]12

>  <logBB>


>  <Class>
1

>  <MW>
237.1

>  <nHBAcc>
4

>  <nHBDon>
1

>  <SLogP>
1.05

>  <TopoPSA>
64.63

>  <MMFF94 Energy>
-53.565

$$$$
CNC(C)C(=O)c1ccc(OC)cc1
Actelion Java MolfileCreator 2.0

  0  0  0  0  0  0              0 V3000
M  V30 BEGIN CTAB
M  V30 COUNTS 29 29 0 0 0
M  V30 BEGIN ATOM
M  V30 1 O -0.6248 1.4062 -2.0317 0
M  V30 2 C 0.1589 1.0576 -1.1472 0
M  V30 3 C -0.3705 0.2057 -0.0358 0
M  V30 4 C 1.6451 1.4671 -1.1321 0 CFG=1
M  V30 5 C -1.5982 -0.4435 -0.2305 0
M  V30 6 C 0.2946 0.0407 1.1823 0
M  V30 7 N 2.2117 1.4958 -2.498 0
M  V30 8 C 1.7583 2.8657 -0.5276 0
M  V30 9 C -2.1483 -1.2561 0.7682 0
M  V30 10 C -0.259 -0.7726 2.1777 0
M  V30 11 C 2.3006 0.1682 -3.091 0
M  V30 12 C -1.478 -1.4251 1.9779 0
M  V30 13 O -1.8982 -2.1857 3.033 0
M  V30 14 C -3.1438 -2.8569 2.886 0
M  V30 15 H 2.2356 0.7643 -0.5363 0
M  V30 16 H -2.1378 -0.3204 -1.1689 0
M  V30 17 H 1.2332 0.5391 1.4006 0
M  V30 18 H 3.138 1.9185 -2.4773 0
M  V30 19 H 1.3434 2.8923 0.4856 0
M  V30 20 H 1.2082 3.6052 -1.1214 0
M  V30 21 H 2.8041 3.1868 -0.4679 0
M  V30 22 H -3.0997 -1.7369 0.5656 0
M  V30 23 H 0.2631 -0.8954 3.1245 0
M  V30 24 H 2.7472 0.2472 -4.0871 0
M  V30 25 H 2.9334 -0.4953 -2.4928 0
M  V30 26 H 1.3157 -0.2918 -3.2147 0
M  V30 27 H -3.963 -2.1433 2.7487 0
M  V30 28 H -3.3361 -3.4105 3.8101 0
M  V30 29 H -3.1072 -3.5808 2.0654 0
M  V30 END ATOM
M  V30 BEGIN BOND
M  V30 1 2 1 2
M  V30 2 1 2 3
M  V30 3 1 2 4
M  V30 4 2 3 5
M  V30 5 1 3 6
M  V30 6 1 4 7
M  V30 7 1 4 8
M  V30 8 1 5 9
M  V30 9 2 6 10
M  V30 10 1 7 11
M  V30 11 2 9 12
M  V30 12 1 12 13
M  V30 13 1 13 14
M  V30 14 1 10 12
M  V30 15 1 4 15
M  V30 16 1 5 16
M  V30 17 1 6 17
M  V30 18 1 7 18
M  V30 19 1 8 19
M  V30 20 1 8 20
M  V30 21 1 8 21
M  V30 22 1 9 22
M  V30 23 1 10 23
M  V30 24 1 11 24
M  V30 25 1 11 25
M  V30 26 1 11 26
M  V30 27 1 14 27
M  V30 28 1 14 28
M  V30 29 1 14 29
M  V30 END BOND
M  V30 BEGIN COLLECTION
M  V30 MDLV30/STERAC1 ATOMS=(1 4)
M  V30 END COLLECTION
M  V30 END CTAB
M  END
>  <NO.>
1901

>  <Name>
methoxyphedrine

>  <SMILES>
CNC(C)C(=O)c1ccc(OC)cc1

>  <logBB>


>  <Class>
-1

>  <MW>
193.11

>  <nHBAcc>
3

>  <nHBDon>
1

>  <SLogP>
1.49

>  <TopoPSA>
38.33

>  <MMFF94 Energy>
75.781

$$$$
CNC(C)C(O)c1ccc(O)cc1
Actelion Java MolfileCreator 2.0

  0  0  0  0  0  0              0 V3000
M  V30 BEGIN CTAB
M  V30 COUNTS 28 28 0 0 0
M  V30 BEGIN ATOM
M  V30 1 O -3.1912 2.1006 3.1912 0
M  V30 2 C -2.4892 1.5365 2.1673 0
M  V30 3 C -2.6765 0.1821 1.9227 0
M  V30 4 C -1.6151 2.2865 1.3886 0
M  V30 5 C -1.9799 -0.4369 0.8829 0
M  V30 6 C -0.9167 1.6657 0.3503 0
M  V30 7 C -1.0881 0.2967 0.0844 0
M  V30 8 C -0.3188 -0.3867 -1.0273 0
M  V30 9 O -0.4211 0.4307 -2.2049 0
M  V30 10 C 1.1894 -0.6266 -0.6846 0
M  V30 11 N 1.944 -0.8815 -1.9435 0
M  V30 12 C 1.3284 -1.7688 0.3295 0
M  V30 13 C 3.3704 -1.0966 -1.7217 0
M  V30 14 H -2.9839 3.049 3.219 0
M  V30 15 H -3.3654 -0.3902 2.5373 0
M  V30 16 H -1.4667 3.3465 1.5672 0
M  V30 17 H -2.1391 -1.4975 0.7018 0
M  V30 18 H -0.2424 2.2561 -0.2673 0
M  V30 19 H -0.8029 -1.3403 -1.276 0
M  V30 20 H -0.1273 -0.1524 -2.9279 0
M  V30 21 H 1.5999 0.2896 -0.2397 0
M  V30 22 H 1.8521 -0.0331 -2.5094 0
M  V30 23 H 0.7326 -1.5773 1.2275 0
M  V30 24 H 0.9966 -2.7213 -0.098 0
M  V30 25 H 2.3633 -1.8872 0.6654 0
M  V30 26 H 3.8144 -0.2929 -1.1255 0
M  V30 27 H 3.8838 -1.1169 -2.6884 0
M  V30 28 H 3.5638 -2.0598 -1.2409 0
M  V30 END ATOM
M  V30 BEGIN BOND
M  V30 1 1 1 2
M  V30 2 2 2 3
M  V30 3 1 2 4
M  V30 4 1 3 5
M  V30 5 2 4 6
M  V30 6 2 5 7
M  V30 7 1 7 8
M  V30 8 1 8 9
M  V30 9 1 8 10
M  V30 10 1 10 11
M  V30 11 1 10 12
M  V30 12 1 11 13
M  V30 13 1 6 7
M  V30 14 1 1 14
M  V30 15 1 3 15
M  V30 16 1 4 16
M  V30 17 1 5 17
M  V30 18 1 6 18
M  V30 19 1 8 19
M  V30 20 1 9 20
M  V30 21 1 10 21
M  V30 22 1 11 22
M  V30 23 1 12 23
M  V30 24 1 12 24
M  V30 25 1 12 25
M  V30 26 1 13 26
M  V30 27 1 13 27
M  V30 28 1 13 28
M  V30 END BOND
M  V30 END CTAB
M  END
>  <NO.>
1902

>  <Name>
hydroxyephedrine

>  <SMILES>
CNC(C)C(O)c1ccc(O)cc1

>  <logBB>


>  <Class>
-1

>  <MW>
181.11

>  <nHBAcc>
3

>  <nHBDon>
3

>  <SLogP>
1.03

>  <TopoPSA>
52.49

>  <MMFF94 Energy>
42.331

$$$$
CNC/C=C(/c1ccc(Br)cc1)c1cccnc1
Actelion Java MolfileCreator 2.0

  0  0  0  0  0  0              0 V3000
M  V30 BEGIN CTAB
M  V30 COUNTS 33 34 0 0 0
M  V30 BEGIN ATOM
M  V30 1 Br 5.7791 -1.4424 2.4048 0
M  V30 2 C 4.0829 -0.95 1.7315 0
M  V30 3 C 3.878 -0.8825 0.3556 0
M  V30 4 C 3.045 -0.6616 2.6148 0
M  V30 5 C 2.6229 -0.5191 -0.1404 0
M  V30 6 C 1.7902 -0.2984 2.1165 0
M  V30 7 C 1.568 -0.2137 0.7344 0
M  V30 8 C 0.2233 0.1514 0.2166 0
M  V30 9 C -1.0025 -0.5498 0.6485 0
M  V30 10 C 0.1489 1.165 -0.6756 0
M  V30 11 C -1.9214 0.0421 1.5126 0
M  V30 12 C -1.2703 -1.8501 0.2177 0
M  V30 13 C -1.0681 1.6883 -1.3847 0
M  V30 14 N -3.0551 -0.5571 1.9487 0
M  V30 15 C -2.428 -2.4934 0.6491 0
M  V30 16 N -0.792 1.7749 -2.8194 0
M  V30 17 C -3.2804 -1.8125 1.5042 0
M  V30 18 C -1.988 2.1723 -3.5519 0
M  V30 19 H 4.6817 -1.114 -0.338 0
M  V30 20 H 3.198 -0.7178 3.6893 0
M  V30 21 H 2.47 -0.4855 -1.2174 0
M  V30 22 H 0.9896 -0.0791 2.8196 0
M  V30 23 H 1.0667 1.6906 -0.9377 0
M  V30 24 H -1.7657 1.0482 1.893 0
M  V30 25 H -0.5851 -2.3606 -0.4539 0
M  V30 26 H -1.9374 1.0444 -1.2199 0
M  V30 27 H -1.3049 2.6825 -0.9875 0
M  V30 28 H -2.6589 -3.5019 0.3252 0
M  V30 29 H -0.067 2.4734 -2.9763 0
M  V30 30 H -4.1949 -2.2743 1.8659 0
M  V30 31 H -2.3548 3.15 -3.2225 0
M  V30 32 H -2.7868 1.4322 -3.4383 0
M  V30 33 H -1.7547 2.2421 -4.6188 0
M  V30 END ATOM
M  V30 BEGIN BOND
M  V30 1 1 1 2
M  V30 2 2 2 3
M  V30 3 1 2 4
M  V30 4 1 3 5
M  V30 5 2 4 6
M  V30 6 2 5 7
M  V30 7 1 7 8
M  V30 8 1 8 9
M  V30 9 2 8 10
M  V30 10 2 9 11
M  V30 11 1 9 12
M  V30 12 1 10 13
M  V30 13 1 11 14
M  V30 14 2 12 15
M  V30 15 1 13 16
M  V30 16 2 14 17
M  V30 17 1 16 18
M  V30 18 1 6 7
M  V30 19 1 15 17
M  V30 20 1 3 19
M  V30 21 1 4 20
M  V30 22 1 5 21
M  V30 23 1 6 22
M  V30 24 1 10 23
M  V30 25 1 11 24
M  V30 26 1 12 25
M  V30 27 1 13 26
M  V30 28 1 13 27
M  V30 29 1 15 28
M  V30 30 1 16 29
M  V30 31 1 17 30
M  V30 32 1 18 31
M  V30 33 1 18 32
M  V30 34 1 18 33
M  V30 END BOND
M  V30 END CTAB
M  END
>  <NO.>
1904

>  <Name>
nomelidine

>  <SMILES>
CNC/C=C(/c1ccc(Br)cc1)c1cccnc1

>  <logBB>


>  <Class>
1

>  <MW>
302.04

>  <nHBAcc>
2

>  <nHBDon>
1

>  <SLogP>
3.5

>  <TopoPSA>
24.92

>  <MMFF94 Energy>
41.233

$$$$
CNC1(c2ccccc2Cl)CCCCC1=O
Actelion Java MolfileCreator 2.0

  0  0  0  0  0  0              0 V3000
M  V30 BEGIN CTAB
M  V30 COUNTS 32 33 0 0 0
M  V30 BEGIN ATOM
M  V30 1 Cl -1.8534 0.5638 -2.176 0
M  V30 2 C -1.6837 -0.6337 -0.9433 0
M  V30 3 C -0.8253 -0.5318 0.1681 0
M  V30 4 C -2.536 -1.7433 -1.0981 0
M  V30 5 C -0.9479 -1.5574 1.1469 0
M  V30 6 C 0.1783 0.6028 0.4811 0 CFG=1
M  V30 7 C -2.5862 -2.7546 -0.1441 0
M  V30 8 C -1.7995 -2.6535 0.9903 0
M  V30 9 N -0.4049 1.4435 1.5652 0
M  V30 10 C 1.4988 -0.0294 1.0787 0
M  V30 11 C 0.7567 1.4827 -0.6658 0
M  V30 12 C -1.382 2.4332 1.1527 0
M  V30 13 O 1.8763 0.1551 2.2396 0
M  V30 14 C 2.3307 -0.8647 0.1255 0
M  V30 15 C 1.5893 0.7011 -1.693 0
M  V30 16 C 2.7768 0.0056 -1.0354 0
M  V30 17 H -3.1886 -1.8133 -1.9666 0
M  V30 18 H -0.3785 -1.4983 2.0764 0
M  V30 19 H -3.257 -3.5993 -0.2747 0
M  V30 20 H -1.8522 -3.4149 1.7648 0
M  V30 21 H 0.3548 1.8822 2.0903 0
M  V30 22 H -0.0124 2.0582 -1.1845 0
M  V30 23 H 1.4198 2.2444 -0.2268 0
M  V30 24 H -2.2152 1.9856 0.6043 0
M  V30 25 H -1.807 2.9058 2.0443 0
M  V30 26 H -0.9359 3.2294 0.55 0
M  V30 27 H 1.7426 -1.7208 -0.2182 0
M  V30 28 H 3.2017 -1.2584 0.6601 0
M  V30 29 H 1.9572 1.3925 -2.46 0
M  V30 30 H 0.9761 -0.0441 -2.2088 0
M  V30 31 H 3.482 0.7649 -0.6744 0
M  V30 32 H 3.3101 -0.6015 -1.775 0
M  V30 END ATOM
M  V30 BEGIN BOND
M  V30 1 1 1 2
M  V30 2 2 2 3
M  V30 3 1 2 4
M  V30 4 1 3 5
M  V30 5 1 3 6
M  V30 6 2 4 7
M  V30 7 2 5 8
M  V30 8 1 6 9
M  V30 9 1 6 10
M  V30 10 1 6 11
M  V30 11 1 9 12
M  V30 12 2 10 13
M  V30 13 1 10 14
M  V30 14 1 11 15
M  V30 15 1 14 16
M  V30 16 1 7 8
M  V30 17 1 15 16
M  V30 18 1 4 17
M  V30 19 1 5 18
M  V30 20 1 7 19
M  V30 21 1 8 20
M  V30 22 1 9 21
M  V30 23 1 11 22
M  V30 24 1 11 23
M  V30 25 1 12 24
M  V30 26 1 12 25
M  V30 27 1 12 26
M  V30 28 1 14 27
M  V30 29 1 14 28
M  V30 30 1 15 29
M  V30 31 1 15 30
M  V30 32 1 16 31
M  V30 33 1 16 32
M  V30 END BOND
M  V30 BEGIN COLLECTION
M  V30 MDLV30/STERAC1 ATOMS=(1 6)
M  V30 END COLLECTION
M  V30 END CTAB
M  END
>  <NO.>
1905

>  <Name>
ketamine

>  <SMILES>
CNC1(c2ccccc2Cl)CCCCC1=O

>  <logBB>


>  <Class>
1

>  <MW>
237.09

>  <nHBAcc>
2

>  <nHBDon>
1

>  <SLogP>
2.9

>  <TopoPSA>
29.1

>  <MMFF94 Energy>
73.808

$$$$
CNC1CCC(c2ccccc2)c2ccccc21
Actelion Java MolfileCreator 2.0

  0  0  0  0  0  0              0 V3000
M  V30 BEGIN CTAB
M  V30 COUNTS 37 39 0 0 0
M  V30 BEGIN ATOM
M  V30 1 N 0.6357 -0.1589 3.1819 0
M  V30 2 C 1.0346 -0.5831 1.8291 0
M  V30 3 C 0.6337 -1.2336 4.1604 0
M  V30 4 C -0.1242 -1.19 1.0546 0
M  V30 5 C 1.5987 0.6454 1.0946 0
M  V30 6 C -0.9086 -0.4225 0.1666 0
M  V30 7 C -0.4407 -2.5483 1.2411 0
M  V30 8 C 0.5008 1.6465 0.7417 0
M  V30 9 C -2.0116 -1.025 -0.4699 0
M  V30 10 C -0.5751 1.0285 -0.1703 0
M  V30 11 C -1.5294 -3.1312 0.5932 0
M  V30 12 C -2.3202 -2.367 -0.2561 0
M  V30 13 C -0.208 1.2494 -1.6394 0
M  V30 14 C -0.6781 2.3967 -2.3012 0
M  V30 15 C 0.6122 0.3586 -2.3497 0
M  V30 16 C -0.3467 2.6385 -3.6358 0
M  V30 17 C 0.9419 0.6017 -3.6847 0
M  V30 18 C 0.4622 1.7406 -4.3273 0
M  V30 19 H -0.2923 0.2608 3.1391 0
M  V30 20 H 1.8546 -1.3111 1.8893 0
M  V30 21 H 0.4566 -0.8112 5.1548 0
M  V30 22 H 1.5994 -1.7478 4.1948 0
M  V30 23 H -0.1585 -1.9632 3.9738 0
M  V30 24 H 2.3594 1.1389 1.7132 0
M  V30 25 H 2.1151 0.3239 0.182 0
M  V30 26 H 0.1647 -3.1633 1.9033 0
M  V30 27 H 0.0235 1.9956 1.6665 0
M  V30 28 H 0.9466 2.5386 0.2842 0
M  V30 29 H -2.6252 -0.4469 -1.1589 0
M  V30 30 H -1.5005 1.5936 0.0181 0
M  V30 31 H -1.76 -4.1808 0.7543 0
M  V30 32 H -3.1692 -2.8166 -0.7638 0
M  V30 33 H -1.3066 3.114 -1.7775 0
M  V30 34 H 0.9978 -0.5393 -1.8721 0
M  V30 35 H -0.719 3.5295 -4.1346 0
M  V30 36 H 1.5737 -0.1004 -4.2221 0
M  V30 37 H 0.7202 1.9283 -5.366 0
M  V30 END ATOM
M  V30 BEGIN BOND
M  V30 1 1 1 2
M  V30 2 1 1 3
M  V30 3 1 2 4
M  V30 4 1 2 5
M  V30 5 2 4 6
M  V30 6 1 4 7
M  V30 7 1 5 8
M  V30 8 1 6 9
M  V30 9 1 6 10
M  V30 10 2 7 11
M  V30 11 2 9 12
M  V30 12 1 10 13
M  V30 13 2 13 14
M  V30 14 1 13 15
M  V30 15 1 14 16
M  V30 16 2 15 17
M  V30 17 2 16 18
M  V30 18 1 8 10
M  V30 19 1 11 12
M  V30 20 1 17 18
M  V30 21 1 1 19
M  V30 22 1 2 20
M  V30 23 1 3 21
M  V30 24 1 3 22
M  V30 25 1 3 23
M  V30 26 1 5 24
M  V30 27 1 5 25
M  V30 28 1 7 26
M  V30 29 1 8 27
M  V30 30 1 8 28
M  V30 31 1 9 29
M  V30 32 1 10 30
M  V30 33 1 11 31
M  V30 34 1 12 32
M  V30 35 1 14 33
M  V30 36 1 15 34
M  V30 37 1 16 35
M  V30 38 1 17 36
M  V30 39 1 18 37
M  V30 END BOND
M  V30 END CTAB
M  END
>  <NO.>
1907

>  <Name>
schembl1237910

>  <SMILES>
CNC1CCC(c2ccccc2)c2ccccc21

>  <logBB>


>  <Class>
1

>  <MW>
237.15

>  <nHBAcc>
1

>  <nHBDon>
1

>  <SLogP>
3.87

>  <TopoPSA>
12.03

>  <MMFF94 Energy>
53.367

$$$$
CNC1CCN2c3ccccc3CCc3cccc1c32
Actelion Java MolfileCreator 2.0

  0  0  0  0  0  0              0 V3000
M  V30 BEGIN CTAB
M  V30 COUNTS 40 43 0 0 0
M  V30 BEGIN ATOM
M  V30 1 N 0.2397 0.0 0.7194 0
M  V30 2 C -0.1094 -0.1325 -0.6558 0
M  V30 3 C 0.7821 -0.9441 1.6208 0
M  V30 4 C -0.0596 1.3111 1.3146 0
M  V30 5 C -0.2112 1.0426 -1.4663 0
M  V30 6 C -0.2743 -1.3838 -1.3 0
M  V30 7 C 0.2756 -2.2455 1.7368 0
M  V30 8 C 1.8725 -0.5968 2.4446 0
M  V30 9 C 0.5792 2.3993 0.4724 0
M  V30 10 C -0.3463 0.9361 -2.8668 0
M  V30 11 C -0.1327 2.4477 -0.8783 0 CFG=2
M  V30 12 C -0.4172 -1.4442 -2.7057 0
M  V30 13 C -0.3243 -2.7254 -0.6013 0
M  V30 14 C 0.8161 -3.1428 2.6776 0
M  V30 15 C -0.8318 -2.7008 0.8331 0
M  V30 16 C 2.413 -1.4903 3.3727 0
M  V30 17 C -0.4406 -0.2985 -3.4843 0
M  V30 18 N -1.4494 3.0959 -0.6734 0
M  V30 19 C 1.8768 -2.7641 3.4953 0
M  V30 20 C -2.1653 3.407 -1.9014 0
M  V30 21 H 0.3037 1.4101 2.3446 0
M  V30 22 H -1.1482 1.4348 1.3904 0
M  V30 23 H 2.3326 0.3836 2.3505 0
M  V30 24 H 1.6468 2.1859 0.3276 0
M  V30 25 H 0.5218 3.3669 0.986 0
M  V30 26 H -0.374 1.8313 -3.4831 0
M  V30 27 H 0.4763 3.0821 -1.5364 0
M  V30 28 H -0.5152 -2.4089 -3.2007 0
M  V30 29 H 0.6677 -3.1913 -0.6658 0
M  V30 30 H -1.0143 -3.3726 -1.1601 0
M  V30 31 H 0.4153 -4.1498 2.7674 0
M  V30 32 H -1.7146 -2.0609 0.9535 0
M  V30 33 H -1.1453 -3.714 1.1145 0
M  V30 34 H 3.2539 -1.1889 3.9907 0
M  V30 35 H -0.5462 -0.3691 -4.5626 0
M  V30 36 H -1.3049 3.968 -0.1661 0
M  V30 37 H 2.2904 -3.4661 4.2137 0
M  V30 38 H -3.039 4.0213 -1.6593 0
M  V30 39 H -1.5463 3.9772 -2.6012 0
M  V30 40 H -2.5465 2.5068 -2.3903 0
M  V30 END ATOM
M  V30 BEGIN BOND
M  V30 1 1 1 2
M  V30 2 1 1 3
M  V30 3 1 1 4
M  V30 4 2 2 5
M  V30 5 1 2 6
M  V30 6 2 3 7
M  V30 7 1 3 8
M  V30 8 1 4 9
M  V30 9 1 5 10
M  V30 10 1 5 11
M  V30 11 2 6 12
M  V30 12 1 6 13
M  V30 13 1 7 14
M  V30 14 1 7 15
M  V30 15 2 8 16
M  V30 16 2 10 17
M  V30 17 1 11 18
M  V30 18 2 14 19
M  V30 19 1 18 20
M  V30 20 1 9 11
M  V30 21 1 12 17
M  V30 22 1 13 15
M  V30 23 1 16 19
M  V30 24 1 4 21
M  V30 25 1 4 22
M  V30 26 1 8 23
M  V30 27 1 9 24
M  V30 28 1 9 25
M  V30 29 1 10 26
M  V30 30 1 11 27
M  V30 31 1 12 28
M  V30 32 1 13 29
M  V30 33 1 13 30
M  V30 34 1 14 31
M  V30 35 1 15 32
M  V30 36 1 15 33
M  V30 37 1 16 34
M  V30 38 1 17 35
M  V30 39 1 18 36
M  V30 40 1 19 37
M  V30 41 1 20 38
M  V30 42 1 20 39
M  V30 43 1 20 40
M  V30 END BOND
M  V30 BEGIN COLLECTION
M  V30 MDLV30/STERAC1 ATOMS=(1 11)
M  V30 END COLLECTION
M  V30 END CTAB
M  END
>  <NO.>
1908

>  <Name>
ciclopramine

>  <SMILES>
CNC1CCN2c3ccccc3CCc3cccc1c32

>  <logBB>


>  <Class>
1

>  <MW>
264.16

>  <nHBAcc>
2

>  <nHBDon>
1

>  <SLogP>
3.59

>  <TopoPSA>
15.27

>  <MMFF94 Energy>
50.47

$$$$
CNC1CCc2ncsc2C1
Actelion Java MolfileCreator 2.0

  0  0  0  0  0  0              0 V3000
M  V30 BEGIN CTAB
M  V30 COUNTS 23 24 0 0 0
M  V30 BEGIN ATOM
M  V30 1 S 0.4053 3.0023 -1.2163 0
M  V30 2 C -0.0301 1.4672 -0.6242 0
M  V30 3 C -1.0331 3.0115 -2.1593 0
M  V30 4 C -1.2327 1.0659 -1.1674 0
M  V30 5 C 0.7703 0.6906 0.3673 0
M  V30 6 N -1.8049 1.9493 -2.0572 0
M  V30 7 C -1.8674 -0.2438 -0.8541 0
M  V30 8 C 0.3037 -0.794 0.392 0 CFG=2
M  V30 9 C -1.2457 -0.8806 0.4015 0
M  V30 10 N 0.8191 -1.5251 1.564 0
M  V30 11 C 2.264 -1.7146 1.5197 0
M  V30 12 H -1.2819 3.8474 -2.7995 0
M  V30 13 H 0.6355 1.1421 1.3587 0
M  V30 14 H 1.8363 0.7452 0.1182 0
M  V30 15 H -1.7264 -0.9143 -1.7102 0
M  V30 16 H -2.946 -0.1187 -0.7087 0
M  V30 17 H 0.6516 -1.2941 -0.5229 0
M  V30 18 H -1.5751 -1.9254 0.4629 0
M  V30 19 H -1.6335 -0.3719 1.295 0
M  V30 20 H 0.3745 -2.4427 1.6106 0
M  V30 21 H 2.5735 -2.3232 2.3754 0
M  V30 22 H 2.5741 -2.2368 0.6091 0
M  V30 23 H 2.8003 -0.7642 1.5928 0
M  V30 END ATOM
M  V30 BEGIN BOND
M  V30 1 1 1 2
M  V30 2 1 1 3
M  V30 3 2 2 4
M  V30 4 1 2 5
M  V30 5 2 3 6
M  V30 6 1 4 7
M  V30 7 1 5 8
M  V30 8 1 7 9
M  V30 9 1 8 10
M  V30 10 1 10 11
M  V30 11 1 4 6
M  V30 12 1 8 9
M  V30 13 1 3 12
M  V30 14 1 5 13
M  V30 15 1 5 14
M  V30 16 1 7 15
M  V30 17 1 7 16
M  V30 18 1 8 17
M  V30 19 1 9 18
M  V30 20 1 9 19
M  V30 21 1 10 20
M  V30 22 1 11 21
M  V30 23 1 11 22
M  V30 24 1 11 23
M  V30 END BOND
M  V30 BEGIN COLLECTION
M  V30 MDLV30/STERAC1 ATOMS=(1 8)
M  V30 END COLLECTION
M  V30 END CTAB
M  END
>  <NO.>
1909

>  <Name>
etrabamine

>  <SMILES>
CNC1CCc2ncsc2C1

>  <logBB>


>  <Class>
1

>  <MW>
168.07

>  <nHBAcc>
3

>  <nHBDon>
1

>  <SLogP>
1.22

>  <TopoPSA>
24.92

>  <MMFF94 Energy>
19.741

$$$$
CNC1Cc2ccccc2N(C)c2ccccc21
Actelion Java MolfileCreator 2.0

  0  0  0  0  0  0              0 V3000
M  V30 BEGIN CTAB
M  V30 COUNTS 36 38 0 0 0
M  V30 BEGIN ATOM
M  V30 1 N 1.3493 0.5554 -0.1586 0
M  V30 2 C 0.679 -0.0982 -1.2207 0
M  V30 3 C 1.3271 0.1852 1.2084 0
M  V30 4 C 2.3143 1.5712 -0.5925 0
M  V30 5 C -0.7148 -0.2821 -1.1962 0
M  V30 6 C 1.4038 -0.5998 -2.3201 0
M  V30 7 C 0.2074 -0.4005 1.8441 0
M  V30 8 C 2.4913 0.3533 1.9969 0
M  V30 9 C -1.3365 -0.9957 -2.2401 0
M  V30 10 C -1.4918 0.2663 -0.0123 0 CFG=2
M  V30 11 C 0.7719 -1.2816 -3.3609 0
M  V30 12 C 0.3063 -0.8213 3.1936 0
M  V30 13 C -1.1544 -0.6196 1.2034 0
M  V30 14 C 2.5647 -0.0466 3.3344 0
M  V30 15 C -0.6003 -1.4841 -3.3177 0
M  V30 16 N -2.9637 0.3093 -0.2209 0
M  V30 17 C 1.4698 -0.6427 3.9331 0
M  V30 18 C -3.3533 1.4609 -1.0321 0
M  V30 19 H 2.0031 2.0502 -1.5296 0
M  V30 20 H 3.3085 1.1359 -0.7451 0
M  V30 21 H 2.3915 2.3838 0.14 0
M  V30 22 H 2.4845 -0.494 -2.3555 0
M  V30 23 H 3.3965 0.7721 1.5663 0
M  V30 24 H -2.4091 -1.1761 -2.2154 0
M  V30 25 H -1.1655 1.2943 0.1984 0
M  V30 26 H 1.3554 -1.6687 -4.1912 0
M  V30 27 H -0.5482 -1.2908 3.6787 0
M  V30 28 H -1.9006 -0.4121 1.9841 0
M  V30 29 H -1.2514 -1.6847 0.9516 0
M  V30 30 H 3.4853 0.0939 3.8937 0
M  V30 31 H -1.1 -2.0277 -4.1145 0
M  V30 32 H -3.4176 0.4006 0.6866 0
M  V30 33 H 1.5175 -0.9699 4.9677 0
M  V30 34 H -4.4387 1.4489 -1.1727 0
M  V30 35 H -3.0926 2.4031 -0.5388 0
M  V30 36 H -2.8968 1.4418 -2.0259 0
M  V30 END ATOM
M  V30 BEGIN BOND
M  V30 1 1 1 2
M  V30 2 1 1 3
M  V30 3 1 1 4
M  V30 4 2 2 5
M  V30 5 1 2 6
M  V30 6 2 3 7
M  V30 7 1 3 8
M  V30 8 1 5 9
M  V30 9 1 5 10
M  V30 10 2 6 11
M  V30 11 1 7 12
M  V30 12 1 7 13
M  V30 13 2 8 14
M  V30 14 2 9 15
M  V30 15 1 10 16
M  V30 16 2 12 17
M  V30 17 1 16 18
M  V30 18 1 10 13
M  V30 19 1 11 15
M  V30 20 1 14 17
M  V30 21 1 4 19
M  V30 22 1 4 20
M  V30 23 1 4 21
M  V30 24 1 6 22
M  V30 25 1 8 23
M  V30 26 1 9 24
M  V30 27 1 10 25
M  V30 28 1 11 26
M  V30 29 1 12 27
M  V30 30 1 13 28
M  V30 31 1 13 29
M  V30 32 1 14 30
M  V30 33 1 15 31
M  V30 34 1 16 32
M  V30 35 1 17 33
M  V30 36 1 18 34
M  V30 37 1 18 35
M  V30 38 1 18 36
M  V30 END BOND
M  V30 BEGIN COLLECTION
M  V30 MDLV30/STERAC1 ATOMS=(1 10)
M  V30 END COLLECTION
M  V30 END CTAB
M  END
>  <NO.>
1910

>  <Name>
metapramine

>  <SMILES>
CNC1Cc2ccccc2N(C)c2ccccc21

>  <logBB>


>  <Class>
1

>  <MW>
238.15

>  <nHBAcc>
2

>  <nHBDon>
1

>  <SLogP>
3.27

>  <TopoPSA>
15.27

>  <MMFF94 Energy>
67.624

$$$$
CNCC(O)c1ccc(O)c(O)c1
Actelion Java MolfileCreator 2.0

  0  0  0  0  0  0              0 V3000
M  V30 BEGIN CTAB
M  V30 COUNTS 26 26 0 0 0
M  V30 BEGIN ATOM
M  V30 1 O 1.1664 2.5676 3.2687 0
M  V30 2 C 1.1343 1.6321 2.2731 0
M  V30 3 C 2.3194 1.0282 1.8621 0
M  V30 4 C -0.0748 1.2856 1.6703 0
M  V30 5 O 3.4963 1.3776 2.4617 0
M  V30 6 C 2.3012 0.0799 0.8438 0
M  V30 7 C -0.1166 0.3218 0.6437 0
M  V30 8 C 1.0891 -0.2682 0.2371 0
M  V30 9 C -1.4634 -0.0056 0.0234 0 CFG=1
M  V30 10 O -1.9268 1.148 -0.6934 0
M  V30 11 C -1.5544 -1.2394 -0.914 0
M  V30 12 N -0.9612 -0.9943 -2.2449 0
M  V30 13 C -1.1095 -2.1645 -3.1005 0
M  V30 14 H 0.2701 2.9076 3.4113 0
M  V30 15 H -1.0001 1.7624 1.9853 0
M  V30 16 H 4.2181 0.8743 2.0562 0
M  V30 17 H 3.2158 -0.3963 0.5045 0
M  V30 18 H 1.1112 -1.0036 -0.5641 0
M  V30 19 H -2.1717 -0.1792 0.8437 0
M  V30 20 H -1.1418 1.5002 -1.1513 0
M  V30 21 H -1.0913 -2.1101 -0.4349 0
M  V30 22 H -2.619 -1.4647 -1.0595 0
M  V30 23 H -1.4658 -0.2102 -2.665 0
M  V30 24 H -2.1628 -2.4219 -3.2523 0
M  V30 25 H -0.5858 -3.0289 -2.6803 0
M  V30 26 H -0.6692 -1.9566 -4.0805 0
M  V30 END ATOM
M  V30 BEGIN BOND
M  V30 1 1 1 2
M  V30 2 2 2 3
M  V30 3 1 2 4
M  V30 4 1 3 5
M  V30 5 1 3 6
M  V30 6 2 4 7
M  V30 7 2 6 8
M  V30 8 1 7 9
M  V30 9 1 9 10
M  V30 10 1 9 11
M  V30 11 1 11 12
M  V30 12 1 12 13
M  V30 13 1 7 8
M  V30 14 1 1 14
M  V30 15 1 4 15
M  V30 16 1 5 16
M  V30 17 1 6 17
M  V30 18 1 8 18
M  V30 19 1 9 19
M  V30 20 1 10 20
M  V30 21 1 11 21
M  V30 22 1 11 22
M  V30 23 1 12 23
M  V30 24 1 13 24
M  V30 25 1 13 25
M  V30 26 1 13 26
M  V30 END BOND
M  V30 BEGIN COLLECTION
M  V30 MDLV30/STERAC1 ATOMS=(1 9)
M  V30 END COLLECTION
M  V30 END CTAB
M  END
>  <NO.>
1911

>  <Name>
dl-adrenaline

>  <SMILES>
CNCC(O)c1ccc(O)c(O)c1

>  <logBB>


>  <Class>
-1

>  <MW>
183.09

>  <nHBAcc>
4

>  <nHBDon>
4

>  <SLogP>
0.35

>  <TopoPSA>
72.72

>  <MMFF94 Energy>
48.88

$$$$
CNCC(O)c1cccc(OC(=O)C(C)(C)C)c1
Actelion Java MolfileCreator 2.0

  0  0  0  0  0  0              0 V3000
M  V30 BEGIN CTAB
M  V30 COUNTS 39 39 0 0 0
M  V30 BEGIN ATOM
M  V30 1 O 0.6253 -2.1118 1.4857 0
M  V30 2 C 0.1948 -2.6045 0.4501 0
M  V30 3 O -0.6021 -1.9559 -0.4925 0
M  V30 4 C 0.4551 -4.0468 -0.001 0
M  V30 5 C -0.8936 -0.6202 -0.2011 0
M  V30 6 C 1.3345 -4.7569 1.0407 0
M  V30 7 C -0.8788 -4.7954 -0.1206 0
M  V30 8 C 1.1884 -4.0376 -1.3487 0
M  V30 9 C 0.1021 0.3548 -0.2617 0
M  V30 10 C -2.2166 -0.2836 0.0616 0
M  V30 11 C -0.2098 1.7024 -0.0101 0
M  V30 12 C -2.5407 1.0494 0.2978 0
M  V30 13 C -1.5463 2.0339 0.262 0
M  V30 14 C 0.9107 2.7231 -0.0784 0 CFG=1
M  V30 15 O 1.266 2.9219 -1.4549 0
M  V30 16 C 0.6651 4.1089 0.5771 0
M  V30 17 N -0.1799 4.9958 -0.2503 0
M  V30 18 C -0.3252 6.3032 0.3755 0
M  V30 19 H 0.8485 -4.7775 2.0232 0
M  V30 20 H 1.5407 -5.7925 0.7481 0
M  V30 21 H 2.2966 -4.246 1.1629 0
M  V30 22 H -1.4372 -4.7577 0.8218 0
M  V30 23 H -1.5198 -4.3587 -0.8946 0
M  V30 24 H -0.7209 -5.8484 -0.3786 0
M  V30 25 H 2.1147 -3.4547 -1.2886 0
M  V30 26 H 0.5754 -3.5914 -2.1398 0
M  V30 27 H 1.4477 -5.0538 -1.666 0
M  V30 28 H 1.1242 0.069 -0.4987 0
M  V30 29 H -2.9878 -1.047 0.0818 0
M  V30 30 H -3.5701 1.3298 0.507 0
M  V30 31 H -1.841 3.0655 0.4437 0
M  V30 32 H 1.7878 2.2907 0.4195 0
M  V30 33 H 0.4223 2.9154 -1.9424 0
M  V30 34 H 0.2354 3.982 1.5779 0
M  V30 35 H 1.6431 4.5944 0.6922 0
M  V30 36 H 0.2896 5.1067 -1.152 0
M  V30 37 H 0.6425 6.7989 0.5036 0
M  V30 38 H -0.818 6.2215 1.3496 0
M  V30 39 H -0.9492 6.9421 -0.2569 0
M  V30 END ATOM
M  V30 BEGIN BOND
M  V30 1 2 1 2
M  V30 2 1 2 3
M  V30 3 1 2 4
M  V30 4 1 3 5
M  V30 5 1 4 6
M  V30 6 1 4 7
M  V30 7 1 4 8
M  V30 8 2 5 9
M  V30 9 1 5 10
M  V30 10 1 9 11
M  V30 11 2 10 12
M  V30 12 2 11 13
M  V30 13 1 11 14
M  V30 14 1 14 15
M  V30 15 1 14 16
M  V30 16 1 16 17
M  V30 17 1 17 18
M  V30 18 1 12 13
M  V30 19 1 6 19
M  V30 20 1 6 20
M  V30 21 1 6 21
M  V30 22 1 7 22
M  V30 23 1 7 23
M  V30 24 1 7 24
M  V30 25 1 8 25
M  V30 26 1 8 26
M  V30 27 1 8 27
M  V30 28 1 9 28
M  V30 29 1 10 29
M  V30 30 1 12 30
M  V30 31 1 13 31
M  V30 32 1 14 32
M  V30 33 1 15 33
M  V30 34 1 16 34
M  V30 35 1 16 35
M  V30 36 1 17 36
M  V30 37 1 18 37
M  V30 38 1 18 38
M  V30 39 1 18 39
M  V30 END BOND
M  V30 BEGIN COLLECTION
M  V30 MDLV30/STERAC1 ATOMS=(1 14)
M  V30 END COLLECTION
M  V30 END CTAB
M  END
>  <NO.>
1912

>  <Name>
pivenfrine

>  <SMILES>
CNCC(O)c1cccc(OC(=O)C(C)(C)C)c1

>  <logBB>


>  <Class>
-1

>  <MW>
251.15

>  <nHBAcc>
4

>  <nHBDon>
2

>  <SLogP>
1.89

>  <TopoPSA>
58.56

>  <MMFF94 Energy>
71.281

$$$$
CNCC12CCC(c3ccccc31)c1ccccc12
Actelion Java MolfileCreator 2.0

  0  0  0  0  0  0              0 V3000
M  V30 BEGIN CTAB
M  V30 COUNTS 38 41 0 0 0
M  V30 BEGIN ATOM
M  V30 1 N 2.4163 -1.2881 1.2881 0
M  V30 2 C 1.4939 -0.1417 1.3867 0
M  V30 3 C 3.5811 -1.1001 2.1423 0
M  V30 4 C 0.2067 -0.2268 0.5097 0
M  V30 5 C -0.7875 0.9395 0.779 0
M  V30 6 C 0.4291 -0.2702 -1.0218 0
M  V30 7 C -0.6156 -1.5266 0.8365 0
M  V30 8 C -1.9835 0.8529 0.0141 0
M  V30 9 C -0.6105 2.0147 1.647 0
M  V30 10 C -0.7797 -0.3426 -1.7691 0
M  V30 11 C 1.6458 -0.2312 -1.6956 0
M  V30 12 C -1.9296 -1.5923 0.0016 0
M  V30 13 C -2.9819 1.8147 0.1255 0
M  V30 14 C -2.0411 -0.3531 -0.9142 0
M  V30 15 C -1.6175 2.9788 1.7584 0
M  V30 16 C -0.7651 -0.3812 -3.1593 0
M  V30 17 C 1.6576 -0.2735 -3.0929 0
M  V30 18 C -2.7937 2.8791 1.0056 0
M  V30 19 C 0.4625 -0.3483 -3.8189 0
M  V30 20 H 1.934 -2.143 1.5622 0
M  V30 21 H 2.041 0.7731 1.1223 0
M  V30 22 H 1.1942 -0.0451 2.4389 0
M  V30 23 H 3.2972 -1.0171 3.1965 0
M  V30 24 H 4.1457 -0.2085 1.8512 0
M  V30 25 H 4.2498 -1.9604 2.0404 0
M  V30 26 H -0.8671 -1.5625 1.9048 0
M  V30 27 H -0.0291 -2.4281 0.6194 0
M  V30 28 H 0.2917 2.1316 2.2379 0
M  V30 29 H 2.5881 -0.1742 -1.1594 0
M  V30 30 H -1.9351 -2.5131 -0.5952 0
M  V30 31 H -2.7896 -1.6493 0.681 0
M  V30 32 H -3.8908 1.7471 -0.4643 0
M  V30 33 H -2.9536 -0.3708 -1.5181 0
M  V30 34 H -1.4837 3.8208 2.4337 0
M  V30 35 H -1.6892 -0.4307 -3.7266 0
M  V30 36 H 2.6073 -0.247 -3.6215 0
M  V30 37 H -3.5619 3.6422 1.1031 0
M  V30 38 H 0.4941 -0.3769 -4.9049 0
M  V30 END ATOM
M  V30 BEGIN BOND
M  V30 1 1 1 2
M  V30 2 1 1 3
M  V30 3 1 2 4
M  V30 4 1 4 5
M  V30 5 1 4 6
M  V30 6 1 4 7
M  V30 7 2 5 8
M  V30 8 1 5 9
M  V30 9 2 6 10
M  V30 10 1 6 11
M  V30 11 1 7 12
M  V30 12 1 8 13
M  V30 13 1 8 14
M  V30 14 2 9 15
M  V30 15 1 10 16
M  V30 16 2 11 17
M  V30 17 2 13 18
M  V30 18 2 16 19
M  V30 19 1 10 14
M  V30 20 1 12 14
M  V30 21 1 15 18
M  V30 22 1 17 19
M  V30 23 1 1 20
M  V30 24 1 2 21
M  V30 25 1 2 22
M  V30 26 1 3 23
M  V30 27 1 3 24
M  V30 28 1 3 25
M  V30 29 1 7 26
M  V30 30 1 7 27
M  V30 31 1 9 28
M  V30 32 1 11 29
M  V30 33 1 12 30
M  V30 34 1 12 31
M  V30 35 1 13 32
M  V30 36 1 14 33
M  V30 37 1 15 34
M  V30 38 1 16 35
M  V30 39 1 17 36
M  V30 40 1 18 37
M  V30 41 1 19 38
M  V30 END BOND
M  V30 END CTAB
M  END
>  <NO.>
1913

>  <Name>
benzoctamine

>  <SMILES>
CNCC12CCC(c3ccccc31)c1ccccc12

>  <logBB>


>  <Class>
1

>  <MW>
249.15

>  <nHBAcc>
1

>  <nHBDon>
1

>  <SLogP>
3.43

>  <TopoPSA>
12.03

>  <MMFF94 Energy>
115.32

$$$$
CNCCC(Oc1cccc2ccccc12)c1cccs1
Actelion Java MolfileCreator 2.0

  0  0  0  0  0  0              0 V3000
M  V30 BEGIN CTAB
M  V30 COUNTS 40 42 0 0 0
M  V30 BEGIN ATOM
M  V30 1 S 0.7235 2.2522 3.4604 0
M  V30 2 C 1.2391 1.8006 1.8843 0
M  V30 3 C 2.3046 2.1425 4.0945 0
M  V30 4 C 2.6121 1.6082 1.86 0
M  V30 5 C 0.2712 1.709 0.7167 0 CFG=1
M  V30 6 C 3.2227 1.7925 3.1327 0
M  V30 7 O 0.7868 0.8013 -0.2768 0
M  V30 8 C -1.2209 1.5064 1.0361 0
M  V30 9 C 0.7102 -0.5634 -0.1491 0
M  V30 10 C -2.0776 1.478 -0.2345 0
M  V30 11 C 0.8254 -1.3022 -1.3567 0
M  V30 12 C 0.5634 -1.2368 1.0656 0
M  V30 13 N -3.4951 1.3809 0.1288 0
M  V30 14 C 0.7617 -2.7169 -1.3112 0
M  V30 15 C 0.995 -0.6893 -2.6185 0
M  V30 16 C 0.503 -2.6289 1.1001 0
M  V30 17 C -4.3352 1.3552 -1.0621 0
M  V30 18 C 0.5975 -3.3631 -0.0789 0
M  V30 19 C 0.8647 -3.4615 -2.4984 0
M  V30 20 C 1.0966 -1.442 -3.7903 0
M  V30 21 C 1.0308 -2.8283 -3.7297 0
M  V30 22 H 2.4869 2.3473 5.1407 0
M  V30 23 H 3.1528 1.3343 0.9607 0
M  V30 24 H 0.3396 2.6933 0.2306 0
M  V30 25 H 4.2816 1.6783 3.3297 0
M  V30 26 H -1.3851 0.5827 1.602 0
M  V30 27 H -1.572 2.3261 1.6767 0
M  V30 28 H -1.8 0.6263 -0.8643 0
M  V30 29 H -1.905 2.3966 -0.8078 0
M  V30 30 H 0.5068 -0.7118 2.0123 0
M  V30 31 H -3.648 0.523 0.66 0
M  V30 32 H 1.0514 0.3949 -2.6937 0
M  V30 33 H 0.389 -3.1425 2.0516 0
M  V30 34 H -4.1079 0.4915 -1.6955 0
M  V30 35 H -4.2177 2.2718 -1.6491 0
M  V30 36 H -5.3864 1.2874 -0.7646 0
M  V30 37 H 0.5494 -4.4486 -0.027 0
M  V30 38 H 0.8173 -4.5481 -2.4716 0
M  V30 39 H 1.228 -0.9421 -4.7462 0
M  V30 40 H 1.11 -3.4184 -4.6388 0
M  V30 END ATOM
M  V30 BEGIN BOND
M  V30 1 1 1 2
M  V30 2 1 1 3
M  V30 3 2 2 4
M  V30 4 1 2 5
M  V30 5 2 3 6
M  V30 6 1 5 7
M  V30 7 1 5 8
M  V30 8 1 7 9
M  V30 9 1 8 10
M  V30 10 1 9 11
M  V30 11 2 9 12
M  V30 12 1 10 13
M  V30 13 1 11 14
M  V30 14 2 11 15
M  V30 15 1 12 16
M  V30 16 1 13 17
M  V30 17 1 14 18
M  V30 18 2 14 19
M  V30 19 1 15 20
M  V30 20 1 19 21
M  V30 21 1 4 6
M  V30 22 2 16 18
M  V30 23 2 20 21
M  V30 24 1 3 22
M  V30 25 1 4 23
M  V30 26 1 5 24
M  V30 27 1 6 25
M  V30 28 1 8 26
M  V30 29 1 8 27
M  V30 30 1 10 28
M  V30 31 1 10 29
M  V30 32 1 12 30
M  V30 33 1 13 31
M  V30 34 1 15 32
M  V30 35 1 16 33
M  V30 36 1 17 34
M  V30 37 1 17 35
M  V30 38 1 17 36
M  V30 39 1 18 37
M  V30 40 1 19 38
M  V30 41 1 20 39
M  V30 42 1 21 40
M  V30 END BOND
M  V30 BEGIN COLLECTION
M  V30 MDLV30/STERAC1 ATOMS=(1 5)
M  V30 END COLLECTION
M  V30 END CTAB
M  END
>  <NO.>
1914

>  <Name>
duloxetine

>  <SMILES>
CNCCC(Oc1cccc2ccccc12)c1cccs1

>  <logBB>


>  <Class>
1

>  <MW>
297.12

>  <nHBAcc>
3

>  <nHBDon>
1

>  <SLogP>
4.63

>  <TopoPSA>
21.26

>  <MMFF94 Energy>
61.216

$$$$
CNCCC(Oc1ccccc1OC)c1ccccc1
Actelion Java MolfileCreator 2.0

  0  0  0  0  0  0              0 V3000
M  V30 BEGIN CTAB
M  V30 COUNTS 41 42 0 0 0
M  V30 BEGIN ATOM
M  V30 1 O -0.3925 -0.7066 -0.7066 0
M  V30 2 C 0.7036 -1.4966 -0.4542 0
M  V30 3 C -0.6143 0.2622 0.3382 0 CFG=2
M  V30 4 C 2.0148 -1.0357 -0.6532 0
M  V30 5 C 0.4581 -2.8154 -0.0663 0
M  V30 6 C -1.4891 -0.343 1.4295 0
M  V30 7 C -1.3116 1.4895 -0.2774 0
M  V30 8 O 2.1491 0.2587 -1.0797 0
M  V30 9 C 3.0768 -1.911 -0.4064 0
M  V30 10 C 1.524 -3.678 0.1736 0
M  V30 11 C -2.6944 -0.9933 1.1192 0
M  V30 12 C -1.0982 -0.2546 2.774 0
M  V30 13 C -0.4145 2.1977 -1.2952 0
M  V30 14 C 3.4592 0.7094 -1.3955 0
M  V30 15 C 2.831 -3.2249 0.0082 0
M  V30 16 C -3.4879 -1.5405 2.1283 0
M  V30 17 C -1.8936 -0.8026 3.7821 0
M  V30 18 N -1.0961 3.3899 -1.8132 0
M  V30 19 C -3.0876 -1.4444 3.4592 0
M  V30 20 C -0.2669 4.0722 -2.7978 0
M  V30 21 H 0.3356 0.5953 0.7783 0
M  V30 22 H -0.5635 -3.1633 0.0573 0
M  V30 23 H -2.238 1.1829 -0.781 0
M  V30 24 H -1.5916 2.1927 0.5181 0
M  V30 25 H 4.1103 -1.6058 -0.5294 0
M  V30 26 H 1.3346 -4.701 0.4874 0
M  V30 27 H -3.0146 -1.0815 0.0831 0
M  V30 28 H -0.1684 0.2402 3.0454 0
M  V30 29 H -0.1756 1.5174 -2.1206 0
M  V30 30 H 0.5214 2.4951 -0.8087 0
M  V30 31 H 4.0936 0.7289 -0.5035 0
M  V30 32 H 3.378 1.7354 -1.7674 0
M  V30 33 H 3.9076 0.1026 -2.1888 0
M  V30 34 H 3.6641 -3.8979 0.1958 0
M  V30 35 H -4.4178 -2.0424 1.8746 0
M  V30 36 H -1.5804 -0.7289 4.8202 0
M  V30 37 H -1.9728 3.1088 -2.2526 0
M  V30 38 H -3.7056 -1.8704 4.245 0
M  V30 39 H -0.0514 3.4288 -3.657 0
M  V30 40 H 0.6766 4.4082 -2.356 0
M  V30 41 H -0.7926 4.959 -3.1649 0
M  V30 END ATOM
M  V30 BEGIN BOND
M  V30 1 1 1 2
M  V30 2 1 1 3
M  V30 3 2 2 4
M  V30 4 1 2 5
M  V30 5 1 3 6
M  V30 6 1 3 7
M  V30 7 1 4 8
M  V30 8 1 4 9
M  V30 9 2 5 10
M  V30 10 2 6 11
M  V30 11 1 6 12
M  V30 12 1 7 13
M  V30 13 1 8 14
M  V30 14 2 9 15
M  V30 15 1 11 16
M  V30 16 2 12 17
M  V30 17 1 13 18
M  V30 18 2 16 19
M  V30 19 1 18 20
M  V30 20 1 10 15
M  V30 21 1 17 19
M  V30 22 1 3 21
M  V30 23 1 5 22
M  V30 24 1 7 23
M  V30 25 1 7 24
M  V30 26 1 9 25
M  V30 27 1 10 26
M  V30 28 1 11 27
M  V30 29 1 12 28
M  V30 30 1 13 29
M  V30 31 1 13 30
M  V30 32 1 14 31
M  V30 33 1 14 32
M  V30 34 1 14 33
M  V30 35 1 15 34
M  V30 36 1 16 35
M  V30 37 1 17 36
M  V30 38 1 18 37
M  V30 39 1 19 38
M  V30 40 1 20 39
M  V30 41 1 20 40
M  V30 42 1 20 41
M  V30 END BOND
M  V30 BEGIN COLLECTION
M  V30 MDLV30/STERAC1 ATOMS=(1 3)
M  V30 END COLLECTION
M  V30 END CTAB
M  END
>  <NO.>
1915

>  <Name>
nisoxetine

>  <SMILES>
CNCCC(Oc1ccccc1OC)c1ccccc1

>  <logBB>


>  <Class>
1

>  <MW>
271.16

>  <nHBAcc>
3

>  <nHBDon>
1

>  <SLogP>
3.42

>  <TopoPSA>
30.49

>  <MMFF94 Energy>
64.104

$$$$
CNCCC=C1c2ccccc2C(C)(C)c2ccccc21
Actelion Java MolfileCreator 2.0

  0  0  0  0  0  0              0 V3000
M  V30 BEGIN CTAB
M  V30 COUNTS 44 46 0 0 0
M  V30 BEGIN ATOM
M  V30 1 N 3.8908 -0.2378 1.2691 0
M  V30 2 C 3.3861 1.1074 1.559 0
M  V30 3 C 5.3464 -0.2674 1.2841 0
M  V30 4 C 1.8479 1.1709 1.5508 0
M  V30 5 C 1.2481 0.9865 0.1786 0
M  V30 6 C 0.2776 0.1415 -0.2384 0
M  V30 7 C -0.2772 0.3453 -1.5993 0
M  V30 8 C -0.4197 -0.817 0.645 0
M  V30 9 C -1.6855 0.2959 -1.7326 0
M  V30 10 C 0.5417 0.5341 -2.7235 0
M  V30 11 C -1.8303 -0.8746 0.5492 0
M  V30 12 C 0.2705 -1.7162 1.4689 0
M  V30 13 C -2.2287 0.5094 -3.0133 0
M  V30 14 C -2.5589 0.0509 -0.4672 0
M  V30 15 C -0.0223 0.7237 -3.9818 0
M  V30 16 C -2.5096 -1.7716 1.3954 0
M  V30 17 C -0.4228 -2.6112 2.279 0
M  V30 18 C -1.4052 0.7201 -4.124 0
M  V30 19 C -2.8164 1.4141 0.2168 0
M  V30 20 C -3.9427 -0.5344 -0.8567 0
M  V30 21 C -1.8121 -2.6263 2.2541 0
M  V30 22 H 3.5329 -0.8896 1.9657 0
M  V30 23 H 3.7358 1.4246 2.5494 0
M  V30 24 H 3.782 1.8217 0.8262 0
M  V30 25 H 5.744 0.0141 2.2646 0
M  V30 26 H 5.7639 0.3995 0.5228 0
M  V30 27 H 5.6925 -1.2808 1.0588 0
M  V30 28 H 1.4421 0.4802 2.2939 0
M  V30 29 H 1.5559 2.1726 1.8933 0
M  V30 30 H 1.6324 1.7178 -0.5327 0
M  V30 31 H 1.6244 0.5225 -2.624 0
M  V30 32 H 1.3563 -1.7337 1.4675 0
M  V30 33 H -3.3005 0.5179 -3.1837 0
M  V30 34 H 0.6164 0.8722 -4.8479 0
M  V30 35 H -3.5928 -1.8375 1.404 0
M  V30 36 H 0.1204 -3.2979 2.9217 0
M  V30 37 H -1.8491 0.8746 -5.1044 0
M  V30 38 H -3.4364 1.297 1.1139 0
M  V30 39 H -1.8888 1.9071 0.5298 0
M  V30 40 H -3.3356 2.1052 -0.4582 0
M  V30 41 H -3.8401 -1.5078 -1.3508 0
M  V30 42 H -4.599 -0.6619 0.0108 0
M  V30 43 H -4.5006 0.1287 -1.5267 0
M  V30 44 H -2.3586 -3.3189 2.8894 0
M  V30 END ATOM
M  V30 BEGIN BOND
M  V30 1 1 1 2
M  V30 2 1 1 3
M  V30 3 1 2 4
M  V30 4 1 4 5
M  V30 5 2 5 6
M  V30 6 1 6 7
M  V30 7 1 6 8
M  V30 8 2 7 9
M  V30 9 1 7 10
M  V30 10 2 8 11
M  V30 11 1 8 12
M  V30 12 1 9 13
M  V30 13 1 9 14
M  V30 14 2 10 15
M  V30 15 1 11 16
M  V30 16 2 12 17
M  V30 17 2 13 18
M  V30 18 1 14 19
M  V30 19 1 14 20
M  V30 20 2 16 21
M  V30 21 1 11 14
M  V30 22 1 15 18
M  V30 23 1 17 21
M  V30 24 1 1 22
M  V30 25 1 2 23
M  V30 26 1 2 24
M  V30 27 1 3 25
M  V30 28 1 3 26
M  V30 29 1 3 27
M  V30 30 1 4 28
M  V30 31 1 4 29
M  V30 32 1 5 30
M  V30 33 1 10 31
M  V30 34 1 12 32
M  V30 35 1 13 33
M  V30 36 1 15 34
M  V30 37 1 16 35
M  V30 38 1 17 36
M  V30 39 1 18 37
M  V30 40 1 19 38
M  V30 41 1 19 39
M  V30 42 1 19 40
M  V30 43 1 20 41
M  V30 44 1 20 42
M  V30 45 1 20 43
M  V30 46 1 21 44
M  V30 END BOND
M  V30 END CTAB
M  END
>  <NO.>
1916

>  <Name>
litracen

>  <SMILES>
CNCCC=C1c2ccccc2C(C)(C)c2ccccc21

>  <logBB>


>  <Class>
1

>  <MW>
277.18

>  <nHBAcc>
1

>  <nHBDon>
1

>  <SLogP>
4.37

>  <TopoPSA>
12.03

>  <MMFF94 Energy>
90.012

$$$$
CNCCC=C1c2ccccc2C2CC2c2ccccc21
Actelion Java MolfileCreator 2.0

  0  0  0  0  0  0              0 V3000
M  V30 BEGIN CTAB
M  V30 COUNTS 42 45 0 0 0
M  V30 BEGIN ATOM
M  V30 1 N -0.8784 0.3193 -3.6773 0
M  V30 2 C -1.1363 -1.0826 -3.333 0
M  V30 3 C -0.8148 0.503 -5.1198 0
M  V30 4 C -1.2646 -1.2928 -1.8142 0
M  V30 5 C 0.0359 -1.1083 -1.0737 0
M  V30 6 C 0.2973 -0.2741 -0.0443 0
M  V30 7 C 1.6379 -0.3571 0.58 0
M  V30 8 C -0.7233 0.6395 0.5112 0
M  V30 9 C 1.7664 -0.8275 1.9045 0
M  V30 10 C 2.7626 0.0789 -0.1412 0
M  V30 11 C -1.2302 0.4227 1.8093 0
M  V30 12 C -1.1191 1.7621 -0.2355 0
M  V30 13 C 3.057 -0.8194 2.4695 0
M  V30 14 C 0.5954 -1.3166 2.7337 0
M  V30 15 C 4.0269 0.0591 0.4419 0
M  V30 16 C -2.1483 1.367 2.3104 0
M  V30 17 C -0.8033 -0.7365 2.6859 0
M  V30 18 C -2.039 2.6698 0.2829 0
M  V30 19 C 4.1741 -0.3872 1.7502 0
M  V30 20 C 0.0906 -0.4636 3.8709 0
M  V30 21 C -2.5556 2.4714 1.5577 0
M  V30 22 H -1.6231 0.8994 -3.2919 0
M  V30 23 H -2.0731 -1.4092 -3.8014 0
M  V30 24 H -0.3321 -1.7181 -3.7237 0
M  V30 25 H -1.7596 0.2316 -5.6017 0
M  V30 26 H -0.0053 -0.0886 -5.5588 0
M  V30 27 H -0.6127 1.5549 -5.3445 0
M  V30 28 H -2.0649 -0.658 -1.4199 0
M  V30 29 H -1.5913 -2.3264 -1.6421 0
M  V30 30 H 0.8294 -1.7747 -1.4116 0
M  V30 31 H 2.6468 0.4498 -1.1573 0
M  V30 32 H -0.6903 1.9356 -1.2198 0
M  V30 33 H 3.1912 -1.1638 3.4931 0
M  V30 34 H 0.6291 -2.388 2.9307 0
M  V30 35 H 4.8909 0.4015 -0.1204 0
M  V30 36 H -2.5511 1.236 3.3129 0
M  V30 37 H -1.5953 -1.4671 2.8491 0
M  V30 38 H -2.338 3.5357 -0.3007 0
M  V30 39 H 5.156 -0.3978 2.2153 0
M  V30 40 H 0.5017 0.5334 3.9887 0
M  V30 41 H -0.1451 -0.955 4.8073 0
M  V30 42 H -3.266 3.18 1.9751 0
M  V30 END ATOM
M  V30 BEGIN BOND
M  V30 1 1 1 2
M  V30 2 1 1 3
M  V30 3 1 2 4
M  V30 4 1 4 5
M  V30 5 2 5 6
M  V30 6 1 6 7
M  V30 7 1 6 8
M  V30 8 2 7 9
M  V30 9 1 7 10
M  V30 10 2 8 11
M  V30 11 1 8 12
M  V30 12 1 9 13
M  V30 13 1 9 14
M  V30 14 2 10 15
M  V30 15 1 11 16
M  V30 16 1 11 17
M  V30 17 2 12 18
M  V30 18 2 13 19
M  V30 19 1 14 20
M  V30 20 2 16 21
M  V30 21 1 14 17
M  V30 22 1 15 19
M  V30 23 1 17 20
M  V30 24 1 18 21
M  V30 25 1 1 22
M  V30 26 1 2 23
M  V30 27 1 2 24
M  V30 28 1 3 25
M  V30 29 1 3 26
M  V30 30 1 3 27
M  V30 31 1 4 28
M  V30 32 1 4 29
M  V30 33 1 5 30
M  V30 34 1 10 31
M  V30 35 1 12 32
M  V30 36 1 13 33
M  V30 37 1 14 34
M  V30 38 1 15 35
M  V30 39 1 16 36
M  V30 40 1 17 37
M  V30 41 1 18 38
M  V30 42 1 19 39
M  V30 43 1 20 40
M  V30 44 1 20 41
M  V30 45 1 21 42
M  V30 END BOND
M  V30 END CTAB
M  END
>  <NO.>
1917

>  <Name>
octriptyline

>  <SMILES>
CNCCC=C1c2ccccc2C2CC2c2ccccc21

>  <logBB>


>  <Class>
1

>  <MW>
275.17

>  <nHBAcc>
1

>  <nHBDon>
1

>  <SLogP>
4.31

>  <TopoPSA>
12.03

>  <MMFF94 Energy>
66.673

$$$$
CNCCCC1(C)C(=O)N(c2ccccc2)c2ccccc21
Actelion Java MolfileCreator 2.0

  0  0  0  0  0  0              0 V3000
M  V30 BEGIN CTAB
M  V30 COUNTS 44 46 0 0 0
M  V30 BEGIN ATOM
M  V30 1 O 0.1583 2.6151 0.7126 0
M  V30 2 C 0.1075 1.3995 0.8464 0
M  V30 3 N 1.0057 0.5701 1.5296 0
M  V30 4 C -0.9885 0.4805 0.236 0 CFG=2
M  V30 5 C 2.1642 1.0115 2.1867 0
M  V30 6 C 0.5744 -0.763 1.5417 0
M  V30 7 C -0.6077 -0.8725 0.8021 0
M  V30 8 C -0.842 0.5704 -1.3016 0
M  V30 9 C -2.3539 0.9484 0.7443 0
M  V30 10 C 3.4171 0.4814 1.8548 0
M  V30 11 C 2.0774 2.0148 3.1572 0
M  V30 12 C 1.112 -1.8543 2.2069 0
M  V30 13 C -1.2767 -2.0857 0.7162 0
M  V30 14 C -1.8749 -0.2089 -2.1239 0
M  V30 15 C 4.5666 0.9323 2.5068 0
M  V30 16 C 3.228 2.4647 3.808 0
M  V30 17 C 0.4532 -3.0818 2.1051 0
M  V30 18 C -0.7326 -3.1961 1.3654 0
M  V30 19 C -1.6876 0.0483 -3.6231 0
M  V30 20 C 4.4707 1.921 3.4853 0
M  V30 21 N -2.6778 -0.7193 -4.3787 0
M  V30 22 C -2.5405 -0.481 -5.8096 0
M  V30 23 H 0.1636 0.2375 -1.5944 0
M  V30 24 H -0.9003 1.6275 -1.5965 0
M  V30 25 H -2.6046 1.9378 0.3452 0
M  V30 26 H -3.1559 0.2572 0.4648 0
M  V30 27 H -2.3643 1.0303 1.8382 0
M  V30 28 H 3.5074 -0.2741 1.079 0
M  V30 29 H 1.1155 2.4546 3.4092 0
M  V30 30 H 2.0085 -1.7729 2.8117 0
M  V30 31 H -2.2113 -2.1805 0.1719 0
M  V30 32 H -1.7725 -1.2817 -1.9319 0
M  V30 33 H -2.8899 0.0845 -1.8333 0
M  V30 34 H 5.5371 0.5192 2.245 0
M  V30 35 H 3.1535 3.2452 4.5609 0
M  V30 36 H 0.8541 -3.9535 2.6173 0
M  V30 37 H -1.2406 -4.1565 1.3095 0
M  V30 38 H -0.6733 -0.2414 -3.9227 0
M  V30 39 H -1.8102 1.1192 -3.8248 0
M  V30 40 H 5.3659 2.2763 3.9894 0
M  V30 41 H -2.5529 -1.7139 -4.192 0
M  V30 42 H -1.5549 -0.7871 -6.1749 0
M  V30 43 H -2.7014 0.5743 -6.0526 0
M  V30 44 H -3.2951 -1.0614 -6.3495 0
M  V30 END ATOM
M  V30 BEGIN BOND
M  V30 1 2 1 2
M  V30 2 1 2 3
M  V30 3 1 2 4
M  V30 4 1 3 5
M  V30 5 1 3 6
M  V30 6 1 4 7
M  V30 7 1 4 8
M  V30 8 1 4 9
M  V30 9 2 5 10
M  V30 10 1 5 11
M  V30 11 1 6 12
M  V30 12 1 7 13
M  V30 13 1 8 14
M  V30 14 1 10 15
M  V30 15 2 11 16
M  V30 16 2 12 17
M  V30 17 2 13 18
M  V30 18 1 14 19
M  V30 19 2 15 20
M  V30 20 1 19 21
M  V30 21 1 21 22
M  V30 22 2 6 7
M  V30 23 1 16 20
M  V30 24 1 17 18
M  V30 25 1 8 23
M  V30 26 1 8 24
M  V30 27 1 9 25
M  V30 28 1 9 26
M  V30 29 1 9 27
M  V30 30 1 10 28
M  V30 31 1 11 29
M  V30 32 1 12 30
M  V30 33 1 13 31
M  V30 34 1 14 32
M  V30 35 1 14 33
M  V30 36 1 15 34
M  V30 37 1 16 35
M  V30 38 1 17 36
M  V30 39 1 18 37
M  V30 40 1 19 38
M  V30 41 1 19 39
M  V30 42 1 20 40
M  V30 43 1 21 41
M  V30 44 1 22 42
M  V30 45 1 22 43
M  V30 46 1 22 44
M  V30 END BOND
M  V30 BEGIN COLLECTION
M  V30 MDLV30/STERAC1 ATOMS=(1 4)
M  V30 END COLLECTION
M  V30 END CTAB
M  END
>  <NO.>
1918

>  <Name>
amedalin

>  <SMILES>
CNCCCC1(C)C(=O)N(c2ccccc2)c2ccccc21

>  <logBB>


>  <Class>
1

>  <MW>
294.17

>  <nHBAcc>
2

>  <nHBDon>
1

>  <SLogP>
3.62

>  <TopoPSA>
32.34

>  <MMFF94 Energy>
68.462

$$$$
CNCCCC1(C)CN(c2ccccc2)c2ccccc21
Actelion Java MolfileCreator 2.0

  0  0  0  0  0  0              0 V3000
M  V30 BEGIN CTAB
M  V30 COUNTS 45 47 0 0 0
M  V30 BEGIN ATOM
M  V30 1 N 0.3156 -1.7369 0.0 0
M  V30 2 C -0.2144 -2.7681 -0.7815 0
M  V30 3 C 1.6317 -1.2735 0.1922 0
M  V30 4 C -0.5771 -0.6431 0.4332 0
M  V30 5 C -1.3862 -3.4363 -0.392 0
M  V30 6 C 0.3828 -3.1681 -1.9854 0
M  V30 7 C 1.6764 -0.0346 0.8412 0
M  V30 8 C 2.8159 -1.9189 -0.1331 0
M  V30 9 C 0.2784 0.4135 1.2006 0 CFG=1
M  V30 10 C -1.9329 -4.4661 -1.1652 0
M  V30 11 C -0.1593 -4.1954 -2.7653 0
M  V30 12 C 2.884 0.5918 1.1331 0
M  V30 13 C 4.037 -1.2975 0.1484 0
M  V30 14 C 9.0E-4 1.8528 0.705 0
M  V30 15 C 0.0802 0.2726 2.7187 0
M  V30 16 C -1.3176 -4.846 -2.3533 0
M  V30 17 C 4.0703 -0.0448 0.7719 0
M  V30 18 C -1.4268 2.3534 0.9719 0
M  V30 19 C -1.6934 3.7577 0.4145 0
M  V30 20 N -1.7186 3.7589 -1.0475 0
M  V30 21 C -2.047 5.082 -1.5635 0
M  V30 22 H -1.0285 -0.1931 -0.4617 0
M  V30 23 H -1.3969 -1.0108 1.0618 0
M  V30 24 H -1.8753 -3.1788 0.5434 0
M  V30 25 H 1.2664 -2.6537 -2.3526 0
M  V30 26 H 2.8096 -2.9054 -0.5831 0
M  V30 27 H -2.8354 -4.9718 -0.8328 0
M  V30 28 H 0.3227 -4.4776 -3.6973 0
M  V30 29 H 2.9122 1.5473 1.6466 0
M  V30 30 H 4.9669 -1.7984 -0.1085 0
M  V30 31 H 0.2161 1.9007 -0.3699 0
M  V30 32 H 0.7025 2.5502 1.1818 0
M  V30 33 H 0.6895 0.9997 3.2679 0
M  V30 34 H 0.3677 -0.7253 3.0718 0
M  V30 35 H -0.9653 0.4256 3.0052 0
M  V30 36 H -1.7399 -5.6447 -2.9567 0
M  V30 37 H 5.0265 0.4229 0.9925 0
M  V30 38 H -2.1634 1.6532 0.5607 0
M  V30 39 H -1.5996 2.3914 2.0537 0
M  V30 40 H -0.9322 4.4534 0.7878 0
M  V30 41 H -2.6659 4.0926 0.7958 0
M  V30 42 H -0.8083 3.4815 -1.4128 0
M  V30 43 H -1.3055 5.8273 -1.2575 0
M  V30 44 H -3.0385 5.4035 -1.2283 0
M  V30 45 H -2.0635 5.0524 -2.6574 0
M  V30 END ATOM
M  V30 BEGIN BOND
M  V30 1 1 1 2
M  V30 2 1 1 3
M  V30 3 1 1 4
M  V30 4 2 2 5
M  V30 5 1 2 6
M  V30 6 2 3 7
M  V30 7 1 3 8
M  V30 8 1 4 9
M  V30 9 1 5 10
M  V30 10 2 6 11
M  V30 11 1 7 12
M  V30 12 2 8 13
M  V30 13 1 9 14
M  V30 14 1 9 15
M  V30 15 2 10 16
M  V30 16 2 12 17
M  V30 17 1 14 18
M  V30 18 1 18 19
M  V30 19 1 19 20
M  V30 20 1 20 21
M  V30 21 1 7 9
M  V30 22 1 11 16
M  V30 23 1 13 17
M  V30 24 1 4 22
M  V30 25 1 4 23
M  V30 26 1 5 24
M  V30 27 1 6 25
M  V30 28 1 8 26
M  V30 29 1 10 27
M  V30 30 1 11 28
M  V30 31 1 12 29
M  V30 32 1 13 30
M  V30 33 1 14 31
M  V30 34 1 14 32
M  V30 35 1 15 33
M  V30 36 1 15 34
M  V30 37 1 15 35
M  V30 38 1 16 36
M  V30 39 1 17 37
M  V30 40 1 18 38
M  V30 41 1 18 39
M  V30 42 1 19 40
M  V30 43 1 19 41
M  V30 44 1 20 42
M  V30 45 1 21 43
M  V30 46 1 21 44
M  V30 47 1 21 45
M  V30 END BOND
M  V30 BEGIN COLLECTION
M  V30 MDLV30/STERAC1 ATOMS=(1 9)
M  V30 END COLLECTION
M  V30 END CTAB
M  END
>  <NO.>
1919

>  <Name>
daledalin

>  <SMILES>
CNCCCC1(C)CN(c2ccccc2)c2ccccc21

>  <logBB>


>  <Class>
1

>  <MW>
280.19

>  <nHBAcc>
2

>  <nHBDon>
1

>  <SLogP>
4.1

>  <TopoPSA>
15.27

>  <MMFF94 Energy>
58.766

$$$$
CNCCCC1(c2ccccc2)OC(C)(C)c2ccccc21
Actelion Java MolfileCreator 2.0

  0  0  0  0  0  0              0 V3000
M  V30 BEGIN CTAB
M  V30 COUNTS 47 49 0 0 0
M  V30 BEGIN ATOM
M  V30 1 O -1.029 -1.029 -0.7123 0
M  V30 2 C -0.4065 0.0293 0.0846 0 CFG=2
M  V30 3 C -1.623 -0.4995 -1.9235 0
M  V30 4 C -0.9454 -0.025 1.5196 0
M  V30 5 C -0.8094 1.2946 -0.6316 0
M  V30 6 C 1.127 -0.1805 -0.0281 0
M  V30 7 C -1.5058 0.9823 -1.7927 0
M  V30 8 C -0.8345 -1.0395 -3.1163 0
M  V30 9 C -3.0768 -0.9663 -1.9812 0
M  V30 10 C -0.2791 0.6208 2.5787 0
M  V30 11 C -2.141 -0.7006 1.8242 0
M  V30 12 C -0.5559 2.6197 -0.2961 0
M  V30 13 C 1.6073 -1.5351 0.5187 0
M  V30 14 C -1.9713 1.9779 -2.6419 0
M  V30 15 C -0.7807 0.5834 3.8829 0
M  V30 16 C -2.6438 -0.7377 3.1278 0
M  V30 17 C -1.0216 3.6296 -1.1406 0
M  V30 18 C 3.0816 -1.825 0.2163 0
M  V30 19 C -1.7262 3.3101 -2.308 0
M  V30 20 C -1.9631 -0.0959 4.1571 0
M  V30 21 N 3.9728 -0.8564 0.8574 0
M  V30 22 C 5.3691 -1.2162 0.6452 0
M  V30 23 H 1.6627 0.6354 0.4706 0
M  V30 24 H 1.4194 -0.13 -1.0856 0
M  V30 25 H -0.8448 -2.1354 -3.1232 0
M  V30 26 H 0.2185 -0.7403 -3.069 0
M  V30 27 H -1.2426 -0.6833 -4.0683 0
M  V30 28 H -3.6486 -0.5919 -1.1242 0
M  V30 29 H -3.1356 -2.0598 -1.9412 0
M  V30 30 H -3.5786 -0.6257 -2.8932 0
M  V30 31 H 0.6468 1.1629 2.4051 0
M  V30 32 H -2.6955 -1.2156 1.044 0
M  V30 33 H -0.0111 2.8775 0.6061 0
M  V30 34 H 1.4467 -1.5835 1.602 0
M  V30 35 H 1.0118 -2.3428 0.0769 0
M  V30 36 H -2.5155 1.7329 -3.5486 0
M  V30 37 H -0.2448 1.0854 4.6842 0
M  V30 38 H -3.5678 -1.2707 3.3354 0
M  V30 39 H -0.8379 4.6715 -0.8898 0
M  V30 40 H 3.2392 -1.8249 -0.869 0
M  V30 41 H 3.308 -2.8334 0.5833 0
M  V30 42 H -2.0841 4.1061 -2.9563 0
M  V30 43 H -2.353 -0.1262 5.1706 0
M  V30 44 H 3.8103 0.0691 0.4639 0
M  V30 45 H 5.6215 -1.2341 -0.4199 0
M  V30 46 H 5.5982 -2.1921 1.0851 0
M  V30 47 H 6.0132 -0.4772 1.1316 0
M  V30 END ATOM
M  V30 BEGIN BOND
M  V30 1 1 1 2
M  V30 2 1 1 3
M  V30 3 1 2 4
M  V30 4 1 2 5
M  V30 5 1 2 6
M  V30 6 1 3 7
M  V30 7 1 3 8
M  V30 8 1 3 9
M  V30 9 2 4 10
M  V30 10 1 4 11
M  V30 11 1 5 12
M  V30 12 1 6 13
M  V30 13 1 7 14
M  V30 14 1 10 15
M  V30 15 2 11 16
M  V30 16 2 12 17
M  V30 17 1 13 18
M  V30 18 2 14 19
M  V30 19 2 15 20
M  V30 20 1 18 21
M  V30 21 1 21 22
M  V30 22 2 5 7
M  V30 23 1 16 20
M  V30 24 1 17 19
M  V30 25 1 6 23
M  V30 26 1 6 24
M  V30 27 1 8 25
M  V30 28 1 8 26
M  V30 29 1 8 27
M  V30 30 1 9 28
M  V30 31 1 9 29
M  V30 32 1 9 30
M  V30 33 1 10 31
M  V30 34 1 11 32
M  V30 35 1 12 33
M  V30 36 1 13 34
M  V30 37 1 13 35
M  V30 38 1 14 36
M  V30 39 1 15 37
M  V30 40 1 16 38
M  V30 41 1 17 39
M  V30 42 1 18 40
M  V30 43 1 18 41
M  V30 44 1 19 42
M  V30 45 1 20 43
M  V30 46 1 21 44
M  V30 47 1 22 45
M  V30 48 1 22 46
M  V30 49 1 22 47
M  V30 END BOND
M  V30 BEGIN COLLECTION
M  V30 MDLV30/STERAC1 ATOMS=(1 2)
M  V30 END COLLECTION
M  V30 END CTAB
M  END
>  <NO.>
1920

>  <Name>
talopram

>  <SMILES>
CNCCCC1(c2ccccc2)OC(C)(C)c2ccccc21

>  <logBB>


>  <Class>
1

>  <MW>
295.19

>  <nHBAcc>
2

>  <nHBDon>
1

>  <SLogP>
4.2

>  <TopoPSA>
21.26

>  <MMFF94 Energy>
75.933

$$$$
CNCCCC1c2ccccc2C=Cc2ccccc21
Actelion Java MolfileCreator 2.0

  0  0  0  0  0  0              0 V3000
M  V30 BEGIN CTAB
M  V30 COUNTS 41 43 0 0 0
M  V30 BEGIN ATOM
M  V30 1 N 3.2555 -2.3813 -2.1429 0
M  V30 2 C 2.535 -1.1091 -2.1084 0
M  V30 3 C 4.3751 -2.3256 -3.0724 0
M  V30 4 C 1.3866 -1.1933 -1.0994 0
M  V30 5 C 0.5912 0.121 -1.0595 0
M  V30 6 C -0.5927 0.0825 -0.0557 0
M  V30 7 C -0.227 -0.0058 1.4281 0
M  V30 8 C -1.6281 1.1942 -0.2585 0
M  V30 9 C -1.2029 -0.4536 2.3499 0
M  V30 10 C 1.0329 0.3771 1.9212 0
M  V30 11 C -2.9272 1.0305 0.2776 0
M  V30 12 C -1.3271 2.3871 -0.9401 0
M  V30 13 C -2.5744 -0.814 1.947 0
M  V30 14 C -0.8738 -0.5777 3.7087 0
M  V30 15 C 1.3405 0.2638 3.2787 0
M  V30 16 C -3.3283 -0.1636 1.0437 0
M  V30 17 C -3.897 2.0227 0.0661 0
M  V30 18 C -2.2986 3.3722 -1.128 0
M  V30 19 C 0.3919 -0.2223 4.1706 0
M  V30 20 C -3.5844 3.1874 -0.6329 0
M  V30 21 H 3.6008 -2.6055 -1.2099 0
M  V30 22 H 3.2127 -0.2958 -1.8221 0
M  V30 23 H 2.1311 -0.8821 -3.1021 0
M  V30 24 H 5.1038 -1.5633 -2.778 0
M  V30 25 H 4.0335 -2.1202 -4.092 0
M  V30 26 H 4.8864 -3.2929 -3.0853 0
M  V30 27 H 1.7893 -1.4282 -0.1081 0
M  V30 28 H 0.7137 -2.0153 -1.3749 0
M  V30 29 H 0.1942 0.2917 -2.0698 0
M  V30 30 H 1.2653 0.9599 -0.8506 0
M  V30 31 H -1.1014 -0.8587 -0.3159 0
M  V30 32 H 1.8 0.7697 1.2609 0
M  V30 33 H -0.3326 2.5724 -1.3356 0
M  V30 34 H -3.0056 -1.6666 2.4669 0
M  V30 35 H -1.613 -0.9321 4.4236 0
M  V30 36 H 2.3229 0.5585 3.6384 0
M  V30 37 H -4.3424 -0.514 0.8647 0
M  V30 38 H -4.9022 1.9032 0.4641 0
M  V30 39 H -2.0484 4.2856 -1.6616 0
M  V30 40 H 0.6303 -0.3112 5.2269 0
M  V30 41 H -4.3411 3.9533 -0.7796 0
M  V30 END ATOM
M  V30 BEGIN BOND
M  V30 1 1 1 2
M  V30 2 1 1 3
M  V30 3 1 2 4
M  V30 4 1 4 5
M  V30 5 1 5 6
M  V30 6 1 6 7
M  V30 7 1 6 8
M  V30 8 2 7 9
M  V30 9 1 7 10
M  V30 10 2 8 11
M  V30 11 1 8 12
M  V30 12 1 9 13
M  V30 13 1 9 14
M  V30 14 2 10 15
M  V30 15 1 11 16
M  V30 16 1 11 17
M  V30 17 2 12 18
M  V30 18 2 14 19
M  V30 19 2 17 20
M  V30 20 2 13 16
M  V30 21 1 15 19
M  V30 22 1 18 20
M  V30 23 1 1 21
M  V30 24 1 2 22
M  V30 25 1 2 23
M  V30 26 1 3 24
M  V30 27 1 3 25
M  V30 28 1 3 26
M  V30 29 1 4 27
M  V30 30 1 4 28
M  V30 31 1 5 29
M  V30 32 1 5 30
M  V30 33 1 6 31
M  V30 34 1 10 32
M  V30 35 1 12 33
M  V30 36 1 13 34
M  V30 37 1 14 35
M  V30 38 1 15 36
M  V30 39 1 16 37
M  V30 40 1 17 38
M  V30 41 1 18 39
M  V30 42 1 19 40
M  V30 43 1 20 41
M  V30 END BOND
M  V30 END CTAB
M  END
>  <NO.>
1921

>  <Name>
protriptyline

>  <SMILES>
CNCCCC1c2ccccc2C=Cc2ccccc21

>  <logBB>


>  <Class>
1

>  <MW>
263.17

>  <nHBAcc>
1

>  <nHBDon>
1

>  <SLogP>
4.3

>  <TopoPSA>
12.03

>  <MMFF94 Energy>
61.935

$$$$
CNCCCCOc1ccccc1Cc1ccccc1
Actelion Java MolfileCreator 2.0

  0  0  0  0  0  0              0 V3000
M  V30 BEGIN CTAB
M  V30 COUNTS 43 44 0 0 0
M  V30 BEGIN ATOM
M  V30 1 O -0.7055 -1.1761 -0.7055 0
M  V30 2 C 0.2548 -2.1524 -0.6777 0
M  V30 3 C -2.0249 -1.5259 -0.2919 0
M  V30 4 C 1.5672 -1.7369 -0.9751 0
M  V30 5 C 0.008 -3.4985 -0.3857 0
M  V30 6 C -2.9061 -0.2775 -0.3379 0
M  V30 7 C 2.6077 -2.6837 -0.9598 0
M  V30 8 C 1.8969 -0.292 -1.294 0
M  V30 9 C 1.0518 -4.4274 -0.3792 0
M  V30 10 C -2.3998 0.8238 0.6016 0
M  V30 11 C 2.3508 -4.0206 -0.6639 0
M  V30 12 C 2.6039 0.4375 -0.172 0
M  V30 13 C -3.347 2.0252 0.6853 0
M  V30 14 C 1.9333 0.7203 1.0269 0
M  V30 15 C 3.9372 0.8476 -0.3143 0
M  V30 16 N -3.4955 2.6769 -0.6151 0
M  V30 17 C 2.5822 1.3962 2.0613 0
M  V30 18 C 4.5847 1.5243 0.7211 0
M  V30 19 C -4.3469 3.8544 -0.5195 0
M  V30 20 C 3.9075 1.7982 1.9081 0
M  V30 21 H -2.0117 -1.9242 0.7298 0
M  V30 22 H -2.4444 -2.2731 -0.9758 0
M  V30 23 H -0.9891 -3.8611 -0.1604 0
M  V30 24 H -2.9233 0.1045 -1.3656 0
M  V30 25 H -3.9317 -0.5547 -0.068 0
M  V30 26 H 3.6286 -2.3748 -1.1742 0
M  V30 27 H 1.0004 0.2773 -1.5689 0
M  V30 28 H 2.5166 -0.2774 -2.2011 0
M  V30 29 H 0.848 -5.47 -0.1493 0
M  V30 30 H -2.2782 0.4104 1.6106 0
M  V30 31 H -1.4082 1.1639 0.2787 0
M  V30 32 H 3.1638 -4.7415 -0.6538 0
M  V30 33 H -2.9419 2.7344 1.4175 0
M  V30 34 H -4.3245 1.6891 1.0515 0
M  V30 35 H 0.9 0.4073 1.1597 0
M  V30 36 H 4.4807 0.6421 -1.2335 0
M  V30 37 H -2.5768 2.9508 -0.9646 0
M  V30 38 H 2.0531 1.6059 2.987 0
M  V30 39 H 5.6186 1.8372 0.6016 0
M  V30 40 H -3.922 4.604 0.1561 0
M  V30 41 H -5.3517 3.5895 -0.1745 0
M  V30 42 H -4.4486 4.312 -1.5084 0
M  V30 43 H 4.4128 2.3234 2.714 0
M  V30 END ATOM
M  V30 BEGIN BOND
M  V30 1 1 1 2
M  V30 2 1 1 3
M  V30 3 2 2 4
M  V30 4 1 2 5
M  V30 5 1 3 6
M  V30 6 1 4 7
M  V30 7 1 4 8
M  V30 8 2 5 9
M  V30 9 1 6 10
M  V30 10 2 7 11
M  V30 11 1 8 12
M  V30 12 1 10 13
M  V30 13 2 12 14
M  V30 14 1 12 15
M  V30 15 1 13 16
M  V30 16 1 14 17
M  V30 17 2 15 18
M  V30 18 1 16 19
M  V30 19 2 17 20
M  V30 20 1 9 11
M  V30 21 1 18 20
M  V30 22 1 3 21
M  V30 23 1 3 22
M  V30 24 1 5 23
M  V30 25 1 6 24
M  V30 26 1 6 25
M  V30 27 1 7 26
M  V30 28 1 8 27
M  V30 29 1 8 28
M  V30 30 1 9 29
M  V30 31 1 10 30
M  V30 32 1 10 31
M  V30 33 1 11 32
M  V30 34 1 13 33
M  V30 35 1 13 34
M  V30 36 1 14 35
M  V30 37 1 15 36
M  V30 38 1 16 37
M  V30 39 1 17 38
M  V30 40 1 18 39
M  V30 41 1 19 40
M  V30 42 1 19 41
M  V30 43 1 19 42
M  V30 44 1 20 43
M  V30 END BOND
M  V30 END CTAB
M  END
>  <NO.>
1922

>  <Name>
bifemelane

>  <SMILES>
CNCCCCOc1ccccc1Cc1ccccc1

>  <logBB>


>  <Class>
1

>  <MW>
269.18

>  <nHBAcc>
2

>  <nHBDon>
1

>  <SLogP>
3.66

>  <TopoPSA>
21.26

>  <MMFF94 Energy>
47.053

$$$$
CNCCCN1Cc2ccccc2Cc2ccccc21
Actelion Java MolfileCreator 2.0

  0  0  0  0  0  0              0 V3000
M  V30 BEGIN CTAB
M  V30 COUNTS 42 44 0 0 0
M  V30 BEGIN ATOM
M  V30 1 N 0.2369 0.0 0.1579 0
M  V30 2 C 0.4505 1.323 -0.2025 0
M  V30 3 C 0.0034 -0.9756 -0.9096 0
M  V30 4 C -0.1861 -0.3233 1.521 0
M  V30 5 C 1.639 1.6684 -0.8681 0
M  V30 6 C -0.4713 2.341 0.0728 0
M  V30 7 C 1.0683 -1.1656 -1.9798 0
M  V30 8 C -1.6825 -0.633 1.6266 0
M  V30 9 C 1.869 2.9922 -1.2773 0
M  V30 10 C 2.686 0.6052 -1.086 0
M  V30 11 C -0.2382 3.6597 -0.3285 0
M  V30 12 C 2.279 -0.4526 -2.0827 0
M  V30 13 C 0.7875 -2.1487 -2.9561 0
M  V30 14 C -2.0852 -0.8452 3.0871 0
M  V30 15 C 0.9296 3.9842 -1.0096 0
M  V30 16 C 3.1695 -0.7504 -3.1347 0
M  V30 17 C 1.6755 -2.4265 -3.9949 0
M  V30 18 N -3.5071 -1.1839 3.1667 0
M  V30 19 C 2.8697 -1.7264 -4.0831 0
M  V30 20 C -3.9228 -1.3805 4.5494 0
M  V30 21 H -0.9407 -0.7186 -1.4092 0
M  V30 22 H -0.1382 -1.9623 -0.4485 0
M  V30 23 H 0.0857 0.4868 2.2104 0
M  V30 24 H 0.3828 -1.2003 1.8554 0
M  V30 25 H -1.4009 2.1181 0.5843 0
M  V30 26 H -1.918 -1.5346 1.0477 0
M  V30 27 H -2.2775 0.1776 1.1922 0
M  V30 28 H 2.7863 3.2542 -1.7982 0
M  V30 29 H 3.6181 1.0868 -1.4099 0
M  V30 30 H 2.9355 0.124 -0.1307 0
M  V30 31 H -0.975 4.4289 -0.1142 0
M  V30 32 H -0.1444 -2.71 -2.9066 0
M  V30 33 H -1.8812 0.0676 3.6599 0
M  V30 34 H -1.4853 -1.6571 3.5153 0
M  V30 35 H 1.111 5.0073 -1.3268 0
M  V30 36 H 4.112 -0.2134 -3.2214 0
M  V30 37 H 1.4323 -3.1876 -4.731 0
M  V30 38 H -4.0626 -0.435 2.7526 0
M  V30 39 H 3.5686 -1.9366 -4.8879 0
M  V30 40 H -3.7837 -0.4714 5.1435 0
M  V30 41 H -3.3696 -2.2021 5.016 0
M  V30 42 H -4.9853 -1.6416 4.5769 0
M  V30 END ATOM
M  V30 BEGIN BOND
M  V30 1 1 1 2
M  V30 2 1 1 3
M  V30 3 1 1 4
M  V30 4 2 2 5
M  V30 5 1 2 6
M  V30 6 1 3 7
M  V30 7 1 4 8
M  V30 8 1 5 9
M  V30 9 1 5 10
M  V30 10 2 6 11
M  V30 11 2 7 12
M  V30 12 1 7 13
M  V30 13 1 8 14
M  V30 14 2 9 15
M  V30 15 1 12 16
M  V30 16 2 13 17
M  V30 17 1 14 18
M  V30 18 2 16 19
M  V30 19 1 18 20
M  V30 20 1 10 12
M  V30 21 1 11 15
M  V30 22 1 17 19
M  V30 23 1 3 21
M  V30 24 1 3 22
M  V30 25 1 4 23
M  V30 26 1 4 24
M  V30 27 1 6 25
M  V30 28 1 8 26
M  V30 29 1 8 27
M  V30 30 1 9 28
M  V30 31 1 10 29
M  V30 32 1 10 30
M  V30 33 1 11 31
M  V30 34 1 13 32
M  V30 35 1 14 33
M  V30 36 1 14 34
M  V30 37 1 15 35
M  V30 38 1 16 36
M  V30 39 1 17 37
M  V30 40 1 18 38
M  V30 41 1 19 39
M  V30 42 1 20 40
M  V30 43 1 20 41
M  V30 44 1 20 42
M  V30 END BOND
M  V30 END CTAB
M  END
>  <NO.>
1923

>  <Name>
mezepine

>  <SMILES>
CNCCCN1Cc2ccccc2Cc2ccccc21

>  <logBB>


>  <Class>
1

>  <MW>
266.18

>  <nHBAcc>
2

>  <nHBDon>
1

>  <SLogP>
3.21

>  <TopoPSA>
15.27

>  <MMFF94 Energy>
64.698

$$$$
CNCCCN1c2ccccc2C(C)(C)c2ccccc21
Actelion Java MolfileCreator 2.0

  0  0  0  0  0  0              0 V3000
M  V30 BEGIN CTAB
M  V30 COUNTS 45 47 0 0 0
M  V30 BEGIN ATOM
M  V30 1 N 0.3952 0.158 -0.158 0
M  V30 2 C -0.1571 -0.3689 -1.3493 0
M  V30 3 C 0.9902 -0.639 0.8483 0
M  V30 4 C 0.4189 1.6259 0.0106 0
M  V30 5 C 0.0081 -1.7344 -1.654 0
M  V30 6 C -0.89 0.4162 -2.2669 0
M  V30 7 C 1.1972 -2.0141 0.6218 0
M  V30 8 C 1.3892 -0.1209 2.1003 0
M  V30 9 C -0.8373 2.1327 0.7296 0
M  V30 10 C -0.5146 -2.2435 -2.8698 0
M  V30 11 C 0.7589 -2.675 -0.696 0
M  V30 12 C -1.4115 -0.1053 -3.4539 0
M  V30 13 C 1.8315 -2.7955 1.6208 0
M  V30 14 C 1.9992 -0.9089 3.08 0
M  V30 15 C -0.815 3.6579 0.8361 0
M  V30 16 C -1.2161 -1.4385 -3.7607 0
M  V30 17 C 2.0242 -3.1958 -1.4211 0
M  V30 18 C -0.177 -3.8663 -0.3534 0
M  V30 19 C 2.2291 -2.2495 2.8363 0
M  V30 20 N -1.9925 4.126 1.5664 0
M  V30 21 C -2.0227 5.58 1.6437 0
M  V30 22 H 0.536 2.1319 -0.956 0
M  V30 23 H 1.3206 1.9498 0.5457 0
M  V30 24 H -1.0928 1.4651 -2.08 0
M  V30 25 H 1.2236 0.9185 2.3634 0
M  V30 26 H -0.9046 1.691 1.731 0
M  V30 27 H -1.7386 1.8122 0.1934 0
M  V30 28 H -0.3764 -3.2886 -3.1365 0
M  V30 29 H -1.9679 0.5362 -4.1313 0
M  V30 30 H 2.0238 -3.8531 1.4567 0
M  V30 31 H 2.2896 -0.4668 4.029 0
M  V30 32 H -0.7956 4.0926 -0.1706 0
M  V30 33 H 0.0947 3.9735 1.3604 0
M  V30 34 H -1.6106 -1.8553 -4.6826 0
M  V30 35 H 1.7825 -3.7164 -2.3543 0
M  V30 36 H 2.5902 -3.9064 -0.8086 0
M  V30 37 H 2.7014 -2.3701 -1.6734 0
M  V30 38 H 0.3037 -4.6064 0.2947 0
M  V30 39 H -0.4995 -4.4175 -1.2429 0
M  V30 40 H -1.0814 -3.5186 0.1617 0
M  V30 41 H 2.7076 -2.8717 3.587 0
M  V30 42 H -2.8407 3.793 1.1078 0
M  V30 43 H -2.078 6.0337 0.6489 0
M  V30 44 H -1.1418 5.9671 2.1658 0
M  V30 45 H -2.9052 5.897 2.2079 0
M  V30 END ATOM
M  V30 BEGIN BOND
M  V30 1 1 1 2
M  V30 2 1 1 3
M  V30 3 1 1 4
M  V30 4 2 2 5
M  V30 5 1 2 6
M  V30 6 2 3 7
M  V30 7 1 3 8
M  V30 8 1 4 9
M  V30 9 1 5 10
M  V30 10 1 5 11
M  V30 11 2 6 12
M  V30 12 1 7 13
M  V30 13 2 8 14
M  V30 14 1 9 15
M  V30 15 2 10 16
M  V30 16 1 11 17
M  V30 17 1 11 18
M  V30 18 2 13 19
M  V30 19 1 15 20
M  V30 20 1 20 21
M  V30 21 1 7 11
M  V30 22 1 12 16
M  V30 23 1 14 19
M  V30 24 1 4 22
M  V30 25 1 4 23
M  V30 26 1 6 24
M  V30 27 1 8 25
M  V30 28 1 9 26
M  V30 29 1 9 27
M  V30 30 1 10 28
M  V30 31 1 12 29
M  V30 32 1 13 30
M  V30 33 1 14 31
M  V30 34 1 15 32
M  V30 35 1 15 33
M  V30 36 1 16 34
M  V30 37 1 17 35
M  V30 38 1 17 36
M  V30 39 1 17 37
M  V30 40 1 18 38
M  V30 41 1 18 39
M  V30 42 1 18 40
M  V30 43 1 19 41
M  V30 44 1 20 42
M  V30 45 1 21 43
M  V30 46 1 21 44
M  V30 47 1 21 45
M  V30 END BOND
M  V30 END CTAB
M  END
>  <NO.>
1924

>  <Name>
monometacrine

>  <SMILES>
CNCCCN1c2ccccc2C(C)(C)c2ccccc21

>  <logBB>


>  <Class>
1

>  <MW>
280.19

>  <nHBAcc>
2

>  <nHBDon>
1

>  <SLogP>
4.07

>  <TopoPSA>
15.27

>  <MMFF94 Energy>
57.059

$$$$
CNCCOC(c1ccccc1)c1ccccc1C
Actelion Java MolfileCreator 2.0

  0  0  0  0  0  0              0 V3000
M  V30 BEGIN CTAB
M  V30 COUNTS 40 41 0 0 0
M  V30 BEGIN ATOM
M  V30 1 O 0.1571 0.9429 0.3142 0
M  V30 2 C -0.249 -0.4341 0.2567 0 CFG=2
M  V30 3 C -0.1751 1.5669 1.5548 0
M  V30 4 C 0.7999 -1.2004 -0.5465 0
M  V30 5 C -1.6538 -0.5656 -0.3273 0
M  V30 6 C 0.178 3.0625 1.5087 0
M  V30 7 C 1.4516 -2.3534 -0.0495 0
M  V30 8 C 1.1339 -0.7452 -1.8389 0
M  V30 9 C -2.2033 0.4224 -1.1616 0
M  V30 10 C -2.4249 -1.7063 -0.0488 0
M  V30 11 N 1.628 3.2929 1.4775 0
M  V30 12 C 2.3943 -3.0149 -0.8573 0
M  V30 13 C 1.1875 -2.8965 1.3281 0
M  V30 14 C 2.0715 -1.4125 -2.6258 0
M  V30 15 C -3.4877 0.2802 -1.6901 0
M  V30 16 C -3.7094 -1.8477 -0.5784 0
M  V30 17 C 1.9412 4.7119 1.5282 0
M  V30 18 C 2.6995 -2.5498 -2.1356 0
M  V30 19 C -4.2407 -0.8538 -1.3969 0
M  V30 20 H -0.2793 -0.8189 1.2823 0
M  V30 21 H 0.363 1.0737 2.3731 0
M  V30 22 H -1.2516 1.4663 1.7358 0
M  V30 23 H -0.2517 3.5438 2.395 0
M  V30 24 H -0.2753 3.5073 0.6152 0
M  V30 25 H 0.66 0.1513 -2.2343 0
M  V30 26 H -1.6258 1.3116 -1.4078 0
M  V30 27 H -2.0265 -2.4987 0.5794 0
M  V30 28 H 2.0792 2.8051 2.2487 0
M  V30 29 H 2.9054 -3.9026 -0.4907 0
M  V30 30 H 1.7845 -3.7924 1.53 0
M  V30 31 H 1.4514 -2.1524 2.0864 0
M  V30 32 H 0.1361 -3.1776 1.4355 0
M  V30 33 H 2.3107 -1.0388 -3.6173 0
M  V30 34 H -3.8963 1.0537 -2.3348 0
M  V30 35 H -4.293 -2.7373 -0.3564 0
M  V30 36 H 1.5872 5.1683 2.4582 0
M  V30 37 H 1.5033 5.2453 0.6783 0
M  V30 38 H 3.0258 4.8485 1.4782 0
M  V30 39 H 3.4321 -3.072 -2.7444 0
M  V30 40 H -5.2386 -0.9661 -1.8119 0
M  V30 END ATOM
M  V30 BEGIN BOND
M  V30 1 1 1 2
M  V30 2 1 1 3
M  V30 3 1 2 4
M  V30 4 1 2 5
M  V30 5 1 3 6
M  V30 6 2 4 7
M  V30 7 1 4 8
M  V30 8 2 5 9
M  V30 9 1 5 10
M  V30 10 1 6 11
M  V30 11 1 7 12
M  V30 12 1 7 13
M  V30 13 2 8 14
M  V30 14 1 9 15
M  V30 15 2 10 16
M  V30 16 1 11 17
M  V30 17 2 12 18
M  V30 18 2 15 19
M  V30 19 1 14 18
M  V30 20 1 16 19
M  V30 21 1 2 20
M  V30 22 1 3 21
M  V30 23 1 3 22
M  V30 24 1 6 23
M  V30 25 1 6 24
M  V30 26 1 8 25
M  V30 27 1 9 26
M  V30 28 1 10 27
M  V30 29 1 11 28
M  V30 30 1 12 29
M  V30 31 1 13 30
M  V30 32 1 13 31
M  V30 33 1 13 32
M  V30 34 1 14 33
M  V30 35 1 15 34
M  V30 36 1 16 35
M  V30 37 1 17 36
M  V30 38 1 17 37
M  V30 39 1 17 38
M  V30 40 1 18 39
M  V30 41 1 19 40
M  V30 END BOND
M  V30 BEGIN COLLECTION
M  V30 MDLV30/STERAC1 ATOMS=(1 2)
M  V30 END COLLECTION
M  V30 END CTAB
M  END
>  <NO.>
1925

>  <Name>
tofenacin

>  <SMILES>
CNCCOC(c1ccccc1)c1ccccc1C

>  <logBB>


>  <Class>
1

>  <MW>
255.16

>  <nHBAcc>
2

>  <nHBDon>
1

>  <SLogP>
3.32

>  <TopoPSA>
21.26

>  <MMFF94 Energy>
82.521

$$$$
CNCCON=c1c2ccccc2ccc2ccccc12
Actelion Java MolfileCreator 2.0

  0  0  0  0  0  0              0 V3000
M  V30 BEGIN CTAB
M  V30 COUNTS 39 41 0 0 0
M  V30 BEGIN ATOM
M  V30 1 O 0.2387 -0.6367 1.433 0
M  V30 2 N 1.2496 -0.3852 0.4928 0
M  V30 3 C 0.8431 -0.7943 2.7156 0
M  V30 4 C 0.7699 -0.096 -0.6853 0
M  V30 5 C -0.2142 -1.2028 3.7504 0
M  V30 6 C 1.7395 0.2356 -1.7601 0
M  V30 7 C -0.6671 -0.1364 -1.0691 0
M  V30 8 N -1.1563 -0.117 4.0599 0
M  V30 9 C 1.6305 1.4057 -2.5247 0
M  V30 10 C 2.7971 -0.6626 -1.9722 0
M  V30 11 C -1.3035 0.9602 -1.6669 0
M  V30 12 C -1.3691 -1.334 -0.8547 0
M  V30 13 C -2.0738 -0.4979 5.1223 0
M  V30 14 C 0.6185 2.4441 -2.2906 0
M  V30 15 C 2.6013 1.6492 -3.5104 0
M  V30 16 C 3.7437 -0.4098 -2.963 0
M  V30 17 C -0.6526 2.2528 -1.9103 0
M  V30 18 C -2.6629 0.8431 -2.0037 0
M  V30 19 C -2.7134 -1.4368 -1.2075 0
M  V30 20 C 3.6436 0.7446 -3.7343 0
M  V30 21 C -3.3612 -0.3465 -1.7796 0
M  V30 22 H 1.3349 0.1409 3.0084 0
M  V30 23 H 1.6025 -1.5833 2.655 0
M  V30 24 H 0.3054 -1.5067 4.6669 0
M  V30 25 H -0.7753 -2.0631 3.3668 0
M  V30 26 H -0.6434 0.723 4.324 0
M  V30 27 H 2.8803 -1.559 -1.3618 0
M  V30 28 H -0.8657 -2.1849 -0.4019 0
M  V30 29 H -1.5422 -0.7082 6.056 0
M  V30 30 H -2.6639 -1.3759 4.8405 0
M  V30 31 H -2.774 0.3217 5.3114 0
M  V30 32 H 0.9528 3.4662 -2.4599 0
M  V30 33 H 2.5555 2.5521 -4.1162 0
M  V30 34 H 4.5594 -1.109 -3.1271 0
M  V30 35 H -1.2906 3.1266 -1.7907 0
M  V30 36 H -3.1922 1.681 -2.4533 0
M  V30 37 H -3.2532 -2.3628 -1.0285 0
M  V30 38 H 4.383 0.9493 -4.5046 0
M  V30 39 H -4.4117 -0.4185 -2.0501 0
M  V30 END ATOM
M  V30 BEGIN BOND
M  V30 1 1 1 2
M  V30 2 1 1 3
M  V30 3 2 2 4
M  V30 4 1 3 5
M  V30 5 1 4 6
M  V30 6 1 4 7
M  V30 7 1 5 8
M  V30 8 2 6 9
M  V30 9 1 6 10
M  V30 10 2 7 11
M  V30 11 1 7 12
M  V30 12 1 8 13
M  V30 13 1 9 14
M  V30 14 1 9 15
M  V30 15 2 10 16
M  V30 16 1 11 17
M  V30 17 1 11 18
M  V30 18 2 12 19
M  V30 19 2 15 20
M  V30 20 2 18 21
M  V30 21 2 14 17
M  V30 22 1 16 20
M  V30 23 1 19 21
M  V30 24 1 3 22
M  V30 25 1 3 23
M  V30 26 1 5 24
M  V30 27 1 5 25
M  V30 28 1 8 26
M  V30 29 1 10 27
M  V30 30 1 12 28
M  V30 31 1 13 29
M  V30 32 1 13 30
M  V30 33 1 13 31
M  V30 34 1 14 32
M  V30 35 1 15 33
M  V30 36 1 16 34
M  V30 37 1 17 35
M  V30 38 1 18 36
M  V30 39 1 19 37
M  V30 40 1 20 38
M  V30 41 1 21 39
M  V30 END BOND
M  V30 END CTAB
M  END
>  <NO.>
1926

>  <Name>
demexiptiline

>  <SMILES>
CNCCON=c1c2ccccc2ccc2ccccc12

>  <logBB>


>  <Class>
1

>  <MW>
278.14

>  <nHBAcc>
3

>  <nHBDon>
1

>  <SLogP>
3.04

>  <TopoPSA>
33.62

>  <MMFF94 Energy>
118.5

$$$$
CNCCSC1=Cc2cc(F)ccc2Oc2ccccc21
Actelion Java MolfileCreator 2.0

  0  0  0  0  0  0              0 V3000
M  V30 BEGIN CTAB
M  V30 COUNTS 37 39 0 0 0
M  V30 BEGIN ATOM
M  V30 1 S -1.9471 -0.7298 0.5676 0
M  V30 2 C -0.407 -0.9148 -0.2355 0
M  V30 3 C -1.6579 0.858 1.4221 0
M  V30 4 C -0.0813 0.0203 -1.3401 0
M  V30 5 C 0.4125 -1.9002 0.1732 0
M  V30 6 C -2.8513 1.1963 2.3237 0
M  V30 7 C 1.2152 0.5379 -1.5035 0
M  V30 8 C -1.0619 0.4307 -2.2628 0
M  V30 9 C 1.7576 -2.1629 -0.3541 0
M  V30 10 N -2.6183 2.4607 3.0367 0
M  V30 11 O 2.2602 0.1977 -0.6711 0
M  V30 12 C 1.5077 1.4716 -2.5049 0
M  V30 13 C -0.7672 1.3468 -3.2786 0
M  V30 14 C 2.625 -1.129 -0.741 0
M  V30 15 C 2.2252 -3.4819 -0.3989 0
M  V30 16 C -3.759 2.8006 3.8779 0
M  V30 17 C 0.5154 1.8735 -3.3943 0
M  V30 18 C 3.9339 -1.4011 -1.1538 0
M  V30 19 C 3.5223 -3.7461 -0.8316 0
M  V30 20 C 4.3808 -2.7193 -1.2076 0
M  V30 21 F 3.9548 -5.0131 -0.8749 0
M  V30 22 H -1.5126 1.6505 0.6798 0
M  V30 23 H -0.7437 0.7765 2.0211 0
M  V30 24 H 0.0949 -2.5723 0.9682 0
M  V30 25 H -3.0087 0.3904 3.0516 0
M  V30 26 H -3.7571 1.2867 1.711 0
M  V30 27 H -2.0753 0.0379 -2.2046 0
M  V30 28 H -1.7871 2.3728 3.6218 0
M  V30 29 H 2.5125 1.8754 -2.5938 0
M  V30 30 H -1.5454 1.65 -3.9751 0
M  V30 31 H 1.5937 -4.3142 -0.1021 0
M  V30 32 H -3.9399 2.034 4.6384 0
M  V30 33 H -4.6664 2.9341 3.2798 0
M  V30 34 H -3.5626 3.7462 4.3929 0
M  V30 35 H 0.7424 2.5914 -4.178 0
M  V30 36 H 4.5972 -0.5872 -1.4328 0
M  V30 37 H 5.3898 -2.9521 -1.5321 0
M  V30 END ATOM
M  V30 BEGIN BOND
M  V30 1 1 1 2
M  V30 2 1 1 3
M  V30 3 1 2 4
M  V30 4 2 2 5
M  V30 5 1 3 6
M  V30 6 2 4 7
M  V30 7 1 4 8
M  V30 8 1 5 9
M  V30 9 1 6 10
M  V30 10 1 7 11
M  V30 11 1 7 12
M  V30 12 2 8 13
M  V30 13 2 9 14
M  V30 14 1 9 15
M  V30 15 1 10 16
M  V30 16 2 12 17
M  V30 17 1 14 18
M  V30 18 2 15 19
M  V30 19 2 18 20
M  V30 20 1 19 21
M  V30 21 1 11 14
M  V30 22 1 13 17
M  V30 23 1 19 20
M  V30 24 1 3 22
M  V30 25 1 3 23
M  V30 26 1 5 24
M  V30 27 1 6 25
M  V30 28 1 6 26
M  V30 29 1 8 27
M  V30 30 1 10 28
M  V30 31 1 12 29
M  V30 32 1 13 30
M  V30 33 1 15 31
M  V30 34 1 16 32
M  V30 35 1 16 33
M  V30 36 1 16 34
M  V30 37 1 17 35
M  V30 38 1 18 36
M  V30 39 1 20 37
M  V30 END BOND
M  V30 END CTAB
M  END
>  <NO.>
1927

>  <Name>
fluradoline

>  <SMILES>
CNCCSC1=Cc2cc(F)ccc2Oc2ccccc21

>  <logBB>


>  <Class>
1

>  <MW>
301.09

>  <nHBAcc>
3

>  <nHBDon>
1

>  <SLogP>
4.38

>  <TopoPSA>
21.26

>  <MMFF94 Energy>
77.042

$$$$
CNCC[C@@H](Oc1ccccc1C)c1ccccc1
Actelion Java MolfileCreator 2.0

  0  0  0  0  0  0              0 V3000
M  V30 BEGIN CTAB
M  V30 COUNTS 40 41 0 0 0
M  V30 BEGIN ATOM
M  V30 1 O -0.5492 -0.2353 0.2353 0
M  V30 2 C -0.3178 0.4784 1.3821 0
M  V30 3 C 0.499 -0.3482 -0.7418 0 CFG=1
M  V30 4 C -1.4633 0.8465 2.1123 0
M  V30 5 C 0.9461 0.8179 1.8721 0
M  V30 6 C 1.3778 -1.5606 -0.453 0
M  V30 7 C -0.164 -0.5321 -2.123 0
M  V30 8 C -1.3211 1.5775 3.302 0
M  V30 9 C -2.8382 0.4913 1.6184 0
M  V30 10 C 1.0755 1.5395 3.0616 0
M  V30 11 C 2.7456 -1.5219 -0.769 0
M  V30 12 C 0.8456 -2.738 0.0942 0
M  V30 13 C -0.5434 0.7876 -2.8085 0
M  V30 14 C -0.0563 1.9229 3.7738 0
M  V30 15 C 3.5614 -2.6291 -0.53 0
M  V30 16 C 1.6634 -3.8435 0.3331 0
M  V30 17 N -1.4774 1.5884 -2.0267 0
M  V30 18 C 3.0203 -3.7885 0.0217 0
M  V30 19 C -1.9448 2.7495 -2.7668 0
M  V30 20 H 1.1089 0.5644 -0.7642 0
M  V30 21 H 1.8554 0.5211 1.3621 0
M  V30 22 H -1.0602 -1.1602 -2.0302 0
M  V30 23 H 0.5198 -1.0532 -2.806 0
M  V30 24 H -2.1983 1.8804 3.8688 0
M  V30 25 H -3.0624 1.0407 0.6989 0
M  V30 26 H -3.6069 0.7434 2.3567 0
M  V30 27 H -2.9112 -0.5842 1.4275 0
M  V30 28 H 2.0639 1.7967 3.433 0
M  V30 29 H 3.1841 -0.6263 -1.2034 0
M  V30 30 H -0.2119 -2.7951 0.3448 0
M  V30 31 H -0.9843 0.5431 -3.783 0
M  V30 32 H 0.3686 1.3662 -2.9979 0
M  V30 33 H 0.045 2.4854 4.6978 0
M  V30 34 H 4.6194 -2.5875 -0.7746 0
M  V30 35 H 1.2399 -4.7465 0.7646 0
M  V30 36 H -2.2696 1.0182 -1.7315 0
M  V30 37 H 3.6557 -4.6498 0.2095 0
M  V30 38 H -2.4968 2.4572 -3.6658 0
M  V30 39 H -1.1112 3.3986 -3.0534 0
M  V30 40 H -2.6178 3.3379 -2.1354 0
M  V30 END ATOM
M  V30 BEGIN BOND
M  V30 1 1 1 2
M  V30 2 1 1 3
M  V30 3 2 2 4
M  V30 4 1 2 5
M  V30 5 1 3 6
M  V30 6 1 3 7
M  V30 7 1 4 8
M  V30 8 1 4 9
M  V30 9 2 5 10
M  V30 10 2 6 11
M  V30 11 1 6 12
M  V30 12 1 7 13
M  V30 13 2 8 14
M  V30 14 1 11 15
M  V30 15 2 12 16
M  V30 16 1 13 17
M  V30 17 2 15 18
M  V30 18 1 17 19
M  V30 19 1 10 14
M  V30 20 1 16 18
M  V30 21 1 3 20
M  V30 22 1 5 21
M  V30 23 1 7 22
M  V30 24 1 7 23
M  V30 25 1 8 24
M  V30 26 1 9 25
M  V30 27 1 9 26
M  V30 28 1 9 27
M  V30 29 1 10 28
M  V30 30 1 11 29
M  V30 31 1 12 30
M  V30 32 1 13 31
M  V30 33 1 13 32
M  V30 34 1 14 33
M  V30 35 1 15 34
M  V30 36 1 16 35
M  V30 37 1 17 36
M  V30 38 1 18 37
M  V30 39 1 19 38
M  V30 40 1 19 39
M  V30 41 1 19 40
M  V30 END BOND
M  V30 BEGIN COLLECTION
M  V30 MDLV30/STEABS ATOMS=(1 3)
M  V30 END COLLECTION
M  V30 END CTAB
M  END
>  <NO.>
1929

>  <Name>
tomoxetine

>  <SMILES>
CNCC[C@@H](Oc1ccccc1C)c1ccccc1

>  <logBB>


>  <Class>
1

>  <MW>
255.16

>  <nHBAcc>
2

>  <nHBDon>
1

>  <SLogP>
3.72

>  <TopoPSA>
21.26

>  <MMFF94 Energy>
55.752

$$$$
CNC[C@@H]1CN(c2ccc(OCc3cccc(Cl)c3)cc2)C(=O)O1
Actelion Java MolfileCreator 2.0

  0  0  0  0  0  0              0 V3000
M  V30 BEGIN CTAB
M  V30 COUNTS 43 45 0 0 0
M  V30 BEGIN ATOM
M  V30 1 Cl 4.1737 -6.346 -3.9325 0
M  V30 2 C 4.1134 -5.812 -2.2976 0
M  V30 3 C 3.7134 -4.5073 -2.0101 0
M  V30 4 C 4.4633 -6.6867 -1.2714 0
M  V30 5 C 3.6654 -4.0606 -0.6807 0
M  V30 6 C 4.4073 -6.2555 0.0535 0
M  V30 7 C 4.0067 -4.9504 0.3481 0
M  V30 8 C 3.2175 -2.6539 -0.3682 0
M  V30 9 O 1.7962 -2.6154 -0.4647 0
M  V30 10 C 1.1879 -1.4188 -0.2112 0
M  V30 11 C -0.2042 -1.4447 -0.2882 0
M  V30 12 C 1.8234 -0.2208 0.1032 0
M  V30 13 C -0.9571 -0.2893 -0.0505 0
M  V30 14 C 1.0692 0.9371 0.3408 0
M  V30 15 C -0.3283 0.9184 0.2732 0
M  V30 16 N -1.0858 2.0887 0.4988 0
M  V30 17 C -0.7184 3.1725 1.279 0
M  V30 18 C -2.4262 2.2648 0.0341 0
M  V30 19 O 0.2969 3.3234 1.9392 0
M  V30 20 O -1.7102 4.1195 1.2464 0
M  V30 21 C -2.6507 3.7487 0.2244 0 CFG=2
M  V30 22 C -4.078 4.0741 0.6792 0
M  V30 23 N -4.2707 5.5274 0.7638 0
M  V30 24 C -5.5796 5.8569 1.3108 0
M  V30 25 H 3.4305 -3.8368 -2.8182 0
M  V30 26 H 4.7733 -7.7034 -1.496 0
M  V30 27 H 4.6707 -6.9375 0.8582 0
M  V30 28 H 3.9566 -4.6332 1.388 0
M  V30 29 H 3.5423 -2.3779 0.6427 0
M  V30 30 H 3.6762 -1.9665 -1.0902 0
M  V30 31 H -0.7106 -2.3758 -0.532 0
M  V30 32 H 2.9029 -0.1403 0.1732 0
M  V30 33 H -2.038 -0.3677 -0.1116 0
M  V30 34 H 1.606 1.8546 0.5713 0
M  V30 35 H -3.0936 1.6654 0.6639 0
M  V30 36 H -2.5405 1.9678 -1.013 0
M  V30 37 H -2.3926 4.304 -0.6862 0
M  V30 38 H -4.2555 3.6266 1.6651 0
M  V30 39 H -4.7951 3.6508 -0.0333 0
M  V30 40 H -3.5429 5.9203 1.3668 0
M  V30 41 H -5.6991 5.4703 2.328 0
M  V30 42 H -6.3822 5.461 0.6804 0
M  V30 43 H -5.6958 6.9444 1.3483 0
M  V30 END ATOM
M  V30 BEGIN BOND
M  V30 1 1 1 2
M  V30 2 2 2 3
M  V30 3 1 2 4
M  V30 4 1 3 5
M  V30 5 2 4 6
M  V30 6 2 5 7
M  V30 7 1 5 8
M  V30 8 1 8 9
M  V30 9 1 9 10
M  V30 10 2 10 11
M  V30 11 1 10 12
M  V30 12 1 11 13
M  V30 13 2 12 14
M  V30 14 2 13 15
M  V30 15 1 15 16
M  V30 16 1 16 17
M  V30 17 1 16 18
M  V30 18 2 17 19
M  V30 19 1 17 20
M  V30 20 1 18 21
M  V30 21 1 21 22
M  V30 22 1 22 23
M  V30 23 1 23 24
M  V30 24 1 6 7
M  V30 25 1 14 15
M  V30 26 1 20 21
M  V30 27 1 3 25
M  V30 28 1 4 26
M  V30 29 1 6 27
M  V30 30 1 7 28
M  V30 31 1 8 29
M  V30 32 1 8 30
M  V30 33 1 11 31
M  V30 34 1 12 32
M  V30 35 1 13 33
M  V30 36 1 14 34
M  V30 37 1 18 35
M  V30 38 1 18 36
M  V30 39 1 21 37
M  V30 40 1 22 38
M  V30 41 1 22 39
M  V30 42 1 23 40
M  V30 43 1 24 41
M  V30 44 1 24 42
M  V30 45 1 24 43
M  V30 END BOND
M  V30 BEGIN COLLECTION
M  V30 MDLV30/STEABS ATOMS=(1 21)
M  V30 END COLLECTION
M  V30 END CTAB
M  END
>  <NO.>
1930

>  <Name>
almoxatone

>  <SMILES>
CNC[C@@H]1CN(c2ccc(OCc3cccc(Cl)c3)cc2)C(=O)O1

>  <logBB>


>  <Class>
1

>  <MW>
346.11

>  <nHBAcc>
4

>  <nHBDon>
1

>  <SLogP>
3.46

>  <TopoPSA>
50.8

>  <MMFF94 Energy>
42.102

$$$$
CNC[C@H](O)CC12CCC(c3ccccc31)c1ccccc12
Actelion Java MolfileCreator 2.0

  0  0  0  0  0  0              0 V3000
M  V30 BEGIN CTAB
M  V30 COUNTS 45 48 0 0 0
M  V30 BEGIN ATOM
M  V30 1 O -2.649 -1.4442 0.7219 0
M  V30 2 C -1.451 -1.5327 -0.0673 0 CFG=1
M  V30 3 C -1.7026 -2.6433 -1.1203 0
M  V30 4 C -1.1455 -0.1592 -0.7104 0
M  V30 5 N -2.9706 -2.4301 -1.8466 0
M  V30 6 C 0.0337 0.6682 -0.1124 0
M  V30 7 C -3.0472 -3.3121 -3.0076 0
M  V30 8 C -0.1141 1.1706 1.3483 0
M  V30 9 C 1.4521 0.0484 -0.2721 0
M  V30 10 C 0.1321 2.0098 -0.9461 0
M  V30 11 C 0.9693 1.982 1.7877 0
M  V30 12 C -1.1727 0.9543 2.2228 0
M  V30 13 C 2.4989 0.8864 0.2017 0
M  V30 14 C 1.7898 -1.1746 -0.8431 0
M  V30 15 C 1.2986 2.9144 -0.4462 0
M  V30 16 C 1.0088 2.5185 3.0725 0
M  V30 17 C 2.0316 2.2317 0.731 0
M  V30 18 C -1.1349 1.4933 3.5144 0
M  V30 19 C 3.8334 0.4933 0.1424 0
M  V30 20 C 3.1311 -1.57 -0.9047 0
M  V30 21 C -0.0495 2.2643 3.9393 0
M  V30 22 C 4.1452 -0.7453 -0.4098 0
M  V30 23 H -3.3468 -1.1712 0.0975 0
M  V30 24 H -0.6451 -1.8486 0.6016 0
M  V30 25 H -0.8628 -2.6896 -1.8203 0
M  V30 26 H -1.7617 -3.6104 -0.6054 0
M  V30 27 H -0.9203 -0.3139 -1.7746 0
M  V30 28 H -2.0527 0.4596 -0.6799 0
M  V30 29 H -3.7342 -2.684 -1.2163 0
M  V30 30 H -2.9761 -4.3654 -2.7173 0
M  V30 31 H -2.2567 -3.0833 -3.7295 0
M  V30 32 H -4.0069 -3.1649 -3.5127 0
M  V30 33 H 0.2871 1.7898 -2.0111 0
M  V30 34 H -0.8081 2.5736 -0.8775 0
M  V30 35 H -2.0457 0.3836 1.9376 0
M  V30 36 H 1.0455 -1.8385 -1.2574 0
M  V30 37 H 1.9923 3.1045 -1.2751 0
M  V30 38 H 0.8973 3.8886 -0.1386 0
M  V30 39 H 1.8448 3.1306 3.3964 0
M  V30 40 H 2.8585 2.8429 1.1061 0
M  V30 41 H -1.9636 1.3094 4.1943 0
M  V30 42 H 4.6223 1.1402 0.5139 0
M  V30 43 H 3.389 -2.53 -1.3457 0
M  V30 44 H -0.0381 2.6728 4.9463 0
M  V30 45 H 5.1812 -1.0693 -0.4648 0
M  V30 END ATOM
M  V30 BEGIN BOND
M  V30 1 1 1 2
M  V30 2 1 2 3
M  V30 3 1 2 4
M  V30 4 1 3 5
M  V30 5 1 4 6
M  V30 6 1 5 7
M  V30 7 1 6 8
M  V30 8 1 6 9
M  V30 9 1 6 10
M  V30 10 2 8 11
M  V30 11 1 8 12
M  V30 12 2 9 13
M  V30 13 1 9 14
M  V30 14 1 10 15
M  V30 15 1 11 16
M  V30 16 1 11 17
M  V30 17 2 12 18
M  V30 18 1 13 19
M  V30 19 2 14 20
M  V30 20 2 16 21
M  V30 21 2 19 22
M  V30 22 1 13 17
M  V30 23 1 15 17
M  V30 24 1 18 21
M  V30 25 1 20 22
M  V30 26 1 1 23
M  V30 27 1 2 24
M  V30 28 1 3 25
M  V30 29 1 3 26
M  V30 30 1 4 27
M  V30 31 1 4 28
M  V30 32 1 5 29
M  V30 33 1 7 30
M  V30 34 1 7 31
M  V30 35 1 7 32
M  V30 36 1 10 33
M  V30 37 1 10 34
M  V30 38 1 12 35
M  V30 39 1 14 36
M  V30 40 1 15 37
M  V30 41 1 15 38
M  V30 42 1 16 39
M  V30 43 1 17 40
M  V30 44 1 18 41
M  V30 45 1 19 42
M  V30 46 1 20 43
M  V30 47 1 21 44
M  V30 48 1 22 45
M  V30 END BOND
M  V30 BEGIN COLLECTION
M  V30 MDLV30/STEABS ATOMS=(1 2)
M  V30 END COLLECTION
M  V30 END CTAB
M  END
>  <NO.>
1931

>  <Name>
levoprotiline

>  <SMILES>
CNC[C@H](O)CC12CCC(c3ccccc31)c1ccccc12

>  <logBB>


>  <Class>
1

>  <MW>
293.18

>  <nHBAcc>
2

>  <nHBDon>
2

>  <SLogP>
3.18

>  <TopoPSA>
32.26

>  <MMFF94 Energy>
117.57

$$$$
CNO.Cc1oc(C(C)(C)N(C(C)(C)N)C(C)(C)N)c(C)c1C
Actelion Java MolfileCreator 2.0

  0  0  0  0  0  0              0 V3000
M  V30 BEGIN CTAB
M  V30 COUNTS 59 58 0 0 0
M  V30 BEGIN ATOM
M  V30 1 O 0.3083 -2.469 1.6969 0
M  V30 2 C 0.2781 -1.1076 1.8104 0
M  V30 3 C 1.501 -2.9036 2.1715 0
M  V30 4 C 1.4622 -0.6668 2.3971 0
M  V30 5 C -1.0262 -0.4139 1.3645 0
M  V30 6 C 2.2589 -1.8404 2.6207 0
M  V30 7 C 1.7287 -4.3626 2.1156 0
M  V30 8 C 1.8343 0.7319 2.7316 0
M  V30 9 N -0.7162 0.8272 0.5189 0
M  V30 10 C -1.7223 -0.2031 2.7583 0
M  V30 11 C -1.9719 -1.4094 0.6257 0
M  V30 12 C 3.6173 -1.9013 3.2176 0
M  V30 13 C -0.0766 0.5624 -0.8184 0
M  V30 14 C -1.6287 2.0006 0.6405 0
M  V30 15 N -1.1278 0.361 -1.8134 0
M  V30 16 C 0.8666 1.7104 -1.2854 0
M  V30 17 C 0.8583 -0.6782 -0.97 0
M  V30 18 N -1.4069 2.5666 1.9682 0
M  V30 19 C -1.344 3.2742 -0.1996 0
M  V30 20 C -3.1338 1.7231 0.416 0
M  V30 21 O 1.3783 0.5119 -6.4153 0
M  V30 22 N 0.442 -0.5994 -6.3522 0
M  V30 23 C -0.8761 0.0138 -6.47 0
M  V30 24 H 1.8669 -4.7656 3.1235 0
M  V30 25 H 0.8824 -4.882 1.6553 0
M  V30 26 H 2.6239 -4.5867 1.5276 0
M  V30 27 H 1.7765 1.3735 1.8488 0
M  V30 28 H 2.8578 0.7961 3.1133 0
M  V30 29 H 1.1701 1.1325 3.5029 0
M  V30 30 H -2.7401 0.1806 2.6961 0
M  V30 31 H -1.1388 0.438 3.4271 0
M  V30 32 H -1.8121 -1.1614 3.291 0
M  V30 33 H -2.9172 -0.9428 0.3387 0
M  V30 34 H -1.5455 -1.848 -0.2766 0
M  V30 35 H -2.2327 -2.2596 1.2697 0
M  V30 36 H 4.3272 -1.3348 2.6067 0
M  V30 37 H 3.6103 -1.4761 4.2264 0
M  V30 38 H 3.9818 -2.9306 3.2897 0
M  V30 39 H -0.7125 0.0642 -2.6945 0
M  V30 40 H -1.5831 1.2427 -2.0194 0
M  V30 41 H 1.6104 1.3661 -2.0161 0
M  V30 42 H 1.4325 2.1213 -0.442 0
M  V30 43 H 0.3568 2.524 -1.8035 0
M  V30 44 H 1.2271 -0.7706 -2.0022 0
M  V30 45 H 0.3849 -1.6387 -0.7711 0
M  V30 46 H 1.7556 -0.5815 -0.3505 0
M  V30 47 H -2.0619 2.1876 2.6403 0
M  V30 48 H -0.4717 2.2867 2.2473 0
M  V30 49 H -1.9966 4.106 0.1068 0
M  V30 50 H -1.5559 3.1354 -1.2627 0
M  V30 51 H -0.323 3.6491 -0.0658 0
M  V30 52 H -3.727 2.6386 0.542 0
M  V30 53 H -3.5697 1.0034 1.106 0
M  V30 54 H -3.3294 1.3643 -0.599 0
M  V30 55 H 1.9676 0.234 -7.1437 0
M  V30 56 H 0.5675 -0.9322 -5.3924 0
M  V30 57 H -1.6483 -0.7531 -6.3593 0
M  V30 58 H -1.0352 0.772 -5.6962 0
M  V30 59 H -1.0006 0.4767 -7.4539 0
M  V30 END ATOM
M  V30 BEGIN BOND
M  V30 1 1 1 2
M  V30 2 1 1 3
M  V30 3 2 2 4
M  V30 4 1 2 5
M  V30 5 2 3 6
M  V30 6 1 3 7
M  V30 7 1 4 8
M  V30 8 1 5 9
M  V30 9 1 5 10
M  V30 10 1 5 11
M  V30 11 1 6 12
M  V30 12 1 9 13
M  V30 13 1 9 14
M  V30 14 1 13 15
M  V30 15 1 13 16
M  V30 16 1 13 17
M  V30 17 1 14 18
M  V30 18 1 14 19
M  V30 19 1 14 20
M  V30 20 1 21 22
M  V30 21 1 22 23
M  V30 22 1 4 6
M  V30 23 1 7 24
M  V30 24 1 7 25
M  V30 25 1 7 26
M  V30 26 1 8 27
M  V30 27 1 8 28
M  V30 28 1 8 29
M  V30 29 1 10 30
M  V30 30 1 10 31
M  V30 31 1 10 32
M  V30 32 1 11 33
M  V30 33 1 11 34
M  V30 34 1 11 35
M  V30 35 1 12 36
M  V30 36 1 12 37
M  V30 37 1 12 38
M  V30 38 1 15 39
M  V30 39 1 15 40
M  V30 40 1 16 41
M  V30 41 1 16 42
M  V30 42 1 16 43
M  V30 43 1 17 44
M  V30 44 1 17 45
M  V30 45 1 17 46
M  V30 46 1 18 47
M  V30 47 1 18 48
M  V30 48 1 19 49
M  V30 49 1 19 50
M  V30 50 1 19 51
M  V30 51 1 20 52
M  V30 52 1 20 53
M  V30 53 1 20 54
M  V30 54 1 21 55
M  V30 55 1 22 56
M  V30 56 1 23 57
M  V30 57 1 23 58
M  V30 58 1 23 59
M  V30 END BOND
M  V30 END CTAB
M  END
>  <NO.>
1933

>  <Name>


>  <SMILES>
CNO.Cc1oc(C(C)(C)N(C(C)(C)N)C(C)(C)N)c(C)c1C

>  <logBB>


>  <Class>
1

>  <MW>
328.28

>  <nHBAcc>
6

>  <nHBDon>
4

>  <SLogP>
2.73

>  <TopoPSA>
100.68

>  <MMFF94 Energy>
-43.604

$$$$
CN[C@@H](C)[C@H](O)c1ccccc1
Actelion Java MolfileCreator 2.0

  0  0  0  0  0  0              0 V3000
M  V30 BEGIN CTAB
M  V30 COUNTS 27 27 0 0 0
M  V30 BEGIN ATOM
M  V30 1 O 0.5444 0.5444 -2.0232 0
M  V30 2 C 0.1148 -0.3322 -0.973 0 CFG=2
M  V30 3 C -1.2377 0.0739 -0.4221 0
M  V30 4 C 1.2459 -0.4343 0.1057 0 CFG=1
M  V30 5 C -1.9672 -0.8282 0.3705 0
M  V30 6 C -1.7904 1.3388 -0.6735 0
M  V30 7 N 2.4825 -0.9043 -0.5801 0
M  V30 8 C 1.4916 0.9164 0.7947 0
M  V30 9 C -3.2097 -0.4719 0.8994 0
M  V30 10 C -3.0328 1.6943 -0.1443 0
M  V30 11 C 3.5536 -1.2401 0.3531 0
M  V30 12 C -3.7415 0.7896 0.6427 0
M  V30 13 H 1.5123 0.4106 -2.0698 0
M  V30 14 H -0.0139 -1.315 -1.4463 0
M  V30 15 H 0.945 -1.1718 0.8606 0
M  V30 16 H -1.5732 -1.8204 0.5785 0
M  V30 17 H -1.2518 2.0579 -1.2883 0
M  V30 18 H 2.2574 -1.7488 -1.1106 0
M  V30 19 H 1.8514 1.6721 0.088 0
M  V30 20 H 2.2283 0.8292 1.5996 0
M  V30 21 H 0.576 1.2979 1.2579 0
M  V30 22 H -3.7643 -1.18 1.5095 0
M  V30 23 H -3.4462 2.6781 -0.3505 0
M  V30 24 H 4.381 -1.6951 -0.2009 0
M  V30 25 H 3.9559 -0.3525 0.8489 0
M  V30 26 H 3.2216 -1.9611 1.107 0
M  V30 27 H -4.7091 1.0671 1.0521 0
M  V30 END ATOM
M  V30 BEGIN BOND
M  V30 1 1 1 2
M  V30 2 1 2 3
M  V30 3 1 2 4
M  V30 4 2 3 5
M  V30 5 1 3 6
M  V30 6 1 4 7
M  V30 7 1 4 8
M  V30 8 1 5 9
M  V30 9 2 6 10
M  V30 10 1 7 11
M  V30 11 2 9 12
M  V30 12 1 10 12
M  V30 13 1 1 13
M  V30 14 1 2 14
M  V30 15 1 4 15
M  V30 16 1 5 16
M  V30 17 1 6 17
M  V30 18 1 7 18
M  V30 19 1 8 19
M  V30 20 1 8 20
M  V30 21 1 8 21
M  V30 22 1 9 22
M  V30 23 1 10 23
M  V30 24 1 11 24
M  V30 25 1 11 25
M  V30 26 1 11 26
M  V30 27 1 12 27
M  V30 END BOND
M  V30 BEGIN COLLECTION
M  V30 MDLV30/STEABS ATOMS=(2 2 4)
M  V30 END COLLECTION
M  V30 END CTAB
M  END
>  <NO.>
1934

>  <Name>
ephedrine

>  <SMILES>
CN[C@@H](C)[C@H](O)c1ccccc1

>  <logBB>


>  <Class>
-1

>  <MW>
165.12

>  <nHBAcc>
2

>  <nHBDon>
2

>  <SLogP>
1.33

>  <TopoPSA>
32.26

>  <MMFF94 Energy>
51.886

$$$$
CN[C@@H]1C[C@@H](c2ccc(Cl)c(Cl)c2)c2ccccc21
Actelion Java MolfileCreator 2.0

  0  0  0  0  0  0              0 V3000
M  V30 BEGIN CTAB
M  V30 COUNTS 34 36 0 0 0
M  V30 BEGIN ATOM
M  V30 1 Cl 1.7176 -2.9459 -3.0278 0
M  V30 2 C 0.5179 -1.7019 -2.9963 0
M  V30 3 C -0.0693 -1.1996 -4.1603 0
M  V30 4 C 0.141 -1.1923 -1.7469 0
M  V30 5 Cl 0.3456 -1.7763 -5.7348 0
M  V30 6 C -1.0289 -0.1896 -4.0696 0
M  V30 7 C -0.8277 -0.1798 -1.6403 0
M  V30 8 C -1.4021 0.3167 -2.8217 0
M  V30 9 C -1.2565 0.4224 -0.314 0 CFG=1
M  V30 10 C -1.0389 -0.4276 0.9112 0
M  V30 11 C -0.4287 1.6704 0.066 0
M  V30 12 C 0.0741 0.0164 1.6458 0
M  V30 13 C -1.7909 -1.5181 1.325 0
M  V30 14 C 0.7451 1.1678 0.9404 0 CFG=2
M  V30 15 C 0.4449 -0.638 2.8106 0
M  V30 16 C -1.4188 -2.1721 2.4993 0
M  V30 17 N 1.2364 2.2332 1.8132 0
M  V30 18 C -0.3104 -1.7337 3.2378 0
M  V30 19 C 2.6574 2.0862 2.1041 0
M  V30 20 H 0.6122 -1.5988 -0.8535 0
M  V30 21 H -1.4917 0.2104 -4.9688 0
M  V30 22 H -2.1508 1.1068 -2.7779 0
M  V30 23 H -2.3188 0.6944 -0.3697 0
M  V30 24 H -0.0786 2.2475 -0.7976 0
M  V30 25 H -1.0717 2.3413 0.6568 0
M  V30 26 H -2.6486 -1.8577 0.7529 0
M  V30 27 H 1.5334 0.7837 0.2797 0
M  V30 28 H 1.2991 -0.3088 3.3917 0
M  V30 29 H -1.9924 -3.0276 2.8474 0
M  V30 30 H 1.0962 3.1354 1.3613 0
M  V30 31 H -0.0349 -2.2524 4.1529 0
M  V30 32 H 2.9692 2.8799 2.7903 0
M  V30 33 H 2.8855 1.1311 2.5845 0
M  V30 34 H 3.2597 2.1769 1.1941 0
M  V30 END ATOM
M  V30 BEGIN BOND
M  V30 1 1 1 2
M  V30 2 2 2 3
M  V30 3 1 2 4
M  V30 4 1 3 5
M  V30 5 1 3 6
M  V30 6 2 4 7
M  V30 7 2 6 8
M  V30 8 1 7 9
M  V30 9 1 9 10
M  V30 10 1 9 11
M  V30 11 2 10 12
M  V30 12 1 10 13
M  V30 13 1 11 14
M  V30 14 1 12 15
M  V30 15 2 13 16
M  V30 16 1 14 17
M  V30 17 2 15 18
M  V30 18 1 17 19
M  V30 19 1 7 8
M  V30 20 1 12 14
M  V30 21 1 16 18
M  V30 22 1 4 20
M  V30 23 1 6 21
M  V30 24 1 8 22
M  V30 25 1 9 23
M  V30 26 1 11 24
M  V30 27 1 11 25
M  V30 28 1 13 26
M  V30 29 1 14 27
M  V30 30 1 15 28
M  V30 31 1 16 29
M  V30 32 1 17 30
M  V30 33 1 18 31
M  V30 34 1 19 32
M  V30 35 1 19 33
M  V30 36 1 19 34
M  V30 END BOND
M  V30 BEGIN COLLECTION
M  V30 MDLV30/STEABS ATOMS=(2 9 14)
M  V30 END COLLECTION
M  V30 END CTAB
M  END
>  <NO.>
1935

>  <Name>
indatraline

>  <SMILES>
CN[C@@H]1C[C@@H](c2ccc(Cl)c(Cl)c2)c2ccccc21

>  <logBB>


>  <Class>
1

>  <MW>
291.06

>  <nHBAcc>
1

>  <nHBDon>
1

>  <SLogP>
4.79

>  <TopoPSA>
12.03

>  <MMFF94 Energy>
59.521

$$$$
CNc1cc(OC)c(C(=O)N[C@@H]2CCN(Cc3ccccc3)[C@@H]2C)cc1Cl
Actelion Java MolfileCreator 2.0

  0  0  0  0  0  0              0 V3000
M  V30 BEGIN CTAB
M  V30 COUNTS 53 55 0 0 0
M  V30 BEGIN ATOM
M  V30 1 Cl 2.7876 -0.4774 4.0639 0
M  V30 2 C 2.6305 -1.4054 2.6075 0
M  V30 3 C 3.7607 -2.021 2.0241 0
M  V30 4 C 1.3567 -1.5124 2.0422 0
M  V30 5 N 5.0126 -1.8842 2.6029 0
M  V30 6 C 3.5553 -2.757 0.8492 0
M  V30 7 C 1.182 -2.2509 0.8694 0
M  V30 8 C 6.2305 -2.459 2.0869 0
M  V30 9 C 2.2783 -2.8897 0.2868 0
M  V30 10 C -0.1746 -2.3669 0.2868 0
M  V30 11 O 2.1553 -3.5624 -0.9004 0
M  V30 12 O -0.6495 -3.4604 0.0097 0
M  V30 13 N -0.8342 -1.1723 0.1182 0
M  V30 14 C 2.1033 -4.9719 -0.671 0
M  V30 15 C -2.1655 -1.0845 -0.4735 0 CFG=1
M  V30 16 C -2.9763 0.1075 0.0695 0 CFG=2
M  V30 17 C -2.0447 -0.7324 -1.9527 0
M  V30 18 N -2.3123 1.2409 -0.6037 0
M  V30 19 C -2.9673 0.2 1.5924 0
M  V30 20 C -2.107 0.7963 -1.9962 0
M  V30 21 C -3.0712 2.4945 -0.5229 0
M  V30 22 C -2.3264 3.6721 -1.1166 0
M  V30 23 C -1.1019 4.0859 -0.5705 0
M  V30 24 C -2.8498 4.3721 -2.213 0
M  V30 25 C -0.4151 5.174 -1.1105 0
M  V30 26 C -2.1614 5.4609 -2.7517 0
M  V30 27 C -0.9454 5.8612 -2.2006 0
M  V30 28 H 0.506 -1.037 2.523 0
M  V30 29 H 5.0668 -1.3352 3.4569 0
M  V30 30 H 4.3896 -3.2318 0.3419 0
M  V30 31 H 7.0668 -2.1936 2.7412 0
M  V30 32 H 6.4558 -2.0752 1.0869 0
M  V30 33 H 6.1684 -3.5512 2.0527 0
M  V30 34 H -0.3566 -0.2918 0.2742 0
M  V30 35 H 3.0981 -5.3554 -0.4209 0
M  V30 36 H 1.7785 -5.4505 -1.5995 0
M  V30 37 H 1.3891 -5.2364 0.1167 0
M  V30 38 H -2.6914 -2.0344 -0.3311 0
M  V30 39 H -4.0158 0.0146 -0.2764 0
M  V30 40 H -2.9016 -1.1435 -2.5004 0
M  V30 41 H -1.1298 -1.1191 -2.4138 0
M  V30 42 H -3.6485 0.9819 1.9433 0
M  V30 43 H -3.2953 -0.7463 2.0354 0
M  V30 44 H -1.9714 0.4295 1.9861 0
M  V30 45 H -1.1741 1.2112 -2.3923 0
M  V30 46 H -2.9257 1.0993 -2.6608 0
M  V30 47 H -4.0543 2.3858 -0.9999 0
M  V30 48 H -3.2686 2.7514 0.5251 0
M  V30 49 H -0.6782 3.5506 0.2764 0
M  V30 50 H -3.7963 4.0727 -2.6563 0
M  V30 51 H 0.5342 5.4829 -0.6815 0
M  V30 52 H -2.5737 5.9968 -3.6025 0
M  V30 53 H -0.4099 6.7079 -2.6215 0
M  V30 END ATOM
M  V30 BEGIN BOND
M  V30 1 1 1 2
M  V30 2 2 2 3
M  V30 3 1 2 4
M  V30 4 1 3 5
M  V30 5 1 3 6
M  V30 6 2 4 7
M  V30 7 1 5 8
M  V30 8 2 6 9
M  V30 9 1 7 10
M  V30 10 1 9 11
M  V30 11 2 10 12
M  V30 12 1 10 13
M  V30 13 1 11 14
M  V30 14 1 13 15
M  V30 15 1 15 16
M  V30 16 1 15 17
M  V30 17 1 16 18
M  V30 18 1 16 19
M  V30 19 1 17 20
M  V30 20 1 18 21
M  V30 21 1 21 22
M  V30 22 2 22 23
M  V30 23 1 22 24
M  V30 24 1 23 25
M  V30 25 2 24 26
M  V30 26 2 25 27
M  V30 27 1 7 9
M  V30 28 1 18 20
M  V30 29 1 26 27
M  V30 30 1 4 28
M  V30 31 1 5 29
M  V30 32 1 6 30
M  V30 33 1 8 31
M  V30 34 1 8 32
M  V30 35 1 8 33
M  V30 36 1 13 34
M  V30 37 1 14 35
M  V30 38 1 14 36
M  V30 39 1 14 37
M  V30 40 1 15 38
M  V30 41 1 16 39
M  V30 42 1 17 40
M  V30 43 1 17 41
M  V30 44 1 19 42
M  V30 45 1 19 43
M  V30 46 1 19 44
M  V30 47 1 20 45
M  V30 48 1 20 46
M  V30 49 1 21 47
M  V30 50 1 21 48
M  V30 51 1 23 49
M  V30 52 1 24 50
M  V30 53 1 25 51
M  V30 54 1 26 52
M  V30 55 1 27 53
M  V30 END BOND
M  V30 BEGIN COLLECTION
M  V30 MDLV30/STEABS ATOMS=(2 15 16)
M  V30 END COLLECTION
M  V30 END CTAB
M  END
>  <NO.>
1941

>  <Name>
nemonapride

>  <SMILES>
CNc1cc(OC)c(C(=O)N[C@@H]2CCN(Cc3ccccc3)[C@@H]2C)cc1Cl

>  <logBB>


>  <Class>
1

>  <MW>
387.17

>  <nHBAcc>
4

>  <nHBDon>
2

>  <SLogP>
3.78

>  <TopoPSA>
53.6

>  <MMFF94 Energy>
73.811

$$$$
CNc1nc(Cl)c(SC)c(N2CCN(C)CC2)n1
Actelion Java MolfileCreator 2.0

  0  0  0  0  0  0              0 V3000
M  V30 BEGIN CTAB
M  V30 COUNTS 36 37 0 0 0
M  V30 BEGIN ATOM
M  V30 1 Cl 4.0404 -0.6456 2.7461 0
M  V30 2 C 2.4651 -0.861 2.0649 0
M  V30 3 N 1.8031 -1.8506 2.692 0
M  V30 4 C 1.9889 -0.1153 0.9984 0
M  V30 5 C 0.6038 -2.146 2.2095 0
M  V30 6 S 2.939 1.158 0.1658 0
M  V30 7 C 0.7247 -0.5161 0.5644 0
M  V30 8 N 0.051 -1.5209 1.1667 0
M  V30 9 N -0.0678 -3.1523 2.8418 0
M  V30 10 C 2.886 2.4553 1.4306 0
M  V30 11 N 0.0978 0.0937 -0.527 0
M  V30 12 C -1.3694 -3.574 2.4147 0
M  V30 13 C -0.5952 1.356 -0.2296 0
M  V30 14 C -0.6765 -0.8062 -1.3964 0
M  V30 15 C -1.0192 2.0551 -1.5427 0
M  V30 16 C -1.0964 -0.0676 -2.6886 0
M  V30 17 N -1.8392 1.185 -2.4156 0
M  V30 18 C -2.1673 1.8698 -3.6637 0
M  V30 19 H 0.4127 -3.5868 3.6134 0
M  V30 20 H 1.8585 2.6502 1.748 0
M  V30 21 H 3.297 3.3766 1.0091 0
M  V30 22 H 3.4848 2.1841 2.3024 0
M  V30 23 H -1.3497 -3.9458 1.385 0
M  V30 24 H -2.0961 -2.7578 2.4868 0
M  V30 25 H -1.7212 -4.3887 3.0552 0
M  V30 26 H 0.0407 2.0438 0.3357 0
M  V30 27 H -1.484 1.1558 0.3835 0
M  V30 28 H -1.575 -1.1654 -0.8774 0
M  V30 29 H -0.0727 -1.6783 -1.6763 0
M  V30 30 H -0.1163 2.383 -2.0754 0
M  V30 31 H -1.5917 2.9536 -1.2826 0
M  V30 32 H -1.725 -0.7431 -3.2808 0
M  V30 33 H -0.1966 0.1484 -3.2804 0
M  V30 34 H -1.2741 2.1455 -4.2356 0
M  V30 35 H -2.798 1.2343 -4.2949 0
M  V30 36 H -2.7411 2.7809 -3.4611 0
M  V30 END ATOM
M  V30 BEGIN BOND
M  V30 1 1 1 2
M  V30 2 2 2 3
M  V30 3 1 2 4
M  V30 4 1 3 5
M  V30 5 1 4 6
M  V30 6 2 4 7
M  V30 7 2 5 8
M  V30 8 1 5 9
M  V30 9 1 6 10
M  V30 10 1 7 11
M  V30 11 1 9 12
M  V30 12 1 11 13
M  V30 13 1 11 14
M  V30 14 1 13 15
M  V30 15 1 14 16
M  V30 16 1 15 17
M  V30 17 1 17 18
M  V30 18 1 7 8
M  V30 19 1 16 17
M  V30 20 1 9 19
M  V30 21 1 10 20
M  V30 22 1 10 21
M  V30 23 1 10 22
M  V30 24 1 12 23
M  V30 25 1 12 24
M  V30 26 1 12 25
M  V30 27 1 13 26
M  V30 28 1 13 27
M  V30 29 1 14 28
M  V30 30 1 14 29
M  V30 31 1 15 30
M  V30 32 1 15 31
M  V30 33 1 16 32
M  V30 34 1 16 33
M  V30 35 1 18 34
M  V30 36 1 18 35
M  V30 37 1 18 36
M  V30 END BOND
M  V30 END CTAB
M  END
>  <NO.>
1942

>  <Name>
mezilamine

>  <SMILES>
CNc1nc(Cl)c(SC)c(N2CCN(C)CC2)n1

>  <logBB>


>  <Class>
1

>  <MW>
287.1

>  <nHBAcc>
6

>  <nHBDon>
1

>  <SLogP>
1.65

>  <TopoPSA>
44.29

>  <MMFF94 Energy>
-5.2445

$$$$
CO/N=C(/C(=O)NC1C(=O)N2C(C(=O)O)=C(/C=C\c3scnc3C)CS[C@H]12)c1csc(N)n1
Actelion Java MolfileCreator 2.0

  0  0  0  0  0  0              0 V3000
M  V30 BEGIN CTAB
M  V30 COUNTS 51 54 0 0 0
M  V30 BEGIN ATOM
M  V30 1 S 0.9125 -0.9125 1.4106 0
M  V30 2 C -0.154 0.4949 0.9827 0 CFG=1
M  V30 3 C 2.4089 0.1217 1.5651 0
M  V30 4 N 0.349 1.0666 -0.24 0
M  V30 5 C -1.4722 0.1899 0.2058 0
M  V30 6 C 2.6146 1.0885 0.4106 0
M  V30 7 C 1.6311 1.459 -0.4428 0
M  V30 8 C -0.7795 0.9721 -0.9709 0
M  V30 9 N -1.7744 -1.2374 -0.0672 0
M  V30 10 C 3.9969 1.5392 0.2828 0
M  V30 11 C 1.9031 2.271 -1.656 0
M  V30 12 O -1.0389 1.2907 -2.1058 0
M  V30 13 C -3.035 -1.6656 -0.4248 0
M  V30 14 C 4.4843 2.7744 0.4874 0
M  V30 15 O 1.429 3.3634 -1.9097 0
M  V30 16 O 2.7271 1.6386 -2.5127 0
M  V30 17 O -4.0161 -0.9469 -0.5377 0
M  V30 18 C -3.1217 -3.1643 -0.7076 0
M  V30 19 C 3.7242 3.8971 0.923 0
M  V30 20 N -2.2313 -3.6294 -1.5434 0
M  V30 21 C -4.1359 -3.949 -0.0105 0
M  V30 22 S 2.8399 3.886 2.4075 0
M  V30 23 C 3.6143 5.1613 0.3499 0
M  V30 24 O -2.284 -5.0211 -1.6981 0
M  V30 25 N -4.4664 -3.6479 1.3113 0
M  V30 26 C -4.868 -4.9935 -0.5464 0
M  V30 27 C 2.3843 5.5118 2.148 0
M  V30 28 N 2.8529 6.0768 1.0614 0
M  V30 29 C 4.2269 5.6118 -0.9292 0
M  V30 30 C -1.2907 -5.4082 -2.6411 0
M  V30 31 C -5.4063 -4.4488 1.7456 0
M  V30 32 S -5.9603 -5.6138 0.6164 0
M  V30 33 N -5.9129 -4.3787 2.9797 0
M  V30 34 H -0.2787 1.2325 1.7844 0
M  V30 35 H 3.2534 -0.5729 1.6349 0
M  V30 36 H 2.3554 0.6729 2.5102 0
M  V30 37 H -2.3385 0.7206 0.6185 0
M  V30 38 H -1.0308 -1.9315 -0.0626 0
M  V30 39 H 4.6957 0.7606 -0.0262 0
M  V30 40 H 5.5395 2.9517 0.2888 0
M  V30 41 H 2.7313 2.2353 -3.2899 0
M  V30 42 H -4.8211 -5.4071 -1.5434 0
M  V30 43 H 1.7531 6.0447 2.8469 0
M  V30 44 H 5.3148 5.6744 -0.828 0
M  V30 45 H 3.9903 4.9153 -1.7395 0
M  V30 46 H 3.8538 6.6005 -1.2152 0
M  V30 47 H -0.2963 -5.1299 -2.2788 0
M  V30 48 H -1.4855 -4.9384 -3.6101 0
M  V30 49 H -1.3323 -6.4939 -2.7602 0
M  V30 50 H -6.6493 -4.9939 3.296 0
M  V30 51 H -5.5833 -3.6668 3.6181 0
M  V30 END ATOM
M  V30 BEGIN BOND
M  V30 1 1 1 2
M  V30 2 1 1 3
M  V30 3 1 2 4
M  V30 4 1 2 5
M  V30 5 1 3 6
M  V30 6 1 4 7
M  V30 7 1 4 8
M  V30 8 1 5 9
M  V30 9 1 6 10
M  V30 10 1 7 11
M  V30 11 2 8 12
M  V30 12 1 9 13
M  V30 13 2 10 14
M  V30 14 2 11 15
M  V30 15 1 11 16
M  V30 16 2 13 17
M  V30 17 1 13 18
M  V30 18 1 14 19
M  V30 19 2 18 20
M  V30 20 1 18 21
M  V30 21 1 19 22
M  V30 22 2 19 23
M  V30 23 1 20 24
M  V30 24 1 21 25
M  V30 25 2 21 26
M  V30 26 1 22 27
M  V30 27 1 23 28
M  V30 28 1 23 29
M  V30 29 1 24 30
M  V30 30 2 25 31
M  V30 31 1 26 32
M  V30 32 1 31 33
M  V30 33 1 5 8
M  V30 34 2 6 7
M  V30 35 2 27 28
M  V30 36 1 31 32
M  V30 37 1 2 34
M  V30 38 1 3 35
M  V30 39 1 3 36
M  V30 40 1 5 37
M  V30 41 1 9 38
M  V30 42 1 10 39
M  V30 43 1 14 40
M  V30 44 1 16 41
M  V30 45 1 26 42
M  V30 46 1 27 43
M  V30 47 1 29 44
M  V30 48 1 29 45
M  V30 49 1 29 46
M  V30 50 1 30 47
M  V30 51 1 30 48
M  V30 52 1 30 49
M  V30 53 1 33 50
M  V30 54 1 33 51
M  V30 END BOND
M  V30 BEGIN COLLECTION
M  V30 MDLV30/STEABS ATOMS=(1 2)
M  V30 END COLLECTION
M  V30 END CTAB
M  END
>  <NO.>
1944

>  <Name>
(6r)-7-[[(2z)-2-(2-amino-1,3-thiazol-4-yl)-2-methoxyiminoacetyl]amino]-3-[(z)-2-(4-methyl-1,3-thiazol-5-yl)ethenyl]-8-oxo-5-thia-1-azabicyclo[4.2.0]oct-2-ene-2-carboxylic acid

>  <SMILES>
CO/N=C(/C(=O)NC1C(=O)N2C(C(=O)O)=C(/C=C\c3scnc3C)CS[C@H]12)c1csc(N)n1

>  <logBB>


>  <Class>
-1

>  <MW>
506.05

>  <nHBAcc>
11

>  <nHBDon>
3

>  <SLogP>
1.29

>  <TopoPSA>
160.1

>  <MMFF94 Energy>
82.738

$$$$
CO/N=C\C1=CCCN(C)C1
Actelion Java MolfileCreator 2.0

  0  0  0  0  0  0              0 V3000
M  V30 BEGIN CTAB
M  V30 COUNTS 25 25 0 0 0
M  V30 BEGIN ATOM
M  V30 1 O -2.1896 0.547 -1.3289 0
M  V30 2 N -1.3472 0.9689 -2.3602 0
M  V30 3 C -3.5338 0.6217 -1.7885 0
M  V30 4 C -0.0933 0.9238 -2.0385 0
M  V30 5 C 0.6052 0.4744 -0.7999 0
M  V30 6 C 1.9037 0.8114 -0.6845 0
M  V30 7 C -0.1048 -0.3545 0.2373 0
M  V30 8 C 2.7025 0.4165 0.5265 0
M  V30 9 N 0.8146 -1.0453 1.1725 0
M  V30 10 C 1.8292 -0.1115 1.6777 0
M  V30 11 C 0.0629 -1.6505 2.2693 0
M  V30 12 H -3.6764 -0.0353 -2.6518 0
M  V30 13 H -3.7879 1.653 -2.052 0
M  V30 14 H -4.1934 0.2915 -0.9817 0
M  V30 15 H 0.586 1.3015 -2.8235 0
M  V30 16 H 2.4225 1.3801 -1.4502 0
M  V30 17 H -0.6948 -1.1302 -0.2646 0
M  V30 18 H -0.7883 0.2982 0.7958 0
M  V30 19 H 3.2737 1.2818 0.8816 0
M  V30 20 H 3.4259 -0.351 0.226 0
M  V30 21 H 1.3558 0.7301 2.2017 0
M  V30 22 H 2.4846 -0.6133 2.4001 0
M  V30 23 H 0.733 -2.2133 2.9285 0
M  V30 24 H -0.4655 -0.9038 2.873 0
M  V30 25 H -0.672 -2.3658 1.8837 0
M  V30 END ATOM
M  V30 BEGIN BOND
M  V30 1 1 1 2
M  V30 2 1 1 3
M  V30 3 2 2 4
M  V30 4 1 4 5
M  V30 5 2 5 6
M  V30 6 1 5 7
M  V30 7 1 6 8
M  V30 8 1 7 9
M  V30 9 1 8 10
M  V30 10 1 9 11
M  V30 11 1 9 10
M  V30 12 1 3 12
M  V30 13 1 3 13
M  V30 14 1 3 14
M  V30 15 1 4 15
M  V30 16 1 6 16
M  V30 17 1 7 17
M  V30 18 1 7 18
M  V30 19 1 8 19
M  V30 20 1 8 20
M  V30 21 1 10 21
M  V30 22 1 10 22
M  V30 23 1 11 23
M  V30 24 1 11 24
M  V30 25 1 11 25
M  V30 END BOND
M  V30 END CTAB
M  END
>  <NO.>
1960

>  <Name>
milameline

>  <SMILES>
CO/N=C\C1=CCCN(C)C1

>  <logBB>


>  <Class>
1

>  <MW>
154.11

>  <nHBAcc>
3

>  <nHBDon>
0

>  <SLogP>
0.88

>  <TopoPSA>
24.83

>  <MMFF94 Energy>
40.338

$$$$
COC(=O)C1=CCCN(C)C1
Actelion Java MolfileCreator 2.0

  0  0  0  0  0  0              0 V3000
M  V30 BEGIN CTAB
M  V30 COUNTS 24 24 0 0 0
M  V30 BEGIN ATOM
M  V30 1 O -1.6439 -2.0357 -0.8608 0
M  V30 2 C -1.7288 -1.0139 -0.1943 0
M  V30 3 O -2.8602 -0.5539 0.3979 0
M  V30 4 C -0.5717 -0.1165 0.0661 0
M  V30 5 C -4.0073 -1.3739 0.175 0
M  V30 6 C -0.6308 0.9389 0.9012 0
M  V30 7 C 0.69 -0.4792 -0.6793 0
M  V30 8 C 0.5775 1.7942 1.1585 0
M  V30 9 N 1.7022 0.6008 -0.696 0
M  V30 10 C 1.8835 1.1591 0.6503 0
M  V30 11 C 2.9663 0.1067 -1.2365 0
M  V30 12 H -4.8571 -0.914 0.687 0
M  V30 13 H -4.2368 -1.4309 -0.8936 0
M  V30 14 H -3.8513 -2.3734 0.5927 0
M  V30 15 H -1.5463 1.2089 1.4186 0
M  V30 16 H 0.4389 -0.7117 -1.7217 0
M  V30 17 H 1.1057 -1.3886 -0.2246 0
M  V30 18 H 0.668 1.9782 2.2351 0
M  V30 19 H 0.422 2.7655 0.6735 0
M  V30 20 H 2.2149 0.3808 1.3512 0
M  V30 21 H 2.6584 1.9354 0.6405 0
M  V30 22 H 3.6968 0.9201 -1.3077 0
M  V30 23 H 3.3982 -0.6901 -0.6204 0
M  V30 24 H 2.826 -0.2792 -2.2521 0
M  V30 END ATOM
M  V30 BEGIN BOND
M  V30 1 2 1 2
M  V30 2 1 2 3
M  V30 3 1 2 4
M  V30 4 1 3 5
M  V30 5 2 4 6
M  V30 6 1 4 7
M  V30 7 1 6 8
M  V30 8 1 7 9
M  V30 9 1 8 10
M  V30 10 1 9 11
M  V30 11 1 9 10
M  V30 12 1 5 12
M  V30 13 1 5 13
M  V30 14 1 5 14
M  V30 15 1 6 15
M  V30 16 1 7 16
M  V30 17 1 7 17
M  V30 18 1 8 18
M  V30 19 1 8 19
M  V30 20 1 10 20
M  V30 21 1 10 21
M  V30 22 1 11 22
M  V30 23 1 11 23
M  V30 24 1 11 24
M  V30 END BOND
M  V30 END CTAB
M  END
>  <NO.>
1961

>  <Name>
arecoline

>  <SMILES>
COC(=O)C1=CCCN(C)C1

>  <logBB>


>  <Class>
1

>  <MW>
155.09

>  <nHBAcc>
3

>  <nHBDon>
0

>  <SLogP>
0.42

>  <TopoPSA>
29.54

>  <MMFF94 Energy>
15.458

$$$$
COC(=O)C1C2CC3c4[nH]c5cc(OC)ccc5c4CCN3CC2CC(OC)C1OC
Actelion Java MolfileCreator 2.0

  0  0  0  0  0  0              0 V3000
M  V30 BEGIN CTAB
M  V30 COUNTS 63 67 0 0 0
M  V30 BEGIN ATOM
M  V30 1 O -4.1683 2.8041 0.2401 0
M  V30 2 C -3.454 2.6358 -0.7397 0
M  V30 3 O -3.8688 2.7641 -2.0331 0
M  V30 4 C -2.0007 2.1831 -0.6953 0
M  V30 5 C -5.2211 3.2012 -2.1682 0
M  V30 6 C -1.1518 3.1407 0.1569 0
M  V30 7 C -1.9365 0.7123 -0.2458 0
M  V30 8 O -1.4122 4.4667 -0.3441 0
M  V30 9 C -1.4044 2.9726 1.6771 0
M  V30 10 C -2.1723 0.5541 1.2705 0
M  V30 11 C -0.6092 0.0529 -0.674 0
M  V30 12 C -0.5196 5.4655 0.1282 0
M  V30 13 O -0.3987 3.7157 2.3953 0
M  V30 14 C -1.283 1.4988 2.0914 0
M  V30 15 C -1.9808 -0.9136 1.7007 0
M  V30 16 C -0.5252 -1.398 -0.1787 0
M  V30 17 C -0.7998 4.0783 3.7109 0
M  V30 18 N -0.6638 -1.4129 1.3004 0
M  V30 19 C 0.7629 -2.0628 -0.5608 0
M  V30 20 C -0.3985 -2.7594 1.8586 0
M  V30 21 N 1.3861 -1.9924 -1.7767 0
M  V30 22 C 1.4966 -2.9146 0.241 0
M  V30 23 C 1.0699 -3.2056 1.638 0
M  V30 24 C 2.5238 -2.7715 -1.7664 0
M  V30 25 C 2.6174 -3.3619 -0.505 0
M  V30 26 C 3.4712 -2.9975 -2.7728 0
M  V30 27 C 3.7064 -4.2124 -0.2393 0
M  V30 28 C 4.5496 -3.8467 -2.4928 0
M  V30 29 C 4.6637 -4.4464 -1.2388 0
M  V30 30 O 5.422 -4.0051 -3.538 0
M  V30 31 C 6.5489 -4.8423 -3.314 0
M  V30 32 H -1.6285 2.2555 -1.7278 0
M  V30 33 H -5.4381 3.3068 -3.2347 0
M  V30 34 H -5.9063 2.4588 -1.7471 0
M  V30 35 H -5.361 4.1753 -1.6888 0
M  V30 36 H -0.0933 2.928 -0.0444 0
M  V30 37 H -2.7401 0.1627 -0.7585 0
M  V30 38 H -2.39 3.3787 1.9312 0
M  V30 39 H -3.2155 0.8128 1.4927 0
M  V30 40 H -0.5401 0.0786 -1.7692 0
M  V30 41 H 0.2487 0.6263 -0.2999 0
M  V30 42 H 0.5181 5.12 0.1117 0
M  V30 43 H -0.6035 6.3313 -0.5349 0
M  V30 44 H -0.808 5.792 1.1301 0
M  V30 45 H -1.5418 1.3949 3.1521 0
M  V30 46 H -0.2289 1.199 2.0267 0
M  V30 47 H -2.091 -0.9732 2.791 0
M  V30 48 H -2.7776 -1.5328 1.2675 0
M  V30 49 H -1.34 -1.9811 -0.6322 0
M  V30 50 H 0.0026 4.6704 4.1593 0
M  V30 51 H -1.7053 4.6921 3.6809 0
M  V30 52 H -0.9619 3.1947 4.3331 0
M  V30 53 H -0.5867 -2.7644 2.9393 0
M  V30 54 H -1.0812 -3.4935 1.4093 0
M  V30 55 H 1.0747 -1.4534 -2.5722 0
M  V30 56 H 1.1652 -4.2747 1.8567 0
M  V30 57 H 1.7251 -2.6609 2.3289 0
M  V30 58 H 3.3807 -2.5287 -3.7473 0
M  V30 59 H 3.808 -4.6847 0.733 0
M  V30 60 H 5.4886 -5.1075 -0.9959 0
M  V30 61 H 7.1836 -4.4455 -2.5147 0
M  V30 62 H 7.1424 -4.8565 -4.2333 0
M  V30 63 H 6.2403 -5.8712 -3.1017 0
M  V30 END ATOM
M  V30 BEGIN BOND
M  V30 1 2 1 2
M  V30 2 1 2 3
M  V30 3 1 2 4
M  V30 4 1 3 5
M  V30 5 1 4 6
M  V30 6 1 4 7
M  V30 7 1 6 8
M  V30 8 1 6 9
M  V30 9 1 7 10
M  V30 10 1 7 11
M  V30 11 1 8 12
M  V30 12 1 9 13
M  V30 13 1 9 14
M  V30 14 1 10 15
M  V30 15 1 11 16
M  V30 16 1 13 17
M  V30 17 1 15 18
M  V30 18 1 16 19
M  V30 19 1 18 20
M  V30 20 1 19 21
M  V30 21 2 19 22
M  V30 22 1 20 23
M  V30 23 1 21 24
M  V30 24 1 22 25
M  V30 25 1 24 26
M  V30 26 1 25 27
M  V30 27 2 26 28
M  V30 28 2 27 29
M  V30 29 1 28 30
M  V30 30 1 30 31
M  V30 31 1 10 14
M  V30 32 1 16 18
M  V30 33 1 22 23
M  V30 34 2 24 25
M  V30 35 1 28 29
M  V30 36 1 4 32
M  V30 37 1 5 33
M  V30 38 1 5 34
M  V30 39 1 5 35
M  V30 40 1 6 36
M  V30 41 1 7 37
M  V30 42 1 9 38
M  V30 43 1 10 39
M  V30 44 1 11 40
M  V30 45 1 11 41
M  V30 46 1 12 42
M  V30 47 1 12 43
M  V30 48 1 12 44
M  V30 49 1 14 45
M  V30 50 1 14 46
M  V30 51 1 15 47
M  V30 52 1 15 48
M  V30 53 1 16 49
M  V30 54 1 17 50
M  V30 55 1 17 51
M  V30 56 1 17 52
M  V30 57 1 20 53
M  V30 58 1 20 54
M  V30 59 1 21 55
M  V30 60 1 23 56
M  V30 61 1 23 57
M  V30 62 1 26 58
M  V30 63 1 27 59
M  V30 64 1 29 60
M  V30 65 1 31 61
M  V30 66 1 31 62
M  V30 67 1 31 63
M  V30 END BOND
M  V30 END CTAB
M  END
>  <NO.>
1962

>  <Name>
metoserpate

>  <SMILES>
COC(=O)C1C2CC3c4[nH]c5cc(OC)ccc5c4CCN3CC2CC(OC)C1OC

>  <logBB>


>  <Class>
1

>  <MW>
428.23

>  <nHBAcc>
6

>  <nHBDon>
1

>  <SLogP>
2.93

>  <TopoPSA>
73.02

>  <MMFF94 Energy>
66.809

$$$$
COC(=O)N1CCN(C(=O)Cc2ccc(Cl)c(Cl)c2)[C@@H](CN2CCCC2)C1
Actelion Java MolfileCreator 2.0

  0  0  0  0  0  0              0 V3000
M  V30 BEGIN CTAB
M  V30 COUNTS 52 54 0 0 0
M  V30 BEGIN ATOM
M  V30 1 Cl -1.1307 0.7267 -6.4744 0
M  V30 2 C -2.0342 9.0E-4 -5.1926 0
M  V30 3 C -2.7574 -1.1832 -5.3609 0
M  V30 4 C -2.0247 0.6429 -3.9481 0
M  V30 5 Cl -2.8134 -2.0308 -6.8647 0
M  V30 6 C -3.4718 -1.7155 -4.2854 0
M  V30 7 C -2.7235 0.1042 -2.8567 0
M  V30 8 C -3.4599 -1.0735 -3.0443 0
M  V30 9 C -2.7215 0.8174 -1.5215 0
M  V30 10 C -2.4484 -0.1014 -0.3371 0
M  V30 11 O -3.405 -0.5618 0.294 0
M  V30 12 N -1.1363 -0.4232 -0.0179 0
M  V30 13 C 0.0745 0.1886 -0.6366 0 CFG=2
M  V30 14 C -0.9087 -1.3165 1.1352 0
M  V30 15 C 1.2553 -0.8106 -0.745 0
M  V30 16 C 0.4969 1.5419 0.0159 0
M  V30 17 C 0.2446 -2.2997 0.9183 0
M  V30 18 N 1.439 -1.6004 0.4611 0
M  V30 19 N 0.8088 1.4709 1.4453 0
M  V30 20 C 2.6337 -1.5585 1.1453 0
M  V30 21 C 2.0586 2.1473 1.7993 0
M  V30 22 C -0.1988 2.113 2.2943 0
M  V30 23 O 3.6255 -0.9518 0.7556 0
M  V30 24 O 2.5969 -2.2722 2.3033 0
M  V30 25 C 1.9869 2.2148 3.3176 0
M  V30 26 C 0.4976 2.1708 3.6453 0
M  V30 27 C 3.8101 -2.2314 3.0533 0
M  V30 28 H -1.4677 1.5708 -3.8329 0
M  V30 29 H -4.046 -2.6315 -4.4057 0
M  V30 30 H -4.0353 -1.5031 -2.2237 0
M  V30 31 H -2.0169 1.6533 -1.5182 0
M  V30 32 H -3.7109 1.27 -1.3752 0
M  V30 33 H -0.1776 0.4425 -1.6704 0
M  V30 34 H -1.8158 -1.8842 1.3673 0
M  V30 35 H -0.7011 -0.6891 2.006 0
M  V30 36 H 2.176 -0.2919 -1.0317 0
M  V30 37 H 1.0353 -1.5291 -1.5451 0
M  V30 38 H -0.2887 2.2858 -0.1659 0
M  V30 39 H 1.3684 1.9076 -0.5445 0
M  V30 40 H -0.0228 -3.0198 0.1358 0
M  V30 41 H 0.4267 -2.8662 1.8355 0
M  V30 42 H 2.942 1.598 1.4627 0
M  V30 43 H 2.0992 3.1624 1.3833 0
M  V30 44 H -1.1358 1.5517 2.3469 0
M  V30 45 H -0.4257 3.1319 1.954 0
M  V30 46 H 2.4924 1.3542 3.7712 0
M  V30 47 H 2.46 3.1244 3.7011 0
M  V30 48 H 0.1822 3.044 4.2251 0
M  V30 49 H 0.2745 1.2746 4.2361 0
M  V30 50 H 4.6304 -2.6757 2.4811 0
M  V30 51 H 4.049 -1.203 3.3425 0
M  V30 52 H 3.6654 -2.8203 3.9632 0
M  V30 END ATOM
M  V30 BEGIN BOND
M  V30 1 1 1 2
M  V30 2 2 2 3
M  V30 3 1 2 4
M  V30 4 1 3 5
M  V30 5 1 3 6
M  V30 6 2 4 7
M  V30 7 2 6 8
M  V30 8 1 7 9
M  V30 9 1 9 10
M  V30 10 2 10 11
M  V30 11 1 10 12
M  V30 12 1 12 13
M  V30 13 1 12 14
M  V30 14 1 13 15
M  V30 15 1 13 16
M  V30 16 1 14 17
M  V30 17 1 15 18
M  V30 18 1 16 19
M  V30 19 1 18 20
M  V30 20 1 19 21
M  V30 21 1 19 22
M  V30 22 2 20 23
M  V30 23 1 20 24
M  V30 24 1 21 25
M  V30 25 1 22 26
M  V30 26 1 24 27
M  V30 27 1 7 8
M  V30 28 1 17 18
M  V30 29 1 25 26
M  V30 30 1 4 28
M  V30 31 1 6 29
M  V30 32 1 8 30
M  V30 33 1 9 31
M  V30 34 1 9 32
M  V30 35 1 13 33
M  V30 36 1 14 34
M  V30 37 1 14 35
M  V30 38 1 15 36
M  V30 39 1 15 37
M  V30 40 1 16 38
M  V30 41 1 16 39
M  V30 42 1 17 40
M  V30 43 1 17 41
M  V30 44 1 21 42
M  V30 45 1 21 43
M  V30 46 1 22 44
M  V30 47 1 22 45
M  V30 48 1 25 46
M  V30 49 1 25 47
M  V30 50 1 26 48
M  V30 51 1 26 49
M  V30 52 1 27 50
M  V30 53 1 27 51
M  V30 54 1 27 52
M  V30 END BOND
M  V30 BEGIN COLLECTION
M  V30 MDLV30/STEABS ATOMS=(1 13)
M  V30 END COLLECTION
M  V30 END CTAB
M  END
>  <NO.>
1963

>  <Name>
gr89696

>  <SMILES>
COC(=O)N1CCN(C(=O)Cc2ccc(Cl)c(Cl)c2)[C@@H](CN2CCCC2)C1

>  <logBB>


>  <Class>
1

>  <MW>
413.13

>  <nHBAcc>
4

>  <nHBDon>
0

>  <SLogP>
2.91

>  <TopoPSA>
53.09

>  <MMFF94 Energy>
52.63

$$$$
COC(=O)[C@@]1(O)CC[C@H]2C3CCC(=O)C4C(=O)C=CC4(C)[C@H]3C(O)CC21C
Actelion Java MolfileCreator 2.0

  0  0  0  0  0  0              0 V3000
M  V30 BEGIN CTAB
M  V30 COUNTS 55 58 0 0 0
M  V30 BEGIN ATOM
M  V30 1 O 0.5655 -5.0983 -0.7271 0
M  V30 2 C 0.4231 -3.9161 -1.0381 0
M  V30 3 C -0.9198 -3.2774 -1.2176 0
M  V30 4 C 1.641 -3.0278 -1.1854 0
M  V30 5 C -2.1235 -4.1658 -1.2806 0
M  V30 6 C -1.2587 -2.283 -0.0759 0
M  V30 7 C 1.3809 -1.6134 -1.7027 0
M  V30 8 O -2.2379 -5.2089 -1.9032 0
M  V30 9 C -3.2633 -3.5351 -0.6036 0
M  V30 10 C -2.7737 -2.4547 0.0123 0
M  V30 11 C -0.8166 -0.8307 -0.4917 0 CFG=2
M  V30 12 C -0.7122 -2.7246 1.301 0
M  V30 13 C 0.7187 -0.6369 -0.6858 0
M  V30 14 C -1.3032 0.2507 0.4985 0
M  V30 15 C 1.0857 0.8243 -1.1303 0 CFG=1
M  V30 16 O -0.5336 0.2077 1.6875 0
M  V30 17 C -1.212 1.6219 -0.1549 0
M  V30 18 C 0.1841 2.0386 -0.6795 0
M  V30 19 C 2.4886 1.1747 -0.5871 0
M  V30 20 C 1.0796 2.8447 0.3482 0 CFG=1
M  V30 21 C -0.0911 2.9184 -1.9349 0
M  V30 22 C 2.2073 1.8916 0.7274 0
M  V30 23 O 1.7445 3.9433 -0.3317 0
M  V30 24 C 0.3592 3.5014 1.5391 0
M  V30 25 O -0.0262 4.6682 1.503 0
M  V30 26 O 0.1737 2.6661 2.5936 0
M  V30 27 C -0.4167 3.2926 3.7362 0
M  V30 28 H -0.9312 -2.7847 -2.199 0
M  V30 29 H 2.1528 -2.9849 -0.2179 0
M  V30 30 H 2.3079 -3.5339 -1.894 0
M  V30 31 H 0.8066 -1.6306 -2.6362 0
M  V30 32 H 2.3659 -1.217 -1.9818 0
M  V30 33 H -4.2699 -3.9129 -0.6339 0
M  V30 34 H -3.4048 -1.8194 0.6225 0
M  V30 35 H -1.2996 -0.6257 -1.4595 0
M  V30 36 H 0.3675 -2.5807 1.3903 0
M  V30 37 H -0.9129 -3.7867 1.4904 0
M  V30 38 H -1.186 -2.173 2.121 0
M  V30 39 H 1.2044 -0.8204 0.2807 0
M  V30 40 H -2.3471 0.0883 0.7798 0
M  V30 41 H 1.1375 0.8157 -2.2278 0
M  V30 42 H -0.7856 0.9574 2.2568 0
M  V30 43 H -1.9253 1.6071 -0.9914 0
M  V30 44 H -1.61 2.3824 0.5252 0
M  V30 45 H 3.0012 1.8461 -1.2872 0
M  V30 46 H 3.1389 0.3078 -0.4368 0
M  V30 47 H 0.8332 3.2134 -2.4441 0
M  V30 48 H -0.6411 3.8271 -1.6646 0
M  V30 49 H -0.6893 2.3734 -2.6751 0
M  V30 50 H 3.1023 2.4157 1.08 0
M  V30 51 H 1.9101 1.1743 1.4983 0
M  V30 52 H 1.1619 4.7252 -0.2405 0
M  V30 53 H -0.4662 2.5516 4.5388 0
M  V30 54 H 0.1976 4.1319 4.0768 0
M  V30 55 H -1.4344 3.6221 3.5048 0
M  V30 END ATOM
M  V30 BEGIN BOND
M  V30 1 2 1 2
M  V30 2 1 2 3
M  V30 3 1 2 4
M  V30 4 1 3 5
M  V30 5 1 3 6
M  V30 6 1 4 7
M  V30 7 2 5 8
M  V30 8 1 5 9
M  V30 9 1 6 10
M  V30 10 1 6 11
M  V30 11 1 6 12
M  V30 12 1 7 13
M  V30 13 1 11 14
M  V30 14 1 13 15
M  V30 15 1 14 16
M  V30 16 1 14 17
M  V30 17 1 15 18
M  V30 18 1 15 19
M  V30 19 1 18 20
M  V30 20 1 18 21
M  V30 21 1 19 22
M  V30 22 1 20 23
M  V30 23 1 20 24
M  V30 24 2 24 25
M  V30 25 1 24 26
M  V30 26 1 26 27
M  V30 27 2 9 10
M  V30 28 1 11 13
M  V30 29 1 17 18
M  V30 30 1 20 22
M  V30 31 1 3 28
M  V30 32 1 4 29
M  V30 33 1 4 30
M  V30 34 1 7 31
M  V30 35 1 7 32
M  V30 36 1 9 33
M  V30 37 1 10 34
M  V30 38 1 11 35
M  V30 39 1 12 36
M  V30 40 1 12 37
M  V30 41 1 12 38
M  V30 42 1 13 39
M  V30 43 1 14 40
M  V30 44 1 15 41
M  V30 45 1 16 42
M  V30 46 1 17 43
M  V30 47 1 17 44
M  V30 48 1 19 45
M  V30 49 1 19 46
M  V30 50 1 21 47
M  V30 51 1 21 48
M  V30 52 1 21 49
M  V30 53 1 22 50
M  V30 54 1 22 51
M  V30 55 1 23 52
M  V30 56 1 27 53
M  V30 57 1 27 54
M  V30 58 1 27 55
M  V30 END BOND
M  V30 BEGIN COLLECTION
M  V30 MDLV30/STEABS ATOMS=(3 11 15 20)
M  V30 END COLLECTION
M  V30 END CTAB
M  END
>  <NO.>
1964

>  <Name>
oxisopred

>  <SMILES>
COC(=O)[C@@]1(O)CC[C@H]2C3CCC(=O)C4C(=O)C=CC4(C)[C@H]3C(O)CC21C

>  <logBB>


>  <Class>
1

>  <MW>
376.19

>  <nHBAcc>
6

>  <nHBDon>
2

>  <SLogP>
1.43

>  <TopoPSA>
100.9

>  <MMFF94 Energy>
116.82

$$$$
COC(=O)[C@H]1[C@@H](O)CC[C@H]2CN3CCc4c([nH]c5ccccc45)[C@@H]3C[C@@H]21
Actelion Java MolfileCreator 2.0

  0  0  0  0  0  0              0 V3000
M  V30 BEGIN CTAB
M  V30 COUNTS 52 56 0 0 0
M  V30 BEGIN ATOM
M  V30 1 O -0.884 2.01 3.7814 0
M  V30 2 C -0.8236 2.2725 2.5864 0
M  V30 3 O -1.8937 2.5253 1.7843 0
M  V30 4 C 0.465 2.3501 1.7937 0 CFG=1
M  V30 5 C -3.1547 2.4589 2.4523 0
M  V30 6 C 1.5316 3.0691 2.6412 0 CFG=1
M  V30 7 C 0.9589 0.9604 1.3443 0 CFG=2
M  V30 8 O 1.8406 2.3404 3.8325 0
M  V30 9 C 2.8353 3.2069 1.8516 0
M  V30 10 C 2.2682 1.1119 0.5398 0 CFG=1
M  V30 11 C -0.0668 0.2003 0.4903 0
M  V30 12 C 3.3418 1.8502 1.3519 0
M  V30 13 C 2.7723 -0.2633 0.0787 0
M  V30 14 C 0.4953 -1.1487 -0.0057 0 CFG=2
M  V30 15 N 1.7945 -1.0185 -0.7095 0
M  V30 16 C -0.4914 -1.8173 -0.9131 0
M  V30 17 C 1.6537 -0.5121 -2.0952 0
M  V30 18 N -1.6661 -2.399 -0.5245 0
M  V30 19 C -0.3803 -1.951 -2.2812 0
M  V30 20 C 0.8275 -1.4624 -3.0007 0
M  V30 21 C -2.3368 -2.8819 -1.629 0
M  V30 22 C -1.5438 -2.6161 -2.7494 0
M  V30 23 C -3.5716 -3.5362 -1.7179 0
M  V30 24 C -2.0023 -3.0276 -4.0157 0
M  V30 25 C -4.0067 -3.9302 -2.987 0
M  V30 26 C -3.2354 -3.6816 -4.1204 0
M  V30 27 H 0.2732 2.9732 0.9085 0
M  V30 28 H -3.9375 2.6769 1.7207 0
M  V30 29 H -3.3234 1.454 2.8516 0
M  V30 30 H -3.206 3.2076 3.249 0
M  V30 31 H 1.1787 4.0609 2.9466 0
M  V30 32 H 1.156 0.3495 2.2372 0
M  V30 33 H 1.0035 2.207 4.3245 0
M  V30 34 H 3.6099 3.6558 2.4847 0
M  V30 35 H 2.6799 3.8761 0.9968 0
M  V30 36 H 2.0626 1.7229 -0.3504 0
M  V30 37 H -0.3807 0.825 -0.3568 0
M  V30 38 H -0.9718 0.0096 1.081 0
M  V30 39 H 4.2341 2.0066 0.7339 0
M  V30 40 H 3.6544 1.2359 2.2056 0
M  V30 41 H 3.7043 -0.1526 -0.4897 0
M  V30 42 H 3.0401 -0.8653 0.9574 0
M  V30 43 H 0.6535 -1.8024 0.8628 0
M  V30 44 H 1.1878 0.4811 -2.1004 0
M  V30 45 H 2.6433 -0.3988 -2.5548 0
M  V30 46 H -2.0044 -2.4671 0.4248 0
M  V30 47 H 0.545 -0.9395 -3.9209 0
M  V30 48 H 1.444 -2.3253 -3.2805 0
M  V30 49 H -4.1726 -3.7369 -0.8373 0
M  V30 50 H -1.4061 -2.8408 -4.9033 0
M  V30 51 H -4.9608 -4.442 -3.0893 0
M  V30 52 H -3.5915 -4.0001 -5.0968 0
M  V30 END ATOM
M  V30 BEGIN BOND
M  V30 1 2 1 2
M  V30 2 1 2 3
M  V30 3 1 2 4
M  V30 4 1 3 5
M  V30 5 1 4 6
M  V30 6 1 4 7
M  V30 7 1 6 8
M  V30 8 1 6 9
M  V30 9 1 7 10
M  V30 10 1 7 11
M  V30 11 1 9 12
M  V30 12 1 10 13
M  V30 13 1 11 14
M  V30 14 1 13 15
M  V30 15 1 14 16
M  V30 16 1 15 17
M  V30 17 1 16 18
M  V30 18 2 16 19
M  V30 19 1 17 20
M  V30 20 1 18 21
M  V30 21 1 19 22
M  V30 22 1 21 23
M  V30 23 1 22 24
M  V30 24 2 23 25
M  V30 25 2 24 26
M  V30 26 1 10 12
M  V30 27 1 14 15
M  V30 28 1 19 20
M  V30 29 2 21 22
M  V30 30 1 25 26
M  V30 31 1 4 27
M  V30 32 1 5 28
M  V30 33 1 5 29
M  V30 34 1 5 30
M  V30 35 1 6 31
M  V30 36 1 7 32
M  V30 37 1 8 33
M  V30 38 1 9 34
M  V30 39 1 9 35
M  V30 40 1 10 36
M  V30 41 1 11 37
M  V30 42 1 11 38
M  V30 43 1 12 39
M  V30 44 1 12 40
M  V30 45 1 13 41
M  V30 46 1 13 42
M  V30 47 1 14 43
M  V30 48 1 17 44
M  V30 49 1 17 45
M  V30 50 1 18 46
M  V30 51 1 20 47
M  V30 52 1 20 48
M  V30 53 1 23 49
M  V30 54 1 24 50
M  V30 55 1 25 51
M  V30 56 1 26 52
M  V30 END BOND
M  V30 BEGIN COLLECTION
M  V30 MDLV30/STEABS ATOMS=(5 4 6 7 10 14)
M  V30 END COLLECTION
M  V30 END CTAB
M  END
>  <NO.>
1965

>  <Name>
yohimbine

>  <SMILES>
COC(=O)[C@H]1[C@@H](O)CC[C@H]2CN3CCc4c([nH]c5ccccc45)[C@@H]3C[C@@H]21

>  <logBB>


>  <Class>
-1

>  <MW>
354.19

>  <nHBAcc>
4

>  <nHBDon>
2

>  <SLogP>
2.65

>  <TopoPSA>
65.56

>  <MMFF94 Energy>
38.479

$$$$
COC(=O)[C@H]1[C@H]2C[C@@H]3c4[nH]c5cc(OC)ccc5c4CCN3C[C@H]2C[C@@H](OC(=O)/C=C/c2cc(OC)c(OC)c(OC)c2)[C@@H]1OC
Actelion Java MolfileCreator 2.0

  0  0  0  0  0  0              0 V3000
M  V30 BEGIN CTAB
M  V30 COUNTS 88 93 0 0 0
M  V30 BEGIN ATOM
M  V30 1 O -3.7626 -0.1598 0.3997 0
M  V30 2 C -2.8638 -0.4337 -0.3757 0
M  V30 3 O -1.8308 -1.2784 -0.154 0
M  V30 4 C -2.7055 0.1099 -1.7395 0
M  V30 5 C -1.7215 -1.8497 1.1588 0 CFG=1
M  V30 6 C -3.6732 0.869 -2.2752 0
M  V30 7 C -0.9803 -3.1981 1.0591 0 CFG=2
M  V30 8 C -0.984 -0.8892 2.0866 0
M  V30 9 C -3.6142 1.4832 -3.6127 0
M  V30 10 O -0.9035 -3.8608 2.334 0
M  V30 11 C 0.4645 -3.0189 0.5602 0 CFG=1
M  V30 12 C 0.5006 -0.6716 1.7538 0 CFG=1
M  V30 13 C -4.3728 2.6424 -3.8467 0
M  V30 14 C -2.8713 0.9279 -4.666 0
M  V30 15 C -2.1111 -4.5074 2.7163 0
M  V30 16 C 0.4392 -2.8795 -0.9588 0
M  V30 17 C 1.2629 -1.9544 1.3627 0 CFG=2
M  V30 18 C 0.7583 0.4687 0.7585 0
M  V30 19 C -4.3836 3.2538 -5.1038 0
M  V30 20 C -2.8587 1.5301 -5.9274 0
M  V30 21 O 0.4962 -1.8391 -1.5964 0
M  V30 22 O 0.3248 -4.1183 -1.5259 0
M  V30 23 C 2.6419 -1.6421 0.7378 0
M  V30 24 N 2.1779 0.803 0.5618 0
M  V30 25 O -5.0916 4.3851 -5.4187 0
M  V30 26 C -3.639 2.676 -6.144 0
M  V30 27 O -2.1585 1.0484 -7.0041 0
M  V30 28 C 0.294 -4.1065 -2.9538 0
M  V30 29 C 3.1523 -0.2205 1.0166 0 CFG=1
M  V30 30 C 2.525 2.1586 1.0488 0
M  V30 31 C -5.6891 5.1018 -4.3471 0
M  V30 32 O -3.6081 3.2901 -7.3767 0
M  V30 33 C -1.0255 0.2404 -6.7111 0
M  V30 34 C 3.5595 0.0113 2.4461 0
M  V30 35 C 2.5808 2.3051 2.5897 0
M  V30 36 C -4.6483 2.768 -8.2012 0
M  V30 37 N 4.2729 -0.85 3.2341 0
M  V30 38 C 3.3278 1.1595 3.179 0
M  V30 39 C 4.4754 -0.2898 4.4775 0
M  V30 40 C 3.8902 0.9771 4.4684 0
M  V30 41 C 5.1318 -0.8048 5.6024 0
M  V30 42 C 3.9643 1.7612 5.6344 0
M  V30 43 C 5.1967 -0.0125 6.7558 0
M  V30 44 C 4.6184 1.2564 6.7692 0
M  V30 45 O 5.8573 -0.6019 7.8021 0
M  V30 46 C 5.9583 0.1497 9.0047 0
M  V30 47 H -1.7765 -0.1209 -2.2473 0
M  V30 48 H -2.7245 -2.0263 1.5638 0
M  V30 49 H -4.5709 1.0808 -1.695 0
M  V30 50 H -1.5183 -3.8488 0.3565 0
M  V30 51 H -1.0459 -1.2902 3.1073 0
M  V30 52 H -1.4958 0.0803 2.1116 0
M  V30 53 H 1.0076 -3.9595 0.7453 0
M  V30 54 H 0.9214 -0.3269 2.7083 0
M  V30 55 H -4.9524 3.0561 -3.0271 0
M  V30 56 H -2.319 0.0096 -4.4997 0
M  V30 57 H -2.4182 -5.2322 1.9566 0
M  V30 58 H -1.9275 -5.0437 3.6513 0
M  V30 59 H -2.908 -3.7806 2.8916 0
M  V30 60 H 1.478 -2.4406 2.328 0
M  V30 61 H 0.1887 1.3544 1.0683 0
M  V30 62 H 0.3512 0.2054 -0.2211 0
M  V30 63 H 3.3651 -2.3919 1.0832 0
M  V30 64 H 2.6155 -1.7612 -0.3498 0
M  V30 65 H 0.2055 -5.1402 -3.299 0
M  V30 66 H -0.5743 -3.5455 -3.3132 0
M  V30 67 H 1.2216 -3.6855 -3.3537 0
M  V30 68 H 4.0614 -0.0824 0.4144 0
M  V30 69 H 1.8323 2.9009 0.633 0
M  V30 70 H 3.5084 2.4205 0.6344 0
M  V30 71 H -6.5037 4.5255 -3.8969 0
M  V30 72 H -6.1202 6.0198 -4.7582 0
M  V30 73 H -4.9458 5.3905 -3.5965 0
M  V30 74 H -0.3792 0.7065 -5.9593 0
M  V30 75 H -0.4436 0.1351 -7.6317 0
M  V30 76 H -1.335 -0.7615 -6.3978 0
M  V30 77 H 1.5648 2.3216 3.0011 0
M  V30 78 H 3.0636 3.2534 2.8498 0
M  V30 79 H -4.5197 1.6943 -8.3758 0
M  V30 80 H -4.5941 3.2753 -9.169 0
M  V30 81 H -5.6366 2.9659 -7.772 0
M  V30 82 H 4.604 -1.7648 2.9624 0
M  V30 83 H 5.5812 -1.7924 5.5893 0
M  V30 84 H 3.5186 2.7509 5.6588 0
M  V30 85 H 4.6545 1.8902 7.6489 0
M  V30 86 H 6.5245 1.0735 8.8468 0
M  V30 87 H 6.5072 -0.456 9.7321 0
M  V30 88 H 4.9688 0.3578 9.4249 0
M  V30 END ATOM
M  V30 BEGIN BOND
M  V30 1 2 1 2
M  V30 2 1 2 3
M  V30 3 1 2 4
M  V30 4 1 3 5
M  V30 5 2 4 6
M  V30 6 1 5 7
M  V30 7 1 5 8
M  V30 8 1 6 9
M  V30 9 1 7 10
M  V30 10 1 7 11
M  V30 11 1 8 12
M  V30 12 2 9 13
M  V30 13 1 9 14
M  V30 14 1 10 15
M  V30 15 1 11 16
M  V30 16 1 11 17
M  V30 17 1 12 18
M  V30 18 1 13 19
M  V30 19 2 14 20
M  V30 20 2 16 21
M  V30 21 1 16 22
M  V30 22 1 17 23
M  V30 23 1 18 24
M  V30 24 1 19 25
M  V30 25 2 19 26
M  V30 26 1 20 27
M  V30 27 1 22 28
M  V30 28 1 23 29
M  V30 29 1 24 30
M  V30 30 1 25 31
M  V30 31 1 26 32
M  V30 32 1 27 33
M  V30 33 1 29 34
M  V30 34 1 30 35
M  V30 35 1 32 36
M  V30 36 1 34 37
M  V30 37 2 34 38
M  V30 38 1 37 39
M  V30 39 1 38 40
M  V30 40 1 39 41
M  V30 41 1 40 42
M  V30 42 2 41 43
M  V30 43 2 42 44
M  V30 44 1 43 45
M  V30 45 1 45 46
M  V30 46 1 12 17
M  V30 47 1 20 26
M  V30 48 1 24 29
M  V30 49 1 35 38
M  V30 50 2 39 40
M  V30 51 1 43 44
M  V30 52 1 4 47
M  V30 53 1 5 48
M  V30 54 1 6 49
M  V30 55 1 7 50
M  V30 56 1 8 51
M  V30 57 1 8 52
M  V30 58 1 11 53
M  V30 59 1 12 54
M  V30 60 1 13 55
M  V30 61 1 14 56
M  V30 62 1 15 57
M  V30 63 1 15 58
M  V30 64 1 15 59
M  V30 65 1 17 60
M  V30 66 1 18 61
M  V30 67 1 18 62
M  V30 68 1 23 63
M  V30 69 1 23 64
M  V30 70 1 28 65
M  V30 71 1 28 66
M  V30 72 1 28 67
M  V30 73 1 29 68
M  V30 74 1 30 69
M  V30 75 1 30 70
M  V30 76 1 31 71
M  V30 77 1 31 72
M  V30 78 1 31 73
M  V30 79 1 33 74
M  V30 80 1 33 75
M  V30 81 1 33 76
M  V30 82 1 35 77
M  V30 83 1 35 78
M  V30 84 1 36 79
M  V30 85 1 36 80
M  V30 86 1 36 81
M  V30 87 1 37 82
M  V30 88 1 41 83
M  V30 89 1 42 84
M  V30 90 1 44 85
M  V30 91 1 46 86
M  V30 92 1 46 87
M  V30 93 1 46 88
M  V30 END BOND
M  V30 BEGIN COLLECTION
M  V30 MDLV30/STEABS ATOMS=(6 5 7 11 12 17 29)
M  V30 END COLLECTION
M  V30 END CTAB
M  END
>  <NO.>
1966

>  <Name>
rescinnamine

>  <SMILES>
COC(=O)[C@H]1[C@H]2C[C@@H]3c4[nH]c5cc(OC)ccc5c4CCN3C[C@H]2C[C@@H](OC(=O)/C=C/c2cc(OC)c(OC)c(OC)c2)[C@@H]1OC

>  <logBB>


>  <Class>
1

>  <MW>
634.29

>  <nHBAcc>
10

>  <nHBDon>
1

>  <SLogP>
4.57

>  <TopoPSA>
117.78

>  <MMFF94 Energy>
116.46

$$$$
COC(=O)[C@H]1[C@H]2C[C@@H]3c4[nH]c5cc(OC)ccc5c4CCN3C[C@H]2C[C@@H](OC(=O)c2cc(OC)c(OC)c(OC)c2)[C@@H]1OC
Actelion Java MolfileCreator 2.0

  0  0  0  0  0  0              0 V3000
M  V30 BEGIN CTAB
M  V30 COUNTS 84 89 0 0 0
M  V30 BEGIN ATOM
M  V30 1 O 3.8472 0.8005 -2.7239 0
M  V30 2 C 2.6629 0.5828 -2.9218 0
M  V30 3 O 1.6489 0.8427 -2.0612 0
M  V30 4 C 2.1383 -0.0095 -4.1824 0
M  V30 5 C 2.0205 1.451 -0.8027 0 CFG=1
M  V30 6 C 0.8006 -0.4129 -4.3164 0
M  V30 7 C 3.0333 -0.1649 -5.2524 0
M  V30 8 C 0.8275 2.28 -0.2912 0 CFG=2
M  V30 9 C 2.3823 0.3362 0.1704 0
M  V30 10 C 0.3505 -0.9627 -5.5176 0
M  V30 11 C 2.6002 -0.7103 -6.461 0
M  V30 12 O 0.6426 3.3891 -1.1955 0
M  V30 13 C 1.1533 2.869 1.0853 0 CFG=1
M  V30 14 C 2.6123 0.8199 1.61 0 CFG=1
M  V30 15 O -0.9334 -1.3825 -5.7511 0
M  V30 16 C 1.2517 -1.0859 -6.5898 0
M  V30 17 O 3.3929 -0.9006 -7.5626 0
M  V30 18 C -0.4743 3.2224 -2.0603 0
M  V30 19 C 0.0012 3.7357 1.5636 0
M  V30 20 C 1.5688 1.8277 2.1489 0 CFG=2
M  V30 21 C 2.7172 -0.3708 2.5779 0
M  V30 22 C -1.7969 -1.5037 -4.6286 0
M  V30 23 O 0.8225 -1.6653 -7.764 0
M  V30 24 C 4.789 -0.6809 -7.4106 0
M  V30 25 O -1.1816 3.5207 1.3289 0
M  V30 26 O 0.4709 4.7483 2.3458 0
M  V30 27 C 0.4213 1.1206 2.9159 0
M  V30 28 N 1.472 -1.1481 2.7079 0
M  V30 29 C 0.3503 -0.6578 -8.6565 0
M  V30 30 C -0.5469 5.6105 2.8552 0
M  V30 31 C 0.2341 -0.3459 2.5192 0 CFG=1
M  V30 32 C 1.5117 -1.9321 3.9701 0
M  V30 33 C -0.9475 -0.9707 3.1976 0
M  V30 34 C 0.3079 -2.8801 4.1662 0
M  V30 35 N -2.2344 -0.5045 3.1432 0
M  V30 36 C -0.9498 -2.1246 3.9508 0
M  V30 37 C -3.063 -1.3318 3.8711 0
M  V30 38 C -2.2778 -2.3637 4.3874 0
M  V30 39 C -4.4412 -1.248 4.1056 0
M  V30 40 C -2.8992 -3.3558 5.168 0
M  V30 41 C -5.0447 -2.2417 4.8868 0
M  V30 42 C -4.2799 -3.2836 5.4107 0
M  V30 43 O -6.394 -2.0739 5.06 0
M  V30 44 C -7.0694 -3.052 5.8398 0
M  V30 45 H 2.8737 2.1248 -0.958 0
M  V30 46 H 0.1251 -0.2918 -3.4769 0
M  V30 47 H 4.0628 0.1531 -5.1152 0
M  V30 48 H -0.0822 1.666 -0.2515 0
M  V30 49 H 1.6131 -0.4406 0.1115 0
M  V30 50 H 3.292 -0.1689 -0.1805 0
M  V30 51 H 2.0012 3.5555 0.934 0
M  V30 52 H 3.5826 1.337 1.6104 0
M  V30 53 H -1.4007 3.1685 -1.481 0
M  V30 54 H -0.5286 4.0928 -2.7195 0
M  V30 55 H -0.3653 2.3268 -2.6768 0
M  V30 56 H 2.0814 2.4141 2.9283 0
M  V30 57 H 3.0272 0.025 3.5553 0
M  V30 58 H 3.5176 -1.0432 2.246 0
M  V30 59 H -1.3666 -2.157 -3.8623 0
M  V30 60 H -2.7293 -1.962 -4.9719 0
M  V30 61 H -2.0424 -0.5194 -4.2169 0
M  V30 62 H 5.0009 0.3766 -7.2231 0
M  V30 63 H 5.2747 -0.955 -8.3519 0
M  V30 64 H 5.2081 -1.3152 -6.6226 0
M  V30 65 H -0.5236 1.6597 2.8196 0
M  V30 66 H 0.6523 1.1636 3.991 0
M  V30 67 H -0.5026 -0.1164 -8.2329 0
M  V30 68 H 0.0137 -1.1533 -9.5719 0
M  V30 69 H 1.1473 0.0434 -8.9261 0
M  V30 70 H -0.0634 6.3952 3.4435 0
M  V30 71 H -1.0974 6.0819 2.0351 0
M  V30 72 H -1.2255 5.0548 3.5099 0
M  V30 73 H -0.0108 -0.3704 1.4506 0
M  V30 74 H 1.5636 -1.2459 4.8273 0
M  V30 75 H 2.4233 -2.5423 3.991 0
M  V30 76 H 0.3376 -3.3082 5.174 0
M  V30 77 H 0.3635 -3.7058 3.447 0
M  V30 78 H -2.5437 0.3234 2.6519 0
M  V30 79 H -5.0341 -0.4371 3.6947 0
M  V30 80 H -2.3165 -4.1735 5.5808 0
M  V30 81 H -4.7226 -4.0664 6.0173 0
M  V30 82 H -7.0015 -4.042 5.3771 0
M  V30 83 H -8.1274 -2.7756 5.8792 0
M  V30 84 H -6.6916 -3.0676 6.8674 0
M  V30 END ATOM
M  V30 BEGIN BOND
M  V30 1 2 1 2
M  V30 2 1 2 3
M  V30 3 1 2 4
M  V30 4 1 3 5
M  V30 5 2 4 6
M  V30 6 1 4 7
M  V30 7 1 5 8
M  V30 8 1 5 9
M  V30 9 1 6 10
M  V30 10 2 7 11
M  V30 11 1 8 12
M  V30 12 1 8 13
M  V30 13 1 9 14
M  V30 14 1 10 15
M  V30 15 2 10 16
M  V30 16 1 11 17
M  V30 17 1 12 18
M  V30 18 1 13 19
M  V30 19 1 13 20
M  V30 20 1 14 21
M  V30 21 1 15 22
M  V30 22 1 16 23
M  V30 23 1 17 24
M  V30 24 2 19 25
M  V30 25 1 19 26
M  V30 26 1 20 27
M  V30 27 1 21 28
M  V30 28 1 23 29
M  V30 29 1 26 30
M  V30 30 1 27 31
M  V30 31 1 28 32
M  V30 32 1 31 33
M  V30 33 1 32 34
M  V30 34 1 33 35
M  V30 35 2 33 36
M  V30 36 1 35 37
M  V30 37 1 36 38
M  V30 38 1 37 39
M  V30 39 1 38 40
M  V30 40 2 39 41
M  V30 41 2 40 42
M  V30 42 1 41 43
M  V30 43 1 43 44
M  V30 44 1 11 16
M  V30 45 1 14 20
M  V30 46 1 28 31
M  V30 47 1 34 36
M  V30 48 2 37 38
M  V30 49 1 41 42
M  V30 50 1 5 45
M  V30 51 1 6 46
M  V30 52 1 7 47
M  V30 53 1 8 48
M  V30 54 1 9 49
M  V30 55 1 9 50
M  V30 56 1 13 51
M  V30 57 1 14 52
M  V30 58 1 18 53
M  V30 59 1 18 54
M  V30 60 1 18 55
M  V30 61 1 20 56
M  V30 62 1 21 57
M  V30 63 1 21 58
M  V30 64 1 22 59
M  V30 65 1 22 60
M  V30 66 1 22 61
M  V30 67 1 24 62
M  V30 68 1 24 63
M  V30 69 1 24 64
M  V30 70 1 27 65
M  V30 71 1 27 66
M  V30 72 1 29 67
M  V30 73 1 29 68
M  V30 74 1 29 69
M  V30 75 1 30 70
M  V30 76 1 30 71
M  V30 77 1 30 72
M  V30 78 1 31 73
M  V30 79 1 32 74
M  V30 80 1 32 75
M  V30 81 1 34 76
M  V30 82 1 34 77
M  V30 83 1 35 78
M  V30 84 1 39 79
M  V30 85 1 40 80
M  V30 86 1 42 81
M  V30 87 1 44 82
M  V30 88 1 44 83
M  V30 89 1 44 84
M  V30 END BOND
M  V30 BEGIN COLLECTION
M  V30 MDLV30/STEABS ATOMS=(6 5 8 13 14 20 31)
M  V30 END COLLECTION
M  V30 END CTAB
M  END
>  <NO.>
1967

>  <Name>
reserpine

>  <SMILES>
COC(=O)[C@H]1[C@H]2C[C@@H]3c4[nH]c5cc(OC)ccc5c4CCN3C[C@H]2C[C@@H](OC(=O)c2cc(OC)c(OC)c(OC)c2)[C@@H]1OC

>  <logBB>


>  <Class>
1

>  <MW>
608.27

>  <nHBAcc>
10

>  <nHBDon>
1

>  <SLogP>
4.17

>  <TopoPSA>
117.78

>  <MMFF94 Energy>
126.59

$$$$
COC(=O)[C@H]1[C@H]2C[C@@H]3c4[nH]c5ccc(Cl)cc5c4CCN3C[C@H]2C[C@@H](OC(=O)c2cc(OC)c(OC)c(OC)c2)[C@@H]1OC
Actelion Java MolfileCreator 2.0

  0  0  0  0  0  0              0 V3000
M  V30 BEGIN CTAB
M  V30 COUNTS 80 85 0 0 0
M  V30 BEGIN ATOM
M  V30 1 Cl -8.5715 0.0806 -4.7641 0
M  V30 2 C -7.251 -0.3544 -3.7458 0
M  V30 3 C -5.9517 -0.3252 -4.2608 0
M  V30 4 C -7.4978 -0.7281 -2.4267 0
M  V30 5 C -4.879 -0.6843 -3.4222 0
M  V30 6 C -6.447 -1.0853 -1.5757 0
M  V30 7 C -5.1497 -1.0535 -2.1012 0
M  V30 8 C -3.4731 -0.7703 -3.5909 0
M  V30 9 N -3.9432 -1.3443 -1.4985 0
M  V30 10 C -2.9232 -1.189 -2.3992 0
M  V30 11 C -2.603 -0.4878 -4.7587 0
M  V30 12 C -1.4677 -1.4025 -2.1102 0 CFG=2
M  V30 13 C -1.2706 -1.2531 -4.5988 0
M  V30 14 N -0.6131 -1.0646 -3.279 0
M  V30 15 C -1.1842 -2.8052 -1.5676 0
M  V30 16 C 0.6928 -1.7485 -3.284 0
M  V30 17 C 0.2925 -3.0138 -1.1428 0 CFG=1
M  V30 18 C 1.2479 -2.0437 -1.8797 0 CFG=2
M  V30 19 C 0.5755 -3.0817 0.3754 0 CFG=2
M  V30 20 C 1.5699 -0.7388 -1.136 0
M  V30 21 C -0.4861 -3.8784 1.1139 0
M  V30 22 C 0.7685 -1.7208 1.0532 0 CFG=2
M  V30 23 C 1.8852 -0.9346 0.3414 0 CFG=2
M  V30 24 O -1.4778 -3.3962 1.6483 0
M  V30 25 O -0.2098 -5.2107 1.0372 0
M  V30 26 O 1.2025 -1.9775 2.4052 0
M  V30 27 O 1.988 0.3716 0.9537 0
M  V30 28 C -1.1646 -6.0429 1.6966 0
M  V30 29 C 0.5601 -1.1462 3.3645 0
M  V30 30 C 3.206 0.9632 0.8963 0
M  V30 31 O 4.2041 0.5027 0.3663 0
M  V30 32 C 3.1804 2.2801 1.59 0
M  V30 33 C 1.9846 2.8656 2.0344 0
M  V30 34 C 4.4046 2.9385 1.786 0
M  V30 35 C 2.0071 4.1018 2.6822 0
M  V30 36 C 4.446 4.1734 2.4339 0
M  V30 37 O 0.8986 4.7539 3.1575 0
M  V30 38 C 3.2437 4.7357 2.8971 0
M  V30 39 O 5.5872 4.8929 2.6754 0
M  V30 40 C -0.3718 4.279 2.7328 0
M  V30 41 O 3.2667 5.9748 3.4998 0
M  V30 42 C 6.7917 4.4304 2.0787 0
M  V30 43 C 3.4312 5.825 4.9089 0
M  V30 44 H -5.769 -0.0312 -5.2891 0
M  V30 45 H -8.5165 -0.7432 -2.0466 0
M  V30 46 H -6.6372 -1.3743 -0.5471 0
M  V30 47 H -3.8403 -1.6342 -0.5349 0
M  V30 48 H -2.4088 0.5899 -4.8145 0
M  V30 49 H -3.0916 -0.791 -5.691 0
M  V30 50 H -1.2314 -0.6855 -1.3145 0
M  V30 51 H -0.5944 -0.9149 -5.3941 0
M  V30 52 H -1.4565 -2.3233 -4.7673 0
M  V30 53 H -1.4199 -3.5371 -2.355 0
M  V30 54 H -1.8782 -3.0455 -0.7592 0
M  V30 55 H 0.6238 -2.7057 -3.8196 0
M  V30 56 H 1.4099 -1.1315 -3.8393 0
M  V30 57 H 0.5307 -4.0228 -1.5158 0
M  V30 58 H 2.204 -2.5726 -2.0027 0
M  V30 59 H 1.518 -3.6333 0.5187 0
M  V30 60 H 2.4247 -0.2552 -1.6275 0
M  V30 61 H 0.7654 -0.0012 -1.2252 0
M  V30 62 H -0.1675 -1.1462 1.0574 0
M  V30 63 H 2.8317 -1.4766 0.4701 0
M  V30 64 H -0.8352 -7.0808 1.5976 0
M  V30 65 H -1.2187 -5.7966 2.7617 0
M  V30 66 H -2.1472 -5.9443 1.2246 0
M  V30 67 H 0.7556 -0.0898 3.165 0
M  V30 68 H 0.9596 -1.3925 4.3518 0
M  V30 69 H -0.5177 -1.3335 3.3705 0
M  V30 70 H 1.0476 2.346 1.8686 0
M  V30 71 H 5.3116 2.461 1.4266 0
M  V30 72 H -0.4414 4.246 1.6404 0
M  V30 73 H -1.1293 4.9816 3.0938 0
M  V30 74 H -0.5897 3.3006 3.1729 0
M  V30 75 H 7.0972 3.4702 2.5067 0
M  V30 76 H 7.5768 5.1589 2.3032 0
M  V30 77 H 6.6974 4.3673 0.9895 0
M  V30 78 H 2.5996 5.2653 5.3511 0
M  V30 79 H 3.438 6.825 5.353 0
M  V30 80 H 4.3839 5.3418 5.1514 0
M  V30 END ATOM
M  V30 BEGIN BOND
M  V30 1 1 1 2
M  V30 2 2 2 3
M  V30 3 1 2 4
M  V30 4 1 3 5
M  V30 5 2 4 6
M  V30 6 2 5 7
M  V30 7 1 5 8
M  V30 8 1 7 9
M  V30 9 2 8 10
M  V30 10 1 8 11
M  V30 11 1 10 12
M  V30 12 1 11 13
M  V30 13 1 12 14
M  V30 14 1 12 15
M  V30 15 1 14 16
M  V30 16 1 15 17
M  V30 17 1 16 18
M  V30 18 1 17 19
M  V30 19 1 18 20
M  V30 20 1 19 21
M  V30 21 1 19 22
M  V30 22 1 20 23
M  V30 23 2 21 24
M  V30 24 1 21 25
M  V30 25 1 22 26
M  V30 26 1 23 27
M  V30 27 1 25 28
M  V30 28 1 26 29
M  V30 29 1 27 30
M  V30 30 2 30 31
M  V30 31 1 30 32
M  V30 32 2 32 33
M  V30 33 1 32 34
M  V30 34 1 33 35
M  V30 35 2 34 36
M  V30 36 1 35 37
M  V30 37 2 35 38
M  V30 38 1 36 39
M  V30 39 1 37 40
M  V30 40 1 38 41
M  V30 41 1 39 42
M  V30 42 1 41 43
M  V30 43 1 6 7
M  V30 44 1 9 10
M  V30 45 1 13 14
M  V30 46 1 17 18
M  V30 47 1 22 23
M  V30 48 1 36 38
M  V30 49 1 3 44
M  V30 50 1 4 45
M  V30 51 1 6 46
M  V30 52 1 9 47
M  V30 53 1 11 48
M  V30 54 1 11 49
M  V30 55 1 12 50
M  V30 56 1 13 51
M  V30 57 1 13 52
M  V30 58 1 15 53
M  V30 59 1 15 54
M  V30 60 1 16 55
M  V30 61 1 16 56
M  V30 62 1 17 57
M  V30 63 1 18 58
M  V30 64 1 19 59
M  V30 65 1 20 60
M  V30 66 1 20 61
M  V30 67 1 22 62
M  V30 68 1 23 63
M  V30 69 1 28 64
M  V30 70 1 28 65
M  V30 71 1 28 66
M  V30 72 1 29 67
M  V30 73 1 29 68
M  V30 74 1 29 69
M  V30 75 1 33 70
M  V30 76 1 34 71
M  V30 77 1 40 72
M  V30 78 1 40 73
M  V30 79 1 40 74
M  V30 80 1 42 75
M  V30 81 1 42 76
M  V30 82 1 42 77
M  V30 83 1 43 78
M  V30 84 1 43 79
M  V30 85 1 43 80
M  V30 END BOND
M  V30 BEGIN COLLECTION
M  V30 MDLV30/STEABS ATOMS=(6 12 17 18 19 22 23)
M  V30 END COLLECTION
M  V30 END CTAB
M  END
>  <NO.>
1968

>  <Name>
chloroserpidine

>  <SMILES>
COC(=O)[C@H]1[C@H]2C[C@@H]3c4[nH]c5ccc(Cl)cc5c4CCN3C[C@H]2C[C@@H](OC(=O)c2cc(OC)c(OC)c(OC)c2)[C@@H]1OC

>  <logBB>


>  <Class>
1

>  <MW>
612.22

>  <nHBAcc>
9

>  <nHBDon>
1

>  <SLogP>
4.82

>  <TopoPSA>
108.55

>  <MMFF94 Energy>
118.53

$$$$
COC(=O)[C@H]1[C@H]2C[C@@H]3c4[nH]c5ccccc5c4CCN3C[C@H]2C[C@@H](OC(=O)c2cc(OC)c(OC)c(OC)c2)[C@@H]1OC
Actelion Java MolfileCreator 2.0

  0  0  0  0  0  0              0 V3000
M  V30 BEGIN CTAB
M  V30 COUNTS 80 85 0 0 0
M  V30 BEGIN ATOM
M  V30 1 O -2.2454 3.6106 0.9618 0
M  V30 2 C -2.2647 2.7218 0.1264 0
M  V30 3 O -1.818 1.4535 0.2971 0
M  V30 4 C -2.8156 2.8982 -1.2441 0
M  V30 5 C -1.282 1.1366 1.6026 0 CFG=1
M  V30 6 C -2.5896 1.9591 -2.2625 0
M  V30 7 C -3.5731 4.0516 -1.4998 0
M  V30 8 C -1.4933 -0.3687 1.8717 0 CFG=2
M  V30 9 C 0.1972 1.5097 1.5975 0
M  V30 10 C -3.1232 2.1636 -3.5356 0
M  V30 11 C -4.1173 4.2708 -2.7652 0
M  V30 12 O -2.9075 -0.6112 2.0145 0
M  V30 13 C -0.835 -0.7474 3.2044 0 CFG=1
M  V30 14 C 0.9665 1.0325 2.8375 0 CFG=1
M  V30 15 O -2.966 1.3111 -4.5973 0
M  V30 16 C -3.8731 3.3284 -3.7796 0
M  V30 17 O -4.877 5.3569 -3.114 0
M  V30 18 C -3.5208 -1.1159 0.8353 0
M  V30 19 C -1.1069 -2.1795 3.6366 0
M  V30 20 C 0.6712 -0.4173 3.2804 0 CFG=2
M  V30 21 C 2.4826 1.2042 2.6551 0
M  V30 22 C -2.2668 0.0953 -4.3712 0
M  V30 23 O -4.4434 3.5108 -5.0208 0
M  V30 24 C -5.2341 6.2671 -2.0822 0
M  V30 25 O -1.0831 -2.5384 4.8085 0
M  V30 26 O -1.2852 -3.0189 2.5792 0
M  V30 27 C 1.633 -1.4413 2.6255 0
M  V30 28 N 3.0647 0.357 1.6005 0
M  V30 29 C -3.559 4.2563 -5.8557 0
M  V30 30 C -1.5448 -4.3731 2.9525 0
M  V30 31 C 2.3382 -0.918 1.37 0 CFG=1
M  V30 32 C 4.5222 0.2 1.8467 0
M  V30 33 C 3.2197 -1.9561 0.7403 0
M  V30 34 C 5.2738 -0.5612 0.7331 0
M  V30 35 N 2.8209 -3.201 0.3325 0
M  V30 36 C 4.557 -1.8245 0.4345 0
M  V30 37 C 3.8878 -3.8835 -0.2125 0
M  V30 38 C 4.9958 -3.0339 -0.1631 0
M  V30 39 C 3.9524 -5.1765 -0.7454 0
M  V30 40 C 6.225 -3.4943 -0.6727 0
M  V30 41 C 5.1848 -5.6116 -1.2421 0
M  V30 42 C 6.3056 -4.7848 -1.2082 0
M  V30 43 H -1.8229 1.7056 2.3707 0
M  V30 44 H -1.9918 1.0809 -2.0463 0
M  V30 45 H -3.7249 4.7601 -0.6905 0
M  V30 46 H -1.0887 -0.9689 1.0462 0
M  V30 47 H 0.6446 1.1477 0.6666 0
M  V30 48 H 0.2923 2.6015 1.5242 0
M  V30 49 H -1.3453 -0.1455 3.9738 0
M  V30 50 H 0.6546 1.6874 3.6641 0
M  V30 51 H -3.0757 -2.0744 0.5529 0
M  V30 52 H -4.5814 -1.2776 1.0462 0
M  V30 53 H -3.4394 -0.4077 0.0083 0
M  V30 54 H 0.9192 -0.4677 4.3529 0
M  V30 55 H 2.955 0.9892 3.624 0
M  V30 56 H 2.7076 2.2531 2.4256 0
M  V30 57 H -1.2234 0.2864 -4.1004 0
M  V30 58 H -2.269 -0.4709 -5.3074 0
M  V30 59 H -2.7679 -0.5144 -3.6121 0
M  V30 60 H -5.8002 5.7667 -1.2896 0
M  V30 61 H -5.8817 7.0323 -2.521 0
M  V30 62 H -4.3495 6.7714 -1.6801 0
M  V30 63 H 2.3983 -1.7126 3.3679 0
M  V30 64 H 1.1213 -2.3799 2.3983 0
M  V30 65 H -3.3727 5.2564 -5.4494 0
M  V30 66 H -4.0398 4.3734 -6.8314 0
M  V30 67 H -2.6119 3.7272 -6.0076 0
M  V30 68 H -1.7178 -4.9478 2.0386 0
M  V30 69 H -0.6795 -4.7981 3.4705 0
M  V30 70 H -2.4424 -4.4363 3.5757 0
M  V30 71 H 1.5644 -0.7197 0.6189 0
M  V30 72 H 4.9845 1.1906 1.943 0
M  V30 73 H 4.6791 -0.3229 2.8006 0
M  V30 74 H 5.3182 0.0539 -0.1733 0
M  V30 75 H 6.3013 -0.7625 1.0546 0
M  V30 76 H 1.8879 -3.5787 0.4161 0
M  V30 77 H 3.0821 -5.8232 -0.7757 0
M  V30 78 H 7.103 -2.8563 -0.6512 0
M  V30 79 H 5.2686 -6.611 -1.6626 0
M  V30 80 H 7.2536 -5.1431 -1.6013 0
M  V30 END ATOM
M  V30 BEGIN BOND
M  V30 1 2 1 2
M  V30 2 1 2 3
M  V30 3 1 2 4
M  V30 4 1 3 5
M  V30 5 2 4 6
M  V30 6 1 4 7
M  V30 7 1 5 8
M  V30 8 1 5 9
M  V30 9 1 6 10
M  V30 10 2 7 11
M  V30 11 1 8 12
M  V30 12 1 8 13
M  V30 13 1 9 14
M  V30 14 1 10 15
M  V30 15 2 10 16
M  V30 16 1 11 17
M  V30 17 1 12 18
M  V30 18 1 13 19
M  V30 19 1 13 20
M  V30 20 1 14 21
M  V30 21 1 15 22
M  V30 22 1 16 23
M  V30 23 1 17 24
M  V30 24 2 19 25
M  V30 25 1 19 26
M  V30 26 1 20 27
M  V30 27 1 21 28
M  V30 28 1 23 29
M  V30 29 1 26 30
M  V30 30 1 27 31
M  V30 31 1 28 32
M  V30 32 1 31 33
M  V30 33 1 32 34
M  V30 34 1 33 35
M  V30 35 2 33 36
M  V30 36 1 35 37
M  V30 37 1 36 38
M  V30 38 1 37 39
M  V30 39 1 38 40
M  V30 40 2 39 41
M  V30 41 2 40 42
M  V30 42 1 11 16
M  V30 43 1 14 20
M  V30 44 1 28 31
M  V30 45 1 34 36
M  V30 46 2 37 38
M  V30 47 1 41 42
M  V30 48 1 5 43
M  V30 49 1 6 44
M  V30 50 1 7 45
M  V30 51 1 8 46
M  V30 52 1 9 47
M  V30 53 1 9 48
M  V30 54 1 13 49
M  V30 55 1 14 50
M  V30 56 1 18 51
M  V30 57 1 18 52
M  V30 58 1 18 53
M  V30 59 1 20 54
M  V30 60 1 21 55
M  V30 61 1 21 56
M  V30 62 1 22 57
M  V30 63 1 22 58
M  V30 64 1 22 59
M  V30 65 1 24 60
M  V30 66 1 24 61
M  V30 67 1 24 62
M  V30 68 1 27 63
M  V30 69 1 27 64
M  V30 70 1 29 65
M  V30 71 1 29 66
M  V30 72 1 29 67
M  V30 73 1 30 68
M  V30 74 1 30 69
M  V30 75 1 30 70
M  V30 76 1 31 71
M  V30 77 1 32 72
M  V30 78 1 32 73
M  V30 79 1 34 74
M  V30 80 1 34 75
M  V30 81 1 35 76
M  V30 82 1 39 77
M  V30 83 1 40 78
M  V30 84 1 41 79
M  V30 85 1 42 80
M  V30 END BOND
M  V30 BEGIN COLLECTION
M  V30 MDLV30/STEABS ATOMS=(6 5 8 13 14 20 31)
M  V30 END COLLECTION
M  V30 END CTAB
M  END
>  <NO.>
1969

>  <Name>
deserpidine

>  <SMILES>
COC(=O)[C@H]1[C@H]2C[C@@H]3c4[nH]c5ccccc5c4CCN3C[C@H]2C[C@@H](OC(=O)c2cc(OC)c(OC)c(OC)c2)[C@@H]1OC

>  <logBB>


>  <Class>
1

>  <MW>
578.26

>  <nHBAcc>
9

>  <nHBDon>
1

>  <SLogP>
4.16

>  <TopoPSA>
108.55

>  <MMFF94 Energy>
125.33

$$$$
COC(=O)c1ccc(C(=O)OC)cc1
Actelion Java MolfileCreator 2.0

  0  0  0  0  0  0              0 V3000
M  V30 BEGIN CTAB
M  V30 COUNTS 24 24 0 0 0
M  V30 BEGIN ATOM
M  V30 1 O 0.4737 2.4496 -2.9243 0
M  V30 2 C 0.0161 2.3053 -1.8016 0
M  V30 3 O -0.6294 3.2543 -1.0788 0
M  V30 4 C 0.1013 1.03 -1.0376 0
M  V30 5 C -0.7504 4.5102 -1.749 0
M  V30 6 C 0.741 -0.0613 -1.6407 0
M  V30 7 C -0.4313 0.8864 0.2511 0
M  V30 8 C 0.8471 -1.2811 -0.9644 0
M  V30 9 C -0.3251 -0.3349 0.9282 0
M  V30 10 C 0.3149 -1.4258 0.324 0
M  V30 11 C 0.4553 -2.7459 0.9988 0
M  V30 12 O 1.009 -3.707 0.4891 0
M  V30 13 O -0.1102 -2.7162 2.2312 0
M  V30 14 C -0.0145 -3.9517 2.9421 0
M  V30 15 H -1.2815 5.1983 -1.0853 0
M  V30 16 H 0.2384 4.9281 -1.9617 0
M  V30 17 H -1.3318 4.3991 -2.6697 0
M  V30 18 H 1.1608 0.0321 -2.6413 0
M  V30 19 H -0.9331 1.7164 0.7438 0
M  V30 20 H 1.3477 -2.118 -1.4493 0
M  V30 21 H -0.7475 -0.4183 1.9273 0
M  V30 22 H -0.4971 -3.8208 3.9147 0
M  V30 23 H -0.5364 -4.747 2.4007 0
M  V30 24 H 1.0339 -4.218 3.1087 0
M  V30 END ATOM
M  V30 BEGIN BOND
M  V30 1 2 1 2
M  V30 2 1 2 3
M  V30 3 1 2 4
M  V30 4 1 3 5
M  V30 5 2 4 6
M  V30 6 1 4 7
M  V30 7 1 6 8
M  V30 8 2 7 9
M  V30 9 2 8 10
M  V30 10 1 10 11
M  V30 11 2 11 12
M  V30 12 1 11 13
M  V30 13 1 13 14
M  V30 14 1 9 10
M  V30 15 1 5 15
M  V30 16 1 5 16
M  V30 17 1 5 17
M  V30 18 1 6 18
M  V30 19 1 7 19
M  V30 20 1 8 20
M  V30 21 1 9 21
M  V30 22 1 14 22
M  V30 23 1 14 23
M  V30 24 1 14 24
M  V30 END BOND
M  V30 END CTAB
M  END
>  <NO.>
1970

>  <Name>
dimethyl terephthalate

>  <SMILES>
COC(=O)c1ccc(C(=O)OC)cc1

>  <logBB>


>  <Class>
1

>  <MW>
194.06

>  <nHBAcc>
4

>  <nHBDon>
0

>  <SLogP>
1.26

>  <TopoPSA>
52.6

>  <MMFF94 Energy>
44.255

$$$$
COC(=O)c1cncn1C(C)c1ccccc1
Actelion Java MolfileCreator 2.0

  0  0  0  0  0  0              0 V3000
M  V30 BEGIN CTAB
M  V30 COUNTS 31 32 0 0 0
M  V30 BEGIN ATOM
M  V30 1 O -0.079 -0.7114 2.7689 0
M  V30 2 C 0.5748 0.3177 2.6632 0
M  V30 3 O 1.339 0.8491 3.6588 0
M  V30 4 C 0.6506 1.1487 1.4894 0
M  V30 5 C 1.3247 0.0969 4.8722 0
M  V30 6 N 0.0664 0.914 0.2553 0
M  V30 7 C 1.2962 2.362 1.3215 0
M  V30 8 C 0.3512 1.9906 -0.5453 0
M  V30 9 C -0.76 -0.2392 -0.1313 0 CFG=2
M  V30 10 N 1.1001 2.8742 0.0696 0
M  V30 11 C -0.4656 -0.6858 -1.5616 0
M  V30 12 C -2.2337 0.0415 0.1804 0
M  V30 13 C -1.335 -0.436 -2.6357 0
M  V30 14 C 0.7385 -1.3654 -1.8257 0
M  V30 15 C -1.0119 -0.8562 -3.9287 0
M  V30 16 C 1.0589 -1.7835 -3.1183 0
M  V30 17 C 0.1829 -1.5293 -4.1694 0
M  V30 18 H 1.9658 0.6086 5.5954 0
M  V30 19 H 0.3109 0.0487 5.2818 0
M  V30 20 H 1.7248 -0.9079 4.7053 0
M  V30 21 H 1.8841 2.901 2.0549 0
M  V30 22 H -0.0038 2.0793 -1.5645 0
M  V30 23 H -0.4506 -1.0799 0.4985 0
M  V30 24 H -2.6054 0.9215 -0.3567 0
M  V30 25 H -2.8634 -0.8139 -0.0868 0
M  V30 26 H -2.3752 0.2378 1.2493 0
M  V30 27 H -2.2742 0.0923 -2.4921 0
M  V30 28 H 1.4419 -1.5712 -1.0201 0
M  V30 29 H -1.6945 -0.655 -4.7509 0
M  V30 30 H 1.9943 -2.3053 -3.3041 0
M  V30 31 H 0.4324 -1.8532 -5.1764 0
M  V30 END ATOM
M  V30 BEGIN BOND
M  V30 1 2 1 2
M  V30 2 1 2 3
M  V30 3 1 2 4
M  V30 4 1 3 5
M  V30 5 1 4 6
M  V30 6 2 4 7
M  V30 7 1 6 8
M  V30 8 1 6 9
M  V30 9 1 7 10
M  V30 10 1 9 11
M  V30 11 1 9 12
M  V30 12 2 11 13
M  V30 13 1 11 14
M  V30 14 1 13 15
M  V30 15 2 14 16
M  V30 16 2 15 17
M  V30 17 2 8 10
M  V30 18 1 16 17
M  V30 19 1 5 18
M  V30 20 1 5 19
M  V30 21 1 5 20
M  V30 22 1 7 21
M  V30 23 1 8 22
M  V30 24 1 9 23
M  V30 25 1 12 24
M  V30 26 1 12 25
M  V30 27 1 12 26
M  V30 28 1 13 27
M  V30 29 1 14 28
M  V30 30 1 15 29
M  V30 31 1 16 30
M  V30 32 1 17 31
M  V30 END BOND
M  V30 BEGIN COLLECTION
M  V30 MDLV30/STERAC1 ATOMS=(1 9)
M  V30 END COLLECTION
M  V30 END CTAB
M  END
>  <NO.>
1971

>  <Name>
metomidate

>  <SMILES>
COC(=O)c1cncn1C(C)c1ccccc1

>  <logBB>


>  <Class>
1

>  <MW>
230.11

>  <nHBAcc>
3

>  <nHBDon>
0

>  <SLogP>
2.28

>  <TopoPSA>
44.12

>  <MMFF94 Energy>
15.566

$$$$
COC(C(=O)N[C@@H]1C(=O)N2[C@@H](C(=O)O)C(C)(C)S[C@H]12)c1ccc(Cl)c(Cl)c1
Actelion Java MolfileCreator 2.0

  0  0  0  0  0  0              0 V3000
M  V30 BEGIN CTAB
M  V30 COUNTS 45 47 0 0 0
M  V30 BEGIN ATOM
M  V30 1 Cl 5.4866 -2.9068 -3.1562 0
M  V30 2 C 4.9294 -2.3179 -1.6307 0
M  V30 3 C 5.7627 -1.6327 -0.7417 0
M  V30 4 C 3.5907 -2.5437 -1.2936 0
M  V30 5 Cl 7.4249 -1.312 -1.0864 0
M  V30 6 C 5.254 -1.1816 0.48 0
M  V30 7 C 3.0681 -2.0877 -0.0698 0
M  V30 8 C 3.9166 -1.4086 0.8163 0
M  V30 9 C 1.6077 -2.3351 0.2838 0
M  V30 10 O 1.4372 -3.747 0.324 0
M  V30 11 C 0.676 -1.567 -0.698 0
M  V30 12 C 0.2296 -4.1384 0.9636 0
M  V30 13 O -0.0708 -2.1125 -1.5084 0
M  V30 14 N 0.7087 -0.1911 -0.5659 0
M  V30 15 C -0.1989 0.6704 -1.3689 0 CFG=2
M  V30 16 C -0.2423 2.1666 -0.9648 0
M  V30 17 C -1.7029 0.6752 -0.9847 0 CFG=2
M  V30 18 O 0.566 3.0299 -0.7156 0
M  V30 19 N -1.587 2.1187 -0.7826 0
M  V30 20 S -2.194 0.1004 0.6948 0
M  V30 21 C -2.2785 2.7644 0.3229 0 CFG=2
M  V30 22 C -3.1488 1.6791 0.9954 0
M  V30 23 C -3.062 4.0079 -0.0824 0
M  V30 24 C -4.5413 1.5073 0.3723 0
M  V30 25 C -3.2661 1.8939 2.5057 0
M  V30 26 O -3.6942 4.7228 0.6813 0
M  V30 27 O -3.0438 4.2844 -1.4011 0
M  V30 28 H 2.9452 -3.0897 -1.9818 0
M  V30 29 H 5.8995 -0.6549 1.1797 0
M  V30 30 H 3.5509 -1.0593 1.7802 0
M  V30 31 H 1.4169 -1.9322 1.2882 0
M  V30 32 H 0.1829 -5.2308 0.964 0
M  V30 33 H -0.6451 -3.7573 0.4305 0
M  V30 34 H 0.2165 -3.7923 2.0018 0
M  V30 35 H 1.3688 0.235 0.0757 0
M  V30 36 H -0.0122 0.5444 -2.4426 0
M  V30 37 H -2.3954 0.4101 -1.7888 0
M  V30 38 H -1.5014 3.1183 1.0148 0
M  V30 39 H -5.0604 0.6337 0.7844 0
M  V30 40 H -4.4982 1.39 -0.716 0
M  V30 41 H -5.176 2.376 0.5803 0
M  V30 42 H -3.8164 1.0777 2.9881 0
M  V30 43 H -2.283 1.9657 2.9852 0
M  V30 44 H -3.8041 2.8226 2.7261 0
M  V30 45 H -3.5554 5.1156 -1.491 0
M  V30 END ATOM
M  V30 BEGIN BOND
M  V30 1 1 1 2
M  V30 2 2 2 3
M  V30 3 1 2 4
M  V30 4 1 3 5
M  V30 5 1 3 6
M  V30 6 2 4 7
M  V30 7 2 6 8
M  V30 8 1 7 9
M  V30 9 1 9 10
M  V30 10 1 9 11
M  V30 11 1 10 12
M  V30 12 2 11 13
M  V30 13 1 11 14
M  V30 14 1 14 15
M  V30 15 1 15 16
M  V30 16 1 15 17
M  V30 17 2 16 18
M  V30 18 1 16 19
M  V30 19 1 17 20
M  V30 20 1 19 21
M  V30 21 1 20 22
M  V30 22 1 21 23
M  V30 23 1 22 24
M  V30 24 1 22 25
M  V30 25 2 23 26
M  V30 26 1 23 27
M  V30 27 1 7 8
M  V30 28 1 17 19
M  V30 29 1 21 22
M  V30 30 1 4 28
M  V30 31 1 6 29
M  V30 32 1 8 30
M  V30 33 1 9 31
M  V30 34 1 12 32
M  V30 35 1 12 33
M  V30 36 1 12 34
M  V30 37 1 14 35
M  V30 38 1 15 36
M  V30 39 1 17 37
M  V30 40 1 21 38
M  V30 41 1 24 39
M  V30 42 1 24 40
M  V30 43 1 24 41
M  V30 44 1 25 42
M  V30 45 1 25 43
M  V30 46 1 25 44
M  V30 47 1 27 45
M  V30 END BOND
M  V30 BEGIN COLLECTION
M  V30 MDLV30/STEABS ATOMS=(3 15 17 21)
M  V30 END COLLECTION
M  V30 END CTAB
M  END
>  <NO.>
1972

>  <Name>
clometocillin

>  <SMILES>
COC(C(=O)N[C@@H]1C(=O)N2[C@@H](C(=O)O)C(C)(C)S[C@H]12)c1ccc(Cl)c(Cl)c1

>  <logBB>


>  <Class>
-1

>  <MW>
432.03

>  <nHBAcc>
5

>  <nHBDon>
2

>  <SLogP>
2.31

>  <TopoPSA>
95.94

>  <MMFF94 Energy>
99.458

$$$$
COC(F)(F)C(F)Br
Actelion Java MolfileCreator 2.0

  0  0  0  0  0  0              0 V3000
M  V30 BEGIN CTAB
M  V30 COUNTS 12 11 0 0 0
M  V30 BEGIN ATOM
M  V30 1 Br -0.2519 0.0 -3.1111 0
M  V30 2 C -0.7233 0.2253 -1.2294 0 CFG=2
M  V30 3 F -1.6683 1.2001 -1.1256 0
M  V30 4 C 0.5096 0.5515 -0.3814 0
M  V30 5 F 1.1023 1.6988 -0.7984 0
M  V30 6 F 1.4462 -0.428 -0.4935 0
M  V30 7 O 0.2122 0.7282 1.0034 0
M  V30 8 C 0.186 -0.4896 1.7279 0
M  V30 9 H -1.1827 -0.7175 -0.9218 0
M  V30 10 H -0.524 -1.1964 1.2896 0
M  V30 11 H 1.1846 -0.9345 1.7716 0
M  V30 12 H -0.1331 -0.2716 2.751 0
M  V30 END ATOM
M  V30 BEGIN BOND
M  V30 1 1 1 2
M  V30 2 1 2 3
M  V30 3 1 2 4
M  V30 4 1 4 5
M  V30 5 1 4 6
M  V30 6 1 4 7
M  V30 7 1 7 8
M  V30 8 1 2 9
M  V30 9 1 8 10
M  V30 10 1 8 11
M  V30 11 1 8 12
M  V30 END BOND
M  V30 BEGIN COLLECTION
M  V30 MDLV30/STERAC1 ATOMS=(1 2)
M  V30 END COLLECTION
M  V30 END CTAB
M  END
>  <NO.>
1973

>  <Name>
roflurane

>  <SMILES>
COC(F)(F)C(F)Br

>  <logBB>


>  <Class>
1

>  <MW>
191.94

>  <nHBAcc>
1

>  <nHBDon>
0

>  <SLogP>
1.92

>  <TopoPSA>
9.23

>  <MMFF94 Energy>
47.512

$$$$
COC(OC)C(=O)[C@@]12OC(C)(C)O[C@@H]1CC1C3C[C@H](F)C4=CC(=O)C=CC4(C)[C@@]3(F)C(O)CC12C
Actelion Java MolfileCreator 2.0

  0  0  0  0  0  0              0 V3000
M  V30 BEGIN CTAB
M  V30 COUNTS 69 73 0 0 0
M  V30 BEGIN ATOM
M  V30 1 F 1.379 2.2721 -0.9733 0
M  V30 2 C 1.5333 1.9959 0.3649 0 CFG=2
M  V30 3 C 2.3826 3.1977 0.9762 0
M  V30 4 C 2.1784 0.5788 0.4761 0
M  V30 5 C 0.0939 1.9266 0.9723 0
M  V30 6 C 1.5321 4.4859 0.9387 0
M  V30 7 C 3.6991 3.4199 0.2295 0
M  V30 8 C 2.7803 2.9194 2.4451 0
M  V30 9 O 3.4741 0.5155 -0.1192 0
M  V30 10 C 1.3011 -0.4917 -0.1919 0
M  V30 11 C -0.7946 0.7926 0.403 0
M  V30 12 C -0.6314 3.276 0.8679 0
M  V30 13 C 1.9334 5.6349 0.3633 0
M  V30 14 C 0.1565 4.3874 1.5412 0 CFG=2
M  V30 15 C 4.0918 4.5648 -0.3444 0
M  V30 16 C -0.1272 -0.6006 0.3972 0
M  V30 17 C -1.2864 0.9747 -1.0445 0
M  V30 18 C 3.2434 5.7664 -0.2994 0
M  V30 19 F -0.5459 5.5456 1.3858 0
M  V30 20 C -1.0959 -1.4321 -0.5212 0 CFG=1
M  V30 21 C -0.0241 -1.1844 1.822 0
M  V30 22 C -1.6241 -0.4285 -1.5496 0 CFG=2
M  V30 23 O 3.6117 6.8274 -0.7863 0
M  V30 24 O -0.4012 -2.4291 -1.2715 0
M  V30 25 C -2.2995 -2.0241 0.2517 0
M  V30 26 O -0.9192 -0.7187 -2.7568 0
M  V30 27 C -0.565 -2.0961 -2.6576 0
M  V30 28 O -3.221 -1.2934 0.6327 0
M  V30 29 C -2.2289 -3.5394 0.5947 0
M  V30 30 C 0.7488 -2.3367 -3.3895 0
M  V30 31 C -1.6698 -2.9523 -3.2774 0
M  V30 32 O -2.9527 -3.9274 1.7589 0
M  V30 33 O -2.5841 -4.3188 -0.5429 0
M  V30 34 C -4.3619 -3.9789 1.577 0
M  V30 35 C -2.0184 -5.6219 -0.4927 0
M  V30 36 H 2.3232 0.3263 1.5302 0
M  V30 37 H 0.2034 1.7093 2.0435 0
M  V30 38 H 4.3945 2.5869 0.1746 0
M  V30 39 H 3.4866 2.0847 2.5229 0
M  V30 40 H 3.2695 3.7923 2.8969 0
M  V30 41 H 1.9207 2.6739 3.0759 0
M  V30 42 H 3.729 -0.418 -0.2175 0
M  V30 43 H 1.8037 -1.4662 -0.1296 0
M  V30 44 H 1.2652 -0.2575 -1.2613 0
M  V30 45 H -1.6905 0.7491 1.0394 0
M  V30 46 H -1.6223 3.2126 1.3345 0
M  V30 47 H -0.8104 3.5446 -0.1808 0
M  V30 48 H 1.3118 6.524 0.3355 0
M  V30 49 H 0.2279 4.2116 2.6192 0
M  V30 50 H 5.0427 4.6633 -0.8534 0
M  V30 51 H -2.1792 1.6103 -1.0588 0
M  V30 52 H -0.5462 1.4492 -1.6932 0
M  V30 53 H 0.3933 -2.1965 1.7986 0
M  V30 54 H 0.6153 -0.5833 2.4743 0
M  V30 55 H -0.9976 -1.2302 2.3207 0
M  V30 56 H -2.6967 -0.5198 -1.755 0
M  V30 57 H -1.1773 -3.725 0.844 0
M  V30 58 H 0.668 -2.0704 -4.4487 0
M  V30 59 H 1.5519 -1.7245 -2.9676 0
M  V30 60 H 1.0645 -3.3818 -3.3042 0
M  V30 61 H -1.4396 -4.0189 -3.1902 0
M  V30 62 H -1.814 -2.703 -4.3342 0
M  V30 63 H -2.6311 -2.7848 -2.7805 0
M  V30 64 H -4.6339 -4.7642 0.8659 0
M  V30 65 H -4.7719 -3.0216 1.2501 0
M  V30 66 H -4.8151 -4.2289 2.5406 0
M  V30 67 H -2.3586 -6.1758 -1.3717 0
M  V30 68 H -2.3457 -6.1568 0.4036 0
M  V30 69 H -0.9259 -5.5656 -0.5217 0
M  V30 END ATOM
M  V30 BEGIN BOND
M  V30 1 1 1 2
M  V30 2 1 2 3
M  V30 3 1 2 4
M  V30 4 1 2 5
M  V30 5 1 3 6
M  V30 6 1 3 7
M  V30 7 1 3 8
M  V30 8 1 4 9
M  V30 9 1 4 10
M  V30 10 1 5 11
M  V30 11 1 5 12
M  V30 12 2 6 13
M  V30 13 1 6 14
M  V30 14 2 7 15
M  V30 15 1 10 16
M  V30 16 1 11 17
M  V30 17 1 13 18
M  V30 18 1 14 19
M  V30 19 1 16 20
M  V30 20 1 16 21
M  V30 21 1 17 22
M  V30 22 2 18 23
M  V30 23 1 20 24
M  V30 24 1 20 25
M  V30 25 1 22 26
M  V30 26 1 24 27
M  V30 27 2 25 28
M  V30 28 1 25 29
M  V30 29 1 27 30
M  V30 30 1 27 31
M  V30 31 1 29 32
M  V30 32 1 29 33
M  V30 33 1 32 34
M  V30 34 1 33 35
M  V30 35 1 11 16
M  V30 36 1 12 14
M  V30 37 1 15 18
M  V30 38 1 20 22
M  V30 39 1 26 27
M  V30 40 1 4 36
M  V30 41 1 5 37
M  V30 42 1 7 38
M  V30 43 1 8 39
M  V30 44 1 8 40
M  V30 45 1 8 41
M  V30 46 1 9 42
M  V30 47 1 10 43
M  V30 48 1 10 44
M  V30 49 1 11 45
M  V30 50 1 12 46
M  V30 51 1 12 47
M  V30 52 1 13 48
M  V30 53 1 14 49
M  V30 54 1 15 50
M  V30 55 1 17 51
M  V30 56 1 17 52
M  V30 57 1 21 53
M  V30 58 1 21 54
M  V30 59 1 21 55
M  V30 60 1 22 56
M  V30 61 1 29 57
M  V30 62 1 30 58
M  V30 63 1 30 59
M  V30 64 1 30 60
M  V30 65 1 31 61
M  V30 66 1 31 62
M  V30 67 1 31 63
M  V30 68 1 34 64
M  V30 69 1 34 65
M  V30 70 1 34 66
M  V30 71 1 35 67
M  V30 72 1 35 68
M  V30 73 1 35 69
M  V30 END BOND
M  V30 BEGIN COLLECTION
M  V30 MDLV30/STEABS ATOMS=(4 2 14 20 22)
M  V30 END COLLECTION
M  V30 END CTAB
M  END
>  <NO.>
1974

>  <Name>
flumoxonide

>  <SMILES>
COC(OC)C(=O)[C@@]12OC(C)(C)O[C@@H]1CC1C3C[C@H](F)C4=CC(=O)C=CC4(C)[C@@]3(F)C(O)CC12C

>  <logBB>


>  <Class>
1

>  <MW>
496.23

>  <nHBAcc>
7

>  <nHBDon>
1

>  <SLogP>
2.99

>  <TopoPSA>
91.29

>  <MMFF94 Energy>
178.39

$$$$
COC1(F)C(F)(F)C1(F)Cl
Actelion Java MolfileCreator 2.0

  0  0  0  0  0  0              0 V3000
M  V30 BEGIN CTAB
M  V30 COUNTS 13 13 0 0 0
M  V30 BEGIN ATOM
M  V30 1 Cl -1.3824 -1.7282 1.1231 0
M  V30 2 C -1.4332 -0.2009 0.2515 0
M  V30 3 F -2.4358 -0.1103 -0.7132 0
M  V30 4 C -1.0734 1.0596 0.9615 0
M  V30 5 C -0.1375 0.5282 -0.0741 0
M  V30 6 F -1.7836 2.2218 0.7348 0
M  V30 7 F -0.7283 1.0604 2.2986 0
M  V30 8 F -0.0941 1.2139 -1.2855 0
M  V30 9 O 1.1146 -0.0291 0.3901 0
M  V30 10 C 1.8061 -0.729 -0.6339 0
M  V30 11 H 1.1732 -1.5142 -1.0583 0
M  V30 12 H 2.6947 -1.1919 -0.197 0
M  V30 13 H 2.1217 -0.0354 -1.4187 0
M  V30 END ATOM
M  V30 BEGIN BOND
M  V30 1 1 1 2
M  V30 2 1 2 3
M  V30 3 1 2 4
M  V30 4 1 2 5
M  V30 5 1 4 6
M  V30 6 1 4 7
M  V30 7 1 5 8
M  V30 8 1 5 9
M  V30 9 1 9 10
M  V30 10 1 4 5
M  V30 11 1 10 11
M  V30 12 1 10 12
M  V30 13 1 10 13
M  V30 END BOND
M  V30 END CTAB
M  END
>  <NO.>
1975

>  <Name>
aliflurane

>  <SMILES>
COC1(F)C(F)(F)C1(F)Cl

>  <logBB>


>  <Class>
1

>  <MW>
177.98

>  <nHBAcc>
1

>  <nHBDon>
0

>  <SLogP>
1.85

>  <TopoPSA>
9.23

>  <MMFF94 Energy>
64.12

$$$$
COC12C=CC3(CC1C(C)(C)O)[C@@H]1Cc4ccc(O)c5c4[C@]3(CCN1CC1CC1)[C@@H]2O5
Actelion Java MolfileCreator 2.0

  0  0  0  0  0  0              0 V3000
M  V30 BEGIN CTAB
M  V30 COUNTS 64 70 0 0 0
M  V30 BEGIN ATOM
M  V30 1 O 1.0539 -3.0832 -0.081 0
M  V30 2 C 1.4684 -2.6672 -1.3188 0
M  V30 3 C 0.4551 -1.9101 0.5647 0 CFG=2
M  V30 4 C 1.894 -3.4584 -2.3631 0
M  V30 5 C 1.3088 -1.315 -1.5053 0
M  V30 6 C -1.1219 -1.9425 0.7394 0
M  V30 7 C 0.8392 -0.6629 -0.2553 0 CFG=1
M  V30 8 O 2.073 -4.7951 -2.1753 0
M  V30 9 C 2.0969 -2.8634 -3.6155 0
M  V30 10 C 1.3663 -0.7108 -2.752 0
M  V30 11 O -1.5923 -3.0725 1.4659 0
M  V30 12 C -1.8126 -1.7773 -0.5996 0
M  V30 13 C -1.4886 -0.6135 1.5553 0
M  V30 14 C -0.3823 0.208 -0.6246 0
M  V30 15 C 1.9704 0.1539 0.3995 0
M  V30 16 C 1.8067 -1.4969 -3.8169 0
M  V30 17 C 0.7812 0.678 -2.9088 0
M  V30 18 C -1.2388 -4.353 0.966 0
M  V30 19 C -1.4706 -0.6686 -1.2815 0
M  V30 20 C -2.9526 -0.4385 2.1029 0
M  V30 21 C -1.0562 0.6503 0.6989 0
M  V30 22 C 0.1887 1.3138 -1.5772 0 CFG=2
M  V30 23 C 2.3736 1.3834 -0.4249 0
M  V30 24 O -3.8503 -0.1513 1.0249 0
M  V30 25 C -3.0075 0.7726 3.0569 0
M  V30 26 C -3.5026 -1.6519 2.8618 0
M  V30 27 N 1.2513 2.1536 -0.9706 0
M  V30 28 C 0.7754 3.2186 -0.0934 0
M  V30 29 C 1.608 4.4459 -0.3366 0
M  V30 30 C 1.4903 5.6255 0.5972 0
M  V30 31 C 2.7544 4.8143 0.5729 0
M  V30 32 H 0.9016 -1.8869 1.5675 0
M  V30 33 H 2.3597 -5.1901 -3.0131 0
M  V30 34 H 2.4241 -3.4566 -4.4643 0
M  V30 35 H -2.5844 -2.4589 -0.9316 0
M  V30 36 H -0.8505 -0.6377 2.4524 0
M  V30 37 H 2.8603 -0.472 0.5486 0
M  V30 38 H 1.6643 0.4817 1.4002 0
M  V30 39 H 1.8819 -1.0747 -4.816 0
M  V30 40 H 1.5256 1.3454 -3.3608 0
M  V30 41 H -0.0452 0.6024 -3.6283 0
M  V30 42 H -1.9326 -5.0813 1.3964 0
M  V30 43 H -1.3166 -4.4141 -0.1227 0
M  V30 44 H -0.2356 -4.6255 1.3027 0
M  V30 45 H -1.9436 -0.3948 -2.2172 0
M  V30 46 H -1.9117 1.2944 0.461 0
M  V30 47 H -0.3991 1.2522 1.3285 0
M  V30 48 H -0.6262 1.9755 -1.9003 0
M  V30 49 H 3.0054 1.0581 -1.2604 0
M  V30 50 H 3.037 2.0151 0.1768 0
M  V30 51 H -4.7575 -0.1669 1.3745 0
M  V30 52 H -2.3397 0.6376 3.9141 0
M  V30 53 H -2.7394 1.705 2.55 0
M  V30 54 H -4.0253 0.9262 3.4355 0
M  V30 55 H -4.435 -1.3973 3.3811 0
M  V30 56 H -3.7766 -2.4633 2.1806 0
M  V30 57 H -2.794 -2.0166 3.6119 0
M  V30 58 H 0.8055 2.9344 0.9635 0
M  V30 59 H -0.2618 3.488 -0.3256 0
M  V30 60 H 1.699 4.6732 -1.394 0
M  V30 61 H 0.8496 5.5398 1.4673 0
M  V30 62 H 1.516 6.6185 0.1626 0
M  V30 63 H 2.9669 4.1841 1.4285 0
M  V30 64 H 3.6347 5.2527 0.1169 0
M  V30 END ATOM
M  V30 BEGIN BOND
M  V30 1 1 1 2
M  V30 2 1 1 3
M  V30 3 2 2 4
M  V30 4 1 2 5
M  V30 5 1 3 6
M  V30 6 1 3 7
M  V30 7 1 4 8
M  V30 8 1 4 9
M  V30 9 2 5 10
M  V30 10 1 6 11
M  V30 11 1 6 12
M  V30 12 1 6 13
M  V30 13 1 7 14
M  V30 14 1 7 15
M  V30 15 2 9 16
M  V30 16 1 10 17
M  V30 17 1 11 18
M  V30 18 2 12 19
M  V30 19 1 13 20
M  V30 20 1 13 21
M  V30 21 1 14 22
M  V30 22 1 15 23
M  V30 23 1 20 24
M  V30 24 1 20 25
M  V30 25 1 20 26
M  V30 26 1 22 27
M  V30 27 1 27 28
M  V30 28 1 28 29
M  V30 29 1 29 30
M  V30 30 1 29 31
M  V30 31 1 5 7
M  V30 32 1 10 16
M  V30 33 1 14 19
M  V30 34 1 14 21
M  V30 35 1 17 22
M  V30 36 1 23 27
M  V30 37 1 30 31
M  V30 38 1 3 32
M  V30 39 1 8 33
M  V30 40 1 9 34
M  V30 41 1 12 35
M  V30 42 1 13 36
M  V30 43 1 15 37
M  V30 44 1 15 38
M  V30 45 1 16 39
M  V30 46 1 17 40
M  V30 47 1 17 41
M  V30 48 1 18 42
M  V30 49 1 18 43
M  V30 50 1 18 44
M  V30 51 1 19 45
M  V30 52 1 21 46
M  V30 53 1 21 47
M  V30 54 1 22 48
M  V30 55 1 23 49
M  V30 56 1 23 50
M  V30 57 1 24 51
M  V30 58 1 25 52
M  V30 59 1 25 53
M  V30 60 1 25 54
M  V30 61 1 26 55
M  V30 62 1 26 56
M  V30 63 1 26 57
M  V30 64 1 28 58
M  V30 65 1 28 59
M  V30 66 1 29 60
M  V30 67 1 30 61
M  V30 68 1 30 62
M  V30 69 1 31 63
M  V30 70 1 31 64
M  V30 END BOND
M  V30 BEGIN COLLECTION
M  V30 MDLV30/STEABS ATOMS=(3 3 7 22)
M  V30 END COLLECTION
M  V30 END CTAB
M  END
>  <NO.>
1976

>  <Name>
cyprenorphine

>  <SMILES>
COC12C=CC3(CC1C(C)(C)O)[C@@H]1Cc4ccc(O)c5c4[C@]3(CCN1CC1CC1)[C@@H]2O5

>  <logBB>


>  <Class>
1

>  <MW>
423.24

>  <nHBAcc>
5

>  <nHBDon>
2

>  <SLogP>
3.16

>  <TopoPSA>
62.16

>  <MMFF94 Energy>
181.99

$$$$
COC1=CC(=O)OC1C(O)c1ccccc1Cl
Actelion Java MolfileCreator 2.0

  0  0  0  0  0  0              0 V3000
M  V30 BEGIN CTAB
M  V30 COUNTS 28 29 0 0 0
M  V30 BEGIN ATOM
M  V30 1 Cl -2.4329 1.4592 1.5403 0
M  V30 2 C -2.1843 1.4988 -0.1706 0
M  V30 3 C -1.3181 0.6136 -0.8367 0
M  V30 4 C -2.8937 2.4741 -0.8838 0
M  V30 5 C -1.1896 0.7454 -2.235 0
M  V30 6 C -0.5021 -0.4645 -0.1431 0
M  V30 7 C -2.7513 2.5848 -2.2654 0
M  V30 8 C -1.8982 1.7201 -2.9409 0
M  V30 9 O -1.4001 -1.3087 0.5846 0
M  V30 10 C 0.6441 0.1084 0.7323 0
M  V30 11 O 1.5475 0.888 -0.069 0
M  V30 12 C 1.5329 -0.9522 1.2924 0
M  V30 13 C 2.7947 0.3539 -0.0052 0
M  V30 14 O 0.9855 -1.888 2.1257 0
M  V30 15 C 2.7887 -0.8119 0.8721 0
M  V30 16 O 3.7771 0.7675 -0.592 0
M  V30 17 C 1.8871 -2.8456 2.6771 0
M  V30 18 H -3.5635 3.1543 -0.3628 0
M  V30 19 H -0.5271 0.0844 -2.7915 0
M  V30 20 H -0.0556 -1.1054 -0.915 0
M  V30 21 H -3.3049 3.3442 -2.8114 0
M  V30 22 H -1.7815 1.8023 -4.0189 0
M  V30 23 H -0.8698 -1.8251 1.2195 0
M  V30 24 H 0.2719 0.7366 1.5471 0
M  V30 25 H 3.6671 -1.3929 1.0809 0
M  V30 26 H 2.3449 -3.4495 1.8868 0
M  V30 27 H 1.3132 -3.5134 3.3261 0
M  V30 28 H 2.6537 -2.3546 3.2856 0
M  V30 END ATOM
M  V30 BEGIN BOND
M  V30 1 1 1 2
M  V30 2 2 2 3
M  V30 3 1 2 4
M  V30 4 1 3 5
M  V30 5 1 3 6
M  V30 6 2 4 7
M  V30 7 2 5 8
M  V30 8 1 6 9
M  V30 9 1 6 10
M  V30 10 1 10 11
M  V30 11 1 10 12
M  V30 12 1 11 13
M  V30 13 1 12 14
M  V30 14 2 12 15
M  V30 15 2 13 16
M  V30 16 1 14 17
M  V30 17 1 7 8
M  V30 18 1 13 15
M  V30 19 1 4 18
M  V30 20 1 5 19
M  V30 21 1 6 20
M  V30 22 1 7 21
M  V30 23 1 8 22
M  V30 24 1 9 23
M  V30 25 1 10 24
M  V30 26 1 15 25
M  V30 27 1 17 26
M  V30 28 1 17 27
M  V30 29 1 17 28
M  V30 END BOND
M  V30 END CTAB
M  END
>  <NO.>
1978

>  <Name>
losigamone

>  <SMILES>
COC1=CC(=O)OC1C(O)c1ccccc1Cl

>  <logBB>


>  <Class>
1

>  <MW>
254.03

>  <nHBAcc>
4

>  <nHBDon>
1

>  <SLogP>
1.83

>  <TopoPSA>
55.76

>  <MMFF94 Energy>
47.21

$$$$
COC1=CC=C2[C@H]3Cc4ccc(OC)c5c4[C@@]2(CCN3C)[C@H]1O5
Actelion Java MolfileCreator 2.0

  0  0  0  0  0  0              0 V3000
M  V30 BEGIN CTAB
M  V30 COUNTS 44 48 0 0 0
M  V30 BEGIN ATOM
M  V30 1 O -0.8896 1.456 -1.375 0
M  V30 2 C 0.0432 0.5064 -1.7118 0
M  V30 3 C -1.011 1.3953 0.0855 0 CFG=1
M  V30 4 C 0.3501 0.0713 -2.99 0
M  V30 5 C 0.6301 -0.0762 -0.6109 0
M  V30 6 C -2.3881 0.8851 0.5064 0
M  V30 7 C 0.1708 0.5662 0.6488 0 CFG=2
M  V30 8 O -0.2508 0.7301 -4.0231 0
M  V30 9 C 1.2336 -1.0158 -3.1051 0
M  V30 10 C 1.4153 -1.2185 -0.6876 0
M  V30 11 O -3.4243 1.6082 -0.0531 0
M  V30 12 C -2.5229 -0.1356 1.381 0
M  V30 13 C -0.1415 -0.5668 1.5872 0
M  V30 14 C 1.2386 1.4823 1.2778 0
M  V30 15 C 0.0369 0.2724 -5.3359 0
M  V30 16 C 1.744 -1.6727 -1.9626 0
M  V30 17 C 1.7303 -1.9735 0.5903 0
M  V30 18 C -4.7543 1.1608 0.1716 0
M  V30 19 C -1.4007 -0.8658 1.9351 0
M  V30 20 C 1.1188 -1.3482 1.91 0 CFG=1
M  V30 21 C 2.4519 0.7089 1.8102 0
M  V30 22 N 2.1127 -0.487 2.5959 0
M  V30 23 C 1.6983 -0.1458 3.9569 0
M  V30 24 H -0.9438 2.4356 0.4324 0
M  V30 25 H 1.5146 -1.4116 -4.0759 0
M  V30 26 H -3.4979 -0.4879 1.7009 0
M  V30 27 H 1.5898 2.2268 0.5514 0
M  V30 28 H 0.7879 2.0444 2.1071 0
M  V30 29 H 1.1014 0.382 -5.568 0
M  V30 30 H -0.5222 0.8976 -6.0386 0
M  V30 31 H -0.2938 -0.7619 -5.4755 0
M  V30 32 H 2.364 -2.5571 -2.0879 0
M  V30 33 H 1.3023 -2.9795 0.481 0
M  V30 34 H 2.8152 -2.1011 0.6895 0
M  V30 35 H -4.892 0.1376 -0.1924 0
M  V30 36 H -5.4287 1.8125 -0.3918 0
M  V30 37 H -5.0189 1.2395 1.231 0
M  V30 38 H -1.6202 -1.7161 2.5745 0
M  V30 39 H 0.8903 -2.1925 2.5738 0
M  V30 40 H 3.0885 0.4101 0.9686 0
M  V30 41 H 3.0836 1.3849 2.4007 0
M  V30 42 H 0.7965 0.4744 3.9915 0
M  V30 43 H 1.5126 -1.0538 4.5413 0
M  V30 44 H 2.4998 0.3939 4.4737 0
M  V30 END ATOM
M  V30 BEGIN BOND
M  V30 1 1 1 2
M  V30 2 1 1 3
M  V30 3 2 2 4
M  V30 4 1 2 5
M  V30 5 1 3 6
M  V30 6 1 3 7
M  V30 7 1 4 8
M  V30 8 1 4 9
M  V30 9 2 5 10
M  V30 10 1 6 11
M  V30 11 2 6 12
M  V30 12 1 7 13
M  V30 13 1 7 14
M  V30 14 1 8 15
M  V30 15 2 9 16
M  V30 16 1 10 17
M  V30 17 1 11 18
M  V30 18 1 12 19
M  V30 19 1 13 20
M  V30 20 1 14 21
M  V30 21 1 20 22
M  V30 22 1 22 23
M  V30 23 1 5 7
M  V30 24 1 10 16
M  V30 25 2 13 19
M  V30 26 1 17 20
M  V30 27 1 21 22
M  V30 28 1 3 24
M  V30 29 1 9 25
M  V30 30 1 12 26
M  V30 31 1 14 27
M  V30 32 1 14 28
M  V30 33 1 15 29
M  V30 34 1 15 30
M  V30 35 1 15 31
M  V30 36 1 16 32
M  V30 37 1 17 33
M  V30 38 1 17 34
M  V30 39 1 18 35
M  V30 40 1 18 36
M  V30 41 1 18 37
M  V30 42 1 19 38
M  V30 43 1 20 39
M  V30 44 1 21 40
M  V30 45 1 21 41
M  V30 46 1 23 42
M  V30 47 1 23 43
M  V30 48 1 23 44
M  V30 END BOND
M  V30 BEGIN COLLECTION
M  V30 MDLV30/STEABS ATOMS=(3 3 7 20)
M  V30 END COLLECTION
M  V30 END CTAB
M  END
>  <NO.>
1979

>  <Name>
thebaine

>  <SMILES>
COC1=CC=C2[C@H]3Cc4ccc(OC)c5c4[C@@]2(CCN3C)[C@H]1O5

>  <logBB>


>  <Class>
1

>  <MW>
311.15

>  <nHBAcc>
4

>  <nHBDon>
0

>  <SLogP>
2.42

>  <TopoPSA>
30.93

>  <MMFF94 Energy>
102.59

$$$$
COC1CCCC2C1=C(C(=O)O)N1C(=O)C(C(C)O)C21
Actelion Java MolfileCreator 2.0

  0  0  0  0  0  0              0 V3000
M  V30 BEGIN CTAB
M  V30 COUNTS 39 41 0 0 0
M  V30 BEGIN ATOM
M  V30 1 O 0.8803 2.8032 -2.4023 0
M  V30 2 C 0.627 2.4494 -1.2743 0
M  V30 3 N 1.1623 1.5044 -0.462 0
M  V30 4 C -0.4583 2.7776 -0.2239 0
M  V30 5 C 1.4222 0.2046 -0.7994 0
M  V30 6 C 0.1564 1.5936 0.6115 0
M  V30 7 C -1.8901 2.7581 -0.7327 0
M  V30 8 C 0.6585 -0.636 -0.0842 0
M  V30 9 C 2.3587 -0.1275 -1.8934 0
M  V30 10 C -0.3384 0.1457 0.749 0
M  V30 11 O -2.1908 1.5111 -1.3463 0
M  V30 12 C -2.863 2.9794 0.4153 0
M  V30 13 C 0.6077 -2.1295 -0.0097 0
M  V30 14 O 2.2029 -0.9608 -2.7686 0
M  V30 15 O 3.4572 0.6514 -1.8522 0
M  V30 16 C -0.3359 -0.3344 2.1975 0
M  V30 17 O 1.8066 -2.6874 -0.5389 0
M  V30 18 C 0.5066 -2.5923 1.4544 0
M  V30 19 C -0.5605 -1.8461 2.256 0
M  V30 20 C 1.5664 -3.8114 -1.3748 0
M  V30 21 H -0.2461 3.7532 0.2408 0
M  V30 22 H 0.6248 1.9635 1.5355 0
M  V30 23 H -2.0226 3.5471 -1.4821 0
M  V30 24 H -1.3407 0.015 0.3308 0
M  V30 25 H -2.9476 1.6518 -1.9436 0
M  V30 26 H -3.8958 2.966 0.0513 0
M  V30 27 H -2.6791 3.9357 0.9148 0
M  V30 28 H -2.7807 2.1817 1.1618 0
M  V30 29 H -0.276 -2.4692 -0.566 0
M  V30 30 H 3.9547 0.3757 -2.6473 0
M  V30 31 H -1.1201 0.1832 2.7624 0
M  V30 32 H 0.6155 -0.0909 2.6882 0
M  V30 33 H 0.3021 -3.6696 1.4826 0
M  V30 34 H 1.4806 -2.4681 1.9479 0
M  V30 35 H -1.5546 -2.0892 1.8617 0
M  V30 36 H -0.5372 -2.1809 3.2991 0
M  V30 37 H 1.0625 -4.605 -0.8149 0
M  V30 38 H 2.5296 -4.1894 -1.7273 0
M  V30 39 H 0.9662 -3.5229 -2.243 0
M  V30 END ATOM
M  V30 BEGIN BOND
M  V30 1 2 1 2
M  V30 2 1 2 3
M  V30 3 1 2 4
M  V30 4 1 3 5
M  V30 5 1 3 6
M  V30 6 1 4 7
M  V30 7 2 5 8
M  V30 8 1 5 9
M  V30 9 1 6 10
M  V30 10 1 7 11
M  V30 11 1 7 12
M  V30 12 1 8 13
M  V30 13 2 9 14
M  V30 14 1 9 15
M  V30 15 1 10 16
M  V30 16 1 13 17
M  V30 17 1 13 18
M  V30 18 1 16 19
M  V30 19 1 17 20
M  V30 20 1 4 6
M  V30 21 1 8 10
M  V30 22 1 18 19
M  V30 23 1 4 21
M  V30 24 1 6 22
M  V30 25 1 7 23
M  V30 26 1 10 24
M  V30 27 1 11 25
M  V30 28 1 12 26
M  V30 29 1 12 27
M  V30 30 1 12 28
M  V30 31 1 13 29
M  V30 32 1 15 30
M  V30 33 1 16 31
M  V30 34 1 16 32
M  V30 35 1 18 33
M  V30 36 1 18 34
M  V30 37 1 19 35
M  V30 38 1 19 36
M  V30 39 1 20 37
M  V30 40 1 20 38
M  V30 41 1 20 39
M  V30 END BOND
M  V30 END CTAB
M  END
>  <NO.>
1983

>  <Name>
sanfetrinem

>  <SMILES>
COC1CCCC2C1=C(C(=O)O)N1C(=O)C(C(C)O)C21

>  <logBB>


>  <Class>
-1

>  <MW>
281.13

>  <nHBAcc>
4

>  <nHBDon>
2

>  <SLogP>
0.36

>  <TopoPSA>
87.07

>  <MMFF94 Energy>
24.847

$$$$
COCC(=O)N(c1ccccc1F)C1CCN(CCc2ccccc2)CC1
Actelion Java MolfileCreator 2.0

  0  0  0  0  0  0              0 V3000
M  V30 BEGIN CTAB
M  V30 COUNTS 54 56 0 0 0
M  V30 BEGIN ATOM
M  V30 1 F -0.8735 0.1587 -2.4633 0
M  V30 2 C 0.2114 0.9213 -2.2625 0
M  V30 3 C 1.4299 0.3363 -1.9039 0
M  V30 4 C 0.1053 2.2976 -2.4398 0
M  V30 5 N 1.5418 -1.0632 -1.71 0
M  V30 6 C 2.5564 1.1476 -1.739 0
M  V30 7 C 1.2294 3.1044 -2.2637 0
M  V30 8 C 1.766 -1.9407 -2.7763 0
M  V30 9 C 1.2536 -1.6261 -0.3738 0
M  V30 10 C 2.454 2.5295 -1.9175 0
M  V30 11 O 1.7393 -3.1681 -2.6322 0
M  V30 12 C 2.0268 -1.342 -4.1662 0
M  V30 13 C 1.7206 -0.7679 0.813 0
M  V30 14 C -0.2299 -1.9942 -0.2195 0
M  V30 15 O 3.2697 -0.6518 -4.2292 0
M  V30 16 C 1.3694 -1.4425 2.141 0
M  V30 17 C -0.4963 -2.6116 1.1535 0
M  V30 18 C 3.4823 -0.0758 -5.5099 0
M  V30 19 N -0.0574 -1.7746 2.2803 0
M  V30 20 C -0.8797 -0.5665 2.4892 0
M  V30 21 C -2.3144 -0.873 2.953 0
M  V30 22 C -3.0754 0.3944 3.2678 0
M  V30 23 C -3.0913 0.9087 4.5711 0
M  V30 24 C -3.7501 1.0877 2.2535 0
M  V30 25 C -3.7777 2.0901 4.856 0
M  V30 26 C -4.436 2.2688 2.5407 0
M  V30 27 C -4.4502 2.7692 3.8415 0
M  V30 28 H -0.8503 2.7312 -2.7172 0
M  V30 29 H 3.5165 0.7056 -1.4836 0
M  V30 30 H 1.154 4.1806 -2.4015 0
M  V30 31 H 1.8205 -2.566 -0.3112 0
M  V30 32 H 3.333 3.1572 -1.7898 0
M  V30 33 H 2.042 -2.1704 -4.885 0
M  V30 34 H 1.199 -0.6788 -4.4392 0
M  V30 35 H 1.2671 0.2294 0.7838 0
M  V30 36 H 2.8063 -0.6216 0.7605 0
M  V30 37 H -0.5238 -2.7083 -0.9981 0
M  V30 38 H -0.8642 -1.1122 -0.3589 0
M  V30 39 H 1.6954 -0.809 2.9753 0
M  V30 40 H 1.9523 -2.368 2.2379 0
M  V30 41 H 0.0313 -3.5728 1.2165 0
M  V30 42 H -1.556 -2.8713 1.2431 0
M  V30 43 H 4.4502 0.4323 -5.5024 0
M  V30 44 H 2.7038 0.6604 -5.7324 0
M  V30 45 H 3.5004 -0.8512 -6.2818 0
M  V30 46 H -0.9072 0.064 1.5924 0
M  V30 47 H -0.4072 0.0419 3.2725 0
M  V30 48 H -2.8698 -1.4263 2.187 0
M  V30 49 H -2.2948 -1.517 3.8416 0
M  V30 50 H -2.5684 0.3906 5.3721 0
M  V30 51 H -3.746 0.7096 1.2336 0
M  V30 52 H -3.7876 2.4804 5.8703 0
M  V30 53 H -4.9601 2.7982 1.7494 0
M  V30 54 H -4.9854 3.6884 4.0649 0
M  V30 END ATOM
M  V30 BEGIN BOND
M  V30 1 1 1 2
M  V30 2 2 2 3
M  V30 3 1 2 4
M  V30 4 1 3 5
M  V30 5 1 3 6
M  V30 6 2 4 7
M  V30 7 1 5 8
M  V30 8 1 5 9
M  V30 9 2 6 10
M  V30 10 2 8 11
M  V30 11 1 8 12
M  V30 12 1 9 13
M  V30 13 1 9 14
M  V30 14 1 12 15
M  V30 15 1 13 16
M  V30 16 1 14 17
M  V30 17 1 15 18
M  V30 18 1 16 19
M  V30 19 1 19 20
M  V30 20 1 20 21
M  V30 21 1 21 22
M  V30 22 2 22 23
M  V30 23 1 22 24
M  V30 24 1 23 25
M  V30 25 2 24 26
M  V30 26 2 25 27
M  V30 27 1 7 10
M  V30 28 1 17 19
M  V30 29 1 26 27
M  V30 30 1 4 28
M  V30 31 1 6 29
M  V30 32 1 7 30
M  V30 33 1 9 31
M  V30 34 1 10 32
M  V30 35 1 12 33
M  V30 36 1 12 34
M  V30 37 1 13 35
M  V30 38 1 13 36
M  V30 39 1 14 37
M  V30 40 1 14 38
M  V30 41 1 16 39
M  V30 42 1 16 40
M  V30 43 1 17 41
M  V30 44 1 17 42
M  V30 45 1 18 43
M  V30 46 1 18 44
M  V30 47 1 18 45
M  V30 48 1 20 46
M  V30 49 1 20 47
M  V30 50 1 21 48
M  V30 51 1 21 49
M  V30 52 1 23 50
M  V30 53 1 24 51
M  V30 54 1 25 52
M  V30 55 1 26 53
M  V30 56 1 27 54
M  V30 END BOND
M  V30 END CTAB
M  END
>  <NO.>
1984

>  <Name>
ocfentanil

>  <SMILES>
COCC(=O)N(c1ccccc1F)C1CCN(CCc2ccccc2)CC1

>  <logBB>


>  <Class>
1

>  <MW>
370.21

>  <nHBAcc>
3

>  <nHBDon>
0

>  <SLogP>
3.51

>  <TopoPSA>
32.78

>  <MMFF94 Energy>
92.709

$$$$
COCC1CN(c2ccc(OCc3cccc(C#N)c3)cc2)C(=O)O1
Actelion Java MolfileCreator 2.0

  0  0  0  0  0  0              0 V3000
M  V30 BEGIN CTAB
M  V30 COUNTS 43 45 0 0 0
M  V30 BEGIN ATOM
M  V30 1 O -0.1597 4.399 -0.559 0
M  V30 2 C -1.0043 4.0294 0.2407 0
M  V30 3 O -1.937 4.8937 0.7601 0
M  V30 4 N -1.1953 2.7656 0.7737 0
M  V30 5 C -2.9147 4.125 1.4719 0 CFG=2
M  V30 6 C -0.4415 1.6057 0.4873 0
M  V30 7 C -2.2158 2.8173 1.7773 0
M  V30 8 C -4.1611 3.9481 0.6038 0
M  V30 9 C -0.3656 0.5565 1.4111 0
M  V30 10 C 0.2294 1.4592 -0.732 0
M  V30 11 O -5.1464 3.2151 1.3309 0
M  V30 12 C 0.3698 -0.5984 1.1223 0
M  V30 13 C 0.968 0.3026 -1.0207 0
M  V30 14 C -6.3352 3.0407 0.5687 0
M  V30 15 C 1.0429 -0.7314 -0.0916 0
M  V30 16 O 1.7231 -1.9066 -0.2425 0
M  V30 17 C 2.4857 -2.0666 -1.4382 0
M  V30 18 C 3.2177 -3.3881 -1.3744 0
M  V30 19 C 3.9933 -3.7194 -0.2509 0
M  V30 20 C 3.1648 -4.2869 -2.4493 0
M  V30 21 C 4.6882 -4.933 -0.1965 0
M  V30 22 C 3.8589 -5.4973 -2.398 0
M  V30 23 C 5.4696 -5.2638 0.959 0
M  V30 24 C 4.6187 -5.8213 -1.2737 0
M  V30 25 N 6.1053 -5.5345 1.8919 0
M  V30 26 H -3.1814 4.6372 2.4034 0
M  V30 27 H -2.8757 1.9452 1.742 0
M  V30 28 H -1.7254 2.8687 2.7566 0
M  V30 29 H -4.5577 4.9338 0.3307 0
M  V30 30 H -3.9147 3.4237 -0.3278 0
M  V30 31 H -0.8601 0.6142 2.3763 0
M  V30 32 H 0.1884 2.2369 -1.4911 0
M  V30 33 H 0.4203 -1.3998 1.856 0
M  V30 34 H 1.4662 0.2521 -1.9831 0
M  V30 35 H -7.0507 2.4755 1.172 0
M  V30 36 H -6.1244 2.4761 -0.3445 0
M  V30 37 H -6.7763 4.0108 0.32 0
M  V30 38 H 3.2312 -1.2675 -1.5364 0
M  V30 39 H 1.8138 -2.0562 -2.305 0
M  V30 40 H 4.0456 -3.0253 0.5879 0
M  V30 41 H 2.5776 -4.053 -3.3354 0
M  V30 42 H 3.8063 -6.189 -3.2358 0
M  V30 43 H 5.1542 -6.7684 -1.2444 0
M  V30 END ATOM
M  V30 BEGIN BOND
M  V30 1 2 1 2
M  V30 2 1 2 3
M  V30 3 1 2 4
M  V30 4 1 3 5
M  V30 5 1 4 6
M  V30 6 1 4 7
M  V30 7 1 5 8
M  V30 8 2 6 9
M  V30 9 1 6 10
M  V30 10 1 8 11
M  V30 11 1 9 12
M  V30 12 2 10 13
M  V30 13 1 11 14
M  V30 14 2 12 15
M  V30 15 1 15 16
M  V30 16 1 16 17
M  V30 17 1 17 18
M  V30 18 2 18 19
M  V30 19 1 18 20
M  V30 20 1 19 21
M  V30 21 2 20 22
M  V30 22 1 21 23
M  V30 23 2 21 24
M  V30 24 3 23 25
M  V30 25 1 5 7
M  V30 26 1 13 15
M  V30 27 1 22 24
M  V30 28 1 5 26
M  V30 29 1 7 27
M  V30 30 1 7 28
M  V30 31 1 8 29
M  V30 32 1 8 30
M  V30 33 1 9 31
M  V30 34 1 10 32
M  V30 35 1 12 33
M  V30 36 1 13 34
M  V30 37 1 14 35
M  V30 38 1 14 36
M  V30 39 1 14 37
M  V30 40 1 17 38
M  V30 41 1 17 39
M  V30 42 1 19 40
M  V30 43 1 20 41
M  V30 44 1 22 42
M  V30 45 1 24 43
M  V30 END BOND
M  V30 BEGIN COLLECTION
M  V30 MDLV30/STERAC1 ATOMS=(1 5)
M  V30 END COLLECTION
M  V30 END CTAB
M  END
>  <NO.>
1988

>  <Name>
cimoxatone

>  <SMILES>
COCC1CN(c2ccc(OCc3cccc(C#N)c3)cc2)C(=O)O1

>  <logBB>


>  <Class>
1

>  <MW>
338.13

>  <nHBAcc>
5

>  <nHBDon>
0

>  <SLogP>
3.11

>  <TopoPSA>
71.79

>  <MMFF94 Energy>
55.41

$$$$
COCC1CN=C(c2ccccc2Cl)c2cc(Br)ccc2N1C
Actelion Java MolfileCreator 2.0

  0  0  0  0  0  0              0 V3000
M  V30 BEGIN CTAB
M  V30 COUNTS 41 43 0 0 0
M  V30 BEGIN ATOM
M  V30 1 Br 2.1225 3.2668 4.1666 0
M  V30 2 C 1.906 1.9635 2.8162 0
M  V30 3 C 0.84 2.0541 1.9308 0
M  V30 4 C 2.8153 0.9206 2.7089 0
M  V30 5 C 0.6823 1.0825 0.9266 0
M  V30 6 C 2.6541 -0.0406 1.7044 0
M  V30 7 C -0.4889 1.2218 0.0139 0
M  V30 8 C 1.589 0.0078 0.7841 0
M  V30 9 N -0.4341 1.1471 -1.2762 0
M  V30 10 C -1.8188 1.4299 0.6373 0
M  V30 11 N 1.4389 -0.9753 -0.1937 0
M  V30 12 C 0.8909 0.89 -1.8518 0
M  V30 13 C -2.5485 2.6098 0.4588 0
M  V30 14 C -2.3434 0.3839 1.4095 0
M  V30 15 C 1.3066 -0.5819 -1.6381 0 CFG=2
M  V30 16 C 1.9479 -2.3196 0.0763 0
M  V30 17 Cl -1.9365 3.9587 -0.4282 0
M  V30 18 C -3.8042 2.7385 1.0604 0
M  V30 19 C -3.5969 0.5209 2.006 0
M  V30 20 C 0.2997 -1.4944 -2.385 0
M  V30 21 C -4.3268 1.6964 1.831 0
M  V30 22 O 0.9427 -2.7114 -2.8028 0
M  V30 23 C 0.0277 -3.5779 -3.4614 0
M  V30 24 H 0.1432 2.884 2.01 0
M  V30 25 H 3.6576 0.8436 3.3916 0
M  V30 26 H 3.4017 -0.8276 1.6397 0
M  V30 27 H 1.6443 1.5884 -1.4647 0
M  V30 28 H 0.8361 1.1017 -2.9267 0
M  V30 29 H -1.7843 -0.5411 1.5334 0
M  V30 30 H 2.2982 -0.7067 -2.0934 0
M  V30 31 H 1.3836 -3.0794 -0.4687 0
M  V30 32 H 3.0027 -2.3999 -0.2065 0
M  V30 33 H 1.8411 -2.5867 1.1345 0
M  V30 34 H -4.381 3.6519 0.9354 0
M  V30 35 H -4.0073 -0.2914 2.6013 0
M  V30 36 H -0.0703 -0.9959 -3.2887 0
M  V30 37 H -0.5543 -1.735 -1.7401 0
M  V30 38 H -5.3054 1.8028 2.294 0
M  V30 39 H 0.5648 -4.4822 -3.7594 0
M  V30 40 H -0.3758 -3.0994 -4.3589 0
M  V30 41 H -0.7851 -3.8612 -2.7859 0
M  V30 END ATOM
M  V30 BEGIN BOND
M  V30 1 1 1 2
M  V30 2 2 2 3
M  V30 3 1 2 4
M  V30 4 1 3 5
M  V30 5 2 4 6
M  V30 6 1 5 7
M  V30 7 2 5 8
M  V30 8 2 7 9
M  V30 9 1 7 10
M  V30 10 1 8 11
M  V30 11 1 9 12
M  V30 12 2 10 13
M  V30 13 1 10 14
M  V30 14 1 11 15
M  V30 15 1 11 16
M  V30 16 1 13 17
M  V30 17 1 13 18
M  V30 18 2 14 19
M  V30 19 1 15 20
M  V30 20 2 18 21
M  V30 21 1 20 22
M  V30 22 1 22 23
M  V30 23 1 6 8
M  V30 24 1 12 15
M  V30 25 1 19 21
M  V30 26 1 3 24
M  V30 27 1 4 25
M  V30 28 1 6 26
M  V30 29 1 12 27
M  V30 30 1 12 28
M  V30 31 1 14 29
M  V30 32 1 15 30
M  V30 33 1 16 31
M  V30 34 1 16 32
M  V30 35 1 16 33
M  V30 36 1 18 34
M  V30 37 1 19 35
M  V30 38 1 20 36
M  V30 39 1 20 37
M  V30 40 1 21 38
M  V30 41 1 23 39
M  V30 42 1 23 40
M  V30 43 1 23 41
M  V30 END BOND
M  V30 BEGIN COLLECTION
M  V30 MDLV30/STERAC1 ATOMS=(1 15)
M  V30 END COLLECTION
M  V30 END CTAB
M  END
>  <NO.>
1989

>  <Name>
metaclazepam

>  <SMILES>
COCC1CN=C(c2ccccc2Cl)c2cc(Br)ccc2N1C

>  <logBB>


>  <Class>
1

>  <MW>
392.03

>  <nHBAcc>
3

>  <nHBDon>
0

>  <SLogP>
4.4

>  <TopoPSA>
24.83

>  <MMFF94 Energy>
149.31

$$$$
COCCCC/C(=N/OCCN)c1ccc(Cl)cc1
Actelion Java MolfileCreator 2.0

  0  0  0  0  0  0              0 V3000
M  V30 BEGIN CTAB
M  V30 COUNTS 40 40 0 0 0
M  V30 BEGIN ATOM
M  V30 1 Cl -5.5342 0.0788 2.8432 0
M  V30 2 C -4.0301 0.2983 2.0374 0
M  V30 3 C -3.1318 1.2609 2.5007 0
M  V30 4 C -3.7195 -0.4871 0.9269 0
M  V30 5 C -1.9096 1.4415 1.8494 0
M  V30 6 C -2.4986 -0.3104 0.2733 0
M  V30 7 C -1.5984 0.6547 0.7363 0
M  V30 8 C -0.2944 0.8308 0.0509 0
M  V30 9 N -0.1392 1.1718 -1.195 0
M  V30 10 C 0.9535 0.5739 0.8805 0
M  V30 11 O -1.3647 1.4154 -1.8308 0
M  V30 12 C 1.6532 -0.7009 0.4117 0
M  V30 13 C -1.1057 1.8409 -3.17 0
M  V30 14 C 2.8889 -0.998 1.2566 0
M  V30 15 C -2.4392 2.0757 -3.8859 0
M  V30 16 C 3.604 -2.2589 0.7857 0
M  V30 17 N -3.2367 3.1496 -3.2791 0
M  V30 18 O 4.7317 -2.4742 1.6325 0
M  V30 19 C 5.4599 -3.6334 1.2504 0
M  V30 20 H -3.3796 1.8736 3.3638 0
M  V30 21 H -4.4223 -1.2332 0.5653 0
M  V30 22 H -1.2164 2.1993 2.2052 0
M  V30 23 H -2.2537 -0.9167 -0.5952 0
M  V30 24 H 0.6984 0.4868 1.942 0
M  V30 25 H 1.6194 1.4383 0.7727 0
M  V30 26 H 1.9424 -0.6014 -0.6417 0
M  V30 27 H 0.9547 -1.5453 0.4661 0
M  V30 28 H -0.5424 1.0599 -3.6933 0
M  V30 29 H -0.5087 2.7603 -3.1538 0
M  V30 30 H 2.6089 -1.1119 2.3114 0
M  V30 31 H 3.586 -0.1514 1.221 0
M  V30 32 H -3.0375 1.1586 -3.8586 0
M  V30 33 H -2.2548 2.325 -4.9356 0
M  V30 34 H 2.9314 -3.1221 0.8465 0
M  V30 35 H 3.9407 -2.1394 -0.2503 0
M  V30 36 H -3.376 2.9165 -2.293 0
M  V30 37 H -2.6878 4.0092 -3.2688 0
M  V30 38 H 6.3072 -3.7479 1.9317 0
M  V30 39 H 5.8428 -3.5264 0.2311 0
M  V30 40 H 4.8286 -4.5241 1.3248 0
M  V30 END ATOM
M  V30 BEGIN BOND
M  V30 1 1 1 2
M  V30 2 2 2 3
M  V30 3 1 2 4
M  V30 4 1 3 5
M  V30 5 2 4 6
M  V30 6 2 5 7
M  V30 7 1 7 8
M  V30 8 2 8 9
M  V30 9 1 8 10
M  V30 10 1 9 11
M  V30 11 1 10 12
M  V30 12 1 11 13
M  V30 13 1 12 14
M  V30 14 1 13 15
M  V30 15 1 14 16
M  V30 16 1 15 17
M  V30 17 1 16 18
M  V30 18 1 18 19
M  V30 19 1 6 7
M  V30 20 1 3 20
M  V30 21 1 4 21
M  V30 22 1 5 22
M  V30 23 1 6 23
M  V30 24 1 10 24
M  V30 25 1 10 25
M  V30 26 1 12 26
M  V30 27 1 12 27
M  V30 28 1 13 28
M  V30 29 1 13 29
M  V30 30 1 14 30
M  V30 31 1 14 31
M  V30 32 1 15 32
M  V30 33 1 15 33
M  V30 34 1 16 34
M  V30 35 1 16 35
M  V30 36 1 17 36
M  V30 37 1 17 37
M  V30 38 1 19 38
M  V30 39 1 19 39
M  V30 40 1 19 40
M  V30 END BOND
M  V30 END CTAB
M  END
>  <NO.>
1991

>  <Name>
clovoxamine

>  <SMILES>
COCCCC/C(=N/OCCN)c1ccc(Cl)cc1

>  <logBB>


>  <Class>
1

>  <MW>
284.13

>  <nHBAcc>
4

>  <nHBDon>
1

>  <SLogP>
2.84

>  <TopoPSA>
56.84

>  <MMFF94 Energy>
73.396

$$$$
COCCN1CC[C@]23c4c5ccc(O)c4O[C@H]2C(=O)CC[C@@]3(O)[C@H]1C5
Actelion Java MolfileCreator 2.0

  0  0  0  0  0  0              0 V3000
M  V30 BEGIN CTAB
M  V30 COUNTS 48 52 0 0 0
M  V30 BEGIN ATOM
M  V30 1 O -0.405 -4.3002 2.4323 0
M  V30 2 C -0.0444 -3.5734 1.5023 0
M  V30 3 C 0.8768 -2.3604 1.7263 0 CFG=2
M  V30 4 C -0.4295 -3.9194 0.0824 0
M  V30 5 O 0.5595 -1.7848 3.0412 0
M  V30 6 C 0.7087 -1.2377 0.6914 0 CFG=2
M  V30 7 C -0.8885 -2.6818 -0.6821 0
M  V30 8 C -0.3674 -0.8177 2.7364 0
M  V30 9 C -0.3712 -0.4999 1.3967 0
M  V30 10 C 0.2246 -1.6296 -0.7125 0 CFG=2
M  V30 11 C 1.9548 -0.32 0.6003 0
M  V30 12 C -1.2568 -0.2154 3.5918 0
M  V30 13 C -1.292 0.3498 0.8184 0
M  V30 14 O 1.3181 -2.2407 -1.431 0
M  V30 15 C -0.1635 -0.2892 -1.4401 0 CFG=1
M  V30 16 C 1.7435 0.8659 -0.3637 0
M  V30 17 O -1.2779 -0.5103 4.9181 0
M  V30 18 C -2.1758 0.6933 3.0649 0
M  V30 19 C -2.2051 0.9652 1.6784 0
M  V30 20 C -1.2996 0.4914 -0.6816 0
M  V30 21 N 1.1385 0.4115 -1.6194 0
M  V30 22 C 1.2259 1.3764 -2.7254 0
M  V30 23 C 0.3971 2.6711 -2.7048 0
M  V30 24 O 0.729 3.4695 -1.5715 0
M  V30 25 C -0.0471 4.6583 -1.5164 0
M  V30 26 H 1.9058 -2.7371 1.7514 0
M  V30 27 H -1.2479 -4.6475 0.1109 0
M  V30 28 H 0.4269 -4.4031 -0.3979 0
M  V30 29 H -1.8058 -2.2909 -0.2286 0
M  V30 30 H -1.1404 -2.9842 -1.706 0
M  V30 31 H 2.8122 -0.9111 0.2522 0
M  V30 32 H 2.238 0.0744 1.585 0
M  V30 33 H 1.7948 -1.4859 -1.8423 0
M  V30 34 H -0.5294 -0.5413 -2.4442 0
M  V30 35 H 1.139 1.6392 0.1212 0
M  V30 36 H 2.7267 1.3121 -0.5564 0
M  V30 37 H -0.6172 -1.2185 5.0452 0
M  V30 38 H -2.8929 1.1733 3.7261 0
M  V30 39 H -2.9559 1.6488 1.2888 0
M  V30 40 H -2.2604 0.0984 -1.0391 0
M  V30 41 H -1.285 1.5542 -0.9271 0
M  V30 42 H 0.9863 0.8425 -3.6538 0
M  V30 43 H 2.2819 1.6594 -2.8276 0
M  V30 44 H 0.6285 3.2425 -3.6121 0
M  V30 45 H -0.674 2.4495 -2.7248 0
M  V30 46 H 0.2573 5.2278 -0.6344 0
M  V30 47 H -1.1105 4.4166 -1.4259 0
M  V30 48 H 0.1261 5.2712 -2.4061 0
M  V30 END ATOM
M  V30 BEGIN BOND
M  V30 1 2 1 2
M  V30 2 1 2 3
M  V30 3 1 2 4
M  V30 4 1 3 5
M  V30 5 1 3 6
M  V30 6 1 4 7
M  V30 7 1 5 8
M  V30 8 1 6 9
M  V30 9 1 6 10
M  V30 10 1 6 11
M  V30 11 1 8 12
M  V30 12 1 9 13
M  V30 13 1 10 14
M  V30 14 1 10 15
M  V30 15 1 11 16
M  V30 16 1 12 17
M  V30 17 2 12 18
M  V30 18 2 13 19
M  V30 19 1 13 20
M  V30 20 1 15 21
M  V30 21 1 21 22
M  V30 22 1 22 23
M  V30 23 1 23 24
M  V30 24 1 24 25
M  V30 25 1 7 10
M  V30 26 2 8 9
M  V30 27 1 15 20
M  V30 28 1 16 21
M  V30 29 1 18 19
M  V30 30 1 3 26
M  V30 31 1 4 27
M  V30 32 1 4 28
M  V30 33 1 7 29
M  V30 34 1 7 30
M  V30 35 1 11 31
M  V30 36 1 11 32
M  V30 37 1 14 33
M  V30 38 1 15 34
M  V30 39 1 16 35
M  V30 40 1 16 36
M  V30 41 1 17 37
M  V30 42 1 18 38
M  V30 43 1 19 39
M  V30 44 1 20 40
M  V30 45 1 20 41
M  V30 46 1 22 42
M  V30 47 1 22 43
M  V30 48 1 23 44
M  V30 49 1 23 45
M  V30 50 1 25 46
M  V30 51 1 25 47
M  V30 52 1 25 48
M  V30 END BOND
M  V30 BEGIN COLLECTION
M  V30 MDLV30/STEABS ATOMS=(4 3 6 10 15)
M  V30 END COLLECTION
M  V30 END CTAB
M  END
>  <NO.>
1992

>  <Name>
semorphone

>  <SMILES>
COCCN1CC[C@]23c4c5ccc(O)c4O[C@H]2C(=O)CC[C@@]3(O)[C@H]1C5

>  <logBB>


>  <Class>
1

>  <MW>
345.16

>  <nHBAcc>
6

>  <nHBDon>
2

>  <SLogP>
0.76

>  <TopoPSA>
79.23

>  <MMFF94 Energy>
122.4

$$$$
COCN1C(=O)CN=C(c2ccccc2)c2cc([N+](=O)[O-])ccc21
Actelion Java MolfileCreator 2.0

  0  0  0  0  0  0              0 V3000
M  V30 BEGIN CTAB
M  V30 COUNTS 39 41 0 0 0
M  V30 BEGIN ATOM
M  V30 1 O -4.6702 -0.804 -0.1607 0
M  V30 2 N -4.2787 -0.1923 0.8424 0 CHG=1
M  V30 3 O -4.9782 0.0566 1.8339 0 CHG=-1
M  V30 4 C -2.8851 0.2701 0.8576 0
M  V30 5 C -2.0688 0.0537 -0.2577 0
M  V30 6 C -2.3858 0.9295 1.9849 0
M  V30 7 C -0.7333 0.4908 -0.2358 0
M  V30 8 C -1.061 1.3757 1.9919 0
M  V30 9 C 0.0997 0.2626 -1.4508 0
M  V30 10 C -0.2187 1.1631 0.8871 0
M  V30 11 N 0.8098 1.1844 -2.0136 0
M  V30 12 C 0.1074 -1.0992 -2.0684 0
M  V30 13 N 1.1184 1.6443 0.9312 0
M  V30 14 C 0.867 2.5086 -1.3858 0
M  V30 15 C 0.0486 -2.2533 -1.2767 0
M  V30 16 C 0.2035 -1.2151 -3.4599 0
M  V30 17 C 1.6734 2.4095 -0.0942 0
M  V30 18 C 1.9269 1.4488 2.122 0
M  V30 19 C 0.055 -3.5126 -1.8798 0
M  V30 20 C 0.2094 -2.476 -4.0579 0
M  V30 21 O 2.7487 3.0008 0.033 0
M  V30 22 O 1.6168 0.1933 2.7245 0
M  V30 23 C 0.1305 -3.6227 -3.2683 0
M  V30 24 C 2.4536 -0.0594 3.8444 0
M  V30 25 H -2.4641 -0.4391 -1.1445 0
M  V30 26 H -3.0083 1.1079 2.8601 0
M  V30 27 H -0.6949 1.896 2.8745 0
M  V30 28 H 1.3924 3.1897 -2.0641 0
M  V30 29 H -0.1234 2.9416 -1.2084 0
M  V30 30 H 0.0201 -2.1906 -0.1922 0
M  V30 31 H 0.2743 -0.3248 -4.0808 0
M  V30 32 H 2.9909 1.4703 1.8592 0
M  V30 33 H 1.7196 2.2695 2.8192 0
M  V30 34 H 0.0112 -4.4094 -1.2668 0
M  V30 35 H 0.2815 -2.5625 -5.1391 0
M  V30 36 H 0.1393 -4.6043 -3.7358 0
M  V30 37 H 2.1652 -1.02 4.2793 0
M  V30 38 H 2.3259 0.7195 4.6023 0
M  V30 39 H 3.5017 -0.1174 3.5354 0
M  V30 END ATOM
M  V30 BEGIN BOND
M  V30 1 2 1 2
M  V30 2 1 2 3
M  V30 3 1 2 4
M  V30 4 2 4 5
M  V30 5 1 4 6
M  V30 6 1 5 7
M  V30 7 2 6 8
M  V30 8 1 7 9
M  V30 9 2 7 10
M  V30 10 2 9 11
M  V30 11 1 9 12
M  V30 12 1 10 13
M  V30 13 1 11 14
M  V30 14 2 12 15
M  V30 15 1 12 16
M  V30 16 1 13 17
M  V30 17 1 13 18
M  V30 18 1 15 19
M  V30 19 2 16 20
M  V30 20 2 17 21
M  V30 21 1 18 22
M  V30 22 2 19 23
M  V30 23 1 22 24
M  V30 24 1 8 10
M  V30 25 1 14 17
M  V30 26 1 20 23
M  V30 27 1 5 25
M  V30 28 1 6 26
M  V30 29 1 8 27
M  V30 30 1 14 28
M  V30 31 1 14 29
M  V30 32 1 15 30
M  V30 33 1 16 31
M  V30 34 1 18 32
M  V30 35 1 18 33
M  V30 36 1 19 34
M  V30 37 1 20 35
M  V30 38 1 23 36
M  V30 39 1 24 37
M  V30 40 1 24 38
M  V30 41 1 24 39
M  V30 END BOND
M  V30 END CTAB
M  END
>  <NO.>
1993

>  <Name>
motrazepam

>  <SMILES>
COCN1C(=O)CN=C(c2ccccc2)c2cc([N+](=O)[O-])ccc21

>  <logBB>


>  <Class>
1

>  <MW>
325.11

>  <nHBAcc>
5

>  <nHBDon>
0

>  <SLogP>
2.38

>  <TopoPSA>
85.04

>  <MMFF94 Energy>
122.85

$$$$
COCOC(=O)C1N2C(=O)C(N3C(=O)C(c4ccc(O)cc4)NC3(C)C)C2SC1(C)C
Actelion Java MolfileCreator 2.0

  0  0  0  0  0  0              0 V3000
M  V30 BEGIN CTAB
M  V30 COUNTS 58 61 0 0 0
M  V30 BEGIN ATOM
M  V30 1 S 2.2695 0.8101 2.9187 0
M  V30 2 C 3.3134 1.9934 1.9034 0
M  V30 3 C 1.2254 0.2947 1.4968 0
M  V30 4 C 2.7369 2.0032 0.4606 0
M  V30 5 C 3.3178 3.3406 2.6317 0
M  V30 6 C 4.7432 1.4258 1.8986 0
M  V30 7 N 1.977 0.7739 0.3502 0
M  V30 8 C 1.4574 -1.1633 0.9677 0
M  V30 9 C 1.8653 3.2218 0.1114 0
M  V30 10 C 2.4145 -0.4392 -0.0499 0
M  V30 11 N 0.2936 -1.8831 0.3618 0
M  V30 12 O 2.2852 4.3728 0.0768 0
M  V30 13 O 0.5796 2.8729 -0.1617 0
M  V30 14 O 3.2885 -0.7315 -0.8301 0
M  V30 15 C -1.0374 -1.6109 0.6642 0
M  V30 16 C 0.4041 -3.1318 -0.3524 0
M  V30 17 C -0.267 3.9632 -0.513 0
M  V30 18 O -1.4514 -0.7745 1.4509 0
M  V30 19 C -1.8809 -2.5581 -0.1754 0
M  V30 20 N -0.8988 -3.2738 -1.0209 0
M  V30 21 C 1.5041 -3.1741 -1.4152 0
M  V30 22 C 0.5907 -4.3099 0.619 0
M  V30 23 O -1.5659 3.491 -0.8765 0
M  V30 24 C -2.9391 -1.8797 -1.0234 0
M  V30 25 C -2.2714 2.9639 0.2404 0
M  V30 26 C -4.1177 -2.5756 -1.3396 0
M  V30 27 C -2.7586 -0.5905 -1.5573 0
M  V30 28 C -5.099 -1.9883 -2.1409 0
M  V30 29 C -3.7421 -0.0018 -2.3566 0
M  V30 30 C -4.9059 -0.7066 -2.6395 0
M  V30 31 O -5.8903 -0.17 -3.4151 0
M  V30 32 H 0.223 0.7175 1.5167 0
M  V30 33 H 3.5362 1.9732 -0.29 0
M  V30 34 H 3.9324 4.0719 2.0948 0
M  V30 35 H 2.3099 3.7573 2.7391 0
M  V30 36 H 3.7419 3.2524 3.6396 0
M  V30 37 H 4.7921 0.4286 1.4474 0
M  V30 38 H 5.4109 2.0765 1.3216 0
M  V30 39 H 5.157 1.355 2.9116 0
M  V30 40 H 1.9925 -1.8192 1.664 0
M  V30 41 H -0.3484 4.6768 0.3159 0
M  V30 42 H 0.1399 4.475 -1.3918 0
M  V30 43 H -2.3489 -3.2657 0.5203 0
M  V30 44 H -0.8479 -2.7704 -1.9074 0
M  V30 45 H 2.4985 -3.1686 -0.9571 0
M  V30 46 H 1.4382 -2.3211 -2.1003 0
M  V30 47 H 1.4386 -4.088 -2.018 0
M  V30 48 H 0.5725 -5.2701 0.0904 0
M  V30 49 H 1.5519 -4.2359 1.1408 0
M  V30 50 H -0.188 -4.3381 1.3902 0
M  V30 51 H -3.2641 2.6539 -0.0971 0
M  V30 52 H -2.3907 3.727 1.0157 0
M  V30 53 H -1.7566 2.0893 0.6474 0
M  V30 54 H -4.2775 -3.5847 -0.965 0
M  V30 55 H -1.8534 -0.021 -1.3538 0
M  V30 56 H -6.01 -2.5311 -2.3768 0
M  V30 57 H -3.579 0.9995 -2.7441 0
M  V30 58 H -5.6219 0.726 -3.6768 0
M  V30 END ATOM
M  V30 BEGIN BOND
M  V30 1 1 1 2
M  V30 2 1 1 3
M  V30 3 1 2 4
M  V30 4 1 2 5
M  V30 5 1 2 6
M  V30 6 1 3 7
M  V30 7 1 3 8
M  V30 8 1 4 9
M  V30 9 1 7 10
M  V30 10 1 8 11
M  V30 11 2 9 12
M  V30 12 1 9 13
M  V30 13 2 10 14
M  V30 14 1 11 15
M  V30 15 1 11 16
M  V30 16 1 13 17
M  V30 17 2 15 18
M  V30 18 1 15 19
M  V30 19 1 16 20
M  V30 20 1 16 21
M  V30 21 1 16 22
M  V30 22 1 17 23
M  V30 23 1 19 24
M  V30 24 1 23 25
M  V30 25 2 24 26
M  V30 26 1 24 27
M  V30 27 1 26 28
M  V30 28 2 27 29
M  V30 29 2 28 30
M  V30 30 1 30 31
M  V30 31 1 4 7
M  V30 32 1 8 10
M  V30 33 1 19 20
M  V30 34 1 29 30
M  V30 35 1 3 32
M  V30 36 1 4 33
M  V30 37 1 5 34
M  V30 38 1 5 35
M  V30 39 1 5 36
M  V30 40 1 6 37
M  V30 41 1 6 38
M  V30 42 1 6 39
M  V30 43 1 8 40
M  V30 44 1 17 41
M  V30 45 1 17 42
M  V30 46 1 19 43
M  V30 47 1 20 44
M  V30 48 1 21 45
M  V30 49 1 21 46
M  V30 50 1 21 47
M  V30 51 1 22 48
M  V30 52 1 22 49
M  V30 53 1 22 50
M  V30 54 1 25 51
M  V30 55 1 25 52
M  V30 56 1 25 53
M  V30 57 1 26 54
M  V30 58 1 27 55
M  V30 59 1 28 56
M  V30 60 1 29 57
M  V30 61 1 31 58
M  V30 END BOND
M  V30 END CTAB
M  END
>  <NO.>
1994

>  <Name>
sarmoxicillin

>  <SMILES>
COCOC(=O)C1N2C(=O)C(N3C(=O)C(c4ccc(O)cc4)NC3(C)C)C2SC1(C)C

>  <logBB>


>  <Class>
-1

>  <MW>
449.16

>  <nHBAcc>
8

>  <nHBDon>
2

>  <SLogP>
1.18

>  <TopoPSA>
108.41

>  <MMFF94 Energy>
35.776

$$$$
COCOC(=O)[C@@H]1N2C(=O)[C@@H](N3C(=O)C(c4ccccc4)NC3(C)C)[C@H]2SC1(C)C
Actelion Java MolfileCreator 2.0

  0  0  0  0  0  0              0 V3000
M  V30 BEGIN CTAB
M  V30 COUNTS 57 60 0 0 0
M  V30 BEGIN ATOM
M  V30 1 S -0.8905 0.6475 1.7816 0
M  V30 2 C -0.1043 2.2295 1.1795 0
M  V30 3 C -2.1885 0.7222 0.4994 0 CFG=1
M  V30 4 C -0.3492 2.2244 -0.3416 0 CFG=1
M  V30 5 C -0.7798 3.388 1.9257 0
M  V30 6 C 1.3884 2.1864 1.512 0
M  V30 7 N -1.5983 1.5204 -0.5682 0
M  V30 8 C -2.3391 -0.4345 -0.5223 0 CFG=1
M  V30 9 C -0.3918 3.6116 -0.9729 0
M  V30 10 C -1.762 0.589 -1.5431 0
M  V30 11 N -1.5731 -1.6876 -0.2924 0
M  V30 12 O -1.3955 4.3038 -1.0942 0
M  V30 13 O 0.8623 4.0002 -1.3292 0
M  V30 14 O -1.4598 0.605 -2.7128 0
M  V30 15 C -0.1994 -1.8208 -0.4835 0
M  V30 16 C -2.1937 -2.939 0.0512 0
M  V30 17 C 0.9035 5.2899 -1.9337 0
M  V30 18 O 0.5726 -0.9516 -0.8561 0
M  V30 19 C 0.1363 -3.2696 -0.1672 0
M  V30 20 N -1.0834 -3.7865 0.4813 0
M  V30 21 C -3.1666 -2.8124 1.2272 0
M  V30 22 C -2.8975 -3.5634 -1.162 0
M  V30 23 O 2.2441 5.6447 -2.2724 0
M  V30 24 C 1.3548 -3.4434 0.7078 0
M  V30 25 C 2.7441 4.8566 -3.3441 0
M  V30 26 C 2.4963 -4.0892 0.2082 0
M  V30 27 C 1.3824 -2.9566 2.0254 0
M  V30 28 C 3.6316 -4.247 1.0061 0
M  V30 29 C 2.518 -3.1147 2.8212 0
M  V30 30 C 3.6419 -3.7604 2.3116 0
M  V30 31 H -3.1367 1.1428 0.8507 0
M  V30 32 H 0.4311 1.6568 -0.8658 0
M  V30 33 H -0.3238 4.3476 1.6561 0
M  V30 34 H -1.8498 3.458 1.6995 0
M  V30 35 H -0.6729 3.2835 3.0121 0
M  V30 36 H 1.8878 1.335 1.0352 0
M  V30 37 H 1.5604 2.1145 2.5923 0
M  V30 38 H 1.89 3.096 1.1632 0
M  V30 39 H -3.3894 -0.6547 -0.7535 0
M  V30 40 H 0.2721 5.3261 -2.8302 0
M  V30 41 H 0.552 6.0382 -1.2148 0
M  V30 42 H 0.2705 -3.7796 -1.1297 0
M  V30 43 H -1.2202 -4.7626 0.2373 0
M  V30 44 H -2.6836 -2.3566 2.0999 0
M  V30 45 H -4.0272 -2.185 0.9701 0
M  V30 46 H -3.5546 -3.7914 1.5322 0
M  V30 47 H -2.2147 -3.678 -2.0121 0
M  V30 48 H -3.3056 -4.5521 -0.9229 0
M  V30 49 H -3.7292 -2.9358 -1.5015 0
M  V30 50 H 3.7602 5.1912 -3.5697 0
M  V30 51 H 2.1286 4.9888 -4.2391 0
M  V30 52 H 2.7826 3.7995 -3.0649 0
M  V30 53 H 2.5142 -4.469 -0.8106 0
M  V30 54 H 0.5131 -2.4481 2.4387 0
M  V30 55 H 4.5106 -4.7456 0.6066 0
M  V30 56 H 2.5239 -2.7303 3.8376 0
M  V30 57 H 4.5267 -3.8806 2.9305 0
M  V30 END ATOM
M  V30 BEGIN BOND
M  V30 1 1 1 2
M  V30 2 1 1 3
M  V30 3 1 2 4
M  V30 4 1 2 5
M  V30 5 1 2 6
M  V30 6 1 3 7
M  V30 7 1 3 8
M  V30 8 1 4 9
M  V30 9 1 7 10
M  V30 10 1 8 11
M  V30 11 2 9 12
M  V30 12 1 9 13
M  V30 13 2 10 14
M  V30 14 1 11 15
M  V30 15 1 11 16
M  V30 16 1 13 17
M  V30 17 2 15 18
M  V30 18 1 15 19
M  V30 19 1 16 20
M  V30 20 1 16 21
M  V30 21 1 16 22
M  V30 22 1 17 23
M  V30 23 1 19 24
M  V30 24 1 23 25
M  V30 25 2 24 26
M  V30 26 1 24 27
M  V30 27 1 26 28
M  V30 28 2 27 29
M  V30 29 2 28 30
M  V30 30 1 4 7
M  V30 31 1 8 10
M  V30 32 1 19 20
M  V30 33 1 29 30
M  V30 34 1 3 31
M  V30 35 1 4 32
M  V30 36 1 5 33
M  V30 37 1 5 34
M  V30 38 1 5 35
M  V30 39 1 6 36
M  V30 40 1 6 37
M  V30 41 1 6 38
M  V30 42 1 8 39
M  V30 43 1 17 40
M  V30 44 1 17 41
M  V30 45 1 19 42
M  V30 46 1 20 43
M  V30 47 1 21 44
M  V30 48 1 21 45
M  V30 49 1 21 46
M  V30 50 1 22 47
M  V30 51 1 22 48
M  V30 52 1 22 49
M  V30 53 1 25 50
M  V30 54 1 25 51
M  V30 55 1 25 52
M  V30 56 1 26 53
M  V30 57 1 27 54
M  V30 58 1 28 55
M  V30 59 1 29 56
M  V30 60 1 30 57
M  V30 END BOND
M  V30 BEGIN COLLECTION
M  V30 MDLV30/STEABS ATOMS=(3 3 4 8)
M  V30 END COLLECTION
M  V30 END CTAB
M  END
>  <NO.>
1995

>  <Name>
sarpicillin

>  <SMILES>
COCOC(=O)[C@@H]1N2C(=O)[C@@H](N3C(=O)C(c4ccccc4)NC3(C)C)[C@H]2SC1(C)C

>  <logBB>


>  <Class>
-1

>  <MW>
433.17

>  <nHBAcc>
7

>  <nHBDon>
1

>  <SLogP>
1.47

>  <TopoPSA>
88.18

>  <MMFF94 Energy>
47.266

$$$$
COC[C@H]1CN(c2ccc(OCC[C@@H](O)C(F)(F)F)cc2)C(=O)O1
Actelion Java MolfileCreator 2.0

  0  0  0  0  0  0              0 V3000
M  V30 BEGIN CTAB
M  V30 COUNTS 42 43 0 0 0
M  V30 BEGIN ATOM
M  V30 1 F 1.6794 -7.2128 -2.7201 0
M  V30 2 C 2.4505 -6.4542 -1.9081 0
M  V30 3 F 3.7082 -6.4607 -2.4023 0
M  V30 4 F 2.4863 -7.072 -0.7027 0
M  V30 5 C 1.8886 -5.0293 -1.7713 0 CFG=2
M  V30 6 O 1.7883 -4.3585 -3.0404 0
M  V30 7 C 2.7691 -4.1978 -0.8294 0
M  V30 8 C 2.2944 -2.755 -0.6733 0
M  V30 9 O 0.9244 -2.7674 -0.2769 0
M  V30 10 C 0.3128 -1.5572 -0.107 0
M  V30 11 C -1.0273 -1.6277 0.2733 0
M  V30 12 C 0.9029 -0.3064 -0.2755 0
M  V30 13 C -1.7744 -0.4634 0.4801 0
M  V30 14 C 0.154 0.8606 -0.0701 0
M  V30 15 C -1.1918 0.7948 0.3079 0
M  V30 16 N -1.9401 1.9735 0.4966 0
M  V30 17 C -2.9741 2.1482 1.3974 0
M  V30 18 C -1.8259 3.1201 -0.3502 0
M  V30 19 O -3.4014 1.3557 2.2224 0
M  V30 20 O -3.5334 3.3887 1.2234 0
M  V30 21 C -2.7009 4.1503 0.3341 0 CFG=1
M  V30 22 C -1.9252 5.2034 1.1336 0
M  V30 23 O -0.9006 4.5919 1.9194 0
M  V30 24 C -0.2621 5.5273 2.7786 0
M  V30 25 H 0.8728 -5.1134 -1.3674 0
M  V30 26 H 1.0578 -3.7169 -2.9659 0
M  V30 27 H 3.8012 -4.177 -1.1993 0
M  V30 28 H 2.7795 -4.6784 0.1564 0
M  V30 29 H 2.905 -2.2638 0.0939 0
M  V30 30 H 2.4111 -2.2237 -1.6254 0
M  V30 31 H -1.5006 -2.5959 0.4176 0
M  V30 32 H 1.9451 -0.1965 -0.5556 0
M  V30 33 H -2.8169 -0.5629 0.7731 0
M  V30 34 H 0.6551 1.8177 -0.1824 0
M  V30 35 H -0.7957 3.4592 -0.4869 0
M  V30 36 H -2.2417 2.8548 -1.3294 0
M  V30 37 H -3.3505 4.6574 -0.3876 0
M  V30 38 H -2.6144 5.7421 1.7945 0
M  V30 39 H -1.4553 5.9142 0.4445 0
M  V30 40 H 0.5214 5.0053 3.3339 0
M  V30 41 H -0.9795 5.9421 3.4931 0
M  V30 42 H 0.1973 6.331 2.1953 0
M  V30 END ATOM
M  V30 BEGIN BOND
M  V30 1 1 1 2
M  V30 2 1 2 3
M  V30 3 1 2 4
M  V30 4 1 2 5
M  V30 5 1 5 6
M  V30 6 1 5 7
M  V30 7 1 7 8
M  V30 8 1 8 9
M  V30 9 1 9 10
M  V30 10 2 10 11
M  V30 11 1 10 12
M  V30 12 1 11 13
M  V30 13 2 12 14
M  V30 14 2 13 15
M  V30 15 1 15 16
M  V30 16 1 16 17
M  V30 17 1 16 18
M  V30 18 2 17 19
M  V30 19 1 17 20
M  V30 20 1 18 21
M  V30 21 1 21 22
M  V30 22 1 22 23
M  V30 23 1 23 24
M  V30 24 1 14 15
M  V30 25 1 20 21
M  V30 26 1 5 25
M  V30 27 1 6 26
M  V30 28 1 7 27
M  V30 29 1 7 28
M  V30 30 1 8 29
M  V30 31 1 8 30
M  V30 32 1 11 31
M  V30 33 1 12 32
M  V30 34 1 13 33
M  V30 35 1 14 34
M  V30 36 1 18 35
M  V30 37 1 18 36
M  V30 38 1 21 37
M  V30 39 1 22 38
M  V30 40 1 22 39
M  V30 41 1 24 40
M  V30 42 1 24 41
M  V30 43 1 24 42
M  V30 END BOND
M  V30 BEGIN COLLECTION
M  V30 MDLV30/STEABS ATOMS=(2 5 21)
M  V30 END COLLECTION
M  V30 END CTAB
M  END
>  <NO.>
1996

>  <Name>
befloxatone

>  <SMILES>
COC[C@H]1CN(c2ccc(OCC[C@@H](O)C(F)(F)F)cc2)C(=O)O1

>  <logBB>


>  <Class>
1

>  <MW>
349.11

>  <nHBAcc>
5

>  <nHBDon>
1

>  <SLogP>
2.35

>  <TopoPSA>
68.23

>  <MMFF94 Energy>
72.763

$$$$
COCc1c(C(C)C)nc(C(C)C)c(/C=C/[C@@H](O)C[C@@H](O)CC(=O)O)c1-c1ccc(F)cc1
Actelion Java MolfileCreator 2.0

  0  0  0  0  0  0              0 V3000
M  V30 BEGIN CTAB
M  V30 COUNTS 67 68 0 0 0
M  V30 BEGIN ATOM
M  V30 1 F -0.3153 5.5303 0.0 0
M  V30 2 C -0.0411 4.2408 0.2358 0
M  V30 3 C 0.8267 3.562 -0.6095 0
M  V30 4 C -0.6248 3.6037 1.3238 0
M  V30 5 C 1.1139 2.2185 -0.3634 0
M  V30 6 C -0.3353 2.2602 1.5726 0
M  V30 7 C 0.5361 1.5477 0.7304 0
M  V30 8 C 0.8405 0.12 0.9792 0
M  V30 9 C -0.122 -0.8807 0.6838 0
M  V30 10 C 2.103 -0.2656 1.5039 0
M  V30 11 C 0.2113 -2.2191 0.9267 0
M  V30 12 C -1.4429 -0.5295 0.1315 0
M  V30 13 C 2.3676 -1.6356 1.6486 0
M  V30 14 C 3.1408 0.7677 1.8753 0
M  V30 15 N 1.4321 -2.5821 1.389 0
M  V30 16 C -0.738 -3.3694 0.6256 0
M  V30 17 C -1.6095 -0.1421 -1.1439 0
M  V30 18 C 3.7015 -2.1731 2.1458 0
M  V30 19 O 4.0484 0.9153 0.7857 0
M  V30 20 C -0.3833 -4.0044 -0.7199 0
M  V30 21 C -0.7203 -4.4249 1.7374 0
M  V30 22 C -2.9108 0.2725 -1.773 0 CFG=1
M  V30 23 C 3.6125 -2.5027 3.6367 0
M  V30 24 C 4.1491 -3.407 1.3523 0
M  V30 25 C 5.0116 1.9275 1.0428 0
M  V30 26 O -4.0099 -0.2689 -1.0513 0
M  V30 27 C -3.0306 1.7989 -1.8188 0
M  V30 28 C -4.3728 2.3099 -2.3619 0 CFG=1
M  V30 29 O -4.3648 3.7434 -2.3403 0
M  V30 30 C -4.758 1.8159 -3.7557 0
M  V30 31 C -3.6551 1.9819 -4.7607 0
M  V30 32 O -3.1633 1.0966 -5.4398 0
M  V30 33 O -3.2304 3.2556 -4.8799 0
M  V30 34 H 1.2741 4.0795 -1.4514 0
M  V30 35 H -1.3042 4.1531 1.9677 0
M  V30 36 H 1.7968 1.6884 -1.0257 0
M  V30 37 H -0.7993 1.7655 2.4235 0
M  V30 38 H -2.2767 -0.5746 0.8277 0
M  V30 39 H 2.6831 1.7326 2.1195 0
M  V30 40 H 3.6814 0.4651 2.7798 0
M  V30 41 H -1.7696 -3.0043 0.5718 0
M  V30 42 H -0.7409 -0.0823 -1.7986 0
M  V30 43 H 4.4881 -1.4259 2.0006 0
M  V30 44 H 0.6296 -4.4225 -0.7139 0
M  V30 45 H -1.0802 -4.8139 -0.9619 0
M  V30 46 H -0.4327 -3.2676 -1.5293 0
M  V30 47 H 0.2558 -4.9155 1.8221 0
M  V30 48 H -0.9545 -3.9736 2.7082 0
M  V30 49 H -1.4658 -5.2029 1.5402 0
M  V30 50 H -2.951 -0.1462 -2.784 0
M  V30 51 H 4.5774 -2.8588 4.013 0
M  V30 52 H 3.3308 -1.6196 4.2207 0
M  V30 53 H 2.8663 -3.2811 3.8334 0
M  V30 54 H 4.1943 -3.1863 0.28 0
M  V30 55 H 3.469 -4.2547 1.4926 0
M  V30 56 H 5.1468 -3.7272 1.6716 0
M  V30 57 H 5.6854 1.9875 0.184 0
M  V30 58 H 5.5994 1.6804 1.9321 0
M  V30 59 H 4.5226 2.8981 1.1709 0
M  V30 60 H -3.8718 -1.2313 -1.0132 0
M  V30 61 H -2.9187 2.2073 -0.8041 0
M  V30 62 H -2.1997 2.2302 -2.3921 0
M  V30 63 H -5.1694 2.0147 -1.6691 0
M  V30 64 H -3.7917 4.0472 -3.0713 0
M  V30 65 H -5.0189 0.7524 -3.7191 0
M  V30 66 H -5.6334 2.3558 -4.1347 0
M  V30 67 H -2.5588 3.2164 -5.5956 0
M  V30 END ATOM
M  V30 BEGIN BOND
M  V30 1 1 1 2
M  V30 2 2 2 3
M  V30 3 1 2 4
M  V30 4 1 3 5
M  V30 5 2 4 6
M  V30 6 2 5 7
M  V30 7 1 7 8
M  V30 8 2 8 9
M  V30 9 1 8 10
M  V30 10 1 9 11
M  V30 11 1 9 12
M  V30 12 2 10 13
M  V30 13 1 10 14
M  V30 14 2 11 15
M  V30 15 1 11 16
M  V30 16 2 12 17
M  V30 17 1 13 18
M  V30 18 1 14 19
M  V30 19 1 16 20
M  V30 20 1 16 21
M  V30 21 1 17 22
M  V30 22 1 18 23
M  V30 23 1 18 24
M  V30 24 1 19 25
M  V30 25 1 22 26
M  V30 26 1 22 27
M  V30 27 1 27 28
M  V30 28 1 28 29
M  V30 29 1 28 30
M  V30 30 1 30 31
M  V30 31 2 31 32
M  V30 32 1 31 33
M  V30 33 1 6 7
M  V30 34 1 13 15
M  V30 35 1 3 34
M  V30 36 1 4 35
M  V30 37 1 5 36
M  V30 38 1 6 37
M  V30 39 1 12 38
M  V30 40 1 14 39
M  V30 41 1 14 40
M  V30 42 1 16 41
M  V30 43 1 17 42
M  V30 44 1 18 43
M  V30 45 1 20 44
M  V30 46 1 20 45
M  V30 47 1 20 46
M  V30 48 1 21 47
M  V30 49 1 21 48
M  V30 50 1 21 49
M  V30 51 1 22 50
M  V30 52 1 23 51
M  V30 53 1 23 52
M  V30 54 1 23 53
M  V30 55 1 24 54
M  V30 56 1 24 55
M  V30 57 1 24 56
M  V30 58 1 25 57
M  V30 59 1 25 58
M  V30 60 1 25 59
M  V30 61 1 26 60
M  V30 62 1 27 61
M  V30 63 1 27 62
M  V30 64 1 28 63
M  V30 65 1 29 64
M  V30 66 1 30 65
M  V30 67 1 30 66
M  V30 68 1 33 67
M  V30 END BOND
M  V30 BEGIN COLLECTION
M  V30 MDLV30/STEABS ATOMS=(2 22 28)
M  V30 END COLLECTION
M  V30 END CTAB
M  END
>  <NO.>
1998

>  <Name>
cerivastatin

>  <SMILES>
COCc1c(C(C)C)nc(C(C)C)c(/C=C/[C@@H](O)C[C@@H](O)CC(=O)O)c1-c1ccc(F)cc1

>  <logBB>


>  <Class>
1

>  <MW>
459.24

>  <nHBAcc>
5

>  <nHBDon>
3

>  <SLogP>
4.88

>  <TopoPSA>
99.88

>  <MMFF94 Energy>
42.139

$$$$
CON=C(C#N)C1CN2CCC1CC2
Actelion Java MolfileCreator 2.0

  0  0  0  0  0  0              0 V3000
M  V30 BEGIN CTAB
M  V30 COUNTS 29 30 0 0 0
M  V30 BEGIN ATOM
M  V30 1 O -2.5618 0.0799 0.0 0
M  V30 2 N -2.3148 -0.4605 1.2589 0
M  V30 3 C -3.9326 -0.1285 -0.3226 0
M  V30 4 C -1.0847 -0.3289 1.6461 0
M  V30 5 C -0.9322 -0.8512 2.9936 0
M  V30 6 C 0.1465 0.2941 1.0065 0 CFG=2
M  V30 7 N -0.7605 -1.2562 4.0696 0
M  V30 8 C 0.0787 0.8442 -0.4349 0
M  V30 9 C 1.3415 -0.6937 1.0756 0
M  V30 10 C 1.3543 1.6862 -0.6553 0
M  V30 11 C 0.1436 -0.3254 -1.4373 0
M  V30 12 N 2.2292 -0.5808 -0.1051 0
M  V30 13 C 2.5899 0.8381 -0.3131 0
M  V30 14 C 1.4867 -1.0576 -1.2917 0
M  V30 15 H -4.5743 0.3738 0.4077 0
M  V30 16 H -4.1563 -1.1993 -0.3499 0
M  V30 17 H -4.1227 0.297 -1.3113 0
M  V30 18 H 0.3827 1.1482 1.6606 0
M  V30 19 H -0.7974 1.4746 -0.6065 0
M  V30 20 H 1.929 -0.4908 1.9806 0
M  V30 21 H 1.0067 -1.7351 1.1709 0
M  V30 22 H 1.4042 2.0217 -1.6984 0
M  V30 23 H 1.3326 2.5845 -0.027 0
M  V30 24 H -0.6769 -1.0304 -1.2685 0
M  V30 25 H 0.0385 0.0516 -2.4616 0
M  V30 26 H 3.0804 1.2303 0.5867 0
M  V30 27 H 3.3333 0.9214 -1.1153 0
M  V30 28 H 2.0955 -0.9192 -2.1941 0
M  V30 29 H 1.3156 -2.1384 -1.2145 0
M  V30 END ATOM
M  V30 BEGIN BOND
M  V30 1 1 1 2
M  V30 2 1 1 3
M  V30 3 2 2 4
M  V30 4 1 4 5
M  V30 5 1 4 6
M  V30 6 3 5 7
M  V30 7 1 6 8
M  V30 8 1 6 9
M  V30 9 1 8 10
M  V30 10 1 8 11
M  V30 11 1 9 12
M  V30 12 1 10 13
M  V30 13 1 11 14
M  V30 14 1 12 13
M  V30 15 1 12 14
M  V30 16 1 3 15
M  V30 17 1 3 16
M  V30 18 1 3 17
M  V30 19 1 6 18
M  V30 20 1 8 19
M  V30 21 1 9 20
M  V30 22 1 9 21
M  V30 23 1 10 22
M  V30 24 1 10 23
M  V30 25 1 11 24
M  V30 26 1 11 25
M  V30 27 1 13 26
M  V30 28 1 13 27
M  V30 29 1 14 28
M  V30 30 1 14 29
M  V30 END BOND
M  V30 BEGIN COLLECTION
M  V30 MDLV30/STERAC1 ATOMS=(1 6)
M  V30 END COLLECTION
M  V30 END CTAB
M  END
>  <NO.>
1999

>  <Name>
sabcomeline

>  <SMILES>
CON=C(C#N)C1CN2CCC1CC2

>  <logBB>


>  <Class>
1

>  <MW>
193.12

>  <nHBAcc>
4

>  <nHBDon>
0

>  <SLogP>
0.85

>  <TopoPSA>
48.62

>  <MMFF94 Energy>
64.443

$$$$
CO[C@@H]1O[C@H]2O[C@]3(CN4CCCCC4)[C@@H](O)C[C@@H]([C@H]13)[C@H]2C
Actelion Java MolfileCreator 2.0

  0  0  0  0  0  0              0 V3000
M  V30 BEGIN CTAB
M  V30 COUNTS 48 51 0 0 0
M  V30 BEGIN ATOM
M  V30 1 O 0.1603 -1.4439 0.5613 0
M  V30 2 C 0.9468 -0.4738 -0.1746 0 CFG=1
M  V30 3 C 0.0989 -1.1222 1.958 0 CFG=2
M  V30 4 C 1.2341 0.7347 0.7358 0 CFG=1
M  V30 5 C 2.3552 -1.1285 -0.3827 0 CFG=1
M  V30 6 C 0.2649 -0.1301 -1.5273 0
M  V30 7 O -0.6466 0.0749 2.1377 0
M  V30 8 C 1.5168 -0.986 2.5406 0 CFG=1
M  V30 9 C -0.0193 1.1783 1.4855 0 CFG=1
M  V30 10 C 2.2527 0.0939 1.7087 0 CFG=1
M  V30 11 O 2.9711 -0.8367 -1.6307 0
M  V30 12 C 3.2359 -0.5463 0.7293 0
M  V30 13 N -1.0248 0.5931 -1.4737 0
M  V30 14 C 1.4985 -0.6403 4.0288 0
M  V30 15 O 0.3709 2.1761 2.4365 0
M  V30 16 C -2.1731 -0.254 -1.1055 0
M  V30 17 C -1.3096 1.2955 -2.7377 0
M  V30 18 C -0.7547 2.7841 3.0553 0
M  V30 19 C -2.6078 -1.24 -2.1938 0
M  V30 20 C -1.6847 0.3651 -3.8935 0
M  V30 21 C -2.8609 -0.5296 -3.5189 0
M  V30 22 H -0.4428 -1.9306 2.459 0
M  V30 23 H 1.7014 1.5688 0.1979 0
M  V30 24 H 2.3022 -2.219 -0.2766 0
M  V30 25 H 0.9696 0.5109 -2.0728 0
M  V30 26 H 0.1623 -1.0493 -2.1155 0
M  V30 27 H 2.0318 -1.9496 2.435 0
M  V30 28 H -0.7425 1.6304 0.8024 0
M  V30 29 H 2.758 0.8313 2.341 0
M  V30 30 H 2.6328 -1.4793 -2.2789 0
M  V30 31 H 3.8579 -1.3154 1.1995 0
M  V30 32 H 3.9177 0.2146 0.3289 0
M  V30 33 H 0.9584 -1.4071 4.594 0
M  V30 34 H 2.5197 -0.5929 4.4218 0
M  V30 35 H 1.0199 0.3223 4.2282 0
M  V30 36 H -3.0192 0.4095 -0.8804 0
M  V30 37 H -1.9958 -0.7948 -0.1738 0
M  V30 38 H -0.4571 1.9224 -3.0268 0
M  V30 39 H -2.1353 1.9982 -2.5633 0
M  V30 40 H -0.3918 3.5518 3.7442 0
M  V30 41 H -1.328 2.0505 3.6296 0
M  V30 42 H -1.3943 3.2642 2.3084 0
M  V30 43 H -3.5226 -1.754 -1.8766 0
M  V30 44 H -1.8459 -2.016 -2.33 0
M  V30 45 H -0.8244 -0.2535 -4.175 0
M  V30 46 H -1.9457 0.9618 -4.775 0
M  V30 47 H -3.0433 -1.2639 -4.311 0
M  V30 48 H -3.7681 0.0816 -3.4343 0
M  V30 END ATOM
M  V30 BEGIN BOND
M  V30 1 1 1 2
M  V30 2 1 1 3
M  V30 3 1 2 4
M  V30 4 1 2 5
M  V30 5 1 2 6
M  V30 6 1 3 7
M  V30 7 1 3 8
M  V30 8 1 4 9
M  V30 9 1 4 10
M  V30 10 1 5 11
M  V30 11 1 5 12
M  V30 12 1 6 13
M  V30 13 1 8 14
M  V30 14 1 9 15
M  V30 15 1 13 16
M  V30 16 1 13 17
M  V30 17 1 15 18
M  V30 18 1 16 19
M  V30 19 1 17 20
M  V30 20 1 19 21
M  V30 21 1 7 9
M  V30 22 1 8 10
M  V30 23 1 10 12
M  V30 24 1 20 21
M  V30 25 1 3 22
M  V30 26 1 4 23
M  V30 27 1 5 24
M  V30 28 1 6 25
M  V30 29 1 6 26
M  V30 30 1 8 27
M  V30 31 1 9 28
M  V30 32 1 10 29
M  V30 33 1 11 30
M  V30 34 1 12 31
M  V30 35 1 12 32
M  V30 36 1 14 33
M  V30 37 1 14 34
M  V30 38 1 14 35
M  V30 39 1 16 36
M  V30 40 1 16 37
M  V30 41 1 17 38
M  V30 42 1 17 39
M  V30 43 1 18 40
M  V30 44 1 18 41
M  V30 45 1 18 42
M  V30 46 1 19 43
M  V30 47 1 19 44
M  V30 48 1 20 45
M  V30 49 1 20 46
M  V30 50 1 21 47
M  V30 51 1 21 48
M  V30 END BOND
M  V30 BEGIN COLLECTION
M  V30 MDLV30/STEABS ATOMS=(7 2 3 4 5 8 9 10)
M  V30 END COLLECTION
M  V30 END CTAB
M  END
>  <NO.>
2000

>  <Name>
valperinol

>  <SMILES>
CO[C@@H]1O[C@H]2O[C@]3(CN4CCCCC4)[C@@H](O)C[C@@H]([C@H]13)[C@H]2C

>  <logBB>


>  <Class>
1

>  <MW>
297.19

>  <nHBAcc>
5

>  <nHBDon>
1

>  <SLogP>
1.2

>  <TopoPSA>
51.16

>  <MMFF94 Energy>
39.209

$$$$
CO[C@@]1(NC(=O)C(C(=O)O)c2ccsc2)C(=O)N2[C@@H](C(=O)O)C(C)(C)S[C@@H]21
Actelion Java MolfileCreator 2.0

  0  0  0  0  0  0              0 V3000
M  V30 BEGIN CTAB
M  V30 COUNTS 45 47 0 0 0
M  V30 BEGIN ATOM
M  V30 1 S -3.8084 0.7442 -1.3234 0
M  V30 2 C -3.1815 1.3641 0.1395 0
M  V30 3 C -3.6945 -0.8591 -0.7531 0
M  V30 4 C -2.8808 0.3779 1.0666 0
M  V30 5 C -3.1867 -0.9187 0.5258 0
M  V30 6 C -2.2913 0.6781 2.4356 0
M  V30 7 C -2.5771 -0.3852 3.4659 0
M  V30 8 C -0.8162 1.0407 2.3174 0
M  V30 9 O -3.4782 -0.3627 4.2911 0
M  V30 10 O -1.7781 -1.4731 3.3957 0
M  V30 11 O -0.4138 2.1717 2.581 0
M  V30 12 N 0.0149 0.0461 1.8624 0
M  V30 13 C 1.4272 0.2613 1.4408 0 CFG=2
M  V30 14 O 2.3861 0.2589 2.5349 0
M  V30 15 C 1.6484 1.3881 0.3111 0
M  V30 16 C 1.8557 -0.705 0.2565 0 CFG=2
M  V30 17 C 2.4254 1.4135 3.3621 0
M  V30 18 O 1.4945 2.577 0.154 0
M  V30 19 N 1.9653 0.4488 -0.6189 0
M  V30 20 S 0.5472 -1.7185 -0.5599 0
M  V30 21 C 1.4176 0.4089 -1.9616 0 CFG=2
M  V30 22 C 1.025 -1.0553 -2.2422 0
M  V30 23 C 2.4001 0.9935 -2.9653 0
M  V30 24 C 2.1668 -1.9296 -2.7776 0
M  V30 25 C -0.1886 -1.1497 -3.1682 0
M  V30 26 O 3.6191 0.9569 -2.9129 0
M  V30 27 O 1.7854 1.5403 -4.0353 0
M  V30 28 H -3.0545 2.4343 0.25 0
M  V30 29 H -4.0031 -1.6834 -1.3817 0
M  V30 30 H -3.0423 -1.8617 1.0404 0
M  V30 31 H -2.788 1.5835 2.8165 0
M  V30 32 H -2.1096 -2.0495 4.1205 0
M  V30 33 H -0.386 -0.8784 1.7282 0
M  V30 34 H 2.81 -1.2233 0.3927 0
M  V30 35 H 3.3532 1.3863 3.9401 0
M  V30 36 H 2.4155 2.3319 2.7702 0
M  V30 37 H 1.587 1.3983 4.0627 0
M  V30 38 H 0.5318 1.0599 -1.9554 0
M  V30 39 H 1.8695 -2.9832 -2.8413 0
M  V30 40 H 2.4548 -1.6217 -3.7893 0
M  V30 41 H 3.0636 -1.8718 -2.1506 0
M  V30 42 H 0.052 -0.7605 -4.1638 0
M  V30 43 H -0.5211 -2.1864 -3.2953 0
M  V30 44 H -1.0365 -0.5691 -2.7887 0
M  V30 45 H 2.5214 1.9038 -4.5732 0
M  V30 END ATOM
M  V30 BEGIN BOND
M  V30 1 1 1 2
M  V30 2 1 1 3
M  V30 3 2 2 4
M  V30 4 2 3 5
M  V30 5 1 4 6
M  V30 6 1 6 7
M  V30 7 1 6 8
M  V30 8 2 7 9
M  V30 9 1 7 10
M  V30 10 2 8 11
M  V30 11 1 8 12
M  V30 12 1 12 13
M  V30 13 1 13 14
M  V30 14 1 13 15
M  V30 15 1 13 16
M  V30 16 1 14 17
M  V30 17 2 15 18
M  V30 18 1 15 19
M  V30 19 1 16 20
M  V30 20 1 19 21
M  V30 21 1 20 22
M  V30 22 1 21 23
M  V30 23 1 22 24
M  V30 24 1 22 25
M  V30 25 2 23 26
M  V30 26 1 23 27
M  V30 27 1 4 5
M  V30 28 1 16 19
M  V30 29 1 21 22
M  V30 30 1 2 28
M  V30 31 1 3 29
M  V30 32 1 5 30
M  V30 33 1 6 31
M  V30 34 1 10 32
M  V30 35 1 12 33
M  V30 36 1 16 34
M  V30 37 1 17 35
M  V30 38 1 17 36
M  V30 39 1 17 37
M  V30 40 1 21 38
M  V30 41 1 24 39
M  V30 42 1 24 40
M  V30 43 1 24 41
M  V30 44 1 25 42
M  V30 45 1 25 43
M  V30 46 1 25 44
M  V30 47 1 27 45
M  V30 END BOND
M  V30 BEGIN COLLECTION
M  V30 MDLV30/STEABS ATOMS=(3 13 16 21)
M  V30 END COLLECTION
M  V30 END CTAB
M  END
>  <NO.>
2004

>  <Name>
temocillin

>  <SMILES>
CO[C@@]1(NC(=O)C(C(=O)O)c2ccsc2)C(=O)N2[C@@H](C(=O)O)C(C)(C)S[C@@H]21

>  <logBB>


>  <Class>
-1

>  <MW>
414.06

>  <nHBAcc>
7

>  <nHBDon>
3

>  <SLogP>
0.52

>  <TopoPSA>
133.24

>  <MMFF94 Energy>
62.919

$$$$
CO[C@H]1CC[C@H]2[C@H]3Cc4ccc(O)c5c4[C@@]2(CCN3C)[C@H]1O5
Actelion Java MolfileCreator 2.0

  0  0  0  0  0  0              0 V3000
M  V30 BEGIN CTAB
M  V30 COUNTS 45 49 0 0 0
M  V30 BEGIN ATOM
M  V30 1 O -0.5657 2.4261 -0.7273 0
M  V30 2 C 0.6316 1.9263 -0.2577 0
M  V30 3 C -1.4034 1.2233 -0.8335 0 CFG=2
M  V30 4 C 1.8748 2.512 -0.3144 0
M  V30 5 C 0.4909 0.651 0.2557 0
M  V30 6 C -0.945 0.2709 0.2865 0 CFG=2
M  V30 7 C -1.3536 0.6328 -2.2808 0 CFG=1
M  V30 8 O 2.0168 3.7714 -0.8106 0
M  V30 9 C 2.9794 1.7656 0.1187 0
M  V30 10 C 1.5536 -0.1401 0.6456 0
M  V30 11 C -1.1295 -1.2332 0.0879 0 CFG=2
M  V30 12 C -1.5218 0.6404 1.673 0
M  V30 13 O -0.0478 0.6676 -2.8806 0
M  V30 14 C -1.7715 -0.8426 -2.2966 0
M  V30 15 C 2.8217 0.4378 0.5789 0
M  V30 16 C 1.2807 -1.575 1.0145 0
M  V30 17 C -0.2426 -1.9426 1.1516 0 CFG=1
M  V30 18 C -0.9017 -1.6843 -1.3545 0
M  V30 19 C -0.9051 -0.2096 2.7981 0
M  V30 20 C 0.1607 1.8121 -3.6989 0
M  V30 21 N -0.8641 -1.6413 2.4698 0
M  V30 22 C -0.2928 -2.4168 3.5667 0
M  V30 23 H -2.4406 1.5279 -0.6414 0
M  V30 24 H -2.0485 1.1988 -2.915 0
M  V30 25 H 2.9567 4.0081 -0.7861 0
M  V30 26 H 3.9804 2.1852 0.0778 0
M  V30 27 H -2.1815 -1.4836 0.3004 0
M  V30 28 H -2.6085 0.4798 1.6609 0
M  V30 29 H -1.3699 1.7018 1.9082 0
M  V30 30 H -1.6663 -1.2428 -3.3122 0
M  V30 31 H -2.8274 -0.9354 -2.0151 0
M  V30 32 H 3.7003 -0.135 0.8658 0
M  V30 33 H 1.7 -2.1989 0.2141 0
M  V30 34 H 1.83 -1.8318 1.9257 0
M  V30 35 H -0.3347 -3.0258 0.9954 0
M  V30 36 H 0.1526 -1.6119 -1.6418 0
M  V30 37 H -1.1805 -2.7402 -1.4535 0
M  V30 38 H 0.0967 0.1649 3.0416 0
M  V30 39 H -1.5137 -0.0606 3.6991 0
M  V30 40 H -0.4745 1.7531 -4.588 0
M  V30 41 H 1.2054 1.8158 -4.0211 0
M  V30 42 H -0.0428 2.7417 -3.1622 0
M  V30 43 H -0.2862 -3.4855 3.3266 0
M  V30 44 H -0.9066 -2.305 4.4678 0
M  V30 45 H 0.7276 -2.1107 3.8178 0
M  V30 END ATOM
M  V30 BEGIN BOND
M  V30 1 1 1 2
M  V30 2 1 1 3
M  V30 3 2 2 4
M  V30 4 1 2 5
M  V30 5 1 3 6
M  V30 6 1 3 7
M  V30 7 1 4 8
M  V30 8 1 4 9
M  V30 9 2 5 10
M  V30 10 1 6 11
M  V30 11 1 6 12
M  V30 12 1 7 13
M  V30 13 1 7 14
M  V30 14 2 9 15
M  V30 15 1 10 16
M  V30 16 1 11 17
M  V30 17 1 11 18
M  V30 18 1 12 19
M  V30 19 1 13 20
M  V30 20 1 17 21
M  V30 21 1 21 22
M  V30 22 1 5 6
M  V30 23 1 10 15
M  V30 24 1 14 18
M  V30 25 1 16 17
M  V30 26 1 19 21
M  V30 27 1 3 23
M  V30 28 1 7 24
M  V30 29 1 8 25
M  V30 30 1 9 26
M  V30 31 1 11 27
M  V30 32 1 12 28
M  V30 33 1 12 29
M  V30 34 1 14 30
M  V30 35 1 14 31
M  V30 36 1 15 32
M  V30 37 1 16 33
M  V30 38 1 16 34
M  V30 39 1 17 35
M  V30 40 1 18 36
M  V30 41 1 18 37
M  V30 42 1 19 38
M  V30 43 1 19 39
M  V30 44 1 20 40
M  V30 45 1 20 41
M  V30 46 1 20 42
M  V30 47 1 22 43
M  V30 48 1 22 44
M  V30 49 1 22 45
M  V30 END BOND
M  V30 BEGIN COLLECTION
M  V30 MDLV30/STEABS ATOMS=(5 3 6 7 11 17)
M  V30 END COLLECTION
M  V30 END CTAB
M  END
>  <NO.>
2014

>  <Name>
dihydroheterocodeine

>  <SMILES>
CO[C@H]1CC[C@H]2[C@H]3Cc4ccc(O)c5c4[C@@]2(CCN3C)[C@H]1O5

>  <logBB>


>  <Class>
1

>  <MW>
301.17

>  <nHBAcc>
4

>  <nHBDon>
1

>  <SLogP>
2.08

>  <TopoPSA>
41.93

>  <MMFF94 Energy>
98.361

$$$$
CO[C@]12CC[C@@]3(C[C@@H]1C(C)(C)O)[C@H]1Cc4ccc(O)c5c4[C@@]3(CCN1CC1CC1)[C@H]2O5
Actelion Java MolfileCreator 2.0

  0  0  0  0  0  0              0 V3000
M  V30 BEGIN CTAB
M  V30 COUNTS 66 72 0 0 0
M  V30 BEGIN ATOM
M  V30 1 O 2.5097 -2.1046 -0.4853 0
M  V30 2 C 2.4144 -2.0623 0.8807 0
M  V30 3 C 1.714 -0.9856 -0.993 0 CFG=1
M  V30 4 C 2.8912 -2.998 1.7731 0
M  V30 5 C 1.6358 -1.0223 1.3282 0
M  V30 6 C 0.4546 -1.3921 -1.8487 0 CFG=2
M  V30 7 C 1.2294 -0.1461 0.2053 0 CFG=2
M  V30 8 O 3.6741 -4.0203 1.3317 0
M  V30 9 C 2.5195 -2.8915 3.1194 0
M  V30 10 C 1.1278 -0.9619 2.6167 0
M  V30 11 O 0.7712 -2.0763 -3.0703 0
M  V30 12 C -0.235 -0.0155 -2.2559 0 CFG=1
M  V30 13 C -0.5029 -2.2221 -0.9638 0
M  V30 14 C -0.3076 -0.0101 0.284 0 CFG=1
M  V30 15 C 1.9472 1.2159 0.2749 0
M  V30 16 C 1.6158 -1.8914 3.5362 0
M  V30 17 C -0.0492 -0.0469 2.8875 0
M  V30 18 C 1.5933 -3.2309 -2.9714 0
M  V30 19 C -1.2024 -0.011 -3.4841 0
M  V30 20 C -0.8075 0.7006 -0.9992 0
M  V30 21 C -1.0164 -1.402 0.2266 0
M  V30 22 C -0.5893 0.7495 1.6258 0 CFG=1
M  V30 23 C 1.4451 2.1072 1.4161 0
M  V30 24 O -0.4673 -0.4004 -4.6536 0
M  V30 25 C -1.7104 1.4086 -3.7819 0
M  V30 26 C -2.3966 -0.9578 -3.371 0
M  V30 27 N -0.0213 2.1167 1.5003 0
M  V30 28 C -0.4816 3.0725 2.5143 0
M  V30 29 C -1.9524 3.3457 2.372 0
M  V30 30 C -2.4778 4.7607 2.4075 0
M  V30 31 C -2.5 3.9868 1.1199 0
M  V30 32 H 2.4021 -0.4226 -1.6372 0
M  V30 33 H 3.9246 -4.5722 2.0889 0
M  V30 34 H 2.8707 -3.6145 3.8502 0
M  V30 35 H 0.6045 0.6089 -2.6041 0
M  V30 36 H 0.0075 -3.1142 -0.5819 0
M  V30 37 H -1.3424 -2.6254 -1.5353 0
M  V30 38 H 3.0315 1.081 0.3837 0
M  V30 39 H 1.8036 1.7534 -0.6712 0
M  V30 40 H 1.2618 -1.8859 4.5646 0
M  V30 41 H 0.1959 0.6224 3.7178 0
M  V30 42 H -0.8752 -0.6802 3.2389 0
M  V30 43 H 1.5518 -3.7501 -3.9334 0
M  V30 44 H 1.2458 -3.9229 -2.2016 0
M  V30 45 H 2.6341 -2.9448 -2.8021 0
M  V30 46 H -1.9039 0.7045 -1.0046 0
M  V30 47 H -0.5125 1.7556 -1.0326 0
M  V30 48 H -0.8948 -1.9891 1.1422 0
M  V30 49 H -2.1015 -1.2617 0.1314 0
M  V30 50 H -1.6781 0.8301 1.7259 0
M  V30 51 H 1.8975 1.7977 2.3659 0
M  V30 52 H 1.8117 3.1233 1.2222 0
M  V30 53 H 0.0427 -1.2006 -4.4037 0
M  V30 54 H -0.8725 2.1082 -3.883 0
M  V30 55 H -2.3836 1.7826 -3.0048 0
M  V30 56 H -2.2477 1.438 -4.7373 0
M  V30 57 H -2.9592 -0.8082 -2.4454 0
M  V30 58 H -2.0851 -2.0039 -3.4429 0
M  V30 59 H -3.087 -0.8091 -4.2103 0
M  V30 60 H -0.2645 2.7372 3.5341 0
M  V30 61 H 0.0561 4.0204 2.3831 0
M  V30 62 H -2.5573 2.5904 2.8607 0
M  V30 63 H -1.7748 5.5818 2.4888 0
M  V30 64 H -3.4234 4.9385 2.9073 0
M  V30 65 H -1.8002 4.2684 0.3408 0
M  V30 66 H -3.4552 3.6339 0.7494 0
M  V30 END ATOM
M  V30 BEGIN BOND
M  V30 1 1 1 2
M  V30 2 1 1 3
M  V30 3 2 2 4
M  V30 4 1 2 5
M  V30 5 1 3 6
M  V30 6 1 3 7
M  V30 7 1 4 8
M  V30 8 1 4 9
M  V30 9 2 5 10
M  V30 10 1 6 11
M  V30 11 1 6 12
M  V30 12 1 6 13
M  V30 13 1 7 14
M  V30 14 1 7 15
M  V30 15 2 9 16
M  V30 16 1 10 17
M  V30 17 1 11 18
M  V30 18 1 12 19
M  V30 19 1 12 20
M  V30 20 1 13 21
M  V30 21 1 14 22
M  V30 22 1 15 23
M  V30 23 1 19 24
M  V30 24 1 19 25
M  V30 25 1 19 26
M  V30 26 1 22 27
M  V30 27 1 27 28
M  V30 28 1 28 29
M  V30 29 1 29 30
M  V30 30 1 29 31
M  V30 31 1 5 7
M  V30 32 1 10 16
M  V30 33 1 14 20
M  V30 34 1 14 21
M  V30 35 1 17 22
M  V30 36 1 23 27
M  V30 37 1 30 31
M  V30 38 1 3 32
M  V30 39 1 8 33
M  V30 40 1 9 34
M  V30 41 1 12 35
M  V30 42 1 13 36
M  V30 43 1 13 37
M  V30 44 1 15 38
M  V30 45 1 15 39
M  V30 46 1 16 40
M  V30 47 1 17 41
M  V30 48 1 17 42
M  V30 49 1 18 43
M  V30 50 1 18 44
M  V30 51 1 18 45
M  V30 52 1 20 46
M  V30 53 1 20 47
M  V30 54 1 21 48
M  V30 55 1 21 49
M  V30 56 1 22 50
M  V30 57 1 23 51
M  V30 58 1 23 52
M  V30 59 1 24 53
M  V30 60 1 25 54
M  V30 61 1 25 55
M  V30 62 1 25 56
M  V30 63 1 26 57
M  V30 64 1 26 58
M  V30 65 1 26 59
M  V30 66 1 28 60
M  V30 67 1 28 61
M  V30 68 1 29 62
M  V30 69 1 30 63
M  V30 70 1 30 64
M  V30 71 1 31 65
M  V30 72 1 31 66
M  V30 END BOND
M  V30 BEGIN COLLECTION
M  V30 MDLV30/STEABS ATOMS=(6 3 6 7 12 14 22)
M  V30 END COLLECTION
M  V30 END CTAB
M  END
>  <NO.>
2017

>  <Name>
diprenorphine

>  <SMILES>
CO[C@]12CC[C@@]3(C[C@@H]1C(C)(C)O)[C@H]1Cc4ccc(O)c5c4[C@@]3(CCN1CC1CC1)[C@H]2O5

>  <logBB>


>  <Class>
1

>  <MW>
425.26

>  <nHBAcc>
5

>  <nHBDon>
2

>  <SLogP>
3.39

>  <TopoPSA>
62.16

>  <MMFF94 Energy>
154.62

$$$$
CO[C@]12CC[C@@]3(C[C@@H]1[C@](C)(O)C(C)(C)C)[C@H]1Cc4ccc(O)c5c4[C@@]3(CCN1CC1CC1)[C@H]2O5
Actelion Java MolfileCreator 2.0

  0  0  0  0  0  0              0 V3000
M  V30 BEGIN CTAB
M  V30 COUNTS 75 81 0 0 0
M  V30 BEGIN ATOM
M  V30 1 O -2.5829 2.5829 0.0 0
M  V30 2 C -1.7156 3.3536 -0.7279 0
M  V30 3 C -1.8028 1.4303 0.4703 0 CFG=1
M  V30 4 C -2.043 4.4664 -1.4691 0
M  V30 5 C -0.4495 2.8318 -0.7949 0
M  V30 6 C -2.2687 0.0275 -0.0831 0 CFG=2
M  V30 7 C -0.3279 1.6355 0.0682 0 CFG=2
M  V30 8 O -3.288 5.0121 -1.4151 0
M  V30 9 C -1.085 5.0127 -2.3243 0
M  V30 10 C 0.4816 3.248 -1.7344 0
M  V30 11 O -3.594 -0.341 0.3247 0
M  V30 12 C -1.2521 -1.036 0.5666 0 CFG=1
M  V30 13 C -2.1334 0.0313 -1.6239 0
M  V30 14 C 0.2312 0.5057 -0.8225 0 CFG=1
M  V30 15 C 0.5647 1.9184 1.2923 0
M  V30 16 C 0.1697 4.3879 -2.4801 0
M  V30 17 C 1.6552 2.3385 -2.0372 0
M  V30 18 C -4.6486 0.5665 0.0425 0
M  V30 19 C -1.7142 -2.5481 0.6972 0 CFG=2
M  V30 20 C 0.1647 -0.8274 -0.0341 0
M  V30 21 C -0.6791 0.2371 -2.0616 0
M  V30 22 C 1.6704 0.9738 -1.229 0 CFG=1
M  V30 23 C 2.0485 2.0709 0.9377 0
M  V30 24 O -2.9471 -2.538 1.4525 0
M  V30 25 C -0.7386 -3.5043 1.537 0
M  V30 26 C -2.0709 -3.1522 -0.6705 0
M  V30 27 N 2.499 1.0309 0.0029 0
M  V30 28 C -0.3387 -2.8517 2.8825 0
M  V30 29 C 0.5542 -3.9047 0.7963 0
M  V30 30 C -1.4541 -4.8368 1.9101 0
M  V30 31 C 3.9347 1.1247 -0.2876 0
M  V30 32 C 4.7247 0.5946 0.8762 0
M  V30 33 C 4.6754 -0.871 1.2339 0
M  V30 34 C 5.9296 -0.2855 0.6484 0
M  V30 35 H -1.9356 1.4332 1.5603 0
M  V30 36 H -3.7861 4.4744 -0.7713 0
M  V30 37 H -1.3337 5.8863 -2.9214 0
M  V30 38 H -1.1974 -0.7069 1.6152 0
M  V30 39 H -2.7442 0.8316 -2.0583 0
M  V30 40 H -2.5369 -0.8792 -2.073 0
M  V30 41 H 0.2327 2.825 1.8158 0
M  V30 42 H 0.4653 1.0989 2.0158 0
M  V30 43 H 0.8642 4.7679 -3.2255 0
M  V30 44 H 1.5929 2.0754 -3.1019 0
M  V30 45 H 2.5908 2.8935 -1.9127 0
M  V30 46 H -5.5929 0.0405 0.212 0
M  V30 47 H -4.6375 0.9082 -0.9943 0
M  V30 48 H -4.6206 1.4119 0.7341 0
M  V30 49 H 0.9007 -0.8518 0.7752 0
M  V30 50 H 0.429 -1.6435 -0.7142 0
M  V30 51 H -0.3288 -0.6566 -2.5949 0
M  V30 52 H -0.6412 1.0351 -2.8098 0
M  V30 53 H 2.0955 0.2004 -1.8831 0
M  V30 54 H 2.2362 3.0747 0.5377 0
M  V30 55 H 2.611 2.0095 1.8766 0
M  V30 56 H -3.5127 -1.833 1.0723 0
M  V30 57 H -1.2596 -3.0515 -1.3959 0
M  V30 58 H -2.9746 -2.6924 -1.0817 0
M  V30 59 H -2.3244 -4.2133 -0.5965 0
M  V30 60 H -1.2196 -2.547 3.458 0
M  V30 61 H 0.2331 -3.55 3.5055 0
M  V30 62 H 0.2947 -1.9715 2.7396 0
M  V30 63 H 1.2625 -3.0794 0.7075 0
M  V30 64 H 1.0873 -4.6928 1.3431 0
M  V30 65 H 0.3482 -4.2975 -0.2036 0
M  V30 66 H -0.8091 -5.4664 2.5359 0
M  V30 67 H -2.373 -4.666 2.4807 0
M  V30 68 H -1.7057 -5.4303 1.0266 0
M  V30 69 H 4.2452 2.1524 -0.5095 0
M  V30 70 H 4.1784 0.5235 -1.1726 0
M  V30 71 H 4.789 1.3098 1.6883 0
M  V30 72 H 4.0774 -1.5296 0.6139 0
M  V30 73 H 4.6725 -1.1316 2.286 0
M  V30 74 H 6.1917 -0.5668 -0.3649 0
M  V30 75 H 6.7824 -0.1568 1.3055 0
M  V30 END ATOM
M  V30 BEGIN BOND
M  V30 1 1 1 2
M  V30 2 1 1 3
M  V30 3 2 2 4
M  V30 4 1 2 5
M  V30 5 1 3 6
M  V30 6 1 3 7
M  V30 7 1 4 8
M  V30 8 1 4 9
M  V30 9 2 5 10
M  V30 10 1 6 11
M  V30 11 1 6 12
M  V30 12 1 6 13
M  V30 13 1 7 14
M  V30 14 1 7 15
M  V30 15 2 9 16
M  V30 16 1 10 17
M  V30 17 1 11 18
M  V30 18 1 12 19
M  V30 19 1 12 20
M  V30 20 1 13 21
M  V30 21 1 14 22
M  V30 22 1 15 23
M  V30 23 1 19 24
M  V30 24 1 19 25
M  V30 25 1 19 26
M  V30 26 1 22 27
M  V30 27 1 25 28
M  V30 28 1 25 29
M  V30 29 1 25 30
M  V30 30 1 27 31
M  V30 31 1 31 32
M  V30 32 1 32 33
M  V30 33 1 32 34
M  V30 34 1 5 7
M  V30 35 1 10 16
M  V30 36 1 14 20
M  V30 37 1 14 21
M  V30 38 1 17 22
M  V30 39 1 23 27
M  V30 40 1 33 34
M  V30 41 1 3 35
M  V30 42 1 8 36
M  V30 43 1 9 37
M  V30 44 1 12 38
M  V30 45 1 13 39
M  V30 46 1 13 40
M  V30 47 1 15 41
M  V30 48 1 15 42
M  V30 49 1 16 43
M  V30 50 1 17 44
M  V30 51 1 17 45
M  V30 52 1 18 46
M  V30 53 1 18 47
M  V30 54 1 18 48
M  V30 55 1 20 49
M  V30 56 1 20 50
M  V30 57 1 21 51
M  V30 58 1 21 52
M  V30 59 1 22 53
M  V30 60 1 23 54
M  V30 61 1 23 55
M  V30 62 1 24 56
M  V30 63 1 26 57
M  V30 64 1 26 58
M  V30 65 1 26 59
M  V30 66 1 28 60
M  V30 67 1 28 61
M  V30 68 1 28 62
M  V30 69 1 29 63
M  V30 70 1 29 64
M  V30 71 1 29 65
M  V30 72 1 30 66
M  V30 73 1 30 67
M  V30 74 1 30 68
M  V30 75 1 31 69
M  V30 76 1 31 70
M  V30 77 1 32 71
M  V30 78 1 33 72
M  V30 79 1 33 73
M  V30 80 1 34 74
M  V30 81 1 34 75
M  V30 END BOND
M  V30 BEGIN COLLECTION
M  V30 MDLV30/STEABS ATOMS=(7 3 6 7 12 14 19 22)
M  V30 END COLLECTION
M  V30 END CTAB
M  END
>  <NO.>
2018

>  <Name>
buprenorphine

>  <SMILES>
CO[C@]12CC[C@@]3(C[C@@H]1[C@](C)(O)C(C)(C)C)[C@H]1Cc4ccc(O)c5c4[C@@]3(CCN1CC1CC1)[C@H]2O5

>  <logBB>


>  <Class>
1

>  <MW>
467.3

>  <nHBAcc>
5

>  <nHBDon>
2

>  <SLogP>
4.41

>  <TopoPSA>
62.16

>  <MMFF94 Energy>
172.15

$$$$
COc1cc(/C=C/C(=O)N2CCCCCCC2)cc(OC)c1OC
Actelion Java MolfileCreator 2.0

  0  0  0  0  0  0              0 V3000
M  V30 BEGIN CTAB
M  V30 COUNTS 51 52 0 0 0
M  V30 BEGIN ATOM
M  V30 1 O 3.147 0.2357 0.7074 0
M  V30 2 C 2.2796 0.5086 -0.1222 0
M  V30 3 N 2.4684 1.4622 -1.1221 0
M  V30 4 C 0.968 -0.1982 -0.0647 0
M  V30 5 C 3.7858 2.102 -1.1891 0
M  V30 6 C 1.5138 1.7656 -2.1923 0
M  V30 7 C 0.7215 -1.0613 0.9343 0
M  V30 8 C 3.7951 3.5995 -1.4961 0
M  V30 9 C 0.3748 2.6947 -1.7616 0
M  V30 10 C -0.5351 -1.8107 1.0621 0
M  V30 11 C 3.1402 4.4798 -0.4336 0
M  V30 12 C 0.7761 4.1279 -1.3988 0
M  V30 13 C -0.4753 -3.1743 1.3851 0
M  V30 14 C -1.7824 -1.1851 0.9148 0
M  V30 15 C 1.6562 4.2368 -0.1515 0
M  V30 16 C -1.6451 -3.9241 1.5287 0
M  V30 17 C -2.9646 -1.9154 1.0574 0
M  V30 18 O -1.6865 -5.2611 1.83 0
M  V30 19 C -2.8841 -3.2895 1.338 0
M  V30 20 O -4.2254 -1.3936 0.9208 0
M  V30 21 C -0.467 -5.8819 2.2126 0
M  V30 22 O -4.0462 -4.009 1.5152 0
M  V30 23 C -4.3471 0.0219 0.9378 0
M  V30 24 C -4.4509 -4.5833 0.2742 0
M  V30 25 H 0.2303 -0.0274 -0.8318 0
M  V30 26 H 4.3452 1.935 -0.2622 0
M  V30 27 H 4.3366 1.577 -1.9795 0
M  V30 28 H 2.0454 2.181 -3.0549 0
M  V30 29 H 1.0893 0.8216 -2.5507 0
M  V30 30 H 1.4753 -1.2604 1.6945 0
M  V30 31 H 4.8443 3.9117 -1.5824 0
M  V30 32 H 3.357 3.8038 -2.4778 0
M  V30 33 H -0.3416 2.7496 -2.591 0
M  V30 34 H -0.1728 2.2628 -0.9164 0
M  V30 35 H 3.6939 4.3836 0.5085 0
M  V30 36 H 3.2613 5.5247 -0.7482 0
M  V30 37 H -0.1552 4.6734 -1.1963 0
M  V30 38 H 1.2319 4.6305 -2.2588 0
M  V30 39 H 0.5007 -3.6335 1.5072 0
M  V30 40 H -1.8105 -0.1232 0.6948 0
M  V30 41 H 1.5281 3.3641 0.498 0
M  V30 42 H 1.3028 5.09 0.4428 0
M  V30 43 H 0.2311 -5.9252 1.3706 0
M  V30 44 H -0.6942 -6.9106 2.5084 0
M  V30 45 H -0.0173 -5.3794 3.0754 0
M  V30 46 H -3.8842 0.4531 1.8319 0
M  V30 47 H -5.4135 0.2655 0.965 0
M  V30 48 H -3.9297 0.4603 0.0258 0
M  V30 49 H -4.6593 -3.8113 -0.4745 0
M  V30 50 H -5.376 -5.1405 0.4497 0
M  V30 51 H -3.7011 -5.2859 -0.105 0
M  V30 END ATOM
M  V30 BEGIN BOND
M  V30 1 2 1 2
M  V30 2 1 2 3
M  V30 3 1 2 4
M  V30 4 1 3 5
M  V30 5 1 3 6
M  V30 6 2 4 7
M  V30 7 1 5 8
M  V30 8 1 6 9
M  V30 9 1 7 10
M  V30 10 1 8 11
M  V30 11 1 9 12
M  V30 12 2 10 13
M  V30 13 1 10 14
M  V30 14 1 11 15
M  V30 15 1 13 16
M  V30 16 2 14 17
M  V30 17 1 16 18
M  V30 18 2 16 19
M  V30 19 1 17 20
M  V30 20 1 18 21
M  V30 21 1 19 22
M  V30 22 1 20 23
M  V30 23 1 22 24
M  V30 24 1 12 15
M  V30 25 1 17 19
M  V30 26 1 4 25
M  V30 27 1 5 26
M  V30 28 1 5 27
M  V30 29 1 6 28
M  V30 30 1 6 29
M  V30 31 1 7 30
M  V30 32 1 8 31
M  V30 33 1 8 32
M  V30 34 1 9 33
M  V30 35 1 9 34
M  V30 36 1 11 35
M  V30 37 1 11 36
M  V30 38 1 12 37
M  V30 39 1 12 38
M  V30 40 1 13 39
M  V30 41 1 14 40
M  V30 42 1 15 41
M  V30 43 1 15 42
M  V30 44 1 21 43
M  V30 45 1 21 44
M  V30 46 1 21 45
M  V30 47 1 23 46
M  V30 48 1 23 47
M  V30 49 1 23 48
M  V30 50 1 24 49
M  V30 51 1 24 50
M  V30 52 1 24 51
M  V30 END BOND
M  V30 END CTAB
M  END
>  <NO.>
2019

>  <Name>
cinoctramide

>  <SMILES>
COc1cc(/C=C/C(=O)N2CCCCCCC2)cc(OC)c1OC

>  <logBB>


>  <Class>
1

>  <MW>
333.19

>  <nHBAcc>
4

>  <nHBDon>
0

>  <SLogP>
3.52

>  <TopoPSA>
48

>  <MMFF94 Energy>
47.832

$$$$
COc1cc(/C=C/C(N)=O)cc(OC)c1OC
Actelion Java MolfileCreator 2.0

  0  0  0  0  0  0              0 V3000
M  V30 BEGIN CTAB
M  V30 COUNTS 32 32 0 0 0
M  V30 BEGIN ATOM
M  V30 1 O -4.9171 1.4029 0.3116 0
M  V30 2 C -4.2734 1.4804 -0.7241 0
M  V30 3 N -4.8138 1.9608 -1.8747 0
M  V30 4 C -2.858 1.0703 -0.8529 0
M  V30 5 C -2.2222 0.5519 0.2086 0
M  V30 6 C -0.826 0.0986 0.1706 0
M  V30 7 C 0.1876 0.8869 -0.395 0
M  V30 8 C -0.5038 -1.1349 0.7554 0
M  V30 9 C 1.5124 0.4438 -0.4014 0
M  V30 10 C 0.8133 -1.5996 0.757 0
M  V30 11 O 2.5693 1.1368 -0.9334 0
M  V30 12 C 1.8156 -0.7946 0.1896 0
M  V30 13 O 1.2225 -2.7946 1.2904 0
M  V30 14 C 2.2844 2.3507 -1.6137 0
M  V30 15 O 3.1122 -1.2605 0.1475 0
M  V30 16 C 0.2157 -3.6878 1.7458 0
M  V30 17 C 3.8108 -0.8497 1.3215 0
M  V30 18 H -5.7814 2.2547 -1.8433 0
M  V30 19 H -4.3168 2.031 -2.7497 0
M  V30 20 H -2.3756 1.1871 -1.8142 0
M  V30 21 H -2.7443 0.4189 1.1553 0
M  V30 22 H -0.0768 1.8521 -0.8136 0
M  V30 23 H -1.3034 -1.7211 1.1981 0
M  V30 24 H 1.6076 2.1832 -2.4581 0
M  V30 25 H 3.2259 2.7386 -2.0142 0
M  V30 26 H 1.8816 3.1015 -0.926 0
M  V30 27 H -0.3144 -3.2739 2.6098 0
M  V30 28 H 0.7083 -4.6098 2.0694 0
M  V30 29 H -0.4797 -3.9472 0.9407 0
M  V30 30 H 3.8619 0.242 1.3953 0
M  V30 31 H 4.8341 -1.2306 1.2518 0
M  V30 32 H 3.3561 -1.2691 2.2256 0
M  V30 END ATOM
M  V30 BEGIN BOND
M  V30 1 2 1 2
M  V30 2 1 2 3
M  V30 3 1 2 4
M  V30 4 2 4 5
M  V30 5 1 5 6
M  V30 6 2 6 7
M  V30 7 1 6 8
M  V30 8 1 7 9
M  V30 9 2 8 10
M  V30 10 1 9 11
M  V30 11 2 9 12
M  V30 12 1 10 13
M  V30 13 1 11 14
M  V30 14 1 12 15
M  V30 15 1 13 16
M  V30 16 1 15 17
M  V30 17 1 10 12
M  V30 18 1 3 18
M  V30 19 1 3 19
M  V30 20 1 4 20
M  V30 21 1 5 21
M  V30 22 1 7 22
M  V30 23 1 8 23
M  V30 24 1 14 24
M  V30 25 1 14 25
M  V30 26 1 14 26
M  V30 27 1 16 27
M  V30 28 1 16 28
M  V30 29 1 16 29
M  V30 30 1 17 30
M  V30 31 1 17 31
M  V30 32 1 17 32
M  V30 END BOND
M  V30 END CTAB
M  END
>  <NO.>
2020

>  <Name>
cintriamide

>  <SMILES>
COc1cc(/C=C/C(N)=O)cc(OC)c1OC

>  <logBB>


>  <Class>
1

>  <MW>
237.1

>  <nHBAcc>
4

>  <nHBDon>
1

>  <SLogP>
1.21

>  <TopoPSA>
70.78

>  <MMFF94 Energy>
18.749

$$$$
COc1cc(Br)c2oc(C3CCNCC3)cc2c1
Actelion Java MolfileCreator 2.0

  0  0  0  0  0  0              0 V3000
M  V30 BEGIN CTAB
M  V30 COUNTS 34 36 0 0 0
M  V30 BEGIN ATOM
M  V30 1 Br -3.5636 -1.9426 1.2138 0
M  V30 2 C -1.8345 -1.4249 1.7608 0
M  V30 3 C -0.8782 -0.9676 0.856 0
M  V30 4 C -1.4674 -1.4894 3.112 0
M  V30 5 O -1.0298 -0.8315 -0.4913 0
M  V30 6 C 0.4015 -0.579 1.2296 0
M  V30 7 C -0.188 -1.1077 3.5258 0
M  V30 8 C 0.1442 -0.3452 -0.9944 0
M  V30 9 C 0.7544 -0.6509 2.589 0
M  V30 10 C 1.0549 -0.1856 0.0316 0
M  V30 11 O 0.2749 -1.1312 4.8151 0
M  V30 12 C 0.1621 -0.1341 -2.4798 0
M  V30 13 C -0.627 -1.5765 5.821 0
M  V30 14 C -0.8585 0.9297 -2.9124 0
M  V30 15 C 1.5506 0.2072 -3.0396 0
M  V30 16 C -0.3614 2.3477 -2.6402 0
M  V30 17 C 1.9445 1.6678 -2.8114 0
M  V30 18 N 0.9247 2.5982 -3.2931 0
M  V30 19 H -2.2045 -1.844 3.8255 0
M  V30 20 H 1.7472 -0.3555 2.9172 0
M  V30 21 H 2.0711 0.17 -0.0597 0
M  V30 22 H -0.1432 -1.0923 -2.9233 0
M  V30 23 H -1.5014 -0.9204 5.8853 0
M  V30 24 H -0.1051 -1.5307 6.7818 0
M  V30 25 H -0.9235 -2.6169 5.6521 0
M  V30 26 H -1.8251 0.7793 -2.4165 0
M  V30 27 H -1.0442 0.8217 -3.9897 0
M  V30 28 H 2.3188 -0.4537 -2.6206 0
M  V30 29 H 1.5412 0.0198 -4.1222 0
M  V30 30 H -0.2797 2.5342 -1.5627 0
M  V30 31 H -1.0936 3.067 -3.0242 0
M  V30 32 H 2.1458 1.8618 -1.7525 0
M  V30 33 H 2.8822 1.8725 -3.3404 0
M  V30 34 H 0.8152 2.488 -4.3015 0
M  V30 END ATOM
M  V30 BEGIN BOND
M  V30 1 1 1 2
M  V30 2 2 2 3
M  V30 3 1 2 4
M  V30 4 1 3 5
M  V30 5 1 3 6
M  V30 6 2 4 7
M  V30 7 1 5 8
M  V30 8 2 6 9
M  V30 9 1 6 10
M  V30 10 1 7 11
M  V30 11 1 8 12
M  V30 12 1 11 13
M  V30 13 1 12 14
M  V30 14 1 12 15
M  V30 15 1 14 16
M  V30 16 1 15 17
M  V30 17 1 16 18
M  V30 18 1 7 9
M  V30 19 2 8 10
M  V30 20 1 17 18
M  V30 21 1 4 19
M  V30 22 1 9 20
M  V30 23 1 10 21
M  V30 24 1 12 22
M  V30 25 1 13 23
M  V30 26 1 13 24
M  V30 27 1 13 25
M  V30 28 1 14 26
M  V30 29 1 14 27
M  V30 30 1 15 28
M  V30 31 1 15 29
M  V30 32 1 16 30
M  V30 33 1 16 31
M  V30 34 1 17 32
M  V30 35 1 17 33
M  V30 36 1 18 34
M  V30 END BOND
M  V30 END CTAB
M  END
>  <NO.>
2021

>  <Name>
brofaromine

>  <SMILES>
COc1cc(Br)c2oc(C3CCNCC3)cc2c1

>  <logBB>


>  <Class>
1

>  <MW>
309.04

>  <nHBAcc>
3

>  <nHBDon>
1

>  <SLogP>
3.67

>  <TopoPSA>
34.4

>  <MMFF94 Energy>
17.707

$$$$
COc1cc(C(=O)/C=C/N2CC=CC2)cc(OC)c1OC
Actelion Java MolfileCreator 2.0

  0  0  0  0  0  0              0 V3000
M  V30 BEGIN CTAB
M  V30 COUNTS 40 41 0 0 0
M  V30 BEGIN ATOM
M  V30 1 O -2.9192 1.1826 1.4982 0
M  V30 2 C -1.8503 1.0357 0.9121 0
M  V30 3 C -1.0313 -0.1734 1.1714 0
M  V30 4 C -1.3906 2.0772 -0.0424 0
M  V30 5 C 0.3651 -0.1026 1.2738 0
M  V30 6 C -1.7015 -1.3886 1.3685 0
M  V30 7 C -0.6145 1.8418 -1.1082 0
M  V30 8 C 1.1047 -1.2587 1.5252 0
M  V30 9 C -0.9785 -2.5521 1.6287 0
M  V30 10 N -0.1592 2.7424 -2.052 0
M  V30 11 O 2.4711 -1.3068 1.6249 0
M  V30 12 C 0.4252 -2.4813 1.6774 0
M  V30 13 O -1.5348 -3.7894 1.8248 0
M  V30 14 C 0.6785 2.3583 -3.1946 0
M  V30 15 C -0.4578 4.1788 -2.0657 0
M  V30 16 C 3.1732 -0.0712 1.6386 0
M  V30 17 O 1.1482 -3.6176 1.9695 0
M  V30 18 C -2.9404 -3.8432 2.0332 0
M  V30 19 C 0.8955 3.6533 -3.8969 0
M  V30 20 C 0.2695 4.6563 -3.275 0
M  V30 21 C 1.4815 -4.3023 0.7637 0
M  V30 22 H -1.7983 3.0627 0.1508 0
M  V30 23 H 0.8532 0.8598 1.1645 0
M  V30 24 H -2.786 -1.3945 1.3083 0
M  V30 25 H -0.2722 0.832 -1.3278 0
M  V30 26 H 0.1574 1.6449 -3.841 0
M  V30 27 H 1.6287 1.9321 -2.8572 0
M  V30 28 H -1.5334 4.3579 -2.164 0
M  V30 29 H -0.076 4.6692 -1.1644 0
M  V30 30 H 3.0821 0.442 0.6759 0
M  V30 31 H 4.233 -0.2907 1.7992 0
M  V30 32 H 2.8369 0.5679 2.4619 0
M  V30 33 H -3.2459 -3.2007 2.866 0
M  V30 34 H -3.1999 -4.8735 2.2953 0
M  V30 35 H -3.4811 -3.5875 1.1164 0
M  V30 36 H 1.4851 3.7511 -4.796 0
M  V30 37 H 0.2764 5.6874 -3.5952 0
M  V30 38 H 0.5839 -4.6357 0.2315 0
M  V30 39 H 2.0626 -5.1895 1.0326 0
M  V30 40 H 2.1003 -3.6793 0.1086 0
M  V30 END ATOM
M  V30 BEGIN BOND
M  V30 1 2 1 2
M  V30 2 1 2 3
M  V30 3 1 2 4
M  V30 4 2 3 5
M  V30 5 1 3 6
M  V30 6 2 4 7
M  V30 7 1 5 8
M  V30 8 2 6 9
M  V30 9 1 7 10
M  V30 10 1 8 11
M  V30 11 2 8 12
M  V30 12 1 9 13
M  V30 13 1 10 14
M  V30 14 1 10 15
M  V30 15 1 11 16
M  V30 16 1 12 17
M  V30 17 1 13 18
M  V30 18 1 14 19
M  V30 19 1 15 20
M  V30 20 1 17 21
M  V30 21 1 9 12
M  V30 22 2 19 20
M  V30 23 1 4 22
M  V30 24 1 5 23
M  V30 25 1 6 24
M  V30 26 1 7 25
M  V30 27 1 14 26
M  V30 28 1 14 27
M  V30 29 1 15 28
M  V30 30 1 15 29
M  V30 31 1 16 30
M  V30 32 1 16 31
M  V30 33 1 16 32
M  V30 34 1 18 33
M  V30 35 1 18 34
M  V30 36 1 18 35
M  V30 37 1 19 36
M  V30 38 1 20 37
M  V30 39 1 21 38
M  V30 40 1 21 39
M  V30 41 1 21 40
M  V30 END BOND
M  V30 END CTAB
M  END
>  <NO.>
2022

>  <Name>
roletamide

>  <SMILES>
COc1cc(C(=O)/C=C/N2CC=CC2)cc(OC)c1OC

>  <logBB>


>  <Class>
1

>  <MW>
289.13

>  <nHBAcc>
5

>  <nHBDon>
0

>  <SLogP>
2.28

>  <TopoPSA>
48

>  <MMFF94 Energy>
81.459

$$$$
COc1cc(C(=O)N2CCCCCCC2)cc(OC)c1OC
Actelion Java MolfileCreator 2.0

  0  0  0  0  0  0              0 V3000
M  V30 BEGIN CTAB
M  V30 COUNTS 47 48 0 0 0
M  V30 BEGIN ATOM
M  V30 1 O -2.7545 0.3931 0.2358 0
M  V30 2 C -1.6336 0.2389 -0.2423 0
M  V30 3 N -1.074 1.0766 -1.2125 0
M  V30 4 C -0.8475 -0.9051 0.2556 0
M  V30 5 C 0.2911 0.9372 -1.7318 0
M  V30 6 C -1.95 2.0908 -1.7977 0
M  V30 7 C -0.4259 -0.8948 1.5893 0
M  V30 8 C -0.5788 -1.9866 -0.5914 0
M  V30 9 C 1.0452 2.2385 -2.0045 0
M  V30 10 C -2.1505 3.3233 -0.9116 0
M  V30 11 C 0.3164 -1.9659 2.0824 0
M  V30 12 C 0.1628 -3.0641 -0.1114 0
M  V30 13 C 1.3837 3.0533 -0.7572 0
M  V30 14 C -0.9177 4.2053 -0.6946 0
M  V30 15 O 0.796 -2.0574 3.3634 0
M  V30 16 C 0.6303 -3.0312 1.2166 0
M  V30 17 O 0.5051 -4.1648 -0.8534 0
M  V30 18 C 0.2066 3.5314 0.0945 0
M  V30 19 C 0.2592 -1.153 4.3205 0
M  V30 20 O 1.3338 -4.1111 1.7054 0
M  V30 21 C -0.2166 -4.3805 -2.059 0
M  V30 22 C 2.7324 -3.8993 1.5235 0
M  V30 23 H 0.2011 0.3782 -2.6712 0
M  V30 24 H 0.8972 0.3283 -1.0553 0
M  V30 25 H -2.9328 1.6271 -1.9534 0
M  V30 26 H -1.5912 2.3683 -2.7939 0
M  V30 27 H -0.6879 -0.0412 2.2062 0
M  V30 28 H -0.9552 -1.9557 -1.608 0
M  V30 29 H 1.9935 1.9747 -2.4912 0
M  V30 30 H 0.5148 2.8611 -2.7315 0
M  V30 31 H -2.9263 3.9451 -1.3765 0
M  V30 32 H -2.5478 3.0237 0.0656 0
M  V30 33 H 2.0608 2.4722 -0.1185 0
M  V30 34 H 1.9552 3.9336 -1.0791 0
M  V30 35 H -0.5563 4.6032 -1.6494 0
M  V30 36 H -1.2524 5.0773 -0.1169 0
M  V30 37 H -0.1792 2.7116 0.7105 0
M  V30 38 H 0.6084 4.2624 0.8089 0
M  V30 39 H 0.5983 -0.1307 4.1243 0
M  V30 40 H 0.6375 -1.445 5.305 0
M  V30 41 H -0.8342 -1.2079 4.3539 0
M  V30 42 H -1.2979 -4.3829 -1.884 0
M  V30 43 H 0.0611 -5.3667 -2.4431 0
M  V30 44 H 0.0593 -3.6392 -2.8159 0
M  V30 45 H 2.9866 -3.7987 0.4626 0
M  V30 46 H 3.2571 -4.7763 1.9141 0
M  V30 47 H 3.0802 -3.0224 2.0806 0
M  V30 END ATOM
M  V30 BEGIN BOND
M  V30 1 2 1 2
M  V30 2 1 2 3
M  V30 3 1 2 4
M  V30 4 1 3 5
M  V30 5 1 3 6
M  V30 6 2 4 7
M  V30 7 1 4 8
M  V30 8 1 5 9
M  V30 9 1 6 10
M  V30 10 1 7 11
M  V30 11 2 8 12
M  V30 12 1 9 13
M  V30 13 1 10 14
M  V30 14 1 11 15
M  V30 15 2 11 16
M  V30 16 1 12 17
M  V30 17 1 13 18
M  V30 18 1 15 19
M  V30 19 1 16 20
M  V30 20 1 17 21
M  V30 21 1 20 22
M  V30 22 1 12 16
M  V30 23 1 14 18
M  V30 24 1 5 23
M  V30 25 1 5 24
M  V30 26 1 6 25
M  V30 27 1 6 26
M  V30 28 1 7 27
M  V30 29 1 8 28
M  V30 30 1 9 29
M  V30 31 1 9 30
M  V30 32 1 10 31
M  V30 33 1 10 32
M  V30 34 1 13 33
M  V30 35 1 13 34
M  V30 36 1 14 35
M  V30 37 1 14 36
M  V30 38 1 18 37
M  V30 39 1 18 38
M  V30 40 1 19 39
M  V30 41 1 19 40
M  V30 42 1 19 41
M  V30 43 1 21 42
M  V30 44 1 21 43
M  V30 45 1 21 44
M  V30 46 1 22 45
M  V30 47 1 22 46
M  V30 48 1 22 47
M  V30 END BOND
M  V30 END CTAB
M  END
>  <NO.>
2023

>  <Name>
trocimine

>  <SMILES>
COc1cc(C(=O)N2CCCCCCC2)cc(OC)c1OC

>  <logBB>


>  <Class>
1

>  <MW>
307.18

>  <nHBAcc>
4

>  <nHBDon>
0

>  <SLogP>
3.12

>  <TopoPSA>
48

>  <MMFF94 Energy>
61.177

$$$$
COc1cc(C(=O)N2CCOCC2)cc(OC)c1OC
Actelion Java MolfileCreator 2.0

  0  0  0  0  0  0              0 V3000
M  V30 BEGIN CTAB
M  V30 COUNTS 39 40 0 0 0
M  V30 BEGIN ATOM
M  V30 1 O -1.0269 1.6593 -2.1338 0
M  V30 2 C -0.9383 1.2829 -0.9684 0
M  V30 3 N -1.571 1.9083 0.0952 0
M  V30 4 C -0.1042 0.0937 -0.7018 0
M  V30 5 C -1.3384 1.6482 1.522 0
M  V30 6 C -2.5447 2.9696 -0.1693 0
M  V30 7 C 1.2451 0.129 -1.07 0
M  V30 8 C -0.6798 -1.0529 -0.14 0
M  V30 9 C -1.0758 2.9582 2.2766 0
M  V30 10 C -2.2196 4.2241 0.6448 0
M  V30 11 C 2.0515 -0.9831 -0.8375 0
M  V30 12 C 0.1131 -2.1728 0.1005 0
M  V30 13 O -2.1213 3.9142 2.0451 0
M  V30 14 O 3.3874 -1.0583 -1.134 0
M  V30 15 C 1.4743 -2.1302 -0.2588 0
M  V30 16 O -0.3305 -3.341 0.6632 0
M  V30 17 C 3.9917 0.0801 -1.7329 0
M  V30 18 O 2.2754 -3.2158 0.0244 0
M  V30 19 C -1.6952 -3.4075 1.0536 0
M  V30 20 C 2.2987 -4.1043 -1.0916 0
M  V30 21 H -0.4982 0.9691 1.6801 0
M  V30 22 H -2.2498 1.1738 1.9034 0
M  V30 23 H -3.5201 2.5732 0.137 0
M  V30 24 H -2.5982 3.2108 -1.2349 0
M  V30 25 H 1.6291 1.0341 -1.5295 0
M  V30 26 H -1.7391 -1.0396 0.0921 0
M  V30 27 H -1.0308 2.7661 3.3531 0
M  V30 28 H -0.1187 3.3995 1.9742 0
M  V30 29 H -1.2787 4.6789 0.3134 0
M  V30 30 H -3.0143 4.9667 0.5231 0
M  V30 31 H 3.5401 0.3007 -2.7057 0
M  V30 32 H 5.0477 -0.1518 -1.9015 0
M  V30 33 H 3.944 0.9483 -1.0675 0
M  V30 34 H -1.9252 -2.6565 1.8168 0
M  V30 35 H -1.8696 -4.3937 1.4942 0
M  V30 36 H -2.3579 -3.3078 0.1878 0
M  V30 37 H 1.2984 -4.4906 -1.316 0
M  V30 38 H 2.9367 -4.9534 -0.8292 0
M  V30 39 H 2.7259 -3.6227 -1.9778 0
M  V30 END ATOM
M  V30 BEGIN BOND
M  V30 1 2 1 2
M  V30 2 1 2 3
M  V30 3 1 2 4
M  V30 4 1 3 5
M  V30 5 1 3 6
M  V30 6 2 4 7
M  V30 7 1 4 8
M  V30 8 1 5 9
M  V30 9 1 6 10
M  V30 10 1 7 11
M  V30 11 2 8 12
M  V30 12 1 9 13
M  V30 13 1 11 14
M  V30 14 2 11 15
M  V30 15 1 12 16
M  V30 16 1 14 17
M  V30 17 1 15 18
M  V30 18 1 16 19
M  V30 19 1 18 20
M  V30 20 1 10 13
M  V30 21 1 12 15
M  V30 22 1 5 21
M  V30 23 1 5 22
M  V30 24 1 6 23
M  V30 25 1 6 24
M  V30 26 1 7 25
M  V30 27 1 8 26
M  V30 28 1 9 27
M  V30 29 1 9 28
M  V30 30 1 10 29
M  V30 31 1 10 30
M  V30 32 1 17 31
M  V30 33 1 17 32
M  V30 34 1 17 33
M  V30 35 1 19 34
M  V30 36 1 19 35
M  V30 37 1 19 36
M  V30 38 1 20 37
M  V30 39 1 20 38
M  V30 40 1 20 39
M  V30 END BOND
M  V30 END CTAB
M  END
>  <NO.>
2024

>  <Name>
trimetozine

>  <SMILES>
COc1cc(C(=O)N2CCOCC2)cc(OC)c1OC

>  <logBB>


>  <Class>
1

>  <MW>
281.13

>  <nHBAcc>
5

>  <nHBDon>
0

>  <SLogP>
1.18

>  <TopoPSA>
57.23

>  <MMFF94 Energy>
97.719

$$$$
COc1cc(C(C)=O)ccc1OCCCN1CCC(c2noc3cc(F)ccc23)CC1
Actelion Java MolfileCreator 2.0

  0  0  0  0  0  0              0 V3000
M  V30 BEGIN CTAB
M  V30 COUNTS 58 61 0 0 0
M  V30 BEGIN ATOM
M  V30 1 F 4.8894 -5.7731 -6.979 0
M  V30 2 C 4.118 -5.0688 -6.1396 0
M  V30 3 C 3.1523 -4.2154 -6.6681 0
M  V30 4 C 4.3096 -5.2155 -4.7658 0
M  V30 5 C 2.3923 -3.5196 -5.7343 0
M  V30 6 C 3.5238 -4.497 -3.853 0
M  V30 7 O 1.3983 -2.6358 -6.0103 0
M  V30 8 C 2.541 -3.6282 -4.3615 0
M  V30 9 N 0.8724 -2.1443 -4.8282 0
M  V30 10 C 1.5592 -2.7416 -3.8424 0
M  V30 11 C 1.252 -2.4403 -2.405 0
M  V30 12 C 1.5389 -0.9755 -2.0483 0
M  V30 13 C -0.1887 -2.8137 -2.0293 0
M  V30 14 C 1.1778 -0.691 -0.59 0
M  V30 15 C -0.491 -2.4411 -0.5767 0
M  V30 16 N -0.2078 -1.0391 -0.2418 0
M  V30 17 C -1.1683 -0.0798 -0.8181 0
M  V30 18 C -2.5531 -0.1218 -0.1547 0
M  V30 19 C -2.5196 0.2473 1.3278 0
M  V30 20 O -2.1375 1.6173 1.4478 0
M  V30 21 C -1.9896 2.1372 2.7084 0
M  V30 22 C -1.5414 3.4728 2.7778 0
M  V30 23 C -2.2571 1.4383 3.888 0
M  V30 24 O -1.3053 4.0875 1.5719 0
M  V30 25 C -1.3644 4.0862 4.0257 0
M  V30 26 C -2.0781 2.056 5.1282 0
M  V30 27 C -0.8466 5.4311 1.5846 0
M  V30 28 C -1.6316 3.3795 5.2054 0
M  V30 29 C -1.4579 3.9895 6.5585 0
M  V30 30 O -1.7078 3.3289 7.5649 0
M  V30 31 C -0.9762 5.4129 6.6646 0
M  V30 32 H 3.0055 -4.103 -7.7335 0
M  V30 33 H 5.0783 -5.8957 -4.4085 0
M  V30 34 H 3.677 -4.6144 -2.7844 0
M  V30 35 H 1.9167 -3.0596 -1.7857 0
M  V30 36 H 2.6019 -0.7547 -2.2074 0
M  V30 37 H 0.9826 -0.2983 -2.7087 0
M  V30 38 H -0.9059 -2.3212 -2.6974 0
M  V30 39 H -0.339 -3.8924 -2.1638 0
M  V30 40 H 1.3784 0.3617 -0.3557 0
M  V30 41 H 1.8511 -1.2629 0.062 0
M  V30 42 H 0.1174 -3.0759 0.0813 0
M  V30 43 H -1.5268 -2.7035 -0.3374 0
M  V30 44 H -1.2867 -0.2321 -1.897 0
M  V30 45 H -0.7807 0.9404 -0.6995 0
M  V30 46 H -3.0138 -1.1071 -0.2782 0
M  V30 47 H -3.1953 0.5952 -0.6819 0
M  V30 48 H -3.5275 0.1153 1.7396 0
M  V30 49 H -1.8185 -0.4015 1.8649 0
M  V30 50 H -2.6074 0.4115 3.8798 0
M  V30 51 H -1.02 5.111 4.0821 0
M  V30 52 H -2.2911 1.4941 6.0365 0
M  V30 53 H -1.5857 6.0963 2.043 0
M  V30 54 H -0.7126 5.7489 0.5461 0
M  V30 55 H 0.124 5.5122 2.0847 0
M  V30 56 H 0.0186 5.5106 6.2227 0
M  V30 57 H -1.6868 6.0905 6.1842 0
M  V30 58 H -0.9056 5.6904 7.7211 0
M  V30 END ATOM
M  V30 BEGIN BOND
M  V30 1 1 1 2
M  V30 2 2 2 3
M  V30 3 1 2 4
M  V30 4 1 3 5
M  V30 5 2 4 6
M  V30 6 1 5 7
M  V30 7 2 5 8
M  V30 8 1 7 9
M  V30 9 1 8 10
M  V30 10 1 10 11
M  V30 11 1 11 12
M  V30 12 1 11 13
M  V30 13 1 12 14
M  V30 14 1 13 15
M  V30 15 1 14 16
M  V30 16 1 16 17
M  V30 17 1 17 18
M  V30 18 1 18 19
M  V30 19 1 19 20
M  V30 20 1 20 21
M  V30 21 2 21 22
M  V30 22 1 21 23
M  V30 23 1 22 24
M  V30 24 1 22 25
M  V30 25 2 23 26
M  V30 26 1 24 27
M  V30 27 2 25 28
M  V30 28 1 28 29
M  V30 29 2 29 30
M  V30 30 1 29 31
M  V30 31 1 6 8
M  V30 32 2 9 10
M  V30 33 1 15 16
M  V30 34 1 26 28
M  V30 35 1 3 32
M  V30 36 1 4 33
M  V30 37 1 6 34
M  V30 38 1 11 35
M  V30 39 1 12 36
M  V30 40 1 12 37
M  V30 41 1 13 38
M  V30 42 1 13 39
M  V30 43 1 14 40
M  V30 44 1 14 41
M  V30 45 1 15 42
M  V30 46 1 15 43
M  V30 47 1 17 44
M  V30 48 1 17 45
M  V30 49 1 18 46
M  V30 50 1 18 47
M  V30 51 1 19 48
M  V30 52 1 19 49
M  V30 53 1 23 50
M  V30 54 1 25 51
M  V30 55 1 26 52
M  V30 56 1 27 53
M  V30 57 1 27 54
M  V30 58 1 27 55
M  V30 59 1 31 56
M  V30 60 1 31 57
M  V30 61 1 31 58
M  V30 END BOND
M  V30 END CTAB
M  END
>  <NO.>
2026

>  <Name>
iloperidone

>  <SMILES>
COc1cc(C(C)=O)ccc1OCCCN1CCC(c2noc3cc(F)ccc23)CC1

>  <logBB>


>  <Class>
1

>  <MW>
426.2

>  <nHBAcc>
6

>  <nHBDon>
0

>  <SLogP>
4.83

>  <TopoPSA>
64.8

>  <MMFF94 Energy>
66.698

$$$$
COc1cc(CCN)cc(OC)c1OC
Actelion Java MolfileCreator 2.0

  0  0  0  0  0  0              0 V3000
M  V30 BEGIN CTAB
M  V30 COUNTS 32 32 0 0 0
M  V30 BEGIN ATOM
M  V30 1 O 2.0984 1.2431 -2.0206 0
M  V30 2 C 1.2479 0.7069 -1.0768 0
M  V30 3 C 3.3246 1.625 -1.4003 0
M  V30 4 C 1.2512 -0.6818 -0.8606 0
M  V30 5 C 0.3426 1.5498 -0.4095 0
M  V30 6 O 2.1615 -1.4071 -1.5853 0
M  V30 7 C 0.3566 -1.221 0.0669 0
M  V30 8 O 0.4129 2.884 -0.718 0
M  V30 9 C -0.5423 0.9894 0.5142 0
M  V30 10 C 2.0979 -2.8226 -1.488 0
M  V30 11 C -0.5388 -0.3928 0.7628 0
M  V30 12 C -0.5789 3.7366 -0.1636 0
M  V30 13 C -1.518 -0.9875 1.7491 0
M  V30 14 C -2.8565 -1.3245 1.0834 0
M  V30 15 N -3.7949 -1.8963 2.0475 0
M  V30 16 H 3.1656 2.399 -0.6414 0
M  V30 17 H 3.9752 2.042 -2.1749 0
M  V30 18 H 3.8359 0.7622 -0.9594 0
M  V30 19 H 0.3362 -2.2869 0.2701 0
M  V30 20 H -1.2496 1.6072 1.0594 0
M  V30 21 H 2.3548 -3.1587 -0.4781 0
M  V30 22 H 2.8408 -3.2388 -2.1751 0
M  V30 23 H 1.1156 -3.1986 -1.793 0
M  V30 24 H -1.5853 3.4197 -0.4569 0
M  V30 25 H -0.4174 4.7421 -0.5642 0
M  V30 26 H -0.4831 3.7942 0.9255 0
M  V30 27 H -1.6708 -0.2822 2.5766 0
M  V30 28 H -1.0794 -1.8877 2.1991 0
M  V30 29 H -2.7067 -2.0349 0.2623 0
M  V30 30 H -3.3021 -0.4206 0.6525 0
M  V30 31 H -4.6677 -2.1224 1.5708 0
M  V30 32 H -3.4295 -2.78 2.4008 0
M  V30 END ATOM
M  V30 BEGIN BOND
M  V30 1 1 1 2
M  V30 2 1 1 3
M  V30 3 2 2 4
M  V30 4 1 2 5
M  V30 5 1 4 6
M  V30 6 1 4 7
M  V30 7 1 5 8
M  V30 8 2 5 9
M  V30 9 1 6 10
M  V30 10 2 7 11
M  V30 11 1 8 12
M  V30 12 1 11 13
M  V30 13 1 13 14
M  V30 14 1 14 15
M  V30 15 1 9 11
M  V30 16 1 3 16
M  V30 17 1 3 17
M  V30 18 1 3 18
M  V30 19 1 7 19
M  V30 20 1 9 20
M  V30 21 1 10 21
M  V30 22 1 10 22
M  V30 23 1 10 23
M  V30 24 1 12 24
M  V30 25 1 12 25
M  V30 26 1 12 26
M  V30 27 1 13 27
M  V30 28 1 13 28
M  V30 29 1 14 29
M  V30 30 1 14 30
M  V30 31 1 15 31
M  V30 32 1 15 32
M  V30 END BOND
M  V30 END CTAB
M  END
>  <NO.>
2027

>  <Name>
mescaline

>  <SMILES>
COc1cc(CCN)cc(OC)c1OC

>  <logBB>


>  <Class>
1

>  <MW>
211.12

>  <nHBAcc>
4

>  <nHBDon>
1

>  <SLogP>
1.21

>  <TopoPSA>
53.71

>  <MMFF94 Energy>
69.526

$$$$
COc1cc2[nH]c(C)c(CCN3CCN(c4ccccc4)CC3)c2cc1OC
Actelion Java MolfileCreator 2.0

  0  0  0  0  0  0              0 V3000
M  V30 BEGIN CTAB
M  V30 COUNTS 57 60 0 0 0
M  V30 BEGIN ATOM
M  V30 1 O -2.0597 5.8708 -0.6334 0
M  V30 2 C -1.8601 4.6834 0.0328 0
M  V30 3 C -3.3361 6.0967 -1.2121 0
M  V30 4 C -0.5738 4.4954 0.5739 0
M  V30 5 C -2.848 3.7002 0.189 0
M  V30 6 O 0.3185 5.5223 0.3701 0
M  V30 7 C -0.2678 3.3171 1.2732 0
M  V30 8 C -2.5108 2.5345 0.8908 0
M  V30 9 C 1.6359 5.3609 0.8738 0
M  V30 10 C -1.248 2.3131 1.4297 0
M  V30 11 N -3.2794 1.4371 1.1958 0
M  V30 12 C -1.2668 1.0237 2.0603 0
M  V30 13 C -2.5526 0.5225 1.9142 0
M  V30 14 C -0.129 0.3651 2.7864 0
M  V30 15 C -3.1594 -0.7469 2.3936 0
M  V30 16 C 1.1013 0.0109 1.9272 0
M  V30 17 N 1.0307 -1.293 1.234 0
M  V30 18 C 0.1881 -1.2176 0.0163 0
M  V30 19 C 2.3906 -1.7139 0.8149 0
M  V30 20 C 0.1394 -2.5439 -0.778 0
M  V30 21 C 2.4116 -3.0576 0.0519 0
M  V30 22 N 1.4907 -3.0295 -1.0979 0
M  V30 23 C 1.6807 -3.9648 -2.1105 0
M  V30 24 C 0.6416 -4.7689 -2.6037 0
M  V30 25 C 2.9414 -4.1275 -2.7078 0
M  V30 26 C 0.8524 -5.7016 -3.6268 0
M  V30 27 C 3.1612 -5.0554 -3.7322 0
M  V30 28 C 2.1146 -5.8463 -4.1902 0
M  V30 29 H -3.5632 5.3456 -1.9756 0
M  V30 30 H -3.3117 7.0733 -1.7051 0
M  V30 31 H -4.117 6.1321 -0.4453 0
M  V30 32 H -3.8486 3.8149 -0.2069 0
M  V30 33 H 0.7096 3.1511 1.7066 0
M  V30 34 H 1.634 5.28 1.9657 0
M  V30 35 H 2.207 6.256 0.6092 0
M  V30 36 H 2.1337 4.5017 0.4128 0
M  V30 37 H -4.2506 1.333 0.9374 0
M  V30 38 H -0.4764 -0.5306 3.3161 0
M  V30 39 H 0.1958 1.0609 3.5723 0
M  V30 40 H -3.2271 -0.7445 3.4861 0
M  V30 41 H -2.5512 -1.6037 2.0874 0
M  V30 42 H -4.1673 -0.8899 1.991 0
M  V30 43 H 1.3512 0.8156 1.2254 0
M  V30 44 H 1.9379 -0.0413 2.6376 0
M  V30 45 H -0.8419 -0.9746 0.2827 0
M  V30 46 H 0.5529 -0.4223 -0.6476 0
M  V30 47 H 2.8458 -0.9401 0.1815 0
M  V30 48 H 3.0263 -1.8252 1.7018 0
M  V30 49 H -0.3962 -3.3008 -0.1909 0
M  V30 50 H -0.4304 -2.3568 -1.6965 0
M  V30 51 H 3.4469 -3.2494 -0.2481 0
M  V30 52 H 2.1147 -3.8697 0.7281 0
M  V30 53 H -0.3572 -4.7013 -2.1832 0
M  V30 54 H 3.7735 -3.5 -2.4008 0
M  V30 55 H 0.0261 -6.3135 -3.9779 0
M  V30 56 H 4.1494 -5.1484 -4.1738 0
M  V30 57 H 2.2802 -6.567 -4.9856 0
M  V30 END ATOM
M  V30 BEGIN BOND
M  V30 1 1 1 2
M  V30 2 1 1 3
M  V30 3 2 2 4
M  V30 4 1 2 5
M  V30 5 1 4 6
M  V30 6 1 4 7
M  V30 7 2 5 8
M  V30 8 1 6 9
M  V30 9 2 7 10
M  V30 10 1 8 11
M  V30 11 1 10 12
M  V30 12 1 11 13
M  V30 13 1 12 14
M  V30 14 1 13 15
M  V30 15 1 14 16
M  V30 16 1 16 17
M  V30 17 1 17 18
M  V30 18 1 17 19
M  V30 19 1 18 20
M  V30 20 1 19 21
M  V30 21 1 20 22
M  V30 22 1 22 23
M  V30 23 2 23 24
M  V30 24 1 23 25
M  V30 25 1 24 26
M  V30 26 2 25 27
M  V30 27 2 26 28
M  V30 28 1 8 10
M  V30 29 2 12 13
M  V30 30 1 21 22
M  V30 31 1 27 28
M  V30 32 1 3 29
M  V30 33 1 3 30
M  V30 34 1 3 31
M  V30 35 1 5 32
M  V30 36 1 7 33
M  V30 37 1 9 34
M  V30 38 1 9 35
M  V30 39 1 9 36
M  V30 40 1 11 37
M  V30 41 1 14 38
M  V30 42 1 14 39
M  V30 43 1 15 40
M  V30 44 1 15 41
M  V30 45 1 15 42
M  V30 46 1 16 43
M  V30 47 1 16 44
M  V30 48 1 18 45
M  V30 49 1 18 46
M  V30 50 1 19 47
M  V30 51 1 19 48
M  V30 52 1 20 49
M  V30 53 1 20 50
M  V30 54 1 21 51
M  V30 55 1 21 52
M  V30 56 1 24 53
M  V30 57 1 25 54
M  V30 58 1 26 55
M  V30 59 1 27 56
M  V30 60 1 28 57
M  V30 END BOND
M  V30 END CTAB
M  END
>  <NO.>
2030

>  <Name>
oxypertine

>  <SMILES>
COc1cc2[nH]c(C)c(CCN3CCN(c4ccccc4)CC3)c2cc1OC

>  <logBB>


>  <Class>
1

>  <MW>
379.23

>  <nHBAcc>
4

>  <nHBDon>
1

>  <SLogP>
3.86

>  <TopoPSA>
40.73

>  <MMFF94 Energy>
150.78

$$$$
COc1cc2[nH]c(C)c(CCN3CCN(c4ccccc4OC)CC3)c2cc1OC
Actelion Java MolfileCreator 2.0

  0  0  0  0  0  0              0 V3000
M  V30 BEGIN CTAB
M  V30 COUNTS 61 64 0 0 0
M  V30 BEGIN ATOM
M  V30 1 O -4.1996 5.8674 -2.217 0
M  V30 2 C -3.8798 4.6426 -1.6765 0
M  V30 3 C -5.407 5.9675 -2.9569 0
M  V30 4 C -2.6784 4.5943 -0.9422 0
M  V30 5 C -4.6709 3.4932 -1.8251 0
M  V30 6 O -1.9776 5.7754 -0.8586 0
M  V30 7 C -2.2614 3.3916 -0.3502 0
M  V30 8 C -4.227 2.3076 -1.223 0
M  V30 9 C -0.7643 5.7694 -0.1206 0
M  V30 10 C -3.0474 2.2278 -0.4914 0
M  V30 11 N -4.796 1.0561 -1.2103 0
M  V30 12 C -2.9151 0.8766 -0.032 0
M  V30 13 C -4.0158 0.1767 -0.5018 0
M  V30 14 C -1.7887 0.3294 0.7971 0
M  V30 15 C -4.4028 -1.2482 -0.338 0
M  V30 16 C -0.6019 -0.1233 -0.0712 0
M  V30 17 N 0.577 -0.5426 0.7133 0
M  V30 18 C 0.3365 -1.817 1.4343 0
M  V30 19 C 1.7376 -0.7342 -0.1962 0
M  V30 20 C 1.5789 -2.3286 2.204 0
M  V30 21 C 3.0137 -1.2122 0.532 0
M  V30 22 N 2.7349 -2.4305 1.3082 0
M  V30 23 C 3.822 -3.2435 1.631 0
M  V30 24 C 4.588 -3.8964 0.6291 0
M  V30 25 C 4.1932 -3.4474 2.9724 0
M  V30 26 O 4.169 -3.7209 -0.6711 0
M  V30 27 C 5.6892 -4.6892 0.9862 0
M  V30 28 C 5.2864 -4.2444 3.3191 0
M  V30 29 C 4.7941 -4.5033 -1.6772 0
M  V30 30 C 6.0358 -4.8612 2.3262 0
M  V30 31 H -5.3834 5.3224 -3.8413 0
M  V30 32 H -5.5023 7.0012 -3.3034 0
M  V30 33 H -6.2761 5.7475 -2.328 0
M  V30 34 H -5.5985 3.4948 -2.3826 0
M  V30 35 H -1.3432 3.3215 0.2194 0
M  V30 36 H -0.9419 5.5204 0.9308 0
M  V30 37 H -0.347 6.7805 -0.1554 0
M  V30 38 H -0.0308 5.0925 -0.571 0
M  V30 39 H -5.6674 0.8229 -1.6655 0
M  V30 40 H -2.1673 -0.5053 1.398 0
M  V30 41 H -1.4572 1.0969 1.508 0
M  V30 42 H -3.554 -1.9039 -0.557 0
M  V30 43 H -4.7276 -1.436 0.6903 0
M  V30 44 H -5.2217 -1.5237 -1.0105 0
M  V30 45 H -0.9203 -0.9229 -0.7539 0
M  V30 46 H -0.3123 0.7257 -0.7052 0
M  V30 47 H -0.4668 -1.6877 2.1673 0
M  V30 48 H 0.0152 -2.5937 0.7271 0
M  V30 49 H 1.4848 -1.4615 -0.9799 0
M  V30 50 H 1.9694 0.2159 -0.6927 0
M  V30 51 H 1.3339 -3.3089 2.631 0
M  V30 52 H 1.8034 -1.6426 3.0306 0
M  V30 53 H 3.3636 -0.426 1.2141 0
M  V30 54 H 3.8011 -1.3556 -0.215 0
M  V30 55 H 3.6434 -2.9606 3.7728 0
M  V30 56 H 6.2974 -5.19 0.2413 0
M  V30 57 H 5.5524 -4.3737 4.3648 0
M  V30 58 H 5.8453 -4.2219 -1.7972 0
M  V30 59 H 4.2865 -4.2962 -2.6244 0
M  V30 60 H 4.6895 -5.574 -1.4726 0
M  V30 61 H 6.8897 -5.4784 2.5925 0
M  V30 END ATOM
M  V30 BEGIN BOND
M  V30 1 1 1 2
M  V30 2 1 1 3
M  V30 3 2 2 4
M  V30 4 1 2 5
M  V30 5 1 4 6
M  V30 6 1 4 7
M  V30 7 2 5 8
M  V30 8 1 6 9
M  V30 9 2 7 10
M  V30 10 1 8 11
M  V30 11 1 10 12
M  V30 12 1 11 13
M  V30 13 1 12 14
M  V30 14 1 13 15
M  V30 15 1 14 16
M  V30 16 1 16 17
M  V30 17 1 17 18
M  V30 18 1 17 19
M  V30 19 1 18 20
M  V30 20 1 19 21
M  V30 21 1 20 22
M  V30 22 1 22 23
M  V30 23 2 23 24
M  V30 24 1 23 25
M  V30 25 1 24 26
M  V30 26 1 24 27
M  V30 27 2 25 28
M  V30 28 1 26 29
M  V30 29 2 27 30
M  V30 30 1 8 10
M  V30 31 2 12 13
M  V30 32 1 21 22
M  V30 33 1 28 30
M  V30 34 1 3 31
M  V30 35 1 3 32
M  V30 36 1 3 33
M  V30 37 1 5 34
M  V30 38 1 7 35
M  V30 39 1 9 36
M  V30 40 1 9 37
M  V30 41 1 9 38
M  V30 42 1 11 39
M  V30 43 1 14 40
M  V30 44 1 14 41
M  V30 45 1 15 42
M  V30 46 1 15 43
M  V30 47 1 15 44
M  V30 48 1 16 45
M  V30 49 1 16 46
M  V30 50 1 18 47
M  V30 51 1 18 48
M  V30 52 1 19 49
M  V30 53 1 19 50
M  V30 54 1 20 51
M  V30 55 1 20 52
M  V30 56 1 21 53
M  V30 57 1 21 54
M  V30 58 1 25 55
M  V30 59 1 27 56
M  V30 60 1 28 57
M  V30 61 1 29 58
M  V30 62 1 29 59
M  V30 63 1 29 60
M  V30 64 1 30 61
M  V30 END BOND
M  V30 END CTAB
M  END
>  <NO.>
2031

>  <Name>
milipertine

>  <SMILES>
COc1cc2[nH]c(C)c(CCN3CCN(c4ccccc4OC)CC3)c2cc1OC

>  <logBB>


>  <Class>
1

>  <MW>
409.24

>  <nHBAcc>
5

>  <nHBDon>
1

>  <SLogP>
3.87

>  <TopoPSA>
49.96

>  <MMFF94 Energy>
172.65

$$$$
COc1cc2c(cc1OC)C(c1ccc(N)cc1)=NN=C(C)C2
Actelion Java MolfileCreator 2.0

  0  0  0  0  0  0              0 V3000
M  V30 BEGIN CTAB
M  V30 COUNTS 42 44 0 0 0
M  V30 BEGIN ATOM
M  V30 1 O -3.2574 0.9525 1.1113 0
M  V30 2 C -1.8856 0.8861 1.089 0
M  V30 3 C -3.9526 0.6795 -0.0973 0
M  V30 4 C -1.2305 1.2268 2.2923 0
M  V30 5 C -1.1344 0.5001 -0.025 0
M  V30 6 O -2.0457 1.5858 3.3376 0
M  V30 7 C 0.1683 1.1936 2.3577 0
M  V30 8 C 0.2618 0.45 0.0557 0
M  V30 9 C -1.4316 1.94 4.568 0
M  V30 10 C 0.921 0.8107 1.2399 0
M  V30 11 C 1.0709 -0.0587 -1.0908 0
M  V30 12 C 2.4265 0.8549 1.2492 0
M  V30 13 N 2.177 0.4727 -1.532 0
M  V30 14 C 0.6212 -1.3219 -1.7618 0
M  V30 15 C 2.8477 1.8586 0.2013 0
M  V30 16 N 2.6377 1.7051 -1.0704 0
M  V30 17 C 0.0304 -2.3654 -1.0415 0
M  V30 18 C 0.816 -1.4627 -3.1392 0
M  V30 19 C 3.4359 3.1614 0.6769 0
M  V30 20 C -0.379 -3.5279 -1.7037 0
M  V30 21 C 0.4032 -2.6286 -3.7914 0
M  V30 22 C -0.1851 -3.6758 -3.0791 0
M  V30 23 N -0.6294 -4.8092 -3.734 0
M  V30 24 H -3.6684 1.3844 -0.8857 0
M  V30 25 H -5.0219 0.8103 0.0951 0
M  V30 26 H -3.7968 -0.3563 -0.4157 0
M  V30 27 H -1.612 0.2325 -0.9614 0
M  V30 28 H 0.6931 1.4752 3.2647 0
M  V30 29 H -0.8642 1.1004 4.9828 0
M  V30 30 H -2.2255 2.1877 5.2793 0
M  V30 31 H -0.8003 2.8273 4.4531 0
M  V30 32 H 2.8086 1.1629 2.2284 0
M  V30 33 H 2.851 -0.1306 1.0303 0
M  V30 34 H -0.111 -2.2988 0.0336 0
M  V30 35 H 1.2833 -0.6642 -3.7121 0
M  V30 36 H 4.2878 2.9587 1.3313 0
M  V30 37 H 3.7729 3.7654 -0.1699 0
M  V30 38 H 2.677 3.7171 1.2345 0
M  V30 39 H -0.8466 -4.3243 -1.1304 0
M  V30 40 H 0.5522 -2.7106 -4.8647 0
M  V30 41 H -0.4158 -4.9459 -4.7126 0
M  V30 42 H -0.9785 -5.5991 -3.2091 0
M  V30 END ATOM
M  V30 BEGIN BOND
M  V30 1 1 1 2
M  V30 2 1 1 3
M  V30 3 2 2 4
M  V30 4 1 2 5
M  V30 5 1 4 6
M  V30 6 1 4 7
M  V30 7 2 5 8
M  V30 8 1 6 9
M  V30 9 2 7 10
M  V30 10 1 8 11
M  V30 11 1 10 12
M  V30 12 2 11 13
M  V30 13 1 11 14
M  V30 14 1 12 15
M  V30 15 1 13 16
M  V30 16 2 14 17
M  V30 17 1 14 18
M  V30 18 1 15 19
M  V30 19 1 17 20
M  V30 20 2 18 21
M  V30 21 2 20 22
M  V30 22 1 22 23
M  V30 23 1 8 10
M  V30 24 2 15 16
M  V30 25 1 21 22
M  V30 26 1 3 24
M  V30 27 1 3 25
M  V30 28 1 3 26
M  V30 29 1 5 27
M  V30 30 1 7 28
M  V30 31 1 9 29
M  V30 32 1 9 30
M  V30 33 1 9 31
M  V30 34 1 12 32
M  V30 35 1 12 33
M  V30 36 1 17 34
M  V30 37 1 18 35
M  V30 38 1 19 36
M  V30 39 1 19 37
M  V30 40 1 19 38
M  V30 41 1 20 39
M  V30 42 1 21 40
M  V30 43 1 23 41
M  V30 44 1 23 42
M  V30 END BOND
M  V30 END CTAB
M  END
>  <NO.>
2034

>  <Name>
nerisopam

>  <SMILES>
COc1cc2c(cc1OC)C(c1ccc(N)cc1)=NN=C(C)C2

>  <logBB>


>  <Class>
1

>  <MW>
309.15

>  <nHBAcc>
5

>  <nHBDon>
1

>  <SLogP>
3.06

>  <TopoPSA>
69.2

>  <MMFF94 Energy>
119.6

$$$$
COc1cc2c(cc1OC)C(c1cccc(Cl)c1)=NN=C(C)C2
Actelion Java MolfileCreator 2.0

  0  0  0  0  0  0              0 V3000
M  V30 BEGIN CTAB
M  V30 COUNTS 40 42 0 0 0
M  V30 BEGIN ATOM
M  V30 1 Cl 3.2284 -5.0074 -2.5013 0
M  V30 2 C 2.96 -3.3797 -2.0116 0
M  V30 3 C 1.9593 -3.0902 -1.0869 0
M  V30 4 C 3.7467 -2.3606 -2.5479 0
M  V30 5 C 1.7362 -1.7632 -0.6997 0
M  V30 6 C 3.5372 -1.0393 -2.1521 0
M  V30 7 C 0.658 -1.4755 0.301 0
M  V30 8 C 2.5364 -0.7389 -1.2256 0
M  V30 9 N 0.5079 -2.3489 1.2568 0
M  V30 10 C -0.1032 -0.1993 0.1644 0
M  V30 11 N -0.5317 -2.2567 2.1806 0
M  V30 12 C -0.2676 0.6124 1.2963 0
M  V30 13 C -0.5819 0.2143 -1.0838 0
M  V30 14 C -0.6436 -1.1769 2.8926 0
M  V30 15 C -0.8873 1.8618 1.1632 0
M  V30 16 C 0.1548 0.0808 2.6408 0
M  V30 17 C -1.2066 1.4583 -1.215 0
M  V30 18 C -1.7113 -1.1273 3.9539 0
M  V30 19 C -1.3505 2.2935 -0.086 0
M  V30 20 O -1.6946 1.9566 -2.3981 0
M  V30 21 O -1.965 3.5011 -0.3087 0
M  V30 22 C -1.6901 1.0973 -3.5294 0
M  V30 23 C -2.1387 4.3729 0.7986 0
M  V30 24 H 1.3529 -3.8907 -0.6686 0
M  V30 25 H 4.5282 -2.5911 -3.2675 0
M  V30 26 H 4.1583 -0.2451 -2.5596 0
M  V30 27 H 2.4042 0.2939 -0.9127 0
M  V30 28 H -0.4553 -0.444 -1.936 0
M  V30 29 H -1.0112 2.4765 2.0488 0
M  V30 30 H 1.2283 -0.1352 2.6592 0
M  V30 31 H -0.0437 0.8078 3.4356 0
M  V30 32 H -2.4879 -0.4198 3.651 0
M  V30 33 H -1.2708 -0.7965 4.8982 0
M  V30 34 H -2.1606 -2.1138 4.0967 0
M  V30 35 H -0.6668 0.8603 -3.838 0
M  V30 36 H -2.171 1.6298 -4.3556 0
M  V30 37 H -2.2681 0.187 -3.3392 0
M  V30 38 H -2.7848 3.9217 1.5587 0
M  V30 39 H -2.6347 5.2788 0.4369 0
M  V30 40 H -1.1741 4.6695 1.2233 0
M  V30 END ATOM
M  V30 BEGIN BOND
M  V30 1 1 1 2
M  V30 2 2 2 3
M  V30 3 1 2 4
M  V30 4 1 3 5
M  V30 5 2 4 6
M  V30 6 1 5 7
M  V30 7 2 5 8
M  V30 8 2 7 9
M  V30 9 1 7 10
M  V30 10 1 9 11
M  V30 11 2 10 12
M  V30 12 1 10 13
M  V30 13 2 11 14
M  V30 14 1 12 15
M  V30 15 1 12 16
M  V30 16 2 13 17
M  V30 17 1 14 18
M  V30 18 2 15 19
M  V30 19 1 17 20
M  V30 20 1 19 21
M  V30 21 1 20 22
M  V30 22 1 21 23
M  V30 23 1 6 8
M  V30 24 1 14 16
M  V30 25 1 17 19
M  V30 26 1 3 24
M  V30 27 1 4 25
M  V30 28 1 6 26
M  V30 29 1 8 27
M  V30 30 1 13 28
M  V30 31 1 15 29
M  V30 32 1 16 30
M  V30 33 1 16 31
M  V30 34 1 18 32
M  V30 35 1 18 33
M  V30 36 1 18 34
M  V30 37 1 22 35
M  V30 38 1 22 36
M  V30 39 1 22 37
M  V30 40 1 23 38
M  V30 41 1 23 39
M  V30 42 1 23 40
M  V30 END BOND
M  V30 END CTAB
M  END
>  <NO.>
2035

>  <Name>
girisopam

>  <SMILES>
COc1cc2c(cc1OC)C(c1cccc(Cl)c1)=NN=C(C)C2

>  <logBB>


>  <Class>
1

>  <MW>
328.1

>  <nHBAcc>
4

>  <nHBDon>
0

>  <SLogP>
4.13

>  <TopoPSA>
43.18

>  <MMFF94 Energy>
121.04

$$$$
COc1cc2c(cc1OC)C1CC(=O)C(CC(C)C)CN1CC2
Actelion Java MolfileCreator 2.0

  0  0  0  0  0  0              0 V3000
M  V30 BEGIN CTAB
M  V30 COUNTS 50 52 0 0 0
M  V30 BEGIN ATOM
M  V30 1 O -3.4185 0.0 -0.9531 0
M  V30 2 C -2.3825 0.1798 -0.3129 0
M  V30 3 C -2.318 0.1382 1.2077 0
M  V30 4 C -1.0988 0.5422 -1.0187 0
M  V30 5 C -1.134 -0.7677 1.5705 0
M  V30 6 C -3.6313 -0.3482 1.856 0
M  V30 7 C 0.0165 -0.3977 -0.5468 0
M  V30 8 N 0.1028 -0.2877 0.9346 0
M  V30 9 C -4.0416 0.4429 3.1181 0
M  V30 10 C 1.3489 -0.1182 -1.2494 0
M  V30 11 C 1.2687 -1.0253 1.437 0
M  V30 12 C -5.4043 -0.0485 3.6161 0
M  V30 13 C -3.0185 0.3463 4.2488 0
M  V30 14 C 2.5553 -0.1157 -0.5273 0
M  V30 15 C 1.4106 0.0513 -2.6459 0
M  V30 16 C 2.5514 -0.3405 0.9631 0
M  V30 17 C 3.7748 0.1301 -1.1805 0
M  V30 18 C 2.6263 0.2868 -3.3031 0
M  V30 19 C 3.8196 0.3341 -2.5616 0
M  V30 20 O 2.7522 0.4702 -4.6586 0
M  V30 21 O 4.9672 0.5733 -3.2759 0
M  V30 22 C 1.5631 0.5408 -5.4314 0
M  V30 23 C 6.1839 0.682 -2.5522 0
M  V30 24 H -2.1163 1.1705 1.5233 0
M  V30 25 H -1.2809 0.4501 -2.0943 0
M  V30 26 H -0.8675 1.5937 -0.8101 0
M  V30 27 H -1.3362 -1.8073 1.2781 0
M  V30 28 H -1.0059 -0.7626 2.6581 0
M  V30 29 H -4.4614 -0.2638 1.1445 0
M  V30 30 H -3.5593 -1.416 2.1006 0
M  V30 31 H -0.25 -1.433 -0.8084 0
M  V30 32 H -4.1497 1.5005 2.8449 0
M  V30 33 H 1.2781 -1.0304 2.5339 0
M  V30 34 H 1.243 -2.0727 1.1074 0
M  V30 35 H -6.166 0.0571 2.8363 0
M  V30 36 H -5.363 -1.1028 3.9101 0
M  V30 37 H -5.7352 0.5327 4.4834 0
M  V30 38 H -2.0763 0.8293 3.9739 0
M  V30 39 H -2.8103 -0.6968 4.5086 0
M  V30 40 H -3.3857 0.8506 5.1494 0
M  V30 41 H 0.4946 -0.018 -3.2214 0
M  V30 42 H 2.6615 0.6317 1.46 0
M  V30 43 H 3.4076 -0.9628 1.2495 0
M  V30 44 H 4.68 0.1491 -0.5821 0
M  V30 45 H 1.0317 -0.4163 -5.4231 0
M  V30 46 H 1.849 0.7519 -6.4663 0
M  V30 47 H 0.9163 1.357 -5.0928 0
M  V30 48 H 6.1459 1.5079 -1.8341 0
M  V30 49 H 6.9808 0.9024 -3.269 0
M  V30 50 H 6.4343 -0.2622 -2.0579 0
M  V30 END ATOM
M  V30 BEGIN BOND
M  V30 1 2 1 2
M  V30 2 1 2 3
M  V30 3 1 2 4
M  V30 4 1 3 5
M  V30 5 1 3 6
M  V30 6 1 4 7
M  V30 7 1 5 8
M  V30 8 1 6 9
M  V30 9 1 7 10
M  V30 10 1 8 11
M  V30 11 1 9 12
M  V30 12 1 9 13
M  V30 13 2 10 14
M  V30 14 1 10 15
M  V30 15 1 11 16
M  V30 16 1 14 17
M  V30 17 2 15 18
M  V30 18 2 17 19
M  V30 19 1 18 20
M  V30 20 1 19 21
M  V30 21 1 20 22
M  V30 22 1 21 23
M  V30 23 1 7 8
M  V30 24 1 14 16
M  V30 25 1 18 19
M  V30 26 1 3 24
M  V30 27 1 4 25
M  V30 28 1 4 26
M  V30 29 1 5 27
M  V30 30 1 5 28
M  V30 31 1 6 29
M  V30 32 1 6 30
M  V30 33 1 7 31
M  V30 34 1 9 32
M  V30 35 1 11 33
M  V30 36 1 11 34
M  V30 37 1 12 35
M  V30 38 1 12 36
M  V30 39 1 12 37
M  V30 40 1 13 38
M  V30 41 1 13 39
M  V30 42 1 13 40
M  V30 43 1 15 41
M  V30 44 1 16 42
M  V30 45 1 16 43
M  V30 46 1 17 44
M  V30 47 1 22 45
M  V30 48 1 22 46
M  V30 49 1 22 47
M  V30 50 1 23 48
M  V30 51 1 23 49
M  V30 52 1 23 50
M  V30 END BOND
M  V30 END CTAB
M  END
>  <NO.>
2036

>  <Name>
tetrabenazine (tetrabenzine)

>  <SMILES>
COc1cc2c(cc1OC)C1CC(=O)C(CC(C)C)CN1CC2

>  <logBB>


>  <Class>
1

>  <MW>
317.2

>  <nHBAcc>
4

>  <nHBDon>
0

>  <SLogP>
3.24

>  <TopoPSA>
38.77

>  <MMFF94 Energy>
66.909

$$$$
COc1cc2c(cc1OC)S(=O)(=O)OC(C(=O)NC(C)CC(C)(C)N(C)C)C2
Actelion Java MolfileCreator 2.0

  0  0  0  0  0  0              0 V3000
M  V30 BEGIN CTAB
M  V30 COUNTS 58 59 0 0 0
M  V30 BEGIN ATOM
M  V30 1 S -1.6759 -2.3149 1.596 0
M  V30 2 O -1.6435 -3.7603 1.5385 0
M  V30 3 O -1.3648 -1.5898 2.8104 0
M  V30 4 O -0.701 -1.7495 0.4262 0
M  V30 5 C -3.3037 -1.8098 1.1025 0
M  V30 6 C -0.994 -0.4474 -0.0561 0
M  V30 7 C -3.474 -0.9652 -8.0E-4 0
M  V30 8 C -4.3915 -2.2843 1.8432 0
M  V30 9 C 0.155 0.027 -0.9485 0
M  V30 10 C -2.3103 -0.4798 -0.8348 0
M  V30 11 C -4.7816 -0.6124 -0.3681 0
M  V30 12 C -5.6876 -1.9161 1.4785 0
M  V30 13 O -0.0245 0.6547 -1.9873 0
M  V30 14 N 1.403 -0.2663 -0.4371 0
M  V30 15 C -5.8858 -1.0739 0.3635 0
M  V30 16 O -6.8218 -2.3215 2.1367 0
M  V30 17 C 2.648 0.1153 -1.1087 0
M  V30 18 O -7.1914 -0.7653 0.0707 0
M  V30 19 C -6.6688 -3.197 3.2452 0
M  V30 20 C 3.7592 0.3076 -0.0514 0
M  V30 21 C 2.993 -0.9699 -2.1316 0
M  V30 22 C -7.4421 0.0743 -1.0467 0
M  V30 23 C 4.8186 1.4289 -0.3365 0
M  V30 24 N 4.1635 2.7449 -0.5851 0
M  V30 25 C 5.659 1.0098 -1.5657 0
M  V30 26 C 5.7789 1.4644 0.8795 0
M  V30 27 C 3.3157 3.2332 0.5067 0
M  V30 28 C 5.0658 3.8212 -1.0058 0
M  V30 29 H -1.0513 0.2556 0.7856 0
M  V30 30 H -4.2004 -2.9356 2.6906 0
M  V30 31 H -2.2196 -1.1544 -1.696 0
M  V30 32 H -2.5313 0.5238 -1.2187 0
M  V30 33 H -4.9178 0.0266 -1.2361 0
M  V30 34 H 1.452 -0.8891 0.3618 0
M  V30 35 H 2.4549 1.0505 -1.6444 0
M  V30 36 H -6.2084 -4.1427 2.9412 0
M  V30 37 H -7.6667 -3.4228 3.6333 0
M  V30 38 H -6.0998 -2.7191 4.0494 0
M  V30 39 H 4.2779 -0.6501 0.0989 0
M  V30 40 H 3.2959 0.5143 0.9234 0
M  V30 41 H 2.1754 -1.101 -2.8494 0
M  V30 42 H 3.1502 -1.9375 -1.6417 0
M  V30 43 H 3.8914 -0.7297 -2.7027 0
M  V30 44 H -6.992 1.0627 -0.907 0
M  V30 45 H -8.5249 0.2111 -1.1262 0
M  V30 46 H -7.0972 -0.3911 -1.9757 0
M  V30 47 H 5.966 -0.0402 -1.496 0
M  V30 48 H 6.58 1.5977 -1.6519 0
M  V30 49 H 5.1001 1.1364 -2.499 0
M  V30 50 H 6.5772 2.2029 0.7528 0
M  V30 51 H 6.2649 0.4908 1.0169 0
M  V30 52 H 5.2527 1.6922 1.8124 0
M  V30 53 H 3.888 3.4659 1.4106 0
M  V30 54 H 2.5241 2.5243 0.7635 0
M  V30 55 H 2.7929 4.1478 0.2015 0
M  V30 56 H 5.7983 4.0809 -0.235 0
M  V30 57 H 4.4947 4.7282 -1.2392 0
M  V30 58 H 5.5964 3.5734 -1.9294 0
M  V30 END ATOM
M  V30 BEGIN BOND
M  V30 1 2 1 2
M  V30 2 2 1 3
M  V30 3 1 1 4
M  V30 4 1 1 5
M  V30 5 1 4 6
M  V30 6 2 5 7
M  V30 7 1 5 8
M  V30 8 1 6 9
M  V30 9 1 6 10
M  V30 10 1 7 11
M  V30 11 2 8 12
M  V30 12 2 9 13
M  V30 13 1 9 14
M  V30 14 2 11 15
M  V30 15 1 12 16
M  V30 16 1 14 17
M  V30 17 1 15 18
M  V30 18 1 16 19
M  V30 19 1 17 20
M  V30 20 1 17 21
M  V30 21 1 18 22
M  V30 22 1 20 23
M  V30 23 1 23 24
M  V30 24 1 23 25
M  V30 25 1 23 26
M  V30 26 1 24 27
M  V30 27 1 24 28
M  V30 28 1 7 10
M  V30 29 1 12 15
M  V30 30 1 6 29
M  V30 31 1 8 30
M  V30 32 1 10 31
M  V30 33 1 10 32
M  V30 34 1 11 33
M  V30 35 1 14 34
M  V30 36 1 17 35
M  V30 37 1 19 36
M  V30 38 1 19 37
M  V30 39 1 19 38
M  V30 40 1 20 39
M  V30 41 1 20 40
M  V30 42 1 21 41
M  V30 43 1 21 42
M  V30 44 1 21 43
M  V30 45 1 22 44
M  V30 46 1 22 45
M  V30 47 1 22 46
M  V30 48 1 25 47
M  V30 49 1 25 48
M  V30 50 1 25 49
M  V30 51 1 26 50
M  V30 52 1 26 51
M  V30 53 1 26 52
M  V30 54 1 27 53
M  V30 55 1 27 54
M  V30 56 1 27 55
M  V30 57 1 28 56
M  V30 58 1 28 57
M  V30 59 1 28 58
M  V30 END BOND
M  V30 END CTAB
M  END
>  <NO.>
2037

>  <Name>
tisocromide

>  <SMILES>
COc1cc2c(cc1OC)S(=O)(=O)OC(C(=O)NC(C)CC(C)(C)N(C)C)C2

>  <logBB>


>  <Class>
1

>  <MW>
414.18

>  <nHBAcc>
7

>  <nHBDon>
1

>  <SLogP>
1.57

>  <TopoPSA>
94.17

>  <MMFF94 Energy>
58.821

$$$$
COc1cc2c(cc1OC)[C@@H](c1ccccc1)CN(C)CC2
Actelion Java MolfileCreator 2.0

  0  0  0  0  0  0              0 V3000
M  V30 BEGIN CTAB
M  V30 COUNTS 45 47 0 0 0
M  V30 BEGIN ATOM
M  V30 1 O 3.6539 1.0316 -0.2379 0
M  V30 2 C 2.5661 0.1947 -0.278 0
M  V30 3 C 3.4247 2.3878 0.1174 0
M  V30 4 C 2.7781 -1.0731 -0.8307 0
M  V30 5 C 1.2933 0.5284 0.1997 0
M  V30 6 O 4.0461 -1.3336 -1.2859 0
M  V30 7 C 1.7163 -1.9804 -0.8725 0
M  V30 8 C 0.1898 -0.3574 0.1161 0
M  V30 9 C 4.2806 -2.5879 -1.9078 0
M  V30 10 C 0.4311 -1.655 -0.3783 0
M  V30 11 C -1.1757 0.1367 0.6344 0 CFG=1
M  V30 12 C -0.6035 -2.7623 -0.4185 0
M  V30 13 C -1.4313 1.6249 0.3415 0
M  V30 14 C -2.4275 -0.6369 0.1266 0
M  V30 15 C -1.5097 -2.814 0.8163 0
M  V30 16 C -1.4445 2.1167 -0.975 0
M  V30 17 C -1.6704 2.5177 1.3987 0
M  V30 18 N -2.6966 -1.9607 0.713 0
M  V30 19 C -1.6825 3.4687 -1.2246 0
M  V30 20 C -1.9092 3.8692 1.1444 0
M  V30 21 C -3.3741 -1.8617 2.0051 0
M  V30 22 C -1.9145 4.3439 -0.1656 0
M  V30 23 H 2.6839 2.8542 -0.5406 0
M  V30 24 H 4.3671 2.9296 -0.008 0
M  V30 25 H 3.1316 2.4731 1.1687 0
M  V30 26 H 1.1352 1.505 0.6479 0
M  V30 27 H 1.8689 -2.9766 -1.2772 0
M  V30 28 H 4.1428 -3.4109 -1.199 0
M  V30 29 H 5.3233 -2.6072 -2.239 0
M  V30 30 H 3.649 -2.7163 -2.7929 0
M  V30 31 H -1.1258 0.0238 1.7265 0
M  V30 32 H -0.081 -3.7278 -0.4587 0
M  V30 33 H -1.18 -2.6972 -1.3492 0
M  V30 34 H -3.3296 -0.0247 0.2714 0
M  V30 35 H -2.3649 -0.7518 -0.9642 0
M  V30 36 H -0.9255 -2.5852 1.7181 0
M  V30 37 H -1.8645 -3.8466 0.9277 0
M  V30 38 H -1.2591 1.4486 -1.8139 0
M  V30 39 H -1.6719 2.167 2.4284 0
M  V30 40 H -1.6859 3.8387 -2.2466 0
M  V30 41 H -2.0927 4.5528 1.9694 0
M  V30 42 H -2.7622 -1.3568 2.7604 0
M  V30 43 H -4.319 -1.316 1.9063 0
M  V30 44 H -3.63 -2.8584 2.3819 0
M  V30 45 H -2.1008 5.3965 -0.3619 0
M  V30 END ATOM
M  V30 BEGIN BOND
M  V30 1 1 1 2
M  V30 2 1 1 3
M  V30 3 2 2 4
M  V30 4 1 2 5
M  V30 5 1 4 6
M  V30 6 1 4 7
M  V30 7 2 5 8
M  V30 8 1 6 9
M  V30 9 2 7 10
M  V30 10 1 8 11
M  V30 11 1 10 12
M  V30 12 1 11 13
M  V30 13 1 11 14
M  V30 14 1 12 15
M  V30 15 2 13 16
M  V30 16 1 13 17
M  V30 17 1 14 18
M  V30 18 1 16 19
M  V30 19 2 17 20
M  V30 20 1 18 21
M  V30 21 2 19 22
M  V30 22 1 8 10
M  V30 23 1 15 18
M  V30 24 1 20 22
M  V30 25 1 3 23
M  V30 26 1 3 24
M  V30 27 1 3 25
M  V30 28 1 5 26
M  V30 29 1 7 27
M  V30 30 1 9 28
M  V30 31 1 9 29
M  V30 32 1 9 30
M  V30 33 1 11 31
M  V30 34 1 12 32
M  V30 35 1 12 33
M  V30 36 1 14 34
M  V30 37 1 14 35
M  V30 38 1 15 36
M  V30 39 1 15 37
M  V30 40 1 16 38
M  V30 41 1 17 39
M  V30 42 1 19 40
M  V30 43 1 20 41
M  V30 44 1 21 42
M  V30 45 1 21 43
M  V30 46 1 21 44
M  V30 47 1 22 45
M  V30 END BOND
M  V30 BEGIN COLLECTION
M  V30 MDLV30/STEABS ATOMS=(1 11)
M  V30 END COLLECTION
M  V30 END CTAB
M  END
>  <NO.>
2038

>  <Name>
trepipam (trimopam)

>  <SMILES>
COc1cc2c(cc1OC)[C@@H](c1ccccc1)CN(C)CC2

>  <logBB>


>  <Class>
1

>  <MW>
297.17

>  <nHBAcc>
3

>  <nHBDon>
0

>  <SLogP>
3.32

>  <TopoPSA>
21.7

>  <MMFF94 Energy>
124.5

$$$$
COc1cc2c3c(c1O)C1(C=CC(=O)C=C1)CC3N(C)CC2
Actelion Java MolfileCreator 2.0

  0  0  0  0  0  0              0 V3000
M  V30 BEGIN CTAB
M  V30 COUNTS 41 44 0 0 0
M  V30 BEGIN ATOM
M  V30 1 O 0.725 5.7305 -0.8056 0
M  V30 2 C 0.6859 4.5236 -0.5998 0
M  V30 3 C 1.5326 3.5844 -1.3662 0
M  V30 4 C -0.203 3.9509 0.4351 0
M  V30 5 C 1.5084 2.2686 -1.1095 0
M  V30 6 C -0.2165 2.6332 0.6837 0
M  V30 7 C 0.6444 1.6203 -0.0487 0
M  V30 8 C -0.1922 0.4732 -0.5775 0
M  V30 9 C 1.569 0.8427 0.9543 0
M  V30 10 C -0.9829 0.3592 -1.7035 0
M  V30 11 C -0.0824 -0.6287 0.2712 0
M  V30 12 C 0.7168 -0.3177 1.5016 0 CFG=1
M  V30 13 O -1.1496 1.4311 -2.5333 0
M  V30 14 C -1.6157 -0.8638 -2.0036 0
M  V30 15 C -0.6527 -1.8616 -0.0067 0
M  V30 16 N 1.4259 -1.5113 1.9817 0
M  V30 17 O -2.3661 -0.8457 -3.1556 0
M  V30 18 C -1.4313 -1.9771 -1.163 0
M  V30 19 C -0.2921 -3.0221 0.8817 0
M  V30 20 C 0.434 -2.5968 2.186 0
M  V30 21 C 2.1429 -1.2324 3.2245 0
M  V30 22 C -3.0425 -2.0505 -3.4949 0
M  V30 23 H 2.1534 4.0153 -2.1415 0
M  V30 24 H -0.836 4.6513 0.9657 0
M  V30 25 H 2.13 1.6108 -1.713 0
M  V30 26 H -0.9001 2.2613 1.443 0
M  V30 27 H 2.4477 0.4354 0.4305 0
M  V30 28 H 1.9502 1.4818 1.7604 0
M  V30 29 H 0.028 0.0593 2.2716 0
M  V30 30 H -1.7351 1.1105 -3.2464 0
M  V30 31 H -1.8678 -2.9424 -1.3963 0
M  V30 32 H 0.3716 -3.6848 0.3121 0
M  V30 33 H -1.1945 -3.5874 1.1409 0
M  V30 34 H 0.9293 -3.485 2.5977 0
M  V30 35 H -0.3169 -2.282 2.9245 0
M  V30 36 H 1.473 -0.8984 4.0253 0
M  V30 37 H 2.9067 -0.4628 3.0696 0
M  V30 38 H 2.6711 -2.1279 3.5703 0
M  V30 39 H -2.331 -2.8575 -3.6984 0
M  V30 40 H -3.6091 -1.8676 -4.413 0
M  V30 41 H -3.7561 -2.3369 -2.7151 0
M  V30 END ATOM
M  V30 BEGIN BOND
M  V30 1 2 1 2
M  V30 2 1 2 3
M  V30 3 1 2 4
M  V30 4 2 3 5
M  V30 5 2 4 6
M  V30 6 1 5 7
M  V30 7 1 7 8
M  V30 8 1 7 9
M  V30 9 2 8 10
M  V30 10 1 8 11
M  V30 11 1 9 12
M  V30 12 1 10 13
M  V30 13 1 10 14
M  V30 14 2 11 15
M  V30 15 1 12 16
M  V30 16 1 14 17
M  V30 17 2 14 18
M  V30 18 1 15 19
M  V30 19 1 16 20
M  V30 20 1 16 21
M  V30 21 1 17 22
M  V30 22 1 6 7
M  V30 23 1 11 12
M  V30 24 1 15 18
M  V30 25 1 19 20
M  V30 26 1 3 23
M  V30 27 1 4 24
M  V30 28 1 5 25
M  V30 29 1 6 26
M  V30 30 1 9 27
M  V30 31 1 9 28
M  V30 32 1 12 29
M  V30 33 1 13 30
M  V30 34 1 18 31
M  V30 35 1 19 32
M  V30 36 1 19 33
M  V30 37 1 20 34
M  V30 38 1 20 35
M  V30 39 1 21 36
M  V30 40 1 21 37
M  V30 41 1 21 38
M  V30 42 1 22 39
M  V30 43 1 22 40
M  V30 44 1 22 41
M  V30 END BOND
M  V30 BEGIN COLLECTION
M  V30 MDLV30/STERAC1 ATOMS=(1 12)
M  V30 END COLLECTION
M  V30 END CTAB
M  END
>  <NO.>
2039

>  <Name>
glaziovine

>  <SMILES>
COc1cc2c3c(c1O)C1(C=CC(=O)C=C1)CC3N(C)CC2

>  <logBB>


>  <Class>
1

>  <MW>
297.14

>  <nHBAcc>
4

>  <nHBDon>
1

>  <SLogP>
2.27

>  <TopoPSA>
49.77

>  <MMFF94 Energy>
73.925

$$$$
COc1cc2oc(=O)c(C)c(C)c2cc1OCCCN1CCN(c2ccccc2OC)CC1
Actelion Java MolfileCreator 2.0

  0  0  0  0  0  0              0 V3000
M  V30 BEGIN CTAB
M  V30 COUNTS 65 68 0 0 0
M  V30 BEGIN ATOM
M  V30 1 O 6.2947 -2.1479 6.5343 0
M  V30 2 C 5.6707 -1.4978 5.7014 0
M  V30 3 O 4.5096 -1.9963 5.1402 0
M  V30 4 C 6.1227 -0.1459 5.2614 0
M  V30 5 C 3.7792 -1.2648 4.1909 0
M  V30 6 C 5.416 0.5838 4.3706 0
M  V30 7 C 7.4167 0.2705 5.91 0
M  V30 8 C 4.1877 0.0041 3.7881 0
M  V30 9 C 2.6363 -1.8965 3.683 0
M  V30 10 C 5.7924 1.9762 3.9301 0
M  V30 11 C 3.3972 0.6508 2.8312 0
M  V30 12 C 1.8559 -1.2458 2.7324 0
M  V30 13 C 2.2392 0.0416 2.3307 0
M  V30 14 O 0.7288 -1.7577 2.1483 0
M  V30 15 O 1.5375 0.7239 1.3679 0
M  V30 16 C 0.3808 -3.0982 2.4692 0
M  V30 17 C 0.3851 1.3595 1.9361 0
M  V30 18 C -0.5902 1.7027 0.8123 0
M  V30 19 C -1.1281 0.4354 0.1341 0
M  V30 20 N -2.1983 0.7255 -0.8388 0
M  V30 21 C -1.6745 1.3982 -2.0523 0
M  V30 22 C -2.8503 -0.5431 -1.2541 0
M  V30 23 C -2.7628 1.6525 -3.1229 0
M  V30 24 C -3.963 -0.3471 -2.3089 0
M  V30 25 N -3.4522 0.4037 -3.4706 0
M  V30 26 C -4.1966 0.3049 -4.6459 0
M  V30 27 C -4.393 -0.928 -5.3087 0
M  V30 28 C -4.8104 1.4311 -5.2206 0
M  V30 29 O -3.8093 -2.1038 -4.8912 0
M  V30 30 C -5.2124 -1.0355 -6.4387 0
M  V30 31 C -5.6086 1.3327 -6.3674 0
M  V30 32 C -2.3966 -2.0636 -5.0968 0
M  V30 33 C -5.8171 0.0977 -6.9713 0
M  V30 34 H 8.1536 -0.539 5.8576 0
M  V30 35 H 7.8911 1.1299 5.433 0
M  V30 36 H 7.2485 0.5172 6.9636 0
M  V30 37 H 2.3941 -2.8884 4.048 0
M  V30 38 H 6.0675 1.9821 2.8699 0
M  V30 39 H 4.9569 2.6691 4.0833 0
M  V30 40 H 6.63 2.4034 4.4845 0
M  V30 41 H 3.6563 1.6327 2.4465 0
M  V30 42 H 1.1796 -3.793 2.1896 0
M  V30 43 H -0.5077 -3.3606 1.887 0
M  V30 44 H 0.1244 -3.1946 3.5292 0
M  V30 45 H 0.7071 2.2846 2.4297 0
M  V30 46 H -0.1166 0.7294 2.6815 0
M  V30 47 H -1.4209 2.2864 1.2263 0
M  V30 48 H -0.0712 2.3285 0.078 0
M  V30 49 H -0.3114 -0.1233 -0.3403 0
M  V30 50 H -1.5388 -0.209 0.9224 0
M  V30 51 H -1.2475 2.3716 -1.7886 0
M  V30 52 H -0.8721 0.7965 -2.5001 0
M  V30 53 H -2.0994 -1.2359 -1.6578 0
M  V30 54 H -3.3003 -1.024 -0.3769 0
M  V30 55 H -2.2756 2.0803 -4.0076 0
M  V30 56 H -3.4835 2.3864 -2.7402 0
M  V30 57 H -4.7985 0.2077 -1.8624 0
M  V30 58 H -4.3452 -1.3355 -2.584 0
M  V30 59 H -4.7056 2.4096 -4.761 0
M  V30 60 H -5.3605 -2.0042 -6.907 0
M  V30 61 H -6.0783 2.2238 -6.7757 0
M  V30 62 H -2.1273 -1.5845 -6.0456 0
M  V30 63 H -2.0391 -3.0973 -5.1327 0
M  V30 64 H -1.8915 -1.5692 -4.2626 0
M  V30 65 H -6.4456 0.0177 -7.8537 0
M  V30 END ATOM
M  V30 BEGIN BOND
M  V30 1 2 1 2
M  V30 2 1 2 3
M  V30 3 1 2 4
M  V30 4 1 3 5
M  V30 5 2 4 6
M  V30 6 1 4 7
M  V30 7 2 5 8
M  V30 8 1 5 9
M  V30 9 1 6 10
M  V30 10 1 8 11
M  V30 11 2 9 12
M  V30 12 2 11 13
M  V30 13 1 12 14
M  V30 14 1 13 15
M  V30 15 1 14 16
M  V30 16 1 15 17
M  V30 17 1 17 18
M  V30 18 1 18 19
M  V30 19 1 19 20
M  V30 20 1 20 21
M  V30 21 1 20 22
M  V30 22 1 21 23
M  V30 23 1 22 24
M  V30 24 1 23 25
M  V30 25 1 25 26
M  V30 26 2 26 27
M  V30 27 1 26 28
M  V30 28 1 27 29
M  V30 29 1 27 30
M  V30 30 2 28 31
M  V30 31 1 29 32
M  V30 32 2 30 33
M  V30 33 1 6 8
M  V30 34 1 12 13
M  V30 35 1 24 25
M  V30 36 1 31 33
M  V30 37 1 7 34
M  V30 38 1 7 35
M  V30 39 1 7 36
M  V30 40 1 9 37
M  V30 41 1 10 38
M  V30 42 1 10 39
M  V30 43 1 10 40
M  V30 44 1 11 41
M  V30 45 1 16 42
M  V30 46 1 16 43
M  V30 47 1 16 44
M  V30 48 1 17 45
M  V30 49 1 17 46
M  V30 50 1 18 47
M  V30 51 1 18 48
M  V30 52 1 19 49
M  V30 53 1 19 50
M  V30 54 1 21 51
M  V30 55 1 21 52
M  V30 56 1 22 53
M  V30 57 1 22 54
M  V30 58 1 23 55
M  V30 59 1 23 56
M  V30 60 1 24 57
M  V30 61 1 24 58
M  V30 62 1 28 59
M  V30 63 1 30 60
M  V30 64 1 31 61
M  V30 65 1 32 62
M  V30 66 1 32 63
M  V30 67 1 32 64
M  V30 68 1 33 65
M  V30 END BOND
M  V30 END CTAB
M  END
>  <NO.>
2040

>  <Name>
ensaculin

>  <SMILES>
COc1cc2oc(=O)c(C)c(C)c2cc1OCCCN1CCN(c2ccccc2OC)CC1

>  <logBB>


>  <Class>
1

>  <MW>
452.23

>  <nHBAcc>
7

>  <nHBDon>
0

>  <SLogP>
4.02

>  <TopoPSA>
64.38

>  <MMFF94 Energy>
175.91

$$$$
COc1ccc(C#N)cc1C(=O)NCCN1CCC(C(=O)c2ccc(F)cc2)CC1
Actelion Java MolfileCreator 2.0

  0  0  0  0  0  0              0 V3000
M  V30 BEGIN CTAB
M  V30 COUNTS 54 56 0 0 0
M  V30 BEGIN ATOM
M  V30 1 F 5.0424 -0.6392 6.8882 0
M  V30 2 C 4.4624 -0.7745 5.6892 0
M  V30 3 C 5.2289 -0.6512 4.5385 0
M  V30 4 C 3.099 -1.0345 5.6136 0
M  V30 5 C 4.6199 -0.7925 3.2895 0
M  V30 6 C 2.4857 -1.177 4.3644 0
M  V30 7 C 3.2435 -1.0602 3.1904 0
M  V30 8 C 2.6532 -1.2001 1.8205 0
M  V30 9 O 3.3458 -0.8983 0.8482 0
M  V30 10 C 1.2157 -1.686 1.6566 0
M  V30 11 C 0.2643 -0.4876 1.6598 0
M  V30 12 C 1.0614 -2.4772 0.3512 0
M  V30 13 C -1.1694 -0.903 1.3305 0
M  V30 14 C -0.4002 -2.8282 0.0814 0
M  V30 15 N -1.2263 -1.6136 0.0466 0
M  V30 16 C -2.6168 -1.9462 -0.341 0
M  V30 17 C -3.4713 -0.7138 -0.6926 0
M  V30 18 N -2.7436 0.2054 -1.543 0
M  V30 19 C -3.3404 1.2267 -2.2323 0
M  V30 20 O -4.5562 1.4011 -2.2196 0
M  V30 21 C -2.4562 2.1471 -3.0245 0
M  V30 22 C -1.0439 2.1246 -3.0077 0
M  V30 23 C -3.1233 3.0925 -3.8299 0
M  V30 24 O -0.4262 1.2019 -2.2039 0
M  V30 25 C -0.339 3.0445 -3.7984 0
M  V30 26 C -2.4094 4.0018 -4.6122 0
M  V30 27 C 0.9964 1.1445 -2.2043 0
M  V30 28 C -1.0157 3.9745 -4.5945 0
M  V30 29 C -3.1013 4.9567 -5.4276 0
M  V30 30 N -3.6475 5.7351 -6.0927 0
M  V30 31 H 6.2918 -0.4454 4.617 0
M  V30 32 H 2.5211 -1.1214 6.5291 0
M  V30 33 H 5.2268 -0.6933 2.3906 0
M  V30 34 H 1.4177 -1.3678 4.3439 0
M  V30 35 H 0.9626 -2.3717 2.4729 0
M  V30 36 H 0.2806 0.0106 2.6361 0
M  V30 37 H 0.6028 0.2621 0.9323 0
M  V30 38 H 1.6583 -3.3961 0.4023 0
M  V30 39 H 1.4534 -1.9034 -0.4982 0
M  V30 40 H -1.5712 -1.5263 2.1398 0
M  V30 41 H -1.772 0.0108 1.2956 0
M  V30 42 H -0.4486 -3.3429 -0.8857 0
M  V30 43 H -0.7653 -3.5295 0.8429 0
M  V30 44 H -3.1175 -2.5386 0.4347 0
M  V30 45 H -2.5809 -2.5685 -1.2451 0
M  V30 46 H -4.3895 -1.0233 -1.2038 0
M  V30 47 H -3.766 -0.1657 0.2086 0
M  V30 48 H -1.7279 0.1339 -1.5296 0
M  V30 49 H -4.2137 3.1143 -3.8444 0
M  V30 50 H 0.7466 3.0688 -3.8177 0
M  V30 51 H 1.3812 0.9055 -3.2009 0
M  V30 52 H 1.2984 0.3385 -1.5304 0
M  V30 53 H 1.4267 2.076 -1.8227 0
M  V30 54 H -0.4427 4.6771 -5.198 0
M  V30 END ATOM
M  V30 BEGIN BOND
M  V30 1 1 1 2
M  V30 2 2 2 3
M  V30 3 1 2 4
M  V30 4 1 3 5
M  V30 5 2 4 6
M  V30 6 2 5 7
M  V30 7 1 7 8
M  V30 8 2 8 9
M  V30 9 1 8 10
M  V30 10 1 10 11
M  V30 11 1 10 12
M  V30 12 1 11 13
M  V30 13 1 12 14
M  V30 14 1 13 15
M  V30 15 1 15 16
M  V30 16 1 16 17
M  V30 17 1 17 18
M  V30 18 1 18 19
M  V30 19 2 19 20
M  V30 20 1 19 21
M  V30 21 2 21 22
M  V30 22 1 21 23
M  V30 23 1 22 24
M  V30 24 1 22 25
M  V30 25 2 23 26
M  V30 26 1 24 27
M  V30 27 2 25 28
M  V30 28 1 26 29
M  V30 29 3 29 30
M  V30 30 1 6 7
M  V30 31 1 14 15
M  V30 32 1 26 28
M  V30 33 1 3 31
M  V30 34 1 4 32
M  V30 35 1 5 33
M  V30 36 1 6 34
M  V30 37 1 10 35
M  V30 38 1 11 36
M  V30 39 1 11 37
M  V30 40 1 12 38
M  V30 41 1 12 39
M  V30 42 1 13 40
M  V30 43 1 13 41
M  V30 44 1 14 42
M  V30 45 1 14 43
M  V30 46 1 16 44
M  V30 47 1 16 45
M  V30 48 1 17 46
M  V30 49 1 17 47
M  V30 50 1 18 48
M  V30 51 1 23 49
M  V30 52 1 25 50
M  V30 53 1 27 51
M  V30 54 1 27 52
M  V30 55 1 27 53
M  V30 56 1 28 54
M  V30 END BOND
M  V30 END CTAB
M  END
>  <NO.>
2042

>  <Name>
prideperone

>  <SMILES>
COc1ccc(C#N)cc1C(=O)NCCN1CCC(C(=O)c2ccc(F)cc2)CC1

>  <logBB>


>  <Class>
1

>  <MW>
409.18

>  <nHBAcc>
5

>  <nHBDon>
1

>  <SLogP>
3.03

>  <TopoPSA>
82.43

>  <MMFF94 Energy>
73.589

$$$$
COc1ccc(C(=O)N2CCCC2=O)cc1
Actelion Java MolfileCreator 2.0

  0  0  0  0  0  0              0 V3000
M  V30 BEGIN CTAB
M  V30 COUNTS 29 30 0 0 0
M  V30 BEGIN ATOM
M  V30 1 O -2.0649 0.3174 0.5556 0
M  V30 2 C -1.7947 1.483 0.3193 0
M  V30 3 N -0.5884 2.024 -0.1651 0
M  V30 4 C -2.7459 2.6299 0.5613 0
M  V30 5 C 0.5768 1.3795 -0.5855 0
M  V30 6 C -0.7101 3.4536 -0.3375 0
M  V30 7 C -2.1991 3.7152 -0.3454 0
M  V30 8 O 1.4326 1.9396 -1.2711 0
M  V30 9 C 0.7999 -0.0396 -0.2283 0
M  V30 10 C 1.2023 -0.9272 -1.2319 0
M  V30 11 C 0.7203 -0.4771 1.0954 0
M  V30 12 C 1.4819 -2.2625 -0.9206 0
M  V30 13 C 0.9995 -1.812 1.3998 0
M  V30 14 C 1.3767 -2.711 0.3972 0
M  V30 15 O 1.6227 -3.983 0.8356 0
M  V30 16 C 1.9666 -4.9473 -0.1509 0
M  V30 17 H -2.6932 2.9168 1.6162 0
M  V30 18 H -3.7697 2.3548 0.297 0
M  V30 19 H -0.2225 3.9343 0.5183 0
M  V30 20 H -0.223 3.8002 -1.2541 0
M  V30 21 H -2.5953 3.5819 -1.3597 0
M  V30 22 H -2.457 4.7238 -0.0109 0
M  V30 23 H 1.3037 -0.5798 -2.2576 0
M  V30 24 H 0.4397 0.2038 1.8932 0
M  V30 25 H 1.7851 -2.9207 -1.7276 0
M  V30 26 H 0.9223 -2.156 2.4285 0
M  V30 27 H 1.1615 -5.0689 -0.8832 0
M  V30 28 H 2.1043 -5.908 0.3545 0
M  V30 29 H 2.9118 -4.6903 -0.6402 0
M  V30 END ATOM
M  V30 BEGIN BOND
M  V30 1 2 1 2
M  V30 2 1 2 3
M  V30 3 1 2 4
M  V30 4 1 3 5
M  V30 5 1 3 6
M  V30 6 1 4 7
M  V30 7 2 5 8
M  V30 8 1 5 9
M  V30 9 2 9 10
M  V30 10 1 9 11
M  V30 11 1 10 12
M  V30 12 2 11 13
M  V30 13 2 12 14
M  V30 14 1 14 15
M  V30 15 1 15 16
M  V30 16 1 6 7
M  V30 17 1 13 14
M  V30 18 1 4 17
M  V30 19 1 4 18
M  V30 20 1 6 19
M  V30 21 1 6 20
M  V30 22 1 7 21
M  V30 23 1 7 22
M  V30 24 1 10 23
M  V30 25 1 11 24
M  V30 26 1 12 25
M  V30 27 1 13 26
M  V30 28 1 16 27
M  V30 29 1 16 28
M  V30 30 1 16 29
M  V30 END BOND
M  V30 END CTAB
M  END
>  <NO.>
2043

>  <Name>
aniracetam

>  <SMILES>
COc1ccc(C(=O)N2CCCC2=O)cc1

>  <logBB>


>  <Class>
1

>  <MW>
219.09

>  <nHBAcc>
3

>  <nHBDon>
0

>  <SLogP>
1.46

>  <TopoPSA>
46.61

>  <MMFF94 Energy>
7.8644

$$$$
COc1ccc(C(O)CN2CCN(C(c3ccccc3)c3ccccc3)CC2)cc1OC
Actelion Java MolfileCreator 2.0

  0  0  0  0  0  0              0 V3000
M  V30 BEGIN CTAB
M  V30 COUNTS 64 67 0 0 0
M  V30 BEGIN ATOM
M  V30 1 O 2.6248 -1.2719 -6.6119 0
M  V30 2 C 1.9006 -1.3675 -5.4487 0
M  V30 3 C 2.2328 -0.2886 -7.5577 0
M  V30 4 C 2.3392 -2.3381 -4.5271 0
M  V30 5 C 0.7844 -0.5764 -5.1439 0
M  V30 6 O 3.4378 -3.0726 -4.8992 0
M  V30 7 C 1.653 -2.4986 -3.3205 0
M  V30 8 C 0.0922 -0.7352 -3.9312 0
M  V30 9 C 3.9298 -4.0332 -3.9766 0
M  V30 10 C 0.5407 -1.7052 -3.0279 0
M  V30 11 C -1.1206 0.1259 -3.6266 0 CFG=1
M  V30 12 O -2.2706 -0.6809 -3.361 0
M  V30 13 C -0.8985 1.2054 -2.5264 0
M  V30 14 N -0.5311 0.7451 -1.1655 0
M  V30 15 C -1.6777 0.1323 -0.4645 0
M  V30 16 C -0.0507 1.8869 -0.3612 0
M  V30 17 C -1.3371 -0.2581 0.994 0
M  V30 18 C 0.2974 1.4838 1.0887 0
M  V30 19 N -0.8583 0.8894 1.8051 0
M  V30 20 C -0.4699 0.451 3.1808 0
M  V30 21 C 0.1056 1.5831 4.0443 0
M  V30 22 C -1.6043 -0.2444 3.9476 0
M  V30 23 C -0.5274 2.8345 4.141 0
M  V30 24 C 1.28 1.3697 4.7864 0
M  V30 25 C -2.9032 0.2909 3.9942 0
M  V30 26 C -1.3463 -1.4328 4.6524 0
M  V30 27 C 0.004 3.8446 4.9445 0
M  V30 28 C 1.8099 2.3814 5.5899 0
M  V30 29 C -3.9152 -0.3492 4.7115 0
M  V30 30 C -2.36 -2.0714 5.3698 0
M  V30 31 C 1.1725 3.6179 5.6678 0
M  V30 32 C -3.6434 -1.5301 5.3981 0
M  V30 33 H 1.224 -0.4842 -7.9356 0
M  V30 34 H 2.9215 -0.347 -8.4059 0
M  V30 35 H 2.3103 0.7189 -7.1363 0
M  V30 36 H 0.4329 0.1753 -5.8432 0
M  V30 37 H 1.9577 -3.231 -2.581 0
M  V30 38 H 4.2486 -3.5585 -3.0428 0
M  V30 39 H 4.8085 -4.5073 -4.4243 0
M  V30 40 H 3.1888 -4.8174 -3.7903 0
M  V30 41 H 0.0287 -1.845 -2.078 0
M  V30 42 H -1.3787 0.6748 -4.5412 0
M  V30 43 H -2.0944 -1.5619 -3.7323 0
M  V30 44 H -1.8014 1.828 -2.4647 0
M  V30 45 H -0.0916 1.8537 -2.8947 0
M  V30 46 H -2.5393 0.8133 -0.4589 0
M  V30 47 H -1.986 -0.7855 -0.9725 0
M  V30 48 H 0.8552 2.2994 -0.8216 0
M  V30 49 H -0.8011 2.6891 -0.3405 0
M  V30 50 H -2.2496 -0.6819 1.4262 0
M  V30 51 H -0.5833 -1.0574 0.9792 0
M  V30 52 H 1.1429 0.7826 1.0718 0
M  V30 53 H 0.6398 2.3928 1.5943 0
M  V30 54 H 0.3309 -0.2922 3.0505 0
M  V30 55 H -1.438 3.0272 3.5784 0
M  V30 56 H 1.7887 0.4096 4.7458 0
M  V30 57 H -3.1314 1.2097 3.4591 0
M  V30 58 H -0.3496 -1.8673 4.6501 0
M  V30 59 H -0.4965 4.807 5.0061 0
M  V30 60 H 2.7184 2.2029 6.1588 0
M  V30 61 H -4.9148 0.0763 4.7343 0
M  V30 62 H -2.1466 -2.9893 5.9108 0
M  V30 63 H 1.5842 4.4037 6.2952 0
M  V30 64 H -4.4311 -2.0264 5.9583 0
M  V30 END ATOM
M  V30 BEGIN BOND
M  V30 1 1 1 2
M  V30 2 1 1 3
M  V30 3 2 2 4
M  V30 4 1 2 5
M  V30 5 1 4 6
M  V30 6 1 4 7
M  V30 7 2 5 8
M  V30 8 1 6 9
M  V30 9 2 7 10
M  V30 10 1 8 11
M  V30 11 1 11 12
M  V30 12 1 11 13
M  V30 13 1 13 14
M  V30 14 1 14 15
M  V30 15 1 14 16
M  V30 16 1 15 17
M  V30 17 1 16 18
M  V30 18 1 17 19
M  V30 19 1 19 20
M  V30 20 1 20 21
M  V30 21 1 20 22
M  V30 22 2 21 23
M  V30 23 1 21 24
M  V30 24 2 22 25
M  V30 25 1 22 26
M  V30 26 1 23 27
M  V30 27 2 24 28
M  V30 28 1 25 29
M  V30 29 2 26 30
M  V30 30 2 27 31
M  V30 31 2 29 32
M  V30 32 1 8 10
M  V30 33 1 18 19
M  V30 34 1 28 31
M  V30 35 1 30 32
M  V30 36 1 3 33
M  V30 37 1 3 34
M  V30 38 1 3 35
M  V30 39 1 5 36
M  V30 40 1 7 37
M  V30 41 1 9 38
M  V30 42 1 9 39
M  V30 43 1 9 40
M  V30 44 1 10 41
M  V30 45 1 11 42
M  V30 46 1 12 43
M  V30 47 1 13 44
M  V30 48 1 13 45
M  V30 49 1 15 46
M  V30 50 1 15 47
M  V30 51 1 16 48
M  V30 52 1 16 49
M  V30 53 1 17 50
M  V30 54 1 17 51
M  V30 55 1 18 52
M  V30 56 1 18 53
M  V30 57 1 20 54
M  V30 58 1 23 55
M  V30 59 1 24 56
M  V30 60 1 25 57
M  V30 61 1 26 58
M  V30 62 1 27 59
M  V30 63 1 28 60
M  V30 64 1 29 61
M  V30 65 1 30 62
M  V30 66 1 31 63
M  V30 67 1 32 64
M  V30 END BOND
M  V30 BEGIN COLLECTION
M  V30 MDLV30/STERAC1 ATOMS=(1 11)
M  V30 END COLLECTION
M  V30 END CTAB
M  END
>  <NO.>
2044

>  <Name>
tamolarizine

>  <SMILES>
COc1ccc(C(O)CN2CCN(C(c3ccccc3)c3ccccc3)CC2)cc1OC

>  <logBB>


>  <Class>
1

>  <MW>
432.24

>  <nHBAcc>
5

>  <nHBDon>
1

>  <SLogP>
4.14

>  <TopoPSA>
45.17

>  <MMFF94 Energy>
193.5

$$$$
COc1ccc(CC(=O)N2CCN(C(C)=O)C[C@@H]2CN2CC[C@@H](O)C2)cc1
Actelion Java MolfileCreator 2.0

  0  0  0  0  0  0              0 V3000
M  V30 BEGIN CTAB
M  V30 COUNTS 56 58 0 0 0
M  V30 BEGIN ATOM
M  V30 1 O 0.3961 0.0792 -1.5853 0
M  V30 2 C -0.4409 0.7422 -0.9714 0
M  V30 3 N -1.1335 0.1998 0.1133 0
M  V30 4 C -0.7686 2.1841 -1.347 0
M  V30 5 C -0.7804 -1.1832 0.5409 0 CFG=2
M  V30 6 C -1.9877 0.9713 1.0298 0
M  V30 7 C -0.001 2.7185 -2.5333 0
M  V30 8 C -2.0007 -1.9411 1.1123 0
M  V30 9 C 0.4183 -1.1574 1.5313 0
M  V30 10 C -3.186 0.1682 1.5522 0
M  V30 11 C -0.5638 2.6982 -3.8144 0
M  V30 12 C 1.2941 3.2282 -2.373 0
M  V30 13 N -2.7678 -1.1341 2.0666 0
M  V30 14 N 0.934 -2.479 1.909 0
M  V30 15 C 0.1521 3.194 -4.9067 0
M  V30 16 C 2.0093 3.7218 -3.4702 0
M  V30 17 C -3.0798 -1.6578 3.3089 0
M  V30 18 C 1.592 -3.1927 0.8018 0
M  V30 19 C 1.9538 -2.3937 2.9618 0
M  V30 20 C 1.4398 3.7079 -4.7429 0
M  V30 21 O -2.721 -2.7773 3.6718 0
M  V30 22 C -3.8926 -0.7927 4.2375 0
M  V30 23 C 2.269 -4.3358 1.5542 0 CFG=1
M  V30 24 C 2.7507 -3.6933 2.8496 0
M  V30 25 O 2.0261 4.1596 -5.8931 0
M  V30 26 O 1.3077 -5.3487 1.8631 0
M  V30 27 C 3.3629 4.6317 -5.7885 0
M  V30 28 H -0.5653 2.8288 -0.4833 0
M  V30 29 H -1.8424 2.252 -1.5598 0
M  V30 30 H -0.4613 -1.7297 -0.3544 0
M  V30 31 H -2.354 1.8849 0.5574 0
M  V30 32 H -1.3493 1.2749 1.8678 0
M  V30 33 H -2.6922 -2.1691 0.2907 0
M  V30 34 H -1.7051 -2.902 1.5441 0
M  V30 35 H 0.0937 -0.6385 2.4429 0
M  V30 36 H 1.2259 -0.5454 1.1075 0
M  V30 37 H -3.7167 0.7549 2.3046 0
M  V30 38 H -3.889 -0.0257 0.7332 0
M  V30 39 H -1.5592 2.2925 -3.9774 0
M  V30 40 H 1.7629 3.2364 -1.3915 0
M  V30 41 H -0.295 3.1723 -5.8973 0
M  V30 42 H 3.0089 4.1042 -3.2953 0
M  V30 43 H 2.3364 -2.5625 0.3004 0
M  V30 44 H 0.8644 -3.5659 0.0753 0
M  V30 45 H 2.6285 -1.5417 2.8087 0
M  V30 46 H 1.4937 -2.2918 3.95 0
M  V30 47 H -3.3492 0.1277 4.4665 0
M  V30 48 H -4.8617 -0.5622 3.7873 0
M  V30 49 H -4.069 -1.3294 5.1746 0
M  V30 50 H 3.0805 -4.798 0.9858 0
M  V30 51 H 2.5819 -4.3405 3.7168 0
M  V30 52 H 3.8193 -3.4597 2.7881 0
M  V30 53 H 0.5461 -4.873 2.2517 0
M  V30 54 H 3.4194 5.5159 -5.1451 0
M  V30 55 H 3.6921 4.9275 -6.7893 0
M  V30 56 H 4.0353 3.8422 -5.4368 0
M  V30 END ATOM
M  V30 BEGIN BOND
M  V30 1 2 1 2
M  V30 2 1 2 3
M  V30 3 1 2 4
M  V30 4 1 3 5
M  V30 5 1 3 6
M  V30 6 1 4 7
M  V30 7 1 5 8
M  V30 8 1 5 9
M  V30 9 1 6 10
M  V30 10 2 7 11
M  V30 11 1 7 12
M  V30 12 1 8 13
M  V30 13 1 9 14
M  V30 14 1 11 15
M  V30 15 2 12 16
M  V30 16 1 13 17
M  V30 17 1 14 18
M  V30 18 1 14 19
M  V30 19 2 15 20
M  V30 20 2 17 21
M  V30 21 1 17 22
M  V30 22 1 18 23
M  V30 23 1 19 24
M  V30 24 1 20 25
M  V30 25 1 23 26
M  V30 26 1 25 27
M  V30 27 1 10 13
M  V30 28 1 16 20
M  V30 29 1 23 24
M  V30 30 1 4 28
M  V30 31 1 4 29
M  V30 32 1 5 30
M  V30 33 1 6 31
M  V30 34 1 6 32
M  V30 35 1 8 33
M  V30 36 1 8 34
M  V30 37 1 9 35
M  V30 38 1 9 36
M  V30 39 1 10 37
M  V30 40 1 10 38
M  V30 41 1 11 39
M  V30 42 1 12 40
M  V30 43 1 15 41
M  V30 44 1 16 42
M  V30 45 1 18 43
M  V30 46 1 18 44
M  V30 47 1 19 45
M  V30 48 1 19 46
M  V30 49 1 22 47
M  V30 50 1 22 48
M  V30 51 1 22 49
M  V30 52 1 23 50
M  V30 53 1 24 51
M  V30 54 1 24 52
M  V30 55 1 26 53
M  V30 56 1 27 54
M  V30 57 1 27 55
M  V30 58 1 27 56
M  V30 END BOND
M  V30 BEGIN COLLECTION
M  V30 MDLV30/STEABS ATOMS=(2 5 23)
M  V30 END COLLECTION
M  V30 END CTAB
M  END
>  <NO.>
2045

>  <Name>
gr94839_f

>  <SMILES>
COc1ccc(CC(=O)N2CCN(C(C)=O)C[C@@H]2CN2CC[C@@H](O)C2)cc1

>  <logBB>


>  <Class>
-1

>  <MW>
375.22

>  <nHBAcc>
5

>  <nHBDon>
1

>  <SLogP>
0.36

>  <TopoPSA>
73.32

>  <MMFF94 Energy>
106.17

$$$$
COc1ccc(CCN2CCN(c3cccc(Cl)c3)CC2)cc1OC
Actelion Java MolfileCreator 2.0

  0  0  0  0  0  0              0 V3000
M  V30 BEGIN CTAB
M  V30 COUNTS 50 52 0 0 0
M  V30 BEGIN ATOM
M  V30 1 Cl 4.9548 -2.1554 -5.8358 0
M  V30 2 C 4.0959 -0.8583 -5.0971 0
M  V30 3 C 3.5968 -1.0071 -3.8001 0
M  V30 4 C 3.9114 0.3292 -5.7945 0
M  V30 5 C 2.8933 0.0271 -3.1622 0
M  V30 6 C 3.2277 1.3745 -5.1837 0
M  V30 7 N 2.4101 -0.1372 -1.8675 0
M  V30 8 C 2.7309 1.2218 -3.8832 0
M  V30 9 C 2.079 1.0343 -1.0404 0
M  V30 10 C 1.6 -1.3361 -1.5749 0
M  V30 11 C 2.0294 0.667 0.4612 0
M  V30 12 C 1.5621 -1.629 -0.0578 0
M  V30 13 N 1.122 -0.467 0.7485 0
M  V30 14 C 1.109 -0.816 2.1825 0
M  V30 15 C 0.3437 0.1788 3.0787 0
M  V30 16 C -1.1587 0.117 2.9163 0
M  V30 17 C -1.7774 0.6616 1.7815 0
M  V30 18 C -1.9552 -0.4865 3.8941 0
M  V30 19 C -3.1666 0.5982 1.6156 0
M  V30 20 C -3.3443 -0.541 3.7465 0
M  V30 21 O -3.8366 1.1048 0.5281 0
M  V30 22 C -3.9598 5.0E-4 2.6135 0
M  V30 23 C -3.0566 1.4597 -0.6048 0
M  V30 24 O -5.3136 -0.0117 2.3838 0
M  V30 25 C -6.1452 -0.582 3.3832 0
M  V30 26 H 3.7913 -1.9359 -3.2719 0
M  V30 27 H 4.2979 0.4468 -6.8025 0
M  V30 28 H 3.0753 2.3103 -5.715 0
M  V30 29 H 2.1891 2.059 -3.4516 0
M  V30 30 H 1.1081 1.4428 -1.349 0
M  V30 31 H 2.8357 1.8192 -1.1624 0
M  V30 32 H 1.9859 -2.231 -2.0739 0
M  V30 33 H 0.5789 -1.1742 -1.9441 0
M  V30 34 H 1.7032 1.5601 1.0045 0
M  V30 35 H 3.0471 0.4316 0.801 0
M  V30 36 H 2.5592 -1.9566 0.2661 0
M  V30 37 H 0.8737 -2.4675 0.1034 0
M  V30 38 H 2.1385 -0.9092 2.5527 0
M  V30 39 H 0.6424 -1.8018 2.3127 0
M  V30 40 H 0.595 -0.0477 4.1235 0
M  V30 41 H 0.6815 1.2096 2.9232 0
M  V30 42 H -1.1479 1.1317 1.0333 0
M  V30 43 H -1.5031 -0.9188 4.784 0
M  V30 44 H -3.9174 -1.0168 4.5347 0
M  V30 45 H -2.451 2.3483 -0.3997 0
M  V30 46 H -3.7443 1.7091 -1.4187 0
M  V30 47 H -2.4335 0.6241 -0.9411 0
M  V30 48 H -5.9306 -1.6476 3.5146 0
M  V30 49 H -7.1825 -0.492 3.0467 0
M  V30 50 H -6.0556 -0.0395 4.3302 0
M  V30 END ATOM
M  V30 BEGIN BOND
M  V30 1 1 1 2
M  V30 2 2 2 3
M  V30 3 1 2 4
M  V30 4 1 3 5
M  V30 5 2 4 6
M  V30 6 1 5 7
M  V30 7 2 5 8
M  V30 8 1 7 9
M  V30 9 1 7 10
M  V30 10 1 9 11
M  V30 11 1 10 12
M  V30 12 1 11 13
M  V30 13 1 13 14
M  V30 14 1 14 15
M  V30 15 1 15 16
M  V30 16 2 16 17
M  V30 17 1 16 18
M  V30 18 1 17 19
M  V30 19 2 18 20
M  V30 20 1 19 21
M  V30 21 2 19 22
M  V30 22 1 21 23
M  V30 23 1 22 24
M  V30 24 1 24 25
M  V30 25 1 6 8
M  V30 26 1 12 13
M  V30 27 1 20 22
M  V30 28 1 3 26
M  V30 29 1 4 27
M  V30 30 1 6 28
M  V30 31 1 8 29
M  V30 32 1 9 30
M  V30 33 1 9 31
M  V30 34 1 10 32
M  V30 35 1 10 33
M  V30 36 1 11 34
M  V30 37 1 11 35
M  V30 38 1 12 36
M  V30 39 1 12 37
M  V30 40 1 14 38
M  V30 41 1 14 39
M  V30 42 1 15 40
M  V30 43 1 15 41
M  V30 44 1 17 42
M  V30 45 1 18 43
M  V30 46 1 20 44
M  V30 47 1 23 45
M  V30 48 1 23 46
M  V30 49 1 23 47
M  V30 50 1 25 48
M  V30 51 1 25 49
M  V30 52 1 25 50
M  V30 END BOND
M  V30 END CTAB
M  END
>  <NO.>
2046

>  <Name>
brn 0626697

>  <SMILES>
COc1ccc(CCN2CCN(c3cccc(Cl)c3)CC2)cc1OC

>  <logBB>


>  <Class>
1

>  <MW>
360.16

>  <nHBAcc>
4

>  <nHBDon>
0

>  <SLogP>
3.72

>  <TopoPSA>
24.94

>  <MMFF94 Energy>
148.54

$$$$
COc1ccc(Cl)c2c1CCCC2N(C)C
Actelion Java MolfileCreator 2.0

  0  0  0  0  0  0              0 V3000
M  V30 BEGIN CTAB
M  V30 COUNTS 34 35 0 0 0
M  V30 BEGIN ATOM
M  V30 1 Cl 1.1988 -2.879 1.5986 0
M  V30 2 C -0.0075 -1.9971 0.7253 0
M  V30 3 C 0.0625 -0.6052 0.5194 0
M  V30 4 C -1.0872 -2.7381 0.2401 0
M  V30 5 C -1.0251 0.0349 -0.1329 0
M  V30 6 C 1.2705 0.2208 0.9724 0 CFG=1
M  V30 7 C -2.1244 -2.1114 -0.4471 0
M  V30 8 C -2.1071 -0.7293 -0.6302 0
M  V30 9 C -1.1019 1.5467 -0.2488 0
M  V30 10 N 2.2633 0.4508 -0.1199 0
M  V30 11 C 0.704 1.5515 1.523 0
M  V30 12 O -3.0986 -0.0201 -1.2597 0
M  V30 13 C 0.0225 2.3409 0.4122 0
M  V30 14 C 2.7547 -0.7896 -0.727 0
M  V30 15 C 3.4222 1.2218 0.348 0
M  V30 16 C -4.1688 -0.7547 -1.8387 0
M  V30 17 H -1.1281 -3.8134 0.3962 0
M  V30 18 H 1.7661 -0.2732 1.8163 0
M  V30 19 H -2.9397 -2.7293 -0.807 0
M  V30 20 H -2.0413 1.8629 0.2246 0
M  V30 21 H -1.1611 1.8296 -1.3069 0
M  V30 22 H 1.4874 2.1602 1.9867 0
M  V30 23 H -0.0209 1.347 2.3232 0
M  V30 24 H -0.3758 3.2825 0.8087 0
M  V30 25 H 0.7564 2.6299 -0.3495 0
M  V30 26 H 3.259 -1.4346 0.0 0
M  V30 27 H 3.4708 -0.565 -1.5267 0
M  V30 28 H 1.9518 -1.3506 -1.214 0
M  V30 29 H 3.1439 2.2414 0.6293 0
M  V30 30 H 4.1612 1.3372 -0.4539 0
M  V30 31 H 3.9172 0.7427 1.2002 0
M  V30 32 H -3.8052 -1.4482 -2.6039 0
M  V30 33 H -4.8373 -0.0402 -2.3287 0
M  V30 34 H -4.7477 -1.2779 -1.0708 0
M  V30 END ATOM
M  V30 BEGIN BOND
M  V30 1 1 1 2
M  V30 2 2 2 3
M  V30 3 1 2 4
M  V30 4 1 3 5
M  V30 5 1 3 6
M  V30 6 2 4 7
M  V30 7 2 5 8
M  V30 8 1 5 9
M  V30 9 1 6 10
M  V30 10 1 6 11
M  V30 11 1 8 12
M  V30 12 1 9 13
M  V30 13 1 10 14
M  V30 14 1 10 15
M  V30 15 1 12 16
M  V30 16 1 7 8
M  V30 17 1 11 13
M  V30 18 1 4 17
M  V30 19 1 6 18
M  V30 20 1 7 19
M  V30 21 1 9 20
M  V30 22 1 9 21
M  V30 23 1 11 22
M  V30 24 1 11 23
M  V30 25 1 13 24
M  V30 26 1 13 25
M  V30 27 1 14 26
M  V30 28 1 14 27
M  V30 29 1 14 28
M  V30 30 1 15 29
M  V30 31 1 15 30
M  V30 32 1 15 31
M  V30 33 1 16 32
M  V30 34 1 16 33
M  V30 35 1 16 34
M  V30 END BOND
M  V30 BEGIN COLLECTION
M  V30 MDLV30/STERAC1 ATOMS=(1 6)
M  V30 END COLLECTION
M  V30 END CTAB
M  END
>  <NO.>
2048

>  <Name>
lometraline

>  <SMILES>
COc1ccc(Cl)c2c1CCCC2N(C)C

>  <logBB>


>  <Class>
1

>  <MW>
239.11

>  <nHBAcc>
2

>  <nHBDon>
0

>  <SLogP>
3.29

>  <TopoPSA>
12.47

>  <MMFF94 Energy>
39.066

$$$$
COc1ccc(Cn2c(C)c(CCN)c3cc(O)ccc32)cc1
Actelion Java MolfileCreator 2.0

  0  0  0  0  0  0              0 V3000
M  V30 BEGIN CTAB
M  V30 COUNTS 45 47 0 0 0
M  V30 BEGIN ATOM
M  V30 1 O -4.025 0.4728 4.1041 0
M  V30 2 C -2.7902 0.3577 3.5281 0
M  V30 3 C -4.2294 -0.2166 5.3305 0
M  V30 4 C -1.706 -0.3501 4.0433 0
M  V30 5 C -2.6455 1.0325 2.3153 0
M  V30 6 C -0.4918 -0.3845 3.3464 0
M  V30 7 C -1.4345 1.0007 1.6181 0
M  V30 8 C -0.3434 0.2781 2.118 0
M  V30 9 C 0.9959 0.2502 1.4162 0
M  V30 10 N 0.8965 0.1328 -0.0398 0
M  V30 11 C 0.5678 -1.0379 -0.701 0
M  V30 12 C 1.1794 1.1339 -0.9505 0
M  V30 13 C 0.6531 -0.7727 -2.0683 0
M  V30 14 C 0.2025 -2.3049 -0.2105 0
M  V30 15 C 1.0412 0.597 -2.2236 0
M  V30 16 C 1.5793 2.5114 -0.5418 0
M  V30 17 C 0.3696 -1.813 -2.9792 0
M  V30 18 C -0.078 -3.3187 -1.1315 0
M  V30 19 C 1.2516 1.2973 -3.536 0
M  V30 20 C 0.0078 -3.0682 -2.4938 0
M  V30 21 C 2.6776 1.1565 -4.0905 0
M  V30 22 O -0.2609 -4.0444 -3.4106 0
M  V30 23 N 3.6469 2.0413 -3.4377 0
M  V30 24 H -4.106 -1.2971 5.202 0
M  V30 25 H -5.2607 -0.0351 5.6484 0
M  V30 26 H -3.5674 0.167 6.1139 0
M  V30 27 H -1.768 -0.8837 4.9857 0
M  V30 28 H -3.4849 1.5897 1.9058 0
M  V30 29 H 0.3409 -0.9386 3.7754 0
M  V30 30 H -1.362 1.5402 0.6758 0
M  V30 31 H 1.5976 -0.6043 1.7496 0
M  V30 32 H 1.5579 1.1545 1.668 0
M  V30 33 H 0.1277 -2.4996 0.8544 0
M  V30 34 H 1.6082 3.1949 -1.3949 0
M  V30 35 H 2.5762 2.5003 -0.0896 0
M  V30 36 H 0.8694 2.9269 0.1804 0
M  V30 37 H 0.4284 -1.6442 -4.0493 0
M  V30 38 H -0.3643 -4.2974 -0.7592 0
M  V30 39 H 0.9756 2.3557 -3.4549 0
M  V30 40 H 0.5548 0.8732 -4.2709 0
M  V30 41 H 2.6634 1.4069 -5.1575 0
M  V30 42 H 3.0247 0.1208 -4.0044 0
M  V30 43 H -0.5131 -4.851 -2.9329 0
M  V30 44 H 4.5539 1.9342 -3.8883 0
M  V30 45 H 3.3661 3.0111 -3.5688 0
M  V30 END ATOM
M  V30 BEGIN BOND
M  V30 1 1 1 2
M  V30 2 1 1 3
M  V30 3 2 2 4
M  V30 4 1 2 5
M  V30 5 1 4 6
M  V30 6 2 5 7
M  V30 7 2 6 8
M  V30 8 1 8 9
M  V30 9 1 9 10
M  V30 10 1 10 11
M  V30 11 1 10 12
M  V30 12 2 11 13
M  V30 13 1 11 14
M  V30 14 2 12 15
M  V30 15 1 12 16
M  V30 16 1 13 17
M  V30 17 2 14 18
M  V30 18 1 15 19
M  V30 19 2 17 20
M  V30 20 1 19 21
M  V30 21 1 20 22
M  V30 22 1 21 23
M  V30 23 1 7 8
M  V30 24 1 13 15
M  V30 25 1 18 20
M  V30 26 1 3 24
M  V30 27 1 3 25
M  V30 28 1 3 26
M  V30 29 1 4 27
M  V30 30 1 5 28
M  V30 31 1 6 29
M  V30 32 1 7 30
M  V30 33 1 9 31
M  V30 34 1 9 32
M  V30 35 1 14 33
M  V30 36 1 16 34
M  V30 37 1 16 35
M  V30 38 1 16 36
M  V30 39 1 17 37
M  V30 40 1 18 38
M  V30 41 1 19 39
M  V30 42 1 19 40
M  V30 43 1 21 41
M  V30 44 1 21 42
M  V30 45 1 22 43
M  V30 46 1 23 44
M  V30 47 1 23 45
M  V30 END BOND
M  V30 END CTAB
M  END
>  <NO.>
2049

>  <Name>
hydroxindasol

>  <SMILES>
COc1ccc(Cn2c(C)c(CCN)c3cc(O)ccc32)cc1

>  <logBB>


>  <Class>
1

>  <MW>
310.17

>  <nHBAcc>
3

>  <nHBDon>
2

>  <SLogP>
3.21

>  <TopoPSA>
60.41

>  <MMFF94 Energy>
64.191

$$$$
COc1ccc(N2C[C@H](CN3CCC(O)(c4ccc5c(c4)OCO5)CC3)OC2=O)cc1
Actelion Java MolfileCreator 2.0

  0  0  0  0  0  0              0 V3000
M  V30 BEGIN CTAB
M  V30 COUNTS 57 61 0 0 0
M  V30 BEGIN ATOM
M  V30 1 O -1.9269 2.5698 -2.1679 0
M  V30 2 C -1.2613 1.5503 -2.2557 0
M  V30 3 O 0.0746 1.5291 -1.9357 0
M  V30 4 N -1.669 0.2842 -2.645 0
M  V30 5 C 0.6014 0.2631 -2.3504 0 CFG=2
M  V30 6 C -2.9666 -0.0937 -3.0549 0
M  V30 7 C -0.6014 -0.648 -2.4406 0
M  V30 8 C 1.7381 -0.2264 -1.4351 0
M  V30 9 C -3.8365 0.8296 -3.6456 0
M  V30 10 C -3.408 -1.4137 -2.9045 0
M  V30 11 N 1.3547 -0.7701 -0.1099 0
M  V30 12 C -5.1192 0.451 -4.0672 0
M  V30 13 C -4.688 -1.7914 -3.3263 0
M  V30 14 C 2.526 -1.4159 0.5109 0
M  V30 15 C 0.8198 0.2764 0.7789 0
M  V30 16 C -5.5511 -0.8629 -3.9077 0
M  V30 17 C 2.1437 -2.0707 1.8344 0
M  V30 18 C 0.4422 -0.2822 2.1552 0
M  V30 19 O -6.7697 -1.3625 -4.2733 0
M  V30 20 C 1.593 -1.0424 2.8414 0
M  V30 21 C -7.6981 -0.4417 -4.8333 0
M  V30 22 O 1.0286 -1.7685 3.9485 0
M  V30 23 C 2.7032 -0.1902 3.4682 0
M  V30 24 C 2.7048 1.2163 3.4404 0
M  V30 25 C 3.7716 -0.8382 4.1508 0
M  V30 26 C 3.7523 1.8964 4.033 0
M  V30 27 C 4.8203 -0.1253 4.7442 0
M  V30 28 O 3.892 3.2496 4.0743 0
M  V30 29 C 4.7831 1.2453 4.6626 0
M  V30 30 C 5.1256 3.3715 4.8122 0
M  V30 31 O 5.7036 2.1016 5.1787 0
M  V30 32 H 1.0222 0.4252 -3.3519 0
M  V30 33 H -0.7983 -1.1919 -1.5115 0
M  V30 34 H -0.5124 -1.3562 -3.2706 0
M  V30 35 H 2.466 0.5853 -1.3041 0
M  V30 36 H 2.2448 -1.0275 -1.9894 0
M  V30 37 H -3.5358 1.8634 -3.7997 0
M  V30 38 H -2.7809 -2.1722 -2.4461 0
M  V30 39 H -5.7488 1.2122 -4.516 0
M  V30 40 H -5.0158 -2.8199 -3.1952 0
M  V30 41 H 3.3445 -0.6993 0.6567 0
M  V30 42 H 2.9022 -2.2049 -0.152 0
M  V30 43 H -0.0988 0.6939 0.3566 0
M  V30 44 H 1.5337 1.1017 0.8724 0
M  V30 45 H 1.3831 -2.8427 1.6476 0
M  V30 46 H 3.0022 -2.6211 2.2355 0
M  V30 47 H -0.4089 -0.9663 2.0222 0
M  V30 48 H 0.0526 0.5152 2.7999 0
M  V30 49 H -7.9436 0.3541 -4.1222 0
M  V30 50 H -8.6204 -0.9886 -5.052 0
M  V30 51 H -7.3241 -0.0292 -5.7761 0
M  V30 52 H 0.3049 -2.3191 3.6064 0
M  V30 53 H 1.9119 1.7967 2.9853 0
M  V30 54 H 3.7717 -1.9234 4.2438 0
M  V30 55 H 5.6244 -0.6351 5.2618 0
M  V30 56 H 4.9327 3.9461 5.7257 0
M  V30 57 H 5.8482 3.9208 4.1977 0
M  V30 END ATOM
M  V30 BEGIN BOND
M  V30 1 2 1 2
M  V30 2 1 2 3
M  V30 3 1 2 4
M  V30 4 1 3 5
M  V30 5 1 4 6
M  V30 6 1 4 7
M  V30 7 1 5 8
M  V30 8 2 6 9
M  V30 9 1 6 10
M  V30 10 1 8 11
M  V30 11 1 9 12
M  V30 12 2 10 13
M  V30 13 1 11 14
M  V30 14 1 11 15
M  V30 15 2 12 16
M  V30 16 1 14 17
M  V30 17 1 15 18
M  V30 18 1 16 19
M  V30 19 1 17 20
M  V30 20 1 19 21
M  V30 21 1 20 22
M  V30 22 1 20 23
M  V30 23 2 23 24
M  V30 24 1 23 25
M  V30 25 1 24 26
M  V30 26 2 25 27
M  V30 27 1 26 28
M  V30 28 2 26 29
M  V30 29 1 28 30
M  V30 30 1 29 31
M  V30 31 1 5 7
M  V30 32 1 13 16
M  V30 33 1 18 20
M  V30 34 1 27 29
M  V30 35 1 30 31
M  V30 36 1 5 32
M  V30 37 1 7 33
M  V30 38 1 7 34
M  V30 39 1 8 35
M  V30 40 1 8 36
M  V30 41 1 9 37
M  V30 42 1 10 38
M  V30 43 1 12 39
M  V30 44 1 13 40
M  V30 45 1 14 41
M  V30 46 1 14 42
M  V30 47 1 15 43
M  V30 48 1 15 44
M  V30 49 1 17 45
M  V30 50 1 17 46
M  V30 51 1 18 47
M  V30 52 1 18 48
M  V30 53 1 21 49
M  V30 54 1 21 50
M  V30 55 1 21 51
M  V30 56 1 22 52
M  V30 57 1 24 53
M  V30 58 1 25 54
M  V30 59 1 27 55
M  V30 60 1 30 56
M  V30 61 1 30 57
M  V30 END BOND
M  V30 BEGIN COLLECTION
M  V30 MDLV30/STEABS ATOMS=(1 5)
M  V30 END COLLECTION
M  V30 END CTAB
M  END
>  <NO.>
2050

>  <Name>
panamesine

>  <SMILES>
COc1ccc(N2C[C@H](CN3CCC(O)(c4ccc5c(c4)OCO5)CC3)OC2=O)cc1

>  <logBB>


>  <Class>
1

>  <MW>
426.18

>  <nHBAcc>
7

>  <nHBDon>
1

>  <SLogP>
2.73

>  <TopoPSA>
80.7

>  <MMFF94 Energy>
46.746

$$$$
COc1ccc(OCC2CN(C)CCC2c2ccccc2)cc1
Actelion Java MolfileCreator 2.0

  0  0  0  0  0  0              0 V3000
M  V30 BEGIN CTAB
M  V30 COUNTS 48 50 0 0 0
M  V30 BEGIN ATOM
M  V30 1 O 0.4748 1.0289 -0.1582 0
M  V30 2 C 1.7228 1.4225 0.2343 0
M  V30 3 C -0.4381 0.6308 0.8653 0
M  V30 4 C 2.1948 1.4773 1.5436 0
M  V30 5 C 2.5714 1.7967 -0.8099 0
M  V30 6 C -1.7664 0.1707 0.231 0
M  V30 7 C 3.5039 1.9023 1.7974 0
M  V30 8 C 3.8803 2.2222 -0.5562 0
M  V30 9 C -1.577 -1.0068 -0.7586 0
M  V30 10 C -2.4383 1.3551 -0.4949 0
M  V30 11 C 4.3529 2.2766 0.7534 0
M  V30 12 C -0.9883 -2.2435 -0.0947 0
M  V30 13 C -2.9029 -1.3406 -1.4672 0
M  V30 14 N -3.6999 1.0202 -1.1699 0
M  V30 15 O 5.6025 2.6704 1.1444 0
M  V30 16 C 0.2921 -2.6841 -0.4632 0
M  V30 17 C -1.6794 -2.9501 0.9014 0
M  V30 18 C -3.5198 -0.0954 -2.104 0
M  V30 19 C -4.7985 0.7984 -0.2342 0
M  V30 20 C 6.5019 3.0645 0.1159 0
M  V30 21 C 0.8627 -3.8047 0.1428 0
M  V30 22 C -1.1081 -4.072 1.5054 0
M  V30 23 C 0.162 -4.4993 1.1258 0
M  V30 24 H -0.636 1.4795 1.5325 0
M  V30 25 H -0.0113 -0.1877 1.4568 0
M  V30 26 H 1.5779 1.1976 2.3905 0
M  V30 27 H 2.2095 1.7579 -1.8347 0
M  V30 28 H -2.4186 -0.1456 1.0557 0
M  V30 29 H 3.8656 1.9413 2.8223 0
M  V30 30 H 4.4977 2.502 -1.4026 0
M  V30 31 H -0.8817 -0.6801 -1.5455 0
M  V30 32 H -1.7548 1.763 -1.2514 0
M  V30 33 H -2.6082 2.1777 0.2119 0
M  V30 34 H -3.6227 -1.7868 -0.7706 0
M  V30 35 H -2.7269 -2.0933 -2.2465 0
M  V30 36 H 0.8609 -2.1491 -1.2214 0
M  V30 37 H -2.6698 -2.6333 1.2193 0
M  V30 38 H -4.4768 -0.355 -2.5734 0
M  V30 39 H -2.8745 0.2412 -2.926 0
M  V30 40 H -4.9516 1.685 0.3914 0
M  V30 41 H -5.7362 0.6384 -0.7783 0
M  V30 42 H -4.6403 -0.0592 0.4267 0
M  V30 43 H 6.7085 2.2341 -0.5673 0
M  V30 44 H 7.4468 3.3489 0.5891 0
M  V30 45 H 6.1245 3.9385 -0.4253 0
M  V30 46 H 1.8563 -4.1322 -0.1515 0
M  V30 47 H -1.6549 -4.6122 2.274 0
M  V30 48 H 0.6068 -5.3716 1.5969 0
M  V30 END ATOM
M  V30 BEGIN BOND
M  V30 1 1 1 2
M  V30 2 1 1 3
M  V30 3 2 2 4
M  V30 4 1 2 5
M  V30 5 1 3 6
M  V30 6 1 4 7
M  V30 7 2 5 8
M  V30 8 1 6 9
M  V30 9 1 6 10
M  V30 10 2 7 11
M  V30 11 1 9 12
M  V30 12 1 9 13
M  V30 13 1 10 14
M  V30 14 1 11 15
M  V30 15 2 12 16
M  V30 16 1 12 17
M  V30 17 1 13 18
M  V30 18 1 14 19
M  V30 19 1 15 20
M  V30 20 1 16 21
M  V30 21 2 17 22
M  V30 22 2 21 23
M  V30 23 1 8 11
M  V30 24 1 14 18
M  V30 25 1 22 23
M  V30 26 1 3 24
M  V30 27 1 3 25
M  V30 28 1 4 26
M  V30 29 1 5 27
M  V30 30 1 6 28
M  V30 31 1 7 29
M  V30 32 1 8 30
M  V30 33 1 9 31
M  V30 34 1 10 32
M  V30 35 1 10 33
M  V30 36 1 13 34
M  V30 37 1 13 35
M  V30 38 1 16 36
M  V30 39 1 17 37
M  V30 40 1 18 38
M  V30 41 1 18 39
M  V30 42 1 19 40
M  V30 43 1 19 41
M  V30 44 1 19 42
M  V30 45 1 20 43
M  V30 46 1 20 44
M  V30 47 1 20 45
M  V30 48 1 21 46
M  V30 49 1 22 47
M  V30 50 1 23 48
M  V30 END BOND
M  V30 END CTAB
M  END
>  <NO.>
2051

>  <Name>
femoxetine [inn]

>  <SMILES>
COc1ccc(OCC2CN(C)CCC2c2ccccc2)cc1

>  <logBB>


>  <Class>
1

>  <MW>
311.19

>  <nHBAcc>
3

>  <nHBDon>
0

>  <SLogP>
3.81

>  <TopoPSA>
21.7

>  <MMFF94 Energy>
50.706

$$$$
COc1ccc(S(N)(=O)=O)cc1C(=O)NCC1CCCN1C
Actelion Java MolfileCreator 2.0

  0  0  0  0  0  0              0 V3000
M  V30 BEGIN CTAB
M  V30 COUNTS 43 44 0 0 0
M  V30 BEGIN ATOM
M  V30 1 S 3.7696 4.1712 -1.5225 0
M  V30 2 O 3.5763 5.5881 -1.7276 0
M  V30 3 O 4.6202 3.3718 -2.3698 0
M  V30 4 N 4.3646 4.0209 0.0384 0
M  V30 5 C 2.1918 3.3851 -1.3973 0
M  V30 6 C 2.132 2.0184 -1.1232 0
M  V30 7 C 1.0243 4.1185 -1.589 0
M  V30 8 C 0.8893 1.3662 -1.0249 0
M  V30 9 C -0.2152 3.4794 -1.4945 0
M  V30 10 C -0.3008 2.107 -1.2069 0
M  V30 11 C 0.9455 -0.1003 -0.7109 0
M  V30 12 O -1.4951 1.4384 -1.0979 0
M  V30 13 O 2.0039 -0.6102 -0.3563 0
M  V30 14 N -0.2143 -0.8241 -0.8417 0
M  V30 15 C -2.6946 2.2054 -1.1225 0
M  V30 16 C -0.2908 -2.2461 -0.5601 0
M  V30 17 C -0.4133 -2.5505 0.9468 0 CFG=2
M  V30 18 N -0.4846 -3.9759 1.3537 0
M  V30 19 C -1.6487 -1.9091 1.5874 0
M  V30 20 C -0.9597 -3.9214 2.7442 0
M  V30 21 C -1.3681 -4.7933 0.5248 0
M  V30 22 C -1.9511 -2.7684 2.8083 0
M  V30 23 H 4.5077 4.944 0.4486 0
M  V30 24 H 5.2001 3.4345 0.0398 0
M  V30 25 H 3.0552 1.4558 -0.9872 0
M  V30 26 H 1.0652 5.1827 -1.8135 0
M  V30 27 H -1.1001 4.0879 -1.6559 0
M  V30 28 H -1.0581 -0.3307 -1.1137 0
M  V30 29 H -2.7026 2.9565 -0.3258 0
M  V30 30 H -3.5295 1.5213 -0.9424 0
M  V30 31 H -2.8466 2.6631 -2.1052 0
M  V30 32 H 0.6036 -2.731 -0.9672 0
M  V30 33 H -1.1599 -2.6178 -1.1127 0
M  V30 34 H 0.4739 -2.1292 1.4407 0
M  V30 35 H -2.5089 -1.9194 0.9074 0
M  V30 36 H -1.4607 -0.8681 1.8714 0
M  V30 37 H -0.1043 -3.7038 3.3961 0
M  V30 38 H -1.3907 -4.8642 3.0988 0
M  V30 39 H -2.3884 -4.3999 0.4618 0
M  V30 40 H -1.4228 -5.8134 0.9219 0
M  V30 41 H -0.968 -4.8874 -0.4898 0
M  V30 42 H -2.9828 -3.1346 2.7601 0
M  V30 43 H -1.8387 -2.2003 3.7374 0
M  V30 END ATOM
M  V30 BEGIN BOND
M  V30 1 2 1 2
M  V30 2 2 1 3
M  V30 3 1 1 4
M  V30 4 1 1 5
M  V30 5 2 5 6
M  V30 6 1 5 7
M  V30 7 1 6 8
M  V30 8 2 7 9
M  V30 9 2 8 10
M  V30 10 1 8 11
M  V30 11 1 10 12
M  V30 12 2 11 13
M  V30 13 1 11 14
M  V30 14 1 12 15
M  V30 15 1 14 16
M  V30 16 1 16 17
M  V30 17 1 17 18
M  V30 18 1 17 19
M  V30 19 1 18 20
M  V30 20 1 18 21
M  V30 21 1 19 22
M  V30 22 1 9 10
M  V30 23 1 20 22
M  V30 24 1 4 23
M  V30 25 1 4 24
M  V30 26 1 6 25
M  V30 27 1 7 26
M  V30 28 1 9 27
M  V30 29 1 14 28
M  V30 30 1 15 29
M  V30 31 1 15 30
M  V30 32 1 15 31
M  V30 33 1 16 32
M  V30 34 1 16 33
M  V30 35 1 17 34
M  V30 36 1 19 35
M  V30 37 1 19 36
M  V30 38 1 20 37
M  V30 39 1 20 38
M  V30 40 1 21 39
M  V30 41 1 21 40
M  V30 42 1 21 41
M  V30 43 1 22 42
M  V30 44 1 22 43
M  V30 END BOND
M  V30 BEGIN COLLECTION
M  V30 MDLV30/STERAC1 ATOMS=(1 17)
M  V30 END COLLECTION
M  V30 END CTAB
M  END
>  <NO.>
2052

>  <Name>
sulmepride

>  <SMILES>
COc1ccc(S(N)(=O)=O)cc1C(=O)NCC1CCCN1C

>  <logBB>


>  <Class>
1

>  <MW>
327.13

>  <nHBAcc>
5

>  <nHBDon>
2

>  <SLogP>
0.17

>  <TopoPSA>
101.73

>  <MMFF94 Energy>
-34.833

$$$$
COc1ccc(S(N)(=O)=O)cc1C(=O)NCC1CCCN1Cc1ccc(F)cc1
Actelion Java MolfileCreator 2.0

  0  0  0  0  0  0              0 V3000
M  V30 BEGIN CTAB
M  V30 COUNTS 53 55 0 0 0
M  V30 BEGIN ATOM
M  V30 1 S -4.0301 -1.2077 1.8523 0
M  V30 2 O -3.2959 -2.2582 1.1878 0
M  V30 3 O -5.339 -0.7795 1.4191 0
M  V30 4 N -4.2057 -1.6975 3.4469 0
M  V30 5 C -2.9823 0.2068 2.0224 0
M  V30 6 C -1.5948 0.0376 2.0041 0
M  V30 7 C -3.5474 1.4818 2.1251 0
M  V30 8 C -0.7636 1.1601 2.1163 0
M  V30 9 C -2.715 2.5968 2.2378 0
M  V30 10 C -1.3258 2.4352 2.2541 0
M  V30 11 C 0.7051 0.9668 2.1104 0
M  V30 12 O -0.5396 3.5557 2.2877 0
M  V30 13 O 1.409 1.4344 2.9956 0
M  V30 14 N 1.1778 0.213 1.0659 0
M  V30 15 C -0.3993 4.0261 3.6295 0
M  V30 16 C 2.5877 -0.0716 0.8774 0
M  V30 17 C 2.7872 -1.231 -0.1172 0 CFG=2
M  V30 18 N 1.8819 -1.1219 -1.2856 0
M  V30 19 C 2.4306 -2.5895 0.5078 0
M  V30 20 C 1.682 -2.4917 -1.7649 0
M  V30 21 C 2.4109 -0.2286 -2.322 0
M  V30 22 C 1.4696 -3.2489 -0.4699 0
M  V30 23 C 1.3782 0.0964 -3.3802 0
M  V30 24 C 1.5027 -0.4097 -4.6836 0
M  V30 25 C 0.2728 0.9045 -3.0627 0
M  V30 26 C 0.5417 -0.1096 -5.6504 0
M  V30 27 C -0.6861 1.2025 -4.0309 0
M  V30 28 C -0.5423 0.6931 -5.3153 0
M  V30 29 F -1.4626 0.9791 -6.2456 0
M  V30 30 H -3.8098 -2.6299 3.5713 0
M  V30 31 H -5.1849 -1.6279 3.7264 0
M  V30 32 H -1.1626 -0.9569 1.9177 0
M  V30 33 H -4.6273 1.6158 2.1106 0
M  V30 34 H -3.1473 3.5927 2.2966 0
M  V30 35 H 0.5686 -0.0773 0.3067 0
M  V30 36 H -1.322 4.5132 3.9624 0
M  V30 37 H 0.4012 4.7716 3.6413 0
M  V30 38 H -0.127 3.2226 4.3227 0
M  V30 39 H 3.0481 -0.2933 1.8464 0
M  V30 40 H 3.0454 0.8466 0.4931 0
M  V30 41 H 3.8399 -1.2659 -0.4289 0
M  V30 42 H 3.3368 -3.1987 0.6074 0
M  V30 43 H 1.9738 -2.5116 1.5002 0
M  V30 44 H 0.812 -2.5851 -2.4221 0
M  V30 45 H 2.5673 -2.8756 -2.287 0
M  V30 46 H 2.7168 0.7277 -1.8784 0
M  V30 47 H 3.3153 -0.6468 -2.7831 0
M  V30 48 H 0.4382 -3.1197 -0.1184 0
M  V30 49 H 1.6586 -4.3211 -0.5763 0
M  V30 50 H 2.3457 -1.0424 -4.9506 0
M  V30 51 H 0.1583 1.2996 -2.0554 0
M  V30 52 H 0.6298 -0.4971 -6.66 0
M  V30 53 H -1.542 1.8248 -3.791 0
M  V30 END ATOM
M  V30 BEGIN BOND
M  V30 1 2 1 2
M  V30 2 2 1 3
M  V30 3 1 1 4
M  V30 4 1 1 5
M  V30 5 2 5 6
M  V30 6 1 5 7
M  V30 7 1 6 8
M  V30 8 2 7 9
M  V30 9 2 8 10
M  V30 10 1 8 11
M  V30 11 1 10 12
M  V30 12 2 11 13
M  V30 13 1 11 14
M  V30 14 1 12 15
M  V30 15 1 14 16
M  V30 16 1 16 17
M  V30 17 1 17 18
M  V30 18 1 17 19
M  V30 19 1 18 20
M  V30 20 1 18 21
M  V30 21 1 19 22
M  V30 22 1 21 23
M  V30 23 2 23 24
M  V30 24 1 23 25
M  V30 25 1 24 26
M  V30 26 2 25 27
M  V30 27 2 26 28
M  V30 28 1 28 29
M  V30 29 1 9 10
M  V30 30 1 20 22
M  V30 31 1 27 28
M  V30 32 1 4 30
M  V30 33 1 4 31
M  V30 34 1 6 32
M  V30 35 1 7 33
M  V30 36 1 9 34
M  V30 37 1 14 35
M  V30 38 1 15 36
M  V30 39 1 15 37
M  V30 40 1 15 38
M  V30 41 1 16 39
M  V30 42 1 16 40
M  V30 43 1 17 41
M  V30 44 1 19 42
M  V30 45 1 19 43
M  V30 46 1 20 44
M  V30 47 1 20 45
M  V30 48 1 21 46
M  V30 49 1 21 47
M  V30 50 1 22 48
M  V30 51 1 22 49
M  V30 52 1 24 50
M  V30 53 1 25 51
M  V30 54 1 26 52
M  V30 55 1 27 53
M  V30 END BOND
M  V30 BEGIN COLLECTION
M  V30 MDLV30/STERAC1 ATOMS=(1 17)
M  V30 END COLLECTION
M  V30 END CTAB
M  END
>  <NO.>
2053

>  <Name>
flubepride

>  <SMILES>
COc1ccc(S(N)(=O)=O)cc1C(=O)NCC1CCCN1Cc1ccc(F)cc1

>  <logBB>


>  <Class>
1

>  <MW>
421.15

>  <nHBAcc>
5

>  <nHBDon>
2

>  <SLogP>
1.88

>  <TopoPSA>
101.73

>  <MMFF94 Energy>
-22.846

$$$$
COc1ccc([C@H](O)CN2CCN(c3cccccc3=O)CC2)cc1OC
Actelion Java MolfileCreator 2.0

  0  0  0  0  0  0              0 V3000
M  V30 BEGIN CTAB
M  V30 COUNTS 53 55 0 0 0
M  V30 BEGIN ATOM
M  V30 1 O 1.3502 0.4764 -5.6487 0
M  V30 2 C 0.3509 -0.2422 -5.6976 0
M  V30 3 C -0.8205 -0.0557 -4.7429 0
M  V30 4 C 0.3779 -1.4159 -6.6038 0
M  V30 5 N -0.5242 0.3571 -3.4211 0
M  V30 6 C -2.0813 -0.2712 -5.1677 0
M  V30 7 C -0.6412 -1.8989 -7.3212 0
M  V30 8 C 0.829 0.2185 -2.8375 0
M  V30 9 C -1.3426 1.3469 -2.6905 0
M  V30 10 C -2.5724 -0.5971 -6.4845 0
M  V30 11 C -1.9533 -1.3212 -7.4223 0
M  V30 12 C 0.7578 -0.0549 -1.3154 0
M  V30 13 C -1.3826 1.0297 -1.1803 0
M  V30 14 N -0.0338 0.9532 -0.5684 0
M  V30 15 C -0.1559 0.5972 0.8683 0
M  V30 16 C 1.1717 0.8047 1.6417 0 CFG=1
M  V30 17 O 1.6704 2.1176 1.3619 0
M  V30 18 C 0.9819 0.6126 3.1321 0
M  V30 19 C 1.0666 -0.6759 3.6868 0
M  V30 20 C 0.6819 1.6872 3.9768 0
M  V30 21 C 0.8642 -0.8871 5.0573 0
M  V30 22 C 0.475 1.4874 5.3443 0
M  V30 23 O 0.9256 -2.1157 5.6685 0
M  V30 24 C 0.5623 0.2053 5.8938 0
M  V30 25 C 1.3861 -3.2141 4.8961 0
M  V30 26 O 0.3705 -0.085 7.2222 0
M  V30 27 C 0.1238 1.0013 8.1028 0
M  V30 28 H 1.3628 -1.8616 -6.7008 0
M  V30 29 H -2.8895 -0.1559 -4.4495 0
M  V30 30 H -0.4561 -2.7526 -7.9703 0
M  V30 31 H 1.403 1.1342 -3.0246 0
M  V30 32 H 1.3668 -0.6218 -3.2912 0
M  V30 33 H -2.3725 1.3857 -3.0583 0
M  V30 34 H -0.9146 2.345 -2.8494 0
M  V30 35 H -3.5787 -0.2377 -6.697 0
M  V30 36 H -2.4764 -1.5144 -8.3578 0
M  V30 37 H 1.786 -0.075 -0.9389 0
M  V30 38 H 0.3315 -1.0551 -1.1598 0
M  V30 39 H -1.9208 0.084 -1.0299 0
M  V30 40 H -1.9603 1.8196 -0.6853 0
M  V30 41 H -0.5266 -0.4276 0.9983 0
M  V30 42 H -0.9037 1.2668 1.3154 0
M  V30 43 H 1.9369 0.1025 1.2928 0
M  V30 44 H 1.4123 2.2822 0.4326 0
M  V30 45 H 1.2898 -1.5061 3.0247 0
M  V30 46 H 0.6119 2.6956 3.5718 0
M  V30 47 H 0.2475 2.3569 5.9512 0
M  V30 48 H 0.6781 -3.4561 4.097 0
M  V30 49 H 1.4501 -4.0841 5.5567 0
M  V30 50 H 2.3878 -3.0271 4.4952 0
M  V30 51 H 0.9626 1.7051 8.109 0
M  V30 52 H 0.0239 0.5958 9.1143 0
M  V30 53 H -0.8155 1.5056 7.8538 0
M  V30 END ATOM
M  V30 BEGIN BOND
M  V30 1 2 1 2
M  V30 2 1 2 3
M  V30 3 1 2 4
M  V30 4 1 3 5
M  V30 5 2 3 6
M  V30 6 2 4 7
M  V30 7 1 5 8
M  V30 8 1 5 9
M  V30 9 1 6 10
M  V30 10 1 7 11
M  V30 11 1 8 12
M  V30 12 1 9 13
M  V30 13 1 12 14
M  V30 14 1 14 15
M  V30 15 1 15 16
M  V30 16 1 16 17
M  V30 17 1 16 18
M  V30 18 2 18 19
M  V30 19 1 18 20
M  V30 20 1 19 21
M  V30 21 2 20 22
M  V30 22 1 21 23
M  V30 23 2 21 24
M  V30 24 1 23 25
M  V30 25 1 24 26
M  V30 26 1 26 27
M  V30 27 2 10 11
M  V30 28 1 13 14
M  V30 29 1 22 24
M  V30 30 1 4 28
M  V30 31 1 6 29
M  V30 32 1 7 30
M  V30 33 1 8 31
M  V30 34 1 8 32
M  V30 35 1 9 33
M  V30 36 1 9 34
M  V30 37 1 10 35
M  V30 38 1 11 36
M  V30 39 1 12 37
M  V30 40 1 12 38
M  V30 41 1 13 39
M  V30 42 1 13 40
M  V30 43 1 15 41
M  V30 44 1 15 42
M  V30 45 1 16 43
M  V30 46 1 17 44
M  V30 47 1 19 45
M  V30 48 1 20 46
M  V30 49 1 22 47
M  V30 50 1 25 48
M  V30 51 1 25 49
M  V30 52 1 25 50
M  V30 53 1 27 51
M  V30 54 1 27 52
M  V30 55 1 27 53
M  V30 END BOND
M  V30 BEGIN COLLECTION
M  V30 MDLV30/STEABS ATOMS=(1 16)
M  V30 END COLLECTION
M  V30 END CTAB
M  END
>  <NO.>
2054

>  <Name>
ciladopa

>  <SMILES>
COc1ccc([C@H](O)CN2CCN(c3cccccc3=O)CC2)cc1OC

>  <logBB>


>  <Class>
1

>  <MW>
370.19

>  <nHBAcc>
6

>  <nHBDon>
1

>  <SLogP>
1.92

>  <TopoPSA>
62.24

>  <MMFF94 Energy>
220.13

$$$$
COc1ccc2c(c1)/C(=C/CCN(C)C)c1ccccc1O2
Actelion Java MolfileCreator 2.0

  0  0  0  0  0  0              0 V3000
M  V30 BEGIN CTAB
M  V30 COUNTS 43 45 0 0 0
M  V30 BEGIN ATOM
M  V30 1 O 2.8557 0.4755 1.5064 0
M  V30 2 C 2.3667 -0.8105 1.3889 0
M  V30 3 C 1.9327 1.4869 1.6918 0
M  V30 4 C 1.0452 -1.0954 1.0161 0
M  V30 5 C 3.268 -1.8411 1.6585 0
M  V30 6 C 0.5781 1.3585 1.3434 0
M  V30 7 C 2.4159 2.6604 2.2757 0
M  V30 8 C 0.1845 0.0776 0.7108 0
M  V30 9 C 0.6308 -2.434 0.983 0
M  V30 10 C 2.8488 -3.1723 1.5949 0
M  V30 11 C -0.3009 2.389 1.6963 0
M  V30 12 C 1.5373 3.7012 2.5693 0
M  V30 13 C -0.7799 -0.0515 -0.229 0
M  V30 14 C 1.5263 -3.473 1.2663 0
M  V30 15 C 0.1783 3.5594 2.2936 0
M  V30 16 C -1.6404 1.0082 -0.8767 0
M  V30 17 O 0.9848 -4.7273 1.1857 0
M  V30 18 C -1.7736 0.7752 -2.3964 0
M  V30 19 C 1.8455 -5.8202 1.4804 0
M  V30 20 N -2.537 1.8327 -3.0875 0
M  V30 21 C -3.9561 1.8104 -2.7279 0
M  V30 22 C -2.3936 1.6835 -4.5384 0
M  V30 23 H 4.2934 -1.6061 1.9303 0
M  V30 24 H 3.4705 2.752 2.5196 0
M  V30 25 H -0.3983 -2.6902 0.7468 0
M  V30 26 H 3.5756 -3.9463 1.8166 0
M  V30 27 H -1.369 2.2929 1.5251 0
M  V30 28 H 1.9076 4.6124 3.0318 0
M  V30 29 H -0.9574 -1.0377 -0.6561 0
M  V30 30 H -0.5136 4.3585 2.5482 0
M  V30 31 H -1.2242 2.009 -0.7328 0
M  V30 32 H -2.6255 0.9731 -0.3995 0
M  V30 33 H -0.7566 0.7458 -2.8113 0
M  V30 34 H -2.2209 -0.2092 -2.59 0
M  V30 35 H 2.6754 -5.8719 0.7679 0
M  V30 36 H 1.2628 -6.741 1.3798 0
M  V30 37 H 2.2109 -5.7685 2.5115 0
M  V30 38 H -4.101 2.0392 -1.6676 0
M  V30 39 H -4.4223 0.8421 -2.943 0
M  V30 40 H -4.5043 2.5833 -3.2791 0
M  V30 41 H -2.7849 0.724 -4.8959 0
M  V30 42 H -1.3406 1.759 -4.8322 0
M  V30 43 H -2.9203 2.4888 -5.0629 0
M  V30 END ATOM
M  V30 BEGIN BOND
M  V30 1 1 1 2
M  V30 2 1 1 3
M  V30 3 2 2 4
M  V30 4 1 2 5
M  V30 5 2 3 6
M  V30 6 1 3 7
M  V30 7 1 4 8
M  V30 8 1 4 9
M  V30 9 2 5 10
M  V30 10 1 6 11
M  V30 11 2 7 12
M  V30 12 2 8 13
M  V30 13 2 9 14
M  V30 14 2 11 15
M  V30 15 1 13 16
M  V30 16 1 14 17
M  V30 17 1 16 18
M  V30 18 1 17 19
M  V30 19 1 18 20
M  V30 20 1 20 21
M  V30 21 1 20 22
M  V30 22 1 6 8
M  V30 23 1 10 14
M  V30 24 1 12 15
M  V30 25 1 5 23
M  V30 26 1 7 24
M  V30 27 1 9 25
M  V30 28 1 10 26
M  V30 29 1 11 27
M  V30 30 1 12 28
M  V30 31 1 13 29
M  V30 32 1 15 30
M  V30 33 1 16 31
M  V30 34 1 16 32
M  V30 35 1 18 33
M  V30 36 1 18 34
M  V30 37 1 19 35
M  V30 38 1 19 36
M  V30 39 1 19 37
M  V30 40 1 21 38
M  V30 41 1 21 39
M  V30 42 1 21 40
M  V30 43 1 22 41
M  V30 44 1 22 42
M  V30 45 1 22 43
M  V30 END BOND
M  V30 END CTAB
M  END
>  <NO.>
2056

>  <Name>
dimeprozan

>  <SMILES>
COc1ccc2c(c1)/C(=C/CCN(C)C)c1ccccc1O2

>  <logBB>


>  <Class>
1

>  <MW>
295.16

>  <nHBAcc>
3

>  <nHBDon>
0

>  <SLogP>
4.18

>  <TopoPSA>
21.7

>  <MMFF94 Energy>
86.414

$$$$
COc1ccc2c(c1)C(N1CCN(C)CC1)=Cc1ccccc1O2
Actelion Java MolfileCreator 2.0

  0  0  0  0  0  0              0 V3000
M  V30 BEGIN CTAB
M  V30 COUNTS 46 49 0 0 0
M  V30 BEGIN ATOM
M  V30 1 O -1.1973 2.4756 1.5167 0
M  V30 2 C -1.5059 1.1579 1.2644 0
M  V30 3 C -0.0959 2.6407 2.3277 0
M  V30 4 C -0.6549 0.3055 0.5495 0
M  V30 5 C -2.7429 0.71 1.7397 0
M  V30 6 C 1.1809 2.2028 1.9529 0
M  V30 7 C -0.2973 3.3223 3.5316 0
M  V30 8 C 0.6374 0.7563 -0.0435 0
M  V30 9 C -1.0611 -1.0327 0.3878 0
M  V30 10 C -3.133 -0.6166 1.5476 0
M  V30 11 C 1.4491 1.582 0.6481 0
M  V30 12 C 2.2544 2.452 2.8197 0
M  V30 13 C 0.7769 3.5505 4.3894 0
M  V30 14 N 0.9691 0.2435 -1.3073 0
M  V30 15 C -2.2873 -1.4978 0.8773 0
M  V30 16 C 2.0518 3.113 4.035 0
M  V30 17 C 0.0176 0.2877 -2.4426 0
M  V30 18 C 2.358 0.0066 -1.7477 0
M  V30 19 O -2.5386 -2.8191 0.6267 0
M  V30 20 C 0.1515 -0.967 -3.332 0
M  V30 21 C 2.446 -1.2408 -2.6568 0
M  V30 22 C -3.7517 -3.3518 1.1427 0
M  V30 23 N 1.5336 -1.1752 -3.8192 0
M  V30 24 C 1.6197 -2.3993 -4.612 0
M  V30 25 H -3.3963 1.3958 2.2721 0
M  V30 26 H -1.2912 3.6697 3.7984 0
M  V30 27 H -0.408 -1.7293 -0.1338 0
M  V30 28 H -4.0961 -0.9275 1.9371 0
M  V30 29 H 2.3955 1.8792 0.2064 0
M  V30 30 H 3.2597 2.1324 2.5548 0
M  V30 31 H 0.6213 4.0731 5.3295 0
M  V30 32 H 2.8928 3.2941 4.6997 0
M  V30 33 H 0.2255 1.1866 -3.0372 0
M  V30 34 H -1.0211 0.3704 -2.105 0
M  V30 35 H 3.0148 -0.1605 -0.8857 0
M  V30 36 H 2.7259 0.891 -2.2823 0
M  V30 37 H -0.5221 -0.8517 -4.1895 0
M  V30 38 H -0.1871 -1.8438 -2.7639 0
M  V30 39 H 3.48 -1.3331 -3.01 0
M  V30 40 H 2.2249 -2.1317 -2.0531 0
M  V30 41 H -3.7835 -3.2783 2.2349 0
M  V30 42 H -3.7893 -4.4133 0.8795 0
M  V30 43 H -4.6208 -2.8653 0.6875 0
M  V30 44 H 0.9621 -2.3365 -5.486 0
M  V30 45 H 1.3432 -3.29 -4.0363 0
M  V30 46 H 2.6375 -2.5378 -4.9928 0
M  V30 END ATOM
M  V30 BEGIN BOND
M  V30 1 1 1 2
M  V30 2 1 1 3
M  V30 3 2 2 4
M  V30 4 1 2 5
M  V30 5 2 3 6
M  V30 6 1 3 7
M  V30 7 1 4 8
M  V30 8 1 4 9
M  V30 9 2 5 10
M  V30 10 1 6 11
M  V30 11 1 6 12
M  V30 12 2 7 13
M  V30 13 1 8 14
M  V30 14 2 9 15
M  V30 15 2 12 16
M  V30 16 1 14 17
M  V30 17 1 14 18
M  V30 18 1 15 19
M  V30 19 1 17 20
M  V30 20 1 18 21
M  V30 21 1 19 22
M  V30 22 1 20 23
M  V30 23 1 23 24
M  V30 24 2 8 11
M  V30 25 1 10 15
M  V30 26 1 13 16
M  V30 27 1 21 23
M  V30 28 1 5 25
M  V30 29 1 7 26
M  V30 30 1 9 27
M  V30 31 1 10 28
M  V30 32 1 11 29
M  V30 33 1 12 30
M  V30 34 1 13 31
M  V30 35 1 16 32
M  V30 36 1 17 33
M  V30 37 1 17 34
M  V30 38 1 18 35
M  V30 39 1 18 36
M  V30 40 1 20 37
M  V30 41 1 20 38
M  V30 42 1 21 39
M  V30 43 1 21 40
M  V30 44 1 22 41
M  V30 45 1 22 42
M  V30 46 1 22 43
M  V30 47 1 24 44
M  V30 48 1 24 45
M  V30 49 1 24 46
M  V30 END BOND
M  V30 END CTAB
M  END
>  <NO.>
2057

>  <Name>
metoxepin

>  <SMILES>
COc1ccc2c(c1)C(N1CCN(C)CC1)=Cc1ccccc1O2

>  <logBB>


>  <Class>
1

>  <MW>
322.17

>  <nHBAcc>
4

>  <nHBDon>
0

>  <SLogP>
3.55

>  <TopoPSA>
24.94

>  <MMFF94 Energy>
150.37

$$$$
COc1ccc2c(c1)C(O)(CCCN(C)C)c1ccccc1S2
Actelion Java MolfileCreator 2.0

  0  0  0  0  0  0              0 V3000
M  V30 BEGIN CTAB
M  V30 COUNTS 46 48 0 0 0
M  V30 BEGIN ATOM
M  V30 1 S 1.2862 -0.7233 3.2984 0
M  V30 2 C 0.127 -1.6423 2.3164 0
M  V30 3 C 0.7288 0.9473 3.0644 0
M  V30 4 C -0.6169 -1.0713 1.2747 0
M  V30 5 C -0.0435 -2.9968 2.6365 0
M  V30 6 C -0.0432 1.3467 1.9638 0
M  V30 7 C 1.103 1.888 4.0379 0
M  V30 8 C -1.5452 -1.8937 0.5863 0
M  V30 9 C -0.3968 0.3764 0.8309 0 CFG=2
M  V30 10 C -0.9616 -3.7852 1.9434 0
M  V30 11 C -0.4066 2.7097 1.8654 0
M  V30 12 C 0.7149 3.2229 3.9326 0
M  V30 13 C -1.7217 -3.2384 0.9156 0
M  V30 14 O -1.6382 0.8321 0.2569 0
M  V30 15 C 0.7076 0.485 -0.2576 0
M  V30 16 C -0.0403 3.6349 2.8432 0
M  V30 17 O -2.5826 -4.1111 0.3114 0
M  V30 18 C 0.4073 -0.2473 -1.5756 0
M  V30 19 C -3.3809 -3.6001 -0.7489 0
M  V30 20 C 1.5111 -0.0562 -2.6291 0
M  V30 21 N 1.7825 1.3438 -2.9938 0
M  V30 22 C 0.6443 1.9665 -3.6721 0
M  V30 23 C 2.9707 1.4188 -3.8475 0
M  V30 24 H 0.5316 -3.4506 3.4412 0
M  V30 25 H 1.7034 1.5838 4.8934 0
M  V30 26 H -2.11 -1.4558 -0.2324 0
M  V30 27 H -1.0837 -4.8321 2.2098 0
M  V30 28 H -0.9644 3.066 0.9998 0
M  V30 29 H 1.0119 3.9383 4.6949 0
M  V30 30 H -2.2624 0.9013 1.001 0
M  V30 31 H 1.6663 0.1244 0.1381 0
M  V30 32 H 0.852 1.5472 -0.4966 0
M  V30 33 H -0.332 4.6773 2.7428 0
M  V30 34 H 0.3282 -1.3237 -1.3871 0
M  V30 35 H -0.5597 0.07 -1.9801 0
M  V30 36 H -4.0414 -2.8007 -0.3965 0
M  V30 37 H -4.012 -4.4157 -1.1149 0
M  V30 38 H -2.7582 -3.2611 -1.5834 0
M  V30 39 H 2.4275 -0.5011 -2.2187 0
M  V30 40 H 1.2532 -0.6417 -3.5216 0
M  V30 41 H -0.2237 2.0363 -3.009 0
M  V30 42 H 0.3512 1.419 -4.5751 0
M  V30 43 H 0.8852 2.9965 -3.9599 0
M  V30 44 H 2.8388 0.8724 -4.7885 0
M  V30 45 H 3.8449 1.0092 -3.3291 0
M  V30 46 H 3.2106 2.4617 -4.084 0
M  V30 END ATOM
M  V30 BEGIN BOND
M  V30 1 1 1 2
M  V30 2 1 1 3
M  V30 3 2 2 4
M  V30 4 1 2 5
M  V30 5 2 3 6
M  V30 6 1 3 7
M  V30 7 1 4 8
M  V30 8 1 4 9
M  V30 9 2 5 10
M  V30 10 1 6 11
M  V30 11 2 7 12
M  V30 12 2 8 13
M  V30 13 1 9 14
M  V30 14 1 9 15
M  V30 15 2 11 16
M  V30 16 1 13 17
M  V30 17 1 15 18
M  V30 18 1 17 19
M  V30 19 1 18 20
M  V30 20 1 20 21
M  V30 21 1 21 22
M  V30 22 1 21 23
M  V30 23 1 6 9
M  V30 24 1 10 13
M  V30 25 1 12 16
M  V30 26 1 5 24
M  V30 27 1 7 25
M  V30 28 1 8 26
M  V30 29 1 10 27
M  V30 30 1 11 28
M  V30 31 1 12 29
M  V30 32 1 14 30
M  V30 33 1 15 31
M  V30 34 1 15 32
M  V30 35 1 16 33
M  V30 36 1 18 34
M  V30 37 1 18 35
M  V30 38 1 19 36
M  V30 39 1 19 37
M  V30 40 1 19 38
M  V30 41 1 20 39
M  V30 42 1 20 40
M  V30 43 1 22 41
M  V30 44 1 22 42
M  V30 45 1 22 43
M  V30 46 1 23 44
M  V30 47 1 23 45
M  V30 48 1 23 46
M  V30 END BOND
M  V30 BEGIN COLLECTION
M  V30 MDLV30/STERAC1 ATOMS=(1 9)
M  V30 END COLLECTION
M  V30 END CTAB
M  END
>  <NO.>
2058

>  <Name>
meprotixol

>  <SMILES>
COc1ccc2c(c1)C(O)(CCCN(C)C)c1ccccc1S2

>  <logBB>


>  <Class>
1

>  <MW>
329.14

>  <nHBAcc>
4

>  <nHBDon>
1

>  <SLogP>
3.74

>  <TopoPSA>
32.7

>  <MMFF94 Energy>
51.604

$$$$
COc1ccc2c(c1)CN(C)CC2c1ccc(Cl)c(Cl)c1
Actelion Java MolfileCreator 2.0

  0  0  0  0  0  0              0 V3000
M  V30 BEGIN CTAB
M  V30 COUNTS 38 40 0 0 0
M  V30 BEGIN ATOM
M  V30 1 Cl 0.9785 5.8819 -0.326 0
M  V30 2 C 0.1651 4.4427 0.1775 0
M  V30 3 C -0.7195 4.4215 1.2601 0
M  V30 4 C 0.4175 3.2681 -0.5411 0
M  V30 5 Cl -1.079 5.8304 2.1932 0
M  V30 6 C -1.3479 3.2265 1.6184 0
M  V30 7 C -0.2064 2.0605 -0.1867 0
M  V30 8 C -1.0953 2.0554 0.9001 0
M  V30 9 C 0.0763 0.7923 -0.9895 0 CFG=1
M  V30 10 C 0.5394 -0.3939 -0.1493 0
M  V30 11 C -1.1614 0.4491 -1.862 0
M  V30 12 C 0.0601 -1.6846 -0.4384 0
M  V30 13 C 1.5054 -0.2382 0.8586 0
M  V30 14 N -1.0002 -0.8492 -2.5351 0
M  V30 15 C 0.5054 -2.7731 0.3304 0
M  V30 16 C -0.9658 -1.9215 -1.5262 0
M  V30 17 C 1.9486 -1.3334 1.6071 0
M  V30 18 C -2.0861 -1.0822 -3.4853 0
M  V30 19 C 1.445 -2.6056 1.3501 0
M  V30 20 O 1.7847 -3.7554 2.0084 0
M  V30 21 C 2.7554 -3.6406 3.0412 0
M  V30 22 H 1.1074 3.2953 -1.3829 0
M  V30 23 H -2.0363 3.1983 2.46 0
M  V30 24 H -1.5912 1.1334 1.2013 0
M  V30 25 H 0.9104 0.9945 -1.6781 0
M  V30 26 H -1.282 1.2448 -2.6098 0
M  V30 27 H -2.081 0.4468 -1.2593 0
M  V30 28 H 1.9245 0.743 1.0724 0
M  V30 29 H 0.1232 -3.7719 0.129 0
M  V30 30 H -0.7227 -2.864 -2.0327 0
M  V30 31 H -1.9459 -2.0391 -1.0442 0
M  V30 32 H 2.6888 -1.1551 2.3797 0
M  V30 33 H -3.0697 -1.0844 -3.0015 0
M  V30 34 H -1.9507 -2.0419 -3.9962 0
M  V30 35 H -2.0872 -0.3103 -4.2628 0
M  V30 36 H 3.7126 -3.2848 2.6461 0
M  V30 37 H 2.9184 -4.6388 3.459 0
M  V30 38 H 2.3965 -2.9958 3.8503 0
M  V30 END ATOM
M  V30 BEGIN BOND
M  V30 1 1 1 2
M  V30 2 2 2 3
M  V30 3 1 2 4
M  V30 4 1 3 5
M  V30 5 1 3 6
M  V30 6 2 4 7
M  V30 7 2 6 8
M  V30 8 1 7 9
M  V30 9 1 9 10
M  V30 10 1 9 11
M  V30 11 2 10 12
M  V30 12 1 10 13
M  V30 13 1 11 14
M  V30 14 1 12 15
M  V30 15 1 12 16
M  V30 16 2 13 17
M  V30 17 1 14 18
M  V30 18 2 15 19
M  V30 19 1 19 20
M  V30 20 1 20 21
M  V30 21 1 7 8
M  V30 22 1 14 16
M  V30 23 1 17 19
M  V30 24 1 4 22
M  V30 25 1 6 23
M  V30 26 1 8 24
M  V30 27 1 9 25
M  V30 28 1 11 26
M  V30 29 1 11 27
M  V30 30 1 13 28
M  V30 31 1 15 29
M  V30 32 1 16 30
M  V30 33 1 16 31
M  V30 34 1 17 32
M  V30 35 1 18 33
M  V30 36 1 18 34
M  V30 37 1 18 35
M  V30 38 1 21 36
M  V30 39 1 21 37
M  V30 40 1 21 38
M  V30 END BOND
M  V30 BEGIN COLLECTION
M  V30 MDLV30/STERAC1 ATOMS=(1 9)
M  V30 END COLLECTION
M  V30 END CTAB
M  END
>  <NO.>
2059

>  <Name>
diclofensine

>  <SMILES>
COc1ccc2c(c1)CN(C)CC2c1ccc(Cl)c(Cl)c1

>  <logBB>


>  <Class>
1

>  <MW>
321.07

>  <nHBAcc>
2

>  <nHBDon>
0

>  <SLogP>
4.58

>  <TopoPSA>
12.47

>  <MMFF94 Energy>
91.938

$$$$
COc1ccc2c(c1)N(CC(C)CN1CCC(O)CC1)c1ccccc1S2
Actelion Java MolfileCreator 2.0

  0  0  0  0  0  0              0 V3000
M  V30 BEGIN CTAB
M  V30 COUNTS 55 58 0 0 0
M  V30 BEGIN ATOM
M  V30 1 S -3.0568 -1.8493 0.7233 0
M  V30 2 C -2.1548 -1.7794 -0.8103 0
M  V30 3 C -3.6284 -0.1686 0.8776 0
M  V30 4 C -1.751 -0.5693 -1.4057 0
M  V30 5 C -1.8323 -3.0108 -1.4044 0
M  V30 6 C -3.0863 0.8945 0.1271 0
M  V30 7 C -4.6523 0.0612 1.8138 0
M  V30 8 N -2.0308 0.6842 -0.7984 0
M  V30 9 C -1.0847 -0.66 -2.6449 0
M  V30 10 C -1.1379 -3.0667 -2.6123 0
M  V30 11 C -3.665 2.1669 0.3111 0
M  V30 12 C -5.1789 1.3362 1.9959 0
M  V30 13 C -0.9944 1.7435 -0.9066 0
M  V30 14 C -0.7711 -1.8871 -3.2447 0
M  V30 15 C -4.6914 2.3885 1.2356 0
M  V30 16 C 0.0977 1.7259 0.1958 0 CFG=2
M  V30 17 O -0.1105 -1.786 -4.4384 0
M  V30 18 C 0.8708 0.3905 0.2486 0
M  V30 19 C -0.4329 2.1221 1.5769 0
M  V30 20 C 0.1924 -3.0019 -5.1111 0
M  V30 21 N 2.0421 0.4026 1.1544 0
M  V30 22 C 2.4607 -0.9824 1.4383 0
M  V30 23 C 3.1596 1.1803 0.5947 0
M  V30 24 C 3.62 -1.0182 2.4295 0
M  V30 25 C 4.3438 1.2148 1.5583 0
M  V30 26 C 4.7937 -0.1946 1.9177 0
M  V30 27 O 5.8204 -0.1412 2.9042 0
M  V30 28 H -2.1307 -3.9425 -0.9276 0
M  V30 29 H -5.0521 -0.7614 2.4026 0
M  V30 30 H -0.8204 0.2347 -3.2001 0
M  V30 31 H -0.9159 -4.0416 -3.0315 0
M  V30 32 H -3.3493 3.0171 -0.2847 0
M  V30 33 H -5.9747 1.5011 2.717 0
M  V30 34 H -0.4786 1.7007 -1.8708 0
M  V30 35 H -1.446 2.7408 -0.9295 0
M  V30 36 H -5.1107 3.3848 1.3514 0
M  V30 37 H 0.7971 2.5184 -0.0994 0
M  V30 38 H 1.1852 0.0942 -0.7599 0
M  V30 39 H 0.1745 -0.3762 0.6074 0
M  V30 40 H -1.046 1.3324 2.0204 0
M  V30 41 H 0.3932 2.3205 2.2683 0
M  V30 42 H -1.0291 3.0384 1.5196 0
M  V30 43 H 0.877 -3.619 -4.52 0
M  V30 44 H 0.6975 -2.7484 -6.048 0
M  V30 45 H -0.72 -3.5524 -5.3628 0
M  V30 46 H 1.6262 -1.5406 1.8801 0
M  V30 47 H 2.7456 -1.4999 0.5128 0
M  V30 48 H 3.4795 0.7643 -0.3693 0
M  V30 49 H 2.857 2.2171 0.4161 0
M  V30 50 H 3.939 -2.0528 2.6028 0
M  V30 51 H 3.2925 -0.6399 3.4071 0
M  V30 52 H 5.1787 1.7684 1.1122 0
M  V30 53 H 4.0733 1.7668 2.4683 0
M  V30 54 H 5.2224 -0.6787 1.0325 0
M  V30 55 H 5.4433 0.2754 3.6986 0
M  V30 END ATOM
M  V30 BEGIN BOND
M  V30 1 1 1 2
M  V30 2 1 1 3
M  V30 3 2 2 4
M  V30 4 1 2 5
M  V30 5 2 3 6
M  V30 6 1 3 7
M  V30 7 1 4 8
M  V30 8 1 4 9
M  V30 9 2 5 10
M  V30 10 1 6 11
M  V30 11 2 7 12
M  V30 12 1 8 13
M  V30 13 2 9 14
M  V30 14 2 11 15
M  V30 15 1 13 16
M  V30 16 1 14 17
M  V30 17 1 16 18
M  V30 18 1 16 19
M  V30 19 1 17 20
M  V30 20 1 18 21
M  V30 21 1 21 22
M  V30 22 1 21 23
M  V30 23 1 22 24
M  V30 24 1 23 25
M  V30 25 1 24 26
M  V30 26 1 26 27
M  V30 27 1 6 8
M  V30 28 1 10 14
M  V30 29 1 12 15
M  V30 30 1 25 26
M  V30 31 1 5 28
M  V30 32 1 7 29
M  V30 33 1 9 30
M  V30 34 1 10 31
M  V30 35 1 11 32
M  V30 36 1 12 33
M  V30 37 1 13 34
M  V30 38 1 13 35
M  V30 39 1 15 36
M  V30 40 1 16 37
M  V30 41 1 18 38
M  V30 42 1 18 39
M  V30 43 1 19 40
M  V30 44 1 19 41
M  V30 45 1 19 42
M  V30 46 1 20 43
M  V30 47 1 20 44
M  V30 48 1 20 45
M  V30 49 1 22 46
M  V30 50 1 22 47
M  V30 51 1 23 48
M  V30 52 1 23 49
M  V30 53 1 24 50
M  V30 54 1 24 51
M  V30 55 1 25 52
M  V30 56 1 25 53
M  V30 57 1 26 54
M  V30 58 1 27 55
M  V30 END BOND
M  V30 BEGIN COLLECTION
M  V30 MDLV30/STERAC1 ATOMS=(1 16)
M  V30 END COLLECTION
M  V30 END CTAB
M  END
>  <NO.>
2060

>  <Name>
perimetazine

>  <SMILES>
COc1ccc2c(c1)N(CC(C)CN1CCC(O)CC1)c1ccccc1S2

>  <logBB>


>  <Class>
1

>  <MW>
384.19

>  <nHBAcc>
5

>  <nHBDon>
1

>  <SLogP>
4.39

>  <TopoPSA>
35.94

>  <MMFF94 Energy>
74.823

$$$$
COc1ccc2c(c1)N(CCCN(C)C)c1ccccc1S2
Actelion Java MolfileCreator 2.0

  0  0  0  0  0  0              0 V3000
M  V30 BEGIN CTAB
M  V30 COUNTS 44 46 0 0 0
M  V30 BEGIN ATOM
M  V30 1 S -2.0864 -3.6935 1.123 0
M  V30 2 C -0.8505 -3.3117 -0.0932 0
M  V30 3 C -2.3168 -2.132 1.9372 0
M  V30 4 C -0.1635 -2.0828 -0.1557 0
M  V30 5 C -0.5738 -4.3415 -1.0108 0
M  V30 6 C -1.5049 -1.003 1.7071 0
M  V30 7 C -3.3769 -2.0888 2.8657 0
M  V30 8 N -0.4225 -1.0345 0.7789 0
M  V30 9 C 0.7823 -1.9436 -1.2035 0
M  V30 10 C 0.3706 -4.169 -2.016 0
M  V30 11 C -1.8385 0.1606 2.4392 0
M  V30 12 C -3.6657 -0.9287 3.5741 0
M  V30 13 C 0.571 0.0606 0.8643 0
M  V30 14 C 1.0489 -2.9644 -2.1249 0
M  V30 15 C -2.896 0.2005 3.3569 0
M  V30 16 C 0.2234 1.2279 -0.0718 0
M  V30 17 O 1.9415 -2.9052 -3.1598 0
M  V30 18 C 1.2523 2.3556 0.0776 0
M  V30 19 C 2.5863 -1.6593 -3.3924 0
M  V30 20 N 1.0922 3.4235 -0.9229 0
M  V30 21 C 2.2244 4.3522 -0.8526 0
M  V30 22 C -0.1607 4.1633 -0.7528 0
M  V30 23 H -1.1015 -5.2912 -0.9489 0
M  V30 24 H -3.9899 -2.9716 3.0382 0
M  V30 25 H 1.3188 -1.0123 -1.3189 0
M  V30 26 H 0.5688 -4.9733 -2.7192 0
M  V30 27 H -1.294 1.0898 2.3098 0
M  V30 28 H -4.4881 -0.9094 4.2836 0
M  V30 29 H 1.5822 -0.311 0.6522 0
M  V30 30 H 0.6728 0.4193 1.897 0
M  V30 31 H -3.1134 1.1201 3.8944 0
M  V30 32 H -0.7819 1.5983 0.1529 0
M  V30 33 H 0.1956 0.8902 -1.1137 0
M  V30 34 H 1.209 2.7661 1.0952 0
M  V30 35 H 2.2492 1.912 -0.0448 0
M  V30 36 H 1.858 -0.8686 -3.6021 0
M  V30 37 H 3.2198 -1.7712 -4.2776 0
M  V30 38 H 3.234 -1.3891 -2.552 0
M  V30 39 H 3.1674 3.8258 -1.0379 0
M  V30 40 H 2.2911 4.8489 0.1222 0
M  V30 41 H 2.1412 5.1219 -1.6283 0
M  V30 42 H -0.2501 4.5989 0.2488 0
M  V30 43 H -1.0287 3.5218 -0.9337 0
M  V30 44 H -0.2308 4.9751 -1.4862 0
M  V30 END ATOM
M  V30 BEGIN BOND
M  V30 1 1 1 2
M  V30 2 1 1 3
M  V30 3 2 2 4
M  V30 4 1 2 5
M  V30 5 2 3 6
M  V30 6 1 3 7
M  V30 7 1 4 8
M  V30 8 1 4 9
M  V30 9 2 5 10
M  V30 10 1 6 11
M  V30 11 2 7 12
M  V30 12 1 8 13
M  V30 13 2 9 14
M  V30 14 2 11 15
M  V30 15 1 13 16
M  V30 16 1 14 17
M  V30 17 1 16 18
M  V30 18 1 17 19
M  V30 19 1 18 20
M  V30 20 1 20 21
M  V30 21 1 20 22
M  V30 22 1 6 8
M  V30 23 1 10 14
M  V30 24 1 12 15
M  V30 25 1 5 23
M  V30 26 1 7 24
M  V30 27 1 9 25
M  V30 28 1 10 26
M  V30 29 1 11 27
M  V30 30 1 12 28
M  V30 31 1 13 29
M  V30 32 1 13 30
M  V30 33 1 15 31
M  V30 34 1 16 32
M  V30 35 1 16 33
M  V30 36 1 18 34
M  V30 37 1 18 35
M  V30 38 1 19 36
M  V30 39 1 19 37
M  V30 40 1 19 38
M  V30 41 1 21 39
M  V30 42 1 21 40
M  V30 43 1 21 41
M  V30 44 1 22 42
M  V30 45 1 22 43
M  V30 46 1 22 44
M  V30 END BOND
M  V30 END CTAB
M  END
>  <NO.>
2062

>  <Name>
methopromazine

>  <SMILES>
COc1ccc2c(c1)N(CCCN(C)C)c1ccccc1S2

>  <logBB>


>  <Class>
1

>  <MW>
314.15

>  <nHBAcc>
4

>  <nHBDon>
0

>  <SLogP>
4.25

>  <TopoPSA>
15.71

>  <MMFF94 Energy>
74.386

$$$$
COc1ccc2c(c1)N(C[C@H](C)CN(C)C)c1ccccc1S2
Actelion Java MolfileCreator 2.0

  0  0  0  0  0  0              0 V3000
M  V30 BEGIN CTAB
M  V30 COUNTS 47 49 0 0 0
M  V30 BEGIN ATOM
M  V30 1 S -1.9226 -2.5641 0.08 0
M  V30 2 C -1.0792 -1.8932 -1.3376 0
M  V30 3 C -2.5944 -1.0953 0.8324 0
M  V30 4 C -0.7952 -0.5209 -1.4832 0
M  V30 5 C -0.688 -2.8097 -2.3252 0
M  V30 6 C -2.159 0.2025 0.4982 0
M  V30 7 C -3.5777 -1.289 1.8187 0
M  V30 8 N -1.1478 0.4167 -0.4761 0
M  V30 9 C -0.1866 -0.1076 -2.6904 0
M  V30 10 C -0.0479 -2.3751 -3.4826 0
M  V30 11 C -2.7845 1.281 1.1579 0
M  V30 12 C -4.1617 -0.2047 2.4672 0
M  V30 13 C -0.2081 1.5406 -0.2317 0
M  V30 14 C 0.1953 -1.0206 -3.6788 0
M  V30 15 C -3.769 1.0825 2.1313 0
M  V30 16 C 0.6214 1.3703 1.067 0 CFG=1
M  V30 17 O 0.798 -0.7174 -4.8685 0
M  V30 18 C 1.5596 0.1446 0.9659 0
M  V30 19 C 1.4135 2.6603 1.3215 0
M  V30 20 C 1.0799 0.6526 -5.1229 0
M  V30 21 N 2.4448 -0.0457 2.1335 0
M  V30 22 C 3.4488 -1.0707 1.8309 0
M  V30 23 C 1.6859 -0.4444 3.323 0
M  V30 24 H -0.8902 -3.8716 -2.2039 0
M  V30 25 H -3.8992 -2.2944 2.0826 0
M  V30 26 H -0.0506 0.9516 -2.8708 0
M  V30 27 H 0.2437 -3.0955 -4.2425 0
M  V30 28 H -2.5321 2.3078 0.9126 0
M  V30 29 H -4.9253 -0.3667 3.2231 0
M  V30 30 H -0.7652 2.4847 -0.2059 0
M  V30 31 H 0.5035 1.6818 -1.0517 0
M  V30 32 H -4.2293 1.9379 2.6194 0
M  V30 33 H -0.0603 1.2341 1.9128 0
M  V30 34 H 2.1838 0.2818 0.0723 0
M  V30 35 H 0.9747 -0.7678 0.802 0
M  V30 36 H 0.7422 3.525 1.3627 0
M  V30 37 H 1.9478 2.6195 2.276 0
M  V30 38 H 2.1469 2.8387 0.5279 0
M  V30 39 H 0.1579 1.2408 -5.1775 0
M  V30 40 H 1.5737 0.717 -6.0972 0
M  V30 41 H 1.7667 1.0609 -4.3739 0
M  V30 42 H 4.0627 -0.7678 0.9753 0
M  V30 43 H 2.9942 -2.042 1.6043 0
M  V30 44 H 4.1352 -1.1986 2.6755 0
M  V30 45 H 1.1051 -1.359 3.1571 0
M  V30 46 H 1.0028 0.3483 3.6428 0
M  V30 47 H 2.362 -0.6173 4.1684 0
M  V30 END ATOM
M  V30 BEGIN BOND
M  V30 1 1 1 2
M  V30 2 1 1 3
M  V30 3 2 2 4
M  V30 4 1 2 5
M  V30 5 2 3 6
M  V30 6 1 3 7
M  V30 7 1 4 8
M  V30 8 1 4 9
M  V30 9 2 5 10
M  V30 10 1 6 11
M  V30 11 2 7 12
M  V30 12 1 8 13
M  V30 13 2 9 14
M  V30 14 2 11 15
M  V30 15 1 13 16
M  V30 16 1 14 17
M  V30 17 1 16 18
M  V30 18 1 16 19
M  V30 19 1 17 20
M  V30 20 1 18 21
M  V30 21 1 21 22
M  V30 22 1 21 23
M  V30 23 1 6 8
M  V30 24 1 10 14
M  V30 25 1 12 15
M  V30 26 1 5 24
M  V30 27 1 7 25
M  V30 28 1 9 26
M  V30 29 1 10 27
M  V30 30 1 11 28
M  V30 31 1 12 29
M  V30 32 1 13 30
M  V30 33 1 13 31
M  V30 34 1 15 32
M  V30 35 1 16 33
M  V30 36 1 18 34
M  V30 37 1 18 35
M  V30 38 1 19 36
M  V30 39 1 19 37
M  V30 40 1 19 38
M  V30 41 1 20 39
M  V30 42 1 20 40
M  V30 43 1 20 41
M  V30 44 1 22 42
M  V30 45 1 22 43
M  V30 46 1 22 44
M  V30 47 1 23 45
M  V30 48 1 23 46
M  V30 49 1 23 47
M  V30 END BOND
M  V30 BEGIN COLLECTION
M  V30 MDLV30/STEABS ATOMS=(1 16)
M  V30 END COLLECTION
M  V30 END CTAB
M  END
>  <NO.>
2063

>  <Name>
methotrimeprazine

>  <SMILES>
COc1ccc2c(c1)N(C[C@H](C)CN(C)C)c1ccccc1S2

>  <logBB>


>  <Class>
1

>  <MW>
328.16

>  <nHBAcc>
4

>  <nHBDon>
0

>  <SLogP>
4.5

>  <TopoPSA>
15.71

>  <MMFF94 Energy>
79.135

$$$$
COc1ccc2c(c1)c1c3n2CCN(C)C3=NCC1
Actelion Java MolfileCreator 2.0

  0  0  0  0  0  0              0 V3000
M  V30 BEGIN CTAB
M  V30 COUNTS 36 39 0 0 0
M  V30 BEGIN ATOM
M  V30 1 O 1.8395 -1.9195 4.0022 0
M  V30 2 C 1.6309 -1.5249 2.7068 0
M  V30 3 C 2.9991 -2.6999 4.26 0
M  V30 4 C 0.4767 -0.7529 2.5194 0
M  V30 5 C 2.4508 -1.8266 1.62 0
M  V30 6 C 0.1442 -0.2779 1.2362 0
M  V30 7 C 2.1447 -1.3745 0.3286 0
M  V30 8 C 0.987 -0.6051 0.1565 0
M  V30 9 C -0.92 0.5046 0.7149 0
M  V30 10 N 0.4286 -0.0391 -0.9631 0
M  V30 11 C -0.6952 0.6421 -0.624 0
M  V30 12 C -2.1418 1.1192 1.2766 0
M  V30 13 C 0.8639 -0.0636 -2.3469 0
M  V30 14 C -1.5336 1.3364 -1.5567 0
M  V30 15 C -2.5833 2.2996 0.3764 0
M  V30 16 C -0.3356 0.083 -3.3112 0
M  V30 17 N -2.4889 2.0813 -1.0986 0
M  V30 18 N -1.2722 1.147 -2.905 0
M  V30 19 C -2.1483 1.7052 -3.916 0
M  V30 20 H 2.9627 -3.6515 3.7198 0
M  V30 21 H 3.0186 -2.926 5.3305 0
M  V30 22 H 3.9112 -2.143 4.0213 0
M  V30 23 H -0.1601 -0.5187 3.3674 0
M  V30 24 H 3.3505 -2.4215 1.7391 0
M  V30 25 H 2.7927 -1.6191 -0.5062 0
M  V30 26 H -1.9809 1.4701 2.3012 0
M  V30 27 H -2.9383 0.3659 1.3015 0
M  V30 28 H 1.5597 0.7743 -2.4668 0
M  V30 29 H 1.3935 -1.0021 -2.5346 0
M  V30 30 H -3.6217 2.5547 0.6158 0
M  V30 31 H -1.9803 3.1854 0.6143 0
M  V30 32 H -0.8899 -0.8632 -3.346 0
M  V30 33 H 0.0478 0.273 -4.3201 0
M  V30 34 H -1.6799 1.6799 -4.9054 0
M  V30 35 H -2.385 2.7521 -3.6984 0
M  V30 36 H -3.0824 1.1365 -3.9652 0
M  V30 END ATOM
M  V30 BEGIN BOND
M  V30 1 1 1 2
M  V30 2 1 1 3
M  V30 3 2 2 4
M  V30 4 1 2 5
M  V30 5 1 4 6
M  V30 6 2 5 7
M  V30 7 2 6 8
M  V30 8 1 6 9
M  V30 9 1 8 10
M  V30 10 2 9 11
M  V30 11 1 9 12
M  V30 12 1 10 13
M  V30 13 1 11 14
M  V30 14 1 12 15
M  V30 15 1 13 16
M  V30 16 2 14 17
M  V30 17 1 14 18
M  V30 18 1 18 19
M  V30 19 1 7 8
M  V30 20 1 10 11
M  V30 21 1 15 17
M  V30 22 1 16 18
M  V30 23 1 3 20
M  V30 24 1 3 21
M  V30 25 1 3 22
M  V30 26 1 4 23
M  V30 27 1 5 24
M  V30 28 1 7 25
M  V30 29 1 12 26
M  V30 30 1 12 27
M  V30 31 1 13 28
M  V30 32 1 13 29
M  V30 33 1 15 30
M  V30 34 1 15 31
M  V30 35 1 16 32
M  V30 36 1 16 33
M  V30 37 1 19 34
M  V30 38 1 19 35
M  V30 39 1 19 36
M  V30 END BOND
M  V30 END CTAB
M  END
>  <NO.>
2064

>  <Name>
metralindole

>  <SMILES>
COc1ccc2c(c1)c1c3n2CCN(C)C3=NCC1

>  <logBB>


>  <Class>
1

>  <MW>
255.14

>  <nHBAcc>
3

>  <nHBDon>
0

>  <SLogP>
1.9

>  <TopoPSA>
29.76

>  <MMFF94 Energy>
12.665

$$$$
COc1ccc2c(c1OC)C(=O)O[C@@H]2[C@H]1c2c(cc3c(c2OC)OCO3)CCN1C
Actelion Java MolfileCreator 2.0

  0  0  0  0  0  0              0 V3000
M  V30 BEGIN CTAB
M  V30 COUNTS 53 57 0 0 0
M  V30 BEGIN ATOM
M  V30 1 O -1.9345 1.6925 -2.3379 0
M  V30 2 C -0.9413 1.1528 -1.8949 0
M  V30 3 O -0.8958 -0.1003 -1.359 0
M  V30 4 C 0.4143 1.6793 -1.816 0
M  V30 5 C 0.3964 -0.4353 -0.7871 0 CFG=1
M  V30 6 C 0.9147 2.8868 -2.2799 0
M  V30 7 C 1.2109 0.7521 -1.1727 0
M  V30 8 C 0.2971 -0.686 0.7648 0 CFG=2
M  V30 9 O 0.1141 3.7564 -2.9689 0
M  V30 10 C 2.2831 3.1568 -2.1127 0
M  V30 11 C 2.5614 1.005 -0.9903 0
M  V30 12 N 1.6337 -1.0097 1.3539 0
M  V30 13 C -0.7597 -1.7525 1.0842 0
M  V30 14 C -0.452 4.7193 -2.0809 0
M  V30 15 O 2.7255 4.3562 -2.6083 0
M  V30 16 C 3.0949 2.2131 -1.4591 0
M  V30 17 C 2.0566 -2.37 0.9964 0
M  V30 18 C 1.6561 -0.783 2.7997 0
M  V30 19 C -2.132 -1.4032 1.1349 0
M  V30 20 C -0.3671 -3.1027 1.2974 0
M  V30 21 C 4.1242 4.6033 -2.5749 0
M  V30 22 C 1.0888 -3.4797 1.4155 0
M  V30 23 O -2.4294 -0.0721 1.0223 0
M  V30 24 C -3.0561 -2.4122 1.3606 0
M  V30 25 C -1.3347 -4.0945 1.5141 0
M  V30 26 C -3.6885 0.2415 0.4335 0
M  V30 27 O -4.4092 -2.287 1.475 0
M  V30 28 C -2.6595 -3.7191 1.5323 0
M  V30 29 C -4.809 -3.6503 1.7016 0
M  V30 30 O -3.7012 -4.5662 1.7552 0
M  V30 31 H 0.7417 -1.3257 -1.3233 0
M  V30 32 H -0.0292 0.2603 1.2186 0
M  V30 33 H 3.2042 0.2864 -0.4888 0
M  V30 34 H -1.0401 4.2399 -1.2905 0
M  V30 35 H -1.1241 5.3571 -2.6627 0
M  V30 36 H 0.3227 5.3565 -1.641 0
M  V30 37 H 4.1542 2.3898 -1.2994 0
M  V30 38 H 2.2036 -2.4214 -0.0891 0
M  V30 39 H 3.0503 -2.5768 1.414 0
M  V30 40 H 0.9411 -1.4025 3.3506 0
M  V30 41 H 1.4386 0.2673 3.0232 0
M  V30 42 H 2.6567 -0.9819 3.1994 0
M  V30 43 H 4.4844 4.6819 -1.544 0
M  V30 44 H 4.3055 5.5653 -3.0639 0
M  V30 45 H 4.6763 3.8383 -3.1307 0
M  V30 46 H 1.2811 -3.7406 2.4641 0
M  V30 47 H 1.2882 -4.3725 0.8108 0
M  V30 48 H -1.0582 -5.1287 1.6919 0
M  V30 49 H -3.9068 -0.39 -0.4344 0
M  V30 50 H -3.6411 1.2778 0.0851 0
M  V30 51 H -4.4859 0.1852 1.1802 0
M  V30 52 H -5.4823 -3.9585 0.8934 0
M  V30 53 H -5.3545 -3.7028 2.6508 0
M  V30 END ATOM
M  V30 BEGIN BOND
M  V30 1 2 1 2
M  V30 2 1 2 3
M  V30 3 1 2 4
M  V30 4 1 3 5
M  V30 5 2 4 6
M  V30 6 1 4 7
M  V30 7 1 5 8
M  V30 8 1 6 9
M  V30 9 1 6 10
M  V30 10 2 7 11
M  V30 11 1 8 12
M  V30 12 1 8 13
M  V30 13 1 9 14
M  V30 14 1 10 15
M  V30 15 2 10 16
M  V30 16 1 12 17
M  V30 17 1 12 18
M  V30 18 2 13 19
M  V30 19 1 13 20
M  V30 20 1 15 21
M  V30 21 1 17 22
M  V30 22 1 19 23
M  V30 23 1 19 24
M  V30 24 2 20 25
M  V30 25 1 23 26
M  V30 26 1 24 27
M  V30 27 2 24 28
M  V30 28 1 27 29
M  V30 29 1 28 30
M  V30 30 1 5 7
M  V30 31 1 11 16
M  V30 32 1 20 22
M  V30 33 1 25 28
M  V30 34 1 29 30
M  V30 35 1 5 31
M  V30 36 1 8 32
M  V30 37 1 11 33
M  V30 38 1 14 34
M  V30 39 1 14 35
M  V30 40 1 14 36
M  V30 41 1 16 37
M  V30 42 1 17 38
M  V30 43 1 17 39
M  V30 44 1 18 40
M  V30 45 1 18 41
M  V30 46 1 18 42
M  V30 47 1 21 43
M  V30 48 1 21 44
M  V30 49 1 21 45
M  V30 50 1 22 46
M  V30 51 1 22 47
M  V30 52 1 25 48
M  V30 53 1 26 49
M  V30 54 1 26 50
M  V30 55 1 26 51
M  V30 56 1 29 52
M  V30 57 1 29 53
M  V30 END BOND
M  V30 BEGIN COLLECTION
M  V30 MDLV30/STEABS ATOMS=(2 5 8)
M  V30 END COLLECTION
M  V30 END CTAB
M  END
>  <NO.>
2065

>  <Name>
noscapine

>  <SMILES>
COc1ccc2c(c1OC)C(=O)O[C@@H]2[C@H]1c2c(cc3c(c2OC)OCO3)CCN1C

>  <logBB>


>  <Class>
1

>  <MW>
413.15

>  <nHBAcc>
8

>  <nHBDon>
0

>  <SLogP>
2.88

>  <TopoPSA>
75.69

>  <MMFF94 Energy>
144.96

$$$$
COc1ccc2c(c1OC)[C@]13CCN(C)[C@H](C2)[C@]1(O)CC[C@@H](O)C3
Actelion Java MolfileCreator 2.0

  0  0  0  0  0  0              0 V3000
M  V30 BEGIN CTAB
M  V30 COUNTS 51 54 0 0 0
M  V30 BEGIN ATOM
M  V30 1 O -0.961 1.8427 -1.6823 0
M  V30 2 C -0.7086 0.4916 -1.6537 0
M  V30 3 C -2.314 2.1726 -2.0043 0
M  V30 4 C -0.9331 -0.3013 -2.8054 0
M  V30 5 C -0.0932 -0.0419 -0.4903 0
M  V30 6 O -1.4756 0.3223 -3.9004 0
M  V30 7 C -0.5844 -1.6484 -2.7838 0
M  V30 8 C 0.323 -1.3966 -0.5392 0
M  V30 9 C 0.2296 0.8034 0.7791 0 CFG=2
M  V30 10 C -1.496 -0.3914 -5.129 0
M  V30 11 C 0.0432 -2.1865 -1.666 0
M  V30 12 C 1.0821 -2.0701 0.5828 0
M  V30 13 C 0.4106 -0.1207 2.0367 0 CFG=1
M  V30 14 C -0.8368 1.8647 1.177 0
M  V30 15 C 1.5783 1.5257 0.5053 0
M  V30 16 C 1.5247 -1.1451 1.7254 0 CFG=2
M  V30 17 O 0.8694 0.6538 3.1718 0
M  V30 18 C -0.9189 -0.7641 2.4887 0
M  V30 19 C -2.171 1.2321 1.5725 0 CFG=1
M  V30 20 C 2.7614 0.5521 0.4067 0
M  V30 21 N 2.7995 -0.3865 1.5388 0
M  V30 22 C -1.9986 0.284 2.757 0
M  V30 23 O -3.0865 2.2695 1.918 0
M  V30 24 C 3.9693 -1.258 1.451 0
M  V30 25 H -2.3877 2.4634 -3.056 0
M  V30 26 H -2.5977 3.0428 -1.4043 0
M  V30 27 H -3.019 1.3653 -1.7752 0
M  V30 28 H -0.7605 -2.3029 -3.63 0
M  V30 29 H -0.4915 -0.718 -5.4178 0
M  V30 30 H -1.8592 0.2898 -5.9044 0
M  V30 31 H -2.1899 -1.2365 -5.0791 0
M  V30 32 H 0.3403 -3.2339 -1.6855 0
M  V30 33 H 0.4264 -2.8456 1.0017 0
M  V30 34 H 1.9443 -2.6034 0.1671 0
M  V30 35 H -0.987 2.6338 0.4172 0
M  V30 36 H -0.4739 2.4525 2.0335 0
M  V30 37 H 1.5257 2.1174 -0.4172 0
M  V30 38 H 1.7879 2.2448 1.3086 0
M  V30 39 H 1.6759 -1.7622 2.6222 0
M  V30 40 H 1.8397 0.727 3.0508 0
M  V30 41 H -1.3043 -1.4681 1.7444 0
M  V30 42 H -0.7591 -1.3344 3.4123 0
M  V30 43 H -2.6034 0.6913 0.7244 0
M  V30 44 H 3.6817 1.1497 0.4013 0
M  V30 45 H 2.7391 0.0187 -0.551 0
M  V30 46 H -2.9517 -0.2111 2.9791 0
M  V30 47 H -1.7534 0.859 3.6593 0
M  V30 48 H -3.891 1.8479 2.2636 0
M  V30 49 H 4.8879 -0.6619 1.492 0
M  V30 50 H 3.9928 -1.8464 0.5283 0
M  V30 51 H 4.0072 -1.9453 2.303 0
M  V30 END ATOM
M  V30 BEGIN BOND
M  V30 1 1 1 2
M  V30 2 1 1 3
M  V30 3 2 2 4
M  V30 4 1 2 5
M  V30 5 1 4 6
M  V30 6 1 4 7
M  V30 7 2 5 8
M  V30 8 1 5 9
M  V30 9 1 6 10
M  V30 10 2 7 11
M  V30 11 1 8 12
M  V30 12 1 9 13
M  V30 13 1 9 14
M  V30 14 1 9 15
M  V30 15 1 12 16
M  V30 16 1 13 17
M  V30 17 1 13 18
M  V30 18 1 14 19
M  V30 19 1 15 20
M  V30 20 1 16 21
M  V30 21 1 18 22
M  V30 22 1 19 23
M  V30 23 1 21 24
M  V30 24 1 8 11
M  V30 25 1 13 16
M  V30 26 1 19 22
M  V30 27 1 20 21
M  V30 28 1 3 25
M  V30 29 1 3 26
M  V30 30 1 3 27
M  V30 31 1 7 28
M  V30 32 1 10 29
M  V30 33 1 10 30
M  V30 34 1 10 31
M  V30 35 1 11 32
M  V30 36 1 12 33
M  V30 37 1 12 34
M  V30 38 1 14 35
M  V30 39 1 14 36
M  V30 40 1 15 37
M  V30 41 1 15 38
M  V30 42 1 16 39
M  V30 43 1 17 40
M  V30 44 1 18 41
M  V30 45 1 18 42
M  V30 46 1 19 43
M  V30 47 1 20 44
M  V30 48 1 20 45
M  V30 49 1 22 46
M  V30 50 1 22 47
M  V30 51 1 23 48
M  V30 52 1 24 49
M  V30 53 1 24 50
M  V30 54 1 24 51
M  V30 END BOND
M  V30 BEGIN COLLECTION
M  V30 MDLV30/STEABS ATOMS=(4 9 13 16 19)
M  V30 END COLLECTION
M  V30 END CTAB
M  END
>  <NO.>
2066

>  <Name>
drotebanol

>  <SMILES>
COc1ccc2c(c1OC)[C@]13CCN(C)[C@H](C2)[C@]1(O)CC[C@@H](O)C3

>  <logBB>


>  <Class>
1

>  <MW>
333.19

>  <nHBAcc>
5

>  <nHBDon>
2

>  <SLogP>
1.48

>  <TopoPSA>
62.16

>  <MMFF94 Energy>
115.84

$$$$
COc1ccc2c3c1OC1C(O)C=CC4C(C2)NCCC341
Actelion Java MolfileCreator 2.0

  0  0  0  0  0  0              0 V3000
M  V30 BEGIN CTAB
M  V30 COUNTS 40 44 0 0 0
M  V30 BEGIN ATOM
M  V30 1 O -1.381 -1.2184 1.2997 0
M  V30 2 C -0.6531 -0.0522 1.3325 0
M  V30 3 C -1.1824 -1.7348 -0.067 0
M  V30 4 C -0.7642 0.9627 2.2657 0
M  V30 5 C 0.1973 0.0568 0.2531 0
M  V30 6 C 0.1626 -1.1844 -0.5794 0
M  V30 7 C -2.4154 -1.3819 -0.9518 0
M  V30 8 O -1.6257 0.7497 3.3015 0
M  V30 9 C -0.0045 2.1208 2.0408 0
M  V30 10 C 0.8995 1.2131 -0.0331 0
M  V30 11 C 0.2574 -0.796 -2.0608 0
M  V30 12 C 1.3537 -2.0936 -0.2161 0
M  V30 13 O -3.5313 -0.9543 -0.1715 0
M  V30 14 C -2.1911 -0.3595 -2.029 0
M  V30 15 C -1.7478 1.7901 4.2613 0
M  V30 16 C 0.8064 2.2536 0.8905 0
M  V30 17 C 1.6167 1.3208 -1.3533 0
M  V30 18 C -0.9837 -0.0899 -2.5494 0
M  V30 19 C 1.5806 0.0138 -2.2144 0
M  V30 20 C 2.7022 -1.464 -0.587 0
M  V30 21 N 2.722 -0.8915 -1.9352 0
M  V30 22 H -1.143 -2.8274 0.0281 0
M  V30 23 H -2.7356 -2.2979 -1.4636 0
M  V30 24 H -0.0452 2.9633 2.7244 0
M  V30 25 H 0.3411 -1.7046 -2.676 0
M  V30 26 H 1.3592 -2.3372 0.8541 0
M  V30 27 H 1.2483 -3.0463 -0.7522 0
M  V30 28 H -3.1754 -0.7226 0.7094 0
M  V30 29 H -3.0734 0.1349 -2.4281 0
M  V30 30 H -0.7925 1.9808 4.7615 0
M  V30 31 H -2.462 1.4614 5.0225 0
M  V30 32 H -2.1445 2.7033 3.8053 0
M  V30 33 H 1.3376 3.1874 0.7201 0
M  V30 34 H 1.1243 2.115 -1.9297 0
M  V30 35 H 2.6529 1.641 -1.1899 0
M  V30 36 H -0.8956 0.6165 -3.3705 0
M  V30 37 H 1.6905 0.3134 -3.2647 0
M  V30 38 H 3.4786 -2.2351 -0.5262 0
M  V30 39 H 2.9812 -0.701 0.1488 0
M  V30 40 H 3.5989 -0.3871 -2.0684 0
M  V30 END ATOM
M  V30 BEGIN BOND
M  V30 1 1 1 2
M  V30 2 1 1 3
M  V30 3 2 2 4
M  V30 4 1 2 5
M  V30 5 1 3 6
M  V30 6 1 3 7
M  V30 7 1 4 8
M  V30 8 1 4 9
M  V30 9 2 5 10
M  V30 10 1 6 11
M  V30 11 1 6 12
M  V30 12 1 7 13
M  V30 13 1 7 14
M  V30 14 1 8 15
M  V30 15 2 9 16
M  V30 16 1 10 17
M  V30 17 1 11 18
M  V30 18 1 11 19
M  V30 19 1 12 20
M  V30 20 1 19 21
M  V30 21 1 5 6
M  V30 22 1 10 16
M  V30 23 2 14 18
M  V30 24 1 17 19
M  V30 25 1 20 21
M  V30 26 1 3 22
M  V30 27 1 7 23
M  V30 28 1 9 24
M  V30 29 1 11 25
M  V30 30 1 12 26
M  V30 31 1 12 27
M  V30 32 1 13 28
M  V30 33 1 14 29
M  V30 34 1 15 30
M  V30 35 1 15 31
M  V30 36 1 15 32
M  V30 37 1 16 33
M  V30 38 1 17 34
M  V30 39 1 17 35
M  V30 40 1 18 36
M  V30 41 1 19 37
M  V30 42 1 20 38
M  V30 43 1 20 39
M  V30 44 1 21 40
M  V30 END BOND
M  V30 END CTAB
M  END
>  <NO.>
2067

>  <Name>
n-norcodeine

>  <SMILES>
COc1ccc2c3c1OC1C(O)C=CC4C(C2)NCCC341

>  <logBB>


>  <Class>
1

>  <MW>
285.14

>  <nHBAcc>
4

>  <nHBDon>
2

>  <SLogP>
1.16

>  <TopoPSA>
50.72

>  <MMFF94 Energy>
105.45

$$$$
COc1ccc2c3c1OC1C(OC(=O)c4cccnc4)CCC4C(C2)N(C)CCC341
Actelion Java MolfileCreator 2.0

  0  0  0  0  0  0              0 V3000
M  V30 BEGIN CTAB
M  V30 COUNTS 56 61 0 0 0
M  V30 BEGIN ATOM
M  V30 1 O -1.1348 2.0271 3.3261 0
M  V30 2 C -1.5283 1.2337 2.4872 0
M  V30 3 O -0.8505 0.1588 2.0143 0
M  V30 4 C -2.8504 1.3242 1.8316 0
M  V30 5 C 0.5359 0.0411 2.4091 0
M  V30 6 C -3.6224 2.4572 2.0518 0
M  V30 7 C -3.3682 0.3361 0.9892 0
M  V30 8 C 1.5012 0.6316 1.3337 0
M  V30 9 C 0.7778 -1.4527 2.6483 0
M  V30 10 N -4.8482 2.6583 1.5015 0
M  V30 11 C -4.6241 0.516 0.4124 0
M  V30 12 O 0.9281 1.8506 0.7455 0
M  V30 13 C 1.8321 -0.3049 0.156 0
M  V30 14 C 0.6947 -2.2563 1.3451 0
M  V30 15 C -5.3196 1.6806 0.6977 0
M  V30 16 C 0.2864 1.3851 -0.3872 0
M  V30 17 C 0.7033 0.1091 -0.718 0
M  V30 18 C 1.8131 -1.812 0.4008 0
M  V30 19 C 3.1647 0.044 -0.5466 0
M  V30 20 C -0.7202 2.011 -1.0971 0
M  V30 21 C 0.1107 -0.6562 -1.7011 0
M  V30 22 C 1.8003 -2.4953 -0.9963 0
M  V30 23 C 3.3618 -0.7649 -1.8418 0
M  V30 24 O -1.0711 3.264 -0.6911 0
M  V30 25 C -1.308 1.2791 -2.1424 0
M  V30 26 C -0.9092 -0.0492 -2.431 0
M  V30 27 C 0.5495 -2.0893 -1.8615 0
M  V30 28 N 3.0581 -2.2026 -1.7377 0
M  V30 29 C -2.1781 3.8686 -1.3448 0
M  V30 30 C 4.2038 -2.9552 -1.2283 0
M  V30 31 H 0.697 0.571 3.3558 0
M  V30 32 H -3.2703 3.2653 2.6893 0
M  V30 33 H -2.8036 -0.5658 0.7708 0
M  V30 34 H 2.4318 0.9138 1.8429 0
M  V30 35 H 0.0217 -1.8405 3.3417 0
M  V30 36 H 1.7587 -1.6007 3.1157 0
M  V30 37 H -5.0486 -0.2344 -0.245 0
M  V30 38 H -0.2948 -2.1412 0.8898 0
M  V30 39 H 0.812 -3.3229 1.5713 0
M  V30 40 H -6.3028 1.8645 0.2732 0
M  V30 41 H 2.7408 -2.0878 0.9213 0
M  V30 42 H 3.2239 1.1131 -0.7886 0
M  V30 43 H 3.9973 -0.1635 0.1382 0
M  V30 44 H 1.7367 -3.5841 -0.8672 0
M  V30 45 H 2.7305 -0.3392 -2.6313 0
M  V30 46 H 4.3854 -0.6137 -2.2083 0
M  V30 47 H -2.1053 1.704 -2.7447 0
M  V30 48 H -1.4125 -0.5948 -3.226 0
M  V30 49 H -0.2915 -2.7249 -1.5553 0
M  V30 50 H 0.7405 -2.3029 -2.9204 0
M  V30 51 H -1.9582 4.0489 -2.4021 0
M  V30 52 H -2.3581 4.8385 -0.8712 0
M  V30 53 H -3.0863 3.2683 -1.2288 0
M  V30 54 H 4.5238 -2.6323 -0.2329 0
M  V30 55 H 3.9786 -4.0266 -1.1885 0
M  V30 56 H 5.058 -2.8472 -1.9063 0
M  V30 END ATOM
M  V30 BEGIN BOND
M  V30 1 2 1 2
M  V30 2 1 2 3
M  V30 3 1 2 4
M  V30 4 1 3 5
M  V30 5 2 4 6
M  V30 6 1 4 7
M  V30 7 1 5 8
M  V30 8 1 5 9
M  V30 9 1 6 10
M  V30 10 2 7 11
M  V30 11 1 8 12
M  V30 12 1 8 13
M  V30 13 1 9 14
M  V30 14 2 10 15
M  V30 15 1 12 16
M  V30 16 1 13 17
M  V30 17 1 13 18
M  V30 18 1 13 19
M  V30 19 1 16 20
M  V30 20 1 17 21
M  V30 21 1 18 22
M  V30 22 1 19 23
M  V30 23 1 20 24
M  V30 24 2 20 25
M  V30 25 2 21 26
M  V30 26 1 21 27
M  V30 27 1 22 28
M  V30 28 1 24 29
M  V30 29 1 28 30
M  V30 30 1 11 15
M  V30 31 1 14 18
M  V30 32 2 16 17
M  V30 33 1 22 27
M  V30 34 1 23 28
M  V30 35 1 25 26
M  V30 36 1 5 31
M  V30 37 1 6 32
M  V30 38 1 7 33
M  V30 39 1 8 34
M  V30 40 1 9 35
M  V30 41 1 9 36
M  V30 42 1 11 37
M  V30 43 1 14 38
M  V30 44 1 14 39
M  V30 45 1 15 40
M  V30 46 1 18 41
M  V30 47 1 19 42
M  V30 48 1 19 43
M  V30 49 1 22 44
M  V30 50 1 23 45
M  V30 51 1 23 46
M  V30 52 1 25 47
M  V30 53 1 26 48
M  V30 54 1 27 49
M  V30 55 1 27 50
M  V30 56 1 29 51
M  V30 57 1 29 52
M  V30 58 1 29 53
M  V30 59 1 30 54
M  V30 60 1 30 55
M  V30 61 1 30 56
M  V30 END BOND
M  V30 END CTAB
M  END
>  <NO.>
2068

>  <Name>
morphinan-6-ol, 4,5-epoxy-3-methoxy-17-methyl-, 3-pyridinecarboxylate (ester), (5.alpha.,6.alpha.)-

>  <SMILES>
COc1ccc2c3c1OC1C(OC(=O)c4cccnc4)CCC4C(C2)N(C)CCC341

>  <logBB>


>  <Class>
1

>  <MW>
406.19

>  <nHBAcc>
6

>  <nHBDon>
0

>  <SLogP>
2.98

>  <TopoPSA>
60.89

>  <MMFF94 Energy>
122.68

$$$$
COc1ccc2c3c1OC1C(OC(C)=O)=CCC4C(C2)N(C)CCC314
Actelion Java MolfileCreator 2.0

  0  0  0  0  0  0              0 V3000
M  V30 BEGIN CTAB
M  V30 COUNTS 48 52 0 0 0
M  V30 BEGIN ATOM
M  V30 1 O -2.1039 -3.4002 -0.8897 0
M  V30 2 C -1.8593 -3.2047 -2.0732 0
M  V30 3 O -1.5925 -2.0038 -2.6853 0
M  V30 4 C -1.8319 -4.2912 -3.1066 0
M  V30 5 C -1.4641 -0.9019 -1.8176 0
M  V30 6 C -2.5099 -0.411 -1.1288 0
M  V30 7 C -0.0684 -0.3102 -1.7677 0
M  V30 8 C -2.4093 0.7437 -0.1746 0
M  V30 9 O 0.882 -1.3463 -1.3462 0
M  V30 10 C 0.0809 0.87 -0.7916 0
M  V30 11 C -1.19 1.6459 -0.435 0
M  V30 12 C 1.0333 -1.1328 0.0069 0
M  V30 13 C 0.5356 0.0961 0.3946 0
M  V30 14 C 1.1812 1.8578 -1.2296 0
M  V30 15 C -0.8272 2.5669 0.7692 0
M  V30 16 C 1.551 -2.0144 0.9362 0
M  V30 17 C 0.4152 0.4879 1.7132 0
M  V30 18 C 1.4057 2.9779 -0.2038 0
M  V30 19 N 0.1413 3.5686 0.2518 0
M  V30 20 C -0.3427 1.7528 2.029 0
M  V30 21 O 2.0473 -3.1917 0.4588 0
M  V30 22 C 1.5071 -1.6165 2.2831 0
M  V30 23 C 0.9268 -0.3849 2.6711 0
M  V30 24 C 0.3787 4.6715 1.179 0
M  V30 25 C 2.405 -4.1722 1.4219 0
M  V30 26 H -2.6242 -4.1246 -3.8406 0
M  V30 27 H -0.8537 -4.3156 -3.5934 0
M  V30 28 H -2.0006 -5.257 -2.6217 0
M  V30 29 H -3.479 -0.8975 -1.2059 0
M  V30 30 H 0.2072 -0.0103 -2.7864 0
M  V30 31 H -3.3156 1.3554 -0.2657 0
M  V30 32 H -2.4156 0.3418 0.844 0
M  V30 33 H -1.4612 2.278 -1.2954 0
M  V30 34 H 0.8883 2.3117 -2.186 0
M  V30 35 H 2.1345 1.3441 -1.4084 0
M  V30 36 H -1.7349 3.1143 1.057 0
M  V30 37 H 2.0196 3.7508 -0.683 0
M  V30 38 H 1.9933 2.6009 0.642 0
M  V30 39 H -1.2373 1.4618 2.5954 0
M  V30 40 H 0.2544 2.3779 2.7001 0
M  V30 41 H 1.8932 -2.2569 3.07 0
M  V30 42 H 0.8653 -0.137 3.7283 0
M  V30 43 H 0.936 4.3676 2.0705 0
M  V30 44 H 0.9486 5.4653 0.683 0
M  V30 45 H -0.5672 5.1225 1.4979 0
M  V30 46 H 3.2597 -3.8409 2.0206 0
M  V30 47 H 2.7071 -5.0756 0.8835 0
M  V30 48 H 1.5537 -4.4338 2.0593 0
M  V30 END ATOM
M  V30 BEGIN BOND
M  V30 1 2 1 2
M  V30 2 1 2 3
M  V30 3 1 2 4
M  V30 4 1 3 5
M  V30 5 2 5 6
M  V30 6 1 5 7
M  V30 7 1 6 8
M  V30 8 1 7 9
M  V30 9 1 7 10
M  V30 10 1 8 11
M  V30 11 1 9 12
M  V30 12 1 10 13
M  V30 13 1 10 14
M  V30 14 1 11 15
M  V30 15 1 12 16
M  V30 16 1 13 17
M  V30 17 1 14 18
M  V30 18 1 15 19
M  V30 19 1 15 20
M  V30 20 1 16 21
M  V30 21 2 16 22
M  V30 22 2 17 23
M  V30 23 1 19 24
M  V30 24 1 21 25
M  V30 25 1 10 11
M  V30 26 2 12 13
M  V30 27 1 17 20
M  V30 28 1 18 19
M  V30 29 1 22 23
M  V30 30 1 4 26
M  V30 31 1 4 27
M  V30 32 1 4 28
M  V30 33 1 6 29
M  V30 34 1 7 30
M  V30 35 1 8 31
M  V30 36 1 8 32
M  V30 37 1 11 33
M  V30 38 1 14 34
M  V30 39 1 14 35
M  V30 40 1 15 36
M  V30 41 1 18 37
M  V30 42 1 18 38
M  V30 43 1 20 39
M  V30 44 1 20 40
M  V30 45 1 22 41
M  V30 46 1 23 42
M  V30 47 1 24 43
M  V30 48 1 24 44
M  V30 49 1 24 45
M  V30 50 1 25 46
M  V30 51 1 25 47
M  V30 52 1 25 48
M  V30 END BOND
M  V30 END CTAB
M  END
>  <NO.>
2069

>  <Name>
thebacon

>  <SMILES>
COc1ccc2c3c1OC1C(OC(C)=O)=CCC4C(C2)N(C)CCC314

>  <logBB>


>  <Class>
1

>  <MW>
341.16

>  <nHBAcc>
5

>  <nHBDon>
0

>  <SLogP>
2.42

>  <TopoPSA>
48

>  <MMFF94 Energy>
99.23

$$$$
COc1cccc(C(=O)NC2C[C@@H]3CC[C@H](C2)N3Cc2ccccc2)c1OC
Actelion Java MolfileCreator 2.0

  0  0  0  0  0  0              0 V3000
M  V30 BEGIN CTAB
M  V30 COUNTS 56 59 0 0 0
M  V30 BEGIN ATOM
M  V30 1 O 3.2665 -0.3183 0.6367 0
M  V30 2 C 2.5183 0.3959 -0.0152 0
M  V30 3 N 1.2591 0.0162 -0.438 0
M  V30 4 C 2.9137 1.7645 -0.419 0
M  V30 5 C 0.6972 -1.283 -0.0927 0
M  V30 6 C 3.312 2.7141 0.5308 0
M  V30 7 C 2.8797 2.1 -1.7783 0
M  V30 8 C 0.1325 -1.2778 1.3384 0
M  V30 9 C -0.3489 -1.7216 -1.1292 0
M  V30 10 O 3.3703 2.38 1.8619 0
M  V30 11 C 3.7106 3.9984 0.1194 0
M  V30 12 C 3.2509 3.3799 -2.185 0
M  V30 13 C -0.793 -2.4778 1.6084 0 CFG=1
M  V30 14 C -1.2292 -2.8789 -0.6222 0 CFG=2
M  V30 15 C 2.164 2.7516 2.5254 0
M  V30 16 O 4.0991 4.8621 1.1111 0
M  V30 17 C 3.6639 4.3249 -1.2408 0
M  V30 18 N -1.8963 -2.5579 0.6447 0
M  V30 19 C -0.0928 -3.8098 1.3124 0
M  V30 20 C -0.382 -4.0765 -0.1709 0
M  V30 21 C 4.7849 6.0413 0.7124 0
M  V30 22 C -2.8163 -1.4236 0.6448 0
M  V30 23 C -4.0351 -1.6559 -0.224 0
M  V30 24 C -4.3317 -0.7927 -1.2886 0
M  V30 25 C -4.8953 -2.7344 0.0319 0
M  V30 26 C -5.4616 -1.0069 -2.0806 0
M  V30 27 C -6.0237 -2.9474 -0.7608 0
M  V30 28 C -6.3066 -2.0833 -1.8164 0
M  V30 29 H 0.6724 0.6957 -0.9043 0
M  V30 30 H 1.5265 -2.0015 -0.1254 0
M  V30 31 H 2.5891 1.3613 -2.5213 0
M  V30 32 H 0.9634 -1.289 2.0555 0
M  V30 33 H -0.4065 -0.3412 1.5287 0
M  V30 34 H -0.9819 -0.8725 -1.415 0
M  V30 35 H 0.1663 -2.026 -2.0493 0
M  V30 36 H 3.2316 3.6419 -3.2404 0
M  V30 37 H -1.1533 -2.4535 2.6426 0
M  V30 38 H -1.933 -3.1872 -1.4024 0
M  V30 39 H 2.0188 3.8369 2.5161 0
M  V30 40 H 2.243 2.4308 3.5683 0
M  V30 41 H 1.2958 2.2505 2.0831 0
M  V30 42 H 3.9442 5.3105 -1.5988 0
M  V30 43 H 0.9813 -3.7835 1.5223 0
M  V30 44 H -0.5284 -4.6157 1.916 0
M  V30 45 H 0.5376 -4.1923 -0.7532 0
M  V30 46 H -0.9534 -5.0083 -0.2654 0
M  V30 47 H 5.6526 5.8079 0.0864 0
M  V30 48 H 5.1506 6.5371 1.6167 0
M  V30 49 H 4.1062 6.7344 0.2054 0
M  V30 50 H -3.1852 -1.2585 1.6659 0
M  V30 51 H -2.3283 -0.4877 0.3513 0
M  V30 52 H -3.6843 0.0518 -1.5092 0
M  V30 53 H -4.6765 -3.4181 0.8498 0
M  V30 54 H -5.6832 -0.3336 -2.9042 0
M  V30 55 H -6.679 -3.7893 -0.5547 0
M  V30 56 H -7.185 -2.25 -2.4338 0
M  V30 END ATOM
M  V30 BEGIN BOND
M  V30 1 2 1 2
M  V30 2 1 2 3
M  V30 3 1 2 4
M  V30 4 1 3 5
M  V30 5 2 4 6
M  V30 6 1 4 7
M  V30 7 1 5 8
M  V30 8 1 5 9
M  V30 9 1 6 10
M  V30 10 1 6 11
M  V30 11 2 7 12
M  V30 12 1 8 13
M  V30 13 1 9 14
M  V30 14 1 10 15
M  V30 15 1 11 16
M  V30 16 2 11 17
M  V30 17 1 13 18
M  V30 18 1 13 19
M  V30 19 1 14 20
M  V30 20 1 16 21
M  V30 21 1 18 22
M  V30 22 1 22 23
M  V30 23 2 23 24
M  V30 24 1 23 25
M  V30 25 1 24 26
M  V30 26 2 25 27
M  V30 27 2 26 28
M  V30 28 1 12 17
M  V30 29 1 14 18
M  V30 30 1 19 20
M  V30 31 1 27 28
M  V30 32 1 3 29
M  V30 33 1 5 30
M  V30 34 1 7 31
M  V30 35 1 8 32
M  V30 36 1 8 33
M  V30 37 1 9 34
M  V30 38 1 9 35
M  V30 39 1 12 36
M  V30 40 1 13 37
M  V30 41 1 14 38
M  V30 42 1 15 39
M  V30 43 1 15 40
M  V30 44 1 15 41
M  V30 45 1 17 42
M  V30 46 1 19 43
M  V30 47 1 19 44
M  V30 48 1 20 45
M  V30 49 1 20 46
M  V30 50 1 21 47
M  V30 51 1 21 48
M  V30 52 1 21 49
M  V30 53 1 22 50
M  V30 54 1 22 51
M  V30 55 1 24 52
M  V30 56 1 25 53
M  V30 57 1 26 54
M  V30 58 1 27 55
M  V30 59 1 28 56
M  V30 END BOND
M  V30 BEGIN COLLECTION
M  V30 MDLV30/STEABS ATOMS=(2 13 14)
M  V30 END COLLECTION
M  V30 END CTAB
M  END
>  <NO.>
2070

>  <Name>
tropapride

>  <SMILES>
COc1cccc(C(=O)NC2C[C@@H]3CC[C@H](C2)N3Cc2ccccc2)c1OC

>  <logBB>


>  <Class>
1

>  <MW>
380.21

>  <nHBAcc>
4

>  <nHBDon>
1

>  <SLogP>
3.63

>  <TopoPSA>
50.8

>  <MMFF94 Energy>
74.389

$$$$
COc1cccc(CC(=O)N2CCN(C(C)=O)C[C@@H]2CN2CC[C@@H](O)C2)c1
Actelion Java MolfileCreator 2.0

  0  0  0  0  0  0              0 V3000
M  V30 BEGIN CTAB
M  V30 COUNTS 56 58 0 0 0
M  V30 BEGIN ATOM
M  V30 1 O 1.8235 1.1097 -1.5855 0
M  V30 2 C 0.8231 1.5598 -1.0187 0
M  V30 3 N 0.1905 0.8573 -8.0E-4 0
M  V30 4 C 0.2673 2.9141 -1.4377 0
M  V30 5 C 0.7433 -0.4704 0.3833 0 CFG=2
M  V30 6 C -0.8769 1.3962 0.8629 0
M  V30 7 C -1.0233 2.8425 -2.2233 0
M  V30 8 C -0.3776 -1.4728 0.7538 0
M  V30 9 C 1.7982 -0.315 1.5141 0
M  V30 10 C -1.9608 0.3567 1.1675 0
M  V30 11 C -1.2176 1.876 -3.2225 0
M  V30 12 C -2.0335 3.7868 -1.999 0
M  V30 13 N -1.359 -0.8775 1.6672 0
M  V30 14 N 2.4852 -1.5607 1.8926 0
M  V30 15 C -2.4065 1.8218 -3.958 0
M  V30 16 C -3.2208 3.7382 -2.7296 0
M  V30 17 C -1.6628 -1.3278 2.9378 0
M  V30 18 C 3.3831 -2.0659 0.8362 0
M  V30 19 C 3.3625 -1.3607 3.0565 0
M  V30 20 O -2.4583 0.8173 -4.8849 0
M  V30 21 C -3.4101 2.7553 -3.7038 0
M  V30 22 O -2.4189 -0.7146 3.6922 0
M  V30 23 C -1.0247 -2.6158 3.3898 0
M  V30 24 C 4.1825 -3.1148 1.6059 0 CFG=1
M  V30 25 C 4.3943 -2.4859 2.9779 0
M  V30 26 C -3.6325 0.7374 -5.6828 0
M  V30 27 O 3.4014 -4.3044 1.7532 0
M  V30 28 H 1.0187 3.41 -2.0653 0
M  V30 29 H 0.1587 3.5397 -0.5443 0
M  V30 30 H 1.2544 -0.883 -0.4945 0
M  V30 31 H -1.3414 2.2815 0.4297 0
M  V30 32 H -0.3921 1.714 1.7936 0
M  V30 33 H -0.9327 -1.7375 -0.1552 0
M  V30 34 H 0.0386 -2.4022 1.1465 0
M  V30 35 H 1.2902 0.0807 2.4034 0
M  V30 36 H 2.5314 0.4484 1.2203 0
M  V30 37 H -2.6823 0.7695 1.8792 0
M  V30 38 H -2.5073 0.1034 0.2511 0
M  V30 39 H -0.4366 1.1495 -3.4439 0
M  V30 40 H -1.9049 4.5682 -1.2527 0
M  V30 41 H -4.0016 4.472 -2.5438 0
M  V30 42 H 4.0438 -1.2778 0.4552 0
M  V30 43 H 2.819 -2.5144 0.0131 0
M  V30 44 H 3.8801 -0.3934 3.0172 0
M  V30 45 H 2.7931 -1.4054 3.9906 0
M  V30 46 H -4.3474 2.7515 -4.2498 0
M  V30 47 H -1.2667 -3.4236 2.6942 0
M  V30 48 H 0.0578 -2.4919 3.4688 0
M  V30 49 H -1.4134 -2.8875 4.376 0
M  V30 50 H 5.1216 -3.3816 1.1138 0
M  V30 51 H 4.2561 -3.2103 3.7876 0
M  V30 52 H 5.4014 -2.0612 3.0545 0
M  V30 53 H -4.5147 0.5339 -5.0667 0
M  V30 54 H -3.5097 -0.1009 -6.3751 0
M  V30 55 H -3.7673 1.6454 -6.2799 0
M  V30 56 H 2.5297 -4.0013 2.0721 0
M  V30 END ATOM
M  V30 BEGIN BOND
M  V30 1 2 1 2
M  V30 2 1 2 3
M  V30 3 1 2 4
M  V30 4 1 3 5
M  V30 5 1 3 6
M  V30 6 1 4 7
M  V30 7 1 5 8
M  V30 8 1 5 9
M  V30 9 1 6 10
M  V30 10 2 7 11
M  V30 11 1 7 12
M  V30 12 1 8 13
M  V30 13 1 9 14
M  V30 14 1 11 15
M  V30 15 2 12 16
M  V30 16 1 13 17
M  V30 17 1 14 18
M  V30 18 1 14 19
M  V30 19 1 15 20
M  V30 20 2 15 21
M  V30 21 2 17 22
M  V30 22 1 17 23
M  V30 23 1 18 24
M  V30 24 1 19 25
M  V30 25 1 20 26
M  V30 26 1 24 27
M  V30 27 1 10 13
M  V30 28 1 16 21
M  V30 29 1 24 25
M  V30 30 1 4 28
M  V30 31 1 4 29
M  V30 32 1 5 30
M  V30 33 1 6 31
M  V30 34 1 6 32
M  V30 35 1 8 33
M  V30 36 1 8 34
M  V30 37 1 9 35
M  V30 38 1 9 36
M  V30 39 1 10 37
M  V30 40 1 10 38
M  V30 41 1 11 39
M  V30 42 1 12 40
M  V30 43 1 16 41
M  V30 44 1 18 42
M  V30 45 1 18 43
M  V30 46 1 19 44
M  V30 47 1 19 45
M  V30 48 1 21 46
M  V30 49 1 23 47
M  V30 50 1 23 48
M  V30 51 1 23 49
M  V30 52 1 24 50
M  V30 53 1 25 51
M  V30 54 1 25 52
M  V30 55 1 26 53
M  V30 56 1 26 54
M  V30 57 1 26 55
M  V30 58 1 27 56
M  V30 END BOND
M  V30 BEGIN COLLECTION
M  V30 MDLV30/STEABS ATOMS=(2 5 24)
M  V30 END COLLECTION
M  V30 END CTAB
M  END
>  <NO.>
2071

>  <Name>
chembl71421

>  <SMILES>
COc1cccc(CC(=O)N2CCN(C(C)=O)C[C@@H]2CN2CC[C@@H](O)C2)c1

>  <logBB>


>  <Class>
-1

>  <MW>
375.22

>  <nHBAcc>
5

>  <nHBDon>
1

>  <SLogP>
0.36

>  <TopoPSA>
73.32

>  <MMFF94 Energy>
101.14

$$$$
COc1cccc(OC)c1C(=O)N[C@@H]1C(=O)N2[C@@H](C(=O)O)C(C)(C)S[C@H]12
Actelion Java MolfileCreator 2.0

  0  0  0  0  0  0              0 V3000
M  V30 BEGIN CTAB
M  V30 COUNTS 46 48 0 0 0
M  V30 BEGIN ATOM
M  V30 1 S -0.4054 -0.4054 2.6783 0
M  V30 2 C -1.8293 0.8009 2.738 0
M  V30 3 C -1.298 -1.6295 1.6275 0 CFG=1
M  V30 4 C -3.0577 0.0793 2.1367 0 CFG=1
M  V30 5 C -2.0034 1.2699 4.1868 0
M  V30 6 C -1.4351 2.009 1.8718 0
M  V30 7 N -2.5318 -0.9463 1.259 0
M  V30 8 C -0.9316 -1.6625 0.1184 0 CFG=1
M  V30 9 C -3.9493 -0.598 3.172 0
M  V30 10 C -2.2118 -0.7846 -0.0508 0
M  V30 11 N 0.3414 -1.0056 -0.27 0
M  V30 12 O -3.8021 -1.7039 3.6685 0
M  V30 13 O -4.9752 0.1871 3.5658 0
M  V30 14 O -2.716 -0.0796 -0.8932 0
M  V30 15 C 0.9261 -1.2191 -1.4978 0
M  V30 16 O 0.5002 -2.0279 -2.3137 0
M  V30 17 C 2.105 -0.3718 -1.8002 0
M  V30 18 C 2.0661 1.0163 -1.5943 0
M  V30 19 C 3.271 -0.9468 -2.3222 0
M  V30 20 O 0.9654 1.6493 -1.0725 0
M  V30 21 C 3.1908 1.8052 -1.8521 0
M  V30 22 O 3.3845 -2.304 -2.4776 0
M  V30 23 C 4.3953 -0.1556 -2.583 0
M  V30 24 C 0.0338 1.9634 -2.1138 0
M  V30 25 C 4.3531 1.2193 -2.3516 0
M  V30 26 C 3.2222 -2.6641 -3.8508 0
M  V30 27 H -1.4636 -2.6048 2.0937 0
M  V30 28 H -3.678 0.7596 1.5404 0
M  V30 29 H -2.1828 0.4379 4.8768 0
M  V30 30 H -1.1153 1.8038 4.5461 0
M  V30 31 H -2.8493 1.9621 4.2706 0
M  V30 32 H -2.2373 2.7565 1.8692 0
M  V30 33 H -0.5329 2.5041 2.2507 0
M  V30 34 H -1.2491 1.7317 0.8298 0
M  V30 35 H -1.0388 -2.6587 -0.3268 0
M  V30 36 H 0.7417 -0.2922 0.3345 0
M  V30 37 H -5.4661 -0.3657 4.2114 0
M  V30 38 H 3.1609 2.8748 -1.6598 0
M  V30 39 H 5.3111 -0.6152 -2.9458 0
M  V30 40 H 0.4844 2.6357 -2.8523 0
M  V30 41 H -0.8147 2.4813 -1.6571 0
M  V30 42 H -0.3438 1.06 -2.6033 0
M  V30 43 H 5.2305 1.8309 -2.5475 0
M  V30 44 H 2.3428 -2.1898 -4.301 0
M  V30 45 H 3.086 -3.7485 -3.8989 0
M  V30 46 H 4.1211 -2.4088 -4.4219 0
M  V30 END ATOM
M  V30 BEGIN BOND
M  V30 1 1 1 2
M  V30 2 1 1 3
M  V30 3 1 2 4
M  V30 4 1 2 5
M  V30 5 1 2 6
M  V30 6 1 3 7
M  V30 7 1 3 8
M  V30 8 1 4 9
M  V30 9 1 7 10
M  V30 10 1 8 11
M  V30 11 2 9 12
M  V30 12 1 9 13
M  V30 13 2 10 14
M  V30 14 1 11 15
M  V30 15 2 15 16
M  V30 16 1 15 17
M  V30 17 2 17 18
M  V30 18 1 17 19
M  V30 19 1 18 20
M  V30 20 1 18 21
M  V30 21 1 19 22
M  V30 22 2 19 23
M  V30 23 1 20 24
M  V30 24 2 21 25
M  V30 25 1 22 26
M  V30 26 1 4 7
M  V30 27 1 8 10
M  V30 28 1 23 25
M  V30 29 1 3 27
M  V30 30 1 4 28
M  V30 31 1 5 29
M  V30 32 1 5 30
M  V30 33 1 5 31
M  V30 34 1 6 32
M  V30 35 1 6 33
M  V30 36 1 6 34
M  V30 37 1 8 35
M  V30 38 1 11 36
M  V30 39 1 13 37
M  V30 40 1 21 38
M  V30 41 1 23 39
M  V30 42 1 24 40
M  V30 43 1 24 41
M  V30 44 1 24 42
M  V30 45 1 25 43
M  V30 46 1 26 44
M  V30 47 1 26 45
M  V30 48 1 26 46
M  V30 END BOND
M  V30 BEGIN COLLECTION
M  V30 MDLV30/STEABS ATOMS=(3 3 4 8)
M  V30 END COLLECTION
M  V30 END CTAB
M  END
>  <NO.>
2072

>  <Name>
methicillin

>  <SMILES>
COc1cccc(OC)c1C(=O)N[C@@H]1C(=O)N2[C@@H](C(=O)O)C(C)(C)S[C@H]12

>  <logBB>


>  <Class>
-1

>  <MW>
380.1

>  <nHBAcc>
6

>  <nHBDon>
2

>  <SLogP>
0.95

>  <TopoPSA>
105.17

>  <MMFF94 Energy>
74.692

$$$$
COc1cccc2c1C(=O)c1c(O)c3c(c(O)c1C2=O)CC(O)(C(=O)CO)CC3O
Actelion Java MolfileCreator 2.0

  0  0  0  0  0  0              0 V3000
M  V30 BEGIN CTAB
M  V30 COUNTS 48 51 0 0 0
M  V30 BEGIN ATOM
M  V30 1 O 2.6743 0.8098 -2.3498 0
M  V30 2 C 1.8444 -0.0767 -2.1973 0
M  V30 3 C 0.9166 -0.0697 -1.0348 0
M  V30 4 C 1.8283 -1.2399 -3.1159 0
M  V30 5 C 0.5864 1.1089 -0.3465 0
M  V30 6 C 0.4026 -1.2809 -0.5783 0
M  V30 7 C 2.3682 -1.1888 -4.4094 0
M  V30 8 C 1.3004 -2.4465 -2.6575 0
M  V30 9 O 1.0381 2.3118 -0.8209 0
M  V30 10 C -0.2278 1.0962 0.8088 0
M  V30 11 C 0.685 -2.5231 -1.3223 0
M  V30 12 C -0.3952 -1.314 0.5776 0
M  V30 13 O 2.803 -0.0136 -4.962 0
M  V30 14 C 2.3678 -2.3255 -5.2264 0
M  V30 15 C 1.3262 -3.5941 -3.4638 0
M  V30 16 C -0.7237 -0.1384 1.2738 0
M  V30 17 C -0.6477 2.3894 1.4825 0
M  V30 18 O 0.362 -3.6062 -0.8418 0
M  V30 19 O -0.8979 -2.4904 1.0777 0
M  V30 20 C 4.2281 0.0721 -4.9101 0
M  V30 21 C 1.861 -3.5315 -4.7485 0
M  V30 22 C -1.5479 -0.2353 2.5451 0
M  V30 23 O 0.4516 3.3086 1.4848 0
M  V30 24 C -1.1257 2.2027 2.9206 0
M  V30 25 C -2.1728 1.0955 3.0024 0
M  V30 26 O -3.275 1.439 2.1546 0
M  V30 27 C -2.6859 0.9783 4.4506 0
M  V30 28 O -2.3235 0.0835 5.2201 0
M  V30 29 C -3.6883 2.0281 4.9251 0
M  V30 30 O -3.8474 1.9945 6.3371 0
M  V30 31 H 1.097 2.9242 -0.0561 0
M  V30 32 H 2.7536 -2.2646 -6.2413 0
M  V30 33 H 0.9176 -4.535 -3.0986 0
M  V30 34 H -1.444 2.8384 0.876 0
M  V30 35 H -0.5456 -3.2367 0.5399 0
M  V30 36 H 4.6231 -0.1895 -3.922 0
M  V30 37 H 4.5101 1.1066 -5.1272 0
M  V30 38 H 4.6762 -0.5703 -5.6753 0
M  V30 39 H 1.8674 -4.4155 -5.3818 0
M  V30 40 H -2.354 -0.9657 2.3988 0
M  V30 41 H -0.8792 -0.6296 3.3213 0
M  V30 42 H 0.1418 4.123 1.9224 0
M  V30 43 H -0.2768 1.9812 3.5822 0
M  V30 44 H -1.5294 3.1603 3.2726 0
M  V30 45 H -3.7816 0.6268 1.9628 0
M  V30 46 H -3.349 3.0288 4.6515 0
M  V30 47 H -4.6585 1.827 4.4633 0
M  V30 48 H -3.6353 1.081 6.6171 0
M  V30 END ATOM
M  V30 BEGIN BOND
M  V30 1 2 1 2
M  V30 2 1 2 3
M  V30 3 1 2 4
M  V30 4 2 3 5
M  V30 5 1 3 6
M  V30 6 2 4 7
M  V30 7 1 4 8
M  V30 8 1 5 9
M  V30 9 1 5 10
M  V30 10 1 6 11
M  V30 11 2 6 12
M  V30 12 1 7 13
M  V30 13 1 7 14
M  V30 14 2 8 15
M  V30 15 2 10 16
M  V30 16 1 10 17
M  V30 17 2 11 18
M  V30 18 1 12 19
M  V30 19 1 13 20
M  V30 20 2 14 21
M  V30 21 1 16 22
M  V30 22 1 17 23
M  V30 23 1 17 24
M  V30 24 1 22 25
M  V30 25 1 25 26
M  V30 26 1 25 27
M  V30 27 2 27 28
M  V30 28 1 27 29
M  V30 29 1 29 30
M  V30 30 1 8 11
M  V30 31 1 12 16
M  V30 32 1 15 21
M  V30 33 1 24 25
M  V30 34 1 9 31
M  V30 35 1 14 32
M  V30 36 1 15 33
M  V30 37 1 17 34
M  V30 38 1 19 35
M  V30 39 1 20 36
M  V30 40 1 20 37
M  V30 41 1 20 38
M  V30 42 1 21 39
M  V30 43 1 22 40
M  V30 44 1 22 41
M  V30 45 1 23 42
M  V30 46 1 24 43
M  V30 47 1 24 44
M  V30 48 1 26 45
M  V30 49 1 29 46
M  V30 50 1 29 47
M  V30 51 1 30 48
M  V30 END BOND
M  V30 END CTAB
M  END
>  <NO.>
2073

>  <Name>
adriamycinol-aglycone

>  <SMILES>
COc1cccc2c1C(=O)c1c(O)c3c(c(O)c1C2=O)CC(O)(C(=O)CO)CC3O

>  <logBB>


>  <Class>
-1

>  <MW>
414.1

>  <nHBAcc>
9

>  <nHBDon>
5

>  <SLogP>
0.15

>  <TopoPSA>
161.59

>  <MMFF94 Energy>
120.13

$$$$
COc1ccccc1N1CCN(CC(O)COc2cc(OC)c(OC)c(OC)c2)CC1
Actelion Java MolfileCreator 2.0

  0  0  0  0  0  0              0 V3000
M  V30 BEGIN CTAB
M  V30 COUNTS 63 65 0 0 0
M  V30 BEGIN ATOM
M  V30 1 O 2.6069 -0.8683 0.7104 0
M  V30 2 C 2.1908 -0.1147 1.7754 0
M  V30 3 C 3.6763 -0.2905 -0.0531 0
M  V30 4 C 0.8115 -0.1015 2.0009 0
M  V30 5 C 3.0599 0.5592 2.636 0
M  V30 6 C 3.6519 -0.8704 -1.4787 0 CFG=1
M  V30 7 C 0.277 0.6189 3.0681 0
M  V30 8 C 2.5474 1.2829 3.7153 0
M  V30 9 O 3.6125 -2.2996 -1.4217 0
M  V30 10 C 2.5136 -0.3079 -2.3694 0
M  V30 11 O -1.0578 0.7034 3.3687 0
M  V30 12 C 1.1543 1.3259 3.9082 0
M  V30 13 O 3.3065 1.9875 4.6147 0
M  V30 14 N 1.1498 -0.4534 -1.8288 0
M  V30 15 C -1.9589 -0.0487 2.5667 0
M  V30 16 O 0.6484 2.0084 4.9938 0
M  V30 17 C 4.7089 1.7603 4.6032 0
M  V30 18 C 0.2598 0.6157 -2.3391 0
M  V30 19 C 0.5437 -1.7578 -2.185 0
M  V30 20 C 0.3313 3.3467 4.6161 0
M  V30 21 C -1.1722 0.5279 -1.7652 0
M  V30 22 C -0.8738 -1.9305 -1.5914 0
M  V30 23 N -1.7492 -0.8139 -1.9742 0
M  V30 24 C -3.1328 -0.9163 -1.812 0
M  V30 25 C -4.04 -0.1899 -2.6167 0
M  V30 26 C -3.6947 -1.7342 -0.8157 0
M  V30 27 O -3.6408 0.6034 -3.6694 0
M  V30 28 C -5.4205 -0.2232 -2.3859 0
M  V30 29 C -5.0774 -1.792 -0.5998 0
M  V30 30 C -3.1098 -0.1943 -4.7284 0
M  V30 31 C -5.9398 -1.0284 -1.3783 0
M  V30 32 H 4.6184 -0.5803 0.4268 0
M  V30 33 H 3.6075 0.8038 -0.0955 0
M  V30 34 H 0.1818 -0.6549 1.3137 0
M  V30 35 H 4.1269 0.4994 2.4642 0
M  V30 36 H 4.5979 -0.6063 -1.9661 0
M  V30 37 H 2.9741 -2.502 -0.7096 0
M  V30 38 H 2.5748 -0.7569 -3.3692 0
M  V30 39 H 2.7362 0.76 -2.4963 0
M  V30 40 H -1.9594 0.3114 1.5339 0
M  V30 41 H -2.9661 0.0973 2.9689 0
M  V30 42 H -1.7347 -1.1194 2.6136 0
M  V30 43 H 4.9426 0.6981 4.7312 0
M  V30 44 H 5.1421 2.3007 5.4504 0
M  V30 45 H 5.1616 2.158 3.6893 0
M  V30 46 H 0.6676 1.5955 -2.0617 0
M  V30 47 H 0.2132 0.578 -3.4357 0
M  V30 48 H 0.4873 -1.8635 -3.2769 0
M  V30 49 H 1.154 -2.5841 -1.8119 0
M  V30 50 H 1.2208 3.8865 4.2732 0
M  V30 51 H -0.0544 3.8614 5.5012 0
M  V30 52 H -0.4469 3.3719 3.8457 0
M  V30 53 H -1.7693 1.3174 -2.2324 0
M  V30 54 H -1.1441 0.7416 -0.6895 0
M  V30 55 H -0.799 -1.9927 -0.4989 0
M  V30 56 H -1.2847 -2.8784 -1.9598 0
M  V30 57 H -3.0595 -2.3233 -0.1612 0
M  V30 58 H -6.0858 0.3683 -3.0083 0
M  V30 59 H -5.4752 -2.4266 0.1879 0
M  V30 60 H -2.0486 -0.4024 -4.5674 0
M  V30 61 H -3.1958 0.3851 -5.6528 0
M  V30 62 H -3.6667 -1.1285 -4.8675 0
M  V30 63 H -7.0118 -1.0635 -1.2052 0
M  V30 END ATOM
M  V30 BEGIN BOND
M  V30 1 1 1 2
M  V30 2 1 1 3
M  V30 3 2 2 4
M  V30 4 1 2 5
M  V30 5 1 3 6
M  V30 6 1 4 7
M  V30 7 2 5 8
M  V30 8 1 6 9
M  V30 9 1 6 10
M  V30 10 1 7 11
M  V30 11 2 7 12
M  V30 12 1 8 13
M  V30 13 1 10 14
M  V30 14 1 11 15
M  V30 15 1 12 16
M  V30 16 1 13 17
M  V30 17 1 14 18
M  V30 18 1 14 19
M  V30 19 1 16 20
M  V30 20 1 18 21
M  V30 21 1 19 22
M  V30 22 1 21 23
M  V30 23 1 23 24
M  V30 24 2 24 25
M  V30 25 1 24 26
M  V30 26 1 25 27
M  V30 27 1 25 28
M  V30 28 2 26 29
M  V30 29 1 27 30
M  V30 30 2 28 31
M  V30 31 1 8 12
M  V30 32 1 22 23
M  V30 33 1 29 31
M  V30 34 1 3 32
M  V30 35 1 3 33
M  V30 36 1 4 34
M  V30 37 1 5 35
M  V30 38 1 6 36
M  V30 39 1 9 37
M  V30 40 1 10 38
M  V30 41 1 10 39
M  V30 42 1 15 40
M  V30 43 1 15 41
M  V30 44 1 15 42
M  V30 45 1 17 43
M  V30 46 1 17 44
M  V30 47 1 17 45
M  V30 48 1 18 46
M  V30 49 1 18 47
M  V30 50 1 19 48
M  V30 51 1 19 49
M  V30 52 1 20 50
M  V30 53 1 20 51
M  V30 54 1 20 52
M  V30 55 1 21 53
M  V30 56 1 21 54
M  V30 57 1 22 55
M  V30 58 1 22 56
M  V30 59 1 26 57
M  V30 60 1 28 58
M  V30 61 1 29 59
M  V30 62 1 30 60
M  V30 63 1 30 61
M  V30 64 1 30 62
M  V30 65 1 31 63
M  V30 END BOND
M  V30 BEGIN COLLECTION
M  V30 MDLV30/STERAC1 ATOMS=(1 6)
M  V30 END COLLECTION
M  V30 END CTAB
M  END
>  <NO.>
2079

>  <Name>
enciprazine

>  <SMILES>
COc1ccccc1N1CCN(CC(O)COc2cc(OC)c(OC)c(OC)c2)CC1

>  <logBB>


>  <Class>
1

>  <MW>
432.23

>  <nHBAcc>
8

>  <nHBDon>
1

>  <SLogP>
2.28

>  <TopoPSA>
72.86

>  <MMFF94 Energy>
214.72

$$$$
COc1ccccc1N1CCN(CCCC(=O)c2ccc(F)cc2)CC1
Actelion Java MolfileCreator 2.0

  0  0  0  0  0  0              0 V3000
M  V30 BEGIN CTAB
M  V30 COUNTS 51 53 0 0 0
M  V30 BEGIN ATOM
M  V30 1 F 6.217 2.5469 -1.1932 0
M  V30 2 C 5.6957 1.3692 -0.8275 0
M  V30 3 C 6.5202 0.2564 -0.7261 0
M  V30 4 C 4.3352 1.2772 -0.5568 0
M  V30 5 C 5.9737 -0.9709 -0.3449 0
M  V30 6 C 3.7845 0.0498 -0.175 0
M  V30 7 C 4.6022 -1.0837 -0.0625 0
M  V30 8 C 4.0739 -2.4256 0.3362 0
M  V30 9 O 4.8063 -3.4115 0.2574 0
M  V30 10 C 2.643 -2.5644 0.8092 0
M  V30 11 C 1.7285 -2.9215 -0.3604 0
M  V30 12 C 0.2468 -2.9031 0.0301 0
M  V30 13 N -0.2179 -1.5646 0.4308 0
M  V30 14 C -0.4223 -0.6812 -0.7461 0
M  V30 15 C -1.5095 -1.6707 1.1554 0
M  V30 16 C -0.9646 0.7178 -0.3701 0
M  V30 17 C -2.0731 -0.2988 1.5927 0
M  V30 18 N -2.1903 0.6022 0.4395 0
M  V30 19 C -3.0021 1.7348 0.5016 0
M  V30 20 C -3.5922 2.2999 -0.6517 0
M  V30 21 C -3.2608 2.3851 1.7203 0
M  V30 22 O -3.4663 1.7375 -1.9028 0
M  V30 23 C -4.3374 3.4837 -0.5961 0
M  V30 24 C -4.0288 3.5548 1.7849 0
M  V30 25 C -4.2377 0.5387 -1.9873 0
M  V30 26 C -4.5596 4.1094 0.6254 0
M  V30 27 H 7.5796 0.3477 -0.9438 0
M  V30 28 H 3.7112 2.1615 -0.6461 0
M  V30 29 H 6.6235 -1.8414 -0.2682 0
M  V30 30 H 2.7173 0.0084 0.0208 0
M  V30 31 H 2.618 -3.3605 1.5639 0
M  V30 32 H 2.3281 -1.6594 1.3359 0
M  V30 33 H 1.9132 -2.2593 -1.2135 0
M  V30 34 H 1.9837 -3.9297 -0.7119 0
M  V30 35 H -0.3592 -3.2984 -0.7949 0
M  V30 36 H 0.1243 -3.6018 0.8683 0
M  V30 37 H 0.5254 -0.5337 -1.274 0
M  V30 38 H -1.1202 -1.1505 -1.4525 0
M  V30 39 H -2.2536 -2.1775 0.5258 0
M  V30 40 H -1.3731 -2.2798 2.0571 0
M  V30 41 H -1.1231 1.2777 -1.2972 0
M  V30 42 H -0.2046 1.2616 0.2062 0
M  V30 43 H -1.4113 0.1418 2.3489 0
M  V30 44 H -3.0554 -0.4652 2.0515 0
M  V30 45 H -2.837 2.0088 2.6467 0
M  V30 46 H -4.7543 3.9024 -1.5075 0
M  V30 47 H -4.1969 4.0377 2.7442 0
M  V30 48 H -3.7138 -0.3033 -1.5264 0
M  V30 49 H -4.37 0.3051 -3.0481 0
M  V30 50 H -5.2337 0.6577 -1.5447 0
M  V30 51 H -5.1456 5.0229 0.6727 0
M  V30 END ATOM
M  V30 BEGIN BOND
M  V30 1 1 1 2
M  V30 2 2 2 3
M  V30 3 1 2 4
M  V30 4 1 3 5
M  V30 5 2 4 6
M  V30 6 2 5 7
M  V30 7 1 7 8
M  V30 8 2 8 9
M  V30 9 1 8 10
M  V30 10 1 10 11
M  V30 11 1 11 12
M  V30 12 1 12 13
M  V30 13 1 13 14
M  V30 14 1 13 15
M  V30 15 1 14 16
M  V30 16 1 15 17
M  V30 17 1 16 18
M  V30 18 1 18 19
M  V30 19 2 19 20
M  V30 20 1 19 21
M  V30 21 1 20 22
M  V30 22 1 20 23
M  V30 23 2 21 24
M  V30 24 1 22 25
M  V30 25 2 23 26
M  V30 26 1 6 7
M  V30 27 1 17 18
M  V30 28 1 24 26
M  V30 29 1 3 27
M  V30 30 1 4 28
M  V30 31 1 5 29
M  V30 32 1 6 30
M  V30 33 1 10 31
M  V30 34 1 10 32
M  V30 35 1 11 33
M  V30 36 1 11 34
M  V30 37 1 12 35
M  V30 38 1 12 36
M  V30 39 1 14 37
M  V30 40 1 14 38
M  V30 41 1 15 39
M  V30 42 1 15 40
M  V30 43 1 16 41
M  V30 44 1 16 42
M  V30 45 1 17 43
M  V30 46 1 17 44
M  V30 47 1 21 45
M  V30 48 1 23 46
M  V30 49 1 24 47
M  V30 50 1 25 48
M  V30 51 1 25 49
M  V30 52 1 25 50
M  V30 53 1 26 51
M  V30 END BOND
M  V30 END CTAB
M  END
>  <NO.>
2080

>  <Name>
fluanisone

>  <SMILES>
COc1ccccc1N1CCN(CCCC(=O)c2ccc(F)cc2)CC1

>  <logBB>


>  <Class>
1

>  <MW>
356.19

>  <nHBAcc>
4

>  <nHBDon>
0

>  <SLogP>
3.62

>  <TopoPSA>
32.78

>  <MMFF94 Energy>
149.05

$$$$
COc1ccccc1N1CCN(CCCC(O)c2ccc(F)cc2)CC1
Actelion Java MolfileCreator 2.0

  0  0  0  0  0  0              0 V3000
M  V30 BEGIN CTAB
M  V30 COUNTS 53 55 0 0 0
M  V30 BEGIN ATOM
M  V30 1 F -1.348 -6.5951 1.5861 0
M  V30 2 C -0.4022 -5.9087 0.9319 0
M  V30 3 C -0.751 -4.7659 0.2245 0
M  V30 4 C 0.9144 -6.3484 0.9735 0
M  V30 5 C 0.2345 -4.0499 -0.4569 0
M  V30 6 C 1.9016 -5.6331 0.2932 0
M  V30 7 C 1.5739 -4.4767 -0.436 0
M  V30 8 C 2.6684 -3.7099 -1.1535 0 CFG=1
M  V30 9 O 2.1728 -3.0477 -2.3127 0
M  V30 10 C 3.4341 -2.7257 -0.257 0
M  V30 11 C 2.6155 -1.6137 0.4172 0
M  V30 12 C 1.9979 -0.6071 -0.5618 0
M  V30 13 N 1.4403 0.5727 0.1268 0
M  V30 14 C 1.0791 1.6087 -0.8762 0
M  V30 15 C 0.2227 0.2363 0.9056 0
M  V30 16 C 0.4492 2.8733 -0.2508 0
M  V30 17 C -0.4343 1.4672 1.5759 0
M  V30 18 N -0.7071 2.512 0.5838 0
M  V30 19 C -1.6492 3.5101 0.8348 0
M  V30 20 C -2.4166 4.0907 -0.2094 0
M  V30 21 C -1.874 3.973 2.1438 0
M  V30 22 O -2.2133 3.5812 -1.4727 0
M  V30 23 C -3.3398 5.1085 0.0738 0
M  V30 24 C -2.8007 4.9813 2.4177 0
M  V30 25 C -3.0921 4.0038 -2.5041 0
M  V30 26 C -3.5297 5.5511 1.3827 0
M  V30 27 H -1.7852 -4.4366 0.2106 0
M  V30 28 H 1.1641 -7.2419 1.5365 0
M  V30 29 H -0.0495 -3.149 -0.9973 0
M  V30 30 H 2.9312 -5.9829 0.3372 0
M  V30 31 H 3.393 -4.4422 -1.5325 0
M  V30 32 H 1.6243 -3.6933 -2.7915 0
M  V30 33 H 3.9397 -3.2921 0.5357 0
M  V30 34 H 4.222 -2.25 -0.8551 0
M  V30 35 H 1.8452 -2.0648 1.0509 0
M  V30 36 H 3.2915 -1.0742 1.094 0
M  V30 37 H 2.7929 -0.2755 -1.2417 0
M  V30 38 H 1.224 -1.0805 -1.1742 0
M  V30 39 H 1.9803 1.9157 -1.4205 0
M  V30 40 H 0.3771 1.1918 -1.6114 0
M  V30 41 H -0.5178 -0.2478 0.2547 0
M  V30 42 H 0.47 -0.4712 1.7039 0
M  V30 43 H 0.1887 3.5624 -1.0607 0
M  V30 44 H 1.1941 3.3847 0.3726 0
M  V30 45 H 0.2314 1.8555 2.3568 0
M  V30 46 H -1.3648 1.1372 2.0539 0
M  V30 47 H -1.3038 3.5659 2.9737 0
M  V30 48 H -3.9305 5.5765 -0.7056 0
M  V30 49 H -2.9433 5.3226 3.4393 0
M  V30 50 H -4.1351 3.7804 -2.2564 0
M  V30 51 H -2.8394 3.4423 -3.4086 0
M  V30 52 H -2.9549 5.0669 -2.726 0
M  V30 53 H -4.2483 6.3389 1.5919 0
M  V30 END ATOM
M  V30 BEGIN BOND
M  V30 1 1 1 2
M  V30 2 2 2 3
M  V30 3 1 2 4
M  V30 4 1 3 5
M  V30 5 2 4 6
M  V30 6 2 5 7
M  V30 7 1 7 8
M  V30 8 1 8 9
M  V30 9 1 8 10
M  V30 10 1 10 11
M  V30 11 1 11 12
M  V30 12 1 12 13
M  V30 13 1 13 14
M  V30 14 1 13 15
M  V30 15 1 14 16
M  V30 16 1 15 17
M  V30 17 1 16 18
M  V30 18 1 18 19
M  V30 19 2 19 20
M  V30 20 1 19 21
M  V30 21 1 20 22
M  V30 22 1 20 23
M  V30 23 2 21 24
M  V30 24 1 22 25
M  V30 25 2 23 26
M  V30 26 1 6 7
M  V30 27 1 17 18
M  V30 28 1 24 26
M  V30 29 1 3 27
M  V30 30 1 4 28
M  V30 31 1 5 29
M  V30 32 1 6 30
M  V30 33 1 8 31
M  V30 34 1 9 32
M  V30 35 1 10 33
M  V30 36 1 10 34
M  V30 37 1 11 35
M  V30 38 1 11 36
M  V30 39 1 12 37
M  V30 40 1 12 38
M  V30 41 1 14 39
M  V30 42 1 14 40
M  V30 43 1 15 41
M  V30 44 1 15 42
M  V30 45 1 16 43
M  V30 46 1 16 44
M  V30 47 1 17 45
M  V30 48 1 17 46
M  V30 49 1 21 47
M  V30 50 1 23 48
M  V30 51 1 24 49
M  V30 52 1 25 50
M  V30 53 1 25 51
M  V30 54 1 25 52
M  V30 55 1 26 53
M  V30 END BOND
M  V30 BEGIN COLLECTION
M  V30 MDLV30/STERAC1 ATOMS=(1 8)
M  V30 END COLLECTION
M  V30 END CTAB
M  END
>  <NO.>
2081

>  <Name>
anisopirol

>  <SMILES>
COc1ccccc1N1CCN(CCCC(O)c2ccc(F)cc2)CC1

>  <logBB>


>  <Class>
1

>  <MW>
358.21

>  <nHBAcc>
4

>  <nHBDon>
1

>  <SLogP>
3.47

>  <TopoPSA>
35.94

>  <MMFF94 Energy>
140.35

$$$$
COc1ccccc1N1CCN(CCc2oc(=O)[nH]c2-c2ccc(F)cc2)CC1
Actelion Java MolfileCreator 2.0

  0  0  0  0  0  0              0 V3000
M  V30 BEGIN CTAB
M  V30 COUNTS 53 56 0 0 0
M  V30 BEGIN ATOM
M  V30 1 F 1.5972 -5.6789 0.958 0
M  V30 2 C 2.1455 -4.4928 0.6646 0
M  V30 3 C 2.9442 -4.3696 -0.4664 0
M  V30 4 C 1.9066 -3.4042 1.495 0
M  V30 5 C 3.5141 -3.1329 -0.776 0
M  V30 6 C 2.4769 -2.1675 1.1881 0
M  V30 7 C 3.2806 -2.0224 0.0477 0
M  V30 8 C 3.8714 -0.7316 -0.2682 0
M  V30 9 N 4.8016 -0.1603 0.5282 0
M  V30 10 C 3.6824 0.1152 -1.2823 0
M  V30 11 C 5.1871 1.0414 6.0E-4 0
M  V30 12 O 4.4989 1.2726 -1.1774 0
M  V30 13 C 2.7445 0.0856 -2.4516 0
M  V30 14 O 6.0125 1.7994 0.4852 0
M  V30 15 C 1.3325 -0.4852 -2.212 0
M  V30 16 N 0.6356 0.0575 -1.0342 0
M  V30 17 C 0.3004 1.4929 -1.1898 0
M  V30 18 C -0.6198 -0.6966 -0.7914 0
M  V30 19 C -0.4687 2.0693 0.0237 0
M  V30 20 C -1.4058 -0.1818 0.4346 0
M  V30 21 N -1.659 1.262 0.3127 0
M  V30 22 C -2.7174 1.7887 1.0545 0
M  V30 23 C -4.0612 1.3935 0.8212 0
M  V30 24 C -2.4839 2.742 2.0621 0
M  V30 25 O -4.2663 0.4992 -0.2061 0
M  V30 26 C -5.0998 1.9242 1.6013 0
M  V30 27 C -3.5249 3.2719 2.8279 0
M  V30 28 C -5.6052 0.2634 -0.6155 0
M  V30 29 C -4.831 2.8596 2.6003 0
M  V30 30 H 3.1182 -5.235 -1.0977 0
M  V30 31 H 1.2764 -3.5223 2.3707 0
M  V30 32 H 4.142 -3.0417 -1.6595 0
M  V30 33 H 2.2742 -1.3115 1.8289 0
M  V30 34 H 5.1763 -0.5368 1.3839 0
M  V30 35 H 2.6368 1.1085 -2.8352 0
M  V30 36 H 3.2215 -0.4815 -3.2607 0
M  V30 37 H 0.7332 -0.3257 -3.1187 0
M  V30 38 H 1.4249 -1.5725 -2.1056 0
M  V30 39 H 1.2156 2.0835 -1.3056 0
M  V30 40 H -0.3032 1.6412 -2.0953 0
M  V30 41 H -1.2677 -0.6443 -1.677 0
M  V30 42 H -0.3833 -1.7537 -0.6203 0
M  V30 43 H -0.7512 3.1026 -0.2123 0
M  V30 44 H 0.1935 2.0873 0.8985 0
M  V30 45 H -0.8238 -0.3665 1.3472 0
M  V30 46 H -2.3256 -0.769 0.523 0
M  V30 47 H -1.4722 3.0698 2.2826 0
M  V30 48 H -6.1327 1.6293 1.4533 0
M  V30 49 H -3.3092 4.0003 3.6049 0
M  V30 50 H -6.1654 -0.2662 0.1616 0
M  V30 51 H -5.5751 -0.3819 -1.4987 0
M  V30 52 H -6.1058 1.1943 -0.9023 0
M  V30 53 H -5.6426 3.2663 3.1977 0
M  V30 END ATOM
M  V30 BEGIN BOND
M  V30 1 1 1 2
M  V30 2 2 2 3
M  V30 3 1 2 4
M  V30 4 1 3 5
M  V30 5 2 4 6
M  V30 6 2 5 7
M  V30 7 1 7 8
M  V30 8 1 8 9
M  V30 9 2 8 10
M  V30 10 1 9 11
M  V30 11 1 10 12
M  V30 12 1 10 13
M  V30 13 2 11 14
M  V30 14 1 13 15
M  V30 15 1 15 16
M  V30 16 1 16 17
M  V30 17 1 16 18
M  V30 18 1 17 19
M  V30 19 1 18 20
M  V30 20 1 19 21
M  V30 21 1 21 22
M  V30 22 2 22 23
M  V30 23 1 22 24
M  V30 24 1 23 25
M  V30 25 1 23 26
M  V30 26 2 24 27
M  V30 27 1 25 28
M  V30 28 2 26 29
M  V30 29 1 6 7
M  V30 30 1 11 12
M  V30 31 1 20 21
M  V30 32 1 27 29
M  V30 33 1 3 30
M  V30 34 1 4 31
M  V30 35 1 5 32
M  V30 36 1 6 33
M  V30 37 1 9 34
M  V30 38 1 13 35
M  V30 39 1 13 36
M  V30 40 1 15 37
M  V30 41 1 15 38
M  V30 42 1 17 39
M  V30 43 1 17 40
M  V30 44 1 18 41
M  V30 45 1 18 42
M  V30 46 1 19 43
M  V30 47 1 19 44
M  V30 48 1 20 45
M  V30 49 1 20 46
M  V30 50 1 24 47
M  V30 51 1 26 48
M  V30 52 1 27 49
M  V30 53 1 28 50
M  V30 54 1 28 51
M  V30 55 1 28 52
M  V30 56 1 29 53
M  V30 END BOND
M  V30 END CTAB
M  END
>  <NO.>
2082

>  <Name>
zoloperone

>  <SMILES>
COc1ccccc1N1CCN(CCc2oc(=O)[nH]c2-c2ccc(F)cc2)CC1

>  <logBB>


>  <Class>
1

>  <MW>
397.18

>  <nHBAcc>
5

>  <nHBDon>
1

>  <SLogP>
3.15

>  <TopoPSA>
61.71

>  <MMFF94 Energy>
137.36

$$$$
COc1ccccc1OCC(O)COC(N)=O
Actelion Java MolfileCreator 2.0

  0  0  0  0  0  0              0 V3000
M  V30 BEGIN CTAB
M  V30 COUNTS 32 32 0 0 0
M  V30 BEGIN ATOM
M  V30 1 O -4.6118 3.2813 -1.249 0
M  V30 2 C -4.491 2.3078 -1.9746 0
M  V30 3 O -3.5159 1.3773 -1.912 0
M  V30 4 N -5.3473 2.0075 -2.9747 0
M  V30 5 C -2.5257 1.6357 -0.9022 0
M  V30 6 C -1.4934 0.508 -0.9186 0 CFG=2
M  V30 7 O -0.7135 0.5883 -2.1237 0
M  V30 8 C -0.5517 0.6058 0.2859 0
M  V30 9 O 0.3348 -0.5148 0.2168 0
M  V30 10 C 1.3654 -0.5718 1.1211 0
M  V30 11 C 2.3312 -1.573 0.8917 0
M  V30 12 C 1.493 0.2731 2.2288 0
M  V30 13 O 2.1309 -2.3582 -0.2175 0
M  V30 14 C 3.411 -1.7036 1.772 0
M  V30 15 C 2.5746 0.1327 3.1002 0
M  V30 16 C 3.0695 -3.3956 -0.4641 0
M  V30 17 C 3.531 -0.852 2.8721 0
M  V30 18 H -6.1305 2.6166 -3.1531 0
M  V30 19 H -5.1782 1.1958 -3.5478 0
M  V30 20 H -3.0201 1.6787 0.0753 0
M  V30 21 H -2.0413 2.595 -1.1212 0
M  V30 22 H -1.9919 -0.4679 -0.9405 0
M  V30 23 H -0.005 -0.0778 -2.0218 0
M  V30 24 H 0.0261 1.5363 0.2258 0
M  V30 25 H -1.1299 0.5669 1.2161 0
M  V30 26 H 0.7653 1.0474 2.4462 0
M  V30 27 H 4.1778 -2.4573 1.6295 0
M  V30 28 H 2.6689 0.7926 3.9593 0
M  V30 29 H 4.068 -2.9877 -0.6528 0
M  V30 30 H 2.7518 -3.9259 -1.3671 0
M  V30 31 H 3.0848 -4.1191 0.3576 0
M  V30 32 H 4.3728 -0.9593 3.5518 0
M  V30 END ATOM
M  V30 BEGIN BOND
M  V30 1 2 1 2
M  V30 2 1 2 3
M  V30 3 1 2 4
M  V30 4 1 3 5
M  V30 5 1 5 6
M  V30 6 1 6 7
M  V30 7 1 6 8
M  V30 8 1 8 9
M  V30 9 1 9 10
M  V30 10 2 10 11
M  V30 11 1 10 12
M  V30 12 1 11 13
M  V30 13 1 11 14
M  V30 14 2 12 15
M  V30 15 1 13 16
M  V30 16 2 14 17
M  V30 17 1 15 17
M  V30 18 1 4 18
M  V30 19 1 4 19
M  V30 20 1 5 20
M  V30 21 1 5 21
M  V30 22 1 6 22
M  V30 23 1 7 23
M  V30 24 1 8 24
M  V30 25 1 8 25
M  V30 26 1 12 26
M  V30 27 1 14 27
M  V30 28 1 15 28
M  V30 29 1 16 29
M  V30 30 1 16 30
M  V30 31 1 16 31
M  V30 32 1 17 32
M  V30 END BOND
M  V30 BEGIN COLLECTION
M  V30 MDLV30/STERAC1 ATOMS=(1 6)
M  V30 END COLLECTION
M  V30 END CTAB
M  END
>  <NO.>
2083

>  <Name>
methocarbamol

>  <SMILES>
COc1ccccc1OCC(O)COC(N)=O

>  <logBB>


>  <Class>
1

>  <MW>
241.1

>  <nHBAcc>
5

>  <nHBDon>
2

>  <SLogP>
0.53

>  <TopoPSA>
91.01

>  <MMFF94 Energy>
-6.7807

$$$$
COc1ccccc1OCC1CNC(=O)O1
Actelion Java MolfileCreator 2.0

  0  0  0  0  0  0              0 V3000
M  V30 BEGIN CTAB
M  V30 COUNTS 29 30 0 0 0
M  V30 BEGIN ATOM
M  V30 1 O 1.7408 -4.9119 -1.2658 0
M  V30 2 C 1.2296 -4.0329 -0.5948 0
M  V30 3 O 1.892 -2.9564 -0.0813 0
M  V30 4 N -0.0882 -3.976 -0.2472 0
M  V30 5 C 0.9912 -2.2548 0.8004 0 CFG=2
M  V30 6 C -0.3868 -2.751 0.4095 0
M  V30 7 C 1.1803 -0.7452 0.6814 0
M  V30 8 O 0.7529 -0.2982 -0.6132 0
M  V30 9 C 0.5328 1.0559 -0.6091 0
M  V30 10 C -0.6653 1.5998 -0.1187 0
M  V30 11 C 1.5116 1.8657 -1.1861 0
M  V30 12 O -1.5736 0.7097 0.395 0
M  V30 13 C -0.8413 2.9853 -0.1741 0
M  V30 14 C 1.3214 3.2439 -1.2405 0
M  V30 15 C -2.8689 1.215 0.6936 0
M  V30 16 C 0.1497 3.8024 -0.7309 0
M  V30 17 H -0.7452 -4.6619 -0.5923 0
M  V30 18 H 1.2451 -2.5705 1.8199 0
M  V30 19 H -0.9094 -2.1105 -0.306 0
M  V30 20 H -1.0354 -2.9261 1.2719 0
M  V30 21 H 0.617 -0.2563 1.486 0
M  V30 22 H 2.2432 -0.4979 0.792 0
M  V30 23 H 2.4154 1.4203 -1.5921 0
M  V30 24 H -1.7373 3.4646 0.2058 0
M  V30 25 H 2.0825 3.8808 -1.684 0
M  V30 26 H -2.832 1.9129 1.5364 0
M  V30 27 H -3.4962 0.369 0.9908 0
M  V30 28 H -3.3295 1.6781 -0.1854 0
M  V30 29 H 0.002 4.8792 -0.7734 0
M  V30 END ATOM
M  V30 BEGIN BOND
M  V30 1 2 1 2
M  V30 2 1 2 3
M  V30 3 1 2 4
M  V30 4 1 3 5
M  V30 5 1 4 6
M  V30 6 1 5 7
M  V30 7 1 7 8
M  V30 8 1 8 9
M  V30 9 2 9 10
M  V30 10 1 9 11
M  V30 11 1 10 12
M  V30 12 1 10 13
M  V30 13 2 11 14
M  V30 14 1 12 15
M  V30 15 2 13 16
M  V30 16 1 5 6
M  V30 17 1 14 16
M  V30 18 1 4 17
M  V30 19 1 5 18
M  V30 20 1 6 19
M  V30 21 1 6 20
M  V30 22 1 7 21
M  V30 23 1 7 22
M  V30 24 1 11 23
M  V30 25 1 13 24
M  V30 26 1 14 25
M  V30 27 1 15 26
M  V30 28 1 15 27
M  V30 29 1 15 28
M  V30 30 1 16 29
M  V30 END BOND
M  V30 BEGIN COLLECTION
M  V30 MDLV30/STERAC1 ATOMS=(1 5)
M  V30 END COLLECTION
M  V30 END CTAB
M  END
>  <NO.>
2084

>  <Name>
mephenoxalone

>  <SMILES>
COc1ccccc1OCC1CNC(=O)O1

>  <logBB>


>  <Class>
1

>  <MW>
223.08

>  <nHBAcc>
4

>  <nHBDon>
1

>  <SLogP>
1.18

>  <TopoPSA>
56.79

>  <MMFF94 Energy>
7.6669

$$$$
COc1nc2nc(-c3noc(C)n3)cn2c2c1CCCC2
Actelion Java MolfileCreator 2.0

  0  0  0  0  0  0              0 V3000
M  V30 BEGIN CTAB
M  V30 COUNTS 36 39 0 0 0
M  V30 BEGIN ATOM
M  V30 1 O -1.1282 -4.6805 -3.2261 0
M  V30 2 N -0.2243 -3.6496 -2.9681 0
M  V30 3 C -2.1697 -4.5054 -2.3636 0
M  V30 4 C -0.8136 -2.9627 -1.9798 0
M  V30 5 N -2.0308 -3.4655 -1.5738 0
M  V30 6 C -3.2655 -5.4855 -2.447 0
M  V30 7 C -0.2614 -1.7654 -1.3392 0
M  V30 8 N 0.9483 -1.232 -1.7126 0
M  V30 9 C -0.8257 -1.027 -0.3227 0
M  V30 10 C 1.1359 -0.1799 -0.9427 0
M  V30 11 N 0.0601 -0.0129 -0.0676 0
M  V30 12 N 2.1913 0.6811 -0.9316 0
M  V30 13 C 0.0033 1.0292 0.8659 0
M  V30 14 C 2.1285 1.6358 -0.0614 0
M  V30 15 C 1.0378 1.8953 0.9262 0
M  V30 16 C -1.1967 1.1609 1.7685 0
M  V30 17 O 3.0993 2.5756 0.0609 0
M  V30 18 C 1.131 3.0296 1.9028 0
M  V30 19 C -1.2654 2.5106 2.491 0
M  V30 20 C 4.2125 2.4498 -0.8315 0
M  V30 21 C 0.1 2.9226 3.0295 0
M  V30 22 H -3.7147 -5.4751 -3.4444 0
M  V30 23 H -4.0473 -5.2544 -1.7174 0
M  V30 24 H -2.8945 -6.4942 -2.2428 0
M  V30 25 H -1.7541 -1.1491 0.2151 0
M  V30 26 H -2.124 1.0401 1.1959 0
M  V30 27 H -1.1656 0.3549 2.5124 0
M  V30 28 H 0.9801 3.9717 1.3614 0
M  V30 29 H 2.1281 3.0694 2.3563 0
M  V30 30 H -1.9909 2.452 3.3103 0
M  V30 31 H -1.6299 3.2798 1.798 0
M  V30 32 H 3.8827 2.5412 -1.8709 0
M  V30 33 H 4.9081 3.266 -0.6172 0
M  V30 34 H 4.7319 1.501 -0.6654 0
M  V30 35 H 0.4373 2.1839 3.7678 0
M  V30 36 H 0.0249 3.8829 3.5522 0
M  V30 END ATOM
M  V30 BEGIN BOND
M  V30 1 1 1 2
M  V30 2 1 1 3
M  V30 3 2 2 4
M  V30 4 2 3 5
M  V30 5 1 3 6
M  V30 6 1 4 7
M  V30 7 1 7 8
M  V30 8 2 7 9
M  V30 9 2 8 10
M  V30 10 1 9 11
M  V30 11 1 10 12
M  V30 12 1 11 13
M  V30 13 2 12 14
M  V30 14 2 13 15
M  V30 15 1 13 16
M  V30 16 1 14 17
M  V30 17 1 15 18
M  V30 18 1 16 19
M  V30 19 1 17 20
M  V30 20 1 18 21
M  V30 21 1 4 5
M  V30 22 1 10 11
M  V30 23 1 14 15
M  V30 24 1 19 21
M  V30 25 1 6 22
M  V30 26 1 6 23
M  V30 27 1 6 24
M  V30 28 1 9 25
M  V30 29 1 16 26
M  V30 30 1 16 27
M  V30 31 1 18 28
M  V30 32 1 18 29
M  V30 33 1 19 30
M  V30 34 1 19 31
M  V30 35 1 20 32
M  V30 36 1 20 33
M  V30 37 1 20 34
M  V30 38 1 21 35
M  V30 39 1 21 36
M  V30 END BOND
M  V30 END CTAB
M  END
>  <NO.>
2085

>  <Name>
taniplon

>  <SMILES>
COc1nc2nc(-c3noc(C)n3)cn2c2c1CCCC2

>  <logBB>


>  <Class>
1

>  <MW>
285.12

>  <nHBAcc>
6

>  <nHBDon>
0

>  <SLogP>
1.98

>  <TopoPSA>
78.34

>  <MMFF94 Energy>
38.198

$$$$
CP(C)(=O)CN1C(=O)CN=C(c2ccccc2)c2cc(Cl)ccc21
Actelion Java MolfileCreator 2.0

  0  0  0  0  0  0              0 V3000
M  V30 BEGIN CTAB
M  V30 COUNTS 42 44 0 0 0
M  V30 BEGIN ATOM
M  V30 1 Cl 2.383 -4.6056 -0.2463 0
M  V30 2 C 1.3993 -3.2009 -0.361 0
M  V30 3 C 1.3375 -2.309 0.703 0
M  V30 4 C 0.6666 -2.96 -1.5148 0
M  V30 5 C 0.5423 -1.1514 0.6102 0
M  V30 6 C -0.1426 -1.8224 -1.6014 0
M  V30 7 C 0.5337 -0.2407 1.7939 0
M  V30 8 C -0.2298 -0.9032 -0.5437 0
M  V30 9 N -0.5435 0.2298 2.3308 0
M  V30 10 C 1.8403 0.1438 2.4184 0
M  V30 11 N -1.0888 0.231 -0.6722 0
M  V30 12 C -1.8228 -0.0661 1.6849 0
M  V30 13 C 2.9922 0.3281 1.6426 0
M  V30 14 C 1.897 0.3526 3.8018 0
M  V30 15 C -1.873 0.7119 0.3767 0
M  V30 16 C -1.0604 1.015 -1.9082 0
M  V30 17 C 4.1952 0.689 2.2536 0
M  V30 18 C 3.1013 0.7135 4.408 0
M  V30 19 O -2.5622 1.7282 0.262 0
M  V30 20 P -2.4661 0.7165 -2.9781 0
M  V30 21 C 4.2496 0.8774 3.6345 0
M  V30 22 O -2.6383 -0.7138 -3.4137 0
M  V30 23 C -2.1474 1.7759 -4.3893 0
M  V30 24 C -3.9501 1.3952 -2.2718 0
M  V30 25 H 1.9013 -2.5216 1.6089 0
M  V30 26 H 0.7013 -3.6569 -2.349 0
M  V30 27 H -0.7214 -1.694 -2.5108 0
M  V30 28 H -1.9918 -1.1371 1.5305 0
M  V30 29 H -2.6344 0.2915 2.3276 0
M  V30 30 H 2.9686 0.2117 0.5629 0
M  V30 31 H 1.0035 0.235 4.4113 0
M  V30 32 H -1.0409 2.0795 -1.6467 0
M  V30 33 H -0.1288 0.8145 -2.4495 0
M  V30 34 H 5.0895 0.8318 1.6521 0
M  V30 35 H 3.1404 0.8722 5.4828 0
M  V30 36 H 5.186 1.1622 4.108 0
M  V30 37 H -2.0407 2.8177 -4.0742 0
M  V30 38 H -1.226 1.4708 -4.8929 0
M  V30 39 H -2.9711 1.7142 -5.1058 0
M  V30 40 H -3.8016 2.4312 -1.9553 0
M  V30 41 H -4.7565 1.3856 -3.0114 0
M  V30 42 H -4.2846 0.8048 -1.415 0
M  V30 END ATOM
M  V30 BEGIN BOND
M  V30 1 1 1 2
M  V30 2 2 2 3
M  V30 3 1 2 4
M  V30 4 1 3 5
M  V30 5 2 4 6
M  V30 6 1 5 7
M  V30 7 2 5 8
M  V30 8 2 7 9
M  V30 9 1 7 10
M  V30 10 1 8 11
M  V30 11 1 9 12
M  V30 12 2 10 13
M  V30 13 1 10 14
M  V30 14 1 11 15
M  V30 15 1 11 16
M  V30 16 1 13 17
M  V30 17 2 14 18
M  V30 18 2 15 19
M  V30 19 1 16 20
M  V30 20 2 17 21
M  V30 21 2 20 22
M  V30 22 1 20 23
M  V30 23 1 20 24
M  V30 24 1 6 8
M  V30 25 1 12 15
M  V30 26 1 18 21
M  V30 27 1 3 25
M  V30 28 1 4 26
M  V30 29 1 6 27
M  V30 30 1 12 28
M  V30 31 1 12 29
M  V30 32 1 13 30
M  V30 33 1 14 31
M  V30 34 1 16 32
M  V30 35 1 16 33
M  V30 36 1 17 34
M  V30 37 1 18 35
M  V30 38 1 21 36
M  V30 39 1 23 37
M  V30 40 1 23 38
M  V30 41 1 23 39
M  V30 42 1 24 40
M  V30 43 1 24 41
M  V30 44 1 24 42
M  V30 END BOND
M  V30 END CTAB
M  END
>  <NO.>
2086

>  <Name>
fosazepam

>  <SMILES>
CP(C)(=O)CN1C(=O)CN=C(c2ccccc2)c2cc(Cl)ccc21

>  <logBB>


>  <Class>
1

>  <MW>
360.08

>  <nHBAcc>
3

>  <nHBDon>
0

>  <SLogP>
4.1

>  <TopoPSA>
49.74

>  <MMFF94 Energy>
125.37

$$$$
CS(=O)(=O)c1ccc([C@@H](O)[C@@H](CF)NC(=O)C(Cl)Cl)cc1
Actelion Java MolfileCreator 2.0

  0  0  0  0  0  0              0 V3000
M  V30 BEGIN CTAB
M  V30 COUNTS 35 35 0 0 0
M  V30 BEGIN ATOM
M  V30 1 Cl -5.3262 1.2464 0.0 0
M  V30 2 C -4.3411 -0.2273 0.1131 0
M  V30 3 Cl -3.5644 -0.5771 -1.4469 0
M  V30 4 C -3.2788 -0.0235 1.1933 0
M  V30 5 O -3.3394 -0.5835 2.289 0
M  V30 6 N -2.2621 0.8596 0.8951 0
M  V30 7 C -1.1655 1.1518 1.826 0 CFG=1
M  V30 8 C 0.0716 1.696 1.0622 0 CFG=2
M  V30 9 C -1.6105 2.1689 2.8834 0
M  V30 10 O -0.3154 2.7662 0.1887 0
M  V30 11 C 0.7688 0.6095 0.2603 0
M  V30 12 F -1.7844 3.385 2.287 0
M  V30 13 C 1.7035 -0.2279 0.894 0
M  V30 14 C 0.4752 0.3885 -1.0959 0
M  V30 15 C 2.3362 -1.254 0.1892 0
M  V30 16 C 1.1006 -0.6377 -1.8058 0
M  V30 17 C 2.0385 -1.4446 -1.1608 0
M  V30 18 S 2.8307 -2.7531 -2.0636 0
M  V30 19 O 3.3945 -3.6764 -1.0966 0
M  V30 20 O 1.8979 -3.2133 -3.0743 0
M  V30 21 C 4.1725 -1.9284 -2.8794 0
M  V30 22 H -4.9862 -1.0692 0.379 0
M  V30 23 H -2.2633 1.3477 0.0024 0
M  V30 24 H -0.9109 0.2193 2.345 0
M  V30 25 H 0.7993 2.115 1.7685 0
M  V30 26 H -0.848 2.2893 3.6588 0
M  V30 27 H -2.5554 1.8893 3.358 0
M  V30 28 H -0.7967 3.4167 0.7392 0
M  V30 29 H 1.9425 -0.091 1.9471 0
M  V30 30 H -0.2498 1.0177 -1.6096 0
M  V30 31 H 3.0481 -1.8984 0.701 0
M  V30 32 H 0.8445 -0.8006 -2.8506 0
M  V30 33 H 4.8276 -1.484 -2.1276 0
M  V30 34 H 3.7702 -1.1629 -3.5455 0
M  V30 35 H 4.724 -2.6716 -3.4593 0
M  V30 END ATOM
M  V30 BEGIN BOND
M  V30 1 1 1 2
M  V30 2 1 2 3
M  V30 3 1 2 4
M  V30 4 2 4 5
M  V30 5 1 4 6
M  V30 6 1 6 7
M  V30 7 1 7 8
M  V30 8 1 7 9
M  V30 9 1 8 10
M  V30 10 1 8 11
M  V30 11 1 9 12
M  V30 12 2 11 13
M  V30 13 1 11 14
M  V30 14 1 13 15
M  V30 15 2 14 16
M  V30 16 2 15 17
M  V30 17 1 17 18
M  V30 18 2 18 19
M  V30 19 2 18 20
M  V30 20 1 18 21
M  V30 21 1 16 17
M  V30 22 1 2 22
M  V30 23 1 6 23
M  V30 24 1 7 24
M  V30 25 1 8 25
M  V30 26 1 9 26
M  V30 27 1 9 27
M  V30 28 1 10 28
M  V30 29 1 13 29
M  V30 30 1 14 30
M  V30 31 1 15 31
M  V30 32 1 16 32
M  V30 33 1 21 33
M  V30 34 1 21 34
M  V30 35 1 21 35
M  V30 END BOND
M  V30 BEGIN COLLECTION
M  V30 MDLV30/STEABS ATOMS=(2 7 8)
M  V30 END COLLECTION
M  V30 END CTAB
M  END
>  <NO.>
2087

>  <Name>
florfenicol

>  <SMILES>
CS(=O)(=O)c1ccc([C@@H](O)[C@@H](CF)NC(=O)C(Cl)Cl)cc1

>  <logBB>


>  <Class>
1

>  <MW>
357

>  <nHBAcc>
4

>  <nHBDon>
2

>  <SLogP>
1.38

>  <TopoPSA>
83.47

>  <MMFF94 Energy>
111.15

$$$$
CS(=O)(=O)c1ccc([C@@H](O)[C@@H](CO)NC(=O)C(Cl)Cl)cc1
Actelion Java MolfileCreator 2.0

  0  0  0  0  0  0              0 V3000
M  V30 BEGIN CTAB
M  V30 COUNTS 36 36 0 0 0
M  V30 BEGIN ATOM
M  V30 1 Cl -0.7433 -5.129 -1.4044 0
M  V30 2 C -1.6029 -3.8648 -0.4972 0
M  V30 3 Cl -0.7683 -3.526 1.0352 0
M  V30 4 C -1.6616 -2.6054 -1.3622 0
M  V30 5 O -2.6853 -2.2713 -1.9602 0
M  V30 6 N -0.4871 -1.8934 -1.4849 0
M  V30 7 C -0.3761 -0.6567 -2.2669 0 CFG=1
M  V30 8 C 0.7976 0.2247 -1.7523 0 CFG=2
M  V30 9 C -0.2253 -0.9959 -3.7612 0
M  V30 10 O 2.0331 -0.4945 -1.8726 0
M  V30 11 C 0.5948 0.6658 -0.3087 0
M  V30 12 O 0.0426 0.1707 -4.532 0
M  V30 13 C -0.312 1.7028 -0.0258 0
M  V30 14 C 1.2631 0.0447 0.7601 0
M  V30 15 C -0.5431 2.1124 1.2888 0
M  V30 16 C 1.0352 0.447 2.0775 0
M  V30 17 C 0.1422 1.4886 2.3322 0
M  V30 18 S -0.1527 1.9978 4.008 0
M  V30 19 O -1.4311 2.6832 4.0418 0
M  V30 20 O 0.1008 0.8558 4.8655 0
M  V30 21 C 1.1207 3.1985 4.2953 0
M  V30 22 H -2.6159 -4.2102 -0.2733 0
M  V30 23 H 0.3466 -2.2134 -0.9987 0
M  V30 24 H -1.3109 -0.094 -2.1438 0
M  V30 25 H 0.897 1.1345 -2.3576 0
M  V30 26 H -1.1437 -1.4585 -4.1393 0
M  V30 27 H 0.594 -1.7053 -3.922 0
M  V30 28 H 2.3279 -0.3638 -2.7919 0
M  V30 29 H -0.0802 -0.0767 -5.4667 0
M  V30 30 H -0.8543 2.1934 -0.8328 0
M  V30 31 H 1.9645 -0.7663 0.5721 0
M  V30 32 H -1.2604 2.9065 1.4863 0
M  V30 33 H 1.5503 -0.0609 2.8901 0
M  V30 34 H 1.0035 4.0197 3.5856 0
M  V30 35 H 2.0953 2.7207 4.1792 0
M  V30 36 H 1.0102 3.5717 5.3158 0
M  V30 END ATOM
M  V30 BEGIN BOND
M  V30 1 1 1 2
M  V30 2 1 2 3
M  V30 3 1 2 4
M  V30 4 2 4 5
M  V30 5 1 4 6
M  V30 6 1 6 7
M  V30 7 1 7 8
M  V30 8 1 7 9
M  V30 9 1 8 10
M  V30 10 1 8 11
M  V30 11 1 9 12
M  V30 12 2 11 13
M  V30 13 1 11 14
M  V30 14 1 13 15
M  V30 15 2 14 16
M  V30 16 2 15 17
M  V30 17 1 17 18
M  V30 18 2 18 19
M  V30 19 2 18 20
M  V30 20 1 18 21
M  V30 21 1 16 17
M  V30 22 1 2 22
M  V30 23 1 6 23
M  V30 24 1 7 24
M  V30 25 1 8 25
M  V30 26 1 9 26
M  V30 27 1 9 27
M  V30 28 1 10 28
M  V30 29 1 12 29
M  V30 30 1 13 30
M  V30 31 1 14 31
M  V30 32 1 15 32
M  V30 33 1 16 33
M  V30 34 1 21 34
M  V30 35 1 21 35
M  V30 36 1 21 36
M  V30 END BOND
M  V30 BEGIN COLLECTION
M  V30 MDLV30/STEABS ATOMS=(2 7 8)
M  V30 END COLLECTION
M  V30 END CTAB
M  END
>  <NO.>
2088

>  <Name>
thiamphenicol

>  <SMILES>
CS(=O)(=O)c1ccc([C@@H](O)[C@@H](CO)NC(=O)C(Cl)Cl)cc1

>  <logBB>


>  <Class>
1

>  <MW>
355

>  <nHBAcc>
5

>  <nHBDon>
3

>  <SLogP>
0.4

>  <TopoPSA>
103.7

>  <MMFF94 Energy>
121.47

$$$$
CS(=O)(=O)c1ccc2c(c1)N(CCCN1CCC(C(N)=O)CC1)c1ccccc1S2
Actelion Java MolfileCreator 2.0

  0  0  0  0  0  0              0 V3000
M  V30 BEGIN CTAB
M  V30 COUNTS 57 60 0 0 0
M  V30 BEGIN ATOM
M  V30 1 S -0.163 -4.1627 -2.4471 0
M  V30 2 O -0.2934 -5.5782 -2.7324 0
M  V30 3 O -1.337 -3.3281 -2.2692 0
M  V30 4 C 0.8346 -4.0049 -0.9855 0
M  V30 5 C 0.8446 -3.4283 -3.7088 0
M  V30 6 C 0.606 -2.9401 -0.1032 0
M  V30 7 C 1.8126 -4.9514 -0.7201 0
M  V30 8 C 1.3723 -2.7616 1.0695 0
M  V30 9 C 2.5911 -4.796 0.4205 0
M  V30 10 N 1.1455 -1.6739 1.962 0
M  V30 11 C 2.39 -3.7112 1.3008 0
M  V30 12 C 2.0125 -1.2811 3.0229 0
M  V30 13 C -0.1534 -0.9673 1.8534 0
M  V30 14 S 3.4837 -3.659 2.6994 0
M  V30 15 C 3.0928 -2.0886 3.4335 0
M  V30 16 C 1.8534 -0.0577 3.7133 0
M  V30 17 C -0.0799 0.2315 0.8958 0
M  V30 18 C 3.9363 -1.6919 4.4909 0
M  V30 19 C 2.6977 0.3351 4.7594 0
M  V30 20 C -1.4724 0.8472 0.7088 0
M  V30 21 C 3.74 -0.4858 5.1527 0
M  V30 22 N -1.4566 2.0747 -0.1072 0
M  V30 23 C -1.1652 1.7919 -1.5224 0
M  V30 24 C -2.7407 2.781 0.0257 0
M  V30 25 C -1.1158 3.0763 -2.3484 0
M  V30 26 C -2.7446 4.0976 -0.75 0
M  V30 27 C -2.4174 3.8707 -2.2273 0
M  V30 28 C -2.3253 5.1925 -2.9739 0
M  V30 29 O -1.3061 5.6288 -3.4954 0
M  V30 30 N -3.495 5.8891 -3.0634 0
M  V30 31 H 1.7772 -3.989 -3.7936 0
M  V30 32 H 1.0397 -2.3865 -3.447 0
M  V30 33 H 0.2955 -3.4773 -4.6515 0
M  V30 34 H -0.1826 -2.243 -0.3665 0
M  V30 35 H 1.9766 -5.7999 -1.3798 0
M  V30 36 H 3.3665 -5.5321 0.6285 0
M  V30 37 H -0.5124 -0.644 2.8394 0
M  V30 38 H -0.9441 -1.6604 1.5366 0
M  V30 39 H 1.0716 0.6471 3.4502 0
M  V30 40 H 0.3331 -0.085 -0.0661 0
M  V30 41 H 0.6086 0.9902 1.2842 0
M  V30 42 H 4.7611 -2.3296 4.8031 0
M  V30 43 H 2.5352 1.2875 5.258 0
M  V30 44 H -2.1597 0.1061 0.2802 0
M  V30 45 H -1.8543 1.0921 1.7089 0
M  V30 46 H 4.4001 -0.1905 5.9632 0
M  V30 47 H -1.9147 1.1098 -1.9448 0
M  V30 48 H -0.1897 1.3061 -1.6256 0
M  V30 49 H -3.5696 2.1482 -0.3183 0
M  V30 50 H -2.928 3.015 1.081 0
M  V30 51 H -0.2654 3.6876 -2.017 0
M  V30 52 H -0.9267 2.8273 -3.3999 0
M  V30 53 H -3.727 4.5727 -0.6419 0
M  V30 54 H -2.017 4.7909 -0.307 0
M  V30 55 H -3.2277 3.2903 -2.6893 0
M  V30 56 H -4.3694 5.5661 -2.6761 0
M  V30 57 H -3.4756 6.7716 -3.5581 0
M  V30 END ATOM
M  V30 BEGIN BOND
M  V30 1 2 1 2
M  V30 2 2 1 3
M  V30 3 1 1 4
M  V30 4 1 1 5
M  V30 5 2 4 6
M  V30 6 1 4 7
M  V30 7 1 6 8
M  V30 8 2 7 9
M  V30 9 1 8 10
M  V30 10 2 8 11
M  V30 11 1 10 12
M  V30 12 1 10 13
M  V30 13 1 11 14
M  V30 14 2 12 15
M  V30 15 1 12 16
M  V30 16 1 13 17
M  V30 17 1 15 18
M  V30 18 2 16 19
M  V30 19 1 17 20
M  V30 20 2 18 21
M  V30 21 1 20 22
M  V30 22 1 22 23
M  V30 23 1 22 24
M  V30 24 1 23 25
M  V30 25 1 24 26
M  V30 26 1 25 27
M  V30 27 1 27 28
M  V30 28 2 28 29
M  V30 29 1 28 30
M  V30 30 1 9 11
M  V30 31 1 14 15
M  V30 32 1 19 21
M  V30 33 1 26 27
M  V30 34 1 5 31
M  V30 35 1 5 32
M  V30 36 1 5 33
M  V30 37 1 6 34
M  V30 38 1 7 35
M  V30 39 1 9 36
M  V30 40 1 13 37
M  V30 41 1 13 38
M  V30 42 1 16 39
M  V30 43 1 17 40
M  V30 44 1 17 41
M  V30 45 1 18 42
M  V30 46 1 19 43
M  V30 47 1 20 44
M  V30 48 1 20 45
M  V30 49 1 21 46
M  V30 50 1 23 47
M  V30 51 1 23 48
M  V30 52 1 24 49
M  V30 53 1 24 50
M  V30 54 1 25 51
M  V30 55 1 25 52
M  V30 56 1 26 53
M  V30 57 1 26 54
M  V30 58 1 27 55
M  V30 59 1 30 56
M  V30 60 1 30 57
M  V30 END BOND
M  V30 END CTAB
M  END
>  <NO.>
2089

>  <Name>
metopimazine

>  <SMILES>
CS(=O)(=O)c1ccc2c(c1)N(CCCN1CCC(C(N)=O)CC1)c1ccccc1S2

>  <logBB>


>  <Class>
1

>  <MW>
445.15

>  <nHBAcc>
6

>  <nHBDon>
1

>  <SLogP>
3.28

>  <TopoPSA>
83.71

>  <MMFF94 Energy>
54.034

$$$$
CSC(=O)C1(O)C(C)CC2C3CCC4=CC(=O)C=CC4(C)C3(F)C(O)CC21C
Actelion Java MolfileCreator 2.0

  0  0  0  0  0  0              0 V3000
M  V30 BEGIN CTAB
M  V30 COUNTS 57 60 0 0 0
M  V30 BEGIN ATOM
M  V30 1 S -4.0862 3.1043 -0.6529 0
M  V30 2 C -2.3708 3.1864 -0.2639 0
M  V30 3 C -4.6578 4.5953 0.1903 0
M  V30 4 O -1.947 4.0151 0.5428 0
M  V30 5 C -1.3957 2.1918 -0.9404 0
M  V30 6 O -0.2268 2.9725 -1.2738 0
M  V30 7 C -0.967 1.0196 0.0053 0
M  V30 8 C -1.8564 1.4397 -2.2286 0
M  V30 9 C -0.1844 0.1438 -0.9994 0
M  V30 10 C 0.0029 1.3715 1.1457 0
M  V30 11 C -2.2169 0.3116 0.5965 0
M  V30 12 C -1.097 0.0843 -2.2242 0
M  V30 13 C -1.6318 2.2124 -3.526 0
M  V30 14 C 0.329 -1.1707 -0.3896 0
M  V30 15 C 0.6011 0.1142 1.8186 0
M  V30 16 C 1.3129 -0.8426 0.7944 0
M  V30 17 C 1.0063 -2.0382 -1.4609 0
M  V30 18 O 1.4755 0.558 2.8579 0
M  V30 19 F 2.345 -0.1161 0.232 0
M  V30 20 C 1.9619 -2.1582 1.4073 0
M  V30 21 C 1.5445 -3.3329 -0.8689 0
M  V30 22 C 2.5013 -3.032 0.2536 0
M  V30 23 C 3.0833 -1.8541 2.4014 0
M  V30 24 C 0.918 -2.9835 2.1957 0
M  V30 25 C 3.7684 -3.4792 0.1795 0
M  V30 26 C 4.3443 -2.2988 2.322 0
M  V30 27 C 4.7739 -3.1643 1.2121 0
M  V30 28 O 5.9132 -3.6082 1.1493 0
M  V30 29 H -4.485 4.5195 1.2674 0
M  V30 30 H -5.7315 4.7142 0.0214 0
M  V30 31 H -4.1467 5.4792 -0.2008 0
M  V30 32 H -0.0601 3.579 -0.5243 0
M  V30 33 H -2.9218 1.1909 -2.1839 0
M  V30 34 H 0.711 0.6963 -1.3261 0
M  V30 35 H 0.8342 1.9906 0.7855 0
M  V30 36 H -0.5053 1.9859 1.9 0
M  V30 37 H -2.9589 0.0549 -0.1649 0
M  V30 38 H -2.7117 0.955 1.3329 0
M  V30 39 H -1.9765 -0.62 1.114 0
M  V30 40 H -0.5212 -0.0752 -3.1421 0
M  V30 41 H -1.812 -0.7425 -2.1392 0
M  V30 42 H -2.1334 3.1848 -3.4929 0
M  V30 43 H -0.5679 2.3801 -3.723 0
M  V30 44 H -2.0386 1.654 -4.376 0
M  V30 45 H -0.5217 -1.7431 -0.0047 0
M  V30 46 H -0.1996 -0.4348 2.3221 0
M  V30 47 H 1.8216 -1.4798 -1.9389 0
M  V30 48 H 0.2897 -2.2907 -2.2511 0
M  V30 49 H 1.0487 1.2914 3.3337 0
M  V30 50 H 2.0293 -3.9105 -1.6653 0
M  V30 51 H 0.7205 -3.9542 -0.4995 0
M  V30 52 H 2.837 -1.2419 3.2647 0
M  V30 53 H 1.3343 -3.9463 2.5194 0
M  V30 54 H 0.5871 -2.4608 3.1009 0
M  V30 55 H 0.0233 -3.2045 1.606 0
M  V30 56 H 4.1338 -4.0789 -0.6463 0
M  V30 57 H 5.0942 -2.0547 3.0642 0
M  V30 END ATOM
M  V30 BEGIN BOND
M  V30 1 1 1 2
M  V30 2 1 1 3
M  V30 3 2 2 4
M  V30 4 1 2 5
M  V30 5 1 5 6
M  V30 6 1 5 7
M  V30 7 1 5 8
M  V30 8 1 7 9
M  V30 9 1 7 10
M  V30 10 1 7 11
M  V30 11 1 8 12
M  V30 12 1 8 13
M  V30 13 1 9 14
M  V30 14 1 10 15
M  V30 15 1 14 16
M  V30 16 1 14 17
M  V30 17 1 15 18
M  V30 18 1 16 19
M  V30 19 1 16 20
M  V30 20 1 17 21
M  V30 21 1 20 22
M  V30 22 1 20 23
M  V30 23 1 20 24
M  V30 24 2 22 25
M  V30 25 2 23 26
M  V30 26 1 25 27
M  V30 27 2 27 28
M  V30 28 1 9 12
M  V30 29 1 15 16
M  V30 30 1 21 22
M  V30 31 1 26 27
M  V30 32 1 3 29
M  V30 33 1 3 30
M  V30 34 1 3 31
M  V30 35 1 6 32
M  V30 36 1 8 33
M  V30 37 1 9 34
M  V30 38 1 10 35
M  V30 39 1 10 36
M  V30 40 1 11 37
M  V30 41 1 11 38
M  V30 42 1 11 39
M  V30 43 1 12 40
M  V30 44 1 12 41
M  V30 45 1 13 42
M  V30 46 1 13 43
M  V30 47 1 13 44
M  V30 48 1 14 45
M  V30 49 1 15 46
M  V30 50 1 17 47
M  V30 51 1 17 48
M  V30 52 1 18 49
M  V30 53 1 21 50
M  V30 54 1 21 51
M  V30 55 1 23 52
M  V30 56 1 24 53
M  V30 57 1 24 54
M  V30 58 1 24 55
M  V30 59 1 25 56
M  V30 60 1 26 57
M  V30 END BOND
M  V30 END CTAB
M  END
>  <NO.>
2090

>  <Name>
timobesone

>  <SMILES>
CSC(=O)C1(O)C(C)CC2C3CCC4=CC(=O)C=CC4(C)C3(F)C(O)CC21C

>  <logBB>


>  <Class>
1

>  <MW>
408.18

>  <nHBAcc>
5

>  <nHBDon>
2

>  <SLogP>
3.22

>  <TopoPSA>
74.6

>  <MMFF94 Energy>
160.64

$$$$
CSC(=O)C1(OC(C)=O)[C@@H](C)C[C@H]2[C@@H]3CCC4=CC(=O)C=C[C@]4(C)C3(F)[C@@H](O)C[C@@]21C
Actelion Java MolfileCreator 2.0

  0  0  0  0  0  0              0 V3000
M  V30 BEGIN CTAB
M  V30 COUNTS 62 65 0 0 0
M  V30 BEGIN ATOM
M  V30 1 S -0.0815 -2.775 2.6116 0
M  V30 2 C -1.5281 -2.0719 1.8769 0
M  V30 3 C -0.7548 -3.1824 4.237 0
M  V30 4 O -2.4303 -1.6469 2.5998 0
M  V30 5 C -1.6015 -1.9371 0.3112 0
M  V30 6 O -3.0064 -2.0578 -0.0546 0
M  V30 7 C -1.1157 -0.4885 -0.1503 0 CFG=2
M  V30 8 C -0.6825 -2.9015 -0.5437 0 CFG=2
M  V30 9 C -3.688 -3.1524 0.3848 0
M  V30 10 C 0.3923 -0.7244 -0.3508 0 CFG=1
M  V30 11 C -1.2778 0.665 0.8694 0
M  V30 12 C -1.8573 -0.1037 -1.4656 0
M  V30 13 C 0.4332 -2.013 -1.1593 0
M  V30 14 C -1.3488 -3.7304 -1.6449 0
M  V30 15 O -3.1934 -4.0971 0.9824 0
M  V30 16 C -5.1315 -3.0464 0.0029 0
M  V30 17 C 1.1489 0.5064 -0.886 0 CFG=1
M  V30 18 C -0.4846 1.9489 0.525 0 CFG=1
M  V30 19 C 1.0062 1.6792 0.1419 0
M  V30 20 C 2.6316 0.159 -1.1247 0
M  V30 21 O -1.2156 2.7441 -0.401 0
M  V30 22 F 1.5839 1.2047 1.3122 0
M  V30 23 C 1.85 2.9522 -0.2775 0 CFG=2
M  V30 24 C 3.4559 1.3724 -1.5407 0
M  V30 25 C 3.2942 2.4905 -0.5434 0
M  V30 26 C 1.8109 4.0148 0.8188 0
M  V30 27 C 1.3396 3.6463 -1.5615 0
M  V30 28 C 4.367 2.9958 0.0916 0
M  V30 29 C 2.8824 4.5139 1.4493 0
M  V30 30 C 4.2428 4.0514 1.1176 0
M  V30 31 O 5.2293 4.5236 1.6681 0
M  V30 32 H -1.0412 -2.2746 4.7752 0
M  V30 33 H 0.0085 -3.7026 4.8218 0
M  V30 34 H -1.6236 -3.8394 4.1399 0
M  V30 35 H -0.1916 -3.6309 0.1066 0
M  V30 36 H 0.8482 -0.9556 0.6207 0
M  V30 37 H -0.9076 0.3442 1.8496 0
M  V30 38 H -2.3415 0.9032 0.9933 0
M  V30 39 H -2.8711 0.2534 -1.2498 0
M  V30 40 H -1.9583 -0.946 -2.1538 0
M  V30 41 H -1.3535 0.6707 -2.0414 0
M  V30 42 H 1.4062 -2.5104 -1.0819 0
M  V30 43 H 0.2526 -1.8134 -2.222 0
M  V30 44 H -1.9546 -3.1203 -2.3195 0
M  V30 45 H -0.5887 -4.2365 -2.2511 0
M  V30 46 H -1.9863 -4.5133 -1.2266 0
M  V30 47 H -5.5592 -2.1309 0.4198 0
M  V30 48 H -5.2273 -3.0554 -1.0855 0
M  V30 49 H -5.6782 -3.9007 0.4121 0
M  V30 50 H 0.7284 0.8083 -1.8498 0
M  V30 51 H -0.4817 2.5341 1.4527 0
M  V30 52 H 3.0636 -0.2775 -0.2143 0
M  V30 53 H 2.7154 -0.6029 -1.9085 0
M  V30 54 H -1.1011 2.4059 -1.3008 0
M  V30 55 H 3.1459 1.7148 -2.5347 0
M  V30 56 H 4.5064 1.0712 -1.6351 0
M  V30 57 H 0.8347 4.4123 1.0924 0
M  V30 58 H 0.4301 4.231 -1.3876 0
M  V30 59 H 1.1242 2.9373 -2.3663 0
M  V30 60 H 2.0835 4.3548 -1.95 0
M  V30 61 H 5.3781 2.6523 -0.095 0
M  V30 62 H 2.8058 5.2762 2.2153 0
M  V30 END ATOM
M  V30 BEGIN BOND
M  V30 1 1 1 2
M  V30 2 1 1 3
M  V30 3 2 2 4
M  V30 4 1 2 5
M  V30 5 1 5 6
M  V30 6 1 5 7
M  V30 7 1 5 8
M  V30 8 1 6 9
M  V30 9 1 7 10
M  V30 10 1 7 11
M  V30 11 1 7 12
M  V30 12 1 8 13
M  V30 13 1 8 14
M  V30 14 2 9 15
M  V30 15 1 9 16
M  V30 16 1 10 17
M  V30 17 1 11 18
M  V30 18 1 17 19
M  V30 19 1 17 20
M  V30 20 1 18 21
M  V30 21 1 19 22
M  V30 22 1 19 23
M  V30 23 1 20 24
M  V30 24 1 23 25
M  V30 25 1 23 26
M  V30 26 1 23 27
M  V30 27 2 25 28
M  V30 28 2 26 29
M  V30 29 1 28 30
M  V30 30 2 30 31
M  V30 31 1 10 13
M  V30 32 1 18 19
M  V30 33 1 24 25
M  V30 34 1 29 30
M  V30 35 1 3 32
M  V30 36 1 3 33
M  V30 37 1 3 34
M  V30 38 1 8 35
M  V30 39 1 10 36
M  V30 40 1 11 37
M  V30 41 1 11 38
M  V30 42 1 12 39
M  V30 43 1 12 40
M  V30 44 1 12 41
M  V30 45 1 13 42
M  V30 46 1 13 43
M  V30 47 1 14 44
M  V30 48 1 14 45
M  V30 49 1 14 46
M  V30 50 1 16 47
M  V30 51 1 16 48
M  V30 52 1 16 49
M  V30 53 1 17 50
M  V30 54 1 18 51
M  V30 55 1 20 52
M  V30 56 1 20 53
M  V30 57 1 21 54
M  V30 58 1 24 55
M  V30 59 1 24 56
M  V30 60 1 26 57
M  V30 61 1 27 58
M  V30 62 1 27 59
M  V30 63 1 27 60
M  V30 64 1 28 61
M  V30 65 1 29 62
M  V30 END BOND
M  V30 BEGIN COLLECTION
M  V30 MDLV30/STEABS ATOMS=(6 7 8 10 17 18 23)
M  V30 END COLLECTION
M  V30 END CTAB
M  END
>  <NO.>
2091

>  <Name>
dtxsid201000603

>  <SMILES>
CSC(=O)C1(OC(C)=O)[C@@H](C)C[C@H]2[C@@H]3CCC4=CC(=O)C=C[C@]4(C)C3(F)[C@@H](O)C[C@@]21C

>  <logBB>


>  <Class>
1

>  <MW>
450.19

>  <nHBAcc>
6

>  <nHBDon>
1

>  <SLogP>
3.79

>  <TopoPSA>
80.67

>  <MMFF94 Energy>
145.79

$$$$
CSCC[C@H](NC(C)=O)C(=O)Oc1ccc(NC(C)=O)cc1
Actelion Java MolfileCreator 2.0

  0  0  0  0  0  0              0 V3000
M  V30 BEGIN CTAB
M  V30 COUNTS 42 42 0 0 0
M  V30 BEGIN ATOM
M  V30 1 S -0.2384 -2.3066 4.6971 0
M  V30 2 C 1.3332 -2.4901 3.7926 0
M  V30 3 C -0.0314 -0.63 5.3469 0
M  V30 4 C 1.4393 -1.634 2.531 0
M  V30 5 C 0.4514 -2.0171 1.4232 0 CFG=2
M  V30 6 N 0.7662 -3.3253 0.8479 0
M  V30 7 C 0.545 -0.9733 0.3049 0
M  V30 8 C -0.2189 -4.113 0.3003 0
M  V30 9 O 1.3868 -0.9962 -0.5881 0
M  V30 10 O -0.4082 0.0158 0.5263 0
M  V30 11 O -1.4049 -3.8039 0.2942 0
M  V30 12 C 0.2915 -5.3778 -0.3328 0
M  V30 13 C -0.4271 1.0073 -0.4543 0
M  V30 14 C -1.474 1.0096 -1.3701 0
M  V30 15 C 0.5363 2.0112 -0.4617 0
M  V30 16 C -1.5424 2.0202 -2.3336 0
M  V30 17 C 0.4639 3.0161 -1.4293 0
M  V30 18 C -0.5773 3.0312 -2.3697 0
M  V30 19 N -0.5702 4.0706 -3.3217 0
M  V30 20 C -1.5944 4.4212 -4.1833 0
M  V30 21 O -2.7095 3.9172 -4.2486 0
M  V30 22 C -1.211 5.5751 -5.0753 0
M  V30 23 H 1.4455 -3.549 3.5376 0
M  V30 24 H 2.1526 -2.245 4.477 0
M  V30 25 H -0.8565 -0.4087 6.0295 0
M  V30 26 H -0.0525 0.1037 4.5379 0
M  V30 27 H 0.9069 -0.5457 5.901 0
M  V30 28 H 2.4633 -1.7308 2.1446 0
M  V30 29 H 1.3248 -0.5736 2.7867 0
M  V30 30 H -0.5815 -2.0328 1.7868 0
M  V30 31 H 1.7305 -3.5278 0.613 0
M  V30 32 H 0.5121 -5.1874 -1.3864 0
M  V30 33 H -0.4715 -6.1569 -0.2536 0
M  V30 34 H 1.1982 -5.7288 0.1679 0
M  V30 35 H -2.2322 0.2318 -1.3451 0
M  V30 36 H 1.3405 2.0125 0.2667 0
M  V30 37 H -2.3588 1.9866 -3.0489 0
M  V30 38 H 1.2278 3.789 -1.4327 0
M  V30 39 H 0.2658 4.6398 -3.3522 0
M  V30 40 H -1.1762 6.4956 -4.4859 0
M  V30 41 H -1.9509 5.6862 -5.8729 0
M  V30 42 H -0.2325 5.3953 -5.5298 0
M  V30 END ATOM
M  V30 BEGIN BOND
M  V30 1 1 1 2
M  V30 2 1 1 3
M  V30 3 1 2 4
M  V30 4 1 4 5
M  V30 5 1 5 6
M  V30 6 1 5 7
M  V30 7 1 6 8
M  V30 8 2 7 9
M  V30 9 1 7 10
M  V30 10 2 8 11
M  V30 11 1 8 12
M  V30 12 1 10 13
M  V30 13 2 13 14
M  V30 14 1 13 15
M  V30 15 1 14 16
M  V30 16 2 15 17
M  V30 17 2 16 18
M  V30 18 1 18 19
M  V30 19 1 19 20
M  V30 20 2 20 21
M  V30 21 1 20 22
M  V30 22 1 17 18
M  V30 23 1 2 23
M  V30 24 1 2 24
M  V30 25 1 3 25
M  V30 26 1 3 26
M  V30 27 1 3 27
M  V30 28 1 4 28
M  V30 29 1 4 29
M  V30 30 1 5 30
M  V30 31 1 6 31
M  V30 32 1 12 32
M  V30 33 1 12 33
M  V30 34 1 12 34
M  V30 35 1 14 35
M  V30 36 1 15 36
M  V30 37 1 16 37
M  V30 38 1 17 38
M  V30 39 1 19 39
M  V30 40 1 22 40
M  V30 41 1 22 41
M  V30 42 1 22 42
M  V30 END BOND
M  V30 BEGIN COLLECTION
M  V30 MDLV30/STEABS ATOMS=(1 5)
M  V30 END COLLECTION
M  V30 END CTAB
M  END
>  <NO.>
2092

>  <Name>
69217-67-0

>  <SMILES>
CSCC[C@H](NC(C)=O)C(=O)Oc1ccc(NC(C)=O)cc1

>  <logBB>


>  <Class>
1

>  <MW>
324.11

>  <nHBAcc>
5

>  <nHBDon>
2

>  <SLogP>
1.81

>  <TopoPSA>
84.5

>  <MMFF94 Energy>
17.138

$$$$
CSc1c(Cl)nc(NC(C)C)nc1N1CCN(C)CC1
Actelion Java MolfileCreator 2.0

  0  0  0  0  0  0              0 V3000
M  V30 BEGIN CTAB
M  V30 COUNTS 42 43 0 0 0
M  V30 BEGIN ATOM
M  V30 1 Cl -3.0536 2.0081 -2.4906 0
M  V30 2 C -1.7534 1.175 -1.7114 0
M  V30 3 N -0.836 0.7734 -2.6088 0
M  V30 4 C -1.6816 0.9878 -0.3404 0
M  V30 5 C 0.2417 0.1767 -2.1163 0
M  V30 6 S -2.911 1.5938 0.8167 0
M  V30 7 C -0.5035 0.3626 0.0709 0
M  V30 8 N 0.441 -0.03 -0.813 0
M  V30 9 N 1.2329 -0.2629 -2.947 0
M  V30 10 C -4.258 0.432 0.4679 0
M  V30 11 N -0.2355 0.1255 1.4231 0
M  V30 12 C 1.2429 -0.0069 -4.3696 0
M  V30 13 C -0.8666 -1.0766 1.9881 0
M  V30 14 C 1.1684 0.2936 1.8309 0
M  V30 15 C 1.8302 1.3744 -4.6488 0
M  V30 16 C 2.0788 -1.0874 -5.0551 0
M  V30 17 C -0.7142 -1.0867 3.5276 0
M  V30 18 C 1.2826 0.2607 3.3731 0
M  V30 19 N 0.695 -0.9643 3.9642 0
M  V30 20 C 0.7811 -0.9235 5.4222 0
M  V30 21 H 2.0381 -0.6412 -2.4716 0
M  V30 22 H -4.6898 0.6101 -0.5191 0
M  V30 23 H -5.0458 0.5702 1.2136 0
M  V30 24 H -3.9073 -0.6015 0.5248 0
M  V30 25 H 0.2292 -0.0642 -4.7855 0
M  V30 26 H -1.9332 -1.1248 1.7483 0
M  V30 27 H -0.3969 -1.9752 1.5664 0
M  V30 28 H 1.5558 1.2566 1.4752 0
M  V30 29 H 1.7919 -0.5035 1.4052 0
M  V30 30 H 2.8463 1.4641 -4.2483 0
M  V30 31 H 1.2243 2.162 -4.188 0
M  V30 32 H 1.8702 1.5701 -5.7255 0
M  V30 33 H 2.0981 -0.9364 -6.1394 0
M  V30 34 H 3.1129 -1.0848 -4.6921 0
M  V30 35 H 1.6627 -2.0819 -4.8591 0
M  V30 36 H -1.1329 -2.0267 3.9068 0
M  V30 37 H -1.3131 -0.2667 3.947 0
M  V30 38 H 2.3445 0.3218 3.6397 0
M  V30 39 H 0.7884 1.1521 3.7833 0
M  V30 40 H 0.2397 -0.0712 5.8486 0
M  V30 41 H 1.827 -0.8621 5.7426 0
M  V30 42 H 0.3722 -1.8428 5.8559 0
M  V30 END ATOM
M  V30 BEGIN BOND
M  V30 1 1 1 2
M  V30 2 2 2 3
M  V30 3 1 2 4
M  V30 4 1 3 5
M  V30 5 1 4 6
M  V30 6 2 4 7
M  V30 7 2 5 8
M  V30 8 1 5 9
M  V30 9 1 6 10
M  V30 10 1 7 11
M  V30 11 1 9 12
M  V30 12 1 11 13
M  V30 13 1 11 14
M  V30 14 1 12 15
M  V30 15 1 12 16
M  V30 16 1 13 17
M  V30 17 1 14 18
M  V30 18 1 17 19
M  V30 19 1 19 20
M  V30 20 1 7 8
M  V30 21 1 18 19
M  V30 22 1 9 21
M  V30 23 1 10 22
M  V30 24 1 10 23
M  V30 25 1 10 24
M  V30 26 1 12 25
M  V30 27 1 13 26
M  V30 28 1 13 27
M  V30 29 1 14 28
M  V30 30 1 14 29
M  V30 31 1 15 30
M  V30 32 1 15 31
M  V30 33 1 15 32
M  V30 34 1 16 33
M  V30 35 1 16 34
M  V30 36 1 16 35
M  V30 37 1 17 36
M  V30 38 1 17 37
M  V30 39 1 18 38
M  V30 40 1 18 39
M  V30 41 1 20 40
M  V30 42 1 20 41
M  V30 43 1 20 42
M  V30 END BOND
M  V30 END CTAB
M  END
>  <NO.>
2093

>  <Name>
iprozilamine

>  <SMILES>
CSc1c(Cl)nc(NC(C)C)nc1N1CCN(C)CC1

>  <logBB>


>  <Class>
1

>  <MW>
315.13

>  <nHBAcc>
6

>  <nHBDon>
1

>  <SLogP>
2.42

>  <TopoPSA>
44.29

>  <MMFF94 Energy>
-3.8223

$$$$
CSc1ccc(CC(=O)N2CCN(C(C)=O)C[C@@H]2CN2CC[C@@H](O)C2)cc1
Actelion Java MolfileCreator 2.0

  0  0  0  0  0  0              0 V3000
M  V30 BEGIN CTAB
M  V30 COUNTS 56 58 0 0 0
M  V30 BEGIN ATOM
M  V30 1 S 2.886 2.9663 -6.583 0
M  V30 2 C 2.0681 2.205 -5.1934 0
M  V30 3 C 3.1673 4.6188 -5.8937 0
M  V30 4 C 2.7182 2.0419 -3.9676 0
M  V30 5 C 0.758 1.7431 -5.3393 0
M  V30 6 C 2.0592 1.4389 -2.8926 0
M  V30 7 C 0.0964 1.141 -4.2655 0
M  V30 8 C 0.7432 0.979 -3.0335 0
M  V30 9 C 0.0274 0.335 -1.8687 0
M  V30 10 C -0.6929 1.316 -0.9465 0
M  V30 11 O -0.7591 2.52 -1.1995 0
M  V30 12 N -1.2906 0.7876 0.1978 0
M  V30 13 C -1.1572 -0.6233 0.6556 0 CFG=2
M  V30 14 C -1.9319 1.7151 1.1406 0
M  V30 15 C -2.4702 -1.1435 1.2928 0
M  V30 16 C 0.052 -0.7735 1.6201 0
M  V30 17 C -3.2414 1.1603 1.7111 0
M  V30 18 N -3.0528 -0.191 2.2442 0
M  V30 19 N 0.4216 -2.1676 1.8858 0
M  V30 20 C -3.4172 -0.622 3.5075 0
M  V30 21 C 1.343 -2.2878 3.0264 0
M  V30 22 C 1.1113 -2.8235 0.7717 0
M  V30 23 O -3.2463 -1.7782 3.893 0
M  V30 24 C -4.0424 0.3923 4.4305 0
M  V30 25 C 2.0886 -3.6123 2.8074 0 CFG=1
M  V30 26 C 1.6527 -4.0834 1.4265 0
M  V30 27 O 3.5 -3.4052 2.7993 0
M  V30 28 H 2.2244 5.0609 -5.5596 0
M  V30 29 H 3.5959 5.2602 -6.6684 0
M  V30 30 H 3.8674 4.5777 -5.0551 0
M  V30 31 H 3.7435 2.3777 -3.8368 0
M  V30 32 H 0.2373 1.8564 -6.2872 0
M  V30 33 H 2.5815 1.334 -1.9444 0
M  V30 34 H -0.9294 0.8056 -4.399 0
M  V30 35 H -0.7082 -0.3809 -2.2545 0
M  V30 36 H 0.7613 -0.2343 -1.2872 0
M  V30 37 H -0.9712 -1.2451 -0.2237 0
M  V30 38 H -2.1274 2.6841 0.6706 0
M  V30 39 H -1.2139 1.8876 1.9512 0
M  V30 40 H -3.2205 -1.2715 0.5018 0
M  V30 41 H -2.3239 -2.128 1.7476 0
M  V30 42 H -0.2084 -0.2859 2.569 0
M  V30 43 H 0.9154 -0.2208 1.2263 0
M  V30 44 H -3.6297 1.8471 2.4656 0
M  V30 45 H -3.9937 1.085 0.9167 0
M  V30 46 H 0.7745 -2.3117 3.9621 0
M  V30 47 H 2.0519 -1.4515 3.0745 0
M  V30 48 H 1.9351 -2.2112 0.3837 0
M  V30 49 H 0.4348 -3.0703 -0.0516 0
M  V30 50 H -3.3371 1.2031 4.6313 0
M  V30 51 H -4.9627 0.7863 3.9913 0
M  V30 52 H -4.2947 -0.0869 5.3813 0
M  V30 53 H 1.8502 -4.3612 3.5696 0
M  V30 54 H 0.8458 -4.8204 1.5238 0
M  V30 55 H 2.4641 -4.5276 0.8421 0
M  V30 56 H 3.7585 -3.1552 3.7032 0
M  V30 END ATOM
M  V30 BEGIN BOND
M  V30 1 1 1 2
M  V30 2 1 1 3
M  V30 3 2 2 4
M  V30 4 1 2 5
M  V30 5 1 4 6
M  V30 6 2 5 7
M  V30 7 2 6 8
M  V30 8 1 8 9
M  V30 9 1 9 10
M  V30 10 2 10 11
M  V30 11 1 10 12
M  V30 12 1 12 13
M  V30 13 1 12 14
M  V30 14 1 13 15
M  V30 15 1 13 16
M  V30 16 1 14 17
M  V30 17 1 15 18
M  V30 18 1 16 19
M  V30 19 1 18 20
M  V30 20 1 19 21
M  V30 21 1 19 22
M  V30 22 2 20 23
M  V30 23 1 20 24
M  V30 24 1 21 25
M  V30 25 1 22 26
M  V30 26 1 25 27
M  V30 27 1 7 8
M  V30 28 1 17 18
M  V30 29 1 25 26
M  V30 30 1 3 28
M  V30 31 1 3 29
M  V30 32 1 3 30
M  V30 33 1 4 31
M  V30 34 1 5 32
M  V30 35 1 6 33
M  V30 36 1 7 34
M  V30 37 1 9 35
M  V30 38 1 9 36
M  V30 39 1 13 37
M  V30 40 1 14 38
M  V30 41 1 14 39
M  V30 42 1 15 40
M  V30 43 1 15 41
M  V30 44 1 16 42
M  V30 45 1 16 43
M  V30 46 1 17 44
M  V30 47 1 17 45
M  V30 48 1 21 46
M  V30 49 1 21 47
M  V30 50 1 22 48
M  V30 51 1 22 49
M  V30 52 1 24 50
M  V30 53 1 24 51
M  V30 54 1 24 52
M  V30 55 1 25 53
M  V30 56 1 26 54
M  V30 57 1 26 55
M  V30 58 1 27 56
M  V30 END BOND
M  V30 BEGIN COLLECTION
M  V30 MDLV30/STEABS ATOMS=(2 13 25)
M  V30 END COLLECTION
M  V30 END CTAB
M  END
>  <NO.>
2094

>  <Name>
gr94839_b

>  <SMILES>
CSc1ccc(CC(=O)N2CCN(C(C)=O)C[C@@H]2CN2CC[C@@H](O)C2)cc1

>  <logBB>


>  <Class>
-1

>  <MW>
391.19

>  <nHBAcc>
5

>  <nHBDon>
1

>  <SLogP>
1.08

>  <TopoPSA>
64.09

>  <MMFF94 Energy>
102.34

$$$$
CSc1ccc2c(c1)C(N1CCN(C)CC1)Cc1ccccc1S2
Actelion Java MolfileCreator 2.0

  0  0  0  0  0  0              0 V3000
M  V30 BEGIN CTAB
M  V30 COUNTS 48 51 0 0 0
M  V30 BEGIN ATOM
M  V30 1 S -1.3925 0.5732 3.0327 0
M  V30 2 C -0.1336 1.4337 2.1165 0
M  V30 3 C -0.6028 -1.0056 3.3425 0
M  V30 4 C 0.338 0.9632 0.884 0
M  V30 5 C 0.4087 2.5989 2.6724 0
M  V30 6 C 0.1486 -1.7776 2.435 0
M  V30 7 C -0.7779 -1.4766 4.6607 0
M  V30 8 C 1.4162 1.6381 0.271 0
M  V30 9 C -0.277 -0.2903 0.2555 0 CFG=2
M  V30 10 C 1.4467 3.2778 2.03 0
M  V30 11 C 0.7362 -2.977 2.9082 0
M  V30 12 C 0.3793 -1.5111 0.9508 0
M  V30 13 C -0.1981 -2.6669 5.098 0
M  V30 14 C 1.9579 2.8029 0.8225 0
M  V30 15 N -0.1624 -0.2548 -1.2387 0
M  V30 16 C 0.5687 -3.4155 4.2207 0
M  V30 17 S 3.3075 3.6849 0.0583 0
M  V30 18 C -1.1089 0.7415 -1.8054 0
M  V30 19 C -0.3835 -1.5566 -1.8969 0
M  V30 20 C 2.7292 3.7625 -1.659 0
M  V30 21 C -1.0515 0.8182 -3.3487 0
M  V30 22 C -0.3493 -1.4709 -3.444 0
M  V30 23 N -1.2503 -0.4685 -4.0398 0
M  V30 24 C -2.6454 -0.9001 -3.9924 0
M  V30 25 H 0.0431 2.9776 3.6246 0
M  V30 26 H -1.3647 -0.9009 5.3756 0
M  V30 27 H 1.8307 1.2354 -0.6504 0
M  V30 28 H -1.3527 -0.3299 0.4694 0
M  V30 29 H 1.8581 4.1737 2.4896 0
M  V30 30 H 1.3312 -3.591 2.2325 0
M  V30 31 H 1.4651 -1.4783 0.781 0
M  V30 32 H 0.0044 -2.4196 0.4633 0
M  V30 33 H -0.3421 -2.9991 6.1226 0
M  V30 34 H 1.031 -4.3422 4.5501 0
M  V30 35 H -2.1362 0.5109 -1.4945 0
M  V30 36 H -0.881 1.7434 -1.4243 0
M  V30 37 H 0.4142 -2.2525 -1.6149 0
M  V30 38 H -1.3381 -1.9918 -1.5754 0
M  V30 39 H 2.761 2.7758 -2.1279 0
M  V30 40 H 3.3866 4.4291 -2.2239 0
M  V30 41 H 1.7111 4.1592 -1.7066 0
M  V30 42 H -0.069 1.2126 -3.6412 0
M  V30 43 H -1.7812 1.5552 -3.707 0
M  V30 44 H -0.5518 -2.4617 -3.8696 0
M  V30 45 H 0.6758 -1.225 -3.7528 0
M  V30 46 H -3.0165 -1.0663 -2.9761 0
M  V30 47 H -3.2907 -0.1558 -4.4725 0
M  V30 48 H -2.7739 -1.8309 -4.5562 0
M  V30 END ATOM
M  V30 BEGIN BOND
M  V30 1 1 1 2
M  V30 2 1 1 3
M  V30 3 2 2 4
M  V30 4 1 2 5
M  V30 5 2 3 6
M  V30 6 1 3 7
M  V30 7 1 4 8
M  V30 8 1 4 9
M  V30 9 2 5 10
M  V30 10 1 6 11
M  V30 11 1 6 12
M  V30 12 2 7 13
M  V30 13 2 8 14
M  V30 14 1 9 15
M  V30 15 2 11 16
M  V30 16 1 14 17
M  V30 17 1 15 18
M  V30 18 1 15 19
M  V30 19 1 17 20
M  V30 20 1 18 21
M  V30 21 1 19 22
M  V30 22 1 21 23
M  V30 23 1 23 24
M  V30 24 1 9 12
M  V30 25 1 10 14
M  V30 26 1 13 16
M  V30 27 1 22 23
M  V30 28 1 5 25
M  V30 29 1 7 26
M  V30 30 1 8 27
M  V30 31 1 9 28
M  V30 32 1 10 29
M  V30 33 1 11 30
M  V30 34 1 12 31
M  V30 35 1 12 32
M  V30 36 1 13 33
M  V30 37 1 16 34
M  V30 38 1 18 35
M  V30 39 1 18 36
M  V30 40 1 19 37
M  V30 41 1 19 38
M  V30 42 1 20 39
M  V30 43 1 20 40
M  V30 44 1 20 41
M  V30 45 1 21 42
M  V30 46 1 21 43
M  V30 47 1 22 44
M  V30 48 1 22 45
M  V30 49 1 24 46
M  V30 50 1 24 47
M  V30 51 1 24 48
M  V30 END BOND
M  V30 BEGIN COLLECTION
M  V30 MDLV30/STERAC1 ATOMS=(1 9)
M  V30 END COLLECTION
M  V30 END CTAB
M  END
>  <NO.>
2095

>  <Name>
metitepine(methiothepin)

>  <SMILES>
CSc1ccc2c(c1)C(N1CCN(C)CC1)Cc1ccccc1S2

>  <logBB>


>  <Class>
1

>  <MW>
356.14

>  <nHBAcc>
4

>  <nHBDon>
0

>  <SLogP>
4.4

>  <TopoPSA>
6.48

>  <MMFF94 Energy>
133.61

$$$$
C[C@@H](O)[C@H]1C(=O)N2C(C(=O)O)=C(SC3CC[S+]([O-])C3)S[C@H]12
Actelion Java MolfileCreator 2.0

  0  0  0  0  0  0              0 V3000
M  V30 BEGIN CTAB
M  V30 COUNTS 36 38 0 0 0
M  V30 BEGIN ATOM
M  V30 1 S -1.6078 1.6078 -3.9808 0
M  V30 2 O -1.8043 0.1201 -4.0131 0
M  V30 3 C 0.0638 1.9106 -3.274 0
M  V30 4 C -2.4423 2.2223 -2.4751 0
M  V30 5 C -0.135 2.6835 -1.9753 0
M  V30 6 C -1.4231 2.1592 -1.3519 0
M  V30 7 S 1.3449 2.7036 -0.9069 0
M  V30 8 C 1.2326 1.2392 -0.0039 0
M  V30 9 S 1.6024 -0.3131 -0.74 0
M  V30 10 C 0.9257 1.119 1.3016 0
M  V30 11 C 1.5326 -1.1632 0.8815 0 CFG=1
M  V30 12 N 0.9799 -0.164 1.7984 0
M  V30 13 C 0.5424 2.198 2.234 0
M  V30 14 C 0.273 -2.0181 1.1548 0 CFG=2
M  V30 15 C -0.1259 -0.8881 2.1283 0
M  V30 16 O 0.9401 2.3164 3.3803 0
M  V30 17 O -0.3678 3.0475 1.7281 0
M  V30 18 C 0.4478 -3.3898 1.785 0 CFG=2
M  V30 19 O -1.1072 -0.6146 2.7805 0
M  V30 20 O 1.4453 -3.3382 2.7994 0
M  V30 21 C 0.8766 -4.4024 0.7329 0
M  V30 22 H 0.6455 2.478 -4.0064 0
M  V30 23 H 0.5265 0.9317 -3.1366 0
M  V30 24 H -3.3306 1.619 -2.2712 0
M  V30 25 H -2.749 3.2546 -2.672 0
M  V30 26 H -0.2976 3.7378 -2.2381 0
M  V30 27 H -1.3232 1.1222 -1.0121 0
M  V30 28 H -1.7546 2.7675 -0.5053 0
M  V30 29 H 2.4906 -1.5628 1.2279 0
M  V30 30 H -0.4389 -2.0662 0.3177 0
M  V30 31 H -0.5508 3.6485 2.4812 0
M  V30 32 H -0.4934 -3.7122 2.2446 0
M  V30 33 H 1.4213 -4.1852 3.2816 0
M  V30 34 H 0.1378 -4.4787 -0.0708 0
M  V30 35 H 1.8393 -4.1252 0.2891 0
M  V30 36 H 1.0088 -5.3919 1.1832 0
M  V30 END ATOM
M  V30 BEGIN BOND
M  V30 1 2 1 2
M  V30 2 1 1 3
M  V30 3 1 1 4
M  V30 4 1 3 5
M  V30 5 1 4 6
M  V30 6 1 5 7
M  V30 7 1 7 8
M  V30 8 1 8 9
M  V30 9 2 8 10
M  V30 10 1 9 11
M  V30 11 1 10 12
M  V30 12 1 10 13
M  V30 13 1 11 14
M  V30 14 1 12 15
M  V30 15 2 13 16
M  V30 16 1 13 17
M  V30 17 1 14 18
M  V30 18 2 15 19
M  V30 19 1 18 20
M  V30 20 1 18 21
M  V30 21 1 5 6
M  V30 22 1 11 12
M  V30 23 1 14 15
M  V30 24 1 3 22
M  V30 25 1 3 23
M  V30 26 1 4 24
M  V30 27 1 4 25
M  V30 28 1 5 26
M  V30 29 1 6 27
M  V30 30 1 6 28
M  V30 31 1 11 29
M  V30 32 1 14 30
M  V30 33 1 17 31
M  V30 34 1 18 32
M  V30 35 1 20 33
M  V30 36 1 21 34
M  V30 37 1 21 35
M  V30 38 1 21 36
M  V30 END BOND
M  V30 BEGIN COLLECTION
M  V30 MDLV30/STEABS ATOMS=(3 11 14 18)
M  V30 END COLLECTION
M  V30 END CTAB
M  END
>  <NO.>
2099

>  <Name>
sulopenem

>  <SMILES>
C[C@@H](O)[C@H]1C(=O)N2C(C(=O)O)=C(SC3CC[S+]([O-])C3)S[C@H]12

>  <logBB>


>  <Class>
-1

>  <MW>
349.01

>  <nHBAcc>
6

>  <nHBDon>
2

>  <SLogP>
0.41

>  <TopoPSA>
100.9

>  <MMFF94 Energy>
5.6265

$$$$
C[C@@H](O)[C@H]1C(=O)N2C(C(=O)O)=C([C@H]3CCCO3)S[C@H]12
Actelion Java MolfileCreator 2.0

  0  0  0  0  0  0              0 V3000
M  V30 BEGIN CTAB
M  V30 COUNTS 34 36 0 0 0
M  V30 BEGIN ATOM
M  V30 1 S 1.3901 -0.2452 0.0817 0
M  V30 2 C 0.1589 0.7786 -0.6753 0
M  V30 3 C 0.2293 -0.7749 1.3909 0 CFG=1
M  V30 4 C -1.0555 0.5663 -0.1294 0
M  V30 5 C 0.5206 1.7095 -1.8069 0 CFG=2
M  V30 6 N -1.0792 -0.3135 0.9282 0
M  V30 7 C -0.3234 -2.2158 1.3055 0 CFG=2
M  V30 8 C -2.3402 1.1601 -0.5584 0
M  V30 9 O 1.109 0.9543 -2.8836 0
M  V30 10 C 1.52 2.8062 -1.4324 0
M  V30 11 C -1.644 -1.5503 0.8686 0
M  V30 12 C -0.3716 -3.0471 2.5799 0 CFG=2
M  V30 13 O -3.2243 1.5421 0.1881 0
M  V30 14 O -2.4824 1.2087 -1.8915 0
M  V30 15 C 2.3459 1.5714 -3.2541 0
M  V30 16 C 2.8188 2.339 -2.0429 0
M  V30 17 O -2.7274 -1.9391 0.501 0
M  V30 18 O -0.9111 -4.3342 2.2766 0
M  V30 19 C -1.1874 -2.4302 3.7076 0
M  V30 20 H 0.4753 -0.4011 2.3892 0
M  V30 21 H -0.3687 2.198 -2.2121 0
M  V30 22 H 0.1185 -2.8043 0.4884 0
M  V30 23 H 1.2172 3.747 -1.9098 0
M  V30 24 H 1.5928 3.0027 -0.3582 0
M  V30 25 H 0.651 -3.2153 2.9347 0
M  V30 26 H -3.4012 1.5251 -2.0202 0
M  V30 27 H 3.0589 0.8071 -3.5745 0
M  V30 28 H 2.1497 2.2428 -4.0971 0
M  V30 29 H 3.4988 3.1566 -2.2969 0
M  V30 30 H 3.3411 1.6693 -1.3516 0
M  V30 31 H -1.8393 -4.2244 1.9945 0
M  V30 32 H -0.8027 -1.4512 4.0053 0
M  V30 33 H -2.2405 -2.3178 3.4282 0
M  V30 34 H -1.1718 -3.0864 4.5849 0
M  V30 END ATOM
M  V30 BEGIN BOND
M  V30 1 1 1 2
M  V30 2 1 1 3
M  V30 3 2 2 4
M  V30 4 1 2 5
M  V30 5 1 3 6
M  V30 6 1 3 7
M  V30 7 1 4 8
M  V30 8 1 5 9
M  V30 9 1 5 10
M  V30 10 1 6 11
M  V30 11 1 7 12
M  V30 12 2 8 13
M  V30 13 1 8 14
M  V30 14 1 9 15
M  V30 15 1 10 16
M  V30 16 2 11 17
M  V30 17 1 12 18
M  V30 18 1 12 19
M  V30 19 1 4 6
M  V30 20 1 7 11
M  V30 21 1 15 16
M  V30 22 1 3 20
M  V30 23 1 5 21
M  V30 24 1 7 22
M  V30 25 1 10 23
M  V30 26 1 10 24
M  V30 27 1 12 25
M  V30 28 1 14 26
M  V30 29 1 15 27
M  V30 30 1 15 28
M  V30 31 1 16 29
M  V30 32 1 16 30
M  V30 33 1 18 31
M  V30 34 1 19 32
M  V30 35 1 19 33
M  V30 36 1 19 34
M  V30 END BOND
M  V30 BEGIN COLLECTION
M  V30 MDLV30/STEABS ATOMS=(4 3 5 7 12)
M  V30 END COLLECTION
M  V30 END CTAB
M  END
>  <NO.>
2100

>  <Name>
faropenem

>  <SMILES>
C[C@@H](O)[C@H]1C(=O)N2C(C(=O)O)=C([C@H]3CCCO3)S[C@H]12

>  <logBB>


>  <Class>
-1

>  <MW>
285.07

>  <nHBAcc>
5

>  <nHBDon>
2

>  <SLogP>
0.37

>  <TopoPSA>
87.07

>  <MMFF94 Energy>
13.885

$$$$
C[C@@H]1CC2C3C[C@H](F)C4=CC(=O)C=CC4(C)[C@@]3(Cl)C(O)CC2(C)C1C(=O)CO
Actelion Java MolfileCreator 2.0

  0  0  0  0  0  0              0 V3000
M  V30 BEGIN CTAB
M  V30 COUNTS 56 59 0 0 0
M  V30 BEGIN ATOM
M  V30 1 Cl 0.163 -2.0401 -1.3869 0
M  V30 2 C 1.1828 -0.6552 -0.748 0 CFG=2
M  V30 3 C 2.4828 -0.549 -1.6933 0
M  V30 4 C 1.4924 -0.9202 0.7651 0
M  V30 5 C 0.3448 0.6731 -0.8187 0
M  V30 6 C 2.0534 -0.0539 -3.0941 0
M  V30 7 C 3.2549 -1.8672 -1.81 0
M  V30 8 C 3.5227 0.4563 -1.1345 0
M  V30 9 O 2.2256 -2.1268 0.9695 0
M  V30 10 C 0.2245 -0.9747 1.6317 0
M  V30 11 C -0.8749 0.7904 0.128 0
M  V30 12 C -0.0169 1.0731 -2.2578 0
M  V30 13 C 2.3467 -0.703 -4.2364 0
M  V30 14 C 1.223 1.2027 -3.1321 0 CFG=2
M  V30 15 C 3.5417 -2.5045 -2.9528 0
M  V30 16 C -0.6403 0.3065 1.5844 0
M  V30 17 C -2.1935 0.1375 -0.285 0
M  V30 18 C 3.1181 -1.9601 -4.2537 0
M  V30 19 F 0.8042 1.4913 -4.3973 0
M  V30 20 C -2.0816 -0.035 2.1175 0
M  V30 21 C 0.0701 1.4219 2.3798 0
M  V30 22 C -3.0483 0.3215 0.9707 0 CFG=2
M  V30 23 O 3.4002 -2.5226 -5.3035 0
M  V30 24 C -2.4172 0.5572 3.4842 0
M  V30 25 C -4.3009 -0.5448 0.947 0
M  V30 26 O -1.9786 0.0322 4.5147 0
M  V30 27 C -3.2628 1.8214 3.5774 0
M  V30 28 O -3.2363 2.364 4.8904 0
M  V30 29 H 2.1314 -0.1165 1.1447 0
M  V30 30 H 1.0187 1.464 -0.4597 0
M  V30 31 H 3.6152 -2.3226 -0.8906 0
M  V30 32 H 4.3557 0.5958 -1.8362 0
M  V30 33 H 3.9609 0.1075 -0.1922 0
M  V30 34 H 3.1017 1.448 -0.9474 0
M  V30 35 H 2.2586 -2.3133 1.9247 0
M  V30 36 H -0.3633 -1.8522 1.3339 0
M  V30 37 H 0.5051 -1.1862 2.673 0
M  V30 38 H -1.0995 1.8694 0.1722 0
M  V30 39 H -0.7135 0.3574 -2.7105 0
M  V30 40 H -0.5442 2.0355 -2.2606 0
M  V30 41 H 2.0246 -0.348 -5.21 0
M  V30 42 H 1.828 2.0553 -2.8066 0
M  V30 43 H 4.0949 -3.4354 -2.9757 0
M  V30 44 H -2.6481 0.6318 -1.1495 0
M  V30 45 H -2.0884 -0.924 -0.515 0
M  V30 46 H -2.1617 -1.1209 2.2728 0
M  V30 47 H 1.0269 1.6984 1.9257 0
M  V30 48 H -0.5337 2.3345 2.4183 0
M  V30 49 H 0.2801 1.1116 3.4089 0
M  V30 50 H -3.3578 1.3714 1.0253 0
M  V30 51 H -4.0529 -1.6074 0.8529 0
M  V30 52 H -4.8837 -0.4146 1.8642 0
M  V30 53 H -4.939 -0.2737 0.0995 0
M  V30 54 H -2.8748 2.5829 2.898 0
M  V30 55 H -4.2986 1.5822 3.3257 0
M  V30 56 H -3.0003 1.6244 5.4874 0
M  V30 END ATOM
M  V30 BEGIN BOND
M  V30 1 1 1 2
M  V30 2 1 2 3
M  V30 3 1 2 4
M  V30 4 1 2 5
M  V30 5 1 3 6
M  V30 6 1 3 7
M  V30 7 1 3 8
M  V30 8 1 4 9
M  V30 9 1 4 10
M  V30 10 1 5 11
M  V30 11 1 5 12
M  V30 12 2 6 13
M  V30 13 1 6 14
M  V30 14 2 7 15
M  V30 15 1 10 16
M  V30 16 1 11 17
M  V30 17 1 13 18
M  V30 18 1 14 19
M  V30 19 1 16 20
M  V30 20 1 16 21
M  V30 21 1 17 22
M  V30 22 2 18 23
M  V30 23 1 20 24
M  V30 24 1 22 25
M  V30 25 2 24 26
M  V30 26 1 24 27
M  V30 27 1 27 28
M  V30 28 1 11 16
M  V30 29 1 12 14
M  V30 30 1 15 18
M  V30 31 1 20 22
M  V30 32 1 4 29
M  V30 33 1 5 30
M  V30 34 1 7 31
M  V30 35 1 8 32
M  V30 36 1 8 33
M  V30 37 1 8 34
M  V30 38 1 9 35
M  V30 39 1 10 36
M  V30 40 1 10 37
M  V30 41 1 11 38
M  V30 42 1 12 39
M  V30 43 1 12 40
M  V30 44 1 13 41
M  V30 45 1 14 42
M  V30 46 1 15 43
M  V30 47 1 17 44
M  V30 48 1 17 45
M  V30 49 1 20 46
M  V30 50 1 21 47
M  V30 51 1 21 48
M  V30 52 1 21 49
M  V30 53 1 22 50
M  V30 54 1 25 51
M  V30 55 1 25 52
M  V30 56 1 25 53
M  V30 57 1 27 54
M  V30 58 1 27 55
M  V30 59 1 28 56
M  V30 END BOND
M  V30 BEGIN COLLECTION
M  V30 MDLV30/STEABS ATOMS=(3 2 14 22)
M  V30 END COLLECTION
M  V30 END CTAB
M  END
>  <NO.>
2102

>  <Name>
chembl63427

>  <SMILES>
C[C@@H]1CC2C3C[C@H](F)C4=CC(=O)C=CC4(C)[C@@]3(Cl)C(O)CC2(C)C1C(=O)CO

>  <logBB>


>  <Class>
1

>  <MW>
410.17

>  <nHBAcc>
4

>  <nHBDon>
2

>  <SLogP>
3

>  <TopoPSA>
74.6

>  <MMFF94 Energy>
141.23

$$$$
C[C@@H]1CC2C3C[C@H](F)C4=CC(=O)C=CC4(C)[C@@]3(Cl)C(O)CC2(C)C1C(=O)COC(=O)C(C)(C)C
Actelion Java MolfileCreator 2.0

  0  0  0  0  0  0              0 V3000
M  V30 BEGIN CTAB
M  V30 COUNTS 70 73 0 0 0
M  V30 BEGIN ATOM
M  V30 1 Cl -0.6485 -2.9207 2.1087 0
M  V30 2 C -1.4311 -2.6419 0.4539 0 CFG=2
M  V30 3 C -2.293 -3.9471 0.101 0
M  V30 4 C -0.2505 -2.3333 -0.5402 0
M  V30 5 C -2.3765 -1.3767 0.5522 0
M  V30 6 C -3.4724 -4.0471 1.0949 0
M  V30 7 C -1.4686 -5.2362 0.1146 0
M  V30 8 C -2.8798 -3.8809 -1.3323 0
M  V30 9 O 0.7418 -3.362 -0.5415 0
M  V30 10 C 0.4786 -0.995 -0.2722 0
M  V30 11 C -1.565 -0.1043 0.8433 0
M  V30 12 C -3.5235 -1.5797 1.554 0
M  V30 13 C -3.7123 -5.131 1.8567 0
M  V30 14 C -4.3433 -2.8222 1.2238 0 CFG=2
M  V30 15 C -1.7175 -6.31 0.8762 0
M  V30 16 C -0.4907 0.193 -0.2282 0
M  V30 17 C -2.2977 1.2284 0.9641 0
M  V30 18 C -2.8622 -6.336 1.8035 0
M  V30 19 F -5.2754 -2.9711 2.2086 0
M  V30 20 C 0.1018 1.5014 0.3769 0
M  V30 21 C -1.0918 0.4292 -1.6431 0
M  V30 22 C -1.1626 2.2816 0.8574 0 CFG=2
M  V30 23 O -3.1011 -7.3181 2.4939 0
M  V30 24 C 1.0339 2.3072 -0.5366 0
M  V30 25 C -0.955 2.9692 2.2074 0
M  V30 26 O 1.3934 1.8925 -1.64 0
M  V30 27 C 1.5568 3.6378 0.0074 0
M  V30 28 O 2.6695 4.1325 -0.7366 0
M  V30 29 C 3.8322 3.4537 -0.5082 0
M  V30 30 O 3.9565 2.5811 0.3426 0
M  V30 31 C 4.9443 3.9373 -1.4406 0
M  V30 32 C 6.2303 3.1452 -1.1566 0
M  V30 33 C 4.5249 3.7031 -2.898 0
M  V30 34 C 5.2088 5.4279 -1.1917 0
M  V30 35 H -0.6448 -2.2998 -1.5601 0
M  V30 36 H -2.8626 -1.2374 -0.4183 0
M  V30 37 H -0.6256 -5.3006 -0.5711 0
M  V30 38 H -2.0949 -3.9184 -2.0965 0
M  V30 39 H -3.4644 -2.9752 -1.5155 0
M  V30 40 H -3.5484 -4.7305 -1.5255 0
M  V30 41 H 1.0879 -3.4297 0.3695 0
M  V30 42 H 1.0448 -1.0641 0.6656 0
M  V30 43 H 1.2441 -0.8421 -1.0441 0
M  V30 44 H -1.0654 -0.2512 1.8128 0
M  V30 45 H -4.1985 -0.7152 1.5407 0
M  V30 46 H -3.1502 -1.6388 2.5837 0
M  V30 47 H -4.5349 -5.1789 2.5631 0
M  V30 48 H -4.901 -2.6686 0.294 0
M  V30 49 H -1.106 -7.2036 0.8397 0
M  V30 50 H -2.8556 1.3023 1.9037 0
M  V30 51 H -3.0174 1.361 0.1481 0
M  V30 52 H 0.7165 1.2326 1.2487 0
M  V30 53 H -1.6204 1.3846 -1.7198 0
M  V30 54 H -0.3129 0.4303 -2.4123 0
M  V30 55 H -1.7961 -0.3501 -1.9431 0
M  V30 56 H -1.4507 3.0459 0.125 0
M  V30 57 H -0.1867 3.7436 2.1535 0
M  V30 58 H -0.6588 2.2507 2.9794 0
M  V30 59 H -1.8811 3.4528 2.5373 0
M  V30 60 H 0.7547 4.377 -0.0777 0
M  V30 61 H 1.8254 3.5378 1.0643 0
M  V30 62 H 6.078 2.071 -1.3139 0
M  V30 63 H 7.0483 3.4665 -1.811 0
M  V30 64 H 6.5591 3.2799 -0.1195 0
M  V30 65 H 4.28 2.649 -3.0725 0
M  V30 66 H 3.6376 4.2898 -3.1622 0
M  V30 67 H 5.3254 3.9842 -3.5913 0
M  V30 68 H 5.4563 5.6137 -0.1401 0
M  V30 69 H 4.3311 6.0392 -1.4308 0
M  V30 70 H 6.0412 5.7909 -1.8047 0
M  V30 END ATOM
M  V30 BEGIN BOND
M  V30 1 1 1 2
M  V30 2 1 2 3
M  V30 3 1 2 4
M  V30 4 1 2 5
M  V30 5 1 3 6
M  V30 6 1 3 7
M  V30 7 1 3 8
M  V30 8 1 4 9
M  V30 9 1 4 10
M  V30 10 1 5 11
M  V30 11 1 5 12
M  V30 12 2 6 13
M  V30 13 1 6 14
M  V30 14 2 7 15
M  V30 15 1 10 16
M  V30 16 1 11 17
M  V30 17 1 13 18
M  V30 18 1 14 19
M  V30 19 1 16 20
M  V30 20 1 16 21
M  V30 21 1 17 22
M  V30 22 2 18 23
M  V30 23 1 20 24
M  V30 24 1 22 25
M  V30 25 2 24 26
M  V30 26 1 24 27
M  V30 27 1 27 28
M  V30 28 1 28 29
M  V30 29 2 29 30
M  V30 30 1 29 31
M  V30 31 1 31 32
M  V30 32 1 31 33
M  V30 33 1 31 34
M  V30 34 1 11 16
M  V30 35 1 12 14
M  V30 36 1 15 18
M  V30 37 1 20 22
M  V30 38 1 4 35
M  V30 39 1 5 36
M  V30 40 1 7 37
M  V30 41 1 8 38
M  V30 42 1 8 39
M  V30 43 1 8 40
M  V30 44 1 9 41
M  V30 45 1 10 42
M  V30 46 1 10 43
M  V30 47 1 11 44
M  V30 48 1 12 45
M  V30 49 1 12 46
M  V30 50 1 13 47
M  V30 51 1 14 48
M  V30 52 1 15 49
M  V30 53 1 17 50
M  V30 54 1 17 51
M  V30 55 1 20 52
M  V30 56 1 21 53
M  V30 57 1 21 54
M  V30 58 1 21 55
M  V30 59 1 22 56
M  V30 60 1 25 57
M  V30 61 1 25 58
M  V30 62 1 25 59
M  V30 63 1 27 60
M  V30 64 1 27 61
M  V30 65 1 32 62
M  V30 66 1 32 63
M  V30 67 1 32 64
M  V30 68 1 33 65
M  V30 69 1 33 66
M  V30 70 1 33 67
M  V30 71 1 34 68
M  V30 72 1 34 69
M  V30 73 1 34 70
M  V30 END BOND
M  V30 BEGIN COLLECTION
M  V30 MDLV30/STEABS ATOMS=(3 2 14 22)
M  V30 END COLLECTION
M  V30 END CTAB
M  END
>  <NO.>
2103

>  <Name>
clocortolone-pivalate

>  <SMILES>
C[C@@H]1CC2C3C[C@H](F)C4=CC(=O)C=CC4(C)[C@@]3(Cl)C(O)CC2(C)C1C(=O)COC(=O)C(C)(C)C

>  <logBB>


>  <Class>
1

>  <MW>
494.22

>  <nHBAcc>
5

>  <nHBDon>
1

>  <SLogP>
4.6

>  <TopoPSA>
80.67

>  <MMFF94 Energy>
128.61

$$$$
C[C@@H]1CC2C3C[C@H](F)C4=CC(=O)C=CC4(C)[C@@]3(F)C(O)CC2(C)C1C(=O)CO
Actelion Java MolfileCreator 2.0

  0  0  0  0  0  0              0 V3000
M  V30 BEGIN CTAB
M  V30 COUNTS 56 59 0 0 0
M  V30 BEGIN ATOM
M  V30 1 F 1.1342 -1.5396 -0.4049 0
M  V30 2 C -0.117 -1.1967 -0.8714 0 CFG=2
M  V30 3 C -0.7086 -2.4992 -1.5737 0
M  V30 4 C 0.0993 0.0293 -1.8003 0
M  V30 5 C -0.9707 -0.7768 0.3664 0
M  V30 6 C -0.9112 -3.5812 -0.4941 0
M  V30 7 C 0.1954 -3.0267 -2.6883 0
M  V30 8 C -2.0694 -2.2191 -2.2554 0
M  V30 9 O 1.0543 -0.2432 -2.8294 0
M  V30 10 C 0.6319 1.2567 -1.0489 0
M  V30 11 C -0.4809 0.4963 1.092 0
M  V30 12 C -1.121 -1.9395 1.3599 0
M  V30 13 C -0.3583 -4.8072 -0.5485 0
M  V30 14 C -1.7273 -3.171 0.7041 0 CFG=2
M  V30 15 C 0.7441 -4.2475 -2.7365 0
M  V30 16 C -0.2357 1.6958 0.155 0
M  V30 17 C 0.8379 0.371 1.8633 0
M  V30 18 C 0.5043 -5.231 -1.6667 0
M  V30 19 F -1.772 -4.1594 1.6421 0
M  V30 20 C 0.588 2.6832 1.0438 0
M  V30 21 C -1.5508 2.2955 -0.3762 0
M  V30 22 C 1.2612 1.818 2.1391 0 CFG=2
M  V30 23 O 0.9958 -6.3508 -1.7092 0
M  V30 24 C -0.2421 3.7739 1.728 0
M  V30 25 C 2.7768 1.9796 2.1654 0
M  V30 26 O -1.1886 3.4964 2.4681 0
M  V30 27 C 0.1128 5.2258 1.4108 0
M  V30 28 O 1.4818 5.5431 1.5728 0
M  V30 29 H -0.8352 0.2918 -2.3031 0
M  V30 30 H -1.9785 -0.5361 0.0034 0
M  V30 31 H 0.3794 -2.3723 -3.5381 0
M  V30 32 H -2.8068 -1.7849 -1.5743 0
M  V30 33 H -2.5107 -3.1425 -2.6527 0
M  V30 34 H -1.9658 -1.5282 -3.1 0
M  V30 35 H 1.8385 -0.6269 -2.3888 0
M  V30 36 H 1.6616 1.0475 -0.729 0
M  V30 37 H 0.7352 2.0911 -1.7567 0
M  V30 38 H -1.2556 0.7742 1.8225 0
M  V30 39 H -1.7551 -1.6398 2.2036 0
M  V30 40 H -0.1501 -2.208 1.7953 0
M  V30 41 H -0.4967 -5.5466 0.2337 0
M  V30 42 H -2.7632 -2.9787 0.4076 0
M  V30 43 H 1.3662 -4.5746 -3.5608 0
M  V30 44 H 1.6064 -0.1529 1.2889 0
M  V30 45 H 0.7061 -0.1788 2.8014 0
M  V30 46 H 1.3401 3.1854 0.4247 0
M  V30 47 H -2.0754 1.6118 -1.0499 0
M  V30 48 H -1.361 3.2209 -0.9314 0
M  V30 49 H -2.2559 2.522 0.4291 0
M  V30 50 H 0.889 2.0981 3.1333 0
M  V30 51 H 3.2198 1.3398 2.9356 0
M  V30 52 H 3.0503 3.016 2.3883 0
M  V30 53 H 3.2258 1.7109 1.2036 0
M  V30 54 H -0.1961 5.4502 0.3851 0
M  V30 55 H -0.4581 5.8709 2.0858 0
M  V30 56 H 1.9591 5.2712 0.7714 0
M  V30 END ATOM
M  V30 BEGIN BOND
M  V30 1 1 1 2
M  V30 2 1 2 3
M  V30 3 1 2 4
M  V30 4 1 2 5
M  V30 5 1 3 6
M  V30 6 1 3 7
M  V30 7 1 3 8
M  V30 8 1 4 9
M  V30 9 1 4 10
M  V30 10 1 5 11
M  V30 11 1 5 12
M  V30 12 2 6 13
M  V30 13 1 6 14
M  V30 14 2 7 15
M  V30 15 1 10 16
M  V30 16 1 11 17
M  V30 17 1 13 18
M  V30 18 1 14 19
M  V30 19 1 16 20
M  V30 20 1 16 21
M  V30 21 1 17 22
M  V30 22 2 18 23
M  V30 23 1 20 24
M  V30 24 1 22 25
M  V30 25 2 24 26
M  V30 26 1 24 27
M  V30 27 1 27 28
M  V30 28 1 11 16
M  V30 29 1 12 14
M  V30 30 1 15 18
M  V30 31 1 20 22
M  V30 32 1 4 29
M  V30 33 1 5 30
M  V30 34 1 7 31
M  V30 35 1 8 32
M  V30 36 1 8 33
M  V30 37 1 8 34
M  V30 38 1 9 35
M  V30 39 1 10 36
M  V30 40 1 10 37
M  V30 41 1 11 38
M  V30 42 1 12 39
M  V30 43 1 12 40
M  V30 44 1 13 41
M  V30 45 1 14 42
M  V30 46 1 15 43
M  V30 47 1 17 44
M  V30 48 1 17 45
M  V30 49 1 20 46
M  V30 50 1 21 47
M  V30 51 1 21 48
M  V30 52 1 21 49
M  V30 53 1 22 50
M  V30 54 1 25 51
M  V30 55 1 25 52
M  V30 56 1 25 53
M  V30 57 1 27 54
M  V30 58 1 27 55
M  V30 59 1 28 56
M  V30 END BOND
M  V30 BEGIN COLLECTION
M  V30 MDLV30/STEABS ATOMS=(3 2 14 22)
M  V30 END COLLECTION
M  V30 END CTAB
M  END
>  <NO.>
2104

>  <Name>
diflucortolonum [inn-latin]

>  <SMILES>
C[C@@H]1CC2C3C[C@H](F)C4=CC(=O)C=CC4(C)[C@@]3(F)C(O)CC2(C)C1C(=O)CO

>  <logBB>


>  <Class>
1

>  <MW>
394.2

>  <nHBAcc>
4

>  <nHBDon>
2

>  <SLogP>
2.73

>  <TopoPSA>
74.6

>  <MMFF94 Energy>
140.66

$$$$
C[C@@H]1CC2[C@@H]3C[C@H](F)C4=CC(=O)C(Cl)=C[C@]4(C)[C@@]3(F)[C@@H](O)C[C@]2(C)[C@@]1(O)C(=O)CO
Actelion Java MolfileCreator 2.0

  0  0  0  0  0  0              0 V3000
M  V30 BEGIN CTAB
M  V30 COUNTS 57 60 0 0 0
M  V30 BEGIN ATOM
M  V30 1 Cl 2.3728 3.4379 4.914 0
M  V30 2 C 1.7079 3.4597 3.3248 0
M  V30 3 C 2.2702 4.4258 2.3472 0
M  V30 4 C 0.7016 2.6394 2.9933 0
M  V30 5 O 3.1733 5.2105 2.612 0
M  V30 6 C 1.6782 4.4104 0.9918 0
M  V30 7 C 0.0273 2.5811 1.6257 0 CFG=1
M  V30 8 C 0.6715 3.5844 0.6553 0
M  V30 9 C 0.1789 1.131 0.994 0 CFG=1
M  V30 10 C -1.4353 3.0273 1.8585 0
M  V30 11 C 0.1391 3.5487 -0.7551 0 CFG=1
M  V30 12 F 1.5387 0.9034 0.9154 0
M  V30 13 C -0.3842 -0.0323 1.8502 0 CFG=1
M  V30 14 C -0.3688 1.0719 -0.463 0 CFG=1
M  V30 15 F 0.8162 4.4126 -1.5636 0
M  V30 16 C 0.2857 2.1523 -1.3435 0
M  V30 17 O -1.7362 0.1809 2.2351 0
M  V30 18 C -0.2524 -1.3996 1.157 0
M  V30 19 C -0.2474 -0.3163 -1.1374 0
M  V30 20 C -0.8172 -1.4775 -0.299 0 CFG=1
M  V30 21 C 1.1808 -0.7821 -1.4667 0
M  V30 22 C -0.2681 -2.7482 -1.0535 0 CFG=1
M  V30 23 C -2.3584 -1.4597 -0.2368 0
M  V30 24 C 1.1021 -2.3077 -1.6519 0 CFG=2
M  V30 25 O -0.1222 -3.8286 -0.1363 0
M  V30 26 C -1.1101 -3.2326 -2.2707 0
M  V30 27 C 2.3278 -3.0208 -1.088 0
M  V30 28 O -1.7116 -2.4626 -3.0263 0
M  V30 29 C -1.0657 -4.7245 -2.5972 0
M  V30 30 O -1.9232 -5.0455 -3.6855 0
M  V30 31 H 0.3106 1.973 3.7595 0
M  V30 32 H 2.1283 5.0991 0.2835 0
M  V30 33 H -1.491 4.1049 2.0634 0
M  V30 34 H -1.8903 2.5335 2.7239 0
M  V30 35 H -2.0795 2.8346 0.9959 0
M  V30 36 H -0.9088 3.8643 -0.7717 0
M  V30 37 H 0.1984 -0.0967 2.7765 0
M  V30 38 H -1.4426 1.2959 -0.4251 0
M  V30 39 H 1.3531 1.9422 -1.4872 0
M  V30 40 H -0.1575 2.1421 -2.347 0
M  V30 41 H -1.987 -0.5292 2.8536 0
M  V30 42 H 0.812 -1.6604 1.1568 0
M  V30 43 H -0.7519 -2.1571 1.7751 0
M  V30 44 H -0.7959 -0.2586 -2.088 0
M  V30 45 H 1.8921 -0.5368 -0.675 0
M  V30 46 H 1.5488 -0.3027 -2.3809 0
M  V30 47 H -2.7476 -0.5693 0.2605 0
M  V30 48 H -2.7378 -2.3355 0.3004 0
M  V30 49 H -2.8216 -1.4496 -1.2257 0
M  V30 50 H 1.111 -2.4918 -2.7353 0
M  V30 51 H -0.9731 -3.9657 0.3176 0
M  V30 52 H 3.2416 -2.6381 -1.5551 0
M  V30 53 H 2.2774 -4.0959 -1.289 0
M  V30 54 H 2.4222 -2.879 -0.0071 0
M  V30 55 H -0.0435 -5.0017 -2.867 0
M  V30 56 H -1.3984 -5.3052 -1.7341 0
M  V30 57 H -2.0516 -4.2158 -4.1885 0
M  V30 END ATOM
M  V30 BEGIN BOND
M  V30 1 1 1 2
M  V30 2 1 2 3
M  V30 3 2 2 4
M  V30 4 2 3 5
M  V30 5 1 3 6
M  V30 6 1 4 7
M  V30 7 2 6 8
M  V30 8 1 7 9
M  V30 9 1 7 10
M  V30 10 1 8 11
M  V30 11 1 9 12
M  V30 12 1 9 13
M  V30 13 1 9 14
M  V30 14 1 11 15
M  V30 15 1 11 16
M  V30 16 1 13 17
M  V30 17 1 13 18
M  V30 18 1 14 19
M  V30 19 1 18 20
M  V30 20 1 19 21
M  V30 21 1 20 22
M  V30 22 1 20 23
M  V30 23 1 21 24
M  V30 24 1 22 25
M  V30 25 1 22 26
M  V30 26 1 24 27
M  V30 27 2 26 28
M  V30 28 1 26 29
M  V30 29 1 29 30
M  V30 30 1 7 8
M  V30 31 1 14 16
M  V30 32 1 19 20
M  V30 33 1 22 24
M  V30 34 1 4 31
M  V30 35 1 6 32
M  V30 36 1 10 33
M  V30 37 1 10 34
M  V30 38 1 10 35
M  V30 39 1 11 36
M  V30 40 1 13 37
M  V30 41 1 14 38
M  V30 42 1 16 39
M  V30 43 1 16 40
M  V30 44 1 17 41
M  V30 45 1 18 42
M  V30 46 1 18 43
M  V30 47 1 19 44
M  V30 48 1 21 45
M  V30 49 1 21 46
M  V30 50 1 23 47
M  V30 51 1 23 48
M  V30 52 1 23 49
M  V30 53 1 24 50
M  V30 54 1 25 51
M  V30 55 1 27 52
M  V30 56 1 27 53
M  V30 57 1 27 54
M  V30 58 1 29 55
M  V30 59 1 29 56
M  V30 60 1 30 57
M  V30 END BOND
M  V30 BEGIN COLLECTION
M  V30 MDLV30/STEABS ATOMS=(8 7 9 11 13 14 20 22 24)
M  V30 END COLLECTION
M  V30 END CTAB
M  END
>  <NO.>
2105

>  <Name>
halometasone

>  <SMILES>
C[C@@H]1CC2[C@@H]3C[C@H](F)C4=CC(=O)C(Cl)=C[C@]4(C)[C@@]3(F)[C@@H](O)C[C@]2(C)[C@@]1(O)C(=O)CO

>  <logBB>


>  <Class>
1

>  <MW>
444.15

>  <nHBAcc>
5

>  <nHBDon>
3

>  <SLogP>
2.41

>  <TopoPSA>
94.83

>  <MMFF94 Energy>
175.24

$$$$
C[C@@H]1CN2CC(=O)Nc3ccc(Cl)cc3[C@]2(c2ccccc2)O1
Actelion Java MolfileCreator 2.0

  0  0  0  0  0  0              0 V3000
M  V30 BEGIN CTAB
M  V30 COUNTS 40 43 0 0 0
M  V30 BEGIN ATOM
M  V30 1 Cl 1.6271 -1.6271 4.5609 0
M  V30 2 C 0.4781 -1.4687 3.2903 0
M  V30 3 C 0.7507 -0.6294 2.2094 0
M  V30 4 C -0.7092 -2.1891 3.3413 0
M  V30 5 C -0.1692 -0.4829 1.1471 0
M  V30 6 C -1.6395 -2.054 2.3124 0
M  V30 7 C -1.3847 -1.1923 1.2379 0
M  V30 8 C 0.1917 0.3461 -0.105 0 CFG=2
M  V30 9 N -2.3958 -1.0646 0.2797 0
M  V30 10 O 1.5077 0.9315 0.1147 0
M  V30 11 N -0.7257 1.4784 -0.3726 0
M  V30 12 C 0.4014 -0.5616 -1.339 0
M  V30 13 C -2.7847 0.1101 -0.3123 0
M  V30 14 C 1.4001 2.3152 -0.2315 0 CFG=1
M  V30 15 C -2.0879 1.3869 0.1525 0
M  V30 16 C -0.0284 2.6567 0.1285 0
M  V30 17 C -0.3076 -0.3882 -2.5422 0
M  V30 18 C 1.3514 -1.6041 -1.29 0
M  V30 19 O -3.6875 0.1139 -1.1489 0
M  V30 20 C 2.4286 3.12 0.5378 0
M  V30 21 C -0.0958 -1.2331 -3.6358 0
M  V30 22 C 1.5642 -2.4468 -2.3838 0
M  V30 23 C 0.837 -2.2628 -3.5554 0
M  V30 24 H 1.7044 -0.1053 2.1856 0
M  V30 25 H -0.9192 -2.8499 4.1781 0
M  V30 26 H -2.5746 -2.6066 2.3701 0
M  V30 27 H -2.9368 -1.8785 0.0135 0
M  V30 28 H 1.5768 2.4156 -1.3101 0
M  V30 29 H -2.1309 1.447 1.2474 0
M  V30 30 H -2.6771 2.2301 -0.2291 0
M  V30 31 H -0.1426 2.7538 1.216 0
M  V30 32 H -0.3651 3.5813 -0.3502 0
M  V30 33 H -1.0391 0.4101 -2.6483 0
M  V30 34 H 1.9442 -1.7583 -0.3902 0
M  V30 35 H 2.3399 4.1883 0.3194 0
M  V30 36 H 3.4402 2.7908 0.2776 0
M  V30 37 H 2.3203 2.97 1.6177 0
M  V30 38 H -0.6618 -1.0812 -4.5514 0
M  V30 39 H 2.3019 -3.2421 -2.3198 0
M  V30 40 H 1.0013 -2.9162 -4.4078 0
M  V30 END ATOM
M  V30 BEGIN BOND
M  V30 1 1 1 2
M  V30 2 2 2 3
M  V30 3 1 2 4
M  V30 4 1 3 5
M  V30 5 2 4 6
M  V30 6 2 5 7
M  V30 7 1 5 8
M  V30 8 1 7 9
M  V30 9 1 8 10
M  V30 10 1 8 11
M  V30 11 1 8 12
M  V30 12 1 9 13
M  V30 13 1 10 14
M  V30 14 1 11 15
M  V30 15 1 11 16
M  V30 16 2 12 17
M  V30 17 1 12 18
M  V30 18 2 13 19
M  V30 19 1 14 20
M  V30 20 1 17 21
M  V30 21 2 18 22
M  V30 22 2 21 23
M  V30 23 1 6 7
M  V30 24 1 13 15
M  V30 25 1 14 16
M  V30 26 1 22 23
M  V30 27 1 3 24
M  V30 28 1 4 25
M  V30 29 1 6 26
M  V30 30 1 9 27
M  V30 31 1 14 28
M  V30 32 1 15 29
M  V30 33 1 15 30
M  V30 34 1 16 31
M  V30 35 1 16 32
M  V30 36 1 17 33
M  V30 37 1 18 34
M  V30 38 1 20 35
M  V30 39 1 20 36
M  V30 40 1 20 37
M  V30 41 1 21 38
M  V30 42 1 22 39
M  V30 43 1 23 40
M  V30 END BOND
M  V30 BEGIN COLLECTION
M  V30 MDLV30/STEABS ATOMS=(2 8 14)
M  V30 END COLLECTION
M  V30 END CTAB
M  END
>  <NO.>
2106

>  <Name>
oxazolam

>  <SMILES>
C[C@@H]1CN2CC(=O)Nc3ccc(Cl)cc3[C@]2(c2ccccc2)O1

>  <logBB>


>  <Class>
1

>  <MW>
328.1

>  <nHBAcc>
3

>  <nHBDon>
1

>  <SLogP>
3.21

>  <TopoPSA>
41.57

>  <MMFF94 Energy>
69.465

$$$$
C[C@@H]1C[C@H]2C3C[C@H](F)C4=CC(=O)C=CC4(C)[C@@]3(F)[C@@H](O)CC2(C)[C@@]1(O)C(=O)COC(=O)C(C)(C)C
Actelion Java MolfileCreator 2.0

  0  0  0  0  0  0              0 V3000
M  V30 BEGIN CTAB
M  V30 COUNTS 71 74 0 0 0
M  V30 BEGIN ATOM
M  V30 1 F 3.0675 1.4521 0.1612 0
M  V30 2 C 1.9316 2.1716 0.5041 0 CFG=2
M  V30 3 C 2.4462 3.5027 1.1945 0
M  V30 4 C 1.1129 1.2071 1.419 0 CFG=1
M  V30 5 C 1.1996 2.46 -0.8501 0
M  V30 6 C 3.2857 4.2748 0.1602 0
M  V30 7 C 3.2773 3.1825 2.4369 0
M  V30 8 C 1.3122 4.4387 1.6742 0
M  V30 9 O 0.0182 1.8627 2.0493 0
M  V30 10 C 0.6012 -0.0525 0.68 0
M  V30 11 C 0.8212 1.1202 -1.5014 0 CFG=1
M  V30 12 C 2.0929 3.2852 -1.7922 0
M  V30 13 C 4.5682 4.6321 0.356 0
M  V30 14 C 2.5918 4.5697 -1.1439 0 CFG=2
M  V30 15 C 4.5546 3.5399 2.6252 0
M  V30 16 C -0.1363 0.2621 -0.6403 0
M  V30 17 C 0.1772 1.1289 -2.887 0
M  V30 18 C 5.2905 4.3032 1.6002 0
M  V30 19 F 3.4309 5.1791 -2.0297 0
M  V30 20 C -0.358 -0.9465 -1.6131 0 CFG=1
M  V30 21 C -1.487 0.97 -0.3465 0
M  V30 22 C -0.5389 -0.2411 -3.0032 0 CFG=2
M  V30 23 O 6.4514 4.6491 1.7773 0
M  V30 24 O 0.7923 -1.7956 -1.6152 0
M  V30 25 C -1.587 -1.8217 -1.2598 0
M  V30 26 C -0.0627 -1.0492 -4.2071 0
M  V30 27 O -2.7156 -1.5607 -1.687 0
M  V30 28 C -1.3373 -3.0006 -0.3229 0
M  V30 29 O -2.5758 -3.6123 0.0452 0
M  V30 30 C -2.4699 -4.5552 1.0202 0
M  V30 31 O -1.4179 -4.8591 1.5677 0
M  V30 32 C -3.8346 -5.1702 1.3396 0
M  V30 33 C -3.6724 -6.2365 2.4345 0
M  V30 34 C -4.782 -4.0739 1.8449 0
M  V30 35 C -4.4058 -5.8317 0.0784 0
M  V30 36 H 1.7687 0.8489 2.2212 0
M  V30 37 H 0.2935 3.0452 -0.6645 0
M  V30 38 H 2.7824 2.6445 3.243 0
M  V30 39 H 0.5314 4.5768 0.9205 0
M  V30 40 H 1.7007 5.4366 1.9185 0
M  V30 41 H 0.8263 4.0732 2.5853 0
M  V30 42 H -0.3925 1.2315 2.6682 0
M  V30 43 H 1.4694 -0.6924 0.4803 0
M  V30 44 H -0.063 -0.6177 1.344 0
M  V30 45 H 1.7686 0.5726 -1.6228 0
M  V30 46 H 1.5454 3.5476 -2.7055 0
M  V30 47 H 2.9535 2.6886 -2.1237 0
M  V30 48 H 5.1479 5.1635 -0.3915 0
M  V30 49 H 1.7597 5.262 -0.9789 0
M  V30 50 H 5.1007 3.3007 3.5298 0
M  V30 51 H -0.5539 1.9414 -2.9731 0
M  V30 52 H 0.9251 1.277 -3.6733 0
M  V30 53 H -2.093 0.3712 0.3433 0
M  V30 54 H -1.3687 1.9548 0.1086 0
M  V30 55 H -2.0861 1.1293 -1.2482 0
M  V30 56 H -1.6001 -0.0229 -3.1794 0
M  V30 57 H 1.4863 -1.4109 -2.1773 0
M  V30 58 H 1.0229 -1.1854 -4.2127 0
M  V30 59 H -0.5358 -2.0362 -4.2236 0
M  V30 60 H -0.3291 -0.5344 -5.1367 0
M  V30 61 H -0.722 -3.7377 -0.8487 0
M  V30 62 H -0.8276 -2.6298 0.5705 0
M  V30 63 H -3.2586 -5.8035 3.3528 0
M  V30 64 H -4.634 -6.6977 2.6865 0
M  V30 65 H -2.9923 -7.0343 2.1143 0
M  V30 66 H -4.359 -3.5581 2.7148 0
M  V30 67 H -4.9672 -3.3146 1.0766 0
M  V30 68 H -5.7519 -4.4915 2.1375 0
M  V30 69 H -3.711 -6.5781 -0.3236 0
M  V30 70 H -4.5886 -5.0982 -0.715 0
M  V30 71 H -5.3568 -6.3334 0.2896 0
M  V30 END ATOM
M  V30 BEGIN BOND
M  V30 1 1 1 2
M  V30 2 1 2 3
M  V30 3 1 2 4
M  V30 4 1 2 5
M  V30 5 1 3 6
M  V30 6 1 3 7
M  V30 7 1 3 8
M  V30 8 1 4 9
M  V30 9 1 4 10
M  V30 10 1 5 11
M  V30 11 1 5 12
M  V30 12 2 6 13
M  V30 13 1 6 14
M  V30 14 2 7 15
M  V30 15 1 10 16
M  V30 16 1 11 17
M  V30 17 1 13 18
M  V30 18 1 14 19
M  V30 19 1 16 20
M  V30 20 1 16 21
M  V30 21 1 17 22
M  V30 22 2 18 23
M  V30 23 1 20 24
M  V30 24 1 20 25
M  V30 25 1 22 26
M  V30 26 2 25 27
M  V30 27 1 25 28
M  V30 28 1 28 29
M  V30 29 1 29 30
M  V30 30 2 30 31
M  V30 31 1 30 32
M  V30 32 1 32 33
M  V30 33 1 32 34
M  V30 34 1 32 35
M  V30 35 1 11 16
M  V30 36 1 12 14
M  V30 37 1 15 18
M  V30 38 1 20 22
M  V30 39 1 4 36
M  V30 40 1 5 37
M  V30 41 1 7 38
M  V30 42 1 8 39
M  V30 43 1 8 40
M  V30 44 1 8 41
M  V30 45 1 9 42
M  V30 46 1 10 43
M  V30 47 1 10 44
M  V30 48 1 11 45
M  V30 49 1 12 46
M  V30 50 1 12 47
M  V30 51 1 13 48
M  V30 52 1 14 49
M  V30 53 1 15 50
M  V30 54 1 17 51
M  V30 55 1 17 52
M  V30 56 1 21 53
M  V30 57 1 21 54
M  V30 58 1 21 55
M  V30 59 1 22 56
M  V30 60 1 24 57
M  V30 61 1 26 58
M  V30 62 1 26 59
M  V30 63 1 26 60
M  V30 64 1 28 61
M  V30 65 1 28 62
M  V30 66 1 33 63
M  V30 67 1 33 64
M  V30 68 1 33 65
M  V30 69 1 34 66
M  V30 70 1 34 67
M  V30 71 1 34 68
M  V30 72 1 35 69
M  V30 73 1 35 70
M  V30 74 1 35 71
M  V30 END BOND
M  V30 BEGIN COLLECTION
M  V30 MDLV30/STEABS ATOMS=(6 2 4 11 14 20 22)
M  V30 END COLLECTION
M  V30 END CTAB
M  END
>  <NO.>
2107

>  <Name>
locacorten

>  <SMILES>
C[C@@H]1C[C@H]2C3C[C@H](F)C4=CC(=O)C=CC4(C)[C@@]3(F)[C@@H](O)CC2(C)[C@@]1(O)C(=O)COC(=O)C(C)(C)C

>  <logBB>


>  <Class>
1

>  <MW>
494.25

>  <nHBAcc>
6

>  <nHBDon>
2

>  <SLogP>
3.44

>  <TopoPSA>
100.9

>  <MMFF94 Energy>
160.44

$$$$
C[C@@H]1C[C@H]2[C@@H]3CCC4=CC(=O)C=C[C@]4(C)[C@@]3(Cl)[C@@H](O)C[C@]2(C)[C@@]1(O)C(=O)CCl
Actelion Java MolfileCreator 2.0

  0  0  0  0  0  0              0 V3000
M  V30 BEGIN CTAB
M  V30 COUNTS 56 59 0 0 0
M  V30 BEGIN ATOM
M  V30 1 Cl 0.4104 -0.1641 2.6292 0
M  V30 2 C -0.7613 0.4337 1.3088 0 CFG=2
M  V30 3 C -1.711 1.5317 1.9811 0 CFG=2
M  V30 4 C -1.486 -0.8637 0.802 0 CFG=1
M  V30 5 C 0.0915 1.0836 0.1503 0 CFG=2
M  V30 6 C -0.8368 2.7319 2.4026 0
M  V30 7 C -2.4755 0.9614 3.1778 0
M  V30 8 C -2.8083 2.0909 1.0396 0
M  V30 9 O -2.6217 -0.5585 -0.0043 0
M  V30 10 C -0.5718 -1.835 0.0101 0
M  V30 11 C 0.9939 0.0323 -0.5204 0 CFG=1
M  V30 12 C 0.8969 2.3064 0.633 0
M  V30 13 C -0.7842 3.2055 3.6607 0
M  V30 14 C 0.0133 3.3469 1.3185 0
M  V30 15 C -2.4176 1.442 4.4271 0
M  V30 16 C 0.2113 -1.1551 -1.1375 0 CFG=1
M  V30 17 C 1.9251 0.4801 -1.6438 0
M  V30 18 C -1.5729 2.6057 4.7569 0
M  V30 19 C 1.4116 -1.9628 -1.7439 0 CFG=1
M  V30 20 C -0.7614 -0.7226 -2.2702 0
M  V30 21 C 2.281 -0.8263 -2.3993 0 CFG=2
M  V30 22 O -1.53 3.0587 5.8939 0
M  V30 23 O 2.1374 -2.5996 -0.6868 0
M  V30 24 C 0.9963 -3.054 -2.7593 0
M  V30 25 C 3.7867 -1.0738 -2.4142 0
M  V30 26 O 1.1627 -2.9076 -3.9733 0
M  V30 27 C 0.4077 -4.3333 -2.2025 0
M  V30 28 Cl -1.2283 -4.5718 -2.8391 0
M  V30 29 H -1.8803 -1.4147 1.6647 0
M  V30 30 H -0.5951 1.4631 -0.613 0
M  V30 31 H -3.1306 0.1135 2.9897 0
M  V30 32 H -3.6381 1.3901 0.8992 0
M  V30 33 H -2.4284 2.3525 0.0485 0
M  V30 34 H -3.2577 3.0029 1.4559 0
M  V30 35 H -3.0713 -1.3951 -0.2223 0
M  V30 36 H -1.1872 -2.6435 -0.3996 0
M  V30 37 H 0.1238 -2.3055 0.7139 0
M  V30 38 H 1.6637 -0.3554 0.2601 0
M  V30 39 H 1.6996 1.997 1.3132 0
M  V30 40 H 1.3901 2.7872 -0.2201 0
M  V30 41 H -0.1582 4.0424 3.9484 0
M  V30 42 H -0.636 3.8262 0.5764 0
M  V30 43 H 0.6535 4.1426 1.7191 0
M  V30 44 H -2.9838 1.0121 5.2443 0
M  V30 45 H 1.4185 1.1787 -2.32 0
M  V30 46 H 2.8099 0.9913 -1.2494 0
M  V30 47 H -0.2428 -0.3708 -3.1668 0
M  V30 48 H -1.4312 0.0875 -1.9771 0
M  V30 49 H -1.3935 -1.5609 -2.5794 0
M  V30 50 H 1.9794 -0.678 -3.444 0
M  V30 51 H 2.9928 -2.9105 -1.0323 0
M  V30 52 H 4.2049 -1.1045 -1.4028 0
M  V30 53 H 4.2984 -0.2702 -2.9551 0
M  V30 54 H 4.0214 -2.0166 -2.9181 0
M  V30 55 H 0.3512 -4.3187 -1.1132 0
M  V30 56 H 1.0374 -5.1747 -2.5046 0
M  V30 END ATOM
M  V30 BEGIN BOND
M  V30 1 1 1 2
M  V30 2 1 2 3
M  V30 3 1 2 4
M  V30 4 1 2 5
M  V30 5 1 3 6
M  V30 6 1 3 7
M  V30 7 1 3 8
M  V30 8 1 4 9
M  V30 9 1 4 10
M  V30 10 1 5 11
M  V30 11 1 5 12
M  V30 12 2 6 13
M  V30 13 1 6 14
M  V30 14 2 7 15
M  V30 15 1 10 16
M  V30 16 1 11 17
M  V30 17 1 13 18
M  V30 18 1 16 19
M  V30 19 1 16 20
M  V30 20 1 17 21
M  V30 21 2 18 22
M  V30 22 1 19 23
M  V30 23 1 19 24
M  V30 24 1 21 25
M  V30 25 2 24 26
M  V30 26 1 24 27
M  V30 27 1 27 28
M  V30 28 1 11 16
M  V30 29 1 12 14
M  V30 30 1 15 18
M  V30 31 1 19 21
M  V30 32 1 4 29
M  V30 33 1 5 30
M  V30 34 1 7 31
M  V30 35 1 8 32
M  V30 36 1 8 33
M  V30 37 1 8 34
M  V30 38 1 9 35
M  V30 39 1 10 36
M  V30 40 1 10 37
M  V30 41 1 11 38
M  V30 42 1 12 39
M  V30 43 1 12 40
M  V30 44 1 13 41
M  V30 45 1 14 42
M  V30 46 1 14 43
M  V30 47 1 15 44
M  V30 48 1 17 45
M  V30 49 1 17 46
M  V30 50 1 20 47
M  V30 51 1 20 48
M  V30 52 1 20 49
M  V30 53 1 21 50
M  V30 54 1 23 51
M  V30 55 1 25 52
M  V30 56 1 25 53
M  V30 57 1 25 54
M  V30 58 1 27 55
M  V30 59 1 27 56
M  V30 END BOND
M  V30 BEGIN COLLECTION
M  V30 MDLV30/STEABS ATOMS=(8 2 3 4 5 11 16 19 21)
M  V30 END COLLECTION
M  V30 END CTAB
M  END
>  <NO.>
2108

>  <Name>
mometasone

>  <SMILES>
C[C@@H]1C[C@H]2[C@@H]3CCC4=CC(=O)C=C[C@]4(C)[C@@]3(Cl)[C@@H](O)C[C@]2(C)[C@@]1(O)C(=O)CCl

>  <logBB>


>  <Class>
1

>  <MW>
426.14

>  <nHBAcc>
4

>  <nHBDon>
2

>  <SLogP>
3.41

>  <TopoPSA>
74.6

>  <MMFF94 Energy>
165.74

$$$$
C[C@@H]1C[C@H]2[C@@H]3CCC4=CC(=O)C=C[C@]4(C)[C@@]3(F)[C@@H](O)C[C@]2(C)[C@@]1(C)C(=O)CO
Actelion Java MolfileCreator 2.0

  0  0  0  0  0  0              0 V3000
M  V30 BEGIN CTAB
M  V30 COUNTS 59 62 0 0 0
M  V30 BEGIN ATOM
M  V30 1 F 1.0494 0.4842 -1.9381 0
M  V30 2 C 0.7666 1.274 -0.831 0 CFG=2
M  V30 3 C 1.0041 2.7732 -1.2843 0 CFG=2
M  V30 4 C 1.7261 0.7452 0.2792 0 CFG=1
M  V30 5 C -0.7351 0.9953 -0.49 0 CFG=2
M  V30 6 C 0.0132 3.0796 -2.4229 0
M  V30 7 C 2.4456 2.9797 -1.7501 0
M  V30 8 C 0.7681 3.8121 -0.1633 0
M  V30 9 O 1.7494 1.5819 1.4295 0
M  V30 10 C 1.4199 -0.7135 0.7002 0
M  V30 11 C -0.9047 -0.4958 -0.148 0 CFG=1
M  V30 12 C -1.6501 1.3856 -1.6674 0
M  V30 13 C 0.3859 3.4962 -3.6463 0
M  V30 14 C -1.4402 2.8287 -2.1134 0
M  V30 15 C 2.8117 3.3938 -2.9704 0
M  V30 16 C -0.0628 -0.9635 1.0633 0 CFG=1
M  V30 17 C -2.3097 -1.0111 0.1427 0
M  V30 18 C 1.8048 3.6931 -4.0054 0
M  V30 19 C -0.5433 -2.4693 1.1851 0 CFG=2
M  V30 20 C -0.4162 -0.1933 2.3698 0
M  V30 21 C -2.1034 -2.3157 0.9487 0 CFG=2
M  V30 22 O 2.1325 4.0887 -5.117 0
M  V30 23 C -0.2766 -3.0689 2.5908 0
M  V30 24 C 0.0906 -3.4176 0.1425 0
M  V30 25 C -2.8082 -3.5065 0.303 0
M  V30 26 O -1.1499 -3.1373 3.4631 0
M  V30 27 C 1.1219 -3.5921 2.9155 0
M  V30 28 O 1.3063 -3.7283 4.318 0
M  V30 29 H 2.7468 0.7391 -0.121 0
M  V30 30 H -1.0372 1.6016 0.3697 0
M  V30 31 H 3.2333 2.8019 -1.0213 0
M  V30 32 H -0.1595 3.6345 0.3886 0
M  V30 33 H 0.7059 4.8288 -0.574 0
M  V30 34 H 1.5845 3.8313 0.5666 0
M  V30 35 H 2.4077 1.2232 2.0515 0
M  V30 36 H 2.0592 -0.9816 1.5477 0
M  V30 37 H 1.7135 -1.353 -0.1394 0
M  V30 38 H -0.5664 -1.0434 -1.0398 0
M  V30 39 H -2.7017 1.2599 -1.3832 0
M  V30 40 H -1.4717 0.7134 -2.5171 0
M  V30 41 H -0.3231 3.6937 -4.4422 0
M  V30 42 H -1.7778 3.518 -1.3307 0
M  V30 43 H -2.0737 3.0249 -2.9872 0
M  V30 44 H 3.8477 3.5387 -3.2512 0
M  V30 45 H -2.8765 -0.2881 0.7416 0
M  V30 46 H -2.8706 -1.1775 -0.7834 0
M  V30 47 H -0.3677 0.8911 2.2595 0
M  V30 48 H -1.4276 -0.4073 2.7283 0
M  V30 49 H 0.2763 -0.4631 3.1754 0
M  V30 50 H -2.6132 -2.1625 1.9087 0
M  V30 51 H 1.1819 -3.4456 0.2224 0
M  V30 52 H -0.2478 -4.4496 0.2931 0
M  V30 53 H -0.1526 -3.1397 -0.8867 0
M  V30 54 H -3.8895 -3.3324 0.2671 0
M  V30 55 H -2.4732 -3.6753 -0.725 0
M  V30 56 H -2.6394 -4.4204 0.8815 0
M  V30 57 H 1.2513 -4.5754 2.456 0
M  V30 58 H 1.8856 -2.9082 2.5482 0
M  V30 59 H 0.414 -3.8818 4.6926 0
M  V30 END ATOM
M  V30 BEGIN BOND
M  V30 1 1 1 2
M  V30 2 1 2 3
M  V30 3 1 2 4
M  V30 4 1 2 5
M  V30 5 1 3 6
M  V30 6 1 3 7
M  V30 7 1 3 8
M  V30 8 1 4 9
M  V30 9 1 4 10
M  V30 10 1 5 11
M  V30 11 1 5 12
M  V30 12 2 6 13
M  V30 13 1 6 14
M  V30 14 2 7 15
M  V30 15 1 10 16
M  V30 16 1 11 17
M  V30 17 1 13 18
M  V30 18 1 16 19
M  V30 19 1 16 20
M  V30 20 1 17 21
M  V30 21 2 18 22
M  V30 22 1 19 23
M  V30 23 1 19 24
M  V30 24 1 21 25
M  V30 25 2 23 26
M  V30 26 1 23 27
M  V30 27 1 27 28
M  V30 28 1 11 16
M  V30 29 1 12 14
M  V30 30 1 15 18
M  V30 31 1 19 21
M  V30 32 1 4 29
M  V30 33 1 5 30
M  V30 34 1 7 31
M  V30 35 1 8 32
M  V30 36 1 8 33
M  V30 37 1 8 34
M  V30 38 1 9 35
M  V30 39 1 10 36
M  V30 40 1 10 37
M  V30 41 1 11 38
M  V30 42 1 12 39
M  V30 43 1 12 40
M  V30 44 1 13 41
M  V30 45 1 14 42
M  V30 46 1 14 43
M  V30 47 1 15 44
M  V30 48 1 17 45
M  V30 49 1 17 46
M  V30 50 1 20 47
M  V30 51 1 20 48
M  V30 52 1 20 49
M  V30 53 1 21 50
M  V30 54 1 24 51
M  V30 55 1 24 52
M  V30 56 1 24 53
M  V30 57 1 25 54
M  V30 58 1 25 55
M  V30 59 1 25 56
M  V30 60 1 27 57
M  V30 61 1 27 58
M  V30 62 1 28 59
M  V30 END BOND
M  V30 BEGIN COLLECTION
M  V30 MDLV30/STEABS ATOMS=(8 2 3 4 5 11 16 19 21)
M  V30 END COLLECTION
M  V30 END CTAB
M  END
>  <NO.>
2109

>  <Name>
dimesone

>  <SMILES>
C[C@@H]1C[C@H]2[C@@H]3CCC4=CC(=O)C=C[C@]4(C)[C@@]3(F)[C@@H](O)C[C@]2(C)[C@@]1(C)C(=O)CO

>  <logBB>


>  <Class>
1

>  <MW>
390.22

>  <nHBAcc>
4

>  <nHBDon>
2

>  <SLogP>
3.17

>  <TopoPSA>
74.6

>  <MMFF94 Energy>
161.54

$$$$
C[C@@H]1C[C@H]2[C@@H]3CCC4=CC(=O)C=C[C@]4(C)[C@@]3(F)[C@@H](O)C[C@]2(C)[C@H]1C(=O)CO
Actelion Java MolfileCreator 2.0

  0  0  0  0  0  0              0 V3000
M  V30 BEGIN CTAB
M  V30 COUNTS 56 59 0 0 0
M  V30 BEGIN ATOM
M  V30 1 F 1.3731 -0.1614 -1.6156 0
M  V30 2 C 0.4661 -1.0292 -1.0214 0 CFG=2
M  V30 3 C 0.8478 -2.4817 -1.525 0 CFG=2
M  V30 4 C -0.9324 -0.5031 -1.476 0 CFG=1
M  V30 5 C 0.6812 -0.8694 0.5221 0 CFG=2
M  V30 6 C 2.2738 -2.7886 -1.0301 0
M  V30 7 C 0.7732 -2.5663 -3.0497 0
M  V30 8 C -0.0843 -3.5948 -0.9926 0
M  V30 9 O -1.9852 -1.3994 -1.1386 0
M  V30 10 C -1.2602 0.9054 -0.9256 0
M  V30 11 C 0.3854 0.5853 0.9142 0 CFG=1
M  V30 12 C 2.1165 -1.254 0.926 0
M  V30 13 C 3.2945 -3.1101 -1.8449 0
M  V30 14 C 2.4972 -2.653 0.4542 0
M  V30 15 C 1.7935 -2.8859 -3.8568 0
M  V30 16 C -1.0594 1.0239 0.5965 0 CFG=1
M  V30 17 C 0.5865 1.0202 2.3641 0
M  V30 18 C 3.1282 -3.192 -3.3099 0
M  V30 19 C -0.992 2.4784 1.1323 0 CFG=2
M  V30 20 C -2.1409 0.2126 1.3547 0
M  V30 21 C -0.2058 2.3459 2.4704 0 CFG=2
M  V30 22 O 4.0602 -3.5013 -4.0413 0
M  V30 23 C -2.3439 3.1642 1.2986 0
M  V30 24 C 0.7073 3.5453 2.7064 0
M  V30 25 O -3.0345 3.051 2.314 0
M  V30 26 C -2.8213 4.0309 0.1386 0
M  V30 27 O -4.1931 4.369 0.2693 0
M  V30 28 H -0.9333 -0.4144 -2.5684 0
M  V30 29 H -1.0E-4 -1.5365 1.0598 0
M  V30 30 H -0.1938 -2.3781 -3.5109 0
M  V30 31 H -0.2736 -3.5089 0.0814 0
M  V30 32 H 0.3507 -4.5887 -1.1621 0
M  V30 33 H -1.0566 -3.6012 -1.4967 0
M  V30 34 H -2.8176 -1.0339 -1.4887 0
M  V30 35 H -0.6123 1.6306 -1.4352 0
M  V30 36 H -2.2932 1.1694 -1.1825 0
M  V30 37 H 1.0722 1.2128 0.3213 0
M  V30 38 H 2.2221 -1.2134 2.0166 0
M  V30 39 H 2.8279 -0.5259 0.514 0
M  V30 40 H 4.2965 -3.3092 -1.4824 0
M  V30 41 H 1.9061 -3.4051 0.9891 0
M  V30 42 H 3.5446 -2.8429 0.7187 0
M  V30 43 H 1.6894 -2.9459 -4.9332 0
M  V30 44 H 0.1743 0.2771 3.0566 0
M  V30 45 H 1.6466 1.1442 2.609 0
M  V30 46 H -0.4037 3.0997 0.4418 0
M  V30 47 H -2.0423 -0.8657 1.217 0
M  V30 48 H -2.1146 0.384 2.4356 0
M  V30 49 H -3.1439 0.4906 1.0107 0
M  V30 50 H -0.8848 2.2763 3.3289 0
M  V30 51 H 1.4475 3.6482 1.9058 0
M  V30 52 H 1.2479 3.4372 3.6526 0
M  V30 53 H 0.1257 4.4718 2.7538 0
M  V30 54 H -2.2323 4.9519 0.1231 0
M  V30 55 H -2.6932 3.4969 -0.8047 0
M  V30 56 H -4.3931 4.3288 1.2272 0
M  V30 END ATOM
M  V30 BEGIN BOND
M  V30 1 1 1 2
M  V30 2 1 2 3
M  V30 3 1 2 4
M  V30 4 1 2 5
M  V30 5 1 3 6
M  V30 6 1 3 7
M  V30 7 1 3 8
M  V30 8 1 4 9
M  V30 9 1 4 10
M  V30 10 1 5 11
M  V30 11 1 5 12
M  V30 12 2 6 13
M  V30 13 1 6 14
M  V30 14 2 7 15
M  V30 15 1 10 16
M  V30 16 1 11 17
M  V30 17 1 13 18
M  V30 18 1 16 19
M  V30 19 1 16 20
M  V30 20 1 17 21
M  V30 21 2 18 22
M  V30 22 1 19 23
M  V30 23 1 21 24
M  V30 24 2 23 25
M  V30 25 1 23 26
M  V30 26 1 26 27
M  V30 27 1 11 16
M  V30 28 1 12 14
M  V30 29 1 15 18
M  V30 30 1 19 21
M  V30 31 1 4 28
M  V30 32 1 5 29
M  V30 33 1 7 30
M  V30 34 1 8 31
M  V30 35 1 8 32
M  V30 36 1 8 33
M  V30 37 1 9 34
M  V30 38 1 10 35
M  V30 39 1 10 36
M  V30 40 1 11 37
M  V30 41 1 12 38
M  V30 42 1 12 39
M  V30 43 1 13 40
M  V30 44 1 14 41
M  V30 45 1 14 42
M  V30 46 1 15 43
M  V30 47 1 17 44
M  V30 48 1 17 45
M  V30 49 1 19 46
M  V30 50 1 20 47
M  V30 51 1 20 48
M  V30 52 1 20 49
M  V30 53 1 21 50
M  V30 54 1 24 51
M  V30 55 1 24 52
M  V30 56 1 24 53
M  V30 57 1 26 54
M  V30 58 1 26 55
M  V30 59 1 27 56
M  V30 END BOND
M  V30 BEGIN COLLECTION
M  V30 MDLV30/STEABS ATOMS=(8 2 3 4 5 11 16 19 21)
M  V30 END COLLECTION
M  V30 END CTAB
M  END
>  <NO.>
2110

>  <Name>
desoximetasone

>  <SMILES>
C[C@@H]1C[C@H]2[C@@H]3CCC4=CC(=O)C=C[C@]4(C)[C@@]3(F)[C@@H](O)C[C@]2(C)[C@H]1C(=O)CO

>  <logBB>


>  <Class>
1

>  <MW>
376.2

>  <nHBAcc>
4

>  <nHBDon>
2

>  <SLogP>
2.78

>  <TopoPSA>
74.6

>  <MMFF94 Energy>
145.76

$$$$
C[C@@H]1C[C@H]2[C@@H]3C[C@H](F)C4=CC(=O)C=C[C@]4(C)C3(Cl)[C@@H](F)C[C@]2(C)[C@H]1C(=O)CO
Actelion Java MolfileCreator 2.0

  0  0  0  0  0  0              0 V3000
M  V30 BEGIN CTAB
M  V30 COUNTS 55 58 0 0 0
M  V30 BEGIN ATOM
M  V30 1 Cl -0.7367 -0.3273 -2.4573 0
M  V30 2 C 0.6459 -0.4835 -1.2306 0
M  V30 3 C 2.01 -0.5862 -2.0524 0 CFG=2
M  V30 4 C 0.3041 -1.7475 -0.3877 0 CFG=1
M  V30 5 C 0.6497 0.8012 -0.3152 0 CFG=2
M  V30 6 C 2.2328 0.747 -2.7944 0
M  V30 7 C 1.9991 -1.7654 -3.0277 0
M  V30 8 C 3.2523 -0.8297 -1.1584 0
M  V30 9 F 1.3635 -2.0684 0.4053 0
M  V30 10 C -0.9278 -1.5991 0.5339 0
M  V30 11 C -0.6462 0.8805 0.5073 0 CFG=1
M  V30 12 C 0.9132 2.0845 -1.1207 0
M  V30 13 C 2.4079 0.8325 -4.1262 0
M  V30 14 C 2.1979 1.9918 -1.9401 0 CFG=2
M  V30 15 C 2.1771 -1.6672 -4.3521 0
M  V30 16 C -0.8521 -0.346 1.4276 0 CFG=1
M  V30 17 C -0.8619 2.0699 1.4375 0
M  V30 18 C 2.4028 -0.3595 -4.9973 0
M  V30 19 F 2.2814 3.12 -2.7014 0
M  V30 20 C -2.1868 0.0733 2.1 0 CFG=2
M  V30 21 C 0.2559 -0.5233 2.4994 0
M  V30 22 C -1.9923 1.5981 2.3837 0 CFG=2
M  V30 23 O 2.5811 -0.2707 -6.2049 0
M  V30 24 C -2.5577 -0.7195 3.3551 0
M  V30 25 C -3.2868 2.3767 2.1655 0
M  V30 26 O -2.2458 -0.3327 4.4839 0
M  V30 27 C -3.2457 -2.0731 3.1689 0
M  V30 28 O -4.1634 -2.1502 2.0961 0
M  V30 29 H 0.1384 -2.6136 -1.0375 0
M  V30 30 H 1.4808 0.7189 0.393 0
M  V30 31 H 1.8624 -2.7621 -2.6121 0
M  V30 32 H 3.2763 -1.846 -0.7499 0
M  V30 33 H 3.3137 -0.1384 -0.3134 0
M  V30 34 H 4.181 -0.7096 -1.7325 0
M  V30 35 H -1.8364 -1.5661 -0.0785 0
M  V30 36 H -1.0052 -2.4952 1.1603 0
M  V30 37 H -1.4845 0.9251 -0.2039 0
M  V30 38 H 1.0015 2.9444 -0.4453 0
M  V30 39 H 0.0685 2.3216 -1.7791 0
M  V30 40 H 2.5501 1.7792 -4.6375 0
M  V30 41 H 3.0676 2.0036 -1.2747 0
M  V30 42 H 2.174 -2.5301 -5.0074 0
M  V30 43 H 0.0456 2.2896 2.0113 0
M  V30 44 H -1.1274 2.9772 0.8848 0
M  V30 45 H -3.0129 -0.0369 1.3853 0
M  V30 46 H 0.2721 0.2941 3.2272 0
M  V30 47 H 1.2601 -0.5749 2.0741 0
M  V30 48 H 0.1019 -1.4505 3.0633 0
M  V30 49 H -1.6713 1.7797 3.4163 0
M  V30 50 H -3.6402 2.2841 1.133 0
M  V30 51 H -4.0759 2.0102 2.8301 0
M  V30 52 H -3.1361 3.4409 2.3751 0
M  V30 53 H -2.4802 -2.8449 3.0464 0
M  V30 54 H -3.803 -2.2898 4.0859 0
M  V30 55 H -3.6693 -2.343 1.2826 0
M  V30 END ATOM
M  V30 BEGIN BOND
M  V30 1 1 1 2
M  V30 2 1 2 3
M  V30 3 1 2 4
M  V30 4 1 2 5
M  V30 5 1 3 6
M  V30 6 1 3 7
M  V30 7 1 3 8
M  V30 8 1 4 9
M  V30 9 1 4 10
M  V30 10 1 5 11
M  V30 11 1 5 12
M  V30 12 2 6 13
M  V30 13 1 6 14
M  V30 14 2 7 15
M  V30 15 1 10 16
M  V30 16 1 11 17
M  V30 17 1 13 18
M  V30 18 1 14 19
M  V30 19 1 16 20
M  V30 20 1 16 21
M  V30 21 1 17 22
M  V30 22 2 18 23
M  V30 23 1 20 24
M  V30 24 1 22 25
M  V30 25 2 24 26
M  V30 26 1 24 27
M  V30 27 1 27 28
M  V30 28 1 11 16
M  V30 29 1 12 14
M  V30 30 1 15 18
M  V30 31 1 20 22
M  V30 32 1 4 29
M  V30 33 1 5 30
M  V30 34 1 7 31
M  V30 35 1 8 32
M  V30 36 1 8 33
M  V30 37 1 8 34
M  V30 38 1 10 35
M  V30 39 1 10 36
M  V30 40 1 11 37
M  V30 41 1 12 38
M  V30 42 1 12 39
M  V30 43 1 13 40
M  V30 44 1 14 41
M  V30 45 1 15 42
M  V30 46 1 17 43
M  V30 47 1 17 44
M  V30 48 1 20 45
M  V30 49 1 21 46
M  V30 50 1 21 47
M  V30 51 1 21 48
M  V30 52 1 22 49
M  V30 53 1 25 50
M  V30 54 1 25 51
M  V30 55 1 25 52
M  V30 56 1 27 53
M  V30 57 1 27 54
M  V30 58 1 28 55
M  V30 END BOND
M  V30 BEGIN COLLECTION
M  V30 MDLV30/STEABS ATOMS=(8 3 4 5 11 14 16 20 22)
M  V30 END COLLECTION
M  V30 END CTAB
M  END
>  <NO.>
2111

>  <Name>
halocortolone

>  <SMILES>
C[C@@H]1C[C@H]2[C@@H]3C[C@H](F)C4=CC(=O)C=C[C@]4(C)C3(Cl)[C@@H](F)C[C@]2(C)[C@H]1C(=O)CO

>  <logBB>


>  <Class>
1

>  <MW>
412.16

>  <nHBAcc>
3

>  <nHBDon>
1

>  <SLogP>
3.98

>  <TopoPSA>
54.37

>  <MMFF94 Energy>
132.63

$$$$
C[C@@H]1C[C@H]2[C@@H]3C[C@H](F)C4=CC(=O)C=C[C@]4(C)[C@@]3(F)[C@@H](O)C[C@]2(C)[C@@]1(O)C(=O)CO
Actelion Java MolfileCreator 2.0

  0  0  0  0  0  0              0 V3000
M  V30 BEGIN CTAB
M  V30 COUNTS 57 60 0 0 0
M  V30 BEGIN ATOM
M  V30 1 F 0.3243 -1.0544 1.8661 0
M  V30 2 C -0.7944 -0.6563 1.1486 0 CFG=2
M  V30 3 C -2.0122 -0.7205 2.1612 0 CFG=2
M  V30 4 C -0.8639 -1.6448 -0.0576 0 CFG=1
M  V30 5 C -0.4916 0.8104 0.6896 0 CFG=2
M  V30 6 C -1.7235 0.2663 3.3071 0
M  V30 7 C -2.1942 -2.139 2.7006 0
M  V30 8 C -3.3705 -0.3295 1.5334 0
M  V30 9 O -2.0816 -1.522 -0.7833 0
M  V30 10 C 0.3319 -1.5079 -1.0299 0
M  V30 11 C 0.7576 0.7993 -0.2056 0 CFG=1
M  V30 12 C -0.278 1.7325 1.9022 0
M  V30 13 C -1.6685 -0.0897 4.6035 0
M  V30 14 C -1.4421 1.684 2.8826 0 CFG=2
M  V30 15 C -2.1369 -2.4874 3.9929 0
M  V30 16 C 0.5943 -0.0556 -1.4843 0 CFG=1
M  V30 17 C 1.3167 2.1286 -0.7108 0
M  V30 18 C -1.8801 -1.4828 5.0416 0
M  V30 19 F -1.1154 2.4693 3.9487 0
M  V30 20 C 1.979 0.2157 -2.1641 0 CFG=1
M  V30 21 C -0.5582 0.4379 -2.4012 0
M  V30 22 C 2.1735 1.7567 -1.9486 0 CFG=2
M  V30 23 O -1.8454 -1.7945 6.2248 0
M  V30 24 O 3.0116 -0.528 -1.5116 0
M  V30 25 C 2.0209 -0.1569 -3.6624 0
M  V30 26 C 3.6229 2.2144 -1.8137 0
M  V30 27 O 1.7196 0.6363 -4.5609 0
M  V30 28 C 2.4431 -1.5786 -4.0182 0
M  V30 29 O 2.0571 -1.9129 -5.3461 0
M  V30 30 H -0.8306 -2.6696 0.3297 0
M  V30 31 H -1.3423 1.2054 0.1256 0
M  V30 32 H -2.4148 -2.9224 1.9786 0
M  V30 33 H -4.128 -0.1541 2.3091 0
M  V30 34 H -3.3112 0.5835 0.934 0
M  V30 35 H -3.7751 -1.1177 0.8896 0
M  V30 36 H -2.089 -2.208 -1.4758 0
M  V30 37 H 1.2179 -1.9064 -0.5208 0
M  V30 38 H 0.1601 -2.1402 -1.9087 0
M  V30 39 H 1.558 0.3602 0.4095 0
M  V30 40 H 0.6489 1.4656 2.4273 0
M  V30 41 H -0.1436 2.7703 1.5741 0
M  V30 42 H -1.4487 0.6183 5.3958 0
M  V30 43 H -2.3373 2.1271 2.4344 0
M  V30 44 H -2.2851 -3.5062 4.3301 0
M  V30 45 H 1.9012 2.6357 0.0642 0
M  V30 46 H 0.5071 2.8063 -1.0064 0
M  V30 47 H -0.3663 1.4273 -2.8269 0
M  V30 48 H -1.5165 0.5179 -1.8853 0
M  V30 49 H -0.7046 -0.2519 -3.2401 0
M  V30 50 H 1.7525 2.3112 -2.7973 0
M  V30 51 H 3.2621 -0.0861 -0.6823 0
M  V30 52 H 4.2165 1.8807 -2.6707 0
M  V30 53 H 4.0932 1.8391 -0.8997 0
M  V30 54 H 3.672 3.3082 -1.7778 0
M  V30 55 H 3.5308 -1.6569 -3.9411 0
M  V30 56 H 1.9722 -2.2963 -3.345 0
M  V30 57 H 2.1108 -1.0812 -5.8586 0
M  V30 END ATOM
M  V30 BEGIN BOND
M  V30 1 1 1 2
M  V30 2 1 2 3
M  V30 3 1 2 4
M  V30 4 1 2 5
M  V30 5 1 3 6
M  V30 6 1 3 7
M  V30 7 1 3 8
M  V30 8 1 4 9
M  V30 9 1 4 10
M  V30 10 1 5 11
M  V30 11 1 5 12
M  V30 12 2 6 13
M  V30 13 1 6 14
M  V30 14 2 7 15
M  V30 15 1 10 16
M  V30 16 1 11 17
M  V30 17 1 13 18
M  V30 18 1 14 19
M  V30 19 1 16 20
M  V30 20 1 16 21
M  V30 21 1 17 22
M  V30 22 2 18 23
M  V30 23 1 20 24
M  V30 24 1 20 25
M  V30 25 1 22 26
M  V30 26 2 25 27
M  V30 27 1 25 28
M  V30 28 1 28 29
M  V30 29 1 11 16
M  V30 30 1 12 14
M  V30 31 1 15 18
M  V30 32 1 20 22
M  V30 33 1 4 30
M  V30 34 1 5 31
M  V30 35 1 7 32
M  V30 36 1 8 33
M  V30 37 1 8 34
M  V30 38 1 8 35
M  V30 39 1 9 36
M  V30 40 1 10 37
M  V30 41 1 10 38
M  V30 42 1 11 39
M  V30 43 1 12 40
M  V30 44 1 12 41
M  V30 45 1 13 42
M  V30 46 1 14 43
M  V30 47 1 15 44
M  V30 48 1 17 45
M  V30 49 1 17 46
M  V30 50 1 21 47
M  V30 51 1 21 48
M  V30 52 1 21 49
M  V30 53 1 22 50
M  V30 54 1 24 51
M  V30 55 1 26 52
M  V30 56 1 26 53
M  V30 57 1 26 54
M  V30 58 1 28 55
M  V30 59 1 28 56
M  V30 60 1 29 57
M  V30 END BOND
M  V30 BEGIN COLLECTION
M  V30 MDLV30/STEABS ATOMS=(9 2 3 4 5 11 14 16 20 22)
M  V30 END COLLECTION
M  V30 END CTAB
M  END
>  <NO.>
2112

>  <Name>
flumethasone(flumetasoneanddiflorasone)

>  <SMILES>
C[C@@H]1C[C@H]2[C@@H]3C[C@H](F)C4=CC(=O)C=C[C@]4(C)[C@@]3(F)[C@@H](O)C[C@]2(C)[C@@]1(O)C(=O)CO

>  <logBB>


>  <Class>
1

>  <MW>
410.19

>  <nHBAcc>
5

>  <nHBDon>
3

>  <SLogP>
1.84

>  <TopoPSA>
94.83

>  <MMFF94 Energy>
168.87

$$$$
C[C@@H]1C[C@H]2[C@@H]3C[C@H](F)C4=CC(=O)C=C[C@]4(C)[C@@]3(F)[C@@H](O)C[C@]2(C)[C@H]1C(=O)COC(=O)C(C)(C)C
Actelion Java MolfileCreator 2.0

  0  0  0  0  0  0              0 V3000
M  V30 BEGIN CTAB
M  V30 COUNTS 70 73 0 0 0
M  V30 BEGIN ATOM
M  V30 1 F -1.9347 2.7417 0.0805 0
M  V30 2 C -1.5169 2.2104 1.292 0 CFG=2
M  V30 3 C -1.9054 3.2775 2.398 0 CFG=2
M  V30 4 C 0.0119 1.9558 1.1051 0 CFG=1
M  V30 5 C -2.318 0.8752 1.4611 0 CFG=2
M  V30 6 C -3.4363 3.4379 2.3799 0
M  V30 7 C -1.2171 4.6152 2.1259 0
M  V30 8 C -1.4907 2.8734 3.8321 0
M  V30 9 O 0.6513 1.6102 2.3286 0
M  V30 10 C 0.3254 0.8794 0.0386 0
M  V30 11 C -1.9623 -0.0643 0.3006 0 CFG=1
M  V30 12 C -3.8323 1.1418 1.4935 0
M  V30 13 C -4.0624 4.6112 2.1749 0
M  V30 14 C -4.2206 2.1633 2.5537 0 CFG=2
M  V30 15 C -1.8463 5.7801 1.9214 0
M  V30 16 C -0.4633 -0.4275 0.2435 0 CFG=1
M  V30 17 C -2.6682 -1.4136 0.1951 0
M  V30 18 C -3.3185 5.8643 1.9425 0
M  V30 19 F -5.5621 2.3837 2.443 0
M  V30 20 C -0.4915 -1.3713 -0.9881 0 CFG=2
M  V30 21 C 0.0461 -1.1818 1.4975 0
M  V30 22 C -1.7757 -2.2273 -0.7723 0 CFG=2
M  V30 23 O -3.8958 6.9307 1.7753 0
M  V30 24 C 0.765 -2.2204 -1.1852 0
M  V30 25 C -2.48 -2.5248 -2.0927 0
M  V30 26 O 0.9198 -3.2957 -0.6052 0
M  V30 27 C 1.8163 -1.6448 -2.1289 0
M  V30 28 O 2.9411 -2.5143 -2.2297 0
M  V30 29 C 3.9632 -2.0152 -2.9765 0
M  V30 30 O 3.9392 -0.9156 -3.5148 0
M  V30 31 C 5.1296 -3.0029 -3.0451 0
M  V30 32 C 6.2579 -2.404 -3.8994 0
M  V30 33 C 5.6592 -3.2659 -1.6294 0
M  V30 34 C 4.6541 -4.3112 -3.6903 0
M  V30 35 H 0.4804 2.8828 0.7551 0
M  V30 36 H -2.048 0.4005 2.4098 0
M  V30 37 H -0.1292 4.6251 2.1257 0
M  V30 38 H -1.9836 3.5094 4.5796 0
M  V30 39 H -1.753 1.8388 4.0717 0
M  V30 40 H -0.4148 2.986 4.0029 0
M  V30 41 H 1.6062 1.5228 2.156 0
M  V30 42 H 1.4005 0.6652 0.0405 0
M  V30 43 H 0.0871 1.2969 -0.9482 0
M  V30 44 H -2.2197 0.4752 -0.6264 0
M  V30 45 H -4.3796 0.2121 1.6907 0
M  V30 46 H -4.181 1.4885 0.5115 0
M  V30 47 H -5.1435 4.7007 2.1507 0
M  V30 48 H -4.0559 1.7546 3.5558 0
M  V30 49 H -1.3151 6.7075 1.7445 0
M  V30 50 H -2.7155 -1.9081 1.1723 0
M  V30 51 H -3.6955 -1.3088 -0.1692 0
M  V30 52 H -0.6209 -0.7759 -1.9033 0
M  V30 53 H 1.1325 -1.3186 1.4506 0
M  V30 54 H -0.398 -2.1771 1.5986 0
M  V30 55 H -0.1708 -0.6578 2.4303 0
M  V30 56 H -1.5424 -3.1895 -0.3008 0
M  V30 57 H -3.3763 -3.1306 -1.923 0
M  V30 58 H -2.7877 -1.6033 -2.5985 0
M  V30 59 H -1.8201 -3.0796 -2.7673 0
M  V30 60 H 1.3568 -1.5315 -3.1168 0
M  V30 61 H 2.1318 -0.6744 -1.7343 0
M  V30 62 H 6.6201 -1.4606 -3.4744 0
M  V30 63 H 7.1106 -3.0886 -3.9688 0
M  V30 64 H 5.9148 -2.1924 -4.9187 0
M  V30 65 H 5.9516 -2.3305 -1.1383 0
M  V30 66 H 4.901 -3.7407 -0.9964 0
M  V30 67 H 6.5336 -3.9256 -1.6491 0
M  V30 68 H 4.2227 -4.1274 -4.6811 0
M  V30 69 H 3.8822 -4.8019 -3.0867 0
M  V30 70 H 5.4818 -5.0194 -3.8074 0
M  V30 END ATOM
M  V30 BEGIN BOND
M  V30 1 1 1 2
M  V30 2 1 2 3
M  V30 3 1 2 4
M  V30 4 1 2 5
M  V30 5 1 3 6
M  V30 6 1 3 7
M  V30 7 1 3 8
M  V30 8 1 4 9
M  V30 9 1 4 10
M  V30 10 1 5 11
M  V30 11 1 5 12
M  V30 12 2 6 13
M  V30 13 1 6 14
M  V30 14 2 7 15
M  V30 15 1 10 16
M  V30 16 1 11 17
M  V30 17 1 13 18
M  V30 18 1 14 19
M  V30 19 1 16 20
M  V30 20 1 16 21
M  V30 21 1 17 22
M  V30 22 2 18 23
M  V30 23 1 20 24
M  V30 24 1 22 25
M  V30 25 2 24 26
M  V30 26 1 24 27
M  V30 27 1 27 28
M  V30 28 1 28 29
M  V30 29 2 29 30
M  V30 30 1 29 31
M  V30 31 1 31 32
M  V30 32 1 31 33
M  V30 33 1 31 34
M  V30 34 1 11 16
M  V30 35 1 12 14
M  V30 36 1 15 18
M  V30 37 1 20 22
M  V30 38 1 4 35
M  V30 39 1 5 36
M  V30 40 1 7 37
M  V30 41 1 8 38
M  V30 42 1 8 39
M  V30 43 1 8 40
M  V30 44 1 9 41
M  V30 45 1 10 42
M  V30 46 1 10 43
M  V30 47 1 11 44
M  V30 48 1 12 45
M  V30 49 1 12 46
M  V30 50 1 13 47
M  V30 51 1 14 48
M  V30 52 1 15 49
M  V30 53 1 17 50
M  V30 54 1 17 51
M  V30 55 1 20 52
M  V30 56 1 21 53
M  V30 57 1 21 54
M  V30 58 1 21 55
M  V30 59 1 22 56
M  V30 60 1 25 57
M  V30 61 1 25 58
M  V30 62 1 25 59
M  V30 63 1 27 60
M  V30 64 1 27 61
M  V30 65 1 32 62
M  V30 66 1 32 63
M  V30 67 1 32 64
M  V30 68 1 33 65
M  V30 69 1 33 66
M  V30 70 1 33 67
M  V30 71 1 34 68
M  V30 72 1 34 69
M  V30 73 1 34 70
M  V30 END BOND
M  V30 BEGIN COLLECTION
M  V30 MDLV30/STEABS ATOMS=(9 2 3 4 5 11 14 16 20 22)
M  V30 END COLLECTION
M  V30 END CTAB
M  END
>  <NO.>
2113

>  <Name>
diflucortolone pivalate

>  <SMILES>
C[C@@H]1C[C@H]2[C@@H]3C[C@H](F)C4=CC(=O)C=C[C@]4(C)[C@@]3(F)[C@@H](O)C[C@]2(C)[C@H]1C(=O)COC(=O)C(C)(C)C

>  <logBB>


>  <Class>
1

>  <MW>
478.25

>  <nHBAcc>
5

>  <nHBDon>
1

>  <SLogP>
4.33

>  <TopoPSA>
80.67

>  <MMFF94 Energy>
132.04

$$$$
C[C@@H]1C[C@H]2[C@@H]3C[C@H](F)C4=CC(=O)C=C[C@]4(C)[C@H]3[C@@H](O)C[C@]2(C)[C@@]1(O)C(=O)CO
Actelion Java MolfileCreator 2.0

  0  0  0  0  0  0              0 V3000
M  V30 BEGIN CTAB
M  V30 COUNTS 57 60 0 0 0
M  V30 BEGIN ATOM
M  V30 1 F 1.6164 0.6463 4.5309 0
M  V30 2 C 1.0285 1.1073 3.3888 0 CFG=2
M  V30 3 C -0.4602 1.26 3.5599 0
M  V30 4 C 1.3332 0.1092 2.2814 0
M  V30 5 C -1.0553 0.968 4.7309 0
M  V30 6 C -1.2216 1.7108 2.305 0 CFG=2
M  V30 7 C 0.6394 0.4683 0.9568 0 CFG=2
M  V30 8 C -2.5182 1.052 4.9052 0
M  V30 9 C -2.7239 1.7575 2.5677 0
M  V30 10 C -0.9016 0.6677 1.1638 0 CFG=2
M  V30 11 C -0.7971 3.1608 1.9787 0
M  V30 12 C 0.8551 -0.6409 -0.0843 0 CFG=1
M  V30 13 O -3.0528 0.785 5.9737 0
M  V30 14 C -3.3139 1.4646 3.7341 0
M  V30 15 C -1.6372 0.8951 -0.189 0 CFG=1
M  V30 16 C 0.252 -0.3243 -1.474 0 CFG=2
M  V30 17 C 2.2827 -1.0844 -0.3887 0
M  V30 18 O -1.3906 2.2029 -0.6851 0
M  V30 19 C -1.2702 -0.1435 -1.2727 0
M  V30 20 C 0.7067 -1.6095 -2.2516 0 CFG=1
M  V30 21 C 0.8623 0.9416 -2.1341 0
M  V30 22 C 2.1896 -1.7932 -1.7631 0 CFG=2
M  V30 23 O -0.0966 -2.7183 -1.8364 0
M  V30 24 C 0.615 -1.4723 -3.7892 0
M  V30 25 C 2.6818 -3.2358 -1.6876 0
M  V30 26 O 1.5845 -1.1787 -4.4962 0
M  V30 27 C -0.7377 -1.74 -4.4411 0
M  V30 28 O -0.7595 -1.2978 -5.7923 0
M  V30 29 H 1.4885 2.0766 3.1722 0
M  V30 30 H 1.0322 -0.8955 2.608 0
M  V30 31 H 2.4202 0.0629 2.1441 0
M  V30 32 H -0.4998 0.639 5.6029 0
M  V30 33 H 1.0859 1.401 0.597 0
M  V30 34 H -3.3615 2.0897 1.7507 0
M  V30 35 H -1.2808 -0.3031 1.5269 0
M  V30 36 H 0.2138 3.2206 1.5649 0
M  V30 37 H -0.8129 3.7888 2.8796 0
M  V30 38 H -1.4721 3.6422 1.2627 0
M  V30 39 H 0.3471 -1.5329 0.3183 0
M  V30 40 H -4.3856 1.5289 3.8787 0
M  V30 41 H -2.7183 0.822 -0.0258 0
M  V30 42 H 2.9553 -0.2211 -0.4571 0
M  V30 43 H 2.6731 -1.741 0.3962 0
M  V30 44 H -1.9243 2.3252 -1.4904 0
M  V30 45 H -1.7322 0.1551 -2.22 0
M  V30 46 H -1.7271 -1.0973 -0.9821 0
M  V30 47 H 1.9158 0.8148 -2.4009 0
M  V30 48 H 0.3259 1.1901 -3.0572 0
M  V30 49 H 0.822 1.8236 -1.4927 0
M  V30 50 H 2.8763 -1.2647 -2.4367 0
M  V30 51 H 0.3012 -3.5409 -2.1722 0
M  V30 52 H 2.5782 -3.7334 -2.6571 0
M  V30 53 H 2.1332 -3.8149 -0.9374 0
M  V30 54 H 3.7414 -3.262 -1.4105 0
M  V30 55 H -0.9294 -2.8162 -4.4283 0
M  V30 56 H -1.5326 -1.2194 -3.9087 0
M  V30 57 H 0.1697 -1.3104 -6.1002 0
M  V30 END ATOM
M  V30 BEGIN BOND
M  V30 1 1 1 2
M  V30 2 1 2 3
M  V30 3 1 2 4
M  V30 4 2 3 5
M  V30 5 1 3 6
M  V30 6 1 4 7
M  V30 7 1 5 8
M  V30 8 1 6 9
M  V30 9 1 6 10
M  V30 10 1 6 11
M  V30 11 1 7 12
M  V30 12 2 8 13
M  V30 13 1 8 14
M  V30 14 1 10 15
M  V30 15 1 12 16
M  V30 16 1 12 17
M  V30 17 1 15 18
M  V30 18 1 15 19
M  V30 19 1 16 20
M  V30 20 1 16 21
M  V30 21 1 17 22
M  V30 22 1 20 23
M  V30 23 1 20 24
M  V30 24 1 22 25
M  V30 25 2 24 26
M  V30 26 1 24 27
M  V30 27 1 27 28
M  V30 28 1 7 10
M  V30 29 2 9 14
M  V30 30 1 16 19
M  V30 31 1 20 22
M  V30 32 1 2 29
M  V30 33 1 4 30
M  V30 34 1 4 31
M  V30 35 1 5 32
M  V30 36 1 7 33
M  V30 37 1 9 34
M  V30 38 1 10 35
M  V30 39 1 11 36
M  V30 40 1 11 37
M  V30 41 1 11 38
M  V30 42 1 12 39
M  V30 43 1 14 40
M  V30 44 1 15 41
M  V30 45 1 17 42
M  V30 46 1 17 43
M  V30 47 1 18 44
M  V30 48 1 19 45
M  V30 49 1 19 46
M  V30 50 1 21 47
M  V30 51 1 21 48
M  V30 52 1 21 49
M  V30 53 1 22 50
M  V30 54 1 23 51
M  V30 55 1 25 52
M  V30 56 1 25 53
M  V30 57 1 25 54
M  V30 58 1 27 55
M  V30 59 1 27 56
M  V30 60 1 28 57
M  V30 END BOND
M  V30 BEGIN COLLECTION
M  V30 MDLV30/STEABS ATOMS=(9 2 6 7 10 12 15 16 20 22)
M  V30 END COLLECTION
M  V30 END CTAB
M  END
>  <NO.>
2114

>  <Name>
paramethasone

>  <SMILES>
C[C@@H]1C[C@H]2[C@@H]3C[C@H](F)C4=CC(=O)C=C[C@]4(C)[C@H]3[C@@H](O)C[C@]2(C)[C@@]1(O)C(=O)CO

>  <logBB>


>  <Class>
1

>  <MW>
392.2

>  <nHBAcc>
5

>  <nHBDon>
3

>  <SLogP>
1.75

>  <TopoPSA>
94.83

>  <MMFF94 Energy>
132.01

$$$$
C[C@@H]1C[C@H]2[C@@H]3C[C@H](F)C4=CC(=O)C=C[C@]4(C)[C@H]3[C@@H](O)C[C@]2(C)[C@H]1C(=O)CO
Actelion Java MolfileCreator 2.0

  0  0  0  0  0  0              0 V3000
M  V30 BEGIN CTAB
M  V30 COUNTS 56 59 0 0 0
M  V30 BEGIN ATOM
M  V30 1 F -4.6071 0.8071 -0.5649 0
M  V30 2 C -3.3827 1.1244 -0.0544 0 CFG=2
M  V30 3 C -2.7306 2.2343 -0.8377 0
M  V30 4 C -2.5256 -0.1329 -0.1015 0
M  V30 5 C -3.3562 2.7997 -1.8864 0
M  V30 6 C -1.3144 2.6166 -0.3858 0 CFG=2
M  V30 7 C -1.0771 0.1178 0.3514 0 CFG=2
M  V30 8 C -2.716 3.8469 -2.7063 0
M  V30 9 C -0.7207 3.6876 -1.2928 0
M  V30 10 C -0.4371 1.3062 -0.4464 0 CFG=2
M  V30 11 C -1.4138 3.2492 1.0205 0
M  V30 12 C -0.2184 -1.1366 0.1298 0 CFG=1
M  V30 13 O -3.293 4.3574 -3.6575 0
M  V30 14 C -1.3455 4.2476 -2.3371 0
M  V30 15 C 1.0798 1.4778 -0.1311 0 CFG=1
M  V30 16 C 1.2325 -0.9921 0.6356 0 CFG=2
M  V30 17 C -0.6786 -2.4642 0.7219 0
M  V30 18 O 1.3312 2.1603 1.0871 0
M  V30 19 C 1.884 0.1586 -0.1533 0
M  V30 20 C 1.7645 -2.4071 0.273 0 CFG=2
M  V30 21 C 1.3475 -0.7607 2.1631 0
M  V30 22 C 0.5844 -3.3553 0.6611 0 CFG=2
M  V30 23 C 3.0834 -2.7943 0.9469 0
M  V30 24 C 0.4337 -4.4981 -0.3393 0
M  V30 25 O 3.1111 -3.437 1.9997 0
M  V30 26 C 4.3843 -2.2784 0.3292 0
M  V30 27 O 4.39 -2.1655 -1.0801 0
M  V30 28 H -3.5493 1.4377 0.9811 0
M  V30 29 H -2.995 -0.8984 0.5281 0
M  V30 30 H -2.5392 -0.5393 -1.122 0
M  V30 31 H -4.3539 2.5087 -2.1991 0
M  V30 32 H -1.105 0.3631 1.4178 0
M  V30 33 H 0.2781 4.0482 -1.0507 0
M  V30 34 H -0.456 0.9852 -1.5028 0
M  V30 35 H -0.4953 3.771 1.3099 0
M  V30 36 H -1.6294 2.5118 1.7996 0
M  V30 37 H -2.2142 4.0003 1.0598 0
M  V30 38 H -0.1849 -1.2956 -0.9617 0
M  V30 39 H -0.8891 5.0197 -2.945 0
M  V30 40 H 1.5218 2.1109 -0.9091 0
M  V30 41 H -1.0017 -2.3367 1.7618 0
M  V30 42 H -1.5205 -2.8908 0.1665 0
M  V30 43 H 0.7512 1.8166 1.7835 0
M  V30 44 H 2.8969 0.3424 0.2238 0
M  V30 45 H 1.9873 -0.1457 -1.2032 0
M  V30 46 H 1.9172 -2.4819 -0.8116 0
M  V30 47 H 1.0856 -1.6528 2.7418 0
M  V30 48 H 0.694 0.029 2.5325 0
M  V30 49 H 2.374 -0.493 2.4384 0
M  V30 50 H 0.7333 -3.8044 1.6503 0
M  V30 51 H 1.3475 -5.0997 -0.3804 0
M  V30 52 H 0.2266 -4.1228 -1.3472 0
M  V30 53 H -0.3916 -5.157 -0.0496 0
M  V30 54 H 4.6227 -1.3061 0.7713 0
M  V30 55 H 5.1796 -2.9803 0.5998 0
M  V30 56 H 4.0555 -1.2838 -1.314 0
M  V30 END ATOM
M  V30 BEGIN BOND
M  V30 1 1 1 2
M  V30 2 1 2 3
M  V30 3 1 2 4
M  V30 4 2 3 5
M  V30 5 1 3 6
M  V30 6 1 4 7
M  V30 7 1 5 8
M  V30 8 1 6 9
M  V30 9 1 6 10
M  V30 10 1 6 11
M  V30 11 1 7 12
M  V30 12 2 8 13
M  V30 13 1 8 14
M  V30 14 1 10 15
M  V30 15 1 12 16
M  V30 16 1 12 17
M  V30 17 1 15 18
M  V30 18 1 15 19
M  V30 19 1 16 20
M  V30 20 1 16 21
M  V30 21 1 17 22
M  V30 22 1 20 23
M  V30 23 1 22 24
M  V30 24 2 23 25
M  V30 25 1 23 26
M  V30 26 1 26 27
M  V30 27 1 7 10
M  V30 28 2 9 14
M  V30 29 1 16 19
M  V30 30 1 20 22
M  V30 31 1 2 28
M  V30 32 1 4 29
M  V30 33 1 4 30
M  V30 34 1 5 31
M  V30 35 1 7 32
M  V30 36 1 9 33
M  V30 37 1 10 34
M  V30 38 1 11 35
M  V30 39 1 11 36
M  V30 40 1 11 37
M  V30 41 1 12 38
M  V30 42 1 14 39
M  V30 43 1 15 40
M  V30 44 1 17 41
M  V30 45 1 17 42
M  V30 46 1 18 43
M  V30 47 1 19 44
M  V30 48 1 19 45
M  V30 49 1 20 46
M  V30 50 1 21 47
M  V30 51 1 21 48
M  V30 52 1 21 49
M  V30 53 1 22 50
M  V30 54 1 24 51
M  V30 55 1 24 52
M  V30 56 1 24 53
M  V30 57 1 26 54
M  V30 58 1 26 55
M  V30 59 1 27 56
M  V30 END BOND
M  V30 BEGIN COLLECTION
M  V30 MDLV30/STEABS ATOMS=(9 2 6 7 10 12 15 16 20 22)
M  V30 END COLLECTION
M  V30 END CTAB
M  END
>  <NO.>
2115

>  <Name>
fluocortolone

>  <SMILES>
C[C@@H]1C[C@H]2[C@@H]3C[C@H](F)C4=CC(=O)C=C[C@]4(C)[C@H]3[C@@H](O)C[C@]2(C)[C@H]1C(=O)CO

>  <logBB>


>  <Class>
1

>  <MW>
376.2

>  <nHBAcc>
4

>  <nHBDon>
2

>  <SLogP>
2.64

>  <TopoPSA>
74.6

>  <MMFF94 Energy>
113.87

$$$$
C[C@@H]1N=C(c2ccccc2Cl)c2cc([N+](=O)[O-])ccc2NC1=O
Actelion Java MolfileCreator 2.0

  0  0  0  0  0  0              0 V3000
M  V30 BEGIN CTAB
M  V30 COUNTS 35 37 0 0 0
M  V30 BEGIN ATOM
M  V30 1 Cl 1.9584 1.3869 2.5302 0
M  V30 2 C 1.9799 1.8769 0.8749 0
M  V30 3 C 1.005 1.466 -0.041 0
M  V30 4 C 3.0415 2.6724 0.4368 0
M  V30 5 C -0.1503 0.6292 0.371 0
M  V30 6 C 1.0833 1.8561 -1.3844 0
M  V30 7 C 3.1239 3.0582 -0.9037 0
M  V30 8 N -1.0621 1.2131 1.0688 0
M  V30 9 C -0.1741 -0.791 -0.088 0
M  V30 10 C 2.1463 2.6515 -1.8124 0
M  V30 11 C -2.2294 0.4537 1.5245 0 CFG=2
M  V30 12 C -1.3499 -1.393 -0.57 0
M  V30 13 C 1.0299 -1.5167 -0.0906 0
M  V30 14 C -3.1099 0.1161 0.3189 0
M  V30 15 C -2.9794 1.3221 2.5283 0
M  V30 16 N -2.5987 -0.7594 -0.6062 0
M  V30 17 C -1.3011 -2.6957 -1.0878 0
M  V30 18 C 1.0566 -2.8249 -0.5917 0
M  V30 19 O -4.257 0.5355 0.1614 0
M  V30 20 C -0.105 -3.4163 -1.0969 0
M  V30 21 N 2.3183 -3.5775 -0.5979 0 CHG=1
M  V30 22 O 2.2823 -4.7557 -0.9777 0
M  V30 23 O 3.3413 -2.9855 -0.2282 0 CHG=-1
M  V30 24 H 3.8106 2.9955 1.1347 0
M  V30 25 H 0.3121 1.5616 -2.092 0
M  V30 26 H 3.9506 3.6816 -1.2378 0
M  V30 27 H 2.2085 2.964 -2.8526 0
M  V30 28 H -1.9318 -0.472 2.0324 0
M  V30 29 H 1.941 -1.0688 0.3011 0
M  V30 30 H -3.8728 0.8088 2.8999 0
M  V30 31 H -2.3412 1.5623 3.3857 0
M  V30 32 H -3.2995 2.269 2.0785 0
M  V30 33 H -3.2656 -1.0128 -1.3255 0
M  V30 34 H -2.2018 -3.1711 -1.4738 0
M  V30 35 H -0.099 -4.43 -1.4945 0
M  V30 END ATOM
M  V30 BEGIN BOND
M  V30 1 1 1 2
M  V30 2 2 2 3
M  V30 3 1 2 4
M  V30 4 1 3 5
M  V30 5 1 3 6
M  V30 6 2 4 7
M  V30 7 2 5 8
M  V30 8 1 5 9
M  V30 9 2 6 10
M  V30 10 1 8 11
M  V30 11 2 9 12
M  V30 12 1 9 13
M  V30 13 1 11 14
M  V30 14 1 11 15
M  V30 15 1 12 16
M  V30 16 1 12 17
M  V30 17 2 13 18
M  V30 18 2 14 19
M  V30 19 2 17 20
M  V30 20 1 18 21
M  V30 21 2 21 22
M  V30 22 1 21 23
M  V30 23 1 7 10
M  V30 24 1 14 16
M  V30 25 1 18 20
M  V30 26 1 4 24
M  V30 27 1 6 25
M  V30 28 1 7 26
M  V30 29 1 10 27
M  V30 30 1 11 28
M  V30 31 1 13 29
M  V30 32 1 15 30
M  V30 33 1 15 31
M  V30 34 1 15 32
M  V30 35 1 16 33
M  V30 36 1 17 34
M  V30 37 1 20 35
M  V30 END BOND
M  V30 BEGIN COLLECTION
M  V30 MDLV30/STEABS ATOMS=(1 11)
M  V30 END COLLECTION
M  V30 END CTAB
M  END
>  <NO.>
2116

>  <Name>
meclonazepam

>  <SMILES>
C[C@@H]1N=C(c2ccccc2Cl)c2cc([N+](=O)[O-])ccc2NC1=O

>  <logBB>


>  <Class>
1

>  <MW>
329.06

>  <nHBAcc>
4

>  <nHBDon>
1

>  <SLogP>
3.43

>  <TopoPSA>
84.6

>  <MMFF94 Energy>
132.55

$$$$
C[C@H](CCC(=O)O)[C@H]1CC[C@H]2[C@@H]3C(=O)C[C@@H]4CC(=O)CC[C@]4(C)[C@H]3CC(=O)[C@@]21C
Actelion Java MolfileCreator 2.0

  0  0  0  0  0  0              0 V3000
M  V30 BEGIN CTAB
M  V30 COUNTS 63 66 0 0 0
M  V30 BEGIN ATOM
M  V30 1 O -1.5291 1.4486 1.046 0
M  V30 2 C -0.6187 0.9739 0.3732 0
M  V30 3 C -0.804 0.4509 -1.0511 0 CFG=1
M  V30 4 C 0.7964 0.8878 0.9315 0
M  V30 5 C -0.3477 -1.0341 -0.9509 0 CFG=2
M  V30 6 C -2.2688 0.2494 -1.5466 0 CFG=1
M  V30 7 C 0.0412 1.3104 -2.0039 0
M  V30 8 C 1.3546 -0.5485 0.8528 0 CFG=1
M  V30 9 C 1.1269 -1.1966 -0.5506 0 CFG=1
M  V30 10 C -0.8019 -1.6147 -2.2827 0
M  V30 11 C -3.1259 1.4076 -2.1472 0 CFG=1
M  V30 12 C -2.1761 -0.9741 -2.5045 0
M  V30 13 C 2.8504 -0.6853 1.3331 0 CFG=2
M  V30 14 C 1.5709 -2.6535 -0.4513 0
M  V30 15 C -3.4078 2.5633 -1.1633 0
M  V30 16 C -2.6307 2.0107 -3.4708 0
M  V30 17 C 3.2701 -2.1983 1.3256 0 CFG=2
M  V30 18 C 3.0726 -0.1252 2.7698 0
M  V30 19 C 3.8058 0.1151 0.4096 0
M  V30 20 O 0.8375 -3.6041 -0.7072 0
M  V30 21 C 3.0068 -2.8707 -0.0281 0
M  V30 22 C -4.3604 2.1845 -0.0264 0
M  V30 23 C 2.5983 -3.0196 2.4447 0
M  V30 24 C 2.3533 -0.9012 3.8627 0
M  V30 25 C -4.5435 3.3255 0.9384 0
M  V30 26 C 2.7523 -2.352 3.7895 0
M  V30 27 O -4.1367 4.4697 0.8262 0
M  V30 28 O -5.2839 2.9669 2.0073 0
M  V30 29 O 3.1014 -2.9793 4.7871 0
M  V30 30 H 0.7508 1.2164 1.9757 0
M  V30 31 H 1.4199 1.6078 0.3958 0
M  V30 32 H -0.9442 -1.5358 -0.1697 0
M  V30 33 H -2.8398 -0.1122 -0.6784 0
M  V30 34 H 1.1128 1.2571 -1.7932 0
M  V30 35 H -0.2222 2.3683 -1.9016 0
M  V30 36 H -0.0825 1.0173 -3.0503 0
M  V30 37 H 0.737 -1.1317 1.5515 0
M  V30 38 H 1.7588 -0.7375 -1.3161 0
M  V30 39 H -0.8832 -2.7051 -2.2725 0
M  V30 40 H -0.1146 -1.3418 -3.0912 0
M  V30 41 H -4.0994 0.9547 -2.3882 0
M  V30 42 H -2.3014 -0.7279 -3.561 0
M  V30 43 H -2.9712 -1.6874 -2.2543 0
M  V30 44 H -3.869 3.3965 -1.7121 0
M  V30 45 H -2.4675 2.9638 -0.7688 0
M  V30 46 H -2.2996 1.2579 -4.1883 0
M  V30 47 H -3.4476 2.5634 -3.9511 0
M  V30 48 H -1.8212 2.7295 -3.3236 0
M  V30 49 H 4.3532 -2.2475 1.5107 0
M  V30 50 H 4.1489 -0.1523 2.9936 0
M  V30 51 H 2.7881 0.9314 2.8271 0
M  V30 52 H 3.6151 1.1915 0.4705 0
M  V30 53 H 4.8508 -0.0392 0.7041 0
M  V30 54 H 3.7278 -0.1737 -0.6409 0
M  V30 55 H 3.2042 -3.9474 0.0282 0
M  V30 56 H 3.658 -2.4685 -0.8108 0
M  V30 57 H -5.3427 1.9286 -0.4389 0
M  V30 58 H -3.9864 1.3258 0.5359 0
M  V30 59 H 1.5276 -3.167 2.2683 0
M  V30 60 H 3.0598 -4.0128 2.4988 0
M  V30 61 H 2.6367 -0.505 4.8439 0
M  V30 62 H 1.2655 -0.827 3.7735 0
M  V30 63 H -5.3123 3.7803 2.5522 0
M  V30 END ATOM
M  V30 BEGIN BOND
M  V30 1 2 1 2
M  V30 2 1 2 3
M  V30 3 1 2 4
M  V30 4 1 3 5
M  V30 5 1 3 6
M  V30 6 1 3 7
M  V30 7 1 4 8
M  V30 8 1 5 9
M  V30 9 1 5 10
M  V30 10 1 6 11
M  V30 11 1 6 12
M  V30 12 1 8 13
M  V30 13 1 9 14
M  V30 14 1 11 15
M  V30 15 1 11 16
M  V30 16 1 13 17
M  V30 17 1 13 18
M  V30 18 1 13 19
M  V30 19 2 14 20
M  V30 20 1 14 21
M  V30 21 1 15 22
M  V30 22 1 17 23
M  V30 23 1 18 24
M  V30 24 1 22 25
M  V30 25 1 23 26
M  V30 26 2 25 27
M  V30 27 1 25 28
M  V30 28 2 26 29
M  V30 29 1 8 9
M  V30 30 1 10 12
M  V30 31 1 17 21
M  V30 32 1 24 26
M  V30 33 1 4 30
M  V30 34 1 4 31
M  V30 35 1 5 32
M  V30 36 1 6 33
M  V30 37 1 7 34
M  V30 38 1 7 35
M  V30 39 1 7 36
M  V30 40 1 8 37
M  V30 41 1 9 38
M  V30 42 1 10 39
M  V30 43 1 10 40
M  V30 44 1 11 41
M  V30 45 1 12 42
M  V30 46 1 12 43
M  V30 47 1 15 44
M  V30 48 1 15 45
M  V30 49 1 16 46
M  V30 50 1 16 47
M  V30 51 1 16 48
M  V30 52 1 17 49
M  V30 53 1 18 50
M  V30 54 1 18 51
M  V30 55 1 19 52
M  V30 56 1 19 53
M  V30 57 1 19 54
M  V30 58 1 21 55
M  V30 59 1 21 56
M  V30 60 1 22 57
M  V30 61 1 22 58
M  V30 62 1 23 59
M  V30 63 1 23 60
M  V30 64 1 24 61
M  V30 65 1 24 62
M  V30 66 1 28 63
M  V30 END BOND
M  V30 BEGIN COLLECTION
M  V30 MDLV30/STEABS ATOMS=(8 3 5 6 8 9 11 13 17)
M  V30 END COLLECTION
M  V30 END CTAB
M  END
>  <NO.>
2119

>  <Name>
dehydrocholic acid

>  <SMILES>
C[C@H](CCC(=O)O)[C@H]1CC[C@H]2[C@@H]3C(=O)C[C@@H]4CC(=O)CC[C@]4(C)[C@H]3CC(=O)[C@@]21C

>  <logBB>


>  <Class>
-1

>  <MW>
402.24

>  <nHBAcc>
4

>  <nHBDon>
1

>  <SLogP>
4.07

>  <TopoPSA>
88.51

>  <MMFF94 Energy>
64.639

$$$$
C[C@H](N)C(=O)c1ccccc1
Actelion Java MolfileCreator 2.0

  0  0  0  0  0  0              0 V3000
M  V30 BEGIN CTAB
M  V30 COUNTS 22 22 0 0 0
M  V30 BEGIN ATOM
M  V30 1 O 0.7821 -0.7039 2.1128 0
M  V30 2 C 0.6728 -0.1187 1.0321 0
M  V30 3 C -0.6476 -0.1387 0.327 0
M  V30 4 C 1.8657 0.6209 0.3997 0 CFG=1
M  V30 5 C -1.6474 -0.9883 0.8243 0
M  V30 6 C -0.9258 0.6572 -0.791 0
M  V30 7 N 2.9222 0.801 1.4201 0
M  V30 8 C 2.4462 -0.1767 -0.7613 0
M  V30 9 C -2.8996 -1.048 0.2094 0
M  V30 10 C -2.1811 0.5946 -1.4043 0
M  V30 11 C -3.1651 -0.257 -0.9055 0
M  V30 12 H 1.5585 1.6202 0.0795 0
M  V30 13 H -1.4558 -1.6115 1.6964 0
M  V30 14 H -0.193 1.34 -1.209 0
M  V30 15 H 2.5053 1.2798 2.2219 0
M  V30 16 H 3.1411 -0.1263 1.7976 0
M  V30 17 H 3.3247 0.3242 -1.1827 0
M  V30 18 H 2.7462 -1.1828 -0.4457 0
M  V30 19 H 1.717 -0.2971 -1.5685 0
M  V30 20 H -3.6661 -1.7112 0.6033 0
M  V30 21 H -2.393 1.2144 -2.2728 0
M  V30 22 H -4.1404 -0.3023 -1.3842 0
M  V30 END ATOM
M  V30 BEGIN BOND
M  V30 1 2 1 2
M  V30 2 1 2 3
M  V30 3 1 2 4
M  V30 4 2 3 5
M  V30 5 1 3 6
M  V30 6 1 4 7
M  V30 7 1 4 8
M  V30 8 1 5 9
M  V30 9 2 6 10
M  V30 10 2 9 11
M  V30 11 1 10 11
M  V30 12 1 4 12
M  V30 13 1 5 13
M  V30 14 1 6 14
M  V30 15 1 7 15
M  V30 16 1 7 16
M  V30 17 1 8 17
M  V30 18 1 8 18
M  V30 19 1 8 19
M  V30 20 1 9 20
M  V30 21 1 10 21
M  V30 22 1 11 22
M  V30 END BOND
M  V30 BEGIN COLLECTION
M  V30 MDLV30/STEABS ATOMS=(1 4)
M  V30 END COLLECTION
M  V30 END CTAB
M  END
>  <NO.>
2120

>  <Name>
cathinone

>  <SMILES>
C[C@H](N)C(=O)c1ccccc1

>  <logBB>


>  <Class>
1

>  <MW>
149.08

>  <nHBAcc>
2

>  <nHBDon>
1

>  <SLogP>
1.22

>  <TopoPSA>
43.09

>  <MMFF94 Energy>
65.777

$$$$
C[C@H](N)[C@H](O)c1cccc(O)c1
Actelion Java MolfileCreator 2.0

  0  0  0  0  0  0              0 V3000
M  V30 BEGIN CTAB
M  V30 COUNTS 25 25 0 0 0
M  V30 BEGIN ATOM
M  V30 1 O -1.7101 -3.3447 -1.2435 0
M  V30 2 C -1.6861 -2.0524 -0.8094 0
M  V30 3 C -0.4753 -1.3705 -0.8821 0
M  V30 4 C -2.8274 -1.4341 -0.3107 0
M  V30 5 C -0.3883 -0.0405 -0.4469 0
M  V30 6 C -2.7537 -0.1104 0.1209 0
M  V30 7 C -1.5433 0.5828 0.0529 0
M  V30 8 C 0.932 0.7028 -0.521 0 CFG=1
M  V30 9 O 0.7526 1.8684 -1.331 0
M  V30 10 C 1.5043 1.1009 0.8758 0 CFG=1
M  V30 11 N 1.6971 -0.0395 1.7909 0
M  V30 12 C 2.8467 1.8229 0.7294 0
M  V30 13 H -2.6108 -3.6919 -1.134 0
M  V30 14 H 0.3964 -1.8857 -1.278 0
M  V30 15 H -3.7745 -1.9607 -0.2511 0
M  V30 16 H -3.6393 0.3847 0.5119 0
M  V30 17 H -1.5033 1.6171 0.3914 0
M  V30 18 H 1.6701 0.079 -1.0407 0
M  V30 19 H 0.0959 1.6447 -2.0133 0
M  V30 20 H 0.8139 1.8036 1.3587 0
M  V30 21 H 2.3223 -0.7204 1.3614 0
M  V30 22 H 0.8046 -0.5214 1.9118 0
M  V30 23 H 3.2436 2.1149 1.7085 0
M  V30 24 H 2.7395 2.7375 0.137 0
M  V30 25 H 3.592 1.1871 0.2386 0
M  V30 END ATOM
M  V30 BEGIN BOND
M  V30 1 1 1 2
M  V30 2 2 2 3
M  V30 3 1 2 4
M  V30 4 1 3 5
M  V30 5 2 4 6
M  V30 6 2 5 7
M  V30 7 1 5 8
M  V30 8 1 8 9
M  V30 9 1 8 10
M  V30 10 1 10 11
M  V30 11 1 10 12
M  V30 12 1 6 7
M  V30 13 1 1 13
M  V30 14 1 3 14
M  V30 15 1 4 15
M  V30 16 1 6 16
M  V30 17 1 7 17
M  V30 18 1 8 18
M  V30 19 1 9 19
M  V30 20 1 10 20
M  V30 21 1 11 21
M  V30 22 1 11 22
M  V30 23 1 12 23
M  V30 24 1 12 24
M  V30 25 1 12 25
M  V30 END BOND
M  V30 BEGIN COLLECTION
M  V30 MDLV30/STEABS ATOMS=(2 8 10)
M  V30 END COLLECTION
M  V30 END CTAB
M  END
>  <NO.>
2122

>  <Name>
metaraminol

>  <SMILES>
C[C@H](N)[C@H](O)c1cccc(O)c1

>  <logBB>


>  <Class>
-1

>  <MW>
167.09

>  <nHBAcc>
3

>  <nHBDon>
3

>  <SLogP>
0.77

>  <TopoPSA>
66.48

>  <MMFF94 Energy>
41.987

$$$$
C[C@H]1CCCC[C@@]1(c1cccs1)N1CCCCC1
Actelion Java MolfileCreator 2.0

  0  0  0  0  0  0              0 V3000
M  V30 BEGIN CTAB
M  V30 COUNTS 43 45 0 0 0
M  V30 BEGIN ATOM
M  V30 1 S 2.0133 1.6104 -1.3687 0
M  V30 2 C 1.5795 0.3754 -0.2374 0
M  V30 3 C 3.6097 1.0374 -1.5249 0
M  V30 4 C 2.6691 -0.4641 -0.0324 0
M  V30 5 C 0.1447 0.2634 0.378 0 CFG=2
M  V30 6 C 3.8315 -0.0812 -0.7608 0
M  V30 7 N -0.7009 -0.6876 -0.434 0
M  V30 8 C -0.5908 1.6763 0.4784 0 CFG=2
M  V30 9 C 0.2667 -0.2673 1.8584 0
M  V30 10 C -0.3383 -2.1116 -0.3515 0
M  V30 11 C -0.8828 -0.2945 -1.8448 0
M  V30 12 C 0.0903 2.6383 1.4789 0
M  V30 13 C -2.0906 1.5652 0.8338 0
M  V30 14 C 0.9314 0.7075 2.8346 0
M  V30 15 C -1.4069 -3.0038 -0.9939 0
M  V30 16 C -1.984 -1.1185 -2.517 0
M  V30 17 C 0.226 2.0508 2.8751 0
M  V30 18 C -1.6812 -2.6068 -2.436 0
M  V30 19 H 4.3088 1.544 -2.1758 0
M  V30 20 H 2.6407 -1.3297 0.6172 0
M  V30 21 H 4.779 -0.6045 -0.7279 0
M  V30 22 H -0.5636 2.1842 -0.4926 0
M  V30 23 H 0.841 -1.1985 1.911 0
M  V30 24 H -0.7304 -0.5151 2.2454 0
M  V30 25 H 0.627 -2.3024 -0.8342 0
M  V30 26 H -0.2607 -2.449 0.6851 0
M  V30 27 H -1.1771 0.7542 -1.9386 0
M  V30 28 H 0.0457 -0.4264 -2.4128 0
M  V30 29 H -0.4746 3.577 1.5372 0
M  V30 30 H 1.0863 2.9151 1.117 0
M  V30 31 H -2.6507 1.0355 0.0575 0
M  V30 32 H -2.5375 2.5625 0.9172 0
M  V30 33 H -2.2625 1.0478 1.7812 0
M  V30 34 H 1.9833 0.8541 2.5636 0
M  V30 35 H 0.9302 0.2686 3.8394 0
M  V30 36 H -1.0847 -4.0507 -0.9548 0
M  V30 37 H -2.3361 -2.9348 -0.4133 0
M  V30 38 H -2.9475 -0.9099 -2.0345 0
M  V30 39 H -2.0808 -0.819 -3.5668 0
M  V30 40 H -0.7615 1.938 3.3368 0
M  V30 41 H 0.7888 2.7429 3.5123 0
M  V30 42 H -2.5213 -3.1859 -2.8345 0
M  V30 43 H -0.8057 -2.8389 -3.0544 0
M  V30 END ATOM
M  V30 BEGIN BOND
M  V30 1 1 1 2
M  V30 2 1 1 3
M  V30 3 2 2 4
M  V30 4 1 2 5
M  V30 5 2 3 6
M  V30 6 1 5 7
M  V30 7 1 5 8
M  V30 8 1 5 9
M  V30 9 1 7 10
M  V30 10 1 7 11
M  V30 11 1 8 12
M  V30 12 1 8 13
M  V30 13 1 9 14
M  V30 14 1 10 15
M  V30 15 1 11 16
M  V30 16 1 12 17
M  V30 17 1 15 18
M  V30 18 1 4 6
M  V30 19 1 14 17
M  V30 20 1 16 18
M  V30 21 1 3 19
M  V30 22 1 4 20
M  V30 23 1 6 21
M  V30 24 1 8 22
M  V30 25 1 9 23
M  V30 26 1 9 24
M  V30 27 1 10 25
M  V30 28 1 10 26
M  V30 29 1 11 27
M  V30 30 1 11 28
M  V30 31 1 12 29
M  V30 32 1 12 30
M  V30 33 1 13 31
M  V30 34 1 13 32
M  V30 35 1 13 33
M  V30 36 1 14 34
M  V30 37 1 14 35
M  V30 38 1 15 36
M  V30 39 1 15 37
M  V30 40 1 16 38
M  V30 41 1 16 39
M  V30 42 1 17 40
M  V30 43 1 17 41
M  V30 44 1 18 42
M  V30 45 1 18 43
M  V30 END BOND
M  V30 BEGIN COLLECTION
M  V30 MDLV30/STEABS ATOMS=(2 5 8)
M  V30 END COLLECTION
M  V30 END CTAB
M  END
>  <NO.>
2125

>  <Name>
gacyclidine

>  <SMILES>
C[C@H]1CCCC[C@@]1(c1cccs1)N1CCCCC1

>  <logBB>


>  <Class>
1

>  <MW>
263.17

>  <nHBAcc>
2

>  <nHBDon>
0

>  <SLogP>
4.64

>  <TopoPSA>
3.24

>  <MMFF94 Energy>
29.228

$$$$
C[C@H]1C[C@H]2[C@@H]3CCC4=CC(=O)C=C[C@]4(C)[C@@]3(F)C(=O)C[C@]2(C)[C@@]1(O)C(=O)CCl
Actelion Java MolfileCreator 2.0

  0  0  0  0  0  0              0 V3000
M  V30 BEGIN CTAB
M  V30 COUNTS 54 57 0 0 0
M  V30 BEGIN ATOM
M  V30 1 Cl 0.2455 -1.3101 -5.988 0
M  V30 2 C 0.7222 -2.5364 -4.8079 0
M  V30 3 C 1.2472 -1.8667 -3.5565 0
M  V30 4 O 2.4502 -1.6182 -3.46 0
M  V30 5 C 0.2259 -1.5547 -2.4281 0 CFG=2
M  V30 6 O -0.9181 -0.9122 -3.0227 0
M  V30 7 C 0.7074 -0.5923 -1.2818 0 CFG=2
M  V30 8 C -0.3008 -2.8185 -1.6597 0 CFG=2
M  V30 9 C -0.423 -0.8472 -0.2424 0 CFG=1
M  V30 10 C 0.6956 0.9075 -1.624 0
M  V30 11 C 2.1121 -0.9538 -0.7228 0
M  V30 12 C -0.4927 -2.3692 -0.1847 0
M  V30 13 C 0.5631 -4.0766 -1.7263 0
M  V30 14 C -0.2434 -0.0663 1.0717 0 CFG=1
M  V30 15 C 0.8581 1.7118 -0.34 0
M  V30 16 C -0.2151 1.4634 0.7472 0 CFG=1
M  V30 17 C -1.3679 -0.3914 2.0695 0
M  V30 18 O 1.7988 2.495 -0.2153 0
M  V30 19 F -1.4477 1.7545 0.194 0
M  V30 20 C -0.0801 2.3474 2.041 0 CFG=2
M  V30 21 C -1.2526 0.438 3.3458 0
M  V30 22 C -1.1871 1.9109 3.0248 0
M  V30 23 C -0.2139 3.8324 1.7045 0
M  V30 24 C 1.2796 2.1752 2.7582 0
M  V30 25 C -2.0937 2.7558 3.5482 0
M  V30 26 C -1.1206 4.6678 2.2285 0
M  V30 27 C -2.1123 4.1936 3.2103 0
M  V30 28 O -2.9229 4.9563 3.7205 0
M  V30 29 H -0.1372 -3.1721 -4.5838 0
M  V30 30 H 1.5072 -3.1615 -5.2429 0
M  V30 31 H -1.4334 -1.5428 -3.5534 0
M  V30 32 H -1.2917 -3.0888 -2.0493 0
M  V30 33 H -1.3826 -0.5109 -0.6661 0
M  V30 34 H -0.2403 1.2332 -2.0901 0
M  V30 35 H 1.5073 1.159 -2.3155 0
M  V30 36 H 2.3292 -0.4561 0.2264 0
M  V30 37 H 2.9066 -0.6275 -1.4007 0
M  V30 38 H 2.2419 -2.023 -0.5512 0
M  V30 39 H -1.4571 -2.7158 0.202 0
M  V30 40 H 0.2866 -2.7749 0.4702 0
M  V30 41 H 0.1538 -4.8539 -1.0715 0
M  V30 42 H 1.5949 -3.8931 -1.4178 0
M  V30 43 H 0.5837 -4.4898 -2.7386 0
M  V30 44 H 0.6995 -0.3663 1.5395 0
M  V30 45 H -1.3364 -1.4536 2.3384 0
M  V30 46 H -2.346 -0.2125 1.6043 0
M  V30 47 H -0.358 0.1426 3.9059 0
M  V30 48 H -2.1077 0.209 3.9935 0
M  V30 49 H 0.5014 4.2489 0.9966 0
M  V30 50 H 1.278 2.6839 3.7314 0
M  V30 51 H 2.1107 2.6027 2.1886 0
M  V30 52 H 1.5275 1.1269 2.9484 0
M  V30 53 H -2.8731 2.4352 4.2303 0
M  V30 54 H -1.1645 5.7177 1.9659 0
M  V30 END ATOM
M  V30 BEGIN BOND
M  V30 1 1 1 2
M  V30 2 1 2 3
M  V30 3 2 3 4
M  V30 4 1 3 5
M  V30 5 1 5 6
M  V30 6 1 5 7
M  V30 7 1 5 8
M  V30 8 1 7 9
M  V30 9 1 7 10
M  V30 10 1 7 11
M  V30 11 1 8 12
M  V30 12 1 8 13
M  V30 13 1 9 14
M  V30 14 1 10 15
M  V30 15 1 14 16
M  V30 16 1 14 17
M  V30 17 2 15 18
M  V30 18 1 16 19
M  V30 19 1 16 20
M  V30 20 1 17 21
M  V30 21 1 20 22
M  V30 22 1 20 23
M  V30 23 1 20 24
M  V30 24 2 22 25
M  V30 25 2 23 26
M  V30 26 1 25 27
M  V30 27 2 27 28
M  V30 28 1 9 12
M  V30 29 1 15 16
M  V30 30 1 21 22
M  V30 31 1 26 27
M  V30 32 1 2 29
M  V30 33 1 2 30
M  V30 34 1 6 31
M  V30 35 1 8 32
M  V30 36 1 9 33
M  V30 37 1 10 34
M  V30 38 1 10 35
M  V30 39 1 11 36
M  V30 40 1 11 37
M  V30 41 1 11 38
M  V30 42 1 12 39
M  V30 43 1 12 40
M  V30 44 1 13 41
M  V30 45 1 13 42
M  V30 46 1 13 43
M  V30 47 1 14 44
M  V30 48 1 17 45
M  V30 49 1 17 46
M  V30 50 1 21 47
M  V30 51 1 21 48
M  V30 52 1 23 49
M  V30 53 1 24 50
M  V30 54 1 24 51
M  V30 55 1 24 52
M  V30 56 1 25 53
M  V30 57 1 26 54
M  V30 END BOND
M  V30 BEGIN COLLECTION
M  V30 MDLV30/STEABS ATOMS=(7 5 7 8 9 14 16 20)
M  V30 END COLLECTION
M  V30 END CTAB
M  END
>  <NO.>
2126

>  <Name>
clobetasone

>  <SMILES>
C[C@H]1C[C@H]2[C@@H]3CCC4=CC(=O)C=C[C@]4(C)[C@@]3(F)C(=O)C[C@]2(C)[C@@]1(O)C(=O)CCl

>  <logBB>


>  <Class>
1

>  <MW>
408.15

>  <nHBAcc>
4

>  <nHBDon>
1

>  <SLogP>
3.35

>  <TopoPSA>
71.44

>  <MMFF94 Energy>
158.87

$$$$
C[C@H]1C[C@H]2[C@@H]3CCC4=CC(=O)C=C[C@]4(C)[C@@]3(F)[C@@H](O)C[C@]2(C)[C@@]1(OC(=O)c1ccccc1)C(=O)CO
Actelion Java MolfileCreator 2.0

  0  0  0  0  0  0              0 V3000
M  V30 BEGIN CTAB
M  V30 COUNTS 69 73 0 0 0
M  V30 BEGIN ATOM
M  V30 1 F 0.3238 0.1619 -2.1065 0
M  V30 2 C -0.2724 -1.074 -1.8932 0 CFG=2
M  V30 3 C -0.2382 -1.8295 -3.2847 0 CFG=2
M  V30 4 C -1.6939 -0.7356 -1.347 0 CFG=1
M  V30 5 C 0.6104 -1.7868 -0.8147 0 CFG=2
M  V30 6 C 1.2387 -2.0217 -3.6756 0
M  V30 7 C -0.9828 -1.032 -4.3558 0
M  V30 8 C -0.9037 -3.2249 -3.2562 0
M  V30 9 O -2.5285 -1.8839 -1.252 0
M  V30 10 C -1.6565 -0.0081 0.017 0
M  V30 11 C 0.6119 -0.9382 0.4674 0 CFG=1
M  V30 12 C 2.0509 -1.991 -1.3221 0
M  V30 13 C 1.7755 -1.5602 -4.8192 0
M  V30 14 C 2.1001 -2.7238 -2.658 0
M  V30 15 C -0.4432 -0.5734 -5.4929 0
M  V30 16 C -0.7915 -0.7254 1.0812 0 CFG=1
M  V30 17 C 1.4322 -1.417 1.6573 0
M  V30 18 C 0.9766 -0.8122 -5.8107 0
M  V30 19 C -0.4146 0.1309 2.3635 0 CFG=1
M  V30 20 C -1.4747 -2.0584 1.4974 0
M  V30 21 C 0.9643 -0.5013 2.8179 0 CFG=1
M  V30 22 O 1.4725 -0.4057 -6.8539 0
M  V30 23 O -0.1226 1.4762 1.8829 0
M  V30 24 C -1.5921 0.1274 3.3828 0
M  V30 25 C 1.0222 -1.2411 4.1482 0
M  V30 26 C 0.2509 2.4208 2.7801 0
M  V30 27 O -1.7563 -0.7557 4.2316 0
M  V30 28 C -2.6513 1.2189 3.2487 0
M  V30 29 O 0.2577 2.2726 3.9899 0
M  V30 30 C 0.6184 3.6837 2.0887 0
M  V30 31 O -3.9291 0.7263 3.6332 0
M  V30 32 C 0.8512 4.8219 2.8723 0
M  V30 33 C 0.7463 3.7663 0.695 0
M  V30 34 C 1.2 6.0313 2.2683 0
M  V30 35 C 1.0962 4.9785 0.0956 0
M  V30 36 C 1.3209 6.1085 0.8815 0
M  V30 37 H -2.1831 -0.0493 -2.0477 0
M  V30 38 H 0.1988 -2.7776 -0.5979 0
M  V30 39 H -2.0423 -0.8475 -4.1914 0
M  V30 40 H -1.9973 -3.1647 -3.2363 0
M  V30 41 H -0.5937 -3.8226 -2.3939 0
M  V30 42 H -0.6485 -3.8027 -4.1545 0
M  V30 43 H -3.4084 -1.5939 -0.9494 0
M  V30 44 H -1.2722 1.0022 -0.1652 0
M  V30 45 H -2.6791 0.1067 0.3953 0
M  V30 46 H 1.0263 0.0427 0.1846 0
M  V30 47 H 2.6277 -2.5668 -0.5888 0
M  V30 48 H 2.5519 -1.0191 -1.4233 0
M  V30 49 H 2.8214 -1.6906 -5.073 0
M  V30 50 H 3.1434 -2.7828 -2.9914 0
M  V30 51 H 1.7606 -3.7585 -2.5336 0
M  V30 52 H -1.0151 -0.0227 -6.2298 0
M  V30 53 H 1.2483 -2.4762 1.8692 0
M  V30 54 H 2.5077 -1.3007 1.4851 0
M  V30 55 H -1.4816 -2.8058 0.7022 0
M  V30 56 H -0.9861 -2.5354 2.3508 0
M  V30 57 H -2.5198 -1.8863 1.7801 0
M  V30 58 H 1.7135 0.2989 2.8855 0
M  V30 59 H 2.0424 -1.5922 4.3404 0
M  V30 60 H 0.3719 -2.1199 4.1642 0
M  V30 61 H 0.7463 -0.5806 4.9763 0
M  V30 62 H -2.3935 2.0585 3.8986 0
M  V30 63 H -2.7277 1.5662 2.2175 0
M  V30 64 H -3.772 0.1823 4.4319 0
M  V30 65 H 0.7632 4.7725 3.9563 0
M  V30 66 H 0.5859 2.8979 0.0607 0
M  V30 67 H 1.3795 6.9124 2.88 0
M  V30 68 H 1.1973 5.0406 -0.9856 0
M  V30 69 H 1.5947 7.0507 0.412 0
M  V30 END ATOM
M  V30 BEGIN BOND
M  V30 1 1 1 2
M  V30 2 1 2 3
M  V30 3 1 2 4
M  V30 4 1 2 5
M  V30 5 1 3 6
M  V30 6 1 3 7
M  V30 7 1 3 8
M  V30 8 1 4 9
M  V30 9 1 4 10
M  V30 10 1 5 11
M  V30 11 1 5 12
M  V30 12 2 6 13
M  V30 13 1 6 14
M  V30 14 2 7 15
M  V30 15 1 10 16
M  V30 16 1 11 17
M  V30 17 1 13 18
M  V30 18 1 16 19
M  V30 19 1 16 20
M  V30 20 1 17 21
M  V30 21 2 18 22
M  V30 22 1 19 23
M  V30 23 1 19 24
M  V30 24 1 21 25
M  V30 25 1 23 26
M  V30 26 2 24 27
M  V30 27 1 24 28
M  V30 28 2 26 29
M  V30 29 1 26 30
M  V30 30 1 28 31
M  V30 31 2 30 32
M  V30 32 1 30 33
M  V30 33 1 32 34
M  V30 34 2 33 35
M  V30 35 2 34 36
M  V30 36 1 11 16
M  V30 37 1 12 14
M  V30 38 1 15 18
M  V30 39 1 19 21
M  V30 40 1 35 36
M  V30 41 1 4 37
M  V30 42 1 5 38
M  V30 43 1 7 39
M  V30 44 1 8 40
M  V30 45 1 8 41
M  V30 46 1 8 42
M  V30 47 1 9 43
M  V30 48 1 10 44
M  V30 49 1 10 45
M  V30 50 1 11 46
M  V30 51 1 12 47
M  V30 52 1 12 48
M  V30 53 1 13 49
M  V30 54 1 14 50
M  V30 55 1 14 51
M  V30 56 1 15 52
M  V30 57 1 17 53
M  V30 58 1 17 54
M  V30 59 1 20 55
M  V30 60 1 20 56
M  V30 61 1 20 57
M  V30 62 1 21 58
M  V30 63 1 25 59
M  V30 64 1 25 60
M  V30 65 1 25 61
M  V30 66 1 28 62
M  V30 67 1 28 63
M  V30 68 1 31 64
M  V30 69 1 32 65
M  V30 70 1 33 66
M  V30 71 1 34 67
M  V30 72 1 35 68
M  V30 73 1 36 69
M  V30 END BOND
M  V30 BEGIN COLLECTION
M  V30 MDLV30/STEABS ATOMS=(8 2 3 4 5 11 16 19 21)
M  V30 END COLLECTION
M  V30 END CTAB
M  END
>  <NO.>
2127

>  <Name>
betamethasone-benzoate

>  <SMILES>
C[C@H]1C[C@H]2[C@@H]3CCC4=CC(=O)C=C[C@]4(C)[C@@]3(F)[C@@H](O)C[C@]2(C)[C@@]1(OC(=O)c1ccccc1)C(=O)CO

>  <logBB>


>  <Class>
1

>  <MW>
496.23

>  <nHBAcc>
6

>  <nHBDon>
2

>  <SLogP>
3.76

>  <TopoPSA>
100.9

>  <MMFF94 Energy>
193.63

$$$$
C[C@H]1C[C@H]2[C@@H]3CC[C@](O)(C(=O)COC(=O)CCC(=O)O)[C@@]3(C)C[C@H](O)[C@@H]2[C@@]2(C)C=CC(=O)C=C12
Actelion Java MolfileCreator 2.0

  0  0  0  0  0  0              0 V3000
M  V30 BEGIN CTAB
M  V30 COUNTS 68 71 0 0 0
M  V30 BEGIN ATOM
M  V30 1 O -1.2872 5.9642 -4.5109 0
M  V30 2 C -0.6518 5.0967 -3.9254 0
M  V30 3 C -0.0351 5.3541 -2.6075 0
M  V30 4 C -0.4758 3.7549 -4.503 0
M  V30 5 C 0.6699 4.421 -1.9386 0
M  V30 6 C 0.2235 2.8173 -3.8528 0
M  V30 7 C 0.8994 2.9993 -2.4985 0 CFG=2
M  V30 8 C 1.2671 4.6689 -0.5565 0 CFG=2
M  V30 9 C 0.29 1.9832 -1.4582 0 CFG=1
M  V30 10 C 2.4124 2.8174 -2.7556 0
M  V30 11 C 0.6607 3.6672 0.4356 0
M  V30 12 C 1.1132 6.0901 0.0026 0
M  V30 13 C 0.3231 0.4795 -1.8643 0 CFG=1
M  V30 14 C 0.8373 2.2033 -0.0094 0 CFG=1
M  V30 15 O 1.6178 0.0164 -2.2214 0
M  V30 16 C -0.2777 -0.4667 -0.802 0
M  V30 17 C 0.0882 1.2583 0.9461 0 CFG=1
M  V30 18 C 0.2688 -0.2466 0.6257 0 CFG=1
M  V30 19 C 0.3841 1.3425 2.4371 0
M  V30 20 C -0.5689 -0.8659 1.7938 0 CFG=1
M  V30 21 C 1.7397 -0.7265 0.7442 0
M  V30 22 C -0.1975 0.037 3.0105 0
M  V30 23 O -1.9687 -0.6963 1.5374 0
M  V30 24 C -0.3259 -2.3673 2.0782 0
M  V30 25 O 0.1244 -2.7523 3.1609 0
M  V30 26 C -0.6998 -3.3508 0.9736 0
M  V30 27 O -0.7238 -4.6844 1.4894 0
M  V30 28 C -1.0334 -5.6279 0.5634 0
M  V30 29 O -1.3035 -5.4009 -0.6072 0
M  V30 30 C -1.0382 -6.9948 1.1836 0
M  V30 31 C -2.3695 -7.248 1.8693 0
M  V30 32 C -2.4225 -8.6319 2.4453 0
M  V30 33 O -1.5464 -9.478 2.418 0
M  V30 34 O -3.6035 -8.8828 3.0422 0
M  V30 35 H -0.2172 6.353 -2.2299 0
M  V30 36 H -0.9265 3.5806 -5.4722 0
M  V30 37 H 0.3464 1.8531 -4.3439 0
M  V30 38 H 2.3477 4.4894 -0.6169 0
M  V30 39 H -0.7856 2.2255 -1.4025 0
M  V30 40 H 2.8302 3.6857 -3.2822 0
M  V30 41 H 2.9861 2.6959 -1.8321 0
M  V30 42 H 2.6265 1.9478 -3.3865 0
M  V30 43 H 1.1344 3.8056 1.4157 0
M  V30 44 H -0.4078 3.8847 0.5712 0
M  V30 45 H 0.0611 6.3576 0.1506 0
M  V30 46 H 1.6145 6.176 0.9733 0
M  V30 47 H 1.5698 6.8288 -0.6649 0
M  V30 48 H -0.289 0.348 -2.7634 0
M  V30 49 H 1.9088 1.9827 0.0179 0
M  V30 50 H 2.2803 0.4267 -1.6453 0
M  V30 51 H -0.1063 -1.5018 -1.1141 0
M  V30 52 H -1.364 -0.3132 -0.8085 0
M  V30 53 H -0.9801 1.5096 0.8385 0
M  V30 54 H -0.0814 2.2176 2.9021 0
M  V30 55 H 1.4616 1.399 2.6291 0
M  V30 56 H 1.8624 -1.7209 0.3021 0
M  V30 57 H 2.4529 -0.0641 0.2547 0
M  V30 58 H 2.0724 -0.8014 1.7851 0
M  V30 59 H -1.0761 0.2617 3.6263 0
M  V30 60 H 0.5518 -0.4169 3.6675 0
M  V30 61 H -2.4481 -0.8559 2.3719 0
M  V30 62 H -1.6928 -3.0947 0.5912 0
M  V30 63 H 0.056 -3.2883 0.1871 0
M  V30 64 H -0.1976 -7.0798 1.8824 0
M  V30 65 H -0.8526 -7.7299 0.3915 0
M  V30 66 H -2.5204 -6.5274 2.6811 0
M  V30 67 H -3.1894 -7.1389 1.1503 0
M  V30 68 H -3.5163 -9.8012 3.3742 0
M  V30 END ATOM
M  V30 BEGIN BOND
M  V30 1 2 1 2
M  V30 2 1 2 3
M  V30 3 1 2 4
M  V30 4 2 3 5
M  V30 5 2 4 6
M  V30 6 1 5 7
M  V30 7 1 5 8
M  V30 8 1 7 9
M  V30 9 1 7 10
M  V30 10 1 8 11
M  V30 11 1 8 12
M  V30 12 1 9 13
M  V30 13 1 9 14
M  V30 14 1 13 15
M  V30 15 1 13 16
M  V30 16 1 14 17
M  V30 17 1 16 18
M  V30 18 1 17 19
M  V30 19 1 18 20
M  V30 20 1 18 21
M  V30 21 1 19 22
M  V30 22 1 20 23
M  V30 23 1 20 24
M  V30 24 2 24 25
M  V30 25 1 24 26
M  V30 26 1 26 27
M  V30 27 1 27 28
M  V30 28 2 28 29
M  V30 29 1 28 30
M  V30 30 1 30 31
M  V30 31 1 31 32
M  V30 32 2 32 33
M  V30 33 1 32 34
M  V30 34 1 6 7
M  V30 35 1 11 14
M  V30 36 1 17 18
M  V30 37 1 20 22
M  V30 38 1 3 35
M  V30 39 1 4 36
M  V30 40 1 6 37
M  V30 41 1 8 38
M  V30 42 1 9 39
M  V30 43 1 10 40
M  V30 44 1 10 41
M  V30 45 1 10 42
M  V30 46 1 11 43
M  V30 47 1 11 44
M  V30 48 1 12 45
M  V30 49 1 12 46
M  V30 50 1 12 47
M  V30 51 1 13 48
M  V30 52 1 14 49
M  V30 53 1 15 50
M  V30 54 1 16 51
M  V30 55 1 16 52
M  V30 56 1 17 53
M  V30 57 1 19 54
M  V30 58 1 19 55
M  V30 59 1 21 56
M  V30 60 1 21 57
M  V30 61 1 21 58
M  V30 62 1 22 59
M  V30 63 1 22 60
M  V30 64 1 23 61
M  V30 65 1 26 62
M  V30 66 1 26 63
M  V30 67 1 30 64
M  V30 68 1 30 65
M  V30 69 1 31 66
M  V30 70 1 31 67
M  V30 71 1 34 68
M  V30 END BOND
M  V30 BEGIN COLLECTION
M  V30 MDLV30/STEABS ATOMS=(8 7 8 9 13 14 17 18 20)
M  V30 END COLLECTION
M  V30 END CTAB
M  END
>  <NO.>
2129

>  <Name>
methylprednisolone hemisuccinate

>  <SMILES>
C[C@H]1C[C@H]2[C@@H]3CC[C@](O)(C(=O)COC(=O)CCC(=O)O)[C@@]3(C)C[C@H](O)[C@@H]2[C@@]2(C)C=CC(=O)C=C12

>  <logBB>


>  <Class>
1

>  <MW>
474.23

>  <nHBAcc>
7

>  <nHBDon>
3

>  <SLogP>
2.22

>  <TopoPSA>
138.2

>  <MMFF94 Energy>
79.334

$$$$
C[C@H]1[C@H](c2ccccc2)OCCN1C
Actelion Java MolfileCreator 2.0

  0  0  0  0  0  0              0 V3000
M  V30 BEGIN CTAB
M  V30 COUNTS 31 32 0 0 0
M  V30 BEGIN ATOM
M  V30 1 O -0.158 -1.5809 1.0274 0
M  V30 2 C 0.3716 -0.2974 0.6391 0 CFG=1
M  V30 3 C -1.0492 -1.4378 2.1336 0
M  V30 4 C 1.3362 -0.561 -0.5043 0
M  V30 5 C -0.781 0.706 0.2645 0 CFG=1
M  V30 6 C -2.2318 -0.5419 1.7582 0
M  V30 7 C 2.6566 -0.0889 -0.4404 0
M  V30 8 C 0.9303 -1.2695 -1.6465 0
M  V30 9 N -1.7842 0.8136 1.3713 0
M  V30 10 C -0.1878 2.0856 -0.0665 0
M  V30 11 C 3.5433 -0.3112 -1.4958 0
M  V30 12 C 1.8182 -1.4916 -2.7003 0
M  V30 13 C -2.9508 1.6188 1.0004 0
M  V30 14 C 3.1234 -1.0104 -2.6255 0
M  V30 15 H 0.9343 0.0977 1.4966 0
M  V30 16 H -0.5038 -1.0452 3.0003 0
M  V30 17 H -1.4119 -2.4367 2.3963 0
M  V30 18 H -1.2971 0.3244 -0.6276 0
M  V30 19 H -2.9067 -0.4787 2.6198 0
M  V30 20 H -2.7819 -1.0045 0.9281 0
M  V30 21 H 3.0038 0.4571 0.4339 0
M  V30 22 H -0.0815 -1.6643 -1.7101 0
M  V30 23 H 0.5626 2.0199 -0.8601 0
M  V30 24 H 0.2894 2.5322 0.8126 0
M  V30 25 H -0.9499 2.7805 -0.4318 0
M  V30 26 H 4.5633 0.0588 -1.4345 0
M  V30 27 H 1.4919 -2.0463 -3.5759 0
M  V30 28 H -3.4305 1.2562 0.0844 0
M  V30 29 H -3.697 1.606 1.8036 0
M  V30 30 H -2.6828 2.6706 0.8649 0
M  V30 31 H 3.8153 -1.1863 -3.4447 0
M  V30 END ATOM
M  V30 BEGIN BOND
M  V30 1 1 1 2
M  V30 2 1 1 3
M  V30 3 1 2 4
M  V30 4 1 2 5
M  V30 5 1 3 6
M  V30 6 2 4 7
M  V30 7 1 4 8
M  V30 8 1 5 9
M  V30 9 1 5 10
M  V30 10 1 7 11
M  V30 11 2 8 12
M  V30 12 1 9 13
M  V30 13 2 11 14
M  V30 14 1 6 9
M  V30 15 1 12 14
M  V30 16 1 2 15
M  V30 17 1 3 16
M  V30 18 1 3 17
M  V30 19 1 5 18
M  V30 20 1 6 19
M  V30 21 1 6 20
M  V30 22 1 7 21
M  V30 23 1 8 22
M  V30 24 1 10 23
M  V30 25 1 10 24
M  V30 26 1 10 25
M  V30 27 1 11 26
M  V30 28 1 12 27
M  V30 29 1 13 28
M  V30 30 1 13 29
M  V30 31 1 13 30
M  V30 32 1 14 31
M  V30 END BOND
M  V30 BEGIN COLLECTION
M  V30 MDLV30/STEABS ATOMS=(2 2 5)
M  V30 END COLLECTION
M  V30 END CTAB
M  END
>  <NO.>
2133

>  <Name>
phendimetrazine

>  <SMILES>
C[C@H]1[C@H](c2ccccc2)OCCN1C

>  <logBB>


>  <Class>
1

>  <MW>
191.13

>  <nHBAcc>
2

>  <nHBDon>
0

>  <SLogP>
2.08

>  <TopoPSA>
12.47

>  <MMFF94 Energy>
97.034

$$$$
C[C@]1(O)CC[C@H]2[C@@H]3CCC4=CC(=O)CC[C@]4(C)[C@H]3CC[C@@]21C
Actelion Java MolfileCreator 2.0

  0  0  0  0  0  0              0 V3000
M  V30 BEGIN CTAB
M  V30 COUNTS 52 55 0 0 0
M  V30 BEGIN ATOM
M  V30 1 O 5.3039 -1.6853 2.81 0
M  V30 2 C 4.3631 -1.0555 2.3333 0
M  V30 3 C 4.039 -1.2051 0.8965 0
M  V30 4 C 3.5698 -0.0599 3.1366 0
M  V30 5 C 2.996 -0.5684 0.3342 0
M  V30 6 C 2.1298 -0.0088 2.6471 0
M  V30 7 C 1.9929 0.2843 1.1232 0 CFG=2
M  V30 8 C 2.7874 -0.6564 -1.1592 0
M  V30 9 C 0.525 -0.0828 0.6773 0 CFG=2
M  V30 10 C 2.3201 1.7728 0.8685 0
M  V30 11 C 1.3585 -1.0449 -1.5158 0
M  V30 12 C 0.3458 -0.0877 -0.873 0 CFG=1
M  V30 13 C -0.5751 0.7543 1.3848 0
M  V30 14 C -1.0957 -0.492 -1.2089 0 CFG=1
M  V30 15 C -2.002 0.3958 0.9302 0
M  V30 16 C -2.1484 0.458 -0.5988 0 CFG=2
M  V30 17 C -1.5029 -0.5796 -2.6761 0
M  V30 18 C -3.4574 -0.1338 -1.208 0 CFG=2
M  V30 19 C -1.9878 1.9371 -1.0571 0
M  V30 20 C -3.0405 -0.4953 -2.6584 0
M  V30 21 O -4.5043 0.8327 -1.253 0
M  V30 22 C -4.0266 -1.3652 -0.4925 0
M  V30 23 H 4.7331 -1.8146 0.3281 0
M  V30 24 H 4.0577 0.9172 3.0668 0
M  V30 25 H 3.5811 -0.3728 4.1866 0
M  V30 26 H 1.6609 -0.9762 2.8759 0
M  V30 27 H 1.591 0.7432 3.2358 0
M  V30 28 H 3.4726 -1.3825 -1.6135 0
M  V30 29 H 3.0268 0.3149 -1.6092 0
M  V30 30 H 0.3543 -1.1228 1.0005 0
M  V30 31 H 3.379 1.989 1.0528 0
M  V30 32 H 2.1108 2.0732 -0.1626 0
M  V30 33 H 1.7426 2.4311 1.5259 0
M  V30 34 H 1.1636 -2.0752 -1.1913 0
M  V30 35 H 1.2532 -1.0303 -2.6068 0
M  V30 36 H 0.5414 0.9134 -1.2717 0
M  V30 37 H -0.4049 1.8233 1.2253 0
M  V30 38 H -0.5255 0.5959 2.4678 0
M  V30 39 H -1.2386 -1.499 -0.7881 0
M  V30 40 H -2.7225 1.0665 1.4133 0
M  V30 41 H -2.2202 -0.6132 1.2993 0
M  V30 42 H -1.0837 0.2482 -3.2588 0
M  V30 43 H -1.1641 -1.5122 -3.1387 0
M  V30 44 H -1.0055 2.3546 -0.8229 0
M  V30 45 H -2.1313 2.0583 -2.1355 0
M  V30 46 H -2.7268 2.5762 -0.5596 0
M  V30 47 H -3.4746 -1.4502 -2.9764 0
M  V30 48 H -3.3823 0.2575 -3.3785 0
M  V30 49 H -4.7171 1.0831 -0.3376 0
M  V30 50 H -4.3633 -1.1121 0.5188 0
M  V30 51 H -4.9159 -1.7335 -1.018 0
M  V30 52 H -3.3106 -2.1887 -0.4272 0
M  V30 END ATOM
M  V30 BEGIN BOND
M  V30 1 2 1 2
M  V30 2 1 2 3
M  V30 3 1 2 4
M  V30 4 2 3 5
M  V30 5 1 4 6
M  V30 6 1 5 7
M  V30 7 1 5 8
M  V30 8 1 7 9
M  V30 9 1 7 10
M  V30 10 1 8 11
M  V30 11 1 9 12
M  V30 12 1 9 13
M  V30 13 1 12 14
M  V30 14 1 13 15
M  V30 15 1 14 16
M  V30 16 1 14 17
M  V30 17 1 16 18
M  V30 18 1 16 19
M  V30 19 1 17 20
M  V30 20 1 18 21
M  V30 21 1 18 22
M  V30 22 1 6 7
M  V30 23 1 11 12
M  V30 24 1 15 16
M  V30 25 1 18 20
M  V30 26 1 3 23
M  V30 27 1 4 24
M  V30 28 1 4 25
M  V30 29 1 6 26
M  V30 30 1 6 27
M  V30 31 1 8 28
M  V30 32 1 8 29
M  V30 33 1 9 30
M  V30 34 1 10 31
M  V30 35 1 10 32
M  V30 36 1 10 33
M  V30 37 1 11 34
M  V30 38 1 11 35
M  V30 39 1 12 36
M  V30 40 1 13 37
M  V30 41 1 13 38
M  V30 42 1 14 39
M  V30 43 1 15 40
M  V30 44 1 15 41
M  V30 45 1 17 42
M  V30 46 1 17 43
M  V30 47 1 19 44
M  V30 48 1 19 45
M  V30 49 1 19 46
M  V30 50 1 20 47
M  V30 51 1 20 48
M  V30 52 1 21 49
M  V30 53 1 22 50
M  V30 54 1 22 51
M  V30 55 1 22 52
M  V30 END BOND
M  V30 BEGIN COLLECTION
M  V30 MDLV30/STEABS ATOMS=(6 7 9 12 14 16 18)
M  V30 END COLLECTION
M  V30 END CTAB
M  END
>  <NO.>
2136

>  <Name>
methyltestosterone

>  <SMILES>
C[C@]1(O)CC[C@H]2[C@@H]3CCC4=CC(=O)CC[C@]4(C)[C@H]3CC[C@@]21C

>  <logBB>


>  <Class>
-1

>  <MW>
302.22

>  <nHBAcc>
2

>  <nHBDon>
1

>  <SLogP>
4.27

>  <TopoPSA>
37.3

>  <MMFF94 Energy>
81.166

$$$$
C[C@]12C=C(Br)C(=O)C=C1[C@H](F)C[C@H]1[C@@H]3CCC(O)(C(=O)CO)[C@@]3(C)C[C@H](O)C12F
Actelion Java MolfileCreator 2.0

  0  0  0  0  0  0              0 V3000
M  V30 BEGIN CTAB
M  V30 COUNTS 54 57 0 0 0
M  V30 BEGIN ATOM
M  V30 1 Br -4.9363 4.1947 0.0 0
M  V30 2 C -3.4267 3.5366 0.8814 0
M  V30 3 C -3.4088 3.5699 2.3694 0
M  V30 4 C -2.3725 3.0561 0.204 0
M  V30 5 O -4.3262 4.015 3.0503 0
M  V30 6 C -2.2089 3.0217 3.0381 0
M  V30 7 C -1.084 2.511 0.8172 0 CFG=1
M  V30 8 C -1.1597 2.5369 2.3515 0
M  V30 9 C -0.8485 1.0084 0.3719 0
M  V30 10 C 0.033 3.4812 0.3667 0
M  V30 11 C 0.0022 1.9156 3.081 0 CFG=2
M  V30 12 F -1.9511 0.3013 0.8325 0
M  V30 13 C -0.8273 0.7532 -1.1679 0 CFG=1
M  V30 14 C 0.3844 0.3721 1.0935 0 CFG=1
M  V30 15 F 1.1369 2.6312 2.8494 0
M  V30 16 C 0.2383 0.4816 2.6243 0
M  V30 17 O 0.0877 1.6076 -1.8446 0
M  V30 18 C -0.5347 -0.717 -1.5467 0
M  V30 19 C 0.5102 -1.1001 0.6722 0 CFG=1
M  V30 20 C 0.7138 -1.298 -0.8492 0 CFG=1
M  V30 21 C 1.6213 -1.9378 1.2935 0
M  V30 22 C 0.8778 -2.8539 -0.895 0
M  V30 23 C 2.0017 -0.6192 -1.3883 0
M  V30 24 C 1.7456 -3.158 0.362 0
M  V30 25 O -0.3949 -3.4837 -0.7152 0
M  V30 26 C 1.5184 -3.3896 -2.1932 0
M  V30 27 O 2.7234 -3.6426 -2.2915 0
M  V30 28 C 0.5978 -3.6209 -3.3869 0
M  V30 29 O 1.3396 -3.7957 -4.5873 0
M  V30 30 H -2.4129 3.0779 -0.8835 0
M  V30 31 H -2.2514 3.0241 4.1224 0
M  V30 32 H -0.0448 3.7443 -0.6939 0
M  V30 33 H 1.0359 3.0748 0.5235 0
M  V30 34 H -0.0203 4.4293 0.9184 0
M  V30 35 H -0.1533 1.9239 4.1656 0
M  V30 36 H -1.8218 0.9804 -1.5695 0
M  V30 37 H 1.2959 0.9082 0.8112 0
M  V30 38 H 1.153 0.1121 3.1025 0
M  V30 39 H -0.5886 -0.153 2.9679 0
M  V30 40 H -0.003 1.4494 -2.8018 0
M  V30 41 H -0.416 -0.7889 -2.6333 0
M  V30 42 H -1.42 -1.309 -1.2836 0
M  V30 43 H -0.4343 -1.5872 0.9647 0
M  V30 44 H 1.3802 -2.2468 2.3159 0
M  V30 45 H 2.5673 -1.3859 1.3298 0
M  V30 46 H 2.9143 -1.0865 -1.0042 0
M  V30 47 H 2.0717 0.4389 -1.1299 0
M  V30 48 H 2.0426 -0.686 -2.4817 0
M  V30 49 H 1.3985 -4.0575 0.8836 0
M  V30 50 H 2.8038 -3.3119 0.1259 0
M  V30 51 H -0.2489 -4.4015 -0.4217 0
M  V30 52 H 0.0089 -4.525 -3.2098 0
M  V30 53 H -0.0684 -2.7707 -3.5291 0
M  V30 54 H 2.2094 -4.1574 -4.3216 0
M  V30 END ATOM
M  V30 BEGIN BOND
M  V30 1 1 1 2
M  V30 2 1 2 3
M  V30 3 2 2 4
M  V30 4 2 3 5
M  V30 5 1 3 6
M  V30 6 1 4 7
M  V30 7 2 6 8
M  V30 8 1 7 9
M  V30 9 1 7 10
M  V30 10 1 8 11
M  V30 11 1 9 12
M  V30 12 1 9 13
M  V30 13 1 9 14
M  V30 14 1 11 15
M  V30 15 1 11 16
M  V30 16 1 13 17
M  V30 17 1 13 18
M  V30 18 1 14 19
M  V30 19 1 18 20
M  V30 20 1 19 21
M  V30 21 1 20 22
M  V30 22 1 20 23
M  V30 23 1 21 24
M  V30 24 1 22 25
M  V30 25 1 22 26
M  V30 26 2 26 27
M  V30 27 1 26 28
M  V30 28 1 28 29
M  V30 29 1 7 8
M  V30 30 1 14 16
M  V30 31 1 19 20
M  V30 32 1 22 24
M  V30 33 1 4 30
M  V30 34 1 6 31
M  V30 35 1 10 32
M  V30 36 1 10 33
M  V30 37 1 10 34
M  V30 38 1 11 35
M  V30 39 1 13 36
M  V30 40 1 14 37
M  V30 41 1 16 38
M  V30 42 1 16 39
M  V30 43 1 17 40
M  V30 44 1 18 41
M  V30 45 1 18 42
M  V30 46 1 19 43
M  V30 47 1 21 44
M  V30 48 1 21 45
M  V30 49 1 23 46
M  V30 50 1 23 47
M  V30 51 1 23 48
M  V30 52 1 24 49
M  V30 53 1 24 50
M  V30 54 1 25 51
M  V30 55 1 28 52
M  V30 56 1 28 53
M  V30 57 1 29 54
M  V30 END BOND
M  V30 BEGIN COLLECTION
M  V30 MDLV30/STEABS ATOMS=(6 7 11 13 14 19 20)
M  V30 END COLLECTION
M  V30 END CTAB
M  END
>  <NO.>
2137

>  <Name>
halopredone(halopredone-acetate)

>  <SMILES>
C[C@]12C=C(Br)C(=O)C=C1[C@H](F)C[C@H]1[C@@H]3CCC(O)(C(=O)CO)[C@@]3(C)C[C@H](O)C12F

>  <logBB>


>  <Class>
1

>  <MW>
474.09

>  <nHBAcc>
5

>  <nHBDon>
3

>  <SLogP>
2.32

>  <TopoPSA>
94.83

>  <MMFF94 Energy>
168.42

$$$$
C[C@]12CCC(=O)C=C1CC[C@@H]1[C@@H]2[C@@H](O)C[C@]2(C=O)[C@@H](C(=O)CO)CC[C@@H]12
Actelion Java MolfileCreator 2.0

  0  0  0  0  0  0              0 V3000
M  V30 BEGIN CTAB
M  V30 COUNTS 54 57 0 0 0
M  V30 BEGIN ATOM
M  V30 1 O -4.6935 2.3447 3.0732 0
M  V30 2 C -3.8862 2.0801 2.1865 0
M  V30 3 C -2.6384 2.8715 2.0728 0
M  V30 4 C -4.0522 0.8974 1.2668 0
M  V30 5 C -1.7614 2.6486 1.0782 0
M  V30 6 C -3.4945 1.2333 -0.1053 0
M  V30 7 C -2.0044 1.6804 -0.0883 0 CFG=2
M  V30 8 C -0.3799 3.2495 1.1339 0
M  V30 9 C -0.9997 0.4897 0.1473 0 CFG=1
M  V30 10 C -1.7817 2.4228 -1.4306 0
M  V30 11 C 0.6408 2.1237 1.2988 0
M  V30 12 C -1.1097 -0.7018 -0.8457 0 CFG=1
M  V30 13 C 0.4873 0.9989 0.2535 0 CFG=1
M  V30 14 O -0.9056 -0.2271 -2.1677 0
M  V30 15 C -0.1067 -1.8375 -0.5207 0
M  V30 16 C 1.3783 -0.1993 0.6083 0 CFG=1
M  V30 17 C 1.3409 -1.3179 -0.4461 0 CFG=2
M  V30 18 C 2.8632 0.019 0.8471 0
M  V30 19 C 1.7913 -0.8894 -1.8502 0
M  V30 20 C 2.3821 -2.3078 0.1225 0 CFG=2
M  V30 21 C 3.4229 -1.4092 0.8483 0
M  V30 22 O 1.452 -1.5061 -2.8603 0
M  V30 23 C 3.0381 -3.2224 -0.9124 0
M  V30 24 O 4.1391 -2.9711 -1.4081 0
M  V30 25 C 2.2538 -4.457 -1.3466 0
M  V30 26 O 3.0921 -5.4041 -1.989 0
M  V30 27 H -2.4424 3.5518 2.8942 0
M  V30 28 H -5.121 0.6737 1.1781 0
M  V30 29 H -3.555 0.0288 1.7094 0
M  V30 30 H -4.1081 2.05 -0.515 0
M  V30 31 H -3.6483 0.3884 -0.7842 0
M  V30 32 H -0.2794 3.9472 1.9745 0
M  V30 33 H -0.173 3.8318 0.23 0
M  V30 34 H -1.2456 0.0642 1.1336 0
M  V30 35 H -2.1812 1.8542 -2.277 0
M  V30 36 H -2.3024 3.3891 -1.4331 0
M  V30 37 H -0.7293 2.628 -1.6427 0
M  V30 38 H 0.54 1.6997 2.3073 0
M  V30 39 H 1.6491 2.5508 1.2403 0
M  V30 40 H -2.1149 -1.1324 -0.8061 0
M  V30 41 H 0.8051 1.4018 -0.715 0
M  V30 42 H -0.6623 -0.9733 -2.7516 0
M  V30 43 H -0.3888 -2.2906 0.4384 0
M  V30 44 H -0.1944 -2.6249 -1.2779 0
M  V30 45 H 0.9836 -0.61 1.5535 0
M  V30 46 H 3.0656 0.5233 1.7974 0
M  V30 47 H 3.3214 0.6152 0.0512 0
M  V30 48 H 2.4918 -0.0415 -1.9209 0
M  V30 49 H 1.9229 -2.9543 0.8824 0
M  V30 50 H 4.4231 -1.424 0.4052 0
M  V30 51 H 3.5332 -1.7594 1.8823 0
M  V30 52 H 1.8124 -4.9376 -0.4699 0
M  V30 53 H 1.4649 -4.1613 -2.0413 0
M  V30 54 H 3.7395 -4.8835 -2.5062 0
M  V30 END ATOM
M  V30 BEGIN BOND
M  V30 1 2 1 2
M  V30 2 1 2 3
M  V30 3 1 2 4
M  V30 4 2 3 5
M  V30 5 1 4 6
M  V30 6 1 5 7
M  V30 7 1 5 8
M  V30 8 1 7 9
M  V30 9 1 7 10
M  V30 10 1 8 11
M  V30 11 1 9 12
M  V30 12 1 9 13
M  V30 13 1 12 14
M  V30 14 1 12 15
M  V30 15 1 13 16
M  V30 16 1 15 17
M  V30 17 1 16 18
M  V30 18 1 17 19
M  V30 19 1 17 20
M  V30 20 1 18 21
M  V30 21 2 19 22
M  V30 22 1 20 23
M  V30 23 2 23 24
M  V30 24 1 23 25
M  V30 25 1 25 26
M  V30 26 1 6 7
M  V30 27 1 11 13
M  V30 28 1 16 17
M  V30 29 1 20 21
M  V30 30 1 3 27
M  V30 31 1 4 28
M  V30 32 1 4 29
M  V30 33 1 6 30
M  V30 34 1 6 31
M  V30 35 1 8 32
M  V30 36 1 8 33
M  V30 37 1 9 34
M  V30 38 1 10 35
M  V30 39 1 10 36
M  V30 40 1 10 37
M  V30 41 1 11 38
M  V30 42 1 11 39
M  V30 43 1 12 40
M  V30 44 1 13 41
M  V30 45 1 14 42
M  V30 46 1 15 43
M  V30 47 1 15 44
M  V30 48 1 16 45
M  V30 49 1 18 46
M  V30 50 1 18 47
M  V30 51 1 19 48
M  V30 52 1 20 49
M  V30 53 1 21 50
M  V30 54 1 21 51
M  V30 55 1 25 52
M  V30 56 1 25 53
M  V30 57 1 26 54
M  V30 END BOND
M  V30 BEGIN COLLECTION
M  V30 MDLV30/STEABS ATOMS=(7 7 9 12 13 16 17 20)
M  V30 END COLLECTION
M  V30 END CTAB
M  END
>  <NO.>
2138

>  <Name>
aldosterone

>  <SMILES>
C[C@]12CCC(=O)C=C1CC[C@@H]1[C@@H]2[C@@H](O)C[C@]2(C=O)[C@@H](C(=O)CO)CC[C@@H]12

>  <logBB>


>  <Class>
-1

>  <MW>
360.19

>  <nHBAcc>
5

>  <nHBDon>
2

>  <SLogP>
1.85

>  <TopoPSA>
91.67

>  <MMFF94 Energy>
85.169

$$$$
C[C@]12CC[C@@H]3[C@H]4CCC(=O)C=C4CC[C@H]3[C@@H]1CC[C@@H]2O
Actelion Java MolfileCreator 2.0

  0  0  0  0  0  0              0 V3000
M  V30 BEGIN CTAB
M  V30 COUNTS 46 49 0 0 0
M  V30 BEGIN ATOM
M  V30 1 O -1.6087 -4.4287 -3.4612 0
M  V30 2 C -1.1111 -3.7547 -2.5626 0
M  V30 3 C 0.0879 -2.9291 -2.8479 0
M  V30 4 C -1.7314 -3.6525 -1.1891 0
M  V30 5 C 0.6796 -2.2186 -1.8736 0
M  V30 6 C -0.65 -3.4746 -0.1362 0
M  V30 7 C 0.2599 -2.2671 -0.4139 0 CFG=2
M  V30 8 C 1.7619 -1.2149 -2.1685 0
M  V30 9 C -0.3186 -0.8727 -0.0537 0 CFG=2
M  V30 10 C 1.282 0.1816 -1.7615 0
M  V30 11 C 0.7816 0.2161 -0.304 0 CFG=1
M  V30 12 C -0.891 -0.7945 1.3811 0
M  V30 13 C 0.2096 1.5817 0.0777 0 CFG=1
M  V30 14 C -1.3248 0.6245 1.7926 0
M  V30 15 C -0.2082 1.6508 1.5603 0 CFG=2
M  V30 16 C 1.0681 2.8294 -0.1092 0
M  V30 17 C -0.6602 3.1227 1.6231 0 CFG=2
M  V30 18 C 0.9401 1.3968 2.5703 0
M  V30 19 C 0.4074 3.8765 0.8061 0
M  V30 20 O -0.7539 3.6152 2.9456 0
M  V30 21 H 0.391 -2.8792 -3.8873 0
M  V30 22 H -2.4395 -2.8174 -1.1836 0
M  V30 23 H -2.2839 -4.5767 -0.988 0
M  V30 24 H -0.0232 -4.3781 -0.1349 0
M  V30 25 H -1.0958 -3.427 0.8614 0
M  V30 26 H 1.1616 -2.4239 0.1956 0
M  V30 27 H 2.6684 -1.4811 -1.6118 0
M  V30 28 H 2.0305 -1.2107 -3.2313 0
M  V30 29 H -1.1572 -0.6607 -0.7349 0
M  V30 30 H 0.4771 0.502 -2.4361 0
M  V30 31 H 2.1073 0.891 -1.893 0
M  V30 32 H 1.6478 -0.0075 0.3313 0
M  V30 33 H -1.7715 -1.4418 1.4643 0
M  V30 34 H -0.1545 -1.181 2.0948 0
M  V30 35 H -0.6877 1.7342 -0.5452 0
M  V30 36 H -2.2123 0.8984 1.2071 0
M  V30 37 H -1.6383 0.6239 2.8435 0
M  V30 38 H 2.105 2.6537 0.1977 0
M  V30 39 H 1.0831 3.1644 -1.1513 0
M  V30 40 H -1.6409 3.2456 1.1464 0
M  V30 41 H 1.7498 2.1271 2.4753 0
M  V30 42 H 1.3904 0.4071 2.459 0
M  V30 43 H 0.5689 1.4609 3.5999 0
M  V30 44 H 1.1535 4.3589 1.4475 0
M  V30 45 H -0.0638 4.6694 0.2144 0
M  V30 46 H -0.9609 4.5639 2.8905 0
M  V30 END ATOM
M  V30 BEGIN BOND
M  V30 1 2 1 2
M  V30 2 1 2 3
M  V30 3 1 2 4
M  V30 4 2 3 5
M  V30 5 1 4 6
M  V30 6 1 5 7
M  V30 7 1 5 8
M  V30 8 1 7 9
M  V30 9 1 8 10
M  V30 10 1 9 11
M  V30 11 1 9 12
M  V30 12 1 11 13
M  V30 13 1 12 14
M  V30 14 1 13 15
M  V30 15 1 13 16
M  V30 16 1 15 17
M  V30 17 1 15 18
M  V30 18 1 16 19
M  V30 19 1 17 20
M  V30 20 1 6 7
M  V30 21 1 10 11
M  V30 22 1 14 15
M  V30 23 1 17 19
M  V30 24 1 3 21
M  V30 25 1 4 22
M  V30 26 1 4 23
M  V30 27 1 6 24
M  V30 28 1 6 25
M  V30 29 1 7 26
M  V30 30 1 8 27
M  V30 31 1 8 28
M  V30 32 1 9 29
M  V30 33 1 10 30
M  V30 34 1 10 31
M  V30 35 1 11 32
M  V30 36 1 12 33
M  V30 37 1 12 34
M  V30 38 1 13 35
M  V30 39 1 14 36
M  V30 40 1 14 37
M  V30 41 1 16 38
M  V30 42 1 16 39
M  V30 43 1 17 40
M  V30 44 1 18 41
M  V30 45 1 18 42
M  V30 46 1 18 43
M  V30 47 1 19 44
M  V30 48 1 19 45
M  V30 49 1 20 46
M  V30 END BOND
M  V30 BEGIN COLLECTION
M  V30 MDLV30/STEABS ATOMS=(6 7 9 11 13 15 17)
M  V30 END COLLECTION
M  V30 END CTAB
M  END
>  <NO.>
2139

>  <Name>
nandrolone

>  <SMILES>
C[C@]12CC[C@@H]3[C@H]4CCC(=O)C=C4CC[C@H]3[C@@H]1CC[C@@H]2O

>  <logBB>


>  <Class>
-1

>  <MW>
274.19

>  <nHBAcc>
2

>  <nHBDon>
1

>  <SLogP>
3.49

>  <TopoPSA>
37.3

>  <MMFF94 Energy>
61.57

$$$$
C[C@]12CC[C@@H]3c4ccc(O)cc4CC[C@H]3[C@@H]1CCC2=O
Actelion Java MolfileCreator 2.0

  0  0  0  0  0  0              0 V3000
M  V30 BEGIN CTAB
M  V30 COUNTS 42 45 0 0 0
M  V30 BEGIN ATOM
M  V30 1 O 4.7558 -0.4023 -1.1269 0
M  V30 2 C 3.8661 -0.0315 -0.373 0
M  V30 3 C 2.4088 0.1268 -0.767 0 CFG=2
M  V30 4 C 4.0923 0.3615 1.0772 0
M  V30 5 C 1.7804 -0.054 0.6307 0 CFG=1
M  V30 6 C 1.8259 -0.9438 -1.6827 0
M  V30 7 C 2.2738 1.5268 -1.394 0
M  V30 8 C 2.6855 0.7542 1.5533 0
M  V30 9 C 0.2771 0.2171 0.6011 0 CFG=1
M  V30 10 C 0.288 -0.8576 -1.7363 0
M  V30 11 C -0.3909 -0.8339 -0.339 0 CFG=2
M  V30 12 C -0.3701 0.1277 1.9838 0
M  V30 13 C -1.9086 -0.6698 -0.3587 0
M  V30 14 C -1.837 0.5393 1.8975 0
M  V30 15 C -2.5781 -0.058 0.725 0
M  V30 16 C -2.6829 -1.1983 -1.4073 0
M  V30 17 C -3.9808 0.0554 0.7107 0
M  V30 18 C -4.0747 -1.0872 -1.407 0
M  V30 19 C -4.7132 -0.4585 -0.3516 0
M  V30 20 O -6.0726 -0.3679 -0.3912 0
M  V30 21 H 4.7905 1.1977 1.153 0
M  V30 22 H 4.4643 -0.5088 1.6251 0
M  V30 23 H 1.9075 -1.1054 0.942 0
M  V30 24 H 2.1177 -1.9416 -1.3296 0
M  V30 25 H 2.2352 -0.8532 -2.6961 0
M  V30 26 H 2.7241 2.3086 -0.773 0
M  V30 27 H 2.7955 1.561 -2.3582 0
M  V30 28 H 1.2347 1.8117 -1.5781 0
M  V30 29 H 2.5181 1.8311 1.4436 0
M  V30 30 H 2.5452 0.5013 2.6088 0
M  V30 31 H 0.0935 1.228 0.2149 0
M  V30 32 H -0.0628 -1.7215 -2.3124 0
M  V30 33 H -0.0112 0.0313 -2.3052 0
M  V30 34 H -0.2195 -1.8286 0.101 0
M  V30 35 H 0.1366 0.7805 2.703 0
M  V30 36 H -0.2915 -0.8962 2.3709 0
M  V30 37 H -2.3351 0.2582 2.8333 0
M  V30 38 H -1.8959 1.6319 1.8092 0
M  V30 39 H -2.2216 -1.7146 -2.2442 0
M  V30 40 H -4.4852 0.5466 1.538 0
M  V30 41 H -4.6558 -1.4959 -2.2286 0
M  V30 42 H -6.3748 0.0914 0.4089 0
M  V30 END ATOM
M  V30 BEGIN BOND
M  V30 1 2 1 2
M  V30 2 1 2 3
M  V30 3 1 2 4
M  V30 4 1 3 5
M  V30 5 1 3 6
M  V30 6 1 3 7
M  V30 7 1 4 8
M  V30 8 1 5 9
M  V30 9 1 6 10
M  V30 10 1 9 11
M  V30 11 1 9 12
M  V30 12 1 11 13
M  V30 13 1 12 14
M  V30 14 2 13 15
M  V30 15 1 13 16
M  V30 16 1 15 17
M  V30 17 2 16 18
M  V30 18 2 17 19
M  V30 19 1 19 20
M  V30 20 1 5 8
M  V30 21 1 10 11
M  V30 22 1 14 15
M  V30 23 1 18 19
M  V30 24 1 4 21
M  V30 25 1 4 22
M  V30 26 1 5 23
M  V30 27 1 6 24
M  V30 28 1 6 25
M  V30 29 1 7 26
M  V30 30 1 7 27
M  V30 31 1 7 28
M  V30 32 1 8 29
M  V30 33 1 8 30
M  V30 34 1 9 31
M  V30 35 1 10 32
M  V30 36 1 10 33
M  V30 37 1 11 34
M  V30 38 1 12 35
M  V30 39 1 12 36
M  V30 40 1 14 37
M  V30 41 1 14 38
M  V30 42 1 16 39
M  V30 43 1 17 40
M  V30 44 1 18 41
M  V30 45 1 20 42
M  V30 END BOND
M  V30 BEGIN COLLECTION
M  V30 MDLV30/STEABS ATOMS=(4 3 5 9 11)
M  V30 END COLLECTION
M  V30 END CTAB
M  END
>  <NO.>
2140

>  <Name>
estrone

>  <SMILES>
C[C@]12CC[C@@H]3c4ccc(O)cc4CC[C@H]3[C@@H]1CCC2=O

>  <logBB>


>  <Class>
-1

>  <MW>
270.16

>  <nHBAcc>
2

>  <nHBDon>
1

>  <SLogP>
3.82

>  <TopoPSA>
37.3

>  <MMFF94 Energy>
51.14

$$$$
C[C@]12CC[C@H]3[C@@H](CCC4=CC(=O)C=C[C@@]43C)[C@@H]1CCC(=O)O2
Actelion Java MolfileCreator 2.0

  0  0  0  0  0  0              0 V3000
M  V30 BEGIN CTAB
M  V30 COUNTS 46 49 0 0 0
M  V30 BEGIN ATOM
M  V30 1 O 1.9387 5.5006 -1.2114 0
M  V30 2 C 1.8545 4.3115 -0.9332 0
M  V30 3 C 1.1708 3.8548 0.293 0
M  V30 4 C 2.4223 3.2745 -1.8133 0
M  V30 5 C 1.0865 2.552 0.6164 0
M  V30 6 C 2.3407 1.9767 -1.4911 0
M  V30 7 C 1.6876 1.4239 -0.2278 0 CFG=2
M  V30 8 C 0.3198 2.1248 1.8383 0
M  V30 9 C 0.5231 0.4299 -0.6008 0 CFG=2
M  V30 10 C 2.8166 0.7369 0.5727 0
M  V30 11 C -0.8045 1.17 1.4527 0
M  V30 12 C -0.3006 -0.0419 0.6453 0 CFG=1
M  V30 13 C 0.9857 -0.7878 -1.4335 0
M  V30 14 C -1.4698 -0.9615 0.1953 0 CFG=1
M  V30 15 C -0.1723 -1.7111 -1.8066 0
M  V30 16 C -0.9695 -2.1938 -0.5853 0 CFG=2
M  V30 17 C -2.3848 -1.4382 1.3221 0
M  V30 18 O -2.0907 -2.9497 -1.1018 0
M  V30 19 C -0.1172 -3.1813 0.2369 0
M  V30 20 C -3.5206 -2.2761 0.7588 0
M  V30 21 C -3.1436 -3.2666 -0.3132 0
M  V30 22 O -3.8348 -4.2537 -0.5448 0
M  V30 23 H 0.7305 4.6413 0.8953 0
M  V30 24 H 2.9121 3.6226 -2.7145 0
M  V30 25 H 2.8078 1.2665 -2.1694 0
M  V30 26 H -0.1125 2.9871 2.3607 0
M  V30 27 H 0.996 1.6435 2.5539 0
M  V30 28 H -0.1769 0.9903 -1.2424 0
M  V30 29 H 2.4449 0.2064 1.4545 0
M  V30 30 H 3.5537 1.4698 0.9256 0
M  V30 31 H 3.3627 0.0066 -0.0353 0
M  V30 32 H -1.5637 1.7109 0.8727 0
M  V30 33 H -1.2867 0.8372 2.3782 0
M  V30 34 H 0.3557 -0.6184 1.3079 0
M  V30 35 H 1.4546 -0.4588 -2.3664 0
M  V30 36 H 1.7433 -1.3595 -0.8879 0
M  V30 37 H -2.1066 -0.3711 -0.4822 0
M  V30 38 H -0.8463 -1.1868 -2.4979 0
M  V30 39 H 0.2069 -2.5693 -2.3761 0
M  V30 40 H -1.8202 -2.0122 2.065 0
M  V30 41 H -2.8289 -0.5931 1.8582 0
M  V30 42 H -0.698 -3.6579 1.0332 0
M  V30 43 H 0.7607 -2.7157 0.6909 0
M  V30 44 H 0.2307 -4.003 -0.4008 0
M  V30 45 H -4.2763 -1.6138 0.3191 0
M  V30 46 H -3.9959 -2.8235 1.5806 0
M  V30 END ATOM
M  V30 BEGIN BOND
M  V30 1 2 1 2
M  V30 2 1 2 3
M  V30 3 1 2 4
M  V30 4 2 3 5
M  V30 5 2 4 6
M  V30 6 1 5 7
M  V30 7 1 5 8
M  V30 8 1 7 9
M  V30 9 1 7 10
M  V30 10 1 8 11
M  V30 11 1 9 12
M  V30 12 1 9 13
M  V30 13 1 12 14
M  V30 14 1 13 15
M  V30 15 1 14 16
M  V30 16 1 14 17
M  V30 17 1 16 18
M  V30 18 1 16 19
M  V30 19 1 17 20
M  V30 20 1 18 21
M  V30 21 2 21 22
M  V30 22 1 6 7
M  V30 23 1 11 12
M  V30 24 1 15 16
M  V30 25 1 20 21
M  V30 26 1 3 23
M  V30 27 1 4 24
M  V30 28 1 6 25
M  V30 29 1 8 26
M  V30 30 1 8 27
M  V30 31 1 9 28
M  V30 32 1 10 29
M  V30 33 1 10 30
M  V30 34 1 10 31
M  V30 35 1 11 32
M  V30 36 1 11 33
M  V30 37 1 12 34
M  V30 38 1 13 35
M  V30 39 1 13 36
M  V30 40 1 14 37
M  V30 41 1 15 38
M  V30 42 1 15 39
M  V30 43 1 17 40
M  V30 44 1 17 41
M  V30 45 1 19 42
M  V30 46 1 19 43
M  V30 47 1 19 44
M  V30 48 1 20 45
M  V30 49 1 20 46
M  V30 END BOND
M  V30 BEGIN COLLECTION
M  V30 MDLV30/STEABS ATOMS=(5 7 9 12 14 16)
M  V30 END COLLECTION
M  V30 END CTAB
M  END
>  <NO.>
2141

>  <Name>
testolactone

>  <SMILES>
C[C@]12CC[C@H]3[C@@H](CCC4=CC(=O)C=C[C@@]43C)[C@@H]1CCC(=O)O2

>  <logBB>


>  <Class>
-1

>  <MW>
300.17

>  <nHBAcc>
3

>  <nHBDon>
0

>  <SLogP>
3.59

>  <TopoPSA>
43.37

>  <MMFF94 Energy>
61.469

$$$$
C[C@]12COC(=O)C[C@@H]1CC[C@@H]1[C@@H]2CC[C@@]2(C)[C@H]1CC[C@]2(C)O
Actelion Java MolfileCreator 2.0

  0  0  0  0  0  0              0 V3000
M  V30 BEGIN CTAB
M  V30 COUNTS 52 55 0 0 0
M  V30 BEGIN ATOM
M  V30 1 O -0.401 -5.6261 -2.9708 0
M  V30 2 C -0.2169 -4.5458 -2.4165 0
M  V30 3 O 0.8925 -4.327 -1.6779 0
M  V30 4 C -1.1536 -3.3873 -2.6426 0
M  V30 5 C 0.9899 -3.2597 -0.7155 0
M  V30 6 C -1.1207 -2.3303 -1.5466 0 CFG=1
M  V30 7 C 0.3306 -1.9462 -1.1699 0 CFG=1
M  V30 8 C -1.9783 -1.1158 -1.9196 0
M  V30 9 C 0.2746 -0.9096 0.007 0 CFG=2
M  V30 10 C 1.1238 -1.3924 -2.3789 0
M  V30 11 C -2.0024 -0.0854 -0.7937 0
M  V30 12 C -0.59 0.3371 -0.3618 0 CFG=1
M  V30 13 C 1.6603 -0.5155 0.5807 0
M  V30 14 C -0.6345 1.2838 0.8456 0 CFG=1
M  V30 15 C 1.5735 0.5256 1.7125 0
M  V30 16 C 0.764 1.7647 1.2915 0 CFG=2
M  V30 17 C -1.4364 2.5763 0.7291 0
M  V30 18 C 0.3734 2.7709 2.421 0 CFG=2
M  V30 19 C 1.5444 2.5102 0.1699 0
M  V30 20 C -0.8846 3.4802 1.8481 0
M  V30 21 O 1.4097 3.7136 2.6846 0
M  V30 22 C 0.0514 2.1349 3.7795 0
M  V30 23 H -0.9125 -2.9529 -3.6192 0
M  V30 24 H -2.1705 -3.7938 -2.7082 0
M  V30 25 H 2.0594 -3.114 -0.5303 0
M  V30 26 H 0.552 -3.6272 0.2203 0
M  V30 27 H -1.5851 -2.7854 -0.6575 0
M  V30 28 H -3.0062 -1.4375 -2.1272 0
M  V30 29 H -1.609 -0.6482 -2.8398 0
M  V30 30 H -0.2485 -1.4112 0.8373 0
M  V30 31 H 2.165 -1.1861 -2.1115 0
M  V30 32 H 1.1634 -2.1031 -3.2102 0
M  V30 33 H 0.6961 -0.4659 -2.7705 0
M  V30 34 H -2.5434 -0.505 0.0641 0
M  V30 35 H -2.5725 0.789 -1.1281 0
M  V30 36 H -0.1374 0.8614 -1.2098 0
M  V30 37 H 2.1599 -1.4039 0.9835 0
M  V30 38 H 2.3123 -0.132 -0.2089 0
M  V30 39 H -1.092 0.7102 1.6659 0
M  V30 40 H 1.1081 0.0334 2.5746 0
M  V30 41 H 2.5834 0.8148 2.0266 0
M  V30 42 H -2.5102 2.4031 0.8549 0
M  V30 43 H -1.2921 3.0506 -0.248 0
M  V30 44 H 1.6917 1.904 -0.727 0
M  V30 45 H 1.0392 3.4263 -0.1523 0
M  V30 46 H 2.5425 2.7962 0.5219 0
M  V30 47 H -1.6472 3.6314 2.6211 0
M  V30 48 H -0.6513 4.4725 1.4451 0
M  V30 49 H 1.4608 4.3429 1.9464 0
M  V30 50 H -0.2618 2.9047 4.4954 0
M  V30 51 H -0.7441 1.3871 3.7251 0
M  V30 52 H 0.9421 1.6701 4.2165 0
M  V30 END ATOM
M  V30 BEGIN BOND
M  V30 1 2 1 2
M  V30 2 1 2 3
M  V30 3 1 2 4
M  V30 4 1 3 5
M  V30 5 1 4 6
M  V30 6 1 5 7
M  V30 7 1 6 8
M  V30 8 1 7 9
M  V30 9 1 7 10
M  V30 10 1 8 11
M  V30 11 1 9 12
M  V30 12 1 9 13
M  V30 13 1 12 14
M  V30 14 1 13 15
M  V30 15 1 14 16
M  V30 16 1 14 17
M  V30 17 1 16 18
M  V30 18 1 16 19
M  V30 19 1 17 20
M  V30 20 1 18 21
M  V30 21 1 18 22
M  V30 22 1 6 7
M  V30 23 1 11 12
M  V30 24 1 15 16
M  V30 25 1 18 20
M  V30 26 1 4 23
M  V30 27 1 4 24
M  V30 28 1 5 25
M  V30 29 1 5 26
M  V30 30 1 6 27
M  V30 31 1 8 28
M  V30 32 1 8 29
M  V30 33 1 9 30
M  V30 34 1 10 31
M  V30 35 1 10 32
M  V30 36 1 10 33
M  V30 37 1 11 34
M  V30 38 1 11 35
M  V30 39 1 12 36
M  V30 40 1 13 37
M  V30 41 1 13 38
M  V30 42 1 14 39
M  V30 43 1 15 40
M  V30 44 1 15 41
M  V30 45 1 17 42
M  V30 46 1 17 43
M  V30 47 1 19 44
M  V30 48 1 19 45
M  V30 49 1 19 46
M  V30 50 1 20 47
M  V30 51 1 20 48
M  V30 52 1 21 49
M  V30 53 1 22 50
M  V30 54 1 22 51
M  V30 55 1 22 52
M  V30 END BOND
M  V30 BEGIN COLLECTION
M  V30 MDLV30/STEABS ATOMS=(7 6 7 9 12 14 16 18)
M  V30 END COLLECTION
M  V30 END CTAB
M  END
>  <NO.>
2142

>  <Name>
oxandrolone

>  <SMILES>
C[C@]12COC(=O)C[C@@H]1CC[C@@H]1[C@@H]2CC[C@@]2(C)[C@H]1CC[C@]2(C)O

>  <logBB>


>  <Class>
-1

>  <MW>
306.22

>  <nHBAcc>
3

>  <nHBDon>
1

>  <SLogP>
3.54

>  <TopoPSA>
46.53

>  <MMFF94 Energy>
79.199

$$$$
C[C@]12C[C@H](O)[C@@]3(F)[C@@H](CCC4=CC(=O)C=C[C@@]43C)[C@@H]1C[C@H]1Cc3ccccc3C[C@]12C(=O)CO
Actelion Java MolfileCreator 2.0

  0  0  0  0  0  0              0 V3000
M  V30 BEGIN CTAB
M  V30 COUNTS 67 72 0 0 0
M  V30 BEGIN ATOM
M  V30 1 F -1.4638 -2.1963 -0.1625 0
M  V30 2 C -2.121 -1.137 0.4482 0 CFG=2
M  V30 3 C -3.407 -1.7518 1.139 0 CFG=2
M  V30 4 C -2.3977 -0.1244 -0.7061 0 CFG=1
M  V30 5 C -1.1079 -0.5647 1.4962 0 CFG=2
M  V30 6 C -2.9311 -2.759 2.2027 0
M  V30 7 C -4.3046 -2.4366 0.1082 0
M  V30 8 C -4.2979 -0.7051 1.8471 0
M  V30 9 O -3.2395 0.949 -0.3002 0
M  V30 10 C -1.0994 0.4378 -1.3297 0
M  V30 11 C 0.1539 -0.0747 0.7632 0 CFG=1
M  V30 12 C -0.7382 -1.6289 2.5475 0
M  V30 13 C -3.2913 -4.0547 2.219 0
M  V30 14 C -1.9657 -2.2241 3.2283 0
M  V30 15 C -4.6594 -3.7281 0.1283 0
M  V30 16 C -0.12 1.0233 -0.2883 0 CFG=1
M  V30 17 C 1.2871 0.5162 1.5906 0
M  V30 18 C -4.1868 -4.6294 1.1951 0
M  V30 19 C 1.3511 1.3334 -0.7914 0 CFG=2
M  V30 20 C -0.7327 2.3084 0.3524 0
M  V30 21 C 2.2037 1.1949 0.5379 0 CFG=2
M  V30 22 O -4.5237 -5.806 1.2308 0
M  V30 23 C 1.3874 2.7249 -1.4748 0
M  V30 24 C 1.8676 0.3564 -1.8857 0
M  V30 25 C 3.5191 0.3979 0.3953 0
M  V30 26 O 0.6227 2.9843 -2.4155 0
M  V30 27 C 2.3938 3.7821 -1.0303 0
M  V30 28 C 3.3517 0.5382 -2.0856 0
M  V30 29 C 4.1669 0.5876 -0.9451 0
M  V30 30 O 2.2626 4.9715 -1.803 0
M  V30 31 C 3.9195 0.6536 -3.3566 0
M  V30 32 C 5.5476 0.7453 -1.0847 0
M  V30 33 C 5.2968 0.8259 -3.4884 0
M  V30 34 C 6.1088 0.8719 -2.3553 0
M  V30 35 H -2.9238 -0.6479 -1.5125 0
M  V30 36 H -1.5673 0.2708 2.0329 0
M  V30 37 H -4.7081 -1.8164 -0.6892 0
M  V30 38 H -5.0327 -1.1909 2.503 0
M  V30 39 H -3.723 -0.0137 2.4702 0
M  V30 40 H -4.877 -0.1031 1.1387 0
M  V30 41 H -3.3611 1.5373 -1.0678 0
M  V30 42 H -0.6242 -0.3864 -1.873 0
M  V30 43 H -1.349 1.2039 -2.0732 0
M  V30 44 H 0.5718 -0.9563 0.2549 0
M  V30 45 H -0.1582 -2.4333 2.0763 0
M  V30 46 H -0.095 -1.1871 3.3176 0
M  V30 47 H -2.9365 -4.755 2.9664 0
M  V30 48 H -2.4609 -1.4644 3.8439 0
M  V30 49 H -1.6404 -3.0119 3.9187 0
M  V30 50 H -5.3095 -4.1663 -0.6189 0
M  V30 51 H 1.8108 -0.2462 2.1763 0
M  V30 52 H 0.9097 1.2594 2.3025 0
M  V30 53 H -1.1103 2.9891 -0.4187 0
M  V30 54 H -1.5687 2.1021 1.0228 0
M  V30 55 H -0.0017 2.8703 0.9432 0
M  V30 56 H 2.4698 2.1778 0.9374 0
M  V30 57 H 1.6962 -0.6909 -1.6122 0
M  V30 58 H 1.3451 0.5223 -2.8362 0
M  V30 59 H 4.2016 0.6946 1.2013 0
M  V30 60 H 3.3387 -0.6778 0.5203 0
M  V30 61 H 2.2064 4.0578 0.0087 0
M  V30 62 H 3.4116 3.4103 -1.1532 0
M  V30 63 H 1.6979 4.7365 -2.5679 0
M  V30 64 H 3.2976 0.6151 -4.2478 0
M  V30 65 H 6.1946 0.7666 -0.2112 0
M  V30 66 H 5.7393 0.92 -4.4768 0
M  V30 67 H 7.1829 0.9987 -2.464 0
M  V30 END ATOM
M  V30 BEGIN BOND
M  V30 1 1 1 2
M  V30 2 1 2 3
M  V30 3 1 2 4
M  V30 4 1 2 5
M  V30 5 1 3 6
M  V30 6 1 3 7
M  V30 7 1 3 8
M  V30 8 1 4 9
M  V30 9 1 4 10
M  V30 10 1 5 11
M  V30 11 1 5 12
M  V30 12 2 6 13
M  V30 13 1 6 14
M  V30 14 2 7 15
M  V30 15 1 10 16
M  V30 16 1 11 17
M  V30 17 1 13 18
M  V30 18 1 16 19
M  V30 19 1 16 20
M  V30 20 1 17 21
M  V30 21 2 18 22
M  V30 22 1 19 23
M  V30 23 1 19 24
M  V30 24 1 21 25
M  V30 25 2 23 26
M  V30 26 1 23 27
M  V30 27 1 24 28
M  V30 28 1 25 29
M  V30 29 1 27 30
M  V30 30 1 28 31
M  V30 31 1 29 32
M  V30 32 2 31 33
M  V30 33 2 32 34
M  V30 34 1 11 16
M  V30 35 1 12 14
M  V30 36 1 15 18
M  V30 37 1 19 21
M  V30 38 2 28 29
M  V30 39 1 33 34
M  V30 40 1 4 35
M  V30 41 1 5 36
M  V30 42 1 7 37
M  V30 43 1 8 38
M  V30 44 1 8 39
M  V30 45 1 8 40
M  V30 46 1 9 41
M  V30 47 1 10 42
M  V30 48 1 10 43
M  V30 49 1 11 44
M  V30 50 1 12 45
M  V30 51 1 12 46
M  V30 52 1 13 47
M  V30 53 1 14 48
M  V30 54 1 14 49
M  V30 55 1 15 50
M  V30 56 1 17 51
M  V30 57 1 17 52
M  V30 58 1 20 53
M  V30 59 1 20 54
M  V30 60 1 20 55
M  V30 61 1 21 56
M  V30 62 1 24 57
M  V30 63 1 24 58
M  V30 64 1 25 59
M  V30 65 1 25 60
M  V30 66 1 27 61
M  V30 67 1 27 62
M  V30 68 1 30 63
M  V30 69 1 31 64
M  V30 70 1 32 65
M  V30 71 1 33 66
M  V30 72 1 34 67
M  V30 END BOND
M  V30 BEGIN COLLECTION
M  V30 MDLV30/STEABS ATOMS=(8 2 3 4 5 11 16 19 21)
M  V30 END COLLECTION
M  V30 END CTAB
M  END
>  <NO.>
2143

>  <Name>
naflocort hydrate

>  <SMILES>
C[C@]12C[C@H](O)[C@@]3(F)[C@@H](CCC4=CC(=O)C=C[C@@]43C)[C@@H]1C[C@H]1Cc3ccccc3C[C@]12C(=O)CO

>  <logBB>


>  <Class>
1

>  <MW>
464.24

>  <nHBAcc>
4

>  <nHBDon>
2

>  <SLogP>
3.93

>  <TopoPSA>
74.6

>  <MMFF94 Energy>
177.25

$$$$
C[C@]12C[C@H](O)[C@@]3(F)[C@@H](C[C@H](F)C4=CC(=O)C=C[C@@]43C)[C@@H]1C[C@@H](O)[C@]2(O)C(=O)CO
Actelion Java MolfileCreator 2.0

  0  0  0  0  0  0              0 V3000
M  V30 BEGIN CTAB
M  V30 COUNTS 55 58 0 0 0
M  V30 BEGIN ATOM
M  V30 1 F 0.9756 -1.057 1.5451 0
M  V30 2 C 1.3275 -0.2295 0.49 0 CFG=2
M  V30 3 C 2.8873 -0.4248 0.2827 0 CFG=2
M  V30 4 C 0.8779 1.1979 0.9343 0 CFG=1
M  V30 5 C 0.5053 -0.7468 -0.7385 0 CFG=2
M  V30 6 C 3.1329 -1.9006 -0.0815 0
M  V30 7 C 3.6543 -0.0445 1.5492 0
M  V30 8 C 3.4833 0.4447 -0.8487 0
M  V30 9 O 1.3633 2.2111 0.0597 0
M  V30 10 C -0.6552 1.3395 1.0791 0
M  V30 11 C -0.9942 -0.6106 -0.4296 0 CFG=1
M  V30 12 C 0.8598 -2.2085 -1.0596 0
M  V30 13 C 3.9405 -2.7182 0.6181 0
M  V30 14 C 2.3547 -2.411 -1.2658 0 CFG=2
M  V30 15 C 4.4562 -0.8639 2.2422 0
M  V30 16 C -1.4371 0.8483 -0.1577 0 CFG=1
M  V30 17 C -2.0057 -1.1135 -1.4603 0
M  V30 18 C 4.6686 -2.2599 1.8172 0
M  V30 19 F 2.5665 -3.743 -1.4677 0
M  V30 20 C -2.9663 0.6196 0.0472 0 CFG=1
M  V30 21 C -1.1971 1.7948 -1.3645 0
M  V30 22 C -3.3265 -0.4194 -1.0653 0 CFG=2
M  V30 23 O 5.4201 -3.0041 2.4335 0
M  V30 24 O -3.2114 0.0064 1.3217 0
M  V30 25 C -3.8242 1.8884 -0.0726 0
M  V30 26 O -4.2485 -1.3755 -0.5253 0
M  V30 27 O -4.2758 2.292 -1.1498 0
M  V30 28 C -4.0904 2.6709 1.2081 0
M  V30 29 O -4.5389 3.9901 0.9222 0
M  V30 30 H 1.3026 1.4051 1.9234 0
M  V30 31 H 0.7494 -0.1504 -1.6231 0
M  V30 32 H 3.5608 0.9812 1.8998 0
M  V30 33 H 2.8853 0.4145 -1.7642 0
M  V30 34 H 3.5841 1.496 -0.5583 0
M  V30 35 H 4.4936 0.1069 -1.1157 0
M  V30 36 H 1.1211 3.0748 0.4415 0
M  V30 37 H -0.957 0.7677 1.9651 0
M  V30 38 H -0.9086 2.3876 1.2781 0
M  V30 39 H -1.1752 -1.2066 0.4796 0
M  V30 40 H 0.5107 -2.8723 -0.2572 0
M  V30 41 H 0.3371 -2.5385 -1.9654 0
M  V30 42 H 4.0889 -3.76 0.354 0
M  V30 43 H 2.6852 -1.9039 -2.178 0
M  V30 44 H 4.9899 -0.5456 3.1296 0
M  V30 45 H -2.0878 -2.2051 -1.4488 0
M  V30 46 H -1.7057 -0.806 -2.4685 0
M  V30 47 H -0.1697 1.7743 -1.7316 0
M  V30 48 H -1.8289 1.5484 -2.2239 0
M  V30 49 H -1.4185 2.8325 -1.0893 0
M  V30 50 H -3.787 0.0302 -1.9508 0
M  V30 51 H -3.8649 -0.7065 1.1382 0
M  V30 52 H -4.4671 -1.9976 -1.2442 0
M  V30 53 H -4.863 2.1567 1.7861 0
M  V30 54 H -3.1771 2.751 1.7999 0
M  V30 55 H -5.0641 3.9258 0.0996 0
M  V30 END ATOM
M  V30 BEGIN BOND
M  V30 1 1 1 2
M  V30 2 1 2 3
M  V30 3 1 2 4
M  V30 4 1 2 5
M  V30 5 1 3 6
M  V30 6 1 3 7
M  V30 7 1 3 8
M  V30 8 1 4 9
M  V30 9 1 4 10
M  V30 10 1 5 11
M  V30 11 1 5 12
M  V30 12 2 6 13
M  V30 13 1 6 14
M  V30 14 2 7 15
M  V30 15 1 10 16
M  V30 16 1 11 17
M  V30 17 1 13 18
M  V30 18 1 14 19
M  V30 19 1 16 20
M  V30 20 1 16 21
M  V30 21 1 17 22
M  V30 22 2 18 23
M  V30 23 1 20 24
M  V30 24 1 20 25
M  V30 25 1 22 26
M  V30 26 2 25 27
M  V30 27 1 25 28
M  V30 28 1 28 29
M  V30 29 1 11 16
M  V30 30 1 12 14
M  V30 31 1 15 18
M  V30 32 1 20 22
M  V30 33 1 4 30
M  V30 34 1 5 31
M  V30 35 1 7 32
M  V30 36 1 8 33
M  V30 37 1 8 34
M  V30 38 1 8 35
M  V30 39 1 9 36
M  V30 40 1 10 37
M  V30 41 1 10 38
M  V30 42 1 11 39
M  V30 43 1 12 40
M  V30 44 1 12 41
M  V30 45 1 13 42
M  V30 46 1 14 43
M  V30 47 1 15 44
M  V30 48 1 17 45
M  V30 49 1 17 46
M  V30 50 1 21 47
M  V30 51 1 21 48
M  V30 52 1 21 49
M  V30 53 1 22 50
M  V30 54 1 24 51
M  V30 55 1 26 52
M  V30 56 1 28 53
M  V30 57 1 28 54
M  V30 58 1 29 55
M  V30 END BOND
M  V30 BEGIN COLLECTION
M  V30 MDLV30/STEABS ATOMS=(9 2 3 4 5 11 14 16 20 22)
M  V30 END COLLECTION
M  V30 END CTAB
M  END
>  <NO.>
2144

>  <Name>
fluocinolone

>  <SMILES>
C[C@]12C[C@H](O)[C@@]3(F)[C@@H](C[C@H](F)C4=CC(=O)C=C[C@@]43C)[C@@H]1C[C@@H](O)[C@]2(O)C(=O)CO

>  <logBB>


>  <Class>
1

>  <MW>
412.17

>  <nHBAcc>
6

>  <nHBDon>
4

>  <SLogP>
0.57

>  <TopoPSA>
115.06

>  <MMFF94 Energy>
174.55

$$$$
C[C@]12C[C@H](O)[C@H]3[C@@H](C=C(Cl)C4=CC(=O)C=C[C@@]43C)[C@@H]1CC[C@]2(O)C(=O)CO
Actelion Java MolfileCreator 2.0

  0  0  0  0  0  0              0 V3000
M  V30 BEGIN CTAB
M  V30 COUNTS 52 55 0 0 0
M  V30 BEGIN ATOM
M  V30 1 Cl -2.4468 -2.7733 3.6719 0
M  V30 2 C -1.7783 -1.4919 2.7105 0
M  V30 3 C -2.2859 -0.1265 2.8567 0
M  V30 4 C -0.7662 -1.7913 1.8807 0
M  V30 5 C -3.5321 0.124 3.3021 0
M  V30 6 C -1.3296 0.9965 2.3836 0 CFG=2
M  V30 7 C -0.0542 -0.7762 1.0208 0 CFG=2
M  V30 8 C -4.0986 1.4865 3.334 0
M  V30 9 C -2.035 2.3473 2.3435 0
M  V30 10 C -0.8391 0.5729 0.9547 0 CFG=2
M  V30 11 C -0.1971 1.1527 3.4269 0
M  V30 12 C 0.1656 -1.253 -0.4218 0 CFG=1
M  V30 13 O -5.2194 1.7005 3.7784 0
M  V30 14 C -3.2789 2.5779 2.7806 0
M  V30 15 C -0.0703 1.6238 0.1155 0 CFG=1
M  V30 16 C 1.0438 -0.2778 -1.2536 0 CFG=2
M  V30 17 C 0.8164 -2.6085 -0.6682 0
M  V30 18 O 1.0803 2.0785 0.8106 0
M  V30 19 C 0.3258 1.0918 -1.283 0
M  V30 20 C 1.1013 -1.0688 -2.6018 0 CFG=1
M  V30 21 C 2.4824 -0.1081 -0.6906 0
M  V30 22 C 1.2703 -2.5475 -2.1396 0
M  V30 23 O -0.1538 -0.9601 -3.2827 0
M  V30 24 C 2.2259 -0.6204 -3.5591 0
M  V30 25 O 3.3153 -1.1979 -3.6312 0
M  V30 26 C 1.947 0.5816 -4.4552 0
M  V30 27 O 3.1422 1.0794 -5.0425 0
M  V30 28 H -0.3923 -2.8123 1.8502 0
M  V30 29 H -4.2224 -0.6482 3.6216 0
M  V30 30 H 0.919 -0.6183 1.4971 0
M  V30 31 H -1.4582 3.1995 1.9899 0
M  V30 32 H -1.7558 0.3802 0.3695 0
M  V30 33 H 0.423 0.2571 3.5268 0
M  V30 34 H -0.6098 1.357 4.424 0
M  V30 35 H 0.4701 1.9876 3.1898 0
M  V30 36 H -0.8336 -1.3123 -0.8842 0
M  V30 37 H -3.729 3.5632 2.7697 0
M  V30 38 H -0.7089 2.4998 -0.0439 0
M  V30 39 H 1.6756 -2.7689 -0.0074 0
M  V30 40 H 0.1178 -3.4362 -0.5081 0
M  V30 41 H 1.5001 2.7753 0.2754 0
M  V30 42 H -0.5924 1.0175 -1.8779 0
M  V30 43 H 0.9652 1.8321 -1.7763 0
M  V30 44 H 3.0263 0.6605 -1.2517 0
M  V30 45 H 3.0717 -1.0281 -0.7572 0
M  V30 46 H 2.5043 0.191 0.3583 0
M  V30 47 H 0.66 -3.2296 -2.7425 0
M  V30 48 H 2.3048 -2.9011 -2.2021 0
M  V30 49 H -0.2204 -1.6901 -3.9253 0
M  V30 50 H 1.2698 0.2757 -5.257 0
M  V30 51 H 1.496 1.3913 -3.8826 0
M  V30 52 H 3.7599 0.3218 -5.0913 0
M  V30 END ATOM
M  V30 BEGIN BOND
M  V30 1 1 1 2
M  V30 2 1 2 3
M  V30 3 2 2 4
M  V30 4 2 3 5
M  V30 5 1 3 6
M  V30 6 1 4 7
M  V30 7 1 5 8
M  V30 8 1 6 9
M  V30 9 1 6 10
M  V30 10 1 6 11
M  V30 11 1 7 12
M  V30 12 2 8 13
M  V30 13 1 8 14
M  V30 14 1 10 15
M  V30 15 1 12 16
M  V30 16 1 12 17
M  V30 17 1 15 18
M  V30 18 1 15 19
M  V30 19 1 16 20
M  V30 20 1 16 21
M  V30 21 1 17 22
M  V30 22 1 20 23
M  V30 23 1 20 24
M  V30 24 2 24 25
M  V30 25 1 24 26
M  V30 26 1 26 27
M  V30 27 1 7 10
M  V30 28 2 9 14
M  V30 29 1 16 19
M  V30 30 1 20 22
M  V30 31 1 4 28
M  V30 32 1 5 29
M  V30 33 1 7 30
M  V30 34 1 9 31
M  V30 35 1 10 32
M  V30 36 1 11 33
M  V30 37 1 11 34
M  V30 38 1 11 35
M  V30 39 1 12 36
M  V30 40 1 14 37
M  V30 41 1 15 38
M  V30 42 1 17 39
M  V30 43 1 17 40
M  V30 44 1 18 41
M  V30 45 1 19 42
M  V30 46 1 19 43
M  V30 47 1 21 44
M  V30 48 1 21 45
M  V30 49 1 21 46
M  V30 50 1 22 47
M  V30 51 1 22 48
M  V30 52 1 23 49
M  V30 53 1 26 50
M  V30 54 1 26 51
M  V30 55 1 27 52
M  V30 END BOND
M  V30 BEGIN COLLECTION
M  V30 MDLV30/STEABS ATOMS=(7 6 7 10 12 15 16 20)
M  V30 END COLLECTION
M  V30 END CTAB
M  END
>  <NO.>
2145

>  <Name>
cloprednol

>  <SMILES>
C[C@]12C[C@H](O)[C@H]3[C@@H](C=C(Cl)C4=CC(=O)C=C[C@@]43C)[C@@H]1CC[C@]2(O)C(=O)CO

>  <logBB>


>  <Class>
1

>  <MW>
392.14

>  <nHBAcc>
5

>  <nHBDon>
3

>  <SLogP>
1.9

>  <TopoPSA>
94.83

>  <MMFF94 Energy>
118.83

$$$$
C[C@]12C[C@H](O)[C@H]3[C@@H](CCC4=CC(=O)C=C[C@@]43C)[C@@H]1CC[C@]2(O)C(=O)COC(=O)CCC(=O)O
Actelion Java MolfileCreator 2.0

  0  0  0  0  0  0              0 V3000
M  V30 BEGIN CTAB
M  V30 COUNTS 65 68 0 0 0
M  V30 BEGIN ATOM
M  V30 1 O 0.7247 5.9711 -5.1626 0
M  V30 2 C 0.8629 5.2798 -4.1614 0
M  V30 3 C 0.0952 5.5487 -2.9289 0
M  V30 4 C 1.7966 4.139 -4.1402 0
M  V30 5 C 0.2413 4.7971 -1.8232 0
M  V30 6 C 1.9448 3.3902 -3.0394 0
M  V30 7 C 1.2083 3.607 -1.7207 0 CFG=2
M  V30 8 C -0.6049 5.0614 -0.6047 0
M  V30 9 C 0.3437 2.3367 -1.3628 0 CFG=1
M  V30 10 C 2.2908 3.954 -0.6743 0
M  V30 11 C -1.4253 3.8253 -0.2564 0
M  V30 12 C 1.1183 0.9886 -1.2856 0 CFG=1
M  V30 13 C -0.5518 2.5669 -0.0972 0 CFG=1
M  V30 14 O 2.1998 1.068 -0.3678 0
M  V30 15 C 0.2233 -0.2129 -0.911 0
M  V30 16 C -1.4299 1.3243 0.1179 0 CFG=1
M  V30 17 C -0.6274 0.0211 0.3584 0 CFG=1
M  V30 18 C -2.4401 1.3399 1.2571 0
M  V30 19 C -1.808 -0.9748 0.5999 0 CFG=1
M  V30 20 C 0.2665 0.0826 1.6262 0
M  V30 21 C -2.8062 -0.1415 1.459 0
M  V30 22 O -2.4492 -1.2833 -0.6448 0
M  V30 23 C -1.4349 -2.3187 1.2686 0
M  V30 24 O -1.9052 -2.6514 2.36 0
M  V30 25 C -0.4801 -3.2284 0.5027 0
M  V30 26 O -0.5198 -4.5538 1.0366 0
M  V30 27 C 0.4537 -5.371 0.5591 0
M  V30 28 O 1.3104 -5.044 -0.2501 0
M  V30 29 C 0.3568 -6.7305 1.1884 0
M  V30 30 C 1.0068 -6.7154 2.5612 0
M  V30 31 C 0.9768 -8.0801 3.1834 0
M  V30 32 O 0.4661 -9.0881 2.7277 0
M  V30 33 O 1.6016 -8.1029 4.3761 0
M  V30 34 H -0.6003 6.378 -2.9889 0
M  V30 35 H 2.356 3.9569 -5.0495 0
M  V30 36 H 2.6742 2.5839 -3.0731 0
M  V30 37 H 0.0334 5.3434 0.2402 0
M  V30 38 H -1.2866 5.9053 -0.7674 0
M  V30 39 H -0.36 2.2035 -2.2026 0
M  V30 40 H 3.1478 3.2734 -0.7195 0
M  V30 41 H 2.6939 4.9615 -0.843 0
M  V30 42 H 1.9093 3.9304 0.3508 0
M  V30 43 H -2.1779 3.6581 -1.0385 0
M  V30 44 H -1.9747 4.0205 0.672 0
M  V30 45 H 1.5555 0.7722 -2.2668 0
M  V30 46 H 0.0845 2.7226 0.7796 0
M  V30 47 H 2.7255 0.2533 -0.4548 0
M  V30 48 H 0.8539 -1.098 -0.7796 0
M  V30 49 H -0.4305 -0.4166 -1.7678 0
M  V30 50 H -2.0192 1.205 -0.8062 0
M  V30 51 H -2.0054 1.7553 2.1733 0
M  V30 52 H -3.3267 1.9345 1.0133 0
M  V30 53 H 0.9013 0.9697 1.6636 0
M  V30 54 H 0.9308 -0.7862 1.6777 0
M  V30 55 H -0.319 0.0889 2.5515 0
M  V30 56 H -3.8437 -0.3131 1.15 0
M  V30 57 H -2.7434 -0.3713 2.5282 0
M  V30 58 H -3.3178 -1.6792 -0.4433 0
M  V30 59 H -0.7825 -3.2658 -0.5479 0
M  V30 60 H 0.5285 -2.8204 0.6077 0
M  V30 61 H 0.8493 -7.4505 0.524 0
M  V30 62 H -0.6962 -7.0318 1.2392 0
M  V30 63 H 2.0511 -6.3933 2.4776 0
M  V30 64 H 0.4799 -6.0198 3.224 0
M  V30 65 H 1.5106 -9.0306 4.6805 0
M  V30 END ATOM
M  V30 BEGIN BOND
M  V30 1 2 1 2
M  V30 2 1 2 3
M  V30 3 1 2 4
M  V30 4 2 3 5
M  V30 5 2 4 6
M  V30 6 1 5 7
M  V30 7 1 5 8
M  V30 8 1 7 9
M  V30 9 1 7 10
M  V30 10 1 8 11
M  V30 11 1 9 12
M  V30 12 1 9 13
M  V30 13 1 12 14
M  V30 14 1 12 15
M  V30 15 1 13 16
M  V30 16 1 15 17
M  V30 17 1 16 18
M  V30 18 1 17 19
M  V30 19 1 17 20
M  V30 20 1 18 21
M  V30 21 1 19 22
M  V30 22 1 19 23
M  V30 23 2 23 24
M  V30 24 1 23 25
M  V30 25 1 25 26
M  V30 26 1 26 27
M  V30 27 2 27 28
M  V30 28 1 27 29
M  V30 29 1 29 30
M  V30 30 1 30 31
M  V30 31 2 31 32
M  V30 32 1 31 33
M  V30 33 1 6 7
M  V30 34 1 11 13
M  V30 35 1 16 17
M  V30 36 1 19 21
M  V30 37 1 3 34
M  V30 38 1 4 35
M  V30 39 1 6 36
M  V30 40 1 8 37
M  V30 41 1 8 38
M  V30 42 1 9 39
M  V30 43 1 10 40
M  V30 44 1 10 41
M  V30 45 1 10 42
M  V30 46 1 11 43
M  V30 47 1 11 44
M  V30 48 1 12 45
M  V30 49 1 13 46
M  V30 50 1 14 47
M  V30 51 1 15 48
M  V30 52 1 15 49
M  V30 53 1 16 50
M  V30 54 1 18 51
M  V30 55 1 18 52
M  V30 56 1 20 53
M  V30 57 1 20 54
M  V30 58 1 20 55
M  V30 59 1 21 56
M  V30 60 1 21 57
M  V30 61 1 22 58
M  V30 62 1 25 59
M  V30 63 1 25 60
M  V30 64 1 29 61
M  V30 65 1 29 62
M  V30 66 1 30 63
M  V30 67 1 30 64
M  V30 68 1 33 65
M  V30 END BOND
M  V30 BEGIN COLLECTION
M  V30 MDLV30/STEABS ATOMS=(7 7 9 12 13 16 17 19)
M  V30 END COLLECTION
M  V30 END CTAB
M  END
>  <NO.>
2146

>  <Name>
prednisolone hemisuccinate

>  <SMILES>
C[C@]12C[C@H](O)[C@H]3[C@@H](CCC4=CC(=O)C=C[C@@]43C)[C@@H]1CC[C@]2(O)C(=O)COC(=O)CCC(=O)O

>  <logBB>


>  <Class>
1

>  <MW>
460.21

>  <nHBAcc>
7

>  <nHBDon>
3

>  <SLogP>
1.97

>  <TopoPSA>
138.2

>  <MMFF94 Energy>
70.848

$$$$
C[C@]12C[C@H](O)[C@H]3[C@@H](CCC4=CC(=O)CC[C@@]43C)[C@@H]1CC[C@]2(O)C(=O)COC(=O)CCC(=O)O
Actelion Java MolfileCreator 2.0

  0  0  0  0  0  0              0 V3000
M  V30 BEGIN CTAB
M  V30 COUNTS 67 70 0 0 0
M  V30 BEGIN ATOM
M  V30 1 O 5.3995 -3.866 -2.979 0
M  V30 2 C 4.3906 -3.7149 -2.2955 0
M  V30 3 C 4.5168 -3.5636 -0.8266 0
M  V30 4 C 3.0168 -3.5648 -2.8976 0
M  V30 5 C 3.4295 -3.4804 -0.0397 0
M  V30 6 C 1.9896 -4.2181 -1.9892 0
M  V30 7 C 1.9881 -3.6601 -0.5369 0 CFG=2
M  V30 8 C 3.5638 -3.0429 1.3969 0
M  V30 9 C 1.3285 -2.2346 -0.4183 0 CFG=1
M  V30 10 C 1.2834 -4.7412 0.3205 0
M  V30 11 C 2.8809 -1.6859 1.5681 0
M  V30 12 C -0.1004 -2.0834 -1.0152 0 CFG=1
M  V30 13 C 1.4289 -1.6596 1.0416 0 CFG=1
M  V30 14 O -1.0202 -3.0533 -0.5373 0
M  V30 15 C -0.7057 -0.6742 -0.8344 0
M  V30 16 C 0.8826 -0.2234 1.0329 0 CFG=1
M  V30 17 C -0.599 -0.1199 0.602 0 CFG=1
M  V30 18 C 0.9347 0.5949 2.3176 0
M  V30 19 C -0.8085 1.4217 0.7538 0 CFG=1
M  V30 20 C -1.5711 -0.8679 1.5541 0
M  V30 21 C -0.0433 1.7609 2.0641 0
M  V30 22 O -0.1425 2.1111 -0.3098 0
M  V30 23 C -2.293 1.8447 0.7923 0
M  V30 24 O -2.8804 2.1088 1.8451 0
M  V30 25 C -3.0223 1.9345 -0.5478 0
M  V30 26 O -3.7958 3.1304 -0.672 0
M  V30 27 C -3.0606 4.2781 -0.613 0
M  V30 28 O -1.8414 4.3193 -0.5004 0
M  V30 29 C -3.9723 5.4714 -0.7127 0
M  V30 30 C -3.1895 6.7695 -0.6155 0
M  V30 31 C -4.1191 7.9395 -0.6979 0
M  V30 32 O -4.5266 8.6048 0.2382 0
M  V30 33 O -4.5148 8.201 -1.957 0
M  V30 34 H 5.527 -3.4211 -0.459 0
M  V30 35 H 3.008 -4.0641 -3.8725 0
M  V30 36 H 2.809 -2.5018 -3.0539 0
M  V30 37 H 0.9954 -4.148 -2.4425 0
M  V30 38 H 2.2192 -5.2939 -1.9588 0
M  V30 39 H 3.1238 -3.7856 2.0705 0
M  V30 40 H 4.6163 -2.9511 1.6914 0
M  V30 41 H 1.948 -1.561 -1.0335 0
M  V30 42 H 1.9187 -5.6296 0.4275 0
M  V30 43 H 1.0396 -4.4016 1.3305 0
M  V30 44 H 0.3524 -5.0822 -0.1439 0
M  V30 45 H 3.4727 -0.9233 1.0438 0
M  V30 46 H 2.8961 -1.4153 2.6306 0
M  V30 47 H -0.041 -2.2495 -2.0965 0
M  V30 48 H 0.8301 -2.2729 1.7214 0
M  V30 49 H -0.8453 -3.2276 0.4 0
M  V30 50 H -0.1785 -0.0066 -1.5269 0
M  V30 51 H -1.7566 -0.6847 -1.1478 0
M  V30 52 H 1.4981 0.3264 0.302 0
M  V30 53 H 0.6107 0.0045 3.1821 0
M  V30 54 H 1.9428 0.9656 2.5294 0
M  V30 55 H -1.667 -0.3744 2.5271 0
M  V30 56 H -2.5768 -0.9148 1.1212 0
M  V30 57 H -1.265 -1.8902 1.7728 0
M  V30 58 H 0.5153 2.6989 1.9645 0
M  V30 59 H -0.7009 1.8654 2.9333 0
M  V30 60 H -0.335 3.0701 -0.2117 0
M  V30 61 H -2.3369 1.86 -1.397 0
M  V30 62 H -3.7062 1.0817 -0.6075 0
M  V30 63 H -4.7075 5.4171 0.0984 0
M  V30 64 H -4.5045 5.4203 -1.6692 0
M  V30 65 H -2.6434 6.8312 0.3332 0
M  V30 66 H -2.4385 6.8533 -1.4096 0
M  V30 67 H -5.1066 8.9781 -1.8664 0
M  V30 END ATOM
M  V30 BEGIN BOND
M  V30 1 2 1 2
M  V30 2 1 2 3
M  V30 3 1 2 4
M  V30 4 2 3 5
M  V30 5 1 4 6
M  V30 6 1 5 7
M  V30 7 1 5 8
M  V30 8 1 7 9
M  V30 9 1 7 10
M  V30 10 1 8 11
M  V30 11 1 9 12
M  V30 12 1 9 13
M  V30 13 1 12 14
M  V30 14 1 12 15
M  V30 15 1 13 16
M  V30 16 1 15 17
M  V30 17 1 16 18
M  V30 18 1 17 19
M  V30 19 1 17 20
M  V30 20 1 18 21
M  V30 21 1 19 22
M  V30 22 1 19 23
M  V30 23 2 23 24
M  V30 24 1 23 25
M  V30 25 1 25 26
M  V30 26 1 26 27
M  V30 27 2 27 28
M  V30 28 1 27 29
M  V30 29 1 29 30
M  V30 30 1 30 31
M  V30 31 2 31 32
M  V30 32 1 31 33
M  V30 33 1 6 7
M  V30 34 1 11 13
M  V30 35 1 16 17
M  V30 36 1 19 21
M  V30 37 1 3 34
M  V30 38 1 4 35
M  V30 39 1 4 36
M  V30 40 1 6 37
M  V30 41 1 6 38
M  V30 42 1 8 39
M  V30 43 1 8 40
M  V30 44 1 9 41
M  V30 45 1 10 42
M  V30 46 1 10 43
M  V30 47 1 10 44
M  V30 48 1 11 45
M  V30 49 1 11 46
M  V30 50 1 12 47
M  V30 51 1 13 48
M  V30 52 1 14 49
M  V30 53 1 15 50
M  V30 54 1 15 51
M  V30 55 1 16 52
M  V30 56 1 18 53
M  V30 57 1 18 54
M  V30 58 1 20 55
M  V30 59 1 20 56
M  V30 60 1 20 57
M  V30 61 1 21 58
M  V30 62 1 21 59
M  V30 63 1 22 60
M  V30 64 1 25 61
M  V30 65 1 25 62
M  V30 66 1 29 63
M  V30 67 1 29 64
M  V30 68 1 30 65
M  V30 69 1 30 66
M  V30 70 1 33 67
M  V30 END BOND
M  V30 BEGIN COLLECTION
M  V30 MDLV30/STEABS ATOMS=(7 7 9 12 13 16 17 19)
M  V30 END COLLECTION
M  V30 END CTAB
M  END
>  <NO.>
2148

>  <Name>
hydrocortisone-hemisuccinate

>  <SMILES>
C[C@]12C[C@H](O)[C@H]3[C@@H](CCC4=CC(=O)CC[C@@]43C)[C@@H]1CC[C@]2(O)C(=O)COC(=O)CCC(=O)O

>  <logBB>


>  <Class>
1

>  <MW>
462.23

>  <nHBAcc>
7

>  <nHBDon>
3

>  <SLogP>
2.2

>  <TopoPSA>
138.2

>  <MMFF94 Energy>
67.654

$$$$
C[C@]12C[C@H](O)[C@H]3[C@@H](CCC4=CC(=O)CC[C@@]43C)[C@@H]1CC[C@]2(O)C(=O)CS
Actelion Java MolfileCreator 2.0

  0  0  0  0  0  0              0 V3000
M  V30 BEGIN CTAB
M  V30 COUNTS 56 59 0 0 0
M  V30 BEGIN ATOM
M  V30 1 S 5.1333 -0.5693 -1.6275 0
M  V30 2 C 4.5189 -2.1894 -2.159 0
M  V30 3 C 3.3057 -2.5998 -1.3489 0
M  V30 4 O 3.3915 -3.553 -0.5684 0
M  V30 5 C 1.9679 -1.842 -1.5918 0 CFG=2
M  V30 6 O 2.1021 -0.867 -2.6335 0
M  V30 7 C 1.2792 -1.2053 -0.3297 0 CFG=2
M  V30 8 C 0.8919 -2.8443 -2.1034 0
M  V30 9 C -0.1558 -1.0286 -0.8853 0 CFG=1
M  V30 10 C 1.7864 0.191 0.0924 0
M  V30 11 C 1.3373 -2.1836 0.8736 0
M  V30 12 C -0.459 -2.3825 -1.5192 0
M  V30 13 C -1.153 -0.4458 0.1291 0 CFG=1
M  V30 14 C 0.8353 0.9626 1.0359 0 CFG=1
M  V30 15 C -0.6463 0.978 0.5617 0 CFG=2
M  V30 16 C -2.5732 -0.3865 -0.4767 0
M  V30 17 O 0.9999 0.503 2.3674 0
M  V30 18 C -1.6746 1.7065 1.5069 0 CFG=2
M  V30 19 C -3.5716 0.3799 0.3911 0
M  V30 20 C -2.994 1.7329 0.7221 0
M  V30 21 C -1.2472 3.1547 1.8817 0
M  V30 22 C -1.8974 0.9785 2.8567 0
M  V30 23 C -3.558 2.8493 0.2282 0
M  V30 24 C -1.4256 4.159 0.7562 0
M  V30 25 C -2.8621 4.1559 0.299 0
M  V30 26 O -3.4326 5.1693 -0.0954 0
M  V30 27 H 6.2533 -0.584 -2.3665 0
M  V30 28 H 4.2714 -2.184 -3.2241 0
M  V30 29 H 5.311 -2.9294 -2.0068 0
M  V30 30 H 2.7646 -0.2083 -2.3516 0
M  V30 31 H 1.0879 -3.8743 -1.7848 0
M  V30 32 H 0.8421 -2.8478 -3.1988 0
M  V30 33 H -0.1219 -0.3068 -1.7178 0
M  V30 34 H 2.7732 0.0956 0.561 0
M  V30 35 H 1.916 0.8219 -0.7943 0
M  V30 36 H 2.3241 -2.1538 1.3489 0
M  V30 37 H 1.145 -3.221 0.5818 0
M  V30 38 H 0.6041 -1.9666 1.649 0
M  V30 39 H -1.2208 -2.3069 -2.302 0
M  V30 40 H -0.82 -3.102 -0.7756 0
M  V30 41 H -1.207 -1.0994 1.0044 0
M  V30 42 H 1.1989 1.9965 1.0452 0
M  V30 43 H -0.6214 1.5657 -0.371 0
M  V30 44 H -2.5278 0.0875 -1.4667 0
M  V30 45 H -2.9527 -1.4029 -0.6356 0
M  V30 46 H 0.4174 -0.2555 2.5229 0
M  V30 47 H -3.7985 -0.1782 1.3055 0
M  V30 48 H -4.5197 0.4709 -0.1527 0
M  V30 49 H -0.2141 3.1829 2.2435 0
M  V30 50 H -1.8603 3.5012 2.7276 0
M  V30 51 H -2.802 1.3498 3.3554 0
M  V30 52 H -1.0696 1.1523 3.5519 0
M  V30 53 H -2.0139 -0.1029 2.7516 0
M  V30 54 H -4.4848 2.8461 -0.3347 0
M  V30 55 H -0.7783 3.9369 -0.0976 0
M  V30 56 H -1.1796 5.1616 1.1229 0
M  V30 END ATOM
M  V30 BEGIN BOND
M  V30 1 1 1 2
M  V30 2 1 2 3
M  V30 3 2 3 4
M  V30 4 1 3 5
M  V30 5 1 5 6
M  V30 6 1 5 7
M  V30 7 1 5 8
M  V30 8 1 7 9
M  V30 9 1 7 10
M  V30 10 1 7 11
M  V30 11 1 8 12
M  V30 12 1 9 13
M  V30 13 1 10 14
M  V30 14 1 13 15
M  V30 15 1 13 16
M  V30 16 1 14 17
M  V30 17 1 15 18
M  V30 18 1 16 19
M  V30 19 1 18 20
M  V30 20 1 18 21
M  V30 21 1 18 22
M  V30 22 2 20 23
M  V30 23 1 21 24
M  V30 24 1 23 25
M  V30 25 2 25 26
M  V30 26 1 9 12
M  V30 27 1 14 15
M  V30 28 1 19 20
M  V30 29 1 24 25
M  V30 30 1 1 27
M  V30 31 1 2 28
M  V30 32 1 2 29
M  V30 33 1 6 30
M  V30 34 1 8 31
M  V30 35 1 8 32
M  V30 36 1 9 33
M  V30 37 1 10 34
M  V30 38 1 10 35
M  V30 39 1 11 36
M  V30 40 1 11 37
M  V30 41 1 11 38
M  V30 42 1 12 39
M  V30 43 1 12 40
M  V30 44 1 13 41
M  V30 45 1 14 42
M  V30 46 1 15 43
M  V30 47 1 16 44
M  V30 48 1 16 45
M  V30 49 1 17 46
M  V30 50 1 19 47
M  V30 51 1 19 48
M  V30 52 1 21 49
M  V30 53 1 21 50
M  V30 54 1 22 51
M  V30 55 1 22 52
M  V30 56 1 22 53
M  V30 57 1 23 54
M  V30 58 1 24 55
M  V30 59 1 24 56
M  V30 END BOND
M  V30 BEGIN COLLECTION
M  V30 MDLV30/STEABS ATOMS=(7 5 7 9 13 14 15 18)
M  V30 END COLLECTION
M  V30 END CTAB
M  END
>  <NO.>
2149

>  <Name>
tixocortol

>  <SMILES>
C[C@]12C[C@H](O)[C@H]3[C@@H](CCC4=CC(=O)CC[C@@]43C)[C@@H]1CC[C@]2(O)C(=O)CS

>  <logBB>


>  <Class>
1

>  <MW>
378.19

>  <nHBAcc>
5

>  <nHBDon>
3

>  <SLogP>
2.72

>  <TopoPSA>
74.6

>  <MMFF94 Energy>
131.59

$$$$
C[C@]12Cc3cn[nH]c3C[C@@H]1CC[C@@H]1[C@@H]2CC[C@@]2(C)[C@H]1CC[C@]2(C)O
Actelion Java MolfileCreator 2.0

  0  0  0  0  0  0              0 V3000
M  V30 BEGIN CTAB
M  V30 COUNTS 56 60 0 0 0
M  V30 BEGIN ATOM
M  V30 1 O 4.6631 -2.2491 -0.1605 0
M  V30 2 C 3.9012 -1.1383 -0.6276 0 CFG=2
M  V30 3 C 2.4307 -1.184 -0.1071 0 CFG=2
M  V30 4 C 3.7358 -1.2501 -2.1664 0
M  V30 5 C 4.6958 0.1225 -0.2652 0
M  V30 6 C 1.7235 -0.3247 -1.1774 0 CFG=1
M  V30 7 C 2.1572 -0.542 1.2632 0
M  V30 8 C 1.9394 -2.6608 -0.0752 0
M  V30 9 C 2.2812 -0.8625 -2.4913 0
M  V30 10 C 0.1996 -0.2689 -0.9974 0 CFG=1
M  V30 11 C 0.6488 -0.4092 1.5424 0
M  V30 12 C -0.1207 0.3229 0.411 0 CFG=2
M  V30 13 C -0.4597 0.5639 -2.1056 0
M  V30 14 C -1.6686 0.4525 0.6654 0 CFG=2
M  V30 15 C -1.9629 0.7153 -1.8989 0
M  V30 16 C -2.2867 1.3017 -0.5199 0 CFG=1
M  V30 17 C -1.9204 1.2073 2.0247 0
M  V30 18 C -2.3377 -0.9442 0.7574 0
M  V30 19 C -3.8141 1.5469 -0.3856 0
M  V30 20 C -3.2965 1.7667 2.1038 0
M  V30 21 C -4.1184 1.9243 1.0133 0
M  V30 22 C -4.0525 2.2536 3.1842 0
M  V30 23 N -5.2781 2.4679 1.474 0
M  V30 24 N -5.2616 2.6814 2.8034 0
M  V30 25 H 4.7047 -2.1931 0.8095 0
M  V30 26 H 4.4302 -0.5872 -2.6955 0
M  V30 27 H 3.9412 -2.266 -2.524 0
M  V30 28 H 4.2134 1.0426 -0.6056 0
M  V30 29 H 4.8555 0.1897 0.8164 0
M  V30 30 H 5.6969 0.0826 -0.7112 0
M  V30 31 H 2.0802 0.7132 -1.0924 0
M  V30 32 H 2.5903 0.4639 1.313 0
M  V30 33 H 2.6303 -1.1248 2.0623 0
M  V30 34 H 0.8643 -2.7518 0.0984 0
M  V30 35 H 2.4352 -3.2135 0.7313 0
M  V30 36 H 2.1525 -3.1923 -1.0081 0
M  V30 37 H 1.722 -1.7398 -2.8351 0
M  V30 38 H 2.2409 -0.1134 -3.2888 0
M  V30 39 H -0.2045 -1.2836 -1.0718 0
M  V30 40 H 0.2279 -1.4037 1.7152 0
M  V30 41 H 0.5327 0.1382 2.4847 0
M  V30 42 H 0.2763 1.3507 0.4083 0
M  V30 43 H -7.0E-4 1.56 -2.1462 0
M  V30 44 H -0.2855 0.0974 -3.0821 0
M  V30 45 H -2.3615 1.3722 -2.6819 0
M  V30 46 H -2.4541 -0.2555 -2.0308 0
M  V30 47 H -1.8079 2.2934 -0.4758 0
M  V30 48 H -1.2152 2.0433 2.1182 0
M  V30 49 H -1.7459 0.5394 2.8765 0
M  V30 50 H -2.1776 -1.5449 -0.1412 0
M  V30 51 H -1.9528 -1.5173 1.6069 0
M  V30 52 H -3.4201 -0.874 0.9034 0
M  V30 53 H -4.3765 0.6455 -0.6548 0
M  V30 54 H -4.1229 2.3432 -1.0728 0
M  V30 55 H -3.7789 2.3178 4.2294 0
M  V30 56 H -6.1141 2.7161 0.9553 0
M  V30 END ATOM
M  V30 BEGIN BOND
M  V30 1 1 1 2
M  V30 2 1 2 3
M  V30 3 1 2 4
M  V30 4 1 2 5
M  V30 5 1 3 6
M  V30 6 1 3 7
M  V30 7 1 3 8
M  V30 8 1 4 9
M  V30 9 1 6 10
M  V30 10 1 7 11
M  V30 11 1 10 12
M  V30 12 1 10 13
M  V30 13 1 12 14
M  V30 14 1 13 15
M  V30 15 1 14 16
M  V30 16 1 14 17
M  V30 17 1 14 18
M  V30 18 1 16 19
M  V30 19 1 17 20
M  V30 20 1 19 21
M  V30 21 1 20 22
M  V30 22 1 21 23
M  V30 23 2 22 24
M  V30 24 1 6 9
M  V30 25 1 11 12
M  V30 26 1 15 16
M  V30 27 2 20 21
M  V30 28 1 23 24
M  V30 29 1 1 25
M  V30 30 1 4 26
M  V30 31 1 4 27
M  V30 32 1 5 28
M  V30 33 1 5 29
M  V30 34 1 5 30
M  V30 35 1 6 31
M  V30 36 1 7 32
M  V30 37 1 7 33
M  V30 38 1 8 34
M  V30 39 1 8 35
M  V30 40 1 8 36
M  V30 41 1 9 37
M  V30 42 1 9 38
M  V30 43 1 10 39
M  V30 44 1 11 40
M  V30 45 1 11 41
M  V30 46 1 12 42
M  V30 47 1 13 43
M  V30 48 1 13 44
M  V30 49 1 15 45
M  V30 50 1 15 46
M  V30 51 1 16 47
M  V30 52 1 17 48
M  V30 53 1 17 49
M  V30 54 1 18 50
M  V30 55 1 18 51
M  V30 56 1 18 52
M  V30 57 1 19 53
M  V30 58 1 19 54
M  V30 59 1 22 55
M  V30 60 1 23 56
M  V30 END BOND
M  V30 BEGIN COLLECTION
M  V30 MDLV30/STEABS ATOMS=(7 2 3 6 10 12 14 16)
M  V30 END COLLECTION
M  V30 END CTAB
M  END
>  <NO.>
2151

>  <Name>
stanozolol

>  <SMILES>
C[C@]12Cc3cn[nH]c3C[C@@H]1CC[C@@H]1[C@@H]2CC[C@@]2(C)[C@H]1CC[C@]2(C)O

>  <logBB>


>  <Class>
-1

>  <MW>
328.25

>  <nHBAcc>
2

>  <nHBDon>
2

>  <SLogP>
4.12

>  <TopoPSA>
48.91

>  <MMFF94 Energy>
90.417

$$$$
C[N+](C)([O-])CCC=C1c2ccccc2CCc2ccccc21
Actelion Java MolfileCreator 2.0

  0  0  0  0  0  0              0 V3000
M  V30 BEGIN CTAB
M  V30 COUNTS 45 47 0 0 0
M  V30 BEGIN ATOM
M  V30 1 O -3.1022 -1.1923 -3.3412 0 CHG=-1
M  V30 2 N -2.1956 -0.1965 -3.0862 0 CHG=1
M  V30 3 C -1.9537 -0.0715 -1.5879 0
M  V30 4 C -0.9091 -0.4849 -3.8146 0
M  V30 5 C -2.7538 1.1065 -3.595 0
M  V30 6 C -1.514 -1.3677 -0.9089 0
M  V30 7 C -1.1682 -1.1391 0.5424 0
M  V30 8 C 0.0296 -0.7828 1.0628 0
M  V30 9 C 0.1034 -0.5364 2.5289 0
M  V30 10 C 1.1642 -0.493 0.1598 0
M  V30 11 C 0.6301 0.6512 3.0805 0
M  V30 12 C -0.3365 -1.5566 3.3981 0
M  V30 13 C 1.5841 0.8379 0.0 0
M  V30 14 C 1.8294 -1.5191 -0.5228 0
M  V30 15 C 0.6816 0.7764 4.4866 0
M  V30 16 C 1.2063 1.8164 2.2933 0
M  V30 17 C -0.2839 -1.4063 4.7835 0
M  V30 18 C 2.6419 1.1266 -0.8734 0
M  V30 19 C 0.9149 1.9329 0.7936 0
M  V30 20 C 2.8817 -1.2219 -1.3887 0
M  V30 21 C 0.2237 -0.2361 5.3285 0
M  V30 22 C 3.283 0.1001 -1.5677 0
M  V30 23 H -2.9052 0.2695 -1.1612 0
M  V30 24 H -1.2121 0.7265 -1.4717 0
M  V30 25 H -0.5771 -1.4886 -3.5435 0
M  V30 26 H -0.1772 0.2752 -3.5312 0
M  V30 27 H -1.1232 -0.4479 -4.8865 0
M  V30 28 H -3.6936 1.2935 -3.0682 0
M  V30 29 H -2.9362 0.9937 -4.6672 0
M  V30 30 H -2.0208 1.8924 -3.3958 0
M  V30 31 H -2.3251 -2.105 -0.9554 0
M  V30 32 H -0.6799 -1.835 -1.4348 0
M  V30 33 H -2.0205 -1.2634 1.2113 0
M  V30 34 H -0.7173 -2.4928 2.9938 0
M  V30 35 H 1.5272 -2.5545 -0.3822 0
M  V30 36 H 1.0933 1.6786 4.9366 0
M  V30 37 H 0.8287 2.7393 2.755 0
M  V30 38 H 2.2943 1.8079 2.4452 0
M  V30 39 H -0.6309 -2.2067 5.4312 0
M  V30 40 H 2.9835 2.1504 -1.0073 0
M  V30 41 H 1.2807 2.9072 0.4446 0
M  V30 42 H -0.1646 1.9349 0.5988 0
M  V30 43 H 3.3915 -2.0232 -1.9171 0
M  V30 44 H 0.2751 -0.1131 6.407 0
M  V30 45 H 4.1082 0.3302 -2.2371 0
M  V30 END ATOM
M  V30 BEGIN BOND
M  V30 1 1 1 2
M  V30 2 1 2 3
M  V30 3 1 2 4
M  V30 4 1 2 5
M  V30 5 1 3 6
M  V30 6 1 6 7
M  V30 7 2 7 8
M  V30 8 1 8 9
M  V30 9 1 8 10
M  V30 10 2 9 11
M  V30 11 1 9 12
M  V30 12 2 10 13
M  V30 13 1 10 14
M  V30 14 1 11 15
M  V30 15 1 11 16
M  V30 16 2 12 17
M  V30 17 1 13 18
M  V30 18 1 13 19
M  V30 19 2 14 20
M  V30 20 2 15 21
M  V30 21 2 18 22
M  V30 22 1 16 19
M  V30 23 1 17 21
M  V30 24 1 20 22
M  V30 25 1 3 23
M  V30 26 1 3 24
M  V30 27 1 4 25
M  V30 28 1 4 26
M  V30 29 1 4 27
M  V30 30 1 5 28
M  V30 31 1 5 29
M  V30 32 1 5 30
M  V30 33 1 6 31
M  V30 34 1 6 32
M  V30 35 1 7 33
M  V30 36 1 12 34
M  V30 37 1 14 35
M  V30 38 1 15 36
M  V30 39 1 16 37
M  V30 40 1 16 38
M  V30 41 1 17 39
M  V30 42 1 18 40
M  V30 43 1 19 41
M  V30 44 1 19 42
M  V30 45 1 20 43
M  V30 46 1 21 44
M  V30 47 1 22 45
M  V30 END BOND
M  V30 END CTAB
M  END
>  <NO.>
2154

>  <Name>
amitriptylinoxide

>  <SMILES>
C[N+](C)([O-])CCC=C1c2ccccc2CCc2ccccc21

>  <logBB>


>  <Class>
1

>  <MW>
293.18

>  <nHBAcc>
1

>  <nHBDon>
0

>  <SLogP>
4.18

>  <TopoPSA>
23.06

>  <MMFF94 Energy>
82.278

$$$$
C[N+](C)([O-])CCCN1c2ccccc2CCc2ccccc21
Actelion Java MolfileCreator 2.0

  0  0  0  0  0  0              0 V3000
M  V30 BEGIN CTAB
M  V30 COUNTS 46 48 0 0 0
M  V30 BEGIN ATOM
M  V30 1 O 3.4109 -1.982 1.2681 0 CHG=-1
M  V30 2 N 2.2968 -2.5327 1.8457 0 CHG=1
M  V30 3 C 1.2805 -1.4427 2.1559 0
M  V30 4 C 1.7161 -3.5732 0.9273 0
M  V30 5 C 2.7073 -3.1959 3.1339 0
M  V30 6 C 0.7582 -0.695 0.9322 0
M  V30 7 C -0.0744 0.5185 1.3608 0
M  V30 8 N -0.755 1.1412 0.2007 0
M  V30 9 C -0.0423 2.2419 -0.3285 0
M  V30 10 C -1.833 0.4352 -0.3863 0
M  V30 11 C 0.5235 2.2205 -1.6097 0
M  V30 12 C 0.1259 3.3987 0.4552 0
M  V30 13 C -2.0316 0.2935 -1.777 0
M  V30 14 C -2.8181 -0.1271 0.4614 0
M  V30 15 C 1.2548 3.3273 -2.0755 0
M  V30 16 C 0.3503 1.0139 -2.486 0
M  V30 17 C 0.8474 4.4979 -0.0129 0
M  V30 18 C -3.1782 -0.3891 -2.2536 0
M  V30 19 C -1.1155 0.8344 -2.8549 0
M  V30 20 C -3.9344 -0.8127 -0.0245 0
M  V30 21 C 1.4166 4.4595 -1.2796 0
M  V30 22 C -4.1145 -0.9454 -1.3889 0
M  V30 23 H 1.7968 -0.7538 2.8356 0
M  V30 24 H 0.4604 -1.9294 2.6966 0
M  V30 25 H 1.544 -3.1096 -0.0464 0
M  V30 26 H 0.7882 -3.9399 1.3728 0
M  V30 27 H 2.4536 -4.3746 0.8287 0
M  V30 28 H 3.1324 -2.4254 3.7829 0
M  V30 29 H 3.4617 -3.9501 2.8936 0
M  V30 30 H 1.8195 -3.6497 3.5817 0
M  V30 31 H 0.1511 -1.373 0.3228 0
M  V30 32 H 1.59 -0.3654 0.2995 0
M  V30 33 H -0.7948 0.2263 2.1322 0
M  V30 34 H 0.5904 1.229 1.8701 0
M  V30 35 H -0.3272 3.4503 1.442 0
M  V30 36 H -2.7591 0.0081 1.5374 0
M  V30 37 H 1.702 3.3115 -3.0667 0
M  V30 38 H 0.7593 0.1228 -1.996 0
M  V30 39 H 0.9291 1.1452 -3.4091 0
M  V30 40 H 0.9608 5.3799 0.6108 0
M  V30 41 H -3.3427 -0.4877 -3.3257 0
M  V30 42 H -1.1363 0.1314 -3.699 0
M  V30 43 H -1.5391 1.7793 -3.2208 0
M  V30 44 H -4.6687 -1.2167 0.6665 0
M  V30 45 H 1.9821 5.3097 -1.6506 0
M  V30 46 H -4.9843 -1.463 -1.7828 0
M  V30 END ATOM
M  V30 BEGIN BOND
M  V30 1 1 1 2
M  V30 2 1 2 3
M  V30 3 1 2 4
M  V30 4 1 2 5
M  V30 5 1 3 6
M  V30 6 1 6 7
M  V30 7 1 7 8
M  V30 8 1 8 9
M  V30 9 1 8 10
M  V30 10 2 9 11
M  V30 11 1 9 12
M  V30 12 2 10 13
M  V30 13 1 10 14
M  V30 14 1 11 15
M  V30 15 1 11 16
M  V30 16 2 12 17
M  V30 17 1 13 18
M  V30 18 1 13 19
M  V30 19 2 14 20
M  V30 20 2 15 21
M  V30 21 2 18 22
M  V30 22 1 16 19
M  V30 23 1 17 21
M  V30 24 1 20 22
M  V30 25 1 3 23
M  V30 26 1 3 24
M  V30 27 1 4 25
M  V30 28 1 4 26
M  V30 29 1 4 27
M  V30 30 1 5 28
M  V30 31 1 5 29
M  V30 32 1 5 30
M  V30 33 1 6 31
M  V30 34 1 6 32
M  V30 35 1 7 33
M  V30 36 1 7 34
M  V30 37 1 12 35
M  V30 38 1 14 36
M  V30 39 1 15 37
M  V30 40 1 16 38
M  V30 41 1 16 39
M  V30 42 1 17 40
M  V30 43 1 18 41
M  V30 44 1 19 42
M  V30 45 1 19 43
M  V30 46 1 20 44
M  V30 47 1 21 45
M  V30 48 1 22 46
M  V30 END BOND
M  V30 END CTAB
M  END
>  <NO.>
2155

>  <Name>
imipraminoxide

>  <SMILES>
C[N+](C)([O-])CCCN1c2ccccc2CCc2ccccc21

>  <logBB>


>  <Class>
1

>  <MW>
296.19

>  <nHBAcc>
2

>  <nHBDon>
0

>  <SLogP>
3.89

>  <TopoPSA>
26.3

>  <MMFF94 Energy>
67.948

$$$$
C[N+]1(C)CCC(OC(=O)C(O)(c2ccccc2)C2CCCC2)C1
Actelion Java MolfileCreator 2.0

  0  0  0  0  0  0              0 V3000
M  V30 BEGIN CTAB
M  V30 COUNTS 51 53 0 0 0
M  V30 BEGIN ATOM
M  V30 1 O -1.5106 0.2384 -1.0333 0
M  V30 2 C -0.577 -0.1154 -0.3232 0
M  V30 3 O 0.6759 -0.3459 -0.8287 0
M  V30 4 C -0.6203 -0.3447 1.2224 0
M  V30 5 C 0.7933 -0.2023 -2.2539 0
M  V30 6 O 0.677 -0.0379 1.7859 0
M  V30 7 C -1.5848 0.6597 1.881 0
M  V30 8 C -0.8871 -1.8439 1.5293 0
M  V30 9 C 0.8184 1.2686 -2.6737 0
M  V30 10 C 2.1713 -0.6834 -2.6646 0
M  V30 11 C -2.6058 0.2892 2.7707 0
M  V30 12 C -1.4087 2.0395 1.6355 0
M  V30 13 C -2.0951 -2.4837 0.8361 0
M  V30 14 C 0.2367 -2.8131 1.1322 0
M  V30 15 N 2.2836 1.7301 -2.4157 0 CHG=1
M  V30 16 C 3.0851 0.4322 -2.1923 0
M  V30 17 C -3.4317 1.2498 3.3643 0
M  V30 18 C -2.2335 2.9979 2.2289 0
M  V30 19 C -1.9067 -3.9796 1.0758 0
M  V30 20 C -0.4038 -4.1936 1.2536 0
M  V30 21 C 2.8164 2.5015 -3.6094 0
M  V30 22 C 2.3539 2.606 -1.1732 0
M  V30 23 C -3.2482 2.6013 3.0918 0
M  V30 24 H 0.0067 -0.7767 -2.7556 0
M  V30 25 H 0.5242 0.3284 2.677 0
M  V30 26 H -0.997 -1.9588 2.618 0
M  V30 27 H 0.6302 1.3671 -3.7482 0
M  V30 28 H 0.1487 1.9255 -2.1122 0
M  V30 29 H 2.4455 -1.6356 -2.2004 0
M  V30 30 H 2.2354 -0.7907 -3.7536 0
M  V30 31 H -2.7921 -0.7476 3.0359 0
M  V30 32 H -0.6176 2.3855 0.9751 0
M  V30 33 H -3.0563 -2.137 1.2234 0
M  V30 34 H -2.0844 -2.2947 -0.243 0
M  V30 35 H 1.118 -2.7205 1.7743 0
M  V30 36 H 0.5558 -2.662 0.0964 0
M  V30 37 H 4.0266 0.4832 -2.7479 0
M  V30 38 H 3.3004 0.3418 -1.1215 0
M  V30 39 H -4.2218 0.9391 4.0451 0
M  V30 40 H -2.0859 4.0547 2.0204 0
M  V30 41 H -2.3078 -4.5705 0.2463 0
M  V30 42 H -2.4349 -4.2886 1.9853 0
M  V30 43 H 0.0 -4.886 0.5082 0
M  V30 44 H -0.204 -4.6223 2.2424 0
M  V30 45 H 2.174 3.3722 -3.77 0
M  V30 46 H 3.8409 2.8148 -3.3887 0
M  V30 47 H 2.7993 1.8442 -4.4837 0
M  V30 48 H 1.931 2.0554 -0.3284 0
M  V30 49 H 1.7763 3.5159 -1.3609 0
M  V30 50 H 3.4035 2.8503 -0.9855 0
M  V30 51 H -3.8944 3.3428 3.5555 0
M  V30 END ATOM
M  V30 BEGIN BOND
M  V30 1 2 1 2
M  V30 2 1 2 3
M  V30 3 1 2 4
M  V30 4 1 3 5
M  V30 5 1 4 6
M  V30 6 1 4 7
M  V30 7 1 4 8
M  V30 8 1 5 9
M  V30 9 1 5 10
M  V30 10 2 7 11
M  V30 11 1 7 12
M  V30 12 1 8 13
M  V30 13 1 8 14
M  V30 14 1 9 15
M  V30 15 1 10 16
M  V30 16 1 11 17
M  V30 17 2 12 18
M  V30 18 1 13 19
M  V30 19 1 14 20
M  V30 20 1 15 21
M  V30 21 1 15 22
M  V30 22 2 17 23
M  V30 23 1 15 16
M  V30 24 1 18 23
M  V30 25 1 19 20
M  V30 26 1 5 24
M  V30 27 1 6 25
M  V30 28 1 8 26
M  V30 29 1 9 27
M  V30 30 1 9 28
M  V30 31 1 10 29
M  V30 32 1 10 30
M  V30 33 1 11 31
M  V30 34 1 12 32
M  V30 35 1 13 33
M  V30 36 1 13 34
M  V30 37 1 14 35
M  V30 38 1 14 36
M  V30 39 1 16 37
M  V30 40 1 16 38
M  V30 41 1 17 39
M  V30 42 1 18 40
M  V30 43 1 19 41
M  V30 44 1 19 42
M  V30 45 1 20 43
M  V30 46 1 20 44
M  V30 47 1 21 45
M  V30 48 1 21 46
M  V30 49 1 21 47
M  V30 50 1 22 48
M  V30 51 1 22 49
M  V30 52 1 22 50
M  V30 53 1 23 51
M  V30 END BOND
M  V30 END CTAB
M  END
>  <NO.>
2156

>  <Name>
glycopyrrolate

>  <SMILES>
C[N+]1(C)CCC(OC(=O)C(O)(c2ccccc2)C2CCCC2)C1

>  <logBB>


>  <Class>
-1

>  <MW>
318.21

>  <nHBAcc>
3

>  <nHBDon>
1

>  <SLogP>
2.46

>  <TopoPSA>
46.53

>  <MMFF94 Energy>
111.05

$$$$
C[N+]1(C)CCCC(OC(=O)C(O)(c2ccccc2)c2ccccc2)C1
Actelion Java MolfileCreator 2.0

  0  0  0  0  0  0              0 V3000
M  V30 BEGIN CTAB
M  V30 COUNTS 51 53 0 0 0
M  V30 BEGIN ATOM
M  V30 1 O -0.5567 -1.273 1.7507 0
M  V30 2 C 0.2625 -0.8227 0.9532 0
M  V30 3 O 0.0094 0.2975 0.2055 0
M  V30 4 C 1.673 -1.4263 0.671 0
M  V30 5 C -1.3087 0.8564 0.3538 0 CFG=2
M  V30 6 O 1.6249 -2.7798 1.1743 0
M  V30 7 C 2.8013 -0.7373 1.4531 0
M  V30 8 C 1.9094 -1.4921 -0.8481 0
M  V30 9 C -2.3537 -0.0318 -0.3491 0
M  V30 10 C -1.2805 2.2463 -0.279 0
M  V30 11 C 4.0925 -1.3051 1.4283 0
M  V30 12 C 2.6162 0.437 2.2036 0
M  V30 13 C 1.5052 -2.6171 -1.5915 0
M  V30 14 C 2.4785 -0.4106 -1.5484 0
M  V30 15 N -3.752 0.6068 -0.3839 0 CHG=1
M  V30 16 C -2.6612 2.8875 -0.295 0
M  V30 17 C 5.1539 -0.7214 2.1209 0
M  V30 18 C 3.6819 1.0191 2.8971 0
M  V30 19 C 1.6781 -2.6654 -2.9765 0
M  V30 20 C 2.6497 -0.461 -2.9336 0
M  V30 21 C -3.6925 2.0092 -0.9941 0
M  V30 22 C -4.6492 -0.2664 -1.271 0
M  V30 23 C -4.3742 0.6246 1.0129 0
M  V30 24 C 4.9477 0.4413 2.8553 0
M  V30 25 C 2.2498 -1.5876 -3.6464 0
M  V30 26 H -1.5344 0.9642 1.4218 0
M  V30 27 H 1.6364 -2.716 2.1463 0
M  V30 28 H -2.4541 -1.0115 0.13 0
M  V30 29 H -2.0509 -0.2094 -1.3893 0
M  V30 30 H -0.575 2.8859 0.2652 0
M  V30 31 H -0.8884 2.18 -1.3024 0
M  V30 32 H 4.2773 -2.2167 0.8592 0
M  V30 33 H 1.6503 0.9295 2.2723 0
M  V30 34 H 1.0677 -3.4806 -1.0917 0
M  V30 35 H 2.8061 0.484 -1.0212 0
M  V30 36 H -2.6037 3.8516 -0.8136 0
M  V30 37 H -2.9788 3.1103 0.7296 0
M  V30 38 H 6.1412 -1.1761 2.0862 0
M  V30 39 H 3.5257 1.9274 3.4751 0
M  V30 40 H 1.3806 -3.5528 -3.5302 0
M  V30 41 H 3.1086 0.3757 -3.4552 0
M  V30 42 H -4.6957 2.4451 -0.9274 0
M  V30 43 H -3.4299 1.8898 -2.052 0
M  V30 44 H -4.2177 -0.3008 -2.2757 0
M  V30 45 H -4.6906 -1.2706 -0.8389 0
M  V30 46 H -5.6466 0.1824 -1.2992 0
M  V30 47 H -3.7586 1.2304 1.6797 0
M  V30 48 H -4.4252 -0.4044 1.3807 0
M  V30 49 H -5.3782 1.0524 0.9358 0
M  V30 50 H 5.7741 0.8962 3.3962 0
M  V30 51 H 2.3982 -1.6321 -4.7226 0
M  V30 END ATOM
M  V30 BEGIN BOND
M  V30 1 2 1 2
M  V30 2 1 2 3
M  V30 3 1 2 4
M  V30 4 1 3 5
M  V30 5 1 4 6
M  V30 6 1 4 7
M  V30 7 1 4 8
M  V30 8 1 5 9
M  V30 9 1 5 10
M  V30 10 2 7 11
M  V30 11 1 7 12
M  V30 12 2 8 13
M  V30 13 1 8 14
M  V30 14 1 9 15
M  V30 15 1 10 16
M  V30 16 1 11 17
M  V30 17 2 12 18
M  V30 18 1 13 19
M  V30 19 2 14 20
M  V30 20 1 15 21
M  V30 21 1 15 22
M  V30 22 1 15 23
M  V30 23 2 17 24
M  V30 24 2 19 25
M  V30 25 1 16 21
M  V30 26 1 18 24
M  V30 27 1 20 25
M  V30 28 1 5 26
M  V30 29 1 6 27
M  V30 30 1 9 28
M  V30 31 1 9 29
M  V30 32 1 10 30
M  V30 33 1 10 31
M  V30 34 1 11 32
M  V30 35 1 12 33
M  V30 36 1 13 34
M  V30 37 1 14 35
M  V30 38 1 16 36
M  V30 39 1 16 37
M  V30 40 1 17 38
M  V30 41 1 18 39
M  V30 42 1 19 40
M  V30 43 1 20 41
M  V30 44 1 21 42
M  V30 45 1 21 43
M  V30 46 1 22 44
M  V30 47 1 22 45
M  V30 48 1 22 46
M  V30 49 1 23 47
M  V30 50 1 23 48
M  V30 51 1 23 49
M  V30 52 1 24 50
M  V30 53 1 25 51
M  V30 END BOND
M  V30 BEGIN COLLECTION
M  V30 MDLV30/STERAC1 ATOMS=(1 5)
M  V30 END COLLECTION
M  V30 END CTAB
M  END
>  <NO.>
2157

>  <Name>
mepenzolatebromide

>  <SMILES>
C[N+]1(C)CCCC(OC(=O)C(O)(c2ccccc2)c2ccccc2)C1

>  <logBB>


>  <Class>
-1

>  <MW>
340.19

>  <nHBAcc>
3

>  <nHBDon>
1

>  <SLogP>
2.7

>  <TopoPSA>
46.53

>  <MMFF94 Energy>
148.76

$$$$
C[N+]1([O-])C2CCC1CC(OC(=O)C(CO)c1ccccc1)C2
Actelion Java MolfileCreator 2.0

  0  0  0  0  0  0              0 V3000
M  V30 BEGIN CTAB
M  V30 COUNTS 45 47 0 0 0
M  V30 BEGIN ATOM
M  V30 1 O 1.5199 -0.0799 -1.68 0
M  V30 2 C 0.5657 0.6249 -1.3703 0
M  V30 3 O -0.3365 0.3249 -0.3933 0
M  V30 4 C 0.2396 1.9684 -1.9975 0
M  V30 5 C -0.1327 -0.9138 0.3101 0
M  V30 6 C 0.8113 3.125 -1.1904 0
M  V30 7 C 0.7244 1.9801 -3.4531 0
M  V30 8 C -0.8644 -0.824 1.6593 0
M  V30 9 C -0.6097 -2.1095 -0.5327 0
M  V30 10 C -0.0173 4.1974 -0.8272 0
M  V30 11 C 2.1617 3.1581 -0.8056 0
M  V30 12 O 0.009 2.9633 -4.204 0
M  V30 13 C -1.0489 -2.2048 2.3168 0
M  V30 14 C -0.8158 -3.3765 0.3194 0
M  V30 15 C 0.4876 5.269 -0.0889 0
M  V30 16 C 2.6641 4.231 -0.0668 0
M  V30 17 N -1.8572 -3.0943 1.388 0 CHG=1
M  V30 18 C 0.2926 -2.9412 2.4441 0
M  V30 19 C 0.4473 -3.7126 1.1258 0
M  V30 20 C 1.8271 5.2849 0.2925 0
M  V30 21 O -2.9632 -2.4719 0.8924 0 CHG=-1
M  V30 22 C -2.3222 -4.3527 2.0719 0
M  V30 23 H -0.8562 2.0511 -2.0173 0
M  V30 24 H 0.9394 -1.0194 0.5218 0
M  V30 25 H 0.5372 1.0143 -3.9357 0
M  V30 26 H 1.7957 2.1958 -3.5302 0
M  V30 27 H -0.2998 -0.1624 2.3286 0
M  V30 28 H -1.836 -0.3325 1.5224 0
M  V30 29 H 0.1217 -2.3161 -1.323 0
M  V30 30 H -1.5355 -1.844 -1.0582 0
M  V30 31 H -1.0645 4.208 -1.124 0
M  V30 32 H 2.8374 2.3494 -1.0779 0
M  V30 33 H 0.4173 2.9998 -5.0862 0
M  V30 34 H -1.5899 -2.1221 3.2649 0
M  V30 35 H -1.174 -4.2103 -0.2928 0
M  V30 36 H -0.1658 6.0933 0.1847 0
M  V30 37 H 3.7106 4.2451 0.2261 0
M  V30 38 H 1.1319 -2.2619 2.6263 0
M  V30 39 H 0.2684 -3.644 3.2848 0
M  V30 40 H 0.5001 -4.7883 1.3293 0
M  V30 41 H 1.3687 -3.4465 0.5974 0
M  V30 42 H 2.219 6.1207 0.8657 0
M  V30 43 H -1.4797 -4.9018 2.4912 0
M  V30 44 H -2.8388 -4.9537 1.3182 0
M  V30 45 H -3.0174 -4.0498 2.8602 0
M  V30 END ATOM
M  V30 BEGIN BOND
M  V30 1 2 1 2
M  V30 2 1 2 3
M  V30 3 1 2 4
M  V30 4 1 3 5
M  V30 5 1 4 6
M  V30 6 1 4 7
M  V30 7 1 5 8
M  V30 8 1 5 9
M  V30 9 2 6 10
M  V30 10 1 6 11
M  V30 11 1 7 12
M  V30 12 1 8 13
M  V30 13 1 9 14
M  V30 14 1 10 15
M  V30 15 2 11 16
M  V30 16 1 13 17
M  V30 17 1 13 18
M  V30 18 1 14 19
M  V30 19 2 15 20
M  V30 20 1 17 21
M  V30 21 1 17 22
M  V30 22 1 14 17
M  V30 23 1 16 20
M  V30 24 1 18 19
M  V30 25 1 4 23
M  V30 26 1 5 24
M  V30 27 1 7 25
M  V30 28 1 7 26
M  V30 29 1 8 27
M  V30 30 1 8 28
M  V30 31 1 9 29
M  V30 32 1 9 30
M  V30 33 1 10 31
M  V30 34 1 11 32
M  V30 35 1 12 33
M  V30 36 1 13 34
M  V30 37 1 14 35
M  V30 38 1 15 36
M  V30 39 1 16 37
M  V30 40 1 18 38
M  V30 41 1 18 39
M  V30 42 1 19 40
M  V30 43 1 19 41
M  V30 44 1 20 42
M  V30 45 1 22 43
M  V30 46 1 22 44
M  V30 47 1 22 45
M  V30 END BOND
M  V30 END CTAB
M  END
>  <NO.>
2158

>  <Name>
atropine oxide

>  <SMILES>
C[N+]1([O-])C2CCC1CC(OC(=O)C(CO)c1ccccc1)C2

>  <logBB>


>  <Class>
1

>  <MW>
305.16

>  <nHBAcc>
4

>  <nHBDon>
1

>  <SLogP>
1.94

>  <TopoPSA>
69.59

>  <MMFF94 Energy>
64.176

$$$$
C[N+]12CCC(CC1)C(OC(=O)C(O)(c1ccccc1)c1ccccc1)C2
Actelion Java MolfileCreator 2.0

  0  0  0  0  0  0              0 V3000
M  V30 BEGIN CTAB
M  V30 COUNTS 52 55 0 0 0
M  V30 BEGIN ATOM
M  V30 1 O -0.8022 -1.9262 0.1604 0
M  V30 2 C -0.7482 -0.9349 -0.5598 0
M  V30 3 O -1.2676 0.2756 -0.1685 0
M  V30 4 C 0.0312 -0.7877 -1.916 0
M  V30 5 C -1.8245 0.3176 1.1579 0 CFG=2
M  V30 6 O -0.6598 0.1693 -2.7413 0
M  V30 7 C 0.1037 -2.076 -2.7533 0
M  V30 8 C 1.4123 -0.219 -1.5244 0
M  V30 9 C -2.4756 1.7055 1.3361 0
M  V30 10 C -0.7248 0.1323 2.234 0
M  V30 11 C -0.8349 -3.1154 -2.6231 0
M  V30 12 C 1.0721 -2.1979 -3.7718 0
M  V30 13 C 2.3281 -1.0154 -0.8078 0
M  V30 14 C 1.7772 1.1061 -1.8214 0
M  V30 15 C -2.9371 1.8514 2.7915 0
M  V30 16 C -1.4295 2.7989 1.06 0
M  V30 17 N -0.476 1.4821 2.9537 0 CHG=1
M  V30 18 C -0.7733 -4.2495 -3.4387 0
M  V30 19 C 1.1314 -3.331 -4.5858 0
M  V30 20 C 3.5651 -0.5044 -0.4112 0
M  V30 21 C 3.0158 1.614 -1.4234 0
M  V30 22 C -1.735 1.8672 3.7397 0
M  V30 23 C -0.1739 2.5603 1.8989 0
M  V30 24 C 0.7075 1.3442 3.8959 0
M  V30 25 C 0.2115 -4.3592 -4.415 0
M  V30 26 C 3.9077 0.8096 -0.7186 0
M  V30 27 H -2.5866 -0.4666 1.2485 0
M  V30 28 H -1.2022 -0.3287 -3.378 0
M  V30 29 H -3.318 1.8232 0.6454 0
M  V30 30 H -1.0462 -0.5747 3.0069 0
M  V30 31 H 0.2366 -0.1873 1.8202 0
M  V30 32 H -1.6366 -3.074 -1.8891 0
M  V30 33 H 1.7952 -1.4021 -3.9486 0
M  V30 34 H 2.0905 -2.0522 -0.5681 0
M  V30 35 H 1.1037 1.7534 -2.3814 0
M  V30 36 H -3.6109 1.028 3.0581 0
M  V30 37 H -3.5146 2.7746 2.9213 0
M  V30 38 H -1.1622 2.8347 -0.0025 0
M  V30 39 H -1.8497 3.7846 1.2967 0
M  V30 40 H -1.5004 -5.0491 -3.3142 0
M  V30 41 H 1.8937 -3.4066 -5.3578 0
M  V30 42 H 4.2708 -1.1396 0.1195 0
M  V30 43 H 3.2927 2.6335 -1.6828 0
M  V30 44 H -1.8609 1.1466 4.5555 0
M  V30 45 H -1.5654 2.8637 4.163 0
M  V30 46 H 0.1332 3.4713 2.4244 0
M  V30 47 H 0.6606 2.1967 1.2891 0
M  V30 48 H 0.4883 0.5466 4.6116 0
M  V30 49 H 0.8479 2.2965 4.4154 0
M  V30 50 H 1.594 1.096 3.3051 0
M  V30 51 H 0.2563 -5.2415 -5.0487 0
M  V30 52 H 4.8805 1.2003 -0.4287 0
M  V30 END ATOM
M  V30 BEGIN BOND
M  V30 1 2 1 2
M  V30 2 1 2 3
M  V30 3 1 2 4
M  V30 4 1 3 5
M  V30 5 1 4 6
M  V30 6 1 4 7
M  V30 7 1 4 8
M  V30 8 1 5 9
M  V30 9 1 5 10
M  V30 10 2 7 11
M  V30 11 1 7 12
M  V30 12 2 8 13
M  V30 13 1 8 14
M  V30 14 1 9 15
M  V30 15 1 9 16
M  V30 16 1 10 17
M  V30 17 1 11 18
M  V30 18 2 12 19
M  V30 19 1 13 20
M  V30 20 2 14 21
M  V30 21 1 15 22
M  V30 22 1 16 23
M  V30 23 1 17 24
M  V30 24 2 18 25
M  V30 25 2 20 26
M  V30 26 1 17 22
M  V30 27 1 17 23
M  V30 28 1 19 25
M  V30 29 1 21 26
M  V30 30 1 5 27
M  V30 31 1 6 28
M  V30 32 1 9 29
M  V30 33 1 10 30
M  V30 34 1 10 31
M  V30 35 1 11 32
M  V30 36 1 12 33
M  V30 37 1 13 34
M  V30 38 1 14 35
M  V30 39 1 15 36
M  V30 40 1 15 37
M  V30 41 1 16 38
M  V30 42 1 16 39
M  V30 43 1 18 40
M  V30 44 1 19 41
M  V30 45 1 20 42
M  V30 46 1 21 43
M  V30 47 1 22 44
M  V30 48 1 22 45
M  V30 49 1 23 46
M  V30 50 1 23 47
M  V30 51 1 24 48
M  V30 52 1 24 49
M  V30 53 1 24 50
M  V30 54 1 25 51
M  V30 55 1 26 52
M  V30 END BOND
M  V30 BEGIN COLLECTION
M  V30 MDLV30/STERAC1 ATOMS=(1 5)
M  V30 END COLLECTION
M  V30 END CTAB
M  END
>  <NO.>
2159

>  <Name>
clidinium

>  <SMILES>
C[N+]12CCC(CC1)C(OC(=O)C(O)(c1ccccc1)c1ccccc1)C2

>  <logBB>


>  <Class>
-1

>  <MW>
352.19

>  <nHBAcc>
3

>  <nHBDon>
1

>  <SLogP>
2.7

>  <TopoPSA>
46.53

>  <MMFF94 Energy>
156.7

$$$$
Cc1[nH]ccc2c1[nH]c1cc(=O)ccc12
Actelion Java MolfileCreator 2.0

  0  0  0  0  0  0              0 V3000
M  V30 BEGIN CTAB
M  V30 COUNTS 25 27 0 0 0
M  V30 BEGIN ATOM
M  V30 1 O -1.9179 -0.3194 4.6399 0
M  V30 2 C -1.4368 -0.4596 3.5208 0
M  V30 3 C -1.1331 0.7235 2.6708 0
M  V30 4 C -1.1442 -1.823 2.9848 0
M  V30 5 C -0.6098 0.5318 1.4582 0
M  V30 6 C -0.6177 -1.9893 1.7619 0
M  V30 7 N -0.2331 1.4005 0.4713 0
M  V30 8 C -0.3362 -0.8251 0.9661 0
M  V30 9 C 0.2574 0.7239 -0.6092 0
M  V30 10 C 0.1843 -0.7183 -0.2736 0
M  V30 11 C 0.7521 1.0715 -1.8154 0
M  V30 12 C 0.6304 -1.729 -1.2116 0
M  V30 13 N 1.1735 0.07 -2.6962 0
M  V30 14 C 0.878 2.4927 -2.2733 0
M  V30 15 C 1.1068 -1.2766 -2.3866 0
M  V30 16 H -1.3532 1.6988 3.0795 0
M  V30 17 H -1.3804 -2.6551 3.636 0
M  V30 18 H -0.4046 -2.9768 1.3709 0
M  V30 19 H -0.3054 2.4025 0.5283 0
M  V30 20 H 0.5789 -2.7814 -0.9711 0
M  V30 21 H 1.5432 0.3453 -3.5992 0
M  V30 22 H 0.5255 3.2068 -1.5226 0
M  V30 23 H 0.2913 2.6505 -3.1843 0
M  V30 24 H 1.9247 2.7289 -2.4917 0
M  V30 25 H 1.4682 -1.9418 -3.1638 0
M  V30 END ATOM
M  V30 BEGIN BOND
M  V30 1 2 1 2
M  V30 2 1 2 3
M  V30 3 1 2 4
M  V30 4 2 3 5
M  V30 5 2 4 6
M  V30 6 1 5 7
M  V30 7 1 5 8
M  V30 8 1 7 9
M  V30 9 2 8 10
M  V30 10 2 9 11
M  V30 11 1 10 12
M  V30 12 1 11 13
M  V30 13 1 11 14
M  V30 14 2 12 15
M  V30 15 1 6 8
M  V30 16 1 9 10
M  V30 17 1 13 15
M  V30 18 1 3 16
M  V30 19 1 4 17
M  V30 20 1 6 18
M  V30 21 1 7 19
M  V30 22 1 12 20
M  V30 23 1 13 21
M  V30 24 1 14 22
M  V30 25 1 14 23
M  V30 26 1 14 24
M  V30 27 1 15 25
M  V30 END BOND
M  V30 END CTAB
M  END
>  <NO.>
2161

>  <Name>
harmalol

>  <SMILES>
Cc1[nH]ccc2c1[nH]c1cc(=O)ccc12

>  <logBB>


>  <Class>
1

>  <MW>
198.08

>  <nHBAcc>
1

>  <nHBDon>
2

>  <SLogP>
2.32

>  <TopoPSA>
48.65

>  <MMFF94 Energy>
51.025

$$$$
Cc1[nH]nc2c1N(c1ccccc1)C(=O)CC(=O)N2C
Actelion Java MolfileCreator 2.0

  0  0  0  0  0  0              0 V3000
M  V30 BEGIN CTAB
M  V30 COUNTS 34 36 0 0 0
M  V30 BEGIN ATOM
M  V30 1 O -0.9558 -0.3981 -2.8697 0
M  V30 2 C -0.8465 -0.7963 -1.7074 0
M  V30 3 N -0.0053 -0.2172 -0.7539 0
M  V30 4 C -1.6443 -1.9928 -1.2473 0
M  V30 5 C 0.7269 0.969 -1.0355 0
M  V30 6 C 0.0713 -0.7172 0.5472 0
M  V30 7 C -2.7354 -1.6095 -0.274 0
M  V30 8 C 1.5658 1.0303 -2.1554 0
M  V30 9 C 0.6239 2.0906 -0.1986 0
M  V30 10 C -1.006 -1.1735 1.3597 0
M  V30 11 C 1.2074 -0.9367 1.303 0
M  V30 12 O -3.9184 -1.6891 -0.6148 0
M  V30 13 N -2.3488 -1.208 0.999 0
M  V30 14 C 2.2977 2.1881 -2.4279 0
M  V30 15 C 1.3573 3.2471 -0.4731 0
M  V30 16 N -0.5732 -1.5872 2.5537 0
M  V30 17 N 0.7571 -1.4306 2.4963 0
M  V30 18 C 2.6511 -0.735 1.0373 0
M  V30 19 C -3.3663 -0.9019 1.9911 0
M  V30 20 C 2.1949 3.2941 -1.5859 0
M  V30 21 H -2.1173 -2.4453 -2.1277 0
M  V30 22 H -0.9924 -2.7648 -0.8252 0
M  V30 23 H 1.6521 0.1796 -2.827 0
M  V30 24 H -0.0345 2.0784 0.6661 0
M  V30 25 H 2.9409 2.2279 -3.3032 0
M  V30 26 H 1.2682 4.1136 0.177 0
M  V30 27 H 1.3048 -1.6956 3.3093 0
M  V30 28 H 3.2674 -1.3482 1.7032 0
M  V30 29 H 2.9004 -1.0136 0.0088 0
M  V30 30 H 2.9267 0.3127 1.1912 0
M  V30 31 H -3.0619 -0.0264 2.5736 0
M  V30 32 H -4.3312 -0.6886 1.5227 0
M  V30 33 H -3.4835 -1.765 2.6538 0
M  V30 34 H 2.7604 4.1967 -1.8035 0
M  V30 END ATOM
M  V30 BEGIN BOND
M  V30 1 2 1 2
M  V30 2 1 2 3
M  V30 3 1 2 4
M  V30 4 1 3 5
M  V30 5 1 3 6
M  V30 6 1 4 7
M  V30 7 2 5 8
M  V30 8 1 5 9
M  V30 9 1 6 10
M  V30 10 2 6 11
M  V30 11 2 7 12
M  V30 12 1 7 13
M  V30 13 1 8 14
M  V30 14 2 9 15
M  V30 15 2 10 16
M  V30 16 1 11 17
M  V30 17 1 11 18
M  V30 18 1 13 19
M  V30 19 2 14 20
M  V30 20 1 10 13
M  V30 21 1 15 20
M  V30 22 1 16 17
M  V30 23 1 4 21
M  V30 24 1 4 22
M  V30 25 1 8 23
M  V30 26 1 9 24
M  V30 27 1 14 25
M  V30 28 1 15 26
M  V30 29 1 17 27
M  V30 30 1 18 28
M  V30 31 1 18 29
M  V30 32 1 18 30
M  V30 33 1 19 31
M  V30 34 1 19 32
M  V30 35 1 19 33
M  V30 36 1 20 34
M  V30 END BOND
M  V30 END CTAB
M  END
>  <NO.>
2162

>  <Name>
razobazam

>  <SMILES>
Cc1[nH]nc2c1N(c1ccccc1)C(=O)CC(=O)N2C

>  <logBB>


>  <Class>
1

>  <MW>
270.11

>  <nHBAcc>
3

>  <nHBDon>
1

>  <SLogP>
1.75

>  <TopoPSA>
69.3

>  <MMFF94 Energy>
-0.17974

$$$$
Cc1c(C)c2ccc(OCc3nnc(C(C)C)s3)cc2oc1=O
Actelion Java MolfileCreator 2.0

  0  0  0  0  0  0              0 V3000
M  V30 BEGIN CTAB
M  V30 COUNTS 41 43 0 0 0
M  V30 BEGIN ATOM
M  V30 1 S 0.729 1.7829 -3.2434 0
M  V30 2 C -0.2048 1.9269 -4.6802 0
M  V30 3 C -0.1936 0.3785 -2.8721 0
M  V30 4 N -1.1015 0.9739 -4.8311 0
M  V30 5 C 0.0242 3.0541 -5.6466 0
M  V30 6 N -1.0939 0.0755 -3.785 0
M  V30 7 C 0.066 -0.4147 -1.6332 0
M  V30 8 C 0.4535 2.5116 -7.01 0
M  V30 9 C -1.2361 3.9094 -5.7798 0
M  V30 10 O -0.32 0.3936 -0.5196 0
M  V30 11 C -0.1616 -0.1461 0.7249 0
M  V30 12 C 0.3414 -1.4077 1.0186 0
M  V30 13 C -0.5569 0.6828 1.7755 0
M  V30 14 C 0.4423 -1.8131 2.3552 0
M  V30 15 C -0.4496 0.2602 3.1077 0
M  V30 16 O 0.9569 -3.1014 2.5654 0
M  V30 17 C 0.0604 -1.0052 3.4224 0
M  V30 18 C 1.0932 -3.6267 3.8369 0
M  V30 19 C 0.2014 -1.5186 4.8008 0
M  V30 20 O 1.551 -4.7527 4.0048 0
M  V30 21 C 0.6726 -2.7714 4.9846 0
M  V30 22 C -0.1864 -0.588 5.9222 0
M  V30 23 C 0.8315 -3.4656 6.3116 0
M  V30 24 H 0.8292 3.7023 -5.2772 0
M  V30 25 H -0.5356 -1.3309 -1.6605 0
M  V30 26 H 1.1307 -0.6711 -1.5758 0
M  V30 27 H 0.656 3.3314 -7.7073 0
M  V30 28 H 1.3661 1.9115 -6.9227 0
M  V30 29 H -0.3207 1.8753 -7.4535 0
M  V30 30 H -1.5387 4.3147 -4.8077 0
M  V30 31 H -2.0782 3.3293 -6.1739 0
M  V30 32 H -1.0626 4.7532 -6.456 0
M  V30 33 H 0.6604 -2.1015 0.2489 0
M  V30 34 H -0.9576 1.6713 1.5589 0
M  V30 35 H -0.7803 0.9488 3.8806 0
M  V30 36 H -1.264 -0.392 5.9029 0
M  V30 37 H 0.0552 -0.9691 6.9159 0
M  V30 38 H 0.3485 0.3645 5.8363 0
M  V30 39 H 0.4132 -4.4779 6.2709 0
M  V30 40 H 1.8919 -3.54 6.574 0
M  V30 41 H 0.314 -2.9676 7.1334 0
M  V30 END ATOM
M  V30 BEGIN BOND
M  V30 1 1 1 2
M  V30 2 1 1 3
M  V30 3 2 2 4
M  V30 4 1 2 5
M  V30 5 2 3 6
M  V30 6 1 3 7
M  V30 7 1 5 8
M  V30 8 1 5 9
M  V30 9 1 7 10
M  V30 10 1 10 11
M  V30 11 2 11 12
M  V30 12 1 11 13
M  V30 13 1 12 14
M  V30 14 2 13 15
M  V30 15 1 14 16
M  V30 16 2 14 17
M  V30 17 1 16 18
M  V30 18 1 17 19
M  V30 19 2 18 20
M  V30 20 1 18 21
M  V30 21 1 19 22
M  V30 22 1 21 23
M  V30 23 1 4 6
M  V30 24 1 15 17
M  V30 25 2 19 21
M  V30 26 1 5 24
M  V30 27 1 7 25
M  V30 28 1 7 26
M  V30 29 1 8 27
M  V30 30 1 8 28
M  V30 31 1 8 29
M  V30 32 1 9 30
M  V30 33 1 9 31
M  V30 34 1 9 32
M  V30 35 1 12 33
M  V30 36 1 13 34
M  V30 37 1 15 35
M  V30 38 1 22 36
M  V30 39 1 22 37
M  V30 40 1 22 38
M  V30 41 1 23 39
M  V30 42 1 23 40
M  V30 43 1 23 41
M  V30 END BOND
M  V30 END CTAB
M  END
>  <NO.>
2164

>  <Name>
atibeprone

>  <SMILES>
Cc1c(C)c2ccc(OCc3nnc(C(C)C)s3)cc2oc1=O

>  <logBB>


>  <Class>
1

>  <MW>
330.1

>  <nHBAcc>
6

>  <nHBDon>
0

>  <SLogP>
3.96

>  <TopoPSA>
65.22

>  <MMFF94 Energy>
58.21

$$$$
Cc1c(F)c(N2CCNC(C)C2)cc2c1c(=O)c(C(=O)O)cn2C1CC1
Actelion Java MolfileCreator 2.0

  0  0  0  0  0  0              0 V3000
M  V30 BEGIN CTAB
M  V30 COUNTS 48 51 0 0 0
M  V30 BEGIN ATOM
M  V30 1 F 1.6053 3.0518 -0.5616 0
M  V30 2 C 1.3028 1.8406 -0.0625 0
M  V30 3 C 0.2024 1.1379 -0.5843 0
M  V30 4 C 2.1012 1.3469 0.9842 0
M  V30 5 N -0.5971 1.5963 -1.6319 0
M  V30 6 C -0.0666 -0.1158 -0.0138 0
M  V30 7 C 1.7775 0.0933 1.5473 0
M  V30 8 C 3.2561 2.1882 1.4562 0
M  V30 9 C -2.0524 1.6884 -1.397 0
M  V30 10 C -0.0817 2.6104 -2.5686 0
M  V30 11 C 0.6879 -0.6536 1.0459 0
M  V30 12 C 2.5607 -0.4845 2.6886 0
M  V30 13 C -2.842 1.6999 -2.7357 0 CFG=1
M  V30 14 C -0.8899 2.5971 -3.8851 0
M  V30 15 N 0.3842 -1.9313 1.6006 0
M  V30 16 O 3.3634 0.1962 3.3163 0
M  V30 17 C 2.3115 -1.8974 3.0682 0
M  V30 18 N -2.3489 2.7054 -3.7019 0
M  V30 19 C -2.8952 0.2986 -3.3567 0
M  V30 20 C 1.2522 -2.4987 2.5099 0
M  V30 21 C -0.7566 -2.7404 1.1286 0
M  V30 22 C 3.1847 -2.6228 4.0067 0
M  V30 23 C -1.6598 -3.4927 2.0774 0
M  V30 24 C -2.1834 -2.2977 1.3465 0
M  V30 25 O 4.3403 -2.3634 4.2867 0
M  V30 26 O 2.585 -3.6909 4.5729 0
M  V30 27 H -0.8734 -0.7021 -0.4434 0
M  V30 28 H 4.1875 1.6138 1.4288 0
M  V30 29 H 3.4171 3.0622 0.8164 0
M  V30 30 H 3.0686 2.5608 2.468 0
M  V30 31 H -2.4279 0.8675 -0.7755 0
M  V30 32 H -2.2578 2.618 -0.8494 0
M  V30 33 H -0.1463 3.6062 -2.1127 0
M  V30 34 H 0.9663 2.4091 -2.8208 0
M  V30 35 H -3.8761 1.978 -2.4964 0
M  V30 36 H -0.6598 1.6807 -4.4417 0
M  V30 37 H -0.5573 3.4328 -4.5108 0
M  V30 38 H -2.8083 2.5729 -4.6016 0
M  V30 39 H -3.4774 0.3035 -4.2847 0
M  V30 40 H -3.3797 -0.404 -2.6698 0
M  V30 41 H -1.8988 -0.0943 -3.5823 0
M  V30 42 H 1.0108 -3.5312 2.7503 0
M  V30 43 H -0.5323 -3.2367 0.1864 0
M  V30 44 H -1.5043 -3.3923 3.1453 0
M  V30 45 H -2.0096 -4.4715 1.7709 0
M  V30 46 H -2.8916 -2.4614 0.5432 0
M  V30 47 H -2.3602 -1.3951 1.9203 0
M  V30 48 H 3.281 -4.0412 5.1693 0
M  V30 END ATOM
M  V30 BEGIN BOND
M  V30 1 1 1 2
M  V30 2 2 2 3
M  V30 3 1 2 4
M  V30 4 1 3 5
M  V30 5 1 3 6
M  V30 6 2 4 7
M  V30 7 1 4 8
M  V30 8 1 5 9
M  V30 9 1 5 10
M  V30 10 2 6 11
M  V30 11 1 7 12
M  V30 12 1 9 13
M  V30 13 1 10 14
M  V30 14 1 11 15
M  V30 15 2 12 16
M  V30 16 1 12 17
M  V30 17 1 13 18
M  V30 18 1 13 19
M  V30 19 1 15 20
M  V30 20 1 15 21
M  V30 21 1 17 22
M  V30 22 1 21 23
M  V30 23 1 21 24
M  V30 24 2 22 25
M  V30 25 1 22 26
M  V30 26 1 7 11
M  V30 27 1 14 18
M  V30 28 2 17 20
M  V30 29 1 23 24
M  V30 30 1 6 27
M  V30 31 1 8 28
M  V30 32 1 8 29
M  V30 33 1 8 30
M  V30 34 1 9 31
M  V30 35 1 9 32
M  V30 36 1 10 33
M  V30 37 1 10 34
M  V30 38 1 13 35
M  V30 39 1 14 36
M  V30 40 1 14 37
M  V30 41 1 18 38
M  V30 42 1 19 39
M  V30 43 1 19 40
M  V30 44 1 19 41
M  V30 45 1 20 42
M  V30 46 1 21 43
M  V30 47 1 23 44
M  V30 48 1 23 45
M  V30 49 1 24 46
M  V30 50 1 24 47
M  V30 51 1 26 48
M  V30 END BOND
M  V30 BEGIN COLLECTION
M  V30 MDLV30/STERAC1 ATOMS=(1 13)
M  V30 END COLLECTION
M  V30 END CTAB
M  END
>  <NO.>
2165

>  <Name>
grepafloxacin

>  <SMILES>
Cc1c(F)c(N2CCNC(C)C2)cc2c1c(=O)c(C(=O)O)cn2C1CC1

>  <logBB>


>  <Class>
-1

>  <MW>
359.16

>  <nHBAcc>
4

>  <nHBDon>
2

>  <SLogP>
2.28

>  <TopoPSA>
74.57

>  <MMFF94 Energy>
114.92

$$$$
Cc1c(O)c(=O)ccn1CCCO
Actelion Java MolfileCreator 2.0

  0  0  0  0  0  0              0 V3000
M  V30 BEGIN CTAB
M  V30 COUNTS 26 26 0 0 0
M  V30 BEGIN ATOM
M  V30 1 O 3.2101 2.1914 1.5649 0
M  V30 2 C 2.3919 1.5689 0.8934 0
M  V30 3 C 0.9858 2.0543 0.6698 0
M  V30 4 C 2.7872 0.3028 0.2522 0
M  V30 5 O 0.6634 3.2756 1.2341 0
M  V30 6 C 0.135 1.2874 -0.0623 0
M  V30 7 C 1.8684 -0.3486 -0.4614 0
M  V30 8 N 0.5497 0.0583 -0.6439 0
M  V30 9 C -1.3036 1.715 -0.2652 0
M  V30 10 C -0.3394 -0.799 -1.4652 0
M  V30 11 C -0.6761 -2.1224 -0.7769 0
M  V30 12 C -1.4376 -1.9529 0.5277 0
M  V30 13 O -1.7677 -3.2433 1.029 0
M  V30 14 H 3.8035 -0.0387 0.3834 0
M  V30 15 H -0.0493 3.6864 0.7249 0
M  V30 16 H 2.1325 -1.2812 -0.9546 0
M  V30 17 H -1.4759 1.9775 -1.3141 0
M  V30 18 H -1.5994 2.5752 0.3405 0
M  V30 19 H -1.9907 0.9129 0.0191 0
M  V30 20 H -1.2651 -0.2898 -1.7503 0
M  V30 21 H 0.1686 -1.0161 -2.4144 0
M  V30 22 H 0.2322 -2.7078 -0.5888 0
M  V30 23 H -1.2751 -2.7356 -1.4624 0
M  V30 24 H -0.8337 -1.4359 1.2794 0
M  V30 25 H -2.3694 -1.4018 0.3708 0
M  V30 26 H -2.1743 -3.114 1.9035 0
M  V30 END ATOM
M  V30 BEGIN BOND
M  V30 1 2 1 2
M  V30 2 1 2 3
M  V30 3 1 2 4
M  V30 4 1 3 5
M  V30 5 2 3 6
M  V30 6 2 4 7
M  V30 7 1 6 8
M  V30 8 1 6 9
M  V30 9 1 8 10
M  V30 10 1 10 11
M  V30 11 1 11 12
M  V30 12 1 12 13
M  V30 13 1 7 8
M  V30 14 1 4 14
M  V30 15 1 5 15
M  V30 16 1 7 16
M  V30 17 1 9 17
M  V30 18 1 9 18
M  V30 19 1 9 19
M  V30 20 1 10 20
M  V30 21 1 10 21
M  V30 22 1 11 22
M  V30 23 1 11 23
M  V30 24 1 12 24
M  V30 25 1 12 25
M  V30 26 1 13 26
M  V30 END BOND
M  V30 END CTAB
M  END
>  <NO.>
2166

>  <Name>
pyridostigminebromide

>  <SMILES>
Cc1c(O)c(=O)ccn1CCCO

>  <logBB>


>  <Class>
-1

>  <MW>
183.09

>  <nHBAcc>
3

>  <nHBDon>
2

>  <SLogP>
0.24

>  <TopoPSA>
62.46

>  <MMFF94 Energy>
47.76

$$$$
Cc1c2c(cn1C)NC(=O)CN=C2c1ccccc1
Actelion Java MolfileCreator 2.0

  0  0  0  0  0  0              0 V3000
M  V30 BEGIN CTAB
M  V30 COUNTS 34 36 0 0 0
M  V30 BEGIN ATOM
M  V30 1 O 3.6599 0.1589 3.0226 0
M  V30 2 C 2.708 0.4565 2.2988 0
M  V30 3 N 1.4259 0.3608 2.7801 0
M  V30 4 C 2.89 1.008 0.8846 0
M  V30 5 C 0.3132 0.6585 2.0335 0
M  V30 6 N 2.3959 0.0774 -0.1383 0
M  V30 7 C 0.143 0.4587 0.6368 0
M  V30 8 C -0.8492 1.1759 2.5437 0
M  V30 9 C 1.1291 -0.148 -0.2568 0
M  V30 10 C -1.1129 0.973 0.3154 0
M  V30 11 N -1.7109 1.3664 1.4962 0
M  V30 12 C 0.6719 -1.096 -1.3139 0
M  V30 13 C -1.7871 1.1343 -1.0059 0
M  V30 14 C -3.0437 1.9165 1.6304 0
M  V30 15 C 1.3583 -1.1347 -2.5342 0
M  V30 16 C -0.3962 -1.975 -1.0924 0
M  V30 17 C 0.9588 -2.0215 -3.5353 0
M  V30 18 C -0.7925 -2.8608 -2.0965 0
M  V30 19 C -0.118 -2.8803 -3.3171 0
M  V30 20 H 1.3219 0.0742 3.7433 0
M  V30 21 H 3.9641 1.1508 0.7212 0
M  V30 22 H 2.4297 1.999 0.7943 0
M  V30 23 H -1.1251 1.446 3.5545 0
M  V30 24 H -2.5029 0.3232 -1.1704 0
M  V30 25 H -2.3251 2.086 -1.0624 0
M  V30 26 H -1.0633 1.1323 -1.8259 0
M  V30 27 H -3.7462 1.2623 1.1083 0
M  V30 28 H -3.0457 2.9186 1.1948 0
M  V30 29 H -3.3119 1.9691 2.6887 0
M  V30 30 H 2.2059 -0.4749 -2.7062 0
M  V30 31 H -0.9175 -1.988 -0.1387 0
M  V30 32 H 1.4933 -2.0467 -4.4815 0
M  V30 33 H -1.6212 -3.5426 -1.923 0
M  V30 34 H -0.4243 -3.5743 -4.0959 0
M  V30 END ATOM
M  V30 BEGIN BOND
M  V30 1 2 1 2
M  V30 2 1 2 3
M  V30 3 1 2 4
M  V30 4 1 3 5
M  V30 5 1 4 6
M  V30 6 1 5 7
M  V30 7 2 5 8
M  V30 8 2 6 9
M  V30 9 2 7 10
M  V30 10 1 8 11
M  V30 11 1 9 12
M  V30 12 1 10 13
M  V30 13 1 11 14
M  V30 14 2 12 15
M  V30 15 1 12 16
M  V30 16 1 15 17
M  V30 17 2 16 18
M  V30 18 2 17 19
M  V30 19 1 7 9
M  V30 20 1 10 11
M  V30 21 1 18 19
M  V30 22 1 3 20
M  V30 23 1 4 21
M  V30 24 1 4 22
M  V30 25 1 8 23
M  V30 26 1 13 24
M  V30 27 1 13 25
M  V30 28 1 13 26
M  V30 29 1 14 27
M  V30 30 1 14 28
M  V30 31 1 14 29
M  V30 32 1 15 30
M  V30 33 1 16 31
M  V30 34 1 17 32
M  V30 35 1 18 33
M  V30 36 1 19 34
M  V30 END BOND
M  V30 END CTAB
M  END
>  <NO.>
2168

>  <Name>
premazepam

>  <SMILES>
Cc1c2c(cn1C)NC(=O)CN=C2c1ccccc1

>  <logBB>


>  <Class>
1

>  <MW>
253.12

>  <nHBAcc>
2

>  <nHBDon>
1

>  <SLogP>
2.12

>  <TopoPSA>
46.39

>  <MMFF94 Energy>
84.125

$$$$
Cc1cc(-c2ccc(O)cc2)nnc1NCCN1CCOCC1
Actelion Java MolfileCreator 2.0

  0  0  0  0  0  0              0 V3000
M  V30 BEGIN CTAB
M  V30 COUNTS 45 47 0 0 0
M  V30 BEGIN ATOM
M  V30 1 O 4.6868 -4.0503 0.5551 0
M  V30 2 C 4.0204 -4.8472 1.5423 0
M  V30 3 C 4.1938 -2.7056 0.6075 0
M  V30 4 C 2.5033 -4.8603 1.3036 0
M  V30 5 C 2.6762 -2.6524 0.3583 0
M  V30 6 N 1.9331 -3.4947 1.3177 0
M  V30 7 C 0.4822 -3.549 1.0387 0
M  V30 8 C -0.2694 -2.1958 1.0652 0
M  V30 9 N -0.1344 -1.4851 -0.2011 0
M  V30 10 C -0.7066 -0.2251 -0.3177 0
M  V30 11 N -1.4477 0.2775 0.6906 0
M  V30 12 C -0.4727 0.5544 -1.4509 0
M  V30 13 N -2.0119 1.5371 0.6146 0
M  V30 14 C -1.0501 1.8327 -1.5227 0
M  V30 15 C 0.3676 0.0595 -2.5927 0
M  V30 16 C -1.8185 2.3126 -0.4704 0
M  V30 17 C -2.4654 3.6394 -0.4557 0
M  V30 18 C -3.6586 3.849 0.2653 0
M  V30 19 C -1.9271 4.7443 -1.1429 0
M  V30 20 C -4.2934 5.0958 0.2911 0
M  V30 21 C -2.5582 5.9928 -1.1209 0
M  V30 22 C -3.7356 6.1581 -0.4063 0
M  V30 23 O -4.316 7.3909 -0.4109 0
M  V30 24 H 4.4158 -5.8651 1.467 0
M  V30 25 H 4.2643 -4.4684 2.5423 0
M  V30 26 H 4.7148 -2.1326 -0.1661 0
M  V30 27 H 4.4517 -2.2633 1.5776 0
M  V30 28 H 2.0311 -5.4697 2.0827 0
M  V30 29 H 2.3044 -5.3352 0.3338 0
M  V30 30 H 2.4738 -2.9887 -0.6665 0
M  V30 31 H 2.3697 -1.606 0.4487 0
M  V30 32 H 0.0264 -4.1704 1.8207 0
M  V30 33 H 0.2931 -4.0536 0.0819 0
M  V30 34 H -1.3316 -2.4014 1.2481 0
M  V30 35 H 0.1019 -1.5875 1.8995 0
M  V30 36 H -0.077 -2.0376 -1.0441 0
M  V30 37 H -0.9012 2.438 -2.4111 0
M  V30 38 H -0.1282 -0.7787 -3.0921 0
M  V30 39 H 1.3521 -0.2594 -2.2348 0
M  V30 40 H 0.5328 0.843 -3.3398 0
M  V30 41 H -4.1088 3.025 0.8188 0
M  V30 42 H -0.9932 4.6574 -1.693 0
M  V30 43 H -5.2114 5.2103 0.8586 0
M  V30 44 H -2.1253 6.8341 -1.6548 0
M  V30 45 H -5.111 7.3602 0.1463 0
M  V30 END ATOM
M  V30 BEGIN BOND
M  V30 1 1 1 2
M  V30 2 1 1 3
M  V30 3 1 2 4
M  V30 4 1 3 5
M  V30 5 1 4 6
M  V30 6 1 6 7
M  V30 7 1 7 8
M  V30 8 1 8 9
M  V30 9 1 9 10
M  V30 10 2 10 11
M  V30 11 1 10 12
M  V30 12 1 11 13
M  V30 13 2 12 14
M  V30 14 1 12 15
M  V30 15 2 13 16
M  V30 16 1 16 17
M  V30 17 2 17 18
M  V30 18 1 17 19
M  V30 19 1 18 20
M  V30 20 2 19 21
M  V30 21 2 20 22
M  V30 22 1 22 23
M  V30 23 1 5 6
M  V30 24 1 14 16
M  V30 25 1 21 22
M  V30 26 1 2 24
M  V30 27 1 2 25
M  V30 28 1 3 26
M  V30 29 1 3 27
M  V30 30 1 4 28
M  V30 31 1 4 29
M  V30 32 1 5 30
M  V30 33 1 5 31
M  V30 34 1 7 32
M  V30 35 1 7 33
M  V30 36 1 8 34
M  V30 37 1 8 35
M  V30 38 1 9 36
M  V30 39 1 14 37
M  V30 40 1 15 38
M  V30 41 1 15 39
M  V30 42 1 15 40
M  V30 43 1 18 41
M  V30 44 1 19 42
M  V30 45 1 20 43
M  V30 46 1 21 44
M  V30 47 1 23 45
M  V30 END BOND
M  V30 END CTAB
M  END
>  <NO.>
2170

>  <Name>
moxiraprine

>  <SMILES>
Cc1cc(-c2ccc(O)cc2)nnc1NCCN1CCOCC1

>  <logBB>


>  <Class>
1

>  <MW>
314.17

>  <nHBAcc>
6

>  <nHBDon>
2

>  <SLogP>
1.9

>  <TopoPSA>
70.51

>  <MMFF94 Energy>
112.03

$$$$
Cc1cc(=O)oc2cc(O)ccc12
Actelion Java MolfileCreator 2.0

  0  0  0  0  0  0              0 V3000
M  V30 BEGIN CTAB
M  V30 COUNTS 21 22 0 0 0
M  V30 BEGIN ATOM
M  V30 1 O 0.1598 3.121 2.5603 0
M  V30 2 C 0.0825 2.1755 1.7842 0
M  V30 3 O 1.1164 1.824 0.9354 0
M  V30 4 C -1.1381 1.3567 1.7203 0
M  V30 5 C 0.9945 0.7311 0.0553 0
M  V30 6 C -1.2869 0.3102 0.8947 0
M  V30 7 C -0.1711 -0.0388 0.0046 0
M  V30 8 C 2.097 0.4648 -0.7559 0
M  V30 9 C -2.5542 -0.4919 0.8697 0
M  V30 10 C -0.2071 -1.1086 -0.9006 0
M  V30 11 C 2.0341 -0.5996 -1.6425 0
M  V30 12 C 0.8918 -1.39 -1.7231 0
M  V30 13 O 3.1227 -0.8416 -2.4255 0
M  V30 14 H -1.9224 1.6668 2.4018 0
M  V30 15 H 2.9897 1.0794 -0.6957 0
M  V30 16 H -2.3582 -1.5372 1.1313 0
M  V30 17 H -3.291 -0.1119 1.5865 0
M  V30 18 H -3.0187 -0.4549 -0.1214 0
M  V30 19 H -1.0855 -1.7431 -0.9857 0
M  V30 20 H 0.8349 -2.2252 -2.4148 0
M  V30 21 H 2.9402 -1.609 -2.9923 0
M  V30 END ATOM
M  V30 BEGIN BOND
M  V30 1 2 1 2
M  V30 2 1 2 3
M  V30 3 1 2 4
M  V30 4 1 3 5
M  V30 5 2 4 6
M  V30 6 2 5 7
M  V30 7 1 5 8
M  V30 8 1 6 9
M  V30 9 1 7 10
M  V30 10 2 8 11
M  V30 11 2 10 12
M  V30 12 1 11 13
M  V30 13 1 6 7
M  V30 14 1 11 12
M  V30 15 1 4 14
M  V30 16 1 8 15
M  V30 17 1 9 16
M  V30 18 1 9 17
M  V30 19 1 9 18
M  V30 20 1 10 19
M  V30 21 1 12 20
M  V30 22 1 13 21
M  V30 END BOND
M  V30 END CTAB
M  END
>  <NO.>
2172

>  <Name>
hymecromone

>  <SMILES>
Cc1cc(=O)oc2cc(O)ccc12

>  <logBB>


>  <Class>
-1

>  <MW>
176.05

>  <nHBAcc>
3

>  <nHBDon>
1

>  <SLogP>
1.81

>  <TopoPSA>
50.44

>  <MMFF94 Energy>
24.291

$$$$
Cc1cc(Br)cc(C(N)=O)c1O
Actelion Java MolfileCreator 2.0

  0  0  0  0  0  0              0 V3000
M  V30 BEGIN CTAB
M  V30 COUNTS 20 20 0 0 0
M  V30 BEGIN ATOM
M  V30 1 Br -1.6874 2.0091 3.216 0
M  V30 2 C -0.9836 1.1287 1.698 0
M  V30 3 C -0.1498 0.0267 1.8651 0
M  V30 4 C -1.3009 1.5949 0.4211 0
M  V30 5 C 0.3769 -0.6176 0.7403 0
M  V30 6 C -0.793 0.9497 -0.716 0
M  V30 7 C 0.031 -0.1719 -0.5456 0
M  V30 8 C 1.2958 -1.7569 0.9758 0
M  V30 9 C -1.1646 1.4364 -2.0878 0
M  V30 10 O 0.4502 -0.8184 -1.6802 0
M  V30 11 O 1.1639 -2.5062 1.9328 0
M  V30 12 N 2.3177 -1.9149 0.0811 0
M  V30 13 H 0.1021 -0.3293 2.8619 0
M  V30 14 H -1.9533 2.4587 0.3083 0
M  V30 15 H -0.2656 1.6097 -2.6882 0
M  V30 16 H -1.8005 0.7001 -2.5895 0
M  V30 17 H -1.7143 2.3825 -2.0422 0
M  V30 18 H 0.6625 -1.7415 -1.4449 0
M  V30 19 H 2.5419 -1.2247 -0.6269 0
M  V30 20 H 2.9781 -2.6634 0.2525 0
M  V30 END ATOM
M  V30 BEGIN BOND
M  V30 1 1 1 2
M  V30 2 2 2 3
M  V30 3 1 2 4
M  V30 4 1 3 5
M  V30 5 2 4 6
M  V30 6 2 5 7
M  V30 7 1 5 8
M  V30 8 1 6 9
M  V30 9 1 7 10
M  V30 10 2 8 11
M  V30 11 1 8 12
M  V30 12 1 6 7
M  V30 13 1 3 13
M  V30 14 1 4 14
M  V30 15 1 9 15
M  V30 16 1 9 16
M  V30 17 1 9 17
M  V30 18 1 10 18
M  V30 19 1 12 19
M  V30 20 1 12 20
M  V30 END BOND
M  V30 END CTAB
M  END
>  <NO.>
2173

>  <Name>
brosotamide

>  <SMILES>
Cc1cc(Br)cc(C(N)=O)c1O

>  <logBB>


>  <Class>
1

>  <MW>
228.97

>  <nHBAcc>
2

>  <nHBDon>
2

>  <SLogP>
1.56

>  <TopoPSA>
63.32

>  <MMFF94 Energy>
1.9257

$$$$
Cc1cc(C(=O)NNCc2ccccc2)no1
Actelion Java MolfileCreator 2.0

  0  0  0  0  0  0              0 V3000
M  V30 BEGIN CTAB
M  V30 COUNTS 30 31 0 0 0
M  V30 BEGIN ATOM
M  V30 1 O -1.346 1.346 0.554 0
M  V30 2 C -1.3651 0.6981 -0.4915 0
M  V30 3 N -0.7236 -0.527 -0.6385 0
M  V30 4 C -2.064 1.1519 -1.6927 0
M  V30 5 N -0.0263 -1.1176 0.441 0
M  V30 6 N -2.0558 0.4387 -2.8339 0
M  V30 7 C -2.817 2.3429 -1.8515 0
M  V30 8 C 1.4085 -0.8165 0.3652 0
M  V30 9 O -2.8072 1.1654 -3.7402 0
M  V30 10 C -3.2602 2.3021 -3.1489 0
M  V30 11 C 2.1356 -1.3578 1.5721 0
M  V30 12 C -4.0832 3.193 -3.9851 0
M  V30 13 C 2.4328 -0.5231 2.6593 0
M  V30 14 C 2.493 -2.7122 1.6388 0
M  V30 15 C 3.0915 -1.0297 3.781 0
M  V30 16 C 3.1514 -3.2167 2.7614 0
M  V30 17 C 3.4524 -2.3749 3.8307 0
M  V30 18 H -0.8096 -1.0211 -1.5264 0
M  V30 19 H -0.3826 -0.698 1.3094 0
M  V30 20 H -3.0007 3.11 -1.1132 0
M  V30 21 H 1.8396 -1.2594 -0.5414 0
M  V30 22 H 1.574 0.2664 0.2948 0
M  V30 23 H -3.5178 3.5288 -4.8597 0
M  V30 24 H -4.9807 2.6721 -4.3326 0
M  V30 25 H -4.3991 4.0778 -3.4236 0
M  V30 26 H 2.15 0.5273 2.6391 0
M  V30 27 H 2.2512 -3.381 0.8155 0
M  V30 28 H 3.3194 -0.3749 4.6182 0
M  V30 29 H 3.4242 -4.2678 2.8032 0
M  V30 30 H 3.9628 -2.7689 4.7054 0
M  V30 END ATOM
M  V30 BEGIN BOND
M  V30 1 2 1 2
M  V30 2 1 2 3
M  V30 3 1 2 4
M  V30 4 1 3 5
M  V30 5 2 4 6
M  V30 6 1 4 7
M  V30 7 1 5 8
M  V30 8 1 6 9
M  V30 9 2 7 10
M  V30 10 1 8 11
M  V30 11 1 10 12
M  V30 12 2 11 13
M  V30 13 1 11 14
M  V30 14 1 13 15
M  V30 15 2 14 16
M  V30 16 2 15 17
M  V30 17 1 9 10
M  V30 18 1 16 17
M  V30 19 1 3 18
M  V30 20 1 5 19
M  V30 21 1 7 20
M  V30 22 1 8 21
M  V30 23 1 8 22
M  V30 24 1 12 23
M  V30 25 1 12 24
M  V30 26 1 12 25
M  V30 27 1 13 26
M  V30 28 1 14 27
M  V30 29 1 15 28
M  V30 30 1 16 29
M  V30 31 1 17 30
M  V30 END BOND
M  V30 END CTAB
M  END
>  <NO.>
2174

>  <Name>
isocarboxazid

>  <SMILES>
Cc1cc(C(=O)NNCc2ccccc2)no1

>  <logBB>


>  <Class>
1

>  <MW>
231.1

>  <nHBAcc>
4

>  <nHBDon>
2

>  <SLogP>
1.42

>  <TopoPSA>
67.16

>  <MMFF94 Energy>
86.434

$$$$
Cc1cc(C)c(=O)[nH]n1
Actelion Java MolfileCreator 2.0

  0  0  0  0  0  0              0 V3000
M  V30 BEGIN CTAB
M  V30 COUNTS 17 17 0 0 0
M  V30 BEGIN ATOM
M  V30 1 O -2.7344 0.2341 -0.9368 0
M  V30 2 C -1.6737 0.2305 -0.3205 0
M  V30 3 N -1.5814 0.6432 0.9846 0
M  V30 4 C -0.4075 -0.2251 -0.9522 0
M  V30 5 N -0.4466 0.6715 1.7415 0
M  V30 6 C 0.7206 -0.2076 -0.232 0
M  V30 7 C -0.4835 -0.6792 -2.3732 0
M  V30 8 C 0.6437 0.2691 1.1671 0
M  V30 9 C 1.9179 0.2861 1.9725 0
M  V30 10 H -2.4346 0.9582 1.4342 0
M  V30 11 H 1.6754 -0.5248 -0.6284 0
M  V30 12 H 0.4947 -0.9948 -2.7511 0
M  V30 13 H -0.8421 0.1305 -3.017 0
M  V30 14 H -1.1663 -1.5297 -2.469 0
M  V30 15 H 1.7973 -0.354 2.8513 0
M  V30 16 H 2.7691 -0.0727 1.3884 0
M  V30 17 H 2.122 1.3091 2.3024 0
M  V30 END ATOM
M  V30 BEGIN BOND
M  V30 1 2 1 2
M  V30 2 1 2 3
M  V30 3 1 2 4
M  V30 4 1 3 5
M  V30 5 2 4 6
M  V30 6 1 4 7
M  V30 7 2 5 8
M  V30 8 1 8 9
M  V30 9 1 6 8
M  V30 10 1 3 10
M  V30 11 1 6 11
M  V30 12 1 7 12
M  V30 13 1 7 13
M  V30 14 1 7 14
M  V30 15 1 9 15
M  V30 16 1 9 16
M  V30 17 1 9 17
M  V30 END BOND
M  V30 END CTAB
M  END
>  <NO.>
2176

>  <Name>
cetohexazine

>  <SMILES>
Cc1cc(C)c(=O)[nH]n1

>  <logBB>


>  <Class>
1

>  <MW>
124.06

>  <nHBAcc>
2

>  <nHBDon>
1

>  <SLogP>
0.39

>  <TopoPSA>
45.75

>  <MMFF94 Energy>
30.289

$$$$
Cc1cc(C)cc(OCC2CNC(=O)O2)c1
Actelion Java MolfileCreator 2.0

  0  0  0  0  0  0              0 V3000
M  V30 BEGIN CTAB
M  V30 COUNTS 31 32 0 0 0
M  V30 BEGIN ATOM
M  V30 1 O 0.0 -6.2424 -0.0788 0
M  V30 2 C -0.3021 -5.0905 -0.3333 0
M  V30 3 O -0.484 -4.1085 0.5963 0
M  V30 4 N -0.4889 -4.5842 -1.5848 0
M  V30 5 C -0.9867 -2.939 -0.0746 0 CFG=2
M  V30 6 C -0.7107 -3.181 -1.5458 0
M  V30 7 C -0.3057 -1.6864 0.4636 0
M  V30 8 O -0.805 -0.5545 -0.2466 0
M  V30 9 C -0.2843 0.6669 0.0832 0
M  V30 10 C 0.6615 0.9151 1.0788 0
M  V30 11 C -0.7827 1.7334 -0.6701 0
M  V30 12 C 1.1171 2.2207 1.3183 0
M  V30 13 C -0.3412 3.0433 -0.4466 0
M  V30 14 C 0.5977 3.2797 0.5631 0
M  V30 15 C 2.1033 2.4885 2.4178 0
M  V30 16 C -0.9156 4.1832 -1.2341 0
M  V30 17 H -0.3586 -5.1611 -2.4048 0
M  V30 18 H -2.0681 -2.8846 0.1028 0
M  V30 19 H 0.1974 -2.6861 -1.904 0
M  V30 20 H -1.5504 -2.9073 -2.1899 0
M  V30 21 H -0.5257 -1.5965 1.5349 0
M  V30 22 H 0.7812 -1.7768 0.3398 0
M  V30 23 H 1.0602 0.1124 1.691 0
M  V30 24 H -1.5278 1.5365 -1.4378 0
M  V30 25 H 0.9282 4.2975 0.7634 0
M  V30 26 H 2.7147 3.3679 2.1896 0
M  V30 27 H 2.7871 1.6424 2.5433 0
M  V30 28 H 1.5746 2.6602 3.3605 0
M  V30 29 H -1.8048 4.5753 -0.7308 0
M  V30 30 H -1.1929 3.8604 -2.2431 0
M  V30 31 H -0.1843 4.9912 -1.3418 0
M  V30 END ATOM
M  V30 BEGIN BOND
M  V30 1 2 1 2
M  V30 2 1 2 3
M  V30 3 1 2 4
M  V30 4 1 3 5
M  V30 5 1 4 6
M  V30 6 1 5 7
M  V30 7 1 7 8
M  V30 8 1 8 9
M  V30 9 2 9 10
M  V30 10 1 9 11
M  V30 11 1 10 12
M  V30 12 2 11 13
M  V30 13 2 12 14
M  V30 14 1 12 15
M  V30 15 1 13 16
M  V30 16 1 5 6
M  V30 17 1 13 14
M  V30 18 1 4 17
M  V30 19 1 5 18
M  V30 20 1 6 19
M  V30 21 1 6 20
M  V30 22 1 7 21
M  V30 23 1 7 22
M  V30 24 1 10 23
M  V30 25 1 11 24
M  V30 26 1 14 25
M  V30 27 1 15 26
M  V30 28 1 15 27
M  V30 29 1 15 28
M  V30 30 1 16 29
M  V30 31 1 16 30
M  V30 32 1 16 31
M  V30 END BOND
M  V30 BEGIN COLLECTION
M  V30 MDLV30/STERAC1 ATOMS=(1 5)
M  V30 END COLLECTION
M  V30 END CTAB
M  END
>  <NO.>
2177

>  <Name>
metaxalone

>  <SMILES>
Cc1cc(C)cc(OCC2CNC(=O)O2)c1

>  <logBB>


>  <Class>
1

>  <MW>
221.11

>  <nHBAcc>
3

>  <nHBDon>
1

>  <SLogP>
1.79

>  <TopoPSA>
47.56

>  <MMFF94 Energy>
-8.5518

$$$$
Cc1cc(CCN2CCN(c3cccc(Cl)c3)CC2)n[nH]1
Actelion Java MolfileCreator 2.0

  0  0  0  0  0  0              0 V3000
M  V30 BEGIN CTAB
M  V30 COUNTS 42 44 0 0 0
M  V30 BEGIN ATOM
M  V30 1 Cl 2.4785 -3.5192 -5.6033 0
M  V30 2 C 1.8637 -1.9988 -5.0772 0
M  V30 3 C 1.7819 -1.7197 -3.7101 0
M  V30 4 C 1.4475 -1.0633 -6.0168 0
M  V30 5 C 1.285 -0.493 -3.2409 0
M  V30 6 C 0.9411 0.1557 -5.5807 0
M  V30 7 N 1.2047 -0.2361 -1.8758 0
M  V30 8 C 0.8592 0.4306 -4.2099 0
M  V30 9 C 2.4107 -0.4514 -1.0545 0
M  V30 10 C 0.3097 0.8168 -1.3648 0
M  V30 11 C 2.0447 -0.6183 0.4372 0
M  V30 12 C 0.0113 0.6278 0.1412 0
M  V30 13 N 1.232 0.4994 0.9718 0
M  V30 14 C 0.9025 0.2494 2.3913 0
M  V30 15 C 0.167 1.4005 3.1066 0
M  V30 16 C -1.2904 1.1361 3.3135 0
M  V30 17 N -2.2185 1.7907 2.6042 0
M  V30 18 C -1.8836 0.2412 4.2369 0
M  V30 19 N -3.3841 1.3119 3.0656 0
M  V30 20 C -3.2405 0.3732 4.0487 0
M  V30 21 C -4.3995 -0.2802 4.6936 0
M  V30 22 H 2.0816 -2.4878 -3.0032 0
M  V30 23 H 1.5105 -1.2779 -7.0794 0
M  V30 24 H 0.6102 0.8986 -6.3018 0
M  V30 25 H 0.4718 1.402 -3.9143 0
M  V30 26 H 3.0837 0.4072 -1.1758 0
M  V30 27 H 2.9679 -1.3434 -1.3592 0
M  V30 28 H -0.6503 0.7976 -1.8953 0
M  V30 29 H 0.7698 1.8002 -1.5249 0
M  V30 30 H 2.979 -0.6936 1.0067 0
M  V30 31 H 1.5078 -1.5687 0.5627 0
M  V30 32 H -0.6251 -0.2582 0.2674 0
M  V30 33 H -0.5664 1.5011 0.4583 0
M  V30 34 H 1.857 0.1219 2.9197 0
M  V30 35 H 0.3591 -0.6982 2.5034 0
M  V30 36 H 0.6202 1.5365 4.0981 0
M  V30 37 H 0.3211 2.3522 2.5827 0
M  V30 38 H -1.3846 -0.4088 4.942 0
M  V30 39 H -4.2429 1.6736 2.6644 0
M  V30 40 H -5.0352 0.4615 5.1876 0
M  V30 41 H -5.0026 -0.8148 3.9528 0
M  V30 42 H -4.0727 -1.0024 5.4486 0
M  V30 END ATOM
M  V30 BEGIN BOND
M  V30 1 1 1 2
M  V30 2 2 2 3
M  V30 3 1 2 4
M  V30 4 1 3 5
M  V30 5 2 4 6
M  V30 6 1 5 7
M  V30 7 2 5 8
M  V30 8 1 7 9
M  V30 9 1 7 10
M  V30 10 1 9 11
M  V30 11 1 10 12
M  V30 12 1 11 13
M  V30 13 1 13 14
M  V30 14 1 14 15
M  V30 15 1 15 16
M  V30 16 2 16 17
M  V30 17 1 16 18
M  V30 18 1 17 19
M  V30 19 2 18 20
M  V30 20 1 20 21
M  V30 21 1 6 8
M  V30 22 1 12 13
M  V30 23 1 19 20
M  V30 24 1 3 22
M  V30 25 1 4 23
M  V30 26 1 6 24
M  V30 27 1 8 25
M  V30 28 1 9 26
M  V30 29 1 9 27
M  V30 30 1 10 28
M  V30 31 1 10 29
M  V30 32 1 11 30
M  V30 33 1 11 31
M  V30 34 1 12 32
M  V30 35 1 12 33
M  V30 36 1 14 34
M  V30 37 1 14 35
M  V30 38 1 15 36
M  V30 39 1 15 37
M  V30 40 1 18 38
M  V30 41 1 19 39
M  V30 42 1 21 40
M  V30 43 1 21 41
M  V30 44 1 21 42
M  V30 END BOND
M  V30 END CTAB
M  END
>  <NO.>
2178

>  <Name>
mepiprazole

>  <SMILES>
Cc1cc(CCN2CCN(c3cccc(Cl)c3)CC2)n[nH]1

>  <logBB>


>  <Class>
1

>  <MW>
304.15

>  <nHBAcc>
3

>  <nHBDon>
1

>  <SLogP>
2.74

>  <TopoPSA>
35.16

>  <MMFF94 Energy>
113.89

$$$$
Cc1cc(N(C)C)ccc1C[C@H](C)N
Actelion Java MolfileCreator 2.0

  0  0  0  0  0  0              0 V3000
M  V30 BEGIN CTAB
M  V30 COUNTS 34 34 0 0 0
M  V30 BEGIN ATOM
M  V30 1 N -1.0822 -2.9396 0.7729 0
M  V30 2 C -0.8416 -1.6067 0.4574 0
M  V30 3 C -0.9555 -3.9876 -0.2312 0
M  V30 4 C -1.457 -3.3375 2.1237 0
M  V30 5 C -0.4855 -1.1942 -0.8386 0
M  V30 6 C -0.9455 -0.5845 1.4084 0
M  V30 7 C -0.2317 0.1535 -1.1866 0
M  V30 8 C -0.697 0.7579 1.0927 0
M  V30 9 C -0.3193 1.1481 -0.1985 0
M  V30 10 C 0.1017 0.4671 -2.6203 0
M  V30 11 C -0.0497 2.6164 -0.4677 0
M  V30 12 C 1.334 3.1675 -0.036 0 CFG=1
M  V30 13 N 1.5934 3.0627 1.4047 0
M  V30 14 C 2.4977 2.5323 -0.7931 0
M  V30 15 H -1.6633 -3.8288 -1.0523 0
M  V30 16 H -1.1687 -4.9795 0.182 0
M  V30 17 H 0.0639 -4.0243 -0.6308 0
M  V30 18 H -0.6692 -3.0781 2.8396 0
M  V30 19 H -1.6144 -4.4187 2.204 0
M  V30 20 H -2.3953 -2.8589 2.4256 0
M  V30 21 H -0.4021 -1.9355 -1.629 0
M  V30 22 H -1.228 -0.8041 2.4336 0
M  V30 23 H -0.8106 1.5002 1.8797 0
M  V30 24 H -0.64 1.1523 -3.0425 0
M  V30 25 H 0.0978 -0.4341 -3.2428 0
M  V30 26 H 1.0981 0.9074 -2.6987 0
M  V30 27 H -0.1977 2.8373 -1.5313 0
M  V30 28 H -0.8325 3.1982 0.0401 0
M  V30 29 H 1.3368 4.2381 -0.2766 0
M  V30 30 H 0.7954 3.4256 1.9229 0
M  V30 31 H 1.6692 2.0755 1.6558 0
M  V30 32 H 2.5803 1.4584 -0.5955 0
M  V30 33 H 2.3807 2.6783 -1.8717 0
M  V30 34 H 3.4486 2.9963 -0.5061 0
M  V30 END ATOM
M  V30 BEGIN BOND
M  V30 1 1 1 2
M  V30 2 1 1 3
M  V30 3 1 1 4
M  V30 4 2 2 5
M  V30 5 1 2 6
M  V30 6 1 5 7
M  V30 7 2 6 8
M  V30 8 2 7 9
M  V30 9 1 7 10
M  V30 10 1 9 11
M  V30 11 1 11 12
M  V30 12 1 12 13
M  V30 13 1 12 14
M  V30 14 1 8 9
M  V30 15 1 3 15
M  V30 16 1 3 16
M  V30 17 1 3 17
M  V30 18 1 4 18
M  V30 19 1 4 19
M  V30 20 1 4 20
M  V30 21 1 5 21
M  V30 22 1 6 22
M  V30 23 1 8 23
M  V30 24 1 10 24
M  V30 25 1 10 25
M  V30 26 1 10 26
M  V30 27 1 11 27
M  V30 28 1 11 28
M  V30 29 1 12 29
M  V30 30 1 13 30
M  V30 31 1 13 31
M  V30 32 1 14 32
M  V30 33 1 14 33
M  V30 34 1 14 34
M  V30 END BOND
M  V30 BEGIN COLLECTION
M  V30 MDLV30/STEABS ATOMS=(1 12)
M  V30 END COLLECTION
M  V30 END CTAB
M  END
>  <NO.>
2179

>  <Name>
amiflamine

>  <SMILES>
Cc1cc(N(C)C)ccc1C[C@H](C)N

>  <logBB>


>  <Class>
1

>  <MW>
192.16

>  <nHBAcc>
2

>  <nHBDon>
1

>  <SLogP>
1.95

>  <TopoPSA>
29.26

>  <MMFF94 Energy>
38.394

$$$$
Cc1cc(NC(=O)C2=C(O)c3ccccc3S(=O)(=O)N2C)no1
Actelion Java MolfileCreator 2.0

  0  0  0  0  0  0              0 V3000
M  V30 BEGIN CTAB
M  V30 COUNTS 36 38 0 0 0
M  V30 BEGIN ATOM
M  V30 1 S -0.245 0.0 2.7798 0
M  V30 2 O -0.148 -1.4211 2.5234 0
M  V30 3 O 0.3656 0.6067 3.9436 0
M  V30 4 N 0.3355 0.808 1.4082 0
M  V30 5 C -1.9388 0.4657 2.7525 0
M  V30 6 C -0.4044 0.5043 0.212 0
M  V30 7 C 1.7811 1.0799 1.3921 0
M  V30 8 C -2.5176 0.7409 1.5099 0
M  V30 9 C -2.6383 0.6176 3.9543 0
M  V30 10 C -1.7537 0.5552 0.2567 0
M  V30 11 C 0.2695 0.1663 -1.0798 0
M  V30 12 C -3.8595 1.1491 1.4989 0
M  V30 13 C -3.967 1.031 3.918 0
M  V30 14 O -2.5543 0.4013 -0.8668 0
M  V30 15 O -0.1487 0.6432 -2.1319 0
M  V30 16 N 1.2733 -0.7559 -0.9405 0
M  V30 17 C -4.5772 1.2944 2.6921 0
M  V30 18 C 2.0759 -1.2171 -1.9584 0
M  V30 19 N 3.0542 -2.0857 -1.6825 0
M  V30 20 C 2.0514 -0.9047 -3.3349 0
M  V30 21 O 3.678 -2.3545 -2.8864 0
M  V30 22 C 3.0737 -1.6447 -3.8747 0
M  V30 23 C 3.6175 -1.8153 -5.2325 0
M  V30 24 H 2.0478 1.7305 2.2309 0
M  V30 25 H 2.0681 1.6145 0.4811 0
M  V30 26 H 2.362 0.1563 1.4629 0
M  V30 27 H -2.1551 0.4189 4.9084 0
M  V30 28 H -4.3631 1.3592 0.5567 0
M  V30 29 H -4.5278 1.15 4.8422 0
M  V30 30 H -1.9979 0.4861 -1.6713 0
M  V30 31 H 1.4378 -1.2049 -0.0472 0
M  V30 32 H -5.6166 1.614 2.6605 0
M  V30 33 H 1.3875 -0.2395 -3.8661 0
M  V30 34 H 4.6692 -1.5149 -5.2652 0
M  V30 35 H 3.0668 -1.2057 -5.9556 0
M  V30 36 H 3.5467 -2.8614 -5.5456 0
M  V30 END ATOM
M  V30 BEGIN BOND
M  V30 1 2 1 2
M  V30 2 2 1 3
M  V30 3 1 1 4
M  V30 4 1 1 5
M  V30 5 1 4 6
M  V30 6 1 4 7
M  V30 7 2 5 8
M  V30 8 1 5 9
M  V30 9 2 6 10
M  V30 10 1 6 11
M  V30 11 1 8 12
M  V30 12 2 9 13
M  V30 13 1 10 14
M  V30 14 2 11 15
M  V30 15 1 11 16
M  V30 16 2 12 17
M  V30 17 1 16 18
M  V30 18 2 18 19
M  V30 19 1 18 20
M  V30 20 1 19 21
M  V30 21 2 20 22
M  V30 22 1 22 23
M  V30 23 1 8 10
M  V30 24 1 13 17
M  V30 25 1 21 22
M  V30 26 1 7 24
M  V30 27 1 7 25
M  V30 28 1 7 26
M  V30 29 1 9 27
M  V30 30 1 12 28
M  V30 31 1 13 29
M  V30 32 1 14 30
M  V30 33 1 16 31
M  V30 34 1 17 32
M  V30 35 1 20 33
M  V30 36 1 23 34
M  V30 37 1 23 35
M  V30 38 1 23 36
M  V30 END BOND
M  V30 END CTAB
M  END
>  <NO.>
2180

>  <Name>
brl52580

>  <SMILES>
Cc1cc(NC(=O)C2=C(O)c3ccccc3S(=O)(=O)N2C)no1

>  <logBB>


>  <Class>
-1

>  <MW>
335.06

>  <nHBAcc>
6

>  <nHBDon>
2

>  <SLogP>
1.48

>  <TopoPSA>
112.74

>  <MMFF94 Energy>
-18.086

$$$$
Cc1cc(NC(=O)c2c(C)cccc2C)no1
Actelion Java MolfileCreator 2.0

  0  0  0  0  0  0              0 V3000
M  V30 BEGIN CTAB
M  V30 COUNTS 31 32 0 0 0
M  V30 BEGIN ATOM
M  V30 1 O 0.7106 -0.9475 1.1845 0
M  V30 2 C 0.0805 -0.1693 0.4817 0
M  V30 3 N 0.152 -0.0276 -0.8816 0
M  V30 4 C -0.8754 0.771 1.1159 0
M  V30 5 C 0.9531 -0.7753 -1.7133 0
M  V30 6 C -2.2625 0.5447 0.9964 0
M  V30 7 C -0.3733 1.8841 1.8203 0
M  V30 8 N 0.9299 -0.5519 -3.0321 0
M  V30 9 C 1.8568 -1.811 -1.3923 0
M  V30 10 C -3.1438 1.4722 1.5682 0
M  V30 11 C -2.8178 -0.6471 0.2672 0
M  V30 12 C -1.2836 2.7813 2.3941 0
M  V30 13 C 1.1031 2.1172 1.9823 0
M  V30 14 O 1.8264 -1.447 -3.5866 0
M  V30 15 C 2.3796 -2.1997 -2.5999 0
M  V30 16 C -2.6574 2.5798 2.2625 0
M  V30 17 C 3.3639 -3.2113 -3.0181 0
M  V30 18 H -0.4039 0.6719 -1.3544 0
M  V30 19 H 2.0953 -2.2183 -0.4213 0
M  V30 20 H -4.2202 1.333 1.487 0
M  V30 21 H -2.2985 -1.5634 0.5655 0
M  V30 22 H -3.8787 -0.7937 0.4973 0
M  V30 23 H -2.7228 -0.5077 -0.8137 0
M  V30 24 H -0.9287 3.6468 2.9503 0
M  V30 25 H 1.6007 2.1292 1.0074 0
M  V30 26 H 1.305 3.082 2.46 0
M  V30 27 H 1.5439 1.3364 2.6098 0
M  V30 28 H -3.3529 3.2858 2.7108 0
M  V30 29 H 4.2094 -2.7372 -3.5256 0
M  V30 30 H 2.9071 -3.9301 -3.7052 0
M  V30 31 H 3.7506 -3.7633 -2.1559 0
M  V30 END ATOM
M  V30 BEGIN BOND
M  V30 1 2 1 2
M  V30 2 1 2 3
M  V30 3 1 2 4
M  V30 4 1 3 5
M  V30 5 2 4 6
M  V30 6 1 4 7
M  V30 7 2 5 8
M  V30 8 1 5 9
M  V30 9 1 6 10
M  V30 10 1 6 11
M  V30 11 2 7 12
M  V30 12 1 7 13
M  V30 13 1 8 14
M  V30 14 2 9 15
M  V30 15 2 10 16
M  V30 16 1 15 17
M  V30 17 1 12 16
M  V30 18 1 14 15
M  V30 19 1 3 18
M  V30 20 1 9 19
M  V30 21 1 10 20
M  V30 22 1 11 21
M  V30 23 1 11 22
M  V30 24 1 11 23
M  V30 25 1 12 24
M  V30 26 1 13 25
M  V30 27 1 13 26
M  V30 28 1 13 27
M  V30 29 1 16 28
M  V30 30 1 17 29
M  V30 31 1 17 30
M  V30 32 1 17 31
M  V30 END BOND
M  V30 END CTAB
M  END
>  <NO.>
2181

>  <Name>
soretolide

>  <SMILES>
Cc1cc(NC(=O)c2c(C)cccc2C)no1

>  <logBB>


>  <Class>
1

>  <MW>
230.11

>  <nHBAcc>
3

>  <nHBDon>
1

>  <SLogP>
2.85

>  <TopoPSA>
55.13

>  <MMFF94 Energy>
-0.17209

$$$$
Cc1cc2c(s1)Nc1ccc(F)cc1N=C2N1CCN(C)CC1
Actelion Java MolfileCreator 2.0

  0  0  0  0  0  0              0 V3000
M  V30 BEGIN CTAB
M  V30 COUNTS 42 45 0 0 0
M  V30 BEGIN ATOM
M  V30 1 S 1.134 3.4861 1.4582 0
M  V30 2 C -0.1219 2.3453 1.1714 0
M  V30 3 C 2.2299 2.6599 0.4556 0
M  V30 4 N -1.3343 2.6134 1.6951 0
M  V30 5 C 0.3106 1.2767 0.4141 0
M  V30 6 C 1.6669 1.5075 -0.0406 0
M  V30 7 C 3.5958 3.2045 0.2247 0
M  V30 8 C -2.568 2.0818 1.2833 0
M  V30 9 C -0.4774 0.0869 0.11 0
M  V30 10 C -2.7334 0.9158 0.5103 0
M  V30 11 C -3.7175 2.8297 1.6394 0
M  V30 12 N -1.7659 -0.0241 0.143 0
M  V30 13 N 0.304 -0.9968 -0.2671 0
M  V30 14 C -4.0346 0.5511 0.1169 0
M  V30 15 C -4.996 2.4486 1.2375 0
M  V30 16 C -0.2337 -1.9494 -1.2524 0
M  V30 17 C 1.1774 -1.6485 0.7266 0
M  V30 18 C -5.1413 1.3088 0.4718 0
M  V30 19 C 0.9085 -2.7432 -1.9215 0
M  V30 20 C 2.3 -2.4449 0.0284 0
M  V30 21 F -6.3631 0.9266 0.0779 0
M  V30 22 N 1.7772 -3.4309 -0.9411 0
M  V30 23 C 2.8708 -4.1255 -1.6162 0
M  V30 24 H -1.4002 3.4143 2.3126 0
M  V30 25 H 2.1997 0.829 -0.6961 0
M  V30 26 H 4.1686 2.5532 -0.4437 0
M  V30 27 H 4.1472 3.2841 1.1674 0
M  V30 28 H 3.5463 4.1964 -0.2364 0
M  V30 29 H -3.6155 3.738 2.2297 0
M  V30 30 H -4.1837 -0.3534 -0.4659 0
M  V30 31 H -5.8673 3.0331 1.5126 0
M  V30 32 H -0.7855 -1.4129 -2.0338 0
M  V30 33 H -0.9326 -2.6375 -0.7603 0
M  V30 34 H 0.573 -2.3221 1.3477 0
M  V30 35 H 1.6339 -0.9175 1.4029 0
M  V30 36 H 0.4625 -3.4829 -2.5972 0
M  V30 37 H 1.5047 -2.0543 -2.5352 0
M  V30 38 H 2.8824 -2.9642 0.7989 0
M  V30 39 H 2.9753 -1.7399 -0.4749 0
M  V30 40 H 3.5138 -3.4405 -2.1805 0
M  V30 41 H 3.4918 -4.6603 -0.8891 0
M  V30 42 H 2.4775 -4.8779 -2.3086 0
M  V30 END ATOM
M  V30 BEGIN BOND
M  V30 1 1 1 2
M  V30 2 1 1 3
M  V30 3 1 2 4
M  V30 4 2 2 5
M  V30 5 2 3 6
M  V30 6 1 3 7
M  V30 7 1 4 8
M  V30 8 1 5 9
M  V30 9 2 8 10
M  V30 10 1 8 11
M  V30 11 2 9 12
M  V30 12 1 9 13
M  V30 13 1 10 14
M  V30 14 2 11 15
M  V30 15 1 13 16
M  V30 16 1 13 17
M  V30 17 2 14 18
M  V30 18 1 16 19
M  V30 19 1 17 20
M  V30 20 1 18 21
M  V30 21 1 19 22
M  V30 22 1 22 23
M  V30 23 1 5 6
M  V30 24 1 10 12
M  V30 25 1 15 18
M  V30 26 1 20 22
M  V30 27 1 4 24
M  V30 28 1 6 25
M  V30 29 1 7 26
M  V30 30 1 7 27
M  V30 31 1 7 28
M  V30 32 1 11 29
M  V30 33 1 14 30
M  V30 34 1 15 31
M  V30 35 1 16 32
M  V30 36 1 16 33
M  V30 37 1 17 34
M  V30 38 1 17 35
M  V30 39 1 19 36
M  V30 40 1 19 37
M  V30 41 1 20 38
M  V30 42 1 20 39
M  V30 43 1 23 40
M  V30 44 1 23 41
M  V30 45 1 23 42
M  V30 END BOND
M  V30 END CTAB
M  END
>  <NO.>
2182

>  <Name>
flumezapine

>  <SMILES>
Cc1cc2c(s1)Nc1ccc(F)cc1N=C2N1CCN(C)CC1

>  <logBB>


>  <Class>
1

>  <MW>
330.13

>  <nHBAcc>
5

>  <nHBDon>
1

>  <SLogP>
3.58

>  <TopoPSA>
30.87

>  <MMFF94 Energy>
86.624

$$$$
Cc1ccc(C(C)C)c(OCC2=NCCN2)c1
Actelion Java MolfileCreator 2.0

  0  0  0  0  0  0              0 V3000
M  V30 BEGIN CTAB
M  V30 COUNTS 37 38 0 0 0
M  V30 BEGIN ATOM
M  V30 1 O -0.157 -0.3141 0.5498 0
M  V30 2 C 0.4978 -0.4352 -0.6485 0
M  V30 3 C -0.2166 -1.4605 1.3913 0
M  V30 4 C 0.5481 0.7237 -1.45 0
M  V30 5 C 1.0957 -1.62 -1.1011 0
M  V30 6 C -0.9691 -1.1119 2.6628 0
M  V30 7 C 1.1971 0.6534 -2.6967 0
M  V30 8 C -0.0884 2.034 -0.9998 0
M  V30 9 C 1.7546 -1.6727 -2.3376 0
M  V30 10 N -1.1585 -1.9939 3.6125 0
M  V30 11 N -1.4885 0.1272 2.8909 0
M  V30 12 C 1.7888 -0.5304 -3.1371 0
M  V30 13 C 0.9469 3.1577 -0.8891 0
M  V30 14 C -1.2398 2.4419 -1.9239 0
M  V30 15 C 2.36 -2.9577 -2.8204 0
M  V30 16 C -1.9281 -1.2557 4.6627 0
M  V30 17 C -2.1399 0.1816 4.1612 0
M  V30 18 H -0.7605 -2.2764 0.9013 0
M  V30 19 H 0.7891 -1.7842 1.6828 0
M  V30 20 H 1.0639 -2.5279 -0.5064 0
M  V30 21 H 1.2445 1.5274 -3.3426 0
M  V30 22 H -0.5191 1.9136 8.0E-4 0
M  V30 23 H -1.4066 0.8937 2.2368 0
M  V30 24 H 2.2764 -0.5517 -4.1091 0
M  V30 25 H 1.3791 3.4182 -1.8611 0
M  V30 26 H 0.4873 4.0638 -0.4789 0
M  V30 27 H 1.7681 2.8681 -0.2239 0
M  V30 28 H -0.894 2.6615 -2.9398 0
M  V30 29 H -1.9886 1.6447 -1.9904 0
M  V30 30 H -1.7391 3.3396 -1.5427 0
M  V30 31 H 2.7547 -3.5416 -1.9822 0
M  V30 32 H 1.6055 -3.553 -3.344 0
M  V30 33 H 3.1946 -2.7658 -3.503 0
M  V30 34 H -1.3646 -1.2646 5.6016 0
M  V30 35 H -2.8869 -1.7574 4.8316 0
M  V30 36 H -1.6669 0.9115 4.8246 0
M  V30 37 H -3.2029 0.4185 4.0591 0
M  V30 END ATOM
M  V30 BEGIN BOND
M  V30 1 1 1 2
M  V30 2 1 1 3
M  V30 3 2 2 4
M  V30 4 1 2 5
M  V30 5 1 3 6
M  V30 6 1 4 7
M  V30 7 1 4 8
M  V30 8 2 5 9
M  V30 9 2 6 10
M  V30 10 1 6 11
M  V30 11 2 7 12
M  V30 12 1 8 13
M  V30 13 1 8 14
M  V30 14 1 9 15
M  V30 15 1 10 16
M  V30 16 1 11 17
M  V30 17 1 9 12
M  V30 18 1 16 17
M  V30 19 1 3 18
M  V30 20 1 3 19
M  V30 21 1 5 20
M  V30 22 1 7 21
M  V30 23 1 8 22
M  V30 24 1 11 23
M  V30 25 1 12 24
M  V30 26 1 13 25
M  V30 27 1 13 26
M  V30 28 1 13 27
M  V30 29 1 14 28
M  V30 30 1 14 29
M  V30 31 1 14 30
M  V30 32 1 15 31
M  V30 33 1 15 32
M  V30 34 1 15 33
M  V30 35 1 16 34
M  V30 36 1 16 35
M  V30 37 1 17 36
M  V30 38 1 17 37
M  V30 END BOND
M  V30 END CTAB
M  END
>  <NO.>
2183

>  <Name>
tymazoline

>  <SMILES>
Cc1ccc(C(C)C)c(OCC2=NCCN2)c1

>  <logBB>


>  <Class>
-1

>  <MW>
232.16

>  <nHBAcc>
3

>  <nHBDon>
1

>  <SLogP>
2.5

>  <TopoPSA>
33.62

>  <MMFF94 Energy>
67.353

$$$$
Cc1ccc(C2(O)CCN(CCCC(=O)c3ccc(F)cc3)CC2)cc1
Actelion Java MolfileCreator 2.0

  0  0  0  0  0  0              0 V3000
M  V30 BEGIN CTAB
M  V30 COUNTS 52 54 0 0 0
M  V30 BEGIN ATOM
M  V30 1 F 1.9119 3.3478 -7.2645 0
M  V30 2 C 1.431 2.2904 -6.5986 0
M  V30 3 C 1.5829 1.0171 -7.1321 0
M  V30 4 C 0.7862 2.483 -5.3818 0
M  V30 5 C 1.0805 -0.0841 -6.4355 0
M  V30 6 C 0.2817 1.383 -4.6812 0
M  V30 7 C 0.4262 0.0898 -5.2047 0
M  V30 8 C -0.0937 -1.1226 -4.4982 0
M  V30 9 O 0.0614 -2.2274 -5.015 0
M  V30 10 C -0.7988 -0.9392 -3.1656 0
M  V30 11 C -1.2441 -2.2729 -2.5611 0
M  V30 12 C -2.048 -2.0958 -1.2661 0
M  V30 13 N -1.3543 -1.3098 -0.2287 0
M  V30 14 C -0.2109 -2.048 0.3335 0
M  V30 15 C -2.2995 -0.9725 0.8506 0
M  V30 16 C 0.5315 -1.1944 1.3646 0
M  V30 17 C -1.646 -0.0915 1.9164 0
M  V30 18 C -0.3881 -0.7442 2.5132 0
M  V30 19 O -0.7879 -1.9344 3.2184 0
M  V30 20 C 0.2679 0.185 3.5408 0
M  V30 21 C -0.4297 0.5082 4.7214 0
M  V30 22 C 1.5466 0.7371 3.3747 0
M  V30 23 C 0.126 1.3457 5.6927 0
M  V30 24 C 2.1045 1.5764 4.3469 0
M  V30 25 C 1.4047 1.8775 5.5182 0
M  V30 26 C 1.9916 2.8042 6.5406 0
M  V30 27 H 2.0891 0.8871 -8.0834 0
M  V30 28 H 0.6803 3.4888 -4.9861 0
M  V30 29 H 1.2016 -1.0808 -6.8571 0
M  V30 30 H -0.217 1.5635 -3.7331 0
M  V30 31 H -0.1054 -0.44 -2.4803 0
M  V30 32 H -1.6775 -0.3038 -3.3239 0
M  V30 33 H -1.8749 -2.8071 -3.2835 0
M  V30 34 H -0.3735 -2.9172 -2.3919 0
M  V30 35 H -2.9802 -1.5831 -1.5386 0
M  V30 36 H -2.3366 -3.0823 -0.8803 0
M  V30 37 H 0.5077 -2.294 -0.4554 0
M  V30 38 H -0.5325 -2.9966 0.7828 0
M  V30 39 H -2.7097 -1.8807 1.3118 0
M  V30 40 H -3.1476 -0.4142 0.4345 0
M  V30 41 H 0.954 -0.3255 0.8434 0
M  V30 42 H 1.3702 -1.7834 1.7576 0
M  V30 43 H -2.3959 0.0954 2.6952 0
M  V30 44 H -1.3917 0.8826 1.4769 0
M  V30 45 H -0.1242 -2.0912 3.9135 0
M  V30 46 H -1.4249 0.1004 4.8945 0
M  V30 47 H 2.1417 0.5353 2.4885 0
M  V30 48 H -0.4491 1.5768 6.5867 0
M  V30 49 H 3.0953 1.994 4.1795 0
M  V30 50 H 1.7176 3.8382 6.3096 0
M  V30 51 H 3.0834 2.723 6.5603 0
M  V30 52 H 1.63 2.558 7.5446 0
M  V30 END ATOM
M  V30 BEGIN BOND
M  V30 1 1 1 2
M  V30 2 2 2 3
M  V30 3 1 2 4
M  V30 4 1 3 5
M  V30 5 2 4 6
M  V30 6 2 5 7
M  V30 7 1 7 8
M  V30 8 2 8 9
M  V30 9 1 8 10
M  V30 10 1 10 11
M  V30 11 1 11 12
M  V30 12 1 12 13
M  V30 13 1 13 14
M  V30 14 1 13 15
M  V30 15 1 14 16
M  V30 16 1 15 17
M  V30 17 1 16 18
M  V30 18 1 18 19
M  V30 19 1 18 20
M  V30 20 2 20 21
M  V30 21 1 20 22
M  V30 22 1 21 23
M  V30 23 2 22 24
M  V30 24 2 23 25
M  V30 25 1 25 26
M  V30 26 1 6 7
M  V30 27 1 17 18
M  V30 28 1 24 25
M  V30 29 1 3 27
M  V30 30 1 4 28
M  V30 31 1 5 29
M  V30 32 1 6 30
M  V30 33 1 10 31
M  V30 34 1 10 32
M  V30 35 1 11 33
M  V30 36 1 11 34
M  V30 37 1 12 35
M  V30 38 1 12 36
M  V30 39 1 14 37
M  V30 40 1 14 38
M  V30 41 1 15 39
M  V30 42 1 15 40
M  V30 43 1 16 41
M  V30 44 1 16 42
M  V30 45 1 17 43
M  V30 46 1 17 44
M  V30 47 1 19 45
M  V30 48 1 21 46
M  V30 49 1 22 47
M  V30 50 1 23 48
M  V30 51 1 24 49
M  V30 52 1 26 50
M  V30 53 1 26 51
M  V30 54 1 26 52
M  V30 END BOND
M  V30 END CTAB
M  END
>  <NO.>
2184

>  <Name>
moperone

>  <SMILES>
Cc1ccc(C2(O)CCN(CCCC(=O)c3ccc(F)cc3)CC2)cc1

>  <logBB>


>  <Class>
1

>  <MW>
355.19

>  <nHBAcc>
3

>  <nHBDon>
1

>  <SLogP>
4.08

>  <TopoPSA>
40.54

>  <MMFF94 Energy>
56.6

$$$$
Cc1ccc(CC2=CN=C(NCCSCc3ccc(CN(C)C)o3)NC2)cn1
Actelion Java MolfileCreator 2.0

  0  0  0  0  0  0              0 V3000
M  V30 BEGIN CTAB
M  V30 COUNTS 57 59 0 0 0
M  V30 BEGIN ATOM
M  V30 1 S 3.1775 0.9524 2.2234 0
M  V30 2 C 2.6109 2.6079 2.7343 0
M  V30 3 C 1.7461 0.3584 1.2484 0
M  V30 4 C 1.3122 2.6011 3.4505 0
M  V30 5 C 1.4837 1.1744 -0.0192 0
M  V30 6 O 1.3129 2.0967 4.717 0
M  V30 7 C 0.0445 3.0343 3.1188 0
M  V30 8 N 0.2899 0.7052 -0.7015 0
M  V30 9 C 0.0399 2.199 5.1971 0
M  V30 10 C -0.7776 2.7619 4.2385 0
M  V30 11 C 0.2622 -0.4019 -1.4888 0
M  V30 12 C -0.1985 1.6834 6.5777 0
M  V30 13 N 1.3029 -1.1447 -1.6975 0
M  V30 14 N -0.9727 -0.6171 -2.0074 0
M  V30 15 N 0.1087 2.6734 7.6274 0
M  V30 16 C 1.1226 -2.2374 -2.4991 0
M  V30 17 C -1.2543 -1.7118 -2.9022 0
M  V30 18 C 0.1523 2.016 8.9342 0
M  V30 19 C -0.8634 3.7663 7.6514 0
M  V30 20 C -0.036 -2.5633 -3.0939 0
M  V30 21 C -0.1792 -3.7965 -3.9474 0
M  V30 22 C -0.5332 -3.5048 -5.3817 0
M  V30 23 C -1.7209 -3.9656 -5.9382 0
M  V30 24 C 0.3163 -2.77 -6.2117 0
M  V30 25 N -2.1041 -3.735 -7.2143 0
M  V30 26 C -0.0508 -2.521 -7.5316 0
M  V30 27 C -1.2646 -3.0167 -7.9958 0
M  V30 28 C -1.6881 -2.7649 -9.4116 0
M  V30 29 H 2.5668 3.2584 1.8554 0
M  V30 30 H 3.3806 3.0281 3.391 0
M  V30 31 H 1.9628 -0.681 0.9798 0
M  V30 32 H 0.8574 0.3247 1.8872 0
M  V30 33 H 1.3194 2.2275 0.2285 0
M  V30 34 H 2.3473 1.1405 -0.6939 0
M  V30 35 H -0.2495 3.4912 2.1847 0
M  V30 36 H -0.579 1.1503 -0.4544 0
M  V30 37 H -1.8346 2.9606 4.345 0
M  V30 38 H -1.2329 1.3264 6.6672 0
M  V30 39 H 0.445 0.8026 6.7058 0
M  V30 40 H -1.6916 0.0782 -1.899 0
M  V30 41 H 2.0079 -2.8542 -2.6278 0
M  V30 42 H -2.0682 -2.3128 -2.483 0
M  V30 43 H -1.5921 -1.3048 -3.8608 0
M  V30 44 H 0.923 1.2374 8.9501 0
M  V30 45 H -0.8076 1.558 9.199 0
M  V30 46 H 0.4204 2.733 9.7184 0
M  V30 47 H -1.8864 3.407 7.8118 0
M  V30 48 H -0.8394 4.3427 6.7213 0
M  V30 49 H -0.6225 4.4762 8.4512 0
M  V30 50 H -0.9421 -4.4431 -3.4945 0
M  V30 51 H 0.7452 -4.3888 -3.9428 0
M  V30 52 H -2.4286 -4.5523 -5.3583 0
M  V30 53 H 1.2614 -2.3846 -5.8354 0
M  V30 54 H 0.6021 -1.9485 -8.1822 0
M  V30 55 H -0.9607 -3.1961 -10.1061 0
M  V30 56 H -1.7688 -1.6892 -9.5964 0
M  V30 57 H -2.6634 -3.2194 -9.6134 0
M  V30 END ATOM
M  V30 BEGIN BOND
M  V30 1 1 1 2
M  V30 2 1 1 3
M  V30 3 1 2 4
M  V30 4 1 3 5
M  V30 5 1 4 6
M  V30 6 2 4 7
M  V30 7 1 5 8
M  V30 8 1 6 9
M  V30 9 1 7 10
M  V30 10 1 8 11
M  V30 11 1 9 12
M  V30 12 2 11 13
M  V30 13 1 11 14
M  V30 14 1 12 15
M  V30 15 1 13 16
M  V30 16 1 14 17
M  V30 17 1 15 18
M  V30 18 1 15 19
M  V30 19 2 16 20
M  V30 20 1 20 21
M  V30 21 1 21 22
M  V30 22 2 22 23
M  V30 23 1 22 24
M  V30 24 1 23 25
M  V30 25 2 24 26
M  V30 26 2 25 27
M  V30 27 1 27 28
M  V30 28 2 9 10
M  V30 29 1 17 20
M  V30 30 1 26 27
M  V30 31 1 2 29
M  V30 32 1 2 30
M  V30 33 1 3 31
M  V30 34 1 3 32
M  V30 35 1 5 33
M  V30 36 1 5 34
M  V30 37 1 7 35
M  V30 38 1 8 36
M  V30 39 1 10 37
M  V30 40 1 12 38
M  V30 41 1 12 39
M  V30 42 1 14 40
M  V30 43 1 16 41
M  V30 44 1 17 42
M  V30 45 1 17 43
M  V30 46 1 18 44
M  V30 47 1 18 45
M  V30 48 1 18 46
M  V30 49 1 19 47
M  V30 50 1 19 48
M  V30 51 1 19 49
M  V30 52 1 21 50
M  V30 53 1 21 51
M  V30 54 1 23 52
M  V30 55 1 24 53
M  V30 56 1 26 54
M  V30 57 1 28 55
M  V30 58 1 28 56
M  V30 59 1 28 57
M  V30 END BOND
M  V30 END CTAB
M  END
>  <NO.>
2185

>  <Name>
trimetrexate

>  <SMILES>
Cc1ccc(CC2=CN=C(NCCSCc3ccc(CN(C)C)o3)NC2)cn1

>  <logBB>


>  <Class>
-1

>  <MW>
399.21

>  <nHBAcc>
7

>  <nHBDon>
2

>  <SLogP>
2.95

>  <TopoPSA>
65.69

>  <MMFF94 Energy>
-72.477

$$$$
Cc1ccc(Cc2ccccc2)c(N2CCNCC2)c1
Actelion Java MolfileCreator 2.0

  0  0  0  0  0  0              0 V3000
M  V30 BEGIN CTAB
M  V30 COUNTS 42 44 0 0 0
M  V30 BEGIN ATOM
M  V30 1 N -0.6329 1.0287 -0.0791 0
M  V30 2 C -0.8945 -0.1065 -0.8482 0
M  V30 3 C 0.6936 1.6343 -0.2884 0
M  V30 4 C -1.7305 1.9966 0.0598 0
M  V30 5 C -0.8854 -1.3859 -0.259 0
M  V30 6 C -1.1669 0.0021 -2.2234 0
M  V30 7 C 0.9744 2.699 0.7961 0
M  V30 8 C -1.3827 3.0417 1.1444 0
M  V30 9 C -1.1571 -2.5143 -1.0547 0
M  V30 10 C -0.5994 -1.5811 1.2173 0
M  V30 11 C -1.4209 -1.1247 -3.0166 0
M  V30 12 N -0.0895 3.7192 0.9177 0
M  V30 13 C -1.4272 -2.3845 -2.4171 0
M  V30 14 C 0.859 -1.4969 1.6195 0
M  V30 15 C -1.739 -0.9702 -4.4736 0
M  V30 16 C 1.8485 -2.2337 0.9525 0
M  V30 17 C 1.236 -0.7044 2.7145 0
M  V30 18 C 3.1836 -2.1604 1.3556 0
M  V30 19 C 2.5708 -0.6323 3.1175 0
M  V30 20 C 3.5446 -1.359 2.4366 0
M  V30 21 H 1.4803 0.8719 -0.2457 0
M  V30 22 H 0.7389 2.1057 -1.2788 0
M  V30 23 H -2.6553 1.4835 0.3505 0
M  V30 24 H -1.9125 2.5094 -0.893 0
M  V30 25 H -1.1732 0.9873 -2.6844 0
M  V30 26 H 1.9179 3.2046 0.5635 0
M  V30 27 H 1.1057 2.2072 1.7674 0
M  V30 28 H -2.1734 3.7992 1.1767 0
M  V30 29 H -1.364 2.5537 2.1274 0
M  V30 30 H -1.1601 -3.5072 -0.6103 0
M  V30 31 H -0.9767 -2.56 1.5428 0
M  V30 32 H -1.1952 -0.8517 1.7824 0
M  V30 33 H 0.117 4.3142 1.7186 0
M  V30 34 H -1.6396 -3.274 -3.0052 0
M  V30 35 H -2.8135 -0.8109 -4.6073 0
M  V30 36 H -1.4412 -1.8614 -5.0361 0
M  V30 37 H -1.1981 -0.1203 -4.903 0
M  V30 38 H 1.5875 -2.8657 0.1072 0
M  V30 39 H 0.4873 -0.1295 3.2551 0
M  V30 40 H 3.9406 -2.7309 0.8243 0
M  V30 41 H 2.8489 -0.0101 3.9639 0
M  V30 42 H 4.5837 -1.3042 2.7496 0
M  V30 END ATOM
M  V30 BEGIN BOND
M  V30 1 1 1 2
M  V30 2 1 1 3
M  V30 3 1 1 4
M  V30 4 2 2 5
M  V30 5 1 2 6
M  V30 6 1 3 7
M  V30 7 1 4 8
M  V30 8 1 5 9
M  V30 9 1 5 10
M  V30 10 2 6 11
M  V30 11 1 7 12
M  V30 12 2 9 13
M  V30 13 1 10 14
M  V30 14 1 11 15
M  V30 15 2 14 16
M  V30 16 1 14 17
M  V30 17 1 16 18
M  V30 18 2 17 19
M  V30 19 2 18 20
M  V30 20 1 8 12
M  V30 21 1 11 13
M  V30 22 1 19 20
M  V30 23 1 3 21
M  V30 24 1 3 22
M  V30 25 1 4 23
M  V30 26 1 4 24
M  V30 27 1 6 25
M  V30 28 1 7 26
M  V30 29 1 7 27
M  V30 30 1 8 28
M  V30 31 1 8 29
M  V30 32 1 9 30
M  V30 33 1 10 31
M  V30 34 1 10 32
M  V30 35 1 12 33
M  V30 36 1 13 34
M  V30 37 1 15 35
M  V30 38 1 15 36
M  V30 39 1 15 37
M  V30 40 1 16 38
M  V30 41 1 17 39
M  V30 42 1 18 40
M  V30 43 1 19 41
M  V30 44 1 20 42
M  V30 END BOND
M  V30 END CTAB
M  END
>  <NO.>
2186

>  <Name>
delfaprazine

>  <SMILES>
Cc1ccc(Cc2ccccc2)c(N2CCNCC2)c1

>  <logBB>


>  <Class>
1

>  <MW>
266.18

>  <nHBAcc>
2

>  <nHBDon>
1

>  <SLogP>
3

>  <TopoPSA>
15.27

>  <MMFF94 Energy>
128.48

$$$$
Cc1ccc(S(=O)(=O)CCN2C(=O)CN=C(c3ccccc3Cl)c3cc(Cl)ccc32)cc1
Actelion Java MolfileCreator 2.0

  0  0  0  0  0  0              0 V3000
M  V30 BEGIN CTAB
M  V30 COUNTS 52 55 0 0 0
M  V30 BEGIN ATOM
M  V30 1 Cl 2.7288 1.405 -5.2973 0
M  V30 2 C 2.3501 -0.2262 -4.8784 0
M  V30 3 C 2.0446 -0.614 -3.5691 0
M  V30 4 C 2.3004 -1.1734 -5.9044 0
M  V30 5 C 2.0952 0.343 -2.4361 0
M  V30 6 C 1.6991 -1.9419 -3.2852 0
M  V30 7 C 1.9531 -2.4972 -5.6231 0
M  V30 8 N 3.2603 0.7517 -2.0636 0
M  V30 9 C 0.8051 0.7382 -1.8022 0
M  V30 10 C 1.653 -2.8808 -4.3158 0
M  V30 11 C 3.3459 1.6729 -0.9293 0
M  V30 12 C 0.6551 0.8178 -0.4036 0
M  V30 13 C -0.2754 1.046 -2.6475 0
M  V30 14 C 3.0249 0.902 0.3422 0
M  V30 15 N 1.7004 0.4902 0.5094 0
M  V30 16 C -0.5881 1.222 0.1134 0
M  V30 17 C -1.4994 1.4287 -2.1069 0
M  V30 18 O 3.8899 0.6669 1.1889 0
M  V30 19 C 1.3923 -0.3791 1.6533 0
M  V30 20 C -1.6605 1.52 -0.7303 0
M  V30 21 Cl -2.817 1.7991 -3.1471 0
M  V30 22 C 1.4202 0.3573 2.9845 0
M  V30 23 S 0.5446 -0.5417 4.2452 0
M  V30 24 O 0.738 0.1407 5.5102 0
M  V30 25 O 0.8496 -1.9526 4.106 0
M  V30 26 C -1.1644 -0.3117 3.8016 0
M  V30 27 C -1.785 0.9051 4.0952 0
M  V30 28 C -1.8699 -1.3413 3.1766 0
M  V30 29 C -3.1136 1.1057 3.7192 0
M  V30 30 C -3.1979 -1.1321 2.8023 0
M  V30 31 C -3.8233 0.0971 3.0536 0
M  V30 32 C -5.2641 0.3021 2.6848 0
M  V30 33 H 2.5309 -0.887 -6.9279 0
M  V30 34 H 1.4868 -2.2528 -2.2652 0
M  V30 35 H 1.9218 -3.2312 -6.4254 0
M  V30 36 H 1.394 -3.9148 -4.0991 0
M  V30 37 H 4.3739 2.0439 -0.8562 0
M  V30 38 H 2.6998 2.5506 -1.0407 0
M  V30 39 H -0.1674 1.0081 -3.7286 0
M  V30 40 H -0.7453 1.3256 1.1826 0
M  V30 41 H 2.1449 -1.1784 1.6751 0
M  V30 42 H 0.4365 -0.881 1.4711 0
M  V30 43 H -2.613 1.8267 -0.3039 0
M  V30 44 H 0.981 1.3578 2.9222 0
M  V30 45 H 2.4481 0.4741 3.343 0
M  V30 46 H -1.2505 1.6929 4.6225 0
M  V30 47 H -1.4029 -2.3042 2.9811 0
M  V30 48 H -3.5986 2.0507 3.9586 0
M  V30 49 H -3.7482 -1.9386 2.3208 0
M  V30 50 H -5.9101 -0.0132 3.5098 0
M  V30 51 H -5.4632 1.3554 2.4609 0
M  V30 52 H -5.5234 -0.274 1.7905 0
M  V30 END ATOM
M  V30 BEGIN BOND
M  V30 1 1 1 2
M  V30 2 2 2 3
M  V30 3 1 2 4
M  V30 4 1 3 5
M  V30 5 1 3 6
M  V30 6 2 4 7
M  V30 7 2 5 8
M  V30 8 1 5 9
M  V30 9 2 6 10
M  V30 10 1 8 11
M  V30 11 2 9 12
M  V30 12 1 9 13
M  V30 13 1 11 14
M  V30 14 1 12 15
M  V30 15 1 12 16
M  V30 16 2 13 17
M  V30 17 2 14 18
M  V30 18 1 15 19
M  V30 19 2 16 20
M  V30 20 1 17 21
M  V30 21 1 19 22
M  V30 22 1 22 23
M  V30 23 2 23 24
M  V30 24 2 23 25
M  V30 25 1 23 26
M  V30 26 2 26 27
M  V30 27 1 26 28
M  V30 28 1 27 29
M  V30 29 2 28 30
M  V30 30 2 29 31
M  V30 31 1 31 32
M  V30 32 1 7 10
M  V30 33 1 14 15
M  V30 34 1 17 20
M  V30 35 1 30 31
M  V30 36 1 4 33
M  V30 37 1 6 34
M  V30 38 1 7 35
M  V30 39 1 10 36
M  V30 40 1 11 37
M  V30 41 1 11 38
M  V30 42 1 13 39
M  V30 43 1 16 40
M  V30 44 1 19 41
M  V30 45 1 19 42
M  V30 46 1 20 43
M  V30 47 1 22 44
M  V30 48 1 22 45
M  V30 49 1 27 46
M  V30 50 1 28 47
M  V30 51 1 29 48
M  V30 52 1 30 49
M  V30 53 1 32 50
M  V30 54 1 32 51
M  V30 55 1 32 52
M  V30 END BOND
M  V30 END CTAB
M  END
>  <NO.>
2187

>  <Name>
tolufazepam

>  <SMILES>
Cc1ccc(S(=O)(=O)CCN2C(=O)CN=C(c3ccccc3Cl)c3cc(Cl)ccc32)cc1

>  <logBB>


>  <Class>
1

>  <MW>
486.06

>  <nHBAcc>
4

>  <nHBDon>
0

>  <SLogP>
4.96

>  <TopoPSA>
66.81

>  <MMFF94 Energy>
136.93

$$$$
Cc1ccc(S(=O)(=O)NC(=O)NN2CCCCCC2)cc1
Actelion Java MolfileCreator 2.0

  0  0  0  0  0  0              0 V3000
M  V30 BEGIN CTAB
M  V30 COUNTS 42 43 0 0 0
M  V30 BEGIN ATOM
M  V30 1 S 0.08 2.6428 0.32 0
M  V30 2 O 1.4741 2.7313 0.7083 0
M  V30 3 O -0.5723 3.7564 -0.332 0
M  V30 4 N -0.0414 1.2993 -0.6196 0
M  V30 5 C -0.8431 2.2015 1.7706 0
M  V30 6 C -1.192 0.7807 -1.1891 0
M  V30 7 C -2.1873 2.5651 1.8743 0
M  V30 8 C -0.2038 1.5347 2.8193 0
M  V30 9 O -2.3089 1.2579 -1.0558 0
M  V30 10 N -0.9762 -0.3634 -1.9256 0
M  V30 11 C -2.9024 2.2378 3.0277 0
M  V30 12 C -0.9242 1.2121 3.9711 0
M  V30 13 N 0.3101 -0.9382 -2.0665 0
M  V30 14 C -2.2746 1.5697 4.088 0
M  V30 15 C 0.3325 -2.2865 -1.483 0
M  V30 16 C 0.7645 -0.8693 -3.4613 0
M  V30 17 C -3.0552 1.1939 5.3135 0
M  V30 18 C 1.6082 -3.0971 -1.7198 0
M  V30 19 C 2.2797 -1.0688 -3.655 0
M  V30 20 C 2.91 -2.3279 -1.4986 0
M  V30 21 C 3.1003 -1.0758 -2.3638 0
M  V30 22 H 0.8113 0.7761 -0.787 0
M  V30 23 H -2.6847 3.0887 1.0598 0
M  V30 24 H 0.8479 1.2675 2.7501 0
M  V30 25 H -1.7908 -0.7754 -2.37 0
M  V30 26 H -3.9537 2.5111 3.0943 0
M  V30 27 H -0.4241 0.6863 4.7819 0
M  V30 28 H 0.1904 -2.1868 -0.3989 0
M  V30 29 H -0.5154 -2.877 -1.8556 0
M  V30 30 H 0.5296 0.1299 -3.8539 0
M  V30 31 H 0.2084 -1.574 -4.0933 0
M  V30 32 H -2.4087 1.1721 6.1972 0
M  V30 33 H -3.8486 1.9229 5.5101 0
M  V30 34 H -3.5068 0.206 5.1806 0
M  V30 35 H 1.5969 -3.9627 -1.0451 0
M  V30 36 H 1.5947 -3.5183 -2.7324 0
M  V30 37 H 2.6521 -0.2567 -4.2927 0
M  V30 38 H 2.4638 -1.9947 -4.2131 0
M  V30 39 H 3.0042 -2.0497 -0.4417 0
M  V30 40 H 3.7402 -3.0163 -1.7032 0
M  V30 41 H 4.1647 -0.9918 -2.6168 0
M  V30 42 H 2.8697 -0.1797 -1.7739 0
M  V30 END ATOM
M  V30 BEGIN BOND
M  V30 1 2 1 2
M  V30 2 2 1 3
M  V30 3 1 1 4
M  V30 4 1 1 5
M  V30 5 1 4 6
M  V30 6 2 5 7
M  V30 7 1 5 8
M  V30 8 2 6 9
M  V30 9 1 6 10
M  V30 10 1 7 11
M  V30 11 2 8 12
M  V30 12 1 10 13
M  V30 13 2 11 14
M  V30 14 1 13 15
M  V30 15 1 13 16
M  V30 16 1 14 17
M  V30 17 1 15 18
M  V30 18 1 16 19
M  V30 19 1 18 20
M  V30 20 1 19 21
M  V30 21 1 12 14
M  V30 22 1 20 21
M  V30 23 1 4 22
M  V30 24 1 7 23
M  V30 25 1 8 24
M  V30 26 1 10 25
M  V30 27 1 11 26
M  V30 28 1 12 27
M  V30 29 1 15 28
M  V30 30 1 15 29
M  V30 31 1 16 30
M  V30 32 1 16 31
M  V30 33 1 17 32
M  V30 34 1 17 33
M  V30 35 1 17 34
M  V30 36 1 18 35
M  V30 37 1 18 36
M  V30 38 1 19 37
M  V30 39 1 19 38
M  V30 40 1 20 39
M  V30 41 1 20 40
M  V30 42 1 21 41
M  V30 43 1 21 42
M  V30 END BOND
M  V30 END CTAB
M  END
>  <NO.>
2188

>  <Name>
tolazamide

>  <SMILES>
Cc1ccc(S(=O)(=O)NC(=O)NN2CCCCCC2)cc1

>  <logBB>


>  <Class>
-1

>  <MW>
311.13

>  <nHBAcc>
4

>  <nHBDon>
2

>  <SLogP>
1.77

>  <TopoPSA>
78.51

>  <MMFF94 Energy>
-85.079

$$$$
Cc1ccc2c(c1)C(N1CCN(C)CC1)=Nc1ccccc1S2
Actelion Java MolfileCreator 2.0

  0  0  0  0  0  0              0 V3000
M  V30 BEGIN CTAB
M  V30 COUNTS 44 47 0 0 0
M  V30 BEGIN ATOM
M  V30 1 S 2.5129 0.4049 1.1342 0
M  V30 2 C 2.8173 0.7513 -0.5947 0
M  V30 3 C 1.0205 1.3651 1.3109 0
M  V30 4 C 1.859 0.5073 -1.5949 0
M  V30 5 C 4.0497 1.3337 -0.9319 0
M  V30 6 C -0.1047 1.1902 0.4994 0
M  V30 7 C 0.9998 2.3707 2.2871 0
M  V30 8 N 0.664 -0.202 -1.4006 0
M  V30 9 C 2.1643 0.8634 -2.9156 0
M  V30 10 C 4.3297 1.6892 -2.2514 0
M  V30 11 C -0.2192 0.0584 -0.4752 0
M  V30 12 C -1.2202 2.0333 0.6438 0
M  V30 13 C -0.1141 3.2033 2.4347 0
M  V30 14 C 3.3836 1.4586 -3.2443 0
M  V30 15 N -1.3563 -0.7509 -0.3989 0
M  V30 16 C -1.2356 3.0389 1.617 0
M  V30 17 C -1.6795 -1.6912 -1.4872 0
M  V30 18 C -1.9052 -1.2113 0.8889 0
M  V30 19 C -2.4149 3.957 1.7428 0
M  V30 20 C -1.1274 -3.0941 -1.1526 0
M  V30 21 C -1.3596 -2.6235 1.2127 0
M  V30 22 N -1.6501 -3.6054 0.1406 0
M  V30 23 C -1.0499 -4.9002 0.4552 0
M  V30 24 H 4.7951 1.5262 -0.1637 0
M  V30 25 H 1.8634 2.5301 2.9298 0
M  V30 26 H 1.4398 0.6535 -3.6988 0
M  V30 27 H 5.2842 2.1444 -2.5019 0
M  V30 28 H -2.082 1.8887 -0.0054 0
M  V30 29 H -0.0938 3.9873 3.1893 0
M  V30 30 H 3.5958 1.7251 -4.2761 0
M  V30 31 H -1.2903 -1.3469 -2.452 0
M  V30 32 H -2.7702 -1.742 -1.599 0
M  V30 33 H -2.9999 -1.2415 0.8218 0
M  V30 34 H -1.6597 -0.5374 1.7152 0
M  V30 35 H -3.343 3.4378 1.4817 0
M  V30 36 H -2.5227 4.3165 2.7717 0
M  V30 37 H -2.2913 4.8178 1.0786 0
M  V30 38 H -1.4202 -3.7799 -1.9563 0
M  V30 39 H -0.0303 -3.057 -1.1312 0
M  V30 40 H -1.8198 -2.9626 2.1484 0
M  V30 41 H -0.2764 -2.5552 1.3823 0
M  V30 42 H 0.0404 -4.8428 0.5494 0
M  V30 43 H -1.4565 -5.2925 1.3939 0
M  V30 44 H -1.2904 -5.6329 -0.3228 0
M  V30 END ATOM
M  V30 BEGIN BOND
M  V30 1 1 1 2
M  V30 2 1 1 3
M  V30 3 2 2 4
M  V30 4 1 2 5
M  V30 5 2 3 6
M  V30 6 1 3 7
M  V30 7 1 4 8
M  V30 8 1 4 9
M  V30 9 2 5 10
M  V30 10 1 6 11
M  V30 11 1 6 12
M  V30 12 2 7 13
M  V30 13 2 9 14
M  V30 14 1 11 15
M  V30 15 2 12 16
M  V30 16 1 15 17
M  V30 17 1 15 18
M  V30 18 1 16 19
M  V30 19 1 17 20
M  V30 20 1 18 21
M  V30 21 1 20 22
M  V30 22 1 22 23
M  V30 23 2 8 11
M  V30 24 1 10 14
M  V30 25 1 13 16
M  V30 26 1 21 22
M  V30 27 1 5 24
M  V30 28 1 7 25
M  V30 29 1 9 26
M  V30 30 1 10 27
M  V30 31 1 12 28
M  V30 32 1 13 29
M  V30 33 1 14 30
M  V30 34 1 17 31
M  V30 35 1 17 32
M  V30 36 1 18 33
M  V30 37 1 18 34
M  V30 38 1 19 35
M  V30 39 1 19 36
M  V30 40 1 19 37
M  V30 41 1 20 38
M  V30 42 1 20 39
M  V30 43 1 21 40
M  V30 44 1 21 41
M  V30 45 1 23 42
M  V30 46 1 23 43
M  V30 47 1 23 44
M  V30 END BOND
M  V30 END CTAB
M  END
>  <NO.>
2189

>  <Name>
metiapine

>  <SMILES>
Cc1ccc2c(c1)C(N1CCN(C)CC1)=Nc1ccccc1S2

>  <logBB>


>  <Class>
1

>  <MW>
323.15

>  <nHBAcc>
4

>  <nHBDon>
0

>  <SLogP>
3.79

>  <TopoPSA>
18.84

>  <MMFF94 Energy>
127.16

$$$$
Cc1ccc2c(c1)C1CN(C)CCC1N2
Actelion Java MolfileCreator 2.0

  0  0  0  0  0  0              0 V3000
M  V30 BEGIN CTAB
M  V30 COUNTS 33 35 0 0 0
M  V30 BEGIN ATOM
M  V30 1 N -0.6346 1.5872 2.2226 0
M  V30 2 C -0.9107 0.6078 1.158 0
M  V30 3 C 0.5095 2.4189 1.8191 0
M  V30 4 C -1.813 2.4285 2.4454 0
M  V30 5 C 0.2602 -0.3611 0.9444 0
M  V30 6 C 1.7762 1.5748 1.7609 0
M  V30 7 C 0.2058 -0.9547 -0.4369 0
M  V30 8 C 1.6398 0.3454 0.8756 0
M  V30 9 C 1.1574 -0.3215 -1.2419 0
M  V30 10 C -0.648 -1.9226 -0.9415 0
M  V30 11 N 1.8852 0.6474 -0.5432 0
M  V30 12 C 1.2413 -0.6095 -2.5876 0
M  V30 13 C -0.5588 -2.2439 -2.3025 0
M  V30 14 C 0.3905 -1.5882 -3.1142 0
M  V30 15 C -1.4383 -3.3107 -2.8867 0
M  V30 16 H -1.1657 1.13 0.224 0
M  V30 17 H -1.7956 0.0131 1.4227 0
M  V30 18 H 0.331 2.9082 0.8525 0
M  V30 19 H 0.6698 3.2145 2.5575 0
M  V30 20 H -2.6666 1.8176 2.7599 0
M  V30 21 H -1.6255 3.1439 3.254 0
M  V30 22 H -2.1009 2.9892 1.5486 0
M  V30 23 H 0.2769 -1.1333 1.7222 0
M  V30 24 H 2.6192 2.1959 1.4351 0
M  V30 25 H 2.0111 1.2409 2.7808 0
M  V30 26 H 2.4172 -0.3729 1.1768 0
M  V30 27 H -1.3756 -2.4068 -0.2976 0
M  V30 28 H 2.7927 0.9395 -0.8782 0
M  V30 29 H 1.953 -0.0977 -3.2252 0
M  V30 30 H 0.4647 -1.8358 -4.1711 0
M  V30 31 H -0.9373 -4.2817 -2.8272 0
M  V30 32 H -1.6701 -3.0941 -3.9348 0
M  V30 33 H -2.3908 -3.3705 -2.3495 0
M  V30 END ATOM
M  V30 BEGIN BOND
M  V30 1 1 1 2
M  V30 2 1 1 3
M  V30 3 1 1 4
M  V30 4 1 2 5
M  V30 5 1 3 6
M  V30 6 1 5 7
M  V30 7 1 5 8
M  V30 8 2 7 9
M  V30 9 1 7 10
M  V30 10 1 8 11
M  V30 11 1 9 12
M  V30 12 2 10 13
M  V30 13 2 12 14
M  V30 14 1 13 15
M  V30 15 1 6 8
M  V30 16 1 9 11
M  V30 17 1 13 14
M  V30 18 1 2 16
M  V30 19 1 2 17
M  V30 20 1 3 18
M  V30 21 1 3 19
M  V30 22 1 4 20
M  V30 23 1 4 21
M  V30 24 1 4 22
M  V30 25 1 5 23
M  V30 26 1 6 24
M  V30 27 1 6 25
M  V30 28 1 8 26
M  V30 29 1 10 27
M  V30 30 1 11 28
M  V30 31 1 12 29
M  V30 32 1 14 30
M  V30 33 1 15 31
M  V30 34 1 15 32
M  V30 35 1 15 33
M  V30 END BOND
M  V30 END CTAB
M  END
>  <NO.>
2190

>  <Name>
dicarbine

>  <SMILES>
Cc1ccc2c(c1)C1CN(C)CCC1N2

>  <logBB>


>  <Class>
1

>  <MW>
202.15

>  <nHBAcc>
2

>  <nHBDon>
1

>  <SLogP>
2.21

>  <TopoPSA>
15.27

>  <MMFF94 Energy>
40.873

$$$$
Cc1ccc2c(c1)[C@]13CCCC[C@@H]1[C@H](C2)N(C)CC3
Actelion Java MolfileCreator 2.0

  0  0  0  0  0  0              0 V3000
M  V30 BEGIN CTAB
M  V30 COUNTS 44 47 0 0 0
M  V30 BEGIN ATOM
M  V30 1 N 0.9605 1.6012 -2.1622 0
M  V30 2 C 0.752 0.1375 -2.0322 0 CFG=2
M  V30 3 C 0.7275 2.3418 -0.9172 0
M  V30 4 C 2.2532 1.9486 -2.7448 0
M  V30 5 C -0.7148 -0.0986 -1.6281 0 CFG=2
M  V30 6 C 1.6989 -0.6095 -1.0651 0
M  V30 7 C -0.6544 2.0378 -0.3237 0
M  V30 8 C -0.9448 0.5169 -0.2202 0 CFG=2
M  V30 9 C -1.1466 -1.5764 -1.711 0
M  V30 10 C 1.2878 -0.5821 0.3909 0
M  V30 11 C 0.0389 -0.0739 0.8096 0
M  V30 12 C -2.4421 0.3118 0.143 0
M  V30 13 C -2.6055 -1.7519 -1.2991 0
M  V30 14 C 2.1831 -1.1072 1.3368 0
M  V30 15 C -0.2424 -0.0581 2.1893 0
M  V30 16 C -2.8788 -1.1524 0.076 0
M  V30 17 C 1.8706 -1.1053 2.6941 0
M  V30 18 C 0.6634 -0.5632 3.1334 0
M  V30 19 C 0.3113 -0.571 4.5918 0
M  V30 20 H 0.8967 -0.2902 -3.0335 0
M  V30 21 H 0.7707 3.4193 -1.1215 0
M  V30 22 H 1.5136 2.1406 -0.1795 0
M  V30 23 H 2.4159 1.4078 -3.6834 0
M  V30 24 H 2.281 3.0157 -2.993 0
M  V30 25 H 3.0926 1.7401 -2.0738 0
M  V30 26 H -1.3502 0.4397 -2.3499 0
M  V30 27 H 2.7232 -0.233 -1.16 0
M  V30 28 H 1.7386 -1.6635 -1.3718 0
M  V30 29 H -1.4121 2.5112 -0.9636 0
M  V30 30 H -0.7383 2.5198 0.6589 0
M  V30 31 H -1.0162 -1.9398 -2.7373 0
M  V30 32 H -0.5268 -2.2158 -1.0736 0
M  V30 33 H -3.0631 0.8779 -0.5657 0
M  V30 34 H -2.6856 0.7241 1.1277 0
M  V30 35 H -3.2537 -1.2703 -2.0417 0
M  V30 36 H -2.8634 -2.8169 -1.2963 0
M  V30 37 H 3.1366 -1.5205 1.015 0
M  V30 38 H -1.1762 0.3605 2.5548 0
M  V30 39 H -2.3617 -1.7387 0.8441 0
M  V30 40 H -3.9506 -1.2225 0.2954 0
M  V30 41 H 2.5799 -1.5217 3.4051 0
M  V30 42 H 1.2124 -0.542 5.2133 0
M  V30 43 H -0.2556 -1.4748 4.8347 0
M  V30 44 H -0.2898 0.3065 4.8521 0
M  V30 END ATOM
M  V30 BEGIN BOND
M  V30 1 1 1 2
M  V30 2 1 1 3
M  V30 3 1 1 4
M  V30 4 1 2 5
M  V30 5 1 2 6
M  V30 6 1 3 7
M  V30 7 1 5 8
M  V30 8 1 5 9
M  V30 9 1 6 10
M  V30 10 1 8 11
M  V30 11 1 8 12
M  V30 12 1 9 13
M  V30 13 1 10 14
M  V30 14 1 11 15
M  V30 15 1 12 16
M  V30 16 2 14 17
M  V30 17 2 15 18
M  V30 18 1 18 19
M  V30 19 1 7 8
M  V30 20 2 10 11
M  V30 21 1 13 16
M  V30 22 1 17 18
M  V30 23 1 2 20
M  V30 24 1 3 21
M  V30 25 1 3 22
M  V30 26 1 4 23
M  V30 27 1 4 24
M  V30 28 1 4 25
M  V30 29 1 5 26
M  V30 30 1 6 27
M  V30 31 1 6 28
M  V30 32 1 7 29
M  V30 33 1 7 30
M  V30 34 1 9 31
M  V30 35 1 9 32
M  V30 36 1 12 33
M  V30 37 1 12 34
M  V30 38 1 13 35
M  V30 39 1 13 36
M  V30 40 1 14 37
M  V30 41 1 15 38
M  V30 42 1 16 39
M  V30 43 1 16 40
M  V30 44 1 17 41
M  V30 45 1 19 42
M  V30 46 1 19 43
M  V30 47 1 19 44
M  V30 END BOND
M  V30 BEGIN COLLECTION
M  V30 MDLV30/STEABS ATOMS=(3 2 5 8)
M  V30 END COLLECTION
M  V30 END CTAB
M  END
>  <NO.>
2191

>  <Name>
dimemorfan

>  <SMILES>
Cc1ccc2c(c1)[C@]13CCCC[C@@H]1[C@H](C2)N(C)CC3

>  <logBB>


>  <Class>
1

>  <MW>
255.2

>  <nHBAcc>
1

>  <nHBDon>
0

>  <SLogP>
3.68

>  <TopoPSA>
3.24

>  <MMFF94 Energy>
58.859

$$$$
Cc1ccc2c(c1)c1c3n2CCNC3CCC1
Actelion Java MolfileCreator 2.0

  0  0  0  0  0  0              0 V3000
M  V30 BEGIN CTAB
M  V30 COUNTS 35 38 0 0 0
M  V30 BEGIN ATOM
M  V30 1 N 0.0799 1.1203 -0.56 0
M  V30 2 C -0.1988 0.0147 -1.3298 0
M  V30 3 C 0.4064 0.7351 0.7039 0
M  V30 4 C -0.0831 2.5191 -0.9129 0
M  V30 5 C -0.0986 -1.1025 -0.4853 0
M  V30 6 C -0.5616 -0.1027 -2.6784 0
M  V30 7 C 0.2515 -0.626 0.8113 0
M  V30 8 C 0.7979 1.6826 1.7749 0 CFG=1
M  V30 9 C 0.4574 3.4552 0.1871 0
M  V30 10 C -0.3723 -2.3796 -1.0168 0
M  V30 11 C -0.8155 -1.3838 -3.181 0
M  V30 12 C 0.3834 -1.3334 2.1175 0
M  V30 13 N 0.1603 2.9853 1.5547 0
M  V30 14 C 0.4218 1.0482 3.1309 0
M  V30 15 C -0.7133 -2.5197 -2.3723 0
M  V30 16 C 0.9514 -0.4047 3.2184 0
M  V30 17 C -1.0306 -3.8764 -2.9296 0
M  V30 18 H -1.1581 2.6795 -1.0542 0
M  V30 19 H 0.4381 2.6952 -1.8589 0
M  V30 20 H -0.6505 0.768 -3.319 0
M  V30 21 H 1.8891 1.8081 1.7481 0
M  V30 22 H 1.5433 3.5685 0.0722 0
M  V30 23 H 0.0243 4.4521 0.0485 0
M  V30 24 H -0.3153 -3.2507 -0.3706 0
M  V30 25 H -1.1029 -1.486 -4.2257 0
M  V30 26 H -0.6105 -1.6806 2.4254 0
M  V30 27 H 1.0226 -2.2171 2.0154 0
M  V30 28 H 0.5275 3.6487 2.2343 0
M  V30 29 H 0.842 1.643 3.9506 0
M  V30 30 H -0.6682 1.0367 3.2648 0
M  V30 31 H 0.7206 -0.8268 4.2031 0
M  V30 32 H 2.0458 -0.3814 3.1337 0
M  V30 33 H -0.4533 -4.6536 -2.4179 0
M  V30 34 H -2.0971 -4.0901 -2.8088 0
M  V30 35 H -0.7763 -3.9311 -3.9933 0
M  V30 END ATOM
M  V30 BEGIN BOND
M  V30 1 1 1 2
M  V30 2 1 1 3
M  V30 3 1 1 4
M  V30 4 2 2 5
M  V30 5 1 2 6
M  V30 6 2 3 7
M  V30 7 1 3 8
M  V30 8 1 4 9
M  V30 9 1 5 10
M  V30 10 2 6 11
M  V30 11 1 7 12
M  V30 12 1 8 13
M  V30 13 1 8 14
M  V30 14 2 10 15
M  V30 15 1 12 16
M  V30 16 1 15 17
M  V30 17 1 5 7
M  V30 18 1 9 13
M  V30 19 1 11 15
M  V30 20 1 14 16
M  V30 21 1 4 18
M  V30 22 1 4 19
M  V30 23 1 6 20
M  V30 24 1 8 21
M  V30 25 1 9 22
M  V30 26 1 9 23
M  V30 27 1 10 24
M  V30 28 1 11 25
M  V30 29 1 12 26
M  V30 30 1 12 27
M  V30 31 1 13 28
M  V30 32 1 14 29
M  V30 33 1 14 30
M  V30 34 1 16 31
M  V30 35 1 16 32
M  V30 36 1 17 33
M  V30 37 1 17 34
M  V30 38 1 17 35
M  V30 END BOND
M  V30 BEGIN COLLECTION
M  V30 MDLV30/STERAC1 ATOMS=(1 8)
M  V30 END COLLECTION
M  V30 END CTAB
M  END
>  <NO.>
2192

>  <Name>
pirlindole

>  <SMILES>
Cc1ccc2c(c1)c1c3n2CCNC3CCC1

>  <logBB>


>  <Class>
1

>  <MW>
226.15

>  <nHBAcc>
1

>  <nHBDon>
1

>  <SLogP>
2.93

>  <TopoPSA>
16.96

>  <MMFF94 Energy>
26.547

$$$$
Cc1cccc(/C=N\N2CCN(C(c3ccccc3)c3ccccc3)CC2)n1
Actelion Java MolfileCreator 2.0

  0  0  0  0  0  0              0 V3000
M  V30 BEGIN CTAB
M  V30 COUNTS 54 57 0 0 0
M  V30 BEGIN ATOM
M  V30 1 N 2.8707 0.5577 -1.594 0
M  V30 2 C 3.3829 1.6216 -2.2551 0
M  V30 3 C 3.3064 -0.6758 -1.931 0
M  V30 4 C 4.337 1.495 -3.2579 0
M  V30 5 C 2.9279 2.9961 -1.8976 0
M  V30 6 C 4.2513 -0.8846 -2.9293 0
M  V30 7 C 2.7139 -1.8349 -1.1876 0
M  V30 8 C 4.7737 0.218 -3.5988 0
M  V30 9 N 1.9854 3.4295 -1.1026 0
M  V30 10 N 1.2434 2.484 -0.4856 0
M  V30 11 C -0.0501 2.1553 -1.1177 0
M  V30 12 C 1.0294 2.6761 0.9588 0
M  V30 13 C -0.7005 0.9141 -0.4731 0
M  V30 14 C 0.3707 1.4419 1.6112 0
M  V30 15 N -0.9118 1.0954 0.9742 0
M  V30 16 C -1.626 -0.0121 1.6565 0
M  V30 17 C -3.1608 0.0473 1.4855 0
M  V30 18 C -1.0162 -1.4032 1.4209 0
M  V30 19 C -3.8107 1.1682 0.938 0
M  V30 20 C -3.9702 -0.997 1.9758 0
M  V30 21 C -1.3514 -2.1817 0.2981 0
M  V30 22 C -0.0946 -1.9301 2.3425 0
M  V30 23 C -5.2038 1.2193 0.8332 0
M  V30 24 C -5.3629 -0.9467 1.8708 0
M  V30 25 C -0.7875 -3.4446 0.1067 0
M  V30 26 C 0.4696 -3.1929 2.149 0
M  V30 27 C -5.979 0.1594 1.2939 0
M  V30 28 C 0.1222 -3.9496 1.0323 0
M  V30 29 H 4.7357 2.3622 -3.7722 0
M  V30 30 H 3.4942 3.7996 -2.3994 0
M  V30 31 H 4.5791 -1.8878 -3.1823 0
M  V30 32 H 2.1101 -2.4474 -1.8639 0
M  V30 33 H 2.0712 -1.4849 -0.3737 0
M  V30 34 H 3.5052 -2.4521 -0.751 0
M  V30 35 H 5.5157 0.082 -4.3807 0
M  V30 36 H 0.1052 1.945 -2.1828 0
M  V30 37 H -0.7315 3.0141 -1.0562 0
M  V30 38 H 1.9961 2.8467 1.4482 0
M  V30 39 H 0.4154 3.5688 1.1369 0
M  V30 40 H -0.0522 0.0531 -0.6746 0
M  V30 41 H -1.6545 0.7327 -0.9804 0
M  V30 42 H 1.0737 0.601 1.5606 0
M  V30 43 H 0.2085 1.6711 2.6713 0
M  V30 44 H -1.5297 0.186 2.7358 0
M  V30 45 H -3.2359 2.0248 0.5924 0
M  V30 46 H -3.5185 -1.8671 2.449 0
M  V30 47 H -2.0626 -1.8048 -0.4345 0
M  V30 48 H 0.191 -1.3544 3.2203 0
M  V30 49 H -5.6805 2.0941 0.3988 0
M  V30 50 H -5.9643 -1.7702 2.2466 0
M  V30 51 H -1.0619 -4.0327 -0.7648 0
M  V30 52 H 1.1805 -3.5849 2.8717 0
M  V30 53 H -7.0617 0.2013 1.2145 0
M  V30 54 H 0.5595 -4.9331 0.8841 0
M  V30 END ATOM
M  V30 BEGIN BOND
M  V30 1 2 1 2
M  V30 2 1 1 3
M  V30 3 1 2 4
M  V30 4 1 2 5
M  V30 5 2 3 6
M  V30 6 1 3 7
M  V30 7 2 4 8
M  V30 8 2 5 9
M  V30 9 1 9 10
M  V30 10 1 10 11
M  V30 11 1 10 12
M  V30 12 1 11 13
M  V30 13 1 12 14
M  V30 14 1 13 15
M  V30 15 1 15 16
M  V30 16 1 16 17
M  V30 17 1 16 18
M  V30 18 2 17 19
M  V30 19 1 17 20
M  V30 20 2 18 21
M  V30 21 1 18 22
M  V30 22 1 19 23
M  V30 23 2 20 24
M  V30 24 1 21 25
M  V30 25 2 22 26
M  V30 26 2 23 27
M  V30 27 2 25 28
M  V30 28 1 6 8
M  V30 29 1 14 15
M  V30 30 1 24 27
M  V30 31 1 26 28
M  V30 32 1 4 29
M  V30 33 1 5 30
M  V30 34 1 6 31
M  V30 35 1 7 32
M  V30 36 1 7 33
M  V30 37 1 7 34
M  V30 38 1 8 35
M  V30 39 1 11 36
M  V30 40 1 11 37
M  V30 41 1 12 38
M  V30 42 1 12 39
M  V30 43 1 13 40
M  V30 44 1 13 41
M  V30 45 1 14 42
M  V30 46 1 14 43
M  V30 47 1 16 44
M  V30 48 1 19 45
M  V30 49 1 20 46
M  V30 50 1 21 47
M  V30 51 1 22 48
M  V30 52 1 23 49
M  V30 53 1 24 50
M  V30 54 1 25 51
M  V30 55 1 26 52
M  V30 56 1 27 53
M  V30 57 1 28 54
M  V30 END BOND
M  V30 END CTAB
M  END
>  <NO.>
2193

>  <Name>
ropizine

>  <SMILES>
Cc1cccc(/C=N\N2CCN(C(c3ccccc3)c3ccccc3)CC2)n1

>  <logBB>


>  <Class>
1

>  <MW>
370.22

>  <nHBAcc>
4

>  <nHBDon>
0

>  <SLogP>
4.13

>  <TopoPSA>
31.73

>  <MMFF94 Energy>
184.28

$$$$
Cc1cccc(C)c1NC(=O)CN1CCCC1=O
Actelion Java MolfileCreator 2.0

  0  0  0  0  0  0              0 V3000
M  V30 BEGIN CTAB
M  V30 COUNTS 36 37 0 0 0
M  V30 BEGIN ATOM
M  V30 1 O -0.7089 -2.759 0.1574 0
M  V30 2 C 0.2102 -2.7465 -0.6446 0
M  V30 3 N 1.4325 -2.1346 -0.4571 0
M  V30 4 C 0.2272 -3.3931 -2.0045 0
M  V30 5 C 2.2848 -2.213 -1.6142 0
M  V30 6 C 1.8027 -1.417 0.7493 0
M  V30 7 C 1.3316 -2.6231 -2.7228 0
M  V30 8 C 1.2855 0.0177 0.6647 0
M  V30 9 O 2.0168 0.9437 0.3227 0
M  V30 10 N -0.0701 0.1102 0.9398 0
M  V30 11 C -0.8066 1.3082 0.8703 0
M  V30 12 C -0.4971 2.4095 1.6933 0
M  V30 13 C -1.9132 1.3605 -0.0038 0
M  V30 14 C -1.2674 3.5786 1.5807 0
M  V30 15 C 0.636 2.4043 2.6822 0
M  V30 16 C -2.677 2.535 -0.073 0
M  V30 17 C -2.2959 0.1926 -0.8719 0
M  V30 18 C -2.3501 3.6403 0.7071 0
M  V30 19 H 0.48 -4.4515 -1.8917 0
M  V30 20 H -0.7375 -3.2845 -2.5053 0
M  V30 21 H 2.7578 -1.2477 -1.8159 0
M  V30 22 H 3.0502 -2.9727 -1.4276 0
M  V30 23 H 1.3513 -1.9097 1.6174 0
M  V30 24 H 2.8904 -1.4216 0.8654 0
M  V30 25 H 0.9033 -1.7272 -3.1901 0
M  V30 26 H 1.8191 -3.2084 -3.5073 0
M  V30 27 H -0.5987 -0.7614 0.9551 0
M  V30 28 H -1.0298 4.45 2.1872 0
M  V30 29 H 1.5618 2.7328 2.2016 0
M  V30 30 H 0.4256 3.0825 3.517 0
M  V30 31 H 0.7819 1.4129 3.1218 0
M  V30 32 H -3.5303 2.5986 -0.7444 0
M  V30 33 H -2.6515 -0.6371 -0.2534 0
M  V30 34 H -1.4415 -0.1349 -1.4727 0
M  V30 35 H -3.0987 0.4557 -1.5689 0
M  V30 36 H -2.9412 4.5497 0.6379 0
M  V30 END ATOM
M  V30 BEGIN BOND
M  V30 1 2 1 2
M  V30 2 1 2 3
M  V30 3 1 2 4
M  V30 4 1 3 5
M  V30 5 1 3 6
M  V30 6 1 4 7
M  V30 7 1 6 8
M  V30 8 2 8 9
M  V30 9 1 8 10
M  V30 10 1 10 11
M  V30 11 2 11 12
M  V30 12 1 11 13
M  V30 13 1 12 14
M  V30 14 1 12 15
M  V30 15 2 13 16
M  V30 16 1 13 17
M  V30 17 2 14 18
M  V30 18 1 5 7
M  V30 19 1 16 18
M  V30 20 1 4 19
M  V30 21 1 4 20
M  V30 22 1 5 21
M  V30 23 1 5 22
M  V30 24 1 6 23
M  V30 25 1 6 24
M  V30 26 1 7 25
M  V30 27 1 7 26
M  V30 28 1 10 27
M  V30 29 1 14 28
M  V30 30 1 15 29
M  V30 31 1 15 30
M  V30 32 1 15 31
M  V30 33 1 16 32
M  V30 34 1 17 33
M  V30 35 1 17 34
M  V30 36 1 17 35
M  V30 37 1 18 36
M  V30 END BOND
M  V30 END CTAB
M  END
>  <NO.>
2194

>  <Name>
nefiracetam

>  <SMILES>
Cc1cccc(C)c1NC(=O)CN1CCCC1=O

>  <logBB>


>  <Class>
1

>  <MW>
246.14

>  <nHBAcc>
2

>  <nHBDon>
1

>  <SLogP>
1.86

>  <TopoPSA>
49.41

>  <MMFF94 Energy>
19.67

$$$$
Cc1cccc(C)c1NC(=O)c1ccc(N)cc1
Actelion Java MolfileCreator 2.0

  0  0  0  0  0  0              0 V3000
M  V30 BEGIN CTAB
M  V30 COUNTS 34 35 0 0 0
M  V30 BEGIN ATOM
M  V30 1 O 0.7843 0.5489 -1.7261 0
M  V30 2 C 0.5877 0.2763 -0.5473 0
M  V30 3 N -0.6377 -0.0294 0.0161 0
M  V30 4 C 1.7483 0.2059 0.3838 0
M  V30 5 C -1.8465 -0.0404 -0.708 0
M  V30 6 C 2.994 -0.1692 -0.1276 0
M  V30 7 C 1.6292 0.5225 1.7415 0
M  V30 8 C -2.3567 1.1335 -1.2965 0
M  V30 9 C -2.5756 -1.2466 -0.77 0
M  V30 10 C 4.105 -0.2501 0.7174 0
M  V30 11 C 2.7477 0.4401 2.5784 0
M  V30 12 C -3.5728 1.0676 -1.9952 0
M  V30 13 C -1.6448 2.457 -1.2338 0
M  V30 14 C -3.7982 -1.2722 -1.4566 0
M  V30 15 C -2.067 -2.5134 -0.1381 0
M  V30 16 C 3.9948 0.0636 2.0737 0
M  V30 17 C -4.2896 -0.124 -2.0717 0
M  V30 18 N 5.0869 -0.0506 2.9125 0
M  V30 19 H -0.6584 -0.4576 0.9311 0
M  V30 20 H 3.1027 -0.4055 -1.1843 0
M  V30 21 H 0.6857 0.8591 2.1615 0
M  V30 22 H 5.061 -0.5567 0.3013 0
M  V30 23 H 2.6386 0.6847 3.632 0
M  V30 24 H -3.972 1.9551 -2.4818 0
M  V30 25 H -0.9272 2.5423 -2.0547 0
M  V30 26 H -2.357 3.2858 -1.316 0
M  V30 27 H -1.1277 2.5897 -0.2785 0
M  V30 28 H -4.3721 -2.1934 -1.5272 0
M  V30 29 H -2.0274 -2.4044 0.9503 0
M  V30 30 H -1.0693 -2.7561 -0.518 0
M  V30 31 H -2.7176 -3.3652 -0.3629 0
M  V30 32 H -5.2316 -0.1569 -2.6128 0
M  V30 33 H 5.028 0.2452 3.8769 0
M  V30 34 H 6.0011 -0.2569 2.5334 0
M  V30 END ATOM
M  V30 BEGIN BOND
M  V30 1 2 1 2
M  V30 2 1 2 3
M  V30 3 1 2 4
M  V30 4 1 3 5
M  V30 5 2 4 6
M  V30 6 1 4 7
M  V30 7 2 5 8
M  V30 8 1 5 9
M  V30 9 1 6 10
M  V30 10 2 7 11
M  V30 11 1 8 12
M  V30 12 1 8 13
M  V30 13 2 9 14
M  V30 14 1 9 15
M  V30 15 2 10 16
M  V30 16 2 12 17
M  V30 17 1 16 18
M  V30 18 1 11 16
M  V30 19 1 14 17
M  V30 20 1 3 19
M  V30 21 1 6 20
M  V30 22 1 7 21
M  V30 23 1 10 22
M  V30 24 1 11 23
M  V30 25 1 12 24
M  V30 26 1 13 25
M  V30 27 1 13 26
M  V30 28 1 13 27
M  V30 29 1 14 28
M  V30 30 1 15 29
M  V30 31 1 15 30
M  V30 32 1 15 31
M  V30 33 1 17 32
M  V30 34 1 18 33
M  V30 35 1 18 34
M  V30 END BOND
M  V30 END CTAB
M  END
>  <NO.>
2195

>  <Name>
ameltolide

>  <SMILES>
Cc1cccc(C)c1NC(=O)c1ccc(N)cc1

>  <logBB>


>  <Class>
1

>  <MW>
240.13

>  <nHBAcc>
2

>  <nHBDon>
2

>  <SLogP>
3.14

>  <TopoPSA>
55.12

>  <MMFF94 Energy>
36.373

$$$$
Cc1cccc(C)c1NC1=NCCCS1
Actelion Java MolfileCreator 2.0

  0  0  0  0  0  0              0 V3000
M  V30 BEGIN CTAB
M  V30 COUNTS 31 32 0 0 0
M  V30 BEGIN ATOM
M  V30 1 S 2.4808 -0.2398 1.5999 0
M  V30 2 C 1.1688 -0.046 0.4449 0
M  V30 3 C 3.931 0.1133 0.5971 0
M  V30 4 N 1.3138 0.2845 -0.7834 0
M  V30 5 N -0.0243 -0.3209 1.0549 0
M  V30 6 C 3.6175 1.1271 -0.4779 0
M  V30 7 C 2.5855 0.5536 -1.4238 0
M  V30 8 C -1.3178 -0.2622 0.5037 0
M  V30 9 C -1.82 0.8892 -0.1426 0
M  V30 10 C -2.1408 -1.4142 0.5885 0
M  V30 11 C -3.1015 0.8584 -0.7217 0
M  V30 12 C -1.0479 2.1782 -0.2414 0
M  V30 13 C -3.4246 -1.4061 0.0207 0
M  V30 14 C -1.6574 -2.6731 1.2602 0
M  V30 15 C -3.8989 -0.2779 -0.6376 0
M  V30 16 H 4.7218 0.4915 1.2525 0
M  V30 17 H 4.2927 -0.8218 0.1561 0
M  V30 18 H 0.0398 -0.7257 1.9769 0
M  V30 19 H 4.5321 1.3569 -1.0366 0
M  V30 20 H 3.2656 2.0698 -0.0402 0
M  V30 21 H 2.9556 -0.3614 -1.9008 0
M  V30 22 H 2.4141 1.2764 -2.2295 0
M  V30 23 H -3.4874 1.7357 -1.237 0
M  V30 24 H -0.4897 2.2173 -1.1809 0
M  V30 25 H -1.7293 3.0364 -0.2135 0
M  V30 26 H -0.3626 2.308 0.6014 0
M  V30 27 H -4.0582 -2.2883 0.0766 0
M  V30 28 H -1.4813 -2.4904 2.3251 0
M  V30 29 H -0.7332 -3.025 0.7906 0
M  V30 30 H -2.3927 -3.4809 1.1807 0
M  V30 31 H -4.8888 -0.2827 -1.0855 0
M  V30 END ATOM
M  V30 BEGIN BOND
M  V30 1 1 1 2
M  V30 2 1 1 3
M  V30 3 2 2 4
M  V30 4 1 2 5
M  V30 5 1 3 6
M  V30 6 1 4 7
M  V30 7 1 5 8
M  V30 8 2 8 9
M  V30 9 1 8 10
M  V30 10 1 9 11
M  V30 11 1 9 12
M  V30 12 2 10 13
M  V30 13 1 10 14
M  V30 14 2 11 15
M  V30 15 1 6 7
M  V30 16 1 13 15
M  V30 17 1 3 16
M  V30 18 1 3 17
M  V30 19 1 5 18
M  V30 20 1 6 19
M  V30 21 1 6 20
M  V30 22 1 7 21
M  V30 23 1 7 22
M  V30 24 1 11 23
M  V30 25 1 12 24
M  V30 26 1 12 25
M  V30 27 1 12 26
M  V30 28 1 13 27
M  V30 29 1 14 28
M  V30 30 1 14 29
M  V30 31 1 14 30
M  V30 32 1 15 31
M  V30 END BOND
M  V30 END CTAB
M  END
>  <NO.>
2196

>  <Name>
xylazine

>  <SMILES>
Cc1cccc(C)c1NC1=NCCCS1

>  <logBB>


>  <Class>
1

>  <MW>
220.1

>  <nHBAcc>
3

>  <nHBDon>
1

>  <SLogP>
3.21

>  <TopoPSA>
24.39

>  <MMFF94 Energy>
-17.076

$$$$
Cc1cccc(Cc2cnc[nH]2)c1C
Actelion Java MolfileCreator 2.0

  0  0  0  0  0  0              0 V3000
M  V30 BEGIN CTAB
M  V30 COUNTS 28 29 0 0 0
M  V30 BEGIN ATOM
M  V30 1 N -0.6286 3.3826 1.8868 0
M  V30 2 C 0.5229 3.4301 2.5131 0
M  V30 3 C -0.7303 2.0996 1.413 0
M  V30 4 N 1.1691 2.2287 2.4641 0
M  V30 5 C 0.3786 1.354 1.7579 0
M  V30 6 C 0.7756 -0.062 1.514 0
M  V30 7 C -0.0547 -0.7722 0.4612 0
M  V30 8 C 0.2385 -0.6997 -0.9239 0
M  V30 9 C -1.1724 -1.5089 0.8943 0
M  V30 10 C -0.5639 -1.4245 -1.8385 0
M  V30 11 C 1.4275 0.0912 -1.4136 0
M  V30 12 C -1.9751 -2.1896 -0.0139 0
M  V30 13 C -1.67 -2.151 -1.3698 0
M  V30 14 C -0.2862 -1.4238 -3.3188 0
M  V30 15 H 0.9365 4.2946 3.015 0
M  V30 16 H -1.5965 1.7797 0.8465 0
M  V30 17 H 2.0691 2.0272 2.8771 0
M  V30 18 H 0.7018 -0.6134 2.4613 0
M  V30 19 H 1.8366 -0.1165 1.2402 0
M  V30 20 H -1.4247 -1.5507 1.9522 0
M  V30 21 H 1.3051 0.4203 -2.4495 0
M  V30 22 H 2.3327 -0.5197 -1.3446 0
M  V30 23 H 1.5687 1.0075 -0.8334 0
M  V30 24 H -2.8367 -2.7525 0.3347 0
M  V30 25 H -2.3052 -2.695 -2.0657 0
M  V30 26 H 0.7582 -1.6872 -3.5141 0
M  V30 27 H -0.9046 -2.1597 -3.8442 0
M  V30 28 H -0.505 -0.4391 -3.7437 0
M  V30 END ATOM
M  V30 BEGIN BOND
M  V30 1 2 1 2
M  V30 2 1 1 3
M  V30 3 1 2 4
M  V30 4 2 3 5
M  V30 5 1 5 6
M  V30 6 1 6 7
M  V30 7 2 7 8
M  V30 8 1 7 9
M  V30 9 1 8 10
M  V30 10 1 8 11
M  V30 11 2 9 12
M  V30 12 2 10 13
M  V30 13 1 10 14
M  V30 14 1 4 5
M  V30 15 1 12 13
M  V30 16 1 2 15
M  V30 17 1 3 16
M  V30 18 1 4 17
M  V30 19 1 6 18
M  V30 20 1 6 19
M  V30 21 1 9 20
M  V30 22 1 11 21
M  V30 23 1 11 22
M  V30 24 1 11 23
M  V30 25 1 12 24
M  V30 26 1 13 25
M  V30 27 1 14 26
M  V30 28 1 14 27
M  V30 29 1 14 28
M  V30 END BOND
M  V30 END CTAB
M  END
>  <NO.>
2197

>  <Name>
detomidine

>  <SMILES>
Cc1cccc(Cc2cnc[nH]2)c1C

>  <logBB>


>  <Class>
1

>  <MW>
186.12

>  <nHBAcc>
1

>  <nHBDon>
1

>  <SLogP>
2.62

>  <TopoPSA>
28.68

>  <MMFF94 Energy>
31.647

$$$$
Cc1cccc(Cl)c1NC(=O)/C=C1\SCC(=O)N1C
Actelion Java MolfileCreator 2.0

  0  0  0  0  0  0              0 V3000
M  V30 BEGIN CTAB
M  V30 COUNTS 32 33 0 0 0
M  V30 BEGIN ATOM
M  V30 1 Cl 1.0617 3.515 0.8166 0
M  V30 2 C 0.5277 2.4939 2.1085 0
M  V30 3 C 0.1359 1.1589 1.8972 0
M  V30 4 C 0.5598 3.0193 3.4022 0
M  V30 5 N 0.107 0.5981 0.6048 0
M  V30 6 C -0.192 0.3404 2.9954 0
M  V30 7 C 0.218 2.2179 4.4896 0
M  V30 8 C -0.7897 0.99 -0.3526 0
M  V30 9 C -0.1486 0.8868 4.2881 0
M  V30 10 C -0.5994 -1.0959 2.8154 0
M  V30 11 O -1.6656 1.837 -0.1961 0
M  V30 12 C -0.6767 0.3393 -1.6891 0
M  V30 13 C -0.0211 -0.7575 -2.0991 0
M  V30 14 S 0.9358 -1.7835 -1.0815 0
M  V30 15 N -0.0306 -1.2312 -3.4006 0
M  V30 16 C 1.3722 -2.9181 -2.4219 0
M  V30 17 C 0.695 -2.3918 -3.6619 0
M  V30 18 C -0.7507 -0.5805 -4.4815 0
M  V30 19 O 0.7907 -2.9422 -4.7539 0
M  V30 20 H 0.8602 4.0505 3.5687 0
M  V30 21 H 0.7122 -0.1946 0.4252 0
M  V30 22 H 0.243 2.6287 5.4962 0
M  V30 23 H -0.4076 0.2768 5.1517 0
M  V30 24 H 0.2351 -1.678 2.4124 0
M  V30 25 H -1.4571 -1.1686 2.1388 0
M  V30 26 H -0.8942 -1.5523 3.7665 0
M  V30 27 H -1.2763 0.8978 -2.4037 0
M  V30 28 H 1.0055 -3.9235 -2.2008 0
M  V30 29 H 2.4547 -2.9295 -2.5705 0
M  V30 30 H -0.375 0.44 -4.6043 0
M  V30 31 H -1.8192 -0.5626 -4.2448 0
M  V30 32 H -0.6184 -1.1107 -5.4288 0
M  V30 END ATOM
M  V30 BEGIN BOND
M  V30 1 1 1 2
M  V30 2 2 2 3
M  V30 3 1 2 4
M  V30 4 1 3 5
M  V30 5 1 3 6
M  V30 6 2 4 7
M  V30 7 1 5 8
M  V30 8 2 6 9
M  V30 9 1 6 10
M  V30 10 2 8 11
M  V30 11 1 8 12
M  V30 12 2 12 13
M  V30 13 1 13 14
M  V30 14 1 13 15
M  V30 15 1 14 16
M  V30 16 1 15 17
M  V30 17 1 15 18
M  V30 18 2 17 19
M  V30 19 1 7 9
M  V30 20 1 16 17
M  V30 21 1 4 20
M  V30 22 1 5 21
M  V30 23 1 7 22
M  V30 24 1 9 23
M  V30 25 1 10 24
M  V30 26 1 10 25
M  V30 27 1 10 26
M  V30 28 1 12 27
M  V30 29 1 16 28
M  V30 30 1 16 29
M  V30 31 1 18 30
M  V30 32 1 18 31
M  V30 33 1 18 32
M  V30 END BOND
M  V30 END CTAB
M  END
>  <NO.>
2198

>  <Name>
ralitoline

>  <SMILES>
Cc1cccc(Cl)c1NC(=O)/C=C1\SCC(=O)N1C

>  <logBB>


>  <Class>
1

>  <MW>
296.04

>  <nHBAcc>
3

>  <nHBDon>
1

>  <SLogP>
2.63

>  <TopoPSA>
49.41

>  <MMFF94 Energy>
5.6421

$$$$
Cc1cccc(N2CC(CO)OC2=O)c1
Actelion Java MolfileCreator 2.0

  0  0  0  0  0  0              0 V3000
M  V30 BEGIN CTAB
M  V30 COUNTS 28 29 0 0 0
M  V30 BEGIN ATOM
M  V30 1 O -1.5826 2.137 -0.079 0
M  V30 2 C -0.541 1.8032 -0.6203 0
M  V30 3 O 0.1299 2.64 -1.4777 0
M  V30 4 N 0.1467 0.608 -0.5058 0
M  V30 5 C 1.4185 2.0732 -1.7425 0 CFG=2
M  V30 6 C -0.2756 -0.5364 0.2045 0
M  V30 7 C 1.2716 0.6072 -1.3923 0
M  V30 8 C 2.4698 2.7881 -0.8935 0
M  V30 9 C -1.6371 -0.8178 0.3796 0
M  V30 10 C 0.6647 -1.4242 0.7409 0
M  V30 11 O 3.7645 2.2661 -1.1642 0
M  V30 12 C -2.0602 -1.9666 1.0669 0
M  V30 13 C 0.2538 -2.5624 1.4392 0
M  V30 14 C -1.103 -2.8304 1.6056 0
M  V30 15 C -3.5236 -2.2265 1.2722 0
M  V30 16 H 1.6613 2.1851 -2.8051 0
M  V30 17 H 2.1731 0.179 -0.9481 0
M  V30 18 H 0.9955 0.0243 -2.2789 0
M  V30 19 H 2.259 2.6803 0.1763 0
M  V30 20 H 2.4667 3.86 -1.12 0
M  V30 21 H -2.3931 -0.1491 -0.0268 0
M  V30 22 H 1.7304 -1.2389 0.6514 0
M  V30 23 H 4.3974 2.7965 -0.647 0
M  V30 24 H 0.9946 -3.2364 1.8617 0
M  V30 25 H -1.4093 -3.7146 2.1599 0
M  V30 26 H -3.8719 -1.7127 2.1734 0
M  V30 27 H -4.1061 -1.8741 0.4144 0
M  V30 28 H -3.72 -3.2985 1.3788 0
M  V30 END ATOM
M  V30 BEGIN BOND
M  V30 1 2 1 2
M  V30 2 1 2 3
M  V30 3 1 2 4
M  V30 4 1 3 5
M  V30 5 1 4 6
M  V30 6 1 4 7
M  V30 7 1 5 8
M  V30 8 2 6 9
M  V30 9 1 6 10
M  V30 10 1 8 11
M  V30 11 1 9 12
M  V30 12 2 10 13
M  V30 13 2 12 14
M  V30 14 1 12 15
M  V30 15 1 5 7
M  V30 16 1 13 14
M  V30 17 1 5 16
M  V30 18 1 7 17
M  V30 19 1 7 18
M  V30 20 1 8 19
M  V30 21 1 8 20
M  V30 22 1 9 21
M  V30 23 1 10 22
M  V30 24 1 11 23
M  V30 25 1 13 24
M  V30 26 1 14 25
M  V30 27 1 15 26
M  V30 28 1 15 27
M  V30 29 1 15 28
M  V30 END BOND
M  V30 BEGIN COLLECTION
M  V30 MDLV30/STERAC1 ATOMS=(1 5)
M  V30 END COLLECTION
M  V30 END CTAB
M  END
>  <NO.>
2199

>  <Name>
toloxatone

>  <SMILES>
Cc1cccc(N2CC(CO)OC2=O)c1

>  <logBB>


>  <Class>
1

>  <MW>
207.09

>  <nHBAcc>
3

>  <nHBDon>
1

>  <SLogP>
1.31

>  <TopoPSA>
49.77

>  <MMFF94 Energy>
16.089

$$$$
Cc1cccc(N2CCN(CCc3cc(C)[nH]n3)CC2)c1
Actelion Java MolfileCreator 2.0

  0  0  0  0  0  0              0 V3000
M  V30 BEGIN CTAB
M  V30 COUNTS 45 47 0 0 0
M  V30 BEGIN ATOM
M  V30 1 N 3.0789 2.9209 3.5533 0
M  V30 2 N 2.4417 4.1023 3.547 0
M  V30 3 C 2.7008 2.341 2.406 0
M  V30 4 C 1.6741 4.3074 2.435 0
M  V30 5 C 1.8255 3.1737 1.6697 0
M  V30 6 C 3.2156 0.9885 2.0364 0
M  V30 7 C 0.8887 5.5429 2.2308 0
M  V30 8 C 2.1449 -0.1145 2.1034 0
M  V30 9 N 1.1199 -0.0588 1.0385 0
M  V30 10 C 1.6651 -0.4578 -0.2792 0
M  V30 11 C -0.0036 -0.9669 1.3703 0
M  V30 12 C 0.6015 -0.4533 -1.4028 0
M  V30 13 C -1.1165 -0.981 0.2979 0
M  V30 14 N -0.5632 -1.2737 -1.0373 0
M  V30 15 C -1.44 -1.7266 -2.0191 0
M  V30 16 C -2.2789 -2.8281 -1.7752 0
M  V30 17 C -1.5199 -1.1415 -3.2907 0
M  V30 18 C -3.18 -3.3149 -2.7377 0
M  V30 19 C -2.4017 -1.6199 -4.266 0
M  V30 20 C -3.2274 -2.7053 -3.9916 0
M  V30 21 C -4.0264 -4.5169 -2.4416 0
M  V30 22 H 2.5773 4.723 4.3377 0
M  V30 23 H 1.3638 2.9607 0.7156 0
M  V30 24 H 4.0224 0.7143 2.7296 0
M  V30 25 H 3.6829 1.0336 1.0469 0
M  V30 26 H 0.1552 5.671 3.0333 0
M  V30 27 H 1.5444 6.4194 2.2179 0
M  V30 28 H 0.3476 5.5112 1.2797 0
M  V30 29 H 2.6437 -1.0927 2.0858 0
M  V30 30 H 1.6507 -0.0362 3.0814 0
M  V30 31 H 2.4605 0.2306 -0.583 0
M  V30 32 H 2.107 -1.4613 -0.216 0
M  V30 33 H 0.3686 -1.9914 1.5071 0
M  V30 34 H -0.4572 -0.6545 2.3189 0
M  V30 35 H 0.2819 0.5781 -1.5992 0
M  V30 36 H 1.0788 -0.8431 -2.3103 0
M  V30 37 H -1.8654 -1.717 0.6088 0
M  V30 38 H -1.6148 -0.0032 0.2715 0
M  V30 39 H -2.2114 -3.3462 -0.8216 0
M  V30 40 H -0.9065 -0.2824 -3.5446 0
M  V30 41 H -2.44 -1.1407 -5.2405 0
M  V30 42 H -3.9019 -3.0732 -4.7606 0
M  V30 43 H -3.4778 -5.4309 -2.6884 0
M  V30 44 H -4.3061 -4.5453 -1.3832 0
M  V30 45 H -4.9551 -4.4946 -3.0215 0
M  V30 END ATOM
M  V30 BEGIN BOND
M  V30 1 1 1 2
M  V30 2 2 1 3
M  V30 3 1 2 4
M  V30 4 1 3 5
M  V30 5 1 3 6
M  V30 6 1 4 7
M  V30 7 1 6 8
M  V30 8 1 8 9
M  V30 9 1 9 10
M  V30 10 1 9 11
M  V30 11 1 10 12
M  V30 12 1 11 13
M  V30 13 1 12 14
M  V30 14 1 14 15
M  V30 15 2 15 16
M  V30 16 1 15 17
M  V30 17 1 16 18
M  V30 18 2 17 19
M  V30 19 2 18 20
M  V30 20 1 18 21
M  V30 21 2 4 5
M  V30 22 1 13 14
M  V30 23 1 19 20
M  V30 24 1 2 22
M  V30 25 1 5 23
M  V30 26 1 6 24
M  V30 27 1 6 25
M  V30 28 1 7 26
M  V30 29 1 7 27
M  V30 30 1 7 28
M  V30 31 1 8 29
M  V30 32 1 8 30
M  V30 33 1 10 31
M  V30 34 1 10 32
M  V30 35 1 11 33
M  V30 36 1 11 34
M  V30 37 1 12 35
M  V30 38 1 12 36
M  V30 39 1 13 37
M  V30 40 1 13 38
M  V30 41 1 16 39
M  V30 42 1 17 40
M  V30 43 1 19 41
M  V30 44 1 20 42
M  V30 45 1 21 43
M  V30 46 1 21 44
M  V30 47 1 21 45
M  V30 END BOND
M  V30 END CTAB
M  END
>  <NO.>
2200

>  <Name>
tolpiprazole

>  <SMILES>
Cc1cccc(N2CCN(CCc3cc(C)[nH]n3)CC2)c1

>  <logBB>


>  <Class>
1

>  <MW>
284.2

>  <nHBAcc>
3

>  <nHBDon>
1

>  <SLogP>
2.39

>  <TopoPSA>
35.16

>  <MMFF94 Energy>
117.72

$$$$
Cc1cccc(O[C@H]2CCNC[C@H]2O)c1C
Actelion Java MolfileCreator 2.0

  0  0  0  0  0  0              0 V3000
M  V30 BEGIN CTAB
M  V30 COUNTS 35 36 0 0 0
M  V30 BEGIN ATOM
M  V30 1 O -0.3149 -0.2361 -0.5511 0
M  V30 2 C 0.4105 0.8976 -0.2966 0
M  V30 3 C -1.3202 -0.6746 0.373 0 CFG=2
M  V30 4 C 1.4105 1.2048 -1.2476 0
M  V30 5 C 0.2274 1.7299 0.8101 0
M  V30 6 C -0.6794 -1.4751 1.5218 0 CFG=2
M  V30 7 C -2.2836 -1.5748 -0.41 0
M  V30 8 C 2.2505 2.3241 -1.0413 0
M  V30 9 C 1.6164 0.2996 -2.4389 0
M  V30 10 C 1.0362 2.8509 0.9919 0
M  V30 11 O 0.1596 -2.5172 0.9953 0
M  V30 12 C -1.774 -2.1081 2.393 0
M  V30 13 C -3.3084 -2.2157 0.5202 0
M  V30 14 C 2.041 3.1444 0.0756 0
M  V30 15 C 3.3544 2.6787 -2.0011 0
M  V30 16 N -2.6767 -2.9669 1.6069 0
M  V30 17 H -1.9074 0.1695 0.7544 0
M  V30 18 H -0.5326 1.5421 1.5592 0
M  V30 19 H -0.036 -0.8379 2.1364 0
M  V30 20 H -1.7253 -2.3486 -0.9533 0
M  V30 21 H -2.7937 -0.9841 -1.1809 0
M  V30 22 H 1.9831 0.8536 -3.3083 0
M  V30 23 H 0.6796 -0.1675 -2.7599 0
M  V30 24 H 2.3359 -0.4855 -2.1874 0
M  V30 25 H 0.8864 3.495 1.8549 0
M  V30 26 H 0.7077 -2.0911 0.3081 0
M  V30 27 H -2.3547 -1.3319 2.9052 0
M  V30 28 H -1.3116 -2.733 3.1653 0
M  V30 29 H -3.9445 -2.8974 -0.0551 0
M  V30 30 H -3.972 -1.4497 0.9396 0
M  V30 31 H 2.6657 4.0199 0.2413 0
M  V30 32 H 4.0004 3.4656 -1.5968 0
M  V30 33 H 2.9328 3.0422 -2.9435 0
M  V30 34 H 3.9913 1.8093 -2.1934 0
M  V30 35 H -2.0912 -3.7007 1.1943 0
M  V30 END ATOM
M  V30 BEGIN BOND
M  V30 1 1 1 2
M  V30 2 1 1 3
M  V30 3 2 2 4
M  V30 4 1 2 5
M  V30 5 1 3 6
M  V30 6 1 3 7
M  V30 7 1 4 8
M  V30 8 1 4 9
M  V30 9 2 5 10
M  V30 10 1 6 11
M  V30 11 1 6 12
M  V30 12 1 7 13
M  V30 13 2 8 14
M  V30 14 1 8 15
M  V30 15 1 12 16
M  V30 16 1 10 14
M  V30 17 1 13 16
M  V30 18 1 3 17
M  V30 19 1 5 18
M  V30 20 1 6 19
M  V30 21 1 7 20
M  V30 22 1 7 21
M  V30 23 1 9 22
M  V30 24 1 9 23
M  V30 25 1 9 24
M  V30 26 1 10 25
M  V30 27 1 11 26
M  V30 28 1 12 27
M  V30 29 1 12 28
M  V30 30 1 13 29
M  V30 31 1 13 30
M  V30 32 1 14 31
M  V30 33 1 15 32
M  V30 34 1 15 33
M  V30 35 1 15 34
M  V30 36 1 16 35
M  V30 END BOND
M  V30 BEGIN COLLECTION
M  V30 MDLV30/STEABS ATOMS=(2 3 6)
M  V30 END COLLECTION
M  V30 END CTAB
M  END
>  <NO.>
2201

>  <Name>
ifoxetine

>  <SMILES>
Cc1cccc(O[C@H]2CCNC[C@H]2O)c1C

>  <logBB>


>  <Class>
1

>  <MW>
221.14

>  <nHBAcc>
3

>  <nHBDon>
2

>  <SLogP>
1.41

>  <TopoPSA>
41.49

>  <MMFF94 Energy>
59.022

$$$$
Cc1ccccc1-n1c(/C=C/c2ccccn2)nc2ccccc2c1=O
Actelion Java MolfileCreator 2.0

  0  0  0  0  0  0              0 V3000
M  V30 BEGIN CTAB
M  V30 COUNTS 43 46 0 0 0
M  V30 BEGIN ATOM
M  V30 1 O 2.0037 2.4851 2.0839 0
M  V30 2 C 1.9754 1.5313 1.3074 0
M  V30 3 N 0.8461 1.0805 0.6189 0
M  V30 4 C 3.2194 0.7794 1.0681 0
M  V30 5 C -0.3709 1.7744 0.8663 0
M  V30 6 C 0.908 -0.0035 -0.2517 0
M  V30 7 C 3.1711 -0.296 0.1866 0
M  V30 8 C 4.4131 1.1334 1.7106 0
M  V30 9 C -1.3006 1.3011 1.8121 0
M  V30 10 C -0.6283 2.9489 0.1441 0
M  V30 11 N 1.9989 -0.675 -0.4738 0
M  V30 12 C -0.3406 -0.3888 -0.9708 0
M  V30 13 C 4.3404 -1.0229 -0.0515 0
M  V30 14 C 5.5732 0.4001 1.4655 0
M  V30 15 C -2.5008 2.0074 1.9843 0
M  V30 16 C -1.0557 0.0551 2.6153 0
M  V30 17 C -1.8208 3.6432 0.3382 0
M  V30 18 C -0.5698 -1.6787 -1.264 0
M  V30 19 C 5.5368 -0.6787 0.5837 0
M  V30 20 C -2.7577 3.1696 1.2534 0
M  V30 21 C -1.764 -2.1482 -1.976 0
M  V30 22 N -2.694 -1.223 -2.3114 0
M  V30 23 C -1.9118 -3.499 -2.2768 0
M  V30 24 C -3.7954 -1.6564 -2.9629 0
M  V30 25 C -3.058 -3.9171 -2.9495 0
M  V30 26 C -4.0207 -2.9795 -3.3007 0
M  V30 27 H 4.4379 1.976 2.3983 0
M  V30 28 H 0.0997 3.3253 -0.5698 0
M  V30 29 H -1.0341 0.3899 -1.2656 0
M  V30 30 H 4.3154 -1.8633 -0.7406 0
M  V30 31 H 6.5028 0.6702 1.9606 0
M  V30 32 H -3.2455 1.6592 2.697 0
M  V30 33 H -0.0488 0.0594 3.0443 0
M  V30 34 H -1.1798 -0.8322 1.9877 0
M  V30 35 H -1.7579 -0.022 3.4525 0
M  V30 36 H -2.0184 4.5529 -0.2224 0
M  V30 37 H 0.1487 -2.4398 -0.9743 0
M  V30 38 H 6.4387 -1.2533 0.3876 0
M  V30 39 H -3.6896 3.7089 1.4042 0
M  V30 40 H -1.1527 -4.2223 -1.9985 0
M  V30 41 H -4.5165 -0.8839 -3.2143 0
M  V30 42 H -3.1961 -4.9657 -3.1968 0
M  V30 43 H -4.9236 -3.2714 -3.8248 0
M  V30 END ATOM
M  V30 BEGIN BOND
M  V30 1 2 1 2
M  V30 2 1 2 3
M  V30 3 1 2 4
M  V30 4 1 3 5
M  V30 5 1 3 6
M  V30 6 2 4 7
M  V30 7 1 4 8
M  V30 8 2 5 9
M  V30 9 1 5 10
M  V30 10 2 6 11
M  V30 11 1 6 12
M  V30 12 1 7 13
M  V30 13 2 8 14
M  V30 14 1 9 15
M  V30 15 1 9 16
M  V30 16 2 10 17
M  V30 17 2 12 18
M  V30 18 2 13 19
M  V30 19 2 15 20
M  V30 20 1 18 21
M  V30 21 2 21 22
M  V30 22 1 21 23
M  V30 23 1 22 24
M  V30 24 2 23 25
M  V30 25 2 24 26
M  V30 26 1 7 11
M  V30 27 1 14 19
M  V30 28 1 17 20
M  V30 29 1 25 26
M  V30 30 1 8 27
M  V30 31 1 10 28
M  V30 32 1 12 29
M  V30 33 1 13 30
M  V30 34 1 14 31
M  V30 35 1 15 32
M  V30 36 1 16 33
M  V30 37 1 16 34
M  V30 38 1 16 35
M  V30 39 1 17 36
M  V30 40 1 18 37
M  V30 41 1 19 38
M  V30 42 1 20 39
M  V30 43 1 23 40
M  V30 44 1 24 41
M  V30 45 1 25 42
M  V30 46 1 26 43
M  V30 END BOND
M  V30 END CTAB
M  END
>  <NO.>
2204

>  <Name>
piriqualone

>  <SMILES>
Cc1ccccc1-n1c(/C=C/c2ccccn2)nc2ccccc2c1=O

>  <logBB>


>  <Class>
1

>  <MW>
339.14

>  <nHBAcc>
3

>  <nHBDon>
0

>  <SLogP>
4.26

>  <TopoPSA>
47.78

>  <MMFF94 Energy>
47.928

$$$$
Cc1ccccc1-n1c(C)nc2ccccc2c1=O
Actelion Java MolfileCreator 2.0

  0  0  0  0  0  0              0 V3000
M  V30 BEGIN CTAB
M  V30 COUNTS 33 35 0 0 0
M  V30 BEGIN ATOM
M  V30 1 O -0.3987 1.7554 1.3562 0
M  V30 2 C -0.5695 1.0971 0.3316 0
M  V30 3 N 0.2815 0.0939 -0.1359 0
M  V30 4 C -1.7609 1.3631 -0.4947 0
M  V30 5 C 1.4401 -0.1884 0.6351 0
M  V30 6 C 0.0195 -0.5928 -1.3103 0
M  V30 7 C -1.9302 0.6117 -1.6551 0
M  V30 8 C -2.6935 2.3406 -0.1244 0
M  V30 9 C 1.3975 -1.1099 1.6985 0
M  V30 10 C 2.6336 0.4752 0.3178 0
M  V30 11 N -1.0187 -0.3713 -2.0545 0
M  V30 12 C 0.9888 -1.6619 -1.7664 0
M  V30 13 C -3.0534 0.8492 -2.4512 0
M  V30 14 C -3.8103 2.5681 -0.9273 0
M  V30 15 C 2.5733 -1.3519 2.4245 0
M  V30 16 C 0.1246 -1.803 2.096 0
M  V30 17 C 3.7929 0.2169 1.0465 0
M  V30 18 C -3.9904 1.822 -2.0912 0
M  V30 19 C 3.7625 -0.697 2.0969 0
M  V30 20 H -2.55 2.9212 0.7841 0
M  V30 21 H 2.6612 1.2004 -0.4915 0
M  V30 22 H 1.9599 -1.2135 -1.993 0
M  V30 23 H 1.114 -2.4218 -0.9909 0
M  V30 24 H 0.6154 -2.151 -2.6712 0
M  V30 25 H -3.1967 0.2694 -3.3597 0
M  V30 26 H -4.5381 3.3254 -0.646 0
M  V30 27 H 2.5699 -2.049 3.26 0
M  V30 28 H -0.3391 -2.2884 1.2318 0
M  V30 29 H -0.5774 -1.0843 2.5298 0
M  V30 30 H 0.3107 -2.583 2.8419 0
M  V30 31 H 4.7165 0.735 0.802 0
M  V30 32 H -4.8596 1.9956 -2.721 0
M  V30 33 H 4.6643 -0.8928 2.672 0
M  V30 END ATOM
M  V30 BEGIN BOND
M  V30 1 2 1 2
M  V30 2 1 2 3
M  V30 3 1 2 4
M  V30 4 1 3 5
M  V30 5 1 3 6
M  V30 6 2 4 7
M  V30 7 1 4 8
M  V30 8 2 5 9
M  V30 9 1 5 10
M  V30 10 2 6 11
M  V30 11 1 6 12
M  V30 12 1 7 13
M  V30 13 2 8 14
M  V30 14 1 9 15
M  V30 15 1 9 16
M  V30 16 2 10 17
M  V30 17 2 13 18
M  V30 18 2 15 19
M  V30 19 1 7 11
M  V30 20 1 14 18
M  V30 21 1 17 19
M  V30 22 1 8 20
M  V30 23 1 10 21
M  V30 24 1 12 22
M  V30 25 1 12 23
M  V30 26 1 12 24
M  V30 27 1 13 25
M  V30 28 1 14 26
M  V30 29 1 15 27
M  V30 30 1 16 28
M  V30 31 1 16 29
M  V30 32 1 16 30
M  V30 33 1 17 31
M  V30 34 1 18 32
M  V30 35 1 19 33
M  V30 END BOND
M  V30 END CTAB
M  END
>  <NO.>
2205

>  <Name>
morphine

>  <SMILES>
Cc1ccccc1-n1c(C)nc2ccccc2c1=O

>  <logBB>


>  <Class>
1

>  <MW>
250.11

>  <nHBAcc>
2

>  <nHBDon>
0

>  <SLogP>
3

>  <TopoPSA>
34.89

>  <MMFF94 Energy>
43.692

$$$$
Cc1ccccc1N1CCN(CCCOc2ccccn2)CC1
Actelion Java MolfileCreator 2.0

  0  0  0  0  0  0              0 V3000
M  V30 BEGIN CTAB
M  V30 COUNTS 48 50 0 0 0
M  V30 BEGIN ATOM
M  V30 1 O 3.9579 -1.8982 -1.5817 0
M  V30 2 C 4.6484 -2.9669 -2.1184 0
M  V30 3 C 2.6873 -2.2656 -1.039 0
M  V30 4 N 4.099 -4.2007 -2.1101 0
M  V30 5 C 5.8979 -2.6836 -2.6475 0
M  V30 6 C 2.0315 -1.003 -0.4831 0
M  V30 7 C 4.8363 -5.1927 -2.6547 0
M  V30 8 C 6.633 -3.7266 -3.2016 0
M  V30 9 C 0.6519 -1.314 0.1023 0
M  V30 10 C 6.0942 -5.0082 -3.2067 0
M  V30 11 N 0.035 -0.1534 0.7665 0
M  V30 12 C -0.3633 0.8988 -0.202 0
M  V30 13 C -1.1723 -0.5853 1.5174 0
M  V30 14 C -1.0875 2.098 0.4566 0
M  V30 15 C -1.8951 0.5819 2.2277 0
M  V30 16 N -2.2297 1.6323 1.2577 0
M  V30 17 C -3.1369 2.6212 1.6355 0
M  V30 18 C -4.1946 2.9853 0.7755 0
M  V30 19 C -3.0117 3.2962 2.8604 0
M  V30 20 C -5.0766 4.0147 1.1477 0
M  V30 21 C -4.3935 2.3 -0.5494 0
M  V30 22 C -3.9005 4.3091 3.2269 0
M  V30 23 C -4.9321 4.6701 2.3687 0
M  V30 24 H 2.819 -2.995 -0.23 0
M  V30 25 H 2.0493 -2.6897 -1.8246 0
M  V30 26 H 6.2873 -1.6724 -2.6263 0
M  V30 27 H 2.6833 -0.5638 0.2827 0
M  V30 28 H 1.9647 -0.2619 -1.2878 0
M  V30 29 H 4.3742 -6.1756 -2.6357 0
M  V30 30 H 7.6157 -3.54 -3.6243 0
M  V30 31 H -0.0072 -1.7124 -0.6799 0
M  V30 32 H 0.7822 -2.1131 0.8439 0
M  V30 33 H 6.6404 -5.8434 -3.6303 0
M  V30 34 H 0.521 1.2962 -0.7105 0
M  V30 35 H -1.0211 0.4702 -0.97 0
M  V30 36 H -1.8797 -1.0797 0.8377 0
M  V30 37 H -0.8843 -1.3176 2.2812 0
M  V30 38 H -1.4126 2.783 -0.3353 0
M  V30 39 H -0.3844 2.6448 1.0983 0
M  V30 40 H -1.2467 0.98 3.0181 0
M  V30 41 H -2.8067 0.194 2.6983 0
M  V30 42 H -2.1988 3.0505 3.5375 0
M  V30 43 H -5.8879 4.3062 0.4848 0
M  V30 44 H -5.4002 2.4808 -0.9417 0
M  V30 45 H -4.2828 1.2153 -0.4497 0
M  V30 46 H -3.6714 2.6741 -1.2811 0
M  V30 47 H -3.7786 4.8189 4.1784 0
M  V30 48 H -5.6229 5.461 2.6474 0
M  V30 END ATOM
M  V30 BEGIN BOND
M  V30 1 1 1 2
M  V30 2 1 1 3
M  V30 3 2 2 4
M  V30 4 1 2 5
M  V30 5 1 3 6
M  V30 6 1 4 7
M  V30 7 2 5 8
M  V30 8 1 6 9
M  V30 9 2 7 10
M  V30 10 1 9 11
M  V30 11 1 11 12
M  V30 12 1 11 13
M  V30 13 1 12 14
M  V30 14 1 13 15
M  V30 15 1 14 16
M  V30 16 1 16 17
M  V30 17 2 17 18
M  V30 18 1 17 19
M  V30 19 1 18 20
M  V30 20 1 18 21
M  V30 21 2 19 22
M  V30 22 2 20 23
M  V30 23 1 8 10
M  V30 24 1 15 16
M  V30 25 1 22 23
M  V30 26 1 3 24
M  V30 27 1 3 25
M  V30 28 1 5 26
M  V30 29 1 6 27
M  V30 30 1 6 28
M  V30 31 1 7 29
M  V30 32 1 8 30
M  V30 33 1 9 31
M  V30 34 1 9 32
M  V30 35 1 10 33
M  V30 36 1 12 34
M  V30 37 1 12 35
M  V30 38 1 13 36
M  V30 39 1 13 37
M  V30 40 1 14 38
M  V30 41 1 14 39
M  V30 42 1 15 40
M  V30 43 1 15 41
M  V30 44 1 19 42
M  V30 45 1 20 43
M  V30 46 1 21 44
M  V30 47 1 21 45
M  V30 48 1 21 46
M  V30 49 1 22 47
M  V30 50 1 23 48
M  V30 END BOND
M  V30 END CTAB
M  END
>  <NO.>
2206

>  <Name>
toprilidine

>  <SMILES>
Cc1ccccc1N1CCN(CCCOc2ccccn2)CC1

>  <logBB>


>  <Class>
1

>  <MW>
311.2

>  <nHBAcc>
4

>  <nHBDon>
0

>  <SLogP>
2.98

>  <TopoPSA>
28.6

>  <MMFF94 Energy>
100.45

$$$$
Cc1ccccc1OCC(COC(O)C(Cl)(Cl)Cl)OC(O)C(Cl)(Cl)Cl
Actelion Java MolfileCreator 2.0

  0  0  0  0  0  0              0 V3000
M  V30 BEGIN CTAB
M  V30 COUNTS 41 41 0 0 0
M  V30 BEGIN ATOM
M  V30 1 Cl 0.4233 0.508 -3.5605 0
M  V30 2 C -1.2883 0.6908 -3.0472 0
M  V30 3 Cl -1.7976 2.3913 -3.3373 0
M  V30 4 Cl -2.2975 -0.378 -4.0829 0
M  V30 5 C -1.4637 0.3139 -1.5372 0
M  V30 6 O -0.6127 1.1025 -0.6976 0
M  V30 7 O -2.8064 0.482 -1.0708 0
M  V30 8 C -0.4499 0.5556 0.6256 0
M  V30 9 C 0.8905 -0.1901 0.6947 0
M  V30 10 C -0.4571 1.7374 1.6051 0
M  V30 11 O 0.7851 -1.3838 -0.0857 0
M  V30 12 O -1.7719 2.2983 1.6314 0
M  V30 13 C 1.9092 -2.1526 -0.2315 0
M  V30 14 C -1.8875 3.471 2.4434 0
M  V30 15 C 1.7791 -3.2635 -1.0852 0
M  V30 16 C 3.1319 -1.909 0.4015 0
M  V30 17 O -1.2518 4.5652 1.777 0
M  V30 18 C -3.3964 3.7798 2.7548 0
M  V30 19 C 2.8828 -4.103 -1.2989 0
M  V30 20 C 0.4806 -3.5508 -1.7873 0
M  V30 21 C 4.2217 -2.7556 0.1838 0
M  V30 22 Cl -4.1332 2.4078 3.6626 0
M  V30 23 Cl -3.5277 5.2441 3.7967 0
M  V30 24 Cl -4.3515 4.0524 1.2601 0
M  V30 25 C 4.0981 -3.85 -0.666 0
M  V30 26 H -1.2162 -0.7465 -1.4199 0
M  V30 27 H -3.0119 1.4272 -1.196 0
M  V30 28 H -1.2818 -0.1199 0.8618 0
M  V30 29 H 1.1109 -0.4571 1.7348 0
M  V30 30 H 1.6825 0.4485 0.2845 0
M  V30 31 H -0.1982 1.4015 2.6151 0
M  V30 32 H 0.2578 2.5004 1.2778 0
M  V30 33 H -1.3668 3.3049 3.3964 0
M  V30 34 H 3.2742 -1.0692 1.0723 0
M  V30 35 H -0.3215 4.5753 2.0511 0
M  V30 36 H 2.8005 -4.9608 -1.9626 0
M  V30 37 H -0.3368 -3.6277 -1.0631 0
M  V30 38 H 0.5214 -4.4975 -2.3362 0
M  V30 39 H 0.2565 -2.7559 -2.5056 0
M  V30 40 H 5.1696 -2.5585 0.678 0
M  V30 41 H 4.9471 -4.5066 -0.8373 0
M  V30 END ATOM
M  V30 BEGIN BOND
M  V30 1 1 1 2
M  V30 2 1 2 3
M  V30 3 1 2 4
M  V30 4 1 2 5
M  V30 5 1 5 6
M  V30 6 1 5 7
M  V30 7 1 6 8
M  V30 8 1 8 9
M  V30 9 1 8 10
M  V30 10 1 9 11
M  V30 11 1 10 12
M  V30 12 1 11 13
M  V30 13 1 12 14
M  V30 14 2 13 15
M  V30 15 1 13 16
M  V30 16 1 14 17
M  V30 17 1 14 18
M  V30 18 1 15 19
M  V30 19 1 15 20
M  V30 20 2 16 21
M  V30 21 1 18 22
M  V30 22 1 18 23
M  V30 23 1 18 24
M  V30 24 2 19 25
M  V30 25 1 21 25
M  V30 26 1 5 26
M  V30 27 1 7 27
M  V30 28 1 8 28
M  V30 29 1 9 29
M  V30 30 1 9 30
M  V30 31 1 10 31
M  V30 32 1 10 32
M  V30 33 1 14 33
M  V30 34 1 16 34
M  V30 35 1 17 35
M  V30 36 1 19 36
M  V30 37 1 20 37
M  V30 38 1 20 38
M  V30 39 1 20 39
M  V30 40 1 21 40
M  V30 41 1 25 41
M  V30 END BOND
M  V30 END CTAB
M  END
>  <NO.>
2207

>  <Name>
toloxychlorinol

>  <SMILES>
Cc1ccccc1OCC(COC(O)C(Cl)(Cl)Cl)OC(O)C(Cl)(Cl)Cl

>  <logBB>


>  <Class>
1

>  <MW>
473.91

>  <nHBAcc>
5

>  <nHBDon>
2

>  <SLogP>
4.15

>  <TopoPSA>
68.15

>  <MMFF94 Energy>
169.54

$$$$
Cc1cn[o+]c(C([NH])CC(C)C(C)(C)N(C(C)(C)C)C(C)(N)N)c1O
Actelion Java MolfileCreator 2.0

  0  0  0  0  0  0              0 V3000
M  V30 BEGIN CTAB
M  V30 COUNTS 60 60 0 0 0
M  V30 BEGIN ATOM
M  V30 1 O -2.6643 -3.6059 1.018 0 CHG=1
M  V30 2 N -2.9742 -4.778 1.7963 0
M  V30 3 C -2.8405 -2.3259 1.6384 0
M  V30 4 C -3.4084 -4.6287 3.0567 0
M  V30 5 C -3.3063 -2.2741 2.9714 0
M  V30 6 C -2.5047 -1.0922 0.8059 0
M  V30 7 C -3.5928 -3.4221 3.697 0
M  V30 8 O -3.5002 -1.0696 3.6186 0
M  V30 9 N -2.8706 0.1521 1.521 0 RAD=2
M  V30 10 C -0.9941 -1.1172 0.4731 0
M  V30 11 C -4.0862 -3.356 5.1103 0
M  V30 12 C -0.4946 -0.0043 -0.5095 0
M  V30 13 C 1.0894 -0.0444 -0.8291 0
M  V30 14 C -1.3563 -0.0056 -1.7929 0
M  V30 15 N 1.7127 1.2472 -1.3989 0
M  V30 16 C 1.2058 -1.2489 -1.8247 0
M  V30 17 C 1.8817 -0.4594 0.4411 0
M  V30 18 C 3.0538 1.1754 -1.9945 0
M  V30 19 C 1.2156 2.6157 -0.8747 0
M  V30 20 N 3.0757 2.0969 -3.0907 0
M  V30 21 N 4.0446 1.6657 -1.0935 0
M  V30 22 C 3.7068 -0.1052 -2.5531 0
M  V30 23 C 2.0582 3.9126 -1.1906 0
M  V30 24 C 1.099 2.6894 0.673 0
M  V30 25 C -0.1422 2.9794 -1.5403 0
M  V30 26 H -3.6153 -5.5676 3.5623 0
M  V30 27 H -3.0939 -1.1925 -0.1122 0
M  V30 28 H -3.2942 -0.3513 2.9333 0
M  V30 29 H -2.8366 0.9332 0.8504 0
M  V30 30 H -0.4439 -1.0282 1.4191 0
M  V30 31 H -0.745 -2.1045 0.0678 0
M  V30 32 H -5.041 -2.8222 5.1556 0
M  V30 33 H -4.2451 -4.3568 5.5259 0
M  V30 34 H -3.3548 -2.8464 5.746 0
M  V30 35 H -0.7164 0.9128 0.0202 0
M  V30 36 H -2.3381 0.4398 -1.6005 0
M  V30 37 H -1.5286 -1.0209 -2.1655 0
M  V30 38 H -0.8951 0.5681 -2.6008 0
M  V30 39 H 2.149 -1.7897 -1.7461 0
M  V30 40 H 0.4666 -2.0318 -1.6297 0
M  V30 41 H 1.0399 -0.9311 -2.8597 0
M  V30 42 H 2.9632 -0.4489 0.282 0
M  V30 43 H 1.6718 0.1831 1.2982 0
M  V30 44 H 1.6466 -1.4877 0.74 0
M  V30 45 H 3.9121 1.9569 -3.6468 0
M  V30 46 H 2.2852 1.8507 -3.6805 0
M  V30 47 H 4.2754 2.5931 -1.4314 0
M  V30 48 H 3.5852 1.7888 -0.1998 0
M  V30 49 H 3.1312 -0.5494 -3.3715 0
M  V30 50 H 3.9079 -0.8492 -1.7761 0
M  V30 51 H 4.6977 0.1014 -2.9878 0
M  V30 52 H 1.5551 4.8051 -0.7897 0
M  V30 53 H 3.0368 3.9263 -0.7082 0
M  V30 54 H 2.1588 4.1124 -2.2604 0
M  V30 55 H 0.4111 1.9784 1.1238 0
M  V30 56 H 0.7339 3.675 0.9902 0
M  V30 57 H 2.0752 2.5469 1.1488 0
M  V30 58 H -0.1132 2.7807 -2.6176 0
M  V30 59 H -0.3755 4.0466 -1.4311 0
M  V30 60 H -1.0066 2.4799 -1.1113 0
M  V30 END ATOM
M  V30 BEGIN BOND
M  V30 1 2 1 2
M  V30 2 1 1 3
M  V30 3 1 2 4
M  V30 4 2 3 5
M  V30 5 1 3 6
M  V30 6 2 4 7
M  V30 7 1 5 8
M  V30 8 1 6 9
M  V30 9 1 6 10
M  V30 10 1 7 11
M  V30 11 1 10 12
M  V30 12 1 12 13
M  V30 13 1 12 14
M  V30 14 1 13 15
M  V30 15 1 13 16
M  V30 16 1 13 17
M  V30 17 1 15 18
M  V30 18 1 15 19
M  V30 19 1 18 20
M  V30 20 1 18 21
M  V30 21 1 18 22
M  V30 22 1 19 23
M  V30 23 1 19 24
M  V30 24 1 19 25
M  V30 25 1 5 7
M  V30 26 1 4 26
M  V30 27 1 6 27
M  V30 28 1 8 28
M  V30 29 1 9 29
M  V30 30 1 10 30
M  V30 31 1 10 31
M  V30 32 1 11 32
M  V30 33 1 11 33
M  V30 34 1 11 34
M  V30 35 1 12 35
M  V30 36 1 14 36
M  V30 37 1 14 37
M  V30 38 1 14 38
M  V30 39 1 16 39
M  V30 40 1 16 40
M  V30 41 1 16 41
M  V30 42 1 17 42
M  V30 43 1 17 43
M  V30 44 1 17 44
M  V30 45 1 20 45
M  V30 46 1 20 46
M  V30 47 1 21 47
M  V30 48 1 21 48
M  V30 49 1 22 49
M  V30 50 1 22 50
M  V30 51 1 22 51
M  V30 52 1 23 52
M  V30 53 1 23 53
M  V30 54 1 23 54
M  V30 55 1 24 55
M  V30 56 1 24 56
M  V30 57 1 24 57
M  V30 58 1 25 58
M  V30 59 1 25 59
M  V30 60 1 25 60
M  V30 END BOND
M  V30 END CTAB
M  END
>  <NO.>
2210

>  <Name>


>  <SMILES>
Cc1cn[o+]c(C([NH])CC(C)C(C)(C)N(C(C)(C)C)C(C)(N)N)c1O

>  <logBB>


>  <Class>
1

>  <MW>
353.28

>  <nHBAcc>
5

>  <nHBDon>
3

>  <SLogP>
2.79

>  <TopoPSA>
123.5

>  <MMFF94 Energy>
-36.571

$$$$
Cc1cnn(-c2c(Cl)cccc2Cl)c1C(=O)N[C@@H]1C(=O)N2[C@@H](C(=O)O)C(C)(C)S[C@H]12
Actelion Java MolfileCreator 2.0

  0  0  0  0  0  0              0 V3000
M  V30 BEGIN CTAB
M  V30 COUNTS 48 51 0 0 0
M  V30 BEGIN ATOM
M  V30 1 Cl -0.4971 -3.9825 4.0656 0
M  V30 2 C -0.6621 -4.1163 2.3501 0
M  V30 3 C -1.3844 -3.1951 1.584 0
M  V30 4 C -0.031 -5.1913 1.7181 0
M  V30 5 N -2.0165 -2.1126 2.2133 0
M  V30 6 C -1.4819 -3.3461 0.1964 0
M  V30 7 C -0.1215 -5.3453 0.3337 0
M  V30 8 N -3.2814 -2.262 2.6696 0
M  V30 9 C -1.5346 -0.8241 2.3737 0
M  V30 10 Cl -2.3674 -2.2499 -0.8051 0
M  V30 11 C -0.8457 -4.4242 -0.4248 0
M  V30 12 C -3.591 -1.0695 3.1687 0
M  V30 13 C -2.5496 -0.1275 3.027 0
M  V30 14 C -0.2187 -0.418 1.9463 0
M  V30 15 C -2.5728 1.2716 3.5202 0
M  V30 16 O 0.7529 -1.1673 1.9084 0
M  V30 17 N -0.1089 0.8938 1.5481 0
M  V30 18 C 1.1931 1.4537 1.1044 0 CFG=2
M  V30 19 C 1.132 2.8682 0.4737 0
M  V30 20 C 1.738 1.0177 -0.2807 0 CFG=2
M  V30 21 O 0.6232 3.9296 0.7485 0
M  V30 22 N 1.7275 2.4297 -0.6637 0
M  V30 23 S 0.5829 0.283 -1.5066 0
M  V30 24 C 1.3135 2.8182 -2.0017 0 CFG=2
M  V30 25 C 1.0991 1.5193 -2.8045 0
M  V30 26 C 2.3212 3.7751 -2.6198 0
M  V30 27 C 2.3596 0.9787 -3.4923 0
M  V30 28 C -0.0356 1.661 -3.8209 0
M  V30 29 O 3.5185 3.8369 -2.3907 0
M  V30 30 O 1.7698 4.5766 -3.5553 0
M  V30 31 H 0.5376 -5.9127 2.3005 0
M  V30 32 H 0.3731 -6.1821 -0.1534 0
M  V30 33 H -0.9103 -4.5526 -1.5029 0
M  V30 34 H -4.5642 -0.9331 3.625 0
M  V30 35 H -2.8182 1.9604 2.706 0
M  V30 36 H -1.6043 1.5564 3.9429 0
M  V30 37 H -3.325 1.3972 4.306 0
M  V30 38 H -0.9455 1.4595 1.4877 0
M  V30 39 H 1.9357 1.4015 1.9105 0
M  V30 40 H 2.7435 0.5869 -0.2742 0
M  V30 41 H 0.3697 3.3702 -1.8896 0
M  V30 42 H 3.2033 0.884 -2.7998 0
M  V30 43 H 2.1813 -0.0061 -3.9401 0
M  V30 44 H 2.6772 1.6419 -4.305 0
M  V30 45 H 0.2228 2.3972 -4.5901 0
M  V30 46 H -0.9669 1.9957 -3.3494 0
M  V30 47 H -0.2402 0.7136 -4.3328 0
M  V30 48 H 2.513 5.1451 -3.852 0
M  V30 END ATOM
M  V30 BEGIN BOND
M  V30 1 1 1 2
M  V30 2 2 2 3
M  V30 3 1 2 4
M  V30 4 1 3 5
M  V30 5 1 3 6
M  V30 6 2 4 7
M  V30 7 1 5 8
M  V30 8 1 5 9
M  V30 9 1 6 10
M  V30 10 2 6 11
M  V30 11 2 8 12
M  V30 12 2 9 13
M  V30 13 1 9 14
M  V30 14 1 13 15
M  V30 15 2 14 16
M  V30 16 1 14 17
M  V30 17 1 17 18
M  V30 18 1 18 19
M  V30 19 1 18 20
M  V30 20 2 19 21
M  V30 21 1 19 22
M  V30 22 1 20 23
M  V30 23 1 22 24
M  V30 24 1 23 25
M  V30 25 1 24 26
M  V30 26 1 25 27
M  V30 27 1 25 28
M  V30 28 2 26 29
M  V30 29 1 26 30
M  V30 30 1 7 11
M  V30 31 1 12 13
M  V30 32 1 20 22
M  V30 33 1 24 25
M  V30 34 1 4 31
M  V30 35 1 7 32
M  V30 36 1 11 33
M  V30 37 1 12 34
M  V30 38 1 15 35
M  V30 39 1 15 36
M  V30 40 1 15 37
M  V30 41 1 17 38
M  V30 42 1 18 39
M  V30 43 1 20 40
M  V30 44 1 24 41
M  V30 45 1 27 42
M  V30 46 1 27 43
M  V30 47 1 27 44
M  V30 48 1 28 45
M  V30 49 1 28 46
M  V30 50 1 28 47
M  V30 51 1 30 48
M  V30 END BOND
M  V30 BEGIN COLLECTION
M  V30 MDLV30/STEABS ATOMS=(3 18 20 24)
M  V30 END COLLECTION
M  V30 END CTAB
M  END
>  <NO.>
2211

>  <Name>
prazocillin

>  <SMILES>
Cc1cnn(-c2c(Cl)cccc2Cl)c1C(=O)N[C@@H]1C(=O)N2[C@@H](C(=O)O)C(C)(C)S[C@H]12

>  <logBB>


>  <Class>
-1

>  <MW>
468.04

>  <nHBAcc>
5

>  <nHBDon>
2

>  <SLogP>
2.73

>  <TopoPSA>
104.53

>  <MMFF94 Energy>
12.706

$$$$
Cc1csc2ccc3[nH]c4c(c3c12)CN(C)CC4
Actelion Java MolfileCreator 2.0

  0  0  0  0  0  0              0 V3000
M  V30 BEGIN CTAB
M  V30 COUNTS 34 37 0 0 0
M  V30 BEGIN ATOM
M  V30 1 S -0.0811 -0.3247 -4.6355 0
M  V30 2 C -0.7657 -0.7879 -3.1267 0
M  V30 3 C 0.7534 0.9764 -3.9257 0
M  V30 4 C -0.2559 0.0025 -2.1038 0
M  V30 5 C -1.7051 -1.8099 -2.9181 0
M  V30 6 C 0.5456 1.0982 -2.5597 0
M  V30 7 C -0.6564 -0.3442 -0.7521 0
M  V30 8 C -2.1811 -2.0566 -1.6323 0
M  V30 9 C 1.0663 2.281 -1.8225 0
M  V30 10 C -1.6288 -1.3225 -0.5885 0
M  V30 11 C -0.1993 0.0745 0.5225 0
M  V30 12 N -1.8854 -1.3946 0.7618 0
M  V30 13 C -1.0246 -0.5763 1.43 0
M  V30 14 C 0.9251 0.9456 0.9945 0
M  V30 15 C -0.9195 -0.4847 2.9119 0
M  V30 16 N 1.2946 0.687 2.4131 0
M  V30 17 C 0.0969 0.6204 3.2798 0
M  V30 18 C 2.1356 -0.5017 2.5423 0
M  V30 19 H 1.3329 1.6338 -4.5599 0
M  V30 20 H -2.0828 -2.3885 -3.7568 0
M  V30 21 H -2.9283 -2.824 -1.4578 0
M  V30 22 H 2.0161 2.0555 -1.3338 0
M  V30 23 H 1.2567 3.1136 -2.5106 0
M  V30 24 H 0.3323 2.6491 -1.1027 0
M  V30 25 H -2.5598 -2.0164 1.1862 0
M  V30 26 H 0.6196 1.9945 0.9303 0
M  V30 27 H 1.8106 0.806 0.3692 0
M  V30 28 H -1.894 -0.2573 3.3574 0
M  V30 29 H -0.5825 -1.4484 3.3112 0
M  V30 30 H 0.3974 0.5052 4.3287 0
M  V30 31 H -0.4077 1.5951 3.2292 0
M  V30 32 H 3.0678 -0.3691 1.9819 0
M  V30 33 H 1.6557 -1.419 2.1863 0
M  V30 34 H 2.4236 -0.6523 3.5887 0
M  V30 END ATOM
M  V30 BEGIN BOND
M  V30 1 1 1 2
M  V30 2 1 1 3
M  V30 3 2 2 4
M  V30 4 1 2 5
M  V30 5 2 3 6
M  V30 6 1 4 7
M  V30 7 2 5 8
M  V30 8 1 6 9
M  V30 9 2 7 10
M  V30 10 1 7 11
M  V30 11 1 10 12
M  V30 12 2 11 13
M  V30 13 1 11 14
M  V30 14 1 13 15
M  V30 15 1 14 16
M  V30 16 1 15 17
M  V30 17 1 16 18
M  V30 18 1 4 6
M  V30 19 1 8 10
M  V30 20 1 12 13
M  V30 21 1 16 17
M  V30 22 1 3 19
M  V30 23 1 5 20
M  V30 24 1 8 21
M  V30 25 1 9 22
M  V30 26 1 9 23
M  V30 27 1 9 24
M  V30 28 1 12 25
M  V30 29 1 14 26
M  V30 30 1 14 27
M  V30 31 1 15 28
M  V30 32 1 15 29
M  V30 33 1 17 30
M  V30 34 1 17 31
M  V30 35 1 18 32
M  V30 36 1 18 33
M  V30 37 1 18 34
M  V30 END BOND
M  V30 END CTAB
M  END
>  <NO.>
2212

>  <Name>
tienocarbine

>  <SMILES>
Cc1csc2ccc3[nH]c4c(c3c12)CN(C)CC4

>  <logBB>


>  <Class>
1

>  <MW>
256.1

>  <nHBAcc>
2

>  <nHBDon>
1

>  <SLogP>
3.68

>  <TopoPSA>
19.03

>  <MMFF94 Energy>
79.529

$$$$
Cc1nc2c(C)cccn2c(=O)c1CCN1CCC(c2noc3cc(F)ccc23)CC1
Actelion Java MolfileCreator 2.0

  0  0  0  0  0  0              0 V3000
M  V30 BEGIN CTAB
M  V30 COUNTS 56 60 0 0 0
M  V30 BEGIN ATOM
M  V30 1 F 7.9043 -2.8175 -1.3677 0
M  V30 2 C 6.626 -2.4691 -1.5688 0
M  V30 3 C 6.3416 -1.1801 -2.014 0
M  V30 4 C 5.6255 -3.4096 -1.3241 0
M  V30 5 C 4.9933 -0.8945 -2.1985 0
M  V30 6 C 4.2755 -3.0856 -1.5217 0
M  V30 7 O 4.4757 0.2877 -2.6207 0
M  V30 8 C 3.9619 -1.7902 -1.9727 0
M  V30 9 N 3.0968 0.1961 -2.6794 0
M  V30 10 C 2.7894 -1.0508 -2.2948 0
M  V30 11 C 1.3621 -1.527 -2.2244 0
M  V30 12 C 0.7129 -1.2092 -0.8718 0
M  V30 13 C 0.4786 -1.0408 -3.3817 0
M  V30 14 C 0.2001 0.2281 -0.7923 0
M  V30 15 C -0.0758 0.3713 -3.1762 0
M  V30 16 N -0.7608 0.4888 -1.878 0
M  V30 17 C -1.3732 1.827 -1.7337 0
M  V30 18 C -2.7617 1.7678 -1.0664 0
M  V30 19 C -2.7545 1.4347 0.4039 0
M  V30 20 C -2.3452 2.5397 1.3155 0
M  V30 21 C -3.1046 0.2635 0.9653 0
M  V30 22 O -2.0239 3.6313 0.8402 0
M  V30 23 N -2.353 2.2543 2.6725 0
M  V30 24 N -3.1016 0.0381 2.3177 0
M  V30 25 C -3.508 -0.9531 0.1706 0
M  V30 26 C -2.7398 0.9964 3.1128 0
M  V30 27 C -1.9726 3.2445 3.5708 0
M  V30 28 C -2.729 0.7578 4.5996 0
M  V30 29 C -1.9609 3.0342 4.8911 0
M  V30 30 C -2.3508 1.7545 5.4151 0
M  V30 31 C -3.1459 -0.5934 5.0879 0
M  V30 32 H 7.1188 -0.4521 -2.2018 0
M  V30 33 H 5.9044 -4.4009 -0.9767 0
M  V30 34 H 3.4991 -3.82 -1.3291 0
M  V30 35 H 1.4075 -2.6223 -2.3103 0
M  V30 36 H 1.4129 -1.3952 -0.0479 0
M  V30 37 H -0.1348 -1.8909 -0.7185 0
M  V30 38 H -0.373 -1.7289 -3.4751 0
M  V30 39 H 1.0199 -1.09 -4.3345 0
M  V30 40 H -0.2754 0.3515 0.1849 0
M  V30 41 H 1.0372 0.9369 -0.8236 0
M  V30 42 H 0.7147 1.1242 -3.2742 0
M  V30 43 H -0.7924 0.5592 -3.986 0
M  V30 44 H -1.5434 2.2657 -2.7265 0
M  V30 45 H -0.7041 2.5268 -1.2174 0
M  V30 46 H -3.2472 2.7447 -1.1988 0
M  V30 47 H -3.4038 1.0801 -1.6286 0
M  V30 48 H -3.2381 -0.8978 -0.886 0
M  V30 49 H -4.5899 -1.1053 0.2427 0
M  V30 50 H -3.0108 -1.8448 0.5696 0
M  V30 51 H -1.6824 4.2058 3.1539 0
M  V30 52 H -1.6621 3.8156 5.5821 0
M  V30 53 H -2.3292 1.6244 6.493 0
M  V30 54 H -4.175 -0.8122 4.7846 0
M  V30 55 H -3.1028 -0.6612 6.1803 0
M  V30 56 H -2.4878 -1.3692 4.6834 0
M  V30 END ATOM
M  V30 BEGIN BOND
M  V30 1 1 1 2
M  V30 2 2 2 3
M  V30 3 1 2 4
M  V30 4 1 3 5
M  V30 5 2 4 6
M  V30 6 1 5 7
M  V30 7 2 5 8
M  V30 8 1 7 9
M  V30 9 1 8 10
M  V30 10 1 10 11
M  V30 11 1 11 12
M  V30 12 1 11 13
M  V30 13 1 12 14
M  V30 14 1 13 15
M  V30 15 1 14 16
M  V30 16 1 16 17
M  V30 17 1 17 18
M  V30 18 1 18 19
M  V30 19 1 19 20
M  V30 20 2 19 21
M  V30 21 2 20 22
M  V30 22 1 20 23
M  V30 23 1 21 24
M  V30 24 1 21 25
M  V30 25 1 23 26
M  V30 26 1 23 27
M  V30 27 1 26 28
M  V30 28 2 27 29
M  V30 29 2 28 30
M  V30 30 1 28 31
M  V30 31 1 6 8
M  V30 32 2 9 10
M  V30 33 1 15 16
M  V30 34 2 24 26
M  V30 35 1 29 30
M  V30 36 1 3 32
M  V30 37 1 4 33
M  V30 38 1 6 34
M  V30 39 1 11 35
M  V30 40 1 12 36
M  V30 41 1 12 37
M  V30 42 1 13 38
M  V30 43 1 13 39
M  V30 44 1 14 40
M  V30 45 1 14 41
M  V30 46 1 15 42
M  V30 47 1 15 43
M  V30 48 1 17 44
M  V30 49 1 17 45
M  V30 50 1 18 46
M  V30 51 1 18 47
M  V30 52 1 25 48
M  V30 53 1 25 49
M  V30 54 1 25 50
M  V30 55 1 27 51
M  V30 56 1 29 52
M  V30 57 1 30 53
M  V30 58 1 31 54
M  V30 59 1 31 55
M  V30 60 1 31 56
M  V30 END BOND
M  V30 END CTAB
M  END
>  <NO.>
2213

>  <Name>
ocaperidone

>  <SMILES>
Cc1nc2c(C)cccn2c(=O)c1CCN1CCC(c2noc3cc(F)ccc23)CC1

>  <logBB>


>  <Class>
1

>  <MW>
420.2

>  <nHBAcc>
5

>  <nHBDon>
0

>  <SLogP>
4.01

>  <TopoPSA>
63.64

>  <MMFF94 Energy>
16.095

$$$$
Cc1nc2ccccc2c(=O)n1-c1ccccc1Cl
Actelion Java MolfileCreator 2.0

  0  0  0  0  0  0              0 V3000
M  V30 BEGIN CTAB
M  V30 COUNTS 30 32 0 0 0
M  V30 BEGIN ATOM
M  V30 1 Cl 2.7644 1.3814 -0.6499 0
M  V30 2 C 2.6033 0.2227 0.6212 0
M  V30 3 C 1.3891 -0.4352 0.8712 0
M  V30 4 C 3.7254 -0.065 1.4012 0
M  V30 5 N 0.2257 -0.1629 0.1032 0
M  V30 6 C 1.3054 -1.3665 1.9154 0
M  V30 7 C 3.6383 -1.0011 2.4336 0
M  V30 8 C -0.603 0.8651 0.5548 0
M  V30 9 C -0.065 -0.8817 -1.0439 0
M  V30 10 C 2.4303 -1.6491 2.6914 0
M  V30 11 O -0.4195 1.5211 1.5789 0
M  V30 12 C -1.7856 1.1476 -0.2778 0
M  V30 13 N -1.1077 -0.662 -1.7819 0
M  V30 14 C 0.8698 -1.993 -1.4683 0
M  V30 15 C -1.9838 0.3651 -1.4132 0
M  V30 16 C -2.6823 2.168 0.063 0
M  V30 17 C -3.1004 0.6158 -2.2143 0
M  V30 18 C -3.7927 2.4081 -0.7449 0
M  V30 19 C -4.0018 1.6317 -1.884 0
M  V30 20 H 4.6696 0.44 1.2136 0
M  V30 21 H 0.3644 -1.8655 2.1341 0
M  V30 22 H 4.5123 -1.2186 3.0434 0
M  V30 23 H 2.3625 -2.3686 3.5043 0
M  V30 24 H 1.8695 -1.5954 -1.6607 0
M  V30 25 H 0.929 -2.7545 -0.6861 0
M  V30 26 H 0.5048 -2.4667 -2.3846 0
M  V30 27 H -2.5155 2.7726 0.9517 0
M  V30 28 H -3.2659 0.013 -3.1038 0
M  V30 29 H -4.4927 3.1994 -0.4876 0
M  V30 30 H -4.8658 1.8157 -2.5179 0
M  V30 END ATOM
M  V30 BEGIN BOND
M  V30 1 1 1 2
M  V30 2 2 2 3
M  V30 3 1 2 4
M  V30 4 1 3 5
M  V30 5 1 3 6
M  V30 6 2 4 7
M  V30 7 1 5 8
M  V30 8 1 5 9
M  V30 9 2 6 10
M  V30 10 2 8 11
M  V30 11 1 8 12
M  V30 12 2 9 13
M  V30 13 1 9 14
M  V30 14 2 12 15
M  V30 15 1 12 16
M  V30 16 1 15 17
M  V30 17 2 16 18
M  V30 18 2 17 19
M  V30 19 1 7 10
M  V30 20 1 13 15
M  V30 21 1 18 19
M  V30 22 1 4 20
M  V30 23 1 6 21
M  V30 24 1 7 22
M  V30 25 1 10 23
M  V30 26 1 14 24
M  V30 27 1 14 25
M  V30 28 1 14 26
M  V30 29 1 16 27
M  V30 30 1 17 28
M  V30 31 1 18 29
M  V30 32 1 19 30
M  V30 END BOND
M  V30 END CTAB
M  END
>  <NO.>
2214

>  <Name>
mecloqualone

>  <SMILES>
Cc1nc2ccccc2c(=O)n1-c1ccccc1Cl

>  <logBB>


>  <Class>
1

>  <MW>
270.06

>  <nHBAcc>
2

>  <nHBDon>
0

>  <SLogP>
3.35

>  <TopoPSA>
34.89

>  <MMFF94 Energy>
43.823

$$$$
Cc1nc2n(c(=O)c1CCN1CCC(C(=O)c3ccc(F)cc3)CC1)CCS2
Actelion Java MolfileCreator 2.0

  0  0  0  0  0  0              0 V3000
M  V30 BEGIN CTAB
M  V30 COUNTS 52 55 0 0 0
M  V30 BEGIN ATOM
M  V30 1 S -6.5 4.5467 0.1621 0
M  V30 2 C -5.0968 3.6278 -0.3058 0
M  V30 3 C -5.602 5.3757 1.5048 0
M  V30 4 N -5.1478 2.6076 -1.0851 0
M  V30 5 N -3.97 4.1294 0.2715 0
M  V30 6 C -4.1524 5.3262 1.0591 0
M  V30 7 C -3.9536 1.9777 -1.3605 0
M  V30 8 C -2.7483 3.5684 0.0326 0
M  V30 9 C -2.7614 2.3754 -0.8657 0
M  V30 10 C -4.1166 0.7759 -2.2572 0
M  V30 11 O -1.7042 3.9962 0.5159 0
M  V30 12 C -1.4183 1.756 -1.167 0
M  V30 13 C -0.9775 0.7904 -0.0531 0
M  V30 14 N 0.3145 0.1346 -0.3383 0
M  V30 15 C 0.8926 -0.4033 0.9015 0
M  V30 16 C 0.1818 -0.9192 -1.3558 0
M  V30 17 C 2.265 -1.0306 0.6558 0
M  V30 18 C 1.5339 -1.5587 -1.6703 0
M  V30 19 C 2.1898 -2.1297 -0.4061 0
M  V30 20 C 3.5796 -2.685 -0.7158 0
M  V30 21 O 4.1562 -2.4419 -1.7754 0
M  V30 22 C 4.2783 -3.5511 0.2878 0
M  V30 23 C 5.6464 -3.8096 0.0962 0
M  V30 24 C 3.6242 -4.1194 1.3901 0
M  V30 25 C 6.3506 -4.6128 0.996 0
M  V30 26 C 4.3326 -4.9232 2.2893 0
M  V30 27 C 5.6869 -5.1612 2.0852 0
M  V30 28 F 6.3584 -5.932 2.9498 0
M  V30 29 H -5.7451 4.7971 2.423 0
M  V30 30 H -5.9553 6.3971 1.6673 0
M  V30 31 H -3.9084 6.1826 0.418 0
M  V30 32 H -3.4613 5.3441 1.9084 0
M  V30 33 H -4.233 1.0965 -3.2974 0
M  V30 34 H -3.2776 0.0776 -2.1988 0
M  V30 35 H -5.0104 0.209 -1.9725 0
M  V30 36 H -0.6641 2.5439 -1.2929 0
M  V30 37 H -1.4533 1.2506 -2.1368 0
M  V30 38 H -0.8851 1.3779 0.87 0
M  V30 39 H -1.7549 0.0381 0.1368 0
M  V30 40 H 0.2223 -1.1469 1.3527 0
M  V30 41 H 1.0216 0.4041 1.6327 0
M  V30 42 H -0.2089 -0.5062 -2.2913 0
M  V30 43 H -0.5228 -1.6932 -1.0243 0
M  V30 44 H 2.6491 -1.4269 1.6022 0
M  V30 45 H 2.9751 -0.2541 0.3405 0
M  V30 46 H 1.3983 -2.3555 -2.4121 0
M  V30 47 H 2.1878 -0.8088 -2.1357 0
M  V30 48 H 1.5538 -2.9531 -0.0606 0
M  V30 49 H 6.1713 -3.3834 -0.7577 0
M  V30 50 H 2.5664 -3.962 1.574 0
M  V30 51 H 7.4076 -4.8122 0.8507 0
M  V30 52 H 3.8361 -5.3681 3.1466 0
M  V30 END ATOM
M  V30 BEGIN BOND
M  V30 1 1 1 2
M  V30 2 1 1 3
M  V30 3 2 2 4
M  V30 4 1 2 5
M  V30 5 1 3 6
M  V30 6 1 4 7
M  V30 7 1 5 8
M  V30 8 2 7 9
M  V30 9 1 7 10
M  V30 10 2 8 11
M  V30 11 1 9 12
M  V30 12 1 12 13
M  V30 13 1 13 14
M  V30 14 1 14 15
M  V30 15 1 14 16
M  V30 16 1 15 17
M  V30 17 1 16 18
M  V30 18 1 17 19
M  V30 19 1 19 20
M  V30 20 2 20 21
M  V30 21 1 20 22
M  V30 22 2 22 23
M  V30 23 1 22 24
M  V30 24 1 23 25
M  V30 25 2 24 26
M  V30 26 2 25 27
M  V30 27 1 27 28
M  V30 28 1 5 6
M  V30 29 1 8 9
M  V30 30 1 18 19
M  V30 31 1 26 27
M  V30 32 1 3 29
M  V30 33 1 3 30
M  V30 34 1 6 31
M  V30 35 1 6 32
M  V30 36 1 10 33
M  V30 37 1 10 34
M  V30 38 1 10 35
M  V30 39 1 12 36
M  V30 40 1 12 37
M  V30 41 1 13 38
M  V30 42 1 13 39
M  V30 43 1 15 40
M  V30 44 1 15 41
M  V30 45 1 16 42
M  V30 46 1 16 43
M  V30 47 1 17 44
M  V30 48 1 17 45
M  V30 49 1 18 46
M  V30 50 1 18 47
M  V30 51 1 19 48
M  V30 52 1 23 49
M  V30 53 1 24 50
M  V30 54 1 25 51
M  V30 55 1 26 52
M  V30 END BOND
M  V30 END CTAB
M  END
>  <NO.>
2215

>  <Name>
setoperone

>  <SMILES>
Cc1nc2n(c(=O)c1CCN1CCC(C(=O)c3ccc(F)cc3)CC1)CCS2

>  <logBB>


>  <Class>
1

>  <MW>
401.16

>  <nHBAcc>
5

>  <nHBDon>
0

>  <SLogP>
2.93

>  <TopoPSA>
55.2

>  <MMFF94 Energy>
-21.662

$$$$
Cc1nc2n(n1)C(N1CCN(C)CC1)=Nc1ccccc1C2
Actelion Java MolfileCreator 2.0

  0  0  0  0  0  0              0 V3000
M  V30 BEGIN CTAB
M  V30 COUNTS 42 45 0 0 0
M  V30 BEGIN ATOM
M  V30 1 N 1.1181 -0.9583 -0.0798 0
M  V30 2 C 0.0231 -0.2502 0.0659 0
M  V30 3 C 1.2447 -2.214 -0.6907 0
M  V30 4 N 0.0944 0.8934 0.8721 0
M  V30 5 N -1.2112 -0.6021 -0.5539 0
M  V30 6 C 0.6308 -2.6094 -1.8869 0
M  V30 7 C 2.111 -3.1159 -0.0569 0
M  V30 8 C 1.0384 0.9634 1.9986 0
M  V30 9 C -0.8504 2.0179 0.8206 0
M  V30 10 N -2.4171 -0.2369 -0.0283 0
M  V30 11 C -1.4207 -1.2711 -1.7384 0
M  V30 12 C 0.8786 -3.8913 -2.4129 0
M  V30 13 C -0.2967 -1.6785 -2.6077 0
M  V30 14 C 2.3538 -4.3873 -0.5789 0
M  V30 15 C 1.7459 2.3314 2.0496 0
M  V30 16 C -0.1128 3.3737 0.9348 0
M  V30 17 C -3.2791 -0.7771 -0.8936 0
M  V30 18 N -2.7117 -1.4016 -1.9669 0
M  V30 19 C 1.7344 -4.7757 -1.7597 0
M  V30 20 N 0.7861 3.4545 2.1043 0
M  V30 21 C -4.7419 -0.6784 -0.7193 0
M  V30 22 C 1.4908 4.7343 2.1274 0
M  V30 23 H 2.6062 -2.8148 0.8636 0
M  V30 24 H 0.4833 0.7973 2.9304 0
M  V30 25 H 1.8039 0.1817 1.9473 0
M  V30 26 H -1.393 2.0412 -0.13 0
M  V30 27 H -1.5792 1.9193 1.6338 0
M  V30 28 H 0.3987 -4.2093 -3.3364 0
M  V30 29 H 0.2621 -0.7992 -2.9511 0
M  V30 30 H -0.6987 -2.1556 -3.5098 0
M  V30 31 H 3.0267 -5.0666 -0.0631 0
M  V30 32 H 2.3997 2.4293 1.1724 0
M  V30 33 H 2.385 2.3538 2.9405 0
M  V30 34 H 0.4579 3.5388 0.0106 0
M  V30 35 H -0.8669 4.1677 0.997 0
M  V30 36 H 1.917 -5.7642 -2.1728 0
M  V30 37 H -5.2669 -1.2387 -1.499 0
M  V30 38 H -5.0649 0.3657 -0.7743 0
M  V30 39 H -5.0429 -1.0847 0.2513 0
M  V30 40 H 2.1119 4.8847 1.2371 0
M  V30 41 H 0.7775 5.5633 2.1937 0
M  V30 42 H 2.1344 4.8012 3.0115 0
M  V30 END ATOM
M  V30 BEGIN BOND
M  V30 1 2 1 2
M  V30 2 1 1 3
M  V30 3 1 2 4
M  V30 4 1 2 5
M  V30 5 2 3 6
M  V30 6 1 3 7
M  V30 7 1 4 8
M  V30 8 1 4 9
M  V30 9 1 5 10
M  V30 10 1 5 11
M  V30 11 1 6 12
M  V30 12 1 6 13
M  V30 13 2 7 14
M  V30 14 1 8 15
M  V30 15 1 9 16
M  V30 16 2 10 17
M  V30 17 2 11 18
M  V30 18 2 12 19
M  V30 19 1 15 20
M  V30 20 1 17 21
M  V30 21 1 20 22
M  V30 22 1 11 13
M  V30 23 1 14 19
M  V30 24 1 16 20
M  V30 25 1 17 18
M  V30 26 1 7 23
M  V30 27 1 8 24
M  V30 28 1 8 25
M  V30 29 1 9 26
M  V30 30 1 9 27
M  V30 31 1 12 28
M  V30 32 1 13 29
M  V30 33 1 13 30
M  V30 34 1 14 31
M  V30 35 1 15 32
M  V30 36 1 15 33
M  V30 37 1 16 34
M  V30 38 1 16 35
M  V30 39 1 19 36
M  V30 40 1 21 37
M  V30 41 1 21 38
M  V30 42 1 21 39
M  V30 43 1 22 40
M  V30 44 1 22 41
M  V30 45 1 22 42
M  V30 END BOND
M  V30 END CTAB
M  END
>  <NO.>
2217

>  <Name>
batelapine

>  <SMILES>
Cc1nc2n(n1)C(N1CCN(C)CC1)=Nc1ccccc1C2

>  <logBB>


>  <Class>
1

>  <MW>
296.17

>  <nHBAcc>
5

>  <nHBDon>
0

>  <SLogP>
1.27

>  <TopoPSA>
49.55

>  <MMFF94 Energy>
143.55

$$$$
Cc1ncc(CSSCc2cnc(C)c(O)c2CO)c(CO)c1O
Actelion Java MolfileCreator 2.0

  0  0  0  0  0  0              0 V3000
M  V30 BEGIN CTAB
M  V30 COUNTS 44 45 0 0 0
M  V30 BEGIN ATOM
M  V30 1 S -0.1622 -0.974 -2.5989 0
M  V30 2 S 1.7352 -1.6497 -2.1604 0
M  V30 3 C 0.0436 0.7707 -3.0781 0
M  V30 4 C 1.9455 -1.4167 -0.3513 0
M  V30 5 C 0.5585 1.6802 -1.9947 0
M  V30 6 C 0.6994 -1.599 0.4799 0
M  V30 7 C -0.2384 2.2152 -0.958 0
M  V30 8 C 1.9068 2.0437 -2.0327 0
M  V30 9 C -0.0014 -2.816 0.6294 0
M  V30 10 C 0.1859 -0.4724 1.1243 0
M  V30 11 C 0.3729 3.1173 -0.0664 0
M  V30 12 C -1.7096 1.8854 -0.8431 0
M  V30 13 N 2.5061 2.8766 -1.1581 0
M  V30 14 C -1.2054 -2.7855 1.3571 0
M  V30 15 C 0.4919 -4.0769 -0.0427 0
M  V30 16 N -0.9905 -0.4214 1.7868 0
M  V30 17 O -0.3274 3.706 0.9532 0
M  V30 18 C 1.7294 3.4214 -0.1933 0
M  V30 19 O -2.1432 1.9704 0.5154 0
M  V30 20 O -1.9542 -3.916 1.5504 0
M  V30 21 C -1.6717 -1.5863 1.9025 0
M  V30 22 O -0.021 -5.248 0.5971 0
M  V30 23 C 2.3974 4.3709 0.7571 0
M  V30 24 C -2.964 -1.5401 2.6644 0
M  V30 25 H 0.6911 0.8101 -3.9623 0
M  V30 26 H -0.9286 1.1415 -3.4231 0
M  V30 27 H 2.7169 -2.1133 -0.0051 0
M  V30 28 H 2.3697 -0.4173 -0.2039 0
M  V30 29 H 2.5727 1.6615 -2.8041 0
M  V30 30 H 0.7206 0.4746 1.1038 0
M  V30 31 H -2.2851 2.6111 -1.4265 0
M  V30 32 H -1.9526 0.8827 -1.1991 0
M  V30 33 H 0.1623 -4.0962 -1.0854 0
M  V30 34 H 1.5825 -4.142 0.0066 0
M  V30 35 H -1.2006 3.2577 1.0149 0
M  V30 36 H -1.9161 1.108 0.9359 0
M  V30 37 H -1.3874 -4.6758 1.2907 0
M  V30 38 H 0.4057 -6.004 0.1527 0
M  V30 39 H 3.4549 4.4957 0.5021 0
M  V30 40 H 2.3399 3.9877 1.7806 0
M  V30 41 H 1.9209 5.3552 0.7103 0
M  V30 42 H -3.1768 -0.5215 3.0054 0
M  V30 43 H -2.9099 -2.1872 3.5453 0
M  V30 44 H -3.7934 -1.8618 2.0269 0
M  V30 END ATOM
M  V30 BEGIN BOND
M  V30 1 1 1 2
M  V30 2 1 1 3
M  V30 3 1 2 4
M  V30 4 1 3 5
M  V30 5 1 4 6
M  V30 6 2 5 7
M  V30 7 1 5 8
M  V30 8 2 6 9
M  V30 9 1 6 10
M  V30 10 1 7 11
M  V30 11 1 7 12
M  V30 12 2 8 13
M  V30 13 1 9 14
M  V30 14 1 9 15
M  V30 15 2 10 16
M  V30 16 1 11 17
M  V30 17 2 11 18
M  V30 18 1 12 19
M  V30 19 1 14 20
M  V30 20 2 14 21
M  V30 21 1 15 22
M  V30 22 1 18 23
M  V30 23 1 21 24
M  V30 24 1 13 18
M  V30 25 1 16 21
M  V30 26 1 3 25
M  V30 27 1 3 26
M  V30 28 1 4 27
M  V30 29 1 4 28
M  V30 30 1 8 29
M  V30 31 1 10 30
M  V30 32 1 12 31
M  V30 33 1 12 32
M  V30 34 1 15 33
M  V30 35 1 15 34
M  V30 36 1 17 35
M  V30 37 1 19 36
M  V30 38 1 20 37
M  V30 39 1 22 38
M  V30 40 1 23 39
M  V30 41 1 23 40
M  V30 42 1 23 41
M  V30 43 1 24 42
M  V30 44 1 24 43
M  V30 45 1 24 44
M  V30 END BOND
M  V30 END CTAB
M  END
>  <NO.>
2218

>  <Name>
pyritinol

>  <SMILES>
Cc1ncc(CSSCc2cnc(C)c(O)c2CO)c(CO)c1O

>  <logBB>


>  <Class>
1

>  <MW>
368.09

>  <nHBAcc>
8

>  <nHBDon>
4

>  <SLogP>
2.57

>  <TopoPSA>
106.7

>  <MMFF94 Energy>
47.252

$$$$
Cc1ncc([N+](=O)[O-])n1CC(O)CCl
Actelion Java MolfileCreator 2.0

  0  0  0  0  0  0              0 V3000
M  V30 BEGIN CTAB
M  V30 COUNTS 24 24 0 0 0
M  V30 BEGIN ATOM
M  V30 1 Cl -2.6465 2.8874 0.0801 0
M  V30 2 C -1.1707 1.902 0.3217 0
M  V30 3 C -1.5524 0.5081 0.8233 0 CFG=1
M  V30 4 O -2.4238 -0.1371 -0.1143 0
M  V30 5 C -0.359 -0.4191 1.1187 0
M  V30 6 N 0.6564 -0.5122 0.0794 0
M  V30 7 C 1.9179 0.0393 0.0614 0
M  V30 8 C 0.577 -1.3171 -1.051 0
M  V30 9 N 2.4702 0.9179 1.0315 0 CHG=1
M  V30 10 C 2.5372 -0.433 -1.0654 0
M  V30 11 N 1.6943 -1.2584 -1.7523 0
M  V30 12 C -0.5989 -2.144 -1.4369 0
M  V30 13 O 1.6827 1.5597 1.7345 0
M  V30 14 O 3.7024 0.9875 1.0795 0 CHG=-1
M  V30 15 H -0.669 1.8614 -0.6485 0
M  V30 16 H -0.5492 2.4375 1.0404 0
M  V30 17 H -2.1277 0.6028 1.7528 0
M  V30 18 H -3.143 0.4943 -0.3159 0
M  V30 19 H -0.7201 -1.4404 1.2898 0
M  V30 20 H 0.1241 -0.1286 2.0546 0
M  V30 21 H 3.5392 -0.2255 -1.4205 0
M  V30 22 H -0.2805 -2.9555 -2.0999 0
M  V30 23 H -1.3264 -1.5387 -1.9845 0
M  V30 24 H -1.0857 -2.6043 -0.5738 0
M  V30 END ATOM
M  V30 BEGIN BOND
M  V30 1 1 1 2
M  V30 2 1 2 3
M  V30 3 1 3 4
M  V30 4 1 3 5
M  V30 5 1 5 6
M  V30 6 1 6 7
M  V30 7 1 6 8
M  V30 8 1 7 9
M  V30 9 2 7 10
M  V30 10 2 8 11
M  V30 11 1 8 12
M  V30 12 2 9 13
M  V30 13 1 9 14
M  V30 14 1 10 11
M  V30 15 1 2 15
M  V30 16 1 2 16
M  V30 17 1 3 17
M  V30 18 1 4 18
M  V30 19 1 5 19
M  V30 20 1 5 20
M  V30 21 1 10 21
M  V30 22 1 12 22
M  V30 23 1 12 23
M  V30 24 1 12 24
M  V30 END BOND
M  V30 BEGIN COLLECTION
M  V30 MDLV30/STERAC1 ATOMS=(1 3)
M  V30 END COLLECTION
M  V30 END CTAB
M  END
>  <NO.>
2219

>  <Name>
ornidazole

>  <SMILES>
Cc1ncc([N+](=O)[O-])n1CC(O)CCl

>  <logBB>


>  <Class>
1

>  <MW>
219.04

>  <nHBAcc>
4

>  <nHBDon>
1

>  <SLogP>
0.7

>  <TopoPSA>
81.19

>  <MMFF94 Energy>
23.693

$$$$
Cc1nccc2c1[nH]c1ccccc12
Actelion Java MolfileCreator 2.0

  0  0  0  0  0  0              0 V3000
M  V30 BEGIN CTAB
M  V30 COUNTS 24 26 0 0 0
M  V30 BEGIN ATOM
M  V30 1 N -2.3943 0.3987 -2.1546 0
M  V30 2 C -1.4849 1.2252 -1.5707 0
M  V30 3 C -2.4044 -0.9154 -1.8436 0
M  V30 4 C -0.5856 0.6626 -0.6577 0
M  V30 5 C -1.5113 2.6727 -1.9457 0
M  V30 6 C -1.5391 -1.5223 -0.949 0
M  V30 7 N 0.4252 1.2435 0.0735 0
M  V30 8 C -0.5917 -0.6928 -0.3331 0
M  V30 9 C 1.0692 0.3142 0.8555 0
M  V30 10 C 0.452 -0.9132 0.6213 0
M  V30 11 C 2.1408 0.4678 1.7431 0
M  V30 12 C 0.9289 -2.0484 1.3092 0
M  V30 13 C 2.5947 -0.6724 2.4123 0
M  V30 14 C 1.9995 -1.9137 2.2006 0
M  V30 15 H -3.1639 -1.499 -2.357 0
M  V30 16 H -0.5534 2.965 -2.3862 0
M  V30 17 H -2.3012 2.8736 -2.6762 0
M  V30 18 H -1.698 3.2877 -1.06 0
M  V30 19 H -1.5971 -2.583 -0.7409 0
M  V30 20 H 0.6643 2.2235 0.0416 0
M  V30 21 H 2.6076 1.4329 1.9112 0
M  V30 22 H 0.4713 -3.0202 1.1508 0
M  V30 23 H 3.4258 -0.588 3.1091 0
M  V30 24 H 2.3685 -2.7878 2.7317 0
M  V30 END ATOM
M  V30 BEGIN BOND
M  V30 1 2 1 2
M  V30 2 1 1 3
M  V30 3 1 2 4
M  V30 4 1 2 5
M  V30 5 2 3 6
M  V30 6 1 4 7
M  V30 7 2 4 8
M  V30 8 1 7 9
M  V30 9 1 8 10
M  V30 10 1 9 11
M  V30 11 1 10 12
M  V30 12 2 11 13
M  V30 13 2 12 14
M  V30 14 1 6 8
M  V30 15 2 9 10
M  V30 16 1 13 14
M  V30 17 1 3 15
M  V30 18 1 5 16
M  V30 19 1 5 17
M  V30 20 1 5 18
M  V30 21 1 6 19
M  V30 22 1 7 20
M  V30 23 1 11 21
M  V30 24 1 12 22
M  V30 25 1 13 23
M  V30 26 1 14 24
M  V30 END BOND
M  V30 END CTAB
M  END
>  <NO.>
2220

>  <Name>
harman

>  <SMILES>
Cc1nccc2c1[nH]c1ccccc12

>  <logBB>


>  <Class>
1

>  <MW>
182.08

>  <nHBAcc>
1

>  <nHBDon>
1

>  <SLogP>
3.02

>  <TopoPSA>
28.68

>  <MMFF94 Energy>
23.998

$$$$
Cc1nccn1C(C)c1ccccc1
Actelion Java MolfileCreator 2.0

  0  0  0  0  0  0              0 V3000
M  V30 BEGIN CTAB
M  V30 COUNTS 28 29 0 0 0
M  V30 BEGIN ATOM
M  V30 1 N -1.2583 2.9905 -1.1009 0
M  V30 2 C -1.102 2.0715 -0.1681 0
M  V30 3 C -1.3633 2.3145 -2.2832 0
M  V30 4 N -1.1188 0.8053 -0.7223 0
M  V30 5 C -0.9225 2.35 1.2799 0
M  V30 6 C -1.2789 0.9603 -2.0764 0
M  V30 7 C -1.0192 -0.4599 0.0127 0 CFG=2
M  V30 8 C 0.42 -0.7769 0.3905 0
M  V30 9 C -1.6714 -1.6543 -0.6949 0
M  V30 10 C 1.4514 -0.7888 -0.5625 0
M  V30 11 C 0.7344 -1.1001 1.7215 0
M  V30 12 C 2.7611 -1.0988 -0.1911 0
M  V30 13 C 2.0447 -1.4106 2.0898 0
M  V30 14 C 3.0574 -1.4083 1.1339 0
M  V30 15 H -1.4943 2.8379 -3.2211 0
M  V30 16 H 0.0553 2.0034 1.6255 0
M  V30 17 H -0.9804 3.4268 1.4693 0
M  V30 18 H -1.7036 1.8657 1.8731 0
M  V30 19 H -1.3196 0.1306 -2.7666 0
M  V30 20 H -1.6004 -0.294 0.9297 0
M  V30 21 H -1.1426 -1.9296 -1.6143 0
M  V30 22 H -1.6704 -2.5364 -0.0443 0
M  V30 23 H -2.712 -1.4336 -0.9577 0
M  V30 24 H 1.2482 -0.5502 -1.6044 0
M  V30 25 H -0.0395 -1.1123 2.4863 0
M  V30 26 H 3.5511 -1.096 -0.9379 0
M  V30 27 H 2.276 -1.6546 3.1236 0
M  V30 28 H 4.078 -1.6478 1.4211 0
M  V30 END ATOM
M  V30 BEGIN BOND
M  V30 1 2 1 2
M  V30 2 1 1 3
M  V30 3 1 2 4
M  V30 4 1 2 5
M  V30 5 2 3 6
M  V30 6 1 4 7
M  V30 7 1 7 8
M  V30 8 1 7 9
M  V30 9 2 8 10
M  V30 10 1 8 11
M  V30 11 1 10 12
M  V30 12 2 11 13
M  V30 13 2 12 14
M  V30 14 1 4 6
M  V30 15 1 13 14
M  V30 16 1 3 15
M  V30 17 1 5 16
M  V30 18 1 5 17
M  V30 19 1 5 18
M  V30 20 1 6 19
M  V30 21 1 7 20
M  V30 22 1 9 21
M  V30 23 1 9 22
M  V30 24 1 9 23
M  V30 25 1 10 24
M  V30 26 1 11 25
M  V30 27 1 12 26
M  V30 28 1 13 27
M  V30 29 1 14 28
M  V30 END BOND
M  V30 BEGIN COLLECTION
M  V30 MDLV30/STERAC1 ATOMS=(1 7)
M  V30 END COLLECTION
M  V30 END CTAB
M  END
>  <NO.>
2221

>  <Name>
efetozole

>  <SMILES>
Cc1nccn1C(C)c1ccccc1

>  <logBB>


>  <Class>
1

>  <MW>
186.12

>  <nHBAcc>
1

>  <nHBDon>
0

>  <SLogP>
2.8

>  <TopoPSA>
17.82

>  <MMFF94 Energy>
39.053

$$$$
Cc1nccnc1N1CCCCC1
Actelion Java MolfileCreator 2.0

  0  0  0  0  0  0              0 V3000
M  V30 BEGIN CTAB
M  V30 COUNTS 28 29 0 0 0
M  V30 BEGIN ATOM
M  V30 1 N 1.1037 0.8671 -1.7349 0
M  V30 2 C 0.6457 -0.1707 -0.9923 0
M  V30 3 C 1.6726 0.564 -2.9227 0
M  V30 4 N 0.027 0.1117 0.231 0
M  V30 5 C 0.7982 -1.4946 -1.458 0
M  V30 6 C 1.7953 -0.7317 -3.38 0
M  V30 7 C -1.4361 0.0935 0.167 0
M  V30 8 C 0.6078 1.245 0.9547 0
M  V30 9 N 1.3637 -1.7882 -2.6643 0
M  V30 10 C 0.3692 -2.6719 -0.6336 0
M  V30 11 C -2.0095 0.0998 1.5839 0
M  V30 12 C 0.0683 1.2649 2.3851 0
M  V30 13 C -1.4588 1.2664 2.4015 0
M  V30 14 H 2.0291 1.4057 -3.5045 0
M  V30 15 H 2.2502 -0.9567 -4.3371 0
M  V30 16 H -1.8116 -0.7935 -0.3541 0
M  V30 17 H -1.7986 0.9706 -0.3852 0
M  V30 18 H 0.3633 2.1921 0.4562 0
M  V30 19 H 1.7007 1.1573 0.9984 0
M  V30 20 H -0.7189 -2.7749 -0.6459 0
M  V30 21 H 0.7158 -2.5731 0.3997 0
M  V30 22 H 0.797 -3.5969 -1.0349 0
M  V30 23 H -1.7548 -0.8427 2.0844 0
M  V30 24 H -3.1027 0.1585 1.5422 0
M  V30 25 H 0.4331 0.3824 2.9256 0
M  V30 26 H 0.4473 2.1468 2.9133 0
M  V30 27 H -1.8296 2.2121 1.988 0
M  V30 28 H -1.8204 1.2013 3.4336 0
M  V30 END ATOM
M  V30 BEGIN BOND
M  V30 1 2 1 2
M  V30 2 1 1 3
M  V30 3 1 2 4
M  V30 4 1 2 5
M  V30 5 2 3 6
M  V30 6 1 4 7
M  V30 7 1 4 8
M  V30 8 2 5 9
M  V30 9 1 5 10
M  V30 10 1 7 11
M  V30 11 1 8 12
M  V30 12 1 11 13
M  V30 13 1 6 9
M  V30 14 1 12 13
M  V30 15 1 3 14
M  V30 16 1 6 15
M  V30 17 1 7 16
M  V30 18 1 7 17
M  V30 19 1 8 18
M  V30 20 1 8 19
M  V30 21 1 10 20
M  V30 22 1 10 21
M  V30 23 1 10 22
M  V30 24 1 11 23
M  V30 25 1 11 24
M  V30 26 1 12 25
M  V30 27 1 12 26
M  V30 28 1 13 27
M  V30 29 1 13 28
M  V30 END BOND
M  V30 END CTAB
M  END
>  <NO.>
2222

>  <Name>
modaline

>  <SMILES>
Cc1nccnc1N1CCCCC1

>  <logBB>


>  <Class>
1

>  <MW>
177.13

>  <nHBAcc>
3

>  <nHBDon>
0

>  <SLogP>
1.78

>  <TopoPSA>
29.02

>  <MMFF94 Energy>
50.269

$$$$
Cc1ncsc1CCCl
Actelion Java MolfileCreator 2.0

  0  0  0  0  0  0              0 V3000
M  V30 BEGIN CTAB
M  V30 COUNTS 17 17 0 0 0
M  V30 BEGIN ATOM
M  V30 1 Cl -0.7467 2.2416 -1.577 0
M  V30 2 C 0.4015 2.3128 -0.2161 0
M  V30 3 C 0.1172 1.2388 0.8307 0
M  V30 4 C 0.4868 -0.144 0.3813 0
M  V30 5 S 2.1222 -0.6741 0.4599 0
M  V30 6 C -0.3112 -1.168 -0.1091 0
M  V30 7 C 1.6477 -2.1919 -0.1686 0
M  V30 8 N 0.3678 -2.3361 -0.4229 0
M  V30 9 C -1.7818 -1.1405 -0.3328 0
M  V30 10 H 0.2935 3.3052 0.2323 0
M  V30 11 H 1.4124 2.2332 -0.6274 0
M  V30 12 H 0.687 1.4787 1.7382 0
M  V30 13 H -0.938 1.2716 1.1275 0
M  V30 14 H 2.3632 -2.9846 -0.3426 0
M  V30 15 H -2.0126 -0.6494 -1.2825 0
M  V30 16 H -2.1862 -2.1573 -0.3692 0
M  V30 17 H -2.2953 -0.6076 0.473 0
M  V30 END ATOM
M  V30 BEGIN BOND
M  V30 1 1 1 2
M  V30 2 1 2 3
M  V30 3 1 3 4
M  V30 4 1 4 5
M  V30 5 2 4 6
M  V30 6 1 5 7
M  V30 7 1 6 8
M  V30 8 1 6 9
M  V30 9 2 7 8
M  V30 10 1 2 10
M  V30 11 1 2 11
M  V30 12 1 3 12
M  V30 13 1 3 13
M  V30 14 1 7 14
M  V30 15 1 9 15
M  V30 16 1 9 16
M  V30 17 1 9 17
M  V30 END BOND
M  V30 END CTAB
M  END
>  <NO.>
2223

>  <Name>
clomethiazole

>  <SMILES>
Cc1ncsc1CCCl

>  <logBB>


>  <Class>
1

>  <MW>
161.01

>  <nHBAcc>
2

>  <nHBDon>
0

>  <SLogP>
2.23

>  <TopoPSA>
12.89

>  <MMFF94 Energy>
10.894

$$$$
Cc1nn(C)c2c1C(c1cccc(Cl)c1)=NCCN2
Actelion Java MolfileCreator 2.0

  0  0  0  0  0  0              0 V3000
M  V30 BEGIN CTAB
M  V30 COUNTS 34 36 0 0 0
M  V30 BEGIN ATOM
M  V30 1 Cl -1.2859 -0.482 5.5545 0
M  V30 2 C -0.3541 -0.0178 4.1844 0
M  V30 3 C -0.9229 -0.063 2.9142 0
M  V30 4 C 0.9657 0.4001 4.3575 0
M  V30 5 C -0.1552 0.3023 1.8027 0
M  V30 6 C 1.7245 0.7862 3.2517 0
M  V30 7 C -0.7813 0.271 0.4509 0
M  V30 8 C 1.1638 0.7447 1.9741 0
M  V30 9 N -1.982 0.7342 0.3478 0
M  V30 10 C 0.001 -0.2516 -0.6638 0
M  V30 11 C -2.6576 0.7922 -0.9509 0
M  V30 12 C -0.0393 0.1863 -1.9778 0
M  V30 13 C 0.9527 -1.3209 -0.6841 0
M  V30 14 C -1.9389 1.7424 -1.9187 0
M  V30 15 N 0.9144 -0.5412 -2.6478 0
M  V30 16 N -0.8157 1.1068 -2.5994 0
M  V30 17 N 1.5247 -1.4637 -1.8851 0
M  V30 18 C 1.3435 -2.2553 0.4038 0
M  V30 19 C 1.2724 -0.4365 -4.0419 0
M  V30 20 H -1.9551 -0.3789 2.7841 0
M  V30 21 H 1.4048 0.4357 5.3515 0
M  V30 22 H 2.7488 1.1259 3.386 0
M  V30 23 H 1.7569 1.0682 1.1212 0
M  V30 24 H -3.6617 1.1912 -0.7659 0
M  V30 25 H -2.7967 -0.2111 -1.3714 0
M  V30 26 H -1.5888 2.6407 -1.3968 0
M  V30 27 H -2.6501 2.068 -2.6861 0
M  V30 28 H -0.696 1.3685 -3.5734 0
M  V30 29 H 2.1781 -1.8466 0.9809 0
M  V30 30 H 0.5058 -2.4494 1.0801 0
M  V30 31 H 1.6593 -3.2215 -0.0046 0
M  V30 32 H 1.5654 0.5958 -4.2486 0
M  V30 33 H 0.405 -0.721 -4.6428 0
M  V30 34 H 2.1095 -1.1057 -4.2575 0
M  V30 END ATOM
M  V30 BEGIN BOND
M  V30 1 1 1 2
M  V30 2 2 2 3
M  V30 3 1 2 4
M  V30 4 1 3 5
M  V30 5 2 4 6
M  V30 6 1 5 7
M  V30 7 2 5 8
M  V30 8 2 7 9
M  V30 9 1 7 10
M  V30 10 1 9 11
M  V30 11 2 10 12
M  V30 12 1 10 13
M  V30 13 1 11 14
M  V30 14 1 12 15
M  V30 15 1 12 16
M  V30 16 2 13 17
M  V30 17 1 13 18
M  V30 18 1 15 19
M  V30 19 1 6 8
M  V30 20 1 14 16
M  V30 21 1 15 17
M  V30 22 1 3 20
M  V30 23 1 4 21
M  V30 24 1 6 22
M  V30 25 1 8 23
M  V30 26 1 11 24
M  V30 27 1 11 25
M  V30 28 1 14 26
M  V30 29 1 14 27
M  V30 30 1 16 28
M  V30 31 1 18 29
M  V30 32 1 18 30
M  V30 33 1 18 31
M  V30 34 1 19 32
M  V30 35 1 19 33
M  V30 36 1 19 34
M  V30 END BOND
M  V30 END CTAB
M  END
>  <NO.>
2224

>  <Name>
zometapine

>  <SMILES>
Cc1nn(C)c2c1C(c1cccc(Cl)c1)=NCCN2

>  <logBB>


>  <Class>
1

>  <MW>
274.1

>  <nHBAcc>
3

>  <nHBDon>
1

>  <SLogP>
2.64

>  <TopoPSA>
42.21

>  <MMFF94 Energy>
104.1

$$$$
Cc1nn(C)c2c1C(c1ccccc1F)=NCC(=O)N2C
Actelion Java MolfileCreator 2.0

  0  0  0  0  0  0              0 V3000
M  V30 BEGIN CTAB
M  V30 COUNTS 36 38 0 0 0
M  V30 BEGIN ATOM
M  V30 1 F 1.68 -1.76 -0.0799 0
M  V30 2 C 1.3887 -1.6697 -1.3852 0
M  V30 3 C 0.3081 -0.9092 -1.8337 0
M  V30 4 C 2.1851 -2.3741 -2.286 0
M  V30 5 C -0.5593 -0.1554 -0.8962 0
M  V30 6 C 0.007 -0.8873 -3.2026 0
M  V30 7 C 1.8953 -2.3324 -3.6496 0
M  V30 8 N -1.8337 -0.1198 -1.1178 0
M  V30 9 C 0.0331 0.5386 0.2327 0
M  V30 10 C 0.804 -1.5931 -4.1074 0
M  V30 11 C -2.7073 0.6545 -0.2164 0
M  V30 12 C -0.5242 0.5847 1.497 0
M  V30 13 C 1.2067 1.337 0.3296 0
M  V30 14 C -2.8254 -0.0178 1.156 0
M  V30 15 N -1.678 -0.0413 1.9571 0
M  V30 16 N 0.2823 1.4092 2.2376 0
M  V30 17 N 1.3579 1.8498 1.5577 0
M  V30 18 C 2.1948 1.6769 -0.7252 0
M  V30 19 O -3.8987 -0.4966 1.5346 0
M  V30 20 C -1.7176 -0.8124 3.1878 0
M  V30 21 C 0.087 1.8598 3.5948 0
M  V30 22 H 3.0218 -2.9594 -1.9162 0
M  V30 23 H -0.8485 -0.3218 -3.567 0
M  V30 24 H 2.5121 -2.8854 -4.3543 0
M  V30 25 H 0.5679 -1.5711 -5.1692 0
M  V30 26 H -2.389 1.699 -0.1199 0
M  V30 27 H -3.7087 0.6799 -0.6612 0
M  V30 28 H 2.9602 0.8982 -0.7957 0
M  V30 29 H 1.7091 1.7805 -1.7003 0
M  V30 30 H 2.6965 2.6257 -0.5065 0
M  V30 31 H -0.7111 -1.1414 3.4632 0
M  V30 32 H -2.3542 -1.6943 3.0674 0
M  V30 33 H -2.1355 -0.1853 3.9807 0
M  V30 34 H 0.6569 2.779 3.7565 0
M  V30 35 H -0.9743 2.0633 3.7549 0
M  V30 36 H 0.4404 1.0766 4.2694 0
M  V30 END ATOM
M  V30 BEGIN BOND
M  V30 1 1 1 2
M  V30 2 2 2 3
M  V30 3 1 2 4
M  V30 4 1 3 5
M  V30 5 1 3 6
M  V30 6 2 4 7
M  V30 7 2 5 8
M  V30 8 1 5 9
M  V30 9 2 6 10
M  V30 10 1 8 11
M  V30 11 2 9 12
M  V30 12 1 9 13
M  V30 13 1 11 14
M  V30 14 1 12 15
M  V30 15 1 12 16
M  V30 16 2 13 17
M  V30 17 1 13 18
M  V30 18 2 14 19
M  V30 19 1 15 20
M  V30 20 1 16 21
M  V30 21 1 7 10
M  V30 22 1 14 15
M  V30 23 1 16 17
M  V30 24 1 4 22
M  V30 25 1 6 23
M  V30 26 1 7 24
M  V30 27 1 10 25
M  V30 28 1 11 26
M  V30 29 1 11 27
M  V30 30 1 18 28
M  V30 31 1 18 29
M  V30 32 1 18 30
M  V30 33 1 20 31
M  V30 34 1 20 32
M  V30 35 1 20 33
M  V30 36 1 21 34
M  V30 37 1 21 35
M  V30 38 1 21 36
M  V30 END BOND
M  V30 END CTAB
M  END
>  <NO.>
2225

>  <Name>
zolazepam

>  <SMILES>
Cc1nn(C)c2c1C(c1ccccc1F)=NCC(=O)N2C

>  <logBB>


>  <Class>
1

>  <MW>
286.12

>  <nHBAcc>
3

>  <nHBDon>
0

>  <SLogP>
1.68

>  <TopoPSA>
50.49

>  <MMFF94 Energy>
106.21

$$$$
Cc1nn(C)c2c1N(c1ccccc1)C(=O)CC(=O)N2C
Actelion Java MolfileCreator 2.0

  0  0  0  0  0  0              0 V3000
M  V30 BEGIN CTAB
M  V30 COUNTS 37 39 0 0 0
M  V30 BEGIN ATOM
M  V30 1 O 0.3179 0.7155 3.1834 0
M  V30 2 C -0.2056 0.7073 2.066 0
M  V30 3 N 0.4615 0.3523 0.8888 0
M  V30 4 C -1.6583 1.1108 1.9189 0
M  V30 5 C 1.8059 -0.1096 0.9001 0
M  V30 6 C -0.1799 0.3879 -0.35 0
M  V30 7 C -2.5376 -0.0684 1.5661 0
M  V30 8 C 2.8025 0.6284 1.5512 0
M  V30 9 C 2.1569 -1.3041 0.2528 0
M  V30 10 C -1.4637 -0.0651 -0.5815 0
M  V30 11 C 0.2483 0.9322 -1.592 0
M  V30 12 O -3.3869 -0.478 2.3609 0
M  V30 13 N -2.3567 -0.6516 0.3097 0
M  V30 14 C 4.1272 0.1862 1.5472 0
M  V30 15 C 3.4825 -1.7438 0.2493 0
M  V30 16 N -1.7364 0.2396 -1.8915 0
M  V30 17 N -0.7 0.8151 -2.5313 0
M  V30 18 C 1.5361 1.5913 -1.9255 0
M  V30 19 C -3.0705 -1.8827 0.012 0
M  V30 20 C 4.4666 -0.9974 0.8947 0
M  V30 21 C -2.9776 0.0569 -2.6061 0
M  V30 22 H -1.7734 1.9218 1.1923 0
M  V30 23 H -1.9987 1.5129 2.8812 0
M  V30 24 H 2.5565 1.552 2.0702 0
M  V30 25 H 1.4023 -1.907 -0.246 0
M  V30 26 H 4.892 0.7639 2.0602 0
M  V30 27 H 3.7455 -2.6715 -0.2522 0
M  V30 28 H 1.8509 2.2613 -1.1193 0
M  V30 29 H 2.3184 0.8432 -2.0854 0
M  V30 30 H 1.4512 2.1912 -2.8379 0
M  V30 31 H -4.0775 -1.63 -0.3323 0
M  V30 32 H -3.1535 -2.5013 0.9111 0
M  V30 33 H -2.5423 -2.4507 -0.7594 0
M  V30 34 H 5.4976 -1.3423 0.8965 0
M  V30 35 H -2.9894 0.7074 -3.4849 0
M  V30 36 H -3.0436 -0.989 -2.9139 0
M  V30 37 H -3.8093 0.3242 -1.9498 0
M  V30 END ATOM
M  V30 BEGIN BOND
M  V30 1 2 1 2
M  V30 2 1 2 3
M  V30 3 1 2 4
M  V30 4 1 3 5
M  V30 5 1 3 6
M  V30 6 1 4 7
M  V30 7 2 5 8
M  V30 8 1 5 9
M  V30 9 2 6 10
M  V30 10 1 6 11
M  V30 11 2 7 12
M  V30 12 1 7 13
M  V30 13 1 8 14
M  V30 14 2 9 15
M  V30 15 1 10 16
M  V30 16 2 11 17
M  V30 17 1 11 18
M  V30 18 1 13 19
M  V30 19 2 14 20
M  V30 20 1 16 21
M  V30 21 1 10 13
M  V30 22 1 15 20
M  V30 23 1 16 17
M  V30 24 1 4 22
M  V30 25 1 4 23
M  V30 26 1 8 24
M  V30 27 1 9 25
M  V30 28 1 14 26
M  V30 29 1 15 27
M  V30 30 1 18 28
M  V30 31 1 18 29
M  V30 32 1 18 30
M  V30 33 1 19 31
M  V30 34 1 19 32
M  V30 35 1 19 33
M  V30 36 1 20 34
M  V30 37 1 21 35
M  V30 38 1 21 36
M  V30 39 1 21 37
M  V30 END BOND
M  V30 END CTAB
M  END
>  <NO.>
2226

>  <Name>
zomebazam

>  <SMILES>
Cc1nn(C)c2c1N(c1ccccc1)C(=O)CC(=O)N2C

>  <logBB>


>  <Class>
1

>  <MW>
284.13

>  <nHBAcc>
3

>  <nHBDon>
0

>  <SLogP>
1.76

>  <TopoPSA>
58.44

>  <MMFF94 Energy>
47.922

$$$$
Cc1nnc(SCC2=C(C(=O)O)N3C(=O)[C@@H](NC(=O)C(N)c4ccc(O)cc4)[C@H]3SC2)s1
Actelion Java MolfileCreator 2.0

  0  0  0  0  0  0              0 V3000
M  V30 BEGIN CTAB
M  V30 COUNTS 51 54 0 0 0
M  V30 BEGIN ATOM
M  V30 1 S -0.5815 0.7477 -0.4153 0
M  V30 2 C 0.6446 0.6178 0.916 0 CFG=1
M  V30 3 C -1.9657 0.2742 0.6741 0
M  V30 4 N 0.6439 -0.7489 1.3702 0
M  V30 5 C 2.134 0.3997 0.5074 0 CFG=1
M  V30 6 C -1.7021 -0.9764 1.4996 0
M  V30 7 C -0.4566 -1.4395 1.7635 0
M  V30 8 C 1.9602 -0.9979 1.2104 0
M  V30 9 N 2.4249 0.3502 -0.9528 0
M  V30 10 C -2.9721 -1.6695 1.9575 0
M  V30 11 C -0.2327 -2.7265 2.4756 0
M  V30 12 O 2.6351 -1.9701 1.4484 0
M  V30 13 C 3.6832 0.6002 -1.459 0
M  V30 14 S -3.6169 -0.8105 3.4269 0
M  V30 15 O -0.6901 -3.8127 2.1732 0
M  V30 16 O 0.5351 -2.5437 3.5644 0
M  V30 17 O 4.631 0.9175 -0.7392 0
M  V30 18 C 3.7945 0.4867 -3.0035 0
M  V30 19 C -5.088 -1.7144 3.6973 0
M  V30 20 N 5.0767 -0.143 -3.3616 0
M  V30 21 C 3.6368 1.8387 -3.6773 0
M  V30 22 S -6.0126 -1.5772 5.1339 0
M  V30 23 N -5.5879 -2.5449 2.8094 0
M  V30 24 C 2.7001 1.9989 -4.7118 0
M  V30 25 C 4.4286 2.9413 -3.3105 0
M  V30 26 C -7.0981 -2.7207 4.4502 0
M  V30 27 N -6.7582 -3.1328 3.247 0
M  V30 28 C 2.5489 3.2321 -5.3489 0
M  V30 29 C 4.277 4.1751 -3.9485 0
M  V30 30 C -8.301 -3.1684 5.1953 0
M  V30 31 C 3.3358 4.3093 -4.9624 0
M  V30 32 O 3.1543 5.4939 -5.612 0
M  V30 33 H 0.5154 1.3425 1.7287 0
M  V30 34 H -2.8256 0.1173 0.0148 0
M  V30 35 H -2.2005 1.1161 1.3341 0
M  V30 36 H 2.8192 1.0658 1.0446 0
M  V30 37 H 1.6732 0.1237 -1.5972 0
M  V30 38 H -3.714 -1.6495 1.1511 0
M  V30 39 H -2.8197 -2.7201 2.2105 0
M  V30 40 H 0.7024 -3.4499 3.8957 0
M  V30 41 H 3.0003 -0.1867 -3.348 0
M  V30 42 H 5.8103 0.3162 -2.8176 0
M  V30 43 H 5.2794 0.0519 -4.3401 0
M  V30 44 H 2.0812 1.1643 -5.0347 0
M  V30 45 H 5.1716 2.8471 -2.5194 0
M  V30 46 H 1.8215 3.3509 -6.1472 0
M  V30 47 H 4.8991 5.01 -3.6418 0
M  V30 48 H -8.9607 -2.3229 5.4145 0
M  V30 49 H -8.8692 -3.8944 4.605 0
M  V30 50 H -8.0193 -3.648 6.138 0
M  V30 51 H 3.7749 6.1454 -5.2463 0
M  V30 END ATOM
M  V30 BEGIN BOND
M  V30 1 1 1 2
M  V30 2 1 1 3
M  V30 3 1 2 4
M  V30 4 1 2 5
M  V30 5 1 3 6
M  V30 6 1 4 7
M  V30 7 1 4 8
M  V30 8 1 5 9
M  V30 9 1 6 10
M  V30 10 1 7 11
M  V30 11 2 8 12
M  V30 12 1 9 13
M  V30 13 1 10 14
M  V30 14 2 11 15
M  V30 15 1 11 16
M  V30 16 2 13 17
M  V30 17 1 13 18
M  V30 18 1 14 19
M  V30 19 1 18 20
M  V30 20 1 18 21
M  V30 21 1 19 22
M  V30 22 2 19 23
M  V30 23 2 21 24
M  V30 24 1 21 25
M  V30 25 1 22 26
M  V30 26 1 23 27
M  V30 27 1 24 28
M  V30 28 2 25 29
M  V30 29 1 26 30
M  V30 30 2 28 31
M  V30 31 1 31 32
M  V30 32 1 5 8
M  V30 33 2 6 7
M  V30 34 2 26 27
M  V30 35 1 29 31
M  V30 36 1 2 33
M  V30 37 1 3 34
M  V30 38 1 3 35
M  V30 39 1 5 36
M  V30 40 1 9 37
M  V30 41 1 10 38
M  V30 42 1 10 39
M  V30 43 1 16 40
M  V30 44 1 18 41
M  V30 45 1 20 42
M  V30 46 1 20 43
M  V30 47 1 24 44
M  V30 48 1 25 45
M  V30 49 1 28 46
M  V30 50 1 29 47
M  V30 51 1 30 48
M  V30 52 1 30 49
M  V30 53 1 30 50
M  V30 54 1 32 51
M  V30 END BOND
M  V30 BEGIN COLLECTION
M  V30 MDLV30/STEABS ATOMS=(2 2 5)
M  V30 END COLLECTION
M  V30 END CTAB
M  END
>  <NO.>
2227

>  <Name>
cefaparole

>  <SMILES>
Cc1nnc(SCC2=C(C(=O)O)N3C(=O)[C@@H](NC(=O)C(N)c4ccc(O)cc4)[C@H]3SC2)s1

>  <logBB>


>  <Class>
-1

>  <MW>
493.05

>  <nHBAcc>
10

>  <nHBDon>
4

>  <SLogP>
1.08

>  <TopoPSA>
158.74

>  <MMFF94 Energy>
43.518

$$$$
Cc1nnc(SCC2=C(C(=O)O)N3C(=O)[C@@H](NC(=O)Cn4cc(Cl)c(=O)c(Cl)c4)[C@H]3SC2)s1
Actelion Java MolfileCreator 2.0

  0  0  0  0  0  0              0 V3000
M  V30 BEGIN CTAB
M  V30 COUNTS 48 51 0 0 0
M  V30 BEGIN ATOM
M  V30 1 Cl 5.5475 0.7668 -3.9236 0
M  V30 2 C 3.8367 0.8925 -3.9721 0
M  V30 3 C 3.0154 -0.355 -4.0743 0
M  V30 4 C 3.2102 2.0779 -3.9247 0
M  V30 5 O 3.5274 -1.4696 -4.1208 0
M  V30 6 C 1.5326 -0.158 -4.1193 0
M  V30 7 N 1.8277 2.2413 -3.9602 0
M  V30 8 Cl 0.5076 -1.5285 -4.2386 0
M  V30 9 C 1.0471 1.0909 -4.0674 0
M  V30 10 C 1.2015 3.5893 -3.9521 0
M  V30 11 C 0.5146 3.9135 -2.6221 0
M  V30 12 O -0.378 4.7544 -2.5317 0
M  V30 13 N 0.9942 3.2375 -1.5241 0
M  V30 14 C 0.3954 3.4065 -0.1751 0 CFG=2
M  V30 15 C 1.0997 2.6083 0.97 0
M  V30 16 C -0.8504 2.5371 0.1833 0 CFG=2
M  V30 17 O 2.2051 2.5716 1.4559 0
M  V30 18 N -0.0026 1.8499 1.1281 0
M  V30 19 S -1.4245 1.3122 -1.0252 0
M  V30 20 C -0.3323 0.7182 1.8031 0
M  V30 21 C -2.2708 0.3039 0.2328 0
M  V30 22 C -1.4022 -0.0268 1.4344 0
M  V30 23 C 0.5452 0.3122 2.9376 0
M  V30 24 C -1.8662 -1.2538 2.1948 0
M  V30 25 O 0.9889 -0.7983 3.1597 0
M  V30 26 O 0.7571 1.3453 3.7735 0
M  V30 27 S -1.2793 -2.7598 1.3673 0
M  V30 28 C -1.8943 -3.9705 2.4656 0
M  V30 29 S -1.3846 -5.6056 2.4299 0
M  V30 30 N -2.8027 -3.7061 3.3799 0
M  V30 31 C -2.4657 -5.8882 3.7352 0
M  V30 32 N -3.1347 -4.8222 4.1222 0
M  V30 33 C -2.5956 -7.2392 4.3352 0
M  V30 34 H 3.7773 3.0036 -3.8572 0
M  V30 35 H -0.0252 1.2732 -4.1048 0
M  V30 36 H 1.9484 4.3696 -4.1386 0
M  V30 37 H 0.4515 3.6477 -4.7497 0
M  V30 38 H 1.7057 2.5307 -1.6874 0
M  V30 39 H 0.2815 4.4676 0.0794 0
M  V30 40 H -1.6528 3.1085 0.665 0
M  V30 41 H -2.59 -0.6097 -0.2776 0
M  V30 42 H -3.1743 0.8258 0.5669 0
M  V30 43 H -1.5238 -1.2429 3.2343 0
M  V30 44 H -2.9622 -1.2577 2.2342 0
M  V30 45 H 1.3932 0.9938 4.4302 0
M  V30 46 H -1.6388 -7.577 4.7456 0
M  V30 47 H -3.3261 -7.2278 5.1505 0
M  V30 48 H -2.9346 -7.9656 3.59 0
M  V30 END ATOM
M  V30 BEGIN BOND
M  V30 1 1 1 2
M  V30 2 1 2 3
M  V30 3 2 2 4
M  V30 4 2 3 5
M  V30 5 1 3 6
M  V30 6 1 4 7
M  V30 7 1 6 8
M  V30 8 2 6 9
M  V30 9 1 7 10
M  V30 10 1 10 11
M  V30 11 2 11 12
M  V30 12 1 11 13
M  V30 13 1 13 14
M  V30 14 1 14 15
M  V30 15 1 14 16
M  V30 16 2 15 17
M  V30 17 1 15 18
M  V30 18 1 16 19
M  V30 19 1 18 20
M  V30 20 1 19 21
M  V30 21 2 20 22
M  V30 22 1 20 23
M  V30 23 1 22 24
M  V30 24 2 23 25
M  V30 25 1 23 26
M  V30 26 1 24 27
M  V30 27 1 27 28
M  V30 28 1 28 29
M  V30 29 2 28 30
M  V30 30 1 29 31
M  V30 31 1 30 32
M  V30 32 1 31 33
M  V30 33 1 7 9
M  V30 34 1 16 18
M  V30 35 1 21 22
M  V30 36 2 31 32
M  V30 37 1 4 34
M  V30 38 1 9 35
M  V30 39 1 10 36
M  V30 40 1 10 37
M  V30 41 1 13 38
M  V30 42 1 14 39
M  V30 43 1 16 40
M  V30 44 1 21 41
M  V30 45 1 21 42
M  V30 46 1 24 43
M  V30 47 1 24 44
M  V30 48 1 26 45
M  V30 49 1 33 46
M  V30 50 1 33 47
M  V30 51 1 33 48
M  V30 END BOND
M  V30 BEGIN COLLECTION
M  V30 MDLV30/STEABS ATOMS=(2 14 16)
M  V30 END COLLECTION
M  V30 END CTAB
M  END
>  <NO.>
2228

>  <Name>
cefazedone

>  <SMILES>
Cc1nnc(SCC2=C(C(=O)O)N3C(=O)[C@@H](NC(=O)Cn4cc(Cl)c(=O)c(Cl)c4)[C@H]3SC2)s1

>  <logBB>


>  <Class>
-1

>  <MW>
546.96

>  <nHBAcc>
9

>  <nHBDon>
2

>  <SLogP>
1.85

>  <TopoPSA>
134.49

>  <MMFF94 Energy>
77.139

$$$$
Cc1nnc(SCC2=C(C(=O)O)N3C(=O)[C@@H](NC(=O)[C@H](O)c4ccccc4)[C@H]3SC2)s1
Actelion Java MolfileCreator 2.0

  0  0  0  0  0  0              0 V3000
M  V30 BEGIN CTAB
M  V30 COUNTS 49 52 0 0 0
M  V30 BEGIN ATOM
M  V30 1 S -0.8342 1.168 -0.2502 0
M  V30 2 C 0.337 1.1375 1.1335 0 CFG=1
M  V30 3 C -2.2521 0.7155 0.7982 0
M  V30 4 N 0.3426 -0.2065 1.6616 0
M  V30 5 C 1.8535 0.9359 0.8307 0 CFG=1
M  V30 6 C -1.9998 -0.4988 1.6761 0
M  V30 7 C -0.759 -0.9081 2.0344 0
M  V30 8 C 1.6602 -0.4517 1.5226 0
M  V30 9 N 2.2816 0.896 -0.5858 0
M  V30 10 C -3.2701 -1.1864 2.136 0
M  V30 11 C -0.5478 -2.1558 2.8217 0
M  V30 12 O 2.3494 -1.4148 1.762 0
M  V30 13 C 2.516 2.0471 -1.311 0
M  V30 14 S -3.9023 -2.2774 0.8293 0
M  V30 15 O -1.0693 -3.2387 2.6328 0
M  V30 16 O 0.2758 -1.9333 3.8624 0
M  V30 17 O 2.4158 3.1649 -0.8118 0
M  V30 18 C 2.8873 1.7726 -2.7879 0 CFG=2
M  V30 19 C -5.2882 -2.9586 1.6453 0
M  V30 20 O 3.1526 0.3787 -2.9989 0
M  V30 21 C 4.0753 2.5765 -3.2795 0
M  V30 22 S -6.1271 -4.335 1.0648 0
M  V30 23 N -5.7871 -2.4463 2.7496 0
M  V30 24 C 5.2254 2.7519 -2.493 0
M  V30 25 C 4.0646 3.1024 -4.5811 0
M  V30 26 C -7.1721 -4.1709 2.419 0
M  V30 27 N -6.8833 -3.1532 3.203 0
M  V30 28 C 6.324 3.4571 -2.9881 0
M  V30 29 C 5.1648 3.8062 -5.0739 0
M  V30 30 C -8.2902 -5.1221 2.6358 0
M  V30 31 C 6.2928 3.9847 -4.2768 0
M  V30 32 H 0.1486 1.8976 1.9011 0
M  V30 33 H -3.0867 0.5317 0.1148 0
M  V30 34 H -2.5248 1.5708 1.4263 0
M  V30 35 H 2.5077 1.5912 1.4199 0
M  V30 36 H 2.3658 0.0198 -1.0998 0
M  V30 37 H -3.1126 -1.7599 3.0548 0
M  V30 38 H -4.0224 -0.4255 2.3764 0
M  V30 39 H 0.4037 -2.8194 4.2591 0
M  V30 40 H 1.9923 2.0215 -3.3703 0
M  V30 41 H 4.1107 0.2867 -3.148 0
M  V30 42 H 5.2761 2.3505 -1.4826 0
M  V30 43 H 3.1959 2.9663 -5.2227 0
M  V30 44 H 7.2041 3.5975 -2.3656 0
M  V30 45 H 5.1413 4.215 -6.0808 0
M  V30 46 H -7.9156 -6.144 2.7512 0
M  V30 47 H -8.8437 -4.8622 3.5438 0
M  V30 48 H -8.9914 -5.0974 1.7957 0
M  V30 49 H 7.1478 4.5356 -4.6597 0
M  V30 END ATOM
M  V30 BEGIN BOND
M  V30 1 1 1 2
M  V30 2 1 1 3
M  V30 3 1 2 4
M  V30 4 1 2 5
M  V30 5 1 3 6
M  V30 6 1 4 7
M  V30 7 1 4 8
M  V30 8 1 5 9
M  V30 9 1 6 10
M  V30 10 1 7 11
M  V30 11 2 8 12
M  V30 12 1 9 13
M  V30 13 1 10 14
M  V30 14 2 11 15
M  V30 15 1 11 16
M  V30 16 2 13 17
M  V30 17 1 13 18
M  V30 18 1 14 19
M  V30 19 1 18 20
M  V30 20 1 18 21
M  V30 21 1 19 22
M  V30 22 2 19 23
M  V30 23 2 21 24
M  V30 24 1 21 25
M  V30 25 1 22 26
M  V30 26 1 23 27
M  V30 27 1 24 28
M  V30 28 2 25 29
M  V30 29 1 26 30
M  V30 30 2 28 31
M  V30 31 1 5 8
M  V30 32 2 6 7
M  V30 33 2 26 27
M  V30 34 1 29 31
M  V30 35 1 2 32
M  V30 36 1 3 33
M  V30 37 1 3 34
M  V30 38 1 5 35
M  V30 39 1 9 36
M  V30 40 1 10 37
M  V30 41 1 10 38
M  V30 42 1 16 39
M  V30 43 1 18 40
M  V30 44 1 20 41
M  V30 45 1 24 42
M  V30 46 1 25 43
M  V30 47 1 28 44
M  V30 48 1 29 45
M  V30 49 1 30 46
M  V30 50 1 30 47
M  V30 51 1 30 48
M  V30 52 1 31 49
M  V30 END BOND
M  V30 BEGIN COLLECTION
M  V30 MDLV30/STEABS ATOMS=(3 2 5 18)
M  V30 END COLLECTION
M  V30 END CTAB
M  END
>  <NO.>
2230

>  <Name>
cefcanel

>  <SMILES>
Cc1nnc(SCC2=C(C(=O)O)N3C(=O)[C@@H](NC(=O)[C@H](O)c4ccccc4)[C@H]3SC2)s1

>  <logBB>


>  <Class>
-1

>  <MW>
478.04

>  <nHBAcc>
9

>  <nHBDon>
3

>  <SLogP>
1.41

>  <TopoPSA>
132.72

>  <MMFF94 Energy>
47.523

$$$$
Cc1nnc2n1-c1sc(Br)cc1C(c1ccccc1Cl)=NC2
Actelion Java MolfileCreator 2.0

  0  0  0  0  0  0              0 V3000
M  V30 BEGIN CTAB
M  V30 COUNTS 32 35 0 0 0
M  V30 BEGIN ATOM
M  V30 1 Br 4.1485 -1.6917 1.9457 0
M  V30 2 C 2.3304 -1.3062 1.5086 0
M  V30 3 S 1.0663 -1.4056 2.62 0
M  V30 4 C 1.9175 -0.9074 0.2643 0
M  V30 5 C -0.072 -0.9404 1.4493 0
M  V30 6 C 0.4905 -0.6796 0.2058 0
M  V30 7 N -1.4312 -0.88 1.7828 0
M  V30 8 C -0.2226 -0.1547 -0.9647 0
M  V30 9 C -2.4586 -1.02 0.868 0
M  V30 10 C -2.0924 -0.7018 2.9951 0
M  V30 11 N -1.4416 -0.4161 -1.2749 0
M  V30 12 C 0.5172 0.7913 -1.8276 0
M  V30 13 N -3.6245 -0.9071 1.464 0
M  V30 14 C -2.2193 -1.4036 -0.5413 0
M  V30 15 N -3.3953 -0.7106 2.7926 0
M  V30 16 C -1.4731 -0.4413 4.316 0
M  V30 17 C 1.0856 0.3808 -3.0371 0
M  V30 18 C 0.6176 2.1248 -1.4095 0
M  V30 19 Cl 1.0143 -1.2556 -3.5801 0
M  V30 20 C 1.7673 1.3109 -3.8254 0
M  V30 21 C 1.2996 3.0469 -2.2032 0
M  V30 22 C 1.8738 2.6406 -3.4083 0
M  V30 23 H 2.5979 -0.7766 -0.5694 0
M  V30 24 H -1.7432 -2.3905 -0.5994 0
M  V30 25 H -3.1861 -1.5108 -1.047 0
M  V30 26 H -0.7213 0.351 4.2582 0
M  V30 27 H -1.026 -1.3504 4.7276 0
M  V30 28 H -2.2361 -0.1067 5.0276 0
M  V30 29 H 0.1565 2.4498 -0.4796 0
M  V30 30 H 2.2178 1.0084 -4.768 0
M  V30 31 H 1.3765 4.0855 -1.8876 0
M  V30 32 H 2.4013 3.3624 -4.0286 0
M  V30 END ATOM
M  V30 BEGIN BOND
M  V30 1 1 1 2
M  V30 2 1 2 3
M  V30 3 2 2 4
M  V30 4 1 3 5
M  V30 5 1 4 6
M  V30 6 1 5 7
M  V30 7 1 6 8
M  V30 8 1 7 9
M  V30 9 1 7 10
M  V30 10 2 8 11
M  V30 11 1 8 12
M  V30 12 2 9 13
M  V30 13 1 9 14
M  V30 14 2 10 15
M  V30 15 1 10 16
M  V30 16 2 12 17
M  V30 17 1 12 18
M  V30 18 1 17 19
M  V30 19 1 17 20
M  V30 20 2 18 21
M  V30 21 2 20 22
M  V30 22 2 5 6
M  V30 23 1 11 14
M  V30 24 1 13 15
M  V30 25 1 21 22
M  V30 26 1 4 23
M  V30 27 1 14 24
M  V30 28 1 14 25
M  V30 29 1 16 26
M  V30 30 1 16 27
M  V30 31 1 16 28
M  V30 32 1 18 29
M  V30 33 1 20 30
M  V30 34 1 21 31
M  V30 35 1 22 32
M  V30 END BOND
M  V30 END CTAB
M  END
>  <NO.>
2232

>  <Name>
brotizolam

>  <SMILES>
Cc1nnc2n1-c1sc(Br)cc1C(c1ccccc1Cl)=NC2

>  <logBB>


>  <Class>
1

>  <MW>
391.95

>  <nHBAcc>
4

>  <nHBDon>
0

>  <SLogP>
4.4

>  <TopoPSA>
43.07

>  <MMFF94 Energy>
72.791

$$$$
Cc1oc(=O)oc1COC(=O)[C@@H]1N2C(=O)[C@@H](NC(=O)[C@H](N)c3ccccc3)[C@H]2SC1(C)C
Actelion Java MolfileCreator 2.0

  0  0  0  0  0  0              0 V3000
M  V30 BEGIN CTAB
M  V30 COUNTS 55 58 0 0 0
M  V30 BEGIN ATOM
M  V30 1 S 0.8135 -0.488 -1.9534 0
M  V30 2 C -0.6133 -1.1497 -0.9422 0
M  V30 3 C 0.0361 1.1805 -2.0374 0 CFG=1
M  V30 4 C -1.0086 0.0411 -0.044 0 CFG=1
M  V30 5 C -1.7067 -1.6031 -1.919 0
M  V30 6 C -0.1166 -2.3401 -0.1191 0
M  V30 7 N -0.7022 1.2521 -0.7839 0
M  V30 8 C 0.8811 2.3897 -1.5557 0 CFG=1
M  V30 9 C -2.4669 0.0255 0.3996 0
M  V30 10 C 0.0033 2.2916 -0.2636 0
M  V30 11 N 2.3297 2.1275 -1.3603 0
M  V30 12 O -3.3986 0.5321 -0.213 0
M  V30 13 O -2.5959 -0.7099 1.5408 0
M  V30 14 O -0.0178 2.7538 0.8525 0
M  V30 15 C 3.2107 3.1271 -0.9963 0
M  V30 16 C -3.9385 -0.8537 2.0265 0
M  V30 17 O 2.8722 4.3066 -0.9223 0
M  V30 18 C 4.6532 2.6403 -0.6972 0 CFG=2
M  V30 19 C -4.5974 -2.0011 1.3397 0
M  V30 20 N 5.2842 2.2074 -1.9593 0
M  V30 21 C 4.666 1.5871 0.4066 0
M  V30 22 O -4.0198 -3.2514 1.4728 0
M  V30 23 C -5.6729 -2.0489 0.5817 0
M  V30 24 C 5.0254 0.2444 0.2002 0
M  V30 25 C 4.2647 1.9732 1.6993 0
M  V30 26 C -4.8685 -4.0339 0.7057 0
M  V30 27 O -5.9188 -3.3336 0.1348 0
M  V30 28 C -6.6029 -0.9796 0.1404 0
M  V30 29 C 4.9828 -0.677 1.2506 0
M  V30 30 C 4.2213 1.0507 2.7462 0
M  V30 31 O -4.6998 -5.2358 0.5457 0
M  V30 32 C 4.5805 -0.2745 2.5214 0
M  V30 33 H -0.5922 1.3584 -2.9148 0
M  V30 34 H -0.39 0.0665 0.8644 0
M  V30 35 H -2.5494 -2.0545 -1.3829 0
M  V30 36 H -1.3327 -2.3635 -2.615 0
M  V30 37 H -2.104 -0.7722 -2.5127 0
M  V30 38 H -0.9235 -2.7469 0.5009 0
M  V30 39 H 0.7016 -2.0581 0.5537 0
M  V30 40 H 0.2414 -3.1536 -0.7608 0
M  V30 41 H 0.7003 3.3038 -2.1324 0
M  V30 42 H 2.6665 1.1702 -1.3589 0
M  V30 43 H -4.4943 0.0854 1.9312 0
M  V30 44 H -3.8706 -1.0659 3.0992 0
M  V30 45 H 5.2203 3.5087 -0.3383 0
M  V30 46 H 6.2386 1.9133 -1.7621 0
M  V30 47 H 4.7859 1.4136 -2.3492 0
M  V30 48 H 5.3456 -0.1144 -0.7739 0
M  V30 49 H 3.9704 3.004 1.8991 0
M  V30 50 H -6.6076 -0.9099 -0.9519 0
M  V30 51 H -6.3265 9.0E-4 0.5378 0
M  V30 52 H -7.621 -1.2023 0.4751 0
M  V30 53 H 5.2666 -1.7122 1.0764 0
M  V30 54 H 3.9043 1.3698 3.7362 0
M  V30 55 H 4.549 -0.9924 3.337 0
M  V30 END ATOM
M  V30 BEGIN BOND
M  V30 1 1 1 2
M  V30 2 1 1 3
M  V30 3 1 2 4
M  V30 4 1 2 5
M  V30 5 1 2 6
M  V30 6 1 3 7
M  V30 7 1 3 8
M  V30 8 1 4 9
M  V30 9 1 7 10
M  V30 10 1 8 11
M  V30 11 2 9 12
M  V30 12 1 9 13
M  V30 13 2 10 14
M  V30 14 1 11 15
M  V30 15 1 13 16
M  V30 16 2 15 17
M  V30 17 1 15 18
M  V30 18 1 16 19
M  V30 19 1 18 20
M  V30 20 1 18 21
M  V30 21 1 19 22
M  V30 22 2 19 23
M  V30 23 2 21 24
M  V30 24 1 21 25
M  V30 25 1 22 26
M  V30 26 1 23 27
M  V30 27 1 23 28
M  V30 28 1 24 29
M  V30 29 2 25 30
M  V30 30 2 26 31
M  V30 31 2 29 32
M  V30 32 1 4 7
M  V30 33 1 8 10
M  V30 34 1 26 27
M  V30 35 1 30 32
M  V30 36 1 3 33
M  V30 37 1 4 34
M  V30 38 1 5 35
M  V30 39 1 5 36
M  V30 40 1 5 37
M  V30 41 1 6 38
M  V30 42 1 6 39
M  V30 43 1 6 40
M  V30 44 1 8 41
M  V30 45 1 11 42
M  V30 46 1 16 43
M  V30 47 1 16 44
M  V30 48 1 18 45
M  V30 49 1 20 46
M  V30 50 1 20 47
M  V30 51 1 24 48
M  V30 52 1 25 49
M  V30 53 1 28 50
M  V30 54 1 28 51
M  V30 55 1 28 52
M  V30 56 1 29 53
M  V30 57 1 30 54
M  V30 58 1 32 55
M  V30 END BOND
M  V30 BEGIN COLLECTION
M  V30 MDLV30/STEABS ATOMS=(4 3 4 8 18)
M  V30 END COLLECTION
M  V30 END CTAB
M  END
>  <NO.>
2233

>  <Name>
lenampicillin

>  <SMILES>
Cc1oc(=O)oc1COC(=O)[C@@H]1N2C(=O)[C@@H](NC(=O)[C@H](N)c3ccccc3)[C@H]2SC1(C)C

>  <logBB>


>  <Class>
-1

>  <MW>
461.13

>  <nHBAcc>
9

>  <nHBDon>
2

>  <SLogP>
0.83

>  <TopoPSA>
145.08

>  <MMFF94 Energy>
111.22

$$$$
Cc1onc(-c2c(Cl)cccc2Cl)c1C(=O)N[C@@H]1C(=O)N2[C@@H](C(=O)O)C(C)(C)S[C@H]12
Actelion Java MolfileCreator 2.0

  0  0  0  0  0  0              0 V3000
M  V30 BEGIN CTAB
M  V30 COUNTS 47 50 0 0 0
M  V30 BEGIN ATOM
M  V30 1 Cl 0.9996 -1.2496 -2.9176 0
M  V30 2 C -0.6778 -1.6738 -2.8652 0
M  V30 3 C -1.1825 -2.6138 -1.9497 0
M  V30 4 C -1.536 -0.9965 -3.738 0
M  V30 5 C -2.5671 -2.853 -1.9278 0
M  V30 6 C -0.2916 -3.319 -1.0372 0
M  V30 7 C -2.9057 -1.248 -3.7091 0
M  V30 8 Cl -3.2952 -3.966 -0.8198 0
M  V30 9 C -3.4208 -2.1733 -2.8038 0
M  V30 10 N 0.3444 -4.4233 -1.4548 0
M  V30 11 C 0.0115 -3.0359 0.3293 0
M  V30 12 O 1.0468 -4.8941 -0.3671 0
M  V30 13 C 0.8409 -4.0771 0.6956 0
M  V30 14 C -0.4169 -1.978 1.2196 0
M  V30 15 C 1.5217 -4.4531 1.9507 0
M  V30 16 O -0.4326 -2.107 2.4405 0
M  V30 17 N -0.7724 -0.7922 0.6208 0
M  V30 18 C -1.2033 0.3773 1.4312 0 CFG=2
M  V30 19 C -1.4913 1.669 0.6215 0
M  V30 20 C -0.0905 1.2306 2.1048 0 CFG=2
M  V30 21 O -2.0931 1.9583 -0.3856 0
M  V30 22 N -0.6248 2.3824 1.3807 0
M  V30 23 S 1.6243 1.0598 1.4508 0
M  V30 24 C 0.2924 3.3966 0.8995 0 CFG=2
M  V30 25 C 1.5764 2.6478 0.4756 0
M  V30 26 C 0.5025 4.4133 2.0169 0
M  V30 27 C 2.8807 3.4109 0.7303 0
M  V30 28 C 1.5114 2.2621 -1.012 0
M  V30 29 O 0.5062 4.2039 3.2196 0
M  V30 30 O 0.7381 5.6571 1.5471 0
M  V30 31 H -1.1427 -0.2641 -4.4402 0
M  V30 32 H -3.5724 -0.7187 -4.3866 0
M  V30 33 H -4.4926 -2.3606 -2.7831 0
M  V30 34 H 2.2257 -5.2757 1.7907 0
M  V30 35 H 2.0831 -3.6046 2.3538 0
M  V30 36 H 0.7911 -4.7732 2.6997 0
M  V30 37 H -0.6224 -0.6675 -0.3708 0
M  V30 38 H -2.0373 0.1184 2.0952 0
M  V30 39 H -0.1647 1.3282 3.1914 0
M  V30 40 H -0.1775 3.9102 0.052 0
M  V30 41 H 2.8819 4.3657 0.1923 0
M  V30 42 H 3.7525 2.8448 0.3808 0
M  V30 43 H 3.0384 3.6259 1.793 0
M  V30 44 H 1.4747 3.1607 -1.639 0
M  V30 45 H 2.3931 1.6883 -1.3211 0
M  V30 46 H 0.6258 1.6646 -1.2518 0
M  V30 47 H 0.8478 6.2028 2.3559 0
M  V30 END ATOM
M  V30 BEGIN BOND
M  V30 1 1 1 2
M  V30 2 2 2 3
M  V30 3 1 2 4
M  V30 4 1 3 5
M  V30 5 1 3 6
M  V30 6 2 4 7
M  V30 7 1 5 8
M  V30 8 2 5 9
M  V30 9 2 6 10
M  V30 10 1 6 11
M  V30 11 1 10 12
M  V30 12 2 11 13
M  V30 13 1 11 14
M  V30 14 1 13 15
M  V30 15 2 14 16
M  V30 16 1 14 17
M  V30 17 1 17 18
M  V30 18 1 18 19
M  V30 19 1 18 20
M  V30 20 2 19 21
M  V30 21 1 19 22
M  V30 22 1 20 23
M  V30 23 1 22 24
M  V30 24 1 23 25
M  V30 25 1 24 26
M  V30 26 1 25 27
M  V30 27 1 25 28
M  V30 28 2 26 29
M  V30 29 1 26 30
M  V30 30 1 7 9
M  V30 31 1 12 13
M  V30 32 1 20 22
M  V30 33 1 24 25
M  V30 34 1 4 31
M  V30 35 1 7 32
M  V30 36 1 9 33
M  V30 37 1 15 34
M  V30 38 1 15 35
M  V30 39 1 15 36
M  V30 40 1 17 37
M  V30 41 1 18 38
M  V30 42 1 20 39
M  V30 43 1 24 40
M  V30 44 1 27 41
M  V30 45 1 27 42
M  V30 46 1 27 43
M  V30 47 1 28 44
M  V30 48 1 28 45
M  V30 49 1 28 46
M  V30 50 1 30 47
M  V30 END BOND
M  V30 BEGIN COLLECTION
M  V30 MDLV30/STEABS ATOMS=(3 18 20 24)
M  V30 END COLLECTION
M  V30 END CTAB
M  END
>  <NO.>
2234

>  <Name>
dicloxacillin

>  <SMILES>
Cc1onc(-c2c(Cl)cccc2Cl)c1C(=O)N[C@@H]1C(=O)N2[C@@H](C(=O)O)C(C)(C)S[C@H]12

>  <logBB>


>  <Class>
-1

>  <MW>
469.03

>  <nHBAcc>
6

>  <nHBDon>
2

>  <SLogP>
3.2

>  <TopoPSA>
112.74

>  <MMFF94 Energy>
24.068

$$$$
Cc1onc(-c2c(F)cccc2Cl)c1C(=O)N[C@@H]1C(=O)N2[C@@H](C(=O)O)C(C)(C)S[C@H]12
Actelion Java MolfileCreator 2.0

  0  0  0  0  0  0              0 V3000
M  V30 BEGIN CTAB
M  V30 COUNTS 47 50 0 0 0
M  V30 BEGIN ATOM
M  V30 1 Cl -0.0827 0.1655 3.3971 0
M  V30 2 C -1.8026 0.3499 3.4542 0
M  V30 3 C -2.674 -0.6162 2.9345 0
M  V30 4 C -2.3105 1.5116 4.0498 0
M  V30 5 C -4.0509 -0.3924 3.0227 0
M  V30 6 C -2.192 -1.8283 2.2981 0
M  V30 7 C -3.6887 1.7174 4.1307 0
M  V30 8 F -4.9193 -1.2869 2.5258 0
M  V30 9 C -4.5606 0.7617 3.6152 0
M  V30 10 N -2.1164 -2.9776 2.9838 0
M  V30 11 C -1.7199 -1.9941 0.9613 0
M  V30 12 O -1.6191 -3.9128 2.1043 0
M  V30 13 C -1.394 -3.3348 0.8953 0
M  V30 14 C -1.6541 -0.9845 -0.0727 0
M  V30 15 C -0.9073 -4.2491 -0.1566 0
M  V30 16 O -2.3963 -0.0071 -0.0894 0
M  V30 17 N -0.6834 -1.1656 -1.0309 0
M  V30 18 C -0.5172 -0.1911 -2.1417 0 CFG=2
M  V30 19 C 0.735 -0.4066 -3.0297 0
M  V30 20 C 0.138 1.182 -1.8163 0 CFG=2
M  V30 21 O 1.2785 -1.3421 -3.5674 0
M  V30 22 N 1.1377 0.8725 -2.837 0
M  V30 23 S 1.1238 1.3186 -0.2676 0
M  V30 24 C 2.5041 1.3142 -2.639 0 CFG=2
M  V30 25 C 2.7752 1.2058 -1.1214 0
M  V30 26 C 2.6296 2.7282 -3.1968 0
M  V30 27 C 3.6897 2.2952 -0.5507 0
M  V30 28 C 3.3684 -0.1701 -0.7734 0
M  V30 29 O 1.7732 3.5982 -3.2137 0
M  V30 30 O 3.864 2.9863 -3.6792 0
M  V30 31 H -1.6333 2.2621 4.4518 0
M  V30 32 H -4.0798 2.6213 4.5916 0
M  V30 33 H -5.6357 0.9062 3.6649 0
M  V30 34 H -1.1506 -5.2897 0.0809 0
M  V30 35 H -1.3662 -4.0142 -1.1217 0
M  V30 36 H 0.179 -4.1698 -0.2579 0
M  V30 37 H -0.0173 -1.9199 -0.9285 0
M  V30 38 H -1.4332 -0.1186 -2.7413 0
M  V30 39 H -0.4687 2.0596 -2.0568 0
M  V30 40 H 3.1643 0.6571 -3.2181 0
M  V30 41 H 3.8698 2.1485 0.5211 0
M  V30 42 H 3.2704 3.2999 -0.6742 0
M  V30 43 H 4.6676 2.2779 -1.0452 0
M  V30 44 H 3.5285 -0.2815 0.3056 0
M  V30 45 H 4.3423 -0.3007 -1.2596 0
M  V30 46 H 2.7296 -0.9973 -1.1002 0
M  V30 47 H 3.8059 3.9102 -4.006 0
M  V30 END ATOM
M  V30 BEGIN BOND
M  V30 1 1 1 2
M  V30 2 2 2 3
M  V30 3 1 2 4
M  V30 4 1 3 5
M  V30 5 1 3 6
M  V30 6 2 4 7
M  V30 7 1 5 8
M  V30 8 2 5 9
M  V30 9 2 6 10
M  V30 10 1 6 11
M  V30 11 1 10 12
M  V30 12 2 11 13
M  V30 13 1 11 14
M  V30 14 1 13 15
M  V30 15 2 14 16
M  V30 16 1 14 17
M  V30 17 1 17 18
M  V30 18 1 18 19
M  V30 19 1 18 20
M  V30 20 2 19 21
M  V30 21 1 19 22
M  V30 22 1 20 23
M  V30 23 1 22 24
M  V30 24 1 23 25
M  V30 25 1 24 26
M  V30 26 1 25 27
M  V30 27 1 25 28
M  V30 28 2 26 29
M  V30 29 1 26 30
M  V30 30 1 7 9
M  V30 31 1 12 13
M  V30 32 1 20 22
M  V30 33 1 24 25
M  V30 34 1 4 31
M  V30 35 1 7 32
M  V30 36 1 9 33
M  V30 37 1 15 34
M  V30 38 1 15 35
M  V30 39 1 15 36
M  V30 40 1 17 37
M  V30 41 1 18 38
M  V30 42 1 20 39
M  V30 43 1 24 40
M  V30 44 1 27 41
M  V30 45 1 27 42
M  V30 46 1 27 43
M  V30 47 1 28 44
M  V30 48 1 28 45
M  V30 49 1 28 46
M  V30 50 1 30 47
M  V30 END BOND
M  V30 BEGIN COLLECTION
M  V30 MDLV30/STEABS ATOMS=(3 18 20 24)
M  V30 END COLLECTION
M  V30 END CTAB
M  END
>  <NO.>
2235

>  <Name>
flucloxacillin

>  <SMILES>
Cc1onc(-c2c(F)cccc2Cl)c1C(=O)N[C@@H]1C(=O)N2[C@@H](C(=O)O)C(C)(C)S[C@H]12

>  <logBB>


>  <Class>
-1

>  <MW>
453.06

>  <nHBAcc>
6

>  <nHBDon>
2

>  <SLogP>
2.69

>  <TopoPSA>
112.74

>  <MMFF94 Energy>
22.222

$$$$
Cc1onc(-c2ccccc2)c1C(=O)N[C@@H]1C(=O)N2[C@@H](C(=O)O)C(C)(C)S[C@H]12
Actelion Java MolfileCreator 2.0

  0  0  0  0  0  0              0 V3000
M  V30 BEGIN CTAB
M  V30 COUNTS 47 50 0 0 0
M  V30 BEGIN ATOM
M  V30 1 S 0.0 -2.6979 -1.7162 0
M  V30 2 C -1.2669 -3.2948 -0.4769 0
M  V30 3 C -1.0876 -1.3729 -2.3988 0 CFG=1
M  V30 4 C -2.6036 -2.6002 -0.8283 0 CFG=1
M  V30 5 C -1.3058 -4.8259 -0.525 0
M  V30 6 C -0.7771 -2.8553 0.9135 0
M  V30 7 N -2.2483 -1.3773 -1.5203 0
M  V30 8 C -0.7961 0.075 -1.9152 0 CFG=1
M  V30 9 C -3.5034 -3.4165 -1.7502 0
M  V30 10 C -1.9866 -0.1799 -0.937 0
M  V30 11 N 0.5213 0.2966 -1.2593 0
M  V30 12 O -3.4477 -3.4832 -2.9682 0
M  V30 13 O -4.411 -4.1502 -1.0723 0
M  V30 14 O -2.4492 0.3198 0.0605 0
M  V30 15 C 0.9162 1.5524 -0.8578 0
M  V30 16 O 0.2531 2.5533 -1.1009 0
M  V30 17 C 2.1479 1.5884 -0.1034 0
M  V30 18 C 2.4779 2.3889 1.0361 0
M  V30 19 C 3.3039 0.8785 -0.3626 0
M  V30 20 N 3.7435 2.1464 1.4205 0
M  V30 21 C 1.6522 3.3396 1.785 0
M  V30 22 O 4.2467 1.2071 0.554 0
M  V30 23 C 3.7283 -0.0897 -1.3927 0
M  V30 24 C 0.289 3.1053 2.0133 0
M  V30 25 C 2.2317 4.5033 2.3153 0
M  V30 26 C -0.4784 4.0217 2.7386 0
M  V30 27 C 1.464 5.4172 3.0417 0
M  V30 28 C 0.1083 5.1766 3.251 0
M  V30 29 H -1.3394 -1.4773 -3.4575 0
M  V30 30 H -3.1754 -2.3369 0.0697 0
M  V30 31 H -1.5445 -5.2066 -1.5241 0
M  V30 32 H -0.3427 -5.2618 -0.2333 0
M  V30 33 H -2.0583 -5.2157 0.1699 0
M  V30 34 H -1.488 -3.17 1.6865 0
M  V30 35 H 0.1913 -3.3051 1.1628 0
M  V30 36 H -0.6684 -1.7689 0.9968 0
M  V30 37 H -1.0155 0.8379 -2.671 0
M  V30 38 H 1.0685 -0.508 -0.974 0
M  V30 39 H -4.925 -4.6088 -1.7716 0
M  V30 40 H 4.8141 -0.0691 -1.5295 0
M  V30 41 H 3.4408 -1.1045 -1.102 0
M  V30 42 H 3.2676 0.1382 -2.3586 0
M  V30 43 H -0.2017 2.2111 1.6372 0
M  V30 44 H 3.2897 4.7076 2.1624 0
M  V30 45 H -1.5365 3.8305 2.8996 0
M  V30 46 H 1.9263 6.3155 3.4422 0
M  V30 47 H -0.491 5.8878 3.8132 0
M  V30 END ATOM
M  V30 BEGIN BOND
M  V30 1 1 1 2
M  V30 2 1 1 3
M  V30 3 1 2 4
M  V30 4 1 2 5
M  V30 5 1 2 6
M  V30 6 1 3 7
M  V30 7 1 3 8
M  V30 8 1 4 9
M  V30 9 1 7 10
M  V30 10 1 8 11
M  V30 11 2 9 12
M  V30 12 1 9 13
M  V30 13 2 10 14
M  V30 14 1 11 15
M  V30 15 2 15 16
M  V30 16 1 15 17
M  V30 17 1 17 18
M  V30 18 2 17 19
M  V30 19 2 18 20
M  V30 20 1 18 21
M  V30 21 1 19 22
M  V30 22 1 19 23
M  V30 23 2 21 24
M  V30 24 1 21 25
M  V30 25 1 24 26
M  V30 26 2 25 27
M  V30 27 2 26 28
M  V30 28 1 4 7
M  V30 29 1 8 10
M  V30 30 1 20 22
M  V30 31 1 27 28
M  V30 32 1 3 29
M  V30 33 1 4 30
M  V30 34 1 5 31
M  V30 35 1 5 32
M  V30 36 1 5 33
M  V30 37 1 6 34
M  V30 38 1 6 35
M  V30 39 1 6 36
M  V30 40 1 8 37
M  V30 41 1 11 38
M  V30 42 1 13 39
M  V30 43 1 23 40
M  V30 44 1 23 41
M  V30 45 1 23 42
M  V30 46 1 24 43
M  V30 47 1 25 44
M  V30 48 1 26 45
M  V30 49 1 27 46
M  V30 50 1 28 47
M  V30 END BOND
M  V30 BEGIN COLLECTION
M  V30 MDLV30/STEABS ATOMS=(3 3 4 8)
M  V30 END COLLECTION
M  V30 END CTAB
M  END
>  <NO.>
2236

>  <Name>
oxacillin

>  <SMILES>
Cc1onc(-c2ccccc2)c1C(=O)N[C@@H]1C(=O)N2[C@@H](C(=O)O)C(C)(C)S[C@H]12

>  <logBB>


>  <Class>
-1

>  <MW>
401.1

>  <nHBAcc>
6

>  <nHBDon>
2

>  <SLogP>
1.9

>  <TopoPSA>
112.74

>  <MMFF94 Energy>
30.218

$$$$
Clc1ccc(C(OCCN2CCOCC2)c2ccccc2)cc1
Actelion Java MolfileCreator 2.0

  0  0  0  0  0  0              0 V3000
M  V30 BEGIN CTAB
M  V30 COUNTS 45 47 0 0 0
M  V30 BEGIN ATOM
M  V30 1 Cl 2.3303 -6.4385 1.4459 0
M  V30 2 C 1.5373 -4.9192 1.2911 0
M  V30 3 C 1.4995 -4.2809 0.0543 0
M  V30 4 C 0.937 -4.3357 2.4048 0
M  V30 5 C 0.8563 -3.0473 -0.069 0
M  V30 6 C 0.2932 -3.1016 2.2815 0
M  V30 7 C 0.2479 -2.4402 1.043 0
M  V30 8 C -0.4628 -1.1002 0.9143 0 CFG=1
M  V30 9 O 0.3505 -0.1862 0.1635 0
M  V30 10 C -1.8282 -1.2318 0.25 0
M  V30 11 C 1.3005 0.51 0.9741 0
M  V30 12 C -2.9391 -1.635 1.0111 0
M  V30 13 C -2.0132 -0.9836 -1.1201 0
M  V30 14 C 2.0929 1.5051 0.1078 0
M  V30 15 C -4.197 -1.7745 0.4208 0
M  V30 16 C -3.2717 -1.1228 -1.7087 0
M  V30 17 N 1.4216 2.8076 -0.0992 0
M  V30 18 C -4.3629 -1.5171 -0.9379 0
M  V30 19 C 2.3137 3.7167 -0.8545 0
M  V30 20 C 0.1508 2.6665 -0.8462 0
M  V30 21 C 1.6319 5.06 -1.1538 0
M  V30 22 C -0.4766 4.0343 -1.1669 0
M  V30 23 O 0.4262 4.8687 -1.9037 0
M  V30 24 H 1.9641 -4.7354 -0.8162 0
M  V30 25 H 0.9642 -4.8364 3.369 0
M  V30 26 H 0.8287 -2.5548 -1.0394 0
M  V30 27 H -0.1744 -2.6612 3.1595 0
M  V30 28 H -0.6323 -0.6685 1.9106 0
M  V30 29 H 1.9982 -0.2178 1.4036 0
M  V30 30 H 0.7966 1.0341 1.795 0
M  V30 31 H -2.8304 -1.8466 2.0724 0
M  V30 32 H -1.1722 -0.6777 -1.739 0
M  V30 33 H 3.0362 1.7011 0.633 0
M  V30 34 H 2.3375 1.0412 -0.8564 0
M  V30 35 H -5.0474 -2.0871 1.0213 0
M  V30 36 H -3.3982 -0.9249 -2.7698 0
M  V30 37 H -5.3416 -1.627 -1.3973 0
M  V30 38 H 3.2256 3.9075 -0.2772 0
M  V30 39 H 2.6045 3.2494 -1.8047 0
M  V30 40 H 0.3277 2.1283 -1.7864 0
M  V30 41 H -0.5789 2.1032 -0.2566 0
M  V30 42 H 2.2982 5.6875 -1.7544 0
M  V30 43 H 1.4034 5.6063 -0.2305 0
M  V30 44 H -1.3724 3.8946 -1.7806 0
M  V30 45 H -0.781 4.5543 -0.2502 0
M  V30 END ATOM
M  V30 BEGIN BOND
M  V30 1 1 1 2
M  V30 2 2 2 3
M  V30 3 1 2 4
M  V30 4 1 3 5
M  V30 5 2 4 6
M  V30 6 2 5 7
M  V30 7 1 7 8
M  V30 8 1 8 9
M  V30 9 1 8 10
M  V30 10 1 9 11
M  V30 11 2 10 12
M  V30 12 1 10 13
M  V30 13 1 11 14
M  V30 14 1 12 15
M  V30 15 2 13 16
M  V30 16 1 14 17
M  V30 17 2 15 18
M  V30 18 1 17 19
M  V30 19 1 17 20
M  V30 20 1 19 21
M  V30 21 1 20 22
M  V30 22 1 21 23
M  V30 23 1 6 7
M  V30 24 1 16 18
M  V30 25 1 22 23
M  V30 26 1 3 24
M  V30 27 1 4 25
M  V30 28 1 5 26
M  V30 29 1 6 27
M  V30 30 1 8 28
M  V30 31 1 11 29
M  V30 32 1 11 30
M  V30 33 1 12 31
M  V30 34 1 13 32
M  V30 35 1 14 33
M  V30 36 1 14 34
M  V30 37 1 15 35
M  V30 38 1 16 36
M  V30 39 1 18 37
M  V30 40 1 19 38
M  V30 41 1 19 39
M  V30 42 1 20 40
M  V30 43 1 20 41
M  V30 44 1 21 42
M  V30 45 1 21 43
M  V30 46 1 22 44
M  V30 47 1 22 45
M  V30 END BOND
M  V30 BEGIN COLLECTION
M  V30 MDLV30/STERAC1 ATOMS=(1 8)
M  V30 END COLLECTION
M  V30 END CTAB
M  END
>  <NO.>
2237

>  <Name>
difencloxazine

>  <SMILES>
Clc1ccc(C(OCCN2CCOCC2)c2ccccc2)cc1

>  <logBB>


>  <Class>
1

>  <MW>
331.13

>  <nHBAcc>
3

>  <nHBDon>
0

>  <SLogP>
3.78

>  <TopoPSA>
21.7

>  <MMFF94 Energy>
132.4

$$$$
Clc1ccc(N2CCN(C/C=C/c3ccccc3)CC2)nn1
Actelion Java MolfileCreator 2.0

  0  0  0  0  0  0              0 V3000
M  V30 BEGIN CTAB
M  V30 COUNTS 41 43 0 0 0
M  V30 BEGIN ATOM
M  V30 1 Cl -6.5199 -4.9876 -1.3657 0
M  V30 2 C -5.1874 -4.0376 -0.8697 0
M  V30 3 N -5.4739 -2.9917 -0.0826 0
M  V30 4 C -3.9022 -4.327 -1.2629 0
M  V30 5 N -4.4454 -2.178 0.3529 0
M  V30 6 C -2.8751 -3.4963 -0.8104 0
M  V30 7 C -3.1528 -2.4134 0.0215 0
M  V30 8 N -2.1494 -1.5605 0.4742 0
M  V30 9 C -2.61 -0.3818 1.2325 0
M  V30 10 C -0.8716 -2.1298 0.9308 0
M  V30 11 C -1.4814 0.6621 1.3916 0
M  V30 12 C 0.2059 -1.0334 1.1048 0
M  V30 13 N -0.2507 0.0795 1.9559 0
M  V30 14 C 0.7971 1.0663 2.2223 0
M  V30 15 C 1.3709 1.7618 1.0193 0
M  V30 16 C 2.6589 1.6723 0.6479 0
M  V30 17 C 3.2291 2.3595 -0.5185 0
M  V30 18 C 2.5256 2.4966 -1.7226 0
M  V30 19 C 4.5414 2.844 -0.4454 0
M  V30 20 C 3.1133 3.1291 -2.8214 0
M  V30 21 C 5.1289 3.477 -1.5439 0
M  V30 22 C 4.4135 3.6214 -2.7307 0
M  V30 23 H -3.6897 -5.1676 -1.9123 0
M  V30 24 H -1.8647 -3.6972 -1.1465 0
M  V30 25 H -3.4425 0.1138 0.7169 0
M  V30 26 H -2.9608 -0.6951 2.2246 0
M  V30 27 H -0.4724 -2.8622 0.2223 0
M  V30 28 H -1.0275 -2.6457 1.8872 0
M  V30 29 H -1.2839 1.1071 0.408 0
M  V30 30 H -1.848 1.4621 2.046 0
M  V30 31 H 0.4887 -0.6686 0.1086 0
M  V30 32 H 1.0944 -1.4992 1.548 0
M  V30 33 H 1.5968 0.5739 2.791 0
M  V30 34 H 0.401 1.832 2.9017 0
M  V30 35 H 0.6866 2.3938 0.46 0
M  V30 36 H 3.3548 1.0729 1.2305 0
M  V30 37 H 1.5168 2.1039 -1.8224 0
M  V30 38 H 5.1162 2.7417 0.4721 0
M  V30 39 H 2.5562 3.2325 -3.7489 0
M  V30 40 H 6.1448 3.8563 -1.4719 0
M  V30 41 H 4.8703 4.1131 -3.5855 0
M  V30 END ATOM
M  V30 BEGIN BOND
M  V30 1 1 1 2
M  V30 2 2 2 3
M  V30 3 1 2 4
M  V30 4 1 3 5
M  V30 5 2 4 6
M  V30 6 2 5 7
M  V30 7 1 7 8
M  V30 8 1 8 9
M  V30 9 1 8 10
M  V30 10 1 9 11
M  V30 11 1 10 12
M  V30 12 1 11 13
M  V30 13 1 13 14
M  V30 14 1 14 15
M  V30 15 2 15 16
M  V30 16 1 16 17
M  V30 17 2 17 18
M  V30 18 1 17 19
M  V30 19 1 18 20
M  V30 20 2 19 21
M  V30 21 2 20 22
M  V30 22 1 6 7
M  V30 23 1 12 13
M  V30 24 1 21 22
M  V30 25 1 4 23
M  V30 26 1 6 24
M  V30 27 1 9 25
M  V30 28 1 9 26
M  V30 29 1 10 27
M  V30 30 1 10 28
M  V30 31 1 11 29
M  V30 32 1 11 30
M  V30 33 1 12 31
M  V30 34 1 12 32
M  V30 35 1 14 33
M  V30 36 1 14 34
M  V30 37 1 15 35
M  V30 38 1 16 36
M  V30 39 1 18 37
M  V30 40 1 19 38
M  V30 41 1 20 39
M  V30 42 1 21 40
M  V30 43 1 22 41
M  V30 END BOND
M  V30 END CTAB
M  END
>  <NO.>
2239

>  <Name>
lorcinadol

>  <SMILES>
Clc1ccc(N2CCN(C/C=C/c3ccccc3)CC2)nn1

>  <logBB>


>  <Class>
1

>  <MW>
314.13

>  <nHBAcc>
4

>  <nHBDon>
0

>  <SLogP>
2.97

>  <TopoPSA>
32.26

>  <MMFF94 Energy>
99.294

$$$$
Clc1ccc(OCC2=NCCN2)cc1Cl
Actelion Java MolfileCreator 2.0

  0  0  0  0  0  0              0 V3000
M  V30 BEGIN CTAB
M  V30 COUNTS 25 26 0 0 0
M  V30 BEGIN ATOM
M  V30 1 Cl -1.9703 -3.6966 3.2854 0
M  V30 2 C -0.8903 -2.3839 2.9753 0
M  V30 3 C -0.013 -1.8897 3.9443 0
M  V30 4 C -0.9121 -1.8096 1.7006 0
M  V30 5 Cl 0.0739 -2.5439 5.5403 0
M  V30 6 C 0.835 -0.8251 3.6291 0
M  V30 7 C -0.0646 -0.7443 1.3827 0
M  V30 8 C 0.81 -0.2532 2.3521 0
M  V30 9 O -0.1896 -0.2795 0.1033 0
M  V30 10 C 0.6514 0.8066 -0.2741 0
M  V30 11 C 0.3776 1.1876 -1.7177 0
M  V30 12 N 1.0271 2.1631 -2.3015 0
M  V30 13 N -0.5483 0.5467 -2.4843 0
M  V30 14 C 0.4679 2.2095 -3.689 0
M  V30 15 C -0.5985 1.1081 -3.7979 0
M  V30 16 H -1.5937 -2.1916 0.9441 0
M  V30 17 H 1.5221 -0.4323 4.3755 0
M  V30 18 H 1.4865 0.5721 2.1515 0
M  V30 19 H 0.4474 1.6892 0.3433 0
M  V30 20 H 1.7079 0.523 -0.2033 0
M  V30 21 H -1.1163 -0.2215 -2.1543 0
M  V30 22 H 1.2741 2.0479 -4.4122 0
M  V30 23 H 0.0324 3.1972 -3.8734 0
M  V30 24 H -0.3363 0.3699 -4.561 0
M  V30 25 H -1.585 1.5256 -4.0194 0
M  V30 END ATOM
M  V30 BEGIN BOND
M  V30 1 1 1 2
M  V30 2 2 2 3
M  V30 3 1 2 4
M  V30 4 1 3 5
M  V30 5 1 3 6
M  V30 6 2 4 7
M  V30 7 2 6 8
M  V30 8 1 7 9
M  V30 9 1 9 10
M  V30 10 1 10 11
M  V30 11 2 11 12
M  V30 12 1 11 13
M  V30 13 1 12 14
M  V30 14 1 13 15
M  V30 15 1 7 8
M  V30 16 1 14 15
M  V30 17 1 4 16
M  V30 18 1 6 17
M  V30 19 1 8 18
M  V30 20 1 10 19
M  V30 21 1 10 20
M  V30 22 1 13 21
M  V30 23 1 14 22
M  V30 24 1 14 23
M  V30 25 1 15 24
M  V30 26 1 15 25
M  V30 END BOND
M  V30 END CTAB
M  END
>  <NO.>
2240

>  <Name>
fenmetozole

>  <SMILES>
Clc1ccc(OCC2=NCCN2)cc1Cl

>  <logBB>


>  <Class>
1

>  <MW>
244.02

>  <nHBAcc>
3

>  <nHBDon>
1

>  <SLogP>
2.37

>  <TopoPSA>
33.62

>  <MMFF94 Energy>
59.921

$$$$
Clc1ccc([C@@H]2[C@H]3CC[C@@H](C3)C23CCC(N2CCOCC2)=N3)cc1
Actelion Java MolfileCreator 2.0

  0  0  0  0  0  0              0 V3000
M  V30 BEGIN CTAB
M  V30 COUNTS 49 53 0 0 0
M  V30 BEGIN ATOM
M  V30 1 Cl -0.813 4.1516 -3.418 0
M  V30 2 C -0.0725 2.8412 -2.5853 0
M  V30 3 C 0.7483 3.0923 -1.491 0
M  V30 4 C -0.3005 1.535 -3.0057 0
M  V30 5 C 1.342 2.0255 -0.8116 0
M  V30 6 C 0.2925 0.4694 -2.3218 0
M  V30 7 C 1.1218 0.6959 -1.2141 0
M  V30 8 C 1.7789 -0.4289 -0.4315 0 CFG=1
M  V30 9 C 0.9154 -1.1785 0.6433 0
M  V30 10 C 2.3332 -1.6134 -1.2865 0 CFG=2
M  V30 11 N -0.5425 -1.0011 0.4259 0
M  V30 12 C 1.2713 -2.664 0.373 0 CFG=2
M  V30 13 C 1.1437 -0.723 2.0793 0
M  V30 14 C 1.2672 -2.7043 -1.1569 0
M  V30 15 C 3.4865 -2.2638 -0.4925 0
M  V30 16 C -0.9557 -0.1317 1.3011 0
M  V30 17 C 2.7556 -2.9473 0.6744 0
M  V30 18 C 0.1026 0.3557 2.2581 0
M  V30 19 N -2.2496 0.3309 1.3627 0
M  V30 20 C -3.2804 -0.1621 0.4364 0
M  V30 21 C -2.6597 1.5557 2.0553 0
M  V30 22 C -3.6449 0.9519 -0.5543 0
M  V30 23 C -3.0465 2.6181 1.0125 0
M  V30 24 O -4.0819 2.1389 0.1364 0
M  V30 25 H 0.9316 4.1112 -1.1619 0
M  V30 26 H -0.9441 1.334 -3.8575 0
M  V30 27 H 1.9822 2.2415 0.0411 0
M  V30 28 H 0.0814 -0.5402 -2.6607 0
M  V30 29 H 2.6481 0.026 0.065 0
M  V30 30 H 2.6178 -1.3513 -2.3081 0
M  V30 31 H 0.5876 -3.3757 0.8433 0
M  V30 32 H 0.9384 -1.5437 2.7787 0
M  V30 33 H 2.1558 -0.3595 2.2802 0
M  V30 34 H 1.5906 -3.6705 -1.5603 0
M  V30 35 H 0.301 -2.4482 -1.597 0
M  V30 36 H 4.0029 -3.013 -1.1039 0
M  V30 37 H 4.2317 -1.5403 -0.1473 0
M  V30 38 H 2.9541 -4.0252 0.656 0
M  V30 39 H 3.0806 -2.5648 1.6459 0
M  V30 40 H 0.4594 1.3398 1.9441 0
M  V30 41 H -0.2629 0.4009 3.2868 0
M  V30 42 H -4.1666 -0.4318 1.0239 0
M  V30 43 H -2.9666 -1.0609 -0.1041 0
M  V30 44 H -1.8796 1.9518 2.7113 0
M  V30 45 H -3.529 1.3243 2.6825 0
M  V30 46 H -4.4666 0.6247 -1.1988 0
M  V30 47 H -2.7947 1.2086 -1.1954 0
M  V30 48 H -2.1798 2.9147 0.4098 0
M  V30 49 H -3.4276 3.5121 1.5161 0
M  V30 END ATOM
M  V30 BEGIN BOND
M  V30 1 1 1 2
M  V30 2 2 2 3
M  V30 3 1 2 4
M  V30 4 1 3 5
M  V30 5 2 4 6
M  V30 6 2 5 7
M  V30 7 1 7 8
M  V30 8 1 8 9
M  V30 9 1 8 10
M  V30 10 1 9 11
M  V30 11 1 9 12
M  V30 12 1 9 13
M  V30 13 1 10 14
M  V30 14 1 10 15
M  V30 15 2 11 16
M  V30 16 1 12 17
M  V30 17 1 13 18
M  V30 18 1 16 19
M  V30 19 1 19 20
M  V30 20 1 19 21
M  V30 21 1 20 22
M  V30 22 1 21 23
M  V30 23 1 22 24
M  V30 24 1 6 7
M  V30 25 1 12 14
M  V30 26 1 15 17
M  V30 27 1 16 18
M  V30 28 1 23 24
M  V30 29 1 3 25
M  V30 30 1 4 26
M  V30 31 1 5 27
M  V30 32 1 6 28
M  V30 33 1 8 29
M  V30 34 1 10 30
M  V30 35 1 12 31
M  V30 36 1 13 32
M  V30 37 1 13 33
M  V30 38 1 14 34
M  V30 39 1 14 35
M  V30 40 1 15 36
M  V30 41 1 15 37
M  V30 42 1 17 38
M  V30 43 1 17 39
M  V30 44 1 18 40
M  V30 45 1 18 41
M  V30 46 1 20 42
M  V30 47 1 20 43
M  V30 48 1 21 44
M  V30 49 1 21 45
M  V30 50 1 22 46
M  V30 51 1 22 47
M  V30 52 1 23 48
M  V30 53 1 23 49
M  V30 END BOND
M  V30 BEGIN COLLECTION
M  V30 MDLV30/STEABS ATOMS=(3 8 10 12)
M  V30 END COLLECTION
M  V30 END CTAB
M  END
>  <NO.>
2241

>  <Name>
spiclamine

>  <SMILES>
Clc1ccc([C@@H]2[C@H]3CC[C@@H](C3)C23CCC(N2CCOCC2)=N3)cc1

>  <logBB>


>  <Class>
1

>  <MW>
344.17

>  <nHBAcc>
3

>  <nHBDon>
0

>  <SLogP>
4.12

>  <TopoPSA>
24.83

>  <MMFF94 Energy>
103.38

$$$$
Clc1ccc2c(c1)C(c1ccccc1)=NCc1nncn1-2
Actelion Java MolfileCreator 2.0

  0  0  0  0  0  0              0 V3000
M  V30 BEGIN CTAB
M  V30 COUNTS 32 35 0 0 0
M  V30 BEGIN ATOM
M  V30 1 Cl 3.3614 2.951 1.2288 0
M  V30 2 C 2.6996 1.4205 0.8087 0
M  V30 3 C 1.4353 1.3506 0.2257 0
M  V30 4 C 3.431 0.2619 1.0544 0
M  V30 5 C 0.8776 0.1059 -0.1122 0
M  V30 6 C 2.9033 -0.9811 0.7017 0
M  V30 7 C -0.5123 0.0961 -0.6771 0
M  V30 8 C 1.6308 -1.0608 0.1116 0
M  V30 9 N -0.8981 -0.6081 -1.687 0
M  V30 10 C -1.5476 0.9666 -0.0294 0
M  V30 11 N 1.1584 -2.3218 -0.3022 0
M  V30 12 C 0.0108 -1.5239 -2.3668 0
M  V30 13 C -2.503 1.5987 -0.8341 0
M  V30 14 C -1.5928 1.1301 1.3611 0
M  V30 15 C 0.4477 -2.5939 -1.4439 0
M  V30 16 C 1.3704 -3.5406 0.2822 0
M  V30 17 C -3.4773 2.4132 -0.2553 0
M  V30 18 C -2.5697 1.9464 1.9353 0
M  V30 19 N 0.2675 -3.8949 -1.5499 0
M  V30 20 N 0.8493 -4.4919 -0.457 0
M  V30 21 C -3.5071 2.5898 1.1275 0
M  V30 22 H 0.8888 2.2724 0.0352 0
M  V30 23 H 4.42 0.3215 1.5037 0
M  V30 24 H 3.515 -1.8663 0.8666 0
M  V30 25 H 0.8664 -0.9866 -2.7927 0
M  V30 26 H -0.5234 -1.9722 -3.2117 0
M  V30 27 H -2.4929 1.4569 -1.9124 0
M  V30 28 H -0.8903 0.6175 2.0118 0
M  V30 29 H 1.8898 -3.6825 1.2184 0
M  V30 30 H -4.2173 2.9031 -0.8834 0
M  V30 31 H -2.6076 2.0734 3.0146 0
M  V30 32 H -4.2705 3.2205 1.5771 0
M  V30 END ATOM
M  V30 BEGIN BOND
M  V30 1 1 1 2
M  V30 2 2 2 3
M  V30 3 1 2 4
M  V30 4 1 3 5
M  V30 5 2 4 6
M  V30 6 1 5 7
M  V30 7 2 5 8
M  V30 8 2 7 9
M  V30 9 1 7 10
M  V30 10 1 8 11
M  V30 11 1 9 12
M  V30 12 2 10 13
M  V30 13 1 10 14
M  V30 14 1 11 15
M  V30 15 1 11 16
M  V30 16 1 13 17
M  V30 17 2 14 18
M  V30 18 2 15 19
M  V30 19 2 16 20
M  V30 20 2 17 21
M  V30 21 1 6 8
M  V30 22 1 12 15
M  V30 23 1 18 21
M  V30 24 1 19 20
M  V30 25 1 3 22
M  V30 26 1 4 23
M  V30 27 1 6 24
M  V30 28 1 12 25
M  V30 29 1 12 26
M  V30 30 1 13 27
M  V30 31 1 14 28
M  V30 32 1 16 29
M  V30 33 1 17 30
M  V30 34 1 18 31
M  V30 35 1 21 32
M  V30 END BOND
M  V30 END CTAB
M  END
>  <NO.>
2243

>  <Name>
estazolam

>  <SMILES>
Clc1ccc2c(c1)C(c1ccccc1)=NCc1nncn1-2

>  <logBB>


>  <Class>
1

>  <MW>
294.07

>  <nHBAcc>
3

>  <nHBDon>
0

>  <SLogP>
3.27

>  <TopoPSA>
43.07

>  <MMFF94 Energy>
84.533

$$$$
Clc1cccc(Cl)c1NC1=NCCO1
Actelion Java MolfileCreator 2.0

  0  0  0  0  0  0              0 V3000
M  V30 BEGIN CTAB
M  V30 COUNTS 22 23 0 0 0
M  V30 BEGIN ATOM
M  V30 1 Cl -1.2369 0.4121 2.3099 0
M  V30 2 C -0.8412 -0.9807 1.3571 0
M  V30 3 C 0.2789 -1.0169 0.5032 0
M  V30 4 C -1.6258 -2.1238 1.5696 0
M  V30 5 N 1.0529 0.1142 0.1793 0
M  V30 6 C 0.5859 -2.2542 -0.103 0
M  V30 7 C -1.3087 -3.3264 0.9428 0
M  V30 8 C 0.5882 1.3075 -0.2691 0
M  V30 9 Cl 1.9578 -2.4071 -1.1526 0
M  V30 10 C -0.1957 -3.3945 0.1116 0
M  V30 11 O 1.6026 2.1855 -0.4942 0
M  V30 12 N -0.617 1.6821 -0.5427 0
M  V30 13 C 0.9964 3.2811 -1.1619 0
M  V30 14 C -0.4799 3.0886 -0.9233 0
M  V30 15 H -2.482 -2.0805 2.2397 0
M  V30 16 H 2.0405 -0.0484 0.0389 0
M  V30 17 H -1.9215 -4.2085 1.1121 0
M  V30 18 H 0.0573 -4.3348 -0.3721 0
M  V30 19 H 1.3628 4.2271 -0.7528 0
M  V30 20 H 1.2522 3.2306 -2.2254 0
M  V30 21 H -1.066 3.3239 -1.8167 0
M  V30 22 H -0.8363 3.7237 -0.1046 0
M  V30 END ATOM
M  V30 BEGIN BOND
M  V30 1 1 1 2
M  V30 2 2 2 3
M  V30 3 1 2 4
M  V30 4 1 3 5
M  V30 5 1 3 6
M  V30 6 2 4 7
M  V30 7 1 5 8
M  V30 8 1 6 9
M  V30 9 2 6 10
M  V30 10 1 8 11
M  V30 11 2 8 12
M  V30 12 1 11 13
M  V30 13 1 12 14
M  V30 14 1 7 10
M  V30 15 1 13 14
M  V30 16 1 4 15
M  V30 17 1 5 16
M  V30 18 1 7 17
M  V30 19 1 10 18
M  V30 20 1 13 19
M  V30 21 1 13 20
M  V30 22 1 14 21
M  V30 23 1 14 22
M  V30 END BOND
M  V30 END CTAB
M  END
>  <NO.>
2246

>  <Name>
clidafidine

>  <SMILES>
Clc1cccc(Cl)c1NC1=NCCO1

>  <logBB>


>  <Class>
1

>  <MW>
230

>  <nHBAcc>
3

>  <nHBDon>
1

>  <SLogP>
2.79

>  <TopoPSA>
33.62

>  <MMFF94 Energy>
1.2154

$$$$
Clc1cnn(CCCCN2CCN(c3ncccn3)CC2)c1
Actelion Java MolfileCreator 2.0

  0  0  0  0  0  0              0 V3000
M  V30 BEGIN CTAB
M  V30 COUNTS 43 45 0 0 0
M  V30 BEGIN ATOM
M  V30 1 Cl 2.6373 -0.8785 7.3659 0
M  V30 2 C 2.8552 -0.8653 5.69 0
M  V30 3 C 2.8861 -1.9829 4.8382 0
M  V30 4 C 3.04 0.2158 4.8648 0
M  V30 5 N 3.0792 -1.6407 3.5596 0
M  V30 6 N 3.1601 -0.2955 3.604 0
M  V30 7 C 3.3752 0.4563 2.3811 0
M  V30 8 C 2.0619 0.8919 1.7364 0
M  V30 9 C 2.3162 1.6582 0.4353 0
M  V30 10 C 1.0311 2.2068 -0.2028 0
M  V30 11 N 0.0066 1.1878 -0.47 0
M  V30 12 C -1.2605 1.8372 -0.8831 0
M  V30 13 C 0.4152 0.2507 -1.5423 0
M  V30 14 C -2.3965 0.8351 -1.1842 0
M  V30 15 C -0.6597 -0.81 -1.8747 0
M  V30 16 N -1.9594 -0.1913 -2.1272 0
M  V30 17 C -2.9333 -0.9698 -2.7228 0
M  V30 18 N -4.2131 -0.5567 -2.6807 0
M  V30 19 N -2.5697 -2.1093 -3.3381 0
M  V30 20 C -5.1441 -1.3253 -3.2767 0
M  V30 21 C -3.5333 -2.8472 -3.9208 0
M  V30 22 C -4.8579 -2.4991 -3.9213 0
M  V30 23 H 2.7783 -3.029 5.0923 0
M  V30 24 H 3.0891 1.2767 5.062 0
M  V30 25 H 3.9922 1.3251 2.6379 0
M  V30 26 H 3.9579 -0.1772 1.7023 0
M  V30 27 H 1.4986 1.5243 2.4343 0
M  V30 28 H 1.4421 0.0085 1.5407 0
M  V30 29 H 2.9801 2.5072 0.643 0
M  V30 30 H 2.853 1.0184 -0.2743 0
M  V30 31 H 0.62 2.9504 0.4928 0
M  V30 32 H 1.2908 2.7494 -1.1212 0
M  V30 33 H -1.0902 2.456 -1.7751 0
M  V30 34 H -1.6065 2.5064 -0.0856 0
M  V30 35 H 0.6529 0.8102 -2.4573 0
M  V30 36 H 1.3212 -0.2894 -1.2468 0
M  V30 37 H -3.2401 1.4141 -1.5799 0
M  V30 38 H -2.7228 0.3603 -0.2499 0
M  V30 39 H -0.3015 -1.3672 -2.749 0
M  V30 40 H -0.7464 -1.5154 -1.0381 0
M  V30 41 H -6.1608 -0.9496 -3.2148 0
M  V30 42 H -3.1893 -3.757 -4.4028 0
M  V30 43 H -5.6177 -3.1032 -4.3942 0
M  V30 END ATOM
M  V30 BEGIN BOND
M  V30 1 1 1 2
M  V30 2 1 2 3
M  V30 3 2 2 4
M  V30 4 2 3 5
M  V30 5 1 4 6
M  V30 6 1 6 7
M  V30 7 1 7 8
M  V30 8 1 8 9
M  V30 9 1 9 10
M  V30 10 1 10 11
M  V30 11 1 11 12
M  V30 12 1 11 13
M  V30 13 1 12 14
M  V30 14 1 13 15
M  V30 15 1 14 16
M  V30 16 1 16 17
M  V30 17 2 17 18
M  V30 18 1 17 19
M  V30 19 1 18 20
M  V30 20 2 19 21
M  V30 21 2 20 22
M  V30 22 1 5 6
M  V30 23 1 15 16
M  V30 24 1 21 22
M  V30 25 1 3 23
M  V30 26 1 4 24
M  V30 27 1 7 25
M  V30 28 1 7 26
M  V30 29 1 8 27
M  V30 30 1 8 28
M  V30 31 1 9 29
M  V30 32 1 9 30
M  V30 33 1 10 31
M  V30 34 1 10 32
M  V30 35 1 12 33
M  V30 36 1 12 34
M  V30 37 1 13 35
M  V30 38 1 13 36
M  V30 39 1 14 37
M  V30 40 1 14 38
M  V30 41 1 15 39
M  V30 42 1 15 40
M  V30 43 1 20 41
M  V30 44 1 21 42
M  V30 45 1 22 43
M  V30 END BOND
M  V30 END CTAB
M  END
>  <NO.>
2249

>  <Name>
lesopitron

>  <SMILES>
Clc1cnn(CCCCN2CCN(c3ncccn3)CC2)c1

>  <logBB>


>  <Class>
1

>  <MW>
320.15

>  <nHBAcc>
5

>  <nHBDon>
0

>  <SLogP>
1.93

>  <TopoPSA>
50.08

>  <MMFF94 Energy>
5.0534

$$$$
Cn1c(=O)c2c(ncn2CCN2CCC(c3c[nH]c4ccccc34)CC2)n(C)c1=O
Actelion Java MolfileCreator 2.0

  0  0  0  0  0  0              0 V3000
M  V30 BEGIN CTAB
M  V30 COUNTS 56 60 0 0 0
M  V30 BEGIN ATOM
M  V30 1 O 0.3187 -6.7105 4.0701 0
M  V30 2 C -0.0741 -5.7985 3.3363 0
M  V30 3 N -0.3946 -4.5308 3.8639 0
M  V30 4 N -0.218 -5.9701 1.9599 0
M  V30 5 C -0.8331 -3.4272 3.1258 0
M  V30 6 C -0.2371 -4.3747 5.2969 0
M  V30 7 C -0.6582 -4.9185 1.1933 0
M  V30 8 C 0.0901 -7.2448 1.3378 0
M  V30 9 O -1.0805 -2.3273 3.6099 0
M  V30 10 C -0.9564 -3.7042 1.736 0
M  V30 11 N -0.8462 -4.9362 -0.155 0
M  V30 12 N -1.3508 -2.9341 0.678 0
M  V30 13 C -1.2709 -3.723 -0.4423 0
M  V30 14 C -1.7939 -1.551 0.6945 0
M  V30 15 C -0.6129 -0.5709 0.6355 0
M  V30 16 N -1.0343 0.8415 0.6067 0
M  V30 17 C 0.06 1.7487 0.987 0
M  V30 18 C -1.6242 1.2708 -0.6689 0
M  V30 19 C 1.1563 1.8811 -0.0712 0
M  V30 20 C -0.6233 1.3918 -1.82 0
M  V30 21 C 0.6171 2.225 -1.4669 0
M  V30 22 C 0.4176 3.7107 -1.6813 0
M  V30 23 C 1.1283 4.5284 -2.6293 0
M  V30 24 C -0.4623 4.5543 -1.0284 0
M  V30 25 C 0.6481 5.8329 -2.5092 0
M  V30 26 C 2.1398 4.2784 -3.5818 0
M  V30 27 N -0.3145 5.8189 -1.5305 0
M  V30 28 C 1.1237 6.8952 -3.2879 0
M  V30 29 C 2.6275 5.3283 -4.3694 0
M  V30 30 C 2.1245 6.6177 -4.2223 0
M  V30 31 H 0.8119 -4.5486 5.5579 0
M  V30 32 H -0.8462 -5.1278 5.8075 0
M  V30 33 H -0.5314 -3.3828 5.6484 0
M  V30 34 H 0.8826 -7.0986 0.5972 0
M  V30 35 H -0.8082 -7.6273 0.843 0
M  V30 36 H 0.4275 -7.9846 2.0684 0
M  V30 37 H -1.5314 -3.3659 -1.431 0
M  V30 38 H -2.3964 -1.3989 1.5964 0
M  V30 39 H -2.4624 -1.4287 -0.1642 0
M  V30 40 H -0.0055 -0.7444 1.5337 0
M  V30 41 H 0.0368 -0.8154 -0.2131 0
M  V30 42 H -0.3641 2.7345 1.2087 0
M  V30 43 H 0.5066 1.4214 1.9346 0
M  V30 44 H -2.435 0.5975 -0.9671 0
M  V30 45 H -2.1195 2.236 -0.5117 0
M  V30 46 H 1.8907 2.628 0.2552 0
M  V30 47 H 1.699 0.9288 -0.1326 0
M  V30 48 H -0.2964 0.3845 -2.108 0
M  V30 49 H -1.1298 1.8064 -2.7006 0
M  V30 50 H 1.3983 1.9197 -2.1765 0
M  V30 51 H -1.1852 4.3719 -0.2455 0
M  V30 52 H 2.5444 3.2794 -3.7098 0
M  V30 53 H -0.8355 6.6303 -1.2285 0
M  V30 54 H 0.7334 7.9013 -3.1746 0
M  V30 55 H 3.4066 5.1321 -5.1016 0
M  V30 56 H 2.5153 7.4211 -4.8424 0
M  V30 END ATOM
M  V30 BEGIN BOND
M  V30 1 2 1 2
M  V30 2 1 2 3
M  V30 3 1 2 4
M  V30 4 1 3 5
M  V30 5 1 3 6
M  V30 6 1 4 7
M  V30 7 1 4 8
M  V30 8 2 5 9
M  V30 9 1 5 10
M  V30 10 1 7 11
M  V30 11 1 10 12
M  V30 12 2 11 13
M  V30 13 1 12 14
M  V30 14 1 14 15
M  V30 15 1 15 16
M  V30 16 1 16 17
M  V30 17 1 16 18
M  V30 18 1 17 19
M  V30 19 1 18 20
M  V30 20 1 19 21
M  V30 21 1 21 22
M  V30 22 1 22 23
M  V30 23 2 22 24
M  V30 24 2 23 25
M  V30 25 1 23 26
M  V30 26 1 24 27
M  V30 27 1 25 28
M  V30 28 2 26 29
M  V30 29 2 28 30
M  V30 30 2 7 10
M  V30 31 1 12 13
M  V30 32 1 20 21
M  V30 33 1 25 27
M  V30 34 1 29 30
M  V30 35 1 6 31
M  V30 36 1 6 32
M  V30 37 1 6 33
M  V30 38 1 8 34
M  V30 39 1 8 35
M  V30 40 1 8 36
M  V30 41 1 13 37
M  V30 42 1 14 38
M  V30 43 1 14 39
M  V30 44 1 15 40
M  V30 45 1 15 41
M  V30 46 1 17 42
M  V30 47 1 17 43
M  V30 48 1 18 44
M  V30 49 1 18 45
M  V30 50 1 19 46
M  V30 51 1 19 47
M  V30 52 1 20 48
M  V30 53 1 20 49
M  V30 54 1 21 50
M  V30 55 1 24 51
M  V30 56 1 26 52
M  V30 57 1 27 53
M  V30 58 1 28 54
M  V30 59 1 29 55
M  V30 60 1 30 56
M  V30 END BOND
M  V30 END CTAB
M  END
>  <NO.>
2250

>  <Name>
tameridone

>  <SMILES>
Cn1c(=O)c2c(ncn2CCN2CCC(c3c[nH]c4ccccc34)CC2)n(C)c1=O

>  <logBB>


>  <Class>
1

>  <MW>
406.21

>  <nHBAcc>
4

>  <nHBDon>
1

>  <SLogP>
1.79

>  <TopoPSA>
80.85

>  <MMFF94 Energy>
-91.819

$$$$
Cn1cc(CCN2CCN(c3ccccc3Cl)CC2)cn1
Actelion Java MolfileCreator 2.0

  0  0  0  0  0  0              0 V3000
M  V30 BEGIN CTAB
M  V30 COUNTS 42 44 0 0 0
M  V30 BEGIN ATOM
M  V30 1 Cl -3.7622 1.9998 -2.5603 0
M  V30 2 C -3.78 2.4245 -0.8781 0
M  V30 3 C -2.8684 1.8558 0.0395 0
M  V30 4 C -4.7707 3.3217 -0.4589 0
M  V30 5 N -1.8639 0.9772 -0.3627 0
M  V30 6 C -3.0046 2.2248 1.389 0
M  V30 7 C -4.8758 3.6711 0.8847 0
M  V30 8 C -0.7056 1.5753 -1.0467 0
M  V30 9 C -1.5407 -0.1935 0.4609 0
M  V30 10 C -3.9936 3.1213 1.8086 0
M  V30 11 C 0.0692 0.4949 -1.8346 0
M  V30 12 C -0.7485 -1.2341 -0.3669 0
M  V30 13 N 0.4654 -0.6666 -0.9994 0
M  V30 14 C 1.1792 -1.66 -1.8249 0
M  V30 15 C 1.8525 -2.8041 -1.0423 0
M  V30 16 C 2.9481 -2.3524 -0.1368 0
M  V30 17 C 4.2964 -2.091 -0.4728 0
M  V30 18 C 2.8894 -2.0984 1.2183 0
M  V30 19 N 5.0251 -1.707 0.5774 0
M  V30 20 N 4.1412 -1.7069 1.5907 0
M  V30 21 C 4.5734 -1.317 2.9099 0
M  V30 22 H -5.4674 3.7432 -1.1787 0
M  V30 23 H -2.3194 1.8311 2.1348 0
M  V30 24 H -5.645 4.3668 1.2094 0
M  V30 25 H -1.0049 2.3657 -1.7441 0
M  V30 26 H -0.0428 2.0354 -0.3021 0
M  V30 27 H -0.943 0.1074 1.3305 0
M  V30 28 H -2.4589 -0.669 0.8267 0
M  V30 29 H -4.0676 3.3911 2.8592 0
M  V30 30 H 0.9664 0.9643 -2.2557 0
M  V30 31 H -0.5512 0.1576 -2.6759 0
M  V30 32 H -1.4115 -1.6541 -1.1352 0
M  V30 33 H -0.4751 -2.0481 0.3123 0
M  V30 34 H 1.9655 -1.1457 -2.394 0
M  V30 35 H 0.4948 -2.0958 -2.5647 0
M  V30 36 H 1.1108 -3.3777 -0.4751 0
M  V30 37 H 2.2759 -3.5095 -1.7695 0
M  V30 38 H 4.7756 -2.1673 -1.4403 0
M  V30 39 H 2.0721 -2.1498 1.9233 0
M  V30 40 H 5.3652 -1.999 3.2291 0
M  V30 41 H 4.9456 -0.2906 2.8617 0
M  V30 42 H 3.7296 -1.3752 3.6018 0
M  V30 END ATOM
M  V30 BEGIN BOND
M  V30 1 1 1 2
M  V30 2 2 2 3
M  V30 3 1 2 4
M  V30 4 1 3 5
M  V30 5 1 3 6
M  V30 6 2 4 7
M  V30 7 1 5 8
M  V30 8 1 5 9
M  V30 9 2 6 10
M  V30 10 1 8 11
M  V30 11 1 9 12
M  V30 12 1 11 13
M  V30 13 1 13 14
M  V30 14 1 14 15
M  V30 15 1 15 16
M  V30 16 1 16 17
M  V30 17 2 16 18
M  V30 18 2 17 19
M  V30 19 1 18 20
M  V30 20 1 20 21
M  V30 21 1 7 10
M  V30 22 1 12 13
M  V30 23 1 19 20
M  V30 24 1 4 22
M  V30 25 1 6 23
M  V30 26 1 7 24
M  V30 27 1 8 25
M  V30 28 1 8 26
M  V30 29 1 9 27
M  V30 30 1 9 28
M  V30 31 1 10 29
M  V30 32 1 11 30
M  V30 33 1 11 31
M  V30 34 1 12 32
M  V30 35 1 12 33
M  V30 36 1 14 34
M  V30 37 1 14 35
M  V30 38 1 15 36
M  V30 39 1 15 37
M  V30 40 1 17 38
M  V30 41 1 18 39
M  V30 42 1 21 40
M  V30 43 1 21 41
M  V30 44 1 21 42
M  V30 END BOND
M  V30 END CTAB
M  END
>  <NO.>
2252

>  <Name>
enpiprazole

>  <SMILES>
Cn1cc(CCN2CCN(c3ccccc3Cl)CC2)cn1

>  <logBB>


>  <Class>
1

>  <MW>
304.15

>  <nHBAcc>
3

>  <nHBDon>
0

>  <SLogP>
2.44

>  <TopoPSA>
24.3

>  <MMFF94 Energy>
141.9

$$$$
Cn1nc(-c2cccc(F)c2)n(C)c1=S
Actelion Java MolfileCreator 2.0

  0  0  0  0  0  0              0 V3000
M  V30 BEGIN CTAB
M  V30 COUNTS 25 26 0 0 0
M  V30 BEGIN ATOM
M  V30 1 S 3.7068 -0.5634 -1.6909 0
M  V30 2 C 2.413 -0.3731 -0.6585 0
M  V30 3 N 2.4425 -0.3756 0.7416 0
M  V30 4 N 1.0865 -0.1759 -0.9996 0
M  V30 5 N 1.1783 -0.1703 1.2404 0
M  V30 6 C 3.5571 -0.542 1.6507 0
M  V30 7 C 0.4258 -0.0423 0.1866 0
M  V30 8 C 0.5298 -0.1975 -2.3437 0
M  V30 9 C -1.0177 0.2169 0.2756 0
M  V30 10 C -1.7824 -0.5625 1.1459 0
M  V30 11 C -1.6109 1.2616 -0.4452 0
M  V30 12 C -3.1443 -0.3128 1.2559 0
M  V30 13 C -2.9818 1.5008 -0.3228 0
M  V30 14 F -3.888 -1.0642 2.0781 0
M  V30 15 C -3.751 0.7062 0.5272 0
M  V30 16 H 3.6615 0.3711 2.2433 0
M  V30 17 H 4.4886 -0.7324 1.1151 0
M  V30 18 H 3.3435 -1.3845 2.3144 0
M  V30 19 H -0.5166 -0.5106 -2.3242 0
M  V30 20 H 1.0898 -0.8835 -2.9838 0
M  V30 21 H 0.6005 0.8117 -2.7594 0
M  V30 22 H -1.3311 -1.3559 1.734 0
M  V30 23 H -1.0115 1.9064 -1.0828 0
M  V30 24 H -3.4473 2.3112 -0.8788 0
M  V30 25 H -4.8172 0.8809 0.6368 0
M  V30 END ATOM
M  V30 BEGIN BOND
M  V30 1 2 1 2
M  V30 2 1 2 3
M  V30 3 1 2 4
M  V30 4 1 3 5
M  V30 5 1 3 6
M  V30 6 1 4 7
M  V30 7 1 4 8
M  V30 8 1 7 9
M  V30 9 2 9 10
M  V30 10 1 9 11
M  V30 11 1 10 12
M  V30 12 2 11 13
M  V30 13 1 12 14
M  V30 14 2 12 15
M  V30 15 2 5 7
M  V30 16 1 13 15
M  V30 17 1 6 16
M  V30 18 1 6 17
M  V30 19 1 6 18
M  V30 20 1 8 19
M  V30 21 1 8 20
M  V30 22 1 8 21
M  V30 23 1 10 22
M  V30 24 1 11 23
M  V30 25 1 13 24
M  V30 26 1 15 25
M  V30 END BOND
M  V30 END CTAB
M  END
>  <NO.>
2253

>  <Name>
suritozole

>  <SMILES>
Cn1nc(-c2cccc(F)c2)n(C)c1=S

>  <logBB>


>  <Class>
1

>  <MW>
223.06

>  <nHBAcc>
2

>  <nHBDon>
0

>  <SLogP>
2.29

>  <TopoPSA>
22.75

>  <MMFF94 Energy>
24.839

$$$$
Cn1nc(-c2cccnc2)nc1-c1ccccc1CO
Actelion Java MolfileCreator 2.0

  0  0  0  0  0  0              0 V3000
M  V30 BEGIN CTAB
M  V30 COUNTS 34 36 0 0 0
M  V30 BEGIN ATOM
M  V30 1 O -0.1593 -2.6312 3.1102 0
M  V30 2 C -0.1549 -1.6258 2.0982 0
M  V30 3 C 0.652 -0.4126 2.5105 0
M  V30 4 C 1.0948 0.5295 1.5517 0
M  V30 5 C 0.9492 -0.1939 3.8697 0
M  V30 6 C 0.724 0.4066 0.135 0
M  V30 7 C 1.7687 1.6833 1.9971 0
M  V30 8 C 1.6592 0.9321 4.2831 0
M  V30 9 N -0.4549 0.0254 -0.3233 0
M  V30 10 N 1.5197 0.69 -0.9484 0
M  V30 11 C 2.0635 1.8748 3.3478 0
M  V30 12 C -0.3524 0.1291 -1.6913 0
M  V30 13 N 0.8537 0.5353 -2.1081 0
M  V30 14 C 2.9237 1.0122 -0.9839 0
M  V30 15 C -1.4599 -0.1849 -2.5769 0
M  V30 16 C -1.3239 -0.1271 -3.96 0
M  V30 17 C -2.7104 -0.5584 -2.0752 0
M  V30 18 N -2.3185 -0.4104 -4.8412 0
M  V30 19 C -3.752 -0.8537 -2.9533 0
M  V30 20 C -3.5091 -0.7663 -4.3141 0
M  V30 21 H -0.6999 -3.3599 2.7625 0
M  V30 22 H -1.1922 -1.3308 1.9104 0
M  V30 23 H 0.2741 -2.0857 1.2027 0
M  V30 24 H 0.6193 -0.9097 4.6212 0
M  V30 25 H 2.0476 2.4702 1.3006 0
M  V30 26 H 1.876 1.0781 5.3381 0
M  V30 27 H 2.5888 2.7699 3.671 0
M  V30 28 H 3.4322 0.5311 -0.1456 0
M  V30 29 H 3.3522 0.6409 -1.9189 0
M  V30 30 H 3.0275 2.0983 -0.9323 0
M  V30 31 H -0.3813 0.1569 -4.4219 0
M  V30 32 H -2.878 -0.6166 -1.0022 0
M  V30 33 H -4.7291 -1.1429 -2.5829 0
M  V30 34 H -4.2888 -0.9861 -5.0377 0
M  V30 END ATOM
M  V30 BEGIN BOND
M  V30 1 1 1 2
M  V30 2 1 2 3
M  V30 3 2 3 4
M  V30 4 1 3 5
M  V30 5 1 4 6
M  V30 6 1 4 7
M  V30 7 2 5 8
M  V30 8 2 6 9
M  V30 9 1 6 10
M  V30 10 2 7 11
M  V30 11 1 9 12
M  V30 12 1 10 13
M  V30 13 1 10 14
M  V30 14 1 12 15
M  V30 15 2 15 16
M  V30 16 1 15 17
M  V30 17 1 16 18
M  V30 18 2 17 19
M  V30 19 2 18 20
M  V30 20 1 8 11
M  V30 21 2 12 13
M  V30 22 1 19 20
M  V30 23 1 1 21
M  V30 24 1 2 22
M  V30 25 1 2 23
M  V30 26 1 5 24
M  V30 27 1 7 25
M  V30 28 1 8 26
M  V30 29 1 11 27
M  V30 30 1 14 28
M  V30 31 1 14 29
M  V30 32 1 14 30
M  V30 33 1 16 31
M  V30 34 1 17 32
M  V30 35 1 19 33
M  V30 36 1 20 34
M  V30 END BOND
M  V30 END CTAB
M  END
>  <NO.>
2254

>  <Name>
fepitrizol

>  <SMILES>
Cn1nc(-c2cccnc2)nc1-c1ccccc1CO

>  <logBB>


>  <Class>
1

>  <MW>
266.12

>  <nHBAcc>
4

>  <nHBDon>
1

>  <SLogP>
2.04

>  <TopoPSA>
63.83

>  <MMFF94 Energy>
64.407

$$$$
Cn1nnnc1SCC1=C(C(=O)O)N2C(=O)[C@@H](NC(=O)CSC(F)(F)F)[C@H]2SC1
Actelion Java MolfileCreator 2.0

  0  0  0  0  0  0              0 V3000
M  V30 BEGIN CTAB
M  V30 COUNTS 42 44 0 0 0
M  V30 BEGIN ATOM
M  V30 1 S 0.0846 1.6086 -0.931 0
M  V30 2 C 1.0473 1.9358 0.5696 0 CFG=1
M  V30 3 C -1.4001 1.1143 0.0013 0
M  V30 4 N 1.1462 0.6871 1.2891 0
M  V30 5 C 2.6031 1.9101 0.4768 0 CFG=1
M  V30 6 C -1.1224 0.0718 1.0714 0
M  V30 7 C 0.0997 -0.1105 1.6271 0
M  V30 8 C 2.4901 0.5984 1.3183 0
M  V30 9 N 3.2254 1.7584 -0.8709 0
M  V30 10 C -2.3475 -0.7236 1.4728 0
M  V30 11 C 0.357 -1.2119 2.5985 0
M  V30 12 O 3.2522 -0.2401 1.7373 0
M  V30 13 C 3.5829 2.8638 -1.6125 0
M  V30 14 S -2.6231 -2.0815 0.2964 0
M  V30 15 O 2.0E-4 -2.3713 2.5007 0
M  V30 16 O 1.0093 -0.7535 3.6823 0
M  V30 17 O 3.4008 4.0062 -1.2015 0
M  V30 18 C 4.242 2.545 -2.944 0
M  V30 19 C -3.972 -2.8515 1.045 0
M  V30 20 S 3.6765 3.6246 -4.2839 0
M  V30 21 N -4.8127 -2.3229 1.9039 0
M  V30 22 N -4.3364 -4.1449 0.817 0
M  V30 23 C 1.9338 3.2364 -4.2044 0
M  V30 24 N -5.7133 -3.3186 2.205 0
M  V30 25 N -5.4304 -4.4348 1.5446 0
M  V30 26 C -3.7281 -5.1367 -0.0234 0
M  V30 27 F 1.7428 1.9077 -4.0233 0
M  V30 28 F 1.3095 3.575 -5.3564 0
M  V30 29 F 1.3087 3.8847 -3.2002 0
M  V30 30 H 0.664 2.7576 1.1861 0
M  V30 31 H -2.1082 0.7285 -0.7386 0
M  V30 32 H -1.8531 2.0003 0.4599 0
M  V30 33 H 3.0901 2.7091 1.051 0
M  V30 34 H 3.3667 0.8275 -1.2501 0
M  V30 35 H -2.2559 -1.1246 2.4875 0
M  V30 36 H -3.2229 -0.0632 1.484 0
M  V30 37 H 1.1869 -1.5551 4.2163 0
M  V30 38 H 5.3209 2.681 -2.8177 0
M  V30 39 H 4.0758 1.5011 -3.227 0
M  V30 40 H -4.2867 -6.0736 0.0516 0
M  V30 41 H -3.7484 -4.7813 -1.0565 0
M  V30 42 H -2.6999 -5.2971 0.3099 0
M  V30 END ATOM
M  V30 BEGIN BOND
M  V30 1 1 1 2
M  V30 2 1 1 3
M  V30 3 1 2 4
M  V30 4 1 2 5
M  V30 5 1 3 6
M  V30 6 1 4 7
M  V30 7 1 4 8
M  V30 8 1 5 9
M  V30 9 1 6 10
M  V30 10 1 7 11
M  V30 11 2 8 12
M  V30 12 1 9 13
M  V30 13 1 10 14
M  V30 14 2 11 15
M  V30 15 1 11 16
M  V30 16 2 13 17
M  V30 17 1 13 18
M  V30 18 1 14 19
M  V30 19 1 18 20
M  V30 20 2 19 21
M  V30 21 1 19 22
M  V30 22 1 20 23
M  V30 23 1 21 24
M  V30 24 1 22 25
M  V30 25 1 22 26
M  V30 26 1 23 27
M  V30 27 1 23 28
M  V30 28 1 23 29
M  V30 29 1 5 8
M  V30 30 2 6 7
M  V30 31 2 24 25
M  V30 32 1 2 30
M  V30 33 1 3 31
M  V30 34 1 3 32
M  V30 35 1 5 33
M  V30 36 1 9 34
M  V30 37 1 10 35
M  V30 38 1 10 36
M  V30 39 1 16 37
M  V30 40 1 18 38
M  V30 41 1 18 39
M  V30 42 1 26 40
M  V30 43 1 26 41
M  V30 44 1 26 42
M  V30 END BOND
M  V30 BEGIN COLLECTION
M  V30 MDLV30/STEABS ATOMS=(2 2 5)
M  V30 END COLLECTION
M  V30 END CTAB
M  END
>  <NO.>
2256

>  <Name>
cefazaflur

>  <SMILES>
Cn1nnnc1SCC1=C(C(=O)O)N2C(=O)[C@@H](NC(=O)CSC(F)(F)F)[C@H]2SC1

>  <logBB>


>  <Class>
-1

>  <MW>
470.01

>  <nHBAcc>
9

>  <nHBDon>
2

>  <SLogP>
0.29

>  <TopoPSA>
130.31

>  <MMFF94 Energy>
-26.064

$$$$
FC(F)(Cl)C(F)(F)Cl
Actelion Java MolfileCreator 2.0

  0  0  0  0  0  0              0 V3000
M  V30 BEGIN CTAB
M  V30 COUNTS 8 7 0 0 0
M  V30 BEGIN ATOM
M  V30 1 Cl -1.6036 0.3771 1.4149 0
M  V30 2 C -0.3169 -0.4315 0.4795 0
M  V30 3 F 0.6253 -0.8844 1.3538 0
M  V30 4 F -0.8488 -1.541 -0.1064 0
M  V30 5 C 0.3118 0.4986 -0.5735 0
M  V30 6 Cl 1.5986 -0.31 -1.5089 0
M  V30 7 F 0.8436 1.6082 0.0125 0
M  V30 8 F -0.6305 0.9516 -1.4477 0
M  V30 END ATOM
M  V30 BEGIN BOND
M  V30 1 1 1 2
M  V30 2 1 2 3
M  V30 3 1 2 4
M  V30 4 1 2 5
M  V30 5 1 5 6
M  V30 6 1 5 7
M  V30 7 1 5 8
M  V30 END BOND
M  V30 END CTAB
M  END
>  <NO.>
2257

>  <Name>
cryofluorane

>  <SMILES>
FC(F)(Cl)C(F)(F)Cl

>  <logBB>


>  <Class>
1

>  <MW>
169.93

>  <nHBAcc>
0

>  <nHBDon>
0

>  <SLogP>
2.65

>  <TopoPSA>
0

>  <MMFF94 Energy>
73.308

$$$$
FC(F)(F)CCl
Actelion Java MolfileCreator 2.0

  0  0  0  0  0  0              0 V3000
M  V30 BEGIN CTAB
M  V30 COUNTS 8 7 0 0 0
M  V30 BEGIN ATOM
M  V30 1 Cl 1.6196 0.426 -1.3638 0
M  V30 2 C 0.7196 0.1415 0.1502 0
M  V30 3 C -0.7535 -0.1144 -0.0871 0
M  V30 4 F -1.3604 0.9346 -0.6831 0
M  V30 5 F -1.3848 -0.3231 1.094 0
M  V30 6 F -0.9609 -1.2102 -0.8488 0
M  V30 7 H 1.1799 -0.7158 0.649 0
M  V30 8 H 0.8561 1.0228 0.7833 0
M  V30 END ATOM
M  V30 BEGIN BOND
M  V30 1 1 1 2
M  V30 2 1 2 3
M  V30 3 1 3 4
M  V30 4 1 3 5
M  V30 5 1 3 6
M  V30 6 1 2 7
M  V30 7 1 2 8
M  V30 END BOND
M  V30 END CTAB
M  END
>  <NO.>
2258

>  <Name>
1,1,1-trifluro-2-chloroethane

>  <SMILES>
FC(F)(F)CCl

>  <logBB>


>  <Class>
1

>  <MW>
117.98

>  <nHBAcc>
0

>  <nHBDon>
0

>  <SLogP>
1.79

>  <TopoPSA>
0

>  <MMFF94 Energy>
25.01

$$$$
FC(F)(F)c1cccc(N2CCN(CCc3nnc4n3C[C@H]3CCC[C@@H]43)CC2)c1
Actelion Java MolfileCreator 2.0

  0  0  0  0  0  0              0 V3000
M  V30 BEGIN CTAB
M  V30 COUNTS 55 59 0 0 0
M  V30 BEGIN ATOM
M  V30 1 F 2.9908 -5.0155 -3.5574 0
M  V30 2 C 2.3526 -4.5167 -4.654 0
M  V30 3 F 1.4959 -5.4925 -5.063 0
M  V30 4 F 3.3057 -4.4258 -5.624 0
M  V30 5 C 1.6524 -3.2102 -4.3847 0
M  V30 6 C 1.049 -2.9765 -3.1342 0
M  V30 7 C 1.552 -2.2316 -5.3782 0
M  V30 8 C 0.3651 -1.7858 -2.8398 0
M  V30 9 C 0.8707 -1.0473 -5.1187 0
M  V30 10 N -0.217 -1.5953 -1.5908 0
M  V30 11 C 0.2845 -0.8336 -3.8662 0
M  V30 12 C 0.6192 -1.8116 -0.3958 0
M  V30 13 C -1.2898 -0.6005 -1.4183 0
M  V30 14 C -0.246 -2.0191 0.8698 0
M  V30 15 C -2.094 -0.8603 -0.1249 0
M  V30 16 N -1.2338 -0.9345 1.0794 0
M  V30 17 C -2.0591 -1.1735 2.2824 0
M  V30 18 C -1.3566 -0.7645 3.5876 0
M  V30 19 C -1.3146 0.7115 3.7526 0
M  V30 20 N -2.2143 1.4764 4.355 0
M  V30 21 N -0.3397 1.5207 3.2949 0
M  V30 22 N -1.808 2.8044 4.2592 0
M  V30 23 C -0.6783 2.794 3.6051 0
M  V30 24 C 0.9131 1.4001 2.5973 0
M  V30 25 C 0.3048 3.7765 3.1129 0 CFG=1
M  V30 26 C 1.3104 2.872 2.317 0 CFG=2
M  V30 27 C -0.278 4.74 2.0843 0
M  V30 28 C 1.1498 3.279 0.8446 0
M  V30 29 C -0.1945 3.9869 0.7625 0
M  V30 30 H 1.0918 -3.7666 -2.3862 0
M  V30 31 H 1.9996 -2.3902 -6.3577 0
M  V30 32 H 0.7913 -0.2841 -5.8889 0
M  V30 33 H -0.2252 0.1121 -3.7057 0
M  V30 34 H 1.2705 -0.9392 -0.2555 0
M  V30 35 H 1.2693 -2.6869 -0.4963 0
M  V30 36 H -1.993 -0.6419 -2.2591 0
M  V30 37 H -0.8566 0.4072 -1.3818 0
M  V30 38 H 0.4315 -2.0792 1.7285 0
M  V30 39 H -0.7579 -2.9877 0.79 0
M  V30 40 H -2.6675 -1.7902 -0.2382 0
M  V30 41 H -2.8153 -0.0418 -0.0107 0
M  V30 42 H -2.351 -2.2302 2.3388 0
M  V30 43 H -2.9939 -0.6005 2.2116 0
M  V30 44 H -1.9231 -1.1838 4.4287 0
M  V30 45 H -0.3505 -1.1913 3.6573 0
M  V30 46 H 1.6221 0.9162 3.2758 0
M  V30 47 H 0.7817 0.8043 1.6941 0
M  V30 48 H 0.7868 4.2964 3.9463 0
M  V30 49 H 2.3473 3.044 2.6284 0
M  V30 50 H 0.3486 5.6386 2.0282 0
M  V30 51 H -1.3014 5.0558 2.3111 0
M  V30 52 H 1.2191 2.4385 0.1476 0
M  V30 53 H 1.944 3.9888 0.5812 0
M  V30 54 H -1.0073 3.2556 0.6818 0
M  V30 55 H -0.255 4.6583 -0.0989 0
M  V30 END ATOM
M  V30 BEGIN BOND
M  V30 1 1 1 2
M  V30 2 1 2 3
M  V30 3 1 2 4
M  V30 4 1 2 5
M  V30 5 2 5 6
M  V30 6 1 5 7
M  V30 7 1 6 8
M  V30 8 2 7 9
M  V30 9 1 8 10
M  V30 10 2 8 11
M  V30 11 1 10 12
M  V30 12 1 10 13
M  V30 13 1 12 14
M  V30 14 1 13 15
M  V30 15 1 14 16
M  V30 16 1 16 17
M  V30 17 1 17 18
M  V30 18 1 18 19
M  V30 19 2 19 20
M  V30 20 1 19 21
M  V30 21 1 20 22
M  V30 22 1 21 23
M  V30 23 1 21 24
M  V30 24 1 23 25
M  V30 25 1 24 26
M  V30 26 1 25 27
M  V30 27 1 26 28
M  V30 28 1 27 29
M  V30 29 1 9 11
M  V30 30 1 15 16
M  V30 31 2 22 23
M  V30 32 1 25 26
M  V30 33 1 28 29
M  V30 34 1 6 30
M  V30 35 1 7 31
M  V30 36 1 9 32
M  V30 37 1 11 33
M  V30 38 1 12 34
M  V30 39 1 12 35
M  V30 40 1 13 36
M  V30 41 1 13 37
M  V30 42 1 14 38
M  V30 43 1 14 39
M  V30 44 1 15 40
M  V30 45 1 15 41
M  V30 46 1 17 42
M  V30 47 1 17 43
M  V30 48 1 18 44
M  V30 49 1 18 45
M  V30 50 1 24 46
M  V30 51 1 24 47
M  V30 52 1 25 48
M  V30 53 1 26 49
M  V30 54 1 27 50
M  V30 55 1 27 51
M  V30 56 1 28 52
M  V30 57 1 28 53
M  V30 58 1 29 54
M  V30 59 1 29 55
M  V30 END BOND
M  V30 BEGIN COLLECTION
M  V30 MDLV30/STEABS ATOMS=(2 25 26)
M  V30 END COLLECTION
M  V30 END CTAB
M  END
>  <NO.>
2262

>  <Name>
lorpiprazole

>  <SMILES>
FC(F)(F)c1cccc(N2CCN(CCc3nnc4n3C[C@H]3CCC[C@@H]43)CC2)c1

>  <logBB>


>  <Class>
1

>  <MW>
405.21

>  <nHBAcc>
4

>  <nHBDon>
0

>  <SLogP>
3.56

>  <TopoPSA>
37.19

>  <MMFF94 Energy>
137.03

$$$$
FCC(F)(F)F
Actelion Java MolfileCreator 2.0

  0  0  0  0  0  0              0 V3000
M  V30 BEGIN CTAB
M  V30 COUNTS 8 7 0 0 0
M  V30 BEGIN ATOM
M  V30 1 F 0.2442 0.2442 1.7109 0
M  V30 2 C 0.1099 0.5847 0.4105 0
M  V30 3 F 1.2037 1.2881 0.0448 0
M  V30 4 F -0.9536 1.4197 0.3211 0
M  V30 5 C -0.0984 -0.6282 -0.4693 0
M  V30 6 F 0.9629 -1.4784 -0.3906 0
M  V30 7 H -0.2117 -0.3321 -1.5157 0
M  V30 8 H -0.9912 -1.18 -0.1622 0
M  V30 END ATOM
M  V30 BEGIN BOND
M  V30 1 1 1 2
M  V30 2 1 2 3
M  V30 3 1 2 4
M  V30 4 1 2 5
M  V30 5 1 5 6
M  V30 6 1 5 7
M  V30 7 1 5 8
M  V30 END BOND
M  V30 END CTAB
M  END
>  <NO.>
2263

>  <Name>
norflurane

>  <SMILES>
FCC(F)(F)F

>  <logBB>


>  <Class>
1

>  <MW>
102.01

>  <nHBAcc>
0

>  <nHBDon>
0

>  <SLogP>
1.52

>  <TopoPSA>
0

>  <MMFF94 Energy>
29.147

$$$$
Fc1ccc(-c2ccc(CN3CCN(c4cccc5ccoc45)CC3)[nH]2)cc1
Actelion Java MolfileCreator 2.0

  0  0  0  0  0  0              0 V3000
M  V30 BEGIN CTAB
M  V30 COUNTS 50 54 0 0 0
M  V30 BEGIN ATOM
M  V30 1 F 8.2108 0.4815 1.9273 0
M  V30 2 C 7.1572 0.038 1.2295 0
M  V30 3 C 6.0555 -0.4724 1.9022 0
M  V30 4 C 7.185 0.0829 -0.1569 0
M  V30 5 C 4.9562 -0.9379 1.174 0
M  V30 6 C 6.0856 -0.3836 -0.8833 0
M  V30 7 C 4.9419 -0.8719 -0.2296 0
M  V30 8 C 3.8271 -1.4296 -1.0051 0
M  V30 9 N 2.5463 -1.5482 -0.5093 0
M  V30 10 C 3.7785 -1.9197 -2.3017 0
M  V30 11 C 1.7009 -2.0845 -1.4513 0
M  V30 12 C 2.4519 -2.331 -2.5795 0
M  V30 13 C 0.2553 -2.3155 -1.1567 0
M  V30 14 N -0.3126 -1.2122 -0.3664 0
M  V30 15 C -0.511 -0.0052 -1.2095 0
M  V30 16 C -1.6353 -1.6112 0.1736 0
M  V30 17 C -1.16 1.1693 -0.4412 0
M  V30 18 C -2.3163 -0.4912 0.9914 0
M  V30 19 N -2.4092 0.7516 0.2087 0
M  V30 20 C -3.383 1.6806 0.5577 0
M  V30 21 C -4.7458 1.3688 0.7694 0
M  V30 22 C -3.099 3.0564 0.7116 0
M  V30 23 O -5.3118 0.1257 0.6413 0
M  V30 24 C -5.7386 2.2848 1.1141 0
M  V30 25 C -4.0655 4.0077 1.0622 0
M  V30 26 C -6.6333 0.2438 0.9193 0
M  V30 27 C -5.3936 3.6355 1.2715 0
M  V30 28 C -6.9482 1.5461 1.219 0
M  V30 29 H 6.0613 -0.517 2.9865 0
M  V30 30 H 8.0595 0.4742 -0.6661 0
M  V30 31 H 4.1206 -1.3642 1.7225 0
M  V30 32 H 6.1256 -0.3445 -1.9692 0
M  V30 33 H 2.2296 -1.231 0.3971 0
M  V30 34 H 4.6162 -1.9844 -2.9838 0
M  V30 35 H 2.0879 -2.7597 -3.5043 0
M  V30 36 H 0.1968 -3.2499 -0.5825 0
M  V30 37 H -0.3065 -2.4771 -2.0855 0
M  V30 38 H 0.4505 0.3477 -1.5994 0
M  V30 39 H -1.1428 -0.2493 -2.0748 0
M  V30 40 H -2.3047 -1.9116 -0.6441 0
M  V30 41 H -1.512 -2.4801 0.8316 0
M  V30 42 H -1.3483 1.9715 -1.1653 0
M  V30 43 H -0.4598 1.548 0.3139 0
M  V30 44 H -1.7314 -0.2934 1.8992 0
M  V30 45 H -3.2894 -0.8658 1.3191 0
M  V30 46 H -2.0798 3.4128 0.5804 0
M  V30 47 H -3.7752 5.0499 1.1747 0
M  V30 48 H -7.206 -0.6707 0.8588 0
M  V30 49 H -6.1397 4.3768 1.5403 0
M  V30 50 H -7.9286 1.9232 1.4713 0
M  V30 END ATOM
M  V30 BEGIN BOND
M  V30 1 1 1 2
M  V30 2 2 2 3
M  V30 3 1 2 4
M  V30 4 1 3 5
M  V30 5 2 4 6
M  V30 6 2 5 7
M  V30 7 1 7 8
M  V30 8 1 8 9
M  V30 9 2 8 10
M  V30 10 1 9 11
M  V30 11 1 10 12
M  V30 12 1 11 13
M  V30 13 1 13 14
M  V30 14 1 14 15
M  V30 15 1 14 16
M  V30 16 1 15 17
M  V30 17 1 16 18
M  V30 18 1 17 19
M  V30 19 1 19 20
M  V30 20 2 20 21
M  V30 21 1 20 22
M  V30 22 1 21 23
M  V30 23 1 21 24
M  V30 24 2 22 25
M  V30 25 1 23 26
M  V30 26 2 24 27
M  V30 27 1 24 28
M  V30 28 1 6 7
M  V30 29 2 11 12
M  V30 30 1 18 19
M  V30 31 1 25 27
M  V30 32 2 26 28
M  V30 33 1 3 29
M  V30 34 1 4 30
M  V30 35 1 5 31
M  V30 36 1 6 32
M  V30 37 1 9 33
M  V30 38 1 10 34
M  V30 39 1 12 35
M  V30 40 1 13 36
M  V30 41 1 13 37
M  V30 42 1 15 38
M  V30 43 1 15 39
M  V30 44 1 16 40
M  V30 45 1 16 41
M  V30 46 1 17 42
M  V30 47 1 17 43
M  V30 48 1 18 44
M  V30 49 1 18 45
M  V30 50 1 22 46
M  V30 51 1 25 47
M  V30 52 1 26 48
M  V30 53 1 27 49
M  V30 54 1 28 50
M  V30 END BOND
M  V30 END CTAB
M  END
>  <NO.>
2264

>  <Name>
elopiprazole

>  <SMILES>
Fc1ccc(-c2ccc(CN3CCN(c4cccc5ccoc45)CC3)[nH]2)cc1

>  <logBB>


>  <Class>
1

>  <MW>
375.17

>  <nHBAcc>
3

>  <nHBDon>
1

>  <SLogP>
4.89

>  <TopoPSA>
35.41

>  <MMFF94 Energy>
121.5

$$$$
Fc1ccc2[nH]c3c(c2c1)CN(CCCc1cccnc1)CC3
Actelion Java MolfileCreator 2.0

  0  0  0  0  0  0              0 V3000
M  V30 BEGIN CTAB
M  V30 COUNTS 43 46 0 0 0
M  V30 BEGIN ATOM
M  V30 1 F -1.9213 -0.32 6.4958 0
M  V30 2 C -2.4264 -0.595 5.2849 0
M  V30 3 C -1.6925 -0.2493 4.1505 0
M  V30 4 C -3.6658 -1.2158 5.1942 0
M  V30 5 C -2.229 -0.5406 2.8818 0
M  V30 6 C -4.2205 -1.5155 3.9472 0
M  V30 7 C -3.481 -1.1654 2.8093 0
M  V30 8 C -1.7816 -0.3414 1.5439 0
M  V30 9 N -3.7783 -1.3387 1.4728 0
M  V30 10 C -2.7657 -0.8332 0.7142 0
M  V30 11 C -0.5256 0.2959 1.0319 0
M  V30 12 C -2.6823 -0.8352 -0.7669 0
M  V30 13 N -0.2965 -0.0725 -0.3925 0
M  V30 14 C -1.532 0.1095 -1.2021 0
M  V30 15 C 0.8084 0.7054 -0.9799 0
M  V30 16 C 2.1784 0.3301 -0.3942 0
M  V30 17 C 3.3299 1.1253 -1.0235 0
M  V30 18 C 3.5601 0.8419 -2.4826 0
M  V30 19 C 3.9947 -0.4069 -2.9187 0
M  V30 20 C 3.3552 1.824 -3.4552 0
M  V30 21 N 4.2226 -0.7234 -4.2135 0
M  V30 22 C 3.581 1.5265 -4.7961 0
M  V30 23 C 4.0096 0.251 -5.1222 0
M  V30 24 H -0.7273 0.2319 4.2592 0
M  V30 25 H -4.2009 -1.4675 6.1051 0
M  V30 26 H -5.1876 -2.0013 3.8694 0
M  V30 27 H -4.6182 -1.7781 1.1218 0
M  V30 28 H -0.6127 1.384 1.145 0
M  V30 29 H 0.3116 -0.0516 1.6461 0
M  V30 30 H -2.4751 -1.8537 -1.1159 0
M  V30 31 H -3.6252 -0.5052 -1.2159 0
M  V30 32 H -1.3253 -0.0957 -2.2599 0
M  V30 33 H -1.8681 1.1539 -1.1368 0
M  V30 34 H 0.6297 1.7825 -0.8654 0
M  V30 35 H 0.8406 0.5025 -2.0573 0
M  V30 36 H 2.3488 -0.7468 -0.5146 0
M  V30 37 H 2.1953 0.5357 0.6821 0
M  V30 38 H 3.1533 2.1979 -0.8716 0
M  V30 39 H 4.2581 0.8971 -0.4836 0
M  V30 40 H 4.1798 -1.2165 -2.2173 0
M  V30 41 H 3.0206 2.8203 -3.1778 0
M  V30 42 H 3.4282 2.2719 -5.5683 0
M  V30 43 H 4.1998 -0.029 -6.1542 0
M  V30 END ATOM
M  V30 BEGIN BOND
M  V30 1 1 1 2
M  V30 2 2 2 3
M  V30 3 1 2 4
M  V30 4 1 3 5
M  V30 5 2 4 6
M  V30 6 2 5 7
M  V30 7 1 5 8
M  V30 8 1 7 9
M  V30 9 2 8 10
M  V30 10 1 8 11
M  V30 11 1 10 12
M  V30 12 1 11 13
M  V30 13 1 12 14
M  V30 14 1 13 15
M  V30 15 1 15 16
M  V30 16 1 16 17
M  V30 17 1 17 18
M  V30 18 2 18 19
M  V30 19 1 18 20
M  V30 20 1 19 21
M  V30 21 2 20 22
M  V30 22 2 21 23
M  V30 23 1 6 7
M  V30 24 1 9 10
M  V30 25 1 13 14
M  V30 26 1 22 23
M  V30 27 1 3 24
M  V30 28 1 4 25
M  V30 29 1 6 26
M  V30 30 1 9 27
M  V30 31 1 11 28
M  V30 32 1 11 29
M  V30 33 1 12 30
M  V30 34 1 12 31
M  V30 35 1 14 32
M  V30 36 1 14 33
M  V30 37 1 15 34
M  V30 38 1 15 35
M  V30 39 1 16 36
M  V30 40 1 16 37
M  V30 41 1 17 38
M  V30 42 1 17 39
M  V30 43 1 19 40
M  V30 44 1 20 41
M  V30 45 1 22 42
M  V30 46 1 23 43
M  V30 END BOND
M  V30 END CTAB
M  END
>  <NO.>
2267

>  <Name>
gevotroline

>  <SMILES>
Fc1ccc2[nH]c3c(c2c1)CN(CCCc1cccnc1)CC3

>  <logBB>


>  <Class>
1

>  <MW>
309.16

>  <nHBAcc>
2

>  <nHBDon>
1

>  <SLogP>
3.69

>  <TopoPSA>
31.92

>  <MMFF94 Energy>
60.543

$$$$
Fc1ccc2[nH]c3c(c2c1)CN(CCc1ccncc1)CC3
Actelion Java MolfileCreator 2.0

  0  0  0  0  0  0              0 V3000
M  V30 BEGIN CTAB
M  V30 COUNTS 40 43 0 0 0
M  V30 BEGIN ATOM
M  V30 1 F 1.6847 0.5613 5.9462 0
M  V30 2 C 1.9998 -0.2272 4.9091 0
M  V30 3 C 1.3138 -0.069 3.7052 0
M  V30 4 C 2.9998 -1.179 5.0626 0
M  V30 5 C 1.6495 -0.9007 2.6199 0
M  V30 6 C 3.3516 -2.0168 4.0013 0
M  V30 7 C 2.6593 -1.8561 2.7932 0
M  V30 8 C 1.18 -1.0251 1.2806 0
M  V30 9 N 2.7953 -2.5336 1.5986 0
M  V30 10 C 1.9007 -2.0435 0.6955 0
M  V30 11 C 0.1002 -0.2736 0.5638 0
M  V30 12 C 1.7321 -2.4823 -0.7117 0
M  V30 13 N 0.234 -0.4499 -0.9087 0
M  V30 14 C 0.4128 -1.8837 -1.2658 0
M  V30 15 C -0.9324 0.1033 -1.6228 0
M  V30 16 C -1.0561 1.6326 -1.5044 0
M  V30 17 C -2.1739 2.1683 -2.3658 0
M  V30 18 C -1.9283 2.5819 -3.6776 0
M  V30 19 C -3.4824 2.2369 -1.8804 0
M  V30 20 C -2.9904 3.0482 -4.4373 0
M  V30 21 C -4.4773 2.7184 -2.718 0
M  V30 22 N -4.2609 3.1248 -3.987 0
M  V30 23 H 0.5405 0.686 3.6213 0
M  V30 24 H 3.5075 -1.2653 6.0187 0
M  V30 25 H 4.1324 -2.7618 4.1145 0
M  V30 26 H 3.4616 -3.2745 1.4296 0
M  V30 27 H 0.1888 0.7876 0.8199 0
M  V30 28 H -0.8742 -0.6367 0.9142 0
M  V30 29 H 1.7047 -3.5747 -0.7841 0
M  V30 30 H 2.5792 -2.1209 -1.3067 0
M  V30 31 H 0.4331 -2.002 -2.3563 0
M  V30 32 H -0.4406 -2.4682 -0.8946 0
M  V30 33 H -1.8588 -0.3777 -1.2805 0
M  V30 34 H -0.835 -0.1382 -2.6899 0
M  V30 35 H -1.2429 1.9335 -0.4666 0
M  V30 36 H -0.1122 2.1111 -1.7961 0
M  V30 37 H -0.9315 2.5441 -4.1048 0
M  V30 38 H -3.7292 1.9251 -0.871 0
M  V30 39 H -2.8415 3.3813 -5.4604 0
M  V30 40 H -5.5068 2.7908 -2.379 0
M  V30 END ATOM
M  V30 BEGIN BOND
M  V30 1 1 1 2
M  V30 2 2 2 3
M  V30 3 1 2 4
M  V30 4 1 3 5
M  V30 5 2 4 6
M  V30 6 2 5 7
M  V30 7 1 5 8
M  V30 8 1 7 9
M  V30 9 2 8 10
M  V30 10 1 8 11
M  V30 11 1 10 12
M  V30 12 1 11 13
M  V30 13 1 12 14
M  V30 14 1 13 15
M  V30 15 1 15 16
M  V30 16 1 16 17
M  V30 17 2 17 18
M  V30 18 1 17 19
M  V30 19 1 18 20
M  V30 20 2 19 21
M  V30 21 2 20 22
M  V30 22 1 6 7
M  V30 23 1 9 10
M  V30 24 1 13 14
M  V30 25 1 21 22
M  V30 26 1 3 23
M  V30 27 1 4 24
M  V30 28 1 6 25
M  V30 29 1 9 26
M  V30 30 1 11 27
M  V30 31 1 11 28
M  V30 32 1 12 29
M  V30 33 1 12 30
M  V30 34 1 14 31
M  V30 35 1 14 32
M  V30 36 1 15 33
M  V30 37 1 15 34
M  V30 38 1 16 35
M  V30 39 1 16 36
M  V30 40 1 18 37
M  V30 41 1 19 38
M  V30 42 1 20 39
M  V30 43 1 21 40
M  V30 END BOND
M  V30 END CTAB
M  END
>  <NO.>
2268

>  <Name>
carvotroline

>  <SMILES>
Fc1ccc2[nH]c3c(c2c1)CN(CCc1ccncc1)CC3

>  <logBB>


>  <Class>
1

>  <MW>
295.15

>  <nHBAcc>
2

>  <nHBDon>
1

>  <SLogP>
3.3

>  <TopoPSA>
31.92

>  <MMFF94 Energy>
69.623

$$$$
Fc1cccc(Br)c1NC1=NCCN1
Actelion Java MolfileCreator 2.0

  0  0  0  0  0  0              0 V3000
M  V30 BEGIN CTAB
M  V30 COUNTS 23 24 0 0 0
M  V30 BEGIN ATOM
M  V30 1 Br 0.731 0.731 2.5196 0
M  V30 2 C 1.5789 0.6346 0.8168 0
M  V30 3 C 1.19 -0.2827 -0.1735 0
M  V30 4 C 2.705 1.4535 0.6333 0
M  V30 5 N 0.0302 -1.0824 -0.122 0
M  V30 6 C 1.9845 -0.3524 -1.331 0
M  V30 7 C 3.4621 1.3687 -0.5354 0
M  V30 8 C -1.226 -0.6239 0.1047 0
M  V30 9 F 1.6585 -1.228 -2.2965 0
M  V30 10 C 3.1043 0.4547 -1.5193 0
M  V30 11 N -1.6504 0.6059 0.1577 0
M  V30 12 N -2.1591 -1.5924 0.2762 0
M  V30 13 C -3.1153 0.4928 0.4031 0
M  V30 14 C -3.4194 -0.9939 0.6191 0
M  V30 15 H 3.0045 2.1562 1.4081 0
M  V30 16 H 0.0908 -1.9311 -0.6679 0
M  V30 17 H 4.331 2.0077 -0.6702 0
M  V30 18 H 3.6811 0.3671 -2.4344 0
M  V30 19 H -1.9166 -2.5189 0.591 0
M  V30 20 H -3.6567 0.8819 -0.4658 0
M  V30 21 H -3.3972 1.0856 1.2793 0
M  V30 22 H -3.6755 -1.198 1.6633 0
M  V30 23 H -4.2284 -1.344 -0.0278 0
M  V30 END ATOM
M  V30 BEGIN BOND
M  V30 1 1 1 2
M  V30 2 2 2 3
M  V30 3 1 2 4
M  V30 4 1 3 5
M  V30 5 1 3 6
M  V30 6 2 4 7
M  V30 7 1 5 8
M  V30 8 1 6 9
M  V30 9 2 6 10
M  V30 10 2 8 11
M  V30 11 1 8 12
M  V30 12 1 11 13
M  V30 13 1 12 14
M  V30 14 1 7 10
M  V30 15 1 13 14
M  V30 16 1 4 15
M  V30 17 1 5 16
M  V30 18 1 7 17
M  V30 19 1 10 18
M  V30 20 1 12 19
M  V30 21 1 13 20
M  V30 22 1 13 21
M  V30 23 1 14 22
M  V30 24 1 14 23
M  V30 END BOND
M  V30 END CTAB
M  END
>  <NO.>
2269

>  <Name>
romifidine

>  <SMILES>
Fc1cccc(Br)c1NC1=NCCN1

>  <logBB>


>  <Class>
1

>  <MW>
257

>  <nHBAcc>
3

>  <nHBDon>
2

>  <SLogP>
1.96

>  <TopoPSA>
36.42

>  <MMFF94 Energy>
-16.246

$$$$
Fc1ccccc1C1=NCCN(CC(F)(F)F)c2ccc(Cl)cc21
Actelion Java MolfileCreator 2.0

  0  0  0  0  0  0              0 V3000
M  V30 BEGIN CTAB
M  V30 COUNTS 37 39 0 0 0
M  V30 BEGIN ATOM
M  V30 1 Cl 0.2463 0.4105 4.8527 0
M  V30 2 C 0.6232 -0.1415 3.2688 0
M  V30 3 C -0.3454 -0.1091 2.2742 0
M  V30 4 C 1.8941 -0.6208 2.9877 0
M  V30 5 C -0.0381 -0.557 0.9757 0
M  V30 6 C 2.1932 -1.0761 1.6998 0
M  V30 7 C -1.1164 -0.4431 -0.0529 0
M  V30 8 C 1.2425 -1.0626 0.6606 0
M  V30 9 N -1.4405 -1.369 -0.8932 0
M  V30 10 C -1.8646 0.8381 -0.1271 0
M  V30 11 N 1.607 -1.5344 -0.5896 0
M  V30 12 C -0.6754 -2.6141 -0.8551 0
M  V30 13 C -3.257 0.845 -0.0491 0
M  V30 14 C -1.1687 2.0423 -0.2892 0
M  V30 15 C 0.7253 -2.3755 -1.4192 0
M  V30 16 C 2.81 -0.9756 -1.256 0
M  V30 17 F -3.9468 -0.2879 0.1468 0
M  V30 18 C -3.9602 2.0449 -0.1256 0
M  V30 19 C -1.8746 3.2451 -0.3672 0
M  V30 20 C 2.6261 0.426 -1.859 0
M  V30 21 C -3.2687 3.2466 -0.2855 0
M  V30 22 F 1.6598 0.4502 -2.8035 0
M  V30 23 F 2.3174 1.3527 -0.9231 0
M  V30 24 F 3.7758 0.8306 -2.4542 0
M  V30 25 H -1.3412 0.256 2.5124 0
M  V30 26 H 2.655 -0.6586 3.7628 0
M  V30 27 H 3.1859 -1.4852 1.5262 0
M  V30 28 H -0.6562 -3.0558 0.1486 0
M  V30 29 H -1.1914 -3.3392 -1.4948 0
M  V30 30 H -0.0849 2.0507 -0.3728 0
M  V30 31 H 1.2173 -3.347 -1.5469 0
M  V30 32 H 0.6367 -1.9285 -2.4173 0
M  V30 33 H 3.6623 -0.9545 -0.5684 0
M  V30 34 H 3.1086 -1.6545 -2.0645 0
M  V30 35 H -5.0437 2.0338 -0.0573 0
M  V30 36 H -1.337 4.1814 -0.4996 0
M  V30 37 H -3.8163 4.184 -0.349 0
M  V30 END ATOM
M  V30 BEGIN BOND
M  V30 1 1 1 2
M  V30 2 2 2 3
M  V30 3 1 2 4
M  V30 4 1 3 5
M  V30 5 2 4 6
M  V30 6 1 5 7
M  V30 7 2 5 8
M  V30 8 2 7 9
M  V30 9 1 7 10
M  V30 10 1 8 11
M  V30 11 1 9 12
M  V30 12 2 10 13
M  V30 13 1 10 14
M  V30 14 1 11 15
M  V30 15 1 11 16
M  V30 16 1 13 17
M  V30 17 1 13 18
M  V30 18 2 14 19
M  V30 19 1 16 20
M  V30 20 2 18 21
M  V30 21 1 20 22
M  V30 22 1 20 23
M  V30 23 1 20 24
M  V30 24 1 6 8
M  V30 25 1 12 15
M  V30 26 1 19 21
M  V30 27 1 3 25
M  V30 28 1 4 26
M  V30 29 1 6 27
M  V30 30 1 12 28
M  V30 31 1 12 29
M  V30 32 1 14 30
M  V30 33 1 15 31
M  V30 34 1 15 32
M  V30 35 1 16 33
M  V30 36 1 16 34
M  V30 37 1 18 35
M  V30 38 1 19 36
M  V30 39 1 21 37
M  V30 END BOND
M  V30 END CTAB
M  END
>  <NO.>
2271

>  <Name>
fletazepam

>  <SMILES>
Fc1ccccc1C1=NCCN(CC(F)(F)F)c2ccc(Cl)cc21

>  <logBB>


>  <Class>
1

>  <MW>
356.07

>  <nHBAcc>
2

>  <nHBDon>
0

>  <SLogP>
4.7

>  <TopoPSA>
15.6

>  <MMFF94 Energy>
180.35

$$$$
N#CC(CCN1CCC(C(N)=O)(N2CCCCC2)CC1)(c1ccccc1)c1ccccc1
Actelion Java MolfileCreator 2.0

  0  0  0  0  0  0              0 V3000
M  V30 BEGIN CTAB
M  V30 COUNTS 66 69 0 0 0
M  V30 BEGIN ATOM
M  V30 1 O -0.5582 2.394 1.6753 0
M  V30 2 C -1.3053 1.6987 2.356 0
M  V30 3 N -2.4803 2.2183 2.8321 0
M  V30 4 C -1.0542 0.1922 2.7372 0
M  V30 5 N -1.3734 0.0834 4.2192 0
M  V30 6 C 0.3942 -0.2205 2.3792 0
M  V30 7 C -2.0388 -0.6379 1.8691 0
M  V30 8 C -0.3962 0.8136 5.0571 0
M  V30 9 C -1.5347 -1.2921 4.7197 0
M  V30 10 C 0.6624 -0.2747 0.869 0
M  V30 11 C -1.6917 -0.5748 0.3796 0
M  V30 12 C -0.8529 0.8806 6.515 0
M  V30 13 C -1.9958 -1.3103 6.1819 0
M  V30 14 N -0.336 -1.0845 0.1697 0
M  V30 15 C -1.063 -0.5151 7.0828 0
M  V30 16 C -0.0131 -1.3005 -1.2513 0
M  V30 17 C 0.0411 -0.036 -2.1385 0
M  V30 18 C 0.2957 -0.3099 -3.6643 0
M  V30 19 C -0.8919 -1.0755 -4.163 0
M  V30 20 C 1.6334 -1.0892 -3.8026 0
M  V30 21 C 0.3697 1.0 -4.5056 0
M  V30 22 N -1.8121 -1.6835 -4.531 0
M  V30 23 C 1.6936 -2.4251 -4.2431 0
M  V30 24 C 2.8486 -0.4562 -3.464 0
M  V30 25 C 0.1689 2.2812 -3.9596 0
M  V30 26 C 0.6438 0.9177 -5.8894 0
M  V30 27 C 2.9166 -3.0954 -4.3403 0
M  V30 28 C 4.0679 -1.129 -3.5634 0
M  V30 29 C 0.2441 3.426 -4.7599 0
M  V30 30 C 0.7181 2.0629 -6.6852 0
M  V30 31 C 4.1013 -2.4488 -4.0009 0
M  V30 32 C 0.5186 3.3172 -6.1196 0
M  V30 33 H -2.7115 3.1818 2.6412 0
M  V30 34 H -3.0052 1.6892 3.5192 0
M  V30 35 H 0.6104 -1.2123 2.7959 0
M  V30 36 H 1.1199 0.4742 2.8188 0
M  V30 37 H -3.0736 -0.3023 2.0105 0
M  V30 38 H -2.0091 -1.6971 2.1505 0
M  V30 39 H -0.2697 1.8439 4.7073 0
M  V30 40 H 0.5897 0.334 5.0189 0
M  V30 41 H -2.3097 -1.8248 4.1622 0
M  V30 42 H -0.6027 -1.861 4.6224 0
M  V30 43 H 0.7121 0.7386 0.4595 0
M  V30 44 H 1.6573 -0.7149 0.7256 0
M  V30 45 H -1.8113 0.4463 0.0011 0
M  V30 46 H -2.412 -1.2029 -0.1587 0
M  V30 47 H -0.1046 1.4129 7.1132 0
M  V30 48 H -1.786 1.454 6.5846 0
M  V30 49 H -2.0564 -2.3458 6.536 0
M  V30 50 H -3.0087 -0.8922 6.2486 0
M  V30 51 H -1.4774 -0.4529 8.095 0
M  V30 52 H -0.0981 -1.0309 7.1595 0
M  V30 53 H -0.7428 -2.0123 -1.6549 0
M  V30 54 H 0.9498 -1.8229 -1.2923 0
M  V30 55 H 0.8244 0.6271 -1.7513 0
M  V30 56 H -0.9092 0.5035 -2.0335 0
M  V30 57 H 0.7975 -2.979 -4.5173 0
M  V30 58 H 2.858 0.5787 -3.1246 0
M  V30 59 H -0.0508 2.4294 -2.9052 0
M  V30 60 H 0.8063 -0.049 -6.365 0
M  V30 61 H 2.9417 -4.1274 -4.6822 0
M  V30 62 H 4.9918 -0.6197 -3.3009 0
M  V30 63 H 0.0855 4.4066 -4.317 0
M  V30 64 H 0.9312 1.9722 -7.7472 0
M  V30 65 H 5.0498 -2.9734 -4.0789 0
M  V30 66 H 0.5748 4.2093 -6.7377 0
M  V30 END ATOM
M  V30 BEGIN BOND
M  V30 1 2 1 2
M  V30 2 1 2 3
M  V30 3 1 2 4
M  V30 4 1 4 5
M  V30 5 1 4 6
M  V30 6 1 4 7
M  V30 7 1 5 8
M  V30 8 1 5 9
M  V30 9 1 6 10
M  V30 10 1 7 11
M  V30 11 1 8 12
M  V30 12 1 9 13
M  V30 13 1 10 14
M  V30 14 1 12 15
M  V30 15 1 14 16
M  V30 16 1 16 17
M  V30 17 1 17 18
M  V30 18 1 18 19
M  V30 19 1 18 20
M  V30 20 1 18 21
M  V30 21 3 19 22
M  V30 22 2 20 23
M  V30 23 1 20 24
M  V30 24 2 21 25
M  V30 25 1 21 26
M  V30 26 1 23 27
M  V30 27 2 24 28
M  V30 28 1 25 29
M  V30 29 2 26 30
M  V30 30 2 27 31
M  V30 31 2 29 32
M  V30 32 1 11 14
M  V30 33 1 13 15
M  V30 34 1 28 31
M  V30 35 1 30 32
M  V30 36 1 3 33
M  V30 37 1 3 34
M  V30 38 1 6 35
M  V30 39 1 6 36
M  V30 40 1 7 37
M  V30 41 1 7 38
M  V30 42 1 8 39
M  V30 43 1 8 40
M  V30 44 1 9 41
M  V30 45 1 9 42
M  V30 46 1 10 43
M  V30 47 1 10 44
M  V30 48 1 11 45
M  V30 49 1 11 46
M  V30 50 1 12 47
M  V30 51 1 12 48
M  V30 52 1 13 49
M  V30 53 1 13 50
M  V30 54 1 15 51
M  V30 55 1 15 52
M  V30 56 1 16 53
M  V30 57 1 16 54
M  V30 58 1 17 55
M  V30 59 1 17 56
M  V30 60 1 23 57
M  V30 61 1 24 58
M  V30 62 1 25 59
M  V30 63 1 26 60
M  V30 64 1 27 61
M  V30 65 1 28 62
M  V30 66 1 29 63
M  V30 67 1 30 64
M  V30 68 1 31 65
M  V30 69 1 32 66
M  V30 END BOND
M  V30 END CTAB
M  END
>  <NO.>
2272

>  <Name>
piritramide

>  <SMILES>
N#CC(CCN1CCC(C(N)=O)(N2CCCCC2)CC1)(c1ccccc1)c1ccccc1

>  <logBB>


>  <Class>
1

>  <MW>
430.27

>  <nHBAcc>
4

>  <nHBDon>
1

>  <SLogP>
3.69

>  <TopoPSA>
73.36

>  <MMFF94 Energy>
95.314

$$$$
N#CCCN1C(=O)C(O)N=C(c2ccccc2F)c2cc(Cl)ccc21
Actelion Java MolfileCreator 2.0

  0  0  0  0  0  0              0 V3000
M  V30 BEGIN CTAB
M  V30 COUNTS 38 40 0 0 0
M  V30 BEGIN ATOM
M  V30 1 Cl -4.3373 1.1443 -1.635 0
M  V30 2 C -3.0449 0.5781 -0.653 0
M  V30 3 C -1.7375 0.9482 -0.9482 0
M  V30 4 C -3.3093 -0.24 0.4361 0
M  V30 5 C -0.6736 0.4855 -0.1511 0
M  V30 6 C -2.2561 -0.694 1.2358 0
M  V30 7 C 0.6958 0.9518 -0.516 0
M  V30 8 C -0.9235 -0.3472 0.9578 0
M  V30 9 N 1.5723 1.3989 0.3184 0
M  V30 10 C 1.0813 0.9094 -1.95 0
M  V30 11 N 0.1124 -0.8547 1.797 0
M  V30 12 C 1.2532 1.4026 1.7458 0 CFG=2
M  V30 13 C 1.5491 2.0617 -2.5821 0
M  V30 14 C 0.9845 -0.2905 -2.6645 0
M  V30 15 C 1.2067 -0.0816 2.2066 0
M  V30 16 C 0.1512 -2.2938 2.0968 0
M  V30 17 O 0.1494 2.2051 2.1033 0
M  V30 18 F 1.6105 3.2312 -1.9286 0
M  V30 19 C 1.917 2.028 -3.9243 0
M  V30 20 C 1.3548 -0.3236 -4.011 0
M  V30 21 O 2.1261 -0.5723 2.8722 0
M  V30 22 C 0.0759 -2.6578 3.5865 0
M  V30 23 C 1.8204 0.8336 -4.6397 0
M  V30 24 C -1.3035 -2.6613 4.0806 0
M  V30 25 N -2.4029 -2.6854 4.4519 0
M  V30 26 H -1.5559 1.6156 -1.7873 0
M  V30 27 H -4.3307 -0.5207 0.6834 0
M  V30 28 H -2.5128 -1.3046 2.0952 0
M  V30 29 H 2.1151 1.8414 2.2625 0
M  V30 30 H 0.6405 -1.2014 -2.1818 0
M  V30 31 H -0.6144 -2.827 1.5197 0
M  V30 32 H 1.1182 -2.6519 1.7179 0
M  V30 33 H 0.24 2.9827 1.5263 0
M  V30 34 H 2.2739 2.9343 -4.4043 0
M  V30 35 H 1.2874 -1.254 -4.5709 0
M  V30 36 H 0.4834 -3.6683 3.7131 0
M  V30 37 H 0.6834 -1.9945 4.2082 0
M  V30 38 H 2.1103 0.8042 -5.6878 0
M  V30 END ATOM
M  V30 BEGIN BOND
M  V30 1 1 1 2
M  V30 2 2 2 3
M  V30 3 1 2 4
M  V30 4 1 3 5
M  V30 5 2 4 6
M  V30 6 1 5 7
M  V30 7 2 5 8
M  V30 8 2 7 9
M  V30 9 1 7 10
M  V30 10 1 8 11
M  V30 11 1 9 12
M  V30 12 2 10 13
M  V30 13 1 10 14
M  V30 14 1 11 15
M  V30 15 1 11 16
M  V30 16 1 12 17
M  V30 17 1 13 18
M  V30 18 1 13 19
M  V30 19 2 14 20
M  V30 20 2 15 21
M  V30 21 1 16 22
M  V30 22 2 19 23
M  V30 23 1 22 24
M  V30 24 3 24 25
M  V30 25 1 6 8
M  V30 26 1 12 15
M  V30 27 1 20 23
M  V30 28 1 3 26
M  V30 29 1 4 27
M  V30 30 1 6 28
M  V30 31 1 12 29
M  V30 32 1 14 30
M  V30 33 1 16 31
M  V30 34 1 16 32
M  V30 35 1 17 33
M  V30 36 1 19 34
M  V30 37 1 20 35
M  V30 38 1 22 36
M  V30 39 1 22 37
M  V30 40 1 23 38
M  V30 END BOND
M  V30 BEGIN COLLECTION
M  V30 MDLV30/STERAC1 ATOMS=(1 12)
M  V30 END COLLECTION
M  V30 END CTAB
M  END
>  <NO.>
2273

>  <Name>
cinolazepam

>  <SMILES>
N#CCCN1C(=O)C(O)N=C(c2ccccc2F)c2cc(Cl)ccc21

>  <logBB>


>  <Class>
1

>  <MW>
357.07

>  <nHBAcc>
4

>  <nHBDon>
1

>  <SLogP>
2.9

>  <TopoPSA>
76.69

>  <MMFF94 Energy>
108.8

$$$$
N#Cc1cc(-c2ccccc2)nnc1NCCN1CCOCC1
Actelion Java MolfileCreator 2.0

  0  0  0  0  0  0              0 V3000
M  V30 BEGIN CTAB
M  V30 COUNTS 42 44 0 0 0
M  V30 BEGIN ATOM
M  V30 1 O 2.3965 3.1163 2.7963 0
M  V30 2 C 2.7164 2.1586 1.7793 0
M  V30 3 C 1.4011 2.5957 3.6848 0
M  V30 4 C 3.1971 0.8318 2.3943 0
M  V30 5 C 1.8647 1.2796 4.3327 0
M  V30 6 N 2.2509 0.2272 3.3631 0
M  V30 7 C 1.0636 -0.3581 2.7102 0
M  V30 8 C 1.3644 -1.662 1.9353 0
M  V30 9 N 0.147 -2.2644 1.4017 0
M  V30 10 C -0.4275 -1.7648 0.243 0
M  V30 11 N 0.1166 -0.6898 -0.3602 0
M  V30 12 C -1.5146 -2.3812 -0.3695 0
M  V30 13 N -0.4019 -0.1751 -1.5378 0
M  V30 14 C -2.1215 -3.543 0.2006 0
M  V30 15 C -2.0403 -1.8678 -1.5638 0
M  V30 16 C -1.4665 -0.7449 -2.1358 0
M  V30 17 N -2.6336 -4.4736 0.6685 0
M  V30 18 C -1.9361 -0.1208 -3.3869 0
M  V30 19 C -1.0391 0.5658 -4.2277 0
M  V30 20 C -3.2836 -0.1739 -3.7916 0
M  V30 21 C -1.4627 1.1597 -5.4204 0
M  V30 22 C -3.7101 0.42 -4.9846 0
M  V30 23 C -2.7987 1.0843 -5.7992 0
M  V30 24 H 1.846 2.0163 1.1292 0
M  V30 25 H 3.5152 2.5882 1.1662 0
M  V30 26 H 1.2312 3.347 4.4628 0
M  V30 27 H 0.4591 2.4703 3.1392 0
M  V30 28 H 4.1298 1.0279 2.9398 0
M  V30 29 H 3.4629 0.1259 1.6017 0
M  V30 30 H 2.7474 1.4913 4.9503 0
M  V30 31 H 1.0972 0.9065 5.0209 0
M  V30 32 H 0.5631 0.3661 2.059 0
M  V30 33 H 0.3304 -0.6182 3.486 0
M  V30 34 H 2.0932 -1.5064 1.1326 0
M  V30 35 H 1.8169 -2.3839 2.6259 0
M  V30 36 H -0.4243 -2.7908 2.0519 0
M  V30 37 H -2.8795 -2.3652 -2.0411 0
M  V30 38 H 0.0136 0.6413 -3.9568 0
M  V30 39 H -4.0331 -0.6637 -3.1743 0
M  V30 40 H -0.746 1.6819 -6.0492 0
M  V30 41 H -4.7571 0.3682 -5.2731 0
M  V30 42 H -3.1298 1.5478 -6.7249 0
M  V30 END ATOM
M  V30 BEGIN BOND
M  V30 1 1 1 2
M  V30 2 1 1 3
M  V30 3 1 2 4
M  V30 4 1 3 5
M  V30 5 1 4 6
M  V30 6 1 6 7
M  V30 7 1 7 8
M  V30 8 1 8 9
M  V30 9 1 9 10
M  V30 10 2 10 11
M  V30 11 1 10 12
M  V30 12 1 11 13
M  V30 13 1 12 14
M  V30 14 2 12 15
M  V30 15 2 13 16
M  V30 16 3 14 17
M  V30 17 1 16 18
M  V30 18 2 18 19
M  V30 19 1 18 20
M  V30 20 1 19 21
M  V30 21 2 20 22
M  V30 22 2 21 23
M  V30 23 1 5 6
M  V30 24 1 15 16
M  V30 25 1 22 23
M  V30 26 1 2 24
M  V30 27 1 2 25
M  V30 28 1 3 26
M  V30 29 1 3 27
M  V30 30 1 4 28
M  V30 31 1 4 29
M  V30 32 1 5 30
M  V30 33 1 5 31
M  V30 34 1 7 32
M  V30 35 1 7 33
M  V30 36 1 8 34
M  V30 37 1 8 35
M  V30 38 1 9 36
M  V30 39 1 15 37
M  V30 40 1 19 38
M  V30 41 1 20 39
M  V30 42 1 21 40
M  V30 43 1 22 41
M  V30 44 1 23 42
M  V30 END BOND
M  V30 END CTAB
M  END
>  <NO.>
2274

>  <Name>
bazinaprine

>  <SMILES>
N#Cc1cc(-c2ccccc2)nnc1NCCN1CCOCC1

>  <logBB>


>  <Class>
1

>  <MW>
309.16

>  <nHBAcc>
6

>  <nHBDon>
1

>  <SLogP>
1.76

>  <TopoPSA>
74.07

>  <MMFF94 Energy>
128.39

$$$$
N#Cc1ccc2c(c1)N(CCCN1CCC(O)CC1)c1ccccc1S2
Actelion Java MolfileCreator 2.0

  0  0  0  0  0  0              0 V3000
M  V30 BEGIN CTAB
M  V30 COUNTS 49 52 0 0 0
M  V30 BEGIN ATOM
M  V30 1 S -2.4309 -1.2149 -2.0255 0
M  V30 2 C -2.9084 0.2417 -1.1187 0
M  V30 3 C -1.0738 -0.6059 -3.0057 0
M  V30 4 C -2.0913 1.3867 -1.0219 0
M  V30 5 C -4.1513 0.1904 -0.4632 0
M  V30 6 C -0.4324 0.6216 -2.745 0
M  V30 7 C -0.6507 -1.4251 -4.0674 0
M  V30 8 N -0.8227 1.4467 -1.6573 0
M  V30 9 C -2.5957 2.4806 -0.2875 0
M  V30 10 C -4.6159 1.2777 0.2733 0
M  V30 11 C 0.5842 1.0156 -3.6387 0
M  V30 12 C 0.384 -1.0258 -4.9078 0
M  V30 13 C 0.2579 2.1704 -0.9417 0
M  V30 14 C -3.8403 2.4301 0.3565 0
M  V30 15 C 0.9941 0.2023 -4.7002 0
M  V30 16 C 0.6209 1.5213 0.4043 0
M  V30 17 C -4.3114 3.5643 1.0962 0
M  V30 18 C 1.2086 0.1139 0.2376 0
M  V30 19 N -4.687 4.4833 1.6972 0
M  V30 20 N 1.7668 -0.4225 1.4971 0
M  V30 21 C 0.7039 -0.7529 2.464 0
M  V30 22 C 2.5851 -1.6139 1.2016 0
M  V30 23 C 1.2902 -1.2842 3.7704 0
M  V30 24 C 3.2353 -2.1683 2.4657 0
M  V30 25 C 2.1817 -2.492 3.5162 0
M  V30 26 O 2.8104 -2.8982 4.7286 0
M  V30 27 H -4.7705 -0.7027 -0.5304 0
M  V30 28 H -1.1384 -2.3802 -4.2522 0
M  V30 29 H -2.0311 3.4073 -0.2249 0
M  V30 30 H -5.5836 1.2183 0.7678 0
M  V30 31 H 1.0575 1.9896 -3.5515 0
M  V30 32 H 0.6965 -1.6628 -5.7308 0
M  V30 33 H -0.0297 3.2152 -0.778 0
M  V30 34 H 1.1824 2.2437 -1.5228 0
M  V30 35 H 1.7826 0.5392 -5.3687 0
M  V30 36 H -0.2556 1.4983 1.059 0
M  V30 37 H 1.3622 2.1631 0.8979 0
M  V30 38 H 0.4581 -0.5754 -0.1662 0
M  V30 39 H 2.0146 0.1823 -0.5045 0
M  V30 40 H 0.1192 0.1389 2.7123 0
M  V30 41 H 0.0093 -1.4914 2.0426 0
M  V30 42 H 1.9784 -2.3942 0.723 0
M  V30 43 H 3.3863 -1.349 0.5009 0
M  V30 44 H 1.8621 -0.4942 4.2755 0
M  V30 45 H 0.4849 -1.5567 4.4634 0
M  V30 46 H 3.9581 -1.4455 2.8671 0
M  V30 47 H 3.8147 -3.069 2.2304 0
M  V30 48 H 1.5687 -3.3338 3.1733 0
M  V30 49 H 3.3558 -2.1555 5.0415 0
M  V30 END ATOM
M  V30 BEGIN BOND
M  V30 1 1 1 2
M  V30 2 1 1 3
M  V30 3 2 2 4
M  V30 4 1 2 5
M  V30 5 2 3 6
M  V30 6 1 3 7
M  V30 7 1 4 8
M  V30 8 1 4 9
M  V30 9 2 5 10
M  V30 10 1 6 11
M  V30 11 2 7 12
M  V30 12 1 8 13
M  V30 13 2 9 14
M  V30 14 2 11 15
M  V30 15 1 13 16
M  V30 16 1 14 17
M  V30 17 1 16 18
M  V30 18 3 17 19
M  V30 19 1 18 20
M  V30 20 1 20 21
M  V30 21 1 20 22
M  V30 22 1 21 23
M  V30 23 1 22 24
M  V30 24 1 23 25
M  V30 25 1 25 26
M  V30 26 1 6 8
M  V30 27 1 10 14
M  V30 28 1 12 15
M  V30 29 1 24 25
M  V30 30 1 5 27
M  V30 31 1 7 28
M  V30 32 1 9 29
M  V30 33 1 10 30
M  V30 34 1 11 31
M  V30 35 1 12 32
M  V30 36 1 13 33
M  V30 37 1 13 34
M  V30 38 1 15 35
M  V30 39 1 16 36
M  V30 40 1 16 37
M  V30 41 1 18 38
M  V30 42 1 18 39
M  V30 43 1 21 40
M  V30 44 1 21 41
M  V30 45 1 22 42
M  V30 46 1 22 43
M  V30 47 1 23 44
M  V30 48 1 23 45
M  V30 49 1 24 46
M  V30 50 1 24 47
M  V30 51 1 25 48
M  V30 52 1 26 49
M  V30 END BOND
M  V30 END CTAB
M  END
>  <NO.>
2276

>  <Name>
pericyazine

>  <SMILES>
N#Cc1ccc2c(c1)N(CCCN1CCC(O)CC1)c1ccccc1S2

>  <logBB>


>  <Class>
1

>  <MW>
365.16

>  <nHBAcc>
5

>  <nHBDon>
1

>  <SLogP>
4.01

>  <TopoPSA>
50.5

>  <MMFF94 Energy>
73.467

$$$$
N=C(N)c1ccc(-c2ccccc2[N+](=O)[O-])o1
Actelion Java MolfileCreator 2.0

  0  0  0  0  0  0              0 V3000
M  V30 BEGIN CTAB
M  V30 COUNTS 26 27 0 0 0
M  V30 BEGIN ATOM
M  V30 1 O 0.2385 1.5118 2.3082 0
M  V30 2 N 0.3493 0.2835 2.1973 0 CHG=1
M  V30 3 O 1.3514 -0.3843 2.4905 0 CHG=-1
M  V30 4 C -0.8169 -0.4425 1.74 0
M  V30 5 C -1.183 -0.434 0.384 0
M  V30 6 C -1.5737 -1.0998 2.7222 0
M  V30 7 C -0.4044 0.208 -0.6698 0
M  V30 8 C -2.3675 -1.1086 0.042 0
M  V30 9 C -2.7373 -1.7659 2.3486 0
M  V30 10 O 0.9441 0.2265 -0.4862 0
M  V30 11 C -0.7094 0.7937 -1.8811 0
M  V30 12 C -3.1348 -1.767 1.0122 0
M  V30 13 C 1.5144 0.8486 -1.5629 0
M  V30 14 C 0.5211 1.2096 -2.4524 0
M  V30 15 C 2.9564 0.9971 -1.5553 0
M  V30 16 N 3.5827 1.5157 -2.5672 0
M  V30 17 N 3.7252 0.6111 -0.5075 0
M  V30 18 H -1.266 -1.0876 3.7655 0
M  V30 19 H -2.702 -1.1464 -0.9934 0
M  V30 20 H -3.3372 -2.2807 3.0959 0
M  V30 21 H -1.6974 0.919 -2.3018 0
M  V30 22 H -4.0443 -2.2878 0.7188 0
M  V30 23 H 0.6588 1.7173 -3.3962 0
M  V30 24 H 2.9263 1.7748 -3.3057 0
M  V30 25 H 4.7209 0.7632 -0.5614 0
M  V30 26 H 3.3123 0.233 0.3354 0
M  V30 END ATOM
M  V30 BEGIN BOND
M  V30 1 2 1 2
M  V30 2 1 2 3
M  V30 3 1 2 4
M  V30 4 2 4 5
M  V30 5 1 4 6
M  V30 6 1 5 7
M  V30 7 1 5 8
M  V30 8 2 6 9
M  V30 9 1 7 10
M  V30 10 2 7 11
M  V30 11 2 8 12
M  V30 12 1 10 13
M  V30 13 1 11 14
M  V30 14 1 13 15
M  V30 15 2 15 16
M  V30 16 1 15 17
M  V30 17 1 9 12
M  V30 18 2 13 14
M  V30 19 1 6 18
M  V30 20 1 8 19
M  V30 21 1 9 20
M  V30 22 1 11 21
M  V30 23 1 12 22
M  V30 24 1 14 23
M  V30 25 1 16 24
M  V30 26 1 17 25
M  V30 27 1 17 26
M  V30 END BOND
M  V30 END CTAB
M  END
>  <NO.>
2277

>  <Name>
nitrafudam

>  <SMILES>
N=C(N)c1ccc(-c2ccccc2[N+](=O)[O-])o1

>  <logBB>


>  <Class>
1

>  <MW>
231.06

>  <nHBAcc>
4

>  <nHBDon>
2

>  <SLogP>
2.14

>  <TopoPSA>
106.15

>  <MMFF94 Energy>
8.6949

$$$$
N=C(N=O)c1[nH][nH]c2ccccc2n(Cc2ccccc2)c1O
Actelion Java MolfileCreator 2.0

  0  0  0  0  0  0              0 V3000
M  V30 BEGIN CTAB
M  V30 COUNTS 38 40 0 0 0
M  V30 BEGIN ATOM
M  V30 1 O 3.7565 -3.8365 2.3165 0
M  V30 2 N 2.8876 -2.9559 2.263 0
M  V30 3 C 2.8528 -2.2219 0.9709 0
M  V30 4 N 3.7272 -2.5838 0.0614 0
M  V30 5 C 1.8997 -1.0905 0.6076 0
M  V30 6 N 2.1094 -0.6013 -0.6765 0
M  V30 7 C 0.9549 -0.6563 1.4699 0
M  V30 8 N 1.5106 0.4113 -1.3362 0
M  V30 9 O 0.836 -1.2247 2.7202 0
M  V30 10 N 0.0313 0.3645 1.2627 0
M  V30 11 C 0.9457 1.5544 -0.7418 0
M  V30 12 C 0.3085 1.5501 0.5191 0
M  V30 13 C -1.4202 0.1004 1.404 0
M  V30 14 C 1.0865 2.7741 -1.4341 0
M  V30 15 C -0.1363 2.7842 1.0467 0
M  V30 16 C -2.0053 -0.5875 0.1862 0
M  V30 17 C 0.6219 3.9757 -0.8997 0
M  V30 18 C 0.016 3.9821 0.3477 0
M  V30 19 C -2.5792 0.1627 -0.8511 0
M  V30 20 C -1.9639 -1.985 0.068 0
M  V30 21 C -3.112 -0.4719 -1.9743 0
M  V30 22 C -2.4971 -2.6175 -1.056 0
M  V30 23 C -3.073 -1.8612 -2.0751 0
M  V30 24 H 4.2834 -3.349 0.4687 0
M  V30 25 H 2.8878 -1.0933 -1.1357 0
M  V30 26 H 1.5791 0.4311 -2.3504 0
M  V30 27 H 0.4337 -0.5201 3.2565 0
M  V30 28 H -1.6033 -0.5354 2.281 0
M  V30 29 H -1.9923 1.0125 1.6173 0
M  V30 30 H 1.5872 2.7929 -2.3991 0
M  V30 31 H -0.601 2.8159 2.0294 0
M  V30 32 H 0.7513 4.903 -1.4512 0
M  V30 33 H -0.3341 4.9149 0.7814 0
M  V30 34 H -2.6023 1.2489 -0.7943 0
M  V30 35 H -1.5053 -2.5876 0.8492 0
M  V30 36 H -3.5506 0.1189 -2.7739 0
M  V30 37 H -2.4559 -3.7003 -1.1392 0
M  V30 38 H -3.4835 -2.3546 -2.9519 0
M  V30 END ATOM
M  V30 BEGIN BOND
M  V30 1 2 1 2
M  V30 2 1 2 3
M  V30 3 2 3 4
M  V30 4 1 3 5
M  V30 5 1 5 6
M  V30 6 2 5 7
M  V30 7 1 6 8
M  V30 8 1 7 9
M  V30 9 1 7 10
M  V30 10 1 8 11
M  V30 11 1 10 12
M  V30 12 1 10 13
M  V30 13 1 11 14
M  V30 14 1 12 15
M  V30 15 1 13 16
M  V30 16 2 14 17
M  V30 17 2 15 18
M  V30 18 2 16 19
M  V30 19 1 16 20
M  V30 20 1 19 21
M  V30 21 2 20 22
M  V30 22 2 21 23
M  V30 23 2 11 12
M  V30 24 1 17 18
M  V30 25 1 22 23
M  V30 26 1 4 24
M  V30 27 1 6 25
M  V30 28 1 8 26
M  V30 29 1 9 27
M  V30 30 1 13 28
M  V30 31 1 13 29
M  V30 32 1 14 30
M  V30 33 1 15 31
M  V30 34 1 17 32
M  V30 35 1 18 33
M  V30 36 1 19 34
M  V30 37 1 20 35
M  V30 38 1 21 36
M  V30 39 1 22 37
M  V30 40 1 23 38
M  V30 END BOND
M  V30 END CTAB
M  END
>  <NO.>
2278

>  <Name>
trizoxime

>  <SMILES>
N=C(N=O)c1[nH][nH]c2ccccc2n(Cc2ccccc2)c1O

>  <logBB>


>  <Class>
1

>  <MW>
309.12

>  <nHBAcc>
3

>  <nHBDon>
4

>  <SLogP>
3.27

>  <TopoPSA>
110.02

>  <MMFF94 Energy>
141.93

$$$$
N=C1SCCN1c1ccc(Cl)cc1N
Actelion Java MolfileCreator 2.0

  0  0  0  0  0  0              0 V3000
M  V30 BEGIN CTAB
M  V30 COUNTS 24 25 0 0 0
M  V30 BEGIN ATOM
M  V30 1 Cl -1.3144 -2.6301 -3.9471 0
M  V30 2 C -0.857 -1.6559 -2.6051 0
M  V30 3 C -1.4232 -1.8861 -1.3547 0
M  V30 4 C 0.081 -0.6477 -2.7727 0
M  V30 5 C -1.0699 -1.0973 -0.2483 0
M  V30 6 C 0.4567 0.1329 -1.6771 0
M  V30 7 N -1.605 -1.4376 0.9912 0
M  V30 8 C -0.1015 -0.0688 -0.3971 0
M  V30 9 N 0.3093 0.7421 0.6805 0
M  V30 10 C -0.4984 1.3513 1.6075 0
M  V30 11 C 1.7274 1.0853 0.7916 0
M  V30 12 S 0.4494 2.1904 2.8305 0
M  V30 13 N -1.776 1.3963 1.7069 0
M  V30 14 C 1.9849 1.4132 2.2592 0
M  V30 15 H -2.1418 -2.6928 -1.2359 0
M  V30 16 H 0.5228 -0.4605 -3.7476 0
M  V30 17 H 1.1791 0.9276 -1.8457 0
M  V30 18 H -2.3638 -2.1023 1.0608 0
M  V30 19 H -1.4354 -0.8519 1.8024 0
M  V30 20 H 1.9521 1.9587 0.1662 0
M  V30 21 H 2.3828 0.2629 0.4807 0
M  V30 22 H -2.1771 0.8897 0.9104 0
M  V30 23 H 2.1451 0.4972 2.8371 0
M  V30 24 H 2.8472 2.0719 2.3903 0
M  V30 END ATOM
M  V30 BEGIN BOND
M  V30 1 1 1 2
M  V30 2 2 2 3
M  V30 3 1 2 4
M  V30 4 1 3 5
M  V30 5 2 4 6
M  V30 6 1 5 7
M  V30 7 2 5 8
M  V30 8 1 8 9
M  V30 9 1 9 10
M  V30 10 1 9 11
M  V30 11 1 10 12
M  V30 12 2 10 13
M  V30 13 1 11 14
M  V30 14 1 6 8
M  V30 15 1 12 14
M  V30 16 1 3 15
M  V30 17 1 4 16
M  V30 18 1 6 17
M  V30 19 1 7 18
M  V30 20 1 7 19
M  V30 21 1 11 20
M  V30 22 1 11 21
M  V30 23 1 13 22
M  V30 24 1 14 23
M  V30 25 1 14 24
M  V30 END BOND
M  V30 END CTAB
M  END
>  <NO.>
2279

>  <Name>
timirdine

>  <SMILES>
N=C1SCCN1c1ccc(Cl)cc1N

>  <logBB>


>  <Class>
1

>  <MW>
227.03

>  <nHBAcc>
3

>  <nHBDon>
2

>  <SLogP>
2.41

>  <TopoPSA>
53.11

>  <MMFF94 Energy>
-13.549

$$$$
NC(=O)C1(N2CCCCC2)CCN(CCCC(=O)c2ccc(F)cc2)CC1
Actelion Java MolfileCreator 2.0

  0  0  0  0  0  0              0 V3000
M  V30 BEGIN CTAB
M  V30 COUNTS 57 59 0 0 0
M  V30 BEGIN ATOM
M  V30 1 F -1.5109 -9.3323 3.98 0
M  V30 2 C -1.3271 -8.0454 3.6592 0
M  V30 3 C -2.4109 -7.2787 3.251 0
M  V30 4 C -0.0528 -7.4951 3.7402 0
M  V30 5 C -2.2161 -5.9367 2.9167 0
M  V30 6 C 0.1465 -6.1517 3.4064 0
M  V30 7 C -0.9359 -5.3628 2.9903 0
M  V30 8 C -0.7819 -3.921 2.6201 0
M  V30 9 O -1.782 -3.2743 2.317 0
M  V30 10 C 0.6097 -3.3095 2.6366 0
M  V30 11 C 0.6435 -1.8467 2.1827 0
M  V30 12 C 0.3888 -1.6906 0.675 0
M  V30 13 N 0.6971 -0.333 0.1829 0
M  V30 14 C 0.6916 -0.3209 -1.2831 0
M  V30 15 C -0.2527 0.6629 0.6978 0
M  V30 16 C 1.0931 1.0521 -1.8255 0
M  V30 17 C 0.0877 2.0747 0.2052 0
M  V30 18 C 0.1517 2.1862 -1.344 0
M  V30 19 N 0.6901 3.5559 -1.7059 0
M  V30 20 C -1.2908 2.0032 -1.927 0
M  V30 21 C 1.1799 3.7157 -3.0813 0
M  V30 22 C -0.218 4.6647 -1.3472 0
M  V30 23 O -2.3199 2.1512 -1.2692 0
M  V30 24 N -1.4088 1.7152 -3.2568 0
M  V30 25 C 1.9095 5.0498 -3.2699 0
M  V30 26 C 0.4728 6.0244 -1.4824 0
M  V30 27 C 1.0277 6.2277 -2.884 0
M  V30 28 H -3.3986 -7.7257 3.1957 0
M  V30 29 H 0.7771 -8.1158 4.0645 0
M  V30 30 H -3.0691 -5.3388 2.5985 0
M  V30 31 H 1.1521 -5.749 3.4837 0
M  V30 32 H 0.9779 -3.3519 3.6684 0
M  V30 33 H 1.2727 -3.9044 1.9991 0
M  V30 34 H -0.0886 -1.2709 2.76 0
M  V30 35 H 1.6348 -1.4411 2.4219 0
M  V30 36 H 1.0433 -2.4042 0.1577 0
M  V30 37 H -0.6418 -1.9665 0.4222 0
M  V30 38 H -0.2875 -0.6187 -1.6796 0
M  V30 39 H 1.4218 -1.0491 -1.6584 0
M  V30 40 H -0.2122 0.6937 1.7921 0
M  V30 41 H -1.2821 0.3992 0.4255 0
M  V30 42 H 1.1225 0.9746 -2.9176 0
M  V30 43 H 2.1218 1.2681 -1.5034 0
M  V30 44 H 1.0555 2.3713 0.6341 0
M  V30 45 H -0.6622 2.7497 0.6325 0
M  V30 46 H 1.9037 2.9369 -3.3381 0
M  V30 47 H 0.3583 3.6563 -3.8036 0
M  V30 48 H -1.1141 4.656 -1.9804 0
M  V30 49 H -0.5533 4.5901 -0.3095 0
M  V30 50 H -0.6266 1.6435 -3.888 0
M  V30 51 H -2.3455 1.6216 -3.6267 0
M  V30 52 H 2.2254 5.1527 -4.3143 0
M  V30 53 H 2.821 5.0584 -2.6586 0
M  V30 54 H -0.2383 6.8247 -1.248 0
M  V30 55 H 1.2873 6.0963 -0.7503 0
M  V30 56 H 1.6005 7.1603 -2.932 0
M  V30 57 H 0.2004 6.3187 -3.5985 0
M  V30 END ATOM
M  V30 BEGIN BOND
M  V30 1 1 1 2
M  V30 2 2 2 3
M  V30 3 1 2 4
M  V30 4 1 3 5
M  V30 5 2 4 6
M  V30 6 2 5 7
M  V30 7 1 7 8
M  V30 8 2 8 9
M  V30 9 1 8 10
M  V30 10 1 10 11
M  V30 11 1 11 12
M  V30 12 1 12 13
M  V30 13 1 13 14
M  V30 14 1 13 15
M  V30 15 1 14 16
M  V30 16 1 15 17
M  V30 17 1 16 18
M  V30 18 1 18 19
M  V30 19 1 18 20
M  V30 20 1 19 21
M  V30 21 1 19 22
M  V30 22 2 20 23
M  V30 23 1 20 24
M  V30 24 1 21 25
M  V30 25 1 22 26
M  V30 26 1 25 27
M  V30 27 1 6 7
M  V30 28 1 17 18
M  V30 29 1 26 27
M  V30 30 1 3 28
M  V30 31 1 4 29
M  V30 32 1 5 30
M  V30 33 1 6 31
M  V30 34 1 10 32
M  V30 35 1 10 33
M  V30 36 1 11 34
M  V30 37 1 11 35
M  V30 38 1 12 36
M  V30 39 1 12 37
M  V30 40 1 14 38
M  V30 41 1 14 39
M  V30 42 1 15 40
M  V30 43 1 15 41
M  V30 44 1 16 42
M  V30 45 1 16 43
M  V30 46 1 17 44
M  V30 47 1 17 45
M  V30 48 1 21 46
M  V30 49 1 21 47
M  V30 50 1 22 48
M  V30 51 1 22 49
M  V30 52 1 24 50
M  V30 53 1 24 51
M  V30 54 1 25 52
M  V30 55 1 25 53
M  V30 56 1 26 54
M  V30 57 1 26 55
M  V30 58 1 27 56
M  V30 59 1 27 57
M  V30 END BOND
M  V30 END CTAB
M  END
>  <NO.>
2280

>  <Name>
pipamperone

>  <SMILES>
NC(=O)C1(N2CCCCC2)CCN(CCCC(=O)c2ccc(F)cc2)CC1

>  <logBB>


>  <Class>
1

>  <MW>
375.23

>  <nHBAcc>
4

>  <nHBDon>
1

>  <SLogP>
2.59

>  <TopoPSA>
66.64

>  <MMFF94 Energy>
45.727

$$$$
NC(=O)C1(N2CCCCC2)CCN(CCCN2c3ccccc3CCc3ccc(Cl)cc32)CC1
Actelion Java MolfileCreator 2.0

  0  0  0  0  0  0              0 V3000
M  V30 BEGIN CTAB
M  V30 COUNTS 71 75 0 0 0
M  V30 BEGIN ATOM
M  V30 1 Cl 2.3243 -5.1351 -1.0414 0
M  V30 2 C 2.9276 -3.8998 -0.0052 0
M  V30 3 C 2.1255 -3.4071 1.0231 0
M  V30 4 C 4.2099 -3.4002 -0.2027 0
M  V30 5 C 2.5952 -2.3971 1.878 0
M  V30 6 C 4.6938 -2.4007 0.6386 0
M  V30 7 N 1.7783 -1.8781 2.9051 0
M  V30 8 C 3.8928 -1.8988 1.677 0
M  V30 9 C 2.0824 -1.9021 4.2875 0
M  V30 10 C 0.4433 -1.384 2.4936 0
M  V30 11 C 4.4072 -0.8106 2.5789 0
M  V30 12 C 3.3757 -1.6749 4.8088 0
M  V30 13 C 1.0631 -2.2313 5.213 0
M  V30 14 C 0.5269 -0.3373 1.3702 0
M  V30 15 C 4.6085 -1.3338 3.9954 0
M  V30 16 C 3.5918 -1.7751 6.205 0
M  V30 17 C 1.291 -2.3128 6.5888 0
M  V30 18 C -0.8699 0.1955 1.0262 0
M  V30 19 C 2.5607 -2.0819 7.087 0
M  V30 20 N -0.8508 1.2972 0.0459 0
M  V30 21 C -2.1873 1.9137 -0.0312 0
M  V30 22 C -0.4212 0.8482 -1.2859 0
M  V30 23 C -2.1979 3.0902 -1.0042 0
M  V30 24 C -0.4128 2.0042 -2.2902 0
M  V30 25 C -1.8075 2.6664 -2.4494 0
M  V30 26 N -2.8452 1.7374 -3.0386 0
M  V30 27 C -1.6871 3.9714 -3.2999 0
M  V30 28 C -4.1704 2.3691 -3.2139 0
M  V30 29 C -2.4496 1.0494 -4.2771 0
M  V30 30 O -2.2798 5.017 -3.0355 0
M  V30 31 N -0.9275 3.9233 -4.4338 0
M  V30 32 C -5.2413 1.3366 -3.5771 0
M  V30 33 C -3.467 -0.0245 -4.6746 0
M  V30 34 C -4.8624 0.5602 -4.8285 0
M  V30 35 H 1.1355 -3.827 1.173 0
M  V30 36 H 4.836 -3.7841 -1.003 0
M  V30 37 H 5.6979 -2.0137 0.4818 0
M  V30 38 H -0.0635 -0.8899 3.3321 0
M  V30 39 H -0.1967 -2.2233 2.195 0
M  V30 40 H 3.7253 0.0487 2.5598 0
M  V30 41 H 5.3686 -0.4422 2.1995 0
M  V30 42 H 0.0629 -2.4752 4.8634 0
M  V30 43 H 0.9838 -0.7814 0.4811 0
M  V30 44 H 1.174 0.4896 1.6886 0
M  V30 45 H 5.2522 -2.2235 3.9733 0
M  V30 46 H 5.1606 -0.5549 4.5393 0
M  V30 47 H 4.5883 -1.6087 6.6113 0
M  V30 48 H 0.478 -2.5734 7.2605 0
M  V30 49 H -1.506 -0.6264 0.6725 0
M  V30 50 H -1.3186 0.5651 1.9577 0
M  V30 51 H 2.7545 -2.1506 8.1536 0
M  V30 52 H -2.4659 2.2982 0.9579 0
M  V30 53 H -2.9485 1.1755 -0.3144 0
M  V30 54 H -1.0561 0.031 -1.6504 0
M  V30 55 H 0.603 0.4636 -1.2405 0
M  V30 56 H -1.4869 3.8495 -0.6449 0
M  V30 57 H -3.1707 3.5905 -0.9607 0
M  V30 58 H -0.0059 1.6467 -3.2414 0
M  V30 59 H 0.3098 2.7614 -1.9511 0
M  V30 60 H -4.5115 2.851 -2.2945 0
M  V30 61 H -4.1373 3.1402 -3.9936 0
M  V30 62 H -2.3378 1.7575 -5.1058 0
M  V30 63 H -1.4959 0.5292 -4.1562 0
M  V30 64 H -0.4387 3.0999 -4.7486 0
M  V30 65 H -0.8712 4.7671 -4.9884 0
M  V30 66 H -6.2021 1.8405 -3.7329 0
M  V30 67 H -5.378 0.6405 -2.7397 0
M  V30 68 H -3.1587 -0.4943 -5.6155 0
M  V30 69 H -3.4818 -0.8148 -3.9131 0
M  V30 70 H -4.8883 1.2279 -5.6983 0
M  V30 71 H -5.5891 -0.2384 -5.0124 0
M  V30 END ATOM
M  V30 BEGIN BOND
M  V30 1 1 1 2
M  V30 2 2 2 3
M  V30 3 1 2 4
M  V30 4 1 3 5
M  V30 5 2 4 6
M  V30 6 1 5 7
M  V30 7 2 5 8
M  V30 8 1 7 9
M  V30 9 1 7 10
M  V30 10 1 8 11
M  V30 11 2 9 12
M  V30 12 1 9 13
M  V30 13 1 10 14
M  V30 14 1 11 15
M  V30 15 1 12 16
M  V30 16 2 13 17
M  V30 17 1 14 18
M  V30 18 2 16 19
M  V30 19 1 18 20
M  V30 20 1 20 21
M  V30 21 1 20 22
M  V30 22 1 21 23
M  V30 23 1 22 24
M  V30 24 1 23 25
M  V30 25 1 25 26
M  V30 26 1 25 27
M  V30 27 1 26 28
M  V30 28 1 26 29
M  V30 29 2 27 30
M  V30 30 1 27 31
M  V30 31 1 28 32
M  V30 32 1 29 33
M  V30 33 1 32 34
M  V30 34 1 6 8
M  V30 35 1 12 15
M  V30 36 1 17 19
M  V30 37 1 24 25
M  V30 38 1 33 34
M  V30 39 1 3 35
M  V30 40 1 4 36
M  V30 41 1 6 37
M  V30 42 1 10 38
M  V30 43 1 10 39
M  V30 44 1 11 40
M  V30 45 1 11 41
M  V30 46 1 13 42
M  V30 47 1 14 43
M  V30 48 1 14 44
M  V30 49 1 15 45
M  V30 50 1 15 46
M  V30 51 1 16 47
M  V30 52 1 17 48
M  V30 53 1 18 49
M  V30 54 1 18 50
M  V30 55 1 19 51
M  V30 56 1 21 52
M  V30 57 1 21 53
M  V30 58 1 22 54
M  V30 59 1 22 55
M  V30 60 1 23 56
M  V30 61 1 23 57
M  V30 62 1 24 58
M  V30 63 1 24 59
M  V30 64 1 28 60
M  V30 65 1 28 61
M  V30 66 1 29 62
M  V30 67 1 29 63
M  V30 68 1 31 64
M  V30 69 1 31 65
M  V30 70 1 32 66
M  V30 71 1 32 67
M  V30 72 1 33 68
M  V30 73 1 33 69
M  V30 74 1 34 70
M  V30 75 1 34 71
M  V30 END BOND
M  V30 END CTAB
M  END
>  <NO.>
2281

>  <Name>
clocapramine

>  <SMILES>
NC(=O)C1(N2CCCCC2)CCN(CCCN2c3ccccc3CCc3ccc(Cl)cc32)CC1

>  <logBB>


>  <Class>
1

>  <MW>
480.27

>  <nHBAcc>
4

>  <nHBDon>
1

>  <SLogP>
4.77

>  <TopoPSA>
52.81

>  <MMFF94 Energy>
71.949

$$$$
NC(=O)C1(N2CCCCC2)CCN(CCCN2c3ccccc3CCc3ccccc32)CC1
Actelion Java MolfileCreator 2.0

  0  0  0  0  0  0              0 V3000
M  V30 BEGIN CTAB
M  V30 COUNTS 71 75 0 0 0
M  V30 BEGIN ATOM
M  V30 1 O 2.1501 0.7959 3.5058 0
M  V30 2 C 1.8858 -0.3759 3.7518 0
M  V30 3 N 1.711 -0.7805 5.0493 0
M  V30 4 C 1.7052 -1.5142 2.6808 0
M  V30 5 N 2.5148 -2.6939 3.1953 0
M  V30 6 C 2.1465 -1.0142 1.2859 0
M  V30 7 C 0.1864 -1.8277 2.6383 0
M  V30 8 C 3.9699 -2.4229 3.1733 0
M  V30 9 C 2.234 -3.9762 2.528 0
M  V30 10 C 1.2142 0.0491 0.6916 0
M  V30 11 C -0.6317 -0.6703 2.0593 0
M  V30 12 C 4.752 -3.5229 3.892 0
M  V30 13 C 2.9826 -5.1356 3.1958 0
M  V30 14 N -0.1923 -0.3837 0.6872 0
M  V30 15 C 4.4808 -4.8814 3.2634 0
M  V30 16 C -1.0269 0.6592 0.0521 0
M  V30 17 C -2.3917 0.1251 -0.3964 0
M  V30 18 C -3.295 1.2315 -0.9629 0
M  V30 19 N -2.7789 1.8693 -2.1984 0
M  V30 20 C -2.7782 3.2871 -2.1462 0
M  V30 21 C -2.5393 1.0834 -3.3528 0
M  V30 22 C -1.6525 4.0318 -2.5259 0
M  V30 23 C -3.9183 3.9907 -1.7113 0
M  V30 24 C -1.6201 1.4353 -4.3685 0
M  V30 25 C -3.2852 -0.1029 -3.5596 0
M  V30 26 C -1.6667 5.4352 -2.4371 0
M  V30 27 C -0.4307 3.3276 -3.0394 0
M  V30 28 C -3.9309 5.3848 -1.6293 0
M  V30 29 C -1.493 0.6137 -5.5174 0
M  V30 30 C -0.7264 2.6592 -4.3733 0
M  V30 31 C -3.1355 -0.9107 -4.6907 0
M  V30 32 C -2.8003 6.1075 -1.987 0
M  V30 33 C -2.2355 -0.5501 -5.6751 0
M  V30 34 H 1.6645 -1.7727 5.2496 0
M  V30 35 H 1.8251 -0.1106 5.7952 0
M  V30 36 H 2.185 -1.857 0.5845 0
M  V30 37 H 3.1555 -0.5863 1.3235 0
M  V30 38 H -0.0156 -2.6969 2.0017 0
M  V30 39 H -0.1969 -2.0728 3.6365 0
M  V30 40 H 4.2022 -1.4774 3.675 0
M  V30 41 H 4.3391 -2.3438 2.1434 0
M  V30 42 H 1.1738 -4.233 2.6002 0
M  V30 43 H 2.4959 -3.9357 1.4644 0
M  V30 44 H 1.3251 1.0045 1.2171 0
M  V30 45 H 1.5436 0.2257 -0.3404 0
M  V30 46 H -0.5636 0.2187 2.6984 0
M  V30 47 H -1.6803 -0.9855 2.0682 0
M  V30 48 H 5.8247 -3.3037 3.8472 0
M  V30 49 H 4.4728 -3.5425 4.9531 0
M  V30 50 H 2.5929 -5.2825 4.2114 0
M  V30 51 H 2.7905 -6.0635 2.6451 0
M  V30 52 H 4.9721 -5.6707 3.8426 0
M  V30 53 H 4.9045 -4.9108 2.2522 0
M  V30 54 H -0.5127 1.0168 -0.8451 0
M  V30 55 H -1.1448 1.5231 0.7188 0
M  V30 56 H -2.9249 -0.3146 0.4535 0
M  V30 57 H -2.2455 -0.6847 -1.1183 0
M  V30 58 H -4.3068 0.8437 -1.1338 0
M  V30 59 H -3.4066 1.9683 -0.1547 0
M  V30 60 H -4.8246 3.4498 -1.4514 0
M  V30 61 H -4.0368 -0.4177 -2.8421 0
M  V30 62 H -0.7916 6.0121 -2.7269 0
M  V30 63 H -0.061 2.6118 -2.2989 0
M  V30 64 H 0.3794 4.0535 -3.184 0
M  V30 65 H -4.8255 5.9012 -1.2929 0
M  V30 66 H -0.7946 0.8911 -6.3056 0
M  V30 67 H 0.2454 2.3613 -4.7903 0
M  V30 68 H -1.1594 3.3892 -5.0707 0
M  V30 69 H -3.7354 -1.8097 -4.7991 0
M  V30 70 H -2.8028 7.1923 -1.9266 0
M  V30 71 H -2.1146 -1.1624 -6.5635 0
M  V30 END ATOM
M  V30 BEGIN BOND
M  V30 1 2 1 2
M  V30 2 1 2 3
M  V30 3 1 2 4
M  V30 4 1 4 5
M  V30 5 1 4 6
M  V30 6 1 4 7
M  V30 7 1 5 8
M  V30 8 1 5 9
M  V30 9 1 6 10
M  V30 10 1 7 11
M  V30 11 1 8 12
M  V30 12 1 9 13
M  V30 13 1 10 14
M  V30 14 1 12 15
M  V30 15 1 14 16
M  V30 16 1 16 17
M  V30 17 1 17 18
M  V30 18 1 18 19
M  V30 19 1 19 20
M  V30 20 1 19 21
M  V30 21 2 20 22
M  V30 22 1 20 23
M  V30 23 2 21 24
M  V30 24 1 21 25
M  V30 25 1 22 26
M  V30 26 1 22 27
M  V30 27 2 23 28
M  V30 28 1 24 29
M  V30 29 1 24 30
M  V30 30 2 25 31
M  V30 31 2 26 32
M  V30 32 2 29 33
M  V30 33 1 11 14
M  V30 34 1 13 15
M  V30 35 1 27 30
M  V30 36 1 28 32
M  V30 37 1 31 33
M  V30 38 1 3 34
M  V30 39 1 3 35
M  V30 40 1 6 36
M  V30 41 1 6 37
M  V30 42 1 7 38
M  V30 43 1 7 39
M  V30 44 1 8 40
M  V30 45 1 8 41
M  V30 46 1 9 42
M  V30 47 1 9 43
M  V30 48 1 10 44
M  V30 49 1 10 45
M  V30 50 1 11 46
M  V30 51 1 11 47
M  V30 52 1 12 48
M  V30 53 1 12 49
M  V30 54 1 13 50
M  V30 55 1 13 51
M  V30 56 1 15 52
M  V30 57 1 15 53
M  V30 58 1 16 54
M  V30 59 1 16 55
M  V30 60 1 17 56
M  V30 61 1 17 57
M  V30 62 1 18 58
M  V30 63 1 18 59
M  V30 64 1 23 60
M  V30 65 1 25 61
M  V30 66 1 26 62
M  V30 67 1 27 63
M  V30 68 1 27 64
M  V30 69 1 28 65
M  V30 70 1 29 66
M  V30 71 1 30 67
M  V30 72 1 30 68
M  V30 73 1 31 69
M  V30 74 1 32 70
M  V30 75 1 33 71
M  V30 END BOND
M  V30 END CTAB
M  END
>  <NO.>
2282

>  <Name>
carpipramine

>  <SMILES>
NC(=O)C1(N2CCCCC2)CCN(CCCN2c3ccccc3CCc3ccccc32)CC1

>  <logBB>


>  <Class>
1

>  <MW>
446.3

>  <nHBAcc>
4

>  <nHBDon>
1

>  <SLogP>
4.12

>  <TopoPSA>
52.81

>  <MMFF94 Energy>
68.869

$$$$
NC(=O)C1CCCCO1
Actelion Java MolfileCreator 2.0

  0  0  0  0  0  0              0 V3000
M  V30 BEGIN CTAB
M  V30 COUNTS 20 20 0 0 0
M  V30 BEGIN ATOM
M  V30 1 O -2.5004 0.8589 1.5622 0
M  V30 2 C -1.8104 -0.1188 1.2937 0
M  V30 3 N -1.9513 -1.2675 2.0262 0
M  V30 4 C -0.7642 -0.1841 0.1635 0 CFG=1
M  V30 5 O -0.9278 0.8844 -0.7666 0
M  V30 6 C 0.6422 -0.146 0.7703 0
M  V30 7 C -0.0137 0.8139 -1.8571 0
M  V30 8 C 1.7085 -0.1557 -0.3202 0
M  V30 9 C 1.4218 0.918 -1.3626 0
M  V30 10 H -2.6351 -1.2567 2.7722 0
M  V30 11 H -1.4311 -2.114 1.8498 0
M  V30 12 H -0.9224 -1.1321 -0.3679 0
M  V30 13 H 0.8007 -0.989 1.4524 0
M  V30 14 H 0.7574 0.7705 1.3639 0
M  V30 15 H -0.2354 1.6455 -2.5335 0
M  V30 16 H -0.1781 -0.1166 -2.4127 0
M  V30 17 H 2.6992 0.0012 0.1201 0
M  V30 18 H 1.7232 -1.1395 -0.8049 0
M  V30 19 H 2.1215 0.8326 -2.2004 0
M  V30 20 H 1.573 1.902 -0.9022 0
M  V30 END ATOM
M  V30 BEGIN BOND
M  V30 1 2 1 2
M  V30 2 1 2 3
M  V30 3 1 2 4
M  V30 4 1 4 5
M  V30 5 1 4 6
M  V30 6 1 5 7
M  V30 7 1 6 8
M  V30 8 1 7 9
M  V30 9 1 8 9
M  V30 10 1 3 10
M  V30 11 1 3 11
M  V30 12 1 4 12
M  V30 13 1 6 13
M  V30 14 1 6 14
M  V30 15 1 7 15
M  V30 16 1 7 16
M  V30 17 1 8 17
M  V30 18 1 8 18
M  V30 19 1 9 19
M  V30 20 1 9 20
M  V30 END BOND
M  V30 BEGIN COLLECTION
M  V30 MDLV30/STERAC1 ATOMS=(1 4)
M  V30 END COLLECTION
M  V30 END CTAB
M  END
>  <NO.>
2283

>  <Name>
oxanamide

>  <SMILES>
NC(=O)C1CCCCO1

>  <logBB>


>  <Class>
1

>  <MW>
129.08

>  <nHBAcc>
2

>  <nHBDon>
1

>  <SLogP>
0.04

>  <TopoPSA>
52.32

>  <MMFF94 Energy>
17.766

$$$$
NC(=O)C1c2ccccc2CCc2ccccc21
Actelion Java MolfileCreator 2.0

  0  0  0  0  0  0              0 V3000
M  V30 BEGIN CTAB
M  V30 COUNTS 33 35 0 0 0
M  V30 BEGIN ATOM
M  V30 1 O -0.5601 -0.4 -3.2041 0
M  V30 2 C -1.2765 -0.0991 -2.2512 0
M  V30 3 N -2.6183 0.077 -2.4711 0
M  V30 4 C -0.8 0.0932 -0.7911 0
M  V30 5 C -0.4276 -1.2263 -0.11 0
M  V30 6 C 0.2334 1.2047 -0.5556 0
M  V30 7 C -0.5225 -1.3189 1.2953 0
M  V30 8 C 0.0335 -2.3454 -0.8224 0
M  V30 9 C 0.6265 1.6007 0.7498 0
M  V30 10 C 0.7926 1.901 -1.6504 0
M  V30 11 C -0.2103 -2.5229 1.9452 0
M  V30 12 C -0.8988 -0.1038 2.1042 0
M  V30 13 C 0.3447 -3.5379 -0.1658 0
M  V30 14 C 1.5523 2.6612 0.8944 0
M  V30 15 C 0.1949 0.9643 2.0636 0
M  V30 16 C 1.7032 2.9455 -1.4792 0
M  V30 17 C 0.2144 -3.6297 1.2152 0
M  V30 18 C 2.0826 3.3288 -0.2046 0
M  V30 19 H -3.2819 0.3 -1.7431 0
M  V30 20 H -2.9559 -0.0504 -3.4161 0
M  V30 21 H -1.7073 0.4633 -0.2935 0
M  V30 22 H 0.168 -2.3116 -1.9015 0
M  V30 23 H 0.5387 1.644 -2.6764 0
M  V30 24 H -0.2791 -2.6004 3.0278 0
M  V30 25 H -1.0564 -0.3949 3.1512 0
M  V30 26 H -1.8641 0.2964 1.7751 0
M  V30 27 H 0.696 -4.3928 -0.7378 0
M  V30 28 H 1.8749 2.9673 1.8889 0
M  V30 29 H -0.1372 1.7773 2.7242 0
M  V30 30 H 1.0994 0.5378 2.5206 0
M  V30 31 H 2.1153 3.4517 -2.3481 0
M  V30 32 H 0.4614 -4.5571 1.7246 0
M  V30 33 H 2.7949 4.1365 -0.0636 0
M  V30 END ATOM
M  V30 BEGIN BOND
M  V30 1 2 1 2
M  V30 2 1 2 3
M  V30 3 1 2 4
M  V30 4 1 4 5
M  V30 5 1 4 6
M  V30 6 2 5 7
M  V30 7 1 5 8
M  V30 8 2 6 9
M  V30 9 1 6 10
M  V30 10 1 7 11
M  V30 11 1 7 12
M  V30 12 2 8 13
M  V30 13 1 9 14
M  V30 14 1 9 15
M  V30 15 2 10 16
M  V30 16 2 11 17
M  V30 17 2 14 18
M  V30 18 1 12 15
M  V30 19 1 13 17
M  V30 20 1 16 18
M  V30 21 1 3 19
M  V30 22 1 3 20
M  V30 23 1 4 21
M  V30 24 1 8 22
M  V30 25 1 10 23
M  V30 26 1 11 24
M  V30 27 1 12 25
M  V30 28 1 12 26
M  V30 29 1 13 27
M  V30 30 1 14 28
M  V30 31 1 15 29
M  V30 32 1 15 30
M  V30 33 1 16 31
M  V30 34 1 17 32
M  V30 35 1 18 33
M  V30 END BOND
M  V30 END CTAB
M  END
>  <NO.>
2284

>  <Name>
cyheptamide

>  <SMILES>
NC(=O)C1c2ccccc2CCc2ccccc21

>  <logBB>


>  <Class>
1

>  <MW>
237.12

>  <nHBAcc>
1

>  <nHBDon>
1

>  <SLogP>
2.4

>  <TopoPSA>
43.09

>  <MMFF94 Energy>
82.909

$$$$
NC(=O)CN1C(=O)C(c2ccccc2)c2ccccc21
Actelion Java MolfileCreator 2.0

  0  0  0  0  0  0              0 V3000
M  V30 BEGIN CTAB
M  V30 COUNTS 34 36 0 0 0
M  V30 BEGIN ATOM
M  V30 1 O -0.9588 -2.2384 1.0388 0
M  V30 2 C -0.2135 -1.5975 0.3098 0
M  V30 3 N 1.157 -1.4176 0.514 0
M  V30 4 C -0.6016 -0.8088 -0.9609 0 CFG=1
M  V30 5 C 1.7055 -0.5573 -0.4423 0
M  V30 6 C 1.8819 -1.9894 1.6282 0
M  V30 7 C -1.732 0.1696 -0.7155 0
M  V30 8 C 0.7119 -0.1713 -1.3457 0
M  V30 9 C 3.0029 -0.0939 -0.5538 0
M  V30 10 C 1.7769 -1.0953 2.8605 0
M  V30 11 C -2.9531 0.0071 -1.3881 0
M  V30 12 C -1.5965 1.2429 0.1816 0
M  V30 13 C 0.9981 0.6761 -2.4044 0
M  V30 14 C 3.2999 0.7661 -1.6153 0
M  V30 15 O 2.7562 -0.6779 3.4722 0
M  V30 16 N 0.5105 -0.856 3.3158 0
M  V30 17 C -4.008 0.8964 -1.1733 0
M  V30 18 C -2.6526 2.131 0.3936 0
M  V30 19 C 2.3067 1.1456 -2.5343 0
M  V30 20 C -3.8572 1.9578 -0.2837 0
M  V30 21 H -0.8696 -1.546 -1.7283 0
M  V30 22 H 1.4386 -2.9595 1.8812 0
M  V30 23 H 2.9316 -2.1507 1.3672 0
M  V30 24 H 3.7786 -0.3694 0.1519 0
M  V30 25 H -3.0959 -0.8176 -2.0833 0
M  V30 26 H -0.6646 1.4001 0.722 0
M  V30 27 H 0.2279 0.9797 -3.1071 0
M  V30 28 H 4.3113 1.1503 -1.7301 0
M  V30 29 H 0.3874 -0.2945 4.1468 0
M  V30 30 H -0.3089 -1.254 2.8635 0
M  V30 31 H -4.9497 0.7587 -1.6986 0
M  V30 32 H -2.5341 2.9584 1.0887 0
M  V30 33 H 2.56 1.8184 -3.3511 0
M  V30 34 H -4.6794 2.6488 -0.1165 0
M  V30 END ATOM
M  V30 BEGIN BOND
M  V30 1 2 1 2
M  V30 2 1 2 3
M  V30 3 1 2 4
M  V30 4 1 3 5
M  V30 5 1 3 6
M  V30 6 1 4 7
M  V30 7 1 4 8
M  V30 8 1 5 9
M  V30 9 1 6 10
M  V30 10 2 7 11
M  V30 11 1 7 12
M  V30 12 1 8 13
M  V30 13 2 9 14
M  V30 14 2 10 15
M  V30 15 1 10 16
M  V30 16 1 11 17
M  V30 17 2 12 18
M  V30 18 2 13 19
M  V30 19 2 17 20
M  V30 20 2 5 8
M  V30 21 1 14 19
M  V30 22 1 18 20
M  V30 23 1 4 21
M  V30 24 1 6 22
M  V30 25 1 6 23
M  V30 26 1 9 24
M  V30 27 1 11 25
M  V30 28 1 12 26
M  V30 29 1 13 27
M  V30 30 1 14 28
M  V30 31 1 16 29
M  V30 32 1 16 30
M  V30 33 1 17 31
M  V30 34 1 18 32
M  V30 35 1 19 33
M  V30 36 1 20 34
M  V30 END BOND
M  V30 BEGIN COLLECTION
M  V30 MDLV30/STERAC1 ATOMS=(1 4)
M  V30 END COLLECTION
M  V30 END CTAB
M  END
>  <NO.>
2285

>  <Name>
doliracetam

>  <SMILES>
NC(=O)CN1C(=O)C(c2ccccc2)c2ccccc21

>  <logBB>


>  <Class>
1

>  <MW>
266.11

>  <nHBAcc>
2

>  <nHBDon>
1

>  <SLogP>
1.65

>  <TopoPSA>
63.4

>  <MMFF94 Energy>
58.578

$$$$
NC(=O)CN1Cc2ccccc2OC1=O
Actelion Java MolfileCreator 2.0

  0  0  0  0  0  0              0 V3000
M  V30 BEGIN CTAB
M  V30 COUNTS 25 26 0 0 0
M  V30 BEGIN ATOM
M  V30 1 O 2.7041 0.0 0.9537 0
M  V30 2 C 1.512 -0.1358 0.6794 0
M  V30 3 O 0.601 -0.5122 1.6707 0
M  V30 4 N 1.0149 0.0691 -0.5964 0
M  V30 5 C -0.7291 -0.816 1.3484 0
M  V30 6 C -0.3948 0.2995 -0.8353 0
M  V30 7 C 1.9513 0.4411 -1.6488 0
M  V30 8 C -1.2541 -0.4598 0.1143 0
M  V30 9 C -1.4948 -1.4717 2.3087 0
M  V30 10 C 2.1628 1.9528 -1.6466 0
M  V30 11 C -2.5911 -0.7623 -0.1627 0
M  V30 12 C -2.8226 -1.7822 2.0222 0
M  V30 13 O 1.5121 2.7237 -2.3447 0
M  V30 14 N 3.068 2.4093 -0.7324 0
M  V30 15 C -3.3702 -1.428 0.7875 0
M  V30 16 H -0.621 -0.007 -1.8628 0
M  V30 17 H -0.5906 1.3724 -0.7295 0
M  V30 18 H 2.9144 -0.0576 -1.4933 0
M  V30 19 H 1.5621 0.1247 -2.6217 0
M  V30 20 H -1.0619 -1.7388 3.2682 0
M  V30 21 H -3.0361 -0.4797 -1.1141 0
M  V30 22 H -3.4325 -2.2961 2.7608 0
M  V30 23 H 3.2286 3.4038 -0.6537 0
M  V30 24 H 3.4864 1.7857 -0.0457 0
M  V30 25 H -4.4086 -1.6653 0.5681 0
M  V30 END ATOM
M  V30 BEGIN BOND
M  V30 1 2 1 2
M  V30 2 1 2 3
M  V30 3 1 2 4
M  V30 4 1 3 5
M  V30 5 1 4 6
M  V30 6 1 4 7
M  V30 7 2 5 8
M  V30 8 1 5 9
M  V30 9 1 7 10
M  V30 10 1 8 11
M  V30 11 2 9 12
M  V30 12 2 10 13
M  V30 13 1 10 14
M  V30 14 2 11 15
M  V30 15 1 6 8
M  V30 16 1 12 15
M  V30 17 1 6 16
M  V30 18 1 6 17
M  V30 19 1 7 18
M  V30 20 1 7 19
M  V30 21 1 9 20
M  V30 22 1 11 21
M  V30 23 1 12 22
M  V30 24 1 14 23
M  V30 25 1 14 24
M  V30 26 1 15 25
M  V30 END BOND
M  V30 END CTAB
M  END
>  <NO.>
2289

>  <Name>
caroxazone

>  <SMILES>
NC(=O)CN1Cc2ccccc2OC1=O

>  <logBB>


>  <Class>
1

>  <MW>
206.07

>  <nHBAcc>
3

>  <nHBDon>
1

>  <SLogP>
0.49

>  <TopoPSA>
72.63

>  <MMFF94 Energy>
-22.377

$$$$
NC(=O)C[S+]([O-])C(c1ccccc1)c1ccccc1
Actelion Java MolfileCreator 2.0

  0  0  0  0  0  0              0 V3000
M  V30 BEGIN CTAB
M  V30 COUNTS 34 35 0 0 0
M  V30 BEGIN ATOM
M  V30 1 S -0.0808 1.2947 1.6996 0 CFG=2
M  V30 2 O 0.2594 2.7443 1.4886 0
M  V30 3 C -0.0405 0.4053 0.0736 0
M  V30 4 C -1.8686 1.1935 2.0052 0
M  V30 5 C 1.2738 0.567 -0.6928 0
M  V30 6 C -0.4272 -1.0592 0.2441 0
M  V30 7 C -2.7039 1.8526 0.9339 0
M  V30 8 C 1.2375 0.5435 -2.1003 0
M  V30 9 C 2.5263 0.6871 -0.068 0
M  V30 10 C 0.3718 -1.9545 0.9753 0
M  V30 11 C -1.6132 -1.5412 -0.3356 0
M  V30 12 O -3.5881 1.2619 0.321 0
M  V30 13 N -2.449 3.1696 0.6944 0
M  V30 14 C 2.4077 0.6558 -2.8536 0
M  V30 15 C 3.6962 0.8012 -0.8238 0
M  V30 16 C -0.0088 -3.2892 1.1268 0
M  V30 17 C -1.9922 -2.8755 -0.1798 0
M  V30 18 C 3.6367 0.7868 -2.2146 0
M  V30 19 C -1.1907 -3.7484 0.5511 0
M  V30 20 H -0.7995 0.9131 -0.5328 0
M  V30 21 H -2.0652 1.6988 2.9564 0
M  V30 22 H -2.1602 0.1464 2.1178 0
M  V30 23 H 0.2892 0.4323 -2.6231 0
M  V30 24 H 2.6159 0.7007 1.0152 0
M  V30 25 H 1.304 -1.6248 1.4288 0
M  V30 26 H -2.2612 -0.8794 -0.9092 0
M  V30 27 H -1.6208 3.6247 1.0762 0
M  V30 28 H -2.989 3.6585 -0.0062 0
M  V30 29 H 2.3584 0.6386 -3.9391 0
M  V30 30 H 4.6557 0.9032 -0.3232 0
M  V30 31 H 0.6207 -3.9725 1.6911 0
M  V30 32 H -2.9149 -3.2324 -0.6306 0
M  V30 33 H 4.5481 0.876 -2.7994 0
M  V30 34 H -1.4856 -4.7879 0.6685 0
M  V30 END ATOM
M  V30 BEGIN BOND
M  V30 1 2 1 2
M  V30 2 1 1 3
M  V30 3 1 1 4
M  V30 4 1 3 5
M  V30 5 1 3 6
M  V30 6 1 4 7
M  V30 7 2 5 8
M  V30 8 1 5 9
M  V30 9 2 6 10
M  V30 10 1 6 11
M  V30 11 2 7 12
M  V30 12 1 7 13
M  V30 13 1 8 14
M  V30 14 2 9 15
M  V30 15 1 10 16
M  V30 16 2 11 17
M  V30 17 2 14 18
M  V30 18 2 16 19
M  V30 19 1 15 18
M  V30 20 1 17 19
M  V30 21 1 3 20
M  V30 22 1 4 21
M  V30 23 1 4 22
M  V30 24 1 8 23
M  V30 25 1 9 24
M  V30 26 1 10 25
M  V30 27 1 11 26
M  V30 28 1 13 27
M  V30 29 1 13 28
M  V30 30 1 14 29
M  V30 31 1 15 30
M  V30 32 1 16 31
M  V30 33 1 17 32
M  V30 34 1 18 33
M  V30 35 1 19 34
M  V30 END BOND
M  V30 BEGIN COLLECTION
M  V30 MDLV30/STERAC1 ATOMS=(1 1)
M  V30 END COLLECTION
M  V30 END CTAB
M  END
>  <NO.>
2290

>  <Name>
modafinil

>  <SMILES>
NC(=O)C[S+]([O-])C(c1ccccc1)c1ccccc1

>  <logBB>


>  <Class>
1

>  <MW>
273.08

>  <nHBAcc>
2

>  <nHBDon>
1

>  <SLogP>
2.01

>  <TopoPSA>
66.15

>  <MMFF94 Energy>
47.734

$$$$
NC(=O)N1CC(Oc2cccc(C(F)(F)F)c2)C1
Actelion Java MolfileCreator 2.0

  0  0  0  0  0  0              0 V3000
M  V30 BEGIN CTAB
M  V30 COUNTS 29 30 0 0 0
M  V30 BEGIN ATOM
M  V30 1 F -0.2409 3.9412 3.3774 0
M  V30 2 C -0.9156 4.1149 2.207 0
M  V30 3 F -0.1316 4.9203 1.4384 0
M  V30 4 F -2.0165 4.8548 2.5202 0
M  V30 5 C -1.251 2.8169 1.5171 0
M  V30 6 C -0.3783 1.721 1.604 0
M  V30 7 C -2.4177 2.692 0.7494 0
M  V30 8 C -0.6666 0.5234 0.9463 0
M  V30 9 C -2.7119 1.4912 0.1022 0
M  V30 10 O 0.2594 -0.4748 1.1162 0
M  V30 11 C -1.8396 0.4053 0.2035 0
M  V30 12 C 0.2758 -1.5746 0.1767 0
M  V30 13 C 0.736 -1.2649 -1.2664 0
M  V30 14 C 1.4956 -2.5138 0.2874 0
M  V30 15 N 1.6106 -2.406 -1.1514 0
M  V30 16 C 2.3442 -3.1398 -2.0174 0
M  V30 17 O 3.0359 -4.0966 -1.6903 0
M  V30 18 N 2.2696 -2.7532 -3.3122 0
M  V30 19 H 0.5372 1.7987 2.1892 0
M  V30 20 H -3.1078 3.5303 0.6594 0
M  V30 21 H -3.6271 1.3993 -0.4786 0
M  V30 22 H -2.1097 -0.5186 -0.2962 0
M  V30 23 H -0.6563 -2.1551 0.2255 0
M  V30 24 H 1.2784 -0.3249 -1.4029 0
M  V30 25 H -0.0415 -1.3694 -2.0271 0
M  V30 26 H 2.3628 -2.1071 0.8157 0
M  V30 27 H 1.2723 -3.5229 0.6428 0
M  V30 28 H 2.8068 -3.2789 -3.987 0
M  V30 29 H 1.7436 -1.9494 -3.6107 0
M  V30 END ATOM
M  V30 BEGIN BOND
M  V30 1 1 1 2
M  V30 2 1 2 3
M  V30 3 1 2 4
M  V30 4 1 2 5
M  V30 5 2 5 6
M  V30 6 1 5 7
M  V30 7 1 6 8
M  V30 8 2 7 9
M  V30 9 1 8 10
M  V30 10 2 8 11
M  V30 11 1 10 12
M  V30 12 1 12 13
M  V30 13 1 12 14
M  V30 14 1 13 15
M  V30 15 1 15 16
M  V30 16 2 16 17
M  V30 17 1 16 18
M  V30 18 1 9 11
M  V30 19 1 14 15
M  V30 20 1 6 19
M  V30 21 1 7 20
M  V30 22 1 9 21
M  V30 23 1 11 22
M  V30 24 1 12 23
M  V30 25 1 13 24
M  V30 26 1 13 25
M  V30 27 1 14 26
M  V30 28 1 14 27
M  V30 29 1 18 28
M  V30 30 1 18 29
M  V30 END BOND
M  V30 END CTAB
M  END
>  <NO.>
2291

>  <Name>
dezinamide

>  <SMILES>
NC(=O)N1CC(Oc2cccc(C(F)(F)F)c2)C1

>  <logBB>


>  <Class>
1

>  <MW>
260.08

>  <nHBAcc>
2

>  <nHBDon>
1

>  <SLogP>
1.85

>  <TopoPSA>
55.56

>  <MMFF94 Energy>
-24.051

$$$$
NC(=O)N1c2ccccc2CC(=O)c2ccccc21
Actelion Java MolfileCreator 2.0

  0  0  0  0  0  0              0 V3000
M  V30 BEGIN CTAB
M  V30 COUNTS 31 33 0 0 0
M  V30 BEGIN ATOM
M  V30 1 O -3.2866 -1.2816 0.1601 0
M  V30 2 C -2.1923 -0.7158 0.2294 0
M  V30 3 C -0.9706 -1.5249 0.5514 0
M  V30 4 C -2.1078 0.7819 0.0355 0
M  V30 5 C 0.3089 -0.9865 0.7957 0
M  V30 6 C -1.1511 -2.9198 0.6322 0
M  V30 7 C -1.0142 1.1986 -0.9069 0
M  V30 8 N 0.6011 0.4047 0.7151 0
M  V30 9 C 1.3683 -1.8577 1.1137 0
M  V30 10 C -0.089 -3.7684 0.947 0
M  V30 11 C 0.3196 0.9897 -0.539 0
M  V30 12 C -1.2961 1.7802 -2.1486 0
M  V30 13 C 1.1574 1.0887 1.7904 0
M  V30 14 C 1.1709 -3.2365 1.1896 0
M  V30 15 C 1.3618 1.349 -1.4003 0
M  V30 16 C -0.256 2.1452 -3.006 0
M  V30 17 O 1.4642 0.5864 2.8695 0
M  V30 18 N 1.3482 2.4272 1.6256 0
M  V30 19 C 1.0707 1.9293 -2.6337 0
M  V30 20 H -3.0751 1.1211 -0.3567 0
M  V30 21 H -1.9904 1.266 1.0124 0
M  V30 22 H -2.1325 -3.3579 0.4532 0
M  V30 23 H 2.3625 -1.4607 1.3108 0
M  V30 24 H -0.2511 -4.8418 1.0083 0
M  V30 25 H -2.3254 1.947 -2.4606 0
M  V30 26 H 2.0014 -3.8908 1.443 0
M  V30 27 H 2.3965 1.1719 -1.1174 0
M  V30 28 H -0.4825 2.5925 -3.9715 0
M  V30 29 H 1.7405 2.9389 2.4034 0
M  V30 30 H 1.0648 2.9308 0.7994 0
M  V30 31 H 1.8765 2.2067 -3.3089 0
M  V30 END ATOM
M  V30 BEGIN BOND
M  V30 1 2 1 2
M  V30 2 1 2 3
M  V30 3 1 2 4
M  V30 4 2 3 5
M  V30 5 1 3 6
M  V30 6 1 4 7
M  V30 7 1 5 8
M  V30 8 1 5 9
M  V30 9 2 6 10
M  V30 10 2 7 11
M  V30 11 1 7 12
M  V30 12 1 8 13
M  V30 13 2 9 14
M  V30 14 1 11 15
M  V30 15 2 12 16
M  V30 16 2 13 17
M  V30 17 1 13 18
M  V30 18 2 15 19
M  V30 19 1 8 11
M  V30 20 1 10 14
M  V30 21 1 16 19
M  V30 22 1 4 20
M  V30 23 1 4 21
M  V30 24 1 6 22
M  V30 25 1 9 23
M  V30 26 1 10 24
M  V30 27 1 12 25
M  V30 28 1 14 26
M  V30 29 1 15 27
M  V30 30 1 16 28
M  V30 31 1 18 29
M  V30 32 1 18 30
M  V30 33 1 19 31
M  V30 END BOND
M  V30 END CTAB
M  END
>  <NO.>
2292

>  <Name>
oxcarbazepine

>  <SMILES>
NC(=O)N1c2ccccc2CC(=O)c2ccccc21

>  <logBB>


>  <Class>
1

>  <MW>
252.09

>  <nHBAcc>
2

>  <nHBDon>
1

>  <SLogP>
2.64

>  <TopoPSA>
63.4

>  <MMFF94 Energy>
27.588

$$$$
NC(=O)NC(=O)Cc1ccccc1
Actelion Java MolfileCreator 2.0

  0  0  0  0  0  0              0 V3000
M  V30 BEGIN CTAB
M  V30 COUNTS 23 23 0 0 0
M  V30 BEGIN ATOM
M  V30 1 O -2.3364 0.0 2.9602 0
M  V30 2 C -2.5007 -0.331 1.7911 0
M  V30 3 N -1.6749 0.1235 0.8039 0
M  V30 4 N -3.5033 -1.1522 1.4212 0
M  V30 5 C -1.7064 -0.1631 -0.5515 0
M  V30 6 O -2.5344 -0.9028 -1.0829 0
M  V30 7 C -0.6581 0.5766 -1.3651 0
M  V30 8 C 0.752 0.3719 -0.8665 0
M  V30 9 C 1.5023 1.4535 -0.384 0
M  V30 10 C 1.3289 -0.9061 -0.8786 0
M  V30 11 C 2.8003 1.2562 0.0893 0
M  V30 12 C 2.6266 -1.0995 -0.4042 0
M  V30 13 C 3.3609 -0.0194 0.0812 0
M  V30 14 H -0.9373 0.7172 1.1564 0
M  V30 15 H -3.6152 -1.4236 0.4485 0
M  V30 16 H -4.1361 -1.5116 2.12 0
M  V30 17 H -0.9227 1.641 -1.3589 0
M  V30 18 H -0.7172 0.2402 -2.4072 0
M  V30 19 H 1.0877 2.4595 -0.3749 0
M  V30 20 H 0.7717 -1.7615 -1.2573 0
M  V30 21 H 3.3775 2.0987 0.4627 0
M  V30 22 H 3.066 -2.094 -0.4145 0
M  V30 23 H 4.3722 -0.1716 0.4496 0
M  V30 END ATOM
M  V30 BEGIN BOND
M  V30 1 2 1 2
M  V30 2 1 2 3
M  V30 3 1 2 4
M  V30 4 1 3 5
M  V30 5 2 5 6
M  V30 6 1 5 7
M  V30 7 1 7 8
M  V30 8 2 8 9
M  V30 9 1 8 10
M  V30 10 1 9 11
M  V30 11 2 10 12
M  V30 12 2 11 13
M  V30 13 1 12 13
M  V30 14 1 3 14
M  V30 15 1 4 15
M  V30 16 1 4 16
M  V30 17 1 7 17
M  V30 18 1 7 18
M  V30 19 1 9 19
M  V30 20 1 10 20
M  V30 21 1 11 21
M  V30 22 1 12 22
M  V30 23 1 13 23
M  V30 END BOND
M  V30 END CTAB
M  END
>  <NO.>
2293

>  <Name>
phenacemide

>  <SMILES>
NC(=O)NC(=O)Cc1ccccc1

>  <logBB>


>  <Class>
1

>  <MW>
178.07

>  <nHBAcc>
2

>  <nHBDon>
2

>  <SLogP>
0.42

>  <TopoPSA>
72.19

>  <MMFF94 Energy>
-76.24

$$$$
NC(=O)NCCN1CCN(c2cccc(C(F)(F)F)c2)CC1
Actelion Java MolfileCreator 2.0

  0  0  0  0  0  0              0 V3000
M  V30 BEGIN CTAB
M  V30 COUNTS 41 42 0 0 0
M  V30 BEGIN ATOM
M  V30 1 F 3.4965 4.0536 1.6676 0
M  V30 2 C 4.382 3.0236 1.7756 0
M  V30 3 F 5.2679 3.3988 2.7412 0
M  V30 4 F 5.0854 3.0135 0.6094 0
M  V30 5 C 3.7186 1.7002 2.0568 0
M  V30 6 C 2.4784 1.3921 1.4632 0
M  V30 7 C 4.3346 0.7497 2.8774 0
M  V30 8 C 1.8266 0.1695 1.6846 0
M  V30 9 C 3.7161 -0.4742 3.1056 0
M  V30 10 N 0.6041 -0.144 1.1017 0
M  V30 11 C 2.4807 -0.7546 2.5139 0
M  V30 12 C 0.1291 0.5872 -0.0843 0
M  V30 13 C -0.4785 -0.6255 1.9796 0
M  V30 14 C -0.959 -0.2122 -0.841 0
M  V30 15 C -1.5404 -1.4021 1.1696 0
M  V30 16 N -2.0822 -0.6421 0.0186 0
M  V30 17 C -3.0799 -1.4613 -0.698 0
M  V30 18 C -3.7758 -0.7786 -1.8923 0
M  V30 19 N -3.0119 -0.8622 -3.1252 0
M  V30 20 C -3.1617 0.049 -4.1229 0
M  V30 21 O -3.9117 1.0129 -4.0984 0
M  V30 22 N -2.3728 -0.2051 -5.1922 0
M  V30 23 H 2.0138 2.1489 0.8341 0
M  V30 24 H 5.2984 0.9586 3.3382 0
M  V30 25 H 4.1952 -1.2195 3.7353 0
M  V30 26 H 2.0438 -1.7351 2.6849 0
M  V30 27 H 0.9542 0.7639 -0.7852 0
M  V30 28 H -0.2763 1.5606 0.2197 0
M  V30 29 H -0.9472 0.2346 2.4751 0
M  V30 30 H -0.1114 -1.2911 2.7679 0
M  V30 31 H -0.4913 -1.087 -1.3118 0
M  V30 32 H -1.3255 0.4415 -1.6385 0
M  V30 33 H -2.359 -1.6633 1.8514 0
M  V30 34 H -1.0935 -2.3428 0.82 0
M  V30 35 H -3.8721 -1.709 0.0203 0
M  V30 36 H -2.6374 -2.4115 -1.0251 0
M  V30 37 H -4.7251 -1.2891 -2.0918 0
M  V30 38 H -4.0132 0.2667 -1.6639 0
M  V30 39 H -2.4739 -1.6928 -3.3113 0
M  V30 40 H -1.71 -0.9603 -5.2289 0
M  V30 41 H -2.4341 0.4365 -5.9708 0
M  V30 END ATOM
M  V30 BEGIN BOND
M  V30 1 1 1 2
M  V30 2 1 2 3
M  V30 3 1 2 4
M  V30 4 1 2 5
M  V30 5 2 5 6
M  V30 6 1 5 7
M  V30 7 1 6 8
M  V30 8 2 7 9
M  V30 9 1 8 10
M  V30 10 2 8 11
M  V30 11 1 10 12
M  V30 12 1 10 13
M  V30 13 1 12 14
M  V30 14 1 13 15
M  V30 15 1 14 16
M  V30 16 1 16 17
M  V30 17 1 17 18
M  V30 18 1 18 19
M  V30 19 1 19 20
M  V30 20 2 20 21
M  V30 21 1 20 22
M  V30 22 1 9 11
M  V30 23 1 15 16
M  V30 24 1 6 23
M  V30 25 1 7 24
M  V30 26 1 9 25
M  V30 27 1 11 26
M  V30 28 1 12 27
M  V30 29 1 12 28
M  V30 30 1 13 29
M  V30 31 1 13 30
M  V30 32 1 14 31
M  V30 33 1 14 32
M  V30 34 1 15 33
M  V30 35 1 15 34
M  V30 36 1 17 35
M  V30 37 1 17 36
M  V30 38 1 18 37
M  V30 39 1 18 38
M  V30 40 1 19 39
M  V30 41 1 22 40
M  V30 42 1 22 41
M  V30 END BOND
M  V30 END CTAB
M  END
>  <NO.>
2294

>  <Name>
fluprazine

>  <SMILES>
NC(=O)NCCN1CCN(c2cccc(C(F)(F)F)c2)CC1

>  <logBB>


>  <Class>
1

>  <MW>
316.15

>  <nHBAcc>
3

>  <nHBDon>
2

>  <SLogP>
1.5

>  <TopoPSA>
61.6

>  <MMFF94 Energy>
28.512

$$$$
NC(=O)OCC(O)COc1ccc(Cl)cc1
Actelion Java MolfileCreator 2.0

  0  0  0  0  0  0              0 V3000
M  V30 BEGIN CTAB
M  V30 COUNTS 28 28 0 0 0
M  V30 BEGIN ATOM
M  V30 1 Cl -1.9071 -4.1356 -3.7374 0
M  V30 2 C -1.2619 -3.0906 -2.5332 0
M  V30 3 C -1.6702 -3.2244 -1.2078 0
M  V30 4 C -0.3335 -2.1159 -2.8862 0
M  V30 5 C -1.1477 -2.376 -0.2249 0
M  V30 6 C 0.1861 -1.2708 -1.9031 0
M  V30 7 C -0.2182 -1.3933 -0.5701 0
M  V30 8 O 0.3688 -0.5045 0.2861 0
M  V30 9 C -0.0628 -0.5272 1.6499 0
M  V30 10 C 0.6596 0.569 2.4491 0 CFG=1
M  V30 11 O 2.0749 0.3526 2.3822 0
M  V30 12 C 0.3369 1.9932 1.9793 0
M  V30 13 O 0.833 2.2048 0.6487 0
M  V30 14 C 0.4364 3.3694 0.0926 0
M  V30 15 O -0.2703 4.217 0.6122 0
M  V30 16 N 0.9394 3.4767 -1.1557 0
M  V30 17 H -2.3932 -3.9873 -0.9308 0
M  V30 18 H -0.0101 -2.008 -3.9176 0
M  V30 19 H -1.485 -2.514 0.7969 0
M  V30 20 H 0.9122 -0.51 -2.178 0
M  V30 21 H 0.1976 -1.4999 2.0846 0
M  V30 22 H -1.1456 -0.3647 1.7109 0
M  V30 23 H 0.3695 0.4769 3.5017 0
M  V30 24 H 2.3 0.4226 1.4336 0
M  V30 25 H -0.7466 2.1575 2.015 0
M  V30 26 H 0.8385 2.7106 2.6396 0
M  V30 27 H 0.7282 4.2987 -1.7003 0
M  V30 28 H 1.514 2.7395 -1.5314 0
M  V30 END ATOM
M  V30 BEGIN BOND
M  V30 1 1 1 2
M  V30 2 2 2 3
M  V30 3 1 2 4
M  V30 4 1 3 5
M  V30 5 2 4 6
M  V30 6 2 5 7
M  V30 7 1 7 8
M  V30 8 1 8 9
M  V30 9 1 9 10
M  V30 10 1 10 11
M  V30 11 1 10 12
M  V30 12 1 12 13
M  V30 13 1 13 14
M  V30 14 2 14 15
M  V30 15 1 14 16
M  V30 16 1 6 7
M  V30 17 1 3 17
M  V30 18 1 4 18
M  V30 19 1 5 19
M  V30 20 1 6 20
M  V30 21 1 9 21
M  V30 22 1 9 22
M  V30 23 1 10 23
M  V30 24 1 11 24
M  V30 25 1 12 25
M  V30 26 1 12 26
M  V30 27 1 16 27
M  V30 28 1 16 28
M  V30 END BOND
M  V30 BEGIN COLLECTION
M  V30 MDLV30/STERAC1 ATOMS=(1 10)
M  V30 END COLLECTION
M  V30 END CTAB
M  END
>  <NO.>
2295

>  <Name>
chlorphenesin carbamate

>  <SMILES>
NC(=O)OCC(O)COc1ccc(Cl)cc1

>  <logBB>


>  <Class>
1

>  <MW>
245.05

>  <nHBAcc>
4

>  <nHBDon>
2

>  <SLogP>
1.18

>  <TopoPSA>
81.78

>  <MMFF94 Energy>
-27.215

$$$$
NC(=O)OCCCc1ccccc1
Actelion Java MolfileCreator 2.0

  0  0  0  0  0  0              0 V3000
M  V30 BEGIN CTAB
M  V30 COUNTS 26 26 0 0 0
M  V30 BEGIN ATOM
M  V30 1 O 1.322 -3.6585 0.5442 0
M  V30 2 C 0.9858 -3.1262 1.5887 0
M  V30 3 O 1.2932 -1.8745 1.9937 0
M  V30 4 N 0.2244 -3.7347 2.5238 0
M  V30 5 C 2.1067 -1.1121 1.0899 0
M  V30 6 C 1.2567 -0.4158 0.0303 0
M  V30 7 C 0.2185 0.5206 0.6538 0
M  V30 8 C -0.5658 1.2625 -0.3998 0
M  V30 9 C -0.1929 2.5565 -0.7866 0
M  V30 10 C -1.6635 0.6556 -1.0246 0
M  V30 11 C -0.9117 3.2342 -1.7727 0
M  V30 12 C -2.3807 1.3346 -2.0107 0
M  V30 13 C -2.0055 2.6239 -2.3837 0
M  V30 14 H -0.0861 -4.6804 2.3626 0
M  V30 15 H -0.0222 -3.245 3.3692 0
M  V30 16 H 2.8722 -1.7447 0.6247 0
M  V30 17 H 2.6392 -0.367 1.6912 0
M  V30 18 H 1.9167 0.1467 -0.641 0
M  V30 19 H 0.7427 -1.1673 -0.581 0
M  V30 20 H -0.4795 -0.042 1.2862 0
M  V30 21 H 0.7128 1.2415 1.3174 0
M  V30 22 H 0.6605 3.0449 -0.3225 0
M  V30 23 H -1.9639 -0.3523 -0.7473 0
M  V30 24 H -0.6168 4.2383 -2.0657 0
M  V30 25 H -3.2308 0.856 -2.4895 0
M  V30 26 H -2.5637 3.1516 -3.1523 0
M  V30 END ATOM
M  V30 BEGIN BOND
M  V30 1 2 1 2
M  V30 2 1 2 3
M  V30 3 1 2 4
M  V30 4 1 3 5
M  V30 5 1 5 6
M  V30 6 1 6 7
M  V30 7 1 7 8
M  V30 8 2 8 9
M  V30 9 1 8 10
M  V30 10 1 9 11
M  V30 11 2 10 12
M  V30 12 2 11 13
M  V30 13 1 12 13
M  V30 14 1 4 14
M  V30 15 1 4 15
M  V30 16 1 5 16
M  V30 17 1 5 17
M  V30 18 1 6 18
M  V30 19 1 6 19
M  V30 20 1 7 20
M  V30 21 1 7 21
M  V30 22 1 9 22
M  V30 23 1 10 23
M  V30 24 1 11 24
M  V30 25 1 12 25
M  V30 26 1 13 26
M  V30 END BOND
M  V30 END CTAB
M  END
>  <NO.>
2297

>  <Name>
phenprobamate

>  <SMILES>
NC(=O)OCCCc1ccccc1

>  <logBB>


>  <Class>
1

>  <MW>
179.09

>  <nHBAcc>
2

>  <nHBDon>
1

>  <SLogP>
1.71

>  <TopoPSA>
52.32

>  <MMFF94 Energy>
-54.278

$$$$
NC(=O)c1ccc(F)c2c1C[C@@H](N(C1CCC1)C1CCC1)CO2
Actelion Java MolfileCreator 2.0

  0  0  0  0  0  0              0 V3000
M  V30 BEGIN CTAB
M  V30 COUNTS 46 49 0 0 0
M  V30 BEGIN ATOM
M  V30 1 F -0.4021 5.1566 -0.6434 0
M  V30 2 C 0.519 4.1818 -0.6464 0
M  V30 3 C 0.1531 2.8652 -0.3474 0
M  V30 4 C 1.8357 4.5131 -0.9381 0
M  V30 5 O -1.1724 2.661 -0.06 0
M  V30 6 C 1.1128 1.8384 -0.3732 0
M  V30 7 C 2.809 3.5176 -0.9255 0
M  V30 8 C -1.4658 1.4178 0.5915 0
M  V30 9 C 2.4565 2.1875 -0.6344 0
M  V30 10 C 0.7016 0.4176 -0.0593 0
M  V30 11 C -0.8288 0.2356 -0.1551 0 CFG=1
M  V30 12 C 3.5445 1.1745 -0.6168 0
M  V30 13 N -1.4034 -1.0702 0.273 0
M  V30 14 O 3.4617 0.1085 -1.2071 0
M  V30 15 N 4.6529 1.5026 0.112 0
M  V30 16 C -1.6979 -2.0381 -0.8055 0
M  V30 17 C -0.6477 -1.7208 1.359 0
M  V30 18 C -2.7952 -1.5216 -1.7634 0
M  V30 19 C -0.7361 -2.0672 -2.0104 0
M  V30 20 C -0.8335 -0.9675 2.7069 0
M  V30 21 C -1.4961 -2.8506 2.0189 0
M  V30 22 C -1.9992 -2.2159 -2.8959 0
M  V30 23 C -0.9459 -2.3546 3.3714 0
M  V30 24 H 2.0907 5.5424 -1.1702 0
M  V30 25 H 3.8376 3.7778 -1.1651 0
M  V30 26 H -2.5574 1.3186 0.5951 0
M  V30 27 H -1.1389 1.4919 1.6344 0
M  V30 28 H 1.0679 0.2042 0.9505 0
M  V30 29 H 1.1755 -0.2846 -0.7477 0
M  V30 30 H -1.0896 0.4225 -1.2036 0
M  V30 31 H 4.7351 2.3489 0.6572 0
M  V30 32 H 5.4081 0.8298 0.1424 0
M  V30 33 H -1.9471 -3.0498 -0.4573 0
M  V30 34 H 0.3776 -2.0311 1.1244 0
M  V30 35 H -2.8864 -0.4397 -1.9017 0
M  V30 36 H -3.7968 -1.9254 -1.5866 0
M  V30 37 H -0.1697 -1.1697 -2.2675 0
M  V30 38 H -0.0503 -2.9193 -2.0359 0
M  V30 39 H -1.7572 -0.3851 2.8125 0
M  V30 40 H 0.0112 -0.3609 3.0429 0
M  V30 41 H -2.5856 -2.7453 1.937 0
M  V30 42 H -1.2175 -3.874 1.7528 0
M  V30 43 H -1.9747 -1.6868 -3.8518 0
M  V30 44 H -2.296 -3.2567 -3.07 0
M  V30 45 H 0.0184 -2.7952 3.6492 0
M  V30 46 H -1.6302 -2.4242 4.2203 0
M  V30 END ATOM
M  V30 BEGIN BOND
M  V30 1 1 1 2
M  V30 2 2 2 3
M  V30 3 1 2 4
M  V30 4 1 3 5
M  V30 5 1 3 6
M  V30 6 2 4 7
M  V30 7 1 5 8
M  V30 8 2 6 9
M  V30 9 1 6 10
M  V30 10 1 8 11
M  V30 11 1 9 12
M  V30 12 1 11 13
M  V30 13 2 12 14
M  V30 14 1 12 15
M  V30 15 1 13 16
M  V30 16 1 13 17
M  V30 17 1 16 18
M  V30 18 1 16 19
M  V30 19 1 17 20
M  V30 20 1 17 21
M  V30 21 1 18 22
M  V30 22 1 20 23
M  V30 23 1 7 9
M  V30 24 1 10 11
M  V30 25 1 19 22
M  V30 26 1 21 23
M  V30 27 1 4 24
M  V30 28 1 7 25
M  V30 29 1 8 26
M  V30 30 1 8 27
M  V30 31 1 10 28
M  V30 32 1 10 29
M  V30 33 1 11 30
M  V30 34 1 15 31
M  V30 35 1 15 32
M  V30 36 1 16 33
M  V30 37 1 17 34
M  V30 38 1 18 35
M  V30 39 1 18 36
M  V30 40 1 19 37
M  V30 41 1 19 38
M  V30 42 1 20 39
M  V30 43 1 20 40
M  V30 44 1 21 41
M  V30 45 1 21 42
M  V30 46 1 22 43
M  V30 47 1 22 44
M  V30 48 1 23 45
M  V30 49 1 23 46
M  V30 END BOND
M  V30 BEGIN COLLECTION
M  V30 MDLV30/STEABS ATOMS=(1 11)
M  V30 END COLLECTION
M  V30 END CTAB
M  END
>  <NO.>
2298

>  <Name>
robalzotan

>  <SMILES>
NC(=O)c1ccc(F)c2c1C[C@@H](N(C1CCC1)C1CCC1)CO2

>  <logBB>


>  <Class>
1

>  <MW>
318.17

>  <nHBAcc>
3

>  <nHBDon>
1

>  <SLogP>
2.64

>  <TopoPSA>
55.56

>  <MMFF94 Energy>
86.347

$$$$
NC(=O)c1cccnc1
Actelion Java MolfileCreator 2.0

  0  0  0  0  0  0              0 V3000
M  V30 BEGIN CTAB
M  V30 COUNTS 15 15 0 0 0
M  V30 BEGIN ATOM
M  V30 1 O -0.1559 1.0918 2.4188 0
M  V30 2 C 0.4206 0.2878 1.6965 0
M  V30 3 N 1.52 -0.3855 2.1503 0
M  V30 4 C -0.0315 0.0447 0.3083 0
M  V30 5 C 0.3059 -1.0946 -0.4088 0
M  V30 6 C -0.8583 0.9817 -0.3165 0
M  V30 7 N -0.0949 -1.3371 -1.6825 0
M  V30 8 C -1.2906 0.7581 -1.622 0
M  V30 9 C -0.8837 -0.4031 -2.2586 0
M  V30 10 H 2.1029 -0.994 1.596 0
M  V30 11 H 1.81 -0.1931 3.1014 0
M  V30 12 H 0.9087 -1.8885 0.0181 0
M  V30 13 H -1.1636 1.883 0.2105 0
M  V30 14 H -1.9303 1.4729 -2.1279 0
M  V30 15 H -1.1937 -0.6215 -3.2768 0
M  V30 END ATOM
M  V30 BEGIN BOND
M  V30 1 2 1 2
M  V30 2 1 2 3
M  V30 3 1 2 4
M  V30 4 2 4 5
M  V30 5 1 4 6
M  V30 6 1 5 7
M  V30 7 2 6 8
M  V30 8 2 7 9
M  V30 9 1 8 9
M  V30 10 1 3 10
M  V30 11 1 3 11
M  V30 12 1 5 12
M  V30 13 1 6 13
M  V30 14 1 8 14
M  V30 15 1 9 15
M  V30 END BOND
M  V30 END CTAB
M  END
>  <NO.>
2299

>  <Name>
nicotinamide

>  <SMILES>
NC(=O)c1cccnc1

>  <logBB>


>  <Class>
1

>  <MW>
122.05

>  <nHBAcc>
2

>  <nHBDon>
1

>  <SLogP>
0.18

>  <TopoPSA>
55.98

>  <MMFF94 Energy>
6.067

$$$$
NC(=O)c1cn(Cc2c(F)cccc2F)nn1
Actelion Java MolfileCreator 2.0

  0  0  0  0  0  0              0 V3000
M  V30 BEGIN CTAB
M  V30 COUNTS 25 26 0 0 0
M  V30 BEGIN ATOM
M  V30 1 F -1.6866 0.9635 1.2848 0
M  V30 2 C -1.762 1.0977 -0.047 0
M  V30 3 C -1.4821 0.0041 -0.8666 0
M  V30 4 C -2.1235 2.3344 -0.5781 0
M  V30 5 C -1.5726 0.1851 -2.246 0
M  V30 6 C -1.0686 -1.3129 -0.2844 0
M  V30 7 C -2.2081 2.4947 -1.9602 0
M  V30 8 F -1.3252 -0.8413 -3.0703 0
M  V30 9 C -1.932 1.4142 -2.7966 0
M  V30 10 N 0.3378 -1.3144 0.074 0
M  V30 11 N 1.2655 -1.7282 -0.8024 0
M  V30 12 C 0.9015 -0.9756 1.2706 0
M  V30 13 N 2.4452 -1.6466 -0.2017 0
M  V30 14 C 2.2556 -1.1814 1.0799 0
M  V30 15 C 3.3593 -0.9755 2.008 0
M  V30 16 O 4.5333 -1.2197 1.7484 0
M  V30 17 N 3.032 -0.4747 3.241 0
M  V30 18 H -2.334 3.1656 0.0885 0
M  V30 19 H -1.2408 -2.1406 -0.9819 0
M  V30 20 H -1.6455 -1.5358 0.6209 0
M  V30 21 H -2.4859 3.4566 -2.3843 0
M  V30 22 H -1.9914 1.5193 -3.8762 0
M  V30 23 H 0.3142 -0.6271 2.1061 0
M  V30 24 H 2.093 -0.2407 3.5204 0
M  V30 25 H 3.7924 -0.3275 3.8901 0
M  V30 END ATOM
M  V30 BEGIN BOND
M  V30 1 1 1 2
M  V30 2 2 2 3
M  V30 3 1 2 4
M  V30 4 1 3 5
M  V30 5 1 3 6
M  V30 6 2 4 7
M  V30 7 1 5 8
M  V30 8 2 5 9
M  V30 9 1 6 10
M  V30 10 1 10 11
M  V30 11 1 10 12
M  V30 12 2 11 13
M  V30 13 2 12 14
M  V30 14 1 14 15
M  V30 15 2 15 16
M  V30 16 1 15 17
M  V30 17 1 7 9
M  V30 18 1 13 14
M  V30 19 1 4 18
M  V30 20 1 6 19
M  V30 21 1 6 20
M  V30 22 1 7 21
M  V30 23 1 9 22
M  V30 24 1 12 23
M  V30 25 1 17 24
M  V30 26 1 17 25
M  V30 END BOND
M  V30 END CTAB
M  END
>  <NO.>
2300

>  <Name>
rufinamide

>  <SMILES>
NC(=O)c1cn(Cc2c(F)cccc2F)nn1

>  <logBB>


>  <Class>
1

>  <MW>
238.07

>  <nHBAcc>
3

>  <nHBDon>
1

>  <SLogP>
0.7

>  <TopoPSA>
73.8

>  <MMFF94 Energy>
4.2764

$$$$
NC(C(=O)N[C@@H]1C(=O)N2C(C(=O)O)=C(CSc3cn[nH]n3)CS[C@H]12)c1ccc(O)cc1
Actelion Java MolfileCreator 2.0

  0  0  0  0  0  0              0 V3000
M  V30 BEGIN CTAB
M  V30 COUNTS 49 52 0 0 0
M  V30 BEGIN ATOM
M  V30 1 S -0.411 0.5755 -0.1644 0
M  V30 2 C 0.815 1.2181 1.0066 0 CFG=1
M  V30 3 C -1.527 0.0093 1.1595 0
M  V30 4 N 1.2885 0.093 1.7787 0
M  V30 5 C 2.288 1.4065 0.5327 0 CFG=1
M  V30 6 C -0.8367 -0.8367 2.2191 0
M  V30 7 C 0.4993 -0.794 2.4381 0
M  V30 8 C 2.6007 0.2215 1.5033 0
M  V30 9 N 2.5995 1.1695 -0.8928 0
M  V30 10 C -1.785 -1.76 2.9611 0
M  V30 11 C 1.1697 -1.7236 3.3869 0
M  V30 12 O 3.5751 -0.414 1.8297 0
M  V30 13 C 2.4823 2.1579 -1.8475 0
M  V30 14 S -2.6998 -0.7973 4.2048 0
M  V30 15 O 1.0886 -2.9378 3.3959 0
M  V30 16 O 1.8865 -1.0437 4.3001 0
M  V30 17 O 2.1326 3.3032 -1.5713 0
M  V30 18 C 2.8124 1.686 -3.2851 0
M  V30 19 C -3.737 -2.0165 4.8814 0
M  V30 20 N 3.6366 0.447 -3.2428 0
M  V30 21 C 1.5532 1.4861 -4.1057 0
M  V30 22 N -3.9057 -3.2315 4.3547 0
M  V30 23 C -4.5276 -1.8841 6.0336 0
M  V30 24 C 1.1679 2.4575 -5.044 0
M  V30 25 C 0.7335 0.3572 -3.9332 0
M  V30 26 N -4.7791 -3.7748 5.2222 0
M  V30 27 N -5.1998 -3.02 6.2529 0
M  V30 28 C 0.0039 2.296 -5.7981 0
M  V30 29 C -0.4325 0.1966 -4.6856 0
M  V30 30 C -0.7859 1.1688 -5.6141 0
M  V30 31 O -1.915 1.0528 -6.3696 0
M  V30 32 H 0.4547 2.0447 1.6307 0
M  V30 33 H -2.3113 -0.5719 0.6636 0
M  V30 34 H -2.0005 0.881 1.6235 0
M  V30 35 H 2.7423 2.3418 0.8846 0
M  V30 36 H 2.8892 0.2584 -1.2461 0
M  V30 37 H -2.4803 -2.2195 2.2495 0
M  V30 38 H -1.273 -2.5785 3.4697 0
M  V30 39 H 2.3443 -1.7415 4.8121 0
M  V30 40 H 3.434 2.4661 -3.7423 0
M  V30 41 H 3.7858 0.1507 -4.2091 0
M  V30 42 H 4.5621 0.7019 -2.8942 0
M  V30 43 H -4.6437 -1.044 6.7038 0
M  V30 44 H 1.7664 3.3543 -5.1896 0
M  V30 45 H 0.9988 -0.4057 -3.2038 0
M  V30 46 H -5.1135 -4.7286 5.1021 0
M  V30 47 H -0.289 3.0519 -6.5211 0
M  V30 48 H -1.0461 -0.6844 -4.5287 0
M  V30 49 H -2.3756 0.2386 -6.1092 0
M  V30 END ATOM
M  V30 BEGIN BOND
M  V30 1 1 1 2
M  V30 2 1 1 3
M  V30 3 1 2 4
M  V30 4 1 2 5
M  V30 5 1 3 6
M  V30 6 1 4 7
M  V30 7 1 4 8
M  V30 8 1 5 9
M  V30 9 1 6 10
M  V30 10 1 7 11
M  V30 11 2 8 12
M  V30 12 1 9 13
M  V30 13 1 10 14
M  V30 14 2 11 15
M  V30 15 1 11 16
M  V30 16 2 13 17
M  V30 17 1 13 18
M  V30 18 1 14 19
M  V30 19 1 18 20
M  V30 20 1 18 21
M  V30 21 2 19 22
M  V30 22 1 19 23
M  V30 23 2 21 24
M  V30 24 1 21 25
M  V30 25 1 22 26
M  V30 26 2 23 27
M  V30 27 1 24 28
M  V30 28 2 25 29
M  V30 29 2 28 30
M  V30 30 1 30 31
M  V30 31 1 5 8
M  V30 32 2 6 7
M  V30 33 1 26 27
M  V30 34 1 29 30
M  V30 35 1 2 32
M  V30 36 1 3 33
M  V30 37 1 3 34
M  V30 38 1 5 35
M  V30 39 1 9 36
M  V30 40 1 10 37
M  V30 41 1 10 38
M  V30 42 1 16 39
M  V30 43 1 18 40
M  V30 44 1 20 41
M  V30 45 1 20 42
M  V30 46 1 23 43
M  V30 47 1 24 44
M  V30 48 1 25 45
M  V30 49 1 26 46
M  V30 50 1 28 47
M  V30 51 1 29 48
M  V30 52 1 31 49
M  V30 END BOND
M  V30 BEGIN COLLECTION
M  V30 MDLV30/STEABS ATOMS=(2 2 5)
M  V30 END COLLECTION
M  V30 END CTAB
M  END
>  <NO.>
2303

>  <Name>
cephatriazine

>  <SMILES>
NC(C(=O)N[C@@H]1C(=O)N2C(C(=O)O)=C(CSc3cn[nH]n3)CS[C@H]12)c1ccc(O)cc1

>  <logBB>


>  <Class>
-1

>  <MW>
462.08

>  <nHBAcc>
9

>  <nHBDon>
5

>  <SLogP>
0.04

>  <TopoPSA>
174.53

>  <MMFF94 Energy>
46.22

$$$$
NC(Cc1c[nH]c2ccc(O)cc12)C(=O)O
Actelion Java MolfileCreator 2.0

  0  0  0  0  0  0              0 V3000
M  V30 BEGIN CTAB
M  V30 COUNTS 28 29 0 0 0
M  V30 BEGIN ATOM
M  V30 1 O -0.7098 -2.4468 -2.6048 0
M  V30 2 C -0.675 -2.756 -1.4223 0
M  V30 3 O -1.6812 -3.474 -0.8836 0
M  V30 4 C 0.4725 -2.482 -0.4453 0 CFG=1
M  V30 5 N 1.5685 -1.745 -1.1313 0
M  V30 6 C -0.0147 -1.7704 0.8281 0
M  V30 7 C -0.6344 -0.4199 0.6034 0
M  V30 8 C 0.04 0.8447 0.5742 0
M  V30 9 C -1.9768 -0.1593 0.4038 0
M  V30 10 C -0.9228 1.8282 0.344 0
M  V30 11 C 1.3872 1.2404 0.7182 0
M  V30 12 N -2.1365 1.1905 0.2446 0
M  V30 13 C -0.6104 3.1902 0.2502 0
M  V30 14 C 1.7057 2.5966 0.6223 0
M  V30 15 C 0.73 3.5575 0.3945 0
M  V30 16 O 2.9968 3.0244 0.7478 0
M  V30 17 H -2.3076 -3.5895 -1.629 0
M  V30 18 H 0.8836 -3.4601 -0.1679 0
M  V30 19 H 1.1981 -0.8283 -1.4017 0
M  V30 20 H 1.7395 -2.2078 -2.0279 0
M  V30 21 H -0.7463 -2.4065 1.344 0
M  V30 22 H 0.8263 -1.6649 1.5259 0
M  V30 23 H -2.8322 -0.8209 0.3645 0
M  V30 24 H 2.1519 0.4914 0.8932 0
M  V30 25 H -3.017 1.6595 0.0829 0
M  V30 26 H -1.3744 3.9395 0.0717 0
M  V30 27 H 1.0129 4.6047 0.3265 0
M  V30 28 H 3.5637 2.2458 0.8751 0
M  V30 END ATOM
M  V30 BEGIN BOND
M  V30 1 2 1 2
M  V30 2 1 2 3
M  V30 3 1 2 4
M  V30 4 1 4 5
M  V30 5 1 4 6
M  V30 6 1 6 7
M  V30 7 1 7 8
M  V30 8 2 7 9
M  V30 9 2 8 10
M  V30 10 1 8 11
M  V30 11 1 9 12
M  V30 12 1 10 13
M  V30 13 2 11 14
M  V30 14 2 13 15
M  V30 15 1 14 16
M  V30 16 1 10 12
M  V30 17 1 14 15
M  V30 18 1 3 17
M  V30 19 1 4 18
M  V30 20 1 5 19
M  V30 21 1 5 20
M  V30 22 1 6 21
M  V30 23 1 6 22
M  V30 24 1 9 23
M  V30 25 1 11 24
M  V30 26 1 12 25
M  V30 27 1 13 26
M  V30 28 1 15 27
M  V30 29 1 16 28
M  V30 END BOND
M  V30 BEGIN COLLECTION
M  V30 MDLV30/STERAC1 ATOMS=(1 4)
M  V30 END COLLECTION
M  V30 END CTAB
M  END
>  <NO.>
2306

>  <Name>
5-hydroxytryptophan

>  <SMILES>
NC(Cc1c[nH]c2ccc(O)cc12)C(=O)O

>  <logBB>


>  <Class>
1

>  <MW>
220.08

>  <nHBAcc>
3

>  <nHBDon>
4

>  <SLogP>
0.83

>  <TopoPSA>
99.34

>  <MMFF94 Energy>
35.426

$$$$
NC(N)=NCC1COC2(CCCCC2)O1
Actelion Java MolfileCreator 2.0

  0  0  0  0  0  0              0 V3000
M  V30 BEGIN CTAB
M  V30 COUNTS 34 35 0 0 0
M  V30 BEGIN ATOM
M  V30 1 O 0.9402 -0.3133 0.0 0
M  V30 2 C 0.0373 -0.6873 1.0531 0
M  V30 3 C 1.0792 1.1094 0.1231 0 CFG=2
M  V30 4 O -0.4809 0.4968 1.689 0
M  V30 5 C -1.1143 -1.497 0.4463 0
M  V30 6 C 0.7987 -1.5117 2.0955 0
M  V30 7 C -0.2243 1.5427 0.747 0
M  V30 8 C 1.4306 1.7764 -1.2061 0
M  V30 9 C -2.0426 -2.0671 1.5169 0
M  V30 10 C -0.1274 -2.0849 3.1664 0
M  V30 11 N 0.2926 1.7353 -2.128 0
M  V30 12 C -1.2713 -2.885 2.5492 0
M  V30 13 C 0.4662 2.1528 -3.3262 0
M  V30 14 N -0.565 2.1207 -4.1849 0
M  V30 15 N 1.5756 2.6552 -3.8956 0
M  V30 16 H 1.9033 1.273 0.8296 0
M  V30 17 H -1.7003 -0.8679 -0.2348 0
M  V30 18 H -0.7093 -2.3135 -0.1653 0
M  V30 19 H 1.5606 -0.8884 2.5801 0
M  V30 20 H 1.3401 -2.3271 1.5989 0
M  V30 21 H -0.1565 2.506 1.2596 0
M  V30 22 H -1.062 1.5693 0.0429 0
M  V30 23 H 1.7092 2.8198 -1.0167 0
M  V30 24 H 2.287 1.2492 -1.6435 0
M  V30 25 H -2.5732 -1.2494 2.0199 0
M  V30 26 H -2.8051 -2.6965 1.0444 0
M  V30 27 H 0.4471 -2.7272 3.8434 0
M  V30 28 H -0.5381 -1.27 3.7751 0
M  V30 29 H -0.8677 -3.7859 2.0708 0
M  V30 30 H -1.9538 -3.2212 3.3379 0
M  V30 31 H -0.4572 2.2328 -5.178 0
M  V30 32 H -1.4319 1.7336 -3.8362 0
M  V30 33 H 2.4346 2.7324 -3.3732 0
M  V30 34 H 1.5568 3.0528 -4.8203 0
M  V30 END ATOM
M  V30 BEGIN BOND
M  V30 1 1 1 2
M  V30 2 1 1 3
M  V30 3 1 2 4
M  V30 4 1 2 5
M  V30 5 1 2 6
M  V30 6 1 3 7
M  V30 7 1 3 8
M  V30 8 1 5 9
M  V30 9 1 6 10
M  V30 10 1 8 11
M  V30 11 1 9 12
M  V30 12 2 11 13
M  V30 13 1 13 14
M  V30 14 1 13 15
M  V30 15 1 4 7
M  V30 16 1 10 12
M  V30 17 1 3 16
M  V30 18 1 5 17
M  V30 19 1 5 18
M  V30 20 1 6 19
M  V30 21 1 6 20
M  V30 22 1 7 21
M  V30 23 1 7 22
M  V30 24 1 8 23
M  V30 25 1 8 24
M  V30 26 1 9 25
M  V30 27 1 9 26
M  V30 28 1 10 27
M  V30 29 1 10 28
M  V30 30 1 12 29
M  V30 31 1 12 30
M  V30 32 1 14 31
M  V30 33 1 14 32
M  V30 34 1 15 33
M  V30 35 1 15 34
M  V30 END BOND
M  V30 BEGIN COLLECTION
M  V30 MDLV30/STERAC1 ATOMS=(1 3)
M  V30 END COLLECTION
M  V30 END CTAB
M  END
>  <NO.>
2307

>  <Name>
disulfiram

>  <SMILES>
NC(N)=NCC1COC2(CCCCC2)O1

>  <logBB>


>  <Class>
-1

>  <MW>
213.15

>  <nHBAcc>
3

>  <nHBDon>
2

>  <SLogP>
0.34

>  <TopoPSA>
82.86

>  <MMFF94 Energy>
-96.867

$$$$
NC(N)=NCCCOc1ccccc1
Actelion Java MolfileCreator 2.0

  0  0  0  0  0  0              0 V3000
M  V30 BEGIN CTAB
M  V30 COUNTS 29 29 0 0 0
M  V30 BEGIN ATOM
M  V30 1 O 0.2308 0.1538 1.1544 0
M  V30 2 C 1.1538 -0.3869 2.0061 0
M  V30 3 C -0.9757 -0.5805 0.9501 0
M  V30 4 C 1.024 -1.5878 2.7049 0
M  V30 5 C 2.3188 0.3695 2.1592 0
M  V30 6 C -1.8618 0.1756 -0.0353 0
M  V30 7 C 2.0522 -2.0253 3.546 0
M  V30 8 C 3.3456 -0.066 2.9985 0
M  V30 9 C -1.1888 0.3461 -1.3962 0
M  V30 10 C 3.2117 -1.2657 3.6925 0
M  V30 11 N -2.1595 0.9399 -2.3135 0
M  V30 12 C -1.7711 1.2175 -3.5027 0
M  V30 13 N -2.6424 1.7627 -4.3662 0
M  V30 14 N -0.5604 1.0388 -4.0601 0
M  V30 15 H -1.5156 -0.6814 1.8992 0
M  V30 16 H -0.7511 -1.5752 0.5464 0
M  V30 17 H 0.1373 -2.2065 2.6204 0
M  V30 18 H 2.4251 1.3077 1.6204 0
M  V30 19 H -2.811 -0.3611 -0.1512 0
M  V30 20 H -2.0982 1.1682 0.368 0
M  V30 21 H 1.9458 -2.9611 4.0888 0
M  V30 22 H 4.2458 0.5321 3.1098 0
M  V30 23 H -0.8669 -0.6325 -1.7715 0
M  V30 24 H -0.3093 0.9927 -1.2936 0
M  V30 25 H 4.0083 -1.6078 4.3477 0
M  V30 26 H -2.4696 1.8332 -5.3536 0
M  V30 27 H -3.5807 1.9212 -4.0243 0
M  V30 28 H 0.1971 0.6497 -3.5192 0
M  V30 29 H -0.332 1.44 -4.9546 0
M  V30 END ATOM
M  V30 BEGIN BOND
M  V30 1 1 1 2
M  V30 2 1 1 3
M  V30 3 2 2 4
M  V30 4 1 2 5
M  V30 5 1 3 6
M  V30 6 1 4 7
M  V30 7 2 5 8
M  V30 8 1 6 9
M  V30 9 2 7 10
M  V30 10 1 9 11
M  V30 11 2 11 12
M  V30 12 1 12 13
M  V30 13 1 12 14
M  V30 14 1 8 10
M  V30 15 1 3 15
M  V30 16 1 3 16
M  V30 17 1 4 17
M  V30 18 1 5 18
M  V30 19 1 6 19
M  V30 20 1 6 20
M  V30 21 1 7 21
M  V30 22 1 8 22
M  V30 23 1 9 23
M  V30 24 1 9 24
M  V30 25 1 10 25
M  V30 26 1 13 26
M  V30 27 1 13 27
M  V30 28 1 14 28
M  V30 29 1 14 29
M  V30 END BOND
M  V30 END CTAB
M  END
>  <NO.>
2308

>  <Name>
guanoxyfen

>  <SMILES>
NC(N)=NCCCOc1ccccc1

>  <logBB>


>  <Class>
1

>  <MW>
193.12

>  <nHBAcc>
2

>  <nHBDon>
2

>  <SLogP>
0.73

>  <TopoPSA>
73.63

>  <MMFF94 Energy>
-111.49

$$$$
NC(N)=NCCN1CCCCCCC1
Actelion Java MolfileCreator 2.0

  0  0  0  0  0  0              0 V3000
M  V30 BEGIN CTAB
M  V30 COUNTS 36 36 0 0 0
M  V30 BEGIN ATOM
M  V30 1 N -1.1556 -0.3851 -2.1581 0
M  V30 2 C -0.8603 -0.8389 -3.3171 0
M  V30 3 C -1.7491 -1.2949 -1.1796 0
M  V30 4 N -0.3032 -0.0141 -4.218 0
M  V30 5 N -1.0308 -2.0773 -3.8127 0
M  V30 6 C -1.9084 -0.5856 0.1848 0
M  V30 7 N -0.6796 -0.0496 0.8235 0
M  V30 8 C -1.0431 0.7433 2.0027 0
M  V30 9 C 0.3274 -1.0931 1.0326 0
M  V30 10 C 0.0305 1.6467 2.6249 0
M  V30 11 C 1.6861 -0.6815 1.6123 0
M  V30 12 C 0.8961 2.4591 1.6615 0
M  V30 13 C 2.4159 0.472 0.917 0
M  V30 14 C 1.6173 1.7187 0.5337 0
M  V30 15 H -1.1526 -2.2066 -1.0647 0
M  V30 16 H -2.7475 -1.5965 -1.5205 0
M  V30 17 H 0.1812 -0.3438 -5.0343 0
M  V30 18 H -0.1252 0.9303 -3.901 0
M  V30 19 H -1.4539 -2.7989 -3.25 0
M  V30 20 H -0.9085 -2.2637 -4.7945 0
M  V30 21 H -2.6033 0.2484 0.0181 0
M  V30 22 H -2.4065 -1.2793 0.8751 0
M  V30 23 H -1.4504 0.0909 2.7863 0
M  V30 24 H -1.8605 1.4212 1.7206 0
M  V30 25 H 0.5608 -1.5569 0.0677 0
M  V30 26 H -0.0872 -1.8869 1.6677 0
M  V30 27 H -0.4877 2.3633 3.278 0
M  V30 28 H 0.6624 1.0858 3.316 0
M  V30 29 H 2.345 -1.5597 1.5553 0
M  V30 30 H 1.6048 -0.4982 2.6855 0
M  V30 31 H 1.6482 2.9905 2.259 0
M  V30 32 H 0.2727 3.2397 1.2064 0
M  V30 33 H 2.8646 0.0779 -0.0043 0
M  V30 34 H 3.2586 0.7736 1.5519 0
M  V30 35 H 2.3178 2.4295 0.0741 0
M  V30 36 H 0.9145 1.4812 -0.2721 0
M  V30 END ATOM
M  V30 BEGIN BOND
M  V30 1 2 1 2
M  V30 2 1 1 3
M  V30 3 1 2 4
M  V30 4 1 2 5
M  V30 5 1 3 6
M  V30 6 1 6 7
M  V30 7 1 7 8
M  V30 8 1 7 9
M  V30 9 1 8 10
M  V30 10 1 9 11
M  V30 11 1 10 12
M  V30 12 1 11 13
M  V30 13 1 12 14
M  V30 14 1 13 14
M  V30 15 1 3 15
M  V30 16 1 3 16
M  V30 17 1 4 17
M  V30 18 1 4 18
M  V30 19 1 5 19
M  V30 20 1 5 20
M  V30 21 1 6 21
M  V30 22 1 6 22
M  V30 23 1 8 23
M  V30 24 1 8 24
M  V30 25 1 9 25
M  V30 26 1 9 26
M  V30 27 1 10 27
M  V30 28 1 10 28
M  V30 29 1 11 29
M  V30 30 1 11 30
M  V30 31 1 12 31
M  V30 32 1 12 32
M  V30 33 1 13 33
M  V30 34 1 13 34
M  V30 35 1 14 35
M  V30 36 1 14 36
M  V30 END BOND
M  V30 END CTAB
M  END
>  <NO.>
2309

>  <Name>
guanethidinesulfate

>  <SMILES>
NC(N)=NCCN1CCCCCCC1

>  <logBB>


>  <Class>
-1

>  <MW>
198.18

>  <nHBAcc>
2

>  <nHBDon>
2

>  <SLogP>
0.53

>  <TopoPSA>
67.64

>  <MMFF94 Energy>
-90.315

$$$$
NC(N)=Nc1nc(-c2ccccc2)cs1
Actelion Java MolfileCreator 2.0

  0  0  0  0  0  0              0 V3000
M  V30 BEGIN CTAB
M  V30 COUNTS 25 26 0 0 0
M  V30 BEGIN ATOM
M  V30 1 S 2.723 0.8003 1.6011 0
M  V30 2 C 2.0866 -0.5418 0.7091 0
M  V30 3 C 1.2787 1.6761 1.3294 0
M  V30 4 N 0.8692 -0.3378 0.2356 0
M  V30 5 N 2.8787 -1.639 0.586 0
M  V30 6 C 0.3969 0.9169 0.5894 0
M  V30 7 C 2.4008 -2.695 0.0164 0
M  V30 8 C -0.9256 1.367 0.1675 0
M  V30 9 N 3.1731 -3.7928 -0.1108 0
M  V30 10 N 1.178 -2.9024 -0.5128 0
M  V30 11 C -1.4919 0.838 -1.0018 0
M  V30 12 C -1.6596 2.3088 0.9033 0
M  V30 13 C -2.7563 1.248 -1.4323 0
M  V30 14 C -2.9254 2.7177 0.4724 0
M  V30 15 C -3.4718 2.1889 -0.6952 0
M  V30 16 H 1.1662 2.6809 1.7086 0
M  V30 17 H 2.9333 -4.543 -0.7369 0
M  V30 18 H 4.1208 -3.7392 0.2372 0
M  V30 19 H 0.5194 -2.1268 -0.4578 0
M  V30 20 H 0.8137 -3.8217 -0.6943 0
M  V30 21 H -0.9438 0.1054 -1.5909 0
M  V30 22 H -1.2684 2.7264 1.8273 0
M  V30 23 H -3.1798 0.8321 -2.3428 0
M  V30 24 H -3.4866 3.4465 1.0521 0
M  V30 25 H -4.4561 2.5073 -1.0289 0
M  V30 END ATOM
M  V30 BEGIN BOND
M  V30 1 1 1 2
M  V30 2 1 1 3
M  V30 3 2 2 4
M  V30 4 1 2 5
M  V30 5 2 3 6
M  V30 6 2 5 7
M  V30 7 1 6 8
M  V30 8 1 7 9
M  V30 9 1 7 10
M  V30 10 2 8 11
M  V30 11 1 8 12
M  V30 12 1 11 13
M  V30 13 2 12 14
M  V30 14 2 13 15
M  V30 15 1 4 6
M  V30 16 1 14 15
M  V30 17 1 3 16
M  V30 18 1 9 17
M  V30 19 1 9 18
M  V30 20 1 10 19
M  V30 21 1 10 20
M  V30 22 1 11 21
M  V30 23 1 12 22
M  V30 24 1 13 23
M  V30 25 1 14 24
M  V30 26 1 15 25
M  V30 END BOND
M  V30 END CTAB
M  END
>  <NO.>
2310

>  <Name>
oxacillin

>  <SMILES>
NC(N)=Nc1nc(-c2ccccc2)cs1

>  <logBB>


>  <Class>
1

>  <MW>
218.06

>  <nHBAcc>
3

>  <nHBDon>
2

>  <SLogP>
1.72

>  <TopoPSA>
77.29

>  <MMFF94 Energy>
-99.614

$$$$
NC/C(=C/F)CCc1ccc(F)cc1
Actelion Java MolfileCreator 2.0

  0  0  0  0  0  0              0 V3000
M  V30 BEGIN CTAB
M  V30 COUNTS 27 27 0 0 0
M  V30 BEGIN ATOM
M  V30 1 F -3.3857 2.5975 -3.6223 0
M  V30 2 C -2.6837 2.0169 -2.6403 0
M  V30 3 C -1.5369 2.6376 -2.1602 0
M  V30 4 C -3.1115 0.8023 -2.1188 0
M  V30 5 C -0.8035 2.0341 -1.1378 0
M  V30 6 C -2.3803 0.1968 -1.0964 0
M  V30 7 C -1.2227 0.8107 -0.5936 0
M  V30 8 C -0.4226 0.1448 0.5002 0
M  V30 9 C 0.5951 -0.85 -0.0685 0
M  V30 10 C 1.4029 -1.53 1.0167 0
M  V30 11 C 1.0887 -2.7691 1.418 0
M  V30 12 C 2.57 -0.7417 1.5527 0
M  V30 13 F 0.0372 -3.4397 0.9108 0
M  V30 14 N 3.2465 -1.369 2.6802 0
M  V30 15 H -1.2216 3.5848 -2.5853 0
M  V30 16 H -4.0083 0.3344 -2.5116 0
M  V30 17 H 0.0949 2.5231 -0.7686 0
M  V30 18 H -2.7158 -0.757 -0.694 0
M  V30 19 H -1.1093 -0.3642 1.1892 0
M  V30 20 H 0.0803 0.9158 1.0971 0
M  V30 21 H 0.0722 -1.6003 -0.6766 0
M  V30 22 H 1.2785 -0.3427 -0.7622 0
M  V30 23 H 1.6047 -3.3644 2.1581 0
M  V30 24 H 3.2976 -0.604 0.7448 0
M  V30 25 H 2.2366 0.2541 1.8639 0
M  V30 26 H 2.6483 -1.3006 3.5028 0
M  V30 27 H 4.0833 -0.8319 2.9038 0
M  V30 END ATOM
M  V30 BEGIN BOND
M  V30 1 1 1 2
M  V30 2 2 2 3
M  V30 3 1 2 4
M  V30 4 1 3 5
M  V30 5 2 4 6
M  V30 6 2 5 7
M  V30 7 1 7 8
M  V30 8 1 8 9
M  V30 9 1 9 10
M  V30 10 2 10 11
M  V30 11 1 10 12
M  V30 12 1 11 13
M  V30 13 1 12 14
M  V30 14 1 6 7
M  V30 15 1 3 15
M  V30 16 1 4 16
M  V30 17 1 5 17
M  V30 18 1 6 18
M  V30 19 1 8 19
M  V30 20 1 8 20
M  V30 21 1 9 21
M  V30 22 1 9 22
M  V30 23 1 11 23
M  V30 24 1 12 24
M  V30 25 1 12 25
M  V30 26 1 14 26
M  V30 27 1 14 27
M  V30 END BOND
M  V30 END CTAB
M  END
>  <NO.>
2311

>  <Name>
mofegiline

>  <SMILES>
NC/C(=C/F)CCc1ccc(F)cc1

>  <logBB>


>  <Class>
1

>  <MW>
197.1

>  <nHBAcc>
1

>  <nHBDon>
1

>  <SLogP>
2.57

>  <TopoPSA>
26.02

>  <MMFF94 Energy>
6.2187

$$$$
NC12CC3CC(CC(C3)C1)C2
Actelion Java MolfileCreator 2.0

  0  0  0  0  0  0              0 V3000
M  V30 BEGIN CTAB
M  V30 COUNTS 28 30 0 0 0
M  V30 BEGIN ATOM
M  V30 1 N 2.1639 -0.3203 -1.6827 0
M  V30 2 C 1.037 -0.1561 -0.7663 0
M  V30 3 C -0.1128 0.6106 -1.4576 0
M  V30 4 C 0.5206 -1.5419 -0.3217 0
M  V30 5 C 1.49 0.6348 0.4803 0
M  V30 6 C -1.2951 0.7791 -0.4861 0
M  V30 7 C -0.6603 -1.379 0.6525 0
M  V30 8 C 0.3117 0.8038 1.4568 0
M  V30 9 C -1.7924 -0.6089 -0.0483 0
M  V30 10 C -0.8255 1.5624 0.7516 0
M  V30 11 C -0.1944 -0.5842 1.8843 0
M  V30 12 H 2.4886 0.5925 -1.9992 0
M  V30 13 H 1.8604 -0.8179 -2.5189 0
M  V30 14 H 0.2305 1.5984 -1.7922 0
M  V30 15 H -0.4486 0.0731 -2.3542 0
M  V30 16 H 1.3223 -2.1122 0.1658 0
M  V30 17 H 0.1993 -2.1301 -1.1915 0
M  V30 18 H 2.3141 0.115 0.9864 0
M  V30 19 H 1.8709 1.6234 0.1915 0
M  V30 20 H -2.1064 1.3233 -0.9822 0
M  V30 21 H -1.0215 -2.3655 0.9637 0
M  V30 22 H 0.6399 1.3655 2.3384 0
M  V30 23 H -2.6484 -0.5031 0.6293 0
M  V30 24 H -2.1449 -1.1727 -0.9206 0
M  V30 25 H -0.4821 2.561 0.455 0
M  V30 26 H -1.6643 1.7067 1.4435 0
M  V30 27 H 0.6029 -1.1303 2.4029 0
M  V30 28 H -1.0223 -0.4777 2.596 0
M  V30 END ATOM
M  V30 BEGIN BOND
M  V30 1 1 1 2
M  V30 2 1 2 3
M  V30 3 1 2 4
M  V30 4 1 2 5
M  V30 5 1 3 6
M  V30 6 1 4 7
M  V30 7 1 5 8
M  V30 8 1 6 9
M  V30 9 1 6 10
M  V30 10 1 7 11
M  V30 11 1 7 9
M  V30 12 1 8 10
M  V30 13 1 8 11
M  V30 14 1 1 12
M  V30 15 1 1 13
M  V30 16 1 3 14
M  V30 17 1 3 15
M  V30 18 1 4 16
M  V30 19 1 4 17
M  V30 20 1 5 18
M  V30 21 1 5 19
M  V30 22 1 6 20
M  V30 23 1 7 21
M  V30 24 1 8 22
M  V30 25 1 9 23
M  V30 26 1 9 24
M  V30 27 1 10 25
M  V30 28 1 10 26
M  V30 29 1 11 27
M  V30 30 1 11 28
M  V30 END BOND
M  V30 END CTAB
M  END
>  <NO.>
2312

>  <Name>
ornidazole

>  <SMILES>
NC12CC3CC(CC(C3)C1)C2

>  <logBB>


>  <Class>
1

>  <MW>
151.14

>  <nHBAcc>
1

>  <nHBDon>
1

>  <SLogP>
1.91

>  <TopoPSA>
26.02

>  <MMFF94 Energy>
16.711

$$$$
N=C1NC(=O)C(c2ccccc2)O1
Actelion Java MolfileCreator 2.0

  0  0  0  0  0  0              0 V3000
M  V30 BEGIN CTAB
M  V30 COUNTS 21 22 0 0 0
M  V30 BEGIN ATOM
M  V30 1 O -0.8736 -1.5888 -2.1454 0
M  V30 2 C -0.8536 -1.6306 -0.9248 0
M  V30 3 N -1.8709 -2.0757 -0.1534 0
M  V30 4 C 0.2802 -1.2305 -0.0023 0 CFG=2
M  V30 5 C -1.5027 -2.0436 1.1256 0
M  V30 6 O -0.2454 -1.5842 1.2914 0
M  V30 7 C 0.6585 0.233 -0.0916 0
M  V30 8 N -2.2342 -2.4084 2.1056 0
M  V30 9 C 0.5271 1.1043 1.0014 0
M  V30 10 C 1.1811 0.7445 -1.2917 0
M  V30 11 C 0.8947 2.4475 0.893 0
M  V30 12 C 1.5471 2.0877 -1.3986 0
M  V30 13 C 1.4029 2.939 -0.3064 0
M  V30 14 H -2.7485 -2.3912 -0.5266 0
M  V30 15 H 1.1529 -1.8646 -0.1918 0
M  V30 16 H -3.1466 -2.7236 1.7734 0
M  V30 17 H 0.1397 0.7479 1.9547 0
M  V30 18 H 1.3021 0.0991 -2.1608 0
M  V30 19 H 0.7857 3.1093 1.7487 0
M  V30 20 H 1.9443 2.4688 -2.336 0
M  V30 21 H 1.6883 3.9844 -0.3891 0
M  V30 END ATOM
M  V30 BEGIN BOND
M  V30 1 2 1 2
M  V30 2 1 2 3
M  V30 3 1 2 4
M  V30 4 1 3 5
M  V30 5 1 4 6
M  V30 6 1 4 7
M  V30 7 2 5 8
M  V30 8 2 7 9
M  V30 9 1 7 10
M  V30 10 1 9 11
M  V30 11 2 10 12
M  V30 12 2 11 13
M  V30 13 1 5 6
M  V30 14 1 12 13
M  V30 15 1 3 14
M  V30 16 1 4 15
M  V30 17 1 8 16
M  V30 18 1 9 17
M  V30 19 1 10 18
M  V30 20 1 11 19
M  V30 21 1 12 20
M  V30 22 1 13 21
M  V30 END BOND
M  V30 BEGIN COLLECTION
M  V30 MDLV30/STERAC1 ATOMS=(1 4)
M  V30 END COLLECTION
M  V30 END CTAB
M  END
>  <NO.>
2313

>  <Name>
pemoline

>  <SMILES>
N=C1NC(=O)C(c2ccccc2)O1

>  <logBB>


>  <Class>
1

>  <MW>
176.06

>  <nHBAcc>
3

>  <nHBDon>
2

>  <SLogP>
0.81

>  <TopoPSA>
62.18

>  <MMFF94 Energy>
-35.079

$$$$
NC1=NC(C(F)(F)F)(C(F)(F)F)NC1(C(F)(F)F)C(F)(F)F
Actelion Java MolfileCreator 2.0

  0  0  0  0  0  0              0 V3000
M  V30 BEGIN CTAB
M  V30 COUNTS 25 25 0 0 0
M  V30 BEGIN ATOM
M  V30 1 F 1.6238 -3.1639 -0.5125 0
M  V30 2 C 1.7657 -1.8414 -0.7253 0
M  V30 3 F 2.4598 -1.6732 -1.8733 0
M  V30 4 F 2.5647 -1.3589 0.2673 0
M  V30 5 C 0.4207 -1.0519 -0.7292 0
M  V30 6 N -0.3212 -1.3044 0.5506 0
M  V30 7 N 0.6227 0.4495 -0.8442 0
M  V30 8 C -0.3417 -1.6853 -1.9326 0
M  V30 9 C -0.6612 -0.1549 1.0408 0
M  V30 10 C -0.2131 1.0605 0.2678 0
M  V30 11 F 0.2921 -1.4691 -3.1081 0
M  V30 12 F -1.5796 -1.141 -2.0544 0
M  V30 13 F -0.5146 -3.0188 -1.8036 0
M  V30 14 N -1.3747 -0.1218 2.196 0
M  V30 15 C 0.5607 1.9869 1.1951 0
M  V30 16 C -1.4342 1.8531 -0.1749 0
M  V30 17 F 1.6773 1.3643 1.6527 0
M  V30 18 F 0.9865 3.099 0.5561 0
M  V30 19 F -0.1446 2.3817 2.2757 0
M  V30 20 F -1.0906 2.9467 -0.8924 0
M  V30 21 F -2.1782 2.2822 0.871 0
M  V30 22 F -2.2534 1.1143 -0.9577 0
M  V30 23 H 1.6112 0.6299 -0.6272 0
M  V30 24 H -1.6991 0.7254 2.6558 0
M  V30 25 H -1.6283 -1.0042 2.6316 0
M  V30 END ATOM
M  V30 BEGIN BOND
M  V30 1 1 1 2
M  V30 2 1 2 3
M  V30 3 1 2 4
M  V30 4 1 2 5
M  V30 5 1 5 6
M  V30 6 1 5 7
M  V30 7 1 5 8
M  V30 8 2 6 9
M  V30 9 1 7 10
M  V30 10 1 8 11
M  V30 11 1 8 12
M  V30 12 1 8 13
M  V30 13 1 9 14
M  V30 14 1 10 15
M  V30 15 1 10 16
M  V30 16 1 15 17
M  V30 17 1 15 18
M  V30 18 1 15 19
M  V30 19 1 16 20
M  V30 20 1 16 21
M  V30 21 1 16 22
M  V30 22 1 9 10
M  V30 23 1 7 23
M  V30 24 1 14 24
M  V30 25 1 14 25
M  V30 END BOND
M  V30 END CTAB
M  END
>  <NO.>
2314

>  <Name>
midaflur

>  <SMILES>
NC1=NC(C(F)(F)F)(C(F)(F)F)NC1(C(F)(F)F)C(F)(F)F

>  <logBB>


>  <Class>
1

>  <MW>
357.01

>  <nHBAcc>
3

>  <nHBDon>
2

>  <SLogP>
2.63

>  <TopoPSA>
50.41

>  <MMFF94 Energy>
197.64

$$$$
NC1CCCC1c1ccccc1
Actelion Java MolfileCreator 2.0

  0  0  0  0  0  0              0 V3000
M  V30 BEGIN CTAB
M  V30 COUNTS 27 28 0 0 0
M  V30 BEGIN ATOM
M  V30 1 N -0.4728 -0.9459 2.8399 0
M  V30 2 C -0.3746 -0.1143 1.6313 0
M  V30 3 C 0.2472 -0.8965 0.4502 0
M  V30 4 C -1.7701 0.2401 1.1101 0
M  V30 5 C 0.9287 0.0371 -0.5419 0
M  V30 6 C -0.9309 -1.7245 -0.0932 0
M  V30 7 C -2.2061 -0.9517 0.2596 0
M  V30 8 C 2.2441 0.452 -0.2679 0
M  V30 9 C 0.3102 0.5251 -1.7018 0
M  V30 10 C 2.9211 1.3176 -1.1291 0
M  V30 11 C 0.9882 1.3917 -2.5639 0
M  V30 12 C 2.2927 1.7868 -2.2786 0
M  V30 13 H -1.0565 -1.7623 2.6624 0
M  V30 14 H -0.9486 -0.4172 3.571 0
M  V30 15 H 0.1908 0.7884 1.8857 0
M  V30 16 H 1.0188 -1.5949 0.8035 0
M  V30 17 H -1.7145 1.1383 0.4829 0
M  V30 18 H -2.489 0.4573 1.9076 0
M  V30 19 H -0.9608 -2.6938 0.4213 0
M  V30 20 H -0.8621 -1.9472 -1.1625 0
M  V30 21 H -2.8933 -1.597 0.8186 0
M  V30 22 H -2.7347 -0.616 -0.6386 0
M  V30 23 H 2.7513 0.0988 0.6285 0
M  V30 24 H -0.7088 0.2473 -1.9557 0
M  V30 25 H 3.9381 1.6245 -0.9001 0
M  V30 26 H 0.4945 1.7595 -3.4597 0
M  V30 27 H 2.8176 2.4604 -2.9503 0
M  V30 END ATOM
M  V30 BEGIN BOND
M  V30 1 1 1 2
M  V30 2 1 2 3
M  V30 3 1 2 4
M  V30 4 1 3 5
M  V30 5 1 3 6
M  V30 6 1 4 7
M  V30 7 2 5 8
M  V30 8 1 5 9
M  V30 9 1 8 10
M  V30 10 2 9 11
M  V30 11 2 10 12
M  V30 12 1 6 7
M  V30 13 1 11 12
M  V30 14 1 1 13
M  V30 15 1 1 14
M  V30 16 1 2 15
M  V30 17 1 3 16
M  V30 18 1 4 17
M  V30 19 1 4 18
M  V30 20 1 6 19
M  V30 21 1 6 20
M  V30 22 1 7 21
M  V30 23 1 7 22
M  V30 24 1 8 23
M  V30 25 1 9 24
M  V30 26 1 10 25
M  V30 27 1 11 26
M  V30 28 1 12 27
M  V30 END BOND
M  V30 END CTAB
M  END
>  <NO.>
2315

>  <Name>
2-phenylcyclopentanamine

>  <SMILES>
NC1CCCC1c1ccccc1

>  <logBB>


>  <Class>
1

>  <MW>
161.12

>  <nHBAcc>
1

>  <nHBDon>
1

>  <SLogP>
2.28

>  <TopoPSA>
26.02

>  <MMFF94 Energy>
41.095

$$$$
NC1[C@@H]2CN(c3nc4c(cc3F)c(=O)c(C(=O)O)cn4-c3ccc(F)cc3F)C[C@H]12
Actelion Java MolfileCreator 2.0

  0  0  0  0  0  0              0 V3000
M  V30 BEGIN CTAB
M  V30 COUNTS 45 49 0 0 0
M  V30 BEGIN ATOM
M  V30 1 F 0.9779 -3.7527 1.141 0
M  V30 2 C 0.9516 -2.411 1.1173 0
M  V30 3 C 0.3146 -1.7061 0.0913 0
M  V30 4 C 1.5781 -1.7327 2.1518 0
M  V30 5 N 0.3252 -0.3468 0.1054 0
M  V30 6 N -0.3239 -2.3139 -0.9583 0
M  V30 7 C 1.5662 -0.3396 2.1493 0
M  V30 8 C 0.9388 0.3415 1.1057 0
M  V30 9 C -1.0879 -1.5255 -1.9181 0
M  V30 10 C -0.5338 -3.75 -1.0875 0
M  V30 11 C 2.2154 0.3991 3.2507 0
M  V30 12 N 0.9192 1.7789 1.1098 0
M  V30 13 C -1.6369 -2.5376 -2.8797 0 CFG=1
M  V30 14 C -1.2956 -3.9026 -2.3709 0 CFG=2
M  V30 15 O 2.8121 -0.2242 4.1206 0
M  V30 16 C 2.1342 1.8773 3.2376 0
M  V30 17 C 0.3012 2.5404 0.0606 0
M  V30 18 C 1.5079 2.4351 2.1891 0
M  V30 19 C -2.7378 -3.5096 -2.5485 0
M  V30 20 C 2.6979 2.7056 4.3202 0
M  V30 21 C -0.5644 3.619 0.334 0
M  V30 22 C 0.548 2.238 -1.2922 0
M  V30 23 N -3.6088 -3.3034 -1.3978 0
M  V30 24 O 3.0308 2.3378 5.431 0
M  V30 25 O 2.8339 4.0033 3.9796 0
M  V30 26 F -0.8586 3.9456 1.603 0
M  V30 27 C -1.1605 4.3626 -0.681 0
M  V30 28 C -0.0466 2.9799 -2.3174 0
M  V30 29 C -0.8945 4.0336 -2.0005 0
M  V30 30 F -1.4628 4.7415 -2.985 0
M  V30 31 H 2.0615 -2.2943 2.9457 0
M  V30 32 H -0.4369 -0.8227 -2.4504 0
M  V30 33 H -1.8985 -0.9686 -1.4346 0
M  V30 34 H -1.1061 -4.155 -0.2458 0
M  V30 35 H 0.4237 -4.2765 -1.1639 0
M  V30 36 H -1.4418 -2.2985 -3.915 0
M  V30 37 H -0.8605 -4.6227 -3.0484 0
M  V30 38 H 1.4377 3.5191 2.121 0
M  V30 39 H -3.2449 -3.9527 -3.4048 0
M  V30 40 H 1.2155 1.4209 -1.5586 0
M  V30 41 H -4.3727 -2.6669 -1.6241 0
M  V30 42 H -4.0452 -4.1771 -1.1047 0
M  V30 43 H 3.2174 4.4072 4.788 0
M  V30 44 H -1.8275 5.1824 -0.4417 0
M  V30 45 H 0.1487 2.739 -3.3579 0
M  V30 END ATOM
M  V30 BEGIN BOND
M  V30 1 1 1 2
M  V30 2 2 2 3
M  V30 3 1 2 4
M  V30 4 1 3 5
M  V30 5 1 3 6
M  V30 6 2 4 7
M  V30 7 2 5 8
M  V30 8 1 6 9
M  V30 9 1 6 10
M  V30 10 1 7 11
M  V30 11 1 8 12
M  V30 12 1 9 13
M  V30 13 1 10 14
M  V30 14 2 11 15
M  V30 15 1 11 16
M  V30 16 1 12 17
M  V30 17 1 12 18
M  V30 18 1 13 19
M  V30 19 1 16 20
M  V30 20 2 17 21
M  V30 21 1 17 22
M  V30 22 1 19 23
M  V30 23 2 20 24
M  V30 24 1 20 25
M  V30 25 1 21 26
M  V30 26 1 21 27
M  V30 27 2 22 28
M  V30 28 2 27 29
M  V30 29 1 29 30
M  V30 30 1 7 8
M  V30 31 1 13 14
M  V30 32 1 14 19
M  V30 33 2 16 18
M  V30 34 1 28 29
M  V30 35 1 4 31
M  V30 36 1 9 32
M  V30 37 1 9 33
M  V30 38 1 10 34
M  V30 39 1 10 35
M  V30 40 1 13 36
M  V30 41 1 14 37
M  V30 42 1 18 38
M  V30 43 1 19 39
M  V30 44 1 22 40
M  V30 45 1 23 41
M  V30 46 1 23 42
M  V30 47 1 25 43
M  V30 48 1 27 44
M  V30 49 1 28 45
M  V30 END BOND
M  V30 BEGIN COLLECTION
M  V30 MDLV30/STEABS ATOMS=(2 13 14)
M  V30 END COLLECTION
M  V30 END CTAB
M  END
>  <NO.>
2317

>  <Name>
trovafloxacin

>  <SMILES>
NC1[C@@H]2CN(c3nc4c(cc3F)c(=O)c(C(=O)O)cn4-c3ccc(F)cc3F)C[C@H]12

>  <logBB>


>  <Class>
1

>  <MW>
416.11

>  <nHBAcc>
5

>  <nHBDon>
2

>  <SLogP>
1.89

>  <TopoPSA>
101.45

>  <MMFF94 Energy>
23.599

$$$$
NCC(O)c1ccc(O)c(O)c1
Actelion Java MolfileCreator 2.0

  0  0  0  0  0  0              0 V3000
M  V30 BEGIN CTAB
M  V30 COUNTS 23 23 0 0 0
M  V30 BEGIN ATOM
M  V30 1 O 1.9433 -0.7769 2.7993 0
M  V30 2 C 1.4742 -0.7728 1.5154 0
M  V30 3 C 2.3053 -1.1984 0.481 0
M  V30 4 C 0.1748 -0.346 1.2431 0
M  V30 5 O 3.5764 -1.6106 0.7669 0
M  V30 6 C 1.8409 -1.2054 -0.8317 0
M  V30 7 C -0.3096 -0.3445 -0.0757 0
M  V30 8 C 0.538 -0.7801 -1.1079 0
M  V30 9 C -1.7089 0.1422 -0.3916 0 CFG=1
M  V30 10 O -2.6162 -0.4449 0.5437 0
M  V30 11 C -1.8354 1.6867 -0.3397 0
M  V30 12 N -1.0228 2.4179 -1.316 0
M  V30 13 H 1.2206 -0.5279 3.3957 0
M  V30 14 H -0.4774 -0.0173 2.048 0
M  V30 15 H 4.0073 -1.8999 -0.0509 0
M  V30 16 H 2.4746 -1.5375 -1.6479 0
M  V30 17 H 0.1885 -0.7928 -2.138 0
M  V30 18 H -2.0063 -0.2175 -1.3843 0
M  V30 19 H -3.515 -0.2128 0.2552 0
M  V30 20 H -2.8863 1.9572 -0.4987 0
M  V30 21 H -1.5919 2.0505 0.666 0
M  V30 22 H -0.0352 2.2502 -1.1127 0
M  V30 23 H -1.1804 2.0457 -2.2509 0
M  V30 END ATOM
M  V30 BEGIN BOND
M  V30 1 1 1 2
M  V30 2 2 2 3
M  V30 3 1 2 4
M  V30 4 1 3 5
M  V30 5 1 3 6
M  V30 6 2 4 7
M  V30 7 2 6 8
M  V30 8 1 7 9
M  V30 9 1 9 10
M  V30 10 1 9 11
M  V30 11 1 11 12
M  V30 12 1 7 8
M  V30 13 1 1 13
M  V30 14 1 4 14
M  V30 15 1 5 15
M  V30 16 1 6 16
M  V30 17 1 8 17
M  V30 18 1 9 18
M  V30 19 1 10 19
M  V30 20 1 11 20
M  V30 21 1 11 21
M  V30 22 1 12 22
M  V30 23 1 12 23
M  V30 END BOND
M  V30 BEGIN COLLECTION
M  V30 MDLV30/STERAC1 ATOMS=(1 9)
M  V30 END COLLECTION
M  V30 END CTAB
M  END
>  <NO.>
2318

>  <Name>
dl-arterenol

>  <SMILES>
NCC(O)c1ccc(O)c(O)c1

>  <logBB>


>  <Class>
-1

>  <MW>
169.07

>  <nHBAcc>
4

>  <nHBDon>
4

>  <SLogP>
0.09

>  <TopoPSA>
86.71

>  <MMFF94 Energy>
51.327

$$$$
NCC(O)c1cccc(O)c1
Actelion Java MolfileCreator 2.0

  0  0  0  0  0  0              0 V3000
M  V30 BEGIN CTAB
M  V30 COUNTS 22 22 0 0 0
M  V30 BEGIN ATOM
M  V30 1 O -3.1107 0.8547 -1.0101 0
M  V30 2 C -1.9765 0.0994 -0.971 0
M  V30 3 C -0.8491 0.6583 -0.3772 0
M  V30 4 C -1.9424 -1.1845 -1.5021 0
M  V30 5 C 0.3496 -0.0683 -0.3075 0
M  V30 6 C -0.7599 -1.9197 -1.4341 0
M  V30 7 C 0.3776 -1.3675 -0.8394 0
M  V30 8 C 1.591 0.5055 0.3471 0 CFG=1
M  V30 9 O 1.6911 1.9155 0.1128 0
M  V30 10 C 1.6675 0.2296 1.8696 0
M  V30 11 N 0.7034 1.0012 2.6722 0
M  V30 12 H -3.8153 0.3362 -1.4323 0
M  V30 13 H -0.9134 1.6629 0.0353 0
M  V30 14 H -2.8182 -1.6267 -1.966 0
M  V30 15 H -0.7227 -2.9267 -1.8424 0
M  V30 16 H 1.2881 -1.9621 -0.793 0
M  V30 17 H 2.4738 0.06 -0.1278 0
M  V30 18 H 1.4157 2.0663 -0.808 0
M  V30 19 H 1.5367 -0.8378 2.0779 0
M  V30 20 H 2.6656 0.5135 2.2224 0
M  V30 21 H 0.7959 1.9775 2.3763 0
M  V30 22 H -0.24 0.736 2.3877 0
M  V30 END ATOM
M  V30 BEGIN BOND
M  V30 1 1 1 2
M  V30 2 2 2 3
M  V30 3 1 2 4
M  V30 4 1 3 5
M  V30 5 2 4 6
M  V30 6 2 5 7
M  V30 7 1 5 8
M  V30 8 1 8 9
M  V30 9 1 8 10
M  V30 10 1 10 11
M  V30 11 1 6 7
M  V30 12 1 1 12
M  V30 13 1 3 13
M  V30 14 1 4 14
M  V30 15 1 6 15
M  V30 16 1 7 16
M  V30 17 1 8 17
M  V30 18 1 9 18
M  V30 19 1 10 19
M  V30 20 1 10 20
M  V30 21 1 11 21
M  V30 22 1 11 22
M  V30 END BOND
M  V30 BEGIN COLLECTION
M  V30 MDLV30/STERAC1 ATOMS=(1 8)
M  V30 END COLLECTION
M  V30 END CTAB
M  END
>  <NO.>
2319

>  <Name>
norfenefrine

>  <SMILES>
NCC(O)c1cccc(O)c1

>  <logBB>


>  <Class>
-1

>  <MW>
153.08

>  <nHBAcc>
3

>  <nHBDon>
3

>  <SLogP>
0.38

>  <TopoPSA>
66.48

>  <MMFF94 Energy>
40.186

$$$$
NCC1CC(=O)N(Cc2ccccc2)C1
Actelion Java MolfileCreator 2.0

  0  0  0  0  0  0              0 V3000
M  V30 BEGIN CTAB
M  V30 COUNTS 31 32 0 0 0
M  V30 BEGIN ATOM
M  V30 1 O 1.4952 -2.5193 1.1803 0
M  V30 2 C 1.4877 -1.3747 0.7589 0
M  V30 3 N 0.5349 -0.4046 1.014 0
M  V30 4 C 2.5599 -0.75 -0.098 0
M  V30 5 C 0.8502 0.8584 0.3987 0
M  V30 6 C -0.6246 -0.6011 1.8616 0
M  V30 7 C 1.8613 0.4851 -0.679 0 CFG=1
M  V30 8 C -1.908 -0.6128 1.0688 0
M  V30 9 C 2.8027 1.6368 -1.0137 0
M  V30 10 C -2.8353 0.4322 1.1844 0
M  V30 11 C -2.1857 -1.6733 0.1935 0
M  V30 12 N 3.7716 1.2455 -2.0297 0
M  V30 13 C -4.0163 0.4149 0.4399 0
M  V30 14 C -3.3664 -1.6885 -0.5496 0
M  V30 15 C -4.2812 -0.6445 -0.4261 0
M  V30 16 H 2.8778 -1.4431 -0.8814 0
M  V30 17 H 3.4095 -0.4886 0.541 0
M  V30 18 H -0.0435 1.3201 -0.0307 0
M  V30 19 H 1.2695 1.5165 1.1674 0
M  V30 20 H -0.5329 -1.5498 2.4032 0
M  V30 21 H -0.6294 0.1972 2.6126 0
M  V30 22 H 1.3118 0.1794 -1.5812 0
M  V30 23 H 3.3436 1.9619 -0.1179 0
M  V30 24 H 2.2265 2.4955 -1.3762 0
M  V30 25 H -2.6448 1.2665 1.8554 0
M  V30 26 H -1.4764 -2.4933 0.0906 0
M  V30 27 H 4.3657 2.0413 -2.2619 0
M  V30 28 H 3.2909 0.9903 -2.8924 0
M  V30 29 H -4.7316 1.2276 0.5365 0
M  V30 30 H -3.5714 -2.5163 -1.2233 0
M  V30 31 H -5.2015 -0.6581 -1.004 0
M  V30 END ATOM
M  V30 BEGIN BOND
M  V30 1 2 1 2
M  V30 2 1 2 3
M  V30 3 1 2 4
M  V30 4 1 3 5
M  V30 5 1 3 6
M  V30 6 1 4 7
M  V30 7 1 6 8
M  V30 8 1 7 9
M  V30 9 2 8 10
M  V30 10 1 8 11
M  V30 11 1 9 12
M  V30 12 1 10 13
M  V30 13 2 11 14
M  V30 14 2 13 15
M  V30 15 1 5 7
M  V30 16 1 14 15
M  V30 17 1 4 16
M  V30 18 1 4 17
M  V30 19 1 5 18
M  V30 20 1 5 19
M  V30 21 1 6 20
M  V30 22 1 6 21
M  V30 23 1 7 22
M  V30 24 1 9 23
M  V30 25 1 9 24
M  V30 26 1 10 25
M  V30 27 1 11 26
M  V30 28 1 12 27
M  V30 29 1 12 28
M  V30 30 1 13 29
M  V30 31 1 14 30
M  V30 32 1 15 31
M  V30 END BOND
M  V30 BEGIN COLLECTION
M  V30 MDLV30/STERAC1 ATOMS=(1 7)
M  V30 END COLLECTION
M  V30 END CTAB
M  END
>  <NO.>
2320

>  <Name>
nebracetam

>  <SMILES>
NCC1CC(=O)N(Cc2ccccc2)C1

>  <logBB>


>  <Class>
1

>  <MW>
204.13

>  <nHBAcc>
2

>  <nHBDon>
1

>  <SLogP>
0.99

>  <TopoPSA>
46.33

>  <MMFF94 Energy>
-3.49

$$$$
NCCC(Oc1ccc(C(F)(F)F)cc1)c1ccccc1
Actelion Java MolfileCreator 2.0

  0  0  0  0  0  0              0 V3000
M  V30 BEGIN CTAB
M  V30 COUNTS 37 38 0 0 0
M  V30 BEGIN ATOM
M  V30 1 F 5.28 -2.9573 -0.3193 0
M  V30 2 C 4.1341 -3.3818 -0.9201 0
M  V30 3 F 3.7991 -4.5493 -0.3027 0
M  V30 4 F 4.4832 -3.7224 -2.1923 0
M  V30 5 C 3.0395 -2.345 -0.8623 0
M  V30 6 C 2.1531 -2.3001 0.2239 0
M  V30 7 C 2.9062 -1.3885 -1.8776 0
M  V30 8 C 1.149 -1.3268 0.2906 0
M  V30 9 C 1.9019 -0.4196 -1.8078 0
M  V30 10 C 1.0258 -0.3762 -0.7209 0
M  V30 11 O 0.087 0.6151 -0.7853 0
M  V30 12 C -0.6104 0.9813 0.4169 0 CFG=2
M  V30 13 C -1.8602 0.1379 0.6251 0
M  V30 14 C -1.0071 2.4643 0.2909 0
M  V30 15 C -2.591 -0.3725 -0.4584 0
M  V30 16 C -2.3189 -0.1183 1.9274 0
M  V30 17 C 0.2227 3.3628 0.1565 0
M  V30 18 C -3.7414 -1.1337 -0.2445 0
M  V30 19 C -3.4702 -0.8789 2.139 0
M  V30 20 N -0.1747 4.7681 0.1326 0
M  V30 21 C -4.1797 -1.3876 1.0533 0
M  V30 22 H 2.2329 -3.0341 1.0252 0
M  V30 23 H 3.5809 -1.3954 -2.7322 0
M  V30 24 H 0.4698 -1.3545 1.1365 0
M  V30 25 H 1.804 0.3112 -2.6074 0
M  V30 26 H 0.0578 0.8866 1.2838 0
M  V30 27 H -1.6476 2.6059 -0.5902 0
M  V30 28 H -1.5927 2.7688 1.1685 0
M  V30 29 H -2.2645 -0.1822 -1.4788 0
M  V30 30 H -1.7828 0.2769 2.7877 0
M  V30 31 H 0.7729 3.1319 -0.7617 0
M  V30 32 H 0.9004 3.2031 1.0018 0
M  V30 33 H -4.2956 -1.5274 -1.0925 0
M  V30 34 H -3.816 -1.0718 3.1513 0
M  V30 35 H 0.6503 5.3488 -0.0136 0
M  V30 36 H -0.784 4.9372 -0.6676 0
M  V30 37 H -5.0764 -1.9792 1.218 0
M  V30 END ATOM
M  V30 BEGIN BOND
M  V30 1 1 1 2
M  V30 2 1 2 3
M  V30 3 1 2 4
M  V30 4 1 2 5
M  V30 5 2 5 6
M  V30 6 1 5 7
M  V30 7 1 6 8
M  V30 8 2 7 9
M  V30 9 2 8 10
M  V30 10 1 10 11
M  V30 11 1 11 12
M  V30 12 1 12 13
M  V30 13 1 12 14
M  V30 14 2 13 15
M  V30 15 1 13 16
M  V30 16 1 14 17
M  V30 17 1 15 18
M  V30 18 2 16 19
M  V30 19 1 17 20
M  V30 20 2 18 21
M  V30 21 1 9 10
M  V30 22 1 19 21
M  V30 23 1 6 22
M  V30 24 1 7 23
M  V30 25 1 8 24
M  V30 26 1 9 25
M  V30 27 1 12 26
M  V30 28 1 14 27
M  V30 29 1 14 28
M  V30 30 1 15 29
M  V30 31 1 16 30
M  V30 32 1 17 31
M  V30 33 1 17 32
M  V30 34 1 18 33
M  V30 35 1 19 34
M  V30 36 1 20 35
M  V30 37 1 20 36
M  V30 38 1 21 37
M  V30 END BOND
M  V30 BEGIN COLLECTION
M  V30 MDLV30/STERAC1 ATOMS=(1 12)
M  V30 END COLLECTION
M  V30 END CTAB
M  END
>  <NO.>
2326

>  <Name>
seproxetine

>  <SMILES>
NCCC(Oc1ccc(C(F)(F)F)cc1)c1ccccc1

>  <logBB>


>  <Class>
1

>  <MW>
295.12

>  <nHBAcc>
2

>  <nHBDon>
1

>  <SLogP>
4.17

>  <TopoPSA>
35.25

>  <MMFF94 Energy>
72.556

$$$$
NCCc1cn2ccccc2n1
Actelion Java MolfileCreator 2.0

  0  0  0  0  0  0              0 V3000
M  V30 BEGIN CTAB
M  V30 COUNTS 23 24 0 0 0
M  V30 BEGIN ATOM
M  V30 1 N 0.7853 -0.157 0.314 0
M  V30 2 C 0.6105 0.112 -0.9625 0
M  V30 3 C -0.3374 0.328 0.9537 0
M  V30 4 N -0.5991 0.761 -1.1825 0
M  V30 5 C 1.4255 -0.1433 -2.1017 0
M  V30 6 C -1.2025 0.8979 0.041 0
M  V30 7 C -0.492 0.2137 2.4359 0
M  V30 8 C -1.0407 1.163 -2.4408 0
M  V30 9 C 1.0065 0.2417 -3.3235 0
M  V30 10 C -0.231 -1.2014 2.9698 0
M  V30 11 C -0.2684 0.9186 -3.5133 0
M  V30 12 N 1.1939 -1.5441 2.974 0
M  V30 13 H 2.3747 -0.6455 -1.9563 0
M  V30 14 H -2.1632 1.378 0.1561 0
M  V30 15 H -1.516 0.4995 2.7078 0
M  V30 16 H 0.1741 0.935 2.9248 0
M  V30 17 H -1.9994 1.6615 -2.4994 0
M  V30 18 H 1.6174 0.055 -4.2015 0
M  V30 19 H -0.779 -1.9373 2.37 0
M  V30 20 H -0.5984 -1.2735 3.999 0
M  V30 21 H -0.565 1.2112 -4.5147 0
M  V30 22 H 1.2964 -2.5548 3.0388 0
M  V30 23 H 1.5665 -1.2873 2.0499 0
M  V30 END ATOM
M  V30 BEGIN BOND
M  V30 1 2 1 2
M  V30 2 1 1 3
M  V30 3 1 2 4
M  V30 4 1 2 5
M  V30 5 2 3 6
M  V30 6 1 3 7
M  V30 7 1 4 8
M  V30 8 2 5 9
M  V30 9 1 7 10
M  V30 10 2 8 11
M  V30 11 1 10 12
M  V30 12 1 4 6
M  V30 13 1 9 11
M  V30 14 1 5 13
M  V30 15 1 6 14
M  V30 16 1 7 15
M  V30 17 1 7 16
M  V30 18 1 8 17
M  V30 19 1 9 18
M  V30 20 1 10 19
M  V30 21 1 10 20
M  V30 22 1 11 21
M  V30 23 1 12 22
M  V30 24 1 12 23
M  V30 END BOND
M  V30 END CTAB
M  END
>  <NO.>
2329

>  <Name>
Jan-47

>  <SMILES>
NCCc1cn2ccccc2n1

>  <logBB>


>  <Class>
-1

>  <MW>
161.1

>  <nHBAcc>
2

>  <nHBDon>
1

>  <SLogP>
0.84

>  <TopoPSA>
43.32

>  <MMFF94 Energy>
34.946

$$$$
NCCc1nccs1
Actelion Java MolfileCreator 2.0

  0  0  0  0  0  0              0 V3000
M  V30 BEGIN CTAB
M  V30 COUNTS 16 16 0 0 0
M  V30 BEGIN ATOM
M  V30 1 S 1.2072 0.8851 -1.7709 0
M  V30 2 C 0.0043 0.0589 -0.858 0
M  V30 3 C -0.0261 1.7086 -2.6281 0
M  V30 4 N -1.2415 0.3663 -1.1559 0
M  V30 5 C 0.3948 -0.9298 0.1969 0
M  V30 6 C -1.2599 1.3059 -2.1672 0
M  V30 7 C 0.2909 -0.3064 1.5909 0
M  V30 8 N 0.6583 -1.264 2.6371 0
M  V30 9 H 0.2024 2.4246 -3.4038 0
M  V30 10 H 1.4117 -1.3032 0.0243 0
M  V30 11 H -0.2738 -1.7971 0.126 0
M  V30 12 H -2.212 1.668 -2.5358 0
M  V30 13 H -0.7292 0.0501 1.7758 0
M  V30 14 H 0.9546 0.5628 1.6645 0
M  V30 15 H 0.5627 -0.8132 3.5473 0
M  V30 16 H -0.0085 -2.0361 2.6387 0
M  V30 END ATOM
M  V30 BEGIN BOND
M  V30 1 1 1 2
M  V30 2 1 1 3
M  V30 3 2 2 4
M  V30 4 1 2 5
M  V30 5 2 3 6
M  V30 6 1 5 7
M  V30 7 1 7 8
M  V30 8 1 4 6
M  V30 9 1 3 9
M  V30 10 1 5 10
M  V30 11 1 5 11
M  V30 12 1 6 12
M  V30 13 1 7 13
M  V30 14 1 7 14
M  V30 15 1 8 15
M  V30 16 1 8 16
M  V30 END BOND
M  V30 END CTAB
M  END
>  <NO.>
2330

>  <Name>
y-g16

>  <SMILES>
NCCc1nccs1

>  <logBB>


>  <Class>
1

>  <MW>
128.04

>  <nHBAcc>
3

>  <nHBDon>
1

>  <SLogP>
0.64

>  <TopoPSA>
38.91

>  <MMFF94 Energy>
13.836

$$$$
NNC(=O)CP(=O)(c1ccccc1)c1ccccc1
Actelion Java MolfileCreator 2.0

  0  0  0  0  0  0              0 V3000
M  V30 BEGIN CTAB
M  V30 COUNTS 34 35 0 0 0
M  V30 BEGIN ATOM
M  V30 1 P 0.7288 0.5668 -0.4048 0
M  V30 2 O 1.9991 0.6148 -1.2259 0
M  V30 3 C -0.5598 1.6111 -1.0853 0
M  V30 4 C 0.0569 -1.0885 -0.2535 0
M  V30 5 C 1.0865 1.1236 1.2727 0
M  V30 6 C -1.4748 2.3106 -0.2859 0
M  V30 7 C -0.6601 1.7264 -2.4803 0
M  V30 8 C -1.1831 -1.3275 0.3555 0
M  V30 9 C 0.8002 -2.1797 -0.7256 0
M  V30 10 C 2.3006 0.4769 1.8665 0
M  V30 11 C -2.4669 3.102 -0.8698 0
M  V30 12 C -1.6509 2.5171 -3.0627 0
M  V30 13 C -1.6638 -2.6305 0.4941 0
M  V30 14 C 0.3195 -3.4812 -0.585 0
M  V30 15 O 3.3504 1.0914 2.0503 0
M  V30 16 N 2.1279 -0.8413 2.2638 0
M  V30 17 C -2.555 3.2041 -2.2566 0
M  V30 18 C -0.9116 -3.7061 0.0264 0
M  V30 19 N 3.207 -1.5232 2.8654 0
M  V30 20 H 1.2601 2.2056 1.2546 0
M  V30 21 H 0.2318 0.943 1.9332 0
M  V30 22 H -1.4317 2.2528 0.7976 0
M  V30 23 H 0.0487 1.1983 -3.1171 0
M  V30 24 H -1.7913 -0.5038 0.721 0
M  V30 25 H 1.7644 -2.0124 -1.2051 0
M  V30 26 H -3.1716 3.6436 -0.2431 0
M  V30 27 H -1.7132 2.5991 -4.145 0
M  V30 28 H -2.6295 -2.809 0.9618 0
M  V30 29 H 0.9053 -4.3191 -0.9553 0
M  V30 30 H 1.2483 -1.3424 2.1448 0
M  V30 31 H -3.3256 3.8226 -2.7099 0
M  V30 32 H -1.2878 -4.7208 0.1319 0
M  V30 33 H 3.8483 -1.8022 2.1149 0
M  V30 34 H 3.754 -0.8191 3.3808 0
M  V30 END ATOM
M  V30 BEGIN BOND
M  V30 1 2 1 2
M  V30 2 1 1 3
M  V30 3 1 1 4
M  V30 4 1 1 5
M  V30 5 2 3 6
M  V30 6 1 3 7
M  V30 7 2 4 8
M  V30 8 1 4 9
M  V30 9 1 5 10
M  V30 10 1 6 11
M  V30 11 2 7 12
M  V30 12 1 8 13
M  V30 13 2 9 14
M  V30 14 2 10 15
M  V30 15 1 10 16
M  V30 16 2 11 17
M  V30 17 2 13 18
M  V30 18 1 16 19
M  V30 19 1 12 17
M  V30 20 1 14 18
M  V30 21 1 5 20
M  V30 22 1 5 21
M  V30 23 1 6 22
M  V30 24 1 7 23
M  V30 25 1 8 24
M  V30 26 1 9 25
M  V30 27 1 11 26
M  V30 28 1 12 27
M  V30 29 1 13 28
M  V30 30 1 14 29
M  V30 31 1 16 30
M  V30 32 1 17 31
M  V30 33 1 18 32
M  V30 34 1 19 33
M  V30 35 1 19 34
M  V30 END BOND
M  V30 END CTAB
M  END
>  <NO.>
2334

>  <Name>
fosenazide

>  <SMILES>
NNC(=O)CP(=O)(c1ccccc1)c1ccccc1

>  <logBB>


>  <Class>
1

>  <MW>
274.09

>  <nHBAcc>
3

>  <nHBDon>
2

>  <SLogP>
0.99

>  <TopoPSA>
72.19

>  <MMFF94 Energy>
88.196

$$$$
NNCC1CCCCC1
Actelion Java MolfileCreator 2.0

  0  0  0  0  0  0              0 V3000
M  V30 BEGIN CTAB
M  V30 COUNTS 25 25 0 0 0
M  V30 BEGIN ATOM
M  V30 1 N 0.0774 -2.6369 0.4649 0
M  V30 2 N 1.406 -2.7628 -0.1001 0
M  V30 3 C -0.6292 -1.5074 -0.1673 0
M  V30 4 C -0.7336 -0.2773 0.7637 0
M  V30 5 C 0.6181 0.3513 1.1418 0
M  V30 6 C -1.6453 0.7991 0.143 0
M  V30 7 C 1.2858 1.0675 -0.0303 0
M  V30 8 C -0.992 1.5356 -1.0258 0
M  V30 9 C 0.3637 2.1192 -0.6402 0
M  V30 10 H -0.4627 -3.4875 0.2682 0
M  V30 11 H 1.9752 -1.9387 0.113 0
M  V30 12 H 1.9094 -3.5389 0.3407 0
M  V30 13 H -1.6501 -1.8493 -0.3838 0
M  V30 14 H -0.1956 -1.2498 -1.1412 0
M  V30 15 H -1.2143 -0.6136 1.6931 0
M  V30 16 H 1.2982 -0.3958 1.5626 0
M  V30 17 H 0.449 1.0828 1.9436 0
M  V30 18 H -2.5917 0.3537 -0.1858 0
M  V30 19 H -1.9028 1.5321 0.9189 0
M  V30 20 H 2.2087 1.5483 0.3135 0
M  V30 21 H 1.5762 0.3428 -0.7992 0
M  V30 22 H -1.6531 2.342 -1.364 0
M  V30 23 H -0.8702 0.8548 -1.876 0
M  V30 24 H 0.2151 2.9322 0.0814 0
M  V30 25 H 0.84 2.5616 -1.5224 0
M  V30 END ATOM
M  V30 BEGIN BOND
M  V30 1 1 1 2
M  V30 2 1 1 3
M  V30 3 1 3 4
M  V30 4 1 4 5
M  V30 5 1 4 6
M  V30 6 1 5 7
M  V30 7 1 6 8
M  V30 8 1 7 9
M  V30 9 1 8 9
M  V30 10 1 1 10
M  V30 11 1 2 11
M  V30 12 1 2 12
M  V30 13 1 3 13
M  V30 14 1 3 14
M  V30 15 1 4 15
M  V30 16 1 5 16
M  V30 17 1 5 17
M  V30 18 1 6 18
M  V30 19 1 6 19
M  V30 20 1 7 20
M  V30 21 1 7 21
M  V30 22 1 8 22
M  V30 23 1 8 23
M  V30 24 1 9 24
M  V30 25 1 9 25
M  V30 END BOND
M  V30 END CTAB
M  END
>  <NO.>
2335

>  <Name>
cimemoxin

>  <SMILES>
NNCC1CCCCC1

>  <logBB>


>  <Class>
1

>  <MW>
128.13

>  <nHBAcc>
2

>  <nHBDon>
2

>  <SLogP>
1.03

>  <TopoPSA>
38.05

>  <MMFF94 Energy>
47.706

$$$$
NS(=O)(=O)Cc1noc2ccccc12
Actelion Java MolfileCreator 2.0

  0  0  0  0  0  0              0 V3000
M  V30 BEGIN CTAB
M  V30 COUNTS 22 23 0 0 0
M  V30 BEGIN ATOM
M  V30 1 S -2.144 1.2365 0.7417 0
M  V30 2 O -1.1838 2.2951 0.5231 0
M  V30 3 O -2.413 0.6996 2.0548 0
M  V30 4 N -3.6125 1.9016 0.2507 0
M  V30 5 C -1.9119 -0.0755 -0.4617 0
M  V30 6 C -0.7184 -0.8998 -0.1578 0
M  V30 7 N -0.8752 -2.1837 0.2004 0
M  V30 8 C 0.6566 -0.5509 -0.2406 0
M  V30 9 O 0.4018 -2.6835 0.3888 0
M  V30 10 C 1.3144 -1.7137 0.1215 0
M  V30 11 C 1.4239 0.5792 -0.5728 0
M  V30 12 C 2.6985 -1.8486 0.1893 0
M  V30 13 C 2.8224 0.4792 -0.5147 0
M  V30 14 C 3.4469 -0.7139 -0.1397 0
M  V30 15 H -3.4819 2.8875 0.013 0
M  V30 16 H -4.3123 1.7585 0.9834 0
M  V30 17 H -2.8238 -0.6821 -0.4483 0
M  V30 18 H -1.8139 0.3967 -1.4443 0
M  V30 19 H 0.9594 1.5188 -0.8594 0
M  V30 20 H 3.1636 -2.7821 0.4815 0
M  V30 21 H 3.4296 1.3484 -0.7612 0
M  V30 22 H 4.5335 -0.7611 -0.101 0
M  V30 END ATOM
M  V30 BEGIN BOND
M  V30 1 2 1 2
M  V30 2 2 1 3
M  V30 3 1 1 4
M  V30 4 1 1 5
M  V30 5 1 5 6
M  V30 6 2 6 7
M  V30 7 1 6 8
M  V30 8 1 7 9
M  V30 9 2 8 10
M  V30 10 1 8 11
M  V30 11 1 10 12
M  V30 12 2 11 13
M  V30 13 2 12 14
M  V30 14 1 9 10
M  V30 15 1 13 14
M  V30 16 1 4 15
M  V30 17 1 4 16
M  V30 18 1 5 17
M  V30 19 1 5 18
M  V30 20 1 11 19
M  V30 21 1 12 20
M  V30 22 1 13 21
M  V30 23 1 14 22
M  V30 END BOND
M  V30 END CTAB
M  END
>  <NO.>
2336

>  <Name>
zonisamide

>  <SMILES>
NS(=O)(=O)Cc1noc2ccccc12

>  <logBB>


>  <Class>
1

>  <MW>
212.03

>  <nHBAcc>
4

>  <nHBDon>
1

>  <SLogP>
0.62

>  <TopoPSA>
86.19

>  <MMFF94 Energy>
-50.221

$$$$
NS(=O)(=O)c1cc(C(=O)O)c(NCc2ccco2)cc1Cl
Actelion Java MolfileCreator 2.0

  0  0  0  0  0  0              0 V3000
M  V30 BEGIN CTAB
M  V30 COUNTS 32 33 0 0 0
M  V30 BEGIN ATOM
M  V30 1 Cl -0.5758 2.964 2.7992 0
M  V30 2 C -0.0976 1.4204 2.1881 0
M  V30 3 C 0.5763 0.4608 2.9365 0
M  V30 4 C -0.4117 1.1522 0.8465 0
M  V30 5 S 0.9874 0.7222 4.6317 0
M  V30 6 C 0.9294 -0.7597 2.3467 0
M  V30 7 C -0.0747 -0.0624 0.2237 0
M  V30 8 O 1.815 -0.3726 5.0859 0
M  V30 9 O -0.1925 1.1298 5.3541 0
M  V30 10 N 2.0242 2.0402 4.5778 0
M  V30 11 C 0.6134 -1.0249 1.0014 0
M  V30 12 N -0.381 -0.2977 -1.1053 0
M  V30 13 C 1.0071 -2.3347 0.3986 0
M  V30 14 C -1.0869 0.6043 -2.0011 0
M  V30 15 O 0.79 -2.7034 -0.7422 0
M  V30 16 O 1.6628 -3.1318 1.2621 0
M  V30 17 C -1.2166 0.1041 -3.4006 0
M  V30 18 O -2.3749 0.4121 -4.0548 0
M  V30 19 C -0.388 -0.6222 -4.2326 0
M  V30 20 C -2.2849 -0.1269 -5.2975 0
M  V30 21 C -1.0821 -0.7733 -5.4568 0
M  V30 22 H -0.937 1.9208 0.2836 0
M  V30 23 H 1.4522 -1.5102 2.9381 0
M  V30 24 H 2.9371 1.7799 4.9527 0
M  V30 25 H 1.5963 2.8385 5.0504 0
M  V30 26 H -0.1708 -1.2295 -1.4728 0
M  V30 27 H -0.5588 1.5646 -2.0449 0
M  V30 28 H -2.0898 0.7947 -1.5995 0
M  V30 29 H 1.8514 -3.9439 0.7459 0
M  V30 30 H 0.5941 -0.9978 -3.9795 0
M  V30 31 H -3.1407 0.032 -5.9388 0
M  V30 32 H -0.7481 -1.2896 -6.3456 0
M  V30 END ATOM
M  V30 BEGIN BOND
M  V30 1 1 1 2
M  V30 2 2 2 3
M  V30 3 1 2 4
M  V30 4 1 3 5
M  V30 5 1 3 6
M  V30 6 2 4 7
M  V30 7 2 5 8
M  V30 8 2 5 9
M  V30 9 1 5 10
M  V30 10 2 6 11
M  V30 11 1 7 12
M  V30 12 1 11 13
M  V30 13 1 12 14
M  V30 14 2 13 15
M  V30 15 1 13 16
M  V30 16 1 14 17
M  V30 17 1 17 18
M  V30 18 2 17 19
M  V30 19 1 18 20
M  V30 20 1 19 21
M  V30 21 1 7 11
M  V30 22 2 20 21
M  V30 23 1 4 22
M  V30 24 1 6 23
M  V30 25 1 10 24
M  V30 26 1 10 25
M  V30 27 1 12 26
M  V30 28 1 14 27
M  V30 29 1 14 28
M  V30 30 1 16 29
M  V30 31 1 19 30
M  V30 32 1 20 31
M  V30 33 1 21 32
M  V30 END BOND
M  V30 END CTAB
M  END
>  <NO.>
2337

>  <Name>
furosemide

>  <SMILES>
NS(=O)(=O)c1cc(C(=O)O)c(NCc2ccco2)cc1Cl

>  <logBB>


>  <Class>
-1

>  <MW>
330.01

>  <nHBAcc>
5

>  <nHBDon>
3

>  <SLogP>
1.89

>  <TopoPSA>
122.63

>  <MMFF94 Energy>
-64.514

$$$$
NS(=O)(=O)c1cc2c(cc1Cl)NC(C(Cl)Cl)NS2(=O)=O
Actelion Java MolfileCreator 2.0

  0  0  0  0  0  0              0 V3000
M  V30 BEGIN CTAB
M  V30 COUNTS 28 29 0 0 0
M  V30 BEGIN ATOM
M  V30 1 Cl 2.1042 -3.3331 0.3504 0
M  V30 2 C 1.3511 -1.7905 0.16 0
M  V30 3 C 2.0017 -0.6587 -0.3315 0
M  V30 4 C 0.0039 -1.6984 0.5528 0
M  V30 5 S 3.6844 -0.7079 -0.861 0
M  V30 6 C 1.3085 0.5533 -0.4267 0
M  V30 7 C -0.7179 -0.501 0.452 0
M  V30 8 O 4.1051 0.6354 -1.1885 0
M  V30 9 O 3.8642 -1.805 -1.7791 0
M  V30 10 N 4.5164 -1.0849 0.5457 0
M  V30 11 C -0.0337 0.6102 -0.0338 0
M  V30 12 N -2.0248 -0.4589 0.8921 0
M  V30 13 S -0.8766 2.1487 -0.114 0
M  V30 14 C -2.9201 0.6733 0.6983 0 CFG=1
M  V30 15 O -1.3722 2.2932 -1.462 0
M  V30 16 O -0.0473 3.1446 0.5236 0
M  V30 17 N -2.1718 1.9023 0.9025 0
M  V30 18 C -3.738 0.5957 -0.6309 0
M  V30 19 Cl -4.6706 -0.9463 -0.6907 0
M  V30 20 Cl -4.9027 1.9476 -0.7643 0
M  V30 21 H -0.4877 -2.5865 0.9484 0
M  V30 22 H 1.7996 1.4519 -0.7999 0
M  V30 23 H 5.1668 -0.3321 0.7762 0
M  V30 24 H 4.964 -1.9983 0.4503 0
M  V30 25 H -2.4831 -1.3396 1.116 0
M  V30 26 H -3.6466 0.6282 1.5214 0
M  V30 27 H -1.9499 2.1301 1.8689 0
M  V30 28 H -3.1048 0.596 -1.5194 0
M  V30 END ATOM
M  V30 BEGIN BOND
M  V30 1 1 1 2
M  V30 2 2 2 3
M  V30 3 1 2 4
M  V30 4 1 3 5
M  V30 5 1 3 6
M  V30 6 2 4 7
M  V30 7 2 5 8
M  V30 8 2 5 9
M  V30 9 1 5 10
M  V30 10 2 6 11
M  V30 11 1 7 12
M  V30 12 1 11 13
M  V30 13 1 12 14
M  V30 14 2 13 15
M  V30 15 2 13 16
M  V30 16 1 13 17
M  V30 17 1 14 18
M  V30 18 1 18 19
M  V30 19 1 18 20
M  V30 20 1 7 11
M  V30 21 1 14 17
M  V30 22 1 4 21
M  V30 23 1 6 22
M  V30 24 1 10 23
M  V30 25 1 10 24
M  V30 26 1 12 25
M  V30 27 1 14 26
M  V30 28 1 17 27
M  V30 29 1 18 28
M  V30 END BOND
M  V30 BEGIN COLLECTION
M  V30 MDLV30/STERAC1 ATOMS=(1 14)
M  V30 END COLLECTION
M  V30 END CTAB
M  END
>  <NO.>
2338

>  <Name>
trichlormethiazide

>  <SMILES>
NS(=O)(=O)c1cc2c(cc1Cl)NC(C(Cl)Cl)NS2(=O)=O

>  <logBB>


>  <Class>
-1

>  <MW>
378.9

>  <nHBAcc>
5

>  <nHBDon>
3

>  <SLogP>
0.82

>  <TopoPSA>
118.36

>  <MMFF94 Energy>
-164.82

$$$$
NS(=O)(=O)c1cc2c(cc1Cl)NC=NS2(=O)=O
Actelion Java MolfileCreator 2.0

  0  0  0  0  0  0              0 V3000
M  V30 BEGIN CTAB
M  V30 COUNTS 23 24 0 0 0
M  V30 BEGIN ATOM
M  V30 1 Cl -1.4668 0.4312 -3.108 0
M  V30 2 C -0.6482 0.2677 -1.5959 0
M  V30 3 C -1.2069 0.6114 -0.3622 0
M  V30 4 C 0.6539 -0.261 -1.6462 0
M  V30 5 S -2.8271 1.3014 -0.2341 0
M  V30 6 C -0.4673 0.4283 0.8126 0
M  V30 7 C 1.4062 -0.4517 -0.4814 0
M  V30 8 O -2.9466 2.4103 -1.1483 0
M  V30 9 O -3.1699 1.4254 1.1641 0
M  V30 10 N -3.8105 0.0686 -0.8066 0
M  V30 11 C 0.8245 -0.1028 0.7318 0
M  V30 12 N 2.6955 -0.9768 -0.5404 0
M  V30 13 S 1.755 -0.3441 2.2189 0
M  V30 14 C 3.4563 -1.1761 0.5731 0
M  V30 15 O 1.0197 -1.3476 2.9635 0
M  V30 16 O 1.9535 0.9858 2.7603 0
M  V30 17 N 3.1952 -0.9564 1.8088 0
M  V30 18 H 1.0782 -0.526 -2.6132 0
M  V30 19 H -0.8799 0.6928 1.7863 0
M  V30 20 H -4.2817 0.3694 -1.6617 0
M  V30 21 H -4.4517 -0.2316 -0.0704 0
M  V30 22 H 3.077 -1.211 -1.4501 0
M  V30 23 H 4.4452 -1.5944 0.3181 0
M  V30 END ATOM
M  V30 BEGIN BOND
M  V30 1 1 1 2
M  V30 2 2 2 3
M  V30 3 1 2 4
M  V30 4 1 3 5
M  V30 5 1 3 6
M  V30 6 2 4 7
M  V30 7 2 5 8
M  V30 8 2 5 9
M  V30 9 1 5 10
M  V30 10 2 6 11
M  V30 11 1 7 12
M  V30 12 1 11 13
M  V30 13 1 12 14
M  V30 14 2 13 15
M  V30 15 2 13 16
M  V30 16 1 13 17
M  V30 17 1 7 11
M  V30 18 2 14 17
M  V30 19 1 4 18
M  V30 20 1 6 19
M  V30 21 1 10 20
M  V30 22 1 10 21
M  V30 23 1 12 22
M  V30 24 1 14 23
M  V30 END BOND
M  V30 END CTAB
M  END
>  <NO.>
2339

>  <Name>
chlorothiazide sodium

>  <SMILES>
NS(=O)(=O)c1cc2c(cc1Cl)NC=NS2(=O)=O

>  <logBB>


>  <Class>
-1

>  <MW>
294.95

>  <nHBAcc>
5

>  <nHBDon>
2

>  <SLogP>
0.13

>  <TopoPSA>
118.69

>  <MMFF94 Energy>
-124.21

$$$$
NS(=O)(=O)c1ccc(C(=O)O)cc1
Actelion Java MolfileCreator 2.0

  0  0  0  0  0  0              0 V3000
M  V30 BEGIN CTAB
M  V30 COUNTS 20 20 0 0 0
M  V30 BEGIN ATOM
M  V30 1 S 0.981 -1.0628 -2.372 0
M  V30 2 O 0.873 -0.1218 -3.4618 0
M  V30 3 O 0.5673 -2.4409 -2.4922 0
M  V30 4 N 2.6052 -1.1019 -1.9514 0
M  V30 5 C 0.2473 -0.3598 -0.9225 0
M  V30 6 C 0.106 1.0274 -0.8236 0
M  V30 7 C -0.226 -1.1999 0.09 0
M  V30 8 C -0.4957 1.5787 0.3104 0
M  V30 9 C -0.8278 -0.6444 1.2228 0
M  V30 10 C -0.9629 0.7465 1.3379 0
M  V30 11 C -1.5942 1.3802 2.5213 0
M  V30 12 O -1.7445 2.5754 2.6937 0
M  V30 13 O -2.007 0.4843 3.4349 0
M  V30 14 H 3.1401 -0.5023 -2.5804 0
M  V30 15 H 2.9334 -2.0677 -1.9275 0
M  V30 16 H 0.4577 1.6816 -1.6187 0
M  V30 17 H -0.1322 -2.2806 0.0058 0
M  V30 18 H -0.6032 2.6595 0.3895 0
M  V30 19 H -1.1911 -1.3038 2.008 0
M  V30 20 H -2.3982 1.0356 4.1451 0
M  V30 END ATOM
M  V30 BEGIN BOND
M  V30 1 2 1 2
M  V30 2 2 1 3
M  V30 3 1 1 4
M  V30 4 1 1 5
M  V30 5 2 5 6
M  V30 6 1 5 7
M  V30 7 1 6 8
M  V30 8 2 7 9
M  V30 9 2 8 10
M  V30 10 1 10 11
M  V30 11 2 11 12
M  V30 12 1 11 13
M  V30 13 1 9 10
M  V30 14 1 4 14
M  V30 15 1 4 15
M  V30 16 1 6 16
M  V30 17 1 7 17
M  V30 18 1 8 18
M  V30 19 1 9 19
M  V30 20 1 13 20
M  V30 END BOND
M  V30 END CTAB
M  END
>  <NO.>
2340

>  <Name>
4-sulfamoylbenzoic acid

>  <SMILES>
NS(=O)(=O)c1ccc(C(=O)O)cc1

>  <logBB>


>  <Class>
1

>  <MW>
201.01

>  <nHBAcc>
3

>  <nHBDon>
2

>  <SLogP>
0.03

>  <TopoPSA>
97.46

>  <MMFF94 Energy>
-62.649

$$$$
NS(=O)(=O)c1ccc(N2C(=O)CC(c3ccccc3)C2=O)c(Cl)c1
Actelion Java MolfileCreator 2.0

  0  0  0  0  0  0              0 V3000
M  V30 BEGIN CTAB
M  V30 COUNTS 37 39 0 0 0
M  V30 BEGIN ATOM
M  V30 1 Cl 2.0658 -0.1651 0.0 0
M  V30 2 C 0.9737 -1.4894 0.2044 0
M  V30 3 C -0.408 -1.3547 -0.0169 0
M  V30 4 C 1.5135 -2.7282 0.555 0
M  V30 5 N -0.985 -0.1151 -0.3486 0
M  V30 6 C -1.2387 -2.4799 0.093 0
M  V30 7 C 0.669 -3.8339 0.6861 0
M  V30 8 C -1.0567 0.9405 0.5264 0
M  V30 9 C -1.5879 0.1423 -1.55 0
M  V30 10 C -0.702 -3.7205 0.4434 0
M  V30 11 S 1.3639 -5.405 1.1063 0
M  V30 12 O -0.7514 0.9435 1.7114 0
M  V30 13 C -1.6109 2.1315 -0.2234 0 CFG=2
M  V30 14 O -1.6912 -0.6061 -2.5111 0
M  V30 15 C -2.1887 1.5169 -1.4969 0
M  V30 16 O 2.7147 -5.4687 0.6021 0
M  V30 17 O 0.3886 -6.4389 0.8533 0
M  V30 18 N 1.4891 -5.2877 2.7747 0
M  V30 19 C -0.5598 3.1998 -0.4504 0
M  V30 20 C -0.59 4.3669 0.3297 0
M  V30 21 C 0.4708 3.0531 -1.3925 0
M  V30 22 C 0.3703 5.3658 0.1601 0
M  V30 23 C 1.4308 4.0537 -1.5596 0
M  V30 24 C 1.379 5.2102 -0.7861 0
M  V30 25 H 2.584 -2.8322 0.7181 0
M  V30 26 H -2.3077 -2.3989 -0.0932 0
M  V30 27 H -1.3563 -4.5867 0.5229 0
M  V30 28 H -2.4398 2.55 0.3616 0
M  V30 29 H -3.2752 1.401 -1.4105 0
M  V30 30 H -1.9643 2.0771 -2.4085 0
M  V30 31 H 2.4686 -5.3421 3.0565 0
M  V30 32 H 0.8963 -5.99 3.2188 0
M  V30 33 H -1.3592 4.5068 1.0872 0
M  V30 34 H 0.5545 2.1597 -2.007 0
M  V30 35 H 0.3348 6.2628 0.7732 0
M  V30 36 H 2.2254 3.9262 -2.2907 0
M  V30 37 H 2.1298 5.9853 -0.9145 0
M  V30 END ATOM
M  V30 BEGIN BOND
M  V30 1 1 1 2
M  V30 2 2 2 3
M  V30 3 1 2 4
M  V30 4 1 3 5
M  V30 5 1 3 6
M  V30 6 2 4 7
M  V30 7 1 5 8
M  V30 8 1 5 9
M  V30 9 2 6 10
M  V30 10 1 7 11
M  V30 11 2 8 12
M  V30 12 1 8 13
M  V30 13 2 9 14
M  V30 14 1 9 15
M  V30 15 2 11 16
M  V30 16 2 11 17
M  V30 17 1 11 18
M  V30 18 1 13 19
M  V30 19 2 19 20
M  V30 20 1 19 21
M  V30 21 1 20 22
M  V30 22 2 21 23
M  V30 23 2 22 24
M  V30 24 1 7 10
M  V30 25 1 13 15
M  V30 26 1 23 24
M  V30 27 1 4 25
M  V30 28 1 6 26
M  V30 29 1 10 27
M  V30 30 1 13 28
M  V30 31 1 15 29
M  V30 32 1 15 30
M  V30 33 1 18 31
M  V30 34 1 18 32
M  V30 35 1 20 33
M  V30 36 1 21 34
M  V30 37 1 22 35
M  V30 38 1 23 36
M  V30 39 1 24 37
M  V30 END BOND
M  V30 BEGIN COLLECTION
M  V30 MDLV30/STERAC1 ATOMS=(1 13)
M  V30 END COLLECTION
M  V30 END CTAB
M  END
>  <NO.>
2341

>  <Name>
suclofenide

>  <SMILES>
NS(=O)(=O)c1ccc(N2C(=O)CC(c3ccccc3)C2=O)c(Cl)c1

>  <logBB>


>  <Class>
1

>  <MW>
364.03

>  <nHBAcc>
4

>  <nHBDon>
1

>  <SLogP>
2.03

>  <TopoPSA>
97.54

>  <MMFF94 Energy>
-49.24

$$$$
NS(=O)(=O)c1ccc(N2CCCCS2(=O)=O)cc1
Actelion Java MolfileCreator 2.0

  0  0  0  0  0  0              0 V3000
M  V30 BEGIN CTAB
M  V30 COUNTS 32 33 0 0 0
M  V30 BEGIN ATOM
M  V30 1 S -1.2441 1.6591 1.4101 0
M  V30 2 O -1.8043 0.6796 2.3164 0
M  V30 3 O -0.1225 2.4906 1.797 0
M  V30 4 N -0.8602 0.8919 -0.0727 0
M  V30 5 C -2.5669 2.7169 0.8532 0
M  V30 6 C -0.0247 -0.2678 0.0749 0
M  V30 7 C -0.4772 1.8258 -1.161 0
M  V30 8 C -2.1378 3.568 -0.3336 0
M  V30 9 C 1.3298 -0.1634 0.4076 0
M  V30 10 C -0.6095 -1.5235 -0.1048 0
M  V30 11 C -1.6675 2.7172 -1.5141 0
M  V30 12 C 2.1053 -1.3168 0.5454 0
M  V30 13 C 0.1604 -2.6803 0.0308 0
M  V30 14 C 1.5186 -2.5699 0.3434 0
M  V30 15 S 2.4917 -4.0334 0.5461 0
M  V30 16 O 1.6205 -5.1572 0.7984 0
M  V30 17 O 3.6369 -3.7358 1.3736 0
M  V30 18 N 3.0942 -4.2612 -1.0055 0
M  V30 19 H -3.4164 2.0756 0.5969 0
M  V30 20 H -2.8531 3.3486 1.6998 0
M  V30 21 H -0.1974 1.2528 -2.0535 0
M  V30 22 H 0.3925 2.4277 -0.8732 0
M  V30 23 H -2.9802 4.1927 -0.6519 0
M  V30 24 H -1.3315 4.2482 -0.0337 0
M  V30 25 H 1.7846 0.809 0.5795 0
M  V30 26 H -1.6681 -1.6029 -0.338 0
M  V30 27 H -2.5007 2.0965 -1.8672 0
M  V30 28 H -1.387 3.3779 -2.3425 0
M  V30 29 H 3.1549 -1.2302 0.8174 0
M  V30 30 H -0.3046 -3.6548 -0.0996 0
M  V30 31 H 2.7508 -5.1468 -1.3785 0
M  V30 32 H 4.1121 -4.1898 -0.9904 0
M  V30 END ATOM
M  V30 BEGIN BOND
M  V30 1 2 1 2
M  V30 2 2 1 3
M  V30 3 1 1 4
M  V30 4 1 1 5
M  V30 5 1 4 6
M  V30 6 1 4 7
M  V30 7 1 5 8
M  V30 8 2 6 9
M  V30 9 1 6 10
M  V30 10 1 7 11
M  V30 11 1 9 12
M  V30 12 2 10 13
M  V30 13 2 12 14
M  V30 14 1 14 15
M  V30 15 2 15 16
M  V30 16 2 15 17
M  V30 17 1 15 18
M  V30 18 1 8 11
M  V30 19 1 13 14
M  V30 20 1 5 19
M  V30 21 1 5 20
M  V30 22 1 7 21
M  V30 23 1 7 22
M  V30 24 1 8 23
M  V30 25 1 8 24
M  V30 26 1 9 25
M  V30 27 1 10 26
M  V30 28 1 11 27
M  V30 29 1 11 28
M  V30 30 1 12 29
M  V30 31 1 13 30
M  V30 32 1 18 31
M  V30 33 1 18 32
M  V30 END BOND
M  V30 END CTAB
M  END
>  <NO.>
2342

>  <Name>
sulthiame(sultiame)

>  <SMILES>
NS(=O)(=O)c1ccc(N2CCCCS2(=O)=O)cc1

>  <logBB>


>  <Class>
1

>  <MW>
290.04

>  <nHBAcc>
4

>  <nHBDon>
1

>  <SLogP>
0.26

>  <TopoPSA>
97.54

>  <MMFF94 Energy>
-92.81

$$$$
N[C@@H](C(=O)NC1C(=O)N2C(C(=O)O)=C(Cl)CCC12)c1ccccc1
Actelion Java MolfileCreator 2.0

  0  0  0  0  0  0              0 V3000
M  V30 BEGIN CTAB
M  V30 COUNTS 40 42 0 0 0
M  V30 BEGIN ATOM
M  V30 1 Cl 4.1333 -2.9974 -1.0523 0
M  V30 2 C 3.0115 -2.1839 -0.0184 0
M  V30 3 C 3.3326 -1.1092 0.7263 0
M  V30 4 C 1.5931 -2.7148 -0.0793 0
M  V30 5 N 2.383 -0.5222 1.4983 0
M  V30 6 C 4.6775 -0.5023 0.6642 0
M  V30 7 C 0.562 -1.6841 0.424 0
M  V30 8 C 2.2043 0.6203 2.1823 0
M  V30 9 C 1.0748 -1.1149 1.7372 0
M  V30 10 O 5.6978 -0.9537 1.1499 0
M  V30 11 O 4.6512 0.6569 -0.0176 0
M  V30 12 O 2.9277 1.5545 2.4305 0
M  V30 13 C 0.6829 0.2671 2.3745 0
M  V30 14 N -0.2579 1.1084 1.5945 0
M  V30 15 C -1.5819 0.7514 1.4403 0
M  V30 16 O -2.0373 -0.28 1.9369 0
M  V30 17 C -2.4191 1.7162 0.56 0 CFG=2
M  V30 18 N -3.7836 1.8247 1.1021 0
M  V30 19 C -2.4306 1.2669 -0.8898 0
M  V30 20 C -2.824 -0.0319 -1.2537 0
M  V30 21 C -2.0579 2.1639 -1.9036 0
M  V30 22 C -2.8265 -0.4265 -2.5925 0
M  V30 23 C -2.0619 1.7666 -3.2419 0
M  V30 24 C -2.4437 0.4717 -3.5854 0
M  V30 25 H 1.5358 -3.6228 0.5338 0
M  V30 26 H 1.3263 -2.9937 -1.1055 0
M  V30 27 H 0.4366 -0.8947 -0.3278 0
M  V30 28 H -0.4121 -2.165 0.5601 0
M  V30 29 H 1.1248 -1.901 2.5058 0
M  V30 30 H 5.5649 0.999 0.0657 0
M  V30 31 H 0.3912 0.209 3.4292 0
M  V30 32 H 0.0707 1.9716 1.1737 0
M  V30 33 H -1.9655 2.7122 0.6312 0
M  V30 34 H -4.3917 2.218 0.3856 0
M  V30 35 H -4.1252 0.8772 1.2765 0
M  V30 36 H -3.1308 -0.7501 -0.4947 0
M  V30 37 H -1.7637 3.1832 -1.6612 0
M  V30 38 H -3.1307 -1.4353 -2.8603 0
M  V30 39 H -1.7699 2.4693 -4.0186 0
M  V30 40 H -2.4478 0.1643 -4.628 0
M  V30 END ATOM
M  V30 BEGIN BOND
M  V30 1 1 1 2
M  V30 2 2 2 3
M  V30 3 1 2 4
M  V30 4 1 3 5
M  V30 5 1 3 6
M  V30 6 1 4 7
M  V30 7 1 5 8
M  V30 8 1 5 9
M  V30 9 2 6 10
M  V30 10 1 6 11
M  V30 11 2 8 12
M  V30 12 1 8 13
M  V30 13 1 13 14
M  V30 14 1 14 15
M  V30 15 2 15 16
M  V30 16 1 15 17
M  V30 17 1 17 18
M  V30 18 1 17 19
M  V30 19 2 19 20
M  V30 20 1 19 21
M  V30 21 1 20 22
M  V30 22 2 21 23
M  V30 23 2 22 24
M  V30 24 1 7 9
M  V30 25 1 9 13
M  V30 26 1 23 24
M  V30 27 1 4 25
M  V30 28 1 4 26
M  V30 29 1 7 27
M  V30 30 1 7 28
M  V30 31 1 9 29
M  V30 32 1 11 30
M  V30 33 1 13 31
M  V30 34 1 14 32
M  V30 35 1 17 33
M  V30 36 1 18 34
M  V30 37 1 18 35
M  V30 38 1 20 36
M  V30 39 1 21 37
M  V30 40 1 22 38
M  V30 41 1 23 39
M  V30 42 1 24 40
M  V30 END BOND
M  V30 BEGIN COLLECTION
M  V30 MDLV30/STEABS ATOMS=(1 17)
M  V30 END COLLECTION
M  V30 END CTAB
M  END
>  <NO.>
2343

>  <Name>
loracarbef

>  <SMILES>
N[C@@H](C(=O)NC1C(=O)N2C(C(=O)O)=C(Cl)CCC12)c1ccccc1

>  <logBB>


>  <Class>
-1

>  <MW>
349.08

>  <nHBAcc>
4

>  <nHBDon>
3

>  <SLogP>
0.71

>  <TopoPSA>
112.73

>  <MMFF94 Energy>
83.377

$$$$
N[C@@H](C(=O)N[C@@H]1C(=O)N2C(C(=O)O)=C(Cl)CS[C@H]12)c1ccccc1
Actelion Java MolfileCreator 2.0

  0  0  0  0  0  0              0 V3000
M  V30 BEGIN CTAB
M  V30 COUNTS 38 40 0 0 0
M  V30 BEGIN ATOM
M  V30 1 Cl -0.1648 -2.062 -5.2022 0
M  V30 2 C 0.1832 -0.9668 -3.8979 0
M  V30 3 C -0.4536 0.2117 -3.7617 0
M  V30 4 C 1.2042 -1.4975 -2.9196 0
M  V30 5 N -0.1546 1.0592 -2.7458 0
M  V30 6 C -1.5455 0.5922 -4.6798 0
M  V30 7 S 1.0602 -0.7483 -1.2555 0
M  V30 8 C -0.7158 2.1308 -2.1584 0
M  V30 9 C 1.0073 0.9516 -1.8911 0 CFG=2
M  V30 10 O -1.416 1.1668 -5.7447 0
M  V30 11 O -2.7422 0.2391 -4.1799 0
M  V30 12 O -1.7061 2.7752 -2.4068 0
M  V30 13 C 0.3605 2.0745 -1.0202 0 CFG=2
M  V30 14 N -0.1534 1.7139 0.3276 0
M  V30 15 C 0.7001 1.6253 1.409 0
M  V30 16 O 1.9084 1.8414 1.2985 0
M  V30 17 C 0.0224 1.2197 2.7447 0 CFG=2
M  V30 18 N 0.6801 1.917 3.8641 0
M  V30 19 C 0.0294 -0.2828 2.9558 0
M  V30 20 C 1.1973 -1.0453 2.7931 0
M  V30 21 C -1.1465 -0.9354 3.3608 0
M  V30 22 C 1.1823 -2.4249 3.0055 0
M  V30 23 C -1.1584 -2.3151 3.5744 0
M  V30 24 C 0.0048 -3.0593 3.394 0
M  V30 25 H 1.0812 -2.5769 -2.7809 0
M  V30 26 H 2.2145 -1.3218 -3.3044 0
M  V30 27 H 1.931 1.2719 -2.3881 0
M  V30 28 H -3.385 0.6015 -4.8242 0
M  V30 29 H 0.9559 2.9954 -0.9794 0
M  V30 30 H -1.1355 1.4964 0.4583 0
M  V30 31 H -1.0143 1.5765 2.7079 0
M  V30 32 H 0.4396 1.4418 4.7324 0
M  V30 33 H 1.689 1.7981 3.7473 0
M  V30 34 H 2.131 -0.5721 2.493 0
M  V30 35 H -2.0651 -0.3732 3.5171 0
M  V30 36 H 2.092 -3.0036 2.8671 0
M  V30 37 H -2.0756 -2.8096 3.8843 0
M  V30 38 H -0.0046 -4.1334 3.5593 0
M  V30 END ATOM
M  V30 BEGIN BOND
M  V30 1 1 1 2
M  V30 2 2 2 3
M  V30 3 1 2 4
M  V30 4 1 3 5
M  V30 5 1 3 6
M  V30 6 1 4 7
M  V30 7 1 5 8
M  V30 8 1 5 9
M  V30 9 2 6 10
M  V30 10 1 6 11
M  V30 11 2 8 12
M  V30 12 1 8 13
M  V30 13 1 13 14
M  V30 14 1 14 15
M  V30 15 2 15 16
M  V30 16 1 15 17
M  V30 17 1 17 18
M  V30 18 1 17 19
M  V30 19 2 19 20
M  V30 20 1 19 21
M  V30 21 1 20 22
M  V30 22 2 21 23
M  V30 23 2 22 24
M  V30 24 1 7 9
M  V30 25 1 9 13
M  V30 26 1 23 24
M  V30 27 1 4 25
M  V30 28 1 4 26
M  V30 29 1 9 27
M  V30 30 1 11 28
M  V30 31 1 13 29
M  V30 32 1 14 30
M  V30 33 1 17 31
M  V30 34 1 18 32
M  V30 35 1 18 33
M  V30 36 1 20 34
M  V30 37 1 21 35
M  V30 38 1 22 36
M  V30 39 1 23 37
M  V30 40 1 24 38
M  V30 END BOND
M  V30 BEGIN COLLECTION
M  V30 MDLV30/STEABS ATOMS=(3 9 13 17)
M  V30 END COLLECTION
M  V30 END CTAB
M  END
>  <NO.>
2344

>  <Name>
cefaclor

>  <SMILES>
N[C@@H](C(=O)N[C@@H]1C(=O)N2C(C(=O)O)=C(Cl)CS[C@H]12)c1ccccc1

>  <logBB>


>  <Class>
-1

>  <MW>
367.04

>  <nHBAcc>
5

>  <nHBDon>
3

>  <SLogP>
0.62

>  <TopoPSA>
112.73

>  <MMFF94 Energy>
72.721

$$$$
N[C@@H](Cc1c[nH]c2ccccc12)C(=O)O
Actelion Java MolfileCreator 2.0

  0  0  0  0  0  0              0 V3000
M  V30 BEGIN CTAB
M  V30 COUNTS 27 28 0 0 0
M  V30 BEGIN ATOM
M  V30 1 O 0.3943 -4.186 1.1044 0
M  V30 2 C -0.6208 -3.5107 1.0179 0
M  V30 3 O -1.8173 -4.1042 0.8277 0
M  V30 4 C -0.7074 -1.9858 1.0463 0 CFG=1
M  V30 5 N 0.293 -1.4547 2.0046 0
M  V30 6 C -0.5065 -1.4834 -0.393 0
M  V30 7 C -0.7076 -0.0055 -0.5435 0
M  V30 8 C 0.3102 1.0009 -0.6032 0
M  V30 9 C -1.9212 0.6459 -0.6517 0
M  V30 10 C -0.3286 2.2341 -0.7341 0
M  V30 11 C 1.7194 0.9781 -0.5515 0
M  V30 12 N -1.681 1.9886 -0.7638 0
M  V30 13 C 0.3688 3.4454 -0.8142 0
M  V30 14 C 2.4327 2.1798 -0.63 0
M  V30 15 C 1.7643 3.3945 -0.7588 0
M  V30 16 H -1.6077 -5.0614 0.8532 0
M  V30 17 H -1.6969 -1.7027 1.424 0
M  V30 18 H 1.2115 -1.8221 1.7504 0
M  V30 19 H 0.3508 -0.4418 1.8871 0
M  V30 20 H 0.493 -1.7613 -0.7524 0
M  V30 21 H -1.2093 -1.9984 -1.0623 0
M  V30 22 H -2.9352 0.2679 -0.6551 0
M  V30 23 H 2.2545 0.0384 -0.4535 0
M  V30 24 H -2.3903 2.7026 -0.8551 0
M  V30 25 H -0.1487 4.3936 -0.9161 0
M  V30 26 H 3.519 2.1625 -0.5907 0
M  V30 27 H 2.3357 4.3181 -0.8187 0
M  V30 END ATOM
M  V30 BEGIN BOND
M  V30 1 2 1 2
M  V30 2 1 2 3
M  V30 3 1 2 4
M  V30 4 1 4 5
M  V30 5 1 4 6
M  V30 6 1 6 7
M  V30 7 1 7 8
M  V30 8 2 7 9
M  V30 9 2 8 10
M  V30 10 1 8 11
M  V30 11 1 9 12
M  V30 12 1 10 13
M  V30 13 2 11 14
M  V30 14 2 13 15
M  V30 15 1 10 12
M  V30 16 1 14 15
M  V30 17 1 3 16
M  V30 18 1 4 17
M  V30 19 1 5 18
M  V30 20 1 5 19
M  V30 21 1 6 20
M  V30 22 1 6 21
M  V30 23 1 9 22
M  V30 24 1 11 23
M  V30 25 1 12 24
M  V30 26 1 13 25
M  V30 27 1 14 26
M  V30 28 1 15 27
M  V30 END BOND
M  V30 BEGIN COLLECTION
M  V30 MDLV30/STEABS ATOMS=(1 4)
M  V30 END COLLECTION
M  V30 END CTAB
M  END
>  <NO.>
2345

>  <Name>
l-tryptophan

>  <SMILES>
N[C@@H](Cc1c[nH]c2ccccc12)C(=O)O

>  <logBB>


>  <Class>
1

>  <MW>
204.09

>  <nHBAcc>
2

>  <nHBDon>
3

>  <SLogP>
1.12

>  <TopoPSA>
79.11

>  <MMFF94 Energy>
48.878

$$$$
N[C@@H]1C[C@H]1c1ccccc1
Actelion Java MolfileCreator 2.0

  0  0  0  0  0  0              0 V3000
M  V30 BEGIN CTAB
M  V30 COUNTS 21 22 0 0 0
M  V30 BEGIN ATOM
M  V30 1 N -1.9689 2.5996 -1.1022 0
M  V30 2 C -0.9518 1.549 -1.1176 0 CFG=1
M  V30 3 C -1.2067 0.2616 -0.3672 0 CFG=1
M  V30 4 C -1.2324 0.2867 -1.8762 0
M  V30 5 C -0.0847 -0.4286 0.3726 0
M  V30 6 C 0.6913 0.2564 1.3229 0
M  V30 7 C 0.2987 -1.7434 0.0584 0
M  V30 8 C 1.7731 -0.3552 1.9623 0
M  V30 9 C 1.3792 -2.3617 0.6935 0
M  V30 10 C 2.1149 -1.6669 1.6486 0
M  V30 11 H -1.844 3.2078 -0.2935 0
M  V30 12 H -1.878 3.1982 -1.9226 0
M  V30 13 H 0.0735 1.9116 -1.1568 0
M  V30 14 H -2.1798 0.173 0.1137 0
M  V30 15 H -0.4107 -0.1575 -2.4253 0
M  V30 16 H -2.1955 0.1777 -2.3615 0
M  V30 17 H 0.4416 1.2848 1.5758 0
M  V30 18 H -0.2609 -2.2989 -0.6912 0
M  V30 19 H 2.348 0.1956 2.7019 0
M  V30 20 H 1.6455 -3.3837 0.4378 0
M  V30 21 H 2.9557 -2.1451 2.1435 0
M  V30 END ATOM
M  V30 BEGIN BOND
M  V30 1 1 1 2
M  V30 2 1 2 3
M  V30 3 1 2 4
M  V30 4 1 3 5
M  V30 5 2 5 6
M  V30 6 1 5 7
M  V30 7 1 6 8
M  V30 8 2 7 9
M  V30 9 2 8 10
M  V30 10 1 3 4
M  V30 11 1 9 10
M  V30 12 1 1 11
M  V30 13 1 1 12
M  V30 14 1 2 13
M  V30 15 1 3 14
M  V30 16 1 4 15
M  V30 17 1 4 16
M  V30 18 1 6 17
M  V30 19 1 7 18
M  V30 20 1 8 19
M  V30 21 1 9 20
M  V30 22 1 10 21
M  V30 END BOND
M  V30 BEGIN COLLECTION
M  V30 MDLV30/STEABS ATOMS=(2 2 3)
M  V30 END COLLECTION
M  V30 END CTAB
M  END
>  <NO.>
2346

>  <Name>
48264-ep2275420a1

>  <SMILES>
N[C@@H]1C[C@H]1c1ccccc1

>  <logBB>


>  <Class>
1

>  <MW>
133.09

>  <nHBAcc>
1

>  <nHBDon>
1

>  <SLogP>
1.5

>  <TopoPSA>
26.02

>  <MMFF94 Energy>
9.6509

$$$$
Nc1c2c(nc3ccccc13)CCCC2
Actelion Java MolfileCreator 2.0

  0  0  0  0  0  0              0 V3000
M  V30 BEGIN CTAB
M  V30 COUNTS 29 31 0 0 0
M  V30 BEGIN ATOM
M  V30 1 N -0.5567 -0.4771 1.5116 0
M  V30 2 C 0.5237 0.2682 1.7698 0
M  V30 3 C -0.9142 -0.6882 0.2249 0
M  V30 4 C 1.321 0.844 0.7592 0
M  V30 5 C 0.8547 0.4791 3.1021 0
M  V30 6 C -0.1883 -0.194 -0.862 0
M  V30 7 C -2.1397 -1.5459 0.0408 0
M  V30 8 C 0.9501 0.5932 -0.5928 0
M  V30 9 C 2.4323 1.633 1.1568 0
M  V30 10 C 1.9535 1.2515 3.4793 0
M  V30 11 C -0.655 -0.4507 -2.2767 0
M  V30 12 C -2.777 -1.3949 -1.3344 0
M  V30 13 N 1.6633 1.1658 -1.6496 0
M  V30 14 C 2.7447 1.833 2.5021 0
M  V30 15 C -1.7121 -1.5466 -2.4081 0
M  V30 16 H 0.2321 0.0284 3.8719 0
M  V30 17 H -2.8809 -1.298 0.8098 0
M  V30 18 H -1.8452 -2.5911 0.1965 0
M  V30 19 H 3.0707 2.1064 0.4181 0
M  V30 20 H 2.181 1.3961 4.5317 0
M  V30 21 H -1.0654 0.4872 -2.672 0
M  V30 22 H 0.1943 -0.7384 -2.907 0
M  V30 23 H -3.2579 -0.4127 -1.4236 0
M  V30 24 H -3.5584 -2.1516 -1.4655 0
M  V30 25 H 1.4084 0.9848 -2.6088 0
M  V30 26 H 2.5427 1.6317 -1.4896 0
M  V30 27 H 3.6015 2.4409 2.7801 0
M  V30 28 H -1.2374 -2.5319 -2.3163 0
M  V30 29 H -2.1663 -1.503 -3.4043 0
M  V30 END ATOM
M  V30 BEGIN BOND
M  V30 1 1 1 2
M  V30 2 2 1 3
M  V30 3 1 2 4
M  V30 4 2 2 5
M  V30 5 1 3 6
M  V30 6 1 3 7
M  V30 7 1 4 8
M  V30 8 2 4 9
M  V30 9 1 5 10
M  V30 10 1 6 11
M  V30 11 1 7 12
M  V30 12 1 8 13
M  V30 13 1 9 14
M  V30 14 1 11 15
M  V30 15 2 6 8
M  V30 16 2 10 14
M  V30 17 1 12 15
M  V30 18 1 5 16
M  V30 19 1 7 17
M  V30 20 1 7 18
M  V30 21 1 9 19
M  V30 22 1 10 20
M  V30 23 1 11 21
M  V30 24 1 11 22
M  V30 25 1 12 23
M  V30 26 1 12 24
M  V30 27 1 13 25
M  V30 28 1 13 26
M  V30 29 1 14 27
M  V30 30 1 15 28
M  V30 31 1 15 29
M  V30 END BOND
M  V30 END CTAB
M  END
>  <NO.>
2347

>  <Name>
tacrine, cognex

>  <SMILES>
Nc1c2c(nc3ccccc13)CCCC2

>  <logBB>


>  <Class>
1

>  <MW>
198.12

>  <nHBAcc>
2

>  <nHBDon>
1

>  <SLogP>
2.7

>  <TopoPSA>
38.91

>  <MMFF94 Energy>
45.201

$$$$
Nc1c2c(nc3ccccc13)CCCC2O
Actelion Java MolfileCreator 2.0

  0  0  0  0  0  0              0 V3000
M  V30 BEGIN CTAB
M  V30 COUNTS 30 32 0 0 0
M  V30 BEGIN ATOM
M  V30 1 O 2.2311 -1.8324 1.1151 0
M  V30 2 C 2.2468 -0.6889 0.2564 0 CFG=2
M  V30 3 C 0.8408 -0.166 0.0582 0
M  V30 4 C 2.9789 -1.0695 -1.0324 0
M  V30 5 C 0.1244 0.4465 1.1086 0
M  V30 6 C 0.2005 -0.3079 -1.1749 0
M  V30 7 C 2.0549 -1.8345 -1.9698 0
M  V30 8 N 0.6906 0.5087 2.3873 0
M  V30 9 C -1.2094 0.889 0.8792 0
M  V30 10 N -1.0521 0.1425 -1.4125 0
M  V30 11 C 0.8795 -0.9468 -2.359 0
M  V30 12 C -1.7371 0.7174 -0.4169 0
M  V30 13 C -2.04 1.4858 1.8635 0
M  V30 14 C -3.0294 1.1478 -0.689 0
M  V30 15 C -3.3369 1.9081 1.568 0
M  V30 16 C -3.8327 1.7411 0.2851 0
M  V30 17 H 1.3477 -1.8834 1.5242 0
M  V30 18 H 2.8515 0.0787 0.7538 0
M  V30 19 H 3.8581 -1.6833 -0.8048 0
M  V30 20 H 3.331 -0.1622 -1.5397 0
M  V30 21 H 1.6952 -2.7482 -1.4805 0
M  V30 22 H 2.5995 -2.1421 -2.8694 0
M  V30 23 H 1.6542 0.2401 2.5431 0
M  V30 24 H 0.2707 1.0856 3.1019 0
M  V30 25 H 1.2279 -0.1443 -3.0209 0
M  V30 26 H 0.1514 -1.5415 -2.9231 0
M  V30 27 H -1.6859 1.6279 2.8796 0
M  V30 28 H -3.4247 1.0113 -1.6933 0
M  V30 29 H -3.9531 2.3634 2.339 0
M  V30 30 H -4.8402 2.0636 0.0368 0
M  V30 END ATOM
M  V30 BEGIN BOND
M  V30 1 1 1 2
M  V30 2 1 2 3
M  V30 3 1 2 4
M  V30 4 2 3 5
M  V30 5 1 3 6
M  V30 6 1 4 7
M  V30 7 1 5 8
M  V30 8 1 5 9
M  V30 9 2 6 10
M  V30 10 1 6 11
M  V30 11 1 9 12
M  V30 12 2 9 13
M  V30 13 2 12 14
M  V30 14 1 13 15
M  V30 15 1 14 16
M  V30 16 1 7 11
M  V30 17 1 10 12
M  V30 18 2 15 16
M  V30 19 1 1 17
M  V30 20 1 2 18
M  V30 21 1 4 19
M  V30 22 1 4 20
M  V30 23 1 7 21
M  V30 24 1 7 22
M  V30 25 1 8 23
M  V30 26 1 8 24
M  V30 27 1 11 25
M  V30 28 1 11 26
M  V30 29 1 13 27
M  V30 30 1 14 28
M  V30 31 1 15 29
M  V30 32 1 16 30
M  V30 END BOND
M  V30 BEGIN COLLECTION
M  V30 MDLV30/STERAC1 ATOMS=(1 2)
M  V30 END COLLECTION
M  V30 END CTAB
M  END
>  <NO.>
2348

>  <Name>
velnacrine

>  <SMILES>
Nc1c2c(nc3ccccc13)CCCC2O

>  <logBB>


>  <Class>
1

>  <MW>
214.11

>  <nHBAcc>
3

>  <nHBDon>
2

>  <SLogP>
2.19

>  <TopoPSA>
59.14

>  <MMFF94 Energy>
47.375

$$$$
Nc1cc(OCC2CC2)c(C(=O)NC2CN3CCC2CC3)cc1Cl
Actelion Java MolfileCreator 2.0

  0  0  0  0  0  0              0 V3000
M  V30 BEGIN CTAB
M  V30 COUNTS 48 51 0 0 0
M  V30 BEGIN ATOM
M  V30 1 Cl 3.3806 3.2194 4.59 0
M  V30 2 C 2.3142 2.1307 3.7708 0
M  V30 3 C 1.2888 1.4744 4.4671 0
M  V30 4 C 2.4998 1.9211 2.4054 0
M  V30 5 N 1.0565 1.6965 5.8186 0
M  V30 6 C 0.4424 0.6163 3.7533 0
M  V30 7 C 1.6563 1.052 1.6938 0
M  V30 8 C 0.6196 0.384 2.3788 0
M  V30 9 C 1.9462 0.9087 0.2275 0
M  V30 10 O -0.1862 -0.4554 1.6525 0
M  V30 11 O 2.9448 1.4341 -0.256 0
M  V30 12 N 1.0518 0.1939 -0.5325 0
M  V30 13 C -1.0552 -1.3404 2.3587 0
M  V30 14 C 1.1926 0.0291 -1.9712 0 CFG=2
M  V30 15 C -1.6139 -2.3114 1.364 0
M  V30 16 C 0.6535 1.2598 -2.7365 0
M  V30 17 C 0.452 -1.2328 -2.4889 0
M  V30 18 C -2.9812 -2.9133 1.5627 0
M  V30 19 C -2.753 -1.9155 0.4601 0
M  V30 20 C 0.921 1.0245 -4.2327 0
M  V30 21 C -0.8724 1.3372 -2.5552 0
M  V30 22 N -0.5123 -0.9184 -3.5736 0
M  V30 23 C 0.2211 -0.2686 -4.683 0
M  V30 24 C -1.5161 0.0325 -3.0485 0
M  V30 25 H 3.3045 2.4421 1.8895 0
M  V30 26 H 0.3752 1.1642 6.34 0
M  V30 27 H 1.7012 2.2916 6.3289 0
M  V30 28 H -0.3659 0.1408 4.2993 0
M  V30 29 H 0.2313 -0.1868 -0.0699 0
M  V30 30 H -0.5009 -1.9036 3.1186 0
M  V30 31 H -1.8611 -0.7672 2.832 0
M  V30 32 H 2.2637 -0.0786 -2.1866 0
M  V30 33 H -0.8398 -2.9455 0.9455 0
M  V30 34 H 1.1288 2.1867 -2.3985 0
M  V30 35 H -0.0744 -1.7511 -1.6773 0
M  V30 36 H 1.1872 -1.9567 -2.8635 0
M  V30 37 H -3.5765 -2.5997 2.4127 0
M  V30 38 H -3.124 -3.9515 1.2834 0
M  V30 39 H -3.1856 -0.9273 0.5687 0
M  V30 40 H -2.7406 -2.2828 -0.5604 0
M  V30 41 H 0.5495 1.8734 -4.819 0
M  V30 42 H 1.9994 0.9505 -4.416 0
M  V30 43 H -1.1285 1.5085 -1.5034 0
M  V30 44 H -1.272 2.1859 -3.1235 0
M  V30 45 H -0.4713 -0.0512 -5.5059 0
M  V30 46 H 0.9583 -0.9674 -5.0975 0
M  V30 47 H -2.079 -0.4369 -2.233 0
M  V30 48 H -2.2582 0.2529 -3.826 0
M  V30 END ATOM
M  V30 BEGIN BOND
M  V30 1 1 1 2
M  V30 2 2 2 3
M  V30 3 1 2 4
M  V30 4 1 3 5
M  V30 5 1 3 6
M  V30 6 2 4 7
M  V30 7 2 6 8
M  V30 8 1 7 9
M  V30 9 1 8 10
M  V30 10 2 9 11
M  V30 11 1 9 12
M  V30 12 1 10 13
M  V30 13 1 12 14
M  V30 14 1 13 15
M  V30 15 1 14 16
M  V30 16 1 14 17
M  V30 17 1 15 18
M  V30 18 1 15 19
M  V30 19 1 16 20
M  V30 20 1 16 21
M  V30 21 1 17 22
M  V30 22 1 20 23
M  V30 23 1 21 24
M  V30 24 1 7 8
M  V30 25 1 18 19
M  V30 26 1 22 23
M  V30 27 1 22 24
M  V30 28 1 4 25
M  V30 29 1 5 26
M  V30 30 1 5 27
M  V30 31 1 6 28
M  V30 32 1 12 29
M  V30 33 1 13 30
M  V30 34 1 13 31
M  V30 35 1 14 32
M  V30 36 1 15 33
M  V30 37 1 16 34
M  V30 38 1 17 35
M  V30 39 1 17 36
M  V30 40 1 18 37
M  V30 41 1 18 38
M  V30 42 1 19 39
M  V30 43 1 19 40
M  V30 44 1 20 41
M  V30 45 1 20 42
M  V30 46 1 21 43
M  V30 47 1 21 44
M  V30 48 1 23 45
M  V30 49 1 23 46
M  V30 50 1 24 47
M  V30 51 1 24 48
M  V30 END BOND
M  V30 BEGIN COLLECTION
M  V30 MDLV30/STERAC1 ATOMS=(1 14)
M  V30 END COLLECTION
M  V30 END CTAB
M  END
>  <NO.>
2349

>  <Name>
pancopride

>  <SMILES>
Nc1cc(OCC2CC2)c(C(=O)NC2CN3CCC2CC3)cc1Cl

>  <logBB>


>  <Class>
1

>  <MW>
349.16

>  <nHBAcc>
4

>  <nHBDon>
2

>  <SLogP>
2.54

>  <TopoPSA>
67.59

>  <MMFF94 Energy>
83.562

$$$$
Nc1ccc(C(=O)O)c(O)c1
Actelion Java MolfileCreator 2.0

  0  0  0  0  0  0              0 V3000
M  V30 BEGIN CTAB
M  V30 COUNTS 18 18 0 0 0
M  V30 BEGIN ATOM
M  V30 1 O -1.0128 2.6507 -1.7145 0
M  V30 2 C -1.2112 1.4494 -1.6381 0
M  V30 3 O -2.1031 0.8278 -2.4269 0
M  V30 4 C -0.5158 0.5482 -0.6938 0
M  V30 5 C 0.4394 1.071 0.1864 0
M  V30 6 C -0.7901 -0.8239 -0.6621 0
M  V30 7 O 0.781 2.3985 0.2295 0
M  V30 8 C 1.1066 0.2357 1.0848 0
M  V30 9 C -0.1171 -1.6544 0.2414 0
M  V30 10 C 0.8286 -1.1323 1.1272 0
M  V30 11 N 1.5046 -1.9618 2.0017 0
M  V30 12 H -2.4764 1.5397 -2.9879 0
M  V30 13 H -1.5228 -1.262 -1.3353 0
M  V30 14 H 0.2532 2.8836 -0.4412 0
M  V30 15 H 1.8471 0.6665 1.7534 0
M  V30 16 H -0.3406 -2.7184 0.2466 0
M  V30 17 H 1.2762 -2.9438 2.0666 0
M  V30 18 H 2.1606 -1.5761 2.6677 0
M  V30 END ATOM
M  V30 BEGIN BOND
M  V30 1 2 1 2
M  V30 2 1 2 3
M  V30 3 1 2 4
M  V30 4 2 4 5
M  V30 5 1 4 6
M  V30 6 1 5 7
M  V30 7 1 5 8
M  V30 8 2 6 9
M  V30 9 2 8 10
M  V30 10 1 10 11
M  V30 11 1 9 10
M  V30 12 1 3 12
M  V30 13 1 6 13
M  V30 14 1 7 14
M  V30 15 1 8 15
M  V30 16 1 9 16
M  V30 17 1 11 17
M  V30 18 1 11 18
M  V30 END BOND
M  V30 END CTAB
M  END
>  <NO.>
2350

>  <Name>
clofazimine

>  <SMILES>
Nc1ccc(C(=O)O)c(O)c1

>  <logBB>


>  <Class>
-1

>  <MW>
153.04

>  <nHBAcc>
3

>  <nHBDon>
3

>  <SLogP>
0.67

>  <TopoPSA>
83.55

>  <MMFF94 Energy>
1.2012

$$$$
Nc1ccc(S(=O)(=O)N2CC3CCC(CC3)C2)cc1
Actelion Java MolfileCreator 2.0

  0  0  0  0  0  0              0 V3000
M  V30 BEGIN CTAB
M  V30 COUNTS 39 41 0 0 0
M  V30 BEGIN ATOM
M  V30 1 S -0.891 0.6479 1.9448 0
M  V30 2 O -2.2419 0.8982 1.9975 0
M  V30 3 O -0.171 0.4234 3.0943 0
M  V30 4 N -0.6392 -0.596 0.9309 0
M  V30 5 C -0.1671 1.9473 1.1404 0
M  V30 6 C -1.3756 -0.576 -0.2653 0
M  V30 7 C 0.6865 -1.0488 0.8269 0
M  V30 8 C 1.1041 2.2405 1.3747 0
M  V30 9 C -0.8884 2.6973 0.3193 0
M  V30 10 C -1.4781 -1.8942 -0.8889 0
M  V30 11 C 0.7799 -2.412 0.307 0
M  V30 12 C 1.6615 3.2715 0.7533 0
M  V30 13 C -0.3189 3.7256 -0.2956 0
M  V30 14 C -0.3777 -2.1386 -1.8084 0
M  V30 15 C -1.5772 -2.976 0.083 0
M  V30 16 C -0.3149 -3.2654 0.7516 0
M  V30 17 C 0.8759 -2.426 -1.1444 0
M  V30 18 C 0.9541 4.0298 -0.0753 0
M  V30 19 N 1.5228 5.0221 -0.7195 0
M  V30 20 H -0.9711 0.1164 -0.9272 0
M  V30 21 H -2.3478 -0.2702 -0.0544 0
M  V30 22 H 1.1104 -1.0631 1.7772 0
M  V30 23 H 1.2483 -0.3923 0.2483 0
M  V30 24 H 1.6645 1.6774 2.034 0
M  V30 25 H -1.8864 2.4915 0.1533 0
M  V30 26 H -2.3508 -1.887 -1.4599 0
M  V30 27 H 1.6726 -2.8094 0.671 0
M  V30 28 H 2.6557 3.4851 0.9298 0
M  V30 29 H -0.883 4.2964 -0.9445 0
M  V30 30 H -0.2581 -1.331 -2.4548 0
M  V30 31 H -0.6222 -2.949 -2.4167 0
M  V30 32 H -2.3116 -2.7599 0.7892 0
M  V30 33 H -1.8978 -3.8396 -0.404 0
M  V30 34 H -0.0646 -4.2599 0.5668 0
M  V30 35 H -0.4345 -3.1903 1.7834 0
M  V30 36 H 1.2029 -3.3674 -1.4501 0
M  V30 37 H 1.6074 -1.7586 -1.4667 0
M  V30 38 H 0.9918 5.621 -1.2492 0
M  V30 39 H 2.4154 5.2947 -0.4952 0
M  V30 END ATOM
M  V30 BEGIN BOND
M  V30 1 2 1 2
M  V30 2 2 1 3
M  V30 3 1 1 4
M  V30 4 1 1 5
M  V30 5 1 4 6
M  V30 6 1 4 7
M  V30 7 2 5 8
M  V30 8 1 5 9
M  V30 9 1 6 10
M  V30 10 1 7 11
M  V30 11 1 8 12
M  V30 12 2 9 13
M  V30 13 1 10 14
M  V30 14 1 10 15
M  V30 15 1 11 16
M  V30 16 1 11 17
M  V30 17 2 12 18
M  V30 18 1 18 19
M  V30 19 1 13 18
M  V30 20 1 14 16
M  V30 21 1 15 17
M  V30 22 1 6 20
M  V30 23 1 6 21
M  V30 24 1 7 22
M  V30 25 1 7 23
M  V30 26 1 8 24
M  V30 27 1 9 25
M  V30 28 1 10 26
M  V30 29 1 11 27
M  V30 30 1 12 28
M  V30 31 1 13 29
M  V30 32 1 14 30
M  V30 33 1 14 31
M  V30 34 1 15 32
M  V30 35 1 15 33
M  V30 36 1 16 34
M  V30 37 1 16 35
M  V30 38 1 17 36
M  V30 39 1 17 37
M  V30 40 1 19 38
M  V30 41 1 19 39
M  V30 END BOND
M  V30 END CTAB
M  END
>  <NO.>
2351

>  <Name>
azabon

>  <SMILES>
Nc1ccc(S(=O)(=O)N2CC3CCC(CC3)C2)cc1

>  <logBB>


>  <Class>
1

>  <MW>
280.12

>  <nHBAcc>
3

>  <nHBDon>
1

>  <SLogP>
2.08

>  <TopoPSA>
63.4

>  <MMFF94 Energy>
-9.0631

$$$$
Nc1cccc(-n2ccccc2=O)c1
Actelion Java MolfileCreator 2.0

  0  0  0  0  0  0              0 V3000
M  V30 BEGIN CTAB
M  V30 COUNTS 24 25 0 0 0
M  V30 BEGIN ATOM
M  V30 1 O 1.6568 2.2095 -0.0788 0
M  V30 2 C 0.4491 2.118 -0.2926 0
M  V30 3 N -0.3411 0.9653 -0.1344 0
M  V30 4 C -0.2672 3.3351 -0.7753 0
M  V30 5 C 0.2834 -0.2356 0.3172 0
M  V30 6 C -1.7047 0.9816 -0.4074 0
M  V30 7 C -1.5802 3.3001 -1.0306 0
M  V30 8 C 0.1611 -1.4172 -0.43 0
M  V30 9 C 0.9927 -0.2542 1.5216 0
M  V30 10 C -2.3257 2.0862 -0.8377 0
M  V30 11 C 0.7525 -2.6065 0.0049 0
M  V30 12 C 1.5629 -1.4421 1.9761 0
M  V30 13 N 0.5856 -3.78 -0.7117 0
M  V30 14 C 1.4314 -2.6123 1.2253 0
M  V30 15 H 0.3323 4.2266 -0.9051 0
M  V30 16 H -2.2533 0.0586 -0.2427 0
M  V30 17 H -2.105 4.182 -1.3827 0
M  V30 18 H -0.3861 -1.4045 -1.368 0
M  V30 19 H 1.1011 0.6515 2.1126 0
M  V30 20 H -3.3915 2.0888 -1.0408 0
M  V30 21 H 2.1087 -1.457 2.9156 0
M  V30 22 H 0.2019 -3.7483 -1.6463 0
M  V30 23 H 1.1027 -4.6067 -0.4441 0
M  V30 24 H 1.8737 -3.531 1.6008 0
M  V30 END ATOM
M  V30 BEGIN BOND
M  V30 1 2 1 2
M  V30 2 1 2 3
M  V30 3 1 2 4
M  V30 4 1 3 5
M  V30 5 1 3 6
M  V30 6 2 4 7
M  V30 7 2 5 8
M  V30 8 1 5 9
M  V30 9 2 6 10
M  V30 10 1 8 11
M  V30 11 2 9 12
M  V30 12 1 11 13
M  V30 13 2 11 14
M  V30 14 1 7 10
M  V30 15 1 12 14
M  V30 16 1 4 15
M  V30 17 1 6 16
M  V30 18 1 7 17
M  V30 19 1 8 18
M  V30 20 1 9 19
M  V30 21 1 10 20
M  V30 22 1 12 21
M  V30 23 1 13 22
M  V30 24 1 13 23
M  V30 25 1 14 24
M  V30 END BOND
M  V30 END CTAB
M  END
>  <NO.>
2352

>  <Name>
amphenidone

>  <SMILES>
Nc1cccc(-n2ccccc2=O)c1

>  <logBB>


>  <Class>
1

>  <MW>
186.08

>  <nHBAcc>
2

>  <nHBDon>
1

>  <SLogP>
1.42

>  <TopoPSA>
48.02

>  <MMFF94 Energy>
30.324

$$$$
Nc1nc(=S)c2[nH]cnc2[nH]1
Actelion Java MolfileCreator 2.0

  0  0  0  0  0  0              0 V3000
M  V30 BEGIN CTAB
M  V30 COUNTS 16 17 0 0 0
M  V30 BEGIN ATOM
M  V30 1 S -3.2004 -0.6394 0.4795 0
M  V30 2 C -1.532 -0.5881 0.3813 0
M  V30 3 N -0.6561 -1.4983 0.943 0
M  V30 4 C -0.9027 0.4752 -0.3387 0
M  V30 5 C 0.6257 -1.3289 0.7825 0
M  V30 6 N -1.3842 1.5559 -1.0269 0
M  V30 7 C 0.4528 0.5801 -0.4597 0
M  V30 8 N 1.2538 -0.3242 0.1009 0
M  V30 9 N 1.4767 -2.2217 1.3338 0
M  V30 10 C -0.2974 2.2379 -1.5152 0
M  V30 11 N 0.8393 1.6593 -1.1807 0
M  V30 12 H -2.3584 1.8005 -1.1491 0
M  V30 13 H 2.2555 -0.2671 0.0248 0
M  V30 14 H 2.4789 -2.1636 1.257 0
M  V30 15 H 1.0749 -2.9919 1.8533 0
M  V30 16 H -0.4003 3.1414 -2.1023 0
M  V30 END ATOM
M  V30 BEGIN BOND
M  V30 1 2 1 2
M  V30 2 1 2 3
M  V30 3 1 2 4
M  V30 4 2 3 5
M  V30 5 1 4 6
M  V30 6 2 4 7
M  V30 7 1 5 8
M  V30 8 1 5 9
M  V30 9 1 6 10
M  V30 10 1 7 11
M  V30 11 1 7 8
M  V30 12 2 10 11
M  V30 13 1 6 12
M  V30 14 1 8 13
M  V30 15 1 9 14
M  V30 16 1 9 15
M  V30 17 1 10 16
M  V30 END BOND
M  V30 END CTAB
M  END
>  <NO.>
2354

>  <Name>
thioguanine

>  <SMILES>
Nc1nc(=S)c2[nH]cnc2[nH]1

>  <logBB>


>  <Class>
-1

>  <MW>
167.03

>  <nHBAcc>
4

>  <nHBDon>
3

>  <SLogP>
0.6

>  <TopoPSA>
83.38

>  <MMFF94 Energy>
-146.01

$$$$
Nc1nc(N)c2nc(-c3ccccc3)c(N)nc2n1
Actelion Java MolfileCreator 2.0

  0  0  0  0  0  0              0 V3000
M  V30 BEGIN CTAB
M  V30 COUNTS 30 32 0 0 0
M  V30 BEGIN ATOM
M  V30 1 N -0.3947 -3.5574 -0.2368 0
M  V30 2 C -0.7795 -4.0723 0.925 0
M  V30 3 C -0.191 -2.2455 -0.2953 0
M  V30 4 N -0.9787 -3.3714 2.0367 0
M  V30 5 N -0.9849 -5.4182 0.9824 0
M  V30 6 N 0.1915 -1.7363 -1.4711 0
M  V30 7 C -0.366 -1.3958 0.8001 0
M  V30 8 C -0.7734 -2.0482 1.9579 0
M  V30 9 C 0.3964 -0.4058 -1.5713 0
M  V30 10 N -0.1637 -0.0477 0.7313 0
M  V30 11 N -0.9434 -1.3425 3.141 0
M  V30 12 N 0.7939 0.0229 -2.825 0
M  V30 13 C 0.2448 0.4444 -0.4643 0
M  V30 14 C 0.4841 1.8986 -0.4884 0
M  V30 15 C -0.4618 2.7865 0.0553 0
M  V30 16 C 1.6604 2.4487 -1.0279 0
M  V30 17 C -0.2523 4.1682 0.0401 0
M  V30 18 C 1.8724 3.8304 -1.0439 0
M  V30 19 C 0.914 4.6892 -0.5126 0
M  V30 20 H -1.2616 -5.8204 1.8606 0
M  V30 21 H -0.8235 -5.9581 0.15 0
M  V30 22 H -1.0342 -0.3364 3.0874 0
M  V30 23 H -1.2607 -1.861 3.9455 0
M  V30 24 H 0.4646 0.9224 -3.1481 0
M  V30 25 H 0.8517 -0.7277 -3.5027 0
M  V30 26 H -1.3772 2.3976 0.4987 0
M  V30 27 H 2.4346 1.798 -1.4321 0
M  V30 28 H -0.9986 4.8345 0.4651 0
M  V30 29 H 2.7905 4.2331 -1.4642 0
M  V30 30 H 1.0803 5.7633 -0.521 0
M  V30 END ATOM
M  V30 BEGIN BOND
M  V30 1 2 1 2
M  V30 2 1 1 3
M  V30 3 1 2 4
M  V30 4 1 2 5
M  V30 5 2 3 6
M  V30 6 1 3 7
M  V30 7 2 4 8
M  V30 8 1 6 9
M  V30 9 2 7 10
M  V30 10 1 8 11
M  V30 11 1 9 12
M  V30 12 2 9 13
M  V30 13 1 13 14
M  V30 14 2 14 15
M  V30 15 1 14 16
M  V30 16 1 15 17
M  V30 17 2 16 18
M  V30 18 2 17 19
M  V30 19 1 7 8
M  V30 20 1 10 13
M  V30 21 1 18 19
M  V30 22 1 5 20
M  V30 23 1 5 21
M  V30 24 1 11 22
M  V30 25 1 11 23
M  V30 26 1 12 24
M  V30 27 1 12 25
M  V30 28 1 15 26
M  V30 29 1 16 27
M  V30 30 1 17 28
M  V30 31 1 18 29
M  V30 32 1 19 30
M  V30 END BOND
M  V30 END CTAB
M  END
>  <NO.>
2355

>  <Name>
triamterene

>  <SMILES>
Nc1nc(N)c2nc(-c3ccccc3)c(N)nc2n1

>  <logBB>


>  <Class>
-1

>  <MW>
253.11

>  <nHBAcc>
7

>  <nHBDon>
3

>  <SLogP>
0.83

>  <TopoPSA>
129.62

>  <MMFF94 Energy>
-11.691

$$$$
Nn1cnc2cc3ccccc3cc2c1=O
Actelion Java MolfileCreator 2.0

  0  0  0  0  0  0              0 V3000
M  V30 BEGIN CTAB
M  V30 COUNTS 25 27 0 0 0
M  V30 BEGIN ATOM
M  V30 1 O 0.803 0.0 3.2149 0
M  V30 2 C 1.2675 0.3667 2.1374 0
M  V30 3 N 2.4961 1.0095 2.0023 0
M  V30 4 C 0.5373 0.1467 0.8734 0
M  V30 5 N 3.2657 1.2616 3.1679 0
M  V30 6 C 2.9902 1.4087 0.7807 0
M  V30 7 C 1.1292 0.5913 -0.3111 0
M  V30 8 C -0.7093 -0.4886 0.8702 0
M  V30 9 N 2.3797 1.233 -0.3443 0
M  V30 10 C 0.4498 0.3899 -1.5146 0
M  V30 11 C -1.3905 -0.6902 -0.3382 0
M  V30 12 C -0.804 -0.2455 -1.5469 0
M  V30 13 C -2.6424 -1.3243 -0.3733 0
M  V30 14 C -1.4882 -0.4487 -2.7557 0
M  V30 15 C -3.3086 -1.5181 -1.5843 0
M  V30 16 C -2.7325 -1.081 -2.7735 0
M  V30 17 H 2.6504 1.7769 3.806 0
M  V30 18 H 3.375 0.3556 3.6349 0
M  V30 19 H 3.9733 1.9051 0.8224 0
M  V30 20 H -1.1437 -0.8233 1.8102 0
M  V30 21 H 0.9129 0.7371 -2.436 0
M  V30 22 H -3.1103 -1.6735 0.5449 0
M  V30 23 H -1.0552 -0.1145 -3.6963 0
M  V30 24 H -4.2777 -2.0105 -1.5981 0
M  V30 25 H -3.2511 -1.2317 -3.7169 0
M  V30 END ATOM
M  V30 BEGIN BOND
M  V30 1 2 1 2
M  V30 2 1 2 3
M  V30 3 1 2 4
M  V30 4 1 3 5
M  V30 5 1 3 6
M  V30 6 1 4 7
M  V30 7 2 4 8
M  V30 8 2 6 9
M  V30 9 2 7 10
M  V30 10 1 8 11
M  V30 11 1 10 12
M  V30 12 2 11 13
M  V30 13 2 12 14
M  V30 14 1 13 15
M  V30 15 1 14 16
M  V30 16 1 7 9
M  V30 17 1 11 12
M  V30 18 2 15 16
M  V30 19 1 5 17
M  V30 20 1 5 18
M  V30 21 1 6 19
M  V30 22 1 8 20
M  V30 23 1 10 21
M  V30 24 1 13 22
M  V30 25 1 14 23
M  V30 26 1 15 24
M  V30 27 1 16 25
M  V30 END BOND
M  V30 END CTAB
M  END
>  <NO.>
2359

>  <Name>
centazolone

>  <SMILES>
Nn1cnc2cc3ccccc3cc2c1=O

>  <logBB>


>  <Class>
1

>  <MW>
211.07

>  <nHBAcc>
3

>  <nHBDon>
1

>  <SLogP>
1.26

>  <TopoPSA>
60.91

>  <MMFF94 Energy>
66.995

$$$$
O=C(/C=C/c1ccc2c(c1)OCO2)N1CCCCC1
Actelion Java MolfileCreator 2.0

  0  0  0  0  0  0              0 V3000
M  V30 BEGIN CTAB
M  V30 COUNTS 36 38 0 0 0
M  V30 BEGIN ATOM
M  V30 1 O 2.9532 -0.2392 0.4784 0
M  V30 2 C 1.9409 0.3077 0.045 0
M  V30 3 N 1.9584 1.5241 -0.6178 0
M  V30 4 C 0.6209 -0.3538 0.2085 0
M  V30 5 C 3.2501 2.1389 -0.9174 0
M  V30 6 C 0.7953 2.3498 -0.9496 0
M  V30 7 C 0.4142 -1.1604 1.261 0
M  V30 8 C 3.3286 2.5462 -2.3875 0
M  V30 9 C 0.8176 2.7465 -2.4229 0
M  V30 10 C -0.8308 -1.9039 1.4957 0
M  V30 11 C 2.1403 3.4187 -2.7899 0
M  V30 12 C -2.0905 -1.3654 1.1915 0
M  V30 13 C -0.7493 -3.1809 2.0958 0
M  V30 14 C -3.2084 -2.1247 1.4719 0
M  V30 15 C -1.9006 -3.9284 2.369 0
M  V30 16 O -4.4966 -1.7557 1.2371 0
M  V30 17 C -3.1163 -3.3712 2.0427 0
M  V30 18 C -5.2035 -2.9159 1.7237 0
M  V30 19 O -4.333 -3.9454 2.2366 0
M  V30 20 H -0.1158 -0.2222 -0.5703 0
M  V30 21 H 3.354 3.0177 -0.2698 0
M  V30 22 H 4.0784 1.4623 -0.6844 0
M  V30 23 H -0.1488 1.8592 -0.7086 0
M  V30 24 H 0.8488 3.2455 -0.3182 0
M  V30 25 H 1.2076 -1.3141 1.9911 0
M  V30 26 H 3.3379 1.6449 -3.013 0
M  V30 27 H 4.2653 3.0818 -2.5766 0
M  V30 28 H 0.6825 1.8523 -3.0438 0
M  V30 29 H -0.0158 3.4233 -2.6402 0
M  V30 30 H 2.2107 4.3884 -2.282 0
M  V30 31 H 2.1712 3.6163 -3.867 0
M  V30 32 H -2.2057 -0.3781 0.7597 0
M  V30 33 H 0.2219 -3.6045 2.3467 0
M  V30 34 H -1.8383 -4.9106 2.8231 0
M  V30 35 H -5.8841 -2.6016 2.5234 0
M  V30 36 H -5.7962 -3.3349 0.9023 0
M  V30 END ATOM
M  V30 BEGIN BOND
M  V30 1 2 1 2
M  V30 2 1 2 3
M  V30 3 1 2 4
M  V30 4 1 3 5
M  V30 5 1 3 6
M  V30 6 2 4 7
M  V30 7 1 5 8
M  V30 8 1 6 9
M  V30 9 1 7 10
M  V30 10 1 8 11
M  V30 11 2 10 12
M  V30 12 1 10 13
M  V30 13 1 12 14
M  V30 14 2 13 15
M  V30 15 1 14 16
M  V30 16 2 14 17
M  V30 17 1 16 18
M  V30 18 1 17 19
M  V30 19 1 9 11
M  V30 20 1 15 17
M  V30 21 1 18 19
M  V30 22 1 4 20
M  V30 23 1 5 21
M  V30 24 1 5 22
M  V30 25 1 6 23
M  V30 26 1 6 24
M  V30 27 1 7 25
M  V30 28 1 8 26
M  V30 29 1 8 27
M  V30 30 1 9 28
M  V30 31 1 9 29
M  V30 32 1 11 30
M  V30 33 1 11 31
M  V30 34 1 12 32
M  V30 35 1 13 33
M  V30 36 1 15 34
M  V30 37 1 18 35
M  V30 38 1 18 36
M  V30 END BOND
M  V30 END CTAB
M  END
>  <NO.>
2360

>  <Name>
ilepcimide

>  <SMILES>
O=C(/C=C/c1ccc2c(c1)OCO2)N1CCCCC1

>  <logBB>


>  <Class>
1

>  <MW>
259.12

>  <nHBAcc>
3

>  <nHBDon>
0

>  <SLogP>
2.44

>  <TopoPSA>
38.77

>  <MMFF94 Energy>
-1.1392

$$$$
O=C(CC1c2ccccc2C(=O)N1c1ccc2ccc(Cl)nc2n1)N1CCC2(CC1)OCCO2
Actelion Java MolfileCreator 2.0

  0  0  0  0  0  0              0 V3000
M  V30 BEGIN CTAB
M  V30 COUNTS 57 62 0 0 0
M  V30 BEGIN ATOM
M  V30 1 Cl 6.2782 -0.895 -1.6278 0
M  V30 2 C 5.2446 -0.12 -0.4991 0
M  V30 3 N 4.0853 0.326 -1.0186 0
M  V30 4 C 5.6162 0.0022 0.8242 0
M  V30 5 C 3.2292 0.9407 -0.2074 0
M  V30 6 C 4.7235 0.6309 1.6766 0
M  V30 7 N 2.086 1.3768 -0.7338 0
M  V30 8 C 3.5102 1.1068 1.1611 0
M  V30 9 C 1.1695 1.9996 0.0422 0
M  V30 10 C 2.5626 1.7373 1.9687 0
M  V30 11 N -0.0124 2.4279 -0.5915 0
M  V30 12 C 1.3758 2.1841 1.4012 0
M  V30 13 C -0.9033 3.3797 -0.104 0
M  V30 14 C -0.3255 2.0291 -1.9668 0 CFG=2
M  V30 15 O -0.9371 3.9521 0.9705 0
M  V30 16 C -1.856 3.6637 -1.1824 0
M  V30 17 C -1.5176 2.8902 -2.2891 0
M  V30 18 C -0.5664 0.5278 -2.1861 0
M  V30 19 C -2.9133 4.5555 -1.1873 0
M  V30 20 C -2.2483 2.9999 -3.4614 0
M  V30 21 C -1.5998 -0.0484 -1.2348 0
M  V30 22 C -3.657 4.6644 -2.3624 0
M  V30 23 C -3.3257 3.8929 -3.4905 0
M  V30 24 O -2.7888 0.2324 -1.4159 0
M  V30 25 N -1.2082 -0.8652 -0.1852 0
M  V30 26 C 0.132 -1.3921 0.0782 0
M  V30 27 C -2.216 -1.2901 0.788 0
M  V30 28 C 0.1093 -2.9158 0.123 0
M  V30 29 C -2.3024 -2.809 0.8506 0
M  V30 30 C -0.9288 -3.4224 1.124 0
M  V30 31 O -1.0158 -4.8543 1.0081 0
M  V30 32 O -0.5168 -3.0831 2.4624 0
M  V30 33 C -0.9871 -5.3326 2.3513 0
M  V30 34 C -0.125 -4.3219 3.0537 0
M  V30 35 H 6.5651 -0.3792 1.1827 0
M  V30 36 H 4.9701 0.7478 2.7288 0
M  V30 37 H 2.7324 1.8827 3.0323 0
M  V30 38 H 0.637 2.6586 2.0376 0
M  V30 39 H 0.4986 2.366 -2.61 0
M  V30 40 H 0.3753 -0.0139 -2.1564 0
M  V30 41 H -0.9463 0.3549 -3.2019 0
M  V30 42 H -3.1499 5.1452 -0.3082 0
M  V30 43 H -2.0062 2.4061 -4.337 0
M  V30 44 H -4.5005 5.3493 -2.4073 0
M  V30 45 H -3.9204 3.9884 -4.3967 0
M  V30 46 H 0.4625 -0.9826 1.0397 0
M  V30 47 H 0.859 -1.0842 -0.6677 0
M  V30 48 H -1.9251 -0.876 1.761 0
M  V30 49 H -3.2029 -0.8793 0.5541 0
M  V30 50 H 1.1066 -3.2848 0.3909 0
M  V30 51 H -0.115 -3.3149 -0.8744 0
M  V30 52 H -3.012 -3.0993 1.6346 0
M  V30 53 H -2.6999 -3.201 -0.0942 0
M  V30 54 H -0.5871 -6.3484 2.3927 0
M  V30 55 H -2.0118 -5.3295 2.7384 0
M  V30 56 H 0.9372 -4.4789 2.8383 0
M  V30 57 H -0.2753 -4.2988 4.1357 0
M  V30 END ATOM
M  V30 BEGIN BOND
M  V30 1 1 1 2
M  V30 2 2 2 3
M  V30 3 1 2 4
M  V30 4 1 3 5
M  V30 5 2 4 6
M  V30 6 2 5 7
M  V30 7 1 5 8
M  V30 8 1 7 9
M  V30 9 2 8 10
M  V30 10 1 9 11
M  V30 11 2 9 12
M  V30 12 1 11 13
M  V30 13 1 11 14
M  V30 14 2 13 15
M  V30 15 1 13 16
M  V30 16 1 14 17
M  V30 17 1 14 18
M  V30 18 1 16 19
M  V30 19 1 17 20
M  V30 20 1 18 21
M  V30 21 2 19 22
M  V30 22 2 20 23
M  V30 23 2 21 24
M  V30 24 1 21 25
M  V30 25 1 25 26
M  V30 26 1 25 27
M  V30 27 1 26 28
M  V30 28 1 27 29
M  V30 29 1 28 30
M  V30 30 1 30 31
M  V30 31 1 30 32
M  V30 32 1 31 33
M  V30 33 1 32 34
M  V30 34 1 6 8
M  V30 35 1 10 12
M  V30 36 2 16 17
M  V30 37 1 22 23
M  V30 38 1 29 30
M  V30 39 1 33 34
M  V30 40 1 4 35
M  V30 41 1 6 36
M  V30 42 1 10 37
M  V30 43 1 12 38
M  V30 44 1 14 39
M  V30 45 1 18 40
M  V30 46 1 18 41
M  V30 47 1 19 42
M  V30 48 1 20 43
M  V30 49 1 22 44
M  V30 50 1 23 45
M  V30 51 1 26 46
M  V30 52 1 26 47
M  V30 53 1 27 48
M  V30 54 1 27 49
M  V30 55 1 28 50
M  V30 56 1 28 51
M  V30 57 1 29 52
M  V30 58 1 29 53
M  V30 59 1 33 54
M  V30 60 1 33 55
M  V30 61 1 34 56
M  V30 62 1 34 57
M  V30 END BOND
M  V30 BEGIN COLLECTION
M  V30 MDLV30/STERAC1 ATOMS=(1 14)
M  V30 END COLLECTION
M  V30 END CTAB
M  END
>  <NO.>
2361

>  <Name>
pazinaclone

>  <SMILES>
O=C(CC1c2ccccc2C(=O)N1c1ccc2ccc(Cl)nc2n1)N1CCC2(CC1)OCCO2

>  <logBB>


>  <Class>
1

>  <MW>
478.14

>  <nHBAcc>
6

>  <nHBDon>
0

>  <SLogP>
3.74

>  <TopoPSA>
84.86

>  <MMFF94 Energy>
-3.3262

$$$$
O=C(CCCN1CC2CCC(CC2)C1)c1ccc(F)cc1
Actelion Java MolfileCreator 2.0

  0  0  0  0  0  0              0 V3000
M  V30 BEGIN CTAB
M  V30 COUNTS 45 47 0 0 0
M  V30 BEGIN ATOM
M  V30 1 F 5.3583 -0.4789 -5.0378 0
M  V30 2 C 4.7537 -0.0099 -4.0132 0
M  V30 3 C 5.445 0.636 -3.0837 0
M  V30 4 C 3.4418 -0.1766 -3.8951 0
M  V30 5 C 4.8123 1.1242 -2.0159 0
M  V30 6 C 2.8045 0.3108 -2.8276 0
M  V30 7 C 3.4874 0.9654 -1.8792 0
M  V30 8 C 2.8549 1.5069 -0.7176 0
M  V30 9 O 3.5068 2.0831 0.0709 0
M  V30 10 C 1.4245 1.3275 -0.5607 0
M  V30 11 C 0.9347 1.8857 0.6983 0
M  V30 12 C -0.5225 1.7964 0.8247 0
M  V30 13 N -1.043 0.4975 0.667 0
M  V30 14 C -2.4286 0.5531 0.4635 0
M  V30 15 C -0.6457 -0.3574 1.7038 0
M  V30 16 C -3.0896 -0.7373 0.1926 0
M  V30 17 C -1.1548 -1.7409 1.6358 0
M  V30 18 C -2.2323 -1.6603 -0.56 0
M  V30 19 C -3.5563 -1.375 1.4216 0
M  V30 20 C -2.4732 -1.8674 2.2575 0
M  V30 21 C -1.1789 -2.2605 0.2641 0
M  V30 22 H 6.4687 0.7565 -3.193 0
M  V30 23 H 2.9231 -0.6854 -4.6349 0
M  V30 24 H 5.3577 1.63 -1.2891 0
M  V30 25 H 1.7794 0.1661 -2.7607 0
M  V30 26 H 0.9433 1.8025 -1.3594 0
M  V30 27 H 1.2204 0.3023 -0.5909 0
M  V30 28 H 1.4059 1.4163 1.5069 0
M  V30 29 H 1.2053 2.8967 0.7592 0
M  V30 30 H -0.8164 2.2005 1.7462 0
M  V30 31 H -0.9263 2.4216 0.0858 0
M  V30 32 H -2.9031 1.0387 1.2626 0
M  V30 33 H -2.5988 1.1491 -0.3829 0
M  V30 34 H 0.3978 -0.4395 1.6761 0
M  V30 35 H -0.8827 0.0583 2.6366 0
M  V30 36 H -3.9347 -0.5301 -0.393 0
M  V30 37 H -0.4917 -2.3316 2.1942 0
M  V30 38 H -2.8225 -2.4301 -0.9572 0
M  V30 39 H -1.8086 -1.172 -1.3843 0
M  V30 40 H -4.1782 -2.1805 1.169 0
M  V30 41 H -4.1575 -0.7161 1.9708 0
M  V30 42 H -2.4872 -1.3776 3.1833 0
M  V30 43 H -2.653 -2.8778 2.4721 0
M  V30 44 H -0.247 -2.1232 -0.1938 0
M  V30 45 H -1.3324 -3.2969 0.2977 0
M  V30 END ATOM
M  V30 BEGIN BOND
M  V30 1 1 1 2
M  V30 2 2 2 3
M  V30 3 1 2 4
M  V30 4 1 3 5
M  V30 5 2 4 6
M  V30 6 2 5 7
M  V30 7 1 7 8
M  V30 8 2 8 9
M  V30 9 1 8 10
M  V30 10 1 10 11
M  V30 11 1 11 12
M  V30 12 1 12 13
M  V30 13 1 13 14
M  V30 14 1 13 15
M  V30 15 1 14 16
M  V30 16 1 15 17
M  V30 17 1 16 18
M  V30 18 1 16 19
M  V30 19 1 17 20
M  V30 20 1 17 21
M  V30 21 1 6 7
M  V30 22 1 18 20
M  V30 23 1 19 21
M  V30 24 1 3 22
M  V30 25 1 4 23
M  V30 26 1 5 24
M  V30 27 1 6 25
M  V30 28 1 10 26
M  V30 29 1 10 27
M  V30 30 1 11 28
M  V30 31 1 11 29
M  V30 32 1 12 30
M  V30 33 1 12 31
M  V30 34 1 14 32
M  V30 35 1 14 33
M  V30 36 1 15 34
M  V30 37 1 15 35
M  V30 38 1 16 36
M  V30 39 1 17 37
M  V30 40 1 18 38
M  V30 41 1 18 39
M  V30 42 1 19 40
M  V30 43 1 19 41
M  V30 44 1 20 42
M  V30 45 1 20 43
M  V30 46 1 21 44
M  V30 47 1 21 45
M  V30 END BOND
M  V30 END CTAB
M  END
>  <NO.>
2362

>  <Name>
nonaperone

>  <SMILES>
O=C(CCCN1CC2CCC(CC2)C1)c1ccc(F)cc1

>  <logBB>


>  <Class>
1

>  <MW>
289.18

>  <nHBAcc>
2

>  <nHBDon>
0

>  <SLogP>
3.91

>  <TopoPSA>
20.31

>  <MMFF94 Energy>
54.856

$$$$
O=C(CCCN1CC=C(n2c(=O)[nH]c3ccccc32)CC1)c1ccc(F)cc1
Actelion Java MolfileCreator 2.0

  0  0  0  0  0  0              0 V3000
M  V30 BEGIN CTAB
M  V30 COUNTS 50 53 0 0 0
M  V30 BEGIN ATOM
M  V30 1 F -3.8503 -8.3568 -3.4487 0
M  V30 2 C -3.178 -7.2959 -2.9851 0
M  V30 3 C -3.1635 -7.0358 -1.621 0
M  V30 4 C -2.5029 -6.4703 -3.8769 0
M  V30 5 C -2.4611 -5.9287 -1.14 0
M  V30 6 C -1.7984 -5.3606 -3.3996 0
M  V30 7 C -1.7748 -5.0815 -2.0255 0
M  V30 8 C -1.0382 -3.9091 -1.4586 0
M  V30 9 O -0.9873 -3.77 -0.2384 0
M  V30 10 C -0.372 -2.9343 -2.4165 0
M  V30 11 C 0.258 -1.728 -1.7137 0
M  V30 12 C -0.7971 -0.7479 -1.1779 0
M  V30 13 N -0.1931 0.4926 -0.664 0
M  V30 14 C -1.2288 1.5255 -0.5066 0
M  V30 15 C 0.4813 0.2906 0.6245 0
M  V30 16 C -0.7676 2.7452 0.239 0
M  V30 17 C 1.2179 1.5752 1.0454 0
M  V30 18 C 0.3682 2.824 0.9605 0
M  V30 19 N 0.7532 3.9773 1.6516 0
M  V30 20 C -0.1247 5.0933 1.9361 0
M  V30 21 C 2.0106 4.3024 2.2498 0
M  V30 22 O -1.2977 5.2754 1.6443 0
M  V30 23 N 0.6097 6.0149 2.6922 0
M  V30 24 C 1.891 5.5409 2.8824 0
M  V30 25 C 3.2373 3.6636 2.2539 0
M  V30 26 C 2.9221 6.1644 3.5547 0
M  V30 27 C 4.307 4.2699 2.9315 0
M  V30 28 C 4.1495 5.5064 3.5805 0
M  V30 29 H -3.6958 -7.6929 -0.9403 0
M  V30 30 H -2.5284 -6.6972 -4.9385 0
M  V30 31 H -2.4517 -5.7294 -0.0695 0
M  V30 32 H -1.2765 -4.7373 -4.1196 0
M  V30 33 H 0.4231 -3.477 -2.9405 0
M  V30 34 H -1.1073 -2.5861 -3.15 0
M  V30 35 H 0.9124 -2.0782 -0.9082 0
M  V30 36 H 0.8941 -1.2044 -2.4386 0
M  V30 37 H -1.4604 -0.4958 -2.0159 0
M  V30 38 H -1.4235 -1.2206 -0.4121 0
M  V30 39 H -1.5559 1.8442 -1.5039 0
M  V30 40 H -2.1091 1.1275 0.0155 0
M  V30 41 H -0.2354 -0.0059 1.4026 0
M  V30 42 H 1.2308 -0.5049 0.5599 0
M  V30 43 H -1.4392 3.5908 0.1391 0
M  V30 44 H 2.0908 1.6982 0.3931 0
M  V30 45 H 1.5625 1.4201 2.074 0
M  V30 46 H 0.2215 6.8815 3.0254 0
M  V30 47 H 3.4177 2.7272 1.7471 0
M  V30 48 H 2.7916 7.1262 4.0359 0
M  V30 49 H 5.2778 3.7781 2.9475 0
M  V30 50 H 4.9957 5.9559 4.0952 0
M  V30 END ATOM
M  V30 BEGIN BOND
M  V30 1 1 1 2
M  V30 2 2 2 3
M  V30 3 1 2 4
M  V30 4 1 3 5
M  V30 5 2 4 6
M  V30 6 2 5 7
M  V30 7 1 7 8
M  V30 8 2 8 9
M  V30 9 1 8 10
M  V30 10 1 10 11
M  V30 11 1 11 12
M  V30 12 1 12 13
M  V30 13 1 13 14
M  V30 14 1 13 15
M  V30 15 1 14 16
M  V30 16 1 15 17
M  V30 17 2 16 18
M  V30 18 1 18 19
M  V30 19 1 19 20
M  V30 20 1 19 21
M  V30 21 2 20 22
M  V30 22 1 20 23
M  V30 23 2 21 24
M  V30 24 1 21 25
M  V30 25 1 24 26
M  V30 26 2 25 27
M  V30 27 2 26 28
M  V30 28 1 6 7
M  V30 29 1 17 18
M  V30 30 1 23 24
M  V30 31 1 27 28
M  V30 32 1 3 29
M  V30 33 1 4 30
M  V30 34 1 5 31
M  V30 35 1 6 32
M  V30 36 1 10 33
M  V30 37 1 10 34
M  V30 38 1 11 35
M  V30 39 1 11 36
M  V30 40 1 12 37
M  V30 41 1 12 38
M  V30 42 1 14 39
M  V30 43 1 14 40
M  V30 44 1 15 41
M  V30 45 1 15 42
M  V30 46 1 16 43
M  V30 47 1 17 44
M  V30 48 1 17 45
M  V30 49 1 23 46
M  V30 50 1 25 47
M  V30 51 1 26 48
M  V30 52 1 27 49
M  V30 53 1 28 50
M  V30 END BOND
M  V30 END CTAB
M  END
>  <NO.>
2363

>  <Name>
droperidol

>  <SMILES>
O=C(CCCN1CC=C(n2c(=O)[nH]c3ccccc32)CC1)c1ccc(F)cc1

>  <logBB>


>  <Class>
1

>  <MW>
379.17

>  <nHBAcc>
3

>  <nHBDon>
1

>  <SLogP>
3.68

>  <TopoPSA>
58.1

>  <MMFF94 Energy>
50.572

$$$$
O=C(CCCN1CCC(C(=O)c2ccc(F)cc2)CC1)c1ccc(F)cc1
Actelion Java MolfileCreator 2.0

  0  0  0  0  0  0              0 V3000
M  V30 BEGIN CTAB
M  V30 COUNTS 50 52 0 0 0
M  V30 BEGIN ATOM
M  V30 1 F 6.5086 -5.6228 2.8084 0
M  V30 2 C 5.7297 -5.0479 1.8834 0
M  V30 3 C 6.2701 -4.6958 0.6542 0
M  V30 4 C 4.389 -4.8144 2.1668 0
M  V30 5 C 5.4542 -4.097 -0.3081 0
M  V30 6 C 3.5688 -4.2151 1.2053 0
M  V30 7 C 4.0976 -3.8462 -0.0396 0
M  V30 8 C 3.2749 -3.2056 -1.1158 0
M  V30 9 O 3.7434 -3.1546 -2.2527 0
M  V30 10 C 1.8948 -2.6388 -0.7838 0
M  V30 11 C 2.0139 -1.3601 0.0475 0
M  V30 12 C 1.1085 -2.328 -2.0637 0
M  V30 13 C 0.643 -0.7309 0.3074 0
M  V30 14 C -0.2378 -1.6841 -1.7409 0
M  V30 15 N -0.0729 -0.4571 -0.945 0
M  V30 16 C -1.3847 0.1743 -0.7209 0
M  V30 17 C -1.2949 1.5708 -0.0924 0
M  V30 18 C -2.6619 2.2606 -0.0898 0
M  V30 19 C -2.6154 3.622 0.5845 0
M  V30 20 O -1.6168 4.0301 1.1736 0
M  V30 21 C -3.8357 4.4866 0.5405 0
M  V30 22 C -3.7562 5.7797 1.0834 0
M  V30 23 C -5.0466 4.0491 -0.0154 0
M  V30 24 C -4.8686 6.624 1.0676 0
M  V30 25 C -6.1581 4.8977 -0.0292 0
M  V30 26 C -6.059 6.175 0.5109 0
M  V30 27 F -7.1273 6.982 0.4948 0
M  V30 28 H 7.3185 -4.8885 0.4494 0
M  V30 29 H 3.99 -5.1034 3.1346 0
M  V30 30 H 5.8825 -3.8244 -1.2717 0
M  V30 31 H 2.525 -4.0558 1.4555 0
M  V30 32 H 1.3274 -3.4005 -0.2364 0
M  V30 33 H 2.4984 -1.5628 1.009 0
M  V30 34 H 2.6584 -0.637 -0.4706 0
M  V30 35 H 0.9463 -3.2498 -2.6357 0
M  V30 36 H 1.6844 -1.6556 -2.7137 0
M  V30 37 H 0.0525 -1.3912 0.9558 0
M  V30 38 H 0.8192 0.1973 0.8607 0
M  V30 39 H -0.7331 -1.4474 -2.6906 0
M  V30 40 H -0.875 -2.4061 -1.2132 0
M  V30 41 H -2.0226 -0.469 -0.1007 0
M  V30 42 H -1.8892 0.2819 -1.69 0
M  V30 43 H -0.5773 2.1878 -0.6479 0
M  V30 44 H -0.9293 1.5013 0.9384 0
M  V30 45 H -3.3844 1.6361 0.4474 0
M  V30 46 H -2.9943 2.3921 -1.1255 0
M  V30 47 H -2.8247 6.1356 1.5212 0
M  V30 48 H -5.1555 3.0559 -0.4402 0
M  V30 49 H -4.8111 7.6243 1.4853 0
M  V30 50 H -7.1012 4.5709 -0.4569 0
M  V30 END ATOM
M  V30 BEGIN BOND
M  V30 1 1 1 2
M  V30 2 2 2 3
M  V30 3 1 2 4
M  V30 4 1 3 5
M  V30 5 2 4 6
M  V30 6 2 5 7
M  V30 7 1 7 8
M  V30 8 2 8 9
M  V30 9 1 8 10
M  V30 10 1 10 11
M  V30 11 1 10 12
M  V30 12 1 11 13
M  V30 13 1 12 14
M  V30 14 1 13 15
M  V30 15 1 15 16
M  V30 16 1 16 17
M  V30 17 1 17 18
M  V30 18 1 18 19
M  V30 19 2 19 20
M  V30 20 1 19 21
M  V30 21 2 21 22
M  V30 22 1 21 23
M  V30 23 1 22 24
M  V30 24 2 23 25
M  V30 25 2 24 26
M  V30 26 1 26 27
M  V30 27 1 6 7
M  V30 28 1 14 15
M  V30 29 1 25 26
M  V30 30 1 3 28
M  V30 31 1 4 29
M  V30 32 1 5 30
M  V30 33 1 6 31
M  V30 34 1 10 32
M  V30 35 1 11 33
M  V30 36 1 11 34
M  V30 37 1 12 35
M  V30 38 1 12 36
M  V30 39 1 13 37
M  V30 40 1 13 38
M  V30 41 1 14 39
M  V30 42 1 14 40
M  V30 43 1 16 41
M  V30 44 1 16 42
M  V30 45 1 17 43
M  V30 46 1 17 44
M  V30 47 1 18 45
M  V30 48 1 18 46
M  V30 49 1 22 47
M  V30 50 1 23 48
M  V30 51 1 24 49
M  V30 52 1 25 50
M  V30 END BOND
M  V30 END CTAB
M  END
>  <NO.>
2365

>  <Name>
lenperone

>  <SMILES>
O=C(CCCN1CCC(C(=O)c2ccc(F)cc2)CC1)c1ccc(F)cc1

>  <logBB>


>  <Class>
1

>  <MW>
371.17

>  <nHBAcc>
3

>  <nHBDon>
0

>  <SLogP>
4.52

>  <TopoPSA>
37.38

>  <MMFF94 Energy>
66.326

$$$$
O=C(CCCN1CCC(O)(c2cccc(C(F)(F)F)c2)CC1)c1ccc(F)cc1
Actelion Java MolfileCreator 2.0

  0  0  0  0  0  0              0 V3000
M  V30 BEGIN CTAB
M  V30 COUNTS 52 54 0 0 0
M  V30 BEGIN ATOM
M  V30 1 F -1.5314 4.0339 -8.8098 0
M  V30 2 C -1.5381 3.7246 -7.507 0
M  V30 3 C -2.0914 4.613 -6.5939 0
M  V30 4 C -0.9897 2.5179 -7.0873 0
M  V30 5 C -2.0966 4.2878 -5.2356 0
M  V30 6 C -0.993 2.1882 -5.7281 0
M  V30 7 C -1.5487 3.0727 -4.7921 0
M  V30 8 C -1.579 2.7735 -3.3262 0
M  V30 9 O -2.0233 3.62 -2.5534 0
M  V30 10 C -1.048 1.4332 -2.8447 0
M  V30 11 C -1.2418 1.2441 -1.3375 0
M  V30 12 C -0.6571 -0.0952 -0.8715 0
M  V30 13 N -0.9782 -0.42 0.5305 0
M  V30 14 C -0.5774 -1.8057 0.8242 0
M  V30 15 C -0.3494 0.5132 1.4769 0
M  V30 16 C -1.0081 -2.2028 2.2326 0
M  V30 17 C -0.7012 0.17 2.9281 0
M  V30 18 C -0.3782 -1.289 3.3024 0
M  V30 19 O -1.0297 -1.5632 4.5567 0
M  V30 20 C 1.0962 -1.6235 3.5591 0
M  V30 21 C 1.4502 -2.9338 3.948 0
M  V30 22 C 2.133 -0.6817 3.4755 0
M  V30 23 C 2.7828 -3.3094 4.195 0
M  V30 24 C 3.4627 -1.0375 3.7241 0
M  V30 25 C 3.7875 -2.3439 4.0782 0
M  V30 26 C 3.1127 -4.7166 4.6253 0
M  V30 27 F 3.0411 -4.8825 5.9746 0
M  V30 28 F 2.2772 -5.65 4.0874 0
M  V30 29 F 4.3709 -5.1027 4.2686 0
M  V30 30 H -2.5143 5.5508 -6.9409 0
M  V30 31 H -0.5625 1.8417 -7.8219 0
M  V30 32 H -2.5313 4.9875 -4.523 0
M  V30 33 H -0.5548 1.2405 -5.4303 0
M  V30 34 H -1.5791 0.635 -3.3752 0
M  V30 35 H 0.0204 1.38 -3.0823 0
M  V30 36 H -0.7597 2.0757 -0.8108 0
M  V30 37 H -2.3121 1.289 -1.0986 0
M  V30 38 H -1.078 -0.8782 -1.5159 0
M  V30 39 H 0.429 -0.1021 -1.0319 0
M  V30 40 H 0.5043 -1.9413 0.6985 0
M  V30 41 H -1.0719 -2.4878 0.1215 0
M  V30 42 H -0.7109 1.532 1.3002 0
M  V30 43 H 0.7358 0.5319 1.3299 0
M  V30 44 H -2.1041 -2.1451 2.3028 0
M  V30 45 H -0.7765 -3.26 2.405 0
M  V30 46 H -1.7784 0.3449 3.0683 0
M  V30 47 H -0.2192 0.8739 3.6177 0
M  V30 48 H -1.9773 -1.378 4.444 0
M  V30 49 H 0.6649 -3.6784 4.0864 0
M  V30 50 H 1.9374 0.3582 3.2326 0
M  V30 51 H 4.2451 -0.2853 3.6525 0
M  V30 52 H 4.8261 -2.6026 4.2774 0
M  V30 END ATOM
M  V30 BEGIN BOND
M  V30 1 1 1 2
M  V30 2 2 2 3
M  V30 3 1 2 4
M  V30 4 1 3 5
M  V30 5 2 4 6
M  V30 6 2 5 7
M  V30 7 1 7 8
M  V30 8 2 8 9
M  V30 9 1 8 10
M  V30 10 1 10 11
M  V30 11 1 11 12
M  V30 12 1 12 13
M  V30 13 1 13 14
M  V30 14 1 13 15
M  V30 15 1 14 16
M  V30 16 1 15 17
M  V30 17 1 16 18
M  V30 18 1 18 19
M  V30 19 1 18 20
M  V30 20 2 20 21
M  V30 21 1 20 22
M  V30 22 1 21 23
M  V30 23 2 22 24
M  V30 24 2 23 25
M  V30 25 1 23 26
M  V30 26 1 26 27
M  V30 27 1 26 28
M  V30 28 1 26 29
M  V30 29 1 6 7
M  V30 30 1 17 18
M  V30 31 1 24 25
M  V30 32 1 3 30
M  V30 33 1 4 31
M  V30 34 1 5 32
M  V30 35 1 6 33
M  V30 36 1 10 34
M  V30 37 1 10 35
M  V30 38 1 11 36
M  V30 39 1 11 37
M  V30 40 1 12 38
M  V30 41 1 12 39
M  V30 42 1 14 40
M  V30 43 1 14 41
M  V30 44 1 15 42
M  V30 45 1 15 43
M  V30 46 1 16 44
M  V30 47 1 16 45
M  V30 48 1 17 46
M  V30 49 1 17 47
M  V30 50 1 19 48
M  V30 51 1 21 49
M  V30 52 1 22 50
M  V30 53 1 24 51
M  V30 54 1 25 52
M  V30 END BOND
M  V30 END CTAB
M  END
>  <NO.>
2367

>  <Name>
trifluperidol

>  <SMILES>
O=C(CCCN1CCC(O)(c2cccc(C(F)(F)F)c2)CC1)c1ccc(F)cc1

>  <logBB>


>  <Class>
1

>  <MW>
409.17

>  <nHBAcc>
3

>  <nHBDon>
1

>  <SLogP>
4.79

>  <TopoPSA>
40.54

>  <MMFF94 Energy>
83.639

$$$$
O=C(CCCN1CCC(n2c(=O)[nH]c3ccccc32)CC1)c1ccc(F)cc1
Actelion Java MolfileCreator 2.0

  0  0  0  0  0  0              0 V3000
M  V30 BEGIN CTAB
M  V30 COUNTS 52 55 0 0 0
M  V30 BEGIN ATOM
M  V30 1 F -7.7782 -2.3206 4.5651 0
M  V30 2 C -6.6816 -1.6828 4.1364 0
M  V30 3 C -6.0477 -0.7718 4.9716 0
M  V30 4 C -6.1936 -1.9422 2.8606 0
M  V30 5 C -4.9041 -0.1077 4.5222 0
M  V30 6 C -5.049 -1.2794 2.4066 0
M  V30 7 C -4.3957 -0.3562 3.2365 0
M  V30 8 C -3.1684 0.3819 2.8027 0
M  V30 9 O -2.6506 1.187 3.5748 0
M  V30 10 C -2.6101 0.1116 1.4163 0
M  V30 11 C -1.3337 0.912 1.1462 0
M  V30 12 C -0.8169 0.7422 -0.2884 0
M  V30 13 N -0.5925 -0.655 -0.6898 0
M  V30 14 C 0.4902 -1.3266 0.0458 0
M  V30 15 C -0.3823 -0.7813 -2.1415 0
M  V30 16 C 1.8917 -0.8382 -0.3225 0
M  V30 17 C 0.9747 -0.2631 -2.6202 0
M  V30 18 C 2.1117 -0.9267 -1.8363 0
M  V30 19 N 3.4264 -0.4749 -2.2494 0
M  V30 20 C 4.3896 -1.3164 -2.8549 0
M  V30 21 C 3.9746 0.8165 -2.1393 0
M  V30 22 O 4.2887 -2.5026 -3.1206 0
M  V30 23 N 5.5165 -0.5229 -3.1052 0
M  V30 24 C 5.2653 0.7713 -2.6713 0
M  V30 25 C 3.4635 1.9923 -1.632 0
M  V30 26 C 6.0938 1.8698 -2.7232 0
M  V30 27 C 4.2852 3.1267 -1.6717 0
M  V30 28 C 5.5862 3.0662 -2.2114 0
M  V30 29 H -6.444 -0.5829 5.9646 0
M  V30 30 H -6.7074 -2.6594 2.2273 0
M  V30 31 H -4.41 0.6055 5.1802 0
M  V30 32 H -4.6905 -1.5023 1.4057 0
M  V30 33 H -2.394 -0.9591 1.3385 0
M  V30 34 H -3.3719 0.3858 0.6778 0
M  V30 35 H -1.5326 1.9792 1.311 0
M  V30 36 H -0.5584 0.6385 1.8716 0
M  V30 37 H -1.5732 1.1828 -0.9516 0
M  V30 38 H 0.0871 1.3493 -0.4107 0
M  V30 39 H 0.3426 -1.2445 1.1279 0
M  V30 40 H 0.4257 -2.4031 -0.1625 0
M  V30 41 H -0.4762 -1.8412 -2.413 0
M  V30 42 H -1.1864 -0.2728 -2.6878 0
M  V30 43 H 2.0346 0.1824 0.0452 0
M  V30 44 H 2.6387 -1.4535 0.1945 0
M  V30 45 H 1.0893 -0.4777 -3.69 0
M  V30 46 H 1.007 0.8268 -2.5249 0
M  V30 47 H 2.0676 -1.9963 -2.0865 0
M  V30 48 H 6.3578 -0.8711 -3.5337 0
M  V30 49 H 2.4682 2.0608 -1.2132 0
M  V30 50 H 7.0923 1.8156 -3.1393 0
M  V30 51 H 3.9146 4.0718 -1.2788 0
M  V30 52 H 6.2008 3.9641 -2.2278 0
M  V30 END ATOM
M  V30 BEGIN BOND
M  V30 1 1 1 2
M  V30 2 2 2 3
M  V30 3 1 2 4
M  V30 4 1 3 5
M  V30 5 2 4 6
M  V30 6 2 5 7
M  V30 7 1 7 8
M  V30 8 2 8 9
M  V30 9 1 8 10
M  V30 10 1 10 11
M  V30 11 1 11 12
M  V30 12 1 12 13
M  V30 13 1 13 14
M  V30 14 1 13 15
M  V30 15 1 14 16
M  V30 16 1 15 17
M  V30 17 1 16 18
M  V30 18 1 18 19
M  V30 19 1 19 20
M  V30 20 1 19 21
M  V30 21 2 20 22
M  V30 22 1 20 23
M  V30 23 2 21 24
M  V30 24 1 21 25
M  V30 25 1 24 26
M  V30 26 2 25 27
M  V30 27 2 26 28
M  V30 28 1 6 7
M  V30 29 1 17 18
M  V30 30 1 23 24
M  V30 31 1 27 28
M  V30 32 1 3 29
M  V30 33 1 4 30
M  V30 34 1 5 31
M  V30 35 1 6 32
M  V30 36 1 10 33
M  V30 37 1 10 34
M  V30 38 1 11 35
M  V30 39 1 11 36
M  V30 40 1 12 37
M  V30 41 1 12 38
M  V30 42 1 14 39
M  V30 43 1 14 40
M  V30 44 1 15 41
M  V30 45 1 15 42
M  V30 46 1 16 43
M  V30 47 1 16 44
M  V30 48 1 17 45
M  V30 49 1 17 46
M  V30 50 1 18 47
M  V30 51 1 23 48
M  V30 52 1 25 49
M  V30 53 1 26 50
M  V30 54 1 27 51
M  V30 55 1 28 52
M  V30 END BOND
M  V30 END CTAB
M  END
>  <NO.>
2368

>  <Name>
benperidol

>  <SMILES>
O=C(CCCN1CCC(n2c(=O)[nH]c3ccccc32)CC1)c1ccc(F)cc1

>  <logBB>


>  <Class>
1

>  <MW>
381.19

>  <nHBAcc>
3

>  <nHBDon>
1

>  <SLogP>
3.77

>  <TopoPSA>
58.1

>  <MMFF94 Energy>
12.201

$$$$
O=C(CCCN1CCC2(CC1)C(=O)NCN2c1ccc(F)cc1)c1ccc(F)cc1
Actelion Java MolfileCreator 2.0

  0  0  0  0  0  0              0 V3000
M  V30 BEGIN CTAB
M  V30 COUNTS 55 58 0 0 0
M  V30 BEGIN ATOM
M  V30 1 F -4.8985 2.6477 4.255 0
M  V30 2 C -4.0916 1.6257 3.9429 0
M  V30 3 C -4.3788 0.8375 2.8381 0
M  V30 4 C -2.9806 1.364 4.732 0
M  V30 5 C -3.5341 -0.2278 2.5167 0
M  V30 6 C -2.1414 0.2961 4.4041 0
M  V30 7 C -2.3967 -0.509 3.2843 0
M  V30 8 N -1.5859 -1.5666 2.964 0
M  V30 9 C -0.4719 -1.5558 1.9807 0
M  V30 10 C -1.5222 -2.701 3.8609 0
M  V30 11 C 0.135 -2.9532 2.2203 0
M  V30 12 C -0.9444 -1.4894 0.5269 0
M  V30 13 C 0.614 -0.5279 2.3158 0
M  V30 14 N -0.5171 -3.5238 3.2884 0
M  V30 15 O 1.044 -3.4952 1.6116 0
M  V30 16 C -1.068 -0.0677 -0.0166 0
M  V30 17 C 0.3632 0.8366 1.6844 0
M  V30 18 N 0.153 0.7121 0.2339 0
M  V30 19 C 0.0756 2.0532 -0.3751 0
M  V30 20 C 0.12 2.0504 -1.9091 0
M  V30 21 C 1.3323 1.2983 -2.4639 0
M  V30 22 C 1.4265 1.4024 -3.976 0
M  V30 23 O 0.6294 2.0612 -4.6416 0
M  V30 24 C 2.5358 0.6805 -4.6746 0
M  V30 25 C 2.627 0.7902 -6.0721 0
M  V30 26 C 3.4788 -0.0948 -3.9839 0
M  V30 27 C 3.6452 0.1353 -6.7684 0
M  V30 28 C 4.4963 -0.7494 -4.6851 0
M  V30 29 C 4.5703 -0.6282 -6.0682 0
M  V30 30 F 5.5473 -1.2568 -6.7339 0
M  V30 31 H -5.2564 1.0503 2.2366 0
M  V30 32 H -2.773 1.9892 5.5942 0
M  V30 33 H -3.7758 -0.8522 1.6598 0
M  V30 34 H -1.2703 0.1042 5.0258 0
M  V30 35 H -1.207 -2.4299 4.8735 0
M  V30 36 H -2.464 -3.2572 3.8922 0
M  V30 37 H -1.9002 -2.0139 0.4021 0
M  V30 38 H -0.2304 -2.0217 -0.1172 0
M  V30 39 H 1.5873 -0.8875 1.9524 0
M  V30 40 H 0.7296 -0.4145 3.4012 0
M  V30 41 H -0.2671 -4.4438 3.6186 0
M  V30 42 H -1.2501 -0.157 -1.0933 0
M  V30 43 H -1.9433 0.4377 0.4037 0
M  V30 44 H -0.4829 1.3428 2.1633 0
M  V30 45 H 1.249 1.4546 1.8791 0
M  V30 46 H 0.9334 2.6488 -0.0353 0
M  V30 47 H -0.8248 2.5836 -0.0385 0
M  V30 48 H 0.1495 3.0933 -2.2506 0
M  V30 49 H -0.8033 1.6277 -2.3223 0
M  V30 50 H 1.2554 0.2381 -2.1998 0
M  V30 51 H 2.2478 1.7177 -2.0315 0
M  V30 52 H 1.9032 1.3876 -6.6246 0
M  V30 53 H 3.4451 -0.2089 -2.904 0
M  V30 54 H 3.7194 0.2173 -7.8483 0
M  V30 55 H 5.2306 -1.3536 -4.1606 0
M  V30 END ATOM
M  V30 BEGIN BOND
M  V30 1 1 1 2
M  V30 2 2 2 3
M  V30 3 1 2 4
M  V30 4 1 3 5
M  V30 5 2 4 6
M  V30 6 2 5 7
M  V30 7 1 7 8
M  V30 8 1 8 9
M  V30 9 1 8 10
M  V30 10 1 9 11
M  V30 11 1 9 12
M  V30 12 1 9 13
M  V30 13 1 10 14
M  V30 14 2 11 15
M  V30 15 1 12 16
M  V30 16 1 13 17
M  V30 17 1 16 18
M  V30 18 1 18 19
M  V30 19 1 19 20
M  V30 20 1 20 21
M  V30 21 1 21 22
M  V30 22 2 22 23
M  V30 23 1 22 24
M  V30 24 2 24 25
M  V30 25 1 24 26
M  V30 26 1 25 27
M  V30 27 2 26 28
M  V30 28 2 27 29
M  V30 29 1 29 30
M  V30 30 1 6 7
M  V30 31 1 11 14
M  V30 32 1 17 18
M  V30 33 1 28 29
M  V30 34 1 3 31
M  V30 35 1 4 32
M  V30 36 1 5 33
M  V30 37 1 6 34
M  V30 38 1 10 35
M  V30 39 1 10 36
M  V30 40 1 12 37
M  V30 41 1 12 38
M  V30 42 1 13 39
M  V30 43 1 13 40
M  V30 44 1 14 41
M  V30 45 1 16 42
M  V30 46 1 16 43
M  V30 47 1 17 44
M  V30 48 1 17 45
M  V30 49 1 19 46
M  V30 50 1 19 47
M  V30 51 1 20 48
M  V30 52 1 20 49
M  V30 53 1 21 50
M  V30 54 1 21 51
M  V30 55 1 25 52
M  V30 56 1 26 53
M  V30 57 1 27 54
M  V30 58 1 28 55
M  V30 END BOND
M  V30 END CTAB
M  END
>  <NO.>
2370

>  <Name>
fluspiperone

>  <SMILES>
O=C(CCCN1CCC2(CC1)C(=O)NCN2c1ccc(F)cc1)c1ccc(F)cc1

>  <logBB>


>  <Class>
1

>  <MW>
413.19

>  <nHBAcc>
4

>  <nHBDon>
1

>  <SLogP>
3.36

>  <TopoPSA>
52.65

>  <MMFF94 Energy>
28.089

$$$$
O=C(CCCN1CCN(C(=O)OC2CCCCC2)CC1)c1ccc(F)cc1
Actelion Java MolfileCreator 2.0

  0  0  0  0  0  0              0 V3000
M  V30 BEGIN CTAB
M  V30 COUNTS 56 58 0 0 0
M  V30 BEGIN ATOM
M  V30 1 F -10.3794 -0.3976 -1.6711 0
M  V30 2 C -9.1739 -0.103 -1.1687 0
M  V30 3 C -8.7109 -0.7855 -0.0514 0
M  V30 4 C -8.4031 0.8835 -1.7733 0
M  V30 5 C -7.4529 -0.476 0.4702 0
M  V30 6 C -7.1428 1.1965 -1.2542 0
M  V30 7 C -6.6582 0.5161 -0.1277 0
M  V30 8 C -5.3178 0.8079 0.4705 0
M  V30 9 O -4.9837 0.2182 1.4953 0
M  V30 10 C -4.4218 1.8285 -0.2137 0
M  V30 11 C -3.0497 1.9946 0.4478 0
M  V30 12 C -2.1253 0.7946 0.1914 0
M  V30 13 N -0.8003 0.9622 0.8145 0
M  V30 14 C -0.0961 -0.3417 0.8622 0
M  V30 15 C 0.0386 1.9464 0.0917 0
M  V30 16 C 1.3051 -0.2379 1.4936 0
M  V30 17 C 1.4435 2.0889 0.7094 0
M  V30 18 N 2.1042 0.7966 0.8407 0
M  V30 19 C 3.4102 0.6363 0.435 0
M  V30 20 O 4.0765 1.5202 -0.0905 0
M  V30 21 O 3.8783 -0.6171 0.6795 0
M  V30 22 C 5.2368 -0.8821 0.2868 0
M  V30 23 C 5.7401 -2.0463 1.1446 0
M  V30 24 C 5.2865 -1.2452 -1.2004 0
M  V30 25 C 7.1363 -2.4946 0.7266 0
M  V30 26 C 6.6815 -1.6927 -1.6249 0
M  V30 27 C 7.1918 -2.8409 -0.7586 0
M  V30 28 H -9.3282 -1.5514 0.4077 0
M  V30 29 H -8.7898 1.4038 -2.6445 0
M  V30 30 H -7.0947 -1.0128 1.3475 0
M  V30 31 H -6.5664 1.9749 -1.745 0
M  V30 32 H -4.2862 1.5438 -1.2628 0
M  V30 33 H -4.9357 2.7961 -0.1719 0
M  V30 34 H -2.6008 2.9065 0.0393 0
M  V30 35 H -3.1665 2.1506 1.5274 0
M  V30 36 H -2.6043 -0.0965 0.6135 0
M  V30 37 H -2.0263 0.6146 -0.8868 0
M  V30 38 H -0.6813 -1.0559 1.4539 0
M  V30 39 H -2.0E-4 -0.7523 -0.1519 0
M  V30 40 H 0.1423 1.6501 -0.9605 0
M  V30 41 H -0.4293 2.9358 0.1115 0
M  V30 42 H 1.2224 0.0393 2.5515 0
M  V30 43 H 1.7962 -1.214 1.4483 0
M  V30 44 H 2.043 2.7762 0.1037 0
M  V30 45 H 1.3698 2.5179 1.7164 0
M  V30 46 H 5.8685 -0.0068 0.4884 0
M  V30 47 H 5.0404 -2.8894 1.0727 0
M  V30 48 H 5.741 -1.752 2.2012 0
M  V30 49 H 4.9721 -0.3901 -1.8097 0
M  V30 50 H 4.5591 -2.0404 -1.4098 0
M  V30 51 H 7.8561 -1.6956 0.9425 0
M  V30 52 H 7.4377 -3.3652 1.3198 0
M  V30 53 H 7.3738 -0.845 -1.5521 0
M  V30 54 H 6.6655 -2.0029 -2.6756 0
M  V30 55 H 6.5853 -3.7354 -0.9464 0
M  V30 56 H 8.2211 -3.0876 -1.0418 0
M  V30 END ATOM
M  V30 BEGIN BOND
M  V30 1 1 1 2
M  V30 2 2 2 3
M  V30 3 1 2 4
M  V30 4 1 3 5
M  V30 5 2 4 6
M  V30 6 2 5 7
M  V30 7 1 7 8
M  V30 8 2 8 9
M  V30 9 1 8 10
M  V30 10 1 10 11
M  V30 11 1 11 12
M  V30 12 1 12 13
M  V30 13 1 13 14
M  V30 14 1 13 15
M  V30 15 1 14 16
M  V30 16 1 15 17
M  V30 17 1 16 18
M  V30 18 1 18 19
M  V30 19 2 19 20
M  V30 20 1 19 21
M  V30 21 1 21 22
M  V30 22 1 22 23
M  V30 23 1 22 24
M  V30 24 1 23 25
M  V30 25 1 24 26
M  V30 26 1 25 27
M  V30 27 1 6 7
M  V30 28 1 17 18
M  V30 29 1 26 27
M  V30 30 1 3 28
M  V30 31 1 4 29
M  V30 32 1 5 30
M  V30 33 1 6 31
M  V30 34 1 10 32
M  V30 35 1 10 33
M  V30 36 1 11 34
M  V30 37 1 11 35
M  V30 38 1 12 36
M  V30 39 1 12 37
M  V30 40 1 14 38
M  V30 41 1 14 39
M  V30 42 1 15 40
M  V30 43 1 15 41
M  V30 44 1 16 42
M  V30 45 1 16 43
M  V30 46 1 17 44
M  V30 47 1 17 45
M  V30 48 1 22 46
M  V30 49 1 23 47
M  V30 50 1 23 48
M  V30 51 1 24 49
M  V30 52 1 24 50
M  V30 53 1 25 51
M  V30 54 1 25 52
M  V30 55 1 26 53
M  V30 56 1 26 54
M  V30 57 1 27 55
M  V30 58 1 27 56
M  V30 END BOND
M  V30 END CTAB
M  END
>  <NO.>
2371

>  <Name>
fenaperone

>  <SMILES>
O=C(CCCN1CCN(C(=O)OC2CCCCC2)CC1)c1ccc(F)cc1

>  <logBB>


>  <Class>
1

>  <MW>
376.22

>  <nHBAcc>
4

>  <nHBDon>
0

>  <SLogP>
3.88

>  <TopoPSA>
49.85

>  <MMFF94 Energy>
33.67

$$$$
O=C(CCCN1CCN(c2cc3ccccc3cn2)CC1)c1ccc(F)cc1
Actelion Java MolfileCreator 2.0

  0  0  0  0  0  0              0 V3000
M  V30 BEGIN CTAB
M  V30 COUNTS 52 55 0 0 0
M  V30 BEGIN ATOM
M  V30 1 F -3.5254 0.4001 9.9596 0
M  V30 2 C -3.2969 0.324 8.6425 0
M  V30 3 C -4.3696 0.2506 7.7634 0
M  V30 4 C -1.9878 0.3206 8.1742 0
M  V30 5 C -4.1282 0.1716 6.3901 0
M  V30 6 C -1.7416 0.2417 6.7998 0
M  V30 7 C -2.8127 0.1651 5.8976 0
M  V30 8 C -2.6093 0.0802 4.4176 0
M  V30 9 O -3.5919 0.0944 3.679 0
M  V30 10 C -1.1901 -0.0087 3.8811 0
M  V30 11 C -1.1586 -0.2104 2.3638 0
M  V30 12 C 0.2837 -0.2458 1.844 0
M  V30 13 N 0.3782 -0.6174 0.4242 0
M  V30 14 C 1.799 -0.8142 0.0463 0
M  V30 15 C -0.2033 0.4093 -0.4694 0
M  V30 16 C 1.995 -1.1943 -1.4376 0
M  V30 17 C -0.0598 0.0706 -1.9732 0
M  V30 18 N 1.3373 -0.2203 -2.3228 0
M  V30 19 C 1.6903 -0.2898 -3.6683 0
M  V30 20 N 2.4881 -1.3006 -4.0776 0
M  V30 21 C 1.2667 0.681 -4.5784 0
M  V30 22 C 2.8362 -1.3688 -5.3847 0
M  V30 23 C 1.6323 0.6079 -5.9331 0
M  V30 24 C 2.4421 -0.4552 -6.3572 0
M  V30 25 C 1.2174 1.566 -6.8748 0
M  V30 26 C 2.8226 -0.5549 -7.7082 0
M  V30 27 C 1.5986 1.4616 -8.2145 0
M  V30 28 C 2.3998 0.4016 -8.6312 0
M  V30 29 H -5.3848 0.2553 8.1483 0
M  V30 30 H -1.1671 0.3805 8.883 0
M  V30 31 H -4.9723 0.1145 5.7042 0
M  V30 32 H -0.7091 0.245 6.4638 0
M  V30 33 H -0.6673 0.9204 4.135 0
M  V30 34 H -0.6852 -0.8534 4.3629 0
M  V30 35 H -1.6721 -1.1465 2.1098 0
M  V30 36 H -1.717 0.602 1.8848 0
M  V30 37 H 0.7677 0.7223 2.0283 0
M  V30 38 H 0.8303 -0.9917 2.4358 0
M  V30 39 H 2.2321 -1.6148 0.6583 0
M  V30 40 H 2.371 0.1007 0.254 0
M  V30 41 H 0.27 1.3824 -0.2808 0
M  V30 42 H -1.2741 0.5212 -0.2683 0
M  V30 43 H 3.0758 -1.2277 -1.6253 0
M  V30 44 H 1.5851 -2.1972 -1.6153 0
M  V30 45 H -0.6833 -0.8004 -2.2135 0
M  V30 46 H -0.4565 0.923 -2.534 0
M  V30 47 H 0.6718 1.521 -4.2386 0
M  V30 48 H 3.4694 -2.2162 -5.6327 0
M  V30 49 H 0.5913 2.4015 -6.5691 0
M  V30 50 H 3.4504 -1.3768 -8.0444 0
M  V30 51 H 1.2692 2.2092 -8.9318 0
M  V30 52 H 2.6965 0.3206 -9.6737 0
M  V30 END ATOM
M  V30 BEGIN BOND
M  V30 1 1 1 2
M  V30 2 2 2 3
M  V30 3 1 2 4
M  V30 4 1 3 5
M  V30 5 2 4 6
M  V30 6 2 5 7
M  V30 7 1 7 8
M  V30 8 2 8 9
M  V30 9 1 8 10
M  V30 10 1 10 11
M  V30 11 1 11 12
M  V30 12 1 12 13
M  V30 13 1 13 14
M  V30 14 1 13 15
M  V30 15 1 14 16
M  V30 16 1 15 17
M  V30 17 1 16 18
M  V30 18 1 18 19
M  V30 19 1 19 20
M  V30 20 2 19 21
M  V30 21 2 20 22
M  V30 22 1 21 23
M  V30 23 1 22 24
M  V30 24 2 23 25
M  V30 25 2 24 26
M  V30 26 1 25 27
M  V30 27 1 26 28
M  V30 28 1 6 7
M  V30 29 1 17 18
M  V30 30 1 23 24
M  V30 31 2 27 28
M  V30 32 1 3 29
M  V30 33 1 4 30
M  V30 34 1 5 31
M  V30 35 1 6 32
M  V30 36 1 10 33
M  V30 37 1 10 34
M  V30 38 1 11 35
M  V30 39 1 11 36
M  V30 40 1 12 37
M  V30 41 1 12 38
M  V30 42 1 14 39
M  V30 43 1 14 40
M  V30 44 1 15 41
M  V30 45 1 15 42
M  V30 46 1 16 43
M  V30 47 1 16 44
M  V30 48 1 17 45
M  V30 49 1 17 46
M  V30 50 1 21 47
M  V30 51 1 22 48
M  V30 52 1 25 49
M  V30 53 1 26 50
M  V30 54 1 27 51
M  V30 55 1 28 52
M  V30 END BOND
M  V30 END CTAB
M  END
>  <NO.>
2372

>  <Name>
cinuperone

>  <SMILES>
O=C(CCCN1CCN(c2cc3ccccc3cn2)CC1)c1ccc(F)cc1

>  <logBB>


>  <Class>
1

>  <MW>
377.19

>  <nHBAcc>
4

>  <nHBDon>
0

>  <SLogP>
4.16

>  <TopoPSA>
36.44

>  <MMFF94 Energy>
106.09

$$$$
O=C(CCCN1CCN(c2ccccn2)CC1)c1ccc(F)cc1
Actelion Java MolfileCreator 2.0

  0  0  0  0  0  0              0 V3000
M  V30 BEGIN CTAB
M  V30 COUNTS 46 48 0 0 0
M  V30 BEGIN ATOM
M  V30 1 F -7.5116 -0.6376 -2.5523 0
M  V30 2 C -6.3682 0.0361 -2.375 0
M  V30 3 C -6.3977 1.4205 -2.2675 0
M  V30 4 C -5.1675 -0.6608 -2.3008 0
M  V30 5 C -5.2037 2.1211 -2.0825 0
M  V30 6 C -3.9697 0.0366 -2.1158 0
M  V30 7 C -3.9805 1.4349 -2.0054 0
M  V30 8 C -2.7297 2.2321 -1.8066 0
M  V30 9 O -2.8104 3.4546 -1.7012 0
M  V30 10 C -1.4025 1.4967 -1.7433 0
M  V30 11 C -0.2253 2.4524 -1.5346 0
M  V30 12 C 1.1308 1.7364 -1.5644 0
M  V30 13 N 1.2463 0.6354 -0.5949 0
M  V30 14 C 1.2994 1.1306 0.8003 0
M  V30 15 C 2.4844 -0.1396 -0.8545 0
M  V30 16 C 1.476 0.0022 1.8449 0
M  V30 17 C 2.6901 -1.3102 0.1316 0
M  V30 18 N 2.6317 -0.8454 1.5262 0
M  V30 19 C 3.0833 -1.7504 2.4832 0
M  V30 20 N 3.4139 -3.0025 2.0907 0
M  V30 21 C 3.2336 -1.3778 3.8204 0
M  V30 22 C 3.8596 -3.8824 3.0156 0
M  V30 23 C 3.6966 -2.2984 4.762 0
M  V30 24 C 4.0134 -3.5826 4.3539 0
M  V30 25 H -7.3453 1.9467 -2.3277 0
M  V30 26 H -5.1714 -1.7433 -2.3868 0
M  V30 27 H -5.2312 3.2065 -1.9985 0
M  V30 28 H -3.0473 -0.5343 -2.06 0
M  V30 29 H -1.4488 0.7843 -0.9127 0
M  V30 30 H -1.2624 0.953 -2.6842 0
M  V30 31 H -0.2284 3.2114 -2.3278 0
M  V30 32 H -0.3509 3.0025 -0.5944 0
M  V30 33 H 1.259 1.3333 -2.5777 0
M  V30 34 H 1.9317 2.4728 -1.4183 0
M  V30 35 H 2.1234 1.848 0.9143 0
M  V30 36 H 0.3713 1.6574 1.0477 0
M  V30 37 H 2.4481 -0.5567 -1.8683 0
M  V30 38 H 3.3595 0.523 -0.8053 0
M  V30 39 H 0.569 -0.6155 1.8717 0
M  V30 40 H 1.5756 0.4831 2.8233 0
M  V30 41 H 3.6671 -1.7571 -0.092 0
M  V30 42 H 1.9176 -2.0712 -0.0403 0
M  V30 43 H 3.0243 -0.3653 4.1442 0
M  V30 44 H 4.0988 -4.8696 2.6317 0
M  V30 45 H 3.8154 -2.0043 5.8004 0
M  V30 46 H 4.3778 -4.3248 5.0539 0
M  V30 END ATOM
M  V30 BEGIN BOND
M  V30 1 1 1 2
M  V30 2 2 2 3
M  V30 3 1 2 4
M  V30 4 1 3 5
M  V30 5 2 4 6
M  V30 6 2 5 7
M  V30 7 1 7 8
M  V30 8 2 8 9
M  V30 9 1 8 10
M  V30 10 1 10 11
M  V30 11 1 11 12
M  V30 12 1 12 13
M  V30 13 1 13 14
M  V30 14 1 13 15
M  V30 15 1 14 16
M  V30 16 1 15 17
M  V30 17 1 16 18
M  V30 18 1 18 19
M  V30 19 2 19 20
M  V30 20 1 19 21
M  V30 21 1 20 22
M  V30 22 2 21 23
M  V30 23 2 22 24
M  V30 24 1 6 7
M  V30 25 1 17 18
M  V30 26 1 23 24
M  V30 27 1 3 25
M  V30 28 1 4 26
M  V30 29 1 5 27
M  V30 30 1 6 28
M  V30 31 1 10 29
M  V30 32 1 10 30
M  V30 33 1 11 31
M  V30 34 1 11 32
M  V30 35 1 12 33
M  V30 36 1 12 34
M  V30 37 1 14 35
M  V30 38 1 14 36
M  V30 39 1 15 37
M  V30 40 1 15 38
M  V30 41 1 16 39
M  V30 42 1 16 40
M  V30 43 1 17 41
M  V30 44 1 17 42
M  V30 45 1 21 43
M  V30 46 1 22 44
M  V30 47 1 23 45
M  V30 48 1 24 46
M  V30 END BOND
M  V30 END CTAB
M  END
>  <NO.>
2373

>  <Name>
azaperone

>  <SMILES>
O=C(CCCN1CCN(c2ccccn2)CC1)c1ccc(F)cc1

>  <logBB>


>  <Class>
1

>  <MW>
327.17

>  <nHBAcc>
4

>  <nHBDon>
0

>  <SLogP>
3.01

>  <TopoPSA>
36.44

>  <MMFF94 Energy>
87.301

$$$$
O=C(CCCN1CCN2CCCC2C1)c1ccc(F)cc1
Actelion Java MolfileCreator 2.0

  0  0  0  0  0  0              0 V3000
M  V30 BEGIN CTAB
M  V30 COUNTS 44 46 0 0 0
M  V30 BEGIN ATOM
M  V30 1 F 3.0353 4.9559 -5.036 0
M  V30 2 C 2.5252 4.5122 -3.8803 0
M  V30 3 C 1.8389 5.3905 -3.0516 0
M  V30 4 C 2.6902 3.1778 -3.5268 0
M  V30 5 C 1.3078 4.9253 -1.8465 0
M  V30 6 C 2.1603 2.708 -2.321 0
M  V30 7 C 1.4643 3.5807 -1.4717 0
M  V30 8 C 0.8768 3.1326 -0.1703 0
M  V30 9 O 0.2756 3.9482 0.5265 0
M  V30 10 C 1.0502 1.6817 0.2433 0
M  V30 11 C 0.3691 1.3804 1.5805 0
M  V30 12 C 0.6209 -0.0531 2.0642 0
M  V30 13 N 0.2348 -1.0907 1.0957 0
M  V30 14 C -1.2288 -1.1599 0.9047 0
M  V30 15 C 0.7246 -2.4128 1.5419 0
M  V30 16 C -1.6435 -2.2898 -0.0799 0 CFG=1
M  V30 17 C 0.319 -3.5554 0.5821 0
M  V30 18 N -1.1076 -3.6242 0.245 0
M  V30 19 C -3.1489 -2.5395 -0.053 0
M  V30 20 C -1.9465 -4.1428 1.3229 0
M  V30 21 C -3.3475 -3.6752 0.9479 0
M  V30 22 H 1.7202 6.4288 -3.3452 0
M  V30 23 H 3.2301 2.5112 -4.1925 0
M  V30 24 H 0.7701 5.617 -1.1997 0
M  V30 25 H 2.3037 1.6605 -2.0715 0
M  V30 26 H 0.6158 1.0507 -0.5392 0
M  V30 27 H 2.1223 1.4724 0.329 0
M  V30 28 H 0.7485 2.07 2.3458 0
M  V30 29 H -0.7066 1.5792 1.5064 0
M  V30 30 H 1.6964 -0.1396 2.268 0
M  V30 31 H 0.1088 -0.205 3.0233 0
M  V30 32 H -1.7289 -1.2977 1.873 0
M  V30 33 H -1.5971 -0.2157 0.4874 0
M  V30 34 H 0.3571 -2.6365 2.5518 0
M  V30 35 H 1.8201 -2.3939 1.5952 0
M  V30 36 H -1.3287 -2.0027 -1.0911 0
M  V30 37 H 0.8734 -3.4241 -0.3564 0
M  V30 38 H 0.6541 -4.516 0.9918 0
M  V30 39 H -3.4938 -2.8686 -1.0412 0
M  V30 40 H -3.7279 -1.651 0.2192 0
M  V30 41 H -1.6767 -3.735 2.3039 0
M  V30 42 H -1.8936 -5.2343 1.385 0
M  V30 43 H -3.8948 -3.3327 1.8325 0
M  V30 44 H -3.9257 -4.4842 0.4875 0
M  V30 END ATOM
M  V30 BEGIN BOND
M  V30 1 1 1 2
M  V30 2 2 2 3
M  V30 3 1 2 4
M  V30 4 1 3 5
M  V30 5 2 4 6
M  V30 6 2 5 7
M  V30 7 1 7 8
M  V30 8 2 8 9
M  V30 9 1 8 10
M  V30 10 1 10 11
M  V30 11 1 11 12
M  V30 12 1 12 13
M  V30 13 1 13 14
M  V30 14 1 13 15
M  V30 15 1 14 16
M  V30 16 1 15 17
M  V30 17 1 16 18
M  V30 18 1 16 19
M  V30 19 1 18 20
M  V30 20 1 19 21
M  V30 21 1 6 7
M  V30 22 1 17 18
M  V30 23 1 20 21
M  V30 24 1 3 22
M  V30 25 1 4 23
M  V30 26 1 5 24
M  V30 27 1 6 25
M  V30 28 1 10 26
M  V30 29 1 10 27
M  V30 30 1 11 28
M  V30 31 1 11 29
M  V30 32 1 12 30
M  V30 33 1 12 31
M  V30 34 1 14 32
M  V30 35 1 14 33
M  V30 36 1 15 34
M  V30 37 1 15 35
M  V30 38 1 16 36
M  V30 39 1 17 37
M  V30 40 1 17 38
M  V30 41 1 19 39
M  V30 42 1 19 40
M  V30 43 1 20 41
M  V30 44 1 20 42
M  V30 45 1 21 43
M  V30 46 1 21 44
M  V30 END BOND
M  V30 BEGIN COLLECTION
M  V30 MDLV30/STERAC1 ATOMS=(1 16)
M  V30 END COLLECTION
M  V30 END CTAB
M  END
>  <NO.>
2374

>  <Name>
azabuperone

>  <SMILES>
O=C(CCCN1CCN2CCCC2C1)c1ccc(F)cc1

>  <logBB>


>  <Class>
1

>  <MW>
290.18

>  <nHBAcc>
3

>  <nHBDon>
0

>  <SLogP>
2.57

>  <TopoPSA>
23.55

>  <MMFF94 Energy>
104.43

$$$$
O=C(CCCN1CCN2Cc3[nH]c4ccccc4c3CC2C1)c1ccc(F)cc1
Actelion Java MolfileCreator 2.0

  0  0  0  0  0  0              0 V3000
M  V30 BEGIN CTAB
M  V30 COUNTS 55 59 0 0 0
M  V30 BEGIN ATOM
M  V30 1 F 1.5273 -6.5237 -7.7354 0
M  V30 2 C 1.1855 -5.6605 -6.7706 0
M  V30 3 C 0.2861 -4.6401 -7.0503 0
M  V30 4 C 1.7362 -5.7993 -5.5016 0
M  V30 5 C -0.0686 -3.7414 -6.0419 0
M  V30 6 C 1.3837 -4.9016 -4.4889 0
M  V30 7 C 0.4779 -3.8641 -4.7538 0
M  V30 8 C 0.0637 -2.8755 -3.7096 0
M  V30 9 O -0.7801 -2.028 -3.9927 0
M  V30 10 C 0.6978 -2.9633 -2.3312 0
M  V30 11 C 0.2394 -1.8286 -1.4114 0
M  V30 12 C 0.8632 -1.9655 -0.0173 0
M  V30 13 N 0.595 -0.8095 0.8499 0
M  V30 14 C -0.8341 -0.6931 1.216 0
M  V30 15 C 1.4008 -0.9031 2.0884 0
M  V30 16 C -1.118 0.4842 2.1904 0 CFG=1
M  V30 17 C 1.1294 0.2467 3.0876 0
M  V30 18 N -0.2988 0.3379 3.4372 0
M  V30 19 C -0.9534 1.8502 1.4444 0
M  V30 20 C -0.5713 1.4089 4.4141 0
M  V30 21 C -0.8973 2.9744 2.4204 0
M  V30 22 C -0.6977 2.7392 3.7631 0
M  V30 23 C -0.9886 4.3787 2.2344 0
M  V30 24 N -0.6711 3.9437 4.4074 0
M  V30 25 C -0.846 4.9644 3.4958 0
M  V30 26 C -1.1758 5.2149 1.1171 0
M  V30 27 C -0.8867 6.3502 3.6918 0
M  V30 28 C -1.2181 6.6022 1.2975 0
M  V30 29 C -1.0761 7.1587 2.5668 0
M  V30 30 H -0.1337 -4.5482 -8.0471 0
M  V30 31 H 2.4363 -6.6067 -5.309 0
M  V30 32 H -0.7745 -2.9427 -6.2655 0
M  V30 33 H 1.8277 -5.0369 -3.5074 0
M  V30 34 H 0.4213 -3.9251 -1.8849 0
M  V30 35 H 1.7865 -2.9136 -2.4431 0
M  V30 36 H 0.5194 -0.8641 -1.8538 0
M  V30 37 H -0.8544 -1.845 -1.3443 0
M  V30 38 H 0.5203 -2.8959 0.4537 0
M  V30 39 H 1.9491 -2.0581 -0.149 0
M  V30 40 H -1.4425 -0.5359 0.3186 0
M  V30 41 H -1.1795 -1.6271 1.6802 0
M  V30 42 H 1.2096 -1.8603 2.5927 0
M  V30 43 H 2.4665 -0.8798 1.8302 0
M  V30 44 H -2.1713 0.3984 2.4943 0
M  V30 45 H 1.5068 1.1869 2.6667 0
M  V30 46 H 1.7125 0.0458 3.9946 0
M  V30 47 H -1.7951 1.991 0.7562 0
M  V30 48 H -0.0343 1.865 0.8469 0
M  V30 49 H 0.1936 1.4247 5.1994 0
M  V30 50 H -1.52 1.1781 4.9147 0
M  V30 51 H -0.5461 4.0795 5.4006 0
M  V30 52 H -1.2861 4.789 0.1247 0
M  V30 53 H -0.7748 6.7879 4.678 0
M  V30 54 H -1.3629 7.2496 0.4364 0
M  V30 55 H -1.1118 8.2391 2.6854 0
M  V30 END ATOM
M  V30 BEGIN BOND
M  V30 1 1 1 2
M  V30 2 2 2 3
M  V30 3 1 2 4
M  V30 4 1 3 5
M  V30 5 2 4 6
M  V30 6 2 5 7
M  V30 7 1 7 8
M  V30 8 2 8 9
M  V30 9 1 8 10
M  V30 10 1 10 11
M  V30 11 1 11 12
M  V30 12 1 12 13
M  V30 13 1 13 14
M  V30 14 1 13 15
M  V30 15 1 14 16
M  V30 16 1 15 17
M  V30 17 1 16 18
M  V30 18 1 16 19
M  V30 19 1 18 20
M  V30 20 1 19 21
M  V30 21 1 20 22
M  V30 22 1 21 23
M  V30 23 1 22 24
M  V30 24 2 23 25
M  V30 25 1 23 26
M  V30 26 1 25 27
M  V30 27 2 26 28
M  V30 28 2 27 29
M  V30 29 1 6 7
M  V30 30 1 17 18
M  V30 31 2 21 22
M  V30 32 1 24 25
M  V30 33 1 28 29
M  V30 34 1 3 30
M  V30 35 1 4 31
M  V30 36 1 5 32
M  V30 37 1 6 33
M  V30 38 1 10 34
M  V30 39 1 10 35
M  V30 40 1 11 36
M  V30 41 1 11 37
M  V30 42 1 12 38
M  V30 43 1 12 39
M  V30 44 1 14 40
M  V30 45 1 14 41
M  V30 46 1 15 42
M  V30 47 1 15 43
M  V30 48 1 16 44
M  V30 49 1 17 45
M  V30 50 1 17 46
M  V30 51 1 19 47
M  V30 52 1 19 48
M  V30 53 1 20 49
M  V30 54 1 20 50
M  V30 55 1 24 51
M  V30 56 1 26 52
M  V30 57 1 27 53
M  V30 58 1 28 54
M  V30 59 1 29 55
M  V30 END BOND
M  V30 BEGIN COLLECTION
M  V30 MDLV30/STERAC1 ATOMS=(1 16)
M  V30 END COLLECTION
M  V30 END CTAB
M  END
>  <NO.>
2375

>  <Name>
biriperone

>  <SMILES>
O=C(CCCN1CCN2Cc3[nH]c4ccccc4c3CC2C1)c1ccc(F)cc1

>  <logBB>


>  <Class>
1

>  <MW>
391.21

>  <nHBAcc>
3

>  <nHBDon>
1

>  <SLogP>
4.01

>  <TopoPSA>
39.34

>  <MMFF94 Energy>
126.4

$$$$
O=C(CCCl)NCCc1ccccc1
Actelion Java MolfileCreator 2.0

  0  0  0  0  0  0              0 V3000
M  V30 BEGIN CTAB
M  V30 COUNTS 28 28 0 0 0
M  V30 BEGIN ATOM
M  V30 1 Cl 4.4455 -1.6652 1.5859 0
M  V30 2 C 3.3767 -3.0954 1.5793 0
M  V30 3 C 1.9985 -2.7568 2.1156 0
M  V30 4 C 1.154 -2.0912 1.0552 0
M  V30 5 O 0.3529 -2.7238 0.3746 0
M  V30 6 N 1.3678 -0.7404 0.921 0
M  V30 7 C 0.6542 0.0558 -0.0599 0
M  V30 8 C -0.758 0.4161 0.4056 0
M  V30 9 C -1.4734 1.2804 -0.6019 0
M  V30 10 C -1.4477 2.677 -0.4917 0
M  V30 11 C -2.1502 0.6943 -1.6801 0
M  V30 12 C -2.0949 3.4719 -1.4393 0
M  V30 13 C -2.7964 1.4909 -2.6263 0
M  V30 14 C -2.7691 2.8791 -2.5055 0
M  V30 15 H 3.8555 -3.846 2.2148 0
M  V30 16 H 3.3386 -3.478 0.5549 0
M  V30 17 H 2.0477 -2.1262 3.0106 0
M  V30 18 H 1.4828 -3.6804 2.4048 0
M  V30 19 H 2.0969 -0.2958 1.4676 0
M  V30 20 H 0.6216 -0.5012 -1.0037 0
M  V30 21 H 1.2482 0.9611 -0.229 0
M  V30 22 H -1.3473 -0.4911 0.5895 0
M  V30 23 H -0.7125 0.9348 1.3722 0
M  V30 24 H -0.9252 3.1554 0.3334 0
M  V30 25 H -2.1771 -0.3886 -1.7873 0
M  V30 26 H -2.0734 4.5546 -1.3458 0
M  V30 27 H -3.3208 1.0273 -3.4577 0
M  V30 28 H -3.2731 3.4986 -3.2426 0
M  V30 END ATOM
M  V30 BEGIN BOND
M  V30 1 1 1 2
M  V30 2 1 2 3
M  V30 3 1 3 4
M  V30 4 2 4 5
M  V30 5 1 4 6
M  V30 6 1 6 7
M  V30 7 1 7 8
M  V30 8 1 8 9
M  V30 9 2 9 10
M  V30 10 1 9 11
M  V30 11 1 10 12
M  V30 12 2 11 13
M  V30 13 2 12 14
M  V30 14 1 13 14
M  V30 15 1 2 15
M  V30 16 1 2 16
M  V30 17 1 3 17
M  V30 18 1 3 18
M  V30 19 1 6 19
M  V30 20 1 7 20
M  V30 21 1 7 21
M  V30 22 1 8 22
M  V30 23 1 8 23
M  V30 24 1 10 24
M  V30 25 1 11 25
M  V30 26 1 12 26
M  V30 27 1 13 27
M  V30 28 1 14 28
M  V30 END BOND
M  V30 END CTAB
M  END
>  <NO.>
2376

>  <Name>
fenaclon

>  <SMILES>
O=C(CCCl)NCCc1ccccc1

>  <logBB>


>  <Class>
1

>  <MW>
211.08

>  <nHBAcc>
1

>  <nHBDon>
1

>  <SLogP>
1.97

>  <TopoPSA>
29.1

>  <MMFF94 Energy>
-3.9336

$$$$
O=C(CCCl)NCc1ccccc1
Actelion Java MolfileCreator 2.0

  0  0  0  0  0  0              0 V3000
M  V30 BEGIN CTAB
M  V30 COUNTS 25 25 0 0 0
M  V30 BEGIN ATOM
M  V30 1 Cl 1.1122 5.3316 -0.9533 0
M  V30 2 C 1.2202 3.6362 -1.4892 0
M  V30 3 C 1.1382 2.7054 -0.2941 0
M  V30 4 C 1.2311 1.2615 -0.7301 0
M  V30 5 O 1.362 0.9193 -1.8994 0
M  V30 6 N 1.1542 0.3785 0.3212 0
M  V30 7 C 1.1784 -1.0543 0.1323 0
M  V30 8 C -0.1832 -1.6418 0.3936 0
M  V30 9 C -0.4881 -2.2316 1.6283 0
M  V30 10 C -1.1796 -1.573 -0.591 0
M  V30 11 C -1.7605 -2.7543 1.8666 0
M  V30 12 C -2.4507 -2.0956 -0.3505 0
M  V30 13 C -2.7403 -2.6869 0.8775 0
M  V30 14 H 2.1666 3.5175 -2.0258 0
M  V30 15 H 0.4015 3.4576 -2.1933 0
M  V30 16 H 0.1895 2.8448 0.2378 0
M  V30 17 H 1.9557 2.9066 0.4081 0
M  V30 18 H 0.9944 0.725 1.2575 0
M  V30 19 H 1.5158 -1.3147 -0.8768 0
M  V30 20 H 1.914 -1.4614 0.8347 0
M  V30 21 H 0.2632 -2.2909 2.4121 0
M  V30 22 H -0.9648 -1.1074 -1.5518 0
M  V30 23 H -1.9886 -3.2145 2.8245 0
M  V30 24 H -3.2146 -2.0397 -1.1217 0
M  V30 25 H -3.7305 -3.0944 1.0638 0
M  V30 END ATOM
M  V30 BEGIN BOND
M  V30 1 1 1 2
M  V30 2 1 2 3
M  V30 3 1 3 4
M  V30 4 2 4 5
M  V30 5 1 4 6
M  V30 6 1 6 7
M  V30 7 1 7 8
M  V30 8 2 8 9
M  V30 9 1 8 10
M  V30 10 1 9 11
M  V30 11 2 10 12
M  V30 12 2 11 13
M  V30 13 1 12 13
M  V30 14 1 2 14
M  V30 15 1 2 15
M  V30 16 1 3 16
M  V30 17 1 3 17
M  V30 18 1 6 18
M  V30 19 1 7 19
M  V30 20 1 7 20
M  V30 21 1 9 21
M  V30 22 1 10 22
M  V30 23 1 11 23
M  V30 24 1 12 24
M  V30 25 1 13 25
M  V30 END BOND
M  V30 END CTAB
M  END
>  <NO.>
2377

>  <Name>
beclamide

>  <SMILES>
O=C(CCCl)NCc1ccccc1

>  <logBB>


>  <Class>
1

>  <MW>
197.06

>  <nHBAcc>
1

>  <nHBDon>
1

>  <SLogP>
1.93

>  <TopoPSA>
29.1

>  <MMFF94 Energy>
-20.209

$$$$
O=C(CCN1CCN(CCO)CC1)N1c2ccccc2Sc2ccc(C(F)(F)F)cc21
Actelion Java MolfileCreator 2.0

  0  0  0  0  0  0              0 V3000
M  V30 BEGIN CTAB
M  V30 COUNTS 55 58 0 0 0
M  V30 BEGIN ATOM
M  V30 1 S -5.3034 1.059 0.6515 0
M  V30 2 C -4.0271 -0.1609 0.3967 0
M  V30 3 C -5.0497 2.0207 -0.8347 0
M  V30 4 C -2.8966 0.1212 -0.3876 0
M  V30 5 C -4.1953 -1.4389 0.9398 0
M  V30 6 C -3.7938 2.0702 -1.4693 0
M  V30 7 C -6.1377 2.7108 -1.383 0
M  V30 8 N -2.6578 1.4382 -0.8721 0
M  V30 9 C -2.0021 -0.9131 -0.7023 0
M  V30 10 C -3.2719 -2.4499 0.6639 0
M  V30 11 C -3.6623 2.7824 -2.6694 0
M  V30 12 C -5.9898 3.4257 -2.5721 0
M  V30 13 C -1.5021 2.1881 -0.6162 0
M  V30 14 C -2.1791 -2.2047 -0.1787 0
M  V30 15 C -4.756 3.4556 -3.2178 0
M  V30 16 O -1.2781 3.2896 -1.1314 0
M  V30 17 C -0.4864 1.6485 0.382 0
M  V30 18 C -1.1806 -3.2964 -0.48 0
M  V30 19 C 0.8383 1.3799 -0.3334 0
M  V30 20 F -1.7294 -4.5414 -0.4759 0
M  V30 21 F -0.5862 -3.151 -1.6959 0
M  V30 22 F -0.1691 -3.325 0.4305 0
M  V30 23 N 1.8532 0.7848 0.5541 0
M  V30 24 C 1.5889 -0.6441 0.826 0
M  V30 25 C 3.1951 0.9053 -0.0572 0
M  V30 26 C 2.6974 -1.3002 1.6812 0
M  V30 27 C 4.3036 0.2503 0.7998 0
M  V30 28 N 4.0359 -1.1779 1.0648 0
M  V30 29 C 5.0506 -1.7734 1.9529 0
M  V30 30 C 6.43 -1.9339 1.2994 0
M  V30 31 O 7.3093 -2.606 2.1988 0
M  V30 32 H -5.0599 -1.6636 1.5619 0
M  V30 33 H -7.1097 2.6866 -0.8957 0
M  V30 34 H -1.1582 -0.7185 -1.3618 0
M  V30 35 H -3.4239 -3.4404 1.0928 0
M  V30 36 H -2.7028 2.8343 -3.1786 0
M  V30 37 H -6.8383 3.9576 -2.9958 0
M  V30 38 H -4.6383 4.0146 -4.1429 0
M  V30 39 H -0.8563 0.7802 0.9256 0
M  V30 40 H -0.3431 2.4269 1.1432 0
M  V30 41 H 0.6855 0.759 -1.2251 0
M  V30 42 H 1.209 2.3464 -0.7016 0
M  V30 43 H 0.6462 -0.755 1.3721 0
M  V30 44 H 1.4896 -1.2009 -0.1154 0
M  V30 45 H 3.202 0.4524 -1.0582 0
M  V30 46 H 3.446 1.9664 -0.177 0
M  V30 47 H 2.6914 -0.8475 2.6823 0
M  V30 48 H 2.447 -2.3614 1.8009 0
M  V30 49 H 4.4035 0.8061 1.742 0
M  V30 50 H 5.2465 0.3593 0.253 0
M  V30 51 H 4.7234 -2.7773 2.2561 0
M  V30 52 H 5.1501 -1.2035 2.8867 0
M  V30 53 H 6.355 -2.529 0.3832 0
M  V30 54 H 6.8763 -0.9646 1.0597 0
M  V30 55 H 8.1504 -2.7303 1.7268 0
M  V30 END ATOM
M  V30 BEGIN BOND
M  V30 1 1 1 2
M  V30 2 1 1 3
M  V30 3 2 2 4
M  V30 4 1 2 5
M  V30 5 2 3 6
M  V30 6 1 3 7
M  V30 7 1 4 8
M  V30 8 1 4 9
M  V30 9 2 5 10
M  V30 10 1 6 11
M  V30 11 2 7 12
M  V30 12 1 8 13
M  V30 13 2 9 14
M  V30 14 2 11 15
M  V30 15 2 13 16
M  V30 16 1 13 17
M  V30 17 1 14 18
M  V30 18 1 17 19
M  V30 19 1 18 20
M  V30 20 1 18 21
M  V30 21 1 18 22
M  V30 22 1 19 23
M  V30 23 1 23 24
M  V30 24 1 23 25
M  V30 25 1 24 26
M  V30 26 1 25 27
M  V30 27 1 26 28
M  V30 28 1 28 29
M  V30 29 1 29 30
M  V30 30 1 30 31
M  V30 31 1 6 8
M  V30 32 1 10 14
M  V30 33 1 12 15
M  V30 34 1 27 28
M  V30 35 1 5 32
M  V30 36 1 7 33
M  V30 37 1 9 34
M  V30 38 1 10 35
M  V30 39 1 11 36
M  V30 40 1 12 37
M  V30 41 1 15 38
M  V30 42 1 17 39
M  V30 43 1 17 40
M  V30 44 1 19 41
M  V30 45 1 19 42
M  V30 46 1 24 43
M  V30 47 1 24 44
M  V30 48 1 25 45
M  V30 49 1 25 46
M  V30 50 1 26 47
M  V30 51 1 26 48
M  V30 52 1 27 49
M  V30 53 1 27 50
M  V30 54 1 29 51
M  V30 55 1 29 52
M  V30 56 1 30 53
M  V30 57 1 30 54
M  V30 58 1 31 55
M  V30 END BOND
M  V30 END CTAB
M  END
>  <NO.>
2378

>  <Name>
ftorpropazine

>  <SMILES>
O=C(CCN1CCN(CCO)CC1)N1c2ccccc2Sc2ccc(C(F)(F)F)cc21

>  <logBB>


>  <Class>
1

>  <MW>
451.15

>  <nHBAcc>
5

>  <nHBDon>
1

>  <SLogP>
3.83

>  <TopoPSA>
47.02

>  <MMFF94 Energy>
179.92

$$$$
O=C(CCNNC(=O)c1ccncc1)NCc1ccccc1
Actelion Java MolfileCreator 2.0

  0  0  0  0  0  0              0 V3000
M  V30 BEGIN CTAB
M  V30 COUNTS 40 41 0 0 0
M  V30 BEGIN ATOM
M  V30 1 O 2.8366 -3.0732 0.551 0
M  V30 2 C 3.6097 -2.1748 0.2263 0
M  V30 3 N 3.3235 -0.8282 0.4095 0
M  V30 4 C 4.9343 -2.5 -0.3621 0
M  V30 5 N 2.078 -0.4618 0.9652 0
M  V30 6 C 5.5024 -3.7378 -0.0579 0
M  V30 7 C 5.601 -1.6279 -1.2235 0
M  V30 8 C 1.1957 0.0833 -0.0781 0
M  V30 9 C 6.7328 -4.0415 -0.6085 0
M  V30 10 C 6.8274 -2.0283 -1.7243 0
M  V30 11 C -0.1642 0.4284 0.5176 0
M  V30 12 N 7.4096 -3.2095 -1.4287 0
M  V30 13 C -1.0851 1.0237 -0.5254 0
M  V30 14 O -0.7526 1.2408 -1.6852 0
M  V30 15 N -2.3397 1.3049 -0.0375 0
M  V30 16 C -3.3586 1.8778 -0.8842 0
M  V30 17 C -4.6351 2.086 -0.1156 0
M  V30 18 C -5.5923 1.0645 -0.0369 0
M  V30 19 C -4.8621 3.285 0.575 0
M  V30 20 C -6.7621 1.2467 0.7025 0
M  V30 21 C -6.0326 3.465 1.3138 0
M  V30 22 C -6.9823 2.4468 1.3761 0
M  V30 23 H 4.0155 -0.1019 0.2528 0
M  V30 24 H 1.6548 -1.3291 1.3277 0
M  V30 25 H 4.9994 -4.4459 0.5929 0
M  V30 26 H 5.1833 -0.6773 -1.5316 0
M  V30 27 H 1.6519 0.9835 -0.5088 0
M  V30 28 H 1.0723 -0.6452 -0.8895 0
M  V30 29 H 7.2219 -4.9892 -0.4008 0
M  V30 30 H 7.3908 -1.3942 -2.4039 0
M  V30 31 H -0.6415 -0.4695 0.9286 0
M  V30 32 H -0.0534 1.1565 1.3306 0
M  V30 33 H -2.567 1.1102 0.9293 0
M  V30 34 H -2.9874 2.8271 -1.2884 0
M  V30 35 H -3.5224 1.2106 -1.7387 0
M  V30 36 H -5.4308 0.1204 -0.5533 0
M  V30 37 H -4.1267 4.0863 0.5395 0
M  V30 38 H -7.5018 0.4516 0.7536 0
M  V30 39 H -6.2035 4.3999 1.8417 0
M  V30 40 H -7.8941 2.5882 1.9509 0
M  V30 END ATOM
M  V30 BEGIN BOND
M  V30 1 2 1 2
M  V30 2 1 2 3
M  V30 3 1 2 4
M  V30 4 1 3 5
M  V30 5 2 4 6
M  V30 6 1 4 7
M  V30 7 1 5 8
M  V30 8 1 6 9
M  V30 9 2 7 10
M  V30 10 1 8 11
M  V30 11 2 9 12
M  V30 12 1 11 13
M  V30 13 2 13 14
M  V30 14 1 13 15
M  V30 15 1 15 16
M  V30 16 1 16 17
M  V30 17 2 17 18
M  V30 18 1 17 19
M  V30 19 1 18 20
M  V30 20 2 19 21
M  V30 21 2 20 22
M  V30 22 1 10 12
M  V30 23 1 21 22
M  V30 24 1 3 23
M  V30 25 1 5 24
M  V30 26 1 6 25
M  V30 27 1 7 26
M  V30 28 1 8 27
M  V30 29 1 8 28
M  V30 30 1 9 29
M  V30 31 1 10 30
M  V30 32 1 11 31
M  V30 33 1 11 32
M  V30 34 1 15 33
M  V30 35 1 16 34
M  V30 36 1 16 35
M  V30 37 1 18 36
M  V30 38 1 19 37
M  V30 39 1 20 38
M  V30 40 1 21 39
M  V30 41 1 22 40
M  V30 END BOND
M  V30 END CTAB
M  END
>  <NO.>
2379

>  <Name>
nialamide

>  <SMILES>
O=C(CCNNC(=O)c1ccncc1)NCc1ccccc1

>  <logBB>


>  <Class>
1

>  <MW>
298.14

>  <nHBAcc>
4

>  <nHBDon>
3

>  <SLogP>
1.02

>  <TopoPSA>
83.12

>  <MMFF94 Energy>
31.935

$$$$
O=C(CN1CCC23CCCCC2C1Cc1ccc(O)cc13)c1ccccc1
Actelion Java MolfileCreator 2.0

  0  0  0  0  0  0              0 V3000
M  V30 BEGIN CTAB
M  V30 COUNTS 54 58 0 0 0
M  V30 BEGIN ATOM
M  V30 1 O -1.208 -3.2239 -1.208 0
M  V30 2 C -2.0781 -2.3759 -1.0121 0
M  V30 3 C -3.4178 -2.8373 -0.533 0
M  V30 4 C -1.8823 -0.8728 -1.2466 0
M  V30 5 C -3.5252 -4.1303 -0.0011 0
M  V30 6 C -4.561 -2.031 -0.6074 0
M  V30 7 N -0.4618 -0.4772 -1.3323 0
M  V30 8 C -4.7534 -4.6051 0.4624 0
M  V30 9 C -5.7891 -2.5105 -0.1423 0
M  V30 10 C 0.3228 -0.7013 -0.0884 0
M  V30 11 C -0.334 0.885 -1.8636 0
M  V30 12 C -5.8839 -3.7939 0.3935 0
M  V30 13 C 1.8101 -0.4633 -0.4135 0
M  V30 14 C -0.0897 0.1325 1.1471 0
M  V30 15 C 1.1313 1.2936 -2.0577 0
M  V30 16 C 2.0009 1.0278 -0.8021 0
M  V30 17 C 2.7653 -0.9132 0.7103 0
M  V30 18 C 0.4939 1.527 1.2119 0
M  V30 19 C 1.4966 1.9616 0.3157 0
M  V30 20 C 3.4965 1.2324 -1.1709 0
M  V30 21 C 4.2222 -0.6544 0.3376 0
M  V30 22 C 0.0261 2.3914 2.2183 0
M  V30 23 C 1.9578 3.2853 0.4306 0
M  V30 24 C 4.4519 0.8 -0.0575 0
M  V30 25 C 0.5171 3.6899 2.3297 0
M  V30 26 C 1.4756 4.1274 1.4286 0
M  V30 27 O 1.9759 5.3952 1.4846 0
M  V30 28 H -2.3942 -0.2994 -0.4684 0
M  V30 29 H -2.3697 -0.6604 -2.2067 0
M  V30 30 H -2.6495 -4.775 0.054 0
M  V30 31 H -4.5312 -1.0335 -1.035 0
M  V30 32 H -4.8259 -5.6091 0.8734 0
M  V30 33 H -6.6761 -1.8839 -0.2035 0
M  V30 34 H 0.2186 -1.7565 0.1883 0
M  V30 35 H -0.8547 1.6098 -1.2263 0
M  V30 36 H -0.8204 0.9407 -2.8458 0
M  V30 37 H -6.8411 -4.1652 0.7519 0
M  V30 38 H 2.0629 -1.0852 -1.2874 0
M  V30 39 H -1.1802 0.1921 1.2275 0
M  V30 40 H 0.2448 -0.4008 2.0472 0
M  V30 41 H 1.5339 0.726 -2.908 0
M  V30 42 H 1.1746 2.3515 -2.3473 0
M  V30 43 H 2.552 -0.3985 1.6532 0
M  V30 44 H 2.6278 -1.984 0.9021 0
M  V30 45 H 3.7101 2.2673 -1.4575 0
M  V30 46 H 3.7306 0.6336 -2.0625 0
M  V30 47 H 4.8715 -0.9156 1.1808 0
M  V30 48 H 4.5061 -1.3081 -0.4961 0
M  V30 49 H -0.7312 2.0498 2.9209 0
M  V30 50 H 2.6943 3.6889 -0.2571 0
M  V30 51 H 4.3295 1.4452 0.8198 0
M  V30 52 H 5.4864 0.9241 -0.3975 0
M  V30 53 H 0.1382 4.3383 3.1126 0
M  V30 54 H 1.5675 5.8551 2.2359 0
M  V30 END ATOM
M  V30 BEGIN BOND
M  V30 1 2 1 2
M  V30 2 1 2 3
M  V30 3 1 2 4
M  V30 4 2 3 5
M  V30 5 1 3 6
M  V30 6 1 4 7
M  V30 7 1 5 8
M  V30 8 2 6 9
M  V30 9 1 7 10
M  V30 10 1 7 11
M  V30 11 2 8 12
M  V30 12 1 10 13
M  V30 13 1 10 14
M  V30 14 1 11 15
M  V30 15 1 13 16
M  V30 16 1 13 17
M  V30 17 1 14 18
M  V30 18 1 16 19
M  V30 19 1 16 20
M  V30 20 1 17 21
M  V30 21 1 18 22
M  V30 22 1 19 23
M  V30 23 1 20 24
M  V30 24 2 22 25
M  V30 25 2 23 26
M  V30 26 1 26 27
M  V30 27 1 9 12
M  V30 28 1 15 16
M  V30 29 2 18 19
M  V30 30 1 21 24
M  V30 31 1 25 26
M  V30 32 1 4 28
M  V30 33 1 4 29
M  V30 34 1 5 30
M  V30 35 1 6 31
M  V30 36 1 8 32
M  V30 37 1 9 33
M  V30 38 1 10 34
M  V30 39 1 11 35
M  V30 40 1 11 36
M  V30 41 1 12 37
M  V30 42 1 13 38
M  V30 43 1 14 39
M  V30 44 1 14 40
M  V30 45 1 15 41
M  V30 46 1 15 42
M  V30 47 1 17 43
M  V30 48 1 17 44
M  V30 49 1 20 45
M  V30 50 1 20 46
M  V30 51 1 21 47
M  V30 52 1 21 48
M  V30 53 1 22 49
M  V30 54 1 23 50
M  V30 55 1 24 51
M  V30 56 1 24 52
M  V30 57 1 25 53
M  V30 58 1 27 54
M  V30 END BOND
M  V30 END CTAB
M  END
>  <NO.>
2380

>  <Name>
morphinan-3-ol, 17-(2-oxo-2-phenylethyl)-

>  <SMILES>
O=C(CN1CCC23CCCCC2C1Cc1ccc(O)cc13)c1ccccc1

>  <logBB>


>  <Class>
1

>  <MW>
361.2

>  <nHBAcc>
3

>  <nHBDon>
1

>  <SLogP>
4.33

>  <TopoPSA>
40.54

>  <MMFF94 Energy>
114.15

$$$$
O=C(COc1ccc(Cl)cc1)N1CCN(Cc2ccc3c(c2)OCO3)CC1
Actelion Java MolfileCreator 2.0

  0  0  0  0  0  0              0 V3000
M  V30 BEGIN CTAB
M  V30 COUNTS 48 51 0 0 0
M  V30 BEGIN ATOM
M  V30 1 Cl -2.5062 -4.3688 -8.6707 0
M  V30 2 C -1.7272 -3.9437 -7.1974 0
M  V30 3 C -2.076 -2.7624 -6.5451 0
M  V30 4 C -0.7521 -4.7793 -6.6618 0
M  V30 5 C -1.4455 -2.4115 -5.3458 0
M  V30 6 C -0.1247 -4.4265 -5.4651 0
M  V30 7 C -0.4663 -3.2442 -4.8009 0
M  V30 8 O 0.2254 -3.0248 -3.6436 0
M  V30 9 C -0.0789 -1.8444 -2.9126 0
M  V30 10 C 0.7696 -1.7367 -1.6374 0
M  V30 11 O 1.5734 -2.6155 -1.3209 0
M  V30 12 N 0.585 -0.6022 -0.8532 0
M  V30 13 C 1.4295 -0.4017 0.3269 0
M  V30 14 C -0.2897 0.5292 -1.1702 0
M  V30 15 C 0.6222 0.1078 1.5354 0
M  V30 16 C -1.0658 1.0176 0.0689 0
M  V30 17 N -0.1747 1.3143 1.2087 0
M  V30 18 C -0.9647 1.7657 2.3671 0
M  V30 19 C -0.1136 2.3334 3.4844 0
M  V30 20 C -0.1729 1.7786 4.7734 0
M  V30 21 C 0.7371 3.4383 3.2407 0
M  V30 22 C 0.6153 2.3371 5.7578 0
M  V30 23 C 1.5244 3.9828 4.2599 0
M  V30 24 O 0.6801 1.9223 7.0516 0
M  V30 25 C 1.4401 3.4082 5.5084 0
M  V30 26 C 1.6444 2.8531 7.5859 0
M  V30 27 O 2.1281 3.802 6.6132 0
M  V30 28 H -2.8373 -2.1098 -6.9643 0
M  V30 29 H -0.4746 -5.7014 -7.1644 0
M  V30 30 H -1.7429 -1.4846 -4.868 0
M  V30 31 H 0.6382 -5.0778 -5.0437 0
M  V30 32 H -1.1311 -1.865 -2.6052 0
M  V30 33 H 0.1372 -0.9643 -3.5294 0
M  V30 34 H 1.9494 -1.3248 0.6017 0
M  V30 35 H 2.195 0.3336 0.0499 0
M  V30 36 H 0.3524 1.3316 -1.5532 0
M  V30 37 H -1.0002 0.2761 -1.9598 0
M  V30 38 H -0.0385 -0.6963 1.8857 0
M  V30 39 H 1.3328 0.3251 2.3407 0
M  V30 40 H -1.8014 0.2528 0.3522 0
M  V30 41 H -1.6208 1.9206 -0.2119 0
M  V30 42 H -1.6464 2.5707 2.0606 0
M  V30 43 H -1.6 0.9532 2.7438 0
M  V30 44 H -0.8128 0.9334 5.0018 0
M  V30 45 H 0.7878 3.867 2.2412 0
M  V30 46 H 2.18 4.8256 4.0746 0
M  V30 47 H 2.4973 2.2873 7.9781 0
M  V30 48 H 1.1791 3.404 8.4114 0
M  V30 END ATOM
M  V30 BEGIN BOND
M  V30 1 1 1 2
M  V30 2 2 2 3
M  V30 3 1 2 4
M  V30 4 1 3 5
M  V30 5 2 4 6
M  V30 6 2 5 7
M  V30 7 1 7 8
M  V30 8 1 8 9
M  V30 9 1 9 10
M  V30 10 2 10 11
M  V30 11 1 10 12
M  V30 12 1 12 13
M  V30 13 1 12 14
M  V30 14 1 13 15
M  V30 15 1 14 16
M  V30 16 1 15 17
M  V30 17 1 17 18
M  V30 18 1 18 19
M  V30 19 2 19 20
M  V30 20 1 19 21
M  V30 21 1 20 22
M  V30 22 2 21 23
M  V30 23 1 22 24
M  V30 24 2 22 25
M  V30 25 1 24 26
M  V30 26 1 25 27
M  V30 27 1 6 7
M  V30 28 1 16 17
M  V30 29 1 23 25
M  V30 30 1 26 27
M  V30 31 1 3 28
M  V30 32 1 4 29
M  V30 33 1 5 30
M  V30 34 1 6 31
M  V30 35 1 9 32
M  V30 36 1 9 33
M  V30 37 1 13 34
M  V30 38 1 13 35
M  V30 39 1 14 36
M  V30 40 1 14 37
M  V30 41 1 15 38
M  V30 42 1 15 39
M  V30 43 1 16 40
M  V30 44 1 16 41
M  V30 45 1 18 42
M  V30 46 1 18 43
M  V30 47 1 20 44
M  V30 48 1 21 45
M  V30 49 1 23 46
M  V30 50 1 26 47
M  V30 51 1 26 48
M  V30 END BOND
M  V30 END CTAB
M  END
>  <NO.>
2383

>  <Name>
fipexide

>  <SMILES>
O=C(COc1ccc(Cl)cc1)N1CCN(Cc2ccc3c(c2)OCO3)CC1

>  <logBB>


>  <Class>
1

>  <MW>
388.12

>  <nHBAcc>
5

>  <nHBDon>
0

>  <SLogP>
2.79

>  <TopoPSA>
51.24

>  <MMFF94 Energy>
107.09

$$$$
O=C(COc1ccc(Cl)cc1)OCCNC12CC3CC(CC(C3)C1)C2
Actelion Java MolfileCreator 2.0

  0  0  0  0  0  0              0 V3000
M  V30 BEGIN CTAB
M  V30 COUNTS 51 54 0 0 0
M  V30 BEGIN ATOM
M  V30 1 Cl 4.7757 2.5071 2.5071 0
M  V30 2 C 3.5263 1.4912 3.112 0
M  V30 3 C 2.8255 0.6608 2.2406 0
M  V30 4 C 3.2175 1.5034 4.4685 0
M  V30 5 C 1.8062 -0.1672 2.7264 0
M  V30 6 C 2.2009 0.6757 4.9509 0
M  V30 7 C 1.4923 -0.1661 4.0868 0
M  V30 8 O 0.5274 -0.9169 4.6981 0
M  V30 9 C -0.1676 -1.8819 3.9214 0
M  V30 10 C -1.2907 -1.3349 3.0467 0
M  V30 11 O -1.6438 -0.1642 2.9802 0
M  V30 12 O -1.8453 -2.3629 2.3351 0
M  V30 13 C -2.8408 -1.9761 1.3736 0
M  V30 14 C -2.2088 -1.7375 -0.0097 0
M  V30 15 N -1.16 -0.7135 0.0218 0
M  V30 16 C -0.7406 -0.1709 -1.2776 0
M  V30 17 C -0.4109 -1.266 -2.324 0
M  V30 18 C 0.5526 0.6486 -1.0197 0
M  V30 19 C -1.8051 0.7901 -1.8676 0
M  V30 20 C 0.0975 -0.6296 -3.6307 0
M  V30 21 C 1.0677 1.2873 -2.3207 0
M  V30 22 C -1.2955 1.4221 -3.1762 0
M  V30 23 C 1.3714 0.1791 -3.3407 0
M  V30 24 C -0.984 0.3093 -4.1908 0
M  V30 25 C -0.0137 2.2197 -2.8885 0
M  V30 26 H 3.0612 0.6552 1.1798 0
M  V30 27 H 3.7566 2.1512 5.1539 0
M  V30 28 H 1.2758 -0.7847 2.0086 0
M  V30 29 H 1.9563 0.6879 6.0107 0
M  V30 30 H -0.6382 -2.5653 4.6378 0
M  V30 31 H 0.5273 -2.4779 3.3183 0
M  V30 32 H -3.4116 -1.1013 1.7083 0
M  V30 33 H -3.5525 -2.806 1.3035 0
M  V30 34 H -3.0149 -1.4692 -0.6996 0
M  V30 35 H -1.7631 -2.6797 -0.3472 0
M  V30 36 H -1.4402 0.0518 0.6449 0
M  V30 37 H 0.3485 -1.9539 -1.9296 0
M  V30 38 H -1.2987 -1.8692 -2.5517 0
M  V30 39 H 1.3338 -3.0E-4 -0.6027 0
M  V30 40 H 0.3677 1.4372 -0.2774 0
M  V30 41 H -2.0448 1.5841 -1.1477 0
M  V30 42 H -2.7422 0.2587 -2.0726 0
M  V30 43 H 0.3182 -1.4158 -4.3615 0
M  V30 44 H 1.979 1.8601 -2.1151 0
M  V30 45 H -2.0617 2.0906 -3.5848 0
M  V30 46 H 2.1559 -0.4825 -2.9535 0
M  V30 47 H 1.7557 0.6192 -4.2691 0
M  V30 48 H -1.8949 -0.2591 -4.415 0
M  V30 49 H -0.6434 0.75 -5.1358 0
M  V30 50 H 0.3466 2.6948 -3.8092 0
M  V30 51 H -0.2256 3.0265 -2.1759 0
M  V30 END ATOM
M  V30 BEGIN BOND
M  V30 1 1 1 2
M  V30 2 2 2 3
M  V30 3 1 2 4
M  V30 4 1 3 5
M  V30 5 2 4 6
M  V30 6 2 5 7
M  V30 7 1 7 8
M  V30 8 1 8 9
M  V30 9 1 9 10
M  V30 10 2 10 11
M  V30 11 1 10 12
M  V30 12 1 12 13
M  V30 13 1 13 14
M  V30 14 1 14 15
M  V30 15 1 15 16
M  V30 16 1 16 17
M  V30 17 1 16 18
M  V30 18 1 16 19
M  V30 19 1 17 20
M  V30 20 1 18 21
M  V30 21 1 19 22
M  V30 22 1 20 23
M  V30 23 1 20 24
M  V30 24 1 21 25
M  V30 25 1 6 7
M  V30 26 1 21 23
M  V30 27 1 22 24
M  V30 28 1 22 25
M  V30 29 1 3 26
M  V30 30 1 4 27
M  V30 31 1 5 28
M  V30 32 1 6 29
M  V30 33 1 9 30
M  V30 34 1 9 31
M  V30 35 1 13 32
M  V30 36 1 13 33
M  V30 37 1 14 34
M  V30 38 1 14 35
M  V30 39 1 15 36
M  V30 40 1 17 37
M  V30 41 1 17 38
M  V30 42 1 18 39
M  V30 43 1 18 40
M  V30 44 1 19 41
M  V30 45 1 19 42
M  V30 46 1 20 43
M  V30 47 1 21 44
M  V30 48 1 22 45
M  V30 49 1 23 46
M  V30 50 1 23 47
M  V30 51 1 24 48
M  V30 52 1 24 49
M  V30 53 1 25 50
M  V30 54 1 25 51
M  V30 END BOND
M  V30 END CTAB
M  END
>  <NO.>
2384

>  <Name>
adafenoxate

>  <SMILES>
O=C(COc1ccc(Cl)cc1)OCCNC12CC3CC(CC(C3)C1)C2

>  <logBB>


>  <Class>
1

>  <MW>
363.16

>  <nHBAcc>
4

>  <nHBDon>
1

>  <SLogP>
3.82

>  <TopoPSA>
47.56

>  <MMFF94 Energy>
69.277

$$$$
O=C(Cc1ccc(C(F)(F)F)cc1)N1CCCC[C@H]1CN1CCCC1
Actelion Java MolfileCreator 2.0

  0  0  0  0  0  0              0 V3000
M  V30 BEGIN CTAB
M  V30 COUNTS 50 52 0 0 0
M  V30 BEGIN ATOM
M  V30 1 F 5.8568 1.6821 -4.2496 0
M  V30 2 C 4.7363 0.9406 -4.4741 0
M  V30 3 F 5.1592 -0.1891 -5.108 0
M  V30 4 F 4.0111 1.6333 -5.397 0
M  V30 5 C 3.9722 0.6612 -3.2045 0
M  V30 6 C 4.2556 -0.4779 -2.4371 0
M  V30 7 C 2.9867 1.5517 -2.7544 0
M  V30 8 C 3.5599 -0.7283 -1.2519 0
M  V30 9 C 2.2911 1.3017 -1.5693 0
M  V30 10 C 2.5763 0.1626 -0.8046 0
M  V30 11 C 1.8126 -0.1113 0.4715 0
M  V30 12 C 0.4651 -0.7967 0.264 0
M  V30 13 O 0.1436 -1.2657 -0.8289 0
M  V30 14 N -0.3862 -0.8619 1.3693 0
M  V30 15 C -1.7416 -1.4248 1.1938 0 CFG=1
M  V30 16 C -0.021 -0.4852 2.738 0
M  V30 17 C -1.9069 -2.6324 2.1401 0
M  V30 18 C -2.8943 -0.3883 1.401 0
M  V30 19 C -0.1668 -1.6743 3.6839 0
M  V30 20 C -1.5566 -2.2983 3.59 0
M  V30 21 N -3.045 0.756 0.4997 0
M  V30 22 C -3.0682 0.4406 -0.9237 0
M  V30 23 C -2.0842 1.8368 0.6554 0
M  V30 24 C -3.0444 1.8195 -1.5685 0
M  V30 25 C -2.4012 2.7362 -0.5314 0
M  V30 26 H 5.0163 -1.1844 -2.7662 0
M  V30 27 H 2.7485 2.443 -3.3331 0
M  V30 28 H 3.7853 -1.6293 -0.6853 0
M  V30 29 H 1.5176 1.9978 -1.2513 0
M  V30 30 H 2.421 -0.7387 1.1338 0
M  V30 31 H 1.6545 0.8477 0.9794 0
M  V30 32 H -1.8458 -1.8236 0.179 0
M  V30 33 H -0.6747 0.3363 3.0492 0
M  V30 34 H 1.0036 -0.1156 2.8 0
M  V30 35 H -2.9279 -3.0272 2.0852 0
M  V30 36 H -1.2409 -3.4369 1.8009 0
M  V30 37 H -3.8393 -0.9454 1.3434 0
M  V30 38 H -2.8666 -6.0E-4 2.4264 0
M  V30 39 H 0.5835 -2.4331 3.4289 0
M  V30 40 H 0.0307 -1.3583 4.7141 0
M  V30 41 H -2.3003 -1.6108 4.0087 0
M  V30 42 H -1.5927 -3.2099 4.1971 0
M  V30 43 H -3.9633 -0.1198 -1.2107 0
M  V30 44 H -2.1858 -0.1197 -1.2455 0
M  V30 45 H -2.2078 2.37 1.6032 0
M  V30 46 H -1.0474 1.5018 0.5784 0
M  V30 47 H -4.0615 2.1647 -1.7884 0
M  V30 48 H -2.4816 1.8136 -2.5074 0
M  V30 49 H -3.1069 3.525 -0.2452 0
M  V30 50 H -1.4991 3.2183 -0.9217 0
M  V30 END ATOM
M  V30 BEGIN BOND
M  V30 1 1 1 2
M  V30 2 1 2 3
M  V30 3 1 2 4
M  V30 4 1 2 5
M  V30 5 2 5 6
M  V30 6 1 5 7
M  V30 7 1 6 8
M  V30 8 2 7 9
M  V30 9 2 8 10
M  V30 10 1 10 11
M  V30 11 1 11 12
M  V30 12 2 12 13
M  V30 13 1 12 14
M  V30 14 1 14 15
M  V30 15 1 14 16
M  V30 16 1 15 17
M  V30 17 1 15 18
M  V30 18 1 16 19
M  V30 19 1 17 20
M  V30 20 1 18 21
M  V30 21 1 21 22
M  V30 22 1 21 23
M  V30 23 1 22 24
M  V30 24 1 23 25
M  V30 25 1 9 10
M  V30 26 1 19 20
M  V30 27 1 24 25
M  V30 28 1 6 26
M  V30 29 1 7 27
M  V30 30 1 8 28
M  V30 31 1 9 29
M  V30 32 1 11 30
M  V30 33 1 11 31
M  V30 34 1 15 32
M  V30 35 1 16 33
M  V30 36 1 16 34
M  V30 37 1 17 35
M  V30 38 1 17 36
M  V30 39 1 18 37
M  V30 40 1 18 38
M  V30 41 1 19 39
M  V30 42 1 19 40
M  V30 43 1 20 41
M  V30 44 1 20 42
M  V30 45 1 22 43
M  V30 46 1 22 44
M  V30 47 1 23 45
M  V30 48 1 23 46
M  V30 49 1 24 47
M  V30 50 1 24 48
M  V30 51 1 25 49
M  V30 52 1 25 50
M  V30 END BOND
M  V30 BEGIN COLLECTION
M  V30 MDLV30/STEABS ATOMS=(1 15)
M  V30 END COLLECTION
M  V30 END CTAB
M  END
>  <NO.>
2385

>  <Name>
brl52656

>  <SMILES>
O=C(Cc1ccc(C(F)(F)F)cc1)N1CCCC[C@H]1CN1CCCC1

>  <logBB>


>  <Class>
1

>  <MW>
354.19

>  <nHBAcc>
2

>  <nHBDon>
0

>  <SLogP>
3.72

>  <TopoPSA>
23.55

>  <MMFF94 Energy>
83.285

$$$$
O=C(Cc1ccc(Cl)c(Cl)c1)N1CCCC[C@H]1CN1CCCC1
Actelion Java MolfileCreator 2.0

  0  0  0  0  0  0              0 V3000
M  V30 BEGIN CTAB
M  V30 COUNTS 47 49 0 0 0
M  V30 BEGIN ATOM
M  V30 1 Cl 1.4561 -5.9968 -0.3234 0
M  V30 2 C 2.1418 -4.5125 -0.8818 0
M  V30 3 C 3.5218 -4.3188 -0.9883 0
M  V30 4 C 1.2644 -3.4802 -1.2344 0
M  V30 5 Cl 4.6673 -5.542 -0.5689 0
M  V30 6 C 4.0164 -3.0977 -1.4533 0
M  V30 7 C 1.7532 -2.2412 -1.6799 0
M  V30 8 C 3.1386 -2.0685 -1.8027 0
M  V30 9 C 0.8118 -1.1241 -2.0775 0
M  V30 10 C -0.3523 -0.9194 -1.1172 0
M  V30 11 O -1.4451 -1.4219 -1.3937 0
M  V30 12 N -0.1451 -0.1767 0.0419 0
M  V30 13 C -1.2719 -0.0179 0.9913 0 CFG=1
M  V30 14 C 1.1622 0.2614 0.5355 0
M  V30 15 C -0.9273 -0.8079 2.2719 0
M  V30 16 C -1.6347 1.4633 1.3269 0
M  V30 17 C 1.5341 -0.5076 1.801 0
M  V30 18 C 0.4312 -0.4119 2.8551 0
M  V30 19 N -2.3145 2.2114 0.2595 0
M  V30 20 C -2.7718 3.5244 0.7193 0
M  V30 21 C -1.4936 2.4812 -0.9191 0
M  V30 22 C -3.1631 4.2068 -0.5774 0
M  V30 23 C -2.1912 3.6502 -1.608 0
M  V30 24 H 0.1896 -3.6466 -1.1601 0
M  V30 25 H 5.0884 -2.9419 -1.5498 0
M  V30 26 H 3.5479 -1.1295 -2.1714 0
M  V30 27 H 1.3415 -0.1743 -2.209 0
M  V30 28 H 0.3957 -1.3678 -3.0636 0
M  V30 29 H -2.176 -0.4761 0.5724 0
M  V30 30 H 1.9478 0.1311 -0.2076 0
M  V30 31 H 1.111 1.335 0.7416 0
M  V30 32 H -1.7094 -0.6767 3.0284 0
M  V30 33 H -0.9013 -1.8786 2.0295 0
M  V30 34 H -2.3237 1.4328 2.1819 0
M  V30 35 H -0.7518 2.0149 1.6697 0
M  V30 36 H 1.6981 -1.5631 1.5518 0
M  V30 37 H 2.4745 -0.1224 2.2097 0
M  V30 38 H 0.3851 0.6103 3.2479 0
M  V30 39 H 0.6734 -1.065 3.701 0
M  V30 40 H -3.6215 3.4507 1.4052 0
M  V30 41 H -1.967 4.0845 1.2122 0
M  V30 42 H -1.4416 1.6226 -1.5929 0
M  V30 43 H -0.4739 2.7791 -0.6464 0
M  V30 44 H -4.1899 3.9398 -0.8556 0
M  V30 45 H -3.1073 5.2972 -0.5047 0
M  V30 46 H -1.4632 4.4091 -1.9141 0
M  V30 47 H -2.7332 3.3236 -2.5023 0
M  V30 END ATOM
M  V30 BEGIN BOND
M  V30 1 1 1 2
M  V30 2 2 2 3
M  V30 3 1 2 4
M  V30 4 1 3 5
M  V30 5 1 3 6
M  V30 6 2 4 7
M  V30 7 2 6 8
M  V30 8 1 7 9
M  V30 9 1 9 10
M  V30 10 2 10 11
M  V30 11 1 10 12
M  V30 12 1 12 13
M  V30 13 1 12 14
M  V30 14 1 13 15
M  V30 15 1 13 16
M  V30 16 1 14 17
M  V30 17 1 15 18
M  V30 18 1 16 19
M  V30 19 1 19 20
M  V30 20 1 19 21
M  V30 21 1 20 22
M  V30 22 1 21 23
M  V30 23 1 7 8
M  V30 24 1 17 18
M  V30 25 1 22 23
M  V30 26 1 4 24
M  V30 27 1 6 25
M  V30 28 1 8 26
M  V30 29 1 9 27
M  V30 30 1 9 28
M  V30 31 1 13 29
M  V30 32 1 14 30
M  V30 33 1 14 31
M  V30 34 1 15 32
M  V30 35 1 15 33
M  V30 36 1 16 34
M  V30 37 1 16 35
M  V30 38 1 17 36
M  V30 39 1 17 37
M  V30 40 1 18 38
M  V30 41 1 18 39
M  V30 42 1 20 40
M  V30 43 1 20 41
M  V30 44 1 21 42
M  V30 45 1 21 43
M  V30 46 1 22 44
M  V30 47 1 22 45
M  V30 48 1 23 46
M  V30 49 1 23 47
M  V30 END BOND
M  V30 BEGIN COLLECTION
M  V30 MDLV30/STEABS ATOMS=(1 13)
M  V30 END COLLECTION
M  V30 END CTAB
M  END
>  <NO.>
2386

>  <Name>
brl-52537

>  <SMILES>
O=C(Cc1ccc(Cl)c(Cl)c1)N1CCCC[C@H]1CN1CCCC1

>  <logBB>


>  <Class>
1

>  <MW>
354.13

>  <nHBAcc>
2

>  <nHBDon>
0

>  <SLogP>
4.01

>  <TopoPSA>
23.55

>  <MMFF94 Energy>
64.04

$$$$
O=C(Cc1ccc(Cl)c(Cl)c1)N1CCN(CCO)C[C@@H]1CN1CC[C@@H](O)C1
Actelion Java MolfileCreator 2.0

  0  0  0  0  0  0              0 V3000
M  V30 BEGIN CTAB
M  V30 COUNTS 54 56 0 0 0
M  V30 BEGIN ATOM
M  V30 1 Cl -3.552 -3.0671 -3.552 0
M  V30 2 C -1.8772 -2.7954 -3.2226 0
M  V30 3 C -1.0405 -2.1094 -4.1082 0
M  V30 4 C -1.3656 -3.2866 -2.0153 0
M  V30 5 Cl -1.6051 -1.4636 -5.6077 0
M  V30 6 C 0.3058 -1.9273 -3.7873 0
M  V30 7 C -0.0201 -3.0849 -1.6742 0
M  V30 8 C 0.8133 -2.416 -2.5814 0
M  V30 9 C 0.5249 -3.5996 -0.3593 0
M  V30 10 C 1.3133 -2.5545 0.4205 0
M  V30 11 O 2.5461 -2.6297 0.4547 0
M  V30 12 N 0.6237 -1.5347 1.0631 0
M  V30 13 C 1.4053 -0.3755 1.548 0 CFG=2
M  V30 14 C -0.831 -1.3584 1.0279 0
M  V30 15 C 0.7243 0.3765 2.7244 0
M  V30 16 C 1.8952 0.5481 0.3826 0
M  V30 17 C -1.3881 -0.6806 2.2918 0
M  V30 18 N -0.7229 0.5989 2.5838 0
M  V30 19 N 0.9373 0.9405 -0.6659 0
M  V30 20 C -1.3266 1.2482 3.7628 0
M  V30 21 C 1.6382 1.4515 -1.8542 0
M  V30 22 C 0.0534 2.0446 -0.2824 0
M  V30 23 C -0.8676 2.6972 4.0112 0
M  V30 24 C 0.5498 2.1737 -2.6471 0 CFG=1
M  V30 25 C -0.5161 2.5214 -1.6144 0
M  V30 26 O -1.2326 3.5442 2.9254 0
M  V30 27 O 1.0626 3.3501 -3.2612 0
M  V30 28 H -2.0248 -3.82 -1.3336 0
M  V30 29 H 0.9687 -1.3987 -4.4681 0
M  V30 30 H 1.8656 -2.2544 -2.3474 0
M  V30 31 H -0.2644 -4.0121 0.2771 0
M  V30 32 H 1.1969 -4.4398 -0.5769 0
M  V30 33 H 2.3299 -0.7869 1.979 0
M  V30 34 H -1.3282 -2.3243 0.9177 0
M  V30 35 H -1.0763 -0.7681 0.1388 0
M  V30 36 H 1.2475 1.3281 2.8661 0
M  V30 37 H 0.8989 -0.2128 3.6359 0
M  V30 38 H 2.6909 -0.0197 -0.1199 0
M  V30 39 H 2.396 1.4305 0.8033 0
M  V30 40 H -1.2803 -1.3658 3.1433 0
M  V30 41 H -2.4617 -0.5163 2.1386 0
M  V30 42 H -1.1403 0.6523 4.665 0
M  V30 43 H -2.4135 1.2843 3.6129 0
M  V30 44 H 2.4462 2.1465 -1.5893 0
M  V30 45 H 2.0748 0.637 -2.4415 0
M  V30 46 H -0.7621 1.7346 0.369 0
M  V30 47 H 0.6049 2.8608 0.2008 0
M  V30 48 H -1.3589 3.0809 4.9117 0
M  V30 49 H 0.2129 2.7626 4.1659 0
M  V30 50 H 0.1342 1.5258 -3.4273 0
M  V30 51 H -1.4331 1.963 -1.8398 0
M  V30 52 H -0.7647 3.5871 -1.5868 0
M  V30 53 H -0.8651 4.4237 3.1134 0
M  V30 54 H 0.3192 3.7777 -3.7204 0
M  V30 END ATOM
M  V30 BEGIN BOND
M  V30 1 1 1 2
M  V30 2 2 2 3
M  V30 3 1 2 4
M  V30 4 1 3 5
M  V30 5 1 3 6
M  V30 6 2 4 7
M  V30 7 2 6 8
M  V30 8 1 7 9
M  V30 9 1 9 10
M  V30 10 2 10 11
M  V30 11 1 10 12
M  V30 12 1 12 13
M  V30 13 1 12 14
M  V30 14 1 13 15
M  V30 15 1 13 16
M  V30 16 1 14 17
M  V30 17 1 15 18
M  V30 18 1 16 19
M  V30 19 1 18 20
M  V30 20 1 19 21
M  V30 21 1 19 22
M  V30 22 1 20 23
M  V30 23 1 21 24
M  V30 24 1 22 25
M  V30 25 1 23 26
M  V30 26 1 24 27
M  V30 27 1 7 8
M  V30 28 1 17 18
M  V30 29 1 24 25
M  V30 30 1 4 28
M  V30 31 1 6 29
M  V30 32 1 8 30
M  V30 33 1 9 31
M  V30 34 1 9 32
M  V30 35 1 13 33
M  V30 36 1 14 34
M  V30 37 1 14 35
M  V30 38 1 15 36
M  V30 39 1 15 37
M  V30 40 1 16 38
M  V30 41 1 16 39
M  V30 42 1 17 40
M  V30 43 1 17 41
M  V30 44 1 20 42
M  V30 45 1 20 43
M  V30 46 1 21 44
M  V30 47 1 21 45
M  V30 48 1 22 46
M  V30 49 1 22 47
M  V30 50 1 23 48
M  V30 51 1 23 49
M  V30 52 1 24 50
M  V30 53 1 25 51
M  V30 54 1 25 52
M  V30 55 1 26 53
M  V30 56 1 27 54
M  V30 END BOND
M  V30 BEGIN COLLECTION
M  V30 MDLV30/STEABS ATOMS=(2 13 24)
M  V30 END COLLECTION
M  V30 END CTAB
M  END
>  <NO.>
2387

>  <Name>
sb205563

>  <SMILES>
O=C(Cc1ccc(Cl)c(Cl)c1)N1CCN(CCO)C[C@@H]1CN1CC[C@@H](O)C1

>  <logBB>


>  <Class>
-1

>  <MW>
415.14

>  <nHBAcc>
5

>  <nHBDon>
2

>  <SLogP>
1.11

>  <TopoPSA>
67.25

>  <MMFF94 Energy>
164.65

$$$$
O=C(Cc1ccc(Cl)c(Cl)c1)N1CCc2[nH]cnc2[C@H]1CN1CCCC1
Actelion Java MolfileCreator 2.0

  0  0  0  0  0  0              0 V3000
M  V30 BEGIN CTAB
M  V30 COUNTS 48 51 0 0 0
M  V30 BEGIN ATOM
M  V30 1 Cl 5.1315 -3.4188 -2.1968 0
M  V30 2 C 3.6418 -3.8187 -1.4167 0
M  V30 3 C 3.2827 -5.136 -1.1155 0
M  V30 4 C 2.7784 -2.7676 -1.0867 0
M  V30 5 Cl 4.2945 -6.4839 -1.4961 0
M  V30 6 C 2.0641 -5.3952 -0.4825 0
M  V30 7 C 1.5492 -3.0223 -0.4595 0
M  V30 8 C 1.2034 -4.3449 -0.1538 0
M  V30 9 C 0.6277 -1.8814 -0.088 0
M  V30 10 C 0.9004 -1.2794 1.2886 0
M  V30 11 O 1.6742 -1.8174 2.0827 0
M  V30 12 N 0.2309 -0.1049 1.6135 0
M  V30 13 C -0.7308 0.6078 0.6996 0 CFG=1
M  V30 14 C 0.4978 0.528 2.9279 0
M  V30 15 C -1.8824 1.0911 1.541 0
M  V30 16 C 0.0129 1.7471 -0.0612 0
M  V30 17 C -0.7775 0.6598 3.7896 0
M  V30 18 N -3.1042 1.4877 1.0615 0
M  V30 19 C -1.8839 1.1181 2.9192 0
M  V30 20 N -0.6965 2.3677 -1.1885 0
M  V30 21 C -3.8123 1.794 2.1277 0
M  V30 22 N -3.1107 1.5844 3.2855 0
M  V30 23 C -1.0244 1.4484 -2.2755 0
M  V30 24 C 0.0719 3.4456 -1.8089 0
M  V30 25 C -1.3341 2.3702 -3.4482 0
M  V30 26 C -0.7026 3.7099 -3.0885 0
M  V30 27 H 3.0699 -1.744 -1.3131 0
M  V30 28 H 1.7799 -6.4152 -0.235 0
M  V30 29 H 0.266 -4.5666 0.3531 0
M  V30 30 H 0.7234 -1.1028 -0.8528 0
M  V30 31 H -0.4097 -2.2361 -0.1109 0
M  V30 32 H -1.1274 -0.117 -0.015 0
M  V30 33 H 1.2573 -0.0222 3.4918 0
M  V30 34 H 0.916 1.5211 2.7226 0
M  V30 35 H 0.2584 2.5381 0.6601 0
M  V30 36 H 0.9751 1.3538 -0.4175 0
M  V30 37 H -0.6035 1.3525 4.6192 0
M  V30 38 H -1.0366 -0.3189 4.2099 0
M  V30 39 H -4.8301 2.1607 2.1264 0
M  V30 40 H -3.4583 1.7257 4.2243 0
M  V30 41 H -1.8832 0.8128 -2.0393 0
M  V30 42 H -0.1729 0.8045 -2.5291 0
M  V30 43 H 0.1201 4.338 -1.177 0
M  V30 44 H 1.0945 3.1282 -2.0492 0
M  V30 45 H -2.4152 2.4903 -3.5823 0
M  V30 46 H -0.922 1.9716 -4.381 0
M  V30 47 H -1.4894 4.454 -2.9148 0
M  V30 48 H -0.0561 4.0858 -3.8875 0
M  V30 END ATOM
M  V30 BEGIN BOND
M  V30 1 1 1 2
M  V30 2 2 2 3
M  V30 3 1 2 4
M  V30 4 1 3 5
M  V30 5 1 3 6
M  V30 6 2 4 7
M  V30 7 2 6 8
M  V30 8 1 7 9
M  V30 9 1 9 10
M  V30 10 2 10 11
M  V30 11 1 10 12
M  V30 12 1 12 13
M  V30 13 1 12 14
M  V30 14 1 13 15
M  V30 15 1 13 16
M  V30 16 1 14 17
M  V30 17 1 15 18
M  V30 18 2 15 19
M  V30 19 1 16 20
M  V30 20 2 18 21
M  V30 21 1 19 22
M  V30 22 1 20 23
M  V30 23 1 20 24
M  V30 24 1 23 25
M  V30 25 1 24 26
M  V30 26 1 7 8
M  V30 27 1 17 19
M  V30 28 1 21 22
M  V30 29 1 25 26
M  V30 30 1 4 27
M  V30 31 1 6 28
M  V30 32 1 8 29
M  V30 33 1 9 30
M  V30 34 1 9 31
M  V30 35 1 13 32
M  V30 36 1 14 33
M  V30 37 1 14 34
M  V30 38 1 16 35
M  V30 39 1 16 36
M  V30 40 1 17 37
M  V30 41 1 17 38
M  V30 42 1 21 39
M  V30 43 1 22 40
M  V30 44 1 23 41
M  V30 45 1 23 42
M  V30 46 1 24 43
M  V30 47 1 24 44
M  V30 48 1 25 45
M  V30 49 1 25 46
M  V30 50 1 26 47
M  V30 51 1 26 48
M  V30 END BOND
M  V30 BEGIN COLLECTION
M  V30 MDLV30/STEABS ATOMS=(1 13)
M  V30 END COLLECTION
M  V30 END CTAB
M  END
>  <NO.>
2388

>  <Name>
brl52974

>  <SMILES>
O=C(Cc1ccc(Cl)c(Cl)c1)N1CCc2[nH]cnc2[C@H]1CN1CCCC1

>  <logBB>


>  <Class>
-1

>  <MW>
392.12

>  <nHBAcc>
3

>  <nHBDon>
1

>  <SLogP>
3.48

>  <TopoPSA>
52.23

>  <MMFF94 Energy>
106.39

$$$$
O=C(Cc1ccc(Cl)c(Cl)c1)N1CCc2[nH]cnc2[C@H]1CN1CC[C@@H](O)C1
Actelion Java MolfileCreator 2.0

  0  0  0  0  0  0              0 V3000
M  V30 BEGIN CTAB
M  V30 COUNTS 49 52 0 0 0
M  V30 BEGIN ATOM
M  V30 1 Cl 2.9316 6.0331 -0.6509 0
M  V30 2 C 1.6307 5.1433 0.059 0
M  V30 3 C 0.6609 5.7479 0.8653 0
M  V30 4 C 1.5673 3.7687 -0.1942 0
M  V30 5 Cl 0.6756 7.4381 1.2262 0
M  V30 6 C -0.3688 4.976 1.4109 0
M  V30 7 C 0.5411 2.987 0.3578 0
M  V30 8 C -0.4307 3.604 1.1569 0
M  V30 9 C 0.4641 1.5005 0.0689 0
M  V30 10 C -0.445 1.169 -1.1095 0
M  V30 11 O -0.4857 1.9317 -2.0833 0
M  V30 12 N -1.2262 0.0133 -1.087 0
M  V30 13 C -1.1956 -1.0209 0.0125 0 CFG=1
M  V30 14 C -2.1701 -0.126 -2.233 0
M  V30 15 C -2.5062 -1.7503 0.0402 0
M  V30 16 C -0.0388 -2.0472 -0.2069 0
M  V30 17 C -2.9173 -1.4658 -2.4082 0
M  V30 18 N -3.0914 -2.3135 1.1419 0
M  V30 19 C -3.2758 -1.9633 -1.0729 0
M  V30 20 N 1.3061 -1.5489 0.1366 0
M  V30 21 C -4.2087 -2.8508 0.6944 0
M  V30 22 N -4.3652 -2.6628 -0.656 0
M  V30 23 C 2.3675 -2.379 -0.4535 0
M  V30 24 C 1.5723 -1.6027 1.5814 0
M  V30 25 C 3.6029 -2.1241 0.4226 0 CFG=1
M  V30 26 C 3.0732 -1.3689 1.6362 0
M  V30 27 O 4.1865 -3.3502 0.8544 0
M  V30 28 H 2.3139 3.3045 -0.8357 0
M  V30 29 H -1.1311 5.4388 2.0333 0
M  V30 30 H -1.2456 3.0211 1.5828 0
M  V30 31 H 1.4663 1.1265 -0.1669 0
M  V30 32 H 0.1465 1.0172 0.9913 0
M  V30 33 H -1.0875 -0.5216 0.978 0
M  V30 34 H -1.6378 0.1052 -3.1638 0
M  V30 35 H -2.9136 0.6715 -2.0949 0
M  V30 36 H -0.2423 -2.9736 0.3482 0
M  V30 37 H -0.0453 -2.3262 -1.2703 0
M  V30 38 H -2.2547 -2.1911 -2.8949 0
M  V30 39 H -3.7943 -1.33 -3.0492 0
M  V30 40 H -4.9385 -3.3828 1.2906 0
M  V30 41 H -5.1457 -2.9812 -1.2151 0
M  V30 42 H 2.1079 -3.4456 -0.4505 0
M  V30 43 H 2.554 -2.0744 -1.4886 0
M  V30 44 H 1.328 -2.5844 2.0074 0
M  V30 45 H 1.0302 -0.8347 2.14 0
M  V30 46 H 4.3681 -1.5358 -0.0947 0
M  V30 47 H 3.5031 -1.7097 2.5831 0
M  V30 48 H 3.2795 -0.297 1.5241 0
M  V30 49 H 4.5464 -3.7929 0.0667 0
M  V30 END ATOM
M  V30 BEGIN BOND
M  V30 1 1 1 2
M  V30 2 2 2 3
M  V30 3 1 2 4
M  V30 4 1 3 5
M  V30 5 1 3 6
M  V30 6 2 4 7
M  V30 7 2 6 8
M  V30 8 1 7 9
M  V30 9 1 9 10
M  V30 10 2 10 11
M  V30 11 1 10 12
M  V30 12 1 12 13
M  V30 13 1 12 14
M  V30 14 1 13 15
M  V30 15 1 13 16
M  V30 16 1 14 17
M  V30 17 1 15 18
M  V30 18 2 15 19
M  V30 19 1 16 20
M  V30 20 2 18 21
M  V30 21 1 19 22
M  V30 22 1 20 23
M  V30 23 1 20 24
M  V30 24 1 23 25
M  V30 25 1 24 26
M  V30 26 1 25 27
M  V30 27 1 7 8
M  V30 28 1 17 19
M  V30 29 1 21 22
M  V30 30 1 25 26
M  V30 31 1 4 28
M  V30 32 1 6 29
M  V30 33 1 8 30
M  V30 34 1 9 31
M  V30 35 1 9 32
M  V30 36 1 13 33
M  V30 37 1 14 34
M  V30 38 1 14 35
M  V30 39 1 16 36
M  V30 40 1 16 37
M  V30 41 1 17 38
M  V30 42 1 17 39
M  V30 43 1 21 40
M  V30 44 1 22 41
M  V30 45 1 23 42
M  V30 46 1 23 43
M  V30 47 1 24 44
M  V30 48 1 24 45
M  V30 49 1 25 46
M  V30 50 1 26 47
M  V30 51 1 26 48
M  V30 52 1 27 49
M  V30 END BOND
M  V30 BEGIN COLLECTION
M  V30 MDLV30/STEABS ATOMS=(2 13 25)
M  V30 END COLLECTION
M  V30 END CTAB
M  END
>  <NO.>
2389

>  <Name>
sb205605

>  <SMILES>
O=C(Cc1ccc(Cl)c(Cl)c1)N1CCc2[nH]cnc2[C@H]1CN1CC[C@@H](O)C1

>  <logBB>


>  <Class>
-1

>  <MW>
408.11

>  <nHBAcc>
4

>  <nHBDon>
2

>  <SLogP>
2.45

>  <TopoPSA>
72.46

>  <MMFF94 Energy>
128.41

$$$$
O=C(Cc1ccc(Cl)c(Cl)c1)N1CCc2ccccc2[C@H]1CN1CCCC1
Actelion Java MolfileCreator 2.0

  0  0  0  0  0  0              0 V3000
M  V30 BEGIN CTAB
M  V30 COUNTS 51 54 0 0 0
M  V30 BEGIN ATOM
M  V30 1 Cl -3.1721 -1.7884 -3.9052 0
M  V30 2 C -2.8803 -2.4014 -2.3159 0
M  V30 3 C -3.8986 -2.9195 -1.5112 0
M  V30 4 C -1.5641 -2.366 -1.8397 0
M  V30 5 Cl -5.5443 -2.995 -2.0304 0
M  V30 6 C -3.593 -3.4054 -0.238 0
M  V30 7 C -1.2515 -2.8285 -0.5515 0
M  V30 8 C -2.2785 -3.3666 0.2357 0
M  V30 9 C 0.1814 -2.7928 -0.0641 0
M  V30 10 C 0.3358 -2.3638 1.39 0
M  V30 11 O 0.392 -3.2311 2.2686 0
M  V30 12 N 0.3911 -1.0095 1.7036 0
M  V30 13 C 0.2942 0.0937 0.7113 0 CFG=1
M  V30 14 C 0.4453 -0.6733 3.132 0
M  V30 15 C -0.3669 1.3343 1.2982 0
M  V30 16 C 1.706 0.426 0.1218 0
M  V30 17 C 0.7583 0.7856 3.4533 0
M  V30 18 C -0.1266 1.6842 2.6385 0
M  V30 19 C -1.1821 2.1604 0.5127 0
M  V30 20 N 1.6995 1.2662 -1.0871 0
M  V30 21 C -0.6812 2.8518 3.1724 0
M  V30 22 C -1.7458 3.3164 1.0542 0
M  V30 23 C 1.1816 0.596 -2.2788 0
M  V30 24 C 3.0461 1.7068 -1.4573 0
M  V30 25 C -1.4939 3.6623 2.3808 0
M  V30 26 C 1.6482 1.493 -3.4165 0
M  V30 27 C 2.8528 2.247 -2.865 0
M  V30 28 H -0.7784 -1.9727 -2.4811 0
M  V30 29 H -4.3747 -3.8199 0.3949 0
M  V30 30 H -2.0677 -3.7631 1.2292 0
M  V30 31 H 0.5993 -3.8031 -0.1614 0
M  V30 32 H 0.7969 -2.1561 -0.7047 0
M  V30 33 H -0.3503 -0.2675 -0.0933 0
M  V30 34 H -0.5371 -0.9381 3.5462 0
M  V30 35 H 1.1798 -1.3216 3.6249 0
M  V30 36 H 2.2881 0.9413 0.8972 0
M  V30 37 H 2.2498 -0.5056 -0.0816 0
M  V30 38 H 0.6106 0.9576 4.5258 0
M  V30 39 H 1.8053 1.0152 3.2244 0
M  V30 40 H -1.3694 1.9177 -0.5304 0
M  V30 41 H -0.4886 3.1344 4.2044 0
M  V30 42 H -2.3735 3.9536 0.4367 0
M  V30 43 H 0.0912 0.5091 -2.2706 0
M  V30 44 H 1.6121 -0.4059 -2.399 0
M  V30 45 H 3.4296 2.4772 -0.7808 0
M  V30 46 H 3.7551 0.8691 -1.4734 0
M  V30 47 H -1.9285 4.5675 2.797 0
M  V30 48 H 0.8634 2.2037 -3.7012 0
M  V30 49 H 1.9092 0.9077 -4.3041 0
M  V30 50 H 2.6375 3.322 -2.8417 0
M  V30 51 H 3.7446 2.0966 -3.4814 0
M  V30 END ATOM
M  V30 BEGIN BOND
M  V30 1 1 1 2
M  V30 2 2 2 3
M  V30 3 1 2 4
M  V30 4 1 3 5
M  V30 5 1 3 6
M  V30 6 2 4 7
M  V30 7 2 6 8
M  V30 8 1 7 9
M  V30 9 1 9 10
M  V30 10 2 10 11
M  V30 11 1 10 12
M  V30 12 1 12 13
M  V30 13 1 12 14
M  V30 14 1 13 15
M  V30 15 1 13 16
M  V30 16 1 14 17
M  V30 17 2 15 18
M  V30 18 1 15 19
M  V30 19 1 16 20
M  V30 20 1 18 21
M  V30 21 2 19 22
M  V30 22 1 20 23
M  V30 23 1 20 24
M  V30 24 2 21 25
M  V30 25 1 23 26
M  V30 26 1 24 27
M  V30 27 1 7 8
M  V30 28 1 17 18
M  V30 29 1 22 25
M  V30 30 1 26 27
M  V30 31 1 4 28
M  V30 32 1 6 29
M  V30 33 1 8 30
M  V30 34 1 9 31
M  V30 35 1 9 32
M  V30 36 1 13 33
M  V30 37 1 14 34
M  V30 38 1 14 35
M  V30 39 1 16 36
M  V30 40 1 16 37
M  V30 41 1 17 38
M  V30 42 1 17 39
M  V30 43 1 19 40
M  V30 44 1 21 41
M  V30 45 1 22 42
M  V30 46 1 23 43
M  V30 47 1 23 44
M  V30 48 1 24 45
M  V30 49 1 24 46
M  V30 50 1 25 47
M  V30 51 1 26 48
M  V30 52 1 26 49
M  V30 53 1 27 50
M  V30 54 1 27 51
M  V30 END BOND
M  V30 BEGIN COLLECTION
M  V30 MDLV30/STEABS ATOMS=(1 13)
M  V30 END COLLECTION
M  V30 END CTAB
M  END
>  <NO.>
2390

>  <Name>
chembl68441

>  <SMILES>
O=C(Cc1ccc(Cl)c(Cl)c1)N1CCc2ccccc2[C@H]1CN1CCCC1

>  <logBB>


>  <Class>
1

>  <MW>
402.13

>  <nHBAcc>
2

>  <nHBDon>
0

>  <SLogP>
4.76

>  <TopoPSA>
23.55

>  <MMFF94 Energy>
101.81

$$$$
O=C(Cc1ccc(Cl)c(Cl)c1)N1CCc2occc2[C@H]1CN1CCCC1
Actelion Java MolfileCreator 2.0

  0  0  0  0  0  0              0 V3000
M  V30 BEGIN CTAB
M  V30 COUNTS 48 51 0 0 0
M  V30 BEGIN ATOM
M  V30 1 Cl 4.8981 -1.7938 4.8981 0
M  V30 2 C 3.8581 -0.5657 4.2675 0
M  V30 3 C 3.823 0.7296 4.7929 0
M  V30 4 C 3.0322 -0.903 3.1889 0
M  V30 5 Cl 4.816 1.2212 6.1189 0
M  V30 6 C 2.9597 1.6795 4.24 0
M  V30 7 C 2.1706 0.0491 2.6227 0
M  V30 8 C 2.1362 1.3414 3.1632 0
M  V30 9 C 1.2672 -0.3243 1.4683 0
M  V30 10 C -0.1221 -0.8003 1.8872 0
M  V30 11 O -0.4004 -1.0027 3.0704 0
M  V30 12 N -1.0568 -1.0081 0.8749 0
M  V30 13 C -0.8026 -0.7369 -0.5779 0 CFG=1
M  V30 14 C -2.4181 -1.4633 1.2541 0
M  V30 15 C -1.5125 -1.7847 -1.3868 0
M  V30 16 C -1.2421 0.7133 -0.9442 0
M  V30 17 C -2.7991 -2.7915 0.5746 0
M  V30 18 C -2.4016 -2.6833 -0.8419 0
M  V30 19 C -1.4688 -2.1001 -2.7683 0
M  V30 20 N -0.7724 1.1912 -2.2558 0
M  V30 21 O -2.9081 -3.5232 -1.7706 0
M  V30 22 C -2.3335 -3.1592 -2.9507 0
M  V30 23 C 0.6706 1.4296 -2.3163 0
M  V30 24 C -1.3794 2.4744 -2.6192 0
M  V30 25 C 0.834 2.2812 -3.5675 0
M  V30 26 C -0.525 2.9352 -3.7887 0
M  V30 27 H 3.054 -1.9172 2.7946 0
M  V30 28 H 2.9183 2.6864 4.6488 0
M  V30 29 H 1.4606 2.0922 2.7579 0
M  V30 30 H 1.1725 0.5484 0.8131 0
M  V30 31 H 1.7441 -1.1205 0.8841 0
M  V30 32 H 0.2692 -0.8514 -0.7598 0
M  V30 33 H -3.1118 -0.6685 0.9514 0
M  V30 34 H -2.5177 -1.573 2.3385 0
M  V30 35 H -2.3404 0.7484 -0.9338 0
M  V30 36 H -0.9105 1.4052 -0.1581 0
M  V30 37 H -2.2528 -3.6191 1.0407 0
M  V30 38 H -3.8715 -2.9812 0.681 0
M  V30 39 H -0.8901 -1.6104 -3.5395 0
M  V30 40 H -2.6374 -3.7368 -3.8126 0
M  V30 41 H 1.2452 0.5017 -2.3944 0
M  V30 42 H 1.0256 1.988 -1.4408 0
M  V30 43 H -2.4302 2.3675 -2.9068 0
M  V30 44 H -1.3119 3.2006 -1.7989 0
M  V30 45 H 1.0927 1.66 -4.4329 0
M  V30 46 H 1.6253 3.0272 -3.4409 0
M  V30 47 H -0.9509 2.5912 -4.7388 0
M  V30 48 H -0.4504 4.0265 -3.8299 0
M  V30 END ATOM
M  V30 BEGIN BOND
M  V30 1 1 1 2
M  V30 2 2 2 3
M  V30 3 1 2 4
M  V30 4 1 3 5
M  V30 5 1 3 6
M  V30 6 2 4 7
M  V30 7 2 6 8
M  V30 8 1 7 9
M  V30 9 1 9 10
M  V30 10 2 10 11
M  V30 11 1 10 12
M  V30 12 1 12 13
M  V30 13 1 12 14
M  V30 14 1 13 15
M  V30 15 1 13 16
M  V30 16 1 14 17
M  V30 17 2 15 18
M  V30 18 1 15 19
M  V30 19 1 16 20
M  V30 20 1 18 21
M  V30 21 2 19 22
M  V30 22 1 20 23
M  V30 23 1 20 24
M  V30 24 1 23 25
M  V30 25 1 24 26
M  V30 26 1 7 8
M  V30 27 1 17 18
M  V30 28 1 21 22
M  V30 29 1 25 26
M  V30 30 1 4 27
M  V30 31 1 6 28
M  V30 32 1 8 29
M  V30 33 1 9 30
M  V30 34 1 9 31
M  V30 35 1 13 32
M  V30 36 1 14 33
M  V30 37 1 14 34
M  V30 38 1 16 35
M  V30 39 1 16 36
M  V30 40 1 17 37
M  V30 41 1 17 38
M  V30 42 1 19 39
M  V30 43 1 22 40
M  V30 44 1 23 41
M  V30 45 1 23 42
M  V30 46 1 24 43
M  V30 47 1 24 44
M  V30 48 1 25 45
M  V30 49 1 25 46
M  V30 50 1 26 47
M  V30 51 1 26 48
M  V30 END BOND
M  V30 BEGIN COLLECTION
M  V30 MDLV30/STEABS ATOMS=(1 13)
M  V30 END COLLECTION
M  V30 END CTAB
M  END
>  <NO.>
2391

>  <Name>
chembl70762

>  <SMILES>
O=C(Cc1ccc(Cl)c(Cl)c1)N1CCc2occc2[C@H]1CN1CCCC1

>  <logBB>


>  <Class>
1

>  <MW>
392.11

>  <nHBAcc>
3

>  <nHBDon>
0

>  <SLogP>
4.35

>  <TopoPSA>
36.69

>  <MMFF94 Energy>
80.553

$$$$
O=C(Cc1ccc(Cl)c(Cl)c1)N1CCc2occc2[C@H]1CN1CC[C@@H](O)C1
Actelion Java MolfileCreator 2.0

  0  0  0  0  0  0              0 V3000
M  V30 BEGIN CTAB
M  V30 COUNTS 49 52 0 0 0
M  V30 BEGIN ATOM
M  V30 1 Cl 5.0628 -0.4891 -1.7943 0
M  V30 2 C 4.1403 -1.2172 -0.5272 0
M  V30 3 C 4.3423 -2.5369 -0.114 0
M  V30 4 C 3.1582 -0.4345 0.0917 0
M  V30 5 Cl 5.533 -3.5619 -0.8317 0
M  V30 6 C 3.5656 -3.0639 0.9201 0
M  V30 7 C 2.3563 -0.9637 1.115 0
M  V30 8 C 2.5845 -2.2812 1.5347 0
M  V30 9 C 1.3056 -0.0987 1.779 0
M  V30 10 C -0.0195 -0.8076 2.0155 0
M  V30 11 O -0.2476 -1.2831 3.1335 0
M  V30 12 N -0.9224 -0.9401 0.9713 0
M  V30 13 C -0.7206 -0.419 -0.421 0 CFG=1
M  V30 14 C -2.1694 -1.7039 1.224 0
M  V30 15 C -1.0959 -1.5209 -1.373 0
M  V30 16 C -1.5566 0.8712 -0.6872 0
M  V30 17 C -2.2316 -2.9927 0.3818 0
M  V30 18 C -1.7843 -2.648 -0.9831 0
M  V30 19 C -0.8609 -1.6901 -2.7608 0
M  V30 20 N -1.0483 2.0597 0.0207 0
M  V30 21 O -2.0038 -3.4889 -2.0172 0
M  V30 22 C -1.4348 -2.8971 -3.1037 0
M  V30 23 C -2.0789 3.1005 0.1656 0
M  V30 24 C 0.04 2.7298 -0.7025 0
M  V30 25 C -1.2996 4.4128 0.3407 0 CFG=1
M  V30 26 C 0.1501 4.048 0.0449 0
M  V30 27 O -1.7313 5.3908 -0.6022 0
M  V30 28 H 3.0169 0.5952 -0.2302 0
M  V30 29 H 3.7188 -4.0867 1.2569 0
M  V30 30 H 1.9992 -2.7137 2.3465 0
M  V30 31 H 1.6961 0.22 2.7542 0
M  V30 32 H 1.1333 0.8213 1.2186 0
M  V30 33 H 0.3348 -0.1969 -0.5864 0
M  V30 34 H -2.2784 -1.961 2.2824 0
M  V30 35 H -3.0115 -1.0476 0.9749 0
M  V30 36 H -1.6143 1.0719 -1.7657 0
M  V30 37 H -2.5896 0.6816 -0.3681 0
M  V30 38 H -1.5539 -3.7441 0.8022 0
M  V30 39 H -3.246 -3.4027 0.3841 0
M  V30 40 H -0.3393 -1.0243 -3.4343 0
M  V30 41 H -1.5165 -3.4508 -4.0288 0
M  V30 42 H -2.6984 2.895 1.0448 0
M  V30 43 H -2.7345 3.1574 -0.7127 0
M  V30 44 H -0.2172 2.9126 -1.7538 0
M  V30 45 H 0.9787 2.171 -0.666 0
M  V30 46 H -1.3985 4.83 1.3483 0
M  V30 47 H 0.6931 3.891 0.9853 0
M  V30 48 H 0.6783 4.8052 -0.5422 0
M  V30 49 H -2.6395 5.6436 -0.3618 0
M  V30 END ATOM
M  V30 BEGIN BOND
M  V30 1 1 1 2
M  V30 2 2 2 3
M  V30 3 1 2 4
M  V30 4 1 3 5
M  V30 5 1 3 6
M  V30 6 2 4 7
M  V30 7 2 6 8
M  V30 8 1 7 9
M  V30 9 1 9 10
M  V30 10 2 10 11
M  V30 11 1 10 12
M  V30 12 1 12 13
M  V30 13 1 12 14
M  V30 14 1 13 15
M  V30 15 1 13 16
M  V30 16 1 14 17
M  V30 17 2 15 18
M  V30 18 1 15 19
M  V30 19 1 16 20
M  V30 20 1 18 21
M  V30 21 2 19 22
M  V30 22 1 20 23
M  V30 23 1 20 24
M  V30 24 1 23 25
M  V30 25 1 24 26
M  V30 26 1 25 27
M  V30 27 1 7 8
M  V30 28 1 17 18
M  V30 29 1 21 22
M  V30 30 1 25 26
M  V30 31 1 4 28
M  V30 32 1 6 29
M  V30 33 1 8 30
M  V30 34 1 9 31
M  V30 35 1 9 32
M  V30 36 1 13 33
M  V30 37 1 14 34
M  V30 38 1 14 35
M  V30 39 1 16 36
M  V30 40 1 16 37
M  V30 41 1 17 38
M  V30 42 1 17 39
M  V30 43 1 19 40
M  V30 44 1 22 41
M  V30 45 1 23 42
M  V30 46 1 23 43
M  V30 47 1 24 44
M  V30 48 1 24 45
M  V30 49 1 25 46
M  V30 50 1 26 47
M  V30 51 1 26 48
M  V30 52 1 27 49
M  V30 END BOND
M  V30 BEGIN COLLECTION
M  V30 MDLV30/STEABS ATOMS=(2 13 25)
M  V30 END COLLECTION
M  V30 END CTAB
M  END
>  <NO.>
2392

>  <Name>
gr91272

>  <SMILES>
O=C(Cc1ccc(Cl)c(Cl)c1)N1CCc2occc2[C@H]1CN1CC[C@@H](O)C1

>  <logBB>


>  <Class>
1

>  <MW>
408.1

>  <nHBAcc>
4

>  <nHBDon>
1

>  <SLogP>
3.32

>  <TopoPSA>
56.92

>  <MMFF94 Energy>
100.98

$$$$
O=C(Cc1ccc(Cl)c(Cl)c1)N1CCc2sccc2[C@H]1CN1CCCC1
Actelion Java MolfileCreator 2.0

  0  0  0  0  0  0              0 V3000
M  V30 BEGIN CTAB
M  V30 COUNTS 48 51 0 0 0
M  V30 BEGIN ATOM
M  V30 1 Cl 5.2813 3.2984 0.8238 0
M  V30 2 C 4.1859 2.0676 1.3442 0
M  V30 3 C 3.7306 1.9798 2.6625 0
M  V30 4 C 3.7553 1.1332 0.3944 0
M  V30 5 Cl 4.2149 3.0944 3.8903 0
M  V30 6 C 2.8545 0.954 3.0256 0
M  V30 7 C 2.8566 0.1124 0.7445 0
M  V30 8 C 2.4266 0.0229 2.0759 0
M  V30 9 C 2.4006 -0.9172 -0.2674 0
M  V30 10 C 2.0564 -0.3387 -1.6349 0
M  V30 11 O 2.921 -0.3323 -2.5173 0
M  V30 12 N 0.7877 0.1897 -1.8594 0
M  V30 13 C -0.298 0.2105 -0.8333 0 CFG=1
M  V30 14 C 0.581 0.8271 -3.1816 0
M  V30 15 C -1.1898 1.4079 -1.0586 0
M  V30 16 C -1.1048 -1.1282 -0.8672 0
M  V30 17 C -0.8501 1.2567 -3.5319 0
M  V30 18 C -1.4532 1.8782 -2.326 0
M  V30 19 C -1.8727 2.1875 -0.0756 0
M  V30 20 N -2.0341 -1.3238 0.2576 0
M  V30 21 S -2.4949 3.2111 -2.3529 0
M  V30 22 C -2.6178 3.2004 -0.6434 0
M  V30 23 C -2.889 -2.4971 0.0661 0
M  V30 24 C -1.375 -1.5425 1.5441 0
M  V30 25 C -3.5002 -2.6992 1.4428 0
M  V30 26 C -2.4846 -2.1125 2.4164 0
M  V30 27 H 4.1292 1.2053 -0.6267 0
M  V30 28 H 2.5039 0.8714 4.052 0
M  V30 29 H 1.7544 -0.7736 2.3886 0
M  V30 30 H 3.2138 -1.6412 -0.4054 0
M  V30 31 H 1.5547 -1.494 0.1152 0
M  V30 32 H 0.1735 0.324 0.1452 0
M  V30 33 H 1.2318 1.7124 -3.1904 0
M  V30 34 H 0.9599 0.1547 -3.9608 0
M  V30 35 H -1.6816 -1.1539 -1.8018 0
M  V30 36 H -0.4114 -1.977 -0.9262 0
M  V30 37 H -1.4411 0.3774 -3.8143 0
M  V30 38 H -0.8353 1.9363 -4.3905 0
M  V30 39 H -1.8321 2.0083 0.9917 0
M  V30 40 H -3.2333 3.9328 -0.1398 0
M  V30 41 H -3.6583 -2.3286 -0.6939 0
M  V30 42 H -2.3041 -3.3817 -0.2159 0
M  V30 43 H -0.9752 -0.6184 1.9719 0
M  V30 44 H -0.5593 -2.2715 1.4621 0
M  V30 45 H -4.4498 -2.1576 1.5282 0
M  V30 46 H -3.6973 -3.7562 1.6472 0
M  V30 47 H -2.0994 -2.8721 3.1042 0
M  V30 48 H -2.9559 -1.3247 3.0155 0
M  V30 END ATOM
M  V30 BEGIN BOND
M  V30 1 1 1 2
M  V30 2 2 2 3
M  V30 3 1 2 4
M  V30 4 1 3 5
M  V30 5 1 3 6
M  V30 6 2 4 7
M  V30 7 2 6 8
M  V30 8 1 7 9
M  V30 9 1 9 10
M  V30 10 2 10 11
M  V30 11 1 10 12
M  V30 12 1 12 13
M  V30 13 1 12 14
M  V30 14 1 13 15
M  V30 15 1 13 16
M  V30 16 1 14 17
M  V30 17 2 15 18
M  V30 18 1 15 19
M  V30 19 1 16 20
M  V30 20 1 18 21
M  V30 21 2 19 22
M  V30 22 1 20 23
M  V30 23 1 20 24
M  V30 24 1 23 25
M  V30 25 1 24 26
M  V30 26 1 7 8
M  V30 27 1 17 18
M  V30 28 1 21 22
M  V30 29 1 25 26
M  V30 30 1 4 27
M  V30 31 1 6 28
M  V30 32 1 8 29
M  V30 33 1 9 30
M  V30 34 1 9 31
M  V30 35 1 13 32
M  V30 36 1 14 33
M  V30 37 1 14 34
M  V30 38 1 16 35
M  V30 39 1 16 36
M  V30 40 1 17 37
M  V30 41 1 17 38
M  V30 42 1 19 39
M  V30 43 1 22 40
M  V30 44 1 23 41
M  V30 45 1 23 42
M  V30 46 1 24 43
M  V30 47 1 24 44
M  V30 48 1 25 45
M  V30 49 1 25 46
M  V30 50 1 26 47
M  V30 51 1 26 48
M  V30 END BOND
M  V30 BEGIN COLLECTION
M  V30 MDLV30/STEABS ATOMS=(1 13)
M  V30 END COLLECTION
M  V30 END CTAB
M  END
>  <NO.>
2393

>  <Name>
chembl411088

>  <SMILES>
O=C(Cc1ccc(Cl)c(Cl)c1)N1CCc2sccc2[C@H]1CN1CCCC1

>  <logBB>


>  <Class>
1

>  <MW>
408.08

>  <nHBAcc>
3

>  <nHBDon>
0

>  <SLogP>
4.82

>  <TopoPSA>
23.55

>  <MMFF94 Energy>
89.775

$$$$
O=C(Cc1ccc(Cl)c(Cl)c1)N1CCn2ccnc2[C@H]1CN1CCCC1
Actelion Java MolfileCreator 2.0

  0  0  0  0  0  0              0 V3000
M  V30 BEGIN CTAB
M  V30 COUNTS 48 51 0 0 0
M  V30 BEGIN ATOM
M  V30 1 Cl 6.4394 -1.7901 2.4417 0
M  V30 2 C 4.8583 -1.5958 3.1125 0
M  V30 3 C 4.4177 -2.3285 4.2188 0
M  V30 4 C 4.0075 -0.6605 2.5116 0
M  V30 5 Cl 5.413 -3.4941 5.0166 0
M  V30 6 C 3.1275 -2.1256 4.7157 0
M  V30 7 C 2.7149 -0.4437 3.0129 0
M  V30 8 C 2.28 -1.1909 4.1156 0
M  V30 9 C 1.7927 0.5563 2.3517 0
M  V30 10 C 0.8498 -0.0451 1.3141 0
M  V30 11 O 0.9046 -1.2365 1.0122 0
M  V30 12 N -0.0776 0.8144 0.7295 0
M  V30 13 C -1.0052 0.2482 -0.2934 0 CFG=1
M  V30 14 C -0.1508 2.2637 0.9461 0
M  V30 15 C -2.3454 0.9575 -0.2096 0
M  V30 16 C -0.3804 0.3712 -1.7229 0
M  V30 17 C -1.5405 2.6622 1.423 0
M  V30 18 N -3.4651 0.6486 -0.8384 0
M  V30 19 N -2.5492 2.0698 0.573 0
M  V30 20 N -0.5719 -0.7813 -2.6196 0
M  V30 21 C -4.3922 1.5818 -0.4517 0
M  V30 22 C -3.8393 2.4813 0.4269 0
M  V30 23 C 0.1192 -0.6111 -3.8974 0
M  V30 24 C -1.9693 -1.0307 -2.9762 0
M  V30 25 C -0.476 -1.7142 -4.7569 0
M  V30 26 C -1.8621 -1.9643 -4.1746 0
M  V30 27 H 4.3529 -0.1055 1.6418 0
M  V30 28 H 2.7712 -2.6995 5.568 0
M  V30 29 H 1.2729 -1.0618 4.5077 0
M  V30 30 H 1.1963 1.0464 3.1311 0
M  V30 31 H 2.3981 1.3306 1.8654 0
M  V30 32 H -1.1684 -0.8099 -0.0557 0
M  V30 33 H 0.0804 2.7438 -0.0127 0
M  V30 34 H 0.5936 2.6138 1.6628 0
M  V30 35 H -0.7276 1.2955 -2.2056 0
M  V30 36 H 0.7054 0.4853 -1.6022 0
M  V30 37 H -1.6643 3.7496 1.4063 0
M  V30 38 H -1.729 2.292 2.4369 0
M  V30 39 H -5.4076 1.5534 -0.8255 0
M  V30 40 H -4.251 3.3372 0.9429 0
M  V30 41 H 1.2038 -0.7201 -3.799 0
M  V30 42 H -0.0951 0.367 -4.3467 0
M  V30 43 H -2.5297 -1.5044 -2.1649 0
M  V30 44 H -2.4805 -0.1082 -3.2782 0
M  V30 45 H 0.1254 -2.628 -4.6862 0
M  V30 46 H -0.5234 -1.4241 -5.8112 0
M  V30 47 H -1.951 -3.0118 -3.8638 0
M  V30 48 H -2.6505 -1.7639 -4.9073 0
M  V30 END ATOM
M  V30 BEGIN BOND
M  V30 1 1 1 2
M  V30 2 2 2 3
M  V30 3 1 2 4
M  V30 4 1 3 5
M  V30 5 1 3 6
M  V30 6 2 4 7
M  V30 7 2 6 8
M  V30 8 1 7 9
M  V30 9 1 9 10
M  V30 10 2 10 11
M  V30 11 1 10 12
M  V30 12 1 12 13
M  V30 13 1 12 14
M  V30 14 1 13 15
M  V30 15 1 13 16
M  V30 16 1 14 17
M  V30 17 2 15 18
M  V30 18 1 15 19
M  V30 19 1 16 20
M  V30 20 1 18 21
M  V30 21 1 19 22
M  V30 22 1 20 23
M  V30 23 1 20 24
M  V30 24 1 23 25
M  V30 25 1 24 26
M  V30 26 1 7 8
M  V30 27 1 17 19
M  V30 28 2 21 22
M  V30 29 1 25 26
M  V30 30 1 4 27
M  V30 31 1 6 28
M  V30 32 1 8 29
M  V30 33 1 9 30
M  V30 34 1 9 31
M  V30 35 1 13 32
M  V30 36 1 14 33
M  V30 37 1 14 34
M  V30 38 1 16 35
M  V30 39 1 16 36
M  V30 40 1 17 37
M  V30 41 1 17 38
M  V30 42 1 21 39
M  V30 43 1 22 40
M  V30 44 1 23 41
M  V30 45 1 23 42
M  V30 46 1 24 43
M  V30 47 1 24 44
M  V30 48 1 25 45
M  V30 49 1 25 46
M  V30 50 1 26 47
M  V30 51 1 26 48
M  V30 END BOND
M  V30 BEGIN COLLECTION
M  V30 MDLV30/STEABS ATOMS=(1 13)
M  V30 END COLLECTION
M  V30 END CTAB
M  END
>  <NO.>
2394

>  <Name>
sb201708

>  <SMILES>
O=C(Cc1ccc(Cl)c(Cl)c1)N1CCn2ccnc2[C@H]1CN1CCCC1

>  <logBB>


>  <Class>
1

>  <MW>
392.12

>  <nHBAcc>
3

>  <nHBDon>
0

>  <SLogP>
3.41

>  <TopoPSA>
41.37

>  <MMFF94 Energy>
89.732

$$$$
O=C(Cc1ccc(Cl)c(Cl)c1)N1CCn2ccnc2[C@H]1CN1CC[C@@H](O)C1
Actelion Java MolfileCreator 2.0

  0  0  0  0  0  0              0 V3000
M  V30 BEGIN CTAB
M  V30 COUNTS 49 52 0 0 0
M  V30 BEGIN ATOM
M  V30 1 Cl -3.9111 4.3192 4.4008 0
M  V30 2 C -3.587 2.705 3.8748 0
M  V30 3 C -4.5217 1.6729 4.0018 0
M  V30 4 C -2.3342 2.4453 3.307 0
M  V30 5 Cl -6.0851 1.916 4.6966 0
M  V30 6 C -4.2004 0.3875 3.557 0
M  V30 7 C -2.0021 1.1547 2.867 0
M  V30 8 C -2.9495 0.1298 2.9905 0
M  V30 9 C -0.6541 0.8832 2.2371 0
M  V30 10 C -0.6001 1.1446 0.7352 0
M  V30 11 O -1.5806 1.5591 0.1149 0
M  V30 12 N 0.6064 0.8913 0.089 0
M  V30 13 C 0.6386 1.0906 -1.3826 0 CFG=1
M  V30 14 C 1.7994 0.3013 0.7161 0
M  V30 15 C 2.046 1.305 -1.8881 0
M  V30 16 C -0.0831 -0.0376 -2.188 0
M  V30 17 C 3.0613 1.0784 0.3652 0
M  V30 18 N 2.4227 1.5636 -3.1277 0
M  V30 19 N 3.14 1.2829 -1.0618 0
M  V30 20 N 0.343 -1.4244 -1.8817 0
M  V30 21 C 3.789 1.6832 -3.0871 0
M  V30 22 C 4.2569 1.5115 -1.8058 0
M  V30 23 C -0.5268 -2.0835 -0.889 0
M  V30 24 C 0.244 -2.2917 -3.0669 0
M  V30 25 C -0.0528 -3.5292 -1.0117 0 CFG=1
M  V30 26 C 0.1712 -3.714 -2.5085 0
M  V30 27 O 1.1956 -3.676 -0.3256 0
M  V30 28 H -1.6174 3.2569 3.1981 0
M  V30 29 H -4.9242 -0.4194 3.6441 0
M  V30 30 H -2.7253 -0.8757 2.6397 0
M  V30 31 H 0.0988 1.5097 2.7306 0
M  V30 32 H -0.3844 -0.1632 2.4232 0
M  V30 33 H 0.0962 2.0232 -1.5919 0
M  V30 34 H 1.7036 0.2525 1.8023 0
M  V30 35 H 1.8811 -0.7306 0.3587 0
M  V30 36 H -1.1684 0.0561 -2.0516 0
M  V30 37 H 0.0911 0.1668 -3.2539 0
M  V30 38 H 3.0508 2.0729 0.8253 0
M  V30 39 H 3.9562 0.5395 0.692 0
M  V30 40 H 4.361 1.8914 -3.982 0
M  V30 41 H 5.2528 1.5418 -1.3872 0
M  V30 42 H -1.5881 -2.0034 -1.1552 0
M  V30 43 H -0.3681 -1.6953 0.1193 0
M  V30 44 H -0.6645 -2.0851 -3.6478 0
M  V30 45 H 1.1099 -2.164 -3.7245 0
M  V30 46 H -0.761 -4.2502 -0.595 0
M  V30 47 H 1.089 -4.273 -2.7199 0
M  V30 48 H -0.675 -4.2407 -2.9633 0
M  V30 49 H 1.7698 -2.9847 -0.71 0
M  V30 END ATOM
M  V30 BEGIN BOND
M  V30 1 1 1 2
M  V30 2 2 2 3
M  V30 3 1 2 4
M  V30 4 1 3 5
M  V30 5 1 3 6
M  V30 6 2 4 7
M  V30 7 2 6 8
M  V30 8 1 7 9
M  V30 9 1 9 10
M  V30 10 2 10 11
M  V30 11 1 10 12
M  V30 12 1 12 13
M  V30 13 1 12 14
M  V30 14 1 13 15
M  V30 15 1 13 16
M  V30 16 1 14 17
M  V30 17 2 15 18
M  V30 18 1 15 19
M  V30 19 1 16 20
M  V30 20 1 18 21
M  V30 21 1 19 22
M  V30 22 1 20 23
M  V30 23 1 20 24
M  V30 24 1 23 25
M  V30 25 1 24 26
M  V30 26 1 25 27
M  V30 27 1 7 8
M  V30 28 1 17 19
M  V30 29 2 21 22
M  V30 30 1 25 26
M  V30 31 1 4 28
M  V30 32 1 6 29
M  V30 33 1 8 30
M  V30 34 1 9 31
M  V30 35 1 9 32
M  V30 36 1 13 33
M  V30 37 1 14 34
M  V30 38 1 14 35
M  V30 39 1 16 36
M  V30 40 1 16 37
M  V30 41 1 17 38
M  V30 42 1 17 39
M  V30 43 1 21 40
M  V30 44 1 22 41
M  V30 45 1 23 42
M  V30 46 1 23 43
M  V30 47 1 24 44
M  V30 48 1 24 45
M  V30 49 1 25 46
M  V30 50 1 26 47
M  V30 51 1 26 48
M  V30 52 1 27 49
M  V30 END BOND
M  V30 BEGIN COLLECTION
M  V30 MDLV30/STEABS ATOMS=(2 13 25)
M  V30 END COLLECTION
M  V30 END CTAB
M  END
>  <NO.>
2395

>  <Name>
chembl304504

>  <SMILES>
O=C(Cc1ccc(Cl)c(Cl)c1)N1CCn2ccnc2[C@H]1CN1CC[C@@H](O)C1

>  <logBB>


>  <Class>
-1

>  <MW>
408.11

>  <nHBAcc>
4

>  <nHBDon>
1

>  <SLogP>
2.38

>  <TopoPSA>
61.6

>  <MMFF94 Energy>
105.14

$$$$
O=C(Cc1ccc(Cl)c(Cl)c1)N1CCn2ncnc2[C@H]1CN1CCCC1
Actelion Java MolfileCreator 2.0

  0  0  0  0  0  0              0 V3000
M  V30 BEGIN CTAB
M  V30 COUNTS 47 50 0 0 0
M  V30 BEGIN ATOM
M  V30 1 Cl -1.9568 4.734 0.815 0
M  V30 2 C -0.595 4.0133 1.5983 0
M  V30 3 C 0.3949 4.7715 2.2308 0
M  V30 4 C -0.503 2.6174 1.5906 0
M  V30 5 Cl 0.3482 6.4982 2.2851 0
M  V30 6 C 1.4722 4.1301 2.8492 0
M  V30 7 C 0.5715 1.9673 2.2189 0
M  V30 8 C 1.5617 2.7359 2.8422 0
M  V30 9 C 0.6624 0.4576 2.1912 0
M  V30 10 C 1.1509 -0.094 0.8562 0
M  V30 11 O 1.9018 0.5607 0.1316 0
M  V30 12 N 0.722 -1.3677 0.5005 0
M  V30 13 C 0.7755 -1.7404 -0.9379 0 CFG=1
M  V30 14 C 0.138 -2.3502 1.4231 0
M  V30 15 C 1.1471 -3.1873 -1.0734 0
M  V30 16 C -0.6008 -1.4971 -1.6411 0
M  V30 17 C 0.8987 -3.6708 1.3648 0
M  V30 18 N 1.461 -3.871 -2.156 0
M  V30 19 N 1.1548 -4.0367 -0.0065 0
M  V30 20 N -1.1509 -0.1347 -1.4976 0
M  V30 21 C 1.6615 -5.1379 -1.679 0
M  V30 22 N 1.4738 -5.2888 -0.3646 0
M  V30 23 C -2.5372 -0.052 -1.9657 0
M  V30 24 C -0.4314 0.8477 -2.3203 0
M  V30 25 C -2.7632 1.447 -2.0622 0
M  V30 26 C -1.3955 2.0241 -2.4052 0
M  V30 27 H -1.2667 2.0309 1.0818 0
M  V30 28 H 2.2519 4.7125 3.3346 0
M  V30 29 H 2.4166 2.2573 3.3161 0
M  V30 30 H 1.3378 0.0985 2.9764 0
M  V30 31 H -0.338 0.0727 2.4187 0
M  V30 32 H 1.5397 -1.1409 -1.4453 0
M  V30 33 H 0.1509 -1.9922 2.455 0
M  V30 34 H -0.9099 -2.4901 1.1343 0
M  V30 35 H -0.525 -1.7739 -2.702 0
M  V30 36 H -1.3275 -2.1956 -1.2025 0
M  V30 37 H 1.8766 -3.5797 1.8505 0
M  V30 38 H 0.3305 -4.4733 1.8451 0
M  V30 39 H 1.9474 -5.9709 -2.3085 0
M  V30 40 H -3.2372 -0.5193 -1.2658 0
M  V30 41 H -2.6622 -0.5162 -2.9524 0
M  V30 42 H 0.522 1.1523 -1.8843 0
M  V30 43 H -0.2385 0.4637 -3.3304 0
M  V30 44 H -3.1028 1.848 -1.0994 0
M  V30 45 H -3.5159 1.6999 -2.8154 0
M  V30 46 H -1.1271 2.8085 -1.6896 0
M  V30 47 H -1.388 2.4668 -3.4067 0
M  V30 END ATOM
M  V30 BEGIN BOND
M  V30 1 1 1 2
M  V30 2 2 2 3
M  V30 3 1 2 4
M  V30 4 1 3 5
M  V30 5 1 3 6
M  V30 6 2 4 7
M  V30 7 2 6 8
M  V30 8 1 7 9
M  V30 9 1 9 10
M  V30 10 2 10 11
M  V30 11 1 10 12
M  V30 12 1 12 13
M  V30 13 1 12 14
M  V30 14 1 13 15
M  V30 15 1 13 16
M  V30 16 1 14 17
M  V30 17 2 15 18
M  V30 18 1 15 19
M  V30 19 1 16 20
M  V30 20 1 18 21
M  V30 21 1 19 22
M  V30 22 1 20 23
M  V30 23 1 20 24
M  V30 24 1 23 25
M  V30 25 1 24 26
M  V30 26 1 7 8
M  V30 27 1 17 19
M  V30 28 2 21 22
M  V30 29 1 25 26
M  V30 30 1 4 27
M  V30 31 1 6 28
M  V30 32 1 8 29
M  V30 33 1 9 30
M  V30 34 1 9 31
M  V30 35 1 13 32
M  V30 36 1 14 33
M  V30 37 1 14 34
M  V30 38 1 16 35
M  V30 39 1 16 36
M  V30 40 1 17 37
M  V30 41 1 17 38
M  V30 42 1 21 39
M  V30 43 1 23 40
M  V30 44 1 23 41
M  V30 45 1 24 42
M  V30 46 1 24 43
M  V30 47 1 25 44
M  V30 48 1 25 45
M  V30 49 1 26 46
M  V30 50 1 26 47
M  V30 END BOND
M  V30 BEGIN COLLECTION
M  V30 MDLV30/STEABS ATOMS=(1 13)
M  V30 END COLLECTION
M  V30 END CTAB
M  END
>  <NO.>
2396

>  <Name>
sb204484

>  <SMILES>
O=C(Cc1ccc(Cl)c(Cl)c1)N1CCn2ncnc2[C@H]1CN1CCCC1

>  <logBB>


>  <Class>
1

>  <MW>
393.11

>  <nHBAcc>
4

>  <nHBDon>
0

>  <SLogP>
2.81

>  <TopoPSA>
54.26

>  <MMFF94 Energy>
75.956

$$$$
O=C(Cc1cccs1)N[C@@H]1C(=O)N2C(C(=O)O)=C(CSc3ncn[nH]3)CS[C@H]12
Actelion Java MolfileCreator 2.0

  0  0  0  0  0  0              0 V3000
M  V30 BEGIN CTAB
M  V30 COUNTS 43 46 0 0 0
M  V30 BEGIN ATOM
M  V30 1 S -1.5086 1.5086 -1.0893 0
M  V30 2 C -0.4415 2.4349 0.0477 0 CFG=1
M  V30 3 C -2.484 0.7618 0.2569 0
M  V30 4 N 0.2428 1.4846 0.8864 0
M  V30 5 C 0.9621 2.8692 -0.4755 0 CFG=1
M  V30 6 C -1.6408 0.1425 1.3583 0
M  V30 7 C -0.3573 0.5001 1.6027 0
M  V30 8 C 1.5048 1.8935 0.6377 0
M  V30 9 N 1.3035 2.4846 -1.8718 0
M  V30 10 C -2.3856 -0.8901 2.1802 0
M  V30 11 C 0.4585 -0.1936 2.6382 0
M  V30 12 O 2.5735 1.5303 1.0668 0
M  V30 13 C 2.4481 2.9331 -2.4921 0
M  V30 14 S -2.3819 -2.4924 1.3233 0
M  V30 15 O 0.5887 -1.3948 2.7826 0
M  V30 16 O 1.0129 0.6954 3.4824 0
M  V30 17 O 3.1902 3.7693 -1.9833 0
M  V30 18 C 2.6894 2.3671 -3.881 0
M  V30 19 C -3.2535 -3.4382 2.4628 0
M  V30 20 C 2.7772 0.8708 -3.8238 0
M  V30 21 N -4.0232 -3.0297 3.4407 0
M  V30 22 N -3.2154 -4.7961 2.4311 0
M  V30 23 S 1.5004 -0.0935 -4.4387 0
M  V30 24 C 3.7955 0.0939 -3.3067 0
M  V30 25 C -4.4457 -4.209 3.9922 0
M  V30 26 N -3.9821 -5.3183 3.4069 0
M  V30 27 C 2.3015 -1.5404 -4.0075 0
M  V30 28 C 3.5181 -1.2993 -3.41 0
M  V30 29 H -0.9558 3.2177 0.6181 0
M  V30 30 H -3.1189 0.0053 -0.2144 0
M  V30 31 H -3.1443 1.5232 0.6868 0
M  V30 32 H 1.1849 3.9234 -0.2745 0
M  V30 33 H 0.7396 1.7816 -2.3447 0
M  V30 34 H -1.9535 -1.0059 3.1794 0
M  V30 35 H -3.4188 -0.5547 2.3315 0
M  V30 36 H 1.5943 0.1543 4.0552 0
M  V30 37 H 3.63 2.7764 -4.2674 0
M  V30 38 H 1.8842 2.7102 -4.5404 0
M  V30 39 H -2.7065 -5.4025 1.7994 0
M  V30 40 H 4.6953 0.5055 -2.862 0
M  V30 41 H -5.1118 -4.26 4.8446 0
M  V30 42 H 1.8431 -2.4985 -4.2115 0
M  V30 43 H 4.1776 -2.0845 -3.0607 0
M  V30 END ATOM
M  V30 BEGIN BOND
M  V30 1 1 1 2
M  V30 2 1 1 3
M  V30 3 1 2 4
M  V30 4 1 2 5
M  V30 5 1 3 6
M  V30 6 1 4 7
M  V30 7 1 4 8
M  V30 8 1 5 9
M  V30 9 1 6 10
M  V30 10 1 7 11
M  V30 11 2 8 12
M  V30 12 1 9 13
M  V30 13 1 10 14
M  V30 14 2 11 15
M  V30 15 1 11 16
M  V30 16 2 13 17
M  V30 17 1 13 18
M  V30 18 1 14 19
M  V30 19 1 18 20
M  V30 20 2 19 21
M  V30 21 1 19 22
M  V30 22 1 20 23
M  V30 23 2 20 24
M  V30 24 1 21 25
M  V30 25 1 22 26
M  V30 26 1 23 27
M  V30 27 1 24 28
M  V30 28 1 5 8
M  V30 29 2 6 7
M  V30 30 2 25 26
M  V30 31 2 27 28
M  V30 32 1 2 29
M  V30 33 1 3 30
M  V30 34 1 3 31
M  V30 35 1 5 32
M  V30 36 1 9 33
M  V30 37 1 10 34
M  V30 38 1 10 35
M  V30 39 1 16 36
M  V30 40 1 18 37
M  V30 41 1 18 38
M  V30 42 1 22 39
M  V30 43 1 24 40
M  V30 44 1 25 41
M  V30 45 1 27 42
M  V30 46 1 28 43
M  V30 END BOND
M  V30 BEGIN COLLECTION
M  V30 MDLV30/STEABS ATOMS=(2 2 5)
M  V30 END COLLECTION
M  V30 END CTAB
M  END
>  <NO.>
2397

>  <Name>
cefetrizole

>  <SMILES>
O=C(Cc1cccs1)N[C@@H]1C(=O)N2C(C(=O)O)=C(CSc3ncn[nH]3)CS[C@H]12

>  <logBB>


>  <Class>
-1

>  <MW>
437.03

>  <nHBAcc>
8

>  <nHBDon>
3

>  <SLogP>
0.94

>  <TopoPSA>
128.28

>  <MMFF94 Energy>
7.9199

$$$$
O=C(Cn1ccnc1)c1ccc2ccccc2c1
Actelion Java MolfileCreator 2.0

  0  0  0  0  0  0              0 V3000
M  V30 BEGIN CTAB
M  V30 COUNTS 30 32 0 0 0
M  V30 BEGIN ATOM
M  V30 1 O 1.0401 0.8 -1.8407 0
M  V30 2 C 0.9822 -0.0713 -0.976 0
M  V30 3 C -0.22 -0.1219 -0.0877 0
M  V30 4 C 2.0603 -1.1149 -0.7775 0
M  V30 5 C -1.1159 0.957 -0.1202 0
M  V30 6 C -0.4812 -1.2031 0.7597 0
M  V30 7 N 3.2907 -0.8203 -1.4923 0
M  V30 8 C -2.2634 0.9722 0.6897 0
M  V30 9 C -1.6211 -1.1988 1.5707 0
M  V30 10 C 3.5022 -0.999 -2.8299 0
M  V30 11 C 4.4734 -0.4183 -0.9354 0
M  V30 12 C -2.5189 -0.1203 1.5481 0
M  V30 13 C -3.1624 2.0506 0.6643 0
M  V30 14 N 4.7515 -0.7513 -3.1541 0
M  V30 15 C 5.3608 -0.3746 -1.9857 0
M  V30 16 C -3.666 -0.1047 2.3579 0
M  V30 17 C -4.2981 2.0513 1.4755 0
M  V30 18 C -4.5496 0.9752 2.3214 0
M  V30 19 H 1.7043 -2.0851 -1.14 0
M  V30 20 H 2.3191 -1.1892 0.2839 0
M  V30 21 H -0.9174 1.7983 -0.7842 0
M  V30 22 H 0.1714 -2.0692 0.8104 0
M  V30 23 H -1.8079 -2.0501 2.2233 0
M  V30 24 H 2.7229 -1.3069 -3.5153 0
M  V30 25 H 4.5887 -0.2024 0.1171 0
M  V30 26 H -2.9842 2.9013 0.0093 0
M  V30 27 H 6.4067 -0.0974 -1.962 0
M  V30 28 H -3.8821 -0.9359 3.0256 0
M  V30 29 H -4.9859 2.8928 1.4454 0
M  V30 30 H -5.4345 0.9753 2.953 0
M  V30 END ATOM
M  V30 BEGIN BOND
M  V30 1 2 1 2
M  V30 2 1 2 3
M  V30 3 1 2 4
M  V30 4 2 3 5
M  V30 5 1 3 6
M  V30 6 1 4 7
M  V30 7 1 5 8
M  V30 8 2 6 9
M  V30 9 1 7 10
M  V30 10 1 7 11
M  V30 11 1 8 12
M  V30 12 2 8 13
M  V30 13 2 10 14
M  V30 14 2 11 15
M  V30 15 2 12 16
M  V30 16 1 13 17
M  V30 17 1 16 18
M  V30 18 1 9 12
M  V30 19 1 14 15
M  V30 20 2 17 18
M  V30 21 1 4 19
M  V30 22 1 4 20
M  V30 23 1 5 21
M  V30 24 1 6 22
M  V30 25 1 9 23
M  V30 26 1 10 24
M  V30 27 1 11 25
M  V30 28 1 13 26
M  V30 29 1 15 27
M  V30 30 1 16 28
M  V30 31 1 17 29
M  V30 32 1 18 30
M  V30 END BOND
M  V30 END CTAB
M  END
>  <NO.>
2398

>  <Name>
nafimidone

>  <SMILES>
O=C(Cn1ccnc1)c1ccc2ccccc2c1

>  <logBB>


>  <Class>
1

>  <MW>
236.09

>  <nHBAcc>
2

>  <nHBDon>
0

>  <SLogP>
2.92

>  <TopoPSA>
34.89

>  <MMFF94 Energy>
53.729

$$$$
O=C(NC(=O)c1ccccc1)NC1CCN(Cc2ccc3ccccc3c2)CC1
Actelion Java MolfileCreator 2.0

  0  0  0  0  0  0              0 V3000
M  V30 BEGIN CTAB
M  V30 COUNTS 54 57 0 0 0
M  V30 BEGIN ATOM
M  V30 1 O 1.1931 -2.6263 2.3873 0
M  V30 2 C 1.4726 -1.4538 2.5931 0
M  V30 3 N 1.7808 -0.9051 3.8153 0
M  V30 4 N 1.6064 -0.5265 1.579 0
M  V30 5 C 1.4319 -1.457 5.032 0
M  V30 6 C 1.3992 -0.8915 0.1816 0
M  V30 7 O 0.5058 -2.2348 5.2238 0
M  V30 8 C 2.1806 -0.9174 6.2009 0
M  V30 9 C -0.0887 -0.8638 -0.1775 0
M  V30 10 C 2.1938 0.0375 -0.7371 0
M  V30 11 C 1.5096 -0.7795 7.4222 0
M  V30 12 C 3.536 -0.5719 6.1086 0
M  V30 13 C -0.2933 -1.1322 -1.6689 0
M  V30 14 C 1.9031 -0.2704 -2.2061 0
M  V30 15 C 2.1801 -0.2712 8.5356 0
M  V30 16 C 4.2026 -0.065 7.2265 0
M  V30 17 N 0.4759 -0.2379 -2.5488 0
M  V30 18 C 3.5235 0.0896 8.4355 0
M  V30 19 C -0.0515 1.1353 -2.5999 0
M  V30 20 C -1.4126 1.2336 -3.257 0
M  V30 21 C -1.5996 0.787 -4.5752 0
M  V30 22 C -2.5 1.785 -2.5701 0
M  V30 23 C -2.8508 0.88 -5.2071 0
M  V30 24 C -3.7504 1.8846 -3.1861 0
M  V30 25 C -3.9413 1.4375 -4.5026 0
M  V30 26 C -3.0419 0.4294 -6.5233 0
M  V30 27 C -5.1923 1.5302 -5.1345 0
M  V30 28 C -4.2915 0.5285 -7.1374 0
M  V30 29 C -5.3655 1.0786 -6.4439 0
M  V30 30 H 2.3617 -0.086 3.8033 0
M  V30 31 H 1.6019 0.4526 1.8212 0
M  V30 32 H 1.7704 -1.916 0.0456 0
M  V30 33 H -0.5283 0.1025 0.0995 0
M  V30 34 H -0.6294 -1.6208 0.4036 0
M  V30 35 H 1.9572 1.0862 -0.5165 0
M  V30 36 H 3.2673 -0.0798 -0.5442 0
M  V30 37 H 0.4637 -1.0695 7.5079 0
M  V30 38 H 4.095 -0.7233 5.1894 0
M  V30 39 H 0.0104 -2.1651 -1.8855 0
M  V30 40 H -1.3628 -1.098 -1.9061 0
M  V30 41 H 2.2932 -1.2687 -2.4444 0
M  V30 42 H 2.4653 0.4193 -2.8475 0
M  V30 43 H 1.6557 -0.1647 9.4824 0
M  V30 44 H 5.2565 0.1958 7.1616 0
M  V30 45 H 4.046 0.4782 9.3068 0
M  V30 46 H -0.0807 1.5927 -1.6038 0
M  V30 47 H 0.6199 1.7656 -3.1989 0
M  V30 48 H -0.7545 0.3517 -5.1063 0
M  V30 49 H -2.386 2.1379 -1.548 0
M  V30 50 H -4.579 2.3142 -2.6276 0
M  V30 51 H -2.2145 -0.0054 -7.0793 0
M  V30 52 H -6.0438 1.9553 -4.6079 0
M  V30 53 H -4.4248 0.1743 -8.1561 0
M  V30 54 H -6.3394 1.1552 -6.9202 0
M  V30 END ATOM
M  V30 BEGIN BOND
M  V30 1 2 1 2
M  V30 2 1 2 3
M  V30 3 1 2 4
M  V30 4 1 3 5
M  V30 5 1 4 6
M  V30 6 2 5 7
M  V30 7 1 5 8
M  V30 8 1 6 9
M  V30 9 1 6 10
M  V30 10 2 8 11
M  V30 11 1 8 12
M  V30 12 1 9 13
M  V30 13 1 10 14
M  V30 14 1 11 15
M  V30 15 2 12 16
M  V30 16 1 13 17
M  V30 17 2 15 18
M  V30 18 1 17 19
M  V30 19 1 19 20
M  V30 20 2 20 21
M  V30 21 1 20 22
M  V30 22 1 21 23
M  V30 23 2 22 24
M  V30 24 1 23 25
M  V30 25 2 23 26
M  V30 26 2 25 27
M  V30 27 1 26 28
M  V30 28 1 27 29
M  V30 29 1 14 17
M  V30 30 1 16 18
M  V30 31 1 24 25
M  V30 32 2 28 29
M  V30 33 1 3 30
M  V30 34 1 4 31
M  V30 35 1 6 32
M  V30 36 1 9 33
M  V30 37 1 9 34
M  V30 38 1 10 35
M  V30 39 1 10 36
M  V30 40 1 11 37
M  V30 41 1 12 38
M  V30 42 1 13 39
M  V30 43 1 13 40
M  V30 44 1 14 41
M  V30 45 1 14 42
M  V30 46 1 15 43
M  V30 47 1 16 44
M  V30 48 1 18 45
M  V30 49 1 19 46
M  V30 50 1 19 47
M  V30 51 1 21 48
M  V30 52 1 22 49
M  V30 53 1 24 50
M  V30 54 1 26 51
M  V30 55 1 27 52
M  V30 56 1 28 53
M  V30 57 1 29 54
M  V30 END BOND
M  V30 END CTAB
M  END
>  <NO.>
2400

>  <Name>
panuramine

>  <SMILES>
O=C(NC(=O)c1ccccc1)NC1CCN(Cc2ccc3ccccc3c2)CC1

>  <logBB>


>  <Class>
1

>  <MW>
387.19

>  <nHBAcc>
3

>  <nHBDon>
2

>  <SLogP>
3.94

>  <TopoPSA>
61.44

>  <MMFF94 Energy>
-19.738

$$$$
O=C(NCCCN1CCOCC1)c1ccc(Cl)cc1
Actelion Java MolfileCreator 2.0

  0  0  0  0  0  0              0 V3000
M  V30 BEGIN CTAB
M  V30 COUNTS 38 39 0 0 0
M  V30 BEGIN ATOM
M  V30 1 Cl -5.8385 2.0765 -5.2775 0
M  V30 2 C -4.8603 1.4385 -4.0147 0
M  V30 3 C -5.393 1.2845 -2.7362 0
M  V30 4 C -3.5363 1.0861 -4.2762 0
M  V30 5 C -4.5961 0.767 -1.7116 0
M  V30 6 C -2.7369 0.5667 -3.2526 0
M  V30 7 C -3.2694 0.3934 -1.9676 0
M  V30 8 C -2.4605 -0.1486 -0.8413 0
M  V30 9 O -2.7148 0.1834 0.3108 0
M  V30 10 N -1.4607 -1.0388 -1.1735 0
M  V30 11 C -0.5945 -1.6151 -0.1641 0
M  V30 12 C 0.5814 -0.6949 0.1565 0
M  V30 13 C 1.4714 -1.3084 1.2429 0
M  V30 14 N 2.7042 -0.5371 1.475 0
M  V30 15 C 2.4314 0.7756 2.1046 0
M  V30 16 C 3.6192 -1.296 2.3589 0
M  V30 17 C 3.7332 1.5261 2.434 0
M  V30 18 C 4.8942 -0.4981 2.6714 0
M  V30 19 O 4.5797 0.7533 3.2945 0
M  V30 20 H -6.4217 1.5674 -2.5278 0
M  V30 21 H -3.1188 1.2232 -5.2706 0
M  V30 22 H -5.0114 0.6536 -0.7114 0
M  V30 23 H -1.6983 0.3336 -3.468 0
M  V30 24 H -1.3485 -1.3473 -2.1288 0
M  V30 25 H -0.2367 -2.5723 -0.5579 0
M  V30 26 H -1.1828 -1.8173 0.738 0
M  V30 27 H 0.1975 0.2796 0.4787 0
M  V30 28 H 1.166 -0.5202 -0.7556 0
M  V30 29 H 0.9006 -1.4253 2.1735 0
M  V30 30 H 1.7488 -2.3177 0.9116 0
M  V30 31 H 1.8411 1.4086 1.4345 0
M  V30 32 H 1.8603 0.6329 3.0313 0
M  V30 33 H 3.1111 -1.5374 3.3021 0
M  V30 34 H 3.9061 -2.2379 1.8774 0
M  V30 35 H 3.4992 2.4606 2.9543 0
M  V30 36 H 4.2841 1.7835 1.5211 0
M  V30 37 H 5.5237 -1.0636 3.3659 0
M  V30 38 H 5.482 -0.3144 1.7639 0
M  V30 END ATOM
M  V30 BEGIN BOND
M  V30 1 1 1 2
M  V30 2 2 2 3
M  V30 3 1 2 4
M  V30 4 1 3 5
M  V30 5 2 4 6
M  V30 6 2 5 7
M  V30 7 1 7 8
M  V30 8 2 8 9
M  V30 9 1 8 10
M  V30 10 1 10 11
M  V30 11 1 11 12
M  V30 12 1 12 13
M  V30 13 1 13 14
M  V30 14 1 14 15
M  V30 15 1 14 16
M  V30 16 1 15 17
M  V30 17 1 16 18
M  V30 18 1 17 19
M  V30 19 1 6 7
M  V30 20 1 18 19
M  V30 21 1 3 20
M  V30 22 1 4 21
M  V30 23 1 5 22
M  V30 24 1 6 23
M  V30 25 1 10 24
M  V30 26 1 11 25
M  V30 27 1 11 26
M  V30 28 1 12 27
M  V30 29 1 12 28
M  V30 30 1 13 29
M  V30 31 1 13 30
M  V30 32 1 15 31
M  V30 33 1 15 32
M  V30 34 1 16 33
M  V30 35 1 16 34
M  V30 36 1 17 35
M  V30 37 1 17 36
M  V30 38 1 18 37
M  V30 39 1 18 38
M  V30 END BOND
M  V30 END CTAB
M  END
>  <NO.>
2401

>  <Name>
eprobemide

>  <SMILES>
O=C(NCCCN1CCOCC1)c1ccc(Cl)cc1

>  <logBB>


>  <Class>
1

>  <MW>
282.11

>  <nHBAcc>
3

>  <nHBDon>
1

>  <SLogP>
1.79

>  <TopoPSA>
41.57

>  <MMFF94 Energy>
65.679

$$$$
O=C(NCCN1CCC(n2c(=O)[nH]c3cc(Cl)ccc32)CC1)c1ccc(F)cc1
Actelion Java MolfileCreator 2.0

  0  0  0  0  0  0              0 V3000
M  V30 BEGIN CTAB
M  V30 COUNTS 51 54 0 0 0
M  V30 BEGIN ATOM
M  V30 1 Cl -2.4186 2.4992 -5.0033 0
M  V30 2 C -1.4695 1.2354 -4.3187 0
M  V30 3 C -0.9845 0.2203 -5.1437 0
M  V30 4 C -1.1988 1.2483 -2.9362 0
M  V30 5 C -0.2345 -0.7597 -4.5334 0
M  V30 6 C -0.4294 0.2373 -2.3444 0
M  V30 7 N 0.3638 -1.8734 -5.1076 0
M  V30 8 C 0.045 -0.7653 -3.1638 0
M  V30 9 C 1.0308 -2.6001 -4.1121 0
M  V30 10 N 0.8253 -1.9059 -2.8971 0
M  V30 11 O 1.6608 -3.6285 -4.2924 0
M  V30 12 C 1.3728 -2.3329 -1.6223 0
M  V30 13 C 2.4479 -1.377 -1.092 0
M  V30 14 C 0.2945 -2.648 -0.5791 0
M  V30 15 C 2.955 -1.8228 0.2822 0
M  V30 16 C 0.9293 -3.0387 0.7542 0
M  V30 17 N 1.8854 -2.0481 1.271 0
M  V30 18 C 1.2709 -0.7714 1.687 0
M  V30 19 C 0.1973 -0.8888 2.7864 0
M  V30 20 N -0.2619 0.4093 3.2547 0
M  V30 21 C -1.0427 1.2245 2.4621 0
M  V30 22 O -1.3939 0.9252 1.3259 0
M  V30 23 C -1.4786 2.5165 3.0599 0
M  V30 24 C -0.7105 3.1901 4.0214 0
M  V30 25 C -2.6837 3.08 2.6135 0
M  V30 26 C -1.1609 4.4047 4.5459 0
M  V30 27 C -3.1297 4.2932 3.1414 0
M  V30 28 C -2.3659 4.9421 4.1045 0
M  V30 29 F -2.7916 6.1067 4.6101 0
M  V30 30 H -1.1888 0.2045 -6.2066 0
M  V30 31 H -1.5914 2.048 -2.3107 0
M  V30 32 H -0.2366 0.2667 -1.279 0
M  V30 33 H 0.3465 -2.1476 -6.0761 0
M  V30 34 H 1.8886 -3.2841 -1.8166 0
M  V30 35 H 2.0714 -0.3505 -1.0341 0
M  V30 36 H 3.2895 -1.3451 -1.7954 0
M  V30 37 H -0.3329 -3.4728 -0.9394 0
M  V30 38 H -0.3824 -1.8028 -0.4262 0
M  V30 39 H 3.6751 -1.0892 0.6656 0
M  V30 40 H 3.5246 -2.7545 0.1683 0
M  V30 41 H 1.4576 -3.9935 0.6289 0
M  V30 42 H 0.1484 -3.2522 1.4918 0
M  V30 43 H 0.8471 -0.2383 0.8309 0
M  V30 44 H 2.0654 -0.1227 2.0803 0
M  V30 45 H -0.681 -1.4319 2.4226 0
M  V30 46 H 0.5982 -1.4202 3.6561 0
M  V30 47 H -0.0842 0.6512 4.2194 0
M  V30 48 H 0.2487 2.8024 4.3508 0
M  V30 49 H -3.2775 2.5719 1.8557 0
M  V30 50 H -0.5769 4.9409 5.288 0
M  V30 51 H -4.0629 4.7348 2.8056 0
M  V30 END ATOM
M  V30 BEGIN BOND
M  V30 1 1 1 2
M  V30 2 2 2 3
M  V30 3 1 2 4
M  V30 4 1 3 5
M  V30 5 2 4 6
M  V30 6 1 5 7
M  V30 7 2 5 8
M  V30 8 1 7 9
M  V30 9 1 8 10
M  V30 10 2 9 11
M  V30 11 1 10 12
M  V30 12 1 12 13
M  V30 13 1 12 14
M  V30 14 1 13 15
M  V30 15 1 14 16
M  V30 16 1 15 17
M  V30 17 1 17 18
M  V30 18 1 18 19
M  V30 19 1 19 20
M  V30 20 1 20 21
M  V30 21 2 21 22
M  V30 22 1 21 23
M  V30 23 2 23 24
M  V30 24 1 23 25
M  V30 25 1 24 26
M  V30 26 2 25 27
M  V30 27 2 26 28
M  V30 28 1 28 29
M  V30 29 1 6 8
M  V30 30 1 9 10
M  V30 31 1 16 17
M  V30 32 1 27 28
M  V30 33 1 3 30
M  V30 34 1 4 31
M  V30 35 1 6 32
M  V30 36 1 7 33
M  V30 37 1 12 34
M  V30 38 1 13 35
M  V30 39 1 13 36
M  V30 40 1 14 37
M  V30 41 1 14 38
M  V30 42 1 15 39
M  V30 43 1 15 40
M  V30 44 1 16 41
M  V30 45 1 16 42
M  V30 46 1 18 43
M  V30 47 1 18 44
M  V30 48 1 19 45
M  V30 49 1 19 46
M  V30 50 1 20 47
M  V30 51 1 24 48
M  V30 52 1 25 49
M  V30 53 1 26 50
M  V30 54 1 27 51
M  V30 END BOND
M  V30 END CTAB
M  END
>  <NO.>
2402

>  <Name>
halopemide

>  <SMILES>
O=C(NCCN1CCC(n2c(=O)[nH]c3cc(Cl)ccc32)CC1)c1ccc(F)cc1

>  <logBB>


>  <Class>
1

>  <MW>
416.14

>  <nHBAcc>
3

>  <nHBDon>
2

>  <SLogP>
3.19

>  <TopoPSA>
70.13

>  <MMFF94 Energy>
-1.5191

$$$$
O=C(NCCN1CCN(c2ncccn2)CC1)C12CC3CC(CC(C3)C1)C2
Actelion Java MolfileCreator 2.0

  0  0  0  0  0  0              0 V3000
M  V30 BEGIN CTAB
M  V30 COUNTS 58 62 0 0 0
M  V30 BEGIN ATOM
M  V30 1 O 2.4857 -0.5608 -2.3252 0
M  V30 2 C 1.4415 0.0758 -2.2081 0
M  V30 3 N 1.3637 1.2104 -1.432 0
M  V30 4 C 0.1334 -0.3339 -2.9041 0
M  V30 5 C 2.5119 1.72 -0.7058 0
M  V30 6 C 0.3593 -1.6258 -3.7323 0
M  V30 7 C -0.3506 0.7779 -3.8659 0
M  V30 8 C -0.9778 -0.6158 -1.8636 0
M  V30 9 C 2.893 0.9032 0.547 0
M  V30 10 C -0.9362 -2.0572 -4.4381 0
M  V30 11 C -1.6515 0.3531 -4.5703 0
M  V30 12 C -2.2789 -1.043 -2.5656 0
M  V30 13 N 2.0555 1.1673 1.7412 0
M  V30 14 C -1.3981 -0.9308 -5.376 0
M  V30 15 C -2.0218 -2.3191 -3.3822 0
M  V30 16 C -2.7344 0.0812 -3.5118 0
M  V30 17 C 2.7161 0.5832 2.9369 0
M  V30 18 C 0.7133 0.5524 1.6244 0
M  V30 19 C 1.9193 0.7811 4.2446 0
M  V30 20 C -0.1655 0.7316 2.8849 0
M  V30 21 N 0.5398 0.3259 4.0965 0
M  V30 22 C -0.2067 0.1561 5.2465 0
M  V30 23 N 0.4274 0.0924 6.431 0
M  V30 24 N -1.544 0.0483 5.1442 0
M  V30 25 C -0.3182 -0.0878 7.5374 0
M  V30 26 C -2.2505 -0.1311 6.2763 0
M  V30 27 C -1.6823 -0.2079 7.52 0
M  V30 28 H 0.4975 1.7251 -1.364 0
M  V30 29 H 2.2994 2.7609 -0.4381 0
M  V30 30 H 3.3629 1.7266 -1.3973 0
M  V30 31 H 1.1485 -1.4652 -4.4788 0
M  V30 32 H 0.7112 -2.4374 -3.0816 0
M  V30 33 H 0.4254 0.9955 -4.6113 0
M  V30 34 H -0.5263 1.7162 -3.3254 0
M  V30 35 H -0.6522 -1.3987 -1.1664 0
M  V30 36 H -1.1785 0.2728 -1.2529 0
M  V30 37 H 2.9249 -0.1698 0.3208 0
M  V30 38 H 3.9209 1.2037 0.79 0
M  V30 39 H -0.756 -2.9698 -5.0171 0
M  V30 40 H -1.9844 1.1514 -5.2428 0
M  V30 41 H -3.0563 -1.2338 -1.8173 0
M  V30 42 H -2.3139 -1.2313 -5.8999 0
M  V30 43 H -0.6374 -0.7469 -6.1446 0
M  V30 44 H -1.7094 -3.1333 -2.7167 0
M  V30 45 H -2.9485 -2.6447 -3.8704 0
M  V30 46 H -3.6743 -0.2005 -4.0022 0
M  V30 47 H -2.936 0.9947 -2.9388 0
M  V30 48 H 2.8816 -0.4923 2.7849 0
M  V30 49 H 3.7008 1.0469 3.0737 0
M  V30 50 H 0.1628 1.0074 0.7971 0
M  V30 51 H 0.8063 -0.5207 1.4093 0
M  V30 52 H 1.9276 1.8434 4.5209 0
M  V30 53 H 2.4456 0.225 5.0301 0
M  V30 54 H -1.0744 0.1371 2.7294 0
M  V30 55 H -0.4641 1.7845 2.9717 0
M  V30 56 H 0.2399 -0.1346 8.4673 0
M  V30 57 H -3.3245 -0.2145 6.1415 0
M  V30 58 H -2.2648 -0.3533 8.4176 0
M  V30 END ATOM
M  V30 BEGIN BOND
M  V30 1 2 1 2
M  V30 2 1 2 3
M  V30 3 1 2 4
M  V30 4 1 3 5
M  V30 5 1 4 6
M  V30 6 1 4 7
M  V30 7 1 4 8
M  V30 8 1 5 9
M  V30 9 1 6 10
M  V30 10 1 7 11
M  V30 11 1 8 12
M  V30 12 1 9 13
M  V30 13 1 10 14
M  V30 14 1 10 15
M  V30 15 1 11 16
M  V30 16 1 13 17
M  V30 17 1 13 18
M  V30 18 1 17 19
M  V30 19 1 18 20
M  V30 20 1 19 21
M  V30 21 1 21 22
M  V30 22 2 22 23
M  V30 23 1 22 24
M  V30 24 1 23 25
M  V30 25 2 24 26
M  V30 26 2 25 27
M  V30 27 1 11 14
M  V30 28 1 12 15
M  V30 29 1 12 16
M  V30 30 1 20 21
M  V30 31 1 26 27
M  V30 32 1 3 28
M  V30 33 1 5 29
M  V30 34 1 5 30
M  V30 35 1 6 31
M  V30 36 1 6 32
M  V30 37 1 7 33
M  V30 38 1 7 34
M  V30 39 1 8 35
M  V30 40 1 8 36
M  V30 41 1 9 37
M  V30 42 1 9 38
M  V30 43 1 10 39
M  V30 44 1 11 40
M  V30 45 1 12 41
M  V30 46 1 14 42
M  V30 47 1 14 43
M  V30 48 1 15 44
M  V30 49 1 15 45
M  V30 50 1 16 46
M  V30 51 1 16 47
M  V30 52 1 17 48
M  V30 53 1 17 49
M  V30 54 1 18 50
M  V30 55 1 18 51
M  V30 56 1 19 52
M  V30 57 1 19 53
M  V30 58 1 20 54
M  V30 59 1 20 55
M  V30 60 1 25 56
M  V30 61 1 26 57
M  V30 62 1 27 58
M  V30 END BOND
M  V30 END CTAB
M  END
>  <NO.>
2403

>  <Name>
adatanserin

>  <SMILES>
O=C(NCCN1CCN(c2ncccn2)CC1)C12CC3CC(CC(C3)C1)C2

>  <logBB>


>  <Class>
1

>  <MW>
369.25

>  <nHBAcc>
5

>  <nHBDon>
1

>  <SLogP>
1.93

>  <TopoPSA>
61.36

>  <MMFF94 Energy>
20.796

$$$$
O=C(NCCN1CCOCC1)c1ccc(Cl)cc1
Actelion Java MolfileCreator 2.0

  0  0  0  0  0  0              0 V3000
M  V30 BEGIN CTAB
M  V30 COUNTS 35 36 0 0 0
M  V30 BEGIN ATOM
M  V30 1 Cl -5.9352 3.0444 -0.08 0
M  V30 2 C -4.4188 2.4722 -0.6563 0
M  V30 3 C -3.6884 3.238 -1.5626 0
M  V30 4 C -3.9322 1.2409 -0.2179 0
M  V30 5 C -2.457 2.7706 -2.0299 0
M  V30 6 C -2.6995 0.7714 -0.6838 0
M  V30 7 C -1.9502 1.5413 -1.5846 0
M  V30 8 C -0.6337 1.0879 -2.1161 0
M  V30 9 O -0.2207 1.5169 -3.1878 0
M  V30 10 N 0.0766 0.2112 -1.3323 0
M  V30 11 C 1.3859 -0.28 -1.7181 0
M  V30 12 C 1.7732 -1.5247 -0.9004 0
M  V30 13 N 1.5332 -1.3717 0.5542 0
M  V30 14 C 1.7175 -2.6756 1.2342 0
M  V30 15 C 2.4696 -0.3951 1.1602 0
M  V30 16 C 1.551 -2.5452 2.7562 0
M  V30 17 C 2.2911 -0.3178 2.686 0
M  V30 18 O 2.4816 -1.5995 3.2974 0
M  V30 19 H -4.0692 4.1942 -1.9121 0
M  V30 20 H -4.5106 0.6387 0.4783 0
M  V30 21 H -1.8905 3.3684 -2.7422 0
M  V30 22 H -2.3553 -0.2046 -0.3541 0
M  V30 23 H -0.2141 -0.0176 -0.3895 0
M  V30 24 H 2.1019 0.5343 -1.5643 0
M  V30 25 H 1.3796 -0.5175 -2.7877 0
M  V30 26 H 1.1469 -2.3507 -1.263 0
M  V30 27 H 2.8152 -1.7965 -1.1106 0
M  V30 28 H 0.9808 -3.3967 0.8618 0
M  V30 29 H 2.7193 -3.0703 1.019 0
M  V30 30 H 3.505 -0.6847 0.9386 0
M  V30 31 H 2.3001 0.6046 0.7473 0
M  V30 32 H 1.7451 -3.5107 3.2341 0
M  V30 33 H 0.5306 -2.242 3.0206 0
M  V30 34 H 3.0342 0.3646 3.111 0
M  V30 35 H 1.2979 0.0654 2.9504 0
M  V30 END ATOM
M  V30 BEGIN BOND
M  V30 1 1 1 2
M  V30 2 2 2 3
M  V30 3 1 2 4
M  V30 4 1 3 5
M  V30 5 2 4 6
M  V30 6 2 5 7
M  V30 7 1 7 8
M  V30 8 2 8 9
M  V30 9 1 8 10
M  V30 10 1 10 11
M  V30 11 1 11 12
M  V30 12 1 12 13
M  V30 13 1 13 14
M  V30 14 1 13 15
M  V30 15 1 14 16
M  V30 16 1 15 17
M  V30 17 1 16 18
M  V30 18 1 6 7
M  V30 19 1 17 18
M  V30 20 1 3 19
M  V30 21 1 4 20
M  V30 22 1 5 21
M  V30 23 1 6 22
M  V30 24 1 10 23
M  V30 25 1 11 24
M  V30 26 1 11 25
M  V30 27 1 12 26
M  V30 28 1 12 27
M  V30 29 1 14 28
M  V30 30 1 14 29
M  V30 31 1 15 30
M  V30 32 1 15 31
M  V30 33 1 16 32
M  V30 34 1 16 33
M  V30 35 1 17 34
M  V30 36 1 17 35
M  V30 END BOND
M  V30 END CTAB
M  END
>  <NO.>
2404

>  <Name>
teflurane

>  <SMILES>
O=C(NCCN1CCOCC1)c1ccc(Cl)cc1

>  <logBB>


>  <Class>
1

>  <MW>
268.1

>  <nHBAcc>
3

>  <nHBDon>
1

>  <SLogP>
1.4

>  <TopoPSA>
41.57

>  <MMFF94 Energy>
81.182

$$$$
O=C(NCCc1ccc(O)c(O)c1)C12CC3CC(CC(C3)C1)C2
Actelion Java MolfileCreator 2.0

  0  0  0  0  0  0              0 V3000
M  V30 BEGIN CTAB
M  V30 COUNTS 48 51 0 0 0
M  V30 BEGIN ATOM
M  V30 1 O 0.9604 1.521 -0.24 0
M  V30 2 C 0.1486 0.658 -0.5645 0
M  V30 3 N -0.6836 0.0569 0.3548 0
M  V30 4 C -0.0084 0.1646 -2.0121 0
M  V30 5 C -0.658 0.4215 1.7593 0
M  V30 6 C -1.4448 0.4217 -2.529 0
M  V30 7 C 0.298 -1.3493 -2.112 0
M  V30 8 C 0.9807 0.9202 -2.9377 0
M  V30 9 C 0.5024 -0.2403 2.5052 0
M  V30 10 C -1.5894 -0.061 -3.983 0
M  V30 11 C 0.1551 -1.8339 -3.5656 0
M  V30 12 C 0.8431 0.4424 -4.3922 0
M  V30 13 C 0.496 0.1108 3.9722 0
M  V30 14 C -1.2806 -1.5666 -4.0486 0
M  V30 15 C -0.5937 0.6993 -4.8731 0
M  V30 16 C 1.1411 -1.0637 -4.458 0
M  V30 17 C -0.1431 -0.7227 4.9015 0
M  V30 18 C 1.1015 1.2992 4.4162 0
M  V30 19 C -0.1608 -0.3669 6.2436 0
M  V30 20 C 1.0923 1.6395 5.771 0
M  V30 21 O -0.8421 -1.1554 7.1257 0
M  V30 22 C 0.4754 0.7917 6.6782 0
M  V30 23 O 0.5258 1.0944 8.0082 0
M  V30 24 H -1.34 -0.6511 0.0566 0
M  V30 25 H -1.6186 0.1121 2.1865 0
M  V30 26 H -0.5972 1.5135 1.8365 0
M  V30 27 H -1.6829 1.4915 -2.4636 0
M  V30 28 H -2.1854 -0.0941 -1.9056 0
M  V30 29 H -0.3782 -1.9304 -1.473 0
M  V30 30 H 1.3131 -1.553 -1.7467 0
M  V30 31 H 0.7974 2.0018 -2.8871 0
M  V30 32 H 2.013 0.7665 -2.5965 0
M  V30 33 H 0.4504 -1.3303 2.3858 0
M  V30 34 H 1.4635 0.055 2.0657 0
M  V30 35 H -2.6115 0.1221 -4.3326 0
M  V30 36 H 0.3694 -2.9071 -3.6193 0
M  V30 37 H 1.5489 0.9871 -5.029 0
M  V30 38 H -1.4026 -1.9287 -5.0768 0
M  V30 39 H -1.9943 -2.1228 -3.4285 0
M  V30 40 H -0.8119 1.7739 -4.8464 0
M  V30 41 H -0.7026 0.3782 -5.9162 0
M  V30 42 H 1.063 -1.4161 -5.4937 0
M  V30 43 H 2.1707 -1.2569 -4.1327 0
M  V30 44 H -0.6383 -1.6358 4.5835 0
M  V30 45 H 1.5913 1.9625 3.7047 0
M  V30 46 H 1.5776 2.5491 6.1116 0
M  V30 47 H -1.2069 -0.5498 7.7972 0
M  V30 48 H 0.7105 0.2524 8.4637 0
M  V30 END ATOM
M  V30 BEGIN BOND
M  V30 1 2 1 2
M  V30 2 1 2 3
M  V30 3 1 2 4
M  V30 4 1 3 5
M  V30 5 1 4 6
M  V30 6 1 4 7
M  V30 7 1 4 8
M  V30 8 1 5 9
M  V30 9 1 6 10
M  V30 10 1 7 11
M  V30 11 1 8 12
M  V30 12 1 9 13
M  V30 13 1 10 14
M  V30 14 1 10 15
M  V30 15 1 11 16
M  V30 16 2 13 17
M  V30 17 1 13 18
M  V30 18 1 17 19
M  V30 19 2 18 20
M  V30 20 1 19 21
M  V30 21 2 19 22
M  V30 22 1 22 23
M  V30 23 1 11 14
M  V30 24 1 12 15
M  V30 25 1 12 16
M  V30 26 1 20 22
M  V30 27 1 3 24
M  V30 28 1 5 25
M  V30 29 1 5 26
M  V30 30 1 6 27
M  V30 31 1 6 28
M  V30 32 1 7 29
M  V30 33 1 7 30
M  V30 34 1 8 31
M  V30 35 1 8 32
M  V30 36 1 9 33
M  V30 37 1 9 34
M  V30 38 1 10 35
M  V30 39 1 11 36
M  V30 40 1 12 37
M  V30 41 1 14 38
M  V30 42 1 14 39
M  V30 43 1 15 40
M  V30 44 1 15 41
M  V30 45 1 16 42
M  V30 46 1 16 43
M  V30 47 1 17 44
M  V30 48 1 18 45
M  V30 49 1 20 46
M  V30 50 1 21 47
M  V30 51 1 23 48
M  V30 END BOND
M  V30 END CTAB
M  END
>  <NO.>
2405

>  <Name>
dopamantine

>  <SMILES>
O=C(NCCc1ccc(O)c(O)c1)C12CC3CC(CC(C3)C1)C2

>  <logBB>


>  <Class>
1

>  <MW>
315.18

>  <nHBAcc>
3

>  <nHBDon>
3

>  <SLogP>
2.97

>  <TopoPSA>
69.56

>  <MMFF94 Energy>
24.272

$$$$
O=C(NCc1ccccc1)OCCO
Actelion Java MolfileCreator 2.0

  0  0  0  0  0  0              0 V3000
M  V30 BEGIN CTAB
M  V30 COUNTS 27 27 0 0 0
M  V30 BEGIN ATOM
M  V30 1 O 1.0126 0.623 -2.026 0
M  V30 2 C 1.0268 0.8387 -0.8239 0
M  V30 3 O 0.9539 2.0608 -0.2464 0
M  V30 4 N 1.1094 -0.1031 0.1497 0
M  V30 5 C 0.897 3.1497 -1.182 0
M  V30 6 C 1.1624 -1.515 -0.1209 0
M  V30 7 C 0.7846 4.4581 -0.4068 0
M  V30 8 C -0.1383 -2.1782 0.2479 0
M  V30 9 O 2.0204 4.7562 0.2397 0
M  V30 10 C -0.2877 -2.8342 1.4778 0
M  V30 11 C -1.2331 -2.1172 -0.6266 0
M  V30 12 C -1.5033 -3.4305 1.8178 0
M  V30 13 C -2.4473 -2.7136 -0.2846 0
M  V30 14 C -2.5815 -3.3713 0.9365 0
M  V30 15 H 1.078 0.2304 1.1012 0
M  V30 16 H 0.0142 3.0289 -1.8197 0
M  V30 17 H 1.809 3.1476 -1.7895 0
M  V30 18 H 1.3957 -1.7031 -1.175 0
M  V30 19 H 1.9857 -1.93 0.4706 0
M  V30 20 H 0.5538 5.2831 -1.0872 0
M  V30 21 H 0.0084 4.3884 0.3617 0
M  V30 22 H 1.876 5.5543 0.7759 0
M  V30 23 H 0.5419 -2.8861 2.1788 0
M  V30 24 H -1.1408 -1.5988 -1.5797 0
M  V30 25 H -1.6102 -3.9407 2.7716 0
M  V30 26 H -3.2884 -2.6623 -0.9709 0
M  V30 27 H -3.5275 -3.8354 1.2023 0
M  V30 END ATOM
M  V30 BEGIN BOND
M  V30 1 2 1 2
M  V30 2 1 2 3
M  V30 3 1 2 4
M  V30 4 1 3 5
M  V30 5 1 4 6
M  V30 6 1 5 7
M  V30 7 1 6 8
M  V30 8 1 7 9
M  V30 9 2 8 10
M  V30 10 1 8 11
M  V30 11 1 10 12
M  V30 12 2 11 13
M  V30 13 2 12 14
M  V30 14 1 13 14
M  V30 15 1 4 15
M  V30 16 1 5 16
M  V30 17 1 5 17
M  V30 18 1 6 18
M  V30 19 1 6 19
M  V30 20 1 7 20
M  V30 21 1 7 21
M  V30 22 1 9 22
M  V30 23 1 10 23
M  V30 24 1 11 24
M  V30 25 1 12 25
M  V30 26 1 13 26
M  V30 27 1 14 27
M  V30 END BOND
M  V30 END CTAB
M  END
>  <NO.>
2406

>  <Name>
buramate

>  <SMILES>
O=C(NCc1ccccc1)OCCO

>  <logBB>


>  <Class>
1

>  <MW>
195.09

>  <nHBAcc>
3

>  <nHBDon>
2

>  <SLogP>
0.91

>  <TopoPSA>
58.56

>  <MMFF94 Energy>
-41.285

$$$$
O=C(Nc1ccc(O)cc1)C(Cl)(Cl)Cl
Actelion Java MolfileCreator 2.0

  0  0  0  0  0  0              0 V3000
M  V30 BEGIN CTAB
M  V30 COUNTS 20 20 0 0 0
M  V30 BEGIN ATOM
M  V30 1 Cl -3.5501 -3.0424 2.1121 0
M  V30 2 C -3.1321 -1.9502 0.773 0
M  V30 3 Cl -4.3489 -0.6503 0.6385 0
M  V30 4 Cl -3.0963 -2.8829 -0.7563 0
M  V30 5 C -1.75 -1.2819 1.0043 0
M  V30 6 O -1.2029 -1.2581 2.108 0
M  V30 7 N -1.2117 -0.6811 -0.139 0
M  V30 8 C -0.0073 0.0429 -0.2417 0
M  V30 9 C 0.6964 0.544 0.8561 0
M  V30 10 C 0.4804 0.291 -1.5316 0
M  V30 11 C 1.8797 1.2684 0.6714 0
M  V30 12 C 1.6608 1.0142 -1.7176 0
M  V30 13 C 2.3523 1.4958 -0.615 0
M  V30 14 O 3.4994 2.1957 -0.8392 0
M  V30 15 H -1.7113 -0.8307 -1.0111 0
M  V30 16 H 0.3473 0.3981 1.8738 0
M  V30 17 H -0.0419 -0.0782 -2.4101 0
M  V30 18 H 2.4083 1.6446 1.5419 0
M  V30 19 H 2.0388 1.1999 -2.719 0
M  V30 20 H 3.8767 2.4554 0.0175 0
M  V30 END ATOM
M  V30 BEGIN BOND
M  V30 1 1 1 2
M  V30 2 1 2 3
M  V30 3 1 2 4
M  V30 4 1 2 5
M  V30 5 2 5 6
M  V30 6 1 5 7
M  V30 7 1 7 8
M  V30 8 2 8 9
M  V30 9 1 8 10
M  V30 10 1 9 11
M  V30 11 2 10 12
M  V30 12 2 11 13
M  V30 13 1 13 14
M  V30 14 1 12 13
M  V30 15 1 7 15
M  V30 16 1 9 16
M  V30 17 1 10 17
M  V30 18 1 11 18
M  V30 19 1 12 19
M  V30 20 1 14 20
M  V30 END BOND
M  V30 END CTAB
M  END
>  <NO.>
2407

>  <Name>
triclacetamol

>  <SMILES>
O=C(Nc1ccc(O)cc1)C(Cl)(Cl)Cl

>  <logBB>


>  <Class>
1

>  <MW>
252.95

>  <nHBAcc>
2

>  <nHBDon>
2

>  <SLogP>
2.7

>  <TopoPSA>
49.33

>  <MMFF94 Energy>
62.257

$$$$
O=C(O)C1CCN1C12CC3CC(CC(C3)C1)C2
Actelion Java MolfileCreator 2.0

  0  0  0  0  0  0              0 V3000
M  V30 BEGIN CTAB
M  V30 COUNTS 38 41 0 0 0
M  V30 BEGIN ATOM
M  V30 1 O 0.0809 -2.5941 -2.6752 0
M  V30 2 C 0.9939 -1.8013 -2.8751 0
M  V30 3 O 1.9381 -2.1682 -3.7828 0
M  V30 4 C 1.2404 -0.3693 -2.2544 0 CFG=1
M  V30 5 N 1.4446 -0.3705 -0.768 0
M  V30 6 C 2.6807 0.2087 -2.3568 0
M  V30 7 C 0.2774 0.0181 0.0567 0
M  V30 8 C 2.4622 0.6934 -0.9189 0
M  V30 9 C -0.7552 -1.1467 0.0422 0
M  V30 10 C -0.4854 1.3247 -0.3195 0
M  V30 11 C 0.7806 0.1611 1.5272 0
M  V30 12 C -1.9195 -0.8848 1.0144 0
M  V30 13 C -1.6486 1.5883 0.6575 0
M  V30 14 C -0.3807 0.4338 2.4976 0
M  V30 15 C -2.6341 0.4119 0.6074 0
M  V30 16 C -1.3706 -0.7377 2.4401 0
M  V30 17 C -1.095 1.7284 2.0833 0
M  V30 18 H 1.6491 -3.0676 -4.0445 0
M  V30 19 H 0.5005 0.3489 -2.6262 0
M  V30 20 H 2.8309 0.9902 -3.1061 0
M  V30 21 H 3.4801 -0.5357 -2.4489 0
M  V30 22 H 2.1189 1.7308 -0.8731 0
M  V30 23 H 3.3313 0.5886 -0.2623 0
M  V30 24 H -1.1737 -1.2697 -0.963 0
M  V30 25 H -0.2685 -2.0947 0.3075 0
M  V30 26 H 0.1782 2.1953 -0.2986 0
M  V30 27 H -0.897 1.2614 -1.3329 0
M  V30 28 H 1.3041 -0.7524 1.8407 0
M  V30 29 H 1.5062 0.981 1.6078 0
M  V30 30 H -2.6259 -1.7216 0.9762 0
M  V30 31 H -2.1646 2.5119 0.3715 0
M  V30 32 H 0.0079 0.5375 3.5169 0
M  V30 33 H -3.0487 0.3118 -0.403 0
M  V30 34 H -3.4794 0.6016 1.2804 0
M  V30 35 H -0.8739 -1.6655 2.7491 0
M  V30 36 H -2.1945 -0.5682 3.1443 0
M  V30 37 H -1.9119 1.9455 2.7825 0
M  V30 38 H -0.3992 2.5748 2.1348 0
M  V30 END ATOM
M  V30 BEGIN BOND
M  V30 1 2 1 2
M  V30 2 1 2 3
M  V30 3 1 2 4
M  V30 4 1 4 5
M  V30 5 1 4 6
M  V30 6 1 5 7
M  V30 7 1 5 8
M  V30 8 1 7 9
M  V30 9 1 7 10
M  V30 10 1 7 11
M  V30 11 1 9 12
M  V30 12 1 10 13
M  V30 13 1 11 14
M  V30 14 1 12 15
M  V30 15 1 12 16
M  V30 16 1 13 17
M  V30 17 1 6 8
M  V30 18 1 13 15
M  V30 19 1 14 16
M  V30 20 1 14 17
M  V30 21 1 3 18
M  V30 22 1 4 19
M  V30 23 1 6 20
M  V30 24 1 6 21
M  V30 25 1 8 22
M  V30 26 1 8 23
M  V30 27 1 9 24
M  V30 28 1 9 25
M  V30 29 1 10 26
M  V30 30 1 10 27
M  V30 31 1 11 28
M  V30 32 1 11 29
M  V30 33 1 12 30
M  V30 34 1 13 31
M  V30 35 1 14 32
M  V30 36 1 15 33
M  V30 37 1 15 34
M  V30 38 1 16 35
M  V30 39 1 16 36
M  V30 40 1 17 37
M  V30 41 1 17 38
M  V30 END BOND
M  V30 BEGIN COLLECTION
M  V30 MDLV30/STERAC1 ATOMS=(1 4)
M  V30 END COLLECTION
M  V30 END CTAB
M  END
>  <NO.>
2410

>  <Name>
carmantadine

>  <SMILES>
O=C(O)C1CCN1C12CC3CC(CC(C3)C1)C2

>  <logBB>


>  <Class>
1

>  <MW>
235.16

>  <nHBAcc>
2

>  <nHBDon>
1

>  <SLogP>
2.11

>  <TopoPSA>
40.54

>  <MMFF94 Energy>
50.555

$$$$
O=C(O)CCCCC1SCC2NC(=O)NC21
Actelion Java MolfileCreator 2.0

  0  0  0  0  0  0              0 V3000
M  V30 BEGIN CTAB
M  V30 COUNTS 32 33 0 0 0
M  V30 BEGIN ATOM
M  V30 1 S 0.645 1.129 1.6939 0
M  V30 2 C 0.8128 -0.1395 0.3996 0
M  V30 3 C 0.63 -0.0844 3.0317 0
M  V30 4 C 1.6853 -1.2335 1.0416 0
M  V30 5 C -0.5506 -0.7063 -0.0348 0
M  V30 6 C 1.5572 -1.2111 2.5839 0
M  V30 7 N 3.1032 -1.0242 0.8182 0
M  V30 8 C -1.5378 0.2962 -0.6497 0
M  V30 9 N 2.9212 -1.0291 3.0366 0
M  V30 10 C 3.8085 -0.9137 1.993 0
M  V30 11 C -0.9946 1.0003 -1.8978 0
M  V30 12 O 5.0106 -0.7608 2.0922 0
M  V30 13 C -2.0478 1.8786 -2.5754 0
M  V30 14 C -3.0837 1.079 -3.3206 0
M  V30 15 O -3.0775 -0.1186 -3.5459 0
M  V30 16 O -4.088 1.8561 -3.7716 0
M  V30 17 H 1.3226 0.2969 -0.4653 0
M  V30 18 H -0.3945 -0.4535 3.1414 0
M  V30 19 H 0.937 0.3713 3.9776 0
M  V30 20 H 1.4563 -2.2253 0.6355 0
M  V30 21 H -1.0444 -1.1975 0.8138 0
M  V30 22 H -0.3729 -1.4999 -0.7729 0
M  V30 23 H 1.2144 -2.1728 2.9805 0
M  V30 24 H 3.5812 -0.9947 -0.0724 0
M  V30 25 H -1.8362 1.0433 0.0945 0
M  V30 26 H -2.4505 -0.2549 -0.9061 0
M  V30 27 H 3.2467 -0.9964 3.9936 0
M  V30 28 H -0.6082 0.2581 -2.6065 0
M  V30 29 H -0.1538 1.6429 -1.613 0
M  V30 30 H -2.5488 2.5069 -1.8309 0
M  V30 31 H -1.5525 2.528 -3.306 0
M  V30 32 H -4.6803 1.2335 -4.2428 0
M  V30 END ATOM
M  V30 BEGIN BOND
M  V30 1 1 1 2
M  V30 2 1 1 3
M  V30 3 1 2 4
M  V30 4 1 2 5
M  V30 5 1 3 6
M  V30 6 1 4 7
M  V30 7 1 5 8
M  V30 8 1 6 9
M  V30 9 1 7 10
M  V30 10 1 8 11
M  V30 11 2 10 12
M  V30 12 1 11 13
M  V30 13 1 13 14
M  V30 14 2 14 15
M  V30 15 1 14 16
M  V30 16 1 4 6
M  V30 17 1 9 10
M  V30 18 1 2 17
M  V30 19 1 3 18
M  V30 20 1 3 19
M  V30 21 1 4 20
M  V30 22 1 5 21
M  V30 23 1 5 22
M  V30 24 1 6 23
M  V30 25 1 7 24
M  V30 26 1 8 25
M  V30 27 1 8 26
M  V30 28 1 9 27
M  V30 29 1 11 28
M  V30 30 1 11 29
M  V30 31 1 13 30
M  V30 32 1 13 31
M  V30 33 1 16 32
M  V30 END BOND
M  V30 END CTAB
M  END
>  <NO.>
2411

>  <Name>
bioepiderm

>  <SMILES>
O=C(O)CCCCC1SCC2NC(=O)NC21

>  <logBB>


>  <Class>
1

>  <MW>
244.09

>  <nHBAcc>
3

>  <nHBDon>
3

>  <SLogP>
0.8

>  <TopoPSA>
78.43

>  <MMFF94 Energy>
-57.987

$$$$
O=C(O)CCCCCCCC(=O)O
Actelion Java MolfileCreator 2.0

  0  0  0  0  0  0              0 V3000
M  V30 BEGIN CTAB
M  V30 COUNTS 29 28 0 0 0
M  V30 BEGIN ATOM
M  V30 1 O -2.0108 -1.7786 -3.4048 0
M  V30 2 C -3.017 -1.8391 -2.7202 0
M  V30 3 O -3.8904 -2.8537 -2.8765 0
M  V30 4 C -3.4755 -0.8628 -1.6694 0
M  V30 5 C -2.3936 0.143 -1.2775 0
M  V30 6 C -1.285 -0.4891 -0.4302 0
M  V30 7 C -0.232 0.5473 -0.0331 0
M  V30 8 C 0.8763 -0.0813 0.8126 0
M  V30 9 C 1.9276 0.9544 1.2108 0
M  V30 10 C 3.0325 0.3279 2.0521 0
M  V30 11 C 4.0383 1.3641 2.4604 0
M  V30 12 O 4.0516 1.9822 3.5114 0
M  V30 13 O 4.9658 1.5932 1.5126 0
M  V30 14 H -3.4926 -3.401 -3.5856 0
M  V30 15 H -3.806 -1.4189 -0.7853 0
M  V30 16 H -4.3345 -0.3219 -2.0821 0
M  V30 17 H -2.8631 0.9499 -0.7014 0
M  V30 18 H -1.9601 0.6013 -2.1746 0
M  V30 19 H -0.8031 -1.3016 -0.9858 0
M  V30 20 H -1.722 -0.9315 0.4732 0
M  V30 21 H -0.7089 1.3584 0.5304 0
M  V30 22 H 0.203 0.993 -0.9359 0
M  V30 23 H 1.3542 -0.8913 0.2484 0
M  V30 24 H 0.4411 -0.5284 1.7147 0
M  V30 25 H 1.4527 1.7682 1.7732 0
M  V30 26 H 2.3601 1.4083 0.3106 0
M  V30 27 H 2.6241 -0.1239 2.9633 0
M  V30 28 H 3.5462 -0.4727 1.508 0
M  V30 29 H 5.5367 2.2887 1.9012 0
M  V30 END ATOM
M  V30 BEGIN BOND
M  V30 1 2 1 2
M  V30 2 1 2 3
M  V30 3 1 2 4
M  V30 4 1 4 5
M  V30 5 1 5 6
M  V30 6 1 6 7
M  V30 7 1 7 8
M  V30 8 1 8 9
M  V30 9 1 9 10
M  V30 10 1 10 11
M  V30 11 2 11 12
M  V30 12 1 11 13
M  V30 13 1 3 14
M  V30 14 1 4 15
M  V30 15 1 4 16
M  V30 16 1 5 17
M  V30 17 1 5 18
M  V30 18 1 6 19
M  V30 19 1 6 20
M  V30 20 1 7 21
M  V30 21 1 7 22
M  V30 22 1 8 23
M  V30 23 1 8 24
M  V30 24 1 9 25
M  V30 25 1 9 26
M  V30 26 1 10 27
M  V30 27 1 10 28
M  V30 28 1 13 29
M  V30 END BOND
M  V30 END CTAB
M  END
>  <NO.>
2412

>  <Name>
gr94839_c

>  <SMILES>
O=C(O)CCCCCCCC(=O)O

>  <logBB>


>  <Class>
-1

>  <MW>
188.1

>  <nHBAcc>
2

>  <nHBDon>
2

>  <SLogP>
1.89

>  <TopoPSA>
74.6

>  <MMFF94 Energy>
-51.329

$$$$
O=C(O)CCCCCCNC1c2ccccc2CCc2ccccc21
Actelion Java MolfileCreator 2.0

  0  0  0  0  0  0              0 V3000
M  V30 BEGIN CTAB
M  V30 COUNTS 52 54 0 0 0
M  V30 BEGIN ATOM
M  V30 1 O -6.9122 -2.8557 2.6175 0
M  V30 2 C -6.3705 -3.3546 1.6458 0
M  V30 3 O -6.6817 -4.6014 1.2455 0
M  V30 4 C -5.312 -2.7171 0.794 0
M  V30 5 C -3.9258 -3.1961 1.2078 0
M  V30 6 C -2.8332 -2.5299 0.3697 0
M  V30 7 C -1.4427 -3.013 0.7878 0
M  V30 8 C -0.3163 -2.4644 -0.094 0
M  V30 9 C -0.1356 -0.9486 0.0272 0
M  V30 10 N 1.0248 -0.5386 -0.7751 0
M  V30 11 C 1.294 0.9176 -0.6628 0
M  V30 12 C 1.9943 1.3682 0.6208 0
M  V30 13 C 2.0421 1.4581 -1.8838 0
M  V30 14 C 2.1204 2.7403 0.9549 0
M  V30 15 C 2.5593 0.4134 1.4952 0
M  V30 16 C 1.9151 2.8289 -2.2006 0
M  V30 17 C 2.8981 0.66 -2.6613 0
M  V30 18 C 2.7369 3.0874 2.1788 0
M  V30 19 C 1.7153 3.9213 0.0824 0
M  V30 20 C 3.1714 0.7822 2.693 0
M  V30 21 C 2.5887 3.3547 -3.312 0
M  V30 22 C 1.0945 3.7278 -1.3076 0
M  V30 23 C 3.5657 1.1948 -3.7637 0
M  V30 24 C 3.2491 2.1212 3.0417 0
M  V30 25 C 3.4036 2.5375 -4.0939 0
M  V30 26 H -7.3631 -4.8942 1.8867 0
M  V30 27 H -5.3991 -1.6299 0.9039 0
M  V30 28 H -5.5183 -2.9441 -0.2581 0
M  V30 29 H -3.8635 -4.2861 1.0992 0
M  V30 30 H -3.7626 -2.9785 2.271 0
M  V30 31 H -2.905 -1.4429 0.4882 0
M  V30 32 H -2.9971 -2.7539 -0.6912 0
M  V30 33 H -1.4139 -4.1086 0.7351 0
M  V30 34 H -1.2553 -2.7428 1.8343 0
M  V30 35 H 0.6165 -2.9632 0.1996 0
M  V30 36 H -0.5052 -2.7384 -1.1397 0
M  V30 37 H -0.0021 -0.6863 1.082 0
M  V30 38 H -1.0331 -0.4365 -0.3369 0
M  V30 39 H 0.8009 -0.7281 -1.7521 0
M  V30 40 H 0.2986 1.3771 -0.6651 0
M  V30 41 H 2.527 -0.645 1.2432 0
M  V30 42 H 3.0624 -0.3841 -2.4037 0
M  V30 43 H 2.8401 4.1358 2.4556 0
M  V30 44 H 2.6224 4.5276 -0.0568 0
M  V30 45 H 1.0157 4.535 0.6662 0
M  V30 46 H 3.588 0.0205 3.346 0
M  V30 47 H 2.4969 4.4081 -3.5662 0
M  V30 48 H 0.0685 3.35 -1.2319 0
M  V30 49 H 0.9909 4.7158 -1.7759 0
M  V30 50 H 4.2212 0.5636 -4.3579 0
M  V30 51 H 3.7259 2.4175 3.9717 0
M  V30 52 H 3.9288 2.9532 -4.9496 0
M  V30 END ATOM
M  V30 BEGIN BOND
M  V30 1 2 1 2
M  V30 2 1 2 3
M  V30 3 1 2 4
M  V30 4 1 4 5
M  V30 5 1 5 6
M  V30 6 1 6 7
M  V30 7 1 7 8
M  V30 8 1 8 9
M  V30 9 1 9 10
M  V30 10 1 10 11
M  V30 11 1 11 12
M  V30 12 1 11 13
M  V30 13 2 12 14
M  V30 14 1 12 15
M  V30 15 2 13 16
M  V30 16 1 13 17
M  V30 17 1 14 18
M  V30 18 1 14 19
M  V30 19 2 15 20
M  V30 20 1 16 21
M  V30 21 1 16 22
M  V30 22 2 17 23
M  V30 23 2 18 24
M  V30 24 2 21 25
M  V30 25 1 19 22
M  V30 26 1 20 24
M  V30 27 1 23 25
M  V30 28 1 3 26
M  V30 29 1 4 27
M  V30 30 1 4 28
M  V30 31 1 5 29
M  V30 32 1 5 30
M  V30 33 1 6 31
M  V30 34 1 6 32
M  V30 35 1 7 33
M  V30 36 1 7 34
M  V30 37 1 8 35
M  V30 38 1 8 36
M  V30 39 1 9 37
M  V30 40 1 9 38
M  V30 41 1 10 39
M  V30 42 1 11 40
M  V30 43 1 15 41
M  V30 44 1 17 42
M  V30 45 1 18 43
M  V30 46 1 19 44
M  V30 47 1 19 45
M  V30 48 1 20 46
M  V30 49 1 21 47
M  V30 50 1 22 48
M  V30 51 1 22 49
M  V30 52 1 23 50
M  V30 53 1 24 51
M  V30 54 1 25 52
M  V30 END BOND
M  V30 END CTAB
M  END
>  <NO.>
2413

>  <Name>
survector

>  <SMILES>
O=C(O)CCCCCCNC1c2ccccc2CCc2ccccc21

>  <logBB>


>  <Class>
1

>  <MW>
337.2

>  <nHBAcc>
2

>  <nHBDon>
2

>  <SLogP>
4.5

>  <TopoPSA>
49.33

>  <MMFF94 Energy>
36.6

$$$$
O=C(O)CN1C(=O)c2cccc3cccc(c23)C1=O
Actelion Java MolfileCreator 2.0

  0  0  0  0  0  0              0 V3000
M  V30 BEGIN CTAB
M  V30 COUNTS 28 30 0 0 0
M  V30 BEGIN ATOM
M  V30 1 O -0.1618 -1.9439 2.1061 0
M  V30 2 C 0.0711 -1.1467 1.2009 0
M  V30 3 N 0.9469 -1.4104 0.1513 0
M  V30 4 C -0.5965 0.1746 1.2001 0
M  V30 5 C 1.2098 -0.5478 -0.9094 0
M  V30 6 C 1.5727 -2.7269 0.1155 0
M  V30 7 C -0.3424 1.0788 0.1619 0
M  V30 8 C -1.4756 0.5048 2.2397 0
M  V30 9 O 1.9658 -0.8249 -1.8371 0
M  V30 10 C 0.53 0.767 -0.8876 0
M  V30 11 C 0.6741 -3.6878 -0.6419 0
M  V30 12 C -0.9858 2.3397 0.1725 0
M  V30 13 C -2.1072 1.7455 2.2491 0
M  V30 14 C 0.7683 1.6848 -1.9188 0
M  V30 15 O -0.4071 -3.4514 -1.1582 0
M  V30 16 O 1.1988 -4.931 -0.7114 0
M  V30 17 C -1.8633 2.6572 1.2218 0
M  V30 18 C -0.7361 3.2499 -0.867 0
M  V30 19 C 0.1352 2.9246 -1.9067 0
M  V30 20 H 1.716 -3.1083 1.1314 0
M  V30 21 H 2.5396 -2.6752 -0.3947 0
M  V30 22 H -1.6707 -0.2043 3.0422 0
M  V30 23 H -2.7908 2.002 3.0552 0
M  V30 24 H 1.4457 1.4343 -2.7333 0
M  V30 25 H 0.529 -5.4387 -1.2169 0
M  V30 26 H -2.3678 3.6218 1.2459 0
M  V30 27 H -1.2227 4.2238 -0.8759 0
M  V30 28 H 0.3188 3.6372 -2.7076 0
M  V30 END ATOM
M  V30 BEGIN BOND
M  V30 1 2 1 2
M  V30 2 1 2 3
M  V30 3 1 2 4
M  V30 4 1 3 5
M  V30 5 1 3 6
M  V30 6 1 4 7
M  V30 7 2 4 8
M  V30 8 2 5 9
M  V30 9 1 5 10
M  V30 10 1 6 11
M  V30 11 1 7 12
M  V30 12 1 8 13
M  V30 13 1 10 14
M  V30 14 2 11 15
M  V30 15 1 11 16
M  V30 16 1 12 17
M  V30 17 2 12 18
M  V30 18 2 14 19
M  V30 19 2 7 10
M  V30 20 2 13 17
M  V30 21 1 18 19
M  V30 22 1 6 20
M  V30 23 1 6 21
M  V30 24 1 8 22
M  V30 25 1 13 23
M  V30 26 1 14 24
M  V30 27 1 16 25
M  V30 28 1 17 26
M  V30 29 1 18 27
M  V30 30 1 19 28
M  V30 END BOND
M  V30 END CTAB
M  END
>  <NO.>
2414

>  <Name>
alrestatin

>  <SMILES>
O=C(O)CN1C(=O)c2cccc3cccc(c23)C1=O

>  <logBB>


>  <Class>
1

>  <MW>
255.05

>  <nHBAcc>
3

>  <nHBDon>
1

>  <SLogP>
1.52

>  <TopoPSA>
74.68

>  <MMFF94 Energy>
-0.085574

$$$$
O=C(O)COCCN1CCN(C(c2ccccc2)c2ccc(Cl)cc2)CC1
Actelion Java MolfileCreator 2.0

  0  0  0  0  0  0              0 V3000
M  V30 BEGIN CTAB
M  V30 COUNTS 52 54 0 0 0
M  V30 BEGIN ATOM
M  V30 1 Cl -5.3826 -3.5323 -3.1304 0
M  V30 2 C -4.1849 -2.6975 -2.2194 0
M  V30 3 C -4.2613 -1.3147 -2.0786 0
M  V30 4 C -3.145 -3.4106 -1.6274 0
M  V30 5 C -3.2876 -0.6386 -1.3398 0
M  V30 6 C -2.1704 -2.7344 -0.8887 0
M  V30 7 C -2.224 -1.3371 -0.7396 0
M  V30 8 C -1.1534 -0.6147 0.0942 0 CFG=1
M  V30 9 N -0.5859 0.5915 -0.5794 0
M  V30 10 C -1.7136 -0.3329 1.4953 0
M  V30 11 C -0.0397 0.2651 -1.919 0
M  V30 12 C 0.5005 1.1968 0.2367 0
M  V30 13 C -1.42 -1.2079 2.5554 0
M  V30 14 C -2.5491 0.7686 1.7508 0
M  V30 15 C 0.656 1.4691 -2.6033 0
M  V30 16 C 1.1617 2.4043 -0.4663 0
M  V30 17 C -1.9372 -0.9804 3.8326 0
M  V30 18 C -3.0647 0.9943 3.0282 0
M  V30 19 N 1.7189 2.1118 -1.8031 0
M  V30 20 C -2.7584 0.12 4.0683 0
M  V30 21 C 2.9389 1.2804 -1.7719 0
M  V30 22 C 4.1217 1.8948 -0.9936 0
M  V30 23 O 4.0457 1.6011 0.4037 0
M  V30 24 C 4.6594 0.3663 0.7527 0
M  V30 25 C 4.2363 -0.1076 2.1342 0
M  V30 26 O 3.3741 0.3597 2.8592 0
M  V30 27 O 4.9279 -1.2004 2.528 0
M  V30 28 H -5.0729 -0.7564 -2.5368 0
M  V30 29 H -3.0898 -4.4905 -1.7325 0
M  V30 30 H -3.3535 0.4427 -1.2383 0
M  V30 31 H -1.3706 -3.307 -0.4245 0
M  V30 32 H -0.3155 -1.3176 0.2177 0
M  V30 33 H -0.8439 -0.0504 -2.5921 0
M  V30 34 H 0.6661 -0.5723 -1.8504 0
M  V30 35 H 1.2647 0.4469 0.477 0
M  V30 36 H 0.1026 1.5669 1.1874 0
M  V30 37 H -0.7845 -2.0748 2.3932 0
M  V30 38 H -2.7903 1.4655 0.9513 0
M  V30 39 H 1.0525 1.1571 -3.5775 0
M  V30 40 H -0.105 2.2286 -2.8285 0
M  V30 41 H 1.9142 2.8541 0.1888 0
M  V30 42 H 0.4018 3.1893 -0.5869 0
M  V30 43 H -1.6995 -1.6627 4.6444 0
M  V30 44 H -3.7037 1.8543 3.2101 0
M  V30 45 H -3.1595 0.297 5.0626 0
M  V30 46 H 3.2755 1.1661 -2.8099 0
M  V30 47 H 2.7253 0.2779 -1.3878 0
M  V30 48 H 5.0741 1.5306 -1.3983 0
M  V30 49 H 4.126 2.9845 -1.1088 0
M  V30 50 H 5.7452 0.5076 0.7512 0
M  V30 51 H 4.3822 -0.4177 0.0404 0
M  V30 52 H 4.5676 -1.3861 3.4216 0
M  V30 END ATOM
M  V30 BEGIN BOND
M  V30 1 1 1 2
M  V30 2 2 2 3
M  V30 3 1 2 4
M  V30 4 1 3 5
M  V30 5 2 4 6
M  V30 6 2 5 7
M  V30 7 1 7 8
M  V30 8 1 8 9
M  V30 9 1 8 10
M  V30 10 1 9 11
M  V30 11 1 9 12
M  V30 12 2 10 13
M  V30 13 1 10 14
M  V30 14 1 11 15
M  V30 15 1 12 16
M  V30 16 1 13 17
M  V30 17 2 14 18
M  V30 18 1 15 19
M  V30 19 2 17 20
M  V30 20 1 19 21
M  V30 21 1 21 22
M  V30 22 1 22 23
M  V30 23 1 23 24
M  V30 24 1 24 25
M  V30 25 2 25 26
M  V30 26 1 25 27
M  V30 27 1 6 7
M  V30 28 1 16 19
M  V30 29 1 18 20
M  V30 30 1 3 28
M  V30 31 1 4 29
M  V30 32 1 5 30
M  V30 33 1 6 31
M  V30 34 1 8 32
M  V30 35 1 11 33
M  V30 36 1 11 34
M  V30 37 1 12 35
M  V30 38 1 12 36
M  V30 39 1 13 37
M  V30 40 1 14 38
M  V30 41 1 15 39
M  V30 42 1 15 40
M  V30 43 1 16 41
M  V30 44 1 16 42
M  V30 45 1 17 43
M  V30 46 1 18 44
M  V30 47 1 20 45
M  V30 48 1 21 46
M  V30 49 1 21 47
M  V30 50 1 22 48
M  V30 51 1 22 49
M  V30 52 1 24 50
M  V30 53 1 24 51
M  V30 54 1 27 52
M  V30 END BOND
M  V30 BEGIN COLLECTION
M  V30 MDLV30/STERAC1 ATOMS=(1 8)
M  V30 END COLLECTION
M  V30 END CTAB
M  END
>  <NO.>
2415

>  <Name>
levocetirizine

>  <SMILES>
O=C(O)COCCN1CCN(C(c2ccccc2)c2ccc(Cl)cc2)CC1

>  <logBB>


>  <Class>
-1

>  <MW>
388.16

>  <nHBAcc>
4

>  <nHBDon>
1

>  <SLogP>
3.15

>  <TopoPSA>
53.01

>  <MMFF94 Energy>
153.54

$$$$
O=C(O)c1cc(=O)c2cc(OCC(O)COc3cccc4oc(C(=O)O)cc(=O)c34)ccc2o1
Actelion Java MolfileCreator 2.0

  0  0  0  0  0  0              0 V3000
M  V30 BEGIN CTAB
M  V30 COUNTS 50 53 0 0 0
M  V30 BEGIN ATOM
M  V30 1 O 2.2669 -3.1585 2.51 0
M  V30 2 C 1.7656 -4.2094 2.13 0
M  V30 3 C 0.4176 -4.3061 1.5317 0
M  V30 4 C 2.5314 -5.4608 2.2382 0
M  V30 5 C 0.0017 -5.5499 1.0539 0
M  V30 6 C -0.4354 -3.2024 1.41 0
M  V30 7 C 2.0079 -6.592 1.7499 0
M  V30 8 O 0.771 -6.6834 1.1375 0
M  V30 9 C -1.2531 -5.6955 0.458 0
M  V30 10 O -0.0764 -1.9923 1.9363 0
M  V30 11 C -1.6999 -3.3519 0.8309 0
M  V30 12 C 2.824 -7.8226 1.8738 0
M  V30 13 C -2.104 -4.5963 0.3473 0
M  V30 14 C 0.0906 -0.9839 0.9245 0
M  V30 15 O 3.9275 -7.9155 2.3812 0
M  V30 16 O 2.2062 -8.8943 1.3468 0
M  V30 17 C 1.1502 0.0056 1.4279 0 CFG=1
M  V30 18 O 2.433 -0.6323 1.4718 0
M  V30 19 C 1.2576 1.2319 0.5181 0
M  V30 20 O 0.0034 1.913 0.4805 0
M  V30 21 C -0.0826 3.0231 -0.3119 0
M  V30 22 C -1.3526 3.603 -0.3643 0
M  V30 23 C 0.9645 3.5965 -1.0383 0
M  V30 24 C -1.5689 4.7441 -1.1412 0
M  V30 25 C 0.7427 4.741 -1.8135 0
M  V30 26 C -2.8992 5.3661 -1.2144 0
M  V30 27 C -0.5261 5.3138 -1.8639 0
M  V30 28 O -3.8669 4.9169 -0.616 0
M  V30 29 C -3.0188 6.5676 -2.0532 0
M  V30 30 O -0.6808 6.4333 -2.6401 0
M  V30 31 C -1.9351 7.0195 -2.6992 0
M  V30 32 C -2.105 8.2325 -3.5334 0
M  V30 33 O -3.1331 8.8654 -3.6959 0
M  V30 34 O -0.9587 8.5984 -4.1335 0
M  V30 35 H 3.5063 -5.4019 2.7079 0
M  V30 36 H -1.5716 -6.6674 0.0879 0
M  V30 37 H -2.3804 -2.506 0.7715 0
M  V30 38 H -3.0873 -4.7115 -0.1032 0
M  V30 39 H -0.8739 -0.4872 0.7758 0
M  V30 40 H 0.4262 -1.43 -0.0212 0
M  V30 41 H 2.8367 -9.6302 1.4901 0
M  V30 42 H 0.9013 0.318 2.449 0
M  V30 43 H 2.3225 -1.4642 1.9909 0
M  V30 44 H 2.0388 1.8944 0.9122 0
M  V30 45 H 1.5521 0.9117 -0.4898 0
M  V30 46 H -2.1725 3.1645 0.201 0
M  V30 47 H 1.9678 3.1815 -1.0206 0
M  V30 48 H 1.5631 5.1823 -2.3744 0
M  V30 49 H -3.9946 7.0353 -2.1088 0
M  V30 50 H -1.199 9.3987 -4.6448 0
M  V30 END ATOM
M  V30 BEGIN BOND
M  V30 1 2 1 2
M  V30 2 1 2 3
M  V30 3 1 2 4
M  V30 4 2 3 5
M  V30 5 1 3 6
M  V30 6 2 4 7
M  V30 7 1 5 8
M  V30 8 1 5 9
M  V30 9 1 6 10
M  V30 10 2 6 11
M  V30 11 1 7 12
M  V30 12 2 9 13
M  V30 13 1 10 14
M  V30 14 2 12 15
M  V30 15 1 12 16
M  V30 16 1 14 17
M  V30 17 1 17 18
M  V30 18 1 17 19
M  V30 19 1 19 20
M  V30 20 1 20 21
M  V30 21 2 21 22
M  V30 22 1 21 23
M  V30 23 1 22 24
M  V30 24 2 23 25
M  V30 25 1 24 26
M  V30 26 2 24 27
M  V30 27 2 26 28
M  V30 28 1 26 29
M  V30 29 1 27 30
M  V30 30 2 29 31
M  V30 31 1 31 32
M  V30 32 2 32 33
M  V30 33 1 32 34
M  V30 34 1 7 8
M  V30 35 1 11 13
M  V30 36 1 25 27
M  V30 37 1 30 31
M  V30 38 1 4 35
M  V30 39 1 9 36
M  V30 40 1 11 37
M  V30 41 1 13 38
M  V30 42 1 14 39
M  V30 43 1 14 40
M  V30 44 1 16 41
M  V30 45 1 17 42
M  V30 46 1 18 43
M  V30 47 1 19 44
M  V30 48 1 19 45
M  V30 49 1 22 46
M  V30 50 1 23 47
M  V30 51 1 25 48
M  V30 52 1 29 49
M  V30 53 1 34 50
M  V30 END BOND
M  V30 BEGIN COLLECTION
M  V30 MDLV30/STERAC1 ATOMS=(1 17)
M  V30 END COLLECTION
M  V30 END CTAB
M  END
>  <NO.>
2417

>  <Name>
cromoglicicacid

>  <SMILES>
O=C(O)c1cc(=O)c2cc(OCC(O)COc3cccc4oc(C(=O)O)cc(=O)c34)ccc2o1

>  <logBB>


>  <Class>
-1

>  <MW>
468.07

>  <nHBAcc>
9

>  <nHBDon>
3

>  <SLogP>
2.11

>  <TopoPSA>
173.71

>  <MMFF94 Energy>
54.316

$$$$
O=C(O)c1cc(=O)c2ccccc2[nH]1
Actelion Java MolfileCreator 2.0

  0  0  0  0  0  0              0 V3000
M  V30 BEGIN CTAB
M  V30 COUNTS 21 22 0 0 0
M  V30 BEGIN ATOM
M  V30 1 O -1.2816 2.6447 -0.2402 0
M  V30 2 C -0.9531 1.4738 -0.0852 0
M  V30 3 C 0.4565 1.0318 -0.2311 0
M  V30 4 C -1.9719 0.4528 0.2575 0
M  V30 5 C 0.7553 -0.3269 -0.0381 0
M  V30 6 C 1.4587 1.9517 -0.5532 0
M  V30 7 C -1.5786 -0.8192 0.4201 0
M  V30 8 N -0.265 -1.2241 0.2829 0
M  V30 9 C 2.0786 -0.752 -0.1733 0
M  V30 10 C 2.7754 1.5133 -0.685 0
M  V30 11 C -2.5707 -1.8774 0.7652 0
M  V30 12 C 3.084 0.165 -0.4955 0
M  V30 13 O -2.2839 -3.0533 0.9277 0
M  V30 14 O -3.8345 -1.4414 0.8891 0
M  V30 15 H -2.9923 0.7979 0.3587 0
M  V30 16 H 1.2144 3.0013 -0.7001 0
M  V30 17 H -0.0696 -2.2107 0.4264 0
M  V30 18 H 2.34 -1.797 -0.0299 0
M  V30 19 H 3.561 2.2223 -0.9354 0
M  V30 20 H 4.1124 -0.1737 -0.599 0
M  V30 21 H -4.345 -2.2473 1.1129 0
M  V30 END ATOM
M  V30 BEGIN BOND
M  V30 1 2 1 2
M  V30 2 1 2 3
M  V30 3 1 2 4
M  V30 4 2 3 5
M  V30 5 1 3 6
M  V30 6 2 4 7
M  V30 7 1 5 8
M  V30 8 1 5 9
M  V30 9 2 6 10
M  V30 10 1 7 11
M  V30 11 2 9 12
M  V30 12 2 11 13
M  V30 13 1 11 14
M  V30 14 1 7 8
M  V30 15 1 10 12
M  V30 16 1 4 15
M  V30 17 1 6 16
M  V30 18 1 8 17
M  V30 19 1 9 18
M  V30 20 1 10 19
M  V30 21 1 12 20
M  V30 22 1 14 21
M  V30 END BOND
M  V30 END CTAB
M  END
>  <NO.>
2418

>  <Name>
kynurenic acid

>  <SMILES>
O=C(O)c1cc(=O)c2ccccc2[nH]1

>  <logBB>


>  <Class>
1

>  <MW>
189.04

>  <nHBAcc>
2

>  <nHBDon>
2

>  <SLogP>
1.23

>  <TopoPSA>
70.16

>  <MMFF94 Energy>
26.452

$$$$
O=C(O)c1cc(=O)c2ccccc2o1
Actelion Java MolfileCreator 2.0

  0  0  0  0  0  0              0 V3000
M  V30 BEGIN CTAB
M  V30 COUNTS 20 21 0 0 0
M  V30 BEGIN ATOM
M  V30 1 O 1.5332 -1.3717 -2.0985 0
M  V30 2 C 1.0735 -0.8618 -1.0858 0
M  V30 3 C -0.227 -0.1782 -1.0689 0
M  V30 4 C 1.8105 -0.9079 0.1856 0
M  V30 5 C -0.6729 0.3737 0.1286 0
M  V30 6 C -1.0026 -0.0819 -2.2276 0
M  V30 7 C 1.2759 -0.3382 1.2758 0
M  V30 8 O 0.0476 0.3077 1.2931 0
M  V30 9 C -1.9031 1.0288 0.1762 0
M  V30 10 C -2.2334 0.5737 -2.1786 0
M  V30 11 C 2.002 -0.3725 2.5697 0
M  V30 12 C -2.6827 1.1282 -0.9782 0
M  V30 13 O 1.6032 0.1139 3.6139 0
M  V30 14 O 3.1878 -1.0054 2.5184 0
M  V30 15 H 2.7683 -1.4122 0.1695 0
M  V30 16 H -0.6516 -0.5142 -3.162 0
M  V30 17 H -2.2559 1.4616 1.1091 0
M  V30 18 H -2.8425 0.6526 -3.0762 0
M  V30 19 H -3.6424 1.639 -0.9421 0
M  V30 20 H 3.5268 -0.9378 3.4362 0
M  V30 END ATOM
M  V30 BEGIN BOND
M  V30 1 2 1 2
M  V30 2 1 2 3
M  V30 3 1 2 4
M  V30 4 2 3 5
M  V30 5 1 3 6
M  V30 6 2 4 7
M  V30 7 1 5 8
M  V30 8 1 5 9
M  V30 9 2 6 10
M  V30 10 1 7 11
M  V30 11 2 9 12
M  V30 12 2 11 13
M  V30 13 1 11 14
M  V30 14 1 7 8
M  V30 15 1 10 12
M  V30 16 1 4 15
M  V30 17 1 6 16
M  V30 18 1 9 17
M  V30 19 1 10 18
M  V30 20 1 12 19
M  V30 21 1 14 20
M  V30 END BOND
M  V30 END CTAB
M  END
>  <NO.>
2419

>  <Name>
chromocarb

>  <SMILES>
O=C(O)c1cc(=O)c2ccccc2o1

>  <logBB>


>  <Class>
1

>  <MW>
190.03

>  <nHBAcc>
3

>  <nHBDon>
1

>  <SLogP>
1.49

>  <TopoPSA>
67.51

>  <MMFF94 Energy>
11.149

$$$$
O=C(O)c1ccccc1Oc1ccccc1
Actelion Java MolfileCreator 2.0

  0  0  0  0  0  0              0 V3000
M  V30 BEGIN CTAB
M  V30 COUNTS 26 27 0 0 0
M  V30 BEGIN ATOM
M  V30 1 O 2.068 0.5564 -2.2273 0
M  V30 2 C 1.9814 1.5568 -1.5426 0
M  V30 3 O 2.7676 2.6223 -1.7954 0
M  V30 4 C 1.0744 1.7959 -0.3905 0
M  V30 5 C -0.0642 1.0012 -0.1985 0
M  V30 6 C 1.3664 2.8087 0.5388 0
M  V30 7 O -0.4015 0.0468 -1.1334 0
M  V30 8 C -0.9146 1.2456 0.8904 0
M  V30 9 C 0.5273 3.0326 1.6329 0
M  V30 10 C -0.651 -1.2244 -0.6665 0
M  V30 11 C -0.6133 2.2529 1.8069 0
M  V30 12 C 0.2034 -1.8846 0.2195 0
M  V30 13 C -1.778 -1.8739 -1.171 0
M  V30 14 C -0.0959 -3.1841 0.631 0
M  V30 15 C -2.0751 -3.1728 -0.7577 0
M  V30 16 C -1.2366 -3.8253 0.1464 0
M  V30 17 H 3.2889 2.3365 -2.5751 0
M  V30 18 H 2.2511 3.4303 0.4194 0
M  V30 19 H -1.8192 0.6569 1.0231 0
M  V30 20 H 0.7624 3.8199 2.3453 0
M  V30 21 H -1.2736 2.4331 2.6518 0
M  V30 22 H 1.107 -1.4028 0.5806 0
M  V30 23 H -2.4231 -1.3677 -1.8834 0
M  V30 24 H 0.566 -3.7 1.3213 0
M  V30 25 H -2.9554 -3.678 -1.1459 0
M  V30 26 H -1.4654 -4.8393 0.4643 0
M  V30 END ATOM
M  V30 BEGIN BOND
M  V30 1 2 1 2
M  V30 2 1 2 3
M  V30 3 1 2 4
M  V30 4 2 4 5
M  V30 5 1 4 6
M  V30 6 1 5 7
M  V30 7 1 5 8
M  V30 8 2 6 9
M  V30 9 1 7 10
M  V30 10 2 8 11
M  V30 11 2 10 12
M  V30 12 1 10 13
M  V30 13 1 12 14
M  V30 14 2 13 15
M  V30 15 2 14 16
M  V30 16 1 9 11
M  V30 17 1 15 16
M  V30 18 1 3 17
M  V30 19 1 6 18
M  V30 20 1 8 19
M  V30 21 1 9 20
M  V30 22 1 11 21
M  V30 23 1 12 22
M  V30 24 1 13 23
M  V30 25 1 14 24
M  V30 26 1 15 25
M  V30 27 1 16 26
M  V30 END BOND
M  V30 END CTAB
M  END
>  <NO.>
2420

>  <Name>
phenyl-salicylate

>  <SMILES>
O=C(O)c1ccccc1Oc1ccccc1

>  <logBB>


>  <Class>
1

>  <MW>
214.06

>  <nHBAcc>
2

>  <nHBDon>
1

>  <SLogP>
3.18

>  <TopoPSA>
46.53

>  <MMFF94 Energy>
40.246

$$$$
O=C(O)c1cn(C2CC2)c2cc(N3CCNCC3)c(F)cc2c1=O
Actelion Java MolfileCreator 2.0

  0  0  0  0  0  0              0 V3000
M  V30 BEGIN CTAB
M  V30 COUNTS 42 45 0 0 0
M  V30 BEGIN ATOM
M  V30 1 F 0.4026 -2.9018 2.0951 0
M  V30 2 C -0.0192 -2.0249 1.1694 0
M  V30 3 C 0.7142 -0.8492 0.9172 0
M  V30 4 C -1.2116 -2.3135 0.5144 0
M  V30 5 N 1.9081 -0.5715 1.5787 0
M  V30 6 C 0.167 0.0419 -0.0267 0
M  V30 7 C -1.7164 -1.4118 -0.4228 0
M  V30 8 C 2.9645 -1.6038 1.576 0
M  V30 9 C 2.4019 0.8081 1.7178 0
M  V30 10 C -1.0427 -0.2117 -0.7028 0
M  V30 11 C -2.9832 -1.7321 -1.129 0
M  V30 12 C 3.9331 -1.4061 2.763 0
M  V30 13 C 3.3894 0.9257 2.901 0
M  V30 14 N -1.5952 0.6908 -1.654 0
M  V30 15 O -3.6124 -2.7359 -0.8149 0
M  V30 16 C -3.4401 -0.8025 -2.1935 0
M  V30 17 N 4.4977 -0.0446 2.844 0
M  V30 18 C -2.719 0.3169 -2.3689 0
M  V30 19 C -0.9417 1.9701 -1.9902 0
M  V30 20 C -4.6117 -1.0929 -3.0395 0
M  V30 21 C -1.7178 3.2544 -2.1648 0
M  V30 22 C -0.8202 3.086 -0.9807 0
M  V30 23 O -5.1781 -2.1612 -3.1752 0
M  V30 24 O -5.0566 -0.0165 -3.7214 0
M  V30 25 H -1.7363 -3.2356 0.7481 0
M  V30 26 H 0.7157 0.9471 -0.2631 0
M  V30 27 H 2.5657 -2.6206 1.6346 0
M  V30 28 H 3.5214 -1.534 0.6327 0
M  V30 29 H 1.5718 1.4994 1.9084 0
M  V30 30 H 2.8996 1.1173 0.7902 0
M  V30 31 H 4.7584 -2.1205 2.6715 0
M  V30 32 H 3.4113 -1.6362 3.7008 0
M  V30 33 H 3.8096 1.9373 2.914 0
M  V30 34 H 2.8439 0.7936 3.8443 0
M  V30 35 H 5.0483 0.0313 3.6984 0
M  V30 36 H -2.9922 1.0351 -3.1381 0
M  V30 37 H -0.1012 1.8232 -2.6657 0
M  V30 38 H -2.7857 3.2565 -1.9805 0
M  V30 39 H -1.4031 3.9305 -2.9511 0
M  V30 40 H 0.1044 3.6499 -0.9586 0
M  V30 41 H -1.2871 2.9565 -0.0108 0
M  V30 42 H -5.829 -0.3731 -4.2107 0
M  V30 END ATOM
M  V30 BEGIN BOND
M  V30 1 1 1 2
M  V30 2 2 2 3
M  V30 3 1 2 4
M  V30 4 1 3 5
M  V30 5 1 3 6
M  V30 6 2 4 7
M  V30 7 1 5 8
M  V30 8 1 5 9
M  V30 9 2 6 10
M  V30 10 1 7 11
M  V30 11 1 8 12
M  V30 12 1 9 13
M  V30 13 1 10 14
M  V30 14 2 11 15
M  V30 15 1 11 16
M  V30 16 1 12 17
M  V30 17 1 14 18
M  V30 18 1 14 19
M  V30 19 1 16 20
M  V30 20 1 19 21
M  V30 21 1 19 22
M  V30 22 2 20 23
M  V30 23 1 20 24
M  V30 24 1 7 10
M  V30 25 1 13 17
M  V30 26 2 16 18
M  V30 27 1 21 22
M  V30 28 1 4 25
M  V30 29 1 6 26
M  V30 30 1 8 27
M  V30 31 1 8 28
M  V30 32 1 9 29
M  V30 33 1 9 30
M  V30 34 1 12 31
M  V30 35 1 12 32
M  V30 36 1 13 33
M  V30 37 1 13 34
M  V30 38 1 17 35
M  V30 39 1 18 36
M  V30 40 1 19 37
M  V30 41 1 21 38
M  V30 42 1 21 39
M  V30 43 1 22 40
M  V30 44 1 22 41
M  V30 45 1 24 42
M  V30 END BOND
M  V30 END CTAB
M  END
>  <NO.>
2421

>  <Name>
ciprofloxacin

>  <SMILES>
O=C(O)c1cn(C2CC2)c2cc(N3CCNCC3)c(F)cc2c1=O

>  <logBB>


>  <Class>
-1

>  <MW>
331.13

>  <nHBAcc>
4

>  <nHBDon>
2

>  <SLogP>
1.58

>  <TopoPSA>
74.57

>  <MMFF94 Energy>
107.5

$$$$
O=C(OC1CN2CCC1CC2)c1ccccc1
Actelion Java MolfileCreator 2.0

  0  0  0  0  0  0              0 V3000
M  V30 BEGIN CTAB
M  V30 COUNTS 34 36 0 0 0
M  V30 BEGIN ATOM
M  V30 1 O -1.9255 1.2834 0.8822 0
M  V30 2 C -0.7317 1.3374 0.6334 0
M  V30 3 O -0.0721 0.5665 -0.2653 0
M  V30 4 C 0.2067 2.2806 1.2999 0
M  V30 5 C -0.8717 -0.4048 -0.9658 0 CFG=2
M  V30 6 C -0.3112 3.1612 2.2599 0
M  V30 7 C 1.5767 2.3148 1.0035 0
M  V30 8 C -1.0615 -1.6721 -0.1036 0
M  V30 9 C -0.1352 -0.807 -2.2676 0
M  V30 10 C 0.529 4.0643 2.9141 0
M  V30 11 C 2.4141 3.22 1.6604 0
M  V30 12 C -1.8645 -2.6841 -0.9343 0
M  V30 13 C 0.318 -2.2942 0.1766 0
M  V30 14 N 0.1752 -2.2591 -2.3185 0
M  V30 15 C 1.8901 4.0928 2.6138 0
M  V30 16 C -1.0901 -3.0199 -2.2197 0
M  V30 17 C 1.0253 -2.5935 -1.1544 0
M  V30 18 H -1.8427 0.0319 -1.2347 0
M  V30 19 H -1.3726 3.1471 2.5018 0
M  V30 20 H 2.0069 1.6438 0.2643 0
M  V30 21 H -1.5671 -1.4451 0.8403 0
M  V30 22 H -0.7613 -0.553 -3.1327 0
M  V30 23 H 0.7898 -0.2301 -2.3934 0
M  V30 24 H 0.1208 4.7449 3.6576 0
M  V30 25 H 3.476 3.2442 1.4279 0
M  V30 26 H -2.0353 -3.598 -0.3528 0
M  V30 27 H -2.848 -2.2694 -1.1853 0
M  V30 28 H 0.1982 -3.2211 0.7506 0
M  V30 29 H 0.9304 -1.6179 0.7842 0
M  V30 30 H 2.5439 4.7966 3.1237 0
M  V30 31 H -1.7156 -2.8121 -3.0969 0
M  V30 32 H -0.8783 -4.0957 -2.259 0
M  V30 33 H 1.9675 -2.034 -1.2119 0
M  V30 34 H 1.3099 -3.6522 -1.1962 0
M  V30 END ATOM
M  V30 BEGIN BOND
M  V30 1 2 1 2
M  V30 2 1 2 3
M  V30 3 1 2 4
M  V30 4 1 3 5
M  V30 5 2 4 6
M  V30 6 1 4 7
M  V30 7 1 5 8
M  V30 8 1 5 9
M  V30 9 1 6 10
M  V30 10 2 7 11
M  V30 11 1 8 12
M  V30 12 1 8 13
M  V30 13 1 9 14
M  V30 14 2 10 15
M  V30 15 1 12 16
M  V30 16 1 13 17
M  V30 17 1 11 15
M  V30 18 1 14 16
M  V30 19 1 14 17
M  V30 20 1 5 18
M  V30 21 1 6 19
M  V30 22 1 7 20
M  V30 23 1 8 21
M  V30 24 1 9 22
M  V30 25 1 9 23
M  V30 26 1 10 24
M  V30 27 1 11 25
M  V30 28 1 12 26
M  V30 29 1 12 27
M  V30 30 1 13 28
M  V30 31 1 13 29
M  V30 32 1 15 30
M  V30 33 1 16 31
M  V30 34 1 16 32
M  V30 35 1 17 33
M  V30 36 1 17 34
M  V30 END BOND
M  V30 BEGIN COLLECTION
M  V30 MDLV30/STERAC1 ATOMS=(1 5)
M  V30 END COLLECTION
M  V30 END CTAB
M  END
>  <NO.>
2422

>  <Name>
benzoclidine

>  <SMILES>
O=C(OC1CN2CCC1CC2)c1ccccc1

>  <logBB>


>  <Class>
1

>  <MW>
231.13

>  <nHBAcc>
3

>  <nHBDon>
0

>  <SLogP>
1.94

>  <TopoPSA>
29.54

>  <MMFF94 Energy>
65.405

$$$$
O=C(OCC(Cl)(Cl)Cl)OCC(Cl)(Cl)Cl
Actelion Java MolfileCreator 2.0

  0  0  0  0  0  0              0 V3000
M  V30 BEGIN CTAB
M  V30 COUNTS 18 17 0 0 0
M  V30 BEGIN ATOM
M  V30 1 Cl -1.7489 -2.1174 -3.1311 0
M  V30 2 C -2.2641 -0.4406 -2.7723 0
M  V30 3 Cl -2.6642 0.3733 -4.3195 0
M  V30 4 Cl -3.7387 -0.4841 -1.7576 0
M  V30 5 C -1.1405 0.3338 -2.0651 0
M  V30 6 O -0.7808 -0.2809 -0.8127 0
M  V30 7 C 0.2057 0.3593 -0.1445 0
M  V30 8 O 0.7795 1.3703 -0.5152 0
M  V30 9 O 0.4478 -0.3119 1.0045 0
M  V30 10 C 1.4855 0.2676 1.8189 0
M  V30 11 C 1.7105 -0.5409 3.1066 0
M  V30 12 Cl 0.2189 -0.584 4.0961 0
M  V30 13 Cl 3.0101 0.23 4.0728 0
M  V30 14 Cl 2.2087 -2.2172 2.7227 0
M  V30 15 H -0.2496 0.3678 -2.7063 0
M  V30 16 H -1.4641 1.3646 -1.868 0
M  V30 17 H 1.1984 1.2975 2.0701 0
M  V30 18 H 2.4129 0.3006 1.2317 0
M  V30 END ATOM
M  V30 BEGIN BOND
M  V30 1 1 1 2
M  V30 2 1 2 3
M  V30 3 1 2 4
M  V30 4 1 2 5
M  V30 5 1 5 6
M  V30 6 1 6 7
M  V30 7 2 7 8
M  V30 8 1 7 9
M  V30 9 1 9 10
M  V30 10 1 10 11
M  V30 11 1 11 12
M  V30 12 1 11 13
M  V30 13 1 11 14
M  V30 14 1 5 15
M  V30 15 1 5 16
M  V30 16 1 10 17
M  V30 17 1 10 18
M  V30 END BOND
M  V30 END CTAB
M  END
>  <NO.>
2423

>  <Name>
clorethate

>  <SMILES>
O=C(OCC(Cl)(Cl)Cl)OCC(Cl)(Cl)Cl

>  <logBB>


>  <Class>
1

>  <MW>
321.83

>  <nHBAcc>
3

>  <nHBDon>
0

>  <SLogP>
3.88

>  <TopoPSA>
35.53

>  <MMFF94 Energy>
6.2256

$$$$
O=C(OCCN1CCCCC1)C(O)(c1ccccc1)c1ccccc1
Actelion Java MolfileCreator 2.0

  0  0  0  0  0  0              0 V3000
M  V30 BEGIN CTAB
M  V30 COUNTS 50 52 0 0 0
M  V30 BEGIN ATOM
M  V30 1 O 1.7513 -1.3531 -0.4774 0
M  V30 2 C 1.2736 -0.2242 -0.4968 0
M  V30 3 O 0.4289 0.2612 0.4746 0
M  V30 4 C 1.4334 0.8362 -1.6383 0
M  V30 5 C 0.196 -0.6502 1.563 0
M  V30 6 O 1.3084 2.1417 -1.024 0
M  V30 7 C 0.2994 0.7515 -2.6781 0
M  V30 8 C 2.8227 0.7318 -2.2885 0
M  V30 9 C -0.7715 0.0188 2.5511 0
M  V30 10 C -0.4905 -0.4002 -2.8465 0
M  V30 11 C 0.052 1.8489 -3.5274 0
M  V30 12 C 3.1475 -0.3564 -3.1213 0
M  V30 13 C 3.8168 1.7017 -2.0623 0
M  V30 14 N -0.9871 -0.7393 3.7941 0
M  V30 15 C -1.503 -0.4408 -3.8095 0
M  V30 16 C -0.9596 1.8058 -4.4883 0
M  V30 17 C 4.4097 -0.4636 -3.7103 0
M  V30 18 C 5.0787 1.5937 -2.6526 0
M  V30 19 C -1.6827 -2.021 3.6026 0
M  V30 20 C -1.6793 0.0695 4.8118 0
M  V30 21 C -1.7393 0.6616 -4.6263 0
M  V30 22 C 5.3742 0.512 -3.477 0
M  V30 23 C -3.1676 -1.8783 3.2591 0
M  V30 24 C -3.165 0.2971 4.5201 0
M  V30 25 C -3.8936 -1.0231 4.2927 0
M  V30 26 H 1.149 -0.8693 2.0588 0
M  V30 27 H -0.2365 -1.5731 1.1627 0
M  V30 28 H 0.4556 2.118 -0.5525 0
M  V30 29 H -0.3392 0.9978 2.7997 0
M  V30 30 H -1.7117 0.2443 2.0335 0
M  V30 31 H -0.328 -1.2929 -2.2456 0
M  V30 32 H 0.6605 2.7491 -3.4438 0
M  V30 33 H 2.4188 -1.1413 -3.3145 0
M  V30 34 H 3.6169 2.5588 -1.4218 0
M  V30 35 H -2.1035 -1.3397 -3.9269 0
M  V30 36 H -1.1324 2.6644 -5.1321 0
M  V30 37 H 4.6387 -1.3131 -4.3484 0
M  V30 38 H 5.8302 2.3562 -2.4656 0
M  V30 39 H -1.5917 -2.5994 4.5319 0
M  V30 40 H -1.1836 -2.632 2.8435 0
M  V30 41 H -1.1745 1.0349 4.9397 0
M  V30 42 H -1.5813 -0.4383 5.7804 0
M  V30 43 H -2.5243 0.6255 -5.3771 0
M  V30 44 H 6.3561 0.4277 -3.9341 0
M  V30 45 H -3.631 -2.8707 3.2172 0
M  V30 46 H -3.2854 -1.4348 2.2636 0
M  V30 47 H -3.2829 0.9393 3.6393 0
M  V30 48 H -3.6264 0.8291 5.3602 0
M  V30 49 H -4.9231 -0.8342 3.9691 0
M  V30 50 H -3.9518 -1.5723 5.2407 0
M  V30 END ATOM
M  V30 BEGIN BOND
M  V30 1 2 1 2
M  V30 2 1 2 3
M  V30 3 1 2 4
M  V30 4 1 3 5
M  V30 5 1 4 6
M  V30 6 1 4 7
M  V30 7 1 4 8
M  V30 8 1 5 9
M  V30 9 2 7 10
M  V30 10 1 7 11
M  V30 11 2 8 12
M  V30 12 1 8 13
M  V30 13 1 9 14
M  V30 14 1 10 15
M  V30 15 2 11 16
M  V30 16 1 12 17
M  V30 17 2 13 18
M  V30 18 1 14 19
M  V30 19 1 14 20
M  V30 20 2 15 21
M  V30 21 2 17 22
M  V30 22 1 19 23
M  V30 23 1 20 24
M  V30 24 1 23 25
M  V30 25 1 16 21
M  V30 26 1 18 22
M  V30 27 1 24 25
M  V30 28 1 5 26
M  V30 29 1 5 27
M  V30 30 1 6 28
M  V30 31 1 9 29
M  V30 32 1 9 30
M  V30 33 1 10 31
M  V30 34 1 11 32
M  V30 35 1 12 33
M  V30 36 1 13 34
M  V30 37 1 15 35
M  V30 38 1 16 36
M  V30 39 1 17 37
M  V30 40 1 18 38
M  V30 41 1 19 39
M  V30 42 1 19 40
M  V30 43 1 20 41
M  V30 44 1 20 42
M  V30 45 1 21 43
M  V30 46 1 22 44
M  V30 47 1 23 45
M  V30 48 1 23 46
M  V30 49 1 24 47
M  V30 50 1 24 48
M  V30 51 1 25 49
M  V30 52 1 25 50
M  V30 END BOND
M  V30 END CTAB
M  END
>  <NO.>
2424

>  <Name>
piperilate

>  <SMILES>
O=C(OCCN1CCCCC1)C(O)(c1ccccc1)c1ccccc1

>  <logBB>


>  <Class>
1

>  <MW>
339.18

>  <nHBAcc>
4

>  <nHBDon>
1

>  <SLogP>
2.95

>  <TopoPSA>
49.77

>  <MMFF94 Energy>
133.3

$$$$
O=C(c1cc2ccccc2o1)N1CCN(Cc2ccccc2)CC1
Actelion Java MolfileCreator 2.0

  0  0  0  0  0  0              0 V3000
M  V30 BEGIN CTAB
M  V30 COUNTS 44 47 0 0 0
M  V30 BEGIN ATOM
M  V30 1 O 1.7613 -3.6854 0.0 0
M  V30 2 C 1.0959 -2.7114 -0.3553 0
M  V30 3 N 1.1495 -1.5168 0.3673 0
M  V30 4 C 0.2149 -2.7799 -1.5055 0
M  V30 5 C 1.9023 -1.482 1.6204 0
M  V30 6 C 0.7855 -0.1917 -0.1429 0
M  V30 7 O 0.6735 -3.4146 -2.6298 0
M  V30 8 C -1.0927 -2.3716 -1.7117 0
M  V30 9 C 1.2075 -0.5993 2.6745 0
M  V30 10 C 0.0905 0.6591 0.9361 0
M  V30 11 C -0.3226 -3.3796 -3.5542 0
M  V30 12 C -1.4418 -2.742 -3.036 0
M  V30 13 N 0.902 0.7575 2.1696 0
M  V30 14 C -0.2492 -3.9075 -4.8406 0
M  V30 15 C -2.5819 -2.6178 -3.8491 0
M  V30 16 C 0.215 1.5419 3.2105 0
M  V30 17 C -1.3913 -3.7711 -5.6365 0
M  V30 18 C -2.5387 -3.1378 -5.151 0
M  V30 19 C 0.0776 3.0096 2.8643 0
M  V30 20 C 1.2132 3.7843 2.5827 0
M  V30 21 C -1.183 3.6233 2.8399 0
M  V30 22 C 1.0898 5.1398 2.2748 0
M  V30 23 C -1.3044 4.9799 2.5322 0
M  V30 24 C -0.1688 5.7369 2.2495 0
M  V30 25 H 2.0314 -2.4912 2.0252 0
M  V30 26 H 2.9 -1.0883 1.3908 0
M  V30 27 H 1.7209 0.2929 -0.4513 0
M  V30 28 H 0.1626 -0.2452 -1.0357 0
M  V30 29 H -1.7217 -1.8773 -0.9856 0
M  V30 30 H 0.2826 -1.0961 2.9972 0
M  V30 31 H 1.8659 -0.5288 3.5485 0
M  V30 32 H -0.8899 0.2186 1.161 0
M  V30 33 H -0.0827 1.6543 0.5118 0
M  V30 34 H 0.6476 -4.3988 -5.1973 0
M  V30 35 H -3.4805 -2.1314 -3.4819 0
M  V30 36 H -0.7692 1.1084 3.432 0
M  V30 37 H 0.7881 1.4976 4.1465 0
M  V30 38 H -1.3849 -4.1681 -6.6495 0
M  V30 39 H -3.4138 -3.0488 -5.7916 0
M  V30 40 H 2.1994 3.3248 2.5962 0
M  V30 41 H -2.0797 3.0492 3.06 0
M  V30 42 H 1.9764 5.7282 2.0545 0
M  V30 43 H -2.2855 5.4473 2.5146 0
M  V30 44 H -0.2643 6.7927 2.0104 0
M  V30 END ATOM
M  V30 BEGIN BOND
M  V30 1 2 1 2
M  V30 2 1 2 3
M  V30 3 1 2 4
M  V30 4 1 3 5
M  V30 5 1 3 6
M  V30 6 1 4 7
M  V30 7 2 4 8
M  V30 8 1 5 9
M  V30 9 1 6 10
M  V30 10 1 7 11
M  V30 11 1 8 12
M  V30 12 1 9 13
M  V30 13 1 11 14
M  V30 14 1 12 15
M  V30 15 1 13 16
M  V30 16 2 14 17
M  V30 17 2 15 18
M  V30 18 1 16 19
M  V30 19 2 19 20
M  V30 20 1 19 21
M  V30 21 1 20 22
M  V30 22 2 21 23
M  V30 23 2 22 24
M  V30 24 1 10 13
M  V30 25 2 11 12
M  V30 26 1 17 18
M  V30 27 1 23 24
M  V30 28 1 5 25
M  V30 29 1 5 26
M  V30 30 1 6 27
M  V30 31 1 6 28
M  V30 32 1 8 29
M  V30 33 1 9 30
M  V30 34 1 9 31
M  V30 35 1 10 32
M  V30 36 1 10 33
M  V30 37 1 14 34
M  V30 38 1 15 35
M  V30 39 1 16 36
M  V30 40 1 16 37
M  V30 41 1 17 38
M  V30 42 1 18 39
M  V30 43 1 20 40
M  V30 44 1 21 41
M  V30 45 1 22 42
M  V30 46 1 23 43
M  V30 47 1 24 44
M  V30 END BOND
M  V30 END CTAB
M  END
>  <NO.>
2425

>  <Name>
befuraline

>  <SMILES>
O=C(c1cc2ccccc2o1)N1CCN(Cc2ccccc2)CC1

>  <logBB>


>  <Class>
1

>  <MW>
320.15

>  <nHBAcc>
3

>  <nHBDon>
0

>  <SLogP>
3.39

>  <TopoPSA>
36.69

>  <MMFF94 Energy>
93.765

$$$$
O=C(c1ccc(F)cc1)C1CCN(CCCn2c(=O)[nH]c3cc(Cl)ccc32)CC1
Actelion Java MolfileCreator 2.0

  0  0  0  0  0  0              0 V3000
M  V30 BEGIN CTAB
M  V30 COUNTS 52 55 0 0 0
M  V30 BEGIN ATOM
M  V30 1 Cl -2.4222 7.1989 4.7679 0
M  V30 2 C -2.5721 6.1381 3.4188 0
M  V30 3 C -2.6959 6.6764 2.1362 0
M  V30 4 C -2.5673 4.7434 3.6371 0
M  V30 5 C -2.8124 5.7747 1.1042 0
M  V30 6 C -2.6875 3.8484 2.5666 0
M  V30 7 N -2.9452 6.0151 -0.2584 0
M  V30 8 C -2.8086 4.3925 1.3063 0
M  V30 9 C -3.0229 4.7868 -0.935 0
M  V30 10 N -2.9445 3.7825 0.0523 0
M  V30 11 O -3.1347 4.6454 -2.1406 0
M  V30 12 C -2.9396 2.3653 -0.2092 0
M  V30 13 C -1.5223 1.7914 -0.2516 0
M  V30 14 C -1.5547 0.294 -0.5791 0
M  V30 15 N -0.2101 -0.2936 -0.7156 0
M  V30 16 C 0.4836 -0.4026 0.5764 0
M  V30 17 C -0.2952 -1.6024 -1.3798 0
M  V30 18 C 1.8902 -0.9768 0.4064 0
M  V30 19 C 1.0887 -2.2108 -1.607 0
M  V30 20 C 1.8575 -2.3431 -0.2906 0
M  V30 21 C 3.2733 -2.865 -0.5345 0
M  V30 22 O 4.2633 -2.1446 -0.4101 0
M  V30 23 C 3.4834 -4.2925 -0.9384 0
M  V30 24 C 4.7468 -4.6583 -1.4335 0
M  V30 25 C 2.4841 -5.27 -0.828 0
M  V30 26 C 5.0035 -5.975 -1.822 0
M  V30 27 C 2.7447 -6.5877 -1.2181 0
M  V30 28 C 3.9992 -6.9272 -1.7117 0
M  V30 29 F 4.2415 -8.1907 -2.0825 0
M  V30 30 H -2.6992 7.7455 1.9645 0
M  V30 31 H -2.4686 4.3554 4.6489 0
M  V30 32 H -2.6832 2.7785 2.7347 0
M  V30 33 H -2.973 6.9072 -0.7248 0
M  V30 34 H -3.5447 1.8621 0.5537 0
M  V30 35 H -3.4281 2.1975 -1.1764 0
M  V30 36 H -1.0363 1.9691 0.7134 0
M  V30 37 H -0.9317 2.3253 -1.0071 0
M  V30 38 H -2.1396 -0.2476 0.1757 0
M  V30 39 H -2.0904 0.1839 -1.5313 0
M  V30 40 H -0.0885 -1.0298 1.2725 0
M  V30 41 H 0.5913 0.5827 1.0412 0
M  V30 42 H -0.7756 -1.4912 -2.3598 0
M  V30 43 H -0.9111 -2.2966 -0.7928 0
M  V30 44 H 2.368 -1.0711 1.3895 0
M  V30 45 H 2.5012 -0.2683 -0.1691 0
M  V30 46 H 0.9724 -3.1862 -2.092 0
M  V30 47 H 1.6561 -1.5866 -2.3106 0
M  V30 48 H 1.3426 -3.0351 0.3861 0
M  V30 49 H 5.5388 -3.9153 -1.5199 0
M  V30 50 H 1.4977 -5.0409 -0.4376 0
M  V30 51 H 5.9782 -6.2592 -2.2064 0
M  V30 52 H 1.9782 -7.3528 -1.1373 0
M  V30 END ATOM
M  V30 BEGIN BOND
M  V30 1 1 1 2
M  V30 2 2 2 3
M  V30 3 1 2 4
M  V30 4 1 3 5
M  V30 5 2 4 6
M  V30 6 1 5 7
M  V30 7 2 5 8
M  V30 8 1 7 9
M  V30 9 1 8 10
M  V30 10 2 9 11
M  V30 11 1 10 12
M  V30 12 1 12 13
M  V30 13 1 13 14
M  V30 14 1 14 15
M  V30 15 1 15 16
M  V30 16 1 15 17
M  V30 17 1 16 18
M  V30 18 1 17 19
M  V30 19 1 18 20
M  V30 20 1 20 21
M  V30 21 2 21 22
M  V30 22 1 21 23
M  V30 23 2 23 24
M  V30 24 1 23 25
M  V30 25 1 24 26
M  V30 26 2 25 27
M  V30 27 2 26 28
M  V30 28 1 28 29
M  V30 29 1 6 8
M  V30 30 1 9 10
M  V30 31 1 19 20
M  V30 32 1 27 28
M  V30 33 1 3 30
M  V30 34 1 4 31
M  V30 35 1 6 32
M  V30 36 1 7 33
M  V30 37 1 12 34
M  V30 38 1 12 35
M  V30 39 1 13 36
M  V30 40 1 13 37
M  V30 41 1 14 38
M  V30 42 1 14 39
M  V30 43 1 16 40
M  V30 44 1 16 41
M  V30 45 1 17 42
M  V30 46 1 17 43
M  V30 47 1 18 44
M  V30 48 1 18 45
M  V30 49 1 19 46
M  V30 50 1 19 47
M  V30 51 1 20 48
M  V30 52 1 24 49
M  V30 53 1 25 50
M  V30 54 1 26 51
M  V30 55 1 27 52
M  V30 END BOND
M  V30 END CTAB
M  END
>  <NO.>
2427

>  <Name>
milenperone

>  <SMILES>
O=C(c1ccc(F)cc1)C1CCN(CCCn2c(=O)[nH]c3cc(Cl)ccc32)CC1

>  <logBB>


>  <Class>
1

>  <MW>
415.15

>  <nHBAcc>
3

>  <nHBDon>
1

>  <SLogP>
4.11

>  <TopoPSA>
58.1

>  <MMFF94 Energy>
9.2281

$$$$
O=C(c1ccc(F)cc1)C1CCN(CCCn2c(=O)[nH]c3ccccc32)CC1
Actelion Java MolfileCreator 2.0

  0  0  0  0  0  0              0 V3000
M  V30 BEGIN CTAB
M  V30 COUNTS 52 55 0 0 0
M  V30 BEGIN ATOM
M  V30 1 F 5.046 -6.893 -1.1996 0
M  V30 2 C 4.785 -5.7076 -0.6344 0
M  V30 3 C 5.7861 -4.749 -0.5571 0
M  V30 4 C 3.5144 -5.4548 -0.1302 0
M  V30 5 C 5.5098 -3.5139 0.0334 0
M  V30 6 C 3.2341 -4.2189 0.4619 0
M  V30 7 C 4.23 -3.2354 0.5433 0
M  V30 8 C 3.9992 -1.893 1.168 0
M  V30 9 O 4.9803 -1.1986 1.4316 0
M  V30 10 C 2.574 -1.4225 1.4566 0
M  V30 11 C 2.5773 -0.1938 2.3748 0
M  V30 12 C 1.8419 -1.0711 0.16 0
M  V30 13 C 1.1609 0.3321 2.5978 0
M  V30 14 C 0.4459 -0.5099 0.4401 0
M  V30 15 N 0.5009 0.6612 1.3238 0
M  V30 16 C -0.8317 1.2355 1.5826 0
M  V30 17 C -1.4533 1.9023 0.35 0
M  V30 18 C -2.7783 2.5762 0.7117 0
M  V30 19 N -3.3854 3.2232 -0.4231 0
M  V30 20 C -3.251 4.5894 -0.7455 0
M  V30 21 C -4.1484 2.599 -1.4197 0
M  V30 22 O -2.6493 5.4498 -0.1257 0
M  V30 23 N -3.9538 4.7859 -1.945 0
M  V30 24 C -4.4969 3.5742 -2.3549 0
M  V30 25 C -4.5481 1.2883 -1.5639 0
M  V30 26 C -5.2523 3.2945 -3.47 0
M  V30 27 C -5.3185 0.977 -2.6906 0
M  V30 28 C -5.6666 1.969 -3.6329 0
M  V30 29 H 6.7734 -4.9652 -0.9529 0
M  V30 30 H 2.7507 -6.2237 -0.1986 0
M  V30 31 H 6.2993 -2.7659 0.0938 0
M  V30 32 H 2.2353 -4.0581 0.8542 0
M  V30 33 H 2.0447 -2.2197 1.9916 0
M  V30 34 H 3.0294 -0.4503 3.3407 0
M  V30 35 H 3.196 0.6049 1.9441 0
M  V30 36 H 1.747 -1.9512 -0.4853 0
M  V30 37 H 2.4261 -0.3369 -0.4111 0
M  V30 38 H 0.5752 -0.4086 3.158 0
M  V30 39 H 1.2318 1.2306 3.223 0
M  V30 40 H 0.0086 -0.2423 -0.5271 0
M  V30 41 H -0.1843 -1.2959 0.8761 0
M  V30 42 H -0.7397 2.0084 2.3571 0
M  V30 43 H -1.5113 0.47 1.9794 0
M  V30 44 H -0.7615 2.6487 -0.0604 0
M  V30 45 H -1.6318 1.166 -0.4406 0
M  V30 46 H -2.5995 3.3372 1.4805 0
M  V30 47 H -3.4875 1.8518 1.1279 0
M  V30 48 H -4.0223 5.6756 -2.41 0
M  V30 49 H -4.2843 0.524 -0.844 0
M  V30 50 H -5.5163 4.0588 -4.1903 0
M  V30 51 H -5.6563 -0.0457 -2.8449 0
M  V30 52 H -6.2665 1.6957 -4.4987 0
M  V30 END ATOM
M  V30 BEGIN BOND
M  V30 1 1 1 2
M  V30 2 2 2 3
M  V30 3 1 2 4
M  V30 4 1 3 5
M  V30 5 2 4 6
M  V30 6 2 5 7
M  V30 7 1 7 8
M  V30 8 2 8 9
M  V30 9 1 8 10
M  V30 10 1 10 11
M  V30 11 1 10 12
M  V30 12 1 11 13
M  V30 13 1 12 14
M  V30 14 1 13 15
M  V30 15 1 15 16
M  V30 16 1 16 17
M  V30 17 1 17 18
M  V30 18 1 18 19
M  V30 19 1 19 20
M  V30 20 1 19 21
M  V30 21 2 20 22
M  V30 22 1 20 23
M  V30 23 2 21 24
M  V30 24 1 21 25
M  V30 25 1 24 26
M  V30 26 2 25 27
M  V30 27 2 26 28
M  V30 28 1 6 7
M  V30 29 1 14 15
M  V30 30 1 23 24
M  V30 31 1 27 28
M  V30 32 1 3 29
M  V30 33 1 4 30
M  V30 34 1 5 31
M  V30 35 1 6 32
M  V30 36 1 10 33
M  V30 37 1 11 34
M  V30 38 1 11 35
M  V30 39 1 12 36
M  V30 40 1 12 37
M  V30 41 1 13 38
M  V30 42 1 13 39
M  V30 43 1 14 40
M  V30 44 1 14 41
M  V30 45 1 16 42
M  V30 46 1 16 43
M  V30 47 1 17 44
M  V30 48 1 17 45
M  V30 49 1 18 46
M  V30 50 1 18 47
M  V30 51 1 23 48
M  V30 52 1 25 49
M  V30 53 1 26 50
M  V30 54 1 27 51
M  V30 55 1 28 52
M  V30 END BOND
M  V30 END CTAB
M  END
>  <NO.>
2428

>  <Name>
declenperone

>  <SMILES>
O=C(c1ccc(F)cc1)C1CCN(CCCn2c(=O)[nH]c3ccccc32)CC1

>  <logBB>


>  <Class>
1

>  <MW>
381.19

>  <nHBAcc>
3

>  <nHBDon>
1

>  <SLogP>
3.45

>  <TopoPSA>
58.1

>  <MMFF94 Energy>
14.755

$$$$
O=C(c1ccccn1)N1CCN(Cc2ccccc2)CC1
Actelion Java MolfileCreator 2.0

  0  0  0  0  0  0              0 V3000
M  V30 BEGIN CTAB
M  V30 COUNTS 40 42 0 0 0
M  V30 BEGIN ATOM
M  V30 1 O -1.1943 1.035 3.4268 0
M  V30 2 C -0.2083 0.4934 2.922 0
M  V30 3 N 0.2011 0.7691 1.6212 0
M  V30 4 C 0.5426 -0.4943 3.7606 0
M  V30 5 C -0.6951 1.4801 0.7131 0
M  V30 6 C 1.4591 0.3675 0.9911 0
M  V30 7 N 1.0509 -1.5981 3.1474 0
M  V30 8 C 0.614 -0.283 5.1343 0
M  V30 9 C -0.9488 0.6405 -0.5579 0
M  V30 10 C 1.1785 -0.4947 -0.252 0
M  V30 11 C 1.6693 -2.4999 3.9401 0
M  V30 12 C 1.2629 -1.2317 5.9189 0
M  V30 13 N 0.3085 0.2124 -1.2244 0
M  V30 14 C 1.8025 -2.3609 5.3128 0
M  V30 15 C 0.0329 -0.6596 -2.3786 0
M  V30 16 C -0.6372 0.0607 -3.5296 0
M  V30 17 C -1.8752 -0.3759 -4.0225 0
M  V30 18 C -0.0205 1.1673 -4.1329 0
M  V30 19 C -2.4842 0.2837 -5.0917 0
M  V30 20 C -0.6309 1.8257 -5.2012 0
M  V30 21 C -1.8624 1.3835 -5.6803 0
M  V30 22 H -1.6508 1.708 1.1955 0
M  V30 23 H -0.2173 2.432 0.4524 0
M  V30 24 H 1.973 1.29 0.6908 0
M  V30 25 H 2.1351 -0.139 1.6797 0
M  V30 26 H 0.166 0.5984 5.5823 0
M  V30 27 H -1.5433 -0.241 -0.2827 0
M  V30 28 H -1.5527 1.2473 -1.2417 0
M  V30 29 H 2.1369 -0.7342 -0.7273 0
M  V30 30 H 0.7128 -1.4392 0.0587 0
M  V30 31 H 2.0678 -3.3712 3.4276 0
M  V30 32 H 1.3369 -1.0947 6.9942 0
M  V30 33 H 2.3086 -3.1206 5.8987 0
M  V30 34 H 0.9765 -1.06 -2.7734 0
M  V30 35 H -0.5635 -1.5293 -2.0725 0
M  V30 36 H -2.375 -1.2313 -3.5744 0
M  V30 37 H 0.9376 1.5227 -3.7596 0
M  V30 38 H -3.4451 -0.0602 -5.4651 0
M  V30 39 H -0.1457 2.6847 -5.6565 0
M  V30 40 H -2.3381 1.897 -6.5114 0
M  V30 END ATOM
M  V30 BEGIN BOND
M  V30 1 2 1 2
M  V30 2 1 2 3
M  V30 3 1 2 4
M  V30 4 1 3 5
M  V30 5 1 3 6
M  V30 6 2 4 7
M  V30 7 1 4 8
M  V30 8 1 5 9
M  V30 9 1 6 10
M  V30 10 1 7 11
M  V30 11 2 8 12
M  V30 12 1 9 13
M  V30 13 2 11 14
M  V30 14 1 13 15
M  V30 15 1 15 16
M  V30 16 2 16 17
M  V30 17 1 16 18
M  V30 18 1 17 19
M  V30 19 2 18 20
M  V30 20 2 19 21
M  V30 21 1 10 13
M  V30 22 1 12 14
M  V30 23 1 20 21
M  V30 24 1 5 22
M  V30 25 1 5 23
M  V30 26 1 6 24
M  V30 27 1 6 25
M  V30 28 1 8 26
M  V30 29 1 9 27
M  V30 30 1 9 28
M  V30 31 1 10 29
M  V30 32 1 10 30
M  V30 33 1 11 31
M  V30 34 1 12 32
M  V30 35 1 14 33
M  V30 36 1 15 34
M  V30 37 1 15 35
M  V30 38 1 17 36
M  V30 39 1 18 37
M  V30 40 1 19 38
M  V30 41 1 20 39
M  V30 42 1 21 40
M  V30 END BOND
M  V30 END CTAB
M  END
>  <NO.>
2429

>  <Name>
piberaline

>  <SMILES>
O=C(c1ccccn1)N1CCN(Cc2ccccc2)CC1

>  <logBB>


>  <Class>
1

>  <MW>
281.15

>  <nHBAcc>
3

>  <nHBDon>
0

>  <SLogP>
2.04

>  <TopoPSA>
36.44

>  <MMFF94 Energy>
121.93

$$$$
O=C(c1ccccn1)c1cnn2c(-c3ccncc3)ccnc12
Actelion Java MolfileCreator 2.0

  0  0  0  0  0  0              0 V3000
M  V30 BEGIN CTAB
M  V30 COUNTS 34 37 0 0 0
M  V30 BEGIN ATOM
M  V30 1 O 1.3778 2.27 2.4323 0
M  V30 2 C 1.2009 2.1559 1.2191 0
M  V30 3 C 1.5637 3.32 0.3462 0
M  V30 4 C 0.6742 0.9342 0.6231 0
M  V30 5 N 1.2104 3.2791 -0.9652 0
M  V30 6 C 2.2247 4.4087 0.9125 0
M  V30 7 C -0.1059 -0.014 1.2667 0
M  V30 8 C 0.8367 0.4107 -0.6758 0
M  V30 9 C 1.5299 4.3508 -1.7239 0
M  V30 10 C 2.5428 5.4957 0.1022 0
M  V30 11 N -0.6088 -0.0678 2.5398 0
M  V30 12 N -0.36 -1.0322 0.3331 0
M  V30 13 N 0.2332 -0.7621 -0.8596 0
M  V30 14 C 2.1897 5.4686 -1.2414 0
M  V30 15 C -1.3152 -1.1123 2.8377 0
M  V30 16 C -1.14 -2.1543 0.6822 0
M  V30 17 C -1.6347 -2.2427 1.9314 0
M  V30 18 C -1.4098 -3.2489 -0.272 0
M  V30 19 C -2.7202 -3.6322 -0.5754 0
M  V30 20 C -0.3583 -3.9277 -0.8924 0
M  V30 21 C -2.9172 -4.6742 -1.4675 0
M  V30 22 C -0.6582 -4.9553 -1.7717 0
M  V30 23 N -1.915 -5.35 -2.0659 0
M  V30 24 H 2.4858 4.4155 1.967 0
M  V30 25 H 1.3896 0.8305 -1.5069 0
M  V30 26 H 1.2303 4.2868 -2.7669 0
M  V30 27 H 3.0576 6.3572 0.5194 0
M  V30 28 H 2.4204 6.3014 -1.8972 0
M  V30 29 H -1.7344 -1.196 3.8545 0
M  V30 30 H -2.2256 -3.0633 2.3137 0
M  V30 31 H -3.5774 -3.1283 -0.1419 0
M  V30 32 H 0.6777 -3.6622 -0.7079 0
M  V30 33 H -3.9185 -5.0011 -1.7339 0
M  V30 34 H 0.1306 -5.5037 -2.2785 0
M  V30 END ATOM
M  V30 BEGIN BOND
M  V30 1 2 1 2
M  V30 2 1 2 3
M  V30 3 1 2 4
M  V30 4 2 3 5
M  V30 5 1 3 6
M  V30 6 2 4 7
M  V30 7 1 4 8
M  V30 8 1 5 9
M  V30 9 2 6 10
M  V30 10 1 7 11
M  V30 11 1 7 12
M  V30 12 2 8 13
M  V30 13 2 9 14
M  V30 14 2 11 15
M  V30 15 1 12 16
M  V30 16 1 15 17
M  V30 17 1 16 18
M  V30 18 2 18 19
M  V30 19 1 18 20
M  V30 20 1 19 21
M  V30 21 2 20 22
M  V30 22 2 21 23
M  V30 23 1 10 14
M  V30 24 1 12 13
M  V30 25 2 16 17
M  V30 26 1 22 23
M  V30 27 1 6 24
M  V30 28 1 8 25
M  V30 29 1 9 26
M  V30 30 1 10 27
M  V30 31 1 14 28
M  V30 32 1 15 29
M  V30 33 1 17 30
M  V30 34 1 19 31
M  V30 35 1 20 32
M  V30 36 1 21 33
M  V30 37 1 22 34
M  V30 END BOND
M  V30 END CTAB
M  END
>  <NO.>
2430

>  <Name>
ocinaplon

>  <SMILES>
O=C(c1ccccn1)c1cnn2c(-c3ccncc3)ccnc12

>  <logBB>


>  <Class>
1

>  <MW>
301.1

>  <nHBAcc>
5

>  <nHBDon>
0

>  <SLogP>
2.42

>  <TopoPSA>
73.04

>  <MMFF94 Energy>
125.8

$$$$
O=C(c1cccnc1)N1CCOCC1
Actelion Java MolfileCreator 2.0

  0  0  0  0  0  0              0 V3000
M  V30 BEGIN CTAB
M  V30 COUNTS 26 27 0 0 0
M  V30 BEGIN ATOM
M  V30 1 O -1.9088 -1.4314 -0.3179 0
M  V30 2 C -1.0521 -0.5966 -0.0382 0
M  V30 3 N 0.1571 -0.9125 0.5642 0
M  V30 4 C -1.3435 0.8061 -0.3732 0
M  V30 5 C 0.3744 -2.2688 1.0737 0
M  V30 6 C 1.3227 -0.0284 0.7008 0
M  V30 7 C -1.3372 1.7905 0.6045 0
M  V30 8 C -1.7049 1.1587 -1.6725 0
M  V30 9 C 1.6673 -2.8618 0.5087 0
M  V30 10 C 2.5876 -0.7139 0.1661 0
M  V30 11 N -1.6079 3.0947 0.3557 0
M  V30 12 C -2.0015 2.4901 -1.953 0
M  V30 13 O 2.7854 -1.9981 0.7758 0
M  V30 14 C -1.9355 3.4123 -0.9178 0
M  V30 15 H -0.4733 -2.9237 0.8525 0
M  V30 16 H 0.4555 -2.1769 2.1634 0
M  V30 17 H 1.4331 0.1773 1.7716 0
M  V30 18 H 1.1791 0.9173 0.1744 0
M  V30 19 H -1.112 1.5577 1.6413 0
M  V30 20 H -1.761 0.4035 -2.452 0
M  V30 21 H 1.8735 -3.8283 0.9788 0
M  V30 22 H 1.5907 -3.0215 -0.5732 0
M  V30 23 H 2.533 -0.8427 -0.9214 0
M  V30 24 H 3.4663 -0.0998 0.3869 0
M  V30 25 H -2.2851 2.8007 -2.9528 0
M  V30 26 H -2.1589 4.4621 -1.0897 0
M  V30 END ATOM
M  V30 BEGIN BOND
M  V30 1 2 1 2
M  V30 2 1 2 3
M  V30 3 1 2 4
M  V30 4 1 3 5
M  V30 5 1 3 6
M  V30 6 2 4 7
M  V30 7 1 4 8
M  V30 8 1 5 9
M  V30 9 1 6 10
M  V30 10 1 7 11
M  V30 11 2 8 12
M  V30 12 1 9 13
M  V30 13 2 11 14
M  V30 14 1 10 13
M  V30 15 1 12 14
M  V30 16 1 5 15
M  V30 17 1 5 16
M  V30 18 1 6 17
M  V30 19 1 6 18
M  V30 20 1 7 19
M  V30 21 1 8 20
M  V30 22 1 9 21
M  V30 23 1 9 22
M  V30 24 1 10 23
M  V30 25 1 10 24
M  V30 26 1 12 25
M  V30 27 1 14 26
M  V30 END BOND
M  V30 END CTAB
M  END
>  <NO.>
2431

>  <Name>
nicopholine

>  <SMILES>
O=C(c1cccnc1)N1CCOCC1

>  <logBB>


>  <Class>
1

>  <MW>
192.09

>  <nHBAcc>
3

>  <nHBDon>
0

>  <SLogP>
0.55

>  <TopoPSA>
42.43

>  <MMFF94 Energy>
68.693

$$$$
O=C(c1ccco1)N(c1cnccn1)C1CCN(CCc2ccccc2)CC1
Actelion Java MolfileCreator 2.0

  0  0  0  0  0  0              0 V3000
M  V30 BEGIN CTAB
M  V30 COUNTS 52 55 0 0 0
M  V30 BEGIN ATOM
M  V30 1 O 0.3992 2.1574 -1.4378 0
M  V30 2 C 0.9739 1.4691 -2.2857 0
M  V30 3 N 0.9792 0.0689 -2.1794 0
M  V30 4 C 1.6533 2.1258 -3.3976 0
M  V30 5 C 1.3347 -0.7919 -3.2425 0
M  V30 6 C 0.5367 -0.6127 -0.9442 0
M  V30 7 O 2.6076 1.4796 -4.1364 0
M  V30 8 C 1.5427 3.4292 -3.8543 0
M  V30 9 N 2.3008 -1.7152 -3.0238 0
M  V30 10 C 0.634 -0.7572 -4.4509 0
M  V30 11 C 1.3739 -0.2194 0.2805 0
M  V30 12 C -0.9666 -0.4484 -0.6774 0
M  V30 13 C 3.0682 2.3522 -5.067 0
M  V30 14 C 2.444 3.5685 -4.936 0
M  V30 15 C 2.5658 -2.5477 -4.0576 0
M  V30 16 N 0.8874 -1.602 -5.4823 0
M  V30 17 C 0.8689 -0.9422 1.5295 0
M  V30 18 C -1.3638 -1.1452 0.6255 0
M  V30 19 C 1.8774 -2.4925 -5.2579 0
M  V30 20 N -0.5649 -0.7445 1.7912 0
M  V30 21 C -0.8473 0.6247 2.2701 0
M  V30 22 C -2.2255 0.8112 2.9358 0
M  V30 23 C -2.3452 0.1504 4.2895 0
M  V30 24 C -2.6534 -1.212 4.3934 0
M  V30 25 C -2.1372 0.8891 5.4627 0
M  V30 26 C -2.7594 -1.8222 5.6443 0
M  V30 27 C -2.2446 0.278 6.7135 0
M  V30 28 C -2.5568 -1.0769 6.804 0
M  V30 29 H 0.696 -1.6921 -1.0849 0
M  V30 30 H 0.8836 4.1816 -3.4416 0
M  V30 31 H -0.168 -0.0482 -4.6235 0
M  V30 32 H 1.3546 0.8621 0.4505 0
M  V30 33 H 2.4249 -0.4817 0.1073 0
M  V30 34 H -1.5355 -0.8824 -1.5091 0
M  V30 35 H -1.2584 0.605 -0.6318 0
M  V30 36 H 3.8276 1.9665 -5.7331 0
M  V30 37 H 2.624 4.448 -5.5383 0
M  V30 38 H 3.3545 -3.2725 -3.8914 0
M  V30 39 H 1.4614 -0.6363 2.4006 0
M  V30 40 H 1.0554 -2.0187 1.4201 0
M  V30 41 H -1.2505 -2.2295 0.4925 0
M  V30 42 H -2.4331 -0.9982 0.8088 0
M  V30 43 H 2.1035 -3.1702 -6.0732 0
M  V30 44 H -0.7589 1.3474 1.4507 0
M  V30 45 H -0.0877 0.9102 3.0104 0
M  V30 46 H -2.4001 1.8888 3.0588 0
M  V30 47 H -3.0401 0.4694 2.2877 0
M  V30 48 H -2.8011 -1.8075 3.4955 0
M  V30 49 H -1.8893 1.9465 5.4099 0
M  V30 50 H -2.995 -2.8807 5.7115 0
M  V30 51 H -2.0822 0.8595 7.6169 0
M  V30 52 H -2.6376 -1.5529 7.7773 0
M  V30 END ATOM
M  V30 BEGIN BOND
M  V30 1 2 1 2
M  V30 2 1 2 3
M  V30 3 1 2 4
M  V30 4 1 3 5
M  V30 5 1 3 6
M  V30 6 1 4 7
M  V30 7 2 4 8
M  V30 8 2 5 9
M  V30 9 1 5 10
M  V30 10 1 6 11
M  V30 11 1 6 12
M  V30 12 1 7 13
M  V30 13 1 8 14
M  V30 14 1 9 15
M  V30 15 2 10 16
M  V30 16 1 11 17
M  V30 17 1 12 18
M  V30 18 2 15 19
M  V30 19 1 17 20
M  V30 20 1 20 21
M  V30 21 1 21 22
M  V30 22 1 22 23
M  V30 23 2 23 24
M  V30 24 1 23 25
M  V30 25 1 24 26
M  V30 26 2 25 27
M  V30 27 2 26 28
M  V30 28 2 13 14
M  V30 29 1 16 19
M  V30 30 1 18 20
M  V30 31 1 27 28
M  V30 32 1 6 29
M  V30 33 1 8 30
M  V30 34 1 10 31
M  V30 35 1 11 32
M  V30 36 1 11 33
M  V30 37 1 12 34
M  V30 38 1 12 35
M  V30 39 1 13 36
M  V30 40 1 14 37
M  V30 41 1 15 38
M  V30 42 1 17 39
M  V30 43 1 17 40
M  V30 44 1 18 41
M  V30 45 1 18 42
M  V30 46 1 19 43
M  V30 47 1 21 44
M  V30 48 1 21 45
M  V30 49 1 22 46
M  V30 50 1 22 47
M  V30 51 1 24 48
M  V30 52 1 25 49
M  V30 53 1 26 50
M  V30 54 1 27 51
M  V30 55 1 28 52
M  V30 END BOND
M  V30 END CTAB
M  END
>  <NO.>
2432

>  <Name>
mirfentanil

>  <SMILES>
O=C(c1ccco1)N(c1cnccn1)C1CCN(CCc2ccccc2)CC1

>  <logBB>


>  <Class>
1

>  <MW>
376.19

>  <nHBAcc>
5

>  <nHBDon>
0

>  <SLogP>
3.42

>  <TopoPSA>
62.47

>  <MMFF94 Energy>
92.375

$$$$
O=C1C(O)N=C(c2ccccc2F)c2cc(Cl)ccc2N1CCO
Actelion Java MolfileCreator 2.0

  0  0  0  0  0  0              0 V3000
M  V30 BEGIN CTAB
M  V30 COUNTS 38 40 0 0 0
M  V30 BEGIN ATOM
M  V30 1 Cl -4.4824 0.0813 -1.7911 0
M  V30 2 C -3.1143 -0.1478 -0.7748 0
M  V30 3 C -1.9224 0.5091 -1.0616 0
M  V30 4 C -3.2061 -0.9805 0.3328 0
M  V30 5 C -0.7983 0.32 -0.2373 0
M  V30 6 C -2.0958 -1.1539 1.164 0
M  V30 7 C 0.4417 1.0705 -0.5908 0
M  V30 8 C -0.8781 -0.5081 0.8969 0
M  V30 9 N 1.1198 1.7853 0.2468 0
M  V30 10 C 0.9221 1.0395 -2.0055 0
M  V30 11 N 0.2201 -0.7074 1.7786 0
M  V30 12 C 0.7449 1.7629 1.6646 0 CFG=2
M  V30 13 C 0.8349 -0.1166 -2.7849 0
M  V30 14 C 1.5073 2.1894 -2.5525 0
M  V30 15 C 1.0497 0.3331 2.2065 0
M  V30 16 C 0.572 -2.0742 2.1861 0
M  V30 17 O -0.5325 2.292 1.945 0
M  V30 18 F 0.327 -1.2524 -2.2846 0
M  V30 19 C 1.2932 -0.1251 -4.1005 0
M  V30 20 C 1.9679 2.1828 -3.8718 0
M  V30 21 O 2.0132 0.1306 2.9555 0
M  V30 22 C 0.3487 -2.3584 3.6789 0
M  V30 23 C 1.8569 1.0275 -4.6465 0
M  V30 24 O -1.0254 -2.6267 3.9521 0
M  V30 25 H -1.8761 1.174 -1.9201 0
M  V30 26 H -4.1371 -1.49 0.5683 0
M  V30 27 H -2.2085 -1.7885 2.0387 0
M  V30 28 H 1.4517 2.4225 2.1823 0
M  V30 29 H 1.6081 3.0927 -1.9545 0
M  V30 30 H 1.6407 -2.1995 1.9711 0
M  V30 31 H 0.0314 -2.8013 1.5691 0
M  V30 32 H -0.6399 2.9915 1.2802 0
M  V30 33 H 1.2157 -1.0345 -4.6889 0
M  V30 34 H 2.4197 3.0787 -4.2922 0
M  V30 35 H 0.9128 -3.252 3.9648 0
M  V30 36 H 0.6694 -1.528 4.3139 0
M  V30 37 H 2.22 1.0231 -5.6717 0
M  V30 38 H -1.1081 -2.685 4.9203 0
M  V30 END ATOM
M  V30 BEGIN BOND
M  V30 1 1 1 2
M  V30 2 2 2 3
M  V30 3 1 2 4
M  V30 4 1 3 5
M  V30 5 2 4 6
M  V30 6 1 5 7
M  V30 7 2 5 8
M  V30 8 2 7 9
M  V30 9 1 7 10
M  V30 10 1 8 11
M  V30 11 1 9 12
M  V30 12 2 10 13
M  V30 13 1 10 14
M  V30 14 1 11 15
M  V30 15 1 11 16
M  V30 16 1 12 17
M  V30 17 1 13 18
M  V30 18 1 13 19
M  V30 19 2 14 20
M  V30 20 2 15 21
M  V30 21 1 16 22
M  V30 22 2 19 23
M  V30 23 1 22 24
M  V30 24 1 6 8
M  V30 25 1 12 15
M  V30 26 1 20 23
M  V30 27 1 3 25
M  V30 28 1 4 26
M  V30 29 1 6 27
M  V30 30 1 12 28
M  V30 31 1 14 29
M  V30 32 1 16 30
M  V30 33 1 16 31
M  V30 34 1 17 32
M  V30 35 1 19 33
M  V30 36 1 20 34
M  V30 37 1 22 35
M  V30 38 1 22 36
M  V30 39 1 23 37
M  V30 40 1 24 38
M  V30 END BOND
M  V30 BEGIN COLLECTION
M  V30 MDLV30/STERAC1 ATOMS=(1 12)
M  V30 END COLLECTION
M  V30 END CTAB
M  END
>  <NO.>
2433

>  <Name>
doxefazepam

>  <SMILES>
O=C1C(O)N=C(c2ccccc2F)c2cc(Cl)ccc2N1CCO

>  <logBB>


>  <Class>
1

>  <MW>
348.07

>  <nHBAcc>
4

>  <nHBDon>
2

>  <SLogP>
1.97

>  <TopoPSA>
73.13

>  <MMFF94 Energy>
120.8

$$$$
O=C1CC(c2cccc(Br)c2)C(=O)N1
Actelion Java MolfileCreator 2.0

  0  0  0  0  0  0              0 V3000
M  V30 BEGIN CTAB
M  V30 COUNTS 22 23 0 0 0
M  V30 BEGIN ATOM
M  V30 1 Br 3.2797 1.2289 -2.2129 0
M  V30 2 C 1.9635 1.4185 -0.8683 0
M  V30 3 C 1.0335 0.3972 -0.6631 0
M  V30 4 C 1.9309 2.5744 -0.0932 0
M  V30 5 C 0.0479 0.5242 0.3307 0
M  V30 6 C 0.961 2.7097 0.898 0
M  V30 7 C 0.027 1.6925 1.1093 0
M  V30 8 C -0.9784 -0.5618 0.5823 0 CFG=2
M  V30 9 C -0.3537 -1.8776 0.9918 0
M  V30 10 C -1.8102 -0.9215 -0.6532 0
M  V30 11 O 0.3196 -2.0813 1.9891 0
M  V30 12 N -0.6524 -2.8145 0.0568 0
M  V30 13 C -1.4512 -2.3509 -0.9333 0
M  V30 14 O -1.8375 -3.003 -1.8887 0
M  V30 15 H 1.0856 -0.4969 -1.2801 0
M  V30 16 H 2.6549 3.3696 -0.2493 0
M  V30 17 H 0.9339 3.6073 1.5113 0
M  V30 18 H -0.7151 1.8212 1.8956 0
M  V30 19 H -1.6576 -0.256 1.3884 0
M  V30 20 H -1.6029 -0.2998 -1.5289 0
M  V30 21 H -2.8811 -0.8733 -0.4275 0
M  V30 22 H -0.315 -3.7631 0.0988 0
M  V30 END ATOM
M  V30 BEGIN BOND
M  V30 1 1 1 2
M  V30 2 2 2 3
M  V30 3 1 2 4
M  V30 4 1 3 5
M  V30 5 2 4 6
M  V30 6 2 5 7
M  V30 7 1 5 8
M  V30 8 1 8 9
M  V30 9 1 8 10
M  V30 10 2 9 11
M  V30 11 1 9 12
M  V30 12 1 10 13
M  V30 13 2 13 14
M  V30 14 1 6 7
M  V30 15 1 12 13
M  V30 16 1 3 15
M  V30 17 1 4 16
M  V30 18 1 6 17
M  V30 19 1 7 18
M  V30 20 1 8 19
M  V30 21 1 10 20
M  V30 22 1 10 21
M  V30 23 1 12 22
M  V30 END BOND
M  V30 BEGIN COLLECTION
M  V30 MDLV30/STERAC1 ATOMS=(1 8)
M  V30 END COLLECTION
M  V30 END CTAB
M  END
>  <NO.>
2434

>  <Name>
brosuximide

>  <SMILES>
O=C1CC(c2cccc(Br)c2)C(=O)N1

>  <logBB>


>  <Class>
1

>  <MW>
252.97

>  <nHBAcc>
2

>  <nHBDon>
1

>  <SLogP>
1.58

>  <TopoPSA>
46.17

>  <MMFF94 Energy>
-19.877

$$$$
O=C1CC2(CCCC2)CC(=O)N1CCCCN1CCN(c2nsc3ccccc23)CC1
Actelion Java MolfileCreator 2.0

  0  0  0  0  0  0              0 V3000
M  V30 BEGIN CTAB
M  V30 COUNTS 63 67 0 0 0
M  V30 BEGIN ATOM
M  V30 1 S -2.827 -3.2314 -5.9032 0
M  V30 2 N -1.9683 -2.4 -4.7726 0
M  V30 3 C -3.4141 -4.4489 -4.8504 0
M  V30 4 C -2.1259 -2.9673 -3.5771 0
M  V30 5 C -2.9262 -4.1857 -3.5679 0
M  V30 6 C -4.2338 -5.5543 -5.1374 0
M  V30 7 N -1.555 -2.4674 -2.4373 0
M  V30 8 C -3.2568 -5.1109 -2.543 0
M  V30 9 C -4.5553 -6.4311 -4.0991 0
M  V30 10 C -0.323 -1.6687 -2.535 0
M  V30 11 C -2.4019 -2.0594 -1.3074 0
M  V30 12 C -4.0685 -6.2173 -2.8161 0
M  V30 13 C -0.644 -0.1564 -2.5858 0
M  V30 14 C -2.7017 -0.5421 -1.3784 0
M  V30 15 N -1.4743 0.2906 -1.4368 0
M  V30 16 C -1.836 1.7127 -1.539 0
M  V30 17 C -0.6501 2.679 -1.4041 0
M  V30 18 C 0.1319 2.4872 -0.1027 0
M  V30 19 C 1.2579 3.5172 0.0242 0
M  V30 20 N 2.0229 3.3155 1.2535 0
M  V30 21 C 1.5627 3.9565 2.4014 0
M  V30 22 C 3.1136 2.4511 1.1897 0
M  V30 23 O 0.5724 4.6889 2.4187 0
M  V30 24 C 2.3743 3.7624 3.6606 0
M  V30 25 O 3.4785 1.8953 0.1527 0
M  V30 26 C 3.8989 2.2443 2.4654 0
M  V30 27 C 3.0359 2.3923 3.7201 0
M  V30 28 C 3.8808 2.236 4.9946 0
M  V30 29 C 2.0267 1.2432 3.889 0
M  V30 30 C 4.0294 0.7298 5.1899 0
M  V30 31 C 2.8306 0.0922 4.4897 0
M  V30 32 H -4.6014 -5.7292 -6.144 0
M  V30 33 H -2.865 -4.9663 -1.5397 0
M  V30 34 H -5.184 -7.2954 -4.3014 0
M  V30 35 H 0.2954 -1.8758 -1.6521 0
M  V30 36 H 0.2798 -1.9578 -3.4045 0
M  V30 37 H -3.3515 -2.6041 -1.2788 0
M  V30 38 H -1.8776 -2.287 -0.3708 0
M  V30 39 H -4.3125 -6.9153 -2.0187 0
M  V30 40 H -1.1509 0.0778 -3.5306 0
M  V30 41 H 0.3121 0.3774 -2.5839 0
M  V30 42 H -3.2806 -0.2716 -0.4871 0
M  V30 43 H -3.3343 -0.3439 -2.2543 0
M  V30 44 H -2.5438 1.9571 -0.7359 0
M  V30 45 H -2.3553 1.9147 -2.4848 0
M  V30 46 H -1.041 3.7039 -1.44 0
M  V30 47 H 0.0235 2.5796 -2.2628 0
M  V30 48 H -0.5481 2.5743 0.7534 0
M  V30 49 H 0.5588 1.4781 -0.0632 0
M  V30 50 H 0.8374 4.5298 0.0173 0
M  V30 51 H 1.9274 3.4443 -0.8407 0
M  V30 52 H 3.126 4.5608 3.6937 0
M  V30 53 H 1.7079 3.9061 4.5199 0
M  V30 54 H 4.7112 2.9822 2.466 0
M  V30 55 H 4.363 1.2527 2.4153 0
M  V30 56 H 4.8535 2.7348 4.9303 0
M  V30 57 H 3.3528 2.6578 5.8597 0
M  V30 58 H 1.2357 1.5303 4.5939 0
M  V30 59 H 1.537 0.9441 2.957 0
M  V30 60 H 4.9605 0.3736 4.7348 0
M  V30 61 H 4.0657 0.4686 6.2524 0
M  V30 62 H 2.2212 -0.4955 5.1837 0
M  V30 63 H 3.1756 -0.5879 3.7028 0
M  V30 END ATOM
M  V30 BEGIN BOND
M  V30 1 1 1 2
M  V30 2 1 1 3
M  V30 3 2 2 4
M  V30 4 2 3 5
M  V30 5 1 3 6
M  V30 6 1 4 7
M  V30 7 1 5 8
M  V30 8 2 6 9
M  V30 9 1 7 10
M  V30 10 1 7 11
M  V30 11 2 8 12
M  V30 12 1 10 13
M  V30 13 1 11 14
M  V30 14 1 13 15
M  V30 15 1 15 16
M  V30 16 1 16 17
M  V30 17 1 17 18
M  V30 18 1 18 19
M  V30 19 1 19 20
M  V30 20 1 20 21
M  V30 21 1 20 22
M  V30 22 2 21 23
M  V30 23 1 21 24
M  V30 24 2 22 25
M  V30 25 1 22 26
M  V30 26 1 24 27
M  V30 27 1 27 28
M  V30 28 1 27 29
M  V30 29 1 28 30
M  V30 30 1 29 31
M  V30 31 1 4 5
M  V30 32 1 9 12
M  V30 33 1 14 15
M  V30 34 1 26 27
M  V30 35 1 30 31
M  V30 36 1 6 32
M  V30 37 1 8 33
M  V30 38 1 9 34
M  V30 39 1 10 35
M  V30 40 1 10 36
M  V30 41 1 11 37
M  V30 42 1 11 38
M  V30 43 1 12 39
M  V30 44 1 13 40
M  V30 45 1 13 41
M  V30 46 1 14 42
M  V30 47 1 14 43
M  V30 48 1 16 44
M  V30 49 1 16 45
M  V30 50 1 17 46
M  V30 51 1 17 47
M  V30 52 1 18 48
M  V30 53 1 18 49
M  V30 54 1 19 50
M  V30 55 1 19 51
M  V30 56 1 24 52
M  V30 57 1 24 53
M  V30 58 1 26 54
M  V30 59 1 26 55
M  V30 60 1 28 56
M  V30 61 1 28 57
M  V30 62 1 29 58
M  V30 63 1 29 59
M  V30 64 1 30 60
M  V30 65 1 30 61
M  V30 66 1 31 62
M  V30 67 1 31 63
M  V30 END BOND
M  V30 END CTAB
M  END
>  <NO.>
2435

>  <Name>
tiospirone

>  <SMILES>
O=C1CC2(CCCC2)CC(=O)N1CCCCN1CCN(c2nsc3ccccc23)CC1

>  <logBB>


>  <Class>
1

>  <MW>
440.22

>  <nHBAcc>
6

>  <nHBDon>
0

>  <SLogP>
3.91

>  <TopoPSA>
56.75

>  <MMFF94 Energy>
61.83

$$$$
O=C1CC2(CCCC2)CC(=O)N1CCNCC1COc2ccccc2O1
Actelion Java MolfileCreator 2.0

  0  0  0  0  0  0              0 V3000
M  V30 BEGIN CTAB
M  V30 COUNTS 52 55 0 0 0
M  V30 BEGIN ATOM
M  V30 1 O -3.5233 -0.1599 -0.5599 0
M  V30 2 C -2.7376 -1.0422 -0.9136 0
M  V30 3 N -2.4246 -2.151 -0.1303 0
M  V30 4 C -2.1154 -0.9851 -2.2888 0
M  V30 5 C -1.5482 -3.1725 -0.4811 0
M  V30 6 C -2.9838 -2.1939 1.2203 0
M  V30 7 C -0.747 -1.6522 -2.3405 0
M  V30 8 O -1.3134 -4.1384 0.2475 0
M  V30 9 C -0.9174 -3.093 -1.8529 0
M  V30 10 C -2.0031 -1.6277 2.2703 0
M  V30 11 C -0.1648 -1.614 -3.7627 0
M  V30 12 C 0.3298 -0.8812 -1.5572 0
M  V30 13 N -1.4819 -0.3112 1.888 0
M  V30 14 C 1.3376 -1.807 -3.5813 0
M  V30 15 C 1.6591 -1.3143 -2.1717 0
M  V30 16 C -0.6339 0.2764 2.9299 0
M  V30 17 C -0.0459 1.6337 2.4943 0 CFG=2
M  V30 18 O 0.8678 1.4193 1.4019 0
M  V30 19 C 0.6998 2.284 3.6592 0
M  V30 20 C 1.6297 2.5315 1.1556 0
M  V30 21 O 1.1661 3.5906 3.2998 0
M  V30 22 C 1.7638 3.5842 2.0658 0
M  V30 23 C 2.298 2.5764 -0.0661 0
M  V30 24 C 2.5295 4.7004 1.7341 0
M  V30 25 C 3.076 3.6881 -0.3932 0
M  V30 26 C 3.187 4.7519 0.5038 0
M  V30 27 H -2.8118 -1.4707 -2.9839 0
M  V30 28 H -2.0413 0.0687 -2.5838 0
M  V30 29 H -3.2283 -3.2303 1.4815 0
M  V30 30 H -3.9211 -1.6265 1.2561 0
M  V30 31 H -1.5628 -3.6585 -2.5369 0
M  V30 32 H 0.0449 -3.6153 -1.8087 0
M  V30 33 H -1.1627 -2.3223 2.3853 0
M  V30 34 H -2.5237 -1.5712 3.2335 0
M  V30 35 H -0.3459 -0.6353 -4.2257 0
M  V30 36 H -0.5946 -2.3734 -4.4243 0
M  V30 37 H 0.3123 -1.0691 -0.4796 0
M  V30 38 H 0.2058 0.1996 -1.7011 0
M  V30 39 H -2.2477 0.3179 1.6349 0
M  V30 40 H 1.6026 -2.8662 -3.6761 0
M  V30 41 H 1.9038 -1.2603 -4.3422 0
M  V30 42 H 2.376 -0.4871 -2.1858 0
M  V30 43 H 2.1083 -2.1242 -1.5857 0
M  V30 44 H 0.1898 -0.4142 3.1478 0
M  V30 45 H -1.2242 0.4111 3.844 0
M  V30 46 H -0.8505 2.2948 2.1423 0
M  V30 47 H 1.5626 1.6838 3.9757 0
M  V30 48 H 0.0375 2.4046 4.523 0
M  V30 49 H 2.2038 1.7515 -0.7657 0
M  V30 50 H 2.6224 5.5234 2.437 0
M  V30 51 H 3.5919 3.7265 -1.3491 0
M  V30 52 H 3.7894 5.6195 0.247 0
M  V30 END ATOM
M  V30 BEGIN BOND
M  V30 1 2 1 2
M  V30 2 1 2 3
M  V30 3 1 2 4
M  V30 4 1 3 5
M  V30 5 1 3 6
M  V30 6 1 4 7
M  V30 7 2 5 8
M  V30 8 1 5 9
M  V30 9 1 6 10
M  V30 10 1 7 11
M  V30 11 1 7 12
M  V30 12 1 10 13
M  V30 13 1 11 14
M  V30 14 1 12 15
M  V30 15 1 13 16
M  V30 16 1 16 17
M  V30 17 1 17 18
M  V30 18 1 17 19
M  V30 19 1 18 20
M  V30 20 1 19 21
M  V30 21 2 20 22
M  V30 22 1 20 23
M  V30 23 1 22 24
M  V30 24 2 23 25
M  V30 25 2 24 26
M  V30 26 1 7 9
M  V30 27 1 14 15
M  V30 28 1 21 22
M  V30 29 1 25 26
M  V30 30 1 4 27
M  V30 31 1 4 28
M  V30 32 1 6 29
M  V30 33 1 6 30
M  V30 34 1 9 31
M  V30 35 1 9 32
M  V30 36 1 10 33
M  V30 37 1 10 34
M  V30 38 1 11 35
M  V30 39 1 11 36
M  V30 40 1 12 37
M  V30 41 1 12 38
M  V30 42 1 13 39
M  V30 43 1 14 40
M  V30 44 1 14 41
M  V30 45 1 15 42
M  V30 46 1 15 43
M  V30 47 1 16 44
M  V30 48 1 16 45
M  V30 49 1 17 46
M  V30 50 1 19 47
M  V30 51 1 19 48
M  V30 52 1 23 49
M  V30 53 1 24 50
M  V30 54 1 25 51
M  V30 55 1 26 52
M  V30 END BOND
M  V30 BEGIN COLLECTION
M  V30 MDLV30/STERAC1 ATOMS=(1 17)
M  V30 END COLLECTION
M  V30 END CTAB
M  END
>  <NO.>
2436

>  <Name>
binospirone

>  <SMILES>
O=C1CC2(CCCC2)CC(=O)N1CCNCC1COc2ccccc2O1

>  <logBB>


>  <Class>
1

>  <MW>
358.19

>  <nHBAcc>
5

>  <nHBDon>
1

>  <SLogP>
2.13

>  <TopoPSA>
67.87

>  <MMFF94 Energy>
53.047

$$$$
O=C1CCC(=O)N1CC1CCC2CN(c3ncccn3)CCN2C1
Actelion Java MolfileCreator 2.0

  0  0  0  0  0  0              0 V3000
M  V30 BEGIN CTAB
M  V30 COUNTS 47 50 0 0 0
M  V30 BEGIN ATOM
M  V30 1 O 4.7261 1.5201 1.6001 0
M  V30 2 C 4.8221 1.7047 0.3961 0
M  V30 3 N 3.8348 2.1191 -0.4488 0
M  V30 4 C 6.0847 1.5054 -0.3875 0
M  V30 5 C 4.2628 2.2458 -1.7379 0
M  V30 6 C 2.4777 2.419 -0.0237 0
M  V30 7 C 5.7051 1.8437 -1.816 0
M  V30 8 O 3.6023 2.6231 -2.6939 0
M  V30 9 C 1.4947 1.2667 -0.3031 0
M  V30 10 C 0.058 1.7343 -0.0118 0
M  V30 11 C 1.821 0.0177 0.5274 0
M  V30 12 N -0.9165 0.6636 -0.2588 0
M  V30 13 C 0.7575 -1.0592 0.3321 0
M  V30 14 C -0.655 -0.5181 0.6021 0
M  V30 15 C -2.2909 1.1485 -0.001 0
M  V30 16 C -1.6923 -1.6568 0.3887 0
M  V30 17 C -3.3726 0.0737 -0.2399 0
M  V30 18 N -3.0638 -1.1568 0.4846 0
M  V30 19 C -4.0758 -2.0878 0.6233 0
M  V30 20 N -3.7603 -3.3431 0.9901 0
M  V30 21 N -5.3466 -1.7064 0.4004 0
M  V30 22 C -4.763 -4.2303 1.1318 0
M  V30 23 C -6.318 -2.6261 0.5536 0
M  V30 24 C -6.0814 -3.9233 0.9232 0
M  V30 25 H 6.4206 0.4685 -0.2958 0
M  V30 26 H 6.8632 2.1751 -0.0104 0
M  V30 27 H 2.4825 2.6629 1.0452 0
M  V30 28 H 2.1527 3.3131 -0.5695 0
M  V30 29 H 5.8116 0.9772 -2.4752 0
M  V30 30 H 6.3032 2.6728 -2.2049 0
M  V30 31 H 1.5617 0.9973 -1.3665 0
M  V30 32 H -0.1699 2.5847 -0.6671 0
M  V30 33 H -0.0156 2.0955 1.0232 0
M  V30 34 H 2.7967 -0.3908 0.2421 0
M  V30 35 H 1.8796 0.2792 1.5916 0
M  V30 36 H 0.8223 -1.4464 -0.6932 0
M  V30 37 H 0.9713 -1.9003 1.0026 0
M  V30 38 H -0.7144 -0.2086 1.6565 0
M  V30 39 H -2.3743 1.5081 1.0338 0
M  V30 40 H -2.5084 1.9995 -0.6581 0
M  V30 41 H -1.4953 -2.4225 1.1499 0
M  V30 42 H -1.5459 -2.1189 -0.5966 0
M  V30 43 H -3.4449 -0.1411 -1.3139 0
M  V30 44 H -4.3293 0.5034 0.0821 0
M  V30 45 H -4.457 -5.2284 1.4295 0
M  V30 46 H -7.3254 -2.269 0.3628 0
M  V30 47 H -6.8732 -4.6478 1.0422 0
M  V30 END ATOM
M  V30 BEGIN BOND
M  V30 1 2 1 2
M  V30 2 1 2 3
M  V30 3 1 2 4
M  V30 4 1 3 5
M  V30 5 1 3 6
M  V30 6 1 4 7
M  V30 7 2 5 8
M  V30 8 1 6 9
M  V30 9 1 9 10
M  V30 10 1 9 11
M  V30 11 1 10 12
M  V30 12 1 11 13
M  V30 13 1 12 14
M  V30 14 1 12 15
M  V30 15 1 14 16
M  V30 16 1 15 17
M  V30 17 1 16 18
M  V30 18 1 18 19
M  V30 19 2 19 20
M  V30 20 1 19 21
M  V30 21 1 20 22
M  V30 22 2 21 23
M  V30 23 2 22 24
M  V30 24 1 5 7
M  V30 25 1 13 14
M  V30 26 1 17 18
M  V30 27 1 23 24
M  V30 28 1 4 25
M  V30 29 1 4 26
M  V30 30 1 6 27
M  V30 31 1 6 28
M  V30 32 1 7 29
M  V30 33 1 7 30
M  V30 34 1 9 31
M  V30 35 1 10 32
M  V30 36 1 10 33
M  V30 37 1 11 34
M  V30 38 1 11 35
M  V30 39 1 13 36
M  V30 40 1 13 37
M  V30 41 1 14 38
M  V30 42 1 15 39
M  V30 43 1 15 40
M  V30 44 1 16 41
M  V30 45 1 16 42
M  V30 46 1 17 43
M  V30 47 1 17 44
M  V30 48 1 22 45
M  V30 49 1 23 46
M  V30 50 1 24 47
M  V30 END BOND
M  V30 END CTAB
M  END
>  <NO.>
2437

>  <Name>
sunepitron

>  <SMILES>
O=C1CCC(=O)N1CC1CCC2CN(c3ncccn3)CCN2C1

>  <logBB>


>  <Class>
1

>  <MW>
329.19

>  <nHBAcc>
6

>  <nHBDon>
0

>  <SLogP>
0.53

>  <TopoPSA>
69.64

>  <MMFF94 Energy>
-46.835

$$$$
O=C1CCC(C(=O)NC2CC2c2ccccc2)N1
Actelion Java MolfileCreator 2.0

  0  0  0  0  0  0              0 V3000
M  V30 BEGIN CTAB
M  V30 COUNTS 34 36 0 0 0
M  V30 BEGIN ATOM
M  V30 1 O 1.4345 -2.5514 2.3918 0
M  V30 2 C 1.4992 -1.3641 2.1322 0
M  V30 3 N 2.5537 -0.759 1.4853 0
M  V30 4 C 0.4415 -0.324 2.3843 0
M  V30 5 C 2.327 0.6448 1.2332 0
M  V30 6 C 1.2024 0.9886 2.2028 0
M  V30 7 C 1.9256 0.9683 -0.2181 0
M  V30 8 O 1.89 2.1241 -0.6359 0
M  V30 9 N 1.5292 -0.1249 -0.9608 0
M  V30 10 C 1.029 -0.0175 -2.2944 0
M  V30 11 C -0.4489 0.1047 -2.6068 0
M  V30 12 C 0.2915 -1.1735 -2.9076 0
M  V30 13 C -1.4695 0.2024 -1.4952 0
M  V30 14 C -1.5853 1.3844 -0.742 0
M  V30 15 C -2.3108 -0.8657 -1.1439 0
M  V30 16 C -2.5044 1.5015 0.3038 0
M  V30 17 C -3.231 -0.7569 -0.0967 0
M  V30 18 C -3.3282 0.4282 0.6263 0
M  V30 19 H 3.3797 -1.2803 1.2169 0
M  V30 20 H 0.027 -0.4191 3.3905 0
M  V30 21 H -0.3481 -0.4403 1.6383 0
M  V30 22 H 3.2471 1.1928 1.4595 0
M  V30 23 H 0.5504 1.7989 1.8631 0
M  V30 24 H 1.6311 1.2878 3.1678 0
M  V30 25 H 1.562 -1.0379 -0.5201 0
M  V30 26 H 1.7021 0.5339 -2.9484 0
M  V30 27 H -0.6852 0.7208 -3.474 0
M  V30 28 H 0.4917 -1.4043 -3.948 0
M  V30 29 H 0.1109 -2.0495 -2.2968 0
M  V30 30 H -0.9425 2.2316 -0.9788 0
M  V30 31 H -2.2601 -1.799 -1.6997 0
M  V30 32 H -2.5733 2.4312 0.8621 0
M  V30 33 H -3.8728 -1.5987 0.1496 0
M  V30 34 H -4.0457 0.5149 1.4378 0
M  V30 END ATOM
M  V30 BEGIN BOND
M  V30 1 2 1 2
M  V30 2 1 2 3
M  V30 3 1 2 4
M  V30 4 1 3 5
M  V30 5 1 4 6
M  V30 6 1 5 7
M  V30 7 2 7 8
M  V30 8 1 7 9
M  V30 9 1 9 10
M  V30 10 1 10 11
M  V30 11 1 10 12
M  V30 12 1 11 13
M  V30 13 2 13 14
M  V30 14 1 13 15
M  V30 15 1 14 16
M  V30 16 2 15 17
M  V30 17 2 16 18
M  V30 18 1 5 6
M  V30 19 1 11 12
M  V30 20 1 17 18
M  V30 21 1 3 19
M  V30 22 1 4 20
M  V30 23 1 4 21
M  V30 24 1 5 22
M  V30 25 1 6 23
M  V30 26 1 6 24
M  V30 27 1 9 25
M  V30 28 1 10 26
M  V30 29 1 11 27
M  V30 30 1 12 28
M  V30 31 1 12 29
M  V30 32 1 14 30
M  V30 33 1 15 31
M  V30 34 1 16 32
M  V30 35 1 17 33
M  V30 36 1 18 34
M  V30 END BOND
M  V30 END CTAB
M  END
>  <NO.>
2438

>  <Name>
rolicyprine

>  <SMILES>
O=C1CCC(C(=O)NC2CC2c2ccccc2)N1

>  <logBB>


>  <Class>
1

>  <MW>
244.12

>  <nHBAcc>
2

>  <nHBDon>
2

>  <SLogP>
0.94

>  <TopoPSA>
58.2

>  <MMFF94 Energy>
8.3192

$$$$
O=C1CCC(c2ccccc2)(C2CCN(C/C=C/c3ccccc3)CC2)C(=O)N1
Actelion Java MolfileCreator 2.0

  0  0  0  0  0  0              0 V3000
M  V30 BEGIN CTAB
M  V30 COUNTS 57 60 0 0 0
M  V30 BEGIN ATOM
M  V30 1 O -0.7985 -1.7574 2.397 0
M  V30 2 C -1.9941 -1.8162 2.1175 0
M  V30 3 N -2.8567 -2.3604 3.0446 0
M  V30 4 C -2.5973 -1.3967 0.7512 0 CFG=2
M  V30 5 C -4.2164 -2.5161 2.97 0
M  V30 6 C -2.6579 -2.5906 -0.2395 0
M  V30 7 C -1.7801 -0.2185 0.0785 0
M  V30 8 C -4.0425 -0.9047 1.0764 0
M  V30 9 O -4.8403 -3.077 3.8665 0
M  V30 10 C -4.8855 -1.9962 1.7266 0
M  V30 11 C -3.4039 -2.4948 -1.4316 0
M  V30 12 C -1.9505 -3.7853 -0.0118 0
M  V30 13 C -1.633 1.0395 0.9596 0
M  V30 14 C -0.381 -0.6171 -0.4416 0
M  V30 15 C -3.4665 -3.5575 -2.3363 0
M  V30 16 C -2.0144 -4.8472 -0.9186 0
M  V30 17 C -0.8673 2.1538 0.2389 0
M  V30 18 C 0.335 0.5596 -1.1121 0
M  V30 19 C -2.7756 -4.7357 -2.077 0
M  V30 20 N 0.4583 1.7063 -0.2017 0
M  V30 21 C 1.1903 2.8227 -0.8197 0
M  V30 22 C 2.669 2.5645 -0.8964 0
M  V30 23 C 3.595 3.3116 -0.2721 0
M  V30 24 C 5.0398 3.0644 -0.3605 0
M  V30 25 C 5.5764 1.7715 -0.309 0
M  V30 26 C 5.9135 4.1558 -0.4425 0
M  V30 27 C 6.9581 1.573 -0.3659 0
M  V30 28 C 7.2953 3.9574 -0.5005 0
M  V30 29 C 7.8167 2.6659 -0.4647 0
M  V30 30 H -2.4254 -2.6874 3.898 0
M  V30 31 H -2.3526 0.0979 -0.8067 0
M  V30 32 H -4.5563 -0.5296 0.1845 0
M  V30 33 H -4.0035 -0.0651 1.7818 0
M  V30 34 H -5.8583 -1.5795 2.0108 0
M  V30 35 H -5.0682 -2.837 1.0509 0
M  V30 36 H -3.9444 -1.585 -1.682 0
M  V30 37 H -1.3181 -3.9166 0.8639 0
M  V30 38 H -2.6144 1.4386 1.2334 0
M  V30 39 H -1.1135 0.7973 1.8939 0
M  V30 40 H -0.4566 -1.4238 -1.1783 0
M  V30 41 H 0.2487 -0.9895 0.3726 0
M  V30 42 H -4.0517 -3.4616 -3.2474 0
M  V30 43 H -1.4593 -5.761 -0.7203 0
M  V30 44 H -1.4595 2.5169 -0.6115 0
M  V30 45 H -0.7638 2.9907 0.9409 0
M  V30 46 H -0.2041 0.843 -2.0257 0
M  V30 47 H 1.3239 0.203 -1.4202 0
M  V30 48 H -2.821 -5.5621 -2.7811 0
M  V30 49 H 1.0326 3.7356 -0.2299 0
M  V30 50 H 0.8056 3.0383 -1.8248 0
M  V30 51 H 2.9823 1.7364 -1.5252 0
M  V30 52 H 3.2962 4.1617 0.3362 0
M  V30 53 H 4.9234 0.9074 -0.2102 0
M  V30 54 H 5.5243 5.1708 -0.4701 0
M  V30 55 H 7.3618 0.5649 -0.3259 0
M  V30 56 H 7.9632 4.8117 -0.5712 0
M  V30 57 H 8.8914 2.5112 -0.5073 0
M  V30 END ATOM
M  V30 BEGIN BOND
M  V30 1 2 1 2
M  V30 2 1 2 3
M  V30 3 1 2 4
M  V30 4 1 3 5
M  V30 5 1 4 6
M  V30 6 1 4 7
M  V30 7 1 4 8
M  V30 8 2 5 9
M  V30 9 1 5 10
M  V30 10 2 6 11
M  V30 11 1 6 12
M  V30 12 1 7 13
M  V30 13 1 7 14
M  V30 14 1 11 15
M  V30 15 2 12 16
M  V30 16 1 13 17
M  V30 17 1 14 18
M  V30 18 2 15 19
M  V30 19 1 17 20
M  V30 20 1 20 21
M  V30 21 1 21 22
M  V30 22 2 22 23
M  V30 23 1 23 24
M  V30 24 2 24 25
M  V30 25 1 24 26
M  V30 26 1 25 27
M  V30 27 2 26 28
M  V30 28 2 27 29
M  V30 29 1 8 10
M  V30 30 1 16 19
M  V30 31 1 18 20
M  V30 32 1 28 29
M  V30 33 1 3 30
M  V30 34 1 7 31
M  V30 35 1 8 32
M  V30 36 1 8 33
M  V30 37 1 10 34
M  V30 38 1 10 35
M  V30 39 1 11 36
M  V30 40 1 12 37
M  V30 41 1 13 38
M  V30 42 1 13 39
M  V30 43 1 14 40
M  V30 44 1 14 41
M  V30 45 1 15 42
M  V30 46 1 16 43
M  V30 47 1 17 44
M  V30 48 1 17 45
M  V30 49 1 18 46
M  V30 50 1 18 47
M  V30 51 1 19 48
M  V30 52 1 21 49
M  V30 53 1 21 50
M  V30 54 1 22 51
M  V30 55 1 23 52
M  V30 56 1 25 53
M  V30 57 1 26 54
M  V30 58 1 27 55
M  V30 59 1 28 56
M  V30 60 1 29 57
M  V30 END BOND
M  V30 BEGIN COLLECTION
M  V30 MDLV30/STERAC1 ATOMS=(1 4)
M  V30 END COLLECTION
M  V30 END CTAB
M  END
>  <NO.>
2440

>  <Name>
cinperene

>  <SMILES>
O=C1CCC(c2ccccc2)(C2CCN(C/C=C/c3ccccc3)CC2)C(=O)N1

>  <logBB>


>  <Class>
1

>  <MW>
388.22

>  <nHBAcc>
3

>  <nHBDon>
1

>  <SLogP>
3.79

>  <TopoPSA>
49.41

>  <MMFF94 Energy>
24.088

$$$$
O=C1CCC2(CCC(=O)c3ccccc32)C(=O)N1
Actelion Java MolfileCreator 2.0

  0  0  0  0  0  0              0 V3000
M  V30 BEGIN CTAB
M  V30 COUNTS 31 33 0 0 0
M  V30 BEGIN ATOM
M  V30 1 O -2.265 -1.2938 -1.0511 0
M  V30 2 C -1.961 -0.5794 -0.0975 0
M  V30 3 N -2.8985 -0.3181 0.8751 0
M  V30 4 C -0.5961 0.1213 0.0423 0 CFG=2
M  V30 5 C -2.7883 0.4759 1.9876 0
M  V30 6 C 0.572 -0.7199 -0.4849 0
M  V30 7 C -0.3319 0.3963 1.5404 0
M  V30 8 C -0.7145 1.4032 -0.8132 0
M  V30 9 O -3.7434 0.6472 2.7391 0
M  V30 10 C -1.4661 1.1665 2.1971 0
M  V30 11 C 1.6683 -0.1167 -1.1332 0
M  V30 12 C 0.609 -2.1135 -0.2838 0
M  V30 13 C 0.577 2.1988 -0.8634 0
M  V30 14 C 1.737 1.3572 -1.3322 0
M  V30 15 C 2.7453 -0.8927 -1.5864 0
M  V30 16 C 1.6839 -2.8803 -0.7393 0
M  V30 17 O 2.7389 1.8759 -1.8179 0
M  V30 18 C 2.7499 -2.2717 -1.3926 0
M  V30 19 H -3.7968 -0.7646 0.7452 0
M  V30 20 H 0.6092 0.9388 1.6891 0
M  V30 21 H -0.2154 -0.5579 2.0744 0
M  V30 22 H -1.5266 2.0491 -0.4589 0
M  V30 23 H -0.9912 1.1281 -1.842 0
M  V30 24 H -1.2817 1.2344 3.2751 0
M  V30 25 H -1.5394 2.1865 1.8078 0
M  V30 26 H -0.2058 -2.6288 0.2219 0
M  V30 27 H 0.4527 3.0277 -1.5696 0
M  V30 28 H 0.8266 2.6239 0.1137 0
M  V30 29 H 3.5886 -0.4225 -2.0893 0
M  V30 30 H 1.6855 -3.957 -0.5854 0
M  V30 31 H 3.5861 -2.8683 -1.7484 0
M  V30 END ATOM
M  V30 BEGIN BOND
M  V30 1 2 1 2
M  V30 2 1 2 3
M  V30 3 1 2 4
M  V30 4 1 3 5
M  V30 5 1 4 6
M  V30 6 1 4 7
M  V30 7 1 4 8
M  V30 8 2 5 9
M  V30 9 1 5 10
M  V30 10 2 6 11
M  V30 11 1 6 12
M  V30 12 1 8 13
M  V30 13 1 11 14
M  V30 14 1 11 15
M  V30 15 2 12 16
M  V30 16 2 14 17
M  V30 17 2 15 18
M  V30 18 1 7 10
M  V30 19 1 13 14
M  V30 20 1 16 18
M  V30 21 1 3 19
M  V30 22 1 7 20
M  V30 23 1 7 21
M  V30 24 1 8 22
M  V30 25 1 8 23
M  V30 26 1 10 24
M  V30 27 1 10 25
M  V30 28 1 12 26
M  V30 29 1 13 27
M  V30 30 1 13 28
M  V30 31 1 15 29
M  V30 32 1 16 30
M  V30 33 1 18 31
M  V30 END BOND
M  V30 BEGIN COLLECTION
M  V30 MDLV30/STERAC1 ATOMS=(1 4)
M  V30 END COLLECTION
M  V30 END CTAB
M  END
>  <NO.>
2441

>  <Name>
alonimid

>  <SMILES>
O=C1CCC2(CCC(=O)c3ccccc32)C(=O)N1

>  <logBB>


>  <Class>
1

>  <MW>
243.09

>  <nHBAcc>
3

>  <nHBDon>
1

>  <SLogP>
1.34

>  <TopoPSA>
63.24

>  <MMFF94 Energy>
13.498

$$$$
O=C1CCC2CCC(=O)N12
Actelion Java MolfileCreator 2.0

  0  0  0  0  0  0              0 V3000
M  V30 BEGIN CTAB
M  V30 COUNTS 19 20 0 0 0
M  V30 BEGIN ATOM
M  V30 1 O -2.1647 -2.0844 0.1602 0
M  V30 2 C -1.3282 -1.2516 0.4582 0
M  V30 3 N -0.7531 -0.2615 -0.3409 0
M  V30 4 C -0.7457 -1.0571 1.8453 0
M  V30 5 C -0.6747 -0.0832 -1.7236 0
M  V30 6 C 0.127 0.5984 0.3831 0
M  V30 7 C 0.5221 -0.2376 1.5811 0
M  V30 8 O -1.3377 -0.6059 -2.6006 0
M  V30 9 C 0.3903 0.9736 -1.9471 0
M  V30 10 C 1.1869 0.9506 -0.6379 0
M  V30 11 H -1.4636 -0.5006 2.4562 0
M  V30 12 H -0.5162 -2.0179 2.3122 0
M  V30 13 H -0.4458 1.4844 0.686 0
M  V30 14 H 1.3501 -0.9148 1.3375 0
M  V30 15 H 0.8212 0.3666 2.4422 0
M  V30 16 H 1.017 0.7227 -2.8061 0
M  V30 17 H -0.0977 1.9408 -2.1032 0
M  V30 18 H 1.9587 0.1729 -0.6939 0
M  V30 19 H 1.6809 1.9034 -0.4276 0
M  V30 END ATOM
M  V30 BEGIN BOND
M  V30 1 2 1 2
M  V30 2 1 2 3
M  V30 3 1 2 4
M  V30 4 1 3 5
M  V30 5 1 3 6
M  V30 6 1 4 7
M  V30 7 2 5 8
M  V30 8 1 5 9
M  V30 9 1 6 10
M  V30 10 1 6 7
M  V30 11 1 9 10
M  V30 12 1 4 11
M  V30 13 1 4 12
M  V30 14 1 6 13
M  V30 15 1 7 14
M  V30 16 1 7 15
M  V30 17 1 9 16
M  V30 18 1 9 17
M  V30 19 1 10 18
M  V30 20 1 10 19
M  V30 END BOND
M  V30 END CTAB
M  END
>  <NO.>
2442

>  <Name>
rolziracetam

>  <SMILES>
O=C1CCC2CCC(=O)N12

>  <logBB>


>  <Class>
1

>  <MW>
139.06

>  <nHBAcc>
2

>  <nHBDon>
0

>  <SLogP>
0.3

>  <TopoPSA>
37.38

>  <MMFF94 Energy>
-19.88

$$$$
O=C1CCN=C2CC(c3ccccc3)CN12
Actelion Java MolfileCreator 2.0

  0  0  0  0  0  0              0 V3000
M  V30 BEGIN CTAB
M  V30 COUNTS 30 32 0 0 0
M  V30 BEGIN ATOM
M  V30 1 O -2.4819 0.0 2.8827 0
M  V30 2 C -2.5888 -0.349 1.7104 0
M  V30 3 N -1.6169 -0.1545 0.7632 0
M  V30 4 C -3.7622 -1.1468 1.2044 0
M  V30 5 C -1.7606 -0.5224 -0.5555 0
M  V30 6 C -0.2977 0.3594 1.0357 0
M  V30 7 C -4.0433 -0.8074 -0.2471 0
M  V30 8 N -2.8513 -0.9174 -1.1019 0
M  V30 9 C -0.4386 -0.4023 -1.2499 0
M  V30 10 C 0.2846 0.6181 -0.3566 0 CFG=2
M  V30 11 C 1.7904 0.561 -0.428 0
M  V30 12 C 2.5116 1.7 -0.8172 0
M  V30 13 C 2.5033 -0.6052 -0.1099 0
M  V30 14 C 3.906 1.6734 -0.8866 0
M  V30 15 C 3.8978 -0.6303 -0.1797 0
M  V30 16 C 4.5988 0.5085 -0.5677 0
M  V30 17 H -4.6406 -0.9298 1.8205 0
M  V30 18 H -3.5151 -2.2092 1.3111 0
M  V30 19 H -0.3571 1.2671 1.6458 0
M  V30 20 H 0.2459 -0.3993 1.6093 0
M  V30 21 H -4.8104 -1.4875 -0.6333 0
M  V30 22 H -4.4446 0.2099 -0.3341 0
M  V30 23 H -0.5578 -0.0458 -2.2769 0
M  V30 24 H 0.0368 -1.3881 -1.2671 0
M  V30 25 H -0.0535 1.6168 -0.6717 0
M  V30 26 H 1.9944 2.623 -1.0723 0
M  V30 27 H 1.9838 -1.5108 0.196 0
M  V30 28 H 4.4514 2.5633 -1.1904 0
M  V30 29 H 4.4376 -1.5406 0.0688 0
M  V30 30 H 5.6841 0.4881 -0.6221 0
M  V30 END ATOM
M  V30 BEGIN BOND
M  V30 1 2 1 2
M  V30 2 1 2 3
M  V30 3 1 2 4
M  V30 4 1 3 5
M  V30 5 1 3 6
M  V30 6 1 4 7
M  V30 7 2 5 8
M  V30 8 1 5 9
M  V30 9 1 6 10
M  V30 10 1 10 11
M  V30 11 2 11 12
M  V30 12 1 11 13
M  V30 13 1 12 14
M  V30 14 2 13 15
M  V30 15 2 14 16
M  V30 16 1 7 8
M  V30 17 1 9 10
M  V30 18 1 15 16
M  V30 19 1 4 17
M  V30 20 1 4 18
M  V30 21 1 6 19
M  V30 22 1 6 20
M  V30 23 1 7 21
M  V30 24 1 7 22
M  V30 25 1 9 23
M  V30 26 1 9 24
M  V30 27 1 10 25
M  V30 28 1 12 26
M  V30 29 1 13 27
M  V30 30 1 14 28
M  V30 31 1 15 29
M  V30 32 1 16 30
M  V30 END BOND
M  V30 BEGIN COLLECTION
M  V30 MDLV30/STERAC1 ATOMS=(1 10)
M  V30 END COLLECTION
M  V30 END CTAB
M  END
>  <NO.>
2443

>  <Name>
rofelodine

>  <SMILES>
O=C1CCN=C2CC(c3ccccc3)CN12

>  <logBB>


>  <Class>
1

>  <MW>
214.11

>  <nHBAcc>
2

>  <nHBDon>
0

>  <SLogP>
1.8

>  <TopoPSA>
32.67

>  <MMFF94 Energy>
-10.399

$$$$
O=C1CCNc2ccc(Cl)cc2N1c1ccccc1
Actelion Java MolfileCreator 2.0

  0  0  0  0  0  0              0 V3000
M  V30 BEGIN CTAB
M  V30 COUNTS 32 34 0 0 0
M  V30 BEGIN ATOM
M  V30 1 Cl 2.2643 -0.4848 -3.965 0
M  V30 2 C 1.4434 0.4325 -2.7641 0
M  V30 3 C 0.6931 -0.2135 -1.7865 0
M  V30 4 C 1.5312 1.8136 -2.771 0
M  V30 5 C 0.0134 0.5119 -0.7794 0
M  V30 6 C 0.846 2.5458 -1.8008 0
M  V30 7 N -0.6745 -0.2474 0.2287 0
M  V30 8 C 0.0706 1.9268 -0.7959 0
M  V30 9 C -1.9553 0.0218 0.7068 0
M  V30 10 C 0.0491 -1.3531 0.7728 0
M  V30 11 N -0.6277 2.7841 0.0358 0
M  V30 12 O -2.5834 -0.7145 1.4745 0
M  V30 13 C -2.5787 1.3224 0.2908 0
M  V30 14 C -0.4754 -2.65 0.7078 0
M  V30 15 C 1.2999 -1.1472 1.3727 0
M  V30 16 C -1.7273 2.4149 0.9004 0
M  V30 17 C 0.2455 -3.7272 1.2265 0
M  V30 18 C 2.0188 -2.2267 1.8894 0
M  V30 19 C 1.4921 -3.5154 1.8143 0
M  V30 20 H 0.64 -1.3 -1.8086 0
M  V30 21 H 2.1126 2.3303 -3.5294 0
M  V30 22 H 0.9051 3.632 -1.8453 0
M  V30 23 H -0.3476 3.7589 0.0554 0
M  V30 24 H -3.5892 1.3617 0.7146 0
M  V30 25 H -2.6767 1.3829 -0.7976 0
M  V30 26 H -1.4492 -2.8277 0.2583 0
M  V30 27 H 1.7171 -0.1461 1.4467 0
M  V30 28 H -1.3372 2.1354 1.8868 0
M  V30 29 H -2.3458 3.3076 1.0484 0
M  V30 30 H -0.1698 -4.7303 1.1768 0
M  V30 31 H 2.9872 -2.0612 2.3543 0
M  V30 32 H 2.0502 -4.3552 2.2205 0
M  V30 END ATOM
M  V30 BEGIN BOND
M  V30 1 1 1 2
M  V30 2 2 2 3
M  V30 3 1 2 4
M  V30 4 1 3 5
M  V30 5 2 4 6
M  V30 6 1 5 7
M  V30 7 2 5 8
M  V30 8 1 7 9
M  V30 9 1 7 10
M  V30 10 1 8 11
M  V30 11 2 9 12
M  V30 12 1 9 13
M  V30 13 2 10 14
M  V30 14 1 10 15
M  V30 15 1 11 16
M  V30 16 1 14 17
M  V30 17 2 15 18
M  V30 18 2 17 19
M  V30 19 1 6 8
M  V30 20 1 13 16
M  V30 21 1 18 19
M  V30 22 1 3 20
M  V30 23 1 4 21
M  V30 24 1 6 22
M  V30 25 1 11 23
M  V30 26 1 13 24
M  V30 27 1 13 25
M  V30 28 1 14 26
M  V30 29 1 15 27
M  V30 30 1 16 28
M  V30 31 1 16 29
M  V30 32 1 17 30
M  V30 33 1 18 31
M  V30 34 1 19 32
M  V30 END BOND
M  V30 END CTAB
M  END
>  <NO.>
2444

>  <Name>
lofendazam

>  <SMILES>
O=C1CCNc2ccc(Cl)cc2N1c1ccccc1

>  <logBB>


>  <Class>
1

>  <MW>
272.07

>  <nHBAcc>
2

>  <nHBDon>
1

>  <SLogP>
3.82

>  <TopoPSA>
32.34

>  <MMFF94 Energy>
55.833

$$$$
O=C1CC[C@@]2(O)[C@H]3Cc4ccc(O)c5c4[C@@]2(CCN3CC2CC2)[C@H]1O5
Actelion Java MolfileCreator 2.0

  0  0  0  0  0  0              0 V3000
M  V30 BEGIN CTAB
M  V30 COUNTS 48 53 0 0 0
M  V30 BEGIN ATOM
M  V30 1 O -0.4882 -3.3396 -3.5028 0
M  V30 2 C -0.6094 -2.7605 -2.4203 0
M  V30 3 C -1.1916 -1.3387 -2.3035 0 CFG=2
M  V30 4 C -0.2747 -3.4906 -1.1397 0
M  V30 5 O -0.8223 -0.5677 -3.4915 0
M  V30 6 C -0.6817 -0.5498 -1.0896 0 CFG=2
M  V30 7 C 0.5385 -2.6053 -0.2021 0
M  V30 8 C 0.34 0.0639 -3.1161 0
M  V30 9 C 0.5121 0.05 -1.7468 0
M  V30 10 C -0.2472 -1.3383 0.1504 0 CFG=2
M  V30 11 C -1.6472 0.5861 -0.6786 0
M  V30 12 C 1.2948 0.6366 -3.9236 0
M  V30 13 C 1.6545 0.5025 -1.113 0
M  V30 14 O -1.4179 -1.7871 0.8654 0
M  V30 15 C 0.5303 -0.3296 1.0649 0 CFG=1
M  V30 16 C -1.0724 1.4583 0.452 0
M  V30 17 O 1.1135 0.6774 -5.2703 0
M  V30 18 C 2.4509 1.1514 -3.3228 0
M  V30 19 C 2.6379 1.0695 -1.9243 0
M  V30 20 C 1.7994 0.276 0.3695 0
M  V30 21 N -0.488 0.6601 1.5463 0
M  V30 22 C 0.0365 1.509 2.6256 0
M  V30 23 C -1.0997 2.0385 3.4535 0
M  V30 24 C -1.9037 1.1159 4.3364 0
M  V30 25 C -0.9771 2.1244 4.9554 0
M  V30 26 H -2.2828 -1.4436 -2.2844 0
M  V30 27 H 0.3103 -4.3827 -1.3894 0
M  V30 28 H -1.2098 -3.8259 -0.6793 0
M  V30 29 H 0.7523 -3.1752 0.7105 0
M  V30 30 H 1.5018 -2.3696 -0.667 0
M  V30 31 H -2.5995 0.1525 -0.3457 0
M  V30 32 H -1.8923 1.2345 -1.5301 0
M  V30 33 H -1.6337 -1.0538 1.4841 0
M  V30 34 H 0.8629 -0.883 1.954 0
M  V30 35 H -0.3343 2.159 0.0428 0
M  V30 36 H -1.8971 2.0718 0.8326 0
M  V30 37 H 1.9125 1.0332 -5.6884 0
M  V30 38 H 3.2323 1.6033 -3.9276 0
M  V30 39 H 3.5623 1.4431 -1.4889 0
M  V30 40 H 2.6238 -0.4353 0.5097 0
M  V30 41 H 2.1054 1.2079 0.8564 0
M  V30 42 H 0.6948 0.9209 3.2774 0
M  V30 43 H 0.6359 2.3421 2.2399 0
M  V30 44 H -1.6223 2.852 2.9629 0
M  V30 45 H -1.6228 0.0697 4.3817 0
M  V30 46 H -2.9712 1.2903 4.4078 0
M  V30 47 H -0.0764 1.7558 5.4325 0
M  V30 48 H -1.4203 2.9804 5.4523 0
M  V30 END ATOM
M  V30 BEGIN BOND
M  V30 1 2 1 2
M  V30 2 1 2 3
M  V30 3 1 2 4
M  V30 4 1 3 5
M  V30 5 1 3 6
M  V30 6 1 4 7
M  V30 7 1 5 8
M  V30 8 1 6 9
M  V30 9 1 6 10
M  V30 10 1 6 11
M  V30 11 1 8 12
M  V30 12 1 9 13
M  V30 13 1 10 14
M  V30 14 1 10 15
M  V30 15 1 11 16
M  V30 16 1 12 17
M  V30 17 2 12 18
M  V30 18 2 13 19
M  V30 19 1 13 20
M  V30 20 1 15 21
M  V30 21 1 21 22
M  V30 22 1 22 23
M  V30 23 1 23 24
M  V30 24 1 23 25
M  V30 25 1 7 10
M  V30 26 2 8 9
M  V30 27 1 15 20
M  V30 28 1 16 21
M  V30 29 1 18 19
M  V30 30 1 24 25
M  V30 31 1 3 26
M  V30 32 1 4 27
M  V30 33 1 4 28
M  V30 34 1 7 29
M  V30 35 1 7 30
M  V30 36 1 11 31
M  V30 37 1 11 32
M  V30 38 1 14 33
M  V30 39 1 15 34
M  V30 40 1 16 35
M  V30 41 1 16 36
M  V30 42 1 17 37
M  V30 43 1 18 38
M  V30 44 1 19 39
M  V30 45 1 20 40
M  V30 46 1 20 41
M  V30 47 1 22 42
M  V30 48 1 22 43
M  V30 49 1 23 44
M  V30 50 1 24 45
M  V30 51 1 24 46
M  V30 52 1 25 47
M  V30 53 1 25 48
M  V30 END BOND
M  V30 BEGIN COLLECTION
M  V30 MDLV30/STEABS ATOMS=(4 3 6 10 15)
M  V30 END COLLECTION
M  V30 END CTAB
M  END
>  <NO.>
2445

>  <Name>
naltrexone

>  <SMILES>
O=C1CC[C@@]2(O)[C@H]3Cc4ccc(O)c5c4[C@@]2(CCN3CC2CC2)[C@H]1O5

>  <logBB>


>  <Class>
1

>  <MW>
341.16

>  <nHBAcc>
5

>  <nHBDon>
2

>  <SLogP>
1.53

>  <TopoPSA>
70

>  <MMFF94 Energy>
112.42

$$$$
O=C1CC[C@H](C(=O)N2CCCCC2)N1
Actelion Java MolfileCreator 2.0

  0  0  0  0  0  0              0 V3000
M  V30 BEGIN CTAB
M  V30 COUNTS 30 31 0 0 0
M  V30 BEGIN ATOM
M  V30 1 O -2.455 -0.4748 3.8827 0
M  V30 2 C -2.3712 -0.6592 2.6822 0
M  V30 3 N -1.2858 -0.3272 1.9041 0
M  V30 4 C -3.4341 -1.23 1.7814 0
M  V30 5 C -1.5038 -0.5957 0.5022 0 CFG=2
M  V30 6 C -2.6377 -1.6164 0.5378 0
M  V30 7 C -0.2291 -1.09 -0.2079 0
M  V30 8 O -0.1796 -2.2252 -0.6876 0
M  V30 9 N 0.8418 -0.2046 -0.3164 0
M  V30 10 C 2.0951 -0.6779 -0.9044 0
M  V30 11 C 0.8405 1.2067 0.0737 0
M  V30 12 C 2.4819 0.1685 -2.1143 0
M  V30 13 C 1.2105 2.0965 -1.1124 0
M  V30 14 C 2.5238 1.6531 -1.7549 0
M  V30 15 H -0.4479 0.0638 2.3152 0
M  V30 16 H -3.9195 -2.0942 2.2408 0
M  V30 17 H -4.1712 -0.4514 1.5623 0
M  V30 18 H -1.8558 0.3253 0.0244 0
M  V30 19 H -2.2555 -2.6378 0.6594 0
M  V30 20 H -3.2467 -1.5983 -0.3712 0
M  V30 21 H 2.8659 -0.6052 -0.1276 0
M  V30 22 H 2.0315 -1.7304 -1.1971 0
M  V30 23 H -0.1262 1.5265 0.4633 0
M  V30 24 H 1.5739 1.3221 0.8806 0
M  V30 25 H 1.7507 0.013 -2.9174 0
M  V30 26 H 3.4579 -0.1499 -2.4962 0
M  V30 27 H 0.4112 2.0508 -1.8629 0
M  V30 28 H 1.2892 3.1393 -0.7857 0
M  V30 29 H 3.3519 1.8383 -1.0597 0
M  V30 30 H 2.7183 2.2486 -2.6539 0
M  V30 END ATOM
M  V30 BEGIN BOND
M  V30 1 2 1 2
M  V30 2 1 2 3
M  V30 3 1 2 4
M  V30 4 1 3 5
M  V30 5 1 4 6
M  V30 6 1 5 7
M  V30 7 2 7 8
M  V30 8 1 7 9
M  V30 9 1 9 10
M  V30 10 1 9 11
M  V30 11 1 10 12
M  V30 12 1 11 13
M  V30 13 1 12 14
M  V30 14 1 5 6
M  V30 15 1 13 14
M  V30 16 1 3 15
M  V30 17 1 4 16
M  V30 18 1 4 17
M  V30 19 1 5 18
M  V30 20 1 6 19
M  V30 21 1 6 20
M  V30 22 1 10 21
M  V30 23 1 10 22
M  V30 24 1 11 23
M  V30 25 1 11 24
M  V30 26 1 12 25
M  V30 27 1 12 26
M  V30 28 1 13 27
M  V30 29 1 13 28
M  V30 30 1 14 29
M  V30 31 1 14 30
M  V30 END BOND
M  V30 BEGIN COLLECTION
M  V30 MDLV30/STEABS ATOMS=(1 5)
M  V30 END COLLECTION
M  V30 END CTAB
M  END
>  <NO.>
2446

>  <Name>
fasoracetam

>  <SMILES>
O=C1CC[C@H](C(=O)N2CCCCC2)N1

>  <logBB>


>  <Class>
1

>  <MW>
196.12

>  <nHBAcc>
2

>  <nHBDon>
1

>  <SLogP>
0.28

>  <TopoPSA>
49.41

>  <MMFF94 Energy>
0.80185

$$$$
O=C1CC[C@H]2[C@H]3Cc4cccc(O)c4[C@@]2(CCN3CC2CC2)C1
Actelion Java MolfileCreator 2.0

  0  0  0  0  0  0              0 V3000
M  V30 BEGIN CTAB
M  V30 COUNTS 48 52 0 0 0
M  V30 BEGIN ATOM
M  V30 1 O 1.1293 3.3099 2.9866 0
M  V30 2 C 0.4018 2.5287 2.3753 0
M  V30 3 C 0.5112 1.0297 2.5367 0
M  V30 4 C -0.7531 3.018 1.5326 0
M  V30 5 C 0.5784 0.3192 1.1623 0 CFG=2
M  V30 6 C -0.8116 2.2726 0.2062 0
M  V30 7 C 1.8336 0.6112 0.3078 0
M  V30 8 C -0.7103 0.741 0.3949 0 CFG=1
M  V30 9 C 0.5063 -1.2138 1.396 0
M  V30 10 C 3.115 0.8041 0.8528 0
M  V30 11 C 1.7256 0.6271 -1.1072 0
M  V30 12 C -0.7702 -0.0368 -0.9293 0 CFG=1
M  V30 13 C 0.2839 -2.0051 0.1009 0
M  V30 14 O 3.3148 0.6801 2.1967 0
M  V30 15 C 4.2271 1.0796 0.0515 0
M  V30 16 C 2.8503 0.9058 -1.9056 0
M  V30 17 C 0.4212 0.3562 -1.8305 0
M  V30 18 N -0.8299 -1.5077 -0.7246 0
M  V30 19 C 4.0919 1.1406 -1.3287 0
M  V30 20 C -2.1202 -2.0028 -0.2227 0
M  V30 21 C -3.2198 -1.7914 -1.2253 0
M  V30 22 C -3.1888 -2.4892 -2.563 0
M  V30 23 C -4.2017 -2.8971 -1.5311 0
M  V30 24 H -0.3898 0.7149 3.0818 0
M  V30 25 H 1.3381 0.7887 3.2057 0
M  V30 26 H -0.6408 4.0923 1.353 0
M  V30 27 H -1.6752 2.8642 2.1038 0
M  V30 28 H -0.0091 2.6525 -0.4344 0
M  V30 29 H -1.7522 2.5178 -0.3016 0
M  V30 30 H -1.5856 0.4613 0.9984 0
M  V30 31 H -0.3146 -1.4436 2.0885 0
M  V30 32 H 1.4233 -1.5731 1.8802 0
M  V30 33 H -1.6652 0.2669 -1.4844 0
M  V30 34 H 1.2003 -2.0009 -0.5004 0
M  V30 35 H 0.1383 -3.0648 0.3471 0
M  V30 36 H 4.1572 1.1042 2.4306 0
M  V30 37 H 5.2096 1.2273 0.4899 0
M  V30 38 H 2.7568 0.9302 -2.9897 0
M  V30 39 H 0.1529 1.272 -2.375 0
M  V30 40 H 0.5801 -0.4171 -2.5938 0
M  V30 41 H 4.9546 1.3489 -1.9552 0
M  V30 42 H -2.4018 -1.5462 0.732 0
M  V30 43 H -2.04 -3.0809 -0.0332 0
M  V30 44 H -3.6214 -0.7853 -1.1862 0
M  V30 45 H -2.3652 -3.1643 -2.768 0
M  V30 46 H -3.532 -1.9349 -3.4284 0
M  V30 47 H -4.0734 -3.8621 -1.0544 0
M  V30 48 H -5.2367 -2.6236 -1.7023 0
M  V30 END ATOM
M  V30 BEGIN BOND
M  V30 1 2 1 2
M  V30 2 1 2 3
M  V30 3 1 2 4
M  V30 4 1 3 5
M  V30 5 1 4 6
M  V30 6 1 5 7
M  V30 7 1 5 8
M  V30 8 1 5 9
M  V30 9 2 7 10
M  V30 10 1 7 11
M  V30 11 1 8 12
M  V30 12 1 9 13
M  V30 13 1 10 14
M  V30 14 1 10 15
M  V30 15 2 11 16
M  V30 16 1 11 17
M  V30 17 1 12 18
M  V30 18 2 15 19
M  V30 19 1 18 20
M  V30 20 1 20 21
M  V30 21 1 21 22
M  V30 22 1 21 23
M  V30 23 1 6 8
M  V30 24 1 12 17
M  V30 25 1 13 18
M  V30 26 1 16 19
M  V30 27 1 22 23
M  V30 28 1 3 24
M  V30 29 1 3 25
M  V30 30 1 4 26
M  V30 31 1 4 27
M  V30 32 1 6 28
M  V30 33 1 6 29
M  V30 34 1 8 30
M  V30 35 1 9 31
M  V30 36 1 9 32
M  V30 37 1 12 33
M  V30 38 1 13 34
M  V30 39 1 13 35
M  V30 40 1 14 36
M  V30 41 1 15 37
M  V30 42 1 16 38
M  V30 43 1 17 39
M  V30 44 1 17 40
M  V30 45 1 19 41
M  V30 46 1 20 42
M  V30 47 1 20 43
M  V30 48 1 21 44
M  V30 49 1 22 45
M  V30 50 1 22 46
M  V30 51 1 23 47
M  V30 52 1 23 48
M  V30 END BOND
M  V30 BEGIN COLLECTION
M  V30 MDLV30/STEABS ATOMS=(3 5 8 12)
M  V30 END COLLECTION
M  V30 END CTAB
M  END
>  <NO.>
2447

>  <Name>
ketorfanol

>  <SMILES>
O=C1CC[C@H]2[C@H]3Cc4cccc(O)c4[C@@]2(CCN3CC2CC2)C1

>  <logBB>


>  <Class>
1

>  <MW>
311.19

>  <nHBAcc>
3

>  <nHBDon>
1

>  <SLogP>
3.04

>  <TopoPSA>
40.54

>  <MMFF94 Energy>
64.151

$$$$
O=C1CCc2ccc(OCCCCN3CCN(c4cccc(Cl)c4Cl)CC3)cc2N1
Actelion Java MolfileCreator 2.0

  0  0  0  0  0  0              0 V3000
M  V30 BEGIN CTAB
M  V30 COUNTS 57 60 0 0 0
M  V30 BEGIN ATOM
M  V30 1 Cl -2.9106 -3.8822 -3.9632 0
M  V30 2 C -4.2367 -2.8419 -4.4073 0
M  V30 3 C -4.8789 -3.0129 -5.6457 0
M  V30 4 C -4.6898 -1.856 -3.4947 0
M  V30 5 Cl -4.3759 -4.1979 -6.8035 0
M  V30 6 C -5.9721 -2.2145 -5.9889 0
M  V30 7 N -4.0621 -1.6425 -2.2668 0
M  V30 8 C -5.7958 -1.0729 -3.871 0
M  V30 9 C -6.4313 -1.2469 -5.1019 0
M  V30 10 C -2.7998 -0.8851 -2.2986 0
M  V30 11 C -4.8687 -1.4252 -1.0597 0
M  V30 12 C -1.9951 -1.1125 -0.9965 0
M  V30 13 C -4.0109 -1.6577 0.205 0
M  V30 14 N -2.7786 -0.8291 0.2329 0
M  V30 15 C -2.0102 -1.1214 1.4545 0
M  V30 16 C -0.857 -0.1351 1.6818 0
M  V30 17 C -0.1879 -0.3749 3.0404 0
M  V30 18 C 0.9582 0.6023 3.2982 0
M  V30 19 O 1.988 0.3651 2.3393 0
M  V30 20 C 3.102 1.1557 2.4084 0
M  V30 21 C 4.0664 0.8861 1.4337 0
M  V30 22 C 3.3323 2.1699 3.3401 0
M  V30 23 C 5.2516 1.6185 1.4004 0
M  V30 24 C 4.518 2.9116 3.2976 0
M  V30 25 N 6.2051 1.3559 0.412 0
M  V30 26 C 5.4884 2.6328 2.3319 0
M  V30 27 C 7.48 1.8564 0.4273 0
M  V30 28 C 6.7423 3.453 2.2175 0
M  V30 29 O 8.2643 1.6237 -0.4893 0
M  V30 30 C 7.888 2.617 1.6683 0
M  V30 31 H -6.4704 -2.3443 -6.9465 0
M  V30 32 H -6.1637 -0.2937 -3.2078 0
M  V30 33 H -7.2805 -0.6219 -5.3676 0
M  V30 34 H -2.1729 -1.1758 -3.1491 0
M  V30 35 H -3.0223 0.184 -2.4109 0
M  V30 36 H -5.2655 -0.4024 -1.0461 0
M  V30 37 H -5.717 -2.12 -1.0368 0
M  V30 38 H -1.1176 -0.4592 -1.0426 0
M  V30 39 H -1.6345 -2.1498 -0.9811 0
M  V30 40 H -3.7493 -2.7229 0.2658 0
M  V30 41 H -4.6298 -1.4214 1.0791 0
M  V30 42 H -1.6274 -2.1501 1.4418 0
M  V30 43 H -2.6834 -1.044 2.3183 0
M  V30 44 H -1.2366 0.8933 1.6409 0
M  V30 45 H -0.1077 -0.2383 0.8899 0
M  V30 46 H 0.1972 -1.4013 3.0704 0
M  V30 47 H -0.9303 -0.2731 3.8404 0
M  V30 48 H 0.5877 1.6313 3.2163 0
M  V30 49 H 1.3454 0.4272 4.3089 0
M  V30 50 H 3.8808 0.0982 0.7092 0
M  V30 51 H 2.6073 2.415 4.1094 0
M  V30 52 H 4.674 3.7096 4.0201 0
M  V30 53 H 5.9667 0.7737 -0.3805 0
M  V30 54 H 6.54 4.3005 1.5511 0
M  V30 55 H 7.0286 3.8568 3.1954 0
M  V30 56 H 8.7393 3.263 1.429 0
M  V30 57 H 8.2182 1.8807 2.4111 0
M  V30 END ATOM
M  V30 BEGIN BOND
M  V30 1 1 1 2
M  V30 2 2 2 3
M  V30 3 1 2 4
M  V30 4 1 3 5
M  V30 5 1 3 6
M  V30 6 1 4 7
M  V30 7 2 4 8
M  V30 8 2 6 9
M  V30 9 1 7 10
M  V30 10 1 7 11
M  V30 11 1 10 12
M  V30 12 1 11 13
M  V30 13 1 12 14
M  V30 14 1 14 15
M  V30 15 1 15 16
M  V30 16 1 16 17
M  V30 17 1 17 18
M  V30 18 1 18 19
M  V30 19 1 19 20
M  V30 20 2 20 21
M  V30 21 1 20 22
M  V30 22 1 21 23
M  V30 23 2 22 24
M  V30 24 1 23 25
M  V30 25 2 23 26
M  V30 26 1 25 27
M  V30 27 1 26 28
M  V30 28 2 27 29
M  V30 29 1 27 30
M  V30 30 1 8 9
M  V30 31 1 13 14
M  V30 32 1 24 26
M  V30 33 1 28 30
M  V30 34 1 6 31
M  V30 35 1 8 32
M  V30 36 1 9 33
M  V30 37 1 10 34
M  V30 38 1 10 35
M  V30 39 1 11 36
M  V30 40 1 11 37
M  V30 41 1 12 38
M  V30 42 1 12 39
M  V30 43 1 13 40
M  V30 44 1 13 41
M  V30 45 1 15 42
M  V30 46 1 15 43
M  V30 47 1 16 44
M  V30 48 1 16 45
M  V30 49 1 17 46
M  V30 50 1 17 47
M  V30 51 1 18 48
M  V30 52 1 18 49
M  V30 53 1 21 50
M  V30 54 1 22 51
M  V30 55 1 24 52
M  V30 56 1 25 53
M  V30 57 1 28 54
M  V30 58 1 28 55
M  V30 59 1 30 56
M  V30 60 1 30 57
M  V30 END BOND
M  V30 END CTAB
M  END
>  <NO.>
2448

>  <Name>
aripiprazole, abilify

>  <SMILES>
O=C1CCc2ccc(OCCCCN3CCN(c4cccc(Cl)c4Cl)CC3)cc2N1

>  <logBB>


>  <Class>
1

>  <MW>
447.15

>  <nHBAcc>
4

>  <nHBDon>
1

>  <SLogP>
4.86

>  <TopoPSA>
44.81

>  <MMFF94 Energy>
118.24

$$$$
O=C1CN(C(=O)CN2CC(c3ccc(Cl)cc3)CC2=O)CCN1
Actelion Java MolfileCreator 2.0

  0  0  0  0  0  0              0 V3000
M  V30 BEGIN CTAB
M  V30 COUNTS 41 43 0 0 0
M  V30 BEGIN ATOM
M  V30 1 Cl -5.4158 -1.372 -3.635 0
M  V30 2 C -3.7159 -1.1845 -3.4486 0
M  V30 3 C -2.8511 -1.7405 -4.3866 0
M  V30 4 C -3.2108 -0.4773 -2.3622 0
M  V30 5 C -1.47 -1.5896 -4.2343 0
M  V30 6 C -1.8298 -0.3251 -2.2117 0
M  V30 7 C -0.9397 -0.883 -3.1418 0
M  V30 8 C 0.567 -0.7321 -3.0101 0 CFG=2
M  V30 9 C 1.1296 -1.2001 -1.6626 0
M  V30 10 C 1.0239 0.7282 -3.1333 0
M  V30 11 N 1.4233 0.0132 -0.9408 0
M  V30 12 C 1.3205 1.1481 -1.717 0
M  V30 13 C 1.7506 0.0303 0.4755 0
M  V30 14 O 1.4983 2.2954 -1.3411 0
M  V30 15 C 0.508 0.0074 1.3855 0
M  V30 16 O -0.5906 -0.367 0.9684 0
M  V30 17 N 0.6906 0.3602 2.7191 0
M  V30 18 C 2.004 0.6594 3.3071 0
M  V30 19 C -0.4499 0.2797 3.6321 0
M  V30 20 C 2.0546 1.0258 4.7994 0
M  V30 21 C -0.385 1.3665 4.7007 0
M  V30 22 O 3.1134 1.1095 5.4176 0
M  V30 23 N 0.8698 1.3249 5.4161 0
M  V30 24 H -3.2432 -2.291 -5.2373 0
M  V30 25 H -3.8805 -0.0419 -1.6252 0
M  V30 26 H -0.8126 -2.0304 -4.981 0
M  V30 27 H -1.4643 0.2328 -1.3516 0
M  V30 28 H 1.0327 -1.324 -3.8085 0
M  V30 29 H 0.4435 -1.8343 -1.0931 0
M  V30 30 H 2.0771 -1.7331 -1.7982 0
M  V30 31 H 0.2773 1.3884 -3.5835 0
M  V30 32 H 1.9587 0.7937 -3.7007 0
M  V30 33 H 2.3785 -0.837 0.7014 0
M  V30 34 H 2.3193 0.9435 0.67 0
M  V30 35 H 2.4354 1.5028 2.7582 0
M  V30 36 H 2.6418 -0.2179 3.1542 0
M  V30 37 H -0.4113 -0.7133 4.096 0
M  V30 38 H -1.3946 0.3538 3.0837 0
M  V30 39 H -0.4661 2.3602 4.2467 0
M  V30 40 H -1.193 1.2474 5.4286 0
M  V30 41 H 0.9312 1.6187 6.3838 0
M  V30 END ATOM
M  V30 BEGIN BOND
M  V30 1 1 1 2
M  V30 2 2 2 3
M  V30 3 1 2 4
M  V30 4 1 3 5
M  V30 5 2 4 6
M  V30 6 2 5 7
M  V30 7 1 7 8
M  V30 8 1 8 9
M  V30 9 1 8 10
M  V30 10 1 9 11
M  V30 11 1 10 12
M  V30 12 1 11 13
M  V30 13 2 12 14
M  V30 14 1 13 15
M  V30 15 2 15 16
M  V30 16 1 15 17
M  V30 17 1 17 18
M  V30 18 1 17 19
M  V30 19 1 18 20
M  V30 20 1 19 21
M  V30 21 2 20 22
M  V30 22 1 20 23
M  V30 23 1 6 7
M  V30 24 1 11 12
M  V30 25 1 21 23
M  V30 26 1 3 24
M  V30 27 1 4 25
M  V30 28 1 5 26
M  V30 29 1 6 27
M  V30 30 1 8 28
M  V30 31 1 9 29
M  V30 32 1 9 30
M  V30 33 1 10 31
M  V30 34 1 10 32
M  V30 35 1 13 33
M  V30 36 1 13 34
M  V30 37 1 18 35
M  V30 38 1 18 36
M  V30 39 1 19 37
M  V30 40 1 19 38
M  V30 41 1 21 39
M  V30 42 1 21 40
M  V30 43 1 23 41
M  V30 END BOND
M  V30 BEGIN COLLECTION
M  V30 MDLV30/STERAC1 ATOMS=(1 8)
M  V30 END COLLECTION
M  V30 END CTAB
M  END
>  <NO.>
2449

>  <Name>
cebaracetam

>  <SMILES>
O=C1CN(C(=O)CN2CC(c3ccc(Cl)cc3)CC2=O)CCN1

>  <logBB>


>  <Class>
1

>  <MW>
335.1

>  <nHBAcc>
3

>  <nHBDon>
1

>  <SLogP>
0.61

>  <TopoPSA>
69.72

>  <MMFF94 Energy>
69.669

$$$$
O=C1CN(O)C(c2ccccc2)=c2cc(Cl)ccc2=N1
Actelion Java MolfileCreator 2.0

  0  0  0  0  0  0              0 V3000
M  V30 BEGIN CTAB
M  V30 COUNTS 31 33 0 0 0
M  V30 BEGIN ATOM
M  V30 1 Cl -0.0816 -0.2449 4.5789 0
M  V30 2 C 0.0646 -1.0132 3.0427 0
M  V30 3 C -0.2047 -0.345 1.9136 0
M  V30 4 C 0.5156 -2.3776 3.0105 0
M  V30 5 C -0.0629 -0.963 0.5849 0
M  V30 6 C 0.5228 -3.084 1.8746 0
M  V30 7 C 0.021 -0.231 -0.5616 0
M  V30 8 C 0.056 -2.4874 0.583 0
M  V30 9 N 0.2059 -0.6772 -1.8725 0
M  V30 10 C -0.0892 1.2525 -0.4541 0
M  V30 11 N -0.2139 -3.3577 -0.3375 0
M  V30 12 O 0.6331 0.2052 -2.875 0
M  V30 13 C 0.2444 -2.06 -2.3313 0
M  V30 14 C 1.0525 2.0407 -0.2535 0
M  V30 15 C -1.3436 1.8713 -0.5657 0
M  V30 16 C -0.7196 -2.9008 -1.523 0
M  V30 17 C 0.9386 3.4281 -0.1546 0
M  V30 18 C -1.4529 3.2589 -0.4655 0
M  V30 19 O -1.8594 -3.1499 -1.9039 0
M  V30 20 C -0.3128 4.0353 -0.2585 0
M  V30 21 H -0.5164 0.6926 1.9851 0
M  V30 22 H 0.831 -2.8413 3.9404 0
M  V30 23 H 0.8129 -4.1288 1.8561 0
M  V30 24 H -0.1204 0.8179 -2.9811 0
M  V30 25 H 1.2579 -2.4668 -2.2431 0
M  V30 26 H -0.0483 -2.1274 -3.3855 0
M  V30 27 H 2.0327 1.5747 -0.1841 0
M  V30 28 H -2.2378 1.2733 -0.7283 0
M  V30 29 H 1.8268 4.0356 -5.0E-4 0
M  V30 30 H -2.4267 3.7351 -0.549 0
M  V30 31 H -0.3989 5.1165 -0.1817 0
M  V30 END ATOM
M  V30 BEGIN BOND
M  V30 1 1 1 2
M  V30 2 2 2 3
M  V30 3 1 2 4
M  V30 4 1 3 5
M  V30 5 2 4 6
M  V30 6 2 5 7
M  V30 7 1 5 8
M  V30 8 1 7 9
M  V30 9 1 7 10
M  V30 10 2 8 11
M  V30 11 1 9 12
M  V30 12 1 9 13
M  V30 13 2 10 14
M  V30 14 1 10 15
M  V30 15 1 11 16
M  V30 16 1 14 17
M  V30 17 2 15 18
M  V30 18 2 16 19
M  V30 19 2 17 20
M  V30 20 1 6 8
M  V30 21 1 13 16
M  V30 22 1 18 20
M  V30 23 1 3 21
M  V30 24 1 4 22
M  V30 25 1 6 23
M  V30 26 1 12 24
M  V30 27 1 13 25
M  V30 28 1 13 26
M  V30 29 1 14 27
M  V30 30 1 15 28
M  V30 31 1 17 29
M  V30 32 1 18 30
M  V30 33 1 20 31
M  V30 END BOND
M  V30 END CTAB
M  END
>  <NO.>
2450

>  <Name>
demoxepam

>  <SMILES>
O=C1CN(O)C(c2ccccc2)=c2cc(Cl)ccc2=N1

>  <logBB>


>  <Class>
1

>  <MW>
286.05

>  <nHBAcc>
3

>  <nHBDon>
1

>  <SLogP>
1.35

>  <TopoPSA>
52.9

>  <MMFF94 Energy>
118.61

$$$$
O=C1CN2CCOC2(c2ccccc2Cl)c2cc(Cl)ccc2N1
Actelion Java MolfileCreator 2.0

  0  0  0  0  0  0              0 V3000
M  V30 BEGIN CTAB
M  V30 COUNTS 37 40 0 0 0
M  V30 BEGIN ATOM
M  V30 1 Cl -3.2263 -0.7438 -1.4054 0
M  V30 2 C -2.5791 -0.7956 0.2 0
M  V30 3 C -1.2064 -0.7417 0.5232 0
M  V30 4 C -3.5522 -0.9481 1.2059 0
M  V30 5 C -0.8805 -0.9371 1.894 0
M  V30 6 C -0.0381 -0.5716 -0.4826 0 CFG=1
M  V30 7 C -3.1935 -1.086 2.5428 0
M  V30 8 C -1.8523 -1.0938 2.8863 0
M  V30 9 O 0.3936 -1.9409 -0.7148 0
M  V30 10 N -0.4161 -0.026 -1.793 0
M  V30 11 C 1.1653 0.1971 0.1263 0
M  V30 12 C 0.1876 -2.2086 -2.1055 0
M  V30 13 C -0.2553 1.4027 -2.0435 0
M  V30 14 C 0.2672 -0.856 -2.7708 0
M  V30 15 C 1.0404 1.5459 0.5228 0
M  V30 16 C 2.3988 -0.4451 0.3703 0
M  V30 17 C -0.8287 2.2553 -0.9118 0
M  V30 18 N -0.1182 2.2853 0.2636 0
M  V30 19 C 2.0807 2.2013 1.1909 0
M  V30 20 C 3.4417 0.2238 1.0118 0
M  V30 21 O -1.8401 2.9443 -1.0374 0
M  V30 22 C 3.2841 1.5404 1.4316 0
M  V30 23 Cl 4.9284 -0.591 1.303 0
M  V30 24 H -4.6078 -0.9738 0.9417 0
M  V30 25 H 0.1599 -0.9815 2.212 0
M  V30 26 H -3.9583 -1.2085 3.3047 0
M  V30 27 H -1.5538 -1.2301 3.9229 0
M  V30 28 H 0.9566 -2.8994 -2.4613 0
M  V30 29 H -0.7955 -2.6761 -2.2289 0
M  V30 30 H -0.7984 1.6699 -2.9581 0
M  V30 31 H 0.7915 1.6884 -2.2066 0
M  V30 32 H 1.3164 -0.5569 -2.8862 0
M  V30 33 H -0.2155 -0.8518 -3.7523 0
M  V30 34 H 2.5432 -1.4847 0.0826 0
M  V30 35 H -0.4593 2.9448 0.9527 0
M  V30 36 H 1.9736 3.2373 1.5042 0
M  V30 37 H 4.094 2.0587 1.9383 0
M  V30 END ATOM
M  V30 BEGIN BOND
M  V30 1 1 1 2
M  V30 2 2 2 3
M  V30 3 1 2 4
M  V30 4 1 3 5
M  V30 5 1 3 6
M  V30 6 2 4 7
M  V30 7 2 5 8
M  V30 8 1 6 9
M  V30 9 1 6 10
M  V30 10 1 6 11
M  V30 11 1 9 12
M  V30 12 1 10 13
M  V30 13 1 10 14
M  V30 14 2 11 15
M  V30 15 1 11 16
M  V30 16 1 13 17
M  V30 17 1 15 18
M  V30 18 1 15 19
M  V30 19 2 16 20
M  V30 20 2 17 21
M  V30 21 2 19 22
M  V30 22 1 20 23
M  V30 23 1 7 8
M  V30 24 1 12 14
M  V30 25 1 17 18
M  V30 26 1 20 22
M  V30 27 1 4 24
M  V30 28 1 5 25
M  V30 29 1 7 26
M  V30 30 1 8 27
M  V30 31 1 12 28
M  V30 32 1 12 29
M  V30 33 1 13 30
M  V30 34 1 13 31
M  V30 35 1 14 32
M  V30 36 1 14 33
M  V30 37 1 16 34
M  V30 38 1 18 35
M  V30 39 1 19 36
M  V30 40 1 22 37
M  V30 END BOND
M  V30 BEGIN COLLECTION
M  V30 MDLV30/STERAC1 ATOMS=(1 6)
M  V30 END COLLECTION
M  V30 END CTAB
M  END
>  <NO.>
2452

>  <Name>
cloxazolam

>  <SMILES>
O=C1CN2CCOC2(c2ccccc2Cl)c2cc(Cl)ccc2N1

>  <logBB>


>  <Class>
1

>  <MW>
348.04

>  <nHBAcc>
3

>  <nHBDon>
1

>  <SLogP>
3.48

>  <TopoPSA>
41.57

>  <MMFF94 Energy>
67.362

$$$$
O=C1CN2CCOC2(c2ccccc2F)c2cc(Br)ccc2N1
Actelion Java MolfileCreator 2.0

  0  0  0  0  0  0              0 V3000
M  V30 BEGIN CTAB
M  V30 COUNTS 37 40 0 0 0
M  V30 BEGIN ATOM
M  V30 1 Br 2.7162 -0.1644 4.6125 0
M  V30 2 C 1.8045 0.5821 3.1344 0
M  V30 3 C 1.4951 -0.2196 2.0347 0
M  V30 4 C 1.4342 1.9217 3.1586 0
M  V30 5 C 0.8067 0.3074 0.9197 0
M  V30 6 C 0.7665 2.4685 2.0646 0
M  V30 7 C 0.4768 1.6775 0.946 0
M  V30 8 C 0.3515 -0.6037 -0.244 0 CFG=2
M  V30 9 N -0.136 2.3143 -0.1376 0
M  V30 10 O 0.8143 -1.9548 0.0495 0
M  V30 11 N 0.9497 -0.2383 -1.539 0
M  V30 12 C -1.1805 -0.761 -0.2691 0
M  V30 13 C 0.1879 2.1245 -1.4583 0
M  V30 14 C 1.5018 -2.4132 -1.117 0
M  V30 15 C 1.3285 1.1547 -1.7654 0
M  V30 16 C 2.0616 -1.1552 -1.7298 0
M  V30 17 C -1.9667 -0.5801 -1.4154 0
M  V30 18 C -1.8597 -1.1424 0.9126 0
M  V30 19 O -0.3869 2.7782 -2.3285 0
M  V30 20 F -1.4225 -0.2626 -2.5978 0
M  V30 21 C -3.3553 -0.7315 -1.3861 0
M  V30 22 C -3.2492 -1.297 0.9459 0
M  V30 23 C -3.9995 -1.0854 -0.2048 0
M  V30 24 H 1.7708 -1.2722 2.0586 0
M  V30 25 H 1.6658 2.548 4.0162 0
M  V30 26 H 0.4995 3.5228 2.0819 0
M  V30 27 H -0.8215 3.0408 0.0296 0
M  V30 28 H 0.7821 -2.9133 -1.7754 0
M  V30 29 H 2.2787 -3.1258 -0.8278 0
M  V30 30 H 1.5856 1.2873 -2.8235 0
M  V30 31 H 2.2134 1.4521 -1.1884 0
M  V30 32 H 2.9481 -0.8303 -1.171 0
M  V30 33 H 2.3298 -1.2924 -2.7811 0
M  V30 34 H -1.2976 -1.3345 1.8254 0
M  V30 35 H -3.9226 -0.5736 -2.2986 0
M  V30 36 H -3.7402 -1.5887 1.8712 0
M  V30 37 H -5.0793 -1.2054 -0.186 0
M  V30 END ATOM
M  V30 BEGIN BOND
M  V30 1 1 1 2
M  V30 2 2 2 3
M  V30 3 1 2 4
M  V30 4 1 3 5
M  V30 5 2 4 6
M  V30 6 2 5 7
M  V30 7 1 5 8
M  V30 8 1 7 9
M  V30 9 1 8 10
M  V30 10 1 8 11
M  V30 11 1 8 12
M  V30 12 1 9 13
M  V30 13 1 10 14
M  V30 14 1 11 15
M  V30 15 1 11 16
M  V30 16 2 12 17
M  V30 17 1 12 18
M  V30 18 2 13 19
M  V30 19 1 17 20
M  V30 20 1 17 21
M  V30 21 2 18 22
M  V30 22 2 21 23
M  V30 23 1 6 7
M  V30 24 1 13 15
M  V30 25 1 14 16
M  V30 26 1 22 23
M  V30 27 1 3 24
M  V30 28 1 4 25
M  V30 29 1 6 26
M  V30 30 1 9 27
M  V30 31 1 14 28
M  V30 32 1 14 29
M  V30 33 1 15 30
M  V30 34 1 15 31
M  V30 35 1 16 32
M  V30 36 1 16 33
M  V30 37 1 18 34
M  V30 38 1 21 35
M  V30 39 1 22 36
M  V30 40 1 23 37
M  V30 END BOND
M  V30 BEGIN COLLECTION
M  V30 MDLV30/STERAC1 ATOMS=(1 8)
M  V30 END COLLECTION
M  V30 END CTAB
M  END
>  <NO.>
2453

>  <Name>
haloxazolam

>  <SMILES>
O=C1CN2CCOC2(c2ccccc2F)c2cc(Br)ccc2N1

>  <logBB>


>  <Class>
1

>  <MW>
376.02

>  <nHBAcc>
3

>  <nHBDon>
1

>  <SLogP>
3.07

>  <TopoPSA>
41.57

>  <MMFF94 Energy>
62.646

$$$$
O=C1CN2CCOC2(c2ccccc2F)c2cc(Cl)ccc2N1CCO
Actelion Java MolfileCreator 2.0

  0  0  0  0  0  0              0 V3000
M  V30 BEGIN CTAB
M  V30 COUNTS 44 47 0 0 0
M  V30 BEGIN ATOM
M  V30 1 Cl 0.5705 -5.3077 -1.2229 0
M  V30 2 C -0.1147 -3.7536 -0.9516 0
M  V30 3 C 0.5625 -2.8217 -0.168 0
M  V30 4 C -1.3469 -3.4378 -1.5035 0
M  V30 5 C 0.0274 -1.534 0.0788 0
M  V30 6 C -1.8993 -2.1775 -1.2759 0
M  V30 7 C -1.2222 -1.2144 -0.5056 0
M  V30 8 C 0.8057 -0.5321 0.9621 0 CFG=2
M  V30 9 N -1.8588 0.0367 -0.2755 0
M  V30 10 O 2.0329 -1.1722 1.4139 0
M  V30 11 N 0.0669 -0.1613 2.1962 0
M  V30 12 C 1.3185 0.6911 0.1878 0
M  V30 13 C -1.9417 0.6095 0.9939 0
M  V30 14 C -2.426 0.7784 -1.4076 0
M  V30 15 C 2.0681 -1.0597 2.8373 0
M  V30 16 C -1.3945 -0.227 2.1506 0
M  V30 17 C 0.6169 -1.0167 3.2389 0
M  V30 18 C 2.048 0.5272 -1.0005 0
M  V30 19 C 1.1479 2.0108 0.6546 0
M  V30 20 O -2.4284 1.7247 1.1925 0
M  V30 21 C -1.517 1.8984 -1.9128 0
M  V30 22 F 2.2797 -0.6965 -1.4965 0
M  V30 23 C 2.5607 1.6149 -1.7085 0
M  V30 24 C 1.6586 3.1056 -0.052 0
M  V30 25 O -2.1174 2.5338 -3.0395 0
M  V30 26 C 2.3633 2.9083 -1.2356 0
M  V30 27 H 1.5308 -3.1003 0.2442 0
M  V30 28 H -1.8869 -4.165 -2.1038 0
M  V30 29 H -2.8838 -1.9708 -1.6895 0
M  V30 30 H -3.3837 1.2138 -1.094 0
M  V30 31 H -2.6686 0.1139 -2.2428 0
M  V30 32 H 2.5995 -1.9166 3.2599 0
M  V30 33 H 2.6011 -0.1399 3.1039 0
M  V30 34 H -1.784 -1.2507 2.091 0
M  V30 35 H -1.8016 0.2009 3.0755 0
M  V30 36 H 0.188 -2.0258 3.1984 0
M  V30 37 H 0.4785 -0.6086 4.2443 0
M  V30 38 H 0.6136 2.2071 1.583 0
M  V30 39 H -1.3502 2.6528 -1.1384 0
M  V30 40 H -0.5524 1.4947 -2.23 0
M  V30 41 H 3.1186 1.4386 -2.623 0
M  V30 42 H 1.5077 4.1122 0.3318 0
M  V30 43 H -1.5359 3.2759 -3.2801 0
M  V30 44 H 2.7663 3.7576 -1.7807 0
M  V30 END ATOM
M  V30 BEGIN BOND
M  V30 1 1 1 2
M  V30 2 2 2 3
M  V30 3 1 2 4
M  V30 4 1 3 5
M  V30 5 2 4 6
M  V30 6 2 5 7
M  V30 7 1 5 8
M  V30 8 1 7 9
M  V30 9 1 8 10
M  V30 10 1 8 11
M  V30 11 1 8 12
M  V30 12 1 9 13
M  V30 13 1 9 14
M  V30 14 1 10 15
M  V30 15 1 11 16
M  V30 16 1 11 17
M  V30 17 2 12 18
M  V30 18 1 12 19
M  V30 19 2 13 20
M  V30 20 1 14 21
M  V30 21 1 18 22
M  V30 22 1 18 23
M  V30 23 2 19 24
M  V30 24 1 21 25
M  V30 25 2 23 26
M  V30 26 1 6 7
M  V30 27 1 13 16
M  V30 28 1 15 17
M  V30 29 1 24 26
M  V30 30 1 3 27
M  V30 31 1 4 28
M  V30 32 1 6 29
M  V30 33 1 14 30
M  V30 34 1 14 31
M  V30 35 1 15 32
M  V30 36 1 15 33
M  V30 37 1 16 34
M  V30 38 1 16 35
M  V30 39 1 17 36
M  V30 40 1 17 37
M  V30 41 1 19 38
M  V30 42 1 21 39
M  V30 43 1 21 40
M  V30 44 1 23 41
M  V30 45 1 24 42
M  V30 46 1 25 43
M  V30 47 1 26 44
M  V30 END BOND
M  V30 BEGIN COLLECTION
M  V30 MDLV30/STERAC1 ATOMS=(1 8)
M  V30 END COLLECTION
M  V30 END CTAB
M  END
>  <NO.>
2454

>  <Name>
flutazolam

>  <SMILES>
O=C1CN2CCOC2(c2ccccc2F)c2cc(Cl)ccc2N1CCO

>  <logBB>


>  <Class>
1

>  <MW>
376.1

>  <nHBAcc>
4

>  <nHBDon>
1

>  <SLogP>
2.35

>  <TopoPSA>
53.01

>  <MMFF94 Energy>
81.312

$$$$
O=C1CN=C(C2=CCCCC2)c2cc(Cl)ccc2N1
Actelion Java MolfileCreator 2.0

  0  0  0  0  0  0              0 V3000
M  V30 BEGIN CTAB
M  V30 COUNTS 34 36 0 0 0
M  V30 BEGIN ATOM
M  V30 1 Cl -3.731 1.7831 2.1886 0
M  V30 2 C -3.0852 1.0762 0.7602 0
M  V30 3 C -1.706 1.035 0.5718 0
M  V30 4 C -3.9442 0.5413 -0.1949 0
M  V30 5 C -1.1712 0.4481 -0.5871 0
M  V30 6 C -3.4201 -0.0217 -1.3602 0
M  V30 7 C 0.3126 0.3469 -0.7159 0
M  V30 8 C -2.0362 -0.0494 -1.5755 0
M  V30 9 N 0.985 0.6076 -1.7877 0
M  V30 10 C 1.0851 -0.0879 0.5001 0
M  V30 11 N -1.6006 -0.5947 -2.7901 0
M  V30 12 C 0.2716 1.0078 -2.999 0
M  V30 13 C 0.6347 -1.075 1.2968 0
M  V30 14 C 2.4009 0.6083 0.7362 0
M  V30 15 C -0.5336 -0.1643 -3.5369 0
M  V30 16 C 1.391 -1.5711 2.4962 0
M  V30 17 C 2.946 0.3834 2.149 0
M  V30 18 O -0.3031 -0.6923 -4.6249 0
M  V30 19 C 2.8399 -1.0841 2.5488 0
M  V30 20 H -1.05 1.4543 1.3311 0
M  V30 21 H -5.021 0.5688 -0.0454 0
M  V30 22 H -4.106 -0.4153 -2.1077 0
M  V30 23 H -2.1514 -1.3148 -3.2411 0
M  V30 24 H -0.371 1.8802 -2.8355 0
M  V30 25 H 1.0073 1.2919 -3.759 0
M  V30 26 H -0.3034 -1.5827 1.0888 0
M  V30 27 H 3.1321 0.2413 0.0051 0
M  V30 28 H 2.2914 1.6874 0.5739 0
M  V30 29 H 0.8584 -1.2418 3.3966 0
M  V30 30 H 1.3833 -2.667 2.5029 0
M  V30 31 H 3.9903 0.7119 2.1973 0
M  V30 32 H 2.3842 0.9984 2.8638 0
M  V30 33 H 3.2421 -1.231 3.5575 0
M  V30 34 H 3.4545 -1.6896 1.8704 0
M  V30 END ATOM
M  V30 BEGIN BOND
M  V30 1 1 1 2
M  V30 2 2 2 3
M  V30 3 1 2 4
M  V30 4 1 3 5
M  V30 5 2 4 6
M  V30 6 1 5 7
M  V30 7 2 5 8
M  V30 8 2 7 9
M  V30 9 1 7 10
M  V30 10 1 8 11
M  V30 11 1 9 12
M  V30 12 2 10 13
M  V30 13 1 10 14
M  V30 14 1 11 15
M  V30 15 1 13 16
M  V30 16 1 14 17
M  V30 17 2 15 18
M  V30 18 1 16 19
M  V30 19 1 6 8
M  V30 20 1 12 15
M  V30 21 1 17 19
M  V30 22 1 3 20
M  V30 23 1 4 21
M  V30 24 1 6 22
M  V30 25 1 11 23
M  V30 26 1 12 24
M  V30 27 1 12 25
M  V30 28 1 13 26
M  V30 29 1 14 27
M  V30 30 1 14 28
M  V30 31 1 16 29
M  V30 32 1 16 30
M  V30 33 1 17 31
M  V30 34 1 17 32
M  V30 35 1 19 33
M  V30 36 1 19 34
M  V30 END BOND
M  V30 END CTAB
M  END
>  <NO.>
2455

>  <Name>
nortetrazepam

>  <SMILES>
O=C1CN=C(C2=CCCCC2)c2cc(Cl)ccc2N1

>  <logBB>


>  <Class>
1

>  <MW>
274.09

>  <nHBAcc>
2

>  <nHBDon>
1

>  <SLogP>
3.58

>  <TopoPSA>
41.46

>  <MMFF94 Energy>
71.129

$$$$
O=C1CN=C(c2ccccc2)c2c(sc3c2CCCC3)N1
Actelion Java MolfileCreator 2.0

  0  0  0  0  0  0              0 V3000
M  V30 BEGIN CTAB
M  V30 COUNTS 37 40 0 0 0
M  V30 BEGIN ATOM
M  V30 1 S -2.5316 -1.306 -1.6327 0
M  V30 2 C -0.8881 -1.6714 -1.4914 0
M  V30 3 C -2.2994 0.1999 -0.8788 0
M  V30 4 N -0.5108 -2.8635 -2.0451 0
M  V30 5 C -0.1541 -0.7424 -0.7848 0
M  V30 6 C -0.9891 0.3991 -0.473 0
M  V30 7 C -3.4169 1.1892 -0.7421 0
M  V30 8 C 0.7395 -3.0661 -2.5698 0
M  V30 9 C 1.2596 -0.9433 -0.4566 0
M  V30 10 C -0.5729 1.6812 0.197 0
M  V30 11 C -3.0235 2.328 0.2093 0
M  V30 12 O 1.0451 -4.1711 -3.0203 0
M  V30 13 C 1.6827 -1.8655 -2.6266 0
M  V30 14 N 2.1066 -1.4596 -1.2827 0
M  V30 15 C 1.7403 -0.5648 0.9018 0
M  V30 16 C -1.5888 2.8086 -0.0443 0
M  V30 17 C 0.9623 -0.8146 2.0399 0
M  V30 18 C 3.012 0.0044 1.0395 0
M  V30 19 C 1.4428 -0.4634 3.303 0
M  V30 20 C 3.4876 0.3539 2.3041 0
M  V30 21 C 2.7015 0.1239 3.4333 0
M  V30 22 H -1.1552 -3.642 -2.0538 0
M  V30 23 H -4.3284 0.705 -0.3736 0
M  V30 24 H -3.6407 1.6078 -1.7313 0
M  V30 25 H -0.494 1.5094 1.2762 0
M  V30 26 H 0.4108 1.9993 -0.1651 0
M  V30 27 H -3.1073 1.9836 1.2482 0
M  V30 28 H -3.7256 3.1613 0.0922 0
M  V30 29 H 1.2261 -1.0383 -3.1824 0
M  V30 30 H 2.5729 -2.1666 -3.1898 0
M  V30 31 H -1.3566 3.6553 0.6114 0
M  V30 32 H -1.5047 3.1687 -1.0776 0
M  V30 33 H -0.0114 -1.2905 1.9573 0
M  V30 34 H 3.6344 0.174 0.1636 0
M  V30 35 H 0.8399 -0.6563 4.187 0
M  V30 36 H 4.4747 0.7975 2.4088 0
M  V30 37 H 3.0764 0.3915 4.4184 0
M  V30 END ATOM
M  V30 BEGIN BOND
M  V30 1 1 1 2
M  V30 2 1 1 3
M  V30 3 1 2 4
M  V30 4 2 2 5
M  V30 5 2 3 6
M  V30 6 1 3 7
M  V30 7 1 4 8
M  V30 8 1 5 9
M  V30 9 1 6 10
M  V30 10 1 7 11
M  V30 11 2 8 12
M  V30 12 1 8 13
M  V30 13 2 9 14
M  V30 14 1 9 15
M  V30 15 1 10 16
M  V30 16 2 15 17
M  V30 17 1 15 18
M  V30 18 1 17 19
M  V30 19 2 18 20
M  V30 20 2 19 21
M  V30 21 1 5 6
M  V30 22 1 11 16
M  V30 23 1 13 14
M  V30 24 1 20 21
M  V30 25 1 4 22
M  V30 26 1 7 23
M  V30 27 1 7 24
M  V30 28 1 10 25
M  V30 29 1 10 26
M  V30 30 1 11 27
M  V30 31 1 11 28
M  V30 32 1 13 29
M  V30 33 1 13 30
M  V30 34 1 16 31
M  V30 35 1 16 32
M  V30 36 1 17 33
M  V30 37 1 18 34
M  V30 38 1 19 35
M  V30 39 1 20 36
M  V30 40 1 21 37
M  V30 END BOND
M  V30 END CTAB
M  END
>  <NO.>
2456

>  <Name>
bentazepam

>  <SMILES>
O=C1CN=C(c2ccccc2)c2c(sc3c2CCCC3)N1

>  <logBB>


>  <Class>
1

>  <MW>
296.1

>  <nHBAcc>
3

>  <nHBDon>
1

>  <SLogP>
3.42

>  <TopoPSA>
41.46

>  <MMFF94 Energy>
82.807

$$$$
O=C1CN=C(c2ccccc2)c2cc(Cl)ccc2N1CC(F)(F)F
Actelion Java MolfileCreator 2.0

  0  0  0  0  0  0              0 V3000
M  V30 BEGIN CTAB
M  V30 COUNTS 36 38 0 0 0
M  V30 BEGIN ATOM
M  V30 1 Cl -3.3739 3.0444 -1.5624 0
M  V30 2 C -2.2299 2.2471 -0.5576 0
M  V30 3 C -1.2375 1.4583 -1.1275 0
M  V30 4 C -2.2969 2.3968 0.8215 0
M  V30 5 C -0.3056 0.7957 -0.3081 0
M  V30 6 C -1.3584 1.7583 1.6389 0
M  V30 7 C 0.733 -0.0315 -0.9903 0
M  V30 8 C -0.3457 0.9526 1.0926 0
M  V30 9 N 1.9949 0.0368 -0.7212 0
M  V30 10 C 0.3062 -0.9861 -2.0634 0
M  V30 11 N 0.6026 0.3398 1.9634 0
M  V30 12 C 2.4303 0.9046 0.3742 0
M  V30 13 C 1.167 -1.2249 -3.1417 0
M  V30 14 C -0.918 -1.6637 -1.9914 0
M  V30 15 C 1.9697 0.2764 1.683 0
M  V30 16 C 0.1384 -0.3426 3.1844 0
M  V30 17 C 0.7944 -2.1108 -4.1538 0
M  V30 18 C -1.2867 -2.549 -3.0068 0
M  V30 19 O 2.7641 -0.2738 2.4474 0
M  V30 20 C 0.4089 0.3796 4.5081 0
M  V30 21 C -0.4332 -2.7685 -4.0878 0
M  V30 22 F 1.7078 0.6464 4.7329 0
M  V30 23 F -0.2633 1.5539 4.5725 0
M  V30 24 F -0.0359 -0.3763 5.5429 0
M  V30 25 H -1.1841 1.3691 -2.2106 0
M  V30 26 H -3.0661 3.0208 1.2715 0
M  V30 27 H -1.4304 1.9328 2.7081 0
M  V30 28 H 3.5249 0.9439 0.3792 0
M  V30 29 H 2.0775 1.9367 0.2724 0
M  V30 30 H 2.1305 -0.7226 -3.1961 0
M  V30 31 H -1.5879 -1.5292 -1.147 0
M  V30 32 H -0.9337 -0.5548 3.0957 0
M  V30 33 H 0.6361 -1.3197 3.2249 0
M  V30 34 H 1.4657 -2.2914 -4.9896 0
M  V30 35 H -2.2363 -3.0758 -2.9515 0
M  V30 36 H -0.7198 -3.4616 -4.8751 0
M  V30 END ATOM
M  V30 BEGIN BOND
M  V30 1 1 1 2
M  V30 2 2 2 3
M  V30 3 1 2 4
M  V30 4 1 3 5
M  V30 5 2 4 6
M  V30 6 1 5 7
M  V30 7 2 5 8
M  V30 8 2 7 9
M  V30 9 1 7 10
M  V30 10 1 8 11
M  V30 11 1 9 12
M  V30 12 2 10 13
M  V30 13 1 10 14
M  V30 14 1 11 15
M  V30 15 1 11 16
M  V30 16 1 13 17
M  V30 17 2 14 18
M  V30 18 2 15 19
M  V30 19 1 16 20
M  V30 20 2 17 21
M  V30 21 1 20 22
M  V30 22 1 20 23
M  V30 23 1 20 24
M  V30 24 1 6 8
M  V30 25 1 12 15
M  V30 26 1 18 21
M  V30 27 1 3 25
M  V30 28 1 4 26
M  V30 29 1 6 27
M  V30 30 1 12 28
M  V30 31 1 12 29
M  V30 32 1 13 30
M  V30 33 1 14 31
M  V30 34 1 16 32
M  V30 35 1 16 33
M  V30 36 1 17 34
M  V30 37 1 18 35
M  V30 38 1 21 36
M  V30 END BOND
M  V30 END CTAB
M  END
>  <NO.>
2457

>  <Name>
halazepam

>  <SMILES>
O=C1CN=C(c2ccccc2)c2cc(Cl)ccc2N1CC(F)(F)F

>  <logBB>


>  <Class>
1

>  <MW>
352.06

>  <nHBAcc>
2

>  <nHBDon>
0

>  <SLogP>
4.09

>  <TopoPSA>
32.67

>  <MMFF94 Energy>
135.92

$$$$
O=C1CN=C(c2ccccc2)c2cc(Cl)ccc2N1CC1CC1
Actelion Java MolfileCreator 2.0

  0  0  0  0  0  0              0 V3000
M  V30 BEGIN CTAB
M  V30 COUNTS 40 43 0 0 0
M  V30 BEGIN ATOM
M  V30 1 Cl -2.2735 -3.493 2.6799 0
M  V30 2 C -1.7501 -2.3324 1.5248 0
M  V30 3 C -1.0558 -1.2025 1.9437 0
M  V30 4 C -2.0317 -2.5223 0.1773 0
M  V30 5 C -0.6192 -0.2558 1.0006 0
M  V30 6 C -1.6167 -1.5721 -0.7599 0
M  V30 7 C 0.0976 0.9479 1.5125 0
M  V30 8 C -0.9035 -0.429 -0.367 0
M  V30 9 N -0.1974 2.1574 1.1653 0
M  V30 10 C 1.2086 0.761 2.4993 0
M  V30 11 N -0.516 0.5167 -1.3579 0
M  V30 12 C -1.2326 2.3599 0.1471 0
M  V30 13 C 1.4182 1.7383 3.4798 0
M  V30 14 C 2.0561 -0.3528 2.4397 0
M  V30 15 C -0.6819 1.8959 -1.1967 0
M  V30 16 C 0.1631 0.0471 -2.5648 0
M  V30 17 C 2.4473 1.5887 4.4107 0
M  V30 18 C 3.0844 -0.4985 3.3735 0
M  V30 19 O -0.4061 2.7064 -2.0846 0
M  V30 20 C -0.7652 -0.0292 -3.7457 0
M  V30 21 C 3.2764 0.469 4.3595 0
M  V30 22 C -0.2018 -0.4119 -5.0939 0
M  V30 23 C -1.1333 -1.3482 -4.3834 0
M  V30 24 H -0.8683 -1.0533 3.0048 0
M  V30 25 H -2.5867 -3.3973 -0.1524 0
M  V30 26 H -1.8871 -1.7288 -1.7995 0
M  V30 27 H -2.1786 1.8646 0.3911 0
M  V30 28 H -1.4476 3.4317 0.0769 0
M  V30 29 H 0.7814 2.6194 3.5206 0
M  V30 30 H 1.9428 -1.1056 1.6649 0
M  V30 31 H 0.6474 -0.9168 -2.3663 0
M  V30 32 H 0.9667 0.7561 -2.8005 0
M  V30 33 H 2.6048 2.3498 5.1708 0
M  V30 34 H 3.7431 -1.3622 3.327 0
M  V30 35 H -1.4936 0.775 -3.7541 0
M  V30 36 H 4.0805 0.3565 5.0826 0
M  V30 37 H 0.8444 -0.6875 -5.1626 0
M  V30 38 H -0.5747 0.118 -5.9637 0
M  V30 39 H -0.7121 -2.2648 -3.9868 0
M  V30 40 H -2.1386 -1.456 -4.7757 0
M  V30 END ATOM
M  V30 BEGIN BOND
M  V30 1 1 1 2
M  V30 2 2 2 3
M  V30 3 1 2 4
M  V30 4 1 3 5
M  V30 5 2 4 6
M  V30 6 1 5 7
M  V30 7 2 5 8
M  V30 8 2 7 9
M  V30 9 1 7 10
M  V30 10 1 8 11
M  V30 11 1 9 12
M  V30 12 2 10 13
M  V30 13 1 10 14
M  V30 14 1 11 15
M  V30 15 1 11 16
M  V30 16 1 13 17
M  V30 17 2 14 18
M  V30 18 2 15 19
M  V30 19 1 16 20
M  V30 20 2 17 21
M  V30 21 1 20 22
M  V30 22 1 20 23
M  V30 23 1 6 8
M  V30 24 1 12 15
M  V30 25 1 18 21
M  V30 26 1 22 23
M  V30 27 1 3 24
M  V30 28 1 4 25
M  V30 29 1 6 26
M  V30 30 1 12 27
M  V30 31 1 12 28
M  V30 32 1 13 29
M  V30 33 1 14 30
M  V30 34 1 16 31
M  V30 35 1 16 32
M  V30 36 1 17 33
M  V30 37 1 18 34
M  V30 38 1 20 35
M  V30 39 1 21 36
M  V30 40 1 22 37
M  V30 41 1 22 38
M  V30 42 1 23 39
M  V30 43 1 23 40
M  V30 END BOND
M  V30 END CTAB
M  END
>  <NO.>
2458

>  <Name>
prazepam

>  <SMILES>
O=C1CN=C(c2ccccc2)c2cc(Cl)ccc2N1CC1CC1

>  <logBB>


>  <Class>
1

>  <MW>
324.1

>  <nHBAcc>
2

>  <nHBDon>
0

>  <SLogP>
3.93

>  <TopoPSA>
32.67

>  <MMFF94 Energy>
124.68

$$$$
O=C1CN=C(c2ccccc2)c2cc(Cl)ccc2N1CCOCC1CC1
Actelion Java MolfileCreator 2.0

  0  0  0  0  0  0              0 V3000
M  V30 BEGIN CTAB
M  V30 COUNTS 47 50 0 0 0
M  V30 BEGIN ATOM
M  V30 1 Cl -3.7994 -2.8283 2.7474 0
M  V30 2 C -2.4799 -2.5285 1.687 0
M  V30 3 C -2.6874 -1.8217 0.5066 0
M  V30 4 C -1.2134 -3.0046 2.0078 0
M  V30 5 C -1.6091 -1.5678 -0.3576 0
M  V30 6 C -0.1429 -2.7707 1.1405 0
M  V30 7 C -1.8911 -0.8393 -1.6277 0
M  V30 8 C -0.322 -2.0428 -0.047 0
M  V30 9 N -1.4816 -1.2401 -2.7863 0
M  V30 10 C -2.7042 0.4173 -1.574 0
M  V30 11 N 0.7952 -1.8472 -0.9044 0
M  V30 12 C -0.6238 -2.4284 -2.8584 0
M  V30 13 C -2.6244 1.2913 -0.4816 0
M  V30 14 C -3.534 0.7361 -2.6557 0
M  V30 15 C 0.7415 -2.0665 -2.2837 0
M  V30 16 C 2.0346 -1.3006 -0.3452 0
M  V30 17 C -3.3922 2.458 -0.463 0
M  V30 18 C -4.2993 1.9033 -2.6329 0
M  V30 19 O 1.7341 -1.9602 -3.0067 0
M  V30 20 C 2.1746 0.2035 -0.6186 0
M  V30 21 C -4.231 2.7607 -1.5355 0
M  V30 22 O 3.2204 0.7728 0.1729 0
M  V30 23 C 2.7644 1.2314 1.4427 0
M  V30 24 C 3.9509 1.7013 2.2195 0
M  V30 25 C 4.492 3.094 2.0223 0
M  V30 26 C 3.7983 2.7332 3.3076 0
M  V30 27 H -3.6905 -1.4847 0.2538 0
M  V30 28 H -1.0528 -3.5726 2.9214 0
M  V30 29 H 0.8278 -3.1918 1.3945 0
M  V30 30 H -0.4913 -2.7002 -3.9111 0
M  V30 31 H -1.0565 -3.3015 -2.3582 0
M  V30 32 H -1.9597 1.091 0.3535 0
M  V30 33 H -3.5862 0.0775 -3.52 0
M  V30 34 H 2.8897 -1.8235 -0.7919 0
M  V30 35 H 2.1005 -1.4969 0.7287 0
M  V30 36 H -3.3306 3.1373 0.3837 0
M  V30 37 H -4.9431 2.1454 -3.475 0
M  V30 38 H 2.4395 0.3617 -1.6695 0
M  V30 39 H 1.2307 0.7355 -0.4456 0
M  V30 40 H -4.8246 3.6718 -1.5217 0
M  V30 41 H 2.2762 0.4172 1.9887 0
M  V30 42 H 2.0393 2.041 1.2975 0
M  V30 43 H 4.6686 0.9034 2.3743 0
M  V30 44 H 3.9809 3.752 1.3285 0
M  V30 45 H 5.5685 3.2219 2.0388 0
M  V30 46 H 2.8201 3.1629 3.4902 0
M  V30 47 H 4.4081 2.6253 4.1977 0
M  V30 END ATOM
M  V30 BEGIN BOND
M  V30 1 1 1 2
M  V30 2 2 2 3
M  V30 3 1 2 4
M  V30 4 1 3 5
M  V30 5 2 4 6
M  V30 6 1 5 7
M  V30 7 2 5 8
M  V30 8 2 7 9
M  V30 9 1 7 10
M  V30 10 1 8 11
M  V30 11 1 9 12
M  V30 12 2 10 13
M  V30 13 1 10 14
M  V30 14 1 11 15
M  V30 15 1 11 16
M  V30 16 1 13 17
M  V30 17 2 14 18
M  V30 18 2 15 19
M  V30 19 1 16 20
M  V30 20 2 17 21
M  V30 21 1 20 22
M  V30 22 1 22 23
M  V30 23 1 23 24
M  V30 24 1 24 25
M  V30 25 1 24 26
M  V30 26 1 6 8
M  V30 27 1 12 15
M  V30 28 1 18 21
M  V30 29 1 25 26
M  V30 30 1 3 27
M  V30 31 1 4 28
M  V30 32 1 6 29
M  V30 33 1 12 30
M  V30 34 1 12 31
M  V30 35 1 13 32
M  V30 36 1 14 33
M  V30 37 1 16 34
M  V30 38 1 16 35
M  V30 39 1 17 36
M  V30 40 1 18 37
M  V30 41 1 20 38
M  V30 42 1 20 39
M  V30 43 1 21 40
M  V30 44 1 23 41
M  V30 45 1 23 42
M  V30 46 1 24 43
M  V30 47 1 25 44
M  V30 48 1 25 45
M  V30 49 1 26 46
M  V30 50 1 26 47
M  V30 END BOND
M  V30 END CTAB
M  END
>  <NO.>
2459

>  <Name>
iclazepam

>  <SMILES>
O=C1CN=C(c2ccccc2)c2cc(Cl)ccc2N1CCOCC1CC1

>  <logBB>


>  <Class>
1

>  <MW>
368.13

>  <nHBAcc>
3

>  <nHBDon>
0

>  <SLogP>
3.95

>  <TopoPSA>
41.9

>  <MMFF94 Energy>
141.83

$$$$
O=C1CN=C(c2ccccc2Cl)c2cc(Cl)ccc2N1
Actelion Java MolfileCreator 2.0

  0  0  0  0  0  0              0 V3000
M  V30 BEGIN CTAB
M  V30 COUNTS 30 32 0 0 0
M  V30 BEGIN ATOM
M  V30 1 Cl 1.5702 -2.4802 1.9838 0
M  V30 2 C 1.4728 -2.3528 0.2649 0
M  V30 3 C 0.596 -1.4687 -0.3734 0
M  V30 4 C 2.3425 -3.1316 -0.5027 0
M  V30 5 C -0.3605 -0.627 0.3898 0
M  V30 6 C 0.5816 -1.3695 -1.771 0
M  V30 7 C 2.3319 -3.0307 -1.8964 0
M  V30 8 N -1.3665 -1.2358 0.918 0
M  V30 9 C -0.0989 0.8424 0.4399 0
M  V30 10 C 1.4529 -2.1513 -2.5294 0
M  V30 11 C -2.3429 -0.4691 1.6885 0
M  V30 12 C -1.1289 1.787 0.2878 0
M  V30 13 C 1.2278 1.2827 0.5796 0
M  V30 14 C -3.1452 0.4257 0.7619 0
M  V30 15 N -2.4842 1.4584 0.1495 0
M  V30 16 C -0.8129 3.1517 0.2331 0
M  V30 17 C 1.5214 2.6445 0.545 0
M  V30 18 O -4.3572 0.2961 0.5867 0
M  V30 19 C 0.5085 3.5805 0.3655 0
M  V30 20 Cl 3.1498 3.1714 0.7132 0
M  V30 21 H 3.033 -3.8201 -0.0214 0
M  V30 22 H -0.1165 -0.702 -2.2704 0
M  V30 23 H 3.0079 -3.6434 -2.4889 0
M  V30 24 H 1.4403 -2.0832 -3.615 0
M  V30 25 H -1.8743 0.1188 2.4859 0
M  V30 26 H -3.0339 -1.1683 2.1715 0
M  V30 27 H 2.0399 0.5742 0.7207 0
M  V30 28 H -3.0939 2.0717 -0.3772 0
M  V30 29 H -1.5953 3.8975 0.1058 0
M  V30 30 H 0.7379 4.643 0.3335 0
M  V30 END ATOM
M  V30 BEGIN BOND
M  V30 1 1 1 2
M  V30 2 2 2 3
M  V30 3 1 2 4
M  V30 4 1 3 5
M  V30 5 1 3 6
M  V30 6 2 4 7
M  V30 7 2 5 8
M  V30 8 1 5 9
M  V30 9 2 6 10
M  V30 10 1 8 11
M  V30 11 2 9 12
M  V30 12 1 9 13
M  V30 13 1 11 14
M  V30 14 1 12 15
M  V30 15 1 12 16
M  V30 16 2 13 17
M  V30 17 2 14 18
M  V30 18 2 16 19
M  V30 19 1 17 20
M  V30 20 1 7 10
M  V30 21 1 14 15
M  V30 22 1 17 19
M  V30 23 1 4 21
M  V30 24 1 6 22
M  V30 25 1 7 23
M  V30 26 1 10 24
M  V30 27 1 11 25
M  V30 28 1 11 26
M  V30 29 1 13 27
M  V30 30 1 15 28
M  V30 31 1 16 29
M  V30 32 1 19 30
M  V30 END BOND
M  V30 END CTAB
M  END
>  <NO.>
2460

>  <Name>
delorazepam

>  <SMILES>
O=C1CN=C(c2ccccc2Cl)c2cc(Cl)ccc2N1

>  <logBB>


>  <Class>
1

>  <MW>
304.02

>  <nHBAcc>
2

>  <nHBDon>
1

>  <SLogP>
3.78

>  <TopoPSA>
41.46

>  <MMFF94 Energy>
98.672

$$$$
O=C1CN=C(c2ccccc2Cl)c2cc([N+](=O)[O-])ccc2N1
Actelion Java MolfileCreator 2.0

  0  0  0  0  0  0              0 V3000
M  V30 BEGIN CTAB
M  V30 COUNTS 32 34 0 0 0
M  V30 BEGIN ATOM
M  V30 1 Cl 0.9828 -1.9664 2.7866 0
M  V30 2 C 1.9289 -0.8286 1.8974 0
M  V30 3 C 1.3511 0.1763 1.1135 0
M  V30 4 C 3.3196 -0.9579 1.932 0
M  V30 5 C -0.1201 0.367 1.0468 0
M  V30 6 C 2.1573 1.0543 0.3771 0
M  V30 7 C 4.1249 -0.0862 1.1941 0
M  V30 8 N -0.6796 0.8814 2.0874 0
M  V30 9 C -0.8095 -0.011 -0.2237 0
M  V30 10 C 3.545 0.9184 0.4187 0
M  V30 11 C -2.1251 1.0915 2.0975 0
M  V30 12 C -1.8139 0.7937 -0.7918 0
M  V30 13 C -0.3908 -1.1742 -0.8936 0
M  V30 14 C -2.4919 2.2031 1.1321 0
M  V30 15 N -2.3073 1.9668 -0.2054 0
M  V30 16 C -2.3565 0.4508 -2.0392 0
M  V30 17 C -0.9587 -1.5134 -2.1289 0
M  V30 18 O -2.9929 3.2683 1.4929 0
M  V30 19 C -1.9373 -0.7007 -2.7085 0
M  V30 20 N -0.5132 -2.7266 -2.8274 0 CHG=1
M  V30 21 O -1.095 -3.0311 -3.8776 0
M  V30 22 O 0.4205 -3.3672 -2.3261 0 CHG=-1
M  V30 23 H 3.7842 -1.7373 2.5315 0
M  V30 24 H 1.7119 1.8535 -0.2102 0
M  V30 25 H 5.2074 -0.1891 1.2288 0
M  V30 26 H 4.1764 1.6019 -0.1447 0
M  V30 27 H -2.6798 0.1758 1.8632 0
M  V30 28 H -2.4271 1.3993 3.1044 0
M  V30 29 H 0.3689 -1.8172 -0.4536 0
M  V30 30 H -2.6599 2.7103 -0.7962 0
M  V30 31 H -3.1278 1.0698 -2.4954 0
M  V30 32 H -2.3841 -0.9482 -3.6703 0
M  V30 END ATOM
M  V30 BEGIN BOND
M  V30 1 1 1 2
M  V30 2 2 2 3
M  V30 3 1 2 4
M  V30 4 1 3 5
M  V30 5 1 3 6
M  V30 6 2 4 7
M  V30 7 2 5 8
M  V30 8 1 5 9
M  V30 9 2 6 10
M  V30 10 1 8 11
M  V30 11 2 9 12
M  V30 12 1 9 13
M  V30 13 1 11 14
M  V30 14 1 12 15
M  V30 15 1 12 16
M  V30 16 2 13 17
M  V30 17 2 14 18
M  V30 18 2 16 19
M  V30 19 1 17 20
M  V30 20 2 20 21
M  V30 21 1 20 22
M  V30 22 1 7 10
M  V30 23 1 14 15
M  V30 24 1 17 19
M  V30 25 1 4 23
M  V30 26 1 6 24
M  V30 27 1 7 25
M  V30 28 1 10 26
M  V30 29 1 11 27
M  V30 30 1 11 28
M  V30 31 1 13 29
M  V30 32 1 15 30
M  V30 33 1 16 31
M  V30 34 1 19 32
M  V30 END BOND
M  V30 END CTAB
M  END
>  <NO.>
2461

>  <Name>
clonazepam

>  <SMILES>
O=C1CN=C(c2ccccc2Cl)c2cc([N+](=O)[O-])ccc2N1

>  <logBB>


>  <Class>
1

>  <MW>
315.04

>  <nHBAcc>
4

>  <nHBDon>
1

>  <SLogP>
3.04

>  <TopoPSA>
84.6

>  <MMFF94 Energy>
131.83

$$$$
O=C1CN=C(c2ccccc2F)c2cc(Cl)ccc2N1CC(O)CO
Actelion Java MolfileCreator 2.0

  0  0  0  0  0  0              0 V3000
M  V30 BEGIN CTAB
M  V30 COUNTS 41 43 0 0 0
M  V30 BEGIN ATOM
M  V30 1 Cl 2.3542 4.3057 1.2171 0
M  V30 2 C 1.7952 2.701 0.9581 0
M  V30 3 C 0.8868 2.4393 -0.0608 0
M  V30 4 C 2.256 1.6687 1.7621 0
M  V30 5 C 0.4219 1.1279 -0.2754 0
M  V30 6 C 1.805 0.3632 1.5437 0
M  V30 7 C -0.5414 0.9307 -1.3974 0
M  V30 8 C 0.8831 0.0637 0.528 0
M  V30 9 N -0.4722 -0.0226 -2.2642 0
M  V30 10 C -1.6632 1.8946 -1.5275 0
M  V30 11 N 0.4482 -1.2898 0.3601 0
M  V30 12 C 0.5932 -1.0123 -2.1075 0
M  V30 13 C -1.8604 2.5854 -2.7227 0
M  V30 14 C -2.5318 2.1006 -0.4486 0
M  V30 15 C 0.2538 -1.8697 -0.8968 0
M  V30 16 C -0.014 -2.0384 1.5435 0
M  V30 17 F -1.0176 2.4376 -3.7548 0
M  V30 18 C -2.9152 3.4856 -2.8489 0
M  V30 19 C -3.5903 3.003 -0.5765 0
M  V30 20 O -0.1835 -3.0153 -1.034 0
M  V30 21 C 0.8968 -3.163 2.0846 0 CFG=2
M  V30 22 C -3.7819 3.6945 -1.7749 0
M  V30 23 O 2.0926 -2.636 2.6793 0
M  V30 24 C 1.2964 -4.2516 1.0889 0
M  V30 25 O 2.1112 -5.2064 1.7865 0
M  V30 26 H 0.5577 3.2572 -0.6977 0
M  V30 27 H 2.9727 1.8623 2.5568 0
M  V30 28 H 2.2076 -0.4161 2.182 0
M  V30 29 H 0.6088 -1.6579 -2.9922 0
M  V30 30 H 1.5903 -0.5662 -2.0264 0
M  V30 31 H -2.4035 1.5535 0.4817 0
M  V30 32 H -0.2148 -1.3224 2.3506 0
M  V30 33 H -0.9825 -2.4851 1.283 0
M  V30 34 H -3.0525 4.0201 -3.7839 0
M  V30 35 H -4.2724 3.1626 0.2558 0
M  V30 36 H 0.3613 -3.6438 2.9132 0
M  V30 37 H -4.6087 4.3945 -1.8731 0
M  V30 38 H 2.6448 -3.4284 2.8483 0
M  V30 39 H 1.9129 -3.8493 0.2806 0
M  V30 40 H 0.4218 -4.7722 0.6901 0
M  V30 41 H 2.3107 -5.9107 1.1433 0
M  V30 END ATOM
M  V30 BEGIN BOND
M  V30 1 1 1 2
M  V30 2 2 2 3
M  V30 3 1 2 4
M  V30 4 1 3 5
M  V30 5 2 4 6
M  V30 6 1 5 7
M  V30 7 2 5 8
M  V30 8 2 7 9
M  V30 9 1 7 10
M  V30 10 1 8 11
M  V30 11 1 9 12
M  V30 12 2 10 13
M  V30 13 1 10 14
M  V30 14 1 11 15
M  V30 15 1 11 16
M  V30 16 1 13 17
M  V30 17 1 13 18
M  V30 18 2 14 19
M  V30 19 2 15 20
M  V30 20 1 16 21
M  V30 21 2 18 22
M  V30 22 1 21 23
M  V30 23 1 21 24
M  V30 24 1 24 25
M  V30 25 1 6 8
M  V30 26 1 12 15
M  V30 27 1 19 22
M  V30 28 1 3 26
M  V30 29 1 4 27
M  V30 30 1 6 28
M  V30 31 1 12 29
M  V30 32 1 12 30
M  V30 33 1 14 31
M  V30 34 1 16 32
M  V30 35 1 16 33
M  V30 36 1 18 34
M  V30 37 1 19 35
M  V30 38 1 21 36
M  V30 39 1 22 37
M  V30 40 1 23 38
M  V30 41 1 24 39
M  V30 42 1 24 40
M  V30 43 1 25 41
M  V30 END BOND
M  V30 BEGIN COLLECTION
M  V30 MDLV30/STERAC1 ATOMS=(1 21)
M  V30 END COLLECTION
M  V30 END CTAB
M  END
>  <NO.>
2462

>  <Name>
proflazepam

>  <SMILES>
O=C1CN=C(c2ccccc2F)c2cc(Cl)ccc2N1CC(O)CO

>  <logBB>


>  <Class>
1

>  <MW>
362.08

>  <nHBAcc>
4

>  <nHBDon>
2

>  <SLogP>
2.02

>  <TopoPSA>
73.13

>  <MMFF94 Energy>
138.2

$$$$
O=C1CN=C(c2ccccc2F)c2cc(Cl)ccc2N1CC1CC1
Actelion Java MolfileCreator 2.0

  0  0  0  0  0  0              0 V3000
M  V30 BEGIN CTAB
M  V30 COUNTS 40 43 0 0 0
M  V30 BEGIN ATOM
M  V30 1 Cl -0.1629 -4.8969 0.2444 0
M  V30 2 C 0.2009 -3.2335 0.0069 0
M  V30 3 C -0.2865 -2.2833 0.8985 0
M  V30 4 C 0.9896 -2.8451 -1.0687 0
M  V30 5 C 0.0068 -0.9216 0.7066 0
M  V30 6 C 1.2896 -1.4931 -1.2572 0
M  V30 7 C -0.5221 0.0446 1.711 0
M  V30 8 C 0.799 -0.5101 -0.3828 0
M  V30 9 N 0.1604 1.0075 2.2322 0
M  V30 10 C -1.9351 -0.1039 2.1383 0
M  V30 11 N 1.1211 0.8552 -0.6325 0
M  V30 12 C 1.5452 1.1951 1.7917 0
M  V30 13 C -2.2455 -0.2723 3.4873 0
M  V30 14 C -2.958 -0.0639 1.1833 0
M  V30 15 C 1.5271 1.7412 0.3704 0
M  V30 16 C 0.9415 1.3941 -1.9811 0
M  V30 17 F -1.2802 -0.357 4.4139 0
M  V30 18 C -3.571 -0.4069 3.892 0
M  V30 19 C -4.2876 -0.1977 1.5903 0
M  V30 20 O 1.8587 2.9054 0.1324 0
M  V30 21 C 2.2416 1.4936 -2.731 0
M  V30 22 C -4.5937 -0.3689 2.9427 0
M  V30 23 C 2.5174 0.6574 -3.9586 0
M  V30 24 C 2.2466 2.1255 -4.1032 0
M  V30 25 H -0.8757 -2.6104 1.7521 0
M  V30 26 H 1.385 -3.5861 -1.7594 0
M  V30 27 H 1.935 -1.2258 -2.0882 0
M  V30 28 H 2.1468 0.2827 1.8666 0
M  V30 29 H 2.0203 1.9397 2.4397 0
M  V30 30 H -2.7315 0.0893 0.1315 0
M  V30 31 H 0.2033 0.7927 -2.5261 0
M  V30 32 H 0.5146 2.401 -1.8914 0
M  V30 33 H -3.7972 -0.5424 4.9453 0
M  V30 34 H -5.088 -0.1598 0.8545 0
M  V30 35 H 3.0726 1.765 -2.0879 0
M  V30 36 H -5.6301 -0.4692 3.2575 0
M  V30 37 H 1.7569 -0.0271 -4.316 0
M  V30 38 H 3.5334 0.3125 -4.1163 0
M  V30 39 H 1.3024 2.4298 -4.5409 0
M  V30 40 H 3.0773 2.7764 -4.3541 0
M  V30 END ATOM
M  V30 BEGIN BOND
M  V30 1 1 1 2
M  V30 2 2 2 3
M  V30 3 1 2 4
M  V30 4 1 3 5
M  V30 5 2 4 6
M  V30 6 1 5 7
M  V30 7 2 5 8
M  V30 8 2 7 9
M  V30 9 1 7 10
M  V30 10 1 8 11
M  V30 11 1 9 12
M  V30 12 2 10 13
M  V30 13 1 10 14
M  V30 14 1 11 15
M  V30 15 1 11 16
M  V30 16 1 13 17
M  V30 17 1 13 18
M  V30 18 2 14 19
M  V30 19 2 15 20
M  V30 20 1 16 21
M  V30 21 2 18 22
M  V30 22 1 21 23
M  V30 23 1 21 24
M  V30 24 1 6 8
M  V30 25 1 12 15
M  V30 26 1 19 22
M  V30 27 1 23 24
M  V30 28 1 3 25
M  V30 29 1 4 26
M  V30 30 1 6 27
M  V30 31 1 12 28
M  V30 32 1 12 29
M  V30 33 1 14 30
M  V30 34 1 16 31
M  V30 35 1 16 32
M  V30 36 1 18 33
M  V30 37 1 19 34
M  V30 38 1 21 35
M  V30 39 1 22 36
M  V30 40 1 23 37
M  V30 41 1 23 38
M  V30 42 1 24 39
M  V30 43 1 24 40
M  V30 END BOND
M  V30 END CTAB
M  END
>  <NO.>
2463

>  <Name>
flutoprazepam

>  <SMILES>
O=C1CN=C(c2ccccc2F)c2cc(Cl)ccc2N1CC1CC1

>  <logBB>


>  <Class>
1

>  <MW>
342.09

>  <nHBAcc>
2

>  <nHBDon>
0

>  <SLogP>
4.07

>  <TopoPSA>
32.67

>  <MMFF94 Energy>
126.74

$$$$
O=C1CN=C(c2ccccn2)c2cc(Br)ccc2N1
Actelion Java MolfileCreator 2.0

  0  0  0  0  0  0              0 V3000
M  V30 BEGIN CTAB
M  V30 COUNTS 29 31 0 0 0
M  V30 BEGIN ATOM
M  V30 1 Br -4.2681 -0.3278 1.8861 0
M  V30 2 C -2.7278 -1.0231 1.0394 0
M  V30 3 C -1.5679 -0.2537 0.9738 0
M  V30 4 C -2.764 -2.2968 0.4801 0
M  V30 5 C -0.4236 -0.7563 0.3332 0
M  V30 6 C -1.6212 -2.8148 -0.1315 0
M  V30 7 C 0.7811 0.1239 0.206 0
M  V30 8 C -0.4405 -2.0623 -0.1843 0
M  V30 9 N 1.991 -0.2632 0.4599 0
M  V30 10 C 0.5854 1.5421 -0.2663 0
M  V30 11 N 0.6754 -2.6866 -0.7581 0
M  V30 12 C 2.233 -1.65 0.8566 0
M  V30 13 N -0.6102 1.8416 -0.8346 0
M  V30 14 C 1.6186 2.4661 -0.1418 0
M  V30 15 C 1.9723 -2.5704 -0.3265 0
M  V30 16 C -0.7755 3.1055 -1.2819 0
M  V30 17 C 1.414 3.7612 -0.6102 0
M  V30 18 O 2.8571 -3.2369 -0.8636 0
M  V30 19 C 0.1947 4.09 -1.1912 0
M  V30 20 H -1.5608 0.7446 1.4048 0
M  V30 21 H -3.6693 -2.8974 0.5238 0
M  V30 22 H -1.6557 -3.8218 -0.5416 0
M  V30 23 H 0.5417 -3.371 -1.4917 0
M  V30 24 H 1.6367 -1.9484 1.7261 0
M  V30 25 H 3.2856 -1.7523 1.1417 0
M  V30 26 H 2.5668 2.1864 0.3059 0
M  V30 27 H -1.7419 3.3147 -1.7328 0
M  V30 28 H 2.2031 4.5035 -0.5271 0
M  V30 29 H 0.0068 5.0891 -1.5693 0
M  V30 END ATOM
M  V30 BEGIN BOND
M  V30 1 1 1 2
M  V30 2 2 2 3
M  V30 3 1 2 4
M  V30 4 1 3 5
M  V30 5 2 4 6
M  V30 6 1 5 7
M  V30 7 2 5 8
M  V30 8 2 7 9
M  V30 9 1 7 10
M  V30 10 1 8 11
M  V30 11 1 9 12
M  V30 12 2 10 13
M  V30 13 1 10 14
M  V30 14 1 11 15
M  V30 15 1 13 16
M  V30 16 2 14 17
M  V30 17 2 15 18
M  V30 18 2 16 19
M  V30 19 1 6 8
M  V30 20 1 12 15
M  V30 21 1 17 19
M  V30 22 1 3 20
M  V30 23 1 4 21
M  V30 24 1 6 22
M  V30 25 1 11 23
M  V30 26 1 12 24
M  V30 27 1 12 25
M  V30 28 1 14 26
M  V30 29 1 16 27
M  V30 30 1 17 28
M  V30 31 1 19 29
M  V30 END BOND
M  V30 END CTAB
M  END
>  <NO.>
2464

>  <Name>
bromazepam

>  <SMILES>
O=C1CN=C(c2ccccn2)c2cc(Br)ccc2N1

>  <logBB>


>  <Class>
1

>  <MW>
315

>  <nHBAcc>
3

>  <nHBDon>
1

>  <SLogP>
2.63

>  <TopoPSA>
54.35

>  <MMFF94 Energy>
107.51

$$$$
O=C1COC(N2CCN=C(c3ccccc3Cl)c3cc(Cl)ccc32)=N1
Actelion Java MolfileCreator 2.0

  0  0  0  0  0  0              0 V3000
M  V30 BEGIN CTAB
M  V30 COUNTS 38 41 0 0 0
M  V30 BEGIN ATOM
M  V30 1 Cl 1.8158 3.386 -2.4767 0
M  V30 2 C 0.8814 2.0286 -2.9915 0
M  V30 3 C 0.4982 1.0042 -2.1193 0
M  V30 4 C 0.4548 1.9934 -4.3221 0
M  V30 5 C 0.9301 0.9789 -0.7013 0
M  V30 6 C -0.3042 -0.0507 -2.5752 0
M  V30 7 C -0.3453 0.9423 -4.7772 0
M  V30 8 N 2.1836 0.7834 -0.4537 0
M  V30 9 C -0.1206 1.1418 0.3419 0
M  V30 10 C -0.725 -0.0777 -3.9049 0
M  V30 11 C 2.5868 0.7681 0.955 0
M  V30 12 C -0.1899 0.2423 1.4267 0
M  V30 13 C -1.0391 2.1946 0.208 0
M  V30 14 C 2.1499 -0.5284 1.6374 0
M  V30 15 N 0.7057 -0.8366 1.5751 0
M  V30 16 C -1.2188 0.4393 2.3672 0
M  V30 17 C -2.0412 2.3581 1.1581 0
M  V30 18 C 0.3032 -2.1244 1.8534 0
M  V30 19 C -2.1364 1.4862 2.2369 0
M  V30 20 Cl -3.1686 3.6468 0.9989 0
M  V30 21 O -1.0126 -2.4016 1.6233 0
M  V30 22 N 1.0278 -3.101 2.281 0
M  V30 23 C -1.1886 -3.7789 1.9492 0
M  V30 24 C 0.1911 -4.1742 2.3834 0
M  V30 25 O 0.5019 -5.2909 2.7704 0
M  V30 26 H 0.7405 2.7848 -5.011 0
M  V30 27 H -0.5879 -0.8585 -1.9045 0
M  V30 28 H -0.6708 0.9192 -5.8149 0
M  V30 29 H -1.3423 -0.8983 -4.2638 0
M  V30 30 H 3.6804 0.8331 0.9926 0
M  V30 31 H 2.223 1.6556 1.4887 0
M  V30 32 H -0.9686 2.8927 -0.6216 0
M  V30 33 H 2.4535 -0.4886 2.6909 0
M  V30 34 H 2.7058 -1.354 1.174 0
M  V30 35 H -1.3081 -0.2246 3.225 0
M  V30 36 H -2.9179 1.6129 2.9822 0
M  V30 37 H -1.4984 -4.3339 1.0613 0
M  V30 38 H -1.9043 -3.8774 2.7681 0
M  V30 END ATOM
M  V30 BEGIN BOND
M  V30 1 1 1 2
M  V30 2 2 2 3
M  V30 3 1 2 4
M  V30 4 1 3 5
M  V30 5 1 3 6
M  V30 6 2 4 7
M  V30 7 2 5 8
M  V30 8 1 5 9
M  V30 9 2 6 10
M  V30 10 1 8 11
M  V30 11 2 9 12
M  V30 12 1 9 13
M  V30 13 1 11 14
M  V30 14 1 12 15
M  V30 15 1 12 16
M  V30 16 2 13 17
M  V30 17 1 15 18
M  V30 18 2 16 19
M  V30 19 1 17 20
M  V30 20 1 18 21
M  V30 21 2 18 22
M  V30 22 1 21 23
M  V30 23 1 22 24
M  V30 24 2 24 25
M  V30 25 1 7 10
M  V30 26 1 14 15
M  V30 27 1 17 19
M  V30 28 1 23 24
M  V30 29 1 4 26
M  V30 30 1 6 27
M  V30 31 1 7 28
M  V30 32 1 10 29
M  V30 33 1 11 30
M  V30 34 1 11 31
M  V30 35 1 13 32
M  V30 36 1 14 33
M  V30 37 1 14 34
M  V30 38 1 16 35
M  V30 39 1 19 36
M  V30 40 1 23 37
M  V30 41 1 23 38
M  V30 END BOND
M  V30 END CTAB
M  END
>  <NO.>
2465

>  <Name>
reclazepam

>  <SMILES>
O=C1COC(N2CCN=C(c3ccccc3Cl)c3cc(Cl)ccc32)=N1

>  <logBB>


>  <Class>
1

>  <MW>
373.04

>  <nHBAcc>
4

>  <nHBDon>
0

>  <SLogP>
3.56

>  <TopoPSA>
54.26

>  <MMFF94 Energy>
69.83

$$$$
O=C1CSC2(CCN(CCCN3c4ccccc4Sc4ccc(Cl)cc43)CC2)N1
Actelion Java MolfileCreator 2.0

  0  0  0  0  0  0              0 V3000
M  V30 BEGIN CTAB
M  V30 COUNTS 53 57 0 0 0
M  V30 BEGIN ATOM
M  V30 1 Cl 0.8268 -1.8196 -3.8904 0
M  V30 2 C -0.6249 -0.9179 -3.6798 0
M  V30 3 C -0.8994 -0.3278 -2.4422 0
M  V30 4 C -1.5078 -0.7778 -4.7351 0
M  V30 5 C -2.0695 0.4302 -2.2057 0
M  V30 6 C -2.6672 -0.0351 -4.5428 0
M  V30 7 N -2.3436 1.0326 -0.9407 0
M  V30 8 C -2.9488 0.5693 -3.2996 0
M  V30 9 C -3.3954 1.9578 -0.6741 0
M  V30 10 C -1.4916 0.6177 0.2019 0
M  V30 11 S -4.4711 1.4799 -3.2322 0
M  V30 12 C -4.3989 2.2335 -1.6255 0
M  V30 13 C -3.4923 2.6632 0.5482 0
M  V30 14 C -0.2628 1.53 0.3435 0
M  V30 15 C -5.4396 3.1427 -1.3444 0
M  V30 16 C -4.5255 3.5689 0.8214 0
M  V30 17 C 0.6566 1.0881 1.4886 0
M  V30 18 C -5.5048 3.8073 -0.1262 0
M  V30 19 N 1.2212 -0.2591 1.2943 0
M  V30 20 C 2.3014 -0.2577 0.2934 0
M  V30 21 C 1.7036 -0.802 2.5741 0
M  V30 22 C 2.8128 -1.6763 0.0351 0
M  V30 23 C 2.1894 -2.2435 2.4126 0
M  V30 24 C 3.2687 -2.3476 1.3315 0
M  V30 25 S 3.6231 -4.1154 1.0121 0
M  V30 26 N 4.5256 -1.8055 1.7975 0
M  V30 27 C 5.2205 -4.0999 1.8611 0
M  V30 28 C 5.5485 -2.654 2.1255 0
M  V30 29 O 6.6043 -2.2523 2.5964 0
M  V30 30 H -0.156 -0.4736 -1.6673 0
M  V30 31 H -1.3052 -1.2336 -5.6995 0
M  V30 32 H -3.3597 0.0759 -5.3756 0
M  V30 33 H -1.1992 -0.4346 0.1054 0
M  V30 34 H -2.0627 0.602 1.1388 0
M  V30 35 H -2.7558 2.5446 1.3355 0
M  V30 36 H -0.5856 2.5582 0.5453 0
M  V30 37 H 0.2929 1.5871 -0.5978 0
M  V30 38 H -6.211 3.339 -2.0869 0
M  V30 39 H -4.5552 4.0857 1.7774 0
M  V30 40 H 1.4562 1.8269 1.6281 0
M  V30 41 H 0.0547 1.1087 2.4069 0
M  V30 42 H -6.3112 4.5066 0.0752 0
M  V30 43 H 1.9429 0.1381 -0.6618 0
M  V30 44 H 3.1281 0.3899 0.6127 0
M  V30 45 H 2.502 -0.1743 2.9905 0
M  V30 46 H 0.8857 -0.8088 3.3055 0
M  V30 47 H 2.0003 -2.252 -0.4298 0
M  V30 48 H 3.6318 -1.6301 -0.6943 0
M  V30 49 H 2.5611 -2.6022 3.3815 0
M  V30 50 H 1.3234 -2.8674 2.1503 0
M  V30 51 H 4.6705 -0.8176 1.9593 0
M  V30 52 H 5.1491 -4.6379 2.8095 0
M  V30 53 H 5.9896 -4.5468 1.2272 0
M  V30 END ATOM
M  V30 BEGIN BOND
M  V30 1 1 1 2
M  V30 2 2 2 3
M  V30 3 1 2 4
M  V30 4 1 3 5
M  V30 5 2 4 6
M  V30 6 1 5 7
M  V30 7 2 5 8
M  V30 8 1 7 9
M  V30 9 1 7 10
M  V30 10 1 8 11
M  V30 11 2 9 12
M  V30 12 1 9 13
M  V30 13 1 10 14
M  V30 14 1 12 15
M  V30 15 2 13 16
M  V30 16 1 14 17
M  V30 17 2 15 18
M  V30 18 1 17 19
M  V30 19 1 19 20
M  V30 20 1 19 21
M  V30 21 1 20 22
M  V30 22 1 21 23
M  V30 23 1 22 24
M  V30 24 1 24 25
M  V30 25 1 24 26
M  V30 26 1 25 27
M  V30 27 1 26 28
M  V30 28 2 28 29
M  V30 29 1 6 8
M  V30 30 1 11 12
M  V30 31 1 16 18
M  V30 32 1 23 24
M  V30 33 1 27 28
M  V30 34 1 3 30
M  V30 35 1 4 31
M  V30 36 1 6 32
M  V30 37 1 10 33
M  V30 38 1 10 34
M  V30 39 1 13 35
M  V30 40 1 14 36
M  V30 41 1 14 37
M  V30 42 1 15 38
M  V30 43 1 16 39
M  V30 44 1 17 40
M  V30 45 1 17 41
M  V30 46 1 18 42
M  V30 47 1 20 43
M  V30 48 1 20 44
M  V30 49 1 21 45
M  V30 50 1 21 46
M  V30 51 1 22 47
M  V30 52 1 22 48
M  V30 53 1 23 49
M  V30 54 1 23 50
M  V30 55 1 26 51
M  V30 56 1 27 52
M  V30 57 1 27 53
M  V30 END BOND
M  V30 END CTAB
M  END
>  <NO.>
2466

>  <Name>
spiclomazine

>  <SMILES>
O=C1CSC2(CCN(CCCN3c4ccccc4Sc4ccc(Cl)cc43)CC2)N1

>  <logBB>


>  <Class>
1

>  <MW>
445.1

>  <nHBAcc>
5

>  <nHBDon>
1

>  <SLogP>
4.99

>  <TopoPSA>
35.58

>  <MMFF94 Energy>
38.753

$$$$
O=C1Cc2cc(CCN3CCN(c4nsc5ccccc45)CC3)c(Cl)cc2N1
Actelion Java MolfileCreator 2.0

  0  0  0  0  0  0              0 V3000
M  V30 BEGIN CTAB
M  V30 COUNTS 49 53 0 0 0
M  V30 BEGIN ATOM
M  V30 1 Cl 5.2538 2.0498 0.7375 0
M  V30 2 C 4.1022 1.4071 1.8579 0
M  V30 3 C 2.7086 1.6198 1.6964 0
M  V30 4 C 4.6077 0.669 2.9349 0
M  V30 5 C 1.8151 1.0676 2.6363 0
M  V30 6 C 2.1343 2.3985 0.5287 0
M  V30 7 C 3.6986 0.1524 3.8291 0
M  V30 8 C 2.3276 0.3397 3.6937 0
M  V30 9 C 1.9618 1.5551 -0.7493 0
M  V30 10 N 3.9568 -0.6077 4.9585 0
M  V30 11 C 1.6158 -0.353 4.8169 0
M  V30 12 N 0.9611 0.4757 -0.6339 0
M  V30 13 C 2.78 -0.9559 5.6117 0
M  V30 14 C -0.4257 1.0032 -0.6323 0
M  V30 15 C 1.11 -0.4722 -1.7707 0
M  V30 16 O 2.7 -1.6199 6.6315 0
M  V30 17 C -1.4966 -0.1165 -0.5857 0
M  V30 18 C 0.0624 -1.6076 -1.7391 0
M  V30 19 N -1.3026 -1.0603 -1.6949 0
M  V30 20 C -2.0015 -0.8994 -2.8614 0
M  V30 21 N -1.4068 -0.7133 -4.0391 0
M  V30 22 C -3.4576 -0.9528 -2.9011 0
M  V30 23 S -2.5425 -0.5103 -5.2122 0
M  V30 24 C -3.9105 -0.7239 -4.2028 0
M  V30 25 C -4.4377 -1.2063 -1.9057 0
M  V30 26 C -5.2758 -0.7001 -4.537 0
M  V30 27 C -5.7997 -1.1894 -2.2258 0
M  V30 28 C -6.2118 -0.9329 -3.527 0
M  V30 29 H 5.6724 0.5088 3.0568 0
M  V30 30 H 0.7422 1.1978 2.5275 0
M  V30 31 H 2.7836 3.2546 0.3085 0
M  V30 32 H 1.1823 2.856 0.8241 0
M  V30 33 H 1.7061 2.2206 -1.5842 0
M  V30 34 H 2.9358 1.1134 -0.9947 0
M  V30 35 H 4.8675 -0.8904 5.2884 0
M  V30 36 H 0.9695 -1.1534 4.4483 0
M  V30 37 H 1.0711 0.3567 5.4444 0
M  V30 38 H -0.5965 1.6214 -1.5238 0
M  V30 39 H -0.5828 1.6408 0.2437 0
M  V30 40 H 1.0367 0.068 -2.7234 0
M  V30 41 H 2.1049 -0.9316 -1.7293 0
M  V30 42 H -2.4891 0.3463 -0.5999 0
M  V30 43 H -1.415 -0.6622 0.3626 0
M  V30 44 H 0.2034 -2.2785 -2.5954 0
M  V30 45 H 0.2204 -2.2198 -0.8417 0
M  V30 46 H -4.1276 -1.4294 -0.8883 0
M  V30 47 H -5.5969 -0.5149 -5.5576 0
M  V30 48 H -6.5371 -1.3852 -1.4509 0
M  V30 49 H -7.273 -0.9243 -3.766 0
M  V30 END ATOM
M  V30 BEGIN BOND
M  V30 1 1 1 2
M  V30 2 2 2 3
M  V30 3 1 2 4
M  V30 4 1 3 5
M  V30 5 1 3 6
M  V30 6 2 4 7
M  V30 7 2 5 8
M  V30 8 1 6 9
M  V30 9 1 7 10
M  V30 10 1 8 11
M  V30 11 1 9 12
M  V30 12 1 10 13
M  V30 13 1 12 14
M  V30 14 1 12 15
M  V30 15 2 13 16
M  V30 16 1 14 17
M  V30 17 1 15 18
M  V30 18 1 17 19
M  V30 19 1 19 20
M  V30 20 2 20 21
M  V30 21 1 20 22
M  V30 22 1 21 23
M  V30 23 2 22 24
M  V30 24 1 22 25
M  V30 25 1 24 26
M  V30 26 2 25 27
M  V30 27 2 26 28
M  V30 28 1 7 8
M  V30 29 1 11 13
M  V30 30 1 18 19
M  V30 31 1 23 24
M  V30 32 1 27 28
M  V30 33 1 4 29
M  V30 34 1 5 30
M  V30 35 1 6 31
M  V30 36 1 6 32
M  V30 37 1 9 33
M  V30 38 1 9 34
M  V30 39 1 10 35
M  V30 40 1 11 36
M  V30 41 1 11 37
M  V30 42 1 14 38
M  V30 43 1 14 39
M  V30 44 1 15 40
M  V30 45 1 15 41
M  V30 46 1 17 42
M  V30 47 1 17 43
M  V30 48 1 18 44
M  V30 49 1 18 45
M  V30 50 1 25 46
M  V30 51 1 26 47
M  V30 52 1 27 48
M  V30 53 1 28 49
M  V30 END BOND
M  V30 END CTAB
M  END
>  <NO.>
2468

>  <Name>
ziprasidone

>  <SMILES>
O=C1Cc2cc(CCN3CCN(c4nsc5ccccc45)CC3)c(Cl)cc2N1

>  <logBB>


>  <Class>
1

>  <MW>
412.11

>  <nHBAcc>
5

>  <nHBDon>
1

>  <SLogP>
3.81

>  <TopoPSA>
48.47

>  <MMFF94 Energy>
104.93

$$$$
O=C1N(C(O)C(Cl)(Cl)Cl)CNC1(c1ccccc1)c1ccccc1
Actelion Java MolfileCreator 2.0

  0  0  0  0  0  0              0 V3000
M  V30 BEGIN CTAB
M  V30 COUNTS 39 41 0 0 0
M  V30 BEGIN ATOM
M  V30 1 Cl -5.9879 0.3319 1.1622 0
M  V30 2 C -4.2513 0.8027 1.2747 0
M  V30 3 Cl -4.0006 1.572 2.8818 0
M  V30 4 Cl -3.9404 2.0523 0.0174 0
M  V30 5 C -3.3361 -0.4653 1.0687 0 CFG=2
M  V30 6 O -3.4946 -1.4493 2.0905 0
M  V30 7 N -1.9092 -0.2136 0.9543 0
M  V30 8 C -1.2465 -0.1468 -0.256 0
M  V30 9 C -1.0196 -0.1179 2.0605 0
M  V30 10 O -1.7848 -0.2978 -1.3434 0
M  V30 11 C 0.2544 0.116 0.0644 0
M  V30 12 N 0.1848 0.4947 1.5195 0
M  V30 13 C 0.8778 1.3023 -0.7002 0
M  V30 14 C 1.0488 -1.1886 -0.1684 0
M  V30 15 C 0.1486 2.1179 -1.5827 0
M  V30 16 C 2.2335 1.6288 -0.4811 0
M  V30 17 C 1.8282 -1.7873 0.8392 0
M  V30 18 C 1.0352 -1.8006 -1.4373 0
M  V30 19 C 0.7534 3.1999 -2.2309 0
M  V30 20 C 2.8358 2.7093 -1.1293 0
M  V30 21 C 2.5433 -2.9626 0.5947 0
M  V30 22 C 1.7503 -2.9755 -1.6798 0
M  V30 23 C 2.0948 3.4942 -2.0059 0
M  V30 24 C 2.5011 -3.5578 -0.6628 0
M  V30 25 H -3.6601 -0.9368 0.1316 0
M  V30 26 H -3.0488 -2.2472 1.7553 0
M  V30 27 H -0.8111 -1.123 2.4418 0
M  V30 28 H -1.4344 0.4898 2.8662 0
M  V30 29 H 0.0351 1.5041 1.541 0
M  V30 30 H -0.9024 1.9356 -1.7942 0
M  V30 31 H 2.8339 1.0346 0.2062 0
M  V30 32 H 1.897 -1.3378 1.8277 0
M  V30 33 H 0.4675 -1.3597 -2.2564 0
M  V30 34 H 0.1713 3.813 -2.915 0
M  V30 35 H 3.8834 2.9352 -0.9474 0
M  V30 36 H 3.1394 -3.4086 1.3868 0
M  V30 37 H 1.7242 -3.4308 -2.6666 0
M  V30 38 H 2.5611 4.3346 -2.513 0
M  V30 39 H 3.0606 -4.4697 -0.8532 0
M  V30 END ATOM
M  V30 BEGIN BOND
M  V30 1 1 1 2
M  V30 2 1 2 3
M  V30 3 1 2 4
M  V30 4 1 2 5
M  V30 5 1 5 6
M  V30 6 1 5 7
M  V30 7 1 7 8
M  V30 8 1 7 9
M  V30 9 2 8 10
M  V30 10 1 8 11
M  V30 11 1 9 12
M  V30 12 1 11 13
M  V30 13 1 11 14
M  V30 14 2 13 15
M  V30 15 1 13 16
M  V30 16 2 14 17
M  V30 17 1 14 18
M  V30 18 1 15 19
M  V30 19 2 16 20
M  V30 20 1 17 21
M  V30 21 2 18 22
M  V30 22 2 19 23
M  V30 23 2 21 24
M  V30 24 1 11 12
M  V30 25 1 20 23
M  V30 26 1 22 24
M  V30 27 1 5 25
M  V30 28 1 6 26
M  V30 29 1 9 27
M  V30 30 1 9 28
M  V30 31 1 12 29
M  V30 32 1 15 30
M  V30 33 1 16 31
M  V30 34 1 17 32
M  V30 35 1 18 33
M  V30 36 1 19 34
M  V30 37 1 20 35
M  V30 38 1 21 36
M  V30 39 1 22 37
M  V30 40 1 23 38
M  V30 41 1 24 39
M  V30 END BOND
M  V30 BEGIN COLLECTION
M  V30 MDLV30/STERAC1 ATOMS=(1 5)
M  V30 END COLLECTION
M  V30 END CTAB
M  END
>  <NO.>
2469

>  <Name>
triclodazol

>  <SMILES>
O=C1N(C(O)C(Cl)(Cl)Cl)CNC1(c1ccccc1)c1ccccc1

>  <logBB>


>  <Class>
1

>  <MW>
384.02

>  <nHBAcc>
3

>  <nHBDon>
2

>  <SLogP>
3.01

>  <TopoPSA>
52.57

>  <MMFF94 Energy>
96.575

$$$$
O=C1N(c2ccccc2)c2ccccc2C1(Cc1ccncc1)Cc1ccncc1
Actelion Java MolfileCreator 2.0

  0  0  0  0  0  0              0 V3000
M  V30 BEGIN CTAB
M  V30 COUNTS 51 55 0 0 0
M  V30 BEGIN ATOM
M  V30 1 O 0.8044 -0.0804 -2.2535 0
M  V30 2 C 0.4113 -0.185 -1.0984 0
M  V30 3 N -0.1867 0.7893 -0.2918 0
M  V30 4 C 0.5234 -1.4644 -0.237 0
M  V30 5 C -0.4058 2.1162 -0.6723 0
M  V30 6 C -0.5258 0.2938 0.9735 0
M  V30 7 C -0.131 -1.0444 1.0647 0
M  V30 8 C -0.2134 -2.6355 -0.9354 0
M  V30 9 C 2.021 -1.8305 -0.0522 0
M  V30 10 C 0.321 3.1497 -0.0709 0
M  V30 11 C -1.3348 2.4064 -1.6746 0
M  V30 12 C -1.1707 0.9262 2.0224 0
M  V30 13 C -0.3546 -1.779 2.2205 0
M  V30 14 C -1.6504 -2.3798 -1.3395 0
M  V30 15 C 2.9086 -0.7475 0.527 0
M  V30 16 C 0.1043 4.4717 -0.4611 0
M  V30 17 C -1.5501 3.73 -2.0614 0
M  V30 18 C -1.4014 0.1934 3.1899 0
M  V30 19 C -0.9945 -1.1473 3.2889 0
M  V30 20 C -2.7068 -2.6265 -0.4594 0
M  V30 21 C -1.9532 -1.8747 -2.608 0
M  V30 22 C 3.5232 0.1932 -0.3052 0
M  V30 23 C 3.1158 -0.6434 1.9049 0
M  V30 24 C -0.8324 4.7611 -1.4537 0
M  V30 25 C -4.0008 -2.351 -0.8764 0
M  V30 26 C -3.2791 -1.6339 -2.9336 0
M  V30 27 C 4.2938 1.1923 0.2692 0
M  V30 28 C 3.9047 0.3915 2.3847 0
M  V30 29 N -4.3113 -1.86 -2.0945 0
M  V30 30 N 4.4967 1.3143 1.5979 0
M  V30 31 H 0.3382 -2.9253 -1.8409 0
M  V30 32 H -0.1911 -3.526 -0.2918 0
M  V30 33 H 2.1075 -2.7225 0.584 0
M  V30 34 H 2.4487 -2.1269 -1.0204 0
M  V30 35 H 1.0636 2.9288 0.6924 0
M  V30 36 H -1.8945 1.607 -2.1533 0
M  V30 37 H -1.4987 1.9579 1.9522 0
M  V30 38 H -0.0471 -2.8167 2.3017 0
M  V30 39 H 0.6705 5.2744 0.0042 0
M  V30 40 H -2.2749 3.9559 -2.8392 0
M  V30 41 H -1.9049 0.6666 4.0304 0
M  V30 42 H -1.1855 -1.6974 4.2081 0
M  V30 43 H -2.5387 -3.0204 0.5367 0
M  V30 44 H -1.1745 -1.6607 -3.3346 0
M  V30 45 H 3.3995 0.1654 -1.3842 0
M  V30 46 H 2.6685 -1.3431 2.6023 0
M  V30 47 H -0.9989 5.7911 -1.7593 0
M  V30 48 H -4.8477 -2.5238 -0.2185 0
M  V30 49 H -3.5513 -1.2385 -3.908 0
M  V30 50 H 4.7791 1.9448 -0.3458 0
M  V30 51 H 4.0837 0.5091 3.4497 0
M  V30 END ATOM
M  V30 BEGIN BOND
M  V30 1 2 1 2
M  V30 2 1 2 3
M  V30 3 1 2 4
M  V30 4 1 3 5
M  V30 5 1 3 6
M  V30 6 1 4 7
M  V30 7 1 4 8
M  V30 8 1 4 9
M  V30 9 2 5 10
M  V30 10 1 5 11
M  V30 11 1 6 12
M  V30 12 1 7 13
M  V30 13 1 8 14
M  V30 14 1 9 15
M  V30 15 1 10 16
M  V30 16 2 11 17
M  V30 17 2 12 18
M  V30 18 2 13 19
M  V30 19 2 14 20
M  V30 20 1 14 21
M  V30 21 2 15 22
M  V30 22 1 15 23
M  V30 23 2 16 24
M  V30 24 1 20 25
M  V30 25 2 21 26
M  V30 26 1 22 27
M  V30 27 2 23 28
M  V30 28 2 25 29
M  V30 29 2 27 30
M  V30 30 2 6 7
M  V30 31 1 17 24
M  V30 32 1 18 19
M  V30 33 1 26 29
M  V30 34 1 28 30
M  V30 35 1 8 31
M  V30 36 1 8 32
M  V30 37 1 9 33
M  V30 38 1 9 34
M  V30 39 1 10 35
M  V30 40 1 11 36
M  V30 41 1 12 37
M  V30 42 1 13 38
M  V30 43 1 16 39
M  V30 44 1 17 40
M  V30 45 1 18 41
M  V30 46 1 19 42
M  V30 47 1 20 43
M  V30 48 1 21 44
M  V30 49 1 22 45
M  V30 50 1 23 46
M  V30 51 1 24 47
M  V30 52 1 25 48
M  V30 53 1 26 49
M  V30 54 1 27 50
M  V30 55 1 28 51
M  V30 END BOND
M  V30 END CTAB
M  END
>  <NO.>
2470

>  <Name>
linopirdine

>  <SMILES>
O=C1N(c2ccccc2)c2ccccc2C1(Cc1ccncc1)Cc1ccncc1

>  <logBB>


>  <Class>
1

>  <MW>
391.17

>  <nHBAcc>
3

>  <nHBDon>
0

>  <SLogP>
4.88

>  <TopoPSA>
46.09

>  <MMFF94 Energy>
101.67

$$$$
O=C1NC(=NC2CC2)OC1c1ccccc1
Actelion Java MolfileCreator 2.0

  0  0  0  0  0  0              0 V3000
M  V30 BEGIN CTAB
M  V30 COUNTS 28 30 0 0 0
M  V30 BEGIN ATOM
M  V30 1 O -1.678 -0.7988 -2.958 0
M  V30 2 C -1.1806 -0.9699 -1.8558 0
M  V30 3 N -1.8221 -1.4724 -0.7797 0
M  V30 4 C 0.2479 -0.689 -1.4353 0 CFG=2
M  V30 5 C -0.9773 -1.5775 0.2468 0
M  V30 6 O 0.272 -1.1638 -0.075 0
M  V30 7 C 0.6445 0.7684 -1.5413 0
M  V30 8 N -1.3382 -2.0289 1.3929 0
M  V30 9 C 0.9528 1.5433 -0.4116 0
M  V30 10 C 0.7247 1.3738 -2.8069 0
M  V30 11 C -0.3024 -2.0824 2.429 0
M  V30 12 C 1.3225 2.8839 -0.5442 0
M  V30 13 C 1.0935 2.7141 -2.9375 0
M  V30 14 C -0.1857 -0.9026 3.3515 0
M  V30 15 C -0.7906 -2.1837 3.8462 0
M  V30 16 C 1.3921 3.4687 -1.8061 0
M  V30 17 H -2.7899 -1.742 -0.7483 0
M  V30 18 H 0.9333 -1.3158 -2.0161 0
M  V30 19 H 0.9112 1.114 0.5876 0
M  V30 20 H 0.4903 0.8054 -3.7063 0
M  V30 21 H 0.6013 -2.6352 2.1867 0
M  V30 22 H 1.5569 3.4716 0.3398 0
M  V30 23 H 1.1447 3.1691 -3.9235 0
M  V30 24 H -0.8474 -0.0598 3.1912 0
M  V30 25 H 0.8027 -0.6356 3.7041 0
M  V30 26 H -1.8608 -2.211 4.0139 0
M  V30 27 H -0.2146 -2.7882 4.5358 0
M  V30 28 H 1.6784 4.5123 -1.9077 0
M  V30 END ATOM
M  V30 BEGIN BOND
M  V30 1 2 1 2
M  V30 2 1 2 3
M  V30 3 1 2 4
M  V30 4 1 3 5
M  V30 5 1 4 6
M  V30 6 1 4 7
M  V30 7 2 5 8
M  V30 8 2 7 9
M  V30 9 1 7 10
M  V30 10 1 8 11
M  V30 11 1 9 12
M  V30 12 2 10 13
M  V30 13 1 11 14
M  V30 14 1 11 15
M  V30 15 2 12 16
M  V30 16 1 5 6
M  V30 17 1 13 16
M  V30 18 1 14 15
M  V30 19 1 3 17
M  V30 20 1 4 18
M  V30 21 1 9 19
M  V30 22 1 10 20
M  V30 23 1 11 21
M  V30 24 1 12 22
M  V30 25 1 13 23
M  V30 26 1 14 24
M  V30 27 1 14 25
M  V30 28 1 15 26
M  V30 29 1 15 27
M  V30 30 1 16 28
M  V30 END BOND
M  V30 BEGIN COLLECTION
M  V30 MDLV30/STERAC1 ATOMS=(1 4)
M  V30 END COLLECTION
M  V30 END CTAB
M  END
>  <NO.>
2471

>  <Name>
cyclazodone

>  <SMILES>
O=C1NC(=NC2CC2)OC1c1ccccc1

>  <logBB>


>  <Class>
1

>  <MW>
216.09

>  <nHBAcc>
3

>  <nHBDon>
1

>  <SLogP>
1.39

>  <TopoPSA>
50.69

>  <MMFF94 Energy>
-26.745

$$$$
O=C1NC(=O)C(CC2CCCCN2)(c2ccccc2)C(=O)N1
Actelion Java MolfileCreator 2.0

  0  0  0  0  0  0              0 V3000
M  V30 BEGIN CTAB
M  V30 COUNTS 41 43 0 0 0
M  V30 BEGIN ATOM
M  V30 1 O 3.354 -2.7944 -1.9954 0
M  V30 2 C 2.4612 -2.0547 -1.5975 0
M  V30 3 N 1.175 -2.2105 -2.0013 0
M  V30 4 N 2.6977 -1.0743 -0.6906 0
M  V30 5 C 0.1044 -1.4492 -1.6247 0
M  V30 6 C 1.7655 -0.242 -0.138 0
M  V30 7 O -1.0219 -1.7761 -2.001 0
M  V30 8 C 0.3917 -0.1758 -0.821 0
M  V30 9 O 2.0779 0.4404 0.8381 0
M  V30 10 C 0.3954 1.079 -1.753 0
M  V30 11 C -0.7467 0.0224 0.236 0
M  V30 12 C 0.6952 2.3512 -1.2208 0
M  V30 13 C 0.1005 1.0085 -3.1273 0
M  V30 14 C -1.139 -1.1997 1.114 0 CFG=2
M  V30 15 C 0.7137 3.4926 -2.0261 0
M  V30 16 C 0.1186 2.1533 -3.9311 0
M  V30 17 N -2.409 -0.9515 1.8222 0
M  V30 18 C -0.0844 -1.6728 2.1265 0
M  V30 19 C 0.4272 3.3932 -3.3822 0
M  V30 20 C -2.3001 0.0068 2.9211 0
M  V30 21 C 0.0844 -0.7094 3.2982 0
M  V30 22 C -1.2642 -0.432 3.9511 0
M  V30 23 H 0.985 -2.9973 -2.6066 0
M  V30 24 H 3.633 -1.0277 -0.3108 0
M  V30 25 H -0.497 0.867 0.89 0
M  V30 26 H -1.6512 0.334 -0.3087 0
M  V30 27 H 0.9227 2.476 -0.1625 0
M  V30 28 H -0.1658 0.073 -3.6139 0
M  V30 29 H -1.3414 -2.0488 0.4541 0
M  V30 30 H 0.9508 4.4598 -1.5896 0
M  V30 31 H -0.1165 2.0743 -4.9899 0
M  V30 32 H -3.1199 -0.6359 1.1616 0
M  V30 33 H 0.8782 -1.861 1.6463 0
M  V30 34 H -0.4012 -2.6458 2.5284 0
M  V30 35 H 0.4384 4.2807 -4.0092 0
M  V30 36 H -3.276 0.0864 3.4131 0
M  V30 37 H -2.0614 1.0067 2.542 0
M  V30 38 H 0.5265 0.2326 2.958 0
M  V30 39 H 0.773 -1.1369 4.0355 0
M  V30 40 H -1.615 -1.3391 4.4596 0
M  V30 41 H -1.1529 0.3406 4.7201 0
M  V30 END ATOM
M  V30 BEGIN BOND
M  V30 1 2 1 2
M  V30 2 1 2 3
M  V30 3 1 2 4
M  V30 4 1 3 5
M  V30 5 1 4 6
M  V30 6 2 5 7
M  V30 7 1 5 8
M  V30 8 2 6 9
M  V30 9 1 8 10
M  V30 10 1 8 11
M  V30 11 2 10 12
M  V30 12 1 10 13
M  V30 13 1 11 14
M  V30 14 1 12 15
M  V30 15 2 13 16
M  V30 16 1 14 17
M  V30 17 1 14 18
M  V30 18 2 15 19
M  V30 19 1 17 20
M  V30 20 1 18 21
M  V30 21 1 20 22
M  V30 22 1 6 8
M  V30 23 1 16 19
M  V30 24 1 21 22
M  V30 25 1 3 23
M  V30 26 1 4 24
M  V30 27 1 11 25
M  V30 28 1 11 26
M  V30 29 1 12 27
M  V30 30 1 13 28
M  V30 31 1 14 29
M  V30 32 1 15 30
M  V30 33 1 16 31
M  V30 34 1 17 32
M  V30 35 1 18 33
M  V30 36 1 18 34
M  V30 37 1 19 35
M  V30 38 1 20 36
M  V30 39 1 20 37
M  V30 40 1 21 38
M  V30 41 1 21 39
M  V30 42 1 22 40
M  V30 43 1 22 41
M  V30 END BOND
M  V30 BEGIN COLLECTION
M  V30 MDLV30/STERAC1 ATOMS=(1 14)
M  V30 END COLLECTION
M  V30 END CTAB
M  END
>  <NO.>
2472

>  <Name>
prazitone

>  <SMILES>
O=C1NC(=O)C(CC2CCCCN2)(c2ccccc2)C(=O)N1

>  <logBB>


>  <Class>
1

>  <MW>
301.14

>  <nHBAcc>
4

>  <nHBDon>
3

>  <SLogP>
0.82

>  <TopoPSA>
87.3

>  <MMFF94 Energy>
-80.659

$$$$
O=C1NC(=O)C2(CCc3ccccc3C2)N1
Actelion Java MolfileCreator 2.0

  0  0  0  0  0  0              0 V3000
M  V30 BEGIN CTAB
M  V30 COUNTS 28 30 0 0 0
M  V30 BEGIN ATOM
M  V30 1 O 4.0134 -2.2459 -1.6038 0
M  V30 2 C 3.1837 -1.5343 -1.0687 0
M  V30 3 N 3.3651 -0.7827 0.0381 0
M  V30 4 N 1.8938 -1.3645 -1.5019 0
M  V30 5 C 2.2287 -0.1089 0.3648 0
M  V30 6 C 1.1254 -0.4564 -0.6594 0 CFG=2
M  V30 7 O 2.131 0.6438 1.3219 0
M  V30 8 C -0.0406 -1.1913 0.011 0
M  V30 9 C 0.683 0.7642 -1.4607 0
M  V30 10 C -1.1555 -0.3016 0.5059 0
M  V30 11 C -0.1394 1.738 -0.6218 0
M  V30 12 C -1.2207 1.0628 0.1795 0
M  V30 13 C -2.177 -0.8726 1.2824 0
M  V30 14 C -2.2882 1.8356 0.6629 0
M  V30 15 C -3.2388 -0.0969 1.7458 0
M  V30 16 C -3.2932 1.2582 1.4378 0
M  V30 17 H 4.2291 -0.7298 0.5491 0
M  V30 18 H 1.5538 -1.843 -2.3266 0
M  V30 19 H -0.4883 -1.8874 -0.7118 0
M  V30 20 H 0.3296 -1.7978 0.8484 0
M  V30 21 H 1.5474 1.2955 -1.8795 0
M  V30 22 H 0.0816 0.4322 -2.3184 0
M  V30 23 H -0.5876 2.4784 -1.2961 0
M  V30 24 H 0.5129 2.2864 0.0675 0
M  V30 25 H -2.1479 -1.9307 1.5342 0
M  V30 26 H -2.339 2.8993 0.4394 0
M  V30 27 H -4.0202 -0.5494 2.3505 0
M  V30 28 H -4.1148 1.8678 1.8044 0
M  V30 END ATOM
M  V30 BEGIN BOND
M  V30 1 2 1 2
M  V30 2 1 2 3
M  V30 3 1 2 4
M  V30 4 1 3 5
M  V30 5 1 4 6
M  V30 6 2 5 7
M  V30 7 1 6 8
M  V30 8 1 6 9
M  V30 9 1 8 10
M  V30 10 1 9 11
M  V30 11 2 10 12
M  V30 12 1 10 13
M  V30 13 1 12 14
M  V30 14 2 13 15
M  V30 15 2 14 16
M  V30 16 1 5 6
M  V30 17 1 11 12
M  V30 18 1 15 16
M  V30 19 1 3 17
M  V30 20 1 4 18
M  V30 21 1 8 19
M  V30 22 1 8 20
M  V30 23 1 9 21
M  V30 24 1 9 22
M  V30 25 1 11 23
M  V30 26 1 11 24
M  V30 27 1 13 25
M  V30 28 1 14 26
M  V30 29 1 15 27
M  V30 30 1 16 28
M  V30 END BOND
M  V30 BEGIN COLLECTION
M  V30 MDLV30/STERAC1 ATOMS=(1 6)
M  V30 END COLLECTION
M  V30 END CTAB
M  END
>  <NO.>
2473

>  <Name>
tetrantoin

>  <SMILES>
O=C1NC(=O)C2(CCc3ccccc3C2)N1

>  <logBB>


>  <Class>
1

>  <MW>
216.09

>  <nHBAcc>
2

>  <nHBDon>
2

>  <SLogP>
0.75

>  <TopoPSA>
58.2

>  <MMFF94 Energy>
-43.314

$$$$
O=C1NC(=O)C2(c3ccc(Cl)cc3)CC12
Actelion Java MolfileCreator 2.0

  0  0  0  0  0  0              0 V3000
M  V30 BEGIN CTAB
M  V30 COUNTS 23 25 0 0 0
M  V30 BEGIN ATOM
M  V30 1 Cl 4.4547 -2.3905 -0.4118 0
M  V30 2 C 2.9824 -1.5272 -0.201 0
M  V30 3 C 2.9894 -0.2863 0.4263 0
M  V30 4 C 1.7884 -2.0686 -0.6652 0
M  V30 5 C 1.7897 0.413 0.5925 0
M  V30 6 C 0.5925 -1.3629 -0.4948 0
M  V30 7 C 0.561 -0.1155 0.1557 0
M  V30 8 C -0.7132 0.6916 0.2797 0
M  V30 9 C -1.6225 0.4467 1.4574 0
M  V30 10 C -1.6848 0.8355 -0.9079 0
M  V30 11 C -0.8311 1.9972 -0.4796 0
M  V30 12 O -1.2398 0.2102 2.5904 0
M  V30 13 N -2.9111 0.4531 1.019 0
M  V30 14 C -3.0312 0.6031 -0.326 0
M  V30 15 O -4.0416 0.4855 -0.9945 0
M  V30 16 H 3.919 0.1443 0.7882 0
M  V30 17 H 1.7782 -3.0356 -1.161 0
M  V30 18 H 1.8117 1.3841 1.085 0
M  V30 19 H -0.3291 -1.8046 -0.8692 0
M  V30 20 H -1.4691 0.3652 -1.857 0
M  V30 21 H -1.3072 2.8397 0.0112 0
M  V30 22 H -0.0221 2.2912 -1.1403 0
M  V30 23 H -3.6932 0.2583 1.6215 0
M  V30 END ATOM
M  V30 BEGIN BOND
M  V30 1 1 1 2
M  V30 2 2 2 3
M  V30 3 1 2 4
M  V30 4 1 3 5
M  V30 5 2 4 6
M  V30 6 2 5 7
M  V30 7 1 7 8
M  V30 8 1 8 9
M  V30 9 1 8 10
M  V30 10 1 8 11
M  V30 11 2 9 12
M  V30 12 1 9 13
M  V30 13 1 10 14
M  V30 14 2 14 15
M  V30 15 1 6 7
M  V30 16 1 10 11
M  V30 17 1 13 14
M  V30 18 1 3 16
M  V30 19 1 4 17
M  V30 20 1 5 18
M  V30 21 1 6 19
M  V30 22 1 10 20
M  V30 23 1 11 21
M  V30 24 1 11 22
M  V30 25 1 13 23
M  V30 END BOND
M  V30 END CTAB
M  END
>  <NO.>
2474

>  <Name>
cyproximide(ciproximide)

>  <SMILES>
O=C1NC(=O)C2(c3ccc(Cl)cc3)CC12

>  <logBB>


>  <Class>
1

>  <MW>
221.02

>  <nHBAcc>
2

>  <nHBDon>
1

>  <SLogP>
1.25

>  <TopoPSA>
46.17

>  <MMFF94 Energy>
-7.7207

$$$$
O=C1NC(=O)[C@@]2(CCN(C(=O)Cc3ccc(Cl)c(Cl)c3)[C@@H](CN3CCCC3)C2)N1
Actelion Java MolfileCreator 2.0

  0  0  0  0  0  0              0 V3000
M  V30 BEGIN CTAB
M  V30 COUNTS 53 56 0 0 0
M  V30 BEGIN ATOM
M  V30 1 Cl -5.8588 1.7874 -4.7175 0
M  V30 2 C -5.3991 1.0234 -3.2369 0
M  V30 3 C -6.2516 0.1597 -2.5426 0
M  V30 4 C -4.1227 1.2978 -2.7324 0
M  V30 5 Cl -7.842 -0.2218 -3.1001 0
M  V30 6 C -5.8221 -0.4283 -1.35 0
M  V30 7 C -3.6893 0.7185 -1.53 0
M  V30 8 C -4.548 -0.1532 -0.8475 0
M  V30 9 C -2.302 1.0035 -0.9974 0
M  V30 10 C -1.2354 0.0155 -1.4647 0
M  V30 11 O -1.5188 -0.9283 -2.2045 0
M  V30 12 N 0.0791 0.2397 -1.0367 0
M  V30 13 C 0.4515 1.176 0.0491 0 CFG=2
M  V30 14 C 1.1118 -0.6699 -1.5468 0
M  V30 15 C 1.8432 1.8015 -0.1605 0
M  V30 16 C 0.2386 0.6141 1.4953 0
M  V30 17 C 2.4325 0.0237 -1.8323 0
M  V30 18 C 2.9042 0.8108 -0.6203 0 CFG=2
M  V30 19 N 0.9538 -0.6267 1.8301 0
M  V30 20 N 3.3776 -0.0336 0.4499 0
M  V30 21 C 4.221 1.5398 -0.944 0
M  V30 22 C 1.3893 -0.6473 3.2379 0
M  V30 23 C 0.0892 -1.8162 1.7352 0
M  V30 24 C 4.7066 0.1449 0.7319 0
M  V30 25 O 4.3761 2.4054 -1.7927 0
M  V30 26 N 5.1987 1.0708 -0.1224 0
M  V30 27 C 1.736 -2.1104 3.4717 0
M  V30 28 C 0.9166 -2.8787 2.441 0
M  V30 29 O 5.324 -0.4211 1.6148 0
M  V30 30 H -3.4596 1.96 -3.2856 0
M  V30 31 H -6.4742 -1.1097 -0.8087 0
M  V30 32 H -4.2274 -0.6347 0.0741 0
M  V30 33 H -2.0059 2.0118 -1.3107 0
M  V30 34 H -2.3459 1.0019 0.096 0
M  V30 35 H -0.2413 2.0234 -0.0089 0
M  V30 36 H 0.7715 -1.1545 -2.4684 0
M  V30 37 H 1.2586 -1.4702 -0.818 0
M  V30 38 H 1.7411 2.5743 -0.9364 0
M  V30 39 H 2.164 2.3361 0.7428 0
M  V30 40 H -0.8352 0.4957 1.6848 0
M  V30 41 H 0.5582 1.4122 2.1803 0
M  V30 42 H 2.3027 0.7021 -2.6861 0
M  V30 43 H 3.1797 -0.7197 -2.1368 0
M  V30 44 H 2.7765 -0.6381 1.009 0
M  V30 45 H 2.2526 0.0032 3.41 0
M  V30 46 H 0.5804 -0.3426 3.9148 0
M  V30 47 H -0.1459 -2.1072 0.7095 0
M  V30 48 H -0.8575 -1.6734 2.2731 0
M  V30 49 H 6.1532 1.385 -0.1236 0
M  V30 50 H 2.8046 -2.2919 3.3086 0
M  V30 51 H 1.4934 -2.4188 4.4937 0
M  V30 52 H 0.2854 -3.6416 2.9071 0
M  V30 53 H 1.5873 -3.3803 1.7334 0
M  V30 END ATOM
M  V30 BEGIN BOND
M  V30 1 1 1 2
M  V30 2 2 2 3
M  V30 3 1 2 4
M  V30 4 1 3 5
M  V30 5 1 3 6
M  V30 6 2 4 7
M  V30 7 2 6 8
M  V30 8 1 7 9
M  V30 9 1 9 10
M  V30 10 2 10 11
M  V30 11 1 10 12
M  V30 12 1 12 13
M  V30 13 1 12 14
M  V30 14 1 13 15
M  V30 15 1 13 16
M  V30 16 1 14 17
M  V30 17 1 15 18
M  V30 18 1 16 19
M  V30 19 1 18 20
M  V30 20 1 18 21
M  V30 21 1 19 22
M  V30 22 1 19 23
M  V30 23 1 20 24
M  V30 24 2 21 25
M  V30 25 1 21 26
M  V30 26 1 22 27
M  V30 27 1 23 28
M  V30 28 2 24 29
M  V30 29 1 7 8
M  V30 30 1 17 18
M  V30 31 1 24 26
M  V30 32 1 27 28
M  V30 33 1 4 30
M  V30 34 1 6 31
M  V30 35 1 8 32
M  V30 36 1 9 33
M  V30 37 1 9 34
M  V30 38 1 13 35
M  V30 39 1 14 36
M  V30 40 1 14 37
M  V30 41 1 15 38
M  V30 42 1 15 39
M  V30 43 1 16 40
M  V30 44 1 16 41
M  V30 45 1 17 42
M  V30 46 1 17 43
M  V30 47 1 20 44
M  V30 48 1 22 45
M  V30 49 1 22 46
M  V30 50 1 23 47
M  V30 51 1 23 48
M  V30 52 1 26 49
M  V30 53 1 27 50
M  V30 54 1 27 51
M  V30 55 1 28 52
M  V30 56 1 28 53
M  V30 END BOND
M  V30 BEGIN COLLECTION
M  V30 MDLV30/STEABS ATOMS=(2 13 18)
M  V30 END COLLECTION
M  V30 END CTAB
M  END
>  <NO.>
2475

>  <Name>
sb204454

>  <SMILES>
O=C1NC(=O)[C@@]2(CCN(C(=O)Cc3ccc(Cl)c(Cl)c3)[C@@H](CN3CCCC3)C2)N1

>  <logBB>


>  <Class>
-1

>  <MW>
438.12

>  <nHBAcc>
4

>  <nHBDon>
2

>  <SLogP>
2.2

>  <TopoPSA>
81.75

>  <MMFF94 Energy>
-17.403

$$$$
O=C1NC(CCCl)Oc2ccccc21
Actelion Java MolfileCreator 2.0

  0  0  0  0  0  0              0 V3000
M  V30 BEGIN CTAB
M  V30 COUNTS 24 25 0 0 0
M  V30 BEGIN ATOM
M  V30 1 Cl -0.3232 2.9122 0.6466 0
M  V30 2 C -0.0444 2.366 -1.0192 0
M  V30 3 C 1.377 1.8627 -1.2399 0
M  V30 4 C 1.7104 0.4718 -0.6838 0 CFG=2
M  V30 5 O 0.8194 -0.5188 -1.209 0
M  V30 6 N 1.8874 0.4228 0.7391 0
M  V30 7 C -0.1509 -0.9903 -0.3757 0
M  V30 8 C 1.0007 -0.1268 1.612 0
M  V30 9 C -0.1368 -0.8213 1.0032 0
M  V30 10 C -1.1958 -1.698 -0.971 0
M  V30 11 O 1.1614 -0.0627 2.8233 0
M  V30 12 C -1.1663 -1.337 1.7965 0
M  V30 13 C -2.2304 -2.2132 -0.1862 0
M  V30 14 C -2.2176 -2.0302 1.1969 0
M  V30 15 H -0.223 3.2356 -1.6597 0
M  V30 16 H -0.7988 1.617 -1.271 0
M  V30 17 H 2.0994 2.5989 -0.8659 0
M  V30 18 H 1.5162 1.8118 -2.3282 0
M  V30 19 H 2.6977 0.2098 -1.0832 0
M  V30 20 H 2.6774 0.8866 1.1673 0
M  V30 21 H -1.2081 -1.8475 -2.0474 0
M  V30 22 H -1.1449 -1.2028 2.8758 0
M  V30 23 H -3.0453 -2.7606 -0.6537 0
M  V30 24 H -3.0209 -2.4335 1.8088 0
M  V30 END ATOM
M  V30 BEGIN BOND
M  V30 1 1 1 2
M  V30 2 1 2 3
M  V30 3 1 3 4
M  V30 4 1 4 5
M  V30 5 1 4 6
M  V30 6 1 5 7
M  V30 7 1 6 8
M  V30 8 2 7 9
M  V30 9 1 7 10
M  V30 10 2 8 11
M  V30 11 1 9 12
M  V30 12 2 10 13
M  V30 13 2 12 14
M  V30 14 1 8 9
M  V30 15 1 13 14
M  V30 16 1 2 15
M  V30 17 1 2 16
M  V30 18 1 3 17
M  V30 19 1 3 18
M  V30 20 1 4 19
M  V30 21 1 6 20
M  V30 22 1 10 21
M  V30 23 1 12 22
M  V30 24 1 13 23
M  V30 25 1 14 24
M  V30 END BOND
M  V30 BEGIN COLLECTION
M  V30 MDLV30/STERAC1 ATOMS=(1 4)
M  V30 END COLLECTION
M  V30 END CTAB
M  END
>  <NO.>
2476

>  <Name>
chlorthenoxazine

>  <SMILES>
O=C1NC(CCCl)Oc2ccccc21

>  <logBB>


>  <Class>
1

>  <MW>
211.04

>  <nHBAcc>
2

>  <nHBDon>
1

>  <SLogP>
1.76

>  <TopoPSA>
38.33

>  <MMFF94 Energy>
-13.617

$$$$
O=C1NC(c2ccccc2)(c2ccccc2)C(=O)N1COP(=O)(O)O
Actelion Java MolfileCreator 2.0

  0  0  0  0  0  0              0 V3000
M  V30 BEGIN CTAB
M  V30 COUNTS 40 42 0 0 0
M  V30 BEGIN ATOM
M  V30 1 P 1.2186 3.4148 -3.4963 0
M  V30 2 O 0.2501 4.5205 -3.7298 0
M  V30 3 O 0.6206 1.9466 -3.2951 0
M  V30 4 O 2.2734 3.2206 -4.6788 0
M  V30 5 O 2.1911 3.6164 -2.249 0
M  V30 6 C -0.6054 1.8449 -2.6053 0
M  V30 7 N -0.3716 1.2302 -1.3299 0
M  V30 8 C 0.2095 1.861 -0.2846 0
M  V30 9 C -0.7348 -0.0406 -0.9816 0
M  V30 10 O 0.6347 3.0079 -0.2735 0
M  V30 11 N 0.2683 1.008 0.7799 0
M  V30 12 O -1.327 -0.828 -1.7121 0
M  V30 13 C -0.2894 -0.304 0.494 0
M  V30 14 C 0.7713 -1.4146 0.5121 0
M  V30 15 C -1.4374 -0.5471 1.4853 0
M  V30 16 C 2.1396 -1.1539 0.7123 0
M  V30 17 C 0.3811 -2.7519 0.3002 0
M  V30 18 C -1.1414 -0.7338 2.8528 0
M  V30 19 C -2.7888 -0.5757 1.1002 0
M  V30 20 C 3.0754 -2.1918 0.7152 0
M  V30 21 C 1.3182 -3.7868 0.3043 0
M  V30 22 C -2.1538 -0.9425 3.7916 0
M  V30 23 C -3.8006 -0.7846 2.0426 0
M  V30 24 C 2.6647 -3.5065 0.514 0
M  V30 25 C -3.4838 -0.9667 3.3857 0
M  V30 26 H 2.6769 4.0714 -4.9232 0
M  V30 27 H 1.6908 3.7039 -1.4039 0
M  V30 28 H -1.2872 1.2331 -3.2028 0
M  V30 29 H -1.0655 2.8246 -2.4415 0
M  V30 30 H 0.6403 1.289 1.6751 0
M  V30 31 H 2.5064 -0.1408 0.8601 0
M  V30 32 H -0.6653 -2.9996 0.1226 0
M  V30 33 H -0.1087 -0.7288 3.1984 0
M  V30 34 H -3.0905 -0.446 0.0632 0
M  V30 35 H 4.1293 -1.9717 0.8683 0
M  V30 36 H 0.9948 -4.8113 0.1375 0
M  V30 37 H -1.9025 -1.09 4.839 0
M  V30 38 H -4.8402 -0.8083 1.7239 0
M  V30 39 H 3.3948 -4.3115 0.5126 0
M  V30 40 H -4.2735 -1.1313 4.1142 0
M  V30 END ATOM
M  V30 BEGIN BOND
M  V30 1 2 1 2
M  V30 2 1 1 3
M  V30 3 1 1 4
M  V30 4 1 1 5
M  V30 5 1 3 6
M  V30 6 1 6 7
M  V30 7 1 7 8
M  V30 8 1 7 9
M  V30 9 2 8 10
M  V30 10 1 8 11
M  V30 11 2 9 12
M  V30 12 1 9 13
M  V30 13 1 13 14
M  V30 14 1 13 15
M  V30 15 2 14 16
M  V30 16 1 14 17
M  V30 17 2 15 18
M  V30 18 1 15 19
M  V30 19 1 16 20
M  V30 20 2 17 21
M  V30 21 1 18 22
M  V30 22 2 19 23
M  V30 23 2 20 24
M  V30 24 2 22 25
M  V30 25 1 11 13
M  V30 26 1 21 24
M  V30 27 1 23 25
M  V30 28 1 4 26
M  V30 29 1 5 27
M  V30 30 1 6 28
M  V30 31 1 6 29
M  V30 32 1 11 30
M  V30 33 1 16 31
M  V30 34 1 17 32
M  V30 35 1 18 33
M  V30 36 1 19 34
M  V30 37 1 20 35
M  V30 38 1 21 36
M  V30 39 1 22 37
M  V30 40 1 23 38
M  V30 41 1 24 39
M  V30 42 1 25 40
M  V30 END BOND
M  V30 END CTAB
M  END
>  <NO.>
2477

>  <Name>
fosphenytoin

>  <SMILES>
O=C1NC(c2ccccc2)(c2ccccc2)C(=O)N1COP(=O)(O)O

>  <logBB>


>  <Class>
1

>  <MW>
362.07

>  <nHBAcc>
4

>  <nHBDon>
3

>  <SLogP>
1.55

>  <TopoPSA>
116.17

>  <MMFF94 Energy>
-228.3

$$$$
O=C1NC2CCCCN2C12CCN(CCCN1c3ccccc3CCc3ccc(Cl)cc31)CC2
Actelion Java MolfileCreator 2.0

  0  0  0  0  0  0              0 V3000
M  V30 BEGIN CTAB
M  V30 COUNTS 69 74 0 0 0
M  V30 BEGIN ATOM
M  V30 1 Cl -6.7832 -3.6295 -1.8538 0
M  V30 2 C -6.2671 -1.9985 -1.6642 0
M  V30 3 C -4.9117 -1.6865 -1.7524 0
M  V30 4 C -7.2057 -1.0017 -1.4241 0
M  V30 5 C -4.4665 -0.3657 -1.5954 0
M  V30 6 C -6.7833 0.319 -1.2872 0
M  V30 7 N -3.0848 -0.0815 -1.6455 0
M  V30 8 C -5.4193 0.6424 -1.3797 0
M  V30 9 C -2.4324 0.8456 -2.4966 0
M  V30 10 C -2.3699 -0.3649 -0.3719 0
M  V30 11 C -4.9731 2.0749 -1.2814 0
M  V30 12 C -3.0177 2.0341 -2.9808 0
M  V30 13 C -1.1191 0.5425 -2.9226 0
M  V30 14 C -1.8573 -1.8066 -0.2929 0
M  V30 15 C -4.3972 2.5412 -2.6153 0
M  V30 16 C -2.2894 2.846 -3.8824 0
M  V30 17 C -0.4066 1.3649 -3.7965 0
M  V30 18 C -1.0372 -2.0658 0.9788 0
M  V30 19 C -0.9966 2.5193 -4.2821 0
M  V30 20 N 0.1481 -1.2025 1.1235 0
M  V30 21 C 0.6779 -1.3065 2.4907 0
M  V30 22 C 1.1966 -1.5507 0.1567 0
M  V30 23 C 1.8524 -0.3498 2.7078 0
M  V30 24 C 2.383 -0.5901 0.2607 0
M  V30 25 C 2.9838 -0.5361 1.6817 0
M  V30 26 N 4.0797 0.518 1.6949 0
M  V30 27 C 3.7932 -1.8192 1.951 0
M  V30 28 C 5.2659 -0.197 1.1862 0 CFG=2
M  V30 29 C 4.302 1.0616 3.05 0
M  V30 30 O 3.3896 -2.9181 2.2875 0
M  V30 31 N 5.1143 -1.5116 1.7077 0
M  V30 32 C 6.6327 0.439 1.441 0
M  V30 33 C 5.5916 1.8675 3.1777 0
M  V30 34 C 6.787 0.9895 2.8482 0
M  V30 35 H -4.1945 -2.4724 -1.9687 0
M  V30 36 H -8.2628 -1.2422 -1.3554 0
M  V30 37 H -7.5239 1.0974 -1.1183 0
M  V30 38 H -3.0346 -0.1681 0.4813 0
M  V30 39 H -1.5356 0.3365 -0.2415 0
M  V30 40 H -4.2534 2.1939 -0.4622 0
M  V30 41 H -5.8317 2.7097 -1.0285 0
M  V30 42 H -0.6431 -0.3752 -2.5906 0
M  V30 43 H -1.2823 -2.0674 -1.1866 0
M  V30 44 H -2.7052 -2.4993 -0.2727 0
M  V30 45 H -5.0821 2.2922 -3.4367 0
M  V30 46 H -4.3488 3.6376 -2.5642 0
M  V30 47 H -2.738 3.757 -4.2753 0
M  V30 48 H 0.5981 1.0906 -4.1037 0
M  V30 49 H -1.711 -1.8987 1.83 0
M  V30 50 H -0.7502 -3.1248 1.015 0
M  V30 51 H -0.4581 3.1634 -4.9711 0
M  V30 52 H 0.9671 -2.3376 2.7253 0
M  V30 53 H -0.1048 -1.03 3.2086 0
M  V30 54 H 0.8134 -1.4724 -0.8658 0
M  V30 55 H 1.5314 -2.5869 0.2905 0
M  V30 56 H 1.4706 0.6784 2.6482 0
M  V30 57 H 2.2157 -0.5009 3.7314 0
M  V30 58 H 2.0493 0.415 -0.0328 0
M  V30 59 H 3.1256 -0.9028 -0.4829 0
M  V30 60 H 5.1771 -0.296 0.0969 0
M  V30 61 H 3.4697 1.7254 3.3105 0
M  V30 62 H 4.3342 0.2628 3.8025 0
M  V30 63 H 5.8303 -2.2233 1.7379 0
M  V30 64 H 7.4352 -0.2796 1.2376 0
M  V30 65 H 6.7642 1.2701 0.7354 0
M  V30 66 H 5.5619 2.7371 2.5097 0
M  V30 67 H 5.6869 2.25 4.2003 0
M  V30 68 H 6.8591 0.1657 3.5683 0
M  V30 69 H 7.7136 1.5687 2.9255 0
M  V30 END ATOM
M  V30 BEGIN BOND
M  V30 1 1 1 2
M  V30 2 2 2 3
M  V30 3 1 2 4
M  V30 4 1 3 5
M  V30 5 2 4 6
M  V30 6 1 5 7
M  V30 7 2 5 8
M  V30 8 1 7 9
M  V30 9 1 7 10
M  V30 10 1 8 11
M  V30 11 2 9 12
M  V30 12 1 9 13
M  V30 13 1 10 14
M  V30 14 1 11 15
M  V30 15 1 12 16
M  V30 16 2 13 17
M  V30 17 1 14 18
M  V30 18 2 16 19
M  V30 19 1 18 20
M  V30 20 1 20 21
M  V30 21 1 20 22
M  V30 22 1 21 23
M  V30 23 1 22 24
M  V30 24 1 23 25
M  V30 25 1 25 26
M  V30 26 1 25 27
M  V30 27 1 26 28
M  V30 28 1 26 29
M  V30 29 2 27 30
M  V30 30 1 27 31
M  V30 31 1 28 32
M  V30 32 1 29 33
M  V30 33 1 32 34
M  V30 34 1 6 8
M  V30 35 1 12 15
M  V30 36 1 17 19
M  V30 37 1 24 25
M  V30 38 1 28 31
M  V30 39 1 33 34
M  V30 40 1 3 35
M  V30 41 1 4 36
M  V30 42 1 6 37
M  V30 43 1 10 38
M  V30 44 1 10 39
M  V30 45 1 11 40
M  V30 46 1 11 41
M  V30 47 1 13 42
M  V30 48 1 14 43
M  V30 49 1 14 44
M  V30 50 1 15 45
M  V30 51 1 15 46
M  V30 52 1 16 47
M  V30 53 1 17 48
M  V30 54 1 18 49
M  V30 55 1 18 50
M  V30 56 1 19 51
M  V30 57 1 21 52
M  V30 58 1 21 53
M  V30 59 1 22 54
M  V30 60 1 22 55
M  V30 61 1 23 56
M  V30 62 1 23 57
M  V30 63 1 24 58
M  V30 64 1 24 59
M  V30 65 1 28 60
M  V30 66 1 29 61
M  V30 67 1 29 62
M  V30 68 1 31 63
M  V30 69 1 32 64
M  V30 70 1 32 65
M  V30 71 1 33 66
M  V30 72 1 33 67
M  V30 73 1 34 68
M  V30 74 1 34 69
M  V30 END BOND
M  V30 BEGIN COLLECTION
M  V30 MDLV30/STERAC1 ATOMS=(1 28)
M  V30 END COLLECTION
M  V30 END CTAB
M  END
>  <NO.>
2478

>  <Name>
mosapramine

>  <SMILES>
O=C1NC2CCCCN2C12CCN(CCCN1c3ccccc3CCc3ccc(Cl)cc31)CC2

>  <logBB>


>  <Class>
1

>  <MW>
478.25

>  <nHBAcc>
4

>  <nHBDon>
1

>  <SLogP>
4.74

>  <TopoPSA>
38.82

>  <MMFF94 Energy>
32.063

$$$$
O=C1NCCCC1N1C(=O)c2ccccc2S1(=O)=O
Actelion Java MolfileCreator 2.0

  0  0  0  0  0  0              0 V3000
M  V30 BEGIN CTAB
M  V30 COUNTS 31 33 0 0 0
M  V30 BEGIN ATOM
M  V30 1 S 0.7407 0.6584 -0.9877 0
M  V30 2 O -0.4316 1.4438 -1.2865 0
M  V30 3 O 2.0603 1.2336 -0.867 0
M  V30 4 N 0.4632 -0.3343 0.3481 0
M  V30 5 C 0.8281 -0.673 -2.0996 0
M  V30 6 C 0.3839 -1.7093 0.0047 0
M  V30 7 C -0.2124 0.2207 1.5371 0 CFG=2
M  V30 8 C 0.6269 -1.8753 -1.4389 0
M  V30 9 C 1.0691 -0.5979 -3.4593 0
M  V30 10 O 0.1555 -2.6175 0.7815 0
M  V30 11 C -1.7023 0.4402 1.2395 0
M  V30 12 C 0.4965 1.4609 2.0825 0
M  V30 13 C 0.6549 -3.0734 -2.1353 0
M  V30 14 C 1.1018 -1.8 -4.1693 0
M  V30 15 O -2.3499 -0.2996 0.4982 0
M  V30 16 N -2.3377 1.4588 1.8968 0
M  V30 17 C -0.3363 2.0866 3.1954 0
M  V30 18 C 0.8958 -3.0283 -3.513 0
M  V30 19 C -1.682 2.5147 2.6327 0
M  V30 20 H -0.1849 -0.5393 2.3304 0
M  V30 21 H 1.2244 0.3551 -3.9551 0
M  V30 22 H 1.4875 1.1866 2.4627 0
M  V30 23 H 0.6545 2.2155 1.304 0
M  V30 24 H 0.4903 -4.019 -1.6262 0
M  V30 25 H 1.2856 -1.7896 -5.2423 0
M  V30 26 H -3.3217 1.5486 1.6689 0
M  V30 27 H 0.1838 2.952 3.6199 0
M  V30 28 H -0.4793 1.3605 4.0049 0
M  V30 29 H 0.9216 -3.9535 -4.0861 0
M  V30 30 H -2.3555 2.8326 3.4347 0
M  V30 31 H -1.559 3.3561 1.942 0
M  V30 END ATOM
M  V30 BEGIN BOND
M  V30 1 2 1 2
M  V30 2 2 1 3
M  V30 3 1 1 4
M  V30 4 1 1 5
M  V30 5 1 4 6
M  V30 6 1 4 7
M  V30 7 2 5 8
M  V30 8 1 5 9
M  V30 9 2 6 10
M  V30 10 1 7 11
M  V30 11 1 7 12
M  V30 12 1 8 13
M  V30 13 2 9 14
M  V30 14 2 11 15
M  V30 15 1 11 16
M  V30 16 1 12 17
M  V30 17 2 13 18
M  V30 18 1 16 19
M  V30 19 1 6 8
M  V30 20 1 14 18
M  V30 21 1 17 19
M  V30 22 1 7 20
M  V30 23 1 9 21
M  V30 24 1 12 22
M  V30 25 1 12 23
M  V30 26 1 13 24
M  V30 27 1 14 25
M  V30 28 1 16 26
M  V30 29 1 17 27
M  V30 30 1 17 28
M  V30 31 1 18 29
M  V30 32 1 19 30
M  V30 33 1 19 31
M  V30 END BOND
M  V30 BEGIN COLLECTION
M  V30 MDLV30/STERAC1 ATOMS=(1 7)
M  V30 END COLLECTION
M  V30 END CTAB
M  END
>  <NO.>
2479

>  <Name>
supidimide

>  <SMILES>
O=C1NCCCC1N1C(=O)c2ccccc2S1(=O)=O

>  <logBB>


>  <Class>
1

>  <MW>
280.05

>  <nHBAcc>
4

>  <nHBDon>
1

>  <SLogP>
0.11

>  <TopoPSA>
83.55

>  <MMFF94 Energy>
-72.251

$$$$
O=C1NCCN1C1CCN(CCC2COc3ccccc3O2)CC1
Actelion Java MolfileCreator 2.0

  0  0  0  0  0  0              0 V3000
M  V30 BEGIN CTAB
M  V30 COUNTS 49 52 0 0 0
M  V30 BEGIN ATOM
M  V30 1 O 1.6736 -3.2695 -4.0682 0
M  V30 2 C 1.8561 -2.0854 -3.8486 0
M  V30 3 N 1.7642 -1.4257 -2.6277 0
M  V30 4 N 2.1866 -1.1495 -4.8098 0
M  V30 5 C 1.2964 -2.0666 -1.4004 0
M  V30 6 C 1.9206 0.0062 -2.7978 0
M  V30 7 C 2.372 0.1567 -4.2466 0
M  V30 8 C 2.0211 -1.563 -0.1495 0
M  V30 9 C -0.2223 -1.9322 -1.2473 0
M  V30 10 C 1.4472 -2.2145 1.1103 0
M  V30 11 C -0.6931 -2.5763 0.0569 0
M  V30 12 N -0.0088 -2.0607 1.256 0
M  V30 13 C -0.4407 -0.6845 1.5734 0
M  V30 14 C -0.11 -0.2912 3.0188 0
M  V30 15 C -0.5623 1.117 3.4526 0 CFG=2
M  V30 16 O -1.9827 1.2737 3.3384 0
M  V30 17 C 0.2071 2.2725 2.8088 0
M  V30 18 C -2.386 1.9509 2.2191 0
M  V30 19 O -0.1441 2.4779 1.4407 0
M  V30 20 C -1.506 2.5211 1.2965 0
M  V30 21 C -3.7614 2.0299 2.0056 0
M  V30 22 C -1.9968 3.1371 0.1465 0
M  V30 23 C -4.2557 2.662 0.8631 0
M  V30 24 C -3.3736 3.2114 -0.0681 0
M  V30 25 H 2.3202 -1.423 -5.7736 0
M  V30 26 H 1.5163 -3.138 -1.5057 0
M  V30 27 H 0.9548 0.4932 -2.6305 0
M  V30 28 H 2.6617 0.4032 -2.0991 0
M  V30 29 H 3.433 0.4141 -4.3184 0
M  V30 30 H 1.7806 0.8906 -4.8004 0
M  V30 31 H 1.9488 -0.4726 -0.0664 0
M  V30 32 H 3.0909 -1.7932 -0.2257 0
M  V30 33 H -0.7267 -2.4142 -2.0938 0
M  V30 34 H -0.5204 -0.8769 -1.2748 0
M  V30 35 H 1.9744 -1.835 1.9915 0
M  V30 36 H 1.6764 -3.2884 1.088 0
M  V30 37 H -0.5263 -3.6602 0.0021 0
M  V30 38 H -1.7791 -2.458 0.1582 0
M  V30 39 H -1.53 -0.6318 1.4615 0
M  V30 40 H -0.0101 0.03 0.8681 0
M  V30 41 H 0.9668 -0.3688 3.2033 0
M  V30 42 H -0.5994 -1.0182 3.6811 0
M  V30 43 H -0.3524 1.1749 4.529 0
M  V30 44 H 0.014 3.2082 3.3509 0
M  V30 45 H 1.286 2.0899 2.8558 0
M  V30 46 H -4.4477 1.5881 2.723 0
M  V30 47 H -1.3089 3.5662 -0.576 0
M  V30 48 H -5.3285 2.7186 0.6965 0
M  V30 49 H -3.7591 3.6977 -0.9606 0
M  V30 END ATOM
M  V30 BEGIN BOND
M  V30 1 2 1 2
M  V30 2 1 2 3
M  V30 3 1 2 4
M  V30 4 1 3 5
M  V30 5 1 3 6
M  V30 6 1 4 7
M  V30 7 1 5 8
M  V30 8 1 5 9
M  V30 9 1 8 10
M  V30 10 1 9 11
M  V30 11 1 10 12
M  V30 12 1 12 13
M  V30 13 1 13 14
M  V30 14 1 14 15
M  V30 15 1 15 16
M  V30 16 1 15 17
M  V30 17 1 16 18
M  V30 18 1 17 19
M  V30 19 2 18 20
M  V30 20 1 18 21
M  V30 21 1 20 22
M  V30 22 2 21 23
M  V30 23 2 22 24
M  V30 24 1 6 7
M  V30 25 1 11 12
M  V30 26 1 19 20
M  V30 27 1 23 24
M  V30 28 1 4 25
M  V30 29 1 5 26
M  V30 30 1 6 27
M  V30 31 1 6 28
M  V30 32 1 7 29
M  V30 33 1 7 30
M  V30 34 1 8 31
M  V30 35 1 8 32
M  V30 36 1 9 33
M  V30 37 1 9 34
M  V30 38 1 10 35
M  V30 39 1 10 36
M  V30 40 1 11 37
M  V30 41 1 11 38
M  V30 42 1 13 39
M  V30 43 1 13 40
M  V30 44 1 14 41
M  V30 45 1 14 42
M  V30 46 1 15 43
M  V30 47 1 17 44
M  V30 48 1 17 45
M  V30 49 1 21 46
M  V30 50 1 22 47
M  V30 51 1 23 48
M  V30 52 1 24 49
M  V30 END BOND
M  V30 BEGIN COLLECTION
M  V30 MDLV30/STERAC1 ATOMS=(1 15)
M  V30 END COLLECTION
M  V30 END CTAB
M  END
>  <NO.>
2480

>  <Name>
schembl11222377

>  <SMILES>
O=C1NCCN1C1CCN(CCC2COc3ccccc3O2)CC1

>  <logBB>


>  <Class>
1

>  <MW>
331.19

>  <nHBAcc>
4

>  <nHBDon>
1

>  <SLogP>
1.71

>  <TopoPSA>
54.04

>  <MMFF94 Energy>
-8.216

$$$$
O=C1NCCN1CCN1CCC(c2cn(-c3ccc(F)cc3)c3ccc(Cl)cc23)CC1
Actelion Java MolfileCreator 2.0

  0  0  0  0  0  0              0 V3000
M  V30 BEGIN CTAB
M  V30 COUNTS 57 61 0 0 0
M  V30 BEGIN ATOM
M  V30 1 Cl 5.7318 2.661 -3.1454 0
M  V30 2 C 4.0922 2.7878 -2.6326 0
M  V30 3 C 3.3985 1.6329 -2.2633 0
M  V30 4 C 3.483 4.0355 -2.5847 0
M  V30 5 C 2.0549 1.7321 -1.8379 0
M  V30 6 C 2.1538 4.1613 -2.1716 0
M  V30 7 C 1.4508 2.9945 -1.8137 0
M  V30 8 C 1.0939 0.7664 -1.3783 0
M  V30 9 N 0.1474 2.8119 -1.3774 0
M  V30 10 C -0.0575 1.478 -1.1041 0
M  V30 11 C 1.3441 -0.7231 -1.244 0
M  V30 12 C -0.8385 3.8135 -1.2275 0
M  V30 13 C 2.1734 -1.0578 0.0057 0
M  V30 14 C 0.0879 -1.6062 -1.3222 0
M  V30 15 C -1.1821 4.6169 -2.3218 0
M  V30 16 C -1.4749 3.9693 0.0104 0
M  V30 17 C 1.3157 -1.1626 1.2671 0
M  V30 18 C -0.6577 -1.7403 0.0097 0
M  V30 19 C -2.1648 5.5949 -2.1673 0
M  V30 20 C -2.4557 4.951 0.1536 0
M  V30 21 N 0.1968 -2.1049 1.1455 0
M  V30 22 C -2.7902 5.7539 -0.9335 0
M  V30 23 C 0.6398 -3.5116 1.1368 0
M  V30 24 F -3.7327 6.6948 -0.7906 0
M  V30 25 C -0.4824 -4.5722 1.2046 0
M  V30 26 N -1.47 -4.3382 2.2435 0
M  V30 27 C -2.8348 -4.2521 2.0254 0
M  V30 28 C -1.1444 -4.2224 3.6475 0
M  V30 29 O -3.4277 -4.3482 0.9654 0
M  V30 30 N -3.4432 -4.0418 3.2486 0
M  V30 31 C -2.4842 -3.9176 4.3098 0
M  V30 32 H 3.8909 0.6659 -2.2965 0
M  V30 33 H 4.0384 4.9268 -2.8665 0
M  V30 34 H 1.6865 5.1409 -2.1254 0
M  V30 35 H -1.0281 1.1508 -0.758 0
M  V30 36 H 1.9559 -0.9905 -2.1182 0
M  V30 37 H 2.961 -0.3121 0.1685 0
M  V30 38 H 2.6925 -2.0103 -0.159 0
M  V30 39 H 0.3927 -2.6096 -1.6478 0
M  V30 40 H -0.6001 -1.2362 -2.0922 0
M  V30 41 H -0.7068 4.4821 -3.2906 0
M  V30 42 H -1.2109 3.3462 0.8617 0
M  V30 43 H 0.9152 -0.1721 1.5189 0
M  V30 44 H 1.9488 -1.4406 2.1188 0
M  V30 45 H -1.483 -2.4496 -0.1098 0
M  V30 46 H -1.1522 -0.795 0.2564 0
M  V30 47 H -2.4519 6.2302 -2.9994 0
M  V30 48 H -2.9615 5.0963 1.103 0
M  V30 49 H 1.2781 -3.6694 2.0161 0
M  V30 50 H 1.2629 -3.7333 0.2628 0
M  V30 51 H -0.9906 -4.6425 0.2367 0
M  V30 52 H -0.0374 -5.5546 1.4007 0
M  V30 53 H -0.7278 -5.1734 3.9938 0
M  V30 54 H -0.419 -3.4214 3.8139 0
M  V30 55 H -4.4452 -3.9313 3.3163 0
M  V30 56 H -2.5257 -2.8955 4.6978 0
M  V30 57 H -2.7276 -4.6205 5.111 0
M  V30 END ATOM
M  V30 BEGIN BOND
M  V30 1 1 1 2
M  V30 2 2 2 3
M  V30 3 1 2 4
M  V30 4 1 3 5
M  V30 5 2 4 6
M  V30 6 2 5 7
M  V30 7 1 5 8
M  V30 8 1 7 9
M  V30 9 2 8 10
M  V30 10 1 8 11
M  V30 11 1 9 12
M  V30 12 1 11 13
M  V30 13 1 11 14
M  V30 14 2 12 15
M  V30 15 1 12 16
M  V30 16 1 13 17
M  V30 17 1 14 18
M  V30 18 1 15 19
M  V30 19 2 16 20
M  V30 20 1 17 21
M  V30 21 2 19 22
M  V30 22 1 21 23
M  V30 23 1 22 24
M  V30 24 1 23 25
M  V30 25 1 25 26
M  V30 26 1 26 27
M  V30 27 1 26 28
M  V30 28 2 27 29
M  V30 29 1 27 30
M  V30 30 1 28 31
M  V30 31 1 6 7
M  V30 32 1 9 10
M  V30 33 1 18 21
M  V30 34 1 20 22
M  V30 35 1 30 31
M  V30 36 1 3 32
M  V30 37 1 4 33
M  V30 38 1 6 34
M  V30 39 1 10 35
M  V30 40 1 11 36
M  V30 41 1 13 37
M  V30 42 1 13 38
M  V30 43 1 14 39
M  V30 44 1 14 40
M  V30 45 1 15 41
M  V30 46 1 16 42
M  V30 47 1 17 43
M  V30 48 1 17 44
M  V30 49 1 18 45
M  V30 50 1 18 46
M  V30 51 1 19 47
M  V30 52 1 20 48
M  V30 53 1 23 49
M  V30 54 1 23 50
M  V30 55 1 25 51
M  V30 56 1 25 52
M  V30 57 1 28 53
M  V30 58 1 28 54
M  V30 59 1 30 55
M  V30 60 1 31 56
M  V30 61 1 31 57
M  V30 END BOND
M  V30 END CTAB
M  END
>  <NO.>
2481

>  <Name>
sertindole

>  <SMILES>
O=C1NCCN1CCN1CCC(c2cn(-c3ccc(F)cc3)c3ccc(Cl)cc23)CC1

>  <logBB>


>  <Class>
1

>  <MW>
440.18

>  <nHBAcc>
2

>  <nHBDon>
1

>  <SLogP>
4.63

>  <TopoPSA>
40.51

>  <MMFF94 Energy>
14.66

$$$$
O=C1NCCNC1c1cccs1
Actelion Java MolfileCreator 2.0

  0  0  0  0  0  0              0 V3000
M  V30 BEGIN CTAB
M  V30 COUNTS 22 23 0 0 0
M  V30 BEGIN ATOM
M  V30 1 S 0.5703 1.3854 2.4459 0
M  V30 2 C 0.0153 0.3152 1.2167 0
M  V30 3 C -1.0223 1.7742 2.9248 0
M  V30 4 C -1.3682 0.2741 1.1868 0
M  V30 5 C 1.0318 -0.403 0.3525 0 CFG=2
M  V30 6 C -1.9647 1.113 2.1719 0
M  V30 7 N 1.5665 0.4926 -0.7086 0
M  V30 8 C 0.4358 -1.7296 -0.1948 0
M  V30 9 C 0.6453 0.6019 -1.8408 0
M  V30 10 O 0.2187 -2.7095 0.5204 0
M  V30 11 N 0.0624 -1.7837 -1.5159 0
M  V30 12 C 0.4268 -0.7705 -2.4799 0
M  V30 13 H -1.1916 2.4668 3.7379 0
M  V30 14 H -1.9348 -0.3378 0.4944 0
M  V30 15 H 1.8861 -0.7014 0.9741 0
M  V30 16 H -3.0318 1.2213 2.3231 0
M  V30 17 H 1.7182 1.411 -0.2924 0
M  V30 18 H -0.3108 1.0337 -1.5238 0
M  V30 19 H 1.0697 1.2824 -2.5867 0
M  V30 20 H -0.3217 -2.669 -1.8202 0
M  V30 21 H -0.3657 -0.7246 -3.2331 0
M  V30 22 H 1.3438 -1.1141 -2.9715 0
M  V30 END ATOM
M  V30 BEGIN BOND
M  V30 1 1 1 2
M  V30 2 1 1 3
M  V30 3 2 2 4
M  V30 4 1 2 5
M  V30 5 2 3 6
M  V30 6 1 5 7
M  V30 7 1 5 8
M  V30 8 1 7 9
M  V30 9 2 8 10
M  V30 10 1 8 11
M  V30 11 1 9 12
M  V30 12 1 4 6
M  V30 13 1 11 12
M  V30 14 1 3 13
M  V30 15 1 4 14
M  V30 16 1 5 15
M  V30 17 1 6 16
M  V30 18 1 7 17
M  V30 19 1 9 18
M  V30 20 1 9 19
M  V30 21 1 11 20
M  V30 22 1 12 21
M  V30 23 1 12 22
M  V30 END BOND
M  V30 BEGIN COLLECTION
M  V30 MDLV30/STERAC1 ATOMS=(1 5)
M  V30 END COLLECTION
M  V30 END CTAB
M  END
>  <NO.>
2482

>  <Name>
tenilsetam

>  <SMILES>
O=C1NCCNC1c1cccs1

>  <logBB>


>  <Class>
1

>  <MW>
182.05

>  <nHBAcc>
3

>  <nHBDon>
2

>  <SLogP>
0.51

>  <TopoPSA>
41.13

>  <MMFF94 Energy>
83.193

$$$$
O=C1NCN(c2ccccc2)C12CCN(CC1COc3ccccc3O1)CC2
Actelion Java MolfileCreator 2.0

  0  0  0  0  0  0              0 V3000
M  V30 BEGIN CTAB
M  V30 COUNTS 53 57 0 0 0
M  V30 BEGIN ATOM
M  V30 1 O 1.9246 -4.4953 0.8817 0
M  V30 2 C 1.0868 -3.9061 1.5465 0
M  V30 3 N 0.3279 -4.5057 2.5249 0
M  V30 4 C 0.6642 -2.4256 1.4545 0
M  V30 5 C -0.6033 -3.6349 3.1498 0
M  V30 6 N -0.2734 -2.3369 2.6031 0
M  V30 7 C -0.0267 -2.2364 0.0991 0
M  V30 8 C 1.9165 -1.5623 1.6246 0
M  V30 9 C -1.0621 -1.2618 2.9241 0
M  V30 10 C -0.0676 -0.7809 -0.3525 0
M  V30 11 C 1.7772 -0.1578 1.0426 0
M  V30 12 C -2.4009 -1.1859 2.5192 0
M  V30 13 C -0.5568 -0.2181 3.7061 0
M  V30 14 N 1.2835 -0.1959 -0.3415 0
M  V30 15 C -3.2009 -0.0919 2.8613 0
M  V30 16 C -1.3502 0.8787 4.0538 0
M  V30 17 C 1.2662 1.1624 -0.9273 0
M  V30 18 C -2.6734 0.9428 3.6278 0
M  V30 19 C 1.8709 1.2121 -2.3505 0 CFG=2
M  V30 20 O 1.9759 2.5876 -2.7751 0
M  V30 21 C 1.1369 0.3899 -3.4064 0
M  V30 22 C 0.8305 3.0498 -3.3706 0
M  V30 23 O -0.2021 0.8577 -3.6051 0
M  V30 24 C -0.2253 2.2198 -3.7584 0
M  V30 25 C 0.7475 4.4254 -3.5788 0
M  V30 26 C -1.3789 2.7694 -4.3143 0
M  V30 27 C -0.4015 4.9751 -4.1501 0
M  V30 28 C -1.4662 4.1483 -4.5125 0
M  V30 29 H 0.439 -5.4843 2.7427 0
M  V30 30 H -0.4595 -3.6767 4.2338 0
M  V30 31 H -1.6123 -3.968 2.8872 0
M  V30 32 H -1.0452 -2.6445 0.1148 0
M  V30 33 H 0.5081 -2.8089 -0.6718 0
M  V30 34 H 2.7658 -2.0415 1.1176 0
M  V30 35 H 2.2052 -1.4947 2.6811 0
M  V30 36 H -0.4827 -0.7623 -1.366 0
M  V30 37 H -0.7536 -0.1974 0.2722 0
M  V30 38 H 1.1315 0.4663 1.6689 0
M  V30 39 H 2.7731 0.3031 1.0641 0
M  V30 40 H -2.8314 -1.9788 1.913 0
M  V30 41 H 0.4694 -0.2593 4.062 0
M  V30 42 H -4.2338 -0.0493 2.5263 0
M  V30 43 H -0.9331 1.6787 4.6596 0
M  V30 44 H 0.2602 1.6022 -0.9063 0
M  V30 45 H 1.8657 1.8527 -0.3164 0
M  V30 46 H -3.2924 1.7951 3.8951 0
M  V30 47 H 2.902 0.8414 -2.2919 0
M  V30 48 H 1.6607 0.4436 -4.3703 0
M  V30 49 H 1.0895 -0.6673 -3.1283 0
M  V30 50 H 1.5724 5.0692 -3.287 0
M  V30 51 H -2.2033 2.1233 -4.6024 0
M  V30 52 H -0.4682 6.0485 -4.3081 0
M  V30 53 H -2.3625 4.5771 -4.9533 0
M  V30 END ATOM
M  V30 BEGIN BOND
M  V30 1 2 1 2
M  V30 2 1 2 3
M  V30 3 1 2 4
M  V30 4 1 3 5
M  V30 5 1 4 6
M  V30 6 1 4 7
M  V30 7 1 4 8
M  V30 8 1 6 9
M  V30 9 1 7 10
M  V30 10 1 8 11
M  V30 11 2 9 12
M  V30 12 1 9 13
M  V30 13 1 10 14
M  V30 14 1 12 15
M  V30 15 2 13 16
M  V30 16 1 14 17
M  V30 17 2 15 18
M  V30 18 1 17 19
M  V30 19 1 19 20
M  V30 20 1 19 21
M  V30 21 1 20 22
M  V30 22 1 21 23
M  V30 23 2 22 24
M  V30 24 1 22 25
M  V30 25 1 24 26
M  V30 26 2 25 27
M  V30 27 2 26 28
M  V30 28 1 5 6
M  V30 29 1 11 14
M  V30 30 1 16 18
M  V30 31 1 23 24
M  V30 32 1 27 28
M  V30 33 1 3 29
M  V30 34 1 5 30
M  V30 35 1 5 31
M  V30 36 1 7 32
M  V30 37 1 7 33
M  V30 38 1 8 34
M  V30 39 1 8 35
M  V30 40 1 10 36
M  V30 41 1 10 37
M  V30 42 1 11 38
M  V30 43 1 11 39
M  V30 44 1 12 40
M  V30 45 1 13 41
M  V30 46 1 15 42
M  V30 47 1 16 43
M  V30 48 1 17 44
M  V30 49 1 17 45
M  V30 50 1 18 46
M  V30 51 1 19 47
M  V30 52 1 21 48
M  V30 53 1 21 49
M  V30 54 1 25 50
M  V30 55 1 26 51
M  V30 56 1 27 52
M  V30 57 1 28 53
M  V30 END BOND
M  V30 BEGIN COLLECTION
M  V30 MDLV30/STERAC1 ATOMS=(1 19)
M  V30 END COLLECTION
M  V30 END CTAB
M  END
>  <NO.>
2483

>  <Name>
spiroxatrine

>  <SMILES>
O=C1NCN(c2ccccc2)C12CCN(CC1COc3ccccc3O1)CC2

>  <logBB>


>  <Class>
1

>  <MW>
379.19

>  <nHBAcc>
5

>  <nHBDon>
1

>  <SLogP>
2.25

>  <TopoPSA>
54.04

>  <MMFF94 Energy>
66.292

$$$$
O=C1NCN(c2ccccc2)C12CCN(CCCOc1ccc(F)cc1)CC2
Actelion Java MolfileCreator 2.0

  0  0  0  0  0  0              0 V3000
M  V30 BEGIN CTAB
M  V30 COUNTS 54 57 0 0 0
M  V30 BEGIN ATOM
M  V30 1 F -4.4698 1.8339 7.5116 0
M  V30 2 C -3.5936 2.0105 6.5141 0
M  V30 3 C -3.0761 0.9034 5.8524 0
M  V30 4 C -3.2148 3.2969 6.1545 0
M  V30 5 C -2.1607 1.0825 4.8107 0
M  V30 6 C -2.3016 3.4748 5.1143 0
M  V30 7 C -1.7688 2.3712 4.438 0
M  V30 8 O -0.887 2.6867 3.4413 0
M  V30 9 C -0.2808 1.5959 2.7418 0
M  V30 10 C 0.6556 2.1837 1.689 0
M  V30 11 C 1.475 1.1168 0.9565 0
M  V30 12 N 0.6695 0.0467 0.3402 0
M  V30 13 C 1.5532 -1.0383 -0.1153 0
M  V30 14 C -0.1148 0.546 -0.7994 0
M  V30 15 C 0.7431 -2.2299 -0.6126 0
M  V30 16 C -1.0187 -0.5405 -1.3777 0
M  V30 17 C -0.2914 -1.8525 -1.6777 0
M  V30 18 N 0.2422 -1.9283 -3.0614 0
M  V30 19 C -1.3404 -2.9826 -1.7144 0
M  V30 20 C 1.3129 -1.231 -3.5587 0
M  V30 21 C -0.2197 -3.1009 -3.7713 0
M  V30 22 O -2.1357 -3.3031 -0.845 0
M  V30 23 N -1.2321 -3.6257 -2.9255 0
M  V30 24 C 2.5947 -1.7934 -3.6102 0
M  V30 25 C 1.1451 0.0591 -4.0719 0
M  V30 26 C 3.6782 -1.0814 -4.1325 0
M  V30 27 C 2.2229 0.7776 -4.5969 0
M  V30 28 C 3.4918 0.207 -4.6242 0
M  V30 29 H -3.3883 -0.0929 6.1488 0
M  V30 30 H -3.6296 4.1499 6.6811 0
M  V30 31 H -1.777 0.1991 4.3107 0
M  V30 32 H -2.0007 4.4792 4.8263 0
M  V30 33 H -1.0559 0.9929 2.255 0
M  V30 34 H 0.2945 0.9789 3.4424 0
M  V30 35 H 0.0802 2.796 0.9845 0
M  V30 36 H 1.3451 2.8856 2.1762 0
M  V30 37 H 2.1143 1.6027 0.2077 0
M  V30 38 H 2.1501 0.6712 1.6993 0
M  V30 39 H 2.1699 -1.3891 0.7219 0
M  V30 40 H 2.2459 -0.6835 -0.8869 0
M  V30 41 H 0.5429 0.9592 -1.5704 0
M  V30 42 H -0.7702 1.3644 -0.4812 0
M  V30 43 H 1.4233 -3.0083 -0.9806 0
M  V30 44 H 0.234 -2.6709 0.2563 0
M  V30 45 H -1.5225 -0.1588 -2.2747 0
M  V30 46 H -1.8183 -0.7216 -0.6454 0
M  V30 47 H 0.5559 -3.864 -3.8904 0
M  V30 48 H -0.6593 -2.8514 -4.7417 0
M  V30 49 H -1.827 -4.4077 -3.1537 0
M  V30 50 H 2.7639 -2.7961 -3.226 0
M  V30 51 H 0.1575 0.5137 -4.0751 0
M  V30 52 H 4.6657 -1.5347 -4.1538 0
M  V30 53 H 2.0668 1.7796 -4.9876 0
M  V30 54 H 4.3316 0.7632 -5.0319 0
M  V30 END ATOM
M  V30 BEGIN BOND
M  V30 1 1 1 2
M  V30 2 2 2 3
M  V30 3 1 2 4
M  V30 4 1 3 5
M  V30 5 2 4 6
M  V30 6 2 5 7
M  V30 7 1 7 8
M  V30 8 1 8 9
M  V30 9 1 9 10
M  V30 10 1 10 11
M  V30 11 1 11 12
M  V30 12 1 12 13
M  V30 13 1 12 14
M  V30 14 1 13 15
M  V30 15 1 14 16
M  V30 16 1 15 17
M  V30 17 1 17 18
M  V30 18 1 17 19
M  V30 19 1 18 20
M  V30 20 1 18 21
M  V30 21 2 19 22
M  V30 22 1 19 23
M  V30 23 2 20 24
M  V30 24 1 20 25
M  V30 25 1 24 26
M  V30 26 2 25 27
M  V30 27 2 26 28
M  V30 28 1 6 7
M  V30 29 1 16 17
M  V30 30 1 21 23
M  V30 31 1 27 28
M  V30 32 1 3 29
M  V30 33 1 4 30
M  V30 34 1 5 31
M  V30 35 1 6 32
M  V30 36 1 9 33
M  V30 37 1 9 34
M  V30 38 1 10 35
M  V30 39 1 10 36
M  V30 40 1 11 37
M  V30 41 1 11 38
M  V30 42 1 13 39
M  V30 43 1 13 40
M  V30 44 1 14 41
M  V30 45 1 14 42
M  V30 46 1 15 43
M  V30 47 1 15 44
M  V30 48 1 16 45
M  V30 49 1 16 46
M  V30 50 1 21 47
M  V30 51 1 21 48
M  V30 52 1 23 49
M  V30 53 1 24 50
M  V30 54 1 25 51
M  V30 55 1 26 52
M  V30 56 1 27 53
M  V30 57 1 28 54
M  V30 END BOND
M  V30 END CTAB
M  END
>  <NO.>
2485

>  <Name>
spiramide

>  <SMILES>
O=C1NCN(c2ccccc2)C12CCN(CCCOc1ccc(F)cc1)CC2

>  <logBB>


>  <Class>
1

>  <MW>
383.2

>  <nHBAcc>
4

>  <nHBDon>
1

>  <SLogP>
3.02

>  <TopoPSA>
44.81

>  <MMFF94 Energy>
16.644

$$$$
O=C1NCNC1(c1ccccc1)c1ccccc1
Actelion Java MolfileCreator 2.0

  0  0  0  0  0  0              0 V3000
M  V30 BEGIN CTAB
M  V30 COUNTS 32 34 0 0 0
M  V30 BEGIN ATOM
M  V30 1 O 1.1993 -0.9594 2.3998 0
M  V30 2 C 0.3188 -1.2966 1.6233 0
M  V30 3 N -0.3192 -2.5159 1.6779 0
M  V30 4 C -0.2548 -0.5406 0.3919 0
M  V30 5 C -1.1811 -2.7225 0.5788 0
M  V30 6 N -1.4361 -1.3989 0.0525 0
M  V30 7 C 0.7075 -0.5263 -0.8204 0
M  V30 8 C -0.6759 0.8827 0.808 0
M  V30 9 C 1.956 -1.1725 -0.8099 0
M  V30 10 C 0.324 0.1409 -2.0039 0
M  V30 11 C -2.022 1.289 0.8614 0
M  V30 12 C 0.3075 1.8308 1.1547 0
M  V30 13 C 2.7854 -1.1519 -1.9352 0
M  V30 14 C 1.1544 0.1602 -3.126 0
M  V30 15 C -2.3685 2.5903 1.2361 0
M  V30 16 C -0.04 3.1307 1.5291 0
M  V30 17 C 2.3847 -0.4878 -3.0913 0
M  V30 18 C -1.3781 3.5105 1.5678 0
M  V30 19 H -0.0928 -3.1951 2.3897 0
M  V30 20 H -0.6691 -3.3613 -0.1478 0
M  V30 21 H -2.0986 -3.212 0.9144 0
M  V30 22 H -1.5529 -1.4352 -0.9551 0
M  V30 23 H 2.3158 -1.6966 0.0731 0
M  V30 24 H -0.6295 0.6653 -2.0522 0
M  V30 25 H -2.8218 0.5939 0.6167 0
M  V30 26 H 1.3617 1.5561 1.1417 0
M  V30 27 H 3.7503 -1.652 -1.9042 0
M  V30 28 H 0.8418 0.6875 -4.0236 0
M  V30 29 H -3.4148 2.8821 1.2727 0
M  V30 30 H 0.7368 3.8426 1.795 0
M  V30 31 H 3.0348 -0.4699 -3.9619 0
M  V30 32 H -1.6489 4.5206 1.8624 0
M  V30 END ATOM
M  V30 BEGIN BOND
M  V30 1 2 1 2
M  V30 2 1 2 3
M  V30 3 1 2 4
M  V30 4 1 3 5
M  V30 5 1 4 6
M  V30 6 1 4 7
M  V30 7 1 4 8
M  V30 8 2 7 9
M  V30 9 1 7 10
M  V30 10 2 8 11
M  V30 11 1 8 12
M  V30 12 1 9 13
M  V30 13 2 10 14
M  V30 14 1 11 15
M  V30 15 2 12 16
M  V30 16 2 13 17
M  V30 17 2 15 18
M  V30 18 1 5 6
M  V30 19 1 14 17
M  V30 20 1 16 18
M  V30 21 1 3 19
M  V30 22 1 5 20
M  V30 23 1 5 21
M  V30 24 1 6 22
M  V30 25 1 9 23
M  V30 26 1 10 24
M  V30 27 1 11 25
M  V30 28 1 12 26
M  V30 29 1 13 27
M  V30 30 1 14 28
M  V30 31 1 15 29
M  V30 32 1 16 30
M  V30 33 1 17 31
M  V30 34 1 18 32
M  V30 END BOND
M  V30 END CTAB
M  END
>  <NO.>
2486

>  <Name>
doxenitoin

>  <SMILES>
O=C1NCNC1(c1ccccc1)c1ccccc1

>  <logBB>


>  <Class>
1

>  <MW>
238.11

>  <nHBAcc>
2

>  <nHBDon>
2

>  <SLogP>
1.61

>  <TopoPSA>
41.13

>  <MMFF94 Energy>
52.198

$$$$
O=C1Nc2ccc(Cl)cc2[C@@](C#CC2CC2)(C(F)(F)F)O1
Actelion Java MolfileCreator 2.0

  0  0  0  0  0  0              0 V3000
M  V30 BEGIN CTAB
M  V30 COUNTS 30 32 0 0 0
M  V30 BEGIN ATOM
M  V30 1 Cl 0.0 3.7281 2.1527 0
M  V30 2 C 0.6325 2.1307 2.0753 0
M  V30 3 C 0.4005 1.3486 0.9424 0
M  V30 4 C 1.3815 1.6312 3.1389 0
M  V30 5 C 0.9078 0.0394 0.8728 0
M  V30 6 C 1.9024 0.3387 3.072 0
M  V30 7 C 1.6566 -0.443 1.9435 0
M  V30 8 C 0.7729 -0.8628 -0.3443 0 CFG=1
M  V30 9 N 2.1694 -1.7293 1.8601 0
M  V30 10 O 0.842 -2.2596 0.0396 0
M  V30 11 C -0.5545 -0.6915 -0.9905 0
M  V30 12 C 1.9042 -0.5553 -1.3676 0
M  V30 13 C 1.7709 -2.6573 0.9411 0
M  V30 14 C -1.6278 -0.547 -1.511 0
M  V30 15 F 3.1387 -0.7292 -0.8317 0
M  V30 16 F 1.8504 0.7252 -1.8155 0
M  V30 17 F 1.8372 -1.3576 -2.4585 0
M  V30 18 O 2.1902 -3.807 0.9746 0
M  V30 19 C -2.9075 -0.365 -2.1283 0
M  V30 20 C -3.8217 0.705 -1.5915 0
M  V30 21 C -3.1537 0.8906 -2.9227 0
M  V30 22 H -0.1674 1.7712 0.1153 0
M  V30 23 H 1.5651 2.2435 4.0184 0
M  V30 24 H 2.4878 -0.0439 3.9039 0
M  V30 25 H 2.8178 -2.0736 2.5573 0
M  V30 26 H -3.3825 -1.2716 -2.4931 0
M  V30 27 H -3.4833 1.3181 -0.7637 0
M  V30 28 H -4.8863 0.5002 -1.5805 0
M  V30 29 H -3.7652 0.8116 -3.8145 0
M  V30 30 H -2.3633 1.6292 -2.9957 0
M  V30 END ATOM
M  V30 BEGIN BOND
M  V30 1 1 1 2
M  V30 2 2 2 3
M  V30 3 1 2 4
M  V30 4 1 3 5
M  V30 5 2 4 6
M  V30 6 2 5 7
M  V30 7 1 5 8
M  V30 8 1 7 9
M  V30 9 1 8 10
M  V30 10 1 8 11
M  V30 11 1 8 12
M  V30 12 1 9 13
M  V30 13 3 11 14
M  V30 14 1 12 15
M  V30 15 1 12 16
M  V30 16 1 12 17
M  V30 17 2 13 18
M  V30 18 1 14 19
M  V30 19 1 19 20
M  V30 20 1 19 21
M  V30 21 1 6 7
M  V30 22 1 10 13
M  V30 23 1 20 21
M  V30 24 1 3 22
M  V30 25 1 4 23
M  V30 26 1 6 24
M  V30 27 1 9 25
M  V30 28 1 19 26
M  V30 29 1 20 27
M  V30 30 1 20 28
M  V30 31 1 21 29
M  V30 32 1 21 30
M  V30 END BOND
M  V30 BEGIN COLLECTION
M  V30 MDLV30/STEABS ATOMS=(1 8)
M  V30 END COLLECTION
M  V30 END CTAB
M  END
>  <NO.>
2487

>  <Name>
efavirenz

>  <SMILES>
O=C1Nc2ccc(Cl)cc2[C@@](C#CC2CC2)(C(F)(F)F)O1

>  <logBB>


>  <Class>
-1

>  <MW>
315.03

>  <nHBAcc>
2

>  <nHBDon>
1

>  <SLogP>
4.07

>  <TopoPSA>
38.33

>  <MMFF94 Energy>
13.826

$$$$
O=C1Nc2ccc(Cl)nc2C(c2ccccc2Cl)=NC1O
Actelion Java MolfileCreator 2.0

  0  0  0  0  0  0              0 V3000
M  V30 BEGIN CTAB
M  V30 COUNTS 30 32 0 0 0
M  V30 BEGIN ATOM
M  V30 1 Cl -3.2338 2.3209 -1.9061 0
M  V30 2 C -2.717 0.9512 -1.0171 0
M  V30 3 N -1.3826 0.8058 -0.936 0
M  V30 4 C -3.6312 0.097 -0.4301 0
M  V30 5 C -0.9213 -0.2697 -0.2489 0
M  V30 6 C -3.1407 -0.9895 0.2899 0
M  V30 7 C 0.5697 -0.3319 -0.1313 0
M  V30 8 C -1.7618 -1.1965 0.3821 0
M  V30 9 N 1.3054 -1.3925 -0.0686 0
M  V30 10 C 1.2758 0.9686 -0.0514 0
M  V30 11 N -1.331 -2.2786 1.1622 0
M  V30 12 C 0.6811 -2.6957 -0.2569 0 CFG=2
M  V30 13 C 1.7773 1.5992 -1.1944 0
M  V30 14 C 1.447 1.5439 1.214 0
M  V30 15 C -0.1797 -3.0062 0.9929 0
M  V30 16 O 1.6357 -3.7202 -0.466 0
M  V30 17 Cl 1.6116 0.9201 -2.7731 0
M  V30 18 C 2.4379 2.8235 -1.0667 0
M  V30 19 C 2.1092 2.7661 1.3318 0
M  V30 20 O 0.0981 -3.8818 1.8144 0
M  V30 21 C 2.6012 3.406 0.1932 0
M  V30 22 H -4.6982 0.2695 -0.5224 0
M  V30 23 H -3.8425 -1.671 0.7655 0
M  V30 24 H -1.9079 -2.6036 1.9295 0
M  V30 25 H 0.036 -2.7035 -1.1431 0
M  V30 26 H 1.0777 1.042 2.1043 0
M  V30 27 H 2.245 -3.6255 0.2863 0
M  V30 28 H 2.8308 3.3288 -1.9456 0
M  V30 29 H 2.2474 3.2186 2.3111 0
M  V30 30 H 3.1189 4.3582 0.2861 0
M  V30 END ATOM
M  V30 BEGIN BOND
M  V30 1 1 1 2
M  V30 2 2 2 3
M  V30 3 1 2 4
M  V30 4 1 3 5
M  V30 5 2 4 6
M  V30 6 1 5 7
M  V30 7 2 5 8
M  V30 8 2 7 9
M  V30 9 1 7 10
M  V30 10 1 8 11
M  V30 11 1 9 12
M  V30 12 2 10 13
M  V30 13 1 10 14
M  V30 14 1 11 15
M  V30 15 1 12 16
M  V30 16 1 13 17
M  V30 17 1 13 18
M  V30 18 2 14 19
M  V30 19 2 15 20
M  V30 20 2 18 21
M  V30 21 1 6 8
M  V30 22 1 12 15
M  V30 23 1 19 21
M  V30 24 1 4 22
M  V30 25 1 6 23
M  V30 26 1 11 24
M  V30 27 1 12 25
M  V30 28 1 14 26
M  V30 29 1 16 27
M  V30 30 1 18 28
M  V30 31 1 19 29
M  V30 32 1 21 30
M  V30 END BOND
M  V30 BEGIN COLLECTION
M  V30 MDLV30/STERAC1 ATOMS=(1 12)
M  V30 END COLLECTION
M  V30 END CTAB
M  END
>  <NO.>
2488

>  <Name>
lopirazepam

>  <SMILES>
O=C1Nc2ccc(Cl)nc2C(c2ccccc2Cl)=NC1O

>  <logBB>


>  <Class>
1

>  <MW>
321.01

>  <nHBAcc>
4

>  <nHBDon>
2

>  <SLogP>
2.5

>  <TopoPSA>
74.58

>  <MMFF94 Energy>
120.84

$$$$
O=C1OC(c2ccc(O)cc2)(c2ccc(O)cc2)c2ccccc21
Actelion Java MolfileCreator 2.0

  0  0  0  0  0  0              0 V3000
M  V30 BEGIN CTAB
M  V30 COUNTS 38 41 0 0 0
M  V30 BEGIN ATOM
M  V30 1 O -2.6647 3.1497 0.1613 0
M  V30 2 C -2.0146 2.1427 -0.0323 0
M  V30 3 O -0.9461 1.7126 0.6919 0
M  V30 4 C -2.2548 1.1416 -1.0558 0
M  V30 5 C -0.3446 0.4921 0.1556 0
M  V30 6 C -1.3034 0.1475 -0.947 0
M  V30 7 C -3.2774 1.1097 -1.9897 0
M  V30 8 C 1.068 0.9284 -0.2737 0
M  V30 9 C -0.3325 -0.5959 1.2449 0
M  V30 10 C -1.3691 -0.9591 -1.7865 0
M  V30 11 C -3.3368 0.0114 -2.8462 0
M  V30 12 C 1.5546 0.8002 -1.587 0
M  V30 13 C 1.9329 1.4901 0.6923 0
M  V30 14 C -1.202 -0.5364 2.3508 0
M  V30 15 C 0.5266 -1.7098 1.1415 0
M  V30 16 C -2.3897 -1.0194 -2.742 0
M  V30 17 C 2.8524 1.2046 -1.9151 0
M  V30 18 C 3.2291 1.8959 0.3642 0
M  V30 19 C -1.2006 -1.5423 3.3203 0
M  V30 20 C 0.5284 -2.7152 2.1128 0
M  V30 21 C 3.678 1.7469 -0.9402 0
M  V30 22 C -0.3366 -2.621 3.1954 0
M  V30 23 O 4.9335 2.127 -1.3093 0
M  V30 24 O -0.3691 -3.5775 4.1658 0
M  V30 25 H -4.0104 1.909 -2.0423 0
M  V30 26 H -0.6471 -1.7673 -1.7119 0
M  V30 27 H -4.1263 -0.0528 -3.5918 0
M  V30 28 H 0.9413 0.3937 -2.3861 0
M  V30 29 H 1.5894 1.6176 1.7191 0
M  V30 30 H -1.8923 0.2959 2.4752 0
M  V30 31 H 1.2121 -1.8017 0.3007 0
M  V30 32 H -2.4547 -1.8765 -3.4095 0
M  V30 33 H 3.2152 1.1016 -2.9343 0
M  V30 34 H 3.8621 2.3231 1.1354 0
M  V30 35 H -1.8742 -1.4813 4.1709 0
M  V30 36 H 1.2072 -3.5554 2.006 0
M  V30 37 H 5.3745 2.524 -0.5402 0
M  V30 38 H 0.292 -4.2567 3.9557 0
M  V30 END ATOM
M  V30 BEGIN BOND
M  V30 1 2 1 2
M  V30 2 1 2 3
M  V30 3 1 2 4
M  V30 4 1 3 5
M  V30 5 2 4 6
M  V30 6 1 4 7
M  V30 7 1 5 8
M  V30 8 1 5 9
M  V30 9 1 6 10
M  V30 10 2 7 11
M  V30 11 2 8 12
M  V30 12 1 8 13
M  V30 13 2 9 14
M  V30 14 1 9 15
M  V30 15 2 10 16
M  V30 16 1 12 17
M  V30 17 2 13 18
M  V30 18 1 14 19
M  V30 19 2 15 20
M  V30 20 2 17 21
M  V30 21 2 19 22
M  V30 22 1 21 23
M  V30 23 1 22 24
M  V30 24 1 5 6
M  V30 25 1 11 16
M  V30 26 1 18 21
M  V30 27 1 20 22
M  V30 28 1 7 25
M  V30 29 1 10 26
M  V30 30 1 11 27
M  V30 31 1 12 28
M  V30 32 1 13 29
M  V30 33 1 14 30
M  V30 34 1 15 31
M  V30 35 1 16 32
M  V30 36 1 17 33
M  V30 37 1 18 34
M  V30 38 1 19 35
M  V30 39 1 20 36
M  V30 40 1 23 37
M  V30 41 1 24 38
M  V30 END BOND
M  V30 END CTAB
M  END
>  <NO.>
2489

>  <Name>
phenolphthalein

>  <SMILES>
O=C1OC(c2ccc(O)cc2)(c2ccc(O)cc2)c2ccccc21

>  <logBB>


>  <Class>
-1

>  <MW>
318.09

>  <nHBAcc>
4

>  <nHBDon>
2

>  <SLogP>
3.56

>  <TopoPSA>
66.76

>  <MMFF94 Energy>
69.622

$$$$
O=C1OCCC1C1(O)CCN(CCCN2c3ccccc3Sc3ccc(Cl)cc32)CC1
Actelion Java MolfileCreator 2.0

  0  0  0  0  0  0              0 V3000
M  V30 BEGIN CTAB
M  V30 COUNTS 58 62 0 0 0
M  V30 BEGIN ATOM
M  V30 1 Cl -3.0239 -6.1368 0.1632 0
M  V30 2 C -3.3103 -4.5137 0.6596 0
M  V30 3 C -3.2869 -3.4857 -0.2859 0
M  V30 4 C -3.5684 -4.2382 1.9936 0
M  V30 5 C -3.5048 -2.1414 0.0781 0
M  V30 6 C -3.8293 -2.9254 2.3754 0
M  V30 7 N -3.4571 -1.0974 -0.882 0
M  V30 8 C -3.8183 -1.8846 1.4292 0
M  V30 9 C -4.1048 0.1588 -0.7342 0
M  V30 10 C -2.4365 -1.2025 -1.953 0
M  V30 11 S -4.2051 -0.2581 2.0417 0
M  V30 12 C -4.4923 0.6424 0.5315 0
M  V30 13 C -4.4095 0.9658 -1.8501 0
M  V30 14 C -1.2379 -0.2602 -1.7496 0
M  V30 15 C -5.111 1.8986 0.6608 0
M  V30 16 C -5.034 2.2102 -1.7163 0
M  V30 17 C -0.4538 -0.5716 -0.4683 0
M  V30 18 C -5.3793 2.6808 -0.4583 0
M  V30 19 N 0.7463 0.2784 -0.3244 0
M  V30 20 C 1.8383 -0.171 -1.1995 0
M  V30 21 C 1.1996 0.2598 1.0747 0
M  V30 22 C 3.0456 0.7631 -1.0894 0
M  V30 23 C 2.3872 1.2006 1.287 0
M  V30 24 C 3.5724 0.8833 0.3551 0
M  V30 25 O 4.1352 -0.39 0.7017 0
M  V30 26 C 4.6723 1.9728 0.4201 0 CFG=1
M  V30 27 C 5.2177 2.1654 1.813 0
M  V30 28 C 5.9532 1.6667 -0.3425 0
M  V30 29 O 4.6303 2.7074 2.7359 0
M  V30 30 O 6.4669 1.63 1.929 0
M  V30 31 C 6.8459 1.0339 0.6917 0
M  V30 32 H -3.1338 -3.7606 -1.325 0
M  V30 33 H -3.5872 -5.033 2.7337 0
M  V30 34 H -4.0542 -2.716 3.4196 0
M  V30 35 H -2.8934 -1.0106 -2.9305 0
M  V30 36 H -2.0261 -2.2121 -2.0516 0
M  V30 37 H -4.1846 0.634 -2.8586 0
M  V30 38 H -1.56 0.7871 -1.7347 0
M  V30 39 H -0.5923 -0.3707 -2.6277 0
M  V30 40 H -5.3926 2.2732 1.6427 0
M  V30 41 H -5.2517 2.8055 -2.5994 0
M  V30 42 H -1.1221 -0.3783 0.3788 0
M  V30 43 H -0.1858 -1.6349 -0.4253 0
M  V30 44 H -5.862 3.6478 -0.3461 0
M  V30 45 H 1.5196 -0.1634 -2.2469 0
M  V30 46 H 2.1358 -1.201 -0.9636 0
M  V30 47 H 0.3892 0.5987 1.7325 0
M  V30 48 H 1.4646 -0.7582 1.3892 0
M  V30 49 H 3.8225 0.3668 -1.7527 0
M  V30 50 H 2.7657 1.7543 -1.4698 0
M  V30 51 H 2.6867 1.1088 2.3373 0
M  V30 52 H 2.0563 2.2354 1.1287 0
M  V30 53 H 4.1508 -0.469 1.6735 0
M  V30 54 H 4.2723 2.9337 0.0734 0
M  V30 55 H 6.4032 2.6137 -0.6685 0
M  V30 56 H 5.8383 1.0451 -1.2325 0
M  V30 57 H 7.902 1.2407 0.495 0
M  V30 58 H 6.7128 -0.0496 0.7643 0
M  V30 END ATOM
M  V30 BEGIN BOND
M  V30 1 1 1 2
M  V30 2 2 2 3
M  V30 3 1 2 4
M  V30 4 1 3 5
M  V30 5 2 4 6
M  V30 6 1 5 7
M  V30 7 2 5 8
M  V30 8 1 7 9
M  V30 9 1 7 10
M  V30 10 1 8 11
M  V30 11 2 9 12
M  V30 12 1 9 13
M  V30 13 1 10 14
M  V30 14 1 12 15
M  V30 15 2 13 16
M  V30 16 1 14 17
M  V30 17 2 15 18
M  V30 18 1 17 19
M  V30 19 1 19 20
M  V30 20 1 19 21
M  V30 21 1 20 22
M  V30 22 1 21 23
M  V30 23 1 22 24
M  V30 24 1 24 25
M  V30 25 1 24 26
M  V30 26 1 26 27
M  V30 27 1 26 28
M  V30 28 2 27 29
M  V30 29 1 27 30
M  V30 30 1 28 31
M  V30 31 1 6 8
M  V30 32 1 11 12
M  V30 33 1 16 18
M  V30 34 1 23 24
M  V30 35 1 30 31
M  V30 36 1 3 32
M  V30 37 1 4 33
M  V30 38 1 6 34
M  V30 39 1 10 35
M  V30 40 1 10 36
M  V30 41 1 13 37
M  V30 42 1 14 38
M  V30 43 1 14 39
M  V30 44 1 15 40
M  V30 45 1 16 41
M  V30 46 1 17 42
M  V30 47 1 17 43
M  V30 48 1 18 44
M  V30 49 1 20 45
M  V30 50 1 20 46
M  V30 51 1 21 47
M  V30 52 1 21 48
M  V30 53 1 22 49
M  V30 54 1 22 50
M  V30 55 1 23 51
M  V30 56 1 23 52
M  V30 57 1 25 53
M  V30 58 1 26 54
M  V30 59 1 28 55
M  V30 60 1 28 56
M  V30 61 1 31 57
M  V30 62 1 31 58
M  V30 END BOND
M  V30 BEGIN COLLECTION
M  V30 MDLV30/STERAC1 ATOMS=(1 26)
M  V30 END COLLECTION
M  V30 END CTAB
M  END
>  <NO.>
2490

>  <Name>
furomazine

>  <SMILES>
O=C1OCCC1C1(O)CCN(CCCN2c3ccccc3Sc3ccc(Cl)cc32)CC1

>  <logBB>


>  <Class>
1

>  <MW>
458.14

>  <nHBAcc>
6

>  <nHBDon>
1

>  <SLogP>
4.72

>  <TopoPSA>
53.01

>  <MMFF94 Energy>
62.868

$$$$
O=C1[C@H]2CCCC[C@H]2C(=O)N1CCCCN1CCN(c2nsc3ccccc23)CC1
Actelion Java MolfileCreator 2.0

  0  0  0  0  0  0              0 V3000
M  V30 BEGIN CTAB
M  V30 COUNTS 60 64 0 0 0
M  V30 BEGIN ATOM
M  V30 1 S -6.7171 -0.3229 -4.1233 0
M  V30 2 N -5.3598 -0.928 -3.4173 0
M  V30 3 C -7.0831 0.8204 -2.9007 0
M  V30 4 C -5.1046 -0.2678 -2.2881 0
M  V30 5 C -6.0978 0.7315 -1.9141 0
M  V30 6 C -8.1617 1.7182 -2.8164 0
M  V30 7 N -4.0124 -0.5329 -1.5057 0
M  V30 8 C -6.2421 1.5652 -0.7738 0
M  V30 9 C -8.258 2.5383 -1.6902 0
M  V30 10 C -3.0152 0.5236 -1.2777 0
M  V30 11 C -3.4186 -1.8781 -1.5619 0
M  V30 12 C -7.3132 2.4602 -0.6755 0
M  V30 13 C -2.1682 0.2162 -0.0211 0
M  V30 14 C -2.5635 -2.1449 -0.3034 0
M  V30 15 N -1.5203 -1.1151 -0.0701 0
M  V30 16 C -0.7777 -1.4246 1.1616 0
M  V30 17 C 0.452 -0.5277 1.3552 0
M  V30 18 C 1.3041 -1.0059 2.5356 0
M  V30 19 C 2.4832 -0.0753 2.8345 0
M  V30 20 N 3.4357 -0.0096 1.743 0
M  V30 21 C 3.5303 1.0438 0.8745 0
M  V30 22 C 4.3631 -0.9826 1.4854 0
M  V30 23 O 2.7993 2.0211 0.8228 0
M  V30 24 C 4.7673 0.8492 0.0297 0 CFG=2
M  V30 25 O 4.5946 -1.9698 2.1645 0
M  V30 26 C 4.9988 -0.6579 0.1538 0 CFG=1
M  V30 27 C 5.8904 1.7216 0.5994 0
M  V30 28 C 6.4359 -1.1367 -0.0011 0
M  V30 29 C 7.2769 1.2142 0.2337 0
M  V30 30 C 7.4543 -0.2306 0.6782 0
M  V30 31 H -8.9084 1.7677 -3.6031 0
M  V30 32 H -5.522 1.4995 0.0369 0
M  V30 33 H -9.0875 3.2366 -1.6038 0
M  V30 34 H -2.3581 0.5945 -2.1545 0
M  V30 35 H -3.4791 1.507 -1.1503 0
M  V30 36 H -4.2017 -2.6452 -1.6095 0
M  V30 37 H -2.797 -1.9746 -2.4613 0
M  V30 38 H -7.4068 3.093 0.2038 0
M  V30 39 H -2.8111 0.2901 0.8661 0
M  V30 40 H -1.4087 1.0013 0.0545 0
M  V30 41 H -2.0876 -3.1259 -0.4206 0
M  V30 42 H -3.2296 -2.2054 0.5682 0
M  V30 43 H -0.425 -2.4626 1.1057 0
M  V30 44 H -1.4308 -1.3567 2.0414 0
M  V30 45 H 0.1438 0.5074 1.5393 0
M  V30 46 H 1.0531 -0.5353 0.4383 0
M  V30 47 H 0.6768 -1.0678 3.4332 0
M  V30 48 H 1.6722 -2.0187 2.332 0
M  V30 49 H 3.0106 -0.4508 3.7189 0
M  V30 50 H 2.1183 0.9326 3.061 0
M  V30 51 H 4.5611 1.1156 -1.0123 0
M  V30 52 H 4.3805 -1.1793 -0.5913 0
M  V30 53 H 5.8152 1.7813 1.6937 0
M  V30 54 H 5.7679 2.7504 0.2387 0
M  V30 55 H 6.5486 -2.1586 0.3787 0
M  V30 56 H 6.6725 -1.1751 -1.0723 0
M  V30 57 H 7.4298 1.2954 -0.8491 0
M  V30 58 H 8.0355 1.8429 0.7134 0
M  V30 59 H 7.3492 -0.3019 1.7675 0
M  V30 60 H 8.4667 -0.5698 0.4318 0
M  V30 END ATOM
M  V30 BEGIN BOND
M  V30 1 1 1 2
M  V30 2 1 1 3
M  V30 3 2 2 4
M  V30 4 2 3 5
M  V30 5 1 3 6
M  V30 6 1 4 7
M  V30 7 1 5 8
M  V30 8 2 6 9
M  V30 9 1 7 10
M  V30 10 1 7 11
M  V30 11 2 8 12
M  V30 12 1 10 13
M  V30 13 1 11 14
M  V30 14 1 13 15
M  V30 15 1 15 16
M  V30 16 1 16 17
M  V30 17 1 17 18
M  V30 18 1 18 19
M  V30 19 1 19 20
M  V30 20 1 20 21
M  V30 21 1 20 22
M  V30 22 2 21 23
M  V30 23 1 21 24
M  V30 24 2 22 25
M  V30 25 1 22 26
M  V30 26 1 24 27
M  V30 27 1 26 28
M  V30 28 1 27 29
M  V30 29 1 28 30
M  V30 30 1 4 5
M  V30 31 1 9 12
M  V30 32 1 14 15
M  V30 33 1 24 26
M  V30 34 1 29 30
M  V30 35 1 6 31
M  V30 36 1 8 32
M  V30 37 1 9 33
M  V30 38 1 10 34
M  V30 39 1 10 35
M  V30 40 1 11 36
M  V30 41 1 11 37
M  V30 42 1 12 38
M  V30 43 1 13 39
M  V30 44 1 13 40
M  V30 45 1 14 41
M  V30 46 1 14 42
M  V30 47 1 16 43
M  V30 48 1 16 44
M  V30 49 1 17 45
M  V30 50 1 17 46
M  V30 51 1 18 47
M  V30 52 1 18 48
M  V30 53 1 19 49
M  V30 54 1 19 50
M  V30 55 1 24 51
M  V30 56 1 26 52
M  V30 57 1 27 53
M  V30 58 1 27 54
M  V30 59 1 28 55
M  V30 60 1 28 56
M  V30 61 1 29 57
M  V30 62 1 29 58
M  V30 63 1 30 59
M  V30 64 1 30 60
M  V30 END BOND
M  V30 BEGIN COLLECTION
M  V30 MDLV30/STEABS ATOMS=(2 24 26)
M  V30 END COLLECTION
M  V30 END CTAB
M  END
>  <NO.>
2491

>  <Name>
perospirone

>  <SMILES>
O=C1[C@H]2CCCC[C@H]2C(=O)N1CCCCN1CCN(c2nsc3ccccc23)CC1

>  <logBB>


>  <Class>
1

>  <MW>
426.21

>  <nHBAcc>
6

>  <nHBDon>
0

>  <SLogP>
3.37

>  <TopoPSA>
56.75

>  <MMFF94 Energy>
42.11

$$$$
O=C1[C@H]2[C@@H]3CC[C@@H](C3)[C@H]2C(=O)N1CCCCN1CCN(c2ncccn2)CC1
Actelion Java MolfileCreator 2.0

  0  0  0  0  0  0              0 V3000
M  V30 BEGIN CTAB
M  V30 COUNTS 57 61 0 0 0
M  V30 BEGIN ATOM
M  V30 1 O 2.889 2.2465 3.0497 0
M  V30 2 C 2.6411 1.097 3.3809 0
M  V30 3 N 1.7522 0.2463 2.7845 0
M  V30 4 C 3.2775 0.3942 4.551 0 CFG=2
M  V30 5 C 1.6743 -0.9732 3.3981 0
M  V30 6 C 0.9588 0.6034 1.622 0
M  V30 7 C 2.6285 -0.9949 4.5626 0 CFG=2
M  V30 8 C 2.8741 0.9791 5.9182 0 CFG=1
M  V30 9 O 0.9497 -1.9047 3.0814 0
M  V30 10 C 1.6739 0.2091 0.3277 0
M  V30 11 C 1.9296 -1.0423 5.9348 0 CFG=2
M  V30 12 C 1.4717 0.4047 6.1379 0
M  V30 13 C 3.6696 0.235 7.0079 0
M  V30 14 C 0.9128 0.6206 -0.9366 0
M  V30 15 C 3.0175 -1.1603 7.0194 0
M  V30 16 C -0.368 -0.1969 -1.1597 0
M  V30 17 N -1.1347 0.2622 -2.33 0
M  V30 18 C -2.473 -0.379 -2.3367 0
M  V30 19 C -0.4622 -0.0759 -3.6069 0
M  V30 20 C -3.3526 0.0411 -3.5346 0
M  V30 21 C -1.2656 0.3495 -4.858 0
M  V30 22 N -2.6431 -0.1334 -4.7995 0
M  V30 23 C -3.3873 -0.0891 -5.9627 0
M  V30 24 N -4.724 -0.2198 -5.8859 0
M  V30 25 N -2.7508 0.0704 -7.1371 0
M  V30 26 C -5.4284 -0.1862 -7.0328 0
M  V30 27 C -3.4943 0.0982 -8.2591 0
M  V30 28 C -4.858 -0.0269 -8.2675 0
M  V30 29 H 4.3613 0.3503 4.4034 0
M  V30 30 H -0.0058 0.0925 1.6997 0
M  V30 31 H 0.7792 1.6842 1.6345 0
M  V30 32 H 3.3568 -1.7999 4.4213 0
M  V30 33 H 2.9409 2.0672 5.9829 0
M  V30 34 H 1.8598 -0.872 0.3143 0
M  V30 35 H 2.6605 0.6897 0.308 0
M  V30 36 H 1.1383 -1.7907 6.0145 0
M  V30 37 H 0.7348 0.7429 5.4037 0
M  V30 38 H 1.0823 0.5949 7.1443 0
M  V30 39 H 4.7409 0.1867 6.7889 0
M  V30 40 H 3.5412 0.7179 7.9833 0
M  V30 41 H 0.673 1.6901 -0.8889 0
M  V30 42 H 1.5935 0.484 -1.7842 0
M  V30 43 H 3.7405 -1.954 6.8067 0
M  V30 44 H 2.5708 -1.3583 8.0004 0
M  V30 45 H -0.1242 -1.264 -1.2412 0
M  V30 46 H -1.0005 -0.0824 -0.272 0
M  V30 47 H -2.3638 -1.4723 -2.345 0
M  V30 48 H -3.0111 -0.1139 -1.4182 0
M  V30 49 H 0.5109 0.4223 -3.6669 0
M  V30 50 H -0.2781 -1.1577 -3.658 0
M  V30 51 H -3.6467 1.0926 -3.4212 0
M  V30 52 H -4.2633 -0.569 -3.4952 0
M  V30 53 H -0.7355 -0.0499 -5.7314 0
M  V30 54 H -1.2649 1.4445 -4.936 0
M  V30 55 H -6.5023 -0.2966 -6.9178 0
M  V30 56 H -2.9345 0.2282 -9.1801 0
M  V30 57 H -5.4387 -0.003 -9.1776 0
M  V30 END ATOM
M  V30 BEGIN BOND
M  V30 1 2 1 2
M  V30 2 1 2 3
M  V30 3 1 2 4
M  V30 4 1 3 5
M  V30 5 1 3 6
M  V30 6 1 4 7
M  V30 7 1 4 8
M  V30 8 2 5 9
M  V30 9 1 6 10
M  V30 10 1 7 11
M  V30 11 1 8 12
M  V30 12 1 8 13
M  V30 13 1 10 14
M  V30 14 1 11 15
M  V30 15 1 14 16
M  V30 16 1 16 17
M  V30 17 1 17 18
M  V30 18 1 17 19
M  V30 19 1 18 20
M  V30 20 1 19 21
M  V30 21 1 20 22
M  V30 22 1 22 23
M  V30 23 2 23 24
M  V30 24 1 23 25
M  V30 25 1 24 26
M  V30 26 2 25 27
M  V30 27 2 26 28
M  V30 28 1 5 7
M  V30 29 1 11 12
M  V30 30 1 13 15
M  V30 31 1 21 22
M  V30 32 1 27 28
M  V30 33 1 4 29
M  V30 34 1 6 30
M  V30 35 1 6 31
M  V30 36 1 7 32
M  V30 37 1 8 33
M  V30 38 1 10 34
M  V30 39 1 10 35
M  V30 40 1 11 36
M  V30 41 1 12 37
M  V30 42 1 12 38
M  V30 43 1 13 39
M  V30 44 1 13 40
M  V30 45 1 14 41
M  V30 46 1 14 42
M  V30 47 1 15 43
M  V30 48 1 15 44
M  V30 49 1 16 45
M  V30 50 1 16 46
M  V30 51 1 18 47
M  V30 52 1 18 48
M  V30 53 1 19 49
M  V30 54 1 19 50
M  V30 55 1 20 51
M  V30 56 1 20 52
M  V30 57 1 21 53
M  V30 58 1 21 54
M  V30 59 1 26 55
M  V30 60 1 27 56
M  V30 61 1 28 57
M  V30 END BOND
M  V30 BEGIN COLLECTION
M  V30 MDLV30/STEABS ATOMS=(4 4 7 8 11)
M  V30 END COLLECTION
M  V30 END CTAB
M  END
>  <NO.>
2492

>  <Name>
tandospirone

>  <SMILES>
O=C1[C@H]2[C@@H]3CC[C@@H](C3)[C@H]2C(=O)N1CCCCN1CCN(c2ncccn2)CC1

>  <logBB>


>  <Class>
1

>  <MW>
383.23

>  <nHBAcc>
6

>  <nHBDon>
0

>  <SLogP>
1.41

>  <TopoPSA>
69.64

>  <MMFF94 Energy>
-22.331

$$$$
O=C1[C@H]2[C@H]3C=C[C@H]([C@@H]4C=C[C@@H]43)[C@H]2C(=O)N1CCCCN1CCN(c2ncccn2)CC1
Actelion Java MolfileCreator 2.0

  0  0  0  0  0  0              0 V3000
M  V30 BEGIN CTAB
M  V30 COUNTS 60 65 0 0 0
M  V30 BEGIN ATOM
M  V30 1 O 1.0505 4.2882 1.1314 0
M  V30 2 C 1.7876 3.3159 1.2069 0
M  V30 3 N 1.7218 2.3066 2.1277 0
M  V30 4 C 2.9434 3.0592 0.278 0 CFG=2
M  V30 5 C 2.6803 1.3458 1.9523 0
M  V30 6 C 0.7292 2.2491 3.1855 0
M  V30 7 C 2.52 2.924 -1.2073 0 CFG=2
M  V30 8 C 3.5509 1.7274 0.7856 0 CFG=1
M  V30 9 O 2.8415 0.34 2.6278 0
M  V30 10 C -0.476 1.3736 2.8304 0
M  V30 11 C 1.6116 1.7127 -1.3366 0
M  V30 12 C 3.8429 2.6241 -1.9713 0 CFG=2
M  V30 13 C 3.5534 0.6709 -0.3489 0 CFG=1
M  V30 14 C -1.3545 1.9843 1.7328 0
M  V30 15 C 2.141 0.5591 -0.8974 0
M  V30 16 C 3.8078 1.9607 -3.3376 0
M  V30 17 C 4.4598 1.2799 -1.4584 0 CFG=1
M  V30 18 C -2.6651 1.2126 1.5151 0
M  V30 19 C 4.3398 0.8029 -2.8959 0
M  V30 20 N -2.4821 -0.2126 1.2038 0
M  V30 21 C -3.7897 -0.91 1.2224 0
M  V30 22 C -1.8723 -0.4157 -0.1298 0
M  V30 23 C -3.6856 -2.4179 0.9041 0
M  V30 24 C -1.6961 -1.9048 -0.5036 0
M  V30 25 N -2.9417 -2.6489 -0.3321 0
M  V30 26 C -3.0192 -3.9057 -0.9004 0
M  V30 27 N -4.0003 -4.7383 -0.5083 0
M  V30 28 N -2.1191 -4.2525 -1.8381 0
M  V30 29 C -4.064 -5.9536 -1.0837 0
M  V30 30 C -2.2201 -5.4775 -2.3871 0
M  V30 31 C -3.187 -6.3842 -2.0432 0
M  V30 32 H 3.6704 3.8713 0.4031 0
M  V30 33 H 1.2123 1.8321 4.0768 0
M  V30 34 H 0.3986 3.2655 3.4274 0
M  V30 35 H 2.0293 3.8265 -1.5845 0
M  V30 36 H 4.5679 1.9008 1.1587 0
M  V30 37 H -1.0806 1.242 3.7362 0
M  V30 38 H -0.1314 0.3786 2.5257 0
M  V30 39 H 0.624 1.7887 -1.7764 0
M  V30 40 H 4.5333 3.4766 -1.9033 0
M  V30 41 H 3.9232 -0.3019 -0.0113 0
M  V30 42 H -1.6122 3.0144 2.0098 0
M  V30 43 H -0.7972 2.0498 0.7931 0
M  V30 44 H 1.627 -0.3937 -0.9453 0
M  V30 45 H 3.4663 2.3048 -4.3098 0
M  V30 46 H 5.4949 1.3811 -1.1032 0
M  V30 47 H -3.2486 1.3023 2.441 0
M  V30 48 H -3.2483 1.7116 0.7301 0
M  V30 49 H 4.5887 -0.1383 -3.3776 0
M  V30 50 H -4.4737 -0.443 0.5003 0
M  V30 51 H -4.2462 -0.8073 2.2145 0
M  V30 52 H -2.4837 0.0723 -0.9009 0
M  V30 53 H -0.8802 0.044 -0.1627 0
M  V30 54 H -4.71 -2.8043 0.8365 0
M  V30 55 H -3.1856 -2.9328 1.7345 0
M  V30 56 H -1.3475 -1.9359 -1.5432 0
M  V30 57 H -0.9145 -2.3484 0.1266 0
M  V30 58 H -4.8725 -6.5877 -0.7336 0
M  V30 59 H -1.4714 -5.7093 -3.138 0
M  V30 60 H -3.2534 -7.3627 -2.4945 0
M  V30 END ATOM
M  V30 BEGIN BOND
M  V30 1 2 1 2
M  V30 2 1 2 3
M  V30 3 1 2 4
M  V30 4 1 3 5
M  V30 5 1 3 6
M  V30 6 1 4 7
M  V30 7 1 4 8
M  V30 8 2 5 9
M  V30 9 1 6 10
M  V30 10 1 7 11
M  V30 11 1 7 12
M  V30 12 1 8 13
M  V30 13 1 10 14
M  V30 14 2 11 15
M  V30 15 1 12 16
M  V30 16 1 12 17
M  V30 17 1 14 18
M  V30 18 2 16 19
M  V30 19 1 18 20
M  V30 20 1 20 21
M  V30 21 1 20 22
M  V30 22 1 21 23
M  V30 23 1 22 24
M  V30 24 1 23 25
M  V30 25 1 25 26
M  V30 26 2 26 27
M  V30 27 1 26 28
M  V30 28 1 27 29
M  V30 29 2 28 30
M  V30 30 2 29 31
M  V30 31 1 5 8
M  V30 32 1 13 15
M  V30 33 1 13 17
M  V30 34 1 17 19
M  V30 35 1 24 25
M  V30 36 1 30 31
M  V30 37 1 4 32
M  V30 38 1 6 33
M  V30 39 1 6 34
M  V30 40 1 7 35
M  V30 41 1 8 36
M  V30 42 1 10 37
M  V30 43 1 10 38
M  V30 44 1 11 39
M  V30 45 1 12 40
M  V30 46 1 13 41
M  V30 47 1 14 42
M  V30 48 1 14 43
M  V30 49 1 15 44
M  V30 50 1 16 45
M  V30 51 1 17 46
M  V30 52 1 18 47
M  V30 53 1 18 48
M  V30 54 1 19 49
M  V30 55 1 21 50
M  V30 56 1 21 51
M  V30 57 1 22 52
M  V30 58 1 22 53
M  V30 59 1 23 54
M  V30 60 1 23 55
M  V30 61 1 24 56
M  V30 62 1 24 57
M  V30 63 1 29 58
M  V30 64 1 30 59
M  V30 65 1 31 60
M  V30 END BOND
M  V30 BEGIN COLLECTION
M  V30 MDLV30/STEABS ATOMS=(6 4 7 8 12 13 17)
M  V30 END COLLECTION
M  V30 END CTAB
M  END
>  <NO.>
2493

>  <Name>
zalospirone

>  <SMILES>
O=C1[C@H]2[C@H]3C=C[C@H]([C@@H]4C=C[C@@H]43)[C@H]2C(=O)N1CCCCN1CCN(c2ncccn2)CC1

>  <logBB>


>  <Class>
1

>  <MW>
419.23

>  <nHBAcc>
6

>  <nHBDon>
0

>  <SLogP>
1.6

>  <TopoPSA>
69.64

>  <MMFF94 Energy>
-6.5875

$$$$
O=C1c2ccccc2S(=O)(=O)N1CCCCN1CCN(c2ncccn2)CC1
Actelion Java MolfileCreator 2.0

  0  0  0  0  0  0              0 V3000
M  V30 BEGIN CTAB
M  V30 COUNTS 51 54 0 0 0
M  V30 BEGIN ATOM
M  V30 1 S 2.9981 2.917 2.8359 0
M  V30 2 O 2.3389 2.0715 3.8022 0
M  V30 3 O 4.3988 3.2605 2.9008 0
M  V30 4 N 2.6302 2.3878 1.284 0
M  V30 5 C 2.076 4.3809 2.6566 0
M  V30 6 C 1.8164 3.279 0.5511 0
M  V30 7 C 3.1418 1.0988 0.8242 0
M  V30 8 C 1.5009 4.4472 1.3943 0
M  V30 9 C 1.9075 5.3705 3.6078 0
M  V30 10 O 1.4368 3.1189 -0.5931 0
M  V30 11 C 2.0573 0.0312 0.9376 0
M  V30 12 C 0.7197 5.5339 1.0338 0
M  V30 13 C 1.1217 6.4693 3.2531 0
M  V30 14 C 2.5624 -1.324 0.4359 0
M  V30 15 C 0.5325 6.5509 1.9769 0
M  V30 16 C 1.5309 -2.4494 0.6045 0
M  V30 17 N 0.2377 -2.187 -0.0436 0
M  V30 18 C 0.3413 -2.1842 -1.521 0
M  V30 19 C -0.7463 -3.2236 0.3488 0
M  V30 20 C -1.0119 -1.9483 -2.2311 0
M  V30 21 C -2.1391 -3.0216 -0.2872 0
M  V30 22 N -2.041 -2.8605 -1.736 0
M  V30 23 C -3.2034 -2.9757 -2.4737 0
M  V30 24 N -3.2153 -2.5322 -3.7437 0
M  V30 25 N -4.2831 -3.5409 -1.9038 0
M  V30 26 C -4.3547 -2.6657 -4.4484 0
M  V30 27 C -5.4013 -3.6546 -2.645 0
M  V30 28 C -5.4967 -3.2276 -3.9427 0
M  V30 29 H 4.023 0.8092 1.4081 0
M  V30 30 H 3.4779 1.1983 -0.2144 0
M  V30 31 H 2.3661 5.297 4.5891 0
M  V30 32 H 1.1778 0.342 0.3613 0
M  V30 33 H 1.7337 -0.0599 1.9816 0
M  V30 34 H 0.2653 5.5935 0.0486 0
M  V30 35 H 0.9609 7.2731 3.9701 0
M  V30 36 H 2.8719 -1.242 -0.6122 0
M  V30 37 H 3.4626 -1.602 0.9989 0
M  V30 38 H -0.0768 7.4167 1.7223 0
M  V30 39 H 1.965 -3.3898 0.2409 0
M  V30 40 H 1.3686 -2.5772 1.683 0
M  V30 41 H 0.7603 -3.1383 -1.8684 0
M  V30 42 H 1.021 -1.3911 -1.851 0
M  V30 43 H -0.3724 -4.2187 0.071 0
M  V30 44 H -0.8714 -3.2168 1.4387 0
M  V30 45 H -0.8383 -2.0817 -3.306 0
M  V30 46 H -1.3331 -0.9113 -2.0682 0
M  V30 47 H -2.7456 -3.8952 -0.0183 0
M  V30 48 H -2.6154 -2.134 0.149 0
M  V30 49 H -4.313 -2.2928 -5.4671 0
M  V30 50 H -6.2439 -4.1172 -2.1405 0
M  V30 51 H -6.4019 -3.3273 -4.5228 0
M  V30 END ATOM
M  V30 BEGIN BOND
M  V30 1 2 1 2
M  V30 2 2 1 3
M  V30 3 1 1 4
M  V30 4 1 1 5
M  V30 5 1 4 6
M  V30 6 1 4 7
M  V30 7 2 5 8
M  V30 8 1 5 9
M  V30 9 2 6 10
M  V30 10 1 7 11
M  V30 11 1 8 12
M  V30 12 2 9 13
M  V30 13 1 11 14
M  V30 14 2 12 15
M  V30 15 1 14 16
M  V30 16 1 16 17
M  V30 17 1 17 18
M  V30 18 1 17 19
M  V30 19 1 18 20
M  V30 20 1 19 21
M  V30 21 1 20 22
M  V30 22 1 22 23
M  V30 23 2 23 24
M  V30 24 1 23 25
M  V30 25 1 24 26
M  V30 26 2 25 27
M  V30 27 2 26 28
M  V30 28 1 6 8
M  V30 29 1 13 15
M  V30 30 1 21 22
M  V30 31 1 27 28
M  V30 32 1 7 29
M  V30 33 1 7 30
M  V30 34 1 9 31
M  V30 35 1 11 32
M  V30 36 1 11 33
M  V30 37 1 12 34
M  V30 38 1 13 35
M  V30 39 1 14 36
M  V30 40 1 14 37
M  V30 41 1 15 38
M  V30 42 1 16 39
M  V30 43 1 16 40
M  V30 44 1 18 41
M  V30 45 1 18 42
M  V30 46 1 19 43
M  V30 47 1 19 44
M  V30 48 1 20 45
M  V30 49 1 20 46
M  V30 50 1 21 47
M  V30 51 1 21 48
M  V30 52 1 26 49
M  V30 53 1 27 50
M  V30 54 1 28 51
M  V30 END BOND
M  V30 END CTAB
M  END
>  <NO.>
2494

>  <Name>
ipsapirone

>  <SMILES>
O=C1c2ccccc2S(=O)(=O)N1CCCCN1CCN(c2ncccn2)CC1

>  <logBB>


>  <Class>
1

>  <MW>
401.15

>  <nHBAcc>
7

>  <nHBDon>
0

>  <SLogP>
1.22

>  <TopoPSA>
86.71

>  <MMFF94 Energy>
-69.339

$$$$
O=C1c2ccccc2S(=O)(=O)N1CCCN1CCN(c2ncccn2)CC1
Actelion Java MolfileCreator 2.0

  0  0  0  0  0  0              0 V3000
M  V30 BEGIN CTAB
M  V30 COUNTS 48 51 0 0 0
M  V30 BEGIN ATOM
M  V30 1 S 1.2176 2.9241 3.3307 0
M  V30 2 O 2.3167 3.6458 2.7349 0
M  V30 3 O -0.0569 3.525 3.643 0
M  V30 4 N 0.9689 1.4954 2.4828 0
M  V30 5 C 1.7994 2.0934 4.7438 0
M  V30 6 C 1.3008 0.3307 3.2079 0
M  V30 7 C 0.4443 1.5531 1.1167 0
M  V30 8 C 1.7904 0.7193 4.5438 0
M  V30 9 C 2.2224 2.6742 5.9253 0
M  V30 10 O 1.2078 -0.812 2.8023 0
M  V30 11 C 1.5713 1.3122 0.1159 0
M  V30 12 C 2.2155 -0.1395 5.5451 0
M  V30 13 C 2.6524 1.8162 6.9399 0
M  V30 14 C 1.1083 1.456 -1.3384 0
M  V30 15 C 2.6491 0.4209 6.752 0
M  V30 16 N -0.0299 0.5963 -1.6962 0
M  V30 17 C -0.5233 0.9461 -3.0503 0
M  V30 18 C 0.3371 -0.8405 -1.6987 0
M  V30 19 C -1.7229 0.0879 -3.5077 0
M  V30 20 C -0.8262 -1.7714 -2.1118 0
M  V30 21 N -1.4385 -1.3376 -3.366 0
M  V30 22 C -2.2818 -2.2252 -4.0065 0
M  V30 23 N -3.0994 -1.7656 -4.9709 0
M  V30 24 N -2.2497 -3.5231 -3.6549 0
M  V30 25 C -3.9041 -2.6497 -5.5902 0
M  V30 26 C -3.0712 -4.3723 -4.3001 0
M  V30 27 C -3.9334 -3.9858 -5.2913 0
M  V30 28 H -0.0254 2.526 0.9313 0
M  V30 29 H -0.3454 0.8005 1.0155 0
M  V30 30 H 2.2201 3.7515 6.0596 0
M  V30 31 H 2.0209 0.3262 0.28 0
M  V30 32 H 2.3762 2.0373 0.292 0
M  V30 33 H 2.2118 -1.2159 5.3973 0
M  V30 34 H 2.994 2.2286 7.888 0
M  V30 35 H 0.8193 2.5055 -1.4828 0
M  V30 36 H 1.9605 1.2729 -2.0056 0
M  V30 37 H 2.9884 -0.2289 7.557 0
M  V30 38 H 0.2877 0.8389 -3.7836 0
M  V30 39 H -0.8374 1.997 -3.0654 0
M  V30 40 H 1.1825 -1.009 -2.3795 0
M  V30 41 H 0.6581 -1.1502 -0.6983 0
M  V30 42 H -1.9315 0.3562 -4.5506 0
M  V30 43 H -2.6066 0.3468 -2.9102 0
M  V30 44 H -0.4139 -2.7845 -2.1939 0
M  V30 45 H -1.5848 -1.7798 -1.3184 0
M  V30 46 H -4.5439 -2.2302 -6.3603 0
M  V30 47 H -3.0074 -5.4077 -3.9803 0
M  V30 48 H -4.5852 -4.6811 -5.7988 0
M  V30 END ATOM
M  V30 BEGIN BOND
M  V30 1 2 1 2
M  V30 2 2 1 3
M  V30 3 1 1 4
M  V30 4 1 1 5
M  V30 5 1 4 6
M  V30 6 1 4 7
M  V30 7 2 5 8
M  V30 8 1 5 9
M  V30 9 2 6 10
M  V30 10 1 7 11
M  V30 11 1 8 12
M  V30 12 2 9 13
M  V30 13 1 11 14
M  V30 14 2 12 15
M  V30 15 1 14 16
M  V30 16 1 16 17
M  V30 17 1 16 18
M  V30 18 1 17 19
M  V30 19 1 18 20
M  V30 20 1 19 21
M  V30 21 1 21 22
M  V30 22 2 22 23
M  V30 23 1 22 24
M  V30 24 1 23 25
M  V30 25 2 24 26
M  V30 26 2 25 27
M  V30 27 1 6 8
M  V30 28 1 13 15
M  V30 29 1 20 21
M  V30 30 1 26 27
M  V30 31 1 7 28
M  V30 32 1 7 29
M  V30 33 1 9 30
M  V30 34 1 11 31
M  V30 35 1 11 32
M  V30 36 1 12 33
M  V30 37 1 13 34
M  V30 38 1 14 35
M  V30 39 1 14 36
M  V30 40 1 15 37
M  V30 41 1 17 38
M  V30 42 1 17 39
M  V30 43 1 18 40
M  V30 44 1 18 41
M  V30 45 1 19 42
M  V30 46 1 19 43
M  V30 47 1 20 44
M  V30 48 1 20 45
M  V30 49 1 25 46
M  V30 50 1 26 47
M  V30 51 1 27 48
M  V30 END BOND
M  V30 END CTAB
M  END
>  <NO.>
2495

>  <Name>
revospirone

>  <SMILES>
O=C1c2ccccc2S(=O)(=O)N1CCCN1CCN(c2ncccn2)CC1

>  <logBB>


>  <Class>
1

>  <MW>
387.14

>  <nHBAcc>
7

>  <nHBDon>
0

>  <SLogP>
0.83

>  <TopoPSA>
86.71

>  <MMFF94 Energy>
-69.066

$$$$
O=NN(CCCl)C(=O)NC1CCCCC1
Actelion Java MolfileCreator 2.0

  0  0  0  0  0  0              0 V3000
M  V30 BEGIN CTAB
M  V30 COUNTS 31 31 0 0 0
M  V30 BEGIN ATOM
M  V30 1 Cl 2.6373 -3.2775 -1.8375 0
M  V30 2 C 2.7758 -2.2261 -0.4086 0
M  V30 3 C 2.7723 -0.7612 -0.8256 0
M  V30 4 N 2.7429 0.1226 0.3411 0
M  V30 5 N 4.0537 0.5436 0.9522 0
M  V30 6 C 1.608 0.5511 1.0249 0
M  V30 7 O 5.0389 0.0643 0.3818 0
M  V30 8 O 1.6478 1.2714 2.0228 0
M  V30 9 N 0.3982 0.0933 0.54 0
M  V30 10 C -0.8682 0.4405 1.1831 0
M  V30 11 C -1.3878 1.7937 0.6784 0
M  V30 12 C -1.9069 -0.6688 0.9703 0
M  V30 13 C -1.8988 1.7244 -0.76 0
M  V30 14 C -2.438 -0.7244 -0.4622 0
M  V30 15 C -2.9513 0.6336 -0.9294 0
M  V30 16 H 1.9331 -2.456 0.2506 0
M  V30 17 H 3.6987 -2.489 0.1168 0
M  V30 18 H 3.6476 -0.5282 -1.4434 0
M  V30 19 H 1.907 -0.5449 -1.4601 0
M  V30 20 H 0.3399 -0.3725 -0.3485 0
M  V30 21 H -0.677 0.5241 2.26 0
M  V30 22 H -2.2093 2.1223 1.328 0
M  V30 23 H -0.6053 2.5584 0.7481 0
M  V30 24 H -2.7521 -0.4947 1.6486 0
M  V30 25 H -1.4816 -1.6435 1.2379 0
M  V30 26 H -2.3265 2.693 -1.0431 0
M  V30 27 H -1.0615 1.5362 -1.4427 0
M  V30 28 H -1.6479 -1.0692 -1.1396 0
M  V30 29 H -3.2464 -1.462 -0.5232 0
M  V30 30 H -3.2527 0.5718 -1.9811 0
M  V30 31 H -3.8478 0.9006 -0.3562 0
M  V30 END ATOM
M  V30 BEGIN BOND
M  V30 1 1 1 2
M  V30 2 1 2 3
M  V30 3 1 3 4
M  V30 4 1 4 5
M  V30 5 1 4 6
M  V30 6 2 5 7
M  V30 7 2 6 8
M  V30 8 1 6 9
M  V30 9 1 9 10
M  V30 10 1 10 11
M  V30 11 1 10 12
M  V30 12 1 11 13
M  V30 13 1 12 14
M  V30 14 1 13 15
M  V30 15 1 14 15
M  V30 16 1 2 16
M  V30 17 1 2 17
M  V30 18 1 3 18
M  V30 19 1 3 19
M  V30 20 1 9 20
M  V30 21 1 10 21
M  V30 22 1 11 22
M  V30 23 1 11 23
M  V30 24 1 12 24
M  V30 25 1 12 25
M  V30 26 1 13 26
M  V30 27 1 13 27
M  V30 28 1 14 28
M  V30 29 1 14 29
M  V30 30 1 15 30
M  V30 31 1 15 31
M  V30 END BOND
M  V30 END CTAB
M  END
>  <NO.>
2496

>  <Name>
lomustine

>  <SMILES>
O=NN(CCCl)C(=O)NC1CCCCC1

>  <logBB>


>  <Class>
1

>  <MW>
233.09

>  <nHBAcc>
3

>  <nHBDon>
1

>  <SLogP>
2.25

>  <TopoPSA>
61.77

>  <MMFF94 Energy>
-37.708

$$$$
O=c1[nH]c2cc(Cl)c(Cl)c([N+](=O)[O-])c2[nH]c1=O
Actelion Java MolfileCreator 2.0

  0  0  0  0  0  0              0 V3000
M  V30 BEGIN CTAB
M  V30 COUNTS 20 21 0 0 0
M  V30 BEGIN ATOM
M  V30 1 Cl -3.9849 -0.254 -0.5927 0
M  V30 2 C -2.3585 0.0855 -0.0958 0
M  V30 3 C -1.2663 -0.5963 -0.6488 0
M  V30 4 C -2.1005 1.0765 0.8615 0
M  V30 5 N -1.5087 -1.6446 -1.6045 0 CHG=1
M  V30 6 C 0.061 -0.3069 -0.2905 0
M  V30 7 Cl -3.3608 1.988 1.6183 0
M  V30 8 C -0.7863 1.3705 1.247 0
M  V30 9 O -1.208 -1.4052 -2.7798 0
M  V30 10 O -1.9322 -2.7186 -1.1633 0 CHG=-1
M  V30 11 N 1.1711 -0.9632 -0.8544 0
M  V30 12 C 0.2834 0.6834 0.672 0
M  V30 13 C 2.4796 -0.699 -0.5057 0
M  V30 14 N 1.5833 0.9971 1.0758 0
M  V30 15 O 3.4133 -1.2889 -1.029 0
M  V30 16 C 2.7086 0.3817 0.5741 0
M  V30 17 O 3.8289 0.6784 0.9622 0
M  V30 18 H -0.6062 2.1411 1.9947 0
M  V30 19 H 1.0713 -1.657 -1.5902 0
M  V30 20 H 1.7611 1.7054 1.778 0
M  V30 END ATOM
M  V30 BEGIN BOND
M  V30 1 1 1 2
M  V30 2 2 2 3
M  V30 3 1 2 4
M  V30 4 1 3 5
M  V30 5 1 3 6
M  V30 6 1 4 7
M  V30 7 2 4 8
M  V30 8 2 5 9
M  V30 9 1 5 10
M  V30 10 1 6 11
M  V30 11 2 6 12
M  V30 12 1 11 13
M  V30 13 1 12 14
M  V30 14 2 13 15
M  V30 15 1 13 16
M  V30 16 2 16 17
M  V30 17 1 8 12
M  V30 18 1 14 16
M  V30 19 1 8 18
M  V30 20 1 11 19
M  V30 21 1 14 20
M  V30 END BOND
M  V30 END CTAB
M  END
>  <NO.>
2498

>  <Name>
licostinel

>  <SMILES>
O=c1[nH]c2cc(Cl)c(Cl)c([N+](=O)[O-])c2[nH]c1=O

>  <logBB>


>  <Class>
1

>  <MW>
274.95

>  <nHBAcc>
4

>  <nHBDon>
2

>  <SLogP>
1.43

>  <TopoPSA>
108.86

>  <MMFF94 Energy>
70.822

$$$$
O=c1[nH]c2cc(Cl)ccc2n1C1CCN(CC2COc3ccccc3O2)CC1
Actelion Java MolfileCreator 2.0

  0  0  0  0  0  0              0 V3000
M  V30 BEGIN CTAB
M  V30 COUNTS 50 54 0 0 0
M  V30 BEGIN ATOM
M  V30 1 Cl 4.8652 4.6215 -2.1871 0
M  V30 2 C 3.9587 3.1601 -2.2783 0
M  V30 3 C 4.4614 2.0877 -3.0147 0
M  V30 4 C 2.7225 3.0736 -1.6066 0
M  V30 5 C 3.687 0.9502 -3.0462 0
M  V30 6 C 1.9562 1.9011 -1.6581 0
M  V30 7 N 3.9408 -0.2502 -3.6954 0
M  V30 8 C 2.4589 0.8441 -2.3866 0
M  V30 9 C 2.8794 -1.1336 -3.4579 0
M  V30 10 N 1.9552 -0.4451 -2.6364 0
M  V30 11 O 2.7972 -2.2699 -3.892 0
M  V30 12 C 0.7096 -1.0251 -2.17 0
M  V30 13 C 0.6382 -1.1586 -0.6451 0
M  V30 14 C -0.5275 -0.3275 -2.7458 0
M  V30 15 C -0.6984 -1.7688 -0.2249 0
M  V30 16 C -1.8098 -0.971 -2.2137 0
M  V30 17 N -1.8736 -1.0516 -0.7442 0
M  V30 18 C -2.1056 0.2747 -0.1334 0
M  V30 19 C -2.4219 0.3128 1.3786 0 CFG=2
M  V30 20 O -1.2016 0.1845 2.1288 0
M  V30 21 C -3.4424 -0.7388 1.8048 0
M  V30 22 C -1.4485 -0.0193 3.4621 0
M  V30 23 O -3.8122 -0.5444 3.1783 0
M  V30 24 C -2.7073 -0.3578 3.969 0
M  V30 25 C -0.3638 0.1226 4.3258 0
M  V30 26 C -2.8883 -0.5103 5.3425 0
M  V30 27 C -0.5423 -0.0447 5.7001 0
M  V30 28 C -1.8046 -0.3553 6.2085 0
M  V30 29 H 5.4099 2.1476 -3.5332 0
M  V30 30 H 2.3548 3.9258 -1.0386 0
M  V30 31 H 1.0094 1.8506 -1.1364 0
M  V30 32 H 4.7431 -0.4872 -4.2556 0
M  V30 33 H 0.6881 -2.051 -2.5645 0
M  V30 34 H 0.7751 -0.1934 -0.1487 0
M  V30 35 H 1.457 -1.7986 -0.2936 0
M  V30 36 H -0.5137 -0.3968 -3.8406 0
M  V30 37 H -0.5265 0.7417 -2.5118 0
M  V30 38 H -0.7391 -1.8682 0.8634 0
M  V30 39 H -0.7433 -2.8028 -0.593 0
M  V30 40 H -1.8943 -1.9877 -2.6196 0
M  V30 41 H -2.6829 -0.433 -2.6031 0
M  V30 42 H -1.2588 0.943 -0.3265 0
M  V30 43 H -2.9771 0.7163 -0.635 0
M  V30 44 H -2.8182 1.3139 1.6033 0
M  V30 45 H -3.0605 -1.7614 1.7014 0
M  V30 46 H -4.3561 -0.6548 1.2073 0
M  V30 47 H 0.6164 0.3727 3.9307 0
M  V30 48 H -3.8694 -0.7608 5.7359 0
M  V30 49 H 0.3019 0.0709 6.3749 0
M  V30 50 H -1.9441 -0.4817 7.2791 0
M  V30 END ATOM
M  V30 BEGIN BOND
M  V30 1 1 1 2
M  V30 2 2 2 3
M  V30 3 1 2 4
M  V30 4 1 3 5
M  V30 5 2 4 6
M  V30 6 1 5 7
M  V30 7 2 5 8
M  V30 8 1 7 9
M  V30 9 1 8 10
M  V30 10 2 9 11
M  V30 11 1 10 12
M  V30 12 1 12 13
M  V30 13 1 12 14
M  V30 14 1 13 15
M  V30 15 1 14 16
M  V30 16 1 15 17
M  V30 17 1 17 18
M  V30 18 1 18 19
M  V30 19 1 19 20
M  V30 20 1 19 21
M  V30 21 1 20 22
M  V30 22 1 21 23
M  V30 23 2 22 24
M  V30 24 1 22 25
M  V30 25 1 24 26
M  V30 26 2 25 27
M  V30 27 2 26 28
M  V30 28 1 6 8
M  V30 29 1 9 10
M  V30 30 1 16 17
M  V30 31 1 23 24
M  V30 32 1 27 28
M  V30 33 1 3 29
M  V30 34 1 4 30
M  V30 35 1 6 31
M  V30 36 1 7 32
M  V30 37 1 12 33
M  V30 38 1 13 34
M  V30 39 1 13 35
M  V30 40 1 14 36
M  V30 41 1 14 37
M  V30 42 1 15 38
M  V30 43 1 15 39
M  V30 44 1 16 40
M  V30 45 1 16 41
M  V30 46 1 18 42
M  V30 47 1 18 43
M  V30 48 1 19 44
M  V30 49 1 21 45
M  V30 50 1 21 46
M  V30 51 1 25 47
M  V30 52 1 26 48
M  V30 53 1 27 49
M  V30 54 1 28 50
M  V30 END BOND
M  V30 BEGIN COLLECTION
M  V30 MDLV30/STERAC1 ATOMS=(1 19)
M  V30 END COLLECTION
M  V30 END CTAB
M  END
>  <NO.>
2499

>  <Name>
axamozide

>  <SMILES>
O=c1[nH]c2cc(Cl)ccc2n1C1CCN(CC2COc3ccccc3O2)CC1

>  <logBB>


>  <Class>
1

>  <MW>
399.13

>  <nHBAcc>
4

>  <nHBDon>
1

>  <SLogP>
3.46

>  <TopoPSA>
59.49

>  <MMFF94 Energy>
38.042

$$$$
O=c1[nH]c2cc(Cl)ccc2o1
Actelion Java MolfileCreator 2.0

  0  0  0  0  0  0              0 V3000
M  V30 BEGIN CTAB
M  V30 COUNTS 15 16 0 0 0
M  V30 BEGIN ATOM
M  V30 1 Cl -1.2352 3.4615 0.0823 0
M  V30 2 C -0.4747 1.9172 0.033 0
M  V30 3 C -1.2569 0.7649 0.138 0
M  V30 4 C 0.9263 1.8428 -0.1125 0
M  V30 5 C -0.5838 -0.4325 0.0911 0
M  V30 6 C 1.5735 0.6021 -0.1559 0
M  V30 7 N -1.0436 -1.7151 0.1648 0
M  V30 8 C 0.7856 -0.5231 -0.0508 0
M  V30 9 C 0.0401 -2.5567 0.0677 0
M  V30 10 O 1.2326 -1.834 -0.0718 0
M  V30 11 O -0.0192 -3.7768 0.0981 0
M  V30 12 H -2.3328 0.8153 0.25 0
M  V30 13 H 1.5134 2.7554 -0.1922 0
M  V30 14 H 2.6496 0.5293 -0.2674 0
M  V30 15 H -1.9921 -2.0355 0.2708 0
M  V30 END ATOM
M  V30 BEGIN BOND
M  V30 1 1 1 2
M  V30 2 2 2 3
M  V30 3 1 2 4
M  V30 4 1 3 5
M  V30 5 2 4 6
M  V30 6 1 5 7
M  V30 7 2 5 8
M  V30 8 1 7 9
M  V30 9 1 8 10
M  V30 10 2 9 11
M  V30 11 1 6 8
M  V30 12 1 9 10
M  V30 13 1 3 12
M  V30 14 1 4 13
M  V30 15 1 6 14
M  V30 16 1 7 15
M  V30 END BOND
M  V30 END CTAB
M  END
>  <NO.>
2501

>  <Name>
chlorzoxazone

>  <SMILES>
O=c1[nH]c2cc(Cl)ccc2o1

>  <logBB>


>  <Class>
1

>  <MW>
168.99

>  <nHBAcc>
2

>  <nHBDon>
1

>  <SLogP>
1.77

>  <TopoPSA>
46

>  <MMFF94 Energy>
-7.1424

$$$$
O=c1[nH]c2ccccc2c(=O)n1CCCN1CCN(c2cccc(Cl)c2)CC1
Actelion Java MolfileCreator 2.0

  0  0  0  0  0  0              0 V3000
M  V30 BEGIN CTAB
M  V30 COUNTS 51 54 0 0 0
M  V30 BEGIN ATOM
M  V30 1 Cl 2.5734 -4.8293 -6.8467 0
M  V30 2 C 2.1907 -3.3022 -6.1482 0
M  V30 3 C 1.7878 -3.2327 -4.8116 0
M  V30 4 C 2.2916 -2.1496 -6.918 0
M  V30 5 C 1.469 -2.007 -4.2051 0
M  V30 6 C 1.9922 -0.9208 -6.3405 0
M  V30 7 N 1.0764 -1.9573 -2.8709 0
M  V30 8 C 1.5906 -0.8554 -5.0003 0
M  V30 9 C 1.1676 -0.6971 -2.1133 0
M  V30 10 C -0.0172 -2.8467 -2.4351 0
M  V30 11 C 1.1481 -0.9547 -0.5883 0
M  V30 12 C -0.002 -3.0405 -0.9017 0
M  V30 13 N -0.0136 -1.7638 -0.1492 0
M  V30 14 C 0.0071 -2.0281 1.2972 0
M  V30 15 C -0.1596 -0.7796 2.1715 0
M  V30 16 C -1.4268 0.012 1.8366 0
M  V30 17 N -1.5782 1.1661 2.7193 0
M  V30 18 C -2.2853 0.9942 3.8987 0
M  V30 19 C -0.9599 2.358 2.3417 0
M  V30 20 O -2.7787 -0.073 4.2612 0
M  V30 21 N -2.4209 2.0921 4.7 0
M  V30 22 O -0.2721 2.4899 1.3312 0
M  V30 23 C -1.1484 3.5155 3.2377 0
M  V30 24 C -1.8861 3.3417 4.4028 0
M  V30 25 C -0.5993 4.765 2.9319 0
M  V30 26 C -2.0851 4.4118 5.2755 0
M  V30 27 C -0.797 5.8382 3.8021 0
M  V30 28 C -1.5389 5.6612 4.9716 0
M  V30 29 H 1.7551 -4.1491 -4.2296 0
M  V30 30 H 2.6041 -2.2013 -7.9566 0
M  V30 31 H 2.0666 -0.0093 -6.9277 0
M  V30 32 H 1.351 0.1239 -4.5947 0
M  V30 33 H 0.3304 -0.0413 -2.3843 0
M  V30 34 H 2.1029 -0.1738 -2.3468 0
M  V30 35 H 0.0459 -3.839 -2.8935 0
M  V30 36 H -0.9762 -2.409 -2.7415 0
M  V30 37 H 1.1348 0.0243 -0.0976 0
M  V30 38 H 2.0832 -1.4537 -0.3005 0
M  V30 39 H 0.884 -3.63 -0.6293 0
M  V30 40 H -0.8844 -3.6322 -0.6291 0
M  V30 41 H 0.9335 -2.5421 1.5847 0
M  V30 42 H -0.8179 -2.7093 1.5437 0
M  V30 43 H -0.1972 -1.0974 3.2216 0
M  V30 44 H 0.7224 -0.1336 2.0912 0
M  V30 45 H -2.3054 -0.6368 1.9311 0
M  V30 46 H -1.396 0.3657 0.8 0
M  V30 47 H -2.9447 1.9435 5.5528 0
M  V30 48 H -0.0211 4.9037 2.0209 0
M  V30 49 H -2.6592 4.29 6.19 0
M  V30 50 H -0.3724 6.812 3.5683 0
M  V30 51 H -1.6911 6.4996 5.6481 0
M  V30 END ATOM
M  V30 BEGIN BOND
M  V30 1 1 1 2
M  V30 2 2 2 3
M  V30 3 1 2 4
M  V30 4 1 3 5
M  V30 5 2 4 6
M  V30 6 1 5 7
M  V30 7 2 5 8
M  V30 8 1 7 9
M  V30 9 1 7 10
M  V30 10 1 9 11
M  V30 11 1 10 12
M  V30 12 1 11 13
M  V30 13 1 13 14
M  V30 14 1 14 15
M  V30 15 1 15 16
M  V30 16 1 16 17
M  V30 17 1 17 18
M  V30 18 1 17 19
M  V30 19 2 18 20
M  V30 20 1 18 21
M  V30 21 2 19 22
M  V30 22 1 19 23
M  V30 23 1 21 24
M  V30 24 1 23 25
M  V30 25 1 24 26
M  V30 26 2 25 27
M  V30 27 2 26 28
M  V30 28 1 6 8
M  V30 29 1 12 13
M  V30 30 2 23 24
M  V30 31 1 27 28
M  V30 32 1 3 29
M  V30 33 1 4 30
M  V30 34 1 6 31
M  V30 35 1 8 32
M  V30 36 1 9 33
M  V30 37 1 9 34
M  V30 38 1 10 35
M  V30 39 1 10 36
M  V30 40 1 11 37
M  V30 41 1 11 38
M  V30 42 1 12 39
M  V30 43 1 12 40
M  V30 44 1 14 41
M  V30 45 1 14 42
M  V30 46 1 15 43
M  V30 47 1 15 44
M  V30 48 1 16 45
M  V30 49 1 16 46
M  V30 50 1 21 47
M  V30 51 1 25 48
M  V30 52 1 26 49
M  V30 53 1 27 50
M  V30 54 1 28 51
M  V30 END BOND
M  V30 END CTAB
M  END
>  <NO.>
2502

>  <Name>
cloperidone

>  <SMILES>
O=c1[nH]c2ccccc2c(=O)n1CCCN1CCN(c2cccc(Cl)c2)CC1

>  <logBB>


>  <Class>
1

>  <MW>
398.15

>  <nHBAcc>
4

>  <nHBDon>
1

>  <SLogP>
2.56

>  <TopoPSA>
61.34

>  <MMFF94 Energy>
33.888

$$$$
O=c1[nH]c2ccccc2c(=O)n1CCN1C[C@H]2C[C@H](c3ccc(F)cc3)[C@H]2C1
Actelion Java MolfileCreator 2.0

  0  0  0  0  0  0              0 V3000
M  V30 BEGIN CTAB
M  V30 COUNTS 50 54 0 0 0
M  V30 BEGIN ATOM
M  V30 1 F 2.9925 7.8598 -1.7785 0
M  V30 2 C 2.6281 6.621 -1.4235 0
M  V30 3 C 2.0312 6.4083 -0.191 0
M  V30 4 C 2.8559 5.564 -2.2903 0
M  V30 5 C 1.6533 5.1134 0.1755 0
M  V30 6 C 2.4745 4.2726 -1.9152 0
M  V30 7 C 1.8534 4.006 -0.6761 0
M  V30 8 C 1.4333 2.5331 -0.2496 0 CFG=2
M  V30 9 C 0.8154 1.5887 -1.3384 0 CFG=2
M  V30 10 C 0.1233 2.3292 0.5586 0
M  V30 11 C -0.1687 1.0741 -0.2833 0 CFG=2
M  V30 12 C 1.6383 0.3747 -1.7518 0
M  V30 13 C 0.4078 -0.2785 0.11 0
M  V30 14 N 1.0593 -0.8174 -1.0958 0
M  V30 15 C 0.1097 -1.5088 -1.9949 0
M  V30 16 C -0.1632 -2.9878 -1.6247 0
M  V30 17 N -1.0472 -3.1825 -0.4801 0
M  V30 18 C -2.3857 -2.8661 -0.6471 0
M  V30 19 C -0.5117 -3.7278 0.6861 0
M  V30 20 O -2.8693 -2.4438 -1.6969 0
M  V30 21 N -3.2011 -3.0407 0.4334 0
M  V30 22 O 0.6533 -4.0938 0.817 0
M  V30 23 C -1.4327 -3.877 1.8303 0
M  V30 24 C -2.7655 -3.5207 1.664 0
M  V30 25 C -0.9844 -4.3666 3.0615 0
M  V30 26 C -3.6657 -3.6484 2.722 0
M  V30 27 C -1.8814 -4.4947 4.1229 0
M  V30 28 C -3.2198 -4.1359 3.9527 0
M  V30 29 H 1.8649 7.2453 0.479 0
M  V30 30 H 3.3297 5.7462 -3.2492 0
M  V30 31 H 1.193 4.961 1.1504 0
M  V30 32 H 2.6683 3.4523 -2.6039 0
M  V30 33 H 2.2781 2.0584 0.2742 0
M  V30 34 H 0.3236 2.1084 -2.1696 0
M  V30 35 H -0.6241 3.1188 0.4169 0
M  V30 36 H 0.2528 2.1611 1.6316 0
M  V30 37 H -1.2054 1.0043 -0.6332 0
M  V30 38 H 2.6757 0.4823 -1.4129 0
M  V30 39 H 1.6875 0.2811 -2.8426 0
M  V30 40 H 1.1741 -0.1632 0.8872 0
M  V30 41 H -0.3599 -0.926 0.5361 0
M  V30 42 H 0.561 -1.5547 -2.9951 0
M  V30 43 H -0.822 -0.9434 -2.1086 0
M  V30 44 H -0.6439 -3.4665 -2.488 0
M  V30 45 H 0.7897 -3.5075 -1.475 0
M  V30 46 H -4.173 -2.8004 0.2875 0
M  V30 47 H 0.0583 -4.6471 3.1944 0
M  V30 48 H -4.7108 -3.3751 2.605 0
M  V30 49 H -1.5365 -4.8753 5.0816 0
M  V30 50 H -3.9169 -4.2381 4.7816 0
M  V30 END ATOM
M  V30 BEGIN BOND
M  V30 1 1 1 2
M  V30 2 2 2 3
M  V30 3 1 2 4
M  V30 4 1 3 5
M  V30 5 2 4 6
M  V30 6 2 5 7
M  V30 7 1 7 8
M  V30 8 1 8 9
M  V30 9 1 8 10
M  V30 10 1 9 11
M  V30 11 1 9 12
M  V30 12 1 11 13
M  V30 13 1 12 14
M  V30 14 1 14 15
M  V30 15 1 15 16
M  V30 16 1 16 17
M  V30 17 1 17 18
M  V30 18 1 17 19
M  V30 19 2 18 20
M  V30 20 1 18 21
M  V30 21 2 19 22
M  V30 22 1 19 23
M  V30 23 1 21 24
M  V30 24 1 23 25
M  V30 25 1 24 26
M  V30 26 2 25 27
M  V30 27 2 26 28
M  V30 28 1 6 7
M  V30 29 1 10 11
M  V30 30 1 13 14
M  V30 31 2 23 24
M  V30 32 1 27 28
M  V30 33 1 3 29
M  V30 34 1 4 30
M  V30 35 1 5 31
M  V30 36 1 6 32
M  V30 37 1 8 33
M  V30 38 1 9 34
M  V30 39 1 10 35
M  V30 40 1 10 36
M  V30 41 1 11 37
M  V30 42 1 12 38
M  V30 43 1 12 39
M  V30 44 1 13 40
M  V30 45 1 13 41
M  V30 46 1 15 42
M  V30 47 1 15 43
M  V30 48 1 16 44
M  V30 49 1 16 45
M  V30 50 1 21 46
M  V30 51 1 25 47
M  V30 52 1 26 48
M  V30 53 1 27 49
M  V30 54 1 28 50
M  V30 END BOND
M  V30 BEGIN COLLECTION
M  V30 MDLV30/STEABS ATOMS=(3 8 9 11)
M  V30 END COLLECTION
M  V30 END CTAB
M  END
>  <NO.>
2503

>  <Name>
balaperidone

>  <SMILES>
O=c1[nH]c2ccccc2c(=O)n1CCN1C[C@H]2C[C@H](c3ccc(F)cc3)[C@H]2C1

>  <logBB>


>  <Class>
1

>  <MW>
379.17

>  <nHBAcc>
3

>  <nHBDon>
1

>  <SLogP>
2.56

>  <TopoPSA>
58.1

>  <MMFF94 Energy>
3.1351

$$$$
O=c1[nH]c2ccccc2n1C1CCN(CCCc2noc3cc(F)ccc23)CC1
Actelion Java MolfileCreator 2.0

  0  0  0  0  0  0              0 V3000
M  V30 BEGIN CTAB
M  V30 COUNTS 52 56 0 0 0
M  V30 BEGIN ATOM
M  V30 1 F 3.2186 3.0575 7.0915 0
M  V30 2 C 2.1582 2.7208 6.3445 0
M  V30 3 C 0.9632 2.3927 6.9814 0
M  V30 4 C 2.2893 2.7107 4.9556 0
M  V30 5 C -0.0902 2.0544 6.1395 0
M  V30 6 C 1.2048 2.3641 4.1374 0
M  V30 7 O -1.3441 1.6999 6.5262 0
M  V30 8 C -0.0125 2.0292 4.7573 0
M  V30 9 N -2.1174 1.4335 5.4075 0
M  V30 10 C -1.3135 1.6317 4.3533 0
M  V30 11 C -1.8269 1.4299 2.9693 0
M  V30 12 C -1.5203 0.0266 2.4383 0
M  V30 13 C -1.9905 -0.1175 0.9857 0
M  V30 14 N -1.8565 -1.4871 0.4582 0
M  V30 15 C -0.4717 -1.9697 0.3666 0
M  V30 16 C -2.529 -1.625 -0.8443 0
M  V30 17 C 0.3539 -1.2748 -0.7145 0
M  V30 18 C -1.8034 -0.9211 -1.9918 0
M  V30 19 C -0.3413 -1.3747 -2.0781 0
M  V30 20 N 0.3843 -0.6502 -3.1082 0
M  V30 21 C 0.6504 0.739 -3.112 0
M  V30 22 C 0.9149 -1.2059 -4.2856 0
M  V30 23 O 0.3458 1.5683 -2.2706 0
M  V30 24 N 1.3507 1.0093 -4.2963 0
M  V30 25 C 1.51 -0.1712 -5.0091 0
M  V30 26 C 0.9192 -2.4999 -4.7615 0
M  V30 27 C 2.1295 -0.3692 -6.222 0
M  V30 28 C 1.5436 -2.7295 -5.9942 0
M  V30 29 C 2.1421 -1.6759 -6.7163 0
M  V30 30 H 0.8641 2.4012 8.0582 0
M  V30 31 H 3.2453 2.9757 4.512 0
M  V30 32 H 1.3086 2.3565 3.0563 0
M  V30 33 H -1.3785 2.1822 2.3082 0
M  V30 34 H -2.91 1.6056 2.9469 0
M  V30 35 H -0.4416 -0.1525 2.5108 0
M  V30 36 H -2.0144 -0.7235 3.0689 0
M  V30 37 H -3.0525 0.1601 0.9578 0
M  V30 38 H -1.4616 0.6115 0.3613 0
M  V30 39 H 0.0398 -1.8951 1.3316 0
M  V30 40 H -0.4987 -3.0467 0.1523 0
M  V30 41 H -2.6152 -2.6944 -1.0782 0
M  V30 42 H -3.5618 -1.2606 -0.78 0
M  V30 43 H 0.528 -0.2307 -0.4323 0
M  V30 44 H 1.3449 -1.7416 -0.7733 0
M  V30 45 H -2.3142 -1.1442 -2.9368 0
M  V30 46 H -1.8698 0.1651 -1.8625 0
M  V30 47 H -0.3502 -2.4365 -2.352 0
M  V30 48 H 1.6669 1.9278 -4.5592 0
M  V30 49 H 0.4643 -3.3199 -4.2204 0
M  V30 50 H 2.5865 0.444 -6.7722 0
M  V30 51 H 1.5683 -3.7376 -6.4038 0
M  V30 52 H 2.6192 -1.8863 -7.6714 0
M  V30 END ATOM
M  V30 BEGIN BOND
M  V30 1 1 1 2
M  V30 2 2 2 3
M  V30 3 1 2 4
M  V30 4 1 3 5
M  V30 5 2 4 6
M  V30 6 1 5 7
M  V30 7 2 5 8
M  V30 8 1 7 9
M  V30 9 1 8 10
M  V30 10 1 10 11
M  V30 11 1 11 12
M  V30 12 1 12 13
M  V30 13 1 13 14
M  V30 14 1 14 15
M  V30 15 1 14 16
M  V30 16 1 15 17
M  V30 17 1 16 18
M  V30 18 1 17 19
M  V30 19 1 19 20
M  V30 20 1 20 21
M  V30 21 1 20 22
M  V30 22 2 21 23
M  V30 23 1 21 24
M  V30 24 2 22 25
M  V30 25 1 22 26
M  V30 26 1 25 27
M  V30 27 2 26 28
M  V30 28 2 27 29
M  V30 29 1 6 8
M  V30 30 2 9 10
M  V30 31 1 18 19
M  V30 32 1 24 25
M  V30 33 1 28 29
M  V30 34 1 3 30
M  V30 35 1 4 31
M  V30 36 1 6 32
M  V30 37 1 11 33
M  V30 38 1 11 34
M  V30 39 1 12 35
M  V30 40 1 12 36
M  V30 41 1 13 37
M  V30 42 1 13 38
M  V30 43 1 15 39
M  V30 44 1 15 40
M  V30 45 1 16 41
M  V30 46 1 16 42
M  V30 47 1 17 43
M  V30 48 1 17 44
M  V30 49 1 18 45
M  V30 50 1 18 46
M  V30 51 1 19 47
M  V30 52 1 24 48
M  V30 53 1 26 49
M  V30 54 1 27 50
M  V30 55 1 28 51
M  V30 56 1 29 52
M  V30 END BOND
M  V30 END CTAB
M  END
>  <NO.>
2505

>  <Name>
neflumozide

>  <SMILES>
O=c1[nH]c2ccccc2n1C1CCN(CCCc2noc3cc(F)ccc23)CC1

>  <logBB>


>  <Class>
1

>  <MW>
394.18

>  <nHBAcc>
4

>  <nHBDon>
1

>  <SLogP>
3.88

>  <TopoPSA>
67.06

>  <MMFF94 Energy>
-6.5524

$$$$
O=c1[nH]c2ccccc2n1C1CCN(CCOc2ccccc2)CC1
Actelion Java MolfileCreator 2.0

  0  0  0  0  0  0              0 V3000
M  V30 BEGIN CTAB
M  V30 COUNTS 48 51 0 0 0
M  V30 BEGIN ATOM
M  V30 1 O 1.1941 -2.9474 -4.6233 0
M  V30 2 C 1.1933 -1.7491 -4.396 0
M  V30 3 N 0.7089 -1.0811 -3.2464 0
M  V30 4 N 1.689 -0.761 -5.2563 0
M  V30 5 C 0.9146 0.3004 -3.4183 0
M  V30 6 C 0.1119 -1.7618 -2.1133 0
M  V30 7 C 1.5204 0.4825 -4.6636 0
M  V30 8 C 0.6297 1.3803 -2.6099 0
M  V30 9 C 0.9264 -1.6099 -0.8242 0
M  V30 10 C -1.3636 -1.4047 -1.9061 0
M  V30 11 C 1.8651 1.7214 -5.1556 0
M  V30 12 C 0.97 2.6536 -3.0854 0
M  V30 13 C 0.2443 -2.3413 0.3324 0
M  V30 14 C -1.9332 -2.1473 -0.6963 0
M  V30 15 C 1.581 2.8224 -4.3447 0
M  V30 16 N -1.1587 -1.955 0.5407 0
M  V30 17 C -1.3361 -0.5986 1.0902 0
M  V30 18 C -0.8327 -0.4287 2.5335 0
M  V30 19 O -1.1566 0.9 2.9571 0
M  V30 20 C -0.7907 1.2533 4.2268 0
M  V30 21 C -0.1486 0.4333 5.1556 0
M  V30 22 C -1.1112 2.5665 4.5822 0
M  V30 23 C 0.1698 0.9259 6.4254 0
M  V30 24 C -0.7938 3.0591 5.8492 0
M  V30 25 C -0.1519 2.2371 6.7718 0
M  V30 26 H 2.0964 -0.9593 -6.1547 0
M  V30 27 H 0.1321 -2.833 -2.3595 0
M  V30 28 H 0.1614 1.2738 -1.6403 0
M  V30 29 H 1.0694 -0.5572 -0.5615 0
M  V30 30 H 1.9316 -2.0233 -0.9734 0
M  V30 31 H -1.9376 -1.6737 -2.8016 0
M  V30 32 H -1.4992 -0.3269 -1.7728 0
M  V30 33 H 2.3344 1.8432 -6.124 0
M  V30 34 H 0.7596 3.5286 -2.473 0
M  V30 35 H 0.8291 -2.2111 1.2489 0
M  V30 36 H 0.2749 -3.4211 0.1339 0
M  V30 37 H -1.9667 -3.2218 -0.9197 0
M  V30 38 H -2.9786 -1.8539 -0.5401 0
M  V30 39 H 1.8334 3.824 -4.6866 0
M  V30 40 H -2.4071 -0.3535 1.1015 0
M  V30 41 H -0.8743 0.1675 0.4564 0
M  V30 42 H -1.332 -1.1605 3.1801 0
M  V30 43 H 0.2531 -0.5649 2.5736 0
M  V30 44 H 0.1165 -0.5932 4.9273 0
M  V30 45 H -1.6136 3.211 3.8654 0
M  V30 46 H 0.669 0.2827 7.1456 0
M  V30 47 H -1.0489 4.0818 6.1136 0
M  V30 48 H 0.096 2.6165 7.7596 0
M  V30 END ATOM
M  V30 BEGIN BOND
M  V30 1 2 1 2
M  V30 2 1 2 3
M  V30 3 1 2 4
M  V30 4 1 3 5
M  V30 5 1 3 6
M  V30 6 1 4 7
M  V30 7 1 5 8
M  V30 8 1 6 9
M  V30 9 1 6 10
M  V30 10 1 7 11
M  V30 11 2 8 12
M  V30 12 1 9 13
M  V30 13 1 10 14
M  V30 14 2 11 15
M  V30 15 1 13 16
M  V30 16 1 16 17
M  V30 17 1 17 18
M  V30 18 1 18 19
M  V30 19 1 19 20
M  V30 20 2 20 21
M  V30 21 1 20 22
M  V30 22 1 21 23
M  V30 23 2 22 24
M  V30 24 2 23 25
M  V30 25 2 5 7
M  V30 26 1 12 15
M  V30 27 1 14 16
M  V30 28 1 24 25
M  V30 29 1 4 26
M  V30 30 1 6 27
M  V30 31 1 8 28
M  V30 32 1 9 29
M  V30 33 1 9 30
M  V30 34 1 10 31
M  V30 35 1 10 32
M  V30 36 1 11 33
M  V30 37 1 12 34
M  V30 38 1 13 35
M  V30 39 1 13 36
M  V30 40 1 14 37
M  V30 41 1 14 38
M  V30 42 1 15 39
M  V30 43 1 17 40
M  V30 44 1 17 41
M  V30 45 1 18 42
M  V30 46 1 18 43
M  V30 47 1 21 44
M  V30 48 1 22 45
M  V30 49 1 23 46
M  V30 50 1 24 47
M  V30 51 1 25 48
M  V30 END BOND
M  V30 END CTAB
M  END
>  <NO.>
2506

>  <Name>
oxiperomide

>  <SMILES>
O=c1[nH]c2ccccc2n1C1CCN(CCOc2ccccc2)CC1

>  <logBB>


>  <Class>
1

>  <MW>
337.18

>  <nHBAcc>
3

>  <nHBDon>
1

>  <SLogP>
3.05

>  <TopoPSA>
50.26

>  <MMFF94 Energy>
19.212

$$$$
O=c1oc2ccccc2c(O)c1Cc1c(O)c2ccccc2oc1=O
Actelion Java MolfileCreator 2.0

  0  0  0  0  0  0              0 V3000
M  V30 BEGIN CTAB
M  V30 COUNTS 37 40 0 0 0
M  V30 BEGIN ATOM
M  V30 1 O 0.4063 0.6501 3.9872 0
M  V30 2 C -0.4943 0.4779 3.1724 0
M  V30 3 O -1.7593 0.9982 3.4023 0
M  V30 4 C -0.2888 -0.3191 1.9302 0
M  V30 5 C -2.8523 0.6484 2.5963 0
M  V30 6 C -1.3486 -0.6751 1.1786 0
M  V30 7 C 1.1424 -0.719 1.6531 0
M  V30 8 C -2.692 -0.1933 1.5027 0
M  V30 9 C -4.0956 1.1688 2.9559 0
M  V30 10 O -1.2835 -1.4885 0.0653 0
M  V30 11 C 1.6927 -0.1487 0.3634 0
M  V30 12 C -3.8283 -0.5196 0.7517 0
M  V30 13 C -5.2169 0.8366 2.2003 0
M  V30 14 C 2.1615 1.2565 0.4153 0
M  V30 15 C 1.8127 -0.864 -0.7654 0
M  V30 16 C -5.0839 -0.0084 1.099 0
M  V30 17 O 2.0064 1.9519 1.4116 0
M  V30 18 O 2.8051 1.7521 -0.7089 0
M  V30 19 O 1.3831 -2.1791 -0.8019 0
M  V30 20 C 2.3711 -0.2775 -1.9851 0
M  V30 21 C 2.8784 1.0173 -1.9047 0
M  V30 22 C 2.4131 -0.9188 -3.2301 0
M  V30 23 C 3.4523 1.6626 -2.9998 0
M  V30 24 C 2.9836 -0.283 -4.3402 0
M  V30 25 C 3.5091 1.0031 -4.2232 0
M  V30 26 H 1.1911 -1.8164 1.6457 0
M  V30 27 H 1.8198 -0.4426 2.4699 0
M  V30 28 H -4.1871 1.8235 3.8179 0
M  V30 29 H -0.3747 -1.8154 -0.0734 0
M  V30 30 H -3.7457 -1.1722 -0.1144 0
M  V30 31 H -6.1924 1.2341 2.4686 0
M  V30 32 H -5.9567 -0.2699 0.5056 0
M  V30 33 H 1.9457 -2.666 -1.4318 0
M  V30 34 H 1.9901 -1.9082 -3.3777 0
M  V30 35 H 3.8396 2.673 -2.9007 0
M  V30 36 H 3.0098 -0.7908 -5.302 0
M  V30 37 H 3.9481 1.495 -5.0877 0
M  V30 END ATOM
M  V30 BEGIN BOND
M  V30 1 2 1 2
M  V30 2 1 2 3
M  V30 3 1 2 4
M  V30 4 1 3 5
M  V30 5 2 4 6
M  V30 6 1 4 7
M  V30 7 2 5 8
M  V30 8 1 5 9
M  V30 9 1 6 10
M  V30 10 1 7 11
M  V30 11 1 8 12
M  V30 12 2 9 13
M  V30 13 1 11 14
M  V30 14 2 11 15
M  V30 15 2 12 16
M  V30 16 2 14 17
M  V30 17 1 14 18
M  V30 18 1 15 19
M  V30 19 1 15 20
M  V30 20 1 18 21
M  V30 21 1 20 22
M  V30 22 1 21 23
M  V30 23 2 22 24
M  V30 24 2 23 25
M  V30 25 1 6 8
M  V30 26 1 13 16
M  V30 27 2 20 21
M  V30 28 1 24 25
M  V30 29 1 7 26
M  V30 30 1 7 27
M  V30 31 1 9 28
M  V30 32 1 10 29
M  V30 33 1 12 30
M  V30 34 1 13 31
M  V30 35 1 16 32
M  V30 36 1 19 33
M  V30 37 1 22 34
M  V30 38 1 23 35
M  V30 39 1 24 36
M  V30 40 1 25 37
M  V30 END BOND
M  V30 END CTAB
M  END
>  <NO.>
2512

>  <Name>
dicumarol

>  <SMILES>
O=c1oc2ccccc2c(O)c1Cc1c(O)c2ccccc2oc1=O

>  <logBB>


>  <Class>
-1

>  <MW>
336.06

>  <nHBAcc>
6

>  <nHBDon>
2

>  <SLogP>
2.9

>  <TopoPSA>
100.88

>  <MMFF94 Energy>
53.409

$$$$
OC(Br)(Br)CBr
Actelion Java MolfileCreator 2.0

  0  0  0  0  0  0              0 V3000
M  V30 BEGIN CTAB
M  V30 COUNTS 9 8 0 0 0
M  V30 BEGIN ATOM
M  V30 1 Br -1.122 1.4026 1.2155 0
M  V30 2 C -0.2661 -0.1145 0.335 0
M  V30 3 Br 0.6256 -1.2864 1.6162 0
M  V30 4 O -1.3144 -0.8824 -0.2467 0
M  V30 5 C 0.6754 0.3324 -0.7731 0
M  V30 6 Br 2.1919 1.4065 -0.1789 0
M  V30 7 H -1.8744 -1.1339 0.5078 0
M  V30 8 H 0.153 0.9396 -1.5207 0
M  V30 9 H 1.1051 -0.5252 -1.3025 0
M  V30 END ATOM
M  V30 BEGIN BOND
M  V30 1 1 1 2
M  V30 2 1 2 3
M  V30 3 1 2 4
M  V30 4 1 2 5
M  V30 5 1 5 6
M  V30 6 1 4 7
M  V30 7 1 5 8
M  V30 8 1 5 9
M  V30 END BOND
M  V30 END CTAB
M  END
>  <NO.>
2513

>  <Name>
1,1,2-tribromoethanol

>  <SMILES>
OC(Br)(Br)CBr

>  <logBB>


>  <Class>
1

>  <MW>
279.77

>  <nHBAcc>
1

>  <nHBDon>
1

>  <SLogP>
1.82

>  <TopoPSA>
20.23

>  <MMFF94 Energy>
8.0224

$$$$
OC(C1=NCCN1)(c1ccc(Cl)cc1)c1ccccn1
Actelion Java MolfileCreator 2.0

  0  0  0  0  0  0              0 V3000
M  V30 BEGIN CTAB
M  V30 COUNTS 34 36 0 0 0
M  V30 BEGIN ATOM
M  V30 1 Cl 5.8492 0.7297 0.2432 0
M  V30 2 C 4.1291 0.6986 0.2308 0
M  V30 3 C 3.4187 1.2303 1.3016 0
M  V30 4 C 3.4543 0.1371 -0.8489 0
M  V30 5 C 2.0216 1.2015 1.2882 0
M  V30 6 C 2.0555 0.109 -0.8614 0
M  V30 7 C 1.3108 0.6484 0.2028 0
M  V30 8 C -0.221 0.6101 0.2423 0 CFG=2
M  V30 9 O -0.6523 1.921 0.7195 0
M  V30 10 C -0.7803 -0.4484 1.2049 0
M  V30 11 C -0.8911 0.4944 -1.1551 0
M  V30 12 N -1.619 0.0076 2.1878 0
M  V30 13 C -0.4467 -1.7978 1.0863 0
M  V30 14 N -1.0251 -0.6369 -1.8142 0
M  V30 15 N -1.3719 1.5991 -1.8086 0
M  V30 16 C -2.1164 -0.9045 3.0524 0
M  V30 17 C -0.9792 -2.7082 1.9949 0
M  V30 18 C -1.6984 -0.2585 -3.0958 0
M  V30 19 C -2.0025 1.2447 -3.0373 0
M  V30 20 C -1.8282 -2.2568 2.9975 0
M  V30 21 H 3.9396 1.6678 2.1486 0
M  V30 22 H 4.007 -0.2833 -1.6848 0
M  V30 23 H 1.4783 1.6202 2.1351 0
M  V30 24 H 1.562 -0.347 -1.7174 0
M  V30 25 H -1.3509 1.7006 1.3718 0
M  V30 26 H 0.2087 -2.1428 0.292 0
M  V30 27 H -1.3673 2.5174 -1.3799 0
M  V30 28 H -2.7766 -0.5067 3.8182 0
M  V30 29 H -0.7343 -3.7636 1.9157 0
M  V30 30 H -1.0305 -0.4901 -3.9324 0
M  V30 31 H -2.6168 -0.842 -3.2168 0
M  V30 32 H -1.5719 1.7789 -3.8886 0
M  V30 33 H -3.0798 1.4313 -2.9979 0
M  V30 34 H -2.2575 -2.9443 3.7175 0
M  V30 END ATOM
M  V30 BEGIN BOND
M  V30 1 1 1 2
M  V30 2 2 2 3
M  V30 3 1 2 4
M  V30 4 1 3 5
M  V30 5 2 4 6
M  V30 6 2 5 7
M  V30 7 1 7 8
M  V30 8 1 8 9
M  V30 9 1 8 10
M  V30 10 1 8 11
M  V30 11 2 10 12
M  V30 12 1 10 13
M  V30 13 2 11 14
M  V30 14 1 11 15
M  V30 15 1 12 16
M  V30 16 2 13 17
M  V30 17 1 14 18
M  V30 18 1 15 19
M  V30 19 2 16 20
M  V30 20 1 6 7
M  V30 21 1 17 20
M  V30 22 1 18 19
M  V30 23 1 3 21
M  V30 24 1 4 22
M  V30 25 1 5 23
M  V30 26 1 6 24
M  V30 27 1 9 25
M  V30 28 1 13 26
M  V30 29 1 15 27
M  V30 30 1 16 28
M  V30 31 1 17 29
M  V30 32 1 18 30
M  V30 33 1 18 31
M  V30 34 1 19 32
M  V30 35 1 19 33
M  V30 36 1 20 34
M  V30 END BOND
M  V30 BEGIN COLLECTION
M  V30 MDLV30/STERAC1 ATOMS=(1 8)
M  V30 END COLLECTION
M  V30 END CTAB
M  END
>  <NO.>
2514

>  <Name>
dazadrol

>  <SMILES>
OC(C1=NCCN1)(c1ccc(Cl)cc1)c1ccccn1

>  <logBB>


>  <Class>
1

>  <MW>
287.08

>  <nHBAcc>
4

>  <nHBDon>
2

>  <SLogP>
1.97

>  <TopoPSA>
57.51

>  <MMFF94 Energy>
140.36

$$$$
OC(CCN1CCCC1)(c1ccccc1)C1CCCCC1
Actelion Java MolfileCreator 2.0

  0  0  0  0  0  0              0 V3000
M  V30 BEGIN CTAB
M  V30 COUNTS 50 52 0 0 0
M  V30 BEGIN ATOM
M  V30 1 O -1.7418 0.3165 -1.4249 0
M  V30 2 C -0.6211 0.5323 -0.5398 0 CFG=2
M  V30 3 C -1.1639 0.7334 0.8816 0
M  V30 4 C 0.1315 1.8003 -1.0901 0
M  V30 5 C 0.2686 -0.7391 -0.6628 0
M  V30 6 C -2.51 1.0839 1.0969 0
M  V30 7 C -0.3461 0.5837 2.0167 0
M  V30 8 C -0.7721 3.0538 -1.161 0
M  V30 9 C 1.448 2.1484 -0.368 0
M  V30 10 C -0.4793 -2.049 -0.351 0
M  V30 11 C -3.0169 1.2729 2.3854 0
M  V30 12 C -0.8519 0.7726 3.3065 0
M  V30 13 C -0.0556 4.2356 -1.8135 0
M  V30 14 C 2.159 3.3322 -1.0253 0
M  V30 15 N 0.379 -3.2242 -0.5628 0
M  V30 16 C -2.1873 1.1166 3.4906 0
M  V30 17 C 1.2562 4.5575 -1.1078 0
M  V30 18 C -0.3855 -4.471 -0.4576 0
M  V30 19 C 1.4418 -3.3583 0.4371 0
M  V30 20 C 0.702 -5.5263 -0.3495 0
M  V30 21 C 1.8786 -4.8112 0.3034 0
M  V30 22 H -1.3857 0.163 -2.3164 0
M  V30 23 H 0.3962 1.5688 -2.1337 0
M  V30 24 H 0.6394 -0.8077 -1.6952 0
M  V30 25 H 1.1513 -0.658 -0.0214 0
M  V30 26 H -3.1829 1.2149 0.251 0
M  V30 27 H 0.7038 0.3214 1.9175 0
M  V30 28 H -1.6821 2.8396 -1.7328 0
M  V30 29 H -1.0869 3.3512 -0.1536 0
M  V30 30 H 2.1318 1.2939 -0.3741 0
M  V30 31 H 1.2538 2.4039 0.6792 0
M  V30 32 H -0.8759 -2.0407 0.671 0
M  V30 33 H -1.3392 -2.1278 -1.0275 0
M  V30 34 H -4.0612 1.5421 2.5205 0
M  V30 35 H -0.1997 0.6519 4.1676 0
M  V30 36 H -0.7081 5.116 -1.7961 0
M  V30 37 H 0.1419 4.0057 -2.8677 0
M  V30 38 H 3.0624 3.5796 -0.4561 0
M  V30 39 H 2.485 3.0482 -2.0334 0
M  V30 40 H -2.5808 1.2636 4.4926 0
M  V30 41 H 1.7742 5.3631 -1.6402 0
M  V30 42 H 1.0463 4.9259 -0.096 0
M  V30 43 H -1.023 -4.6393 -1.3313 0
M  V30 44 H -1.0125 -4.4876 0.4433 0
M  V30 45 H 2.2793 -2.6794 0.2498 0
M  V30 46 H 1.0678 -3.1786 1.4533 0
M  V30 47 H 0.9928 -5.8847 -1.3442 0
M  V30 48 H 0.373 -6.3908 0.2358 0
M  V30 49 H 2.7672 -4.8981 -0.3323 0
M  V30 50 H 2.1205 -5.2434 1.2799 0
M  V30 END ATOM
M  V30 BEGIN BOND
M  V30 1 1 1 2
M  V30 2 1 2 3
M  V30 3 1 2 4
M  V30 4 1 2 5
M  V30 5 2 3 6
M  V30 6 1 3 7
M  V30 7 1 4 8
M  V30 8 1 4 9
M  V30 9 1 5 10
M  V30 10 1 6 11
M  V30 11 2 7 12
M  V30 12 1 8 13
M  V30 13 1 9 14
M  V30 14 1 10 15
M  V30 15 2 11 16
M  V30 16 1 13 17
M  V30 17 1 15 18
M  V30 18 1 15 19
M  V30 19 1 18 20
M  V30 20 1 19 21
M  V30 21 1 12 16
M  V30 22 1 14 17
M  V30 23 1 20 21
M  V30 24 1 1 22
M  V30 25 1 4 23
M  V30 26 1 5 24
M  V30 27 1 5 25
M  V30 28 1 6 26
M  V30 29 1 7 27
M  V30 30 1 8 28
M  V30 31 1 8 29
M  V30 32 1 9 30
M  V30 33 1 9 31
M  V30 34 1 10 32
M  V30 35 1 10 33
M  V30 36 1 11 34
M  V30 37 1 12 35
M  V30 38 1 13 36
M  V30 39 1 13 37
M  V30 40 1 14 38
M  V30 41 1 14 39
M  V30 42 1 16 40
M  V30 43 1 17 41
M  V30 44 1 17 42
M  V30 45 1 18 43
M  V30 46 1 18 44
M  V30 47 1 19 45
M  V30 48 1 19 46
M  V30 49 1 20 47
M  V30 50 1 20 48
M  V30 51 1 21 49
M  V30 52 1 21 50
M  V30 END BOND
M  V30 BEGIN COLLECTION
M  V30 MDLV30/STERAC1 ATOMS=(1 2)
M  V30 END COLLECTION
M  V30 END CTAB
M  END
>  <NO.>
2516

>  <Name>
procyclidine hydrochloride

>  <SMILES>
OC(CCN1CCCC1)(c1ccccc1)C1CCCCC1

>  <logBB>


>  <Class>
1

>  <MW>
287.22

>  <nHBAcc>
2

>  <nHBDon>
1

>  <SLogP>
3.94

>  <TopoPSA>
23.47

>  <MMFF94 Energy>
43.242

$$$$
OC(CN1CCCCC1)c1cc(-c2ccccc2)on1
Actelion Java MolfileCreator 2.0

  0  0  0  0  0  0              0 V3000
M  V30 BEGIN CTAB
M  V30 COUNTS 40 42 0 0 0
M  V30 BEGIN ATOM
M  V30 1 O -1.8322 1.0353 -2.3904 0
M  V30 2 N -1.2159 -0.1941 -2.5408 0
M  V30 3 C -1.0998 1.8267 -1.553 0
M  V30 4 C -0.1104 -0.1387 -1.7842 0
M  V30 5 C -1.6215 3.1644 -1.2907 0
M  V30 6 C 0.0071 1.1191 -1.1476 0
M  V30 7 C 0.8144 -1.3123 -1.7052 0 CFG=1
M  V30 8 C -2.8098 3.6168 -1.8855 0
M  V30 9 C -0.9392 4.0373 -0.4289 0
M  V30 10 O 2.1932 -0.9126 -1.64 0
M  V30 11 C 0.45 -2.2971 -0.5545 0
M  V30 12 C -3.3002 4.9005 -1.6276 0
M  V30 13 C -1.429 5.3214 -0.1703 0
M  V30 14 N 0.3752 -1.7564 0.8234 0
M  V30 15 C -2.6093 5.7521 -0.77 0
M  V30 16 C 1.6527 -1.2882 1.3761 0
M  V30 17 C -0.2582 -2.7121 1.7476 0
M  V30 18 C 2.6287 -2.4156 1.7193 0
M  V30 19 C 0.6352 -3.9001 2.1154 0
M  V30 20 C 1.9844 -3.4349 2.654 0
M  V30 21 H 0.795 1.443 -0.4861 0
M  V30 22 H 0.7246 -1.8706 -2.6469 0
M  V30 23 H -3.3708 2.973 -2.5601 0
M  V30 24 H -0.0155 3.7294 0.0547 0
M  V30 25 H 2.7188 -1.7289 -1.635 0
M  V30 26 H 1.1537 -3.137 -0.591 0
M  V30 27 H -0.5384 -2.7059 -0.8052 0
M  V30 28 H -4.2223 5.2319 -2.0982 0
M  V30 29 H -0.887 5.9835 0.5 0
M  V30 30 H -2.9905 6.7499 -0.5694 0
M  V30 31 H 1.4373 -0.7231 2.2933 0
M  V30 32 H 2.1347 -0.5611 0.718 0
M  V30 33 H -1.2066 -3.075 1.3331 0
M  V30 34 H -0.5315 -2.1752 2.6656 0
M  V30 35 H 3.5203 -1.9952 2.1986 0
M  V30 36 H 2.9698 -2.9146 0.805 0
M  V30 37 H 0.79 -4.5412 1.2397 0
M  V30 38 H 0.1334 -4.5163 2.8702 0
M  V30 39 H 2.651 -4.2931 2.792 0
M  V30 40 H 1.8411 -2.9793 3.6418 0
M  V30 END ATOM
M  V30 BEGIN BOND
M  V30 1 1 1 2
M  V30 2 1 1 3
M  V30 3 2 2 4
M  V30 4 1 3 5
M  V30 5 2 3 6
M  V30 6 1 4 7
M  V30 7 2 5 8
M  V30 8 1 5 9
M  V30 9 1 7 10
M  V30 10 1 7 11
M  V30 11 1 8 12
M  V30 12 2 9 13
M  V30 13 1 11 14
M  V30 14 2 12 15
M  V30 15 1 14 16
M  V30 16 1 14 17
M  V30 17 1 16 18
M  V30 18 1 17 19
M  V30 19 1 18 20
M  V30 20 1 4 6
M  V30 21 1 13 15
M  V30 22 1 19 20
M  V30 23 1 6 21
M  V30 24 1 7 22
M  V30 25 1 8 23
M  V30 26 1 9 24
M  V30 27 1 10 25
M  V30 28 1 11 26
M  V30 29 1 11 27
M  V30 30 1 12 28
M  V30 31 1 13 29
M  V30 32 1 15 30
M  V30 33 1 16 31
M  V30 34 1 16 32
M  V30 35 1 17 33
M  V30 36 1 17 34
M  V30 37 1 18 35
M  V30 38 1 18 36
M  V30 39 1 19 37
M  V30 40 1 19 38
M  V30 41 1 20 39
M  V30 42 1 20 40
M  V30 END BOND
M  V30 BEGIN COLLECTION
M  V30 MDLV30/STERAC1 ATOMS=(1 7)
M  V30 END COLLECTION
M  V30 END CTAB
M  END
>  <NO.>
2517

>  <Name>
perisoxal

>  <SMILES>
OC(CN1CCCCC1)c1cc(-c2ccccc2)on1

>  <logBB>


>  <Class>
1

>  <MW>
272.15

>  <nHBAcc>
4

>  <nHBDon>
1

>  <SLogP>
2.86

>  <TopoPSA>
49.5

>  <MMFF94 Energy>
72.369

$$$$
OC(Cn1ccnc1)c1ccc(CCc2ccccc2)cc1
Actelion Java MolfileCreator 2.0

  0  0  0  0  0  0              0 V3000
M  V30 BEGIN CTAB
M  V30 COUNTS 42 44 0 0 0
M  V30 BEGIN ATOM
M  V30 1 O -2.616 2.9334 -1.7434 0
M  V30 2 C -1.644 2.0985 -2.3777 0 CFG=2
M  V30 3 C -1.5514 0.7377 -1.7182 0
M  V30 4 C -0.2961 2.8285 -2.5051 0
M  V30 5 C -1.3159 -0.4054 -2.4954 0
M  V30 6 C -1.6412 0.5961 -0.326 0
M  V30 7 N 0.4053 3.0505 -1.2556 0
M  V30 8 C -1.1637 -1.6571 -1.8935 0
M  V30 9 C -1.497 -0.6552 0.2735 0
M  V30 10 C 1.4447 2.3035 -0.777 0
M  V30 11 C 0.198 4.0778 -0.3782 0
M  V30 12 C -1.2473 -1.7919 -0.503 0
M  V30 13 N 1.9047 2.7882 0.3547 0
M  V30 14 C 1.131 3.8902 0.6143 0
M  V30 15 C -1.0105 -3.1303 0.1575 0
M  V30 16 C 0.4754 -3.4363 0.3966 0
M  V30 17 C 1.0915 -2.6075 1.4995 0
M  V30 18 C 1.7399 -1.4004 1.2038 0
M  V30 19 C 0.9877 -3.011 2.8373 0
M  V30 20 C 2.2638 -0.6069 2.2246 0
M  V30 21 C 1.523 -2.2219 3.8572 0
M  V30 22 C 2.1581 -1.0194 3.5509 0
M  V30 23 H -3.3191 2.3509 -1.4052 0
M  V30 24 H -2.0308 1.9508 -3.3939 0
M  V30 25 H -0.4465 3.8177 -2.9545 0
M  V30 26 H 0.3815 2.2653 -3.1582 0
M  V30 27 H -1.2346 -0.3322 -3.5779 0
M  V30 28 H -1.7882 1.4666 0.312 0
M  V30 29 H -0.9643 -2.5264 -2.5164 0
M  V30 30 H -1.5387 -0.7299 1.359 0
M  V30 31 H 1.8204 1.4238 -1.2828 0
M  V30 32 H -0.5731 4.8218 -0.5223 0
M  V30 33 H 1.2881 4.4915 1.5002 0
M  V30 34 H -1.4341 -3.9113 -0.4871 0
M  V30 35 H -1.5741 -3.1837 1.0979 0
M  V30 36 H 0.5796 -4.496 0.6636 0
M  V30 37 H 1.0521 -3.3061 -0.528 0
M  V30 38 H 1.8187 -1.0544 0.1759 0
M  V30 39 H 0.4851 -3.9402 3.0941 0
M  V30 40 H 2.7413 0.3404 1.9818 0
M  V30 41 H 1.4384 -2.5412 4.8924 0
M  V30 42 H 2.5655 -0.3988 4.3443 0
M  V30 END ATOM
M  V30 BEGIN BOND
M  V30 1 1 1 2
M  V30 2 1 2 3
M  V30 3 1 2 4
M  V30 4 2 3 5
M  V30 5 1 3 6
M  V30 6 1 4 7
M  V30 7 1 5 8
M  V30 8 2 6 9
M  V30 9 1 7 10
M  V30 10 1 7 11
M  V30 11 2 8 12
M  V30 12 2 10 13
M  V30 13 2 11 14
M  V30 14 1 12 15
M  V30 15 1 15 16
M  V30 16 1 16 17
M  V30 17 2 17 18
M  V30 18 1 17 19
M  V30 19 1 18 20
M  V30 20 2 19 21
M  V30 21 2 20 22
M  V30 22 1 9 12
M  V30 23 1 13 14
M  V30 24 1 21 22
M  V30 25 1 1 23
M  V30 26 1 2 24
M  V30 27 1 4 25
M  V30 28 1 4 26
M  V30 29 1 5 27
M  V30 30 1 6 28
M  V30 31 1 8 29
M  V30 32 1 9 30
M  V30 33 1 10 31
M  V30 34 1 11 32
M  V30 35 1 14 33
M  V30 36 1 15 34
M  V30 37 1 15 35
M  V30 38 1 16 36
M  V30 39 1 16 37
M  V30 40 1 18 38
M  V30 41 1 19 39
M  V30 42 1 20 40
M  V30 43 1 21 41
M  V30 44 1 22 42
M  V30 END BOND
M  V30 BEGIN COLLECTION
M  V30 MDLV30/STERAC1 ATOMS=(1 2)
M  V30 END COLLECTION
M  V30 END CTAB
M  END
>  <NO.>
2518

>  <Name>
denzimol

>  <SMILES>
OC(Cn1ccnc1)c1ccc(CCc2ccccc2)cc1

>  <logBB>


>  <Class>
1

>  <MW>
292.16

>  <nHBAcc>
2

>  <nHBDon>
1

>  <SLogP>
3.4

>  <TopoPSA>
38.05

>  <MMFF94 Energy>
60.3

$$$$
OC(O)C(Cl)(Cl)Cl
Actelion Java MolfileCreator 2.0

  0  0  0  0  0  0              0 V3000
M  V30 BEGIN CTAB
M  V30 COUNTS 10 9 0 0 0
M  V30 BEGIN ATOM
M  V30 1 Cl 0.893 1.9653 -1.161 0
M  V30 2 C 0.9761 0.5735 -0.0197 0
M  V30 3 Cl 1.398 1.2327 1.6032 0
M  V30 4 Cl 2.2914 -0.5225 -0.5506 0
M  V30 5 C -0.4168 -0.154 0.0419 0
M  V30 6 O -0.8184 -0.6702 -1.2231 0
M  V30 7 O -0.4205 -1.2475 0.9544 0
M  V30 8 H -1.1757 0.5671 0.3718 0
M  V30 9 H -1.7875 -0.7159 -1.2265 0
M  V30 10 H -1.3342 -1.3751 1.2547 0
M  V30 END ATOM
M  V30 BEGIN BOND
M  V30 1 1 1 2
M  V30 2 1 2 3
M  V30 3 1 2 4
M  V30 4 1 2 5
M  V30 5 1 5 6
M  V30 6 1 5 7
M  V30 7 1 5 8
M  V30 8 1 6 9
M  V30 9 1 7 10
M  V30 END BOND
M  V30 END CTAB
M  END
>  <NO.>
2519

>  <Name>
chloralhydrate

>  <SMILES>
OC(O)C(Cl)(Cl)Cl

>  <logBB>


>  <Class>
1

>  <MW>
163.92

>  <nHBAcc>
2

>  <nHBDon>
2

>  <SLogP>
0.67

>  <TopoPSA>
40.46

>  <MMFF94 Energy>
54.921

$$$$
OC(OCC(COC(O)C(Cl)(Cl)Cl)(COC(O)C(Cl)(Cl)Cl)COC(O)C(Cl)(Cl)Cl)C(Cl)(Cl)Cl
Actelion Java MolfileCreator 2.0

  0  0  0  0  0  0              0 V3000
M  V30 BEGIN CTAB
M  V30 COUNTS 49 48 0 0 0
M  V30 BEGIN ATOM
M  V30 1 Cl -5.9693 -1.8683 -1.1563 0
M  V30 2 C -4.4787 -1.6843 -0.1579 0
M  V30 3 Cl -4.9671 -1.196 1.5012 0
M  V30 4 Cl -3.6895 -3.2938 -0.0654 0
M  V30 5 C -3.5225 -0.6245 -0.8144 0
M  V30 6 O -2.3052 -0.4931 -0.064 0
M  V30 7 O -4.1648 0.6515 -0.9405 0
M  V30 8 C -1.4522 0.5491 -0.5282 0
M  V30 9 C -0.0477 0.4768 0.1195 0
M  V30 10 C -0.1534 0.061 1.6022 0
M  V30 11 C 0.8415 -0.5358 -0.6442 0
M  V30 12 C 0.6242 1.8657 0.0144 0
M  V30 13 O 1.1461 0.1147 2.2029 0
M  V30 14 O 0.3173 -1.8578 -0.5476 0
M  V30 15 O 0.6467 2.2829 -1.3502 0
M  V30 16 C 1.1952 -0.5674 3.466 0
M  V30 17 C 1.1816 -2.8478 -1.1213 0
M  V30 18 C 1.3006 3.5443 -1.5532 0
M  V30 19 O 0.3913 0.1648 4.3982 0
M  V30 20 C 2.678 -0.754 3.9429 0
M  V30 21 O 2.2284 -3.1332 -0.1895 0
M  V30 22 C 0.3768 -4.1395 -1.5055 0
M  V30 23 O 2.7078 3.3663 -1.3706 0
M  V30 24 C 0.9613 4.1158 -2.9765 0
M  V30 25 Cl 2.7383 -1.703 5.4636 0
M  V30 26 Cl 3.6635 -1.5906 2.6992 0
M  V30 27 Cl 3.4215 0.8575 4.2665 0
M  V30 28 Cl -0.945 -3.7202 -2.6597 0
M  V30 29 Cl -0.3374 -4.9417 -0.0709 0
M  V30 30 Cl 1.4615 -5.3161 -2.3349 0
M  V30 31 Cl -0.8204 4.3438 -3.1368 0
M  V30 32 Cl 1.5052 3.0134 -4.285 0
M  V30 33 Cl 1.7417 5.7189 -3.2069 0
M  V30 34 H -3.2582 -0.9699 -1.823 0
M  V30 35 H -3.9668 0.9839 -1.8319 0
M  V30 36 H -1.9219 1.5036 -0.2599 0
M  V30 37 H -1.3742 0.5081 -1.6219 0
M  V30 38 H -0.563 -0.9516 1.695 0
M  V30 39 H -0.8151 0.7491 2.1421 0
M  V30 40 H 0.9023 -0.2676 -1.7062 0
M  V30 41 H 1.8607 -0.5172 -0.2399 0
M  V30 42 H 1.6495 1.8301 0.4003 0
M  V30 43 H 0.0637 2.6034 0.602 0
M  V30 44 H 0.7435 -1.5606 3.3489 0
M  V30 45 H 1.6393 -2.4472 -2.0365 0
M  V30 46 H 0.944 4.2601 -0.7997 0
M  V30 47 H 0.939 0.8985 4.7296 0
M  V30 48 H 2.9433 -2.4953 -0.3459 0
M  V30 49 H 2.9162 3.6111 -0.4537 0
M  V30 END ATOM
M  V30 BEGIN BOND
M  V30 1 1 1 2
M  V30 2 1 2 3
M  V30 3 1 2 4
M  V30 4 1 2 5
M  V30 5 1 5 6
M  V30 6 1 5 7
M  V30 7 1 6 8
M  V30 8 1 8 9
M  V30 9 1 9 10
M  V30 10 1 9 11
M  V30 11 1 9 12
M  V30 12 1 10 13
M  V30 13 1 11 14
M  V30 14 1 12 15
M  V30 15 1 13 16
M  V30 16 1 14 17
M  V30 17 1 15 18
M  V30 18 1 16 19
M  V30 19 1 16 20
M  V30 20 1 17 21
M  V30 21 1 17 22
M  V30 22 1 18 23
M  V30 23 1 18 24
M  V30 24 1 20 25
M  V30 25 1 20 26
M  V30 26 1 20 27
M  V30 27 1 22 28
M  V30 28 1 22 29
M  V30 29 1 22 30
M  V30 30 1 24 31
M  V30 31 1 24 32
M  V30 32 1 24 33
M  V30 33 1 5 34
M  V30 34 1 7 35
M  V30 35 1 8 36
M  V30 36 1 8 37
M  V30 37 1 10 38
M  V30 38 1 10 39
M  V30 39 1 11 40
M  V30 40 1 11 41
M  V30 41 1 12 42
M  V30 42 1 12 43
M  V30 43 1 16 44
M  V30 44 1 17 45
M  V30 45 1 18 46
M  V30 46 1 19 47
M  V30 47 1 21 48
M  V30 48 1 23 49
M  V30 END BOND
M  V30 END CTAB
M  END
>  <NO.>
2520

>  <Name>
petrichloral

>  <SMILES>
OC(OCC(COC(O)C(Cl)(Cl)Cl)(COC(O)C(Cl)(Cl)Cl)COC(O)C(Cl)(Cl)Cl)C(Cl)(Cl)Cl

>  <logBB>


>  <Class>
1

>  <MW>
719.71

>  <nHBAcc>
8

>  <nHBDon>
4

>  <SLogP>
4.79

>  <TopoPSA>
117.84

>  <MMFF94 Energy>
246.49

$$$$
OC(c1ccccc1)(c1ccccc1)C1CC1c1ccncc1
Actelion Java MolfileCreator 2.0

  0  0  0  0  0  0              0 V3000
M  V30 BEGIN CTAB
M  V30 COUNTS 42 45 0 0 0
M  V30 BEGIN ATOM
M  V30 1 O -0.4007 0.0801 -1.9249 0
M  V30 2 C 0.2033 -0.4413 -0.7269 0
M  V30 3 C -0.6055 -1.6566 -0.2301 0
M  V30 4 C 1.6512 -0.8103 -1.1251 0
M  V30 5 C 0.1922 0.7337 0.2432 0
M  V30 6 C -1.9961 -1.7434 -0.4504 0
M  V30 7 C 0.0023 -2.7079 0.4824 0
M  V30 8 C 1.9055 -1.4819 -2.3391 0
M  V30 9 C 2.754 -0.5547 -0.2861 0
M  V30 10 C -1.0509 1.1866 0.9993 0
M  V30 11 C 0.1285 0.6183 1.7522 0
M  V30 12 C -2.7381 -2.837 0.0029 0
M  V30 13 C -0.7401 -3.8026 0.9345 0
M  V30 14 C 3.2008 -1.8569 -2.7062 0
M  V30 15 C 4.0496 -0.9298 -0.6544 0
M  V30 16 C -1.3829 2.6583 1.0714 0
M  V30 17 C -2.1087 -3.8679 0.6926 0
M  V30 18 C 4.2726 -1.5783 -1.8647 0
M  V30 19 C -1.4551 3.4435 -0.0858 0
M  V30 20 C -1.517 3.3228 2.296 0
M  V30 21 C -1.6956 4.8048 0.0236 0
M  V30 22 C -1.7565 4.6891 2.3105 0
M  V30 23 N -1.8541 5.446 1.1992 0
M  V30 24 H -0.7997 -0.6732 -2.3871 0
M  V30 25 H 0.8126 1.5365 -0.1543 0
M  V30 26 H -2.5234 -0.9418 -0.9657 0
M  V30 27 H 1.0687 -2.6916 0.6981 0
M  V30 28 H 1.0903 -1.7237 -3.0166 0
M  V30 29 H 2.6236 -0.0621 0.6741 0
M  V30 30 H -1.9276 0.5465 0.9717 0
M  V30 31 H 0.7575 1.2894 2.3271 0
M  V30 32 H 0.0036 -0.3541 2.2129 0
M  V30 33 H -3.8094 -2.8788 -0.1775 0
M  V30 34 H -0.2456 -4.604 1.4779 0
M  V30 35 H 3.3697 -2.3678 -3.6505 0
M  V30 36 H 4.8844 -0.7148 0.0078 0
M  V30 37 H -2.6846 -4.7188 1.0466 0
M  V30 38 H 5.2799 -1.8683 -2.1505 0
M  V30 39 H -1.3255 2.9931 -1.0656 0
M  V30 40 H -1.4414 2.7779 3.2312 0
M  V30 41 H -1.7636 5.4317 -0.8605 0
M  V30 42 H -1.8751 5.2249 3.2478 0
M  V30 END ATOM
M  V30 BEGIN BOND
M  V30 1 1 1 2
M  V30 2 1 2 3
M  V30 3 1 2 4
M  V30 4 1 2 5
M  V30 5 2 3 6
M  V30 6 1 3 7
M  V30 7 2 4 8
M  V30 8 1 4 9
M  V30 9 1 5 10
M  V30 10 1 5 11
M  V30 11 1 6 12
M  V30 12 2 7 13
M  V30 13 1 8 14
M  V30 14 2 9 15
M  V30 15 1 10 16
M  V30 16 2 12 17
M  V30 17 2 14 18
M  V30 18 2 16 19
M  V30 19 1 16 20
M  V30 20 1 19 21
M  V30 21 2 20 22
M  V30 22 2 21 23
M  V30 23 1 10 11
M  V30 24 1 13 17
M  V30 25 1 15 18
M  V30 26 1 22 23
M  V30 27 1 1 24
M  V30 28 1 5 25
M  V30 29 1 6 26
M  V30 30 1 7 27
M  V30 31 1 8 28
M  V30 32 1 9 29
M  V30 33 1 10 30
M  V30 34 1 11 31
M  V30 35 1 11 32
M  V30 36 1 12 33
M  V30 37 1 13 34
M  V30 38 1 14 35
M  V30 39 1 15 36
M  V30 40 1 17 37
M  V30 41 1 18 38
M  V30 42 1 19 39
M  V30 43 1 20 40
M  V30 44 1 21 41
M  V30 45 1 22 42
M  V30 END BOND
M  V30 END CTAB
M  END
>  <NO.>
2521

>  <Name>
cyprolidol

>  <SMILES>
OC(c1ccccc1)(c1ccccc1)C1CC1c1ccncc1

>  <logBB>


>  <Class>
1

>  <MW>
301.15

>  <nHBAcc>
2

>  <nHBDon>
1

>  <SLogP>
4.12

>  <TopoPSA>
33.12

>  <MMFF94 Energy>
74.507

$$$$
OC(c1ccccc1)(c1ccccc1)C1CCCCN1
Actelion Java MolfileCreator 2.0

  0  0  0  0  0  0              0 V3000
M  V30 BEGIN CTAB
M  V30 COUNTS 41 43 0 0 0
M  V30 BEGIN ATOM
M  V30 1 O 1.9106 0.2386 -0.3182 0
M  V30 2 C 0.4583 0.2544 -0.2962 0
M  V30 3 C 0.0195 1.7138 -0.0355 0
M  V30 4 C -0.0653 -0.1892 -1.679 0
M  V30 5 C 0.0476 -0.7962 0.8415 0 CFG=1
M  V30 6 C 0.6912 2.7672 -0.6916 0
M  V30 7 C -1.0721 2.052 0.7828 0
M  V30 8 C 0.8068 -0.4336 -2.7553 0
M  V30 9 C -1.4467 -0.34 -1.9078 0
M  V30 10 N 0.4377 -2.1841 0.4724 0
M  V30 11 C 0.6955 -0.453 2.2084 0
M  V30 12 C 0.3176 4.0992 -0.5011 0
M  V30 13 C -1.445 3.3864 0.9743 0
M  V30 14 C 0.319 -0.8177 -4.0072 0
M  V30 15 C -1.9335 -0.7235 -3.1602 0
M  V30 16 C 0.0593 -3.1729 1.4736 0
M  V30 17 C 0.3153 -1.4641 3.2876 0
M  V30 18 C -0.7473 4.4087 0.3379 0
M  V30 19 C -1.0505 -0.9622 -4.2092 0
M  V30 20 C 0.6678 -2.875 2.8379 0
M  V30 21 H 2.2047 0.9129 0.3161 0
M  V30 22 H -1.0438 -0.7921 0.9524 0
M  V30 23 H 1.5092 2.5483 -1.3774 0
M  V30 24 H -1.6634 1.2894 1.282 0
M  V30 25 H 1.8817 -0.3322 -2.6248 0
M  V30 26 H -2.1609 -0.1581 -1.1089 0
M  V30 27 H 1.4448 -2.1968 0.2988 0
M  V30 28 H 1.7891 -0.4358 2.1209 0
M  V30 29 H 0.3934 0.5423 2.5477 0
M  V30 30 H 0.8519 4.8917 -1.0188 0
M  V30 31 H -2.2901 3.6263 1.6151 0
M  V30 32 H 1.0125 -1.0059 -4.8221 0
M  V30 33 H -3.0032 -0.8361 -3.3143 0
M  V30 34 H -1.0338 -3.2185 1.5496 0
M  V30 35 H 0.3875 -4.1623 1.1368 0
M  V30 36 H 0.8368 -1.2284 4.222 0
M  V30 37 H -0.7602 -1.3971 3.492 0
M  V30 38 H -1.0435 5.4442 0.4832 0
M  V30 39 H -1.4286 -1.2625 -5.1823 0
M  V30 40 H 0.306 -3.6012 3.5744 0
M  V30 41 H 1.7585 -2.9835 2.7887 0
M  V30 END ATOM
M  V30 BEGIN BOND
M  V30 1 1 1 2
M  V30 2 1 2 3
M  V30 3 1 2 4
M  V30 4 1 2 5
M  V30 5 2 3 6
M  V30 6 1 3 7
M  V30 7 2 4 8
M  V30 8 1 4 9
M  V30 9 1 5 10
M  V30 10 1 5 11
M  V30 11 1 6 12
M  V30 12 2 7 13
M  V30 13 1 8 14
M  V30 14 2 9 15
M  V30 15 1 10 16
M  V30 16 1 11 17
M  V30 17 2 12 18
M  V30 18 2 14 19
M  V30 19 1 16 20
M  V30 20 1 13 18
M  V30 21 1 15 19
M  V30 22 1 17 20
M  V30 23 1 1 21
M  V30 24 1 5 22
M  V30 25 1 6 23
M  V30 26 1 7 24
M  V30 27 1 8 25
M  V30 28 1 9 26
M  V30 29 1 10 27
M  V30 30 1 11 28
M  V30 31 1 11 29
M  V30 32 1 12 30
M  V30 33 1 13 31
M  V30 34 1 14 32
M  V30 35 1 15 33
M  V30 36 1 16 34
M  V30 37 1 16 35
M  V30 38 1 17 36
M  V30 39 1 17 37
M  V30 40 1 18 38
M  V30 41 1 19 39
M  V30 42 1 20 40
M  V30 43 1 20 41
M  V30 END BOND
M  V30 BEGIN COLLECTION
M  V30 MDLV30/STERAC1 ATOMS=(1 5)
M  V30 END COLLECTION
M  V30 END CTAB
M  END
>  <NO.>
2522

>  <Name>
pipradrol

>  <SMILES>
OC(c1ccccc1)(c1ccccc1)C1CCCCN1

>  <logBB>


>  <Class>
1

>  <MW>
267.16

>  <nHBAcc>
2

>  <nHBDon>
2

>  <SLogP>
3.06

>  <TopoPSA>
32.26

>  <MMFF94 Energy>
101.66

$$$$
OC(c1ccccc1)(c1ccccc1)C1CCNCC1
Actelion Java MolfileCreator 2.0

  0  0  0  0  0  0              0 V3000
M  V30 BEGIN CTAB
M  V30 COUNTS 41 43 0 0 0
M  V30 BEGIN ATOM
M  V30 1 O -1.8301 0.6362 -0.3181 0
M  V30 2 C -0.5085 0.0569 -0.2811 0
M  V30 3 C -0.6344 -1.4802 -0.2914 0
M  V30 4 C 0.2234 0.5096 -1.5649 0
M  V30 5 C 0.1266 0.555 1.0725 0
M  V30 6 C -1.8873 -2.1176 -0.3391 0
M  V30 7 C 0.5148 -2.2938 -0.2537 0
M  V30 8 C -0.4697 0.506 -2.7942 0
M  V30 9 C 1.5824 0.8679 -1.5896 0
M  V30 10 C 0.1592 2.0995 1.1912 0
M  V30 11 C -0.6254 0.0156 2.3165 0
M  V30 12 C -1.988 -3.5111 -0.344 0
M  V30 13 C 0.4128 -3.687 -0.2596 0
M  V30 14 C 0.1549 0.8865 -3.9836 0
M  V30 15 C 2.2074 1.2501 -2.7808 0
M  V30 16 C 0.7557 2.545 2.5258 0
M  V30 17 C -0.0128 0.54 3.6148 0
M  V30 18 C -0.8385 -4.2949 -0.3037 0
M  V30 19 C 1.4929 1.2648 -3.9751 0
M  V30 20 N 0.0108 2.0015 3.6592 0
M  V30 21 H -1.7489 1.4966 -0.7628 0
M  V30 22 H 1.1587 0.1866 1.1455 0
M  V30 23 H -2.8027 -1.53 -0.3683 0
M  V30 24 H 1.506 -1.8476 -0.2255 0
M  V30 25 H -1.5107 0.1858 -2.8315 0
M  V30 26 H 2.1875 0.8503 -0.6876 0
M  V30 27 H -0.8541 2.5112 1.1031 0
M  V30 28 H 0.7481 2.5458 0.3848 0
M  V30 29 H -1.6844 0.301 2.2737 0
M  V30 30 H -0.5904 -1.0785 2.3466 0
M  V30 31 H -2.9669 -3.9818 -0.3795 0
M  V30 32 H 1.3119 -4.2968 -0.2331 0
M  V30 33 H -0.4025 0.8753 -4.9167 0
M  V30 34 H 3.2584 1.5287 -2.776 0
M  V30 35 H 0.7366 3.6389 2.5848 0
M  V30 36 H 1.8091 2.247 2.5917 0
M  V30 37 H -0.5961 0.1716 4.4661 0
M  V30 38 H 1.0036 0.1479 3.7408 0
M  V30 39 H -0.9182 -5.3784 -0.3093 0
M  V30 40 H 1.9826 1.5568 -4.9002 0
M  V30 41 H -0.9498 2.3447 3.6202 0
M  V30 END ATOM
M  V30 BEGIN BOND
M  V30 1 1 1 2
M  V30 2 1 2 3
M  V30 3 1 2 4
M  V30 4 1 2 5
M  V30 5 2 3 6
M  V30 6 1 3 7
M  V30 7 2 4 8
M  V30 8 1 4 9
M  V30 9 1 5 10
M  V30 10 1 5 11
M  V30 11 1 6 12
M  V30 12 2 7 13
M  V30 13 1 8 14
M  V30 14 2 9 15
M  V30 15 1 10 16
M  V30 16 1 11 17
M  V30 17 2 12 18
M  V30 18 2 14 19
M  V30 19 1 16 20
M  V30 20 1 13 18
M  V30 21 1 15 19
M  V30 22 1 17 20
M  V30 23 1 1 21
M  V30 24 1 5 22
M  V30 25 1 6 23
M  V30 26 1 7 24
M  V30 27 1 8 25
M  V30 28 1 9 26
M  V30 29 1 10 27
M  V30 30 1 10 28
M  V30 31 1 11 29
M  V30 32 1 11 30
M  V30 33 1 12 31
M  V30 34 1 13 32
M  V30 35 1 14 33
M  V30 36 1 15 34
M  V30 37 1 16 35
M  V30 38 1 16 36
M  V30 39 1 17 37
M  V30 40 1 17 38
M  V30 41 1 18 39
M  V30 42 1 19 40
M  V30 43 1 20 41
M  V30 END BOND
M  V30 END CTAB
M  END
>  <NO.>
2523

>  <Name>
azacyclonol

>  <SMILES>
OC(c1ccccc1)(c1ccccc1)C1CCNCC1

>  <logBB>


>  <Class>
1

>  <MW>
267.16

>  <nHBAcc>
2

>  <nHBDon>
2

>  <SLogP>
2.92

>  <TopoPSA>
32.26

>  <MMFF94 Energy>
56.198

$$$$
OC1(c2ccc(Cl)cc2)c2ccccc2C2=NCCN21
Actelion Java MolfileCreator 2.0

  0  0  0  0  0  0              0 V3000
M  V30 BEGIN CTAB
M  V30 COUNTS 33 36 0 0 0
M  V30 BEGIN ATOM
M  V30 1 Cl -4.2528 -0.2449 3.8433 0
M  V30 2 C -3.0053 -0.4302 2.6737 0
M  V30 3 C -2.7554 -1.6824 2.1201 0
M  V30 4 C -2.25 0.6722 2.2861 0
M  V30 5 C -1.7406 -1.8337 1.1699 0
M  V30 6 C -1.236 0.52 1.3361 0
M  V30 7 C -0.9607 -0.7368 0.7587 0
M  V30 8 C 0.1442 -0.9 -0.2753 0 CFG=2
M  V30 9 O 0.2747 -2.228 -0.7293 0
M  V30 10 N 1.4322 -0.4902 0.2056 0
M  V30 11 C 0.0036 0.0144 -1.4899 0
M  V30 12 C 1.9486 0.5735 -0.4576 0
M  V30 13 C 2.1108 -0.6859 1.4393 0
M  V30 14 C 1.0977 0.9 -1.5809 0
M  V30 15 C -1.0016 0.073 -2.4417 0
M  V30 16 N 3.0262 1.1291 0.004 0
M  V30 17 C 3.318 0.2728 1.2207 0
M  V30 18 C 1.2267 1.8526 -2.5669 0
M  V30 19 C -0.8915 1.0297 -3.4594 0
M  V30 20 C 0.2086 1.9106 -3.52 0
M  V30 21 H -3.3445 -2.5451 2.4201 0
M  V30 22 H -2.4427 1.6516 2.7163 0
M  V30 23 H -1.5638 -2.8221 0.7479 0
M  V30 24 H -0.6546 1.3954 1.0488 0
M  V30 25 H 1.2348 -2.3014 -0.8554 0
M  V30 26 H 2.4368 -1.7189 1.5886 0
M  V30 27 H 1.5171 -0.3588 2.2984 0
M  V30 28 H -1.8514 -0.6017 -2.401 0
M  V30 29 H 3.4722 0.9144 2.0943 0
M  V30 30 H 4.2364 -0.2946 1.0341 0
M  V30 31 H 2.0811 2.5191 -2.5961 0
M  V30 32 H -1.6691 1.0964 -4.2183 0
M  V30 33 H 0.2637 2.6434 -4.3224 0
M  V30 END ATOM
M  V30 BEGIN BOND
M  V30 1 1 1 2
M  V30 2 2 2 3
M  V30 3 1 2 4
M  V30 4 1 3 5
M  V30 5 2 4 6
M  V30 6 2 5 7
M  V30 7 1 7 8
M  V30 8 1 8 9
M  V30 9 1 8 10
M  V30 10 1 8 11
M  V30 11 1 10 12
M  V30 12 1 10 13
M  V30 13 2 11 14
M  V30 14 1 11 15
M  V30 15 2 12 16
M  V30 16 1 13 17
M  V30 17 1 14 18
M  V30 18 2 15 19
M  V30 19 2 18 20
M  V30 20 1 6 7
M  V30 21 1 12 14
M  V30 22 1 16 17
M  V30 23 1 19 20
M  V30 24 1 3 21
M  V30 25 1 4 22
M  V30 26 1 5 23
M  V30 27 1 6 24
M  V30 28 1 9 25
M  V30 29 1 13 26
M  V30 30 1 13 27
M  V30 31 1 15 28
M  V30 32 1 17 29
M  V30 33 1 17 30
M  V30 34 1 18 31
M  V30 35 1 19 32
M  V30 36 1 20 33
M  V30 END BOND
M  V30 BEGIN COLLECTION
M  V30 MDLV30/STERAC1 ATOMS=(1 8)
M  V30 END COLLECTION
M  V30 END CTAB
M  END
>  <NO.>
2525

>  <Name>
mazindol

>  <SMILES>
OC1(c2ccc(Cl)cc2)c2ccccc2C2=NCCN21

>  <logBB>


>  <Class>
1

>  <MW>
284.07

>  <nHBAcc>
3

>  <nHBDon>
1

>  <SLogP>
2.61

>  <TopoPSA>
35.83

>  <MMFF94 Energy>
29.844

$$$$
OC1(c2cccc(Cl)c2)C2=NCCCN2c2ccccc21
Actelion Java MolfileCreator 2.0

  0  0  0  0  0  0              0 V3000
M  V30 BEGIN CTAB
M  V30 COUNTS 36 39 0 0 0
M  V30 BEGIN ATOM
M  V30 1 Cl -4.5678 1.385 0.4886 0
M  V30 2 C -3.5007 0.1207 0.9642 0
M  V30 3 C -2.1899 0.1059 0.485 0
M  V30 4 C -3.9511 -0.8743 1.8269 0
M  V30 5 C -1.3012 -0.9202 0.8566 0
M  V30 6 C -3.0824 -1.8902 2.2183 0
M  V30 7 C -1.7692 -1.9098 1.7414 0
M  V30 8 C 0.1411 -0.9337 0.3614 0 CFG=1
M  V30 9 O 0.7317 -2.2229 0.4981 0
M  V30 10 C 0.2994 -0.482 -1.1375 0
M  V30 11 C 1.0177 0.1104 1.0365 0
M  V30 12 N -0.2437 -1.1226 -2.1203 0
M  V30 13 N 1.1072 0.6359 -1.2031 0
M  V30 14 C 1.5268 1.0015 0.0631 0
M  V30 15 C 1.3221 0.2509 2.3829 0
M  V30 16 C -0.0172 -0.5061 -3.4401 0
M  V30 17 C 1.4687 1.2535 -2.4501 0
M  V30 18 C 2.3359 2.0548 0.4463 0
M  V30 19 C 2.1412 1.3137 2.7628 0
M  V30 20 C 1.3317 0.2016 -3.5473 0
M  V30 21 C 2.641 2.2092 1.8038 0
M  V30 22 H -1.8628 0.9022 -0.1798 0
M  V30 23 H -4.9715 -0.8614 2.1997 0
M  V30 24 H -3.4242 -2.6673 2.8975 0
M  V30 25 H -1.1046 -2.7075 2.0712 0
M  V30 26 H 0.3838 -2.7229 -0.2641 0
M  V30 27 H 0.9339 -0.4464 3.1184 0
M  V30 28 H -0.8364 0.1912 -3.6523 0
M  V30 29 H -0.0638 -1.2962 -4.1975 0
M  V30 30 H 2.4996 1.6244 -2.4373 0
M  V30 31 H 0.8057 2.1031 -2.6495 0
M  V30 32 H 2.7367 2.7548 -0.278 0
M  V30 33 H 2.3959 1.45 3.8114 0
M  V30 34 H 2.1354 -0.5389 -3.4448 0
M  V30 35 H 1.4409 0.6674 -4.5324 0
M  V30 36 H 3.2781 3.0316 2.1218 0
M  V30 END ATOM
M  V30 BEGIN BOND
M  V30 1 1 1 2
M  V30 2 2 2 3
M  V30 3 1 2 4
M  V30 4 1 3 5
M  V30 5 2 4 6
M  V30 6 2 5 7
M  V30 7 1 5 8
M  V30 8 1 8 9
M  V30 9 1 8 10
M  V30 10 1 8 11
M  V30 11 2 10 12
M  V30 12 1 10 13
M  V30 13 2 11 14
M  V30 14 1 11 15
M  V30 15 1 12 16
M  V30 16 1 13 17
M  V30 17 1 14 18
M  V30 18 2 15 19
M  V30 19 1 16 20
M  V30 20 2 18 21
M  V30 21 1 6 7
M  V30 22 1 13 14
M  V30 23 1 17 20
M  V30 24 1 19 21
M  V30 25 1 3 22
M  V30 26 1 4 23
M  V30 27 1 6 24
M  V30 28 1 7 25
M  V30 29 1 9 26
M  V30 30 1 15 27
M  V30 31 1 16 28
M  V30 32 1 16 29
M  V30 33 1 17 30
M  V30 34 1 17 31
M  V30 35 1 18 32
M  V30 36 1 19 33
M  V30 37 1 20 34
M  V30 38 1 20 35
M  V30 39 1 21 36
M  V30 END BOND
M  V30 BEGIN COLLECTION
M  V30 MDLV30/STERAC1 ATOMS=(1 8)
M  V30 END COLLECTION
M  V30 END CTAB
M  END
>  <NO.>
2526

>  <Name>
ciclazindol

>  <SMILES>
OC1(c2cccc(Cl)c2)C2=NCCCN2c2ccccc21

>  <logBB>


>  <Class>
1

>  <MW>
298.09

>  <nHBAcc>
3

>  <nHBDon>
1

>  <SLogP>
3.2

>  <TopoPSA>
35.83

>  <MMFF94 Energy>
78.697

$$$$
OC1CCN(c2ccc(-c3ccc(Cl)cc3Cl)nn2)CC1
Actelion Java MolfileCreator 2.0

  0  0  0  0  0  0              0 V3000
M  V30 BEGIN CTAB
M  V30 COUNTS 36 38 0 0 0
M  V30 BEGIN ATOM
M  V30 1 Cl 0.9813 4.5038 -0.9813 0
M  V30 2 C 1.3908 4.3623 0.6962 0
M  V30 3 C 1.2202 3.1618 1.4143 0
M  V30 4 C 1.9353 5.4994 1.307 0
M  V30 5 C 0.6483 1.9386 0.8378 0
M  V30 6 C 1.638 3.1448 2.762 0
M  V30 7 C 2.3249 5.4512 2.6416 0
M  V30 8 N 1.3932 0.8226 0.9574 0
M  V30 9 C -0.6056 1.8714 0.2548 0
M  V30 10 C 2.1821 4.278 3.3728 0
M  V30 11 Cl 2.9928 6.8487 3.389 0
M  V30 12 N 0.924 -0.3869 0.4721 0
M  V30 13 C -1.0647 0.6472 -0.2368 0
M  V30 14 C -0.2762 -0.4929 -0.1384 0
M  V30 15 N -0.7212 -1.7292 -0.6187 0
M  V30 16 C -1.2537 -1.7667 -1.9834 0
M  V30 17 C 0.0751 -2.8811 -0.1841 0
M  V30 18 C -2.0093 -3.0668 -2.2286 0
M  V30 19 C -0.6856 -4.1797 -0.4264 0
M  V30 20 C -1.1512 -4.273 -1.8732 0
M  V30 21 O -1.9247 -5.4549 -2.0626 0
M  V30 22 H 2.0628 6.4173 0.7385 0
M  V30 23 H 1.5381 2.2299 3.3473 0
M  V30 24 H -1.241 2.7485 0.188 0
M  V30 25 H 2.4931 4.2323 4.4137 0
M  V30 26 H -2.0603 0.598 -0.6635 0
M  V30 27 H -0.4271 -1.6751 -2.6997 0
M  V30 28 H -1.9463 -0.9424 -2.1829 0
M  V30 29 H 1.0299 -2.9029 -0.7251 0
M  V30 30 H 0.2967 -2.8245 0.8894 0
M  V30 31 H -2.9322 -3.0827 -1.6333 0
M  V30 32 H -2.3285 -3.1279 -3.2759 0
M  V30 33 H -1.5533 -4.2393 0.244 0
M  V30 34 H -0.0541 -5.0403 -0.1761 0
M  V30 35 H -0.2886 -4.3285 -2.5478 0
M  V30 36 H -1.3739 -6.2143 -1.8058 0
M  V30 END ATOM
M  V30 BEGIN BOND
M  V30 1 1 1 2
M  V30 2 2 2 3
M  V30 3 1 2 4
M  V30 4 1 3 5
M  V30 5 1 3 6
M  V30 6 2 4 7
M  V30 7 2 5 8
M  V30 8 1 5 9
M  V30 9 2 6 10
M  V30 10 1 7 11
M  V30 11 1 8 12
M  V30 12 2 9 13
M  V30 13 2 12 14
M  V30 14 1 14 15
M  V30 15 1 15 16
M  V30 16 1 15 17
M  V30 17 1 16 18
M  V30 18 1 17 19
M  V30 19 1 18 20
M  V30 20 1 20 21
M  V30 21 1 7 10
M  V30 22 1 13 14
M  V30 23 1 19 20
M  V30 24 1 4 22
M  V30 25 1 6 23
M  V30 26 1 9 24
M  V30 27 1 10 25
M  V30 28 1 13 26
M  V30 29 1 16 27
M  V30 30 1 16 28
M  V30 31 1 17 29
M  V30 32 1 17 30
M  V30 33 1 18 31
M  V30 34 1 18 32
M  V30 35 1 19 33
M  V30 36 1 19 34
M  V30 37 1 20 35
M  V30 38 1 21 36
M  V30 END BOND
M  V30 END CTAB
M  END
>  <NO.>
2527

>  <Name>
endixaprine

>  <SMILES>
OC1CCN(c2ccc(-c3ccc(Cl)cc3Cl)nn2)CC1

>  <logBB>


>  <Class>
1

>  <MW>
323.06

>  <nHBAcc>
4

>  <nHBDon>
1

>  <SLogP>
3.41

>  <TopoPSA>
49.25

>  <MMFF94 Energy>
32.764

$$$$
OC1CCN(c2ccc(-c3ccccc3Cl)nn2)CC1
Actelion Java MolfileCreator 2.0

  0  0  0  0  0  0              0 V3000
M  V30 BEGIN CTAB
M  V30 COUNTS 36 38 0 0 0
M  V30 BEGIN ATOM
M  V30 1 Cl -3.6371 0.7266 2.9089 0
M  V30 2 C -2.2802 0.5097 3.9642 0
M  V30 3 C -0.9758 0.2907 3.4815 0
M  V30 4 C -2.5445 0.5305 5.3408 0
M  V30 5 C -0.6246 0.2693 2.0566 0
M  V30 6 C 0.0411 0.073 4.4348 0
M  V30 7 C -1.5171 0.3262 6.2598 0
M  V30 8 N 0.0272 -0.826 1.6198 0
M  V30 9 C -0.8689 1.318 1.1859 0
M  V30 10 C -0.2237 0.0934 5.8067 0
M  V30 11 N 0.4265 -0.922 0.2965 0
M  V30 12 C -0.4676 1.2067 -0.1473 0
M  V30 13 C 0.1749 0.0593 -0.5968 0
M  V30 14 N 0.5896 -0.0685 -1.9272 0
M  V30 15 C 1.5046 -1.1858 -2.1807 0
M  V30 16 C -0.3971 0.2318 -2.9679 0
M  V30 17 C 2.187 -1.0218 -3.5338 0
M  V30 18 C 0.2831 0.3898 -4.322 0
M  V30 19 C 1.1585 -0.815 -4.6376 0
M  V30 20 O 1.8155 -0.5884 -5.882 0
M  V30 21 H -3.5565 0.697 5.7026 0
M  V30 22 H 1.0615 -0.1165 4.1009 0
M  V30 23 H -1.7283 0.3389 7.3262 0
M  V30 24 H -1.3523 2.2276 1.5273 0
M  V30 25 H 0.5818 -0.0773 6.5169 0
M  V30 26 H -0.6359 2.0455 -0.8132 0
M  V30 27 H 0.9542 -2.1352 -2.1545 0
M  V30 28 H 2.2922 -1.2309 -1.4176 0
M  V30 29 H -0.9458 1.1577 -2.7666 0
M  V30 30 H -1.1361 -0.5784 -3.0144 0
M  V30 31 H 2.8065 -1.8992 -3.7537 0
M  V30 32 H 2.876 -0.1671 -3.5078 0
M  V30 33 H 0.8945 1.3021 -4.3308 0
M  V30 34 H -0.4675 0.5257 -5.1097 0
M  V30 35 H 0.5348 -1.7099 -4.7492 0
M  V30 36 H 2.3925 -1.3518 -6.0558 0
M  V30 END ATOM
M  V30 BEGIN BOND
M  V30 1 1 1 2
M  V30 2 2 2 3
M  V30 3 1 2 4
M  V30 4 1 3 5
M  V30 5 1 3 6
M  V30 6 2 4 7
M  V30 7 2 5 8
M  V30 8 1 5 9
M  V30 9 2 6 10
M  V30 10 1 8 11
M  V30 11 2 9 12
M  V30 12 2 11 13
M  V30 13 1 13 14
M  V30 14 1 14 15
M  V30 15 1 14 16
M  V30 16 1 15 17
M  V30 17 1 16 18
M  V30 18 1 17 19
M  V30 19 1 19 20
M  V30 20 1 7 10
M  V30 21 1 12 13
M  V30 22 1 18 19
M  V30 23 1 4 21
M  V30 24 1 6 22
M  V30 25 1 7 23
M  V30 26 1 9 24
M  V30 27 1 10 25
M  V30 28 1 12 26
M  V30 29 1 15 27
M  V30 30 1 15 28
M  V30 31 1 16 29
M  V30 32 1 16 30
M  V30 33 1 17 31
M  V30 34 1 17 32
M  V30 35 1 18 33
M  V30 36 1 18 34
M  V30 37 1 19 35
M  V30 38 1 20 36
M  V30 END BOND
M  V30 END CTAB
M  END
>  <NO.>
2528

>  <Name>
lodaxaprine

>  <SMILES>
OC1CCN(c2ccc(-c3ccccc3Cl)nn2)CC1

>  <logBB>


>  <Class>
1

>  <MW>
289.1

>  <nHBAcc>
4

>  <nHBDon>
1

>  <SLogP>
2.76

>  <TopoPSA>
49.25

>  <MMFF94 Energy>
41.232

$$$$
OCC1(CO)COC(C(Cl)(Cl)Cl)OC1
Actelion Java MolfileCreator 2.0

  0  0  0  0  0  0              0 V3000
M  V30 BEGIN CTAB
M  V30 COUNTS 25 25 0 0 0
M  V30 BEGIN ATOM
M  V30 1 Cl 2.2651 -2.685 2.937 0
M  V30 2 C 0.7206 -1.7645 2.8184 0
M  V30 3 Cl 0.3497 -1.1246 4.4646 0
M  V30 4 Cl -0.5838 -2.9147 2.3695 0
M  V30 5 C 0.8571 -0.5834 1.7957 0
M  V30 6 O 1.3343 -1.0028 0.4995 0
M  V30 7 O -0.3508 0.1988 1.7067 0
M  V30 8 C 0.3071 -0.9919 -0.4919 0
M  V30 9 C -0.2353 1.163 0.6592 0
M  V30 10 C -0.2225 0.4365 -0.6943 0
M  V30 11 C 0.6902 1.1962 -1.6733 0
M  V30 12 C -1.6537 0.3689 -1.2587 0
M  V30 13 O 0.281 2.5575 -1.7833 0
M  V30 14 O -1.6824 -0.3948 -2.4615 0
M  V30 15 H 1.6374 0.0856 2.1834 0
M  V30 16 H -0.4869 -1.6842 -0.1921 0
M  V30 17 H 0.7349 -1.3923 -1.4178 0
M  V30 18 H 0.6716 1.7577 0.8279 0
M  V30 19 H -1.0836 1.8517 0.7402 0
M  V30 20 H 1.7292 1.1879 -1.3247 0
M  V30 21 H 0.668 0.7484 -2.6728 0
M  V30 22 H -2.0465 1.368 -1.4774 0
M  V30 23 H -2.3317 -0.1095 -0.5425 0
M  V30 24 H 0.8331 2.9614 -2.4767 0
M  V30 25 H -2.598 -0.3647 -2.7925 0
M  V30 END ATOM
M  V30 BEGIN BOND
M  V30 1 1 1 2
M  V30 2 1 2 3
M  V30 3 1 2 4
M  V30 4 1 2 5
M  V30 5 1 5 6
M  V30 6 1 5 7
M  V30 7 1 6 8
M  V30 8 1 7 9
M  V30 9 1 8 10
M  V30 10 1 10 11
M  V30 11 1 10 12
M  V30 12 1 11 13
M  V30 13 1 12 14
M  V30 14 1 9 10
M  V30 15 1 5 15
M  V30 16 1 8 16
M  V30 17 1 8 17
M  V30 18 1 9 18
M  V30 19 1 9 19
M  V30 20 1 11 20
M  V30 21 1 11 21
M  V30 22 1 12 22
M  V30 23 1 12 23
M  V30 24 1 13 24
M  V30 25 1 14 25
M  V30 END BOND
M  V30 END CTAB
M  END
>  <NO.>
2530

>  <Name>
penthrichloral

>  <SMILES>
OCC1(CO)COC(C(Cl)(Cl)Cl)OC1

>  <logBB>


>  <Class>
1

>  <MW>
263.97

>  <nHBAcc>
4

>  <nHBDon>
2

>  <SLogP>
0.7

>  <TopoPSA>
58.92

>  <MMFF94 Energy>
71.185

$$$$
OCCCN1CCN(CCCC2c3ccccc3Sc3ccc(Cl)cc32)CC1
Actelion Java MolfileCreator 2.0

  0  0  0  0  0  0              0 V3000
M  V30 BEGIN CTAB
M  V30 COUNTS 57 60 0 0 0
M  V30 BEGIN ATOM
M  V30 1 Cl 4.3825 2.7576 -2.0271 0
M  V30 2 C 4.4739 1.6465 -0.7175 0
M  V30 3 C 3.5506 1.7256 0.3238 0
M  V30 4 C 5.4592 0.6666 -0.7086 0
M  V30 5 C 3.6001 0.8159 1.3987 0
M  V30 6 C 5.5275 -0.2315 0.3577 0
M  V30 7 C 4.6126 -0.1558 1.4184 0
M  V30 8 C 2.5253 0.8727 2.4728 0 CFG=2
M  V30 9 S 4.8165 -1.294 2.7728 0
M  V30 10 C 3.0445 0.5698 3.8714 0
M  V30 11 C 1.3327 -0.0681 2.1618 0
M  V30 12 C 4.0149 -0.4171 4.1006 0
M  V30 13 C 2.4782 1.2394 4.9729 0
M  V30 14 C 0.5294 0.3435 0.9208 0
M  V30 15 C 4.3906 -0.7295 5.4143 0
M  V30 16 C 2.8695 0.931 6.2754 0
M  V30 17 C -0.7121 -0.5422 0.7469 0
M  V30 18 C 3.8229 -0.0568 6.4968 0
M  V30 19 N -1.5774 -0.0907 -0.3543 0
M  V30 20 C -2.8664 -0.8157 -0.3113 0
M  V30 21 C -0.9605 -0.3135 -1.6787 0
M  V30 22 C -3.8115 -0.428 -1.4725 0
M  V30 23 C -1.904 0.0752 -2.8408 0
M  V30 24 N -3.1946 -0.6447 -2.797 0
M  V30 25 C -4.0609 -0.1972 -3.8991 0
M  V30 26 C -5.3257 -1.0461 -4.0561 0
M  V30 27 C -6.1069 -0.6392 -5.2988 0
M  V30 28 O -7.2867 -1.4274 -5.3848 0
M  V30 29 H 2.775 2.4881 0.2912 0
M  V30 30 H 6.1793 0.598 -1.5192 0
M  V30 31 H 6.313 -0.9847 0.3623 0
M  V30 32 H 2.1517 1.9068 2.4968 0
M  V30 33 H 1.6792 -1.1022 2.037 0
M  V30 34 H 0.6496 -0.0767 3.0221 0
M  V30 35 H 1.7155 2.0006 4.8201 0
M  V30 36 H 0.2228 1.3925 1.0149 0
M  V30 37 H 1.1667 0.2607 0.0358 0
M  V30 38 H 5.1397 -1.495 5.6045 0
M  V30 39 H 2.4237 1.4557 7.1166 0
M  V30 40 H -0.4109 -1.5887 0.6085 0
M  V30 41 H -1.2833 -0.4968 1.6833 0
M  V30 42 H 4.1275 -0.3042 7.5103 0
M  V30 43 H -3.3803 -0.5877 0.6306 0
M  V30 44 H -2.6971 -1.901 -0.3363 0
M  V30 45 H -0.0561 0.2957 -1.7802 0
M  V30 46 H -0.664 -1.3646 -1.7941 0
M  V30 47 H -4.7137 -1.0408 -1.3728 0
M  V30 48 H -4.1117 0.6219 -1.3548 0
M  V30 49 H -1.3909 -0.1551 -3.7825 0
M  V30 50 H -2.0698 1.161 -2.8169 0
M  V30 51 H -3.4963 -0.2702 -4.8379 0
M  V30 52 H -4.3346 0.8588 -3.7755 0
M  V30 53 H -5.9813 -0.9462 -3.1833 0
M  V30 54 H -5.0679 -2.1105 -4.1234 0
M  V30 55 H -6.3981 0.4148 -5.2495 0
M  V30 56 H -5.5133 -0.8026 -6.2039 0
M  V30 57 H -7.75 -1.1627 -6.1977 0
M  V30 END ATOM
M  V30 BEGIN BOND
M  V30 1 1 1 2
M  V30 2 2 2 3
M  V30 3 1 2 4
M  V30 4 1 3 5
M  V30 5 2 4 6
M  V30 6 2 5 7
M  V30 7 1 5 8
M  V30 8 1 7 9
M  V30 9 1 8 10
M  V30 10 1 8 11
M  V30 11 1 9 12
M  V30 12 1 10 13
M  V30 13 1 11 14
M  V30 14 1 12 15
M  V30 15 2 13 16
M  V30 16 1 14 17
M  V30 17 2 15 18
M  V30 18 1 17 19
M  V30 19 1 19 20
M  V30 20 1 19 21
M  V30 21 1 20 22
M  V30 22 1 21 23
M  V30 23 1 22 24
M  V30 24 1 24 25
M  V30 25 1 25 26
M  V30 26 1 26 27
M  V30 27 1 27 28
M  V30 28 1 6 7
M  V30 29 2 10 12
M  V30 30 1 16 18
M  V30 31 1 23 24
M  V30 32 1 3 29
M  V30 33 1 4 30
M  V30 34 1 6 31
M  V30 35 1 8 32
M  V30 36 1 11 33
M  V30 37 1 11 34
M  V30 38 1 13 35
M  V30 39 1 14 36
M  V30 40 1 14 37
M  V30 41 1 15 38
M  V30 42 1 16 39
M  V30 43 1 17 40
M  V30 44 1 17 41
M  V30 45 1 18 42
M  V30 46 1 20 43
M  V30 47 1 20 44
M  V30 48 1 21 45
M  V30 49 1 21 46
M  V30 50 1 22 47
M  V30 51 1 22 48
M  V30 52 1 23 49
M  V30 53 1 23 50
M  V30 54 1 25 51
M  V30 55 1 25 52
M  V30 56 1 26 53
M  V30 57 1 26 54
M  V30 58 1 27 55
M  V30 59 1 27 56
M  V30 60 1 28 57
M  V30 END BOND
M  V30 BEGIN COLLECTION
M  V30 MDLV30/STERAC1 ATOMS=(1 8)
M  V30 END COLLECTION
M  V30 END CTAB
M  END
>  <NO.>
2532

>  <Name>
xanthiol

>  <SMILES>
OCCCN1CCN(CCCC2c3ccccc3Sc3ccc(Cl)cc32)CC1

>  <logBB>


>  <Class>
1

>  <MW>
416.17

>  <nHBAcc>
4

>  <nHBDon>
1

>  <SLogP>
4.72

>  <TopoPSA>
26.71

>  <MMFF94 Energy>
111.37

$$$$
OCCN1C=CN(CCCN2c3ccccc3C=Cc3ccccc32)C=CC1
Actelion Java MolfileCreator 2.0

  0  0  0  0  0  0              0 V3000
M  V30 BEGIN CTAB
M  V30 COUNTS 55 58 0 0 0
M  V30 BEGIN ATOM
M  V30 1 O -6.1961 0.317 -3.3327 0
M  V30 2 C -5.5767 1.0937 -4.3555 0
M  V30 3 C -4.5573 2.0759 -3.7619 0
M  V30 4 N -3.5388 1.3757 -2.9495 0
M  V30 5 C -3.606 1.3795 -1.5647 0
M  V30 6 C -2.6016 0.5374 -3.7021 0
M  V30 7 C -2.6925 1.0315 -0.6504 0
M  V30 8 C -1.181 0.6271 -3.2585 0
M  V30 9 N -1.3585 0.6605 -0.7849 0
M  V30 10 C -0.7039 0.6375 -2.0086 0
M  V30 11 C -0.5717 0.3636 0.4394 0
M  V30 12 C -0.532 -1.1469 0.6765 0
M  V30 13 C 0.1611 -1.5049 1.9942 0
M  V30 14 N 1.5746 -1.0828 2.0316 0
M  V30 15 C 2.4523 -1.5608 1.0326 0
M  V30 16 C 1.9843 -0.3314 3.1584 0
M  V30 17 C 3.4072 -0.732 0.4064 0
M  V30 18 C 2.4101 -2.9186 0.6497 0
M  V30 19 C 2.8158 0.8015 3.0525 0
M  V30 20 C 1.5886 -0.7402 4.4509 0
M  V30 21 C 3.5076 0.7165 0.6364 0
M  V30 22 C 4.2576 -1.2676 -0.5811 0
M  V30 23 C 3.2654 -3.4392 -0.3237 0
M  V30 24 C 3.2509 1.3767 1.7727 0
M  V30 25 C 3.1905 1.5028 4.2158 0
M  V30 26 C 1.9762 -0.0433 5.597 0
M  V30 27 C 4.1907 -2.6117 -0.9413 0
M  V30 28 C 2.7766 1.0829 5.4787 0
M  V30 29 H -5.4617 0.0373 -2.7507 0
M  V30 30 H -6.3592 1.638 -4.8925 0
M  V30 31 H -5.1001 0.4038 -5.0588 0
M  V30 32 H -4.069 2.6384 -4.5661 0
M  V30 33 H -5.0849 2.8094 -3.1396 0
M  V30 34 H -4.5647 1.7424 -1.1952 0
M  V30 35 H -2.9295 -0.5086 -3.6641 0
M  V30 36 H -2.6251 0.8246 -4.7612 0
M  V30 37 H -2.9958 1.0999 0.3923 0
M  V30 38 H -0.452 0.6008 -4.064 0
M  V30 39 H 0.3788 0.6101 -1.8903 0
M  V30 40 H 0.4392 0.7729 0.3375 0
M  V30 41 H -1.0106 0.8693 1.3093 0
M  V30 42 H -0.0515 -1.647 -0.1718 0
M  V30 43 H -1.5583 -1.5347 0.713 0
M  V30 44 H -0.4189 -1.0225 2.7926 0
M  V30 45 H 0.0781 -2.5818 2.182 0
M  V30 46 H 1.7195 -3.6035 1.133 0
M  V30 47 H 0.9908 -1.6394 4.5779 0
M  V30 48 H 3.841 1.2999 -0.2192 0
M  V30 49 H 4.9876 -0.6325 -1.0788 0
M  V30 50 H 3.2098 -4.4914 -0.5888 0
M  V30 51 H 3.3922 2.4555 1.772 0
M  V30 52 H 3.8197 2.3877 4.1433 0
M  V30 53 H 1.6595 -0.389 6.5772 0
M  V30 54 H 4.8606 -3.0076 -1.6994 0
M  V30 55 H 3.0846 1.6323 6.3641 0
M  V30 END ATOM
M  V30 BEGIN BOND
M  V30 1 1 1 2
M  V30 2 1 2 3
M  V30 3 1 3 4
M  V30 4 1 4 5
M  V30 5 1 4 6
M  V30 6 2 5 7
M  V30 7 1 6 8
M  V30 8 1 7 9
M  V30 9 2 8 10
M  V30 10 1 9 11
M  V30 11 1 11 12
M  V30 12 1 12 13
M  V30 13 1 13 14
M  V30 14 1 14 15
M  V30 15 1 14 16
M  V30 16 2 15 17
M  V30 17 1 15 18
M  V30 18 2 16 19
M  V30 19 1 16 20
M  V30 20 1 17 21
M  V30 21 1 17 22
M  V30 22 2 18 23
M  V30 23 1 19 24
M  V30 24 1 19 25
M  V30 25 2 20 26
M  V30 26 2 22 27
M  V30 27 2 25 28
M  V30 28 1 9 10
M  V30 29 2 21 24
M  V30 30 1 23 27
M  V30 31 1 26 28
M  V30 32 1 1 29
M  V30 33 1 2 30
M  V30 34 1 2 31
M  V30 35 1 3 32
M  V30 36 1 3 33
M  V30 37 1 5 34
M  V30 38 1 6 35
M  V30 39 1 6 36
M  V30 40 1 7 37
M  V30 41 1 8 38
M  V30 42 1 10 39
M  V30 43 1 11 40
M  V30 44 1 11 41
M  V30 45 1 12 42
M  V30 46 1 12 43
M  V30 47 1 13 44
M  V30 48 1 13 45
M  V30 49 1 18 46
M  V30 50 1 20 47
M  V30 51 1 21 48
M  V30 52 1 22 49
M  V30 53 1 23 50
M  V30 54 1 24 51
M  V30 55 1 25 52
M  V30 56 1 26 53
M  V30 57 1 27 54
M  V30 58 1 28 55
M  V30 END BOND
M  V30 END CTAB
M  END
>  <NO.>
2533

>  <Name>
homopipramol

>  <SMILES>
OCCN1C=CN(CCCN2c3ccccc3C=Cc3ccccc32)C=CC1

>  <logBB>


>  <Class>
1

>  <MW>
373.22

>  <nHBAcc>
4

>  <nHBDon>
1

>  <SLogP>
4.29

>  <TopoPSA>
29.95

>  <MMFF94 Energy>
112.07

$$$$
OCCN1CCCN(CCCN2c3ccccc3Sc3cc(C(F)(F)F)ccc32)CC1
Actelion Java MolfileCreator 2.0

  0  0  0  0  0  0              0 V3000
M  V30 BEGIN CTAB
M  V30 COUNTS 59 62 0 0 0
M  V30 BEGIN ATOM
M  V30 1 S -2.3504 0.2429 -3.8113 0
M  V30 2 C -3.2166 0.3143 -2.2564 0
M  V30 3 C -1.7528 -1.4348 -3.8243 0
M  V30 4 C -3.0755 -0.665 -1.255 0
M  V30 5 C -4.0499 1.4303 -2.0552 0
M  V30 6 C -1.75 -2.2557 -2.6798 0
M  V30 7 C -1.2549 -1.9148 -5.0486 0
M  V30 8 N -2.2216 -1.7872 -1.4235 0
M  V30 9 C -3.843 -0.5053 -0.0844 0
M  V30 10 C -4.7906 1.5835 -0.8764 0
M  V30 11 C -1.2949 -3.5809 -2.8367 0
M  V30 12 C -0.7807 -3.2185 -5.1649 0
M  V30 13 C -1.3825 -2.1408 -0.2512 0
M  V30 14 C -4.6786 0.6008 0.1086 0
M  V30 15 C -5.6645 2.7945 -0.6706 0
M  V30 16 C -0.8105 -4.0561 -4.0593 0
M  V30 17 C -0.1946 -1.1764 -0.1102 0
M  V30 18 F -6.228 3.2503 -1.8238 0
M  V30 19 F -6.7016 2.5672 0.1837 0
M  V30 20 F -4.9754 3.8462 -0.1486 0
M  V30 21 C 0.6924 -1.5824 1.0732 0
M  V30 22 N 1.7724 -0.615 1.3234 0
M  V30 23 C 2.2809 -0.7687 2.7054 0
M  V30 24 C 2.8601 -0.7032 0.3409 0
M  V30 25 C 3.5973 -0.0313 3.0583 0
M  V30 26 C 3.7461 0.5548 0.2727 0
M  V30 27 N 3.7141 1.3848 2.6844 0
M  V30 28 C 3.4024 1.6654 1.2748 0
M  V30 29 C 2.9392 2.248 3.6023 0
M  V30 30 C 3.2091 3.7577 3.4604 0
M  V30 31 O 4.5273 4.0837 3.8912 0
M  V30 32 H -4.1302 2.1892 -2.834 0
M  V30 33 H -1.2435 -1.2714 -5.926 0
M  V30 34 H -3.8314 -1.2623 0.6947 0
M  V30 35 H -1.344 -4.2865 -2.0125 0
M  V30 36 H -0.4061 -3.58 -6.1186 0
M  V30 37 H -1.0033 -3.1657 -0.3138 0
M  V30 38 H -1.9637 -2.1408 0.6768 0
M  V30 39 H -5.2492 0.6811 1.0332 0
M  V30 40 H -0.4683 -5.0843 -4.145 0
M  V30 41 H -0.5611 -0.1532 0.0407 0
M  V30 42 H 0.3797 -1.1726 -1.0425 0
M  V30 43 H 0.0447 -1.6328 1.9589 0
M  V30 44 H 1.0995 -2.5903 0.9215 0
M  V30 45 H 1.5006 -0.4186 3.3931 0
M  V30 46 H 2.4423 -1.8331 2.9248 0
M  V30 47 H 3.4812 -1.5897 0.5269 0
M  V30 48 H 2.4579 -0.8469 -0.6681 0
M  V30 49 H 4.4362 -0.5733 2.6022 0
M  V30 50 H 3.7754 -0.1433 4.1364 0
M  V30 51 H 3.6542 0.9815 -0.7349 0
M  V30 52 H 4.8002 0.2693 0.3802 0
M  V30 53 H 2.3456 1.9366 1.1471 0
M  V30 54 H 3.9797 2.551 0.9812 0
M  V30 55 H 3.1938 1.9756 4.6346 0
M  V30 56 H 1.865 2.0676 3.4706 0
M  V30 57 H 3.0703 4.1048 2.4321 0
M  V30 58 H 2.5098 4.3105 4.0969 0
M  V30 59 H 4.6997 4.9981 3.6129 0
M  V30 END ATOM
M  V30 BEGIN BOND
M  V30 1 1 1 2
M  V30 2 1 1 3
M  V30 3 2 2 4
M  V30 4 1 2 5
M  V30 5 2 3 6
M  V30 6 1 3 7
M  V30 7 1 4 8
M  V30 8 1 4 9
M  V30 9 2 5 10
M  V30 10 1 6 11
M  V30 11 2 7 12
M  V30 12 1 8 13
M  V30 13 2 9 14
M  V30 14 1 10 15
M  V30 15 2 11 16
M  V30 16 1 13 17
M  V30 17 1 15 18
M  V30 18 1 15 19
M  V30 19 1 15 20
M  V30 20 1 17 21
M  V30 21 1 21 22
M  V30 22 1 22 23
M  V30 23 1 22 24
M  V30 24 1 23 25
M  V30 25 1 24 26
M  V30 26 1 25 27
M  V30 27 1 26 28
M  V30 28 1 27 29
M  V30 29 1 29 30
M  V30 30 1 30 31
M  V30 31 1 6 8
M  V30 32 1 10 14
M  V30 33 1 12 16
M  V30 34 1 27 28
M  V30 35 1 5 32
M  V30 36 1 7 33
M  V30 37 1 9 34
M  V30 38 1 11 35
M  V30 39 1 12 36
M  V30 40 1 13 37
M  V30 41 1 13 38
M  V30 42 1 14 39
M  V30 43 1 16 40
M  V30 44 1 17 41
M  V30 45 1 17 42
M  V30 46 1 21 43
M  V30 47 1 21 44
M  V30 48 1 23 45
M  V30 49 1 23 46
M  V30 50 1 24 47
M  V30 51 1 24 48
M  V30 52 1 25 49
M  V30 53 1 25 50
M  V30 54 1 26 51
M  V30 55 1 26 52
M  V30 56 1 28 53
M  V30 57 1 28 54
M  V30 58 1 29 55
M  V30 59 1 29 56
M  V30 60 1 30 57
M  V30 61 1 30 58
M  V30 62 1 31 59
M  V30 END BOND
M  V30 END CTAB
M  END
>  <NO.>
2534

>  <Name>
homophenazine

>  <SMILES>
OCCN1CCCN(CCCN2c3ccccc3Sc3cc(C(F)(F)F)ccc32)CC1

>  <logBB>


>  <Class>
1

>  <MW>
451.19

>  <nHBAcc>
5

>  <nHBDon>
1

>  <SLogP>
4.7

>  <TopoPSA>
29.95

>  <MMFF94 Energy>
155

$$$$
OCCN1CCCN(CCCN2c3ccccc3Sc3ccc(C(F)(F)F)cc32)CC1
Actelion Java MolfileCreator 2.0

  0  0  0  0  0  0              0 V3000
M  V30 BEGIN CTAB
M  V30 COUNTS 59 62 0 0 0
M  V30 BEGIN ATOM
M  V30 1 S -4.7039 -1.7822 1.6201 0
M  V30 2 C -4.6685 -0.2045 0.8153 0
M  V30 3 C -3.4009 -2.6634 0.802 0
M  V30 4 C -3.7653 0.1405 -0.209 0
M  V30 5 C -5.6332 0.713 1.2816 0
M  V30 6 C -2.5972 -2.1191 -0.2219 0
M  V30 7 C -3.2137 -3.9852 1.2615 0
M  V30 8 N -2.7795 -0.7801 -0.6918 0
M  V30 9 C -3.9031 1.4525 -0.7274 0
M  V30 10 C -5.734 1.9914 0.747 0
M  V30 11 C -1.6066 -2.989 -0.738 0
M  V30 12 C -2.2297 -4.8025 0.7246 0
M  V30 13 C -1.8775 -0.2901 -1.7639 0
M  V30 14 C -4.8711 2.3737 -0.2736 0
M  V30 15 C -1.4231 -4.3011 -0.2782 0
M  V30 16 C -0.7284 0.593 -1.2468 0
M  V30 17 C -4.9372 3.7617 -0.8617 0
M  V30 18 C 0.2637 -0.1448 -0.3416 0
M  V30 19 F -4.0818 4.625 -0.2493 0
M  V30 20 F -4.6155 3.793 -2.1856 0
M  V30 21 F -6.1728 4.3275 -0.7678 0
M  V30 22 N 1.3479 0.7141 0.1639 0
M  V30 23 C 2.004 0.0865 1.3338 0
M  V30 24 C 2.2701 1.2215 -0.8524 0
M  V30 25 C 3.5053 0.4072 1.5588 0
M  V30 26 C 3.2082 0.2152 -1.5188 0
M  V30 27 N 4.4695 -0.26 0.6591 0
M  V30 28 C 3.8967 -0.7802 -0.5841 0
M  V30 29 C 5.6747 0.5505 0.424 0
M  V30 30 C 6.5078 0.7984 1.69 0
M  V30 31 O 7.6787 1.5387 1.3531 0
M  V30 32 H -6.3196 0.4275 2.0779 0
M  V30 33 H -3.8457 -4.385 2.0529 0
M  V30 34 H -3.25 1.819 -1.5143 0
M  V30 35 H -6.4861 2.6785 1.1301 0
M  V30 36 H -0.9185 -2.6906 -1.5188 0
M  V30 37 H -2.0972 -5.817 1.0887 0
M  V30 38 H -2.4547 0.266 -2.5135 0
M  V30 39 H -1.4684 -1.0885 -2.3874 0
M  V30 40 H -0.6438 -4.9229 -0.712 0
M  V30 41 H -1.1191 1.4616 -0.7055 0
M  V30 42 H -0.2115 0.9825 -2.1306 0
M  V30 43 H -0.2973 -0.5235 0.521 0
M  V30 44 H 0.6808 -1.0121 -0.8654 0
M  V30 45 H 1.4567 0.4312 2.2206 0
M  V30 46 H 1.8829 -1.005 1.3251 0
M  V30 47 H 1.7144 1.7443 -1.639 0
M  V30 48 H 2.8693 2.0286 -0.4127 0
M  V30 49 H 3.7553 0.0912 2.5797 0
M  V30 50 H 3.6324 1.4976 1.5517 0
M  V30 51 H 2.6486 -0.3542 -2.2715 0
M  V30 52 H 3.9729 0.7769 -2.0701 0
M  V30 53 H 4.6817 -1.2967 -1.1529 0
M  V30 54 H 3.1949 -1.5875 -0.3408 0
M  V30 55 H 5.423 1.5117 -0.0428 0
M  V30 56 H 6.3303 0.0397 -0.2937 0
M  V30 57 H 5.9481 1.3755 2.4322 0
M  V30 58 H 6.818 -0.1512 2.1382 0
M  V30 59 H 8.1925 1.6372 2.173 0
M  V30 END ATOM
M  V30 BEGIN BOND
M  V30 1 1 1 2
M  V30 2 1 1 3
M  V30 3 2 2 4
M  V30 4 1 2 5
M  V30 5 2 3 6
M  V30 6 1 3 7
M  V30 7 1 4 8
M  V30 8 1 4 9
M  V30 9 2 5 10
M  V30 10 1 6 11
M  V30 11 2 7 12
M  V30 12 1 8 13
M  V30 13 2 9 14
M  V30 14 2 11 15
M  V30 15 1 13 16
M  V30 16 1 14 17
M  V30 17 1 16 18
M  V30 18 1 17 19
M  V30 19 1 17 20
M  V30 20 1 17 21
M  V30 21 1 18 22
M  V30 22 1 22 23
M  V30 23 1 22 24
M  V30 24 1 23 25
M  V30 25 1 24 26
M  V30 26 1 25 27
M  V30 27 1 26 28
M  V30 28 1 27 29
M  V30 29 1 29 30
M  V30 30 1 30 31
M  V30 31 1 6 8
M  V30 32 1 10 14
M  V30 33 1 12 15
M  V30 34 1 27 28
M  V30 35 1 5 32
M  V30 36 1 7 33
M  V30 37 1 9 34
M  V30 38 1 10 35
M  V30 39 1 11 36
M  V30 40 1 12 37
M  V30 41 1 13 38
M  V30 42 1 13 39
M  V30 43 1 15 40
M  V30 44 1 16 41
M  V30 45 1 16 42
M  V30 46 1 18 43
M  V30 47 1 18 44
M  V30 48 1 23 45
M  V30 49 1 23 46
M  V30 50 1 24 47
M  V30 51 1 24 48
M  V30 52 1 25 49
M  V30 53 1 25 50
M  V30 54 1 26 51
M  V30 55 1 26 52
M  V30 56 1 28 53
M  V30 57 1 28 54
M  V30 58 1 29 55
M  V30 59 1 29 56
M  V30 60 1 30 57
M  V30 61 1 30 58
M  V30 62 1 31 59
M  V30 END BOND
M  V30 END CTAB
M  END
>  <NO.>
2535

>  <Name>
homofenazine

>  <SMILES>
OCCN1CCCN(CCCN2c3ccccc3Sc3ccc(C(F)(F)F)cc32)CC1

>  <logBB>


>  <Class>
1

>  <MW>
451.19

>  <nHBAcc>
5

>  <nHBDon>
1

>  <SLogP>
4.7

>  <TopoPSA>
29.95

>  <MMFF94 Energy>
154.83

$$$$
OCCN1CCN(CC/C=C2/c3ccccc3COc3ccc(Cl)cc32)CC1
Actelion Java MolfileCreator 2.0

  0  0  0  0  0  0              0 V3000
M  V30 BEGIN CTAB
M  V30 COUNTS 55 58 0 0 0
M  V30 BEGIN ATOM
M  V30 1 Cl -0.3213 1.2857 -4.5057 0
M  V30 2 C 0.175 2.2562 -3.1734 0
M  V30 3 C -0.4339 2.0843 -1.9298 0
M  V30 4 C 1.1877 3.2011 -3.3479 0
M  V30 5 C -0.0247 2.8641 -0.8419 0
M  V30 6 C 1.5856 3.9964 -2.2734 0
M  V30 7 C -0.5983 2.6915 0.5092 0
M  V30 8 C 0.9581 3.8406 -1.0389 0
M  V30 9 C -1.3035 3.8036 1.209 0
M  V30 10 C -0.3646 1.5506 1.1993 0
M  V30 11 O 1.3525 4.6393 0.0027 0
M  V30 12 C -0.852 5.1385 1.1323 0
M  V30 13 C -2.4804 3.5268 1.9349 0
M  V30 14 C 0.4274 0.3371 0.7725 0
M  V30 15 C 0.3314 5.602 0.2975 0
M  V30 16 C -1.5798 6.1442 1.8058 0
M  V30 17 C -3.1801 4.5341 2.6003 0
M  V30 18 C -0.4875 -0.8823 0.5668 0
M  V30 19 C -2.7259 5.8439 2.5401 0
M  V30 20 N 0.2157 -2.0502 0.0084 0
M  V30 21 C -0.7591 -3.0924 -0.3775 0
M  V30 22 C 1.1747 -2.6356 0.968 0
M  V30 23 C -0.0818 -4.3679 -0.9308 0
M  V30 24 C 1.8524 -3.9123 0.4182 0
M  V30 25 N 0.8792 -4.9509 0.0235 0
M  V30 26 C 1.586 -6.1234 -0.531 0
M  V30 27 C 0.7048 -7.364 -0.7627 0
M  V30 28 O 0.2369 -7.8982 0.4719 0
M  V30 29 H -1.2129 1.3377 -1.8043 0
M  V30 30 H 1.6668 3.3225 -4.3155 0
M  V30 31 H 2.3709 4.7359 -2.3979 0
M  V30 32 H -0.7282 1.4714 2.2239 0
M  V30 33 H -2.8733 2.513 1.9788 0
M  V30 34 H 1.1585 0.1335 1.5638 0
M  V30 35 H 1.0102 0.5248 -0.1346 0
M  V30 36 H -0.0389 6.0656 -0.6282 0
M  V30 37 H 0.8466 6.3952 0.8535 0
M  V30 38 H -1.2541 7.1818 1.7522 0
M  V30 39 H -4.0816 4.2931 3.1571 0
M  V30 40 H -0.9837 -1.1418 1.5119 0
M  V30 41 H -1.2816 -0.5881 -0.1322 0
M  V30 42 H -3.2688 6.6342 3.0518 0
M  V30 43 H -1.4228 -2.6985 -1.157 0
M  V30 44 H -1.3891 -3.3656 0.4801 0
M  V30 45 H 1.9698 -1.9156 1.1901 0
M  V30 46 H 0.6737 -2.8755 1.9156 0
M  V30 47 H -0.8774 -5.0873 -1.1515 0
M  V30 48 H 0.4154 -4.1261 -1.8796 0
M  V30 49 H 2.5106 -4.3079 1.2013 0
M  V30 50 H 2.4879 -3.6385 -0.435 0
M  V30 51 H 2.3696 -6.4188 0.1786 0
M  V30 52 H 2.0809 -5.8562 -1.4732 0
M  V30 53 H -0.152 -7.1451 -1.4058 0
M  V30 54 H 1.3003 -8.1416 -1.2526 0
M  V30 55 H -0.4117 -8.5882 0.2574 0
M  V30 END ATOM
M  V30 BEGIN BOND
M  V30 1 1 1 2
M  V30 2 2 2 3
M  V30 3 1 2 4
M  V30 4 1 3 5
M  V30 5 2 4 6
M  V30 6 1 5 7
M  V30 7 2 5 8
M  V30 8 1 7 9
M  V30 9 2 7 10
M  V30 10 1 8 11
M  V30 11 2 9 12
M  V30 12 1 9 13
M  V30 13 1 10 14
M  V30 14 1 11 15
M  V30 15 1 12 16
M  V30 16 2 13 17
M  V30 17 1 14 18
M  V30 18 2 16 19
M  V30 19 1 18 20
M  V30 20 1 20 21
M  V30 21 1 20 22
M  V30 22 1 21 23
M  V30 23 1 22 24
M  V30 24 1 23 25
M  V30 25 1 25 26
M  V30 26 1 26 27
M  V30 27 1 27 28
M  V30 28 1 6 8
M  V30 29 1 12 15
M  V30 30 1 17 19
M  V30 31 1 24 25
M  V30 32 1 3 29
M  V30 33 1 4 30
M  V30 34 1 6 31
M  V30 35 1 10 32
M  V30 36 1 13 33
M  V30 37 1 14 34
M  V30 38 1 14 35
M  V30 39 1 15 36
M  V30 40 1 15 37
M  V30 41 1 16 38
M  V30 42 1 17 39
M  V30 43 1 18 40
M  V30 44 1 18 41
M  V30 45 1 19 42
M  V30 46 1 21 43
M  V30 47 1 21 44
M  V30 48 1 22 45
M  V30 49 1 22 46
M  V30 50 1 23 47
M  V30 51 1 23 48
M  V30 52 1 24 49
M  V30 53 1 24 50
M  V30 54 1 26 51
M  V30 55 1 26 52
M  V30 56 1 27 53
M  V30 57 1 27 54
M  V30 58 1 28 55
M  V30 END BOND
M  V30 END CTAB
M  END
>  <NO.>
2536

>  <Name>
pinoxepin

>  <SMILES>
OCCN1CCN(CC/C=C2/c3ccccc3COc3ccc(Cl)cc32)CC1

>  <logBB>


>  <Class>
1

>  <MW>
398.18

>  <nHBAcc>
4

>  <nHBDon>
1

>  <SLogP>
3.66

>  <TopoPSA>
35.94

>  <MMFF94 Energy>
169.87

$$$$
OCCN1CCN(CC/C=C2/c3ccccc3Sc3ccc(C(F)(F)F)cc32)CC1
Actelion Java MolfileCreator 2.0

  0  0  0  0  0  0              0 V3000
M  V30 BEGIN CTAB
M  V30 COUNTS 55 58 0 0 0
M  V30 BEGIN ATOM
M  V30 1 S -1.3842 -2.0361 4.4018 0
M  V30 2 C -0.5358 -2.7539 2.9967 0
M  V30 3 C -0.1336 -0.9246 5.0474 0
M  V30 4 C 0.5405 -2.1146 2.357 0
M  V30 5 C -0.9495 -4.0201 2.5623 0
M  V30 6 C 0.9099 -0.4153 4.2513 0
M  V30 7 C -0.2095 -0.5722 6.4022 0
M  V30 8 C 0.9395 -0.7551 2.8008 0
M  V30 9 C 1.2468 -2.8049 1.3583 0
M  V30 10 C -0.2713 -4.6746 1.5317 0
M  V30 11 C 1.894 0.3902 4.8485 0
M  V30 12 C 0.7612 0.2494 6.9761 0
M  V30 13 C 1.1479 0.2643 1.9343 0
M  V30 14 C 0.8399 -4.0775 0.9242 0
M  V30 15 C 1.8172 0.7222 6.2023 0
M  V30 16 C 1.0373 0.2873 0.4272 0
M  V30 17 C 1.6121 -4.7867 -0.1604 0
M  V30 18 C 0.0969 1.4124 -0.0492 0
M  V30 19 F 1.9131 -3.9708 -1.209 0
M  V30 20 F 2.8001 -5.2786 0.2853 0
M  V30 21 F 0.9446 -5.8467 -0.6958 0
M  V30 22 N 0.0961 1.5898 -1.5127 0
M  V30 23 C -0.5313 0.4511 -2.2142 0
M  V30 24 C -0.6376 2.824 -1.8701 0
M  V30 25 C -0.6175 0.6768 -3.7416 0
M  V30 26 C -0.7365 3.0498 -3.3973 0
M  V30 27 N -1.3579 1.9058 -4.097 0
M  V30 28 C -1.3491 2.0894 -5.5644 0
M  V30 29 C -2.2175 3.2573 -6.0625 0
M  V30 30 O -1.5049 4.4906 -6.0049 0
M  V30 31 H -1.791 -4.5173 3.041 0
M  V30 32 H -1.0184 -0.9484 7.0245 0
M  V30 33 H 2.1261 -2.3471 0.9052 0
M  V30 34 H -0.6059 -5.663 1.2195 0
M  V30 35 H 2.7317 0.7634 4.264 0
M  V30 36 H 0.698 0.5101 8.0296 0
M  V30 37 H 1.3801 1.2497 2.3407 0
M  V30 38 H 2.5821 1.3509 6.6514 0
M  V30 39 H 0.6699 -0.6631 0.0383 0
M  V30 40 H 2.0407 0.447 0.0147 0
M  V30 41 H -0.9202 1.2306 0.3232 0
M  V30 42 H 0.4377 2.3495 0.4115 0
M  V30 43 H 0.0569 -0.4587 -2.0552 0
M  V30 44 H -1.5399 0.2641 -1.8215 0
M  V30 45 H -1.6522 2.8001 -1.449 0
M  V30 46 H -0.1249 3.6903 -1.4344 0
M  V30 47 H 0.4001 0.7071 -4.1543 0
M  V30 48 H -1.1221 -0.1912 -4.183 0
M  V30 49 H 0.2674 3.248 -3.7954 0
M  V30 50 H -1.339 3.9518 -3.5472 0
M  V30 51 H -1.7625 1.1776 -6.0133 0
M  V30 52 H -0.322 2.2068 -5.9327 0
M  V30 53 H -2.4891 3.0869 -7.1096 0
M  V30 54 H -3.1402 3.3455 -5.479 0
M  V30 55 H -2.1298 5.1864 -6.2704 0
M  V30 END ATOM
M  V30 BEGIN BOND
M  V30 1 1 1 2
M  V30 2 1 1 3
M  V30 3 2 2 4
M  V30 4 1 2 5
M  V30 5 2 3 6
M  V30 6 1 3 7
M  V30 7 1 4 8
M  V30 8 1 4 9
M  V30 9 2 5 10
M  V30 10 1 6 11
M  V30 11 2 7 12
M  V30 12 2 8 13
M  V30 13 2 9 14
M  V30 14 2 11 15
M  V30 15 1 13 16
M  V30 16 1 14 17
M  V30 17 1 16 18
M  V30 18 1 17 19
M  V30 19 1 17 20
M  V30 20 1 17 21
M  V30 21 1 18 22
M  V30 22 1 22 23
M  V30 23 1 22 24
M  V30 24 1 23 25
M  V30 25 1 24 26
M  V30 26 1 25 27
M  V30 27 1 27 28
M  V30 28 1 28 29
M  V30 29 1 29 30
M  V30 30 1 6 8
M  V30 31 1 10 14
M  V30 32 1 12 15
M  V30 33 1 26 27
M  V30 34 1 5 31
M  V30 35 1 7 32
M  V30 36 1 9 33
M  V30 37 1 10 34
M  V30 38 1 11 35
M  V30 39 1 12 36
M  V30 40 1 13 37
M  V30 41 1 15 38
M  V30 42 1 16 39
M  V30 43 1 16 40
M  V30 44 1 18 41
M  V30 45 1 18 42
M  V30 46 1 23 43
M  V30 47 1 23 44
M  V30 48 1 24 45
M  V30 49 1 24 46
M  V30 50 1 25 47
M  V30 51 1 25 48
M  V30 52 1 26 49
M  V30 53 1 26 50
M  V30 54 1 28 51
M  V30 55 1 28 52
M  V30 56 1 29 53
M  V30 57 1 29 54
M  V30 58 1 30 55
M  V30 END BOND
M  V30 END CTAB
M  END
>  <NO.>
2537

>  <Name>
flupentixol

>  <SMILES>
OCCN1CCN(CC/C=C2/c3ccccc3Sc3ccc(C(F)(F)F)cc32)CC1

>  <logBB>


>  <Class>
1

>  <MW>
434.16

>  <nHBAcc>
4

>  <nHBDon>
1

>  <SLogP>
4.6

>  <TopoPSA>
26.71

>  <MMFF94 Energy>
186.07

$$$$
OCCN1CCN(CC/C=C2/c3ccccc3Sc3ccc(Cl)cc32)CC1
Actelion Java MolfileCreator 2.0

  0  0  0  0  0  0              0 V3000
M  V30 BEGIN CTAB
M  V30 COUNTS 52 55 0 0 0
M  V30 BEGIN ATOM
M  V30 1 Cl -0.2442 6.119 -2.7705 0
M  V30 2 C -1.4474 5.1338 -2.0342 0
M  V30 3 C -1.2342 3.7623 -1.9052 0
M  V30 4 C -2.625 5.7123 -1.5711 0
M  V30 5 C -2.1969 2.949 -1.2857 0
M  V30 6 C -3.6107 4.9065 -0.999 0
M  V30 7 C -3.4154 3.523 -0.8759 0
M  V30 8 C -1.9888 1.4891 -1.1082 0
M  V30 9 S -4.7741 2.5464 -0.2374 0
M  V30 10 C -3.1222 0.5465 -1.3281 0
M  V30 11 C -0.8516 0.9773 -0.5806 0
M  V30 12 C -4.4167 0.9319 -0.9302 0
M  V30 13 C -2.9397 -0.7112 -1.9279 0
M  V30 14 C 0.3727 1.697 -0.0633 0
M  V30 15 C -5.4863 0.0379 -1.0827 0
M  V30 16 C -4.0144 -1.5877 -2.0885 0
M  V30 17 C 0.8925 1.1212 1.2729 0
M  V30 18 C -5.285 -1.2171 -1.658 0
M  V30 19 N 1.3083 -0.2929 1.2195 0
M  V30 20 C 2.5272 -0.4872 0.408 0
M  V30 21 C 1.5614 -0.8002 2.5839 0
M  V30 22 C 3.0322 -1.9517 0.4205 0
M  V30 23 C 2.0382 -2.2688 2.5841 0
M  V30 24 N 3.2684 -2.463 1.7873 0
M  V30 25 C 3.64 -3.8945 1.7812 0
M  V30 26 C 4.9865 -4.1979 1.1022 0
M  V30 27 O 4.833 -4.3329 -0.3086 0
M  V30 28 H -0.3157 3.326 -2.2891 0
M  V30 29 H -2.7919 6.7817 -1.6692 0
M  V30 30 H -4.5422 5.3627 -0.6702 0
M  V30 31 H -0.7872 -0.1013 -0.4299 0
M  V30 32 H -1.9565 -1.0193 -2.2762 0
M  V30 33 H 0.1592 2.7549 0.1191 0
M  V30 34 H 1.1574 1.6577 -0.8261 0
M  V30 35 H -6.4883 0.3193 -0.7664 0
M  V30 36 H -3.8567 -2.5605 -2.5475 0
M  V30 37 H 1.7201 1.7484 1.6301 0
M  V30 38 H 0.0823 1.2261 2.0074 0
M  V30 39 H -6.1222 -1.9001 -1.7781 0
M  V30 40 H 2.3284 -0.2218 -0.6358 0
M  V30 41 H 3.3329 0.1683 0.7655 0
M  V30 42 H 2.3098 -0.1786 3.0943 0
M  V30 43 H 0.6361 -0.7453 3.1707 0
M  V30 44 H 2.3044 -2.5831 -0.1067 0
M  V30 45 H 3.9658 -1.9701 -0.1514 0
M  V30 46 H 1.2281 -2.9078 2.2064 0
M  V30 47 H 2.2281 -2.5631 3.6236 0
M  V30 48 H 2.8473 -4.497 1.3194 0
M  V30 49 H 3.7364 -4.2146 2.8264 0
M  V30 50 H 5.7243 -3.4161 1.3123 0
M  V30 51 H 5.3773 -5.1487 1.4797 0
M  V30 52 H 5.7243 -4.461 -0.6749 0
M  V30 END ATOM
M  V30 BEGIN BOND
M  V30 1 1 1 2
M  V30 2 2 2 3
M  V30 3 1 2 4
M  V30 4 1 3 5
M  V30 5 2 4 6
M  V30 6 2 5 7
M  V30 7 1 5 8
M  V30 8 1 7 9
M  V30 9 1 8 10
M  V30 10 2 8 11
M  V30 11 1 9 12
M  V30 12 1 10 13
M  V30 13 1 11 14
M  V30 14 1 12 15
M  V30 15 2 13 16
M  V30 16 1 14 17
M  V30 17 2 15 18
M  V30 18 1 17 19
M  V30 19 1 19 20
M  V30 20 1 19 21
M  V30 21 1 20 22
M  V30 22 1 21 23
M  V30 23 1 22 24
M  V30 24 1 24 25
M  V30 25 1 25 26
M  V30 26 1 26 27
M  V30 27 1 6 7
M  V30 28 2 10 12
M  V30 29 1 16 18
M  V30 30 1 23 24
M  V30 31 1 3 28
M  V30 32 1 4 29
M  V30 33 1 6 30
M  V30 34 1 11 31
M  V30 35 1 13 32
M  V30 36 1 14 33
M  V30 37 1 14 34
M  V30 38 1 15 35
M  V30 39 1 16 36
M  V30 40 1 17 37
M  V30 41 1 17 38
M  V30 42 1 18 39
M  V30 43 1 20 40
M  V30 44 1 20 41
M  V30 45 1 21 42
M  V30 46 1 21 43
M  V30 47 1 22 44
M  V30 48 1 22 45
M  V30 49 1 23 46
M  V30 50 1 23 47
M  V30 51 1 25 48
M  V30 52 1 25 49
M  V30 53 1 26 50
M  V30 54 1 26 51
M  V30 55 1 27 52
M  V30 END BOND
M  V30 END CTAB
M  END
>  <NO.>
2538

>  <Name>
clopenthixol/zuclopenthixol

>  <SMILES>
OCCN1CCN(CC/C=C2/c3ccccc3Sc3ccc(Cl)cc32)CC1

>  <logBB>


>  <Class>
1

>  <MW>
400.14

>  <nHBAcc>
4

>  <nHBDon>
1

>  <SLogP>
4.24

>  <TopoPSA>
26.71

>  <MMFF94 Energy>
156.82

$$$$
OCCN1CCN(CCCC2c3ccc(F)cc3Sc3ccc(C(F)(F)F)cc32)CC1
Actelion Java MolfileCreator 2.0

  0  0  0  0  0  0              0 V3000
M  V30 BEGIN CTAB
M  V30 COUNTS 57 60 0 0 0
M  V30 BEGIN ATOM
M  V30 1 S 4.5704 -1.8752 1.9568 0
M  V30 2 C 3.825 -1.1289 3.3923 0
M  V30 3 C 4.2604 -0.6417 0.7103 0
M  V30 4 C 2.8154 -0.1555 3.2952 0
M  V30 5 C 4.2849 -1.5302 4.6518 0
M  V30 6 C 3.2243 0.2964 0.8213 0
M  V30 7 C 5.1162 -0.6038 -0.3982 0
M  V30 8 C 2.2934 0.4128 4.4744 0
M  V30 9 C 2.2102 0.2368 1.9532 0 CFG=1
M  V30 10 C 3.7564 -0.9535 5.7998 0
M  V30 11 C 3.091 1.2854 -0.1744 0
M  V30 12 C 4.9658 0.3727 -1.3848 0
M  V30 13 C 2.7682 0.017 5.7235 0
M  V30 14 C 1.0272 -0.7131 1.6345 0
M  V30 15 F 4.2083 -1.3398 7.0 0
M  V30 16 C 3.9495 1.3289 -1.2843 0
M  V30 17 C 0.1437 -0.2326 0.475 0
M  V30 18 C 3.7985 2.4039 -2.3331 0
M  V30 19 C -1.084 -1.1387 0.3066 0
M  V30 20 F 2.5193 2.8578 -2.4541 0
M  V30 21 F 4.5587 3.5002 -2.0618 0
M  V30 22 F 4.1655 1.9921 -3.5785 0
M  V30 23 N -1.8821 -0.7941 -0.88 0
M  V30 24 C -2.5806 0.4996 -0.7332 0
M  V30 25 C -2.8934 -1.8455 -1.1289 0
M  V30 26 C -3.4958 0.8251 -1.9397 0
M  V30 27 C -3.7952 -1.5236 -2.3406 0
M  V30 28 N -4.4928 -0.2298 -2.1963 0
M  V30 29 C -5.3101 0.0423 -3.3963 0
M  V30 30 C -6.2596 1.2483 -3.2785 0
M  V30 31 O -7.274 1.0096 -2.3074 0
M  V30 32 H 5.0616 -2.2822 4.7542 0
M  V30 33 H 5.9219 -1.3295 -0.4944 0
M  V30 34 H 1.5035 1.1598 4.4235 0
M  V30 35 H 1.8115 1.2541 2.0787 0
M  V30 36 H 2.2917 2.0234 -0.0956 0
M  V30 37 H 5.6509 0.3845 -2.2314 0
M  V30 38 H 2.369 0.4513 6.6347 0
M  V30 39 H 1.3946 -1.7232 1.4112 0
M  V30 40 H 0.3927 -0.809 2.5263 0
M  V30 41 H -0.1671 0.7989 0.6725 0
M  V30 42 H 0.7171 -0.2355 -0.4585 0
M  V30 43 H -0.7195 -2.1689 0.2 0
M  V30 44 H -1.6994 -1.1116 1.2154 0
M  V30 45 H -1.8514 1.3129 -0.6535 0
M  V30 46 H -3.1841 0.5086 0.1845 0
M  V30 47 H -2.3869 -2.7976 -1.329 0
M  V30 48 H -3.5238 -1.9908 -0.2408 0
M  V30 49 H -3.999 1.7721 -1.7171 0
M  V30 50 H -2.8701 0.9866 -2.8278 0
M  V30 51 H -4.534 -2.3287 -2.4348 0
M  V30 52 H -3.1845 -1.5316 -3.2536 0
M  V30 53 H -5.9374 -0.8374 -3.59 0
M  V30 54 H -4.663 0.1825 -4.2712 0
M  V30 55 H -5.7262 2.1673 -3.0203 0
M  V30 56 H -6.7567 1.4096 -4.2409 0
M  V30 57 H -7.7659 1.8397 -2.1975 0
M  V30 END ATOM
M  V30 BEGIN BOND
M  V30 1 1 1 2
M  V30 2 1 1 3
M  V30 3 2 2 4
M  V30 4 1 2 5
M  V30 5 2 3 6
M  V30 6 1 3 7
M  V30 7 1 4 8
M  V30 8 1 4 9
M  V30 9 2 5 10
M  V30 10 1 6 11
M  V30 11 2 7 12
M  V30 12 2 8 13
M  V30 13 1 9 14
M  V30 14 1 10 15
M  V30 15 2 11 16
M  V30 16 1 14 17
M  V30 17 1 16 18
M  V30 18 1 17 19
M  V30 19 1 18 20
M  V30 20 1 18 21
M  V30 21 1 18 22
M  V30 22 1 19 23
M  V30 23 1 23 24
M  V30 24 1 23 25
M  V30 25 1 24 26
M  V30 26 1 25 27
M  V30 27 1 26 28
M  V30 28 1 28 29
M  V30 29 1 29 30
M  V30 30 1 30 31
M  V30 31 1 6 9
M  V30 32 1 10 13
M  V30 33 1 12 16
M  V30 34 1 27 28
M  V30 35 1 5 32
M  V30 36 1 7 33
M  V30 37 1 8 34
M  V30 38 1 9 35
M  V30 39 1 11 36
M  V30 40 1 12 37
M  V30 41 1 13 38
M  V30 42 1 14 39
M  V30 43 1 14 40
M  V30 44 1 17 41
M  V30 45 1 17 42
M  V30 46 1 19 43
M  V30 47 1 19 44
M  V30 48 1 24 45
M  V30 49 1 24 46
M  V30 50 1 25 47
M  V30 51 1 25 48
M  V30 52 1 26 49
M  V30 53 1 26 50
M  V30 54 1 27 51
M  V30 55 1 27 52
M  V30 56 1 29 53
M  V30 57 1 29 54
M  V30 58 1 30 55
M  V30 59 1 30 56
M  V30 60 1 31 57
M  V30 END BOND
M  V30 BEGIN COLLECTION
M  V30 MDLV30/STERAC1 ATOMS=(1 9)
M  V30 END COLLECTION
M  V30 END CTAB
M  END
>  <NO.>
2539

>  <Name>
teflutixol

>  <SMILES>
OCCN1CCN(CCCC2c3ccc(F)cc3Sc3ccc(C(F)(F)F)cc32)CC1

>  <logBB>


>  <Class>
1

>  <MW>
454.17

>  <nHBAcc>
4

>  <nHBDon>
1

>  <SLogP>
4.83

>  <TopoPSA>
26.71

>  <MMFF94 Energy>
156.48

$$$$
OCCN1CCN(CCCN2c3cc(C(F)(F)F)ccc3Sc3sccc32)CC1
Actelion Java MolfileCreator 2.0

  0  0  0  0  0  0              0 V3000
M  V30 BEGIN CTAB
M  V30 COUNTS 53 56 0 0 0
M  V30 BEGIN ATOM
M  V30 1 S -3.2073 0.9038 -4.6901 0
M  V30 2 C -1.9619 -0.3804 -4.62 0
M  V30 3 C -2.9576 1.6286 -3.1235 0
M  V30 4 C -1.1625 -0.6699 -3.4858 0
M  V30 5 C -1.8223 -1.1236 -5.8091 0
M  V30 6 S -3.8238 3.0319 -2.6706 0
M  V30 7 C -2.1036 1.1834 -2.1347 0
M  V30 8 N -1.3003 0.068 -2.2676 0
M  V30 9 C -0.2202 -1.7138 -3.6349 0
M  V30 10 C -0.89 -2.1509 -5.9126 0
M  V30 11 C -3.0688 3.0781 -1.1444 0
M  V30 12 C -2.1758 2.0413 -0.9861 0
M  V30 13 C -0.5447 -0.4075 -1.0828 0
M  V30 14 C -0.069 -2.4495 -4.8279 0
M  V30 15 C 0.8496 0.2297 -1.0268 0
M  V30 16 C 0.944 -3.5647 -4.909 0
M  V30 17 C 1.7101 -0.3549 0.0989 0
M  V30 18 F 2.0756 -3.3049 -4.1951 0
M  V30 19 F 0.459 -4.74 -4.4235 0
M  V30 20 F 1.3589 -3.8252 -6.1796 0
M  V30 21 N 1.1178 -0.2003 1.435 0
M  V30 22 C 1.8378 -1.0418 2.4154 0
M  V30 23 C 1.1668 1.2025 1.9032 0
M  V30 24 C 1.2771 -0.8836 3.846 0
M  V30 25 C 0.6258 1.3745 3.344 0
M  V30 26 N 1.3262 0.5151 4.3207 0
M  V30 27 C 0.7216 0.6087 5.6677 0
M  V30 28 C 0.8432 1.9941 6.3252 0
M  V30 29 O -0.2015 2.8627 5.8931 0
M  V30 30 H -2.4481 -0.8997 -6.6721 0
M  V30 31 H 0.4486 -1.9835 -2.8219 0
M  V30 32 H -0.8063 -2.7078 -6.8442 0
M  V30 33 H -3.3109 3.8582 -0.4359 0
M  V30 34 H -1.6052 1.9261 -0.0749 0
M  V30 35 H -0.4858 -1.5023 -1.0589 0
M  V30 36 H -1.0972 -0.1815 -0.1625 0
M  V30 37 H 0.7668 1.3175 -0.9239 0
M  V30 38 H 1.3764 0.067 -1.9746 0
M  V30 39 H 1.8395 -1.4237 -0.1174 0
M  V30 40 H 2.712 0.0917 0.0611 0
M  V30 41 H 1.7411 -2.0964 2.1299 0
M  V30 42 H 2.9094 -0.8002 2.4185 0
M  V30 43 H 2.1965 1.5833 1.8637 0
M  V30 44 H 0.5602 1.8373 1.2489 0
M  V30 45 H 0.2464 -1.2635 3.8694 0
M  V30 46 H 1.8731 -1.5159 4.5153 0
M  V30 47 H -0.452 1.1636 3.347 0
M  V30 48 H 0.7605 2.4284 3.6095 0
M  V30 49 H 1.2549 -0.0956 6.3184 0
M  V30 50 H -0.3324 0.3039 5.6387 0
M  V30 51 H 0.7517 1.8895 7.4115 0
M  V30 52 H 1.8114 2.4565 6.1054 0
M  V30 53 H -0.0371 3.7255 6.3104 0
M  V30 END ATOM
M  V30 BEGIN BOND
M  V30 1 1 1 2
M  V30 2 1 1 3
M  V30 3 2 2 4
M  V30 4 1 2 5
M  V30 5 1 3 6
M  V30 6 2 3 7
M  V30 7 1 4 8
M  V30 8 1 4 9
M  V30 9 2 5 10
M  V30 10 1 6 11
M  V30 11 1 7 12
M  V30 12 1 8 13
M  V30 13 2 9 14
M  V30 14 1 13 15
M  V30 15 1 14 16
M  V30 16 1 15 17
M  V30 17 1 16 18
M  V30 18 1 16 19
M  V30 19 1 16 20
M  V30 20 1 17 21
M  V30 21 1 21 22
M  V30 22 1 21 23
M  V30 23 1 22 24
M  V30 24 1 23 25
M  V30 25 1 24 26
M  V30 26 1 26 27
M  V30 27 1 27 28
M  V30 28 1 28 29
M  V30 29 1 7 8
M  V30 30 1 10 14
M  V30 31 2 11 12
M  V30 32 1 25 26
M  V30 33 1 5 30
M  V30 34 1 9 31
M  V30 35 1 10 32
M  V30 36 1 11 33
M  V30 37 1 12 34
M  V30 38 1 13 35
M  V30 39 1 13 36
M  V30 40 1 15 37
M  V30 41 1 15 38
M  V30 42 1 17 39
M  V30 43 1 17 40
M  V30 44 1 22 41
M  V30 45 1 22 42
M  V30 46 1 23 43
M  V30 47 1 23 44
M  V30 48 1 24 45
M  V30 49 1 24 46
M  V30 50 1 25 47
M  V30 51 1 25 48
M  V30 52 1 27 49
M  V30 53 1 27 50
M  V30 54 1 28 51
M  V30 55 1 28 52
M  V30 56 1 29 53
M  V30 END BOND
M  V30 END CTAB
M  END
>  <NO.>
2540

>  <Name>
flutizenol

>  <SMILES>
OCCN1CCN(CCCN2c3cc(C(F)(F)F)ccc3Sc3sccc32)CC1

>  <logBB>


>  <Class>
1

>  <MW>
443.13

>  <nHBAcc>
6

>  <nHBDon>
1

>  <SLogP>
4.37

>  <TopoPSA>
29.95

>  <MMFF94 Energy>
155.04

$$$$
OCCN1CCN(CCCN2c3ccccc3C=Cc3ccccc32)CC1
Actelion Java MolfileCreator 2.0

  0  0  0  0  0  0              0 V3000
M  V30 BEGIN CTAB
M  V30 COUNTS 56 59 0 0 0
M  V30 BEGIN ATOM
M  V30 1 O -0.2382 -5.093 -3.5789 0
M  V30 2 C -1.6363 -5.2942 -3.3861 0
M  V30 3 C -2.0746 -4.8423 -1.9824 0
M  V30 4 N -2.3753 -3.3981 -1.8728 0
M  V30 5 C -2.9251 -3.1013 -0.533 0
M  V30 6 C -1.1684 -2.5697 -2.082 0
M  V30 7 C -3.2104 -1.5966 -0.3339 0
M  V30 8 C -1.4336 -1.0599 -1.8584 0
M  V30 9 N -2.0036 -0.7657 -0.5262 0
M  V30 10 C -2.3336 0.6573 -0.3613 0
M  V30 11 C -1.1182 1.5928 -0.3439 0
M  V30 12 C -0.1078 1.2176 0.744 0
M  V30 13 N 0.9513 2.2455 0.8681 0
M  V30 14 C 0.89 2.9684 2.082 0
M  V30 15 C 2.148 1.9137 0.1918 0
M  V30 16 C 1.6929 2.673 3.2003 0
M  V30 17 C -0.0265 4.0346 2.1683 0
M  V30 18 C 3.2636 1.3403 0.8316 0
M  V30 19 C 2.2243 2.1794 -1.189 0
M  V30 20 C 2.618 1.5316 3.2637 0
M  V30 21 C 1.549 3.4436 4.3699 0
M  V30 22 C -0.1509 4.7959 3.3304 0
M  V30 23 C 3.2866 0.9603 2.2521 0
M  V30 24 C 4.4059 1.0273 0.0702 0
M  V30 25 C 3.3667 1.8742 -1.9289 0
M  V30 26 C 0.6389 4.4998 4.4334 0
M  V30 27 C 4.4591 1.2946 -1.2981 0
M  V30 28 H -0.0456 -5.335 -4.5006 0
M  V30 29 H -1.8296 -6.3662 -3.4993 0
M  V30 30 H -2.1894 -4.7618 -4.1673 0
M  V30 31 H -2.9972 -5.3895 -1.7506 0
M  V30 32 H -1.3177 -5.1363 -1.2439 0
M  V30 33 H -3.8681 -3.6452 -0.3981 0
M  V30 34 H -2.2362 -3.4419 0.2521 0
M  V30 35 H -0.3591 -2.8915 -1.4127 0
M  V30 36 H -0.8134 -2.6806 -3.112 0
M  V30 37 H -4.0064 -1.2868 -1.0249 0
M  V30 38 H -3.5903 -1.4565 0.6855 0
M  V30 39 H -2.1048 -0.6968 -2.6487 0
M  V30 40 H -0.476 -0.5416 -1.9787 0
M  V30 41 H -2.8602 0.792 0.5928 0
M  V30 42 H -3.0258 0.9875 -1.147 0
M  V30 43 H -1.4796 2.6146 -0.1775 0
M  V30 44 H -0.6391 1.6032 -1.3278 0
M  V30 45 H -0.6409 1.0944 1.6976 0
M  V30 46 H 0.334 0.2351 0.5293 0
M  V30 47 H -0.6363 4.2868 1.305 0
M  V30 48 H 1.3857 2.6553 -1.6898 0
M  V30 49 H 2.7753 1.1227 4.2598 0
M  V30 50 H 2.1536 3.2256 5.2478 0
M  V30 51 H -0.8586 5.6194 3.368 0
M  V30 52 H 3.9423 0.1263 2.4941 0
M  V30 53 H 5.2732 0.5729 0.5445 0
M  V30 54 H 3.4012 2.0959 -2.9918 0
M  V30 55 H 0.5496 5.0872 5.3433 0
M  V30 56 H 5.3534 1.0526 -1.8656 0
M  V30 END ATOM
M  V30 BEGIN BOND
M  V30 1 1 1 2
M  V30 2 1 2 3
M  V30 3 1 3 4
M  V30 4 1 4 5
M  V30 5 1 4 6
M  V30 6 1 5 7
M  V30 7 1 6 8
M  V30 8 1 7 9
M  V30 9 1 9 10
M  V30 10 1 10 11
M  V30 11 1 11 12
M  V30 12 1 12 13
M  V30 13 1 13 14
M  V30 14 1 13 15
M  V30 15 2 14 16
M  V30 16 1 14 17
M  V30 17 2 15 18
M  V30 18 1 15 19
M  V30 19 1 16 20
M  V30 20 1 16 21
M  V30 21 2 17 22
M  V30 22 1 18 23
M  V30 23 1 18 24
M  V30 24 2 19 25
M  V30 25 2 21 26
M  V30 26 2 24 27
M  V30 27 1 8 9
M  V30 28 2 20 23
M  V30 29 1 22 26
M  V30 30 1 25 27
M  V30 31 1 1 28
M  V30 32 1 2 29
M  V30 33 1 2 30
M  V30 34 1 3 31
M  V30 35 1 3 32
M  V30 36 1 5 33
M  V30 37 1 5 34
M  V30 38 1 6 35
M  V30 39 1 6 36
M  V30 40 1 7 37
M  V30 41 1 7 38
M  V30 42 1 8 39
M  V30 43 1 8 40
M  V30 44 1 10 41
M  V30 45 1 10 42
M  V30 46 1 11 43
M  V30 47 1 11 44
M  V30 48 1 12 45
M  V30 49 1 12 46
M  V30 50 1 17 47
M  V30 51 1 19 48
M  V30 52 1 20 49
M  V30 53 1 21 50
M  V30 54 1 22 51
M  V30 55 1 23 52
M  V30 56 1 24 53
M  V30 57 1 25 54
M  V30 58 1 26 55
M  V30 59 1 27 56
M  V30 END BOND
M  V30 END CTAB
M  END
>  <NO.>
2541

>  <Name>
opipramol

>  <SMILES>
OCCN1CCN(CCCN2c3ccccc3C=Cc3ccccc32)CC1

>  <logBB>


>  <Class>
1

>  <MW>
363.23

>  <nHBAcc>
4

>  <nHBDon>
1

>  <SLogP>
3.31

>  <TopoPSA>
29.95

>  <MMFF94 Energy>
167.01

$$$$
OCCN1CCN(CCCN2c3ccccc3Sc3cc(Cl)cnc32)CC1
Actelion Java MolfileCreator 2.0

  0  0  0  0  0  0              0 V3000
M  V30 BEGIN CTAB
M  V30 COUNTS 52 55 0 0 0
M  V30 BEGIN ATOM
M  V30 1 Cl -1.4633 -2.5211 -6.7608 0
M  V30 2 C -1.9292 -1.9367 -5.2177 0
M  V30 3 C -1.2202 -2.2711 -4.0848 0
M  V30 4 C -3.0323 -1.1132 -5.071 0
M  V30 5 N -1.545 -1.8394 -2.843 0
M  V30 6 C -3.393 -0.6454 -3.7964 0
M  V30 7 C -2.6288 -1.0258 -2.6818 0
M  V30 8 S -4.8246 0.3971 -3.7129 0
M  V30 9 N -2.9562 -0.5781 -1.3742 0
M  V30 10 C -4.8516 0.8723 -1.9967 0
M  V30 11 C -3.9512 0.3691 -1.0336 0
M  V30 12 C -2.1132 -1.1713 -0.3158 0
M  V30 13 C -5.8477 1.8041 -1.6436 0
M  V30 14 C -4.0968 0.8718 0.2784 0
M  V30 15 C -0.858 -0.3274 -0.0596 0
M  V30 16 C -5.9664 2.2657 -0.338 0
M  V30 17 C -5.0857 1.8013 0.6238 0
M  V30 18 C 0.0361 -1.0017 0.9868 0
M  V30 19 N 1.1677 -0.16 1.409 0
M  V30 20 C 1.8608 -0.7804 2.5582 0
M  V30 21 C 2.1476 0.047 0.3218 0
M  V30 22 C 3.0939 0.03 3.0215 0
M  V30 23 C 3.3842 0.8518 0.7863 0
M  V30 24 N 4.075 0.2265 1.9351 0
M  V30 25 C 5.2046 1.0731 2.3592 0
M  V30 26 C 6.1426 0.3957 3.3675 0
M  V30 27 O 7.2502 1.2518 3.6399 0
M  V30 28 H -0.3456 -2.9129 -4.1327 0
M  V30 29 H -3.6143 -0.8313 -5.9449 0
M  V30 30 H -2.6822 -1.3049 0.6124 0
M  V30 31 H -1.8256 -2.2028 -0.5615 0
M  V30 32 H -6.5394 2.1805 -2.3949 0
M  V30 33 H -3.4316 0.5685 1.0807 0
M  V30 34 H -1.141 0.6747 0.2833 0
M  V30 35 H -0.3097 -0.1946 -0.9985 0
M  V30 36 H -6.7364 2.987 -0.0787 0
M  V30 37 H -5.1572 2.1604 1.6477 0
M  V30 38 H -0.5855 -1.2131 1.8669 0
M  V30 39 H 0.3893 -1.9694 0.6072 0
M  V30 40 H 1.1674 -0.8524 3.4052 0
M  V30 41 H 2.1787 -1.802 2.3089 0
M  V30 42 H 2.4801 -0.9174 -0.0849 0
M  V30 43 H 1.6866 0.6085 -0.4978 0
M  V30 44 H 2.7582 0.9974 3.4191 0
M  V30 45 H 3.5558 -0.5213 3.8476 0
M  V30 46 H 3.07 1.8744 1.0374 0
M  V30 47 H 4.0778 0.9224 -0.0604 0
M  V30 48 H 4.8565 2.0318 2.7671 0
M  V30 49 H 5.8137 1.332 1.4824 0
M  V30 50 H 5.636 0.1954 4.3159 0
M  V30 51 H 6.5276 -0.5459 2.9626 0
M  V30 52 H 7.8415 0.7628 4.2374 0
M  V30 END ATOM
M  V30 BEGIN BOND
M  V30 1 1 1 2
M  V30 2 2 2 3
M  V30 3 1 2 4
M  V30 4 1 3 5
M  V30 5 2 4 6
M  V30 6 2 5 7
M  V30 7 1 6 8
M  V30 8 1 7 9
M  V30 9 1 8 10
M  V30 10 1 9 11
M  V30 11 1 9 12
M  V30 12 1 10 13
M  V30 13 1 11 14
M  V30 14 1 12 15
M  V30 15 2 13 16
M  V30 16 2 14 17
M  V30 17 1 15 18
M  V30 18 1 18 19
M  V30 19 1 19 20
M  V30 20 1 19 21
M  V30 21 1 20 22
M  V30 22 1 21 23
M  V30 23 1 22 24
M  V30 24 1 24 25
M  V30 25 1 25 26
M  V30 26 1 26 27
M  V30 27 1 6 7
M  V30 28 2 10 11
M  V30 29 1 16 17
M  V30 30 1 23 24
M  V30 31 1 3 28
M  V30 32 1 4 29
M  V30 33 1 12 30
M  V30 34 1 12 31
M  V30 35 1 13 32
M  V30 36 1 14 33
M  V30 37 1 15 34
M  V30 38 1 15 35
M  V30 39 1 16 36
M  V30 40 1 17 37
M  V30 41 1 18 38
M  V30 42 1 18 39
M  V30 43 1 20 40
M  V30 44 1 20 41
M  V30 45 1 21 42
M  V30 46 1 21 43
M  V30 47 1 22 44
M  V30 48 1 22 45
M  V30 49 1 23 46
M  V30 50 1 23 47
M  V30 51 1 25 48
M  V30 52 1 25 49
M  V30 53 1 26 50
M  V30 54 1 26 51
M  V30 55 1 27 52
M  V30 END BOND
M  V30 END CTAB
M  END
>  <NO.>
2542

>  <Name>
cloxypendyl

>  <SMILES>
OCCN1CCN(CCCN2c3ccccc3Sc3cc(Cl)cnc32)CC1

>  <logBB>


>  <Class>
1

>  <MW>
404.14

>  <nHBAcc>
6

>  <nHBDon>
1

>  <SLogP>
3.34

>  <TopoPSA>
42.84

>  <MMFF94 Energy>
140

$$$$
OCCN1CCN([C@@H]2C[C@@H](c3ccc(F)cc3)c3ccc(C(F)(F)F)cc32)CC1
Actelion Java MolfileCreator 2.0

  0  0  0  0  0  0              0 V3000
M  V30 BEGIN CTAB
M  V30 COUNTS 53 56 0 0 0
M  V30 BEGIN ATOM
M  V30 1 F 2.7493 -5.5044 4.4503 0
M  V30 2 C 2.0294 -4.4687 3.9996 0
M  V30 3 C 0.6507 -4.4716 4.1602 0
M  V30 4 C 2.6716 -3.408 3.3753 0
M  V30 5 C -0.0989 -3.3919 3.6897 0
M  V30 6 C 1.9228 -2.3273 2.9035 0
M  V30 7 C 0.5259 -2.2993 3.06 0
M  V30 8 C -0.3426 -1.1633 2.549 0 CFG=1
M  V30 9 C 0.328 0.1814 2.4095 0
M  V30 10 C -0.831 -1.395 1.1039 0
M  V30 11 C 0.6055 0.4825 1.066 0
M  V30 12 C 0.6851 1.0443 3.4359 0
M  V30 13 C 0.1669 -0.657 0.175 0 CFG=2
M  V30 14 C 1.2854 1.6501 0.7454 0
M  V30 15 C 1.3418 2.2311 3.1093 0
M  V30 16 N -0.4341 -0.3793 -1.1322 0
M  V30 17 C 1.6435 2.5479 1.7682 0
M  V30 18 C -1.3906 0.7384 -1.1847 0
M  V30 19 C 0.5548 -0.2543 -2.2129 0
M  V30 20 C 2.3874 3.8186 1.434 0
M  V30 21 C -2.0487 0.887 -2.5794 0
M  V30 22 C -0.1147 -0.1111 -3.5987 0
M  V30 23 F 3.7336 3.6256 1.3627 0
M  V30 24 F 2.0224 4.3528 0.235 0
M  V30 25 F 2.2004 4.8087 2.3518 0
M  V30 26 N -1.0526 1.0297 -3.6632 0
M  V30 27 C -1.6941 1.076 -4.9951 0
M  V30 28 C -2.5828 2.3096 -5.2293 0
M  V30 29 O -3.8974 2.1012 -4.7184 0
M  V30 30 H 0.1682 -5.3125 4.6476 0
M  V30 31 H 3.7503 -3.4271 3.2579 0
M  V30 32 H -1.18 -3.408 3.8162 0
M  V30 33 H 2.4484 -1.5095 2.4154 0
M  V30 34 H -1.2111 -1.0511 3.2116 0
M  V30 35 H -0.9265 -2.4542 0.8373 0
M  V30 36 H -1.8364 -0.9611 1.0183 0
M  V30 37 H 0.4708 0.7985 4.4721 0
M  V30 38 H 1.0317 -1.3226 0.0449 0
M  V30 39 H 1.5368 1.8802 -0.286 0
M  V30 40 H 1.6301 2.9142 3.9077 0
M  V30 41 H -0.9014 1.6891 -0.9429 0
M  V30 42 H -2.1949 0.5944 -0.4558 0
M  V30 43 H 1.1872 -1.15 -2.2413 0
M  V30 44 H 1.2157 0.6036 -2.0501 0
M  V30 45 H -2.6982 0.0206 -2.7629 0
M  V30 46 H -2.6847 1.7775 -2.5365 0
M  V30 47 H -0.6326 -1.0489 -3.8423 0
M  V30 48 H 0.6777 0.026 -4.3444 0
M  V30 49 H -2.273 0.1615 -5.1765 0
M  V30 50 H -0.8941 1.119 -5.7449 0
M  V30 51 H -2.153 3.2048 -4.767 0
M  V30 52 H -2.6767 2.4908 -6.3051 0
M  V30 53 H -4.3791 2.9371 -4.8391 0
M  V30 END ATOM
M  V30 BEGIN BOND
M  V30 1 1 1 2
M  V30 2 2 2 3
M  V30 3 1 2 4
M  V30 4 1 3 5
M  V30 5 2 4 6
M  V30 6 2 5 7
M  V30 7 1 7 8
M  V30 8 1 8 9
M  V30 9 1 8 10
M  V30 10 2 9 11
M  V30 11 1 9 12
M  V30 12 1 10 13
M  V30 13 1 11 14
M  V30 14 2 12 15
M  V30 15 1 13 16
M  V30 16 2 14 17
M  V30 17 1 16 18
M  V30 18 1 16 19
M  V30 19 1 17 20
M  V30 20 1 18 21
M  V30 21 1 19 22
M  V30 22 1 20 23
M  V30 23 1 20 24
M  V30 24 1 20 25
M  V30 25 1 21 26
M  V30 26 1 26 27
M  V30 27 1 27 28
M  V30 28 1 28 29
M  V30 29 1 6 7
M  V30 30 1 11 13
M  V30 31 1 15 17
M  V30 32 1 22 26
M  V30 33 1 3 30
M  V30 34 1 4 31
M  V30 35 1 5 32
M  V30 36 1 6 33
M  V30 37 1 8 34
M  V30 38 1 10 35
M  V30 39 1 10 36
M  V30 40 1 12 37
M  V30 41 1 13 38
M  V30 42 1 14 39
M  V30 43 1 15 40
M  V30 44 1 18 41
M  V30 45 1 18 42
M  V30 46 1 19 43
M  V30 47 1 19 44
M  V30 48 1 21 45
M  V30 49 1 21 46
M  V30 50 1 22 47
M  V30 51 1 22 48
M  V30 52 1 27 49
M  V30 53 1 27 50
M  V30 54 1 28 51
M  V30 55 1 28 52
M  V30 56 1 29 53
M  V30 END BOND
M  V30 BEGIN COLLECTION
M  V30 MDLV30/STEABS ATOMS=(2 8 13)
M  V30 END COLLECTION
M  V30 END CTAB
M  END
>  <NO.>
2543

>  <Name>
tefludazine

>  <SMILES>
OCCN1CCN([C@@H]2C[C@@H](c3ccc(F)cc3)c3ccc(C(F)(F)F)cc32)CC1

>  <logBB>


>  <Class>
1

>  <MW>
408.18

>  <nHBAcc>
3

>  <nHBDon>
1

>  <SLogP>
4.03

>  <TopoPSA>
26.71

>  <MMFF94 Energy>
167.4

$$$$
OCCOCCOCCN1CCN(C(c2ccccc2)c2ccc(Cl)cc2)CC1
Actelion Java MolfileCreator 2.0

  0  0  0  0  0  0              0 V3000
M  V30 BEGIN CTAB
M  V30 COUNTS 60 62 0 0 0
M  V30 BEGIN ATOM
M  V30 1 Cl -6.3931 -5.112 -2.3139 0
M  V30 2 C -5.1318 -4.312 -1.4593 0
M  V30 3 C -5.1722 -2.9297 -1.3 0
M  V30 4 C -4.0771 -5.0524 -0.9309 0
M  V30 5 C -4.1473 -2.2819 -0.6066 0
M  V30 6 C -3.0512 -4.4046 -0.2377 0
M  V30 7 C -3.0681 -3.0084 -0.0711 0
M  V30 8 C -1.9414 -2.3181 0.7138 0 CFG=1
M  V30 9 N -1.4128 -1.0927 0.0426 0
M  V30 10 C -2.4056 -2.0811 2.1577 0
M  V30 11 C -0.9171 -1.3953 -1.3235 0
M  V30 12 C -0.304 -0.4846 0.8204 0
M  V30 13 C -2.0223 -2.9757 3.172 0
M  V30 14 C -3.239 -1.0015 2.4993 0
M  V30 15 C -0.2665 -0.1736 -2.0168 0
M  V30 16 C 0.3333 0.7326 0.1086 0
M  V30 17 C -2.45 -2.7878 4.4881 0
M  V30 18 C -3.6647 -0.8153 3.8156 0
M  V30 19 N 0.8248 0.4596 -1.2525 0
M  V30 20 C -3.2696 -1.7079 4.8091 0
M  V30 21 C 2.0566 -0.3526 -1.2944 0
M  V30 22 C 3.3115 0.3039 -0.6835 0
M  V30 23 O 3.6565 1.49 -1.3987 0
M  V30 24 C 4.8356 2.1067 -0.8707 0
M  V30 25 C 5.058 3.4494 -1.5642 0
M  V30 26 O 4.1929 4.4304 -0.9829 0
M  V30 27 C 4.2359 5.6662 -1.7029 0
M  V30 28 C 3.3863 6.7011 -0.9702 0
M  V30 29 O 4.0932 7.2047 0.1637 0
M  V30 30 H -5.9949 -2.35 -1.7092 0
M  V30 31 H -4.0494 -6.1319 -1.0507 0
M  V30 32 H -4.1856 -1.2006 -0.4907 0
M  V30 33 H -2.2398 -4.9985 0.1768 0
M  V30 34 H -1.101 -3.0271 0.7593 0
M  V30 35 H -1.7436 -1.7153 -1.9668 0
M  V30 36 H -0.1955 -2.2219 -1.2942 0
M  V30 37 H 0.4728 -1.2311 1.0302 0
M  V30 38 H -0.6699 -0.1225 1.7869 0
M  V30 39 H -1.3896 -3.8296 2.9426 0
M  V30 40 H -3.5512 -0.2922 1.7359 0
M  V30 41 H 0.0853 -0.4625 -3.0148 0
M  V30 42 H -1.0436 0.5829 -2.191 0
M  V30 43 H 1.1229 1.1551 0.7382 0
M  V30 44 H -0.4236 1.5264 0.0401 0
M  V30 45 H -2.1468 -3.487 5.2631 0
M  V30 46 H -4.3057 0.0266 4.0635 0
M  V30 47 H -3.6036 -1.5634 5.8331 0
M  V30 48 H 2.2908 -0.5492 -2.3488 0
M  V30 49 H 1.9072 -1.325 -0.812 0
M  V30 50 H 3.1638 0.5327 0.3768 0
M  V30 51 H 4.1447 -0.4051 -0.76 0
M  V30 52 H 5.6853 1.4448 -1.0695 0
M  V30 53 H 4.7242 2.2512 0.2099 0
M  V30 54 H 6.093 3.7742 -1.4128 0
M  V30 55 H 4.8503 3.3631 -2.6367 0
M  V30 56 H 3.8256 5.4982 -2.7044 0
M  V30 57 H 5.2738 6.0089 -1.7789 0
M  V30 58 H 3.1708 7.5497 -1.6259 0
M  V30 59 H 2.4476 6.2582 -0.6219 0
M  V30 60 H 3.4366 7.6443 0.7296 0
M  V30 END ATOM
M  V30 BEGIN BOND
M  V30 1 1 1 2
M  V30 2 2 2 3
M  V30 3 1 2 4
M  V30 4 1 3 5
M  V30 5 2 4 6
M  V30 6 2 5 7
M  V30 7 1 7 8
M  V30 8 1 8 9
M  V30 9 1 8 10
M  V30 10 1 9 11
M  V30 11 1 9 12
M  V30 12 2 10 13
M  V30 13 1 10 14
M  V30 14 1 11 15
M  V30 15 1 12 16
M  V30 16 1 13 17
M  V30 17 2 14 18
M  V30 18 1 15 19
M  V30 19 2 17 20
M  V30 20 1 19 21
M  V30 21 1 21 22
M  V30 22 1 22 23
M  V30 23 1 23 24
M  V30 24 1 24 25
M  V30 25 1 25 26
M  V30 26 1 26 27
M  V30 27 1 27 28
M  V30 28 1 28 29
M  V30 29 1 6 7
M  V30 30 1 16 19
M  V30 31 1 18 20
M  V30 32 1 3 30
M  V30 33 1 4 31
M  V30 34 1 5 32
M  V30 35 1 6 33
M  V30 36 1 8 34
M  V30 37 1 11 35
M  V30 38 1 11 36
M  V30 39 1 12 37
M  V30 40 1 12 38
M  V30 41 1 13 39
M  V30 42 1 14 40
M  V30 43 1 15 41
M  V30 44 1 15 42
M  V30 45 1 16 43
M  V30 46 1 16 44
M  V30 47 1 17 45
M  V30 48 1 18 46
M  V30 49 1 20 47
M  V30 50 1 21 48
M  V30 51 1 21 49
M  V30 52 1 22 50
M  V30 53 1 22 51
M  V30 54 1 24 52
M  V30 55 1 24 53
M  V30 56 1 25 54
M  V30 57 1 25 55
M  V30 58 1 27 56
M  V30 59 1 27 57
M  V30 60 1 28 58
M  V30 61 1 28 59
M  V30 62 1 29 60
M  V30 END BOND
M  V30 BEGIN COLLECTION
M  V30 MDLV30/STERAC1 ATOMS=(1 8)
M  V30 END COLLECTION
M  V30 END CTAB
M  END
>  <NO.>
2545

>  <Name>
etodroxizine

>  <SMILES>
OCCOCCOCCN1CCN(C(c2ccccc2)c2ccc(Cl)cc2)CC1

>  <logBB>


>  <Class>
1

>  <MW>
418.2

>  <nHBAcc>
5

>  <nHBDon>
1

>  <SLogP>
3.07

>  <TopoPSA>
45.17

>  <MMFF94 Energy>
186.52

$$$$
OCc1ccccc1
Actelion Java MolfileCreator 2.0

  0  0  0  0  0  0              0 V3000
M  V30 BEGIN CTAB
M  V30 COUNTS 16 16 0 0 0
M  V30 BEGIN ATOM
M  V30 1 O -2.4132 -1.0114 -0.9336 0
M  V30 2 C -1.7227 0.2316 -0.9248 0
M  V30 3 C -0.4027 0.1185 -0.2084 0
M  V30 4 C 0.1419 1.2415 0.4328 0
M  V30 5 C 0.3364 -1.0728 -0.2179 0
M  V30 6 C 1.3834 1.1667 1.0681 0
M  V30 7 C 1.5774 -1.1475 0.4176 0
M  V30 8 C 2.0999 -0.028 1.0616 0
M  V30 9 H -3.2614 -0.854 -1.3796 0
M  V30 10 H -2.3651 0.9655 -0.4265 0
M  V30 11 H -1.5516 0.5466 -1.9593 0
M  V30 12 H -0.4 2.1844 0.4437 0
M  V30 13 H -0.0596 -1.9543 -0.7185 0
M  V30 14 H 1.7918 2.0415 1.5672 0
M  V30 15 H 2.134 -2.0807 0.4088 0
M  V30 16 H 3.0653 -0.0871 1.5567 0
M  V30 END ATOM
M  V30 BEGIN BOND
M  V30 1 1 1 2
M  V30 2 1 2 3
M  V30 3 2 3 4
M  V30 4 1 3 5
M  V30 5 1 4 6
M  V30 6 2 5 7
M  V30 7 2 6 8
M  V30 8 1 7 8
M  V30 9 1 1 9
M  V30 10 1 2 10
M  V30 11 1 2 11
M  V30 12 1 4 12
M  V30 13 1 5 13
M  V30 14 1 6 14
M  V30 15 1 7 15
M  V30 16 1 8 16
M  V30 END BOND
M  V30 END CTAB
M  END
>  <NO.>
2548

>  <Name>
benzyl alcohol

>  <SMILES>
OCc1ccccc1

>  <logBB>


>  <Class>
1

>  <MW>
108.06

>  <nHBAcc>
1

>  <nHBDon>
1

>  <SLogP>
1.18

>  <TopoPSA>
20.23

>  <MMFF94 Energy>
19.915

$$$$
OCc1cccnc1
Actelion Java MolfileCreator 2.0

  0  0  0  0  0  0              0 V3000
M  V30 BEGIN CTAB
M  V30 COUNTS 15 15 0 0 0
M  V30 BEGIN ATOM
M  V30 1 O 0.1558 -2.7294 0.0 0
M  V30 2 C -0.5312 -1.6602 0.6351 0
M  V30 3 C -0.053 -0.3336 0.1261 0
M  V30 4 C 1.2562 -0.1364 -0.3013 0
M  V30 5 C -0.8963 0.7821 0.1276 0
M  V30 6 N 1.7516 1.0517 -0.7231 0
M  V30 7 C -0.4176 2.0153 -0.3069 0
M  V30 8 C 0.9009 2.0984 -0.7197 0
M  V30 9 H -0.2268 -3.5534 0.345 0
M  V30 10 H -0.3604 -1.7239 1.7146 0
M  V30 11 H -1.6003 -1.7835 0.4326 0
M  V30 12 H 1.9702 -0.9565 -0.3174 0
M  V30 13 H -1.9264 0.6976 0.464 0
M  V30 14 H -1.0563 2.891 -0.3206 0
M  V30 15 H 1.3215 3.0375 -1.0669 0
M  V30 END ATOM
M  V30 BEGIN BOND
M  V30 1 1 1 2
M  V30 2 1 2 3
M  V30 3 2 3 4
M  V30 4 1 3 5
M  V30 5 1 4 6
M  V30 6 2 5 7
M  V30 7 2 6 8
M  V30 8 1 7 8
M  V30 9 1 1 9
M  V30 10 1 2 10
M  V30 11 1 2 11
M  V30 12 1 4 12
M  V30 13 1 5 13
M  V30 14 1 7 14
M  V30 15 1 8 15
M  V30 END BOND
M  V30 END CTAB
M  END
>  <NO.>
2550

>  <Name>
nicotinyl alcohol

>  <SMILES>
OCc1cccnc1

>  <logBB>


>  <Class>
-1

>  <MW>
109.05

>  <nHBAcc>
2

>  <nHBDon>
1

>  <SLogP>
0.57

>  <TopoPSA>
33.12

>  <MMFF94 Energy>
16.919

$$$$
ON1CC(=NCC2CC2)N=c2ccc(Cl)cc2=C1c1ccccc1
Actelion Java MolfileCreator 2.0

  0  0  0  0  0  0              0 V3000
M  V30 BEGIN CTAB
M  V30 COUNTS 42 45 0 0 0
M  V30 BEGIN ATOM
M  V30 1 Cl -5.1066 -0.4855 0.4045 0
M  V30 2 C -3.575 -0.5438 -0.3848 0
M  V30 3 C -2.4544 -0.781 0.3093 0
M  V30 4 C -3.5433 -0.3629 -1.8102 0
M  V30 5 C -1.1327 -0.8629 -0.3358 0
M  V30 6 C -2.3871 -0.2587 -2.4746 0
M  V30 7 C -0.0517 -1.4248 0.2747 0
M  V30 8 C -1.0705 -0.3214 -1.7643 0
M  V30 9 N 1.2372 -1.6163 -0.227 0
M  V30 10 C -0.2176 -1.9214 1.6719 0
M  V30 11 N -0.0753 0.1389 -2.4557 0
M  V30 12 O 2.1222 -2.5037 0.4023 0
M  V30 13 C 1.7568 -1.1735 -1.5153 0
M  V30 14 C -0.6293 -3.2387 1.9179 0
M  V30 15 C 0.0493 -1.0688 2.754 0
M  V30 16 C 1.1582 0.1661 -1.8734 0
M  V30 17 C -0.7835 -3.6923 3.2287 0
M  V30 18 C -0.1067 -1.5262 4.0632 0
M  V30 19 N 1.7968 1.2631 -1.6459 0
M  V30 20 C -0.5246 -2.8359 4.2992 0
M  V30 21 C 1.1278 2.4997 -2.0373 0
M  V30 22 C 2.039 3.6221 -1.642 0
M  V30 23 C 1.481 4.9874 -1.3295 0
M  V30 24 C 2.049 4.1384 -0.2253 0
M  V30 25 H -2.5314 -0.9379 1.381 0
M  V30 26 H -4.4858 -0.2881 -2.3446 0
M  V30 27 H -2.359 -0.0742 -3.5428 0
M  V30 28 H 2.3474 -2.0467 1.2356 0
M  V30 29 H 1.5104 -1.9072 -2.2906 0
M  V30 30 H 2.8474 -1.0713 -1.4735 0
M  V30 31 H -0.8195 -3.9149 1.0877 0
M  V30 32 H 0.3778 -0.0466 2.5777 0
M  V30 33 H -1.1008 -4.7153 3.4147 0
M  V30 34 H 0.0983 -0.8622 4.8993 0
M  V30 35 H -0.6442 -3.1921 5.3196 0
M  V30 36 H 0.1577 2.6012 -1.5353 0
M  V30 37 H 0.974 2.537 -3.1221 0
M  V30 38 H 2.9865 3.5739 -2.1673 0
M  V30 39 H 0.4068 5.1299 -1.3568 0
M  V30 40 H 2.0518 5.8516 -1.6496 0
M  V30 41 H 1.3626 3.6942 0.4863 0
M  V30 42 H 3.006 4.4203 0.1981 0
M  V30 END ATOM
M  V30 BEGIN BOND
M  V30 1 1 1 2
M  V30 2 2 2 3
M  V30 3 1 2 4
M  V30 4 1 3 5
M  V30 5 2 4 6
M  V30 6 2 5 7
M  V30 7 1 5 8
M  V30 8 1 7 9
M  V30 9 1 7 10
M  V30 10 2 8 11
M  V30 11 1 9 12
M  V30 12 1 9 13
M  V30 13 2 10 14
M  V30 14 1 10 15
M  V30 15 1 11 16
M  V30 16 1 14 17
M  V30 17 2 15 18
M  V30 18 2 16 19
M  V30 19 2 17 20
M  V30 20 1 19 21
M  V30 21 1 21 22
M  V30 22 1 22 23
M  V30 23 1 22 24
M  V30 24 1 6 8
M  V30 25 1 13 16
M  V30 26 1 18 20
M  V30 27 1 23 24
M  V30 28 1 3 25
M  V30 29 1 4 26
M  V30 30 1 6 27
M  V30 31 1 12 28
M  V30 32 1 13 29
M  V30 33 1 13 30
M  V30 34 1 14 31
M  V30 35 1 15 32
M  V30 36 1 17 33
M  V30 37 1 18 34
M  V30 38 1 20 35
M  V30 39 1 21 36
M  V30 40 1 21 37
M  V30 41 1 22 38
M  V30 42 1 23 39
M  V30 43 1 23 40
M  V30 44 1 24 41
M  V30 45 1 24 42
M  V30 END BOND
M  V30 END CTAB
M  END
>  <NO.>
2551

>  <Name>
cyprazepam

>  <SMILES>
ON1CC(=NCC2CC2)N=c2ccc(Cl)cc2=C1c1ccccc1

>  <logBB>


>  <Class>
1

>  <MW>
339.11

>  <nHBAcc>
3

>  <nHBDon>
1

>  <SLogP>
2.63

>  <TopoPSA>
48.19

>  <MMFF94 Energy>
127.4

$$$$
Oc1ccc2[nH]cc(CCCCN3CC=C(c4ccccc4)CC3)c2c1
Actelion Java MolfileCreator 2.0

  0  0  0  0  0  0              0 V3000
M  V30 BEGIN CTAB
M  V30 COUNTS 52 55 0 0 0
M  V30 BEGIN ATOM
M  V30 1 O 3.8121 3.6531 -0.1586 0
M  V30 2 C 3.3873 3.3964 1.1142 0
M  V30 3 C 3.2834 2.0859 1.5866 0
M  V30 4 C 3.0647 4.4849 1.9132 0
M  V30 5 C 2.8366 1.8713 2.9086 0
M  V30 6 C 2.6185 4.2977 3.2238 0
M  V30 7 C 2.5143 2.9816 3.6912 0
M  V30 8 C 2.6116 0.7026 3.7084 0
M  V30 9 N 2.1073 2.509 4.9163 0
M  V30 10 C 2.1651 1.1423 4.9401 0
M  V30 11 C 2.8254 -0.7231 3.3078 0
M  V30 12 C 1.536 -1.4538 2.9219 0
M  V30 13 C 0.9462 -0.9712 1.5911 0
M  V30 14 C -0.292 -1.7948 1.2095 0
M  V30 15 N -0.9523 -1.3125 -0.0134 0
M  V30 16 C -0.1051 -1.4754 -1.2056 0
M  V30 17 C -2.242 -1.9949 -0.2059 0
M  V30 18 C -0.8298 -1.2875 -2.511 0
M  V30 19 C -3.0221 -1.3789 -1.3795 0
M  V30 20 C -2.1706 -1.2352 -2.6168 0
M  V30 21 C -2.8446 -1.0297 -3.9151 0
M  V30 22 C -3.9289 -0.1477 -4.0264 0
M  V30 23 C -2.4364 -1.7303 -5.0603 0
M  V30 24 C -4.5797 0.0373 -5.2496 0
M  V30 25 C -3.0874 -1.5469 -6.2835 0
M  V30 26 C -4.1584 -0.662 -6.3777 0
M  V30 27 H 3.9544 2.805 -0.6093 0
M  V30 28 H 3.5351 1.2392 0.9593 0
M  V30 29 H 3.1572 5.4913 1.5134 0
M  V30 30 H 2.3624 5.1463 3.8492 0
M  V30 31 H 1.811 3.0939 5.685 0
M  V30 32 H 1.8829 0.5959 5.8301 0
M  V30 33 H 3.2842 -1.2521 4.1534 0
M  V30 34 H 3.5492 -0.7829 2.4863 0
M  V30 35 H 0.7885 -1.348 3.718 0
M  V30 36 H 1.762 -2.5244 2.8391 0
M  V30 37 H 0.6668 0.086 1.6662 0
M  V30 38 H 1.7154 -1.0551 0.8153 0
M  V30 39 H -0.0209 -2.8542 1.1113 0
M  V30 40 H -1.0015 -1.7254 2.0445 0
M  V30 41 H 0.6993 -0.7319 -1.1742 0
M  V30 42 H 0.3606 -2.4691 -1.2245 0
M  V30 43 H -2.091 -3.0696 -0.3774 0
M  V30 44 H -2.8622 -1.8965 0.6938 0
M  V30 45 H -0.1978 -1.1776 -3.3877 0
M  V30 46 H -3.3988 -0.3919 -1.0822 0
M  V30 47 H -3.8904 -2.0162 -1.5867 0
M  V30 48 H -4.2697 0.4204 -3.1643 0
M  V30 49 H -1.6135 -2.4391 -5.0077 0
M  V30 50 H -5.4136 0.731 -5.3193 0
M  V30 51 H -2.7587 -2.0985 -7.1601 0
M  V30 52 H -4.6645 -0.5178 -7.3284 0
M  V30 END ATOM
M  V30 BEGIN BOND
M  V30 1 1 1 2
M  V30 2 2 2 3
M  V30 3 1 2 4
M  V30 4 1 3 5
M  V30 5 2 4 6
M  V30 6 2 5 7
M  V30 7 1 5 8
M  V30 8 1 7 9
M  V30 9 2 8 10
M  V30 10 1 8 11
M  V30 11 1 11 12
M  V30 12 1 12 13
M  V30 13 1 13 14
M  V30 14 1 14 15
M  V30 15 1 15 16
M  V30 16 1 15 17
M  V30 17 1 16 18
M  V30 18 1 17 19
M  V30 19 2 18 20
M  V30 20 1 20 21
M  V30 21 2 21 22
M  V30 22 1 21 23
M  V30 23 1 22 24
M  V30 24 2 23 25
M  V30 25 2 24 26
M  V30 26 1 6 7
M  V30 27 1 9 10
M  V30 28 1 19 20
M  V30 29 1 25 26
M  V30 30 1 1 27
M  V30 31 1 3 28
M  V30 32 1 4 29
M  V30 33 1 6 30
M  V30 34 1 9 31
M  V30 35 1 10 32
M  V30 36 1 11 33
M  V30 37 1 11 34
M  V30 38 1 12 35
M  V30 39 1 12 36
M  V30 40 1 13 37
M  V30 41 1 13 38
M  V30 42 1 14 39
M  V30 43 1 14 40
M  V30 44 1 16 41
M  V30 45 1 16 42
M  V30 46 1 17 43
M  V30 47 1 17 44
M  V30 48 1 18 45
M  V30 49 1 19 46
M  V30 50 1 19 47
M  V30 51 1 22 48
M  V30 52 1 23 49
M  V30 53 1 24 50
M  V30 54 1 25 51
M  V30 55 1 26 52
M  V30 END BOND
M  V30 END CTAB
M  END
>  <NO.>
2552

>  <Name>
roxindole mesylate

>  <SMILES>
Oc1ccc2[nH]cc(CCCCN3CC=C(c4ccccc4)CC3)c2c1

>  <logBB>


>  <Class>
1

>  <MW>
346.2

>  <nHBAcc>
2

>  <nHBDon>
2

>  <SLogP>
4.99

>  <TopoPSA>
39.26

>  <MMFF94 Energy>
34.897

$$$$
Oc1ccc2c(c1)C13CCCCC1C(C2)N(CCc1ccccc1)CC3
Actelion Java MolfileCreator 2.0

  0  0  0  0  0  0              0 V3000
M  V30 BEGIN CTAB
M  V30 COUNTS 55 59 0 0 0
M  V30 BEGIN ATOM
M  V30 1 O -5.7838 0.5612 -0.8017 0
M  V30 2 C -4.4298 0.7173 -0.86 0
M  V30 3 C -3.588 -0.3543 -1.1517 0
M  V30 4 C -3.9171 1.9805 -0.6141 0
M  V30 5 C -2.193 -0.1737 -1.2149 0
M  V30 6 C -2.5401 2.1782 -0.6512 0
M  V30 7 C -1.6701 1.1118 -0.9361 0
M  V30 8 C -1.2387 -1.3575 -1.4986 0
M  V30 9 C -0.1841 1.3973 -0.9669 0
M  V30 10 C 0.0932 -0.8093 -2.0811 0
M  V30 11 C -0.9576 -2.063 -0.1448 0
M  V30 12 C -1.8487 -2.3624 -2.5168 0
M  V30 13 C 0.7198 0.1485 -1.0477 0
M  V30 14 C 1.0689 -1.9147 -2.5211 0
M  V30 15 C -0.1829 -1.1777 0.8388 0
M  V30 16 C -0.8754 -3.4348 -3.0118 0
M  V30 17 N 0.9877 -0.5647 0.2167 0
M  V30 18 C 0.4191 -2.8383 -3.5436 0
M  V30 19 C 1.883 0.1377 1.1489 0
M  V30 20 C 1.2458 0.9243 2.3105 0
M  V30 21 C 2.2841 1.69 3.0974 0
M  V30 22 C 2.9873 1.0696 4.1388 0
M  V30 23 C 2.5772 3.0223 2.7767 0
M  V30 24 C 3.9592 1.7727 4.852 0
M  V30 25 C 3.5495 3.7235 3.4915 0
M  V30 26 C 4.2395 3.0991 4.5289 0
M  V30 27 H -5.9978 -0.3629 -1.0083 0
M  V30 28 H -4.022 -1.334 -1.3182 0
M  V30 29 H -4.5852 2.8065 -0.3895 0
M  V30 30 H -2.1439 3.1716 -0.4525 0
M  V30 31 H 0.0985 2.0257 -0.118 0
M  V30 32 H 6.0E-4 2.0035 -1.865 0
M  V30 33 H -0.1348 -0.2277 -2.9887 0
M  V30 34 H -0.3783 -2.9801 -0.3008 0
M  V30 35 H -1.8967 -2.38 0.3274 0
M  V30 36 H -2.2215 -1.8103 -3.3906 0
M  V30 37 H -2.7139 -2.8786 -2.0837 0
M  V30 38 H 1.6878 0.4776 -1.4498 0
M  V30 39 H 1.961 -1.4596 -2.9684 0
M  V30 40 H 1.4187 -2.5059 -1.6675 0
M  V30 41 H -0.8553 -0.4229 1.2622 0
M  V30 42 H 0.1358 -1.8128 1.6749 0
M  V30 43 H -0.6505 -4.1388 -2.2025 0
M  V30 44 H -1.3569 -4.0214 -3.8031 0
M  V30 45 H 1.1144 -3.6419 -3.8108 0
M  V30 46 H 0.2123 -2.278 -4.4637 0
M  V30 47 H 2.5667 0.7896 0.5891 0
M  V30 48 H 2.5364 -0.6287 1.5877 0
M  V30 49 H 0.4873 1.6259 1.9494 0
M  V30 50 H 0.7232 0.2439 2.9946 0
M  V30 51 H 2.7815 0.034 4.4003 0
M  V30 52 H 2.0491 3.5223 1.9681 0
M  V30 53 H 4.4985 1.2848 5.6596 0
M  V30 54 H 3.7692 4.7573 3.2384 0
M  V30 55 H 4.9965 3.6457 5.0849 0
M  V30 END ATOM
M  V30 BEGIN BOND
M  V30 1 1 1 2
M  V30 2 2 2 3
M  V30 3 1 2 4
M  V30 4 1 3 5
M  V30 5 2 4 6
M  V30 6 2 5 7
M  V30 7 1 5 8
M  V30 8 1 7 9
M  V30 9 1 8 10
M  V30 10 1 8 11
M  V30 11 1 8 12
M  V30 12 1 9 13
M  V30 13 1 10 14
M  V30 14 1 11 15
M  V30 15 1 12 16
M  V30 16 1 13 17
M  V30 17 1 14 18
M  V30 18 1 17 19
M  V30 19 1 19 20
M  V30 20 1 20 21
M  V30 21 2 21 22
M  V30 22 1 21 23
M  V30 23 1 22 24
M  V30 24 2 23 25
M  V30 25 2 24 26
M  V30 26 1 6 7
M  V30 27 1 10 13
M  V30 28 1 15 17
M  V30 29 1 16 18
M  V30 30 1 25 26
M  V30 31 1 1 27
M  V30 32 1 3 28
M  V30 33 1 4 29
M  V30 34 1 6 30
M  V30 35 1 9 31
M  V30 36 1 9 32
M  V30 37 1 10 33
M  V30 38 1 11 34
M  V30 39 1 11 35
M  V30 40 1 12 36
M  V30 41 1 12 37
M  V30 42 1 13 38
M  V30 43 1 14 39
M  V30 44 1 14 40
M  V30 45 1 15 41
M  V30 46 1 15 42
M  V30 47 1 16 43
M  V30 48 1 16 44
M  V30 49 1 18 45
M  V30 50 1 18 46
M  V30 51 1 19 47
M  V30 52 1 19 48
M  V30 53 1 20 49
M  V30 54 1 20 50
M  V30 55 1 22 51
M  V30 56 1 23 52
M  V30 57 1 24 53
M  V30 58 1 25 54
M  V30 59 1 26 55
M  V30 END BOND
M  V30 END CTAB
M  END
>  <NO.>
2553

>  <Name>
morphinan-3-ol, 17-(2-phenylethyl)-

>  <SMILES>
Oc1ccc2c(c1)C13CCCCC1C(C2)N(CCc1ccccc1)CC3

>  <logBB>


>  <Class>
1

>  <MW>
347.22

>  <nHBAcc>
2

>  <nHBDon>
1

>  <SLogP>
4.69

>  <TopoPSA>
23.47

>  <MMFF94 Energy>
79.776

$$$$
Oc1ccc2c(c1)C13CCCCC1C(C2)NCC3
Actelion Java MolfileCreator 2.0

  0  0  0  0  0  0              0 V3000
M  V30 BEGIN CTAB
M  V30 COUNTS 39 42 0 0 0
M  V30 BEGIN ATOM
M  V30 1 O -1.0441 -0.8834 -4.5842 0
M  V30 2 C -1.3043 -0.4393 -3.3207 0
M  V30 3 C -0.2936 -0.5618 -2.3713 0
M  V30 4 C -2.5302 0.119 -2.9906 0
M  V30 5 C -0.4915 -0.1322 -1.0468 0
M  V30 6 C -2.7411 0.5713 -1.69 0
M  V30 7 C -1.7318 0.4634 -0.7167 0
M  V30 8 C 0.6311 -0.2352 0.0113 0
M  V30 9 C -2.0279 0.9857 0.6736 0
M  V30 10 C -0.0164 -0.3133 1.4212 0
M  V30 11 C 1.4928 1.0529 -0.0917 0
M  V30 12 C 1.5155 -1.4965 -0.2023 0
M  V30 13 C -0.8303 0.9693 1.6471 0
M  V30 14 C 0.9998 -0.5629 2.5487 0
M  V30 15 C 0.7245 2.317 0.3039 0
M  V30 16 C 2.4922 -1.7894 0.9386 0
M  V30 17 N 0.0188 2.1734 1.5769 0
M  V30 18 C 1.7987 -1.834 2.2919 0
M  V30 19 H -1.8345 -0.7409 -5.1297 0
M  V30 20 H 0.6508 -0.9913 -2.691 0
M  V30 21 H -3.3235 0.2166 -3.724 0
M  V30 22 H -3.6999 1.017 -1.433 0
M  V30 23 H -2.8169 0.3485 1.0959 0
M  V30 24 H -2.4415 2.0002 0.608 0
M  V30 25 H -0.7134 -1.1662 1.442 0
M  V30 26 H 2.3742 0.9785 0.5554 0
M  V30 27 H 1.8793 1.1771 -1.1116 0
M  V30 28 H 0.8681 -2.3753 -0.3293 0
M  V30 29 H 2.1026 -1.4071 -1.1243 0
M  V30 30 H -1.2436 0.9539 2.6638 0
M  V30 31 H 0.4705 -0.6611 3.5044 0
M  V30 32 H 1.6887 0.2816 2.6622 0
M  V30 33 H 0.0277 2.6126 -0.4882 0
M  V30 34 H 1.4366 3.1452 0.3957 0
M  V30 35 H 2.9873 -2.7497 0.7523 0
M  V30 36 H 3.2856 -1.0336 0.9565 0
M  V30 37 H -0.5514 3.0042 1.7337 0
M  V30 38 H 1.1294 -2.7022 2.3319 0
M  V30 39 H 2.5429 -1.9698 3.0847 0
M  V30 END ATOM
M  V30 BEGIN BOND
M  V30 1 1 1 2
M  V30 2 2 2 3
M  V30 3 1 2 4
M  V30 4 1 3 5
M  V30 5 2 4 6
M  V30 6 2 5 7
M  V30 7 1 5 8
M  V30 8 1 7 9
M  V30 9 1 8 10
M  V30 10 1 8 11
M  V30 11 1 8 12
M  V30 12 1 9 13
M  V30 13 1 10 14
M  V30 14 1 11 15
M  V30 15 1 12 16
M  V30 16 1 13 17
M  V30 17 1 14 18
M  V30 18 1 6 7
M  V30 19 1 10 13
M  V30 20 1 15 17
M  V30 21 1 16 18
M  V30 22 1 1 19
M  V30 23 1 3 20
M  V30 24 1 4 21
M  V30 25 1 6 22
M  V30 26 1 9 23
M  V30 27 1 9 24
M  V30 28 1 10 25
M  V30 29 1 11 26
M  V30 30 1 11 27
M  V30 31 1 12 28
M  V30 32 1 12 29
M  V30 33 1 13 30
M  V30 34 1 14 31
M  V30 35 1 14 32
M  V30 36 1 15 33
M  V30 37 1 15 34
M  V30 38 1 16 35
M  V30 39 1 16 36
M  V30 40 1 17 37
M  V30 41 1 18 38
M  V30 42 1 18 39
M  V30 END BOND
M  V30 END CTAB
M  END
>  <NO.>
2554

>  <Name>
norlevorphanol

>  <SMILES>
Oc1ccc2c(c1)C13CCCCC1C(C2)NCC3

>  <logBB>


>  <Class>
1

>  <MW>
243.16

>  <nHBAcc>
2

>  <nHBDon>
2

>  <SLogP>
2.74

>  <TopoPSA>
32.26

>  <MMFF94 Energy>
40.036

$$$$
Oc1ccc2c(c1)C13CCN(CC4CC4)C(C2)C1CCOC3
Actelion Java MolfileCreator 2.0

  0  0  0  0  0  0              0 V3000
M  V30 BEGIN CTAB
M  V30 COUNTS 47 51 0 0 0
M  V30 BEGIN ATOM
M  V30 1 O 2.0936 1.8519 2.1742 0
M  V30 2 C 1.7547 0.4675 2.0449 0
M  V30 3 C 2.5168 2.4283 0.939 0
M  V30 4 C 0.5603 0.2556 1.0819 0
M  V30 5 C 1.4314 2.3222 -0.1277 0
M  V30 6 C -0.7583 0.8899 1.5715 0
M  V30 7 C 0.9849 0.8582 -0.2774 0
M  V30 8 C 0.3188 -1.2598 0.8731 0
M  V30 9 C -1.6995 1.3797 0.6352 0
M  V30 10 C -1.0884 0.9473 2.9385 0
M  V30 11 C -0.1452 0.6293 -1.2904 0
M  V30 12 C -0.6733 -1.548 -0.2642 0
M  V30 13 C -2.916 1.9269 1.0789 0
M  V30 14 C -1.4333 1.3646 -0.8549 0
M  V30 15 C -2.3006 1.4965 3.3544 0
M  V30 16 N -0.3976 -0.8214 -1.5157 0
M  V30 17 C -3.2157 1.9839 2.4362 0
M  V30 18 O -2.6288 1.5709 4.6767 0
M  V30 19 C 0.6615 -1.4477 -2.3182 0
M  V30 20 C 0.1549 -2.708 -2.9592 0
M  V30 21 C 1.1139 -3.5937 -3.7169 0
M  V30 22 C 0.5245 -4.0688 -2.4201 0
M  V30 23 H 1.5535 0.0769 3.0468 0
M  V30 24 H 2.6437 -0.0707 1.6898 0
M  V30 25 H 3.4406 1.9371 0.6115 0
M  V30 26 H 2.7541 3.4807 1.125 0
M  V30 27 H 1.8101 2.7029 -1.0828 0
M  V30 28 H 0.5929 2.9632 0.1637 0
M  V30 29 H 1.8759 0.3204 -0.6337 0
M  V30 30 H -0.0518 -1.7227 1.7968 0
M  V30 31 H 1.2702 -1.7568 0.6422 0
M  V30 32 H -0.4059 0.5621 3.6873 0
M  V30 33 H 0.1371 1.0684 -2.2568 0
M  V30 34 H -0.7157 -2.6293 -0.4339 0
M  V30 35 H -1.6898 -1.3008 0.0645 0
M  V30 36 H -3.6377 2.3112 0.3613 0
M  V30 37 H -2.2991 0.9386 -1.3787 0
M  V30 38 H -1.3582 2.4105 -1.1824 0
M  V30 39 H -4.1566 2.4071 2.7746 0
M  V30 40 H -1.8638 1.2806 5.1993 0
M  V30 41 H 0.9471 -0.7803 -3.1407 0
M  V30 42 H 1.5692 -1.6369 -1.7337 0
M  V30 43 H -0.8298 -2.5763 -3.3962 0
M  V30 44 H 2.1657 -3.3324 -3.7301 0
M  V30 45 H 0.7603 -4.0524 -4.6335 0
M  V30 46 H 1.1769 -4.1275 -1.5568 0
M  V30 47 H -0.2318 -4.8446 -2.4568 0
M  V30 END ATOM
M  V30 BEGIN BOND
M  V30 1 1 1 2
M  V30 2 1 1 3
M  V30 3 1 2 4
M  V30 4 1 3 5
M  V30 5 1 4 6
M  V30 6 1 4 7
M  V30 7 1 4 8
M  V30 8 2 6 9
M  V30 9 1 6 10
M  V30 10 1 7 11
M  V30 11 1 8 12
M  V30 12 1 9 13
M  V30 13 1 9 14
M  V30 14 2 10 15
M  V30 15 1 11 16
M  V30 16 2 13 17
M  V30 17 1 15 18
M  V30 18 1 16 19
M  V30 19 1 19 20
M  V30 20 1 20 21
M  V30 21 1 20 22
M  V30 22 1 5 7
M  V30 23 1 11 14
M  V30 24 1 12 16
M  V30 25 1 15 17
M  V30 26 1 21 22
M  V30 27 1 2 23
M  V30 28 1 2 24
M  V30 29 1 3 25
M  V30 30 1 3 26
M  V30 31 1 5 27
M  V30 32 1 5 28
M  V30 33 1 7 29
M  V30 34 1 8 30
M  V30 35 1 8 31
M  V30 36 1 10 32
M  V30 37 1 11 33
M  V30 38 1 12 34
M  V30 39 1 12 35
M  V30 40 1 13 36
M  V30 41 1 14 37
M  V30 42 1 14 38
M  V30 43 1 17 39
M  V30 44 1 18 40
M  V30 45 1 19 41
M  V30 46 1 19 42
M  V30 47 1 20 43
M  V30 48 1 21 44
M  V30 49 1 21 45
M  V30 50 1 22 46
M  V30 51 1 22 47
M  V30 END BOND
M  V30 END CTAB
M  END
>  <NO.>
2555

>  <Name>
proxorphan

>  <SMILES>
Oc1ccc2c(c1)C13CCN(CC4CC4)C(C2)C1CCOC3

>  <logBB>


>  <Class>
1

>  <MW>
299.19

>  <nHBAcc>
3

>  <nHBDon>
1

>  <SLogP>
2.71

>  <TopoPSA>
32.7

>  <MMFF94 Energy>
70.754

$$$$
Oc1ccc2c(c1)[C@@]13CCCC[C@@]1(O)[C@@H](C2)N(CC1CC1)CC3
Actelion Java MolfileCreator 2.0

  0  0  0  0  0  0              0 V3000
M  V30 BEGIN CTAB
M  V30 COUNTS 50 54 0 0 0
M  V30 BEGIN ATOM
M  V30 1 O 1.8489 -2.0902 -4.345 0
M  V30 2 C 1.567 -1.7982 -3.0428 0
M  V30 3 C 0.403 -1.1196 -2.6863 0
M  V30 4 C 2.4813 -2.1953 -2.0822 0
M  V30 5 C 0.1203 -0.8352 -1.3358 0
M  V30 6 C 2.2355 -1.9008 -0.745 0
M  V30 7 C 1.0702 -1.2123 -0.362 0
M  V30 8 C -1.1483 -0.0608 -0.9178 0 CFG=1
M  V30 9 C 0.8801 -0.9148 1.1084 0
M  V30 10 C -1.5397 -0.3888 0.563 0 CFG=1
M  V30 11 C -0.7997 1.4528 -1.0248 0
M  V30 12 C -2.3851 -0.3617 -1.8128 0
M  V30 13 C -0.3312 -0.0304 1.47 0 CFG=2
M  V30 14 O -2.6434 0.4558 0.9795 0
M  V30 15 C -2.0404 -1.8375 0.7259 0
M  V30 16 C 0.2219 1.9116 0.0316 0
M  V30 17 C -2.8901 -1.7993 -1.6616 0
M  V30 18 N -0.1643 1.4441 1.3606 0
M  V30 19 C -3.2123 -2.1412 -0.2102 0
M  V30 20 C 0.4783 2.1272 2.4783 0
M  V30 21 C 1.9323 1.8547 2.6881 0
M  V30 22 C 3.0012 2.4816 1.8272 0
M  V30 23 C 2.8245 2.9387 3.2464 0
M  V30 24 H 1.1163 -1.7754 -4.8992 0
M  V30 25 H -0.2783 -0.805 -3.4688 0
M  V30 26 H 3.3841 -2.7238 -2.3726 0
M  V30 27 H 2.9634 -2.2056 0.004 0
M  V30 28 H 1.8067 -0.4838 1.493 0
M  V30 29 H 0.7598 -1.8788 1.6211 0
M  V30 30 H -0.4147 1.696 -2.0237 0
M  V30 31 H -1.7127 2.0514 -0.9016 0
M  V30 32 H -2.186 -0.1524 -2.869 0
M  V30 33 H -3.2069 0.3152 -1.5418 0
M  V30 34 H -0.6131 -0.2384 2.5111 0
M  V30 35 H -2.219 1.2947 1.2562 0
M  V30 36 H -1.2462 -2.5662 0.5344 0
M  V30 37 H -2.3772 -1.9987 1.7577 0
M  V30 38 H 1.2293 1.5772 -0.2373 0
M  V30 39 H 0.2433 3.0083 0.0092 0
M  V30 40 H -2.1446 -2.5046 -2.0461 0
M  V30 41 H -3.7901 -1.9335 -2.2729 0
M  V30 42 H -4.0957 -1.5743 0.1082 0
M  V30 43 H -3.4782 -3.2016 -0.1324 0
M  V30 44 H 0.3135 3.2066 2.3623 0
M  V30 45 H -0.0539 1.8683 3.4025 0
M  V30 46 H 2.1019 0.8686 3.1036 0
M  V30 47 H 2.7114 3.1703 1.0423 0
M  V30 48 H 3.8698 1.8793 1.5866 0
M  V30 49 H 2.4105 3.9271 3.4114 0
M  V30 50 H 3.5809 2.6522 3.9685 0
M  V30 END ATOM
M  V30 BEGIN BOND
M  V30 1 1 1 2
M  V30 2 2 2 3
M  V30 3 1 2 4
M  V30 4 1 3 5
M  V30 5 2 4 6
M  V30 6 2 5 7
M  V30 7 1 5 8
M  V30 8 1 7 9
M  V30 9 1 8 10
M  V30 10 1 8 11
M  V30 11 1 8 12
M  V30 12 1 9 13
M  V30 13 1 10 14
M  V30 14 1 10 15
M  V30 15 1 11 16
M  V30 16 1 12 17
M  V30 17 1 13 18
M  V30 18 1 15 19
M  V30 19 1 18 20
M  V30 20 1 20 21
M  V30 21 1 21 22
M  V30 22 1 21 23
M  V30 23 1 6 7
M  V30 24 1 10 13
M  V30 25 1 16 18
M  V30 26 1 17 19
M  V30 27 1 22 23
M  V30 28 1 1 24
M  V30 29 1 3 25
M  V30 30 1 4 26
M  V30 31 1 6 27
M  V30 32 1 9 28
M  V30 33 1 9 29
M  V30 34 1 11 30
M  V30 35 1 11 31
M  V30 36 1 12 32
M  V30 37 1 12 33
M  V30 38 1 13 34
M  V30 39 1 14 35
M  V30 40 1 15 36
M  V30 41 1 15 37
M  V30 42 1 16 38
M  V30 43 1 16 39
M  V30 44 1 17 40
M  V30 45 1 17 41
M  V30 46 1 19 42
M  V30 47 1 19 43
M  V30 48 1 20 44
M  V30 49 1 20 45
M  V30 50 1 21 46
M  V30 51 1 22 47
M  V30 52 1 22 48
M  V30 53 1 23 49
M  V30 54 1 23 50
M  V30 END BOND
M  V30 BEGIN COLLECTION
M  V30 MDLV30/STEABS ATOMS=(3 8 10 13)
M  V30 END COLLECTION
M  V30 END CTAB
M  END
>  <NO.>
2556

>  <Name>
oxilorphan

>  <SMILES>
Oc1ccc2c(c1)[C@@]13CCCC[C@@]1(O)[C@@H](C2)N(CC1CC1)CC3

>  <logBB>


>  <Class>
1

>  <MW>
313.2

>  <nHBAcc>
3

>  <nHBDon>
2

>  <SLogP>
2.98

>  <TopoPSA>
43.7

>  <MMFF94 Energy>
90.905

$$$$
Oc1ccc2c(c1)[C@@]13CCCC[C@@]1(O)[C@@H](C2)N(CC1CCC1)CC3
Actelion Java MolfileCreator 2.0

  0  0  0  0  0  0              0 V3000
M  V30 BEGIN CTAB
M  V30 COUNTS 53 57 0 0 0
M  V30 BEGIN ATOM
M  V30 1 O -4.0297 -3.2227 2.7388 0
M  V30 2 C -2.8644 -2.6711 2.2935 0
M  V30 3 C -2.8488 -1.4473 1.6268 0
M  V30 4 C -1.6928 -3.3723 2.5222 0
M  V30 5 C -1.636 -0.8848 1.1823 0
M  V30 6 C -0.4859 -2.8493 2.0691 0
M  V30 7 C -0.4454 -1.6192 1.3885 0
M  V30 8 C -1.6013 0.4561 0.4136 0 CFG=1
M  V30 9 C 0.9027 -1.1203 0.9198 0
M  V30 10 C -0.2023 1.1378 0.5433 0 CFG=1
M  V30 11 C -1.8469 0.1221 -1.0828 0
M  V30 12 C -2.6772 1.4767 0.8853 0
M  V30 13 C 0.8669 0.138 0.0314 0 CFG=2
M  V30 14 O -0.1351 2.3014 -0.3193 0
M  V30 15 C 0.0628 1.6582 1.9706 0
M  V30 16 C -0.6915 -0.6719 -1.7106 0
M  V30 17 C -2.4245 1.9911 2.3046 0
M  V30 18 N 0.6256 -0.0673 -1.4349 0
M  V30 19 C -1.0376 2.6101 2.4436 0
M  V30 20 C 1.6828 -0.826 -2.13 0
M  V30 21 C 3.0269 -0.1028 -2.1197 0
M  V30 22 C 4.0649 -0.5931 -3.1668 0
M  V30 23 C 3.1024 1.2768 -2.8305 0
M  V30 24 C 4.5155 0.8759 -3.2999 0
M  V30 25 H -4.7593 -2.6156 2.5338 0
M  V30 26 H -3.7896 -0.9391 1.4466 0
M  V30 27 H -1.7189 -4.3241 3.0442 0
M  V30 28 H 0.4299 -3.4099 2.2448 0
M  V30 29 H 1.4358 -1.9335 0.4161 0
M  V30 30 H 1.4924 -0.8879 1.8171 0
M  V30 31 H -2.7792 -0.4437 -1.2087 0
M  V30 32 H -1.9803 1.0496 -1.656 0
M  V30 33 H -2.682 2.3426 0.2089 0
M  V30 34 H -3.6894 1.0641 0.82 0
M  V30 35 H 1.837 0.6416 0.1203 0
M  V30 36 H 0.1386 1.9484 -1.1924 0
M  V30 37 H 1.0168 2.1998 1.9958 0
M  V30 38 H 0.144 0.839 2.6926 0
M  V30 39 H -0.7223 -1.7176 -1.3818 0
M  V30 40 H -0.863 -0.689 -2.7945 0
M  V30 41 H -2.5361 1.1758 3.0285 0
M  V30 42 H -3.1826 2.7409 2.5595 0
M  V30 43 H -0.9951 3.5409 1.8647 0
M  V30 44 H -0.8602 2.885 3.4898 0
M  V30 45 H 1.3781 -0.9578 -3.1768 0
M  V30 46 H 1.7955 -1.8349 -1.718 0
M  V30 47 H 3.4761 -0.0812 -1.1163 0
M  V30 48 H 3.631 -1.0011 -4.0873 0
M  V30 49 H 4.8223 -1.2877 -2.7943 0
M  V30 50 H 3.0518 2.1506 -2.1755 0
M  V30 51 H 2.3878 1.4055 -3.6521 0
M  V30 52 H 5.3099 1.1592 -2.5998 0
M  V30 53 H 4.793 1.1999 -4.3058 0
M  V30 END ATOM
M  V30 BEGIN BOND
M  V30 1 1 1 2
M  V30 2 2 2 3
M  V30 3 1 2 4
M  V30 4 1 3 5
M  V30 5 2 4 6
M  V30 6 2 5 7
M  V30 7 1 5 8
M  V30 8 1 7 9
M  V30 9 1 8 10
M  V30 10 1 8 11
M  V30 11 1 8 12
M  V30 12 1 9 13
M  V30 13 1 10 14
M  V30 14 1 10 15
M  V30 15 1 11 16
M  V30 16 1 12 17
M  V30 17 1 13 18
M  V30 18 1 15 19
M  V30 19 1 18 20
M  V30 20 1 20 21
M  V30 21 1 21 22
M  V30 22 1 21 23
M  V30 23 1 22 24
M  V30 24 1 6 7
M  V30 25 1 10 13
M  V30 26 1 16 18
M  V30 27 1 17 19
M  V30 28 1 23 24
M  V30 29 1 1 25
M  V30 30 1 3 26
M  V30 31 1 4 27
M  V30 32 1 6 28
M  V30 33 1 9 29
M  V30 34 1 9 30
M  V30 35 1 11 31
M  V30 36 1 11 32
M  V30 37 1 12 33
M  V30 38 1 12 34
M  V30 39 1 13 35
M  V30 40 1 14 36
M  V30 41 1 15 37
M  V30 42 1 15 38
M  V30 43 1 16 39
M  V30 44 1 16 40
M  V30 45 1 17 41
M  V30 46 1 17 42
M  V30 47 1 19 43
M  V30 48 1 19 44
M  V30 49 1 20 45
M  V30 50 1 20 46
M  V30 51 1 21 47
M  V30 52 1 22 48
M  V30 53 1 22 49
M  V30 54 1 23 50
M  V30 55 1 23 51
M  V30 56 1 24 52
M  V30 57 1 24 53
M  V30 END BOND
M  V30 BEGIN COLLECTION
M  V30 MDLV30/STEABS ATOMS=(3 8 10 13)
M  V30 END COLLECTION
M  V30 END CTAB
M  END
>  <NO.>
2557

>  <Name>
butorphanol

>  <SMILES>
Oc1ccc2c(c1)[C@@]13CCCC[C@@]1(O)[C@@H](C2)N(CC1CCC1)CC3

>  <logBB>


>  <Class>
1

>  <MW>
327.22

>  <nHBAcc>
3

>  <nHBDon>
2

>  <SLogP>
3.37

>  <TopoPSA>
43.7

>  <MMFF94 Energy>
89.33

$$$$
Oc1ccc2c3c1OC1C(O)C=CC4C(C2)NCCC341
Actelion Java MolfileCreator 2.0

  0  0  0  0  0  0              0 V3000
M  V30 BEGIN CTAB
M  V30 COUNTS 37 41 0 0 0
M  V30 BEGIN ATOM
M  V30 1 O -0.8144 0.57 2.2817 0
M  V30 2 C -0.6466 -0.6621 1.6888 0
M  V30 3 C -0.6434 1.5077 1.1486 0
M  V30 4 C -1.06 -1.8895 2.1515 0
M  V30 5 C -0.0336 -0.5565 0.4561 0
M  V30 6 C 0.3804 0.8545 0.2081 0
M  V30 7 C -2.0509 1.7391 0.5184 0
M  V30 8 O -1.6558 -1.9939 3.3698 0
M  V30 9 C -0.8804 -3.005 1.3231 0
M  V30 10 C 0.1156 -1.6178 -0.4161 0
M  V30 11 C 0.2999 1.2002 -1.281 0
M  V30 12 C 1.8442 1.037 0.6647 0
M  V30 13 O -2.5358 3.0337 0.8857 0
M  V30 14 C -2.1366 1.65 -0.9767 0
M  V30 15 C -0.3113 -2.8667 0.0364 0
M  V30 16 C 0.6376 -1.3402 -1.8014 0
M  V30 17 C -1.1044 1.3802 -1.7892 0
M  V30 18 C 1.1514 0.1245 -2.0194 0
M  V30 19 C 2.8156 0.2055 -0.1875 0
M  V30 20 N 2.5721 0.3051 -1.6298 0
M  V30 21 H -0.2563 2.4447 1.5672 0
M  V30 22 H -2.7731 1.0212 0.927 0
M  V30 23 H -1.8671 -2.926 3.5357 0
M  V30 24 H -1.2038 -3.9909 1.6452 0
M  V30 25 H 0.7762 2.1788 -1.449 0
M  V30 26 H 2.1144 2.0983 0.5824 0
M  V30 27 H 1.9771 0.765 1.7197 0
M  V30 28 H -2.6324 3.02 1.8545 0
M  V30 29 H -3.1212 1.8168 -1.4076 0
M  V30 30 H -0.2225 -3.7413 -0.604 0
M  V30 31 H 1.4297 -2.0567 -2.0503 0
M  V30 32 H -0.1873 -1.5161 -2.504 0
M  V30 33 H -1.2631 1.3639 -2.8648 0
M  V30 34 H 1.1133 0.323 -3.0983 0
M  V30 35 H 2.7837 -0.8456 0.1215 0
M  V30 36 H 3.838 0.5444 0.0148 0
M  V30 37 H 3.1517 -0.3804 -2.114 0
M  V30 END ATOM
M  V30 BEGIN BOND
M  V30 1 1 1 2
M  V30 2 1 1 3
M  V30 3 2 2 4
M  V30 4 1 2 5
M  V30 5 1 3 6
M  V30 6 1 3 7
M  V30 7 1 4 8
M  V30 8 1 4 9
M  V30 9 2 5 10
M  V30 10 1 6 11
M  V30 11 1 6 12
M  V30 12 1 7 13
M  V30 13 1 7 14
M  V30 14 2 9 15
M  V30 15 1 10 16
M  V30 16 1 11 17
M  V30 17 1 11 18
M  V30 18 1 12 19
M  V30 19 1 18 20
M  V30 20 1 5 6
M  V30 21 1 10 15
M  V30 22 2 14 17
M  V30 23 1 16 18
M  V30 24 1 19 20
M  V30 25 1 3 21
M  V30 26 1 7 22
M  V30 27 1 8 23
M  V30 28 1 9 24
M  V30 29 1 11 25
M  V30 30 1 12 26
M  V30 31 1 12 27
M  V30 32 1 13 28
M  V30 33 1 14 29
M  V30 34 1 15 30
M  V30 35 1 16 31
M  V30 36 1 16 32
M  V30 37 1 17 33
M  V30 38 1 18 34
M  V30 39 1 19 35
M  V30 40 1 19 36
M  V30 41 1 20 37
M  V30 END BOND
M  V30 END CTAB
M  END
>  <NO.>
2558

>  <Name>
normorphine

>  <SMILES>
Oc1ccc2c3c1OC1C(O)C=CC4C(C2)NCCC341

>  <logBB>


>  <Class>
1

>  <MW>
271.12

>  <nHBAcc>
4

>  <nHBDon>
3

>  <SLogP>
0.86

>  <TopoPSA>
61.72

>  <MMFF94 Energy>
90.975

$$$$
Oc1ccc2c3c1OC1C(O)CCC4(O)C(C2)N(CC2CCC2)CCC314
Actelion Java MolfileCreator 2.0

  0  0  0  0  0  0              0 V3000
M  V30 BEGIN CTAB
M  V30 COUNTS 53 58 0 0 0
M  V30 BEGIN ATOM
M  V30 1 O -3.818 -0.7302 0.1622 0
M  V30 2 C -3.1204 -0.4728 -0.9943 0
M  V30 3 C -2.9025 -0.2276 1.2187 0
M  V30 4 C -3.6254 -0.3999 -2.2694 0
M  V30 5 C -1.7877 -0.2161 -0.7591 0
M  V30 6 C -1.4728 -0.4274 0.6804 0
M  V30 7 C -3.2908 1.2472 1.5075 0
M  V30 8 O -4.9351 -0.6543 -2.5284 0
M  V30 9 C -2.7685 -0.0232 -3.3044 0
M  V30 10 C -0.9113 0.2066 -1.7402 0
M  V30 11 C -0.3911 0.5612 1.1312 0
M  V30 12 C -0.9644 -1.876 0.8602 0
M  V30 13 O -4.3903 1.2708 2.426 0
M  V30 14 C -2.1512 2.0858 2.08 0
M  V30 15 C -1.4174 0.2962 -3.0396 0
M  V30 16 C 0.4794 0.6197 -1.3349 0
M  V30 17 O 0.0366 0.2324 2.4722 0
M  V30 18 C 0.8333 0.3468 0.1696 0
M  V30 19 C -0.8982 2.006 1.2059 0
M  V30 20 C 0.4052 -2.0939 0.192 0
M  V30 21 N 1.3736 -1.0168 0.4858 0
M  V30 22 C 2.6772 -1.3263 -0.133 0
M  V30 23 C 3.8087 -0.4308 0.3895 0
M  V30 24 C 5.24 -0.936 0.0491 0
M  V30 25 C 4.1682 0.8417 -0.4318 0
M  V30 26 C 5.231 0.0058 -1.1667 0
M  V30 27 H -3.082 -0.8398 2.111 0
M  V30 28 H -3.6568 1.7253 0.5904 0
M  V30 29 H -5.3363 -0.8838 -1.6677 0
M  V30 30 H -3.1533 0.0499 -4.3184 0
M  V30 31 H -0.8807 -2.1033 1.9311 0
M  V30 32 H -1.6737 -2.6078 0.4517 0
M  V30 33 H -4.6596 2.1988 2.5367 0
M  V30 34 H -1.9328 1.7694 3.1077 0
M  V30 35 H -2.4748 3.131 2.1619 0
M  V30 36 H -0.7805 0.6241 -3.8581 0
M  V30 37 H 1.2086 0.1516 -2.0029 0
M  V30 38 H 0.5566 1.7024 -1.5006 0
M  V30 39 H 0.7572 -0.4238 2.3529 0
M  V30 40 H 1.5998 1.0681 0.4756 0
M  V30 41 H -0.1268 2.6471 1.6505 0
M  V30 42 H -1.1209 2.4138 0.214 0
M  V30 43 H 0.2786 -2.2163 -0.8907 0
M  V30 44 H 0.7988 -3.0486 0.5633 0
M  V30 45 H 2.9362 -2.3564 0.146 0
M  V30 46 H 2.6269 -1.3127 -1.2273 0
M  V30 47 H 3.6947 -0.2416 1.4654 0
M  V30 48 H 5.9879 -0.6654 0.8043 0
M  V30 49 H 5.3459 -1.9999 -0.1794 0
M  V30 50 H 4.591 1.6479 0.1795 0
M  V30 51 H 3.3908 1.2618 -1.0736 0
M  V30 52 H 6.1735 0.5166 -1.3791 0
M  V30 53 H 4.866 -0.4636 -2.0872 0
M  V30 END ATOM
M  V30 BEGIN BOND
M  V30 1 1 1 2
M  V30 2 1 1 3
M  V30 3 2 2 4
M  V30 4 1 2 5
M  V30 5 1 3 6
M  V30 6 1 3 7
M  V30 7 1 4 8
M  V30 8 1 4 9
M  V30 9 2 5 10
M  V30 10 1 6 11
M  V30 11 1 6 12
M  V30 12 1 7 13
M  V30 13 1 7 14
M  V30 14 2 9 15
M  V30 15 1 10 16
M  V30 16 1 11 17
M  V30 17 1 11 18
M  V30 18 1 11 19
M  V30 19 1 12 20
M  V30 20 1 18 21
M  V30 21 1 21 22
M  V30 22 1 22 23
M  V30 23 1 23 24
M  V30 24 1 23 25
M  V30 25 1 24 26
M  V30 26 1 5 6
M  V30 27 1 10 15
M  V30 28 1 14 19
M  V30 29 1 16 18
M  V30 30 1 20 21
M  V30 31 1 25 26
M  V30 32 1 3 27
M  V30 33 1 7 28
M  V30 34 1 8 29
M  V30 35 1 9 30
M  V30 36 1 12 31
M  V30 37 1 12 32
M  V30 38 1 13 33
M  V30 39 1 14 34
M  V30 40 1 14 35
M  V30 41 1 15 36
M  V30 42 1 16 37
M  V30 43 1 16 38
M  V30 44 1 17 39
M  V30 45 1 18 40
M  V30 46 1 19 41
M  V30 47 1 19 42
M  V30 48 1 20 43
M  V30 49 1 20 44
M  V30 50 1 22 45
M  V30 51 1 22 46
M  V30 52 1 23 47
M  V30 53 1 24 48
M  V30 54 1 24 49
M  V30 55 1 25 50
M  V30 56 1 25 51
M  V30 57 1 26 52
M  V30 58 1 26 53
M  V30 END BOND
M  V30 END CTAB
M  END
>  <NO.>
2559

>  <Name>
nalbuphine

>  <SMILES>
Oc1ccc2c3c1OC1C(O)CCC4(O)C(C2)N(CC2CCC2)CCC314

>  <logBB>


>  <Class>
1

>  <MW>
357.19

>  <nHBAcc>
5

>  <nHBDon>
3

>  <SLogP>
1.71

>  <TopoPSA>
73.16

>  <MMFF94 Energy>
121.44

$$$$
Oc1ccccc1-c1nnco1
Actelion Java MolfileCreator 2.0

  0  0  0  0  0  0              0 V3000
M  V30 BEGIN CTAB
M  V30 COUNTS 18 19 0 0 0
M  V30 BEGIN ATOM
M  V30 1 O 0.9623 1.2832 -1.845 0
M  V30 2 C 0.3344 0.1439 -1.4087 0
M  V30 3 C 1.1032 1.0222 -3.1737 0
M  V30 4 N 0.1194 -0.7186 -2.3851 0
M  V30 5 C 0.0016 0.0364 0.0043 0
M  V30 6 N 0.6214 -0.1435 -3.5335 0
M  V30 7 C -0.6416 -1.1059 0.5103 0
M  V30 8 C 0.3134 1.0709 0.9038 0
M  V30 9 O -0.9968 -2.1797 -0.2653 0
M  V30 10 C -0.9619 -1.2121 1.8644 0
M  V30 11 C -0.0072 0.9653 2.2609 0
M  V30 12 C -0.6447 -0.1761 2.7401 0
M  V30 13 H 1.5816 1.775 -3.7813 0
M  V30 14 H 0.8113 1.9748 0.5583 0
M  V30 15 H -0.7346 -2.0169 -1.1934 0
M  V30 16 H -1.4596 -2.1052 2.2335 0
M  V30 17 H 0.2411 1.775 2.9431 0
M  V30 18 H -0.8952 -0.2611 3.7945 0
M  V30 END ATOM
M  V30 BEGIN BOND
M  V30 1 1 1 2
M  V30 2 1 1 3
M  V30 3 2 2 4
M  V30 4 1 2 5
M  V30 5 2 3 6
M  V30 6 2 5 7
M  V30 7 1 5 8
M  V30 8 1 7 9
M  V30 9 1 7 10
M  V30 10 2 8 11
M  V30 11 2 10 12
M  V30 12 1 4 6
M  V30 13 1 11 12
M  V30 14 1 3 13
M  V30 15 1 8 14
M  V30 16 1 9 15
M  V30 17 1 10 16
M  V30 18 1 11 17
M  V30 19 1 12 18
M  V30 END BOND
M  V30 END CTAB
M  END
>  <NO.>
2560

>  <Name>
fenadiazole

>  <SMILES>
Oc1ccccc1-c1nnco1

>  <logBB>


>  <Class>
1

>  <MW>
162.04

>  <nHBAcc>
4

>  <nHBDon>
1

>  <SLogP>
1.44

>  <TopoPSA>
59.15

>  <MMFF94 Energy>
29.039

$$$$
S=C1NCCC(COc2ccccc2)O1
Actelion Java MolfileCreator 2.0

  0  0  0  0  0  0              0 V3000
M  V30 BEGIN CTAB
M  V30 COUNTS 28 29 0 0 0
M  V30 BEGIN ATOM
M  V30 1 S 1.2003 3.043 4.0054 0
M  V30 2 C 1.0121 1.5944 3.229 0
M  V30 3 O -0.2487 1.1752 2.9768 0
M  V30 4 N 2.0607 0.8107 2.8563 0
M  V30 5 C -0.4838 0.0219 2.1375 0 CFG=2
M  V30 6 C 1.9406 -0.4516 2.1726 0
M  V30 7 C 0.5704 -1.0502 2.3897 0
M  V30 8 C -0.5945 0.4833 0.6766 0
M  V30 9 O -0.7911 -0.6513 -0.1646 0
M  V30 10 C -0.879 -0.4212 -1.5097 0
M  V30 11 C -0.8498 0.8265 -2.1343 0
M  V30 12 C -1.0127 -1.5728 -2.2903 0
M  V30 13 C -0.9491 0.917 -3.5265 0
M  V30 14 C -1.1119 -1.4833 -3.6798 0
M  V30 15 C -1.0793 -0.2361 -4.2985 0
M  V30 16 H 2.9832 1.1801 3.058 0
M  V30 17 H -1.4526 -0.3951 2.4385 0
M  V30 18 H 2.1439 -0.2743 1.1117 0
M  V30 19 H 2.722 -1.1164 2.5542 0
M  V30 20 H 0.4934 -1.3783 3.4346 0
M  V30 21 H 0.4229 -1.9321 1.7584 0
M  V30 22 H -1.4463 1.171 0.5941 0
M  V30 23 H 0.3093 1.0314 0.3835 0
M  V30 24 H -0.7551 1.7493 -1.5716 0
M  V30 25 H -1.0409 -2.5486 -1.812 0
M  V30 26 H -0.927 1.8914 -4.0085 0
M  V30 27 H -1.2159 -2.3858 -4.2761 0
M  V30 28 H -1.1576 -0.162 -5.3801 0
M  V30 END ATOM
M  V30 BEGIN BOND
M  V30 1 2 1 2
M  V30 2 1 2 3
M  V30 3 1 2 4
M  V30 4 1 3 5
M  V30 5 1 4 6
M  V30 6 1 5 7
M  V30 7 1 5 8
M  V30 8 1 8 9
M  V30 9 1 9 10
M  V30 10 2 10 11
M  V30 11 1 10 12
M  V30 12 1 11 13
M  V30 13 2 12 14
M  V30 14 2 13 15
M  V30 15 1 6 7
M  V30 16 1 14 15
M  V30 17 1 4 16
M  V30 18 1 5 17
M  V30 19 1 6 18
M  V30 20 1 6 19
M  V30 21 1 7 20
M  V30 22 1 7 21
M  V30 23 1 8 22
M  V30 24 1 8 23
M  V30 25 1 11 24
M  V30 26 1 12 25
M  V30 27 1 13 26
M  V30 28 1 14 27
M  V30 29 1 15 28
M  V30 END BOND
M  V30 BEGIN COLLECTION
M  V30 MDLV30/STERAC1 ATOMS=(1 5)
M  V30 END COLLECTION
M  V30 END CTAB
M  END
>  <NO.>
2561

>  <Name>
tifemoxone

>  <SMILES>
S=C1NCCC(COc2ccccc2)O1

>  <logBB>


>  <Class>
1

>  <MW>
223.07

>  <nHBAcc>
3

>  <nHBDon>
1

>  <SLogP>
1.73

>  <TopoPSA>
30.49

>  <MMFF94 Energy>
-22.048

$$$$
[C-]#[N+]C(=C\c1ccc(O)cc1)/C(=C/c1ccc(O)cc1)[N+]#[C-]
Actelion Java MolfileCreator 2.0

  0  0  0  0  0  0              0 V3000
M  V30 BEGIN CTAB
M  V30 COUNTS 34 35 0 0 0
M  V30 BEGIN ATOM
M  V30 1 O 1.6771 3.4364 -6.1599 0
M  V30 2 C 1.422 2.9716 -4.9041 0
M  V30 3 C 2.4181 2.9166 -3.9348 0
M  V30 4 C 0.1272 2.5548 -4.6192 0
M  V30 5 C 2.11 2.4335 -2.6601 0
M  V30 6 C -0.1809 2.0718 -3.346 0
M  V30 7 C 0.8116 2.0012 -2.3611 0
M  V30 8 C 0.5093 1.5157 -1.0107 0
M  V30 9 C 0.1593 0.2497 -0.7078 0
M  V30 10 N 0.0846 -0.7632 -1.7893 0 CHG=1
M  V30 11 C -0.1183 -0.1973 0.6591 0
M  V30 12 C 0.0246 -1.5806 -2.6275 0 CHG=-1
M  V30 13 N 0.3213 0.6814 1.7708 0 CHG=1
M  V30 14 C -0.7148 -1.3726 0.9415 0
M  V30 15 C 0.6813 1.3884 2.6339 0 CHG=-1
M  V30 16 C -0.9962 -1.8659 2.2937 0
M  V30 17 C -0.3428 -3.016 2.7541 0
M  V30 18 C -1.9299 -1.2278 3.1192 0
M  V30 19 C -0.6072 -3.5152 4.0324 0
M  V30 20 C -2.1941 -1.7271 4.3961 0
M  V30 21 C -1.5314 -2.8639 4.8429 0
M  V30 22 O -1.8211 -3.3159 6.0958 0
M  V30 23 H 2.6184 3.6671 -6.2215 0
M  V30 24 H 3.4309 3.2429 -4.1488 0
M  V30 25 H -0.6407 2.6052 -5.3861 0
M  V30 26 H 2.8928 2.394 -1.9055 0
M  V30 27 H -1.1996 1.7544 -3.1362 0
M  V30 28 H 0.6009 2.2803 -0.2428 0
M  V30 29 H -1.0272 -2.056 0.1555 0
M  V30 30 H 0.3798 -3.5303 2.1242 0
M  V30 31 H -2.4602 -0.3406 2.7814 0
M  V30 32 H -0.0878 -4.4051 4.3733 0
M  V30 33 H -2.9144 -1.23 5.0399 0
M  V30 34 H -1.2717 -4.095 6.2809 0
M  V30 END ATOM
M  V30 BEGIN BOND
M  V30 1 1 1 2
M  V30 2 2 2 3
M  V30 3 1 2 4
M  V30 4 1 3 5
M  V30 5 2 4 6
M  V30 6 2 5 7
M  V30 7 1 7 8
M  V30 8 2 8 9
M  V30 9 1 9 10
M  V30 10 1 9 11
M  V30 11 3 10 12
M  V30 12 1 11 13
M  V30 13 2 11 14
M  V30 14 3 13 15
M  V30 15 1 14 16
M  V30 16 2 16 17
M  V30 17 1 16 18
M  V30 18 1 17 19
M  V30 19 2 18 20
M  V30 20 2 19 21
M  V30 21 1 21 22
M  V30 22 1 6 7
M  V30 23 1 20 21
M  V30 24 1 1 23
M  V30 25 1 3 24
M  V30 26 1 4 25
M  V30 27 1 5 26
M  V30 28 1 6 27
M  V30 29 1 8 28
M  V30 30 1 14 29
M  V30 31 1 17 30
M  V30 32 1 18 31
M  V30 33 1 19 32
M  V30 34 1 20 33
M  V30 35 1 22 34
M  V30 END BOND
M  V30 END CTAB
M  END
>  <NO.>
2562

>  <Name>
xantocillin

>  <SMILES>
[C-]#[N+]C(=C\c1ccc(O)cc1)/C(=C/c1ccc(O)cc1)[N+]#[C-]

>  <logBB>


>  <Class>
-1

>  <MW>
288.09

>  <nHBAcc>
2

>  <nHBDon>
2

>  <SLogP>
4.32

>  <TopoPSA>
49.18

>  <MMFF94 Energy>
30.933

$$$$
[N-]=[N+]=NCC(=O)N[C@H](CO)[C@H](O)c1ccc([N+](=O)[O-])cc1
Actelion Java MolfileCreator 2.0

  0  0  0  0  0  0              0 V3000
M  V30 BEGIN CTAB
M  V30 COUNTS 34 34 0 0 0
M  V30 BEGIN ATOM
M  V30 1 O 3.1015 5.0139 -2.3851 0
M  V30 2 N 3.5623 3.9142 -2.0471 0 CHG=1
M  V30 3 O 4.714 3.529 -2.2959 0 CHG=-1
M  V30 4 C 2.6805 2.9991 -1.312 0
M  V30 5 C 3.1562 1.741 -0.9213 0
M  V30 6 C 1.3719 3.391 -1.0076 0
M  V30 7 C 2.3142 0.8712 -0.2228 0
M  V30 8 C 0.5379 2.5145 -0.3095 0
M  V30 9 C 0.9964 1.2458 0.0879 0
M  V30 10 C 0.0855 0.2876 0.8352 0 CFG=1
M  V30 11 O -0.4329 1.0374 1.9383 0
M  V30 12 C -1.0695 -0.3134 -0.0284 0 CFG=2
M  V30 13 N -1.6725 -1.5379 0.5458 0
M  V30 14 C -0.6041 -0.6694 -1.458 0
M  V30 15 C -2.1477 -1.6989 1.8204 0
M  V30 16 O -1.6489 -1.3702 -2.1436 0
M  V30 17 O -2.0232 -0.8479 2.696 0
M  V30 18 C -2.8893 -3.0104 2.0619 0
M  V30 19 N -2.2727 -4.0977 1.279 0
M  V30 20 N -1.2332 -4.5779 1.7676 0 CHG=1
M  V30 21 N -0.2774 -5.0105 2.2107 0 CHG=-1
M  V30 22 H 4.1744 1.4279 -1.1441 0
M  V30 23 H 0.9909 4.3694 -1.2932 0
M  V30 24 H 2.6989 -0.0991 0.0872 0
M  V30 25 H -0.4732 2.8304 -0.0532 0
M  V30 26 H 0.6858 -0.5257 1.2615 0
M  V30 27 H -1.0425 0.4383 2.423 0
M  V30 28 H -1.8993 0.4028 -0.0858 0
M  V30 29 H -1.9617 -2.2339 -0.1405 0
M  V30 30 H 0.2696 -1.3292 -1.4323 0
M  V30 31 H -0.3666 0.2266 -2.0385 0
M  V30 32 H -1.3561 -1.483 -3.0659 0
M  V30 33 H -2.8846 -3.2418 3.1332 0
M  V30 34 H -3.9267 -2.8794 1.738 0
M  V30 END ATOM
M  V30 BEGIN BOND
M  V30 1 2 1 2
M  V30 2 1 2 3
M  V30 3 1 2 4
M  V30 4 2 4 5
M  V30 5 1 4 6
M  V30 6 1 5 7
M  V30 7 2 6 8
M  V30 8 2 7 9
M  V30 9 1 9 10
M  V30 10 1 10 11
M  V30 11 1 10 12
M  V30 12 1 12 13
M  V30 13 1 12 14
M  V30 14 1 13 15
M  V30 15 1 14 16
M  V30 16 2 15 17
M  V30 17 1 15 18
M  V30 18 1 18 19
M  V30 19 2 19 20
M  V30 20 2 20 21
M  V30 21 1 8 9
M  V30 22 1 5 22
M  V30 23 1 6 23
M  V30 24 1 7 24
M  V30 25 1 8 25
M  V30 26 1 10 26
M  V30 27 1 11 27
M  V30 28 1 12 28
M  V30 29 1 13 29
M  V30 30 1 14 30
M  V30 31 1 14 31
M  V30 32 1 16 32
M  V30 33 1 18 33
M  V30 34 1 18 34
M  V30 END BOND
M  V30 BEGIN COLLECTION
M  V30 MDLV30/STEABS ATOMS=(2 10 12)
M  V30 END COLLECTION
M  V30 END CTAB
M  END
>  <NO.>
2563

>  <Name>
azidamfenicol

>  <SMILES>
[N-]=[N+]=NCC(=O)N[C@H](CO)[C@H](O)c1ccc([N+](=O)[O-])cc1

>  <logBB>


>  <Class>
1

>  <MW>
295.09

>  <nHBAcc>
6

>  <nHBDon>
3

>  <SLogP>
0.42

>  <TopoPSA>
161.46

>  <MMFF94 Energy>
87.868

$$$$
c1cc2c(c(N3CCNCC3)c1)OCCO2
Actelion Java MolfileCreator 2.0

  0  0  0  0  0  0              0 V3000
M  V30 BEGIN CTAB
M  V30 COUNTS 32 34 0 0 0
M  V30 BEGIN ATOM
M  V30 1 O 1.0363 -0.4782 -1.3554 0
M  V30 2 C 1.1404 0.628 -0.5343 0
M  V30 3 C 1.831 -0.345 -2.5343 0
M  V30 4 C 2.1813 1.5607 -0.6913 0
M  V30 5 C 0.1456 0.809 0.456 0
M  V30 6 C 3.2292 0.1151 -2.1715 0
M  V30 7 O 3.1912 1.4308 -1.6132 0
M  V30 8 C 2.2252 2.7065 0.0965 0
M  V30 9 N -0.8782 -0.1173 0.6491 0
M  V30 10 C 0.2222 1.9781 1.2342 0
M  V30 11 C 1.2443 2.917 1.0587 0
M  V30 12 C -0.4894 -1.478 1.0589 0
M  V30 13 C -2.1994 0.3094 1.1283 0
M  V30 14 C -1.6083 -2.486 0.7136 0
M  V30 15 C -3.269 -0.7512 0.7802 0
M  V30 16 N -2.933 -2.11 1.25 0
M  V30 17 H 1.8689 -1.3244 -3.0212 0
M  V30 18 H 1.3362 0.3571 -3.2166 0
M  V30 19 H 3.7009 -0.5589 -1.446 0
M  V30 20 H 3.8604 0.152 -3.0648 0
M  V30 21 H 3.0247 3.4293 -0.0372 0
M  V30 22 H -0.5108 2.1661 2.0138 0
M  V30 23 H 1.2754 3.8066 1.682 0
M  V30 24 H 0.4356 -1.8172 0.5822 0
M  V30 25 H -0.3101 -1.4857 2.142 0
M  V30 26 H -2.4939 1.2558 0.6587 0
M  V30 27 H -2.1731 0.4593 2.2149 0
M  V30 28 H -1.3378 -3.4691 1.1137 0
M  V30 29 H -1.6791 -2.5906 -0.3764 0
M  V30 30 H -4.2242 -0.4534 1.2263 0
M  V30 31 H -3.4164 -0.7747 -0.3071 0
M  V30 32 H -3.6283 -2.7632 0.8924 0
M  V30 END ATOM
M  V30 BEGIN BOND
M  V30 1 1 1 2
M  V30 2 1 1 3
M  V30 3 2 2 4
M  V30 4 1 2 5
M  V30 5 1 3 6
M  V30 6 1 4 7
M  V30 7 1 4 8
M  V30 8 1 5 9
M  V30 9 2 5 10
M  V30 10 2 8 11
M  V30 11 1 9 12
M  V30 12 1 9 13
M  V30 13 1 12 14
M  V30 14 1 13 15
M  V30 15 1 14 16
M  V30 16 1 6 7
M  V30 17 1 10 11
M  V30 18 1 15 16
M  V30 19 1 3 17
M  V30 20 1 3 18
M  V30 21 1 6 19
M  V30 22 1 6 20
M  V30 23 1 8 21
M  V30 24 1 10 22
M  V30 25 1 11 23
M  V30 26 1 12 24
M  V30 27 1 12 25
M  V30 28 1 13 26
M  V30 29 1 13 27
M  V30 30 1 14 28
M  V30 31 1 14 29
M  V30 32 1 15 30
M  V30 33 1 15 31
M  V30 34 1 16 32
M  V30 END BOND
M  V30 END CTAB
M  END
>  <NO.>
2564

>  <Name>
eltoprazine

>  <SMILES>
c1cc2c(c(N3CCNCC3)c1)OCCO2

>  <logBB>


>  <Class>
1

>  <MW>
220.12

>  <nHBAcc>
4

>  <nHBDon>
1

>  <SLogP>
0.87

>  <TopoPSA>
33.73

>  <MMFF94 Energy>
139.22

$$$$
c1ccc(-c2cc(CCC3CCNCC3)c3ccccc3n2)cc1
Actelion Java MolfileCreator 2.0

  0  0  0  0  0  0              0 V3000
M  V30 BEGIN CTAB
M  V30 COUNTS 48 51 0 0 0
M  V30 BEGIN ATOM
M  V30 1 N -2.7902 1.2747 0.2389 0
M  V30 2 C -2.245 0.4007 -0.6391 0
M  V30 3 C -2.3697 1.277 1.5133 0
M  V30 4 C -2.7623 0.4734 -2.0219 0
M  V30 5 C -1.2671 -0.5058 -0.2453 0
M  V30 6 C -1.3752 0.4 2.0015 0
M  V30 7 C -2.9489 2.1907 2.3836 0
M  V30 8 C -4.1026 0.8263 -2.2682 0
M  V30 9 C -1.9504 0.2072 -3.1406 0
M  V30 10 C -0.8103 -0.5161 1.0809 0
M  V30 11 C -1.0129 0.4843 3.3682 0
M  V30 12 C -2.5814 2.2684 3.7279 0
M  V30 13 C -4.6142 0.8949 -3.5675 0
M  V30 14 C -2.459 0.2756 -4.4424 0
M  V30 15 C 0.2752 -1.5032 1.4541 0
M  V30 16 C -1.6104 1.4112 4.2221 0
M  V30 17 C -3.7916 0.6167 -4.6544 0
M  V30 18 C 1.6803 -0.8876 1.5511 0
M  V30 19 C 2.2491 -0.3072 0.2345 0
M  V30 20 C 3.5842 0.4179 0.4901 0
M  V30 21 C 2.4631 -1.3606 -0.8651 0
M  V30 22 C 4.7431 -0.5513 0.7269 0
M  V30 23 C 3.6574 -2.2716 -0.5782 0
M  V30 24 N 4.8881 -1.5069 -0.3725 0
M  V30 25 H -0.8639 -1.2145 -0.9617 0
M  V30 26 H -3.7123 2.8648 2.001 0
M  V30 27 H -4.7627 1.0511 -1.4312 0
M  V30 28 H -0.8986 -0.0385 -3.0141 0
M  V30 29 H -0.2585 -0.1761 3.787 0
M  V30 30 H -3.0568 2.9965 4.3797 0
M  V30 31 H -5.6541 1.1691 -3.7248 0
M  V30 32 H -1.8103 0.0695 -5.2897 0
M  V30 33 H 0.2788 -2.3413 0.7471 0
M  V30 34 H 0.017 -1.9665 2.4148 0
M  V30 35 H -1.3174 1.46 5.2677 0
M  V30 36 H -4.187 0.6728 -5.6651 0
M  V30 37 H 1.6706 -0.09 2.3043 0
M  V30 38 H 2.3537 -1.6592 1.9417 0
M  V30 39 H 1.5407 0.442 -0.1395 0
M  V30 40 H 3.8178 1.0433 -0.3819 0
M  V30 41 H 3.4925 1.1006 1.3432 0
M  V30 42 H 1.5658 -1.9675 -1.0178 0
M  V30 43 H 2.6389 -0.84 -1.8164 0
M  V30 44 H 4.6155 -1.0886 1.6736 0
M  V30 45 H 5.6748 0.0176 0.8206 0
M  V30 46 H 3.4621 -2.9087 0.2919 0
M  V30 47 H 3.8053 -2.9485 -1.4271 0
M  V30 48 H 5.104 -0.9928 -1.2273 0
M  V30 END ATOM
M  V30 BEGIN BOND
M  V30 1 2 1 2
M  V30 2 1 1 3
M  V30 3 1 2 4
M  V30 4 1 2 5
M  V30 5 1 3 6
M  V30 6 2 3 7
M  V30 7 2 4 8
M  V30 8 1 4 9
M  V30 9 2 5 10
M  V30 10 2 6 11
M  V30 11 1 7 12
M  V30 12 1 8 13
M  V30 13 2 9 14
M  V30 14 1 10 15
M  V30 15 1 11 16
M  V30 16 2 13 17
M  V30 17 1 15 18
M  V30 18 1 18 19
M  V30 19 1 19 20
M  V30 20 1 19 21
M  V30 21 1 20 22
M  V30 22 1 21 23
M  V30 23 1 22 24
M  V30 24 1 6 10
M  V30 25 2 12 16
M  V30 26 1 14 17
M  V30 27 1 23 24
M  V30 28 1 5 25
M  V30 29 1 7 26
M  V30 30 1 8 27
M  V30 31 1 9 28
M  V30 32 1 11 29
M  V30 33 1 12 30
M  V30 34 1 13 31
M  V30 35 1 14 32
M  V30 36 1 15 33
M  V30 37 1 15 34
M  V30 38 1 16 35
M  V30 39 1 17 36
M  V30 40 1 18 37
M  V30 41 1 18 38
M  V30 42 1 19 39
M  V30 43 1 20 40
M  V30 44 1 20 41
M  V30 45 1 21 42
M  V30 46 1 21 43
M  V30 47 1 22 44
M  V30 48 1 22 45
M  V30 49 1 23 46
M  V30 50 1 23 47
M  V30 51 1 24 48
M  V30 END BOND
M  V30 END CTAB
M  END
>  <NO.>
2565

>  <Name>
pipequaline

>  <SMILES>
c1ccc(-c2cc(CCC3CCNCC3)c3ccccc3n2)cc1

>  <logBB>


>  <Class>
1

>  <MW>
316.19

>  <nHBAcc>
2

>  <nHBDon>
1

>  <SLogP>
4.83

>  <TopoPSA>
24.92

>  <MMFF94 Energy>
68.71

$$$$
c1ccc(-c2nc(N3CCNCC3)cc3ccccc23)cc1
Actelion Java MolfileCreator 2.0

  0  0  0  0  0  0              0 V3000
M  V30 BEGIN CTAB
M  V30 COUNTS 41 44 0 0 0
M  V30 BEGIN ATOM
M  V30 1 N 0.3195 -0.0798 0.2396 0
M  V30 2 C -0.4991 0.6697 1.0265 0
M  V30 3 C -0.1413 -0.5901 -0.9186 0
M  V30 4 C -1.8371 0.966 0.6899 0
M  V30 5 C 0.1521 1.1362 2.2623 0
M  V30 6 N 0.7175 -1.3624 -1.6961 0
M  V30 7 C -1.4632 -0.3734 -1.2959 0
M  V30 8 C -2.3196 0.4086 -0.5075 0
M  V30 9 C -2.7148 1.7779 1.4527 0
M  V30 10 C -0.2711 0.689 3.5256 0
M  V30 11 C 1.2372 2.0261 2.2032 0
M  V30 12 C 2.0279 -1.6624 -1.0906 0
M  V30 13 C 0.7483 -1.1442 -3.1499 0
M  V30 14 C -3.6499 0.6422 -0.9007 0
M  V30 15 C -4.0307 2.0062 1.0474 0
M  V30 16 C 0.3536 1.1371 4.6922 0
M  V30 17 C 1.8627 2.475 3.3688 0
M  V30 18 C 2.7592 -2.7747 -1.8734 0
M  V30 19 C 1.521 -2.2764 -3.8646 0
M  V30 20 C -4.4995 1.4339 -0.1279 0
M  V30 21 C 1.4178 2.0328 4.6128 0
M  V30 22 N 2.8697 -2.5108 -3.3208 0
M  V30 23 H -1.8492 -0.831 -2.1996 0
M  V30 24 H -2.3716 2.2477 2.3723 0
M  V30 25 H -1.09 -0.0236 3.6028 0
M  V30 26 H 1.6007 2.3671 1.2355 0
M  V30 27 H 1.9116 -2.0124 -0.0569 0
M  V30 28 H 2.6481 -0.7565 -1.0792 0
M  V30 29 H 1.2291 -0.1806 -3.3621 0
M  V30 30 H -0.2559 -1.1145 -3.5841 0
M  V30 31 H -4.0346 0.2094 -1.822 0
M  V30 32 H -4.6845 2.6314 1.65 0
M  V30 33 H 0.0138 0.7801 5.6609 0
M  V30 34 H 2.7007 3.1637 3.3023 0
M  V30 35 H 2.2359 -3.7278 -1.7228 0
M  V30 36 H 3.7672 -2.8959 -1.4617 0
M  V30 37 H 0.9414 -3.2063 -3.8014 0
M  V30 38 H 1.611 -2.0282 -4.9278 0
M  V30 39 H -5.5235 1.6068 -0.4484 0
M  V30 40 H 1.9073 2.3783 5.5195 0
M  V30 41 H 3.276 -3.3274 -3.7746 0
M  V30 END ATOM
M  V30 BEGIN BOND
M  V30 1 2 1 2
M  V30 2 1 1 3
M  V30 3 1 2 4
M  V30 4 1 2 5
M  V30 5 1 3 6
M  V30 6 2 3 7
M  V30 7 1 4 8
M  V30 8 2 4 9
M  V30 9 2 5 10
M  V30 10 1 5 11
M  V30 11 1 6 12
M  V30 12 1 6 13
M  V30 13 2 8 14
M  V30 14 1 9 15
M  V30 15 1 10 16
M  V30 16 2 11 17
M  V30 17 1 12 18
M  V30 18 1 13 19
M  V30 19 1 14 20
M  V30 20 2 16 21
M  V30 21 1 18 22
M  V30 22 1 7 8
M  V30 23 2 15 20
M  V30 24 1 17 21
M  V30 25 1 19 22
M  V30 26 1 7 23
M  V30 27 1 9 24
M  V30 28 1 10 25
M  V30 29 1 11 26
M  V30 30 1 12 27
M  V30 31 1 12 28
M  V30 32 1 13 29
M  V30 33 1 13 30
M  V30 34 1 14 31
M  V30 35 1 15 32
M  V30 36 1 16 33
M  V30 37 1 17 34
M  V30 38 1 18 35
M  V30 39 1 18 36
M  V30 40 1 19 37
M  V30 41 1 19 38
M  V30 42 1 20 39
M  V30 43 1 21 40
M  V30 44 1 22 41
M  V30 END BOND
M  V30 END CTAB
M  END
>  <NO.>
2566

>  <Name>
perafensine

>  <SMILES>
c1ccc(-c2nc(N3CCNCC3)cc3ccccc23)cc1

>  <logBB>


>  <Class>
1

>  <MW>
289.16

>  <nHBAcc>
3

>  <nHBDon>
1

>  <SLogP>
3.31

>  <TopoPSA>
28.16

>  <MMFF94 Energy>
105.56

$$$$
c1ccc(C2(c3ccccc3)OC[C@H]([C@@H]3CCCCN3)O2)cc1
Actelion Java MolfileCreator 2.0

  0  0  0  0  0  0              0 V3000
M  V30 BEGIN CTAB
M  V30 COUNTS 46 49 0 0 0
M  V30 BEGIN ATOM
M  V30 1 O 0.1601 0.1601 -0.3202 0
M  V30 2 C -1.2607 0.4174 -0.2154 0
M  V30 3 C 0.3032 -0.7136 -1.4466 0 CFG=1
M  V30 4 O -1.9535 -0.5119 -1.085 0
M  V30 5 C -1.7018 0.1784 1.2317 0
M  V30 6 C -1.554 1.849 -0.6694 0
M  V30 7 C 1.5927 -1.5578 -1.3627 0 CFG=1
M  V30 8 C -0.9823 -1.4982 -1.4261 0
M  V30 9 C -0.8218 0.4037 2.3063 0
M  V30 10 C -3.0117 -0.2409 1.529 0
M  V30 11 C -2.7837 2.184 -1.2653 0
M  V30 12 C -0.6158 2.8786 -0.4703 0
M  V30 13 N 2.7499 -0.6559 -1.552 0
M  V30 14 C 1.7252 -2.3182 -0.0279 0
M  V30 15 C -1.231 0.2008 3.6263 0
M  V30 16 C -3.4203 -0.4434 2.8493 0
M  V30 17 C -3.0587 3.4955 -1.66 0
M  V30 18 C -0.8912 4.1898 -0.8655 0
M  V30 19 C 4.0229 -1.3722 -1.512 0
M  V30 20 C 3.0546 -3.0632 0.0679 0
M  V30 21 C -2.5293 -0.2239 3.8968 0
M  V30 22 C -2.1119 4.4971 -1.461 0
M  V30 23 C 4.2187 -2.1174 -0.1963 0
M  V30 24 H 0.3267 -0.0815 -2.3453 0
M  V30 25 H 1.5793 -2.2779 -2.1912 0
M  V30 26 H -1.224 -1.9516 -2.391 0
M  V30 27 H -1.013 -2.2709 -0.6526 0
M  V30 28 H 0.1949 0.7424 2.1173 0
M  V30 29 H -3.7251 -0.4121 0.725 0
M  V30 30 H -3.5387 1.417 -1.4265 0
M  V30 31 H 0.3426 2.6604 -0.0036 0
M  V30 32 H 2.7251 0.0492 -0.8111 0
M  V30 33 H 1.6476 -1.6237 0.8182 0
M  V30 34 H 0.9139 -3.0455 0.0817 0
M  V30 35 H -0.5359 0.3789 4.4426 0
M  V30 36 H -4.4361 -0.7689 3.0581 0
M  V30 37 H -4.0135 3.7334 -2.1214 0
M  V30 38 H -0.1518 4.9702 -0.7064 0
M  V30 39 H 4.8376 -0.6523 -1.647 0
M  V30 40 H 4.0803 -2.0699 -2.3562 0
M  V30 41 H 3.0701 -3.8793 -0.6647 0
M  V30 42 H 3.1585 -3.5182 1.0591 0
M  V30 43 H -2.8484 -0.3791 4.924 0
M  V30 44 H -2.3262 5.5173 -1.7677 0
M  V30 45 H 4.302 -1.398 0.6281 0
M  V30 46 H 5.1569 -2.6826 -0.2248 0
M  V30 END ATOM
M  V30 BEGIN BOND
M  V30 1 1 1 2
M  V30 2 1 1 3
M  V30 3 1 2 4
M  V30 4 1 2 5
M  V30 5 1 2 6
M  V30 6 1 3 7
M  V30 7 1 3 8
M  V30 8 2 5 9
M  V30 9 1 5 10
M  V30 10 2 6 11
M  V30 11 1 6 12
M  V30 12 1 7 13
M  V30 13 1 7 14
M  V30 14 1 9 15
M  V30 15 2 10 16
M  V30 16 1 11 17
M  V30 17 2 12 18
M  V30 18 1 13 19
M  V30 19 1 14 20
M  V30 20 2 15 21
M  V30 21 2 17 22
M  V30 22 1 19 23
M  V30 23 1 4 8
M  V30 24 1 16 21
M  V30 25 1 18 22
M  V30 26 1 20 23
M  V30 27 1 3 24
M  V30 28 1 7 25
M  V30 29 1 8 26
M  V30 30 1 8 27
M  V30 31 1 9 28
M  V30 32 1 10 29
M  V30 33 1 11 30
M  V30 34 1 12 31
M  V30 35 1 13 32
M  V30 36 1 14 33
M  V30 37 1 14 34
M  V30 38 1 15 35
M  V30 39 1 16 36
M  V30 40 1 17 37
M  V30 41 1 18 38
M  V30 42 1 19 39
M  V30 43 1 19 40
M  V30 44 1 20 41
M  V30 45 1 20 42
M  V30 46 1 21 43
M  V30 47 1 22 44
M  V30 48 1 23 45
M  V30 49 1 23 46
M  V30 END BOND
M  V30 BEGIN COLLECTION
M  V30 MDLV30/STEABS ATOMS=(2 3 7)
M  V30 END COLLECTION
M  V30 END CTAB
M  END
>  <NO.>
2567

>  <Name>
dexoxadrol

>  <SMILES>
c1ccc(C2(c3ccccc3)OC[C@H]([C@@H]3CCCCN3)O2)cc1

>  <logBB>


>  <Class>
1

>  <MW>
309.17

>  <nHBAcc>
3

>  <nHBDon>
1

>  <SLogP>
3.45

>  <TopoPSA>
30.49

>  <MMFF94 Energy>
80.81

$$$$
c1ccc(C2CCN(CC3CCCc4c3ccc3c4OCO3)C2)cc1
Actelion Java MolfileCreator 2.0

  0  0  0  0  0  0              0 V3000
M  V30 BEGIN CTAB
M  V30 COUNTS 50 54 0 0 0
M  V30 BEGIN ATOM
M  V30 1 O -1.286 -5.2325 -3.2175 0
M  V30 2 C -1.3158 -4.3796 -2.154 0
M  V30 3 C -2.5585 -5.8943 -3.0775 0
M  V30 4 C -0.3115 -3.4885 -1.7979 0
M  V30 5 C -2.4783 -4.5013 -1.4318 0
M  V30 6 O -3.3211 -5.4369 -1.9439 0
M  V30 7 C -0.5362 -2.6509 -0.6808 0
M  V30 8 C 0.9512 -3.427 -2.6091 0
M  V30 9 C -2.7101 -3.7463 -0.308 0
M  V30 10 C -1.7281 -2.8252 0.0703 0
M  V30 11 C 0.5154 -1.6265 -0.228 0
M  V30 12 C 2.0998 -2.8164 -1.8201 0
M  V30 13 C 1.6673 -1.4779 -1.2424 0
M  V30 14 C -0.1106 -0.2369 0.1075 0
M  V30 15 N 0.8456 0.7465 0.6467 0
M  V30 16 C 0.2169 1.631 1.6431 0
M  V30 17 C 1.3533 1.6826 -0.3646 0
M  V30 18 C 1.2241 2.7792 1.795 0
M  V30 19 C 1.9957 2.7856 0.468 0
M  V30 20 C 0.5737 4.0967 2.1578 0
M  V30 21 C 0.8071 4.6631 3.4199 0
M  V30 22 C -0.2781 4.7708 1.2691 0
M  V30 23 C 0.2102 5.8729 3.7808 0
M  V30 24 C -0.8745 5.9804 1.631 0
M  V30 25 C -0.6298 6.5315 2.8864 0
M  V30 26 H -2.3836 -6.9711 -2.9713 0
M  V30 27 H -3.145 -5.7225 -3.9874 0
M  V30 28 H 1.2478 -4.4331 -2.9283 0
M  V30 29 H 0.7587 -2.8342 -3.5117 0
M  V30 30 H -3.6206 -3.8658 0.2678 0
M  V30 31 H -1.902 -2.2497 0.9767 0
M  V30 32 H 0.9475 -2.0369 0.6963 0
M  V30 33 H 2.9655 -2.6796 -2.4777 0
M  V30 34 H 2.4103 -3.4893 -1.011 0
M  V30 35 H 2.5319 -1.013 -0.755 0
M  V30 36 H 1.3629 -0.8196 -2.0666 0
M  V30 37 H -0.8796 -0.3977 0.8718 0
M  V30 38 H -0.6479 0.1598 -0.7646 0
M  V30 39 H -0.7594 1.9892 1.2909 0
M  V30 40 H 0.0638 1.1138 2.5969 0
M  V30 41 H 0.5409 2.1057 -0.9694 0
M  V30 42 H 2.0872 1.2343 -1.0381 0
M  V30 43 H 1.9418 2.5089 2.5827 0
M  V30 44 H 1.9834 3.7453 -0.0583 0
M  V30 45 H 3.0469 2.5366 0.6624 0
M  V30 46 H 1.4588 4.1657 4.1351 0
M  V30 47 H -0.4871 4.3585 0.2847 0
M  V30 48 H 0.402 6.3007 4.7614 0
M  V30 49 H -1.531 6.4923 0.9322 0
M  V30 50 H -1.0938 7.473 3.1678 0
M  V30 END ATOM
M  V30 BEGIN BOND
M  V30 1 1 1 2
M  V30 2 1 1 3
M  V30 3 2 2 4
M  V30 4 1 2 5
M  V30 5 1 3 6
M  V30 6 1 4 7
M  V30 7 1 4 8
M  V30 8 2 5 9
M  V30 9 2 7 10
M  V30 10 1 7 11
M  V30 11 1 8 12
M  V30 12 1 11 13
M  V30 13 1 11 14
M  V30 14 1 14 15
M  V30 15 1 15 16
M  V30 16 1 15 17
M  V30 17 1 16 18
M  V30 18 1 17 19
M  V30 19 1 18 20
M  V30 20 2 20 21
M  V30 21 1 20 22
M  V30 22 1 21 23
M  V30 23 2 22 24
M  V30 24 2 23 25
M  V30 25 1 5 6
M  V30 26 1 9 10
M  V30 27 1 12 13
M  V30 28 1 18 19
M  V30 29 1 24 25
M  V30 30 1 3 26
M  V30 31 1 3 27
M  V30 32 1 8 28
M  V30 33 1 8 29
M  V30 34 1 9 30
M  V30 35 1 10 31
M  V30 36 1 11 32
M  V30 37 1 12 33
M  V30 38 1 12 34
M  V30 39 1 13 35
M  V30 40 1 13 36
M  V30 41 1 14 37
M  V30 42 1 14 38
M  V30 43 1 16 39
M  V30 44 1 16 40
M  V30 45 1 17 41
M  V30 46 1 17 42
M  V30 47 1 18 43
M  V30 48 1 19 44
M  V30 49 1 19 45
M  V30 50 1 21 46
M  V30 51 1 22 47
M  V30 52 1 23 48
M  V30 53 1 24 49
M  V30 54 1 25 50
M  V30 END BOND
M  V30 END CTAB
M  END
>  <NO.>
2568

>  <Name>
napitane

>  <SMILES>
c1ccc(C2CCN(CC3CCCc4c3ccc3c4OCO3)C2)cc1

>  <logBB>


>  <Class>
1

>  <MW>
335.19

>  <nHBAcc>
3

>  <nHBDon>
0

>  <SLogP>
4.32

>  <TopoPSA>
21.7

>  <MMFF94 Energy>
82.809

$$$$
c1ccc(C2CN=C3NCCN32)cc1
Actelion Java MolfileCreator 2.0

  0  0  0  0  0  0              0 V3000
M  V30 BEGIN CTAB
M  V30 COUNTS 27 29 0 0 0
M  V30 BEGIN ATOM
M  V30 1 N 0.2389 -2.5514 -1.4345 0
M  V30 2 C -0.3144 -2.4032 -0.2801 0
M  V30 3 C 0.9557 -1.2284 -1.6147 0
M  V30 4 N -0.1179 -1.2484 0.3983 0
M  V30 5 N -1.0479 -3.214 0.5129 0
M  V30 6 C 0.894 -0.471 -0.2474 0 CFG=2
M  V30 7 C -0.4979 -1.3068 1.7833 0
M  V30 8 C -1.3475 -2.612 1.8035 0
M  V30 9 C 0.5239 0.988 -0.3508 0
M  V30 10 C -0.73 1.3952 -0.8359 0
M  V30 11 C 1.4451 1.9748 0.0333 0
M  V30 12 C -1.0539 2.7493 -0.9325 0
M  V30 13 C 1.1199 3.3297 -0.0636 0
M  V30 14 C -0.1286 3.7161 -0.5464 0
M  V30 15 H 0.4712 -0.6808 -2.4309 0
M  V30 16 H 1.996 -1.4191 -1.8995 0
M  V30 17 H -1.3134 -4.146 0.236 0
M  V30 18 H 1.8482 -0.6 0.2786 0
M  V30 19 H 0.3803 -1.4117 2.4288 0
M  V30 20 H -1.0826 -0.4381 2.0989 0
M  V30 21 H -2.4149 -2.3792 1.8713 0
M  V30 22 H -1.0633 -3.2646 2.6336 0
M  V30 23 H -1.4631 0.649 -1.1396 0
M  V30 24 H 2.4263 1.6962 0.4115 0
M  V30 25 H -2.0284 3.0474 -1.3104 0
M  V30 26 H 1.8422 4.0846 0.2361 0
M  V30 27 H -0.3804 4.7705 -0.623 0
M  V30 END ATOM
M  V30 BEGIN BOND
M  V30 1 2 1 2
M  V30 2 1 1 3
M  V30 3 1 2 4
M  V30 4 1 2 5
M  V30 5 1 3 6
M  V30 6 1 4 7
M  V30 7 1 5 8
M  V30 8 1 6 9
M  V30 9 2 9 10
M  V30 10 1 9 11
M  V30 11 1 10 12
M  V30 12 2 11 13
M  V30 13 2 12 14
M  V30 14 1 4 6
M  V30 15 1 7 8
M  V30 16 1 13 14
M  V30 17 1 3 15
M  V30 18 1 3 16
M  V30 19 1 5 17
M  V30 20 1 6 18
M  V30 21 1 7 19
M  V30 22 1 7 20
M  V30 23 1 8 21
M  V30 24 1 8 22
M  V30 25 1 10 23
M  V30 26 1 11 24
M  V30 27 1 12 25
M  V30 28 1 13 26
M  V30 29 1 14 27
M  V30 END BOND
M  V30 BEGIN COLLECTION
M  V30 MDLV30/STERAC1 ATOMS=(1 6)
M  V30 END COLLECTION
M  V30 END CTAB
M  END
>  <NO.>
2569

>  <Name>
deximafen (imafen)

>  <SMILES>
c1ccc(C2CN=C3NCCN32)cc1

>  <logBB>


>  <Class>
1

>  <MW>
187.11

>  <nHBAcc>
3

>  <nHBDon>
1

>  <SLogP>
1

>  <TopoPSA>
27.63

>  <MMFF94 Energy>
-6.3774

$$$$
c1ccc(CC2NCCc3c2[nH]c2ccccc32)cc1
Actelion Java MolfileCreator 2.0

  0  0  0  0  0  0              0 V3000
M  V30 BEGIN CTAB
M  V30 COUNTS 38 41 0 0 0
M  V30 BEGIN ATOM
M  V30 1 N -2.7179 -0.1597 -0.1597 0
M  V30 2 C -1.6258 0.1063 -1.1298 0 CFG=2
M  V30 3 C -2.8765 -1.6057 0.1026 0
M  V30 4 C -0.4081 -0.6822 -0.7513 0
M  V30 5 C -1.3815 1.6233 -1.3318 0
M  V30 6 C -1.6319 -2.249 0.7611 0
M  V30 7 N 0.8716 -0.4624 -1.1816 0
M  V30 8 C -0.3896 -1.78 0.0865 0
M  V30 9 C -0.6823 2.4451 -0.2666 0
M  V30 10 C 1.7169 -1.4138 -0.6493 0
M  V30 11 C 0.9457 -2.2556 0.1563 0
M  V30 12 C -0.6554 2.089 1.0868 0
M  V30 13 C -0.0677 3.6508 -0.6479 0
M  V30 14 C 3.0971 -1.5833 -0.812 0
M  V30 15 C 1.5816 -3.3151 0.832 0
M  V30 16 C -0.0078 2.8953 2.0267 0
M  V30 17 C 0.5773 4.4584 0.2912 0
M  V30 18 C 3.7045 -2.6446 -0.134 0
M  V30 19 C 2.9605 -3.4991 0.6766 0
M  V30 20 C 0.6101 4.078 1.6295 0
M  V30 21 H -3.5871 0.2157 -0.5331 0
M  V30 22 H -1.9679 -0.2831 -2.0997 0
M  V30 23 H -3.7383 -1.753 0.7633 0
M  V30 24 H -3.1092 -2.1208 -0.8384 0
M  V30 25 H -0.7937 1.7256 -2.2558 0
M  V30 26 H -2.3454 2.1095 -1.5373 0
M  V30 27 H -1.5891 -1.9617 1.8189 0
M  V30 28 H -1.7116 -3.3403 0.7116 0
M  V30 29 H 1.1727 0.2959 -1.7769 0
M  V30 30 H -1.1319 1.1755 1.4348 0
M  V30 31 H -0.0895 3.9722 -1.687 0
M  V30 32 H 3.6806 -0.9158 -1.4371 0
M  V30 33 H 1.0098 -3.9823 1.4693 0
M  V30 34 H 0.0104 2.5946 3.071 0
M  V30 35 H 1.0507 5.385 -0.0217 0
M  V30 36 H 4.7754 -2.8019 -0.2389 0
M  V30 37 H 3.4539 -4.3157 1.1973 0
M  V30 38 H 1.1117 4.7026 2.3633 0
M  V30 END ATOM
M  V30 BEGIN BOND
M  V30 1 1 1 2
M  V30 2 1 1 3
M  V30 3 1 2 4
M  V30 4 1 2 5
M  V30 5 1 3 6
M  V30 6 1 4 7
M  V30 7 2 4 8
M  V30 8 1 5 9
M  V30 9 1 7 10
M  V30 10 1 8 11
M  V30 11 2 9 12
M  V30 12 1 9 13
M  V30 13 1 10 14
M  V30 14 1 11 15
M  V30 15 1 12 16
M  V30 16 2 13 17
M  V30 17 2 14 18
M  V30 18 2 15 19
M  V30 19 2 16 20
M  V30 20 1 6 8
M  V30 21 2 10 11
M  V30 22 1 17 20
M  V30 23 1 18 19
M  V30 24 1 1 21
M  V30 25 1 2 22
M  V30 26 1 3 23
M  V30 27 1 3 24
M  V30 28 1 5 25
M  V30 29 1 5 26
M  V30 30 1 6 27
M  V30 31 1 6 28
M  V30 32 1 7 29
M  V30 33 1 12 30
M  V30 34 1 13 31
M  V30 35 1 14 32
M  V30 36 1 15 33
M  V30 37 1 16 34
M  V30 38 1 17 35
M  V30 39 1 18 36
M  V30 40 1 19 37
M  V30 41 1 20 38
M  V30 END BOND
M  V30 BEGIN COLLECTION
M  V30 MDLV30/STERAC1 ATOMS=(1 2)
M  V30 END COLLECTION
M  V30 END CTAB
M  END
>  <NO.>
2570

>  <Name>
fenharmane

>  <SMILES>
c1ccc(CC2NCCc3c2[nH]c2ccccc32)cc1

>  <logBB>


>  <Class>
1

>  <MW>
262.15

>  <nHBAcc>
1

>  <nHBDon>
2

>  <SLogP>
3.6

>  <TopoPSA>
27.82

>  <MMFF94 Energy>
63.215

$$$$
c1ccc(Cn2cc(CCc3ccncc3)c3ccccc32)cc1
Actelion Java MolfileCreator 2.0

  0  0  0  0  0  0              0 V3000
M  V30 BEGIN CTAB
M  V30 COUNTS 44 47 0 0 0
M  V30 BEGIN ATOM
M  V30 1 N -1.1957 4.6297 -2.5523 0
M  V30 2 C -1.6586 5.0484 -1.355 0
M  V30 3 C -1.3865 3.3263 -2.8486 0
M  V30 4 C -2.302 4.2257 -0.4424 0
M  V30 5 C -2.0193 2.4265 -2.0053 0
M  V30 6 C -2.4927 2.8818 -0.7719 0
M  V30 7 C -3.1662 1.9345 0.1911 0
M  V30 8 C -2.2186 1.3591 1.251 0
M  V30 9 C -1.2032 0.4084 0.6948 0
M  V30 10 C -1.4141 -0.9558 0.3176 0
M  V30 11 C 0.1223 0.6937 0.4356 0
M  V30 12 C -0.2015 -1.4544 -0.169 0
M  V30 13 C -2.5371 -1.81 0.3395 0
M  V30 14 N 0.7197 -0.4304 -0.0761 0
M  V30 15 C -0.0732 -2.7741 -0.6325 0
M  V30 16 C -2.4184 -3.1253 -0.1207 0
M  V30 17 C 2.1098 -0.4867 -0.5217 0
M  V30 18 C -1.2015 -3.5983 -0.5994 0
M  V30 19 C 2.995 -1.2931 0.3984 0
M  V30 20 C 3.0394 -1.0408 1.7783 0
M  V30 21 C 3.8354 -2.2851 -0.1306 0
M  V30 22 C 3.8847 -1.7781 2.6097 0
M  V30 23 C 4.6807 -3.0206 0.7023 0
M  V30 24 C 4.7036 -2.7681 2.0721 0
M  V30 25 H -1.4924 6.0996 -1.1378 0
M  V30 26 H -1.0026 3.0096 -3.8138 0
M  V30 27 H -2.6437 4.6298 0.5042 0
M  V30 28 H -2.1271 1.3876 -2.3011 0
M  V30 29 H -3.6542 1.1272 -0.3698 0
M  V30 30 H -3.9778 2.4747 0.696 0
M  V30 31 H -1.7086 2.1727 1.7828 0
M  V30 32 H -2.815 0.8284 2.0041 0
M  V30 33 H 0.6806 1.6123 0.5665 0
M  V30 34 H -3.4919 -1.4527 0.713 0
M  V30 35 H 0.8733 -3.1579 -0.9981 0
M  V30 36 H -3.2841 -3.7822 -0.1 0
M  V30 37 H 2.0954 -0.9012 -1.5367 0
M  V30 38 H 2.4913 0.5386 -0.5917 0
M  V30 39 H -1.1229 -4.6252 -0.9484 0
M  V30 40 H 2.4086 -0.2719 2.2203 0
M  V30 41 H 3.8372 -2.4958 -1.1979 0
M  V30 42 H 3.9016 -1.5793 3.6782 0
M  V30 43 H 5.3225 -3.7907 0.2823 0
M  V30 44 H 5.36 -3.3419 2.7208 0
M  V30 END ATOM
M  V30 BEGIN BOND
M  V30 1 2 1 2
M  V30 2 1 1 3
M  V30 3 1 2 4
M  V30 4 2 3 5
M  V30 5 2 4 6
M  V30 6 1 6 7
M  V30 7 1 7 8
M  V30 8 1 8 9
M  V30 9 1 9 10
M  V30 10 2 9 11
M  V30 11 2 10 12
M  V30 12 1 10 13
M  V30 13 1 11 14
M  V30 14 1 12 15
M  V30 15 2 13 16
M  V30 16 1 14 17
M  V30 17 2 15 18
M  V30 18 1 17 19
M  V30 19 2 19 20
M  V30 20 1 19 21
M  V30 21 1 20 22
M  V30 22 2 21 23
M  V30 23 2 22 24
M  V30 24 1 5 6
M  V30 25 1 12 14
M  V30 26 1 16 18
M  V30 27 1 23 24
M  V30 28 1 2 25
M  V30 29 1 3 26
M  V30 30 1 4 27
M  V30 31 1 5 28
M  V30 32 1 7 29
M  V30 33 1 7 30
M  V30 34 1 8 31
M  V30 35 1 8 32
M  V30 36 1 11 33
M  V30 37 1 13 34
M  V30 38 1 15 35
M  V30 39 1 16 36
M  V30 40 1 17 37
M  V30 41 1 17 38
M  V30 42 1 18 39
M  V30 43 1 20 40
M  V30 44 1 21 41
M  V30 45 1 22 42
M  V30 46 1 23 43
M  V30 47 1 24 44
M  V30 END BOND
M  V30 END CTAB
M  END
>  <NO.>
2571

>  <Name>
benzindopyrine hydrochloride

>  <SMILES>
c1ccc(Cn2cc(CCc3ccncc3)c3ccccc32)cc1

>  <logBB>


>  <Class>
1

>  <MW>
312.16

>  <nHBAcc>
1

>  <nHBDon>
0

>  <SLogP>
4.87

>  <TopoPSA>
17.82

>  <MMFF94 Energy>
75.061

$$$$
c1ccc([C@@H]2CN3CCSC3=N2)cc1
Actelion Java MolfileCreator 2.0

  0  0  0  0  0  0              0 V3000
M  V30 BEGIN CTAB
M  V30 COUNTS 26 28 0 0 0
M  V30 BEGIN ATOM
M  V30 1 S 1.3935 2.2139 -2.6243 0
M  V30 2 C 0.5894 0.9606 -1.7486 0
M  V30 3 C 3.0372 1.5956 -2.0727 0
M  V30 4 N -0.6849 0.7711 -1.6189 0
M  V30 5 N 1.4524 0.0819 -1.1955 0
M  V30 6 C 2.8168 0.1379 -1.6312 0
M  V30 7 C -0.7425 -0.5115 -0.8101 0 CFG=1
M  V30 8 C 0.726 -1.045 -0.694 0
M  V30 9 C -1.3931 -0.3389 0.5491 0
M  V30 10 C -1.3402 0.8777 1.2442 0
M  V30 11 C -2.0343 -1.4312 1.1558 0
M  V30 12 C -1.9183 1.0018 2.5091 0
M  V30 13 C -2.6117 -1.3059 2.421 0
M  V30 14 C -2.553 -0.0896 3.0973 0
M  V30 15 H 3.3575 2.2068 -1.2227 0
M  V30 16 H 3.7814 1.6759 -2.8694 0
M  V30 17 H 2.9711 -0.5402 -2.4784 0
M  V30 18 H 3.5139 -0.1426 -0.8356 0
M  V30 19 H -1.339 -1.225 -1.3936 0
M  V30 20 H 1.0214 -1.3061 0.3266 0
M  V30 21 H 0.8636 -1.9145 -1.3459 0
M  V30 22 H -0.8541 1.7432 0.7983 0
M  V30 23 H -2.0949 -2.3881 0.6425 0
M  V30 24 H -1.876 1.9541 3.031 0
M  V30 25 H -3.1114 -2.1563 2.8773 0
M  V30 26 H -3.006 0.0101 4.08 0
M  V30 END ATOM
M  V30 BEGIN BOND
M  V30 1 1 1 2
M  V30 2 1 1 3
M  V30 3 2 2 4
M  V30 4 1 2 5
M  V30 5 1 3 6
M  V30 6 1 4 7
M  V30 7 1 5 8
M  V30 8 1 7 9
M  V30 9 2 9 10
M  V30 10 1 9 11
M  V30 11 1 10 12
M  V30 12 2 11 13
M  V30 13 2 12 14
M  V30 14 1 5 6
M  V30 15 1 7 8
M  V30 16 1 13 14
M  V30 17 1 3 15
M  V30 18 1 3 16
M  V30 19 1 6 17
M  V30 20 1 6 18
M  V30 21 1 7 19
M  V30 22 1 8 20
M  V30 23 1 8 21
M  V30 24 1 10 22
M  V30 25 1 11 23
M  V30 26 1 12 24
M  V30 27 1 13 25
M  V30 28 1 14 26
M  V30 END BOND
M  V30 BEGIN COLLECTION
M  V30 MDLV30/STEABS ATOMS=(1 7)
M  V30 END COLLECTION
M  V30 END CTAB
M  END
>  <NO.>
2572

>  <Name>
dexamisole

>  <SMILES>
c1ccc([C@@H]2CN3CCSC3=N2)cc1

>  <logBB>


>  <Class>
1

>  <MW>
204.07

>  <nHBAcc>
3

>  <nHBDon>
0

>  <SLogP>
2.15

>  <TopoPSA>
15.6

>  <MMFF94 Energy>
26.176

$$$$
c1ccc2c(CCC3CCNCC3)c[nH]c2c1
Actelion Java MolfileCreator 2.0

  0  0  0  0  0  0              0 V3000
M  V30 BEGIN CTAB
M  V30 COUNTS 37 39 0 0 0
M  V30 BEGIN ATOM
M  V30 1 N 4.1948 0.3951 -0.3951 0
M  V30 2 C 3.7781 -0.9187 -0.8885 0
M  V30 3 C 3.1092 1.3707 -0.5098 0
M  V30 4 C 2.5531 -1.4454 -0.1402 0
M  V30 5 C 1.8599 0.9259 0.2517 0
M  V30 6 C 1.3669 -0.4639 -0.1832 0
M  V30 7 C 0.6965 -0.4741 -1.5771 0
M  V30 8 C -0.6164 0.3149 -1.6783 0
M  V30 9 C -1.7204 -0.2433 -0.8353 0
M  V30 10 C -2.2881 0.3366 0.3463 0
M  V30 11 C -2.3974 -1.4268 -1.0619 0
M  V30 12 C -3.2834 -0.5293 0.8014 0
M  V30 13 C -2.0481 1.5196 1.076 0
M  V30 14 N -3.3275 -1.5894 -0.0722 0
M  V30 15 C -4.0457 -0.2754 1.9483 0
M  V30 16 C -2.8007 1.7897 2.2251 0
M  V30 17 C -3.7843 0.9025 2.6533 0
M  V30 18 H 4.4534 0.3078 0.5881 0
M  V30 19 H 3.5857 -0.8691 -1.9663 0
M  V30 20 H 4.6092 -1.6205 -0.7571 0
M  V30 21 H 2.8789 1.5521 -1.5657 0
M  V30 22 H 3.4563 2.3272 -0.1031 0
M  V30 23 H 2.8268 -1.6211 0.9087 0
M  V30 24 H 2.2598 -2.4193 -0.5492 0
M  V30 25 H 1.0756 1.6799 0.1405 0
M  V30 26 H 2.0956 0.892 1.3241 0
M  V30 27 H 0.63 -0.812 0.551 0
M  V30 28 H 1.3867 -0.0767 -2.3299 0
M  V30 29 H 0.5019 -1.5154 -1.8664 0
M  V30 30 H -0.4486 1.3709 -1.4438 0
M  V30 31 H -0.9473 0.2958 -2.7252 0
M  V30 32 H -2.2909 -2.1672 -1.8434 0
M  V30 33 H -1.2871 2.2223 0.7526 0
M  V30 34 H -3.9614 -2.3716 0.0094 0
M  V30 35 H -4.8145 -0.9639 2.2829 0
M  V30 36 H -2.6142 2.702 2.7861 0
M  V30 37 H -4.3595 1.1291 3.548 0
M  V30 END ATOM
M  V30 BEGIN BOND
M  V30 1 1 1 2
M  V30 2 1 1 3
M  V30 3 1 2 4
M  V30 4 1 3 5
M  V30 5 1 4 6
M  V30 6 1 6 7
M  V30 7 1 7 8
M  V30 8 1 8 9
M  V30 9 1 9 10
M  V30 10 2 9 11
M  V30 11 2 10 12
M  V30 12 1 10 13
M  V30 13 1 11 14
M  V30 14 1 12 15
M  V30 15 2 13 16
M  V30 16 2 15 17
M  V30 17 1 5 6
M  V30 18 1 12 14
M  V30 19 1 16 17
M  V30 20 1 1 18
M  V30 21 1 2 19
M  V30 22 1 2 20
M  V30 23 1 3 21
M  V30 24 1 3 22
M  V30 25 1 4 23
M  V30 26 1 4 24
M  V30 27 1 5 25
M  V30 28 1 5 26
M  V30 29 1 6 27
M  V30 30 1 7 28
M  V30 31 1 7 29
M  V30 32 1 8 30
M  V30 33 1 8 31
M  V30 34 1 11 32
M  V30 35 1 13 33
M  V30 36 1 14 34
M  V30 37 1 15 35
M  V30 38 1 16 36
M  V30 39 1 17 37
M  V30 END BOND
M  V30 END CTAB
M  END
>  <NO.>
2573

>  <Name>
indalpine

>  <SMILES>
c1ccc2c(CCC3CCNCC3)c[nH]c2c1

>  <logBB>


>  <Class>
1

>  <MW>
228.16

>  <nHBAcc>
1

>  <nHBDon>
2

>  <SLogP>
3.1

>  <TopoPSA>
27.82

>  <MMFF94 Energy>
19.697

$$$$
c1ccc2c(c1)CCN1CCNCC21
Actelion Java MolfileCreator 2.0

  0  0  0  0  0  0              0 V3000
M  V30 BEGIN CTAB
M  V30 COUNTS 30 32 0 0 0
M  V30 BEGIN ATOM
M  V30 1 N -0.9588 0.9588 0.0 0
M  V30 2 C -0.323 -0.251 -0.5933 0 CFG=2
M  V30 3 C -2.1383 1.3601 -0.7797 0
M  V30 4 C -1.2857 0.726 1.4068 0
M  V30 5 C 0.8655 -0.745 0.2353 0
M  V30 6 C 0.0231 0.0392 -2.0918 0
M  V30 7 C -1.7767 1.6213 -2.2573 0
M  V30 8 C 0.0064 0.5886 2.216 0
M  V30 9 C 0.9892 -0.3712 1.591 0
M  V30 10 C 1.803 -1.6519 -0.2894 0
M  V30 11 N -1.1405 0.4634 -2.9068 0
M  V30 12 C 2.0599 -0.8488 2.363 0
M  V30 13 C 2.8593 -2.1308 0.4898 0
M  V30 14 C 2.9913 -1.7249 1.813 0
M  V30 15 H -1.0555 -1.073 -0.5784 0
M  V30 16 H -2.92 0.5909 -0.7242 0
M  V30 17 H -2.5584 2.2843 -0.3647 0
M  V30 18 H -1.8539 1.57 1.8171 0
M  V30 19 H -1.9099 -0.17 1.523 0
M  V30 20 H 0.809 0.8033 -2.1581 0
M  V30 21 H 0.4233 -0.858 -2.574 0
M  V30 22 H -2.6866 1.877 -2.8117 0
M  V30 23 H -1.1097 2.4894 -2.3317 0
M  V30 24 H -0.2469 0.2542 3.2292 0
M  V30 25 H 0.4936 1.5687 2.2988 0
M  V30 26 H 1.7273 -2.0112 -1.3118 0
M  V30 27 H -1.8127 -0.3033 -2.9126 0
M  V30 28 H 2.1691 -0.5374 3.3994 0
M  V30 29 H 3.5783 -2.824 0.0608 0
M  V30 30 H 3.8158 -2.093 2.4172 0
M  V30 END ATOM
M  V30 BEGIN BOND
M  V30 1 1 1 2
M  V30 2 1 1 3
M  V30 3 1 1 4
M  V30 4 1 2 5
M  V30 5 1 2 6
M  V30 6 1 3 7
M  V30 7 1 4 8
M  V30 8 2 5 9
M  V30 9 1 5 10
M  V30 10 1 6 11
M  V30 11 1 9 12
M  V30 12 2 10 13
M  V30 13 2 12 14
M  V30 14 1 7 11
M  V30 15 1 8 9
M  V30 16 1 13 14
M  V30 17 1 2 15
M  V30 18 1 3 16
M  V30 19 1 3 17
M  V30 20 1 4 18
M  V30 21 1 4 19
M  V30 22 1 6 20
M  V30 23 1 6 21
M  V30 24 1 7 22
M  V30 25 1 7 23
M  V30 26 1 8 24
M  V30 27 1 8 25
M  V30 28 1 10 26
M  V30 29 1 11 27
M  V30 30 1 12 28
M  V30 31 1 13 29
M  V30 32 1 14 30
M  V30 END BOND
M  V30 BEGIN COLLECTION
M  V30 MDLV30/STERAC1 ATOMS=(1 2)
M  V30 END COLLECTION
M  V30 END CTAB
M  END
>  <NO.>
2574

>  <Name>
5234-86-6

>  <SMILES>
c1ccc2c(c1)CCN1CCNCC21

>  <logBB>


>  <Class>
1

>  <MW>
188.13

>  <nHBAcc>
2

>  <nHBDon>
1

>  <SLogP>
1.19

>  <TopoPSA>
15.27

>  <MMFF94 Energy>
116.03

$$$$
c1ccc2c(c1)CCc1cccc3c1C2CN1CCCCC31
Actelion Java MolfileCreator 2.0

  0  0  0  0  0  0              0 V3000
M  V30 BEGIN CTAB
M  V30 COUNTS 45 49 0 0 0
M  V30 BEGIN ATOM
M  V30 1 N -0.2419 0.9681 1.6139 0
M  V30 2 C -1.6023 0.5177 1.2646 0
M  V30 3 C 0.4792 1.4241 0.4205 0
M  V30 4 C -0.2479 1.9619 2.6906 0
M  V30 5 C -1.6221 -0.4744 0.1038 0
M  V30 6 C -2.5796 1.6843 0.9875 0
M  V30 7 C 0.6825 0.2916 -0.6241 0
M  V30 8 C -1.1586 3.1618 2.4352 0
M  V30 9 C -0.5454 -0.5937 -0.8134 0
M  V30 10 C -2.7653 -1.2795 -0.0525 0
M  V30 11 C -2.5766 2.7081 2.118 0
M  V30 12 C 1.9533 -0.5375 -0.4384 0
M  V30 13 C -0.6314 -1.5388 -1.8683 0
M  V30 14 C -2.8595 -2.1873 -1.0971 0
M  V30 15 C 2.5025 -1.1922 -1.5622 0
M  V30 16 C 2.577 -0.706 0.8072 0
M  V30 17 C -1.8038 -2.3143 -1.9913 0
M  V30 18 C 0.457 -1.8664 -2.8805 0
M  V30 19 C 3.6759 -1.9491 -1.4306 0
M  V30 20 C 1.7925 -1.1172 -2.8908 0
M  V30 21 C 3.7431 -1.4639 0.9284 0
M  V30 22 C 4.2968 -2.0775 -0.1903 0
M  V30 23 H -1.9724 -0.0301 2.1435 0
M  V30 24 H -0.0678 2.245 -0.0619 0
M  V30 25 H 1.4545 1.8474 0.6944 0
M  V30 26 H -0.5697 1.464 3.6147 0
M  V30 27 H 0.7732 2.3092 2.8905 0
M  V30 28 H -3.6019 1.3057 0.8647 0
M  V30 29 H -2.3281 2.184 0.0432 0
M  V30 30 H 0.7992 0.8611 -1.5558 0
M  V30 31 H -1.1702 3.8092 3.3196 0
M  V30 32 H -0.7681 3.7657 1.6076 0
M  V30 33 H -3.5922 -1.1996 0.6499 0
M  V30 34 H -3.1946 3.5706 1.8446 0
M  V30 35 H -3.027 2.2624 3.0135 0
M  V30 36 H -3.7462 -2.8049 -1.2075 0
M  V30 37 H 2.1569 -0.2603 1.7055 0
M  V30 38 H -1.8867 -3.0487 -2.791 0
M  V30 39 H 0.0175 -1.7497 -3.8806 0
M  V30 40 H 0.6842 -2.9356 -2.7603 0
M  V30 41 H 4.1044 -2.4567 -2.2912 0
M  V30 42 H 1.6608 -0.073 -3.1956 0
M  V30 43 H 2.4267 -1.5578 -3.6714 0
M  V30 44 H 4.2123 -1.5805 1.9017 0
M  V30 45 H 5.2017 -2.6708 -0.0931 0
M  V30 END ATOM
M  V30 BEGIN BOND
M  V30 1 1 1 2
M  V30 2 1 1 3
M  V30 3 1 1 4
M  V30 4 1 2 5
M  V30 5 1 2 6
M  V30 6 1 3 7
M  V30 7 1 4 8
M  V30 8 2 5 9
M  V30 9 1 5 10
M  V30 10 1 6 11
M  V30 11 1 7 12
M  V30 12 1 9 13
M  V30 13 2 10 14
M  V30 14 2 12 15
M  V30 15 1 12 16
M  V30 16 2 13 17
M  V30 17 1 13 18
M  V30 18 1 15 19
M  V30 19 1 15 20
M  V30 20 2 16 21
M  V30 21 2 19 22
M  V30 22 1 7 9
M  V30 23 1 8 11
M  V30 24 1 14 17
M  V30 25 1 18 20
M  V30 26 1 21 22
M  V30 27 1 2 23
M  V30 28 1 3 24
M  V30 29 1 3 25
M  V30 30 1 4 26
M  V30 31 1 4 27
M  V30 32 1 6 28
M  V30 33 1 6 29
M  V30 34 1 7 30
M  V30 35 1 8 31
M  V30 36 1 8 32
M  V30 37 1 10 33
M  V30 38 1 11 34
M  V30 39 1 11 35
M  V30 40 1 14 36
M  V30 41 1 16 37
M  V30 42 1 17 38
M  V30 43 1 18 39
M  V30 44 1 18 40
M  V30 45 1 19 41
M  V30 46 1 20 42
M  V30 47 1 20 43
M  V30 48 1 21 44
M  V30 49 1 22 45
M  V30 END BOND
M  V30 END CTAB
M  END
>  <NO.>
2575

>  <Name>
taclamine

>  <SMILES>
c1ccc2c(c1)CCc1cccc3c1C2CN1CCCCC31

>  <logBB>


>  <Class>
1

>  <MW>
289.18

>  <nHBAcc>
1

>  <nHBDon>
0

>  <SLogP>
4.46

>  <TopoPSA>
3.24

>  <MMFF94 Energy>
102.78

$$$$
c1ccc2c(c1)CCc1ccccc1N2C1CN2CCC1CC2
Actelion Java MolfileCreator 2.0

  0  0  0  0  0  0              0 V3000
M  V30 BEGIN CTAB
M  V30 COUNTS 47 51 0 0 0
M  V30 BEGIN ATOM
M  V30 1 N 0.0804 -0.4829 0.3219 0
M  V30 2 C -0.817 -1.0586 1.2606 0
M  V30 3 C 1.4114 -0.195 0.6908 0
M  V30 4 C -0.2458 -0.564 -1.139 0 CFG=2
M  V30 5 C -1.009 -0.5245 2.557 0
M  V30 6 C -1.5157 -2.2435 0.9355 0
M  V30 7 C 1.6674 0.8384 1.6073 0
M  V30 8 C 2.4918 -0.9459 0.2039 0
M  V30 9 C 0.5893 0.3832 -2.0609 0
M  V30 10 C -1.7493 -0.208 -1.4324 0
M  V30 11 C -1.9041 -1.1663 3.4459 0
M  V30 12 C -0.3134 0.7007 3.1248 0
M  V30 13 C -2.3999 -2.8592 1.8245 0
M  V30 14 C 2.9843 1.1375 1.9848 0
M  V30 15 C 0.5022 1.5911 2.1909 0
M  V30 16 C 3.8018 -0.6474 0.5839 0
M  V30 17 C 0.2889 -0.0213 -3.5194 0
M  V30 18 C 0.1242 1.8413 -1.8986 0
M  V30 19 N -1.9383 0.6541 -2.6318 0
M  V30 20 C -2.5992 -2.3154 3.082 0
M  V30 21 C 4.0476 0.399 1.4685 0
M  V30 22 C -1.2232 0.0515 -3.7734 0
M  V30 23 C -1.3423 1.9728 -2.331 0
M  V30 24 H -0.0524 -1.5938 -1.4708 0
M  V30 25 H -1.3558 -2.7333 -0.0206 0
M  V30 26 H 2.314 -1.78 -0.4687 0
M  V30 27 H 1.6663 0.3139 -1.8974 0
M  V30 28 H -2.2249 0.2888 -0.5771 0
M  V30 29 H -2.315 -1.135 -1.5893 0
M  V30 30 H -2.0565 -0.7614 4.4453 0
M  V30 31 H -1.0848 1.3385 3.5778 0
M  V30 32 H 0.3365 0.3579 3.942 0
M  V30 33 H -2.9177 -3.769 1.5338 0
M  V30 34 H 3.1858 1.9389 2.6911 0
M  V30 35 H 0.8663 2.4587 2.7556 0
M  V30 36 H -0.1277 1.9976 1.3914 0
M  V30 37 H 4.6271 -1.2374 0.195 0
M  V30 38 H 0.8165 0.6505 -4.2076 0
M  V30 39 H 0.654 -1.0362 -3.7158 0
M  V30 40 H 0.2435 2.1726 -0.8636 0
M  V30 41 H 0.7469 2.5007 -2.5155 0
M  V30 42 H -3.2796 -2.7886 3.7842 0
M  V30 43 H 5.0663 0.6306 1.768 0
M  V30 44 H -1.6207 -0.9522 -3.9696 0
M  V30 45 H -1.421 0.6296 -4.6845 0
M  V30 46 H -1.4207 2.6246 -3.2103 0
M  V30 47 H -1.9202 2.4726 -1.5434 0
M  V30 END ATOM
M  V30 BEGIN BOND
M  V30 1 1 1 2
M  V30 2 1 1 3
M  V30 3 1 1 4
M  V30 4 2 2 5
M  V30 5 1 2 6
M  V30 6 2 3 7
M  V30 7 1 3 8
M  V30 8 1 4 9
M  V30 9 1 4 10
M  V30 10 1 5 11
M  V30 11 1 5 12
M  V30 12 2 6 13
M  V30 13 1 7 14
M  V30 14 1 7 15
M  V30 15 2 8 16
M  V30 16 1 9 17
M  V30 17 1 9 18
M  V30 18 1 10 19
M  V30 19 2 11 20
M  V30 20 2 14 21
M  V30 21 1 17 22
M  V30 22 1 18 23
M  V30 23 1 12 15
M  V30 24 1 13 20
M  V30 25 1 16 21
M  V30 26 1 19 22
M  V30 27 1 19 23
M  V30 28 1 4 24
M  V30 29 1 6 25
M  V30 30 1 8 26
M  V30 31 1 9 27
M  V30 32 1 10 28
M  V30 33 1 10 29
M  V30 34 1 11 30
M  V30 35 1 12 31
M  V30 36 1 12 32
M  V30 37 1 13 33
M  V30 38 1 14 34
M  V30 39 1 15 35
M  V30 40 1 15 36
M  V30 41 1 16 37
M  V30 42 1 17 38
M  V30 43 1 17 39
M  V30 44 1 18 40
M  V30 45 1 18 41
M  V30 46 1 20 42
M  V30 47 1 21 43
M  V30 48 1 22 44
M  V30 49 1 22 45
M  V30 50 1 23 46
M  V30 51 1 23 47
M  V30 END BOND
M  V30 BEGIN COLLECTION
M  V30 MDLV30/STERAC1 ATOMS=(1 4)
M  V30 END COLLECTION
M  V30 END CTAB
M  END
>  <NO.>
2576

>  <Name>
quinupramine

>  <SMILES>
c1ccc2c(c1)CCc1ccccc1N2C1CN2CCC1CC2

>  <logBB>


>  <Class>
1

>  <MW>
304.19

>  <nHBAcc>
2

>  <nHBDon>
0

>  <SLogP>
4.02

>  <TopoPSA>
6.48

>  <MMFF94 Energy>
108.58

$$$$
c1ccc2c(c1)cc1n2CCCNC1
Actelion Java MolfileCreator 2.0

  0  0  0  0  0  0              0 V3000
M  V30 BEGIN CTAB
M  V30 COUNTS 28 30 0 0 0
M  V30 BEGIN ATOM
M  V30 1 N -0.1587 -0.3968 -0.1587 0
M  V30 2 C -1.2041 0.2031 0.5177 0
M  V30 3 C 0.919 -0.5743 0.6815 0
M  V30 4 C -0.1573 -0.7771 -1.562 0
M  V30 5 C -0.771 0.4093 1.8307 0
M  V30 6 C -2.4906 0.587 0.1011 0
M  V30 7 C 0.5575 -0.0807 1.919 0
M  V30 8 C 2.2002 -1.1926 0.2419 0
M  V30 9 C 0.9166 -0.0526 -2.3673 0
M  V30 10 C -1.6443 1.0139 2.7566 0
M  V30 11 C -3.3399 1.1853 1.0379 0
M  V30 12 N 2.855 -0.3835 -0.7787 0
M  V30 13 C 2.3279 -0.5905 -2.1226 0
M  V30 14 C -2.9252 1.397 2.3484 0
M  V30 15 H -1.1387 -0.5452 -1.9849 0
M  V30 16 H -0.0353 -1.8655 -1.6056 0
M  V30 17 H -2.8334 0.4309 -0.9158 0
M  V30 18 H 1.1864 -0.071 2.7998 0
M  V30 19 H 2.8772 -1.2552 1.1022 0
M  V30 20 H 2.0449 -2.2248 -0.094 0
M  V30 21 H 0.8856 1.0257 -2.166 0
M  V30 22 H 0.6911 -0.1804 -3.4333 0
M  V30 23 H -1.3253 1.1822 3.7809 0
M  V30 24 H -4.3394 1.4891 0.7354 0
M  V30 25 H 2.7866 0.5987 -0.5126 0
M  V30 26 H 3.0049 -0.0791 -2.8175 0
M  V30 27 H 2.3798 -1.6534 -2.3892 0
M  V30 28 H -3.5995 1.8634 3.062 0
M  V30 END ATOM
M  V30 BEGIN BOND
M  V30 1 1 1 2
M  V30 2 1 1 3
M  V30 3 1 1 4
M  V30 4 2 2 5
M  V30 5 1 2 6
M  V30 6 2 3 7
M  V30 7 1 3 8
M  V30 8 1 4 9
M  V30 9 1 5 10
M  V30 10 2 6 11
M  V30 11 1 8 12
M  V30 12 1 9 13
M  V30 13 2 10 14
M  V30 14 1 5 7
M  V30 15 1 11 14
M  V30 16 1 12 13
M  V30 17 1 4 15
M  V30 18 1 4 16
M  V30 19 1 6 17
M  V30 20 1 7 18
M  V30 21 1 8 19
M  V30 22 1 8 20
M  V30 23 1 9 21
M  V30 24 1 9 22
M  V30 25 1 10 23
M  V30 26 1 11 24
M  V30 27 1 12 25
M  V30 28 1 13 26
M  V30 29 1 13 27
M  V30 30 1 14 28
M  V30 END BOND
M  V30 END CTAB
M  END
>  <NO.>
2577

>  <Name>
azepindole

>  <SMILES>
c1ccc2c(c1)cc1n2CCCNC1

>  <logBB>


>  <Class>
1

>  <MW>
186.12

>  <nHBAcc>
1

>  <nHBDon>
1

>  <SLogP>
2.13

>  <TopoPSA>
16.96

>  <MMFF94 Energy>
1.6899

$$$$
c1ccc2cc(COC3CCNCC3)ccc2c1
Actelion Java MolfileCreator 2.0

  0  0  0  0  0  0              0 V3000
M  V30 BEGIN CTAB
M  V30 COUNTS 37 39 0 0 0
M  V30 BEGIN ATOM
M  V30 1 O -2.1442 -0.3968 0.4761 0
M  V30 2 C -1.7631 -0.7099 -0.8679 0
M  V30 3 C -1.2094 -0.8332 1.4644 0
M  V30 4 C -2.182 -2.1368 -1.2272 0
M  V30 5 C -2.471 0.2832 -1.7897 0
M  V30 6 C -0.0333 0.1068 1.574 0
M  V30 7 C -1.968 -2.4092 -2.7125 0
M  V30 8 C -2.2408 -0.0709 -3.2536 0
M  V30 9 C 1.2732 -0.3954 1.6641 0
M  V30 10 C -0.2298 1.4916 1.6216 0
M  V30 11 N -2.6689 -1.4389 -3.555 0
M  V30 12 C 2.3779 0.4659 1.7821 0
M  V30 13 C 0.8572 2.36 1.7385 0
M  V30 14 C 2.1662 1.8627 1.8185 0
M  V30 15 C 3.689 -0.0309 1.8654 0
M  V30 16 C 3.27 2.7229 1.9357 0
M  V30 17 C 4.7758 0.8373 1.9816 0
M  V30 18 C 4.5665 2.2127 2.0165 0
M  V30 19 H -0.6793 -0.5935 -0.996 0
M  V30 20 H -0.8908 -1.8617 1.2642 0
M  V30 21 H -1.7306 -0.8395 2.4283 0
M  V30 22 H -3.2354 -2.2933 -0.9595 0
M  V30 23 H -1.6137 -2.863 -0.6356 0
M  V30 24 H -3.5465 0.2997 -1.5676 0
M  V30 25 H -2.1099 1.2986 -1.5856 0
M  V30 26 H -0.8974 -2.4 -2.9501 0
M  V30 27 H -2.3321 -3.4137 -2.9544 0
M  V30 28 H -1.1828 0.0523 -3.5146 0
M  V30 29 H -2.8021 0.6223 -3.8896 0
M  V30 30 H 1.435 -1.4713 1.64 0
M  V30 31 H -1.2371 1.9 1.5609 0
M  V30 32 H -3.673 -1.5152 -3.3853 0
M  V30 33 H 0.6722 3.4314 1.7674 0
M  V30 34 H 3.8738 -1.1022 1.84 0
M  V30 35 H 3.1259 3.8006 1.9655 0
M  V30 36 H 5.7848 0.4387 2.0448 0
M  V30 37 H 5.4115 2.8901 2.1071 0
M  V30 END ATOM
M  V30 BEGIN BOND
M  V30 1 1 1 2
M  V30 2 1 1 3
M  V30 3 1 2 4
M  V30 4 1 2 5
M  V30 5 1 3 6
M  V30 6 1 4 7
M  V30 7 1 5 8
M  V30 8 2 6 9
M  V30 9 1 6 10
M  V30 10 1 7 11
M  V30 11 1 9 12
M  V30 12 2 10 13
M  V30 13 1 12 14
M  V30 14 2 12 15
M  V30 15 2 14 16
M  V30 16 1 15 17
M  V30 17 1 16 18
M  V30 18 1 8 11
M  V30 19 1 13 14
M  V30 20 2 17 18
M  V30 21 1 2 19
M  V30 22 1 3 20
M  V30 23 1 3 21
M  V30 24 1 4 22
M  V30 25 1 4 23
M  V30 26 1 5 24
M  V30 27 1 5 25
M  V30 28 1 7 26
M  V30 29 1 7 27
M  V30 30 1 8 28
M  V30 31 1 8 29
M  V30 32 1 9 30
M  V30 33 1 10 31
M  V30 34 1 11 32
M  V30 35 1 13 33
M  V30 36 1 15 34
M  V30 37 1 16 35
M  V30 38 1 17 36
M  V30 39 1 18 37
M  V30 END BOND
M  V30 END CTAB
M  END
>  <NO.>
2578

>  <Name>
litoxetine

>  <SMILES>
c1ccc2cc(COC3CCNCC3)ccc2c1

>  <logBB>


>  <Class>
1

>  <MW>
241.15

>  <nHBAcc>
2

>  <nHBDon>
1

>  <SLogP>
3.11

>  <TopoPSA>
21.26

>  <MMFF94 Energy>
36.343

$$$$
c1ccc2oc(-c3ccncc3)cc2c1
Actelion Java MolfileCreator 2.0

  0  0  0  0  0  0              0 V3000
M  V30 BEGIN CTAB
M  V30 COUNTS 24 26 0 0 0
M  V30 BEGIN ATOM
M  V30 1 O -0.6426 -0.6426 0.4016 0
M  V30 2 C -1.0636 0.2798 1.3082 0
M  V30 3 C 0.2819 -0.0364 -0.4047 0
M  V30 4 C -0.4177 1.4906 1.0992 0
M  V30 5 C -2.0064 0.0587 2.3092 0
M  V30 6 C 0.8631 -0.8666 -1.4569 0
M  V30 7 C 0.4475 1.2777 -0.0065 0
M  V30 8 C -0.7249 2.5715 1.9443 0
M  V30 9 C -2.2993 1.1452 3.1402 0
M  V30 10 C 0.4863 -2.2032 -1.6188 0
M  V30 11 C 1.8168 -0.3437 -2.3348 0
M  V30 12 C -1.6707 2.3809 2.9625 0
M  V30 13 C 1.0685 -2.9462 -2.6328 0
M  V30 14 C 2.3427 -1.1664 -3.319 0
M  V30 15 N 1.9896 -2.4566 -3.4876 0
M  V30 16 H -2.4834 -0.9056 2.4319 0
M  V30 17 H 1.1107 2.003 -0.4543 0
M  V30 18 H -0.2428 3.5357 1.8156 0
M  V30 19 H -3.0294 1.0245 3.938 0
M  V30 20 H -0.2489 -2.6677 -0.9697 0
M  V30 21 H 2.1552 0.6837 -2.2672 0
M  V30 22 H -1.918 3.2089 3.6239 0
M  V30 23 H 0.7991 -3.9872 -2.787 0
M  V30 24 H 3.0857 -0.7954 -4.0193 0
M  V30 END ATOM
M  V30 BEGIN BOND
M  V30 1 1 1 2
M  V30 2 1 1 3
M  V30 3 2 2 4
M  V30 4 1 2 5
M  V30 5 1 3 6
M  V30 6 2 3 7
M  V30 7 1 4 8
M  V30 8 2 5 9
M  V30 9 2 6 10
M  V30 10 1 6 11
M  V30 11 2 8 12
M  V30 12 1 10 13
M  V30 13 2 11 14
M  V30 14 2 13 15
M  V30 15 1 4 7
M  V30 16 1 9 12
M  V30 17 1 14 15
M  V30 18 1 5 16
M  V30 19 1 7 17
M  V30 20 1 8 18
M  V30 21 1 9 19
M  V30 22 1 10 20
M  V30 23 1 11 21
M  V30 24 1 12 22
M  V30 25 1 13 23
M  V30 26 1 14 24
M  V30 END BOND
M  V30 END CTAB
M  END
>  <NO.>
2579

>  <Name>
pyridarone

>  <SMILES>
c1ccc2oc(-c3ccncc3)cc2c1

>  <logBB>


>  <Class>
1

>  <MW>
195.07

>  <nHBAcc>
2

>  <nHBDon>
0

>  <SLogP>
3.49

>  <TopoPSA>
26.03

>  <MMFF94 Energy>
23.206

$$$$
c1cnc(N2CCN(Cc3ccc4c(c3)OCO4)CC2)nc1
Actelion Java MolfileCreator 2.0

  0  0  0  0  0  0              0 V3000
M  V30 BEGIN CTAB
M  V30 COUNTS 40 43 0 0 0
M  V30 BEGIN ATOM
M  V30 1 O 3.6888 -0.9613 3.6085 0
M  V30 2 C 3.4501 -0.0822 2.5988 0
M  V30 3 C 5.1147 -1.1363 3.4831 0
M  V30 4 C 4.595 0.2599 1.9196 0
M  V30 5 C 2.22 0.4362 2.2552 0
M  V30 6 O 5.6985 -0.3608 2.4159 0
M  V30 7 C 4.5749 1.1394 0.8595 0
M  V30 8 C 2.1552 1.3355 1.1761 0
M  V30 9 C 3.3408 1.6823 0.487 0
M  V30 10 C 0.8269 1.9397 0.767 0
M  V30 11 N -0.1808 0.9308 0.4052 0
M  V30 12 C -1.5056 1.5716 0.2468 0
M  V30 13 C 0.1621 0.2529 -0.8669 0
M  V30 14 C -2.6215 0.5786 -0.1453 0
M  V30 15 C -0.8913 -0.7895 -1.3041 0
M  V30 16 N -2.2366 -0.2169 -1.3087 0
M  V30 17 C -3.2306 -0.9245 -1.9571 0
M  V30 18 N -4.5162 -0.6075 -1.719 0
M  V30 19 N -2.8817 -1.8984 -2.8166 0
M  V30 20 C -5.4682 -1.3016 -2.3705 0
M  V30 21 C -3.8661 -2.567 -3.4462 0
M  V30 22 C -5.1977 -2.3079 -3.259 0
M  V30 23 H 5.3228 -2.1968 3.3 0
M  V30 24 H 5.5879 -0.844 4.4276 0
M  V30 25 H 1.3261 0.1484 2.799 0
M  V30 26 H 5.4861 1.3999 0.3336 0
M  V30 27 H 3.3025 2.3784 -0.3483 0
M  V30 28 H 0.9695 2.6587 -0.0505 0
M  V30 29 H 0.4756 2.5228 1.6292 0
M  V30 30 H -1.4525 2.3616 -0.515 0
M  V30 31 H -1.7973 2.05 1.1898 0
M  V30 32 H 0.2753 0.9954 -1.6688 0
M  V30 33 H 1.1205 -0.2702 -0.7723 0
M  V30 34 H -3.5243 1.1699 -0.3414 0
M  V30 35 H -2.8326 -0.0874 0.7011 0
M  V30 36 H -0.6002 -1.1423 -2.301 0
M  V30 37 H -0.861 -1.648 -0.6208 0
M  V30 38 H -6.4887 -1.0086 -2.1445 0
M  V30 39 H -3.5332 -3.3427 -4.1287 0
M  V30 40 H -5.9743 -2.8541 -3.7731 0
M  V30 END ATOM
M  V30 BEGIN BOND
M  V30 1 1 1 2
M  V30 2 1 1 3
M  V30 3 2 2 4
M  V30 4 1 2 5
M  V30 5 1 3 6
M  V30 6 1 4 7
M  V30 7 2 5 8
M  V30 8 2 7 9
M  V30 9 1 8 10
M  V30 10 1 10 11
M  V30 11 1 11 12
M  V30 12 1 11 13
M  V30 13 1 12 14
M  V30 14 1 13 15
M  V30 15 1 14 16
M  V30 16 1 16 17
M  V30 17 2 17 18
M  V30 18 1 17 19
M  V30 19 1 18 20
M  V30 20 2 19 21
M  V30 21 2 20 22
M  V30 22 1 4 6
M  V30 23 1 8 9
M  V30 24 1 15 16
M  V30 25 1 21 22
M  V30 26 1 3 23
M  V30 27 1 3 24
M  V30 28 1 5 25
M  V30 29 1 7 26
M  V30 30 1 9 27
M  V30 31 1 10 28
M  V30 32 1 10 29
M  V30 33 1 12 30
M  V30 34 1 12 31
M  V30 35 1 13 32
M  V30 36 1 13 33
M  V30 37 1 14 34
M  V30 38 1 14 35
M  V30 39 1 15 36
M  V30 40 1 15 37
M  V30 41 1 20 38
M  V30 42 1 21 39
M  V30 43 1 22 40
M  V30 END BOND
M  V30 END CTAB
M  END
>  <NO.>
2580

>  <Name>
piribedil

>  <SMILES>
c1cnc(N2CCN(Cc3ccc4c(c3)OCO4)CC2)nc1

>  <logBB>


>  <Class>
1

>  <MW>
298.14

>  <nHBAcc>
6

>  <nHBDon>
0

>  <SLogP>
1.53

>  <TopoPSA>
50.72

>  <MMFF94 Energy>
16.02

$$$$
c1cncc(CC2(Cc3ccncc3)c3cccnc3-c3ncccc32)c1
Actelion Java MolfileCreator 2.0

  0  0  0  0  0  0              0 V3000
M  V30 BEGIN CTAB
M  V30 COUNTS 45 49 0 0 0
M  V30 BEGIN ATOM
M  V30 1 N 0.6464 0.4848 -2.9116 0
M  V30 2 C 0.4879 0.264 -1.5958 0
M  V30 3 C -0.4907 0.4294 -3.641 0
M  V30 4 C 1.5333 0.2822 -0.5906 0
M  V30 5 C -0.7416 -0.0151 -0.9775 0
M  V30 6 C -1.7566 0.16 -3.1149 0
M  V30 7 N 2.8388 0.5207 -0.8025 0
M  V30 8 C 0.9686 0.0162 0.6663 0
M  V30 9 C -1.8904 -0.0704 -1.7469 0
M  V30 10 C -0.5399 -0.2007 0.5276 0
M  V30 11 C 3.6155 0.4817 0.3033 0
M  V30 12 C 1.7843 -0.014 1.7844 0
M  V30 13 C -1.3531 0.8446 1.3564 0
M  V30 14 C -0.9623 -1.6281 1.0005 0
M  V30 15 C 3.1439 0.2243 1.5927 0
M  V30 16 C -1.2363 2.2988 0.9616 0
M  V30 17 C -0.2623 -2.8153 0.3722 0
M  V30 18 C -2.2189 2.9113 0.1858 0
M  V30 19 C -0.1566 3.0918 1.3567 0
M  V30 20 C -0.7269 -3.3819 -0.8179 0
M  V30 21 C 0.8639 -3.3852 0.9734 0
M  V30 22 N -2.1894 4.204 -0.2074 0
M  V30 23 C -0.0905 4.4233 0.9552 0
M  V30 24 C -0.0518 -4.4706 -1.3503 0
M  V30 25 C 1.4699 -4.4746 0.3649 0
M  V30 26 C -1.1192 4.9283 0.1792 0
M  V30 27 N 1.0328 -5.0349 -0.7809 0
M  V30 28 H -0.3605 0.6159 -4.7039 0
M  V30 29 H -2.6212 0.1381 -3.7704 0
M  V30 30 H -2.8624 -0.2779 -1.3137 0
M  V30 31 H 4.6713 0.6699 0.1257 0
M  V30 32 H 1.3915 -0.2149 2.7749 0
M  V30 33 H -1.0849 0.7637 2.4195 0
M  V30 34 H -2.4189 0.5764 1.3159 0
M  V30 35 H -0.8272 -1.7006 2.0894 0
M  V30 36 H -2.0426 -1.7599 0.8434 0
M  V30 37 H 3.8351 0.2116 2.4293 0
M  V30 38 H -3.0939 2.3649 -0.1552 0
M  V30 39 H 0.6427 2.6877 1.9705 0
M  V30 40 H -1.5973 -2.993 -1.3342 0
M  V30 41 H 1.2737 -2.9973 1.8992 0
M  V30 42 H 0.7468 5.0512 1.2378 0
M  V30 43 H -0.3792 -4.9314 -2.2778 0
M  V30 44 H 2.3501 -4.9393 0.7996 0
M  V30 45 H -1.1094 5.9596 -0.161 0
M  V30 END ATOM
M  V30 BEGIN BOND
M  V30 1 2 1 2
M  V30 2 1 1 3
M  V30 3 1 2 4
M  V30 4 1 2 5
M  V30 5 2 3 6
M  V30 6 2 4 7
M  V30 7 1 4 8
M  V30 8 2 5 9
M  V30 9 1 5 10
M  V30 10 1 7 11
M  V30 11 2 8 12
M  V30 12 1 10 13
M  V30 13 1 10 14
M  V30 14 2 11 15
M  V30 15 1 13 16
M  V30 16 1 14 17
M  V30 17 2 16 18
M  V30 18 1 16 19
M  V30 19 2 17 20
M  V30 20 1 17 21
M  V30 21 1 18 22
M  V30 22 2 19 23
M  V30 23 1 20 24
M  V30 24 2 21 25
M  V30 25 2 22 26
M  V30 26 2 24 27
M  V30 27 1 6 9
M  V30 28 1 8 10
M  V30 29 1 12 15
M  V30 30 1 23 26
M  V30 31 1 25 27
M  V30 32 1 3 28
M  V30 33 1 6 29
M  V30 34 1 9 30
M  V30 35 1 11 31
M  V30 36 1 12 32
M  V30 37 1 13 33
M  V30 38 1 13 34
M  V30 39 1 14 35
M  V30 40 1 14 36
M  V30 41 1 15 37
M  V30 42 1 18 38
M  V30 43 1 19 39
M  V30 44 1 20 40
M  V30 45 1 21 41
M  V30 46 1 23 42
M  V30 47 1 24 43
M  V30 48 1 25 44
M  V30 49 1 26 45
M  V30 END BOND
M  V30 END CTAB
M  END
>  <NO.>
2581

>  <Name>
schembl120952

>  <SMILES>
c1cncc(CC2(Cc3ccncc3)c3cccnc3-c3ncccc32)c1

>  <logBB>


>  <Class>
1

>  <MW>
350.15

>  <nHBAcc>
4

>  <nHBDon>
0

>  <SLogP>
4.02

>  <TopoPSA>
51.56

>  <MMFF94 Energy>
137.71

$$$$
c1csc(Cc2ccccc2OCC2CNCCO2)c1
Actelion Java MolfileCreator 2.0

  0  0  0  0  0  0              0 V3000
M  V30 BEGIN CTAB
M  V30 COUNTS 39 41 0 0 0
M  V30 BEGIN ATOM
M  V30 1 S 1.6955 1.2108 1.857 0
M  V30 2 C 2.482 0.87 0.3717 0
M  V30 3 C 3.138 1.7985 2.5607 0
M  V30 4 C 3.8199 1.2135 0.4203 0
M  V30 5 C 1.713 0.2845 -0.7834 0
M  V30 6 C 4.1991 1.7466 1.6858 0
M  V30 7 C 1.4329 -1.1983 -0.6295 0
M  V30 8 C 0.1339 -1.6873 -0.3972 0
M  V30 9 C 2.5041 -2.1083 -0.7032 0
M  V30 10 O -0.8702 -0.7565 -0.3636 0
M  V30 11 C -0.0704 -3.0645 -0.2539 0
M  V30 12 C 2.2906 -3.4767 -0.551 0
M  V30 13 C -2.0911 -1.1324 0.2721 0
M  V30 14 C 1.0039 -3.954 -0.3274 0
M  V30 15 C -3.0596 0.0583 0.4364 0 CFG=2
M  V30 16 O -3.793 0.3336 -0.7774 0
M  V30 17 C -2.4332 1.3451 1.0209 0
M  V30 18 C -3.0113 1.062 -1.7324 0
M  V30 19 N -1.6737 2.1531 0.0561 0
M  V30 20 C -2.4882 2.3776 -1.1427 0
M  V30 21 H 3.137 2.1549 3.5813 0
M  V30 22 H 4.4975 1.0855 -0.4149 0
M  V30 23 H 0.7935 0.8583 -0.943 0
M  V30 24 H 2.2892 0.4226 -1.7087 0
M  V30 25 H 5.1986 2.0756 1.941 0
M  V30 26 H 3.5159 -1.7473 -0.874 0
M  V30 27 H -1.06 -3.4801 -0.0973 0
M  V30 28 H 3.1273 -4.1677 -0.6072 0
M  V30 29 H -1.8668 -1.5293 1.2703 0
M  V30 30 H -2.5918 -1.8995 -0.3302 0
M  V30 31 H 0.8326 -5.0212 -0.2143 0
M  V30 32 H -3.8286 -0.2782 1.1434 0
M  V30 33 H -1.79 1.0941 1.8712 0
M  V30 34 H -3.2444 1.9729 1.4123 0
M  V30 35 H -3.6648 1.2813 -2.5833 0
M  V30 36 H -2.1982 0.4339 -2.1095 0
M  V30 37 H -1.4176 3.0437 0.4785 0
M  V30 38 H -3.3349 3.0245 -0.8826 0
M  V30 39 H -1.8877 2.9024 -1.8927 0
M  V30 END ATOM
M  V30 BEGIN BOND
M  V30 1 1 1 2
M  V30 2 1 1 3
M  V30 3 2 2 4
M  V30 4 1 2 5
M  V30 5 2 3 6
M  V30 6 1 5 7
M  V30 7 2 7 8
M  V30 8 1 7 9
M  V30 9 1 8 10
M  V30 10 1 8 11
M  V30 11 2 9 12
M  V30 12 1 10 13
M  V30 13 2 11 14
M  V30 14 1 13 15
M  V30 15 1 15 16
M  V30 16 1 15 17
M  V30 17 1 16 18
M  V30 18 1 17 19
M  V30 19 1 18 20
M  V30 20 1 4 6
M  V30 21 1 12 14
M  V30 22 1 19 20
M  V30 23 1 3 21
M  V30 24 1 4 22
M  V30 25 1 5 23
M  V30 26 1 5 24
M  V30 27 1 6 25
M  V30 28 1 9 26
M  V30 29 1 11 27
M  V30 30 1 12 28
M  V30 31 1 13 29
M  V30 32 1 13 30
M  V30 33 1 14 31
M  V30 34 1 15 32
M  V30 35 1 17 33
M  V30 36 1 17 34
M  V30 37 1 18 35
M  V30 38 1 18 36
M  V30 39 1 19 37
M  V30 40 1 20 38
M  V30 41 1 20 39
M  V30 END BOND
M  V30 BEGIN COLLECTION
M  V30 MDLV30/STERAC1 ATOMS=(1 15)
M  V30 END COLLECTION
M  V30 END CTAB
M  END
>  <NO.>
2582

>  <Name>
teniloxazine

>  <SMILES>
c1csc(Cc2ccccc2OCC2CNCCO2)c1

>  <logBB>


>  <Class>
1

>  <MW>
289.11

>  <nHBAcc>
4

>  <nHBDon>
1

>  <SLogP>
2.71

>  <TopoPSA>
30.49

>  <MMFF94 Energy>
113.96

$$$$
C=CCOc1ccc(CC(=O)O)cc1Cl
Actelion Java MolfileCreator 2.0

  0  0  0  0  0  0              0 V3000
M  V30 BEGIN CTAB
M  V30 COUNTS 26 26 0 0 0
M  V30 BEGIN ATOM
M  V30 1 Cl 2.5597 -1.7592 1.0392 0
M  V30 2 C 1.1254 -1.1586 0.2791 0
M  V30 3 C 0.952 0.2105 0.023 0
M  V30 4 C 0.1386 -2.0859 -0.0744 0
M  V30 5 O 1.9718 1.0437 0.4022 0
M  V30 6 C -0.2296 0.6303 -0.5955 0
M  V30 7 C -1.0406 -1.6633 -0.6998 0
M  V30 8 C 1.795 2.4441 0.2093 0
M  V30 9 C -1.2164 -0.2974 -0.9514 0
M  V30 10 C -2.114 -2.6588 -1.0716 0
M  V30 11 C 3.0335 3.1245 0.7094 0
M  V30 12 C -3.2193 -2.7757 -0.0506 0
M  V30 13 C 3.0541 4.0943 1.6335 0
M  V30 14 O -3.4013 -2.0994 0.9471 0
M  V30 15 O -4.0856 -3.7643 -0.3619 0
M  V30 16 H 0.2951 -3.1403 0.1425 0
M  V30 17 H -0.422 1.6754 -0.8155 0
M  V30 18 H 0.9133 2.7962 0.7581 0
M  V30 19 H 1.6864 2.6676 -0.8584 0
M  V30 20 H -2.1306 0.0606 -1.4222 0
M  V30 21 H -2.5584 -2.3686 -2.031 0
M  V30 22 H -1.6605 -3.6483 -1.2044 0
M  V30 23 H 3.9726 2.7836 0.2793 0
M  V30 24 H 2.145 4.4615 2.0994 0
M  V30 25 H 3.994 4.535 1.9521 0
M  V30 26 H -4.7443 -3.7358 0.3645 0
M  V30 END ATOM
M  V30 BEGIN BOND
M  V30 1 1 1 2
M  V30 2 2 2 3
M  V30 3 1 2 4
M  V30 4 1 3 5
M  V30 5 1 3 6
M  V30 6 2 4 7
M  V30 7 1 5 8
M  V30 8 2 6 9
M  V30 9 1 7 10
M  V30 10 1 8 11
M  V30 11 1 10 12
M  V30 12 2 11 13
M  V30 13 2 12 14
M  V30 14 1 12 15
M  V30 15 1 7 9
M  V30 16 1 4 16
M  V30 17 1 6 17
M  V30 18 1 8 18
M  V30 19 1 8 19
M  V30 20 1 9 20
M  V30 21 1 10 21
M  V30 22 1 10 22
M  V30 23 1 11 23
M  V30 24 1 13 24
M  V30 25 1 13 25
M  V30 26 1 15 26
M  V30 END BOND
M  V30 END CTAB
M  END
>  <NO.>
2583

>  <Name>
alclofenac

>  <SMILES>
C=CCOc1ccc(CC(=O)O)cc1Cl

>  <logBB>


>  <Class>
-1

>  <MW>
226.04

>  <nHBAcc>
2

>  <nHBDon>
1

>  <SLogP>
2.53

>  <TopoPSA>
46.53

>  <MMFF94 Energy>
38.606

$$$$
CC(=O)C[C@@H](c1ccccc1)c1c(O)c2ccccc2oc1=O
Actelion Java MolfileCreator 2.0

  0  0  0  0  0  0              0 V3000
M  V30 BEGIN CTAB
M  V30 COUNTS 39 41 0 0 0
M  V30 BEGIN ATOM
M  V30 1 O 1.4454 -0.9634 1.6061 0
M  V30 2 C 0.2587 -0.7815 1.3519 0
M  V30 3 O -0.7233 -1.3909 2.1195 0
M  V30 4 C -0.1791 0.1242 0.2561 0
M  V30 5 C -2.0723 -1.0218 2.0086 0
M  V30 6 C -1.4667 0.5129 0.2002 0
M  V30 7 C 0.8737 0.5647 -0.7586 0 CFG=2
M  V30 8 C -2.4743 -0.064 1.0859 0
M  V30 9 C -2.9736 -1.6401 2.8747 0
M  V30 10 O -1.9356 1.4605 -0.688 0
M  V30 11 C 1.5002 -0.6241 -1.492 0
M  V30 12 C 1.8875 1.5728 -0.1806 0
M  V30 13 C -3.8303 0.28 1.0393 0
M  V30 14 C -4.3201 -1.2893 2.8182 0
M  V30 15 C 0.7755 -1.2378 -2.5304 0
M  V30 16 C 2.7595 -1.1465 -1.1634 0
M  V30 17 C 1.2462 2.9208 0.1 0
M  V30 18 C -4.7486 -0.3286 1.9018 0
M  V30 19 C 1.3019 -2.3269 -3.2269 0
M  V30 20 C 3.2841 -2.2378 -1.8604 0
M  V30 21 O 0.1137 3.2064 -0.2959 0
M  V30 22 C 2.0808 3.9146 0.8638 0
M  V30 23 C 2.5578 -2.8251 -2.8931 0
M  V30 24 H 0.3661 1.1076 -1.5696 0
M  V30 25 H -2.6285 -2.3839 3.5867 0
M  V30 26 H -1.277 2.1921 -0.723 0
M  V30 27 H 2.6937 1.7563 -0.9014 0
M  V30 28 H 2.3415 1.2095 0.7464 0
M  V30 29 H -4.1849 1.0208 0.3258 0
M  V30 30 H -5.0354 -1.7619 3.4864 0
M  V30 31 H -0.2118 -0.8685 -2.8041 0
M  V30 32 H 3.3422 -0.7314 -0.3443 0
M  V30 33 H -5.7993 -0.0531 1.8534 0
M  V30 34 H 0.7286 -2.7881 -4.0267 0
M  V30 35 H 4.2579 -2.636 -1.5871 0
M  V30 36 H 1.5154 4.8399 1.0045 0
M  V30 37 H 2.3334 3.5037 1.8443 0
M  V30 38 H 2.9907 4.137 0.3013 0
M  V30 39 H 2.9667 -3.6763 -3.4305 0
M  V30 END ATOM
M  V30 BEGIN BOND
M  V30 1 2 1 2
M  V30 2 1 2 3
M  V30 3 1 2 4
M  V30 4 1 3 5
M  V30 5 2 4 6
M  V30 6 1 4 7
M  V30 7 2 5 8
M  V30 8 1 5 9
M  V30 9 1 6 10
M  V30 10 1 7 11
M  V30 11 1 7 12
M  V30 12 1 8 13
M  V30 13 2 9 14
M  V30 14 2 11 15
M  V30 15 1 11 16
M  V30 16 1 12 17
M  V30 17 2 13 18
M  V30 18 1 15 19
M  V30 19 2 16 20
M  V30 20 2 17 21
M  V30 21 1 17 22
M  V30 22 2 19 23
M  V30 23 1 6 8
M  V30 24 1 14 18
M  V30 25 1 20 23
M  V30 26 1 7 24
M  V30 27 1 9 25
M  V30 28 1 10 26
M  V30 29 1 12 27
M  V30 30 1 12 28
M  V30 31 1 13 29
M  V30 32 1 14 30
M  V30 33 1 15 31
M  V30 34 1 16 32
M  V30 35 1 18 33
M  V30 36 1 19 34
M  V30 37 1 20 35
M  V30 38 1 22 36
M  V30 39 1 22 37
M  V30 40 1 22 38
M  V30 41 1 23 39
M  V30 END BOND
M  V30 BEGIN COLLECTION
M  V30 MDLV30/STEABS ATOMS=(1 7)
M  V30 END COLLECTION
M  V30 END CTAB
M  END
>  <NO.>
2584

>  <Name>
(s)-warfarin

>  <SMILES>
CC(=O)C[C@@H](c1ccccc1)c1c(O)c2ccccc2oc1=O

>  <logBB>


>  <Class>
-1

>  <MW>
308.1

>  <nHBAcc>
4

>  <nHBDon>
1

>  <SLogP>
3.61

>  <TopoPSA>
67.51

>  <MMFF94 Energy>
44.736

$$$$
CC(C(O)c1ccc(O)cc1)N1CCC(Cc2ccccc2)CC1
Actelion Java MolfileCreator 2.0

  0  0  0  0  0  0              0 V3000
M  V30 BEGIN CTAB
M  V30 COUNTS 51 53 0 0 0
M  V30 BEGIN ATOM
M  V30 1 O 4.7537 2.7708 -0.1581 0
M  V30 2 C 4.211 1.5464 -0.4133 0
M  V30 3 C 3.9034 0.7357 0.6714 0
M  V30 4 C 3.9755 1.1151 -1.7136 0
M  V30 5 C 3.3466 -0.5265 0.4574 0
M  V30 6 C 3.4168 -0.1471 -1.9267 0
M  V30 7 C 3.0848 -0.981 -0.845 0
M  V30 8 C 2.468 -2.346 -1.0718 0
M  V30 9 O 3.4008 -3.0649 -1.8921 0
M  V30 10 C 1.0461 -2.3249 -1.7412 0
M  V30 11 N -0.0971 -1.7553 -0.9839 0
M  V30 12 C 0.6361 -3.7492 -2.1694 0
M  V30 13 C -0.1906 -2.1897 0.4118 0
M  V30 14 C -0.1846 -0.2942 -1.0937 0
M  V30 15 C -1.5191 -1.7462 1.0287 0
M  V30 16 C -1.5137 0.2147 -0.5297 0
M  V30 17 C -1.7105 -0.2255 0.9287 0
M  V30 18 C -3.0948 0.1695 1.4759 0
M  V30 19 C -3.2942 1.6609 1.6036 0
M  V30 20 C -2.6349 2.3835 2.6074 0
M  V30 21 C -4.1366 2.3451 0.7172 0
M  V30 22 C -2.8138 3.7631 2.7207 0
M  V30 23 C -4.3145 3.7248 0.8321 0
M  V30 24 C -3.6532 4.4334 1.8333 0
M  V30 25 H 4.9305 3.2101 -1.0059 0
M  V30 26 H 4.0995 1.0837 1.6814 0
M  V30 27 H 4.2218 1.7363 -2.5683 0
M  V30 28 H 3.1169 -1.1506 1.3172 0
M  V30 29 H 3.2489 -0.4897 -2.9457 0
M  V30 30 H 2.4209 -2.8889 -0.1199 0
M  V30 31 H 3.255 -4.0109 -1.7276 0
M  V30 32 H 1.1294 -1.7796 -2.6918 0
M  V30 33 H 0.6566 -4.4506 -1.329 0
M  V30 34 H 1.3074 -4.1331 -2.945 0
M  V30 35 H -0.3732 -3.7572 -2.5971 0
M  V30 36 H 0.6337 -1.7873 1.0113 0
M  V30 37 H -0.1403 -3.2816 0.4819 0
M  V30 38 H -0.1304 0.0109 -2.1455 0
M  V30 39 H 0.6361 0.2004 -0.5654 0
M  V30 40 H -1.5491 -2.0565 2.0802 0
M  V30 41 H -2.3453 -2.2622 0.5218 0
M  V30 42 H -1.53 1.308 -0.6037 0
M  V30 43 H -2.3396 -0.1592 -1.149 0
M  V30 44 H -0.9319 0.2528 1.5387 0
M  V30 45 H -3.8837 -0.2594 0.8442 0
M  V30 46 H -3.2406 -0.2734 2.4702 0
M  V30 47 H -1.977 1.8743 3.3077 0
M  V30 48 H -4.6572 1.8076 -0.0718 0
M  V30 49 H -2.2973 4.3147 3.5017 0
M  V30 50 H -4.9688 4.2467 0.139 0
M  V30 51 H -3.7917 5.5075 1.9216 0
M  V30 END ATOM
M  V30 BEGIN BOND
M  V30 1 1 1 2
M  V30 2 2 2 3
M  V30 3 1 2 4
M  V30 4 1 3 5
M  V30 5 2 4 6
M  V30 6 2 5 7
M  V30 7 1 7 8
M  V30 8 1 8 9
M  V30 9 1 8 10
M  V30 10 1 10 11
M  V30 11 1 10 12
M  V30 12 1 11 13
M  V30 13 1 11 14
M  V30 14 1 13 15
M  V30 15 1 14 16
M  V30 16 1 15 17
M  V30 17 1 17 18
M  V30 18 1 18 19
M  V30 19 2 19 20
M  V30 20 1 19 21
M  V30 21 1 20 22
M  V30 22 2 21 23
M  V30 23 2 22 24
M  V30 24 1 6 7
M  V30 25 1 16 17
M  V30 26 1 23 24
M  V30 27 1 1 25
M  V30 28 1 3 26
M  V30 29 1 4 27
M  V30 30 1 5 28
M  V30 31 1 6 29
M  V30 32 1 8 30
M  V30 33 1 9 31
M  V30 34 1 10 32
M  V30 35 1 12 33
M  V30 36 1 12 34
M  V30 37 1 12 35
M  V30 38 1 13 36
M  V30 39 1 13 37
M  V30 40 1 14 38
M  V30 41 1 14 39
M  V30 42 1 15 40
M  V30 43 1 15 41
M  V30 44 1 16 42
M  V30 45 1 16 43
M  V30 46 1 17 44
M  V30 47 1 18 45
M  V30 48 1 18 46
M  V30 49 1 20 47
M  V30 50 1 21 48
M  V30 51 1 22 49
M  V30 52 1 23 50
M  V30 53 1 24 51
M  V30 END BOND
M  V30 END CTAB
M  END
>  <NO.>
2586

>  <Name>
ifenprodil

>  <SMILES>
CC(C(O)c1ccc(O)cc1)N1CCC(Cc2ccccc2)CC1

>  <logBB>


>  <Class>
1

>  <MW>
325.2

>  <nHBAcc>
3

>  <nHBDon>
2

>  <SLogP>
3.77

>  <TopoPSA>
43.7

>  <MMFF94 Energy>
73.947

$$$$
CC(C)(C)NCC(O)c1cc(O)cc(O)c1
Actelion Java MolfileCreator 2.0

  0  0  0  0  0  0              0 V3000
M  V30 BEGIN CTAB
M  V30 COUNTS 35 35 0 0 0
M  V30 BEGIN ATOM
M  V30 1 O -2.6458 -0.6998 -2.8795 0
M  V30 2 C -2.3051 -1.4702 -1.8057 0
M  V30 3 C -2.7841 -2.7669 -1.6686 0
M  V30 4 C -1.4574 -0.9104 -0.8506 0
M  V30 5 C -2.4006 -3.5071 -0.5589 0
M  V30 6 C -1.0742 -1.6474 0.2788 0
M  V30 7 O -2.8761 -4.7812 -0.4501 0
M  V30 8 C -1.5566 -2.9645 0.4083 0
M  V30 9 C -0.1575 -1.1083 1.3612 0 CFG=1
M  V30 10 O 1.0581 -1.8712 1.337 0
M  V30 11 C 0.2032 0.4035 1.3318 0
M  V30 12 N 1.2147 0.7162 0.3036 0
M  V30 13 C 1.5579 2.1424 0.1478 0
M  V30 14 C 0.3543 2.9641 -0.3421 0
M  V30 15 C 2.6544 2.2017 -0.9337 0
M  V30 16 C 2.118 2.7523 1.4433 0
M  V30 17 H -3.2217 -1.2226 -3.4615 0
M  V30 18 H -3.4429 -3.2121 -2.4058 0
M  V30 19 H -1.1006 0.1032 -1.0128 0
M  V30 20 H -2.5053 -5.1815 0.3539 0
M  V30 21 H -1.2562 -3.5545 1.2713 0
M  V30 22 H -0.6395 -1.3017 2.3281 0
M  V30 23 H 1.3228 -1.8853 0.3983 0
M  V30 24 H -0.711 0.9915 1.2062 0
M  V30 25 H 0.6282 0.6494 2.3121 0
M  V30 26 H 2.0606 0.1953 0.5468 0
M  V30 27 H -0.4306 3.0397 0.4173 0
M  V30 28 H 0.6563 3.9881 -0.5922 0
M  V30 29 H -0.0881 2.5245 -1.2435 0
M  V30 30 H 2.303 1.7801 -1.8832 0
M  V30 31 H 2.9632 3.2356 -1.1276 0
M  V30 32 H 3.5487 1.6439 -0.6309 0
M  V30 33 H 1.3554 2.8191 2.2269 0
M  V30 34 H 2.9538 2.1604 1.834 0
M  V30 35 H 2.4891 3.769 1.2685 0
M  V30 END ATOM
M  V30 BEGIN BOND
M  V30 1 1 1 2
M  V30 2 2 2 3
M  V30 3 1 2 4
M  V30 4 1 3 5
M  V30 5 2 4 6
M  V30 6 1 5 7
M  V30 7 2 5 8
M  V30 8 1 6 9
M  V30 9 1 9 10
M  V30 10 1 9 11
M  V30 11 1 11 12
M  V30 12 1 12 13
M  V30 13 1 13 14
M  V30 14 1 13 15
M  V30 15 1 13 16
M  V30 16 1 6 8
M  V30 17 1 1 17
M  V30 18 1 3 18
M  V30 19 1 4 19
M  V30 20 1 7 20
M  V30 21 1 8 21
M  V30 22 1 9 22
M  V30 23 1 10 23
M  V30 24 1 11 24
M  V30 25 1 11 25
M  V30 26 1 12 26
M  V30 27 1 14 27
M  V30 28 1 14 28
M  V30 29 1 14 29
M  V30 30 1 15 30
M  V30 31 1 15 31
M  V30 32 1 15 32
M  V30 33 1 16 33
M  V30 34 1 16 34
M  V30 35 1 16 35
M  V30 END BOND
M  V30 BEGIN COLLECTION
M  V30 MDLV30/STERAC1 ATOMS=(1 9)
M  V30 END COLLECTION
M  V30 END CTAB
M  END
>  <NO.>
2587

>  <Name>
terbutaline sulfate

>  <SMILES>
CC(C)(C)NCC(O)c1cc(O)cc(O)c1

>  <logBB>


>  <Class>
-1

>  <MW>
225.14

>  <nHBAcc>
4

>  <nHBDon>
4

>  <SLogP>
1.52

>  <TopoPSA>
72.72

>  <MMFF94 Energy>
33.145

$$$$
CC(C)(C)S(=O)(=O)C[C@@H](Cc1ccccc1)C(=O)N[C@@H](Cc1cnc[nH]1)C(=O)N[C@@H](CC1CCCCC1)[C@@H](O)[C@@H](O)C1CC1
Actelion Java MolfileCreator 2.0

  0  0  0  0  0  0              0 V3000
M  V30 BEGIN CTAB
M  V30 COUNTS 94 97 0 0 0
M  V30 BEGIN ATOM
M  V30 1 S 1.9928 4.1486 -2.8707 0
M  V30 2 O 2.6052 2.956 -2.3104 0
M  V30 3 O 1.7582 5.2898 -2.0045 0
M  V30 4 C 3.0146 4.7039 -4.2854 0
M  V30 5 C 0.395 3.7008 -3.5536 0
M  V30 6 C 3.3188 3.5236 -5.2181 0
M  V30 7 C 2.2907 5.8125 -5.0591 0
M  V30 8 C 4.338 5.2543 -3.7275 0
M  V30 9 C -0.4259 2.9109 -2.5303 0 CFG=2
M  V30 10 C 0.0694 1.4711 -2.5052 0
M  V30 11 C -1.9154 2.9166 -2.917 0
M  V30 12 O 0.3665 0.8611 -3.5284 0
M  V30 13 N 0.1064 0.9106 -1.2584 0
M  V30 14 C -2.7933 2.2511 -1.8826 0
M  V30 15 C 0.3911 -0.5041 -1.025 0 CFG=2
M  V30 16 C -3.2941 0.96 -2.1033 0
M  V30 17 C -3.0743 2.8914 -0.6684 0
M  V30 18 C -0.087 -0.8253 0.4074 0
M  V30 19 C 1.8521 -0.8976 -1.2988 0
M  V30 20 C -4.0525 0.3183 -1.1236 0
M  V30 21 C -3.8328 2.2468 0.3097 0
M  V30 22 O -0.5521 0.0425 1.1522 0
M  V30 23 N -0.0066 -2.1423 0.7883 0
M  V30 24 C 2.84 -0.3101 -0.3513 0
M  V30 25 C -4.3192 0.9607 0.0833 0
M  V30 26 C -0.4928 -2.6184 2.0857 0 CFG=2
M  V30 27 N 3.2573 0.9967 -0.4103 0
M  V30 28 C 3.5498 -0.8558 0.6961 0
M  V30 29 C 0.6234 -2.5592 3.1695 0 CFG=1
M  V30 30 C -1.0331 -4.059 1.9369 0
M  V30 31 C 4.1488 1.1878 0.6068 0
M  V30 32 N 4.3456 0.0851 1.293 0
M  V30 33 O 1.7577 -3.3119 2.6994 0
M  V30 34 C 1.0283 -1.1125 3.5682 0 CFG=1
M  V30 35 C -2.16 -4.2327 0.8863 0
M  V30 36 O -0.1321 -0.3302 3.8515 0
M  V30 37 C 1.946 -1.1107 4.772 0
M  V30 38 C -2.5901 -5.7094 0.7903 0
M  V30 39 C -3.3964 -3.3525 1.135 0
M  V30 40 C 1.9447 0.0211 5.7728 0
M  V30 41 C 1.4218 -1.3325 6.1699 0
M  V30 42 C -3.4134 -6.1742 1.9917 0
M  V30 43 C -4.1985 -3.7951 2.3561 0
M  V30 44 C -4.6083 -5.2612 2.2507 0
M  V30 45 H -0.1025 4.6423 -3.8086 0
M  V30 46 H 0.5593 3.1341 -4.4719 0
M  V30 47 H 3.9714 3.8339 -6.042 0
M  V30 48 H 3.8232 2.7103 -4.6852 0
M  V30 49 H 2.409 3.1098 -5.6626 0
M  V30 50 H 2.0237 6.6491 -4.4044 0
M  V30 51 H 2.9217 6.207 -5.8635 0
M  V30 52 H 1.3675 5.4464 -5.5196 0
M  V30 53 H 4.1665 6.1077 -3.0621 0
M  V30 54 H 4.8732 4.4921 -3.1503 0
M  V30 55 H 4.9994 5.5892 -4.5342 0
M  V30 56 H -0.3021 3.358 -1.5358 0
M  V30 57 H -2.2655 3.9492 -3.0457 0
M  V30 58 H -2.0585 2.428 -3.89 0
M  V30 59 H -0.2499 1.4233 -0.4536 0
M  V30 60 H -0.2523 -1.07 -1.7112 0
M  V30 61 H -3.0822 0.4376 -3.0338 0
M  V30 62 H -2.6965 3.8917 -0.4688 0
M  V30 63 H 2.1345 -0.6136 -2.3198 0
M  V30 64 H 1.9448 -1.9902 -1.2592 0
M  V30 65 H -4.4297 -0.6857 -1.2981 0
M  V30 66 H -4.0376 2.7446 1.2543 0
M  V30 67 H 0.533 -2.7987 0.2389 0
M  V30 68 H -4.902 0.458 0.8507 0
M  V30 69 H -1.3194 -1.9776 2.4081 0
M  V30 70 H 2.9668 1.7001 -1.0868 0
M  V30 71 H 3.5218 -1.8756 1.0586 0
M  V30 72 H 0.2441 -3.0713 4.0634 0
M  V30 73 H -0.2065 -4.7253 1.656 0
M  V30 74 H -1.3806 -4.3997 2.919 0
M  V30 75 H 4.618 2.1452 0.7888 0
M  V30 76 H 2.3893 -3.3579 3.439 0
M  V30 77 H 1.5786 -0.6298 2.7552 0
M  V30 78 H -1.7464 -3.9549 -0.0918 0
M  V30 79 H -0.4136 0.0429 2.9866 0
M  V30 80 H 2.9245 -1.5071 4.521 0
M  V30 81 H -1.7116 -6.3549 0.6746 0
M  V30 82 H -3.1924 -5.8415 -0.118 0
M  V30 83 H -3.1223 -2.2976 1.2316 0
M  V30 84 H -4.0474 -3.4089 0.2521 0
M  V30 85 H 1.2288 0.8264 5.6505 0
M  V30 86 H 2.8991 0.3398 6.1756 0
M  V30 87 H 0.3512 -1.4278 6.3155 0
M  V30 88 H 2.0197 -1.9255 6.8514 0
M  V30 89 H -3.7674 -7.1967 1.8169 0
M  V30 90 H -2.7814 -6.2131 2.8863 0
M  V30 91 H -5.0959 -3.1725 2.4488 0
M  V30 92 H -3.6113 -3.6385 3.2684 0
M  V30 93 H -5.3328 -5.3755 1.4347 0
M  V30 94 H -5.1166 -5.57 3.1711 0
M  V30 END ATOM
M  V30 BEGIN BOND
M  V30 1 2 1 2
M  V30 2 2 1 3
M  V30 3 1 1 4
M  V30 4 1 1 5
M  V30 5 1 4 6
M  V30 6 1 4 7
M  V30 7 1 4 8
M  V30 8 1 5 9
M  V30 9 1 9 10
M  V30 10 1 9 11
M  V30 11 2 10 12
M  V30 12 1 10 13
M  V30 13 1 11 14
M  V30 14 1 13 15
M  V30 15 2 14 16
M  V30 16 1 14 17
M  V30 17 1 15 18
M  V30 18 1 15 19
M  V30 19 1 16 20
M  V30 20 2 17 21
M  V30 21 2 18 22
M  V30 22 1 18 23
M  V30 23 1 19 24
M  V30 24 2 20 25
M  V30 25 1 23 26
M  V30 26 1 24 27
M  V30 27 2 24 28
M  V30 28 1 26 29
M  V30 29 1 26 30
M  V30 30 1 27 31
M  V30 31 1 28 32
M  V30 32 1 29 33
M  V30 33 1 29 34
M  V30 34 1 30 35
M  V30 35 1 34 36
M  V30 36 1 34 37
M  V30 37 1 35 38
M  V30 38 1 35 39
M  V30 39 1 37 40
M  V30 40 1 37 41
M  V30 41 1 38 42
M  V30 42 1 39 43
M  V30 43 1 42 44
M  V30 44 1 21 25
M  V30 45 2 31 32
M  V30 46 1 40 41
M  V30 47 1 43 44
M  V30 48 1 5 45
M  V30 49 1 5 46
M  V30 50 1 6 47
M  V30 51 1 6 48
M  V30 52 1 6 49
M  V30 53 1 7 50
M  V30 54 1 7 51
M  V30 55 1 7 52
M  V30 56 1 8 53
M  V30 57 1 8 54
M  V30 58 1 8 55
M  V30 59 1 9 56
M  V30 60 1 11 57
M  V30 61 1 11 58
M  V30 62 1 13 59
M  V30 63 1 15 60
M  V30 64 1 16 61
M  V30 65 1 17 62
M  V30 66 1 19 63
M  V30 67 1 19 64
M  V30 68 1 20 65
M  V30 69 1 21 66
M  V30 70 1 23 67
M  V30 71 1 25 68
M  V30 72 1 26 69
M  V30 73 1 27 70
M  V30 74 1 28 71
M  V30 75 1 29 72
M  V30 76 1 30 73
M  V30 77 1 30 74
M  V30 78 1 31 75
M  V30 79 1 33 76
M  V30 80 1 34 77
M  V30 81 1 35 78
M  V30 82 1 36 79
M  V30 83 1 37 80
M  V30 84 1 38 81
M  V30 85 1 38 82
M  V30 86 1 39 83
M  V30 87 1 39 84
M  V30 88 1 40 85
M  V30 89 1 40 86
M  V30 90 1 41 87
M  V30 91 1 41 88
M  V30 92 1 42 89
M  V30 93 1 42 90
M  V30 94 1 43 91
M  V30 95 1 43 92
M  V30 96 1 44 93
M  V30 97 1 44 94
M  V30 END BOND
M  V30 BEGIN COLLECTION
M  V30 MDLV30/STEABS ATOMS=(5 9 15 26 29 34)
M  V30 END COLLECTION
M  V30 END CTAB
M  END
>  <NO.>
2588

>  <Name>
remikiren

>  <SMILES>
CC(C)(C)S(=O)(=O)C[C@@H](Cc1ccccc1)C(=O)N[C@@H](Cc1cnc[nH]1)C(=O)N[C@@H](CC1CCCCC1)[C@@H](O)[C@@H](O)C1CC1

>  <logBB>


>  <Class>
-1

>  <MW>
630.35

>  <nHBAcc>
7

>  <nHBDon>
5

>  <SLogP>
3.1

>  <TopoPSA>
161.48

>  <MMFF94 Energy>
56.267

$$$$
CC(CS)C(=O)N1CCCC1C(=O)O
Actelion Java MolfileCreator 2.0

  0  0  0  0  0  0              0 V3000
M  V30 BEGIN CTAB
M  V30 COUNTS 29 29 0 0 0
M  V30 BEGIN ATOM
M  V30 1 S 0.8815 4.4138 -0.9617 0
M  V30 2 C 0.3143 2.7493 -1.4442 0
M  V30 3 C -0.0373 1.8664 -0.2385 0
M  V30 4 C -0.2819 0.4445 -0.7344 0
M  V30 5 C -1.2915 2.3427 0.4977 0
M  V30 6 O -0.7925 0.2325 -1.8358 0
M  V30 7 N 0.06 -0.594 0.1007 0
M  V30 8 C -0.1404 -1.9831 -0.3241 0
M  V30 9 C 0.5736 -0.5302 1.4567 0
M  V30 10 C 0.7917 -2.3565 -1.4758 0
M  V30 11 C 0.2065 -2.8235 0.9088 0
M  V30 12 C 0.1156 -1.8417 2.0708 0
M  V30 13 O 1.9177 -1.9285 -1.6812 0
M  V30 14 O 0.278 -3.3244 -2.2649 0
M  V30 15 H -0.3168 4.8864 -0.5888 0
M  V30 16 H 1.1226 2.2875 -2.0223 0
M  V30 17 H -0.5419 2.8633 -2.1183 0
M  V30 18 H 0.8153 1.8604 0.4497 0
M  V30 19 H -1.1206 3.2972 1.0044 0
M  V30 20 H -1.61 1.6208 1.2569 0
M  V30 21 H -2.1308 2.4698 -0.1954 0
M  V30 22 H -1.1852 -2.0977 -0.6339 0
M  V30 23 H 0.2014 0.3367 2.0059 0
M  V30 24 H 1.666 -0.4763 1.3968 0
M  V30 25 H 1.224 -3.2291 0.8474 0
M  V30 26 H -0.476 -3.6703 1.0319 0
M  V30 27 H -0.9276 -1.7578 2.399 0
M  V30 28 H 0.7219 -2.141 2.9301 0
M  V30 29 H 0.9559 -3.4359 -2.9642 0
M  V30 END ATOM
M  V30 BEGIN BOND
M  V30 1 1 1 2
M  V30 2 1 2 3
M  V30 3 1 3 4
M  V30 4 1 3 5
M  V30 5 2 4 6
M  V30 6 1 4 7
M  V30 7 1 7 8
M  V30 8 1 7 9
M  V30 9 1 8 10
M  V30 10 1 8 11
M  V30 11 1 9 12
M  V30 12 2 10 13
M  V30 13 1 10 14
M  V30 14 1 11 12
M  V30 15 1 1 15
M  V30 16 1 2 16
M  V30 17 1 2 17
M  V30 18 1 3 18
M  V30 19 1 5 19
M  V30 20 1 5 20
M  V30 21 1 5 21
M  V30 22 1 8 22
M  V30 23 1 9 23
M  V30 24 1 9 24
M  V30 25 1 11 25
M  V30 26 1 11 26
M  V30 27 1 12 27
M  V30 28 1 12 28
M  V30 29 1 14 29
M  V30 END BOND
M  V30 END CTAB
M  END
>  <NO.>
2589

>  <Name>
1-(2-methyl-3-sulfanylpropanoyl)pyrrolidine-2-carboxylic acid

>  <SMILES>
CC(CS)C(=O)N1CCCC1C(=O)O

>  <logBB>


>  <Class>
-1

>  <MW>
217.08

>  <nHBAcc>
3

>  <nHBDon>
2

>  <SLogP>
0.63

>  <TopoPSA>
57.61

>  <MMFF94 Energy>
2.853

$$$$
CC1=NN=C(c2ccc(N)cc2)c2cc3c(cc2C1)OCO3
Actelion Java MolfileCreator 2.0

  0  0  0  0  0  0              0 V3000
M  V30 BEGIN CTAB
M  V30 COUNTS 37 40 0 0 0
M  V30 BEGIN ATOM
M  V30 1 O -2.172 2.4135 2.2525 0
M  V30 2 C -1.8353 1.2777 1.5846 0
M  V30 3 C -3.6006 2.2495 2.3691 0
M  V30 4 C -2.9301 0.4941 1.2994 0
M  V30 5 C -0.5598 0.9149 1.2108 0
M  V30 6 O -4.0897 1.0378 1.7567 0
M  V30 7 C -2.8165 -0.7074 0.6319 0
M  V30 8 C -0.4117 -0.2948 0.5201 0
M  V30 9 C -1.534 -1.1153 0.2384 0
M  V30 10 C 0.9244 -0.7111 0.0025 0
M  V30 11 C -1.3028 -2.4575 -0.4055 0
M  V30 12 N 1.4213 -1.9149 0.0707 0
M  V30 13 C 1.7507 0.3132 -0.7151 0
M  V30 14 C -0.4183 -3.2493 0.5284 0
M  V30 15 N 0.8072 -2.9257 0.8091 0
M  V30 16 C 3.1422 0.2727 -0.5841 0
M  V30 17 C 1.1658 1.289 -1.5288 0
M  V30 18 C -1.0384 -4.4078 1.265 0
M  V30 19 C 3.9378 1.2142 -1.2444 0
M  V30 20 C 1.971 2.2265 -2.1853 0
M  V30 21 C 3.3615 2.1918 -2.0579 0
M  V30 22 N 4.1488 3.1407 -2.682 0
M  V30 23 H -3.8672 2.2378 3.4323 0
M  V30 24 H -4.0917 3.1057 1.8925 0
M  V30 25 H 0.2863 1.5499 1.4478 0
M  V30 26 H -3.6957 -1.3134 0.4413 0
M  V30 27 H -0.8273 -2.3474 -1.3859 0
M  V30 28 H -2.2471 -2.9903 -0.5598 0
M  V30 29 H 3.6133 -0.487 0.036 0
M  V30 30 H 0.0902 1.3305 -1.6743 0
M  V30 31 H -1.8081 -4.0321 1.9447 0
M  V30 32 H -1.4953 -5.0933 0.5465 0
M  V30 33 H -0.2829 -4.9479 1.8419 0
M  V30 34 H 5.0163 1.1709 -1.1183 0
M  V30 35 H 1.4993 2.9838 -2.806 0
M  V30 36 H 3.7401 3.8065 -3.3228 0
M  V30 37 H 5.1565 3.074 -2.64 0
M  V30 END ATOM
M  V30 BEGIN BOND
M  V30 1 1 1 2
M  V30 2 1 1 3
M  V30 3 2 2 4
M  V30 4 1 2 5
M  V30 5 1 3 6
M  V30 6 1 4 7
M  V30 7 2 5 8
M  V30 8 2 7 9
M  V30 9 1 8 10
M  V30 10 1 9 11
M  V30 11 2 10 12
M  V30 12 1 10 13
M  V30 13 1 11 14
M  V30 14 1 12 15
M  V30 15 2 13 16
M  V30 16 1 13 17
M  V30 17 1 14 18
M  V30 18 1 16 19
M  V30 19 2 17 20
M  V30 20 2 19 21
M  V30 21 1 21 22
M  V30 22 1 4 6
M  V30 23 1 8 9
M  V30 24 2 14 15
M  V30 25 1 20 21
M  V30 26 1 3 23
M  V30 27 1 3 24
M  V30 28 1 5 25
M  V30 29 1 7 26
M  V30 30 1 11 27
M  V30 31 1 11 28
M  V30 32 1 16 29
M  V30 33 1 17 30
M  V30 34 1 18 31
M  V30 35 1 18 32
M  V30 36 1 18 33
M  V30 37 1 19 34
M  V30 38 1 20 35
M  V30 39 1 22 36
M  V30 40 1 22 37
M  V30 END BOND
M  V30 END CTAB
M  END
>  <NO.>
2590

>  <Name>
gyki-52466

>  <SMILES>
CC1=NN=C(c2ccc(N)cc2)c2cc3c(cc2C1)OCO3

>  <logBB>


>  <Class>
1

>  <MW>
293.12

>  <nHBAcc>
5

>  <nHBDon>
1

>  <SLogP>
2.77

>  <TopoPSA>
69.2

>  <MMFF94 Energy>
97.268

$$$$
CC1CN(c2cc3c(cc2F)c(=O)c(C(=O)O)cn3-c2ccc(F)cc2F)CCN1
Actelion Java MolfileCreator 2.0

  0  0  0  0  0  0              0 V3000
M  V30 BEGIN CTAB
M  V30 COUNTS 48 51 0 0 0
M  V30 BEGIN ATOM
M  V30 1 F -3.9724 -0.5667 -0.0809 0
M  V30 2 C -2.7947 0.0188 0.1875 0
M  V30 3 C -1.5893 -0.5579 -0.2486 0
M  V30 4 C -2.8263 1.1995 0.9227 0
M  V30 5 N -1.5107 -1.7226 -1.0113 0
M  V30 6 C -0.4043 0.1253 0.0943 0
M  V30 7 C -1.6314 1.8446 1.2493 0
M  V30 8 C -0.649 -2.8182 -0.5233 0
M  V30 9 C -2.6804 -2.1829 -1.7813 0
M  V30 10 C -0.3916 1.3088 0.8622 0
M  V30 11 C -1.6881 3.1177 2.0073 0
M  V30 12 C -0.2485 -3.7812 -1.6752 0 CFG=1
M  V30 13 C -2.2488 -3.1445 -2.9107 0
M  V30 14 N 0.8258 1.9861 1.2099 0
M  V30 15 O -2.7542 3.5056 2.4711 0
M  V30 16 C -0.418 3.8487 2.1968 0
M  V30 17 N -1.4024 -4.2653 -2.4632 0
M  V30 18 C 0.826 -3.1532 -2.5713 0
M  V30 19 C 2.1344 1.4413 1.0024 0
M  V30 20 C 0.7128 3.2382 1.8122 0
M  V30 21 C -0.3021 5.1793 2.8033 0
M  V30 22 C 3.1185 2.1378 0.2752 0
M  V30 23 C 2.4801 0.1916 1.5495 0
M  V30 24 O 0.6651 5.5987 3.4174 0
M  V30 25 O -1.3615 5.9651 2.5624 0
M  V30 26 F 2.8346 3.3325 -0.2665 0
M  V30 27 C 4.3918 1.613 0.0802 0
M  V30 28 C 3.7577 -0.3403 1.3577 0
M  V30 29 C 4.6982 0.3746 0.6238 0
M  V30 30 F 5.9203 -0.1412 0.4424 0
M  V30 31 H -3.7864 1.6061 1.2296 0
M  V30 32 H 0.5307 -0.2622 -0.3011 0
M  V30 33 H 0.2636 -2.4497 -0.0418 0
M  V30 34 H -1.2027 -3.3806 0.2403 0
M  V30 35 H -3.3856 -2.6954 -1.115 0
M  V30 36 H -3.1961 -1.3354 -2.249 0
M  V30 37 H 0.2055 -4.6657 -1.2111 0
M  V30 38 H -1.7213 -2.577 -3.6868 0
M  V30 39 H -3.1469 -3.5569 -3.384 0
M  V30 40 H -1.0711 -4.778 -3.279 0
M  V30 41 H 1.1269 -3.8452 -3.3653 0
M  V30 42 H 1.721 -2.9182 -1.9846 0
M  V30 43 H 0.486 -2.2244 -3.0403 0
M  V30 44 H 1.6701 3.7319 1.9785 0
M  V30 45 H 1.7574 -0.3643 2.1431 0
M  V30 46 H -1.167 6.8048 3.0258 0
M  V30 47 H 5.1318 2.1634 -0.4887 0
M  V30 48 H 4.0269 -1.3032 1.7819 0
M  V30 END ATOM
M  V30 BEGIN BOND
M  V30 1 1 1 2
M  V30 2 2 2 3
M  V30 3 1 2 4
M  V30 4 1 3 5
M  V30 5 1 3 6
M  V30 6 2 4 7
M  V30 7 1 5 8
M  V30 8 1 5 9
M  V30 9 2 6 10
M  V30 10 1 7 11
M  V30 11 1 8 12
M  V30 12 1 9 13
M  V30 13 1 10 14
M  V30 14 2 11 15
M  V30 15 1 11 16
M  V30 16 1 12 17
M  V30 17 1 12 18
M  V30 18 1 14 19
M  V30 19 1 14 20
M  V30 20 1 16 21
M  V30 21 2 19 22
M  V30 22 1 19 23
M  V30 23 2 21 24
M  V30 24 1 21 25
M  V30 25 1 22 26
M  V30 26 1 22 27
M  V30 27 2 23 28
M  V30 28 2 27 29
M  V30 29 1 29 30
M  V30 30 1 7 10
M  V30 31 1 13 17
M  V30 32 2 16 20
M  V30 33 1 28 29
M  V30 34 1 4 31
M  V30 35 1 6 32
M  V30 36 1 8 33
M  V30 37 1 8 34
M  V30 38 1 9 35
M  V30 39 1 9 36
M  V30 40 1 12 37
M  V30 41 1 13 38
M  V30 42 1 13 39
M  V30 43 1 17 40
M  V30 44 1 18 41
M  V30 45 1 18 42
M  V30 46 1 18 43
M  V30 47 1 20 44
M  V30 48 1 23 45
M  V30 49 1 25 46
M  V30 50 1 27 47
M  V30 51 1 28 48
M  V30 END BOND
M  V30 BEGIN COLLECTION
M  V30 MDLV30/STERAC1 ATOMS=(1 12)
M  V30 END COLLECTION
M  V30 END CTAB
M  END
>  <NO.>
2591

>  <Name>
temafloxacin

>  <SMILES>
CC1CN(c2cc3c(cc2F)c(=O)c(C(=O)O)cn3-c2ccc(F)cc2F)CCN1

>  <logBB>


>  <Class>
-1

>  <MW>
417.13

>  <nHBAcc>
4

>  <nHBDon>
2

>  <SLogP>
2.9

>  <TopoPSA>
74.57

>  <MMFF94 Energy>
126.67

$$$$
CCCCOCCOC(=O)COc1ccc(Cl)cc1C
Actelion Java MolfileCreator 2.0

  0  0  0  0  0  0              0 V3000
M  V30 BEGIN CTAB
M  V30 COUNTS 41 41 0 0 0
M  V30 BEGIN ATOM
M  V30 1 Cl -4.7548 -5.3106 3.8024 0
M  V30 2 C -4.148 -4.0782 2.767 0
M  V30 3 C -4.5744 -4.0122 1.443 0
M  V30 4 C -3.233 -3.1519 3.2573 0
M  V30 5 C -4.0835 -3.009 0.5923 0
M  V30 6 C -2.7377 -2.1487 2.4186 0
M  V30 7 C -3.1576 -2.0702 1.0865 0
M  V30 8 C -4.5513 -2.9481 -0.8363 0
M  V30 9 O -2.7351 -1.13 0.1853 0
M  V30 10 C -1.8049 -0.1535 0.6354 0
M  V30 11 C -1.4492 0.8039 -0.4919 0
M  V30 12 O -1.8725 0.7631 -1.639 0
M  V30 13 O -0.5684 1.7374 -0.0254 0
M  V30 14 C -0.1241 2.6788 -1.0164 0
M  V30 15 C 0.9334 3.5907 -0.3945 0
M  V30 16 O 2.1071 2.8745 0.0028 0
M  V30 17 C 2.9981 2.6008 -1.0769 0
M  V30 18 C 4.2187 1.8818 -0.513 0
M  V30 19 C 5.2322 1.5502 -1.6044 0
M  V30 20 C 6.4469 0.8334 -1.0373 0
M  V30 21 H -5.2897 -4.7417 1.0711 0
M  V30 22 H -2.8997 -3.2034 4.2905 0
M  V30 23 H -2.0256 -1.4471 2.8402 0
M  V30 24 H -3.7028 -3.064 -1.5181 0
M  V30 25 H -5.0485 -1.9925 -1.0319 0
M  V30 26 H -5.2673 -3.7461 -1.059 0
M  V30 27 H -0.8768 -0.6406 0.9557 0
M  V30 28 H -2.2486 0.4403 1.4426 0
M  V30 29 H -0.9791 3.2831 -1.3394 0
M  V30 30 H 0.2866 2.1356 -1.8732 0
M  V30 31 H 1.2011 4.4051 -1.0766 0
M  V30 32 H 0.5263 4.0384 0.5184 0
M  V30 33 H 3.3003 3.542 -1.5498 0
M  V30 34 H 2.5045 1.9686 -1.8215 0
M  V30 35 H 4.6834 2.5071 0.2596 0
M  V30 36 H 3.8961 0.9654 -0.003 0
M  V30 37 H 4.7644 0.9168 -2.3669 0
M  V30 38 H 5.5578 2.4708 -2.1024 0
M  V30 39 H 7.1595 0.6055 -1.836 0
M  V30 40 H 6.9569 1.4541 -0.2938 0
M  V30 41 H 6.159 -0.1084 -0.5597 0
M  V30 END ATOM
M  V30 BEGIN BOND
M  V30 1 1 1 2
M  V30 2 2 2 3
M  V30 3 1 2 4
M  V30 4 1 3 5
M  V30 5 2 4 6
M  V30 6 2 5 7
M  V30 7 1 5 8
M  V30 8 1 7 9
M  V30 9 1 9 10
M  V30 10 1 10 11
M  V30 11 2 11 12
M  V30 12 1 11 13
M  V30 13 1 13 14
M  V30 14 1 14 15
M  V30 15 1 15 16
M  V30 16 1 16 17
M  V30 17 1 17 18
M  V30 18 1 18 19
M  V30 19 1 19 20
M  V30 20 1 6 7
M  V30 21 1 3 21
M  V30 22 1 4 22
M  V30 23 1 6 23
M  V30 24 1 8 24
M  V30 25 1 8 25
M  V30 26 1 8 26
M  V30 27 1 10 27
M  V30 28 1 10 28
M  V30 29 1 14 29
M  V30 30 1 14 30
M  V30 31 1 15 31
M  V30 32 1 15 32
M  V30 33 1 17 33
M  V30 34 1 17 34
M  V30 35 1 18 35
M  V30 36 1 18 36
M  V30 37 1 19 37
M  V30 38 1 19 38
M  V30 39 1 20 39
M  V30 40 1 20 40
M  V30 41 1 20 41
M  V30 END BOND
M  V30 END CTAB
M  END
>  <NO.>
2593

>  <Name>
cgs-19755

>  <SMILES>
CCCCOCCOC(=O)COc1ccc(Cl)cc1C

>  <logBB>


>  <Class>
1

>  <MW>
300.11

>  <nHBAcc>
4

>  <nHBDon>
0

>  <SLogP>
3.39

>  <TopoPSA>
44.76

>  <MMFF94 Energy>
53.758

$$$$
CCCN1CCC[C@@H]2Cc3[nH]ncc3C[C@H]21
Actelion Java MolfileCreator 2.0

  0  0  0  0  0  0              0 V3000
M  V30 BEGIN CTAB
M  V30 COUNTS 37 39 0 0 0
M  V30 BEGIN ATOM
M  V30 1 N -4.768 -0.476 -1.508 0
M  V30 2 N -3.7844 -0.6747 -2.406 0
M  V30 3 C -4.1174 -0.2515 -0.3605 0
M  V30 4 C -2.5432 -0.5736 -1.8566 0
M  V30 5 C -2.7225 -0.2961 -0.5247 0
M  V30 6 C -1.2505 -0.7122 -2.5574 0
M  V30 7 C -1.5998 -0.1245 0.4315 0
M  V30 8 C -0.1136 -0.8996 -1.5171 0 CFG=2
M  V30 9 C -0.2316 0.0981 -0.3068 0 CFG=2
M  V30 10 C 1.235 -0.7729 -2.227 0
M  V30 11 N 0.9368 -0.0276 0.6213 0
M  V30 12 C 2.3676 -0.8933 -1.2266 0
M  V30 13 C 2.2116 0.1251 -0.1024 0
M  V30 14 C 0.8487 0.9332 1.7447 0
M  V30 15 C 1.9654 0.7962 2.7921 0
M  V30 16 C 1.6919 1.6709 4.0087 0
M  V30 17 H -4.0409 -0.8699 -3.3681 0
M  V30 18 H -4.6895 -0.0667 0.5396 0
M  V30 19 H -1.0731 0.1904 -3.155 0
M  V30 20 H -1.2708 -1.5659 -3.2445 0
M  V30 21 H -1.5386 -1.0192 1.0641 0
M  V30 22 H -1.8264 0.7305 1.0784 0
M  V30 23 H -0.1908 -1.9201 -1.1113 0
M  V30 24 H -0.2379 1.118 -0.7211 0
M  V30 25 H 1.335 -1.55 -2.9938 0
M  V30 26 H 1.3039 0.1948 -2.7399 0
M  V30 27 H 3.3259 -0.7366 -1.735 0
M  V30 28 H 2.3903 -1.908 -0.8092 0
M  V30 29 H 3.0578 -0.0382 0.5723 0
M  V30 30 H 2.306 1.1416 -0.5064 0
M  V30 31 H -0.0886 0.7699 2.2857 0
M  V30 32 H 0.8284 1.963 1.3645 0
M  V30 33 H 2.051 -0.248 3.1147 0
M  V30 34 H 2.9318 1.0962 2.3737 0
M  V30 35 H 2.502 1.5693 4.7378 0
M  V30 36 H 1.6199 2.7257 3.7244 0
M  V30 37 H 0.7568 1.3816 4.4991 0
M  V30 END ATOM
M  V30 BEGIN BOND
M  V30 1 1 1 2
M  V30 2 2 1 3
M  V30 3 1 2 4
M  V30 4 1 3 5
M  V30 5 1 4 6
M  V30 6 1 5 7
M  V30 7 1 6 8
M  V30 8 1 7 9
M  V30 9 1 8 10
M  V30 10 1 9 11
M  V30 11 1 10 12
M  V30 12 1 11 13
M  V30 13 1 11 14
M  V30 14 1 14 15
M  V30 15 1 15 16
M  V30 16 2 4 5
M  V30 17 1 8 9
M  V30 18 1 12 13
M  V30 19 1 2 17
M  V30 20 1 3 18
M  V30 21 1 6 19
M  V30 22 1 6 20
M  V30 23 1 7 21
M  V30 24 1 7 22
M  V30 25 1 8 23
M  V30 26 1 9 24
M  V30 27 1 10 25
M  V30 28 1 10 26
M  V30 29 1 12 27
M  V30 30 1 12 28
M  V30 31 1 13 29
M  V30 32 1 13 30
M  V30 33 1 14 31
M  V30 34 1 14 32
M  V30 35 1 15 33
M  V30 36 1 15 34
M  V30 37 1 16 35
M  V30 38 1 16 36
M  V30 39 1 16 37
M  V30 END BOND
M  V30 BEGIN COLLECTION
M  V30 MDLV30/STEABS ATOMS=(2 8 9)
M  V30 END COLLECTION
M  V30 END CTAB
M  END
>  <NO.>
2594

>  <Name>
quinpirole

>  <SMILES>
CCCN1CCC[C@@H]2Cc3[nH]ncc3C[C@H]21

>  <logBB>


>  <Class>
1

>  <MW>
219.17

>  <nHBAcc>
2

>  <nHBDon>
1

>  <SLogP>
2

>  <TopoPSA>
31.92

>  <MMFF94 Energy>
29.444

$$$$
CCN1CCC[C@H]1CNC(=O)c1c(O)c(Cl)cc(Cl)c1OC
Actelion Java MolfileCreator 2.0

  0  0  0  0  0  0              0 V3000
M  V30 BEGIN CTAB
M  V30 COUNTS 42 43 0 0 0
M  V30 BEGIN ATOM
M  V30 1 Cl -5.1572 -1.851 0.9654 0
M  V30 2 C -4.1834 -0.433 0.7994 0
M  V30 3 C -2.8025 -0.4478 1.057 0
M  V30 4 C -4.8127 0.7354 0.3721 0
M  V30 5 O -2.1944 -1.6334 1.3902 0
M  V30 6 C -2.0324 0.7133 0.8428 0
M  V30 7 C -4.0568 1.8851 0.1715 0
M  V30 8 C -2.2247 -1.8505 2.8042 0
M  V30 9 C -2.6737 1.8802 0.3932 0
M  V30 10 C -0.5633 0.6878 1.1069 0
M  V30 11 Cl -4.8467 3.3211 -0.3712 0
M  V30 12 O -1.9504 3.0255 0.1619 0
M  V30 13 O -0.1015 0.0774 2.0644 0
M  V30 14 N 0.2246 1.379 0.2155 0
M  V30 15 C 1.6701 1.3999 0.316 0
M  V30 16 C 2.3481 0.099 -0.1612 0 CFG=1
M  V30 17 N 2.4256 -0.0819 -1.6244 0
M  V30 18 C 3.8317 0.1003 0.229 0
M  V30 19 C 3.4522 -1.1035 -1.8325 0
M  V30 20 C 1.1686 -0.3722 -2.3143 0
M  V30 21 C 4.5405 -0.7125 -0.8472 0
M  V30 22 C 0.3749 -1.5929 -1.8565 0
M  V30 23 H -5.883 0.7421 0.1812 0
M  V30 24 H -2.1976 -0.9202 3.3837 0
M  V30 25 H -1.3475 -2.4473 3.0709 0
M  V30 26 H -3.1176 -2.4228 3.0725 0
M  V30 27 H -2.578 3.741 -0.0611 0
M  V30 28 H -0.2195 1.9545 -0.4897 0
M  V30 29 H 2.0229 2.2579 -0.2676 0
M  V30 30 H 1.9275 1.5877 1.3655 0
M  V30 31 H 1.8756 -0.7708 0.3123 0
M  V30 32 H 3.9798 -0.3386 1.2217 0
M  V30 33 H 4.2477 1.1153 0.2504 0
M  V30 34 H 3.828 -1.1068 -2.8606 0
M  V30 35 H 3.094 -2.1104 -1.5901 0
M  V30 36 H 0.5194 0.5083 -2.2599 0
M  V30 37 H 1.3836 -0.4872 -3.3846 0
M  V30 38 H 5.0368 -1.5936 -0.4277 0
M  V30 39 H 5.3053 -0.0965 -1.3344 0
M  V30 40 H -0.5409 -1.6786 -2.4513 0
M  V30 41 H 0.0747 -1.521 -0.8082 0
M  V30 42 H 0.9384 -2.5201 -1.9929 0
M  V30 END ATOM
M  V30 BEGIN BOND
M  V30 1 1 1 2
M  V30 2 2 2 3
M  V30 3 1 2 4
M  V30 4 1 3 5
M  V30 5 1 3 6
M  V30 6 2 4 7
M  V30 7 1 5 8
M  V30 8 2 6 9
M  V30 9 1 6 10
M  V30 10 1 7 11
M  V30 11 1 9 12
M  V30 12 2 10 13
M  V30 13 1 10 14
M  V30 14 1 14 15
M  V30 15 1 15 16
M  V30 16 1 16 17
M  V30 17 1 16 18
M  V30 18 1 17 19
M  V30 19 1 17 20
M  V30 20 1 18 21
M  V30 21 1 20 22
M  V30 22 1 7 9
M  V30 23 1 19 21
M  V30 24 1 4 23
M  V30 25 1 8 24
M  V30 26 1 8 25
M  V30 27 1 8 26
M  V30 28 1 12 27
M  V30 29 1 14 28
M  V30 30 1 15 29
M  V30 31 1 15 30
M  V30 32 1 16 31
M  V30 33 1 18 32
M  V30 34 1 18 33
M  V30 35 1 19 34
M  V30 36 1 19 35
M  V30 37 1 20 36
M  V30 38 1 20 37
M  V30 39 1 21 38
M  V30 40 1 21 39
M  V30 41 1 22 40
M  V30 42 1 22 41
M  V30 43 1 22 42
M  V30 END BOND
M  V30 BEGIN COLLECTION
M  V30 MDLV30/STEABS ATOMS=(1 16)
M  V30 END COLLECTION
M  V30 END CTAB
M  END
>  <NO.>
2595

>  <Name>
raclopride

>  <SMILES>
CCN1CCC[C@H]1CNC(=O)c1c(O)c(Cl)cc(Cl)c1OC

>  <logBB>


>  <Class>
1

>  <MW>
346.09

>  <nHBAcc>
4

>  <nHBDon>
2

>  <SLogP>
2.92

>  <TopoPSA>
61.8

>  <MMFF94 Energy>
51.204

$$$$
CCc1cccc2cc(C(O)CNC(C)(C)C)oc12
Actelion Java MolfileCreator 2.0

  0  0  0  0  0  0              0 V3000
M  V30 BEGIN CTAB
M  V30 COUNTS 42 43 0 0 0
M  V30 BEGIN ATOM
M  V30 1 O 1.8054 -0.0784 1.0201 0
M  V30 2 C 1.4769 -1.0142 1.9563 0
M  V30 3 C 0.741 0.0396 0.1667 0
M  V30 4 C 2.3008 -1.431 3.0092 0
M  V30 5 C 0.1962 -1.497 1.7171 0
M  V30 6 C -0.2699 -0.812 0.5648 0
M  V30 7 C 0.9054 1.0327 -0.937 0 CFG=1
M  V30 8 C 1.7398 -2.4002 3.8624 0
M  V30 9 C 3.6762 -0.8784 3.2539 0
M  V30 10 C -0.3309 -2.4698 2.5827 0
M  V30 11 O 2.2471 0.9027 -1.4262 0
M  V30 12 C -0.0663 0.835 -2.1245 0
M  V30 13 C 0.4551 -2.9111 3.6541 0
M  V30 14 C 3.6368 0.3524 4.1464 0
M  V30 15 N -1.4534 1.2203 -1.8103 0
M  V30 16 C -2.4442 0.9984 -2.8804 0
M  V30 17 C -2.1338 1.8282 -4.1368 0
M  V30 18 C -3.7982 1.4644 -2.3099 0
M  V30 19 C -2.5644 -0.4892 -3.2488 0
M  V30 20 H -1.2318 -0.9228 0.0831 0
M  V30 21 H 0.8066 2.0473 -0.534 0
M  V30 22 H 2.3172 -2.7666 4.7101 0
M  V30 23 H 4.1442 -0.6211 2.2963 0
M  V30 24 H 4.3104 -1.6484 3.7091 0
M  V30 25 H -1.328 -2.8706 2.4288 0
M  V30 26 H 2.7971 0.7299 -0.6386 0
M  V30 27 H 0.3042 1.4382 -2.9617 0
M  V30 28 H -0.0105 -0.2112 -2.4456 0
M  V30 29 H 0.0585 -3.6613 4.3349 0
M  V30 30 H 4.6492 0.7363 4.3066 0
M  V30 31 H 3.2031 0.1199 5.125 0
M  V30 32 H 3.0384 1.1514 3.6954 0
M  V30 33 H -1.4656 2.2054 -1.5415 0
M  V30 34 H -1.2231 1.4853 -4.6392 0
M  V30 35 H -2.9498 1.7548 -4.8652 0
M  V30 36 H -2.0062 2.8892 -3.8928 0
M  V30 37 H -3.7783 2.5281 -2.0437 0
M  V30 38 H -4.6042 1.3249 -3.0399 0
M  V30 39 H -4.0687 0.8995 -1.4096 0
M  V30 40 H -1.6697 -0.8612 -3.7586 0
M  V30 41 H -2.7294 -1.1078 -2.3589 0
M  V30 42 H -3.4103 -0.6571 -3.9258 0
M  V30 END ATOM
M  V30 BEGIN BOND
M  V30 1 1 1 2
M  V30 2 1 1 3
M  V30 3 2 2 4
M  V30 4 1 2 5
M  V30 5 2 3 6
M  V30 6 1 3 7
M  V30 7 1 4 8
M  V30 8 1 4 9
M  V30 9 2 5 10
M  V30 10 1 7 11
M  V30 11 1 7 12
M  V30 12 2 8 13
M  V30 13 1 9 14
M  V30 14 1 12 15
M  V30 15 1 15 16
M  V30 16 1 16 17
M  V30 17 1 16 18
M  V30 18 1 16 19
M  V30 19 1 5 6
M  V30 20 1 10 13
M  V30 21 1 6 20
M  V30 22 1 7 21
M  V30 23 1 8 22
M  V30 24 1 9 23
M  V30 25 1 9 24
M  V30 26 1 10 25
M  V30 27 1 11 26
M  V30 28 1 12 27
M  V30 29 1 12 28
M  V30 30 1 13 29
M  V30 31 1 14 30
M  V30 32 1 14 31
M  V30 33 1 14 32
M  V30 34 1 15 33
M  V30 35 1 17 34
M  V30 36 1 17 35
M  V30 37 1 17 36
M  V30 38 1 18 37
M  V30 39 1 18 38
M  V30 40 1 18 39
M  V30 41 1 19 40
M  V30 42 1 19 41
M  V30 43 1 19 42
M  V30 END BOND
M  V30 BEGIN COLLECTION
M  V30 MDLV30/STERAC1 ATOMS=(1 7)
M  V30 END COLLECTION
M  V30 END CTAB
M  END
>  <NO.>
2597

>  <Name>
bufuralol

>  <SMILES>
CCc1cccc2cc(C(O)CNC(C)(C)C)oc12

>  <logBB>


>  <Class>
-1

>  <MW>
261.17

>  <nHBAcc>
3

>  <nHBDon>
2

>  <SLogP>
3.42

>  <TopoPSA>
45.4

>  <MMFF94 Energy>
59.941

$$$$
CN(C(=O)Cc1ccc(Cl)c(Cl)c1)C(CN1CCCC1)c1cccc(OCC(=O)O)c1
Actelion Java MolfileCreator 2.0

  0  0  0  0  0  0              0 V3000
M  V30 BEGIN CTAB
M  V30 COUNTS 57 59 0 0 0
M  V30 BEGIN ATOM
M  V30 1 Cl 1.6143 -7.4423 0.8876 0
M  V30 2 C 0.8513 -6.0564 1.5841 0
M  V30 3 C 0.9161 -5.773 2.9521 0
M  V30 4 C 0.1461 -5.2027 0.7279 0
M  V30 5 Cl 1.7635 -6.7819 4.0702 0
M  V30 6 C 0.279 -4.6359 3.4564 0
M  V30 7 C -0.5035 -4.0648 1.2296 0
M  V30 8 C -0.4243 -3.7849 2.6006 0
M  V30 9 C -1.2477 -3.1311 0.2998 0
M  V30 10 C -0.4063 -1.9627 -0.2114 0
M  V30 11 O 0.8165 -1.9429 -0.0594 0
M  V30 12 N -1.0904 -0.9255 -0.8553 0
M  V30 13 C -0.3223 0.3015 -1.2055 0 CFG=2
M  V30 14 C -2.543 -0.8962 -0.9867 0
M  V30 15 C -0.5067 1.3308 -0.0895 0
M  V30 16 C -0.6014 0.7918 -2.6701 0
M  V30 17 C 0.3938 1.316 0.9962 0
M  V30 18 C -1.5664 2.2498 -0.0682 0
M  V30 19 N 0.5159 1.4927 -3.3476 0
M  V30 20 C 0.2547 2.207 2.0613 0
M  V30 21 C -1.7051 3.1459 0.9917 0
M  V30 22 C 0.7897 2.8389 -2.8271 0
M  V30 23 C 0.2028 1.7352 -4.7667 0
M  V30 24 O 1.0635 2.2792 3.1609 0
M  V30 25 C -0.7965 3.1235 2.0487 0
M  V30 26 C -0.2121 3.7576 -3.5087 0
M  V30 27 C -0.5697 3.0471 -4.8071 0
M  V30 28 C 2.1508 1.3626 3.2241 0
M  V30 29 C 2.9347 1.5745 4.5058 0
M  V30 30 O 2.718 2.3762 5.3997 0
M  V30 31 O 3.9885 0.7326 4.6005 0
M  V30 32 H 0.1126 -5.4202 -0.3377 0
M  V30 33 H 0.3312 -4.4025 4.5173 0
M  V30 34 H -0.9018 -2.8967 3.0109 0
M  V30 35 H -1.6166 -3.695 -0.5652 0
M  V30 36 H -2.1232 -2.7469 0.8364 0
M  V30 37 H 0.7415 0.0298 -1.209 0
M  V30 38 H -2.9695 -0.4788 -0.07 0
M  V30 39 H -2.9432 -1.9017 -1.1344 0
M  V30 40 H -2.8462 -0.2902 -1.8426 0
M  V30 41 H -0.7856 -0.1179 -3.2588 0
M  V30 42 H -1.5271 1.3748 -2.7265 0
M  V30 43 H 1.1974 0.5834 0.98 0
M  V30 44 H -2.2999 2.2815 -0.8686 0
M  V30 45 H -2.5243 3.8605 0.9997 0
M  V30 46 H 0.7743 2.9275 -1.7403 0
M  V30 47 H 1.8047 3.1233 -3.1345 0
M  V30 48 H 1.1461 1.8492 -5.3159 0
M  V30 49 H -0.3406 0.9139 -5.2465 0
M  V30 50 H -0.9107 3.8223 2.8744 0
M  V30 51 H 0.2106 4.7504 -3.6924 0
M  V30 52 H -1.11 3.8831 -2.8929 0
M  V30 53 H -0.2955 3.6441 -5.6829 0
M  V30 54 H -1.6497 2.8651 -4.8479 0
M  V30 55 H 2.836 1.5346 2.3864 0
M  V30 56 H 1.7754 0.333 3.2362 0
M  V30 57 H 4.4012 0.9722 5.4573 0
M  V30 END ATOM
M  V30 BEGIN BOND
M  V30 1 1 1 2
M  V30 2 2 2 3
M  V30 3 1 2 4
M  V30 4 1 3 5
M  V30 5 1 3 6
M  V30 6 2 4 7
M  V30 7 2 6 8
M  V30 8 1 7 9
M  V30 9 1 9 10
M  V30 10 2 10 11
M  V30 11 1 10 12
M  V30 12 1 12 13
M  V30 13 1 12 14
M  V30 14 1 13 15
M  V30 15 1 13 16
M  V30 16 2 15 17
M  V30 17 1 15 18
M  V30 18 1 16 19
M  V30 19 1 17 20
M  V30 20 2 18 21
M  V30 21 1 19 22
M  V30 22 1 19 23
M  V30 23 1 20 24
M  V30 24 2 20 25
M  V30 25 1 22 26
M  V30 26 1 23 27
M  V30 27 1 24 28
M  V30 28 1 28 29
M  V30 29 2 29 30
M  V30 30 1 29 31
M  V30 31 1 7 8
M  V30 32 1 21 25
M  V30 33 1 26 27
M  V30 34 1 4 32
M  V30 35 1 6 33
M  V30 36 1 8 34
M  V30 37 1 9 35
M  V30 38 1 9 36
M  V30 39 1 13 37
M  V30 40 1 14 38
M  V30 41 1 14 39
M  V30 42 1 14 40
M  V30 43 1 16 41
M  V30 44 1 16 42
M  V30 45 1 17 43
M  V30 46 1 18 44
M  V30 47 1 21 45
M  V30 48 1 22 46
M  V30 49 1 22 47
M  V30 50 1 23 48
M  V30 51 1 23 49
M  V30 52 1 25 50
M  V30 53 1 26 51
M  V30 54 1 26 52
M  V30 55 1 27 53
M  V30 56 1 27 54
M  V30 57 1 28 55
M  V30 58 1 28 56
M  V30 59 1 31 57
M  V30 END BOND
M  V30 BEGIN COLLECTION
M  V30 MDLV30/STERAC1 ATOMS=(1 13)
M  V30 END COLLECTION
M  V30 END CTAB
M  END
>  <NO.>
2598

>  <Name>
ici-204448

>  <SMILES>
CN(C(=O)Cc1ccc(Cl)c(Cl)c1)C(CN1CCCC1)c1cccc(OCC(=O)O)c1

>  <logBB>


>  <Class>
-1

>  <MW>
464.13

>  <nHBAcc>
4

>  <nHBDon>
1

>  <SLogP>
4.29

>  <TopoPSA>
70.08

>  <MMFF94 Energy>
101.68

$$$$
CN(C(=O)Cc1cccc2sccc12)[C@@H]1CCCC[C@H]1N1CCCC1
Actelion Java MolfileCreator 2.0

  0  0  0  0  0  0              0 V3000
M  V30 BEGIN CTAB
M  V30 COUNTS 53 56 0 0 0
M  V30 BEGIN ATOM
M  V30 1 S -5.1602 -2.8195 -0.0804 0
M  V30 2 C -4.841 -1.1357 0.1153 0
M  V30 3 C -3.6768 -3.2594 0.6271 0
M  V30 4 C -3.601 -0.9089 0.7229 0
M  V30 5 C -5.6853 -0.0782 -0.2709 0
M  V30 6 C -2.947 -2.1601 1.0124 0
M  V30 7 C -3.1882 0.4374 0.9553 0
M  V30 8 C -5.2693 1.2312 -0.0467 0
M  V30 9 C -4.0438 1.4852 0.5529 0
M  V30 10 C -1.8598 0.7997 1.5965 0
M  V30 11 C -0.7581 1.1485 0.5963 0
M  V30 12 O -1.0249 1.4804 -0.5592 0
M  V30 13 N 0.5609 1.0794 1.0569 0
M  V30 14 C 1.689 1.2922 0.1156 0 CFG=1
M  V30 15 C 0.9203 0.8825 2.4557 0
M  V30 16 C 1.7318 0.3341 -1.1321 0 CFG=2
M  V30 17 C 1.7535 2.7785 -0.2968 0
M  V30 18 N 1.8093 -1.1216 -0.9055 0
M  V30 19 C 2.9304 0.7068 -2.0393 0
M  V30 20 C 2.9419 3.0768 -1.2012 0
M  V30 21 C 0.554 -1.7782 -0.5724 0
M  V30 22 C 2.8023 -1.6209 0.0341 0
M  V30 23 C 2.9319 2.181 -2.4306 0
M  V30 24 C 1.0074 -3.2115 -0.3553 0
M  V30 25 C 2.4129 -3.0851 0.2231 0
M  V30 26 H -3.4083 -4.3018 0.7289 0
M  V30 27 H -6.6417 -0.2779 -0.7455 0
M  V30 28 H -1.9771 -2.2474 1.4836 0
M  V30 29 H -5.9044 2.0589 -0.3532 0
M  V30 30 H -3.7356 2.5199 0.6967 0
M  V30 31 H -2.0016 1.6579 2.2648 0
M  V30 32 H -1.5388 -0.0433 2.2164 0
M  V30 33 H 2.6081 1.0993 0.6862 0
M  V30 34 H 0.0844 1.0639 3.1328 0
M  V30 35 H 1.2712 -0.1444 2.5838 0
M  V30 36 H 1.7198 1.5799 2.7249 0
M  V30 37 H 0.8397 0.517 -1.7438 0
M  V30 38 H 0.8359 3.0784 -0.8155 0
M  V30 39 H 1.8171 3.4076 0.6 0
M  V30 40 H 2.9079 0.1015 -2.9547 0
M  V30 41 H 3.8779 0.4814 -1.5334 0
M  V30 42 H 3.8754 2.9315 -0.6438 0
M  V30 43 H 2.9147 4.128 -1.5101 0
M  V30 44 H -0.1871 -1.7108 -1.3745 0
M  V30 45 H 0.1167 -1.3995 0.3539 0
M  V30 46 H 2.7582 -1.1148 1.0031 0
M  V30 47 H 3.8229 -1.5375 -0.3512 0
M  V30 48 H 3.8118 2.3954 -3.0477 0
M  V30 49 H 2.0495 2.4011 -3.0439 0
M  V30 50 H 0.3358 -3.7615 0.3112 0
M  V30 51 H 1.0482 -3.7488 -1.3108 0
M  V30 52 H 3.1012 -3.755 -0.3038 0
M  V30 53 H 2.4263 -3.3548 1.2848 0
M  V30 END ATOM
M  V30 BEGIN BOND
M  V30 1 1 1 2
M  V30 2 1 1 3
M  V30 3 2 2 4
M  V30 4 1 2 5
M  V30 5 2 3 6
M  V30 6 1 4 7
M  V30 7 2 5 8
M  V30 8 2 7 9
M  V30 9 1 7 10
M  V30 10 1 10 11
M  V30 11 2 11 12
M  V30 12 1 11 13
M  V30 13 1 13 14
M  V30 14 1 13 15
M  V30 15 1 14 16
M  V30 16 1 14 17
M  V30 17 1 16 18
M  V30 18 1 16 19
M  V30 19 1 17 20
M  V30 20 1 18 21
M  V30 21 1 18 22
M  V30 22 1 19 23
M  V30 23 1 21 24
M  V30 24 1 22 25
M  V30 25 1 4 6
M  V30 26 1 8 9
M  V30 27 1 20 23
M  V30 28 1 24 25
M  V30 29 1 3 26
M  V30 30 1 5 27
M  V30 31 1 6 28
M  V30 32 1 8 29
M  V30 33 1 9 30
M  V30 34 1 10 31
M  V30 35 1 10 32
M  V30 36 1 14 33
M  V30 37 1 15 34
M  V30 38 1 15 35
M  V30 39 1 15 36
M  V30 40 1 16 37
M  V30 41 1 17 38
M  V30 42 1 17 39
M  V30 43 1 19 40
M  V30 44 1 19 41
M  V30 45 1 20 42
M  V30 46 1 20 43
M  V30 47 1 21 44
M  V30 48 1 21 45
M  V30 49 1 22 46
M  V30 50 1 22 47
M  V30 51 1 23 48
M  V30 52 1 23 49
M  V30 53 1 24 50
M  V30 54 1 24 51
M  V30 55 1 25 52
M  V30 56 1 25 53
M  V30 END BOND
M  V30 BEGIN COLLECTION
M  V30 MDLV30/STEABS ATOMS=(2 14 16)
M  V30 END COLLECTION
M  V30 END CTAB
M  END
>  <NO.>
2600

>  <Name>
pd 117302

>  <SMILES>
CN(C(=O)Cc1cccc2sccc12)[C@@H]1CCCC[C@H]1N1CCCC1

>  <logBB>


>  <Class>
1

>  <MW>
356.19

>  <nHBAcc>
3

>  <nHBDon>
0

>  <SLogP>
4.31

>  <TopoPSA>
23.55

>  <MMFF94 Energy>
63.897

$$$$
CN1CCc2cc(Cl)c(O)cc2[C@@H](c2ccccc2)C1
Actelion Java MolfileCreator 2.0

  0  0  0  0  0  0              0 V3000
M  V30 BEGIN CTAB
M  V30 COUNTS 38 40 0 0 0
M  V30 BEGIN ATOM
M  V30 1 Cl 0.161 -4.7585 2.8208 0
M  V30 2 C -0.0482 -3.314 1.9028 0
M  V30 3 C -1.2241 -2.5795 1.9988 0
M  V30 4 C 0.9727 -2.8793 1.0606 0
M  V30 5 O -2.258 -2.9593 2.8097 0
M  V30 6 C -1.3822 -1.4154 1.2561 0
M  V30 7 C 0.8294 -1.7025 0.2968 0
M  V30 8 C -0.3629 -0.9535 0.3914 0
M  V30 9 C 1.9823 -1.2736 -0.574 0
M  V30 10 C -0.6509 0.3335 -0.3923 0 CFG=1
M  V30 11 C 1.6702 -1.2378 -2.0793 0
M  V30 12 C -0.7338 1.564 0.5139 0
M  V30 13 C 0.2232 0.6821 -1.6335 0
M  V30 14 N 0.4774 -0.4806 -2.4948 0
M  V30 15 C 0.3147 1.9035 1.3838 0
M  V30 16 C -1.8658 2.3939 0.4681 0
M  V30 17 C 0.577 -0.1037 -3.9034 0
M  V30 18 C 0.2291 3.0392 2.1912 0
M  V30 19 C -1.9483 3.5293 1.2763 0
M  V30 20 C -0.9015 3.8513 2.1372 0
M  V30 21 H 1.8895 -3.4613 0.9968 0
M  V30 22 H -1.9842 -3.784 3.2522 0
M  V30 23 H -2.3126 -0.8581 1.3512 0
M  V30 24 H 2.8326 -1.9534 -0.43 0
M  V30 25 H 2.3439 -0.2996 -0.2225 0
M  V30 26 H -1.6574 0.1632 -0.8085 0
M  V30 27 H 1.5511 -2.2681 -2.4382 0
M  V30 28 H 2.5653 -0.8346 -2.5727 0
M  V30 29 H -0.3365 1.4436 -2.1972 0
M  V30 30 H 1.1608 1.1835 -1.3587 0
M  V30 31 H 1.2038 1.2806 1.4457 0
M  V30 32 H -2.6943 2.1599 -0.1971 0
M  V30 33 H -0.359 0.3505 -4.2472 0
M  V30 34 H 1.3919 0.6066 -4.0833 0
M  V30 35 H 0.7426 -0.988 -4.529 0
M  V30 36 H 1.0444 3.2876 2.8658 0
M  V30 37 H -2.8316 4.1615 1.2352 0
M  V30 38 H -0.9681 4.7336 2.7684 0
M  V30 END ATOM
M  V30 BEGIN BOND
M  V30 1 1 1 2
M  V30 2 2 2 3
M  V30 3 1 2 4
M  V30 4 1 3 5
M  V30 5 1 3 6
M  V30 6 2 4 7
M  V30 7 2 6 8
M  V30 8 1 7 9
M  V30 9 1 8 10
M  V30 10 1 9 11
M  V30 11 1 10 12
M  V30 12 1 10 13
M  V30 13 1 11 14
M  V30 14 2 12 15
M  V30 15 1 12 16
M  V30 16 1 14 17
M  V30 17 1 15 18
M  V30 18 2 16 19
M  V30 19 2 18 20
M  V30 20 1 7 8
M  V30 21 1 13 14
M  V30 22 1 19 20
M  V30 23 1 4 21
M  V30 24 1 5 22
M  V30 25 1 6 23
M  V30 26 1 9 24
M  V30 27 1 9 25
M  V30 28 1 10 26
M  V30 29 1 11 27
M  V30 30 1 11 28
M  V30 31 1 13 29
M  V30 32 1 13 30
M  V30 33 1 15 31
M  V30 34 1 16 32
M  V30 35 1 17 33
M  V30 36 1 17 34
M  V30 37 1 17 35
M  V30 38 1 18 36
M  V30 39 1 19 37
M  V30 40 1 20 38
M  V30 END BOND
M  V30 BEGIN COLLECTION
M  V30 MDLV30/STEABS ATOMS=(1 10)
M  V30 END COLLECTION
M  V30 END CTAB
M  END
>  <NO.>
2601

>  <Name>
sch-23390

>  <SMILES>
CN1CCc2cc(Cl)c(O)cc2[C@@H](c2ccccc2)C1

>  <logBB>


>  <Class>
1

>  <MW>
287.11

>  <nHBAcc>
2

>  <nHBDon>
1

>  <SLogP>
3.67

>  <TopoPSA>
23.47

>  <MMFF94 Energy>
103.4

$$$$
Cc1[nH]c(-c2ccccc2)nc1CC#N
Actelion Java MolfileCreator 2.0

  0  0  0  0  0  0              0 V3000
M  V30 BEGIN CTAB
M  V30 COUNTS 26 27 0 0 0
M  V30 BEGIN ATOM
M  V30 1 N 2.1397 -2.219 4.2035 0
M  V30 2 C 2.3595 -1.8181 3.1351 0
M  V30 3 C 2.6818 -1.2971 1.8008 0
M  V30 4 C 1.553 -0.4932 1.2527 0
M  V30 5 N 0.8964 -0.9093 0.1153 0
M  V30 6 C 1.015 0.7003 1.6961 0
M  V30 7 C -0.0387 -0.0117 -0.1424 0
M  V30 8 N -4.0E-4 0.976 0.8147 0
M  V30 9 C 1.3317 1.5727 2.8494 0
M  V30 10 C -0.9955 -0.0563 -1.2546 0
M  V30 11 C -1.0907 -1.2239 -2.0275 0
M  V30 12 C -1.7559 1.058 -1.641 0
M  V30 13 C -1.9536 -1.2952 -3.1241 0
M  V30 14 C -2.6203 0.9878 -2.7391 0
M  V30 15 C -2.722 -0.1893 -3.4765 0
M  V30 16 H 2.9084 -2.1292 1.1246 0
M  V30 17 H 3.581 -0.6724 1.8492 0
M  V30 18 H -0.6285 1.7641 0.8648 0
M  V30 19 H 0.7767 1.2476 3.7349 0
M  V30 20 H 2.4007 1.5387 3.0819 0
M  V30 21 H 1.0681 2.615 2.6421 0
M  V30 22 H -0.488 -2.0936 -1.7695 0
M  V30 23 H -1.6886 2.0009 -1.1074 0
M  V30 24 H -2.0187 -2.2132 -3.7021 0
M  V30 25 H -3.2089 1.8565 -3.0238 0
M  V30 26 H -3.392 -0.2424 -4.3308 0
M  V30 END ATOM
M  V30 BEGIN BOND
M  V30 1 3 1 2
M  V30 2 1 2 3
M  V30 3 1 3 4
M  V30 4 1 4 5
M  V30 5 2 4 6
M  V30 6 2 5 7
M  V30 7 1 6 8
M  V30 8 1 6 9
M  V30 9 1 7 10
M  V30 10 2 10 11
M  V30 11 1 10 12
M  V30 12 1 11 13
M  V30 13 2 12 14
M  V30 14 2 13 15
M  V30 15 1 7 8
M  V30 16 1 14 15
M  V30 17 1 3 16
M  V30 18 1 3 17
M  V30 19 1 8 18
M  V30 20 1 9 19
M  V30 21 1 9 20
M  V30 22 1 9 21
M  V30 23 1 11 22
M  V30 24 1 12 23
M  V30 25 1 13 24
M  V30 26 1 14 25
M  V30 27 1 15 26
M  V30 END BOND
M  V30 END CTAB
M  END
>  <NO.>
2608

>  <Name>
mefenidil

>  <SMILES>
Cc1[nH]c(-c2ccccc2)nc1CC#N

>  <logBB>


>  <Class>
1

>  <MW>
197.1

>  <nHBAcc>
2

>  <nHBDon>
1

>  <SLogP>
2.45

>  <TopoPSA>
52.47

>  <MMFF94 Energy>
44.039

$$$$
Cc1cc(Cl)ccc1OC(C)C(=O)O
Actelion Java MolfileCreator 2.0

  0  0  0  0  0  0              0 V3000
M  V30 BEGIN CTAB
M  V30 COUNTS 25 25 0 0 0
M  V30 BEGIN ATOM
M  V30 1 Cl -2.4782 -2.6382 3.5188 0
M  V30 2 C -1.7982 -1.606 2.3215 0
M  V30 3 C -1.8923 -1.953 0.9732 0
M  V30 4 C -1.1639 -0.4271 2.706 0
M  V30 5 C -1.3484 -1.1164 -0.0135 0
M  V30 6 C -0.6066 0.4052 1.7351 0
M  V30 7 C -0.6747 0.0468 0.385 0
M  V30 8 C -1.4464 -1.5072 -1.4607 0
M  V30 9 O -0.158 0.868 -0.5811 0
M  V30 10 C 1.2622 1.0409 -0.482 0 CFG=2
M  V30 11 C 1.9374 0.4447 -1.7149 0
M  V30 12 C 1.5408 2.5373 -0.4106 0
M  V30 13 O 1.4086 -0.1032 -2.6688 0
M  V30 14 O 3.2856 0.5437 -1.6686 0
M  V30 15 H -2.3963 -2.8738 0.6886 0
M  V30 16 H -1.1059 -0.1491 3.7548 0
M  V30 17 H -0.1335 1.335 2.0372 0
M  V30 18 H -0.5126 -1.9756 -1.7853 0
M  V30 19 H -1.6538 -0.6359 -2.0903 0
M  V30 20 H -2.2635 -2.2186 -1.6219 0
M  V30 21 H 1.6858 0.5311 0.3934 0
M  V30 22 H 1.1753 3.0455 -1.3103 0
M  V30 23 H 2.6111 2.7448 -0.3149 0
M  V30 24 H 1.0221 2.9879 0.442 0
M  V30 25 H 3.5764 0.1145 -2.5015 0
M  V30 END ATOM
M  V30 BEGIN BOND
M  V30 1 1 1 2
M  V30 2 2 2 3
M  V30 3 1 2 4
M  V30 4 1 3 5
M  V30 5 2 4 6
M  V30 6 2 5 7
M  V30 7 1 5 8
M  V30 8 1 7 9
M  V30 9 1 9 10
M  V30 10 1 10 11
M  V30 11 1 10 12
M  V30 12 2 11 13
M  V30 13 1 11 14
M  V30 14 1 6 7
M  V30 15 1 3 15
M  V30 16 1 4 16
M  V30 17 1 6 17
M  V30 18 1 8 18
M  V30 19 1 8 19
M  V30 20 1 8 20
M  V30 21 1 10 21
M  V30 22 1 12 22
M  V30 23 1 12 23
M  V30 24 1 12 24
M  V30 25 1 14 25
M  V30 END BOND
M  V30 BEGIN COLLECTION
M  V30 MDLV30/STERAC1 ATOMS=(1 10)
M  V30 END COLLECTION
M  V30 END CTAB
M  END
>  <NO.>
2609

>  <Name>
mecoprop

>  <SMILES>
Cc1cc(Cl)ccc1OC(C)C(=O)O

>  <logBB>


>  <Class>
1

>  <MW>
214.04

>  <nHBAcc>
2

>  <nHBDon>
1

>  <SLogP>
2.5

>  <TopoPSA>
46.53

>  <MMFF94 Energy>
28.167

$$$$
Cc1cccc(C)c1NC(=O)C(C)N
Actelion Java MolfileCreator 2.0

  0  0  0  0  0  0              0 V3000
M  V30 BEGIN CTAB
M  V30 COUNTS 30 30 0 0 0
M  V30 BEGIN ATOM
M  V30 1 O 1.4759 0.6989 -1.3205 0
M  V30 2 C 1.3738 0.3987 -0.1357 0
M  V30 3 N 0.1968 0.0885 0.5261 0
M  V30 4 C 2.5813 0.3614 0.8287 0 CFG=1
M  V30 5 C -1.0659 -0.0059 -0.0823 0
M  V30 6 N 2.4398 -0.7843 1.7633 0
M  V30 7 C 3.9032 0.279 0.0771 0
M  V30 8 C -1.6625 1.1027 -0.7145 0
M  V30 9 C -1.7594 -1.2315 0.0116 0
M  V30 10 C -2.9277 0.9475 -1.3043 0
M  V30 11 C -1.0013 2.4503 -0.8076 0
M  V30 12 C -3.0316 -1.3456 -0.5679 0
M  V30 13 C -1.1649 -2.4275 0.7043 0
M  V30 14 C -3.6081 -0.2652 -1.2296 0
M  V30 15 H 0.3318 -0.333 1.4416 0
M  V30 16 H 2.5507 1.2872 1.4149 0
M  V30 17 H 3.2338 -0.7715 2.4058 0
M  V30 18 H 2.5515 -1.6465 1.2243 0
M  V30 19 H 3.9513 -0.6172 -0.5514 0
M  V30 20 H 4.7511 0.2573 0.7701 0
M  V30 21 H 4.0313 1.147 -0.5787 0
M  V30 22 H -3.3951 1.783 -1.8213 0
M  V30 23 H -0.3843 2.5097 -1.7087 0
M  V30 24 H -1.7518 3.2475 -0.8546 0
M  V30 25 H -0.3864 2.6598 0.0729 0
M  V30 26 H -3.5795 -2.2836 -0.5154 0
M  V30 27 H -1.049 -2.2269 1.7741 0
M  V30 28 H -0.1908 -2.6757 0.2704 0
M  V30 29 H -1.8025 -3.3117 0.5997 0
M  V30 30 H -4.5893 -0.3664 -1.6857 0
M  V30 END ATOM
M  V30 BEGIN BOND
M  V30 1 2 1 2
M  V30 2 1 2 3
M  V30 3 1 2 4
M  V30 4 1 3 5
M  V30 5 1 4 6
M  V30 6 1 4 7
M  V30 7 2 5 8
M  V30 8 1 5 9
M  V30 9 1 8 10
M  V30 10 1 8 11
M  V30 11 2 9 12
M  V30 12 1 9 13
M  V30 13 2 10 14
M  V30 14 1 12 14
M  V30 15 1 3 15
M  V30 16 1 4 16
M  V30 17 1 6 17
M  V30 18 1 6 18
M  V30 19 1 7 19
M  V30 20 1 7 20
M  V30 21 1 7 21
M  V30 22 1 10 22
M  V30 23 1 11 23
M  V30 24 1 11 24
M  V30 25 1 11 25
M  V30 26 1 12 26
M  V30 27 1 13 27
M  V30 28 1 13 28
M  V30 29 1 13 29
M  V30 30 1 14 30
M  V30 END BOND
M  V30 BEGIN COLLECTION
M  V30 MDLV30/STERAC1 ATOMS=(1 4)
M  V30 END COLLECTION
M  V30 END CTAB
M  END
>  <NO.>
2610

>  <Name>
tocainide

>  <SMILES>
Cc1cccc(C)c1NC(=O)C(C)N

>  <logBB>


>  <Class>
-1

>  <MW>
192.13

>  <nHBAcc>
2

>  <nHBDon>
2

>  <SLogP>
1.59

>  <TopoPSA>
55.12

>  <MMFF94 Energy>
48.753

$$$$
Cc1ccccc1OCC(O)CNCCOc1ccc(C(N)=O)cc1
Actelion Java MolfileCreator 2.0

  0  0  0  0  0  0              0 V3000
M  V30 BEGIN CTAB
M  V30 COUNTS 49 50 0 0 0
M  V30 BEGIN ATOM
M  V30 1 O 6.9281 0.4711 1.4926 0
M  V30 2 C 6.0038 -0.1389 2.016 0
M  V30 3 N 6.2284 -1.3264 2.6535 0
M  V30 4 C 4.6047 0.3639 1.9533 0
M  V30 5 C 3.6144 -0.0483 2.8502 0
M  V30 6 C 4.285 1.3051 0.9664 0
M  V30 7 C 2.317 0.4625 2.7387 0
M  V30 8 C 2.9851 1.8131 0.859 0
M  V30 9 C 1.9935 1.3865 1.7413 0
M  V30 10 O 0.6909 1.7989 1.7477 0
M  V30 11 C 0.2641 2.6227 0.6566 0
M  V30 12 C -1.2594 2.7998 0.7428 0
M  V30 13 N -1.9314 1.5091 0.5564 0
M  V30 14 C -3.388 1.6257 0.6505 0
M  V30 15 C -4.1185 0.2672 0.5553 0 CFG=2
M  V30 16 O -3.7028 -0.5752 1.6412 0
M  V30 17 C -3.9201 -0.4743 -0.778 0
M  V30 18 O -2.5947 -1.0134 -0.8224 0
M  V30 19 C -2.1724 -1.5568 -2.0058 0
M  V30 20 C -0.7878 -1.78 -2.1166 0
M  V30 21 C -3.0171 -1.9128 -3.0613 0
M  V30 22 C -0.2712 -2.3316 -3.2986 0
M  V30 23 C 0.1486 -1.3927 -1.0048 0
M  V30 24 C -2.4909 -2.4696 -4.2293 0
M  V30 25 C -1.1199 -2.6762 -4.3493 0
M  V30 26 H 5.5054 -1.9206 3.0281 0
M  V30 27 H 7.1838 -1.6582 2.6808 0
M  V30 28 H 3.8297 -0.7422 3.6556 0
M  V30 29 H 5.0515 1.6474 0.273 0
M  V30 30 H 1.5499 0.1413 3.44 0
M  V30 31 H 2.7865 2.5425 0.0807 0
M  V30 32 H 0.5222 2.1626 -0.3052 0
M  V30 33 H 0.7408 3.6067 0.7354 0
M  V30 34 H -1.5808 3.5046 -0.0317 0
M  V30 35 H -1.5188 3.2119 1.7252 0
M  V30 36 H -1.5957 0.8673 1.2783 0
M  V30 37 H -3.7586 2.285 -0.1429 0
M  V30 38 H -3.6443 2.0787 1.6164 0
M  V30 39 H -5.1895 0.4582 0.6894 0
M  V30 40 H -2.8716 -0.987 1.3314 0
M  V30 41 H -4.6295 -1.3097 -0.8127 0
M  V30 42 H -4.1024 0.2084 -1.6163 0
M  V30 43 H -4.0916 -1.7785 -3.0024 0
M  V30 44 H 0.7984 -2.4955 -3.4059 0
M  V30 45 H 0.2233 -0.3032 -0.941 0
M  V30 46 H 1.1544 -1.7923 -1.1719 0
M  V30 47 H -0.2018 -1.7903 -0.0467 0
M  V30 48 H -3.154 -2.7439 -5.0457 0
M  V30 49 H -0.7108 -3.1066 -5.2594 0
M  V30 END ATOM
M  V30 BEGIN BOND
M  V30 1 2 1 2
M  V30 2 1 2 3
M  V30 3 1 2 4
M  V30 4 2 4 5
M  V30 5 1 4 6
M  V30 6 1 5 7
M  V30 7 2 6 8
M  V30 8 2 7 9
M  V30 9 1 9 10
M  V30 10 1 10 11
M  V30 11 1 11 12
M  V30 12 1 12 13
M  V30 13 1 13 14
M  V30 14 1 14 15
M  V30 15 1 15 16
M  V30 16 1 15 17
M  V30 17 1 17 18
M  V30 18 1 18 19
M  V30 19 2 19 20
M  V30 20 1 19 21
M  V30 21 1 20 22
M  V30 22 1 20 23
M  V30 23 2 21 24
M  V30 24 2 22 25
M  V30 25 1 8 9
M  V30 26 1 24 25
M  V30 27 1 3 26
M  V30 28 1 3 27
M  V30 29 1 5 28
M  V30 30 1 6 29
M  V30 31 1 7 30
M  V30 32 1 8 31
M  V30 33 1 11 32
M  V30 34 1 11 33
M  V30 35 1 12 34
M  V30 36 1 12 35
M  V30 37 1 13 36
M  V30 38 1 14 37
M  V30 39 1 14 38
M  V30 40 1 15 39
M  V30 41 1 16 40
M  V30 42 1 17 41
M  V30 43 1 17 42
M  V30 44 1 21 43
M  V30 45 1 22 44
M  V30 46 1 23 45
M  V30 47 1 23 46
M  V30 48 1 23 47
M  V30 49 1 24 48
M  V30 50 1 25 49
M  V30 END BOND
M  V30 BEGIN COLLECTION
M  V30 MDLV30/STERAC1 ATOMS=(1 15)
M  V30 END COLLECTION
M  V30 END CTAB
M  END
>  <NO.>
2611

>  <Name>
tolamolol

>  <SMILES>
Cc1ccccc1OCC(O)CNCCOc1ccc(C(N)=O)cc1

>  <logBB>


>  <Class>
-1

>  <MW>
344.17

>  <nHBAcc>
5

>  <nHBDon>
3

>  <SLogP>
1.5

>  <TopoPSA>
93.81

>  <MMFF94 Energy>
83.991

$$$$
N=c1nc(N2CCCCC2)cc(N)n1O
Actelion Java MolfileCreator 2.0

  0  0  0  0  0  0              0 V3000
M  V30 BEGIN CTAB
M  V30 COUNTS 30 31 0 0 0
M  V30 BEGIN ATOM
M  V30 1 O -1.6459 -3.8437 2.038 0
M  V30 2 N -1.2942 -2.6474 1.4069 0
M  V30 3 C -0.7669 -1.6636 2.2178 0
M  V30 4 C -1.3322 -2.5386 0.0314 0
M  V30 5 N -0.2513 -0.5115 1.6938 0
M  V30 6 N -0.7136 -1.7571 3.5088 0
M  V30 7 N -1.8359 -3.5464 -0.7485 0
M  V30 8 C -0.8494 -1.4097 -0.5154 0
M  V30 9 C -0.2952 -0.3456 0.3963 0
M  V30 10 N 0.2098 0.8413 -0.138 0
M  V30 11 C -0.4059 1.5201 -1.2802 0
M  V30 12 C 1.0586 1.7093 0.6942 0
M  V30 13 C 0.6654 2.1503 -2.1652 0
M  V30 14 C 2.1469 2.3614 -0.1574 0
M  V30 15 C 1.559 3.0888 -1.3614 0
M  V30 16 H -0.8223 -4.3579 1.9448 0
M  V30 17 H -1.1676 -2.6472 3.7344 0
M  V30 18 H -1.9261 -3.4355 -1.7489 0
M  V30 19 H -2.3363 -4.2878 -0.2716 0
M  V30 20 H -0.8049 -1.2585 -1.582 0
M  V30 21 H -1.0094 0.8454 -1.8932 0
M  V30 22 H -1.0899 2.2937 -0.9091 0
M  V30 23 H 0.4374 2.4742 1.1756 0
M  V30 24 H 1.5572 1.1419 1.4886 0
M  V30 25 H 0.1927 2.7016 -2.9855 0
M  V30 26 H 1.2794 1.3609 -2.6163 0
M  V30 27 H 2.8432 1.5896 -0.5092 0
M  V30 28 H 2.726 3.0623 0.454 0
M  V30 29 H 2.3649 3.4724 -1.9964 0
M  V30 30 H 0.9755 3.953 -1.0212 0
M  V30 END ATOM
M  V30 BEGIN BOND
M  V30 1 1 1 2
M  V30 2 1 2 3
M  V30 3 1 2 4
M  V30 4 1 3 5
M  V30 5 2 3 6
M  V30 6 1 4 7
M  V30 7 2 4 8
M  V30 8 2 5 9
M  V30 9 1 9 10
M  V30 10 1 10 11
M  V30 11 1 10 12
M  V30 12 1 11 13
M  V30 13 1 12 14
M  V30 14 1 13 15
M  V30 15 1 8 9
M  V30 16 1 14 15
M  V30 17 1 1 16
M  V30 18 1 6 17
M  V30 19 1 7 18
M  V30 20 1 7 19
M  V30 21 1 8 20
M  V30 22 1 11 21
M  V30 23 1 11 22
M  V30 24 1 12 23
M  V30 25 1 12 24
M  V30 26 1 13 25
M  V30 27 1 13 26
M  V30 28 1 14 27
M  V30 29 1 14 28
M  V30 30 1 15 29
M  V30 31 1 15 30
M  V30 END BOND
M  V30 END CTAB
M  END
>  <NO.>
2613

>  <Name>
minoxidil

>  <SMILES>
N=c1nc(N2CCCCC2)cc(N)n1O

>  <logBB>


>  <Class>
-1

>  <MW>
209.13

>  <nHBAcc>
5

>  <nHBDon>
3

>  <SLogP>
0.17

>  <TopoPSA>
91.16

>  <MMFF94 Energy>
-63.242

$$$$
NC(N)=N/N=C/c1c(Cl)cccc1Cl
Actelion Java MolfileCreator 2.0

  0  0  0  0  0  0              0 V3000
M  V30 BEGIN CTAB
M  V30 COUNTS 22 22 0 0 0
M  V30 BEGIN ATOM
M  V30 1 Cl 0.6463 0.0807 2.2635 0
M  V30 2 C 0.0692 1.3949 1.2953 0
M  V30 3 C -0.0925 1.3362 -0.0997 0
M  V30 4 C -0.1941 2.5874 1.9862 0
M  V30 5 C -0.5071 2.4954 -0.7797 0
M  V30 6 C 0.1615 0.1076 -0.8824 0
M  V30 7 C -0.6119 3.7265 1.3034 0
M  V30 8 Cl -0.7606 2.5483 -2.4924 0
M  V30 9 C -0.7653 3.6804 -0.0783 0
M  V30 10 N -7.0E-4 -1.0809 -0.3967 0
M  V30 11 N 0.2909 -2.0525 -1.3615 0
M  V30 12 C 0.37 -3.2429 -0.8512 0
M  V30 13 N 0.6286 -4.33 -1.6001 0
M  V30 14 N 0.2217 -3.5413 0.4546 0
M  V30 15 H -0.0656 2.634 3.0664 0
M  V30 16 H 0.4804 0.2303 -1.9327 0
M  V30 17 H -0.8136 4.647 1.8468 0
M  V30 18 H -1.0931 4.573 -0.6081 0
M  V30 19 H 0.9295 -5.1939 -1.1821 0
M  V30 20 H 0.7787 -4.1888 -2.589 0
M  V30 21 H 0.014 -2.7358 1.0363 0
M  V30 22 H -0.0473 -4.4551 0.7724 0
M  V30 END ATOM
M  V30 BEGIN BOND
M  V30 1 1 1 2
M  V30 2 2 2 3
M  V30 3 1 2 4
M  V30 4 1 3 5
M  V30 5 1 3 6
M  V30 6 2 4 7
M  V30 7 1 5 8
M  V30 8 2 5 9
M  V30 9 2 6 10
M  V30 10 1 10 11
M  V30 11 2 11 12
M  V30 12 1 12 13
M  V30 13 1 12 14
M  V30 14 1 7 9
M  V30 15 1 4 15
M  V30 16 1 6 16
M  V30 17 1 7 17
M  V30 18 1 9 18
M  V30 19 1 13 19
M  V30 20 1 13 20
M  V30 21 1 14 21
M  V30 22 1 14 22
M  V30 END BOND
M  V30 END CTAB
M  END
>  <NO.>
2614

>  <Name>
guanabenz

>  <SMILES>
NC(N)=N/N=C/c1c(Cl)cccc1Cl

>  <logBB>


>  <Class>
-1

>  <MW>
230.01

>  <nHBAcc>
2

>  <nHBDon>
2

>  <SLogP>
1.6

>  <TopoPSA>
76.76

>  <MMFF94 Energy>
-77.283

$$$$
NCC(CP(=O)(O)O)c1ccc(Cl)cc1
Actelion Java MolfileCreator 2.0

  0  0  0  0  0  0              0 V3000
M  V30 BEGIN CTAB
M  V30 COUNTS 28 28 0 0 0
M  V30 BEGIN ATOM
M  V30 1 Cl 3.5048 -3.7497 -2.4442 0
M  V30 2 C 2.4533 -2.6586 -1.6294 0
M  V30 3 C 1.4103 -3.1531 -0.8509 0
M  V30 4 C 2.6489 -1.2856 -1.7532 0
M  V30 5 C 0.5566 -2.2671 -0.189 0
M  V30 6 C 1.7956 -0.399 -1.0916 0
M  V30 7 C 0.7407 -0.8794 -0.2981 0
M  V30 8 C -0.2081 0.0686 0.4311 0 CFG=2
M  V30 9 C -1.0839 0.8131 -0.5838 0
M  V30 10 C 0.5727 1.0062 1.3748 0
M  V30 11 P -2.3392 1.886 0.0576 0
M  V30 12 N -0.2869 1.5794 2.4035 0
M  V30 13 O -1.9979 3.2722 0.4893 0
M  V30 14 O -3.1786 1.0627 1.1458 0
M  V30 15 O -3.4291 1.956 -1.1225 0
M  V30 16 H 1.2542 -4.2242 -0.7558 0
M  V30 17 H 3.4604 -0.8985 -2.3635 0
M  V30 18 H -0.256 -2.6709 0.4118 0
M  V30 19 H 1.9622 0.67 -1.2064 0
M  V30 20 H -0.8743 -0.5438 1.0547 0
M  V30 21 H -1.5874 0.063 -1.2081 0
M  V30 22 H -0.4643 1.4012 -1.2716 0
M  V30 23 H 1.037 1.8194 0.8052 0
M  V30 24 H 1.3823 0.4619 1.8757 0
M  V30 25 H 0.2393 2.2639 2.9468 0
M  V30 26 H -0.5755 0.854 3.0595 0
M  V30 27 H -3.7344 1.648 1.692 0
M  V30 28 H -4.0794 2.6673 -0.9777 0
M  V30 END ATOM
M  V30 BEGIN BOND
M  V30 1 1 1 2
M  V30 2 2 2 3
M  V30 3 1 2 4
M  V30 4 1 3 5
M  V30 5 2 4 6
M  V30 6 2 5 7
M  V30 7 1 7 8
M  V30 8 1 8 9
M  V30 9 1 8 10
M  V30 10 1 9 11
M  V30 11 1 10 12
M  V30 12 2 11 13
M  V30 13 1 11 14
M  V30 14 1 11 15
M  V30 15 1 6 7
M  V30 16 1 3 16
M  V30 17 1 4 17
M  V30 18 1 5 18
M  V30 19 1 6 19
M  V30 20 1 8 20
M  V30 21 1 9 21
M  V30 22 1 9 22
M  V30 23 1 10 23
M  V30 24 1 10 24
M  V30 25 1 12 25
M  V30 26 1 12 26
M  V30 27 1 14 27
M  V30 28 1 15 28
M  V30 END BOND
M  V30 BEGIN COLLECTION
M  V30 MDLV30/STERAC1 ATOMS=(1 8)
M  V30 END COLLECTION
M  V30 END CTAB
M  END
>  <NO.>
2615

>  <Name>
phaclofen

>  <SMILES>
NCC(CP(=O)(O)O)c1ccc(Cl)cc1

>  <logBB>


>  <Class>
1

>  <MW>
249.03

>  <nHBAcc>
2

>  <nHBDon>
3

>  <SLogP>
1.56

>  <TopoPSA>
83.55

>  <MMFF94 Energy>
-106.16

$$$$
NCC(CS(=O)(=O)O)c1ccc(Cl)cc1
Actelion Java MolfileCreator 2.0

  0  0  0  0  0  0              0 V3000
M  V30 BEGIN CTAB
M  V30 COUNTS 27 27 0 0 0
M  V30 BEGIN ATOM
M  V30 1 Cl 3.3563 -3.3563 -1.6362 0
M  V30 2 C 2.2458 -2.2209 -0.9747 0
M  V30 3 C 1.2467 -2.653 -0.1077 0
M  V30 4 C 2.3542 -0.873 -1.3063 0
M  V30 5 C 0.3482 -1.7295 0.4314 0
M  V30 6 C 1.4558 0.0517 -0.7673 0
M  V30 7 C 0.4408 -0.3658 0.1082 0
M  V30 8 C -0.5577 0.6151 0.7113 0 CFG=2
M  V30 9 C -1.3946 1.3305 -0.3564 0
M  V30 10 C 0.1409 1.6685 1.6057 0
M  V30 11 S -2.5007 0.2117 -1.2049 0
M  V30 12 N 0.7853 1.0714 2.774 0
M  V30 13 O -3.3677 -0.4463 -0.2541 0
M  V30 14 O -1.8084 -0.4974 -2.2532 0
M  V30 15 O -3.4268 1.329 -1.9146 0
M  V30 16 H 1.1571 -3.7047 0.1498 0
M  V30 17 H 3.1314 -0.5365 -1.987 0
M  V30 18 H -0.4288 -2.0868 1.1056 0
M  V30 19 H 1.5602 1.0975 -1.0462 0
M  V30 20 H -1.2492 0.0548 1.3562 0
M  V30 21 H -0.783 1.8288 -1.1148 0
M  V30 22 H -2.0369 2.0806 0.1196 0
M  V30 23 H -0.5997 2.3903 1.9687 0
M  V30 24 H 0.8862 2.2345 1.0353 0
M  V30 25 H 1.307 1.785 3.2819 0
M  V30 26 H 1.4743 0.3805 2.4715 0
M  V30 27 H -4.3644 1.085 -1.7548 0
M  V30 END ATOM
M  V30 BEGIN BOND
M  V30 1 1 1 2
M  V30 2 2 2 3
M  V30 3 1 2 4
M  V30 4 1 3 5
M  V30 5 2 4 6
M  V30 6 2 5 7
M  V30 7 1 7 8
M  V30 8 1 8 9
M  V30 9 1 8 10
M  V30 10 1 9 11
M  V30 11 1 10 12
M  V30 12 2 11 13
M  V30 13 2 11 14
M  V30 14 1 11 15
M  V30 15 1 6 7
M  V30 16 1 3 16
M  V30 17 1 4 17
M  V30 18 1 5 18
M  V30 19 1 6 19
M  V30 20 1 8 20
M  V30 21 1 9 21
M  V30 22 1 9 22
M  V30 23 1 10 23
M  V30 24 1 10 24
M  V30 25 1 12 25
M  V30 26 1 12 26
M  V30 27 1 15 27
M  V30 END BOND
M  V30 BEGIN COLLECTION
M  V30 MDLV30/STERAC1 ATOMS=(1 8)
M  V30 END COLLECTION
M  V30 END CTAB
M  END
>  <NO.>
2616

>  <Name>
saclofen

>  <SMILES>
NCC(CS(=O)(=O)O)c1ccc(Cl)cc1

>  <logBB>


>  <Class>
1

>  <MW>
249.02

>  <nHBAcc>
3

>  <nHBDon>
2

>  <SLogP>
1.27

>  <TopoPSA>
80.39

>  <MMFF94 Energy>
-32.165

$$$$
O=C(O)c1cc(N=Nc2ccc(O)c(C(=O)O)c2)ccc1O
Actelion Java MolfileCreator 2.0

  0  0  0  0  0  0              0 V3000
M  V30 BEGIN CTAB
M  V30 COUNTS 32 33 0 0 0
M  V30 BEGIN ATOM
M  V30 1 O -1.5966 -2.076 5.4365 0
M  V30 2 C -1.0067 -1.6281 4.4674 0
M  V30 3 O 0.3327 -1.5509 4.4249 0
M  V30 4 C -1.6737 -1.1248 3.2477 0
M  V30 5 C -3.0732 -1.143 3.1684 0
M  V30 6 C -0.9304 -0.6264 2.1688 0
M  V30 7 O -3.8821 -1.6098 4.1701 0
M  V30 8 C -3.7215 -0.6681 2.0309 0
M  V30 9 C -1.5755 -0.159 1.0158 0
M  V30 10 C -2.9734 -0.1739 0.9611 0
M  V30 11 N -0.8473 0.3686 -0.0647 0
M  V30 12 N -0.2107 -0.5401 -0.6428 0
M  V30 13 C 0.5149 -0.0123 -1.7247 0
M  V30 14 C 1.6256 0.8168 -1.5211 0
M  V30 15 C 0.154 -0.3586 -3.0303 0
M  V30 16 C 2.3581 1.316 -2.6084 0
M  V30 17 C 0.8755 0.132 -4.1197 0
M  V30 18 C 1.9712 0.9671 -3.9091 0
M  V30 19 C 3.5136 2.1907 -2.2969 0
M  V30 20 O 2.6154 1.3981 -5.036 0
M  V30 21 O 3.8944 2.5087 -1.1862 0
M  V30 22 O 4.151 2.6355 -3.3996 0
M  V30 23 H 0.6335 -1.9129 5.2849 0
M  V30 24 H 0.1555 -0.5966 2.2096 0
M  V30 25 H -3.3223 -1.9164 4.9166 0
M  V30 26 H -4.8072 -0.6813 1.9786 0
M  V30 27 H -3.4812 0.2001 0.0753 0
M  V30 28 H 1.9133 1.0723 -0.5028 0
M  V30 29 H -0.6982 -1.0127 -3.1977 0
M  V30 30 H 0.5846 -0.1374 -5.1319 0
M  V30 31 H 3.356 1.9754 -4.7524 0
M  V30 32 H 4.873 3.1903 -3.0255 0
M  V30 END ATOM
M  V30 BEGIN BOND
M  V30 1 2 1 2
M  V30 2 1 2 3
M  V30 3 1 2 4
M  V30 4 2 4 5
M  V30 5 1 4 6
M  V30 6 1 5 7
M  V30 7 1 5 8
M  V30 8 2 6 9
M  V30 9 2 8 10
M  V30 10 1 9 11
M  V30 11 2 11 12
M  V30 12 1 12 13
M  V30 13 2 13 14
M  V30 14 1 13 15
M  V30 15 1 14 16
M  V30 16 2 15 17
M  V30 17 2 16 18
M  V30 18 1 16 19
M  V30 19 1 18 20
M  V30 20 2 19 21
M  V30 21 1 19 22
M  V30 22 1 9 10
M  V30 23 1 17 18
M  V30 24 1 3 23
M  V30 25 1 6 24
M  V30 26 1 7 25
M  V30 27 1 8 26
M  V30 28 1 10 27
M  V30 29 1 14 28
M  V30 30 1 15 29
M  V30 31 1 17 30
M  V30 32 1 20 31
M  V30 33 1 22 32
M  V30 END BOND
M  V30 END CTAB
M  END
>  <NO.>
2617

>  <Name>
olsalazine sodium

>  <SMILES>
O=C(O)c1cc(N=Nc2ccc(O)c(C(=O)O)c2)ccc1O

>  <logBB>


>  <Class>
-1

>  <MW>
302.05

>  <nHBAcc>
6

>  <nHBDon>
4

>  <SLogP>
2.91

>  <TopoPSA>
139.78

>  <MMFF94 Energy>
3.2862

$$$$
O=C(O)c1ccc2[nH]cc(CCCCN3CC=C(c4ccccc4)CC3)c2c1
Actelion Java MolfileCreator 2.0

  0  0  0  0  0  0              0 V3000
M  V30 BEGIN CTAB
M  V30 COUNTS 54 57 0 0 0
M  V30 BEGIN ATOM
M  V30 1 O 5.417 0.6361 -0.318 0
M  V30 2 C 5.8007 0.5974 0.8366 0
M  V30 3 O 7.0218 0.1255 1.1462 0
M  V30 4 C 5.0314 1.0376 2.0259 0
M  V30 5 C 3.7389 1.5458 1.8177 0
M  V30 6 C 5.5593 0.9566 3.3187 0
M  V30 7 C 2.9739 1.9754 2.9216 0
M  V30 8 C 4.8175 1.3769 4.4282 0
M  V30 9 C 3.532 1.8796 4.1965 0
M  V30 10 C 1.6603 2.5275 3.0668 0
M  V30 11 N 2.5952 2.3563 5.0838 0
M  V30 12 C 1.4666 2.7475 4.4165 0
M  V30 13 C 0.6803 2.8133 1.9728 0
M  V30 14 C -0.1396 1.5774 1.5969 0
M  V30 15 C -1.1335 1.8896 0.4751 0
M  V30 16 C -1.9574 0.6475 0.1078 0
M  V30 17 N -2.9783 0.953 -0.9079 0
M  V30 18 C -2.4175 1.0513 -2.2668 0
M  V30 19 C -4.0656 -0.0434 -0.9015 0
M  V30 20 C -2.2111 -0.2598 -2.9775 0
M  V30 21 C -3.6264 -1.4539 -1.3356 0
M  V30 22 C -2.7525 -1.4226 -2.5671 0
M  V30 23 C -2.5149 -2.6886 -3.2903 0
M  V30 24 C -2.5939 -2.7453 -4.6902 0
M  V30 25 C -2.232 -3.871 -2.592 0
M  V30 26 C -2.3857 -3.9472 -5.3725 0
M  V30 27 C -2.0223 -5.0733 -3.2737 0
M  V30 28 C -2.0988 -5.1106 -4.6636 0
M  V30 29 H 7.401 -0.1208 0.2769 0
M  V30 30 H 3.3278 1.6085 0.8134 0
M  V30 31 H 6.5606 0.5632 3.4801 0
M  V30 32 H 5.2309 1.3124 5.4297 0
M  V30 33 H 2.7269 2.4077 6.0844 0
M  V30 34 H 0.6195 3.1501 4.9563 0
M  V30 35 H 1.2173 3.1873 1.0924 0
M  V30 36 H 0.0069 3.6197 2.2904 0
M  V30 37 H -0.6809 1.2107 2.4784 0
M  V30 38 H 0.5294 0.7682 1.2784 0
M  V30 39 H -1.8061 2.6943 0.7979 0
M  V30 40 H -0.5802 2.2603 -0.3944 0
M  V30 41 H -1.2934 -0.166 -0.2092 0
M  V30 42 H -2.4536 0.3084 1.0268 0
M  V30 43 H -1.4728 1.6048 -2.2633 0
M  V30 44 H -3.1027 1.6541 -2.8768 0
M  V30 45 H -4.5283 -0.092 0.0922 0
M  V30 46 H -4.8624 0.3079 -1.5716 0
M  V30 47 H -1.5808 -0.2189 -3.8617 0
M  V30 48 H -4.5266 -2.051 -1.5264 0
M  V30 49 H -3.0831 -1.933 -0.5122 0
M  V30 50 H -2.8335 -1.8537 -5.2648 0
M  V30 51 H -2.1539 -3.8686 -1.5078 0
M  V30 52 H -2.4517 -3.9727 -6.4569 0
M  V30 53 H -1.7966 -5.979 -2.717 0
M  V30 54 H -1.9359 -6.0453 -5.1933 0
M  V30 END ATOM
M  V30 BEGIN BOND
M  V30 1 2 1 2
M  V30 2 1 2 3
M  V30 3 1 2 4
M  V30 4 2 4 5
M  V30 5 1 4 6
M  V30 6 1 5 7
M  V30 7 2 6 8
M  V30 8 2 7 9
M  V30 9 1 7 10
M  V30 10 1 9 11
M  V30 11 2 10 12
M  V30 12 1 10 13
M  V30 13 1 13 14
M  V30 14 1 14 15
M  V30 15 1 15 16
M  V30 16 1 16 17
M  V30 17 1 17 18
M  V30 18 1 17 19
M  V30 19 1 18 20
M  V30 20 1 19 21
M  V30 21 2 20 22
M  V30 22 1 22 23
M  V30 23 2 23 24
M  V30 24 1 23 25
M  V30 25 1 24 26
M  V30 26 2 25 27
M  V30 27 2 26 28
M  V30 28 1 8 9
M  V30 29 1 11 12
M  V30 30 1 21 22
M  V30 31 1 27 28
M  V30 32 1 3 29
M  V30 33 1 5 30
M  V30 34 1 6 31
M  V30 35 1 8 32
M  V30 36 1 11 33
M  V30 37 1 12 34
M  V30 38 1 13 35
M  V30 39 1 13 36
M  V30 40 1 14 37
M  V30 41 1 14 38
M  V30 42 1 15 39
M  V30 43 1 15 40
M  V30 44 1 16 41
M  V30 45 1 16 42
M  V30 46 1 18 43
M  V30 47 1 18 44
M  V30 48 1 19 45
M  V30 49 1 19 46
M  V30 50 1 20 47
M  V30 51 1 21 48
M  V30 52 1 21 49
M  V30 53 1 24 50
M  V30 54 1 25 51
M  V30 55 1 26 52
M  V30 56 1 27 53
M  V30 57 1 28 54
M  V30 END BOND
M  V30 END CTAB
M  END
>  <NO.>
2618

>  <Name>
carmoxirol

>  <SMILES>
O=C(O)c1ccc2[nH]cc(CCCCN3CC=C(c4ccccc4)CC3)c2c1

>  <logBB>


>  <Class>
-1

>  <MW>
374.2

>  <nHBAcc>
2

>  <nHBDon>
2

>  <SLogP>
4.98

>  <TopoPSA>
56.33

>  <MMFF94 Energy>
38.483

$$$$
c1ccc2nc(N3CCNCC3)ccc2c1
Actelion Java MolfileCreator 2.0

  0  0  0  0  0  0              0 V3000
M  V30 BEGIN CTAB
M  V30 COUNTS 31 33 0 0 0
M  V30 BEGIN ATOM
M  V30 1 N 0.7151 -0.7151 0.3178 0
M  V30 2 C -0.4188 -0.0303 0.0424 0
M  V30 3 C 0.733 -1.6283 1.3057 0
M  V30 4 N -0.4016 0.9027 -0.9913 0
M  V30 5 C -1.5833 -0.2913 0.7601 0
M  V30 6 C -0.4024 -1.926 2.0786 0
M  V30 7 C 1.9094 -2.3117 1.5848 0
M  V30 8 C -1.0584 2.2022 -0.7862 0
M  V30 9 C 0.8412 0.9587 -1.7805 0
M  V30 10 C -1.5779 -1.237 1.7839 0
M  V30 11 C -0.3383 -2.8893 3.1017 0
M  V30 12 C 1.9823 -3.2701 2.6006 0
M  V30 13 C -1.1998 2.9698 -2.1206 0
M  V30 14 C 0.6376 1.7674 -3.0803 0
M  V30 15 C 0.855 -3.5593 3.3609 0
M  V30 16 N 0.0642 3.1092 -2.8636 0
M  V30 17 H -2.5135 0.2084 0.5193 0
M  V30 18 H 2.7945 -2.0898 0.9936 0
M  V30 19 H -0.4681 2.7997 -0.0797 0
M  V30 20 H -2.0642 2.095 -0.3681 0
M  V30 21 H 1.1679 -0.0479 -2.0702 0
M  V30 22 H 1.6391 1.4208 -1.1847 0
M  V30 23 H -2.4936 -1.4324 2.3343 0
M  V30 24 H -1.2175 -3.12 3.6982 0
M  V30 25 H 2.9197 -3.7855 2.792 0
M  V30 26 H -1.9354 2.4596 -2.7556 0
M  V30 27 H -1.5962 3.9701 -1.9143 0
M  V30 28 H -0.0162 1.2046 -3.7587 0
M  V30 29 H 1.6031 1.8771 -3.5861 0
M  V30 30 H 0.9043 -4.3032 4.1515 0
M  V30 31 H -0.1254 3.5371 -3.7685 0
M  V30 END ATOM
M  V30 BEGIN BOND
M  V30 1 2 1 2
M  V30 2 1 1 3
M  V30 3 1 2 4
M  V30 4 1 2 5
M  V30 5 1 3 6
M  V30 6 2 3 7
M  V30 7 1 4 8
M  V30 8 1 4 9
M  V30 9 2 5 10
M  V30 10 2 6 11
M  V30 11 1 7 12
M  V30 12 1 8 13
M  V30 13 1 9 14
M  V30 14 1 11 15
M  V30 15 1 13 16
M  V30 16 1 6 10
M  V30 17 2 12 15
M  V30 18 1 14 16
M  V30 19 1 5 17
M  V30 20 1 7 18
M  V30 21 1 8 19
M  V30 22 1 8 20
M  V30 23 1 9 21
M  V30 24 1 9 22
M  V30 25 1 10 23
M  V30 26 1 11 24
M  V30 27 1 12 25
M  V30 28 1 13 26
M  V30 29 1 13 27
M  V30 30 1 14 28
M  V30 31 1 14 29
M  V30 32 1 15 30
M  V30 33 1 16 31
M  V30 END BOND
M  V30 END CTAB
M  END
>  <NO.>
2620

>  <Name>
quipazine

>  <SMILES>
c1ccc2nc(N3CCNCC3)ccc2c1

>  <logBB>


>  <Class>
1

>  <MW>
213.13

>  <nHBAcc>
3

>  <nHBDon>
1

>  <SLogP>
1.64

>  <TopoPSA>
28.16

>  <MMFF94 Energy>
73.877

$$$$
C/C(O)=C1/C(=O)[C@@H](N)[C@@H]2Cc3c(c(O)c4c(O)c(C)ccc4c3C)C(=O)C2(O)C1=O
Actelion Java MolfileCreator 2.0

  0  0  0  0  0  0              0 V3000
M  V30 BEGIN CTAB
M  V30 COUNTS 51 54 0 0 0
M  V30 BEGIN ATOM
M  V30 1 O -2.5853 -0.2421 -1.4536 0
M  V30 2 C -1.4566 0.1235 -1.114 0
M  V30 3 C -1.0126 -0.0549 0.2957 0
M  V30 4 C -0.4881 0.741 -2.1147 0
M  V30 5 C -1.8129 -0.7872 1.1903 0
M  V30 6 C 0.1992 0.5071 0.7256 0
M  V30 7 O -1.2655 1.2314 -3.2069 0
M  V30 8 C 0.5065 -0.2725 -2.6622 0
M  V30 9 C 0.2748 1.8805 -1.4428 0 CFG=1
M  V30 10 O -3.0218 -1.327 0.7851 0
M  V30 11 C -1.4327 -1.001 2.5398 0
M  V30 12 C 0.6386 0.253 2.0522 0
M  V30 13 C 1.0374 1.3484 -0.2139 0
M  V30 14 O 0.476 -1.4572 -2.3377 0
M  V30 15 C 1.5685 0.2738 -3.5595 0
M  V30 16 C 1.2449 2.6088 -2.3946 0 CFG=1
M  V30 17 C -2.2259 -1.721 3.4838 0
M  V30 18 C -0.1916 -0.468 2.9724 0
M  V30 19 C 1.9859 0.77 2.5231 0
M  V30 20 C 1.9929 1.6993 -3.3895 0
M  V30 21 C 2.1415 -0.4931 -4.5163 0
M  V30 22 N 0.5629 3.6495 -3.1767 0
M  V30 23 O -3.4377 -2.2694 3.1284 0
M  V30 24 C -1.837 -1.9147 4.8138 0
M  V30 25 C 0.1747 -0.6711 4.3255 0
M  V30 26 O 2.9283 2.1559 -4.0588 0
M  V30 27 O 3.1492 -0.0317 -5.3542 0
M  V30 28 C 1.7571 -1.9118 -4.8371 0
M  V30 29 C -0.6252 -1.3774 5.227 0
M  V30 30 C -2.7021 -2.6767 5.7749 0
M  V30 31 H -2.0019 0.5982 -3.3406 0
M  V30 32 H -0.4554 2.6169 -1.0721 0
M  V30 33 H -3.1807 -1.0769 -0.1549 0
M  V30 34 H 1.4088 2.2257 0.331 0
M  V30 35 H 1.9068 0.7554 -0.5234 0
M  V30 36 H 2.0181 3.108 -1.7963 0
M  V30 37 H 1.8471 1.6494 3.1596 0
M  V30 38 H 2.5278 -0.0054 3.0746 0
M  V30 39 H 2.6517 1.042 1.7006 0
M  V30 40 H 0.2025 4.3834 -2.5686 0
M  V30 41 H 1.2385 4.1006 -3.7998 0
M  V30 42 H -3.5677 -2.0694 2.1784 0
M  V30 43 H 1.1051 -0.2692 4.7202 0
M  V30 44 H 3.3551 0.9054 -5.1375 0
M  V30 45 H 0.6798 -2.0799 -4.7466 0
M  V30 46 H 2.2927 -2.6085 -4.185 0
M  V30 47 H 2.0187 -2.1541 -5.8733 0
M  V30 48 H -0.2882 -1.5002 6.2538 0
M  V30 49 H -2.8597 -3.6991 5.4164 0
M  V30 50 H -3.6701 -2.1787 5.8917 0
M  V30 51 H -2.2404 -2.7412 6.766 0
M  V30 END ATOM
M  V30 BEGIN BOND
M  V30 1 2 1 2
M  V30 2 1 2 3
M  V30 3 1 2 4
M  V30 4 2 3 5
M  V30 5 1 3 6
M  V30 6 1 4 7
M  V30 7 1 4 8
M  V30 8 1 4 9
M  V30 9 1 5 10
M  V30 10 1 5 11
M  V30 11 2 6 12
M  V30 12 1 6 13
M  V30 13 2 8 14
M  V30 14 1 8 15
M  V30 15 1 9 16
M  V30 16 2 11 17
M  V30 17 1 11 18
M  V30 18 1 12 19
M  V30 19 1 15 20
M  V30 20 2 15 21
M  V30 21 1 16 22
M  V30 22 1 17 23
M  V30 23 1 17 24
M  V30 24 2 18 25
M  V30 25 2 20 26
M  V30 26 1 21 27
M  V30 27 1 21 28
M  V30 28 2 24 29
M  V30 29 1 24 30
M  V30 30 1 9 13
M  V30 31 1 12 18
M  V30 32 1 16 20
M  V30 33 1 25 29
M  V30 34 1 7 31
M  V30 35 1 9 32
M  V30 36 1 10 33
M  V30 37 1 13 34
M  V30 38 1 13 35
M  V30 39 1 16 36
M  V30 40 1 19 37
M  V30 41 1 19 38
M  V30 42 1 19 39
M  V30 43 1 22 40
M  V30 44 1 22 41
M  V30 45 1 23 42
M  V30 46 1 25 43
M  V30 47 1 27 44
M  V30 48 1 28 45
M  V30 49 1 28 46
M  V30 50 1 28 47
M  V30 51 1 29 48
M  V30 52 1 30 49
M  V30 53 1 30 50
M  V30 54 1 30 51
M  V30 END BOND
M  V30 BEGIN COLLECTION
M  V30 MDLV30/STEABS ATOMS=(2 9 16)
M  V30 END COLLECTION
M  V30 END CTAB
M  END
>  <NO.>
2633

>  <Name>


>  <SMILES>
C/C(O)=C1/C(=O)[C@@H](N)[C@@H]2Cc3c(c(O)c4c(O)c(C)ccc4c3C)C(=O)C2(O)C1=O

>  <logBB>


>  <Class>
-1

>  <MW>
411.13

>  <nHBAcc>
8

>  <nHBDon>
5

>  <SLogP>
1.27

>  <TopoPSA>
158.15

>  <MMFF94 Energy>
140.86

$$$$
C1=C(C=C2NCCN2)CCc2ccccc21
Actelion Java MolfileCreator 2.0

  0  0  0  0  0  0              0 V3000
M  V30 BEGIN CTAB
M  V30 COUNTS 32 34 0 0 0
M  V30 BEGIN ATOM
M  V30 1 N 3.8051 -0.3166 1.1086 0
M  V30 2 C 2.4969 0.0261 0.9027 0
M  V30 3 C 4.4911 0.5735 2.0306 0
M  V30 4 N 2.2459 1.1564 1.6247 0
M  V30 5 C 1.6726 -0.6545 0.0905 0
M  V30 6 C 3.4226 1.6645 2.3145 0
M  V30 7 C 0.2589 -0.4433 -0.2024 0
M  V30 8 C -0.2731 -0.9745 -1.3216 0
M  V30 9 C -0.6207 0.3183 0.7646 0
M  V30 10 C -1.6893 -0.7877 -1.6614 0
M  V30 11 C -2.0948 -0.1113 0.7219 0
M  V30 12 C -2.5905 -0.3408 -0.6811 0
M  V30 13 C -2.1547 -1.0688 -2.9503 0
M  V30 14 C -3.9464 -0.189 -0.9978 0
M  V30 15 C -3.5052 -0.9013 -3.2634 0
M  V30 16 C -4.3994 -0.4622 -2.2883 0
M  V30 17 H 4.2207 -1.1378 0.6969 0
M  V30 18 H 4.7633 0.0426 2.9482 0
M  V30 19 H 5.3907 1.0021 1.5793 0
M  V30 20 H 1.4203 1.7104 1.4642 0
M  V30 21 H 2.1149 -1.4953 -0.4427 0
M  V30 22 H 3.2393 1.7764 3.3872 0
M  V30 23 H 3.7269 2.6293 1.8966 0
M  V30 24 H 0.3333 -1.5306 -2.03 0
M  V30 25 H -0.2797 0.1867 1.7981 0
M  V30 26 H -0.5518 1.3877 0.5257 0
M  V30 27 H -2.2216 -1.0461 1.2832 0
M  V30 28 H -2.7003 0.6545 1.2214 0
M  V30 29 H -1.4712 -1.4153 -3.7211 0
M  V30 30 H -4.6547 0.1375 -0.2402 0
M  V30 31 H -3.8596 -1.1176 -4.2677 0
M  V30 32 H -5.4515 -0.3392 -2.5318 0
M  V30 END ATOM
M  V30 BEGIN BOND
M  V30 1 1 1 2
M  V30 2 1 1 3
M  V30 3 1 2 4
M  V30 4 2 2 5
M  V30 5 1 3 6
M  V30 6 1 5 7
M  V30 7 2 7 8
M  V30 8 1 7 9
M  V30 9 1 8 10
M  V30 10 1 9 11
M  V30 11 2 10 12
M  V30 12 1 10 13
M  V30 13 1 12 14
M  V30 14 2 13 15
M  V30 15 2 14 16
M  V30 16 1 4 6
M  V30 17 1 11 12
M  V30 18 1 15 16
M  V30 19 1 1 17
M  V30 20 1 3 18
M  V30 21 1 3 19
M  V30 22 1 4 20
M  V30 23 1 5 21
M  V30 24 1 6 22
M  V30 25 1 6 23
M  V30 26 1 8 24
M  V30 27 1 9 25
M  V30 28 1 9 26
M  V30 29 1 11 27
M  V30 30 1 11 28
M  V30 31 1 13 29
M  V30 32 1 14 30
M  V30 33 1 15 31
M  V30 34 1 16 32
M  V30 END BOND
M  V30 END CTAB
M  END
>  <NO.>
2641

>  <Name>
2-(3,4-dihydronaphthalen-2-ylmethylidene)imidazolidine

>  <SMILES>
C1=C(C=C2NCCN2)CCc2ccccc21

>  <logBB>


>  <Class>
1

>  <MW>
212.13

>  <nHBAcc>
2

>  <nHBDon>
2

>  <SLogP>
2.05

>  <TopoPSA>
24.06

>  <MMFF94 Energy>
20.969

$$$$
C1=CCC2=C3C(=NC2=C1)CCN[C@H]3Cc1ccccc1
Actelion Java MolfileCreator 2.0

  0  0  0  0  0  0              0 V3000
M  V30 BEGIN CTAB
M  V30 COUNTS 38 41 0 0 0
M  V30 BEGIN ATOM
M  V30 1 N 0.7212 -2.8874 -0.8815 0
M  V30 2 C -0.5492 -2.672 -0.4205 0
M  V30 3 C 1.4143 -1.9214 -0.3458 0
M  V30 4 C -0.5712 -1.4904 0.4137 0
M  V30 5 C -1.6327 -3.4177 -0.655 0
M  V30 6 C 0.6653 -0.9935 0.5188 0
M  V30 7 C 2.8717 -1.7037 -0.6053 0
M  V30 8 C -1.8658 -1.0511 1.0281 0
M  V30 9 C -2.9038 -3.0677 -0.0592 0
M  V30 10 C 1.3467 0.1306 1.2126 0 CFG=1
M  V30 11 C 3.4743 -0.7721 0.4393 0
M  V30 12 C -3.0207 -1.9811 0.7234 0
M  V30 13 N 2.6637 0.4376 0.6087 0
M  V30 14 C 0.5037 1.4228 1.3854 0
M  V30 15 C -0.1265 2.0942 0.1812 0
M  V30 16 C 0.348 1.9426 -1.1268 0
M  V30 17 C -1.2205 2.9517 0.3943 0
M  V30 18 C -0.2707 2.6004 -2.1934 0
M  V30 19 C -1.8378 3.6104 -0.6707 0
M  V30 20 C -1.3644 3.4313 -1.9665 0
M  V30 21 H -1.5708 -4.2995 -1.2819 0
M  V30 22 H 2.9723 -1.2744 -1.609 0
M  V30 23 H 3.3887 -2.6687 -0.5963 0
M  V30 24 H -1.7515 -0.9852 2.1161 0
M  V30 25 H -2.1335 -0.0573 0.6546 0
M  V30 26 H -3.7549 -3.7094 -0.264 0
M  V30 27 H 1.5598 -0.2212 2.2327 0
M  V30 28 H 3.5888 -1.2889 1.4004 0
M  V30 29 H 4.4797 -0.4818 0.1148 0
M  V30 30 H -3.9847 -1.7329 1.158 0
M  V30 31 H 3.1581 1.099 1.2076 0
M  V30 32 H -0.3018 1.1873 2.0952 0
M  V30 33 H 1.1229 2.1798 1.8873 0
M  V30 34 H 1.2054 1.3121 -1.3459 0
M  V30 35 H -1.6037 3.1112 1.4001 0
M  V30 36 H 0.1068 2.4623 -3.2033 0
M  V30 37 H -2.6864 4.2639 -0.4877 0
M  V30 38 H -1.8425 3.941 -2.7983 0
M  V30 END ATOM
M  V30 BEGIN BOND
M  V30 1 1 1 2
M  V30 2 2 1 3
M  V30 3 1 2 4
M  V30 4 2 2 5
M  V30 5 1 3 6
M  V30 6 1 3 7
M  V30 7 1 4 8
M  V30 8 1 5 9
M  V30 9 1 6 10
M  V30 10 1 7 11
M  V30 11 1 8 12
M  V30 12 1 10 13
M  V30 13 1 10 14
M  V30 14 1 14 15
M  V30 15 2 15 16
M  V30 16 1 15 17
M  V30 17 1 16 18
M  V30 18 2 17 19
M  V30 19 2 18 20
M  V30 20 2 4 6
M  V30 21 2 9 12
M  V30 22 1 11 13
M  V30 23 1 19 20
M  V30 24 1 5 21
M  V30 25 1 7 22
M  V30 26 1 7 23
M  V30 27 1 8 24
M  V30 28 1 8 25
M  V30 29 1 9 26
M  V30 30 1 10 27
M  V30 31 1 11 28
M  V30 32 1 11 29
M  V30 33 1 12 30
M  V30 34 1 13 31
M  V30 35 1 14 32
M  V30 36 1 14 33
M  V30 37 1 16 34
M  V30 38 1 17 35
M  V30 39 1 18 36
M  V30 40 1 19 37
M  V30 41 1 20 38
M  V30 END BOND
M  V30 BEGIN COLLECTION
M  V30 MDLV30/STEABS ATOMS=(1 10)
M  V30 END COLLECTION
M  V30 END CTAB
M  END
>  <NO.>
2642

>  <Name>
fenharmane

>  <SMILES>
C1=CCC2=C3C(=NC2=C1)CCN[C@H]3Cc1ccccc1

>  <logBB>


>  <Class>
1

>  <MW>
262.15

>  <nHBAcc>
2

>  <nHBDon>
1

>  <SLogP>
3.19

>  <TopoPSA>
24.39

>  <MMFF94 Energy>
38.289

$$$$
C1=Cc2c(cccc2OC[C@@H]2CNCCO2)C1
Actelion Java MolfileCreator 2.0

  0  0  0  0  0  0              0 V3000
M  V30 BEGIN CTAB
M  V30 COUNTS 34 36 0 0 0
M  V30 BEGIN ATOM
M  V30 1 O -2.7921 0.1593 1.9938 0
M  V30 2 C -2.8355 0.2398 0.5526 0 CFG=1
M  V30 3 C -1.644 0.8195 2.5421 0
M  V30 4 C -2.6922 1.701 0.0673 0
M  V30 5 C -1.8804 -0.7711 -0.1168 0
M  V30 6 C -1.5784 2.2892 2.1072 0
M  V30 7 N -1.5575 2.4353 0.6463 0
M  V30 8 O -0.5317 -0.3121 -0.1195 0
M  V30 9 C 0.4085 -1.1042 -0.7101 0
M  V30 10 C 1.6974 -0.5887 -0.7762 0
M  V30 11 C 0.1957 -2.38 -1.2431 0
M  V30 12 C 2.7487 -1.3156 -1.3547 0
M  V30 13 C 2.2163 0.6931 -0.3163 0
M  V30 14 C 1.2537 -3.1072 -1.8242 0
M  V30 15 C 2.5434 -2.5765 -1.8836 0
M  V30 16 C 4.0137 -0.5165 -1.285 0
M  V30 17 C 3.5271 0.7375 -0.6019 0
M  V30 18 H -3.8497 -0.0902 0.2944 0
M  V30 19 H -0.7333 0.275 2.2748 0
M  V30 20 H -1.7344 0.7692 3.6323 0
M  V30 21 H -2.6184 1.7257 -1.0253 0
M  V30 22 H -3.6091 2.242 0.3359 0
M  V30 23 H -1.9423 -1.7205 0.4286 0
M  V30 24 H -2.2083 -0.9147 -1.1538 0
M  V30 25 H -0.6822 2.7563 2.5281 0
M  V30 26 H -2.4492 2.8253 2.5044 0
M  V30 27 H -1.6228 3.4206 0.3975 0
M  V30 28 H -0.7831 -2.8475 -1.221 0
M  V30 29 H 1.6125 1.449 0.1614 0
M  V30 30 H 1.0611 -4.0979 -2.2299 0
M  V30 31 H 3.3563 -3.1387 -2.3305 0
M  V30 32 H 4.7717 -1.0218 -0.6799 0
M  V30 33 H 4.3991 -0.2926 -2.2836 0
M  V30 34 H 4.1719 1.5745 -0.376 0
M  V30 END ATOM
M  V30 BEGIN BOND
M  V30 1 1 1 2
M  V30 2 1 1 3
M  V30 3 1 2 4
M  V30 4 1 2 5
M  V30 5 1 3 6
M  V30 6 1 4 7
M  V30 7 1 5 8
M  V30 8 1 8 9
M  V30 9 2 9 10
M  V30 10 1 9 11
M  V30 11 1 10 12
M  V30 12 1 10 13
M  V30 13 2 11 14
M  V30 14 2 12 15
M  V30 15 1 12 16
M  V30 16 2 13 17
M  V30 17 1 6 7
M  V30 18 1 14 15
M  V30 19 1 16 17
M  V30 20 1 2 18
M  V30 21 1 3 19
M  V30 22 1 3 20
M  V30 23 1 4 21
M  V30 24 1 4 22
M  V30 25 1 5 23
M  V30 26 1 5 24
M  V30 27 1 6 25
M  V30 28 1 6 26
M  V30 29 1 7 27
M  V30 30 1 11 28
M  V30 31 1 13 29
M  V30 32 1 14 30
M  V30 33 1 15 31
M  V30 34 1 16 32
M  V30 35 1 16 33
M  V30 36 1 17 34
M  V30 END BOND
M  V30 BEGIN COLLECTION
M  V30 MDLV30/STEABS ATOMS=(1 2)
M  V30 END COLLECTION
M  V30 END CTAB
M  END
>  <NO.>
2643

>  <Name>
(2s)-2-(1h-inden-4-yloxymethyl)morpholine

>  <SMILES>
C1=Cc2c(cccc2OC[C@@H]2CNCCO2)C1

>  <logBB>


>  <Class>
1

>  <MW>
231.13

>  <nHBAcc>
3

>  <nHBDon>
1

>  <SLogP>
1.62

>  <TopoPSA>
30.49

>  <MMFF94 Energy>
119

$$$$
C1=NC[C@H](CC2=Cc3ccccc3CC2)N1
Actelion Java MolfileCreator 2.0

  0  0  0  0  0  0              0 V3000
M  V30 BEGIN CTAB
M  V30 COUNTS 32 34 0 0 0
M  V30 BEGIN ATOM
M  V30 1 N -2.3133 2.473 -1.6747 0
M  V30 2 C -2.7342 2.6066 -0.4562 0
M  V30 3 C -0.8259 2.6405 -1.5624 0
M  V30 4 N -1.8248 2.8727 0.503 0
M  V30 5 C -0.5207 3.0235 -0.0941 0 CFG=1
M  V30 6 C 0.5718 2.2012 0.6063 0
M  V30 7 C 0.4838 0.6905 0.5322 0
M  V30 8 C 1.3176 -0.0257 -0.2466 0
M  V30 9 C -0.506 -0.0113 1.4355 0
M  V30 10 C 1.2792 -1.4933 -0.2582 0
M  V30 11 C -0.9476 -1.3815 0.9047 0
M  V30 12 C 0.1951 -2.1724 0.3232 0
M  V30 13 C 2.3098 -2.2244 -0.8585 0
M  V30 14 C 0.1501 -3.5721 0.2878 0
M  V30 15 C 2.2654 -3.6199 -0.8771 0
M  V30 16 C 1.187 -4.2922 -0.3049 0
M  V30 17 H -3.7865 2.5343 -0.1408 0
M  V30 18 H -0.3416 1.7136 -1.881 0
M  V30 19 H -0.504 3.4384 -2.2405 0
M  V30 20 H -2.0319 3.0722 1.4699 0
M  V30 21 H -0.2413 4.0835 -0.0511 0
M  V30 22 H 0.6099 2.4861 1.6664 0
M  V30 23 H 1.536 2.5187 0.1858 0
M  V30 24 H 2.0612 0.4561 -0.8738 0
M  V30 25 H -0.0343 -0.132 2.4198 0
M  V30 26 H -1.403 0.5925 1.5956 0
M  V30 27 H -1.423 -1.9397 1.7201 0
M  V30 28 H -1.7005 -1.2443 0.1177 0
M  V30 29 H 3.1556 -1.7162 -1.3142 0
M  V30 30 H -0.6949 -4.1055 0.7159 0
M  V30 31 H 3.0702 -4.1818 -1.3434 0
M  V30 32 H 1.1496 -5.3782 -0.3278 0
M  V30 END ATOM
M  V30 BEGIN BOND
M  V30 1 2 1 2
M  V30 2 1 1 3
M  V30 3 1 2 4
M  V30 4 1 3 5
M  V30 5 1 5 6
M  V30 6 1 6 7
M  V30 7 2 7 8
M  V30 8 1 7 9
M  V30 9 1 8 10
M  V30 10 1 9 11
M  V30 11 2 10 12
M  V30 12 1 10 13
M  V30 13 1 12 14
M  V30 14 2 13 15
M  V30 15 2 14 16
M  V30 16 1 4 5
M  V30 17 1 11 12
M  V30 18 1 15 16
M  V30 19 1 2 17
M  V30 20 1 3 18
M  V30 21 1 3 19
M  V30 22 1 4 20
M  V30 23 1 5 21
M  V30 24 1 6 22
M  V30 25 1 6 23
M  V30 26 1 8 24
M  V30 27 1 9 25
M  V30 28 1 9 26
M  V30 29 1 11 27
M  V30 30 1 11 28
M  V30 31 1 13 29
M  V30 32 1 14 30
M  V30 33 1 15 31
M  V30 34 1 16 32
M  V30 END BOND
M  V30 BEGIN COLLECTION
M  V30 MDLV30/STEABS ATOMS=(1 5)
M  V30 END COLLECTION
M  V30 END CTAB
M  END
>  <NO.>
2644

>  <Name>
schembl6958891

>  <SMILES>
C1=NC[C@H](CC2=Cc3ccccc3CC2)N1

>  <logBB>


>  <Class>
1

>  <MW>
212.13

>  <nHBAcc>
2

>  <nHBDon>
1

>  <SLogP>
2.41

>  <TopoPSA>
24.39

>  <MMFF94 Energy>
50.044

$$$$
C=CCN1CCC23c4c5ccc(O)c4O[C@@H]2C(=O)CCC3(O)C1C5
Actelion Java MolfileCreator 2.0

  0  0  0  0  0  0              0 V3000
M  V30 BEGIN CTAB
M  V30 COUNTS 45 49 0 0 0
M  V30 BEGIN ATOM
M  V30 1 O -1.2184 3.1703 -3.0075 0
M  V30 2 C -1.3386 2.2408 -2.2051 0
M  V30 3 C -0.5765 0.9144 -2.3728 0 CFG=1
M  V30 4 C -2.3261 2.3472 -1.0662 0
M  V30 5 O 0.724 1.2033 -2.9922 0
M  V30 6 C -0.2917 0.1815 -1.0538 0
M  V30 7 C -1.706 1.8639 0.2408 0
M  V30 8 C 1.5559 1.3503 -1.9087 0
M  V30 9 C 1.0088 0.8384 -0.7533 0
M  V30 10 C -1.2587 0.4037 0.114 0
M  V30 11 C -0.0512 -1.332 -1.2605 0
M  V30 12 C 2.785 1.9618 -1.8791 0
M  V30 13 C 1.5918 0.9785 0.4923 0
M  V30 14 O -2.4627 -0.3571 -0.1178 0
M  V30 15 C -0.5484 -0.1693 1.3903 0
M  V30 16 C 0.3674 -2.0356 0.0428 0
M  V30 17 O 3.3497 2.4766 -3.0026 0
M  V30 18 C 3.4414 2.0791 -0.6528 0
M  V30 19 C 2.84 1.604 0.5345 0
M  V30 20 C 0.8145 0.5422 1.7074 0
M  V30 21 N -0.4822 -1.6534 1.1888 0
M  V30 22 C -0.0771 -2.3634 2.4109 0
M  V30 23 C -0.5964 -3.7735 2.5257 0
M  V30 24 C -1.5087 -4.3795 1.7522 0
M  V30 25 H -1.159 0.2939 -3.0636 0
M  V30 26 H -2.6223 3.3966 -0.9577 0
M  V30 27 H -3.2215 1.7757 -1.3311 0
M  V30 28 H -2.4597 1.9532 1.033 0
M  V30 29 H -0.8733 2.521 0.5142 0
M  V30 30 H 0.7187 -1.5166 -2.021 0
M  V30 31 H -0.9695 -1.7994 -1.6398 0
M  V30 32 H -2.2934 -1.2311 0.2992 0
M  V30 33 H -1.2227 -0.006 2.2423 0
M  V30 34 H 1.4238 -1.8279 0.2525 0
M  V30 35 H 0.3023 -3.1155 -0.1338 0
M  V30 36 H 2.6872 2.3644 -3.7117 0
M  V30 37 H 4.4105 2.5698 -0.6099 0
M  V30 38 H 3.3542 1.7485 1.4821 0
M  V30 39 H 0.5871 1.4456 2.2886 0
M  V30 40 H 1.4462 -0.0873 2.3428 0
M  V30 41 H -0.459 -1.8369 3.2954 0
M  V30 42 H 1.0152 -2.3793 2.5105 0
M  V30 43 H -0.1777 -4.344 3.3533 0
M  V30 44 H -1.9843 -3.8722 0.9196 0
M  V30 45 H -1.8065 -5.4053 1.9453 0
M  V30 END ATOM
M  V30 BEGIN BOND
M  V30 1 2 1 2
M  V30 2 1 2 3
M  V30 3 1 2 4
M  V30 4 1 3 5
M  V30 5 1 3 6
M  V30 6 1 4 7
M  V30 7 1 5 8
M  V30 8 1 6 9
M  V30 9 1 6 10
M  V30 10 1 6 11
M  V30 11 1 8 12
M  V30 12 1 9 13
M  V30 13 1 10 14
M  V30 14 1 10 15
M  V30 15 1 11 16
M  V30 16 1 12 17
M  V30 17 2 12 18
M  V30 18 2 13 19
M  V30 19 1 13 20
M  V30 20 1 15 21
M  V30 21 1 21 22
M  V30 22 1 22 23
M  V30 23 2 23 24
M  V30 24 1 7 10
M  V30 25 2 8 9
M  V30 26 1 15 20
M  V30 27 1 16 21
M  V30 28 1 18 19
M  V30 29 1 3 25
M  V30 30 1 4 26
M  V30 31 1 4 27
M  V30 32 1 7 28
M  V30 33 1 7 29
M  V30 34 1 11 30
M  V30 35 1 11 31
M  V30 36 1 14 32
M  V30 37 1 15 33
M  V30 38 1 16 34
M  V30 39 1 16 35
M  V30 40 1 17 36
M  V30 41 1 18 37
M  V30 42 1 19 38
M  V30 43 1 20 39
M  V30 44 1 20 40
M  V30 45 1 22 41
M  V30 46 1 22 42
M  V30 47 1 23 43
M  V30 48 1 24 44
M  V30 49 1 24 45
M  V30 END BOND
M  V30 BEGIN COLLECTION
M  V30 MDLV30/STEABS ATOMS=(1 3)
M  V30 END COLLECTION
M  V30 END CTAB
M  END
>  <NO.>
2669

>  <Name>
(7as)-4a,9-dihydroxy-3-prop-2-enyl-2,4,5,6,7a,13-hexahydro-1h-4,12-methanobenzofuro[3,2-e]isoquinolin-7-one

>  <SMILES>
C=CCN1CCC23c4c5ccc(O)c4O[C@@H]2C(=O)CCC3(O)C1C5

>  <logBB>


>  <Class>
1

>  <MW>
327.15

>  <nHBAcc>
5

>  <nHBDon>
2

>  <SLogP>
1.3

>  <TopoPSA>
70

>  <MMFF94 Energy>
90.324

$$$$
CC(=O)C12OC(C)(C)O[C@H]1C[C@H]1[C@@H]3CCC4=CC(=O)C=CC4(C)C3(F)C(O)CC12C
Actelion Java MolfileCreator 2.0

  0  0  0  0  0  0              0 V3000
M  V30 BEGIN CTAB
M  V30 COUNTS 61 65 0 0 0
M  V30 BEGIN ATOM
M  V30 1 F 0.3244 -2.029 -1.7853 0
M  V30 2 C 0.5087 -1.5459 -0.4945 0
M  V30 3 C 0.8243 -2.8427 0.3756 0
M  V30 4 C 1.6584 -0.5063 -0.5893 0
M  V30 5 C -0.8304 -0.8273 -0.1643 0 CFG=2
M  V30 6 C -0.4482 -3.7012 0.4703 0
M  V30 7 C 1.9626 -3.6477 -0.2664 0
M  V30 8 C 1.304 -2.5658 1.8139 0
M  V30 9 O 1.592 0.2739 -1.7889 0
M  V30 10 C 1.7484 0.4554 0.5942 0
M  V30 11 C -0.7857 0.1518 1.0378 0 CFG=1
M  V30 12 C -1.9892 -1.8443 -0.0488 0
M  V30 13 C -0.5043 -5.0022 0.1319 0
M  V30 14 C -1.6953 -2.9869 0.9125 0
M  V30 15 C 1.8996 -4.9423 -0.6069 0
M  V30 16 C 0.4373 1.1123 1.084 0
M  V30 17 C -2.0093 1.1078 1.0588 0
M  V30 18 C 0.6711 -5.7261 -0.39 0
M  V30 19 C -0.0536 2.3502 0.2608 0
M  V30 20 C 0.6765 1.5167 2.5704 0
M  V30 21 C -1.5144 2.5084 0.6682 0 CFG=1
M  V30 22 O 0.6246 -6.9239 -0.6382 0
M  V30 23 O -0.1565 2.0855 -1.1427 0
M  V30 24 C 0.764 3.6314 0.5462 0
M  V30 25 O -2.2126 2.9729 -0.4879 0
M  V30 26 C -1.3411 2.7664 -1.5961 0
M  V30 27 O 0.4457 4.4273 1.4334 0
M  V30 28 C 2.0359 3.8528 -0.2341 0
M  V30 29 C -0.9741 4.119 -2.2053 0
M  V30 30 C -2.0506 1.9119 -2.6407 0
M  V30 31 H 2.6173 -1.023 -0.674 0
M  V30 32 H -1.0765 -0.2399 -1.0526 0
M  V30 33 H 2.9073 -3.14 -0.4449 0
M  V30 34 H 1.3436 -3.4924 2.403 0
M  V30 35 H 0.6521 -1.8827 2.3591 0
M  V30 36 H 2.3188 -2.1546 1.8356 0
M  V30 37 H 0.7634 0.7918 -1.7852 0
M  V30 38 H 2.4747 1.2387 0.3539 0
M  V30 39 H 2.1987 -0.087 1.4305 0
M  V30 40 H -0.825 -0.4439 1.955 0
M  V30 41 H -2.1857 -2.2613 -1.0465 0
M  V30 42 H -2.9205 -1.356 0.2546 0
M  V30 43 H -1.4135 -5.5895 0.1959 0
M  V30 44 H -2.5574 -3.6651 0.9275 0
M  V30 45 H -1.5796 -2.6207 1.9379 0
M  V30 46 H 2.7366 -5.4711 -1.0464 0
M  V30 47 H -2.8324 0.7793 0.4184 0
M  V30 48 H -2.4034 1.148 2.0822 0
M  V30 49 H 0.858 0.6317 3.1918 0
M  V30 50 H -0.178 2.0432 3.0073 0
M  V30 51 H 1.5555 2.1632 2.6705 0
M  V30 52 H -1.6972 3.2094 1.4886 0
M  V30 53 H 2.0056 3.3404 -1.1975 0
M  V30 54 H 2.1538 4.9229 -0.4272 0
M  V30 55 H 2.8871 3.4922 0.347 0
M  V30 56 H -0.2219 4.007 -2.9929 0
M  V30 57 H -1.8572 4.6172 -2.6205 0
M  V30 58 H -0.5646 4.8009 -1.4541 0
M  V30 59 H -1.3721 1.6307 -3.4525 0
M  V30 60 H -2.4379 0.9893 -2.1988 0
M  V30 61 H -2.9162 2.4362 -3.0604 0
M  V30 END ATOM
M  V30 BEGIN BOND
M  V30 1 1 1 2
M  V30 2 1 2 3
M  V30 3 1 2 4
M  V30 4 1 2 5
M  V30 5 1 3 6
M  V30 6 1 3 7
M  V30 7 1 3 8
M  V30 8 1 4 9
M  V30 9 1 4 10
M  V30 10 1 5 11
M  V30 11 1 5 12
M  V30 12 2 6 13
M  V30 13 1 6 14
M  V30 14 2 7 15
M  V30 15 1 10 16
M  V30 16 1 11 17
M  V30 17 1 13 18
M  V30 18 1 16 19
M  V30 19 1 16 20
M  V30 20 1 17 21
M  V30 21 2 18 22
M  V30 22 1 19 23
M  V30 23 1 19 24
M  V30 24 1 21 25
M  V30 25 1 23 26
M  V30 26 2 24 27
M  V30 27 1 24 28
M  V30 28 1 26 29
M  V30 29 1 26 30
M  V30 30 1 11 16
M  V30 31 1 12 14
M  V30 32 1 15 18
M  V30 33 1 19 21
M  V30 34 1 25 26
M  V30 35 1 4 31
M  V30 36 1 5 32
M  V30 37 1 7 33
M  V30 38 1 8 34
M  V30 39 1 8 35
M  V30 40 1 8 36
M  V30 41 1 9 37
M  V30 42 1 10 38
M  V30 43 1 10 39
M  V30 44 1 11 40
M  V30 45 1 12 41
M  V30 46 1 12 42
M  V30 47 1 13 43
M  V30 48 1 14 44
M  V30 49 1 14 45
M  V30 50 1 15 46
M  V30 51 1 17 47
M  V30 52 1 17 48
M  V30 53 1 20 49
M  V30 54 1 20 50
M  V30 55 1 20 51
M  V30 56 1 21 52
M  V30 57 1 28 53
M  V30 58 1 28 54
M  V30 59 1 28 55
M  V30 60 1 29 56
M  V30 61 1 29 57
M  V30 62 1 29 58
M  V30 63 1 30 59
M  V30 64 1 30 60
M  V30 65 1 30 61
M  V30 END BOND
M  V30 BEGIN COLLECTION
M  V30 MDLV30/STEABS ATOMS=(3 5 11 21)
M  V30 END COLLECTION
M  V30 END CTAB
M  END
>  <NO.>
2693

>  <Name>


>  <SMILES>
CC(=O)C12OC(C)(C)O[C@H]1C[C@H]1[C@@H]3CCC4=CC(=O)C=CC4(C)C3(F)C(O)CC12C

>  <logBB>


>  <Class>
1

>  <MW>
418.22

>  <nHBAcc>
5

>  <nHBDon>
1

>  <SLogP>
3.45

>  <TopoPSA>
72.83

>  <MMFF94 Energy>
164.88

$$$$
CC(=O)CC(=O)C1(O)CC[C@H]2[C@@H]3CCC4=CC(=O)C=CC4(C)C3(Cl)[C@@H](Cl)CC21C
Actelion Java MolfileCreator 2.0

  0  0  0  0  0  0              0 V3000
M  V30 BEGIN CTAB
M  V30 COUNTS 57 60 0 0 0
M  V30 BEGIN ATOM
M  V30 1 Cl 0.1644 -3.0447 -0.411 0
M  V30 2 C 0.6948 -1.4232 -1.2146 0
M  V30 3 C 1.1439 -1.8011 -2.7081 0
M  V30 4 C 1.8035 -0.8812 -0.2345 0 CFG=1
M  V30 5 C -0.5723 -0.4784 -1.2338 0 CFG=2
M  V30 6 C -0.0884 -2.3661 -3.4465 0
M  V30 7 C 2.2969 -2.8046 -2.7115 0
M  V30 8 C 1.6337 -0.6134 -3.5765 0
M  V30 9 Cl 2.8455 0.4167 -0.8963 0
M  V30 10 C 1.2509 -0.4186 1.146 0
M  V30 11 C -1.0419 -0.155 0.1983 0 CFG=1
M  V30 12 C -1.7327 -1.0607 -2.0703 0
M  V30 13 C -0.117 -3.5831 -4.0187 0
M  V30 14 C -1.3051 -1.475 -3.4751 0
M  V30 15 C 2.2587 -4.0144 -3.2864 0
M  V30 16 C 0.0326 0.5326 1.0725 0
M  V30 17 C -2.2675 0.7322 0.3887 0
M  V30 18 C 1.0496 -4.4894 -3.9865 0
M  V30 19 C -0.7945 0.7266 2.3911 0
M  V30 20 C 0.4445 1.9329 0.534 0
M  V30 21 C -2.1822 1.1801 1.8628 0
M  V30 22 O 1.0169 -5.5886 -4.5245 0
M  V30 23 O -0.9924 -0.519 3.0748 0
M  V30 24 C -0.1518 1.6565 3.4361 0
M  V30 25 O 1.0751 1.7194 3.5659 0
M  V30 26 C -1.0369 2.4121 4.3885 0
M  V30 27 C -0.974 3.8915 4.1348 0
M  V30 28 O -1.6944 4.4189 3.2869 0
M  V30 29 C 0.0449 4.6858 4.9072 0
M  V30 30 H 2.5165 -1.6892 -0.0329 0
M  V30 31 H -0.2914 0.4612 -1.7197 0
M  V30 32 H 3.2242 -2.5055 -2.2268 0
M  V30 33 H 2.6898 -0.3758 -3.4159 0
M  V30 34 H 1.5574 -0.8462 -4.6478 0
M  V30 35 H 1.0552 0.2999 -3.4125 0
M  V30 36 H 2.054 0.0398 1.7365 0
M  V30 37 H 0.9753 -1.3227 1.7008 0
M  V30 38 H -1.3148 -1.1113 0.6664 0
M  V30 39 H -2.5308 -0.3141 -2.1633 0
M  V30 40 H -2.1821 -1.9202 -1.5577 0
M  V30 41 H -0.9909 -3.9739 -4.5276 0
M  V30 42 H -2.1497 -1.9718 -3.9682 0
M  V30 43 H -1.0895 -0.5818 -4.0733 0
M  V30 44 H 3.1026 -4.6934 -3.2725 0
M  V30 45 H -2.2437 1.601 -0.2785 0
M  V30 46 H -3.2003 0.1924 0.1958 0
M  V30 47 H 1.353 2.2912 1.0302 0
M  V30 48 H 0.6311 1.9423 -0.5406 0
M  V30 49 H -0.322 2.6955 0.7074 0
M  V30 50 H -2.9962 0.7216 2.4364 0
M  V30 51 H -2.3169 2.2648 1.9051 0
M  V30 52 H -0.1267 -0.8154 3.4116 0
M  V30 53 H -2.0759 2.0784 4.3265 0
M  V30 54 H -0.7163 2.1947 5.413 0
M  V30 55 H -0.0659 5.7487 4.6753 0
M  V30 56 H -0.1152 4.5453 5.979 0
M  V30 57 H 1.0515 4.3648 4.6305 0
M  V30 END ATOM
M  V30 BEGIN BOND
M  V30 1 1 1 2
M  V30 2 1 2 3
M  V30 3 1 2 4
M  V30 4 1 2 5
M  V30 5 1 3 6
M  V30 6 1 3 7
M  V30 7 1 3 8
M  V30 8 1 4 9
M  V30 9 1 4 10
M  V30 10 1 5 11
M  V30 11 1 5 12
M  V30 12 2 6 13
M  V30 13 1 6 14
M  V30 14 2 7 15
M  V30 15 1 10 16
M  V30 16 1 11 17
M  V30 17 1 13 18
M  V30 18 1 16 19
M  V30 19 1 16 20
M  V30 20 1 17 21
M  V30 21 2 18 22
M  V30 22 1 19 23
M  V30 23 1 19 24
M  V30 24 2 24 25
M  V30 25 1 24 26
M  V30 26 1 26 27
M  V30 27 2 27 28
M  V30 28 1 27 29
M  V30 29 1 11 16
M  V30 30 1 12 14
M  V30 31 1 15 18
M  V30 32 1 19 21
M  V30 33 1 4 30
M  V30 34 1 5 31
M  V30 35 1 7 32
M  V30 36 1 8 33
M  V30 37 1 8 34
M  V30 38 1 8 35
M  V30 39 1 10 36
M  V30 40 1 10 37
M  V30 41 1 11 38
M  V30 42 1 12 39
M  V30 43 1 12 40
M  V30 44 1 13 41
M  V30 45 1 14 42
M  V30 46 1 14 43
M  V30 47 1 15 44
M  V30 48 1 17 45
M  V30 49 1 17 46
M  V30 50 1 20 47
M  V30 51 1 20 48
M  V30 52 1 20 49
M  V30 53 1 21 50
M  V30 54 1 21 51
M  V30 55 1 23 52
M  V30 56 1 26 53
M  V30 57 1 26 54
M  V30 58 1 29 55
M  V30 59 1 29 56
M  V30 60 1 29 57
M  V30 END BOND
M  V30 BEGIN COLLECTION
M  V30 MDLV30/STEABS ATOMS=(3 4 5 11)
M  V30 END COLLECTION
M  V30 END CTAB
M  END
>  <NO.>
2700

>  <Name>


>  <SMILES>
CC(=O)CC(=O)C1(O)CC[C@H]2[C@@H]3CCC4=CC(=O)C=CC4(C)C3(Cl)[C@@H](Cl)CC21C

>  <logBB>


>  <Class>
1

>  <MW>
438.14

>  <nHBAcc>
4

>  <nHBDon>
1

>  <SLogP>
4.15

>  <TopoPSA>
71.44

>  <MMFF94 Energy>
131.13

$$$$
CC(=O)CC(=O)C12OC(C)(C)O[C@H]1C[C@H]1[C@@H]3CC(C#N)=C4C=C(OCCCl)CCC4(C)C3(F)C(O)CC12C
Actelion Java MolfileCreator 2.0

  0  0  0  0  0  0              0 V3000
M  V30 BEGIN CTAB
M  V30 COUNTS 75 79 0 0 0
M  V30 BEGIN ATOM
M  V30 1 Cl -0.7315 5.2107 7.8238 0
M  V30 2 C -1.7492 4.351 6.6483 0
M  V30 3 C -1.6835 2.8462 6.8701 0
M  V30 4 O -2.5672 2.1608 5.9782 0
M  V30 5 C -2.1804 1.8609 4.6917 0
M  V30 6 C -0.9831 2.1247 4.132 0
M  V30 7 C -3.2664 1.1473 3.9317 0
M  V30 8 C -0.6277 1.8141 2.7373 0
M  V30 9 C -2.7235 0.4237 2.7013 0
M  V30 10 C 0.6179 2.0148 2.2476 0
M  V30 11 C -1.7626 1.2865 1.843 0
M  V30 12 C 1.6832 2.5139 3.0694 0
M  V30 13 C 1.002 1.7283 0.8189 0
M  V30 14 C -1.2308 0.4849 0.5776 0
M  V30 15 C -2.5543 2.5321 1.3334 0
M  V30 16 N 2.5513 2.914 3.7259 0
M  V30 17 C -0.1161 1.2861 -0.1445 0 CFG=2
M  V30 18 F -2.3024 0.3953 -0.2882 0
M  V30 19 C -0.78 -0.9872 0.788 0
M  V30 20 C 0.4997 0.5838 -1.3856 0 CFG=1
M  V30 21 O -1.8545 -1.8118 1.2536 0
M  V30 22 C -0.3349 -1.6415 -0.5326 0
M  V30 23 C 0.827 -0.9252 -1.2506 0
M  V30 24 C -0.4324 0.6485 -2.6155 0
M  V30 25 C 0.9766 -1.3631 -2.7535 0
M  V30 26 C 2.1185 -1.2265 -0.4646 0
M  V30 27 C 0.0019 -0.4867 -3.5374 0 CFG=1
M  V30 28 O 0.5594 -2.7108 -2.9746 0
M  V30 29 C 2.3981 -1.1371 -3.3201 0
M  V30 30 O -1.0972 -1.3393 -3.858 0
M  V30 31 C -0.5523 -2.6579 -3.8797 0
M  V30 32 O 2.8336 0.0017 -3.505 0
M  V30 33 C 3.2396 -2.3613 -3.5913 0
M  V30 34 C -0.0766 -2.9936 -5.2942 0
M  V30 35 C -1.614 -3.655 -3.4353 0
M  V30 36 C 4.6366 -2.0634 -4.0689 0
M  V30 37 O 4.9916 -2.3553 -5.212 0
M  V30 38 C 5.5925 -1.4304 -3.0905 0
M  V30 39 H -1.4132 4.6261 5.6446 0
M  V30 40 H -2.7774 4.712 6.7546 0
M  V30 41 H -0.6643 2.447 6.8162 0
M  V30 42 H -2.0415 2.6202 7.8818 0
M  V30 43 H -0.2195 2.6131 4.7288 0
M  V30 44 H -3.7452 0.4059 4.584 0
M  V30 45 H -4.0469 1.8639 3.6514 0
M  V30 46 H -3.5656 0.0641 2.0977 0
M  V30 47 H -2.1908 -0.4554 3.0832 0
M  V30 48 H 1.8024 0.9865 0.8482 0
M  V30 49 H 1.462 2.6322 0.3939 0
M  V30 50 H -1.9363 3.1986 0.7241 0
M  V30 51 H -3.4161 2.2289 0.7282 0
M  V30 52 H -2.938 3.1532 2.15 0
M  V30 53 H -0.571 2.2055 -0.5355 0
M  V30 54 H 0.0123 -1.0422 1.5395 0
M  V30 55 H 1.416 1.1269 -1.6568 0
M  V30 56 H -2.6022 -1.6772 0.6393 0
M  V30 57 H -1.2139 -1.6855 -1.1858 0
M  V30 58 H -0.0757 -2.6924 -0.3438 0
M  V30 59 H -1.4899 0.5509 -2.3564 0
M  V30 60 H -0.3174 1.6179 -3.1141 0
M  V30 61 H 2.9501 -0.5888 -0.7818 0
M  V30 62 H 2.0021 -1.0882 0.6127 0
M  V30 63 H 2.4195 -2.2709 -0.6027 0
M  V30 64 H 0.4092 -0.0915 -4.475 0
M  V30 65 H 3.3134 -2.9697 -2.6855 0
M  V30 66 H 2.7468 -2.9587 -4.3647 0
M  V30 67 H -0.9053 -2.9507 -6.009 0
M  V30 68 H 0.3795 -3.9884 -5.3314 0
M  V30 69 H 0.6789 -2.2805 -5.6408 0
M  V30 70 H -1.9712 -3.4253 -2.4265 0
M  V30 71 H -1.215 -4.6745 -3.4094 0
M  V30 72 H -2.4867 -3.6267 -4.0964 0
M  V30 73 H 6.6035 -1.4455 -3.5076 0
M  V30 74 H 5.3085 -0.3946 -2.8956 0
M  V30 75 H 5.5957 -2.0013 -2.1584 0
M  V30 END ATOM
M  V30 BEGIN BOND
M  V30 1 1 1 2
M  V30 2 1 2 3
M  V30 3 1 3 4
M  V30 4 1 4 5
M  V30 5 2 5 6
M  V30 6 1 5 7
M  V30 7 1 6 8
M  V30 8 1 7 9
M  V30 9 2 8 10
M  V30 10 1 8 11
M  V30 11 1 10 12
M  V30 12 1 10 13
M  V30 13 1 11 14
M  V30 14 1 11 15
M  V30 15 3 12 16
M  V30 16 1 13 17
M  V30 17 1 14 18
M  V30 18 1 14 19
M  V30 19 1 17 20
M  V30 20 1 19 21
M  V30 21 1 19 22
M  V30 22 1 20 23
M  V30 23 1 20 24
M  V30 24 1 23 25
M  V30 25 1 23 26
M  V30 26 1 24 27
M  V30 27 1 25 28
M  V30 28 1 25 29
M  V30 29 1 27 30
M  V30 30 1 28 31
M  V30 31 2 29 32
M  V30 32 1 29 33
M  V30 33 1 31 34
M  V30 34 1 31 35
M  V30 35 1 33 36
M  V30 36 2 36 37
M  V30 37 1 36 38
M  V30 38 1 9 11
M  V30 39 1 14 17
M  V30 40 1 22 23
M  V30 41 1 25 27
M  V30 42 1 30 31
M  V30 43 1 2 39
M  V30 44 1 2 40
M  V30 45 1 3 41
M  V30 46 1 3 42
M  V30 47 1 6 43
M  V30 48 1 7 44
M  V30 49 1 7 45
M  V30 50 1 9 46
M  V30 51 1 9 47
M  V30 52 1 13 48
M  V30 53 1 13 49
M  V30 54 1 15 50
M  V30 55 1 15 51
M  V30 56 1 15 52
M  V30 57 1 17 53
M  V30 58 1 19 54
M  V30 59 1 20 55
M  V30 60 1 21 56
M  V30 61 1 22 57
M  V30 62 1 22 58
M  V30 63 1 24 59
M  V30 64 1 24 60
M  V30 65 1 26 61
M  V30 66 1 26 62
M  V30 67 1 26 63
M  V30 68 1 27 64
M  V30 69 1 33 65
M  V30 70 1 33 66
M  V30 71 1 34 67
M  V30 72 1 34 68
M  V30 73 1 34 69
M  V30 74 1 35 70
M  V30 75 1 35 71
M  V30 76 1 35 72
M  V30 77 1 38 73
M  V30 78 1 38 74
M  V30 79 1 38 75
M  V30 END BOND
M  V30 BEGIN COLLECTION
M  V30 MDLV30/STEABS ATOMS=(3 17 20 27)
M  V30 END COLLECTION
M  V30 END CTAB
M  END
>  <NO.>
2701

>  <Name>


>  <SMILES>
CC(=O)CC(=O)C12OC(C)(C)O[C@H]1C[C@H]1[C@@H]3CC(C#N)=C4C=C(OCCCl)CCC4(C)C3(F)C(O)CC12C

>  <logBB>


>  <Class>
1

>  <MW>
549.23

>  <nHBAcc>
7

>  <nHBDon>
1

>  <SLogP>
4.7

>  <TopoPSA>
105.85

>  <MMFF94 Energy>
141.36

$$$$
CC(=O)OCC(=O)C1(OC(C)=O)CC[C@H]2[C@@H]3C[C@H](F)C4=CC(=O)C(Br)=CC4(C)C3(F)[C@@H](O)CC21C
Actelion Java MolfileCreator 2.0

  0  0  0  0  0  0              0 V3000
M  V30 BEGIN CTAB
M  V30 COUNTS 64 67 0 0 0
M  V30 BEGIN ATOM
M  V30 1 Br -2.867 -1.2279 -6.7266 0
M  V30 2 C -2.0887 -0.0458 -5.508 0
M  V30 3 C -1.8127 1.345 -5.9556 0
M  V30 4 C -1.7939 -0.4222 -4.2532 0
M  V30 5 O -2.1181 1.779 -7.0601 0
M  V30 6 C -1.1091 2.2247 -4.9986 0
M  V30 7 C -1.183 0.4701 -3.1622 0
M  V30 8 C -0.807 1.837 -3.7468 0
M  V30 9 C 0.1224 -0.2283 -2.5748 0
M  V30 10 C -2.3342 0.6611 -2.1531 0
M  V30 11 C 0.0092 2.7418 -2.8652 0 CFG=1
M  V30 12 F 0.8567 -0.5931 -3.7042 0
M  V30 13 C -0.1346 -1.5654 -1.8076 0 CFG=1
M  V30 14 C 1.0995 0.6988 -1.7751 0 CFG=1
M  V30 15 F -0.6825 3.0636 -1.7414 0
M  V30 16 C 1.3074 2.0539 -2.4744 0
M  V30 17 O 1.0006 -2.4281 -1.9757 0
M  V30 18 C -0.4075 -1.4261 -0.2956 0
M  V30 19 C 0.6778 0.8223 -0.306 0 CFG=1
M  V30 20 C 0.6183 -0.5322 0.4386 0
M  V30 21 C 1.5015 1.6962 0.6331 0
M  V30 22 C 0.1977 -0.0303 1.8716 0
M  V30 23 C 1.9963 -1.249 0.5187 0
M  V30 24 C 1.0943 1.2315 2.0498 0
M  V30 25 O -1.1943 0.3885 1.7946 0
M  V30 26 C 0.3107 -1.1707 2.9172 0
M  V30 27 C -1.7887 0.8012 2.9471 0
M  V30 28 O -0.4562 -2.1392 2.858 0
M  V30 29 C 1.3747 -1.0544 4.0014 0
M  V30 30 O -1.223 0.9163 4.0246 0
M  V30 31 C -3.2313 1.1144 2.7002 0
M  V30 32 O 1.315 -2.1691 4.892 0
M  V30 33 C 2.2935 -2.1716 5.8333 0
M  V30 34 O 3.1772 -1.332 5.9322 0
M  V30 35 C 2.1417 -3.3577 6.7346 0
M  V30 36 H -2.0389 -1.444 -3.9713 0
M  V30 37 H -0.8327 3.1956 -5.3972 0
M  V30 38 H -2.0611 1.2499 -1.2787 0
M  V30 39 H -2.7277 -0.2972 -1.7969 0
M  V30 40 H -3.1804 1.1856 -2.6179 0
M  V30 41 H 0.2438 3.6869 -3.3675 0
M  V30 42 H -0.9669 -2.1163 -2.2516 0
M  V30 43 H 2.0898 0.2274 -1.8032 0
M  V30 44 H 1.8971 2.7206 -1.8361 0
M  V30 45 H 1.9064 1.8885 -3.3804 0
M  V30 46 H 1.2875 -2.3318 -2.9057 0
M  V30 47 H -0.4072 -2.4237 0.1609 0
M  V30 48 H -1.4171 -1.0297 -0.1584 0
M  V30 49 H -0.3205 1.265 -0.2989 0
M  V30 50 H 2.5767 1.5544 0.4775 0
M  V30 51 H 1.2856 2.7609 0.4949 0
M  V30 52 H 2.4802 -1.3642 -0.4522 0
M  V30 53 H 2.7149 -0.7144 1.147 0
M  V30 54 H 1.8862 -2.2532 0.9437 0
M  V30 55 H 2.005 1.0387 2.6231 0
M  V30 56 H 0.5649 2.0472 2.5527 0
M  V30 57 H 2.3547 -1.0361 3.515 0
M  V30 58 H 1.1975 -0.1355 4.5687 0
M  V30 59 H -3.314 1.9413 1.9905 0
M  V30 60 H -3.7428 0.2272 2.3187 0
M  V30 61 H -3.7042 1.4101 3.6409 0
M  V30 62 H 1.1717 -3.32 7.2368 0
M  V30 63 H 2.2397 -4.2786 6.1546 0
M  V30 64 H 2.9278 -3.3381 7.4947 0
M  V30 END ATOM
M  V30 BEGIN BOND
M  V30 1 1 1 2
M  V30 2 1 2 3
M  V30 3 2 2 4
M  V30 4 2 3 5
M  V30 5 1 3 6
M  V30 6 1 4 7
M  V30 7 2 6 8
M  V30 8 1 7 9
M  V30 9 1 7 10
M  V30 10 1 8 11
M  V30 11 1 9 12
M  V30 12 1 9 13
M  V30 13 1 9 14
M  V30 14 1 11 15
M  V30 15 1 11 16
M  V30 16 1 13 17
M  V30 17 1 13 18
M  V30 18 1 14 19
M  V30 19 1 18 20
M  V30 20 1 19 21
M  V30 21 1 20 22
M  V30 22 1 20 23
M  V30 23 1 21 24
M  V30 24 1 22 25
M  V30 25 1 22 26
M  V30 26 1 25 27
M  V30 27 2 26 28
M  V30 28 1 26 29
M  V30 29 2 27 30
M  V30 30 1 27 31
M  V30 31 1 29 32
M  V30 32 1 32 33
M  V30 33 2 33 34
M  V30 34 1 33 35
M  V30 35 1 7 8
M  V30 36 1 14 16
M  V30 37 1 19 20
M  V30 38 1 22 24
M  V30 39 1 4 36
M  V30 40 1 6 37
M  V30 41 1 10 38
M  V30 42 1 10 39
M  V30 43 1 10 40
M  V30 44 1 11 41
M  V30 45 1 13 42
M  V30 46 1 14 43
M  V30 47 1 16 44
M  V30 48 1 16 45
M  V30 49 1 17 46
M  V30 50 1 18 47
M  V30 51 1 18 48
M  V30 52 1 19 49
M  V30 53 1 21 50
M  V30 54 1 21 51
M  V30 55 1 23 52
M  V30 56 1 23 53
M  V30 57 1 23 54
M  V30 58 1 24 55
M  V30 59 1 24 56
M  V30 60 1 29 57
M  V30 61 1 29 58
M  V30 62 1 31 59
M  V30 63 1 31 60
M  V30 64 1 31 61
M  V30 65 1 35 62
M  V30 66 1 35 63
M  V30 67 1 35 64
M  V30 END BOND
M  V30 BEGIN COLLECTION
M  V30 MDLV30/STEABS ATOMS=(4 11 13 14 19)
M  V30 END COLLECTION
M  V30 END CTAB
M  END
>  <NO.>
2728

>  <Name>


>  <SMILES>
CC(=O)OCC(=O)C1(OC(C)=O)CC[C@H]2[C@@H]3C[C@H](F)C4=CC(=O)C(Br)=CC4(C)C3(F)[C@@H](O)CC21C

>  <logBB>


>  <Class>
1

>  <MW>
558.11

>  <nHBAcc>
7

>  <nHBDon>
1

>  <SLogP>
3.46

>  <TopoPSA>
106.97

>  <MMFF94 Energy>
131.57

$$$$
CC(=O)OCC1=CO[C@@H](OC(=O)CC(C)(C)OC(C)=O)[C@H]2C1=C[C@H](OC(=O)CC(C)C)C21CO1
Actelion Java MolfileCreator 2.0

  0  0  0  0  0  0              0 V3000
M  V30 BEGIN CTAB
M  V30 COUNTS 66 68 0 0 0
M  V30 BEGIN ATOM
M  V30 1 O 0.4785 0.5582 -3.753 0
M  V30 2 C 0.2584 1.414 -2.9093 0
M  V30 3 O -0.4192 1.2087 -1.7484 0
M  V30 4 C 0.6782 2.8658 -2.9958 0
M  V30 5 C -0.9939 -0.102 -1.5975 0 CFG=2
M  V30 6 C 2.0514 3.0823 -3.6667 0
M  V30 7 O -2.2851 -0.0907 -2.2534 0
M  V30 8 C -1.1295 -0.3904 -0.0973 0 CFG=1
M  V30 9 O 1.8827 2.7064 -5.0581 0
M  V30 10 C 3.1318 2.2481 -2.9613 0
M  V30 11 C 2.3812 4.5821 -3.5779 0
M  V30 12 C -3.1984 -1.0275 -1.8359 0
M  V30 13 C -1.9205 -1.6745 0.0624 0
M  V30 14 C 0.1478 -0.6823 0.6657 0
M  V30 15 C 2.9273 2.7237 -5.9253 0
M  V30 16 C -3.0896 -1.8304 -0.7629 0
M  V30 17 C -1.3496 -2.5203 0.9322 0
M  V30 18 O 0.6426 0.4395 1.4252 0
M  V30 19 C -0.0304 -1.9861 1.4294 0 CFG=2
M  V30 20 C 1.5156 -0.0767 0.4181 0
M  V30 21 O 4.0691 3.0782 -5.6747 0
M  V30 22 C 2.4727 2.243 -7.2697 0
M  V30 23 C -4.1341 -2.8611 -0.4217 0
M  V30 24 O -0.1616 -1.7648 2.8341 0
M  V30 25 O -4.7175 -2.5173 0.8406 0
M  V30 26 C 1.0095 -1.7964 3.5257 0
M  V30 27 C -5.6074 -3.4338 1.3021 0
M  V30 28 O 2.0989 -2.094 3.0556 0
M  V30 29 C 0.7532 -1.4503 4.9751 0
M  V30 30 O -5.9201 -4.4685 0.7306 0
M  V30 31 C -6.1576 -2.9952 2.6243 0
M  V30 32 C 1.981 -0.8361 5.664 0
M  V30 33 C 2.2911 0.5585 5.1139 0
M  V30 34 C 1.7505 -0.7592 7.1742 0
M  V30 35 H -0.1113 3.3861 -3.5519 0
M  V30 36 H 0.7041 3.2779 -1.9786 0
M  V30 37 H -0.3638 -0.8672 -2.0719 0
M  V30 38 H -1.6749 0.4273 0.3945 0
M  V30 39 H 3.0913 2.3844 -1.875 0
M  V30 40 H 3.0277 1.1818 -3.1864 0
M  V30 41 H 4.1388 2.5334 -3.2816 0
M  V30 42 H 3.3576 4.8125 -4.015 0
M  V30 43 H 2.3957 4.928 -2.5386 0
M  V30 44 H 1.6445 5.1749 -4.1322 0
M  V30 45 H -4.0517 -1.0295 -2.5049 0
M  V30 46 H -1.7162 -3.4998 1.2026 0
M  V30 47 H 0.7565 -2.7094 1.1835 0
M  V30 48 H 2.3924 -0.622 0.7506 0
M  V30 49 H 1.693 0.5362 -0.453 0
M  V30 50 H 2.0864 1.2239 -7.1878 0
M  V30 51 H 1.7063 2.9151 -7.6639 0
M  V30 52 H 3.3216 2.2383 -7.9593 0
M  V30 53 H -4.9241 -2.8809 -1.1828 0
M  V30 54 H -3.6743 -3.8561 -0.3728 0
M  V30 55 H -0.0884 -0.7492 5.0332 0
M  V30 56 H 0.4564 -2.3789 5.4764 0
M  V30 57 H -5.347 -2.9067 3.352 0
M  V30 58 H -6.6794 -2.0415 2.5108 0
M  V30 59 H -6.8706 -3.7417 2.9859 0
M  V30 60 H 2.8556 -1.4749 5.4883 0
M  V30 61 H 2.5137 0.5235 4.0428 0
M  V30 62 H 1.4471 1.2409 5.2618 0
M  V30 63 H 3.1637 0.9877 5.6178 0
M  V30 64 H 1.5691 -1.7555 7.591 0
M  V30 65 H 0.8872 -0.1289 7.4136 0
M  V30 66 H 2.6266 -0.3407 7.6808 0
M  V30 END ATOM
M  V30 BEGIN BOND
M  V30 1 2 1 2
M  V30 2 1 2 3
M  V30 3 1 2 4
M  V30 4 1 3 5
M  V30 5 1 4 6
M  V30 6 1 5 7
M  V30 7 1 5 8
M  V30 8 1 6 9
M  V30 9 1 6 10
M  V30 10 1 6 11
M  V30 11 1 7 12
M  V30 12 1 8 13
M  V30 13 1 8 14
M  V30 14 1 9 15
M  V30 15 2 12 16
M  V30 16 2 13 17
M  V30 17 1 14 18
M  V30 18 1 14 19
M  V30 19 1 14 20
M  V30 20 2 15 21
M  V30 21 1 15 22
M  V30 22 1 16 23
M  V30 23 1 19 24
M  V30 24 1 23 25
M  V30 25 1 24 26
M  V30 26 1 25 27
M  V30 27 2 26 28
M  V30 28 1 26 29
M  V30 29 2 27 30
M  V30 30 1 27 31
M  V30 31 1 29 32
M  V30 32 1 32 33
M  V30 33 1 32 34
M  V30 34 1 13 16
M  V30 35 1 17 19
M  V30 36 1 18 20
M  V30 37 1 4 35
M  V30 38 1 4 36
M  V30 39 1 5 37
M  V30 40 1 8 38
M  V30 41 1 10 39
M  V30 42 1 10 40
M  V30 43 1 10 41
M  V30 44 1 11 42
M  V30 45 1 11 43
M  V30 46 1 11 44
M  V30 47 1 12 45
M  V30 48 1 17 46
M  V30 49 1 19 47
M  V30 50 1 20 48
M  V30 51 1 20 49
M  V30 52 1 22 50
M  V30 53 1 22 51
M  V30 54 1 22 52
M  V30 55 1 23 53
M  V30 56 1 23 54
M  V30 57 1 29 55
M  V30 58 1 29 56
M  V30 59 1 31 57
M  V30 60 1 31 58
M  V30 61 1 31 59
M  V30 62 1 32 60
M  V30 63 1 33 61
M  V30 64 1 33 62
M  V30 65 1 33 63
M  V30 66 1 34 64
M  V30 67 1 34 65
M  V30 68 1 34 66
M  V30 END BOND
M  V30 BEGIN COLLECTION
M  V30 MDLV30/STEABS ATOMS=(3 5 8 19)
M  V30 END COLLECTION
M  V30 END CTAB
M  END
>  <NO.>
2746

>  <Name>


>  <SMILES>
CC(=O)OCC1=CO[C@@H](OC(=O)CC(C)(C)OC(C)=O)[C@H]2C1=C[C@H](OC(=O)CC(C)C)C21CO1

>  <logBB>


>  <Class>
1

>  <MW>
480.2

>  <nHBAcc>
10

>  <nHBDon>
0

>  <SLogP>
2.35

>  <TopoPSA>
126.96

>  <MMFF94 Energy>
6.3645

$$$$
CC(=O)SC[C@@H](Cc1ccccc1)C(=O)NCC(=O)OCc1ccccc1
Actelion Java MolfileCreator 2.0

  0  0  0  0  0  0              0 V3000
M  V30 BEGIN CTAB
M  V30 COUNTS 50 51 0 0 0
M  V30 BEGIN ATOM
M  V30 1 S 1.7623 -2.1632 4.4103 0
M  V30 2 C 1.1531 -3.7952 4.1527 0
M  V30 3 C 0.1878 -1.2395 4.4959 0
M  V30 4 O -0.0402 -4.0393 4.0246 0
M  V30 5 C 2.2232 -4.8469 4.0976 0
M  V30 6 C -0.4516 -1.0183 3.1169 0 CFG=2
M  V30 7 C 0.3168 0.042 2.3372 0
M  V30 8 C -1.9078 -0.544 3.2905 0
M  V30 9 O 0.8179 1.0324 2.8615 0
M  V30 10 N 0.3599 -0.1768 0.9829 0
M  V30 11 C -2.6934 -0.5577 1.9988 0
M  V30 12 C 1.0091 0.7585 0.0827 0
M  V30 13 C -2.9827 0.6389 1.3292 0
M  V30 14 C -3.114 -1.7715 1.4381 0
M  V30 15 C 0.9 0.2757 -1.3536 0
M  V30 16 C -3.6759 0.6206 0.1183 0
M  V30 17 C -3.8065 -1.7868 0.227 0
M  V30 18 O 0.5213 -0.8422 -1.6851 0
M  V30 19 O 1.3051 1.2514 -2.2092 0
M  V30 20 C -4.0862 -0.5916 -0.4329 0
M  V30 21 C 1.238 0.8733 -3.5858 0
M  V30 22 C 1.6897 2.0499 -4.4106 0
M  V30 23 C 0.7663 3.0126 -4.8424 0
M  V30 24 C 3.0455 2.2206 -4.7239 0
M  V30 25 C 1.1886 4.1126 -5.5909 0
M  V30 26 C 3.4656 3.3214 -5.4725 0
M  V30 27 C 2.5371 4.2654 -5.9074 0
M  V30 28 H 0.4001 -0.283 4.9865 0
M  V30 29 H -0.4906 -1.7829 5.1629 0
M  V30 30 H 2.9006 -4.6535 3.2613 0
M  V30 31 H 2.7798 -4.871 5.0385 0
M  V30 32 H 1.759 -5.8262 3.9469 0
M  V30 33 H -0.4443 -1.956 2.5485 0
M  V30 34 H -2.4336 -1.192 4.0043 0
M  V30 35 H -1.9316 0.4634 3.7269 0
M  V30 36 H -0.1279 -0.9688 0.5714 0
M  V30 37 H 2.0625 0.844 0.3644 0
M  V30 38 H 0.5092 1.7267 0.1851 0
M  V30 39 H -2.6624 1.5931 1.743 0
M  V30 40 H -2.9025 -2.7132 1.9414 0
M  V30 41 H -3.8962 1.5531 -0.3947 0
M  V30 42 H -4.1282 -2.7324 -0.2018 0
M  V30 43 H -4.6262 -0.6054 -1.3758 0
M  V30 44 H 0.2103 0.5994 -3.8556 0
M  V30 45 H 1.8898 0.0112 -3.7742 0
M  V30 46 H -0.2883 2.9123 -4.5951 0
M  V30 47 H 3.7834 1.4975 -4.3834 0
M  V30 48 H 0.4657 4.853 -5.9236 0
M  V30 49 H 4.5184 3.4448 -5.7128 0
M  V30 50 H 2.8654 5.1232 -6.4884 0
M  V30 END ATOM
M  V30 BEGIN BOND
M  V30 1 1 1 2
M  V30 2 1 1 3
M  V30 3 2 2 4
M  V30 4 1 2 5
M  V30 5 1 3 6
M  V30 6 1 6 7
M  V30 7 1 6 8
M  V30 8 2 7 9
M  V30 9 1 7 10
M  V30 10 1 8 11
M  V30 11 1 10 12
M  V30 12 2 11 13
M  V30 13 1 11 14
M  V30 14 1 12 15
M  V30 15 1 13 16
M  V30 16 2 14 17
M  V30 17 2 15 18
M  V30 18 1 15 19
M  V30 19 2 16 20
M  V30 20 1 19 21
M  V30 21 1 21 22
M  V30 22 2 22 23
M  V30 23 1 22 24
M  V30 24 1 23 25
M  V30 25 2 24 26
M  V30 26 2 25 27
M  V30 27 1 17 20
M  V30 28 1 26 27
M  V30 29 1 3 28
M  V30 30 1 3 29
M  V30 31 1 5 30
M  V30 32 1 5 31
M  V30 33 1 5 32
M  V30 34 1 6 33
M  V30 35 1 8 34
M  V30 36 1 8 35
M  V30 37 1 10 36
M  V30 38 1 12 37
M  V30 39 1 12 38
M  V30 40 1 13 39
M  V30 41 1 14 40
M  V30 42 1 16 41
M  V30 43 1 17 42
M  V30 44 1 20 43
M  V30 45 1 21 44
M  V30 46 1 21 45
M  V30 47 1 23 46
M  V30 48 1 24 47
M  V30 49 1 25 48
M  V30 50 1 26 49
M  V30 51 1 27 50
M  V30 END BOND
M  V30 BEGIN COLLECTION
M  V30 MDLV30/STEABS ATOMS=(1 6)
M  V30 END COLLECTION
M  V30 END CTAB
M  END
>  <NO.>
2759

>  <Name>
acetorphan (racecadotril and ecadotril)

>  <SMILES>
CC(=O)SC[C@@H](Cc1ccccc1)C(=O)NCC(=O)OCc1ccccc1

>  <logBB>


>  <Class>
1

>  <MW>
385.13

>  <nHBAcc>
5

>  <nHBDon>
1

>  <SLogP>
2.98

>  <TopoPSA>
72.47

>  <MMFF94 Energy>
25.307

$$$$
CC(=O)S[C@H]1CC2=CC(=O)CCC2(C)[C@H]2CCC3(C)[C@@H](CCC34CCC(=O)O4)[C@@H]12
Actelion Java MolfileCreator 2.0

  0  0  0  0  0  0              0 V3000
M  V30 BEGIN CTAB
M  V30 COUNTS 61 65 0 0 0
M  V30 BEGIN ATOM
M  V30 1 S 1.0613 1.5514 -1.143 0
M  V30 2 C 2.0307 2.0809 -2.5144 0
M  V30 3 C 1.3451 -0.2598 -1.2013 0 CFG=2
M  V30 4 O 2.4871 1.2988 -3.3376 0
M  V30 5 C 2.2295 3.5675 -2.5853 0
M  V30 6 C 0.3293 -1.1555 -0.4272 0 CFG=1
M  V30 7 C 2.7712 -0.5605 -0.7018 0
M  V30 8 C 0.4516 -1.0811 1.1188 0 CFG=1
M  V30 9 C -1.1589 -1.1729 -0.871 0 CFG=1
M  V30 10 C 2.9264 -0.4679 0.8032 0
M  V30 11 C 1.934 -1.2701 1.6441 0
M  V30 12 C -0.297 0.1417 1.6932 0
M  V30 13 C -2.2097 -0.4308 0.0222 0
M  V30 14 C -1.4587 -0.7699 -2.3136 0
M  V30 15 C 3.9404 0.2426 1.3293 0
M  V30 16 C 2.0454 -0.8785 3.1499 0
M  V30 17 C 2.3196 -2.7709 1.5243 0
M  V30 18 C -1.5333 0.6164 0.9197 0
M  V30 19 C -3.2486 0.1722 -1.0112 0
M  V30 20 C -2.9268 -1.4575 0.9393 0
M  V30 21 C -2.9674 -0.6088 -2.31 0
M  V30 22 C 4.2413 0.2155 2.7809 0
M  V30 23 C 3.4815 -0.7603 3.6433 0
M  V30 24 O -4.6137 -0.06 -0.6282 0
M  V30 25 C -3.222 1.682 -1.237 0
M  V30 26 O 5.1415 0.9243 3.2239 0
M  V30 27 C -5.4209 0.9118 -1.1477 0
M  V30 28 C -4.5921 1.9656 -1.8142 0
M  V30 29 O -6.639 0.8992 -1.0882 0
M  V30 30 H 1.2918 -0.5596 -2.2544 0
M  V30 31 H 1.2667 4.0725 -2.7027 0
M  V30 32 H 2.7377 3.9251 -1.6855 0
M  V30 33 H 2.8539 3.8071 -3.4513 0
M  V30 34 H 0.665 -2.1711 -0.6919 0
M  V30 35 H 3.0319 -1.5843 -1.0021 0
M  V30 36 H 3.5091 0.0712 -1.2117 0
M  V30 37 H -0.0955 -1.9532 1.5042 0
M  V30 38 H -1.4363 -2.2397 -0.8252 0
M  V30 39 H 0.3794 0.9993 1.7897 0
M  V30 40 H -0.6174 -0.1034 2.7147 0
M  V30 41 H -1.134 -1.533 -3.0277 0
M  V30 42 H -0.9941 0.1768 -2.5959 0
M  V30 43 H 4.6386 0.8112 0.7245 0
M  V30 44 H 1.5845 0.0977 3.3347 0
M  V30 45 H 1.4993 -1.5986 3.7719 0
M  V30 46 H 2.2066 -3.1558 0.5064 0
M  V30 47 H 1.6885 -3.389 2.1735 0
M  V30 48 H 3.3615 -2.9493 1.8125 0
M  V30 49 H -1.2238 1.4743 0.3208 0
M  V30 50 H -2.259 1.0278 1.6342 0
M  V30 51 H -3.4497 -2.2207 0.3513 0
M  V30 52 H -3.668 -0.9634 1.5783 0
M  V30 53 H -2.235 -1.9827 1.6023 0
M  V30 54 H -3.3192 -0.1016 -3.2137 0
M  V30 55 H -3.4625 -1.5881 -2.2844 0
M  V30 56 H 4.0025 -1.7221 3.6359 0
M  V30 57 H 3.4778 -0.3842 4.6726 0
M  V30 58 H -2.41 2.0294 -1.8817 0
M  V30 59 H -3.1617 2.2266 -0.2877 0
M  V30 60 H -4.6253 1.8261 -2.8977 0
M  V30 61 H -4.9394 2.9661 -1.5455 0
M  V30 END ATOM
M  V30 BEGIN BOND
M  V30 1 1 1 2
M  V30 2 1 1 3
M  V30 3 2 2 4
M  V30 4 1 2 5
M  V30 5 1 3 6
M  V30 6 1 3 7
M  V30 7 1 6 8
M  V30 8 1 6 9
M  V30 9 1 7 10
M  V30 10 1 8 11
M  V30 11 1 8 12
M  V30 12 1 9 13
M  V30 13 1 9 14
M  V30 14 2 10 15
M  V30 15 1 11 16
M  V30 16 1 11 17
M  V30 17 1 12 18
M  V30 18 1 13 19
M  V30 19 1 13 20
M  V30 20 1 14 21
M  V30 21 1 15 22
M  V30 22 1 16 23
M  V30 23 1 19 24
M  V30 24 1 19 25
M  V30 25 2 22 26
M  V30 26 1 24 27
M  V30 27 1 25 28
M  V30 28 2 27 29
M  V30 29 1 10 11
M  V30 30 1 13 18
M  V30 31 1 19 21
M  V30 32 1 22 23
M  V30 33 1 27 28
M  V30 34 1 3 30
M  V30 35 1 5 31
M  V30 36 1 5 32
M  V30 37 1 5 33
M  V30 38 1 6 34
M  V30 39 1 7 35
M  V30 40 1 7 36
M  V30 41 1 8 37
M  V30 42 1 9 38
M  V30 43 1 12 39
M  V30 44 1 12 40
M  V30 45 1 14 41
M  V30 46 1 14 42
M  V30 47 1 15 43
M  V30 48 1 16 44
M  V30 49 1 16 45
M  V30 50 1 17 46
M  V30 51 1 17 47
M  V30 52 1 17 48
M  V30 53 1 18 49
M  V30 54 1 18 50
M  V30 55 1 20 51
M  V30 56 1 20 52
M  V30 57 1 20 53
M  V30 58 1 21 54
M  V30 59 1 21 55
M  V30 60 1 23 56
M  V30 61 1 23 57
M  V30 62 1 25 58
M  V30 63 1 25 59
M  V30 64 1 28 60
M  V30 65 1 28 61
M  V30 END BOND
M  V30 BEGIN COLLECTION
M  V30 MDLV30/STEABS ATOMS=(4 3 6 8 9)
M  V30 END COLLECTION
M  V30 END CTAB
M  END
>  <NO.>
2760

>  <Name>


>  <SMILES>
CC(=O)S[C@H]1CC2=CC(=O)CCC2(C)[C@H]2CCC3(C)[C@@H](CCC34CCC(=O)O4)[C@@H]12

>  <logBB>


>  <Class>
-1

>  <MW>
416.2

>  <nHBAcc>
5

>  <nHBDon>
0

>  <SLogP>
4.85

>  <TopoPSA>
60.44

>  <MMFF94 Energy>
93.633

$$$$
CC(C)(C)CC(=O)OCC(=O)C12OC(C)(C)O[C@H]1C[C@H]1[C@@H]3CC4=CC(=O)C=CC4(C)C3(F)[C@@H](O)CC12C
Actelion Java MolfileCreator 2.0

  0  0  0  0  0  0              0 V3000
M  V30 BEGIN CTAB
M  V30 COUNTS 76 80 0 0 0
M  V30 BEGIN ATOM
M  V30 1 F -2.3398 -2.5013 -2.9052 0
M  V30 2 C -1.0375 -2.7044 -2.5023 0
M  V30 3 C -0.4256 -3.8051 -3.4029 0
M  V30 4 C -1.0618 -2.8794 -0.9856 0 CFG=1
M  V30 5 C -0.2408 -1.4523 -2.8777 0 CFG=2
M  V30 6 C -0.3232 -3.0041 -4.6983 0
M  V30 7 C -1.2892 -5.0355 -3.5795 0
M  V30 8 C 0.9786 -4.288 -2.9921 0
M  V30 9 O 0.225 -3.1037 -0.4228 0
M  V30 10 C -1.7413 -1.6568 -0.3417 0
M  V30 11 C -0.9134 -0.1774 -2.3496 0 CFG=1
M  V30 12 C -0.095 -1.5404 -4.406 0
M  V30 13 C -0.6472 -3.4848 -5.9076 0
M  V30 14 C -1.6116 -5.5378 -4.7818 0
M  V30 15 C -1.3071 -0.2387 -0.8361 0
M  V30 16 C 0.0173 1.0477 -2.4771 0
M  V30 17 C -1.1948 -4.8565 -6.033 0
M  V30 18 C -0.0429 0.3413 -0.1305 0
M  V30 19 C -2.5246 0.7035 -0.6244 0
M  V30 20 C 0.442 1.4449 -1.0546 0 CFG=1
M  V30 21 O -1.3557 -5.38 -7.128 0
M  V30 22 O 1.0514 -0.5936 -0.1663 0
M  V30 23 C -0.2981 0.7472 1.3426 0
M  V30 24 O 1.8608 1.4653 -0.9164 0
M  V30 25 C 2.236 0.1949 -0.3731 0
M  V30 26 O -0.3595 -0.1155 2.2251 0
M  V30 27 C -0.4608 2.2282 1.6714 0
M  V30 28 C 2.9605 0.4102 0.9546 0
M  V30 29 C 3.1637 -0.5183 -1.3508 0
M  V30 30 O -0.7638 2.4064 3.0546 0
M  V30 31 C -0.9149 3.7062 3.4196 0
M  V30 32 O -0.8375 4.6568 2.6532 0
M  V30 33 C -1.1754 3.8192 4.903 0
M  V30 34 C 0.0917 4.0298 5.7601 0
M  V30 35 C 1.067 2.8503 5.6109 0
M  V30 36 C -0.3384 4.1252 7.2366 0
M  V30 37 C 0.8088 5.3347 5.3757 0
M  V30 38 H -1.6622 -3.7628 -0.7404 0
M  V30 39 H 0.7626 -1.5256 -2.454 0
M  V30 40 H -1.6033 -5.5645 -2.6832 0
M  V30 41 H 1.6846 -3.4673 -2.8309 0
M  V30 42 H 0.9442 -4.8857 -2.0742 0
M  V30 43 H 1.4185 -4.928 -3.7683 0
M  V30 44 H 0.5912 -2.2494 -0.1126 0
M  V30 45 H -2.8163 -1.7694 -0.5419 0
M  V30 46 H -1.6368 -1.718 0.7469 0
M  V30 47 H -1.8116 -0.0039 -2.9579 0
M  V30 48 H -0.839 -0.923 -4.9209 0
M  V30 49 H 0.9067 -1.2261 -4.7157 0
M  V30 50 H -0.622 -2.8921 -6.8132 0
M  V30 51 H -2.1807 -6.4517 -4.8992 0
M  V30 52 H -0.5516 1.8762 -2.9175 0
M  V30 53 H 0.8723 0.8702 -3.137 0
M  V30 54 H -2.31 1.7358 -0.9184 0
M  V30 55 H -2.8492 0.7083 0.4217 0
M  V30 56 H -3.3807 0.3735 -1.2252 0
M  V30 57 H 0.0572 2.4444 -0.8368 0
M  V30 58 H 0.4841 2.7333 1.446 0
M  V30 59 H -1.28 2.6342 1.0713 0
M  V30 60 H 2.3532 0.9888 1.6566 0
M  V30 61 H 3.888 0.9749 0.811 0
M  V30 62 H 3.1926 -0.5451 1.4367 0
M  V30 63 H 2.7195 -0.5765 -2.3485 0
M  V30 64 H 4.108 0.0242 -1.4678 0
M  V30 65 H 3.3749 -1.5417 -1.0239 0
M  V30 66 H -1.8794 4.6503 5.042 0
M  V30 67 H -1.7186 2.9216 5.2268 0
M  V30 68 H 1.9201 2.9563 6.2909 0
M  V30 69 H 0.5747 1.8989 5.8415 0
M  V30 70 H 1.4698 2.7841 4.5947 0
M  V30 71 H -0.8446 3.2091 7.5614 0
M  V30 72 H 0.5252 4.2781 7.8937 0
M  V30 73 H -1.0281 4.9621 7.3947 0
M  V30 74 H 1.6552 5.5307 6.044 0
M  V30 75 H 1.2046 5.2938 4.3555 0
M  V30 76 H 0.1299 6.1925 5.4395 0
M  V30 END ATOM
M  V30 BEGIN BOND
M  V30 1 1 1 2
M  V30 2 1 2 3
M  V30 3 1 2 4
M  V30 4 1 2 5
M  V30 5 1 3 6
M  V30 6 1 3 7
M  V30 7 1 3 8
M  V30 8 1 4 9
M  V30 9 1 4 10
M  V30 10 1 5 11
M  V30 11 1 5 12
M  V30 12 2 6 13
M  V30 13 2 7 14
M  V30 14 1 10 15
M  V30 15 1 11 16
M  V30 16 1 13 17
M  V30 17 1 15 18
M  V30 18 1 15 19
M  V30 19 1 16 20
M  V30 20 2 17 21
M  V30 21 1 18 22
M  V30 22 1 18 23
M  V30 23 1 20 24
M  V30 24 1 22 25
M  V30 25 2 23 26
M  V30 26 1 23 27
M  V30 27 1 25 28
M  V30 28 1 25 29
M  V30 29 1 27 30
M  V30 30 1 30 31
M  V30 31 2 31 32
M  V30 32 1 31 33
M  V30 33 1 33 34
M  V30 34 1 34 35
M  V30 35 1 34 36
M  V30 36 1 34 37
M  V30 37 1 6 12
M  V30 38 1 11 15
M  V30 39 1 14 17
M  V30 40 1 18 20
M  V30 41 1 24 25
M  V30 42 1 4 38
M  V30 43 1 5 39
M  V30 44 1 7 40
M  V30 45 1 8 41
M  V30 46 1 8 42
M  V30 47 1 8 43
M  V30 48 1 9 44
M  V30 49 1 10 45
M  V30 50 1 10 46
M  V30 51 1 11 47
M  V30 52 1 12 48
M  V30 53 1 12 49
M  V30 54 1 13 50
M  V30 55 1 14 51
M  V30 56 1 16 52
M  V30 57 1 16 53
M  V30 58 1 19 54
M  V30 59 1 19 55
M  V30 60 1 19 56
M  V30 61 1 20 57
M  V30 62 1 27 58
M  V30 63 1 27 59
M  V30 64 1 28 60
M  V30 65 1 28 61
M  V30 66 1 28 62
M  V30 67 1 29 63
M  V30 68 1 29 64
M  V30 69 1 29 65
M  V30 70 1 33 66
M  V30 71 1 33 67
M  V30 72 1 35 68
M  V30 73 1 35 69
M  V30 74 1 35 70
M  V30 75 1 36 71
M  V30 76 1 36 72
M  V30 77 1 36 73
M  V30 78 1 37 74
M  V30 79 1 37 75
M  V30 80 1 37 76
M  V30 END BOND
M  V30 BEGIN COLLECTION
M  V30 MDLV30/STEABS ATOMS=(4 4 5 11 20)
M  V30 END COLLECTION
M  V30 END CTAB
M  END
>  <NO.>
2774

>  <Name>


>  <SMILES>
CC(C)(C)CC(=O)OCC(=O)C12OC(C)(C)O[C@H]1C[C@H]1[C@@H]3CC4=CC(=O)C=CC4(C)C3(F)[C@@H](O)CC12C

>  <logBB>


>  <Class>
1

>  <MW>
518.27

>  <nHBAcc>
7

>  <nHBDon>
1

>  <SLogP>
4.02

>  <TopoPSA>
99.13

>  <MMFF94 Energy>
165.57

$$$$
CC(C)(C)NC[C@H](O)c1ccc(O)c(CO)n1
Actelion Java MolfileCreator 2.0

  0  0  0  0  0  0              0 V3000
M  V30 BEGIN CTAB
M  V30 COUNTS 37 37 0 0 0
M  V30 BEGIN ATOM
M  V30 1 O 1.1691 3.1201 3.7451 0
M  V30 2 C 0.5158 2.49 2.7238 0
M  V30 3 C -0.6117 1.6902 2.9168 0
M  V30 4 C 1.0004 2.6775 1.4396 0
M  V30 5 N -1.2653 1.0949 1.8835 0
M  V30 6 C -1.1379 1.4032 4.2997 0
M  V30 7 C 0.3433 2.0726 0.3731 0
M  V30 8 C -0.7857 1.2942 0.6234 0
M  V30 9 O -1.1104 2.5841 5.1085 0
M  V30 10 C -1.5294 0.6044 -0.5051 0 CFG=1
M  V30 11 O -1.568 1.4129 -1.6947 0
M  V30 12 C -0.9463 -0.7937 -0.8364 0
M  V30 13 N 0.3263 -0.7121 -1.5702 0
M  V30 14 C 0.8349 -1.9601 -2.1572 0
M  V30 15 C 0.9179 -3.0983 -1.1278 0
M  V30 16 C 2.2585 -1.6476 -2.6554 0
M  V30 17 C -0.0161 -2.4 -3.3601 0
M  V30 18 H 0.6018 3.0609 4.5434 0
M  V30 19 H 1.8786 3.2918 1.2682 0
M  V30 20 H -0.5065 0.6483 4.7784 0
M  V30 21 H -2.1653 1.026 4.2663 0
M  V30 22 H 0.7075 2.2062 -0.6405 0
M  V30 23 H -1.8693 3.1207 4.81 0
M  V30 24 H -2.5711 0.479 -0.1835 0
M  V30 25 H -2.1655 0.9598 -2.3123 0
M  V30 26 H -0.8238 -1.3688 0.0878 0
M  V30 27 H -1.6869 -1.3036 -1.4618 0
M  V30 28 H 0.2564 0.0212 -2.2789 0
M  V30 29 H -0.0743 -3.4232 -0.7963 0
M  V30 30 H 1.4178 -3.9759 -1.554 0
M  V30 31 H 1.4878 -2.7935 -0.2423 0
M  V30 32 H 2.9085 -1.3266 -1.8324 0
M  V30 33 H 2.7196 -2.5302 -3.1137 0
M  V30 34 H 2.2556 -0.8507 -3.4089 0
M  V30 35 H -1.025 -2.7031 -3.0612 0
M  V30 36 H -0.112 -1.5946 -4.0976 0
M  V30 37 H 0.4403 -3.2572 -3.8687 0
M  V30 END ATOM
M  V30 BEGIN BOND
M  V30 1 1 1 2
M  V30 2 2 2 3
M  V30 3 1 2 4
M  V30 4 1 3 5
M  V30 5 1 3 6
M  V30 6 2 4 7
M  V30 7 2 5 8
M  V30 8 1 6 9
M  V30 9 1 8 10
M  V30 10 1 10 11
M  V30 11 1 10 12
M  V30 12 1 12 13
M  V30 13 1 13 14
M  V30 14 1 14 15
M  V30 15 1 14 16
M  V30 16 1 14 17
M  V30 17 1 7 8
M  V30 18 1 1 18
M  V30 19 1 4 19
M  V30 20 1 6 20
M  V30 21 1 6 21
M  V30 22 1 7 22
M  V30 23 1 9 23
M  V30 24 1 10 24
M  V30 25 1 11 25
M  V30 26 1 12 26
M  V30 27 1 12 27
M  V30 28 1 13 28
M  V30 29 1 15 29
M  V30 30 1 15 30
M  V30 31 1 15 31
M  V30 32 1 16 32
M  V30 33 1 16 33
M  V30 34 1 16 34
M  V30 35 1 17 35
M  V30 36 1 17 36
M  V30 37 1 17 37
M  V30 END BOND
M  V30 BEGIN COLLECTION
M  V30 MDLV30/STEABS ATOMS=(1 10)
M  V30 END COLLECTION
M  V30 END CTAB
M  END
>  <NO.>
2784

>  <Name>
schembl4820

>  <SMILES>
CC(C)(C)NC[C@H](O)c1ccc(O)c(CO)n1

>  <logBB>


>  <Class>
-1

>  <MW>
240.15

>  <nHBAcc>
5

>  <nHBDon>
4

>  <SLogP>
0.7

>  <TopoPSA>
85.61

>  <MMFF94 Energy>
95.471

$$$$
CC(C)(O)C(Cl)(Cl)Cl
Actelion Java MolfileCreator 2.0

  0  0  0  0  0  0              0 V3000
M  V30 BEGIN CTAB
M  V30 COUNTS 15 14 0 0 0
M  V30 BEGIN ATOM
M  V30 1 Cl 1.3627 -2.3003 -0.9367 0
M  V30 2 C 0.2072 -1.5041 0.1997 0
M  V30 3 Cl 0.6493 -2.0464 1.8643 0
M  V30 4 Cl -1.4313 -2.173 -0.1568 0
M  V30 5 C 0.2449 0.0698 0.0668 0
M  V30 6 O 1.5708 0.5696 0.3591 0
M  V30 7 C -0.7092 0.7675 1.0544 0
M  V30 8 C -0.0952 0.5491 -1.3569 0
M  V30 9 H 1.5659 1.539 0.2701 0
M  V30 10 H -0.4369 0.5587 2.094 0
M  V30 11 H -1.7527 0.4786 0.8996 0
M  V30 12 H -0.6461 1.8574 0.948 0
M  V30 13 H -1.0986 0.2458 -1.6694 0
M  V30 14 H 0.6284 0.1794 -2.0903 0
M  V30 15 H -0.0433 1.643 -1.419 0
M  V30 END ATOM
M  V30 BEGIN BOND
M  V30 1 1 1 2
M  V30 2 1 2 3
M  V30 3 1 2 4
M  V30 4 1 2 5
M  V30 5 1 5 6
M  V30 6 1 5 7
M  V30 7 1 5 8
M  V30 8 1 6 9
M  V30 9 1 7 10
M  V30 10 1 7 11
M  V30 11 1 7 12
M  V30 12 1 8 13
M  V30 13 1 8 14
M  V30 14 1 8 15
M  V30 END BOND
M  V30 END CTAB
M  END
>  <NO.>
2793

>  <Name>
chlorobutanol

>  <SMILES>
CC(C)(O)C(Cl)(Cl)Cl

>  <logBB>


>  <Class>
1

>  <MW>
175.96

>  <nHBAcc>
1

>  <nHBDon>
1

>  <SLogP>
2.13

>  <TopoPSA>
20.23

>  <MMFF94 Energy>
56.516

$$$$
CC(C)(O)C(F)(F)F
Actelion Java MolfileCreator 2.0

  0  0  0  0  0  0              0 V3000
M  V30 BEGIN CTAB
M  V30 COUNTS 15 14 0 0 0
M  V30 BEGIN ATOM
M  V30 1 F 1.6562 -1.1828 1.1039 0
M  V30 2 C 1.3068 -0.587 -0.0628 0
M  V30 3 F 1.577 -1.4627 -1.0557 0
M  V30 4 F 2.1108 0.486 -0.2301 0
M  V30 5 C -0.1843 -0.1892 -0.0344 0
M  V30 6 O -1.046 -1.3242 0.2009 0
M  V30 7 C -0.5968 0.4162 -1.3757 0
M  V30 8 C -0.4418 0.8104 1.0957 0
M  V30 9 H -0.678 -1.8239 0.9541 0
M  V30 10 H -0.4694 -0.3109 -2.1855 0
M  V30 11 H -1.6582 0.6903 -1.3716 0
M  V30 12 H -0.0096 1.3086 -1.6154 0
M  V30 13 H -1.5026 1.0827 1.1421 0
M  V30 14 H 0.1451 1.726 0.969 0
M  V30 15 H -0.1933 0.3712 2.0685 0
M  V30 END ATOM
M  V30 BEGIN BOND
M  V30 1 1 1 2
M  V30 2 1 2 3
M  V30 3 1 2 4
M  V30 4 1 2 5
M  V30 5 1 5 6
M  V30 6 1 5 7
M  V30 7 1 5 8
M  V30 8 1 6 9
M  V30 9 1 7 10
M  V30 10 1 7 11
M  V30 11 1 7 12
M  V30 12 1 8 13
M  V30 13 1 8 14
M  V30 14 1 8 15
M  V30 END BOND
M  V30 END CTAB
M  END
>  <NO.>
2794

>  <Name>
2-methylpropanol

>  <SMILES>
CC(C)(O)C(F)(F)F

>  <logBB>


>  <Class>
1

>  <MW>
128.04

>  <nHBAcc>
1

>  <nHBDon>
1

>  <SLogP>
1.32

>  <TopoPSA>
20.23

>  <MMFF94 Energy>
61.82

$$$$
CC(C)N1CCO[C@@H](c2cccc(C(F)(F)F)c2)C1
Actelion Java MolfileCreator 2.0

  0  0  0  0  0  0              0 V3000
M  V30 BEGIN CTAB
M  V30 COUNTS 37 38 0 0 0
M  V30 BEGIN ATOM
M  V30 1 F 0.5607 -1.2018 4.4927 0
M  V30 2 C -0.1163 -0.0711 4.8409 0
M  V30 3 F 0.8256 0.7995 5.2987 0
M  V30 4 F -0.8702 -0.4099 5.9241 0
M  V30 5 C -0.9266 0.5064 3.7062 0
M  V30 6 C -0.4888 0.3673 2.3748 0
M  V30 7 C -2.105 1.2189 3.9668 0
M  V30 8 C -1.2183 0.9114 1.3056 0
M  V30 9 C -2.8409 1.7658 2.9192 0
M  V30 10 C -2.4009 1.6121 1.6043 0
M  V30 11 C -0.7928 0.8029 -0.1519 0 CFG=2
M  V30 12 O -1.8742 0.1685 -0.8657 0
M  V30 13 C 0.5321 0.0388 -0.4272 0
M  V30 14 C -1.6016 0.1482 -2.272 0
M  V30 15 N 0.8405 -0.0219 -1.8757 0
M  V30 16 C -0.3081 -0.6232 -2.5799 0
M  V30 17 C 2.1436 -0.6563 -2.1498 0
M  V30 18 C 2.2066 -2.1741 -1.942 0
M  V30 19 C 2.6164 -0.3037 -3.5661 0
M  V30 20 H 0.4337 -0.1814 2.1953 0
M  V30 21 H -2.4569 1.3456 4.9895 0
M  V30 22 H -3.7599 2.3102 3.1225 0
M  V30 23 H -2.9936 2.0378 0.7953 0
M  V30 24 H -0.6848 1.8313 -0.5268 0
M  V30 25 H 0.4509 -0.9792 -0.0264 0
M  V30 26 H 1.3505 0.5478 0.0965 0
M  V30 27 H -1.552 1.1774 -2.6481 0
M  V30 28 H -2.4481 -0.3422 -2.7633 0
M  V30 29 H -0.1521 -0.609 -3.663 0
M  V30 30 H -0.4463 -1.6649 -2.2664 0
M  V30 31 H 2.8804 -0.2032 -1.4726 0
M  V30 32 H 1.9061 -2.4574 -0.9288 0
M  V30 33 H 3.2323 -2.5325 -2.0858 0
M  V30 34 H 1.5722 -2.7124 -2.6536 0
M  V30 35 H 3.6525 -0.6285 -3.7139 0
M  V30 36 H 2.0075 -0.7859 -4.3376 0
M  V30 37 H 2.5864 0.779 -3.732 0
M  V30 END ATOM
M  V30 BEGIN BOND
M  V30 1 1 1 2
M  V30 2 1 2 3
M  V30 3 1 2 4
M  V30 4 1 2 5
M  V30 5 2 5 6
M  V30 6 1 5 7
M  V30 7 1 6 8
M  V30 8 2 7 9
M  V30 9 2 8 10
M  V30 10 1 8 11
M  V30 11 1 11 12
M  V30 12 1 11 13
M  V30 13 1 12 14
M  V30 14 1 13 15
M  V30 15 1 14 16
M  V30 16 1 15 17
M  V30 17 1 17 18
M  V30 18 1 17 19
M  V30 19 1 9 10
M  V30 20 1 15 16
M  V30 21 1 6 20
M  V30 22 1 7 21
M  V30 23 1 9 22
M  V30 24 1 10 23
M  V30 25 1 11 24
M  V30 26 1 13 25
M  V30 27 1 13 26
M  V30 28 1 14 27
M  V30 29 1 14 28
M  V30 30 1 16 29
M  V30 31 1 16 30
M  V30 32 1 17 31
M  V30 33 1 18 32
M  V30 34 1 18 33
M  V30 35 1 18 34
M  V30 36 1 19 35
M  V30 37 1 19 36
M  V30 38 1 19 37
M  V30 END BOND
M  V30 BEGIN COLLECTION
M  V30 MDLV30/STEABS ATOMS=(1 11)
M  V30 END COLLECTION
M  V30 END CTAB
M  END
>  <NO.>
2816

>  <Name>
(s)-oxaflozane

>  <SMILES>
CC(C)N1CCO[C@@H](c2cccc(C(F)(F)F)c2)C1

>  <logBB>


>  <Class>
1

>  <MW>
273.13

>  <nHBAcc>
2

>  <nHBDon>
0

>  <SLogP>
3.49

>  <TopoPSA>
12.47

>  <MMFF94 Energy>
123.01

$$$$
CC(Cc1ccccc1)N1CC(NC(=O)Nc2ccccc2)[O+]N1
Actelion Java MolfileCreator 2.0

  0  0  0  0  0  0              0 V3000
M  V30 BEGIN CTAB
M  V30 COUNTS 46 48 0 0 0
M  V30 BEGIN ATOM
M  V30 1 O 2.1382 -0.3957 0.4748 0
M  V30 2 C 2.6099 -0.3466 -0.6535 0
M  V30 3 N 3.9312 -0.4882 -1.0056 0
M  V30 4 N 1.8181 -0.1134 -1.7481 0
M  V30 5 C 5.017 -0.7748 -0.1541 0
M  V30 6 C 0.3974 0.0552 -1.6005 0
M  V30 7 C 4.8742 -1.2196 1.1614 0
M  V30 8 C 6.3058 -0.6252 -0.6824 0
M  V30 9 O -0.1644 0.1625 -2.9121 0 CHG=1 RAD=2
M  V30 10 C -0.0195 1.3529 -0.9203 0
M  V30 11 C 6.0013 -1.4978 1.9411 0
M  V30 12 C 7.4319 -0.9032 0.0967 0
M  V30 13 N -1.3838 0.9568 -2.7495 0
M  V30 14 N -1.3128 1.7096 -1.5149 0
M  V30 15 C 7.279 -1.3387 1.4101 0
M  V30 16 C -2.5129 1.4355 -0.6875 0
M  V30 17 C -2.6218 0.0 -0.1112 0
M  V30 18 C -2.5821 2.4952 0.4253 0
M  V30 19 C -3.9564 -0.2999 0.5358 0
M  V30 20 C -4.0673 -0.4018 1.9291 0
M  V30 21 C -5.1019 -0.4783 -0.252 0
M  V30 22 C -5.3016 -0.6724 2.522 0
M  V30 23 C -6.3349 -0.7489 0.3428 0
M  V30 24 C -6.4347 -0.8452 1.7293 0
M  V30 25 H 4.1585 -0.3029 -1.9696 0
M  V30 26 H 2.1775 -0.1733 -2.6847 0
M  V30 27 H -0.0219 -0.829 -1.1073 0
M  V30 28 H 3.8961 -1.3677 1.6089 0
M  V30 29 H 6.4532 -0.2849 -1.7036 0
M  V30 30 H -0.0135 1.278 0.1713 0
M  V30 31 H 0.6875 2.1521 -1.1784 0
M  V30 32 H 5.8757 -1.8412 2.965 0
M  V30 33 H 8.4272 -0.779 -0.3215 0
M  V30 34 H -1.3064 1.6004 -3.545 0
M  V30 35 H 8.1523 -1.5554 2.0195 0
M  V30 36 H -3.3885 1.622 -1.3257 0
M  V30 37 H -2.4793 -0.7416 -0.9076 0
M  V30 38 H -1.8201 -0.1822 0.6151 0
M  V30 39 H -3.554 2.4728 0.9293 0
M  V30 40 H -1.8075 2.3452 1.1844 0
M  V30 41 H -2.4627 3.5039 0.0131 0
M  V30 42 H -3.1933 -0.269 2.5627 0
M  V30 43 H -5.0376 -0.409 -1.3359 0
M  V30 44 H -5.3785 -0.7489 3.6034 0
M  V30 45 H -7.2173 -0.8856 -0.2764 0
M  V30 46 H -7.3949 -1.0564 2.1921 0
M  V30 END ATOM
M  V30 BEGIN BOND
M  V30 1 2 1 2
M  V30 2 1 2 3
M  V30 3 1 2 4
M  V30 4 1 3 5
M  V30 5 1 4 6
M  V30 6 2 5 7
M  V30 7 1 5 8
M  V30 8 1 6 9
M  V30 9 1 6 10
M  V30 10 1 7 11
M  V30 11 2 8 12
M  V30 12 1 9 13
M  V30 13 1 10 14
M  V30 14 2 11 15
M  V30 15 1 14 16
M  V30 16 1 16 17
M  V30 17 1 16 18
M  V30 18 1 17 19
M  V30 19 2 19 20
M  V30 20 1 19 21
M  V30 21 1 20 22
M  V30 22 2 21 23
M  V30 23 2 22 24
M  V30 24 1 12 15
M  V30 25 1 13 14
M  V30 26 1 23 24
M  V30 27 1 3 25
M  V30 28 1 4 26
M  V30 29 1 6 27
M  V30 30 1 7 28
M  V30 31 1 8 29
M  V30 32 1 10 30
M  V30 33 1 10 31
M  V30 34 1 11 32
M  V30 35 1 12 33
M  V30 36 1 13 34
M  V30 37 1 15 35
M  V30 38 1 16 36
M  V30 39 1 17 37
M  V30 40 1 17 38
M  V30 41 1 18 39
M  V30 42 1 18 40
M  V30 43 1 18 41
M  V30 44 1 20 42
M  V30 45 1 21 43
M  V30 46 1 22 44
M  V30 47 1 23 45
M  V30 48 1 24 46
M  V30 END BOND
M  V30 END CTAB
M  END
>  <NO.>
2831

>  <Name>


>  <SMILES>
CC(Cc1ccccc1)N1CC(NC(=O)Nc2ccccc2)[O+]N1

>  <logBB>


>  <Class>
1

>  <MW>
326.17

>  <nHBAcc>
4

>  <nHBDon>
3

>  <SLogP>
2.52

>  <TopoPSA>
67.7

>  <MMFF94 Energy>
5.2821

$$$$
CC(N)(Cc1ccc(O)c(O)c1)C(=O)O
Actelion Java MolfileCreator 2.0

  0  0  0  0  0  0              0 V3000
M  V30 BEGIN CTAB
M  V30 COUNTS 28 28 0 0 0
M  V30 BEGIN ATOM
M  V30 1 O -2.5828 0.7039 1.7996 0
M  V30 2 C -1.7447 -0.1664 1.616 0
M  V30 3 O -2.0835 -1.2958 0.9522 0
M  V30 4 C -0.2571 -0.1008 2.0193 0 CFG=1
M  V30 5 N 0.3452 -1.461 2.024 0
M  V30 6 C 0.4813 0.8847 1.0773 0
M  V30 7 C -0.1774 0.4115 3.464 0
M  V30 8 C 0.5696 0.468 -0.3763 0
M  V30 9 C -0.4531 0.8092 -1.2754 0
M  V30 10 C 1.6708 -0.2714 -0.8425 0
M  V30 11 C -0.3691 0.4035 -2.6009 0
M  V30 12 C 1.7544 -0.6587 -2.1823 0
M  V30 13 O -1.4065 0.6833 -3.4429 0
M  V30 14 C 0.7387 -0.303 -3.0563 0
M  V30 15 O 0.8588 -0.6272 -4.3764 0
M  V30 16 H -3.0378 -1.1821 0.7652 0
M  V30 17 H 1.3563 -1.3902 1.9402 0
M  V30 18 H 0.02 -1.9364 1.1759 0
M  V30 19 H -0.0026 1.8708 1.1199 0
M  V30 20 H 1.5024 1.0533 1.4477 0
M  V30 21 H -0.5984 1.4202 3.551 0
M  V30 22 H 0.8587 0.4542 3.8194 0
M  V30 23 H -0.7439 -0.2318 4.1483 0
M  V30 24 H -1.3211 1.3758 -0.9465 0
M  V30 25 H 2.4797 -0.5417 -0.1672 0
M  V30 26 H 2.6147 -1.2156 -2.5412 0
M  V30 27 H -1.4766 -0.0805 -4.0446 0
M  V30 28 H 0.5229 0.1429 -4.8713 0
M  V30 END ATOM
M  V30 BEGIN BOND
M  V30 1 2 1 2
M  V30 2 1 2 3
M  V30 3 1 2 4
M  V30 4 1 4 5
M  V30 5 1 4 6
M  V30 6 1 4 7
M  V30 7 1 6 8
M  V30 8 2 8 9
M  V30 9 1 8 10
M  V30 10 1 9 11
M  V30 11 2 10 12
M  V30 12 1 11 13
M  V30 13 2 11 14
M  V30 14 1 14 15
M  V30 15 1 12 14
M  V30 16 1 3 16
M  V30 17 1 5 17
M  V30 18 1 5 18
M  V30 19 1 6 19
M  V30 20 1 6 20
M  V30 21 1 7 21
M  V30 22 1 7 22
M  V30 23 1 7 23
M  V30 24 1 9 24
M  V30 25 1 10 25
M  V30 26 1 12 26
M  V30 27 1 13 27
M  V30 28 1 15 28
M  V30 END BOND
M  V30 BEGIN COLLECTION
M  V30 MDLV30/STERAC1 ATOMS=(1 4)
M  V30 END COLLECTION
M  V30 END CTAB
M  END
>  <NO.>
2832

>  <Name>
3-hydroxy-alpha-methyl-dl-tyrosine

>  <SMILES>
CC(N)(Cc1ccc(O)c(O)c1)C(=O)O

>  <logBB>


>  <Class>
-1

>  <MW>
211.08

>  <nHBAcc>
4

>  <nHBDon>
4

>  <SLogP>
0.44

>  <TopoPSA>
103.78

>  <MMFF94 Energy>
49.545

$$$$
CC1(C)O[C@H]2C[C@H]3[C@@H]4CC5=CC(=O)C=CC5(C)C4(F)[C@@H](O)CC3(C)C2(C(=O)COC(=O)c2cc3ccccc3o2)O1
Actelion Java MolfileCreator 2.0

  0  0  0  0  0  0              0 V3000
M  V30 BEGIN CTAB
M  V30 COUNTS 74 80 0 0 0
M  V30 BEGIN ATOM
M  V30 1 F 0.0 -4.4054 2.2824 0
M  V30 2 C 0.2532 -3.3068 1.4787 0
M  V30 3 C 0.9085 -3.8807 0.1824 0
M  V30 4 C -1.0982 -2.5578 1.2792 0 CFG=1
M  V30 5 C 1.3822 -2.5135 2.2022 0 CFG=2
M  V30 6 C 2.295 -4.1888 0.7164 0
M  V30 7 C 0.2317 -5.1337 -0.3476 0
M  V30 8 C 1.0145 -2.9104 -1.007 0
M  V30 9 O -1.9748 -2.8049 2.3867 0
M  V30 10 C -0.99 -1.0264 1.1082 0
M  V30 11 C 1.3608 -1.0156 1.8986 0 CFG=1
M  V30 12 C 2.7014 -3.1793 1.752 0
M  V30 13 C 2.9701 -5.3209 0.4682 0
M  V30 14 C 0.8924 -6.2709 -0.6151 0
M  V30 15 C -0.0187 -0.3634 2.1143 0
M  V30 16 C 2.3094 -0.1121 2.6841 0
M  V30 17 C 2.3442 -6.3935 -0.3388 0
M  V30 18 C 0.3319 1.1432 1.8622 0
M  V30 19 C -0.5512 -0.5428 3.5612 0
M  V30 20 C 1.7717 1.2973 2.3901 0 CFG=1
M  V30 21 O 2.9855 -7.3651 -0.7168 0
M  V30 22 O -0.4592 2.0473 2.6352 0
M  V30 23 C 0.2616 1.5484 0.3775 0
M  V30 24 O 1.6686 2.0666 3.5852 0
M  V30 25 C 0.4434 2.7879 3.4682 0
M  V30 26 O 1.1568 1.2434 -0.4155 0
M  V30 27 C -0.9951 2.2886 -0.0689 0
M  V30 28 C 0.7125 4.1525 2.8322 0
M  V30 29 C -0.1747 2.9637 4.8483 0
M  V30 30 O -1.0071 2.4004 -1.4921 0
M  V30 31 C -2.1271 2.9968 -1.9911 0
M  V30 32 O -3.0545 3.3935 -1.2961 0
M  V30 33 C -2.0364 3.0691 -3.4287 0
M  V30 34 O -3.0859 3.6163 -4.1192 0
M  V30 35 C -1.0534 2.6779 -4.323 0
M  V30 36 C -2.7719 3.5733 -5.4416 0
M  V30 37 C -1.5205 2.9998 -5.6234 0
M  V30 38 C -3.5789 4.0343 -6.4786 0
M  V30 39 C -1.0237 2.8702 -6.9319 0
M  V30 40 C -3.0684 3.8968 -7.7735 0
M  V30 41 C -1.813 3.3251 -7.9983 0
M  V30 42 H -1.6171 -2.9746 0.4092 0
M  V30 43 H 1.2861 -2.6629 3.285 0
M  V30 44 H -0.8331 -5.0878 -0.5591 0
M  V30 45 H 1.6299 -2.0339 -0.8003 0
M  V30 46 H 0.0289 -2.5659 -1.3371 0
M  V30 47 H 1.4818 -3.3993 -1.8725 0
M  V30 48 H -2.8768 -2.5504 2.1278 0
M  V30 49 H -0.6608 -0.8296 0.083 0
M  V30 50 H -1.9824 -0.5704 1.2134 0
M  V30 51 H 1.6425 -0.8891 0.8492 0
M  V30 52 H 3.4015 -2.4578 1.3186 0
M  V30 53 H 3.1915 -3.6635 2.6041 0
M  V30 54 H 3.9401 -5.5437 0.8945 0
M  V30 55 H 0.4082 -7.1439 -1.0349 0
M  V30 56 H 3.3415 -0.2157 2.3333 0
M  V30 57 H 2.3059 -0.3368 3.7562 0
M  V30 58 H 0.0798 -0.0443 4.3015 0
M  V30 59 H -0.5948 -1.5868 3.8776 0
M  V30 60 H -1.5606 -0.1266 3.6558 0
M  V30 61 H 2.4377 1.8253 1.6984 0
M  V30 62 H -1.8695 1.7203 0.2635 0
M  V30 63 H -0.9831 3.2896 0.3739 0
M  V30 64 H 1.1644 4.0466 1.84 0
M  V30 65 H -0.2163 4.7178 2.7026 0
M  V30 66 H 1.4098 4.7399 3.4389 0
M  V30 67 H 0.495 3.515 5.5166 0
M  V30 68 H -0.3653 1.993 5.3172 0
M  V30 69 H -1.1353 3.4862 4.7902 0
M  V30 70 H -0.1107 2.2162 -4.0623 0
M  V30 71 H -4.5492 4.4753 -6.2854 0
M  V30 72 H -0.0496 2.4283 -7.1188 0
M  V30 73 H -3.6601 4.2419 -8.619 0
M  V30 74 H -1.4408 3.2313 -9.0165 0
M  V30 END ATOM
M  V30 BEGIN BOND
M  V30 1 1 1 2
M  V30 2 1 2 3
M  V30 3 1 2 4
M  V30 4 1 2 5
M  V30 5 1 3 6
M  V30 6 1 3 7
M  V30 7 1 3 8
M  V30 8 1 4 9
M  V30 9 1 4 10
M  V30 10 1 5 11
M  V30 11 1 5 12
M  V30 12 2 6 13
M  V30 13 2 7 14
M  V30 14 1 10 15
M  V30 15 1 11 16
M  V30 16 1 13 17
M  V30 17 1 15 18
M  V30 18 1 15 19
M  V30 19 1 16 20
M  V30 20 2 17 21
M  V30 21 1 18 22
M  V30 22 1 18 23
M  V30 23 1 20 24
M  V30 24 1 22 25
M  V30 25 2 23 26
M  V30 26 1 23 27
M  V30 27 1 25 28
M  V30 28 1 25 29
M  V30 29 1 27 30
M  V30 30 1 30 31
M  V30 31 2 31 32
M  V30 32 1 31 33
M  V30 33 1 33 34
M  V30 34 2 33 35
M  V30 35 1 34 36
M  V30 36 1 35 37
M  V30 37 1 36 38
M  V30 38 1 37 39
M  V30 39 2 38 40
M  V30 40 2 39 41
M  V30 41 1 6 12
M  V30 42 1 11 15
M  V30 43 1 14 17
M  V30 44 1 18 20
M  V30 45 1 24 25
M  V30 46 2 36 37
M  V30 47 1 40 41
M  V30 48 1 4 42
M  V30 49 1 5 43
M  V30 50 1 7 44
M  V30 51 1 8 45
M  V30 52 1 8 46
M  V30 53 1 8 47
M  V30 54 1 9 48
M  V30 55 1 10 49
M  V30 56 1 10 50
M  V30 57 1 11 51
M  V30 58 1 12 52
M  V30 59 1 12 53
M  V30 60 1 13 54
M  V30 61 1 14 55
M  V30 62 1 16 56
M  V30 63 1 16 57
M  V30 64 1 19 58
M  V30 65 1 19 59
M  V30 66 1 19 60
M  V30 67 1 20 61
M  V30 68 1 27 62
M  V30 69 1 27 63
M  V30 70 1 28 64
M  V30 71 1 28 65
M  V30 72 1 28 66
M  V30 73 1 29 67
M  V30 74 1 29 68
M  V30 75 1 29 69
M  V30 76 1 35 70
M  V30 77 1 38 71
M  V30 78 1 39 72
M  V30 79 1 40 73
M  V30 80 1 41 74
M  V30 END BOND
M  V30 BEGIN COLLECTION
M  V30 MDLV30/STEABS ATOMS=(4 4 5 11 20)
M  V30 END COLLECTION
M  V30 END CTAB
M  END
>  <NO.>
2844

>  <Name>


>  <SMILES>
CC1(C)O[C@H]2C[C@H]3[C@@H]4CC5=CC(=O)C=CC5(C)C4(F)[C@@H](O)CC3(C)C2(C(=O)COC(=O)c2cc3ccccc3o2)O1

>  <logBB>


>  <Class>
1

>  <MW>
564.22

>  <nHBAcc>
8

>  <nHBDon>
1

>  <SLogP>
4.64

>  <TopoPSA>
112.27

>  <MMFF94 Energy>
197.87

$$$$
CC1(C)S[C@@H]2C(NC(=O)[C@@H](Oc3ccccc3)c3ccccc3)C(=O)[C@@H]2[C@H]1C(=O)O
Actelion Java MolfileCreator 2.0

  0  0  0  0  0  0              0 V3000
M  V30 BEGIN CTAB
M  V30 COUNTS 53 56 0 0 0
M  V30 BEGIN ATOM
M  V30 1 S -0.5703 1.3854 1.7932 0
M  V30 2 C -2.3536 1.419 2.2377 0
M  V30 3 C -0.204 -0.1935 2.6849 0 CFG=2
M  V30 4 C -2.5467 0.463 3.4401 0 CFG=1
M  V30 5 C -2.7288 2.8853 2.5141 0
M  V30 6 C -3.1632 0.9634 1.0101 0
M  V30 7 C -0.1783 -1.473 1.7848 0
M  V30 8 C -1.517 -0.663 3.3576 0 CFG=1
M  V30 9 C -2.4234 1.1646 4.7765 0
M  V30 10 N 0.0437 -1.2763 0.3367 0
M  V30 11 C -1.6494 -1.6849 2.2218 0
M  V30 12 O -1.4219 1.2334 5.4681 0
M  V30 13 O -3.5784 1.7236 5.1819 0
M  V30 14 C 1.3113 -1.0304 -0.1662 0
M  V30 15 O -2.5675 -2.3646 1.8136 0
M  V30 16 O 2.2973 -1.0227 0.5687 0
M  V30 17 C 1.3515 -0.7102 -1.6852 0 CFG=1
M  V30 18 O 2.6477 -0.3984 -2.1871 0
M  V30 19 C 0.8455 -1.9015 -2.4927 0
M  V30 20 C 3.0237 0.9159 -2.1743 0
M  V30 21 C -0.2912 -1.7794 -3.3075 0
M  V30 22 C 1.5071 -3.1391 -2.4334 0
M  V30 23 C 3.961 1.2705 -3.1473 0
M  V30 24 C 2.5824 1.8788 -1.266 0
M  V30 25 C -0.7636 -2.8758 -4.0308 0
M  V30 26 C 1.0317 -4.2324 -3.1578 0
M  V30 27 C 4.4303 2.582 -3.2364 0
M  V30 28 C 3.0531 3.1924 -1.3536 0
M  V30 29 C -0.1046 -4.1012 -3.9532 0
M  V30 30 C 3.972 3.5451 -2.3405 0
M  V30 31 H 0.6504 -0.104 3.363 0
M  V30 32 H -3.5513 0.0187 3.4254 0
M  V30 33 H -3.7844 2.9685 2.7977 0
M  V30 34 H -2.5901 3.5126 1.6245 0
M  V30 35 H -2.129 3.3305 3.3161 0
M  V30 36 H -4.2331 0.9323 1.2479 0
M  V30 37 H -2.8828 -0.0279 0.6482 0
M  V30 38 H -3.0419 1.6559 0.1679 0
M  V30 39 H 0.466 -2.2694 2.179 0
M  V30 40 H -1.3695 -1.1901 4.3105 0
M  V30 41 H -0.728 -1.3711 -0.3163 0
M  V30 42 H -3.3654 2.1298 6.0496 0
M  V30 43 H 0.6606 0.1275 -1.8578 0
M  V30 44 H -0.8139 -0.8291 -3.3936 0
M  V30 45 H 2.4033 -3.2529 -1.8244 0
M  V30 46 H 4.3245 0.5191 -3.8439 0
M  V30 47 H 1.8974 1.638 -0.4602 0
M  V30 48 H -1.6434 -2.7734 -4.6613 0
M  V30 49 H 1.5522 -5.1852 -3.1051 0
M  V30 50 H 5.1559 2.8478 -4.0002 0
M  V30 51 H 2.7103 3.9372 -0.6394 0
M  V30 52 H -0.4717 -4.9531 -4.5198 0
M  V30 53 H 4.3398 4.5659 -2.4025 0
M  V30 END ATOM
M  V30 BEGIN BOND
M  V30 1 1 1 2
M  V30 2 1 1 3
M  V30 3 1 2 4
M  V30 4 1 2 5
M  V30 5 1 2 6
M  V30 6 1 3 7
M  V30 7 1 3 8
M  V30 8 1 4 9
M  V30 9 1 7 10
M  V30 10 1 7 11
M  V30 11 2 9 12
M  V30 12 1 9 13
M  V30 13 1 10 14
M  V30 14 2 11 15
M  V30 15 2 14 16
M  V30 16 1 14 17
M  V30 17 1 17 18
M  V30 18 1 17 19
M  V30 19 1 18 20
M  V30 20 2 19 21
M  V30 21 1 19 22
M  V30 22 2 20 23
M  V30 23 1 20 24
M  V30 24 1 21 25
M  V30 25 2 22 26
M  V30 26 1 23 27
M  V30 27 2 24 28
M  V30 28 2 25 29
M  V30 29 2 27 30
M  V30 30 1 4 8
M  V30 31 1 8 11
M  V30 32 1 26 29
M  V30 33 1 28 30
M  V30 34 1 3 31
M  V30 35 1 4 32
M  V30 36 1 5 33
M  V30 37 1 5 34
M  V30 38 1 5 35
M  V30 39 1 6 36
M  V30 40 1 6 37
M  V30 41 1 6 38
M  V30 42 1 7 39
M  V30 43 1 8 40
M  V30 44 1 10 41
M  V30 45 1 13 42
M  V30 46 1 17 43
M  V30 47 1 21 44
M  V30 48 1 22 45
M  V30 49 1 23 46
M  V30 50 1 24 47
M  V30 51 1 25 48
M  V30 52 1 26 49
M  V30 53 1 27 50
M  V30 54 1 28 51
M  V30 55 1 29 52
M  V30 56 1 30 53
M  V30 END BOND
M  V30 BEGIN COLLECTION
M  V30 MDLV30/STEABS ATOMS=(4 3 4 8 17)
M  V30 END COLLECTION
M  V30 END CTAB
M  END
>  <NO.>
2859

>  <Name>


>  <SMILES>
CC1(C)S[C@@H]2C(NC(=O)[C@@H](Oc3ccccc3)c3ccccc3)C(=O)[C@@H]2[C@H]1C(=O)O

>  <logBB>


>  <Class>
-1

>  <MW>
425.13

>  <nHBAcc>
5

>  <nHBDon>
2

>  <SLogP>
3.09

>  <TopoPSA>
92.7

>  <MMFF94 Energy>
73.73

$$$$
CC1(C)S[C@H]2C(NC(=O)[C@@H](C(=O)O)c3ccccc3)C(=O)N2[C@H]1C(=O)O
Actelion Java MolfileCreator 2.0

  0  0  0  0  0  0              0 V3000
M  V30 BEGIN CTAB
M  V30 COUNTS 44 46 0 0 0
M  V30 BEGIN ATOM
M  V30 1 S 0.4894 -1.7955 -2.449 0
M  V30 2 C -0.6618 -3.266 -2.4966 0
M  V30 3 C 0.0332 -1.4301 -0.7161 0 CFG=2
M  V30 4 C -1.8801 -2.8205 -1.6503 0 CFG=1
M  V30 5 C -0.9657 -3.6165 -3.9564 0
M  V30 6 C 0.0487 -4.4608 -1.837 0
M  V30 7 N -1.3292 -1.9477 -0.6218 0
M  V30 8 C -0.5445 -0.0281 -0.3777 0
M  V30 9 C -2.9203 -2.0914 -2.5111 0
M  V30 10 C -1.8794 -0.8154 -0.1282 0
M  V30 11 N -0.0222 0.6584 0.8389 0
M  V30 12 O -2.8712 -0.9425 -2.9209 0
M  V30 13 O -3.9598 -2.8864 -2.8452 0
M  V30 14 O -3.0016 -0.5718 0.2456 0
M  V30 15 C 1.3294 0.8167 1.0792 0
M  V30 16 O 2.1776 0.3618 0.317 0
M  V30 17 C 1.6572 1.5778 2.3575 0 CFG=2
M  V30 18 C 1.284 3.0515 2.2408 0
M  V30 19 C 3.092 1.3597 2.7873 0
M  V30 20 C 0.4201 3.6379 3.1801 0
M  V30 21 C 1.788 3.8463 1.1985 0
M  V30 22 O 4.0271 2.1416 2.7301 0
M  V30 23 O 3.289 0.1269 3.3115 0
M  V30 24 C 0.0608 4.9824 3.07 0
M  V30 25 C 1.4267 5.19 1.0926 0
M  V30 26 C 0.5619 5.7568 2.0259 0
M  V30 27 H 0.6868 -1.8841 0.036 0
M  V30 28 H -2.3706 -3.6578 -1.1412 0
M  V30 29 H -0.0652 -3.9587 -4.4804 0
M  V30 30 H -1.363 -2.7664 -4.5218 0
M  V30 31 H -1.7011 -4.4272 -4.0131 0
M  V30 32 H -0.6 -5.3446 -1.8512 0
M  V30 33 H 0.3082 -4.2716 -0.7895 0
M  V30 34 H 0.9709 -4.7251 -2.3677 0
M  V30 35 H -0.6203 0.6737 -1.2162 0
M  V30 36 H -0.6852 1.1047 1.4666 0
M  V30 37 H -4.5548 -2.2925 -3.3524 0
M  V30 38 H 1.0363 1.1415 3.154 0
M  V30 39 H 0.0199 3.0583 4.0095 0
M  V30 40 H 2.4759 3.4282 0.4641 0
M  V30 41 H 4.2526 0.1093 3.498 0
M  V30 42 H -0.6074 5.4292 3.8021 0
M  V30 43 H 1.8265 5.7959 0.2831 0
M  V30 44 H 0.2846 6.8046 1.9431 0
M  V30 END ATOM
M  V30 BEGIN BOND
M  V30 1 1 1 2
M  V30 2 1 1 3
M  V30 3 1 2 4
M  V30 4 1 2 5
M  V30 5 1 2 6
M  V30 6 1 3 7
M  V30 7 1 3 8
M  V30 8 1 4 9
M  V30 9 1 7 10
M  V30 10 1 8 11
M  V30 11 2 9 12
M  V30 12 1 9 13
M  V30 13 2 10 14
M  V30 14 1 11 15
M  V30 15 2 15 16
M  V30 16 1 15 17
M  V30 17 1 17 18
M  V30 18 1 17 19
M  V30 19 2 18 20
M  V30 20 1 18 21
M  V30 21 2 19 22
M  V30 22 1 19 23
M  V30 23 1 20 24
M  V30 24 2 21 25
M  V30 25 2 24 26
M  V30 26 1 4 7
M  V30 27 1 8 10
M  V30 28 1 25 26
M  V30 29 1 3 27
M  V30 30 1 4 28
M  V30 31 1 5 29
M  V30 32 1 5 30
M  V30 33 1 5 31
M  V30 34 1 6 32
M  V30 35 1 6 33
M  V30 36 1 6 34
M  V30 37 1 8 35
M  V30 38 1 11 36
M  V30 39 1 13 37
M  V30 40 1 17 38
M  V30 41 1 20 39
M  V30 42 1 21 40
M  V30 43 1 23 41
M  V30 44 1 24 42
M  V30 45 1 25 43
M  V30 46 1 26 44
M  V30 END BOND
M  V30 BEGIN COLLECTION
M  V30 MDLV30/STEABS ATOMS=(3 3 4 17)
M  V30 END COLLECTION
M  V30 END CTAB
M  END
>  <NO.>
2873

>  <Name>


>  <SMILES>
CC1(C)S[C@H]2C(NC(=O)[C@@H](C(=O)O)c3ccccc3)C(=O)N2[C@H]1C(=O)O

>  <logBB>


>  <Class>
-1

>  <MW>
378.09

>  <nHBAcc>
5

>  <nHBDon>
3

>  <SLogP>
0.49

>  <TopoPSA>
124.01

>  <MMFF94 Energy>
57.503

$$$$
CC1(C)S[C@H]2C(NC(=O)[C@@H](C(=O)O)c3ccsc3)C(=O)N2[C@H]1C(=O)O
Actelion Java MolfileCreator 2.0

  0  0  0  0  0  0              0 V3000
M  V30 BEGIN CTAB
M  V30 COUNTS 41 43 0 0 0
M  V30 BEGIN ATOM
M  V30 1 S -3.654 -0.8296 -1.9088 0
M  V30 2 C -2.56 -2.1132 -1.6279 0
M  V30 3 C -3.6296 -0.3767 -0.2638 0
M  V30 4 C -2.157 -2.2003 -0.3057 0
M  V30 5 C -2.7986 -1.1827 0.4807 0
M  V30 6 C -1.1625 -3.2199 0.2238 0 CFG=2
M  V30 7 C -1.803 -4.1858 1.1973 0
M  V30 8 C 0.0631 -2.5415 0.822 0
M  V30 9 O -2.7153 -3.9736 1.9805 0
M  V30 10 O -1.2498 -5.4197 1.1404 0
M  V30 11 O 0.4695 -2.7357 1.9655 0
M  V30 12 N 0.7443 -1.7064 -0.0443 0
M  V30 13 C 1.9678 -0.9789 0.3853 0
M  V30 14 C 2.4825 0.0929 -0.6028 0
M  V30 15 C 1.7996 0.2231 1.3538 0 CFG=1
M  V30 16 O 2.6306 0.1687 -1.7999 0
M  V30 17 N 2.5334 1.0372 0.378 0
M  V30 18 S 0.1388 1.033 1.44 0
M  V30 19 C 2.1108 2.4197 0.223 0 CFG=2
M  V30 20 C 0.5679 2.4123 0.2442 0
M  V30 21 C 2.848 3.1475 -0.9003 0
M  V30 22 C -0.1295 2.0859 -1.0826 0
M  V30 23 C -0.0021 3.7114 0.8275 0
M  V30 24 O 4.017 2.9861 -1.2177 0
M  V30 25 O 2.1414 4.1309 -1.4877 0
M  V30 26 H -2.2619 -2.7406 -2.4577 0
M  V30 27 H -4.2246 0.457 0.0833 0
M  V30 28 H -2.6554 -1.049 1.5484 0
M  V30 29 H -0.8103 -3.8145 -0.6315 0
M  V30 30 H -1.7167 -5.9156 1.847 0
M  V30 31 H 0.3611 -1.5323 -0.9689 0
M  V30 32 H 2.7604 -1.6802 0.6739 0
M  V30 33 H 2.3155 0.132 2.3137 0
M  V30 34 H 2.4662 2.9212 1.1358 0
M  V30 35 H 0.0505 2.8597 -1.8344 0
M  V30 36 H 0.191 1.1339 -1.5129 0
M  V30 37 H -1.2177 2.0301 -0.9537 0
M  V30 38 H 0.2038 4.5634 0.1715 0
M  V30 39 H 0.4306 3.9441 1.8075 0
M  V30 40 H -1.0907 3.6569 0.9481 0
M  V30 41 H 2.766 4.4926 -2.1539 0
M  V30 END ATOM
M  V30 BEGIN BOND
M  V30 1 1 1 2
M  V30 2 1 1 3
M  V30 3 2 2 4
M  V30 4 2 3 5
M  V30 5 1 4 6
M  V30 6 1 6 7
M  V30 7 1 6 8
M  V30 8 2 7 9
M  V30 9 1 7 10
M  V30 10 2 8 11
M  V30 11 1 8 12
M  V30 12 1 12 13
M  V30 13 1 13 14
M  V30 14 1 13 15
M  V30 15 2 14 16
M  V30 16 1 14 17
M  V30 17 1 15 18
M  V30 18 1 17 19
M  V30 19 1 18 20
M  V30 20 1 19 21
M  V30 21 1 20 22
M  V30 22 1 20 23
M  V30 23 2 21 24
M  V30 24 1 21 25
M  V30 25 1 4 5
M  V30 26 1 15 17
M  V30 27 1 19 20
M  V30 28 1 2 26
M  V30 29 1 3 27
M  V30 30 1 5 28
M  V30 31 1 6 29
M  V30 32 1 10 30
M  V30 33 1 12 31
M  V30 34 1 13 32
M  V30 35 1 15 33
M  V30 36 1 19 34
M  V30 37 1 22 35
M  V30 38 1 22 36
M  V30 39 1 22 37
M  V30 40 1 23 38
M  V30 41 1 23 39
M  V30 42 1 23 40
M  V30 43 1 25 41
M  V30 END BOND
M  V30 BEGIN COLLECTION
M  V30 MDLV30/STEABS ATOMS=(3 6 15 19)
M  V30 END COLLECTION
M  V30 END CTAB
M  END
>  <NO.>
2874

>  <Name>


>  <SMILES>
CC1(C)S[C@H]2C(NC(=O)[C@@H](C(=O)O)c3ccsc3)C(=O)N2[C@H]1C(=O)O

>  <logBB>


>  <Class>
-1

>  <MW>
384.04

>  <nHBAcc>
6

>  <nHBDon>
3

>  <SLogP>
0.55

>  <TopoPSA>
124.01

>  <MMFF94 Energy>
42.307

$$$$
CC1(C)S[C@H]2C(NC(=O)[C@@H](NC(=O)C/N=C(\N)c3ccncc3)c3ccccc3)C(=O)N2[C@H]1C(=O)O
Actelion Java MolfileCreator 2.0

  0  0  0  0  0  0              0 V3000
M  V30 BEGIN CTAB
M  V30 COUNTS 62 65 0 0 0
M  V30 BEGIN ATOM
M  V30 1 S -1.0504 0.8079 2.2635 0
M  V30 2 C -0.0563 1.9539 3.3647 0
M  V30 3 C -0.1612 1.393 0.7793 0 CFG=2
M  V30 4 C 0.1471 3.2282 2.5075 0 CFG=1
M  V30 5 C -0.812 2.1594 4.6809 0
M  V30 6 C 1.2957 1.287 3.6677 0
M  V30 7 N 0.238 2.7473 1.137 0
M  V30 8 C -0.9694 2.0155 -0.3947 0
M  V30 9 C -1.0228 4.2056 2.6772 0
M  V30 10 C -0.2355 3.3406 0.018 0
M  V30 11 N -0.6137 1.4909 -1.7416 0
M  V30 12 O -2.133 4.127 2.175 0
M  V30 13 O -0.73 5.2184 3.5208 0
M  V30 14 O -0.165 4.4815 -0.3693 0
M  V30 15 C -0.938 0.2009 -2.0997 0
M  V30 16 O -1.6522 -0.5094 -1.3864 0
M  V30 17 C -0.2532 -0.3254 -3.3852 0 CFG=1
M  V30 18 N 0.3151 -1.61 -3.0104 0
M  V30 19 C -1.1905 -0.4734 -4.5654 0
M  V30 20 C 1.4346 -1.6548 -2.2042 0
M  V30 21 C -0.7392 -0.1195 -5.8483 0
M  V30 22 C -2.4851 -1.002 -4.4362 0
M  V30 23 O 2.0864 -0.6453 -1.9459 0
M  V30 24 C 1.7181 -3.0386 -1.6246 0
M  V30 25 C -1.5667 -0.2655 -6.9633 0
M  V30 26 C -3.3114 -1.1462 -5.5528 0
M  V30 27 N 2.0304 -2.9569 -0.1981 0
M  V30 28 C -2.8534 -0.7759 -6.8146 0
M  V30 29 C 1.1394 -2.6115 0.6642 0
M  V30 30 N -0.1576 -2.2697 0.4018 0
M  V30 31 C 1.5885 -2.5676 2.0967 0
M  V30 32 C 2.9266 -2.3036 2.3881 0
M  V30 33 C 0.6892 -2.7936 3.1382 0
M  V30 34 C 3.3062 -2.259 3.7163 0
M  V30 35 C 1.1702 -2.7296 4.4339 0
M  V30 36 N 2.4555 -2.4575 4.747 0
M  V30 37 H 0.6994 0.7781 0.4949 0
M  V30 38 H 1.0812 3.7527 2.7369 0
M  V30 39 H -0.291 2.8856 5.3153 0
M  V30 40 H -0.8838 1.2247 5.25 0
M  V30 41 H -1.8344 2.5225 4.5295 0
M  V30 42 H 1.9125 1.9429 4.2932 0
M  V30 43 H 1.1647 0.348 4.2155 0
M  V30 44 H 1.8731 1.071 2.7623 0
M  V30 45 H -2.0554 2.0771 -0.2593 0
M  V30 46 H -0.0232 2.0443 -2.3547 0
M  V30 47 H -1.5352 5.7796 3.5046 0
M  V30 48 H 0.5663 0.3562 -3.6446 0
M  V30 49 H -0.212 -2.4487 -3.2145 0
M  V30 50 H 0.267 0.2707 -5.9917 0
M  V30 51 H -2.8715 -1.3081 -3.4653 0
M  V30 52 H 2.5857 -3.4428 -2.1564 0
M  V30 53 H 0.8828 -3.7262 -1.7966 0
M  V30 54 H -1.2055 0.0165 -7.9492 0
M  V30 55 H -4.3147 -1.5492 -5.4364 0
M  V30 56 H -3.4982 -0.889 -7.6824 0
M  V30 57 H -0.7402 -1.8301 1.1065 0
M  V30 58 H -0.5234 -2.1579 -0.5361 0
M  V30 59 H 3.652 -2.1325 1.6 0
M  V30 60 H -0.351 -3.0351 2.9594 0
M  V30 61 H 4.3357 -2.0555 3.9963 0
M  V30 62 H 0.5146 -2.9022 5.2829 0
M  V30 END ATOM
M  V30 BEGIN BOND
M  V30 1 1 1 2
M  V30 2 1 1 3
M  V30 3 1 2 4
M  V30 4 1 2 5
M  V30 5 1 2 6
M  V30 6 1 3 7
M  V30 7 1 3 8
M  V30 8 1 4 9
M  V30 9 1 7 10
M  V30 10 1 8 11
M  V30 11 2 9 12
M  V30 12 1 9 13
M  V30 13 2 10 14
M  V30 14 1 11 15
M  V30 15 2 15 16
M  V30 16 1 15 17
M  V30 17 1 17 18
M  V30 18 1 17 19
M  V30 19 1 18 20
M  V30 20 2 19 21
M  V30 21 1 19 22
M  V30 22 2 20 23
M  V30 23 1 20 24
M  V30 24 1 21 25
M  V30 25 2 22 26
M  V30 26 1 24 27
M  V30 27 2 25 28
M  V30 28 2 27 29
M  V30 29 1 29 30
M  V30 30 1 29 31
M  V30 31 2 31 32
M  V30 32 1 31 33
M  V30 33 1 32 34
M  V30 34 2 33 35
M  V30 35 2 34 36
M  V30 36 1 4 7
M  V30 37 1 8 10
M  V30 38 1 26 28
M  V30 39 1 35 36
M  V30 40 1 3 37
M  V30 41 1 4 38
M  V30 42 1 5 39
M  V30 43 1 5 40
M  V30 44 1 5 41
M  V30 45 1 6 42
M  V30 46 1 6 43
M  V30 47 1 6 44
M  V30 48 1 8 45
M  V30 49 1 11 46
M  V30 50 1 13 47
M  V30 51 1 17 48
M  V30 52 1 18 49
M  V30 53 1 21 50
M  V30 54 1 22 51
M  V30 55 1 24 52
M  V30 56 1 24 53
M  V30 57 1 25 54
M  V30 58 1 26 55
M  V30 59 1 28 56
M  V30 60 1 30 57
M  V30 61 1 30 58
M  V30 62 1 32 59
M  V30 63 1 33 60
M  V30 64 1 34 61
M  V30 65 1 35 62
M  V30 END BOND
M  V30 BEGIN COLLECTION
M  V30 MDLV30/STEABS ATOMS=(3 3 4 17)
M  V30 END COLLECTION
M  V30 END CTAB
M  END
>  <NO.>
2882

>  <Name>


>  <SMILES>
CC1(C)S[C@H]2C(NC(=O)[C@@H](NC(=O)C/N=C(\N)c3ccncc3)c3ccccc3)C(=O)N2[C@H]1C(=O)O

>  <logBB>


>  <Class>
-1

>  <MW>
510.17

>  <nHBAcc>
7

>  <nHBDon>
4

>  <SLogP>
0.28

>  <TopoPSA>
167.08

>  <MMFF94 Energy>
79.523

$$$$
CC12C=CC(=O)C=C1CC[C@H]1[C@@H]3C[C@H](O)C(O)(C(=O)CO)C3(C)C[C@H](O)C12F
Actelion Java MolfileCreator 2.0

  0  0  0  0  0  0              0 V3000
M  V30 BEGIN CTAB
M  V30 COUNTS 55 58 0 0 0
M  V30 BEGIN ATOM
M  V30 1 F -1.7831 -0.162 1.3776 0
M  V30 2 C -0.6794 -0.9177 1.0069 0
M  V30 3 C -0.9874 -2.4027 1.4638 0
M  V30 4 C 0.526 -0.2283 1.72 0 CFG=1
M  V30 5 C -0.5897 -0.7916 -0.5514 0 CFG=2
M  V30 6 C -2.2383 -2.8773 0.7 0
M  V30 7 C -1.216 -2.4718 2.9739 0
M  V30 8 C 0.1541 -3.401 1.1623 0
M  V30 9 O 1.7223 -0.994 1.6337 0
M  V30 10 C 0.7881 1.2066 1.2058 0
M  V30 11 C -0.3743 0.6843 -0.9263 0 CFG=1
M  V30 12 C -1.8632 -1.3381 -1.2241 0
M  V30 13 C -3.3583 -3.3173 1.3012 0
M  V30 14 C -2.172 -2.7705 -0.8016 0
M  V30 15 C -2.3342 -2.9099 3.5674 0
M  V30 16 C 0.9179 1.2929 -0.3316 0
M  V30 17 C -0.2972 1.0564 -2.4039 0
M  V30 18 C -3.4837 -3.3781 2.7714 0
M  V30 19 C 0.8478 2.7269 -0.9609 0
M  V30 20 C 2.2091 0.5694 -0.8055 0
M  V30 21 C 0.3606 2.456 -2.42 0 CFG=1
M  V30 22 O -4.5001 -3.8008 3.3077 0
M  V30 23 O -0.1836 3.501 -0.3138 0
M  V30 24 C 2.1256 3.569 -0.8169 0
M  V30 25 O 1.4153 2.4436 -3.3743 0
M  V30 26 O 2.8553 3.4627 0.1785 0
M  V30 27 C 2.413 4.6505 -1.8515 0
M  V30 28 O 3.2219 5.6815 -1.2914 0
M  V30 29 H 0.2914 -0.1338 2.7866 0
M  V30 30 H 0.2516 -1.3859 -0.9206 0
M  V30 31 H -0.3926 -2.1651 3.6153 0
M  V30 32 H 0.9989 -3.2887 1.8503 0
M  V30 33 H -0.1894 -4.4382 1.272 0
M  V30 34 H 0.5449 -3.301 0.1456 0
M  V30 35 H 2.4235 -0.505 2.102 0
M  V30 36 H -0.0462 1.8294 1.5495 0
M  V30 37 H 1.6942 1.6065 1.6755 0
M  V30 38 H -1.2398 1.2336 -0.5215 0
M  V30 39 H -2.7193 -0.6949 -0.9809 0
M  V30 40 H -1.7516 -1.3132 -2.3144 0
M  V30 41 H -4.2364 -3.6345 0.7503 0
M  V30 42 H -3.1164 -3.0804 -1.2655 0
M  V30 43 H -1.4044 -3.4507 -1.188 0
M  V30 44 H -2.4453 -2.9523 4.6439 0
M  V30 45 H -1.2959 1.0973 -2.8521 0
M  V30 46 H 0.2874 0.3247 -2.9733 0
M  V30 47 H 3.0813 0.9202 -0.2432 0
M  V30 48 H 2.4274 0.7359 -1.8633 0
M  V30 49 H 2.1667 -0.5135 -0.6777 0
M  V30 50 H -0.3687 3.2123 -2.7329 0
M  V30 51 H 0.1352 3.728 0.5803 0
M  V30 52 H 1.0205 2.2366 -4.2418 0
M  V30 53 H 2.9576 4.2204 -2.6938 0
M  V30 54 H 1.4803 5.1075 -2.19 0
M  V30 55 H 3.8308 5.237 -0.6686 0
M  V30 END ATOM
M  V30 BEGIN BOND
M  V30 1 1 1 2
M  V30 2 1 2 3
M  V30 3 1 2 4
M  V30 4 1 2 5
M  V30 5 1 3 6
M  V30 6 1 3 7
M  V30 7 1 3 8
M  V30 8 1 4 9
M  V30 9 1 4 10
M  V30 10 1 5 11
M  V30 11 1 5 12
M  V30 12 2 6 13
M  V30 13 1 6 14
M  V30 14 2 7 15
M  V30 15 1 10 16
M  V30 16 1 11 17
M  V30 17 1 13 18
M  V30 18 1 16 19
M  V30 19 1 16 20
M  V30 20 1 17 21
M  V30 21 2 18 22
M  V30 22 1 19 23
M  V30 23 1 19 24
M  V30 24 1 21 25
M  V30 25 2 24 26
M  V30 26 1 24 27
M  V30 27 1 27 28
M  V30 28 1 11 16
M  V30 29 1 12 14
M  V30 30 1 15 18
M  V30 31 1 19 21
M  V30 32 1 4 29
M  V30 33 1 5 30
M  V30 34 1 7 31
M  V30 35 1 8 32
M  V30 36 1 8 33
M  V30 37 1 8 34
M  V30 38 1 9 35
M  V30 39 1 10 36
M  V30 40 1 10 37
M  V30 41 1 11 38
M  V30 42 1 12 39
M  V30 43 1 12 40
M  V30 44 1 13 41
M  V30 45 1 14 42
M  V30 46 1 14 43
M  V30 47 1 15 44
M  V30 48 1 17 45
M  V30 49 1 17 46
M  V30 50 1 20 47
M  V30 51 1 20 48
M  V30 52 1 20 49
M  V30 53 1 21 50
M  V30 54 1 23 51
M  V30 55 1 25 52
M  V30 56 1 27 53
M  V30 57 1 27 54
M  V30 58 1 28 55
M  V30 END BOND
M  V30 BEGIN COLLECTION
M  V30 MDLV30/STEABS ATOMS=(4 4 5 11 21)
M  V30 END COLLECTION
M  V30 END CTAB
M  END
>  <NO.>
2901

>  <Name>


>  <SMILES>
CC12C=CC(=O)C=C1CC[C@H]1[C@@H]3C[C@H](O)C(O)(C(=O)CO)C3(C)C[C@H](O)C12F

>  <logBB>


>  <Class>
1

>  <MW>
394.18

>  <nHBAcc>
6

>  <nHBDon>
4

>  <SLogP>
0.62

>  <TopoPSA>
115.06

>  <MMFF94 Energy>
186.93

$$$$
CC12C=CC(=O)C=C1[C@@H](Cl)C[C@@H]1[C@@H]2C(=O)CC2(C)[C@H]1CCC2(O)C(=O)CO
Actelion Java MolfileCreator 2.0

  0  0  0  0  0  0              0 V3000
M  V30 BEGIN CTAB
M  V30 COUNTS 52 55 0 0 0
M  V30 BEGIN ATOM
M  V30 1 Cl 0.4086 2.372 4.5022 0
M  V30 2 C -0.1225 1.1815 3.2793 0 CFG=2
M  V30 3 C 0.2391 -0.2626 3.5864 0
M  V30 4 C 0.4711 1.5819 1.9291 0
M  V30 5 C 0.9622 -0.6315 4.6642 0
M  V30 6 C -0.2493 -1.2852 2.5264 0
M  V30 7 C -0.0285 0.6616 0.8041 0 CFG=2
M  V30 8 C 1.3641 -2.0276 4.9263 0
M  V30 9 C 0.2385 -2.6918 2.8655 0
M  V30 10 C 0.2804 -0.832 1.118 0 CFG=2
M  V30 11 C -1.7942 -1.3553 2.5569 0
M  V30 12 C 0.5856 1.0546 -0.5601 0 CFG=1
M  V30 13 O 2.0134 -2.3295 5.9188 0
M  V30 14 C 0.9601 -3.0361 3.9385 0
M  V30 15 C -0.2164 -1.7002 -0.0508 0
M  V30 16 C 0.1142 0.1348 -1.7416 0
M  V30 17 C 0.2603 2.498 -0.9858 0
M  V30 18 O -0.1352 -2.9278 -0.0481 0
M  V30 19 C -0.8113 -0.9935 -1.2488 0
M  V30 20 C -0.6084 1.117 -2.7184 0
M  V30 21 C 1.3711 -0.4968 -2.3878 0
M  V30 22 C 0.1145 2.4425 -2.5008 0
M  V30 23 O -1.9664 1.3213 -2.2806 0
M  V30 24 C -0.7045 0.6425 -4.1764 0
M  V30 25 O -1.614 -0.1288 -4.5113 0
M  V30 26 C 0.2947 1.156 -5.2032 0
M  V30 27 O 0.2078 0.4325 -6.4218 0
M  V30 28 H -1.2116 1.2839 3.2512 0
M  V30 29 H 0.1934 2.6197 1.7076 0
M  V30 30 H 1.5687 1.551 1.9702 0
M  V30 31 H 1.3233 0.0615 5.4158 0
M  V30 32 H -1.1162 0.7984 0.7338 0
M  V30 33 H -0.0498 -3.5018 2.1971 0
M  V30 34 H 1.3758 -0.9454 1.11 0
M  V30 35 H -2.1605 -1.5834 3.5661 0
M  V30 36 H -2.1775 -2.138 1.8913 0
M  V30 37 H -2.2672 -0.4186 2.2477 0
M  V30 38 H 1.6789 0.9872 -0.4633 0
M  V30 39 H 1.2637 -4.0576 4.1331 0
M  V30 40 H 1.0457 3.1986 -0.684 0
M  V30 41 H -0.6788 2.8419 -0.5356 0
M  V30 42 H -0.9823 -1.7259 -2.0466 0
M  V30 43 H -1.7974 -0.6356 -0.9343 0
M  V30 44 H 1.1063 -1.1474 -3.2281 0
M  V30 45 H 2.0657 0.2658 -2.7544 0
M  V30 46 H 1.9244 -1.1098 -1.6672 0
M  V30 47 H -0.4581 3.3015 -2.8666 0
M  V30 48 H 1.1035 2.4644 -2.9698 0
M  V30 49 H -2.516 0.6559 -2.7473 0
M  V30 50 H 0.0819 2.2081 -5.4102 0
M  V30 51 H 1.314 1.0497 -4.83 0
M  V30 52 H -0.7123 0.1065 -6.4904 0
M  V30 END ATOM
M  V30 BEGIN BOND
M  V30 1 1 1 2
M  V30 2 1 2 3
M  V30 3 1 2 4
M  V30 4 2 3 5
M  V30 5 1 3 6
M  V30 6 1 4 7
M  V30 7 1 5 8
M  V30 8 1 6 9
M  V30 9 1 6 10
M  V30 10 1 6 11
M  V30 11 1 7 12
M  V30 12 2 8 13
M  V30 13 1 8 14
M  V30 14 1 10 15
M  V30 15 1 12 16
M  V30 16 1 12 17
M  V30 17 2 15 18
M  V30 18 1 15 19
M  V30 19 1 16 20
M  V30 20 1 16 21
M  V30 21 1 17 22
M  V30 22 1 20 23
M  V30 23 1 20 24
M  V30 24 2 24 25
M  V30 25 1 24 26
M  V30 26 1 26 27
M  V30 27 1 7 10
M  V30 28 2 9 14
M  V30 29 1 16 19
M  V30 30 1 20 22
M  V30 31 1 2 28
M  V30 32 1 4 29
M  V30 33 1 4 30
M  V30 34 1 5 31
M  V30 35 1 7 32
M  V30 36 1 9 33
M  V30 37 1 10 34
M  V30 38 1 11 35
M  V30 39 1 11 36
M  V30 40 1 11 37
M  V30 41 1 12 38
M  V30 42 1 14 39
M  V30 43 1 17 40
M  V30 44 1 17 41
M  V30 45 1 19 42
M  V30 46 1 19 43
M  V30 47 1 21 44
M  V30 48 1 21 45
M  V30 49 1 21 46
M  V30 50 1 22 47
M  V30 51 1 22 48
M  V30 52 1 23 49
M  V30 53 1 26 50
M  V30 54 1 26 51
M  V30 55 1 27 52
M  V30 END BOND
M  V30 BEGIN COLLECTION
M  V30 MDLV30/STEABS ATOMS=(4 2 7 10 12)
M  V30 END COLLECTION
M  V30 END CTAB
M  END
>  <NO.>
2903

>  <Name>


>  <SMILES>
CC12C=CC(=O)C=C1[C@@H](Cl)C[C@@H]1[C@@H]2C(=O)CC2(C)[C@H]1CCC2(O)C(=O)CO

>  <logBB>


>  <Class>
1

>  <MW>
392.14

>  <nHBAcc>
5

>  <nHBDon>
2

>  <SLogP>
1.98

>  <TopoPSA>
91.67

>  <MMFF94 Energy>
120.14

$$$$
CC12C=CC(=O)[C@@H]1C(=O)CC[C@@H]1[C@@H]2[C@@H](O)CC2(C)[C@H]1CCC2(O)C(=O)CO
Actelion Java MolfileCreator 2.0

  0  0  0  0  0  0              0 V3000
M  V30 BEGIN CTAB
M  V30 COUNTS 55 58 0 0 0
M  V30 BEGIN ATOM
M  V30 1 O 5.2617 -0.0807 -1.0506 0
M  V30 2 C 4.0792 -0.4037 -0.9426 0
M  V30 3 C 3.5572 -1.2179 0.2019 0 CFG=1
M  V30 4 C 3.0745 0.0899 -1.9629 0
M  V30 5 C 4.5499 -1.8435 1.1333 0
M  V30 6 C 2.6376 -0.3956 1.1467 0
M  V30 7 C 1.671 -0.5083 -1.8768 0
M  V30 8 O 5.5678 -2.4432 0.8284 0
M  V30 9 C 4.0669 -1.7873 2.5183 0
M  V30 10 C 2.9712 -1.0233 2.4955 0
M  V30 11 C 1.1379 -0.5963 0.7073 0 CFG=2
M  V30 12 C 3.0643 1.0868 1.263 0
M  V30 13 C 0.7847 0.0105 -0.7124 0 CFG=2
M  V30 14 C 0.1024 -0.178 1.8023 0 CFG=1
M  V30 15 C -0.6961 -0.3362 -1.0113 0 CFG=1
M  V30 16 O 0.2971 1.1713 2.1959 0
M  V30 17 C -1.3644 -0.3843 1.384 0
M  V30 18 C -1.6978 0.2399 0.0166 0
M  V30 19 C -1.3073 0.0755 -2.3531 0
M  V30 20 C -3.0419 -0.2254 -0.6242 0
M  V30 21 C -1.6638 1.7894 0.0963 0
M  V30 22 C -2.8344 0.0228 -2.1326 0
M  V30 23 O -3.1934 -1.65 -0.4638 0
M  V30 24 C -4.2937 0.3894 0.0226 0
M  V30 25 O -4.724 -0.0724 1.0897 0
M  V30 26 C -5.0193 1.536 -0.6652 0
M  V30 27 O -5.9983 2.1157 0.1861 0
M  V30 28 H 3.034 -2.087 -0.2187 0
M  V30 29 H 3.4902 -0.1601 -2.9469 0
M  V30 30 H 3.0224 1.1817 -1.8941 0
M  V30 31 H 1.7074 -1.6037 -1.8661 0
M  V30 32 H 1.1942 -0.2405 -2.8265 0
M  V30 33 H 4.5435 -2.2809 3.3464 0
M  V30 34 H 2.4276 -0.7784 3.4011 0
M  V30 35 H 0.9922 -1.684 0.605 0
M  V30 36 H 4.154 1.1827 1.351 0
M  V30 37 H 2.6515 1.5676 2.1559 0
M  V30 38 H 2.7566 1.6836 0.4015 0
M  V30 39 H 0.8927 1.099 -0.6798 0
M  V30 40 H 0.266 -0.7901 2.6963 0
M  V30 41 H -0.7547 -1.4366 -0.9827 0
M  V30 42 H -0.303 1.3568 2.9401 0
M  V30 43 H -2.0325 0.0313 2.1483 0
M  V30 44 H -1.5455 -1.4655 1.3614 0
M  V30 45 H -0.9981 1.0872 -2.6389 0
M  V30 46 H -1.0153 -0.6017 -3.1622 0
M  V30 47 H -0.669 2.1911 0.2947 0
M  V30 48 H -1.9929 2.2645 -0.8326 0
M  V30 49 H -2.3214 2.1495 0.8956 0
M  V30 50 H -3.2707 -0.7837 -2.7333 0
M  V30 51 H -3.2682 0.9616 -2.4872 0
M  V30 52 H -3.5892 -1.7915 0.421 0
M  V30 53 H -4.3165 2.324 -0.9386 0
M  V30 54 H -5.5221 1.1546 -1.5575 0
M  V30 55 H -6.296 1.4068 0.7913 0
M  V30 END ATOM
M  V30 BEGIN BOND
M  V30 1 2 1 2
M  V30 2 1 2 3
M  V30 3 1 2 4
M  V30 4 1 3 5
M  V30 5 1 3 6
M  V30 6 1 4 7
M  V30 7 2 5 8
M  V30 8 1 5 9
M  V30 9 1 6 10
M  V30 10 1 6 11
M  V30 11 1 6 12
M  V30 12 1 7 13
M  V30 13 1 11 14
M  V30 14 1 13 15
M  V30 15 1 14 16
M  V30 16 1 14 17
M  V30 17 1 15 18
M  V30 18 1 15 19
M  V30 19 1 18 20
M  V30 20 1 18 21
M  V30 21 1 19 22
M  V30 22 1 20 23
M  V30 23 1 20 24
M  V30 24 2 24 25
M  V30 25 1 24 26
M  V30 26 1 26 27
M  V30 27 2 9 10
M  V30 28 1 11 13
M  V30 29 1 17 18
M  V30 30 1 20 22
M  V30 31 1 3 28
M  V30 32 1 4 29
M  V30 33 1 4 30
M  V30 34 1 7 31
M  V30 35 1 7 32
M  V30 36 1 9 33
M  V30 37 1 10 34
M  V30 38 1 11 35
M  V30 39 1 12 36
M  V30 40 1 12 37
M  V30 41 1 12 38
M  V30 42 1 13 39
M  V30 43 1 14 40
M  V30 44 1 15 41
M  V30 45 1 16 42
M  V30 46 1 17 43
M  V30 47 1 17 44
M  V30 48 1 19 45
M  V30 49 1 19 46
M  V30 50 1 21 47
M  V30 51 1 21 48
M  V30 52 1 21 49
M  V30 53 1 22 50
M  V30 54 1 22 51
M  V30 55 1 23 52
M  V30 56 1 26 53
M  V30 57 1 26 54
M  V30 58 1 27 55
M  V30 END BOND
M  V30 BEGIN COLLECTION
M  V30 MDLV30/STEABS ATOMS=(5 3 11 13 14 15)
M  V30 END COLLECTION
M  V30 END CTAB
M  END
>  <NO.>
2906

>  <Name>


>  <SMILES>
CC12C=CC(=O)[C@@H]1C(=O)CC[C@@H]1[C@@H]2[C@@H](O)CC2(C)[C@H]1CCC2(O)C(=O)CO

>  <logBB>


>  <Class>
1

>  <MW>
376.19

>  <nHBAcc>
6

>  <nHBDon>
3

>  <SLogP>
0.82

>  <TopoPSA>
111.9

>  <MMFF94 Energy>
125.87

$$$$
CC12CC(N)[C@@H]1CN(c1nc3c(cc1F)c(=O)c(C(=O)O)cn3C1CC1)C2
Actelion Java MolfileCreator 2.0

  0  0  0  0  0  0              0 V3000
M  V30 BEGIN CTAB
M  V30 COUNTS 48 52 0 0 0
M  V30 BEGIN ATOM
M  V30 1 F -1.6966 2.9099 0.8884 0
M  V30 2 C -1.4856 1.8918 0.0397 0
M  V30 3 C -0.4831 0.9397 0.2683 0
M  V30 4 C -2.2962 1.8098 -1.0836 0
M  V30 5 N -0.3038 -0.0734 -0.6179 0
M  V30 6 N 0.345 0.9625 1.3639 0
M  V30 7 C -2.0951 0.7633 -1.9769 0
M  V30 8 C -1.0851 -0.1656 -1.725 0
M  V30 9 C 1.4491 0.0242 1.4716 0
M  V30 10 C 0.4314 2.0481 2.3234 0
M  V30 11 C -2.9383 0.6386 -3.1878 0
M  V30 12 N -0.8822 -1.2241 -2.6537 0
M  V30 13 C 2.0564 0.2703 2.8548 0
M  V30 14 C 1.5127 1.6522 3.3357 0 CFG=2
M  V30 15 O -3.7341 1.531 -3.4584 0
M  V30 16 C -2.7524 -0.5624 -4.038 0
M  V30 17 C -1.7443 -1.3882 -3.7177 0
M  V30 18 C 0.1532 -2.2366 -2.3923 0
M  V30 19 C 1.2695 -0.3875 4.031 0
M  V30 20 C 3.5624 0.0648 2.9022 0
M  V30 21 C 1.2432 0.989 4.7138 0
M  V30 22 C -3.5797 -0.9147 -5.1976 0
M  V30 23 C 1.0848 -2.7401 -3.4674 0
M  V30 24 C 1.6178 -1.8774 -2.3664 0
M  V30 25 N -0.0959 1.2667 5.2122 0
M  V30 26 O -3.2297 -1.6159 -6.1328 0
M  V30 27 O -4.8321 -0.4435 -5.1218 0
M  V30 28 H -3.0684 2.5548 -1.2477 0
M  V30 29 H 1.1234 -1.018 1.3727 0
M  V30 30 H 2.1816 0.235 0.6826 0
M  V30 31 H 0.7349 2.9695 1.8116 0
M  V30 32 H -0.5287 2.2325 2.8129 0
M  V30 33 H 2.2738 2.4412 3.4011 0
M  V30 34 H -1.5496 -2.2838 -4.3044 0
M  V30 35 H -0.176 -2.9604 -1.6496 0
M  V30 36 H 1.8082 -1.1629 4.5857 0
M  V30 37 H 0.2943 -0.8001 3.7424 0
M  V30 38 H 3.8205 -0.9709 2.6584 0
M  V30 39 H 4.0706 0.7184 2.1853 0
M  V30 40 H 3.9691 0.2855 3.8949 0
M  V30 41 H 2.042 1.143 5.4471 0
M  V30 42 H 1.0305 -2.3041 -4.4578 0
M  V30 43 H 1.3422 -3.7926 -3.4586 0
M  V30 44 H 2.2297 -2.3363 -1.5994 0
M  V30 45 H 1.8963 -0.8572 -2.6034 0
M  V30 46 H -0.2721 2.243 5.4426 0
M  V30 47 H -0.8634 0.9593 4.6151 0
M  V30 48 H -5.2653 -0.733 -5.9501 0
M  V30 END ATOM
M  V30 BEGIN BOND
M  V30 1 1 1 2
M  V30 2 2 2 3
M  V30 3 1 2 4
M  V30 4 1 3 5
M  V30 5 1 3 6
M  V30 6 2 4 7
M  V30 7 2 5 8
M  V30 8 1 6 9
M  V30 9 1 6 10
M  V30 10 1 7 11
M  V30 11 1 8 12
M  V30 12 1 9 13
M  V30 13 1 10 14
M  V30 14 2 11 15
M  V30 15 1 11 16
M  V30 16 1 12 17
M  V30 17 1 12 18
M  V30 18 1 13 19
M  V30 19 1 13 20
M  V30 20 1 14 21
M  V30 21 1 16 22
M  V30 22 1 18 23
M  V30 23 1 18 24
M  V30 24 1 21 25
M  V30 25 2 22 26
M  V30 26 1 22 27
M  V30 27 1 7 8
M  V30 28 1 13 14
M  V30 29 2 16 17
M  V30 30 1 19 21
M  V30 31 1 23 24
M  V30 32 1 4 28
M  V30 33 1 9 29
M  V30 34 1 9 30
M  V30 35 1 10 31
M  V30 36 1 10 32
M  V30 37 1 14 33
M  V30 38 1 17 34
M  V30 39 1 18 35
M  V30 40 1 19 36
M  V30 41 1 19 37
M  V30 42 1 20 38
M  V30 43 1 20 39
M  V30 44 1 20 40
M  V30 45 1 21 41
M  V30 46 1 23 42
M  V30 47 1 23 43
M  V30 48 1 24 44
M  V30 49 1 24 45
M  V30 50 1 25 46
M  V30 51 1 25 47
M  V30 52 1 27 48
M  V30 END BOND
M  V30 BEGIN COLLECTION
M  V30 MDLV30/STEABS ATOMS=(1 14)
M  V30 END COLLECTION
M  V30 END CTAB
M  END
>  <NO.>
2908

>  <Name>


>  <SMILES>
CC12CC(N)[C@@H]1CN(c1nc3c(cc1F)c(=O)c(C(=O)O)cn3C1CC1)C2

>  <logBB>


>  <Class>
-1

>  <MW>
372.16

>  <nHBAcc>
5

>  <nHBDon>
2

>  <SLogP>
1.74

>  <TopoPSA>
101.45

>  <MMFF94 Energy>
32.409

$$$$
CC12CCC(=O)C=C1CC[C@@H]1[C@@H]2C(=O)CC2(C)[C@H]1CCC2(O)C(=O)CO
Actelion Java MolfileCreator 2.0

  0  0  0  0  0  0              0 V3000
M  V30 BEGIN CTAB
M  V30 COUNTS 54 57 0 0 0
M  V30 BEGIN ATOM
M  V30 1 O -4.3693 2.021 4.2072 0
M  V30 2 C -3.841 1.4536 3.2547 0
M  V30 3 C -3.1755 2.2596 2.2063 0
M  V30 4 C -3.911 -0.036 3.059 0
M  V30 5 C -2.5409 1.6893 1.1662 0
M  V30 6 C -2.6529 -0.5371 2.3638 0
M  V30 7 C -2.3564 0.1681 1.0049 0
M  V30 8 C -1.9964 2.5662 0.0631 0
M  V30 9 C -0.8657 -0.1249 0.5973 0 CFG=1
M  V30 10 C -3.3645 -0.3138 -0.0626 0
M  V30 11 C -0.5439 2.2398 -0.2567 0
M  V30 12 C -0.5246 -1.6111 0.3441 0
M  V30 13 C -0.3733 0.753 -0.594 0 CFG=1
M  V30 14 O -1.3201 -2.5297 0.5264 0
M  V30 15 C 0.9123 -1.9253 -0.0617 0
M  V30 16 C 1.0943 0.4157 -0.8964 0 CFG=1
M  V30 17 C 1.3046 -1.0673 -1.268 0
M  V30 18 C 1.7997 1.1721 -2.018 0
M  V30 19 C 2.809 -1.0652 -1.67 0
M  V30 20 C 0.4361 -1.5241 -2.4806 0
M  V30 21 C 2.9901 0.2776 -2.4124 0
M  V30 22 O 3.0754 -2.1173 -2.6096 0
M  V30 23 C 3.8147 -1.2907 -0.5135 0
M  V30 24 O 4.3172 -2.4129 -0.3473 0
M  V30 25 C 4.1363 -0.1733 0.4708 0
M  V30 26 O 5.3217 -0.4606 1.2012 0
M  V30 27 H -3.2901 3.3334 2.3113 0
M  V30 28 H -3.9915 -0.5119 4.0427 0
M  V30 29 H -4.814 -0.2755 2.4889 0
M  V30 30 H -2.7503 -1.6198 2.2337 0
M  V30 31 H -1.8049 -0.3833 3.0461 0
M  V30 32 H -2.0678 3.6286 0.3271 0
M  V30 33 H -2.6105 2.4313 -0.8356 0
M  V30 34 H -0.2435 0.1433 1.4669 0
M  V30 35 H -3.4058 -1.405 -0.1259 0
M  V30 36 H -3.1218 0.0607 -1.0618 0
M  V30 37 H -4.3818 0.0273 0.1638 0
M  V30 38 H 0.0927 2.5098 0.5958 0
M  V30 39 H -0.223 2.8597 -1.1018 0
M  V30 40 H -0.9767 0.5453 -1.4843 0
M  V30 41 H 1.5385 -1.7317 0.815 0
M  V30 42 H 0.996 -2.9922 -0.2974 0
M  V30 43 H 1.6494 0.6404 0.0225 0
M  V30 44 H 2.1407 2.1597 -1.6902 0
M  V30 45 H 1.137 1.3218 -2.8779 0
M  V30 46 H 0.6206 -2.5794 -2.7139 0
M  V30 47 H -0.6377 -1.4374 -2.2907 0
M  V30 48 H 0.6498 -0.9468 -3.3857 0
M  V30 49 H 2.9927 0.1388 -3.5007 0
M  V30 50 H 3.9389 0.7661 -2.1709 0
M  V30 51 H 3.4044 -2.8865 -2.0984 0
M  V30 52 H 4.2875 0.7776 -0.0391 0
M  V30 53 H 3.3208 -0.0834 1.191 0
M  V30 54 H 5.4008 -1.436 1.235 0
M  V30 END ATOM
M  V30 BEGIN BOND
M  V30 1 2 1 2
M  V30 2 1 2 3
M  V30 3 1 2 4
M  V30 4 2 3 5
M  V30 5 1 4 6
M  V30 6 1 5 7
M  V30 7 1 5 8
M  V30 8 1 7 9
M  V30 9 1 7 10
M  V30 10 1 8 11
M  V30 11 1 9 12
M  V30 12 1 9 13
M  V30 13 2 12 14
M  V30 14 1 12 15
M  V30 15 1 13 16
M  V30 16 1 15 17
M  V30 17 1 16 18
M  V30 18 1 17 19
M  V30 19 1 17 20
M  V30 20 1 18 21
M  V30 21 1 19 22
M  V30 22 1 19 23
M  V30 23 2 23 24
M  V30 24 1 23 25
M  V30 25 1 25 26
M  V30 26 1 6 7
M  V30 27 1 11 13
M  V30 28 1 16 17
M  V30 29 1 19 21
M  V30 30 1 3 27
M  V30 31 1 4 28
M  V30 32 1 4 29
M  V30 33 1 6 30
M  V30 34 1 6 31
M  V30 35 1 8 32
M  V30 36 1 8 33
M  V30 37 1 9 34
M  V30 38 1 10 35
M  V30 39 1 10 36
M  V30 40 1 10 37
M  V30 41 1 11 38
M  V30 42 1 11 39
M  V30 43 1 13 40
M  V30 44 1 15 41
M  V30 45 1 15 42
M  V30 46 1 16 43
M  V30 47 1 18 44
M  V30 48 1 18 45
M  V30 49 1 20 46
M  V30 50 1 20 47
M  V30 51 1 20 48
M  V30 52 1 21 49
M  V30 53 1 21 50
M  V30 54 1 22 51
M  V30 55 1 25 52
M  V30 56 1 25 53
M  V30 57 1 26 54
M  V30 END BOND
M  V30 BEGIN COLLECTION
M  V30 MDLV30/STEABS ATOMS=(3 9 13 16)
M  V30 END COLLECTION
M  V30 END CTAB
M  END
>  <NO.>
2909

>  <Name>


>  <SMILES>
CC12CCC(=O)C=C1CC[C@@H]1[C@@H]2C(=O)CC2(C)[C@H]1CCC2(O)C(=O)CO

>  <logBB>


>  <Class>
1

>  <MW>
360.19

>  <nHBAcc>
5

>  <nHBDon>
2

>  <SLogP>
1.99

>  <TopoPSA>
91.67

>  <MMFF94 Energy>
117.97

$$$$
CC12CCC(=O)C=C1CC[C@@H]1[C@@H]2[C@@H](O)CC2(C)[C@H]1CCC2(O)C(=O)COC(=O)CCC1CCCC1
Actelion Java MolfileCreator 2.0

  0  0  0  0  0  0              0 V3000
M  V30 BEGIN CTAB
M  V30 COUNTS 77 81 0 0 0
M  V30 BEGIN ATOM
M  V30 1 O -3.8606 4.6664 6.6021 0
M  V30 2 C -3.8741 4.0284 5.5529 0
M  V30 3 C -3.7794 4.7432 4.2585 0
M  V30 4 C -3.8743 2.5215 5.5202 0
M  V30 5 C -3.8772 4.0826 3.0913 0
M  V30 6 C -4.7016 2.0398 4.3411 0
M  V30 7 C -4.2188 2.5896 2.968 0
M  V30 8 C -3.4957 4.7624 1.8004 0
M  V30 9 C -2.8984 1.9032 2.4504 0 CFG=1
M  V30 10 C -5.4225 2.4136 2.0071 0
M  V30 11 C -2.2531 4.0803 1.2274 0
M  V30 12 C -2.914 0.3479 2.396 0 CFG=1
M  V30 13 C -2.4052 2.5489 1.1032 0 CFG=1
M  V30 14 O -4.0201 -0.1305 1.6449 0
M  V30 15 C -1.6105 -0.2609 1.8342 0
M  V30 16 C -1.0717 1.8978 0.7117 0 CFG=1
M  V30 17 C -1.1699 0.3677 0.4943 0
M  V30 18 C -0.3484 2.3852 -0.5402 0
M  V30 19 C 0.2997 0.075 0.0605 0
M  V30 20 C -2.1614 -0.0152 -0.6329 0
M  V30 21 C 0.666 1.2643 -0.858 0
M  V30 22 O 1.1522 0.2089 1.2257 0
M  V30 23 C 0.5835 -1.3398 -0.4906 0
M  V30 24 O 1.0947 -2.182 0.2644 0
M  V30 25 C 0.203 -1.7121 -1.9218 0
M  V30 26 O 1.0742 -2.7064 -2.4676 0
M  V30 27 C 2.3272 -2.2431 -2.7436 0
M  V30 28 O 2.6733 -1.0769 -2.618 0
M  V30 29 C 3.1954 -3.3802 -3.2257 0
M  V30 30 C 4.6104 -2.9104 -3.5631 0
M  V30 31 C 5.4835 -4.0339 -4.1228 0
M  V30 32 C 6.8908 -3.5598 -4.4789 0
M  V30 33 C 5.7638 -5.166 -3.1353 0
M  V30 34 C 7.6771 -4.8552 -4.6273 0
M  V30 35 C 7.0201 -5.8499 -3.671 0
M  V30 36 H -3.5243 5.795 4.3247 0
M  V30 37 H -2.8412 2.1644 5.4702 0
M  V30 38 H -4.3209 2.1535 6.4505 0
M  V30 39 H -4.7438 0.9459 4.3395 0
M  V30 40 H -5.7376 2.3691 4.5139 0
M  V30 41 H -4.3235 4.724 1.0844 0
M  V30 42 H -3.2775 5.826 1.9565 0
M  V30 43 H -2.1157 2.141 3.1896 0
M  V30 44 H -6.2286 3.114 2.2611 0
M  V30 45 H -5.1711 2.5874 0.9581 0
M  V30 46 H -5.8529 1.4094 2.0771 0
M  V30 47 H -1.3921 4.3114 1.8692 0
M  V30 48 H -2.0348 4.5144 0.2444 0
M  V30 49 H -3.0367 -0.0381 3.4142 0
M  V30 50 H -3.1412 2.3667 0.3153 0
M  V30 51 H -4.0688 -1.094 1.7733 0
M  V30 52 H -0.832 -0.1169 2.5932 0
M  V30 53 H -1.728 -1.344 1.7062 0
M  V30 54 H -0.3858 2.0934 1.5521 0
M  V30 55 H 0.1593 3.3411 -0.3759 0
M  V30 56 H -1.0437 2.5194 -1.3766 0
M  V30 57 H -3.1437 0.4474 -0.5228 0
M  V30 58 H -2.329 -1.0972 -0.6459 0
M  V30 59 H -1.8031 0.2779 -1.6242 0
M  V30 60 H 1.6834 1.6201 -0.6556 0
M  V30 61 H 0.6145 1.0373 -1.9244 0
M  V30 62 H 1.4087 -0.7002 1.4903 0
M  V30 63 H -0.7968 -2.1532 -1.8987 0
M  V30 64 H 0.1662 -0.8518 -2.5915 0
M  V30 65 H 2.7269 -3.8126 -4.1167 0
M  V30 66 H 3.2278 -4.1362 -2.4341 0
M  V30 67 H 5.076 -2.48 -2.667 0
M  V30 68 H 4.558 -2.0988 -4.3005 0
M  V30 69 H 5.0094 -4.4499 -5.0223 0
M  V30 70 H 7.3174 -2.955 -3.6691 0
M  V30 71 H 6.9104 -2.9614 -5.3949 0
M  V30 72 H 5.9622 -4.7674 -2.1327 0
M  V30 73 H 4.9268 -5.8667 -3.0555 0
M  V30 74 H 8.7398 -4.7137 -4.4082 0
M  V30 75 H 7.5986 -5.2266 -5.6559 0
M  V30 76 H 6.7641 -6.7718 -4.205 0
M  V30 77 H 7.6928 -6.1231 -2.8513 0
M  V30 END ATOM
M  V30 BEGIN BOND
M  V30 1 2 1 2
M  V30 2 1 2 3
M  V30 3 1 2 4
M  V30 4 2 3 5
M  V30 5 1 4 6
M  V30 6 1 5 7
M  V30 7 1 5 8
M  V30 8 1 7 9
M  V30 9 1 7 10
M  V30 10 1 8 11
M  V30 11 1 9 12
M  V30 12 1 9 13
M  V30 13 1 12 14
M  V30 14 1 12 15
M  V30 15 1 13 16
M  V30 16 1 15 17
M  V30 17 1 16 18
M  V30 18 1 17 19
M  V30 19 1 17 20
M  V30 20 1 18 21
M  V30 21 1 19 22
M  V30 22 1 19 23
M  V30 23 2 23 24
M  V30 24 1 23 25
M  V30 25 1 25 26
M  V30 26 1 26 27
M  V30 27 2 27 28
M  V30 28 1 27 29
M  V30 29 1 29 30
M  V30 30 1 30 31
M  V30 31 1 31 32
M  V30 32 1 31 33
M  V30 33 1 32 34
M  V30 34 1 33 35
M  V30 35 1 6 7
M  V30 36 1 11 13
M  V30 37 1 16 17
M  V30 38 1 19 21
M  V30 39 1 34 35
M  V30 40 1 3 36
M  V30 41 1 4 37
M  V30 42 1 4 38
M  V30 43 1 6 39
M  V30 44 1 6 40
M  V30 45 1 8 41
M  V30 46 1 8 42
M  V30 47 1 9 43
M  V30 48 1 10 44
M  V30 49 1 10 45
M  V30 50 1 10 46
M  V30 51 1 11 47
M  V30 52 1 11 48
M  V30 53 1 12 49
M  V30 54 1 13 50
M  V30 55 1 14 51
M  V30 56 1 15 52
M  V30 57 1 15 53
M  V30 58 1 16 54
M  V30 59 1 18 55
M  V30 60 1 18 56
M  V30 61 1 20 57
M  V30 62 1 20 58
M  V30 63 1 20 59
M  V30 64 1 21 60
M  V30 65 1 21 61
M  V30 66 1 22 62
M  V30 67 1 25 63
M  V30 68 1 25 64
M  V30 69 1 29 65
M  V30 70 1 29 66
M  V30 71 1 30 67
M  V30 72 1 30 68
M  V30 73 1 31 69
M  V30 74 1 32 70
M  V30 75 1 32 71
M  V30 76 1 33 72
M  V30 77 1 33 73
M  V30 78 1 34 74
M  V30 79 1 34 75
M  V30 80 1 35 76
M  V30 81 1 35 77
M  V30 END BOND
M  V30 BEGIN COLLECTION
M  V30 MDLV30/STEABS ATOMS=(4 9 12 13 16)
M  V30 END COLLECTION
M  V30 END CTAB
M  END
>  <NO.>
2914

>  <Name>


>  <SMILES>
CC12CCC(=O)C=C1CC[C@@H]1[C@@H]2[C@@H](O)CC2(C)[C@H]1CCC2(O)C(=O)COC(=O)CCC1CCCC1

>  <logBB>


>  <Class>
1

>  <MW>
486.3

>  <nHBAcc>
6

>  <nHBDon>
2

>  <SLogP>
4.3

>  <TopoPSA>
100.9

>  <MMFF94 Energy>
116.35

$$$$
CC12CCC(=O)C=C1CC[C@@H]1[C@@H]2[C@@H]2CC3(C(C(=O)CO)CC[C@@H]13)[C@@H](O)O2
Actelion Java MolfileCreator 2.0

  0  0  0  0  0  0              0 V3000
M  V30 BEGIN CTAB
M  V30 COUNTS 54 58 0 0 0
M  V30 BEGIN ATOM
M  V30 1 O 4.7131 1.1361 3.8993 0
M  V30 2 C 3.6986 1.1746 3.2088 0
M  V30 3 C 3.7669 1.723 1.8344 0
M  V30 4 C 2.3896 0.5765 3.6551 0
M  V30 5 C 2.6595 1.8621 1.0836 0
M  V30 6 C 1.2423 1.4298 3.1429 0
M  V30 7 C 1.2298 1.6136 1.5966 0
M  V30 8 C 2.7888 2.1198 -0.3996 0
M  V30 9 C 0.7333 0.34 0.8259 0 CFG=2
M  V30 10 C 0.3392 2.8537 1.3397 0
M  V30 11 C 2.246 0.9125 -1.1717 0
M  V30 12 C 0.8197 0.5513 -0.7294 0 CFG=1
M  V30 13 C -0.6848 -0.1852 1.1885 0 CFG=1
M  V30 14 C 0.2775 -0.7113 -1.4069 0 CFG=1
M  V30 15 O -1.6514 0.6838 0.5701 0
M  V30 16 C -0.9361 -1.5627 0.5547 0
M  V30 17 C -1.1335 -1.1313 -0.8907 0
M  V30 18 C 0.0921 -0.6857 -2.9122 0
M  V30 19 C -2.0965 0.0547 -0.6382 0 CFG=1
M  V30 20 C -1.5791 -2.1937 -1.9216 0
M  V30 21 C -0.6429 -2.0044 -3.1441 0
M  V30 22 O -3.4183 -0.3863 -0.3567 0
M  V30 23 C -3.0289 -2.0836 -2.386 0
M  V30 24 O -3.3734 -1.2673 -3.2449 0
M  V30 25 C -4.0369 -3.032 -1.7452 0
M  V30 26 O -3.9465 -3.0556 -0.333 0
M  V30 27 H 4.7676 1.8901 1.4514 0
M  V30 28 H 2.3262 -0.455 3.2959 0
M  V30 29 H 2.3693 0.5614 4.7503 0
M  V30 30 H 1.3357 2.4174 3.6196 0
M  V30 31 H 0.293 1.0248 3.506 0
M  V30 32 H 3.8339 2.2844 -0.6889 0
M  V30 33 H 2.2482 3.0311 -0.6771 0
M  V30 34 H 1.4309 -0.4722 1.0835 0
M  V30 35 H 0.7954 3.7566 1.765 0
M  V30 36 H -0.6435 2.7388 1.8103 0
M  V30 37 H 0.1708 3.0601 0.2801 0
M  V30 38 H 2.9103 0.0519 -1.0188 0
M  V30 39 H 2.263 1.1386 -2.2441 0
M  V30 40 H 0.1825 1.3914 -1.0292 0
M  V30 41 H -0.8575 -0.2224 2.2655 0
M  V30 42 H 0.9864 -1.5267 -1.1876 0
M  V30 43 H -1.8451 -2.0143 0.9663 0
M  V30 44 H -0.1115 -2.2647 0.7132 0
M  V30 45 H 1.04 -0.6541 -3.4568 0
M  V30 46 H -0.5208 0.1646 -3.2304 0
M  V30 47 H -2.1215 0.7794 -1.4581 0
M  V30 48 H -1.4248 -3.208 -1.5333 0
M  V30 49 H -1.1512 -2.0149 -4.1132 0
M  V30 50 H 0.087 -2.8243 -3.16 0
M  V30 51 H -3.9348 0.4402 -0.3273 0
M  V30 52 H -5.0492 -2.7244 -2.0245 0
M  V30 53 H -3.8599 -4.0404 -2.1295 0
M  V30 54 H -4.0152 -2.1171 -0.0483 0
M  V30 END ATOM
M  V30 BEGIN BOND
M  V30 1 2 1 2
M  V30 2 1 2 3
M  V30 3 1 2 4
M  V30 4 2 3 5
M  V30 5 1 4 6
M  V30 6 1 5 7
M  V30 7 1 5 8
M  V30 8 1 7 9
M  V30 9 1 7 10
M  V30 10 1 8 11
M  V30 11 1 9 12
M  V30 12 1 9 13
M  V30 13 1 12 14
M  V30 14 1 13 15
M  V30 15 1 13 16
M  V30 16 1 14 17
M  V30 17 1 14 18
M  V30 18 1 15 19
M  V30 19 1 17 20
M  V30 20 1 18 21
M  V30 21 1 19 22
M  V30 22 1 20 23
M  V30 23 2 23 24
M  V30 24 1 23 25
M  V30 25 1 25 26
M  V30 26 1 6 7
M  V30 27 1 11 12
M  V30 28 1 16 17
M  V30 29 1 17 19
M  V30 30 1 20 21
M  V30 31 1 3 27
M  V30 32 1 4 28
M  V30 33 1 4 29
M  V30 34 1 6 30
M  V30 35 1 6 31
M  V30 36 1 8 32
M  V30 37 1 8 33
M  V30 38 1 9 34
M  V30 39 1 10 35
M  V30 40 1 10 36
M  V30 41 1 10 37
M  V30 42 1 11 38
M  V30 43 1 11 39
M  V30 44 1 12 40
M  V30 45 1 13 41
M  V30 46 1 14 42
M  V30 47 1 16 43
M  V30 48 1 16 44
M  V30 49 1 18 45
M  V30 50 1 18 46
M  V30 51 1 19 47
M  V30 52 1 20 48
M  V30 53 1 21 49
M  V30 54 1 21 50
M  V30 55 1 22 51
M  V30 56 1 25 52
M  V30 57 1 25 53
M  V30 58 1 26 54
M  V30 END BOND
M  V30 BEGIN COLLECTION
M  V30 MDLV30/STEABS ATOMS=(5 9 12 13 14 19)
M  V30 END COLLECTION
M  V30 END CTAB
M  END
>  <NO.>
2916

>  <Name>


>  <SMILES>
CC12CCC(=O)C=C1CC[C@@H]1[C@@H]2[C@@H]2CC3(C(C(=O)CO)CC[C@@H]13)[C@@H](O)O2

>  <logBB>


>  <Class>
-1

>  <MW>
360.19

>  <nHBAcc>
5

>  <nHBDon>
2

>  <SLogP>
2

>  <TopoPSA>
83.83

>  <MMFF94 Energy>
71.324

$$$$
CC12CCC(=O)C=C1CC[C@H]1[C@@H]3CCC(O)(C(=O)CO)C3(C)C[C@H](O)C12F
Actelion Java MolfileCreator 2.0

  0  0  0  0  0  0              0 V3000
M  V30 BEGIN CTAB
M  V30 COUNTS 56 59 0 0 0
M  V30 BEGIN ATOM
M  V30 1 F 2.1029 0.2424 -0.4041 0
M  V30 2 C 0.9492 -0.3429 -0.8846 0
M  V30 3 C 1.3605 -1.1142 -2.2139 0
M  V30 4 C 0.4241 -1.2085 0.2866 0 CFG=1
M  V30 5 C -0.0629 0.8089 -1.1913 0 CFG=2
M  V30 6 C 0.1041 -1.505 -2.9996 0
M  V30 7 C 2.3033 -2.3409 -2.0014 0
M  V30 8 C 2.2074 -0.1432 -3.0988 0
M  V30 9 O 1.424 -2.1326 0.7318 0
M  V30 10 C 0.072 -0.3761 1.5313 0
M  V30 11 C -0.5582 1.5776 0.0572 0 CFG=1
M  V30 12 C -1.2627 0.3242 -2.0349 0
M  V30 13 C -0.1999 -2.7585 -3.3754 0
M  V30 14 C -0.8412 -0.3761 -3.3217 0
M  V30 15 C 1.6136 -3.6919 -1.8506 0
M  V30 16 C -0.9623 0.7455 1.3042 0
M  V30 17 C 0.4938 2.5806 0.5834 0
M  V30 18 C 0.6282 -3.9117 -2.9641 0
M  V30 19 C -0.9579 1.8655 2.4078 0
M  V30 20 C -2.3682 0.1265 1.1838 0
M  V30 21 C 0.3117 2.6678 2.0992 0
M  V30 22 O 0.4288 -5.0116 -3.4713 0
M  V30 23 O -2.0975 2.7136 2.189 0
M  V30 24 C -0.9631 1.395 3.8801 0
M  V30 25 O -0.7164 0.2408 4.2364 0
M  V30 26 C -1.2837 2.45 4.9355 0
M  V30 27 O -0.928 2.0167 6.2398 0
M  V30 28 H -0.4398 -1.7994 -0.0314 0
M  V30 29 H 0.4586 1.5596 -1.7988 0
M  V30 30 H 2.9909 -2.1632 -1.1671 0
M  V30 31 H 2.9588 -2.4431 -2.8795 0
M  V30 32 H 1.7098 0.8055 -3.3127 0
M  V30 33 H 2.4411 -0.596 -4.0706 0
M  V30 34 H 3.1593 0.0974 -2.6106 0
M  V30 35 H 2.2101 -1.6067 0.9736 0
M  V30 36 H -0.2889 -1.0758 2.2957 0
M  V30 37 H 1.0011 0.0341 1.9471 0
M  V30 38 H -1.4215 2.1856 -0.252 0
M  V30 39 H -1.8987 1.179 -2.2963 0
M  V30 40 H -1.889 -0.3633 -1.4615 0
M  V30 41 H -1.0816 -3.0064 -3.9564 0
M  V30 42 H -0.3685 0.3345 -4.008 0
M  V30 43 H -1.7393 -0.7411 -3.8352 0
M  V30 44 H 1.0736 -3.7991 -0.9083 0
M  V30 45 H 2.3687 -4.4848 -1.893 0
M  V30 46 H 1.522 2.2892 0.3534 0
M  V30 47 H 0.3363 3.561 0.1185 0
M  V30 48 H -2.3829 -0.762 0.5491 0
M  V30 49 H -3.0938 0.8354 0.7712 0
M  V30 50 H -2.7365 -0.1902 2.1662 0
M  V30 51 H 0.2407 3.7153 2.4125 0
M  V30 52 H 1.1872 2.2405 2.6024 0
M  V30 53 H -1.887 3.6263 2.4514 0
M  V30 54 H -0.7277 3.3666 4.7256 0
M  V30 55 H -2.3572 2.6559 4.9177 0
M  V30 56 H -1.0073 1.0408 6.2329 0
M  V30 END ATOM
M  V30 BEGIN BOND
M  V30 1 1 1 2
M  V30 2 1 2 3
M  V30 3 1 2 4
M  V30 4 1 2 5
M  V30 5 1 3 6
M  V30 6 1 3 7
M  V30 7 1 3 8
M  V30 8 1 4 9
M  V30 9 1 4 10
M  V30 10 1 5 11
M  V30 11 1 5 12
M  V30 12 2 6 13
M  V30 13 1 6 14
M  V30 14 1 7 15
M  V30 15 1 10 16
M  V30 16 1 11 17
M  V30 17 1 13 18
M  V30 18 1 16 19
M  V30 19 1 16 20
M  V30 20 1 17 21
M  V30 21 2 18 22
M  V30 22 1 19 23
M  V30 23 1 19 24
M  V30 24 2 24 25
M  V30 25 1 24 26
M  V30 26 1 26 27
M  V30 27 1 11 16
M  V30 28 1 12 14
M  V30 29 1 15 18
M  V30 30 1 19 21
M  V30 31 1 4 28
M  V30 32 1 5 29
M  V30 33 1 7 30
M  V30 34 1 7 31
M  V30 35 1 8 32
M  V30 36 1 8 33
M  V30 37 1 8 34
M  V30 38 1 9 35
M  V30 39 1 10 36
M  V30 40 1 10 37
M  V30 41 1 11 38
M  V30 42 1 12 39
M  V30 43 1 12 40
M  V30 44 1 13 41
M  V30 45 1 14 42
M  V30 46 1 14 43
M  V30 47 1 15 44
M  V30 48 1 15 45
M  V30 49 1 17 46
M  V30 50 1 17 47
M  V30 51 1 20 48
M  V30 52 1 20 49
M  V30 53 1 20 50
M  V30 54 1 21 51
M  V30 55 1 21 52
M  V30 56 1 23 53
M  V30 57 1 26 54
M  V30 58 1 26 55
M  V30 59 1 27 56
M  V30 END BOND
M  V30 BEGIN COLLECTION
M  V30 MDLV30/STEABS ATOMS=(3 4 5 11)
M  V30 END COLLECTION
M  V30 END CTAB
M  END
>  <NO.>
2920

>  <Name>


>  <SMILES>
CC12CCC(=O)C=C1CC[C@H]1[C@@H]3CCC(O)(C(=O)CO)C3(C)C[C@H](O)C12F

>  <logBB>


>  <Class>
1

>  <MW>
380.2

>  <nHBAcc>
5

>  <nHBDon>
3

>  <SLogP>
1.87

>  <TopoPSA>
94.83

>  <MMFF94 Energy>
161.4

$$$$
CC12CC[C@@H]3c4ccc(O)cc4CC[C@@H]3[C@@H]1CCC2O
Actelion Java MolfileCreator 2.0

  0  0  0  0  0  0              0 V3000
M  V30 BEGIN CTAB
M  V30 COUNTS 44 47 0 0 0
M  V30 BEGIN ATOM
M  V30 1 O -5.1381 1.9244 2.968 0
M  V30 2 C -3.8964 1.6727 2.4639 0
M  V30 3 C -3.8136 1.0838 1.2081 0
M  V30 4 C -2.7479 1.9962 3.1728 0
M  V30 5 C -2.563 0.7965 0.6388 0
M  V30 6 C -1.4999 1.723 2.6114 0
M  V30 7 C -1.391 1.1228 1.3434 0
M  V30 8 C -2.518 0.209 -0.7462 0
M  V30 9 C -0.0113 0.8256 0.7795 0 CFG=2
M  V30 10 C -1.156 -0.3768 -1.122 0
M  V30 11 C -0.0241 0.5999 -0.7507 0 CFG=2
M  V30 12 C 0.6125 -0.3746 1.5106 0
M  V30 13 C 1.4043 0.2755 -1.2781 0 CFG=1
M  V30 14 C 2.0491 -0.6101 1.0642 0
M  V30 15 C 2.2426 -0.7369 -0.4562 0
M  V30 16 C 1.4287 -0.3202 -2.6944 0
M  V30 17 C 1.7585 -2.0892 -1.0231 0
M  V30 18 C 3.756 -0.5351 -0.7327 0
M  V30 19 C 1.513 -1.8403 -2.5168 0
M  V30 20 O 2.6687 -3.155 -0.8075 0
M  V30 21 H -5.0373 2.3261 3.8463 0
M  V30 22 H -4.7297 0.8519 0.6703 0
M  V30 23 H -2.8001 2.4584 4.153 0
M  V30 24 H -0.6028 1.9805 3.1709 0
M  V30 25 H -2.7764 1.0024 -1.4592 0
M  V30 26 H -3.2759 -0.5779 -0.8417 0
M  V30 27 H 0.6132 1.711 0.9688 0
M  V30 28 H -1.175 -0.59 -2.1945 0
M  V30 29 H -1.0356 -1.3365 -0.6122 0
M  V30 30 H -0.2964 1.5572 -1.223 0
M  V30 31 H 0.6184 -0.199 2.5941 0
M  V30 32 H 0.0161 -1.2823 1.3642 0
M  V30 33 H 1.9355 1.238 -1.2967 0
M  V30 34 H 2.4413 -1.502 1.5689 0
M  V30 35 H 2.6462 0.2346 1.4348 0
M  V30 36 H 0.5849 -0.0126 -3.3185 0
M  V30 37 H 2.3285 0.024 -3.2199 0
M  V30 38 H 0.8218 -2.3959 -0.5515 0
M  V30 39 H 4.0187 -0.7049 -1.7815 0
M  V30 40 H 4.3626 -1.2195 -0.1285 0
M  V30 41 H 4.0657 0.4854 -0.4793 0
M  V30 42 H 2.3036 -2.2611 -3.1479 0
M  V30 43 H 0.577 -2.3187 -2.8263 0
M  V30 44 H 3.4425 -3.0238 -1.3802 0
M  V30 END ATOM
M  V30 BEGIN BOND
M  V30 1 1 1 2
M  V30 2 2 2 3
M  V30 3 1 2 4
M  V30 4 1 3 5
M  V30 5 2 4 6
M  V30 6 2 5 7
M  V30 7 1 5 8
M  V30 8 1 7 9
M  V30 9 1 8 10
M  V30 10 1 9 11
M  V30 11 1 9 12
M  V30 12 1 11 13
M  V30 13 1 12 14
M  V30 14 1 13 15
M  V30 15 1 13 16
M  V30 16 1 15 17
M  V30 17 1 15 18
M  V30 18 1 16 19
M  V30 19 1 17 20
M  V30 20 1 6 7
M  V30 21 1 10 11
M  V30 22 1 14 15
M  V30 23 1 17 19
M  V30 24 1 1 21
M  V30 25 1 3 22
M  V30 26 1 4 23
M  V30 27 1 6 24
M  V30 28 1 8 25
M  V30 29 1 8 26
M  V30 30 1 9 27
M  V30 31 1 10 28
M  V30 32 1 10 29
M  V30 33 1 11 30
M  V30 34 1 12 31
M  V30 35 1 12 32
M  V30 36 1 13 33
M  V30 37 1 14 34
M  V30 38 1 14 35
M  V30 39 1 16 36
M  V30 40 1 16 37
M  V30 41 1 17 38
M  V30 42 1 18 39
M  V30 43 1 18 40
M  V30 44 1 18 41
M  V30 45 1 19 42
M  V30 46 1 19 43
M  V30 47 1 20 44
M  V30 END BOND
M  V30 BEGIN COLLECTION
M  V30 MDLV30/STEABS ATOMS=(3 9 11 13)
M  V30 END COLLECTION
M  V30 END CTAB
M  END
>  <NO.>
2924

>  <Name>


>  <SMILES>
CC12CC[C@@H]3c4ccc(O)cc4CC[C@@H]3[C@@H]1CCC2O

>  <logBB>


>  <Class>
-1

>  <MW>
272.18

>  <nHBAcc>
2

>  <nHBDon>
2

>  <SLogP>
3.61

>  <TopoPSA>
40.46

>  <MMFF94 Energy>
60.201

$$$$
CC1=C(C(=O)OCC(=O)OC(C)(C)C)N2C(=O)C(NC(=O)[C@@H](N)c3ccccc3)[C@@H]2SC1
Actelion Java MolfileCreator 2.0

  0  0  0  0  0  0              0 V3000
M  V30 BEGIN CTAB
M  V30 COUNTS 59 61 0 0 0
M  V30 BEGIN ATOM
M  V30 1 S 0.9654 0.8044 2.0121 0
M  V30 2 C -0.5466 -0.1574 1.7374 0 CFG=2
M  V30 3 C 1.9958 -0.3276 1.0295 0
M  V30 4 N -0.7977 -0.1626 0.3141 0
M  V30 5 C -1.9283 0.5506 1.8933 0
M  V30 6 C 1.4163 -0.6484 -0.336 0
M  V30 7 C 0.1042 -0.5114 -0.6398 0
M  V30 8 C -2.0353 0.3676 0.3452 0
M  V30 9 N -1.9495 1.9561 2.3779 0
M  V30 10 C 2.4645 -1.1038 -1.3217 0
M  V30 11 C -0.3902 -0.679 -2.0417 0
M  V30 12 O -2.8271 0.6555 -0.5205 0
M  V30 13 C -1.854 2.2405 3.7253 0
M  V30 14 O 0.1243 -0.1732 -3.0268 0
M  V30 15 O -1.4631 -1.5115 -2.0363 0
M  V30 16 O -1.7551 1.348 4.5695 0
M  V30 17 C -1.8652 3.7518 4.0764 0 CFG=1
M  V30 18 C -2.0337 -1.7243 -3.3257 0
M  V30 19 N -2.5837 3.9581 5.3468 0
M  V30 20 C -0.466 4.3356 4.1388 0
M  V30 21 C -1.2098 -2.5734 -4.2896 0
M  V30 22 C -0.1887 5.5515 3.4926 0
M  V30 23 C 0.5629 3.7108 4.8619 0
M  V30 24 O -1.4038 -2.6002 -5.4979 0
M  V30 25 O -0.2954 -3.3248 -3.6154 0
M  V30 26 C 1.0877 6.114 3.5498 0
M  V30 27 C 1.8388 4.2745 4.916 0
M  V30 28 C 0.6065 -4.2101 -4.3263 0
M  V30 29 C 2.1013 5.4741 4.2589 0
M  V30 30 C -0.1581 -5.317 -5.0602 0
M  V30 31 C 1.4649 -4.8556 -3.2276 0
M  V30 32 C 1.5252 -3.4244 -5.268 0
M  V30 33 H -0.5272 -1.164 2.1718 0
M  V30 34 H 2.9677 0.1639 0.9144 0
M  V30 35 H 2.1555 -1.2548 1.5905 0
M  V30 36 H -2.6744 -0.056 2.4224 0
M  V30 37 H -1.9901 2.723 1.7155 0
M  V30 38 H 3.1032 -1.866 -0.8617 0
M  V30 39 H 2.0477 -1.5578 -2.2235 0
M  V30 40 H 3.095 -0.2599 -1.6193 0
M  V30 41 H -2.4386 4.2659 3.2951 0
M  V30 42 H -2.2517 -0.7585 -3.7968 0
M  V30 43 H -2.9848 -2.2443 -3.172 0
M  V30 44 H -2.3446 4.8786 5.7117 0
M  V30 45 H -2.2132 3.2829 6.0194 0
M  V30 46 H -0.9672 6.074 2.9402 0
M  V30 47 H 0.3821 2.7738 5.3863 0
M  V30 48 H 1.2912 7.0534 3.0421 0
M  V30 49 H 2.628 3.7747 5.4718 0
M  V30 50 H 3.0953 5.9112 4.3021 0
M  V30 51 H -0.7308 -4.9275 -5.9071 0
M  V30 52 H 0.5234 -6.08 -5.4511 0
M  V30 53 H -0.8774 -5.802 -4.3908 0
M  V30 54 H 0.8367 -5.3951 -2.5091 0
M  V30 55 H 2.1968 -5.5566 -3.6421 0
M  V30 56 H 2.0037 -4.093 -2.6538 0
M  V30 57 H 0.9749 -2.9928 -6.1093 0
M  V30 58 H 1.9985 -2.5882 -4.7412 0
M  V30 59 H 2.3111 -4.0641 -5.6835 0
M  V30 END ATOM
M  V30 BEGIN BOND
M  V30 1 1 1 2
M  V30 2 1 1 3
M  V30 3 1 2 4
M  V30 4 1 2 5
M  V30 5 1 3 6
M  V30 6 1 4 7
M  V30 7 1 4 8
M  V30 8 1 5 9
M  V30 9 1 6 10
M  V30 10 1 7 11
M  V30 11 2 8 12
M  V30 12 1 9 13
M  V30 13 2 11 14
M  V30 14 1 11 15
M  V30 15 2 13 16
M  V30 16 1 13 17
M  V30 17 1 15 18
M  V30 18 1 17 19
M  V30 19 1 17 20
M  V30 20 1 18 21
M  V30 21 2 20 22
M  V30 22 1 20 23
M  V30 23 2 21 24
M  V30 24 1 21 25
M  V30 25 1 22 26
M  V30 26 2 23 27
M  V30 27 1 25 28
M  V30 28 2 26 29
M  V30 29 1 28 30
M  V30 30 1 28 31
M  V30 31 1 28 32
M  V30 32 1 5 8
M  V30 33 2 6 7
M  V30 34 1 27 29
M  V30 35 1 2 33
M  V30 36 1 3 34
M  V30 37 1 3 35
M  V30 38 1 5 36
M  V30 39 1 9 37
M  V30 40 1 10 38
M  V30 41 1 10 39
M  V30 42 1 10 40
M  V30 43 1 17 41
M  V30 44 1 18 42
M  V30 45 1 18 43
M  V30 46 1 19 44
M  V30 47 1 19 45
M  V30 48 1 22 46
M  V30 49 1 23 47
M  V30 50 1 26 48
M  V30 51 1 27 49
M  V30 52 1 29 50
M  V30 53 1 30 51
M  V30 54 1 30 52
M  V30 55 1 30 53
M  V30 56 1 31 54
M  V30 57 1 31 55
M  V30 58 1 31 56
M  V30 59 1 32 57
M  V30 60 1 32 58
M  V30 61 1 32 59
M  V30 END BOND
M  V30 BEGIN COLLECTION
M  V30 MDLV30/STEABS ATOMS=(2 2 17)
M  V30 END COLLECTION
M  V30 END CTAB
M  END
>  <NO.>
2936

>  <Name>


>  <SMILES>
CC1=C(C(=O)OCC(=O)OC(C)(C)C)N2C(=O)C(NC(=O)[C@@H](N)c3ccccc3)[C@@H]2SC1

>  <logBB>


>  <Class>
-1

>  <MW>
461.16

>  <nHBAcc>
8

>  <nHBDon>
2

>  <SLogP>
1.25

>  <TopoPSA>
128.03

>  <MMFF94 Energy>
103.53

$$$$
CC1=CC[C@@H]2C3Cc4ccc(O)c5c4C2(CN3C)[C@H]1O5
Actelion Java MolfileCreator 2.0

  0  0  0  0  0  0              0 V3000
M  V30 BEGIN CTAB
M  V30 COUNTS 39 43 0 0 0
M  V30 BEGIN ATOM
M  V30 1 O -1.054 2.1902 0.2431 0
M  V30 2 C -1.757 1.0565 0.5599 0
M  V30 3 C 0.1287 1.7218 -0.4942 0 CFG=1
M  V30 4 C -2.9451 0.9793 1.2483 0
M  V30 5 C -1.0954 -0.0973 0.2373 0
M  V30 6 C 1.4069 2.3603 0.0255 0
M  V30 7 C 0.1837 0.1958 -0.4429 0
M  V30 8 O -3.6366 2.099 1.5941 0
M  V30 9 C -3.4268 -0.2784 1.6296 0
M  V30 10 C -1.4609 -1.3534 0.6966 0
M  V30 11 C 2.5194 1.6364 0.2836 0
M  V30 12 C 1.3895 3.8559 0.1624 0
M  V30 13 C 1.2321 -0.4903 0.425 0 CFG=2
M  V30 14 C 0.2869 -0.5108 -1.8009 0
M  V30 15 C -2.6739 -1.4474 1.3753 0
M  V30 16 C -0.4171 -2.449 0.5878 0
M  V30 17 C 2.6027 0.1296 0.1643 0
M  V30 18 C 0.9607 -1.9484 -0.028 0
M  V30 19 N 0.968 -1.785 -1.4979 0
M  V30 20 C 0.4722 -2.9054 -2.2746 0
M  V30 21 H -0.0226 2.0645 -1.5272 0
M  V30 22 H -3.0957 2.8496 1.2834 0
M  V30 23 H -4.362 -0.3478 2.1797 0
M  V30 24 H 3.4318 2.1377 0.6008 0
M  V30 25 H 0.6655 4.1629 0.9239 0
M  V30 26 H 1.1145 4.3218 -0.7893 0
M  V30 27 H 2.367 4.2532 0.4557 0
M  V30 28 H 1.0317 -0.3908 1.5033 0
M  V30 29 H 0.9163 0.0515 -2.4996 0
M  V30 30 H -0.6981 -0.6514 -2.2636 0
M  V30 31 H -3.0217 -2.4021 1.7612 0
M  V30 32 H -0.8192 -3.3073 0.0418 0
M  V30 33 H -0.2021 -2.79 1.6094 0
M  V30 34 H 3.3095 -0.2524 0.9103 0
M  V30 35 H 3.0111 -0.1283 -0.8187 0
M  V30 36 H 1.7659 -2.6254 0.2774 0
M  V30 37 H 0.6755 -2.7417 -3.3386 0
M  V30 38 H 0.9879 -3.8292 -1.9917 0
M  V30 39 H -0.6059 -3.0602 -2.1634 0
M  V30 END ATOM
M  V30 BEGIN BOND
M  V30 1 1 1 2
M  V30 2 1 1 3
M  V30 3 2 2 4
M  V30 4 1 2 5
M  V30 5 1 3 6
M  V30 6 1 3 7
M  V30 7 1 4 8
M  V30 8 1 4 9
M  V30 9 2 5 10
M  V30 10 2 6 11
M  V30 11 1 6 12
M  V30 12 1 7 13
M  V30 13 1 7 14
M  V30 14 2 9 15
M  V30 15 1 10 16
M  V30 16 1 11 17
M  V30 17 1 13 18
M  V30 18 1 14 19
M  V30 19 1 19 20
M  V30 20 1 5 7
M  V30 21 1 10 15
M  V30 22 1 13 17
M  V30 23 1 16 18
M  V30 24 1 18 19
M  V30 25 1 3 21
M  V30 26 1 8 22
M  V30 27 1 9 23
M  V30 28 1 11 24
M  V30 29 1 12 25
M  V30 30 1 12 26
M  V30 31 1 12 27
M  V30 32 1 13 28
M  V30 33 1 14 29
M  V30 34 1 14 30
M  V30 35 1 15 31
M  V30 36 1 16 32
M  V30 37 1 16 33
M  V30 38 1 17 34
M  V30 39 1 17 35
M  V30 40 1 18 36
M  V30 41 1 20 37
M  V30 42 1 20 38
M  V30 43 1 20 39
M  V30 END BOND
M  V30 BEGIN COLLECTION
M  V30 MDLV30/STEABS ATOMS=(2 3 13)
M  V30 END COLLECTION
M  V30 END CTAB
M  END
>  <NO.>
2939

>  <Name>


>  <SMILES>
CC1=CC[C@@H]2C3Cc4ccc(O)c5c4C2(CN3C)[C@H]1O5

>  <logBB>


>  <Class>
1

>  <MW>
269.14

>  <nHBAcc>
3

>  <nHBDon>
1

>  <SLogP>
2.23

>  <TopoPSA>
32.7

>  <MMFF94 Energy>
90.781

$$$$
CC1CCNC2C1NC(=O)C1CCCNC1N2C1CC1
Actelion Java MolfileCreator 2.0

  0  0  0  0  0  0              0 V3000
M  V30 BEGIN CTAB
M  V30 COUNTS 46 49 0 0 0
M  V30 BEGIN ATOM
M  V30 1 O -0.7168 2.8697 1.9124 0
M  V30 2 C -0.6416 1.8684 1.1943 0
M  V30 3 N -0.9294 0.6907 1.7876 0
M  V30 4 C -0.3126 1.9474 -0.2915 0
M  V30 5 C -1.0568 -0.6552 1.2264 0
M  V30 6 C 0.8495 0.9947 -0.6713 0
M  V30 7 C 0.0262 3.4283 -0.5944 0
M  V30 8 C 0.181 -1.1367 0.4109 0
M  V30 9 C -1.2967 -1.6404 2.4054 0
M  V30 10 N 0.4798 -0.4264 -0.8319 0
M  V30 11 N 1.5336 1.3391 -1.9296 0
M  V30 12 C 0.695 3.6233 -1.942 0
M  V30 13 N 1.3839 -1.1887 1.2406 0
M  V30 14 C 0.0092 -1.8462 3.2027 0
M  V30 15 C -1.886 -2.9757 1.939 0
M  V30 16 C -0.5139 -0.7357 -1.8981 0
M  V30 17 C 1.9224 2.7355 -2.0262 0
M  V30 18 C 1.2236 -2.1598 2.3217 0
M  V30 19 C -0.0456 -1.0587 -3.296 0
M  V30 20 C -0.6187 -2.1425 -2.4427 0
M  V30 21 H -1.1206 0.8141 2.7746 0
M  V30 22 H -1.2226 1.7046 -0.8506 0
M  V30 23 H -1.9437 -0.632 0.5822 0
M  V30 24 H 1.6213 1.0733 0.1051 0
M  V30 25 H -0.8873 4.0342 -0.5464 0
M  V30 26 H 0.7016 3.8286 0.1742 0
M  V30 27 H -0.0128 -2.1723 0.1103 0
M  V30 28 H -2.0385 -1.2033 3.0884 0
M  V30 29 H 0.9025 1.1202 -2.6928 0
M  V30 30 H 0.9855 4.6729 -2.063 0
M  V30 31 H -0.0085 3.3888 -2.7504 0
M  V30 32 H 2.1532 -1.4633 0.6306 0
M  V30 33 H -0.122 -2.6452 3.9422 0
M  V30 34 H 0.2212 -0.9333 3.7748 0
M  V30 35 H -1.1938 -3.5523 1.32 0
M  V30 36 H -2.1465 -3.5971 2.8028 0
M  V30 37 H -2.8018 -2.8121 1.3614 0
M  V30 38 H -1.4624 -0.209 -1.8176 0
M  V30 39 H 2.6475 2.9866 -1.243 0
M  V30 40 H 2.4258 2.8976 -2.9853 0
M  V30 41 H 2.1259 -2.1465 2.9429 0
M  V30 42 H 1.1422 -3.1734 1.9114 0
M  V30 43 H -0.6385 -0.6956 -4.1268 0
M  V30 44 H 1.0205 -1.0948 -3.4929 0
M  V30 45 H 0.0698 -2.9036 -2.0947 0
M  V30 46 H -1.6039 -2.5177 -2.6931 0
M  V30 END ATOM
M  V30 BEGIN BOND
M  V30 1 2 1 2
M  V30 2 1 2 3
M  V30 3 1 2 4
M  V30 4 1 3 5
M  V30 5 1 4 6
M  V30 6 1 4 7
M  V30 7 1 5 8
M  V30 8 1 5 9
M  V30 9 1 6 10
M  V30 10 1 6 11
M  V30 11 1 7 12
M  V30 12 1 8 13
M  V30 13 1 9 14
M  V30 14 1 9 15
M  V30 15 1 10 16
M  V30 16 1 11 17
M  V30 17 1 13 18
M  V30 18 1 16 19
M  V30 19 1 16 20
M  V30 20 1 8 10
M  V30 21 1 12 17
M  V30 22 1 14 18
M  V30 23 1 19 20
M  V30 24 1 3 21
M  V30 25 1 4 22
M  V30 26 1 5 23
M  V30 27 1 6 24
M  V30 28 1 7 25
M  V30 29 1 7 26
M  V30 30 1 8 27
M  V30 31 1 9 28
M  V30 32 1 11 29
M  V30 33 1 12 30
M  V30 34 1 12 31
M  V30 35 1 13 32
M  V30 36 1 14 33
M  V30 37 1 14 34
M  V30 38 1 15 35
M  V30 39 1 15 36
M  V30 40 1 15 37
M  V30 41 1 16 38
M  V30 42 1 17 39
M  V30 43 1 17 40
M  V30 44 1 18 41
M  V30 45 1 18 42
M  V30 46 1 19 43
M  V30 47 1 19 44
M  V30 48 1 20 45
M  V30 49 1 20 46
M  V30 END BOND
M  V30 END CTAB
M  END
>  <NO.>
2945

>  <Name>
2-cyclopropyl-7-methyl-2,4,9,15-tetrazatricyclo[9.4.0.03,8]pentadecan-10-one

>  <SMILES>
CC1CCNC2C1NC(=O)C1CCCNC1N2C1CC1

>  <logBB>


>  <Class>
1

>  <MW>
278.21

>  <nHBAcc>
4

>  <nHBDon>
3

>  <SLogP>
0.23

>  <TopoPSA>
56.4

>  <MMFF94 Energy>
-32.122

$$$$
CCC(=O)C1(C)[C@@H](C)C[C@H]2[C@@H]3CCC4=CC(=O)C=CC4(C)[C@H]3[C@@H](O)CC21C
Actelion Java MolfileCreator 2.0

  0  0  0  0  0  0              0 V3000
M  V30 BEGIN CTAB
M  V30 COUNTS 61 64 0 0 0
M  V30 BEGIN ATOM
M  V30 1 O 5.9504 3.5348 1.0433 0
M  V30 2 C 5.1277 2.629 1.0874 0
M  V30 3 C 4.0115 2.6494 2.0538 0
M  V30 4 C 5.2058 1.4778 0.1697 0
M  V30 5 C 3.1006 1.6614 2.1068 0
M  V30 6 C 4.3002 0.4923 0.2221 0
M  V30 7 C 3.1254 0.4263 1.1934 0
M  V30 8 C 1.9386 1.7455 3.0619 0
M  V30 9 C 1.7616 0.4109 0.4004 0 CFG=1
M  V30 10 C 3.3636 -0.8205 2.0742 0
M  V30 11 C 0.6235 1.7121 2.2929 0
M  V30 12 C 1.6041 -0.723 -0.6529 0 CFG=1
M  V30 13 C 0.5198 0.4958 1.3526 0 CFG=1
M  V30 14 O 1.8039 -2.0008 -0.068 0
M  V30 15 C 0.242 -0.6922 -1.3843 0
M  V30 16 C -0.7569 0.5833 0.4981 0 CFG=1
M  V30 17 C -0.9795 -0.6287 -0.4374 0
M  V30 18 C -2.0891 0.7138 1.2163 0
M  V30 19 C -2.3895 -0.2769 -1.0862 0
M  V30 20 C -1.1034 -1.9677 0.3493 0
M  V30 21 C -3.1281 0.516 0.0888 0 CFG=1
M  V30 22 C -3.1126 -1.5532 -1.616 0
M  V30 23 C -2.2992 0.7197 -2.2724 0
M  V30 24 C -4.435 -0.0112 0.6671 0
M  V30 25 O -4.0583 -2.0825 -1.0293 0
M  V30 26 C -2.6076 -2.2168 -2.8884 0
M  V30 27 C -3.6459 -2.1282 -3.991 0
M  V30 28 H 3.9725 3.5205 2.6977 0
M  V30 29 H 6.0351 1.472 -0.5266 0
M  V30 30 H 4.43 -0.3484 -0.4557 0
M  V30 31 H 1.9808 0.9164 3.7773 0
M  V30 32 H 1.9776 2.6652 3.6583 0
M  V30 33 H 1.7446 1.3427 -0.1907 0
M  V30 34 H 2.486 -1.0906 2.6689 0
M  V30 35 H 4.1893 -0.6537 2.7787 0
M  V30 36 H 3.6418 -1.7007 1.4846 0
M  V30 37 H -0.2012 1.6992 3.015 0
M  V30 38 H 0.5202 2.6389 1.7129 0
M  V30 39 H 2.3798 -0.6081 -1.4182 0
M  V30 40 H 0.4799 -0.3966 1.9845 0
M  V30 41 H 1.7431 -2.6701 -0.7713 0
M  V30 42 H 0.2542 0.1862 -2.0392 0
M  V30 43 H 0.1654 -1.5742 -2.0288 0
M  V30 44 H -0.645 1.4882 -0.1187 0
M  V30 45 H -2.1926 -0.037 2.0076 0
M  V30 46 H -2.2102 1.6979 1.682 0
M  V30 47 H -0.3019 -2.1229 1.073 0
M  V30 48 H -1.0818 -2.8234 -0.3347 0
M  V30 49 H -2.0371 -2.0338 0.9168 0
M  V30 50 H -3.3674 1.5233 -0.2823 0
M  V30 51 H -1.8381 1.6696 -1.9825 0
M  V30 52 H -3.3024 0.9469 -2.6537 0
M  V30 53 H -1.723 0.3342 -3.117 0
M  V30 54 H -4.8114 0.6753 1.4344 0
M  V30 55 H -5.2084 -0.0812 -0.1038 0
M  V30 56 H -4.3091 -0.9861 1.1475 0
M  V30 57 H -2.392 -3.265 -2.6522 0
M  V30 58 H -1.6689 -1.7786 -3.2256 0
M  V30 59 H -3.2809 -2.6187 -4.8984 0
M  V30 60 H -3.8761 -1.0858 -4.233 0
M  V30 61 H -4.581 -2.6142 -3.6936 0
M  V30 END ATOM
M  V30 BEGIN BOND
M  V30 1 2 1 2
M  V30 2 1 2 3
M  V30 3 1 2 4
M  V30 4 2 3 5
M  V30 5 2 4 6
M  V30 6 1 5 7
M  V30 7 1 5 8
M  V30 8 1 7 9
M  V30 9 1 7 10
M  V30 10 1 8 11
M  V30 11 1 9 12
M  V30 12 1 9 13
M  V30 13 1 12 14
M  V30 14 1 12 15
M  V30 15 1 13 16
M  V30 16 1 15 17
M  V30 17 1 16 18
M  V30 18 1 17 19
M  V30 19 1 17 20
M  V30 20 1 18 21
M  V30 21 1 19 22
M  V30 22 1 19 23
M  V30 23 1 21 24
M  V30 24 2 22 25
M  V30 25 1 22 26
M  V30 26 1 26 27
M  V30 27 1 6 7
M  V30 28 1 11 13
M  V30 29 1 16 17
M  V30 30 1 19 21
M  V30 31 1 3 28
M  V30 32 1 4 29
M  V30 33 1 6 30
M  V30 34 1 8 31
M  V30 35 1 8 32
M  V30 36 1 9 33
M  V30 37 1 10 34
M  V30 38 1 10 35
M  V30 39 1 10 36
M  V30 40 1 11 37
M  V30 41 1 11 38
M  V30 42 1 12 39
M  V30 43 1 13 40
M  V30 44 1 14 41
M  V30 45 1 15 42
M  V30 46 1 15 43
M  V30 47 1 16 44
M  V30 48 1 18 45
M  V30 49 1 18 46
M  V30 50 1 20 47
M  V30 51 1 20 48
M  V30 52 1 20 49
M  V30 53 1 21 50
M  V30 54 1 23 51
M  V30 55 1 23 52
M  V30 56 1 23 53
M  V30 57 1 24 54
M  V30 58 1 24 55
M  V30 59 1 24 56
M  V30 60 1 26 57
M  V30 61 1 26 58
M  V30 62 1 27 59
M  V30 63 1 27 60
M  V30 64 1 27 61
M  V30 END BOND
M  V30 BEGIN COLLECTION
M  V30 MDLV30/STEABS ATOMS=(5 9 12 13 16 21)
M  V30 END COLLECTION
M  V30 END CTAB
M  END
>  <NO.>
2947

>  <Name>


>  <SMILES>
CCC(=O)C1(C)[C@@H](C)C[C@H]2[C@@H]3CCC4=CC(=O)C=CC4(C)[C@H]3[C@@H](O)CC21C

>  <logBB>


>  <Class>
1

>  <MW>
370.25

>  <nHBAcc>
3

>  <nHBDon>
1

>  <SLogP>
4.5

>  <TopoPSA>
54.37

>  <MMFF94 Energy>
112.39

$$$$
CCCCCCn1ccc(=O)c(O)c1C
Actelion Java MolfileCreator 2.0

  0  0  0  0  0  0              0 V3000
M  V30 BEGIN CTAB
M  V30 COUNTS 34 34 0 0 0
M  V30 BEGIN ATOM
M  V30 1 O -3.9809 1.8718 -3.8246 0
M  V30 2 C -3.2899 1.2743 -3.0036 0
M  V30 3 C -2.2118 0.3026 -3.4017 0
M  V30 4 C -3.4998 1.5142 -1.5647 0
M  V30 5 O -2.0342 0.113 -4.7601 0
M  V30 6 C -1.4963 -0.316 -2.4253 0
M  V30 7 C -2.7173 0.8636 -0.7032 0
M  V30 8 N -1.7187 -0.0398 -1.0491 0
M  V30 9 C -0.4522 -1.3605 -2.7638 0
M  V30 10 C -0.8991 -0.6269 0.0361 0
M  V30 11 C 0.2959 0.2765 0.3534 0
M  V30 12 C 1.1678 -0.3236 1.4583 0
M  V30 13 C 2.3576 0.5836 1.7792 0
M  V30 14 C 3.3206 -0.0192 2.804 0
M  V30 15 C 2.7083 -0.19 4.1857 0
M  V30 16 H -4.27 2.2126 -1.2722 0
M  V30 17 H -1.1423 -0.2197 -4.9279 0
M  V30 18 H -2.8373 1.0272 0.3648 0
M  V30 19 H 0.5381 -1.0375 -2.4289 0
M  V30 20 H -0.3721 -1.5839 -3.8297 0
M  V30 21 H -0.6987 -2.3129 -2.2825 0
M  V30 22 H -1.5142 -0.7517 0.9375 0
M  V30 23 H -0.5596 -1.6361 -0.2175 0
M  V30 24 H -0.0605 1.2664 0.6644 0
M  V30 25 H 0.8996 0.431 -0.5485 0
M  V30 26 H 1.5314 -1.309 1.1434 0
M  V30 27 H 0.5566 -0.4728 2.3554 0
M  V30 28 H 1.9963 1.5541 2.1407 0
M  V30 29 H 2.9182 0.7791 0.8567 0
M  V30 30 H 3.6887 -0.9875 2.4459 0
M  V30 31 H 4.1931 0.6394 2.8893 0
M  V30 32 H 3.4701 -0.5314 4.894 0
M  V30 33 H 2.3021 0.7566 4.5557 0
M  V30 34 H 1.9058 -0.9332 4.1802 0
M  V30 END ATOM
M  V30 BEGIN BOND
M  V30 1 2 1 2
M  V30 2 1 2 3
M  V30 3 1 2 4
M  V30 4 1 3 5
M  V30 5 2 3 6
M  V30 6 2 4 7
M  V30 7 1 6 8
M  V30 8 1 6 9
M  V30 9 1 8 10
M  V30 10 1 10 11
M  V30 11 1 11 12
M  V30 12 1 12 13
M  V30 13 1 13 14
M  V30 14 1 14 15
M  V30 15 1 7 8
M  V30 16 1 4 16
M  V30 17 1 5 17
M  V30 18 1 7 18
M  V30 19 1 9 19
M  V30 20 1 9 20
M  V30 21 1 9 21
M  V30 22 1 10 22
M  V30 23 1 10 23
M  V30 24 1 11 24
M  V30 25 1 11 25
M  V30 26 1 12 26
M  V30 27 1 12 27
M  V30 28 1 13 28
M  V30 29 1 13 29
M  V30 30 1 14 30
M  V30 31 1 14 31
M  V30 32 1 15 32
M  V30 33 1 15 33
M  V30 34 1 15 34
M  V30 END BOND
M  V30 END CTAB
M  END
>  <NO.>
3016

>  <Name>
cp25

>  <SMILES>
CCCCCCn1ccc(=O)c(O)c1C

>  <logBB>


>  <Class>
1

>  <MW>
209.14

>  <nHBAcc>
2

>  <nHBDon>
1

>  <SLogP>
2.44

>  <TopoPSA>
42.23

>  <MMFF94 Energy>
47.777

$$$$
CCCN(CCC)CCc1ccc(O)c2c1CC(C)=N2
Actelion Java MolfileCreator 2.0

  0  0  0  0  0  0              0 V3000
M  V30 BEGIN CTAB
M  V30 COUNTS 46 47 0 0 0
M  V30 BEGIN ATOM
M  V30 1 O -4.8648 1.1752 -3.4505 0
M  V30 2 C -3.8582 0.7012 -2.6644 0
M  V30 3 C -3.4323 1.4226 -1.5646 0
M  V30 4 C -3.2478 -0.5096 -2.9608 0
M  V30 5 N -3.9448 2.6635 -1.1388 0
M  V30 6 C -2.4003 0.9451 -0.7541 0
M  V30 7 C -2.2072 -0.9877 -2.143 0
M  V30 8 C -3.2508 2.9691 -0.0761 0
M  V30 9 C -1.7683 -0.2643 -1.0177 0
M  V30 10 C -2.1872 1.9517 0.3254 0
M  V30 11 C -3.4561 4.2164 0.7139 0
M  V30 12 C -0.6364 -0.7765 -0.1647 0
M  V30 13 C 0.7294 -0.2985 -0.688 0
M  V30 14 N 1.8586 -0.6565 0.1975 0
M  V30 15 C 3.0788 0.0478 -0.2404 0
M  V30 16 C 2.0678 -2.1162 0.2598 0
M  V30 17 C 4.1857 0.0719 0.8245 0
M  V30 18 C 1.6873 -2.6383 1.6482 0
M  V30 19 C 3.7741 0.8069 2.093 0
M  V30 20 C 1.8719 -4.1453 1.7423 0
M  V30 21 H -5.1177 2.0249 -3.0342 0
M  V30 22 H -3.5742 -1.0831 -3.8234 0
M  V30 23 H -1.7406 -1.9381 -2.3965 0
M  V30 24 H -2.4087 1.5526 1.3179 0
M  V30 25 H -1.1962 2.4091 0.2803 0
M  V30 26 H -2.5301 4.7971 0.7197 0
M  V30 27 H -4.2568 4.8182 0.2764 0
M  V30 28 H -3.7219 3.9541 1.7411 0
M  V30 29 H -0.6863 -1.8715 -0.1393 0
M  V30 30 H -0.7808 -0.4442 0.8709 0
M  V30 31 H 0.9016 -0.6773 -1.7047 0
M  V30 32 H 0.682 0.7956 -0.7706 0
M  V30 33 H 2.8408 1.0947 -0.4709 0
M  V30 34 H 3.4661 -0.3923 -1.1685 0
M  V30 35 H 3.1128 -2.3863 0.0625 0
M  V30 36 H 1.4926 -2.6427 -0.5125 0
M  V30 37 H 4.5082 -0.9426 1.0821 0
M  V30 38 H 5.062 0.5761 0.3993 0
M  V30 39 H 2.3085 -2.1572 2.4128 0
M  V30 40 H 0.6447 -2.395 1.8808 0
M  V30 41 H 4.6138 0.8455 2.7942 0
M  V30 42 H 3.4734 1.8355 1.8693 0
M  V30 43 H 2.9411 0.307 2.5959 0
M  V30 44 H 1.5998 -4.4986 2.7418 0
M  V30 45 H 1.2393 -4.6637 1.0147 0
M  V30 46 H 2.9133 -4.4256 1.5549 0
M  V30 END ATOM
M  V30 BEGIN BOND
M  V30 1 1 1 2
M  V30 2 2 2 3
M  V30 3 1 2 4
M  V30 4 1 3 5
M  V30 5 1 3 6
M  V30 6 2 4 7
M  V30 7 2 5 8
M  V30 8 2 6 9
M  V30 9 1 6 10
M  V30 10 1 8 11
M  V30 11 1 9 12
M  V30 12 1 12 13
M  V30 13 1 13 14
M  V30 14 1 14 15
M  V30 15 1 14 16
M  V30 16 1 15 17
M  V30 17 1 16 18
M  V30 18 1 17 19
M  V30 19 1 18 20
M  V30 20 1 7 9
M  V30 21 1 8 10
M  V30 22 1 1 21
M  V30 23 1 4 22
M  V30 24 1 7 23
M  V30 25 1 10 24
M  V30 26 1 10 25
M  V30 27 1 11 26
M  V30 28 1 11 27
M  V30 29 1 11 28
M  V30 30 1 12 29
M  V30 31 1 12 30
M  V30 32 1 13 31
M  V30 33 1 13 32
M  V30 34 1 15 33
M  V30 35 1 15 34
M  V30 36 1 16 35
M  V30 37 1 16 36
M  V30 38 1 17 37
M  V30 39 1 17 38
M  V30 40 1 18 39
M  V30 41 1 18 40
M  V30 42 1 19 41
M  V30 43 1 19 42
M  V30 44 1 19 43
M  V30 45 1 20 44
M  V30 46 1 20 45
M  V30 47 1 20 46
M  V30 END BOND
M  V30 END CTAB
M  END
>  <NO.>
3033

>  <Name>


>  <SMILES>
CCCN(CCC)CCc1ccc(O)c2c1CC(C)=N2

>  <logBB>


>  <Class>
1

>  <MW>
274.2

>  <nHBAcc>
3

>  <nHBDon>
1

>  <SLogP>
3.71

>  <TopoPSA>
35.83

>  <MMFF94 Energy>
46.966

$$$$
CCCNC(=O)c1ccc2c(c1)N(CCN1CCCC1)c1ccccc1S2
Actelion Java MolfileCreator 2.0

  0  0  0  0  0  0              0 V3000
M  V30 BEGIN CTAB
M  V30 COUNTS 54 57 0 0 0
M  V30 BEGIN ATOM
M  V30 1 S 0.1607 0.4018 4.0236 0
M  V30 2 C 0.6565 -0.4066 2.5241 0
M  V30 3 C -1.3888 1.1397 3.5713 0
M  V30 4 C -0.1404 -0.4709 1.3632 0
M  V30 5 C 1.9276 -1.0168 2.574 0
M  V30 6 C -1.9997 0.9762 2.3115 0
M  V30 7 C -1.9844 1.9325 4.5755 0
M  V30 8 N -1.4179 0.1616 1.2917 0
M  V30 9 C 0.4078 -1.1974 0.2811 0
M  V30 10 C 2.4387 -1.7142 1.4847 0
M  V30 11 C -3.205 1.692 2.118 0
M  V30 12 C -3.1833 2.5972 4.3519 0
M  V30 13 C -2.2632 -0.1444 0.1067 0
M  V30 14 C 1.6681 -1.8201 0.3342 0
M  V30 15 C -3.7907 2.4831 3.115 0
M  V30 16 C -1.957 0.6932 -1.1652 0
M  V30 17 C 2.1417 -2.5504 -0.8745 0
M  V30 18 N -2.2809 2.1288 -1.1049 0
M  V30 19 O 1.7354 -2.223 -1.984 0
M  V30 20 N 3.0106 -3.5995 -0.6602 0
M  V30 21 C -2.493 2.6934 -2.4427 0
M  V30 22 C -1.1772 2.9318 -0.5588 0
M  V30 23 C 3.552 -4.3744 -1.7583 0
M  V30 24 C -2.4152 4.1935 -2.2062 0
M  V30 25 C -1.5598 4.3506 -0.9554 0
M  V30 26 C 4.7903 -3.7101 -2.352 0
M  V30 27 C 5.3782 -4.538 -3.4825 0
M  V30 28 H 2.5335 -0.9419 3.4762 0
M  V30 29 H -1.5031 2.0409 5.5457 0
M  V30 30 H -0.1304 -1.3092 -0.6543 0
M  V30 31 H 3.4353 -2.1382 1.5491 0
M  V30 32 H -3.7196 1.6935 1.1618 0
M  V30 33 H -3.6276 3.2088 5.1318 0
M  V30 34 H -3.3345 -0.0858 0.3322 0
M  V30 35 H -2.1663 -1.2094 -0.1461 0
M  V30 36 H -4.7162 3.0142 2.9076 0
M  V30 37 H -0.9222 0.5517 -1.496 0
M  V30 38 H -2.579 0.2423 -1.9514 0
M  V30 39 H 3.2409 -3.8863 0.2804 0
M  V30 40 H -3.462 2.4038 -2.8617 0
M  V30 41 H -1.704 2.3856 -3.1413 0
M  V30 42 H -1.0673 2.8518 0.5234 0
M  V30 43 H -0.2166 2.6697 -1.0213 0
M  V30 44 H 2.7782 -4.5015 -2.5237 0
M  V30 45 H 3.8014 -5.3637 -1.3599 0
M  V30 46 H -3.4122 4.6142 -2.0301 0
M  V30 47 H -1.9779 4.7127 -3.065 0
M  V30 48 H -2.1462 4.8307 -0.1629 0
M  V30 49 H -0.6759 4.9689 -1.1415 0
M  V30 50 H 4.5388 -2.711 -2.7276 0
M  V30 51 H 5.5476 -3.5707 -1.5711 0
M  V30 52 H 6.2652 -4.0448 -3.8921 0
M  V30 53 H 5.6743 -5.5307 -3.1287 0
M  V30 54 H 4.654 -4.6638 -4.2938 0
M  V30 END ATOM
M  V30 BEGIN BOND
M  V30 1 1 1 2
M  V30 2 1 1 3
M  V30 3 2 2 4
M  V30 4 1 2 5
M  V30 5 2 3 6
M  V30 6 1 3 7
M  V30 7 1 4 8
M  V30 8 1 4 9
M  V30 9 2 5 10
M  V30 10 1 6 11
M  V30 11 2 7 12
M  V30 12 1 8 13
M  V30 13 2 9 14
M  V30 14 2 11 15
M  V30 15 1 13 16
M  V30 16 1 14 17
M  V30 17 1 16 18
M  V30 18 2 17 19
M  V30 19 1 17 20
M  V30 20 1 18 21
M  V30 21 1 18 22
M  V30 22 1 20 23
M  V30 23 1 21 24
M  V30 24 1 22 25
M  V30 25 1 23 26
M  V30 26 1 26 27
M  V30 27 1 6 8
M  V30 28 1 10 14
M  V30 29 1 12 15
M  V30 30 1 24 25
M  V30 31 1 5 28
M  V30 32 1 7 29
M  V30 33 1 9 30
M  V30 34 1 10 31
M  V30 35 1 11 32
M  V30 36 1 12 33
M  V30 37 1 13 34
M  V30 38 1 13 35
M  V30 39 1 15 36
M  V30 40 1 16 37
M  V30 41 1 16 38
M  V30 42 1 20 39
M  V30 43 1 21 40
M  V30 44 1 21 41
M  V30 45 1 22 42
M  V30 46 1 22 43
M  V30 47 1 23 44
M  V30 48 1 23 45
M  V30 49 1 24 46
M  V30 50 1 24 47
M  V30 51 1 25 48
M  V30 52 1 25 49
M  V30 53 1 26 50
M  V30 54 1 26 51
M  V30 55 1 27 52
M  V30 56 1 27 53
M  V30 57 1 27 54
M  V30 END BOND
M  V30 END CTAB
M  END
>  <NO.>
3040

>  <Name>
apadoline

>  <SMILES>
CCCNC(=O)c1ccc2c(c1)N(CCN1CCCC1)c1ccccc1S2

>  <logBB>


>  <Class>
1

>  <MW>
381.19

>  <nHBAcc>
4

>  <nHBDon>
1

>  <SLogP>
4.52

>  <TopoPSA>
35.58

>  <MMFF94 Energy>
80.604

$$$$
CCCOC(=O)Cc1ccc(OCC(=O)N(CC)CC)c(OC)c1
Actelion Java MolfileCreator 2.0

  0  0  0  0  0  0              0 V3000
M  V30 BEGIN CTAB
M  V30 COUNTS 51 51 0 0 0
M  V30 BEGIN ATOM
M  V30 1 O 4.382 -2.737 -0.625 0
M  V30 2 C 3.6098 -2.3102 -1.4739 0
M  V30 3 O 3.7418 -1.122 -2.1298 0
M  V30 4 C 2.361 -3.0268 -1.9249 0
M  V30 5 C 4.8849 -0.3545 -1.7307 0
M  V30 6 C 1.1286 -2.5577 -1.1942 0
M  V30 7 C 4.8766 0.9476 -2.5217 0
M  V30 8 C 0.3275 -1.5368 -1.7312 0
M  V30 9 C 0.7881 -3.1136 0.0438 0
M  V30 10 C 6.0564 1.8333 -2.1645 0
M  V30 11 C -0.8069 -1.0832 -1.0484 0
M  V30 12 C -0.3383 -2.6644 0.7343 0
M  V30 13 O -1.6332 -0.0818 -1.4934 0
M  V30 14 C -1.1273 -1.6414 0.2012 0
M  V30 15 C -1.4984 0.3156 -2.8507 0
M  V30 16 O -2.2621 -1.1799 0.8227 0
M  V30 17 C -2.1477 -1.0282 2.2333 0
M  V30 18 C -3.3043 -0.177 2.7617 0
M  V30 19 O -4.2132 -0.7126 3.4046 0
M  V30 20 N -3.2807 1.1979 2.5307 0
M  V30 21 C -4.3866 2.004 3.046 0
M  V30 22 C -2.2459 1.8959 1.7648 0
M  V30 23 C -5.5266 2.1029 2.0441 0
M  V30 24 C -1.1779 2.4882 2.6715 0
M  V30 25 H 2.5071 -4.1032 -1.7715 0
M  V30 26 H 2.246 -2.9059 -3.0091 0
M  V30 27 H 5.7981 -0.9214 -1.9459 0
M  V30 28 H 4.8277 -0.1428 -0.6565 0
M  V30 29 H 4.8891 0.7255 -3.5954 0
M  V30 30 H 3.9383 1.4842 -2.3361 0
M  V30 31 H 0.6166 -1.1008 -2.6825 0
M  V30 32 H 1.3965 -3.9047 0.4792 0
M  V30 33 H 6.0253 2.7597 -2.7464 0
M  V30 34 H 6.0403 2.0986 -1.1026 0
M  V30 35 H 7.0041 1.3293 -2.3786 0
M  V30 36 H -0.5928 -3.1411 1.6756 0
M  V30 37 H -0.5547 0.8471 -3.0098 0
M  V30 38 H -2.3124 1.0109 -3.0776 0
M  V30 39 H -1.5914 -0.5385 -3.5296 0
M  V30 40 H -1.1982 -0.562 2.5209 0
M  V30 41 H -2.2225 -2.0079 2.7199 0
M  V30 42 H -4.014 3.0028 3.2972 0
M  V30 43 H -4.7633 1.5598 3.9742 0
M  V30 44 H -2.7218 2.6874 1.1755 0
M  V30 45 H -1.7705 1.2195 1.0548 0
M  V30 46 H -5.9232 1.1122 1.7992 0
M  V30 47 H -5.1939 2.5684 1.111 0
M  V30 48 H -6.3421 2.706 2.4548 0
M  V30 49 H -0.6917 1.7116 3.2702 0
M  V30 50 H -1.6058 3.2208 3.3631 0
M  V30 51 H -0.4109 2.9917 2.0752 0
M  V30 END ATOM
M  V30 BEGIN BOND
M  V30 1 2 1 2
M  V30 2 1 2 3
M  V30 3 1 2 4
M  V30 4 1 3 5
M  V30 5 1 4 6
M  V30 6 1 5 7
M  V30 7 2 6 8
M  V30 8 1 6 9
M  V30 9 1 7 10
M  V30 10 1 8 11
M  V30 11 2 9 12
M  V30 12 1 11 13
M  V30 13 2 11 14
M  V30 14 1 13 15
M  V30 15 1 14 16
M  V30 16 1 16 17
M  V30 17 1 17 18
M  V30 18 2 18 19
M  V30 19 1 18 20
M  V30 20 1 20 21
M  V30 21 1 20 22
M  V30 22 1 21 23
M  V30 23 1 22 24
M  V30 24 1 12 14
M  V30 25 1 4 25
M  V30 26 1 4 26
M  V30 27 1 5 27
M  V30 28 1 5 28
M  V30 29 1 7 29
M  V30 30 1 7 30
M  V30 31 1 8 31
M  V30 32 1 9 32
M  V30 33 1 10 33
M  V30 34 1 10 34
M  V30 35 1 10 35
M  V30 36 1 12 36
M  V30 37 1 15 37
M  V30 38 1 15 38
M  V30 39 1 15 39
M  V30 40 1 17 40
M  V30 41 1 17 41
M  V30 42 1 21 42
M  V30 43 1 21 43
M  V30 44 1 22 44
M  V30 45 1 22 45
M  V30 46 1 23 46
M  V30 47 1 23 47
M  V30 48 1 23 48
M  V30 49 1 24 49
M  V30 50 1 24 50
M  V30 51 1 24 51
M  V30 END BOND
M  V30 END CTAB
M  END
>  <NO.>
3041

>  <Name>
propanidid

>  <SMILES>
CCCOC(=O)Cc1ccc(OCC(=O)N(CC)CC)c(OC)c1

>  <logBB>


>  <Class>
1

>  <MW>
337.19

>  <nHBAcc>
5

>  <nHBDon>
0

>  <SLogP>
2.44

>  <TopoPSA>
65.07

>  <MMFF94 Energy>
62.328

$$$$
CCC[C@@H]1OC1(CC)C(N)=O
Actelion Java MolfileCreator 2.0

  0  0  0  0  0  0              0 V3000
M  V30 BEGIN CTAB
M  V30 COUNTS 26 26 0 0 0
M  V30 BEGIN ATOM
M  V30 1 O 0.6999 3.1919 -0.6999 0
M  V30 2 C 0.2949 2.5113 0.2369 0
M  V30 3 N -0.4008 3.1014 1.2529 0
M  V30 4 C 0.5006 1.0171 0.2933 0
M  V30 5 O 1.7789 0.5831 -0.2291 0
M  V30 6 C 0.6606 0.3331 -1.0799 0 CFG=1
M  V30 7 C 0.0723 0.203 1.498 0
M  V30 8 C 0.4158 -1.1139 -1.3622 0
M  V30 9 C 0.9889 0.4127 2.6964 0
M  V30 10 C -1.0696 -1.3862 -1.5933 0
M  V30 11 C -1.3279 -2.8518 -1.9015 0
M  V30 12 H -0.5302 4.103 1.1947 0
M  V30 13 H -0.7715 2.614 2.0529 0
M  V30 14 H 0.563 0.9424 -1.9723 0
M  V30 15 H 0.059 -0.8675 1.2751 0
M  V30 16 H -0.9588 0.4583 1.767 0
M  V30 17 H 0.7986 -1.7523 -0.5581 0
M  V30 18 H 0.98 -1.3887 -2.2619 0
M  V30 19 H 2.0114 0.0952 2.4671 0
M  V30 20 H 0.6356 -0.1753 3.5492 0
M  V30 21 H 1.0281 1.4621 3.002 0
M  V30 22 H -1.6476 -1.0957 -0.7082 0
M  V30 23 H -1.4358 -0.771 -2.424 0
M  V30 24 H -2.3966 -3.022 -2.0655 0
M  V30 25 H -0.7918 -3.1635 -2.8035 0
M  V30 26 H -1.0058 -3.4894 -1.072 0
M  V30 END ATOM
M  V30 BEGIN BOND
M  V30 1 2 1 2
M  V30 2 1 2 3
M  V30 3 1 2 4
M  V30 4 1 4 5
M  V30 5 1 4 6
M  V30 6 1 4 7
M  V30 7 1 6 8
M  V30 8 1 7 9
M  V30 9 1 8 10
M  V30 10 1 10 11
M  V30 11 1 5 6
M  V30 12 1 3 12
M  V30 13 1 3 13
M  V30 14 1 6 14
M  V30 15 1 7 15
M  V30 16 1 7 16
M  V30 17 1 8 17
M  V30 18 1 8 18
M  V30 19 1 9 19
M  V30 20 1 9 20
M  V30 21 1 9 21
M  V30 22 1 10 22
M  V30 23 1 10 23
M  V30 24 1 11 24
M  V30 25 1 11 25
M  V30 26 1 11 26
M  V30 END BOND
M  V30 BEGIN COLLECTION
M  V30 MDLV30/STEABS ATOMS=(1 6)
M  V30 END COLLECTION
M  V30 END CTAB
M  END
>  <NO.>
3047

>  <Name>


>  <SMILES>
CCC[C@@H]1OC1(CC)C(N)=O

>  <logBB>


>  <Class>
1

>  <MW>
157.11

>  <nHBAcc>
2

>  <nHBDon>
1

>  <SLogP>
0.82

>  <TopoPSA>
55.62

>  <MMFF94 Energy>
-8.4012

$$$$
CCC[C@H]1O[C@H]2C[C@H]3[C@@H]4CCC5=CC(=O)C=CC5(C)[C@H]4C(O)CC3(C)C2(C(=O)CO)O1
Actelion Java MolfileCreator 2.0

  0  0  0  0  0  0              0 V3000
M  V30 BEGIN CTAB
M  V30 COUNTS 65 69 0 0 0
M  V30 BEGIN ATOM
M  V30 1 O -3.8772 1.9372 -5.4151 0
M  V30 2 C -3.2989 1.4723 -4.4415 0
M  V30 3 C -1.8819 1.0705 -4.5078 0
M  V30 4 C -3.9825 1.2949 -3.1511 0
M  V30 5 C -1.2379 0.5478 -3.4483 0
M  V30 6 C -3.3413 0.7698 -2.0988 0
M  V30 7 C -1.8869 0.3004 -2.076 0
M  V30 8 C 0.2249 0.2298 -3.5567 0
M  V30 9 C -1.0343 1.056 -0.9654 0 CFG=1
M  V30 10 C -1.9387 -1.2228 -1.8196 0
M  V30 11 C 0.9903 1.0588 -2.5394 0
M  V30 12 C -1.4327 0.7431 0.5001 0
M  V30 13 C 0.5048 0.7995 -1.0979 0 CFG=1
M  V30 14 O -2.8158 0.9875 0.7382 0
M  V30 15 C -0.6735 1.6325 1.4859 0
M  V30 16 C 1.3354 1.6574 -0.1005 0 CFG=1
M  V30 17 C 0.8591 1.6309 1.3806 0
M  V30 18 C 2.8053 1.1995 0.0052 0
M  V30 19 C 1.5647 0.3682 1.9707 0
M  V30 20 C 1.3654 2.9209 2.0856 0
M  V30 21 C 2.8603 0.2044 1.1633 0 CFG=1
M  V30 22 O 0.8356 -0.832 1.7017 0
M  V30 23 C 1.8589 0.4515 3.4829 0
M  V30 24 O 2.8598 -1.1344 0.6571 0
M  V30 25 C 1.8234 -1.804 1.3603 0 CFG=2
M  V30 26 O 2.9305 0.8728 3.9313 0
M  V30 27 C 0.7443 0.0559 4.4453 0
M  V30 28 C 1.2381 -2.9155 0.4988 0
M  V30 29 O 1.2297 -0.064 5.7766 0
M  V30 30 C 0.0715 -3.63 1.1791 0
M  V30 31 C -0.4791 -4.7471 0.3071 0
M  V30 32 H -1.3988 1.2481 -5.4618 0
M  V30 33 H -5.0222 1.5948 -3.1075 0
M  V30 34 H -3.9281 0.6358 -1.1945 0
M  V30 35 H 0.6114 0.4516 -4.5589 0
M  V30 36 H 0.3972 -0.8394 -3.3926 0
M  V30 37 H -1.2077 2.1315 -1.1298 0
M  V30 38 H -2.5013 -1.4652 -0.9104 0
M  V30 39 H -2.4305 -1.7495 -2.6475 0
M  V30 40 H -0.943 -1.6603 -1.7086 0
M  V30 41 H 0.8873 2.1258 -2.7783 0
M  V30 42 H 2.0517 0.8174 -2.6467 0
M  V30 43 H -1.2606 -0.3136 0.7166 0
M  V30 44 H 0.6895 -0.2568 -0.883 0
M  V30 45 H -3.0216 0.6897 1.6416 0
M  V30 46 H -0.9849 1.3816 2.5062 0
M  V30 47 H -1.0414 2.6593 1.3398 0
M  V30 48 H 1.3135 2.6901 -0.4752 0
M  V30 49 H 3.425 2.0704 0.2519 0
M  V30 50 H 3.2075 0.7738 -0.9159 0
M  V30 51 H 0.9893 2.9853 3.1129 0
M  V30 52 H 2.4577 2.9755 2.1281 0
M  V30 53 H 1.0157 3.8175 1.5603 0
M  V30 54 H 3.7855 0.3454 1.7301 0
M  V30 55 H 2.2398 -2.2248 2.2845 0
M  V30 56 H -0.0291 0.8257 4.4375 0
M  V30 57 H 0.3176 -0.9075 4.1603 0
M  V30 58 H 0.8986 -2.4998 -0.4561 0
M  V30 59 H 2.0305 -3.6317 0.2486 0
M  V30 60 H 2.0196 0.5108 5.8373 0
M  V30 61 H 0.4003 -4.0488 2.1372 0
M  V30 62 H -0.7344 -2.9192 1.3942 0
M  V30 63 H -1.3118 -5.2465 0.8121 0
M  V30 64 H -0.8465 -4.3549 -0.6465 0
M  V30 65 H 0.2901 -5.4969 0.0975 0
M  V30 END ATOM
M  V30 BEGIN BOND
M  V30 1 2 1 2
M  V30 2 1 2 3
M  V30 3 1 2 4
M  V30 4 2 3 5
M  V30 5 2 4 6
M  V30 6 1 5 7
M  V30 7 1 5 8
M  V30 8 1 7 9
M  V30 9 1 7 10
M  V30 10 1 8 11
M  V30 11 1 9 12
M  V30 12 1 9 13
M  V30 13 1 12 14
M  V30 14 1 12 15
M  V30 15 1 13 16
M  V30 16 1 15 17
M  V30 17 1 16 18
M  V30 18 1 17 19
M  V30 19 1 17 20
M  V30 20 1 18 21
M  V30 21 1 19 22
M  V30 22 1 19 23
M  V30 23 1 21 24
M  V30 24 1 22 25
M  V30 25 2 23 26
M  V30 26 1 23 27
M  V30 27 1 25 28
M  V30 28 1 27 29
M  V30 29 1 28 30
M  V30 30 1 30 31
M  V30 31 1 6 7
M  V30 32 1 11 13
M  V30 33 1 16 17
M  V30 34 1 19 21
M  V30 35 1 24 25
M  V30 36 1 3 32
M  V30 37 1 4 33
M  V30 38 1 6 34
M  V30 39 1 8 35
M  V30 40 1 8 36
M  V30 41 1 9 37
M  V30 42 1 10 38
M  V30 43 1 10 39
M  V30 44 1 10 40
M  V30 45 1 11 41
M  V30 46 1 11 42
M  V30 47 1 12 43
M  V30 48 1 13 44
M  V30 49 1 14 45
M  V30 50 1 15 46
M  V30 51 1 15 47
M  V30 52 1 16 48
M  V30 53 1 18 49
M  V30 54 1 18 50
M  V30 55 1 20 51
M  V30 56 1 20 52
M  V30 57 1 20 53
M  V30 58 1 21 54
M  V30 59 1 25 55
M  V30 60 1 27 56
M  V30 61 1 27 57
M  V30 62 1 28 58
M  V30 63 1 28 59
M  V30 64 1 29 60
M  V30 65 1 30 61
M  V30 66 1 30 62
M  V30 67 1 31 63
M  V30 68 1 31 64
M  V30 69 1 31 65
M  V30 END BOND
M  V30 BEGIN COLLECTION
M  V30 MDLV30/STEABS ATOMS=(5 9 13 16 21 25)
M  V30 END COLLECTION
M  V30 END CTAB
M  END
>  <NO.>
3057

>  <Name>


>  <SMILES>
CCC[C@H]1O[C@H]2C[C@H]3[C@@H]4CCC5=CC(=O)C=CC5(C)[C@H]4C(O)CC3(C)C2(C(=O)CO)O1

>  <logBB>


>  <Class>
1

>  <MW>
430.24

>  <nHBAcc>
6

>  <nHBDon>
2

>  <SLogP>
2.72

>  <TopoPSA>
93.06

>  <MMFF94 Energy>
127.52

$$$$
CCN(CC)C(=O)Nc1ccc(OC[C@@H](O)CNC(C)(C)C)c(C(C)=O)c1
Actelion Java MolfileCreator 2.0

  0  0  0  0  0  0              0 V3000
M  V30 BEGIN CTAB
M  V30 COUNTS 60 60 0 0 0
M  V30 BEGIN ATOM
M  V30 1 O 3.3517 2.1035 2.4935 0
M  V30 2 C 2.5846 2.2242 3.4468 0
M  V30 3 N 3.0568 2.5886 4.7129 0
M  V30 4 N 1.2248 2.0168 3.3695 0
M  V30 5 C 4.4924 2.8594 4.8368 0
M  V30 6 C 2.2636 2.6471 5.9459 0
M  V30 7 C 0.487 1.5699 2.2537 0
M  V30 8 C 5.2867 1.6263 5.2354 0
M  V30 9 C 1.918 1.271 6.4956 0
M  V30 10 C -0.9034 1.6884 2.3142 0
M  V30 11 C 1.0566 0.9942 1.121 0
M  V30 12 C -1.716 1.2507 1.2521 0
M  V30 13 C 0.256 0.5756 0.0488 0
M  V30 14 C -1.1351 0.7084 0.0949 0
M  V30 15 C -3.1862 1.4124 1.4379 0
M  V30 16 O -1.9699 0.3711 -0.9349 0
M  V30 17 O -3.6059 2.3481 2.119 0
M  V30 18 C -4.1322 0.412 0.8275 0
M  V30 19 C -1.3857 -0.1981 -2.1177 0
M  V30 20 C -2.5306 -0.4887 -3.0986 0 CFG=1
M  V30 21 O -3.1909 0.7402 -3.4375 0
M  V30 22 C -2.0308 -1.1491 -4.3968 0
M  V30 23 N -1.4613 -2.4776 -4.1468 0
M  V30 24 C -0.8094 -3.1249 -5.303 0
M  V30 25 C -1.7746 -3.3153 -6.4843 0
M  V30 26 C -0.3537 -4.5143 -4.8152 0
M  V30 27 C 0.4344 -2.3445 -5.759 0
M  V30 28 H 0.6773 2.3021 4.1624 0
M  V30 29 H 4.641 3.6635 5.5661 0
M  V30 30 H 4.8794 3.2349 3.8827 0
M  V30 31 H 1.3468 3.2136 5.7535 0
M  V30 32 H 2.818 3.2132 6.7029 0
M  V30 33 H 5.1163 0.8017 4.5359 0
M  V30 34 H 5.0093 1.2832 6.2362 0
M  V30 35 H 6.3573 1.8529 5.2448 0
M  V30 36 H 2.8195 0.7004 6.7353 0
M  V30 37 H 1.3356 0.682 5.7811 0
M  V30 38 H 1.3274 1.3696 7.4118 0
M  V30 39 H -1.3766 2.1267 3.1911 0
M  V30 40 H 2.1312 0.8575 1.0345 0
M  V30 41 H 0.7677 0.1566 -0.8125 0
M  V30 42 H -4.4535 0.7555 -0.1585 0
M  V30 43 H -3.6739 -0.5781 0.7622 0
M  V30 44 H -5.0094 0.3164 1.4752 0
M  V30 45 H -0.8602 -1.124 -1.86 0
M  V30 46 H -0.6986 0.53 -2.565 0
M  V30 47 H -3.2851 -1.1211 -2.6152 0
M  V30 48 H -3.3475 1.2067 -2.5948 0
M  V30 49 H -2.8739 -1.2178 -5.0942 0
M  V30 50 H -1.2995 -0.4769 -4.8583 0
M  V30 51 H -2.2066 -3.0885 -3.8071 0
M  V30 52 H -2.0686 -2.3592 -6.9305 0
M  V30 53 H -1.3085 -3.9109 -7.2779 0
M  V30 54 H -2.6866 -3.8381 -6.1737 0
M  V30 55 H -1.2042 -5.1255 -4.4903 0
M  V30 56 H 0.1592 -5.0646 -5.6125 0
M  V30 57 H 0.3418 -4.4337 -3.9713 0
M  V30 58 H 0.175 -1.3839 -6.2159 0
M  V30 59 H 1.1109 -2.1478 -4.9192 0
M  V30 60 H 0.9986 -2.912 -6.5084 0
M  V30 END ATOM
M  V30 BEGIN BOND
M  V30 1 2 1 2
M  V30 2 1 2 3
M  V30 3 1 2 4
M  V30 4 1 3 5
M  V30 5 1 3 6
M  V30 6 1 4 7
M  V30 7 1 5 8
M  V30 8 1 6 9
M  V30 9 2 7 10
M  V30 10 1 7 11
M  V30 11 1 10 12
M  V30 12 2 11 13
M  V30 13 2 12 14
M  V30 14 1 12 15
M  V30 15 1 14 16
M  V30 16 2 15 17
M  V30 17 1 15 18
M  V30 18 1 16 19
M  V30 19 1 19 20
M  V30 20 1 20 21
M  V30 21 1 20 22
M  V30 22 1 22 23
M  V30 23 1 23 24
M  V30 24 1 24 25
M  V30 25 1 24 26
M  V30 26 1 24 27
M  V30 27 1 13 14
M  V30 28 1 4 28
M  V30 29 1 5 29
M  V30 30 1 5 30
M  V30 31 1 6 31
M  V30 32 1 6 32
M  V30 33 1 8 33
M  V30 34 1 8 34
M  V30 35 1 8 35
M  V30 36 1 9 36
M  V30 37 1 9 37
M  V30 38 1 9 38
M  V30 39 1 10 39
M  V30 40 1 11 40
M  V30 41 1 13 41
M  V30 42 1 18 42
M  V30 43 1 18 43
M  V30 44 1 18 44
M  V30 45 1 19 45
M  V30 46 1 19 46
M  V30 47 1 20 47
M  V30 48 1 21 48
M  V30 49 1 22 49
M  V30 50 1 22 50
M  V30 51 1 23 51
M  V30 52 1 25 52
M  V30 53 1 25 53
M  V30 54 1 25 54
M  V30 55 1 26 55
M  V30 56 1 26 56
M  V30 57 1 26 57
M  V30 58 1 27 58
M  V30 59 1 27 59
M  V30 60 1 27 60
M  V30 END BOND
M  V30 BEGIN COLLECTION
M  V30 MDLV30/STEABS ATOMS=(1 20)
M  V30 END COLLECTION
M  V30 END CTAB
M  END
>  <NO.>
3068

>  <Name>
(s)-celiprolol

>  <SMILES>
CCN(CC)C(=O)Nc1ccc(OC[C@@H](O)CNC(C)(C)C)c(C(C)=O)c1

>  <logBB>


>  <Class>
-1

>  <MW>
379.25

>  <nHBAcc>
5

>  <nHBDon>
3

>  <SLogP>
2.89

>  <TopoPSA>
90.9

>  <MMFF94 Energy>
13.601

$$$$
CCN(CC)CCOC(=O)[C@@H]1N2C(=O)C(NC(=O)c3c(OC)cccc3OC)[C@@H]2SC1(C)C
Actelion Java MolfileCreator 2.0

  0  0  0  0  0  0              0 V3000
M  V30 BEGIN CTAB
M  V30 COUNTS 66 68 0 0 0
M  V30 BEGIN ATOM
M  V30 1 S -0.2402 -0.6408 -3.0469 0
M  V30 2 C -1.2236 0.5324 -1.9523 0
M  V30 3 C -1.1392 -2.1583 -2.4844 0 CFG=2
M  V30 4 C -2.4773 -0.28 -1.5544 0 CFG=1
M  V30 5 C -0.3014 0.9501 -0.8008 0
M  V30 6 C -1.5725 1.7533 -2.8138 0
M  V30 7 N -2.0496 -1.667 -1.4502 0
M  V30 8 C -0.4443 -3.0144 -1.396 0
M  V30 9 C -3.3395 0.1882 -0.3757 0
M  V30 10 C -1.3288 -2.1931 -0.416 0
M  V30 11 N 1.0198 -2.8274 -1.2407 0
M  V30 12 O -4.0945 -0.5348 0.2641 0
M  V30 13 O -3.268 1.5355 -0.2183 0
M  V30 14 O -1.3347 -1.9343 0.7647 0
M  V30 15 C 1.819 -3.772 -0.6369 0
M  V30 16 C -3.9912 2.0466 0.9138 0
M  V30 17 O 1.4054 -4.8686 -0.2793 0
M  V30 18 C 3.2294 -3.3685 -0.4075 0
M  V30 19 C -3.758 3.5626 1.0153 0
M  V30 20 C 3.5443 -2.1062 0.1215 0
M  V30 21 C 4.2732 -4.2589 -0.6941 0
M  V30 22 N -2.3292 3.8961 1.2333 0
M  V30 23 O 2.5812 -1.1712 0.4094 0
M  V30 24 C 4.8758 -1.7232 0.308 0
M  V30 25 O 4.03 -5.4754 -1.2775 0
M  V30 26 C 5.6058 -3.8754 -0.504 0
M  V30 27 C -2.0453 4.2466 2.6379 0
M  V30 28 C -1.914 4.9728 0.3143 0
M  V30 29 C 2.0699 -1.3753 1.7316 0
M  V30 30 C 5.9057 -2.6104 6.0E-4 0
M  V30 31 C 4.1099 -6.5196 -0.3053 0
M  V30 32 C -2.3182 3.1214 3.6309 0
M  V30 33 C -0.403 5.1756 0.253 0
M  V30 34 H -1.6438 -2.7155 -3.2785 0
M  V30 35 H -3.176 -0.2734 -2.4046 0
M  V30 36 H 0.0267 0.1051 -0.1922 0
M  V30 37 H 0.6006 1.4496 -1.1752 0
M  V30 38 H -0.7903 1.6604 -0.1288 0
M  V30 39 H -2.1915 1.4803 -3.6763 0
M  V30 40 H -2.1283 2.5015 -2.2401 0
M  V30 41 H -0.6717 2.2507 -3.1928 0
M  V30 42 H -0.7301 -4.0723 -1.4344 0
M  V30 43 H 1.4357 -1.9278 -1.4706 0
M  V30 44 H -3.6653 1.5305 1.8222 0
M  V30 45 H -5.0615 1.8625 0.7634 0
M  V30 46 H -4.1102 3.9953 0.0694 0
M  V30 47 H -4.3965 3.994 1.7959 0
M  V30 48 H 5.1081 -0.7317 0.6887 0
M  V30 49 H 6.4104 -4.556 -0.7706 0
M  V30 50 H -0.9836 4.4906 2.7487 0
M  V30 51 H -2.6099 5.139 2.9366 0
M  V30 52 H -2.2239 4.7106 -0.7055 0
M  V30 53 H -2.4085 5.9191 0.5671 0
M  V30 54 H 1.5758 -2.3476 1.8259 0
M  V30 55 H 1.3267 -0.5965 1.9263 0
M  V30 56 H 2.8655 -1.2794 2.4785 0
M  V30 57 H 6.9418 -2.3118 0.14 0
M  V30 58 H 5.1549 -6.7274 -0.0529 0
M  V30 59 H 3.6815 -7.4234 -0.7486 0
M  V30 60 H 3.5432 -6.2837 0.6024 0
M  V30 61 H -1.9605 3.4092 4.6254 0
M  V30 62 H -1.7947 2.2041 3.342 0
M  V30 63 H -3.3868 2.9056 3.7209 0
M  V30 64 H -0.1535 5.8571 -0.5672 0
M  V30 65 H 0.1158 4.2291 0.0694 0
M  V30 66 H -0.009 5.6179 1.1724 0
M  V30 END ATOM
M  V30 BEGIN BOND
M  V30 1 1 1 2
M  V30 2 1 1 3
M  V30 3 1 2 4
M  V30 4 1 2 5
M  V30 5 1 2 6
M  V30 6 1 3 7
M  V30 7 1 3 8
M  V30 8 1 4 9
M  V30 9 1 7 10
M  V30 10 1 8 11
M  V30 11 2 9 12
M  V30 12 1 9 13
M  V30 13 2 10 14
M  V30 14 1 11 15
M  V30 15 1 13 16
M  V30 16 2 15 17
M  V30 17 1 15 18
M  V30 18 1 16 19
M  V30 19 2 18 20
M  V30 20 1 18 21
M  V30 21 1 19 22
M  V30 22 1 20 23
M  V30 23 1 20 24
M  V30 24 1 21 25
M  V30 25 2 21 26
M  V30 26 1 22 27
M  V30 27 1 22 28
M  V30 28 1 23 29
M  V30 29 2 24 30
M  V30 30 1 25 31
M  V30 31 1 27 32
M  V30 32 1 28 33
M  V30 33 1 4 7
M  V30 34 1 8 10
M  V30 35 1 26 30
M  V30 36 1 3 34
M  V30 37 1 4 35
M  V30 38 1 5 36
M  V30 39 1 5 37
M  V30 40 1 5 38
M  V30 41 1 6 39
M  V30 42 1 6 40
M  V30 43 1 6 41
M  V30 44 1 8 42
M  V30 45 1 11 43
M  V30 46 1 16 44
M  V30 47 1 16 45
M  V30 48 1 19 46
M  V30 49 1 19 47
M  V30 50 1 24 48
M  V30 51 1 26 49
M  V30 52 1 27 50
M  V30 53 1 27 51
M  V30 54 1 28 52
M  V30 55 1 28 53
M  V30 56 1 29 54
M  V30 57 1 29 55
M  V30 58 1 29 56
M  V30 59 1 30 57
M  V30 60 1 31 58
M  V30 61 1 31 59
M  V30 62 1 31 60
M  V30 63 1 32 61
M  V30 64 1 32 62
M  V30 65 1 32 63
M  V30 66 1 33 64
M  V30 67 1 33 65
M  V30 68 1 33 66
M  V30 END BOND
M  V30 BEGIN COLLECTION
M  V30 MDLV30/STEABS ATOMS=(2 3 4)
M  V30 END COLLECTION
M  V30 END CTAB
M  END
>  <NO.>
3074

>  <Name>


>  <SMILES>
CCN(CC)CCOC(=O)[C@@H]1N2C(=O)C(NC(=O)c3c(OC)cccc3OC)[C@@H]2SC1(C)C

>  <logBB>


>  <Class>
-1

>  <MW>
479.21

>  <nHBAcc>
8

>  <nHBDon>
1

>  <SLogP>
1.75

>  <TopoPSA>
97.41

>  <MMFF94 Energy>
111.44

$$$$
CCN[C@H]1C2CCC(C2)C1c1ccccc1
Actelion Java MolfileCreator 2.0

  0  0  0  0  0  0              0 V3000
M  V30 BEGIN CTAB
M  V30 COUNTS 37 39 0 0 0
M  V30 BEGIN ATOM
M  V30 1 N -0.6359 0.0 1.9088 0
M  V30 2 C 0.0852 0.4623 0.713 0 CFG=2
M  V30 3 C -1.1653 1.1055 2.7034 0
M  V30 4 C 0.358 -0.7502 -0.254 0
M  V30 5 C 1.5226 0.9643 1.0263 0
M  V30 6 C -1.918 0.5553 3.9056 0
M  V30 7 C -0.5211 -0.8405 -1.4883 0
M  V30 8 C 1.8964 -0.6462 -0.4665 0
M  V30 9 C 2.3672 -0.3068 0.9504 0
M  V30 10 C 2.0362 1.7437 -0.1958 0
M  V30 11 C -0.0384 -1.3499 -2.704 0
M  V30 12 C -1.8828 -0.5034 -1.415 0
M  V30 13 C 2.2788 0.638 -1.2279 0
M  V30 14 C -0.8719 -1.4629 -3.8205 0
M  V30 15 C -2.7173 -0.6166 -2.5297 0
M  V30 16 C -2.2098 -1.0902 -3.7351 0
M  V30 17 H -0.0302 -0.5837 2.4842 0
M  V30 18 H -0.4932 1.2475 0.211 0
M  V30 19 H -1.8551 1.708 2.1017 0
M  V30 20 H -0.3625 1.76 3.0579 0
M  V30 21 H 0.1792 -1.6915 0.2893 0
M  V30 22 H 1.6223 1.5308 1.9542 0
M  V30 23 H -2.7495 -0.0854 3.5932 0
M  V30 24 H -1.2574 -0.0301 4.5539 0
M  V30 25 H -2.331 1.3769 4.4998 0
M  V30 26 H 2.3461 -1.5502 -0.8839 0
M  V30 27 H 2.0945 -1.0629 1.6932 0
M  V30 28 H 3.4435 -0.1129 1.0103 0
M  V30 29 H 2.9768 2.2561 0.0363 0
M  V30 30 H 1.3218 2.4927 -0.5515 0
M  V30 31 H 0.995 -1.6706 -2.8032 0
M  V30 32 H -2.3155 -0.1592 -0.4771 0
M  V30 33 H 3.3385 0.6161 -1.5074 0
M  V30 34 H 1.6987 0.8005 -2.1396 0
M  V30 35 H -0.475 -1.8503 -4.755 0
M  V30 36 H -3.766 -0.3434 -2.4497 0
M  V30 37 H -2.8585 -1.1816 -4.6015 0
M  V30 END ATOM
M  V30 BEGIN BOND
M  V30 1 1 1 2
M  V30 2 1 1 3
M  V30 3 1 2 4
M  V30 4 1 2 5
M  V30 5 1 3 6
M  V30 6 1 4 7
M  V30 7 1 4 8
M  V30 8 1 5 9
M  V30 9 1 5 10
M  V30 10 2 7 11
M  V30 11 1 7 12
M  V30 12 1 8 13
M  V30 13 1 11 14
M  V30 14 2 12 15
M  V30 15 2 14 16
M  V30 16 1 8 9
M  V30 17 1 10 13
M  V30 18 1 15 16
M  V30 19 1 1 17
M  V30 20 1 2 18
M  V30 21 1 3 19
M  V30 22 1 3 20
M  V30 23 1 4 21
M  V30 24 1 5 22
M  V30 25 1 6 23
M  V30 26 1 6 24
M  V30 27 1 6 25
M  V30 28 1 8 26
M  V30 29 1 9 27
M  V30 30 1 9 28
M  V30 31 1 10 29
M  V30 32 1 10 30
M  V30 33 1 11 31
M  V30 34 1 12 32
M  V30 35 1 13 33
M  V30 36 1 13 34
M  V30 37 1 14 35
M  V30 38 1 15 36
M  V30 39 1 16 37
M  V30 END BOND
M  V30 BEGIN COLLECTION
M  V30 MDLV30/STEABS ATOMS=(1 2)
M  V30 END COLLECTION
M  V30 END CTAB
M  END
>  <NO.>
3091

>  <Name>


>  <SMILES>
CCN[C@H]1C2CCC(C2)C1c1ccccc1

>  <logBB>


>  <Class>
1

>  <MW>
215.17

>  <nHBAcc>
1

>  <nHBDon>
1

>  <SLogP>
3.18

>  <TopoPSA>
12.03

>  <MMFF94 Energy>
58.881

$$$$
CCOc1cc(N)c([N+](=O)[O-])cc1C(=O)NC1CCN(C[C@@H]2CC=CCC2)CC1
Actelion Java MolfileCreator 2.0

  0  0  0  0  0  0              0 V3000
M  V30 BEGIN CTAB
M  V30 COUNTS 59 61 0 0 0
M  V30 BEGIN ATOM
M  V30 1 O 1.4264 -3.0132 7.2275 0
M  V30 2 N 2.437 -2.3564 6.94 0 CHG=1
M  V30 3 O 3.4741 -2.3278 7.6215 0 CHG=-1
M  V30 4 C 2.4022 -1.5657 5.7068 0
M  V30 5 C 3.1434 -0.3788 5.587 0
M  V30 6 C 1.6067 -2.036 4.6516 0
M  V30 7 N 3.8917 0.1813 6.6175 0
M  V30 8 C 3.0105 0.3506 4.3933 0
M  V30 9 C 1.514 -1.3147 3.4491 0
M  V30 10 C 2.2197 -0.1006 3.3207 0
M  V30 11 C 0.6428 -1.9211 2.3852 0
M  V30 12 O 2.0888 0.5914 2.143 0
M  V30 13 O 0.0728 -2.9874 2.5964 0
M  V30 14 N 0.5168 -1.2428 1.1968 0
M  V30 15 C 2.8169 1.8085 1.9764 0
M  V30 16 C -0.3274 -1.705 0.1051 0
M  V30 17 C 2.5131 2.3397 0.5868 0
M  V30 18 C -1.7785 -1.2678 0.318 0
M  V30 19 C 0.2036 -1.1931 -1.2346 0
M  V30 20 C -2.642 -1.6397 -0.8873 0
M  V30 21 C -0.7419 -1.5706 -2.3742 0
M  V30 22 N -2.1277 -1.1275 -2.1686 0
M  V30 23 C -2.3288 0.3258 -2.2969 0
M  V30 24 C -2.0897 0.8879 -3.7156 0 CFG=2
M  V30 25 C -2.3392 2.4116 -3.7182 0
M  V30 26 C -2.9734 0.2098 -4.7751 0
M  V30 27 C -2.3986 3.0013 -5.0971 0
M  V30 28 C -2.6932 0.7657 -6.1747 0
M  V30 29 C -2.5436 2.2582 -6.2033 0
M  V30 30 H 1.0518 -2.9684 4.7619 0
M  V30 31 H 4.5021 0.9702 6.4479 0
M  V30 32 H 4.1317 -0.4069 7.4171 0
M  V30 33 H 3.5478 1.292 4.324 0
M  V30 34 H 0.9841 -0.3459 1.1113 0
M  V30 35 H 3.8935 1.6231 2.0616 0
M  V30 36 H 2.4966 2.5471 2.7198 0
M  V30 37 H -0.2927 -2.8023 0.0981 0
M  V30 38 H 3.0457 3.2766 0.402 0
M  V30 39 H 2.8038 1.6102 -0.1763 0
M  V30 40 H 1.4384 2.5133 0.467 0
M  V30 41 H -1.8259 -0.1868 0.5004 0
M  V30 42 H -2.1861 -1.7453 1.2174 0
M  V30 43 H 0.343 -0.1052 -1.2016 0
M  V30 44 H 1.1957 -1.6203 -1.4255 0
M  V30 45 H -2.7093 -2.7335 -0.9544 0
M  V30 46 H -3.6715 -1.2973 -0.726 0
M  V30 47 H -0.7457 -2.6637 -2.481 0
M  V30 48 H -0.3434 -1.2013 -3.3244 0
M  V30 49 H -3.3692 0.5549 -2.0287 0
M  V30 50 H -1.7026 0.876 -1.5846 0
M  V30 51 H -1.0389 0.7311 -3.9918 0
M  V30 52 H -1.5358 2.9036 -3.1565 0
M  V30 53 H -3.2794 2.6502 -3.2059 0
M  V30 54 H -2.8105 -0.8737 -4.7893 0
M  V30 55 H -4.0312 0.3672 -4.5262 0
M  V30 56 H -2.3194 4.0822 -5.1823 0
M  V30 57 H -1.7732 0.3198 -6.5709 0
M  V30 58 H -3.508 0.4693 -6.845 0
M  V30 59 H -2.5621 2.7406 -7.1773 0
M  V30 END ATOM
M  V30 BEGIN BOND
M  V30 1 2 1 2
M  V30 2 1 2 3
M  V30 3 1 2 4
M  V30 4 2 4 5
M  V30 5 1 4 6
M  V30 6 1 5 7
M  V30 7 1 5 8
M  V30 8 2 6 9
M  V30 9 2 8 10
M  V30 10 1 9 11
M  V30 11 1 10 12
M  V30 12 2 11 13
M  V30 13 1 11 14
M  V30 14 1 12 15
M  V30 15 1 14 16
M  V30 16 1 15 17
M  V30 17 1 16 18
M  V30 18 1 16 19
M  V30 19 1 18 20
M  V30 20 1 19 21
M  V30 21 1 20 22
M  V30 22 1 22 23
M  V30 23 1 23 24
M  V30 24 1 24 25
M  V30 25 1 24 26
M  V30 26 1 25 27
M  V30 27 1 26 28
M  V30 28 2 27 29
M  V30 29 1 9 10
M  V30 30 1 21 22
M  V30 31 1 28 29
M  V30 32 1 6 30
M  V30 33 1 7 31
M  V30 34 1 7 32
M  V30 35 1 8 33
M  V30 36 1 14 34
M  V30 37 1 15 35
M  V30 38 1 15 36
M  V30 39 1 16 37
M  V30 40 1 17 38
M  V30 41 1 17 39
M  V30 42 1 17 40
M  V30 43 1 18 41
M  V30 44 1 18 42
M  V30 45 1 19 43
M  V30 46 1 19 44
M  V30 47 1 20 45
M  V30 48 1 20 46
M  V30 49 1 21 47
M  V30 50 1 21 48
M  V30 51 1 23 49
M  V30 52 1 23 50
M  V30 53 1 24 51
M  V30 54 1 25 52
M  V30 55 1 25 53
M  V30 56 1 26 54
M  V30 57 1 26 55
M  V30 58 1 27 56
M  V30 59 1 28 57
M  V30 60 1 28 58
M  V30 61 1 29 59
M  V30 END BOND
M  V30 BEGIN COLLECTION
M  V30 MDLV30/STEABS ATOMS=(1 24)
M  V30 END COLLECTION
M  V30 END CTAB
M  END
>  <NO.>
3110

>  <Name>
unii-w133552kfe

>  <SMILES>
CCOc1cc(N)c([N+](=O)[O-])cc1C(=O)NC1CCN(C[C@@H]2CC=CCC2)CC1

>  <logBB>


>  <Class>
1

>  <MW>
402.23

>  <nHBAcc>
6

>  <nHBDon>
2

>  <SLogP>
3.13

>  <TopoPSA>
110.73

>  <MMFF94 Energy>
67.493

$$$$
CC[C@@H]1C(C)=NN=C(c2ccc(OC)c(OC)c2)c2cc(OC)c(OC)cc21
Actelion Java MolfileCreator 2.0

  0  0  0  0  0  0              0 V3000
M  V30 BEGIN CTAB
M  V30 COUNTS 54 56 0 0 0
M  V30 BEGIN ATOM
M  V30 1 O 2.3807 1.0311 -3.1753 0
M  V30 2 C 1.3029 0.4487 -2.5552 0
M  V30 3 C 2.942 2.1906 -2.5759 0
M  V30 4 C 0.7144 -0.6406 -3.2294 0
M  V30 5 C 0.7832 0.8624 -1.3275 0
M  V30 6 O 1.2887 -0.9806 -4.4298 0
M  V30 7 C -0.3973 -1.2912 -2.6735 0
M  V30 8 C -0.3112 0.1905 -0.7691 0
M  V30 9 C 0.7605 -2.0978 -5.1291 0
M  V30 10 C -0.9195 -0.8927 -1.4344 0
M  V30 11 C -0.8199 0.5931 0.5772 0
M  V30 12 C -2.1792 -1.4799 -0.8091 0 CFG=1
M  V30 13 N -2.0764 0.757 0.8877 0
M  V30 14 C 0.1752 0.7641 1.6855 0
M  V30 15 C -3.1922 -0.3289 -0.8329 0
M  V30 16 C -2.7333 -2.7914 -1.3932 0
M  V30 17 N -3.0701 0.7317 -0.0906 0
M  V30 18 C -0.0666 1.7365 2.6643 0
M  V30 19 C 1.3166 -0.038 1.77 0
M  V30 20 C -4.3024 -0.3322 -1.8557 0
M  V30 21 C -1.855 -3.998 -1.0805 0
M  V30 22 C 0.8389 1.9258 3.7137 0
M  V30 23 C 2.2274 0.1486 2.8133 0
M  V30 24 O 0.6871 2.8625 4.707 0
M  V30 25 C 2.0007 1.1294 3.7853 0
M  V30 26 C -0.5358 3.5856 4.7448 0
M  V30 27 O 2.8419 1.384 4.8398 0
M  V30 28 C 4.0099 0.5859 4.962 0
M  V30 29 H 2.2035 2.9957 -2.5018 0
M  V30 30 H 3.7525 2.5417 -3.2217 0
M  V30 31 H 3.3743 1.9574 -1.5974 0
M  V30 32 H 1.2089 1.7029 -0.7902 0
M  V30 33 H -0.8711 -2.1026 -3.2122 0
M  V30 34 H 0.8411 -3.0127 -4.5331 0
M  V30 35 H 1.3578 -2.2382 -6.035 0
M  V30 36 H -0.2736 -1.9154 -5.4385 0
M  V30 37 H -1.9625 -1.7044 0.2446 0
M  V30 38 H -3.7214 -2.9874 -0.9576 0
M  V30 39 H -2.8869 -2.719 -2.4756 0
M  V30 40 H -0.9664 2.3384 2.5793 0
M  V30 41 H 1.5088 -0.8217 1.0419 0
M  V30 42 H -3.8781 -0.4433 -2.8569 0
M  V30 43 H -4.8629 0.6063 -1.8153 0
M  V30 44 H -4.9922 -1.1551 -1.655 0
M  V30 45 H -2.3118 -4.9076 -1.4835 0
M  V30 46 H -0.8575 -3.9034 -1.5176 0
M  V30 47 H -1.7432 -4.1296 5.0E-4 0
M  V30 48 H 3.1027 -0.4917 2.8419 0
M  V30 49 H -0.6375 4.2314 3.8667 0
M  V30 50 H -0.5154 4.2299 5.6291 0
M  V30 51 H -1.3934 2.9121 4.8446 0
M  V30 52 H 3.7546 -0.4691 5.1045 0
M  V30 53 H 4.5514 0.9195 5.8524 0
M  V30 54 H 4.6722 0.7209 4.1007 0
M  V30 END ATOM
M  V30 BEGIN BOND
M  V30 1 1 1 2
M  V30 2 1 1 3
M  V30 3 2 2 4
M  V30 4 1 2 5
M  V30 5 1 4 6
M  V30 6 1 4 7
M  V30 7 2 5 8
M  V30 8 1 6 9
M  V30 9 2 7 10
M  V30 10 1 8 11
M  V30 11 1 10 12
M  V30 12 2 11 13
M  V30 13 1 11 14
M  V30 14 1 12 15
M  V30 15 1 12 16
M  V30 16 1 13 17
M  V30 17 2 14 18
M  V30 18 1 14 19
M  V30 19 1 15 20
M  V30 20 1 16 21
M  V30 21 1 18 22
M  V30 22 2 19 23
M  V30 23 1 22 24
M  V30 24 2 22 25
M  V30 25 1 24 26
M  V30 26 1 25 27
M  V30 27 1 27 28
M  V30 28 1 8 10
M  V30 29 2 15 17
M  V30 30 1 23 25
M  V30 31 1 3 29
M  V30 32 1 3 30
M  V30 33 1 3 31
M  V30 34 1 5 32
M  V30 35 1 7 33
M  V30 36 1 9 34
M  V30 37 1 9 35
M  V30 38 1 9 36
M  V30 39 1 12 37
M  V30 40 1 16 38
M  V30 41 1 16 39
M  V30 42 1 18 40
M  V30 43 1 19 41
M  V30 44 1 20 42
M  V30 45 1 20 43
M  V30 46 1 20 44
M  V30 47 1 21 45
M  V30 48 1 21 46
M  V30 49 1 21 47
M  V30 50 1 23 48
M  V30 51 1 26 49
M  V30 52 1 26 50
M  V30 53 1 26 51
M  V30 54 1 28 52
M  V30 55 1 28 53
M  V30 56 1 28 54
M  V30 END BOND
M  V30 BEGIN COLLECTION
M  V30 MDLV30/STEABS ATOMS=(1 12)
M  V30 END COLLECTION
M  V30 END CTAB
M  END
>  <NO.>
3115

>  <Name>
levotofisopam

>  <SMILES>
CC[C@@H]1C(C)=NN=C(c2ccc(OC)c(OC)c2)c2cc(OC)c(OC)cc21

>  <logBB>


>  <Class>
1

>  <MW>
382.19

>  <nHBAcc>
6

>  <nHBDon>
0

>  <SLogP>
4.44

>  <TopoPSA>
61.64

>  <MMFF94 Energy>
153.89

$$$$
CC[C@H](C)C(=O)O[C@H]1C[C@H](O)C=C2C=C[C@H](C)[C@H](CC[C@H](O)C[C@H](O)CC(=O)O)[C@@H]21
Actelion Java MolfileCreator 2.0

  0  0  0  0  0  0              0 V3000
M  V30 BEGIN CTAB
M  V30 COUNTS 66 67 0 0 0
M  V30 BEGIN ATOM
M  V30 1 O -1.1844 -2.37 0.1578 0
M  V30 2 C -0.1451 -2.6324 -0.4315 0
M  V30 3 O 1.0862 -2.1475 -0.1018 0
M  V30 4 C -0.0289 -3.5632 -1.6251 0 CFG=2
M  V30 5 C 1.1263 -1.2225 1.0063 0 CFG=2
M  V30 6 C -1.3159 -3.5757 -2.4637 0
M  V30 7 C 0.2987 -4.9635 -1.1139 0
M  V30 8 C 2.4057 -0.3583 0.873 0 CFG=2
M  V30 9 C 1.1631 -2.0076 2.3226 0
M  V30 10 C -1.5854 -2.242 -3.1495 0
M  V30 11 C 2.717 0.4119 2.1514 0
M  V30 12 C 2.3853 0.584 -0.3745 0 CFG=2
M  V30 13 C 1.2068 -1.056 3.5169 0 CFG=1
M  V30 14 C 3.6408 1.5258 2.0416 0
M  V30 15 C 2.1493 0.0912 3.3279 0
M  V30 16 C 3.7695 1.2962 -0.4513 0 CFG=2
M  V30 17 C 1.1787 1.5668 -0.3486 0
M  V30 18 O -0.0798 -0.491 3.7421 0
M  V30 19 C 4.1441 1.9308 0.8659 0
M  V30 20 C 3.8772 2.2893 -1.6118 0
M  V30 21 C 0.1347 1.2008 -1.4161 0
M  V30 22 C -1.1812 1.9837 -1.3171 0 CFG=2
M  V30 23 O -0.8966 3.3779 -1.3858 0
M  V30 24 C -1.9709 1.6545 -0.0392 0
M  V30 25 C -3.3784 2.2704 -0.0497 0 CFG=2
M  V30 26 O -3.2568 3.698 -0.1092 0
M  V30 27 C -4.1635 1.871 1.1982 0
M  V30 28 C -5.6355 2.0826 0.9845 0
M  V30 29 O -6.296 1.7041 0.0317 0
M  V30 30 O -6.2229 2.7242 2.0131 0
M  V30 31 H 0.7928 -3.2095 -2.2608 0
M  V30 32 H 0.2344 -0.5853 0.9886 0
M  V30 33 H -1.2362 -4.3487 -3.2377 0
M  V30 34 H -2.1799 -3.8379 -1.8408 0
M  V30 35 H 0.4332 -5.662 -1.9461 0
M  V30 36 H -0.4997 -5.3481 -0.4695 0
M  V30 37 H 1.2223 -4.9594 -0.5247 0
M  V30 38 H 3.2445 -1.0549 0.7132 0
M  V30 39 H 0.2911 -2.6686 2.391 0
M  V30 40 H 2.0436 -2.6637 2.3274 0
M  V30 41 H -2.471 -2.3207 -3.7882 0
M  V30 42 H -1.7704 -1.4463 -2.4218 0
M  V30 43 H -0.74 -1.9453 -3.7782 0
M  V30 44 H 2.3084 -0.045 -1.2722 0
M  V30 45 H 1.488 -1.6145 4.4165 0
M  V30 46 H 3.939 2.0395 2.9528 0
M  V30 47 H 2.3568 0.6797 4.2183 0
M  V30 48 H 4.5256 0.5217 -0.6466 0
M  V30 49 H 1.4955 2.5993 -0.5196 0
M  V30 50 H 0.7151 1.5736 0.6419 0
M  V30 51 H -0.7065 -1.2267 3.8501 0
M  V30 52 H 4.8636 2.746 0.8532 0
M  V30 53 H 4.9239 2.5742 -1.7712 0
M  V30 54 H 3.3217 3.2145 -1.4303 0
M  V30 55 H 3.5124 1.8423 -2.5424 0
M  V30 56 H -0.0883 0.1303 -1.3793 0
M  V30 57 H 0.5827 1.3982 -2.3987 0
M  V30 58 H -1.79 1.7299 -2.1933 0
M  V30 59 H -1.7559 3.8398 -1.2913 0
M  V30 60 H -1.4338 2.0495 0.8314 0
M  V30 61 H -2.051 0.5667 0.0701 0
M  V30 62 H -3.9029 1.9544 -0.9584 0
M  V30 63 H -2.812 3.9955 0.7075 0
M  V30 64 H -3.8359 2.4616 2.0617 0
M  V30 65 H -4.0295 0.8107 1.439 0
M  V30 66 H -7.1634 2.7907 1.7442 0
M  V30 END ATOM
M  V30 BEGIN BOND
M  V30 1 2 1 2
M  V30 2 1 2 3
M  V30 3 1 2 4
M  V30 4 1 3 5
M  V30 5 1 4 6
M  V30 6 1 4 7
M  V30 7 1 5 8
M  V30 8 1 5 9
M  V30 9 1 6 10
M  V30 10 1 8 11
M  V30 11 1 8 12
M  V30 12 1 9 13
M  V30 13 1 11 14
M  V30 14 2 11 15
M  V30 15 1 12 16
M  V30 16 1 12 17
M  V30 17 1 13 18
M  V30 18 2 14 19
M  V30 19 1 16 20
M  V30 20 1 17 21
M  V30 21 1 21 22
M  V30 22 1 22 23
M  V30 23 1 22 24
M  V30 24 1 24 25
M  V30 25 1 25 26
M  V30 26 1 25 27
M  V30 27 1 27 28
M  V30 28 2 28 29
M  V30 29 1 28 30
M  V30 30 1 13 15
M  V30 31 1 16 19
M  V30 32 1 4 31
M  V30 33 1 5 32
M  V30 34 1 6 33
M  V30 35 1 6 34
M  V30 36 1 7 35
M  V30 37 1 7 36
M  V30 38 1 7 37
M  V30 39 1 8 38
M  V30 40 1 9 39
M  V30 41 1 9 40
M  V30 42 1 10 41
M  V30 43 1 10 42
M  V30 44 1 10 43
M  V30 45 1 12 44
M  V30 46 1 13 45
M  V30 47 1 14 46
M  V30 48 1 15 47
M  V30 49 1 16 48
M  V30 50 1 17 49
M  V30 51 1 17 50
M  V30 52 1 18 51
M  V30 53 1 19 52
M  V30 54 1 20 53
M  V30 55 1 20 54
M  V30 56 1 20 55
M  V30 57 1 21 56
M  V30 58 1 21 57
M  V30 59 1 22 58
M  V30 60 1 23 59
M  V30 61 1 24 60
M  V30 62 1 24 61
M  V30 63 1 25 62
M  V30 64 1 26 63
M  V30 65 1 27 64
M  V30 66 1 27 65
M  V30 67 1 30 66
M  V30 END BOND
M  V30 BEGIN COLLECTION
M  V30 MDLV30/STEABS ATOMS=(8 4 5 8 12 13 16 22 25)
M  V30 END COLLECTION
M  V30 END CTAB
M  END
>  <NO.>
3131

>  <Name>


>  <SMILES>
CC[C@H](C)C(=O)O[C@H]1C[C@H](O)C=C2C=C[C@H](C)[C@H](CC[C@H](O)C[C@H](O)CC(=O)O)[C@@H]21

>  <logBB>


>  <Class>
-1

>  <MW>
424.25

>  <nHBAcc>
6

>  <nHBDon>
4

>  <SLogP>
2.44

>  <TopoPSA>
124.29

>  <MMFF94 Energy>
-8.4087

$$$$
CN(C)CC/C=C1/c2ccccc2CNc2cc(Cl)ccc21
Actelion Java MolfileCreator 2.0

  0  0  0  0  0  0              0 V3000
M  V30 BEGIN CTAB
M  V30 COUNTS 43 45 0 0 0
M  V30 BEGIN ATOM
M  V30 1 Cl 3.6014 -3.2809 3.0405 0
M  V30 2 C 2.4903 -2.5764 1.9302 0
M  V30 3 C 1.4169 -1.8248 2.4103 0
M  V30 4 C 2.6627 -2.7762 0.5631 0
M  V30 5 C 0.503 -1.2492 1.5202 0
M  V30 6 C 1.7616 -2.2041 -0.3341 0
M  V30 7 N -0.6278 -0.596 2.0117 0
M  V30 8 C 0.6938 -1.4273 0.1379 0
M  V30 9 C -1.9208 -1.2152 1.7553 0
M  V30 10 C -0.2284 -0.7469 -0.7964 0
M  V30 11 C -2.4449 -1.2431 0.3313 0
M  V30 12 C -1.6794 -1.065 -0.8385 0
M  V30 13 C 0.198 0.321 -1.5118 0
M  V30 14 C -3.8197 -1.549 0.1913 0
M  V30 15 C -2.3006 -1.2202 -2.0963 0
M  V30 16 C 1.5762 0.9355 -1.5476 0
M  V30 17 C -4.4213 -1.6756 -1.0604 0
M  V30 18 C -3.6587 -1.5158 -2.2073 0
M  V30 19 C 1.8572 1.9321 -0.4044 0
M  V30 20 N 1.5697 3.3473 -0.7246 0
M  V30 21 C 2.1043 4.208 0.3354 0
M  V30 22 C 0.1345 3.5936 -0.8736 0
M  V30 23 H 1.2804 -1.7059 3.4811 0
M  V30 24 H 3.4928 -3.3698 0.1907 0
M  V30 25 H 1.8978 -2.353 -1.4025 0
M  V30 26 H -0.5318 -0.1477 2.9145 0
M  V30 27 H -2.6498 -0.6656 2.3648 0
M  V30 28 H -1.9089 -2.245 2.137 0
M  V30 29 H -0.5229 0.8603 -2.1243 0
M  V30 30 H -4.4351 -1.7013 1.077 0
M  V30 31 H -1.7173 -1.1172 -3.0095 0
M  V30 32 H 1.7221 1.4212 -2.5211 0
M  V30 33 H 2.3371 0.1484 -1.5203 0
M  V30 34 H -5.4796 -1.9107 -1.1363 0
M  V30 35 H -4.1133 -1.6256 -3.1879 0
M  V30 36 H 1.3481 1.6292 0.5195 0
M  V30 37 H 2.934 1.8554 -0.2006 0
M  V30 38 H 3.1881 4.0773 0.4299 0
M  V30 39 H 1.6442 4.0005 1.3085 0
M  V30 40 H 1.9403 5.2644 0.0939 0
M  V30 41 H -0.4387 3.258 -0.0019 0
M  V30 42 H -0.2568 3.1018 -1.7679 0
M  V30 43 H -0.0605 4.6629 -1.0176 0
M  V30 END ATOM
M  V30 BEGIN BOND
M  V30 1 1 1 2
M  V30 2 2 2 3
M  V30 3 1 2 4
M  V30 4 1 3 5
M  V30 5 2 4 6
M  V30 6 1 5 7
M  V30 7 2 5 8
M  V30 8 1 7 9
M  V30 9 1 8 10
M  V30 10 1 9 11
M  V30 11 1 10 12
M  V30 12 2 10 13
M  V30 13 1 11 14
M  V30 14 1 12 15
M  V30 15 1 13 16
M  V30 16 2 14 17
M  V30 17 2 15 18
M  V30 18 1 16 19
M  V30 19 1 19 20
M  V30 20 1 20 21
M  V30 21 1 20 22
M  V30 22 1 6 8
M  V30 23 2 11 12
M  V30 24 1 17 18
M  V30 25 1 3 23
M  V30 26 1 4 24
M  V30 27 1 6 25
M  V30 28 1 7 26
M  V30 29 1 9 27
M  V30 30 1 9 28
M  V30 31 1 13 29
M  V30 32 1 14 30
M  V30 33 1 15 31
M  V30 34 1 16 32
M  V30 35 1 16 33
M  V30 36 1 17 34
M  V30 37 1 18 35
M  V30 38 1 19 36
M  V30 39 1 19 37
M  V30 40 1 21 38
M  V30 41 1 21 39
M  V30 42 1 21 40
M  V30 43 1 22 41
M  V30 44 1 22 42
M  V30 45 1 22 43
M  V30 END BOND
M  V30 END CTAB
M  END
>  <NO.>
3154

>  <Name>
elanzepine

>  <SMILES>
CN(C)CC/C=C1/c2ccccc2CNc2cc(Cl)ccc21

>  <logBB>


>  <Class>
1

>  <MW>
312.14

>  <nHBAcc>
2

>  <nHBDon>
1

>  <SLogP>
4.65

>  <TopoPSA>
15.27

>  <MMFF94 Energy>
90.284

$$$$
CN(C)CCC(=O)COc1ccc(Cl)cc1
Actelion Java MolfileCreator 2.0

  0  0  0  0  0  0              0 V3000
M  V30 BEGIN CTAB
M  V30 COUNTS 32 32 0 0 0
M  V30 BEGIN ATOM
M  V30 1 Cl -2.0628 1.1103 6.9154 0
M  V30 2 C -1.6464 1.2505 5.2524 0
M  V30 3 C -1.741 0.138 4.4182 0
M  V30 4 C -1.2168 2.4731 4.7454 0
M  V30 5 C -1.4033 0.2464 3.0641 0
M  V30 6 C -0.8804 2.5785 3.3939 0
M  V30 7 C -0.9711 1.4694 2.547 0
M  V30 8 O -0.6113 1.7149 1.2519 0
M  V30 9 C -0.6806 0.63 0.3399 0
M  V30 10 C -0.2473 1.0648 -1.0588 0
M  V30 11 O 0.0895 2.2155 -1.3405 0
M  V30 12 C -0.2104 -0.023 -2.109 0
M  V30 13 C 1.2173 -0.5463 -2.2456 0
M  V30 14 N 1.2921 -1.781 -3.0468 0
M  V30 15 C 2.6364 -2.3602 -2.9463 0
M  V30 16 C 0.9729 -1.5365 -4.4571 0
M  V30 17 H -2.0769 -0.8167 4.8147 0
M  V30 18 H -1.1408 3.3448 5.3895 0
M  V30 19 H -1.4904 -0.6415 2.4473 0
M  V30 20 H -0.5445 3.5336 2.995 0
M  V30 21 H -1.7124 0.268 0.2616 0
M  V30 22 H -0.0048 -0.1719 0.6579 0
M  V30 23 H -0.5832 0.4019 -3.0473 0
M  V30 24 H -0.9025 -0.821 -1.8167 0
M  V30 25 H 1.8673 0.2352 -2.6617 0
M  V30 26 H 1.5985 -0.7573 -1.2373 0
M  V30 27 H 2.8742 -2.6031 -1.9044 0
M  V30 28 H 3.4083 -1.6823 -3.3287 0
M  V30 29 H 2.6935 -3.3009 -3.5053 0
M  V30 30 H 1.6327 -0.7852 -4.9061 0
M  V30 31 H -0.0636 -1.206 -4.5767 0
M  V30 32 H 1.0632 -2.4624 -5.0369 0
M  V30 END ATOM
M  V30 BEGIN BOND
M  V30 1 1 1 2
M  V30 2 2 2 3
M  V30 3 1 2 4
M  V30 4 1 3 5
M  V30 5 2 4 6
M  V30 6 2 5 7
M  V30 7 1 7 8
M  V30 8 1 8 9
M  V30 9 1 9 10
M  V30 10 2 10 11
M  V30 11 1 10 12
M  V30 12 1 12 13
M  V30 13 1 13 14
M  V30 14 1 14 15
M  V30 15 1 14 16
M  V30 16 1 6 7
M  V30 17 1 3 17
M  V30 18 1 4 18
M  V30 19 1 5 19
M  V30 20 1 6 20
M  V30 21 1 9 21
M  V30 22 1 9 22
M  V30 23 1 12 23
M  V30 24 1 12 24
M  V30 25 1 13 25
M  V30 26 1 13 26
M  V30 27 1 15 27
M  V30 28 1 15 28
M  V30 29 1 15 29
M  V30 30 1 16 30
M  V30 31 1 16 31
M  V30 32 1 16 32
M  V30 END BOND
M  V30 END CTAB
M  END
>  <NO.>
3155

>  <Name>
meclofenoxate

>  <SMILES>
CN(C)CCC(=O)COc1ccc(Cl)cc1

>  <logBB>


>  <Class>
1

>  <MW>
241.09

>  <nHBAcc>
3

>  <nHBDon>
0

>  <SLogP>
2.24

>  <TopoPSA>
29.54

>  <MMFF94 Energy>
40.547

$$$$
CN(C)CCC1(C)OCCC2=C1Cc1ccccc12
Actelion Java MolfileCreator 2.0

  0  0  0  0  0  0              0 V3000
M  V30 BEGIN CTAB
M  V30 COUNTS 42 44 0 0 0
M  V30 BEGIN ATOM
M  V30 1 O 0.5547 1.2684 -1.5064 0
M  V30 2 C -0.2258 0.3791 -0.6623 0 CFG=2
M  V30 3 C 1.9446 1.3638 -1.1726 0
M  V30 4 C 0.177 0.5586 0.7841 0
M  V30 5 C -0.0035 -1.0927 -1.0933 0
M  V30 6 C -1.6809 0.8288 -0.8455 0
M  V30 7 C 2.1483 1.9665 0.2202 0
M  V30 8 C 1.2394 1.2865 1.1704 0
M  V30 9 C -0.5613 -0.0432 1.957 0
M  V30 10 C -0.3096 -1.4118 -2.5677 0
M  V30 11 C 1.3245 1.2496 2.6188 0
M  V30 12 C 0.2674 0.4636 3.1033 0
M  V30 13 N -1.7431 -1.5562 -2.8804 0
M  V30 14 C 2.2294 1.8353 3.486 0
M  V30 15 C 0.0939 0.2463 4.4601 0
M  V30 16 C -2.2977 -2.808 -2.361 0
M  V30 17 C -1.9484 -1.492 -4.3303 0
M  V30 18 C 2.0637 1.6223 4.8581 0
M  V30 19 C 1.0049 0.8341 5.3406 0
M  V30 20 H 2.4172 0.3788 -1.2561 0
M  V30 21 H 2.4192 2.0079 -1.9204 0
M  V30 22 H 1.0526 -1.3497 -0.9363 0
M  V30 23 H -0.5609 -1.7679 -0.4342 0
M  V30 24 H -1.8412 1.8205 -0.4032 0
M  V30 25 H -2.3884 0.1335 -0.3815 0
M  V30 26 H -1.9366 0.9396 -1.9046 0
M  V30 27 H 1.9048 3.0352 0.2028 0
M  V30 28 H 3.1977 1.8604 0.5139 0
M  V30 29 H -0.5481 -1.1361 1.9223 0
M  V30 30 H -1.5857 0.3337 2.025 0
M  V30 31 H 0.1283 -0.6164 -3.1836 0
M  V30 32 H 0.2205 -2.3326 -2.8466 0
M  V30 33 H 3.0464 2.4465 3.1188 0
M  V30 34 H -0.7249 -0.36 4.8322 0
M  V30 35 H -2.2493 -2.8444 -1.2686 0
M  V30 36 H -1.7801 -3.6875 -2.7608 0
M  V30 37 H -3.3602 -2.8914 -2.6179 0
M  V30 38 H -1.4207 -2.2947 -4.8581 0
M  V30 39 H -1.6026 -0.5305 -4.7263 0
M  V30 40 H -3.0149 -1.5608 -4.5726 0
M  V30 41 H 2.7607 2.0728 5.5609 0
M  V30 42 H 0.894 0.6828 6.412 0
M  V30 END ATOM
M  V30 BEGIN BOND
M  V30 1 1 1 2
M  V30 2 1 1 3
M  V30 3 1 2 4
M  V30 4 1 2 5
M  V30 5 1 2 6
M  V30 6 1 3 7
M  V30 7 2 4 8
M  V30 8 1 4 9
M  V30 9 1 5 10
M  V30 10 1 8 11
M  V30 11 1 9 12
M  V30 12 1 10 13
M  V30 13 1 11 14
M  V30 14 1 12 15
M  V30 15 1 13 16
M  V30 16 1 13 17
M  V30 17 2 14 18
M  V30 18 2 15 19
M  V30 19 1 7 8
M  V30 20 2 11 12
M  V30 21 1 18 19
M  V30 22 1 3 20
M  V30 23 1 3 21
M  V30 24 1 5 22
M  V30 25 1 5 23
M  V30 26 1 6 24
M  V30 27 1 6 25
M  V30 28 1 6 26
M  V30 29 1 7 27
M  V30 30 1 7 28
M  V30 31 1 9 29
M  V30 32 1 9 30
M  V30 33 1 10 31
M  V30 34 1 10 32
M  V30 35 1 14 33
M  V30 36 1 15 34
M  V30 37 1 16 35
M  V30 38 1 16 36
M  V30 39 1 16 37
M  V30 40 1 17 38
M  V30 41 1 17 39
M  V30 42 1 17 40
M  V30 43 1 18 41
M  V30 44 1 19 42
M  V30 END BOND
M  V30 BEGIN COLLECTION
M  V30 MDLV30/STERAC1 ATOMS=(1 2)
M  V30 END COLLECTION
M  V30 END CTAB
M  END
>  <NO.>
3156

>  <Name>
pirandamine

>  <SMILES>
CN(C)CCC1(C)OCCC2=C1Cc1ccccc12

>  <logBB>


>  <Class>
1

>  <MW>
257.18

>  <nHBAcc>
2

>  <nHBDon>
0

>  <SLogP>
3.13

>  <TopoPSA>
12.47

>  <MMFF94 Energy>
57.514

$$$$
CN(C)CCCN1Cc2ccccc2Cc2ccccc21
Actelion Java MolfileCreator 2.0

  0  0  0  0  0  0              0 V3000
M  V30 BEGIN CTAB
M  V30 COUNTS 45 47 0 0 0
M  V30 BEGIN ATOM
M  V30 1 N -0.4739 0.2369 -0.3949 0
M  V30 2 C -0.1791 1.5564 -0.74 0
M  V30 3 C -0.8574 -0.6084 -1.5309 0
M  V30 4 C -1.0768 -0.0648 0.91 0
M  V30 5 C 1.0216 1.8222 -1.4197 0
M  V30 6 C -1.0424 2.6255 -0.4658 0
M  V30 7 C 0.2293 -0.9622 -2.5379 0
M  V30 8 C -0.1262 0.2965 2.0557 0
M  V30 9 C 1.3319 3.1296 -1.8262 0
M  V30 10 C 1.9893 0.689 -1.6534 0
M  V30 11 C -0.7278 3.9268 -0.8663 0
M  V30 12 C 1.5033 -0.3624 -2.6258 0
M  V30 13 C -0.111 -1.9527 -3.4873 0
M  V30 14 C -0.7499 0.0556 3.4365 0
M  V30 15 C 0.4574 4.1781 -1.55 0
M  V30 16 C 2.3971 -0.7902 -3.6298 0
M  V30 17 C 0.782 -2.3561 -4.4794 0
M  V30 18 N -1.2128 -1.3222 3.6759 0
M  V30 19 C 2.0395 -1.7749 -4.5491 0
M  V30 20 C -1.966 -1.3863 4.9321 0
M  V30 21 C -0.0973 -2.2716 3.723 0
M  V30 22 H -1.6917 -0.1377 -2.0697 0
M  V30 23 H -1.2393 -1.5622 -1.1435 0
M  V30 24 H -1.2868 -1.1395 0.967 0
M  V30 25 H -2.0428 0.441 1.0216 0
M  V30 26 H -1.9869 2.455 0.041 0
M  V30 27 H 0.1491 1.3568 1.9983 0
M  V30 28 H 0.8126 -0.2599 1.9505 0
M  V30 29 H 2.2598 3.3349 -2.3536 0
M  V30 30 H 2.9398 1.1096 -2.0078 0
M  V30 31 H 2.2325 0.206 -0.6973 0
M  V30 32 H -1.4152 4.7403 -0.6515 0
M  V30 33 H -1.0941 -2.4201 -3.4539 0
M  V30 34 H -0.0305 0.3583 4.209 0
M  V30 35 H -1.6063 0.7377 3.5254 0
M  V30 36 H 0.7013 5.1885 -1.8662 0
M  V30 37 H 3.3898 -0.3498 -3.7009 0
M  V30 38 H 0.4934 -3.1217 -5.1941 0
M  V30 39 H 2.7433 -2.0846 -5.3165 0
M  V30 40 H -2.8372 -0.7226 4.8935 0
M  V30 41 H -1.3538 -1.1039 5.7965 0
M  V30 42 H -2.3533 -2.3978 5.0981 0
M  V30 43 H 0.637 -2.0088 4.4929 0
M  V30 44 H 0.4149 -2.3298 2.7576 0
M  V30 45 H -0.4637 -3.2837 3.9308 0
M  V30 END ATOM
M  V30 BEGIN BOND
M  V30 1 1 1 2
M  V30 2 1 1 3
M  V30 3 1 1 4
M  V30 4 2 2 5
M  V30 5 1 2 6
M  V30 6 1 3 7
M  V30 7 1 4 8
M  V30 8 1 5 9
M  V30 9 1 5 10
M  V30 10 2 6 11
M  V30 11 2 7 12
M  V30 12 1 7 13
M  V30 13 1 8 14
M  V30 14 2 9 15
M  V30 15 1 12 16
M  V30 16 2 13 17
M  V30 17 1 14 18
M  V30 18 2 16 19
M  V30 19 1 18 20
M  V30 20 1 18 21
M  V30 21 1 10 12
M  V30 22 1 11 15
M  V30 23 1 17 19
M  V30 24 1 3 22
M  V30 25 1 3 23
M  V30 26 1 4 24
M  V30 27 1 4 25
M  V30 28 1 6 26
M  V30 29 1 8 27
M  V30 30 1 8 28
M  V30 31 1 9 29
M  V30 32 1 10 30
M  V30 33 1 10 31
M  V30 34 1 11 32
M  V30 35 1 13 33
M  V30 36 1 14 34
M  V30 37 1 14 35
M  V30 38 1 15 36
M  V30 39 1 16 37
M  V30 40 1 17 38
M  V30 41 1 19 39
M  V30 42 1 20 40
M  V30 43 1 20 41
M  V30 44 1 20 42
M  V30 45 1 21 43
M  V30 46 1 21 44
M  V30 47 1 21 45
M  V30 END BOND
M  V30 END CTAB
M  END
>  <NO.>
3158

>  <Name>
propazepine

>  <SMILES>
CN(C)CCCN1Cc2ccccc2Cc2ccccc21

>  <logBB>


>  <Class>
1

>  <MW>
280.19

>  <nHBAcc>
2

>  <nHBDon>
0

>  <SLogP>
3.55

>  <TopoPSA>
6.48

>  <MMFF94 Energy>
70.866

$$$$
CN(C)CC[C@@H](c1ccccc1)c1ccccn1
Actelion Java MolfileCreator 2.0

  0  0  0  0  0  0              0 V3000
M  V30 BEGIN CTAB
M  V30 COUNTS 38 39 0 0 0
M  V30 BEGIN ATOM
M  V30 1 N -2.1241 1.7305 0.8649 0
M  V30 2 C -0.7862 1.5335 1.0037 0
M  V30 3 C -2.655 2.838 1.4283 0
M  V30 4 C 0.0261 2.4414 1.6864 0
M  V30 5 C -0.1534 0.3009 0.3513 0 CFG=2
M  V30 6 C -1.9179 3.7779 2.1269 0
M  V30 7 C -0.5505 3.5736 2.2554 0
M  V30 8 C 0.5451 0.6474 -0.9611 0
M  V30 9 C -1.1738 -0.8489 0.1777 0
M  V30 10 C 1.8921 0.2995 -1.1506 0
M  V30 11 C -0.1361 1.2943 -2.0044 0
M  V30 12 C -0.548 -2.1892 -0.2411 0
M  V30 13 C 2.5422 0.5993 -2.3489 0
M  V30 14 C 0.5162 1.5947 -3.2012 0
M  V30 15 N 0.4971 -2.688 0.6729 0
M  V30 16 C 1.8548 1.2481 -3.3727 0
M  V30 17 C 1.192 -3.8236 0.0599 0
M  V30 18 C -0.0576 -3.0894 1.9679 0
M  V30 19 H -3.7269 2.954 1.2966 0
M  V30 20 H 1.0957 2.2743 1.7674 0
M  V30 21 H 0.6044 -0.0447 1.0683 0
M  V30 22 H -2.3972 4.6501 2.5565 0
M  V30 23 H 0.0651 4.2915 2.7892 0
M  V30 24 H -1.9248 -0.5781 -0.5769 0
M  V30 25 H -1.7337 -0.9899 1.1112 0
M  V30 26 H 2.4389 -0.2209 -0.3666 0
M  V30 27 H -1.1823 1.5723 -1.8856 0
M  V30 28 H -1.3479 -2.9346 -0.3462 0
M  V30 29 H -0.1223 -2.0616 -1.2445 0
M  V30 30 H 3.5843 0.3225 -2.4838 0
M  V30 31 H -0.0223 2.0997 -3.9986 0
M  V30 32 H 2.3613 1.4815 -4.3053 0
M  V30 33 H 1.6644 -3.5233 -0.8821 0
M  V30 34 H 0.5157 -4.662 -0.1429 0
M  V30 35 H 1.9981 -4.1792 0.7115 0
M  V30 36 H -0.8308 -3.8596 1.8665 0
M  V30 37 H -0.4858 -2.2331 2.4984 0
M  V30 38 H 0.7326 -3.4817 2.6183 0
M  V30 END ATOM
M  V30 BEGIN BOND
M  V30 1 2 1 2
M  V30 2 1 1 3
M  V30 3 1 2 4
M  V30 4 1 2 5
M  V30 5 2 3 6
M  V30 6 2 4 7
M  V30 7 1 5 8
M  V30 8 1 5 9
M  V30 9 2 8 10
M  V30 10 1 8 11
M  V30 11 1 9 12
M  V30 12 1 10 13
M  V30 13 2 11 14
M  V30 14 1 12 15
M  V30 15 2 13 16
M  V30 16 1 15 17
M  V30 17 1 15 18
M  V30 18 1 6 7
M  V30 19 1 14 16
M  V30 20 1 3 19
M  V30 21 1 4 20
M  V30 22 1 5 21
M  V30 23 1 6 22
M  V30 24 1 7 23
M  V30 25 1 9 24
M  V30 26 1 9 25
M  V30 27 1 10 26
M  V30 28 1 11 27
M  V30 29 1 12 28
M  V30 30 1 12 29
M  V30 31 1 13 30
M  V30 32 1 14 31
M  V30 33 1 16 32
M  V30 34 1 17 33
M  V30 35 1 17 34
M  V30 36 1 17 35
M  V30 37 1 18 36
M  V30 38 1 18 37
M  V30 39 1 18 38
M  V30 END BOND
M  V30 BEGIN COLLECTION
M  V30 MDLV30/STEABS ATOMS=(1 5)
M  V30 END COLLECTION
M  V30 END CTAB
M  END
>  <NO.>
3163

>  <Name>
(+)-pheniramine

>  <SMILES>
CN(C)CC[C@@H](c1ccccc1)c1ccccn1

>  <logBB>


>  <Class>
-1

>  <MW>
240.16

>  <nHBAcc>
2

>  <nHBDon>
0

>  <SLogP>
3.17

>  <TopoPSA>
16.13

>  <MMFF94 Energy>
58.329

$$$$
CN(C)C[C@@H](O)[C@@H](c1ccccc1)c1cccc(Cl)c1
Actelion Java MolfileCreator 2.0

  0  0  0  0  0  0              0 V3000
M  V30 BEGIN CTAB
M  V30 COUNTS 40 41 0 0 0
M  V30 BEGIN ATOM
M  V30 1 Cl 3.1116 -3.6709 0.8768 0
M  V30 2 C 1.6807 -2.9673 1.5271 0
M  V30 3 C 1.2607 -1.7142 1.0714 0
M  V30 4 C 0.9549 -3.6526 2.497 0
M  V30 5 C 0.0974 -1.1212 1.5864 0
M  V30 6 C -0.2034 -3.082 3.0171 0
M  V30 7 C -0.6274 -1.8301 2.5655 0
M  V30 8 C -0.4357 0.2437 1.1287 0 CFG=2
M  V30 9 C -1.7159 0.1491 0.2931 0
M  V30 10 C 0.6245 1.2124 0.5163 0 CFG=2
M  V30 11 C -2.6724 1.1744 0.3882 0
M  V30 12 C -1.9591 -0.9085 -0.5988 0
M  V30 13 O 0.2818 2.5785 0.8383 0
M  V30 14 C 0.8041 1.1212 -1.02 0
M  V30 15 C -3.8415 1.1366 -0.3733 0
M  V30 16 C -3.1306 -0.9453 -1.3587 0
M  V30 17 N 1.8173 2.0952 -1.507 0
M  V30 18 C -4.0713 0.0755 -1.2451 0
M  V30 19 C 1.6827 2.2609 -2.9596 0
M  V30 20 C 3.1815 1.6545 -1.1957 0
M  V30 21 H 1.858 -1.2191 0.3131 0
M  V30 22 H 1.2836 -4.6265 2.8487 0
M  V30 23 H -0.7802 -3.61 3.7726 0
M  V30 24 H -1.5413 -1.4043 2.9799 0
M  V30 25 H -0.7394 0.725 2.0733 0
M  V30 26 H 1.5798 1.0414 1.0237 0
M  V30 27 H -2.5021 2.0193 1.0546 0
M  V30 28 H -1.243 -1.7189 -0.7131 0
M  V30 29 H 0.8092 3.1141 0.209 0
M  V30 30 H 1.0465 0.1036 -1.3445 0
M  V30 31 H -0.151 1.397 -1.4834 0
M  V30 32 H -4.5699 1.9388 -0.2871 0
M  V30 33 H -3.3083 -1.7731 -2.0404 0
M  V30 34 H -4.9818 0.0458 -1.8376 0
M  V30 35 H 0.6902 2.6504 -3.2127 0
M  V30 36 H 1.8337 1.3184 -3.4985 0
M  V30 37 H 2.4073 2.9936 -3.3324 0
M  V30 38 H 3.4054 0.6704 -1.6231 0
M  V30 39 H 3.3494 1.6093 -0.1157 0
M  V30 40 H 3.9132 2.3717 -1.5853 0
M  V30 END ATOM
M  V30 BEGIN BOND
M  V30 1 1 1 2
M  V30 2 2 2 3
M  V30 3 1 2 4
M  V30 4 1 3 5
M  V30 5 2 4 6
M  V30 6 2 5 7
M  V30 7 1 5 8
M  V30 8 1 8 9
M  V30 9 1 8 10
M  V30 10 2 9 11
M  V30 11 1 9 12
M  V30 12 1 10 13
M  V30 13 1 10 14
M  V30 14 1 11 15
M  V30 15 2 12 16
M  V30 16 1 14 17
M  V30 17 2 15 18
M  V30 18 1 17 19
M  V30 19 1 17 20
M  V30 20 1 6 7
M  V30 21 1 16 18
M  V30 22 1 3 21
M  V30 23 1 4 22
M  V30 24 1 6 23
M  V30 25 1 7 24
M  V30 26 1 8 25
M  V30 27 1 10 26
M  V30 28 1 11 27
M  V30 29 1 12 28
M  V30 30 1 13 29
M  V30 31 1 14 30
M  V30 32 1 14 31
M  V30 33 1 15 32
M  V30 34 1 16 33
M  V30 35 1 18 34
M  V30 36 1 19 35
M  V30 37 1 19 36
M  V30 38 1 19 37
M  V30 39 1 20 38
M  V30 40 1 20 39
M  V30 41 1 20 40
M  V30 END BOND
M  V30 BEGIN COLLECTION
M  V30 MDLV30/STEABS ATOMS=(2 8 10)
M  V30 END COLLECTION
M  V30 END CTAB
M  END
>  <NO.>
3168

>  <Name>
zinc34220987

>  <SMILES>
CN(C)C[C@@H](O)[C@@H](c1ccccc1)c1cccc(Cl)c1

>  <logBB>


>  <Class>
1

>  <MW>
289.12

>  <nHBAcc>
2

>  <nHBDon>
1

>  <SLogP>
3.39

>  <TopoPSA>
23.47

>  <MMFF94 Energy>
94.549

$$$$
CN(C)[C@@H]1C(=O)C(C(=O)NCN2CCCC2)=C(O)C2(O)C(=O)C3=C(O)c4c(O)cccc4C(C)(O)[C@H]3C[C@@H]12
Actelion Java MolfileCreator 2.0

  0  0  0  0  0  0              0 V3000
M  V30 BEGIN CTAB
M  V30 COUNTS 71 75 0 0 0
M  V30 BEGIN ATOM
M  V30 1 O -0.4015 -1.3658 3.216 0
M  V30 2 C -1.1473 -0.7083 2.4918 0
M  V30 3 C -1.3844 0.7358 2.777 0
M  V30 4 C -1.8275 -1.2341 1.1945 0
M  V30 5 C -0.4194 1.4944 3.3166 0
M  V30 6 C -2.6743 1.2632 2.2309 0 CFG=1
M  V30 7 O -3.17 -1.6306 1.4907 0
M  V30 8 C -1.0967 -2.4533 0.6731 0
M  V30 9 C -1.8948 -0.1069 0.1408 0 CFG=1
M  V30 10 O 0.7376 0.9631 3.8433 0
M  V30 11 C -0.5406 2.9761 3.277 0
M  V30 12 C -3.038 2.6542 2.835 0
M  V30 13 C -2.601 1.1807 0.6917 0
M  V30 14 O -1.5587 -3.6361 1.257 0
M  V30 15 C -0.1471 -2.4193 -0.2885 0
M  V30 16 C -0.475 0.1832 -0.4112 0 CFG=1
M  V30 17 C 0.5572 3.8451 3.4579 0
M  V30 18 C -1.8148 3.5534 3.0177 0
M  V30 19 O -3.5714 2.4098 4.155 0
M  V30 20 C -4.2008 3.2856 2.0511 0
M  V30 21 C 0.2548 -1.099 -0.8738 0
M  V30 22 C 0.4759 -3.7137 -0.7297 0
M  V30 23 N -0.5307 1.2409 -1.458 0
M  V30 24 O 1.8224 3.3512 3.6343 0
M  V30 25 C 0.4045 5.2338 3.4289 0
M  V30 26 C -1.9483 4.957 3.0122 0
M  V30 27 O 1.1989 -1.0633 -1.6691 0
M  V30 28 O 0.101 -4.7857 -0.2539 0
M  V30 29 N 1.4587 -3.6288 -1.6702 0
M  V30 30 C 0.7367 1.9578 -1.6068 0
M  V30 31 C -1.04 0.809 -2.7578 0
M  V30 32 C -0.8494 5.7878 3.2135 0
M  V30 33 C 2.136 -4.7847 -2.1695 0
M  V30 34 N 3.1081 -4.4159 -3.172 0
M  V30 35 C 2.5913 -3.8012 -4.3852 0
M  V30 36 C 4.2388 -3.6181 -2.7158 0
M  V30 37 C 3.8752 -3.4436 -5.1126 0
M  V30 38 C 4.8534 -3.0747 -4.003 0
M  V30 39 H -3.4717 0.5819 2.5625 0
M  V30 40 H -3.0945 -2.5392 1.8525 0
M  V30 41 H -2.5233 -0.4699 -0.6853 0
M  V30 42 H 0.6394 -0.0103 3.9071 0
M  V30 43 H -2.1288 2.0864 0.2955 0
M  V30 44 H -3.6274 1.1873 0.3011 0
M  V30 45 H -1.0468 -4.3999 0.8968 0
M  V30 46 H 0.1318 0.5705 0.4172 0
M  V30 47 H -2.8631 2.5666 4.8046 0
M  V30 48 H -3.8851 3.6612 1.0724 0
M  V30 49 H -5.0061 2.5565 1.9004 0
M  V30 50 H -4.6619 4.1114 2.6055 0
M  V30 51 H 2.4218 4.0678 3.8913 0
M  V30 52 H 1.255 5.895 3.5659 0
M  V30 53 H -2.916 5.4292 2.861 0
M  V30 54 H 1.7422 -2.7148 -2.0119 0
M  V30 55 H 1.5333 1.3412 -2.0325 0
M  V30 56 H 1.078 2.3482 -0.6414 0
M  V30 57 H 0.6033 2.8292 -2.2582 0
M  V30 58 H -0.3626 0.1248 -3.2782 0
M  V30 59 H -2.0165 0.3242 -2.6681 0
M  V30 60 H -1.1941 1.6787 -3.4072 0
M  V30 61 H -0.9742 6.8678 3.1994 0
M  V30 62 H 2.6154 -5.3013 -1.3297 0
M  V30 63 H 1.3925 -5.4758 -2.5834 0
M  V30 64 H 1.9778 -4.4903 -4.9737 0
M  V30 65 H 2.011 -2.8926 -4.1867 0
M  V30 66 H 3.9409 -2.7782 -2.0777 0
M  V30 67 H 4.9585 -4.2277 -2.1601 0
M  V30 68 H 4.2546 -4.3129 -5.664 0
M  V30 69 H 3.7354 -2.627 -5.8274 0
M  V30 70 H 4.9705 -1.987 -3.9394 0
M  V30 71 H 5.8394 -3.5094 -4.1981 0
M  V30 END ATOM
M  V30 BEGIN BOND
M  V30 1 2 1 2
M  V30 2 1 2 3
M  V30 3 1 2 4
M  V30 4 2 3 5
M  V30 5 1 3 6
M  V30 6 1 4 7
M  V30 7 1 4 8
M  V30 8 1 4 9
M  V30 9 1 5 10
M  V30 10 1 5 11
M  V30 11 1 6 12
M  V30 12 1 6 13
M  V30 13 1 8 14
M  V30 14 2 8 15
M  V30 15 1 9 16
M  V30 16 2 11 17
M  V30 17 1 11 18
M  V30 18 1 12 19
M  V30 19 1 12 20
M  V30 20 1 15 21
M  V30 21 1 15 22
M  V30 22 1 16 23
M  V30 23 1 17 24
M  V30 24 1 17 25
M  V30 25 2 18 26
M  V30 26 2 21 27
M  V30 27 2 22 28
M  V30 28 1 22 29
M  V30 29 1 23 30
M  V30 30 1 23 31
M  V30 31 2 25 32
M  V30 32 1 29 33
M  V30 33 1 33 34
M  V30 34 1 34 35
M  V30 35 1 34 36
M  V30 36 1 35 37
M  V30 37 1 36 38
M  V30 38 1 9 13
M  V30 39 1 12 18
M  V30 40 1 16 21
M  V30 41 1 26 32
M  V30 42 1 37 38
M  V30 43 1 6 39
M  V30 44 1 7 40
M  V30 45 1 9 41
M  V30 46 1 10 42
M  V30 47 1 13 43
M  V30 48 1 13 44
M  V30 49 1 14 45
M  V30 50 1 16 46
M  V30 51 1 19 47
M  V30 52 1 20 48
M  V30 53 1 20 49
M  V30 54 1 20 50
M  V30 55 1 24 51
M  V30 56 1 25 52
M  V30 57 1 26 53
M  V30 58 1 29 54
M  V30 59 1 30 55
M  V30 60 1 30 56
M  V30 61 1 30 57
M  V30 62 1 31 58
M  V30 63 1 31 59
M  V30 64 1 31 60
M  V30 65 1 32 61
M  V30 66 1 33 62
M  V30 67 1 33 63
M  V30 68 1 35 64
M  V30 69 1 35 65
M  V30 70 1 36 66
M  V30 71 1 36 67
M  V30 72 1 37 68
M  V30 73 1 37 69
M  V30 74 1 38 70
M  V30 75 1 38 71
M  V30 END BOND
M  V30 BEGIN COLLECTION
M  V30 MDLV30/STEABS ATOMS=(3 6 9 16)
M  V30 END COLLECTION
M  V30 END CTAB
M  END
>  <NO.>
3173

>  <Name>


>  <SMILES>
CN(C)[C@@H]1C(=O)C(C(=O)NCN2CCCC2)=C(O)C2(O)C(=O)C3=C(O)c4c(O)cccc4C(C)(O)[C@H]3C[C@@H]12

>  <logBB>


>  <Class>
1

>  <MW>
527.23

>  <nHBAcc>
10

>  <nHBDon>
6

>  <SLogP>
0.31

>  <TopoPSA>
170.87

>  <MMFF94 Energy>
77.804

$$$$
CN(C)[C@@H]1C(O)=C(C(=O)NCN2CCCC2)C(=O)C2(O)C(O)=C3C(=O)c4c(O)cccc4C(C)(O)[C@H]3C[C@@H]12
Actelion Java MolfileCreator 2.0

  0  0  0  0  0  0              0 V3000
M  V30 BEGIN CTAB
M  V30 COUNTS 71 75 0 0 0
M  V30 BEGIN ATOM
M  V30 1 O -0.9634 3.7775 -0.321 0
M  V30 2 C -0.749 3.3072 0.7899 0
M  V30 3 C -1.4553 3.7226 2.0314 0
M  V30 4 C 0.2256 2.2046 0.9508 0
M  V30 5 C -2.7649 4.2222 1.9792 0
M  V30 6 C -0.7964 3.6004 3.2722 0
M  V30 7 C 0.3912 1.3122 -0.0468 0
M  V30 8 C 0.9224 1.9936 2.2695 0 CFG=1
M  V30 9 O -3.4403 4.2789 0.7937 0
M  V30 10 C -3.4143 4.6306 3.1441 0
M  V30 11 C -1.4598 4.0385 4.4335 0
M  V30 12 C 0.6406 3.1024 3.3303 0
M  V30 13 O -0.1975 1.428 -1.2899 0
M  V30 14 C 1.1335 0.0296 0.2584 0
M  V30 15 C 0.6793 0.541 2.751 0
M  V30 16 C -2.7581 4.5442 4.3691 0
M  V30 17 O 0.9492 2.5959 4.6345 0
M  V30 18 C 1.5757 4.3065 3.1128 0
M  V30 19 O 2.53 0.3534 0.3664 0
M  V30 20 C 1.0086 -1.0306 -0.8457 0
M  V30 21 C 0.6516 -0.5345 1.6051 0 CFG=1
M  V30 22 O 1.9087 -1.1724 -1.6833 0
M  V30 23 C -0.2279 -1.8556 -0.9131 0
M  V30 24 C -0.7819 -1.1424 1.4767 0 CFG=1
M  V30 25 C -1.0523 -1.8718 0.1586 0
M  V30 26 C -0.5949 -2.6329 -2.1419 0
M  V30 27 N -1.0518 -1.9024 2.7249 0
M  V30 28 O -2.2781 -2.5368 0.141 0
M  V30 29 O -1.6475 -3.2698 -2.1941 0
M  V30 30 N 0.2943 -2.5923 -3.1753 0
M  V30 31 C -2.4639 -1.8951 3.107 0
M  V30 32 C -0.5275 -3.2676 2.732 0
M  V30 33 C 0.0577 -3.2777 -4.4071 0
M  V30 34 N 1.1391 -3.0516 -5.3378 0
M  V30 35 C 1.3207 -1.6809 -5.7969 0
M  V30 36 C 2.4453 -3.565 -4.9543 0
M  V30 37 C 2.7027 -1.6896 -6.4441 0
M  V30 38 C 3.3206 -3.0341 -6.0759 0
M  V30 39 H 2.0039 2.0514 2.0761 0
M  V30 40 H -4.2719 4.7665 0.9083 0
M  V30 41 H -4.43 5.0149 3.1163 0
M  V30 42 H -0.9591 4.01 5.4007 0
M  V30 43 H -0.5943 2.3308 -1.3545 0
M  V30 44 H -0.2497 0.5053 3.3322 0
M  V30 45 H 1.4799 0.2689 3.4517 0
M  V30 46 H -3.2562 4.8757 5.2777 0
M  V30 47 H 0.2299 2.0003 4.9071 0
M  V30 48 H 1.4085 5.0775 3.8752 0
M  V30 49 H 1.4414 4.7702 2.1299 0
M  V30 50 H 2.6254 4.006 3.2112 0
M  V30 51 H 2.8626 0.388 -0.5535 0
M  V30 52 H 1.3561 -1.3258 1.8977 0
M  V30 53 H -1.4723 -0.2854 1.4625 0
M  V30 54 H -2.397 -2.9888 -0.7261 0
M  V30 55 H 1.1597 -2.0722 -3.0677 0
M  V30 56 H -3.1005 -2.4755 2.4336 0
M  V30 57 H -2.8503 -0.8709 3.1545 0
M  V30 58 H -2.5815 -2.3109 4.1145 0
M  V30 59 H -1.0631 -3.9337 2.0475 0
M  V30 60 H 0.5356 -3.2949 2.4743 0
M  V30 61 H -0.6076 -3.6936 3.7388 0
M  V30 62 H -0.0579 -4.3471 -4.1959 0
M  V30 63 H -0.8953 -2.9328 -4.8247 0
M  V30 64 H 0.5476 -1.3931 -6.5166 0
M  V30 65 H 1.3124 -0.9517 -4.9786 0
M  V30 66 H 2.7922 -3.1687 -3.9932 0
M  V30 67 H 2.4685 -4.6583 -4.9137 0
M  V30 68 H 2.6412 -1.5809 -7.5322 0
M  V30 69 H 3.3115 -0.865 -6.0569 0
M  V30 70 H 4.3682 -2.9373 -5.7752 0
M  V30 71 H 3.2797 -3.707 -6.9413 0
M  V30 END ATOM
M  V30 BEGIN BOND
M  V30 1 2 1 2
M  V30 2 1 2 3
M  V30 3 1 2 4
M  V30 4 2 3 5
M  V30 5 1 3 6
M  V30 6 2 4 7
M  V30 7 1 4 8
M  V30 8 1 5 9
M  V30 9 1 5 10
M  V30 10 2 6 11
M  V30 11 1 6 12
M  V30 12 1 7 13
M  V30 13 1 7 14
M  V30 14 1 8 15
M  V30 15 2 10 16
M  V30 16 1 12 17
M  V30 17 1 12 18
M  V30 18 1 14 19
M  V30 19 1 14 20
M  V30 20 1 14 21
M  V30 21 2 20 22
M  V30 22 1 20 23
M  V30 23 1 21 24
M  V30 24 2 23 25
M  V30 25 1 23 26
M  V30 26 1 24 27
M  V30 27 1 25 28
M  V30 28 2 26 29
M  V30 29 1 26 30
M  V30 30 1 27 31
M  V30 31 1 27 32
M  V30 32 1 30 33
M  V30 33 1 33 34
M  V30 34 1 34 35
M  V30 35 1 34 36
M  V30 36 1 35 37
M  V30 37 1 36 38
M  V30 38 1 8 12
M  V30 39 1 11 16
M  V30 40 1 15 21
M  V30 41 1 24 25
M  V30 42 1 37 38
M  V30 43 1 8 39
M  V30 44 1 9 40
M  V30 45 1 10 41
M  V30 46 1 11 42
M  V30 47 1 13 43
M  V30 48 1 15 44
M  V30 49 1 15 45
M  V30 50 1 16 46
M  V30 51 1 17 47
M  V30 52 1 18 48
M  V30 53 1 18 49
M  V30 54 1 18 50
M  V30 55 1 19 51
M  V30 56 1 21 52
M  V30 57 1 24 53
M  V30 58 1 28 54
M  V30 59 1 30 55
M  V30 60 1 31 56
M  V30 61 1 31 57
M  V30 62 1 31 58
M  V30 63 1 32 59
M  V30 64 1 32 60
M  V30 65 1 32 61
M  V30 66 1 33 62
M  V30 67 1 33 63
M  V30 68 1 35 64
M  V30 69 1 35 65
M  V30 70 1 36 66
M  V30 71 1 36 67
M  V30 72 1 37 68
M  V30 73 1 37 69
M  V30 74 1 38 70
M  V30 75 1 38 71
M  V30 END BOND
M  V30 BEGIN COLLECTION
M  V30 MDLV30/STEABS ATOMS=(3 8 21 24)
M  V30 END COLLECTION
M  V30 END CTAB
M  END
>  <NO.>
3187

>  <Name>


>  <SMILES>
CN(C)[C@@H]1C(O)=C(C(=O)NCN2CCCC2)C(=O)C2(O)C(O)=C3C(=O)c4c(O)cccc4C(C)(O)[C@H]3C[C@@H]12

>  <logBB>


>  <Class>
-1

>  <MW>
527.23

>  <nHBAcc>
10

>  <nHBDon>
6

>  <SLogP>
0.47

>  <TopoPSA>
170.87

>  <MMFF94 Energy>
72.475

$$$$
CN(C)c1ccc(O)c2c1C[C@@H]1C[C@H]3[C@H](N(C)C)C(O)=C(C(N)=O)C(=O)C3(O)C(O)=C1C2=O
Actelion Java MolfileCreator 2.0

  0  0  0  0  0  0              0 V3000
M  V30 BEGIN CTAB
M  V30 COUNTS 60 63 0 0 0
M  V30 BEGIN ATOM
M  V30 1 O -1.6831 2.7261 -2.7261 0
M  V30 2 C -1.7942 1.9867 -1.7532 0
M  V30 3 C -2.7871 2.185 -0.6434 0
M  V30 4 C -0.8428 0.8462 -1.595 0
M  V30 5 C -3.8065 3.1412 -0.756 0
M  V30 6 C -2.6709 1.4254 0.5522 0
M  V30 7 C 0.3531 0.8547 -2.2156 0
M  V30 8 C -1.3206 -0.264 -0.7064 0 CFG=2
M  V30 9 O -3.9751 3.8615 -1.9038 0
M  V30 10 C -4.6832 3.3666 0.3022 0
M  V30 11 C -3.5437 1.6732 1.6371 0
M  V30 12 C -1.6116 0.3398 0.6678 0
M  V30 13 O 0.6838 1.7822 -3.1932 0
M  V30 14 C 1.408 -0.203 -1.9588 0
M  V30 15 C -0.3631 -1.4673 -0.6586 0
M  V30 16 C -4.5437 2.6447 1.4869 0
M  V30 17 N -3.3984 0.9784 2.8398 0
M  V30 18 O 1.4376 -1.0218 -3.1289 0
M  V30 19 C 2.8191 0.3759 -1.6847 0
M  V30 20 C 1.1116 -1.0353 -0.6957 0 CFG=1
M  V30 21 C -4.5865 0.3702 3.4246 0
M  V30 22 C -2.4203 1.5418 3.7644 0
M  V30 23 O 3.0895 1.5769 -1.6415 0
M  V30 24 C 3.8977 -0.6321 -1.4421 0
M  V30 25 C 2.0924 -2.2401 -0.6151 0 CFG=1
M  V30 26 C 3.5364 -1.8509 -0.9756 0
M  V30 27 C 5.3322 -0.3303 -1.7106 0
M  V30 28 N 1.8974 -2.8982 0.7028 0
M  V30 29 O 4.4561 -2.8833 -0.798 0
M  V30 30 O 6.2073 -1.1875 -1.6068 0
M  V30 31 N 5.6405 0.9398 -2.0725 0
M  V30 32 C 2.1608 -4.3367 0.6545 0
M  V30 33 C 2.6282 -2.2829 1.8093 0
M  V30 34 H -2.2673 -0.6471 -1.1169 0
M  V30 35 H -4.6762 4.5216 -1.7879 0
M  V30 36 H -5.476 4.1053 0.2291 0
M  V30 37 H -0.7083 0.7713 1.1163 0
M  V30 38 H -1.9632 -0.4638 1.3253 0
M  V30 39 H -0.0787 2.401 -3.2975 0
M  V30 40 H -0.5659 -2.1132 -1.5239 0
M  V30 41 H -0.5784 -2.0723 0.2295 0
M  V30 42 H -5.2218 2.8609 2.3087 0
M  V30 43 H 1.3906 -0.4011 -3.884 0
M  V30 44 H 1.276 -0.3876 0.179 0
M  V30 45 H -5.2237 1.1179 3.9088 0
M  V30 46 H -4.297 -0.3656 4.1826 0
M  V30 47 H -5.1725 -0.1602 2.6656 0
M  V30 48 H -1.463 1.7439 3.2723 0
M  V30 49 H -2.2222 0.8399 4.5817 0
M  V30 50 H -2.7911 2.4763 4.2007 0
M  V30 51 H 1.7725 -2.9486 -1.3934 0
M  V30 52 H 5.3524 -2.5705 -1.0593 0
M  V30 53 H 4.9341 1.6741 -2.1099 0
M  V30 54 H 6.6032 1.182 -2.2598 0
M  V30 55 H 3.215 -4.5786 0.4917 0
M  V30 56 H 1.5683 -4.8159 -0.1326 0
M  V30 57 H 1.8529 -4.8072 1.5956 0
M  V30 58 H 3.7119 -2.4233 1.7363 0
M  V30 59 H 2.4247 -1.21 1.8818 0
M  V30 60 H 2.3018 -2.7182 2.761 0
M  V30 END ATOM
M  V30 BEGIN BOND
M  V30 1 2 1 2
M  V30 2 1 2 3
M  V30 3 1 2 4
M  V30 4 2 3 5
M  V30 5 1 3 6
M  V30 6 2 4 7
M  V30 7 1 4 8
M  V30 8 1 5 9
M  V30 9 1 5 10
M  V30 10 2 6 11
M  V30 11 1 6 12
M  V30 12 1 7 13
M  V30 13 1 7 14
M  V30 14 1 8 15
M  V30 15 2 10 16
M  V30 16 1 11 17
M  V30 17 1 14 18
M  V30 18 1 14 19
M  V30 19 1 14 20
M  V30 20 1 17 21
M  V30 21 1 17 22
M  V30 22 2 19 23
M  V30 23 1 19 24
M  V30 24 1 20 25
M  V30 25 2 24 26
M  V30 26 1 24 27
M  V30 27 1 25 28
M  V30 28 1 26 29
M  V30 29 2 27 30
M  V30 30 1 27 31
M  V30 31 1 28 32
M  V30 32 1 28 33
M  V30 33 1 8 12
M  V30 34 1 11 16
M  V30 35 1 15 20
M  V30 36 1 25 26
M  V30 37 1 8 34
M  V30 38 1 9 35
M  V30 39 1 10 36
M  V30 40 1 12 37
M  V30 41 1 12 38
M  V30 42 1 13 39
M  V30 43 1 15 40
M  V30 44 1 15 41
M  V30 45 1 16 42
M  V30 46 1 18 43
M  V30 47 1 20 44
M  V30 48 1 21 45
M  V30 49 1 21 46
M  V30 50 1 21 47
M  V30 51 1 22 48
M  V30 52 1 22 49
M  V30 53 1 22 50
M  V30 54 1 25 51
M  V30 55 1 29 52
M  V30 56 1 31 53
M  V30 57 1 31 54
M  V30 58 1 32 55
M  V30 59 1 32 56
M  V30 60 1 32 57
M  V30 61 1 33 58
M  V30 62 1 33 59
M  V30 63 1 33 60
M  V30 END BOND
M  V30 BEGIN COLLECTION
M  V30 MDLV30/STEABS ATOMS=(3 8 20 25)
M  V30 END COLLECTION
M  V30 END CTAB
M  END
>  <NO.>
3201

>  <Name>


>  <SMILES>
CN(C)c1ccc(O)c2c1C[C@@H]1C[C@H]3[C@H](N(C)C)C(O)=C(C(N)=O)C(=O)C3(O)C(O)=C1C2=O

>  <logBB>


>  <Class>
1

>  <MW>
457.18

>  <nHBAcc>
9

>  <nHBDon>
5

>  <SLogP>
0.19

>  <TopoPSA>
164.63

>  <MMFF94 Energy>
89.344

$$$$
CN1CCC23c4c5ccc(O)c4OC2C(C)(O)CC[C@@H]3C1C5
Actelion Java MolfileCreator 2.0

  0  0  0  0  0  0              0 V3000
M  V30 BEGIN CTAB
M  V30 COUNTS 45 49 0 0 0
M  V30 BEGIN ATOM
M  V30 1 O 0.8084 2.3457 0.8892 0
M  V30 2 C 1.2625 1.6761 -0.2267 0
M  V30 3 C -0.095 1.3703 1.5258 0
M  V30 4 C 2.3746 1.9587 -0.9859 0
M  V30 5 C 0.5053 0.5537 -0.4992 0
M  V30 6 C 0.657 0.5958 2.6639 0
M  V30 7 C -0.6818 0.5077 0.393 0
M  V30 8 O 3.1189 3.0656 -0.7194 0
M  V30 9 C 2.7305 1.0611 -2.0009 0
M  V30 10 C 0.8469 -0.3857 -1.4527 0
M  V30 11 O 0.5265 1.3706 3.8751 0
M  V30 12 C 0.0065 -0.7703 2.9428 0
M  V30 13 C 2.1725 0.4192 2.465 0
M  V30 14 C -1.0837 -0.9337 0.7038 0 CFG=2
M  V30 15 C -1.8688 1.1882 -0.3279 0
M  V30 16 C 1.9806 -0.1169 -2.2204 0
M  V30 17 C 0.0397 -1.6558 -1.5316 0
M  V30 18 C -0.1333 -1.6252 1.6815 0
M  V30 19 C -1.2695 -1.6588 -0.6611 0
M  V30 20 C -2.3262 0.3951 -1.5645 0
M  V30 21 N -2.4644 -1.0421 -1.295 0
M  V30 22 C -2.9258 -1.7593 -2.4796 0
M  V30 23 H -0.8992 1.9584 1.9883 0
M  V30 24 H 3.8483 3.1136 -1.3568 0
M  V30 25 H 3.6082 1.2409 -2.6154 0
M  V30 26 H 0.9239 2.2429 3.6917 0
M  V30 27 H 0.5876 -1.318 3.6957 0
M  V30 28 H -0.9813 -0.6202 3.3996 0
M  V30 29 H 2.6806 1.3868 2.3844 0
M  V30 30 H 2.4204 -0.1831 1.5879 0
M  V30 31 H 2.6177 -0.0702 3.3401 0
M  V30 32 H -2.0595 -0.9186 1.2156 0
M  V30 33 H -1.6242 2.2131 -0.636 0
M  V30 34 H -2.711 1.2696 0.3727 0
M  V30 35 H 2.3028 -0.8189 -2.9862 0
M  V30 36 H 0.6813 -2.4684 -1.1658 0
M  V30 37 H -0.1833 -1.8859 -2.5781 0
M  V30 38 H -0.5452 -2.604 1.955 0
M  V30 39 H 0.8469 -1.8164 1.2343 0
M  V30 40 H -1.5231 -2.7067 -0.4514 0
M  V30 41 H -1.6349 0.5724 -2.3976 0
M  V30 42 H -3.2955 0.8013 -1.8804 0
M  V30 43 H -3.0524 -2.826 -2.265 0
M  V30 44 H -2.2465 -1.6544 -3.3314 0
M  V30 45 H -3.909 -1.386 -2.788 0
M  V30 END ATOM
M  V30 BEGIN BOND
M  V30 1 1 1 2
M  V30 2 1 1 3
M  V30 3 2 2 4
M  V30 4 1 2 5
M  V30 5 1 3 6
M  V30 6 1 3 7
M  V30 7 1 4 8
M  V30 8 1 4 9
M  V30 9 2 5 10
M  V30 10 1 6 11
M  V30 11 1 6 12
M  V30 12 1 6 13
M  V30 13 1 7 14
M  V30 14 1 7 15
M  V30 15 2 9 16
M  V30 16 1 10 17
M  V30 17 1 12 18
M  V30 18 1 14 19
M  V30 19 1 15 20
M  V30 20 1 19 21
M  V30 21 1 21 22
M  V30 22 1 5 7
M  V30 23 1 10 16
M  V30 24 1 14 18
M  V30 25 1 17 19
M  V30 26 1 20 21
M  V30 27 1 3 23
M  V30 28 1 8 24
M  V30 29 1 9 25
M  V30 30 1 11 26
M  V30 31 1 12 27
M  V30 32 1 12 28
M  V30 33 1 13 29
M  V30 34 1 13 30
M  V30 35 1 13 31
M  V30 36 1 14 32
M  V30 37 1 15 33
M  V30 38 1 15 34
M  V30 39 1 16 35
M  V30 40 1 17 36
M  V30 41 1 17 37
M  V30 42 1 18 38
M  V30 43 1 18 39
M  V30 44 1 19 40
M  V30 45 1 20 41
M  V30 46 1 20 42
M  V30 47 1 22 43
M  V30 48 1 22 44
M  V30 49 1 22 45
M  V30 END BOND
M  V30 BEGIN COLLECTION
M  V30 MDLV30/STEABS ATOMS=(1 14)
M  V30 END COLLECTION
M  V30 END CTAB
M  END
>  <NO.>
3219

>  <Name>


>  <SMILES>
CN1CCC23c4c5ccc(O)c4OC2C(C)(O)CC[C@@H]3C1C5

>  <logBB>


>  <Class>
1

>  <MW>
301.17

>  <nHBAcc>
4

>  <nHBDon>
2

>  <SLogP>
1.81

>  <TopoPSA>
52.93

>  <MMFF94 Energy>
97.58

$$$$
CN1CCN(C(=O)O[C@H]2c3nccnc3C(=O)N2c2ccc(Cl)cn2)CC1
Actelion Java MolfileCreator 2.0

  0  0  0  0  0  0              0 V3000
M  V30 BEGIN CTAB
M  V30 COUNTS 44 47 0 0 0
M  V30 BEGIN ATOM
M  V30 1 Cl 0.1623 -5.367 -2.5995 0
M  V30 2 C 0.3288 -4.2621 -1.2991 0
M  V30 3 C 1.3527 -3.3318 -1.2783 0
M  V30 4 C -0.5634 -4.2706 -0.2387 0
M  V30 5 N 1.5351 -2.428 -0.2825 0
M  V30 6 C -0.3959 -3.352 0.8006 0
M  V30 7 C 0.664 -2.4487 0.7548 0
M  V30 8 N 0.8591 -1.5025 1.767 0
M  V30 9 C 0.4367 -1.593 3.0919 0
M  V30 10 C 1.6799 -0.327 1.55 0 CFG=1
M  V30 11 O -0.204 -2.4791 3.6303 0
M  V30 12 C 0.9657 -0.4062 3.79 0
M  V30 13 O 1.2266 0.4922 0.4632 0
M  V30 14 C 1.7017 0.35 2.898 0
M  V30 15 N 0.8165 -0.1125 5.0962 0
M  V30 16 C -0.0067 1.0427 0.542 0
M  V30 17 N 2.356 1.4806 3.2502 0
M  V30 18 C 1.4466 1.0342 5.454 0
M  V30 19 O -0.7543 0.906 1.5025 0
M  V30 20 N -0.3334 1.7604 -0.5861 0
M  V30 21 C 2.1936 1.8083 4.5593 0
M  V30 22 C -1.6268 2.4284 -0.6935 0
M  V30 23 C 0.5266 1.9033 -1.7609 0
M  V30 24 C -2.3504 2.0263 -1.9932 0
M  V30 25 C -0.2281 1.5079 -3.0457 0
M  V30 26 N -1.5057 2.2401 -3.1899 0
M  V30 27 C -2.2098 1.8147 -4.3983 0
M  V30 28 H 2.0805 -3.2788 -2.0829 0
M  V30 29 H -1.3876 -4.9774 -0.207 0
M  V30 30 H -1.107 -3.3533 1.6211 0
M  V30 31 H 2.7022 -0.6527 1.3214 0
M  V30 32 H 1.3412 1.3253 6.4942 0
M  V30 33 H 2.686 2.7195 4.8837 0
M  V30 34 H -2.2618 2.1995 0.1682 0
M  V30 35 H -1.4361 3.5085 -0.6858 0
M  V30 36 H 0.8322 2.9555 -1.8112 0
M  V30 37 H 1.4351 1.301 -1.673 0
M  V30 38 H -2.6462 0.9708 -1.9237 0
M  V30 39 H -3.2668 2.6225 -2.0774 0
M  V30 40 H -0.4126 0.4252 -3.0302 0
M  V30 41 H 0.418 1.7216 -3.9053 0
M  V30 42 H -1.5986 2.009 -5.2865 0
M  V30 43 H -3.1368 2.3853 -4.523 0
M  V30 44 H -2.4613 0.7481 -4.3793 0
M  V30 END ATOM
M  V30 BEGIN BOND
M  V30 1 1 1 2
M  V30 2 2 2 3
M  V30 3 1 2 4
M  V30 4 1 3 5
M  V30 5 2 4 6
M  V30 6 2 5 7
M  V30 7 1 7 8
M  V30 8 1 8 9
M  V30 9 1 8 10
M  V30 10 2 9 11
M  V30 11 1 9 12
M  V30 12 1 10 13
M  V30 13 1 10 14
M  V30 14 1 12 15
M  V30 15 1 13 16
M  V30 16 1 14 17
M  V30 17 2 15 18
M  V30 18 2 16 19
M  V30 19 1 16 20
M  V30 20 2 17 21
M  V30 21 1 20 22
M  V30 22 1 20 23
M  V30 23 1 22 24
M  V30 24 1 23 25
M  V30 25 1 24 26
M  V30 26 1 26 27
M  V30 27 1 6 7
M  V30 28 2 12 14
M  V30 29 1 18 21
M  V30 30 1 25 26
M  V30 31 1 3 28
M  V30 32 1 4 29
M  V30 33 1 6 30
M  V30 34 1 10 31
M  V30 35 1 18 32
M  V30 36 1 21 33
M  V30 37 1 22 34
M  V30 38 1 22 35
M  V30 39 1 23 36
M  V30 40 1 23 37
M  V30 41 1 24 38
M  V30 42 1 24 39
M  V30 43 1 25 40
M  V30 44 1 25 41
M  V30 45 1 27 42
M  V30 46 1 27 43
M  V30 47 1 27 44
M  V30 END BOND
M  V30 BEGIN COLLECTION
M  V30 MDLV30/STEABS ATOMS=(1 10)
M  V30 END COLLECTION
M  V30 END CTAB
M  END
>  <NO.>
3231

>  <Name>
eszopiclone, lunesta

>  <SMILES>
CN1CCN(C(=O)O[C@H]2c3nccnc3C(=O)N2c2ccc(Cl)cn2)CC1

>  <logBB>


>  <Class>
1

>  <MW>
388.11

>  <nHBAcc>
7

>  <nHBDon>
0

>  <SLogP>
1.57

>  <TopoPSA>
91.76

>  <MMFF94 Energy>
65.658

$$$$
CN1[C@H]2CC[C@H]1CC(OC(=O)[C@@H](O)c1ccccc1)C2
Actelion Java MolfileCreator 2.0

  0  0  0  0  0  0              0 V3000
M  V30 BEGIN CTAB
M  V30 COUNTS 41 43 0 0 0
M  V30 BEGIN ATOM
M  V30 1 O 1.0376 1.1174 -2.5555 0
M  V30 2 C 0.2332 1.4761 -1.6998 0
M  V30 3 O 0.2922 1.1468 -0.3801 0
M  V30 4 C -0.9398 2.4215 -1.9992 0 CFG=1
M  V30 5 C 1.326 0.2202 0.0039 0
M  V30 6 O -1.0392 2.6986 -3.4001 0
M  V30 7 C -2.266 1.8741 -1.5143 0
M  V30 8 C 1.5567 0.3743 1.5142 0
M  V30 9 C 0.9237 -1.2145 -0.3709 0
M  V30 10 C -2.9417 0.8755 -2.2337 0
M  V30 11 C -2.8223 2.3281 -0.3081 0
M  V30 12 C 2.2952 -0.8295 2.1231 0 CFG=1
M  V30 13 C 1.7203 -2.2714 0.413 0 CFG=1
M  V30 14 C -4.1455 0.3498 -1.7621 0
M  V30 15 C -4.0263 1.8002 0.1621 0
M  V30 16 N 1.5989 -2.0929 1.8634 0
M  V30 17 C 3.6158 -1.1109 1.3942 0
M  V30 18 C 3.2333 -2.0687 0.256 0
M  V30 19 C -4.6869 0.8118 -0.5645 0
M  V30 20 C 0.2575 -2.2055 2.4072 0
M  V30 21 H -0.7166 3.3791 -1.5149 0
M  V30 22 H 2.2574 0.4925 -0.5093 0
M  V30 23 H -0.1506 2.5375 -3.7716 0
M  V30 24 H 2.1325 1.2921 1.6905 0
M  V30 25 H 0.601 0.5374 2.0281 0
M  V30 26 H -0.154 -1.3544 -0.2204 0
M  V30 27 H 1.082 -1.3631 -1.4464 0
M  V30 28 H -2.5346 0.5096 -3.1746 0
M  V30 29 H -2.32 3.0954 0.2769 0
M  V30 30 H 2.4691 -0.6683 3.1924 0
M  V30 31 H 1.4291 -3.279 0.0974 0
M  V30 32 H -4.6621 -0.4174 -2.3326 0
M  V30 33 H -4.4497 2.1609 1.096 0
M  V30 34 H 4.0989 -0.2024 1.02 0
M  V30 35 H 4.3257 -1.6115 2.0643 0
M  V30 36 H 3.7647 -3.0191 0.3898 0
M  V30 37 H 3.5109 -1.6699 -0.725 0
M  V30 38 H -5.6255 0.4036 -0.1993 0
M  V30 39 H 0.2852 -2.1019 3.4975 0
M  V30 40 H -0.4495 -1.4663 2.02 0
M  V30 41 H -0.1501 -3.2001 2.1963 0
M  V30 END ATOM
M  V30 BEGIN BOND
M  V30 1 2 1 2
M  V30 2 1 2 3
M  V30 3 1 2 4
M  V30 4 1 3 5
M  V30 5 1 4 6
M  V30 6 1 4 7
M  V30 7 1 5 8
M  V30 8 1 5 9
M  V30 9 2 7 10
M  V30 10 1 7 11
M  V30 11 1 8 12
M  V30 12 1 9 13
M  V30 13 1 10 14
M  V30 14 2 11 15
M  V30 15 1 12 16
M  V30 16 1 12 17
M  V30 17 1 13 18
M  V30 18 2 14 19
M  V30 19 1 16 20
M  V30 20 1 13 16
M  V30 21 1 15 19
M  V30 22 1 17 18
M  V30 23 1 4 21
M  V30 24 1 5 22
M  V30 25 1 6 23
M  V30 26 1 8 24
M  V30 27 1 8 25
M  V30 28 1 9 26
M  V30 29 1 9 27
M  V30 30 1 10 28
M  V30 31 1 11 29
M  V30 32 1 12 30
M  V30 33 1 13 31
M  V30 34 1 14 32
M  V30 35 1 15 33
M  V30 36 1 17 34
M  V30 37 1 17 35
M  V30 38 1 18 36
M  V30 39 1 18 37
M  V30 40 1 19 38
M  V30 41 1 20 39
M  V30 42 1 20 40
M  V30 43 1 20 41
M  V30 END BOND
M  V30 BEGIN COLLECTION
M  V30 MDLV30/STEABS ATOMS=(3 4 12 13)
M  V30 END COLLECTION
M  V30 END CTAB
M  END
>  <NO.>
3259

>  <Name>
zinc100025275

>  <SMILES>
CN1[C@H]2CC[C@H]1CC(OC(=O)[C@@H](O)c1ccccc1)C2

>  <logBB>


>  <Class>
-1

>  <MW>
275.15

>  <nHBAcc>
4

>  <nHBDon>
1

>  <SLogP>
1.89

>  <TopoPSA>
49.77

>  <MMFF94 Energy>
75.317

$$$$
CN1c2ccc(Cl)cc2C(c2ccccc2Cl)=NC[C@H]1CO
Actelion Java MolfileCreator 2.0

  0  0  0  0  0  0              0 V3000
M  V30 BEGIN CTAB
M  V30 COUNTS 38 40 0 0 0
M  V30 BEGIN ATOM
M  V30 1 Cl -1.5498 -2.6113 -0.3261 0
M  V30 2 C 0.1325 -2.9761 -0.1868 0
M  V30 3 C 1.1133 -2.0082 0.0658 0
M  V30 4 C 0.5014 -4.3226 -0.2944 0
M  V30 5 C 0.8294 -0.5467 0.1728 0
M  V30 6 C 2.4487 -2.405 0.2431 0
M  V30 7 C 1.8347 -4.7068 -0.1389 0
M  V30 8 N 1.2919 0.0653 1.2151 0
M  V30 9 C 0.0833 0.1181 -0.9366 0
M  V30 10 C 2.8074 -3.7489 0.1359 0
M  V30 11 C 1.0535 1.5117 1.3145 0
M  V30 12 C -1.0054 0.9708 -0.6543 0
M  V30 13 C 0.4627 -0.1724 -2.2568 0
M  V30 14 C -0.4247 1.8328 1.6211 0 CFG=2
M  V30 15 N -1.3894 1.2771 0.6395 0
M  V30 16 C -1.7189 1.4848 -1.7501 0
M  V30 17 C -0.259 0.3692 -3.3131 0
M  V30 18 C -0.6094 3.3649 1.7155 0
M  V30 19 C -2.797 1.2179 1.0052 0
M  V30 20 C -1.3514 1.1922 -3.0673 0
M  V30 21 Cl 0.1974 0.014 -4.9326 0
M  V30 22 O 0.1664 3.9263 2.7709 0
M  V30 23 H -0.2514 -5.0832 -0.4876 0
M  V30 24 H 3.2111 -1.6611 0.4674 0
M  V30 25 H 2.1108 -5.7555 -0.2182 0
M  V30 26 H 3.8442 -4.0462 0.2737 0
M  V30 27 H 1.4083 2.0289 0.4133 0
M  V30 28 H 1.6819 1.8849 2.1319 0
M  V30 29 H 1.3128 -0.8169 -2.4599 0
M  V30 30 H -0.6476 1.3957 2.6037 0
M  V30 31 H -2.5672 2.1448 -1.587 0
M  V30 32 H -0.3186 3.8481 0.7759 0
M  V30 33 H -1.6576 3.6148 1.9104 0
M  V30 34 H -2.9161 1.1434 2.0915 0
M  V30 35 H -3.2831 0.3387 0.5677 0
M  V30 36 H -3.3265 2.1168 0.6727 0
M  V30 37 H -1.9211 1.6146 -3.8907 0
M  V30 38 H 0.0021 4.885 2.7655 0
M  V30 END ATOM
M  V30 BEGIN BOND
M  V30 1 1 1 2
M  V30 2 2 2 3
M  V30 3 1 2 4
M  V30 4 1 3 5
M  V30 5 1 3 6
M  V30 6 2 4 7
M  V30 7 2 5 8
M  V30 8 1 5 9
M  V30 9 2 6 10
M  V30 10 1 8 11
M  V30 11 2 9 12
M  V30 12 1 9 13
M  V30 13 1 11 14
M  V30 14 1 12 15
M  V30 15 1 12 16
M  V30 16 2 13 17
M  V30 17 1 14 18
M  V30 18 1 15 19
M  V30 19 2 16 20
M  V30 20 1 17 21
M  V30 21 1 18 22
M  V30 22 1 7 10
M  V30 23 1 14 15
M  V30 24 1 17 20
M  V30 25 1 4 23
M  V30 26 1 6 24
M  V30 27 1 7 25
M  V30 28 1 10 26
M  V30 29 1 11 27
M  V30 30 1 11 28
M  V30 31 1 13 29
M  V30 32 1 14 30
M  V30 33 1 16 31
M  V30 34 1 18 32
M  V30 35 1 18 33
M  V30 36 1 19 34
M  V30 37 1 19 35
M  V30 38 1 19 36
M  V30 39 1 20 37
M  V30 40 1 22 38
M  V30 END BOND
M  V30 BEGIN COLLECTION
M  V30 MDLV30/STEABS ATOMS=(1 14)
M  V30 END COLLECTION
M  V30 END CTAB
M  END
>  <NO.>
3263

>  <Name>
tuclazepam

>  <SMILES>
CN1c2ccc(Cl)cc2C(c2ccccc2Cl)=NC[C@H]1CO

>  <logBB>


>  <Class>
1

>  <MW>
334.06

>  <nHBAcc>
3

>  <nHBDon>
1

>  <SLogP>
3.64

>  <TopoPSA>
35.83

>  <MMFF94 Energy>
144.63

$$$$
CNC(=O)O[C@@H]1OC(=O)[C@H]2C3C=CC(C3)[C@H]12
Actelion Java MolfileCreator 2.0

  0  0  0  0  0  0              0 V3000
M  V30 BEGIN CTAB
M  V30 COUNTS 29 31 0 0 0
M  V30 BEGIN ATOM
M  V30 1 O 3.8025 -1.3741 0.5656 0
M  V30 2 C 2.8007 -0.7143 0.3688 0
M  V30 3 O 2.7688 0.6148 -0.0532 0
M  V30 4 C 1.383 -1.1552 0.4342 0 CFG=2
M  V30 5 C 1.3883 1.1207 0.0355 0 CFG=2
M  V30 6 C 0.8465 0.1515 1.0407 0 CFG=1
M  V30 7 C 0.6055 -2.2063 1.2293 0
M  V30 8 O 0.7504 1.0787 -1.234 0
M  V30 9 C -0.5282 -0.2708 1.5509 0
M  V30 10 C -0.7022 -2.294 0.4432 0
M  V30 11 C 4.0E-4 -1.4495 2.4236 0
M  V30 12 C -0.4231 1.7507 -1.2711 0
M  V30 13 C -1.3318 -1.111 0.5827 0
M  V30 14 O -0.9224 2.3449 -0.3283 0
M  V30 15 N -0.9542 1.6536 -2.5187 0
M  V30 16 C -2.1973 2.2756 -2.8832 0
M  V30 17 H 1.1398 -1.2952 -0.6335 0
M  V30 18 H 1.4498 2.1467 0.4174 0
M  V30 19 H 1.4137 0.4122 1.9558 0
M  V30 20 H 1.0917 -3.156 1.4474 0
M  V30 21 H -1.0914 0.4709 2.1177 0
M  V30 22 H -1.0068 -3.1196 -0.1831 0
M  V30 23 H 0.7488 -1.1598 3.1706 0
M  V30 24 H -0.7978 -2.0 2.941 0
M  V30 25 H -2.2559 -0.8102 0.1108 0
M  V30 26 H -0.4092 1.1518 -3.2062 0
M  V30 27 H -1.9972 3.3118 -3.1676 0
M  V30 28 H -2.8965 2.2567 -2.0428 0
M  V30 29 H -2.621 1.7359 -3.7332 0
M  V30 END ATOM
M  V30 BEGIN BOND
M  V30 1 2 1 2
M  V30 2 1 2 3
M  V30 3 1 2 4
M  V30 4 1 3 5
M  V30 5 1 4 6
M  V30 6 1 4 7
M  V30 7 1 5 8
M  V30 8 1 6 9
M  V30 9 1 7 10
M  V30 10 1 7 11
M  V30 11 1 8 12
M  V30 12 1 9 13
M  V30 13 2 12 14
M  V30 14 1 12 15
M  V30 15 1 15 16
M  V30 16 1 5 6
M  V30 17 1 9 11
M  V30 18 2 10 13
M  V30 19 1 4 17
M  V30 20 1 5 18
M  V30 21 1 6 19
M  V30 22 1 7 20
M  V30 23 1 9 21
M  V30 24 1 10 22
M  V30 25 1 11 23
M  V30 26 1 11 24
M  V30 27 1 13 25
M  V30 28 1 15 26
M  V30 29 1 16 27
M  V30 30 1 16 28
M  V30 31 1 16 29
M  V30 END BOND
M  V30 BEGIN COLLECTION
M  V30 MDLV30/STEABS ATOMS=(3 4 5 6)
M  V30 END COLLECTION
M  V30 END CTAB
M  END
>  <NO.>
3271

>  <Name>


>  <SMILES>
CNC(=O)O[C@@H]1OC(=O)[C@H]2C3C=CC(C3)[C@H]12

>  <logBB>


>  <Class>
1

>  <MW>
223.08

>  <nHBAcc>
4

>  <nHBDon>
1

>  <SLogP>
0.66

>  <TopoPSA>
64.63

>  <MMFF94 Energy>
-28.756

$$$$
CNC1=CN(O)C(c2ccccc2)=c2cc(Cl)ccc2=N1
Actelion Java MolfileCreator 2.0

  0  0  0  0  0  0              0 V3000
M  V30 BEGIN CTAB
M  V30 COUNTS 35 37 0 0 0
M  V30 BEGIN ATOM
M  V30 1 Cl 1.2874 -4.8343 -0.6435 0
M  V30 2 C 0.4741 -3.4808 0.0492 0
M  V30 3 C 0.7037 -2.2402 -0.3963 0
M  V30 4 C -0.4597 -3.7249 1.1076 0
M  V30 5 C 0.0317 -1.0482 0.1575 0
M  V30 6 C -1.0792 -2.7177 1.7296 0
M  V30 7 C 0.168 0.1822 -0.4016 0
M  V30 8 C -0.8548 -1.2722 1.3736 0
M  V30 9 N -0.3557 1.3998 0.0317 0
M  V30 10 C 0.9781 0.2944 -1.654 0
M  V30 11 N -1.475 -0.4884 2.1921 0
M  V30 12 O -0.1096 2.5479 -0.7417 0
M  V30 13 C -1.008 1.6484 1.2135 0
M  V30 14 C 0.4 0.0056 -2.9006 0
M  V30 15 C 2.3208 0.6948 -1.5947 0
M  V30 16 C -1.4911 0.8703 2.1946 0
M  V30 17 C 1.1598 0.106 -4.067 0
M  V30 18 C 3.0761 0.7951 -2.7638 0
M  V30 19 N -2.0977 1.4264 3.3043 0
M  V30 20 C 2.4962 0.4991 -3.9973 0
M  V30 21 C -2.2859 2.8037 3.667 0
M  V30 22 H 1.4241 -2.1155 -1.199 0
M  V30 23 H -0.6513 -4.7499 1.4095 0
M  V30 24 H -1.7717 -2.9051 2.544 0
M  V30 25 H -0.689 2.4098 -1.5124 0
M  V30 26 H -1.1232 2.7221 1.3286 0
M  V30 27 H -0.6407 -0.3035 -2.9646 0
M  V30 28 H 2.7754 0.9385 -0.6367 0
M  V30 29 H 0.7105 -0.1222 -5.0302 0
M  V30 30 H 4.1156 1.1087 -2.7119 0
M  V30 31 H -2.4267 0.7133 3.9466 0
M  V30 32 H 3.0869 0.5788 -4.9067 0
M  V30 33 H -2.9069 3.3224 2.9299 0
M  V30 34 H -1.3256 3.3211 3.7564 0
M  V30 35 H -2.7923 2.8667 4.6352 0
M  V30 END ATOM
M  V30 BEGIN BOND
M  V30 1 1 1 2
M  V30 2 2 2 3
M  V30 3 1 2 4
M  V30 4 1 3 5
M  V30 5 2 4 6
M  V30 6 2 5 7
M  V30 7 1 5 8
M  V30 8 1 7 9
M  V30 9 1 7 10
M  V30 10 2 8 11
M  V30 11 1 9 12
M  V30 12 1 9 13
M  V30 13 2 10 14
M  V30 14 1 10 15
M  V30 15 1 11 16
M  V30 16 1 14 17
M  V30 17 2 15 18
M  V30 18 1 16 19
M  V30 19 2 17 20
M  V30 20 1 19 21
M  V30 21 1 6 8
M  V30 22 2 13 16
M  V30 23 1 18 20
M  V30 24 1 3 22
M  V30 25 1 4 23
M  V30 26 1 6 24
M  V30 27 1 12 25
M  V30 28 1 13 26
M  V30 29 1 14 27
M  V30 30 1 15 28
M  V30 31 1 17 29
M  V30 32 1 18 30
M  V30 33 1 19 31
M  V30 34 1 20 32
M  V30 35 1 21 33
M  V30 36 1 21 34
M  V30 37 1 21 35
M  V30 END BOND
M  V30 END CTAB
M  END
>  <NO.>
3273

>  <Name>
chembl1372985

>  <SMILES>
CNC1=CN(O)C(c2ccccc2)=c2cc(Cl)ccc2=N1

>  <logBB>


>  <Class>
1

>  <MW>
299.08

>  <nHBAcc>
4

>  <nHBDon>
2

>  <SLogP>
1.84

>  <TopoPSA>
47.86

>  <MMFF94 Energy>
45.591

$$$$
CNCCSC1=Cc2ccccc2Oc2ccc(F)cc21
Actelion Java MolfileCreator 2.0

  0  0  0  0  0  0              0 V3000
M  V30 BEGIN CTAB
M  V30 COUNTS 37 39 0 0 0
M  V30 BEGIN ATOM
M  V30 1 S -1.0542 2.3528 -1.0542 0
M  V30 2 C 0.0504 1.0175 -0.8496 0
M  V30 3 C -1.8344 2.3876 0.5989 0
M  V30 4 C 1.2792 1.2536 -0.055 0
M  V30 5 C -0.2569 -0.1619 -1.418 0
M  V30 6 C -2.6731 1.1468 0.9528 0
M  V30 7 C 1.7759 0.2812 0.8336 0
M  V30 8 C 1.9896 2.4629 -0.1545 0
M  V30 9 C 0.5254 -1.3975 -1.2942 0
M  V30 10 N -3.7707 0.9012 0.0103 0
M  V30 11 O 1.1673 -0.943 1.0087 0
M  V30 12 C 2.9008 0.5251 1.6331 0
M  V30 13 C 3.1196 2.6899 0.6279 0
M  V30 14 C 1.1881 -1.7473 -0.1098 0
M  V30 15 C 0.5454 -2.3004 -2.3655 0
M  V30 16 C -4.5732 -0.241 0.4205 0
M  V30 17 C 3.5775 1.7359 1.526 0
M  V30 18 F 3.7736 3.8535 0.5162 0
M  V30 19 C 1.8476 -2.9738 0.008 0
M  V30 20 C 1.2235 -3.5179 -2.2577 0
M  V30 21 C 1.8725 -3.8552 -1.0711 0
M  V30 22 H -2.4738 3.2772 0.6314 0
M  V30 23 H -1.0571 2.5324 1.3572 0
M  V30 24 H -1.169 -0.2547 -2.0056 0
M  V30 25 H -3.0869 1.3039 1.9571 0
M  V30 26 H -2.0244 0.2652 1.0121 0
M  V30 27 H 1.6804 3.2446 -0.843 0
M  V30 28 H -4.3587 1.7305 -0.063 0
M  V30 29 H 3.2498 -0.2349 2.3267 0
M  V30 30 H 0.0323 -2.0625 -3.295 0
M  V30 31 H -5.0406 -0.0741 1.3964 0
M  V30 32 H -3.9699 -1.1536 0.4632 0
M  V30 33 H -5.3704 -0.408 -0.3103 0
M  V30 34 H 4.4566 1.9393 2.1285 0
M  V30 35 H 2.3409 -3.2388 0.9387 0
M  V30 36 H 1.2361 -4.2066 -3.0989 0
M  V30 37 H 2.391 -4.8065 -0.9853 0
M  V30 END ATOM
M  V30 BEGIN BOND
M  V30 1 1 1 2
M  V30 2 1 1 3
M  V30 3 1 2 4
M  V30 4 2 2 5
M  V30 5 1 3 6
M  V30 6 2 4 7
M  V30 7 1 4 8
M  V30 8 1 5 9
M  V30 9 1 6 10
M  V30 10 1 7 11
M  V30 11 1 7 12
M  V30 12 2 8 13
M  V30 13 2 9 14
M  V30 14 1 9 15
M  V30 15 1 10 16
M  V30 16 2 12 17
M  V30 17 1 13 18
M  V30 18 1 14 19
M  V30 19 2 15 20
M  V30 20 2 19 21
M  V30 21 1 11 14
M  V30 22 1 13 17
M  V30 23 1 20 21
M  V30 24 1 3 22
M  V30 25 1 3 23
M  V30 26 1 5 24
M  V30 27 1 6 25
M  V30 28 1 6 26
M  V30 29 1 8 27
M  V30 30 1 10 28
M  V30 31 1 12 29
M  V30 32 1 15 30
M  V30 33 1 16 31
M  V30 34 1 16 32
M  V30 35 1 16 33
M  V30 36 1 17 34
M  V30 37 1 19 35
M  V30 38 1 20 36
M  V30 39 1 21 37
M  V30 END BOND
M  V30 END CTAB
M  END
>  <NO.>
3275

>  <Name>
fluradoline

>  <SMILES>
CNCCSC1=Cc2ccccc2Oc2ccc(F)cc21

>  <logBB>


>  <Class>
1

>  <MW>
301.09

>  <nHBAcc>
3

>  <nHBDon>
1

>  <SLogP>
4.38

>  <TopoPSA>
21.26

>  <MMFF94 Energy>
77.265

$$$$
CNC[C@@H](O)c1ccc(OC(=O)C(C)(C)C)c(OC(=O)C(C)(C)C)c1
Actelion Java MolfileCreator 2.0

  0  0  0  0  0  0              0 V3000
M  V30 BEGIN CTAB
M  V30 COUNTS 54 54 0 0 0
M  V30 BEGIN ATOM
M  V30 1 O 0.0783 -1.4894 -2.4309 0
M  V30 2 C -0.06 -0.272 -2.4256 0
M  V30 3 O -0.2437 0.5253 -1.2982 0
M  V30 4 C -0.0506 0.607 -3.683 0
M  V30 5 C -0.4239 -0.2141 -0.1299 0
M  V30 6 C -1.357 1.4098 -3.7616 0
M  V30 7 C 1.1551 1.5521 -3.6402 0
M  V30 8 C 0.0567 -0.2862 -4.9295 0
M  V30 9 C 0.6609 -0.6746 0.6109 0
M  V30 10 C -1.7273 -0.4233 0.3209 0
M  V30 11 O 1.9635 -0.4566 0.1656 0
M  V30 12 C 0.4543 -1.4122 1.7747 0
M  V30 13 C -1.9562 -1.1458 1.503 0
M  V30 14 C 2.5754 0.6286 0.787 0
M  V30 15 C -0.8506 -1.6411 2.2198 0
M  V30 16 C -3.3559 -1.3677 2.036 0 CFG=2
M  V30 17 O 2.0504 1.3795 1.6009 0
M  V30 18 C 4.0295 0.7436 0.3134 0
M  V30 19 O -4.318 -1.3296 0.9754 0
M  V30 20 C -3.7407 -0.2984 3.0885 0
M  V30 21 C 4.6952 1.9497 0.9958 0
M  V30 22 C 4.7927 -0.5306 0.6989 0
M  V30 23 C 4.0648 0.95 -1.2051 0
M  V30 24 N -5.1667 -0.3738 3.4782 0
M  V30 25 C -5.4288 -1.5037 4.3646 0
M  V30 26 H -1.4481 2.1178 -2.93 0
M  V30 27 H -1.4129 1.9866 -4.6915 0
M  V30 28 H -2.2291 0.7471 -3.7211 0
M  V30 29 H 1.117 2.2179 -2.7707 0
M  V30 30 H 2.0922 0.9883 -3.5788 0
M  V30 31 H 1.1991 2.18 -4.537 0
M  V30 32 H -0.7852 -0.9855 -4.9903 0
M  V30 33 H 0.9763 -0.8827 -4.9133 0
M  V30 34 H 0.0629 0.3112 -5.8481 0
M  V30 35 H -2.5654 -0.033 -0.2513 0
M  V30 36 H 1.2977 -1.798 2.3387 0
M  V30 37 H -1.0012 -2.2089 3.1358 0
M  V30 38 H -3.4133 -2.3727 2.4694 0
M  V30 39 H -5.1585 -1.1095 1.4273 0
M  V30 40 H -3.5974 0.6944 2.6428 0
M  V30 41 H -3.0861 -0.3456 3.9671 0
M  V30 42 H 4.6873 1.8435 2.0869 0
M  V30 43 H 5.7381 2.0609 0.6786 0
M  V30 44 H 4.1709 2.8817 0.7545 0
M  V30 45 H 4.7255 -0.7188 1.7767 0
M  V30 46 H 4.3888 -1.413 0.1901 0
M  V30 47 H 5.853 -0.4534 0.4341 0
M  V30 48 H 3.4828 1.8324 -1.494 0
M  V30 49 H 3.6435 0.0912 -1.7393 0
M  V30 50 H 5.0907 1.09 -1.5632 0
M  V30 51 H -5.4011 0.4853 3.98 0
M  V30 52 H -4.8122 -1.4577 5.268 0
M  V30 53 H -5.2608 -2.46 3.8612 0
M  V30 54 H -6.4785 -1.482 4.6744 0
M  V30 END ATOM
M  V30 BEGIN BOND
M  V30 1 2 1 2
M  V30 2 1 2 3
M  V30 3 1 2 4
M  V30 4 1 3 5
M  V30 5 1 4 6
M  V30 6 1 4 7
M  V30 7 1 4 8
M  V30 8 2 5 9
M  V30 9 1 5 10
M  V30 10 1 9 11
M  V30 11 1 9 12
M  V30 12 2 10 13
M  V30 13 1 11 14
M  V30 14 2 12 15
M  V30 15 1 13 16
M  V30 16 2 14 17
M  V30 17 1 14 18
M  V30 18 1 16 19
M  V30 19 1 16 20
M  V30 20 1 18 21
M  V30 21 1 18 22
M  V30 22 1 18 23
M  V30 23 1 20 24
M  V30 24 1 24 25
M  V30 25 1 13 15
M  V30 26 1 6 26
M  V30 27 1 6 27
M  V30 28 1 6 28
M  V30 29 1 7 29
M  V30 30 1 7 30
M  V30 31 1 7 31
M  V30 32 1 8 32
M  V30 33 1 8 33
M  V30 34 1 8 34
M  V30 35 1 10 35
M  V30 36 1 12 36
M  V30 37 1 15 37
M  V30 38 1 16 38
M  V30 39 1 19 39
M  V30 40 1 20 40
M  V30 41 1 20 41
M  V30 42 1 21 42
M  V30 43 1 21 43
M  V30 44 1 21 44
M  V30 45 1 22 45
M  V30 46 1 22 46
M  V30 47 1 22 47
M  V30 48 1 23 48
M  V30 49 1 23 49
M  V30 50 1 23 50
M  V30 51 1 24 51
M  V30 52 1 25 52
M  V30 53 1 25 53
M  V30 54 1 25 54
M  V30 END BOND
M  V30 BEGIN COLLECTION
M  V30 MDLV30/STEABS ATOMS=(1 16)
M  V30 END COLLECTION
M  V30 END CTAB
M  END
>  <NO.>
3283

>  <Name>
unii-62o79nuo5m

>  <SMILES>
CNC[C@@H](O)c1ccc(OC(=O)C(C)(C)C)c(OC(=O)C(C)(C)C)c1

>  <logBB>


>  <Class>
-1

>  <MW>
351.2

>  <nHBAcc>
6

>  <nHBDon>
2

>  <SLogP>
2.84

>  <TopoPSA>
84.86

>  <MMFF94 Energy>
90.85

$$$$
COC(=O)C1=C(C)NC(C)=C(C(=O)OCCN(C)Cc2ccccc2)[C@@H]1c1cccc([N+](=O)[O-])c1
Actelion Java MolfileCreator 2.0

  0  0  0  0  0  0              0 V3000
M  V30 BEGIN CTAB
M  V30 COUNTS 64 66 0 0 0
M  V30 BEGIN ATOM
M  V30 1 O 0.2384 1.7493 -3.5009 0
M  V30 2 N 1.1918 2.4196 -3.0768 0 CHG=1
M  V30 3 O 2.1163 2.8492 -3.7812 0 CHG=-1
M  V30 4 C 1.2229 2.7289 -1.6418 0
M  V30 5 C 0.163 2.3157 -0.822 0
M  V30 6 C 2.3078 3.4313 -1.105 0
M  V30 7 C 0.1854 2.5975 0.5546 0
M  V30 8 C 2.3296 3.7188 0.2598 0
M  V30 9 C 1.2787 3.306 1.0831 0
M  V30 10 C -0.9687 2.1286 1.4503 0 CFG=1
M  V30 11 C -0.4809 1.1398 2.5097 0
M  V30 12 C -1.7259 3.3172 2.0366 0
M  V30 13 C -0.6692 1.3769 3.8285 0
M  V30 14 C 0.2483 -0.0623 2.0364 0
M  V30 15 C -1.8654 3.4744 3.3723 0
M  V30 16 C -2.2722 4.3092 1.0823 0
M  V30 17 N -1.3282 2.5282 4.2303 0
M  V30 18 C -0.2393 0.4469 4.9359 0
M  V30 19 O 1.2089 -0.5603 2.6016 0
M  V30 20 O -0.3082 -0.5062 0.8813 0
M  V30 21 C -2.6123 4.6078 4.03 0
M  V30 22 O -2.1952 5.52 1.2187 0
M  V30 23 O -2.8651 3.66 0.0479 0
M  V30 24 C 0.3835 -1.613 0.2771 0
M  V30 25 C -3.4153 4.5314 -0.941 0
M  V30 26 C -0.1796 -1.8106 -1.138 0
M  V30 27 N 0.5442 -2.8202 -1.9302 0
M  V30 28 C 0.2274 -4.189 -1.4762 0
M  V30 29 C 0.2126 -2.6572 -3.3522 0
M  V30 30 C 1.1262 -5.2497 -2.079 0
M  V30 31 C 0.58 -6.3372 -2.776 0
M  V30 32 C 2.5189 -5.1745 -1.9252 0
M  V30 33 C 1.4104 -7.3224 -3.3142 0
M  V30 34 C 3.3472 -6.1599 -2.4641 0
M  V30 35 C 2.7927 -7.2333 -3.1583 0
M  V30 36 H -0.6806 1.7717 -1.2446 0
M  V30 37 H 3.1368 3.7581 -1.7293 0
M  V30 38 H 3.1683 4.2647 0.6872 0
M  V30 39 H 1.3201 3.5407 2.147 0
M  V30 40 H -1.6946 1.5785 0.834 0
M  V30 41 H -1.4404 2.6822 5.2299 0
M  V30 42 H 0.7599 0.7182 5.2907 0
M  V30 43 H -0.2392 -0.6025 4.6283 0
M  V30 44 H -0.9296 0.5121 5.7851 0
M  V30 45 H -1.912 5.389 4.3425 0
M  V30 46 H -3.1435 4.2511 4.9201 0
M  V30 47 H -3.3724 5.0517 3.3814 0
M  V30 48 H 0.2222 -2.5005 0.8972 0
M  V30 49 H 1.4567 -1.3933 0.2185 0
M  V30 50 H -3.861 3.9138 -1.7257 0
M  V30 51 H -4.1995 5.1589 -0.5059 0
M  V30 52 H -2.6288 5.1466 -1.3895 0
M  V30 53 H -1.2538 -2.0338 -1.0863 0
M  V30 54 H -0.1105 -0.835 -1.6384 0
M  V30 55 H 0.3572 -4.2749 -0.3907 0
M  V30 56 H -0.8269 -4.4228 -1.6762 0
M  V30 57 H 0.7892 -3.3441 -3.9803 0
M  V30 58 H -0.8537 -2.8199 -3.5471 0
M  V30 59 H 0.4736 -1.6485 -3.6931 0
M  V30 60 H -0.4958 -6.423 -2.9072 0
M  V30 61 H 2.9607 -4.3363 -1.3898 0
M  V30 62 H 0.9787 -8.1598 -3.8558 0
M  V30 63 H 4.4247 -6.0869 -2.3435 0
M  V30 64 H 3.4382 -7.9996 -3.5789 0
M  V30 END ATOM
M  V30 BEGIN BOND
M  V30 1 2 1 2
M  V30 2 1 2 3
M  V30 3 1 2 4
M  V30 4 2 4 5
M  V30 5 1 4 6
M  V30 6 1 5 7
M  V30 7 2 6 8
M  V30 8 2 7 9
M  V30 9 1 7 10
M  V30 10 1 10 11
M  V30 11 1 10 12
M  V30 12 2 11 13
M  V30 13 1 11 14
M  V30 14 2 12 15
M  V30 15 1 12 16
M  V30 16 1 13 17
M  V30 17 1 13 18
M  V30 18 2 14 19
M  V30 19 1 14 20
M  V30 20 1 15 21
M  V30 21 2 16 22
M  V30 22 1 16 23
M  V30 23 1 20 24
M  V30 24 1 23 25
M  V30 25 1 24 26
M  V30 26 1 26 27
M  V30 27 1 27 28
M  V30 28 1 27 29
M  V30 29 1 28 30
M  V30 30 2 30 31
M  V30 31 1 30 32
M  V30 32 1 31 33
M  V30 33 2 32 34
M  V30 34 2 33 35
M  V30 35 1 8 9
M  V30 36 1 15 17
M  V30 37 1 34 35
M  V30 38 1 5 36
M  V30 39 1 6 37
M  V30 40 1 8 38
M  V30 41 1 9 39
M  V30 42 1 10 40
M  V30 43 1 17 41
M  V30 44 1 18 42
M  V30 45 1 18 43
M  V30 46 1 18 44
M  V30 47 1 21 45
M  V30 48 1 21 46
M  V30 49 1 21 47
M  V30 50 1 24 48
M  V30 51 1 24 49
M  V30 52 1 25 50
M  V30 53 1 25 51
M  V30 54 1 25 52
M  V30 55 1 26 53
M  V30 56 1 26 54
M  V30 57 1 28 55
M  V30 58 1 28 56
M  V30 59 1 29 57
M  V30 60 1 29 58
M  V30 61 1 29 59
M  V30 62 1 31 60
M  V30 63 1 32 61
M  V30 64 1 33 62
M  V30 65 1 34 63
M  V30 66 1 35 64
M  V30 END BOND
M  V30 BEGIN COLLECTION
M  V30 MDLV30/STEABS ATOMS=(1 10)
M  V30 END COLLECTION
M  V30 END CTAB
M  END
>  <NO.>
3338

>  <Name>
(r)-nicardipine

>  <SMILES>
COC(=O)C1=C(C)NC(C)=C(C(=O)OCCN(C)Cc2ccccc2)[C@@H]1c1cccc([N+](=O)[O-])c1

>  <logBB>


>  <Class>
-1

>  <MW>
479.21

>  <nHBAcc>
8

>  <nHBDon>
1

>  <SLogP>
3.68

>  <TopoPSA>
111.01

>  <MMFF94 Energy>
82.612

$$$$
COC(=O)[C@@H]1C(O)=CC(Nc2ccc(Cl)cc2)=C[C@@H]1C
Actelion Java MolfileCreator 2.0

  0  0  0  0  0  0              0 V3000
M  V30 BEGIN CTAB
M  V30 COUNTS 36 37 0 0 0
M  V30 BEGIN ATOM
M  V30 1 Cl 5.453 -1.6014 -4.489 0
M  V30 2 C 4.4866 -1.3874 -3.0824 0
M  V30 3 C 3.534 -0.3743 -3.0428 0
M  V30 4 C 4.6603 -2.2275 -1.9874 0
M  V30 5 C 2.7479 -0.2032 -1.8979 0
M  V30 6 C 3.8724 -2.0494 -0.8455 0
M  V30 7 C 2.907 -1.0324 -0.7804 0
M  V30 8 N 2.1201 -0.9232 0.3784 0
M  V30 9 C 0.8601 -0.3976 0.5604 0
M  V30 10 C 0.5533 0.0892 1.9005 0
M  V30 11 C -0.1112 -0.3207 -0.3702 0
M  V30 12 C -0.7009 0.3113 2.3222 0
M  V30 13 C -1.4868 0.25 -0.0853 0 CFG=1
M  V30 14 O -0.9099 0.7676 3.6127 0
M  V30 15 C -1.8818 0.0389 1.4026 0 CFG=2
M  V30 16 C -1.5009 1.719 -0.5299 0
M  V30 17 C -3.1591 0.7903 1.7682 0
M  V30 18 O -3.276 1.524 2.7451 0
M  V30 19 O -4.1688 0.4814 0.9061 0
M  V30 20 C -5.4109 1.1215 1.2045 0
M  V30 21 H 3.3979 0.2894 -3.8919 0
M  V30 22 H 5.3995 -3.0231 -2.0136 0
M  V30 23 H 2.0296 0.6119 -1.8796 0
M  V30 24 H 4.0107 -2.7245 -0.0043 0
M  V30 25 H 2.571 -1.2507 1.2264 0
M  V30 26 H 1.3825 0.2879 2.5734 0
M  V30 27 H 0.0584 -0.6948 -1.3752 0
M  V30 28 H -2.2067 -0.2975 -0.7079 0
M  V30 29 H -1.8047 1.1679 3.674 0
M  V30 30 H -2.1286 -1.0236 1.5517 0
M  V30 31 H -2.5092 2.1418 -0.4817 0
M  V30 32 H -1.1625 1.816 -1.5681 0
M  V30 33 H -0.8466 2.3395 0.0924 0
M  V30 34 H -6.1385 0.8185 0.4466 0
M  V30 35 H -5.7786 0.804 2.1852 0
M  V30 36 H -5.3007 2.2096 1.1639 0
M  V30 END ATOM
M  V30 BEGIN BOND
M  V30 1 1 1 2
M  V30 2 2 2 3
M  V30 3 1 2 4
M  V30 4 1 3 5
M  V30 5 2 4 6
M  V30 6 2 5 7
M  V30 7 1 7 8
M  V30 8 1 8 9
M  V30 9 1 9 10
M  V30 10 2 9 11
M  V30 11 2 10 12
M  V30 12 1 11 13
M  V30 13 1 12 14
M  V30 14 1 12 15
M  V30 15 1 13 16
M  V30 16 1 15 17
M  V30 17 2 17 18
M  V30 18 1 17 19
M  V30 19 1 19 20
M  V30 20 1 6 7
M  V30 21 1 13 15
M  V30 22 1 3 21
M  V30 23 1 4 22
M  V30 24 1 5 23
M  V30 25 1 6 24
M  V30 26 1 8 25
M  V30 27 1 10 26
M  V30 28 1 11 27
M  V30 29 1 13 28
M  V30 30 1 14 29
M  V30 31 1 15 30
M  V30 32 1 16 31
M  V30 33 1 16 32
M  V30 34 1 16 33
M  V30 35 1 20 34
M  V30 36 1 20 35
M  V30 37 1 20 36
M  V30 END BOND
M  V30 BEGIN COLLECTION
M  V30 MDLV30/STEABS ATOMS=(2 13 15)
M  V30 END COLLECTION
M  V30 END CTAB
M  END
>  <NO.>
3340

>  <Name>


>  <SMILES>
COC(=O)[C@@H]1C(O)=CC(Nc2ccc(Cl)cc2)=C[C@@H]1C

>  <logBB>


>  <Class>
1

>  <MW>
293.08

>  <nHBAcc>
4

>  <nHBDon>
2

>  <SLogP>
3.52

>  <TopoPSA>
58.56

>  <MMFF94 Energy>
27.605

$$$$
COC(=O)[C@@H]1C(O)=CC(Nc2cccc(OC(F)(F)F)c2)=C[C@@H]1C
Actelion Java MolfileCreator 2.0

  0  0  0  0  0  0              0 V3000
M  V30 BEGIN CTAB
M  V30 COUNTS 40 41 0 0 0
M  V30 BEGIN ATOM
M  V30 1 F 6.6597 0.8005 -2.8041 0
M  V30 2 C 6.9104 0.0234 -1.7289 0
M  V30 3 F 7.4082 0.7825 -0.7292 0
M  V30 4 F 7.8531 -0.8807 -2.0767 0
M  V30 5 O 5.747 -0.6709 -1.3147 0
M  V30 6 C 4.6686 0.07 -0.922 0
M  V30 7 C 3.5556 -0.6888 -0.534 0
M  V30 8 C 4.5894 1.4601 -0.8805 0
M  V30 9 C 2.3634 -0.0874 -0.1016 0
M  V30 10 C 3.4111 2.0766 -0.4571 0
M  V30 11 N 1.2757 -0.9098 0.2395 0
M  V30 12 C 2.3089 1.3082 -0.0756 0
M  V30 13 C -0.0772 -0.6529 0.2383 0
M  V30 14 C -0.8859 -1.4531 1.1495 0
M  V30 15 C -0.7159 0.2366 -0.5451 0
M  V30 16 C -2.2187 -1.5652 1.0377 0
M  V30 17 C -2.2153 0.4495 -0.5003 0 CFG=1
M  V30 18 O -2.8908 -2.3932 1.9191 0
M  V30 19 C -2.9642 -0.8515 -0.0819 0 CFG=2
M  V30 20 C -2.4966 1.6485 0.4179 0
M  V30 21 C -4.46 -0.5466 0.0669 0
M  V30 22 O -5.1062 0.0837 -0.7632 0
M  V30 23 O -4.9985 -1.0789 1.2009 0
M  V30 24 C -6.3921 -0.8009 1.3711 0
M  V30 25 H 3.6205 -1.7737 -0.5832 0
M  V30 26 H 5.418 2.1008 -1.1669 0
M  V30 27 H 3.3497 3.1617 -0.4188 0
M  V30 28 H 1.5347 -1.8316 0.5748 0
M  V30 29 H 1.4158 1.8186 0.2745 0
M  V30 30 H -0.3747 -1.9835 1.9479 0
M  V30 31 H -0.1637 0.8349 -1.2635 0
M  V30 32 H -2.5432 0.7166 -1.5139 0
M  V30 33 H -3.8489 -2.2157 1.853 0
M  V30 34 H -2.9278 -1.5536 -0.9298 0
M  V30 35 H -3.5471 1.9517 0.3723 0
M  V30 36 H -2.2573 1.4253 1.4635 0
M  V30 37 H -1.9007 2.5186 0.1183 0
M  V30 38 H -6.7128 -1.252 2.3141 0
M  V30 39 H -6.5638 0.2784 1.427 0
M  V30 40 H -6.9724 -1.2473 0.5578 0
M  V30 END ATOM
M  V30 BEGIN BOND
M  V30 1 1 1 2
M  V30 2 1 2 3
M  V30 3 1 2 4
M  V30 4 1 2 5
M  V30 5 1 5 6
M  V30 6 2 6 7
M  V30 7 1 6 8
M  V30 8 1 7 9
M  V30 9 2 8 10
M  V30 10 1 9 11
M  V30 11 2 9 12
M  V30 12 1 11 13
M  V30 13 1 13 14
M  V30 14 2 13 15
M  V30 15 2 14 16
M  V30 16 1 15 17
M  V30 17 1 16 18
M  V30 18 1 16 19
M  V30 19 1 17 20
M  V30 20 1 19 21
M  V30 21 2 21 22
M  V30 22 1 21 23
M  V30 23 1 23 24
M  V30 24 1 10 12
M  V30 25 1 17 19
M  V30 26 1 7 25
M  V30 27 1 8 26
M  V30 28 1 10 27
M  V30 29 1 11 28
M  V30 30 1 12 29
M  V30 31 1 14 30
M  V30 32 1 15 31
M  V30 33 1 17 32
M  V30 34 1 18 33
M  V30 35 1 19 34
M  V30 36 1 20 35
M  V30 37 1 20 36
M  V30 38 1 20 37
M  V30 39 1 24 38
M  V30 40 1 24 39
M  V30 41 1 24 40
M  V30 END BOND
M  V30 BEGIN COLLECTION
M  V30 MDLV30/STEABS ATOMS=(2 17 19)
M  V30 END COLLECTION
M  V30 END CTAB
M  END
>  <NO.>
3341

>  <Name>


>  <SMILES>
COC(=O)[C@@H]1C(O)=CC(Nc2cccc(OC(F)(F)F)c2)=C[C@@H]1C

>  <logBB>


>  <Class>
1

>  <MW>
343.1

>  <nHBAcc>
5

>  <nHBDon>
2

>  <SLogP>
3.76

>  <TopoPSA>
67.79

>  <MMFF94 Energy>
40.516

$$$$
COC(=O)[C@@H]1C(O)=CC(Nc2cccc([N+](=O)[O-])c2)=C[C@@H]1C
Actelion Java MolfileCreator 2.0

  0  0  0  0  0  0              0 V3000
M  V30 BEGIN CTAB
M  V30 COUNTS 38 39 0 0 0
M  V30 BEGIN ATOM
M  V30 1 O 3.4236 -4.7797 -2.3876 0
M  V30 2 N 2.8279 -3.8735 -1.787 0 CHG=1
M  V30 3 O 3.3082 -3.219 -0.8506 0 CHG=-1
M  V30 4 C 1.4636 -3.5513 -2.2195 0
M  V30 5 C 0.697 -2.6448 -1.472 0
M  V30 6 C 0.9444 -4.1514 -3.372 0
M  V30 7 C -0.6063 -2.3264 -1.8684 0
M  V30 8 C -0.3505 -3.8376 -3.7747 0
M  V30 9 N -1.4135 -1.3992 -1.1872 0
M  V30 10 C -1.1132 -2.9322 -3.0301 0
M  V30 11 C -1.0749 -0.3605 -0.3477 0
M  V30 12 C -2.0826 0.0275 0.6325 0
M  V30 13 C 0.0777 0.3368 -0.3685 0
M  V30 14 C -2.0481 1.2001 1.2839 0
M  V30 15 C 0.3693 1.4824 0.5816 0 CFG=1
M  V30 16 O -3.0478 1.497 2.1946 0
M  V30 17 C -0.9395 2.2041 1.0056 0 CFG=2
M  V30 18 C 1.1871 0.9345 1.7594 0
M  V30 19 C -0.7007 3.2137 2.1253 0
M  V30 20 O -1.363 3.2734 3.1568 0
M  V30 21 O 0.2964 4.0814 1.7931 0
M  V30 22 C 0.5588 5.0792 2.7814 0
M  V30 23 H 1.1032 -2.2116 -0.5614 0
M  V30 24 H 1.5303 -4.8548 -3.9595 0
M  V30 25 H -0.7686 -4.2907 -4.6707 0
M  V30 26 H -2.4121 -1.5456 -1.2969 0
M  V30 27 H -2.1171 -2.6906 -3.3744 0
M  V30 28 H -2.8843 -0.6735 0.846 0
M  V30 29 H 0.8504 0.1076 -1.0956 0
M  V30 30 H 0.9962 2.206 0.0437 0
M  V30 31 H -2.7356 2.206 2.7985 0
M  V30 32 H -1.2978 2.8062 0.1563 0
M  V30 33 H 1.5506 1.7411 2.4036 0
M  V30 34 H 2.0681 0.3883 1.4025 0
M  V30 35 H 0.5992 0.2487 2.3795 0
M  V30 36 H 1.3821 5.7028 2.4227 0
M  V30 37 H -0.3205 5.7145 2.9258 0
M  V30 38 H 0.8617 4.6141 3.7247 0
M  V30 END ATOM
M  V30 BEGIN BOND
M  V30 1 2 1 2
M  V30 2 1 2 3
M  V30 3 1 2 4
M  V30 4 2 4 5
M  V30 5 1 4 6
M  V30 6 1 5 7
M  V30 7 2 6 8
M  V30 8 1 7 9
M  V30 9 2 7 10
M  V30 10 1 9 11
M  V30 11 1 11 12
M  V30 12 2 11 13
M  V30 13 2 12 14
M  V30 14 1 13 15
M  V30 15 1 14 16
M  V30 16 1 14 17
M  V30 17 1 15 18
M  V30 18 1 17 19
M  V30 19 2 19 20
M  V30 20 1 19 21
M  V30 21 1 21 22
M  V30 22 1 8 10
M  V30 23 1 15 17
M  V30 24 1 5 23
M  V30 25 1 6 24
M  V30 26 1 8 25
M  V30 27 1 9 26
M  V30 28 1 10 27
M  V30 29 1 12 28
M  V30 30 1 13 29
M  V30 31 1 15 30
M  V30 32 1 16 31
M  V30 33 1 17 32
M  V30 34 1 18 33
M  V30 35 1 18 34
M  V30 36 1 18 35
M  V30 37 1 22 36
M  V30 38 1 22 37
M  V30 39 1 22 38
M  V30 END BOND
M  V30 BEGIN COLLECTION
M  V30 MDLV30/STEABS ATOMS=(2 15 17)
M  V30 END COLLECTION
M  V30 END CTAB
M  END
>  <NO.>
3342

>  <Name>


>  <SMILES>
COC(=O)[C@@H]1C(O)=CC(Nc2cccc([N+](=O)[O-])c2)=C[C@@H]1C

>  <logBB>


>  <Class>
1

>  <MW>
304.11

>  <nHBAcc>
6

>  <nHBDon>
2

>  <SLogP>
2.77

>  <TopoPSA>
101.7

>  <MMFF94 Energy>
55.7

$$$$
COC1(NC(=O)Cc2cccs2)C(=O)N2C(C(=O)O)=C(COC(N)=O)CS[C@H]21
Actelion Java MolfileCreator 2.0

  0  0  0  0  0  0              0 V3000
M  V30 BEGIN CTAB
M  V30 COUNTS 45 47 0 0 0
M  V30 BEGIN ATOM
M  V30 1 S 1.4795 1.644 0.3286 0
M  V30 2 C 0.4555 0.7849 1.5432 0 CFG=2
M  V30 3 C 2.9708 0.6698 0.7111 0
M  V30 4 N 0.4315 -0.6263 1.259 0
M  V30 5 C -1.121 0.7904 1.3793 0
M  V30 6 C 2.7438 -0.8254 0.8227 0
M  V30 7 C 1.5348 -1.3842 1.0565 0
M  V30 8 C -0.9005 -0.8204 1.3785 0
M  V30 9 O -1.8611 1.2383 2.556 0
M  V30 10 N -1.7121 1.3527 0.1305 0
M  V30 11 C 4.0069 -1.6356 0.6272 0
M  V30 12 C 1.3643 -2.8565 1.0633 0
M  V30 13 O -1.5679 -1.8272 1.4341 0
M  V30 14 C -1.6827 2.5902 2.9537 0
M  V30 15 C -1.5608 0.822 -1.1335 0
M  V30 16 O 4.4026 -1.505 -0.7414 0
M  V30 17 O 1.7142 -3.6033 1.9599 0
M  V30 18 O 0.8008 -3.2932 -0.0725 0
M  V30 19 O -0.8658 -0.1549 -1.3889 0
M  V30 20 C -2.2916 1.5874 -2.2245 0
M  V30 21 C 5.5961 -2.0701 -1.0207 0
M  V30 22 C -3.7718 1.5316 -1.9931 0
M  V30 23 O 6.3399 -2.6195 -0.2258 0
M  V30 24 N 5.8692 -1.9388 -2.3366 0
M  V30 25 S -4.6148 2.9216 -1.4497 0
M  V30 26 C -4.6216 0.4555 -2.158 0
M  V30 27 C -6.1062 2.0868 -1.4305 0
M  V30 28 C -5.9701 0.7764 -1.8298 0
M  V30 29 H 0.7753 0.9813 2.5753 0
M  V30 30 H 3.6843 0.8885 -0.0896 0
M  V30 31 H 3.4046 1.0406 1.6465 0
M  V30 32 H -2.3974 2.0903 0.2314 0
M  V30 33 H 4.7883 -1.2387 1.2883 0
M  V30 34 H 3.8774 -2.6969 0.8583 0
M  V30 35 H -2.3434 2.7896 3.8016 0
M  V30 36 H -0.6504 2.7635 3.2683 0
M  V30 37 H -1.9438 3.2717 2.1398 0
M  V30 38 H 0.641 -4.2458 0.0774 0
M  V30 39 H -2.0515 1.1334 -3.1928 0
M  V30 40 H -1.9134 2.6159 -2.2429 0
M  V30 41 H 6.7281 -2.3209 -2.7016 0
M  V30 42 H 5.2039 -1.4889 -2.9465 0
M  V30 43 H -4.2904 -0.5224 -2.4905 0
M  V30 44 H -7.0118 2.5947 -1.1275 0
M  V30 45 H -6.7978 0.0796 -1.8833 0
M  V30 END ATOM
M  V30 BEGIN BOND
M  V30 1 1 1 2
M  V30 2 1 1 3
M  V30 3 1 2 4
M  V30 4 1 2 5
M  V30 5 1 3 6
M  V30 6 1 4 7
M  V30 7 1 4 8
M  V30 8 1 5 9
M  V30 9 1 5 10
M  V30 10 1 6 11
M  V30 11 1 7 12
M  V30 12 2 8 13
M  V30 13 1 9 14
M  V30 14 1 10 15
M  V30 15 1 11 16
M  V30 16 2 12 17
M  V30 17 1 12 18
M  V30 18 2 15 19
M  V30 19 1 15 20
M  V30 20 1 16 21
M  V30 21 1 20 22
M  V30 22 2 21 23
M  V30 23 1 21 24
M  V30 24 1 22 25
M  V30 25 2 22 26
M  V30 26 1 25 27
M  V30 27 1 26 28
M  V30 28 1 5 8
M  V30 29 2 6 7
M  V30 30 2 27 28
M  V30 31 1 2 29
M  V30 32 1 3 30
M  V30 33 1 3 31
M  V30 34 1 10 32
M  V30 35 1 11 33
M  V30 36 1 11 34
M  V30 37 1 14 35
M  V30 38 1 14 36
M  V30 39 1 14 37
M  V30 40 1 18 38
M  V30 41 1 20 39
M  V30 42 1 20 40
M  V30 43 1 24 41
M  V30 44 1 24 42
M  V30 45 1 26 43
M  V30 46 1 27 44
M  V30 47 1 28 45
M  V30 END BOND
M  V30 BEGIN COLLECTION
M  V30 MDLV30/STEABS ATOMS=(1 2)
M  V30 END COLLECTION
M  V30 END CTAB
M  END
>  <NO.>
3359

>  <Name>
schembl11223104

>  <SMILES>
COC1(NC(=O)Cc2cccs2)C(=O)N2C(C(=O)O)=C(COC(N)=O)CS[C@H]21

>  <logBB>


>  <Class>
-1

>  <MW>
427.05

>  <nHBAcc>
8

>  <nHBDon>
3

>  <SLogP>
0.1

>  <TopoPSA>
148.26

>  <MMFF94 Energy>
-48.021

$$$$
CO[C@H]1CCC[C@H]2C1=C(C=O)N1C(=O)C([C@H](C)O)[C@H]21
Actelion Java MolfileCreator 2.0

  0  0  0  0  0  0              0 V3000
M  V30 BEGIN CTAB
M  V30 COUNTS 38 40 0 0 0
M  V30 BEGIN ATOM
M  V30 1 O 0.8817 1.6839 -3.0487 0
M  V30 2 C 0.8266 0.7273 -2.3126 0
M  V30 3 N 1.1925 0.5883 -1.0087 0
M  V30 4 C 0.211 -0.6939 -2.3295 0
M  V30 5 C 0.7757 1.4099 0.003 0
M  V30 6 C 0.6498 -0.7756 -0.8284 0 CFG=2
M  V30 7 C 0.7989 -1.7162 -3.2926 0 CFG=1
M  V30 8 C -0.072 0.7745 0.8232 0
M  V30 9 C 1.2046 2.8288 0.0529 0
M  V30 10 C -0.3359 -0.6332 0.341 0 CFG=2
M  V30 11 O 0.252 -1.5159 -4.5951 0
M  V30 12 C 2.3143 -1.6495 -3.4163 0
M  V30 13 C -0.769 1.2236 2.0637 0 CFG=1
M  V30 14 O 0.9393 3.5845 0.9807 0
M  V30 15 C -0.0557 -1.6264 1.4671 0
M  V30 16 O -2.1656 1.2604 1.7532 0
M  V30 17 C -0.5236 0.194 3.18 0
M  V30 18 C -0.8237 -1.2476 2.7382 0
M  V30 19 C -2.8372 2.3248 2.4159 0
M  V30 20 H -0.8829 -0.6562 -2.4319 0
M  V30 21 H 1.4595 -1.4903 -0.6342 0
M  V30 22 H 0.5123 -2.7254 -2.9759 0
M  V30 23 H 1.8018 3.1653 -0.8113 0
M  V30 24 H -1.3719 -0.7287 -0.0056 0
M  V30 25 H -0.7106 -1.6488 -4.5547 0
M  V30 26 H 2.6409 -0.685 -3.8202 0
M  V30 27 H 2.8145 -1.8107 -2.4577 0
M  V30 28 H 2.6683 -2.4116 -4.1196 0
M  V30 29 H -0.4199 2.2054 2.3964 0
M  V30 30 H -0.334 -2.6379 1.149 0
M  V30 31 H 1.0177 -1.6581 1.6965 0
M  V30 32 H 0.5221 0.2546 3.5074 0
M  V30 33 H -1.1507 0.4258 4.0488 0
M  V30 34 H -1.9004 -1.3619 2.5625 0
M  V30 35 H -0.5581 -1.9389 3.5461 0
M  V30 36 H -2.7282 2.237 3.5009 0
M  V30 37 H -3.9001 2.2676 2.1661 0
M  V30 38 H -2.4515 3.2899 2.0733 0
M  V30 END ATOM
M  V30 BEGIN BOND
M  V30 1 2 1 2
M  V30 2 1 2 3
M  V30 3 1 2 4
M  V30 4 1 3 5
M  V30 5 1 3 6
M  V30 6 1 4 7
M  V30 7 2 5 8
M  V30 8 1 5 9
M  V30 9 1 6 10
M  V30 10 1 7 11
M  V30 11 1 7 12
M  V30 12 1 8 13
M  V30 13 2 9 14
M  V30 14 1 10 15
M  V30 15 1 13 16
M  V30 16 1 13 17
M  V30 17 1 15 18
M  V30 18 1 16 19
M  V30 19 1 4 6
M  V30 20 1 8 10
M  V30 21 1 17 18
M  V30 22 1 4 20
M  V30 23 1 6 21
M  V30 24 1 7 22
M  V30 25 1 9 23
M  V30 26 1 10 24
M  V30 27 1 11 25
M  V30 28 1 12 26
M  V30 29 1 12 27
M  V30 30 1 12 28
M  V30 31 1 13 29
M  V30 32 1 15 30
M  V30 33 1 15 31
M  V30 34 1 17 32
M  V30 35 1 17 33
M  V30 36 1 18 34
M  V30 37 1 18 35
M  V30 38 1 19 36
M  V30 39 1 19 37
M  V30 40 1 19 38
M  V30 END BOND
M  V30 BEGIN COLLECTION
M  V30 MDLV30/STEABS ATOMS=(4 6 7 10 13)
M  V30 END COLLECTION
M  V30 END CTAB
M  END
>  <NO.>
3394

>  <Name>


>  <SMILES>
CO[C@H]1CCC[C@H]2C1=C(C=O)N1C(=O)C([C@H](C)O)[C@H]21

>  <logBB>


>  <Class>
-1

>  <MW>
265.13

>  <nHBAcc>
4

>  <nHBDon>
1

>  <SLogP>
0.48

>  <TopoPSA>
66.84

>  <MMFF94 Energy>
41.365

$$$$
COc1cc(N)c(Cl)cc1C(=O)N[C@H]1CCN(CCCOc2ccc(F)cc2)C[C@@H]1OC
Actelion Java MolfileCreator 2.0

  0  0  0  0  0  0              0 V3000
M  V30 BEGIN CTAB
M  V30 COUNTS 61 63 0 0 0
M  V30 BEGIN ATOM
M  V30 1 Cl 5.0308 0.4782 -5.8311 0
M  V30 2 C 3.4096 0.9189 -5.4149 0
M  V30 3 C 2.9369 2.2243 -5.6552 0
M  V30 4 C 2.5911 -0.0538 -4.8375 0
M  V30 5 N 3.755 3.2203 -6.1739 0
M  V30 6 C 1.6259 2.5372 -5.278 0
M  V30 7 C 1.2799 0.2753 -4.4837 0
M  V30 8 C 0.7922 1.5631 -4.7187 0
M  V30 9 C 0.4206 -0.7617 -3.8775 0
M  V30 10 O -0.4613 1.9262 -4.3027 0
M  V30 11 O -0.6256 -1.0948 -4.4157 0
M  V30 12 N 0.9037 -1.294 -2.702 0
M  V30 13 C -1.3677 1.9382 -5.4081 0
M  V30 14 C 0.1832 -2.3429 -1.974 0 CFG=2
M  V30 15 C -1.1121 -1.8347 -1.3025 0 CFG=1
M  V30 16 C 1.0895 -3.0123 -0.9352 0
M  V30 17 O -1.8983 -2.9902 -0.9474 0
M  V30 18 C -0.7613 -0.9606 -0.0743 0
M  V30 19 C 1.3431 -2.1148 0.2775 0
M  V30 20 C -3.2445 -2.686 -0.6153 0
M  V30 21 N 0.097 -1.6561 0.908 0
M  V30 22 C 0.3959 -0.824 2.0853 0
M  V30 23 C -0.8277 -0.5663 2.9691 0
M  V30 24 C -0.4328 0.1521 4.2581 0
M  V30 25 O -1.6229 0.3922 5.0102 0
M  V30 26 C -1.4861 1.0335 6.2099 0
M  V30 27 C -0.2863 1.4749 6.7742 0
M  V30 28 C -2.6875 1.2431 6.8971 0
M  V30 29 C -0.2927 2.1205 8.0147 0
M  V30 30 C -2.6947 1.8873 8.1352 0
M  V30 31 C -1.495 2.3207 8.6829 0
M  V30 32 F -1.4951 2.9398 9.8705 0
M  V30 33 H 2.9657 -1.0613 -4.6775 0
M  V30 34 H 3.381 4.1213 -6.4379 0
M  V30 35 H 4.6809 2.9673 -6.5022 0
M  V30 36 H 1.2481 3.5481 -5.4064 0
M  V30 37 H 1.7524 -0.9137 -2.3039 0
M  V30 38 H -1.1795 2.8059 -6.0491 0
M  V30 39 H -2.3823 2.0254 -5.0079 0
M  V30 40 H -1.3116 1.0154 -5.9959 0
M  V30 41 H -0.0863 -3.103 -2.7193 0
M  V30 42 H -1.6886 -1.2343 -2.0164 0
M  V30 43 H 2.0491 -3.2871 -1.39 0
M  V30 44 H 0.6237 -3.9464 -0.5952 0
M  V30 45 H -1.696 -0.6582 0.4047 0
M  V30 46 H -0.2682 -0.0408 -0.4162 0
M  V30 47 H 1.9292 -2.6936 1.0022 0
M  V30 48 H 1.9614 -1.2576 -0.0191 0
M  V30 49 H -3.3023 -2.1486 0.3344 0
M  V30 50 H -3.7873 -3.6286 -0.5021 0
M  V30 51 H -3.7225 -2.1065 -1.4107 0
M  V30 52 H 0.8475 0.1293 1.7815 0
M  V30 53 H 1.1403 -1.3436 2.7031 0
M  V30 54 H -1.3255 -1.5115 3.2209 0
M  V30 55 H -1.5751 0.0422 2.4474 0
M  V30 56 H 0.2535 -0.4803 4.8338 0
M  V30 57 H 0.0517 1.1044 4.011 0
M  V30 58 H 0.6676 1.3327 6.2783 0
M  V30 59 H -3.6235 0.9003 6.4623 0
M  V30 60 H 0.6326 2.4674 8.4634 0
M  V30 61 H -3.6241 2.0511 8.6705 0
M  V30 END ATOM
M  V30 BEGIN BOND
M  V30 1 1 1 2
M  V30 2 2 2 3
M  V30 3 1 2 4
M  V30 4 1 3 5
M  V30 5 1 3 6
M  V30 6 2 4 7
M  V30 7 2 6 8
M  V30 8 1 7 9
M  V30 9 1 8 10
M  V30 10 2 9 11
M  V30 11 1 9 12
M  V30 12 1 10 13
M  V30 13 1 12 14
M  V30 14 1 14 15
M  V30 15 1 14 16
M  V30 16 1 15 17
M  V30 17 1 15 18
M  V30 18 1 16 19
M  V30 19 1 17 20
M  V30 20 1 18 21
M  V30 21 1 21 22
M  V30 22 1 22 23
M  V30 23 1 23 24
M  V30 24 1 24 25
M  V30 25 1 25 26
M  V30 26 2 26 27
M  V30 27 1 26 28
M  V30 28 1 27 29
M  V30 29 2 28 30
M  V30 30 2 29 31
M  V30 31 1 31 32
M  V30 32 1 7 8
M  V30 33 1 19 21
M  V30 34 1 30 31
M  V30 35 1 4 33
M  V30 36 1 5 34
M  V30 37 1 5 35
M  V30 38 1 6 36
M  V30 39 1 12 37
M  V30 40 1 13 38
M  V30 41 1 13 39
M  V30 42 1 13 40
M  V30 43 1 14 41
M  V30 44 1 15 42
M  V30 45 1 16 43
M  V30 46 1 16 44
M  V30 47 1 18 45
M  V30 48 1 18 46
M  V30 49 1 19 47
M  V30 50 1 19 48
M  V30 51 1 20 49
M  V30 52 1 20 50
M  V30 53 1 20 51
M  V30 54 1 22 52
M  V30 55 1 22 53
M  V30 56 1 23 54
M  V30 57 1 23 55
M  V30 58 1 24 56
M  V30 59 1 24 57
M  V30 60 1 27 58
M  V30 61 1 28 59
M  V30 62 1 29 60
M  V30 63 1 30 61
M  V30 END BOND
M  V30 BEGIN COLLECTION
M  V30 MDLV30/STEABS ATOMS=(2 14 15)
M  V30 END COLLECTION
M  V30 END CTAB
M  END
>  <NO.>
3405

>  <Name>
cisapride

>  <SMILES>
COc1cc(N)c(Cl)cc1C(=O)N[C@H]1CCN(CCCOc2ccc(F)cc2)C[C@@H]1OC

>  <logBB>


>  <Class>
1

>  <MW>
465.18

>  <nHBAcc>
6

>  <nHBDon>
2

>  <SLogP>
3.36

>  <TopoPSA>
86.05

>  <MMFF94 Energy>
93.214

$$$$
COc1ccc(CCN2CCN(c3ccccc3Cl)CC2)cc1OC
Actelion Java MolfileCreator 2.0

  0  0  0  0  0  0              0 V3000
M  V30 BEGIN CTAB
M  V30 COUNTS 50 52 0 0 0
M  V30 BEGIN ATOM
M  V30 1 Cl -3.9962 3.8361 -1.1975 0
M  V30 2 C -3.8857 4.44 0.4252 0
M  V30 3 C -2.9621 3.9076 1.353 0
M  V30 4 C -4.7869 5.4478 0.7917 0
M  V30 5 N -2.0448 2.9189 1.0007 0
M  V30 6 C -2.9936 4.4287 2.6581 0
M  V30 7 C -4.7888 5.9467 2.0917 0
M  V30 8 C -0.893 3.3508 0.1929 0
M  V30 9 C -1.7543 1.8234 1.9327 0
M  V30 10 C -3.8932 5.4358 3.025 0
M  V30 11 C -0.243 2.1359 -0.5071 0
M  V30 12 C -1.0854 0.6432 1.1867 0
M  V30 13 N 0.1278 1.0448 0.4323 0
M  V30 14 C 0.7062 -0.0831 -0.3234 0
M  V30 15 C 1.3441 -1.1541 0.5775 0
M  V30 16 C 2.0442 -2.2196 -0.2345 0
M  V30 17 C 1.3258 -3.3116 -0.7447 0
M  V30 18 C 3.4102 -2.115 -0.5109 0
M  V30 19 C 1.9632 -4.2933 -1.5143 0
M  V30 20 C 4.0553 -3.089 -1.2768 0
M  V30 21 O 1.3332 -5.3909 -2.048 0
M  V30 22 C 3.3422 -4.1811 -1.7818 0
M  V30 23 C -0.0566 -5.5403 -1.7998 0
M  V30 24 O 3.8932 -5.1826 -2.543 0
M  V30 25 C 5.2832 -5.1081 -2.8226 0
M  V30 26 H -5.4948 5.8395 0.066 0
M  V30 27 H -2.2944 4.068 3.4078 0
M  V30 28 H -5.4888 6.7281 2.3756 0
M  V30 29 H -1.1795 4.0803 -0.5728 0
M  V30 30 H -0.1561 3.839 0.8442 0
M  V30 31 H -1.087 2.1713 2.7313 0
M  V30 32 H -2.6796 1.4596 2.3962 0
M  V30 33 H -3.8871 5.8216 4.0415 0
M  V30 34 H 0.6554 2.4885 -1.0278 0
M  V30 35 H -0.9366 1.7549 -1.2692 0
M  V30 36 H -1.8201 0.1931 0.5055 0
M  V30 37 H -0.8286 -0.1104 1.9385 0
M  V30 38 H 1.4938 0.3066 -0.9826 0
M  V30 39 H -0.0477 -0.5398 -0.9788 0
M  V30 40 H 2.0629 -0.6888 1.2644 0
M  V30 41 H 0.5909 -1.6394 1.2093 0
M  V30 42 H 0.2645 -3.3738 -0.5267 0
M  V30 43 H 3.9845 -1.272 -0.1317 0
M  V30 44 H 5.1166 -2.9641 -1.4623 0
M  V30 45 H -0.2579 -5.6481 -0.7288 0
M  V30 46 H -0.3877 -6.4592 -2.2932 0
M  V30 47 H -0.6265 -4.7096 -2.229 0
M  V30 48 H 5.5212 -4.2138 -3.4079 0
M  V30 49 H 5.5499 -5.9804 -3.427 0
M  V30 50 H 5.8747 -5.149 -1.902 0
M  V30 END ATOM
M  V30 BEGIN BOND
M  V30 1 1 1 2
M  V30 2 2 2 3
M  V30 3 1 2 4
M  V30 4 1 3 5
M  V30 5 1 3 6
M  V30 6 2 4 7
M  V30 7 1 5 8
M  V30 8 1 5 9
M  V30 9 2 6 10
M  V30 10 1 8 11
M  V30 11 1 9 12
M  V30 12 1 11 13
M  V30 13 1 13 14
M  V30 14 1 14 15
M  V30 15 1 15 16
M  V30 16 2 16 17
M  V30 17 1 16 18
M  V30 18 1 17 19
M  V30 19 2 18 20
M  V30 20 1 19 21
M  V30 21 2 19 22
M  V30 22 1 21 23
M  V30 23 1 22 24
M  V30 24 1 24 25
M  V30 25 1 7 10
M  V30 26 1 12 13
M  V30 27 1 20 22
M  V30 28 1 4 26
M  V30 29 1 6 27
M  V30 30 1 7 28
M  V30 31 1 8 29
M  V30 32 1 8 30
M  V30 33 1 9 31
M  V30 34 1 9 32
M  V30 35 1 10 33
M  V30 36 1 11 34
M  V30 37 1 11 35
M  V30 38 1 12 36
M  V30 39 1 12 37
M  V30 40 1 14 38
M  V30 41 1 14 39
M  V30 42 1 15 40
M  V30 43 1 15 41
M  V30 44 1 17 42
M  V30 45 1 18 43
M  V30 46 1 20 44
M  V30 47 1 23 45
M  V30 48 1 23 46
M  V30 49 1 23 47
M  V30 50 1 25 48
M  V30 51 1 25 49
M  V30 52 1 25 50
M  V30 END BOND
M  V30 END CTAB
M  END
>  <NO.>
3430

>  <Name>
mefeclorazine

>  <SMILES>
COc1ccc(CCN2CCN(c3ccccc3Cl)CC2)cc1OC

>  <logBB>


>  <Class>
1

>  <MW>
360.16

>  <nHBAcc>
4

>  <nHBDon>
0

>  <SLogP>
3.72

>  <TopoPSA>
24.94

>  <MMFF94 Energy>
174.2

$$$$
COc1ccc2c3c([nH]c2c1)[C@@H]1C[C@H]2[C@H](C[C@H](OC(=O)c4cc(OC)c(OC)c(OC)c4)[C@H](OC)[C@H]2OC(C)=O)CN1CC3
Actelion Java MolfileCreator 2.0

  0  0  0  0  0  0              0 V3000
M  V30 BEGIN CTAB
M  V30 COUNTS 84 89 0 0 0
M  V30 BEGIN ATOM
M  V30 1 O 4.0862 -0.16 -1.3606 0
M  V30 2 C 3.4537 -1.1542 -1.0449 0
M  V30 3 O 2.3198 -1.174 -0.3082 0
M  V30 4 C 3.8255 -2.5387 -1.4469 0
M  V30 5 C 1.8369 0.0932 0.1904 0 CFG=2
M  V30 6 C 4.9018 -2.697 -2.3331 0
M  V30 7 C 3.1347 -3.6626 -0.9652 0
M  V30 8 C 1.0837 -0.1673 1.5115 0 CFG=2
M  V30 9 C 0.9103 0.7215 -0.8541 0
M  V30 10 C 5.2918 -3.9713 -2.7463 0
M  V30 11 C 3.5087 -4.9445 -1.3697 0
M  V30 12 O 1.9166 -0.8682 2.4603 0
M  V30 13 C -0.1644 -1.0417 1.2583 0 CFG=1
M  V30 14 C -0.3294 -0.1524 -1.1231 0 CFG=1
M  V30 15 O 6.3249 -4.2329 -3.6084 0
M  V30 16 C 4.5992 -5.0885 -2.2457 0
M  V30 17 O 2.8964 -6.1017 -0.9627 0
M  V30 18 C 2.9196 -0.0534 3.0511 0
M  V30 19 O -0.8813 -1.1741 2.5081 0
M  V30 20 C -1.0993 -0.4556 0.1778 0 CFG=2
M  V30 21 C -1.268 0.4625 -2.1773 0
M  V30 22 C 6.9589 -3.1226 -4.2294 0
M  V30 23 O 4.9481 -6.3471 -2.6854 0
M  V30 24 C 1.7028 -5.9806 -0.1983 0
M  V30 25 C -1.5657 -2.3358 2.6846 0
M  V30 26 C -1.8747 0.7891 0.6549 0
M  V30 27 N -2.046 1.5932 -1.696 0
M  V30 28 C 5.9194 -6.9144 -1.808 0
M  V30 29 O -1.6722 -3.2344 1.8621 0
M  V30 30 C -2.199 -2.3523 4.042 0
M  V30 31 C -2.7848 1.3442 -0.4545 0 CFG=2
M  V30 32 C -1.4915 2.9286 -1.9779 0
M  V30 33 C -3.4549 2.5963 -0.0027 0
M  V30 34 C -1.7088 4.0665 -0.9446 0
M  V30 35 N -4.6386 2.6847 0.6729 0
M  V30 36 C -2.9804 3.8709 -0.2095 0
M  V30 37 C -4.924 4.0097 0.9321 0
M  V30 38 C -3.8939 4.7781 0.3832 0
M  V30 39 C -6.0116 4.5834 1.6027 0
M  V30 40 C -3.9571 6.1779 0.5115 0
M  V30 41 C -6.0592 5.9784 1.7227 0
M  V30 42 C -5.0417 6.7648 1.1824 0
M  V30 43 O -7.1595 6.4442 2.3947 0
M  V30 44 C -7.2796 7.8541 2.534 0
M  V30 45 H 2.6837 0.7616 0.383 0
M  V30 46 H 5.4173 -1.808 -2.6848 0
M  V30 47 H 2.3123 -3.5217 -0.2714 0
M  V30 48 H 0.7711 0.7791 1.9704 0
M  V30 49 H 1.4545 0.854 -1.797 0
M  V30 50 H 0.6222 1.7184 -0.5053 0
M  V30 51 H 0.1838 -2.0352 0.9435 0
M  V30 52 H 0.0221 -1.1091 -1.5342 0
M  V30 53 H 2.4773 0.8341 3.5133 0
M  V30 54 H 3.4163 -0.6378 3.8306 0
M  V30 55 H 3.6722 0.2367 2.3138 0
M  V30 56 H -1.8572 -1.2199 -0.0467 0
M  V30 57 H -1.9753 -0.3148 -2.4964 0
M  V30 58 H -0.7069 0.7231 -3.0836 0
M  V30 59 H 6.2429 -2.5276 -4.8062 0
M  V30 60 H 7.7064 -3.5119 -4.9273 0
M  V30 61 H 7.4827 -2.5065 -3.4911 0
M  V30 62 H 1.9082 -5.5362 0.781 0
M  V30 63 H 1.3103 -6.9882 -0.0302 0
M  V30 64 H 0.9395 -5.4118 -0.7399 0
M  V30 65 H -1.1804 1.5656 0.9993 0
M  V30 66 H -2.4934 0.5303 1.5241 0
M  V30 67 H 6.8363 -6.3152 -1.7856 0
M  V30 68 H 6.175 -7.9074 -2.1896 0
M  V30 69 H 5.5213 -7.0348 -0.7944 0
M  V30 70 H -1.4297 -2.25 4.8116 0
M  V30 71 H -2.9307 -1.5441 4.1187 0
M  V30 72 H -2.7129 -3.3063 4.1907 0
M  V30 73 H -3.5619 0.5986 -0.6712 0
M  V30 74 H -1.9574 3.2526 -2.9184 0
M  V30 75 H -0.4175 2.8811 -2.1943 0
M  V30 76 H -1.6913 5.0364 -1.4535 0
M  V30 77 H -0.8846 4.0554 -0.2205 0
M  V30 78 H -5.2247 1.908 0.9457 0
M  V30 79 H -6.8033 3.9697 2.0204 0
M  V30 80 H -3.1733 6.8029 0.0945 0
M  V30 81 H -5.055 7.8467 1.2612 0
M  V30 82 H -6.451 8.2649 3.1203 0
M  V30 83 H -8.2059 8.0582 3.0798 0
M  V30 84 H -7.3549 8.343 1.557 0
M  V30 END ATOM
M  V30 BEGIN BOND
M  V30 1 2 1 2
M  V30 2 1 2 3
M  V30 3 1 2 4
M  V30 4 1 3 5
M  V30 5 2 4 6
M  V30 6 1 4 7
M  V30 7 1 5 8
M  V30 8 1 5 9
M  V30 9 1 6 10
M  V30 10 2 7 11
M  V30 11 1 8 12
M  V30 12 1 8 13
M  V30 13 1 9 14
M  V30 14 1 10 15
M  V30 15 2 10 16
M  V30 16 1 11 17
M  V30 17 1 12 18
M  V30 18 1 13 19
M  V30 19 1 13 20
M  V30 20 1 14 21
M  V30 21 1 15 22
M  V30 22 1 16 23
M  V30 23 1 17 24
M  V30 24 1 19 25
M  V30 25 1 20 26
M  V30 26 1 21 27
M  V30 27 1 23 28
M  V30 28 2 25 29
M  V30 29 1 25 30
M  V30 30 1 26 31
M  V30 31 1 27 32
M  V30 32 1 31 33
M  V30 33 1 32 34
M  V30 34 1 33 35
M  V30 35 2 33 36
M  V30 36 1 35 37
M  V30 37 1 36 38
M  V30 38 1 37 39
M  V30 39 1 38 40
M  V30 40 2 39 41
M  V30 41 2 40 42
M  V30 42 1 41 43
M  V30 43 1 43 44
M  V30 44 1 11 16
M  V30 45 1 14 20
M  V30 46 1 27 31
M  V30 47 1 34 36
M  V30 48 2 37 38
M  V30 49 1 41 42
M  V30 50 1 5 45
M  V30 51 1 6 46
M  V30 52 1 7 47
M  V30 53 1 8 48
M  V30 54 1 9 49
M  V30 55 1 9 50
M  V30 56 1 13 51
M  V30 57 1 14 52
M  V30 58 1 18 53
M  V30 59 1 18 54
M  V30 60 1 18 55
M  V30 61 1 20 56
M  V30 62 1 21 57
M  V30 63 1 21 58
M  V30 64 1 22 59
M  V30 65 1 22 60
M  V30 66 1 22 61
M  V30 67 1 24 62
M  V30 68 1 24 63
M  V30 69 1 24 64
M  V30 70 1 26 65
M  V30 71 1 26 66
M  V30 72 1 28 67
M  V30 73 1 28 68
M  V30 74 1 28 69
M  V30 75 1 30 70
M  V30 76 1 30 71
M  V30 77 1 30 72
M  V30 78 1 31 73
M  V30 79 1 32 74
M  V30 80 1 32 75
M  V30 81 1 34 76
M  V30 82 1 34 77
M  V30 83 1 35 78
M  V30 84 1 39 79
M  V30 85 1 40 80
M  V30 86 1 42 81
M  V30 87 1 44 82
M  V30 88 1 44 83
M  V30 89 1 44 84
M  V30 END BOND
M  V30 BEGIN COLLECTION
M  V30 MDLV30/STEABS ATOMS=(6 5 8 13 14 20 31)
M  V30 END COLLECTION
M  V30 END CTAB
M  END
>  <NO.>
3451

>  <Name>


>  <SMILES>
COc1ccc2c3c([nH]c2c1)[C@@H]1C[C@H]2[C@H](C[C@H](OC(=O)c4cc(OC)c(OC)c(OC)c4)[C@H](OC)[C@H]2OC(C)=O)CN1CC3

>  <logBB>


>  <Class>
1

>  <MW>
608.27

>  <nHBAcc>
10

>  <nHBDon>
1

>  <SLogP>
4.31

>  <TopoPSA>
117.78

>  <MMFF94 Energy>
137.25

$$$$
COc1cccc2c1C[C@H](CCCNCCCCN1C(=O)CC3(CCCC3)CC1=O)CO2
Actelion Java MolfileCreator 2.0

  0  0  0  0  0  0              0 V3000
M  V30 BEGIN CTAB
M  V30 COUNTS 70 73 0 0 0
M  V30 BEGIN ATOM
M  V30 1 O 0.0793 1.5087 -5.8061 0
M  V30 2 C -1.0509 1.3002 -5.3625 0
M  V30 3 N -1.3662 0.2125 -4.5508 0
M  V30 4 C -2.1597 2.2884 -5.6438 0
M  V30 5 C -2.6249 -0.0581 -4.0191 0
M  V30 6 C -0.2878 -0.733 -4.2599 0
M  V30 7 C -3.5422 1.6345 -5.6631 0
M  V30 8 O -2.8616 -1.022 -3.2897 0
M  V30 9 C -3.7247 0.935 -4.32 0
M  V30 10 C 0.6702 -0.2429 -3.1648 0
M  V30 11 C -4.6388 2.7025 -5.8712 0
M  V30 12 C -3.7028 0.6702 -6.8686 0
M  V30 13 C 0.0191 -0.185 -1.7789 0
M  V30 14 C -4.912 2.6879 -7.3665 0
M  V30 15 C -4.8675 1.2082 -7.6963 0
M  V30 16 C 0.9522 0.3432 -0.6811 0
M  V30 17 N 2.077 -0.5617 -0.4381 0
M  V30 18 C 2.9832 -0.0723 0.6044 0
M  V30 19 C 2.3947 -0.1912 2.0147 0
M  V30 20 C 3.4276 0.2049 3.076 0
M  V30 21 C 2.8553 0.2214 4.5032 0 CFG=2
M  V30 22 C 3.9079 0.7019 5.501 0
M  V30 23 C 2.3655 -1.1562 4.9609 0
M  V30 24 O 3.3566 0.8852 6.807 0
M  V30 25 C 2.136 -1.2013 6.4504 0
M  V30 26 C 2.6426 -0.1865 7.2728 0
M  V30 27 C 1.429 -2.2717 7.0337 0
M  V30 28 C 2.4096 -0.2038 8.6467 0
M  V30 29 O 0.9975 -3.2419 6.1657 0
M  V30 30 C 1.2139 -2.2884 8.4161 0
M  V30 31 C 1.6976 -1.2536 9.2189 0
M  V30 32 C 0.2567 -4.326 6.7101 0
M  V30 33 H -1.9494 2.7736 -6.6047 0
M  V30 34 H -2.1041 3.0627 -4.8679 0
M  V30 35 H -0.6978 -1.7108 -3.9828 0
M  V30 36 H 0.288 -0.8857 -5.1812 0
M  V30 37 H -3.7391 1.6634 -3.4994 0
M  V30 38 H -4.681 0.3976 -4.2988 0
M  V30 39 H 1.0664 0.7462 -3.4222 0
M  V30 40 H 1.5222 -0.9316 -3.1418 0
M  V30 41 H -5.557 2.4271 -5.3365 0
M  V30 42 H -4.3442 3.6983 -5.524 0
M  V30 43 H -2.7988 0.6558 -7.4892 0
M  V30 44 H -3.9004 -0.364 -6.5668 0
M  V30 45 H -0.8537 0.4774 -1.8145 0
M  V30 46 H -0.3504 -1.1803 -1.502 0
M  V30 47 H -4.1264 3.2273 -7.9081 0
M  V30 48 H -5.8758 3.1404 -7.6167 0
M  V30 49 H -4.7351 1.023 -8.7662 0
M  V30 50 H -5.8006 0.7247 -7.3827 0
M  V30 51 H 0.3536 0.4546 0.2291 0
M  V30 52 H 1.3171 1.3381 -0.9636 0
M  V30 53 H 2.6126 -0.6654 -1.2992 0
M  V30 54 H 3.8939 -0.6818 0.5584 0
M  V30 55 H 3.2895 0.96 0.396 0
M  V30 56 H 2.0657 -1.2235 2.182 0
M  V30 57 H 1.5154 0.4542 2.118 0
M  V30 58 H 4.283 -0.4806 3.0261 0
M  V30 59 H 3.8125 1.205 2.8387 0
M  V30 60 H 2.006 0.9183 4.5417 0
M  V30 61 H 4.3047 1.6744 5.1889 0
M  V30 62 H 4.7602 0.0125 5.5629 0
M  V30 63 H 1.4312 -1.3931 4.4384 0
M  V30 64 H 3.1042 -1.9261 4.7045 0
M  V30 65 H 2.7919 0.5995 9.2705 0
M  V30 66 H 0.6709 -3.0922 8.9017 0
M  V30 67 H 1.5229 -1.2689 10.2915 0
M  V30 68 H 0.8625 -4.9025 7.4168 0
M  V30 69 H -0.015 -4.992 5.8854 0
M  V30 70 H -0.6714 -3.977 7.1748 0
M  V30 END ATOM
M  V30 BEGIN BOND
M  V30 1 2 1 2
M  V30 2 1 2 3
M  V30 3 1 2 4
M  V30 4 1 3 5
M  V30 5 1 3 6
M  V30 6 1 4 7
M  V30 7 2 5 8
M  V30 8 1 5 9
M  V30 9 1 6 10
M  V30 10 1 7 11
M  V30 11 1 7 12
M  V30 12 1 10 13
M  V30 13 1 11 14
M  V30 14 1 12 15
M  V30 15 1 13 16
M  V30 16 1 16 17
M  V30 17 1 17 18
M  V30 18 1 18 19
M  V30 19 1 19 20
M  V30 20 1 20 21
M  V30 21 1 21 22
M  V30 22 1 21 23
M  V30 23 1 22 24
M  V30 24 1 23 25
M  V30 25 1 24 26
M  V30 26 1 25 27
M  V30 27 1 26 28
M  V30 28 1 27 29
M  V30 29 2 27 30
M  V30 30 2 28 31
M  V30 31 1 29 32
M  V30 32 1 7 9
M  V30 33 1 14 15
M  V30 34 2 25 26
M  V30 35 1 30 31
M  V30 36 1 4 33
M  V30 37 1 4 34
M  V30 38 1 6 35
M  V30 39 1 6 36
M  V30 40 1 9 37
M  V30 41 1 9 38
M  V30 42 1 10 39
M  V30 43 1 10 40
M  V30 44 1 11 41
M  V30 45 1 11 42
M  V30 46 1 12 43
M  V30 47 1 12 44
M  V30 48 1 13 45
M  V30 49 1 13 46
M  V30 50 1 14 47
M  V30 51 1 14 48
M  V30 52 1 15 49
M  V30 53 1 15 50
M  V30 54 1 16 51
M  V30 55 1 16 52
M  V30 56 1 17 53
M  V30 57 1 18 54
M  V30 58 1 18 55
M  V30 59 1 19 56
M  V30 60 1 19 57
M  V30 61 1 20 58
M  V30 62 1 20 59
M  V30 63 1 21 60
M  V30 64 1 22 61
M  V30 65 1 22 62
M  V30 66 1 23 63
M  V30 67 1 23 64
M  V30 68 1 28 65
M  V30 69 1 30 66
M  V30 70 1 31 67
M  V30 71 1 32 68
M  V30 72 1 32 69
M  V30 73 1 32 70
M  V30 END BOND
M  V30 BEGIN COLLECTION
M  V30 MDLV30/STEABS ATOMS=(1 21)
M  V30 END COLLECTION
M  V30 END CTAB
M  END
>  <NO.>
3473

>  <Name>
alnespirone

>  <SMILES>
COc1cccc2c1C[C@H](CCCNCCCCN1C(=O)CC3(CCCC3)CC1=O)CO2

>  <logBB>


>  <Class>
1

>  <MW>
442.28

>  <nHBAcc>
5

>  <nHBDon>
1

>  <SLogP>
4.11

>  <TopoPSA>
67.87

>  <MMFF94 Energy>
5.2927

$$$$
COc1ccccc1N1CCN(CCCCN2C(=O)[C@H]3C(=O)N(C(C)(C)C)C(=O)[C@H](C2=O)C3(C)C)CC1
Actelion Java MolfileCreator 2.0

  0  0  0  0  0  0              0 V3000
M  V30 BEGIN CTAB
M  V30 COUNTS 77 80 0 0 0
M  V30 BEGIN ATOM
M  V30 1 O -3.9048 -1.5923 -4.6233 0
M  V30 2 C -4.2094 -0.6276 -3.9238 0
M  V30 3 N -5.449 -0.485 -3.2868 0
M  V30 4 C -3.1537 0.4317 -3.641 0 CFG=2
M  V30 5 C -5.5534 0.2631 -2.107 0
M  V30 6 C -6.5784 -1.4193 -3.6641 0
M  V30 7 C -2.142 -0.1436 -2.6627 0
M  V30 8 C -3.7549 1.7378 -3.1232 0
M  V30 9 O -6.4064 0.0657 -1.2431 0
M  V30 10 C -4.4796 1.3103 -1.8474 0 CFG=1
M  V30 11 C -6.4346 -2.7498 -2.9047 0
M  V30 12 C -7.9751 -0.8114 -3.357 0
M  V30 13 C -6.6188 -1.7108 -5.1897 0
M  V30 14 O -1.1014 -0.664 -3.0608 0
M  V30 15 N -2.4687 -0.0234 -1.3094 0
M  V30 16 C -2.6664 2.8025 -2.8399 0
M  V30 17 C -4.712 2.3894 -4.15 0
M  V30 18 C -3.5107 0.7629 -0.8114 0
M  V30 19 C -1.5541 -0.6251 -0.3397 0
M  V30 20 O -3.648 1.0222 0.3827 0
M  V30 21 C -0.413 0.3272 0.0306 0
M  V30 22 C 0.5523 -0.3252 1.0227 0
M  V30 23 C 1.6905 0.6329 1.3964 0
M  V30 24 N 2.5726 0.0826 2.4374 0
M  V30 25 C 3.4157 -1.0261 1.9249 0
M  V30 26 C 3.4716 1.1503 2.9498 0
M  V30 27 C 4.408 -1.5782 2.9775 0
M  V30 28 C 4.4582 0.6543 4.0305 0
M  V30 29 N 5.2272 -0.4962 3.5325 0
M  V30 30 C 6.4445 -0.7679 4.158 0
M  V30 31 C 7.529 0.1472 4.1076 0
M  V30 32 C 6.639 -1.9713 4.8595 0
M  V30 33 O 7.3281 1.2939 3.3713 0
M  V30 34 C 8.7323 -0.1455 4.7672 0
M  V30 35 C 7.8432 -2.2586 5.5058 0
M  V30 36 C 8.4581 2.1111 3.1055 0
M  V30 37 C 8.8871 -1.3442 5.463 0
M  V30 38 H -2.6294 0.6296 -4.5855 0
M  V30 39 H -4.9774 2.1857 -1.409 0
M  V30 40 H -7.2431 -3.443 -3.1629 0
M  V30 41 H -6.4605 -2.5959 -1.8205 0
M  V30 42 H -5.4849 -3.2427 -3.1387 0
M  V30 43 H -8.046 0.2164 -3.7303 0
M  V30 44 H -8.7773 -1.3931 -3.8272 0
M  V30 45 H -8.2147 -0.8078 -2.2903 0
M  V30 46 H -5.8274 -2.3905 -5.5161 0
M  V30 47 H -6.538 -0.7835 -5.7682 0
M  V30 48 H -7.5551 -2.2036 -5.4787 0
M  V30 49 H -1.9099 2.4766 -2.1206 0
M  V30 50 H -2.1363 3.0689 -3.7617 0
M  V30 51 H -3.1157 3.7179 -2.4373 0
M  V30 52 H -5.5439 1.748 -4.4509 0
M  V30 53 H -5.1508 3.3072 -3.741 0
M  V30 54 H -4.1718 2.6588 -5.065 0
M  V30 55 H -2.1156 -0.9004 0.5609 0
M  V30 56 H -1.1447 -1.5505 -0.7616 0
M  V30 57 H -0.8242 1.2474 0.4633 0
M  V30 58 H 0.1333 0.6238 -0.8729 0
M  V30 59 H 0.0041 -0.6175 1.927 0
M  V30 60 H 0.9519 -1.2407 0.573 0
M  V30 61 H 2.2618 0.9087 0.5006 0
M  V30 62 H 1.2301 1.5551 1.7748 0
M  V30 63 H 2.7849 -1.8626 1.6066 0
M  V30 64 H 3.9843 -0.6901 1.0472 0
M  V30 65 H 4.0451 1.588 2.1213 0
M  V30 66 H 2.8671 1.9526 3.3902 0
M  V30 67 H 5.0405 -2.3283 2.4872 0
M  V30 68 H 3.8484 -2.0752 3.7799 0
M  V30 69 H 3.9002 0.3511 4.9261 0
M  V30 70 H 5.0949 1.495 4.3247 0
M  V30 71 H 5.8351 -2.6979 4.9335 0
M  V30 72 H 9.5707 0.5418 4.7563 0
M  V30 73 H 7.9573 -3.1937 6.0473 0
M  V30 74 H 8.8251 2.5831 4.0226 0
M  V30 75 H 8.1403 2.9095 2.4278 0
M  V30 76 H 9.251 1.5468 2.6037 0
M  V30 77 H 9.8234 -1.5624 5.9693 0
M  V30 END ATOM
M  V30 BEGIN BOND
M  V30 1 2 1 2
M  V30 2 1 2 3
M  V30 3 1 2 4
M  V30 4 1 3 5
M  V30 5 1 3 6
M  V30 6 1 4 7
M  V30 7 1 4 8
M  V30 8 2 5 9
M  V30 9 1 5 10
M  V30 10 1 6 11
M  V30 11 1 6 12
M  V30 12 1 6 13
M  V30 13 2 7 14
M  V30 14 1 7 15
M  V30 15 1 8 16
M  V30 16 1 8 17
M  V30 17 1 10 18
M  V30 18 1 15 19
M  V30 19 2 18 20
M  V30 20 1 19 21
M  V30 21 1 21 22
M  V30 22 1 22 23
M  V30 23 1 23 24
M  V30 24 1 24 25
M  V30 25 1 24 26
M  V30 26 1 25 27
M  V30 27 1 26 28
M  V30 28 1 27 29
M  V30 29 1 29 30
M  V30 30 2 30 31
M  V30 31 1 30 32
M  V30 32 1 31 33
M  V30 33 1 31 34
M  V30 34 2 32 35
M  V30 35 1 33 36
M  V30 36 2 34 37
M  V30 37 1 8 10
M  V30 38 1 15 18
M  V30 39 1 28 29
M  V30 40 1 35 37
M  V30 41 1 4 38
M  V30 42 1 10 39
M  V30 43 1 11 40
M  V30 44 1 11 41
M  V30 45 1 11 42
M  V30 46 1 12 43
M  V30 47 1 12 44
M  V30 48 1 12 45
M  V30 49 1 13 46
M  V30 50 1 13 47
M  V30 51 1 13 48
M  V30 52 1 16 49
M  V30 53 1 16 50
M  V30 54 1 16 51
M  V30 55 1 17 52
M  V30 56 1 17 53
M  V30 57 1 17 54
M  V30 58 1 19 55
M  V30 59 1 19 56
M  V30 60 1 21 57
M  V30 61 1 21 58
M  V30 62 1 22 59
M  V30 63 1 22 60
M  V30 64 1 23 61
M  V30 65 1 23 62
M  V30 66 1 25 63
M  V30 67 1 25 64
M  V30 68 1 26 65
M  V30 69 1 26 66
M  V30 70 1 27 67
M  V30 71 1 27 68
M  V30 72 1 28 69
M  V30 73 1 28 70
M  V30 74 1 32 71
M  V30 75 1 34 72
M  V30 76 1 35 73
M  V30 77 1 36 74
M  V30 78 1 36 75
M  V30 79 1 36 76
M  V30 80 1 37 77
M  V30 END BOND
M  V30 BEGIN COLLECTION
M  V30 MDLV30/STEABS ATOMS=(2 4 10)
M  V30 END COLLECTION
M  V30 END CTAB
M  END
>  <NO.>
3475

>  <Name>


>  <SMILES>
COc1ccccc1N1CCN(CCCCN2C(=O)[C@H]3C(=O)N(C(C)(C)C)C(=O)[C@H](C2=O)C3(C)C)CC1

>  <logBB>


>  <Class>
1

>  <MW>
512.3

>  <nHBAcc>
7

>  <nHBDon>
0

>  <SLogP>
2.39

>  <TopoPSA>
90.47

>  <MMFF94 Energy>
77.256

$$$$
C[C@H](C(=O)O)c1cccc(C(=O)c2ccccc2)c1
Actelion Java MolfileCreator 2.0

  0  0  0  0  0  0              0 V3000
M  V30 BEGIN CTAB
M  V30 COUNTS 33 34 0 0 0
M  V30 BEGIN ATOM
M  V30 1 O -1.9905 -3.0268 0.3182 0
M  V30 2 C -1.0603 -2.2404 0.1606 0
M  V30 3 C -1.3458 -0.8759 -0.3473 0
M  V30 4 C 0.3247 -2.6716 0.481 0
M  V30 5 C -0.6723 0.2464 0.1545 0
M  V30 6 C -2.3367 -0.7208 -1.3199 0
M  V30 7 C 0.5127 -3.5986 1.513 0
M  V30 8 C 1.4277 -2.2071 -0.2463 0
M  V30 9 C -0.9582 1.5304 -0.3398 0
M  V30 10 C -2.623 0.5467 -1.822 0
M  V30 11 C 1.7986 -4.0333 1.8374 0
M  V30 12 C 2.7125 -2.6451 0.0817 0
M  V30 13 C -1.9338 1.6625 -1.3418 0
M  V30 14 C -0.2104 2.7386 0.2104 0 CFG=1
M  V30 15 C 2.8971 -3.5531 1.1247 0
M  V30 16 C 0.7508 3.3461 -0.8014 0
M  V30 17 C -1.1769 3.797 0.7486 0
M  V30 18 O 0.973 2.9755 -1.9423 0
M  V30 19 O 1.4412 4.3926 -0.2981 0
M  V30 20 H 0.0676 0.1249 0.9427 0
M  V30 21 H -2.8796 -1.5873 -1.6917 0
M  V30 22 H -0.3428 -3.9838 2.0642 0
M  V30 23 H 1.3032 -1.5212 -1.0806 0
M  V30 24 H -3.3829 0.6664 -2.5904 0
M  V30 25 H 1.9414 -4.7514 2.641 0
M  V30 26 H 3.5694 -2.2863 -0.4832 0
M  V30 27 H -2.1666 2.6386 -1.7634 0
M  V30 28 H 0.4128 2.3975 1.0482 0
M  V30 29 H 3.8979 -3.8967 1.3751 0
M  V30 30 H -1.7353 4.2863 -0.0571 0
M  V30 31 H -0.6357 4.5835 1.2862 0
M  V30 32 H -1.8992 3.3564 1.4446 0
M  V30 33 H 2.025 4.6652 -1.0375 0
M  V30 END ATOM
M  V30 BEGIN BOND
M  V30 1 2 1 2
M  V30 2 1 2 3
M  V30 3 1 2 4
M  V30 4 2 3 5
M  V30 5 1 3 6
M  V30 6 2 4 7
M  V30 7 1 4 8
M  V30 8 1 5 9
M  V30 9 2 6 10
M  V30 10 1 7 11
M  V30 11 2 8 12
M  V30 12 2 9 13
M  V30 13 1 9 14
M  V30 14 2 11 15
M  V30 15 1 14 16
M  V30 16 1 14 17
M  V30 17 2 16 18
M  V30 18 1 16 19
M  V30 19 1 10 13
M  V30 20 1 12 15
M  V30 21 1 5 20
M  V30 22 1 6 21
M  V30 23 1 7 22
M  V30 24 1 8 23
M  V30 25 1 10 24
M  V30 26 1 11 25
M  V30 27 1 12 26
M  V30 28 1 13 27
M  V30 29 1 14 28
M  V30 30 1 15 29
M  V30 31 1 17 30
M  V30 32 1 17 31
M  V30 33 1 17 32
M  V30 34 1 19 33
M  V30 END BOND
M  V30 BEGIN COLLECTION
M  V30 MDLV30/STEABS ATOMS=(1 14)
M  V30 END COLLECTION
M  V30 END CTAB
M  END
>  <NO.>
3535

>  <Name>
ketoprofen

>  <SMILES>
C[C@H](C(=O)O)c1cccc(C(=O)c2ccccc2)c1

>  <logBB>


>  <Class>
1

>  <MW>
254.09

>  <nHBAcc>
2

>  <nHBDon>
1

>  <SLogP>
3.11

>  <TopoPSA>
54.37

>  <MMFF94 Energy>
71.594

$$$$
C[C@H](N)Cc1ccc(O)cc1
Actelion Java MolfileCreator 2.0

  0  0  0  0  0  0              0 V3000
M  V30 BEGIN CTAB
M  V30 COUNTS 24 24 0 0 0
M  V30 BEGIN ATOM
M  V30 1 O 1.6271 3.8775 0.3872 0
M  V30 2 C 0.9699 2.7177 0.1013 0
M  V30 3 C -0.1459 2.3184 0.8284 0
M  V30 4 C 1.4506 1.9427 -0.9459 0
M  V30 5 C -0.7875 1.1217 0.5004 0
M  V30 6 C 0.8094 0.7472 -1.273 0
M  V30 7 C -0.3144 0.3214 -0.5499 0
M  V30 8 C -1.005 -0.978 -0.899 0
M  V30 9 C -0.4962 -2.2396 -0.1619 0 CFG=1
M  V30 10 N 0.9244 -2.5179 -0.3999 0
M  V30 11 C -0.7503 -2.1937 1.3442 0
M  V30 12 H 1.1817 4.3082 1.135 0
M  V30 13 H -0.5295 2.9189 1.647 0
M  V30 14 H 2.321 2.2692 -1.5077 0
M  V30 15 H -1.6607 0.8157 1.0726 0
M  V30 16 H 1.1927 0.1525 -2.0986 0
M  V30 17 H -2.0823 -0.8649 -0.717 0
M  V30 18 H -0.9164 -1.1378 -1.9824 0
M  V30 19 H -1.0607 -3.0916 -0.5607 0
M  V30 20 H 1.1119 -2.5047 -1.4011 0
M  V30 21 H 1.4824 -1.7586 -0.0047 0
M  V30 22 H -0.1489 -1.4254 1.8415 0
M  V30 23 H -1.8058 -1.9894 1.5534 0
M  V30 24 H -0.5029 -3.1556 1.8076 0
M  V30 END ATOM
M  V30 BEGIN BOND
M  V30 1 1 1 2
M  V30 2 2 2 3
M  V30 3 1 2 4
M  V30 4 1 3 5
M  V30 5 2 4 6
M  V30 6 2 5 7
M  V30 7 1 7 8
M  V30 8 1 8 9
M  V30 9 1 9 10
M  V30 10 1 9 11
M  V30 11 1 6 7
M  V30 12 1 1 12
M  V30 13 1 3 13
M  V30 14 1 4 14
M  V30 15 1 5 15
M  V30 16 1 6 16
M  V30 17 1 8 17
M  V30 18 1 8 18
M  V30 19 1 9 19
M  V30 20 1 10 20
M  V30 21 1 10 21
M  V30 22 1 11 22
M  V30 23 1 11 23
M  V30 24 1 11 24
M  V30 END BOND
M  V30 BEGIN COLLECTION
M  V30 MDLV30/STEABS ATOMS=(1 9)
M  V30 END COLLECTION
M  V30 END CTAB
M  END
>  <NO.>
3539

>  <Name>
4-hydroxy-dextroamphetamine

>  <SMILES>
C[C@H](N)Cc1ccc(O)cc1

>  <logBB>


>  <Class>
-1

>  <MW>
151.1

>  <nHBAcc>
2

>  <nHBDon>
2

>  <SLogP>
1.28

>  <TopoPSA>
46.25

>  <MMFF94 Energy>
19.499

$$$$
C[C@H](O)C1C(=O)N2C(C(=O)O)=C(F)S[C@@H]12
Actelion Java MolfileCreator 2.0

  0  0  0  0  0  0              0 V3000
M  V30 BEGIN CTAB
M  V30 COUNTS 23 24 0 0 0
M  V30 BEGIN ATOM
M  V30 1 S 1.0774 -1.4091 -1.1603 0
M  V30 2 C -0.4732 -2.184 -1.0602 0
M  V30 3 C 0.9076 -0.7821 0.5615 0 CFG=2
M  V30 4 F -0.9162 -3.0025 -2.0296 0
M  V30 5 C -1.1684 -1.8512 0.0323 0
M  V30 6 N -0.5078 -0.9995 0.8893 0
M  V30 7 C 0.67 0.7277 0.8221 0
M  V30 8 C -2.538 -2.2944 0.3393 0
M  V30 9 C -0.8176 0.3249 1.0018 0
M  V30 10 C 0.9463 1.7745 -0.2455 0 CFG=1
M  V30 11 O -3.0379 -2.3265 1.4507 0
M  V30 12 O -3.236 -2.6772 -0.7421 0
M  V30 13 O -1.8876 0.8824 1.0662 0
M  V30 14 O 0.4757 3.0334 0.2328 0
M  V30 15 C 2.4425 1.917 -0.4924 0
M  V30 16 H 1.5791 -1.2669 1.2786 0
M  V30 17 H 1.1043 1.0403 1.7846 0
M  V30 18 H 0.4196 1.5488 -1.1788 0
M  V30 19 H -4.1191 -2.9059 -0.3826 0
M  V30 20 H 0.4794 3.6593 -0.5129 0
M  V30 21 H 2.893 0.9908 -0.857 0
M  V30 22 H 2.9638 2.2082 0.4268 0
M  V30 23 H 2.6348 2.7074 -1.2261 0
M  V30 END ATOM
M  V30 BEGIN BOND
M  V30 1 1 1 2
M  V30 2 1 1 3
M  V30 3 1 2 4
M  V30 4 2 2 5
M  V30 5 1 3 6
M  V30 6 1 3 7
M  V30 7 1 5 8
M  V30 8 1 6 9
M  V30 9 1 7 10
M  V30 10 2 8 11
M  V30 11 1 8 12
M  V30 12 2 9 13
M  V30 13 1 10 14
M  V30 14 1 10 15
M  V30 15 1 5 6
M  V30 16 1 7 9
M  V30 17 1 3 16
M  V30 18 1 7 17
M  V30 19 1 10 18
M  V30 20 1 12 19
M  V30 21 1 14 20
M  V30 22 1 15 21
M  V30 23 1 15 22
M  V30 24 1 15 23
M  V30 END BOND
M  V30 BEGIN COLLECTION
M  V30 MDLV30/STEABS ATOMS=(2 3 10)
M  V30 END COLLECTION
M  V30 END CTAB
M  END
>  <NO.>
3546

>  <Name>


>  <SMILES>
C[C@H](O)C1C(=O)N2C(C(=O)O)=C(F)S[C@@H]12

>  <logBB>


>  <Class>
-1

>  <MW>
233.02

>  <nHBAcc>
4

>  <nHBDon>
2

>  <SLogP>
0.12

>  <TopoPSA>
77.84

>  <MMFF94 Energy>
-5.8316

$$$$
C[C@H]1C[C@@H]2[C@H]([C@@H](O)CC3(C)[C@@H](C(=O)O)CC[C@@H]23)C2(C)CCC(=O)C=C12
Actelion Java MolfileCreator 2.0

  0  0  0  0  0  0              0 V3000
M  V30 BEGIN CTAB
M  V30 COUNTS 55 58 0 0 0
M  V30 BEGIN ATOM
M  V30 1 O -5.2355 -2.2527 0.7236 0
M  V30 2 C -4.2109 -1.7692 0.249 0
M  V30 3 C -3.9561 -0.3144 0.3846 0
M  V30 4 C -3.1344 -2.6142 -0.3771 0
M  V30 5 C -2.8791 0.2744 -0.1706 0
M  V30 6 C -2.5017 -1.8484 -1.5233 0
M  V30 7 C -1.9022 -0.4739 -1.1056 0
M  V30 8 C -2.4445 1.6953 0.177 0 CFG=2
M  V30 9 C -0.5636 -0.6062 -0.2867 0 CFG=1
M  V30 10 C -1.7392 0.3112 -2.434 0
M  V30 11 C -1.1019 1.6055 0.9259 0
M  V30 12 C -3.4353 2.5243 1.0052 0
M  V30 13 C 0.5488 -1.4807 -0.9334 0 CFG=1
M  V30 14 C -0.0269 0.7988 0.1661 0 CFG=1
M  V30 15 O 0.8392 -1.0391 -2.2512 0
M  V30 16 C 1.8508 -1.5313 -0.1028 0
M  V30 17 C 1.2143 0.5838 1.0425 0 CFG=1
M  V30 18 C 2.3648 -0.1384 0.309 0
M  V30 19 C 1.8958 1.793 1.6703 0
M  V30 20 C 3.4214 -0.1445 1.4448 0 CFG=2
M  V30 21 C 2.912 0.6339 -0.919 0
M  V30 22 C 3.2707 1.2529 2.0989 0
M  V30 23 C 4.8413 -0.4391 1.0155 0
M  V30 24 O 5.817 0.2809 1.1384 0
M  V30 25 O 4.9737 -1.6704 0.4841 0
M  V30 26 H -4.6473 0.1947 1.0457 0
M  V30 27 H -3.5922 -3.5317 -0.7627 0
M  V30 28 H -2.4031 -2.8899 0.3886 0
M  V30 29 H -3.2852 -1.6821 -2.2784 0
M  V30 30 H -1.7529 -2.4752 -2.0188 0
M  V30 31 H -2.2973 2.2555 -0.7536 0
M  V30 32 H -0.8205 -1.1352 0.6456 0
M  V30 33 H -2.7164 0.6264 -2.8218 0
M  V30 34 H -1.2813 -0.3051 -3.2148 0
M  V30 35 H -1.1284 1.2119 -2.3372 0
M  V30 36 H -1.2654 1.1508 1.9131 0
M  V30 37 H -0.7276 2.6207 1.11 0
M  V30 38 H -3.5997 2.093 1.9989 0
M  V30 39 H -3.0545 3.5419 1.1485 0
M  V30 40 H -4.4024 2.605 0.4969 0
M  V30 41 H 0.1848 -2.5103 -1.0215 0
M  V30 42 H 0.2538 1.3871 -0.7125 0
M  V30 43 H 1.5197 -1.6284 -2.6208 0
M  V30 44 H 2.6254 -2.0614 -0.6693 0
M  V30 45 H 1.6559 -2.1268 0.7988 0
M  V30 46 H 0.8922 -0.0506 1.886 0
M  V30 47 H 2.0104 2.6094 0.9486 0
M  V30 48 H 1.3391 2.1839 2.5282 0
M  V30 49 H 3.1619 -0.8948 2.2052 0
M  V30 50 H 2.1331 0.9187 -1.629 0
M  V30 51 H 3.639 0.024 -1.4675 0
M  V30 52 H 3.4235 1.5599 -0.6357 0
M  V30 53 H 3.3224 1.1583 3.19 0
M  V30 54 H 4.056 1.9563 1.802 0
M  V30 55 H 5.9313 -1.7332 0.2818 0
M  V30 END ATOM
M  V30 BEGIN BOND
M  V30 1 2 1 2
M  V30 2 1 2 3
M  V30 3 1 2 4
M  V30 4 2 3 5
M  V30 5 1 4 6
M  V30 6 1 5 7
M  V30 7 1 5 8
M  V30 8 1 7 9
M  V30 9 1 7 10
M  V30 10 1 8 11
M  V30 11 1 8 12
M  V30 12 1 9 13
M  V30 13 1 9 14
M  V30 14 1 13 15
M  V30 15 1 13 16
M  V30 16 1 14 17
M  V30 17 1 16 18
M  V30 18 1 17 19
M  V30 19 1 18 20
M  V30 20 1 18 21
M  V30 21 1 19 22
M  V30 22 1 20 23
M  V30 23 2 23 24
M  V30 24 1 23 25
M  V30 25 1 6 7
M  V30 26 1 11 14
M  V30 27 1 17 18
M  V30 28 1 20 22
M  V30 29 1 3 26
M  V30 30 1 4 27
M  V30 31 1 4 28
M  V30 32 1 6 29
M  V30 33 1 6 30
M  V30 34 1 8 31
M  V30 35 1 9 32
M  V30 36 1 10 33
M  V30 37 1 10 34
M  V30 38 1 10 35
M  V30 39 1 11 36
M  V30 40 1 11 37
M  V30 41 1 12 38
M  V30 42 1 12 39
M  V30 43 1 12 40
M  V30 44 1 13 41
M  V30 45 1 14 42
M  V30 46 1 15 43
M  V30 47 1 16 44
M  V30 48 1 16 45
M  V30 49 1 17 46
M  V30 50 1 19 47
M  V30 51 1 19 48
M  V30 52 1 20 49
M  V30 53 1 21 50
M  V30 54 1 21 51
M  V30 55 1 21 52
M  V30 56 1 22 53
M  V30 57 1 22 54
M  V30 58 1 25 55
M  V30 END BOND
M  V30 BEGIN COLLECTION
M  V30 MDLV30/STEABS ATOMS=(6 8 9 13 14 17 20)
M  V30 END COLLECTION
M  V30 END CTAB
M  END
>  <NO.>
3563

>  <Name>


>  <SMILES>
C[C@H]1C[C@@H]2[C@H]([C@@H](O)CC3(C)[C@@H](C(=O)O)CC[C@@H]23)C2(C)CCC(=O)C=C12

>  <logBB>


>  <Class>
1

>  <MW>
346.21

>  <nHBAcc>
3

>  <nHBDon>
2

>  <SLogP>
3.44

>  <TopoPSA>
74.6

>  <MMFF94 Energy>
59.842

$$$$
C[C@H]1C[C@@H]2[C@H]([C@@H](O)CC3(C)[C@H]2CCC3(O)C(=O)CO)C2(C)C=CC(=O)C=C12
Actelion Java MolfileCreator 2.0

  0  0  0  0  0  0              0 V3000
M  V30 BEGIN CTAB
M  V30 COUNTS 57 60 0 0 0
M  V30 BEGIN ATOM
M  V30 1 O -5.6476 2.2561 2.1755 0
M  V30 2 C -4.6258 1.595 2.0414 0
M  V30 3 C -4.4557 0.6653 0.9064 0
M  V30 4 C -3.5151 1.6992 3.0002 0
M  V30 5 C -3.3392 -0.0666 0.727 0
M  V30 6 C -2.401 0.976 2.8367 0
M  V30 7 C -2.1397 -0.0059 1.6969 0
M  V30 8 C -3.1376 -0.9857 -0.4704 0 CFG=2
M  V30 9 C -0.8769 0.4607 0.8693 0 CFG=1
M  V30 10 C -1.9783 -1.3895 2.3676 0
M  V30 11 C -1.9228 -0.4872 -1.261 0
M  V30 12 C -4.3348 -1.136 -1.419 0
M  V30 13 C 0.4317 0.5511 1.6823 0 CFG=1
M  V30 14 C -0.6378 -0.3938 -0.4037 0 CFG=1
M  V30 15 O 0.8373 -0.705 2.2009 0
M  V30 16 C 1.5646 1.185 0.8728 0
M  V30 17 C 0.5166 0.169 -1.2809 0 CFG=1
M  V30 18 C 1.8129 0.6425 -0.5549 0
M  V30 19 C 0.9912 -0.891 -2.3051 0
M  V30 20 C 2.7403 -0.6081 -0.6372 0
M  V30 21 C 2.4128 1.8207 -1.3738 0
M  V30 22 C 2.4668 -1.1779 -2.0278 0
M  V30 23 O 2.3095 -1.5984 0.3141 0
M  V30 24 C 4.2322 -0.3563 -0.3325 0
M  V30 25 O 4.643 -0.4393 0.8337 0
M  V30 26 C 5.2078 -0.0668 -1.4653 0
M  V30 27 O 6.4534 0.402 -0.9681 0
M  V30 28 H -5.3018 0.6438 0.2306 0
M  V30 29 H -3.6581 2.3709 3.8377 0
M  V30 30 H -1.6316 1.068 3.6011 0
M  V30 31 H -2.9256 -1.9953 -0.0979 0
M  V30 32 H -1.0955 1.4843 0.5224 0
M  V30 33 H -1.5709 -2.1431 1.6872 0
M  V30 34 H -2.9433 -1.7685 2.729 0
M  V30 35 H -1.3173 -1.3518 3.241 0
M  V30 36 H -1.7524 -1.1593 -2.1104 0
M  V30 37 H -2.148 0.4994 -1.6897 0
M  V30 38 H -4.1037 -1.8515 -2.2161 0
M  V30 39 H -5.2145 -1.5146 -0.8873 0
M  V30 40 H -4.5985 -0.1858 -1.8963 0
M  V30 41 H 0.2814 1.196 2.5534 0
M  V30 42 H -0.3798 -1.4152 -0.0993 0
M  V30 43 H 1.0443 -1.2912 1.4454 0
M  V30 44 H 2.4967 1.1316 1.4484 0
M  V30 45 H 1.3189 2.254 0.8006 0
M  V30 46 H 0.0997 1.0207 -1.8368 0
M  V30 47 H 0.8654 -0.5202 -3.3288 0
M  V30 48 H 0.421 -1.8235 -2.2348 0
M  V30 49 H 1.7131 2.6646 -1.4131 0
M  V30 50 H 2.6275 1.5455 -2.4108 0
M  V30 51 H 3.3363 2.1929 -0.9176 0
M  V30 52 H 2.6638 -2.2546 -2.0794 0
M  V30 53 H 3.0675 -0.7018 -2.8087 0
M  V30 54 H 2.9152 -1.504 1.0879 0
M  V30 55 H 5.3871 -0.9905 -2.0217 0
M  V30 56 H 4.8139 0.6975 -2.1348 0
M  V30 57 H 6.5615 0.0131 -0.0763 0
M  V30 END ATOM
M  V30 BEGIN BOND
M  V30 1 2 1 2
M  V30 2 1 2 3
M  V30 3 1 2 4
M  V30 4 2 3 5
M  V30 5 2 4 6
M  V30 6 1 5 7
M  V30 7 1 5 8
M  V30 8 1 7 9
M  V30 9 1 7 10
M  V30 10 1 8 11
M  V30 11 1 8 12
M  V30 12 1 9 13
M  V30 13 1 9 14
M  V30 14 1 13 15
M  V30 15 1 13 16
M  V30 16 1 14 17
M  V30 17 1 16 18
M  V30 18 1 17 19
M  V30 19 1 18 20
M  V30 20 1 18 21
M  V30 21 1 19 22
M  V30 22 1 20 23
M  V30 23 1 20 24
M  V30 24 2 24 25
M  V30 25 1 24 26
M  V30 26 1 26 27
M  V30 27 1 6 7
M  V30 28 1 11 14
M  V30 29 1 17 18
M  V30 30 1 20 22
M  V30 31 1 3 28
M  V30 32 1 4 29
M  V30 33 1 6 30
M  V30 34 1 8 31
M  V30 35 1 9 32
M  V30 36 1 10 33
M  V30 37 1 10 34
M  V30 38 1 10 35
M  V30 39 1 11 36
M  V30 40 1 11 37
M  V30 41 1 12 38
M  V30 42 1 12 39
M  V30 43 1 12 40
M  V30 44 1 13 41
M  V30 45 1 14 42
M  V30 46 1 15 43
M  V30 47 1 16 44
M  V30 48 1 16 45
M  V30 49 1 17 46
M  V30 50 1 19 47
M  V30 51 1 19 48
M  V30 52 1 21 49
M  V30 53 1 21 50
M  V30 54 1 21 51
M  V30 55 1 22 52
M  V30 56 1 22 53
M  V30 57 1 23 54
M  V30 58 1 26 55
M  V30 59 1 26 56
M  V30 60 1 27 57
M  V30 END BOND
M  V30 BEGIN COLLECTION
M  V30 MDLV30/STEABS ATOMS=(5 8 9 13 14 17)
M  V30 END COLLECTION
M  V30 END CTAB
M  END
>  <NO.>
3564

>  <Name>


>  <SMILES>
C[C@H]1C[C@@H]2[C@H]([C@@H](O)CC3(C)[C@H]2CCC3(O)C(=O)CO)C2(C)C=CC(=O)C=C12

>  <logBB>


>  <Class>
1

>  <MW>
374.21

>  <nHBAcc>
5

>  <nHBDon>
3

>  <SLogP>
1.8

>  <TopoPSA>
94.83

>  <MMFF94 Energy>
133.63

$$$$
C[C@H]1C[C@H]2[C@@H]3CCC4=CC(=O)C=CC4(C)C3(Cl)[C@@H](O)CC2(C)C1(O)C(=O)CO
Actelion Java MolfileCreator 2.0

  0  0  0  0  0  0              0 V3000
M  V30 BEGIN CTAB
M  V30 COUNTS 57 60 0 0 0
M  V30 BEGIN ATOM
M  V30 1 Cl 2.5261 -0.3256 -1.2217 0
M  V30 2 C 1.6249 -0.4912 0.4022 0
M  V30 3 C 2.7338 -0.5319 1.5551 0
M  V30 4 C 0.7618 -1.7968 0.2516 0 CFG=1
M  V30 5 C 0.6977 0.7758 0.5811 0 CFG=2
M  V30 6 C 3.4681 0.826 1.5664 0
M  V30 7 C 3.7172 -1.6866 1.3527 0
M  V30 8 C 2.1651 -0.7409 2.9821 0
M  V30 9 O 0.229 -2.2271 1.5025 0
M  V30 10 C -0.4011 -1.6731 -0.7678 0
M  V30 11 C -0.388 0.8165 -0.5092 0 CFG=1
M  V30 12 C 1.504 2.0887 0.634 0
M  V30 13 C 4.8009 0.9492 1.4315 0
M  V30 14 C 2.5975 2.0513 1.7001 0
M  V30 15 C 5.0437 -1.5531 1.221 0
M  V30 16 C -1.3017 -0.4378 -0.526 0
M  V30 17 C -1.3953 1.9633 -0.511 0
M  V30 18 C 5.6825 -0.2239 1.26 0
M  V30 19 C -2.2548 -0.0423 -1.7148 0
M  V30 20 C -2.085 -0.617 0.8046 0
M  V30 21 C -2.4786 1.5022 -1.5246 0 CFG=1
M  V30 22 O 6.8963 -0.0982 1.1578 0
M  V30 23 O -1.5033 -0.235 -2.9334 0
M  V30 24 C -3.5562 -0.8654 -1.8708 0
M  V30 25 C -3.869 1.9463 -1.0764 0
M  V30 26 O -4.0927 -1.4911 -0.9529 0
M  V30 27 C -4.2082 -0.8719 -3.2521 0
M  V30 28 O -5.5638 -1.2905 -3.1897 0
M  V30 29 H 1.4071 -2.6164 -0.0874 0
M  V30 30 H 0.1954 0.7028 1.5501 0
M  V30 31 H 3.3036 -2.6928 1.3354 0
M  V30 32 H 2.921 -0.5102 3.7453 0
M  V30 33 H 1.8652 -1.7779 3.1668 0
M  V30 34 H 1.3005 -0.1064 3.1951 0
M  V30 35 H -0.2857 -3.0395 1.3455 0
M  V30 36 H 0.0337 -1.6403 -1.7726 0
M  V30 37 H -1.0205 -2.5785 -0.7358 0
M  V30 38 H 0.1362 0.8929 -1.4724 0
M  V30 39 H 0.8341 2.9267 0.8616 0
M  V30 40 H 1.9478 2.3109 -0.3438 0
M  V30 41 H 5.3056 1.9086 1.43 0
M  V30 42 H 2.1414 2.0649 2.6972 0
M  V30 43 H 3.1914 2.9707 1.6266 0
M  V30 44 H 5.7047 -2.4007 1.0881 0
M  V30 45 H -1.8127 2.1283 0.4886 0
M  V30 46 H -0.9395 2.9049 -0.8357 0
M  V30 47 H -1.4639 -0.4954 1.6937 0
M  V30 48 H -2.5179 -1.6209 0.8726 0
M  V30 49 H -2.9042 0.0953 0.9161 0
M  V30 50 H -2.2732 2.0196 -2.4712 0
M  V30 51 H -1.7769 0.4157 -3.6026 0
M  V30 52 H -3.8858 3.0289 -0.9081 0
M  V30 53 H -4.6176 1.7269 -1.8436 0
M  V30 54 H -4.1856 1.4638 -0.1486 0
M  V30 55 H -4.1881 0.1328 -3.6804 0
M  V30 56 H -3.6602 -1.5609 -3.9003 0
M  V30 57 H -5.6188 -1.919 -2.4414 0
M  V30 END ATOM
M  V30 BEGIN BOND
M  V30 1 1 1 2
M  V30 2 1 2 3
M  V30 3 1 2 4
M  V30 4 1 2 5
M  V30 5 1 3 6
M  V30 6 1 3 7
M  V30 7 1 3 8
M  V30 8 1 4 9
M  V30 9 1 4 10
M  V30 10 1 5 11
M  V30 11 1 5 12
M  V30 12 2 6 13
M  V30 13 1 6 14
M  V30 14 2 7 15
M  V30 15 1 10 16
M  V30 16 1 11 17
M  V30 17 1 13 18
M  V30 18 1 16 19
M  V30 19 1 16 20
M  V30 20 1 17 21
M  V30 21 2 18 22
M  V30 22 1 19 23
M  V30 23 1 19 24
M  V30 24 1 21 25
M  V30 25 2 24 26
M  V30 26 1 24 27
M  V30 27 1 27 28
M  V30 28 1 11 16
M  V30 29 1 12 14
M  V30 30 1 15 18
M  V30 31 1 19 21
M  V30 32 1 4 29
M  V30 33 1 5 30
M  V30 34 1 7 31
M  V30 35 1 8 32
M  V30 36 1 8 33
M  V30 37 1 8 34
M  V30 38 1 9 35
M  V30 39 1 10 36
M  V30 40 1 10 37
M  V30 41 1 11 38
M  V30 42 1 12 39
M  V30 43 1 12 40
M  V30 44 1 13 41
M  V30 45 1 14 42
M  V30 46 1 14 43
M  V30 47 1 15 44
M  V30 48 1 17 45
M  V30 49 1 17 46
M  V30 50 1 20 47
M  V30 51 1 20 48
M  V30 52 1 20 49
M  V30 53 1 21 50
M  V30 54 1 23 51
M  V30 55 1 25 52
M  V30 56 1 25 53
M  V30 57 1 25 54
M  V30 58 1 27 55
M  V30 59 1 27 56
M  V30 60 1 28 57
M  V30 END BOND
M  V30 BEGIN COLLECTION
M  V30 MDLV30/STEABS ATOMS=(4 4 5 11 21)
M  V30 END COLLECTION
M  V30 END CTAB
M  END
>  <NO.>
3569

>  <Name>


>  <SMILES>
C[C@H]1C[C@H]2[C@@H]3CCC4=CC(=O)C=CC4(C)C3(Cl)[C@@H](O)CC2(C)C1(O)C(=O)CO

>  <logBB>


>  <Class>
1

>  <MW>
408.17

>  <nHBAcc>
5

>  <nHBDon>
3

>  <SLogP>
2.17

>  <TopoPSA>
94.83

>  <MMFF94 Energy>
179.13

$$$$
C[C@H]1C[C@H]2[C@@H]3CCC4=CC(=O)C=CC4(C)C3(Cl)[C@@H](O)CC2(C)C1(OC(=O)c1ccco1)C(=O)CCl
Actelion Java MolfileCreator 2.0

  0  0  0  0  0  0              0 V3000
M  V30 BEGIN CTAB
M  V30 COUNTS 65 69 0 0 0
M  V30 BEGIN ATOM
M  V30 1 Cl -1.7276 -0.6578 1.6453 0
M  V30 2 C -1.9325 -0.4109 -0.1923 0
M  V30 3 C -3.5004 -0.4456 -0.506 0
M  V30 4 C -1.0916 -1.5659 -0.8432 0 CFG=1
M  V30 5 C -1.3259 0.9965 -0.5707 0 CFG=2
M  V30 6 C -4.1571 0.7626 0.1929 0
M  V30 7 C -4.1394 -1.7591 -0.0498 0
M  V30 8 C -3.8515 -0.3354 -2.0118 0
M  V30 9 O -1.3457 -1.6882 -2.2395 0
M  V30 10 C 0.4402 -1.4254 -0.6389 0
M  V30 11 C 0.1839 1.0361 -0.274 0 CFG=1
M  V30 12 C -2.0706 2.1586 0.1173 0
M  V30 13 C -5.1655 0.651 1.0765 0
M  V30 14 C -3.5762 2.1155 -0.1363 0
M  V30 15 C -5.1452 -1.8597 0.8297 0
M  V30 16 C 0.9995 -0.0353 -1.0397 0
M  V30 17 C 0.9534 2.316 -0.5673 0
M  V30 18 C -5.7344 -0.6594 1.4539 0
M  V30 19 C 2.4646 0.3049 -0.529 0
M  V30 20 C 0.9223 0.1337 -2.5843 0
M  V30 21 C 2.4359 1.888 -0.4111 0 CFG=1
M  V30 22 O -6.6593 -0.7469 2.2516 0
M  V30 23 O 2.5469 -0.2146 0.8298 0
M  V30 24 C 3.5344 -0.3518 -1.4606 0
M  V30 25 C 3.3298 2.7127 -1.3279 0
M  V30 26 C 3.7111 -0.0409 1.5253 0
M  V30 27 O 4.0357 0.2517 -2.4124 0
M  V30 28 C 3.8013 -1.8338 -1.2656 0
M  V30 29 O 4.7233 0.4389 1.0362 0
M  V30 30 C 3.5422 -0.5241 2.8737 0
M  V30 31 Cl 5.5274 -2.1887 -1.4365 0
M  V30 32 O 4.6269 -0.5138 3.7102 0
M  V30 33 C 2.4491 -1.0299 3.5581 0
M  V30 34 C 4.2237 -1.0079 4.9077 0
M  V30 35 C 2.8914 -1.3403 4.8671 0
M  V30 36 H -1.3956 -2.5234 -0.4025 0
M  V30 37 H -1.4587 1.1529 -1.6459 0
M  V30 38 H -3.7603 -2.6774 -0.4929 0
M  V30 39 H -3.2944 0.4542 -2.5234 0
M  V30 40 H -3.6704 -1.2696 -2.5539 0
M  V30 41 H -4.9179 -0.1115 -2.1526 0
M  V30 42 H -0.9245 -2.5072 -2.5567 0
M  V30 43 H 0.6639 -1.6371 0.4122 0
M  V30 44 H 0.9499 -2.202 -1.221 0
M  V30 45 H 0.3015 0.8705 0.8062 0
M  V30 46 H -1.8783 2.1549 1.1972 0
M  V30 47 H -1.6898 3.1166 -0.2565 0
M  V30 48 H -5.6125 1.5065 1.5705 0
M  V30 49 H -3.7811 2.3535 -1.1868 0
M  V30 50 H -4.0549 2.9078 0.4524 0
M  V30 51 H -5.576 -2.8109 1.118 0
M  V30 52 H 0.7062 3.1134 0.1422 0
M  V30 53 H 0.7361 2.6943 -1.5723 0
M  V30 54 H 1.453 1.0211 -2.9393 0
M  V30 55 H 1.3694 -0.7286 -3.0917 0
M  V30 56 H -0.0985 0.2269 -2.9586 0
M  V30 57 H 2.7177 2.1669 0.6132 0
M  V30 58 H 3.2132 3.7801 -1.1077 0
M  V30 59 H 3.0823 2.5745 -2.3839 0
M  V30 60 H 4.3848 2.4661 -1.1732 0
M  V30 61 H 3.2493 -2.3953 -2.0239 0
M  V30 62 H 3.4925 -2.1813 -0.2794 0
M  V30 63 H 1.4503 -1.1522 3.1605 0
M  V30 64 H 4.9865 -1.0568 5.6731 0
M  V30 65 H 2.3113 -1.7517 5.6817 0
M  V30 END ATOM
M  V30 BEGIN BOND
M  V30 1 1 1 2
M  V30 2 1 2 3
M  V30 3 1 2 4
M  V30 4 1 2 5
M  V30 5 1 3 6
M  V30 6 1 3 7
M  V30 7 1 3 8
M  V30 8 1 4 9
M  V30 9 1 4 10
M  V30 10 1 5 11
M  V30 11 1 5 12
M  V30 12 2 6 13
M  V30 13 1 6 14
M  V30 14 2 7 15
M  V30 15 1 10 16
M  V30 16 1 11 17
M  V30 17 1 13 18
M  V30 18 1 16 19
M  V30 19 1 16 20
M  V30 20 1 17 21
M  V30 21 2 18 22
M  V30 22 1 19 23
M  V30 23 1 19 24
M  V30 24 1 21 25
M  V30 25 1 23 26
M  V30 26 2 24 27
M  V30 27 1 24 28
M  V30 28 2 26 29
M  V30 29 1 26 30
M  V30 30 1 28 31
M  V30 31 1 30 32
M  V30 32 2 30 33
M  V30 33 1 32 34
M  V30 34 1 33 35
M  V30 35 1 11 16
M  V30 36 1 12 14
M  V30 37 1 15 18
M  V30 38 1 19 21
M  V30 39 2 34 35
M  V30 40 1 4 36
M  V30 41 1 5 37
M  V30 42 1 7 38
M  V30 43 1 8 39
M  V30 44 1 8 40
M  V30 45 1 8 41
M  V30 46 1 9 42
M  V30 47 1 10 43
M  V30 48 1 10 44
M  V30 49 1 11 45
M  V30 50 1 12 46
M  V30 51 1 12 47
M  V30 52 1 13 48
M  V30 53 1 14 49
M  V30 54 1 14 50
M  V30 55 1 15 51
M  V30 56 1 17 52
M  V30 57 1 17 53
M  V30 58 1 20 54
M  V30 59 1 20 55
M  V30 60 1 20 56
M  V30 61 1 21 57
M  V30 62 1 25 58
M  V30 63 1 25 59
M  V30 64 1 25 60
M  V30 65 1 28 61
M  V30 66 1 28 62
M  V30 67 1 33 63
M  V30 68 1 34 64
M  V30 69 1 35 65
M  V30 END BOND
M  V30 BEGIN COLLECTION
M  V30 MDLV30/STEABS ATOMS=(4 4 5 11 21)
M  V30 END COLLECTION
M  V30 END CTAB
M  END
>  <NO.>
3570

>  <Name>


>  <SMILES>
C[C@H]1C[C@H]2[C@@H]3CCC4=CC(=O)C=CC4(C)C3(Cl)[C@@H](O)CC2(C)C1(OC(=O)c1ccco1)C(=O)CCl

>  <logBB>


>  <Class>
1

>  <MW>
520.14

>  <nHBAcc>
6

>  <nHBDon>
1

>  <SLogP>
4.87

>  <TopoPSA>
93.81

>  <MMFF94 Energy>
177.83

$$$$
C[C@H]1C[C@H]2[C@@H]3[C@@H](Cl)CC4=CC(=O)C=CC4(C)[C@H]3[C@@H](O)CC2(C)C1(O)C(=O)CO
Actelion Java MolfileCreator 2.0

  0  0  0  0  0  0              0 V3000
M  V30 BEGIN CTAB
M  V30 COUNTS 57 60 0 0 0
M  V30 BEGIN ATOM
M  V30 1 Cl -2.1963 -2.3591 -1.9521 0
M  V30 2 C -1.1016 -0.9382 -2.0743 0 CFG=2
M  V30 3 C -0.9316 -0.2169 -0.7066 0 CFG=2
M  V30 4 C -1.675 -0.0426 -3.1758 0
M  V30 5 C -0.224 1.1903 -0.8853 0 CFG=1
M  V30 6 C -0.0722 -1.0316 0.303 0 CFG=1
M  V30 7 C -0.9217 1.2548 -3.2741 0
M  V30 8 C -0.8925 2.0926 -1.9924 0
M  V30 9 C 0.0115 1.9051 0.479 0 CFG=1
M  V30 10 C 0.0407 -0.368 1.6963 0
M  V30 11 C -0.4298 -2.4715 0.6605 0
M  V30 12 C -0.3035 1.6039 -4.4164 0
M  V30 13 C -0.0853 3.3706 -2.2021 0
M  V30 14 C -2.3336 2.5394 -1.6594 0
M  V30 15 O -1.2076 2.3979 1.0101 0
M  V30 16 C 0.7134 1.0083 1.5153 0
M  V30 17 C 0.8725 -1.4336 2.5024 0
M  V30 18 C -1.3417 -0.1827 2.3911 0
M  V30 19 C 0.4691 -2.8034 1.8757 0 CFG=1
M  V30 20 C 0.4741 2.8544 -4.5295 0
M  V30 21 C 0.532 3.7207 -3.3382 0
M  V30 22 O 0.5108 -1.3968 3.8933 0
M  V30 23 C 2.3965 -1.1545 2.5231 0
M  V30 24 C -0.2097 -3.7928 2.8194 0
M  V30 25 O 1.049 3.1558 -5.5671 0
M  V30 26 O 2.874 -0.4107 3.3951 0
M  V30 27 C 3.3136 -1.7696 1.4763 0
M  V30 28 O 4.5331 -1.045 1.3825 0
M  V30 29 H -0.1291 -1.327 -2.3996 0
M  V30 30 H -1.9329 -0.0565 -0.294 0
M  V30 31 H -1.643 -0.5818 -4.1321 0
M  V30 32 H -2.7352 0.1725 -2.992 0
M  V30 33 H 0.7889 0.9609 -1.2589 0
M  V30 34 H 0.9302 -1.0754 -0.1447 0
M  V30 35 H 0.6591 2.7751 0.325 0
M  V30 36 H -0.2072 -3.1645 -0.157 0
M  V30 37 H -1.4917 -2.5695 0.9113 0
M  V30 38 H -0.3289 0.9939 -5.3125 0
M  V30 39 H -0.0372 4.0702 -1.3695 0
M  V30 40 H -2.3595 3.3434 -0.9156 0
M  V30 41 H -2.9487 1.7208 -1.2735 0
M  V30 42 H -2.841 2.9323 -2.5504 0
M  V30 43 H -1.0119 2.851 1.8499 0
M  V30 44 H 0.7645 1.522 2.4835 0
M  V30 45 H 1.7451 0.8787 1.1673 0
M  V30 46 H -1.7945 -1.1372 2.6773 0
M  V30 47 H -2.0806 0.3218 1.7673 0
M  V30 48 H -1.2369 0.41 3.3075 0
M  V30 49 H 1.3518 -3.3168 1.4824 0
M  V30 50 H 1.0825 4.6479 -3.442 0
M  V30 51 H 1.0008 -0.6495 4.2944 0
M  V30 52 H -1.135 -3.3865 3.24 0
M  V30 53 H 0.4562 -4.0594 3.6466 0
M  V30 54 H -0.4645 -4.7155 2.2869 0
M  V30 55 H 3.5459 -2.7983 1.7637 0
M  V30 56 H 2.8511 -1.7528 0.4904 0
M  V30 57 H 4.7542 -0.7605 2.2925 0
M  V30 END ATOM
M  V30 BEGIN BOND
M  V30 1 1 1 2
M  V30 2 1 2 3
M  V30 3 1 2 4
M  V30 4 1 3 5
M  V30 5 1 3 6
M  V30 6 1 4 7
M  V30 7 1 5 8
M  V30 8 1 5 9
M  V30 9 1 6 10
M  V30 10 1 6 11
M  V30 11 2 7 12
M  V30 12 1 8 13
M  V30 13 1 8 14
M  V30 14 1 9 15
M  V30 15 1 9 16
M  V30 16 1 10 17
M  V30 17 1 10 18
M  V30 18 1 11 19
M  V30 19 1 12 20
M  V30 20 2 13 21
M  V30 21 1 17 22
M  V30 22 1 17 23
M  V30 23 1 19 24
M  V30 24 2 20 25
M  V30 25 2 23 26
M  V30 26 1 23 27
M  V30 27 1 27 28
M  V30 28 1 7 8
M  V30 29 1 10 16
M  V30 30 1 17 19
M  V30 31 1 20 21
M  V30 32 1 2 29
M  V30 33 1 3 30
M  V30 34 1 4 31
M  V30 35 1 4 32
M  V30 36 1 5 33
M  V30 37 1 6 34
M  V30 38 1 9 35
M  V30 39 1 11 36
M  V30 40 1 11 37
M  V30 41 1 12 38
M  V30 42 1 13 39
M  V30 43 1 14 40
M  V30 44 1 14 41
M  V30 45 1 14 42
M  V30 46 1 15 43
M  V30 47 1 16 44
M  V30 48 1 16 45
M  V30 49 1 18 46
M  V30 50 1 18 47
M  V30 51 1 18 48
M  V30 52 1 19 49
M  V30 53 1 21 50
M  V30 54 1 22 51
M  V30 55 1 24 52
M  V30 56 1 24 53
M  V30 57 1 24 54
M  V30 58 1 27 55
M  V30 59 1 27 56
M  V30 60 1 28 57
M  V30 END BOND
M  V30 BEGIN COLLECTION
M  V30 MDLV30/STEABS ATOMS=(6 2 3 5 6 9 19)
M  V30 END COLLECTION
M  V30 END CTAB
M  END
>  <NO.>
3591

>  <Name>


>  <SMILES>
C[C@H]1C[C@H]2[C@@H]3[C@@H](Cl)CC4=CC(=O)C=CC4(C)[C@H]3[C@@H](O)CC2(C)C1(O)C(=O)CO

>  <logBB>


>  <Class>
1

>  <MW>
408.17

>  <nHBAcc>
5

>  <nHBDon>
3

>  <SLogP>
2.02

>  <TopoPSA>
94.83

>  <MMFF94 Energy>
151.09

$$$$
C[N]C(=C\c1ccc(O)cc1)/C(=C/c1ccc(O)cc1)[N]C
Actelion Java MolfileCreator 2.0

  0  0  0  0  0  0              0 V3000
M  V30 BEGIN CTAB
M  V30 COUNTS 40 41 0 0 0
M  V30 BEGIN ATOM
M  V30 1 O -7.1115 -0.7882 0.0 0
M  V30 2 C -5.748 -0.7317 0.0841 0
M  V30 3 C -4.9925 -0.1615 -0.9386 0
M  V30 4 C -5.1373 -1.2502 1.2205 0
M  V30 5 C -3.6029 -0.1117 -0.8158 0
M  V30 6 C -3.7467 -1.1909 1.3404 0
M  V30 7 C -2.9731 -0.616 0.3262 0
M  V30 8 C -1.5128 -0.6049 0.4355 0
M  V30 9 C -0.6547 0.423 0.6675 0
M  V30 10 N -0.8054 1.7685 0.9032 0 RAD=2
M  V30 11 C 0.8284 0.0073 0.6228 0
M  V30 12 C -2.1444 2.3036 1.0521 0
M  V30 13 N 1.1062 -1.005 1.5095 0 RAD=2
M  V30 14 C 1.5558 0.6934 -0.2974 0
M  V30 15 C 2.4773 -1.4561 1.6437 0
M  V30 16 C 2.9588 0.5546 -0.6934 0
M  V30 17 C 3.3695 -0.5231 -1.484 0
M  V30 18 C 3.8881 1.537 -0.3342 0
M  V30 19 C 4.6983 -0.6322 -1.8972 0
M  V30 20 C 5.2179 1.4372 -0.7505 0
M  V30 21 C 5.612 0.3517 -1.5247 0
M  V30 22 O 6.9228 0.2705 -1.9047 0
M  V30 23 H -7.3608 -0.2588 -0.7736 0
M  V30 24 H -5.4507 0.2548 -1.8269 0
M  V30 25 H -5.7295 -1.684 2.0175 0
M  V30 26 H -2.9882 0.3461 -1.5875 0
M  V30 27 H -3.2474 -1.5709 2.2285 0
M  V30 28 H -1.0794 -1.5932 0.2958 0
M  V30 29 H -2.7026 2.3328 0.1113 0
M  V30 30 H -2.7465 1.7858 1.8071 0
M  V30 31 H -2.0944 3.347 1.3885 0
M  V30 32 H 1.0433 1.4749 -0.855 0
M  V30 33 H 2.8303 -2.0218 0.776 0
M  V30 34 H 3.189 -0.6509 1.8571 0
M  V30 35 H 2.5614 -2.1482 2.4911 0
M  V30 36 H 2.6381 -1.2861 -1.7408 0
M  V30 37 H 3.5601 2.3655 0.289 0
M  V30 38 H 4.9882 -1.4888 -2.4926 0
M  V30 39 H 5.9339 2.195 -0.4553 0
M  V30 40 H 7.0392 -0.6064 -2.3025 0
M  V30 END ATOM
M  V30 BEGIN BOND
M  V30 1 1 1 2
M  V30 2 2 2 3
M  V30 3 1 2 4
M  V30 4 1 3 5
M  V30 5 2 4 6
M  V30 6 2 5 7
M  V30 7 1 7 8
M  V30 8 2 8 9
M  V30 9 1 9 10
M  V30 10 1 9 11
M  V30 11 1 10 12
M  V30 12 1 11 13
M  V30 13 2 11 14
M  V30 14 1 13 15
M  V30 15 1 14 16
M  V30 16 2 16 17
M  V30 17 1 16 18
M  V30 18 1 17 19
M  V30 19 2 18 20
M  V30 20 2 19 21
M  V30 21 1 21 22
M  V30 22 1 6 7
M  V30 23 1 20 21
M  V30 24 1 1 23
M  V30 25 1 3 24
M  V30 26 1 4 25
M  V30 27 1 5 26
M  V30 28 1 6 27
M  V30 29 1 8 28
M  V30 30 1 12 29
M  V30 31 1 12 30
M  V30 32 1 12 31
M  V30 33 1 14 32
M  V30 34 1 15 33
M  V30 35 1 15 34
M  V30 36 1 15 35
M  V30 37 1 17 36
M  V30 38 1 18 37
M  V30 39 1 19 38
M  V30 40 1 20 39
M  V30 41 1 22 40
M  V30 END BOND
M  V30 END CTAB
M  END
>  <NO.>
3594

>  <Name>


>  <SMILES>
C[N]C(=C\c1ccc(O)cc1)/C(=C/c1ccc(O)cc1)[N]C

>  <logBB>


>  <Class>
-1

>  <MW>
294.14

>  <nHBAcc>
2

>  <nHBDon>
2

>  <SLogP>
2.95

>  <TopoPSA>
68.66

>  <MMFF94 Energy>
74.28

$$$$
Cc1cc(=O)n(-c2ccccc2)[nH]1
Actelion Java MolfileCreator 2.0

  0  0  0  0  0  0              0 V3000
M  V30 BEGIN CTAB
M  V30 COUNTS 23 24 0 0 0
M  V30 BEGIN ATOM
M  V30 1 O 1.4992 0.3154 2.368 0
M  V30 2 C 0.5555 -0.2214 1.8136 0
M  V30 3 N 0.0582 -0.0904 0.5165 0
M  V30 4 C -0.3217 -1.2173 2.4884 0
M  V30 5 N -1.0423 -0.9183 0.3837 0
M  V30 6 C 0.5025 0.7258 -0.5367 0
M  V30 7 C -1.2217 -1.5921 1.5671 0
M  V30 8 C 1.8199 1.1981 -0.5699 0
M  V30 9 C -0.3646 1.084 -1.5795 0
M  V30 10 C -2.2771 -2.628 1.7217 0
M  V30 11 C 2.2637 2.002 -1.624 0
M  V30 12 C 0.0785 1.8886 -2.6332 0
M  V30 13 C 1.3937 2.3454 -2.6558 0
M  V30 14 H -0.1804 -1.5536 3.4978 0
M  V30 15 H -1.2575 -1.3593 -0.5045 0
M  V30 16 H 2.5237 0.9439 0.219 0
M  V30 17 H -1.4025 0.7636 -1.5727 0
M  V30 18 H -3.2682 -2.1885 1.5706 0
M  V30 19 H -2.1383 -3.4288 0.9884 0
M  V30 20 H -2.256 -3.0773 2.7199 0
M  V30 21 H 3.29 2.3602 -1.634 0
M  V30 22 H -0.6063 2.1648 -3.4307 0
M  V30 23 H 1.7393 2.9738 -3.4725 0
M  V30 END ATOM
M  V30 BEGIN BOND
M  V30 1 2 1 2
M  V30 2 1 2 3
M  V30 3 1 2 4
M  V30 4 1 3 5
M  V30 5 1 3 6
M  V30 6 2 4 7
M  V30 7 2 6 8
M  V30 8 1 6 9
M  V30 9 1 7 10
M  V30 10 1 8 11
M  V30 11 2 9 12
M  V30 12 2 11 13
M  V30 13 1 5 7
M  V30 14 1 12 13
M  V30 15 1 4 14
M  V30 16 1 5 15
M  V30 17 1 8 16
M  V30 18 1 9 17
M  V30 19 1 10 18
M  V30 20 1 10 19
M  V30 21 1 10 20
M  V30 22 1 11 21
M  V30 23 1 12 22
M  V30 24 1 13 23
M  V30 END BOND
M  V30 END CTAB
M  END
>  <NO.>
3599

>  <Name>
19735-89-8

>  <SMILES>
Cc1cc(=O)n(-c2ccccc2)[nH]1

>  <logBB>


>  <Class>
1

>  <MW>
174.08

>  <nHBAcc>
1

>  <nHBDon>
1

>  <SLogP>
1.47

>  <TopoPSA>
37.79

>  <MMFF94 Energy>
59.283

$$$$
Cc1cccc(C)c1OC[C@H](C)N
Actelion Java MolfileCreator 2.0

  0  0  0  0  0  0              0 V3000
M  V30 BEGIN CTAB
M  V30 COUNTS 30 30 0 0 0
M  V30 BEGIN ATOM
M  V30 1 O -0.8528 -0.155 -0.155 0
M  V30 2 C 0.2111 -1.0207 -0.0894 0
M  V30 3 C -0.5308 1.0827 0.4972 0
M  V30 4 C 1.1403 -1.0438 -1.1431 0
M  V30 5 C 0.3088 -1.9168 0.9876 0
M  V30 6 C -1.6839 2.0838 0.2785 0 CFG=1
M  V30 7 C 2.2327 -1.9164 -1.0575 0
M  V30 8 C 1.0052 -0.1353 -2.3312 0
M  V30 9 C 1.4128 -2.7774 1.0473 0
M  V30 10 C -0.7117 -1.9475 2.0886 0
M  V30 11 N -1.4789 3.3327 1.0252 0
M  V30 12 C -1.8572 2.4182 -1.2033 0
M  V30 13 C 2.3707 -2.7736 0.0337 0
M  V30 14 H -0.4053 0.9068 1.5729 0
M  V30 15 H 0.4048 1.5006 0.1037 0
M  V30 16 H -2.6173 1.6251 0.6263 0
M  V30 17 H 2.9809 -1.9395 -1.8465 0
M  V30 18 H 1.5906 -0.5053 -3.1798 0
M  V30 19 H 1.3596 0.8691 -2.0817 0
M  V30 20 H -0.0363 -0.0794 -2.6634 0
M  V30 21 H 1.5287 -3.4645 1.8826 0
M  V30 22 H -0.7414 -2.9322 2.5673 0
M  V30 23 H -1.7173 -1.7528 1.702 0
M  V30 24 H -0.4678 -1.1997 2.8492 0
M  V30 25 H -0.6185 3.7847 0.7174 0
M  V30 26 H -1.3565 3.1254 2.0158 0
M  V30 27 H -0.9467 2.8596 -1.624 0
M  V30 28 H -2.0957 1.5207 -1.7833 0
M  V30 29 H -2.6775 3.1297 -1.351 0
M  V30 30 H 3.2204 -3.4493 0.0883 0
M  V30 END ATOM
M  V30 BEGIN BOND
M  V30 1 1 1 2
M  V30 2 1 1 3
M  V30 3 2 2 4
M  V30 4 1 2 5
M  V30 5 1 3 6
M  V30 6 1 4 7
M  V30 7 1 4 8
M  V30 8 2 5 9
M  V30 9 1 5 10
M  V30 10 1 6 11
M  V30 11 1 6 12
M  V30 12 2 7 13
M  V30 13 1 9 13
M  V30 14 1 3 14
M  V30 15 1 3 15
M  V30 16 1 6 16
M  V30 17 1 7 17
M  V30 18 1 8 18
M  V30 19 1 8 19
M  V30 20 1 8 20
M  V30 21 1 9 21
M  V30 22 1 10 22
M  V30 23 1 10 23
M  V30 24 1 10 24
M  V30 25 1 11 25
M  V30 26 1 11 26
M  V30 27 1 12 27
M  V30 28 1 12 28
M  V30 29 1 12 29
M  V30 30 1 13 30
M  V30 END BOND
M  V30 BEGIN COLLECTION
M  V30 MDLV30/STEABS ATOMS=(1 6)
M  V30 END COLLECTION
M  V30 END CTAB
M  END
>  <NO.>
3604

>  <Name>
94991-72-7

>  <SMILES>
Cc1cccc(C)c1OC[C@H](C)N

>  <logBB>


>  <Class>
1

>  <MW>
179.13

>  <nHBAcc>
2

>  <nHBDon>
1

>  <SLogP>
2.03

>  <TopoPSA>
35.25

>  <MMFF94 Energy>
46.391

$$$$
Cc1cn[o+]c(C(N)CC(C)C(C)(C)N(C(C)(C)C)C(C)(N)N)c1O
Actelion Java MolfileCreator 2.0

  0  0  0  0  0  0              0 V3000
M  V30 BEGIN CTAB
M  V30 COUNTS 61 61 0 0 0
M  V30 BEGIN ATOM
M  V30 1 O -1.6386 1.0141 -3.2794 0 CHG=1
M  V30 2 N -2.7351 0.5521 -4.094 0
M  V30 3 C -0.4097 0.2795 -3.3227 0
M  V30 4 C -2.5692 -0.563 -4.8208 0
M  V30 5 C -0.3355 -0.898 -4.0947 0
M  V30 6 C 0.7462 0.7879 -2.4587 0
M  V30 7 C -1.416 -1.3315 -4.859 0
M  V30 8 O 0.837 -1.6152 -4.064 0
M  V30 9 N 0.8559 2.263 -2.4894 0
M  V30 10 C 0.5424 0.2545 -1.0244 0
M  V30 11 C -1.3785 -2.5719 -5.7037 0
M  V30 12 C 1.6358 0.6098 0.0269 0
M  V30 13 C 1.2796 0.0174 1.486 0
M  V30 14 C 3.0323 0.2212 -0.505 0
M  V30 15 N -0.1795 0.3387 1.8581 0
M  V30 16 C 2.2608 0.5811 2.5579 0
M  V30 17 C 1.6927 -1.4895 1.4082 0
M  V30 18 C -0.5245 1.7478 2.1355 0
M  V30 19 C -1.0408 -0.7611 2.5044 0
M  V30 20 N -1.8979 1.9705 1.8009 0
M  V30 21 N -0.4818 2.031 3.5285 0
M  V30 22 C 0.1787 2.9377 1.4429 0
M  V30 23 C -2.5606 -0.4482 2.7479 0
M  V30 24 C -0.5239 -1.1869 3.9039 0
M  V30 25 C -1.1484 -2.0163 1.5836 0
M  V30 26 H -3.4492 -0.8377 -5.3993 0
M  V30 27 H 1.679 0.3989 -2.8787 0
M  V30 28 H 0.826 -2.3842 -4.6641 0
M  V30 29 H 1.6713 2.5701 -1.956 0
M  V30 30 H 0.049 2.6886 -2.0271 0
M  V30 31 H -0.4322 0.6113 -0.6691 0
M  V30 32 H 0.4554 -0.8372 -1.0841 0
M  V30 33 H -1.1798 -3.4493 -5.0797 0
M  V30 34 H -0.6016 -2.4847 -6.4699 0
M  V30 35 H -2.3314 -2.7409 -6.2165 0
M  V30 36 H 1.6976 1.6921 0.1029 0
M  V30 37 H 3.3148 0.8558 -1.3517 0
M  V30 38 H 3.8111 0.3611 0.2489 0
M  V30 39 H 3.0624 -0.8154 -0.8551 0
M  V30 40 H 3.2937 0.2648 2.3738 0
M  V30 41 H 2.011 0.2138 3.5584 0
M  V30 42 H 2.2932 1.6674 2.6057 0
M  V30 43 H 1.522 -2.0392 2.3326 0
M  V30 44 H 1.2191 -2.0164 0.5771 0
M  V30 45 H 2.7721 -1.6033 1.2474 0
M  V30 46 H -2.1619 2.8816 2.1686 0
M  V30 47 H -2.0014 2.006 0.7956 0
M  V30 48 H -1.2858 1.5892 3.9547 0
M  V30 49 H 0.3302 1.5762 3.9268 0
M  V30 50 H 0.0408 2.9178 0.3566 0
M  V30 51 H 1.2412 3.0305 1.6677 0
M  V30 52 H -0.2498 3.8995 1.7663 0
M  V30 53 H -3.0749 -1.3212 3.1747 0
M  V30 54 H -2.7406 0.3461 3.4757 0
M  V30 55 H -3.0822 -0.2207 1.811 0
M  V30 56 H 0.5344 -1.4378 3.9329 0
M  V30 57 H -1.0592 -2.0773 4.2577 0
M  V30 58 H -0.6838 -0.4074 4.6549 0
M  V30 59 H -2.0835 -2.57 1.7398 0
M  V30 60 H -0.3749 -2.7619 1.7715 0
M  V30 61 H -1.1467 -1.7345 0.5255 0
M  V30 END ATOM
M  V30 BEGIN BOND
M  V30 1 2 1 2
M  V30 2 1 1 3
M  V30 3 1 2 4
M  V30 4 2 3 5
M  V30 5 1 3 6
M  V30 6 2 4 7
M  V30 7 1 5 8
M  V30 8 1 6 9
M  V30 9 1 6 10
M  V30 10 1 7 11
M  V30 11 1 10 12
M  V30 12 1 12 13
M  V30 13 1 12 14
M  V30 14 1 13 15
M  V30 15 1 13 16
M  V30 16 1 13 17
M  V30 17 1 15 18
M  V30 18 1 15 19
M  V30 19 1 18 20
M  V30 20 1 18 21
M  V30 21 1 18 22
M  V30 22 1 19 23
M  V30 23 1 19 24
M  V30 24 1 19 25
M  V30 25 1 5 7
M  V30 26 1 4 26
M  V30 27 1 6 27
M  V30 28 1 8 28
M  V30 29 1 9 29
M  V30 30 1 9 30
M  V30 31 1 10 31
M  V30 32 1 10 32
M  V30 33 1 11 33
M  V30 34 1 11 34
M  V30 35 1 11 35
M  V30 36 1 12 36
M  V30 37 1 14 37
M  V30 38 1 14 38
M  V30 39 1 14 39
M  V30 40 1 16 40
M  V30 41 1 16 41
M  V30 42 1 16 42
M  V30 43 1 17 43
M  V30 44 1 17 44
M  V30 45 1 17 45
M  V30 46 1 20 46
M  V30 47 1 20 47
M  V30 48 1 21 48
M  V30 49 1 21 49
M  V30 50 1 22 50
M  V30 51 1 22 51
M  V30 52 1 22 52
M  V30 53 1 23 53
M  V30 54 1 23 54
M  V30 55 1 23 55
M  V30 56 1 24 56
M  V30 57 1 24 57
M  V30 58 1 24 58
M  V30 59 1 25 59
M  V30 60 1 25 60
M  V30 61 1 25 61
M  V30 END BOND
M  V30 END CTAB
M  END
>  <NO.>
3616

>  <Name>


>  <SMILES>
Cc1cn[o+]c(C(N)CC(C)C(C)(C)N(C(C)(C)C)C(C)(N)N)c1O

>  <logBB>


>  <Class>
1

>  <MW>
354.29

>  <nHBAcc>
6

>  <nHBDon>
4

>  <SLogP>
2.47

>  <TopoPSA>
125.72

>  <MMFF94 Energy>
14.32

$$$$
Cc1oc(C(C)(C)N(C(C)(C)N)C(C)(C)N)c(C)c1C
Actelion Java MolfileCreator 2.0

  0  0  0  0  0  0              0 V3000
M  V30 BEGIN CTAB
M  V30 COUNTS 51 51 0 0 0
M  V30 BEGIN ATOM
M  V30 1 O 0.6211 -2.4862 0.4658 0
M  V30 2 C 0.4586 -1.1527 0.7162 0
M  V30 3 C 1.8936 -2.8213 0.7916 0
M  V30 4 C 1.6408 -0.6324 1.2368 0
M  V30 5 C -0.9446 -0.5674 0.4544 0
M  V30 6 C 2.5753 -1.7215 1.2747 0
M  V30 7 C 2.2673 -4.2345 0.5756 0
M  V30 8 C 1.8858 0.7664 1.6725 0
M  V30 9 N -0.838 0.7503 -0.3245 0
M  V30 10 C -1.5207 -0.5249 1.9194 0
M  V30 11 C -1.8611 -1.6006 -0.2705 0
M  V30 12 C 3.9832 -1.6781 1.7443 0
M  V30 13 C -0.3183 0.6544 -1.7284 0
M  V30 14 C -1.8265 1.8099 0.0128 0
M  V30 15 N -1.4424 0.4488 -2.6388 0
M  V30 16 C 0.4759 1.9189 -2.1722 0
M  V30 17 C 0.697 -0.4785 -2.076 0
M  V30 18 N -1.5584 2.1862 1.4006 0
M  V30 19 C -1.7178 3.1842 -0.7035 0
M  V30 20 C -3.316 1.4153 -0.1282 0
M  V30 21 H 1.4381 -4.8064 0.1471 0
M  V30 22 H 3.1168 -4.3039 -0.1106 0
M  V30 23 H 2.549 -4.7035 1.5233 0
M  V30 24 H 1.6917 1.4686 0.8576 0
M  V30 25 H 1.2445 1.026 2.5198 0
M  V30 26 H 2.9231 0.9133 1.9886 0
M  V30 27 H -2.5652 -0.2188 1.9803 0
M  V30 28 H -0.9293 0.1095 2.5878 0
M  V30 29 H -1.4859 -1.5263 2.3735 0
M  V30 30 H -2.8736 -1.2184 -0.4209 0
M  V30 31 H -1.4954 -1.9203 -1.2463 0
M  V30 32 H -1.9644 -2.5206 0.3199 0
M  V30 33 H 4.4637 -2.6589 1.674 0
M  V30 34 H 4.5647 -0.9745 1.14 0
M  V30 35 H 4.027 -1.3566 2.7899 0
M  V30 36 H -1.0947 0.2531 -3.5753 0
M  V30 37 H -1.9806 1.3029 -2.7242 0
M  V30 38 H 1.1509 1.7101 -3.0129 0
M  V30 39 H 1.1054 2.293 -1.3572 0
M  V30 40 H -0.1487 2.7334 -2.5412 0
M  V30 41 H 0.9678 -0.4525 -3.1419 0
M  V30 42 H 0.3286 -1.4915 -1.9203 0
M  V30 43 H 1.6402 -0.3505 -1.5352 0
M  V30 44 H -2.1363 2.9725 1.6837 0
M  V30 45 H -0.5882 2.4826 1.4584 0
M  V30 46 H -2.4023 3.922 -0.2592 0
M  V30 47 H -2.0137 3.1331 -1.7545 0
M  V30 48 H -0.719 3.6252 -0.6132 0
M  V30 49 H -3.9727 2.2514 0.1475 0
M  V30 50 H -3.6267 0.5861 0.5051 0
M  V30 51 H -3.5685 1.1511 -1.1595 0
M  V30 END ATOM
M  V30 BEGIN BOND
M  V30 1 1 1 2
M  V30 2 1 1 3
M  V30 3 2 2 4
M  V30 4 1 2 5
M  V30 5 2 3 6
M  V30 6 1 3 7
M  V30 7 1 4 8
M  V30 8 1 5 9
M  V30 9 1 5 10
M  V30 10 1 5 11
M  V30 11 1 6 12
M  V30 12 1 9 13
M  V30 13 1 9 14
M  V30 14 1 13 15
M  V30 15 1 13 16
M  V30 16 1 13 17
M  V30 17 1 14 18
M  V30 18 1 14 19
M  V30 19 1 14 20
M  V30 20 1 4 6
M  V30 21 1 7 21
M  V30 22 1 7 22
M  V30 23 1 7 23
M  V30 24 1 8 24
M  V30 25 1 8 25
M  V30 26 1 8 26
M  V30 27 1 10 27
M  V30 28 1 10 28
M  V30 29 1 10 29
M  V30 30 1 11 30
M  V30 31 1 11 31
M  V30 32 1 11 32
M  V30 33 1 12 33
M  V30 34 1 12 34
M  V30 35 1 12 35
M  V30 36 1 15 36
M  V30 37 1 15 37
M  V30 38 1 16 38
M  V30 39 1 16 39
M  V30 40 1 16 40
M  V30 41 1 17 41
M  V30 42 1 17 42
M  V30 43 1 17 43
M  V30 44 1 18 44
M  V30 45 1 18 45
M  V30 46 1 19 46
M  V30 47 1 19 47
M  V30 48 1 19 48
M  V30 49 1 20 49
M  V30 50 1 20 50
M  V30 51 1 20 51
M  V30 END BOND
M  V30 END CTAB
M  END
>  <NO.>
3633

>  <Name>
probenecid

>  <SMILES>
Cc1oc(C(C)(C)N(C(C)(C)N)C(C)(C)N)c(C)c1C

>  <logBB>


>  <Class>
1

>  <MW>
281.25

>  <nHBAcc>
4

>  <nHBDon>
2

>  <SLogP>
3.13

>  <TopoPSA>
68.42

>  <MMFF94 Energy>
-44.764

$$$$
Cc1onc(-c2ccccc2Cl)c1C(=O)NC1C(=O)N2[C@H]1SC(C)(C)[C@@H]2C(=O)O
Actelion Java MolfileCreator 2.0

  0  0  0  0  0  0              0 V3000
M  V30 BEGIN CTAB
M  V30 COUNTS 47 50 0 0 0
M  V30 BEGIN ATOM
M  V30 1 Cl 2.312 -2.2294 -0.5776 0
M  V30 2 C 1.4887 -3.3589 -1.6011 0
M  V30 3 C 1.0546 -3.0309 -2.8955 0
M  V30 4 C 1.2895 -4.6501 -1.0983 0
M  V30 5 C 1.2226 -1.7009 -3.4708 0
M  V30 6 C 0.4377 -4.023 -3.6765 0
M  V30 7 C 0.6648 -5.622 -1.8806 0
M  V30 8 N 1.9573 -1.5283 -4.5805 0
M  V30 9 C 0.6917 -0.455 -3.0168 0
M  V30 10 C 0.242 -5.3097 -3.1702 0
M  V30 11 O 1.9264 -0.1802 -4.8575 0
M  V30 12 C 1.1638 0.4613 -3.9353 0
M  V30 13 C -0.179 -0.225 -1.8866 0
M  V30 14 C 0.9985 1.913 -4.1474 0
M  V30 15 O -1.0179 -1.0413 -1.5217 0
M  V30 16 N 0.0262 0.9559 -1.2113 0
M  V30 17 C -0.7865 1.3174 -0.0157 0
M  V30 18 C -0.0958 2.326 0.9383 0
M  V30 19 C -0.7046 0.3588 1.204 0 CFG=1
M  V30 20 O 0.1063 3.5173 0.9415 0
M  V30 21 N 0.1404 1.3573 1.8677 0
M  V30 22 S -2.2309 0.3013 2.2495 0
M  V30 23 C -0.0441 1.5062 3.3023 0 CFG=2
M  V30 24 C -1.5612 1.4578 3.5667 0
M  V30 25 C 0.7301 2.634 3.982 0
M  V30 26 C -2.2875 2.8005 3.4226 0
M  V30 27 C -1.8804 0.8375 4.9322 0
M  V30 28 O 0.5044 3.0862 5.0947 0
M  V30 29 O 1.8242 3.0366 3.3056 0
M  V30 30 H 1.6242 -4.9075 -0.0963 0
M  V30 31 H 0.1027 -3.7938 -4.6869 0
M  V30 32 H 0.5124 -6.6234 -1.4854 0
M  V30 33 H -0.2408 -6.0663 -3.7842 0
M  V30 34 H 1.1711 2.1812 -5.1946 0
M  V30 35 H -0.0143 2.2338 -3.8853 0
M  V30 36 H 1.7101 2.4711 -3.5316 0
M  V30 37 H 0.7979 1.5528 -1.4836 0
M  V30 38 H -1.7943 1.6293 -0.3117 0
M  V30 39 H -0.2 -0.6005 1.0644 0
M  V30 40 H 0.4152 0.5955 3.7162 0
M  V30 41 H -1.9482 3.5175 4.1777 0
M  V30 42 H -2.136 3.2628 2.4433 0
M  V30 43 H -3.3692 2.6845 3.5642 0
M  V30 44 H -1.5145 1.4718 5.7468 0
M  V30 45 H -1.4147 -0.1475 5.0523 0
M  V30 46 H -2.9604 0.7171 5.0791 0
M  V30 47 H 2.2086 3.7566 3.8465 0
M  V30 END ATOM
M  V30 BEGIN BOND
M  V30 1 1 1 2
M  V30 2 2 2 3
M  V30 3 1 2 4
M  V30 4 1 3 5
M  V30 5 1 3 6
M  V30 6 2 4 7
M  V30 7 2 5 8
M  V30 8 1 5 9
M  V30 9 2 6 10
M  V30 10 1 8 11
M  V30 11 2 9 12
M  V30 12 1 9 13
M  V30 13 1 12 14
M  V30 14 2 13 15
M  V30 15 1 13 16
M  V30 16 1 16 17
M  V30 17 1 17 18
M  V30 18 1 17 19
M  V30 19 2 18 20
M  V30 20 1 18 21
M  V30 21 1 19 22
M  V30 22 1 21 23
M  V30 23 1 22 24
M  V30 24 1 23 25
M  V30 25 1 24 26
M  V30 26 1 24 27
M  V30 27 2 25 28
M  V30 28 1 25 29
M  V30 29 1 7 10
M  V30 30 1 11 12
M  V30 31 1 19 21
M  V30 32 1 23 24
M  V30 33 1 4 30
M  V30 34 1 6 31
M  V30 35 1 7 32
M  V30 36 1 10 33
M  V30 37 1 14 34
M  V30 38 1 14 35
M  V30 39 1 14 36
M  V30 40 1 16 37
M  V30 41 1 17 38
M  V30 42 1 19 39
M  V30 43 1 23 40
M  V30 44 1 26 41
M  V30 45 1 26 42
M  V30 46 1 26 43
M  V30 47 1 27 44
M  V30 48 1 27 45
M  V30 49 1 27 46
M  V30 50 1 29 47
M  V30 END BOND
M  V30 BEGIN COLLECTION
M  V30 MDLV30/STEABS ATOMS=(2 19 23)
M  V30 END COLLECTION
M  V30 END CTAB
M  END
>  <NO.>
3637

>  <Name>


>  <SMILES>
Cc1onc(-c2ccccc2Cl)c1C(=O)NC1C(=O)N2[C@H]1SC(C)(C)[C@@H]2C(=O)O

>  <logBB>


>  <Class>
-1

>  <MW>
435.07

>  <nHBAcc>
6

>  <nHBDon>
2

>  <SLogP>
2.55

>  <TopoPSA>
112.74

>  <MMFF94 Energy>
31.677

$$$$
N#CC(=C/c1ccc(O)cc1)/C(C#N)=C\c1ccc(O)cc1
Actelion Java MolfileCreator 2.0

  0  0  0  0  0  0              0 V3000
M  V30 BEGIN CTAB
M  V30 COUNTS 34 35 0 0 0
M  V30 BEGIN ATOM
M  V30 1 O 3.6662 -2.7088 -1.1147 0
M  V30 2 C 2.6197 -1.8587 -1.3128 0
M  V30 3 C 2.6865 -0.5245 -0.9276 0
M  V30 4 C 1.4782 -2.3686 -1.9195 0
M  V30 5 C 1.5874 0.3088 -1.1498 0
M  V30 6 C 0.381 -1.5349 -2.1448 0
M  V30 7 C 0.4235 -0.1933 -1.747 0
M  V30 8 C -0.7081 0.7137 -1.9718 0
M  V30 9 C -1.955 0.5803 -1.4733 0
M  V30 10 C -2.9366 1.5668 -1.8087 0
M  V30 11 C -2.3973 -0.4965 -0.592 0
M  V30 12 N -3.7284 2.3739 -2.0679 0
M  V30 13 C -3.2733 -1.469 -1.1715 0
M  V30 14 C -2.0343 -0.6421 0.6995 0
M  V30 15 N -3.971 -2.2649 -1.6459 0
M  V30 16 C -1.1556 0.2499 1.4651 0
M  V30 17 C 0.0209 -0.2697 2.0209 0
M  V30 18 C -1.4807 1.5943 1.6818 0
M  V30 19 C 0.8768 0.549 2.7618 0
M  V30 20 C -0.6235 2.4133 2.4193 0
M  V30 21 C 0.5468 1.8862 2.9515 0
M  V30 22 O 1.3518 2.7224 3.6655 0
M  V30 23 H 4.4119 -2.2069 -0.7471 0
M  V30 24 H 3.5743 -0.1168 -0.4553 0
M  V30 25 H 1.4449 -3.4107 -2.2253 0
M  V30 26 H 1.6411 1.3501 -0.8374 0
M  V30 27 H -0.4944 -1.9456 -2.6419 0
M  V30 28 H -0.4644 1.5726 -2.598 0
M  V30 29 H -2.3928 -1.5 1.2694 0
M  V30 30 H 0.2887 -1.3133 1.867 0
M  V30 31 H -2.4034 2.0186 1.2932 0
M  V30 32 H 1.7873 0.1278 3.1755 0
M  V30 33 H -0.8737 3.4577 2.5856 0
M  V30 34 H 2.0915 2.2094 4.0297 0
M  V30 END ATOM
M  V30 BEGIN BOND
M  V30 1 1 1 2
M  V30 2 2 2 3
M  V30 3 1 2 4
M  V30 4 1 3 5
M  V30 5 2 4 6
M  V30 6 2 5 7
M  V30 7 1 7 8
M  V30 8 2 8 9
M  V30 9 1 9 10
M  V30 10 1 9 11
M  V30 11 3 10 12
M  V30 12 1 11 13
M  V30 13 2 11 14
M  V30 14 3 13 15
M  V30 15 1 14 16
M  V30 16 2 16 17
M  V30 17 1 16 18
M  V30 18 1 17 19
M  V30 19 2 18 20
M  V30 20 2 19 21
M  V30 21 1 21 22
M  V30 22 1 6 7
M  V30 23 1 20 21
M  V30 24 1 1 23
M  V30 25 1 3 24
M  V30 26 1 4 25
M  V30 27 1 5 26
M  V30 28 1 6 27
M  V30 29 1 8 28
M  V30 30 1 14 29
M  V30 31 1 17 30
M  V30 32 1 18 31
M  V30 33 1 19 32
M  V30 34 1 20 33
M  V30 35 1 22 34
M  V30 END BOND
M  V30 END CTAB
M  END
>  <NO.>
3661

>  <Name>
(2e,3e)-2,3-bis[(4-hydroxyphenyl)methylidene]butanedinitrile

>  <SMILES>
N#CC(=C/c1ccc(O)cc1)/C(C#N)=C\c1ccc(O)cc1

>  <logBB>


>  <Class>
-1

>  <MW>
288.09

>  <nHBAcc>
4

>  <nHBDon>
2

>  <SLogP>
3.61

>  <TopoPSA>
88.04

>  <MMFF94 Energy>
34.971

$$$$
N#CCN[C@H]1CCc2ccccc21
Actelion Java MolfileCreator 2.0

  0  0  0  0  0  0              0 V3000
M  V30 BEGIN CTAB
M  V30 COUNTS 25 26 0 0 0
M  V30 BEGIN ATOM
M  V30 1 N -1.3523 -2.228 3.5827 0
M  V30 2 C -1.5823 -1.9572 2.4771 0
M  V30 3 C -1.8518 -1.6173 1.0648 0
M  V30 4 N -0.712 -1.8179 0.1558 0
M  V30 5 C 0.4534 -0.9763 0.4545 0 CFG=2
M  V30 6 C 0.2338 0.49 0.1838 0
M  V30 7 C 1.557 -1.2632 -0.5934 0
M  V30 8 C 0.6837 0.838 -1.0978 0
M  V30 9 C -0.3125 1.4498 1.0239 0
M  V30 10 C 1.2649 -0.3518 -1.7953 0
M  V30 11 C 0.5567 2.1301 -1.5792 0
M  V30 12 C -0.4331 2.759 0.5516 0
M  V30 13 C -0.007 3.0951 -0.7426 0
M  V30 14 H -2.6643 -2.2618 0.7084 0
M  V30 15 H -2.2391 -0.5967 0.9845 0
M  V30 16 H -0.427 -2.7958 0.2043 0
M  V30 17 H 0.8511 -1.1557 1.4594 0
M  V30 18 H 2.5329 -0.9901 -0.1652 0
M  V30 19 H 1.628 -2.3181 -0.8813 0
M  V30 20 H -0.6377 1.1996 2.0287 0
M  V30 21 H 2.1805 -0.1108 -2.3424 0
M  V30 22 H 0.5271 -0.797 -2.4704 0
M  V30 23 H 0.8931 2.3923 -2.5771 0
M  V30 24 H -0.8608 3.527 1.192 0
M  V30 25 H -0.1122 4.1187 -1.094 0
M  V30 END ATOM
M  V30 BEGIN BOND
M  V30 1 3 1 2
M  V30 2 1 2 3
M  V30 3 1 3 4
M  V30 4 1 4 5
M  V30 5 1 5 6
M  V30 6 1 5 7
M  V30 7 2 6 8
M  V30 8 1 6 9
M  V30 9 1 7 10
M  V30 10 1 8 11
M  V30 11 2 9 12
M  V30 12 2 11 13
M  V30 13 1 8 10
M  V30 14 1 12 13
M  V30 15 1 3 14
M  V30 16 1 3 15
M  V30 17 1 4 16
M  V30 18 1 5 17
M  V30 19 1 7 18
M  V30 20 1 7 19
M  V30 21 1 9 20
M  V30 22 1 10 21
M  V30 23 1 10 22
M  V30 24 1 11 23
M  V30 25 1 12 24
M  V30 26 1 13 25
M  V30 END BOND
M  V30 BEGIN COLLECTION
M  V30 MDLV30/STEABS ATOMS=(1 5)
M  V30 END COLLECTION
M  V30 END CTAB
M  END
>  <NO.>
3663

>  <Name>
rasagiline

>  <SMILES>
N#CCN[C@H]1CCc2ccccc21

>  <logBB>


>  <Class>
1

>  <MW>
172.1

>  <nHBAcc>
2

>  <nHBDon>
1

>  <SLogP>
1.79

>  <TopoPSA>
35.82

>  <MMFF94 Energy>
43.417

$$$$
NC1=NC(=O)[C@H](c2ccccc2)O1
Actelion Java MolfileCreator 2.0

  0  0  0  0  0  0              0 V3000
M  V30 BEGIN CTAB
M  V30 COUNTS 21 22 0 0 0
M  V30 BEGIN ATOM
M  V30 1 O -0.3179 -1.1925 2.7047 0
M  V30 2 C 0.5752 -0.7242 2.0117 0
M  V30 3 N 1.8613 -1.1917 1.9645 0
M  V30 4 C 0.44 0.4846 1.1018 0 CFG=1
M  V30 5 C 2.4716 -0.4087 1.1569 0
M  V30 6 O 1.7788 0.6039 0.5943 0
M  V30 7 C -0.5893 0.3355 0.0014 0
M  V30 8 N 3.7568 -0.4547 0.7801 0
M  V30 9 C -0.2354 0.3314 -1.3571 0
M  V30 10 C -1.9497 0.2211 0.3352 0
M  V30 11 C -1.2107 0.2062 -2.3495 0
M  V30 12 C -2.923 0.0949 -0.6578 0
M  V30 13 C -2.5533 0.0872 -1.9998 0
M  V30 14 H 0.2327 1.3771 1.7025 0
M  V30 15 H 4.1305 0.2231 0.1327 0
M  V30 16 H 4.3579 -1.1801 1.1453 0
M  V30 17 H 0.8044 0.4262 -1.6622 0
M  V30 18 H -2.2645 0.2194 1.3783 0
M  V30 19 H -0.9209 0.2014 -3.3972 0
M  V30 20 H -3.9702 -7.0E-4 -0.3814 0
M  V30 21 H -3.3109 -0.0126 -2.7725 0
M  V30 END ATOM
M  V30 BEGIN BOND
M  V30 1 2 1 2
M  V30 2 1 2 3
M  V30 3 1 2 4
M  V30 4 2 3 5
M  V30 5 1 4 6
M  V30 6 1 4 7
M  V30 7 1 5 8
M  V30 8 2 7 9
M  V30 9 1 7 10
M  V30 10 1 9 11
M  V30 11 2 10 12
M  V30 12 2 11 13
M  V30 13 1 5 6
M  V30 14 1 12 13
M  V30 15 1 4 14
M  V30 16 1 8 15
M  V30 17 1 8 16
M  V30 18 1 9 17
M  V30 19 1 10 18
M  V30 20 1 11 19
M  V30 21 1 12 20
M  V30 22 1 13 21
M  V30 END BOND
M  V30 BEGIN COLLECTION
M  V30 MDLV30/STEABS ATOMS=(1 4)
M  V30 END COLLECTION
M  V30 END CTAB
M  END
>  <NO.>
3664

>  <Name>
pemoline

>  <SMILES>
NC1=NC(=O)[C@H](c2ccccc2)O1

>  <logBB>


>  <Class>
1

>  <MW>
176.06

>  <nHBAcc>
3

>  <nHBDon>
1

>  <SLogP>
0.6

>  <TopoPSA>
64.68

>  <MMFF94 Energy>
-26.235

$$$$
NCc1ccccc1Sc1ccccc1CO
Actelion Java MolfileCreator 2.0

  0  0  0  0  0  0              0 V3000
M  V30 BEGIN CTAB
M  V30 COUNTS 32 33 0 0 0
M  V30 BEGIN ATOM
M  V30 1 S 0.0 1.2051 0.6425 0
M  V30 2 C 0.8768 -0.2957 1.1017 0
M  V30 3 C -0.6257 0.8279 -0.9976 0
M  V30 4 C 2.1552 -0.2486 1.701 0
M  V30 5 C 0.2508 -1.5382 0.9006 0
M  V30 6 C -1.9805 1.0057 -1.3467 0
M  V30 7 C 0.2832 0.3833 -1.9741 0
M  V30 8 C 2.7761 -1.4613 2.0555 0
M  V30 9 C 2.8441 1.0715 1.9635 0
M  V30 10 C 0.8857 -2.727 1.2577 0
M  V30 11 C -2.3882 0.7007 -2.6619 0
M  V30 12 C -3.0362 1.4549 -0.3644 0
M  V30 13 C -0.1384 0.0944 -3.2721 0
M  V30 14 C 2.15 -2.6883 1.8322 0
M  V30 15 O 4.1531 0.9085 2.5043 0
M  V30 16 C -1.4754 0.2513 -3.6156 0
M  V30 17 N -3.6391 0.3174 0.3217 0
M  V30 18 H -0.7492 -1.5896 0.4735 0
M  V30 19 H 1.3361 0.2578 -1.7303 0
M  V30 20 H 3.7624 -1.4559 2.5164 0
M  V30 21 H 2.9497 1.6297 1.0276 0
M  V30 22 H 2.261 1.6551 2.6836 0
M  V30 23 H 0.388 -3.6787 1.0938 0
M  V30 24 H -3.4322 0.8123 -2.9484 0
M  V30 25 H -2.6286 2.1618 0.3647 0
M  V30 26 H -3.819 2.0095 -0.8969 0
M  V30 27 H 0.5789 -0.2532 -4.0107 0
M  V30 28 H 2.6496 -3.6106 2.1163 0
M  V30 29 H 4.498 1.8041 2.6566 0
M  V30 30 H -1.8091 0.0233 -4.6245 0
M  V30 31 H -4.0786 -0.2929 -0.3639 0
M  V30 32 H -4.3806 0.6522 0.9331 0
M  V30 END ATOM
M  V30 BEGIN BOND
M  V30 1 1 1 2
M  V30 2 1 1 3
M  V30 3 2 2 4
M  V30 4 1 2 5
M  V30 5 2 3 6
M  V30 6 1 3 7
M  V30 7 1 4 8
M  V30 8 1 4 9
M  V30 9 2 5 10
M  V30 10 1 6 11
M  V30 11 1 6 12
M  V30 12 2 7 13
M  V30 13 2 8 14
M  V30 14 1 9 15
M  V30 15 2 11 16
M  V30 16 1 12 17
M  V30 17 1 10 14
M  V30 18 1 13 16
M  V30 19 1 5 18
M  V30 20 1 7 19
M  V30 21 1 8 20
M  V30 22 1 9 21
M  V30 23 1 9 22
M  V30 24 1 10 23
M  V30 25 1 11 24
M  V30 26 1 12 25
M  V30 27 1 12 26
M  V30 28 1 13 27
M  V30 29 1 14 28
M  V30 30 1 15 29
M  V30 31 1 16 30
M  V30 32 1 17 31
M  V30 33 1 17 32
M  V30 END BOND
M  V30 END CTAB
M  END
>  <NO.>
3690

>  <Name>
bipenamol

>  <SMILES>
NCc1ccccc1Sc1ccccc1CO

>  <logBB>


>  <Class>
1

>  <MW>
245.09

>  <nHBAcc>
3

>  <nHBDon>
2

>  <SLogP>
2.79

>  <TopoPSA>
46.25

>  <MMFF94 Energy>
38.876

$$$$
O=C(C1CCCCC1)N1CC(=O)N2CCc3ccccc3[C@H]2C1
Actelion Java MolfileCreator 2.0

  0  0  0  0  0  0              0 V3000
M  V30 BEGIN CTAB
M  V30 COUNTS 47 50 0 0 0
M  V30 BEGIN ATOM
M  V30 1 O 2.4065 -2.7277 3.049 0
M  V30 2 C 1.7862 -2.0034 2.2683 0
M  V30 3 N 1.9746 -0.6297 2.2236 0
M  V30 4 C 0.7635 -2.6141 1.2932 0
M  V30 5 C 1.0824 0.2351 1.4394 0 CFG=1
M  V30 6 C 2.9324 0.005 3.1189 0
M  V30 7 N 0.1205 -1.7392 0.31 0
M  V30 8 C 1.61 1.652 1.2398 0
M  V30 9 C 0.7621 -0.4415 0.0912 0
M  V30 10 C 3.7818 1.0206 2.364 0
M  V30 11 C -0.9168 -2.283 -0.4331 0
M  V30 12 C 2.8993 2.024 1.6677 0
M  V30 13 C 0.7938 2.6258 0.6367 0
M  V30 14 O -1.2996 -3.4378 -0.2338 0
M  V30 15 C -1.602 -1.4046 -1.4825 0
M  V30 16 C 3.3712 3.3225 1.4304 0
M  V30 17 C 1.2654 3.9213 0.4207 0
M  V30 18 C -2.3412 -2.2619 -2.5236 0
M  V30 19 C -2.5879 -0.4457 -0.7985 0
M  V30 20 C 2.5562 4.2663 0.809 0
M  V30 21 C -3.0677 -1.394 -3.5487 0
M  V30 22 C -3.3204 0.4254 -1.8161 0
M  V30 23 C -4.0259 -0.416 -2.8753 0
M  V30 24 H -0.0177 -3.093 1.8952 0
M  V30 25 H 1.2832 -3.3987 0.7299 0
M  V30 26 H 0.1605 0.3106 2.0334 0
M  V30 27 H 3.5835 -0.7397 3.5878 0
M  V30 28 H 2.3584 0.488 3.9197 0
M  V30 29 H 0.1382 0.2018 -0.5284 0
M  V30 30 H 1.6826 -0.6322 -0.4756 0
M  V30 31 H 4.4497 1.5242 3.0722 0
M  V30 32 H 4.3991 0.5173 1.6102 0
M  V30 33 H -0.2225 2.3866 0.3305 0
M  V30 34 H -0.8368 -0.8378 -2.0248 0
M  V30 35 H 4.3743 3.6085 1.7398 0
M  V30 36 H 0.6251 4.6624 -0.0511 0
M  V30 37 H -3.0698 -2.9183 -2.0302 0
M  V30 38 H -1.6293 -2.9184 -3.0385 0
M  V30 39 H -3.3211 -1.022 -0.2185 0
M  V30 40 H -2.0749 0.1988 -0.0765 0
M  V30 41 H 2.9258 5.274 0.6366 0
M  V30 42 H -3.6224 -2.0324 -4.2454 0
M  V30 43 H -2.3326 -0.8362 -4.1419 0
M  V30 44 H -4.0529 1.0571 -1.3009 0
M  V30 45 H -2.6032 1.0987 -2.3017 0
M  V30 46 H -4.4747 0.24 -3.6296 0
M  V30 47 H -4.8468 -0.9743 -2.4085 0
M  V30 END ATOM
M  V30 BEGIN BOND
M  V30 1 2 1 2
M  V30 2 1 2 3
M  V30 3 1 2 4
M  V30 4 1 3 5
M  V30 5 1 3 6
M  V30 6 1 4 7
M  V30 7 1 5 8
M  V30 8 1 5 9
M  V30 9 1 6 10
M  V30 10 1 7 11
M  V30 11 2 8 12
M  V30 12 1 8 13
M  V30 13 2 11 14
M  V30 14 1 11 15
M  V30 15 1 12 16
M  V30 16 2 13 17
M  V30 17 1 15 18
M  V30 18 1 15 19
M  V30 19 2 16 20
M  V30 20 1 18 21
M  V30 21 1 19 22
M  V30 22 1 21 23
M  V30 23 1 7 9
M  V30 24 1 10 12
M  V30 25 1 17 20
M  V30 26 1 22 23
M  V30 27 1 4 24
M  V30 28 1 4 25
M  V30 29 1 5 26
M  V30 30 1 6 27
M  V30 31 1 6 28
M  V30 32 1 9 29
M  V30 33 1 9 30
M  V30 34 1 10 31
M  V30 35 1 10 32
M  V30 36 1 13 33
M  V30 37 1 15 34
M  V30 38 1 16 35
M  V30 39 1 17 36
M  V30 40 1 18 37
M  V30 41 1 18 38
M  V30 42 1 19 39
M  V30 43 1 19 40
M  V30 44 1 20 41
M  V30 45 1 21 42
M  V30 46 1 21 43
M  V30 47 1 22 44
M  V30 48 1 22 45
M  V30 49 1 23 46
M  V30 50 1 23 47
M  V30 END BOND
M  V30 BEGIN COLLECTION
M  V30 MDLV30/STEABS ATOMS=(1 5)
M  V30 END COLLECTION
M  V30 END CTAB
M  END
>  <NO.>
3714

>  <Name>
(s)-praziquantel

>  <SMILES>
O=C(C1CCCCC1)N1CC(=O)N2CCc3ccccc3[C@H]2C1

>  <logBB>


>  <Class>
1

>  <MW>
312.18

>  <nHBAcc>
2

>  <nHBDon>
0

>  <SLogP>
2.53

>  <TopoPSA>
40.62

>  <MMFF94 Energy>
78.656

$$$$
O=C(Cc1ccc(Cl)c(Cl)c1)N1CCc2ccsc2[C@@H]1CN1CCCC1
Actelion Java MolfileCreator 2.0

  0  0  0  0  0  0              0 V3000
M  V30 BEGIN CTAB
M  V30 COUNTS 48 51 0 0 0
M  V30 BEGIN ATOM
M  V30 1 Cl -5.7795 -3.2995 -2.3913 0
M  V30 2 C -4.088 -3.6046 -2.211 0
M  V30 3 C -3.5783 -4.8839 -1.9696 0
M  V30 4 C -3.2157 -2.5151 -2.3179 0
M  V30 5 Cl -4.592 -6.2762 -1.8304 0
M  V30 6 C -2.1998 -5.0667 -1.8324 0
M  V30 7 C -1.8296 -2.6938 -2.1913 0
M  V30 8 C -1.3305 -3.9783 -1.9397 0
M  V30 9 C -0.8931 -1.5101 -2.2893 0
M  V30 10 C -0.6539 -0.7908 -0.966 0
M  V30 11 O -1.0495 -1.2564 0.1039 0
M  V30 12 N 0.0387 0.415 -1.0172 0
M  V30 13 C 0.2184 1.1597 0.2651 0 CFG=2
M  V30 14 C 0.7473 0.9395 -2.1999 0
M  V30 15 C 0.2375 2.6478 -0.0451 0
M  V30 16 C 1.5123 0.6624 0.986 0
M  V30 17 C 0.3117 2.3701 -2.5391 0
M  V30 18 S 0.1293 3.8358 1.1783 0
M  V30 19 C 0.2917 3.2162 -1.3078 0
M  V30 20 N 1.6552 1.035 2.4033 0
M  V30 21 C 0.2162 5.1073 0.0395 0
M  V30 22 C 0.2916 4.6414 -1.2539 0
M  V30 23 C 0.6449 0.4156 3.2656 0
M  V30 24 C 2.9386 0.6058 2.9596 0
M  V30 25 C 1.23 0.5672 4.6637 0
M  V30 26 C 2.7262 0.7692 4.4551 0
M  V30 27 H -3.6207 -1.5202 -2.4922 0
M  V30 28 H -1.7947 -6.0561 -1.6341 0
M  V30 29 H -0.2618 -4.1403 -1.8134 0
M  V30 30 H 0.0734 -1.8496 -2.6802 0
M  V30 31 H -1.3087 -0.7989 -3.0133 0
M  V30 32 H -0.658 0.9496 0.8897 0
M  V30 33 H 0.6104 0.3019 -3.0751 0
M  V30 34 H 1.8183 0.9161 -1.9628 0
M  V30 35 H 2.3789 1.0575 0.4384 0
M  V30 36 H 1.5726 -0.4308 0.8948 0
M  V30 37 H 0.9848 2.795 -3.2916 0
M  V30 38 H -0.699 2.3529 -2.965 0
M  V30 39 H 0.1938 6.1352 0.3741 0
M  V30 40 H 0.3318 5.2953 -2.1164 0
M  V30 41 H -0.3279 0.9108 3.1929 0
M  V30 42 H 0.5131 -0.649 3.035 0
M  V30 43 H 3.7704 1.2208 2.6022 0
M  V30 44 H 3.1524 -0.4448 2.7257 0
M  V30 45 H 0.8041 1.4373 5.1766 0
M  V30 46 H 1.0253 -0.3169 5.276 0
M  V30 47 H 3.3197 0.0526 5.0312 0
M  V30 48 H 3.0112 1.7779 4.7774 0
M  V30 END ATOM
M  V30 BEGIN BOND
M  V30 1 1 1 2
M  V30 2 2 2 3
M  V30 3 1 2 4
M  V30 4 1 3 5
M  V30 5 1 3 6
M  V30 6 2 4 7
M  V30 7 2 6 8
M  V30 8 1 7 9
M  V30 9 1 9 10
M  V30 10 2 10 11
M  V30 11 1 10 12
M  V30 12 1 12 13
M  V30 13 1 12 14
M  V30 14 1 13 15
M  V30 15 1 13 16
M  V30 16 1 14 17
M  V30 17 1 15 18
M  V30 18 2 15 19
M  V30 19 1 16 20
M  V30 20 1 18 21
M  V30 21 1 19 22
M  V30 22 1 20 23
M  V30 23 1 20 24
M  V30 24 1 23 25
M  V30 25 1 24 26
M  V30 26 1 7 8
M  V30 27 1 17 19
M  V30 28 2 21 22
M  V30 29 1 25 26
M  V30 30 1 4 27
M  V30 31 1 6 28
M  V30 32 1 8 29
M  V30 33 1 9 30
M  V30 34 1 9 31
M  V30 35 1 13 32
M  V30 36 1 14 33
M  V30 37 1 14 34
M  V30 38 1 16 35
M  V30 39 1 16 36
M  V30 40 1 17 37
M  V30 41 1 17 38
M  V30 42 1 21 39
M  V30 43 1 22 40
M  V30 44 1 23 41
M  V30 45 1 23 42
M  V30 46 1 24 43
M  V30 47 1 24 44
M  V30 48 1 25 45
M  V30 49 1 25 46
M  V30 50 1 26 47
M  V30 51 1 26 48
M  V30 END BOND
M  V30 BEGIN COLLECTION
M  V30 MDLV30/STEABS ATOMS=(1 13)
M  V30 END COLLECTION
M  V30 END CTAB
M  END
>  <NO.>
3723

>  <Name>
brl-53080

>  <SMILES>
O=C(Cc1ccc(Cl)c(Cl)c1)N1CCc2ccsc2[C@@H]1CN1CCCC1

>  <logBB>


>  <Class>
1

>  <MW>
408.08

>  <nHBAcc>
3

>  <nHBDon>
0

>  <SLogP>
4.82

>  <TopoPSA>
23.55

>  <MMFF94 Energy>
89.712

$$$$
O=C(N[C@@H](CO)[C@@H](O)c1ccc([N+](=O)[O-])cc1)C(Cl)Cl
Actelion Java MolfileCreator 2.0

  0  0  0  0  0  0              0 V3000
M  V30 BEGIN CTAB
M  V30 COUNTS 32 32 0 0 0
M  V30 BEGIN ATOM
M  V30 1 Cl -1.4699 3.1869 0.6531 0
M  V30 2 C -2.4286 2.2027 1.7809 0
M  V30 3 Cl -4.0779 1.9724 1.1605 0
M  V30 4 C -1.772 0.834 1.9571 0
M  V30 5 O -1.4919 0.381 3.0672 0
M  V30 6 N -1.535 0.1204 0.8009 0
M  V30 7 C -0.8793 -1.192 0.7882 0 CFG=2
M  V30 8 C -0.1894 -1.4536 -0.5807 0 CFG=1
M  V30 9 C -1.9003 -2.2908 1.1346 0
M  V30 10 O -1.1713 -1.4326 -1.6262 0
M  V30 11 C 0.9023 -0.4326 -0.8768 0
M  V30 12 O -1.3309 -3.5872 0.988 0
M  V30 13 C 0.7085 0.6216 -1.7858 0
M  V30 14 C 2.1357 -0.5291 -0.2083 0
M  V30 15 C 1.716 1.5609 -2.0215 0
M  V30 16 C 3.1502 0.4042 -0.4373 0
M  V30 17 C 2.9349 1.4484 -1.3443 0
M  V30 18 N 3.997 2.4318 -1.5878 0 CHG=1
M  V30 19 O 5.0567 2.3042 -0.9573 0
M  V30 20 O 3.7739 3.332 -2.41 0 CHG=-1
M  V30 21 H -2.4792 2.72 2.7428 0
M  V30 22 H -1.8167 0.5075 -0.0961 0
M  V30 23 H -0.1086 -1.1926 1.57 0
M  V30 24 H 0.2796 -2.4452 -0.5997 0
M  V30 25 H -2.2432 -2.1769 2.1689 0
M  V30 26 H -2.7799 -2.2293 0.4844 0
M  V30 27 H -1.5426 -2.3328 -1.661 0
M  V30 28 H -1.949 -4.2144 1.4057 0
M  V30 29 H -0.2347 0.7188 -2.3212 0
M  V30 30 H 2.3137 -1.336 0.5013 0
M  V30 31 H 1.5329 2.3659 -2.7301 0
M  V30 32 H 4.0931 0.3037 0.0962 0
M  V30 END ATOM
M  V30 BEGIN BOND
M  V30 1 1 1 2
M  V30 2 1 2 3
M  V30 3 1 2 4
M  V30 4 2 4 5
M  V30 5 1 4 6
M  V30 6 1 6 7
M  V30 7 1 7 8
M  V30 8 1 7 9
M  V30 9 1 8 10
M  V30 10 1 8 11
M  V30 11 1 9 12
M  V30 12 2 11 13
M  V30 13 1 11 14
M  V30 14 1 13 15
M  V30 15 2 14 16
M  V30 16 2 15 17
M  V30 17 1 17 18
M  V30 18 2 18 19
M  V30 19 1 18 20
M  V30 20 1 16 17
M  V30 21 1 2 21
M  V30 22 1 6 22
M  V30 23 1 7 23
M  V30 24 1 8 24
M  V30 25 1 9 25
M  V30 26 1 9 26
M  V30 27 1 10 27
M  V30 28 1 12 28
M  V30 29 1 13 29
M  V30 30 1 14 30
M  V30 31 1 15 31
M  V30 32 1 16 32
M  V30 END BOND
M  V30 BEGIN COLLECTION
M  V30 MDLV30/STEABS ATOMS=(2 7 8)
M  V30 END COLLECTION
M  V30 END CTAB
M  END
>  <NO.>
3730

>  <Name>
dextramycin

>  <SMILES>
O=C(N[C@@H](CO)[C@@H](O)c1ccc([N+](=O)[O-])cc1)C(Cl)Cl

>  <logBB>


>  <Class>
-1

>  <MW>
322.01

>  <nHBAcc>
5

>  <nHBDon>
3

>  <SLogP>
0.91

>  <TopoPSA>
112.7

>  <MMFF94 Energy>
128.2

$$$$
O=C(Oc1ccccc1)c1ccccc1O
Actelion Java MolfileCreator 2.0

  0  0  0  0  0  0              0 V3000
M  V30 BEGIN CTAB
M  V30 COUNTS 26 27 0 0 0
M  V30 BEGIN ATOM
M  V30 1 O -0.4775 -1.5925 -0.7164 0
M  V30 2 C -0.4324 -0.4149 -0.3933 0
M  V30 3 O 0.5225 0.19 0.4026 0
M  V30 4 C -1.4367 0.5927 -0.8388 0
M  V30 5 C 1.51 -0.6782 0.8771 0
M  V30 6 C -1.4855 1.9303 -0.4174 0
M  V30 7 C -2.4075 0.1404 -1.7513 0
M  V30 8 C 1.2265 -1.5655 1.9142 0
M  V30 9 C 2.7945 -0.5644 0.3502 0
M  V30 10 O -0.6187 2.5105 0.4681 0
M  V30 11 C -2.4781 2.7871 -0.901 0
M  V30 12 C -3.3974 1.0005 -2.2324 0
M  V30 13 C 2.2453 -2.3781 2.4092 0
M  V30 14 C 3.8086 -1.3797 0.8507 0
M  V30 15 C -3.4317 2.3247 -1.8066 0
M  V30 16 C 3.5336 -2.2864 1.8771 0
M  V30 17 H -2.3982 -0.893 -2.096 0
M  V30 18 H 0.2253 -1.6341 2.3281 0
M  V30 19 H 3.0062 0.1449 -0.4435 0
M  V30 20 H 0.0518 1.8615 0.7477 0
M  V30 21 H -2.5072 3.822 -0.5673 0
M  V30 22 H -4.1398 0.6347 -2.9377 0
M  V30 23 H 2.0368 -3.0846 3.2085 0
M  V30 24 H 4.8135 -1.3104 0.4427 0
M  V30 25 H -4.2003 2.9985 -2.1772 0
M  V30 26 H 4.3254 -2.9234 2.2637 0
M  V30 END ATOM
M  V30 BEGIN BOND
M  V30 1 2 1 2
M  V30 2 1 2 3
M  V30 3 1 2 4
M  V30 4 1 3 5
M  V30 5 2 4 6
M  V30 6 1 4 7
M  V30 7 2 5 8
M  V30 8 1 5 9
M  V30 9 1 6 10
M  V30 10 1 6 11
M  V30 11 2 7 12
M  V30 12 1 8 13
M  V30 13 2 9 14
M  V30 14 2 11 15
M  V30 15 2 13 16
M  V30 16 1 12 15
M  V30 17 1 14 16
M  V30 18 1 7 17
M  V30 19 1 8 18
M  V30 20 1 9 19
M  V30 21 1 10 20
M  V30 22 1 11 21
M  V30 23 1 12 22
M  V30 24 1 13 23
M  V30 25 1 14 24
M  V30 26 1 15 25
M  V30 27 1 16 26
M  V30 END BOND
M  V30 END CTAB
M  END
>  <NO.>
3736

>  <Name>
phenyl salicylate

>  <SMILES>
O=C(Oc1ccccc1)c1ccccc1O

>  <logBB>


>  <Class>
1

>  <MW>
214.06

>  <nHBAcc>
3

>  <nHBDon>
1

>  <SLogP>
2.61

>  <TopoPSA>
46.53

>  <MMFF94 Energy>
63.659

$$$$
O=C1CC2c3cc(Cl)ccc3OC3(CCNC[C@H]23)N1
Actelion Java MolfileCreator 2.0

  0  0  0  0  0  0              0 V3000
M  V30 BEGIN CTAB
M  V30 COUNTS 34 37 0 0 0
M  V30 BEGIN ATOM
M  V30 1 Cl -0.9806 1.2259 -5.4847 0
M  V30 2 C -1.127 0.6744 -3.8615 0
M  V30 3 C -0.0486 0.8079 -2.9864 0
M  V30 4 C -2.3205 0.0979 -3.4319 0
M  V30 5 C -0.1607 0.3574 -1.6635 0
M  V30 6 C -2.4386 -0.3477 -2.1147 0
M  V30 7 C -1.3658 -0.2145 -1.2337 0
M  V30 8 C 0.9919 0.5024 -0.6923 0
M  V30 9 O -1.5662 -0.6811 0.0387 0
M  V30 10 C 0.8754 -0.6333 0.3272 0 CFG=2
M  V30 11 C 0.9391 1.8779 -0.0213 0
M  V30 12 C -0.499 -0.4673 0.9823 0
M  V30 13 C 2.0007 -0.668 1.3637 0
M  V30 14 C -0.1593 2.0109 1.0136 0
M  V30 15 N -0.6924 0.8681 1.5279 0
M  V30 16 C -0.6763 -1.5198 2.085 0
M  V30 17 N 1.7658 -1.7389 2.3323 0
M  V30 18 O -0.5127 3.1048 1.4471 0
M  V30 19 C 0.5051 -1.5406 3.0477 0
M  V30 20 H 0.8757 1.2619 -3.335 0
M  V30 21 H -3.1605 -0.0056 -4.1132 0
M  V30 22 H -3.3685 -0.7959 -1.7745 0
M  V30 23 H 1.9363 0.3992 -1.2415 0
M  V30 24 H 0.8959 -1.5903 -0.2183 0
M  V30 25 H 1.887 2.0803 0.4904 0
M  V30 26 H 0.7992 2.6705 -0.7663 0
M  V30 27 H 2.1108 0.2832 1.8953 0
M  V30 28 H 2.9529 -0.857 0.8555 0
M  V30 29 H -1.4573 1.0199 2.1722 0
M  V30 30 H -0.7913 -2.5118 1.6267 0
M  V30 31 H -1.6062 -1.3434 2.641 0
M  V30 32 H 2.5338 -1.7624 3.0054 0
M  V30 33 H 0.3713 -2.3634 3.7585 0
M  V30 34 H 0.5431 -0.6162 3.6367 0
M  V30 END ATOM
M  V30 BEGIN BOND
M  V30 1 1 1 2
M  V30 2 2 2 3
M  V30 3 1 2 4
M  V30 4 1 3 5
M  V30 5 2 4 6
M  V30 6 2 5 7
M  V30 7 1 5 8
M  V30 8 1 7 9
M  V30 9 1 8 10
M  V30 10 1 8 11
M  V30 11 1 9 12
M  V30 12 1 10 13
M  V30 13 1 11 14
M  V30 14 1 12 15
M  V30 15 1 12 16
M  V30 16 1 13 17
M  V30 17 2 14 18
M  V30 18 1 16 19
M  V30 19 1 6 7
M  V30 20 1 10 12
M  V30 21 1 14 15
M  V30 22 1 17 19
M  V30 23 1 3 20
M  V30 24 1 4 21
M  V30 25 1 6 22
M  V30 26 1 8 23
M  V30 27 1 10 24
M  V30 28 1 11 25
M  V30 29 1 11 26
M  V30 30 1 13 27
M  V30 31 1 13 28
M  V30 32 1 15 29
M  V30 33 1 16 30
M  V30 34 1 16 31
M  V30 35 1 17 32
M  V30 36 1 19 33
M  V30 37 1 19 34
M  V30 END BOND
M  V30 BEGIN COLLECTION
M  V30 MDLV30/STEABS ATOMS=(1 10)
M  V30 END COLLECTION
M  V30 END CTAB
M  END
>  <NO.>
3739

>  <Name>


>  <SMILES>
O=C1CC2c3cc(Cl)ccc3OC3(CCNC[C@H]23)N1

>  <logBB>


>  <Class>
1

>  <MW>
278.08

>  <nHBAcc>
3

>  <nHBDon>
2

>  <SLogP>
1.64

>  <TopoPSA>
50.36

>  <MMFF94 Energy>
-34.07

$$$$
O=C1NC(c2ccccc2)(c2ccccc2)C(=O)N1CP(=O)(O)O
Actelion Java MolfileCreator 2.0

  0  0  0  0  0  0              0 V3000
M  V30 BEGIN CTAB
M  V30 COUNTS 39 41 0 0 0
M  V30 BEGIN ATOM
M  V30 1 P -1.058 -4.1555 0.1627 0
M  V30 2 O -1.165 -5.6013 0.5194 0
M  V30 3 O -2.0392 -3.7819 -1.0476 0
M  V30 4 O -1.6808 -3.2295 1.3161 0
M  V30 5 C 0.5606 -3.5085 -0.2339 0
M  V30 6 N 0.4547 -2.0979 -0.5331 0
M  V30 7 C 0.1813 -1.5926 -1.7594 0
M  V30 8 C 0.5315 -1.0957 0.3942 0
M  V30 9 O 0.0664 -2.2092 -2.8048 0
M  V30 10 N 0.0694 -0.2321 -1.6627 0
M  V30 11 O 0.7737 -1.2643 1.5851 0
M  V30 12 C 0.2784 0.2718 -0.3172 0
M  V30 13 C 1.5387 1.1446 -0.2033 0
M  V30 14 C -1.0011 1.0002 0.1189 0
M  V30 15 C 2.397 1.3836 -1.2925 0
M  V30 16 C 1.8729 1.7248 1.0364 0
M  V30 17 C -1.344 2.2255 -0.4914 0
M  V30 18 C -1.873 0.4909 1.0966 0
M  V30 19 C 3.5357 2.1811 -1.1481 0
M  V30 20 C 3.0109 2.5211 1.1779 0
M  V30 21 C -2.505 2.9136 -0.1325 0
M  V30 22 C -3.0347 1.182 1.4541 0
M  V30 23 C 3.8408 2.7505 0.085 0
M  V30 24 C -3.3502 2.391 0.8407 0
M  V30 25 H -2.8807 -4.2727 -1.0341 0
M  V30 26 H -2.456 -3.635 1.7463 0
M  V30 27 H 1.2319 -3.6506 0.6179 0
M  V30 28 H 0.9633 -4.0359 -1.1036 0
M  V30 29 H -0.179 0.3333 -2.4601 0
M  V30 30 H 2.2013 0.9502 -2.2706 0
M  V30 31 H 1.2449 1.5543 1.9109 0
M  V30 32 H -0.6976 2.661 -1.2516 0
M  V30 33 H -1.6699 -0.4492 1.6058 0
M  V30 34 H 4.1881 2.3543 -2.0005 0
M  V30 35 H 3.2494 2.958 2.1444 0
M  V30 36 H -2.7466 3.8589 -0.6117 0
M  V30 37 H -3.6932 0.7729 2.2165 0
M  V30 38 H 4.728 3.3683 0.1957 0
M  V30 39 H -4.2533 2.9258 1.1229 0
M  V30 END ATOM
M  V30 BEGIN BOND
M  V30 1 2 1 2
M  V30 2 1 1 3
M  V30 3 1 1 4
M  V30 4 1 1 5
M  V30 5 1 5 6
M  V30 6 1 6 7
M  V30 7 1 6 8
M  V30 8 2 7 9
M  V30 9 1 7 10
M  V30 10 2 8 11
M  V30 11 1 8 12
M  V30 12 1 12 13
M  V30 13 1 12 14
M  V30 14 2 13 15
M  V30 15 1 13 16
M  V30 16 2 14 17
M  V30 17 1 14 18
M  V30 18 1 15 19
M  V30 19 2 16 20
M  V30 20 1 17 21
M  V30 21 2 18 22
M  V30 22 2 19 23
M  V30 23 2 21 24
M  V30 24 1 10 12
M  V30 25 1 20 23
M  V30 26 1 22 24
M  V30 27 1 3 25
M  V30 28 1 4 26
M  V30 29 1 5 27
M  V30 30 1 5 28
M  V30 31 1 10 29
M  V30 32 1 15 30
M  V30 33 1 16 31
M  V30 34 1 17 32
M  V30 35 1 18 33
M  V30 36 1 19 34
M  V30 37 1 20 35
M  V30 38 1 21 36
M  V30 39 1 22 37
M  V30 40 1 23 38
M  V30 41 1 24 39
M  V30 END BOND
M  V30 END CTAB
M  END
>  <NO.>
3758

>  <Name>
fosphenytoin

>  <SMILES>
O=C1NC(c2ccccc2)(c2ccccc2)C(=O)N1CP(=O)(O)O

>  <logBB>


>  <Class>
1

>  <MW>
346.07

>  <nHBAcc>
3

>  <nHBDon>
3

>  <SLogP>
1.62

>  <TopoPSA>
106.94

>  <MMFF94 Energy>
-96.014

$$$$
OC1(c2ccccc2Cl)C2=NCCCN2c2ccccc21
Actelion Java MolfileCreator 2.0

  0  0  0  0  0  0              0 V3000
M  V30 BEGIN CTAB
M  V30 COUNTS 36 39 0 0 0
M  V30 BEGIN ATOM
M  V30 1 Cl -0.7334 -2.6914 3.018 0
M  V30 2 C -1.7635 -1.7101 2.0337 0
M  V30 3 C -1.3082 -0.9554 0.935 0
M  V30 4 C -3.1146 -1.6852 2.4152 0
M  V30 5 C -2.2653 -0.148 0.2746 0
M  V30 6 C 0.1499 -0.9135 0.4748 0 CFG=1
M  V30 7 C -4.0358 -0.9005 1.7279 0
M  V30 8 C -3.6088 -0.1262 0.6592 0
M  V30 9 O 0.8572 -2.1355 0.6587 0
M  V30 10 C 0.3166 -0.5938 -1.0619 0
M  V30 11 C 0.9404 0.2513 1.0574 0
M  V30 12 N -0.1666 -1.3536 -1.991 0
M  V30 13 N 1.0542 0.5622 -1.2216 0
M  V30 14 C 1.4156 1.0756 0.0104 0
M  V30 15 C 1.2108 0.5441 2.3868 0
M  V30 16 C 0.06 -0.8546 -3.359 0
M  V30 17 C 1.42 1.073 -2.5147 0
M  V30 18 C 2.1473 2.2132 0.2997 0
M  V30 19 C 1.9519 1.691 2.6724 0
M  V30 20 C 1.3712 -0.0863 -3.5055 0
M  V30 21 C 2.4127 2.5204 1.6386 0
M  V30 22 H -3.4539 -2.2778 3.2621 0
M  V30 23 H -1.9745 0.4859 -0.5618 0
M  V30 24 H -5.0788 -0.8881 2.0325 0
M  V30 25 H -4.317 0.4994 0.1212 0
M  V30 26 H 0.4336 -2.7607 0.0427 0
M  V30 27 H 0.8626 -0.1014 3.1861 0
M  V30 28 H -0.7896 -0.2278 -3.6547 0
M  V30 29 H 0.0758 -1.7148 -4.037 0
M  V30 30 H 2.4292 1.4995 -2.5138 0
M  V30 31 H 0.7197 1.8614 -2.8138 0
M  V30 32 H 2.5198 2.8622 -0.4846 0
M  V30 33 H 2.1777 1.9421 3.7064 0
M  V30 34 H 2.2106 -0.7668 -3.3124 0
M  V30 35 H 1.4826 0.2869 -4.5291 0
M  V30 36 H 2.9903 3.4089 1.8833 0
M  V30 END ATOM
M  V30 BEGIN BOND
M  V30 1 1 1 2
M  V30 2 2 2 3
M  V30 3 1 2 4
M  V30 4 1 3 5
M  V30 5 1 3 6
M  V30 6 2 4 7
M  V30 7 2 5 8
M  V30 8 1 6 9
M  V30 9 1 6 10
M  V30 10 1 6 11
M  V30 11 2 10 12
M  V30 12 1 10 13
M  V30 13 2 11 14
M  V30 14 1 11 15
M  V30 15 1 12 16
M  V30 16 1 13 17
M  V30 17 1 14 18
M  V30 18 2 15 19
M  V30 19 1 16 20
M  V30 20 2 18 21
M  V30 21 1 7 8
M  V30 22 1 13 14
M  V30 23 1 17 20
M  V30 24 1 19 21
M  V30 25 1 4 22
M  V30 26 1 5 23
M  V30 27 1 7 24
M  V30 28 1 8 25
M  V30 29 1 9 26
M  V30 30 1 15 27
M  V30 31 1 16 28
M  V30 32 1 16 29
M  V30 33 1 17 30
M  V30 34 1 17 31
M  V30 35 1 18 32
M  V30 36 1 19 33
M  V30 37 1 20 34
M  V30 38 1 20 35
M  V30 39 1 21 36
M  V30 END BOND
M  V30 BEGIN COLLECTION
M  V30 MDLV30/STERAC1 ATOMS=(1 6)
M  V30 END COLLECTION
M  V30 END CTAB
M  END
>  <NO.>
3789

>  <Name>
ciclazindol

>  <SMILES>
OC1(c2ccccc2Cl)C2=NCCCN2c2ccccc21

>  <logBB>


>  <Class>
1

>  <MW>
298.09

>  <nHBAcc>
3

>  <nHBDon>
1

>  <SLogP>
3.2

>  <TopoPSA>
35.83

>  <MMFF94 Energy>
78.52

$$$$
OCC(Br)(Br)Br
Actelion Java MolfileCreator 2.0

  0  0  0  0  0  0              0 V3000
M  V30 BEGIN CTAB
M  V30 COUNTS 9 8 0 0 0
M  V30 BEGIN ATOM
M  V30 1 Br 1.9776 -1.1297 0.753 0
M  V30 2 C 0.2953 -0.1218 0.8798 0
M  V30 3 Br 0.6216 1.7251 1.466 0
M  V30 4 Br -0.914 -1.0166 2.1631 0
M  V30 5 C -0.4098 -0.1147 -0.4896 0
M  V30 6 O 0.3598 0.5088 -1.5226 0
M  V30 7 H -0.6254 -1.1378 -0.8205 0
M  V30 8 H -1.3654 0.4203 -0.4314 0
M  V30 9 H -0.1617 0.4661 -2.3432 0
M  V30 END ATOM
M  V30 BEGIN BOND
M  V30 1 1 1 2
M  V30 2 1 2 3
M  V30 3 1 2 4
M  V30 4 1 2 5
M  V30 5 1 5 6
M  V30 6 1 5 7
M  V30 7 1 5 8
M  V30 8 1 6 9
M  V30 END BOND
M  V30 END CTAB
M  END
>  <NO.>
3790

>  <Name>
2,2,2-tribromoethanol

>  <SMILES>
OCC(Br)(Br)Br

>  <logBB>


>  <Class>
1

>  <MW>
279.77

>  <nHBAcc>
1

>  <nHBDon>
1

>  <SLogP>
1.82

>  <TopoPSA>
20.23

>  <MMFF94 Energy>
38.592

$$$$
OCCN1CCCN(CCCN2c3ccccc3C=Cc3ccccc32)CC1
Actelion Java MolfileCreator 2.0

  0  0  0  0  0  0              0 V3000
M  V30 BEGIN CTAB
M  V30 COUNTS 59 62 0 0 0
M  V30 BEGIN ATOM
M  V30 1 O -5.4001 4.2865 -3.2532 0
M  V30 2 C -4.4439 3.5402 -2.5028 0
M  V30 3 C -4.5036 2.065 -2.9193 0
M  V30 4 N -3.5251 1.1604 -2.3169 0
M  V30 5 C -2.1673 1.2877 -2.8577 0
M  V30 6 C -3.6615 0.9061 -0.8898 0
M  V30 7 C -1.0509 0.6158 -2.0186 0
M  V30 8 C -2.9547 1.8373 0.0975 0
M  V30 9 N -0.6118 1.3241 -0.7957 0
M  V30 10 C -1.5579 2.3184 -0.2931 0
M  V30 11 C -0.1254 0.3597 0.2067 0
M  V30 12 C 0.7466 0.9962 1.2972 0
M  V30 13 C 1.2247 -0.0356 2.3307 0
M  V30 14 N 2.1007 -1.0744 1.7563 0
M  V30 15 C 3.2894 -0.6746 1.1052 0
M  V30 16 C 1.7491 -2.4197 2.0183 0
M  V30 17 C 3.7188 -1.2546 -0.107 0
M  V30 18 C 4.1101 0.3167 1.685 0
M  V30 19 C 1.7914 -3.4217 1.0282 0
M  V30 20 C 1.3792 -2.8015 3.3267 0
M  V30 21 C 2.927 -2.2292 -0.8716 0
M  V30 22 C 4.9187 -0.8192 -0.7042 0
M  V30 23 C 5.3023 0.7324 1.0879 0
M  V30 24 C 2.0962 -3.1595 -0.3846 0
M  V30 25 C 1.433 -4.7439 1.358 0
M  V30 26 C 1.0374 -4.1176 3.6437 0
M  V30 27 C 5.7072 0.1636 -0.1099 0
M  V30 28 C 1.0612 -5.0906 2.6559 0
M  V30 29 H -5.3164 5.2144 -2.9745 0
M  V30 30 H -4.6876 3.6602 -1.4444 0
M  V30 31 H -3.4572 3.9704 -2.695 0
M  V30 32 H -5.5148 1.688 -2.7154 0
M  V30 33 H -4.4218 2.0058 -4.0132 0
M  V30 34 H -2.1672 0.807 -3.8444 0
M  V30 35 H -1.8958 2.3332 -3.0434 0
M  V30 36 H -4.7257 0.8634 -0.6214 0
M  V30 37 H -3.3129 -0.1168 -0.6975 0
M  V30 38 H -0.1658 0.5198 -2.6605 0
M  V30 39 H -1.3628 -0.4135 -1.7949 0
M  V30 40 H -3.5791 2.7212 0.2718 0
M  V30 41 H -2.8968 1.3228 1.0654 0
M  V30 42 H -1.1274 2.8457 0.5656 0
M  V30 43 H -1.6542 3.12 -1.0356 0
M  V30 44 H 0.4856 -0.3897 -0.3088 0
M  V30 45 H -0.9657 -0.1794 0.6612 0
M  V30 46 H 0.1746 1.7526 1.8457 0
M  V30 47 H 1.5945 1.5164 0.8377 0
M  V30 48 H 1.7305 0.4736 3.1597 0
M  V30 49 H 0.3191 -0.4767 2.7688 0
M  V30 50 H 3.8409 0.7629 2.6378 0
M  V30 51 H 1.3862 -2.068 4.1292 0
M  V30 52 H 3.0508 -2.1802 -1.9513 0
M  V30 53 H 5.2491 -1.2502 -1.6469 0
M  V30 54 H 5.9126 1.4937 1.5658 0
M  V30 55 H 1.5966 -3.8122 -1.0971 0
M  V30 56 H 1.4478 -5.5213 0.5969 0
M  V30 57 H 0.764 -4.3784 4.6624 0
M  V30 58 H 6.6323 0.4809 -0.5829 0
M  V30 59 H 0.7979 -6.118 2.8915 0
M  V30 END ATOM
M  V30 BEGIN BOND
M  V30 1 1 1 2
M  V30 2 1 2 3
M  V30 3 1 3 4
M  V30 4 1 4 5
M  V30 5 1 4 6
M  V30 6 1 5 7
M  V30 7 1 6 8
M  V30 8 1 7 9
M  V30 9 1 8 10
M  V30 10 1 9 11
M  V30 11 1 11 12
M  V30 12 1 12 13
M  V30 13 1 13 14
M  V30 14 1 14 15
M  V30 15 1 14 16
M  V30 16 2 15 17
M  V30 17 1 15 18
M  V30 18 2 16 19
M  V30 19 1 16 20
M  V30 20 1 17 21
M  V30 21 1 17 22
M  V30 22 2 18 23
M  V30 23 1 19 24
M  V30 24 1 19 25
M  V30 25 2 20 26
M  V30 26 2 22 27
M  V30 27 2 25 28
M  V30 28 1 9 10
M  V30 29 2 21 24
M  V30 30 1 23 27
M  V30 31 1 26 28
M  V30 32 1 1 29
M  V30 33 1 2 30
M  V30 34 1 2 31
M  V30 35 1 3 32
M  V30 36 1 3 33
M  V30 37 1 5 34
M  V30 38 1 5 35
M  V30 39 1 6 36
M  V30 40 1 6 37
M  V30 41 1 7 38
M  V30 42 1 7 39
M  V30 43 1 8 40
M  V30 44 1 8 41
M  V30 45 1 10 42
M  V30 46 1 10 43
M  V30 47 1 11 44
M  V30 48 1 11 45
M  V30 49 1 12 46
M  V30 50 1 12 47
M  V30 51 1 13 48
M  V30 52 1 13 49
M  V30 53 1 18 50
M  V30 54 1 20 51
M  V30 55 1 21 52
M  V30 56 1 22 53
M  V30 57 1 23 54
M  V30 58 1 24 55
M  V30 59 1 25 56
M  V30 60 1 26 57
M  V30 61 1 27 58
M  V30 62 1 28 59
M  V30 END BOND
M  V30 END CTAB
M  END
>  <NO.>
3793

>  <Name>
homopipramol

>  <SMILES>
OCCN1CCCN(CCCN2c3ccccc3C=Cc3ccccc32)CC1

>  <logBB>


>  <Class>
1

>  <MW>
377.25

>  <nHBAcc>
4

>  <nHBDon>
1

>  <SLogP>
3.7

>  <TopoPSA>
29.95

>  <MMFF94 Energy>
144.25

$$$$
ON1C=C(NCC2CC2)N=c2ccc(Cl)cc2=C1c1ccccc1
Actelion Java MolfileCreator 2.0

  0  0  0  0  0  0              0 V3000
M  V30 BEGIN CTAB
M  V30 COUNTS 42 45 0 0 0
M  V30 BEGIN ATOM
M  V30 1 Cl 1.208 -5.4045 -2.014 0
M  V30 2 C 0.5193 -4.0262 -1.2402 0
M  V30 3 C 0.914 -2.7891 -1.5628 0
M  V30 4 C -0.4927 -4.2444 -0.2504 0
M  V30 5 C 0.3545 -1.5758 -0.9352 0
M  V30 6 C -1.0258 -3.2257 0.4301 0
M  V30 7 C 0.6635 -0.3281 -1.3744 0
M  V30 8 C -0.6181 -1.7928 0.2139 0
M  V30 9 N 0.2604 0.9027 -0.858 0
M  V30 10 C 1.5505 -0.2094 -2.5729 0
M  V30 11 N -1.1895 -1.0114 1.0692 0
M  V30 12 O 0.6825 2.0737 -1.5119 0
M  V30 13 C -0.4266 1.1283 0.3085 0
M  V30 14 C 1.0139 -0.3201 -3.8656 0
M  V30 15 C 2.925 0.0194 -2.4159 0
M  V30 16 C -1.0519 0.3348 1.192 0
M  V30 17 C 1.8446 -0.2139 -4.9819 0
M  V30 18 C 3.7515 0.1261 -3.5352 0
M  V30 19 N -1.6538 0.8636 2.3171 0
M  V30 20 C 3.2115 0.0075 -4.8157 0
M  V30 21 C -1.67 2.2139 2.8151 0
M  V30 22 C -2.5144 2.2666 4.0525 0
M  V30 23 C -1.9783 1.7666 5.3709 0
M  V30 24 C -2.1967 3.2396 5.1599 0
M  V30 25 H 1.6867 -2.685 -2.3183 0
M  V30 26 H -0.8168 -5.2606 -0.0495 0
M  V30 27 H -1.7789 -3.3962 1.1927 0
M  V30 28 H 0.1394 2.0703 -2.3204 0
M  V30 29 H -0.4236 2.1947 0.512 0
M  V30 30 H -0.0504 -0.4949 -4.0051 0
M  V30 31 H 3.3502 0.1246 -1.4201 0
M  V30 32 H 1.4268 -0.3042 -5.9814 0
M  V30 33 H 4.8158 0.3064 -3.4076 0
M  V30 34 H -2.0661 0.1392 2.8944 0
M  V30 35 H 3.8577 0.0918 -5.686 0
M  V30 36 H -2.1002 2.8922 2.0699 0
M  V30 37 H -0.6473 2.5467 3.027 0
M  V30 38 H -3.5606 2.0851 3.8312 0
M  V30 39 H -0.9576 1.4019 5.4073 0
M  V30 40 H -2.6609 1.2383 6.0266 0
M  V30 41 H -1.3208 3.8716 5.0668 0
M  V30 42 H -3.027 3.7081 5.6764 0
M  V30 END ATOM
M  V30 BEGIN BOND
M  V30 1 1 1 2
M  V30 2 2 2 3
M  V30 3 1 2 4
M  V30 4 1 3 5
M  V30 5 2 4 6
M  V30 6 2 5 7
M  V30 7 1 5 8
M  V30 8 1 7 9
M  V30 9 1 7 10
M  V30 10 2 8 11
M  V30 11 1 9 12
M  V30 12 1 9 13
M  V30 13 2 10 14
M  V30 14 1 10 15
M  V30 15 1 11 16
M  V30 16 1 14 17
M  V30 17 2 15 18
M  V30 18 1 16 19
M  V30 19 2 17 20
M  V30 20 1 19 21
M  V30 21 1 21 22
M  V30 22 1 22 23
M  V30 23 1 22 24
M  V30 24 1 6 8
M  V30 25 2 13 16
M  V30 26 1 18 20
M  V30 27 1 23 24
M  V30 28 1 3 25
M  V30 29 1 4 26
M  V30 30 1 6 27
M  V30 31 1 12 28
M  V30 32 1 13 29
M  V30 33 1 14 30
M  V30 34 1 15 31
M  V30 35 1 17 32
M  V30 36 1 18 33
M  V30 37 1 19 34
M  V30 38 1 20 35
M  V30 39 1 21 36
M  V30 40 1 21 37
M  V30 41 1 22 38
M  V30 42 1 23 39
M  V30 43 1 23 40
M  V30 44 1 24 41
M  V30 45 1 24 42
M  V30 END BOND
M  V30 END CTAB
M  END
>  <NO.>
3801

>  <Name>


>  <SMILES>
ON1C=C(NCC2CC2)N=c2ccc(Cl)cc2=C1c1ccccc1

>  <logBB>


>  <Class>
1

>  <MW>
339.11

>  <nHBAcc>
4

>  <nHBDon>
2

>  <SLogP>
2.62

>  <TopoPSA>
47.86

>  <MMFF94 Energy>
58.092

$$$$
c1cnc2c(c1)C(Cc1ccncc1)(Cc1ccncc1)c1cccnc1-2
Actelion Java MolfileCreator 2.0

  0  0  0  0  0  0              0 V3000
M  V30 BEGIN CTAB
M  V30 COUNTS 45 49 0 0 0
M  V30 BEGIN ATOM
M  V30 1 N 0.6464 0.4848 -2.9116 0
M  V30 2 C 0.5003 0.3014 -1.5884 0
M  V30 3 C -0.4883 0.3613 -3.6357 0
M  V30 4 C 1.5489 0.3767 -0.5892 0
M  V30 5 C -0.7172 0.0022 -0.9573 0
M  V30 6 C -1.7428 0.0663 -3.0966 0
M  V30 7 N 2.8464 0.6428 -0.8153 0
M  V30 8 C 0.9981 0.1255 0.6771 0
M  V30 9 C -1.8653 -0.119 -1.7207 0
M  V30 10 C -0.5041 -0.1367 0.5515 0
M  V30 11 C 3.6289 0.6567 0.287 0
M  V30 12 C 1.82 0.1454 1.7905 0
M  V30 13 C -1.344 0.9071 1.3544 0
M  V30 14 C -0.8886 -1.5616 1.0626 0
M  V30 15 C 3.1712 0.4188 1.5852 0
M  V30 16 C -1.1446 2.3733 1.0301 0
M  V30 17 C -0.1951 -2.7497 0.4287 0
M  V30 18 C -0.1843 3.1358 1.7013 0
M  V30 19 C -1.9235 3.0087 0.0586 0
M  V30 20 C -0.7307 -3.3799 -0.6981 0
M  V30 21 C 0.994 -3.2572 0.9597 0
M  V30 22 C -0.0422 4.476 1.3723 0
M  V30 23 C -1.7069 4.3544 -0.1999 0
M  V30 24 C -0.0612 -4.4673 -1.24 0
M  V30 25 C 1.5896 -4.35 0.3469 0
M  V30 26 N -0.7877 5.1048 0.4408 0
M  V30 27 N 1.0842 -4.9714 -0.7378 0
M  V30 28 H -0.365 0.5107 -4.7053 0
M  V30 29 H -2.6062 -0.0155 -3.749 0
M  V30 30 H -2.8271 -0.3489 -1.2761 0
M  V30 31 H 4.6775 0.8722 0.099 0
M  V30 32 H 1.4382 -0.0428 2.7877 0
M  V30 33 H -2.4136 0.6832 1.2315 0
M  V30 34 H -1.1531 0.7765 2.4294 0
M  V30 35 H -1.972 -1.7088 0.9452 0
M  V30 36 H -0.7152 -1.6165 2.147 0
M  V30 37 H 3.8666 0.4485 2.4178 0
M  V30 38 H 0.4498 2.7074 2.469 0
M  V30 39 H -2.6889 2.4779 -0.4958 0
M  V30 40 H -1.6522 -3.0408 -1.1576 0
M  V30 41 H 1.4609 -2.8193 1.8347 0
M  V30 42 H 0.6982 5.0974 1.8676 0
M  V30 43 H -2.2879 4.8792 -0.9527 0
M  V30 44 H -0.4438 -4.9772 -2.1194 0
M  V30 45 H 2.5177 -4.7666 0.7273 0
M  V30 END ATOM
M  V30 BEGIN BOND
M  V30 1 2 1 2
M  V30 2 1 1 3
M  V30 3 1 2 4
M  V30 4 1 2 5
M  V30 5 2 3 6
M  V30 6 2 4 7
M  V30 7 1 4 8
M  V30 8 2 5 9
M  V30 9 1 5 10
M  V30 10 1 7 11
M  V30 11 2 8 12
M  V30 12 1 10 13
M  V30 13 1 10 14
M  V30 14 2 11 15
M  V30 15 1 13 16
M  V30 16 1 14 17
M  V30 17 2 16 18
M  V30 18 1 16 19
M  V30 19 2 17 20
M  V30 20 1 17 21
M  V30 21 1 18 22
M  V30 22 2 19 23
M  V30 23 1 20 24
M  V30 24 2 21 25
M  V30 25 2 22 26
M  V30 26 2 24 27
M  V30 27 1 6 9
M  V30 28 1 8 10
M  V30 29 1 12 15
M  V30 30 1 23 26
M  V30 31 1 25 27
M  V30 32 1 3 28
M  V30 33 1 6 29
M  V30 34 1 9 30
M  V30 35 1 11 31
M  V30 36 1 12 32
M  V30 37 1 13 33
M  V30 38 1 13 34
M  V30 39 1 14 35
M  V30 40 1 14 36
M  V30 41 1 15 37
M  V30 42 1 18 38
M  V30 43 1 19 39
M  V30 44 1 20 40
M  V30 45 1 21 41
M  V30 46 1 22 42
M  V30 47 1 23 43
M  V30 48 1 24 44
M  V30 49 1 25 45
M  V30 END BOND
M  V30 END CTAB
M  END
>  <NO.>
3821

>  <Name>
sibopirdine

>  <SMILES>
c1cnc2c(c1)C(Cc1ccncc1)(Cc1ccncc1)c1cccnc1-2

>  <logBB>


>  <Class>
1

>  <MW>
350.15

>  <nHBAcc>
4

>  <nHBDon>
0

>  <SLogP>
4.02

>  <TopoPSA>
51.56

>  <MMFF94 Energy>
138.9

$$$$
CC(=O)c1c(C)nn(CCC(=O)N2CCC[C@H]2c2n[nH]c(C)n2)c1C
Actelion Java MolfileCreator 2.0

  0  0  0  0  0  0              0 V3000
M  V30 BEGIN CTAB
M  V30 COUNTS 49 51 0 0 0
M  V30 BEGIN ATOM
M  V30 1 O -0.0791 1.108 -3.2476 0
M  V30 2 C -0.402 1.2665 -2.0693 0
M  V30 3 N -1.3331 2.2089 -1.6992 0
M  V30 4 C 0.2308 0.4485 -0.9648 0
M  V30 5 C -1.7627 2.5671 -0.3407 0 CFG=2
M  V30 6 C -1.9871 3.0384 -2.6959 0
M  V30 7 C 1.2492 -0.5286 -1.5325 0
M  V30 8 C -2.6597 1.5097 0.2419 0
M  V30 9 C -2.4798 3.9078 -0.5286 0
M  V30 10 C -3.0541 3.8137 -1.9388 0
M  V30 11 N 1.9288 -1.2603 -0.4763 0
M  V30 12 N -2.457 0.9888 1.4613 0
M  V30 13 N -3.733 0.9746 -0.4306 0
M  V30 14 N 1.3682 -2.3912 -0.0199 0
M  V30 15 C 3.1034 -0.9458 0.1553 0
M  V30 16 N -3.4321 0.0683 1.5294 0
M  V30 17 C -4.1971 0.0669 0.399 0
M  V30 18 C 2.2311 -2.8535 0.8903 0
M  V30 19 C 3.3539 -1.987 1.0471 0
M  V30 20 C 3.8929 0.2828 -0.1365 0
M  V30 21 C -5.3426 -0.8443 0.2033 0
M  V30 22 C 1.9132 -4.1387 1.5638 0
M  V30 23 C 4.5334 -2.0903 1.9117 0
M  V30 24 O 5.4579 -1.2777 1.8408 0
M  V30 25 C 4.6302 -3.2135 2.9107 0
M  V30 26 H -0.5489 -0.1085 -0.4371 0
M  V30 27 H 0.7129 1.1264 -0.2521 0
M  V30 28 H -0.8794 2.6912 0.2954 0
M  V30 29 H -1.2328 3.7107 -3.1201 0
M  V30 30 H -2.4007 2.4244 -3.5018 0
M  V30 31 H 2.0102 -0.0254 -2.1385 0
M  V30 32 H 0.7652 -1.2671 -2.1837 0
M  V30 33 H -3.2469 4.1113 0.225 0
M  V30 34 H -1.7471 4.7241 -0.4973 0
M  V30 35 H -3.2531 4.7934 -2.3823 0
M  V30 36 H -3.9952 3.2522 -1.9274 0
M  V30 37 H -3.5131 -0.5122 2.3565 0
M  V30 38 H 4.7478 0.0389 -0.7746 0
M  V30 39 H 4.2662 0.7328 0.7887 0
M  V30 40 H 3.3006 1.053 -0.638 0
M  V30 41 H -6.0963 -0.6904 0.9817 0
M  V30 42 H -5.815 -0.6662 -0.7675 0
M  V30 43 H -5.0156 -1.888 0.2364 0
M  V30 44 H 1.7979 -3.9928 2.6417 0
M  V30 45 H 2.7014 -4.8751 1.3834 0
M  V30 46 H 0.9759 -4.566 1.1901 0
M  V30 47 H 3.7799 -3.1856 3.5957 0
M  V30 48 H 4.6885 -4.1741 2.3946 0
M  V30 49 H 5.5419 -3.0928 3.5045 0
M  V30 END ATOM
M  V30 BEGIN BOND
M  V30 1 2 1 2
M  V30 2 1 2 3
M  V30 3 1 2 4
M  V30 4 1 3 5
M  V30 5 1 3 6
M  V30 6 1 4 7
M  V30 7 1 5 8
M  V30 8 1 5 9
M  V30 9 1 6 10
M  V30 10 1 7 11
M  V30 11 2 8 12
M  V30 12 1 8 13
M  V30 13 1 11 14
M  V30 14 1 11 15
M  V30 15 1 12 16
M  V30 16 2 13 17
M  V30 17 2 14 18
M  V30 18 2 15 19
M  V30 19 1 15 20
M  V30 20 1 17 21
M  V30 21 1 18 22
M  V30 22 1 19 23
M  V30 23 2 23 24
M  V30 24 1 23 25
M  V30 25 1 9 10
M  V30 26 1 16 17
M  V30 27 1 18 19
M  V30 28 1 4 26
M  V30 29 1 4 27
M  V30 30 1 5 28
M  V30 31 1 6 29
M  V30 32 1 6 30
M  V30 33 1 7 31
M  V30 34 1 7 32
M  V30 35 1 9 33
M  V30 36 1 9 34
M  V30 37 1 10 35
M  V30 38 1 10 36
M  V30 39 1 16 37
M  V30 40 1 20 38
M  V30 41 1 20 39
M  V30 42 1 20 40
M  V30 43 1 21 41
M  V30 44 1 21 42
M  V30 45 1 21 43
M  V30 46 1 22 44
M  V30 47 1 22 45
M  V30 48 1 22 46
M  V30 49 1 25 47
M  V30 50 1 25 48
M  V30 51 1 25 49
M  V30 END BOND
M  V30 BEGIN COLLECTION
M  V30 MDLV30/STEABS ATOMS=(1 5)
M  V30 END COLLECTION
M  V30 END CTAB
M  END
>  <NO.>
3823

>  <Name>
dihydroergotamine

>  <SMILES>
CC(=O)c1c(C)nn(CCC(=O)N2CCC[C@H]2c2n[nH]c(C)n2)c1C

>  <logBB>


>  <Class>
-1

>  <MW>
344.2

>  <nHBAcc>
5

>  <nHBDon>
1

>  <SLogP>
1.88

>  <TopoPSA>
96.77

>  <MMFF94 Energy>
26.771

$$$$
CC(=O)c1c2c(c3oc(=O)cc(C)c3c1O)[C@@H](c1cc(F)c(F)c(F)c1)CC(=O)O2
Actelion Java MolfileCreator 2.0

  0  0  0  0  0  0              0 V3000
M  V30 BEGIN CTAB
M  V30 COUNTS 43 46 0 0 0
M  V30 BEGIN ATOM
M  V30 1 F 1.3144 -3.1238 5.1006 0
M  V30 2 C 1.1185 -2.1067 4.25 0
M  V30 3 C 1.8502 -2.0251 3.0757 0
M  V30 4 C 0.1815 -1.1261 4.5335 0
M  V30 5 F 2.7572 -2.9665 2.7806 0
M  V30 6 C 1.6562 -0.9695 2.1815 0
M  V30 7 F -0.5359 -1.186 5.6636 0
M  V30 8 C -0.0282 -0.0648 3.6513 0
M  V30 9 C 0.7093 0.0327 2.4562 0
M  V30 10 C 0.4519 1.2058 1.516 0 CFG=2
M  V30 11 C 0.0668 0.7835 0.118 0
M  V30 12 C 1.6028 2.2055 1.4719 0
M  V30 13 C -1.2419 0.3833 -0.2054 0
M  V30 14 C 1.0256 0.7726 -0.8934 0
M  V30 15 C 2.7306 1.7438 0.601 0
M  V30 16 O -2.1704 0.4002 0.8615 0
M  V30 17 C -1.6332 -2.0E-4 -1.498 0
M  V30 18 O 2.3506 1.1559 -0.5986 0
M  V30 19 C 0.7034 0.3734 -2.1969 0
M  V30 20 O 3.91 1.9305 0.8741 0
M  V30 21 C -3.495 0.0472 0.6975 0
M  V30 22 C -0.6347 0.0204 -2.4947 0
M  V30 23 C -3.05 -0.3873 -1.6987 0
M  V30 24 C 1.7179 0.3138 -3.2888 0
M  V30 25 O -4.2986 0.0705 1.6207 0
M  V30 26 C -3.8916 -0.3552 -0.6534 0
M  V30 27 O -0.9818 -0.3226 -3.781 0
M  V30 28 C -3.5648 -0.8201 -3.0427 0
M  V30 29 O 1.3364 0.5158 -4.4434 0
M  V30 30 C 3.1506 -0.0343 -2.9864 0
M  V30 31 H 2.2571 -0.9654 1.2768 0
M  V30 32 H -0.7815 0.6761 3.9123 0
M  V30 33 H -0.3939 1.7771 1.9253 0
M  V30 34 H 1.9893 2.3943 2.4805 0
M  V30 35 H 1.2631 3.1659 1.0631 0
M  V30 36 H -4.9366 -0.6306 -0.7488 0
M  V30 37 H -0.265 -0.0456 -4.3972 0
M  V30 38 H -3.0383 -1.7124 -3.3966 0
M  V30 39 H -4.6292 -1.0813 -3.0062 0
M  V30 40 H -3.4678 -0.0149 -3.7783 0
M  V30 41 H 3.2202 -0.7142 -2.1332 0
M  V30 42 H 3.5742 -0.5591 -3.8487 0
M  V30 43 H 3.7269 0.8761 -2.8068 0
M  V30 END ATOM
M  V30 BEGIN BOND
M  V30 1 1 1 2
M  V30 2 2 2 3
M  V30 3 1 2 4
M  V30 4 1 3 5
M  V30 5 1 3 6
M  V30 6 1 4 7
M  V30 7 2 4 8
M  V30 8 2 6 9
M  V30 9 1 9 10
M  V30 10 1 10 11
M  V30 11 1 10 12
M  V30 12 2 11 13
M  V30 13 1 11 14
M  V30 14 1 12 15
M  V30 15 1 13 16
M  V30 16 1 13 17
M  V30 17 1 14 18
M  V30 18 2 14 19
M  V30 19 2 15 20
M  V30 20 1 16 21
M  V30 21 2 17 22
M  V30 22 1 17 23
M  V30 23 1 19 24
M  V30 24 2 21 25
M  V30 25 1 21 26
M  V30 26 1 22 27
M  V30 27 1 23 28
M  V30 28 2 24 29
M  V30 29 1 24 30
M  V30 30 1 8 9
M  V30 31 1 15 18
M  V30 32 1 19 22
M  V30 33 2 23 26
M  V30 34 1 6 31
M  V30 35 1 8 32
M  V30 36 1 10 33
M  V30 37 1 12 34
M  V30 38 1 12 35
M  V30 39 1 26 36
M  V30 40 1 27 37
M  V30 41 1 28 38
M  V30 42 1 28 39
M  V30 43 1 28 40
M  V30 44 1 30 41
M  V30 45 1 30 42
M  V30 46 1 30 43
M  V30 END BOND
M  V30 BEGIN COLLECTION
M  V30 MDLV30/STEABS ATOMS=(1 10)
M  V30 END COLLECTION
M  V30 END CTAB
M  END
>  <NO.>
3824

>  <Name>
ciprofloxacin

>  <SMILES>
CC(=O)c1c2c(c3oc(=O)cc(C)c3c1O)[C@@H](c1cc(F)c(F)c(F)c1)CC(=O)O2

>  <logBB>


>  <Class>
-1

>  <MW>
418.07

>  <nHBAcc>
6

>  <nHBDon>
1

>  <SLogP>
3.87

>  <TopoPSA>
93.81

>  <MMFF94 Energy>
87.118

$$$$
CC(=O)c1ccc2c(c1O)[C@@H](c1ccc(F)c(Cl)c1)CC(=O)O2
Actelion Java MolfileCreator 2.0

  0  0  0  0  0  0              0 V3000
M  V30 BEGIN CTAB
M  V30 COUNTS 35 37 0 0 0
M  V30 BEGIN ATOM
M  V30 1 Cl -0.902 -4.7632 0.4099 0
M  V30 2 C -1.7432 -3.2712 0.2303 0
M  V30 3 C -2.9972 -3.232 -0.3704 0
M  V30 4 C -1.1521 -2.0912 0.6922 0
M  V30 5 F -3.5798 -4.3533 -0.8199 0
M  V30 6 C -3.6691 -2.0246 -0.5179 0
M  V30 7 C -1.8133 -0.8572 0.5519 0
M  V30 8 C -3.0807 -0.8437 -0.0597 0
M  V30 9 C -1.2126 0.4584 1.0407 0 CFG=2
M  V30 10 C 0.1882 0.7145 0.5468 0
M  V30 11 C -1.2615 0.5989 2.5593 0
M  V30 12 C 0.4576 1.2126 -0.7364 0
M  V30 13 C 1.2654 0.4347 1.3841 0
M  V30 14 C -0.1801 -0.1799 3.2504 0
M  V30 15 O -0.6259 1.4895 -1.5324 0
M  V30 16 C 1.7821 1.4211 -1.1733 0
M  V30 17 O 1.0777 -0.1091 2.6677 0
M  V30 18 C 2.5823 0.6299 0.9763 0
M  V30 19 O -0.3613 -0.7718 4.3093 0
M  V30 20 C 2.0396 1.9494 -2.547 0
M  V30 21 C 2.8413 1.1253 -0.3027 0
M  V30 22 O 1.0802 2.2174 -3.2716 0
M  V30 23 C 3.4562 2.1443 -3.018 0
M  V30 24 H -0.169 -2.1499 1.1517 0
M  V30 25 H -4.6451 -2.0087 -0.9933 0
M  V30 26 H -3.6178 0.0941 -0.1945 0
M  V30 27 H -1.8434 1.2738 0.6584 0
M  V30 28 H -1.1298 1.6482 2.8535 0
M  V30 29 H -2.2335 0.2697 2.9457 0
M  V30 30 H -0.2971 1.8178 -2.4014 0
M  V30 31 H 3.4034 0.3905 1.6481 0
M  V30 32 H 3.8783 1.2665 -0.5936 0
M  V30 33 H 3.9635 2.886 -2.396 0
M  V30 34 H 3.9932 1.1925 -3.0101 0
M  V30 35 H 3.4436 2.5162 -4.0473 0
M  V30 END ATOM
M  V30 BEGIN BOND
M  V30 1 1 1 2
M  V30 2 2 2 3
M  V30 3 1 2 4
M  V30 4 1 3 5
M  V30 5 1 3 6
M  V30 6 2 4 7
M  V30 7 2 6 8
M  V30 8 1 7 9
M  V30 9 1 9 10
M  V30 10 1 9 11
M  V30 11 2 10 12
M  V30 12 1 10 13
M  V30 13 1 11 14
M  V30 14 1 12 15
M  V30 15 1 12 16
M  V30 16 1 13 17
M  V30 17 2 13 18
M  V30 18 2 14 19
M  V30 19 1 16 20
M  V30 20 2 16 21
M  V30 21 2 20 22
M  V30 22 1 20 23
M  V30 23 1 7 8
M  V30 24 1 14 17
M  V30 25 1 18 21
M  V30 26 1 4 24
M  V30 27 1 6 25
M  V30 28 1 8 26
M  V30 29 1 9 27
M  V30 30 1 11 28
M  V30 31 1 11 29
M  V30 32 1 15 30
M  V30 33 1 18 31
M  V30 34 1 21 32
M  V30 35 1 23 33
M  V30 36 1 23 34
M  V30 37 1 23 35
M  V30 END BOND
M  V30 BEGIN COLLECTION
M  V30 MDLV30/STEABS ATOMS=(1 9)
M  V30 END COLLECTION
M  V30 END CTAB
M  END
>  <NO.>
3825

>  <Name>
tolbutamide

>  <SMILES>
CC(=O)c1ccc2c(c1O)[C@@H](c1ccc(F)c(Cl)c1)CC(=O)O2

>  <logBB>


>  <Class>
-1

>  <MW>
334.04

>  <nHBAcc>
4

>  <nHBDon>
1

>  <SLogP>
3.83

>  <TopoPSA>
63.6

>  <MMFF94 Energy>
59.32

$$$$
CC(=O)c1ccc2c(c1O)[C@@H](c1cnn(C)c1)CC(=O)O2
Actelion Java MolfileCreator 2.0

  0  0  0  0  0  0              0 V3000
M  V30 BEGIN CTAB
M  V30 COUNTS 35 37 0 0 0
M  V30 BEGIN ATOM
M  V30 1 O 0.9633 2.8116 -3.5356 0
M  V30 2 C 0.6852 2.3953 -2.4153 0
M  V30 3 O -0.6336 2.2115 -2.0245 0
M  V30 4 C 1.7274 2.1549 -1.361 0
M  V30 5 C -0.9684 1.6538 -0.7774 0
M  V30 6 C 1.4095 0.9722 -0.4633 0 CFG=1
M  V30 7 C -0.0107 1.0354 0.0232 0
M  V30 8 C -2.3079 1.7235 -0.4031 0
M  V30 9 C 1.5769 -0.3734 -1.109 0
M  V30 10 C -0.4242 0.4995 1.253 0
M  V30 11 C -2.7123 1.1724 0.8135 0
M  V30 12 C 1.0117 -0.8938 -2.3018 0
M  V30 13 C 2.3569 -1.4175 -0.6451 0
M  V30 14 O 0.5465 -0.0656 2.0427 0
M  V30 15 C -1.7751 0.5562 1.6554 0
M  V30 16 N 1.3997 -2.1446 -2.5581 0
M  V30 17 N 2.2106 -2.4424 -1.5303 0
M  V30 18 C -2.1896 -0.0347 2.964 0
M  V30 19 C 2.8201 -3.7473 -1.4597 0
M  V30 20 O -1.3311 -0.5357 3.6916 0
M  V30 21 C -3.6396 -0.007 3.3689 0
M  V30 22 H 2.6937 2.0035 -1.8565 0
M  V30 23 H 1.7963 3.0769 -0.77 0
M  V30 24 H 2.0932 1.0396 0.3936 0
M  V30 25 H -3.0337 2.2001 -1.0577 0
M  V30 26 H -3.7637 1.2398 1.0782 0
M  V30 27 H 0.3308 -0.4191 -2.997 0
M  V30 28 H 2.9758 -1.5092 0.2369 0
M  V30 29 H 0.1184 -0.4135 2.8588 0
M  V30 30 H 3.4427 -3.8104 -0.5639 0
M  V30 31 H 3.4347 -3.8896 -2.352 0
M  V30 32 H 2.0261 -4.4968 -1.4155 0
M  V30 33 H -4.2488 -0.5433 2.637 0
M  V30 34 H -3.7518 -0.5106 4.3343 0
M  V30 35 H -3.9813 1.0248 3.483 0
M  V30 END ATOM
M  V30 BEGIN BOND
M  V30 1 2 1 2
M  V30 2 1 2 3
M  V30 3 1 2 4
M  V30 4 1 3 5
M  V30 5 1 4 6
M  V30 6 2 5 7
M  V30 7 1 5 8
M  V30 8 1 6 9
M  V30 9 1 7 10
M  V30 10 2 8 11
M  V30 11 1 9 12
M  V30 12 2 9 13
M  V30 13 1 10 14
M  V30 14 2 10 15
M  V30 15 2 12 16
M  V30 16 1 13 17
M  V30 17 1 15 18
M  V30 18 1 17 19
M  V30 19 2 18 20
M  V30 20 1 18 21
M  V30 21 1 6 7
M  V30 22 1 11 15
M  V30 23 1 16 17
M  V30 24 1 4 22
M  V30 25 1 4 23
M  V30 26 1 6 24
M  V30 27 1 8 25
M  V30 28 1 11 26
M  V30 29 1 12 27
M  V30 30 1 13 28
M  V30 31 1 14 29
M  V30 32 1 19 30
M  V30 33 1 19 31
M  V30 34 1 19 32
M  V30 35 1 21 33
M  V30 36 1 21 34
M  V30 37 1 21 35
M  V30 END BOND
M  V30 BEGIN COLLECTION
M  V30 MDLV30/STEABS ATOMS=(1 6)
M  V30 END COLLECTION
M  V30 END CTAB
M  END
>  <NO.>
3826

>  <Name>
tranylcypromine

>  <SMILES>
CC(=O)c1ccc2c(c1O)[C@@H](c1cnn(C)c1)CC(=O)O2

>  <logBB>


>  <Class>
1

>  <MW>
286.1

>  <nHBAcc>
5

>  <nHBDon>
1

>  <SLogP>
1.77

>  <TopoPSA>
81.42

>  <MMFF94 Energy>
38.643

$$$$
CC(C)(C)OC(=O)N[C@@]1(CN)[C@H](c2ccccc2)[C@@H]1S(=O)(=O)c1ccc(Cl)cc1
Actelion Java MolfileCreator 2.0

  0  0  0  0  0  0              0 V3000
M  V30 BEGIN CTAB
M  V30 COUNTS 54 56 0 0 0
M  V30 BEGIN ATOM
M  V30 1 Cl 7.5505 2.1876 0.4858 0
M  V30 2 C 5.9281 2.1087 -0.0809 0
M  V30 3 C 5.0102 3.0838 0.3124 0
M  V30 4 C 5.5429 1.0745 -0.9343 0
M  V30 5 C 3.6919 3.0213 -0.1437 0
M  V30 6 C 4.2264 1.0076 -1.3952 0
M  V30 7 C 3.3022 1.9715 -0.9834 0
M  V30 8 S 1.6258 1.9181 -1.5825 0
M  V30 9 O 1.3053 3.2839 -1.9598 0
M  V30 10 O 1.5347 0.8508 -2.5545 0
M  V30 11 C 0.6402 1.5911 -0.1161 0 CFG=2
M  V30 12 C 0.3557 0.1738 0.3528 0 CFG=2
M  V30 13 C -0.7504 1.0426 -0.2728 0 CFG=2
M  V30 14 N 0.331 -0.0115 1.802 0
M  V30 15 C 0.9172 -1.0434 -0.3663 0
M  V30 16 C -1.4508 0.7344 -1.5761 0
M  V30 17 C -0.6184 -0.6844 2.5223 0
M  V30 18 N 2.3003 -1.2323 0.0751 0
M  V30 19 C -1.6233 1.7199 -2.5639 0
M  V30 20 C -1.9188 -0.5549 -1.8823 0
M  V30 21 O -0.5127 -0.8183 3.7332 0
M  V30 22 O -1.6274 -1.1546 1.7515 0
M  V30 23 C -2.2336 1.4361 -3.7892 0
M  V30 24 C -2.5329 -0.8469 -3.1037 0
M  V30 25 C -2.7415 -1.8675 2.3478 0
M  V30 26 C -2.6883 0.1506 -4.0591 0
M  V30 27 C -2.2788 -3.1706 3.0087 0
M  V30 28 C -3.663 -2.218 1.1698 0
M  V30 29 C -3.5166 -0.9729 3.3217 0
M  V30 30 H 5.3189 3.8973 0.9642 0
M  V30 31 H 6.261 0.3206 -1.246 0
M  V30 32 H 2.9865 3.7977 0.1437 0
M  V30 33 H 3.9302 0.2021 -2.0637 0
M  V30 34 H 0.7569 2.3519 0.6458 0
M  V30 35 H -1.4596 1.4537 0.4495 0
M  V30 36 H 1.1186 0.3149 2.3474 0
M  V30 37 H 0.8725 -0.9909 -1.4517 0
M  V30 38 H 0.3392 -1.9327 -0.0882 0
M  V30 39 H 2.6967 -2.01 -0.4538 0
M  V30 40 H 2.2856 -1.5491 1.0448 0
M  V30 41 H -1.2818 2.7377 -2.3829 0
M  V30 42 H -1.8204 -1.3525 -1.1508 0
M  V30 43 H -2.3447 2.2219 -4.5318 0
M  V30 44 H -2.8856 -1.8542 -3.307 0
M  V30 45 H -3.1588 -0.0725 -5.0124 0
M  V30 46 H -1.6778 -2.9851 3.9039 0
M  V30 47 H -3.1311 -3.7889 3.3101 0
M  V30 48 H -1.6512 -3.7516 2.3237 0
M  V30 49 H -3.1374 -2.8391 0.4355 0
M  V30 50 H -4.5573 -2.7574 1.4991 0
M  V30 51 H -3.9808 -1.3122 0.6406 0
M  V30 52 H -2.9357 -0.7462 4.2206 0
M  V30 53 H -3.7614 -0.012 2.8554 0
M  V30 54 H -4.4477 -1.4499 3.6463 0
M  V30 END ATOM
M  V30 BEGIN BOND
M  V30 1 1 1 2
M  V30 2 2 2 3
M  V30 3 1 2 4
M  V30 4 1 3 5
M  V30 5 2 4 6
M  V30 6 2 5 7
M  V30 7 1 7 8
M  V30 8 2 8 9
M  V30 9 2 8 10
M  V30 10 1 8 11
M  V30 11 1 11 12
M  V30 12 1 11 13
M  V30 13 1 12 14
M  V30 14 1 12 15
M  V30 15 1 13 16
M  V30 16 1 14 17
M  V30 17 1 15 18
M  V30 18 2 16 19
M  V30 19 1 16 20
M  V30 20 2 17 21
M  V30 21 1 17 22
M  V30 22 1 19 23
M  V30 23 2 20 24
M  V30 24 1 22 25
M  V30 25 2 23 26
M  V30 26 1 25 27
M  V30 27 1 25 28
M  V30 28 1 25 29
M  V30 29 1 6 7
M  V30 30 1 12 13
M  V30 31 1 24 26
M  V30 32 1 3 30
M  V30 33 1 4 31
M  V30 34 1 5 32
M  V30 35 1 6 33
M  V30 36 1 11 34
M  V30 37 1 13 35
M  V30 38 1 14 36
M  V30 39 1 15 37
M  V30 40 1 15 38
M  V30 41 1 18 39
M  V30 42 1 18 40
M  V30 43 1 19 41
M  V30 44 1 20 42
M  V30 45 1 23 43
M  V30 46 1 24 44
M  V30 47 1 26 45
M  V30 48 1 27 46
M  V30 49 1 27 47
M  V30 50 1 27 48
M  V30 51 1 28 49
M  V30 52 1 28 50
M  V30 53 1 28 51
M  V30 54 1 29 52
M  V30 55 1 29 53
M  V30 56 1 29 54
M  V30 END BOND
M  V30 BEGIN COLLECTION
M  V30 MDLV30/STEABS ATOMS=(3 11 12 13)
M  V30 END COLLECTION
M  V30 END CTAB
M  END
>  <NO.>
3828

>  <Name>
busulfan

>  <SMILES>
CC(C)(C)OC(=O)N[C@@]1(CN)[C@H](c2ccccc2)[C@@H]1S(=O)(=O)c1ccc(Cl)cc1

>  <logBB>


>  <Class>
1

>  <MW>
436.12

>  <nHBAcc>
5

>  <nHBDon>
2

>  <SLogP>
3.5

>  <TopoPSA>
98.49

>  <MMFF94 Energy>
29.414

$$$$
CC(C)(C)OC(=O)N[C@]1(C=O)C[C@H]1S(=O)(=O)c1ccc(Cl)cc1
Actelion Java MolfileCreator 2.0

  0  0  0  0  0  0              0 V3000
M  V30 BEGIN CTAB
M  V30 COUNTS 41 42 0 0 0
M  V30 BEGIN ATOM
M  V30 1 Cl 2.534 -4.1714 4.8269 0
M  V30 2 C 1.7029 -2.7611 4.2979 0
M  V30 3 C 0.9091 -2.8151 3.1512 0
M  V30 4 C 1.8274 -1.573 5.0208 0
M  V30 5 C 0.2347 -1.6716 2.7191 0
M  V30 6 C 1.1564 -0.4245 4.5946 0
M  V30 7 C 0.3694 -0.4802 3.4412 0
M  V30 8 S -0.4944 0.9627 2.8797 0
M  V30 9 O -1.8488 0.5587 2.5671 0
M  V30 10 O -0.2302 2.0449 3.807 0
M  V30 11 C 0.3268 1.3867 1.3343 0 CFG=1
M  V30 12 C -0.5205 2.1849 0.3473 0 CFG=1
M  V30 13 C 0.6444 2.825 1.1024 0
M  V30 14 N -0.3513 1.9096 -1.0664 0
M  V30 15 C -1.871 2.7779 0.6909 0
M  V30 16 C -0.3746 0.6512 -1.5958 0
M  V30 17 O -2.6406 3.1269 -0.1996 0
M  V30 18 O -0.3675 -0.3793 -0.9386 0
M  V30 19 O -0.3929 0.7419 -2.9444 0
M  V30 20 C -0.4434 -0.4514 -3.7681 0
M  V30 21 C 0.8099 -1.3124 -3.5769 0
M  V30 22 C -0.464 0.0718 -5.2123 0
M  V30 23 C -1.729 -1.2473 -3.5171 0
M  V30 24 H 0.8082 -3.7435 2.5942 0
M  V30 25 H 2.4412 -1.5377 5.9177 0
M  V30 26 H -0.3918 -1.7194 1.829 0
M  V30 27 H 1.2506 0.496 5.1669 0
M  V30 28 H 1.0273 0.6583 0.9503 0
M  V30 29 H 0.4273 3.554 1.8762 0
M  V30 30 H 1.5441 3.0599 0.5438 0
M  V30 31 H -0.4851 2.6654 -1.7276 0
M  V30 32 H -2.1188 2.937 1.7521 0
M  V30 33 H 0.8441 -1.7705 -2.5839 0
M  V30 34 H 0.8525 -2.1226 -4.3127 0
M  V30 35 H 1.717 -0.7052 -3.6739 0
M  V30 36 H 0.4248 0.6791 -5.4194 0
M  V30 37 H -0.5024 -0.7448 -5.9407 0
M  V30 38 H -1.3293 0.7244 -5.378 0
M  V30 39 H -1.7403 -1.703 -2.5224 0
M  V30 40 H -2.6075 -0.5946 -3.5733 0
M  V30 41 H -1.8471 -2.0542 -4.2482 0
M  V30 END ATOM
M  V30 BEGIN BOND
M  V30 1 1 1 2
M  V30 2 2 2 3
M  V30 3 1 2 4
M  V30 4 1 3 5
M  V30 5 2 4 6
M  V30 6 2 5 7
M  V30 7 1 7 8
M  V30 8 2 8 9
M  V30 9 2 8 10
M  V30 10 1 8 11
M  V30 11 1 11 12
M  V30 12 1 11 13
M  V30 13 1 12 14
M  V30 14 1 12 15
M  V30 15 1 14 16
M  V30 16 2 15 17
M  V30 17 2 16 18
M  V30 18 1 16 19
M  V30 19 1 19 20
M  V30 20 1 20 21
M  V30 21 1 20 22
M  V30 22 1 20 23
M  V30 23 1 6 7
M  V30 24 1 12 13
M  V30 25 1 3 24
M  V30 26 1 4 25
M  V30 27 1 5 26
M  V30 28 1 6 27
M  V30 29 1 11 28
M  V30 30 1 13 29
M  V30 31 1 13 30
M  V30 32 1 14 31
M  V30 33 1 15 32
M  V30 34 1 21 33
M  V30 35 1 21 34
M  V30 36 1 21 35
M  V30 37 1 22 36
M  V30 38 1 22 37
M  V30 39 1 22 38
M  V30 40 1 23 39
M  V30 41 1 23 40
M  V30 42 1 23 41
M  V30 END BOND
M  V30 BEGIN COLLECTION
M  V30 MDLV30/STEABS ATOMS=(2 11 12)
M  V30 END COLLECTION
M  V30 END CTAB
M  END
>  <NO.>
3829

>  <Name>
cycloserine

>  <SMILES>
CC(C)(C)OC(=O)N[C@]1(C=O)C[C@H]1S(=O)(=O)c1ccc(Cl)cc1

>  <logBB>


>  <Class>
1

>  <MW>
359.06

>  <nHBAcc>
5

>  <nHBDon>
1

>  <SLogP>
2.35

>  <TopoPSA>
89.54

>  <MMFF94 Energy>
23.884

$$$$
CC(C)(C)OC(=O)N[C@]1(C=O)[C@@H](S(C)(=O)=O)[C@@H]1c1ccc2c(c1)OCO2
Actelion Java MolfileCreator 2.0

  0  0  0  0  0  0              0 V3000
M  V30 BEGIN CTAB
M  V30 COUNTS 47 49 0 0 0
M  V30 BEGIN ATOM
M  V30 1 S -0.892 3.4906 1.7847 0
M  V30 2 O -0.5238 4.3773 0.7013 0
M  V30 3 O -2.2013 3.5741 2.3996 0
M  V30 4 C -0.6898 1.812 1.1683 0 CFG=2
M  V30 5 C 0.3316 3.6262 3.0589 0
M  V30 6 C -1.3947 1.5086 -0.1444 0 CFG=2
M  V30 7 C -1.9159 0.9467 1.1952 0 CFG=1
M  V30 8 N -0.7394 0.6128 -1.0848 0
M  V30 9 C -2.3614 2.4555 -0.8193 0
M  V30 10 C -1.825 -0.5375 1.4911 0
M  V30 11 C 0.5809 0.6681 -1.4172 0
M  V30 12 O -2.85 2.1613 -1.9073 0
M  V30 13 C -0.952 -1.0484 2.4696 0
M  V30 14 C -2.58 -1.4652 0.727 0
M  V30 15 O 1.4066 1.3925 -0.8826 0
M  V30 16 O 0.8165 -0.2118 -2.4164 0
M  V30 17 C -0.8773 -2.4145 2.6542 0
M  V30 18 C -2.4879 -2.8468 0.9322 0
M  V30 19 C 2.1476 -0.3656 -2.9725 0
M  V30 20 O -0.086 -3.0495 3.5599 0
M  V30 21 C -1.6245 -3.2895 1.9062 0
M  V30 22 C 2.6326 0.9335 -3.6251 0
M  V30 23 C 1.9927 -1.4354 -4.0642 0
M  V30 24 C 3.1338 -0.8811 -1.9184 0
M  V30 25 C -0.4261 -4.4276 3.2968 0
M  V30 26 O -1.4006 -4.5863 2.2448 0
M  V30 27 H 0.2771 1.364 1.3448 0
M  V30 28 H 0.2692 4.6288 3.4872 0
M  V30 29 H 1.3179 3.4679 2.6191 0
M  V30 30 H 0.1247 2.8777 3.826 0
M  V30 31 H -2.8373 1.3925 1.5688 0
M  V30 32 H -1.3199 0.031 -1.6766 0
M  V30 33 H -2.635 3.3912 -0.3107 0
M  V30 34 H -0.3443 -0.3921 3.0829 0
M  V30 35 H -3.2587 -1.0964 -0.0416 0
M  V30 36 H -3.0745 -3.5438 0.3444 0
M  V30 37 H 2.827 1.7155 -2.8847 0
M  V30 38 H 3.5604 0.7756 -4.1855 0
M  V30 39 H 1.8749 1.3309 -4.3099 0
M  V30 40 H 1.2642 -1.1185 -4.8197 0
M  V30 41 H 2.9429 -1.6451 -4.5664 0
M  V30 42 H 1.6107 -2.3719 -3.6408 0
M  V30 43 H 3.3375 -0.1316 -1.1476 0
M  V30 44 H 2.7282 -1.7591 -1.403 0
M  V30 45 H 4.0933 -1.1545 -2.3705 0
M  V30 46 H 0.4859 -4.9656 3.0141 0
M  V30 47 H -0.8261 -4.8715 4.2159 0
M  V30 END ATOM
M  V30 BEGIN BOND
M  V30 1 2 1 2
M  V30 2 2 1 3
M  V30 3 1 1 4
M  V30 4 1 1 5
M  V30 5 1 4 6
M  V30 6 1 4 7
M  V30 7 1 6 8
M  V30 8 1 6 9
M  V30 9 1 7 10
M  V30 10 1 8 11
M  V30 11 2 9 12
M  V30 12 2 10 13
M  V30 13 1 10 14
M  V30 14 2 11 15
M  V30 15 1 11 16
M  V30 16 1 13 17
M  V30 17 2 14 18
M  V30 18 1 16 19
M  V30 19 1 17 20
M  V30 20 2 17 21
M  V30 21 1 19 22
M  V30 22 1 19 23
M  V30 23 1 19 24
M  V30 24 1 20 25
M  V30 25 1 21 26
M  V30 26 1 6 7
M  V30 27 1 18 21
M  V30 28 1 25 26
M  V30 29 1 4 27
M  V30 30 1 5 28
M  V30 31 1 5 29
M  V30 32 1 5 30
M  V30 33 1 7 31
M  V30 34 1 8 32
M  V30 35 1 9 33
M  V30 36 1 13 34
M  V30 37 1 14 35
M  V30 38 1 18 36
M  V30 39 1 22 37
M  V30 40 1 22 38
M  V30 41 1 22 39
M  V30 42 1 23 40
M  V30 43 1 23 41
M  V30 44 1 23 42
M  V30 45 1 24 43
M  V30 46 1 24 44
M  V30 47 1 24 45
M  V30 48 1 25 46
M  V30 49 1 25 47
M  V30 END BOND
M  V30 BEGIN COLLECTION
M  V30 MDLV30/STEABS ATOMS=(3 4 6 7)
M  V30 END COLLECTION
M  V30 END CTAB
M  END
>  <NO.>
3830

>  <Name>
temazepam

>  <SMILES>
CC(C)(C)OC(=O)N[C@]1(C=O)[C@@H](S(C)(=O)=O)[C@@H]1c1ccc2c(c1)OCO2

>  <logBB>


>  <Class>
1

>  <MW>
383.1

>  <nHBAcc>
7

>  <nHBDon>
1

>  <SLogP>
1.39

>  <TopoPSA>
108

>  <MMFF94 Energy>
-15.237

$$$$
CC(C)Oc1cccc(CCCNC(=O)[C@@H](C)SCc2ccccc2)c1
Actelion Java MolfileCreator 2.0

  0  0  0  0  0  0              0 V3000
M  V30 BEGIN CTAB
M  V30 COUNTS 55 56 0 0 0
M  V30 BEGIN ATOM
M  V30 1 S -2.3821 2.1437 -2.859 0
M  V30 2 C -3.1869 2.6499 -1.2892 0 CFG=1
M  V30 3 C -2.7116 0.3512 -2.7748 0
M  V30 4 C -2.4585 2.0404 -0.0902 0
M  V30 5 C -3.205 4.1704 -1.1915 0
M  V30 6 C -2.0983 -0.3701 -3.9478 0
M  V30 7 O -3.0569 1.398 0.7694 0
M  V30 8 N -1.1013 2.2785 -0.0478 0
M  V30 9 C -2.7947 -0.4841 -5.16 0
M  V30 10 C -0.8112 -0.9196 -3.8512 0
M  V30 11 C -0.25 1.7345 0.9892 0
M  V30 12 C -2.2211 -1.1457 -6.2469 0
M  V30 13 C -0.24 -1.5812 -4.9394 0
M  V30 14 C 0.9285 2.6609 1.2752 0
M  V30 15 C -0.9455 -1.6953 -6.1357 0
M  V30 16 C 1.8069 2.1634 2.4263 0
M  V30 17 C 2.5352 0.88 2.1097 0
M  V30 18 C 2.0793 -0.3441 2.6295 0
M  V30 19 C 3.6628 0.8944 1.2796 0
M  V30 20 C 2.7344 -1.5369 2.32 0
M  V30 21 C 4.3273 -0.292 0.9785 0
M  V30 22 O 2.3946 -2.7863 2.7563 0
M  V30 23 C 3.8639 -1.4997 1.4994 0
M  V30 24 C 1.1374 -2.9784 3.4131 0
M  V30 25 C 0.6878 -4.4022 3.0919 0
M  V30 26 C 1.3111 -2.8142 4.9201 0
M  V30 27 H -4.2176 2.2786 -1.2961 0
M  V30 28 H -3.7942 0.1824 -2.7616 0
M  V30 29 H -2.3069 -0.0613 -1.8447 0
M  V30 30 H -3.6659 4.4845 -0.2478 0
M  V30 31 H -2.1979 4.602 -1.2143 0
M  V30 32 H -3.7874 4.6139 -2.0066 0
M  V30 33 H -0.672 2.6781 -0.8766 0
M  V30 34 H -3.7876 -0.052 -5.265 0
M  V30 35 H -0.2446 -0.8335 -2.9264 0
M  V30 36 H 0.091 0.7586 0.6289 0
M  V30 37 H -0.8397 1.5709 1.8978 0
M  V30 38 H -2.7687 -1.2283 -7.1821 0
M  V30 39 H 0.757 -2.005 -4.8541 0
M  V30 40 H 0.5445 3.6555 1.5364 0
M  V30 41 H 1.5261 2.7917 0.3643 0
M  V30 42 H -0.4991 -2.2087 -6.9831 0
M  V30 43 H 2.551 2.9327 2.6699 0
M  V30 44 H 1.2011 2.0405 3.333 0
M  V30 45 H 1.2114 -0.3353 3.2806 0
M  V30 46 H 4.0325 1.8307 0.8676 0
M  V30 47 H 5.2059 -0.2789 0.3393 0
M  V30 48 H 4.3856 -2.4235 1.2618 0
M  V30 49 H 0.3665 -2.3012 3.0274 0
M  V30 50 H -0.2707 -4.6336 3.5665 0
M  V30 51 H 0.5808 -4.5315 2.0093 0
M  V30 52 H 1.4314 -5.1353 3.424 0
M  V30 53 H 0.3723 -3.0055 5.4491 0
M  V30 54 H 1.648 -1.8043 5.1732 0
M  V30 55 H 2.0746 -3.501 5.3024 0
M  V30 END ATOM
M  V30 BEGIN BOND
M  V30 1 1 1 2
M  V30 2 1 1 3
M  V30 3 1 2 4
M  V30 4 1 2 5
M  V30 5 1 3 6
M  V30 6 2 4 7
M  V30 7 1 4 8
M  V30 8 2 6 9
M  V30 9 1 6 10
M  V30 10 1 8 11
M  V30 11 1 9 12
M  V30 12 2 10 13
M  V30 13 1 11 14
M  V30 14 2 12 15
M  V30 15 1 14 16
M  V30 16 1 16 17
M  V30 17 2 17 18
M  V30 18 1 17 19
M  V30 19 1 18 20
M  V30 20 2 19 21
M  V30 21 1 20 22
M  V30 22 2 20 23
M  V30 23 1 22 24
M  V30 24 1 24 25
M  V30 25 1 24 26
M  V30 26 1 13 15
M  V30 27 1 21 23
M  V30 28 1 2 27
M  V30 29 1 3 28
M  V30 30 1 3 29
M  V30 31 1 5 30
M  V30 32 1 5 31
M  V30 33 1 5 32
M  V30 34 1 8 33
M  V30 35 1 9 34
M  V30 36 1 10 35
M  V30 37 1 11 36
M  V30 38 1 11 37
M  V30 39 1 12 38
M  V30 40 1 13 39
M  V30 41 1 14 40
M  V30 42 1 14 41
M  V30 43 1 15 42
M  V30 44 1 16 43
M  V30 45 1 16 44
M  V30 46 1 18 45
M  V30 47 1 19 46
M  V30 48 1 21 47
M  V30 49 1 23 48
M  V30 50 1 24 49
M  V30 51 1 25 50
M  V30 52 1 25 51
M  V30 53 1 25 52
M  V30 54 1 26 53
M  V30 55 1 26 54
M  V30 56 1 26 55
M  V30 END BOND
M  V30 BEGIN COLLECTION
M  V30 MDLV30/STEABS ATOMS=(1 2)
M  V30 END COLLECTION
M  V30 END CTAB
M  END
>  <NO.>
3832

>  <Name>
clonazepam

>  <SMILES>
CC(C)Oc1cccc(CCCNC(=O)[C@@H](C)SCc2ccccc2)c1

>  <logBB>


>  <Class>
1

>  <MW>
371.19

>  <nHBAcc>
3

>  <nHBDon>
1

>  <SLogP>
4.84

>  <TopoPSA>
38.33

>  <MMFF94 Energy>
50.382

$$$$
CC(C)[C@@H]1CC[C@@H](C)C[C@@H]1OC(=O)Cn1nc(-c2ccco2)oc1=O
Actelion Java MolfileCreator 2.0

  0  0  0  0  0  0              0 V3000
M  V30 BEGIN CTAB
M  V30 COUNTS 49 51 0 0 0
M  V30 BEGIN ATOM
M  V30 1 O -2.1504 3.8254 -1.2739 0
M  V30 2 C -1.3717 3.2794 -2.0361 0
M  V30 3 O -0.6804 3.905 -3.0282 0
M  V30 4 N -1.0269 1.9535 -2.0969 0
M  V30 5 C 0.0351 2.9016 -3.6021 0
M  V30 6 N -0.1272 1.7177 -3.0982 0
M  V30 7 C -1.4642 0.934 -1.1755 0
M  V30 8 C 0.8676 3.2973 -4.6917 0
M  V30 9 C -0.522 0.8688 0.0128 0
M  V30 10 O 1.6036 2.3403 -5.3378 0
M  V30 11 C 1.1075 4.5273 -5.2786 0
M  V30 12 O 0.2074 1.7733 0.3981 0
M  V30 13 O -0.6558 -0.343 0.6286 0
M  V30 14 C 2.3026 2.9604 -6.3217 0
M  V30 15 C 2.0325 4.3076 -6.328 0
M  V30 16 C 0.1639 -0.5651 1.7954 0 CFG=2
M  V30 17 C 0.4187 -2.089 1.9312 0 CFG=2
M  V30 18 C -0.5422 0.0054 3.0332 0
M  V30 19 C 1.0844 -2.7032 0.6578 0
M  V30 20 C -0.8966 -2.8207 2.2802 0
M  V30 21 C -1.8521 -0.7278 3.3444 0 CFG=1
M  V30 22 C 2.3723 -1.9685 0.2631 0
M  V30 23 C 1.4133 -4.1916 0.8382 0
M  V30 24 C -1.593 -2.2269 3.5035 0
M  V30 25 C -2.5041 -0.1566 4.6028 0
M  V30 26 H -2.4658 1.176 -0.8071 0
M  V30 27 H -1.4738 -0.0245 -1.703 0
M  V30 28 H 0.6668 5.4694 -4.9804 0
M  V30 29 H 2.936 2.3194 -6.9195 0
M  V30 30 H 2.4516 5.0395 -7.0045 0
M  V30 31 H 1.1262 -0.0517 1.6843 0
M  V30 32 H 1.1088 -2.231 2.7753 0
M  V30 33 H -0.7613 1.0688 2.8788 0
M  V30 34 H 0.1351 -0.0616 3.8942 0
M  V30 35 H 0.3855 -2.6226 -0.1849 0
M  V30 36 H -0.7018 -3.8768 2.4941 0
M  V30 37 H -1.5805 -2.7908 1.4226 0
M  V30 38 H -2.5497 -0.5793 2.5097 0
M  V30 39 H 2.1669 -0.9457 -0.0661 0
M  V30 40 H 2.87 -2.4725 -0.5726 0
M  V30 41 H 3.0769 -1.9277 1.1006 0
M  V30 42 H 1.963 -4.5782 -0.027 0
M  V30 43 H 0.506 -4.796 0.9276 0
M  V30 44 H 2.0282 -4.3561 1.7293 0
M  V30 45 H -2.5407 -2.7538 3.6683 0
M  V30 46 H -0.9734 -2.4076 4.3915 0
M  V30 47 H -2.7158 0.9108 4.4797 0
M  V30 48 H -1.8554 -0.2744 5.4774 0
M  V30 49 H -3.4516 -0.6638 4.8133 0
M  V30 END ATOM
M  V30 BEGIN BOND
M  V30 1 2 1 2
M  V30 2 1 2 3
M  V30 3 1 2 4
M  V30 4 1 3 5
M  V30 5 1 4 6
M  V30 6 1 4 7
M  V30 7 1 5 8
M  V30 8 1 7 9
M  V30 9 1 8 10
M  V30 10 2 8 11
M  V30 11 2 9 12
M  V30 12 1 9 13
M  V30 13 1 10 14
M  V30 14 1 11 15
M  V30 15 1 13 16
M  V30 16 1 16 17
M  V30 17 1 16 18
M  V30 18 1 17 19
M  V30 19 1 17 20
M  V30 20 1 18 21
M  V30 21 1 19 22
M  V30 22 1 19 23
M  V30 23 1 20 24
M  V30 24 1 21 25
M  V30 25 2 5 6
M  V30 26 2 14 15
M  V30 27 1 21 24
M  V30 28 1 7 26
M  V30 29 1 7 27
M  V30 30 1 11 28
M  V30 31 1 14 29
M  V30 32 1 15 30
M  V30 33 1 16 31
M  V30 34 1 17 32
M  V30 35 1 18 33
M  V30 36 1 18 34
M  V30 37 1 19 35
M  V30 38 1 20 36
M  V30 39 1 20 37
M  V30 40 1 21 38
M  V30 41 1 22 39
M  V30 42 1 22 40
M  V30 43 1 22 41
M  V30 44 1 23 42
M  V30 45 1 23 43
M  V30 46 1 23 44
M  V30 47 1 24 45
M  V30 48 1 24 46
M  V30 49 1 25 47
M  V30 50 1 25 48
M  V30 51 1 25 49
M  V30 END BOND
M  V30 BEGIN COLLECTION
M  V30 MDLV30/STEABS ATOMS=(3 16 17 21)
M  V30 END COLLECTION
M  V30 END CTAB
M  END
>  <NO.>
3833

>  <Name>
cefazolin

>  <SMILES>
CC(C)[C@@H]1CC[C@@H](C)C[C@@H]1OC(=O)Cn1nc(-c2ccco2)oc1=O

>  <logBB>


>  <Class>
-1

>  <MW>
348.17

>  <nHBAcc>
6

>  <nHBDon>
0

>  <SLogP>
3.1

>  <TopoPSA>
87.47

>  <MMFF94 Energy>
47.232

$$$$
CC(C)c1nnc(N2CCn3nc([C@@H](O)c4nccn4C)cc3C2)s1
Actelion Java MolfileCreator 2.0

  0  0  0  0  0  0              0 V3000
M  V30 BEGIN CTAB
M  V30 COUNTS 46 49 0 0 0
M  V30 BEGIN ATOM
M  V30 1 S -3.1483 -2.2595 -0.4032 0
M  V30 2 C -2.8465 -0.6802 -1.0549 0
M  V30 3 C -4.7499 -2.1589 -1.0109 0
M  V30 4 N -3.9123 -0.1937 -1.6644 0
M  V30 5 N -1.6505 -0.0238 -0.9553 0
M  V30 6 N -5.0035 -1.0331 -1.6403 0
M  V30 7 C -5.7604 -3.2603 -0.8345 0
M  V30 8 C -0.5724 -0.5107 -0.0929 0
M  V30 9 C -1.5784 1.3716 -1.4097 0
M  V30 10 C -5.3313 -4.5511 -1.5317 0
M  V30 11 C -6.089 -3.5087 0.6375 0
M  V30 12 C 0.7052 0.2413 -0.2221 0
M  V30 13 C -0.2171 1.6817 -2.0232 0
M  V30 14 N 0.832 1.2564 -1.1214 0
M  V30 15 C 1.9164 0.165 0.4257 0
M  V30 16 N 2.0421 1.8428 -1.1255 0
M  V30 17 C 2.7116 1.1888 -0.152 0
M  V30 18 C 4.1441 1.566 0.1544 0 CFG=1
M  V30 19 O 4.5274 2.7346 -0.5939 0
M  V30 20 C 4.4193 1.8479 1.6123 0
M  V30 21 N 3.6444 1.5379 2.6434 0
M  V30 22 N 5.5871 2.426 2.0712 0
M  V30 23 C 4.3039 1.9583 3.7655 0
M  V30 24 C 5.5152 2.5094 3.4352 0
M  V30 25 C 6.7098 2.8687 1.2787 0
M  V30 26 H -6.6878 -2.9254 -1.3192 0
M  V30 27 H -0.8976 -0.4595 0.9541 0
M  V30 28 H -0.352 -1.5603 -0.3244 0
M  V30 29 H -2.3423 1.6021 -2.1619 0
M  V30 30 H -1.7646 2.0299 -0.5508 0
M  V30 31 H -6.131 -5.2982 -1.484 0
M  V30 32 H -5.1044 -4.37 -2.5883 0
M  V30 33 H -4.4403 -4.9894 -1.0689 0
M  V30 34 H -6.4037 -2.5825 1.1316 0
M  V30 35 H -5.2285 -3.905 1.1877 0
M  V30 36 H -6.9052 -4.233 0.7327 0
M  V30 37 H -0.0671 1.1351 -2.9605 0
M  V30 38 H -0.1065 2.7552 -2.2065 0
M  V30 39 H 2.1957 -0.5089 1.2246 0
M  V30 40 H 4.7931 0.7461 -0.175 0
M  V30 41 H 3.7119 2.9489 -1.0968 0
M  V30 42 H 3.8737 1.8382 4.7512 0
M  V30 43 H 6.3027 2.9399 4.0375 0
M  V30 44 H 6.9282 2.1197 0.514 0
M  V30 45 H 7.584 2.982 1.9258 0
M  V30 46 H 6.458 3.8322 0.8294 0
M  V30 END ATOM
M  V30 BEGIN BOND
M  V30 1 1 1 2
M  V30 2 1 1 3
M  V30 3 2 2 4
M  V30 4 1 2 5
M  V30 5 2 3 6
M  V30 6 1 3 7
M  V30 7 1 5 8
M  V30 8 1 5 9
M  V30 9 1 7 10
M  V30 10 1 7 11
M  V30 11 1 8 12
M  V30 12 1 9 13
M  V30 13 1 12 14
M  V30 14 2 12 15
M  V30 15 1 14 16
M  V30 16 1 15 17
M  V30 17 1 17 18
M  V30 18 1 18 19
M  V30 19 1 18 20
M  V30 20 2 20 21
M  V30 21 1 20 22
M  V30 22 1 21 23
M  V30 23 1 22 24
M  V30 24 1 22 25
M  V30 25 1 4 6
M  V30 26 1 13 14
M  V30 27 2 16 17
M  V30 28 2 23 24
M  V30 29 1 7 26
M  V30 30 1 8 27
M  V30 31 1 8 28
M  V30 32 1 9 29
M  V30 33 1 9 30
M  V30 34 1 10 31
M  V30 35 1 10 32
M  V30 36 1 10 33
M  V30 37 1 11 34
M  V30 38 1 11 35
M  V30 39 1 11 36
M  V30 40 1 13 37
M  V30 41 1 13 38
M  V30 42 1 15 39
M  V30 43 1 18 40
M  V30 44 1 19 41
M  V30 45 1 23 42
M  V30 46 1 24 43
M  V30 47 1 25 44
M  V30 48 1 25 45
M  V30 49 1 25 46
M  V30 END BOND
M  V30 BEGIN COLLECTION
M  V30 MDLV30/STEABS ATOMS=(1 18)
M  V30 END COLLECTION
M  V30 END CTAB
M  END
>  <NO.>
3835

>  <Name>
furosemide

>  <SMILES>
CC(C)c1nnc(N2CCn3nc([C@@H](O)c4nccn4C)cc3C2)s1

>  <logBB>


>  <Class>
-1

>  <MW>
359.15

>  <nHBAcc>
7

>  <nHBDon>
1

>  <SLogP>
1.69

>  <TopoPSA>
84.89

>  <MMFF94 Energy>
29.103

$$$$
CC1Cc2ccccc2N(C(=O)c2ccnc(F)c2F)C1
Actelion Java MolfileCreator 2.0

  0  0  0  0  0  0              0 V3000
M  V30 BEGIN CTAB
M  V30 COUNTS 35 37 0 0 0
M  V30 BEGIN ATOM
M  V30 1 F 3.1465 1.5319 4.6012 0
M  V30 2 C 2.0389 1.4211 3.8525 0
M  V30 3 N 1.1869 2.4754 3.8527 0
M  V30 4 C 1.8394 0.2663 3.1216 0
M  V30 5 C 0.0767 2.3622 3.0927 0
M  V30 6 F 2.7449 -0.7214 3.1446 0
M  V30 7 C 0.6989 0.1927 2.3366 0
M  V30 8 C -0.2164 1.2482 2.327 0
M  V30 9 C 0.4228 -1.0387 1.5784 0
M  V30 10 O 0.3449 -2.0797 2.23 0
M  V30 11 N 0.1413 -0.9702 0.2064 0
M  V30 12 C 0.4264 0.1328 -0.6455 0
M  V30 13 C -0.5607 -2.1232 -0.3637 0
M  V30 14 C -0.4819 0.4421 -1.6714 0
M  V30 15 C 1.5958 0.8895 -0.5201 0
M  V30 16 C -1.1407 -1.9139 -1.7691 0 CFG=2
M  V30 17 C -0.2736 1.5678 -2.4774 0
M  V30 18 C -1.649 -0.4767 -1.9126 0
M  V30 19 C 1.8085 2.0013 -1.3381 0
M  V30 20 C -2.2465 -2.9238 -2.0628 0
M  V30 21 C 0.866 2.3504 -2.3024 0
M  V30 22 H -0.5939 3.2175 3.1202 0
M  V30 23 H -1.1301 1.2029 1.7441 0
M  V30 24 H 0.1347 -2.972 -0.3656 0
M  V30 25 H -1.3671 -2.3864 0.3343 0
M  V30 26 H 2.3684 0.6187 0.193 0
M  V30 27 H -0.3344 -2.076 -2.4988 0
M  V30 28 H -0.9821 1.8249 -3.2613 0
M  V30 29 H -2.0543 -0.3259 -2.9201 0
M  V30 30 H -2.4459 -0.255 -1.1925 0
M  V30 31 H 2.7158 2.5903 -1.2274 0
M  V30 32 H -1.8731 -3.9479 -1.9603 0
M  V30 33 H -3.0922 -2.8002 -1.3778 0
M  V30 34 H -2.6201 -2.8027 -3.085 0
M  V30 35 H 1.0341 3.2164 -2.9381 0
M  V30 END ATOM
M  V30 BEGIN BOND
M  V30 1 1 1 2
M  V30 2 2 2 3
M  V30 3 1 2 4
M  V30 4 1 3 5
M  V30 5 1 4 6
M  V30 6 2 4 7
M  V30 7 2 5 8
M  V30 8 1 7 9
M  V30 9 2 9 10
M  V30 10 1 9 11
M  V30 11 1 11 12
M  V30 12 1 11 13
M  V30 13 2 12 14
M  V30 14 1 12 15
M  V30 15 1 13 16
M  V30 16 1 14 17
M  V30 17 1 14 18
M  V30 18 2 15 19
M  V30 19 1 16 20
M  V30 20 2 17 21
M  V30 21 1 7 8
M  V30 22 1 16 18
M  V30 23 1 19 21
M  V30 24 1 5 22
M  V30 25 1 8 23
M  V30 26 1 13 24
M  V30 27 1 13 25
M  V30 28 1 15 26
M  V30 29 1 16 27
M  V30 30 1 17 28
M  V30 31 1 18 29
M  V30 32 1 18 30
M  V30 33 1 19 31
M  V30 34 1 20 32
M  V30 35 1 20 33
M  V30 36 1 20 34
M  V30 37 1 21 35
M  V30 END BOND
M  V30 BEGIN COLLECTION
M  V30 MDLV30/STERAC1 ATOMS=(1 16)
M  V30 END COLLECTION
M  V30 END CTAB
M  END
>  <NO.>
3838

>  <Name>
rifampin

>  <SMILES>
CC1Cc2ccccc2N(C(=O)c2ccnc(F)c2F)C1

>  <logBB>


>  <Class>
-1

>  <MW>
288.11

>  <nHBAcc>
2

>  <nHBDon>
0

>  <SLogP>
3.2

>  <TopoPSA>
33.2

>  <MMFF94 Energy>
36.526

$$$$
CCCO[C@H](C)c1ccc(C)c(N)c1
Actelion Java MolfileCreator 2.0

  0  0  0  0  0  0              0 V3000
M  V30 BEGIN CTAB
M  V30 COUNTS 33 33 0 0 0
M  V30 BEGIN ATOM
M  V30 1 O -0.1548 0.387 -1.6263 0
M  V30 2 C -1.0338 0.0843 -0.5358 0 CFG=1
M  V30 3 C -0.5483 -0.2297 -2.8498 0
M  V30 4 C -0.2369 0.0602 0.7542 0
M  V30 5 C -2.1391 1.1356 -0.4639 0
M  V30 6 C 0.4288 0.2039 -3.935 0
M  V30 7 C -0.5758 -0.8462 1.7727 0
M  V30 8 C 0.8152 0.9526 0.9813 0
M  V30 9 C 0.0892 -0.4112 -5.2805 0
M  V30 10 C 0.1259 -0.8913 2.9862 0
M  V30 11 C 1.5091 0.9357 2.1913 0
M  V30 12 N -0.283 -1.7829 3.9678 0
M  V30 13 C 1.1684 0.025 3.2043 0
M  V30 14 C 1.935 0.0533 4.4975 0
M  V30 15 H -1.4753 -0.9091 -0.689 0
M  V30 16 H -1.5661 0.0766 -3.1142 0
M  V30 17 H -0.5218 -1.3192 -2.7333 0
M  V30 18 H -2.7382 1.1352 -1.3802 0
M  V30 19 H -2.8092 0.9568 0.3835 0
M  V30 20 H -1.7206 2.1439 -0.3648 0
M  V30 21 H 0.4273 1.2977 -4.0148 0
M  V30 22 H 1.4487 -0.0755 -3.6444 0
M  V30 23 H -1.4049 -1.5326 1.617 0
M  V30 24 H 1.098 1.6695 0.213 0
M  V30 25 H 0.806 -0.083 -6.0395 0
M  V30 26 H 0.1227 -1.5042 -5.2315 0
M  V30 27 H -0.9119 -0.1122 -5.607 0
M  V30 28 H 2.3195 1.6458 2.3395 0
M  V30 29 H 0.2628 -1.8987 4.8092 0
M  V30 30 H -0.9721 -2.4891 3.7519 0
M  V30 31 H 1.26 0.256 5.3353 0
M  V30 32 H 2.4417 -0.9035 4.6589 0
M  V30 33 H 2.701 0.8362 4.496 0
M  V30 END ATOM
M  V30 BEGIN BOND
M  V30 1 1 1 2
M  V30 2 1 1 3
M  V30 3 1 2 4
M  V30 4 1 2 5
M  V30 5 1 3 6
M  V30 6 2 4 7
M  V30 7 1 4 8
M  V30 8 1 6 9
M  V30 9 1 7 10
M  V30 10 2 8 11
M  V30 11 1 10 12
M  V30 12 2 10 13
M  V30 13 1 13 14
M  V30 14 1 11 13
M  V30 15 1 2 15
M  V30 16 1 3 16
M  V30 17 1 3 17
M  V30 18 1 5 18
M  V30 19 1 5 19
M  V30 20 1 5 20
M  V30 21 1 6 21
M  V30 22 1 6 22
M  V30 23 1 7 23
M  V30 24 1 8 24
M  V30 25 1 9 25
M  V30 26 1 9 26
M  V30 27 1 9 27
M  V30 28 1 11 28
M  V30 29 1 12 29
M  V30 30 1 12 30
M  V30 31 1 14 31
M  V30 32 1 14 32
M  V30 33 1 14 33
M  V30 END BOND
M  V30 BEGIN COLLECTION
M  V30 MDLV30/STEABS ATOMS=(1 2)
M  V30 END COLLECTION
M  V30 END CTAB
M  END
>  <NO.>
3839

>  <Name>
aminophylline

>  <SMILES>
CCCO[C@H](C)c1ccc(C)c(N)c1

>  <logBB>


>  <Class>
-1

>  <MW>
193.15

>  <nHBAcc>
2

>  <nHBDon>
1

>  <SLogP>
3.06

>  <TopoPSA>
35.25

>  <MMFF94 Energy>
23.759

$$$$
CCCOc1ccccc1CCCNC(=O)CSCc1ccc(OC)cc1
Actelion Java MolfileCreator 2.0

  0  0  0  0  0  0              0 V3000
M  V30 BEGIN CTAB
M  V30 COUNTS 56 57 0 0 0
M  V30 BEGIN ATOM
M  V30 1 S -4.0508 0.6345 -1.587 0
M  V30 2 C -3.1721 -0.9274 -1.9035 0
M  V30 3 C -2.6778 1.6348 -0.9354 0
M  V30 4 C -4.0352 -1.899 -2.668 0
M  V30 5 C -1.9568 0.942 0.2092 0
M  V30 6 C -4.0527 -1.8939 -4.0696 0
M  V30 7 C -4.8537 -2.8098 -1.9888 0
M  V30 8 O -2.4922 0.6944 1.2858 0
M  V30 9 N -0.6506 0.5919 -0.0756 0
M  V30 10 C -4.859 -2.7918 -4.779 0
M  V30 11 C -5.656 -3.7054 -2.6998 0
M  V30 12 C 0.1867 -0.0818 0.8972 0
M  V30 13 C -5.6635 -3.7034 -4.0959 0
M  V30 14 C 0.8945 0.9157 1.8079 0
M  V30 15 O -6.4926 -4.6306 -4.6648 0
M  V30 16 C 1.7632 0.1943 2.8382 0
M  V30 17 C -6.5682 -4.6386 -6.0843 0
M  V30 18 C 2.5223 1.169 3.7102 0
M  V30 19 C 3.7508 1.721 3.2992 0
M  V30 20 C 1.972 1.5511 4.9448 0
M  V30 21 O 4.2074 1.3123 2.073 0
M  V30 22 C 4.4104 2.6285 4.1344 0
M  V30 23 C 2.6373 2.4568 5.7682 0
M  V30 24 C 5.4581 1.8337 1.6259 0
M  V30 25 C 3.8557 2.9929 5.3642 0
M  V30 26 C 5.7489 1.2288 0.2557 0
M  V30 27 C 7.0664 1.7239 -0.3128 0
M  V30 28 H -2.8692 -1.3821 -0.9541 0
M  V30 29 H -2.2596 -0.7244 -2.4751 0
M  V30 30 H -3.0755 2.5833 -0.5609 0
M  V30 31 H -1.9908 1.8675 -1.7545 0
M  V30 32 H -3.4418 -1.1832 -4.6217 0
M  V30 33 H -4.8782 -2.8238 -0.901 0
M  V30 34 H -0.2374 0.8466 -0.9631 0
M  V30 35 H -4.8373 -2.7484 -5.8623 0
M  V30 36 H -6.2866 -4.407 -2.1593 0
M  V30 37 H 0.9171 -0.673 0.335 0
M  V30 38 H -0.4293 -0.7715 1.4847 0
M  V30 39 H 0.1559 1.5466 2.3191 0
M  V30 40 H 1.5049 1.594 1.1981 0
M  V30 41 H 1.1351 -0.4479 3.4691 0
M  V30 42 H 2.4674 -0.4849 2.3421 0
M  V30 43 H -6.9454 -3.684 -6.4658 0
M  V30 44 H -7.2789 -5.4176 -6.3766 0
M  V30 45 H -5.5995 -4.8882 -6.5293 0
M  V30 46 H 1.0166 1.1434 5.2688 0
M  V30 47 H 5.3593 3.0755 3.8588 0
M  V30 48 H 2.2035 2.7443 6.7224 0
M  V30 49 H 6.2551 1.5534 2.325 0
M  V30 50 H 5.4008 2.9252 1.5371 0
M  V30 51 H 4.3757 3.6999 6.0055 0
M  V30 52 H 5.764 0.135 0.3328 0
M  V30 53 H 4.9312 1.4711 -0.4336 0
M  V30 54 H 7.2488 1.2746 -1.2939 0
M  V30 55 H 7.0573 2.8118 -0.4337 0
M  V30 56 H 7.9013 1.4579 0.3431 0
M  V30 END ATOM
M  V30 BEGIN BOND
M  V30 1 1 1 2
M  V30 2 1 1 3
M  V30 3 1 2 4
M  V30 4 1 3 5
M  V30 5 2 4 6
M  V30 6 1 4 7
M  V30 7 2 5 8
M  V30 8 1 5 9
M  V30 9 1 6 10
M  V30 10 2 7 11
M  V30 11 1 9 12
M  V30 12 2 10 13
M  V30 13 1 12 14
M  V30 14 1 13 15
M  V30 15 1 14 16
M  V30 16 1 15 17
M  V30 17 1 16 18
M  V30 18 2 18 19
M  V30 19 1 18 20
M  V30 20 1 19 21
M  V30 21 1 19 22
M  V30 22 2 20 23
M  V30 23 1 21 24
M  V30 24 2 22 25
M  V30 25 1 24 26
M  V30 26 1 26 27
M  V30 27 1 11 13
M  V30 28 1 23 25
M  V30 29 1 2 28
M  V30 30 1 2 29
M  V30 31 1 3 30
M  V30 32 1 3 31
M  V30 33 1 6 32
M  V30 34 1 7 33
M  V30 35 1 9 34
M  V30 36 1 10 35
M  V30 37 1 11 36
M  V30 38 1 12 37
M  V30 39 1 12 38
M  V30 40 1 14 39
M  V30 41 1 14 40
M  V30 42 1 16 41
M  V30 43 1 16 42
M  V30 44 1 17 43
M  V30 45 1 17 44
M  V30 46 1 17 45
M  V30 47 1 20 46
M  V30 48 1 22 47
M  V30 49 1 23 48
M  V30 50 1 24 49
M  V30 51 1 24 50
M  V30 52 1 25 51
M  V30 53 1 26 52
M  V30 54 1 26 53
M  V30 55 1 27 54
M  V30 56 1 27 55
M  V30 57 1 27 56
M  V30 END BOND
M  V30 END CTAB
M  END
>  <NO.>
3840

>  <Name>
norethindrone

>  <SMILES>
CCCOc1ccccc1CCCNC(=O)CSCc1ccc(OC)cc1

>  <logBB>


>  <Class>
-1

>  <MW>
387.19

>  <nHBAcc>
4

>  <nHBDon>
1

>  <SLogP>
4.47

>  <TopoPSA>
47.56

>  <MMFF94 Energy>
51.408

$$$$
CCCOc1ccccc1CCCNC(=O)c1ccc([N+](=O)[O-])cc1Cl
Actelion Java MolfileCreator 2.0

  0  0  0  0  0  0              0 V3000
M  V30 BEGIN CTAB
M  V30 COUNTS 47 48 0 0 0
M  V30 BEGIN ATOM
M  V30 1 Cl 1.3571 -5.5173 2.316 0
M  V30 2 C 2.4876 -4.7197 1.2835 0
M  V30 3 C 2.4464 -3.3408 1.042 0
M  V30 4 C 3.4444 -5.511 0.6391 0
M  V30 5 C 1.4761 -2.4637 1.728 0
M  V30 6 C 3.3626 -2.7484 0.1583 0
M  V30 7 C 4.3572 -4.9145 -0.2419 0
M  V30 8 O 1.4768 -2.3777 2.9475 0
M  V30 9 N 0.6352 -1.763 0.8918 0
M  V30 10 C 4.3198 -3.5345 -0.4867 0
M  V30 11 N 5.3614 -5.7451 -0.9194 0 CHG=1
M  V30 12 C -0.3509 -0.849 1.4311 0
M  V30 13 O 5.3633 -6.9589 -0.6751 0
M  V30 14 O 6.1417 -5.1807 -1.6984 0 CHG=-1
M  V30 15 C -1.1916 -0.2181 0.329 0
M  V30 16 C -2.2225 0.7497 0.9103 0
M  V30 17 C -3.0608 1.3918 -0.1728 0
M  V30 18 C -2.5924 2.5015 -0.9022 0
M  V30 19 C -4.3252 0.856 -0.468 0
M  V30 20 O -1.3421 2.9496 -0.5662 0
M  V30 21 C -3.3952 3.0562 -1.9038 0
M  V30 22 C -5.118 1.4183 -1.4664 0
M  V30 23 C -0.8885 4.1607 -1.1675 0
M  V30 24 C -4.6537 2.5171 -2.1824 0
M  V30 25 C 0.4773 4.5154 -0.583 0
M  V30 26 C 0.4143 4.79 0.9129 0
M  V30 27 H 3.4681 -6.5832 0.8271 0
M  V30 28 H 3.3467 -1.6726 -0.0094 0
M  V30 29 H 0.6761 -1.9066 -0.109 0
M  V30 30 H 5.0288 -3.0596 -1.1633 0
M  V30 31 H 0.182 -0.0807 2.0029 0
M  V30 32 H -0.9825 -1.4083 2.131 0
M  V30 33 H -1.6976 -1.0051 -0.2452 0
M  V30 34 H -0.5339 0.3017 -0.3789 0
M  V30 35 H -2.8771 0.217 1.6124 0
M  V30 36 H -1.7291 1.5288 1.505 0
M  V30 37 H -4.6991 -0.0043 0.0827 0
M  V30 38 H -3.0697 3.9073 -2.4922 0
M  V30 39 H -6.0965 0.9987 -1.6851 0
M  V30 40 H -1.5944 4.9765 -0.9693 0
M  V30 41 H -0.7784 4.0192 -2.2489 0
M  V30 42 H -5.2707 2.9557 -2.9625 0
M  V30 43 H 1.1752 3.6876 -0.7542 0
M  V30 44 H 0.8736 5.3983 -1.0964 0
M  V30 45 H 1.4044 5.0691 1.2869 0
M  V30 46 H -0.2749 5.6119 1.1313 0
M  V30 47 H 0.0827 3.9063 1.467 0
M  V30 END ATOM
M  V30 BEGIN BOND
M  V30 1 1 1 2
M  V30 2 2 2 3
M  V30 3 1 2 4
M  V30 4 1 3 5
M  V30 5 1 3 6
M  V30 6 2 4 7
M  V30 7 2 5 8
M  V30 8 1 5 9
M  V30 9 2 6 10
M  V30 10 1 7 11
M  V30 11 1 9 12
M  V30 12 2 11 13
M  V30 13 1 11 14
M  V30 14 1 12 15
M  V30 15 1 15 16
M  V30 16 1 16 17
M  V30 17 2 17 18
M  V30 18 1 17 19
M  V30 19 1 18 20
M  V30 20 1 18 21
M  V30 21 2 19 22
M  V30 22 1 20 23
M  V30 23 2 21 24
M  V30 24 1 23 25
M  V30 25 1 25 26
M  V30 26 1 7 10
M  V30 27 1 22 24
M  V30 28 1 4 27
M  V30 29 1 6 28
M  V30 30 1 9 29
M  V30 31 1 10 30
M  V30 32 1 12 31
M  V30 33 1 12 32
M  V30 34 1 15 33
M  V30 35 1 15 34
M  V30 36 1 16 35
M  V30 37 1 16 36
M  V30 38 1 19 37
M  V30 39 1 21 38
M  V30 40 1 22 39
M  V30 41 1 23 40
M  V30 42 1 23 41
M  V30 43 1 24 42
M  V30 44 1 25 43
M  V30 45 1 25 44
M  V30 46 1 26 45
M  V30 47 1 26 46
M  V30 48 1 26 47
M  V30 END BOND
M  V30 END CTAB
M  END
>  <NO.>
3841

>  <Name>
pentazocine

>  <SMILES>
CCCOc1ccccc1CCCNC(=O)c1ccc([N+](=O)[O-])cc1Cl

>  <logBB>


>  <Class>
1

>  <MW>
376.12

>  <nHBAcc>
4

>  <nHBDon>
1

>  <SLogP>
4.4

>  <TopoPSA>
81.47

>  <MMFF94 Energy>
55.056

$$$$
CCCn1ncnc1CC(NN)c1ccc(Br)cc1F
Actelion Java MolfileCreator 2.0

  0  0  0  0  0  0              0 V3000
M  V30 BEGIN CTAB
M  V30 COUNTS 37 38 0 0 0
M  V30 BEGIN ATOM
M  V30 1 Br 0.0 5.2204 1.1226 0
M  V30 2 C -0.5484 3.4126 1.1028 0
M  V30 3 C -0.2552 2.5901 2.1837 0
M  V30 4 C -1.2349 2.9085 0.001 0
M  V30 5 C -0.6596 1.2585 2.152 0
M  V30 6 C -1.6374 1.5689 -0.0175 0
M  V30 7 F -0.3336 0.473 3.1891 0
M  V30 8 C -1.3634 0.719 1.0647 0
M  V30 9 C -1.7445 -0.7558 1.0814 0 CFG=1
M  V30 10 N -3.1643 -1.0538 0.7439 0
M  V30 11 C -0.6767 -1.6927 0.4568 0
M  V30 12 N -3.472 -0.9396 -0.6623 0
M  V30 13 C -0.3459 -1.4351 -0.9777 0
M  V30 14 N -1.0353 -1.8595 -2.022 0
M  V30 15 N 0.7499 -0.7436 -1.43 0
M  V30 16 C -0.3255 -1.3879 -3.0867 0
M  V30 17 N 0.7705 -0.6976 -2.7761 0
M  V30 18 C 1.8232 -0.1235 -0.6811 0
M  V30 19 C 3.0109 -1.0634 -0.4967 0
M  V30 20 C 4.1206 -0.4014 0.3034 0
M  V30 21 H 0.2852 2.9619 3.0482 0
M  V30 22 H -1.463 3.5439 -0.8518 0
M  V30 23 H -2.1621 1.1981 -0.896 0
M  V30 24 H -1.7317 -1.0404 2.144 0
M  V30 25 H -3.7576 -0.4275 1.299 0
M  V30 26 H -1.0226 -2.7315 0.5449 0
M  V30 27 H 0.2383 -1.6435 1.0604 0
M  V30 28 H -2.806 -1.471 -1.2483 0
M  V30 29 H -4.3772 -1.3711 -0.8719 0
M  V30 30 H -0.6157 -1.553 -4.1162 0
M  V30 31 H 2.1207 0.7816 -1.2238 0
M  V30 32 H 1.4284 0.1954 0.2865 0
M  V30 33 H 2.6911 -1.978 0.0168 0
M  V30 34 H 3.4027 -1.3711 -1.4736 0
M  V30 35 H 4.963 -1.0894 0.4248 0
M  V30 36 H 4.4861 0.4978 -0.2026 0
M  V30 37 H 3.7685 -0.1159 1.3 0
M  V30 END ATOM
M  V30 BEGIN BOND
M  V30 1 1 1 2
M  V30 2 2 2 3
M  V30 3 1 2 4
M  V30 4 1 3 5
M  V30 5 2 4 6
M  V30 6 1 5 7
M  V30 7 2 5 8
M  V30 8 1 8 9
M  V30 9 1 9 10
M  V30 10 1 9 11
M  V30 11 1 10 12
M  V30 12 1 11 13
M  V30 13 2 13 14
M  V30 14 1 13 15
M  V30 15 1 14 16
M  V30 16 1 15 17
M  V30 17 1 15 18
M  V30 18 1 18 19
M  V30 19 1 19 20
M  V30 20 1 6 8
M  V30 21 2 16 17
M  V30 22 1 3 21
M  V30 23 1 4 22
M  V30 24 1 6 23
M  V30 25 1 9 24
M  V30 26 1 10 25
M  V30 27 1 11 26
M  V30 28 1 11 27
M  V30 29 1 12 28
M  V30 30 1 12 29
M  V30 31 1 16 30
M  V30 32 1 18 31
M  V30 33 1 18 32
M  V30 34 1 19 33
M  V30 35 1 19 34
M  V30 36 1 20 35
M  V30 37 1 20 36
M  V30 38 1 20 37
M  V30 END BOND
M  V30 BEGIN COLLECTION
M  V30 MDLV30/STERAC1 ATOMS=(1 9)
M  V30 END COLLECTION
M  V30 END CTAB
M  END
>  <NO.>
3842

>  <Name>
dacarbazine

>  <SMILES>
CCCn1ncnc1CC(NN)c1ccc(Br)cc1F

>  <logBB>


>  <Class>
1

>  <MW>
341.07

>  <nHBAcc>
4

>  <nHBDon>
2

>  <SLogP>
2.34

>  <TopoPSA>
68.76

>  <MMFF94 Energy>
79.575

$$$$
CCN(CCCNS(=O)(=O)N1C[C@H](C)O[C@@H](C)C1)c1ccccc1
Actelion Java MolfileCreator 2.0

  0  0  0  0  0  0              0 V3000
M  V30 BEGIN CTAB
M  V30 COUNTS 53 54 0 0 0
M  V30 BEGIN ATOM
M  V30 1 S 2.3072 0.5565 1.9887 0
M  V30 2 O 2.9233 1.0519 0.7831 0
M  V30 3 O 3.0515 0.4024 3.2139 0
M  V30 4 N 0.9215 1.4565 2.3046 0
M  V30 5 N 1.615 -0.9301 1.6355 0
M  V30 6 C 1.1601 2.9307 2.3585 0
M  V30 7 C 0.1596 1.0338 3.5197 0
M  V30 8 C 0.8159 -0.9953 0.3878 0
M  V30 9 C -0.194 3.6593 2.4276 0 CFG=1
M  V30 10 C -1.1731 1.8008 3.5946 0 CFG=1
M  V30 11 C -0.0535 -2.2473 0.443 0
M  V30 12 O -0.969 3.2249 3.56 0
M  V30 13 C 0.0081 5.1628 2.5666 0
M  V30 14 C -2.1735 1.3533 2.5296 0
M  V30 15 C -1.0604 -2.3406 -0.7054 0
M  V30 16 N -0.3996 -2.5749 -1.9967 0
M  V30 17 C -0.0869 -1.5492 -2.8857 0
M  V30 18 C -0.1159 -3.9843 -2.3141 0
M  V30 19 C -0.5205 -0.2234 -2.7007 0
M  V30 20 C 0.6945 -1.7669 -4.0365 0
M  V30 21 C -1.1576 -4.5527 -3.2674 0
M  V30 22 C -0.1942 0.8117 -3.5902 0
M  V30 23 C 1.0265 -0.741 -4.9339 0
M  V30 24 C 0.5821 0.5526 -4.7092 0
M  V30 25 H 2.3583 -1.6299 1.6441 0
M  V30 26 H 1.7664 3.1639 3.2425 0
M  V30 27 H 1.6971 3.2596 1.4626 0
M  V30 28 H -0.0395 -0.042 3.5003 0
M  V30 29 H 0.7558 1.2639 4.4114 0
M  V30 30 H 0.1753 -0.1126 0.3022 0
M  V30 31 H 1.4989 -1.0342 -0.4661 0
M  V30 32 H -0.7703 3.4728 1.5142 0
M  V30 33 H -1.6256 1.5903 4.571 0
M  V30 34 H -0.6131 -2.2521 1.3877 0
M  V30 35 H 0.5874 -3.1375 0.4626 0
M  V30 36 H 0.5386 5.4031 3.4947 0
M  V30 37 H -0.959 5.6747 2.6162 0
M  V30 38 H 0.5745 5.5682 1.7227 0
M  V30 39 H -2.4417 0.3009 2.6668 0
M  V30 40 H -1.7785 1.4679 1.5156 0
M  V30 41 H -3.0854 1.9572 2.5867 0
M  V30 42 H -1.7331 -1.4783 -0.7089 0
M  V30 43 H -1.725 -3.1899 -0.4958 0
M  V30 44 H -0.1384 -4.5847 -1.3954 0
M  V30 45 H 0.8982 -4.1187 -2.7047 0
M  V30 46 H -1.1379 0.0589 -1.8558 0
M  V30 47 H 1.0816 -2.7521 -4.2745 0
M  V30 48 H -1.1545 -4.034 -4.2308 0
M  V30 49 H -2.1641 -4.4643 -2.8449 0
M  V30 50 H -0.9594 -5.6127 -3.4546 0
M  V30 51 H -0.5529 1.8197 -3.3992 0
M  V30 52 H 1.6366 -0.9635 -5.8052 0
M  V30 53 H 0.8384 1.3511 -5.399 0
M  V30 END ATOM
M  V30 BEGIN BOND
M  V30 1 2 1 2
M  V30 2 2 1 3
M  V30 3 1 1 4
M  V30 4 1 1 5
M  V30 5 1 4 6
M  V30 6 1 4 7
M  V30 7 1 5 8
M  V30 8 1 6 9
M  V30 9 1 7 10
M  V30 10 1 8 11
M  V30 11 1 9 12
M  V30 12 1 9 13
M  V30 13 1 10 14
M  V30 14 1 11 15
M  V30 15 1 15 16
M  V30 16 1 16 17
M  V30 17 1 16 18
M  V30 18 2 17 19
M  V30 19 1 17 20
M  V30 20 1 18 21
M  V30 21 1 19 22
M  V30 22 2 20 23
M  V30 23 2 22 24
M  V30 24 1 10 12
M  V30 25 1 23 24
M  V30 26 1 5 25
M  V30 27 1 6 26
M  V30 28 1 6 27
M  V30 29 1 7 28
M  V30 30 1 7 29
M  V30 31 1 8 30
M  V30 32 1 8 31
M  V30 33 1 9 32
M  V30 34 1 10 33
M  V30 35 1 11 34
M  V30 36 1 11 35
M  V30 37 1 13 36
M  V30 38 1 13 37
M  V30 39 1 13 38
M  V30 40 1 14 39
M  V30 41 1 14 40
M  V30 42 1 14 41
M  V30 43 1 15 42
M  V30 44 1 15 43
M  V30 45 1 18 44
M  V30 46 1 18 45
M  V30 47 1 19 46
M  V30 48 1 20 47
M  V30 49 1 21 48
M  V30 50 1 21 49
M  V30 51 1 21 50
M  V30 52 1 22 51
M  V30 53 1 23 52
M  V30 54 1 24 53
M  V30 END BOND
M  V30 BEGIN COLLECTION
M  V30 MDLV30/STEABS ATOMS=(2 9 10)
M  V30 END COLLECTION
M  V30 END CTAB
M  END
>  <NO.>
3843

>  <Name>
prazosin

>  <SMILES>
CCN(CCCNS(=O)(=O)N1C[C@H](C)O[C@@H](C)C1)c1ccccc1

>  <logBB>


>  <Class>
-1

>  <MW>
355.19

>  <nHBAcc>
4

>  <nHBDon>
1

>  <SLogP>
1.85

>  <TopoPSA>
61.88

>  <MMFF94 Energy>
-116.68

$$$$
CCOC(=O)C1(C(=O)OCC)[C@H](c2ccc(OC)cc2)[C@H]1S(=O)(=O)c1ccccc1
Actelion Java MolfileCreator 2.0

  0  0  0  0  0  0              0 V3000
M  V30 BEGIN CTAB
M  V30 COUNTS 54 56 0 0 0
M  V30 BEGIN ATOM
M  V30 1 S -1.6974 0.4039 -2.1019 0
M  V30 2 O -1.305 1.6678 -2.6916 0
M  V30 3 O -3.0703 0.0854 -1.7736 0
M  V30 4 C -1.114 -0.8856 -3.1804 0
M  V30 5 C -0.6764 0.1683 -0.64 0 CFG=1
M  V30 6 C -0.0983 -0.6128 -4.1007 0
M  V30 7 C -1.6918 -2.1564 -3.1041 0
M  V30 8 C -0.6183 1.3611 0.3138 0
M  V30 9 C -1.3946 0.0772 0.6791 0 CFG=2
M  V30 10 C 0.3565 -1.6315 -4.9374 0
M  V30 11 C -1.2307 -3.1684 -3.9451 0
M  V30 12 C 0.6944 1.6321 0.9727 0
M  V30 13 C -1.4569 2.5799 0.064 0
M  V30 14 C -0.8986 -0.8786 1.7445 0
M  V30 15 C -0.2065 -2.9066 -4.8571 0
M  V30 16 O 0.7851 2.3419 1.9651 0
M  V30 17 O 1.7417 1.0427 0.3305 0
M  V30 18 O -2.6753 2.5318 -0.0277 0
M  V30 19 O -0.699 3.6848 -0.1724 0
M  V30 20 C -0.6846 -0.4514 3.0634 0
M  V30 21 C -0.5325 -2.1994 1.4352 0
M  V30 22 C 3.0121 1.2791 0.9486 0
M  V30 23 C -1.4532 4.8455 -0.5396 0
M  V30 24 C -0.1535 -1.3102 4.0309 0
M  V30 25 C -0.0027 -3.0649 2.4019 0
M  V30 26 C 4.0654 0.5254 0.1609 0
M  V30 27 C -0.4807 5.9845 -0.7752 0
M  V30 28 C 0.1883 -2.6218 3.7075 0
M  V30 29 O 0.6972 -3.3548 4.7425 0
M  V30 30 C 1.0174 -4.7135 4.4728 0
M  V30 31 H 0.2149 -0.4234 -0.7906 0
M  V30 32 H 0.337 0.3811 -4.178 0
M  V30 33 H -2.5014 -2.3625 -2.407 0
M  V30 34 H -2.4821 0.1539 0.6583 0
M  V30 35 H 1.1446 -1.431 -5.6596 0
M  V30 36 H -1.6758 -4.1597 -3.8989 0
M  V30 37 H 0.1461 -3.6964 -5.5166 0
M  V30 38 H -0.936 0.5677 3.3548 0
M  V30 39 H -0.6704 -2.5768 0.4239 0
M  V30 40 H 2.9951 0.9175 1.983 0
M  V30 41 H 3.2347 2.3518 0.9345 0
M  V30 42 H -2.1435 5.1094 0.2694 0
M  V30 43 H -2.0176 4.6455 -1.4573 0
M  V30 44 H -0.0052 -0.948 5.0457 0
M  V30 45 H 0.25 -4.0751 2.0982 0
M  V30 46 H 5.0582 0.6748 0.5944 0
M  V30 47 H 3.8425 -0.5465 0.1477 0
M  V30 48 H 4.0802 0.8603 -0.8814 0
M  V30 49 H -1.0108 6.8979 -1.0591 0
M  V30 50 H 0.1069 6.1824 0.1273 0
M  V30 51 H 0.2296 5.7268 -1.5675 0
M  V30 52 H 0.1298 -5.2752 4.1631 0
M  V30 53 H 1.3872 -5.1604 5.4006 0
M  V30 54 H 1.8144 -4.7894 3.7258 0
M  V30 END ATOM
M  V30 BEGIN BOND
M  V30 1 2 1 2
M  V30 2 2 1 3
M  V30 3 1 1 4
M  V30 4 1 1 5
M  V30 5 2 4 6
M  V30 6 1 4 7
M  V30 7 1 5 8
M  V30 8 1 5 9
M  V30 9 1 6 10
M  V30 10 2 7 11
M  V30 11 1 8 12
M  V30 12 1 8 13
M  V30 13 1 9 14
M  V30 14 2 10 15
M  V30 15 2 12 16
M  V30 16 1 12 17
M  V30 17 2 13 18
M  V30 18 1 13 19
M  V30 19 2 14 20
M  V30 20 1 14 21
M  V30 21 1 17 22
M  V30 22 1 19 23
M  V30 23 1 20 24
M  V30 24 2 21 25
M  V30 25 1 22 26
M  V30 26 1 23 27
M  V30 27 2 24 28
M  V30 28 1 28 29
M  V30 29 1 29 30
M  V30 30 1 8 9
M  V30 31 1 11 15
M  V30 32 1 25 28
M  V30 33 1 5 31
M  V30 34 1 6 32
M  V30 35 1 7 33
M  V30 36 1 9 34
M  V30 37 1 10 35
M  V30 38 1 11 36
M  V30 39 1 15 37
M  V30 40 1 20 38
M  V30 41 1 21 39
M  V30 42 1 22 40
M  V30 43 1 22 41
M  V30 44 1 23 42
M  V30 45 1 23 43
M  V30 46 1 24 44
M  V30 47 1 25 45
M  V30 48 1 26 46
M  V30 49 1 26 47
M  V30 50 1 26 48
M  V30 51 1 27 49
M  V30 52 1 27 50
M  V30 53 1 27 51
M  V30 54 1 30 52
M  V30 55 1 30 53
M  V30 56 1 30 54
M  V30 END BOND
M  V30 BEGIN COLLECTION
M  V30 MDLV30/STEABS ATOMS=(2 5 9)
M  V30 END COLLECTION
M  V30 END CTAB
M  END
>  <NO.>
3844

>  <Name>
itraconazole

>  <SMILES>
CCOC(=O)C1(C(=O)OCC)[C@H](c2ccc(OC)cc2)[C@H]1S(=O)(=O)c1ccccc1

>  <logBB>


>  <Class>
-1

>  <MW>
432.12

>  <nHBAcc>
7

>  <nHBDon>
0

>  <SLogP>
2.75

>  <TopoPSA>
95.97

>  <MMFF94 Energy>
4.5477

$$$$
CCOC(=O)[C@@]1(C#N)[C@H](c2ccc(OC)cc2)[C@@H]1S(=O)(=O)c1ccc(Cl)cc1
Actelion Java MolfileCreator 2.0

  0  0  0  0  0  0              0 V3000
M  V30 BEGIN CTAB
M  V30 COUNTS 46 48 0 0 0
M  V30 BEGIN ATOM
M  V30 1 Cl 3.126 2.138 -5.7641 0
M  V30 2 C 2.4202 1.1736 -4.527 0
M  V30 3 C 1.2784 0.4201 -4.8047 0
M  V30 4 C 2.9953 1.1478 -3.2559 0
M  V30 5 C 0.6994 -0.3606 -3.802 0
M  V30 6 C 2.4231 0.3679 -2.2486 0
M  V30 7 C 1.2683 -0.3705 -2.5237 0
M  V30 8 S 0.5186 -1.3604 -1.2489 0
M  V30 9 O 0.0454 -2.5732 -1.8863 0
M  V30 10 O 1.4308 -1.4058 -0.1304 0
M  V30 11 C -0.9567 -0.4335 -0.8278 0 CFG=2
M  V30 12 C -0.7962 0.7779 0.0761 0 CFG=1
M  V30 13 C -1.5274 -0.4878 0.5596 0 CFG=2
M  V30 14 C 0.4746 1.13 0.6565 0
M  V30 15 C -1.6569 1.9538 -0.3012 0
M  V30 16 C -1.0548 -1.4222 1.649 0
M  V30 17 N 1.486 1.4772 1.1076 0
M  V30 18 O -2.754 1.7991 -0.8222 0
M  V30 19 O -1.0868 3.1574 -0.0294 0
M  V30 20 C -0.553 -0.9576 2.8759 0
M  V30 21 C -1.0442 -2.8129 1.4488 0
M  V30 22 C -1.8498 4.3202 -0.3883 0
M  V30 23 C -0.0735 -1.8341 3.8602 0
M  V30 24 C -0.5702 -3.6913 2.4288 0
M  V30 25 C -1.5799 4.6926 -1.834 0
M  V30 26 C -0.0785 -3.2078 3.6387 0
M  V30 27 O 0.3547 -4.1677 4.5097 0
M  V30 28 C 0.9777 -3.7136 5.7046 0
M  V30 29 H 0.8426 0.4314 -5.801 0
M  V30 30 H 3.8916 1.7267 -3.0442 0
M  V30 31 H -0.1786 -0.9618 -4.03 0
M  V30 32 H 2.8881 0.3433 -1.2635 0
M  V30 33 H -1.68 -0.3856 -1.6336 0
M  V30 34 H -2.6166 -0.3924 0.589 0
M  V30 35 H -0.5339 0.108 3.095 0
M  V30 36 H -1.4107 -3.2355 0.5146 0
M  V30 37 H -1.5239 5.1326 0.2694 0
M  V30 38 H -2.9194 4.1657 -0.2059 0
M  V30 39 H 0.2986 -1.4054 4.7847 0
M  V30 40 H -0.575 -4.7618 2.2381 0
M  V30 41 H -2.1103 5.6102 -2.1038 0
M  V30 42 H -0.5077 4.8425 -1.9985 0
M  V30 43 H -1.8968 3.8933 -2.5114 0
M  V30 44 H 1.8588 -3.1012 5.4851 0
M  V30 45 H 1.3143 -4.5935 6.2613 0
M  V30 46 H 0.2667 -3.1718 6.3372 0
M  V30 END ATOM
M  V30 BEGIN BOND
M  V30 1 1 1 2
M  V30 2 2 2 3
M  V30 3 1 2 4
M  V30 4 1 3 5
M  V30 5 2 4 6
M  V30 6 2 5 7
M  V30 7 1 7 8
M  V30 8 2 8 9
M  V30 9 2 8 10
M  V30 10 1 8 11
M  V30 11 1 11 12
M  V30 12 1 11 13
M  V30 13 1 12 14
M  V30 14 1 12 15
M  V30 15 1 13 16
M  V30 16 3 14 17
M  V30 17 2 15 18
M  V30 18 1 15 19
M  V30 19 2 16 20
M  V30 20 1 16 21
M  V30 21 1 19 22
M  V30 22 1 20 23
M  V30 23 2 21 24
M  V30 24 1 22 25
M  V30 25 2 23 26
M  V30 26 1 26 27
M  V30 27 1 27 28
M  V30 28 1 6 7
M  V30 29 1 12 13
M  V30 30 1 24 26
M  V30 31 1 3 29
M  V30 32 1 4 30
M  V30 33 1 5 31
M  V30 34 1 6 32
M  V30 35 1 11 33
M  V30 36 1 13 34
M  V30 37 1 20 35
M  V30 38 1 21 36
M  V30 39 1 22 37
M  V30 40 1 22 38
M  V30 41 1 23 39
M  V30 42 1 24 40
M  V30 43 1 25 41
M  V30 44 1 25 42
M  V30 45 1 25 43
M  V30 46 1 28 44
M  V30 47 1 28 45
M  V30 48 1 28 46
M  V30 END BOND
M  V30 BEGIN COLLECTION
M  V30 MDLV30/STEABS ATOMS=(3 11 12 13)
M  V30 END COLLECTION
M  V30 END CTAB
M  END
>  <NO.>
3845

>  <Name>
orphenadrine

>  <SMILES>
CCOC(=O)[C@@]1(C#N)[C@H](c2ccc(OC)cc2)[C@@H]1S(=O)(=O)c1ccc(Cl)cc1

>  <logBB>


>  <Class>
1

>  <MW>
419.06

>  <nHBAcc>
6

>  <nHBDon>
0

>  <SLogP>
3.36

>  <TopoPSA>
93.46

>  <MMFF94 Energy>
21.034

$$$$
CCOC(=O)[C@@]1(CN)[C@@H](S(=O)(=O)CC)[C@@H]1c1ccc(OC)cc1
Actelion Java MolfileCreator 2.0

  0  0  0  0  0  0              0 V3000
M  V30 BEGIN CTAB
M  V30 COUNTS 46 47 0 0 0
M  V30 BEGIN ATOM
M  V30 1 S -1.5227 -0.0801 2.2446 0
M  V30 2 O -0.9271 0.1156 3.5502 0
M  V30 3 O -2.5031 0.8427 1.7079 0
M  V30 4 C -0.1468 -0.2148 1.077 0 CFG=2
M  V30 5 C -2.2718 -1.6944 2.218 0
M  V30 6 C 0.3563 1.0437 0.4051 0 CFG=1
M  V30 7 C -0.5561 0.0585 -0.3524 0 CFG=1
M  V30 8 C -1.3657 -2.7926 2.7335 0
M  V30 9 C -0.234 2.3978 0.6391 0
M  V30 10 C 1.8338 1.0695 0.0548 0
M  V30 11 C -0.0412 -0.7758 -1.5024 0
M  V30 12 O -0.482 3.1465 -0.2959 0
M  V30 13 O -0.3362 2.6955 1.9572 0
M  V30 14 N 2.6187 1.4454 1.2239 0
M  V30 15 C 0.1635 -2.1589 -1.4006 0
M  V30 16 C 0.3048 -0.1642 -2.7194 0
M  V30 17 C -0.8885 3.9857 2.2288 0
M  V30 18 C 0.6811 -2.8955 -2.4711 0
M  V30 19 C 0.8229 -0.8978 -3.7939 0
M  V30 20 C -1.0394 4.1264 3.7308 0
M  V30 21 C 1.0133 -2.2709 -3.6727 0
M  V30 22 O 1.5093 -3.1053 -4.6345 0
M  V30 23 C 1.836 -2.5178 -5.8879 0
M  V30 24 H 0.5827 -0.9786 1.3009 0
M  V30 25 H -2.584 -1.8947 1.1886 0
M  V30 26 H -3.1711 -1.6297 2.8393 0
M  V30 27 H -1.5719 0.4176 -0.5256 0
M  V30 28 H -1.8932 -3.7515 2.7237 0
M  V30 29 H -0.4693 -2.8976 2.1166 0
M  V30 30 H -1.0449 -2.594 3.7608 0
M  V30 31 H 2.1939 0.0952 -0.2912 0
M  V30 32 H 2.0126 1.7895 -0.7512 0
M  V30 33 H 2.5165 0.754 1.9649 0
M  V30 34 H 3.6079 1.461 0.979 0
M  V30 35 H -0.0862 -2.6866 -0.4844 0
M  V30 36 H 0.164 0.9105 -2.8367 0
M  V30 37 H -1.869 4.0822 1.7489 0
M  V30 38 H -0.2141 4.7609 1.8489 0
M  V30 39 H 0.8254 -3.9684 -2.3672 0
M  V30 40 H 1.0649 -0.3622 -4.7057 0
M  V30 41 H -1.4575 5.1026 3.9915 0
M  V30 42 H -1.6949 3.3435 4.1267 0
M  V30 43 H -0.0707 4.0117 4.2281 0
M  V30 44 H 0.9516 -2.0777 -6.3605 0
M  V30 45 H 2.2031 -3.3128 -6.5438 0
M  V30 46 H 2.6365 -1.7786 -5.78 0
M  V30 END ATOM
M  V30 BEGIN BOND
M  V30 1 2 1 2
M  V30 2 2 1 3
M  V30 3 1 1 4
M  V30 4 1 1 5
M  V30 5 1 4 6
M  V30 6 1 4 7
M  V30 7 1 5 8
M  V30 8 1 6 9
M  V30 9 1 6 10
M  V30 10 1 7 11
M  V30 11 2 9 12
M  V30 12 1 9 13
M  V30 13 1 10 14
M  V30 14 2 11 15
M  V30 15 1 11 16
M  V30 16 1 13 17
M  V30 17 1 15 18
M  V30 18 2 16 19
M  V30 19 1 17 20
M  V30 20 2 18 21
M  V30 21 1 21 22
M  V30 22 1 22 23
M  V30 23 1 6 7
M  V30 24 1 19 21
M  V30 25 1 4 24
M  V30 26 1 5 25
M  V30 27 1 5 26
M  V30 28 1 7 27
M  V30 29 1 8 28
M  V30 30 1 8 29
M  V30 31 1 8 30
M  V30 32 1 10 31
M  V30 33 1 10 32
M  V30 34 1 14 33
M  V30 35 1 14 34
M  V30 36 1 15 35
M  V30 37 1 16 36
M  V30 38 1 17 37
M  V30 39 1 17 38
M  V30 40 1 18 39
M  V30 41 1 19 40
M  V30 42 1 20 41
M  V30 43 1 20 42
M  V30 44 1 20 43
M  V30 45 1 23 44
M  V30 46 1 23 45
M  V30 47 1 23 46
M  V30 END BOND
M  V30 BEGIN COLLECTION
M  V30 MDLV30/STEABS ATOMS=(3 4 6 7)
M  V30 END COLLECTION
M  V30 END CTAB
M  END
>  <NO.>
3846

>  <Name>
fluphenazine

>  <SMILES>
CCOC(=O)[C@@]1(CN)[C@@H](S(=O)(=O)CC)[C@@H]1c1ccc(OC)cc1

>  <logBB>


>  <Class>
1

>  <MW>
341.13

>  <nHBAcc>
6

>  <nHBDon>
1

>  <SLogP>
1.1

>  <TopoPSA>
95.69

>  <MMFF94 Energy>
0.73926

$$$$
CCOC(=O)[C@]1(CN)[C@H](c2ccc(OC)cc2)[C@@H]1S(=O)(=O)CC
Actelion Java MolfileCreator 2.0

  0  0  0  0  0  0              0 V3000
M  V30 BEGIN CTAB
M  V30 COUNTS 46 47 0 0 0
M  V30 BEGIN ATOM
M  V30 1 S -1.042 -0.8015 -1.2826 0
M  V30 2 O 0.2587 -1.1194 -0.7359 0
M  V30 3 O -2.1694 -1.6945 -1.0777 0
M  V30 4 C -1.6162 0.7933 -0.6749 0 CFG=2
M  V30 5 C -0.9012 -0.5587 -3.0443 0
M  V30 6 C -0.6265 1.8647 -0.2629 0 CFG=1
M  V30 7 C -1.4484 1.1054 0.7918 0 CFG=2
M  V30 8 C -0.4463 -1.8228 -3.7459 0
M  V30 9 C 0.8584 1.7067 -0.3581 0
M  V30 10 C -1.0536 3.3142 -0.4764 0
M  V30 11 C -0.8903 0.174 1.8465 0
M  V30 12 O 1.6051 2.2017 0.476 0
M  V30 13 O 1.2576 1.2117 -1.5588 0
M  V30 14 N -1.4927 3.5136 -1.8574 0
M  V30 15 C 0.2049 0.5203 2.6505 0
M  V30 16 C -1.4321 -1.1068 2.0528 0
M  V30 17 C 2.6794 1.1155 -1.7005 0
M  V30 18 C 0.7341 -0.3636 3.599 0
M  V30 19 C -0.906 -2.0 2.9974 0
M  V30 20 C 2.9807 0.4424 -3.025 0
M  V30 21 C 0.1868 -1.6316 3.7737 0
M  V30 22 O 0.7956 -2.3979 4.7277 0
M  V30 23 C 0.339 -3.7383 4.8554 0
M  V30 24 H -2.5566 1.096 -1.1159 0
M  V30 25 H -0.2004 0.2537 -3.236 0
M  V30 26 H -1.8885 -0.2583 -3.409 0
M  V30 27 H -2.294 1.6591 1.2062 0
M  V30 28 H -0.3707 -1.6531 -4.8241 0
M  V30 29 H 0.5332 -2.1465 -3.381 0
M  V30 30 H -1.152 -2.6426 -3.5781 0
M  V30 31 H -1.8613 3.6097 0.2027 0
M  V30 32 H -0.2168 3.9912 -0.2689 0
M  V30 33 H -2.4833 3.2852 -1.9362 0
M  V30 34 H -1.4396 4.5112 -2.0729 0
M  V30 35 H 0.6595 1.5042 2.5654 0
M  V30 36 H -2.2936 -1.4308 1.4716 0
M  V30 37 H 3.0987 0.521 -0.8808 0
M  V30 38 H 3.1165 2.1202 -1.6899 0
M  V30 39 H 1.5859 -0.0556 4.2001 0
M  V30 40 H -1.3772 -2.9721 3.0923 0
M  V30 41 H 4.0593 0.3658 -3.1871 0
M  V30 42 H 2.5484 -0.5628 -3.0524 0
M  V30 43 H 2.5362 1.0034 -3.8536 0
M  V30 44 H -0.6998 -3.7687 5.2003 0
M  V30 45 H 0.9553 -4.2303 5.6141 0
M  V30 46 H 0.4614 -4.2907 3.9178 0
M  V30 END ATOM
M  V30 BEGIN BOND
M  V30 1 2 1 2
M  V30 2 2 1 3
M  V30 3 1 1 4
M  V30 4 1 1 5
M  V30 5 1 4 6
M  V30 6 1 4 7
M  V30 7 1 5 8
M  V30 8 1 6 9
M  V30 9 1 6 10
M  V30 10 1 7 11
M  V30 11 2 9 12
M  V30 12 1 9 13
M  V30 13 1 10 14
M  V30 14 2 11 15
M  V30 15 1 11 16
M  V30 16 1 13 17
M  V30 17 1 15 18
M  V30 18 2 16 19
M  V30 19 1 17 20
M  V30 20 2 18 21
M  V30 21 1 21 22
M  V30 22 1 22 23
M  V30 23 1 6 7
M  V30 24 1 19 21
M  V30 25 1 4 24
M  V30 26 1 5 25
M  V30 27 1 5 26
M  V30 28 1 7 27
M  V30 29 1 8 28
M  V30 30 1 8 29
M  V30 31 1 8 30
M  V30 32 1 10 31
M  V30 33 1 10 32
M  V30 34 1 14 33
M  V30 35 1 14 34
M  V30 36 1 15 35
M  V30 37 1 16 36
M  V30 38 1 17 37
M  V30 39 1 17 38
M  V30 40 1 18 39
M  V30 41 1 19 40
M  V30 42 1 20 41
M  V30 43 1 20 42
M  V30 44 1 20 43
M  V30 45 1 23 44
M  V30 46 1 23 45
M  V30 47 1 23 46
M  V30 END BOND
M  V30 BEGIN COLLECTION
M  V30 MDLV30/STEABS ATOMS=(3 4 6 7)
M  V30 END COLLECTION
M  V30 END CTAB
M  END
>  <NO.>
3847

>  <Name>
fluconazole

>  <SMILES>
CCOC(=O)[C@]1(CN)[C@H](c2ccc(OC)cc2)[C@@H]1S(=O)(=O)CC

>  <logBB>


>  <Class>
1

>  <MW>
341.13

>  <nHBAcc>
6

>  <nHBDon>
1

>  <SLogP>
1.1

>  <TopoPSA>
95.69

>  <MMFF94 Energy>
7.1436

$$$$
CCOC(=O)[C@]1(N)[C@@H](S(=O)(=O)CC)[C@@H]1c1ccc2c(c1)OCO2
Actelion Java MolfileCreator 2.0

  0  0  0  0  0  0              0 V3000
M  V30 BEGIN CTAB
M  V30 COUNTS 42 44 0 0 0
M  V30 BEGIN ATOM
M  V30 1 S 1.8698 -2.2766 1.5444 0
M  V30 2 O 3.1807 -2.1334 0.9386 0
M  V30 3 O 1.6333 -1.9808 2.9426 0
M  V30 4 C 0.7375 -1.2895 0.5582 0 CFG=2
M  V30 5 C 1.311 -3.941 1.2431 0
M  V30 6 C 1.2406 0.0972 0.1912 0 CFG=1
M  V30 7 C 0.1284 -0.0931 1.2273 0 CFG=1
M  V30 8 C 2.151 -4.9585 1.9881 0
M  V30 9 N 2.4898 0.7089 0.7515 0
M  V30 10 C 0.9437 0.5084 -1.2422 0
M  V30 11 C -1.2926 0.3425 0.9444 0
M  V30 12 O 0.0623 -0.0139 -1.9119 0
M  V30 13 O 1.7522 1.5252 -1.6625 0
M  V30 14 C -1.5803 1.6844 0.627 0
M  V30 15 C -2.3569 -0.5928 0.8945 0
M  V30 16 C 1.4765 1.9759 -2.9933 0
M  V30 17 C -2.8752 2.0368 0.3066 0
M  V30 18 C -3.6644 -0.2118 0.5688 0
M  V30 19 C 2.4307 3.1092 -3.3152 0
M  V30 20 O -3.302 3.2875 -0.0144 0
M  V30 21 C -3.8899 1.1134 0.2795 0
M  V30 22 C -4.7054 3.0429 -0.2439 0
M  V30 23 O -5.0857 1.6635 -0.059 0
M  V30 24 H 0.1564 -1.8302 -0.176 0
M  V30 25 H 1.3663 -4.117 0.1649 0
M  V30 26 H 0.2665 -3.9994 1.5636 0
M  V30 27 H 0.4227 0.0922 2.2608 0
M  V30 28 H 1.7894 -5.9712 1.7862 0
M  V30 29 H 3.2006 -4.9029 1.6825 0
M  V30 30 H 2.1086 -4.7898 3.0689 0
M  V30 31 H 3.2654 0.0408 0.6699 0
M  V30 32 H 2.7653 1.5053 0.1696 0
M  V30 33 H -0.8 2.4392 0.638 0
M  V30 34 H -2.1638 -1.6385 1.1241 0
M  V30 35 H 0.4428 2.334 -3.0565 0
M  V30 36 H 1.6271 1.1531 -3.7008 0
M  V30 37 H -4.4714 -0.9348 0.5412 0
M  V30 38 H 2.2589 3.4889 -4.3261 0
M  V30 39 H 2.3069 3.9314 -2.6026 0
M  V30 40 H 3.4696 2.7727 -3.2353 0
M  V30 41 H -5.287 3.6628 0.4481 0
M  V30 42 H -4.9493 3.3391 -1.2706 0
M  V30 END ATOM
M  V30 BEGIN BOND
M  V30 1 2 1 2
M  V30 2 2 1 3
M  V30 3 1 1 4
M  V30 4 1 1 5
M  V30 5 1 4 6
M  V30 6 1 4 7
M  V30 7 1 5 8
M  V30 8 1 6 9
M  V30 9 1 6 10
M  V30 10 1 7 11
M  V30 11 2 10 12
M  V30 12 1 10 13
M  V30 13 2 11 14
M  V30 14 1 11 15
M  V30 15 1 13 16
M  V30 16 1 14 17
M  V30 17 2 15 18
M  V30 18 1 16 19
M  V30 19 1 17 20
M  V30 20 2 17 21
M  V30 21 1 20 22
M  V30 22 1 21 23
M  V30 23 1 6 7
M  V30 24 1 18 21
M  V30 25 1 22 23
M  V30 26 1 4 24
M  V30 27 1 5 25
M  V30 28 1 5 26
M  V30 29 1 7 27
M  V30 30 1 8 28
M  V30 31 1 8 29
M  V30 32 1 8 30
M  V30 33 1 9 31
M  V30 34 1 9 32
M  V30 35 1 14 33
M  V30 36 1 15 34
M  V30 37 1 16 35
M  V30 38 1 16 36
M  V30 39 1 18 37
M  V30 40 1 19 38
M  V30 41 1 19 39
M  V30 42 1 19 40
M  V30 43 1 22 41
M  V30 44 1 22 42
M  V30 END BOND
M  V30 BEGIN COLLECTION
M  V30 MDLV30/STEABS ATOMS=(3 4 6 7)
M  V30 END COLLECTION
M  V30 END CTAB
M  END
>  <NO.>
3848

>  <Name>
trihexyphenidyl

>  <SMILES>
CCOC(=O)[C@]1(N)[C@@H](S(=O)(=O)CC)[C@@H]1c1ccc2c(c1)OCO2

>  <logBB>


>  <Class>
1

>  <MW>
341.09

>  <nHBAcc>
7

>  <nHBDon>
1

>  <SLogP>
0.58

>  <TopoPSA>
104.92

>  <MMFF94 Energy>
46.177

$$$$
CCOC(=O)[C@]1(N)[C@@H](S(=O)(=O)c2ccc(C)cc2)[C@@H]1c1ccccc1
Actelion Java MolfileCreator 2.0

  0  0  0  0  0  0              0 V3000
M  V30 BEGIN CTAB
M  V30 COUNTS 46 48 0 0 0
M  V30 BEGIN ATOM
M  V30 1 S -2.5106 -0.0809 0.6474 0
M  V30 2 O -2.5481 -0.4891 2.0413 0
M  V30 3 O -3.6424 -0.3634 -0.217 0
M  V30 4 C -2.2452 1.6693 0.574 0
M  V30 5 C -1.1184 -0.9076 -0.1148 0 CFG=2
M  V30 6 C -1.8351 2.3654 1.7123 0
M  V30 7 C -2.5005 2.3473 -0.6214 0
M  V30 8 C 0.1181 -1.073 0.7487 0 CFG=1
M  V30 9 C 0.1129 -0.1185 -0.4478 0 CFG=1
M  V30 10 C -1.6428 3.7462 1.6415 0
M  V30 11 C -2.3068 3.7279 -0.6847 0
M  V30 12 N 0.3081 -0.3844 2.0715 0
M  V30 13 C 0.7589 -2.451 0.6769 0
M  V30 14 C 0.9268 -0.4052 -1.6894 0
M  V30 15 C -1.8616 4.4348 0.4405 0
M  V30 16 O 0.5835 -3.2176 -0.2596 0
M  V30 17 O 1.5521 -2.699 1.7614 0
M  V30 18 C 2.3304 -0.4621 -1.6283 0
M  V30 19 C 0.3234 -0.6927 -2.9252 0
M  V30 20 C -1.6876 5.9243 0.3793 0
M  V30 21 C 2.2142 -3.9718 1.7637 0
M  V30 22 C 3.0987 -0.7679 -2.7543 0
M  V30 23 C 1.087 -0.9997 -4.0547 0
M  V30 24 C 1.3093 -5.0314 2.3639 0
M  V30 25 C 2.4753 -1.0356 -3.9689 0
M  V30 26 H -1.3962 -1.7332 -0.7572 0
M  V30 27 H -1.6607 1.8476 2.6525 0
M  V30 28 H -2.8553 1.8142 -1.5007 0
M  V30 29 H 0.1358 0.9359 -0.184 0
M  V30 30 H -1.323 4.2841 2.532 0
M  V30 31 H -2.5107 4.2522 -1.6163 0
M  V30 32 H -0.4634 -0.6581 2.6939 0
M  V30 33 H 1.1433 -0.7724 2.5224 0
M  V30 34 H 2.8368 -0.2581 -0.6868 0
M  V30 35 H -0.7603 -0.6776 -3.0188 0
M  V30 36 H -2.6258 6.4217 0.6438 0
M  V30 37 H -0.9044 6.2545 1.0698 0
M  V30 38 H -1.3891 6.2415 -0.6253 0
M  V30 39 H 3.1122 -3.8632 2.3806 0
M  V30 40 H 2.5479 -4.2503 0.7575 0
M  V30 41 H 4.1823 -0.8005 -2.68 0
M  V30 42 H 0.5947 -1.2168 -4.9991 0
M  V30 43 H 1.8263 -5.9931 2.4258 0
M  V30 44 H 0.9875 -4.7377 3.3686 0
M  V30 45 H 0.4026 -5.1599 1.7644 0
M  V30 46 H 3.0696 -1.2779 -4.8457 0
M  V30 END ATOM
M  V30 BEGIN BOND
M  V30 1 2 1 2
M  V30 2 2 1 3
M  V30 3 1 1 4
M  V30 4 1 1 5
M  V30 5 2 4 6
M  V30 6 1 4 7
M  V30 7 1 5 8
M  V30 8 1 5 9
M  V30 9 1 6 10
M  V30 10 2 7 11
M  V30 11 1 8 12
M  V30 12 1 8 13
M  V30 13 1 9 14
M  V30 14 2 10 15
M  V30 15 2 13 16
M  V30 16 1 13 17
M  V30 17 2 14 18
M  V30 18 1 14 19
M  V30 19 1 15 20
M  V30 20 1 17 21
M  V30 21 1 18 22
M  V30 22 2 19 23
M  V30 23 1 21 24
M  V30 24 2 22 25
M  V30 25 1 8 9
M  V30 26 1 11 15
M  V30 27 1 23 25
M  V30 28 1 5 26
M  V30 29 1 6 27
M  V30 30 1 7 28
M  V30 31 1 9 29
M  V30 32 1 10 30
M  V30 33 1 11 31
M  V30 34 1 12 32
M  V30 35 1 12 33
M  V30 36 1 18 34
M  V30 37 1 19 35
M  V30 38 1 20 36
M  V30 39 1 20 37
M  V30 40 1 20 38
M  V30 41 1 21 39
M  V30 42 1 21 40
M  V30 43 1 22 41
M  V30 44 1 23 42
M  V30 45 1 24 43
M  V30 46 1 24 44
M  V30 47 1 24 45
M  V30 48 1 25 46
M  V30 END BOND
M  V30 BEGIN COLLECTION
M  V30 MDLV30/STEABS ATOMS=(3 5 8 9)
M  V30 END COLLECTION
M  V30 END CTAB
M  END
>  <NO.>
3849

>  <Name>
amphotericin b

>  <SMILES>
CCOC(=O)[C@]1(N)[C@@H](S(=O)(=O)c2ccc(C)cc2)[C@@H]1c1ccccc1

>  <logBB>


>  <Class>
-1

>  <MW>
359.12

>  <nHBAcc>
5

>  <nHBDon>
1

>  <SLogP>
2.2

>  <TopoPSA>
86.46

>  <MMFF94 Energy>
89.504

$$$$
CCOC(=O)[C@]1(N)[C@@H](S(C)(=O)=O)[C@@H]1c1ccc2c(c1)OCO2
Actelion Java MolfileCreator 2.0

  0  0  0  0  0  0              0 V3000
M  V30 BEGIN CTAB
M  V30 COUNTS 39 41 0 0 0
M  V30 BEGIN ATOM
M  V30 1 S 2.0391 -2.3657 1.9575 0
M  V30 2 O 3.4346 -2.3865 1.5614 0
M  V30 3 O 1.6316 -2.163 3.3325 0
M  V30 4 C 1.2257 -1.1455 0.9172 0 CFG=2
M  V30 5 C 1.3169 -3.8926 1.4212 0
M  V30 6 C 1.8738 0.2266 0.9053 0 CFG=1
M  V30 7 C 0.5411 -0.011 1.6248 0 CFG=1
M  V30 8 N 3.0172 0.5957 1.7971 0
M  V30 9 C 1.9114 0.9855 -0.4097 0
M  V30 10 C -0.7512 0.5736 1.0921 0
M  V30 11 O 2.5011 2.055 -0.5083 0
M  V30 12 O 1.2652 0.3452 -1.4227 0
M  V30 13 C -1.7928 -0.2486 0.6231 0
M  V30 14 C -0.9024 1.9775 0.9532 0
M  V30 15 C 1.2355 1.077 -2.6527 0
M  V30 16 C -2.9138 0.3377 0.071 0
M  V30 17 C -2.0488 2.5502 0.39 0
M  V30 18 C 0.3706 0.3101 -3.6337 0
M  V30 19 O -3.9945 -0.3256 -0.4204 0
M  V30 20 C -3.0384 1.6997 -0.0423 0
M  V30 21 C -4.8228 0.7801 -0.8387 0
M  V30 22 O -4.2132 2.0685 -0.617 0
M  V30 23 H 0.8028 -1.5285 6.0E-4 0
M  V30 24 H 1.7626 -4.7037 2.0006 0
M  V30 25 H 1.5296 -4.0315 0.3597 0
M  V30 26 H 0.2404 -3.8544 1.5983 0
M  V30 27 H 0.5944 0.0 2.7134 0
M  V30 28 H 3.8125 -0.0264 1.621 0
M  V30 29 H 3.3498 1.5314 1.54 0
M  V30 30 H -1.7322 -1.3289 0.6945 0
M  V30 31 H -0.1048 2.6368 1.2971 0
M  V30 32 H 2.2532 1.171 -3.0469 0
M  V30 33 H 0.8088 2.0729 -2.4871 0
M  V30 34 H -2.1514 3.6253 0.2958 0
M  V30 35 H 0.3169 0.8285 -4.595 0
M  V30 36 H 0.7706 -0.6961 -3.7957 0
M  V30 37 H -0.6439 0.1897 -3.2393 0
M  V30 38 H -5.0354 0.6727 -1.9085 0
M  V30 39 H -5.7687 0.739 -0.2861 0
M  V30 END ATOM
M  V30 BEGIN BOND
M  V30 1 2 1 2
M  V30 2 2 1 3
M  V30 3 1 1 4
M  V30 4 1 1 5
M  V30 5 1 4 6
M  V30 6 1 4 7
M  V30 7 1 6 8
M  V30 8 1 6 9
M  V30 9 1 7 10
M  V30 10 2 9 11
M  V30 11 1 9 12
M  V30 12 2 10 13
M  V30 13 1 10 14
M  V30 14 1 12 15
M  V30 15 1 13 16
M  V30 16 2 14 17
M  V30 17 1 15 18
M  V30 18 1 16 19
M  V30 19 2 16 20
M  V30 20 1 19 21
M  V30 21 1 20 22
M  V30 22 1 6 7
M  V30 23 1 17 20
M  V30 24 1 21 22
M  V30 25 1 4 23
M  V30 26 1 5 24
M  V30 27 1 5 25
M  V30 28 1 5 26
M  V30 29 1 7 27
M  V30 30 1 8 28
M  V30 31 1 8 29
M  V30 32 1 13 30
M  V30 33 1 14 31
M  V30 34 1 15 32
M  V30 35 1 15 33
M  V30 36 1 17 34
M  V30 37 1 18 35
M  V30 38 1 18 36
M  V30 39 1 18 37
M  V30 40 1 21 38
M  V30 41 1 21 39
M  V30 END BOND
M  V30 BEGIN COLLECTION
M  V30 MDLV30/STEABS ATOMS=(3 4 6 7)
M  V30 END COLLECTION
M  V30 END CTAB
M  END
>  <NO.>
3850

>  <Name>
scopolamine

>  <SMILES>
CCOC(=O)[C@]1(N)[C@@H](S(C)(=O)=O)[C@@H]1c1ccc2c(c1)OCO2

>  <logBB>


>  <Class>
-1

>  <MW>
327.08

>  <nHBAcc>
7

>  <nHBDon>
1

>  <SLogP>
0.19

>  <TopoPSA>
104.92

>  <MMFF94 Energy>
51.241

$$$$
CCOC(=O)c1c[nH]c(=O)c2c1OC(=O)C[C@@H]2c1ccc2c(c1)n(C)c(=O)n2C
Actelion Java MolfileCreator 2.0

  0  0  0  0  0  0              0 V3000
M  V30 BEGIN CTAB
M  V30 COUNTS 48 51 0 0 0
M  V30 BEGIN ATOM
M  V30 1 O 1.9266 -0.8024 2.4891 0
M  V30 2 C 1.726 0.3054 2.0067 0
M  V30 3 N 1.6719 1.4397 2.7816 0
M  V30 4 C 1.538 0.5125 0.5422 0
M  V30 5 C 1.5206 2.7106 2.2818 0
M  V30 6 C 1.4249 1.7644 0.0709 0
M  V30 7 C 1.5233 -0.6713 -0.3706 0 CFG=1
M  V30 8 C 1.4199 2.9135 0.958 0
M  V30 9 O 1.2187 2.0317 -1.2956 0
M  V30 10 C 0.1866 -1.413 -0.3359 0
M  V30 11 C 1.9707 -0.2473 -1.7709 0
M  V30 12 C 1.2976 4.3222 0.5101 0
M  V30 13 C 1.3672 1.0531 -2.2333 0
M  V30 14 C 0.0852 -2.5723 0.4619 0
M  V30 15 C -0.9596 -0.9608 -1.0423 0
M  V30 16 O 0.659 5.1723 1.1129 0
M  V30 17 O 2.0416 4.5218 -0.6057 0
M  V30 18 O 1.0823 1.2515 -3.4108 0
M  V30 19 C -1.1263 -3.2309 0.5082 0
M  V30 20 C -2.1807 -1.6481 -0.9845 0
M  V30 21 C 2.0052 5.8464 -1.1561 0
M  V30 22 N -1.5028 -4.3831 1.2089 0
M  V30 23 C -2.2354 -2.7801 -0.2037 0
M  V30 24 C 0.8215 5.9865 -2.0946 0
M  V30 25 C -2.8591 -4.6654 0.9363 0
M  V30 26 C -0.6498 -5.14 2.0778 0
M  V30 27 N -3.2976 -3.6554 0.0517 0
M  V30 28 O -3.5198 -5.5929 1.3766 0
M  V30 29 C -4.6186 -3.5392 -0.4925 0
M  V30 30 H 1.7708 1.2955 3.7812 0
M  V30 31 H 1.5076 3.5177 3.0103 0
M  V30 32 H 2.2947 -1.3795 -0.035 0
M  V30 33 H 1.7293 -1.027 -2.5031 0
M  V30 34 H 3.0594 -0.1065 -1.7911 0
M  V30 35 H 0.9315 -2.9332 1.0385 0
M  V30 36 H -0.9294 -0.0593 -1.6493 0
M  V30 37 H -3.0441 -1.2901 -1.5331 0
M  V30 38 H 2.9367 5.9869 -1.7141 0
M  V30 39 H 1.9842 6.6065 -0.3667 0
M  V30 40 H 0.816 6.9724 -2.5679 0
M  V30 41 H 0.8569 5.2193 -2.8751 0
M  V30 42 H -0.1229 5.851 -1.5579 0
M  V30 43 H 0.2086 -5.5101 1.51 0
M  V30 44 H -1.1929 -5.9907 2.4983 0
M  V30 45 H -0.3049 -4.499 2.8944 0
M  V30 46 H -5.0555 -2.5858 -0.1813 0
M  V30 47 H -4.5653 -3.5827 -1.5842 0
M  V30 48 H -5.2521 -4.355 -0.1337 0
M  V30 END ATOM
M  V30 BEGIN BOND
M  V30 1 2 1 2
M  V30 2 1 2 3
M  V30 3 1 2 4
M  V30 4 1 3 5
M  V30 5 2 4 6
M  V30 6 1 4 7
M  V30 7 2 5 8
M  V30 8 1 6 9
M  V30 9 1 7 10
M  V30 10 1 7 11
M  V30 11 1 8 12
M  V30 12 1 9 13
M  V30 13 2 10 14
M  V30 14 1 10 15
M  V30 15 2 12 16
M  V30 16 1 12 17
M  V30 17 2 13 18
M  V30 18 1 14 19
M  V30 19 2 15 20
M  V30 20 1 17 21
M  V30 21 1 19 22
M  V30 22 2 19 23
M  V30 23 1 21 24
M  V30 24 1 22 25
M  V30 25 1 22 26
M  V30 26 1 23 27
M  V30 27 2 25 28
M  V30 28 1 27 29
M  V30 29 1 6 8
M  V30 30 1 11 13
M  V30 31 1 20 23
M  V30 32 1 25 27
M  V30 33 1 3 30
M  V30 34 1 5 31
M  V30 35 1 7 32
M  V30 36 1 11 33
M  V30 37 1 11 34
M  V30 38 1 14 35
M  V30 39 1 15 36
M  V30 40 1 20 37
M  V30 41 1 21 38
M  V30 42 1 21 39
M  V30 43 1 24 40
M  V30 44 1 24 41
M  V30 45 1 24 42
M  V30 46 1 26 43
M  V30 47 1 26 44
M  V30 48 1 26 45
M  V30 49 1 29 46
M  V30 50 1 29 47
M  V30 51 1 29 48
M  V30 END BOND
M  V30 BEGIN COLLECTION
M  V30 MDLV30/STEABS ATOMS=(1 7)
M  V30 END COLLECTION
M  V30 END CTAB
M  END
>  <NO.>
3851

>  <Name>
testolactone

>  <SMILES>
CCOC(=O)c1c[nH]c(=O)c2c1OC(=O)C[C@@H]2c1ccc2c(c1)n(C)c(=O)n2C

>  <logBB>


>  <Class>
-1

>  <MW>
397.13

>  <nHBAcc>
6

>  <nHBDon>
1

>  <SLogP>
1.18

>  <TopoPSA>
112.39

>  <MMFF94 Energy>
-15.583

$$$$
CCOC(=O)c1c[nH]c(=O)c2c1OC(=O)C[C@H]2c1cc(Cl)c2c(c1)OCO2
Actelion Java MolfileCreator 2.0

  0  0  0  0  0  0              0 V3000
M  V30 BEGIN CTAB
M  V30 COUNTS 41 44 0 0 0
M  V30 BEGIN ATOM
M  V30 1 Cl 4.2602 -0.3272 1.555 0
M  V30 2 C 2.8447 0.4116 2.1899 0
M  V30 3 C 2.9166 1.4645 3.0773 0
M  V30 4 C 1.5809 -0.0524 1.8006 0
M  V30 5 O 4.0421 2.0524 3.5692 0
M  V30 6 C 1.7742 2.0495 3.5666 0
M  V30 7 C 0.398 0.5415 2.304 0
M  V30 8 C 3.4778 3.0714 4.4171 0
M  V30 9 O 2.0364 3.0727 4.424 0
M  V30 10 C 0.5133 1.6197 3.2015 0
M  V30 11 C -0.9938 0.0692 1.8929 0 CFG=1
M  V30 12 C -1.2687 0.2774 0.4393 0
M  V30 13 C -1.2689 -1.3864 2.2709 0
M  V30 14 C -1.6165 1.6412 -0.0481 0
M  V30 15 C -1.2486 -0.742 -0.4333 0
M  V30 16 C -0.7446 -2.3786 1.2665 0
M  V30 17 O -1.7136 2.5991 0.7084 0
M  V30 18 N -1.8314 1.7539 -1.4012 0
M  V30 19 O -0.8877 -2.0483 -0.0499 0
M  V30 20 C -1.5086 -0.5406 -1.8469 0
M  V30 21 O -0.2772 -3.4601 1.6094 0
M  V30 22 C -1.7844 0.7004 -2.2821 0
M  V30 23 C -1.5265 -1.6665 -2.8138 0
M  V30 24 O -2.0394 -2.7516 -2.5897 0
M  V30 25 O -0.887 -1.3079 -3.9578 0
M  V30 26 C -0.8226 -2.3488 -4.9406 0
M  V30 27 C -0.0803 -1.8123 -6.1487 0
M  V30 28 H 1.5347 -0.8769 1.0934 0
M  V30 29 H 3.8335 2.9127 5.4415 0
M  V30 30 H 3.8282 4.0506 4.071 0
M  V30 31 H -0.362 2.1254 3.6003 0
M  V30 32 H -1.7261 0.6575 2.4644 0
M  V30 33 H -0.836 -1.6175 3.2517 0
M  V30 34 H -2.3505 -1.5601 2.3431 0
M  V30 35 H -2.0543 2.6866 -1.7331 0
M  V30 36 H -1.9996 0.9352 -3.3207 0
M  V30 37 H -1.8365 -2.6458 -5.2311 0
M  V30 38 H -0.2873 -3.2123 -4.5303 0
M  V30 39 H -0.0053 -2.5734 -6.9302 0
M  V30 40 H -0.5923 -0.9348 -6.5572 0
M  V30 41 H 0.9285 -1.4909 -5.8697 0
M  V30 END ATOM
M  V30 BEGIN BOND
M  V30 1 1 1 2
M  V30 2 2 2 3
M  V30 3 1 2 4
M  V30 4 1 3 5
M  V30 5 1 3 6
M  V30 6 2 4 7
M  V30 7 1 5 8
M  V30 8 1 6 9
M  V30 9 2 6 10
M  V30 10 1 7 11
M  V30 11 1 11 12
M  V30 12 1 11 13
M  V30 13 1 12 14
M  V30 14 2 12 15
M  V30 15 1 13 16
M  V30 16 2 14 17
M  V30 17 1 14 18
M  V30 18 1 15 19
M  V30 19 1 15 20
M  V30 20 2 16 21
M  V30 21 1 18 22
M  V30 22 1 20 23
M  V30 23 2 23 24
M  V30 24 1 23 25
M  V30 25 1 25 26
M  V30 26 1 26 27
M  V30 27 1 7 10
M  V30 28 1 8 9
M  V30 29 1 16 19
M  V30 30 2 20 22
M  V30 31 1 4 28
M  V30 32 1 8 29
M  V30 33 1 8 30
M  V30 34 1 10 31
M  V30 35 1 11 32
M  V30 36 1 13 33
M  V30 37 1 13 34
M  V30 38 1 18 35
M  V30 39 1 22 36
M  V30 40 1 26 37
M  V30 41 1 26 38
M  V30 42 1 27 39
M  V30 43 1 27 40
M  V30 44 1 27 41
M  V30 END BOND
M  V30 BEGIN COLLECTION
M  V30 MDLV30/STEABS ATOMS=(1 11)
M  V30 END COLLECTION
M  V30 END CTAB
M  END
>  <NO.>
3852

>  <Name>
procaine

>  <SMILES>
CCOC(=O)c1c[nH]c(=O)c2c1OC(=O)C[C@H]2c1cc(Cl)c2c(c1)OCO2

>  <logBB>


>  <Class>
1

>  <MW>
391.05

>  <nHBAcc>
7

>  <nHBDon>
1

>  <SLogP>
2.37

>  <TopoPSA>
103.92

>  <MMFF94 Energy>
20.272

$$$$
CCOC[C@@]1(C(N)=S)[C@@H](S(C)(=O)=O)[C@@H]1c1ccc(OC)cc1
Actelion Java MolfileCreator 2.0

  0  0  0  0  0  0              0 V3000
M  V30 BEGIN CTAB
M  V30 COUNTS 43 44 0 0 0
M  V30 BEGIN ATOM
M  V30 1 S -1.6184 0.0 2.1853 0
M  V30 2 O -1.0433 0.3389 3.4711 0
M  V30 3 O -2.671 0.7903 1.5798 0
M  V30 4 C -0.2348 -0.1642 1.0396 0 CFG=2
M  V30 5 C -2.2191 -1.6642 2.3028 0
M  V30 6 C 0.2529 1.0743 0.2689 0 CFG=2
M  V30 7 C -0.5993 -0.0193 -0.4053 0 CFG=1
M  V30 8 C 1.7409 1.1462 0.1141 0
M  V30 9 C -0.4089 2.4285 0.488 0
M  V30 10 C -0.0665 -0.9611 -1.473 0
M  V30 11 S 2.4272 1.4638 -1.3608 0
M  V30 12 N 2.4845 1.0233 1.2502 0
M  V30 13 O -0.1579 2.8275 1.8327 0
M  V30 14 C -0.5981 -0.8886 -2.7732 0
M  V30 15 C 0.8077 -2.0327 -1.2207 0
M  V30 16 C -0.938 3.9608 2.2041 0
M  V30 17 C -0.227 -1.7891 -3.7776 0
M  V30 18 C 1.1879 -2.9374 -2.2245 0
M  V30 19 C -0.5957 4.3265 3.6344 0
M  V30 20 C 0.6747 -2.8149 -3.5113 0
M  V30 21 O 0.9566 -3.6254 -4.5745 0
M  V30 22 C 1.9531 -4.6201 -4.3762 0
M  V30 23 H 0.508 -0.8811 1.3527 0
M  V30 24 H -3.0534 -1.6773 3.0074 0
M  V30 25 H -1.4142 -2.3063 2.6649 0
M  V30 26 H -2.5578 -1.9876 1.3168 0
M  V30 27 H -1.6266 0.2853 -0.6146 0
M  V30 28 H 0.0247 3.1763 -0.1862 0
M  V30 29 H -1.482 2.4052 0.2763 0
M  V30 30 H 3.4908 1.1243 1.202 0
M  V30 31 H 2.0528 0.9954 2.1685 0
M  V30 32 H -1.3099 -0.103 -3.0219 0
M  V30 33 H 1.2363 -2.1771 -0.2332 0
M  V30 34 H -2.0039 3.7195 2.1284 0
M  V30 35 H -0.7104 4.8003 1.5381 0
M  V30 36 H -0.6466 -1.6846 -4.7751 0
M  V30 37 H 1.8841 -3.7263 -1.9606 0
M  V30 38 H -1.1722 5.1954 3.964 0
M  V30 39 H -0.8047 3.4879 4.307 0
M  V30 40 H 0.4713 4.5528 3.7297 0
M  V30 41 H 2.9113 -4.1713 -4.0937 0
M  V30 42 H 2.0975 -5.1428 -5.3266 0
M  V30 43 H 1.6287 -5.359 -3.636 0
M  V30 END ATOM
M  V30 BEGIN BOND
M  V30 1 2 1 2
M  V30 2 2 1 3
M  V30 3 1 1 4
M  V30 4 1 1 5
M  V30 5 1 4 6
M  V30 6 1 4 7
M  V30 7 1 6 8
M  V30 8 1 6 9
M  V30 9 1 7 10
M  V30 10 2 8 11
M  V30 11 1 8 12
M  V30 12 1 9 13
M  V30 13 2 10 14
M  V30 14 1 10 15
M  V30 15 1 13 16
M  V30 16 1 14 17
M  V30 17 2 15 18
M  V30 18 1 16 19
M  V30 19 2 17 20
M  V30 20 1 20 21
M  V30 21 1 21 22
M  V30 22 1 6 7
M  V30 23 1 18 20
M  V30 24 1 4 23
M  V30 25 1 5 24
M  V30 26 1 5 25
M  V30 27 1 5 26
M  V30 28 1 7 27
M  V30 29 1 9 28
M  V30 30 1 9 29
M  V30 31 1 12 30
M  V30 32 1 12 31
M  V30 33 1 14 32
M  V30 34 1 15 33
M  V30 35 1 16 34
M  V30 36 1 16 35
M  V30 37 1 17 36
M  V30 38 1 18 37
M  V30 39 1 19 38
M  V30 40 1 19 39
M  V30 41 1 19 40
M  V30 42 1 22 41
M  V30 43 1 22 42
M  V30 44 1 22 43
M  V30 END BOND
M  V30 BEGIN COLLECTION
M  V30 MDLV30/STEABS ATOMS=(3 4 6 7)
M  V30 END COLLECTION
M  V30 END CTAB
M  END
>  <NO.>
3853

>  <Name>
efavirenz

>  <SMILES>
CCOC[C@@]1(C(N)=S)[C@@H](S(C)(=O)=O)[C@@H]1c1ccc(OC)cc1

>  <logBB>


>  <Class>
-1

>  <MW>
343.09

>  <nHBAcc>
5

>  <nHBDon>
1

>  <SLogP>
1.51

>  <TopoPSA>
78.62

>  <MMFF94 Energy>
-2.8785

$$$$
CCOC[C@@]1(C(N)=S)[C@H](c2ccc(CC)cc2)[C@@H]1S(=O)(=O)c1ccc(Cl)cc1
Actelion Java MolfileCreator 2.0

  0  0  0  0  0  0              0 V3000
M  V30 BEGIN CTAB
M  V30 COUNTS 52 54 0 0 0
M  V30 BEGIN ATOM
M  V30 1 Cl 1.389 -7.7807 0.5717 0
M  V30 2 C 0.7 -6.2218 0.3418 0
M  V30 3 C 0.7689 -5.6137 -0.9129 0
M  V30 4 C 0.0734 -5.5774 1.4092 0
M  V30 5 C 0.2151 -4.3457 -1.1037 0
M  V30 6 C -0.4835 -4.3103 1.2252 0
M  V30 7 C -0.3946 -3.6929 -0.0269 0
M  V30 8 S -1.0996 -2.0727 -0.27 0
M  V30 9 O -2.0378 -2.2375 -1.3641 0
M  V30 10 O -1.5239 -1.5898 1.0243 0
M  V30 11 C 0.2493 -1.0748 -0.9255 0 CFG=2
M  V30 12 C 1.1724 -0.2711 -0.0058 0 CFG=1
M  V30 13 C 0.1099 0.4113 -0.8949 0 CFG=2
M  V30 14 C 1.1065 -0.5348 1.4635 0
M  V30 15 C 2.6065 -0.0553 -0.5057 0
M  V30 16 C -1.0024 1.3025 -0.3917 0
M  V30 17 S 0.8744 0.6571 2.5873 0
M  V30 18 N 1.4515 -1.7921 1.875 0
M  V30 19 O 2.8644 1.3446 -0.5791 0
M  V30 20 C -2.3694 1.0179 -0.5164 0
M  V30 21 C -0.6811 2.5403 0.1976 0
M  V30 22 C 4.2242 1.6247 -0.897 0
M  V30 23 C -3.3575 1.8905 -0.0393 0
M  V30 24 C -1.6577 3.4205 0.6772 0
M  V30 25 C 4.3954 3.1286 -0.9749 0
M  V30 26 C -3.0096 3.0952 0.5737 0
M  V30 27 C -4.0699 4.0366 1.0801 0
M  V30 28 C -4.5078 5.0249 0.0099 0
M  V30 29 H 1.2386 -6.1304 -1.7467 0
M  V30 30 H 0.0069 -6.0597 2.3818 0
M  V30 31 H 0.2399 -3.895 -2.0931 0
M  V30 32 H -0.9835 -3.8156 2.057 0
M  V30 33 H 0.6685 -1.4797 -1.8378 0
M  V30 34 H 0.5272 0.876 -1.7955 0
M  V30 35 H 2.743 -0.4919 -1.5022 0
M  V30 36 H 3.3255 -0.5339 0.17 0
M  V30 37 H 1.4497 -1.972 2.8742 0
M  V30 38 H 1.7439 -2.5438 1.2681 0
M  V30 39 H -2.7078 0.1181 -1.0191 0
M  V30 40 H 0.3657 2.8298 0.289 0
M  V30 41 H 4.4806 1.169 -1.8596 0
M  V30 42 H 4.878 1.2154 -0.1192 0
M  V30 43 H -4.4034 1.6156 -0.1568 0
M  V30 44 H -1.3472 4.3561 1.1358 0
M  V30 45 H 5.4286 3.3919 -1.2175 0
M  V30 46 H 3.7337 3.5529 -1.7374 0
M  V30 47 H 4.125 3.5972 -0.0227 0
M  V30 48 H -3.6931 4.5809 1.9548 0
M  V30 49 H -4.9362 3.4626 1.4309 0
M  V30 50 H -5.2775 5.695 0.4058 0
M  V30 51 H -4.9235 4.5082 -0.8618 0
M  V30 52 H -3.6674 5.6382 -0.3324 0
M  V30 END ATOM
M  V30 BEGIN BOND
M  V30 1 1 1 2
M  V30 2 2 2 3
M  V30 3 1 2 4
M  V30 4 1 3 5
M  V30 5 2 4 6
M  V30 6 2 5 7
M  V30 7 1 7 8
M  V30 8 2 8 9
M  V30 9 2 8 10
M  V30 10 1 8 11
M  V30 11 1 11 12
M  V30 12 1 11 13
M  V30 13 1 12 14
M  V30 14 1 12 15
M  V30 15 1 13 16
M  V30 16 2 14 17
M  V30 17 1 14 18
M  V30 18 1 15 19
M  V30 19 2 16 20
M  V30 20 1 16 21
M  V30 21 1 19 22
M  V30 22 1 20 23
M  V30 23 2 21 24
M  V30 24 1 22 25
M  V30 25 2 23 26
M  V30 26 1 26 27
M  V30 27 1 27 28
M  V30 28 1 6 7
M  V30 29 1 12 13
M  V30 30 1 24 26
M  V30 31 1 3 29
M  V30 32 1 4 30
M  V30 33 1 5 31
M  V30 34 1 6 32
M  V30 35 1 11 33
M  V30 36 1 13 34
M  V30 37 1 15 35
M  V30 38 1 15 36
M  V30 39 1 18 37
M  V30 40 1 18 38
M  V30 41 1 20 39
M  V30 42 1 21 40
M  V30 43 1 22 41
M  V30 44 1 22 42
M  V30 45 1 23 43
M  V30 46 1 24 44
M  V30 47 1 25 45
M  V30 48 1 25 46
M  V30 49 1 25 47
M  V30 50 1 27 48
M  V30 51 1 27 49
M  V30 52 1 28 50
M  V30 53 1 28 51
M  V30 54 1 28 52
M  V30 END BOND
M  V30 BEGIN COLLECTION
M  V30 MDLV30/STEABS ATOMS=(3 11 12 13)
M  V30 END COLLECTION
M  V30 END CTAB
M  END
>  <NO.>
3854

>  <Name>
hydrocodone

>  <SMILES>
CCOC[C@@]1(C(N)=S)[C@H](c2ccc(CC)cc2)[C@@H]1S(=O)(=O)c1ccc(Cl)cc1

>  <logBB>


>  <Class>
1

>  <MW>
437.09

>  <nHBAcc>
4

>  <nHBDon>
1

>  <SLogP>
4.15

>  <TopoPSA>
69.39

>  <MMFF94 Energy>
53.027

$$$$
CCOC[C@@]1(C(N)=S)[C@H](c2ccc(OC)cc2)[C@@H]1S(=O)(=O)CC
Actelion Java MolfileCreator 2.0

  0  0  0  0  0  0              0 V3000
M  V30 BEGIN CTAB
M  V30 COUNTS 46 47 0 0 0
M  V30 BEGIN ATOM
M  V30 1 S 0.8876 -1.2913 -1.8566 0
M  V30 2 O 1.956 -1.4365 -0.8906 0
M  V30 3 O 0.1415 -2.4611 -2.2868 0
M  V30 4 C -0.3624 -0.1572 -1.2478 0 CFG=2
M  V30 5 C 1.5753 -0.5548 -3.3204 0
M  V30 6 C -0.0331 0.9604 -0.2551 0 CFG=1
M  V30 7 C -0.8353 -0.2969 0.1577 0 CFG=2
M  V30 8 C 0.5361 -0.0922 -4.3196 0
M  V30 9 C 1.4197 1.2387 0.033 0
M  V30 10 C -0.9354 2.2092 -0.2862 0
M  V30 11 C -0.4435 -1.2016 1.2964 0
M  V30 12 S 2.2249 2.3718 -0.8924 0
M  V30 13 N 2.0832 0.619 1.042 0
M  V30 14 O -1.2589 2.5138 -1.6441 0
M  V30 15 C -0.1226 -2.5558 1.1486 0
M  V30 16 C -0.3783 -0.6821 2.6063 0
M  V30 17 C -1.9405 3.7605 -1.7594 0
M  V30 18 C 0.2589 -3.3433 2.2424 0
M  V30 19 C 6.0E-4 -1.4646 3.7056 0
M  V30 20 C -2.2644 3.9915 -3.2218 0
M  V30 21 C 0.3255 -2.8041 3.5253 0
M  V30 22 O 0.7111 -3.6803 4.4999 0
M  V30 23 C 0.8004 -3.1719 5.8247 0
M  V30 24 H -1.1396 0.0351 -1.9784 0
M  V30 25 H 2.2133 -1.3204 -3.7749 0
M  V30 26 H 2.2193 0.2726 -3.0226 0
M  V30 27 H -1.9231 -0.1693 0.1968 0
M  V30 28 H 1.023 0.2521 -5.2374 0
M  V30 29 H -0.1537 -0.9 -4.5827 0
M  V30 30 H -0.0524 0.7415 -3.9256 0
M  V30 31 H -0.4438 3.0638 0.1939 0
M  V30 32 H -1.8673 2.0341 0.2649 0
M  V30 33 H 3.0692 0.8121 1.1681 0
M  V30 34 H 1.739 -0.2082 1.5101 0
M  V30 35 H -0.1804 -3.0377 0.176 0
M  V30 36 H -0.6269 0.3645 2.7781 0
M  V30 37 H -1.3006 4.5683 -1.388 0
M  V30 38 H -2.8645 3.7329 -1.1714 0
M  V30 39 H 0.5037 -4.3913 2.0838 0
M  V30 40 H 0.0291 -0.9941 4.6826 0
M  V30 41 H -2.7896 4.9408 -3.3602 0
M  V30 42 H -1.3487 4.0028 -3.8221 0
M  V30 43 H -2.8899 3.1811 -3.6107 0
M  V30 44 H 1.5493 -2.3759 5.8927 0
M  V30 45 H 1.1239 -3.9898 6.4759 0
M  V30 46 H -0.1759 -2.828 6.1821 0
M  V30 END ATOM
M  V30 BEGIN BOND
M  V30 1 2 1 2
M  V30 2 2 1 3
M  V30 3 1 1 4
M  V30 4 1 1 5
M  V30 5 1 4 6
M  V30 6 1 4 7
M  V30 7 1 5 8
M  V30 8 1 6 9
M  V30 9 1 6 10
M  V30 10 1 7 11
M  V30 11 2 9 12
M  V30 12 1 9 13
M  V30 13 1 10 14
M  V30 14 2 11 15
M  V30 15 1 11 16
M  V30 16 1 14 17
M  V30 17 1 15 18
M  V30 18 2 16 19
M  V30 19 1 17 20
M  V30 20 2 18 21
M  V30 21 1 21 22
M  V30 22 1 22 23
M  V30 23 1 6 7
M  V30 24 1 19 21
M  V30 25 1 4 24
M  V30 26 1 5 25
M  V30 27 1 5 26
M  V30 28 1 7 27
M  V30 29 1 8 28
M  V30 30 1 8 29
M  V30 31 1 8 30
M  V30 32 1 10 31
M  V30 33 1 10 32
M  V30 34 1 13 33
M  V30 35 1 13 34
M  V30 36 1 15 35
M  V30 37 1 16 36
M  V30 38 1 17 37
M  V30 39 1 17 38
M  V30 40 1 18 39
M  V30 41 1 19 40
M  V30 42 1 20 41
M  V30 43 1 20 42
M  V30 44 1 20 43
M  V30 45 1 23 44
M  V30 46 1 23 45
M  V30 47 1 23 46
M  V30 END BOND
M  V30 BEGIN COLLECTION
M  V30 MDLV30/STEABS ATOMS=(3 4 6 7)
M  V30 END COLLECTION
M  V30 END CTAB
M  END
>  <NO.>
3855

>  <Name>
hydralazine

>  <SMILES>
CCOC[C@@]1(C(N)=S)[C@H](c2ccc(OC)cc2)[C@@H]1S(=O)(=O)CC

>  <logBB>


>  <Class>
-1

>  <MW>
357.11

>  <nHBAcc>
5

>  <nHBDon>
1

>  <SLogP>
1.9

>  <TopoPSA>
78.62

>  <MMFF94 Energy>
7.4822

$$$$
CCOC[C@@]1(CN)[C@H](c2ccc(OC)cc2)[C@@H]1S(C)(=O)=O
Actelion Java MolfileCreator 2.0

  0  0  0  0  0  0              0 V3000
M  V30 BEGIN CTAB
M  V30 COUNTS 44 45 0 0 0
M  V30 BEGIN ATOM
M  V30 1 S 0.7199 -1.6003 -2.6416 0
M  V30 2 O 1.9529 -1.4453 -1.899 0
M  V30 3 O 0.0855 -2.898 -2.7787 0
M  V30 4 C -0.5596 -0.4903 -2.0477 0 CFG=2
M  V30 5 C 1.0167 -1.0186 -4.291 0
M  V30 6 C -0.2121 0.732 -1.2118 0 CFG=2
M  V30 7 C -0.9425 -0.4786 -0.5967 0 CFG=2
M  V30 8 C -1.0645 1.9706 -1.4331 0
M  V30 9 C 1.1936 1.0849 -0.7786 0
M  V30 10 C -0.3633 -1.2751 0.5499 0
M  V30 11 O -1.4577 2.4775 -0.1572 0
M  V30 12 N 1.9922 1.4332 -1.9549 0
M  V30 13 C -0.1569 -2.659 0.4925 0
M  V30 14 C 0.035 -0.6298 1.7359 0
M  V30 15 C -2.2162 3.6779 -0.2776 0
M  V30 16 C 0.4186 -3.3598 1.5595 0
M  V30 17 C 0.6107 -1.324 2.8084 0
M  V30 18 C -2.5986 4.142 1.1135 0
M  V30 19 C 0.8083 -2.6977 2.7217 0
M  V30 20 O 1.3543 -3.4978 3.6858 0
M  V30 21 C 1.8018 -2.8566 4.8729 0
M  V30 22 H -1.3852 -0.4061 -2.7445 0
M  V30 23 H 1.7728 -1.6611 -4.747 0
M  V30 24 H 1.3745 0.01 -4.2592 0
M  V30 25 H 0.0863 -1.0807 -4.8589 0
M  V30 26 H -2.0152 -0.3323 -0.4431 0
M  V30 27 H -1.9655 1.7317 -2.0108 0
M  V30 28 H -0.5023 2.7337 -1.9839 0
M  V30 29 H 1.7012 0.2964 -0.2186 0
M  V30 30 H 1.163 1.9505 -0.1059 0
M  V30 31 H 2.49 0.5705 -2.2091 0
M  V30 32 H 2.7491 2.0437 -1.6416 0
M  V30 33 H -0.462 -3.2252 -0.3832 0
M  V30 34 H -0.1179 0.4446 1.8325 0
M  V30 35 H -3.1189 3.4882 -0.8683 0
M  V30 36 H -1.6155 4.4472 -0.7747 0
M  V30 37 H 0.5628 -4.4341 1.4757 0
M  V30 38 H 0.8882 -0.7581 3.6906 0
M  V30 39 H -3.1843 5.0645 1.0702 0
M  V30 40 H -3.1855 3.3742 1.6283 0
M  V30 41 H -1.7044 4.3191 1.7202 0
M  V30 42 H 2.5912 -2.1292 4.6565 0
M  V30 43 H 2.2268 -3.6235 5.5274 0
M  V30 44 H 0.968 -2.3886 5.4067 0
M  V30 END ATOM
M  V30 BEGIN BOND
M  V30 1 2 1 2
M  V30 2 2 1 3
M  V30 3 1 1 4
M  V30 4 1 1 5
M  V30 5 1 4 6
M  V30 6 1 4 7
M  V30 7 1 6 8
M  V30 8 1 6 9
M  V30 9 1 7 10
M  V30 10 1 8 11
M  V30 11 1 9 12
M  V30 12 2 10 13
M  V30 13 1 10 14
M  V30 14 1 11 15
M  V30 15 1 13 16
M  V30 16 2 14 17
M  V30 17 1 15 18
M  V30 18 2 16 19
M  V30 19 1 19 20
M  V30 20 1 20 21
M  V30 21 1 6 7
M  V30 22 1 17 19
M  V30 23 1 4 22
M  V30 24 1 5 23
M  V30 25 1 5 24
M  V30 26 1 5 25
M  V30 27 1 7 26
M  V30 28 1 8 27
M  V30 29 1 8 28
M  V30 30 1 9 29
M  V30 31 1 9 30
M  V30 32 1 12 31
M  V30 33 1 12 32
M  V30 34 1 13 33
M  V30 35 1 14 34
M  V30 36 1 15 35
M  V30 37 1 15 36
M  V30 38 1 16 37
M  V30 39 1 17 38
M  V30 40 1 18 39
M  V30 41 1 18 40
M  V30 42 1 18 41
M  V30 43 1 21 42
M  V30 44 1 21 43
M  V30 45 1 21 44
M  V30 END BOND
M  V30 BEGIN COLLECTION
M  V30 MDLV30/STEABS ATOMS=(3 4 6 7)
M  V30 END COLLECTION
M  V30 END CTAB
M  END
>  <NO.>
3856

>  <Name>
diazepam

>  <SMILES>
CCOC[C@@]1(CN)[C@H](c2ccc(OC)cc2)[C@@H]1S(C)(=O)=O

>  <logBB>


>  <Class>
1

>  <MW>
313.13

>  <nHBAcc>
5

>  <nHBDon>
1

>  <SLogP>
1.19

>  <TopoPSA>
78.62

>  <MMFF94 Energy>
23.809

$$$$
CCOC[C@@]1(N)[C@@H](S(=O)(=O)c2ccccc2)[C@@H]1c1ccc(OC)cc1
Actelion Java MolfileCreator 2.0

  0  0  0  0  0  0              0 V3000
M  V30 BEGIN CTAB
M  V30 COUNTS 48 50 0 0 0
M  V30 BEGIN ATOM
M  V30 1 S -1.6126 0.1611 2.2582 0
M  V30 2 O -2.6501 0.8413 1.5081 0
M  V30 3 O -1.1718 0.6611 3.5451 0
M  V30 4 C -2.1302 -1.5232 2.4679 0
M  V30 5 C -0.1406 -0.0024 1.2269 0 CFG=2
M  V30 6 C -2.9044 -2.1274 1.4727 0
M  V30 7 C -1.7756 -2.2216 3.6246 0
M  V30 8 C 0.5866 1.2791 0.8728 0 CFG=2
M  V30 9 C -0.277 0.5606 -0.1665 0 CFG=1
M  V30 10 C -3.3098 -3.4519 1.6318 0
M  V30 11 C -2.1854 -3.5461 3.7749 0
M  V30 12 N 2.0846 1.1679 0.8077 0
M  V30 13 C 0.0955 2.6421 1.3599 0
M  V30 14 C 0.3261 -0.1514 -1.3577 0
M  V30 15 C -2.9483 -4.1599 2.7795 0
M  V30 16 O 0.7809 3.6498 0.6011 0
M  V30 17 C 1.0028 0.5719 -2.3522 0
M  V30 18 C 0.3026 -1.5493 -1.4874 0
M  V30 19 C 0.4236 4.9587 1.0396 0
M  V30 20 C 1.6089 -0.0704 -3.4355 0
M  V30 21 C 0.9085 -2.198 -2.5721 0
M  V30 22 C 1.1784 5.9668 0.1964 0
M  V30 23 C 1.5647 -1.4586 -3.5528 0
M  V30 24 O 2.1958 -1.9615 -4.6557 0
M  V30 25 C 2.173 -3.3734 -4.822 0
M  V30 26 H 0.4688 -0.876 1.4084 0
M  V30 27 H -3.2005 -1.5763 0.5826 0
M  V30 28 H -1.1884 -1.7474 4.4083 0
M  V30 29 H -1.2095 1.0636 -0.4196 0
M  V30 30 H -3.9152 -3.9319 0.8664 0
M  V30 31 H -1.916 -4.0999 4.6714 0
M  V30 32 H 2.3709 0.5794 0.0246 0
M  V30 33 H 2.4433 2.0998 0.5706 0
M  V30 34 H 0.3404 2.7589 2.4217 0
M  V30 35 H -0.9806 2.7744 1.2165 0
M  V30 36 H -3.2704 -5.1914 2.9037 0
M  V30 37 H 1.0586 1.6575 -2.2826 0
M  V30 38 H -0.201 -2.1551 -0.7372 0
M  V30 39 H 0.6908 5.0818 2.0948 0
M  V30 40 H -0.6551 5.1078 0.9213 0
M  V30 41 H 2.1209 0.5192 -4.1921 0
M  V30 42 H 0.8491 -3.2802 -2.6156 0
M  V30 43 H 0.9346 6.9891 0.4988 0
M  V30 44 H 2.2589 5.8177 0.2926 0
M  V30 45 H 0.933 5.8434 -0.8634 0
M  V30 46 H 2.6881 -3.8762 -3.9969 0
M  V30 47 H 2.712 -3.61 -5.7443 0
M  V30 48 H 1.1476 -3.7416 -4.9317 0
M  V30 END ATOM
M  V30 BEGIN BOND
M  V30 1 2 1 2
M  V30 2 2 1 3
M  V30 3 1 1 4
M  V30 4 1 1 5
M  V30 5 2 4 6
M  V30 6 1 4 7
M  V30 7 1 5 8
M  V30 8 1 5 9
M  V30 9 1 6 10
M  V30 10 2 7 11
M  V30 11 1 8 12
M  V30 12 1 8 13
M  V30 13 1 9 14
M  V30 14 2 10 15
M  V30 15 1 13 16
M  V30 16 2 14 17
M  V30 17 1 14 18
M  V30 18 1 16 19
M  V30 19 1 17 20
M  V30 20 2 18 21
M  V30 21 1 19 22
M  V30 22 2 20 23
M  V30 23 1 23 24
M  V30 24 1 24 25
M  V30 25 1 8 9
M  V30 26 1 11 15
M  V30 27 1 21 23
M  V30 28 1 5 26
M  V30 29 1 6 27
M  V30 30 1 7 28
M  V30 31 1 9 29
M  V30 32 1 10 30
M  V30 33 1 11 31
M  V30 34 1 12 32
M  V30 35 1 12 33
M  V30 36 1 13 34
M  V30 37 1 13 35
M  V30 38 1 15 36
M  V30 39 1 17 37
M  V30 40 1 18 38
M  V30 41 1 19 39
M  V30 42 1 19 40
M  V30 43 1 20 41
M  V30 44 1 21 42
M  V30 45 1 22 43
M  V30 46 1 22 44
M  V30 47 1 22 45
M  V30 48 1 25 46
M  V30 49 1 25 47
M  V30 50 1 25 48
M  V30 END BOND
M  V30 BEGIN COLLECTION
M  V30 MDLV30/STEABS ATOMS=(3 5 8 9)
M  V30 END COLLECTION
M  V30 END CTAB
M  END
>  <NO.>
3857

>  <Name>
mepenzolate

>  <SMILES>
CCOC[C@@]1(N)[C@@H](S(=O)(=O)c2ccccc2)[C@@H]1c1ccc(OC)cc1

>  <logBB>


>  <Class>
-1

>  <MW>
361.13

>  <nHBAcc>
5

>  <nHBDon>
1

>  <SLogP>
2.37

>  <TopoPSA>
78.62

>  <MMFF94 Energy>
82.575

$$$$
CCOC[C@]1(C#N)[C@@H](S(=O)(=O)c2ccc(Cl)cc2)[C@@H]1c1ccccc1
Actelion Java MolfileCreator 2.0

  0  0  0  0  0  0              0 V3000
M  V30 BEGIN CTAB
M  V30 COUNTS 43 45 0 0 0
M  V30 BEGIN ATOM
M  V30 1 Cl 3.8666 2.796 4.938 0
M  V30 2 C 3.062 2.6575 3.4239 0
M  V30 3 C 1.7069 2.9793 3.3292 0
M  V30 4 C 3.7702 2.2263 2.301 0
M  V30 5 C 1.0496 2.8647 2.1027 0
M  V30 6 C 3.1197 2.1091 1.0707 0
M  V30 7 C 1.7594 2.4196 0.9823 0
M  V30 8 S 0.9156 2.2714 -0.5765 0
M  V30 9 O -0.0892 3.3132 -0.6139 0
M  V30 10 O 1.9195 2.1291 -1.6089 0
M  V30 11 C 0.1001 0.671 -0.422 0 CFG=2
M  V30 12 C -0.8029 0.2738 -1.5655 0 CFG=1
M  V30 13 C -1.393 0.7248 -0.2195 0 CFG=1
M  V30 14 C -1.0514 1.1486 -2.6861 0
M  V30 15 C -0.7533 -1.1853 -1.9557 0
M  V30 16 C -2.0946 -0.2474 0.7016 0
M  V30 17 N -1.3097 1.8273 -3.5901 0
M  V30 18 O 0.5378 -1.4587 -2.5015 0
M  V30 19 C -3.3252 -0.8179 0.3308 0
M  V30 20 C -1.5286 -0.6679 1.9172 0
M  V30 21 C 0.622 -2.7789 -3.0337 0
M  V30 22 C -3.9688 -1.7557 1.1419 0
M  V30 23 C -2.1685 -1.6059 2.732 0
M  V30 24 C 2.0252 -2.9905 -3.5657 0
M  V30 25 C -3.3888 -2.1499 2.3433 0
M  V30 26 H 1.1623 3.3276 4.2037 0
M  V30 27 H 4.8283 1.987 2.3766 0
M  V30 28 H -0.0026 3.133 2.0288 0
M  V30 29 H 3.679 1.7833 0.1955 0
M  V30 30 H 0.6891 -0.1112 0.0359 0
M  V30 31 H -1.8619 1.7097 -0.2161 0
M  V30 32 H -1.5342 -1.4139 -2.6921 0
M  V30 33 H -0.8981 -1.8458 -1.0941 0
M  V30 34 H -3.8 -0.5205 -0.603 0
M  V30 35 H -0.5781 -0.257 2.2505 0
M  V30 36 H -0.1055 -2.8977 -3.844 0
M  V30 37 H 0.407 -3.5096 -2.2463 0
M  V30 38 H -4.9243 -2.1748 0.8358 0
M  V30 39 H -1.7139 -1.9098 3.6719 0
M  V30 40 H 2.1362 -3.9941 -3.9856 0
M  V30 41 H 2.2581 -2.2543 -4.3423 0
M  V30 42 H 2.7639 -2.8568 -2.7684 0
M  V30 43 H -3.889 -2.8774 2.9777 0
M  V30 END ATOM
M  V30 BEGIN BOND
M  V30 1 1 1 2
M  V30 2 2 2 3
M  V30 3 1 2 4
M  V30 4 1 3 5
M  V30 5 2 4 6
M  V30 6 2 5 7
M  V30 7 1 7 8
M  V30 8 2 8 9
M  V30 9 2 8 10
M  V30 10 1 8 11
M  V30 11 1 11 12
M  V30 12 1 11 13
M  V30 13 1 12 14
M  V30 14 1 12 15
M  V30 15 1 13 16
M  V30 16 3 14 17
M  V30 17 1 15 18
M  V30 18 2 16 19
M  V30 19 1 16 20
M  V30 20 1 18 21
M  V30 21 1 19 22
M  V30 22 2 20 23
M  V30 23 1 21 24
M  V30 24 2 22 25
M  V30 25 1 6 7
M  V30 26 1 12 13
M  V30 27 1 23 25
M  V30 28 1 3 26
M  V30 29 1 4 27
M  V30 30 1 5 28
M  V30 31 1 6 29
M  V30 32 1 11 30
M  V30 33 1 13 31
M  V30 34 1 15 32
M  V30 35 1 15 33
M  V30 36 1 19 34
M  V30 37 1 20 35
M  V30 38 1 21 36
M  V30 39 1 21 37
M  V30 40 1 22 38
M  V30 41 1 23 39
M  V30 42 1 24 40
M  V30 43 1 24 41
M  V30 44 1 24 42
M  V30 45 1 25 43
M  V30 END BOND
M  V30 BEGIN COLLECTION
M  V30 MDLV30/STEABS ATOMS=(3 11 12 13)
M  V30 END COLLECTION
M  V30 END CTAB
M  END
>  <NO.>
3858

>  <Name>
betahistine

>  <SMILES>
CCOC[C@]1(C#N)[C@@H](S(=O)(=O)c2ccc(Cl)cc2)[C@@H]1c1ccccc1

>  <logBB>


>  <Class>
1

>  <MW>
375.07

>  <nHBAcc>
4

>  <nHBDon>
0

>  <SLogP>
3.83

>  <TopoPSA>
67.16

>  <MMFF94 Energy>
41.168

$$$$
CCOC[C@]1(C(N)=S)[C@@H](S(=O)(=O)c2ccccc2)[C@@H]1c1ccc(OC)cc1
Actelion Java MolfileCreator 2.0

  0  0  0  0  0  0              0 V3000
M  V30 BEGIN CTAB
M  V30 COUNTS 50 52 0 0 0
M  V30 BEGIN ATOM
M  V30 1 S -1.8665 0.8112 1.9478 0
M  V30 2 O -3.2042 0.8524 1.394 0
M  V30 3 O -1.3762 1.8524 2.8319 0
M  V30 4 C -1.6936 -0.7441 2.7882 0
M  V30 5 C -0.6571 0.6676 0.6205 0 CFG=2
M  V30 6 C -2.3627 -1.8658 2.2889 0
M  V30 7 C -0.9056 -0.8314 3.9385 0
M  V30 8 C -0.6817 1.7192 -0.4786 0 CFG=1
M  V30 9 C -1.2229 0.2851 -0.7144 0 CFG=1
M  V30 10 C -2.2229 -3.0912 2.9392 0
M  V30 11 C -0.7717 -2.0612 4.5826 0
M  V30 12 C -1.6728 2.8405 -0.4776 0
M  V30 13 C 0.7085 2.1082 -0.9652 0
M  V30 14 C -0.5079 -0.6948 -1.6174 0
M  V30 15 C -1.4266 -3.1886 4.082 0
M  V30 16 S -2.5991 3.1071 -1.83 0
M  V30 17 N -1.7194 3.6578 0.6072 0
M  V30 18 O 1.3729 2.7931 0.1006 0
M  V30 19 C 0.1269 -1.8439 -1.1183 0
M  V30 20 C -0.384 -0.4418 -2.9922 0
M  V30 21 C 2.6363 3.3081 -0.3131 0
M  V30 22 C 0.8373 -2.7151 -1.9555 0
M  V30 23 C 0.3243 -1.3075 -3.8309 0
M  V30 24 C 3.2801 3.9998 0.8718 0
M  V30 25 C 0.9381 -2.4493 -3.3185 0
M  V30 26 O 1.5993 -3.209 -4.2422 0
M  V30 27 C 2.2095 -4.405 -3.7741 0
M  V30 28 H 0.3114 0.2953 0.9254 0
M  V30 29 H -2.996 -1.7927 1.407 0
M  V30 30 H -0.3996 0.0441 4.34 0
M  V30 31 H -2.3069 0.1892 -0.7805 0
M  V30 32 H -2.7418 -3.9697 2.5624 0
M  V30 33 H -0.1628 -2.1415 5.4803 0
M  V30 34 H 0.6367 2.7591 -1.8444 0
M  V30 35 H 1.3117 1.2349 -1.2337 0
M  V30 36 H -1.3248 -4.1444 4.5913 0
M  V30 37 H -2.3797 4.4248 0.6334 0
M  V30 38 H -1.1443 3.5117 1.4344 0
M  V30 39 H 0.0663 -2.0811 -0.0579 0
M  V30 40 H -0.8537 0.4404 -3.4245 0
M  V30 41 H 2.4944 4.0242 -1.13 0
M  V30 42 H 3.2752 2.4883 -0.659 0
M  V30 43 H 1.2988 -3.5887 -1.5074 0
M  V30 44 H 0.3947 -1.0876 -4.8936 0
M  V30 45 H 4.2556 4.4128 0.6002 0
M  V30 46 H 2.642 4.8111 1.238 0
M  V30 47 H 3.4117 3.2987 1.7027 0
M  V30 48 H 2.9983 -4.1863 -3.0467 0
M  V30 49 H 2.6754 -4.9004 -4.6314 0
M  V30 50 H 1.4653 -5.0914 -3.3566 0
M  V30 END ATOM
M  V30 BEGIN BOND
M  V30 1 2 1 2
M  V30 2 2 1 3
M  V30 3 1 1 4
M  V30 4 1 1 5
M  V30 5 2 4 6
M  V30 6 1 4 7
M  V30 7 1 5 8
M  V30 8 1 5 9
M  V30 9 1 6 10
M  V30 10 2 7 11
M  V30 11 1 8 12
M  V30 12 1 8 13
M  V30 13 1 9 14
M  V30 14 2 10 15
M  V30 15 2 12 16
M  V30 16 1 12 17
M  V30 17 1 13 18
M  V30 18 2 14 19
M  V30 19 1 14 20
M  V30 20 1 18 21
M  V30 21 1 19 22
M  V30 22 2 20 23
M  V30 23 1 21 24
M  V30 24 2 22 25
M  V30 25 1 25 26
M  V30 26 1 26 27
M  V30 27 1 8 9
M  V30 28 1 11 15
M  V30 29 1 23 25
M  V30 30 1 5 28
M  V30 31 1 6 29
M  V30 32 1 7 30
M  V30 33 1 9 31
M  V30 34 1 10 32
M  V30 35 1 11 33
M  V30 36 1 13 34
M  V30 37 1 13 35
M  V30 38 1 15 36
M  V30 39 1 17 37
M  V30 40 1 17 38
M  V30 41 1 19 39
M  V30 42 1 20 40
M  V30 43 1 21 41
M  V30 44 1 21 42
M  V30 45 1 22 43
M  V30 46 1 23 44
M  V30 47 1 24 45
M  V30 48 1 24 46
M  V30 49 1 24 47
M  V30 50 1 27 48
M  V30 51 1 27 49
M  V30 52 1 27 50
M  V30 END BOND
M  V30 BEGIN COLLECTION
M  V30 MDLV30/STEABS ATOMS=(3 5 8 9)
M  V30 END COLLECTION
M  V30 END CTAB
M  END
>  <NO.>
3859

>  <Name>
methocarbamol

>  <SMILES>
CCOC[C@]1(C(N)=S)[C@@H](S(=O)(=O)c2ccccc2)[C@@H]1c1ccc(OC)cc1

>  <logBB>


>  <Class>
1

>  <MW>
405.11

>  <nHBAcc>
5

>  <nHBDon>
1

>  <SLogP>
2.94

>  <TopoPSA>
78.62

>  <MMFF94 Energy>
28.315

$$$$
CCOC[C@]1(CN)[C@@H](S(C)(=O)=O)[C@@H]1c1ccc2c(c1)OCO2
Actelion Java MolfileCreator 2.0

  0  0  0  0  0  0              0 V3000
M  V30 BEGIN CTAB
M  V30 COUNTS 43 45 0 0 0
M  V30 BEGIN ATOM
M  V30 1 S 1.7789 -3.2362 1.2935 0
M  V30 2 O 3.0292 -3.3873 0.5759 0
M  V30 3 O 1.7417 -2.9041 2.702 0
M  V30 4 C 0.8245 -2.0134 0.3697 0 CFG=2
M  V30 5 C 0.8467 -4.7274 1.0743 0
M  V30 6 C 1.425 -0.617 0.2376 0 CFG=2
M  V30 7 C 0.2333 -0.8842 1.1699 0 CFG=1
M  V30 8 C 1.2468 -0.0101 -1.1474 0
M  V30 9 C 2.7351 -0.2279 0.9033 0
M  V30 10 C -1.1542 -0.3607 0.861 0
M  V30 11 O 1.3146 1.4143 -1.0702 0
M  V30 12 N 2.589 1.1112 1.4649 0
M  V30 13 C -1.3816 1.0209 0.7137 0
M  V30 14 C -2.2402 -1.2393 0.6169 0
M  V30 15 C 0.9638 2.0299 -2.3065 0
M  V30 16 C -2.6392 1.4641 0.3601 0
M  V30 17 C -3.5103 -0.7682 0.2619 0
M  V30 18 C 1.0628 3.5323 -2.1339 0
M  V30 19 O -3.0057 2.7614 0.1804 0
M  V30 20 C -3.6758 0.592 0.1413 0
M  V30 21 C -4.4006 2.6051 -0.1506 0
M  V30 22 O -4.8282 1.2275 -0.199 0
M  V30 23 H 0.2778 -2.4058 -0.4765 0
M  V30 24 H 1.3661 -5.5348 1.5946 0
M  V30 25 H 0.7818 -4.951 0.0079 0
M  V30 26 H -0.1479 -4.5861 1.5013 0
M  V30 27 H 0.4675 -0.8434 2.2343 0
M  V30 28 H 0.2894 -0.3096 -1.5908 0
M  V30 29 H 2.0475 -0.3681 -1.8055 0
M  V30 30 H 3.5493 -0.243 0.1703 0
M  V30 31 H 3.0214 -0.8902 1.7211 0
M  V30 32 H 2.2672 1.7287 0.7116 0
M  V30 33 H 3.5042 1.4571 1.7445 0
M  V30 34 H -0.5758 1.7318 0.8765 0
M  V30 35 H -2.0956 -2.3124 0.7204 0
M  V30 36 H -0.0609 1.7558 -2.5805 0
M  V30 37 H 1.6493 1.6962 -3.0929 0
M  V30 38 H -4.336 -1.4485 0.0882 0
M  V30 39 H 0.8021 4.05 -3.0612 0
M  V30 40 H 0.3923 3.8733 -1.3379 0
M  V30 41 H 2.0776 3.8207 -1.8405 0
M  V30 42 H -5.0015 3.1331 0.599 0
M  V30 43 H -4.581 3.0617 -1.1306 0
M  V30 END ATOM
M  V30 BEGIN BOND
M  V30 1 2 1 2
M  V30 2 2 1 3
M  V30 3 1 1 4
M  V30 4 1 1 5
M  V30 5 1 4 6
M  V30 6 1 4 7
M  V30 7 1 6 8
M  V30 8 1 6 9
M  V30 9 1 7 10
M  V30 10 1 8 11
M  V30 11 1 9 12
M  V30 12 2 10 13
M  V30 13 1 10 14
M  V30 14 1 11 15
M  V30 15 1 13 16
M  V30 16 2 14 17
M  V30 17 1 15 18
M  V30 18 1 16 19
M  V30 19 2 16 20
M  V30 20 1 19 21
M  V30 21 1 20 22
M  V30 22 1 6 7
M  V30 23 1 17 20
M  V30 24 1 21 22
M  V30 25 1 4 23
M  V30 26 1 5 24
M  V30 27 1 5 25
M  V30 28 1 5 26
M  V30 29 1 7 27
M  V30 30 1 8 28
M  V30 31 1 8 29
M  V30 32 1 9 30
M  V30 33 1 9 31
M  V30 34 1 12 32
M  V30 35 1 12 33
M  V30 36 1 13 34
M  V30 37 1 14 35
M  V30 38 1 15 36
M  V30 39 1 15 37
M  V30 40 1 17 38
M  V30 41 1 18 39
M  V30 42 1 18 40
M  V30 43 1 18 41
M  V30 44 1 21 42
M  V30 45 1 21 43
M  V30 END BOND
M  V30 BEGIN COLLECTION
M  V30 MDLV30/STEABS ATOMS=(3 4 6 7)
M  V30 END COLLECTION
M  V30 END CTAB
M  END
>  <NO.>
3860

>  <Name>
sparfloxacin

>  <SMILES>
CCOC[C@]1(CN)[C@@H](S(C)(=O)=O)[C@@H]1c1ccc2c(c1)OCO2

>  <logBB>


>  <Class>
-1

>  <MW>
327.11

>  <nHBAcc>
6

>  <nHBDon>
1

>  <SLogP>
0.91

>  <TopoPSA>
87.85

>  <MMFF94 Energy>
15.65

$$$$
CCOC[C@]1(CN)[C@H](c2ccc3c(c2)OCO3)[C@@H]1S(C)(=O)=O
Actelion Java MolfileCreator 2.0

  0  0  0  0  0  0              0 V3000
M  V30 BEGIN CTAB
M  V30 COUNTS 43 45 0 0 0
M  V30 BEGIN ATOM
M  V30 1 S 0.7273 -2.5068 0.6464 0
M  V30 2 O 0.0974 -1.6478 1.6246 0
M  V30 3 O 0.1253 -3.772 0.2702 0
M  V30 4 C 1.0169 -1.648 -0.9018 0 CFG=2
M  V30 5 C 2.3648 -2.8626 1.2248 0
M  V30 6 C 1.3894 -0.1696 -0.852 0 CFG=1
M  V30 7 C 0.063 -0.6454 -1.4737 0 CFG=2
M  V30 8 C 1.3635 0.6593 0.4234 0
M  V30 9 C 2.535 0.2088 -1.7733 0
M  V30 10 C -1.3134 -0.3306 -0.9323 0
M  V30 11 O 1.3835 2.0508 0.0754 0
M  V30 12 N 3.7232 -0.5472 -1.3735 0
M  V30 13 C -2.2326 -1.3479 -0.612 0
M  V30 14 C -1.7067 1.0091 -0.6784 0
M  V30 15 C 1.3344 2.8777 1.2366 0
M  V30 16 C -3.4601 -1.0065 -0.0789 0
M  V30 17 C -2.9561 1.3343 -0.1364 0
M  V30 18 C 1.3591 4.3259 0.7907 0
M  V30 19 O -4.4453 -1.8781 0.2676 0
M  V30 20 C -3.8112 0.2991 0.1545 0
M  V30 21 C -5.442 -0.9696 0.7773 0
M  V30 22 O -5.0584 0.4179 0.6816 0
M  V30 23 H 1.5045 -2.2798 -1.6346 0
M  V30 24 H 2.2817 -3.4596 2.1355 0
M  V30 25 H 2.8798 -1.926 1.4418 0
M  V30 26 H 2.8963 -3.4274 0.4569 0
M  V30 27 H 0.0485 -0.6298 -2.5659 0
M  V30 28 H 0.4706 0.4934 1.0247 0
M  V30 29 H 2.2463 0.4303 1.0307 0
M  V30 30 H 2.3018 -0.0153 -2.8205 0
M  V30 31 H 2.7536 1.2802 -1.7302 0
M  V30 32 H 3.7474 -1.425 -1.8909 0
M  V30 33 H 4.5457 -0.0349 -1.6974 0
M  V30 34 H -1.9977 -2.394 -0.7803 0
M  V30 35 H -1.0194 1.8194 -0.9178 0
M  V30 36 H 2.1987 2.6691 1.8763 0
M  V30 37 H 0.4142 2.678 1.7966 0
M  V30 38 H -3.2374 2.3641 0.0491 0
M  V30 39 H 1.3233 5.0001 1.651 0
M  V30 40 H 2.2658 4.5362 0.2139 0
M  V30 41 H 0.508 4.5419 0.1364 0
M  V30 42 H -5.6313 -1.2096 1.8302 0
M  V30 43 H -6.3698 -1.1151 0.2122 0
M  V30 END ATOM
M  V30 BEGIN BOND
M  V30 1 2 1 2
M  V30 2 2 1 3
M  V30 3 1 1 4
M  V30 4 1 1 5
M  V30 5 1 4 6
M  V30 6 1 4 7
M  V30 7 1 6 8
M  V30 8 1 6 9
M  V30 9 1 7 10
M  V30 10 1 8 11
M  V30 11 1 9 12
M  V30 12 2 10 13
M  V30 13 1 10 14
M  V30 14 1 11 15
M  V30 15 1 13 16
M  V30 16 2 14 17
M  V30 17 1 15 18
M  V30 18 1 16 19
M  V30 19 2 16 20
M  V30 20 1 19 21
M  V30 21 1 20 22
M  V30 22 1 6 7
M  V30 23 1 17 20
M  V30 24 1 21 22
M  V30 25 1 4 23
M  V30 26 1 5 24
M  V30 27 1 5 25
M  V30 28 1 5 26
M  V30 29 1 7 27
M  V30 30 1 8 28
M  V30 31 1 8 29
M  V30 32 1 9 30
M  V30 33 1 9 31
M  V30 34 1 12 32
M  V30 35 1 12 33
M  V30 36 1 13 34
M  V30 37 1 14 35
M  V30 38 1 15 36
M  V30 39 1 15 37
M  V30 40 1 17 38
M  V30 41 1 18 39
M  V30 42 1 18 40
M  V30 43 1 18 41
M  V30 44 1 21 42
M  V30 45 1 21 43
M  V30 END BOND
M  V30 BEGIN COLLECTION
M  V30 MDLV30/STEABS ATOMS=(3 4 6 7)
M  V30 END COLLECTION
M  V30 END CTAB
M  END
>  <NO.>
3861

>  <Name>
sotalol

>  <SMILES>
CCOC[C@]1(CN)[C@H](c2ccc3c(c2)OCO3)[C@@H]1S(C)(=O)=O

>  <logBB>


>  <Class>
1

>  <MW>
327.11

>  <nHBAcc>
6

>  <nHBDon>
1

>  <SLogP>
0.91

>  <TopoPSA>
87.85

>  <MMFF94 Energy>
21.719

$$$$
CCOC[C@]1(N)[C@@H](S(=O)(=O)c2ccc(C)cc2)[C@@H]1c1ccc2c(c1)OCO2
Actelion Java MolfileCreator 2.0

  0  0  0  0  0  0              0 V3000
M  V30 BEGIN CTAB
M  V30 COUNTS 50 53 0 0 0
M  V30 BEGIN ATOM
M  V30 1 S -1.8657 1.2164 -2.3528 0
M  V30 2 O -2.3617 2.565 -2.1408 0
M  V30 3 O -2.664 0.2736 -3.1186 0
M  V30 4 C -0.2874 1.3033 -3.1519 0
M  V30 5 C -1.7019 0.4547 -0.7362 0 CFG=2
M  V30 6 C 0.4207 2.5054 -3.1779 0
M  V30 7 C 0.2033 0.1767 -3.8192 0
M  V30 8 C -0.9996 1.2302 0.3475 0 CFG=1
M  V30 9 C -0.3374 0.0038 -0.2906 0 CFG=1
M  V30 10 C 1.6498 2.5673 -3.8368 0
M  V30 11 C 1.4323 0.2453 -4.4772 0
M  V30 12 N -0.2979 2.5187 0.0908 0
M  V30 13 C -1.6638 1.1512 1.7231 0
M  V30 14 C -0.167 -1.3052 0.4494 0
M  V30 15 C 2.172 1.4353 -4.4768 0
M  V30 16 O -0.7331 1.6217 2.7041 0
M  V30 17 C 0.5951 -1.3667 1.6312 0
M  V30 18 C -0.8326 -2.4841 0.0271 0
M  V30 19 C 3.4769 1.5168 -5.2131 0
M  V30 20 C -1.2588 1.5882 4.0293 0
M  V30 21 C 0.6803 -2.5619 2.3151 0
M  V30 22 C -0.7308 -3.6869 0.7364 0
M  V30 23 C -1.11 0.2097 4.6476 0
M  V30 24 O 1.374 -2.7719 3.4656 0
M  V30 25 C 0.0349 -3.6915 1.8786 0
M  V30 26 C 1.1028 -4.1702 3.6936 0
M  V30 27 O 0.2428 -4.7578 2.695 0
M  V30 28 H -2.5651 -0.1299 -0.4469 0
M  V30 29 H 0.0292 3.3933 -2.6871 0
M  V30 30 H -0.3636 -0.751 -3.8381 0
M  V30 31 H 0.5212 0.2352 -0.9154 0
M  V30 32 H 2.1977 3.5073 -3.8493 0
M  V30 33 H 1.808 -0.6338 -4.9965 0
M  V30 34 H 0.2169 2.7617 0.945 0
M  V30 35 H -0.9855 3.2697 -0.0182 0
M  V30 36 H -2.5427 1.8074 1.7237 0
M  V30 37 H -1.9941 0.1352 1.9599 0
M  V30 38 H 1.108 -0.4856 2.0065 0
M  V30 39 H -1.4364 -2.4657 -0.8791 0
M  V30 40 H 3.303 1.8208 -6.2498 0
M  V30 41 H 4.1481 2.2407 -4.7391 0
M  V30 42 H 3.9887 0.5487 -5.2086 0
M  V30 43 H -2.3025 1.9219 4.0439 0
M  V30 44 H -0.6785 2.3043 4.6203 0
M  V30 45 H -1.2389 -4.5834 0.3997 0
M  V30 46 H -1.4391 0.218 5.6907 0
M  V30 47 H -1.6992 -0.537 4.1076 0
M  V30 48 H -0.0658 -0.1166 4.6113 0
M  V30 49 H 2.0536 -4.7154 3.7028 0
M  V30 50 H 0.6255 -4.2789 4.6744 0
M  V30 END ATOM
M  V30 BEGIN BOND
M  V30 1 2 1 2
M  V30 2 2 1 3
M  V30 3 1 1 4
M  V30 4 1 1 5
M  V30 5 2 4 6
M  V30 6 1 4 7
M  V30 7 1 5 8
M  V30 8 1 5 9
M  V30 9 1 6 10
M  V30 10 2 7 11
M  V30 11 1 8 12
M  V30 12 1 8 13
M  V30 13 1 9 14
M  V30 14 2 10 15
M  V30 15 1 13 16
M  V30 16 2 14 17
M  V30 17 1 14 18
M  V30 18 1 15 19
M  V30 19 1 16 20
M  V30 20 1 17 21
M  V30 21 2 18 22
M  V30 22 1 20 23
M  V30 23 1 21 24
M  V30 24 2 21 25
M  V30 25 1 24 26
M  V30 26 1 25 27
M  V30 27 1 8 9
M  V30 28 1 11 15
M  V30 29 1 22 25
M  V30 30 1 26 27
M  V30 31 1 5 28
M  V30 32 1 6 29
M  V30 33 1 7 30
M  V30 34 1 9 31
M  V30 35 1 10 32
M  V30 36 1 11 33
M  V30 37 1 12 34
M  V30 38 1 12 35
M  V30 39 1 13 36
M  V30 40 1 13 37
M  V30 41 1 17 38
M  V30 42 1 18 39
M  V30 43 1 19 40
M  V30 44 1 19 41
M  V30 45 1 19 42
M  V30 46 1 20 43
M  V30 47 1 20 44
M  V30 48 1 22 45
M  V30 49 1 23 46
M  V30 50 1 23 47
M  V30 51 1 23 48
M  V30 52 1 26 49
M  V30 53 1 26 50
M  V30 END BOND
M  V30 BEGIN COLLECTION
M  V30 MDLV30/STEABS ATOMS=(3 5 8 9)
M  V30 END COLLECTION
M  V30 END CTAB
M  END
>  <NO.>
3862

>  <Name>
trometamol

>  <SMILES>
CCOC[C@]1(N)[C@@H](S(=O)(=O)c2ccc(C)cc2)[C@@H]1c1ccc2c(c1)OCO2

>  <logBB>


>  <Class>
-1

>  <MW>
389.13

>  <nHBAcc>
6

>  <nHBDon>
1

>  <SLogP>
2.4

>  <TopoPSA>
87.85

>  <MMFF94 Energy>
91.338

$$$$
CCOc1ccc(CCCNC(=O)[C@@H](C)SCc2ccccc2)cc1
Actelion Java MolfileCreator 2.0

  0  0  0  0  0  0              0 V3000
M  V30 BEGIN CTAB
M  V30 COUNTS 52 53 0 0 0
M  V30 BEGIN ATOM
M  V30 1 S 2.2255 1.7482 3.4193 0
M  V30 2 C 0.6449 1.2216 4.1865 0 CFG=1
M  V30 3 C 1.8546 3.5223 3.2121 0
M  V30 4 C -0.5126 1.3974 3.203 0
M  V30 5 C 0.7548 -0.2278 4.6436 0
M  V30 6 C 3.0264 4.2567 2.6117 0
M  V30 7 O -1.5024 2.0691 3.4842 0
M  V30 8 N -0.3626 0.7469 1.9969 0
M  V30 9 C 4.0411 4.7726 3.4314 0
M  V30 10 C 3.1318 4.4155 1.222 0
M  V30 11 C -1.3589 0.8289 0.951 0
M  V30 12 C 5.1295 5.445 2.8734 0
M  V30 13 C 4.2211 5.0885 0.6663 0
M  V30 14 C -1.2505 -0.3476 -0.0104 0
M  V30 15 C 5.2181 5.6043 1.4919 0
M  V30 16 C -2.3059 -0.256 -1.1124 0
M  V30 17 C -2.2046 -1.4128 -2.074 0
M  V30 18 C -1.3868 -1.3275 -3.2054 0
M  V30 19 C -2.9045 -2.6015 -1.8336 0
M  V30 20 C -1.2827 -2.4097 -4.0822 0
M  V30 21 C -2.7982 -3.684 -2.7143 0
M  V30 22 C -1.9865 -3.5919 -3.8441 0
M  V30 23 O -1.7936 -4.5698 -4.7804 0
M  V30 24 C -2.4964 -5.7963 -4.5917 0
M  V30 25 C -2.1407 -6.7212 -5.7417 0
M  V30 26 H 0.4578 1.8563 5.0598 0
M  V30 27 H 1.6066 3.9582 4.1864 0
M  V30 28 H 0.9783 3.647 2.567 0
M  V30 29 H -0.1934 -0.5605 5.0812 0
M  V30 30 H 0.9826 -0.9107 3.8174 0
M  V30 31 H 1.5302 -0.3447 5.4086 0
M  V30 32 H 0.5484 0.3516 1.7863 0
M  V30 33 H 3.9909 4.648 4.5109 0
M  V30 34 H 2.3656 4.0123 0.5638 0
M  V30 35 H -1.1973 1.7764 0.4251 0
M  V30 36 H -2.3547 0.8647 1.407 0
M  V30 37 H 5.9107 5.8406 3.517 0
M  V30 38 H 4.2936 5.2071 -0.4113 0
M  V30 39 H -1.3644 -1.2875 0.5451 0
M  V30 40 H -0.2454 -0.3718 -0.4512 0
M  V30 41 H 6.0671 6.1259 1.0584 0
M  V30 42 H -3.3117 -0.2345 -0.6739 0
M  V30 43 H -2.1973 0.6864 -1.6639 0
M  V30 44 H -0.8247 -0.4206 -3.4146 0
M  V30 45 H -3.5403 -2.6948 -0.9556 0
M  V30 46 H -0.646 -2.3313 -4.96 0
M  V30 47 H -3.3615 -4.5822 -2.486 0
M  V30 48 H -3.5783 -5.6201 -4.5962 0
M  V30 49 H -2.1949 -6.2663 -3.6485 0
M  V30 50 H -2.656 -7.6808 -5.644 0
M  V30 51 H -2.4154 -6.2681 -6.7 0
M  V30 52 H -1.061 -6.9009 -5.772 0
M  V30 END ATOM
M  V30 BEGIN BOND
M  V30 1 1 1 2
M  V30 2 1 1 3
M  V30 3 1 2 4
M  V30 4 1 2 5
M  V30 5 1 3 6
M  V30 6 2 4 7
M  V30 7 1 4 8
M  V30 8 2 6 9
M  V30 9 1 6 10
M  V30 10 1 8 11
M  V30 11 1 9 12
M  V30 12 2 10 13
M  V30 13 1 11 14
M  V30 14 2 12 15
M  V30 15 1 14 16
M  V30 16 1 16 17
M  V30 17 2 17 18
M  V30 18 1 17 19
M  V30 19 1 18 20
M  V30 20 2 19 21
M  V30 21 2 20 22
M  V30 22 1 22 23
M  V30 23 1 23 24
M  V30 24 1 24 25
M  V30 25 1 13 15
M  V30 26 1 21 22
M  V30 27 1 2 26
M  V30 28 1 3 27
M  V30 29 1 3 28
M  V30 30 1 5 29
M  V30 31 1 5 30
M  V30 32 1 5 31
M  V30 33 1 8 32
M  V30 34 1 9 33
M  V30 35 1 10 34
M  V30 36 1 11 35
M  V30 37 1 11 36
M  V30 38 1 12 37
M  V30 39 1 13 38
M  V30 40 1 14 39
M  V30 41 1 14 40
M  V30 42 1 15 41
M  V30 43 1 16 42
M  V30 44 1 16 43
M  V30 45 1 18 44
M  V30 46 1 19 45
M  V30 47 1 20 46
M  V30 48 1 21 47
M  V30 49 1 24 48
M  V30 50 1 24 49
M  V30 51 1 25 50
M  V30 52 1 25 51
M  V30 53 1 25 52
M  V30 END BOND
M  V30 BEGIN COLLECTION
M  V30 MDLV30/STEABS ATOMS=(1 2)
M  V30 END COLLECTION
M  V30 END CTAB
M  END
>  <NO.>
3864

>  <Name>
colchicine

>  <SMILES>
CCOc1ccc(CCCNC(=O)[C@@H](C)SCc2ccccc2)cc1

>  <logBB>


>  <Class>
-1

>  <MW>
357.18

>  <nHBAcc>
3

>  <nHBDon>
1

>  <SLogP>
4.46

>  <TopoPSA>
38.33

>  <MMFF94 Energy>
46.467

$$$$
CCOc1ccc(CCCNC(=O)[C@H](C)Sc2ccc(C)cc2)cc1
Actelion Java MolfileCreator 2.0

  0  0  0  0  0  0              0 V3000
M  V30 BEGIN CTAB
M  V30 COUNTS 52 53 0 0 0
M  V30 BEGIN ATOM
M  V30 1 S 2.6227 1.112 1.6683 0
M  V30 2 C 4.1693 1.1838 2.5516 0
M  V30 3 C 3.1617 0.2625 0.1249 0 CFG=2
M  V30 4 C 4.2942 0.5128 3.7705 0
M  V30 5 C 5.2511 1.9202 2.0624 0
M  V30 6 C 2.0854 0.4151 -0.9532 0
M  V30 7 C 3.4323 -1.2159 0.3816 0
M  V30 8 C 5.4958 0.5593 4.4829 0
M  V30 9 C 6.4529 1.9673 2.7744 0
M  V30 10 O 2.3673 0.7574 -2.1006 0
M  V30 11 N 0.8051 0.0729 -0.572 0
M  V30 12 C 6.5815 1.2951 3.995 0
M  V30 13 C -0.3175 0.1212 -1.4854 0
M  V30 14 C 7.8815 1.3195 4.7433 0
M  V30 15 C -0.4167 -1.1585 -2.314 0
M  V30 16 C -1.5317 -1.1002 -3.3615 0
M  V30 17 C -2.916 -1.0245 -2.7664 0
M  V30 18 C -3.6571 0.1619 -2.8328 0
M  V30 19 C -3.479 -2.1359 -2.1296 0
M  V30 20 C -4.9365 0.2388 -2.27 0
M  V30 21 C -4.7558 -2.056 -1.5688 0
M  V30 22 C -5.4915 -0.8711 -1.6343 0
M  V30 23 O -6.7241 -0.9305 -1.0448 0
M  V30 24 C -7.5248 0.2488 -1.0949 0
M  V30 25 C -8.8386 -0.0469 -0.3937 0
M  V30 26 H 4.0659 0.7487 -0.2564 0
M  V30 27 H 3.4608 -0.056 4.1756 0
M  V30 28 H 5.1707 2.4709 1.1284 0
M  V30 29 H 3.6837 -1.7243 -0.5563 0
M  V30 30 H 2.5588 -1.7296 0.799 0
M  V30 31 H 4.2748 -1.359 1.066 0
M  V30 32 H 5.5759 0.0204 5.4245 0
M  V30 33 H 7.2861 2.5396 2.3719 0
M  V30 34 H 0.633 -0.1275 0.4069 0
M  V30 35 H -0.2054 0.9948 -2.1371 0
M  V30 36 H -1.2137 0.2636 -0.8733 0
M  V30 37 H 8.4122 2.2623 4.5736 0
M  V30 38 H 7.7132 1.2318 5.8219 0
M  V30 39 H 8.517 0.4913 4.4156 0
M  V30 40 H -0.5579 -2.0177 -1.6464 0
M  V30 41 H 0.534 -1.3297 -2.8343 0
M  V30 42 H -1.3624 -0.2498 -4.0341 0
M  V30 43 H -1.4786 -1.9953 -3.9945 0
M  V30 44 H -3.2439 1.0408 -3.3237 0
M  V30 45 H -2.9303 -3.0727 -2.0666 0
M  V30 46 H -5.4698 1.1802 -2.347 0
M  V30 47 H -5.1827 -2.9268 -1.0771 0
M  V30 48 H -7.7297 0.5262 -2.1354 0
M  V30 49 H -7.021 1.0731 -0.5769 0
M  V30 50 H -9.4923 0.8297 -0.4041 0
M  V30 51 H -9.3563 -0.8801 -0.8804 0
M  V30 52 H -8.6625 -0.3444 0.6454 0
M  V30 END ATOM
M  V30 BEGIN BOND
M  V30 1 1 1 2
M  V30 2 1 1 3
M  V30 3 2 2 4
M  V30 4 1 2 5
M  V30 5 1 3 6
M  V30 6 1 3 7
M  V30 7 1 4 8
M  V30 8 2 5 9
M  V30 9 2 6 10
M  V30 10 1 6 11
M  V30 11 2 8 12
M  V30 12 1 11 13
M  V30 13 1 12 14
M  V30 14 1 13 15
M  V30 15 1 15 16
M  V30 16 1 16 17
M  V30 17 2 17 18
M  V30 18 1 17 19
M  V30 19 1 18 20
M  V30 20 2 19 21
M  V30 21 2 20 22
M  V30 22 1 22 23
M  V30 23 1 23 24
M  V30 24 1 24 25
M  V30 25 1 9 12
M  V30 26 1 21 22
M  V30 27 1 3 26
M  V30 28 1 4 27
M  V30 29 1 5 28
M  V30 30 1 7 29
M  V30 31 1 7 30
M  V30 32 1 7 31
M  V30 33 1 8 32
M  V30 34 1 9 33
M  V30 35 1 11 34
M  V30 36 1 13 35
M  V30 37 1 13 36
M  V30 38 1 14 37
M  V30 39 1 14 38
M  V30 40 1 14 39
M  V30 41 1 15 40
M  V30 42 1 15 41
M  V30 43 1 16 42
M  V30 44 1 16 43
M  V30 45 1 18 44
M  V30 46 1 19 45
M  V30 47 1 20 46
M  V30 48 1 21 47
M  V30 49 1 24 48
M  V30 50 1 24 49
M  V30 51 1 25 50
M  V30 52 1 25 51
M  V30 53 1 25 52
M  V30 END BOND
M  V30 BEGIN COLLECTION
M  V30 MDLV30/STEABS ATOMS=(1 3)
M  V30 END COLLECTION
M  V30 END CTAB
M  END
>  <NO.>
3865

>  <Name>
teniposide

>  <SMILES>
CCOc1ccc(CCCNC(=O)[C@H](C)Sc2ccc(C)cc2)cc1

>  <logBB>


>  <Class>
1

>  <MW>
357.18

>  <nHBAcc>
3

>  <nHBDon>
1

>  <SLogP>
4.62

>  <TopoPSA>
38.33

>  <MMFF94 Energy>
39.973

$$$$
CCOc1ccc(CCCNC(=O)c2cc([N+](=O)[O-])ccc2Cl)cc1
Actelion Java MolfileCreator 2.0

  0  0  0  0  0  0              0 V3000
M  V30 BEGIN CTAB
M  V30 COUNTS 44 45 0 0 0
M  V30 BEGIN ATOM
M  V30 1 Cl 1.6806 2.081 0.6399 0
M  V30 2 C 3.273 1.5109 0.9924 0
M  V30 3 C 3.7933 0.297 0.5161 0
M  V30 4 C 4.0712 2.3567 1.7784 0
M  V30 5 C 3.0538 -0.6858 -0.3258 0
M  V30 6 C 5.1257 -0.0454 0.8242 0
M  V30 7 C 5.3876 2.0099 2.0909 0
M  V30 8 O 3.6821 -1.3888 -1.1107 0
M  V30 9 N 1.6955 -0.7959 -0.1435 0
M  V30 10 C 5.9125 0.807 1.6089 0
M  V30 11 C 0.8998 -1.7775 -0.8545 0
M  V30 12 N 7.2967 0.4363 1.932 0 CHG=1
M  V30 13 C 0.5778 -1.3664 -2.2921 0
M  V30 14 O 7.9904 1.2751 2.5239 0
M  V30 15 O 7.6837 -0.6917 1.6005 0 CHG=-1
M  V30 16 C -0.2671 -0.0925 -2.4119 0
M  V30 17 C -1.6319 -0.1917 -1.7743 0
M  V30 18 C -2.5784 -1.1085 -2.2455 0
M  V30 19 C -1.9799 0.6428 -0.7047 0
M  V30 20 C -3.8372 -1.1964 -1.6459 0
M  V30 21 C -3.2425 0.5537 -0.1064 0
M  V30 22 C -4.1768 -0.3691 -0.574 0
M  V30 23 O -5.4384 -0.5596 -0.0822 0
M  V30 24 C -5.8466 0.2745 1.0003 0
M  V30 25 C -7.2696 -0.1029 1.3717 0
M  V30 26 H 3.6726 3.3012 2.147 0
M  V30 27 H 5.5364 -0.9827 0.4462 0
M  V30 28 H 5.985 2.6858 2.7011 0
M  V30 29 H 1.2183 -0.1834 0.5066 0
M  V30 30 H -0.0124 -1.9429 -0.2727 0
M  V30 31 H 1.4553 -2.7223 -0.8668 0
M  V30 32 H 0.0642 -2.2011 -2.7844 0
M  V30 33 H 1.512 -1.2097 -2.8453 0
M  V30 34 H 0.2858 0.7564 -1.9927 0
M  V30 35 H -0.408 0.1431 -3.4748 0
M  V30 36 H -2.3476 -1.76 -3.0851 0
M  V30 37 H -1.2717 1.3772 -0.3282 0
M  V30 38 H -4.5622 -1.9147 -2.021 0
M  V30 39 H -3.4628 1.2223 0.7187 0
M  V30 40 H -5.8233 1.3282 0.699 0
M  V30 41 H -5.1967 0.1161 1.8686 0
M  V30 42 H -7.6319 0.5106 2.2014 0
M  V30 43 H -7.9394 0.0289 0.5154 0
M  V30 44 H -7.3257 -1.1576 1.6608 0
M  V30 END ATOM
M  V30 BEGIN BOND
M  V30 1 1 1 2
M  V30 2 2 2 3
M  V30 3 1 2 4
M  V30 4 1 3 5
M  V30 5 1 3 6
M  V30 6 2 4 7
M  V30 7 2 5 8
M  V30 8 1 5 9
M  V30 9 2 6 10
M  V30 10 1 9 11
M  V30 11 1 10 12
M  V30 12 1 11 13
M  V30 13 2 12 14
M  V30 14 1 12 15
M  V30 15 1 13 16
M  V30 16 1 16 17
M  V30 17 2 17 18
M  V30 18 1 17 19
M  V30 19 1 18 20
M  V30 20 2 19 21
M  V30 21 2 20 22
M  V30 22 1 22 23
M  V30 23 1 23 24
M  V30 24 1 24 25
M  V30 25 1 7 10
M  V30 26 1 21 22
M  V30 27 1 4 26
M  V30 28 1 6 27
M  V30 29 1 7 28
M  V30 30 1 9 29
M  V30 31 1 11 30
M  V30 32 1 11 31
M  V30 33 1 13 32
M  V30 34 1 13 33
M  V30 35 1 16 34
M  V30 36 1 16 35
M  V30 37 1 18 36
M  V30 38 1 19 37
M  V30 39 1 20 38
M  V30 40 1 21 39
M  V30 41 1 24 40
M  V30 42 1 24 41
M  V30 43 1 25 42
M  V30 44 1 25 43
M  V30 45 1 25 44
M  V30 END BOND
M  V30 END CTAB
M  END
>  <NO.>
3866

>  <Name>
primidone

>  <SMILES>
CCOc1ccc(CCCNC(=O)c2cc([N+](=O)[O-])ccc2Cl)cc1

>  <logBB>


>  <Class>
1

>  <MW>
362.1

>  <nHBAcc>
4

>  <nHBDon>
1

>  <SLogP>
4.01

>  <TopoPSA>
81.47

>  <MMFF94 Energy>
49.72

$$$$
CCOc1ccc(N([C@@H](CC)C(=O)Nc2c(C)cccc2CC)S(C)(=O)=O)cc1
Actelion Java MolfileCreator 2.0

  0  0  0  0  0  0              0 V3000
M  V30 BEGIN CTAB
M  V30 COUNTS 59 60 0 0 0
M  V30 BEGIN ATOM
M  V30 1 S -0.5567 3.8228 -1.273 0
M  V30 2 O -1.8564 4.1829 -1.7998 0
M  V30 3 O -0.0992 4.4058 -0.0278 0
M  V30 4 N -0.4765 2.1102 -1.1339 0
M  V30 5 C 0.6358 4.1776 -2.553 0
M  V30 6 C 0.8679 1.604 -0.9506 0
M  V30 7 C -1.5009 1.5133 -0.1913 0 CFG=2
M  V30 8 C 1.386 0.7726 -1.9449 0
M  V30 9 C 1.6358 1.8889 0.179 0
M  V30 10 C -1.2872 0.0175 0.1199 0
M  V30 11 C -2.9524 1.653 -0.6927 0
M  V30 12 C 2.6732 0.2391 -1.8234 0
M  V30 13 C 2.9252 1.3635 0.2921 0
M  V30 14 O -1.0258 -0.8153 -0.7462 0
M  V30 15 N -1.4833 -0.2938 1.4603 0
M  V30 16 C -3.1881 1.1635 -2.1171 0
M  V30 17 C 3.4493 0.5345 -0.703 0
M  V30 18 C -1.4398 -1.6118 1.9537 0
M  V30 19 O 4.7146 0.0799 -0.4573 0
M  V30 20 C -2.6319 -2.2004 2.4243 0
M  V30 21 C -0.2157 -2.3038 2.0383 0
M  V30 22 C 5.272 -0.8304 -1.4037 0
M  V30 23 C -2.5858 -3.5061 2.9391 0
M  V30 24 C -3.9758 -1.513 2.3358 0
M  V30 25 C -0.2084 -3.6103 2.5497 0
M  V30 26 C 1.0838 -1.7044 1.578 0
M  V30 27 C 6.6517 -1.2296 -0.9121 0
M  V30 28 C -1.3838 -4.2062 2.9991 0
M  V30 29 C -4.6685 -1.7926 1.01 0
M  V30 30 H 1.6427 3.9603 -2.1955 0
M  V30 31 H 0.5596 5.2422 -2.7874 0
M  V30 32 H 0.3887 3.5907 -3.4394 0
M  V30 33 H -1.4192 2.0568 0.7607 0
M  V30 34 H 0.777 0.5145 -2.8082 0
M  V30 35 H 1.2534 2.5183 0.9777 0
M  V30 36 H -3.2832 2.6927 -0.6119 0
M  V30 37 H -3.6228 1.0936 -0.0272 0
M  V30 38 H 3.0299 -0.4106 -2.6153 0
M  V30 39 H 3.5242 1.5938 1.1703 0
M  V30 40 H -1.8214 0.4133 2.0998 0
M  V30 41 H -2.5631 1.6947 -2.8402 0
M  V30 42 H -4.2337 1.329 -2.3972 0
M  V30 43 H -2.9892 0.0925 -2.2118 0
M  V30 44 H 5.3669 -0.3483 -2.3834 0
M  V30 45 H 4.6474 -1.7276 -1.4835 0
M  V30 46 H -3.4956 -3.9916 3.286 0
M  V30 47 H -3.8688 -0.4326 2.4827 0
M  V30 48 H -4.616 -1.8541 3.1592 0
M  V30 49 H 0.7212 -4.1727 2.6025 0
M  V30 50 H 1.1645 -1.7592 0.4892 0
M  V30 51 H 1.9396 -2.2367 2.0074 0
M  V30 52 H 1.1673 -0.6642 1.9059 0
M  V30 53 H 7.1252 -1.9298 -1.6058 0
M  V30 54 H 7.293 -0.3484 -0.806 0
M  V30 55 H 6.5882 -1.6983 0.0754 0
M  V30 56 H -1.3633 -5.2194 3.3918 0
M  V30 57 H -5.6332 -1.2767 0.9716 0
M  V30 58 H -4.8525 -2.8641 0.8776 0
M  V30 59 H -4.067 -1.4504 0.162 0
M  V30 END ATOM
M  V30 BEGIN BOND
M  V30 1 2 1 2
M  V30 2 2 1 3
M  V30 3 1 1 4
M  V30 4 1 1 5
M  V30 5 1 4 6
M  V30 6 1 4 7
M  V30 7 2 6 8
M  V30 8 1 6 9
M  V30 9 1 7 10
M  V30 10 1 7 11
M  V30 11 1 8 12
M  V30 12 2 9 13
M  V30 13 2 10 14
M  V30 14 1 10 15
M  V30 15 1 11 16
M  V30 16 2 12 17
M  V30 17 1 15 18
M  V30 18 1 17 19
M  V30 19 2 18 20
M  V30 20 1 18 21
M  V30 21 1 19 22
M  V30 22 1 20 23
M  V30 23 1 20 24
M  V30 24 2 21 25
M  V30 25 1 21 26
M  V30 26 1 22 27
M  V30 27 2 23 28
M  V30 28 1 24 29
M  V30 29 1 13 17
M  V30 30 1 25 28
M  V30 31 1 5 30
M  V30 32 1 5 31
M  V30 33 1 5 32
M  V30 34 1 7 33
M  V30 35 1 8 34
M  V30 36 1 9 35
M  V30 37 1 11 36
M  V30 38 1 11 37
M  V30 39 1 12 38
M  V30 40 1 13 39
M  V30 41 1 15 40
M  V30 42 1 16 41
M  V30 43 1 16 42
M  V30 44 1 16 43
M  V30 45 1 22 44
M  V30 46 1 22 45
M  V30 47 1 23 46
M  V30 48 1 24 47
M  V30 49 1 24 48
M  V30 50 1 25 49
M  V30 51 1 26 50
M  V30 52 1 26 51
M  V30 53 1 26 52
M  V30 54 1 27 53
M  V30 55 1 27 54
M  V30 56 1 27 55
M  V30 57 1 28 56
M  V30 58 1 29 57
M  V30 59 1 29 58
M  V30 60 1 29 59
M  V30 END BOND
M  V30 BEGIN COLLECTION
M  V30 MDLV30/STEABS ATOMS=(1 7)
M  V30 END COLLECTION
M  V30 END CTAB
M  END
>  <NO.>
3867

>  <Name>
trovafloxacin

>  <SMILES>
CCOc1ccc(N([C@@H](CC)C(=O)Nc2c(C)cccc2CC)S(C)(=O)=O)cc1

>  <logBB>


>  <Class>
1

>  <MW>
418.19

>  <nHBAcc>
4

>  <nHBDon>
1

>  <SLogP>
4.14

>  <TopoPSA>
75.71

>  <MMFF94 Energy>
25.044

$$$$
CCS(=O)(=O)[C@@H]1[C@@H](C#N)[C@@H]1c1ccc2c(c1)OCO2
Actelion Java MolfileCreator 2.0

  0  0  0  0  0  0              0 V3000
M  V30 BEGIN CTAB
M  V30 COUNTS 32 34 0 0 0
M  V30 BEGIN ATOM
M  V30 1 S 1.2351 -2.0591 0.7409 0
M  V30 2 O 2.0778 -3.2356 0.8304 0
M  V30 3 O 0.9205 -1.2996 1.9336 0
M  V30 4 C 2.0958 -0.9811 -0.4234 0 CFG=2
M  V30 5 C -0.2877 -2.5429 -0.0365 0
M  V30 6 C 2.7302 0.2078 0.263 0 CFG=2
M  V30 7 C 1.594 0.4044 -0.7208 0 CFG=2
M  V30 8 C -0.0995 -3.0711 -1.4427 0
M  V30 9 C 4.0569 0.5816 -0.1336 0
M  V30 10 C 0.2111 0.892 -0.3499 0
M  V30 11 N 5.1206 0.8794 -0.485 0
M  V30 12 C -0.1127 1.4445 0.9032 0
M  V30 13 C -0.7885 0.9447 -1.36 0
M  V30 14 C -1.3852 1.9394 1.1174 0
M  V30 15 C -2.0724 1.4507 -1.1224 0
M  V30 16 O -1.8392 2.4824 2.2788 0
M  V30 17 C -2.3405 1.9373 0.1336 0
M  V30 18 C -3.1964 2.8084 1.9147 0
M  V30 19 O -3.5189 2.4703 0.549 0
M  V30 20 H 2.6523 -1.4933 -1.1979 0
M  V30 21 H -0.9647 -1.6866 -0.0287 0
M  V30 22 H -0.7268 -3.3177 0.6006 0
M  V30 23 H 2.5368 0.369 1.316 0
M  V30 24 H 1.9015 0.7683 -1.7056 0
M  V30 25 H -1.0572 -3.4084 -1.8509 0
M  V30 26 H 0.2952 -2.2993 -2.1099 0
M  V30 27 H 0.5944 -3.9171 -1.4595 0
M  V30 28 H 0.6053 1.4845 1.7155 0
M  V30 29 H -0.5584 0.5769 -2.3596 0
M  V30 30 H -2.8252 1.4711 -1.9023 0
M  V30 31 H -3.3482 3.8849 2.0543 0
M  V30 32 H -3.8785 2.2674 2.5806 0
M  V30 END ATOM
M  V30 BEGIN BOND
M  V30 1 2 1 2
M  V30 2 2 1 3
M  V30 3 1 1 4
M  V30 4 1 1 5
M  V30 5 1 4 6
M  V30 6 1 4 7
M  V30 7 1 5 8
M  V30 8 1 6 9
M  V30 9 1 7 10
M  V30 10 3 9 11
M  V30 11 2 10 12
M  V30 12 1 10 13
M  V30 13 1 12 14
M  V30 14 2 13 15
M  V30 15 1 14 16
M  V30 16 2 14 17
M  V30 17 1 16 18
M  V30 18 1 17 19
M  V30 19 1 6 7
M  V30 20 1 15 17
M  V30 21 1 18 19
M  V30 22 1 4 20
M  V30 23 1 5 21
M  V30 24 1 5 22
M  V30 25 1 6 23
M  V30 26 1 7 24
M  V30 27 1 8 25
M  V30 28 1 8 26
M  V30 29 1 8 27
M  V30 30 1 12 28
M  V30 31 1 13 29
M  V30 32 1 15 30
M  V30 33 1 18 31
M  V30 34 1 18 32
M  V30 END BOND
M  V30 BEGIN COLLECTION
M  V30 MDLV30/STEABS ATOMS=(3 4 6 7)
M  V30 END COLLECTION
M  V30 END CTAB
M  END
>  <NO.>
3868

>  <Name>
trazodone

>  <SMILES>
CCS(=O)(=O)[C@@H]1[C@@H](C#N)[C@@H]1c1ccc2c(c1)OCO2

>  <logBB>


>  <Class>
1

>  <MW>
279.06

>  <nHBAcc>
5

>  <nHBDon>
0

>  <SLogP>
1.46

>  <TopoPSA>
76.39

>  <MMFF94 Energy>
7.26

$$$$
CCS(=O)(=O)[C@@H]1[C@@H](CN)[C@@H]1c1ccc2c(c1)OCO2
Actelion Java MolfileCreator 2.0

  0  0  0  0  0  0              0 V3000
M  V30 BEGIN CTAB
M  V30 COUNTS 36 38 0 0 0
M  V30 BEGIN ATOM
M  V30 1 S 0.7309 -2.1127 -0.406 0
M  V30 2 O 1.5548 -3.2666 -0.7137 0
M  V30 3 O 0.2681 -1.8831 0.9477 0
M  V30 4 C 1.6978 -0.6872 -0.9657 0 CFG=1
M  V30 5 C -0.6753 -2.1532 -1.4966 0
M  V30 6 C 1.2451 0.7212 -0.688 0 CFG=2
M  V30 7 C 2.3146 0.0904 0.1799 0 CFG=2
M  V30 8 C -1.5298 -3.3829 -1.2609 0
M  V30 9 C -0.1364 1.0928 -0.1971 0
M  V30 10 C 3.7302 0.5529 0.0924 0
M  V30 11 C -0.5088 1.0897 1.1598 0
M  V30 12 C -1.0691 1.6361 -1.1229 0
M  V30 13 N 4.5812 -0.6156 -0.0422 0
M  V30 14 C -1.7661 1.5353 1.5204 0
M  V30 15 C -2.3392 2.083 -0.7382 0
M  V30 16 O -2.2627 1.5713 2.7863 0
M  V30 17 C -2.659 2.0132 0.5956 0
M  V30 18 C -3.5811 2.1034 2.5456 0
M  V30 19 O -3.8336 2.4029 1.1565 0
M  V30 20 H 2.2998 -0.863 -1.8474 0
M  V30 21 H -0.2956 -2.1442 -2.5224 0
M  V30 22 H -1.2679 -1.2538 -1.3252 0
M  V30 23 H 1.6183 1.4354 -1.4263 0
M  V30 24 H 2.0761 -0.2114 1.1927 0
M  V30 25 H -2.3898 -3.3837 -1.9374 0
M  V30 26 H -0.9589 -4.3005 -1.4342 0
M  V30 27 H -1.9036 -3.4111 -0.2324 0
M  V30 28 H 3.9963 1.1144 0.994 0
M  V30 29 H 3.8863 1.2119 -0.7679 0
M  V30 30 H 0.1631 0.731 1.9322 0
M  V30 31 H -0.7949 1.7058 -2.175 0
M  V30 32 H 4.4454 -1.2373 0.7555 0
M  V30 33 H 5.5587 -0.33 -0.0101 0
M  V30 34 H -3.0413 2.4805 -1.462 0
M  V30 35 H -3.6996 3.0237 3.129 0
M  V30 36 H -4.3231 1.3725 2.8875 0
M  V30 END ATOM
M  V30 BEGIN BOND
M  V30 1 2 1 2
M  V30 2 2 1 3
M  V30 3 1 1 4
M  V30 4 1 1 5
M  V30 5 1 4 6
M  V30 6 1 4 7
M  V30 7 1 5 8
M  V30 8 1 6 9
M  V30 9 1 7 10
M  V30 10 2 9 11
M  V30 11 1 9 12
M  V30 12 1 10 13
M  V30 13 1 11 14
M  V30 14 2 12 15
M  V30 15 1 14 16
M  V30 16 2 14 17
M  V30 17 1 16 18
M  V30 18 1 17 19
M  V30 19 1 6 7
M  V30 20 1 15 17
M  V30 21 1 18 19
M  V30 22 1 4 20
M  V30 23 1 5 21
M  V30 24 1 5 22
M  V30 25 1 6 23
M  V30 26 1 7 24
M  V30 27 1 8 25
M  V30 28 1 8 26
M  V30 29 1 8 27
M  V30 30 1 10 28
M  V30 31 1 10 29
M  V30 32 1 11 30
M  V30 33 1 12 31
M  V30 34 1 13 32
M  V30 35 1 13 33
M  V30 36 1 15 34
M  V30 37 1 18 35
M  V30 38 1 18 36
M  V30 END BOND
M  V30 BEGIN COLLECTION
M  V30 MDLV30/STEABS ATOMS=(3 4 6 7)
M  V30 END COLLECTION
M  V30 END CTAB
M  END
>  <NO.>
3869

>  <Name>
vancomycin

>  <SMILES>
CCS(=O)(=O)[C@@H]1[C@@H](CN)[C@@H]1c1ccc2c(c1)OCO2

>  <logBB>


>  <Class>
-1

>  <MW>
283.09

>  <nHBAcc>
5

>  <nHBDon>
1

>  <SLogP>
0.89

>  <TopoPSA>
78.62

>  <MMFF94 Energy>
14.334

$$$$
CCS(=O)(=O)[C@H]1[C@@H](C#N)[C@@H]1c1ccccc1
Actelion Java MolfileCreator 2.0

  0  0  0  0  0  0              0 V3000
M  V30 BEGIN CTAB
M  V30 COUNTS 29 30 0 0 0
M  V30 BEGIN ATOM
M  V30 1 S -0.735 1.9609 1.3069 0
M  V30 2 O 0.4216 2.1856 2.1517 0
M  V30 3 O -1.0718 2.899 0.2572 0
M  V30 4 C -0.4431 0.3434 0.5532 0 CFG=1
M  V30 5 C -2.1571 1.7594 2.3574 0
M  V30 6 C -1.3445 -0.1275 -0.549 0 CFG=2
M  V30 7 C 0.0222 0.4374 -0.886 0 CFG=2
M  V30 8 C -1.9924 0.6526 3.3778 0
M  V30 9 C -2.5291 0.575 -0.9418 0
M  V30 10 C 1.1297 -0.4722 -1.3675 0
M  V30 11 N -3.5267 1.0938 -1.2224 0
M  V30 12 C 0.9348 -1.3611 -2.4382 0
M  V30 13 C 2.3579 -0.5405 -0.6873 0
M  V30 14 C 1.9338 -2.254 -2.8351 0
M  V30 15 C 3.3602 -1.4312 -1.0797 0
M  V30 16 C 3.1476 -2.2875 -2.1555 0
M  V30 17 H 0.0027 -0.4009 1.1986 0
M  V30 18 H -3.0259 1.5732 1.7216 0
M  V30 19 H -2.3081 2.719 2.8625 0
M  V30 20 H -1.4558 -1.2065 -0.6198 0
M  V30 21 H 0.0362 1.4207 -1.3554 0
M  V30 22 H -2.8717 0.6042 4.0278 0
M  V30 23 H -1.8791 -0.3219 2.894 0
M  V30 24 H -1.1133 0.8198 4.0079 0
M  V30 25 H -0.0053 -1.3523 -2.9863 0
M  V30 26 H 2.5465 0.1214 0.1569 0
M  V30 27 H 1.7632 -2.9215 -3.676 0
M  V30 28 H 4.3063 -1.4531 -0.5446 0
M  V30 29 H 3.9272 -2.9791 -2.4642 0
M  V30 END ATOM
M  V30 BEGIN BOND
M  V30 1 2 1 2
M  V30 2 2 1 3
M  V30 3 1 1 4
M  V30 4 1 1 5
M  V30 5 1 4 6
M  V30 6 1 4 7
M  V30 7 1 5 8
M  V30 8 1 6 9
M  V30 9 1 7 10
M  V30 10 3 9 11
M  V30 11 2 10 12
M  V30 12 1 10 13
M  V30 13 1 12 14
M  V30 14 2 13 15
M  V30 15 2 14 16
M  V30 16 1 6 7
M  V30 17 1 15 16
M  V30 18 1 4 17
M  V30 19 1 5 18
M  V30 20 1 5 19
M  V30 21 1 6 20
M  V30 22 1 7 21
M  V30 23 1 8 22
M  V30 24 1 8 23
M  V30 25 1 8 24
M  V30 26 1 12 25
M  V30 27 1 13 26
M  V30 28 1 14 27
M  V30 29 1 15 28
M  V30 30 1 16 29
M  V30 END BOND
M  V30 BEGIN COLLECTION
M  V30 MDLV30/STEABS ATOMS=(3 4 6 7)
M  V30 END COLLECTION
M  V30 END CTAB
M  END
>  <NO.>
3870

>  <Name>
quinidine

>  <SMILES>
CCS(=O)(=O)[C@H]1[C@@H](C#N)[C@@H]1c1ccccc1

>  <logBB>


>  <Class>
1

>  <MW>
235.07

>  <nHBAcc>
3

>  <nHBDon>
0

>  <SLogP>
1.73

>  <TopoPSA>
57.93

>  <MMFF94 Energy>
4.6963

$$$$
CCS(=O)(=O)[C@H]1[C@@H](C(N)=S)[C@@H]1c1ccc(OC)cc1
Actelion Java MolfileCreator 2.0

  0  0  0  0  0  0              0 V3000
M  V30 BEGIN CTAB
M  V30 COUNTS 36 37 0 0 0
M  V30 BEGIN ATOM
M  V30 1 S 0.0812 2.522 -1.6265 0
M  V30 2 O 1.5187 2.6055 -1.4535 0
M  V30 3 O -0.5033 2.3491 -2.9375 0
M  V30 4 C -0.4605 1.1864 -0.5314 0 CFG=2
M  V30 5 C -0.6115 3.9895 -0.8976 0
M  V30 6 C 0.2421 -0.103 -0.9043 0 CFG=2
M  V30 7 C -1.2671 0.0156 -1.0321 0 CFG=2
M  V30 8 C -2.1247 3.9832 -0.8619 0
M  V30 9 C 0.8588 -0.956 0.1803 0
M  V30 10 C -1.9669 -0.0446 -2.3275 0
M  V30 11 C 0.4332 -2.2739 0.4108 0
M  V30 12 C 1.8035 -0.4235 1.0705 0
M  V30 13 S -1.5947 -1.2398 -3.413 0
M  V30 14 N -3.004 0.8144 -2.5192 0
M  V30 15 C 0.9496 -3.0419 1.463 0
M  V30 16 C 2.3209 -1.1852 2.1231 0
M  V30 17 C 1.8993 -2.4988 2.3243 0
M  V30 18 O 2.4807 -3.1321 3.3871 0
M  V30 19 C 2.1363 -4.4973 3.587 0
M  V30 20 H -0.5308 1.4407 0.5174 0
M  V30 21 H -0.2497 4.836 -1.4901 0
M  V30 22 H -0.2001 4.0789 0.1125 0
M  V30 23 H 0.8104 -0.1058 -1.835 0
M  V30 24 H -1.8471 -0.4854 -0.2567 0
M  V30 25 H -2.4963 4.914 -0.422 0
M  V30 26 H -2.5445 3.8941 -1.8686 0
M  V30 27 H -2.5059 3.1518 -0.2615 0
M  V30 28 H -0.3073 -2.7219 -0.2499 0
M  V30 29 H 2.1599 0.5963 0.9349 0
M  V30 30 H -3.284 1.5192 -1.8545 0
M  V30 31 H -3.4917 0.7865 -3.4077 0
M  V30 32 H 0.5851 -4.0572 1.5775 0
M  V30 33 H 3.0627 -0.7494 2.788 0
M  V30 34 H 1.0723 -4.6043 3.823 0
M  V30 35 H 2.7059 -4.8633 4.4467 0
M  V30 36 H 2.413 -5.1068 2.7203 0
M  V30 END ATOM
M  V30 BEGIN BOND
M  V30 1 2 1 2
M  V30 2 2 1 3
M  V30 3 1 1 4
M  V30 4 1 1 5
M  V30 5 1 4 6
M  V30 6 1 4 7
M  V30 7 1 5 8
M  V30 8 1 6 9
M  V30 9 1 7 10
M  V30 10 2 9 11
M  V30 11 1 9 12
M  V30 12 2 10 13
M  V30 13 1 10 14
M  V30 14 1 11 15
M  V30 15 2 12 16
M  V30 16 2 15 17
M  V30 17 1 17 18
M  V30 18 1 18 19
M  V30 19 1 6 7
M  V30 20 1 16 17
M  V30 21 1 4 20
M  V30 22 1 5 21
M  V30 23 1 5 22
M  V30 24 1 6 23
M  V30 25 1 7 24
M  V30 26 1 8 25
M  V30 27 1 8 26
M  V30 28 1 8 27
M  V30 29 1 11 28
M  V30 30 1 12 29
M  V30 31 1 14 30
M  V30 32 1 14 31
M  V30 33 1 15 32
M  V30 34 1 16 33
M  V30 35 1 19 34
M  V30 36 1 19 35
M  V30 37 1 19 36
M  V30 END BOND
M  V30 BEGIN COLLECTION
M  V30 MDLV30/STEABS ATOMS=(3 4 6 7)
M  V30 END COLLECTION
M  V30 END CTAB
M  END
>  <NO.>
3871

>  <Name>
hydroxyzine

>  <SMILES>
CCS(=O)(=O)[C@H]1[C@@H](C(N)=S)[C@@H]1c1ccc(OC)cc1

>  <logBB>


>  <Class>
1

>  <MW>
299.06

>  <nHBAcc>
4

>  <nHBDon>
1

>  <SLogP>
1.5

>  <TopoPSA>
69.39

>  <MMFF94 Energy>
-4.6476

$$$$
CCS(=O)(=O)[C@H]1[C@@H](c2ccc3c(c2)OCO3)[C@@]1(COC)C(=O)O
Actelion Java MolfileCreator 2.0

  0  0  0  0  0  0              0 V3000
M  V30 BEGIN CTAB
M  V30 COUNTS 41 43 0 0 0
M  V30 BEGIN ATOM
M  V30 1 S 0.4884 -1.5475 0.8957 0
M  V30 2 O -0.0804 -0.585 1.8154 0
M  V30 3 O -0.2225 -2.7668 0.5589 0
M  V30 4 C 0.832 -0.7613 -0.6898 0 CFG=2
M  V30 5 C 2.102 -2.0281 1.4839 0
M  V30 6 C 1.188 0.7175 -0.6599 0 CFG=1
M  V30 7 C -0.124 0.2325 -1.2903 0 CFG=2
M  V30 8 C 2.0186 -2.7435 2.8174 0
M  V30 9 C 1.2968 1.4179 0.6478 0
M  V30 10 C 2.3004 1.1127 -1.6208 0
M  V30 11 C -1.5286 0.5309 -0.8137 0
M  V30 12 O 2.2586 1.2935 1.389 0
M  V30 13 O 0.3493 2.3368 0.8871 0
M  V30 14 O 3.3633 0.1625 -1.5167 0
M  V30 15 C -2.4305 -0.4881 -0.4517 0
M  V30 16 C -1.9906 1.8687 -0.7092 0
M  V30 17 C 4.4963 0.5593 -2.2791 0
M  V30 18 C -3.6948 -0.152 -0.0068 0
M  V30 19 C -3.2764 2.1905 -0.2556 0
M  V30 20 O -4.6648 -1.03 0.3659 0
M  V30 21 C -4.1053 1.1526 0.0921 0
M  V30 22 C -5.7174 -0.1224 0.749 0
M  V30 23 O -5.3809 1.2661 0.547 0
M  V30 24 H 1.3477 -1.4092 -1.3873 0
M  V30 25 H 2.7194 -1.1337 1.5745 0
M  V30 26 H 2.5418 -2.6844 0.727 0
M  V30 27 H -0.1168 0.2117 -2.3834 0
M  V30 28 H 3.017 -3.0379 3.1543 0
M  V30 29 H 1.576 -2.0986 3.5834 0
M  V30 30 H 1.403 -3.6457 2.7438 0
M  V30 31 H 2.6699 2.1176 -1.3812 0
M  V30 32 H 1.9404 1.1279 -2.6562 0
M  V30 33 H 0.522 2.6207 1.8087 0
M  V30 34 H -2.1631 -1.5364 -0.5304 0
M  V30 35 H -1.3265 2.6841 -0.9916 0
M  V30 36 H 5.2655 -0.2107 -2.1779 0
M  V30 37 H 4.8976 1.5055 -1.9035 0
M  V30 38 H 4.2319 0.6541 -3.3366 0
M  V30 39 H -3.6044 3.2203 -0.1792 0
M  V30 40 H -5.9472 -0.2774 1.8097 0
M  V30 41 H -6.6113 -0.3544 0.1588 0
M  V30 END ATOM
M  V30 BEGIN BOND
M  V30 1 2 1 2
M  V30 2 2 1 3
M  V30 3 1 1 4
M  V30 4 1 1 5
M  V30 5 1 4 6
M  V30 6 1 4 7
M  V30 7 1 5 8
M  V30 8 1 6 9
M  V30 9 1 6 10
M  V30 10 1 7 11
M  V30 11 2 9 12
M  V30 12 1 9 13
M  V30 13 1 10 14
M  V30 14 2 11 15
M  V30 15 1 11 16
M  V30 16 1 14 17
M  V30 17 1 15 18
M  V30 18 2 16 19
M  V30 19 1 18 20
M  V30 20 2 18 21
M  V30 21 1 20 22
M  V30 22 1 21 23
M  V30 23 1 6 7
M  V30 24 1 19 21
M  V30 25 1 22 23
M  V30 26 1 4 24
M  V30 27 1 5 25
M  V30 28 1 5 26
M  V30 29 1 7 27
M  V30 30 1 8 28
M  V30 31 1 8 29
M  V30 32 1 8 30
M  V30 33 1 10 31
M  V30 34 1 10 32
M  V30 35 1 13 33
M  V30 36 1 15 34
M  V30 37 1 16 35
M  V30 38 1 17 36
M  V30 39 1 17 37
M  V30 40 1 17 38
M  V30 41 1 19 39
M  V30 42 1 22 40
M  V30 43 1 22 41
M  V30 END BOND
M  V30 BEGIN COLLECTION
M  V30 MDLV30/STEABS ATOMS=(3 4 6 7)
M  V30 END COLLECTION
M  V30 END CTAB
M  END
>  <NO.>
3872

>  <Name>
zalcitabine

>  <SMILES>
CCS(=O)(=O)[C@H]1[C@@H](c2ccc3c(c2)OCO3)[C@@]1(COC)C(=O)O

>  <logBB>


>  <Class>
1

>  <MW>
342.08

>  <nHBAcc>
6

>  <nHBDon>
1

>  <SLogP>
1.03

>  <TopoPSA>
99.13

>  <MMFF94 Energy>
-10.941

$$$$
CCS(=O)(=O)[C@H]1[C@H](CO)[C@@H]1c1ccc(Cl)cc1
Actelion Java MolfileCreator 2.0

  0  0  0  0  0  0              0 V3000
M  V30 BEGIN CTAB
M  V30 COUNTS 32 33 0 0 0
M  V30 BEGIN ATOM
M  V30 1 Cl 1.1491 -5.7554 1.3954 0
M  V30 2 C 0.8647 -4.1858 0.7535 0
M  V30 3 C 0.3288 -4.0437 -0.5213 0
M  V30 4 C 1.1688 -3.0606 1.5128 0
M  V30 5 C 0.099 -2.7645 -1.0374 0
M  V30 6 C 0.9354 -1.7843 0.9892 0
M  V30 7 C 0.407 -1.6061 -0.3013 0
M  V30 8 C 0.0958 -0.2351 -0.8573 0 CFG=2
M  V30 9 C -0.5597 0.8203 4.0E-4 0 CFG=2
M  V30 10 C -1.3364 0.2022 -1.1329 0 CFG=2
M  V30 11 S -0.0487 2.528 -0.3366 0
M  V30 12 C -2.5338 -0.6239 -0.8138 0
M  V30 13 O 0.4165 2.6004 -1.7064 0
M  V30 14 O -1.147 3.3439 0.1402 0
M  V30 15 C 1.3437 2.7536 0.7509 0
M  V30 16 O -3.6819 0.2112 -0.8054 0
M  V30 17 C 1.9086 4.1559 0.652 0
M  V30 18 H 0.0856 -4.9182 -1.119 0
M  V30 19 H 1.5855 -3.1672 2.511 0
M  V30 20 H -0.3229 -2.6699 -2.0372 0
M  V30 21 H 1.1816 -0.9198 1.6015 0
M  V30 22 H 0.8272 0.1059 -1.5905 0
M  V30 23 H -0.8559 0.5979 1.015 0
M  V30 24 H -1.4947 0.7688 -2.0465 0
M  V30 25 H -2.6831 -1.39 -1.5803 0
M  V30 26 H -2.4632 -1.1195 0.1595 0
M  V30 27 H 2.1009 2.0151 0.4716 0
M  V30 28 H 1.0015 2.5496 1.7698 0
M  V30 29 H -3.5005 0.9681 -0.2214 0
M  V30 30 H 2.7612 4.2714 1.328 0
M  V30 31 H 2.2472 4.3736 -0.3658 0
M  V30 32 H 1.1556 4.9041 0.9202 0
M  V30 END ATOM
M  V30 BEGIN BOND
M  V30 1 1 1 2
M  V30 2 2 2 3
M  V30 3 1 2 4
M  V30 4 1 3 5
M  V30 5 2 4 6
M  V30 6 2 5 7
M  V30 7 1 7 8
M  V30 8 1 8 9
M  V30 9 1 8 10
M  V30 10 1 9 11
M  V30 11 1 10 12
M  V30 12 2 11 13
M  V30 13 2 11 14
M  V30 14 1 11 15
M  V30 15 1 12 16
M  V30 16 1 15 17
M  V30 17 1 6 7
M  V30 18 1 9 10
M  V30 19 1 3 18
M  V30 20 1 4 19
M  V30 21 1 5 20
M  V30 22 1 6 21
M  V30 23 1 8 22
M  V30 24 1 9 23
M  V30 25 1 10 24
M  V30 26 1 12 25
M  V30 27 1 12 26
M  V30 28 1 15 27
M  V30 29 1 15 28
M  V30 30 1 16 29
M  V30 31 1 17 30
M  V30 32 1 17 31
M  V30 33 1 17 32
M  V30 END BOND
M  V30 BEGIN COLLECTION
M  V30 MDLV30/STEABS ATOMS=(3 8 9 10)
M  V30 END COLLECTION
M  V30 END CTAB
M  END
>  <NO.>
3873

>  <Name>
pimozide

>  <SMILES>
CCS(=O)(=O)[C@H]1[C@H](CO)[C@@H]1c1ccc(Cl)cc1

>  <logBB>


>  <Class>
1

>  <MW>
274.04

>  <nHBAcc>
3

>  <nHBDon>
1

>  <SLogP>
1.85

>  <TopoPSA>
54.37

>  <MMFF94 Energy>
15.54

$$$$
CCS(=O)(=O)[C@H]1[C@H](c2ccc3c(c2)OCO3)C1(C#N)C#N
Actelion Java MolfileCreator 2.0

  0  0  0  0  0  0              0 V3000
M  V30 BEGIN CTAB
M  V30 COUNTS 33 35 0 0 0
M  V30 BEGIN ATOM
M  V30 1 S 2.6482 -1.4889 1.2407 0
M  V30 2 O 3.9379 -1.6855 0.6145 0
M  V30 3 O 2.5149 -0.8254 2.519 0
M  V30 4 C 1.6975 -0.5532 0.0306 0 CFG=2
M  V30 5 C 1.8401 -3.0706 1.3327 0
M  V30 6 C 2.2458 0.8341 -0.2132 0
M  V30 7 C 0.9305 0.6351 0.5474 0 CFG=1
M  V30 8 C 0.4339 -2.9865 1.8872 0
M  V30 9 C 3.3275 1.425 0.5249 0
M  V30 10 C 2.2478 1.2698 -1.582 0
M  V30 11 C -0.3881 1.0617 -0.0681 0
M  V30 12 N 4.1784 1.9444 1.1179 0
M  V30 13 N 2.227 1.5885 -2.6973 0
M  V30 14 C -1.3244 0.132 -0.5568 0
M  V30 15 C -0.6881 2.4414 -0.2142 0
M  V30 16 C -2.4871 0.594 -1.1414 0
M  V30 17 C -1.8744 2.8857 -0.8108 0
M  V30 18 O -3.4786 -0.1839 -1.6524 0
M  V30 19 C -2.7552 1.9336 -1.2651 0
M  V30 20 C -4.4003 0.8251 -2.1195 0
M  V30 21 O -3.949 2.172 -1.8679 0
M  V30 22 H 1.3337 -1.111 -0.821 0
M  V30 23 H 2.4619 -3.7039 1.9733 0
M  V30 24 H 1.8396 -3.4983 0.3256 0
M  V30 25 H 0.9668 0.8176 1.6221 0
M  V30 26 H -0.0147 -3.9834 1.9341 0
M  V30 27 H 0.4302 -2.5655 2.8975 0
M  V30 28 H -0.2046 -2.3577 1.2614 0
M  V30 29 H -1.1617 -0.9367 -0.4819 0
M  V30 30 H 0.017 3.1892 0.1482 0
M  V30 31 H -2.091 3.9432 -0.9148 0
M  V30 32 H -4.542 0.6977 -3.1988 0
M  V30 33 H -5.3637 0.6784 -1.6178 0
M  V30 END ATOM
M  V30 BEGIN BOND
M  V30 1 2 1 2
M  V30 2 2 1 3
M  V30 3 1 1 4
M  V30 4 1 1 5
M  V30 5 1 4 6
M  V30 6 1 4 7
M  V30 7 1 5 8
M  V30 8 1 6 9
M  V30 9 1 6 10
M  V30 10 1 7 11
M  V30 11 3 9 12
M  V30 12 3 10 13
M  V30 13 2 11 14
M  V30 14 1 11 15
M  V30 15 1 14 16
M  V30 16 2 15 17
M  V30 17 1 16 18
M  V30 18 2 16 19
M  V30 19 1 18 20
M  V30 20 1 19 21
M  V30 21 1 6 7
M  V30 22 1 17 19
M  V30 23 1 20 21
M  V30 24 1 4 22
M  V30 25 1 5 23
M  V30 26 1 5 24
M  V30 27 1 7 25
M  V30 28 1 8 26
M  V30 29 1 8 27
M  V30 30 1 8 28
M  V30 31 1 14 29
M  V30 32 1 15 30
M  V30 33 1 17 31
M  V30 34 1 20 32
M  V30 35 1 20 33
M  V30 END BOND
M  V30 BEGIN COLLECTION
M  V30 MDLV30/STEABS ATOMS=(2 4 7)
M  V30 END COLLECTION
M  V30 END CTAB
M  END
>  <NO.>
3874

>  <Name>
thioridazine

>  <SMILES>
CCS(=O)(=O)[C@H]1[C@H](c2ccc3c(c2)OCO3)C1(C#N)C#N

>  <logBB>


>  <Class>
1

>  <MW>
304.05

>  <nHBAcc>
6

>  <nHBDon>
0

>  <SLogP>
1.35

>  <TopoPSA>
100.18

>  <MMFF94 Energy>
-23.457

$$$$
CCS(=O)(=O)[C@H]1[C@H](c2ccc3c(c2)OCO3)[C@]1(C#N)COC
Actelion Java MolfileCreator 2.0

  0  0  0  0  0  0              0 V3000
M  V30 BEGIN CTAB
M  V30 COUNTS 39 41 0 0 0
M  V30 BEGIN ATOM
M  V30 1 S 1.2252 -2.1245 1.5521 0
M  V30 2 O 1.5123 -1.5365 2.8428 0
M  V30 3 O 0.3044 -3.238 1.4324 0
M  V30 4 C 0.5232 -0.8497 0.4867 0 CFG=2
M  V30 5 C 2.7523 -2.5791 0.7528 0
M  V30 6 C 1.1668 0.5133 0.4823 0 CFG=1
M  V30 7 C -0.1606 0.279 1.2188 0 CFG=1
M  V30 8 C 3.4462 -3.7113 1.4831 0
M  V30 9 C 2.301 0.8479 1.3067 0
M  V30 10 C 1.2258 1.1673 -0.8787 0
M  V30 11 C -1.4542 0.8779 0.7119 0
M  V30 12 N 3.2305 1.1454 1.9327 0
M  V30 13 O 2.1568 0.4299 -1.6772 0
M  V30 14 C -2.4807 0.0751 0.1803 0
M  V30 15 C -1.6307 2.2857 0.6873 0
M  V30 16 C 2.3497 1.0379 -2.9494 0
M  V30 17 C -3.6129 0.6827 -0.3244 0
M  V30 18 C -2.7883 2.8792 0.1703 0
M  V30 19 O -4.6832 0.0417 -0.8653 0
M  V30 20 C -3.7623 2.0471 -0.3292 0
M  V30 21 C -5.535 1.1609 -1.1889 0
M  V30 22 O -4.9452 2.4392 -0.871 0
M  V30 23 H 0.0981 -1.2172 -0.4375 0
M  V30 24 H 3.3983 -1.699 0.723 0
M  V30 25 H 2.5083 -2.8779 -0.2709 0
M  V30 26 H -0.1109 0.2546 2.3086 0
M  V30 27 H 4.3789 -3.9761 0.976 0
M  V30 28 H 3.6852 -3.4272 2.5131 0
M  V30 29 H 2.8128 -4.6034 1.5212 0
M  V30 30 H 1.5456 2.2136 -0.7929 0
M  V30 31 H 0.2546 1.1482 -1.3856 0
M  V30 32 H -2.4027 -1.008 0.173 0
M  V30 33 H -0.852 2.9308 1.0932 0
M  V30 34 H 3.0589 0.4294 -3.5168 0
M  V30 35 H 2.7656 2.0433 -2.8334 0
M  V30 36 H 1.4052 1.0805 -3.5002 0
M  V30 37 H -2.9165 3.9559 0.1661 0
M  V30 38 H -5.7554 1.1343 -2.2622 0
M  V30 39 H -6.4749 1.0596 -0.6337 0
M  V30 END ATOM
M  V30 BEGIN BOND
M  V30 1 2 1 2
M  V30 2 2 1 3
M  V30 3 1 1 4
M  V30 4 1 1 5
M  V30 5 1 4 6
M  V30 6 1 4 7
M  V30 7 1 5 8
M  V30 8 1 6 9
M  V30 9 1 6 10
M  V30 10 1 7 11
M  V30 11 3 9 12
M  V30 12 1 10 13
M  V30 13 2 11 14
M  V30 14 1 11 15
M  V30 15 1 13 16
M  V30 16 1 14 17
M  V30 17 2 15 18
M  V30 18 1 17 19
M  V30 19 2 17 20
M  V30 20 1 19 21
M  V30 21 1 20 22
M  V30 22 1 6 7
M  V30 23 1 18 20
M  V30 24 1 21 22
M  V30 25 1 4 23
M  V30 26 1 5 24
M  V30 27 1 5 25
M  V30 28 1 7 26
M  V30 29 1 8 27
M  V30 30 1 8 28
M  V30 31 1 8 29
M  V30 32 1 10 30
M  V30 33 1 10 31
M  V30 34 1 14 32
M  V30 35 1 15 33
M  V30 36 1 16 34
M  V30 37 1 16 35
M  V30 38 1 16 36
M  V30 39 1 18 37
M  V30 40 1 21 38
M  V30 41 1 21 39
M  V30 END BOND
M  V30 BEGIN COLLECTION
M  V30 MDLV30/STEABS ATOMS=(3 4 6 7)
M  V30 END COLLECTION
M  V30 END CTAB
M  END
>  <NO.>
3875

>  <Name>
topotecan

>  <SMILES>
CCS(=O)(=O)[C@H]1[C@H](c2ccc3c(c2)OCO3)[C@]1(C#N)COC

>  <logBB>


>  <Class>
1

>  <MW>
323.08

>  <nHBAcc>
6

>  <nHBDon>
0

>  <SLogP>
1.47

>  <TopoPSA>
85.62

>  <MMFF94 Energy>
3.3721

$$$$
CCS(=O)(=O)[C@H]1[C@H](c2ccccc2)[C@]1(C#N)COC
Actelion Java MolfileCreator 2.0

  0  0  0  0  0  0              0 V3000
M  V30 BEGIN CTAB
M  V30 COUNTS 36 37 0 0 0
M  V30 BEGIN ATOM
M  V30 1 S -0.5674 1.7841 -2.1087 0
M  V30 2 O 0.662 2.2368 -2.7315 0
M  V30 3 O -1.6737 1.3212 -2.9207 0
M  V30 4 C -0.0625 0.37 -1.1143 0 CFG=2
M  V30 5 C -1.1327 3.0969 -1.0517 0
M  V30 6 C -1.1659 -0.4288 -0.4502 0 CFG=1
M  V30 7 C -0.2018 0.4455 0.3797 0 CFG=1
M  V30 8 C -1.5234 4.3251 -1.8524 0
M  V30 9 C -2.5379 0.0131 -0.3915 0
M  V30 10 C -1.0651 -1.9437 -0.4707 0
M  V30 11 C 0.8121 -0.1826 1.3123 0
M  V30 12 N -3.6286 0.3874 -0.2723 0
M  V30 13 O 0.2451 -2.3794 -0.8352 0
M  V30 14 C 0.3959 -0.7887 2.5113 0
M  V30 15 C 2.1851 -0.2165 1.0174 0
M  V30 16 C 0.3966 -3.7843 -0.6837 0
M  V30 17 C 1.3077 -1.396 3.3784 0
M  V30 18 C 3.1013 -0.8233 1.8808 0
M  V30 19 C 2.6619 -1.4131 3.0617 0
M  V30 20 H 0.7716 -0.1706 -1.5397 0
M  V30 21 H -0.3168 3.3453 -0.3668 0
M  V30 22 H -1.9939 2.7456 -0.4819 0
M  V30 23 H -0.6326 1.3471 0.8073 0
M  V30 24 H -1.8651 5.1215 -1.1842 0
M  V30 25 H -0.6761 4.706 -2.4313 0
M  V30 26 H -2.3322 4.097 -2.5539 0
M  V30 27 H -1.7701 -2.3512 -1.2061 0
M  V30 28 H -1.3291 -2.341 0.5171 0
M  V30 29 H -0.6583 -0.7863 2.7812 0
M  V30 30 H 2.5583 0.2345 0.1002 0
M  V30 31 H 1.4066 -4.0573 -1.0004 0
M  V30 32 H -0.3241 -4.3175 -1.3107 0
M  V30 33 H 0.2705 -4.0709 0.3646 0
M  V30 34 H 0.9593 -1.8544 4.3004 0
M  V30 35 H 4.1582 -0.8355 1.6267 0
M  V30 36 H 3.3742 -1.8849 3.7333 0
M  V30 END ATOM
M  V30 BEGIN BOND
M  V30 1 2 1 2
M  V30 2 2 1 3
M  V30 3 1 1 4
M  V30 4 1 1 5
M  V30 5 1 4 6
M  V30 6 1 4 7
M  V30 7 1 5 8
M  V30 8 1 6 9
M  V30 9 1 6 10
M  V30 10 1 7 11
M  V30 11 3 9 12
M  V30 12 1 10 13
M  V30 13 2 11 14
M  V30 14 1 11 15
M  V30 15 1 13 16
M  V30 16 1 14 17
M  V30 17 2 15 18
M  V30 18 2 17 19
M  V30 19 1 6 7
M  V30 20 1 18 19
M  V30 21 1 4 20
M  V30 22 1 5 21
M  V30 23 1 5 22
M  V30 24 1 7 23
M  V30 25 1 8 24
M  V30 26 1 8 25
M  V30 27 1 8 26
M  V30 28 1 10 27
M  V30 29 1 10 28
M  V30 30 1 14 29
M  V30 31 1 15 30
M  V30 32 1 16 31
M  V30 33 1 16 32
M  V30 34 1 16 33
M  V30 35 1 17 34
M  V30 36 1 18 35
M  V30 37 1 19 36
M  V30 END BOND
M  V30 BEGIN COLLECTION
M  V30 MDLV30/STEABS ATOMS=(3 4 6 7)
M  V30 END COLLECTION
M  V30 END CTAB
M  END
>  <NO.>
3876

>  <Name>
pyrazinamide

>  <SMILES>
CCS(=O)(=O)[C@H]1[C@H](c2ccccc2)[C@]1(C#N)COC

>  <logBB>


>  <Class>
1

>  <MW>
279.09

>  <nHBAcc>
4

>  <nHBDon>
0

>  <SLogP>
1.74

>  <TopoPSA>
67.16

>  <MMFF94 Energy>
8.0945

$$$$
CC[C@@H](C)[C@@H](CO)NC(=O)CCc1nnc(-c2ccccc2)o1
Actelion Java MolfileCreator 2.0

  0  0  0  0  0  0              0 V3000
M  V30 BEGIN CTAB
M  V30 COUNTS 46 47 0 0 0
M  V30 BEGIN ATOM
M  V30 1 O 0.5518 2.1298 -0.6306 0
M  V30 2 C -0.1663 1.3484 -0.0186 0
M  V30 3 N -1.33 1.7204 0.6173 0
M  V30 4 C 0.1393 -0.1243 0.125 0
M  V30 5 C -1.832 3.1008 0.5964 0 CFG=1
M  V30 6 C 1.4204 -0.4988 -0.6095 0
M  V30 7 C -3.3703 3.1005 0.8485 0 CFG=1
M  V30 8 C -0.9995 3.9926 1.544 0
M  V30 9 C 1.721 -1.9427 -0.4854 0
M  V30 10 C -3.7325 2.8612 2.3298 0
M  V30 11 C -4.0388 4.3693 0.3034 0
M  V30 12 O -1.4403 5.3431 1.5335 0
M  V30 13 O 2.6528 -2.4591 -1.344 0
M  V30 14 N 1.2328 -2.8414 0.3423 0
M  V30 15 C -5.2156 2.5938 2.5531 0
M  V30 16 C 2.6869 -3.7767 -0.9608 0
M  V30 17 N 1.8575 -4.0314 0.0326 0
M  V30 18 C 3.5948 -4.6633 -1.6769 0
M  V30 19 C 4.4111 -4.2034 -2.7218 0
M  V30 20 C 3.6647 -6.0193 -1.3213 0
M  V30 21 C 5.273 -5.0763 -3.3919 0
M  V30 22 C 4.5262 -6.8919 -1.991 0
M  V30 23 C 5.3296 -6.4193 -3.026 0
M  V30 24 H -1.8502 1.0224 1.1348 0
M  V30 25 H -0.7107 -0.6943 -0.2702 0
M  V30 26 H 0.2265 -0.3537 1.1943 0
M  V30 27 H -1.6681 3.4702 -0.4248 0
M  V30 28 H 1.3314 -0.238 -1.6712 0
M  V30 29 H 2.2652 0.0748 -0.2098 0
M  V30 30 H -3.7862 2.265 0.2666 0
M  V30 31 H 0.0532 3.9833 1.2415 0
M  V30 32 H -1.0425 3.6198 2.5729 0
M  V30 33 H -3.4396 3.7247 2.9383 0
M  V30 34 H -3.174 1.9992 2.7123 0
M  V30 35 H -3.6771 4.6049 -0.7027 0
M  V30 36 H -3.8617 5.2366 0.9454 0
M  V30 37 H -5.123 4.2341 0.2286 0
M  V30 38 H -0.7881 5.8572 2.0401 0
M  V30 39 H -5.3967 2.3431 3.6034 0
M  V30 40 H -5.5604 1.7547 1.9411 0
M  V30 41 H -5.8231 3.4716 2.3146 0
M  V30 42 H 4.3855 -3.1591 -3.0263 0
M  V30 43 H 3.0435 -6.4058 -0.5143 0
M  V30 44 H 5.8998 -4.7063 -4.1995 0
M  V30 45 H 4.5683 -7.9394 -1.7032 0
M  V30 46 H 6.0001 -7.0978 -3.5473 0
M  V30 END ATOM
M  V30 BEGIN BOND
M  V30 1 2 1 2
M  V30 2 1 2 3
M  V30 3 1 2 4
M  V30 4 1 3 5
M  V30 5 1 4 6
M  V30 6 1 5 7
M  V30 7 1 5 8
M  V30 8 1 6 9
M  V30 9 1 7 10
M  V30 10 1 7 11
M  V30 11 1 8 12
M  V30 12 1 9 13
M  V30 13 2 9 14
M  V30 14 1 10 15
M  V30 15 1 13 16
M  V30 16 1 14 17
M  V30 17 1 16 18
M  V30 18 2 18 19
M  V30 19 1 18 20
M  V30 20 1 19 21
M  V30 21 2 20 22
M  V30 22 2 21 23
M  V30 23 2 16 17
M  V30 24 1 22 23
M  V30 25 1 3 24
M  V30 26 1 4 25
M  V30 27 1 4 26
M  V30 28 1 5 27
M  V30 29 1 6 28
M  V30 30 1 6 29
M  V30 31 1 7 30
M  V30 32 1 8 31
M  V30 33 1 8 32
M  V30 34 1 10 33
M  V30 35 1 10 34
M  V30 36 1 11 35
M  V30 37 1 11 36
M  V30 38 1 11 37
M  V30 39 1 12 38
M  V30 40 1 15 39
M  V30 41 1 15 40
M  V30 42 1 15 41
M  V30 43 1 19 42
M  V30 44 1 20 43
M  V30 45 1 21 44
M  V30 46 1 22 45
M  V30 47 1 23 46
M  V30 END BOND
M  V30 BEGIN COLLECTION
M  V30 MDLV30/STEABS ATOMS=(2 5 7)
M  V30 END COLLECTION
M  V30 END CTAB
M  END
>  <NO.>
3877

>  <Name>
trimethoprim

>  <SMILES>
CC[C@@H](C)[C@@H](CO)NC(=O)CCc1nnc(-c2ccccc2)o1

>  <logBB>


>  <Class>
1

>  <MW>
317.17

>  <nHBAcc>
5

>  <nHBDon>
2

>  <SLogP>
2.19

>  <TopoPSA>
88.25

>  <MMFF94 Energy>
23.809

$$$$
CC[C@@H](C)[C@@H](CO)NC(=O)c1cn[nH]c1-c1ccc2c(c1)OCCO2
Actelion Java MolfileCreator 2.0

  0  0  0  0  0  0              0 V3000
M  V30 BEGIN CTAB
M  V30 COUNTS 48 50 0 0 0
M  V30 BEGIN ATOM
M  V30 1 O 0.3168 0.0792 0.4753 0
M  V30 2 C 0.4033 -0.6855 -0.4785 0
M  V30 3 N 1.344 -0.533 -1.4734 0
M  V30 4 C -0.4838 -1.8249 -0.6638 0
M  V30 5 C 2.2832 0.5914 -1.5231 0 CFG=1
M  V30 6 C -1.7704 -2.0048 -0.1598 0
M  V30 7 C -0.2116 -3.0325 -1.3543 0
M  V30 8 C 3.3208 0.5491 -0.3622 0 CFG=1
M  V30 9 C 2.9365 0.6503 -2.921 0
M  V30 10 N -2.1356 -3.2676 -0.5625 0
M  V30 11 C -2.6722 -1.1645 0.6329 0
M  V30 12 N -1.2175 -3.9042 -1.3036 0
M  V30 13 C 4.236 -0.6931 -0.4259 0
M  V30 14 C 4.1381 1.8466 -0.3156 0
M  V30 15 O 1.9223 0.6188 -3.9284 0
M  V30 16 C -2.7568 0.2161 0.4082 0
M  V30 17 C -3.4054 -1.7165 1.6971 0
M  V30 18 C 5.0721 -0.8899 0.8326 0
M  V30 19 C -3.5934 1.0146 1.1903 0
M  V30 20 C -4.2305 -0.9147 2.4923 0
M  V30 21 O -3.6506 2.3476 0.8686 0
M  V30 22 C -4.3155 0.4515 2.2452 0
M  V30 23 C -4.7551 2.9953 1.509 0
M  V30 24 O -5.1257 1.1806 3.0775 0
M  V30 25 C -4.8497 2.582 2.9682 0
M  V30 26 H 1.2181 -1.0432 -2.3385 0
M  V30 27 H 1.6601 1.4883 -1.4039 0
M  V30 28 H 0.6915 -3.3179 -1.8783 0
M  V30 29 H 2.7668 0.4979 0.5833 0
M  V30 30 H 3.5878 -0.2105 -3.0972 0
M  V30 31 H 3.5146 1.5702 -3.0474 0
M  V30 32 H -3.0174 -3.7368 -0.3872 0
M  V30 33 H 4.9131 -0.6274 -1.2851 0
M  V30 34 H 3.6273 -1.5937 -0.5672 0
M  V30 35 H 3.4822 2.7225 -0.3642 0
M  V30 36 H 4.8517 1.9065 -1.1433 0
M  V30 37 H 4.7043 1.9208 0.6182 0
M  V30 38 H 2.3628 0.779 -4.7814 0
M  V30 39 H -2.1885 0.6842 -0.3914 0
M  V30 40 H -3.3254 -2.7731 1.9413 0
M  V30 41 H 5.6298 -1.8298 0.7681 0
M  V30 42 H 4.4375 -0.9342 1.7234 0
M  V30 43 H 5.7995 -0.0835 0.9631 0
M  V30 44 H -4.7858 -1.3521 3.3173 0
M  V30 45 H -4.5966 4.0756 1.4312 0
M  V30 46 H -5.6715 2.7439 0.9607 0
M  V30 47 H -5.6654 3.1198 3.4618 0
M  V30 48 H -3.9204 2.7989 3.5096 0
M  V30 END ATOM
M  V30 BEGIN BOND
M  V30 1 2 1 2
M  V30 2 1 2 3
M  V30 3 1 2 4
M  V30 4 1 3 5
M  V30 5 2 4 6
M  V30 6 1 4 7
M  V30 7 1 5 8
M  V30 8 1 5 9
M  V30 9 1 6 10
M  V30 10 1 6 11
M  V30 11 2 7 12
M  V30 12 1 8 13
M  V30 13 1 8 14
M  V30 14 1 9 15
M  V30 15 2 11 16
M  V30 16 1 11 17
M  V30 17 1 13 18
M  V30 18 1 16 19
M  V30 19 2 17 20
M  V30 20 1 19 21
M  V30 21 2 19 22
M  V30 22 1 21 23
M  V30 23 1 22 24
M  V30 24 1 23 25
M  V30 25 1 10 12
M  V30 26 1 20 22
M  V30 27 1 24 25
M  V30 28 1 3 26
M  V30 29 1 5 27
M  V30 30 1 7 28
M  V30 31 1 8 29
M  V30 32 1 9 30
M  V30 33 1 9 31
M  V30 34 1 10 32
M  V30 35 1 13 33
M  V30 36 1 13 34
M  V30 37 1 14 35
M  V30 38 1 14 36
M  V30 39 1 14 37
M  V30 40 1 15 38
M  V30 41 1 16 39
M  V30 42 1 17 40
M  V30 43 1 18 41
M  V30 44 1 18 42
M  V30 45 1 18 43
M  V30 46 1 20 44
M  V30 47 1 23 45
M  V30 48 1 23 46
M  V30 49 1 25 47
M  V30 50 1 25 48
M  V30 END BOND
M  V30 BEGIN COLLECTION
M  V30 MDLV30/STEABS ATOMS=(2 5 8)
M  V30 END COLLECTION
M  V30 END CTAB
M  END
>  <NO.>
3878

>  <Name>
methohexital

>  <SMILES>
CC[C@@H](C)[C@@H](CO)NC(=O)c1cn[nH]c1-c1ccc2c(c1)OCCO2

>  <logBB>


>  <Class>
1

>  <MW>
345.17

>  <nHBAcc>
5

>  <nHBDon>
3

>  <SLogP>
1.98

>  <TopoPSA>
96.47

>  <MMFF94 Energy>
55.034

$$$$
CC[C@@H](NC(=O)c1cc([N+](=O)[O-])ccc1Cl)c1ccc(C)cc1C
Actelion Java MolfileCreator 2.0

  0  0  0  0  0  0              0 V3000
M  V30 BEGIN CTAB
M  V30 COUNTS 43 44 0 0 0
M  V30 BEGIN ATOM
M  V30 1 Cl -1.5213 1.5213 -1.5213 0
M  V30 2 C -2.3089 1.9211 -0.0363 0
M  V30 3 C -2.0793 1.2444 1.1717 0
M  V30 4 C -3.2478 2.9619 -0.0873 0
M  V30 5 C -1.1151 0.1256 1.3449 0
M  V30 6 C -2.8133 1.6059 2.3178 0
M  V30 7 C -3.9669 3.3298 1.0528 0
M  V30 8 O -1.395 -0.7865 2.1147 0
M  V30 9 N 0.0716 0.2097 0.662 0
M  V30 10 C -3.7483 2.6462 2.2538 0
M  V30 11 C 1.0986 -0.8205 0.7325 0 CFG=1
M  V30 12 N -4.503 3.0267 3.4552 0 CHG=1
M  V30 13 C 1.6157 -1.0719 -0.6843 0
M  V30 14 C 2.2031 -0.4348 1.7413 0
M  V30 15 O -4.1808 2.5006 4.5285 0
M  V30 16 O -5.4116 3.8583 3.3212 0 CHG=-1
M  V30 17 C 1.0063 -2.0332 -1.5248 0
M  V30 18 C 2.6665 -0.2975 -1.2125 0
M  V30 19 C 1.7368 -0.4914 3.1915 0
M  V30 20 C 1.4913 -2.2222 -2.8323 0
M  V30 21 C -0.1551 -2.8753 -1.0642 0
M  V30 22 C 3.1325 -0.494 -2.5146 0
M  V30 23 C 2.5605 -1.47 -3.3292 0
M  V30 24 C 3.037 -1.6637 -4.7379 0
M  V30 25 H -3.4328 3.4882 -1.0228 0
M  V30 26 H -2.644 1.0676 3.2512 0
M  V30 27 H -4.6916 4.1399 0.9853 0
M  V30 28 H 0.2292 0.9709 0.0137 0
M  V30 29 H 0.6483 -1.7462 1.1078 0
M  V30 30 H 3.0528 -1.1208 1.6331 0
M  V30 31 H 2.5764 0.5774 1.5444 0
M  V30 32 H 3.1395 0.4804 -0.6187 0
M  V30 33 H 1.3382 -1.48 3.4396 0
M  V30 34 H 2.5771 -0.2879 3.8632 0
M  V30 35 H 0.9644 0.2567 3.3925 0
M  V30 36 H 1.0236 -2.9661 -3.4757 0
M  V30 37 H -0.5528 -3.4915 -1.8779 0
M  V30 38 H 0.1606 -3.5516 -0.2636 0
M  V30 39 H -0.9751 -2.2416 -0.7128 0
M  V30 40 H 3.9467 0.1237 -2.8867 0
M  V30 41 H 2.4646 -1.025 -5.4177 0
M  V30 42 H 2.9207 -2.7072 -5.0491 0
M  V30 43 H 4.0995 -1.4147 -4.8293 0
M  V30 END ATOM
M  V30 BEGIN BOND
M  V30 1 1 1 2
M  V30 2 2 2 3
M  V30 3 1 2 4
M  V30 4 1 3 5
M  V30 5 1 3 6
M  V30 6 2 4 7
M  V30 7 2 5 8
M  V30 8 1 5 9
M  V30 9 2 6 10
M  V30 10 1 9 11
M  V30 11 1 10 12
M  V30 12 1 11 13
M  V30 13 1 11 14
M  V30 14 2 12 15
M  V30 15 1 12 16
M  V30 16 2 13 17
M  V30 17 1 13 18
M  V30 18 1 14 19
M  V30 19 1 17 20
M  V30 20 1 17 21
M  V30 21 2 18 22
M  V30 22 2 20 23
M  V30 23 1 23 24
M  V30 24 1 7 10
M  V30 25 1 22 23
M  V30 26 1 4 25
M  V30 27 1 6 26
M  V30 28 1 7 27
M  V30 29 1 9 28
M  V30 30 1 11 29
M  V30 31 1 14 30
M  V30 32 1 14 31
M  V30 33 1 18 32
M  V30 34 1 19 33
M  V30 35 1 19 34
M  V30 36 1 19 35
M  V30 37 1 20 36
M  V30 38 1 21 37
M  V30 39 1 21 38
M  V30 40 1 21 39
M  V30 41 1 22 40
M  V30 42 1 24 41
M  V30 43 1 24 42
M  V30 44 1 24 43
M  V30 END BOND
M  V30 BEGIN COLLECTION
M  V30 MDLV30/STEABS ATOMS=(1 11)
M  V30 END COLLECTION
M  V30 END CTAB
M  END
>  <NO.>
3879

>  <Name>
pyridostigmine bromide

>  <SMILES>
CC[C@@H](NC(=O)c1cc([N+](=O)[O-])ccc1Cl)c1ccc(C)cc1C

>  <logBB>


>  <Class>
1

>  <MW>
346.11

>  <nHBAcc>
3

>  <nHBDon>
1

>  <SLogP>
4.75

>  <TopoPSA>
72.24

>  <MMFF94 Energy>
53.21

$$$$
CC[C@@H](NC(=O)c1cc([N+](=O)[O-])ccc1Cl)c1ccc(OC)c(OC)c1
Actelion Java MolfileCreator 2.0

  0  0  0  0  0  0              0 V3000
M  V30 BEGIN CTAB
M  V30 COUNTS 45 46 0 0 0
M  V30 BEGIN ATOM
M  V30 1 Cl -0.2399 -2.4018 4.7277 0
M  V30 2 C 0.1685 -3.1096 3.2082 0
M  V30 3 C 0.4518 -2.3471 2.0683 0
M  V30 4 C 0.1666 -4.5069 3.1222 0
M  V30 5 C 0.5036 -0.8728 2.1226 0
M  V30 6 C 0.735 -2.9727 0.8439 0
M  V30 7 C 0.4484 -5.1424 1.9087 0
M  V30 8 O 1.3045 -0.3147 2.8583 0
M  V30 9 N -0.3693 -0.2317 1.2759 0
M  V30 10 C 0.731 -4.3714 0.7732 0
M  V30 11 C -0.4188 1.2188 1.1662 0 CFG=1
M  V30 12 N 1.0253 -5.0364 -0.5027 0 CHG=1
M  V30 13 C -0.4151 1.5787 -0.3128 0
M  V30 14 C -1.6169 1.796 1.9463 0
M  V30 15 O 1.1554 -4.32 -1.5042 0
M  V30 16 O 1.1161 -6.2713 -0.4997 0 CHG=-1
M  V30 17 C 0.8197 1.7695 -0.9605 0
M  V30 18 C -1.5868 1.6678 -1.0739 0
M  V30 19 C -1.4577 1.671 3.4569 0
M  V30 20 C 0.8859 2.0686 -2.3272 0
M  V30 21 C -1.5317 1.9671 -2.439 0
M  V30 22 O 2.0533 2.2714 -3.0212 0
M  V30 23 C -0.3032 2.1718 -3.0734 0
M  V30 24 C 3.2739 2.1887 -2.3 0
M  V30 25 O -0.1572 2.4677 -4.406 0
M  V30 26 C -1.3362 2.6053 -5.1851 0
M  V30 27 H -0.0565 -5.1092 4.0014 0
M  V30 28 H 0.9767 -2.3666 -0.0282 0
M  V30 29 H 0.4428 -6.2307 1.8676 0
M  V30 30 H -1.0053 -0.7638 0.6974 0
M  V30 31 H 0.4907 1.6413 1.6132 0
M  V30 32 H -1.7342 2.8598 1.7037 0
M  V30 33 H -2.5486 1.2946 1.6572 0
M  V30 34 H 1.7254 1.6738 -0.368 0
M  V30 35 H -2.5621 1.5053 -0.6219 0
M  V30 36 H -0.5333 2.1484 3.7967 0
M  V30 37 H -2.2964 2.1591 3.964 0
M  V30 38 H -1.4442 0.6236 3.7715 0
M  V30 39 H -2.4697 2.0303 -2.9807 0
M  V30 40 H 3.3217 2.9499 -1.5142 0
M  V30 41 H 4.0906 2.3847 -3.0015 0
M  V30 42 H 3.4229 1.1845 -1.8898 0
M  V30 43 H -1.8957 1.6649 -5.2237 0
M  V30 44 H -1.0347 2.854 -6.2072 0
M  V30 45 H -1.962 3.4242 -4.8151 0
M  V30 END ATOM
M  V30 BEGIN BOND
M  V30 1 1 1 2
M  V30 2 2 2 3
M  V30 3 1 2 4
M  V30 4 1 3 5
M  V30 5 1 3 6
M  V30 6 2 4 7
M  V30 7 2 5 8
M  V30 8 1 5 9
M  V30 9 2 6 10
M  V30 10 1 9 11
M  V30 11 1 10 12
M  V30 12 1 11 13
M  V30 13 1 11 14
M  V30 14 2 12 15
M  V30 15 1 12 16
M  V30 16 2 13 17
M  V30 17 1 13 18
M  V30 18 1 14 19
M  V30 19 1 17 20
M  V30 20 2 18 21
M  V30 21 1 20 22
M  V30 22 2 20 23
M  V30 23 1 22 24
M  V30 24 1 23 25
M  V30 25 1 25 26
M  V30 26 1 7 10
M  V30 27 1 21 23
M  V30 28 1 4 27
M  V30 29 1 6 28
M  V30 30 1 7 29
M  V30 31 1 9 30
M  V30 32 1 11 31
M  V30 33 1 14 32
M  V30 34 1 14 33
M  V30 35 1 17 34
M  V30 36 1 18 35
M  V30 37 1 19 36
M  V30 38 1 19 37
M  V30 39 1 19 38
M  V30 40 1 21 39
M  V30 41 1 24 40
M  V30 42 1 24 41
M  V30 43 1 24 42
M  V30 44 1 26 43
M  V30 45 1 26 44
M  V30 46 1 26 45
M  V30 END BOND
M  V30 BEGIN COLLECTION
M  V30 MDLV30/STEABS ATOMS=(1 11)
M  V30 END COLLECTION
M  V30 END CTAB
M  END
>  <NO.>
3880

>  <Name>
quazepam

>  <SMILES>
CC[C@@H](NC(=O)c1cc([N+](=O)[O-])ccc1Cl)c1ccc(OC)c(OC)c1

>  <logBB>


>  <Class>
1

>  <MW>
378.1

>  <nHBAcc>
5

>  <nHBDon>
1

>  <SLogP>
4.15

>  <TopoPSA>
90.7

>  <MMFF94 Energy>
72.28

$$$$
CC[C@H](C(=O)NC(C)C)N(Cc1ccccc1Cl)C(=O)CN(c1ccc(F)c(Cl)c1)S(C)(=O)=O
Actelion Java MolfileCreator 2.0

  0  0  0  0  0  0              0 V3000
M  V30 BEGIN CTAB
M  V30 COUNTS 62 63 0 0 0
M  V30 BEGIN ATOM
M  V30 1 Cl -3.491 -3.9788 3.491 0
M  V30 2 C -3.3249 -2.8897 2.1679 0
M  V30 3 C -4.2597 -1.8752 1.9626 0
M  V30 4 C -2.2347 -3.0177 1.3081 0
M  V30 5 F -5.307 -1.7307 2.7879 0
M  V30 6 C -4.1162 -0.9804 0.9054 0
M  V30 7 C -2.0921 -2.1224 0.2445 0
M  V30 8 C -3.0242 -1.1001 0.0464 0
M  V30 9 N -0.9687 -2.1903 -0.6404 0
M  V30 10 S -0.9071 -3.5353 -1.6688 0
M  V30 11 C 0.3271 -1.6979 -0.1059 0
M  V30 12 O 0.0744 -4.4554 -1.133 0
M  V30 13 O -2.2571 -3.9694 -1.9623 0
M  V30 14 C -0.2559 -2.8058 -3.157 0
M  V30 15 C 0.4467 -0.2156 -0.4676 0
M  V30 16 O 0.3267 0.1289 -1.6499 0
M  V30 17 N 0.7063 0.7204 0.5254 0
M  V30 18 C 0.6969 2.181 0.2201 0 CFG=1
M  V30 19 C 1.1998 0.3411 1.8585 0
M  V30 20 C 2.0043 2.662 -0.4516 0
M  V30 21 C -0.6069 2.6785 -0.4473 0
M  V30 22 C 0.1131 -0.0021 2.8577 0
M  V30 23 O 2.5737 3.6863 -0.0783 0
M  V30 24 N 2.4189 1.9325 -1.5413 0
M  V30 25 C -0.5103 3.1814 -1.8812 0
M  V30 26 C 0.2965 -0.9983 3.8359 0
M  V30 27 C -1.0927 0.7225 2.8846 0
M  V30 28 C 3.5871 2.2827 -2.3309 0
M  V30 29 Cl 1.7524 -1.9248 3.9406 0
M  V30 30 C -0.7043 -1.2824 4.7716 0
M  V30 31 C -2.0875 0.4422 3.825 0
M  V30 32 C 4.2016 1.0255 -2.9364 0
M  V30 33 C 3.2116 3.2844 -3.4193 0
M  V30 34 C -1.8966 -0.5639 4.7645 0
M  V30 35 H -1.5068 -3.8092 1.4638 0
M  V30 36 H -4.8543 -0.198 0.7595 0
M  V30 37 H -2.9076 -0.4057 -0.782 0
M  V30 38 H 1.1812 -2.1952 -0.5777 0
M  V30 39 H 0.3954 -1.9052 0.9598 0
M  V30 40 H -0.9238 -2.0049 -3.4796 0
M  V30 41 H -0.218 -3.585 -3.9215 0
M  V30 42 H 0.7502 -2.4294 -2.9685 0
M  V30 43 H 0.7042 2.6702 1.2051 0
M  V30 44 H 1.8808 -0.5002 1.7019 0
M  V30 45 H 1.8132 1.153 2.2677 0
M  V30 46 H -1.3876 1.9107 -0.3873 0
M  V30 47 H -0.985 3.5177 0.1527 0
M  V30 48 H 1.7813 1.2217 -1.8991 0
M  V30 49 H -0.1845 2.4019 -2.5731 0
M  V30 50 H -1.4942 3.5253 -2.2179 0
M  V30 51 H 0.1748 4.031 -1.9602 0
M  V30 52 H -1.2798 1.5224 2.1738 0
M  V30 53 H 4.3235 2.7492 -1.6659 0
M  V30 54 H -0.5593 -2.0635 5.5148 0
M  V30 55 H -3.015 1.0111 3.8224 0
M  V30 56 H 3.4954 0.5184 -3.6034 0
M  V30 57 H 4.4806 0.3145 -2.151 0
M  V30 58 H 5.1016 1.2671 -3.5109 0
M  V30 59 H 4.0875 3.5612 -4.015 0
M  V30 60 H 2.4545 2.8705 -4.0947 0
M  V30 61 H 2.7971 4.1998 -2.9832 0
M  V30 62 H -2.6735 -0.7883 5.4918 0
M  V30 END ATOM
M  V30 BEGIN BOND
M  V30 1 1 1 2
M  V30 2 2 2 3
M  V30 3 1 2 4
M  V30 4 1 3 5
M  V30 5 1 3 6
M  V30 6 2 4 7
M  V30 7 2 6 8
M  V30 8 1 7 9
M  V30 9 1 9 10
M  V30 10 1 9 11
M  V30 11 2 10 12
M  V30 12 2 10 13
M  V30 13 1 10 14
M  V30 14 1 11 15
M  V30 15 2 15 16
M  V30 16 1 15 17
M  V30 17 1 17 18
M  V30 18 1 17 19
M  V30 19 1 18 20
M  V30 20 1 18 21
M  V30 21 1 19 22
M  V30 22 2 20 23
M  V30 23 1 20 24
M  V30 24 1 21 25
M  V30 25 2 22 26
M  V30 26 1 22 27
M  V30 27 1 24 28
M  V30 28 1 26 29
M  V30 29 1 26 30
M  V30 30 2 27 31
M  V30 31 1 28 32
M  V30 32 1 28 33
M  V30 33 2 30 34
M  V30 34 1 7 8
M  V30 35 1 31 34
M  V30 36 1 4 35
M  V30 37 1 6 36
M  V30 38 1 8 37
M  V30 39 1 11 38
M  V30 40 1 11 39
M  V30 41 1 14 40
M  V30 42 1 14 41
M  V30 43 1 14 42
M  V30 44 1 18 43
M  V30 45 1 19 44
M  V30 46 1 19 45
M  V30 47 1 21 46
M  V30 48 1 21 47
M  V30 49 1 24 48
M  V30 50 1 25 49
M  V30 51 1 25 50
M  V30 52 1 25 51
M  V30 53 1 27 52
M  V30 54 1 28 53
M  V30 55 1 30 54
M  V30 56 1 31 55
M  V30 57 1 32 56
M  V30 58 1 32 57
M  V30 59 1 32 58
M  V30 60 1 33 59
M  V30 61 1 33 60
M  V30 62 1 33 61
M  V30 63 1 34 62
M  V30 END BOND
M  V30 BEGIN COLLECTION
M  V30 MDLV30/STEABS ATOMS=(1 18)
M  V30 END COLLECTION
M  V30 END CTAB
M  END
>  <NO.>
3881

>  <Name>
levodopa

>  <SMILES>
CC[C@H](C(=O)NC(C)C)N(Cc1ccccc1Cl)C(=O)CN(c1ccc(F)c(Cl)c1)S(C)(=O)=O

>  <logBB>


>  <Class>
1

>  <MW>
531.12

>  <nHBAcc>
4

>  <nHBDon>
1

>  <SLogP>
4.23

>  <TopoPSA>
86.79

>  <MMFF94 Energy>
18.574

$$$$
CC[C@H](C(=O)N[C@@H](C)c1ccc(C)c(C)c1)N(c1cc(C)ccc1C)S(C)(=O)=O
Actelion Java MolfileCreator 2.0

  0  0  0  0  0  0              0 V3000
M  V30 BEGIN CTAB
M  V30 COUNTS 61 62 0 0 0
M  V30 BEGIN ATOM
M  V30 1 S 0.0794 -3.0233 3.0233 0
M  V30 2 O -0.1991 -4.269 2.3382 0
M  V30 3 O 1.0617 -2.9594 4.0847 0
M  V30 4 N 0.4157 -1.77 1.8678 0
M  V30 5 C -1.4821 -2.4794 3.6821 0
M  V30 6 C 0.7142 -2.3286 0.5575 0
M  V30 7 C 1.3505 -0.6741 2.3635 0 CFG=1
M  V30 8 C -0.3059 -2.4366 -0.4042 0
M  V30 9 C 1.9997 -2.816 0.2765 0
M  V30 10 C 1.9065 0.2613 1.2776 0
M  V30 11 C 0.7126 0.2016 3.4593 0
M  V30 12 C -0.0011 -3.0068 -1.6493 0
M  V30 13 C -1.7213 -2.0166 -0.1287 0
M  V30 14 C 2.2957 -3.3807 -0.9692 0
M  V30 15 O 3.0604 0.6855 1.3187 0
M  V30 16 N 1.0132 0.6453 0.3072 0
M  V30 17 C -0.5636 0.9331 3.0581 0
M  V30 18 C 1.2892 -3.4575 -1.9347 0
M  V30 19 C 3.6861 -3.8521 -1.2755 0
M  V30 20 C 1.3579 1.5273 -0.7906 0 CFG=2
M  V30 21 C 0.0781 2.0951 -1.3791 0
M  V30 22 C 2.2277 0.8152 -1.831 0
M  V30 23 C -0.318 3.401 -1.0506 0
M  V30 24 C -0.7611 1.3315 -2.2002 0
M  V30 25 C -1.5136 3.9524 -1.5427 0
M  V30 26 C -1.951 1.867 -2.6964 0
M  V30 27 C -2.3386 3.1761 -2.3785 0
M  V30 28 C -1.8844 5.3607 -1.1645 0
M  V30 29 C -3.6266 3.719 -2.9342 0
M  V30 30 H -1.3544 -1.5728 4.2691 0
M  V30 31 H -1.8585 -3.2728 4.3329 0
M  V30 32 H -2.1838 -2.3238 2.8619 0
M  V30 33 H 2.2389 -1.1636 2.7867 0
M  V30 34 H 2.7805 -2.7649 1.032 0
M  V30 35 H 0.5088 -0.4008 4.3493 0
M  V30 36 H 1.442 0.9563 3.7822 0
M  V30 37 H -0.7731 -3.1127 -2.4087 0
M  V30 38 H -2.2547 -1.7978 -1.0602 0
M  V30 39 H -2.2532 -2.8177 0.3931 0
M  V30 40 H -1.7604 -1.1055 0.4753 0
M  V30 41 H 0.0848 0.2448 0.3248 0
M  V30 42 H -1.3045 0.2594 2.6207 0
M  V30 43 H -1.0146 1.4008 3.9398 0
M  V30 44 H -0.3579 1.7328 2.341 0
M  V30 45 H 1.4979 -3.8881 -2.9118 0
M  V30 46 H 4.287 -3.0202 -1.6553 0
M  V30 47 H 4.1666 -4.2574 -0.3788 0
M  V30 48 H 3.6736 -4.6499 -2.0254 0
M  V30 49 H 1.9584 2.3478 -0.3767 0
M  V30 50 H 1.7535 -0.0956 -2.2112 0
M  V30 51 H 2.4359 1.4711 -2.6832 0
M  V30 52 H 3.1877 0.5148 -1.3976 0
M  V30 53 H 0.3155 3.9996 -0.397 0
M  V30 54 H -0.5008 0.3084 -2.461 0
M  V30 55 H -2.577 1.2498 -3.3376 0
M  V30 56 H -2.8399 5.3721 -0.6305 0
M  V30 57 H -1.9573 5.9878 -2.0586 0
M  V30 58 H -1.1345 5.8118 -0.5061 0
M  V30 59 H -4.3121 3.9782 -2.1212 0
M  V30 60 H -4.1319 2.984 -3.5698 0
M  V30 61 H -3.4334 4.6053 -3.5467 0
M  V30 END ATOM
M  V30 BEGIN BOND
M  V30 1 2 1 2
M  V30 2 2 1 3
M  V30 3 1 1 4
M  V30 4 1 1 5
M  V30 5 1 4 6
M  V30 6 1 4 7
M  V30 7 2 6 8
M  V30 8 1 6 9
M  V30 9 1 7 10
M  V30 10 1 7 11
M  V30 11 1 8 12
M  V30 12 1 8 13
M  V30 13 2 9 14
M  V30 14 2 10 15
M  V30 15 1 10 16
M  V30 16 1 11 17
M  V30 17 2 12 18
M  V30 18 1 14 19
M  V30 19 1 16 20
M  V30 20 1 20 21
M  V30 21 1 20 22
M  V30 22 2 21 23
M  V30 23 1 21 24
M  V30 24 1 23 25
M  V30 25 2 24 26
M  V30 26 2 25 27
M  V30 27 1 25 28
M  V30 28 1 27 29
M  V30 29 1 14 18
M  V30 30 1 26 27
M  V30 31 1 5 30
M  V30 32 1 5 31
M  V30 33 1 5 32
M  V30 34 1 7 33
M  V30 35 1 9 34
M  V30 36 1 11 35
M  V30 37 1 11 36
M  V30 38 1 12 37
M  V30 39 1 13 38
M  V30 40 1 13 39
M  V30 41 1 13 40
M  V30 42 1 16 41
M  V30 43 1 17 42
M  V30 44 1 17 43
M  V30 45 1 17 44
M  V30 46 1 18 45
M  V30 47 1 19 46
M  V30 48 1 19 47
M  V30 49 1 19 48
M  V30 50 1 20 49
M  V30 51 1 22 50
M  V30 52 1 22 51
M  V30 53 1 22 52
M  V30 54 1 23 53
M  V30 55 1 24 54
M  V30 56 1 26 55
M  V30 57 1 28 56
M  V30 58 1 28 57
M  V30 59 1 28 58
M  V30 60 1 29 59
M  V30 61 1 29 60
M  V30 62 1 29 61
M  V30 END BOND
M  V30 BEGIN COLLECTION
M  V30 MDLV30/STEABS ATOMS=(2 7 20)
M  V30 END COLLECTION
M  V30 END CTAB
M  END
>  <NO.>
3882

>  <Name>
saquinavir

>  <SMILES>
CC[C@H](C(=O)N[C@@H](C)c1ccc(C)c(C)c1)N(c1cc(C)ccc1C)S(C)(=O)=O

>  <logBB>


>  <Class>
-1

>  <MW>
416.21

>  <nHBAcc>
3

>  <nHBDon>
1

>  <SLogP>
4.34

>  <TopoPSA>
66.48

>  <MMFF94 Energy>
17.342

$$$$
CC[C@H](NC(=O)CSCc1ccc(OC)cc1)c1ccc(C)c(C)c1
Actelion Java MolfileCreator 2.0

  0  0  0  0  0  0              0 V3000
M  V30 BEGIN CTAB
M  V30 COUNTS 52 53 0 0 0
M  V30 BEGIN ATOM
M  V30 1 S -2.0671 1.1921 1.1126 0
M  V30 2 C -2.9096 2.7244 0.6074 0
M  V30 3 C -2.5882 0.1057 -0.26 0
M  V30 4 C -2.3967 3.2872 -0.6931 0
M  V30 5 C -2.1927 -1.3438 -0.0175 0
M  V30 6 C -3.1896 3.2534 -1.8488 0
M  V30 7 C -1.118 3.8535 -0.7727 0
M  V30 8 O -2.9297 -2.274 -0.3368 0
M  V30 9 N -0.9294 -1.5238 0.4958 0
M  V30 10 C -2.7128 3.7684 -3.0603 0
M  V30 11 C -0.6456 4.3665 -1.983 0
M  V30 12 C -0.3613 -2.8336 0.7679 0 CFG=2
M  V30 13 C -1.4371 4.3267 -3.1324 0
M  V30 14 C 0.8256 -2.7388 1.7153 0
M  V30 15 C -0.0364 -3.6331 -0.5125 0
M  V30 16 O -0.853 4.8609 -4.2475 0
M  V30 17 C 1.8542 -1.7982 1.5392 0
M  V30 18 C 0.9164 -3.6233 2.7974 0
M  V30 19 C 0.9112 -2.9507 -1.4917 0
M  V30 20 C -1.6178 4.8417 -5.4461 0
M  V30 21 C 2.9475 -1.7273 2.4204 0
M  V30 22 C 1.9963 -3.5642 3.6806 0
M  V30 23 C 3.0182 -2.6213 3.5053 0
M  V30 24 C 4.0198 -0.6994 2.181 0
M  V30 25 C 4.1655 -2.5885 4.4774 0
M  V30 26 H -2.7656 3.4704 1.3976 0
M  V30 27 H -3.9879 2.5356 0.5585 0
M  V30 28 H -2.1166 0.4268 -1.1932 0
M  V30 29 H -3.6769 0.1513 -0.3608 0
M  V30 30 H -4.1891 2.8236 -1.8188 0
M  V30 31 H -0.4784 3.8965 0.1066 0
M  V30 32 H -0.4673 -0.6996 0.8647 0
M  V30 33 H -3.3639 3.7177 -3.9267 0
M  V30 34 H 0.3499 4.8014 -2.0307 0
M  V30 35 H -1.1553 -3.387 1.289 0
M  V30 36 H -0.9699 -3.8426 -1.0491 0
M  V30 37 H 0.3844 -4.6091 -0.2395 0
M  V30 38 H 1.8115 -1.1102 0.6965 0
M  V30 39 H 0.1419 -4.3694 2.9652 0
M  V30 40 H 0.5536 -1.9556 -1.773 0
M  V30 41 H 0.9897 -3.547 -2.4069 0
M  V30 42 H 1.9193 -2.8582 -1.079 0
M  V30 43 H -1.8452 3.8154 -5.753 0
M  V30 44 H -1.0135 5.2989 -6.2355 0
M  V30 45 H -2.532 5.4353 -5.3406 0
M  V30 46 H 2.0324 -4.2654 4.5119 0
M  V30 47 H 4.984 -1.1886 2.0111 0
M  V30 48 H 4.0978 -0.0241 3.039 0
M  V30 49 H 3.8012 -0.0869 1.2997 0
M  V30 50 H 5.1096 -2.7815 3.9583 0
M  V30 51 H 4.0555 -3.3515 5.2556 0
M  V30 52 H 4.2142 -1.6151 4.976 0
M  V30 END ATOM
M  V30 BEGIN BOND
M  V30 1 1 1 2
M  V30 2 1 1 3
M  V30 3 1 2 4
M  V30 4 1 3 5
M  V30 5 2 4 6
M  V30 6 1 4 7
M  V30 7 2 5 8
M  V30 8 1 5 9
M  V30 9 1 6 10
M  V30 10 2 7 11
M  V30 11 1 9 12
M  V30 12 2 10 13
M  V30 13 1 12 14
M  V30 14 1 12 15
M  V30 15 1 13 16
M  V30 16 2 14 17
M  V30 17 1 14 18
M  V30 18 1 15 19
M  V30 19 1 16 20
M  V30 20 1 17 21
M  V30 21 2 18 22
M  V30 22 2 21 23
M  V30 23 1 21 24
M  V30 24 1 23 25
M  V30 25 1 11 13
M  V30 26 1 22 23
M  V30 27 1 2 26
M  V30 28 1 2 27
M  V30 29 1 3 28
M  V30 30 1 3 29
M  V30 31 1 6 30
M  V30 32 1 7 31
M  V30 33 1 9 32
M  V30 34 1 10 33
M  V30 35 1 11 34
M  V30 36 1 12 35
M  V30 37 1 15 36
M  V30 38 1 15 37
M  V30 39 1 17 38
M  V30 40 1 18 39
M  V30 41 1 19 40
M  V30 42 1 19 41
M  V30 43 1 19 42
M  V30 44 1 20 43
M  V30 45 1 20 44
M  V30 46 1 20 45
M  V30 47 1 22 46
M  V30 48 1 24 47
M  V30 49 1 24 48
M  V30 50 1 24 49
M  V30 51 1 25 50
M  V30 52 1 25 51
M  V30 53 1 25 52
M  V30 END BOND
M  V30 BEGIN COLLECTION
M  V30 MDLV30/STEABS ATOMS=(1 12)
M  V30 END COLLECTION
M  V30 END CTAB
M  END
>  <NO.>
3884

>  <Name>
oxacillin

>  <SMILES>
CC[C@H](NC(=O)CSCc1ccc(OC)cc1)c1ccc(C)c(C)c1

>  <logBB>


>  <Class>
-1

>  <MW>
357.18

>  <nHBAcc>
3

>  <nHBDon>
1

>  <SLogP>
4.81

>  <TopoPSA>
38.33

>  <MMFF94 Energy>
49.915

$$$$
CC[C@H](NC(=O)[C@@H](C)SCc1ccccc1)c1ccc(OC)c(OC)c1
Actelion Java MolfileCreator 2.0

  0  0  0  0  0  0              0 V3000
M  V30 BEGIN CTAB
M  V30 COUNTS 53 54 0 0 0
M  V30 BEGIN ATOM
M  V30 1 S -3.7417 1.6705 -0.7952 0
M  V30 2 C -2.9702 1.3068 0.8307 0 CFG=1
M  V30 3 C -2.3835 1.2349 -1.9235 0
M  V30 4 C -2.2913 -0.0718 0.8318 0
M  V30 5 C -2.1107 2.4825 1.2822 0
M  V30 6 C -2.6719 1.6829 -3.3341 0
M  V30 7 O -2.9497 -1.1113 0.8004 0
M  V30 8 N -0.9121 -0.089 0.8265 0
M  V30 9 C -3.3402 0.8326 -4.2274 0
M  V30 10 C -2.2961 2.9625 -3.769 0
M  V30 11 C -0.1601 -1.3379 0.8626 0 CFG=2
M  V30 12 C -3.611 1.2474 -5.5323 0
M  V30 13 C -2.5681 3.3751 -5.0746 0
M  V30 14 C 1.2035 -1.1453 1.5111 0
M  V30 15 C -0.0964 -2.0382 -0.5109 0
M  V30 16 C -3.2228 2.5169 -5.956 0
M  V30 17 C 1.6091 -2.0226 2.5335 0
M  V30 18 C 2.0832 -0.1248 1.1253 0
M  V30 19 C 0.6237 -1.2743 -1.6147 0
M  V30 20 C 2.8548 -1.8839 3.1606 0
M  V30 21 C 3.3294 0.0211 1.7425 0
M  V30 22 O 3.313 -2.7004 4.1653 0
M  V30 23 C 3.7238 -0.8512 2.7601 0
M  V30 24 C 2.4637 -3.7498 4.606 0
M  V30 25 O 4.925 -0.7813 3.4209 0
M  V30 26 C 5.8401 0.2289 3.0234 0
M  V30 27 H -3.7969 1.2245 1.5475 0
M  V30 28 H -2.2368 0.15 -1.9149 0
M  V30 29 H -1.4506 1.6972 -1.5846 0
M  V30 30 H -1.6482 2.27 2.2528 0
M  V30 31 H -1.3046 2.711 0.5771 0
M  V30 32 H -2.7164 3.388 1.4024 0
M  V30 33 H -0.3923 0.7736 0.8722 0
M  V30 34 H -3.661 -0.1565 -3.9069 0
M  V30 35 H -1.7958 3.6489 -3.0899 0
M  V30 36 H -0.7371 -2.0058 1.5173 0
M  V30 37 H -4.1315 0.5816 -6.2156 0
M  V30 38 H -2.2753 4.3692 -5.4022 0
M  V30 39 H -1.119 -2.2366 -0.8556 0
M  V30 40 H 0.3866 -3.017 -0.3972 0
M  V30 41 H -3.4384 2.8404 -6.9709 0
M  V30 42 H 0.9287 -2.8157 2.8295 0
M  V30 43 H 1.8189 0.5667 0.3289 0
M  V30 44 H 0.2535 -0.2502 -1.7096 0
M  V30 45 H 0.4693 -1.777 -2.5752 0
M  V30 46 H 1.7025 -1.2409 -1.439 0
M  V30 47 H 3.9718 0.8264 1.4021 0
M  V30 48 H 1.5316 -3.3552 5.0239 0
M  V30 49 H 2.9836 -4.2876 5.4048 0
M  V30 50 H 2.2665 -4.4634 3.7994 0
M  V30 51 H 6.14 0.102 1.978 0
M  V30 52 H 6.7381 0.1287 3.6407 0
M  V30 53 H 5.4265 1.2275 3.1989 0
M  V30 END ATOM
M  V30 BEGIN BOND
M  V30 1 1 1 2
M  V30 2 1 1 3
M  V30 3 1 2 4
M  V30 4 1 2 5
M  V30 5 1 3 6
M  V30 6 2 4 7
M  V30 7 1 4 8
M  V30 8 2 6 9
M  V30 9 1 6 10
M  V30 10 1 8 11
M  V30 11 1 9 12
M  V30 12 2 10 13
M  V30 13 1 11 14
M  V30 14 1 11 15
M  V30 15 2 12 16
M  V30 16 2 14 17
M  V30 17 1 14 18
M  V30 18 1 15 19
M  V30 19 1 17 20
M  V30 20 2 18 21
M  V30 21 1 20 22
M  V30 22 2 20 23
M  V30 23 1 22 24
M  V30 24 1 23 25
M  V30 25 1 25 26
M  V30 26 1 13 16
M  V30 27 1 21 23
M  V30 28 1 2 27
M  V30 29 1 3 28
M  V30 30 1 3 29
M  V30 31 1 5 30
M  V30 32 1 5 31
M  V30 33 1 5 32
M  V30 34 1 8 33
M  V30 35 1 9 34
M  V30 36 1 10 35
M  V30 37 1 11 36
M  V30 38 1 12 37
M  V30 39 1 13 38
M  V30 40 1 15 39
M  V30 41 1 15 40
M  V30 42 1 16 41
M  V30 43 1 17 42
M  V30 44 1 18 43
M  V30 45 1 19 44
M  V30 46 1 19 45
M  V30 47 1 19 46
M  V30 48 1 21 47
M  V30 49 1 24 48
M  V30 50 1 24 49
M  V30 51 1 24 50
M  V30 52 1 26 51
M  V30 53 1 26 52
M  V30 54 1 26 53
M  V30 END BOND
M  V30 BEGIN COLLECTION
M  V30 MDLV30/STEABS ATOMS=(2 2 11)
M  V30 END COLLECTION
M  V30 END CTAB
M  END
>  <NO.>
3885

>  <Name>
desipramine

>  <SMILES>
CC[C@H](NC(=O)[C@@H](C)SCc1ccccc1)c1ccc(OC)c(OC)c1

>  <logBB>


>  <Class>
1

>  <MW>
373.17

>  <nHBAcc>
4

>  <nHBDon>
1

>  <SLogP>
4.59

>  <TopoPSA>
47.56

>  <MMFF94 Energy>
70.835

$$$$
CC[C@H](NC(=O)[C@@H](C)SCc1ccccc1)c1ccc(S(C)(=O)=O)cc1
Actelion Java MolfileCreator 2.0

  0  0  0  0  0  0              0 V3000
M  V30 BEGIN CTAB
M  V30 COUNTS 51 52 0 0 0
M  V30 BEGIN ATOM
M  V30 1 S 5.8391 -1.8624 2.5109 0
M  V30 2 O 6.3577 -3.2139 2.6038 0
M  V30 3 O 6.5492 -0.8441 1.76 0
M  V30 4 C 4.1915 -1.9648 1.8561 0
M  V30 5 C 5.583 -1.2524 4.1566 0
M  V30 6 C 3.4388 -3.1201 2.0688 0
M  V30 7 C 3.6763 -0.9045 1.1097 0
M  V30 8 C 2.1442 -3.1993 1.5526 0
M  V30 9 C 2.3808 -0.9916 0.5954 0
M  V30 10 C 1.5931 -2.1351 0.8164 0
M  V30 11 C 0.1824 -2.2705 0.2596 0 CFG=1
M  V30 12 N -0.5077 -0.9935 0.2042 0
M  V30 13 C 0.1391 -2.9973 -1.0984 0
M  V30 14 C -1.3478 -0.5431 1.1964 0
M  V30 15 C 0.8748 -2.3026 -2.2387 0
M  V30 16 O -1.6084 -1.1951 2.2057 0
M  V30 17 C -1.872 0.8858 1.0163 0 CFG=2
M  V30 18 S -2.2269 1.24 -0.7529 0
M  V30 19 C -0.8432 1.8677 1.5636 0
M  V30 20 C -3.362 2.648 -0.5457 0
M  V30 21 C -3.8737 3.1379 -1.8761 0
M  V30 22 C -3.1858 4.1366 -2.5812 0
M  V30 23 C -5.0326 2.5856 -2.4415 0
M  V30 24 C -3.6564 4.5834 -3.8171 0
M  V30 25 C -5.5011 3.034 -3.6776 0
M  V30 26 C -4.8144 4.0337 -4.3636 0
M  V30 27 H 4.9675 -1.9641 4.7101 0
M  V30 28 H 5.0962 -0.2767 4.1037 0
M  V30 29 H 6.5589 -1.1543 4.6371 0
M  V30 30 H 3.8476 -3.9602 2.6261 0
M  V30 31 H 4.2715 -0.0144 0.9173 0
M  V30 32 H 1.5613 -4.1024 1.7277 0
M  V30 33 H 1.9953 -0.1591 0.0116 0
M  V30 34 H -0.3803 -2.8957 0.9659 0
M  V30 35 H -0.3901 -0.3972 -0.607 0
M  V30 36 H -0.9094 -3.1235 -1.397 0
M  V30 37 H 0.5559 -4.006 -0.9853 0
M  V30 38 H 0.4892 -1.2948 -2.4163 0
M  V30 39 H 0.7457 -2.8737 -3.164 0
M  V30 40 H 1.9488 -2.236 -2.0432 0
M  V30 41 H -2.8102 0.9567 1.5775 0
M  V30 42 H -0.6046 1.6273 2.6062 0
M  V30 43 H 0.0986 1.8268 1.0045 0
M  V30 44 H -1.2122 2.8977 1.5441 0
M  V30 45 H -2.8491 3.4658 -0.029 0
M  V30 46 H -4.2066 2.3456 0.0835 0
M  V30 47 H -2.2753 4.5698 -2.1733 0
M  V30 48 H -5.5748 1.7974 -1.9236 0
M  V30 49 H -3.1166 5.3577 -4.356 0
M  V30 50 H -6.3998 2.5994 -4.1075 0
M  V30 51 H -5.1784 4.3801 -5.3272 0
M  V30 END ATOM
M  V30 BEGIN BOND
M  V30 1 2 1 2
M  V30 2 2 1 3
M  V30 3 1 1 4
M  V30 4 1 1 5
M  V30 5 2 4 6
M  V30 6 1 4 7
M  V30 7 1 6 8
M  V30 8 2 7 9
M  V30 9 2 8 10
M  V30 10 1 10 11
M  V30 11 1 11 12
M  V30 12 1 11 13
M  V30 13 1 12 14
M  V30 14 1 13 15
M  V30 15 2 14 16
M  V30 16 1 14 17
M  V30 17 1 17 18
M  V30 18 1 17 19
M  V30 19 1 18 20
M  V30 20 1 20 21
M  V30 21 2 21 22
M  V30 22 1 21 23
M  V30 23 1 22 24
M  V30 24 2 23 25
M  V30 25 2 24 26
M  V30 26 1 9 10
M  V30 27 1 25 26
M  V30 28 1 5 27
M  V30 29 1 5 28
M  V30 30 1 5 29
M  V30 31 1 6 30
M  V30 32 1 7 31
M  V30 33 1 8 32
M  V30 34 1 9 33
M  V30 35 1 11 34
M  V30 36 1 12 35
M  V30 37 1 13 36
M  V30 38 1 13 37
M  V30 39 1 15 38
M  V30 40 1 15 39
M  V30 41 1 15 40
M  V30 42 1 17 41
M  V30 43 1 19 42
M  V30 44 1 19 43
M  V30 45 1 19 44
M  V30 46 1 20 45
M  V30 47 1 20 46
M  V30 48 1 22 47
M  V30 49 1 23 48
M  V30 50 1 24 49
M  V30 51 1 25 50
M  V30 52 1 26 51
M  V30 END BOND
M  V30 BEGIN COLLECTION
M  V30 MDLV30/STEABS ATOMS=(2 11 17)
M  V30 END COLLECTION
M  V30 END CTAB
M  END
>  <NO.>
3886

>  <Name>
amphetamine

>  <SMILES>
CC[C@H](NC(=O)[C@@H](C)SCc1ccccc1)c1ccc(S(C)(=O)=O)cc1

>  <logBB>


>  <Class>
1

>  <MW>
391.13

>  <nHBAcc>
4

>  <nHBDon>
1

>  <SLogP>
3.98

>  <TopoPSA>
63.24

>  <MMFF94 Energy>
71.811

$$$$
CC[C@H](NC(=O)[C@H](C)Sc1ccc(C)cc1)c1ccc(S(C)(=O)=O)cc1
Actelion Java MolfileCreator 2.0

  0  0  0  0  0  0              0 V3000
M  V30 BEGIN CTAB
M  V30 COUNTS 51 52 0 0 0
M  V30 BEGIN ATOM
M  V30 1 S 2.3476 -0.6472 3.4014 0
M  V30 2 O 2.8412 0.711 3.5342 0
M  V30 3 O 1.3528 -1.1674 4.3205 0
M  V30 4 C 1.7207 -0.8248 1.7508 0
M  V30 5 C 3.7369 -1.7493 3.4284 0
M  V30 6 C 0.5935 -1.6103 1.5149 0
M  V30 7 C 2.3373 -0.1285 0.7094 0
M  V30 8 C 0.0942 -1.7164 0.2161 0
M  V30 9 C 1.8324 -0.2397 -0.5874 0
M  V30 10 C 0.7132 -1.0462 -0.8542 0
M  V30 11 C 0.0968 -1.1425 -2.2426 0 CFG=1
M  V30 12 N -0.7004 0.0507 -2.471 0
M  V30 13 C 1.1043 -1.3257 -3.392 0
M  V30 14 C -2.0567 0.0919 -2.2342 0
M  V30 15 C 1.8796 -2.6334 -3.3016 0
M  V30 16 O -2.72 -0.904 -1.9502 0
M  V30 17 C -2.7148 1.459 -2.4228 0 CFG=1
M  V30 18 S -1.739 2.8042 -1.6302 0
M  V30 19 C -2.8502 1.7625 -3.9115 0
M  V30 20 C -1.6205 2.276 0.075 0
M  V30 21 C -2.6091 1.5438 0.7365 0
M  V30 22 C -0.4793 2.6605 0.7897 0
M  V30 23 C -2.4467 1.18 2.0779 0
M  V30 24 C -0.3175 2.3013 2.1314 0
M  V30 25 C -1.2978 1.5501 2.7838 0
M  V30 26 C -1.147 1.1718 4.2274 0
M  V30 27 H 4.4657 -1.4261 2.6829 0
M  V30 28 H 3.3908 -2.7634 3.2197 0
M  V30 29 H 4.1829 -1.7072 4.4245 0
M  V30 30 H 0.0821 -2.1198 2.3285 0
M  V30 31 H 3.1902 0.519 0.9001 0
M  V30 32 H -0.8068 -2.3046 0.0432 0
M  V30 33 H 2.3084 0.3305 -1.3811 0
M  V30 34 H -0.5728 -2.0121 -2.2641 0
M  V30 35 H -0.2205 0.9373 -2.5717 0
M  V30 36 H 1.8078 -0.4866 -3.4449 0
M  V30 37 H 0.5579 -1.3172 -4.3444 0
M  V30 38 H 2.5126 -2.6662 -2.4099 0
M  V30 39 H 2.529 -2.7456 -4.1757 0
M  V30 40 H 1.1997 -3.4909 -3.2742 0
M  V30 41 H -3.7137 1.435 -1.976 0
M  V30 42 H -3.4231 0.9718 -4.4095 0
M  V30 43 H -1.8774 1.816 -4.4138 0
M  V30 44 H -3.3787 2.7074 -4.0796 0
M  V30 45 H -3.5265 1.2463 0.2391 0
M  V30 46 H 0.3017 3.2459 0.3105 0
M  V30 47 H -3.2288 0.6064 2.5711 0
M  V30 48 H 0.5824 2.6092 2.6605 0
M  V30 49 H -1.8572 1.7377 4.8386 0
M  V30 50 H -1.3321 0.1011 4.361 0
M  V30 51 H -0.1377 1.3839 4.5941 0
M  V30 END ATOM
M  V30 BEGIN BOND
M  V30 1 2 1 2
M  V30 2 2 1 3
M  V30 3 1 1 4
M  V30 4 1 1 5
M  V30 5 2 4 6
M  V30 6 1 4 7
M  V30 7 1 6 8
M  V30 8 2 7 9
M  V30 9 2 8 10
M  V30 10 1 10 11
M  V30 11 1 11 12
M  V30 12 1 11 13
M  V30 13 1 12 14
M  V30 14 1 13 15
M  V30 15 2 14 16
M  V30 16 1 14 17
M  V30 17 1 17 18
M  V30 18 1 17 19
M  V30 19 1 18 20
M  V30 20 2 20 21
M  V30 21 1 20 22
M  V30 22 1 21 23
M  V30 23 2 22 24
M  V30 24 2 23 25
M  V30 25 1 25 26
M  V30 26 1 9 10
M  V30 27 1 24 25
M  V30 28 1 5 27
M  V30 29 1 5 28
M  V30 30 1 5 29
M  V30 31 1 6 30
M  V30 32 1 7 31
M  V30 33 1 8 32
M  V30 34 1 9 33
M  V30 35 1 11 34
M  V30 36 1 12 35
M  V30 37 1 13 36
M  V30 38 1 13 37
M  V30 39 1 15 38
M  V30 40 1 15 39
M  V30 41 1 15 40
M  V30 42 1 17 41
M  V30 43 1 19 42
M  V30 44 1 19 43
M  V30 45 1 19 44
M  V30 46 1 21 45
M  V30 47 1 22 46
M  V30 48 1 23 47
M  V30 49 1 24 48
M  V30 50 1 26 49
M  V30 51 1 26 50
M  V30 52 1 26 51
M  V30 END BOND
M  V30 BEGIN COLLECTION
M  V30 MDLV30/STEABS ATOMS=(2 11 17)
M  V30 END COLLECTION
M  V30 END CTAB
M  END
>  <NO.>
3888

>  <Name>
triamterene

>  <SMILES>
CC[C@H](NC(=O)[C@H](C)Sc1ccc(C)cc1)c1ccc(S(C)(=O)=O)cc1

>  <logBB>


>  <Class>
-1

>  <MW>
391.13

>  <nHBAcc>
4

>  <nHBDon>
1

>  <SLogP>
4.15

>  <TopoPSA>
63.24

>  <MMFF94 Energy>
58.822

$$$$
CC[C@H](NC(=O)c1ccc([N+](=O)[O-])c(C)c1)c1ccc(C)c(C)c1
Actelion Java MolfileCreator 2.0

  0  0  0  0  0  0              0 V3000
M  V30 BEGIN CTAB
M  V30 COUNTS 46 47 0 0 0
M  V30 BEGIN ATOM
M  V30 1 O -5.2233 5.382 -1.1062 0
M  V30 2 N -4.0474 5.2359 -0.7459 0 CHG=1
M  V30 3 O -3.288 6.1477 -0.3924 0 CHG=-1
M  V30 4 C -3.5254 3.8722 -0.7155 0
M  V30 5 C -2.2803 3.5547 -1.2935 0
M  V30 6 C -4.3167 2.8947 -0.0943 0
M  V30 7 C -1.8275 2.2252 -1.1937 0
M  V30 8 C -1.4173 4.5672 -1.9953 0
M  V30 9 C -3.8528 1.5809 -0.0201 0
M  V30 10 C -2.6016 1.2436 -0.5521 0
M  V30 11 C -2.1512 -0.1722 -0.4436 0
M  V30 12 O -2.98 -1.0723 -0.3755 0
M  V30 13 N -0.792 -0.3812 -0.3927 0
M  V30 14 C -0.2209 -1.7175 -0.2745 0 CFG=2
M  V30 15 C 1.182 -1.5958 0.2999 0
M  V30 16 C -0.2797 -2.4649 -1.6234 0
M  V30 17 C 1.4187 -1.9528 1.6369 0
M  V30 18 C 2.2498 -1.0931 -0.4543 0
M  V30 19 C 0.1702 -3.9168 -1.5186 0
M  V30 20 C 2.6944 -1.834 2.2148 0
M  V30 21 C 3.5223 -0.9711 0.1071 0
M  V30 22 C 3.7598 -1.3397 1.4387 0
M  V30 23 C 2.8921 -2.2389 3.6505 0
M  V30 24 C 5.1448 -1.1953 2.0077 0
M  V30 25 H -5.2865 3.145 0.3324 0
M  V30 26 H -0.8781 1.9545 -1.6509 0
M  V30 27 H -0.6501 4.0782 -2.6057 0
M  V30 28 H -2.0129 5.1846 -2.6755 0
M  V30 29 H -0.9096 5.2047 -1.265 0
M  V30 30 H -4.4659 0.8183 0.4588 0
M  V30 31 H -0.1575 0.4011 -0.3201 0
M  V30 32 H -0.8499 -2.2715 0.4354 0
M  V30 33 H 0.3181 -1.9524 -2.3862 0
M  V30 34 H -1.3103 -2.458 -1.9999 0
M  V30 35 H 0.5937 -2.3302 2.2405 0
M  V30 36 H 2.1048 -0.791 -1.4887 0
M  V30 37 H 1.2255 -3.9933 -1.2404 0
M  V30 38 H 0.0431 -4.4191 -2.483 0
M  V30 39 H -0.4237 -4.4581 -0.7752 0
M  V30 40 H 4.3327 -0.5842 -0.5074 0
M  V30 41 H 3.242 -1.3864 4.2415 0
M  V30 42 H 3.6187 -3.0546 3.7186 0
M  V30 43 H 1.9584 -2.5907 4.1022 0
M  V30 44 H 5.1389 -0.4957 2.8496 0
M  V30 45 H 5.8477 -0.8082 1.2622 0
M  V30 46 H 5.5224 -2.1669 2.3417 0
M  V30 END ATOM
M  V30 BEGIN BOND
M  V30 1 2 1 2
M  V30 2 1 2 3
M  V30 3 1 2 4
M  V30 4 2 4 5
M  V30 5 1 4 6
M  V30 6 1 5 7
M  V30 7 1 5 8
M  V30 8 2 6 9
M  V30 9 2 7 10
M  V30 10 1 10 11
M  V30 11 2 11 12
M  V30 12 1 11 13
M  V30 13 1 13 14
M  V30 14 1 14 15
M  V30 15 1 14 16
M  V30 16 2 15 17
M  V30 17 1 15 18
M  V30 18 1 16 19
M  V30 19 1 17 20
M  V30 20 2 18 21
M  V30 21 2 20 22
M  V30 22 1 20 23
M  V30 23 1 22 24
M  V30 24 1 9 10
M  V30 25 1 21 22
M  V30 26 1 6 25
M  V30 27 1 7 26
M  V30 28 1 8 27
M  V30 29 1 8 28
M  V30 30 1 8 29
M  V30 31 1 9 30
M  V30 32 1 13 31
M  V30 33 1 14 32
M  V30 34 1 16 33
M  V30 35 1 16 34
M  V30 36 1 17 35
M  V30 37 1 18 36
M  V30 38 1 19 37
M  V30 39 1 19 38
M  V30 40 1 19 39
M  V30 41 1 21 40
M  V30 42 1 23 41
M  V30 43 1 23 42
M  V30 44 1 23 43
M  V30 45 1 24 44
M  V30 46 1 24 45
M  V30 47 1 24 46
M  V30 END BOND
M  V30 BEGIN COLLECTION
M  V30 MDLV30/STEABS ATOMS=(1 14)
M  V30 END COLLECTION
M  V30 END CTAB
M  END
>  <NO.>
3891

>  <Name>
sulfadiazine

>  <SMILES>
CC[C@H](NC(=O)c1ccc([N+](=O)[O-])c(C)c1)c1ccc(C)c(C)c1

>  <logBB>


>  <Class>
1

>  <MW>
326.16

>  <nHBAcc>
3

>  <nHBDon>
1

>  <SLogP>
4.4

>  <TopoPSA>
72.24

>  <MMFF94 Energy>
69.937

$$$$
CC[C@H]1CCCCN1CC(=O)N(C)Cc1cnccn1
Actelion Java MolfileCreator 2.0

  0  0  0  0  0  0              0 V3000
M  V30 BEGIN CTAB
M  V30 COUNTS 44 45 0 0 0
M  V30 BEGIN ATOM
M  V30 1 O -0.1575 1.2606 -1.1818 0
M  V30 2 C -0.2229 0.0415 -1.0034 0
M  V30 3 N -0.0368 -0.8366 -2.0696 0
M  V30 4 C -0.4911 -0.5878 0.3831 0
M  V30 5 C 0.1361 -0.2689 -3.4091 0
M  V30 6 C 0.0805 -2.2849 -1.9617 0
M  V30 7 N -0.9955 0.3905 1.3815 0
M  V30 8 C 1.5841 -0.1467 -3.8155 0
M  V30 9 C -0.9761 -0.1444 2.7655 0 CFG=2
M  V30 10 C -2.3576 0.825 1.0032 0
M  V30 11 N 2.1093 -1.1195 -4.6115 0
M  V30 12 C 2.3624 0.9162 -3.3651 0
M  V30 13 C -1.5205 0.9039 3.7629 0
M  V30 14 C 0.413 -0.6277 3.257 0
M  V30 15 C -2.9107 1.8875 1.9498 0
M  V30 16 C 3.4136 -0.9699 -4.9382 0
M  V30 17 N 3.6691 1.0621 -3.696 0
M  V30 18 C -2.9137 1.3849 3.3831 0
M  V30 19 C 1.5369 0.3951 3.1374 0
M  V30 20 C 4.1748 0.0958 -4.4921 0
M  V30 21 H -1.204 -1.4143 0.287 0
M  V30 22 H 0.4781 -0.9925 0.6877 0
M  V30 23 H -0.3951 -0.9136 -4.1201 0
M  V30 24 H -0.3413 0.7158 -3.4769 0
M  V30 25 H -0.7604 -2.7406 -2.4924 0
M  V30 26 H 1.0176 -2.6076 -2.4238 0
M  V30 27 H 0.0803 -2.6345 -0.9293 0
M  V30 28 H -1.6442 -1.0171 2.8096 0
M  V30 29 H -3.0406 -0.0351 0.9862 0
M  V30 30 H -2.3667 1.2551 -0.0037 0
M  V30 31 H 1.9541 1.6874 -2.718 0
M  V30 32 H -1.5556 0.4776 4.7728 0
M  V30 33 H -0.8528 1.7729 3.8076 0
M  V30 34 H 0.3325 -0.9295 4.3095 0
M  V30 35 H 0.7037 -1.5386 2.7212 0
M  V30 36 H -3.9303 2.1554 1.6505 0
M  V30 37 H -2.305 2.7996 1.8769 0
M  V30 38 H 3.8356 -1.738 -5.5757 0
M  V30 39 H -3.6312 0.5622 3.4882 0
M  V30 40 H -3.235 2.1827 4.0618 0
M  V30 41 H 1.3469 1.2779 3.7541 0
M  V30 42 H 2.478 -0.0475 3.4801 0
M  V30 43 H 1.6814 0.7203 2.1032 0
M  V30 44 H 5.2185 0.2014 -4.7638 0
M  V30 END ATOM
M  V30 BEGIN BOND
M  V30 1 2 1 2
M  V30 2 1 2 3
M  V30 3 1 2 4
M  V30 4 1 3 5
M  V30 5 1 3 6
M  V30 6 1 4 7
M  V30 7 1 5 8
M  V30 8 1 7 9
M  V30 9 1 7 10
M  V30 10 2 8 11
M  V30 11 1 8 12
M  V30 12 1 9 13
M  V30 13 1 9 14
M  V30 14 1 10 15
M  V30 15 1 11 16
M  V30 16 2 12 17
M  V30 17 1 13 18
M  V30 18 1 14 19
M  V30 19 2 16 20
M  V30 20 1 15 18
M  V30 21 1 17 20
M  V30 22 1 4 21
M  V30 23 1 4 22
M  V30 24 1 5 23
M  V30 25 1 5 24
M  V30 26 1 6 25
M  V30 27 1 6 26
M  V30 28 1 6 27
M  V30 29 1 9 28
M  V30 30 1 10 29
M  V30 31 1 10 30
M  V30 32 1 12 31
M  V30 33 1 13 32
M  V30 34 1 13 33
M  V30 35 1 14 34
M  V30 36 1 14 35
M  V30 37 1 15 36
M  V30 38 1 15 37
M  V30 39 1 16 38
M  V30 40 1 18 39
M  V30 41 1 18 40
M  V30 42 1 19 41
M  V30 43 1 19 42
M  V30 44 1 19 43
M  V30 45 1 20 44
M  V30 END BOND
M  V30 BEGIN COLLECTION
M  V30 MDLV30/STEABS ATOMS=(1 9)
M  V30 END COLLECTION
M  V30 END CTAB
M  END
>  <NO.>
3892

>  <Name>
pethidine

>  <SMILES>
CC[C@H]1CCCCN1CC(=O)N(C)Cc1cnccn1

>  <logBB>


>  <Class>
1

>  <MW>
276.2

>  <nHBAcc>
4

>  <nHBDon>
0

>  <SLogP>
1.7

>  <TopoPSA>
49.33

>  <MMFF94 Energy>
94.895

$$$$
CCc1c(C)nn(CC(=O)NC[C@H]2CCCN(c3ccccn3)C2)c1C
Actelion Java MolfileCreator 2.0

  0  0  0  0  0  0              0 V3000
M  V30 BEGIN CTAB
M  V30 COUNTS 55 57 0 0 0
M  V30 BEGIN ATOM
M  V30 1 O 0.4723 2.5211 -2.4422 0
M  V30 2 C 1.2914 1.6108 -2.3326 0
M  V30 3 N 2.0715 1.43 -1.2087 0
M  V30 4 C 1.546 0.6235 -3.4493 0
M  V30 5 C 1.8682 2.1856 0.008 0
M  V30 6 N 1.4647 -0.7391 -2.9553 0
M  V30 7 C 0.7563 1.5773 0.8753 0 CFG=2
M  V30 8 N 2.5918 -1.324 -2.4993 0
M  V30 9 C 0.3418 -1.505 -2.7735 0
M  V30 10 C 0.4562 2.5034 2.0671 0
M  V30 11 C 1.1359 0.1672 1.3768 0
M  V30 12 C 2.1832 -2.5114 -2.0411 0
M  V30 13 C 0.7772 -2.6767 -2.1763 0
M  V30 14 C -1.021 -1.0472 -3.1495 0
M  V30 15 N -0.57 1.8938 2.9137 0
M  V30 16 C 0.0895 -0.3934 2.3444 0
M  V30 17 C 3.1625 -3.4625 -1.4583 0
M  V30 18 C -0.0421 -3.8465 -1.7427 0
M  V30 19 C -1.9198 2.1291 2.6799 0
M  V30 20 C -0.1993 0.5936 3.4766 0
M  V30 21 C -0.6041 -3.6655 -0.3402 0
M  V30 22 N -2.7968 1.1146 2.863 0
M  V30 23 C -2.3895 3.3861 2.295 0
M  V30 24 C -4.1122 1.3324 2.6381 0
M  V30 25 C -3.7513 3.5951 2.0679 0
M  V30 26 C -4.6353 2.5444 2.2381 0
M  V30 27 H 2.7005 0.6266 -1.1921 0
M  V30 28 H 2.5445 0.7851 -3.8682 0
M  V30 29 H 0.8055 0.7485 -4.2442 0
M  V30 30 H 1.6172 3.2176 -0.2622 0
M  V30 31 H 2.8226 2.1998 0.5452 0
M  V30 32 H -0.1558 1.4828 0.2696 0
M  V30 33 H 0.188 3.5039 1.7151 0
M  V30 34 H 1.3666 2.637 2.6666 0
M  V30 35 H 2.1082 0.2049 1.8846 0
M  V30 36 H 1.2443 -0.5225 0.5326 0
M  V30 37 H -1.7805 -1.7857 -2.8759 0
M  V30 38 H -1.2708 -0.1121 -2.6382 0
M  V30 39 H -1.0878 -0.8846 -4.2298 0
M  V30 40 H 0.4445 -1.3424 2.7613 0
M  V30 41 H -0.831 -0.6112 1.7896 0
M  V30 42 H 2.8765 -3.7259 -0.435 0
M  V30 43 H 4.17 -3.0348 -1.4267 0
M  V30 44 H 3.2025 -4.3796 -2.0542 0
M  V30 45 H 0.5664 -4.7579 -1.772 0
M  V30 46 H -0.8661 -4.0052 -2.448 0
M  V30 47 H -0.9525 0.1949 4.1667 0
M  V30 48 H 0.7097 0.7216 4.0787 0
M  V30 49 H -1.1949 -4.5406 -0.0521 0
M  V30 50 H -1.2517 -2.7839 -0.2825 0
M  V30 51 H 0.1981 -3.5391 0.3947 0
M  V30 52 H -1.7166 4.2285 2.1916 0
M  V30 53 H -4.7532 0.4707 2.7973 0
M  V30 54 H -4.1098 4.5754 1.7686 0
M  V30 55 H -5.6987 2.6672 2.0729 0
M  V30 END ATOM
M  V30 BEGIN BOND
M  V30 1 2 1 2
M  V30 2 1 2 3
M  V30 3 1 2 4
M  V30 4 1 3 5
M  V30 5 1 4 6
M  V30 6 1 5 7
M  V30 7 1 6 8
M  V30 8 1 6 9
M  V30 9 1 7 10
M  V30 10 1 7 11
M  V30 11 2 8 12
M  V30 12 2 9 13
M  V30 13 1 9 14
M  V30 14 1 10 15
M  V30 15 1 11 16
M  V30 16 1 12 17
M  V30 17 1 13 18
M  V30 18 1 15 19
M  V30 19 1 15 20
M  V30 20 1 18 21
M  V30 21 2 19 22
M  V30 22 1 19 23
M  V30 23 1 22 24
M  V30 24 2 23 25
M  V30 25 2 24 26
M  V30 26 1 12 13
M  V30 27 1 16 20
M  V30 28 1 25 26
M  V30 29 1 3 27
M  V30 30 1 4 28
M  V30 31 1 4 29
M  V30 32 1 5 30
M  V30 33 1 5 31
M  V30 34 1 7 32
M  V30 35 1 10 33
M  V30 36 1 10 34
M  V30 37 1 11 35
M  V30 38 1 11 36
M  V30 39 1 14 37
M  V30 40 1 14 38
M  V30 41 1 14 39
M  V30 42 1 16 40
M  V30 43 1 16 41
M  V30 44 1 17 42
M  V30 45 1 17 43
M  V30 46 1 17 44
M  V30 47 1 18 45
M  V30 48 1 18 46
M  V30 49 1 20 47
M  V30 50 1 20 48
M  V30 51 1 21 49
M  V30 52 1 21 50
M  V30 53 1 21 51
M  V30 54 1 23 52
M  V30 55 1 24 53
M  V30 56 1 25 54
M  V30 57 1 26 55
M  V30 END BOND
M  V30 BEGIN COLLECTION
M  V30 MDLV30/STEABS ATOMS=(1 7)
M  V30 END COLLECTION
M  V30 END CTAB
M  END
>  <NO.>
3893

>  <Name>
tibolone

>  <SMILES>
CCc1c(C)nn(CC(=O)NC[C@H]2CCCN(c3ccccn3)C2)c1C

>  <logBB>


>  <Class>
1

>  <MW>
355.24

>  <nHBAcc>
4

>  <nHBDon>
1

>  <SLogP>
2.49

>  <TopoPSA>
63.05

>  <MMFF94 Energy>
-9.6898

$$$$
CCc1nccn1CC(=O)N1CCCC[C@@H]1CCn1cccn1
Actelion Java MolfileCreator 2.0

  0  0  0  0  0  0              0 V3000
M  V30 BEGIN CTAB
M  V30 COUNTS 48 50 0 0 0
M  V30 BEGIN ATOM
M  V30 1 O 1.7379 -0.1579 2.2914 0
M  V30 2 C 0.8432 -0.1004 1.4475 0
M  V30 3 N 0.7118 -1.0776 0.4528 0
M  V30 4 C -0.1832 1.0204 1.4479 0
M  V30 5 C -0.2682 -1.0378 -0.6562 0 CFG=2
M  V30 6 C 1.7255 -2.1382 0.3914 0
M  V30 7 N 0.0657 2.0488 2.4459 0
M  V30 8 C -0.8913 -2.4291 -0.8633 0
M  V30 9 C 0.3828 -0.4405 -1.9186 0
M  V30 10 C 1.1021 -3.5143 0.1877 0
M  V30 11 C -0.2944 2.0255 3.7751 0
M  V30 12 C 0.6128 3.2775 2.1836 0
M  V30 13 C 0.1571 -3.5276 -1.008 0
M  V30 14 C -0.6231 -0.1514 -3.0317 0
M  V30 15 N -0.0177 3.1828 4.3458 0
M  V30 16 C -0.9092 0.8557 4.4698 0
M  V30 17 C 0.5582 3.9562 3.3756 0
M  V30 18 N 0.0064 0.4983 -4.1672 0
M  V30 19 C -2.4253 0.9635 4.5042 0
M  V30 20 N 0.7231 -0.2355 -5.0372 0
M  V30 21 C -0.0352 1.8252 -4.4819 0
M  V30 22 C 1.1492 0.6618 -5.9297 0
M  V30 23 C 0.7059 1.9635 -5.6321 0
M  V30 24 H -1.18 0.6112 1.6393 0
M  V30 25 H -0.1862 1.5167 0.4717 0
M  V30 26 H -1.09 -0.3731 -0.3733 0
M  V30 27 H 2.3359 -2.1554 1.2999 0
M  V30 28 H 2.4008 -1.8981 -0.4376 0
M  V30 29 H -1.5649 -2.44 -1.7256 0
M  V30 30 H -1.5134 -2.6629 0.0113 0
M  V30 31 H 1.1714 -1.1019 -2.2969 0
M  V30 32 H 0.8908 0.4954 -1.6487 0
M  V30 33 H 0.5442 -3.7959 1.0896 0
M  V30 34 H 1.8897 -4.2631 0.0493 0
M  V30 35 H 0.9878 3.5586 1.21 0
M  V30 36 H 0.7238 -3.3923 -1.9361 0
M  V30 37 H -0.3371 -4.5032 -1.0755 0
M  V30 38 H -1.4212 0.5092 -2.6746 0
M  V30 39 H -1.0872 -1.0671 -3.4118 0
M  V30 40 H -0.5289 0.8161 5.4974 0
M  V30 41 H -0.6163 -0.0857 3.9943 0
M  V30 42 H 0.8986 4.9615 3.5864 0
M  V30 43 H -2.8545 0.1057 5.0314 0
M  V30 44 H -2.8465 0.9869 3.4937 0
M  V30 45 H -2.7457 1.8746 5.0212 0
M  V30 46 H -0.5725 2.5443 -3.88 0
M  V30 47 H 1.7631 0.3305 -6.7574 0
M  V30 48 H 0.8997 2.8742 -6.1804 0
M  V30 END ATOM
M  V30 BEGIN BOND
M  V30 1 2 1 2
M  V30 2 1 2 3
M  V30 3 1 2 4
M  V30 4 1 3 5
M  V30 5 1 3 6
M  V30 6 1 4 7
M  V30 7 1 5 8
M  V30 8 1 5 9
M  V30 9 1 6 10
M  V30 10 1 7 11
M  V30 11 1 7 12
M  V30 12 1 8 13
M  V30 13 1 9 14
M  V30 14 2 11 15
M  V30 15 1 11 16
M  V30 16 2 12 17
M  V30 17 1 14 18
M  V30 18 1 16 19
M  V30 19 1 18 20
M  V30 20 1 18 21
M  V30 21 2 20 22
M  V30 22 2 21 23
M  V30 23 1 10 13
M  V30 24 1 15 17
M  V30 25 1 22 23
M  V30 26 1 4 24
M  V30 27 1 4 25
M  V30 28 1 5 26
M  V30 29 1 6 27
M  V30 30 1 6 28
M  V30 31 1 8 29
M  V30 32 1 8 30
M  V30 33 1 9 31
M  V30 34 1 9 32
M  V30 35 1 10 33
M  V30 36 1 10 34
M  V30 37 1 12 35
M  V30 38 1 13 36
M  V30 39 1 13 37
M  V30 40 1 14 38
M  V30 41 1 14 39
M  V30 42 1 16 40
M  V30 43 1 16 41
M  V30 44 1 17 42
M  V30 45 1 19 43
M  V30 46 1 19 44
M  V30 47 1 19 45
M  V30 48 1 21 46
M  V30 49 1 22 47
M  V30 50 1 23 48
M  V30 END BOND
M  V30 BEGIN COLLECTION
M  V30 MDLV30/STEABS ATOMS=(1 5)
M  V30 END COLLECTION
M  V30 END CTAB
M  END
>  <NO.>
3894

>  <Name>
triazolam

>  <SMILES>
CCc1nccn1CC(=O)N1CCCC[C@@H]1CCn1cccn1

>  <logBB>


>  <Class>
1

>  <MW>
315.21

>  <nHBAcc>
3

>  <nHBDon>
0

>  <SLogP>
2.11

>  <TopoPSA>
55.95

>  <MMFF94 Energy>
12.606

$$$$
CCc1nccn1CCC(=O)N[C@@H](c1ccccn1)C1CC(O)C1
Actelion Java MolfileCreator 2.0

  0  0  0  0  0  0              0 V3000
M  V30 BEGIN CTAB
M  V30 COUNTS 48 50 0 0 0
M  V30 BEGIN ATOM
M  V30 1 O 1.1097 -2.776 0.0792 0
M  V30 2 C 0.4762 -1.8189 -0.3522 0
M  V30 3 N 0.7787 -0.5076 -0.0841 0
M  V30 4 C -0.7343 -2.0095 -1.2365 0
M  V30 5 C 1.9419 -0.1205 0.7049 0 CFG=1
M  V30 6 C -1.9017 -2.5724 -0.4382 0
M  V30 7 C 3.2512 -0.1002 -0.076 0
M  V30 8 C 1.7136 1.2772 1.3141 0
M  V30 9 N -2.4715 -1.6051 0.483 0
M  V30 10 N 4.3918 -0.2053 0.6575 0
M  V30 11 C 3.2854 0.0661 -1.4616 0
M  V30 12 C 1.3073 2.4808 0.4179 0
M  V30 13 C 0.4053 1.5181 2.1117 0
M  V30 14 C -3.3368 -0.5749 0.1836 0
M  V30 15 C -2.2128 -1.5577 1.8258 0
M  V30 16 C 5.5706 -0.1743 -0.0016 0
M  V30 17 C 4.5163 0.1015 -2.1128 0
M  V30 18 C -0.1467 2.3138 0.9093 0
M  V30 19 N -3.5236 0.182 1.2508 0
M  V30 20 C -3.9163 -0.3421 -1.1761 0
M  V30 21 C -2.8826 -0.4509 2.2823 0
M  V30 22 C 5.6831 -0.0238 -1.3716 0
M  V30 23 O -1.0096 1.5844 0.0109 0
M  V30 24 C -4.9468 0.7771 -1.1897 0
M  V30 25 H 0.1278 0.2213 -0.3776 0
M  V30 26 H -0.4499 -2.7176 -2.0237 0
M  V30 27 H -0.997 -1.0708 -1.7346 0
M  V30 28 H 2.0477 -0.8521 1.5163 0
M  V30 29 H -1.5993 -3.449 0.1468 0
M  V30 30 H -2.7046 -2.8939 -1.1101 0
M  V30 31 H 2.585 1.5246 1.9404 0
M  V30 32 H 2.371 0.1669 -2.036 0
M  V30 33 H 1.4563 2.359 -0.6582 0
M  V30 34 H 1.7624 3.4305 0.7233 0
M  V30 35 H -0.1486 0.621 2.395 0
M  V30 36 H 0.5428 2.1327 3.0095 0
M  V30 37 H -1.5805 -2.2796 2.3254 0
M  V30 38 H 6.4522 -0.2766 0.6244 0
M  V30 39 H 4.5613 0.2236 -3.1911 0
M  V30 40 H -0.6226 3.2598 1.1896 0
M  V30 41 H -4.3932 -1.2619 -1.5328 0
M  V30 42 H -3.114 -0.0899 -1.8773 0
M  V30 43 H -2.9191 -0.0655 3.2932 0
M  V30 44 H 6.656 -0.0054 -1.8488 0
M  V30 45 H -1.8429 1.4637 0.5192 0
M  V30 46 H -5.3521 0.9063 -2.1984 0
M  V30 47 H -4.5027 1.7291 -0.8793 0
M  V30 48 H -5.7807 0.5567 -0.5144 0
M  V30 END ATOM
M  V30 BEGIN BOND
M  V30 1 2 1 2
M  V30 2 1 2 3
M  V30 3 1 2 4
M  V30 4 1 3 5
M  V30 5 1 4 6
M  V30 6 1 5 7
M  V30 7 1 5 8
M  V30 8 1 6 9
M  V30 9 2 7 10
M  V30 10 1 7 11
M  V30 11 1 8 12
M  V30 12 1 8 13
M  V30 13 1 9 14
M  V30 14 1 9 15
M  V30 15 1 10 16
M  V30 16 2 11 17
M  V30 17 1 12 18
M  V30 18 2 14 19
M  V30 19 1 14 20
M  V30 20 2 15 21
M  V30 21 2 16 22
M  V30 22 1 18 23
M  V30 23 1 20 24
M  V30 24 1 13 18
M  V30 25 1 17 22
M  V30 26 1 19 21
M  V30 27 1 3 25
M  V30 28 1 4 26
M  V30 29 1 4 27
M  V30 30 1 5 28
M  V30 31 1 6 29
M  V30 32 1 6 30
M  V30 33 1 8 31
M  V30 34 1 11 32
M  V30 35 1 12 33
M  V30 36 1 12 34
M  V30 37 1 13 35
M  V30 38 1 13 36
M  V30 39 1 15 37
M  V30 40 1 16 38
M  V30 41 1 17 39
M  V30 42 1 18 40
M  V30 43 1 20 41
M  V30 44 1 20 42
M  V30 45 1 21 43
M  V30 46 1 22 44
M  V30 47 1 23 45
M  V30 48 1 24 46
M  V30 49 1 24 47
M  V30 50 1 24 48
M  V30 END BOND
M  V30 BEGIN COLLECTION
M  V30 MDLV30/STEABS ATOMS=(1 5)
M  V30 END COLLECTION
M  V30 END CTAB
M  END
>  <NO.>
3895

>  <Name>
haloperidol

>  <SMILES>
CCc1nccn1CCC(=O)N[C@@H](c1ccccn1)C1CC(O)C1

>  <logBB>


>  <Class>
1

>  <MW>
328.19

>  <nHBAcc>
4

>  <nHBDon>
2

>  <SLogP>
1.86

>  <TopoPSA>
80.04

>  <MMFF94 Energy>
-1.1177

$$$$
CN(C)C(=O)C[C@H](O)c1cc2n(n1)CCN(C(=O)CN1CCCCCC1)C2
Actelion Java MolfileCreator 2.0

  0  0  0  0  0  0              0 V3000
M  V30 BEGIN CTAB
M  V30 COUNTS 58 60 0 0 0
M  V30 BEGIN ATOM
M  V30 1 O -1.502 1.8976 2.8475 0
M  V30 2 C -1.592 1.2407 1.8081 0
M  V30 3 N -0.456 0.6871 1.2158 0
M  V30 4 C -2.9425 0.9708 1.1052 0
M  V30 5 C -0.4776 -0.1611 0.0224 0
M  V30 6 C 0.8654 1.0281 1.7568 0
M  V30 7 N -4.0275 1.8713 1.5511 0
M  V30 8 C 0.6247 -1.156 0.0532 0
M  V30 9 C 1.6391 -0.2254 2.1315 0
M  V30 10 C -3.755 3.276 1.2149 0
M  V30 11 C -5.3483 1.3682 1.1807 0
M  V30 12 N 1.5854 -1.1582 1.0237 0
M  V30 13 C 0.9499 -2.2033 -0.7794 0
M  V30 14 C -4.9737 4.2049 1.1319 0
M  V30 15 C -5.7228 1.431 -0.3012 0
M  V30 16 N 2.5063 -2.1255 0.8861 0
M  V30 17 C 2.1285 -2.7716 -0.2296 0
M  V30 18 C -5.9214 3.9808 -0.0569 0
M  V30 19 C -5.5912 2.8002 -0.9665 0
M  V30 20 C 2.9139 -3.951 -0.7448 0 CFG=1
M  V30 21 O 2.4481 -4.4091 -2.0245 0
M  V30 22 C 4.4257 -3.7047 -0.794 0
M  V30 23 C 4.7952 -2.6129 -1.7842 0
M  V30 24 O 4.0066 -2.2852 -2.6762 0
M  V30 25 N 6.0617 -2.0518 -1.6748 0
M  V30 26 C 7.0708 -2.4633 -0.7105 0
M  V30 27 C 6.4146 -0.9284 -2.5275 0
M  V30 28 H -2.8187 1.0549 0.02 0
M  V30 29 H -3.1996 -0.0676 1.3482 0
M  V30 30 H -1.4334 -0.685 -0.0617 0
M  V30 31 H -0.3676 0.4974 -0.8462 0
M  V30 32 H 1.3926 1.5883 0.9738 0
M  V30 33 H 0.7912 1.6882 2.6264 0
M  V30 34 H 2.6871 0.0047 2.3461 0
M  V30 35 H 1.1893 -0.7331 2.9915 0
M  V30 36 H -3.0989 3.6845 1.9928 0
M  V30 37 H -3.1904 3.3588 0.2777 0
M  V30 38 H -5.4425 0.3258 1.5139 0
M  V30 39 H -6.111 1.8928 1.7701 0
M  V30 40 H 0.4241 -2.5243 -1.6685 0
M  V30 41 H -5.5439 4.1523 2.0685 0
M  V30 42 H -4.6084 5.2394 1.0817 0
M  V30 43 H -5.1334 0.7022 -0.8709 0
M  V30 44 H -6.7674 1.1049 -0.3903 0
M  V30 45 H -6.9483 3.8798 0.3163 0
M  V30 46 H -5.9205 4.8915 -0.6698 0
M  V30 47 H -4.5817 2.9169 -1.3777 0
M  V30 48 H -6.2599 2.825 -1.8364 0
M  V30 49 H 2.7323 -4.7823 -0.0521 0
M  V30 50 H 2.6767 -3.6879 -2.6499 0
M  V30 51 H 4.7863 -3.4405 0.2055 0
M  V30 52 H 4.9347 -4.6183 -1.1238 0
M  V30 53 H 6.9016 -3.4775 -0.345 0
M  V30 54 H 8.0569 -2.4323 -1.1838 0
M  V30 55 H 7.0485 -1.7653 0.1313 0
M  V30 56 H 5.5961 -0.6332 -3.1887 0
M  V30 57 H 7.2782 -1.2083 -3.1379 0
M  V30 58 H 6.6778 -0.0762 -1.8935 0
M  V30 END ATOM
M  V30 BEGIN BOND
M  V30 1 2 1 2
M  V30 2 1 2 3
M  V30 3 1 2 4
M  V30 4 1 3 5
M  V30 5 1 3 6
M  V30 6 1 4 7
M  V30 7 1 5 8
M  V30 8 1 6 9
M  V30 9 1 7 10
M  V30 10 1 7 11
M  V30 11 1 8 12
M  V30 12 2 8 13
M  V30 13 1 10 14
M  V30 14 1 11 15
M  V30 15 1 12 16
M  V30 16 1 13 17
M  V30 17 1 14 18
M  V30 18 1 15 19
M  V30 19 1 17 20
M  V30 20 1 20 21
M  V30 21 1 20 22
M  V30 22 1 22 23
M  V30 23 2 23 24
M  V30 24 1 23 25
M  V30 25 1 25 26
M  V30 26 1 25 27
M  V30 27 1 9 12
M  V30 28 2 16 17
M  V30 29 1 18 19
M  V30 30 1 4 28
M  V30 31 1 4 29
M  V30 32 1 5 30
M  V30 33 1 5 31
M  V30 34 1 6 32
M  V30 35 1 6 33
M  V30 36 1 9 34
M  V30 37 1 9 35
M  V30 38 1 10 36
M  V30 39 1 10 37
M  V30 40 1 11 38
M  V30 41 1 11 39
M  V30 42 1 13 40
M  V30 43 1 14 41
M  V30 44 1 14 42
M  V30 45 1 15 43
M  V30 46 1 15 44
M  V30 47 1 18 45
M  V30 48 1 18 46
M  V30 49 1 19 47
M  V30 50 1 19 48
M  V30 51 1 20 49
M  V30 52 1 21 50
M  V30 53 1 22 51
M  V30 54 1 22 52
M  V30 55 1 26 53
M  V30 56 1 26 54
M  V30 57 1 26 55
M  V30 58 1 27 56
M  V30 59 1 27 57
M  V30 60 1 27 58
M  V30 END BOND
M  V30 BEGIN COLLECTION
M  V30 MDLV30/STEABS ATOMS=(1 20)
M  V30 END COLLECTION
M  V30 END CTAB
M  END
>  <NO.>
3896

>  <Name>
lidocaine

>  <SMILES>
CN(C)C(=O)C[C@H](O)c1cc2n(n1)CCN(C(=O)CN1CCCCCC1)C2

>  <logBB>


>  <Class>
1

>  <MW>
377.24

>  <nHBAcc>
5

>  <nHBDon>
1

>  <SLogP>
0.61

>  <TopoPSA>
81.91

>  <MMFF94 Energy>
32.875

$$$$
CN(C)S(=O)(=O)c1ccc2c(c1)CCN2C(=O)CSCc1ccc([N+](=O)[O-])cc1
Actelion Java MolfileCreator 2.0

  0  0  0  0  0  0              0 V3000
M  V30 BEGIN CTAB
M  V30 COUNTS 50 52 0 0 0
M  V30 BEGIN ATOM
M  V30 1 S -4.5981 3.1184 -1.3942 0
M  V30 2 O -5.124 2.8595 -2.7184 0
M  V30 3 O -4.633 4.4484 -0.8241 0
M  V30 4 N -5.3462 2.0458 -0.306 0
M  V30 5 C -2.8971 2.5809 -1.3878 0
M  V30 6 C -5.4717 0.6422 -0.7314 0
M  V30 7 C -5.0088 2.1944 1.1197 0
M  V30 8 C -2.4577 1.675 -2.3587 0
M  V30 9 C -2.0036 3.1245 -0.4496 0
M  V30 10 C -1.1203 1.3045 -2.3443 0
M  V30 11 C -0.6604 2.7321 -0.4477 0
M  V30 12 C -0.2304 1.8169 -1.3969 0
M  V30 13 C -0.4425 0.3562 -3.2774 0
M  V30 14 N 1.0599 1.2864 -1.604 0
M  V30 15 C 1.0128 0.4262 -2.8017 0
M  V30 16 C 2.176 1.5636 -0.8266 0
M  V30 17 O 2.1515 2.2887 0.1704 0
M  V30 18 C 3.4849 0.8978 -1.2431 0
M  V30 19 S 4.1826 -0.147 0.0799 0
M  V30 20 C 2.7171 -1.1369 0.508 0
M  V30 21 C 3.0633 -2.2159 1.5062 0
M  V30 22 C 3.4601 -3.4904 1.0713 0
M  V30 23 C 3.0214 -1.9442 2.8837 0
M  V30 24 C 3.7949 -4.4839 1.9949 0
M  V30 25 C 3.3543 -2.9311 3.8147 0
M  V30 26 C 3.7389 -4.1999 3.3653 0
M  V30 27 N 4.0886 -5.2417 4.3386 0 CHG=1
M  V30 28 O 4.0179 -4.9552 5.5425 0
M  V30 29 O 4.4284 -6.3502 3.8998 0 CHG=-1
M  V30 30 H -5.8279 0.5707 -1.7626 0
M  V30 31 H -4.5178 0.1158 -0.6371 0
M  V30 32 H -6.2114 0.1327 -0.105 0
M  V30 33 H -5.0054 3.2456 1.4205 0
M  V30 34 H -4.0362 1.7474 1.343 0
M  V30 35 H -5.7678 1.6936 1.7299 0
M  V30 36 H -3.1379 1.28 -3.1083 0
M  V30 37 H -2.3444 3.8601 0.2769 0
M  V30 38 H 0.0147 3.1639 0.284 0
M  V30 39 H -0.8446 -0.6555 -3.1648 0
M  V30 40 H -0.5347 0.6756 -4.3198 0
M  V30 41 H 1.395 -0.5698 -2.5544 0
M  V30 42 H 1.6615 0.8637 -3.5695 0
M  V30 43 H 3.4009 0.2895 -2.1429 0
M  V30 44 H 4.2023 1.6947 -1.4658 0
M  V30 45 H 2.3082 -1.5952 -0.399 0
M  V30 46 H 1.9375 -0.4947 0.9314 0
M  V30 47 H 3.52 -3.7136 0.0077 0
M  V30 48 H 2.7377 -0.9534 3.2373 0
M  V30 49 H 4.101 -5.463 1.6324 0
M  V30 50 H 3.3155 -2.6929 4.8757 0
M  V30 END ATOM
M  V30 BEGIN BOND
M  V30 1 2 1 2
M  V30 2 2 1 3
M  V30 3 1 1 4
M  V30 4 1 1 5
M  V30 5 1 4 6
M  V30 6 1 4 7
M  V30 7 2 5 8
M  V30 8 1 5 9
M  V30 9 1 8 10
M  V30 10 2 9 11
M  V30 11 2 10 12
M  V30 12 1 10 13
M  V30 13 1 12 14
M  V30 14 1 13 15
M  V30 15 1 14 16
M  V30 16 2 16 17
M  V30 17 1 16 18
M  V30 18 1 18 19
M  V30 19 1 19 20
M  V30 20 1 20 21
M  V30 21 2 21 22
M  V30 22 1 21 23
M  V30 23 1 22 24
M  V30 24 2 23 25
M  V30 25 2 24 26
M  V30 26 1 26 27
M  V30 27 2 27 28
M  V30 28 1 27 29
M  V30 29 1 11 12
M  V30 30 1 14 15
M  V30 31 1 25 26
M  V30 32 1 6 30
M  V30 33 1 6 31
M  V30 34 1 6 32
M  V30 35 1 7 33
M  V30 36 1 7 34
M  V30 37 1 7 35
M  V30 38 1 8 36
M  V30 39 1 9 37
M  V30 40 1 11 38
M  V30 41 1 13 39
M  V30 42 1 13 40
M  V30 43 1 15 41
M  V30 44 1 15 42
M  V30 45 1 18 43
M  V30 46 1 18 44
M  V30 47 1 20 45
M  V30 48 1 20 46
M  V30 49 1 22 47
M  V30 50 1 23 48
M  V30 51 1 24 49
M  V30 52 1 25 50
M  V30 END BOND
M  V30 END CTAB
M  END
>  <NO.>
3897

>  <Name>
aciclovir

>  <SMILES>
CN(C)S(=O)(=O)c1ccc2c(c1)CCN2C(=O)CSCc1ccc([N+](=O)[O-])cc1

>  <logBB>


>  <Class>
1

>  <MW>
435.09

>  <nHBAcc>
6

>  <nHBDon>
0

>  <SLogP>
2.67

>  <TopoPSA>
100.83

>  <MMFF94 Energy>
66.075

$$$$
CN(C)c1nsc(N[C@@H](c2cnc3ccccc3c2)C2CC(O)C2)n1
Actelion Java MolfileCreator 2.0

  0  0  0  0  0  0              0 V3000
M  V30 BEGIN CTAB
M  V30 COUNTS 46 49 0 0 0
M  V30 BEGIN ATOM
M  V30 1 S -2.259 1.0483 -0.4837 0
M  V30 2 N -3.5176 0.8326 -1.5444 0
M  V30 3 C -1.0915 0.3616 -1.5503 0
M  V30 4 C -3.0182 0.2554 -2.6399 0
M  V30 5 N -1.6556 -0.0226 -2.671 0
M  V30 6 N 0.2333 0.2095 -1.3277 0
M  V30 7 N -3.7473 -0.086 -3.7354 0
M  V30 8 C 0.9338 0.6383 -0.1335 0 CFG=1
M  V30 9 C -3.1396 -0.8494 -4.8072 0
M  V30 10 C -5.192 0.0381 -3.7077 0
M  V30 11 C 0.7059 -0.3215 1.0139 0
M  V30 12 C 2.4406 0.7202 -0.4114 0
M  V30 13 C 0.8034 -1.6992 0.863 0
M  V30 14 C 0.4169 0.1491 2.299 0
M  V30 15 C 2.8898 1.8508 -1.3756 0
M  V30 16 C 3.3294 1.4056 0.6624 0
M  V30 17 N 0.6466 -2.5946 1.8657 0
M  V30 18 C 0.2362 -0.7483 3.3613 0
M  V30 19 C 4.1454 2.0278 -0.4924 0
M  V30 20 C 0.3627 -2.1265 3.0927 0
M  V30 21 C -0.0607 -0.3047 4.6625 0
M  V30 22 O 4.5819 3.3817 -0.2944 0
M  V30 23 C 0.1868 -3.0186 4.1421 0
M  V30 24 C -0.2328 -1.2221 5.6972 0
M  V30 25 C -0.1088 -2.5819 5.4371 0
M  V30 26 H 0.7701 -0.2194 -2.0725 0
M  V30 27 H 0.581 1.6389 0.1503 0
M  V30 28 H -2.2128 -0.3799 -5.1562 0
M  V30 29 H -2.9163 -1.8693 -4.4754 0
M  V30 30 H -3.8021 -0.92 -5.6769 0
M  V30 31 H -5.5049 1.0175 -3.3275 0
M  V30 32 H -5.6324 -0.7418 -3.077 0
M  V30 33 H -5.6216 -0.0594 -4.7107 0
M  V30 34 H 2.8597 -0.2503 -0.7205 0
M  V30 35 H 1.0189 -2.147 -0.104 0
M  V30 36 H 0.3301 1.219 2.4778 0
M  V30 37 H 2.2338 2.7294 -1.3935 0
M  V30 38 H 3.081 1.5343 -2.4048 0
M  V30 39 H 2.8132 2.1457 1.2855 0
M  V30 40 H 3.8835 0.7226 1.3125 0
M  V30 41 H 4.9807 1.3939 -0.816 0
M  V30 42 H -0.1618 0.7569 4.8754 0
M  V30 43 H 5.3142 3.3216 0.3431 0
M  V30 44 H 0.2806 -4.0838 3.9445 0
M  V30 45 H -0.4644 -0.8767 6.7016 0
M  V30 46 H -0.2424 -3.3073 6.2355 0
M  V30 END ATOM
M  V30 BEGIN BOND
M  V30 1 1 1 2
M  V30 2 1 1 3
M  V30 3 2 2 4
M  V30 4 2 3 5
M  V30 5 1 3 6
M  V30 6 1 4 7
M  V30 7 1 6 8
M  V30 8 1 7 9
M  V30 9 1 7 10
M  V30 10 1 8 11
M  V30 11 1 8 12
M  V30 12 1 11 13
M  V30 13 2 11 14
M  V30 14 1 12 15
M  V30 15 1 12 16
M  V30 16 2 13 17
M  V30 17 1 14 18
M  V30 18 1 15 19
M  V30 19 1 17 20
M  V30 20 2 18 21
M  V30 21 1 19 22
M  V30 22 2 20 23
M  V30 23 1 21 24
M  V30 24 1 23 25
M  V30 25 1 4 5
M  V30 26 1 16 19
M  V30 27 1 18 20
M  V30 28 2 24 25
M  V30 29 1 6 26
M  V30 30 1 8 27
M  V30 31 1 9 28
M  V30 32 1 9 29
M  V30 33 1 9 30
M  V30 34 1 10 31
M  V30 35 1 10 32
M  V30 36 1 10 33
M  V30 37 1 12 34
M  V30 38 1 13 35
M  V30 39 1 14 36
M  V30 40 1 15 37
M  V30 41 1 15 38
M  V30 42 1 16 39
M  V30 43 1 16 40
M  V30 44 1 19 41
M  V30 45 1 21 42
M  V30 46 1 22 43
M  V30 47 1 23 44
M  V30 48 1 24 45
M  V30 49 1 25 46
M  V30 END BOND
M  V30 BEGIN COLLECTION
M  V30 MDLV30/STEABS ATOMS=(1 8)
M  V30 END COLLECTION
M  V30 END CTAB
M  END
>  <NO.>
3898

>  <Name>
chlordiazepoxide

>  <SMILES>
CN(C)c1nsc(N[C@@H](c2cnc3ccccc3c2)C2CC(O)C2)n1

>  <logBB>


>  <Class>
1

>  <MW>
355.15

>  <nHBAcc>
7

>  <nHBDon>
2

>  <SLogP>
3.08

>  <TopoPSA>
74.17

>  <MMFF94 Energy>
-23.506

$$$$
CN(CCC[C@H]1CCCO1)C(=O)Cc1cccnc1
Actelion Java MolfileCreator 2.0

  0  0  0  0  0  0              0 V3000
M  V30 BEGIN CTAB
M  V30 COUNTS 41 42 0 0 0
M  V30 BEGIN ATOM
M  V30 1 O 1.8912 0.7876 -1.024 0
M  V30 2 C 0.8467 1.4386 -1.0685 0
M  V30 3 N 0.16 1.7999 0.0931 0
M  V30 4 C 0.2429 1.8938 -2.3929 0
M  V30 5 C 0.6558 1.2966 1.3766 0
M  V30 6 C -1.0964 2.5371 0.1199 0
M  V30 7 C 0.9445 1.3654 -3.6163 0
M  V30 8 C -0.0501 0.0042 1.7948 0
M  V30 9 C 2.1216 1.9496 -4.076 0
M  V30 10 C 0.4538 0.2657 -4.3251 0
M  V30 11 C 0.4833 -0.5055 3.1373 0
M  V30 12 N 2.7923 1.5432 -5.1779 0
M  V30 13 C 1.1332 -0.1858 -5.4527 0
M  V30 14 C -0.1474 -1.8166 3.6184 0 CFG=2
M  V30 15 C 2.2847 0.4807 -5.8367 0
M  V30 16 O 0.0883 -2.8521 2.6499 0
M  V30 17 C -1.6524 -1.7609 3.8619 0
M  V30 18 C -1.1414 -3.5478 2.4247 0
M  V30 19 C -2.2338 -2.5458 2.7108 0
M  V30 20 H 0.2612 2.99 -2.4262 0
M  V30 21 H -0.8082 1.5828 -2.4266 0
M  V30 22 H 1.7351 1.1186 1.311 0
M  V30 23 H 0.5107 2.0787 2.131 0
M  V30 24 H -1.9162 1.8253 0.2508 0
M  V30 25 H -1.0856 3.2413 0.957 0
M  V30 26 H -1.2649 3.1031 -0.7969 0
M  V30 27 H 0.0904 -0.7564 1.0178 0
M  V30 28 H -1.1272 0.1891 1.8683 0
M  V30 29 H 2.5745 2.7901 -3.5565 0
M  V30 30 H -0.4483 -0.2467 -4.0026 0
M  V30 31 H 0.3409 0.2647 3.905 0
M  V30 32 H 1.5645 -0.6637 3.0348 0
M  V30 33 H 0.776 -1.0399 -6.0163 0
M  V30 34 H 0.3577 -2.1132 4.5456 0
M  V30 35 H 2.8492 0.1652 -6.7091 0
M  V30 36 H -2.0545 -0.7469 3.9444 0
M  V30 37 H -1.8839 -2.2752 4.8031 0
M  V30 38 H -1.1862 -4.3969 3.1154 0
M  V30 39 H -1.1711 -3.9249 1.3991 0
M  V30 40 H -2.3758 -1.8895 1.8453 0
M  V30 41 H -3.1935 -3.0147 2.9435 0
M  V30 END ATOM
M  V30 BEGIN BOND
M  V30 1 2 1 2
M  V30 2 1 2 3
M  V30 3 1 2 4
M  V30 4 1 3 5
M  V30 5 1 3 6
M  V30 6 1 4 7
M  V30 7 1 5 8
M  V30 8 2 7 9
M  V30 9 1 7 10
M  V30 10 1 8 11
M  V30 11 1 9 12
M  V30 12 2 10 13
M  V30 13 1 11 14
M  V30 14 2 12 15
M  V30 15 1 14 16
M  V30 16 1 14 17
M  V30 17 1 16 18
M  V30 18 1 17 19
M  V30 19 1 13 15
M  V30 20 1 18 19
M  V30 21 1 4 20
M  V30 22 1 4 21
M  V30 23 1 5 22
M  V30 24 1 5 23
M  V30 25 1 6 24
M  V30 26 1 6 25
M  V30 27 1 6 26
M  V30 28 1 8 27
M  V30 29 1 8 28
M  V30 30 1 9 29
M  V30 31 1 10 30
M  V30 32 1 11 31
M  V30 33 1 11 32
M  V30 34 1 13 33
M  V30 35 1 14 34
M  V30 36 1 15 35
M  V30 37 1 17 36
M  V30 38 1 17 37
M  V30 39 1 18 38
M  V30 40 1 18 39
M  V30 41 1 19 40
M  V30 42 1 19 41
M  V30 END BOND
M  V30 BEGIN COLLECTION
M  V30 MDLV30/STEABS ATOMS=(1 14)
M  V30 END COLLECTION
M  V30 END CTAB
M  END
>  <NO.>
3899

>  <Name>
flumazenil

>  <SMILES>
CN(CCC[C@H]1CCCO1)C(=O)Cc1cccnc1

>  <logBB>


>  <Class>
1

>  <MW>
262.17

>  <nHBAcc>
3

>  <nHBDon>
0

>  <SLogP>
2.04

>  <TopoPSA>
42.43

>  <MMFF94 Energy>
32.858

$$$$
CN(Cc1nc(-c2ccccc2)no1)C(=O)CN(c1ccc(Cl)cc1)S(C)(=O)=O
Actelion Java MolfileCreator 2.0

  0  0  0  0  0  0              0 V3000
M  V30 BEGIN CTAB
M  V30 COUNTS 48 50 0 0 0
M  V30 BEGIN ATOM
M  V30 1 Cl 3.9238 2.0422 -0.6531 0
M  V30 2 C 2.6814 0.9415 -1.1043 0
M  V30 3 C 2.3022 -0.074 -0.2278 0
M  V30 4 C 2.0582 1.0736 -2.3443 0
M  V30 5 C 1.2977 -0.9709 -0.5991 0
M  V30 6 C 1.0566 0.1744 -2.7172 0
M  V30 7 C 0.6965 -0.8654 -1.8553 0
M  V30 8 N -0.3762 -1.7608 -2.1735 0
M  V30 9 S -0.2354 -2.6482 -3.6085 0
M  V30 10 C -1.7397 -1.3131 -1.792 0
M  V30 11 O -1.1023 -2.0335 -4.5942 0
M  V30 12 O 1.1651 -2.8794 -3.8956 0
M  V30 13 C -0.9356 -4.2148 -3.135 0
M  V30 14 C -2.1229 -1.9688 -0.4637 0
M  V30 15 O -1.926 -3.1787 -0.3045 0
M  V30 16 N -2.7033 -1.1939 0.5333 0
M  V30 17 C -3.0522 0.2247 0.4024 0
M  V30 18 C -2.9543 -1.7964 1.8361 0
M  V30 19 C -1.8919 1.0954 0.7265 0
M  V30 20 O -1.6809 2.1555 -0.1021 0
M  V30 21 N -1.0164 1.0178 1.7023 0
M  V30 22 N -0.5589 2.8189 0.3815 0
M  V30 23 C -0.1938 2.0985 1.456 0
M  V30 24 C 0.9606 2.4025 2.2942 0
M  V30 25 C 1.7734 3.5152 2.0331 0
M  V30 26 C 1.2847 1.571 3.377 0
M  V30 27 C 2.8862 3.7867 2.8335 0
M  V30 28 C 2.3967 1.844 4.1774 0
M  V30 29 C 3.1968 2.9512 3.9043 0
M  V30 30 H 2.7801 -0.1702 0.7433 0
M  V30 31 H 2.3477 1.8698 -3.0246 0
M  V30 32 H 1.0008 -1.76 0.0869 0
M  V30 33 H 0.5742 0.2863 -3.6849 0
M  V30 34 H -2.4953 -1.6285 -2.5189 0
M  V30 35 H -1.771 -0.2236 -1.764 0
M  V30 36 H -0.3781 -4.6096 -2.2837 0
M  V30 37 H -0.8376 -4.8937 -3.9851 0
M  V30 38 H -1.9914 -4.0835 -2.8949 0
M  V30 39 H -3.4134 0.4151 -0.6126 0
M  V30 40 H -3.883 0.4486 1.081 0
M  V30 41 H -2.418 -1.2308 2.6033 0
M  V30 42 H -4.0286 -1.754 2.0388 0
M  V30 43 H -2.6304 -2.8388 1.8847 0
M  V30 44 H 1.5556 4.1767 1.1967 0
M  V30 45 H 0.6734 0.6996 3.6033 0
M  V30 46 H 3.5131 4.6475 2.6148 0
M  V30 47 H 2.6388 1.191 5.012 0
M  V30 48 H 4.0648 3.1623 4.5238 0
M  V30 END ATOM
M  V30 BEGIN BOND
M  V30 1 1 1 2
M  V30 2 2 2 3
M  V30 3 1 2 4
M  V30 4 1 3 5
M  V30 5 2 4 6
M  V30 6 2 5 7
M  V30 7 1 7 8
M  V30 8 1 8 9
M  V30 9 1 8 10
M  V30 10 2 9 11
M  V30 11 2 9 12
M  V30 12 1 9 13
M  V30 13 1 10 14
M  V30 14 2 14 15
M  V30 15 1 14 16
M  V30 16 1 16 17
M  V30 17 1 16 18
M  V30 18 1 17 19
M  V30 19 1 19 20
M  V30 20 2 19 21
M  V30 21 1 20 22
M  V30 22 1 21 23
M  V30 23 1 23 24
M  V30 24 2 24 25
M  V30 25 1 24 26
M  V30 26 1 25 27
M  V30 27 2 26 28
M  V30 28 2 27 29
M  V30 29 1 6 7
M  V30 30 2 22 23
M  V30 31 1 28 29
M  V30 32 1 3 30
M  V30 33 1 4 31
M  V30 34 1 5 32
M  V30 35 1 6 33
M  V30 36 1 10 34
M  V30 37 1 10 35
M  V30 38 1 13 36
M  V30 39 1 13 37
M  V30 40 1 13 38
M  V30 41 1 17 39
M  V30 42 1 17 40
M  V30 43 1 18 41
M  V30 44 1 18 42
M  V30 45 1 18 43
M  V30 46 1 25 44
M  V30 47 1 26 45
M  V30 48 1 27 46
M  V30 49 1 28 47
M  V30 50 1 29 48
M  V30 END BOND
M  V30 END CTAB
M  END
>  <NO.>
3900

>  <Name>
nafcillin

>  <SMILES>
CN(Cc1nc(-c2ccccc2)no1)C(=O)CN(c1ccc(Cl)cc1)S(C)(=O)=O

>  <logBB>


>  <Class>
-1

>  <MW>
434.08

>  <nHBAcc>
6

>  <nHBDon>
0

>  <SLogP>
2.81

>  <TopoPSA>
96.61

>  <MMFF94 Energy>
30.85

$$$$
CN(Cc1nc(-c2cccs2)no1)C(=O)CSCc1ccc([N+](=O)[O-])cc1
Actelion Java MolfileCreator 2.0

  0  0  0  0  0  0              0 V3000
M  V30 BEGIN CTAB
M  V30 COUNTS 43 45 0 0 0
M  V30 BEGIN ATOM
M  V30 1 S 1.4049 2.563 5.2966 0
M  V30 2 C -0.0481 1.7646 4.8973 0
M  V30 3 C 0.5735 3.7364 6.2258 0
M  V30 4 C -0.1361 0.4858 3.9989 0
M  V30 5 C -1.1483 2.3771 5.4591 0
M  V30 6 C -0.7874 3.5215 6.2303 0
M  V30 7 N 0.9343 -0.1092 3.4551 0
M  V30 8 N -1.3373 -0.117 3.7012 0
M  V30 9 O 0.3892 -1.1828 2.7523 0
M  V30 10 C -0.9591 -1.125 2.9449 0
M  V30 11 C -1.7817 -2.1642 2.2712 0
M  V30 12 N -2.3513 -1.6302 1.0291 0
M  V30 13 C -1.6544 -1.8575 -0.1563 0
M  V30 14 C -3.514 -0.7596 1.1569 0
M  V30 15 O -0.6613 -2.5857 -0.1694 0
M  V30 16 C -2.1784 -1.1507 -1.4056 0
M  V30 17 S -1.1021 -1.3144 -2.8621 0
M  V30 18 C 0.3626 -0.4192 -2.2515 0
M  V30 19 C 1.4206 -0.3215 -3.3253 0
M  V30 20 C 2.3732 -1.343 -3.4716 0
M  V30 21 C 1.4466 0.7712 -4.206 0
M  V30 22 C 3.346 -1.2713 -4.4712 0
M  V30 23 C 2.4157 0.8519 -5.2089 0
M  V30 24 C 3.3636 -0.1711 -5.3367 0
M  V30 25 N 4.3821 -0.0905 -6.3905 0 CHG=1
M  V30 26 O 5.2031 -1.0154 -6.4733 0
M  V30 27 O 4.3644 0.9 -7.1359 0 CHG=-1
M  V30 28 H 1.1231 4.5242 6.7228 0
M  V30 29 H -2.1632 2.0216 5.3258 0
M  V30 30 H -1.4893 4.1532 6.7614 0
M  V30 31 H -2.6023 -2.4808 2.924 0
M  V30 32 H -1.1735 -3.0521 2.0689 0
M  V30 33 H -4.1984 -1.1712 1.9043 0
M  V30 34 H -3.1779 0.2326 1.4704 0
M  V30 35 H -4.0549 -0.667 0.2137 0
M  V30 36 H -3.1472 -1.589 -1.6643 0
M  V30 37 H -2.3168 -0.0848 -1.2017 0
M  V30 38 H 0.7868 -0.9198 -1.3761 0
M  V30 39 H 0.0655 0.5872 -1.936 0
M  V30 40 H 2.3533 -2.2063 -2.8071 0
M  V30 41 H 0.7049 1.5631 -4.1189 0
M  V30 42 H 4.071 -2.0771 -4.5626 0
M  V30 43 H 2.414 1.7088 -5.8792 0
M  V30 END ATOM
M  V30 BEGIN BOND
M  V30 1 1 1 2
M  V30 2 1 1 3
M  V30 3 1 2 4
M  V30 4 2 2 5
M  V30 5 2 3 6
M  V30 6 2 4 7
M  V30 7 1 4 8
M  V30 8 1 7 9
M  V30 9 2 8 10
M  V30 10 1 10 11
M  V30 11 1 11 12
M  V30 12 1 12 13
M  V30 13 1 12 14
M  V30 14 2 13 15
M  V30 15 1 13 16
M  V30 16 1 16 17
M  V30 17 1 17 18
M  V30 18 1 18 19
M  V30 19 2 19 20
M  V30 20 1 19 21
M  V30 21 1 20 22
M  V30 22 2 21 23
M  V30 23 2 22 24
M  V30 24 1 24 25
M  V30 25 2 25 26
M  V30 26 1 25 27
M  V30 27 1 5 6
M  V30 28 1 9 10
M  V30 29 1 23 24
M  V30 30 1 3 28
M  V30 31 1 5 29
M  V30 32 1 6 30
M  V30 33 1 11 31
M  V30 34 1 11 32
M  V30 35 1 14 33
M  V30 36 1 14 34
M  V30 37 1 14 35
M  V30 38 1 16 36
M  V30 39 1 16 37
M  V30 40 1 18 38
M  V30 41 1 18 39
M  V30 42 1 20 40
M  V30 43 1 21 41
M  V30 44 1 22 42
M  V30 45 1 23 43
M  V30 END BOND
M  V30 END CTAB
M  END
>  <NO.>
3901

>  <Name>
azithromycin

>  <SMILES>
CN(Cc1nc(-c2cccs2)no1)C(=O)CSCc1ccc([N+](=O)[O-])cc1

>  <logBB>


>  <Class>
-1

>  <MW>
404.06

>  <nHBAcc>
8

>  <nHBDon>
0

>  <SLogP>
3.6

>  <TopoPSA>
102.37

>  <MMFF94 Energy>
94.645

$$$$
CN1CCC(NC(=O)c2ccc([C@H]3SCC(=O)N3Cc3ccccc3)cc2)CC1
Actelion Java MolfileCreator 2.0

  0  0  0  0  0  0              0 V3000
M  V30 BEGIN CTAB
M  V30 COUNTS 56 59 0 0 0
M  V30 BEGIN ATOM
M  V30 1 S -3.464 1.61 2.8994 0
M  V30 2 C -1.6751 1.8585 2.7703 0 CFG=1
M  V30 3 C -3.4311 1.3565 4.6819 0
M  V30 4 N -1.136 1.818 4.1123 0
M  V30 5 C -1.0489 0.8476 1.8278 0
M  V30 6 C -2.0147 1.5847 5.1499 0
M  V30 7 C 0.2718 2.1049 4.3555 0
M  V30 8 C -0.6474 1.2499 0.5422 0
M  V30 9 C -0.8609 -0.495 2.1999 0
M  V30 10 O -1.6989 1.5539 6.3348 0
M  V30 11 C 0.6428 3.5174 3.9752 0
M  V30 12 C -0.0703 0.338 -0.3473 0
M  V30 13 C -0.2806 -1.4062 1.3141 0
M  V30 14 C 1.4568 3.7681 2.8612 0
M  V30 15 C 0.16 4.6009 4.7236 0
M  V30 16 C 0.1046 -0.9966 0.0338 0
M  V30 17 C 1.7793 5.0779 2.5032 0
M  V30 18 C 0.4837 5.9092 4.3632 0
M  V30 19 C 0.7192 -2.0011 -0.8753 0
M  V30 20 C 1.2922 6.1472 3.2532 0
M  V30 21 O 1.358 -2.9384 -0.412 0
M  V30 22 N 0.492 -1.8223 -2.2243 0
M  V30 23 C 1.0176 -2.7495 -3.219 0
M  V30 24 C 0.084 -3.9498 -3.3919 0
M  V30 25 C 1.2328 -2.0384 -4.5555 0
M  V30 26 C 0.5818 -4.8687 -4.5075 0
M  V30 27 C 1.6903 -3.0253 -5.6297 0
M  V30 28 N 0.8072 -4.1862 -5.7882 0
M  V30 29 C -0.4415 -3.8516 -6.4683 0
M  V30 30 H -1.5254 2.873 2.3853 0
M  V30 31 H -3.7316 0.3333 4.9217 0
M  V30 32 H -4.0986 2.0677 5.1748 0
M  V30 33 H 0.5152 1.9518 5.4135 0
M  V30 34 H 0.8748 1.3799 3.7978 0
M  V30 35 H -0.7764 2.2842 0.2258 0
M  V30 36 H -1.161 -0.8422 3.1871 0
M  V30 37 H 0.2593 0.6909 -1.3203 0
M  V30 38 H -0.1343 -2.4399 1.623 0
M  V30 39 H 1.8475 2.945 2.2666 0
M  V30 40 H -0.4702 4.4262 5.5943 0
M  V30 41 H 2.4147 5.2654 1.6414 0
M  V30 42 H 0.1072 6.7428 4.951 0
M  V30 43 H 1.5466 7.167 2.9758 0
M  V30 44 H -0.1677 -1.1191 -2.5274 0
M  V30 45 H 1.9885 -3.1127 -2.8565 0
M  V30 46 H 0.0226 -4.5171 -2.4551 0
M  V30 47 H -0.9362 -3.6079 -3.608 0
M  V30 48 H 1.9859 -1.2492 -4.4388 0
M  V30 49 H 0.3105 -1.5352 -4.8726 0
M  V30 50 H -0.118 -5.7029 -4.6403 0
M  V30 51 H 1.5273 -5.3292 -4.1924 0
M  V30 52 H 1.8061 -2.5028 -6.5873 0
M  V30 53 H 2.694 -3.3887 -5.3732 0
M  V30 54 H -0.2354 -3.4212 -7.4546 0
M  V30 55 H -1.061 -3.1417 -5.9111 0
M  V30 56 H -1.0351 -4.7559 -6.6434 0
M  V30 END ATOM
M  V30 BEGIN BOND
M  V30 1 1 1 2
M  V30 2 1 1 3
M  V30 3 1 2 4
M  V30 4 1 2 5
M  V30 5 1 3 6
M  V30 6 1 4 7
M  V30 7 2 5 8
M  V30 8 1 5 9
M  V30 9 2 6 10
M  V30 10 1 7 11
M  V30 11 1 8 12
M  V30 12 2 9 13
M  V30 13 2 11 14
M  V30 14 1 11 15
M  V30 15 2 12 16
M  V30 16 1 14 17
M  V30 17 2 15 18
M  V30 18 1 16 19
M  V30 19 2 17 20
M  V30 20 2 19 21
M  V30 21 1 19 22
M  V30 22 1 22 23
M  V30 23 1 23 24
M  V30 24 1 23 25
M  V30 25 1 24 26
M  V30 26 1 25 27
M  V30 27 1 26 28
M  V30 28 1 28 29
M  V30 29 1 4 6
M  V30 30 1 13 16
M  V30 31 1 18 20
M  V30 32 1 27 28
M  V30 33 1 2 30
M  V30 34 1 3 31
M  V30 35 1 3 32
M  V30 36 1 7 33
M  V30 37 1 7 34
M  V30 38 1 8 35
M  V30 39 1 9 36
M  V30 40 1 12 37
M  V30 41 1 13 38
M  V30 42 1 14 39
M  V30 43 1 15 40
M  V30 44 1 17 41
M  V30 45 1 18 42
M  V30 46 1 20 43
M  V30 47 1 22 44
M  V30 48 1 23 45
M  V30 49 1 24 46
M  V30 50 1 24 47
M  V30 51 1 25 48
M  V30 52 1 25 49
M  V30 53 1 26 50
M  V30 54 1 26 51
M  V30 55 1 27 52
M  V30 56 1 27 53
M  V30 57 1 29 54
M  V30 58 1 29 55
M  V30 59 1 29 56
M  V30 END BOND
M  V30 BEGIN COLLECTION
M  V30 MDLV30/STEABS ATOMS=(1 2)
M  V30 END COLLECTION
M  V30 END CTAB
M  END
>  <NO.>
3902

>  <Name>
isoproterenol

>  <SMILES>
CN1CCC(NC(=O)c2ccc([C@H]3SCC(=O)N3Cc3ccccc3)cc2)CC1

>  <logBB>


>  <Class>
-1

>  <MW>
409.18

>  <nHBAcc>
4

>  <nHBDon>
1

>  <SLogP>
3.28

>  <TopoPSA>
52.65

>  <MMFF94 Energy>
12.628

$$$$
CN1CCC(Oc2ccc(N=[N+]=[N-])c(F)c2)CC1
Actelion Java MolfileCreator 2.0

  0  0  0  0  0  0              0 V3000
M  V30 BEGIN CTAB
M  V30 COUNTS 33 34 0 0 0
M  V30 BEGIN ATOM
M  V30 1 F -5.417 -0.0794 0.6361 0
M  V30 2 C -4.1615 0.3935 0.6467 0
M  V30 3 C -3.9218 1.7377 0.9597 0
M  V30 4 C -3.1191 -0.478 0.3429 0
M  V30 5 N -4.9369 2.652 1.2973 0
M  V30 6 C -2.5953 2.1767 0.9848 0
M  V30 7 C -1.7985 -0.0275 0.3588 0
M  V30 8 N -5.855 2.7053 0.4552 0 CHG=1
M  V30 9 C -1.5403 1.3048 0.6812 0
M  V30 10 O -0.8758 -0.9812 0.0407 0
M  V30 11 N -6.6954 2.7788 -0.3124 0 CHG=-1
M  V30 12 C 0.5192 -0.6671 0.1107 0
M  V30 13 C 1.2675 -1.9793 0.3546 0
M  V30 14 C 0.9988 -0.0513 -1.2038 0
M  V30 15 C 2.7771 -1.7639 0.313 0
M  V30 16 C 2.516 0.1152 -1.2052 0
M  V30 17 N 3.1875 -1.1671 -0.9639 0
M  V30 18 C 4.6407 -1.0061 -1.0136 0
M  V30 19 H -3.3443 -1.512 0.0991 0
M  V30 20 H -2.3779 3.2111 1.2427 0
M  V30 21 H -0.5331 1.7068 0.7047 0
M  V30 22 H 0.7353 -0.0074 0.9604 0
M  V30 23 H 0.9733 -2.3976 1.325 0
M  V30 24 H 0.9695 -2.7262 -0.3934 0
M  V30 25 H 0.521 0.9202 -1.3716 0
M  V30 26 H 0.6856 -0.6825 -2.0462 0
M  V30 27 H 3.2655 -2.7372 0.4421 0
M  V30 28 H 3.0835 -1.1312 1.1565 0
M  V30 29 H 2.8152 0.5121 -2.1828 0
M  V30 30 H 2.8061 0.8572 -0.4497 0
M  V30 31 H 4.9514 -0.6148 -1.9886 0
M  V30 32 H 5.1397 -1.9737 -0.8909 0
M  V30 33 H 5.0081 -0.3268 -0.2359 0
M  V30 END ATOM
M  V30 BEGIN BOND
M  V30 1 1 1 2
M  V30 2 2 2 3
M  V30 3 1 2 4
M  V30 4 1 3 5
M  V30 5 1 3 6
M  V30 6 2 4 7
M  V30 7 2 5 8
M  V30 8 2 6 9
M  V30 9 1 7 10
M  V30 10 2 8 11
M  V30 11 1 10 12
M  V30 12 1 12 13
M  V30 13 1 12 14
M  V30 14 1 13 15
M  V30 15 1 14 16
M  V30 16 1 15 17
M  V30 17 1 17 18
M  V30 18 1 7 9
M  V30 19 1 16 17
M  V30 20 1 4 19
M  V30 21 1 6 20
M  V30 22 1 9 21
M  V30 23 1 12 22
M  V30 24 1 13 23
M  V30 25 1 13 24
M  V30 26 1 14 25
M  V30 27 1 14 26
M  V30 28 1 15 27
M  V30 29 1 15 28
M  V30 30 1 16 29
M  V30 31 1 16 30
M  V30 32 1 18 31
M  V30 33 1 18 32
M  V30 34 1 18 33
M  V30 END BOND
M  V30 END CTAB
M  END
>  <NO.>
3903

>  <Name>
demeclocycline

>  <SMILES>
CN1CCC(Oc2ccc(N=[N+]=[N-])c(F)c2)CC1

>  <logBB>


>  <Class>
-1

>  <MW>
250.12

>  <nHBAcc>
3

>  <nHBDon>
0

>  <SLogP>
3.24

>  <TopoPSA>
61.23

>  <MMFF94 Energy>
18.877

$$$$
COC(=O)COc1ccc([C@H](CC(=O)OC)c2c3[nH]snc-3ccc2=O)cc1OC
Actelion Java MolfileCreator 2.0

  0  0  0  0  0  0              0 V3000
M  V30 BEGIN CTAB
M  V30 COUNTS 50 52 0 0 0
M  V30 BEGIN ATOM
M  V30 1 S -5.6726 -0.2426 1.7802 0
M  V30 2 N -5.5979 1.4302 2.0108 0
M  V30 3 N -4.4016 -0.3749 0.7318 0
M  V30 4 C -4.6111 1.8615 1.2821 0
M  V30 5 C -3.8481 0.8506 0.4811 0
M  V30 6 C -4.2092 3.2685 1.2145 0
M  V30 7 C -2.8163 1.2039 -0.3035 0
M  V30 8 C -3.1958 3.6267 0.4257 0
M  V30 9 C -2.4566 2.6507 -0.4018 0
M  V30 10 C -1.9891 0.2033 -1.1023 0 CFG=2
M  V30 11 O -1.586 3.0612 -1.1603 0
M  V30 12 C -0.5892 0.0387 -0.5083 0
M  V30 13 C -2.0621 0.4603 -2.6201 0
M  V30 14 C 0.5324 0.7221 -1.0038 0
M  V30 15 C -0.4136 -0.8056 0.5991 0
M  V30 16 C -1.4689 -0.6754 -3.4149 0
M  V30 17 C 1.7999 0.5548 -0.4273 0
M  V30 18 C 0.8442 -0.9766 1.1847 0
M  V30 19 O -0.517 -0.5566 -4.1738 0
M  V30 20 O -2.1625 -1.8283 -3.1999 0
M  V30 21 O 2.9378 1.1888 -0.862 0
M  V30 22 C 1.9575 -0.3021 0.678 0
M  V30 23 C -1.6588 -2.9477 -3.9317 0
M  V30 24 C 2.839 1.9977 -2.0259 0
M  V30 25 O 3.2293 -0.4074 1.1845 0
M  V30 26 C 3.4275 -1.2529 2.3068 0
M  V30 27 C 4.8847 -1.2571 2.7491 0
M  V30 28 O 5.8042 -0.6324 2.2396 0
M  V30 29 O 5.0181 -2.0861 3.8314 0
M  V30 30 C 6.3529 -2.1669 4.3342 0
M  V30 31 H -4.0935 -1.2333 0.2954 0
M  V30 32 H -4.7608 3.9792 1.8175 0
M  V30 33 H -2.8737 4.659 0.3464 0
M  V30 34 H -2.4528 -0.784 -0.9711 0
M  V30 35 H -3.1037 0.5794 -2.9455 0
M  V30 36 H -1.5435 1.3754 -2.9222 0
M  V30 37 H 0.4064 1.4037 -1.8388 0
M  V30 38 H -1.2598 -1.3422 1.0247 0
M  V30 39 H 0.916 -1.6435 2.0372 0
M  V30 40 H -2.2702 -3.8187 -3.6801 0
M  V30 41 H -1.7377 -2.7681 -5.0085 0
M  V30 42 H -0.6231 -3.1577 -3.6464 0
M  V30 43 H 2.5035 1.413 -2.8889 0
M  V30 44 H 3.8391 2.3796 -2.2528 0
M  V30 45 H 2.1869 2.86 -1.8517 0
M  V30 46 H 3.1662 -2.285 2.0456 0
M  V30 47 H 2.8336 -0.8917 3.1546 0
M  V30 48 H 6.3513 -2.8477 5.19 0
M  V30 49 H 7.0261 -2.5711 3.5718 0
M  V30 50 H 6.6948 -1.1844 4.6744 0
M  V30 END ATOM
M  V30 BEGIN BOND
M  V30 1 1 1 2
M  V30 2 1 1 3
M  V30 3 2 2 4
M  V30 4 1 3 5
M  V30 5 1 4 6
M  V30 6 2 5 7
M  V30 7 2 6 8
M  V30 8 1 7 9
M  V30 9 1 7 10
M  V30 10 2 9 11
M  V30 11 1 10 12
M  V30 12 1 10 13
M  V30 13 2 12 14
M  V30 14 1 12 15
M  V30 15 1 13 16
M  V30 16 1 14 17
M  V30 17 2 15 18
M  V30 18 2 16 19
M  V30 19 1 16 20
M  V30 20 1 17 21
M  V30 21 2 17 22
M  V30 22 1 20 23
M  V30 23 1 21 24
M  V30 24 1 22 25
M  V30 25 1 25 26
M  V30 26 1 26 27
M  V30 27 2 27 28
M  V30 28 1 27 29
M  V30 29 1 29 30
M  V30 30 1 4 5
M  V30 31 1 8 9
M  V30 32 1 18 22
M  V30 33 1 3 31
M  V30 34 1 6 32
M  V30 35 1 8 33
M  V30 36 1 10 34
M  V30 37 1 13 35
M  V30 38 1 13 36
M  V30 39 1 14 37
M  V30 40 1 15 38
M  V30 41 1 18 39
M  V30 42 1 23 40
M  V30 43 1 23 41
M  V30 44 1 23 42
M  V30 45 1 24 43
M  V30 46 1 24 44
M  V30 47 1 24 45
M  V30 48 1 26 46
M  V30 49 1 26 47
M  V30 50 1 30 48
M  V30 51 1 30 49
M  V30 52 1 30 50
M  V30 END BOND
M  V30 BEGIN COLLECTION
M  V30 MDLV30/STEABS ATOMS=(1 10)
M  V30 END COLLECTION
M  V30 END CTAB
M  END
>  <NO.>
3905

>  <Name>
bethanechol

>  <SMILES>
COC(=O)COc1ccc([C@H](CC(=O)OC)c2c3[nH]snc-3ccc2=O)cc1OC

>  <logBB>


>  <Class>
-1

>  <MW>
432.1

>  <nHBAcc>
9

>  <nHBDon>
1

>  <SLogP>
2.19

>  <TopoPSA>
116.81

>  <MMFF94 Energy>
52.034

$$$$
COC(=O)C[C@@H](C1=C(O)C(=O)C([C@@H](CC(=O)OC)c2cc3cccc4c3n(c2=O)CCC4)=C(O)C1=O)c1cc2cccc3c2n(c1=O)CCC3
Actelion Java MolfileCreator 2.0

  0  0  0  0  0  0              0 V3000
M  V30 BEGIN CTAB
M  V30 COUNTS 84 90 0 0 0
M  V30 BEGIN ATOM
M  V30 1 O -3.5669 -3.8105 1.2149 0
M  V30 2 C -2.3889 -4.1053 1.417 0
M  V30 3 N -2.0057 -5.0957 2.3124 0
M  V30 4 C -1.3035 -3.3851 0.6645 0
M  V30 5 C -0.6593 -5.5296 2.4357 0
M  V30 6 C -3.0447 -5.8156 3.0391 0
M  V30 7 C -0.0314 -3.8027 0.7855 0
M  V30 8 C -1.7637 -2.2075 -0.199 0 CFG=1
M  V30 9 C 0.3298 -4.9081 1.6654 0
M  V30 10 C -0.3125 -6.5739 3.3117 0
M  V30 11 C -2.5581 -6.3662 4.3697 0
M  V30 12 C -0.7874 -1.0269 -0.1461 0
M  V30 13 C -2.1963 -2.7181 -1.5905 0
M  V30 14 C 1.6585 -5.339 1.752 0
M  V30 15 C 1.0204 -7.0037 3.3791 0
M  V30 16 C -1.3568 -7.2698 4.1422 0
M  V30 17 C -0.9404 -0.0144 0.7207 0
M  V30 18 C 0.3444 -0.9685 -1.1069 0
M  V30 19 C -2.7199 -1.6258 -2.4916 0
M  V30 20 C 2.0011 -6.3872 2.6043 0
M  V30 21 O -1.9765 -0.0016 1.6436 0
M  V30 22 C -0.0238 1.1517 0.7641 0
M  V30 23 O 0.5239 -1.8653 -1.9254 0
M  V30 24 C 1.2927 0.1893 -1.0347 0
M  V30 25 O -2.724 -0.4285 -2.2391 0
M  V30 26 O -3.1897 -2.1787 -3.6471 0
M  V30 27 O -0.2773 2.0577 1.5555 0
M  V30 28 C 1.1593 1.171 -0.1256 0
M  V30 29 O 2.3442 0.173 -1.9407 0
M  V30 30 C -3.6955 -1.2279 -4.5839 0
M  V30 31 C 2.1812 2.2894 0.0739 0 CFG=1
M  V30 32 C 1.6734 3.5983 -0.5225 0
M  V30 33 C 2.7155 2.4014 1.5188 0
M  V30 34 C 1.7784 3.7027 -2.0192 0
M  V30 35 C 1.1833 4.6316 0.1809 0
M  V30 36 C 3.4886 1.1656 1.9032 0
M  V30 37 O 2.261 2.7562 -2.6467 0
M  V30 38 N 1.3144 4.8596 -2.6231 0
M  V30 39 C 0.7395 5.8554 -0.4782 0
M  V30 40 O 4.7026 1.0604 1.803 0
M  V30 41 O 2.6463 0.1915 2.3449 0
M  V30 42 C 0.8056 5.9548 -1.8739 0
M  V30 43 C 1.4533 5.0008 -4.0683 0
M  V30 44 C 0.2486 6.9268 0.2763 0
M  V30 45 C 3.2986 -1.0304 2.6954 0
M  V30 46 C 0.3628 7.1259 -2.5149 0
M  V30 47 C 0.3895 5.8977 -4.6797 0
M  V30 48 C -0.1704 8.0962 -0.3559 0
M  V30 49 C -0.1101 8.1976 -1.7443 0
M  V30 50 C 0.4252 7.2632 -4.012 0
M  V30 51 H -3.8987 -5.1512 3.2152 0
M  V30 52 H -3.3984 -6.6247 2.3877 0
M  V30 53 H 0.7765 -3.3372 0.2327 0
M  V30 54 H -2.6934 -1.8225 0.2445 0
M  V30 55 H -3.3596 -6.9233 4.8669 0
M  V30 56 H -2.279 -5.5353 5.0307 0
M  V30 57 H -3.0114 -3.443 -1.4644 0
M  V30 58 H -1.383 -3.2399 -2.1046 0
M  V30 59 H 2.4344 -4.8687 1.1525 0
M  V30 60 H 1.3003 -7.8233 4.0377 0
M  V30 61 H -1.665 -8.1855 3.6234 0
M  V30 62 H -0.9397 -7.5586 5.114 0
M  V30 63 H 3.0327 -6.7253 2.6626 0
M  V30 64 H -1.9011 0.8575 2.1119 0
M  V30 65 H 2.4313 1.074 -2.3296 0
M  V30 66 H -4.0368 -1.7722 -5.4687 0
M  V30 67 H -4.5476 -0.6877 -4.1596 0
M  V30 68 H -2.9071 -0.5323 -4.8881 0
M  V30 69 H 3.0865 2.0307 -0.4945 0
M  V30 70 H 1.945 2.5852 2.2734 0
M  V30 71 H 3.4116 3.2471 1.6 0
M  V30 72 H 1.0814 4.5858 1.2604 0
M  V30 73 H 1.4078 4.0133 -4.5416 0
M  V30 74 H 2.457 5.4004 -4.2607 0
M  V30 75 H 0.1895 6.862 1.3602 0
M  V30 76 H 2.5339 -1.7392 3.025 0
M  V30 77 H 3.8102 -1.4537 1.8254 0
M  V30 78 H 4.0004 -0.8673 3.519 0
M  V30 79 H 0.5533 6.0014 -5.7578 0
M  V30 80 H -0.5992 5.4413 -4.5416 0
M  V30 81 H -0.5468 8.9284 0.2341 0
M  V30 82 H -0.4408 9.1162 -2.2249 0
M  V30 83 H 1.3482 7.792 -4.2785 0
M  V30 84 H -0.42 7.8591 -4.3756 0
M  V30 END ATOM
M  V30 BEGIN BOND
M  V30 1 2 1 2
M  V30 2 1 2 3
M  V30 3 1 2 4
M  V30 4 1 3 5
M  V30 5 1 3 6
M  V30 6 2 4 7
M  V30 7 1 4 8
M  V30 8 2 5 9
M  V30 9 1 5 10
M  V30 10 1 6 11
M  V30 11 1 8 12
M  V30 12 1 8 13
M  V30 13 1 9 14
M  V30 14 2 10 15
M  V30 15 1 10 16
M  V30 16 2 12 17
M  V30 17 1 12 18
M  V30 18 1 13 19
M  V30 19 2 14 20
M  V30 20 1 17 21
M  V30 21 1 17 22
M  V30 22 2 18 23
M  V30 23 1 18 24
M  V30 24 2 19 25
M  V30 25 1 19 26
M  V30 26 2 22 27
M  V30 27 1 22 28
M  V30 28 1 24 29
M  V30 29 1 26 30
M  V30 30 1 28 31
M  V30 31 1 31 32
M  V30 32 1 31 33
M  V30 33 1 32 34
M  V30 34 2 32 35
M  V30 35 1 33 36
M  V30 36 2 34 37
M  V30 37 1 34 38
M  V30 38 1 35 39
M  V30 39 2 36 40
M  V30 40 1 36 41
M  V30 41 1 38 42
M  V30 42 1 38 43
M  V30 43 1 39 44
M  V30 44 1 41 45
M  V30 45 1 42 46
M  V30 46 1 43 47
M  V30 47 2 44 48
M  V30 48 2 46 49
M  V30 49 1 46 50
M  V30 50 1 7 9
M  V30 51 1 11 16
M  V30 52 1 15 20
M  V30 53 2 24 28
M  V30 54 2 39 42
M  V30 55 1 47 50
M  V30 56 1 48 49
M  V30 57 1 6 51
M  V30 58 1 6 52
M  V30 59 1 7 53
M  V30 60 1 8 54
M  V30 61 1 11 55
M  V30 62 1 11 56
M  V30 63 1 13 57
M  V30 64 1 13 58
M  V30 65 1 14 59
M  V30 66 1 15 60
M  V30 67 1 16 61
M  V30 68 1 16 62
M  V30 69 1 20 63
M  V30 70 1 21 64
M  V30 71 1 29 65
M  V30 72 1 30 66
M  V30 73 1 30 67
M  V30 74 1 30 68
M  V30 75 1 31 69
M  V30 76 1 33 70
M  V30 77 1 33 71
M  V30 78 1 35 72
M  V30 79 1 43 73
M  V30 80 1 43 74
M  V30 81 1 44 75
M  V30 82 1 45 76
M  V30 83 1 45 77
M  V30 84 1 45 78
M  V30 85 1 47 79
M  V30 86 1 47 80
M  V30 87 1 48 81
M  V30 88 1 49 82
M  V30 89 1 50 83
M  V30 90 1 50 84
M  V30 END BOND
M  V30 BEGIN COLLECTION
M  V30 MDLV30/STEABS ATOMS=(2 8 31)
M  V30 END COLLECTION
M  V30 END CTAB
M  END
>  <NO.>
3906

>  <Name>
dicyclomine

>  <SMILES>
COC(=O)C[C@@H](C1=C(O)C(=O)C([C@@H](CC(=O)OC)c2cc3cccc4c3n(c2=O)CCC4)=C(O)C1=O)c1cc2cccc3c2n(c1=O)CCC3

>  <logBB>


>  <Class>
-1

>  <MW>
678.22

>  <nHBAcc>
10

>  <nHBDon>
2

>  <SLogP>
3.98

>  <TopoPSA>
171.2

>  <MMFF94 Energy>
6.7867

$$$$
COC(=O)C[C@@H](C1=C(O)C(=O)C([C@@H](CC(=O)OC)c2ccsc2)=C(O)C1=O)c1ccsc1
Actelion Java MolfileCreator 2.0

  0  0  0  0  0  0              0 V3000
M  V30 BEGIN CTAB
M  V30 COUNTS 52 54 0 0 0
M  V30 BEGIN ATOM
M  V30 1 S -6.0075 -0.9857 -0.9857 0
M  V30 2 C -4.6261 -1.2334 -0.0095 0
M  V30 3 C -5.3729 -1.9705 -2.2273 0
M  V30 4 C -3.6872 -2.062 -0.6009 0
M  V30 5 C -4.136 -2.4789 -1.9004 0
M  V30 6 C -2.3511 -2.4709 0.0085 0 CFG=1
M  V30 7 C -1.3553 -1.3218 -0.1136 0
M  V30 8 C -2.5509 -3.0996 1.4041 0
M  V30 9 C -1.1233 -0.3719 0.8009 0
M  V30 10 C -0.5601 -1.3047 -1.3733 0
M  V30 11 C -1.2662 -3.6311 1.9893 0
M  V30 12 O -1.838 -0.304 1.9871 0
M  V30 13 C -0.0996 0.6869 0.6092 0
M  V30 14 O -0.7695 -2.1244 -2.2639 0
M  V30 15 C 0.4992 -0.2551 -1.5449 0
M  V30 16 O -0.1479 -3.4745 1.5197 0
M  V30 17 O -1.5403 -4.3115 3.1393 0
M  V30 18 O -0.0017 1.5392 1.4897 0
M  V30 19 C 0.7485 0.6772 -0.6054 0
M  V30 20 O 1.2025 -0.3135 -2.7405 0
M  V30 21 C -0.3885 -4.8598 3.7815 0
M  V30 22 C 1.8746 1.7058 -0.7127 0 CFG=1
M  V30 23 C 1.3879 2.9844 -1.3809 0
M  V30 24 C 2.6478 1.9892 0.5913 0
M  V30 25 C 0.3646 3.8013 -0.9297 0
M  V30 26 C 1.9644 3.5266 -2.5818 0
M  V30 27 C 4.0199 2.5575 0.3109 0
M  V30 28 S 0.0889 5.1512 -1.9421 0
M  V30 29 C 1.3515 4.6889 -2.9926 0
M  V30 30 O 4.6383 2.4238 -0.7359 0
M  V30 31 O 4.4867 3.201 1.4175 0
M  V30 32 C 5.7886 3.7666 1.2583 0
M  V30 33 H -4.5697 -0.7536 0.9586 0
M  V30 34 H -5.9316 -2.1267 -3.1398 0
M  V30 35 H -3.5646 -3.1156 -2.5677 0
M  V30 36 H -1.9678 -3.3051 -0.5983 0
M  V30 37 H -3.2408 -3.9491 1.3077 0
M  V30 38 H -2.9999 -2.4019 2.1174 0
M  V30 39 H -1.488 0.4869 2.4552 0
M  V30 40 H 1.4877 0.5765 -3.0043 0
M  V30 41 H -0.7198 -5.3826 4.683 0
M  V30 42 H 0.1089 -5.581 3.1256 0
M  V30 43 H 0.3009 -4.0627 4.0766 0
M  V30 44 H 2.6142 1.2635 -1.3953 0
M  V30 45 H 2.7969 1.066 1.1633 0
M  V30 46 H 2.1113 2.7134 1.2149 0
M  V30 47 H -0.246 3.6793 -0.0445 0
M  V30 48 H 2.803 3.0899 -3.1137 0
M  V30 49 H 1.5904 5.2944 -3.8565 0
M  V30 50 H 6.0555 4.2704 2.1914 0
M  V30 51 H 6.5256 2.9809 1.0652 0
M  V30 52 H 5.7894 4.5069 0.4522 0
M  V30 END ATOM
M  V30 BEGIN BOND
M  V30 1 1 1 2
M  V30 2 1 1 3
M  V30 3 2 2 4
M  V30 4 2 3 5
M  V30 5 1 4 6
M  V30 6 1 6 7
M  V30 7 1 6 8
M  V30 8 2 7 9
M  V30 9 1 7 10
M  V30 10 1 8 11
M  V30 11 1 9 12
M  V30 12 1 9 13
M  V30 13 2 10 14
M  V30 14 1 10 15
M  V30 15 2 11 16
M  V30 16 1 11 17
M  V30 17 2 13 18
M  V30 18 1 13 19
M  V30 19 1 15 20
M  V30 20 1 17 21
M  V30 21 1 19 22
M  V30 22 1 22 23
M  V30 23 1 22 24
M  V30 24 2 23 25
M  V30 25 1 23 26
M  V30 26 1 24 27
M  V30 27 1 25 28
M  V30 28 2 26 29
M  V30 29 2 27 30
M  V30 30 1 27 31
M  V30 31 1 31 32
M  V30 32 1 4 5
M  V30 33 2 15 19
M  V30 34 1 28 29
M  V30 35 1 2 33
M  V30 36 1 3 34
M  V30 37 1 5 35
M  V30 38 1 6 36
M  V30 39 1 8 37
M  V30 40 1 8 38
M  V30 41 1 12 39
M  V30 42 1 20 40
M  V30 43 1 21 41
M  V30 44 1 21 42
M  V30 45 1 21 43
M  V30 46 1 22 44
M  V30 47 1 24 45
M  V30 48 1 24 46
M  V30 49 1 25 47
M  V30 50 1 26 48
M  V30 51 1 29 49
M  V30 52 1 32 50
M  V30 53 1 32 51
M  V30 54 1 32 52
M  V30 END BOND
M  V30 BEGIN COLLECTION
M  V30 MDLV30/STEABS ATOMS=(2 6 22)
M  V30 END COLLECTION
M  V30 END CTAB
M  END
>  <NO.>
3907

>  <Name>
erythromycin

>  <SMILES>
COC(=O)C[C@@H](C1=C(O)C(=O)C([C@@H](CC(=O)OC)c2ccsc2)=C(O)C1=O)c1ccsc1

>  <logBB>


>  <Class>
-1

>  <MW>
476.06

>  <nHBAcc>
10

>  <nHBDon>
2

>  <SLogP>
3.58

>  <TopoPSA>
127.2

>  <MMFF94 Energy>
12.597

$$$$
COC(=O)C[C@@H](c1cc(OC)c2c(c1)OCCO2)c1c(O)c(C(=O)OC)c[nH]c1=O
Actelion Java MolfileCreator 2.0

  0  0  0  0  0  0              0 V3000
M  V30 BEGIN CTAB
M  V30 COUNTS 51 53 0 0 0
M  V30 BEGIN ATOM
M  V30 1 O -2.4785 0.799 -1.3586 0
M  V30 2 C -1.5358 0.4296 -2.0495 0
M  V30 3 N -1.7594 -0.195 -3.2507 0
M  V30 4 C -0.1034 0.6395 -1.6635 0
M  V30 5 C -0.7731 -0.6131 -4.1036 0
M  V30 6 C 0.8482 0.2278 -2.5291 0
M  V30 7 C 0.2067 1.3016 -0.3261 0 CFG=2
M  V30 8 C 0.5214 -0.4257 -3.7983 0
M  V30 9 O 2.1872 0.4078 -2.2171 0
M  V30 10 C 0.0039 0.3268 0.8367 0
M  V30 11 C -0.4754 2.6711 -0.1586 0
M  V30 12 C 1.5893 -0.8825 -4.7335 0
M  V30 13 C 1.0877 -0.4606 1.2575 0
M  V30 14 C -1.2324 0.1666 1.4881 0
M  V30 15 C 0.1439 3.4277 0.988 0
M  V30 16 O 2.7801 -0.7341 -4.4817 0
M  V30 17 O 1.0898 -1.4585 -5.8551 0
M  V30 18 C 0.9466 -1.3614 2.3114 0
M  V30 19 C -1.3904 -0.7479 2.5386 0
M  V30 20 O 1.2701 3.9062 0.9649 0
M  V30 21 O -0.7156 3.4923 2.0413 0
M  V30 22 C 2.0869 -1.9098 -6.7739 0
M  V30 23 O 2.0739 -2.0614 2.6637 0
M  V30 24 C -0.2924 -1.5216 2.9421 0
M  V30 25 O -2.5639 -0.9628 3.2169 0
M  V30 26 C -0.178 4.1443 3.1918 0
M  V30 27 C 1.922 -2.6886 3.9408 0
M  V30 28 O -0.4823 -2.4212 3.9673 0
M  V30 29 C -3.7048 -0.225 2.8005 0
M  V30 30 C 0.5747 -3.3802 4.035 0
M  V30 31 H -2.7349 -0.3355 -3.4898 0
M  V30 32 H -1.1178 -1.0899 -5.0159 0
M  V30 33 H 1.281 1.5378 -0.3148 0
M  V30 34 H 2.7557 0.0455 -2.9308 0
M  V30 35 H -0.3403 3.2877 -1.0564 0
M  V30 36 H -1.5561 2.607 4.0E-4 0
M  V30 37 H 2.0573 -0.3669 0.7712 0
M  V30 38 H -2.0773 0.7605 1.1551 0
M  V30 39 H 1.5782 -2.355 -7.6333 0
M  V30 40 H 2.6915 -1.0683 -7.1264 0
M  V30 41 H 2.7175 -2.6743 -6.3096 0
M  V30 42 H -0.9363 4.1215 3.9794 0
M  V30 43 H 0.7105 3.6164 3.552 0
M  V30 44 H 0.0556 5.1892 2.9655 0
M  V30 45 H 2.731 -3.4173 4.0509 0
M  V30 46 H 2.0394 -1.9262 4.721 0
M  V30 47 H -3.5534 0.8501 2.9424 0
M  V30 48 H -4.5461 -0.5269 3.432 0
M  V30 49 H -3.9693 -0.4564 1.7635 0
M  V30 50 H 0.4384 -4.1105 3.2278 0
M  V30 51 H 0.4851 -3.9069 4.9902 0
M  V30 END ATOM
M  V30 BEGIN BOND
M  V30 1 2 1 2
M  V30 2 1 2 3
M  V30 3 1 2 4
M  V30 4 1 3 5
M  V30 5 2 4 6
M  V30 6 1 4 7
M  V30 7 2 5 8
M  V30 8 1 6 9
M  V30 9 1 7 10
M  V30 10 1 7 11
M  V30 11 1 8 12
M  V30 12 2 10 13
M  V30 13 1 10 14
M  V30 14 1 11 15
M  V30 15 2 12 16
M  V30 16 1 12 17
M  V30 17 1 13 18
M  V30 18 2 14 19
M  V30 19 2 15 20
M  V30 20 1 15 21
M  V30 21 1 17 22
M  V30 22 1 18 23
M  V30 23 2 18 24
M  V30 24 1 19 25
M  V30 25 1 21 26
M  V30 26 1 23 27
M  V30 27 1 24 28
M  V30 28 1 25 29
M  V30 29 1 27 30
M  V30 30 1 6 8
M  V30 31 1 19 24
M  V30 32 1 28 30
M  V30 33 1 3 31
M  V30 34 1 5 32
M  V30 35 1 7 33
M  V30 36 1 9 34
M  V30 37 1 11 35
M  V30 38 1 11 36
M  V30 39 1 13 37
M  V30 40 1 14 38
M  V30 41 1 22 39
M  V30 42 1 22 40
M  V30 43 1 22 41
M  V30 44 1 26 42
M  V30 45 1 26 43
M  V30 46 1 26 44
M  V30 47 1 27 45
M  V30 48 1 27 46
M  V30 49 1 29 47
M  V30 50 1 29 48
M  V30 51 1 29 49
M  V30 52 1 30 50
M  V30 53 1 30 51
M  V30 END BOND
M  V30 BEGIN COLLECTION
M  V30 MDLV30/STEABS ATOMS=(1 7)
M  V30 END COLLECTION
M  V30 END CTAB
M  END
>  <NO.>
3908

>  <Name>
nalidixic acid

>  <SMILES>
COC(=O)C[C@@H](c1cc(OC)c2c(c1)OCCO2)c1c(O)c(C(=O)OC)c[nH]c1=O

>  <logBB>


>  <Class>
1

>  <MW>
419.12

>  <nHBAcc>
9

>  <nHBDon>
2

>  <SLogP>
1.34

>  <TopoPSA>
133.38

>  <MMFF94 Energy>
48.67

$$$$
COC(=O)C[C@@H](c1ccc(O)cc1)c1c(O)c(C(=O)OC)c[nH]c1=O
Actelion Java MolfileCreator 2.0

  0  0  0  0  0  0              0 V3000
M  V30 BEGIN CTAB
M  V30 COUNTS 42 43 0 0 0
M  V30 BEGIN ATOM
M  V30 1 O -1.1121 -2.0661 1.5095 0
M  V30 2 C -0.1421 -1.3428 1.704 0
M  V30 3 N 0.3911 -1.2255 2.9632 0
M  V30 4 C 0.5363 -0.5667 0.6172 0
M  V30 5 C 1.4913 -0.4719 3.2736 0
M  V30 6 C 1.6259 0.1598 0.9498 0
M  V30 7 C -0.0272 -0.6347 -0.7973 0 CFG=2
M  V30 8 C 2.1357 0.2229 2.3217 0
M  V30 9 O 2.29 0.8923 -0.0231 0
M  V30 10 C -1.2561 0.264 -0.9515 0
M  V30 11 C -0.2134 -2.0714 -1.3174 0
M  V30 12 C 3.3345 1.0395 2.6676 0
M  V30 13 C -1.0808 1.589 -1.3923 0
M  V30 14 C -2.5553 -0.1682 -0.6453 0
M  V30 15 C -0.3894 -2.0663 -2.8146 0
M  V30 16 O 3.9398 1.6935 1.825 0
M  V30 17 O 3.6558 0.9651 3.9831 0
M  V30 18 C -2.1715 2.4492 -1.5417 0
M  V30 19 C -3.6465 0.6915 -0.7936 0
M  V30 20 O 0.4796 -1.7254 -3.6066 0
M  V30 21 O -1.6371 -2.4903 -3.1545 0
M  V30 22 C 4.8017 1.7363 4.3499 0
M  V30 23 C -3.448 1.9901 -1.242 0
M  V30 24 C -1.8974 -2.4684 -4.5577 0
M  V30 25 O -4.5417 2.7938 -1.3731 0
M  V30 26 H -0.0886 -1.7521 3.685 0
M  V30 27 H 1.7867 -0.4874 4.3181 0
M  V30 28 H 0.7294 -0.2044 -1.4697 0
M  V30 29 H 3.0535 1.3673 0.371 0
M  V30 30 H 0.6707 -2.6847 -1.103 0
M  V30 31 H -1.0623 -2.5907 -0.8624 0
M  V30 32 H -0.0831 1.9591 -1.6245 0
M  V30 33 H -2.741 -1.1756 -0.2797 0
M  V30 34 H -2.0026 3.4634 -1.8883 0
M  V30 35 H -4.6482 0.3454 -0.555 0
M  V30 36 H 4.9684 1.6055 5.4227 0
M  V30 37 H 5.6886 1.3823 3.8152 0
M  V30 38 H 4.6273 2.7988 4.1531 0
M  V30 39 H -2.9256 -2.8049 -4.7169 0
M  V30 40 H -1.8018 -1.451 -4.9501 0
M  V30 41 H -1.2235 -3.1524 -5.0828 0
M  V30 42 H -4.2483 3.6591 -1.7017 0
M  V30 END ATOM
M  V30 BEGIN BOND
M  V30 1 2 1 2
M  V30 2 1 2 3
M  V30 3 1 2 4
M  V30 4 1 3 5
M  V30 5 2 4 6
M  V30 6 1 4 7
M  V30 7 2 5 8
M  V30 8 1 6 9
M  V30 9 1 7 10
M  V30 10 1 7 11
M  V30 11 1 8 12
M  V30 12 2 10 13
M  V30 13 1 10 14
M  V30 14 1 11 15
M  V30 15 2 12 16
M  V30 16 1 12 17
M  V30 17 1 13 18
M  V30 18 2 14 19
M  V30 19 2 15 20
M  V30 20 1 15 21
M  V30 21 1 17 22
M  V30 22 2 18 23
M  V30 23 1 21 24
M  V30 24 1 23 25
M  V30 25 1 6 8
M  V30 26 1 19 23
M  V30 27 1 3 26
M  V30 28 1 5 27
M  V30 29 1 7 28
M  V30 30 1 9 29
M  V30 31 1 11 30
M  V30 32 1 11 31
M  V30 33 1 13 32
M  V30 34 1 14 33
M  V30 35 1 18 34
M  V30 36 1 19 35
M  V30 37 1 22 36
M  V30 38 1 22 37
M  V30 39 1 22 38
M  V30 40 1 24 39
M  V30 41 1 24 40
M  V30 42 1 24 41
M  V30 43 1 25 42
M  V30 END BOND
M  V30 BEGIN COLLECTION
M  V30 MDLV30/STEABS ATOMS=(1 7)
M  V30 END COLLECTION
M  V30 END CTAB
M  END
>  <NO.>
3909

>  <Name>
naltrexone

>  <SMILES>
COC(=O)C[C@@H](c1ccc(O)cc1)c1c(O)c(C(=O)OC)c[nH]c1=O

>  <logBB>


>  <Class>
1

>  <MW>
347.1

>  <nHBAcc>
7

>  <nHBDon>
3

>  <SLogP>
1.27

>  <TopoPSA>
125.92

>  <MMFF94 Energy>
-3.4272

$$$$
COC(=O)C[C@@H](c1ccc(OC)c(CO)c1)c1c(O)cc(C)n(CCc2ccc(O)cc2)c1=O
Actelion Java MolfileCreator 2.0

  0  0  0  0  0  0              0 V3000
M  V30 BEGIN CTAB
M  V30 COUNTS 63 65 0 0 0
M  V30 BEGIN ATOM
M  V30 1 O -0.6338 -0.5546 1.3473 0
M  V30 2 C 0.5853 -0.3949 1.4031 0
M  V30 3 N 1.4783 -1.4699 1.5276 0
M  V30 4 C 1.1714 0.9909 1.3384 0
M  V30 5 C 2.8598 -1.291 1.5769 0
M  V30 6 C 0.8754 -2.8093 1.559 0
M  V30 7 C 2.5083 1.1026 1.4151 0
M  V30 8 C 0.1551 2.124 1.2174 0 CFG=2
M  V30 9 C 3.3655 -0.0485 1.5257 0
M  V30 10 C 3.7766 -2.4793 1.6851 0
M  V30 11 C 0.6079 -3.3475 0.1482 0
M  V30 12 O 3.1456 2.3227 1.3606 0
M  V30 13 C -0.2585 2.337 -0.2401 0
M  V30 14 C 0.5676 3.4526 1.8776 0
M  V30 15 C 0.0291 -4.7403 0.1825 0
M  V30 16 C -1.5776 2.0745 -0.6392 0
M  V30 17 C 0.6483 2.7942 -1.2032 0
M  V30 18 C -0.6433 4.3196 2.1055 0
M  V30 19 C 0.8569 -5.8625 0.0369 0
M  V30 20 C -1.3449 -4.9271 0.3889 0
M  V30 21 C -2.0009 2.2787 -1.9656 0
M  V30 22 C 0.2497 2.9804 -2.53 0
M  V30 23 O -1.4382 4.1554 3.0221 0
M  V30 24 O -0.7289 5.29 1.1553 0
M  V30 25 C 0.319 -7.1507 0.0884 0
M  V30 26 C -1.8817 -6.2138 0.4413 0
M  V30 27 C -1.067 2.72 -2.921 0
M  V30 28 C -3.4185 1.9622 -2.3772 0
M  V30 29 C -1.9075 6.0895 1.248 0
M  V30 30 C -1.0476 -7.3144 0.2902 0
M  V30 31 O -1.5392 2.8534 -4.2022 0
M  V30 32 O -4.3163 2.0138 -1.2715 0
M  V30 33 O -1.6137 -8.5536 0.3474 0
M  V30 34 C -0.631 3.3289 -5.1872 0
M  V30 35 H 1.5031 -3.4982 2.1338 0
M  V30 36 H -0.0703 -2.755 2.1142 0
M  V30 37 H -0.7385 1.8028 1.7722 0
M  V30 38 H 4.4395 0.0999 1.5617 0
M  V30 39 H 3.6297 -2.9963 2.6389 0
M  V30 40 H 3.6066 -3.1835 0.8649 0
M  V30 41 H 4.8316 -2.1864 1.6389 0
M  V30 42 H -0.0788 -2.6842 -0.3929 0
M  V30 43 H 1.5336 -3.3487 -0.4405 0
M  V30 44 H 4.1026 2.198 1.4713 0
M  V30 45 H 1.0189 3.283 2.8635 0
M  V30 46 H 1.3009 4.0185 1.2918 0
M  V30 47 H -2.2943 1.701 0.093 0
M  V30 48 H 1.6797 3.0064 -0.931 0
M  V30 49 H 1.926 -5.7397 -0.1201 0
M  V30 50 H -2.0048 -4.0695 0.51 0
M  V30 51 H 0.9981 3.3272 -3.2339 0
M  V30 52 H 0.9764 -8.0058 -0.0296 0
M  V30 53 H -2.947 -6.3553 0.5996 0
M  V30 54 H -3.7805 2.687 -3.1133 0
M  V30 55 H -3.4547 0.9561 -2.8078 0
M  V30 56 H -1.8967 6.806 0.422 0
M  V30 57 H -2.8031 5.4672 1.1535 0
M  V30 58 H -1.9189 6.6465 2.19 0
M  V30 59 H -5.1846 1.744 -1.612 0
M  V30 60 H -0.9178 -9.2173 0.2157 0
M  V30 61 H -0.2729 4.3345 -4.9429 0
M  V30 62 H -1.1715 3.391 -6.1367 0
M  V30 63 H 0.2022 2.6322 -5.3247 0
M  V30 END ATOM
M  V30 BEGIN BOND
M  V30 1 2 1 2
M  V30 2 1 2 3
M  V30 3 1 2 4
M  V30 4 1 3 5
M  V30 5 1 3 6
M  V30 6 2 4 7
M  V30 7 1 4 8
M  V30 8 2 5 9
M  V30 9 1 5 10
M  V30 10 1 6 11
M  V30 11 1 7 12
M  V30 12 1 8 13
M  V30 13 1 8 14
M  V30 14 1 11 15
M  V30 15 2 13 16
M  V30 16 1 13 17
M  V30 17 1 14 18
M  V30 18 2 15 19
M  V30 19 1 15 20
M  V30 20 1 16 21
M  V30 21 2 17 22
M  V30 22 2 18 23
M  V30 23 1 18 24
M  V30 24 1 19 25
M  V30 25 2 20 26
M  V30 26 2 21 27
M  V30 27 1 21 28
M  V30 28 1 24 29
M  V30 29 2 25 30
M  V30 30 1 27 31
M  V30 31 1 28 32
M  V30 32 1 30 33
M  V30 33 1 31 34
M  V30 34 1 7 9
M  V30 35 1 22 27
M  V30 36 1 26 30
M  V30 37 1 6 35
M  V30 38 1 6 36
M  V30 39 1 8 37
M  V30 40 1 9 38
M  V30 41 1 10 39
M  V30 42 1 10 40
M  V30 43 1 10 41
M  V30 44 1 11 42
M  V30 45 1 11 43
M  V30 46 1 12 44
M  V30 47 1 14 45
M  V30 48 1 14 46
M  V30 49 1 16 47
M  V30 50 1 17 48
M  V30 51 1 19 49
M  V30 52 1 20 50
M  V30 53 1 22 51
M  V30 54 1 25 52
M  V30 55 1 26 53
M  V30 56 1 28 54
M  V30 57 1 28 55
M  V30 58 1 29 56
M  V30 59 1 29 57
M  V30 60 1 29 58
M  V30 61 1 32 59
M  V30 62 1 33 60
M  V30 63 1 34 61
M  V30 64 1 34 62
M  V30 65 1 34 63
M  V30 END BOND
M  V30 BEGIN COLLECTION
M  V30 MDLV30/STEABS ATOMS=(1 8)
M  V30 END COLLECTION
M  V30 END CTAB
M  END
>  <NO.>
3910

>  <Name>
dextromethorphan

>  <SMILES>
COC(=O)C[C@@H](c1ccc(OC)c(CO)c1)c1c(O)cc(C)n(CCc2ccc(O)cc2)c1=O

>  <logBB>


>  <Class>
1

>  <MW>
467.19

>  <nHBAcc>
7

>  <nHBDon>
3

>  <SLogP>
3.01

>  <TopoPSA>
118.22

>  <MMFF94 Energy>
22.762

$$$$
COC(=O)C[C@@H](c1ccc2c(c1)OCO2)c1cc2c(cc1O)OCO2
Actelion Java MolfileCreator 2.0

  0  0  0  0  0  0              0 V3000
M  V30 BEGIN CTAB
M  V30 COUNTS 41 44 0 0 0
M  V30 BEGIN ATOM
M  V30 1 O -0.3225 0.0 -3.6337 0
M  V30 2 C -0.8821 -0.8286 -2.9275 0
M  V30 3 O -2.0648 -1.436 -3.2285 0
M  V30 4 C -0.3384 -1.3677 -1.6261 0
M  V30 5 C -2.6543 -0.9884 -4.4494 0
M  V30 6 C 0.414 -0.2771 -0.8424 0 CFG=2
M  V30 7 C 1.3909 -0.7779 0.2279 0
M  V30 8 C -0.5484 0.7757 -0.2871 0
M  V30 9 C 1.2027 -1.9425 1.0078 0
M  V30 10 C 2.5424 0.0055 0.4687 0
M  V30 11 C -1.4473 0.4699 0.7505 0
M  V30 12 C -0.5485 2.0818 -0.836 0
M  V30 13 O 0.0832 -2.7049 0.8251 0
M  V30 14 C 2.1288 -2.3373 1.9808 0
M  V30 15 C 3.4395 -0.4026 1.4326 0
M  V30 16 C -2.2924 1.4634 1.199 0
M  V30 17 C -1.4188 3.0683 -0.3607 0
M  V30 18 C 3.2381 -1.5438 2.1663 0
M  V30 19 O 4.5886 0.2387 1.7731 0
M  V30 20 O -3.2153 1.3331 2.1899 0
M  V30 21 C -2.278 2.7269 0.6591 0
M  V30 22 O 4.2353 -1.7683 3.0632 0
M  V30 23 C 5.0864 -0.63 2.8113 0
M  V30 24 C -3.7744 2.6625 2.2146 0
M  V30 25 O -3.1888 3.5517 1.2416 0
M  V30 26 H 0.3272 -2.1997 -1.8843 0
M  V30 27 H -1.1767 -1.7671 -1.044 0
M  V30 28 H -3.6019 -1.5178 -4.5821 0
M  V30 29 H -2.8614 0.0854 -4.4051 0
M  V30 30 H -2.0038 -1.2242 -5.2972 0
M  V30 31 H 1.0563 0.2281 -1.5794 0
M  V30 32 H 2.7289 0.9202 -0.0863 0
M  V30 33 H -1.4862 -0.5169 1.1986 0
M  V30 34 H 0.1312 2.332 -1.6496 0
M  V30 35 H 0.0952 -3.4439 1.4567 0
M  V30 36 H 1.9959 -3.228 2.5822 0
M  V30 37 H -1.4194 4.0669 -0.7822 0
M  V30 38 H 6.0788 -0.9924 2.5195 0
M  V30 39 H 5.1813 -0.0516 3.7376 0
M  V30 40 H -4.8513 2.593 2.0221 0
M  V30 41 H -3.6235 3.0877 3.2137 0
M  V30 END ATOM
M  V30 BEGIN BOND
M  V30 1 2 1 2
M  V30 2 1 2 3
M  V30 3 1 2 4
M  V30 4 1 3 5
M  V30 5 1 4 6
M  V30 6 1 6 7
M  V30 7 1 6 8
M  V30 8 2 7 9
M  V30 9 1 7 10
M  V30 10 2 8 11
M  V30 11 1 8 12
M  V30 12 1 9 13
M  V30 13 1 9 14
M  V30 14 2 10 15
M  V30 15 1 11 16
M  V30 16 2 12 17
M  V30 17 2 14 18
M  V30 18 1 15 19
M  V30 19 1 16 20
M  V30 20 2 16 21
M  V30 21 1 18 22
M  V30 22 1 19 23
M  V30 23 1 20 24
M  V30 24 1 21 25
M  V30 25 1 15 18
M  V30 26 1 17 21
M  V30 27 1 22 23
M  V30 28 1 24 25
M  V30 29 1 4 26
M  V30 30 1 4 27
M  V30 31 1 5 28
M  V30 32 1 5 29
M  V30 33 1 5 30
M  V30 34 1 6 31
M  V30 35 1 10 32
M  V30 36 1 11 33
M  V30 37 1 12 34
M  V30 38 1 13 35
M  V30 39 1 14 36
M  V30 40 1 17 37
M  V30 41 1 23 38
M  V30 42 1 23 39
M  V30 43 1 24 40
M  V30 44 1 24 41
M  V30 END BOND
M  V30 BEGIN COLLECTION
M  V30 MDLV30/STEABS ATOMS=(1 6)
M  V30 END COLLECTION
M  V30 END CTAB
M  END
>  <NO.>
3911

>  <Name>
enflurane

>  <SMILES>
COC(=O)C[C@@H](c1ccc2c(c1)OCO2)c1cc2c(cc1O)OCO2

>  <logBB>


>  <Class>
1

>  <MW>
344.09

>  <nHBAcc>
7

>  <nHBDon>
1

>  <SLogP>
2.54

>  <TopoPSA>
83.45

>  <MMFF94 Energy>
24.719

$$$$
COC(=O)C[C@@H](c1cccc(Br)c1)c1oc(CN2C[C@@H]3C[C@H](C2)c2cccc(=O)n2C3)cc(=O)c1O
Actelion Java MolfileCreator 2.0

  0  0  0  0  0  0              0 V3000
M  V30 BEGIN CTAB
M  V30 COUNTS 63 67 0 0 0
M  V30 BEGIN ATOM
M  V30 1 Br 1.1373 -4.2292 -1.2186 0
M  V30 2 C -0.1419 -2.8584 -1.4593 0
M  V30 3 C 0.201 -1.7124 -2.1774 0
M  V30 4 C -1.4147 -2.9986 -0.9109 0
M  V30 5 C -0.7333 -0.6761 -2.343 0
M  V30 6 C -2.3542 -1.9832 -1.0819 0
M  V30 7 C -2.0163 -0.8292 -1.7916 0
M  V30 8 C -0.3728 0.6084 -3.0987 0 CFG=1
M  V30 9 C 0.8324 1.2864 -2.4417 0
M  V30 10 C -0.2873 0.3391 -4.6105 0
M  V30 11 O 0.5298 1.7259 -1.1521 0
M  V30 12 C 2.0535 1.4689 -2.9739 0
M  V30 13 C -1.6397 -0.0197 -5.1763 0
M  V30 14 C 1.5265 2.2208 -0.3276 0
M  V30 15 O 2.4211 1.0559 -4.2376 0
M  V30 16 C 3.1002 2.132 -2.1525 0
M  V30 17 O -2.6916 0.5233 -4.8641 0
M  V30 18 O -1.5147 -1.0033 -6.1099 0
M  V30 19 C 2.7672 2.4718 -0.7651 0
M  V30 20 C 1.0845 2.502 1.0903 0
M  V30 21 O 4.2095 2.3478 -2.6313 0
M  V30 22 C -2.7506 -1.4046 -6.7021 0
M  V30 23 N 0.8891 1.3397 1.9644 0
M  V30 24 C -0.2388 0.4807 1.5767 0
M  V30 25 C 2.1108 0.5756 2.2197 0
M  V30 26 C -0.4767 -0.6788 2.5752 0 CFG=2
M  V30 27 C 1.891 -0.5901 3.2074 0 CFG=2
M  V30 28 C -0.8882 -0.1552 3.9401 0
M  V30 29 C 0.796 -1.5154 2.689 0
M  V30 30 C 1.5185 -0.1032 4.6157 0
M  V30 31 N 0.1003 0.1446 4.8817 0
M  V30 32 C -2.1849 0.0194 4.2518 0
M  V30 33 C -0.207 0.6474 6.1503 0
M  V30 34 C -2.5735 0.5371 5.5363 0
M  V30 35 O 0.6225 0.9132 7.0179 0
M  V30 36 C -1.6482 0.8491 6.4494 0
M  V30 37 H 1.1991 -1.6204 -2.6003 0
M  V30 38 H -1.6849 -3.8926 -0.3552 0
M  V30 39 H -3.3526 -2.0894 -0.6645 0
M  V30 40 H -2.7654 -0.0479 -1.9164 0
M  V30 41 H -1.1991 1.3208 -2.9521 0
M  V30 42 H 0.4154 -0.4752 -4.8236 0
M  V30 43 H 0.0434 1.2309 -5.1553 0
M  V30 44 H 3.3576 1.3374 -4.3342 0
M  V30 45 H 3.5524 2.8842 -0.1462 0
M  V30 46 H 1.8059 3.1746 1.5739 0
M  V30 47 H 0.1535 3.0836 1.055 0
M  V30 48 H -2.5397 -2.2046 -7.4171 0
M  V30 49 H -3.4334 -1.7928 -5.9396 0
M  V30 50 H -3.2058 -0.5682 -7.2417 0
M  V30 51 H -0.0588 0.0352 0.5931 0
M  V30 52 H -1.1532 1.0824 1.4996 0
M  V30 53 H 2.8841 1.2394 2.626 0
M  V30 54 H 2.5058 0.1599 1.2836 0
M  V30 55 H -1.2725 -1.3202 2.1741 0
M  V30 56 H 2.8358 -1.144 3.2744 0
M  V30 57 H 0.65 -2.3651 3.3676 0
M  V30 58 H 1.0733 -1.9281 1.7114 0
M  V30 59 H 2.0884 0.7969 4.8791 0
M  V30 60 H 1.8249 -0.8737 5.3369 0
M  V30 61 H -2.9738 -0.205 3.5407 0
M  V30 62 H -3.6294 0.6758 5.742 0
M  V30 63 H -1.8924 1.2443 7.4262 0
M  V30 END ATOM
M  V30 BEGIN BOND
M  V30 1 1 1 2
M  V30 2 2 2 3
M  V30 3 1 2 4
M  V30 4 1 3 5
M  V30 5 2 4 6
M  V30 6 2 5 7
M  V30 7 1 5 8
M  V30 8 1 8 9
M  V30 9 1 8 10
M  V30 10 1 9 11
M  V30 11 2 9 12
M  V30 12 1 10 13
M  V30 13 1 11 14
M  V30 14 1 12 15
M  V30 15 1 12 16
M  V30 16 2 13 17
M  V30 17 1 13 18
M  V30 18 2 14 19
M  V30 19 1 14 20
M  V30 20 2 16 21
M  V30 21 1 18 22
M  V30 22 1 20 23
M  V30 23 1 23 24
M  V30 24 1 23 25
M  V30 25 1 24 26
M  V30 26 1 25 27
M  V30 27 1 26 28
M  V30 28 1 26 29
M  V30 29 1 27 30
M  V30 30 1 28 31
M  V30 31 2 28 32
M  V30 32 1 31 33
M  V30 33 1 32 34
M  V30 34 2 33 35
M  V30 35 1 33 36
M  V30 36 1 6 7
M  V30 37 1 16 19
M  V30 38 1 27 29
M  V30 39 1 30 31
M  V30 40 2 34 36
M  V30 41 1 3 37
M  V30 42 1 4 38
M  V30 43 1 6 39
M  V30 44 1 7 40
M  V30 45 1 8 41
M  V30 46 1 10 42
M  V30 47 1 10 43
M  V30 48 1 15 44
M  V30 49 1 19 45
M  V30 50 1 20 46
M  V30 51 1 20 47
M  V30 52 1 22 48
M  V30 53 1 22 49
M  V30 54 1 22 50
M  V30 55 1 24 51
M  V30 56 1 24 52
M  V30 57 1 25 53
M  V30 58 1 25 54
M  V30 59 1 26 55
M  V30 60 1 27 56
M  V30 61 1 29 57
M  V30 62 1 29 58
M  V30 63 1 30 59
M  V30 64 1 30 60
M  V30 65 1 32 61
M  V30 66 1 34 62
M  V30 67 1 36 63
M  V30 END BOND
M  V30 BEGIN COLLECTION
M  V30 MDLV30/STEABS ATOMS=(3 8 26 27)
M  V30 END COLLECTION
M  V30 END CTAB
M  END
>  <NO.>
3912

>  <Name>
codeine

>  <SMILES>
COC(=O)C[C@@H](c1cccc(Br)c1)c1oc(CN2C[C@@H]3C[C@H](C2)c2cccc(=O)n2C3)cc(=O)c1O

>  <logBB>


>  <Class>
1

>  <MW>
554.11

>  <nHBAcc>
7

>  <nHBDon>
1

>  <SLogP>
3.58

>  <TopoPSA>
101.98

>  <MMFF94 Energy>
58.84

$$$$
COC(=O)C[C@@H](c1cccc(OC)c1OCCc1ccc(OC)cc1)c1c(O)c2ccccc2oc1=O
Actelion Java MolfileCreator 2.0

  0  0  0  0  0  0              0 V3000
M  V30 BEGIN CTAB
M  V30 COUNTS 65 68 0 0 0
M  V30 BEGIN ATOM
M  V30 1 O -0.7988 0.639 2.958 0
M  V30 2 C -1.4564 -0.1958 2.3415 0
M  V30 3 O -2.8065 0.0126 2.1111 0
M  V30 4 C -0.8383 -1.4547 1.8262 0
M  V30 5 C -3.6014 -0.9574 1.4865 0
M  V30 6 C -1.6113 -2.3639 1.1997 0
M  V30 7 C 0.6637 -1.5797 2.1138 0 CFG=2
M  V30 8 C -3.049 -2.1481 1.0338 0
M  V30 9 C -4.9597 -0.6701 1.3499 0
M  V30 10 O -1.1503 -3.5553 0.6805 0
M  V30 11 C 1.5002 -1.8253 0.8477 0
M  V30 12 C 0.9117 -2.5727 3.2656 0
M  V30 13 C -3.9014 -3.0784 0.4255 0
M  V30 14 C -5.7955 -1.6034 0.7428 0
M  V30 15 C 1.4902 -0.8758 -0.1982 0
M  V30 16 C 2.2971 -2.9692 0.6775 0
M  V30 17 C 0.2948 -2.0821 4.55 0
M  V30 18 C -5.2668 -2.8083 0.2813 0
M  V30 19 O 0.6779 0.2267 -0.0687 0
M  V30 20 C 2.1932 -1.0855 -1.4002 0
M  V30 21 C 3.0262 -3.1665 -0.4974 0
M  V30 22 O -0.7913 -2.4534 4.9719 0
M  V30 23 O 1.1043 -1.165 5.1444 0
M  V30 24 C 1.4355 1.4079 0.2397 0
M  V30 25 O 2.0492 -0.1221 -2.3616 0
M  V30 26 C 2.9718 -2.2332 -1.5334 0
M  V30 27 C 0.5446 -0.5745 6.3182 0
M  V30 28 C 0.5326 2.633 0.0754 0
M  V30 29 C 2.5996 -0.378 -3.6449 0
M  V30 30 C 0.3546 3.0315 -1.3722 0
M  V30 31 C -0.5278 2.329 -2.1999 0
M  V30 32 C 1.0877 4.0932 -1.9164 0
M  V30 33 C -0.6729 2.6849 -3.5425 0
M  V30 34 C 0.9386 4.4496 -3.2619 0
M  V30 35 C 0.0563 3.746 -4.0814 0
M  V30 36 O -0.178 3.9876 -5.4073 0
M  V30 37 C 0.5088 5.0876 -5.9893 0
M  V30 38 H 1.0517 -0.6203 2.4802 0
M  V30 39 H -5.3602 0.2708 1.7156 0
M  V30 40 H -0.2224 -3.4498 0.4173 0
M  V30 41 H 0.5068 -3.5685 3.0476 0
M  V30 42 H 1.9837 -2.7134 3.4539 0
M  V30 43 H -3.5098 -4.0241 0.0578 0
M  V30 44 H -6.8561 -1.3942 0.6306 0
M  V30 45 H 2.3663 -3.7373 1.444 0
M  V30 46 H -5.9154 -3.5411 -0.1922 0
M  V30 47 H 3.6381 -4.0592 -0.6102 0
M  V30 48 H 2.3327 1.5038 -0.3837 0
M  V30 49 H 1.7513 1.3439 1.2878 0
M  V30 50 H 3.5478 -2.4319 -2.4309 0
M  V30 51 H 1.2519 0.1704 6.6927 0
M  V30 52 H -0.3976 -0.0694 6.0831 0
M  V30 53 H 0.3962 -1.3327 7.0933 0
M  V30 54 H -0.4553 2.4466 0.5143 0
M  V30 55 H 0.9682 3.4762 0.6254 0
M  V30 56 H 3.6927 -0.4173 -3.6013 0
M  V30 57 H 2.3223 0.4536 -4.2997 0
M  V30 58 H 2.188 -1.2954 -4.0782 0
M  V30 59 H -1.0985 1.49 -1.8072 0
M  V30 60 H 1.7849 4.6524 -1.2967 0
M  V30 61 H -1.3592 2.1258 -4.1731 0
M  V30 62 H 1.5287 5.2788 -3.6359 0
M  V30 63 H 0.2385 6.0283 -5.498 0
M  V30 64 H 0.1993 5.1587 -7.0365 0
M  V30 65 H 1.5921 4.9292 -5.9729 0
M  V30 END ATOM
M  V30 BEGIN BOND
M  V30 1 2 1 2
M  V30 2 1 2 3
M  V30 3 1 2 4
M  V30 4 1 3 5
M  V30 5 2 4 6
M  V30 6 1 4 7
M  V30 7 2 5 8
M  V30 8 1 5 9
M  V30 9 1 6 10
M  V30 10 1 7 11
M  V30 11 1 7 12
M  V30 12 1 8 13
M  V30 13 2 9 14
M  V30 14 2 11 15
M  V30 15 1 11 16
M  V30 16 1 12 17
M  V30 17 2 13 18
M  V30 18 1 15 19
M  V30 19 1 15 20
M  V30 20 2 16 21
M  V30 21 2 17 22
M  V30 22 1 17 23
M  V30 23 1 19 24
M  V30 24 1 20 25
M  V30 25 2 20 26
M  V30 26 1 23 27
M  V30 27 1 24 28
M  V30 28 1 25 29
M  V30 29 1 28 30
M  V30 30 2 30 31
M  V30 31 1 30 32
M  V30 32 1 31 33
M  V30 33 2 32 34
M  V30 34 2 33 35
M  V30 35 1 35 36
M  V30 36 1 36 37
M  V30 37 1 6 8
M  V30 38 1 14 18
M  V30 39 1 21 26
M  V30 40 1 34 35
M  V30 41 1 7 38
M  V30 42 1 9 39
M  V30 43 1 10 40
M  V30 44 1 12 41
M  V30 45 1 12 42
M  V30 46 1 13 43
M  V30 47 1 14 44
M  V30 48 1 16 45
M  V30 49 1 18 46
M  V30 50 1 21 47
M  V30 51 1 24 48
M  V30 52 1 24 49
M  V30 53 1 26 50
M  V30 54 1 27 51
M  V30 55 1 27 52
M  V30 56 1 27 53
M  V30 57 1 28 54
M  V30 58 1 28 55
M  V30 59 1 29 56
M  V30 60 1 29 57
M  V30 61 1 29 58
M  V30 62 1 31 59
M  V30 63 1 32 60
M  V30 64 1 33 61
M  V30 65 1 34 62
M  V30 66 1 37 63
M  V30 67 1 37 64
M  V30 68 1 37 65
M  V30 END BOND
M  V30 BEGIN COLLECTION
M  V30 MDLV30/STEABS ATOMS=(1 7)
M  V30 END COLLECTION
M  V30 END CTAB
M  END
>  <NO.>
3913

>  <Name>
chloroquine

>  <SMILES>
COC(=O)C[C@@H](c1cccc(OC)c1OCCc1ccc(OC)cc1)c1c(O)c2ccccc2oc1=O

>  <logBB>


>  <Class>
1

>  <MW>
504.18

>  <nHBAcc>
8

>  <nHBDon>
1

>  <SLogP>
4.83

>  <TopoPSA>
104.43

>  <MMFF94 Energy>
88.721

$$$$
COC(=O)C[C@@H](c1ccccc1)c1c(O)c(C(=O)OC)c[nH]c1=O
Actelion Java MolfileCreator 2.0

  0  0  0  0  0  0              0 V3000
M  V30 BEGIN CTAB
M  V30 COUNTS 41 42 0 0 0
M  V30 BEGIN ATOM
M  V30 1 O -2.2255 1.7482 -1.1122 0
M  V30 2 C -1.9461 1.464 0.0469 0
M  V30 3 N -2.5371 2.1388 1.0855 0
M  V30 4 C -0.9656 0.3814 0.4085 0
M  V30 5 C -2.2499 1.9244 2.4064 0
M  V30 6 C -0.6903 0.213 1.7245 0
M  V30 7 C -0.3863 -0.4928 -0.7034 0 CFG=2
M  V30 8 C -1.3362 1.0083 2.7549 0
M  V30 9 O 0.1863 -0.7369 2.2041 0
M  V30 10 C 0.9746 0.017 -1.1764 0
M  V30 11 C -1.3208 -0.7894 -1.8946 0
M  V30 12 C -1.0701 0.8802 4.2074 0
M  V30 13 C 2.0976 -0.8248 -1.111 0
M  V30 14 C 1.1367 1.3092 -1.6996 0
M  V30 15 C -0.8937 -2.0338 -2.6382 0
M  V30 16 O -1.9495 0.8434 5.0575 0
M  V30 17 O 0.2656 0.9118 4.4473 0
M  V30 18 C 3.3496 -0.3784 -1.5372 0
M  V30 19 C 2.3903 1.7533 -2.1242 0
M  V30 20 O -0.3166 -2.989 -2.1354 0
M  V30 21 O -1.2921 -1.9598 -3.9388 0
M  V30 22 C 0.6089 0.8106 5.8282 0
M  V30 23 C 3.4964 0.9116 -2.0397 0
M  V30 24 C -0.941 -3.1003 -4.7226 0
M  V30 25 H -3.2117 2.8482 0.8209 0
M  V30 26 H -2.7815 2.5404 3.1266 0
M  V30 27 H -0.2115 -1.4687 -0.2282 0
M  V30 28 H 0.8259 -0.9693 1.5096 0
M  V30 29 H -2.3474 -0.966 -1.5527 0
M  V30 30 H -1.3248 0.0435 -2.607 0
M  V30 31 H 2.0056 -1.8465 -0.7455 0
M  V30 32 H 0.2887 1.9851 -1.7913 0
M  V30 33 H 4.2093 -1.0416 -1.4847 0
M  V30 34 H 2.5009 2.7573 -2.5263 0
M  V30 35 H 1.6995 0.805 5.9071 0
M  V30 36 H 0.2261 1.6739 6.3815 0
M  V30 37 H 0.227 -0.1229 6.2533 0
M  V30 38 H 4.4706 1.2584 -2.3742 0
M  V30 39 H -1.2864 -2.9278 -5.7456 0
M  V30 40 H 0.1451 -3.2335 -4.7416 0
M  V30 41 H -1.4357 -3.9968 -4.3361 0
M  V30 END ATOM
M  V30 BEGIN BOND
M  V30 1 2 1 2
M  V30 2 1 2 3
M  V30 3 1 2 4
M  V30 4 1 3 5
M  V30 5 2 4 6
M  V30 6 1 4 7
M  V30 7 2 5 8
M  V30 8 1 6 9
M  V30 9 1 7 10
M  V30 10 1 7 11
M  V30 11 1 8 12
M  V30 12 2 10 13
M  V30 13 1 10 14
M  V30 14 1 11 15
M  V30 15 2 12 16
M  V30 16 1 12 17
M  V30 17 1 13 18
M  V30 18 2 14 19
M  V30 19 2 15 20
M  V30 20 1 15 21
M  V30 21 1 17 22
M  V30 22 2 18 23
M  V30 23 1 21 24
M  V30 24 1 6 8
M  V30 25 1 19 23
M  V30 26 1 3 25
M  V30 27 1 5 26
M  V30 28 1 7 27
M  V30 29 1 9 28
M  V30 30 1 11 29
M  V30 31 1 11 30
M  V30 32 1 13 31
M  V30 33 1 14 32
M  V30 34 1 18 33
M  V30 35 1 19 34
M  V30 36 1 22 35
M  V30 37 1 22 36
M  V30 38 1 22 37
M  V30 39 1 23 38
M  V30 40 1 24 39
M  V30 41 1 24 40
M  V30 42 1 24 41
M  V30 END BOND
M  V30 BEGIN COLLECTION
M  V30 MDLV30/STEABS ATOMS=(1 7)
M  V30 END COLLECTION
M  V30 END CTAB
M  END
>  <NO.>
3914

>  <Name>
meloxicam

>  <SMILES>
COC(=O)C[C@@H](c1ccccc1)c1c(O)c(C(=O)OC)c[nH]c1=O

>  <logBB>


>  <Class>
-1

>  <MW>
331.11

>  <nHBAcc>
6

>  <nHBDon>
2

>  <SLogP>
1.56

>  <TopoPSA>
105.69

>  <MMFF94 Energy>
13.305

$$$$
COC(=O)C[C@H](CC(C)C)c1c(O)c(C(=O)OC)c[nH]c1=O
Actelion Java MolfileCreator 2.0

  0  0  0  0  0  0              0 V3000
M  V30 BEGIN CTAB
M  V30 COUNTS 43 43 0 0 0
M  V30 BEGIN ATOM
M  V30 1 O -2.2011 -1.8864 -0.9428 0
M  V30 2 C -2.0019 -0.816 -0.3792 0
M  V30 3 N -3.0442 -0.0927 0.1444 0
M  V30 4 C -0.628 -0.214 -0.2518 0
M  V30 5 C -2.9059 1.1247 0.7569 0
M  V30 6 C -0.5399 1.0176 0.3003 0
M  V30 7 C 0.5653 -1.0258 -0.7453 0 CFG=2
M  V30 8 C -1.6951 1.6899 0.8667 0
M  V30 9 O 0.6298 1.7478 0.3341 0
M  V30 10 C 0.6288 -1.0714 -2.2864 0
M  V30 11 C 0.6543 -2.4613 -0.1626 0
M  V30 12 C -1.6457 2.9952 1.5658 0
M  V30 13 C 1.0448 0.2621 -2.8626 0
M  V30 14 C 0.5734 -2.5675 1.3755 0
M  V30 15 O -2.4368 3.9057 1.3584 0
M  V30 16 O -0.6748 2.9862 2.5139 0
M  V30 17 O 1.464 1.2059 -2.2015 0
M  V30 18 O 0.9051 0.2496 -4.2153 0
M  V30 19 C 0.5913 -4.0417 1.7908 0
M  V30 20 C 1.7137 -1.8241 2.0728 0
M  V30 21 C -0.5634 4.2069 3.2431 0
M  V30 22 C 1.2756 1.4724 -4.8542 0
M  V30 23 H -3.9615 -0.5144 0.0516 0
M  V30 24 H -3.8137 1.5827 1.1402 0
M  V30 25 H 1.4843 -0.5328 -0.4023 0
M  V30 26 H 1.1382 1.5662 -0.4869 0
M  V30 27 H -0.3384 -1.3563 -2.7138 0
M  V30 28 H 1.379 -1.803 -2.6091 0
M  V30 29 H 1.6061 -2.903 -0.4904 0
M  V30 30 H -0.1227 -3.094 -0.6076 0
M  V30 31 H -0.3763 -2.1437 1.7221 0
M  V30 32 H -0.2436 -4.5843 1.3349 0
M  V30 33 H 1.5223 -4.5305 1.4841 0
M  V30 34 H 0.4984 -4.1412 2.8776 0
M  V30 35 H 1.6581 -0.7464 1.8946 0
M  V30 36 H 2.6897 -2.1776 1.7238 0
M  V30 37 H 1.6688 -1.9745 3.1571 0
M  V30 38 H 0.2691 4.1081 3.9451 0
M  V30 39 H -0.3491 5.0416 2.5681 0
M  V30 40 H -1.4778 4.3954 3.8146 0
M  V30 41 H 1.1138 1.3558 -5.9293 0
M  V30 42 H 0.6502 2.2965 -4.4965 0
M  V30 43 H 2.3352 1.6869 -4.6836 0
M  V30 END ATOM
M  V30 BEGIN BOND
M  V30 1 2 1 2
M  V30 2 1 2 3
M  V30 3 1 2 4
M  V30 4 1 3 5
M  V30 5 2 4 6
M  V30 6 1 4 7
M  V30 7 2 5 8
M  V30 8 1 6 9
M  V30 9 1 7 10
M  V30 10 1 7 11
M  V30 11 1 8 12
M  V30 12 1 10 13
M  V30 13 1 11 14
M  V30 14 2 12 15
M  V30 15 1 12 16
M  V30 16 2 13 17
M  V30 17 1 13 18
M  V30 18 1 14 19
M  V30 19 1 14 20
M  V30 20 1 16 21
M  V30 21 1 18 22
M  V30 22 1 6 8
M  V30 23 1 3 23
M  V30 24 1 5 24
M  V30 25 1 7 25
M  V30 26 1 9 26
M  V30 27 1 10 27
M  V30 28 1 10 28
M  V30 29 1 11 29
M  V30 30 1 11 30
M  V30 31 1 14 31
M  V30 32 1 19 32
M  V30 33 1 19 33
M  V30 34 1 19 34
M  V30 35 1 20 35
M  V30 36 1 20 36
M  V30 37 1 20 37
M  V30 38 1 21 38
M  V30 39 1 21 39
M  V30 40 1 21 40
M  V30 41 1 22 41
M  V30 42 1 22 42
M  V30 43 1 22 43
M  V30 END BOND
M  V30 BEGIN COLLECTION
M  V30 MDLV30/STEABS ATOMS=(1 7)
M  V30 END COLLECTION
M  V30 END CTAB
M  END
>  <NO.>
3916

>  <Name>
chlorpromazine

>  <SMILES>
COC(=O)C[C@H](CC(C)C)c1c(O)c(C(=O)OC)c[nH]c1=O

>  <logBB>


>  <Class>
1

>  <MW>
311.14

>  <nHBAcc>
6

>  <nHBDon>
2

>  <SLogP>
1.56

>  <TopoPSA>
105.69

>  <MMFF94 Energy>
-1.9179

$$$$
COC(=O)C[C@H](c1c(O)cc(C)n(CCc2ccc(O)cc2)c1=O)c1ccnc2ccccc12
Actelion Java MolfileCreator 2.0

  0  0  0  0  0  0              0 V3000
M  V30 BEGIN CTAB
M  V30 COUNTS 60 63 0 0 0
M  V30 BEGIN ATOM
M  V30 1 O -0.3188 0.3986 -0.7973 0
M  V30 2 C 0.364 0.4496 0.2257 0
M  V30 3 N 1.7616 0.5392 0.1925 0
M  V30 4 C -0.3065 0.4605 1.5746 0
M  V30 5 C 2.5192 0.7557 1.3431 0
M  V30 6 C 2.3886 0.4651 -1.1336 0
M  V30 7 C 0.4711 0.7317 2.6404 0
M  V30 8 C -1.8059 0.1901 1.6211 0 CFG=2
M  V30 9 C 1.8957 0.8678 2.5253 0
M  V30 10 C 4.0165 0.8734 1.2623 0
M  V30 11 C 2.4265 1.8316 -1.8286 0
M  V30 12 O 0.0361 0.8839 3.9355 0
M  V30 13 C -2.1798 -1.2159 1.1145 0
M  V30 14 C -2.5865 1.3725 1.0098 0
M  V30 15 C 3.1082 1.756 -3.1722 0
M  V30 16 C -2.0353 -2.381 1.933 0
M  V30 17 C -2.6643 -1.3909 -0.1898 0
M  V30 18 C -4.0241 1.3277 1.4563 0
M  V30 19 C 4.469 2.069 -3.3011 0
M  V30 20 C 2.3918 1.3433 -4.3045 0
M  V30 21 C -2.4213 -3.6274 1.3756 0
M  V30 22 C -1.5355 -2.3863 3.2608 0
M  V30 23 C -3.0017 -2.6567 -0.6261 0
M  V30 24 O -4.3699 1.4242 2.6273 0
M  V30 25 O -4.8585 1.1653 0.3962 0
M  V30 26 C 5.1016 1.9795 -4.5433 0
M  V30 27 C 3.0242 1.2534 -5.5449 0
M  V30 28 N -2.8995 -3.7616 0.1317 0
M  V30 29 C -2.3064 -4.7834 2.1355 0
M  V30 30 C -1.4269 -3.5632 4.004 0
M  V30 31 C -6.2393 1.0755 0.7501 0
M  V30 32 C 4.3719 1.5723 -5.6555 0
M  V30 33 C -1.8155 -4.7665 3.4401 0
M  V30 34 O 4.9498 1.4708 -6.8862 0
M  V30 35 H 3.3906 0.0297 -1.0566 0
M  V30 36 H 1.8157 -0.2407 -1.7497 0
M  V30 37 H -2.1213 0.183 2.6707 0
M  V30 38 H 2.4533 1.0401 3.4419 0
M  V30 39 H 4.3131 1.676 0.5803 0
M  V30 40 H 4.4608 -0.0678 0.9233 0
M  V30 41 H 4.4606 1.1041 2.2375 0
M  V30 42 H 1.4101 2.2241 -1.961 0
M  V30 43 H 2.94 2.5676 -1.1975 0
M  V30 44 H -0.9209 1.0445 3.9578 0
M  V30 45 H -2.1846 2.3311 1.3643 0
M  V30 46 H -2.5334 1.4153 -0.082 0
M  V30 47 H -2.765 -0.5687 -0.8901 0
M  V30 48 H 5.0444 2.3866 -2.4344 0
M  V30 49 H 1.3363 1.0889 -4.2261 0
M  V30 50 H -1.2125 -1.472 3.7461 0
M  V30 51 H -3.3721 -2.8183 -1.6345 0
M  V30 52 H 6.1548 2.229 -4.6221 0
M  V30 53 H 2.4668 0.9348 -6.4211 0
M  V30 54 H -2.6075 -5.7307 1.6934 0
M  V30 55 H -1.0375 -3.5338 5.0185 0
M  V30 56 H -6.8157 0.932 -0.1679 0
M  V30 57 H -6.412 0.216 1.4055 0
M  V30 58 H -6.573 2.002 1.2281 0
M  V30 59 H -1.7373 -5.6915 4.0044 0
M  V30 60 H 5.883 1.728 -6.8116 0
M  V30 END ATOM
M  V30 BEGIN BOND
M  V30 1 2 1 2
M  V30 2 1 2 3
M  V30 3 1 2 4
M  V30 4 1 3 5
M  V30 5 1 3 6
M  V30 6 2 4 7
M  V30 7 1 4 8
M  V30 8 2 5 9
M  V30 9 1 5 10
M  V30 10 1 6 11
M  V30 11 1 7 12
M  V30 12 1 8 13
M  V30 13 1 8 14
M  V30 14 1 11 15
M  V30 15 1 13 16
M  V30 16 2 13 17
M  V30 17 1 14 18
M  V30 18 2 15 19
M  V30 19 1 15 20
M  V30 20 1 16 21
M  V30 21 2 16 22
M  V30 22 1 17 23
M  V30 23 2 18 24
M  V30 24 1 18 25
M  V30 25 1 19 26
M  V30 26 2 20 27
M  V30 27 1 21 28
M  V30 28 2 21 29
M  V30 29 1 22 30
M  V30 30 1 25 31
M  V30 31 2 26 32
M  V30 32 1 29 33
M  V30 33 1 32 34
M  V30 34 1 7 9
M  V30 35 2 23 28
M  V30 36 1 27 32
M  V30 37 2 30 33
M  V30 38 1 6 35
M  V30 39 1 6 36
M  V30 40 1 8 37
M  V30 41 1 9 38
M  V30 42 1 10 39
M  V30 43 1 10 40
M  V30 44 1 10 41
M  V30 45 1 11 42
M  V30 46 1 11 43
M  V30 47 1 12 44
M  V30 48 1 14 45
M  V30 49 1 14 46
M  V30 50 1 17 47
M  V30 51 1 19 48
M  V30 52 1 20 49
M  V30 53 1 22 50
M  V30 54 1 23 51
M  V30 55 1 26 52
M  V30 56 1 27 53
M  V30 57 1 29 54
M  V30 58 1 30 55
M  V30 59 1 31 56
M  V30 60 1 31 57
M  V30 61 1 31 58
M  V30 62 1 33 59
M  V30 63 1 34 60
M  V30 END BOND
M  V30 BEGIN COLLECTION
M  V30 MDLV30/STEABS ATOMS=(1 8)
M  V30 END COLLECTION
M  V30 END CTAB
M  END
>  <NO.>
3917

>  <Name>
epinephrine

>  <SMILES>
COC(=O)C[C@H](c1c(O)cc(C)n(CCc2ccc(O)cc2)c1=O)c1ccnc2ccccc12

>  <logBB>


>  <Class>
-1

>  <MW>
458.18

>  <nHBAcc>
6

>  <nHBDon>
2

>  <SLogP>
4.05

>  <TopoPSA>
101.65

>  <MMFF94 Energy>
32.594

$$$$
COC(=O)C[C@H](c1cc(Cl)c2c(c1)OCO2)c1c(O)c(C(=O)OC)c[nH]c1=O
Actelion Java MolfileCreator 2.0

  0  0  0  0  0  0              0 V3000
M  V30 BEGIN CTAB
M  V30 COUNTS 44 46 0 0 0
M  V30 BEGIN ATOM
M  V30 1 Cl -0.243 -4.381 1.8642 0
M  V30 2 C 0.436 -2.8029 1.859 0
M  V30 3 C 1.6656 -2.5432 2.4257 0
M  V30 4 C -0.2592 -1.7435 1.2663 0
M  V30 5 O 2.4913 -3.4324 3.0447 0
M  V30 6 C 2.1968 -1.2755 2.4042 0
M  V30 7 C 0.2764 -0.43 1.2479 0
M  V30 8 C 3.5959 -2.5821 3.4074 0
M  V30 9 O 3.4172 -1.2109 3.0034 0
M  V30 10 C 1.5377 -0.2079 1.8248 0
M  V30 11 C -0.5298 0.6809 0.5689 0 CFG=2
M  V30 12 C -0.2069 0.7668 -0.9177 0
M  V30 13 C -0.4866 2.047 1.2774 0
M  V30 14 C 1.0774 1.4116 -1.3391 0
M  V30 15 C -1.0197 0.291 -1.8858 0
M  V30 16 C -1.1768 1.9644 2.6149 0
M  V30 17 O 1.8719 1.9017 -0.5454 0
M  V30 18 N 1.3302 1.4459 -2.6873 0
M  V30 19 O -2.2182 -0.3158 -1.5416 0
M  V30 20 C -0.6758 0.3746 -3.307 0
M  V30 21 O -2.3778 1.7754 2.7562 0
M  V30 22 O -0.2828 2.1197 3.6289 0
M  V30 23 C 0.4902 0.9479 -3.6475 0
M  V30 24 C -1.5862 -0.1634 -4.3583 0
M  V30 25 C -0.8562 2.0155 4.9322 0
M  V30 26 O -2.6583 -0.6898 -4.0805 0
M  V30 27 O -1.0926 2.0E-4 -5.6106 0
M  V30 28 C -1.9396 -0.507 -6.6438 0
M  V30 29 H -1.2303 -1.9352 0.8106 0
M  V30 30 H 4.5069 -2.9705 2.938 0
M  V30 31 H 3.7209 -2.6139 4.496 0
M  V30 32 H 2.0121 0.7687 1.8204 0
M  V30 33 H -1.5795 0.3654 0.6614 0
M  V30 34 H 0.5278 2.4303 1.4224 0
M  V30 35 H -1.018 2.8088 0.6929 0
M  V30 36 H 2.2076 1.8808 -2.9512 0
M  V30 37 H -2.6975 -0.6061 -2.3482 0
M  V30 38 H 0.8368 1.0554 -4.6707 0
M  V30 39 H -0.0553 2.1423 5.6658 0
M  V30 40 H -1.598 2.8049 5.0888 0
M  V30 41 H -1.3041 1.0272 5.0761 0
M  V30 42 H -1.4484 -0.3255 -7.6037 0
M  V30 43 H -2.0834 -1.5855 -6.5261 0
M  V30 44 H -2.9011 0.0159 -6.6418 0
M  V30 END ATOM
M  V30 BEGIN BOND
M  V30 1 1 1 2
M  V30 2 2 2 3
M  V30 3 1 2 4
M  V30 4 1 3 5
M  V30 5 1 3 6
M  V30 6 2 4 7
M  V30 7 1 5 8
M  V30 8 1 6 9
M  V30 9 2 6 10
M  V30 10 1 7 11
M  V30 11 1 11 12
M  V30 12 1 11 13
M  V30 13 1 12 14
M  V30 14 2 12 15
M  V30 15 1 13 16
M  V30 16 2 14 17
M  V30 17 1 14 18
M  V30 18 1 15 19
M  V30 19 1 15 20
M  V30 20 2 16 21
M  V30 21 1 16 22
M  V30 22 1 18 23
M  V30 23 1 20 24
M  V30 24 1 22 25
M  V30 25 2 24 26
M  V30 26 1 24 27
M  V30 27 1 27 28
M  V30 28 1 7 10
M  V30 29 1 8 9
M  V30 30 2 20 23
M  V30 31 1 4 29
M  V30 32 1 8 30
M  V30 33 1 8 31
M  V30 34 1 10 32
M  V30 35 1 11 33
M  V30 36 1 13 34
M  V30 37 1 13 35
M  V30 38 1 18 36
M  V30 39 1 19 37
M  V30 40 1 23 38
M  V30 41 1 25 39
M  V30 42 1 25 40
M  V30 43 1 25 41
M  V30 44 1 28 42
M  V30 45 1 28 43
M  V30 46 1 28 44
M  V30 END BOND
M  V30 BEGIN COLLECTION
M  V30 MDLV30/STEABS ATOMS=(1 11)
M  V30 END COLLECTION
M  V30 END CTAB
M  END
>  <NO.>
3918

>  <Name>
hydrocortisone

>  <SMILES>
COC(=O)C[C@H](c1cc(Cl)c2c(c1)OCO2)c1c(O)c(C(=O)OC)c[nH]c1=O

>  <logBB>


>  <Class>
-1

>  <MW>
409.06

>  <nHBAcc>
8

>  <nHBDon>
2

>  <SLogP>
1.94

>  <TopoPSA>
124.15

>  <MMFF94 Energy>
14.5

$$$$
COC(=O)C[C@H](c1cc(OC)c(OC)cc1OC)c1c(O)cc(C)oc1=O
Actelion Java MolfileCreator 2.0

  0  0  0  0  0  0              0 V3000
M  V30 BEGIN CTAB
M  V30 COUNTS 49 50 0 0 0
M  V30 BEGIN ATOM
M  V30 1 O -2.8537 -2.3777 0.4751 0
M  V30 2 C -2.0786 -2.5834 -0.4545 0
M  V30 3 O -2.0293 -3.8118 -1.0545 0
M  V30 4 C -1.1869 -1.499 -0.9789 0
M  V30 5 C -1.2288 -4.0366 -2.191 0
M  V30 6 C -0.4434 -1.774 -2.0687 0
M  V30 7 C -1.27 -0.1913 -0.1858 0 CFG=1
M  V30 8 C -0.4711 -3.0621 -2.6979 0
M  V30 9 C -1.3214 -5.4168 -2.7514 0
M  V30 10 O 0.3983 -0.9103 -2.7206 0
M  V30 11 C 0.1007 0.4474 0.0976 0
M  V30 12 C -2.3374 0.705 -0.8408 0
M  V30 13 C 1.0156 -0.2111 0.9545 0
M  V30 14 C 0.4888 1.6734 -0.465 0
M  V30 15 C -2.7522 1.8468 0.0526 0
M  V30 16 O 0.5765 -1.4004 1.4798 0
M  V30 17 C 2.278 0.3454 1.2161 0
M  V30 18 C 1.7393 2.2252 -0.1791 0
M  V30 19 O -2.5151 3.0226 -0.1917 0
M  V30 20 O -3.4329 1.3924 1.1371 0
M  V30 21 C 1.436 -2.101 2.369 0
M  V30 22 C 2.6551 1.5622 0.6429 0
M  V30 23 O 2.0622 3.4041 -0.8042 0
M  V30 24 C -3.8613 2.4183 2.0329 0
M  V30 25 O 3.8642 2.1795 0.8243 0
M  V30 26 C 1.8088 4.5044 0.0704 0
M  V30 27 C 4.8687 1.4645 1.53 0
M  V30 28 H -1.6449 -0.4134 0.8231 0
M  V30 29 H 0.1462 -3.2204 -3.5768 0
M  V30 30 H -0.6887 -5.5429 -3.6359 0
M  V30 31 H -1.0057 -6.1504 -2.003 0
M  V30 32 H -2.3535 -5.6394 -3.0401 0
M  V30 33 H 0.518 -0.0971 -2.2073 0
M  V30 34 H -3.2488 0.1378 -1.0728 0
M  V30 35 H -1.993 1.1148 -1.7979 0
M  V30 36 H -0.1581 2.2326 -1.1358 0
M  V30 37 H 2.9683 -0.1723 1.8685 0
M  V30 38 H 2.3567 -2.4103 1.8642 0
M  V30 39 H 0.9142 -3.0067 2.6927 0
M  V30 40 H 1.6522 -1.5046 3.2613 0
M  V30 41 H -4.3845 1.9432 2.8672 0
M  V30 42 H -3.0 2.9646 2.43 0
M  V30 43 H -4.5554 3.0996 1.531 0
M  V30 44 H 0.7547 4.5384 0.3685 0
M  V30 45 H 2.0346 5.4246 -0.4766 0
M  V30 46 H 2.4529 4.4714 0.9553 0
M  V30 47 H 4.5836 1.3183 2.5769 0
M  V30 48 H 5.7813 2.0681 1.5157 0
M  V30 49 H 5.0934 0.5097 1.0433 0
M  V30 END ATOM
M  V30 BEGIN BOND
M  V30 1 2 1 2
M  V30 2 1 2 3
M  V30 3 1 2 4
M  V30 4 1 3 5
M  V30 5 2 4 6
M  V30 6 1 4 7
M  V30 7 2 5 8
M  V30 8 1 5 9
M  V30 9 1 6 10
M  V30 10 1 7 11
M  V30 11 1 7 12
M  V30 12 2 11 13
M  V30 13 1 11 14
M  V30 14 1 12 15
M  V30 15 1 13 16
M  V30 16 1 13 17
M  V30 17 2 14 18
M  V30 18 2 15 19
M  V30 19 1 15 20
M  V30 20 1 16 21
M  V30 21 2 17 22
M  V30 22 1 18 23
M  V30 23 1 20 24
M  V30 24 1 22 25
M  V30 25 1 23 26
M  V30 26 1 25 27
M  V30 27 1 6 8
M  V30 28 1 18 22
M  V30 29 1 7 28
M  V30 30 1 8 29
M  V30 31 1 9 30
M  V30 32 1 9 31
M  V30 33 1 9 32
M  V30 34 1 10 33
M  V30 35 1 12 34
M  V30 36 1 12 35
M  V30 37 1 14 36
M  V30 38 1 17 37
M  V30 39 1 21 38
M  V30 40 1 21 39
M  V30 41 1 21 40
M  V30 42 1 24 41
M  V30 43 1 24 42
M  V30 44 1 24 43
M  V30 45 1 26 44
M  V30 46 1 26 45
M  V30 47 1 26 46
M  V30 48 1 27 47
M  V30 49 1 27 48
M  V30 50 1 27 49
M  V30 END BOND
M  V30 BEGIN COLLECTION
M  V30 MDLV30/STEABS ATOMS=(1 7)
M  V30 END COLLECTION
M  V30 END CTAB
M  END
>  <NO.>
3919

>  <Name>
methamphetamine

>  <SMILES>
COC(=O)C[C@H](c1cc(OC)c(OC)cc1OC)c1c(O)cc(C)oc1=O

>  <logBB>


>  <Class>
1

>  <MW>
378.13

>  <nHBAcc>
8

>  <nHBDon>
1

>  <SLogP>
2.37

>  <TopoPSA>
104.43

>  <MMFF94 Energy>
38.834

$$$$
COC(=O)C[C@H](c1cc(OC)c2c(c1)OCO2)c1oc(CN2C[C@@H]3C[C@H](C2)c2cccc(=O)n2C3)cc(=O)c1O
Actelion Java MolfileCreator 2.0

  0  0  0  0  0  0              0 V3000
M  V30 BEGIN CTAB
M  V30 COUNTS 70 75 0 0 0
M  V30 BEGIN ATOM
M  V30 1 O 4.2018 -1.776 -5.7405 0
M  V30 2 C 3.2933 -2.1524 -5.0028 0
M  V30 3 N 2.098 -1.4565 -4.7939 0
M  V30 4 C 3.4401 -3.443 -4.2823 0
M  V30 5 C 1.0898 -1.9424 -3.9569 0
M  V30 6 C 1.9397 -0.2126 -5.5491 0
M  V30 7 C 2.4521 -3.8925 -3.502 0
M  V30 8 C 1.246 -3.1262 -3.338 0
M  V30 9 C -0.1707 -1.1174 -3.7618 0 CFG=1
M  V30 10 C 0.6675 0.606 -5.2849 0 CFG=1
M  V30 11 C -0.0113 -0.1307 -2.5775 0
M  V30 12 C -0.4988 -0.3401 -5.0331 0
M  V30 13 C 0.8264 1.5728 -4.0942 0
M  V30 14 N 1.0297 0.8879 -2.8102 0
M  V30 15 C 1.1285 1.8605 -1.7112 0
M  V30 16 C 1.6771 1.2673 -0.4362 0
M  V30 17 O 0.717 0.7224 0.403 0
M  V30 18 C 2.9796 1.3095 -0.1219 0
M  V30 19 C 1.0989 0.1456 1.6096 0
M  V30 20 C 3.4176 0.7262 1.1518 0
M  V30 21 C 2.3777 0.1166 2.0176 0
M  V30 22 C -0.0486 -0.4547 2.4074 0 CFG=1
M  V30 23 O 4.5911 0.7301 1.5099 0
M  V30 24 O 2.784 -0.4499 3.2099 0
M  V30 25 C -0.9648 0.6397 2.9595 0
M  V30 26 C -0.7888 -1.5126 1.5725 0
M  V30 27 C -0.8572 0.9979 4.3299 0
M  V30 28 C -1.8901 1.3154 2.1469 0
M  V30 29 C -1.7927 -2.2502 2.4203 0
M  V30 30 C -1.6625 1.9971 4.8923 0
M  V30 31 C -2.6697 2.2962 2.7222 0
M  V30 32 O -1.5332 -2.7903 3.4868 0
M  V30 33 O -3.0148 -2.2439 1.8198 0
M  V30 34 O -1.6416 2.4117 6.1922 0
M  V30 35 C -2.5631 2.6284 4.0526 0
M  V30 36 O -3.607 3.0358 2.0694 0
M  V30 37 C -4.0348 -2.8987 2.5753 0
M  V30 38 C -0.7428 1.7454 7.0686 0
M  V30 39 O -3.4303 3.623 4.3988 0
M  V30 40 C -4.0844 3.873 3.1423 0
M  V30 41 H 4.3657 -3.982 -4.4322 0
M  V30 42 H 1.9453 -0.5057 -6.6081 0
M  V30 43 H 2.8359 0.4039 -5.4038 0
M  V30 44 H 2.5443 -4.8348 -2.9728 0
M  V30 45 H 0.4804 -3.5297 -2.6827 0
M  V30 46 H -1.0144 -1.7846 -3.5413 0
M  V30 47 H 0.4594 1.2139 -6.1745 0
M  V30 48 H 0.228 -0.7164 -1.6825 0
M  V30 49 H -0.9786 0.3562 -2.3928 0
M  V30 50 H -0.6425 -1.0174 -5.8841 0
M  V30 51 H -1.4315 0.2235 -4.9089 0
M  V30 52 H 1.679 2.2336 -4.2955 0
M  V30 53 H -0.0654 2.2123 -4.0404 0
M  V30 54 H 0.157 2.333 -1.5131 0
M  V30 55 H 1.7991 2.6771 -2.013 0
M  V30 56 H 3.7366 1.7386 -0.7642 0
M  V30 57 H 0.3678 -0.9885 3.2729 0
M  V30 58 H 3.7563 -0.3145 3.2334 0
M  V30 59 H -0.0909 -2.2605 1.1761 0
M  V30 60 H -1.2931 -1.0685 0.7061 0
M  V30 61 H -0.1266 0.4717 4.9395 0
M  V30 62 H -1.9999 1.0968 1.0906 0
M  V30 63 H -4.9729 -2.8174 2.0194 0
M  V30 64 H -3.7968 -3.9595 2.7006 0
M  V30 65 H -4.1652 -2.4119 3.5471 0
M  V30 66 H -0.9794 0.6787 7.1418 0
M  V30 67 H -0.8622 2.1815 8.0651 0
M  V30 68 H 0.2962 1.9004 6.7601 0
M  V30 69 H -3.9248 4.9215 2.8653 0
M  V30 70 H -5.1603 3.7036 3.266 0
M  V30 END ATOM
M  V30 BEGIN BOND
M  V30 1 2 1 2
M  V30 2 1 2 3
M  V30 3 1 2 4
M  V30 4 1 3 5
M  V30 5 1 3 6
M  V30 6 2 4 7
M  V30 7 2 5 8
M  V30 8 1 5 9
M  V30 9 1 6 10
M  V30 10 1 9 11
M  V30 11 1 9 12
M  V30 12 1 10 13
M  V30 13 1 11 14
M  V30 14 1 14 15
M  V30 15 1 15 16
M  V30 16 1 16 17
M  V30 17 2 16 18
M  V30 18 1 17 19
M  V30 19 1 18 20
M  V30 20 2 19 21
M  V30 21 1 19 22
M  V30 22 2 20 23
M  V30 23 1 21 24
M  V30 24 1 22 25
M  V30 25 1 22 26
M  V30 26 2 25 27
M  V30 27 1 25 28
M  V30 28 1 26 29
M  V30 29 1 27 30
M  V30 30 2 28 31
M  V30 31 2 29 32
M  V30 32 1 29 33
M  V30 33 1 30 34
M  V30 34 2 30 35
M  V30 35 1 31 36
M  V30 36 1 33 37
M  V30 37 1 34 38
M  V30 38 1 35 39
M  V30 39 1 36 40
M  V30 40 1 7 8
M  V30 41 1 10 12
M  V30 42 1 13 14
M  V30 43 1 20 21
M  V30 44 1 31 35
M  V30 45 1 39 40
M  V30 46 1 4 41
M  V30 47 1 6 42
M  V30 48 1 6 43
M  V30 49 1 7 44
M  V30 50 1 8 45
M  V30 51 1 9 46
M  V30 52 1 10 47
M  V30 53 1 11 48
M  V30 54 1 11 49
M  V30 55 1 12 50
M  V30 56 1 12 51
M  V30 57 1 13 52
M  V30 58 1 13 53
M  V30 59 1 15 54
M  V30 60 1 15 55
M  V30 61 1 18 56
M  V30 62 1 22 57
M  V30 63 1 24 58
M  V30 64 1 26 59
M  V30 65 1 26 60
M  V30 66 1 27 61
M  V30 67 1 28 62
M  V30 68 1 37 63
M  V30 69 1 37 64
M  V30 70 1 37 65
M  V30 71 1 38 66
M  V30 72 1 38 67
M  V30 73 1 38 68
M  V30 74 1 40 69
M  V30 75 1 40 70
M  V30 END BOND
M  V30 BEGIN COLLECTION
M  V30 MDLV30/STEABS ATOMS=(3 9 10 22)
M  V30 END COLLECTION
M  V30 END CTAB
M  END
>  <NO.>
3920

>  <Name>
lamotrigine

>  <SMILES>
COC(=O)C[C@H](c1cc(OC)c2c(c1)OCO2)c1oc(CN2C[C@@H]3C[C@H](C2)c2cccc(=O)n2C3)cc(=O)c1O

>  <logBB>


>  <Class>
1

>  <MW>
550.2

>  <nHBAcc>
10

>  <nHBDon>
1

>  <SLogP>
2.56

>  <TopoPSA>
129.67

>  <MMFF94 Energy>
76.027

$$$$
COC(=O)C[C@H](c1ccc(C(C)C)cc1)c1oc(CN2C[C@@H]3C[C@H](C2)c2cccc(=O)n2C3)cc(=O)c1O
Actelion Java MolfileCreator 2.0

  0  0  0  0  0  0              0 V3000
M  V30 BEGIN CTAB
M  V30 COUNTS 72 76 0 0 0
M  V30 BEGIN ATOM
M  V30 1 O -2.3249 2.967 -1.1218 0
M  V30 2 C -1.1354 3.1335 -0.8581 0
M  V30 3 N -0.0861 2.9449 -1.7627 0
M  V30 4 C -0.7592 3.5809 0.5068 0
M  V30 5 C 1.2475 3.1604 -1.4079 0
M  V30 6 C -0.4694 2.5502 -3.1189 0
M  V30 7 C 0.5244 3.7847 0.8172 0
M  V30 8 C 1.5525 3.576 -0.1658 0
M  V30 9 C 2.332 2.9371 -2.4445 0 CFG=1
M  V30 10 C 0.6659 2.3218 -4.1283 0 CFG=1
M  V30 11 C 2.838 1.474 -2.4272 0
M  V30 12 C 1.8094 3.2839 -3.8356 0
M  V30 13 C 1.1883 0.8713 -4.1123 0
M  V30 14 N 1.8193 0.4904 -2.8426 0
M  V30 15 C 2.3697 -0.8717 -2.9203 0
M  V30 16 C 2.6506 -1.48 -1.5679 0
M  V30 17 O 1.5194 -1.9033 -0.8852 0
M  V30 18 C 3.8921 -1.6439 -1.0903 0
M  V30 19 C 1.6491 -2.5268 0.3523 0
M  V30 20 C 4.0642 -2.2625 0.2295 0
M  V30 21 C 2.8435 -2.7239 0.9343 0
M  V30 22 C 0.3376 -3.0013 0.9607 0 CFG=1
M  V30 23 O 5.1705 -2.4164 0.7379 0
M  V30 24 O 3.0035 -3.3492 2.1553 0
M  V30 25 C -0.4875 -1.8441 1.5173 0
M  V30 26 C -0.449 -3.8628 -0.0409 0
M  V30 27 C -1.1411 -0.9234 0.6875 0
M  V30 28 C -0.6216 -1.6991 2.906 0
M  V30 29 C -1.6143 -4.5313 0.6406 0
M  V30 30 C -1.9325 0.0921 1.2318 0
M  V30 31 C -1.4057 -0.6774 3.449 0
M  V30 32 O -1.5085 -5.3054 1.5829 0
M  V30 33 O -2.7862 -4.1649 0.0532 0
M  V30 34 C -2.0742 0.2307 2.6186 0
M  V30 35 C -3.9458 -4.7126 0.68 0
M  V30 36 C -2.9499 1.3355 3.1804 0
M  V30 37 C -4.1971 0.7609 3.856 0
M  V30 38 C -2.1806 2.2448 4.1425 0
M  V30 39 H -1.5652 3.7229 1.2131 0
M  V30 40 H -1.1031 3.3643 -3.4974 0
M  V30 41 H -1.1204 1.669 -3.0559 0
M  V30 42 H 0.814 4.1029 1.8127 0
M  V30 43 H 2.5794 3.7532 0.1381 0
M  V30 44 H 3.1838 3.5953 -2.2277 0
M  V30 45 H 0.2742 2.5155 -5.1349 0
M  V30 46 H 3.1878 1.2419 -1.414 0
M  V30 47 H 3.7122 1.4062 -3.0893 0
M  V30 48 H 1.4646 4.3246 -3.8806 0
M  V30 49 H 2.6047 3.1758 -4.583 0
M  V30 50 H 0.348 0.1966 -4.3185 0
M  V30 51 H 1.9034 0.7494 -4.9375 0
M  V30 52 H 3.2684 -0.8896 -3.5514 0
M  V30 53 H 1.6463 -1.5342 -3.4154 0
M  V30 54 H 4.7842 -1.3321 -1.6149 0
M  V30 55 H 0.5731 -3.6621 1.8068 0
M  V30 56 H 3.9695 -3.3321 2.3247 0
M  V30 57 H 0.1799 -4.6602 -0.4562 0
M  V30 58 H -0.8076 -3.2776 -0.8961 0
M  V30 59 H -1.0505 -0.9825 -0.3948 0
M  V30 60 H -0.1238 -2.3928 3.5815 0
M  V30 61 H -2.4431 0.7742 0.5541 0
M  V30 62 H -1.4958 -0.6076 4.5303 0
M  V30 63 H -4.8264 -4.3333 0.1542 0
M  V30 64 H -3.9412 -5.8044 0.6055 0
M  V30 65 H -4.004 -4.3946 1.7258 0
M  V30 66 H -3.2913 1.9669 2.3493 0
M  V30 67 H -3.9433 0.1496 4.729 0
M  V30 68 H -4.8586 1.5661 4.1934 0
M  V30 69 H -4.7636 0.1306 3.1614 0
M  V30 70 H -1.8728 1.7157 5.0507 0
M  V30 71 H -1.2783 2.6457 3.6682 0
M  V30 72 H -2.8031 3.0925 4.4492 0
M  V30 END ATOM
M  V30 BEGIN BOND
M  V30 1 2 1 2
M  V30 2 1 2 3
M  V30 3 1 2 4
M  V30 4 1 3 5
M  V30 5 1 3 6
M  V30 6 2 4 7
M  V30 7 2 5 8
M  V30 8 1 5 9
M  V30 9 1 6 10
M  V30 10 1 9 11
M  V30 11 1 9 12
M  V30 12 1 10 13
M  V30 13 1 11 14
M  V30 14 1 14 15
M  V30 15 1 15 16
M  V30 16 1 16 17
M  V30 17 2 16 18
M  V30 18 1 17 19
M  V30 19 1 18 20
M  V30 20 2 19 21
M  V30 21 1 19 22
M  V30 22 2 20 23
M  V30 23 1 21 24
M  V30 24 1 22 25
M  V30 25 1 22 26
M  V30 26 2 25 27
M  V30 27 1 25 28
M  V30 28 1 26 29
M  V30 29 1 27 30
M  V30 30 2 28 31
M  V30 31 2 29 32
M  V30 32 1 29 33
M  V30 33 2 30 34
M  V30 34 1 33 35
M  V30 35 1 34 36
M  V30 36 1 36 37
M  V30 37 1 36 38
M  V30 38 1 7 8
M  V30 39 1 10 12
M  V30 40 1 13 14
M  V30 41 1 20 21
M  V30 42 1 31 34
M  V30 43 1 4 39
M  V30 44 1 6 40
M  V30 45 1 6 41
M  V30 46 1 7 42
M  V30 47 1 8 43
M  V30 48 1 9 44
M  V30 49 1 10 45
M  V30 50 1 11 46
M  V30 51 1 11 47
M  V30 52 1 12 48
M  V30 53 1 12 49
M  V30 54 1 13 50
M  V30 55 1 13 51
M  V30 56 1 15 52
M  V30 57 1 15 53
M  V30 58 1 18 54
M  V30 59 1 22 55
M  V30 60 1 24 56
M  V30 61 1 26 57
M  V30 62 1 26 58
M  V30 63 1 27 59
M  V30 64 1 28 60
M  V30 65 1 30 61
M  V30 66 1 31 62
M  V30 67 1 35 63
M  V30 68 1 35 64
M  V30 69 1 35 65
M  V30 70 1 36 66
M  V30 71 1 37 67
M  V30 72 1 37 68
M  V30 73 1 37 69
M  V30 74 1 38 70
M  V30 75 1 38 71
M  V30 76 1 38 72
M  V30 END BOND
M  V30 BEGIN COLLECTION
M  V30 MDLV30/STEABS ATOMS=(3 9 10 22)
M  V30 END COLLECTION
M  V30 END CTAB
M  END
>  <NO.>
3921

>  <Name>
salbutamol

>  <SMILES>
COC(=O)C[C@H](c1ccc(C(C)C)cc1)c1oc(CN2C[C@@H]3C[C@H](C2)c2cccc(=O)n2C3)cc(=O)c1O

>  <logBB>


>  <Class>
-1

>  <MW>
518.24

>  <nHBAcc>
7

>  <nHBDon>
1

>  <SLogP>
3.94

>  <TopoPSA>
101.98

>  <MMFF94 Energy>
65.372

$$$$
COC(=O)C[C@H](c1ccccc1)c1c(O)cc(C)oc1=O
Actelion Java MolfileCreator 2.0

  0  0  0  0  0  0              0 V3000
M  V30 BEGIN CTAB
M  V30 COUNTS 37 38 0 0 0
M  V30 BEGIN ATOM
M  V30 1 O 1.5115 1.9891 -1.2727 0
M  V30 2 C 0.7214 2.2344 -0.367 0
M  V30 3 O 0.4238 3.5322 -0.0485 0
M  V30 4 C 0.0605 1.1462 0.4127 0
M  V30 5 C -0.5022 3.8476 0.9659 0
M  V30 6 C -0.8388 1.5111 1.3481 0
M  V30 7 C 0.4544 -0.3067 0.145 0 CFG=1
M  V30 8 C -1.1225 2.8823 1.6473 0
M  V30 9 C -0.7102 5.3094 1.1845 0
M  V30 10 O -1.5814 0.6433 2.112 0
M  V30 11 C -0.4878 -0.9805 -0.8499 0
M  V30 12 C 1.9341 -0.5583 -0.2063 0
M  V30 13 C -1.2432 -2.0979 -0.4542 0
M  V30 14 C -0.6141 -0.5205 -2.1696 0
M  V30 15 C 2.3325 -1.9923 0.0423 0
M  V30 16 C -2.1134 -2.7231 -1.349 0
M  V30 17 C -1.4856 -1.1479 -3.0618 0
M  V30 18 O 2.6831 -2.7754 -0.8289 0
M  V30 19 O 2.276 -2.2803 1.3737 0
M  V30 20 C -2.237 -2.2458 -2.651 0
M  V30 21 C 2.6692 -3.6161 1.693 0
M  V30 22 H 0.3025 -0.8189 1.1061 0
M  V30 23 H -1.8402 3.1064 2.4303 0
M  V30 24 H -1.0761 5.7807 0.2668 0
M  V30 25 H 0.233 5.7875 1.4665 0
M  V30 26 H -1.4386 5.505 1.9782 0
M  V30 27 H -1.6495 -0.2101 1.6525 0
M  V30 28 H 2.6019 0.0721 0.3936 0
M  V30 29 H 2.1501 -0.3483 -1.2601 0
M  V30 30 H -1.153 -2.5061 0.5502 0
M  V30 31 H -0.029 0.3248 -2.5264 0
M  V30 32 H -2.6892 -3.5897 -1.0338 0
M  V30 33 H -1.5706 -0.782 -4.0821 0
M  V30 34 H -2.9099 -2.7357 -3.3499 0
M  V30 35 H 2.589 -3.7425 2.7762 0
M  V30 36 H 2.0022 -4.3372 1.2101 0
M  V30 37 H 3.7091 -3.7904 1.3999 0
M  V30 END ATOM
M  V30 BEGIN BOND
M  V30 1 2 1 2
M  V30 2 1 2 3
M  V30 3 1 2 4
M  V30 4 1 3 5
M  V30 5 2 4 6
M  V30 6 1 4 7
M  V30 7 2 5 8
M  V30 8 1 5 9
M  V30 9 1 6 10
M  V30 10 1 7 11
M  V30 11 1 7 12
M  V30 12 2 11 13
M  V30 13 1 11 14
M  V30 14 1 12 15
M  V30 15 1 13 16
M  V30 16 2 14 17
M  V30 17 2 15 18
M  V30 18 1 15 19
M  V30 19 2 16 20
M  V30 20 1 19 21
M  V30 21 1 6 8
M  V30 22 1 17 20
M  V30 23 1 7 22
M  V30 24 1 8 23
M  V30 25 1 9 24
M  V30 26 1 9 25
M  V30 27 1 9 26
M  V30 28 1 10 27
M  V30 29 1 12 28
M  V30 30 1 12 29
M  V30 31 1 13 30
M  V30 32 1 14 31
M  V30 33 1 16 32
M  V30 34 1 17 33
M  V30 35 1 20 34
M  V30 36 1 21 35
M  V30 37 1 21 36
M  V30 38 1 21 37
M  V30 END BOND
M  V30 BEGIN COLLECTION
M  V30 MDLV30/STEABS ATOMS=(1 7)
M  V30 END COLLECTION
M  V30 END CTAB
M  END
>  <NO.>
3924

>  <Name>
clonidine

>  <SMILES>
COC(=O)C[C@H](c1ccccc1)c1c(O)cc(C)oc1=O

>  <logBB>


>  <Class>
1

>  <MW>
288.1

>  <nHBAcc>
5

>  <nHBDon>
1

>  <SLogP>
2.35

>  <TopoPSA>
76.74

>  <MMFF94 Energy>
14.698

$$$$
COC(=O)C[C@H](c1cccnc1)c1c(O)c(C(=O)OC)c[nH]c1=O
Actelion Java MolfileCreator 2.0

  0  0  0  0  0  0              0 V3000
M  V30 BEGIN CTAB
M  V30 COUNTS 40 41 0 0 0
M  V30 BEGIN ATOM
M  V30 1 O 2.5481 0.9549 0.3182 0
M  V30 2 C 1.7466 0.5574 -0.5197 0
M  V30 3 N 2.0608 0.589 -1.8542 0
M  V30 4 C 0.3931 0.0243 -0.1662 0
M  V30 5 C 1.2227 0.1779 -2.8556 0
M  V30 6 C -0.4121 -0.3797 -1.1738 0
M  V30 7 C -0.0193 -0.0309 1.3005 0 CFG=1
M  V30 8 C -0.0012 -0.3009 -2.5753 0
M  V30 9 O -1.6592 -0.9055 -0.8769 0
M  V30 10 C 0.5627 -1.2646 1.981 0
M  V30 11 C 0.1996 1.2552 2.1277 0
M  V30 12 C -0.8078 -0.7065 -3.7636 0
M  V30 13 C -0.1717 -2.4509 2.0117 0
M  V30 14 C 1.836 -1.2967 2.5589 0
M  V30 15 C -0.5492 2.4446 1.5768 0
M  V30 16 O -0.3903 -0.706 -4.9133 0
M  V30 17 O -2.0687 -1.0654 -3.3975 0
M  V30 18 N 0.2552 -3.6033 2.5778 0
M  V30 19 C 2.3038 -2.4695 3.1463 0
M  V30 20 O -1.2839 2.4408 0.5998 0
M  V30 21 O -0.2914 3.5377 2.3521 0
M  V30 22 C -2.9007 -1.4565 -4.4943 0
M  V30 23 C 1.4839 -3.5843 3.1334 0
M  V30 24 C -0.9492 4.7286 1.9181 0
M  V30 25 H 2.9815 0.9501 -2.0776 0
M  V30 26 H 1.6138 0.2696 -3.8658 0
M  V30 27 H -1.1111 -0.1664 1.3334 0
M  V30 28 H -2.1605 -1.0365 -1.7046 0
M  V30 29 H 1.2554 1.5266 2.2101 0
M  V30 30 H -0.1725 1.0876 3.1474 0
M  V30 31 H -1.1609 -2.5118 1.5628 0
M  V30 32 H 2.4814 -0.4217 2.5481 0
M  V30 33 H 3.2885 -2.512 3.5978 0
M  V30 34 H -3.8828 -1.7228 -4.0938 0
M  V30 35 H -3.0258 -0.6252 -5.1953 0
M  V30 36 H -2.4823 -2.333 -4.9984 0
M  V30 37 H 1.8057 -4.5209 3.579 0
M  V30 38 H -0.6686 5.5378 2.598 0
M  V30 39 H -0.6272 4.9981 0.9074 0
M  V30 40 H -2.0357 4.6027 1.9593 0
M  V30 END ATOM
M  V30 BEGIN BOND
M  V30 1 2 1 2
M  V30 2 1 2 3
M  V30 3 1 2 4
M  V30 4 1 3 5
M  V30 5 2 4 6
M  V30 6 1 4 7
M  V30 7 2 5 8
M  V30 8 1 6 9
M  V30 9 1 7 10
M  V30 10 1 7 11
M  V30 11 1 8 12
M  V30 12 2 10 13
M  V30 13 1 10 14
M  V30 14 1 11 15
M  V30 15 2 12 16
M  V30 16 1 12 17
M  V30 17 1 13 18
M  V30 18 2 14 19
M  V30 19 2 15 20
M  V30 20 1 15 21
M  V30 21 1 17 22
M  V30 22 2 18 23
M  V30 23 1 21 24
M  V30 24 1 6 8
M  V30 25 1 19 23
M  V30 26 1 3 25
M  V30 27 1 5 26
M  V30 28 1 7 27
M  V30 29 1 9 28
M  V30 30 1 11 29
M  V30 31 1 11 30
M  V30 32 1 13 31
M  V30 33 1 14 32
M  V30 34 1 19 33
M  V30 35 1 22 34
M  V30 36 1 22 35
M  V30 37 1 22 36
M  V30 38 1 23 37
M  V30 39 1 24 38
M  V30 40 1 24 39
M  V30 41 1 24 40
M  V30 END BOND
M  V30 BEGIN COLLECTION
M  V30 MDLV30/STEABS ATOMS=(1 7)
M  V30 END COLLECTION
M  V30 END CTAB
M  END
>  <NO.>
3925

>  <Name>
caffeine

>  <SMILES>
COC(=O)C[C@H](c1cccnc1)c1c(O)c(C(=O)OC)c[nH]c1=O

>  <logBB>


>  <Class>
1

>  <MW>
332.1

>  <nHBAcc>
7

>  <nHBDon>
2

>  <SLogP>
0.96

>  <TopoPSA>
118.58

>  <MMFF94 Energy>
5.2502

$$$$
COC(=O)C[C@H](c1cnn(C)c1)c1oc(CN2CCCCC2)cc(=O)c1O
Actelion Java MolfileCreator 2.0

  0  0  0  0  0  0              0 V3000
M  V30 BEGIN CTAB
M  V30 COUNTS 52 54 0 0 0
M  V30 BEGIN ATOM
M  V30 1 O 4.6977 -1.4314 0.795 0
M  V30 2 C 3.5375 -1.262 0.4329 0
M  V30 3 C 2.4121 -1.6321 1.327 0
M  V30 4 C 3.2035 -0.6786 -0.8732 0
M  V30 5 O 2.7195 -2.1267 2.5787 0
M  V30 6 C 1.1561 -1.4579 0.8858 0
M  V30 7 C 1.9125 -0.5622 -1.2135 0
M  V30 8 O 0.8789 -0.9851 -0.392 0
M  V30 9 C -0.0807 -1.761 1.7183 0 CFG=1
M  V30 10 C 1.46 0.0408 -2.5233 0
M  V30 11 C -0.7638 -0.488 2.1544 0
M  V30 12 C -1.0344 -2.6907 0.9542 0
M  V30 13 N 0.4603 1.1081 -2.3598 0
M  V30 14 C -1.2469 0.5835 1.3619 0
M  V30 15 C -1.0787 -0.1066 3.4446 0
M  V30 16 C -2.106 -3.2365 1.864 0
M  V30 17 C -0.1745 1.4693 -3.6356 0
M  V30 18 C 0.976 2.3073 -1.6806 0
M  V30 19 N -1.8135 1.549 2.0897 0
M  V30 20 N -1.6943 1.1053 3.3527 0
M  V30 21 O -1.9256 -3.61 3.0151 0
M  V30 22 O -3.2943 -3.3017 1.1999 0
M  V30 23 C 0.7268 2.2785 -4.5714 0
M  V30 24 C 1.9223 3.1499 -2.5392 0
M  V30 25 C -2.2058 1.9047 4.4385 0
M  V30 26 C -4.3731 -3.8077 1.9864 0
M  V30 27 C 1.2802 3.5162 -3.8731 0
M  V30 28 H 4.0237 -0.3593 -1.501 0
M  V30 29 H 3.6997 -2.1257 2.6187 0
M  V30 30 H 0.2355 -2.2854 2.6308 0
M  V30 31 H 2.3228 0.3836 -3.1064 0
M  V30 32 H 1.0109 -0.7812 -3.0965 0
M  V30 33 H -0.4992 -3.5515 0.5358 0
M  V30 34 H -1.5087 -2.1574 0.1205 0
M  V30 35 H -1.2086 0.6966 0.2847 0
M  V30 36 H -0.9178 -0.5973 4.3951 0
M  V30 37 H -1.0765 2.056 -3.4171 0
M  V30 38 H -0.5328 0.5703 -4.1518 0
M  V30 39 H 1.4683 2.0459 -0.7369 0
M  V30 40 H 0.1182 2.9281 -1.3893 0
M  V30 41 H 0.1572 2.5826 -5.457 0
M  V30 42 H 1.5554 1.656 -4.9291 0
M  V30 43 H 2.8576 2.6063 -2.7164 0
M  V30 44 H 2.1892 4.0656 -1.9993 0
M  V30 45 H -2.022 1.3925 5.386 0
M  V30 46 H -1.6907 2.8685 4.4296 0
M  V30 47 H -3.2799 2.0409 4.2903 0
M  V30 48 H -5.2768 -3.7938 1.371 0
M  V30 49 H -4.1749 -4.841 2.2878 0
M  V30 50 H -4.5412 -3.1729 2.8622 0
M  V30 51 H 2.0109 4.0169 -4.5176 0
M  V30 52 H 0.4648 4.2293 -3.6992 0
M  V30 END ATOM
M  V30 BEGIN BOND
M  V30 1 2 1 2
M  V30 2 1 2 3
M  V30 3 1 2 4
M  V30 4 1 3 5
M  V30 5 2 3 6
M  V30 6 2 4 7
M  V30 7 1 6 8
M  V30 8 1 6 9
M  V30 9 1 7 10
M  V30 10 1 9 11
M  V30 11 1 9 12
M  V30 12 1 10 13
M  V30 13 1 11 14
M  V30 14 2 11 15
M  V30 15 1 12 16
M  V30 16 1 13 17
M  V30 17 1 13 18
M  V30 18 2 14 19
M  V30 19 1 15 20
M  V30 20 2 16 21
M  V30 21 1 16 22
M  V30 22 1 17 23
M  V30 23 1 18 24
M  V30 24 1 20 25
M  V30 25 1 22 26
M  V30 26 1 23 27
M  V30 27 1 7 8
M  V30 28 1 19 20
M  V30 29 1 24 27
M  V30 30 1 4 28
M  V30 31 1 5 29
M  V30 32 1 9 30
M  V30 33 1 10 31
M  V30 34 1 10 32
M  V30 35 1 12 33
M  V30 36 1 12 34
M  V30 37 1 14 35
M  V30 38 1 15 36
M  V30 39 1 17 37
M  V30 40 1 17 38
M  V30 41 1 18 39
M  V30 42 1 18 40
M  V30 43 1 23 41
M  V30 44 1 23 42
M  V30 45 1 24 43
M  V30 46 1 24 44
M  V30 47 1 25 45
M  V30 48 1 25 46
M  V30 49 1 25 47
M  V30 50 1 26 48
M  V30 51 1 26 49
M  V30 52 1 26 50
M  V30 53 1 27 51
M  V30 54 1 27 52
M  V30 END BOND
M  V30 BEGIN COLLECTION
M  V30 MDLV30/STEABS ATOMS=(1 9)
M  V30 END COLLECTION
M  V30 END CTAB
M  END
>  <NO.>
3926

>  <Name>
ritonavir

>  <SMILES>
COC(=O)C[C@H](c1cnn(C)c1)c1oc(CN2CCCCC2)cc(=O)c1O

>  <logBB>


>  <Class>
-1

>  <MW>
375.18

>  <nHBAcc>
7

>  <nHBDon>
1

>  <SLogP>
1.76

>  <TopoPSA>
97.8

>  <MMFF94 Energy>
19.236

$$$$
COC(=O)C[C@H](c1coc2ccccc2c1=O)c1c(O)cc(C)n(CCc2ccc(O)cc2)c1=O
Actelion Java MolfileCreator 2.0

  0  0  0  0  0  0              0 V3000
M  V30 BEGIN CTAB
M  V30 COUNTS 60 63 0 0 0
M  V30 BEGIN ATOM
M  V30 1 O 1.0401 -0.1599 -0.88 0
M  V30 2 C -0.121 -0.3186 -0.4993 0
M  V30 3 N -1.1789 -0.5683 -1.381 0
M  V30 4 C -0.4239 -0.3029 0.9806 0
M  V30 5 C -2.4558 -0.8999 -0.931 0
M  V30 6 C -0.8574 -0.5257 -2.8128 0
M  V30 7 C -1.6663 -0.6664 1.3528 0
M  V30 8 C 0.7613 0.1233 1.8521 0 CFG=1
M  V30 9 C -2.688 -0.9664 0.3881 0
M  V30 10 C -3.5602 -1.1886 -1.91 0
M  V30 11 C -0.3097 -1.8657 -3.3182 0
M  V30 12 O -2.1224 -0.799 2.6407 0
M  V30 13 C 0.3576 1.0282 3.0143 0
M  V30 14 C 1.5674 -1.1436 2.2099 0
M  V30 15 C -0.0264 -1.8315 -4.7995 0
M  V30 16 C -0.1962 2.3673 2.6544 0
M  V30 17 C 0.4937 0.7711 4.3255 0
M  V30 18 C 2.989 -0.8299 2.6135 0
M  V30 19 C -0.9742 -2.3028 -5.719 0
M  V30 20 C 1.1807 -1.3001 -5.2745 0
M  V30 21 O -0.3397 2.7189 1.4901 0
M  V30 22 C -0.5755 3.256 3.765 0
M  V30 23 O 0.1374 1.5883 5.3713 0
M  V30 24 O 3.3842 0.246 3.0372 0
M  V30 25 O 3.7554 -1.9506 2.493 0
M  V30 26 C -0.716 -2.2523 -7.0908 0
M  V30 27 C 1.438 -1.2494 -6.6448 0
M  V30 28 C -0.3897 2.8168 5.0718 0
M  V30 29 C -1.1171 4.5213 3.5158 0
M  V30 30 C 5.1256 -1.7599 2.8489 0
M  V30 31 C 0.4899 -1.7256 -7.5415 0
M  V30 32 C -0.7439 3.6393 6.1414 0
M  V30 33 C -1.4717 5.3442 4.5859 0
M  V30 34 O 0.7822 -1.6572 -8.8716 0
M  V30 35 C -1.2853 4.9033 5.8973 0
M  V30 36 H -1.7332 -0.2106 -3.39 0
M  V30 37 H -0.1074 0.2592 -2.9778 0
M  V30 38 H 1.4259 0.7584 1.248 0
M  V30 39 H -3.6709 -1.2234 0.7729 0
M  V30 40 H -3.7992 -0.2966 -2.4979 0
M  V30 41 H -4.4831 -1.4957 -1.4049 0
M  V30 42 H -3.2838 -2.0014 -2.5882 0
M  V30 43 H 0.6092 -2.1326 -2.7809 0
M  V30 44 H -1.0173 -2.6749 -3.0989 0
M  V30 45 H -1.4034 -0.6448 3.2685 0
M  V30 46 H 1.6276 -1.7999 1.3314 0
M  V30 47 H 1.091 -1.7149 3.0145 0
M  V30 48 H 0.9185 -0.1374 4.7335 0
M  V30 49 H -1.9195 -2.7138 -5.3716 0
M  V30 50 H 1.9273 -0.9216 -4.5785 0
M  V30 51 H -1.4619 -2.6248 -7.7854 0
M  V30 52 H 2.3747 -0.8384 -7.01 0
M  V30 53 H -1.2613 4.8652 2.4937 0
M  V30 54 H 5.652 -2.7045 2.6873 0
M  V30 55 H 5.5846 -0.9947 2.2152 0
M  V30 56 H 5.2114 -1.4915 3.9065 0
M  V30 57 H -0.5975 3.2996 7.1633 0
M  V30 58 H -1.8919 6.3292 4.3965 0
M  V30 59 H 0.0353 -2.025 -9.3709 0
M  V30 60 H -1.5605 5.5463 6.7302 0
M  V30 END ATOM
M  V30 BEGIN BOND
M  V30 1 2 1 2
M  V30 2 1 2 3
M  V30 3 1 2 4
M  V30 4 1 3 5
M  V30 5 1 3 6
M  V30 6 2 4 7
M  V30 7 1 4 8
M  V30 8 2 5 9
M  V30 9 1 5 10
M  V30 10 1 6 11
M  V30 11 1 7 12
M  V30 12 1 8 13
M  V30 13 1 8 14
M  V30 14 1 11 15
M  V30 15 1 13 16
M  V30 16 2 13 17
M  V30 17 1 14 18
M  V30 18 2 15 19
M  V30 19 1 15 20
M  V30 20 2 16 21
M  V30 21 1 16 22
M  V30 22 1 17 23
M  V30 23 2 18 24
M  V30 24 1 18 25
M  V30 25 1 19 26
M  V30 26 2 20 27
M  V30 27 2 22 28
M  V30 28 1 22 29
M  V30 29 1 25 30
M  V30 30 2 26 31
M  V30 31 1 28 32
M  V30 32 2 29 33
M  V30 33 1 31 34
M  V30 34 2 32 35
M  V30 35 1 7 9
M  V30 36 1 23 28
M  V30 37 1 27 31
M  V30 38 1 33 35
M  V30 39 1 6 36
M  V30 40 1 6 37
M  V30 41 1 8 38
M  V30 42 1 9 39
M  V30 43 1 10 40
M  V30 44 1 10 41
M  V30 45 1 10 42
M  V30 46 1 11 43
M  V30 47 1 11 44
M  V30 48 1 12 45
M  V30 49 1 14 46
M  V30 50 1 14 47
M  V30 51 1 17 48
M  V30 52 1 19 49
M  V30 53 1 20 50
M  V30 54 1 26 51
M  V30 55 1 27 52
M  V30 56 1 29 53
M  V30 57 1 30 54
M  V30 58 1 30 55
M  V30 59 1 30 56
M  V30 60 1 32 57
M  V30 61 1 33 58
M  V30 62 1 34 59
M  V30 63 1 35 60
M  V30 END BOND
M  V30 BEGIN COLLECTION
M  V30 MDLV30/STEABS ATOMS=(1 8)
M  V30 END COLLECTION
M  V30 END CTAB
M  END
>  <NO.>
3927

>  <Name>
perphenazine

>  <SMILES>
COC(=O)C[C@H](c1coc2ccccc2c1=O)c1c(O)cc(C)n(CCc2ccc(O)cc2)c1=O

>  <logBB>


>  <Class>
1

>  <MW>
475.16

>  <nHBAcc>
7

>  <nHBDon>
2

>  <SLogP>
3.61

>  <TopoPSA>
118.97

>  <MMFF94 Energy>
24.812

$$$$
COC(=O)c1ccc(COc2ccc3c(c2)O/C(=C\c2cccc(OC)c2OC)C3=O)o1
Actelion Java MolfileCreator 2.0

  0  0  0  0  0  0              0 V3000
M  V30 BEGIN CTAB
M  V30 COUNTS 52 55 0 0 0
M  V30 BEGIN ATOM
M  V30 1 O -0.1604 -0.8825 4.5794 0
M  V30 2 C 0.0013 -0.8549 3.3796 0
M  V30 3 C -0.8351 -0.1947 2.3858 0
M  V30 4 C 1.0754 -1.4697 2.5538 0
M  V30 5 C -0.2632 -0.4307 1.1414 0
M  V30 6 C -1.9887 0.5453 2.54 0
M  V30 7 O 0.8815 -1.1895 1.2048 0
M  V30 8 C 2.0884 -2.1729 3.0762 0
M  V30 9 C -0.832 0.0721 -0.0087 0
M  V30 10 C -2.5789 1.0629 1.3798 0
M  V30 11 C 3.1859 -2.7821 2.3078 0
M  V30 12 C -2.0065 0.8298 0.1106 0
M  V30 13 C 4.5195 -2.6602 2.744 0
M  V30 14 C 2.9251 -3.543 1.1614 0
M  V30 15 O -2.4993 1.2876 -1.0822 0
M  V30 16 O 4.7754 -1.9546 3.9009 0
M  V30 17 C 5.5736 -3.2991 2.0631 0
M  V30 18 C 3.9673 -4.1546 0.463 0
M  V30 19 C -3.6937 2.0691 -1.0376 0
M  V30 20 C 5.2353 -0.6404 3.5845 0
M  V30 21 O 6.8278 -3.1418 2.5943 0
M  V30 22 C 5.2849 -4.0339 0.9109 0
M  V30 23 C -4.0322 2.4515 -2.4346 0
M  V30 24 C 7.8774 -3.9162 2.0309 0
M  V30 25 O -5.196 3.1461 -2.5927 0
M  V30 26 C -3.4279 2.2694 -3.6607 0
M  V30 27 C -5.3465 3.4135 -3.9287 0
M  V30 28 C -4.2693 2.8846 -4.6182 0
M  V30 29 C -6.5164 4.1468 -4.3542 0
M  V30 30 O -7.4109 4.5662 -3.6291 0
M  V30 31 O -6.4861 4.3119 -5.711 0
M  V30 32 C -7.6055 5.0289 -6.2315 0
M  V30 33 H -2.4171 0.7164 3.5224 0
M  V30 34 H 2.154 -2.2928 4.1567 0
M  V30 35 H -0.3838 -0.1123 -0.979 0
M  V30 36 H -3.4879 1.6462 1.497 0
M  V30 37 H 1.9062 -3.6785 0.8057 0
M  V30 38 H 3.7496 -4.7388 -0.4278 0
M  V30 39 H -3.5322 2.9793 -0.4484 0
M  V30 40 H -4.5178 1.4804 -0.618 0
M  V30 41 H 6.2329 -0.6619 3.1348 0
M  V30 42 H 5.3011 -0.0766 4.52 0
M  V30 43 H 4.5337 -0.117 2.9249 0
M  V30 44 H 6.0614 -4.5319 0.3402 0
M  V30 45 H 7.6554 -4.9872 2.0847 0
M  V30 46 H 8.7808 -3.734 2.6211 0
M  V30 47 H 8.085 -3.6054 1.002 0
M  V30 48 H -2.4933 1.7538 -3.836 0
M  V30 49 H -4.115 2.9402 -5.6873 0
M  V30 50 H -7.4844 5.1048 -7.3157 0
M  V30 51 H -8.5361 4.491 -6.0248 0
M  V30 52 H -7.6405 6.041 -5.8161 0
M  V30 END ATOM
M  V30 BEGIN BOND
M  V30 1 2 1 2
M  V30 2 1 2 3
M  V30 3 1 2 4
M  V30 4 2 3 5
M  V30 5 1 3 6
M  V30 6 1 4 7
M  V30 7 2 4 8
M  V30 8 1 5 9
M  V30 9 2 6 10
M  V30 10 1 8 11
M  V30 11 2 9 12
M  V30 12 2 11 13
M  V30 13 1 11 14
M  V30 14 1 12 15
M  V30 15 1 13 16
M  V30 16 1 13 17
M  V30 17 2 14 18
M  V30 18 1 15 19
M  V30 19 1 16 20
M  V30 20 1 17 21
M  V30 21 2 17 22
M  V30 22 1 19 23
M  V30 23 1 21 24
M  V30 24 1 23 25
M  V30 25 2 23 26
M  V30 26 1 25 27
M  V30 27 1 26 28
M  V30 28 1 27 29
M  V30 29 2 29 30
M  V30 30 1 29 31
M  V30 31 1 31 32
M  V30 32 1 5 7
M  V30 33 1 10 12
M  V30 34 1 18 22
M  V30 35 2 27 28
M  V30 36 1 6 33
M  V30 37 1 8 34
M  V30 38 1 9 35
M  V30 39 1 10 36
M  V30 40 1 14 37
M  V30 41 1 18 38
M  V30 42 1 19 39
M  V30 43 1 19 40
M  V30 44 1 20 41
M  V30 45 1 20 42
M  V30 46 1 20 43
M  V30 47 1 22 44
M  V30 48 1 24 45
M  V30 49 1 24 46
M  V30 50 1 24 47
M  V30 51 1 26 48
M  V30 52 1 28 49
M  V30 53 1 32 50
M  V30 54 1 32 51
M  V30 55 1 32 52
M  V30 END BOND
M  V30 END CTAB
M  END
>  <NO.>
3928

>  <Name>
mefenamic acid

>  <SMILES>
COC(=O)c1ccc(COc2ccc3c(c2)O/C(=C\c2cccc(OC)c2OC)C3=O)o1

>  <logBB>


>  <Class>
-1

>  <MW>
436.12

>  <nHBAcc>
8

>  <nHBDon>
0

>  <SLogP>
4.28

>  <TopoPSA>
93.43

>  <MMFF94 Energy>
128.9

$$$$
COCCN(C[C@@H]1CCCO1)C(=O)c1[nH]nc(N)c1Cl
Actelion Java MolfileCreator 2.0

  0  0  0  0  0  0              0 V3000
M  V30 BEGIN CTAB
M  V30 COUNTS 39 40 0 0 0
M  V30 BEGIN ATOM
M  V30 1 Cl 1.3493 -2.1437 1.667 0
M  V30 2 C 0.5926 -2.4758 0.1797 0
M  V30 3 C 0.9713 -3.49 -0.7378 0
M  V30 4 C -0.5127 -1.8726 -0.384 0
M  V30 5 N 0.1453 -3.5494 -1.7788 0
M  V30 6 N 2.0198 -4.3073 -0.5961 0
M  V30 7 N -0.7831 -2.6204 -1.4972 0
M  V30 8 C -1.3805 -0.8122 0.0409 0
M  V30 9 O -2.5991 -0.948 -0.0567 0
M  V30 10 N -0.8177 0.3802 0.4976 0
M  V30 11 C 0.5161 0.8722 0.1247 0
M  V30 12 C -1.6427 1.247 1.3511 0
M  V30 13 C 0.4761 1.909 -1.0073 0 CFG=1
M  V30 14 C -1.3169 1.0631 2.8399 0
M  V30 15 O 1.7962 2.4449 -1.2291 0
M  V30 16 C 0.0225 1.3492 -2.3472 0
M  V30 17 O -1.6848 -0.2525 3.2576 0
M  V30 18 C 2.0044 2.5696 -2.6444 0
M  V30 19 C 0.6704 2.311 -3.311 0
M  V30 20 C -1.3301 -0.4967 4.6108 0
M  V30 21 H 2.2049 -5.013 -1.2979 0
M  V30 22 H 2.6413 -4.2823 0.202 0
M  V30 23 H -1.5826 -2.5248 -2.1156 0
M  V30 24 H 1.1699 0.0605 -0.1981 0
M  V30 25 H 0.9907 1.3038 1.0133 0
M  V30 26 H -2.7026 1.0208 1.1941 0
M  V30 27 H -1.4804 2.2889 1.0586 0
M  V30 28 H -0.1598 2.7571 -0.7276 0
M  V30 29 H -0.248 1.221 3.0219 0
M  V30 30 H -1.886 1.7931 3.4266 0
M  V30 31 H 0.4254 0.3428 -2.5115 0
M  V30 32 H -1.0656 1.3054 -2.445 0
M  V30 33 H 2.7462 1.8194 -2.9379 0
M  V30 34 H 2.4026 3.5623 -2.8721 0
M  V30 35 H 0.7695 1.9178 -4.3259 0
M  V30 36 H 0.0885 3.2393 -3.3575 0
M  V30 37 H -1.6479 -1.5093 4.8731 0
M  V30 38 H -1.8358 0.2118 5.2738 0
M  V30 39 H -0.2459 -0.4268 4.7407 0
M  V30 END ATOM
M  V30 BEGIN BOND
M  V30 1 1 1 2
M  V30 2 1 2 3
M  V30 3 2 2 4
M  V30 4 2 3 5
M  V30 5 1 3 6
M  V30 6 1 4 7
M  V30 7 1 4 8
M  V30 8 2 8 9
M  V30 9 1 8 10
M  V30 10 1 10 11
M  V30 11 1 10 12
M  V30 12 1 11 13
M  V30 13 1 12 14
M  V30 14 1 13 15
M  V30 15 1 13 16
M  V30 16 1 14 17
M  V30 17 1 15 18
M  V30 18 1 16 19
M  V30 19 1 17 20
M  V30 20 1 5 7
M  V30 21 1 18 19
M  V30 22 1 6 21
M  V30 23 1 6 22
M  V30 24 1 7 23
M  V30 25 1 11 24
M  V30 26 1 11 25
M  V30 27 1 12 26
M  V30 28 1 12 27
M  V30 29 1 13 28
M  V30 30 1 14 29
M  V30 31 1 14 30
M  V30 32 1 16 31
M  V30 33 1 16 32
M  V30 34 1 18 33
M  V30 35 1 18 34
M  V30 36 1 19 35
M  V30 37 1 19 36
M  V30 38 1 20 37
M  V30 39 1 20 38
M  V30 40 1 20 39
M  V30 END BOND
M  V30 BEGIN COLLECTION
M  V30 MDLV30/STEABS ATOMS=(1 13)
M  V30 END COLLECTION
M  V30 END CTAB
M  END
>  <NO.>
3929

>  <Name>
isoflurane

>  <SMILES>
COCCN(C[C@@H]1CCCO1)C(=O)c1[nH]nc(N)c1Cl

>  <logBB>


>  <Class>
1

>  <MW>
302.11

>  <nHBAcc>
5

>  <nHBDon>
2

>  <SLogP>
0.91

>  <TopoPSA>
93.47

>  <MMFF94 Energy>
-26.125

$$$$
COCCc1noc([C@H](C)NC(=O)c2ccncc2O)n1
Actelion Java MolfileCreator 2.0

  0  0  0  0  0  0              0 V3000
M  V30 BEGIN CTAB
M  V30 COUNTS 37 38 0 0 0
M  V30 BEGIN ATOM
M  V30 1 O 2.8551 2.5375 0.2376 0
M  V30 2 C 2.2688 1.8276 1.0486 0
M  V30 3 N 1.379 0.8556 0.669 0
M  V30 4 C 2.5108 1.998 2.5143 0
M  V30 5 C 1.0547 0.5883 -0.7246 0 CFG=2
M  V30 6 C 1.906 1.2272 3.5123 0
M  V30 7 C 3.4079 3.0042 2.8943 0
M  V30 8 C -0.2742 -0.0882 -0.8052 0
M  V30 9 C 2.1371 -0.2588 -1.3895 0
M  V30 10 O 1.0213 0.2272 3.2099 0
M  V30 11 C 2.229 1.5025 4.8357 0
M  V30 12 C 3.6621 3.1986 4.2401 0
M  V30 13 O -0.4328 -1.2342 -0.0746 0
M  V30 14 N -1.3542 0.2505 -1.4745 0
M  V30 15 N 3.0915 2.4686 5.2203 0
M  V30 16 N -1.7393 -1.6708 -0.2979 0
M  V30 17 C -2.2231 -0.7623 -1.1573 0
M  V30 18 C -3.6151 -0.8125 -1.6714 0
M  V30 19 C -3.8802 -2.0324 -2.5492 0
M  V30 20 O -3.2854 -1.8438 -3.8354 0
M  V30 21 C -3.4718 -2.9766 -4.6733 0
M  V30 22 H 0.9413 0.2966 1.398 0
M  V30 23 H 0.9914 1.5505 -1.2471 0
M  V30 24 H 3.9011 3.6281 2.1547 0
M  V30 25 H 2.2677 -1.2185 -0.8757 0
M  V30 26 H 1.8842 -0.4703 -2.4343 0
M  V30 27 H 3.1046 0.2542 -1.3737 0
M  V30 28 H 0.6998 -0.1803 4.0351 0
M  V30 29 H 1.7959 0.942 5.6588 0
M  V30 30 H 4.3515 3.9696 4.5737 0
M  V30 31 H -4.2985 -0.831 -0.8139 0
M  V30 32 H -3.8232 0.1035 -2.2369 0
M  V30 33 H -3.4928 -2.9492 -2.0893 0
M  V30 34 H -4.9625 -2.1426 -2.6859 0
M  V30 35 H -3.0065 -2.7696 -5.6406 0
M  V30 36 H -4.5381 -3.1653 -4.8309 0
M  V30 37 H -2.993 -3.8582 -4.2367 0
M  V30 END ATOM
M  V30 BEGIN BOND
M  V30 1 2 1 2
M  V30 2 1 2 3
M  V30 3 1 2 4
M  V30 4 1 3 5
M  V30 5 2 4 6
M  V30 6 1 4 7
M  V30 7 1 5 8
M  V30 8 1 5 9
M  V30 9 1 6 10
M  V30 10 1 6 11
M  V30 11 2 7 12
M  V30 12 1 8 13
M  V30 13 2 8 14
M  V30 14 2 11 15
M  V30 15 1 13 16
M  V30 16 1 14 17
M  V30 17 1 17 18
M  V30 18 1 18 19
M  V30 19 1 19 20
M  V30 20 1 20 21
M  V30 21 1 12 15
M  V30 22 2 16 17
M  V30 23 1 3 22
M  V30 24 1 5 23
M  V30 25 1 7 24
M  V30 26 1 9 25
M  V30 27 1 9 26
M  V30 28 1 9 27
M  V30 29 1 10 28
M  V30 30 1 11 29
M  V30 31 1 12 30
M  V30 32 1 18 31
M  V30 33 1 18 32
M  V30 34 1 19 33
M  V30 35 1 19 34
M  V30 36 1 21 35
M  V30 37 1 21 36
M  V30 38 1 21 37
M  V30 END BOND
M  V30 BEGIN COLLECTION
M  V30 MDLV30/STEABS ATOMS=(1 5)
M  V30 END COLLECTION
M  V30 END CTAB
M  END
>  <NO.>
3930

>  <Name>
benzocaine

>  <SMILES>
COCCc1noc([C@H](C)NC(=O)c2ccncc2O)n1

>  <logBB>


>  <Class>
1

>  <MW>
292.12

>  <nHBAcc>
7

>  <nHBDon>
2

>  <SLogP>
0.85

>  <TopoPSA>
110.37

>  <MMFF94 Energy>
32.909

$$$$
COC[C@@]1(C#N)[C@H](c2ccc3c(c2)OCO3)[C@@H]1S(=O)(=O)c1ccccc1
Actelion Java MolfileCreator 2.0

  0  0  0  0  0  0              0 V3000
M  V30 BEGIN CTAB
M  V30 COUNTS 43 46 0 0 0
M  V30 BEGIN ATOM
M  V30 1 S -1.0668 -1.3132 0.3281 0
M  V30 2 O -2.2863 -1.3675 1.1117 0
M  V30 3 O 0.2192 -1.6021 0.9191 0
M  V30 4 C -1.2952 -2.4048 -1.056 0
M  V30 5 C -1.0714 0.3171 -0.4383 0 CFG=2
M  V30 6 C -2.5714 -2.5443 -1.6115 0
M  V30 7 C -0.2128 -3.1294 -1.5604 0
M  V30 8 C 0.2019 0.8186 -1.0802 0 CFG=1
M  V30 9 C -0.321 1.4466 0.2133 0 CFG=2
M  V30 10 C -2.7551 -3.3949 -2.7014 0
M  V30 11 C -0.4051 -3.9759 -2.652 0
M  V30 12 C 1.4068 0.0291 -1.0968 0
M  V30 13 C 0.0477 1.6363 -2.3467 0
M  V30 14 C 0.3761 1.3836 1.5535 0
M  V30 15 C -1.6725 -4.105 -3.2231 0
M  V30 16 N 2.3731 -0.6027 -1.2099 0
M  V30 17 O 0.8541 2.808 -2.2357 0
M  V30 18 C -0.3297 1.0225 2.7188 0
M  V30 19 C 1.7678 1.6281 1.6793 0
M  V30 20 C 0.8559 3.5663 -3.4385 0
M  V30 21 C 0.348 0.9303 3.9182 0
M  V30 22 C 2.4352 1.5284 2.9068 0
M  V30 23 O -0.2024 0.6018 5.118 0
M  V30 24 C 1.6947 1.1752 4.0094 0
M  V30 25 C 0.9646 0.628 5.9652 0
M  V30 26 O 2.1662 1.0305 5.2759 0
M  V30 27 H -2.0197 0.5748 -0.8925 0
M  V30 28 H -3.4243 -2.0117 -1.1962 0
M  V30 29 H 0.7768 -3.05 -1.1131 0
M  V30 30 H -0.7901 2.4244 0.0762 0
M  V30 31 H -3.7437 -3.5163 -3.1383 0
M  V30 32 H 0.4329 -4.5428 -3.0514 0
M  V30 33 H -0.9948 1.9447 -2.4932 0
M  V30 34 H 0.3488 1.0494 -3.224 0
M  V30 35 H -1.8185 -4.7735 -4.0687 0
M  V30 36 H -1.3951 0.8146 2.692 0
M  V30 37 H 2.3489 1.9133 0.8034 0
M  V30 38 H 1.4758 4.4537 -3.285 0
M  V30 39 H -0.1595 3.8872 -3.6901 0
M  V30 40 H 1.281 2.9804 -4.259 0
M  V30 41 H 3.4999 1.7167 2.9834 0
M  V30 42 H 1.1179 -0.3735 6.3839 0
M  V30 43 H 0.7829 1.3285 6.7885 0
M  V30 END ATOM
M  V30 BEGIN BOND
M  V30 1 2 1 2
M  V30 2 2 1 3
M  V30 3 1 1 4
M  V30 4 1 1 5
M  V30 5 2 4 6
M  V30 6 1 4 7
M  V30 7 1 5 8
M  V30 8 1 5 9
M  V30 9 1 6 10
M  V30 10 2 7 11
M  V30 11 1 8 12
M  V30 12 1 8 13
M  V30 13 1 9 14
M  V30 14 2 10 15
M  V30 15 3 12 16
M  V30 16 1 13 17
M  V30 17 2 14 18
M  V30 18 1 14 19
M  V30 19 1 17 20
M  V30 20 1 18 21
M  V30 21 2 19 22
M  V30 22 1 21 23
M  V30 23 2 21 24
M  V30 24 1 23 25
M  V30 25 1 24 26
M  V30 26 1 8 9
M  V30 27 1 11 15
M  V30 28 1 22 24
M  V30 29 1 25 26
M  V30 30 1 5 27
M  V30 31 1 6 28
M  V30 32 1 7 29
M  V30 33 1 9 30
M  V30 34 1 10 31
M  V30 35 1 11 32
M  V30 36 1 13 33
M  V30 37 1 13 34
M  V30 38 1 15 35
M  V30 39 1 18 36
M  V30 40 1 19 37
M  V30 41 1 20 38
M  V30 42 1 20 39
M  V30 43 1 20 40
M  V30 44 1 22 41
M  V30 45 1 25 42
M  V30 46 1 25 43
M  V30 END BOND
M  V30 BEGIN COLLECTION
M  V30 MDLV30/STEABS ATOMS=(3 5 8 9)
M  V30 END COLLECTION
M  V30 END CTAB
M  END
>  <NO.>
3931

>  <Name>
oxandrolone

>  <SMILES>
COC[C@@]1(C#N)[C@H](c2ccc3c(c2)OCO3)[C@@H]1S(=O)(=O)c1ccccc1

>  <logBB>


>  <Class>
-1

>  <MW>
371.08

>  <nHBAcc>
6

>  <nHBDon>
0

>  <SLogP>
2.51

>  <TopoPSA>
85.62

>  <MMFF94 Energy>
53.614

$$$$
COC[C@@]1(C(=O)O)[C@H](c2ccc3c(c2)OCO3)[C@@H]1S(C)(=O)=O
Actelion Java MolfileCreator 2.0

  0  0  0  0  0  0              0 V3000
M  V30 BEGIN CTAB
M  V30 COUNTS 38 40 0 0 0
M  V30 BEGIN ATOM
M  V30 1 S 0.9808 -0.9808 2.0441 0
M  V30 2 O 2.1491 -0.6737 2.8454 0
M  V30 3 O -0.3022 -0.3875 2.3473 0
M  V30 4 C 1.464 -0.6214 0.3457 0 CFG=2
M  V30 5 C 0.7943 -2.7422 2.075 0
M  V30 6 C 1.5546 0.8756 0.0403 0 CFG=1
M  V30 7 C 0.5456 -0.0211 -0.6823 0 CFG=2
M  V30 8 C 1.2228 1.8555 1.1214 0
M  V30 9 C 2.7894 1.32 -0.7432 0
M  V30 10 C -0.9624 0.0342 -0.6349 0
M  V30 11 O 2.0732 2.3563 1.8391 0
M  V30 12 O -0.0523 2.2596 1.1849 0
M  V30 13 O 3.1602 0.3555 -1.7352 0
M  V30 14 C -1.7328 -1.0977 -0.3105 0
M  V30 15 C -1.6639 1.2365 -0.909 0
M  V30 16 C 4.312 0.7731 -2.4582 0
M  V30 17 C -3.1089 -0.9926 -0.2569 0
M  V30 18 C -3.0611 1.3242 -0.8519 0
M  V30 19 O -3.97 -2.004 0.0374 0
M  V30 20 C -3.7561 0.1878 -0.5175 0
M  V30 21 C -5.2329 -1.3089 -0.0327 0
M  V30 22 O -5.1064 0.0761 -0.415 0
M  V30 23 H 2.2618 -1.2563 -0.0182 0
M  V30 24 H 0.5667 -3.041 3.1006 0
M  V30 25 H 1.7318 -3.2012 1.7556 0
M  V30 26 H -0.0205 -3.0381 1.4166 0
M  V30 27 H 0.8401 -0.2726 -1.7057 0
M  V30 28 H 3.6325 1.4543 -0.0549 0
M  V30 29 H 2.5731 2.2753 -1.2362 0
M  V30 30 H -0.1001 2.8021 1.9984 0
M  V30 31 H -1.2702 -2.0574 -0.1255 0
M  V30 32 H -1.1013 2.1307 -1.1729 0
M  V30 33 H 4.5484 0.0059 -3.2001 0
M  V30 34 H 5.1674 0.8839 -1.785 0
M  V30 35 H 4.1163 1.7151 -2.9793 0
M  V30 36 H -3.5741 2.2558 -1.059 0
M  V30 37 H -5.7169 -1.3597 0.9495 0
M  V30 38 H -5.8707 -1.8169 -0.7651 0
M  V30 END ATOM
M  V30 BEGIN BOND
M  V30 1 2 1 2
M  V30 2 2 1 3
M  V30 3 1 1 4
M  V30 4 1 1 5
M  V30 5 1 4 6
M  V30 6 1 4 7
M  V30 7 1 6 8
M  V30 8 1 6 9
M  V30 9 1 7 10
M  V30 10 2 8 11
M  V30 11 1 8 12
M  V30 12 1 9 13
M  V30 13 2 10 14
M  V30 14 1 10 15
M  V30 15 1 13 16
M  V30 16 1 14 17
M  V30 17 2 15 18
M  V30 18 1 17 19
M  V30 19 2 17 20
M  V30 20 1 19 21
M  V30 21 1 20 22
M  V30 22 1 6 7
M  V30 23 1 18 20
M  V30 24 1 21 22
M  V30 25 1 4 23
M  V30 26 1 5 24
M  V30 27 1 5 25
M  V30 28 1 5 26
M  V30 29 1 7 27
M  V30 30 1 9 28
M  V30 31 1 9 29
M  V30 32 1 12 30
M  V30 33 1 14 31
M  V30 34 1 15 32
M  V30 35 1 16 33
M  V30 36 1 16 34
M  V30 37 1 16 35
M  V30 38 1 18 36
M  V30 39 1 21 37
M  V30 40 1 21 38
M  V30 END BOND
M  V30 BEGIN COLLECTION
M  V30 MDLV30/STEABS ATOMS=(3 4 6 7)
M  V30 END COLLECTION
M  V30 END CTAB
M  END
>  <NO.>
3932

>  <Name>
sulfamethoxazole

>  <SMILES>
COC[C@@]1(C(=O)O)[C@H](c2ccc3c(c2)OCO3)[C@@H]1S(C)(=O)=O

>  <logBB>


>  <Class>
1

>  <MW>
328.06

>  <nHBAcc>
6

>  <nHBDon>
1

>  <SLogP>
0.64

>  <TopoPSA>
99.13

>  <MMFF94 Energy>
-5.0341

$$$$
COC[C@@]1(C(N)=S)[C@@H](S(C)(=O)=O)[C@@H]1c1ccc2c(c1)OCO2
Actelion Java MolfileCreator 2.0

  0  0  0  0  0  0              0 V3000
M  V30 BEGIN CTAB
M  V30 COUNTS 39 41 0 0 0
M  V30 BEGIN ATOM
M  V30 1 S 1.7242 -2.2995 1.1492 0
M  V30 2 O 2.7763 -3.0481 0.4959 0
M  V30 3 O 1.9858 -1.4453 2.2917 0
M  V30 4 C 0.8577 -1.3513 -0.1281 0 CFG=2
M  V30 5 C 0.4902 -3.4699 1.6513 0
M  V30 6 C 1.3911 0.0345 -0.5145 0 CFG=2
M  V30 7 C 0.1551 -0.132 0.3978 0 CFG=1
M  V30 8 C 1.1803 0.4946 -1.9268 0
M  V30 9 C 2.6506 0.5911 0.139 0
M  V30 10 C -1.2439 0.269 -0.0503 0
M  V30 11 S 1.6434 -0.4521 -3.2071 0
M  V30 12 N 0.6243 1.7258 -2.1109 0
M  V30 13 O 3.7568 -0.2121 -0.2463 0
M  V30 14 C -1.904 1.3096 0.6376 0
M  V30 15 C -1.9954 -0.438 -1.0245 0
M  V30 16 C 4.9158 0.0668 0.5245 0
M  V30 17 C -3.2025 1.6358 0.3005 0
M  V30 18 C -3.3137 -0.0902 -1.352 0
M  V30 19 O -3.9451 2.6249 0.8654 0
M  V30 20 C -3.8883 0.9556 -0.6715 0
M  V30 21 C -5.1813 2.4871 0.1324 0
M  V30 22 O -5.1495 1.4286 -0.8476 0
M  V30 23 H 0.4151 -1.9618 -0.8985 0
M  V30 24 H 0.9212 -4.1113 2.4228 0
M  V30 25 H 0.1985 -4.0693 0.787 0
M  V30 26 H -0.3679 -2.9277 2.0529 0
M  V30 27 H 0.3306 0.111 1.4469 0
M  V30 28 H 2.8252 1.6179 -0.2053 0
M  V30 29 H 2.5618 0.6407 1.2284 0
M  V30 30 H 0.4775 2.0635 -3.0548 0
M  V30 31 H 0.3114 2.31 -1.3466 0
M  V30 32 H -1.4029 1.862 1.4272 0
M  V30 33 H -1.5511 -1.2697 -1.5662 0
M  V30 34 H 5.7339 -0.5566 0.1548 0
M  V30 35 H 4.7427 -0.1744 1.5777 0
M  V30 36 H 5.201 1.1181 0.4205 0
M  V30 37 H -3.8639 -0.6312 -2.114 0
M  V30 38 H -5.9899 2.2829 0.8438 0
M  V30 39 H -5.3928 3.4331 -0.3792 0
M  V30 END ATOM
M  V30 BEGIN BOND
M  V30 1 2 1 2
M  V30 2 2 1 3
M  V30 3 1 1 4
M  V30 4 1 1 5
M  V30 5 1 4 6
M  V30 6 1 4 7
M  V30 7 1 6 8
M  V30 8 1 6 9
M  V30 9 1 7 10
M  V30 10 2 8 11
M  V30 11 1 8 12
M  V30 12 1 9 13
M  V30 13 2 10 14
M  V30 14 1 10 15
M  V30 15 1 13 16
M  V30 16 1 14 17
M  V30 17 2 15 18
M  V30 18 1 17 19
M  V30 19 2 17 20
M  V30 20 1 19 21
M  V30 21 1 20 22
M  V30 22 1 6 7
M  V30 23 1 18 20
M  V30 24 1 21 22
M  V30 25 1 4 23
M  V30 26 1 5 24
M  V30 27 1 5 25
M  V30 28 1 5 26
M  V30 29 1 7 27
M  V30 30 1 9 28
M  V30 31 1 9 29
M  V30 32 1 12 30
M  V30 33 1 12 31
M  V30 34 1 14 32
M  V30 35 1 15 33
M  V30 36 1 16 34
M  V30 37 1 16 35
M  V30 38 1 16 36
M  V30 39 1 18 37
M  V30 40 1 21 38
M  V30 41 1 21 39
M  V30 END BOND
M  V30 BEGIN COLLECTION
M  V30 MDLV30/STEABS ATOMS=(3 4 6 7)
M  V30 END COLLECTION
M  V30 END CTAB
M  END
>  <NO.>
3933

>  <Name>
terbinafine

>  <SMILES>
COC[C@@]1(C(N)=S)[C@@H](S(C)(=O)=O)[C@@H]1c1ccc2c(c1)OCO2

>  <logBB>


>  <Class>
1

>  <MW>
343.05

>  <nHBAcc>
6

>  <nHBDon>
1

>  <SLogP>
0.84

>  <TopoPSA>
87.85

>  <MMFF94 Energy>
-1.5871

$$$$
COC[C@@]1(CN)[C@@H](S(=O)(=O)c2ccc(Cl)cc2)[C@@H]1c1ccc(OC)cc1
Actelion Java MolfileCreator 2.0

  0  0  0  0  0  0              0 V3000
M  V30 BEGIN CTAB
M  V30 COUNTS 48 50 0 0 0
M  V30 BEGIN ATOM
M  V30 1 Cl -3.2569 -5.6232 3.5015 0
M  V30 2 C -2.8107 -3.9952 3.1703 0
M  V30 3 C -3.3027 -3.3623 2.0276 0
M  V30 4 C -1.9624 -3.318 4.0481 0
M  V30 5 C -2.9418 -2.0414 1.7551 0
M  V30 6 C -1.5973 -1.9966 3.7823 0
M  V30 7 C -2.0825 -1.3696 2.6309 0
M  V30 8 S -1.6315 0.3132 2.2841 0
M  V30 9 O -2.743 0.9194 1.5785 0
M  V30 10 O -1.1104 0.8975 3.5043 0
M  V30 11 C -0.239 0.1375 1.1511 0 CFG=2
M  V30 12 C 0.5231 1.4172 0.8122 0 CFG=1
M  V30 13 C -0.4137 0.76 -0.2118 0 CFG=1
M  V30 14 C 0.0709 2.7793 1.3207 0
M  V30 15 C 2.0392 1.3363 0.7224 0
M  V30 16 C 0.1062 0.0929 -1.4635 0
M  V30 17 O 0.5629 3.7762 0.4209 0
M  V30 18 N 2.5791 -0.019 0.6673 0
M  V30 19 C 0.7789 0.8404 -2.4442 0
M  V30 20 C 0.0193 -1.2924 -1.6639 0
M  V30 21 C 0.1748 5.081 0.8324 0
M  V30 22 C 1.3237 0.2407 -3.5865 0
M  V30 23 C 0.5625 -1.8965 -2.8023 0
M  V30 24 C 1.2156 -1.1345 -3.7704 0
M  V30 25 O 1.701 -1.8476 -4.8304 0
M  V30 26 C 2.3404 -1.1078 -5.863 0
M  V30 27 H -3.971 -3.8902 1.3516 0
M  V30 28 H -1.587 -3.8121 4.9409 0
M  V30 29 H -3.3373 -1.5461 0.8704 0
M  V30 30 H -0.9419 -1.47 4.4733 0
M  V30 31 H 0.313 -0.7849 1.2506 0
M  V30 32 H -1.3471 1.2925 -0.3959 0
M  V30 33 H -1.0184 2.8682 1.3628 0
M  V30 34 H 0.4774 2.9562 2.3234 0
M  V30 35 H 2.3955 1.9037 -0.1443 0
M  V30 36 H 2.4681 1.814 1.6112 0
M  V30 37 H 2.3665 -0.4117 -0.2515 0
M  V30 38 H 3.597 0.0389 0.6938 0
M  V30 39 H 0.8785 1.9181 -2.3153 0
M  V30 40 H -0.48 -1.9197 -0.9296 0
M  V30 41 H 0.5822 5.8017 0.1184 0
M  V30 42 H 0.578 5.3058 1.8245 0
M  V30 43 H -0.9154 5.1731 0.8378 0
M  V30 44 H 1.825 0.8793 -4.3059 0
M  V30 45 H 0.475 -2.9724 -2.9336 0
M  V30 46 H 1.6504 -0.3921 -6.3221 0
M  V30 47 H 2.6505 -1.8153 -6.6379 0
M  V30 48 H 3.2399 -0.6071 -5.4899 0
M  V30 END ATOM
M  V30 BEGIN BOND
M  V30 1 1 1 2
M  V30 2 2 2 3
M  V30 3 1 2 4
M  V30 4 1 3 5
M  V30 5 2 4 6
M  V30 6 2 5 7
M  V30 7 1 7 8
M  V30 8 2 8 9
M  V30 9 2 8 10
M  V30 10 1 8 11
M  V30 11 1 11 12
M  V30 12 1 11 13
M  V30 13 1 12 14
M  V30 14 1 12 15
M  V30 15 1 13 16
M  V30 16 1 14 17
M  V30 17 1 15 18
M  V30 18 2 16 19
M  V30 19 1 16 20
M  V30 20 1 17 21
M  V30 21 1 19 22
M  V30 22 2 20 23
M  V30 23 2 22 24
M  V30 24 1 24 25
M  V30 25 1 25 26
M  V30 26 1 6 7
M  V30 27 1 12 13
M  V30 28 1 23 24
M  V30 29 1 3 27
M  V30 30 1 4 28
M  V30 31 1 5 29
M  V30 32 1 6 30
M  V30 33 1 11 31
M  V30 34 1 13 32
M  V30 35 1 14 33
M  V30 36 1 14 34
M  V30 37 1 15 35
M  V30 38 1 15 36
M  V30 39 1 18 37
M  V30 40 1 18 38
M  V30 41 1 19 39
M  V30 42 1 20 40
M  V30 43 1 21 41
M  V30 44 1 21 42
M  V30 45 1 21 43
M  V30 46 1 22 44
M  V30 47 1 23 45
M  V30 48 1 26 46
M  V30 49 1 26 47
M  V30 50 1 26 48
M  V30 END BOND
M  V30 BEGIN COLLECTION
M  V30 MDLV30/STEABS ATOMS=(3 11 12 13)
M  V30 END COLLECTION
M  V30 END CTAB
M  END
>  <NO.>
3934

>  <Name>
physostigmine

>  <SMILES>
COC[C@@]1(CN)[C@@H](S(=O)(=O)c2ccc(Cl)cc2)[C@@H]1c1ccc(OC)cc1

>  <logBB>


>  <Class>
1

>  <MW>
395.1

>  <nHBAcc>
5

>  <nHBDon>
1

>  <SLogP>
2.88

>  <TopoPSA>
78.62

>  <MMFF94 Energy>
55.545

$$$$
COC[C@@]1(CN)[C@H](c2ccc(OC)cc2)[C@@H]1S(C)(=O)=O
Actelion Java MolfileCreator 2.0

  0  0  0  0  0  0              0 V3000
M  V30 BEGIN CTAB
M  V30 COUNTS 41 42 0 0 0
M  V30 BEGIN ATOM
M  V30 1 S 0.7215 -0.9622 -2.4068 0
M  V30 2 O 1.2704 -0.1888 -3.5052 0
M  V30 3 O 1.5599 -1.4017 -1.3153 0
M  V30 4 C -0.6802 0.009 -1.8179 0 CFG=2
M  V30 5 C -0.0391 -2.4012 -3.1065 0
M  V30 6 C -0.3039 1.3202 -1.1205 0 CFG=2
M  V30 7 C -1.0316 0.2008 -0.3703 0 CFG=2
M  V30 8 C -1.1166 2.5067 -1.6357 0
M  V30 9 C 1.1442 1.6804 -0.8228 0
M  V30 10 C -0.5188 -0.7062 0.7209 0
M  V30 11 O -1.3839 3.4112 -0.565 0
M  V30 12 N 1.2282 2.6486 0.2658 0
M  V30 13 C -0.8285 -2.0779 0.7074 0
M  V30 14 C 0.2978 -0.2614 1.7688 0
M  V30 15 C -2.1477 4.5289 -0.998 0
M  V30 16 C -0.3453 -2.9527 1.6866 0
M  V30 17 C 0.7893 -1.1319 2.7526 0
M  V30 18 C 0.4718 -2.4855 2.7126 0
M  V30 19 O 0.8789 -3.4381 3.6046 0
M  V30 20 C 1.789 -3.0176 4.6132 0
M  V30 21 H -1.5078 0.0202 -2.516 0
M  V30 22 H 0.7451 -3.0221 -3.5445 0
M  V30 23 H -0.7423 -2.0892 -3.8808 0
M  V30 24 H -0.5529 -2.953 -2.3187 0
M  V30 25 H -2.0819 0.442 -0.1847 0
M  V30 26 H -2.0733 2.1754 -2.0578 0
M  V30 27 H -0.5581 3.0224 -2.4263 0
M  V30 28 H 1.5955 2.1123 -1.7233 0
M  V30 29 H 1.7549 0.8271 -0.5318 0
M  V30 30 H 0.5023 3.3597 0.1448 0
M  V30 31 H 2.1259 3.1251 0.2261 0
M  V30 32 H -1.4706 -2.4796 -0.0712 0
M  V30 33 H 0.5546 0.792 1.843 0
M  V30 34 H -2.314 5.1854 -0.1397 0
M  V30 35 H -3.1191 4.2035 -1.3824 0
M  V30 36 H -1.6057 5.0884 -1.7663 0
M  V30 37 H -0.6057 -4.0068 1.6449 0
M  V30 38 H 1.4156 -0.7098 3.5307 0
M  V30 39 H 2.7132 -2.6258 4.1756 0
M  V30 40 H 2.0509 -3.8944 5.2132 0
M  V30 41 H 1.325 -2.2845 5.2812 0
M  V30 END ATOM
M  V30 BEGIN BOND
M  V30 1 2 1 2
M  V30 2 2 1 3
M  V30 3 1 1 4
M  V30 4 1 1 5
M  V30 5 1 4 6
M  V30 6 1 4 7
M  V30 7 1 6 8
M  V30 8 1 6 9
M  V30 9 1 7 10
M  V30 10 1 8 11
M  V30 11 1 9 12
M  V30 12 2 10 13
M  V30 13 1 10 14
M  V30 14 1 11 15
M  V30 15 1 13 16
M  V30 16 2 14 17
M  V30 17 2 16 18
M  V30 18 1 18 19
M  V30 19 1 19 20
M  V30 20 1 6 7
M  V30 21 1 17 18
M  V30 22 1 4 21
M  V30 23 1 5 22
M  V30 24 1 5 23
M  V30 25 1 5 24
M  V30 26 1 7 25
M  V30 27 1 8 26
M  V30 28 1 8 27
M  V30 29 1 9 28
M  V30 30 1 9 29
M  V30 31 1 12 30
M  V30 32 1 12 31
M  V30 33 1 13 32
M  V30 34 1 14 33
M  V30 35 1 15 34
M  V30 36 1 15 35
M  V30 37 1 15 36
M  V30 38 1 16 37
M  V30 39 1 17 38
M  V30 40 1 20 39
M  V30 41 1 20 40
M  V30 42 1 20 41
M  V30 END BOND
M  V30 BEGIN COLLECTION
M  V30 MDLV30/STEABS ATOMS=(3 4 6 7)
M  V30 END COLLECTION
M  V30 END CTAB
M  END
>  <NO.>
3935

>  <Name>
dexamethasone

>  <SMILES>
COC[C@@]1(CN)[C@H](c2ccc(OC)cc2)[C@@H]1S(C)(=O)=O

>  <logBB>


>  <Class>
-1

>  <MW>
299.12

>  <nHBAcc>
5

>  <nHBDon>
1

>  <SLogP>
0.8

>  <TopoPSA>
78.62

>  <MMFF94 Energy>
33.194

$$$$
COC[C@@]1(N)[C@H](c2ccc(OC)cc2)[C@@H]1S(=O)(=O)c1ccc(Cl)cc1
Actelion Java MolfileCreator 2.0

  0  0  0  0  0  0              0 V3000
M  V30 BEGIN CTAB
M  V30 COUNTS 45 47 0 0 0
M  V30 BEGIN ATOM
M  V30 1 Cl 2.287 0.0 -7.0368 0
M  V30 2 C 1.7087 -0.4073 -5.4686 0
M  V30 3 C 0.6747 -1.3346 -5.3322 0
M  V30 4 C 2.2792 0.1896 -4.344 0
M  V30 5 C 0.2003 -1.6655 -4.0609 0
M  V30 6 C 1.8102 -0.1377 -3.07 0
M  V30 7 C 0.7632 -1.0543 -2.9353 0
M  V30 8 S 0.1725 -1.482 -1.3095 0
M  V30 9 O -0.5764 -2.718 -1.4472 0
M  V30 10 O 1.2977 -1.3871 -0.4008 0
M  V30 11 C -1.0532 -0.2101 -0.9746 0 CFG=2
M  V30 12 C -0.5978 1.088 -0.3561 0 CFG=1
M  V30 13 C -1.4281 0.0894 0.4525 0 CFG=2
M  V30 14 N 0.8318 1.3349 -0.0367 0
M  V30 15 C -1.3294 2.3532 -0.8016 0
M  V30 16 C -0.9244 -0.6196 1.6886 0
M  V30 17 O -1.3464 3.2688 0.2969 0
M  V30 18 C -1.0172 -2.0118 1.8343 0
M  V30 19 C -0.2901 0.0822 2.7279 0
M  V30 20 C -1.9227 4.5138 -0.0727 0
M  V30 21 C -0.5089 -2.6655 2.9623 0
M  V30 22 C 0.2208 -0.5661 3.8606 0
M  V30 23 C 0.1148 -1.948 3.9807 0
M  V30 24 O 0.5647 -2.7047 5.0262 0
M  V30 25 C 1.2684 -2.0219 6.0555 0
M  V30 26 H 0.241 -1.8072 -6.21 0
M  V30 27 H 3.0916 0.9041 -4.451 0
M  V30 28 H -0.5956 -2.4004 -3.9602 0
M  V30 29 H 2.267 0.321 -2.1953 0
M  V30 30 H -1.8566 -0.1804 -1.6991 0
M  V30 31 H -2.4773 0.3676 0.5768 0
M  V30 32 H 1.2642 0.4987 0.3802 0
M  V30 33 H 0.8874 2.0561 0.6865 0
M  V30 34 H -0.801 2.7982 -1.6534 0
M  V30 35 H -2.3604 2.1349 -1.1048 0
M  V30 36 H -1.4981 -2.6124 1.0649 0
M  V30 37 H -0.2049 1.1657 2.6669 0
M  V30 38 H -1.9194 5.1685 0.8028 0
M  V30 39 H -2.957 4.3749 -0.4015 0
M  V30 40 H -1.3353 4.9876 -0.865 0
M  V30 41 H -0.5967 -3.7464 3.0394 0
M  V30 42 H 0.6911 0.0414 4.6258 0
M  V30 43 H 2.1677 -1.5345 5.6647 0
M  V30 44 H 1.5865 -2.7652 6.7929 0
M  V30 45 H 0.6191 -1.3033 6.5666 0
M  V30 END ATOM
M  V30 BEGIN BOND
M  V30 1 1 1 2
M  V30 2 2 2 3
M  V30 3 1 2 4
M  V30 4 1 3 5
M  V30 5 2 4 6
M  V30 6 2 5 7
M  V30 7 1 7 8
M  V30 8 2 8 9
M  V30 9 2 8 10
M  V30 10 1 8 11
M  V30 11 1 11 12
M  V30 12 1 11 13
M  V30 13 1 12 14
M  V30 14 1 12 15
M  V30 15 1 13 16
M  V30 16 1 15 17
M  V30 17 2 16 18
M  V30 18 1 16 19
M  V30 19 1 17 20
M  V30 20 1 18 21
M  V30 21 2 19 22
M  V30 22 2 21 23
M  V30 23 1 23 24
M  V30 24 1 24 25
M  V30 25 1 6 7
M  V30 26 1 12 13
M  V30 27 1 22 23
M  V30 28 1 3 26
M  V30 29 1 4 27
M  V30 30 1 5 28
M  V30 31 1 6 29
M  V30 32 1 11 30
M  V30 33 1 13 31
M  V30 34 1 14 32
M  V30 35 1 14 33
M  V30 36 1 15 34
M  V30 37 1 15 35
M  V30 38 1 18 36
M  V30 39 1 19 37
M  V30 40 1 20 38
M  V30 41 1 20 39
M  V30 42 1 20 40
M  V30 43 1 21 41
M  V30 44 1 22 42
M  V30 45 1 25 43
M  V30 46 1 25 44
M  V30 47 1 25 45
M  V30 END BOND
M  V30 BEGIN COLLECTION
M  V30 MDLV30/STEABS ATOMS=(3 11 12 13)
M  V30 END COLLECTION
M  V30 END CTAB
M  END
>  <NO.>
3936

>  <Name>
propofol

>  <SMILES>
COC[C@@]1(N)[C@H](c2ccc(OC)cc2)[C@@H]1S(=O)(=O)c1ccc(Cl)cc1

>  <logBB>


>  <Class>
1

>  <MW>
381.08

>  <nHBAcc>
5

>  <nHBDon>
1

>  <SLogP>
2.63

>  <TopoPSA>
78.62

>  <MMFF94 Energy>
97.311

$$$$
COC[C@@]1(N)[C@H](c2ccccc2)[C@@H]1S(=O)(=O)c1ccc(C)cc1
Actelion Java MolfileCreator 2.0

  0  0  0  0  0  0              0 V3000
M  V30 BEGIN CTAB
M  V30 COUNTS 44 46 0 0 0
M  V30 BEGIN ATOM
M  V30 1 S 1.05 -0.7268 1.05 0
M  V30 2 O 1.1898 -1.6673 2.1507 0
M  V30 3 O 2.0288 0.3237 0.865 0
M  V30 4 C 1.0149 -1.701 -0.4392 0
M  V30 5 C -0.6317 -0.1082 1.1868 0 CFG=2
M  V30 6 C 0.4508 -2.9787 -0.4103 0
M  V30 7 C 1.591 -1.203 -1.609 0
M  V30 8 C -1.0796 1.0242 0.2995 0 CFG=1
M  V30 9 C -0.8915 1.2405 1.7993 0 CFG=2
M  V30 10 C 0.4354 -3.7492 -1.5741 0
M  V30 11 C 1.5715 -1.9782 -2.7692 0
M  V30 12 N -0.1589 1.6178 -0.6966 0
M  V30 13 C -2.5251 0.944 -0.1942 0
M  V30 14 C 0.1494 2.1235 2.4451 0
M  V30 15 C 0.9805 -3.2492 -2.7648 0
M  V30 16 O -2.5341 0.2148 -1.4234 0
M  V30 17 C 0.9134 1.6604 3.5328 0
M  V30 18 C 0.4348 3.416 1.9751 0
M  V30 19 C 0.9955 -4.0945 -4.0046 0
M  V30 20 C -3.8449 0.1147 -1.9625 0
M  V30 21 C 1.8985 2.4517 4.1305 0
M  V30 22 C 1.4174 4.2145 2.569 0
M  V30 23 C 2.1491 3.7315 3.6485 0
M  V30 24 H -1.3498 -0.8872 1.4093 0
M  V30 25 H 0.0358 -3.3839 0.5091 0
M  V30 26 H 2.0563 -0.2194 -1.6223 0
M  V30 27 H -1.8219 1.2828 2.3699 0
M  V30 28 H 0.002 -4.7467 -1.5461 0
M  V30 29 H 2.0259 -1.5859 -3.6765 0
M  V30 30 H -0.3503 1.197 -1.6109 0
M  V30 31 H -0.3345 2.6134 -0.8168 0
M  V30 32 H -2.9067 1.9582 -0.3631 0
M  V30 33 H -3.1725 0.441 0.5341 0
M  V30 34 H 0.7472 0.6579 3.923 0
M  V30 35 H -0.1202 3.8193 1.1337 0
M  V30 36 H 1.9075 -4.6983 -4.0346 0
M  V30 37 H 0.1275 -4.7616 -4.0326 0
M  V30 38 H 0.9537 -3.47 -4.9032 0
M  V30 39 H -3.7903 -0.4487 -2.8977 0
M  V30 40 H -4.2481 1.1092 -2.1763 0
M  V30 41 H -4.5038 -0.4188 -1.2708 0
M  V30 42 H 2.4767 2.0585 4.9621 0
M  V30 43 H 1.6162 5.2089 2.1792 0
M  V30 44 H 2.9211 4.3447 4.1043 0
M  V30 END ATOM
M  V30 BEGIN BOND
M  V30 1 2 1 2
M  V30 2 2 1 3
M  V30 3 1 1 4
M  V30 4 1 1 5
M  V30 5 2 4 6
M  V30 6 1 4 7
M  V30 7 1 5 8
M  V30 8 1 5 9
M  V30 9 1 6 10
M  V30 10 2 7 11
M  V30 11 1 8 12
M  V30 12 1 8 13
M  V30 13 1 9 14
M  V30 14 2 10 15
M  V30 15 1 13 16
M  V30 16 2 14 17
M  V30 17 1 14 18
M  V30 18 1 15 19
M  V30 19 1 16 20
M  V30 20 1 17 21
M  V30 21 2 18 22
M  V30 22 2 21 23
M  V30 23 1 8 9
M  V30 24 1 11 15
M  V30 25 1 22 23
M  V30 26 1 5 24
M  V30 27 1 6 25
M  V30 28 1 7 26
M  V30 29 1 9 27
M  V30 30 1 10 28
M  V30 31 1 11 29
M  V30 32 1 12 30
M  V30 33 1 12 31
M  V30 34 1 13 32
M  V30 35 1 13 33
M  V30 36 1 17 34
M  V30 37 1 18 35
M  V30 38 1 19 36
M  V30 39 1 19 37
M  V30 40 1 19 38
M  V30 41 1 20 39
M  V30 42 1 20 40
M  V30 43 1 20 41
M  V30 44 1 21 42
M  V30 45 1 22 43
M  V30 46 1 23 44
M  V30 END BOND
M  V30 BEGIN COLLECTION
M  V30 MDLV30/STEABS ATOMS=(3 5 8 9)
M  V30 END COLLECTION
M  V30 END CTAB
M  END
>  <NO.>
3937

>  <Name>
ampicillin

>  <SMILES>
COC[C@@]1(N)[C@H](c2ccccc2)[C@@H]1S(=O)(=O)c1ccc(C)cc1

>  <logBB>


>  <Class>
-1

>  <MW>
331.12

>  <nHBAcc>
4

>  <nHBDon>
1

>  <SLogP>
2.28

>  <TopoPSA>
69.39

>  <MMFF94 Energy>
101.89

$$$$
COC[C@]1(C#N)[C@H](c2ccccc2)[C@@H]1S(=O)(=O)c1ccc(Cl)cc1
Actelion Java MolfileCreator 2.0

  0  0  0  0  0  0              0 V3000
M  V30 BEGIN CTAB
M  V30 COUNTS 40 42 0 0 0
M  V30 BEGIN ATOM
M  V30 1 Cl 0.4126 -5.7882 3.8009 0
M  V30 2 C 0.6844 -4.3385 2.916 0
M  V30 3 C 1.3704 -3.2807 3.5145 0
M  V30 4 C 0.2238 -4.233 1.6027 0
M  V30 5 C 1.5939 -2.1029 2.7982 0
M  V30 6 C 0.4436 -3.0583 0.8797 0
M  V30 7 C 1.1157 -1.9933 1.4876 0
M  V30 8 S 1.4114 -0.4891 0.5779 0
M  V30 9 O 2.7226 -0.0202 0.9792 0
M  V30 10 O 1.0991 -0.7638 -0.8063 0
M  V30 11 C 0.2292 0.6471 1.2953 0 CFG=2
M  V30 12 C -1.1638 0.7353 0.6823 0 CFG=2
M  V30 13 C -0.1798 1.9133 0.5982 0 CFG=2
M  V30 14 C -2.2038 0.8032 1.6874 0
M  V30 15 C -1.5975 -0.0053 -0.5652 0
M  V30 16 C 0.3965 2.4481 -0.6927 0
M  V30 17 N -2.9773 0.8416 2.5511 0
M  V30 18 O -2.8665 0.5026 -0.9969 0
M  V30 19 C -0.4373 2.8082 -1.7674 0
M  V30 20 C 1.7811 2.5605 -0.9018 0
M  V30 21 C -3.3235 -0.1579 -2.1711 0
M  V30 22 C 0.0808 3.2573 -2.9855 0
M  V30 23 C 2.3074 3.0072 -2.1179 0
M  V30 24 C 1.4562 3.3538 -3.1612 0
M  V30 25 H 1.7389 -3.3721 4.5337 0
M  V30 26 H -0.2987 -5.065 1.1363 0
M  V30 27 H 2.1471 -1.2894 3.2636 0
M  V30 28 H 0.0986 -2.9934 -0.1499 0
M  V30 29 H 0.3252 0.7308 2.373 0
M  V30 30 H -0.4019 2.7369 1.2831 0
M  V30 31 H -0.9047 0.1135 -1.3987 0
M  V30 32 H -1.703 -1.073 -0.3401 0
M  V30 33 H -1.5192 2.7507 -1.6558 0
M  V30 34 H 2.4788 2.3141 -0.1038 0
M  V30 35 H -4.2958 0.2606 -2.4443 0
M  V30 36 H -3.4429 -1.2296 -1.9856 0
M  V30 37 H -2.627 0.0074 -2.9988 0
M  V30 38 H -0.5923 3.5299 -3.794 0
M  V30 39 H 3.3844 3.081 -2.2458 0
M  V30 40 H 1.8642 3.6997 -4.1069 0
M  V30 END ATOM
M  V30 BEGIN BOND
M  V30 1 1 1 2
M  V30 2 2 2 3
M  V30 3 1 2 4
M  V30 4 1 3 5
M  V30 5 2 4 6
M  V30 6 2 5 7
M  V30 7 1 7 8
M  V30 8 2 8 9
M  V30 9 2 8 10
M  V30 10 1 8 11
M  V30 11 1 11 12
M  V30 12 1 11 13
M  V30 13 1 12 14
M  V30 14 1 12 15
M  V30 15 1 13 16
M  V30 16 3 14 17
M  V30 17 1 15 18
M  V30 18 2 16 19
M  V30 19 1 16 20
M  V30 20 1 18 21
M  V30 21 1 19 22
M  V30 22 2 20 23
M  V30 23 2 22 24
M  V30 24 1 6 7
M  V30 25 1 12 13
M  V30 26 1 23 24
M  V30 27 1 3 25
M  V30 28 1 4 26
M  V30 29 1 5 27
M  V30 30 1 6 28
M  V30 31 1 11 29
M  V30 32 1 13 30
M  V30 33 1 15 31
M  V30 34 1 15 32
M  V30 35 1 19 33
M  V30 36 1 20 34
M  V30 37 1 21 35
M  V30 38 1 21 36
M  V30 39 1 21 37
M  V30 40 1 22 38
M  V30 41 1 23 39
M  V30 42 1 24 40
M  V30 END BOND
M  V30 BEGIN COLLECTION
M  V30 MDLV30/STEABS ATOMS=(3 11 12 13)
M  V30 END COLLECTION
M  V30 END CTAB
M  END
>  <NO.>
3938

>  <Name>
penicillin g

>  <SMILES>
COC[C@]1(C#N)[C@H](c2ccccc2)[C@@H]1S(=O)(=O)c1ccc(Cl)cc1

>  <logBB>


>  <Class>
-1

>  <MW>
361.05

>  <nHBAcc>
4

>  <nHBDon>
0

>  <SLogP>
3.44

>  <TopoPSA>
67.16

>  <MMFF94 Energy>
51.803

$$$$
COC[C@]1(C(=O)O)[C@@H](S(=O)(=O)c2ccc(C)cc2)[C@@H]1c1ccc(OC)cc1
Actelion Java MolfileCreator 2.0

  0  0  0  0  0  0              0 V3000
M  V30 BEGIN CTAB
M  V30 COUNTS 49 51 0 0 0
M  V30 BEGIN ATOM
M  V30 1 S 0.3233 1.051 2.6696 0
M  V30 2 O 0.244 2.4958 2.5903 0
M  V30 3 O 1.0419 0.3909 3.739 0
M  V30 4 C -1.343 0.4329 2.6759 0
M  V30 5 C 0.9649 0.3887 1.119 0 CFG=2
M  V30 6 C -2.3317 1.126 1.9734 0
M  V30 7 C -1.652 -0.7259 3.3899 0
M  V30 8 C 2.2328 1.0279 0.588 0 CFG=1
M  V30 9 C 0.8612 1.3109 -0.0666 0 CFG=1
M  V30 10 C -3.6387 0.6371 1.9671 0
M  V30 11 C -2.9617 -1.2081 3.3792 0
M  V30 12 C 2.8883 2.1396 1.3325 0
M  V30 13 C 3.2088 0.0482 -0.0406 0
M  V30 14 C 0.5092 0.793 -1.4418 0
M  V30 15 C -3.9602 -0.5401 2.6566 0
M  V30 16 O 3.7697 1.9876 2.1599 0
M  V30 17 O 2.5201 3.367 0.9162 0
M  V30 18 O 3.4005 -1.0537 0.8491 0
M  V30 19 C 1.1286 1.3294 -2.5812 0
M  V30 20 C -0.3975 -0.2602 -1.6414 0
M  V30 21 C -5.375 -1.041 2.6805 0
M  V30 22 C 4.4547 -1.9021 0.4161 0
M  V30 23 C 0.8483 0.8403 -3.8604 0
M  V30 24 C -0.6818 -0.7534 -2.9222 0
M  V30 25 C -0.0576 -0.2037 -4.0388 0
M  V30 26 O -0.2407 -0.5887 -5.3372 0
M  V30 27 C -1.1674 -1.6417 -5.5714 0
M  V30 28 H 0.8457 -0.6777 0.9907 0
M  V30 29 H -2.0988 2.0451 1.4401 0
M  V30 30 H -0.8888 -1.254 3.9581 0
M  V30 31 H 0.4385 2.2986 0.1185 0
M  V30 32 H -4.4091 1.1842 1.4268 0
M  V30 33 H -3.2015 -2.1071 3.9441 0
M  V30 34 H 4.1668 0.5467 -0.234 0
M  V30 35 H 2.845 -0.3469 -0.9931 0
M  V30 36 H 2.9886 3.9698 1.5312 0
M  V30 37 H 1.8391 2.1475 -2.4746 0
M  V30 38 H -0.9069 -0.709 -0.7908 0
M  V30 39 H -5.9153 -0.5958 3.5217 0
M  V30 40 H -5.8948 -0.7867 1.7508 0
M  V30 41 H -5.4014 -2.1312 2.7792 0
M  V30 42 H 4.5372 -2.735 1.1194 0
M  V30 43 H 5.4042 -1.3583 0.4064 0
M  V30 44 H 4.2392 -2.3036 -0.5786 0
M  V30 45 H 1.3411 1.2797 -4.7245 0
M  V30 46 H -1.3951 -1.5664 -3.0075 0
M  V30 47 H -0.8414 -2.5687 -5.0884 0
M  V30 48 H -1.2022 -1.8227 -6.65 0
M  V30 49 H -2.1752 -1.3601 -5.2483 0
M  V30 END ATOM
M  V30 BEGIN BOND
M  V30 1 2 1 2
M  V30 2 2 1 3
M  V30 3 1 1 4
M  V30 4 1 1 5
M  V30 5 2 4 6
M  V30 6 1 4 7
M  V30 7 1 5 8
M  V30 8 1 5 9
M  V30 9 1 6 10
M  V30 10 2 7 11
M  V30 11 1 8 12
M  V30 12 1 8 13
M  V30 13 1 9 14
M  V30 14 2 10 15
M  V30 15 2 12 16
M  V30 16 1 12 17
M  V30 17 1 13 18
M  V30 18 2 14 19
M  V30 19 1 14 20
M  V30 20 1 15 21
M  V30 21 1 18 22
M  V30 22 1 19 23
M  V30 23 2 20 24
M  V30 24 2 23 25
M  V30 25 1 25 26
M  V30 26 1 26 27
M  V30 27 1 8 9
M  V30 28 1 11 15
M  V30 29 1 24 25
M  V30 30 1 5 28
M  V30 31 1 6 29
M  V30 32 1 7 30
M  V30 33 1 9 31
M  V30 34 1 10 32
M  V30 35 1 11 33
M  V30 36 1 13 34
M  V30 37 1 13 35
M  V30 38 1 17 36
M  V30 39 1 19 37
M  V30 40 1 20 38
M  V30 41 1 21 39
M  V30 42 1 21 40
M  V30 43 1 21 41
M  V30 44 1 22 42
M  V30 45 1 22 43
M  V30 46 1 22 44
M  V30 47 1 23 45
M  V30 48 1 24 46
M  V30 49 1 27 47
M  V30 50 1 27 48
M  V30 51 1 27 49
M  V30 END BOND
M  V30 BEGIN COLLECTION
M  V30 MDLV30/STEABS ATOMS=(3 5 8 9)
M  V30 END COLLECTION
M  V30 END CTAB
M  END
>  <NO.>
3939

>  <Name>
nelfinavir

>  <SMILES>
COC[C@]1(C(=O)O)[C@@H](S(=O)(=O)c2ccc(C)cc2)[C@@H]1c1ccc(OC)cc1

>  <logBB>


>  <Class>
-1

>  <MW>
390.11

>  <nHBAcc>
5

>  <nHBDon>
1

>  <SLogP>
2.66

>  <TopoPSA>
89.9

>  <MMFF94 Energy>
25.787

$$$$
COC[C@]1(C(=O)O)[C@@H](S(C)(=O)=O)[C@@H]1c1ccc(OC)cc1
Actelion Java MolfileCreator 2.0

  0  0  0  0  0  0              0 V3000
M  V30 BEGIN CTAB
M  V30 COUNTS 39 40 0 0 0
M  V30 BEGIN ATOM
M  V30 1 S -2.0205 0.1615 3.2344 0
M  V30 2 O -1.3774 0.5115 4.4833 0
M  V30 3 O -3.1235 0.933 2.7028 0
M  V30 4 C -0.6923 0.0765 2.0134 0 CFG=2
M  V30 5 C -2.5561 -1.5236 3.3579 0
M  V30 6 C -0.3328 1.3665 1.305 0 CFG=1
M  V30 7 C -1.1228 0.2605 0.5789 0 CFG=1
M  V30 8 C -1.0347 2.6321 1.6551 0
M  V30 9 C 1.1534 1.5469 1.0613 0
M  V30 10 C -0.5095 -0.5772 -0.5216 0
M  V30 11 O -0.6655 3.3835 2.542 0
M  V30 12 O -2.0679 2.9346 0.846 0
M  V30 13 O 1.3423 2.3684 -0.091 0
M  V30 14 C -0.2528 -1.9474 -0.3637 0
M  V30 15 C -0.0981 0.0132 -1.7271 0
M  V30 16 C 2.7206 2.6046 -0.3436 0
M  V30 17 C 0.3658 -2.6922 -1.3734 0
M  V30 18 C 0.5225 -0.7271 -2.7413 0
M  V30 19 C 0.7558 -2.0878 -2.5677 0
M  V30 20 O 1.3505 -2.9265 -3.468 0
M  V30 21 C 1.7343 -2.3601 -4.7149 0
M  V30 22 H 0.1055 -0.6116 2.2531 0
M  V30 23 H -3.3467 -1.5766 4.1093 0
M  V30 24 H -1.7096 -2.1423 3.6613 0
M  V30 25 H -2.9405 -1.8431 2.3876 0
M  V30 26 H -2.1778 0.4709 0.4025 0
M  V30 27 H 1.6588 0.5865 0.9041 0
M  V30 28 H 1.6129 2.027 1.9343 0
M  V30 29 H -2.4306 3.7585 1.2313 0
M  V30 30 H -0.5438 -2.4582 0.5502 0
M  V30 31 H -0.2621 1.08 -1.8809 0
M  V30 32 H 2.8041 3.2351 -1.2328 0
M  V30 33 H 3.2419 1.6615 -0.5341 0
M  V30 34 H 3.1812 3.1273 0.5001 0
M  V30 35 H 0.5447 -3.7548 -1.2268 0
M  V30 36 H 0.8112 -0.204 -3.6465 0
M  V30 37 H 0.8659 -1.9697 -5.2559 0
M  V30 38 H 2.1744 -3.1568 -5.3223 0
M  V30 39 H 2.4966 -1.586 -4.5781 0
M  V30 END ATOM
M  V30 BEGIN BOND
M  V30 1 2 1 2
M  V30 2 2 1 3
M  V30 3 1 1 4
M  V30 4 1 1 5
M  V30 5 1 4 6
M  V30 6 1 4 7
M  V30 7 1 6 8
M  V30 8 1 6 9
M  V30 9 1 7 10
M  V30 10 2 8 11
M  V30 11 1 8 12
M  V30 12 1 9 13
M  V30 13 2 10 14
M  V30 14 1 10 15
M  V30 15 1 13 16
M  V30 16 1 14 17
M  V30 17 2 15 18
M  V30 18 2 17 19
M  V30 19 1 19 20
M  V30 20 1 20 21
M  V30 21 1 6 7
M  V30 22 1 18 19
M  V30 23 1 4 22
M  V30 24 1 5 23
M  V30 25 1 5 24
M  V30 26 1 5 25
M  V30 27 1 7 26
M  V30 28 1 9 27
M  V30 29 1 9 28
M  V30 30 1 12 29
M  V30 31 1 14 30
M  V30 32 1 15 31
M  V30 33 1 16 32
M  V30 34 1 16 33
M  V30 35 1 16 34
M  V30 36 1 17 35
M  V30 37 1 18 36
M  V30 38 1 21 37
M  V30 39 1 21 38
M  V30 40 1 21 39
M  V30 END BOND
M  V30 BEGIN COLLECTION
M  V30 MDLV30/STEABS ATOMS=(3 4 6 7)
M  V30 END COLLECTION
M  V30 END CTAB
M  END
>  <NO.>
3940

>  <Name>
disulfiram

>  <SMILES>
COC[C@]1(C(=O)O)[C@@H](S(C)(=O)=O)[C@@H]1c1ccc(OC)cc1

>  <logBB>


>  <Class>
1

>  <MW>
314.08

>  <nHBAcc>
5

>  <nHBDon>
1

>  <SLogP>
0.92

>  <TopoPSA>
89.9

>  <MMFF94 Energy>
-13.109

$$$$
COC[C@]1(C(=O)O)[C@H](c2ccc(OC)cc2)[C@@H]1S(=O)(=O)c1ccc(Cl)cc1
Actelion Java MolfileCreator 2.0

  0  0  0  0  0  0              0 V3000
M  V30 BEGIN CTAB
M  V30 COUNTS 46 48 0 0 0
M  V30 BEGIN ATOM
M  V30 1 Cl 1.3927 1.7206 -6.8959 0
M  V30 2 C 0.9918 1.0156 -5.3786 0
M  V30 3 C -0.2927 0.5123 -5.1678 0
M  V30 4 C 1.9554 0.9455 -4.3722 0
M  V30 5 C -0.6221 -0.0593 -3.9369 0
M  V30 6 C 1.6324 0.374 -3.1397 0
M  V30 7 C 0.3398 -0.111 -2.9219 0
M  V30 8 S -0.082 -0.8555 -1.3612 0
M  V30 9 O -0.6428 -2.1539 -1.6888 0
M  V30 10 O 1.0706 -0.7558 -0.4922 0
M  V30 11 C -1.4575 0.1142 -0.7453 0 CFG=2
M  V30 12 C -1.2272 1.3662 0.0979 0 CFG=2
M  V30 13 C -1.8178 0.0731 0.7111 0 CFG=2
M  V30 14 C -2.2265 2.4627 -0.1433 0
M  V30 15 C 0.1713 1.819 0.4603 0
M  V30 16 C -1.1405 -0.7066 1.8132 0
M  V30 17 O -3.3502 2.2727 -0.5833 0
M  V30 18 O -1.8346 3.693 0.2375 0
M  V30 19 O 0.7948 2.3168 -0.7242 0
M  V30 20 C -0.888 -2.0832 1.7067 0
M  V30 21 C -0.6838 -0.0716 2.9803 0
M  V30 22 C 2.0932 2.8275 -0.4463 0
M  V30 23 C -0.2129 -2.7947 2.7087 0
M  V30 24 C -0.0131 -0.7763 3.9856 0
M  V30 25 C 0.2309 -2.1412 3.8537 0
M  V30 26 O 0.8977 -2.7104 4.9022 0
M  V30 27 C 1.2226 -4.0895 4.7797 0
M  V30 28 H -1.0365 0.5564 -5.9595 0
M  V30 29 H 2.9574 1.3312 -4.5412 0
M  V30 30 H -1.6173 -0.4712 -3.7873 0
M  V30 31 H 2.3874 0.3168 -2.3589 0
M  V30 32 H -2.3004 0.117 -1.4275 0
M  V30 33 H -2.8986 0.0981 0.8792 0
M  V30 34 H 0.1237 2.6166 1.2121 0
M  V30 35 H 0.79 1.0353 0.8996 0
M  V30 36 H -2.5972 4.2675 0.0166 0
M  V30 37 H -1.2278 -2.6331 0.8308 0
M  V30 38 H -0.8606 0.9918 3.1258 0
M  V30 39 H 2.525 3.1946 -1.3811 0
M  V30 40 H 2.7385 2.038 -0.0494 0
M  V30 41 H 2.0345 3.66 0.2614 0
M  V30 42 H -0.0525 -3.8563 2.5542 0
M  V30 43 H 0.3234 -0.2537 4.8775 0
M  V30 44 H 0.3178 -4.7043 4.729 0
M  V30 45 H 1.7745 -4.3837 5.6776 0
M  V30 46 H 1.872 -4.2683 3.9163 0
M  V30 END ATOM
M  V30 BEGIN BOND
M  V30 1 1 1 2
M  V30 2 2 2 3
M  V30 3 1 2 4
M  V30 4 1 3 5
M  V30 5 2 4 6
M  V30 6 2 5 7
M  V30 7 1 7 8
M  V30 8 2 8 9
M  V30 9 2 8 10
M  V30 10 1 8 11
M  V30 11 1 11 12
M  V30 12 1 11 13
M  V30 13 1 12 14
M  V30 14 1 12 15
M  V30 15 1 13 16
M  V30 16 2 14 17
M  V30 17 1 14 18
M  V30 18 1 15 19
M  V30 19 2 16 20
M  V30 20 1 16 21
M  V30 21 1 19 22
M  V30 22 1 20 23
M  V30 23 2 21 24
M  V30 24 2 23 25
M  V30 25 1 25 26
M  V30 26 1 26 27
M  V30 27 1 6 7
M  V30 28 1 12 13
M  V30 29 1 24 25
M  V30 30 1 3 28
M  V30 31 1 4 29
M  V30 32 1 5 30
M  V30 33 1 6 31
M  V30 34 1 11 32
M  V30 35 1 13 33
M  V30 36 1 15 34
M  V30 37 1 15 35
M  V30 38 1 18 36
M  V30 39 1 20 37
M  V30 40 1 21 38
M  V30 41 1 22 39
M  V30 42 1 22 40
M  V30 43 1 22 41
M  V30 44 1 23 42
M  V30 45 1 24 43
M  V30 46 1 27 44
M  V30 47 1 27 45
M  V30 48 1 27 46
M  V30 END BOND
M  V30 BEGIN COLLECTION
M  V30 MDLV30/STEABS ATOMS=(3 11 12 13)
M  V30 END COLLECTION
M  V30 END CTAB
M  END
>  <NO.>
3941

>  <Name>
probenecid

>  <SMILES>
COC[C@]1(C(=O)O)[C@H](c2ccc(OC)cc2)[C@@H]1S(=O)(=O)c1ccc(Cl)cc1

>  <logBB>


>  <Class>
-1

>  <MW>
410.06

>  <nHBAcc>
5

>  <nHBDon>
1

>  <SLogP>
3.01

>  <TopoPSA>
89.9

>  <MMFF94 Energy>
27.855

$$$$
CO[C@H]1C(=O)N(c2cccc(F)c2)[C@@H]1C(=O)O
Actelion Java MolfileCreator 2.0

  0  0  0  0  0  0              0 V3000
M  V30 BEGIN CTAB
M  V30 COUNTS 27 28 0 0 0
M  V30 BEGIN ATOM
M  V30 1 F 4.5162 0.0 -1.5305 0
M  V30 2 C 3.5809 0.1176 -0.5787 0
M  V30 3 C 2.2388 -0.0349 -0.9146 0
M  V30 4 C 3.9703 0.3888 0.7266 0
M  V30 5 C 1.256 0.0824 0.0716 0
M  V30 6 C 2.9995 0.5118 1.7161 0
M  V30 7 N -0.0917 -0.0701 -0.2409 0
M  V30 8 C 1.6476 0.3597 1.3893 0
M  V30 9 C -0.7591 -0.1707 -1.4162 0
M  V30 10 C -1.2756 -0.1496 0.6244 0 CFG=1
M  V30 11 O -0.4011 -0.1856 -2.5719 0
M  V30 12 C -2.1256 -0.2323 -0.6777 0 CFG=1
M  V30 13 C -1.3455 -1.4048 1.549 0
M  V30 14 O -3.0352 0.8754 -0.916 0
M  V30 15 O -1.4451 -2.5827 1.2275 0
M  V30 16 O -1.2869 -1.1059 2.8719 0
M  V30 17 C -3.5691 0.9573 -2.232 0
M  V30 18 H 1.9898 -0.2479 -1.9496 0
M  V30 19 H 5.0237 0.5041 0.9606 0
M  V30 20 H 3.291 0.7292 2.7407 0
M  V30 21 H 0.914 0.4741 2.1832 0
M  V30 22 H -1.4308 0.7882 1.1735 0
M  V30 23 H -2.637 -1.1913 -0.8233 0
M  V30 24 H -1.3366 -1.9814 3.3135 0
M  V30 25 H -4.0164 0.0022 -2.5214 0
M  V30 26 H -4.3436 1.7285 -2.2434 0
M  V30 27 H -2.7848 1.2364 -2.9403 0
M  V30 END ATOM
M  V30 BEGIN BOND
M  V30 1 1 1 2
M  V30 2 2 2 3
M  V30 3 1 2 4
M  V30 4 1 3 5
M  V30 5 2 4 6
M  V30 6 1 5 7
M  V30 7 2 5 8
M  V30 8 1 7 9
M  V30 9 1 7 10
M  V30 10 2 9 11
M  V30 11 1 9 12
M  V30 12 1 10 13
M  V30 13 1 12 14
M  V30 14 2 13 15
M  V30 15 1 13 16
M  V30 16 1 14 17
M  V30 17 1 6 8
M  V30 18 1 10 12
M  V30 19 1 3 18
M  V30 20 1 4 19
M  V30 21 1 6 20
M  V30 22 1 8 21
M  V30 23 1 10 22
M  V30 24 1 12 23
M  V30 25 1 16 24
M  V30 26 1 17 25
M  V30 27 1 17 26
M  V30 28 1 17 27
M  V30 END BOND
M  V30 BEGIN COLLECTION
M  V30 MDLV30/STEABS ATOMS=(2 10 12)
M  V30 END COLLECTION
M  V30 END CTAB
M  END
>  <NO.>
3942

>  <Name>
nandrolone

>  <SMILES>
CO[C@H]1C(=O)N(c2cccc(F)c2)[C@@H]1C(=O)O

>  <logBB>


>  <Class>
-1

>  <MW>
239.06

>  <nHBAcc>
3

>  <nHBDon>
1

>  <SLogP>
0.64

>  <TopoPSA>
66.84

>  <MMFF94 Energy>
22.447

$$$$
COc1cc(C(=O)NCCCN2CCCc3ccccc32)cc(OC)c1OC
Actelion Java MolfileCreator 2.0

  0  0  0  0  0  0              0 V3000
M  V30 BEGIN CTAB
M  V30 COUNTS 56 58 0 0 0
M  V30 BEGIN ATOM
M  V30 1 O 1.0258 2.5266 -0.1577 0
M  V30 2 C 0.6715 1.8933 0.8298 0
M  V30 3 N -0.584 1.3394 0.9699 0
M  V30 4 C 1.6299 1.6502 1.9414 0
M  V30 5 C -1.5991 1.5023 -0.0519 0
M  V30 6 C 2.9925 1.5552 1.6234 0
M  V30 7 C 1.1995 1.5446 3.2718 0
M  V30 8 C -1.4791 0.4359 -1.1347 0
M  V30 9 C 3.9331 1.3205 2.6259 0
M  V30 10 C 2.1286 1.3119 4.2873 0
M  V30 11 C -2.5218 0.6563 -2.2301 0
M  V30 12 O 5.2829 1.2014 2.4193 0
M  V30 13 C 3.4872 1.1727 3.9511 0
M  V30 14 O 1.8134 1.1804 5.6152 0
M  V30 15 N -2.458 -0.4001 -3.2422 0
M  V30 16 C 5.7782 1.5587 1.1353 0
M  V30 17 O 4.409 0.9795 4.9571 0
M  V30 18 C 0.5359 1.6448 6.0304 0
M  V30 19 C -3.0819 -1.6367 -3.0962 0
M  V30 20 C -1.4585 -0.2418 -4.3017 0
M  V30 21 C 4.6346 -0.4163 5.1446 0
M  V30 22 C -2.9556 -2.6314 -4.0935 0
M  V30 23 C -3.8801 -1.9567 -1.9846 0
M  V30 24 C -1.9281 -0.9048 -5.5839 0
M  V30 25 C -3.5704 -3.8891 -3.9467 0
M  V30 26 C -2.1254 -2.3892 -5.3297 0
M  V30 27 C -4.5015 -3.204 -1.8472 0
M  V30 28 C -4.343 -4.173 -2.8273 0
M  V30 29 H -0.7842 0.7231 1.7457 0
M  V30 30 H -1.5101 2.5047 -0.4857 0
M  V30 31 H -2.5711 1.4333 0.4481 0
M  V30 32 H 3.286 1.6604 0.583 0
M  V30 33 H 0.1475 1.6659 3.5007 0
M  V30 34 H -1.5927 -0.5566 -0.6824 0
M  V30 35 H -0.4731 0.456 -1.5723 0
M  V30 36 H -3.5307 0.7427 -1.8105 0
M  V30 37 H -2.3358 1.6273 -2.7075 0
M  V30 38 H 5.4406 0.8478 0.3744 0
M  V30 39 H 6.8707 1.51 1.1736 0
M  V30 40 H 5.4996 2.5845 0.8713 0
M  V30 41 H 0.3657 2.6812 5.7194 0
M  V30 42 H 0.5084 1.6161 7.124 0
M  V30 43 H -0.2566 0.9864 5.6605 0
M  V30 44 H -1.2797 0.8209 -4.5034 0
M  V30 45 H -0.5034 -0.6703 -3.9725 0
M  V30 46 H 3.7141 -0.9338 5.4367 0
M  V30 47 H 5.3584 -0.5319 5.957 0
M  V30 48 H 5.0593 -0.8774 4.2464 0
M  V30 49 H -4.0361 -1.2416 -1.1843 0
M  V30 50 H -1.1947 -0.7554 -6.3838 0
M  V30 51 H -2.8712 -0.451 -5.9149 0
M  V30 52 H -3.4486 -4.6488 -4.7153 0
M  V30 53 H -2.6091 -2.8379 -6.2054 0
M  V30 54 H -1.153 -2.8793 -5.1961 0
M  V30 55 H -5.1073 -3.4119 -0.9695 0
M  V30 56 H -4.8202 -5.143 -2.7227 0
M  V30 END ATOM
M  V30 BEGIN BOND
M  V30 1 2 1 2
M  V30 2 1 2 3
M  V30 3 1 2 4
M  V30 4 1 3 5
M  V30 5 2 4 6
M  V30 6 1 4 7
M  V30 7 1 5 8
M  V30 8 1 6 9
M  V30 9 2 7 10
M  V30 10 1 8 11
M  V30 11 1 9 12
M  V30 12 2 9 13
M  V30 13 1 10 14
M  V30 14 1 11 15
M  V30 15 1 12 16
M  V30 16 1 13 17
M  V30 17 1 14 18
M  V30 18 1 15 19
M  V30 19 1 15 20
M  V30 20 1 17 21
M  V30 21 2 19 22
M  V30 22 1 19 23
M  V30 23 1 20 24
M  V30 24 1 22 25
M  V30 25 1 22 26
M  V30 26 2 23 27
M  V30 27 2 25 28
M  V30 28 1 10 13
M  V30 29 1 24 26
M  V30 30 1 27 28
M  V30 31 1 3 29
M  V30 32 1 5 30
M  V30 33 1 5 31
M  V30 34 1 6 32
M  V30 35 1 7 33
M  V30 36 1 8 34
M  V30 37 1 8 35
M  V30 38 1 11 36
M  V30 39 1 11 37
M  V30 40 1 16 38
M  V30 41 1 16 39
M  V30 42 1 16 40
M  V30 43 1 18 41
M  V30 44 1 18 42
M  V30 45 1 18 43
M  V30 46 1 20 44
M  V30 47 1 20 45
M  V30 48 1 21 46
M  V30 49 1 21 47
M  V30 50 1 21 48
M  V30 51 1 23 49
M  V30 52 1 24 50
M  V30 53 1 24 51
M  V30 54 1 25 52
M  V30 55 1 26 53
M  V30 56 1 26 54
M  V30 57 1 27 55
M  V30 58 1 28 56
M  V30 END BOND
M  V30 END CTAB
M  END
>  <NO.>
3944

>  <Name>
stavudine

>  <SMILES>
COc1cc(C(=O)NCCCN2CCCc3ccccc32)cc(OC)c1OC

>  <logBB>


>  <Class>
1

>  <MW>
384.2

>  <nHBAcc>
5

>  <nHBDon>
1

>  <SLogP>
3.29

>  <TopoPSA>
60.03

>  <MMFF94 Energy>
49.599

$$$$
COc1cc(C(=O)N[C@@H]2CC(C)(C)Oc3cc(C)ccc32)cc(OC)c1OC
Actelion Java MolfileCreator 2.0

  0  0  0  0  0  0              0 V3000
M  V30 BEGIN CTAB
M  V30 COUNTS 55 57 0 0 0
M  V30 BEGIN ATOM
M  V30 1 O 1.8204 -1.7412 0.1581 0
M  V30 2 C 0.7264 -1.2385 -0.0694 0
M  V30 3 N 0.4175 0.07 0.2225 0
M  V30 4 C -0.366 -2.0608 -0.6567 0
M  V30 5 C 1.3967 0.9756 0.8104 0 CFG=1
M  V30 6 C -0.3647 -3.4382 -0.3924 0
M  V30 7 C -1.3561 -1.4927 -1.4716 0
M  V30 8 C 1.0848 2.411 0.4667 0
M  V30 9 C 1.4251 0.7804 2.3259 0
M  V30 10 C -1.3643 -4.2558 -0.9182 0
M  V30 11 C -2.366 -2.2955 -2.004 0
M  V30 12 C 1.1822 3.4121 1.4368 0
M  V30 13 C 0.7471 2.7797 -0.8465 0
M  V30 14 C 2.1758 1.9215 3.0187 0
M  V30 15 O -1.463 -5.6067 -0.7096 0
M  V30 16 C -2.353 -3.676 -1.7329 0
M  V30 17 O -3.3811 -1.845 -2.8076 0
M  V30 18 O 1.5657 3.1916 2.7314 0
M  V30 19 C 0.8761 4.7385 1.1208 0
M  V30 20 C 0.4551 4.1081 -1.1649 0
M  V30 21 C 3.6667 1.9744 2.6517 0
M  V30 22 C 2.0587 1.7381 4.5397 0
M  V30 23 C -0.5062 -6.2091 0.1517 0
M  V30 24 O -3.3744 -4.463 -2.2196 0
M  V30 25 C -3.5251 -0.4403 -2.9641 0
M  V30 26 C 0.4963 5.096 -0.1776 0
M  V30 27 C -3.0028 -5.0126 -3.4826 0
M  V30 28 C 0.2132 6.5286 -0.5182 0
M  V30 29 H -0.5347 0.4013 0.1547 0
M  V30 30 H 2.382 0.7328 0.3929 0
M  V30 31 H 0.4278 -3.8407 0.2315 0
M  V30 32 H -1.3094 -0.4359 -1.7053 0
M  V30 33 H 1.8667 -0.1922 2.5761 0
M  V30 34 H 0.3901 0.7577 2.6984 0
M  V30 35 H 0.7185 2.0306 -1.635 0
M  V30 36 H 0.9501 5.4967 1.8974 0
M  V30 37 H 0.1998 4.3669 -2.1901 0
M  V30 38 H 3.8242 2.1957 1.5914 0
M  V30 39 H 4.1709 2.7773 3.2024 0
M  V30 40 H 4.1682 1.0291 2.8833 0
M  V30 41 H 2.5071 0.7953 4.8695 0
M  V30 42 H 2.5495 2.5612 5.0722 0
M  V30 43 H 1.0089 1.7526 4.8552 0
M  V30 44 H 0.5036 -6.1263 -0.2627 0
M  V30 45 H -0.7481 -7.2735 0.2272 0
M  V30 46 H -0.5577 -5.784 1.1596 0
M  V30 47 H -3.6494 0.0576 -1.9967 0
M  V30 48 H -4.4312 -0.2598 -3.5504 0
M  V30 49 H -2.6805 -0.0201 -3.5194 0
M  V30 50 H -2.8131 -4.2255 -4.2206 0
M  V30 51 H -3.8402 -5.6175 -3.843 0
M  V30 52 H -2.1286 -5.6662 -3.3933 0
M  V30 53 H -0.217 7.0562 0.3395 0
M  V30 54 H 1.1378 7.0323 -0.8165 0
M  V30 55 H -0.509 6.5997 -1.3382 0
M  V30 END ATOM
M  V30 BEGIN BOND
M  V30 1 2 1 2
M  V30 2 1 2 3
M  V30 3 1 2 4
M  V30 4 1 3 5
M  V30 5 2 4 6
M  V30 6 1 4 7
M  V30 7 1 5 8
M  V30 8 1 5 9
M  V30 9 1 6 10
M  V30 10 2 7 11
M  V30 11 2 8 12
M  V30 12 1 8 13
M  V30 13 1 9 14
M  V30 14 1 10 15
M  V30 15 2 10 16
M  V30 16 1 11 17
M  V30 17 1 12 18
M  V30 18 1 12 19
M  V30 19 2 13 20
M  V30 20 1 14 21
M  V30 21 1 14 22
M  V30 22 1 15 23
M  V30 23 1 16 24
M  V30 24 1 17 25
M  V30 25 2 19 26
M  V30 26 1 24 27
M  V30 27 1 26 28
M  V30 28 1 11 16
M  V30 29 1 14 18
M  V30 30 1 20 26
M  V30 31 1 3 29
M  V30 32 1 5 30
M  V30 33 1 6 31
M  V30 34 1 7 32
M  V30 35 1 9 33
M  V30 36 1 9 34
M  V30 37 1 13 35
M  V30 38 1 19 36
M  V30 39 1 20 37
M  V30 40 1 21 38
M  V30 41 1 21 39
M  V30 42 1 21 40
M  V30 43 1 22 41
M  V30 44 1 22 42
M  V30 45 1 22 43
M  V30 46 1 23 44
M  V30 47 1 23 45
M  V30 48 1 23 46
M  V30 49 1 25 47
M  V30 50 1 25 48
M  V30 51 1 25 49
M  V30 52 1 27 50
M  V30 53 1 27 51
M  V30 54 1 27 52
M  V30 55 1 28 53
M  V30 56 1 28 54
M  V30 57 1 28 55
M  V30 END BOND
M  V30 BEGIN COLLECTION
M  V30 MDLV30/STEABS ATOMS=(1 5)
M  V30 END COLLECTION
M  V30 END CTAB
M  END
>  <NO.>
3945

>  <Name>
ropinirole

>  <SMILES>
COc1cc(C(=O)N[C@@H]2CC(C)(C)Oc3cc(C)ccc32)cc(OC)c1OC

>  <logBB>


>  <Class>
1

>  <MW>
385.19

>  <nHBAcc>
5

>  <nHBDon>
1

>  <SLogP>
4.05

>  <TopoPSA>
66.02

>  <MMFF94 Energy>
57.799

$$$$
COc1cc(CNC(=O)[C@@H](C)Sc2ccc(C)cc2)ccc1OC(C)C
Actelion Java MolfileCreator 2.0

  0  0  0  0  0  0              0 V3000
M  V30 BEGIN CTAB
M  V30 COUNTS 53 54 0 0 0
M  V30 BEGIN ATOM
M  V30 1 S 1.5095 2.1457 0.5559 0
M  V30 2 C 1.5543 3.9275 0.558 0
M  V30 3 C 2.5558 1.7895 -0.9186 0 CFG=1
M  V30 4 C 2.7498 4.6235 0.753 0
M  V30 5 C 0.3666 4.643 0.3879 0
M  V30 6 C 2.9622 0.3139 -0.91 0
M  V30 7 C 1.8147 2.121 -2.2091 0
M  V30 8 C 2.7607 6.0212 0.7564 0
M  V30 9 C 0.3768 6.0406 0.3909 0
M  V30 10 O 4.1315 -0.0369 -1.0578 0
M  V30 11 N 1.9313 -0.5882 -0.7863 0
M  V30 12 C 1.5727 6.7406 0.5849 0
M  V30 13 C 2.1706 -2.0094 -0.7837 0
M  V30 14 C 1.5893 8.2404 0.5566 0
M  V30 15 C 0.8785 -2.7649 -0.6261 0
M  V30 16 C 0.3371 -2.9807 0.655 0
M  V30 17 C 0.1821 -3.2222 -1.7511 0
M  V30 18 C -0.8777 -3.6553 0.8183 0
M  V30 19 C -1.0308 -3.8907 -1.5998 0
M  V30 20 O -1.4601 -3.9331 2.0267 0
M  V30 21 C -1.5678 -4.0838 -0.3262 0
M  V30 22 C -0.7025 -3.6587 3.1971 0
M  V30 23 O -2.749 -4.78 -0.2634 0
M  V30 24 C -3.8473 -3.9702 0.1876 0
M  V30 25 C -4.7098 -3.6162 -1.0207 0
M  V30 26 C -4.6481 -4.7952 1.1894 0
M  V30 27 H 3.4789 2.3754 -0.8558 0
M  V30 28 H 3.6836 4.0898 0.9119 0
M  V30 29 H -0.5769 4.1214 0.2466 0
M  V30 30 H 2.4182 1.8341 -3.0778 0
M  V30 31 H 0.8629 1.5838 -2.2898 0
M  V30 32 H 1.6115 3.1936 -2.2931 0
M  V30 33 H 3.7035 6.5443 0.9014 0
M  V30 34 H -0.5573 6.5787 0.2452 0
M  V30 35 H 0.9993 -0.2428 -0.5879 0
M  V30 36 H 2.6754 -2.2823 -1.7178 0
M  V30 37 H 2.8614 -2.2497 0.0332 0
M  V30 38 H 0.6433 8.6487 0.9278 0
M  V30 39 H 2.3858 8.6345 1.1965 0
M  V30 40 H 1.7499 8.5933 -0.4665 0
M  V30 41 H 0.8912 -2.6088 1.512 0
M  V30 42 H 0.5817 -3.0633 -2.7504 0
M  V30 43 H -1.5641 -4.2585 -2.472 0
M  V30 44 H 0.2511 -4.1967 3.1896 0
M  V30 45 H -1.2775 -4.0136 4.0578 0
M  V30 46 H -0.5497 -2.5817 3.3216 0
M  V30 47 H -3.5208 -3.0411 0.6725 0
M  V30 48 H -5.5925 -3.0414 -0.7237 0
M  V30 49 H -4.1372 -3.0219 -1.7405 0
M  V30 50 H -5.0382 -4.5187 -1.5478 0
M  V30 51 H -5.5176 -4.2408 1.5555 0
M  V30 52 H -4.0248 -5.0696 2.0468 0
M  V30 53 H -4.9933 -5.7329 0.7401 0
M  V30 END ATOM
M  V30 BEGIN BOND
M  V30 1 1 1 2
M  V30 2 1 1 3
M  V30 3 2 2 4
M  V30 4 1 2 5
M  V30 5 1 3 6
M  V30 6 1 3 7
M  V30 7 1 4 8
M  V30 8 2 5 9
M  V30 9 2 6 10
M  V30 10 1 6 11
M  V30 11 2 8 12
M  V30 12 1 11 13
M  V30 13 1 12 14
M  V30 14 1 13 15
M  V30 15 2 15 16
M  V30 16 1 15 17
M  V30 17 1 16 18
M  V30 18 2 17 19
M  V30 19 1 18 20
M  V30 20 2 18 21
M  V30 21 1 20 22
M  V30 22 1 21 23
M  V30 23 1 23 24
M  V30 24 1 24 25
M  V30 25 1 24 26
M  V30 26 1 9 12
M  V30 27 1 19 21
M  V30 28 1 3 27
M  V30 29 1 4 28
M  V30 30 1 5 29
M  V30 31 1 7 30
M  V30 32 1 7 31
M  V30 33 1 7 32
M  V30 34 1 8 33
M  V30 35 1 9 34
M  V30 36 1 11 35
M  V30 37 1 13 36
M  V30 38 1 13 37
M  V30 39 1 14 38
M  V30 40 1 14 39
M  V30 41 1 14 40
M  V30 42 1 16 41
M  V30 43 1 17 42
M  V30 44 1 19 43
M  V30 45 1 22 44
M  V30 46 1 22 45
M  V30 47 1 22 46
M  V30 48 1 24 47
M  V30 49 1 25 48
M  V30 50 1 25 49
M  V30 51 1 25 50
M  V30 52 1 26 51
M  V30 53 1 26 52
M  V30 54 1 26 53
M  V30 END BOND
M  V30 BEGIN COLLECTION
M  V30 MDLV30/STEABS ATOMS=(1 3)
M  V30 END COLLECTION
M  V30 END CTAB
M  END
>  <NO.>
3946

>  <Name>
streptomycin

>  <SMILES>
COc1cc(CNC(=O)[C@@H](C)Sc2ccc(C)cc2)ccc1OC(C)C

>  <logBB>


>  <Class>
-1

>  <MW>
373.17

>  <nHBAcc>
4

>  <nHBDon>
1

>  <SLogP>
4.59

>  <TopoPSA>
47.56

>  <MMFF94 Energy>
55.614

$$$$
COc1cc(OC)c(OC)cc1/C=C1/Oc2c(ccc3c2[C@@H](c2cc(OC)c(OC(C)=O)c(OC)c2)CC(=O)O3)C1=O
Actelion Java MolfileCreator 2.0

  0  0  0  0  0  0              0 V3000
M  V30 BEGIN CTAB
M  V30 COUNTS 70 74 0 0 0
M  V30 BEGIN ATOM
M  V30 1 O 6.7628 -0.8836 1.4462 0
M  V30 2 C 5.7194 -0.3161 1.1391 0
M  V30 3 O 5.4375 0.01 -0.1797 0
M  V30 4 C 4.7162 0.1436 2.1598 0
M  V30 5 C 4.1722 0.4899 -0.5693 0
M  V30 6 C 3.2662 -0.0369 1.7156 0 CFG=1
M  V30 7 C 3.0924 0.4706 0.316 0
M  V30 8 C 4.055 0.941 -1.8978 0
M  V30 9 C 2.7169 -1.4483 1.9036 0
M  V30 10 C 1.8823 0.9225 -0.1813 0
M  V30 11 C 2.8249 1.3962 -2.3752 0
M  V30 12 C 1.515 -1.6182 2.6225 0
M  V30 13 C 3.3472 -2.5834 1.3571 0
M  V30 14 O 0.6997 0.9882 0.5184 0
M  V30 15 C 1.7607 1.3723 -1.4938 0
M  V30 16 C 0.9494 -2.8824 2.7937 0
M  V30 17 C 2.8106 -3.8611 1.5361 0
M  V30 18 C -0.2544 1.4964 -0.3691 0
M  V30 19 C 0.3741 1.7741 -1.695 0
M  V30 20 O -0.205 -3.1396 3.4846 0
M  V30 21 C 1.6085 -3.9879 2.2439 0
M  V30 22 O 3.359 -5.0252 1.0657 0
M  V30 23 C -1.524 1.6956 0.006 0
M  V30 24 O -0.0977 2.2268 -2.7143 0
M  V30 25 C -1.0917 -2.0429 3.6693 0
M  V30 26 O 1.0671 -5.2654 2.4339 0
M  V30 27 C 4.5883 -4.9302 0.3578 0
M  V30 28 C -2.6021 2.2413 -0.8292 0
M  V30 29 C 0.167 -5.5934 1.4312 0
M  V30 30 C -3.2346 3.4543 -0.4891 0
M  V30 31 C -3.0337 1.5304 -1.9532 0
M  V30 32 O -0.169 -4.9055 0.4748 0
M  V30 33 C -0.3621 -6.9714 1.698 0
M  V30 34 O -2.7667 4.0769 0.6439 0
M  V30 35 C -4.2811 3.9432 -1.2878 0
M  V30 36 C -4.053 2.0437 -2.7537 0
M  V30 37 C -3.2744 5.3709 0.9409 0
M  V30 38 C -4.7008 3.2412 -2.4237 0
M  V30 39 O -4.4457 1.3038 -3.842 0
M  V30 40 O -5.7093 3.6325 -3.2654 0
M  V30 41 C -3.726 1.736 -4.9975 0
M  V30 42 C -6.4469 4.7943 -2.9147 0
M  V30 43 H 4.8981 -0.3917 3.0993 0
M  V30 44 H 4.9281 1.2053 2.3426 0
M  V30 45 H 2.69 0.6291 2.3749 0
M  V30 46 H 4.9219 0.9278 -2.5546 0
M  V30 47 H 2.7017 1.7482 -3.3941 0
M  V30 48 H 1.0313 -0.7422 3.0451 0
M  V30 49 H 4.2561 -2.4626 0.7801 0
M  V30 50 H -1.8145 1.4776 1.0304 0
M  V30 51 H -0.6977 -1.3466 4.4164 0
M  V30 52 H -2.0377 -2.439 4.0509 0
M  V30 53 H -1.3016 -1.5307 2.724 0
M  V30 54 H 4.4689 -4.3489 -0.5623 0
M  V30 55 H 4.8892 -5.9432 0.074 0
M  V30 56 H 5.3784 -4.5135 0.9911 0
M  V30 57 H -2.5729 0.5847 -2.2253 0
M  V30 58 H 0.4598 -7.6915 1.6928 0
M  V30 59 H -0.8843 -6.9883 2.658 0
M  V30 60 H -1.0704 -7.246 0.9111 0
M  V30 61 H -4.7711 4.8701 -1.0227 0
M  V30 62 H -3.0854 6.0705 0.12 0
M  V30 63 H -2.7441 5.7431 1.8228 0
M  V30 64 H -4.3398 5.3269 1.1889 0
M  V30 65 H -3.9366 2.785 -5.2328 0
M  V30 66 H -4.0576 1.1275 -5.8441 0
M  V30 67 H -2.6482 1.5828 -4.8728 0
M  V30 68 H -6.9358 4.6754 -1.942 0
M  V30 69 H -7.2308 4.9325 -3.6656 0
M  V30 70 H -5.81 5.6847 -2.932 0
M  V30 END ATOM
M  V30 BEGIN BOND
M  V30 1 2 1 2
M  V30 2 1 2 3
M  V30 3 1 2 4
M  V30 4 1 3 5
M  V30 5 1 4 6
M  V30 6 2 5 7
M  V30 7 1 5 8
M  V30 8 1 6 9
M  V30 9 1 7 10
M  V30 10 2 8 11
M  V30 11 2 9 12
M  V30 12 1 9 13
M  V30 13 1 10 14
M  V30 14 2 10 15
M  V30 15 1 12 16
M  V30 16 2 13 17
M  V30 17 1 14 18
M  V30 18 1 15 19
M  V30 19 1 16 20
M  V30 20 2 16 21
M  V30 21 1 17 22
M  V30 22 2 18 23
M  V30 23 2 19 24
M  V30 24 1 20 25
M  V30 25 1 21 26
M  V30 26 1 22 27
M  V30 27 1 23 28
M  V30 28 1 26 29
M  V30 29 2 28 30
M  V30 30 1 28 31
M  V30 31 2 29 32
M  V30 32 1 29 33
M  V30 33 1 30 34
M  V30 34 1 30 35
M  V30 35 2 31 36
M  V30 36 1 34 37
M  V30 37 2 35 38
M  V30 38 1 36 39
M  V30 39 1 38 40
M  V30 40 1 39 41
M  V30 41 1 40 42
M  V30 42 1 6 7
M  V30 43 1 11 15
M  V30 44 1 17 21
M  V30 45 1 18 19
M  V30 46 1 36 38
M  V30 47 1 4 43
M  V30 48 1 4 44
M  V30 49 1 6 45
M  V30 50 1 8 46
M  V30 51 1 11 47
M  V30 52 1 12 48
M  V30 53 1 13 49
M  V30 54 1 23 50
M  V30 55 1 25 51
M  V30 56 1 25 52
M  V30 57 1 25 53
M  V30 58 1 27 54
M  V30 59 1 27 55
M  V30 60 1 27 56
M  V30 61 1 31 57
M  V30 62 1 33 58
M  V30 63 1 33 59
M  V30 64 1 33 60
M  V30 65 1 35 61
M  V30 66 1 37 62
M  V30 67 1 37 63
M  V30 68 1 37 64
M  V30 69 1 41 65
M  V30 70 1 41 66
M  V30 71 1 41 67
M  V30 72 1 42 68
M  V30 73 1 42 69
M  V30 74 1 42 70
M  V30 END BOND
M  V30 BEGIN COLLECTION
M  V30 MDLV30/STEABS ATOMS=(1 6)
M  V30 END COLLECTION
M  V30 END CTAB
M  END
>  <NO.>
3947

>  <Name>
lorazepam

>  <SMILES>
COc1cc(OC)c(OC)cc1/C=C1/Oc2c(ccc3c2[C@@H](c2cc(OC)c(OC(C)=O)c(OC)c2)CC(=O)O3)C1=O

>  <logBB>


>  <Class>
1

>  <MW>
576.16

>  <nHBAcc>
11

>  <nHBDon>
0

>  <SLogP>
4.71

>  <TopoPSA>
125.05

>  <MMFF94 Energy>
153

$$$$
COc1cc(OC)c(OC)cc1/C=C1/Oc2c(ccc3c2[C@H](c2cc(OC)c(OC)c(OC)c2)CC(=O)O3)C1=O
Actelion Java MolfileCreator 2.0

  0  0  0  0  0  0              0 V3000
M  V30 BEGIN CTAB
M  V30 COUNTS 68 72 0 0 0
M  V30 BEGIN ATOM
M  V30 1 O 2.1669 -5.5449 -3.4527 0
M  V30 2 C 1.7906 -4.3878 -3.2977 0
M  V30 3 O 2.6957 -3.3359 -3.2417 0
M  V30 4 C 0.3386 -4.0019 -3.2553 0
M  V30 5 C 2.2984 -2.0396 -2.8598 0
M  V30 6 C 0.0343 -2.9243 -2.2178 0 CFG=2
M  V30 7 C 1.0239 -1.8046 -2.3383 0
M  V30 8 C 3.2663 -1.025 -2.9812 0
M  V30 9 C -0.0934 -3.4684 -0.8004 0
M  V30 10 C 0.7541 -0.5089 -1.9349 0
M  V30 11 C 2.9684 0.2762 -2.5735 0
M  V30 12 C -1.3398 -3.407 -0.1568 0
M  V30 13 C 0.9953 -4.0199 -0.1001 0
M  V30 14 O -0.4285 -0.0661 -1.3904 0
M  V30 15 C 1.7074 0.4993 -2.0533 0
M  V30 16 C -1.5028 -3.8719 1.1498 0
M  V30 17 C 0.8412 -4.5246 1.1973 0
M  V30 18 C -0.2541 1.2966 -1.1269 0
M  V30 19 C 1.1143 1.728 -1.5407 0
M  V30 20 O -2.7706 -3.7462 1.6552 0
M  V30 21 C -0.4227 -4.4686 1.8095 0
M  V30 22 O 1.8468 -5.0894 1.9402 0
M  V30 23 C -1.2211 2.0287 -0.5599 0
M  V30 24 O 1.6506 2.8127 -1.4924 0
M  V30 25 C -2.8145 -3.2278 2.9835 0
M  V30 26 O -0.5809 -4.9795 3.0761 0
M  V30 27 C 3.1276 -5.2077 1.3362 0
M  V30 28 C -1.1477 3.4544 -0.2122 0
M  V30 29 C -0.9001 -6.3691 2.9969 0
M  V30 30 C -1.2799 3.8767 1.126 0
M  V30 31 C -0.9871 4.408 -1.2218 0
M  V30 32 O -1.4595 2.8789 2.0541 0
M  V30 33 C -1.2385 5.2462 1.4336 0
M  V30 34 C -0.9152 5.7621 -0.898 0
M  V30 35 C -1.4126 3.2408 3.4277 0
M  V30 36 C -1.0594 6.1997 0.4247 0
M  V30 37 O -0.7627 6.6558 -1.9296 0
M  V30 38 O -1.008 7.5554 0.6205 0
M  V30 39 C 0.6224 6.9627 -2.0945 0
M  V30 40 C -1.2339 8.0399 1.9363 0
M  V30 41 H -0.2595 -4.9006 -3.0636 0
M  V30 42 H 0.082 -3.6473 -4.2621 0
M  V30 43 H -0.9449 -2.5151 -2.5064 0
M  V30 44 H 4.2497 -1.2571 -3.384 0
M  V30 45 H 3.6935 1.0797 -2.6505 0
M  V30 46 H -2.2018 -2.974 -0.6614 0
M  V30 47 H 1.9689 -4.0478 -0.5759 0
M  V30 48 H -2.1518 1.5435 -0.2757 0
M  V30 49 H -2.8203 -4.045 3.7101 0
M  V30 50 H -3.7579 -2.6839 3.0943 0
M  V30 51 H -2.0006 -2.5236 3.1907 0
M  V30 52 H 3.0863 -5.8366 0.4409 0
M  V30 53 H 3.792 -5.6966 2.055 0
M  V30 54 H 3.5493 -4.2228 1.1107 0
M  V30 55 H -1.8334 -6.5311 2.4463 0
M  V30 56 H -1.0431 -6.7368 4.0174 0
M  V30 57 H -0.0861 -6.9435 2.5423 0
M  V30 58 H -0.8984 4.1086 -2.2622 0
M  V30 59 H -1.351 5.569 2.4595 0
M  V30 60 H -0.4658 3.7305 3.6786 0
M  V30 61 H -1.4775 2.3214 4.0175 0
M  V30 62 H -2.2682 3.8685 3.6968 0
M  V30 63 H 1.0344 7.4525 -1.2057 0
M  V30 64 H 0.7122 7.6581 -2.9344 0
M  V30 65 H 1.201 6.0642 -2.3366 0
M  V30 66 H -2.2261 7.7529 2.2997 0
M  V30 67 H -1.1964 9.133 1.9013 0
M  V30 68 H -0.4483 7.7026 2.6201 0
M  V30 END ATOM
M  V30 BEGIN BOND
M  V30 1 2 1 2
M  V30 2 1 2 3
M  V30 3 1 2 4
M  V30 4 1 3 5
M  V30 5 1 4 6
M  V30 6 2 5 7
M  V30 7 1 5 8
M  V30 8 1 6 9
M  V30 9 1 7 10
M  V30 10 2 8 11
M  V30 11 2 9 12
M  V30 12 1 9 13
M  V30 13 1 10 14
M  V30 14 2 10 15
M  V30 15 1 12 16
M  V30 16 2 13 17
M  V30 17 1 14 18
M  V30 18 1 15 19
M  V30 19 1 16 20
M  V30 20 2 16 21
M  V30 21 1 17 22
M  V30 22 2 18 23
M  V30 23 2 19 24
M  V30 24 1 20 25
M  V30 25 1 21 26
M  V30 26 1 22 27
M  V30 27 1 23 28
M  V30 28 1 26 29
M  V30 29 2 28 30
M  V30 30 1 28 31
M  V30 31 1 30 32
M  V30 32 1 30 33
M  V30 33 2 31 34
M  V30 34 1 32 35
M  V30 35 2 33 36
M  V30 36 1 34 37
M  V30 37 1 36 38
M  V30 38 1 37 39
M  V30 39 1 38 40
M  V30 40 1 6 7
M  V30 41 1 11 15
M  V30 42 1 17 21
M  V30 43 1 18 19
M  V30 44 1 34 36
M  V30 45 1 4 41
M  V30 46 1 4 42
M  V30 47 1 6 43
M  V30 48 1 8 44
M  V30 49 1 11 45
M  V30 50 1 12 46
M  V30 51 1 13 47
M  V30 52 1 23 48
M  V30 53 1 25 49
M  V30 54 1 25 50
M  V30 55 1 25 51
M  V30 56 1 27 52
M  V30 57 1 27 53
M  V30 58 1 27 54
M  V30 59 1 29 55
M  V30 60 1 29 56
M  V30 61 1 29 57
M  V30 62 1 31 58
M  V30 63 1 33 59
M  V30 64 1 35 60
M  V30 65 1 35 61
M  V30 66 1 35 62
M  V30 67 1 39 63
M  V30 68 1 39 64
M  V30 69 1 39 65
M  V30 70 1 40 66
M  V30 71 1 40 67
M  V30 72 1 40 68
M  V30 END BOND
M  V30 BEGIN COLLECTION
M  V30 MDLV30/STEABS ATOMS=(1 6)
M  V30 END COLLECTION
M  V30 END CTAB
M  END
>  <NO.>
3948

>  <Name>
etacrynicacid

>  <SMILES>
COc1cc(OC)c(OC)cc1/C=C1/Oc2c(ccc3c2[C@H](c2cc(OC)c(OC)c(OC)c2)CC(=O)O3)C1=O

>  <logBB>


>  <Class>
-1

>  <MW>
548.17

>  <nHBAcc>
10

>  <nHBDon>
0

>  <SLogP>
4.8

>  <TopoPSA>
107.98

>  <MMFF94 Energy>
160.76

$$$$
COc1cc2c(c(OC)c1OC)[C@@H](c1cccc3ccccc13)CC(=O)O2
Actelion Java MolfileCreator 2.0

  0  0  0  0  0  0              0 V3000
M  V30 BEGIN CTAB
M  V30 COUNTS 47 50 0 0 0
M  V30 BEGIN ATOM
M  V30 1 O 3.6144 -2.4888 0.0 0
M  V30 2 C 2.42 -2.2513 0.1479 0
M  V30 3 O 1.9157 -1.826 1.3683 0
M  V30 4 C 1.3967 -2.5366 -0.9075 0
M  V30 5 C 0.6173 -1.2915 1.4932 0
M  V30 6 C 0.2764 -1.5028 -0.9834 0 CFG=1
M  V30 7 C -0.1867 -1.0593 0.379 0
M  V30 8 C 0.2264 -0.9372 2.7882 0
M  V30 9 C 0.5326 -0.4138 -2.0355 0
M  V30 10 C -1.4297 -0.4455 0.5887 0
M  V30 11 C -1.0186 -0.3459 2.9971 0
M  V30 12 C 1.3696 0.7375 -1.8803 0
M  V30 13 C -0.1229 -0.6145 -3.2745 0
M  V30 14 O -2.2425 -0.2519 -0.5012 0
M  V30 15 C -1.8552 -0.1239 1.8901 0
M  V30 16 O -1.5132 0.0316 4.2182 0
M  V30 17 C 1.4981 1.6357 -2.9785 0
M  V30 18 C 2.0956 1.0781 -0.714 0
M  V30 19 C 0.0165 0.276 -4.3306 0
M  V30 20 C -2.4375 1.1406 -0.7625 0
M  V30 21 O -3.0875 0.4567 2.0815 0
M  V30 22 C -0.6402 -0.0651 5.3357 0
M  V30 23 C 0.8226 1.3937 -4.1801 0
M  V30 24 C 2.3048 2.7819 -2.8815 0
M  V30 25 C 2.8967 2.2223 -0.6301 0
M  V30 26 C -4.0713 -0.5561 2.2894 0
M  V30 27 C 3.0018 3.0754 -1.7149 0
M  V30 28 H 1.9036 -2.6414 -1.8739 0
M  V30 29 H 0.979 -3.5213 -0.6574 0
M  V30 30 H -0.5775 -2.0879 -1.3611 0
M  V30 31 H 0.914 -1.1328 3.6039 0
M  V30 32 H -0.7661 -1.4809 -3.4247 0
M  V30 33 H 2.0596 0.4656 0.1742 0
M  V30 34 H -0.5022 0.0983 -5.2686 0
M  V30 35 H -3.318 1.5079 -0.2276 0
M  V30 36 H -2.6282 1.2535 -1.8341 0
M  V30 37 H -1.5581 1.7454 -0.5116 0
M  V30 38 H -0.3867 -1.1091 5.5463 0
M  V30 39 H -1.1689 0.3309 6.2081 0
M  V30 40 H 0.2606 0.5399 5.1893 0
M  V30 41 H 0.9216 2.0804 -5.0183 0
M  V30 42 H 2.399 3.4626 -3.7255 0
M  V30 43 H 3.4363 2.4386 0.2885 0
M  V30 44 H -4.1639 -1.2067 1.413 0
M  V30 45 H -5.0341 -0.0597 2.4437 0
M  V30 46 H -3.8514 -1.1511 3.1825 0
M  V30 47 H 3.623 3.9646 -1.6565 0
M  V30 END ATOM
M  V30 BEGIN BOND
M  V30 1 2 1 2
M  V30 2 1 2 3
M  V30 3 1 2 4
M  V30 4 1 3 5
M  V30 5 1 4 6
M  V30 6 2 5 7
M  V30 7 1 5 8
M  V30 8 1 6 9
M  V30 9 1 7 10
M  V30 10 2 8 11
M  V30 11 1 9 12
M  V30 12 2 9 13
M  V30 13 1 10 14
M  V30 14 2 10 15
M  V30 15 1 11 16
M  V30 16 1 12 17
M  V30 17 2 12 18
M  V30 18 1 13 19
M  V30 19 1 14 20
M  V30 20 1 15 21
M  V30 21 1 16 22
M  V30 22 1 17 23
M  V30 23 2 17 24
M  V30 24 1 18 25
M  V30 25 1 21 26
M  V30 26 1 24 27
M  V30 27 1 6 7
M  V30 28 1 11 15
M  V30 29 2 19 23
M  V30 30 2 25 27
M  V30 31 1 4 28
M  V30 32 1 4 29
M  V30 33 1 6 30
M  V30 34 1 8 31
M  V30 35 1 13 32
M  V30 36 1 18 33
M  V30 37 1 19 34
M  V30 38 1 20 35
M  V30 39 1 20 36
M  V30 40 1 20 37
M  V30 41 1 22 38
M  V30 42 1 22 39
M  V30 43 1 22 40
M  V30 44 1 23 41
M  V30 45 1 24 42
M  V30 46 1 25 43
M  V30 47 1 26 44
M  V30 48 1 26 45
M  V30 49 1 26 46
M  V30 50 1 27 47
M  V30 END BOND
M  V30 BEGIN COLLECTION
M  V30 MDLV30/STEABS ATOMS=(1 6)
M  V30 END COLLECTION
M  V30 END CTAB
M  END
>  <NO.>
3949

>  <Name>
ethosuximide

>  <SMILES>
COc1cc2c(c(OC)c1OC)[C@@H](c1cccc3ccccc13)CC(=O)O2

>  <logBB>


>  <Class>
1

>  <MW>
364.13

>  <nHBAcc>
5

>  <nHBDon>
0

>  <SLogP>
4.31

>  <TopoPSA>
53.99

>  <MMFF94 Energy>
97.175

$$$$
COc1cc2c(c(OC)c1OC)[C@H](c1ccc3ncccc3c1)CC(=O)O2
Actelion Java MolfileCreator 2.0

  0  0  0  0  0  0              0 V3000
M  V30 BEGIN CTAB
M  V30 COUNTS 46 49 0 0 0
M  V30 BEGIN ATOM
M  V30 1 O 0.1604 1.9271 -4.2595 0
M  V30 2 C -0.3173 1.2774 -3.3351 0
M  V30 3 O -1.2316 1.839 -2.4552 0
M  V30 4 C -0.0462 -0.1863 -3.1454 0
M  V30 5 C -1.6889 1.1474 -1.3159 0
M  V30 6 C 0.0792 -0.5854 -1.6779 0 CFG=2
M  V30 7 C -1.0787 -0.0304 -0.8883 0
M  V30 8 C -2.7513 1.7323 -0.6247 0
M  V30 9 C 1.4429 -0.2508 -1.084 0
M  V30 10 C -1.5682 -0.6511 0.2704 0
M  V30 11 C -3.2223 1.136 0.5435 0
M  V30 12 C 2.3185 -1.2932 -0.7405 0
M  V30 13 C 1.8706 1.0623 -0.8585 0
M  V30 14 O -0.9423 -1.811 0.6546 0
M  V30 15 C -2.6054 -0.0435 1.0021 0
M  V30 16 O -4.2476 1.6226 1.3128 0
M  V30 17 C 3.5884 -1.0314 -0.1916 0
M  V30 18 C 3.1358 1.3172 -0.314 0
M  V30 19 C -1.8371 -2.8762 0.9723 0
M  V30 20 O -3.0514 -0.6159 2.1712 0
M  V30 21 C -4.9326 2.7747 0.8399 0
M  V30 22 C 4.0087 0.2953 0.0254 0
M  V30 23 C 4.4698 -2.0639 0.1562 0
M  V30 24 C -2.3279 -0.0726 3.277 0
M  V30 25 N 5.2124 0.595 0.5464 0
M  V30 26 C 5.7138 -1.7593 0.6945 0
M  V30 27 C 6.0352 -0.4268 0.8681 0
M  V30 28 H -0.8797 -0.7218 -3.618 0
M  V30 29 H 0.8659 -0.4487 -3.6943 0
M  V30 30 H -0.0237 -1.6801 -1.6776 0
M  V30 31 H -3.1732 2.6528 -1.0128 0
M  V30 32 H 2.0094 -2.3262 -0.8914 0
M  V30 33 H 1.237 1.9151 -1.0875 0
M  V30 34 H 3.4473 2.3461 -0.1477 0
M  V30 35 H -2.0302 -2.9005 2.0484 0
M  V30 36 H -1.3394 -3.8141 0.7069 0
M  V30 37 H -2.7745 -2.8269 0.4066 0
M  V30 38 H -4.2663 3.6429 0.8084 0
M  V30 39 H -5.7372 2.9989 1.5469 0
M  V30 40 H -5.3903 2.5903 -0.1374 0
M  V30 41 H 4.1914 -3.1041 0.0104 0
M  V30 42 H -1.256 -0.2826 3.192 0
M  V30 43 H -2.6954 -0.5578 4.1862 0
M  V30 44 H -2.4975 1.0047 3.3771 0
M  V30 45 H 6.4128 -2.5398 0.9712 0
M  V30 46 H 6.9941 -0.1319 1.2845 0
M  V30 END ATOM
M  V30 BEGIN BOND
M  V30 1 2 1 2
M  V30 2 1 2 3
M  V30 3 1 2 4
M  V30 4 1 3 5
M  V30 5 1 4 6
M  V30 6 2 5 7
M  V30 7 1 5 8
M  V30 8 1 6 9
M  V30 9 1 7 10
M  V30 10 2 8 11
M  V30 11 2 9 12
M  V30 12 1 9 13
M  V30 13 1 10 14
M  V30 14 2 10 15
M  V30 15 1 11 16
M  V30 16 1 12 17
M  V30 17 2 13 18
M  V30 18 1 14 19
M  V30 19 1 15 20
M  V30 20 1 16 21
M  V30 21 1 17 22
M  V30 22 2 17 23
M  V30 23 1 20 24
M  V30 24 2 22 25
M  V30 25 1 23 26
M  V30 26 1 25 27
M  V30 27 1 6 7
M  V30 28 1 11 15
M  V30 29 1 18 22
M  V30 30 2 26 27
M  V30 31 1 4 28
M  V30 32 1 4 29
M  V30 33 1 6 30
M  V30 34 1 8 31
M  V30 35 1 12 32
M  V30 36 1 13 33
M  V30 37 1 18 34
M  V30 38 1 19 35
M  V30 39 1 19 36
M  V30 40 1 19 37
M  V30 41 1 21 38
M  V30 42 1 21 39
M  V30 43 1 21 40
M  V30 44 1 23 41
M  V30 45 1 24 42
M  V30 46 1 24 43
M  V30 47 1 24 44
M  V30 48 1 26 45
M  V30 49 1 27 46
M  V30 END BOND
M  V30 BEGIN COLLECTION
M  V30 MDLV30/STEABS ATOMS=(1 6)
M  V30 END COLLECTION
M  V30 END CTAB
M  END
>  <NO.>
3950

>  <Name>
carteolol

>  <SMILES>
COc1cc2c(c(OC)c1OC)[C@H](c1ccc3ncccc3c1)CC(=O)O2

>  <logBB>


>  <Class>
1

>  <MW>
365.13

>  <nHBAcc>
6

>  <nHBDon>
0

>  <SLogP>
3.7

>  <TopoPSA>
66.88

>  <MMFF94 Energy>
93.579

$$$$
COc1cc2c(cc1OC)CN(C(=O)CC1NC(=O)N(c3ccc(C(C)C)cc3)C1=O)CC2
Actelion Java MolfileCreator 2.0

  0  0  0  0  0  0              0 V3000
M  V30 BEGIN CTAB
M  V30 COUNTS 62 65 0 0 0
M  V30 BEGIN ATOM
M  V30 1 O -3.5835 -2.9457 0.0 0
M  V30 2 C -2.8045 -2.2643 -0.6474 0
M  V30 3 N -1.6652 -2.6368 -1.3215 0
M  V30 4 N -2.9856 -0.9091 -0.8174 0
M  V30 5 C -1.1428 -3.9509 -1.3675 0
M  V30 6 C -1.1077 -1.5388 -1.9414 0
M  V30 7 C -1.9759 -0.3167 -1.6473 0 CFG=2
M  V30 8 C -0.4807 -4.4228 -2.5072 0
M  V30 9 C -1.273 -4.8146 -0.2732 0
M  V30 10 O -0.0805 -1.4786 -2.6084 0
M  V30 11 C -1.1585 0.7584 -0.9465 0
M  V30 12 C 0.0385 -5.7219 -2.5515 0
M  V30 13 C -0.755 -6.1142 -0.3167 0
M  V30 14 C -1.9226 2.0645 -0.8513 0
M  V30 15 C -0.0918 -6.5848 -1.4563 0
M  V30 16 O -3.1101 2.123 -1.1725 0
M  V30 17 N -1.2287 3.1679 -0.3754 0
M  V30 18 C 0.4604 -7.9986 -1.4807 0
M  V30 19 C 0.1944 3.167 -0.0337 0
M  V30 20 C -1.8916 4.4695 -0.346 0
M  V30 21 C -0.2101 -8.8455 -2.565 0
M  V30 22 C 1.982 -8.0053 -1.6466 0
M  V30 23 C 0.599 4.2213 0.9732 0
M  V30 24 C -1.7601 5.1151 1.03 0
M  V30 25 C -0.3192 5.1575 1.4736 0
M  V30 26 C 1.9333 4.2686 1.4114 0
M  V30 27 C 0.0934 6.1031 2.4246 0
M  V30 28 C 2.3513 5.2214 2.3482 0
M  V30 29 C 1.4213 6.145 2.8626 0
M  V30 30 O 3.6345 5.3299 2.8247 0
M  V30 31 O 1.9078 7.0415 3.7821 0
M  V30 32 C 4.6052 4.4193 2.3311 0
M  V30 33 C 0.9969 7.9779 4.3386 0
M  V30 34 H -3.8027 -0.4274 -0.4584 0
M  V30 35 H -2.4413 0.0257 -2.5772 0
M  V30 36 H -0.3625 -3.7954 -3.3874 0
M  V30 37 H -1.7749 -4.4945 0.6372 0
M  V30 38 H -0.2368 0.9427 -1.5104 0
M  V30 39 H -0.8861 0.4354 0.0652 0
M  V30 40 H 0.5453 -6.0502 -3.4562 0
M  V30 41 H -0.8791 -6.7552 0.5538 0
M  V30 42 H 0.2398 -8.4761 -0.5167 0
M  V30 43 H 0.7408 3.3373 -0.9689 0
M  V30 44 H 0.4791 2.1861 0.3573 0
M  V30 45 H -2.9507 4.3862 -0.6097 0
M  V30 46 H -1.4154 5.0913 -1.1147 0
M  V30 47 H 0.0076 -8.4708 -3.571 0
M  V30 48 H 0.1387 -9.8825 -2.5138 0
M  V30 49 H -1.2986 -8.8516 -2.4395 0
M  V30 50 H 2.2906 -7.5965 -2.6148 0
M  V30 51 H 2.4637 -7.409 -0.8637 0
M  V30 52 H 2.3719 -9.0265 -1.5777 0
M  V30 53 H -2.1761 6.1284 0.9899 0
M  V30 54 H -2.3308 4.5408 1.7699 0
M  V30 55 H 2.632 3.5432 1.0066 0
M  V30 56 H -0.6447 6.8003 2.8083 0
M  V30 57 H 4.347 3.3875 2.5907 0
M  V30 58 H 5.5593 4.6537 2.8128 0
M  V30 59 H 4.7417 4.5343 1.2509 0
M  V30 60 H 0.5885 8.6383 3.5667 0
M  V30 61 H 1.5494 8.6004 5.049 0
M  V30 62 H 0.1985 7.4725 4.8916 0
M  V30 END ATOM
M  V30 BEGIN BOND
M  V30 1 2 1 2
M  V30 2 1 2 3
M  V30 3 1 2 4
M  V30 4 1 3 5
M  V30 5 1 3 6
M  V30 6 1 4 7
M  V30 7 2 5 8
M  V30 8 1 5 9
M  V30 9 2 6 10
M  V30 10 1 7 11
M  V30 11 1 8 12
M  V30 12 2 9 13
M  V30 13 1 11 14
M  V30 14 2 12 15
M  V30 15 2 14 16
M  V30 16 1 14 17
M  V30 17 1 15 18
M  V30 18 1 17 19
M  V30 19 1 17 20
M  V30 20 1 18 21
M  V30 21 1 18 22
M  V30 22 1 19 23
M  V30 23 1 20 24
M  V30 24 2 23 25
M  V30 25 1 23 26
M  V30 26 1 25 27
M  V30 27 2 26 28
M  V30 28 2 27 29
M  V30 29 1 28 30
M  V30 30 1 29 31
M  V30 31 1 30 32
M  V30 32 1 31 33
M  V30 33 1 6 7
M  V30 34 1 13 15
M  V30 35 1 24 25
M  V30 36 1 28 29
M  V30 37 1 4 34
M  V30 38 1 7 35
M  V30 39 1 8 36
M  V30 40 1 9 37
M  V30 41 1 11 38
M  V30 42 1 11 39
M  V30 43 1 12 40
M  V30 44 1 13 41
M  V30 45 1 18 42
M  V30 46 1 19 43
M  V30 47 1 19 44
M  V30 48 1 20 45
M  V30 49 1 20 46
M  V30 50 1 21 47
M  V30 51 1 21 48
M  V30 52 1 21 49
M  V30 53 1 22 50
M  V30 54 1 22 51
M  V30 55 1 22 52
M  V30 56 1 24 53
M  V30 57 1 24 54
M  V30 58 1 26 55
M  V30 59 1 27 56
M  V30 60 1 32 57
M  V30 61 1 32 58
M  V30 62 1 32 59
M  V30 63 1 33 60
M  V30 64 1 33 61
M  V30 65 1 33 62
M  V30 END BOND
M  V30 BEGIN COLLECTION
M  V30 MDLV30/STERAC1 ATOMS=(1 7)
M  V30 END COLLECTION
M  V30 END CTAB
M  END
>  <NO.>
3951

>  <Name>
hydroflumethiazide

>  <SMILES>
COc1cc2c(cc1OC)CN(C(=O)CC1NC(=O)N(c3ccc(C(C)C)cc3)C1=O)CC2

>  <logBB>


>  <Class>
-1

>  <MW>
451.21

>  <nHBAcc>
5

>  <nHBDon>
1

>  <SLogP>
3.23

>  <TopoPSA>
88.18

>  <MMFF94 Energy>
24.439

$$$$
COc1ccc(-c2noc(CN(C)C(=O)[C@H](C)SCc3ccccc3)n2)c(OC)c1
Actelion Java MolfileCreator 2.0

  0  0  0  0  0  0              0 V3000
M  V30 BEGIN CTAB
M  V30 COUNTS 55 57 0 0 0
M  V30 BEGIN ATOM
M  V30 1 S 1.8476 3.3759 -1.6868 0
M  V30 2 C 1.9021 1.6013 -1.1952 0 CFG=2
M  V30 3 C 1.7207 3.1876 -3.4913 0
M  V30 4 C 1.7638 1.5114 0.3358 0
M  V30 5 C 3.2125 0.9636 -1.656 0
M  V30 6 C 1.3243 4.4831 -4.153 0
M  V30 7 O 2.7446 1.2498 1.0404 0
M  V30 8 N 0.5149 1.7194 0.913 0
M  V30 9 C -0.0244 4.7705 -4.4103 0
M  V30 10 C 2.2972 5.4319 -4.5012 0
M  V30 11 C 0.4169 1.6099 2.3711 0
M  V30 12 C -0.7305 1.9819 0.2029 0
M  V30 13 C -0.3894 5.9737 -5.0173 0
M  V30 14 C 1.9298 6.6344 -5.1076 0
M  V30 15 C 0.0606 0.2246 2.7859 0
M  V30 16 C 0.5874 6.9038 -5.3674 0
M  V30 17 O 0.1586 -0.0422 4.1189 0
M  V30 18 N -0.3754 -0.7998 2.0837 0
M  V30 19 N -0.244 -1.3622 4.2912 0
M  V30 20 C -0.5641 -1.7686 3.0516 0
M  V30 21 C -1.0067 -3.1156 2.702 0
M  V30 22 C -1.8221 -3.8977 3.5411 0
M  V30 23 C -0.5887 -3.6485 1.4689 0
M  V30 24 O -2.2637 -3.326 4.7071 0
M  V30 25 C -2.1916 -5.1871 3.1293 0
M  V30 26 C -0.9574 -4.9377 1.0742 0
M  V30 27 C -2.775 -4.1948 5.7097 0
M  V30 28 C -1.7599 -5.7123 1.9058 0
M  V30 29 O -2.1989 -6.9814 1.6441 0
M  V30 30 C -1.77 -7.573 0.4239 0
M  V30 31 H 1.0747 1.0559 -1.6585 0
M  V30 32 H 0.9812 2.4147 -3.7291 0
M  V30 33 H 2.6822 2.8537 -3.8953 0
M  V30 34 H 3.2832 -0.0669 -1.2889 0
M  V30 35 H 4.0884 1.5022 -1.2762 0
M  V30 36 H 3.2808 0.919 -2.7473 0
M  V30 37 H -0.8005 4.0601 -4.1353 0
M  V30 38 H 3.3481 5.2415 -4.2938 0
M  V30 39 H 1.3663 1.8965 2.8368 0
M  V30 40 H -0.3435 2.3154 2.7246 0
M  V30 41 H -1.4737 1.2326 0.4906 0
M  V30 42 H -1.0909 2.973 0.4954 0
M  V30 43 H -0.6261 1.9556 -0.8801 0
M  V30 44 H -1.4369 6.1879 -5.2127 0
M  V30 45 H 2.6914 7.3635 -5.3716 0
M  V30 46 H 0.3024 7.8418 -5.8365 0
M  V30 47 H 0.0422 -3.0555 0.808 0
M  V30 48 H -2.8371 -5.8106 3.7403 0
M  V30 49 H -0.6018 -5.2996 0.1156 0
M  V30 50 H -3.7592 -4.5804 5.4253 0
M  V30 51 H -2.9005 -3.6096 6.626 0
M  V30 52 H -2.0777 -5.0106 5.9288 0
M  V30 53 H -2.1447 -7.0124 -0.4388 0
M  V30 54 H -2.1925 -8.5812 0.3747 0
M  V30 55 H -0.6794 -7.6668 0.3922 0
M  V30 END ATOM
M  V30 BEGIN BOND
M  V30 1 1 1 2
M  V30 2 1 1 3
M  V30 3 1 2 4
M  V30 4 1 2 5
M  V30 5 1 3 6
M  V30 6 2 4 7
M  V30 7 1 4 8
M  V30 8 2 6 9
M  V30 9 1 6 10
M  V30 10 1 8 11
M  V30 11 1 8 12
M  V30 12 1 9 13
M  V30 13 2 10 14
M  V30 14 1 11 15
M  V30 15 2 13 16
M  V30 16 1 15 17
M  V30 17 2 15 18
M  V30 18 1 17 19
M  V30 19 1 18 20
M  V30 20 1 20 21
M  V30 21 2 21 22
M  V30 22 1 21 23
M  V30 23 1 22 24
M  V30 24 1 22 25
M  V30 25 2 23 26
M  V30 26 1 24 27
M  V30 27 2 25 28
M  V30 28 1 28 29
M  V30 29 1 29 30
M  V30 30 1 14 16
M  V30 31 2 19 20
M  V30 32 1 26 28
M  V30 33 1 2 31
M  V30 34 1 3 32
M  V30 35 1 3 33
M  V30 36 1 5 34
M  V30 37 1 5 35
M  V30 38 1 5 36
M  V30 39 1 9 37
M  V30 40 1 10 38
M  V30 41 1 11 39
M  V30 42 1 11 40
M  V30 43 1 12 41
M  V30 44 1 12 42
M  V30 45 1 12 43
M  V30 46 1 13 44
M  V30 47 1 14 45
M  V30 48 1 16 46
M  V30 49 1 23 47
M  V30 50 1 25 48
M  V30 51 1 26 49
M  V30 52 1 27 50
M  V30 53 1 27 51
M  V30 54 1 27 52
M  V30 55 1 30 53
M  V30 56 1 30 54
M  V30 57 1 30 55
M  V30 END BOND
M  V30 BEGIN COLLECTION
M  V30 MDLV30/STEABS ATOMS=(1 2)
M  V30 END COLLECTION
M  V30 END CTAB
M  END
>  <NO.>
3952

>  <Name>
diphenhydramine

>  <SMILES>
COc1ccc(-c2noc(CN(C)C(=O)[C@H](C)SCc3ccccc3)n2)c(OC)c1

>  <logBB>


>  <Class>
1

>  <MW>
427.16

>  <nHBAcc>
7

>  <nHBDon>
0

>  <SLogP>
4.03

>  <TopoPSA>
77.69

>  <MMFF94 Energy>
98.304

$$$$
COc1ccc(-c2noc(CNC(=O)CSCc3cccc(Cl)c3)n2)cc1
Actelion Java MolfileCreator 2.0

  0  0  0  0  0  0              0 V3000
M  V30 BEGIN CTAB
M  V30 COUNTS 45 47 0 0 0
M  V30 BEGIN ATOM
M  V30 1 Cl -6.2116 -5.0652 3.0204 0
M  V30 2 C -5.5664 -3.47 2.9983 0
M  V30 3 C -4.8146 -3.0445 1.9023 0
M  V30 4 C -5.7985 -2.6151 4.073 0
M  V30 5 C -4.2807 -1.747 1.8722 0
M  V30 6 C -5.2761 -1.3228 4.052 0
M  V30 7 C -4.5233 -0.8907 2.9582 0
M  V30 8 C -3.4666 -1.282 0.6924 0
M  V30 9 S -1.7072 -1.0244 1.0795 0
M  V30 10 C -1.2323 -2.747 1.4598 0
M  V30 11 C 0.2646 -2.9123 1.6888 0
M  V30 12 O 0.7161 -3.8451 2.3511 0
M  V30 13 N 1.0807 -2.0167 1.0502 0
M  V30 14 C 2.5216 -2.0822 1.1611 0
M  V30 15 C 3.1401 -1.0247 0.3273 0
M  V30 16 O 4.4981 -1.0386 0.233 0
M  V30 17 N 2.5796 -0.0476 -0.3531 0
M  V30 18 N 4.848 0.0306 -0.5868 0
M  V30 19 C 3.6696 0.5912 -0.9092 0
M  V30 20 C 3.5295 1.7654 -1.7646 0
M  V30 21 C 4.6479 2.3834 -2.3379 0
M  V30 22 C 2.2606 2.3008 -2.0296 0
M  V30 23 C 4.4955 3.5082 -3.1555 0
M  V30 24 C 2.1103 3.428 -2.8487 0
M  V30 25 C 3.2294 4.0364 -3.4152 0
M  V30 26 O 3.2239 5.1352 -4.2284 0
M  V30 27 C 1.9583 5.7145 -4.5192 0
M  V30 28 H -4.6459 -3.7276 1.0732 0
M  V30 29 H -6.3828 -2.9479 4.9266 0
M  V30 30 H -5.4531 -0.6513 4.8888 0
M  V30 31 H -4.12 0.1209 2.9594 0
M  V30 32 H -3.5439 -1.9858 -0.1436 0
M  V30 33 H -3.8792 -0.3327 0.3318 0
M  V30 34 H -1.5151 -3.3969 0.6263 0
M  V30 35 H -1.7444 -3.0691 2.371 0
M  V30 36 H 0.6596 -1.2265 0.5662 0
M  V30 37 H 2.7921 -1.9505 2.2138 0
M  V30 38 H 2.8508 -3.0752 0.8382 0
M  V30 39 H 5.6496 1.999 -2.1565 0
M  V30 40 H 1.3721 1.8436 -1.5974 0
M  V30 41 H 5.3742 3.9765 -3.5931 0
M  V30 42 H 1.1063 3.8015 -3.0206 0
M  V30 43 H 1.3157 5.0096 -5.0569 0
M  V30 44 H 2.127 6.576 -5.1726 0
M  V30 45 H 1.4716 6.0782 -3.608 0
M  V30 END ATOM
M  V30 BEGIN BOND
M  V30 1 1 1 2
M  V30 2 2 2 3
M  V30 3 1 2 4
M  V30 4 1 3 5
M  V30 5 2 4 6
M  V30 6 2 5 7
M  V30 7 1 5 8
M  V30 8 1 8 9
M  V30 9 1 9 10
M  V30 10 1 10 11
M  V30 11 2 11 12
M  V30 12 1 11 13
M  V30 13 1 13 14
M  V30 14 1 14 15
M  V30 15 1 15 16
M  V30 16 2 15 17
M  V30 17 1 16 18
M  V30 18 1 17 19
M  V30 19 1 19 20
M  V30 20 2 20 21
M  V30 21 1 20 22
M  V30 22 1 21 23
M  V30 23 2 22 24
M  V30 24 2 23 25
M  V30 25 1 25 26
M  V30 26 1 26 27
M  V30 27 1 6 7
M  V30 28 2 18 19
M  V30 29 1 24 25
M  V30 30 1 3 28
M  V30 31 1 4 29
M  V30 32 1 6 30
M  V30 33 1 7 31
M  V30 34 1 8 32
M  V30 35 1 8 33
M  V30 36 1 10 34
M  V30 37 1 10 35
M  V30 38 1 13 36
M  V30 39 1 14 37
M  V30 40 1 14 38
M  V30 41 1 21 39
M  V30 42 1 22 40
M  V30 43 1 23 41
M  V30 44 1 24 42
M  V30 45 1 27 43
M  V30 46 1 27 44
M  V30 47 1 27 45
M  V30 END BOND
M  V30 END CTAB
M  END
>  <NO.>
3953

>  <Name>
doxorubicin

>  <SMILES>
COc1ccc(-c2noc(CNC(=O)CSCc3cccc(Cl)c3)n2)cc1

>  <logBB>


>  <Class>
-1

>  <MW>
403.08

>  <nHBAcc>
6

>  <nHBDon>
1

>  <SLogP>
3.95

>  <TopoPSA>
77.25

>  <MMFF94 Energy>
62.862

$$$$
COc1ccc(-c2noc(CNC(=O)CSCc3ccccc3C)n2)c(OC)c1
Actelion Java MolfileCreator 2.0

  0  0  0  0  0  0              0 V3000
M  V30 BEGIN CTAB
M  V30 COUNTS 52 54 0 0 0
M  V30 BEGIN ATOM
M  V30 1 S -0.0803 -2.9759 1.8491 0
M  V30 2 C -0.4045 -4.67 1.2702 0
M  V30 3 C 1.363 -3.3304 2.903 0
M  V30 4 C -1.5577 -4.7131 0.294 0
M  V30 5 C 1.9127 -2.0902 3.5947 0
M  V30 6 C -1.3769 -4.597 -1.1015 0
M  V30 7 C -2.8633 -4.8507 0.803 0
M  V30 8 O 2.558 -2.1685 4.6389 0
M  V30 9 N 1.7201 -0.8991 2.9469 0
M  V30 10 C -2.4995 -4.6464 -1.9453 0
M  V30 11 C -0.0143 -4.4348 -1.718 0
M  V30 12 C -3.9665 -4.8923 -0.0484 0
M  V30 13 C 2.2162 0.3523 3.4768 0
M  V30 14 C -3.784 -4.7932 -1.4227 0
M  V30 15 C 1.9478 1.4466 2.5146 0
M  V30 16 O 2.5323 2.6471 2.7745 0
M  V30 17 N 1.2208 1.4486 1.4187 0
M  V30 18 N 2.1448 3.5046 1.7508 0
M  V30 19 C 1.3467 2.7531 0.9729 0
M  V30 20 C 0.6902 3.2048 -0.2543 0
M  V30 21 C 0.5607 4.555 -0.6194 0
M  V30 22 C 0.1551 2.2404 -1.1254 0
M  V30 23 O 0.9975 5.5648 0.2026 0
M  V30 24 C -0.1101 4.9297 -1.796 0
M  V30 25 C -0.4895 2.6141 -2.3095 0
M  V30 26 C 2.2253 6.1114 -0.282 0
M  V30 27 C -0.6296 3.9589 -2.6492 0
M  V30 28 O -1.2911 4.1873 -3.8235 0
M  V30 29 C -1.5008 5.5454 -4.1904 0
M  V30 30 H -0.6344 -5.3027 2.1356 0
M  V30 31 H 0.5009 -5.0838 0.8158 0
M  V30 32 H 2.1644 -3.7559 2.2917 0
M  V30 33 H 1.0699 -4.0481 3.6753 0
M  V30 34 H -3.0273 -4.9202 1.8768 0
M  V30 35 H 1.1154 -0.8797 2.1275 0
M  V30 36 H -2.3801 -4.565 -3.0237 0
M  V30 37 H 0.5822 -5.3386 -1.5598 0
M  V30 38 H -0.0795 -4.2658 -2.7983 0
M  V30 39 H 0.5039 -3.5722 -1.2882 0
M  V30 40 H -4.9671 -4.9976 0.3622 0
M  V30 41 H 1.7124 0.5451 4.4295 0
M  V30 42 H 3.2902 0.2514 3.6646 0
M  V30 43 H -4.6416 -4.824 -2.0894 0
M  V30 44 H 0.2312 1.1804 -0.8878 0
M  V30 45 H -0.2195 5.9879 -2.007 0
M  V30 46 H -0.8957 1.8466 -2.9646 0
M  V30 47 H 2.962 5.3297 -0.4992 0
M  V30 48 H 2.6359 6.7573 0.4998 0
M  V30 49 H 2.0514 6.7254 -1.1718 0
M  V30 50 H -2.1123 6.0661 -3.4458 0
M  V30 51 H -2.0495 5.555 -5.1371 0
M  V30 52 H -0.5488 6.0616 -4.3521 0
M  V30 END ATOM
M  V30 BEGIN BOND
M  V30 1 1 1 2
M  V30 2 1 1 3
M  V30 3 1 2 4
M  V30 4 1 3 5
M  V30 5 2 4 6
M  V30 6 1 4 7
M  V30 7 2 5 8
M  V30 8 1 5 9
M  V30 9 1 6 10
M  V30 10 1 6 11
M  V30 11 2 7 12
M  V30 12 1 9 13
M  V30 13 2 10 14
M  V30 14 1 13 15
M  V30 15 1 15 16
M  V30 16 2 15 17
M  V30 17 1 16 18
M  V30 18 1 17 19
M  V30 19 1 19 20
M  V30 20 2 20 21
M  V30 21 1 20 22
M  V30 22 1 21 23
M  V30 23 1 21 24
M  V30 24 2 22 25
M  V30 25 1 23 26
M  V30 26 2 24 27
M  V30 27 1 27 28
M  V30 28 1 28 29
M  V30 29 1 12 14
M  V30 30 2 18 19
M  V30 31 1 25 27
M  V30 32 1 2 30
M  V30 33 1 2 31
M  V30 34 1 3 32
M  V30 35 1 3 33
M  V30 36 1 7 34
M  V30 37 1 9 35
M  V30 38 1 10 36
M  V30 39 1 11 37
M  V30 40 1 11 38
M  V30 41 1 11 39
M  V30 42 1 12 40
M  V30 43 1 13 41
M  V30 44 1 13 42
M  V30 45 1 14 43
M  V30 46 1 22 44
M  V30 47 1 24 45
M  V30 48 1 25 46
M  V30 49 1 26 47
M  V30 50 1 26 48
M  V30 51 1 26 49
M  V30 52 1 29 50
M  V30 53 1 29 51
M  V30 54 1 29 52
M  V30 END BOND
M  V30 END CTAB
M  END
>  <NO.>
3954

>  <Name>
norepinephrine

>  <SMILES>
COc1ccc(-c2noc(CNC(=O)CSCc3ccccc3C)n2)c(OC)c1

>  <logBB>


>  <Class>
-1

>  <MW>
413.14

>  <nHBAcc>
7

>  <nHBDon>
1

>  <SLogP>
3.61

>  <TopoPSA>
86.48

>  <MMFF94 Energy>
83.64

$$$$
COc1ccc(C(=O)c2coc3ccc(O)c(CN4CCN(C)CC4)c23)cc1
Actelion Java MolfileCreator 2.0

  0  0  0  0  0  0              0 V3000
M  V30 BEGIN CTAB
M  V30 COUNTS 52 55 0 0 0
M  V30 BEGIN ATOM
M  V30 1 O -1.7574 -0.9583 -2.0772 0
M  V30 2 C -0.6243 -1.17 -1.6489 0
M  V30 3 C -0.4593 -1.9895 -0.4103 0
M  V30 4 C 0.5479 -0.7497 -2.3935 0
M  V30 5 C 0.742 -2.6242 -0.0757 0
M  V30 6 C -1.5755 -2.1717 0.4189 0
M  V30 7 C 1.7076 0.0224 -2.0274 0
M  V30 8 C 0.705 -1.0686 -3.7277 0
M  V30 9 C 0.8267 -3.3937 1.0892 0
M  V30 10 C -1.4866 -2.9444 1.5828 0
M  V30 11 C 2.172 0.7418 -0.885 0
M  V30 12 C 2.5081 0.014 -3.171 0
M  V30 13 O 1.8978 -0.6389 -4.1928 0
M  V30 14 C -0.2813 -3.5553 1.9247 0
M  V30 15 C 3.4712 1.3063 -0.9812 0
M  V30 16 C 1.3903 0.9279 0.4076 0
M  V30 17 C 3.7666 0.5984 -3.2726 0
M  V30 18 O -0.056 -4.3303 3.0279 0
M  V30 19 O 3.9859 1.9518 0.1149 0
M  V30 20 C 4.2497 1.2391 -2.1373 0
M  V30 21 N -0.0362 1.2399 0.2163 0
M  V30 22 C -1.1564 -4.5369 3.905 0
M  V30 23 C -0.2312 2.5524 -0.4394 0
M  V30 24 C -0.7264 1.2666 1.5247 0
M  V30 25 C -1.7291 2.9105 -0.5805 0
M  V30 26 C -2.224 1.622 1.3871 0
M  V30 27 N -2.4247 2.9233 0.7223 0
M  V30 28 C -3.8483 3.1959 0.5403 0
M  V30 29 H 1.6242 -2.5419 -0.7037 0
M  V30 30 H -2.5247 -1.7043 0.1621 0
M  V30 31 H 0.0889 -1.6043 -4.4373 0
M  V30 32 H 1.7667 -3.8774 1.3458 0
M  V30 33 H -2.3772 -3.0486 2.1936 0
M  V30 34 H 1.8397 1.7122 1.0285 0
M  V30 35 H 1.4957 -0.0063 0.9717 0
M  V30 36 H 4.3366 0.5458 -4.1922 0
M  V30 37 H 4.8606 2.3123 -0.1058 0
M  V30 38 H 5.236 1.6927 -2.1772 0
M  V30 39 H -1.5001 -3.591 4.3365 0
M  V30 40 H -0.8138 -5.1727 4.7271 0
M  V30 41 H -1.9731 -5.0604 3.3972 0
M  V30 42 H 0.2769 3.3457 0.1253 0
M  V30 43 H 0.1996 2.5433 -1.4466 0
M  V30 44 H -0.2479 1.9902 2.1991 0
M  V30 45 H -0.6505 0.2831 2.0025 0
M  V30 46 H -2.2041 2.1959 -1.2665 0
M  V30 47 H -1.8018 3.9034 -1.0406 0
M  V30 48 H -2.7341 0.8225 0.8337 0
M  V30 49 H -2.6624 1.6547 2.3918 0
M  V30 50 H -4.3423 2.4399 -0.0805 0
M  V30 51 H -3.994 4.1753 0.0715 0
M  V30 52 H -4.3582 3.2317 1.5094 0
M  V30 END ATOM
M  V30 BEGIN BOND
M  V30 1 2 1 2
M  V30 2 1 2 3
M  V30 3 1 2 4
M  V30 4 2 3 5
M  V30 5 1 3 6
M  V30 6 1 4 7
M  V30 7 2 4 8
M  V30 8 1 5 9
M  V30 9 2 6 10
M  V30 10 2 7 11
M  V30 11 1 7 12
M  V30 12 1 8 13
M  V30 13 2 9 14
M  V30 14 1 11 15
M  V30 15 1 11 16
M  V30 16 2 12 17
M  V30 17 1 14 18
M  V30 18 1 15 19
M  V30 19 2 15 20
M  V30 20 1 16 21
M  V30 21 1 18 22
M  V30 22 1 21 23
M  V30 23 1 21 24
M  V30 24 1 23 25
M  V30 25 1 24 26
M  V30 26 1 25 27
M  V30 27 1 27 28
M  V30 28 1 10 14
M  V30 29 1 12 13
M  V30 30 1 17 20
M  V30 31 1 26 27
M  V30 32 1 5 29
M  V30 33 1 6 30
M  V30 34 1 8 31
M  V30 35 1 9 32
M  V30 36 1 10 33
M  V30 37 1 16 34
M  V30 38 1 16 35
M  V30 39 1 17 36
M  V30 40 1 19 37
M  V30 41 1 20 38
M  V30 42 1 22 39
M  V30 43 1 22 40
M  V30 44 1 22 41
M  V30 45 1 23 42
M  V30 46 1 23 43
M  V30 47 1 24 44
M  V30 48 1 24 45
M  V30 49 1 25 46
M  V30 50 1 25 47
M  V30 51 1 26 48
M  V30 52 1 26 49
M  V30 53 1 28 50
M  V30 54 1 28 51
M  V30 55 1 28 52
M  V30 END BOND
M  V30 END CTAB
M  END
>  <NO.>
3955

>  <Name>
rescinnamine

>  <SMILES>
COc1ccc(C(=O)c2coc3ccc(O)c(CN4CCN(C)CC4)c23)cc1

>  <logBB>


>  <Class>
1

>  <MW>
380.17

>  <nHBAcc>
6

>  <nHBDon>
1

>  <SLogP>
3.13

>  <TopoPSA>
66.15

>  <MMFF94 Energy>
125.26

$$$$
COc1ccc(CCCNC(=O)CSCc2cccc(Cl)c2)cc1
Actelion Java MolfileCreator 2.0

  0  0  0  0  0  0              0 V3000
M  V30 BEGIN CTAB
M  V30 COUNTS 46 47 0 0 0
M  V30 BEGIN ATOM
M  V30 1 Cl 0.7247 3.9508 1.047 0
M  V30 2 C 1.5108 3.0321 2.2711 0
M  V30 3 C 1.1498 1.7003 2.4729 0
M  V30 4 C 2.5102 3.6186 3.0434 0
M  V30 5 C 1.8042 0.9274 3.4442 0
M  V30 6 C 3.1532 2.8671 4.0262 0
M  V30 7 C 2.8013 1.5306 4.2267 0
M  V30 8 C 1.4225 -0.5183 3.6468 0
M  V30 9 S 2.7768 -1.6976 3.3297 0
M  V30 10 C 3.2271 -1.2624 1.6192 0
M  V30 11 C 2.0362 -1.2092 0.6739 0
M  V30 12 O 1.1285 -2.0358 0.6756 0
M  V30 13 N 2.0695 -0.1399 -0.202 0
M  V30 14 C 1.0005 0.1107 -1.1498 0
M  V30 15 C 1.1115 -0.7892 -2.3792 0
M  V30 16 C 0.0918 -0.4364 -3.4669 0
M  V30 17 C -1.3498 -0.5514 -3.0362 0
M  V30 18 C -1.8677 -1.7651 -2.5663 0
M  V30 19 C -2.2013 0.5566 -3.1114 0
M  V30 20 C -3.2045 -1.8668 -2.1636 0
M  V30 21 C -3.5359 0.4515 -2.711 0
M  V30 22 C -4.0449 -0.7568 -2.2326 0
M  V30 23 O -5.3637 -0.7203 -1.872 0
M  V30 24 C -5.9183 -1.9214 -1.3506 0
M  V30 25 H 0.3599 1.2607 1.8665 0
M  V30 26 H 2.7888 4.6576 2.8894 0
M  V30 27 H 3.9291 3.3213 4.6379 0
M  V30 28 H 3.3133 0.957 4.9983 0
M  V30 29 H 1.1034 -0.6485 4.6875 0
M  V30 30 H 0.5582 -0.7915 3.0326 0
M  V30 31 H 3.9161 -2.0238 1.24 0
M  V30 32 H 3.7675 -0.311 1.628 0
M  V30 33 H 2.8316 0.5248 -0.1566 0
M  V30 34 H 1.0726 1.1649 -1.4377 0
M  V30 35 H 0.0451 -0.0382 -0.6356 0
M  V30 36 H 1.0069 -1.8398 -2.0835 0
M  V30 37 H 2.1185 -0.6949 -2.8054 0
M  V30 38 H 0.2954 0.5807 -3.8251 0
M  V30 39 H 0.243 -1.0965 -4.3304 0
M  V30 40 H -1.2326 -2.6464 -2.5017 0
M  V30 41 H -1.8372 1.5129 -3.4793 0
M  V30 42 H -3.5527 -2.8278 -1.8004 0
M  V30 43 H -4.1857 1.3211 -2.7716 0
M  V30 44 H -5.9 -2.7213 -2.098 0
M  V30 45 H -6.9652 -1.7247 -1.0998 0
M  V30 46 H -5.4077 -2.2263 -0.431 0
M  V30 END ATOM
M  V30 BEGIN BOND
M  V30 1 1 1 2
M  V30 2 2 2 3
M  V30 3 1 2 4
M  V30 4 1 3 5
M  V30 5 2 4 6
M  V30 6 2 5 7
M  V30 7 1 5 8
M  V30 8 1 8 9
M  V30 9 1 9 10
M  V30 10 1 10 11
M  V30 11 2 11 12
M  V30 12 1 11 13
M  V30 13 1 13 14
M  V30 14 1 14 15
M  V30 15 1 15 16
M  V30 16 1 16 17
M  V30 17 2 17 18
M  V30 18 1 17 19
M  V30 19 1 18 20
M  V30 20 2 19 21
M  V30 21 2 20 22
M  V30 22 1 22 23
M  V30 23 1 23 24
M  V30 24 1 6 7
M  V30 25 1 21 22
M  V30 26 1 3 25
M  V30 27 1 4 26
M  V30 28 1 6 27
M  V30 29 1 7 28
M  V30 30 1 8 29
M  V30 31 1 8 30
M  V30 32 1 10 31
M  V30 33 1 10 32
M  V30 34 1 13 33
M  V30 35 1 14 34
M  V30 36 1 14 35
M  V30 37 1 15 36
M  V30 38 1 15 37
M  V30 39 1 16 38
M  V30 40 1 16 39
M  V30 41 1 18 40
M  V30 42 1 19 41
M  V30 43 1 20 42
M  V30 44 1 21 43
M  V30 45 1 24 44
M  V30 46 1 24 45
M  V30 47 1 24 46
M  V30 END BOND
M  V30 END CTAB
M  END
>  <NO.>
3956

>  <Name>
cladribine

>  <SMILES>
COc1ccc(CCCNC(=O)CSCc2cccc(Cl)c2)cc1

>  <logBB>


>  <Class>
1

>  <MW>
363.11

>  <nHBAcc>
3

>  <nHBDon>
1

>  <SLogP>
4.33

>  <TopoPSA>
38.33

>  <MMFF94 Energy>
42.611

$$$$
COc1ccc(CN(C)C(=O)c2ccc(CN3CCc4ccccc4C3)cc2)cc1
Actelion Java MolfileCreator 2.0

  0  0  0  0  0  0              0 V3000
M  V30 BEGIN CTAB
M  V30 COUNTS 58 61 0 0 0
M  V30 BEGIN ATOM
M  V30 1 O 2.068 0.8745 -1.8293 0
M  V30 2 C 1.6368 -0.2729 -1.7428 0
M  V30 3 N 1.8322 -1.2504 -2.7154 0
M  V30 4 C 0.8793 -0.6198 -0.5226 0
M  V30 5 C 2.7211 -0.9444 -3.8338 0
M  V30 6 C 1.1746 -2.5517 -2.7315 0
M  V30 7 C 1.3624 -1.5952 0.3553 0
M  V30 8 C -0.2926 0.0798 -0.231 0
M  V30 9 C 1.9715 -0.6111 -5.103 0
M  V30 10 C 0.6472 -1.8951 1.5166 0
M  V30 11 C -1.0061 -0.2255 0.9287 0
M  V30 12 C 1.9762 -1.4903 -6.1924 0
M  V30 13 C 1.2534 0.5878 -5.2097 0
M  V30 14 C -0.543 -1.2128 1.8151 0
M  V30 15 C 1.2745 -1.173 -7.3583 0
M  V30 16 C 0.552 0.9032 -6.3786 0
M  V30 17 C -1.3262 -1.5461 3.0699 0
M  V30 18 C 0.5596 0.0225 -7.4592 0
M  V30 19 N -1.606 -0.3772 3.9192 0
M  V30 20 O -0.0808 0.2068 -8.6536 0
M  V30 21 C -0.3615 0.1726 4.496 0
M  V30 22 C -2.5318 -0.7425 5.0024 0
M  V30 23 C -0.81 1.4178 -8.8084 0
M  V30 24 C -0.5911 1.2466 5.5411 0
M  V30 25 C -2.9871 0.5033 5.7728 0
M  V30 26 C -1.8322 1.3764 6.1875 0
M  V30 27 C 0.4677 2.0865 5.9174 0
M  V30 28 C -2.0078 2.3596 7.1703 0
M  V30 29 C 0.2879 3.056 6.9045 0
M  V30 30 C -0.9493 3.1933 7.529 0
M  V30 31 H 3.3806 -0.1041 -3.5858 0
M  V30 32 H 3.3767 -1.8107 -3.9849 0
M  V30 33 H 0.7474 -2.7359 -3.7209 0
M  V30 34 H 1.9229 -3.3189 -2.5132 0
M  V30 35 H 0.364 -2.6189 -2.0042 0
M  V30 36 H 2.2942 -2.1116 0.142 0
M  V30 37 H -0.6455 0.861 -0.8995 0
M  V30 38 H 1.0294 -2.6567 2.1925 0
M  V30 39 H -1.9189 0.3225 1.1568 0
M  V30 40 H 2.5231 -2.4285 -6.1442 0
M  V30 41 H 1.2388 1.2875 -4.3747 0
M  V30 42 H 1.2852 -1.8636 -8.1978 0
M  V30 43 H 0.013 1.844 -6.4076 0
M  V30 44 H -0.8092 -2.3255 3.6456 0
M  V30 45 H -2.2712 -1.991 2.7301 0
M  V30 46 H 0.23 -0.6234 4.9678 0
M  V30 47 H 0.2405 0.6138 3.6929 0
M  V30 48 H -3.4271 -1.227 4.5932 0
M  V30 49 H -2.0621 -1.4603 5.6888 0
M  V30 50 H -1.6277 1.4819 -8.0829 0
M  V30 51 H -1.253 1.4153 -9.8089 0
M  V30 52 H -0.1496 2.2885 -8.7392 0
M  V30 53 H -3.5505 0.185 6.6579 0
M  V30 54 H -3.6591 1.0996 5.1427 0
M  V30 55 H 1.4389 1.991 5.4371 0
M  V30 56 H -2.9721 2.4819 7.6575 0
M  V30 57 H 1.1126 3.7064 7.1831 0
M  V30 58 H -1.0913 3.9533 8.2927 0
M  V30 END ATOM
M  V30 BEGIN BOND
M  V30 1 2 1 2
M  V30 2 1 2 3
M  V30 3 1 2 4
M  V30 4 1 3 5
M  V30 5 1 3 6
M  V30 6 2 4 7
M  V30 7 1 4 8
M  V30 8 1 5 9
M  V30 9 1 7 10
M  V30 10 2 8 11
M  V30 11 2 9 12
M  V30 12 1 9 13
M  V30 13 2 10 14
M  V30 14 1 12 15
M  V30 15 2 13 16
M  V30 16 1 14 17
M  V30 17 2 15 18
M  V30 18 1 17 19
M  V30 19 1 18 20
M  V30 20 1 19 21
M  V30 21 1 19 22
M  V30 22 1 20 23
M  V30 23 1 21 24
M  V30 24 1 22 25
M  V30 25 2 24 26
M  V30 26 1 24 27
M  V30 27 1 26 28
M  V30 28 2 27 29
M  V30 29 2 28 30
M  V30 30 1 11 14
M  V30 31 1 16 18
M  V30 32 1 25 26
M  V30 33 1 29 30
M  V30 34 1 5 31
M  V30 35 1 5 32
M  V30 36 1 6 33
M  V30 37 1 6 34
M  V30 38 1 6 35
M  V30 39 1 7 36
M  V30 40 1 8 37
M  V30 41 1 10 38
M  V30 42 1 11 39
M  V30 43 1 12 40
M  V30 44 1 13 41
M  V30 45 1 15 42
M  V30 46 1 16 43
M  V30 47 1 17 44
M  V30 48 1 17 45
M  V30 49 1 21 46
M  V30 50 1 21 47
M  V30 51 1 22 48
M  V30 52 1 22 49
M  V30 53 1 23 50
M  V30 54 1 23 51
M  V30 55 1 23 52
M  V30 56 1 25 53
M  V30 57 1 25 54
M  V30 58 1 27 55
M  V30 59 1 28 56
M  V30 60 1 29 57
M  V30 61 1 30 58
M  V30 END BOND
M  V30 END CTAB
M  END
>  <NO.>
3957

>  <Name>
econazole

>  <SMILES>
COc1ccc(CN(C)C(=O)c2ccc(CN3CCc4ccccc4C3)cc2)cc1

>  <logBB>


>  <Class>
-1

>  <MW>
400.22

>  <nHBAcc>
3

>  <nHBDon>
0

>  <SLogP>
4.53

>  <TopoPSA>
32.78

>  <MMFF94 Energy>
83.021

$$$$
COc1ccc(CSCC(=O)N[C@H]2CC(C)(C)Oc3cc(OC)ccc32)cc1
Actelion Java MolfileCreator 2.0

  0  0  0  0  0  0              0 V3000
M  V30 BEGIN CTAB
M  V30 COUNTS 55 57 0 0 0
M  V30 BEGIN ATOM
M  V30 1 S -2.9642 -1.4412 0.6403 0
M  V30 2 C -3.7603 -1.715 2.2548 0
M  V30 3 C -2.1213 0.1406 0.9987 0
M  V30 4 C -2.7746 -1.9603 3.368 0
M  V30 5 C -1.5007 0.7508 -0.2508 0
M  V30 6 C -2.5593 -0.9924 4.3569 0
M  V30 7 C -2.0523 -3.1605 3.4337 0
M  V30 8 O -1.4975 1.9655 -0.4296 0
M  V30 9 N -0.8848 -0.1517 -1.089 0
M  V30 10 C -1.6377 -1.2226 5.3815 0
M  V30 11 C -1.1304 -3.388 4.4621 0
M  V30 12 C -0.162 0.1867 -2.3082 0 CFG=2
M  V30 13 C -0.919 -2.4181 5.4411 0
M  V30 14 C 1.1072 0.9673 -2.0821 0
M  V30 15 C -1.0501 0.8772 -3.341 0
M  V30 16 O -0.0514 -2.5115 6.494 0
M  V30 17 C 1.5315 1.8988 -3.0341 0
M  V30 18 C 1.9207 0.7417 -0.9596 0
M  V30 19 C -0.2271 1.3164 -4.559 0
M  V30 20 C 0.6913 -3.7184 6.61 0
M  V30 21 O 0.8571 2.1842 -4.1901 0
M  V30 22 C 2.7118 2.6213 -2.8397 0
M  V30 23 C 3.106 1.4617 -0.7712 0
M  V30 24 C -1.1275 2.1441 -5.4895 0
M  V30 25 C 0.3357 0.1326 -5.3609 0
M  V30 26 C 3.5034 2.4115 -1.7095 0
M  V30 27 O 4.6326 3.1809 -1.6474 0
M  V30 28 C 5.4243 3.0654 -0.4722 0
M  V30 29 H -4.42 -2.586 2.1671 0
M  V30 30 H -4.4097 -0.8619 2.4815 0
M  V30 31 H -1.3183 -0.0182 1.724 0
M  V30 32 H -2.8491 0.8514 1.4017 0
M  V30 33 H -3.1035 -0.0505 4.3414 0
M  V30 34 H -2.2018 -3.93 2.6784 0
M  V30 35 H -1.0205 -1.1332 -0.8732 0
M  V30 36 H -1.4785 -0.4624 6.1431 0
M  V30 37 H -0.5962 -4.332 4.4671 0
M  V30 38 H 0.1439 -0.7859 -2.7151 0
M  V30 39 H -1.8718 0.2127 -3.6371 0
M  V30 40 H -1.5141 1.7671 -2.8969 0
M  V30 41 H 1.6321 0.0064 -0.2122 0
M  V30 42 H 0.0283 -4.5782 6.752 0
M  V30 43 H 1.3251 -3.6367 7.4984 0
M  V30 44 H 1.3473 -3.8624 5.7452 0
M  V30 45 H 3.0185 3.3543 -3.5814 0
M  V30 46 H 3.6915 1.2558 0.1182 0
M  V30 47 H -0.5659 2.5058 -6.3588 0
M  V30 48 H -1.9838 1.5624 -5.8468 0
M  V30 49 H -1.5038 3.0366 -4.9757 0
M  V30 50 H 1.077 -0.4358 -4.7904 0
M  V30 51 H 0.8588 0.4874 -6.2568 0
M  V30 52 H -0.459 -0.552 -5.6746 0
M  V30 53 H 4.8508 3.3362 0.4207 0
M  V30 54 H 6.2567 3.7704 -0.5593 0
M  V30 55 H 5.8481 2.06 -0.3807 0
M  V30 END ATOM
M  V30 BEGIN BOND
M  V30 1 1 1 2
M  V30 2 1 1 3
M  V30 3 1 2 4
M  V30 4 1 3 5
M  V30 5 2 4 6
M  V30 6 1 4 7
M  V30 7 2 5 8
M  V30 8 1 5 9
M  V30 9 1 6 10
M  V30 10 2 7 11
M  V30 11 1 9 12
M  V30 12 2 10 13
M  V30 13 1 12 14
M  V30 14 1 12 15
M  V30 15 1 13 16
M  V30 16 2 14 17
M  V30 17 1 14 18
M  V30 18 1 15 19
M  V30 19 1 16 20
M  V30 20 1 17 21
M  V30 21 1 17 22
M  V30 22 2 18 23
M  V30 23 1 19 24
M  V30 24 1 19 25
M  V30 25 2 22 26
M  V30 26 1 26 27
M  V30 27 1 27 28
M  V30 28 1 11 13
M  V30 29 1 19 21
M  V30 30 1 23 26
M  V30 31 1 2 29
M  V30 32 1 2 30
M  V30 33 1 3 31
M  V30 34 1 3 32
M  V30 35 1 6 33
M  V30 36 1 7 34
M  V30 37 1 9 35
M  V30 38 1 10 36
M  V30 39 1 11 37
M  V30 40 1 12 38
M  V30 41 1 15 39
M  V30 42 1 15 40
M  V30 43 1 18 41
M  V30 44 1 20 42
M  V30 45 1 20 43
M  V30 46 1 20 44
M  V30 47 1 22 45
M  V30 48 1 23 46
M  V30 49 1 24 47
M  V30 50 1 24 48
M  V30 51 1 24 49
M  V30 52 1 25 50
M  V30 53 1 25 51
M  V30 54 1 25 52
M  V30 55 1 28 53
M  V30 56 1 28 54
M  V30 57 1 28 55
M  V30 END BOND
M  V30 BEGIN COLLECTION
M  V30 MDLV30/STEABS ATOMS=(1 12)
M  V30 END COLLECTION
M  V30 END CTAB
M  END
>  <NO.>
3958

>  <Name>
omeprazole

>  <SMILES>
COc1ccc(CSCC(=O)N[C@H]2CC(C)(C)Oc3cc(OC)ccc32)cc1

>  <logBB>


>  <Class>
-1

>  <MW>
401.17

>  <nHBAcc>
5

>  <nHBDon>
1

>  <SLogP>
4.36

>  <TopoPSA>
56.79

>  <MMFF94 Energy>
53.289

$$$$
COc1ccc(N2C[C@H](C(=O)N3CCCC[C@H]3c3cccnc3)CC2=O)cc1
Actelion Java MolfileCreator 2.0

  0  0  0  0  0  0              0 V3000
M  V30 BEGIN CTAB
M  V30 COUNTS 53 56 0 0 0
M  V30 BEGIN ATOM
M  V30 1 O -3.7578 1.6777 2.3173 0
M  V30 2 C -2.7498 1.5417 1.6416 0
M  V30 3 N -1.8475 0.4756 1.6167 0
M  V30 4 C -2.2476 2.5893 0.6802 0
M  V30 5 C -1.9312 -0.7045 2.3932 0
M  V30 6 C -0.7477 0.7427 0.7253 0
M  V30 7 C -1.2617 1.8258 -0.207 0 CFG=2
M  V30 8 C -0.778 -1.4396 2.7013 0
M  V30 9 C -3.1608 -1.1857 2.8507 0
M  V30 10 C -0.1255 2.6964 -0.7212 0
M  V30 11 C -0.8509 -2.6227 3.4507 0
M  V30 12 C -3.2331 -2.3664 3.5989 0
M  V30 13 O 0.089 3.7938 -0.2018 0
M  V30 14 N 0.6562 2.234 -1.7777 0
M  V30 15 C -2.0817 -3.0915 3.9033 0
M  V30 16 C 0.598 0.8745 -2.3664 0 CFG=2
M  V30 17 C 1.7037 3.1292 -2.2988 0
M  V30 18 O -2.2936 -4.2249 4.6371 0
M  V30 19 C 1.6307 -0.0897 -1.7906 0
M  V30 20 C 0.6068 0.9671 -3.9084 0
M  V30 21 C 1.6951 3.208 -3.8201 0
M  V30 22 C -1.1468 -4.9893 4.9862 0
M  V30 23 C 1.6988 -1.4033 -2.2597 0
M  V30 24 C 2.4945 0.2269 -0.733 0
M  V30 25 C 1.7559 1.8183 -4.4378 0
M  V30 26 N 2.5473 -2.3494 -1.7942 0
M  V30 27 C 3.3828 -0.7245 -0.2345 0
M  V30 28 C 3.3761 -1.9867 -0.7963 0
M  V30 29 H -1.7891 3.3939 1.2638 0
M  V30 30 H -3.0766 2.9957 0.0934 0
M  V30 31 H 0.1143 1.0778 1.3143 0
M  V30 32 H -0.4877 -0.1669 0.177 0
M  V30 33 H -1.8294 1.4002 -1.0419 0
M  V30 34 H 0.2036 -1.1055 2.3779 0
M  V30 35 H -4.0882 -0.6634 2.6309 0
M  V30 36 H 0.0736 -3.1492 3.6618 0
M  V30 37 H -4.2014 -2.7199 3.9457 0
M  V30 38 H -0.3653 0.43 -2.1032 0
M  V30 39 H 2.6736 2.7569 -1.9535 0
M  V30 40 H 1.5958 4.1409 -1.8947 0
M  V30 41 H -0.3363 1.4302 -4.2304 0
M  V30 42 H 0.6353 -0.0197 -4.3809 0
M  V30 43 H 0.7814 3.7153 -4.1544 0
M  V30 44 H 2.5433 3.8086 -4.1668 0
M  V30 45 H -0.6412 -5.3722 4.0936 0
M  V30 46 H -1.4842 -5.8497 5.5724 0
M  V30 47 H -0.4604 -4.4088 5.6117 0
M  V30 48 H 1.0398 -1.7641 -3.0457 0
M  V30 49 H 2.492 1.2119 -0.2729 0
M  V30 50 H 2.7172 1.3441 -4.2075 0
M  V30 51 H 1.6871 1.8962 -5.5286 0
M  V30 52 H 4.0627 -0.4838 0.5756 0
M  V30 53 H 4.0506 -2.7625 -0.4457 0
M  V30 END ATOM
M  V30 BEGIN BOND
M  V30 1 2 1 2
M  V30 2 1 2 3
M  V30 3 1 2 4
M  V30 4 1 3 5
M  V30 5 1 3 6
M  V30 6 1 4 7
M  V30 7 2 5 8
M  V30 8 1 5 9
M  V30 9 1 7 10
M  V30 10 1 8 11
M  V30 11 2 9 12
M  V30 12 2 10 13
M  V30 13 1 10 14
M  V30 14 2 11 15
M  V30 15 1 14 16
M  V30 16 1 14 17
M  V30 17 1 15 18
M  V30 18 1 16 19
M  V30 19 1 16 20
M  V30 20 1 17 21
M  V30 21 1 18 22
M  V30 22 2 19 23
M  V30 23 1 19 24
M  V30 24 1 20 25
M  V30 25 1 23 26
M  V30 26 2 24 27
M  V30 27 2 26 28
M  V30 28 1 6 7
M  V30 29 1 12 15
M  V30 30 1 21 25
M  V30 31 1 27 28
M  V30 32 1 4 29
M  V30 33 1 4 30
M  V30 34 1 6 31
M  V30 35 1 6 32
M  V30 36 1 7 33
M  V30 37 1 8 34
M  V30 38 1 9 35
M  V30 39 1 11 36
M  V30 40 1 12 37
M  V30 41 1 16 38
M  V30 42 1 17 39
M  V30 43 1 17 40
M  V30 44 1 20 41
M  V30 45 1 20 42
M  V30 46 1 21 43
M  V30 47 1 21 44
M  V30 48 1 22 45
M  V30 49 1 22 46
M  V30 50 1 22 47
M  V30 51 1 23 48
M  V30 52 1 24 49
M  V30 53 1 25 50
M  V30 54 1 25 51
M  V30 55 1 27 52
M  V30 56 1 28 53
M  V30 END BOND
M  V30 BEGIN COLLECTION
M  V30 MDLV30/STEABS ATOMS=(2 7 16)
M  V30 END COLLECTION
M  V30 END CTAB
M  END
>  <NO.>
3959

>  <Name>
gabapentin

>  <SMILES>
COc1ccc(N2C[C@H](C(=O)N3CCCC[C@H]3c3cccnc3)CC2=O)cc1

>  <logBB>


>  <Class>
1

>  <MW>
379.19

>  <nHBAcc>
4

>  <nHBDon>
0

>  <SLogP>
3.2

>  <TopoPSA>
62.74

>  <MMFF94 Energy>
8.5518

$$$$
COc1ccc(NC(=O)C[C@@H]2OC(=O)c3c2ccc(OC)c3OC)cc1N1CCCS1(=O)=O
Actelion Java MolfileCreator 2.0

  0  0  0  0  0  0              0 V3000
M  V30 BEGIN CTAB
M  V30 COUNTS 57 60 0 0 0
M  V30 BEGIN ATOM
M  V30 1 S 1.6201 4.6226 -0.1619 0
M  V30 2 O 2.5175 4.7981 0.9582 0
M  V30 3 O 2.108 4.4164 -1.5094 0
M  V30 4 N 0.4106 3.4374 0.153 0
M  V30 5 C 0.4594 5.9713 -0.2183 0
M  V30 6 C 0.5865 2.6509 1.3469 0
M  V30 7 C -0.9538 3.9873 -0.0887 0
M  V30 8 C -0.7913 5.3331 -0.7953 0
M  V30 9 C 0.4676 3.1765 2.646 0
M  V30 10 C 0.9063 1.3005 1.1622 0
M  V30 11 O 0.1111 4.4953 2.7846 0
M  V30 12 C 0.6566 2.3356 3.7454 0
M  V30 13 C 1.0976 0.4626 2.2621 0
M  V30 14 C 0.8358 5.1852 3.8022 0
M  V30 15 C 0.9838 0.9898 3.5525 0
M  V30 16 N 1.4401 -0.8988 2.1418 0
M  V30 17 C 1.1364 -1.7212 1.0651 0
M  V30 18 O 0.4705 -1.3942 0.0907 0
M  V30 19 C 1.6672 -3.1313 1.2728 0
M  V30 20 C 1.6344 -4.0304 0.0421 0 CFG=2
M  V30 21 O 2.4873 -3.5072 -0.9952 0
M  V30 22 C 0.3351 -4.2296 -0.6376 0
M  V30 23 C 1.8277 -3.3965 -2.1933 0
M  V30 24 C 0.4583 -3.856 -1.9636 0
M  V30 25 C -0.8667 -4.7108 -0.1466 0
M  V30 26 O 2.3238 -3.0005 -3.2282 0
M  V30 27 C -0.6082 -3.9309 -2.8449 0
M  V30 28 C -1.9553 -4.8087 -1.0234 0
M  V30 29 O -0.4564 -3.6039 -4.1646 0
M  V30 30 C -1.8356 -4.4294 -2.374 0
M  V30 31 C -0.733 -2.2168 -4.3615 0
M  V30 32 O -2.8479 -4.5005 -3.2967 0
M  V30 33 C -4.0825 -5.0637 -2.877 0
M  V30 34 H 0.8561 6.7702 -0.8479 0
M  V30 35 H 0.2987 6.3379 0.7985 0
M  V30 36 H -1.5209 3.2944 -0.719 0
M  V30 37 H -1.5089 4.127 0.8442 0
M  V30 38 H -1.6735 5.9682 -0.6704 0
M  V30 39 H -0.6564 5.1634 -1.8709 0
M  V30 40 H 1.0168 0.9279 0.1472 0
M  V30 41 H 0.5389 2.7038 4.7597 0
M  V30 42 H 0.3842 5.0037 4.7825 0
M  V30 43 H 0.762 6.257 3.594 0
M  V30 44 H 1.8982 4.9167 3.8077 0
M  V30 45 H 1.1264 0.3582 4.4257 0
M  V30 46 H 1.9013 -1.3161 2.9404 0
M  V30 47 H 1.0811 -3.5838 2.0822 0
M  V30 48 H 2.7064 -3.0447 1.6152 0
M  V30 49 H 2.0441 -5.0111 0.314 0
M  V30 50 H -0.9752 -5.0085 0.8919 0
M  V30 51 H -2.8917 -5.1865 -0.6242 0
M  V30 52 H -1.7797 -1.9878 -4.1327 0
M  V30 53 H -0.5597 -1.9879 -5.4173 0
M  V30 54 H -0.0688 -1.5827 -3.7642 0
M  V30 55 H -3.9529 -6.0982 -2.5424 0
M  V30 56 H -4.7555 -5.0753 -3.7398 0
M  V30 57 H -4.5504 -4.4511 -2.0993 0
M  V30 END ATOM
M  V30 BEGIN BOND
M  V30 1 2 1 2
M  V30 2 2 1 3
M  V30 3 1 1 4
M  V30 4 1 1 5
M  V30 5 1 4 6
M  V30 6 1 4 7
M  V30 7 1 5 8
M  V30 8 2 6 9
M  V30 9 1 6 10
M  V30 10 1 9 11
M  V30 11 1 9 12
M  V30 12 2 10 13
M  V30 13 1 11 14
M  V30 14 2 12 15
M  V30 15 1 13 16
M  V30 16 1 16 17
M  V30 17 2 17 18
M  V30 18 1 17 19
M  V30 19 1 19 20
M  V30 20 1 20 21
M  V30 21 1 20 22
M  V30 22 1 21 23
M  V30 23 2 22 24
M  V30 24 1 22 25
M  V30 25 2 23 26
M  V30 26 1 24 27
M  V30 27 2 25 28
M  V30 28 1 27 29
M  V30 29 2 27 30
M  V30 30 1 29 31
M  V30 31 1 30 32
M  V30 32 1 32 33
M  V30 33 1 7 8
M  V30 34 1 13 15
M  V30 35 1 23 24
M  V30 36 1 28 30
M  V30 37 1 5 34
M  V30 38 1 5 35
M  V30 39 1 7 36
M  V30 40 1 7 37
M  V30 41 1 8 38
M  V30 42 1 8 39
M  V30 43 1 10 40
M  V30 44 1 12 41
M  V30 45 1 14 42
M  V30 46 1 14 43
M  V30 47 1 14 44
M  V30 48 1 15 45
M  V30 49 1 16 46
M  V30 50 1 19 47
M  V30 51 1 19 48
M  V30 52 1 20 49
M  V30 53 1 25 50
M  V30 54 1 28 51
M  V30 55 1 31 52
M  V30 56 1 31 53
M  V30 57 1 31 54
M  V30 58 1 33 55
M  V30 59 1 33 56
M  V30 60 1 33 57
M  V30 END BOND
M  V30 BEGIN COLLECTION
M  V30 MDLV30/STEABS ATOMS=(1 20)
M  V30 END COLLECTION
M  V30 END CTAB
M  END
>  <NO.>
3961

>  <Name>
phenoxybenzamine

>  <SMILES>
COc1ccc(NC(=O)C[C@@H]2OC(=O)c3c2ccc(OC)c3OC)cc1N1CCCS1(=O)=O

>  <logBB>


>  <Class>
-1

>  <MW>
476.13

>  <nHBAcc>
8

>  <nHBDon>
1

>  <SLogP>
2.49

>  <TopoPSA>
120.47

>  <MMFF94 Energy>
34.361

$$$$
COc1ccc([C@@H](NC(=O)c2cc(=O)c(OC)c[nH]2)C2CC(O)C2)cc1F
Actelion Java MolfileCreator 2.0

  0  0  0  0  0  0              0 V3000
M  V30 BEGIN CTAB
M  V30 COUNTS 48 50 0 0 0
M  V30 BEGIN ATOM
M  V30 1 F -5.3645 -2.7195 -0.7992 0
M  V30 2 C -4.0939 -2.319 -0.9621 0
M  V30 3 C -3.3148 -2.8567 -1.9886 0
M  V30 4 C -3.585 -1.3603 -0.0871 0
M  V30 5 O -3.9298 -3.787 -2.7811 0
M  V30 6 C -2.0015 -2.4085 -2.1295 0
M  V30 7 C -2.2658 -0.903 -0.2196 0
M  V30 8 C -3.1299 -4.4344 -3.7612 0
M  V30 9 C -1.4847 -1.4407 -1.2553 0
M  V30 10 C -1.7509 0.1587 0.7362 0 CFG=1
M  V30 11 N -0.3078 0.1996 0.8311 0
M  V30 12 C -2.248 1.5479 0.2892 0
M  V30 13 C 0.3931 -0.5206 1.7657 0
M  V30 14 C -1.6444 2.7907 1.0007 0
M  V30 15 C -1.7776 2.1724 -1.0551 0
M  V30 16 O -0.1149 -1.3237 2.538 0
M  V30 17 C 1.8684 -0.2252 1.7613 0
M  V30 18 C -0.8143 3.0827 -0.2671 0
M  V30 19 N 2.3541 0.9646 1.2533 0
M  V30 20 C 2.6808 -1.1557 2.2818 0
M  V30 21 O 0.5653 2.6441 -0.245 0
M  V30 22 C 3.6945 1.2553 1.2599 0
M  V30 23 C 4.1436 -0.8932 2.2866 0
M  V30 24 C 4.6415 0.4229 1.7341 0
M  V30 25 O 4.9084 -1.7448 2.7326 0
M  V30 26 O 6.0004 0.6418 1.7751 0
M  V30 27 C 6.4831 1.8823 1.281 0
M  V30 28 H -4.2331 -0.9827 0.6991 0
M  V30 29 H -1.3486 -2.7894 -2.9079 0
M  V30 30 H -2.7828 -3.7229 -4.5176 0
M  V30 31 H -3.755 -5.1774 -4.2657 0
M  V30 32 H -2.2892 -4.9638 -3.3006 0
M  V30 33 H -0.4547 -1.1193 -1.3938 0
M  V30 34 H -2.1428 -0.0563 1.7388 0
M  V30 35 H 0.2043 0.783 0.1807 0
M  V30 36 H -3.3463 1.5594 0.3656 0
M  V30 37 H -2.3829 3.5706 1.2225 0
M  V30 38 H -1.0697 2.5988 1.9115 0
M  V30 39 H -2.5642 2.7261 -1.5812 0
M  V30 40 H -1.3008 1.4948 -1.768 0
M  V30 41 H -0.8587 4.135 -0.5703 0
M  V30 42 H 1.6911 1.6917 0.9735 0
M  V30 43 H 2.3419 -2.096 2.6967 0
M  V30 44 H 0.9257 2.9714 -1.0926 0
M  V30 45 H 3.917 2.233 0.8491 0
M  V30 46 H 6.2523 1.9971 0.2169 0
M  V30 47 H 7.5715 1.8897 1.3921 0
M  V30 48 H 6.0796 2.7192 1.8604 0
M  V30 END ATOM
M  V30 BEGIN BOND
M  V30 1 1 1 2
M  V30 2 2 2 3
M  V30 3 1 2 4
M  V30 4 1 3 5
M  V30 5 1 3 6
M  V30 6 2 4 7
M  V30 7 1 5 8
M  V30 8 2 6 9
M  V30 9 1 7 10
M  V30 10 1 10 11
M  V30 11 1 10 12
M  V30 12 1 11 13
M  V30 13 1 12 14
M  V30 14 1 12 15
M  V30 15 2 13 16
M  V30 16 1 13 17
M  V30 17 1 14 18
M  V30 18 1 17 19
M  V30 19 2 17 20
M  V30 20 1 18 21
M  V30 21 1 19 22
M  V30 22 1 20 23
M  V30 23 2 22 24
M  V30 24 2 23 25
M  V30 25 1 24 26
M  V30 26 1 26 27
M  V30 27 1 7 9
M  V30 28 1 15 18
M  V30 29 1 23 24
M  V30 30 1 4 28
M  V30 31 1 6 29
M  V30 32 1 8 30
M  V30 33 1 8 31
M  V30 34 1 8 32
M  V30 35 1 9 33
M  V30 36 1 10 34
M  V30 37 1 11 35
M  V30 38 1 12 36
M  V30 39 1 14 37
M  V30 40 1 14 38
M  V30 41 1 15 39
M  V30 42 1 15 40
M  V30 43 1 18 41
M  V30 44 1 19 42
M  V30 45 1 20 43
M  V30 46 1 21 44
M  V30 47 1 22 45
M  V30 48 1 27 46
M  V30 49 1 27 47
M  V30 50 1 27 48
M  V30 END BOND
M  V30 BEGIN COLLECTION
M  V30 MDLV30/STEABS ATOMS=(1 10)
M  V30 END COLLECTION
M  V30 END CTAB
M  END
>  <NO.>
3963

>  <Name>
cetirizine

>  <SMILES>
COc1ccc([C@@H](NC(=O)c2cc(=O)c(OC)c[nH]2)C2CC(O)C2)cc1F

>  <logBB>


>  <Class>
-1

>  <MW>
376.14

>  <nHBAcc>
5

>  <nHBDon>
3

>  <SLogP>
1.77

>  <TopoPSA>
100.65

>  <MMFF94 Energy>
67.777

$$$$
COc1ccc([C@@H](NC(=O)c2cc3ncccn3n2)C2CC(O)C2)cn1
Actelion Java MolfileCreator 2.0

  0  0  0  0  0  0              0 V3000
M  V30 BEGIN CTAB
M  V30 COUNTS 45 48 0 0 0
M  V30 BEGIN ATOM
M  V30 1 O 1.2841 1.1235 -2.3284 0
M  V30 2 C 0.3482 0.458 -1.8989 0
M  V30 3 N -0.2151 0.6345 -0.6551 0
M  V30 4 C -0.2942 -0.6164 -2.67 0
M  V30 5 C 0.2894 1.5878 0.3039 0 CFG=2
M  V30 6 N -1.3122 -1.3397 -2.1593 0
M  V30 7 C 0.0351 -1.0327 -3.9796 0
M  V30 8 C 1.3502 0.9951 1.2032 0
M  V30 9 C -0.8713 2.1073 1.1569 0
M  V30 10 N -1.6431 -2.2084 -3.1467 0
M  V30 11 C -0.8351 -2.053 -4.2754 0
M  V30 12 C 2.4118 1.7856 1.6414 0
M  V30 13 C 1.3116 -0.3239 1.6688 0
M  V30 14 C -2.1538 2.6201 0.4438 0
M  V30 15 C -1.7995 1.1435 1.9502 0
M  V30 16 C -2.6474 -3.1718 -3.1269 0
M  V30 17 N -0.9866 -2.8279 -5.3929 0
M  V30 18 N 3.388 1.3663 2.4791 0
M  V30 19 C 2.3087 -0.7872 2.5236 0
M  V30 20 C -2.9594 2.1271 1.6686 0
M  V30 21 C -2.8484 -3.9611 -4.1909 0
M  V30 22 C -1.9329 -3.717 -5.3407 0
M  V30 23 C 3.3166 0.0857 2.8961 0
M  V30 24 O -4.2333 1.5288 1.3799 0
M  V30 25 O 4.2768 -0.4193 3.7503 0
M  V30 26 C 5.3022 0.5215 4.0508 0
M  V30 27 H -0.9819 0.0043 -0.4377 0
M  V30 28 H 0.7234 2.4251 -0.2572 0
M  V30 29 H 0.8068 -0.6352 -4.6232 0
M  V30 30 H -0.4836 2.896 1.825 0
M  V30 31 H 2.5118 2.8204 1.3216 0
M  V30 32 H 0.515 -0.9998 1.3701 0
M  V30 33 H -2.4171 2.108 -0.4882 0
M  V30 34 H -2.1836 3.6992 0.2672 0
M  V30 35 H -1.5416 1.0178 3.0058 0
M  V30 36 H -1.9479 0.1528 1.5078 0
M  V30 37 H -3.2326 -3.2304 -2.2195 0
M  V30 38 H 2.3015 -1.8068 2.8911 0
M  V30 39 H -3.0613 2.899 2.4424 0
M  V30 40 H -3.6045 -4.7293 -4.2558 0
M  V30 41 H -2.0983 -4.3682 -6.2153 0
M  V30 42 H -4.5585 1.2025 2.2366 0
M  V30 43 H 4.8998 1.3914 4.5815 0
M  V30 44 H 6.0198 0.0306 4.7153 0
M  V30 45 H 5.841 0.8254 3.1466 0
M  V30 END ATOM
M  V30 BEGIN BOND
M  V30 1 2 1 2
M  V30 2 1 2 3
M  V30 3 1 2 4
M  V30 4 1 3 5
M  V30 5 2 4 6
M  V30 6 1 4 7
M  V30 7 1 5 8
M  V30 8 1 5 9
M  V30 9 1 6 10
M  V30 10 2 7 11
M  V30 11 2 8 12
M  V30 12 1 8 13
M  V30 13 1 9 14
M  V30 14 1 9 15
M  V30 15 1 10 16
M  V30 16 1 11 17
M  V30 17 1 12 18
M  V30 18 2 13 19
M  V30 19 1 14 20
M  V30 20 2 16 21
M  V30 21 2 17 22
M  V30 22 2 18 23
M  V30 23 1 20 24
M  V30 24 1 23 25
M  V30 25 1 25 26
M  V30 26 1 10 11
M  V30 27 1 15 20
M  V30 28 1 19 23
M  V30 29 1 21 22
M  V30 30 1 3 27
M  V30 31 1 5 28
M  V30 32 1 7 29
M  V30 33 1 9 30
M  V30 34 1 12 31
M  V30 35 1 13 32
M  V30 36 1 14 33
M  V30 37 1 14 34
M  V30 38 1 15 35
M  V30 39 1 15 36
M  V30 40 1 16 37
M  V30 41 1 19 38
M  V30 42 1 20 39
M  V30 43 1 21 40
M  V30 44 1 22 41
M  V30 45 1 24 42
M  V30 46 1 26 43
M  V30 47 1 26 44
M  V30 48 1 26 45
M  V30 END BOND
M  V30 BEGIN COLLECTION
M  V30 MDLV30/STEABS ATOMS=(1 5)
M  V30 END COLLECTION
M  V30 END CTAB
M  END
>  <NO.>
3964

>  <Name>
mifepristone

>  <SMILES>
COc1ccc([C@@H](NC(=O)c2cc3ncccn3n2)C2CC(O)C2)cn1

>  <logBB>


>  <Class>
-1

>  <MW>
353.15

>  <nHBAcc>
6

>  <nHBDon>
2

>  <SLogP>
1.37

>  <TopoPSA>
101.64

>  <MMFF94 Energy>
48.669

$$$$
COc1ccc([C@@H](NC(=O)c2cnoc2C)C2CC(O)C2)cn1
Actelion Java MolfileCreator 2.0

  0  0  0  0  0  0              0 V3000
M  V30 BEGIN CTAB
M  V30 COUNTS 42 44 0 0 0
M  V30 BEGIN ATOM
M  V30 1 O 1.6775 0.1596 1.9972 0
M  V30 2 C 1.8923 0.2159 0.7901 0
M  V30 3 N 0.9691 0.7269 -0.0987 0
M  V30 4 C 3.1341 -0.2545 0.2119 0
M  V30 5 C -0.3027 1.2516 0.3638 0 CFG=2
M  V30 6 C 4.1315 -0.9254 0.8939 0
M  V30 7 C 3.6541 -0.1668 -1.0978 0
M  V30 8 C -1.3298 0.18 0.6579 0
M  V30 9 C -0.874 2.2428 -0.6687 0
M  V30 10 O 5.1537 -1.2174 0.0457 0
M  V30 11 C 4.2975 -1.3702 2.2923 0
M  V30 12 N 4.8539 -0.7397 -1.2171 0
M  V30 13 C -1.3763 -1.032 -0.0274 0
M  V30 14 C -2.3147 0.39 1.6303 0
M  V30 15 C 0.0973 3.2758 -1.3026 0
M  V30 16 C -1.2357 1.8021 -2.1162 0
M  V30 17 N -2.3022 -1.998 0.1768 0
M  V30 18 C -3.2744 -0.5898 1.8724 0
M  V30 19 C 0.075 2.4461 -2.6049 0
M  V30 20 C -3.2269 -1.7563 1.1285 0
M  V30 21 O 1.1696 1.5208 -2.7819 0
M  V30 22 O -4.2038 -2.6938 1.3997 0
M  V30 23 C -4.0589 -3.8843 0.6328 0
M  V30 24 H 1.1957 0.7894 -1.0882 0
M  V30 25 H -0.0973 1.8002 1.293 0
M  V30 26 H 3.2255 0.2902 -1.9764 0
M  V30 27 H -1.7255 2.7583 -0.1965 0
M  V30 28 H 5.2303 -1.9272 2.4252 0
M  V30 29 H 3.4709 -2.0235 2.5884 0
M  V30 30 H 4.3195 -0.5096 2.9679 0
M  V30 31 H -0.6476 -1.2744 -0.7962 0
M  V30 32 H -2.3367 1.3106 2.2087 0
M  V30 33 H 1.0742 3.3837 -0.8225 0
M  V30 34 H -0.3384 4.2756 -1.4189 0
M  V30 35 H -1.3223 0.7284 -2.2982 0
M  V30 36 H -2.1334 2.2909 -2.5134 0
M  V30 37 H -4.0411 -0.4491 2.6257 0
M  V30 38 H -0.04 3.0623 -3.5037 0
M  V30 39 H 1.0657 1.1988 -3.6981 0
M  V30 40 H -3.1048 -4.38 0.8437 0
M  V30 41 H -4.8605 -4.5691 0.9266 0
M  V30 42 H -4.1705 -3.6827 -0.4382 0
M  V30 END ATOM
M  V30 BEGIN BOND
M  V30 1 2 1 2
M  V30 2 1 2 3
M  V30 3 1 2 4
M  V30 4 1 3 5
M  V30 5 2 4 6
M  V30 6 1 4 7
M  V30 7 1 5 8
M  V30 8 1 5 9
M  V30 9 1 6 10
M  V30 10 1 6 11
M  V30 11 2 7 12
M  V30 12 2 8 13
M  V30 13 1 8 14
M  V30 14 1 9 15
M  V30 15 1 9 16
M  V30 16 1 13 17
M  V30 17 2 14 18
M  V30 18 1 15 19
M  V30 19 2 17 20
M  V30 20 1 19 21
M  V30 21 1 20 22
M  V30 22 1 22 23
M  V30 23 1 10 12
M  V30 24 1 16 19
M  V30 25 1 18 20
M  V30 26 1 3 24
M  V30 27 1 5 25
M  V30 28 1 7 26
M  V30 29 1 9 27
M  V30 30 1 11 28
M  V30 31 1 11 29
M  V30 32 1 11 30
M  V30 33 1 13 31
M  V30 34 1 14 32
M  V30 35 1 15 33
M  V30 36 1 15 34
M  V30 37 1 16 35
M  V30 38 1 16 36
M  V30 39 1 18 37
M  V30 40 1 19 38
M  V30 41 1 21 39
M  V30 42 1 23 40
M  V30 43 1 23 41
M  V30 44 1 23 42
M  V30 END BOND
M  V30 BEGIN COLLECTION
M  V30 MDLV30/STEABS ATOMS=(1 5)
M  V30 END COLLECTION
M  V30 END CTAB
M  END
>  <NO.>
3965

>  <Name>
cefotetan

>  <SMILES>
COc1ccc([C@@H](NC(=O)c2cnoc2C)C2CC(O)C2)cn1

>  <logBB>


>  <Class>
-1

>  <MW>
317.14

>  <nHBAcc>
6

>  <nHBDon>
2

>  <SLogP>
1.63

>  <TopoPSA>
97.48

>  <MMFF94 Energy>
-27.937

$$$$
COc1ccc([C@@H](NC2CCOCC2)C2CC(O)C2)cn1
Actelion Java MolfileCreator 2.0

  0  0  0  0  0  0              0 V3000
M  V30 BEGIN CTAB
M  V30 COUNTS 45 47 0 0 0
M  V30 BEGIN ATOM
M  V30 1 O 2.9437 0.9539 3.342 0
M  V30 2 C 1.9989 -0.0881 3.5942 0
M  V30 3 C 3.0026 1.2867 1.9538 0
M  V30 4 C 0.5946 0.3535 3.1955 0
M  V30 5 C 1.6544 1.8093 1.4733 0
M  V30 6 C 0.5355 0.7863 1.7199 0
M  V30 7 N 0.6378 -0.4114 0.8799 0
M  V30 8 C 0.5161 -0.2412 -0.568 0 CFG=2
M  V30 9 C -0.7799 0.3849 -1.0445 0
M  V30 10 C 0.7223 -1.5831 -1.3153 0
M  V30 11 C -0.7653 1.2621 -2.1293 0
M  V30 12 C -2.0299 0.1096 -0.4789 0
M  V30 13 C 1.8713 -2.5051 -0.8225 0
M  V30 14 C -0.2429 -2.7857 -1.1189 0
M  V30 15 N -1.8603 1.8588 -2.6543 0
M  V30 16 C -3.1757 0.7108 -0.9948 0
M  V30 17 C 0.8213 -3.4802 -0.2525 0
M  V30 18 C -3.0418 1.5702 -2.0717 0
M  V30 19 O 0.5874 -3.4246 1.169 0
M  V30 20 O -4.2068 2.139 -2.5473 0
M  V30 21 C -3.9876 3.0194 -3.6445 0
M  V30 22 H 2.308 -0.9995 3.0694 0
M  V30 23 H 2.026 -0.3041 4.6671 0
M  V30 24 H 3.334 0.4146 1.3785 0
M  V30 25 H 3.7629 2.0655 1.8351 0
M  V30 26 H -0.1288 -0.4432 3.4054 0
M  V30 27 H 0.3086 1.2138 3.815 0
M  V30 28 H 1.7121 2.1118 0.4233 0
M  V30 29 H 1.4119 2.7164 2.0432 0
M  V30 30 H -0.4335 1.2706 1.5575 0
M  V30 31 H 0.034 -1.1647 1.2109 0
M  V30 32 H 1.3442 0.4054 -0.8832 0
M  V30 33 H 0.8445 -1.3548 -2.3861 0
M  V30 34 H 0.165 1.5206 -2.6297 0
M  V30 35 H -2.1228 -0.5649 0.3674 0
M  V30 36 H 2.4642 -2.9373 -1.6376 0
M  V30 37 H 2.5647 -2.0765 -0.0929 0
M  V30 38 H -0.4644 -3.325 -2.0476 0
M  V30 39 H -1.1883 -2.5853 -0.61 0
M  V30 40 H -4.152 0.5143 -0.5667 0
M  V30 41 H 1.0107 -4.5185 -0.5492 0
M  V30 42 H -0.0338 -4.1517 1.3476 0
M  V30 43 H -3.5669 2.4859 -4.504 0
M  V30 44 H -4.9591 3.4222 -3.9472 0
M  V30 45 H -3.3532 3.8647 -3.3556 0
M  V30 END ATOM
M  V30 BEGIN BOND
M  V30 1 1 1 2
M  V30 2 1 1 3
M  V30 3 1 2 4
M  V30 4 1 3 5
M  V30 5 1 4 6
M  V30 6 1 6 7
M  V30 7 1 7 8
M  V30 8 1 8 9
M  V30 9 1 8 10
M  V30 10 2 9 11
M  V30 11 1 9 12
M  V30 12 1 10 13
M  V30 13 1 10 14
M  V30 14 1 11 15
M  V30 15 2 12 16
M  V30 16 1 13 17
M  V30 17 2 15 18
M  V30 18 1 17 19
M  V30 19 1 18 20
M  V30 20 1 20 21
M  V30 21 1 5 6
M  V30 22 1 14 17
M  V30 23 1 16 18
M  V30 24 1 2 22
M  V30 25 1 2 23
M  V30 26 1 3 24
M  V30 27 1 3 25
M  V30 28 1 4 26
M  V30 29 1 4 27
M  V30 30 1 5 28
M  V30 31 1 5 29
M  V30 32 1 6 30
M  V30 33 1 7 31
M  V30 34 1 8 32
M  V30 35 1 10 33
M  V30 36 1 11 34
M  V30 37 1 12 35
M  V30 38 1 13 36
M  V30 39 1 13 37
M  V30 40 1 14 38
M  V30 41 1 14 39
M  V30 42 1 16 40
M  V30 43 1 17 41
M  V30 44 1 19 42
M  V30 45 1 21 43
M  V30 46 1 21 44
M  V30 47 1 21 45
M  V30 END BOND
M  V30 BEGIN COLLECTION
M  V30 MDLV30/STEABS ATOMS=(1 8)
M  V30 END COLLECTION
M  V30 END CTAB
M  END
>  <NO.>
3966

>  <Name>
phencyclidine

>  <SMILES>
COc1ccc([C@@H](NC2CCOCC2)C2CC(O)C2)cn1

>  <logBB>


>  <Class>
1

>  <MW>
292.18

>  <nHBAcc>
5

>  <nHBDon>
2

>  <SLogP>
1.67

>  <TopoPSA>
63.61

>  <MMFF94 Energy>
21.934

$$$$
COc1ccc([C@@H](Nc2ncccc2C(N)=O)C2CC(O)C2)cc1F
Actelion Java MolfileCreator 2.0

  0  0  0  0  0  0              0 V3000
M  V30 BEGIN CTAB
M  V30 COUNTS 45 47 0 0 0
M  V30 BEGIN ATOM
M  V30 1 F 0.6375 3.9897 1.6742 0
M  V30 2 C -0.2064 3.0143 1.3017 0
M  V30 3 C -1.5527 3.3062 1.0644 0
M  V30 4 C 0.2951 1.7212 1.1644 0
M  V30 5 O -1.9197 4.6137 1.2371 0
M  V30 6 C -2.401 2.2682 0.6781 0
M  V30 7 C -0.5522 0.6717 0.7823 0
M  V30 8 C -3.2801 4.9422 0.9907 0
M  V30 9 C -1.9038 0.9656 0.538 0
M  V30 10 C -0.0523 -0.759 0.6258 0 CFG=1
M  V30 11 N 1.077 -0.7984 -0.2881 0
M  V30 12 C 0.3892 -1.2957 2.0024 0
M  V30 13 C 0.9039 -0.8013 -1.6637 0
M  V30 14 C -0.7135 -1.5318 3.0709 0
M  V30 15 C 0.6584 -2.8238 2.0525 0
M  V30 16 N -0.3537 -0.9432 -2.1503 0
M  V30 17 C 2.0079 -0.7409 -2.5322 0
M  V30 18 C -0.746 -3.0163 2.6589 0
M  V30 19 C -0.5344 -0.9777 -3.4879 0
M  V30 20 C 3.3857 -0.5983 -1.9907 0
M  V30 21 C 1.7895 -0.7705 -3.9173 0
M  V30 22 O -1.7921 -3.3792 1.7383 0
M  V30 23 C 0.4944 -0.8917 -4.4044 0
M  V30 24 O 3.6121 -0.0567 -0.9139 0
M  V30 25 N 4.4145 -1.1164 -2.731 0
M  V30 26 H 1.351 1.5521 1.3525 0
M  V30 27 H -3.4536 2.4324 0.4742 0
M  V30 28 H -3.5519 4.7448 -0.0514 0
M  V30 29 H -3.4028 6.0149 1.1687 0
M  V30 30 H -3.9455 4.4126 1.6806 0
M  V30 31 H -2.5815 0.1718 0.2258 0
M  V30 32 H -0.8623 -1.3952 0.2487 0
M  V30 33 H 1.9513 -0.3764 0.0252 0
M  V30 34 H 1.2371 -0.7222 2.4031 0
M  V30 35 H -1.6512 -0.9862 2.9355 0
M  V30 36 H -0.3694 -1.3741 4.1001 0
M  V30 37 H 0.8295 -3.318 1.0918 0
M  V30 38 H 1.4687 -3.1065 2.7351 0
M  V30 39 H -0.7591 -3.702 3.5133 0
M  V30 40 H -1.5674 -1.0759 -3.8096 0
M  V30 41 H 2.61 -0.6702 -4.62 0
M  V30 42 H -1.5481 -4.2645 1.4174 0
M  V30 43 H 0.2913 -0.9105 -5.4691 0
M  V30 44 H 4.293 -1.6569 -3.5741 0
M  V30 45 H 5.3483 -1.0201 -2.3528 0
M  V30 END ATOM
M  V30 BEGIN BOND
M  V30 1 1 1 2
M  V30 2 2 2 3
M  V30 3 1 2 4
M  V30 4 1 3 5
M  V30 5 1 3 6
M  V30 6 2 4 7
M  V30 7 1 5 8
M  V30 8 2 6 9
M  V30 9 1 7 10
M  V30 10 1 10 11
M  V30 11 1 10 12
M  V30 12 1 11 13
M  V30 13 1 12 14
M  V30 14 1 12 15
M  V30 15 2 13 16
M  V30 16 1 13 17
M  V30 17 1 14 18
M  V30 18 1 16 19
M  V30 19 1 17 20
M  V30 20 2 17 21
M  V30 21 1 18 22
M  V30 22 2 19 23
M  V30 23 2 20 24
M  V30 24 1 20 25
M  V30 25 1 7 9
M  V30 26 1 15 18
M  V30 27 1 21 23
M  V30 28 1 4 26
M  V30 29 1 6 27
M  V30 30 1 8 28
M  V30 31 1 8 29
M  V30 32 1 8 30
M  V30 33 1 9 31
M  V30 34 1 10 32
M  V30 35 1 11 33
M  V30 36 1 12 34
M  V30 37 1 14 35
M  V30 38 1 14 36
M  V30 39 1 15 37
M  V30 40 1 15 38
M  V30 41 1 18 39
M  V30 42 1 19 40
M  V30 43 1 21 41
M  V30 44 1 22 42
M  V30 45 1 23 43
M  V30 46 1 25 44
M  V30 47 1 25 45
M  V30 END BOND
M  V30 BEGIN COLLECTION
M  V30 MDLV30/STEABS ATOMS=(1 10)
M  V30 END COLLECTION
M  V30 END CTAB
M  END
>  <NO.>
3967

>  <Name>
hydrochlorothiazide

>  <SMILES>
COc1ccc([C@@H](Nc2ncccc2C(N)=O)C2CC(O)C2)cc1F

>  <logBB>


>  <Class>
-1

>  <MW>
345.15

>  <nHBAcc>
5

>  <nHBDon>
3

>  <SLogP>
2.25

>  <TopoPSA>
97.47

>  <MMFF94 Energy>
33.102

$$$$
COc1ccc([C@@H]2CC(=O)Oc3c(C(C)=O)c(O)c4c(C)cc(=O)oc4c32)cc1OCC(N)=O
Actelion Java MolfileCreator 2.0

  0  0  0  0  0  0              0 V3000
M  V30 BEGIN CTAB
M  V30 COUNTS 55 58 0 0 0
M  V30 BEGIN ATOM
M  V30 1 O -4.033 0.4027 -0.5638 0
M  V30 2 C -3.2888 0.3765 0.4076 0
M  V30 3 O -2.0102 0.8929 0.3711 0
M  V30 4 C -3.7134 -0.198 1.6861 0
M  V30 5 C -1.1277 0.8188 1.4737 0
M  V30 6 C -2.9242 -0.2683 2.7699 0
M  V30 7 C -1.5378 0.2504 2.6896 0
M  V30 8 C 0.1641 1.3307 1.2555 0
M  V30 9 C -3.4652 -0.8735 4.0345 0
M  V30 10 C -0.5807 0.214 3.7254 0
M  V30 11 C 1.0773 1.2747 2.3055 0
M  V30 12 C 0.5833 1.8943 -0.0815 0 CFG=2
M  V30 13 O -0.9354 -0.3514 4.9286 0
M  V30 14 C 0.7216 0.7421 3.5517 0
M  V30 15 O 2.4122 1.6735 2.0856 0
M  V30 16 C 0.8561 0.816 -1.123 0
M  V30 17 C 1.7274 2.8888 0.0835 0
M  V30 18 C 1.6734 0.6956 4.7 0
M  V30 19 C 2.8273 2.3672 0.9561 0
M  V30 20 C 0.0329 0.7405 -2.2569 0
M  V30 21 C 1.885 -0.1288 -0.9907 0
M  V30 22 O 1.5345 -0.2019 5.5334 0
M  V30 23 C 2.7369 1.7493 4.8567 0
M  V30 24 O 4.0135 2.5973 0.7529 0
M  V30 25 C 0.2338 -0.2559 -3.2149 0
M  V30 26 C 2.0969 -1.1117 -1.9691 0
M  V30 27 O -0.5776 -0.2852 -4.3194 0
M  V30 28 C 1.2777 -1.1805 -3.0958 0
M  V30 29 C -1.8403 -0.8875 -4.0122 0
M  V30 30 O 1.3895 -2.1019 -4.1047 0
M  V30 31 C -2.2276 -1.864 -5.1184 0
M  V30 32 C 2.511 -2.9759 -4.0567 0
M  V30 33 O -3.3866 -2.09 -5.452 0
M  V30 34 N -1.1872 -2.5416 -5.688 0
M  V30 35 H -4.7326 -0.5694 1.6924 0
M  V30 36 H -2.9027 -1.7705 4.3128 0
M  V30 37 H -4.5108 -1.184 3.9225 0
M  V30 38 H -3.4428 -0.1509 4.8568 0
M  V30 39 H -0.255 2.5045 -0.4486 0
M  V30 40 H -0.1232 -0.526 5.4577 0
M  V30 41 H 2.1474 3.1599 -0.8921 0
M  V30 42 H 1.3669 3.8119 0.5558 0
M  V30 43 H -0.778 1.4512 -2.4038 0
M  V30 44 H 2.5432 -0.1312 -0.1252 0
M  V30 45 H 2.4051 2.7095 4.4531 0
M  V30 46 H 2.9275 1.9003 5.924 0
M  V30 47 H 3.6607 1.4227 4.3738 0
M  V30 48 H 2.911 -1.8122 -1.8117 0
M  V30 49 H -2.5959 -0.0962 -3.966 0
M  V30 50 H -1.8372 -1.4455 -3.0664 0
M  V30 51 H 3.4518 -2.4157 -4.0663 0
M  V30 52 H 2.4857 -3.5995 -4.9555 0
M  V30 53 H 2.4532 -3.6411 -3.189 0
M  V30 54 H -1.3735 -3.2087 -6.4217 0
M  V30 55 H -0.2301 -2.3314 -5.4171 0
M  V30 END ATOM
M  V30 BEGIN BOND
M  V30 1 2 1 2
M  V30 2 1 2 3
M  V30 3 1 2 4
M  V30 4 1 3 5
M  V30 5 2 4 6
M  V30 6 2 5 7
M  V30 7 1 5 8
M  V30 8 1 6 9
M  V30 9 1 7 10
M  V30 10 2 8 11
M  V30 11 1 8 12
M  V30 12 1 10 13
M  V30 13 2 10 14
M  V30 14 1 11 15
M  V30 15 1 12 16
M  V30 16 1 12 17
M  V30 17 1 14 18
M  V30 18 1 15 19
M  V30 19 2 16 20
M  V30 20 1 16 21
M  V30 21 2 18 22
M  V30 22 1 18 23
M  V30 23 2 19 24
M  V30 24 1 20 25
M  V30 25 2 21 26
M  V30 26 1 25 27
M  V30 27 2 25 28
M  V30 28 1 27 29
M  V30 29 1 28 30
M  V30 30 1 29 31
M  V30 31 1 30 32
M  V30 32 2 31 33
M  V30 33 1 31 34
M  V30 34 1 6 7
M  V30 35 1 11 14
M  V30 36 1 17 19
M  V30 37 1 26 28
M  V30 38 1 4 35
M  V30 39 1 9 36
M  V30 40 1 9 37
M  V30 41 1 9 38
M  V30 42 1 12 39
M  V30 43 1 13 40
M  V30 44 1 17 41
M  V30 45 1 17 42
M  V30 46 1 20 43
M  V30 47 1 21 44
M  V30 48 1 23 45
M  V30 49 1 23 46
M  V30 50 1 23 47
M  V30 51 1 26 48
M  V30 52 1 29 49
M  V30 53 1 29 50
M  V30 54 1 32 51
M  V30 55 1 32 52
M  V30 56 1 32 53
M  V30 57 1 34 54
M  V30 58 1 34 55
M  V30 END BOND
M  V30 BEGIN COLLECTION
M  V30 MDLV30/STEABS ATOMS=(1 12)
M  V30 END COLLECTION
M  V30 END CTAB
M  END
>  <NO.>
3968

>  <Name>
s-etodolac

>  <SMILES>
COc1ccc([C@@H]2CC(=O)Oc3c(C(C)=O)c(O)c4c(C)cc(=O)oc4c32)cc1OCC(N)=O

>  <logBB>


>  <Class>
-1

>  <MW>
467.12

>  <nHBAcc>
9

>  <nHBDon>
2

>  <SLogP>
2.32

>  <TopoPSA>
155.36

>  <MMFF94 Energy>
101.14

$$$$
COc1ccc([C@@H]2CC(=O)Oc3ccc4c(c32)O/C(=C/c2cc(OC)c(OC)cc2OC)C4=O)cc1
Actelion Java MolfileCreator 2.0

  0  0  0  0  0  0              0 V3000
M  V30 BEGIN CTAB
M  V30 COUNTS 60 64 0 0 0
M  V30 BEGIN ATOM
M  V30 1 O 0.4826 -6.5313 -3.1406 0
M  V30 2 C 0.5727 -5.6293 -2.314 0
M  V30 3 O -0.4028 -5.4395 -1.3433 0
M  V30 4 C 1.7795 -4.7391 -2.2089 0
M  V30 5 C -0.4005 -4.3078 -0.5044 0
M  V30 6 C 1.4277 -3.2876 -1.8946 0 CFG=2
M  V30 7 C 0.4586 -3.2344 -0.7518 0
M  V30 8 C -1.3375 -4.3023 0.5458 0
M  V30 9 C 0.9723 -2.5071 -3.12 0
M  V30 10 C 0.3424 -2.1462 0.0945 0
M  V30 11 C -1.4319 -3.1954 1.3907 0
M  V30 12 C 1.8104 -1.5166 -3.6535 0
M  V30 13 C -0.2593 -2.7397 -3.7508 0
M  V30 14 O 1.0848 -0.9905 0.026 0
M  V30 15 C -0.5813 -2.1359 1.1368 0
M  V30 16 C 1.4261 -0.7865 -4.7813 0
M  V30 17 C -0.6405 -2.0068 -4.8824 0
M  V30 18 C 0.6334 -0.1708 1.0663 0
M  V30 19 C -0.45 -0.8599 1.8287 0
M  V30 20 C 0.2014 -1.0269 -5.4033 0
M  V30 21 C 1.1419 1.0517 1.2641 0
M  V30 22 O -1.0913 -0.5014 2.7915 0
M  V30 23 O -0.0497 -0.2448 -6.4961 0
M  V30 24 C 0.74 2.0107 2.3027 0
M  V30 25 C -1.2785 -0.4675 -7.1763 0
M  V30 26 C 0.2268 3.2766 1.9539 0
M  V30 27 C 0.9094 1.6857 3.652 0
M  V30 28 O 0.1161 3.5273 0.607 0
M  V30 29 C -0.1211 4.1912 2.9612 0
M  V30 30 C 0.5301 2.5915 4.6416 0
M  V30 31 C -0.541 4.7232 0.2101 0
M  V30 32 C 0.0306 3.858 4.3122 0
M  V30 33 O 0.7237 2.2231 5.9505 0
M  V30 34 O -0.2765 4.6781 5.3666 0
M  V30 35 C -0.4785 1.6512 6.468 0
M  V30 36 C -0.7054 5.9993 5.0703 0
M  V30 37 H 2.4089 -5.161 -1.4146 0
M  V30 38 H 2.3472 -4.8041 -3.1447 0
M  V30 39 H 2.3626 -2.8306 -1.5385 0
M  V30 40 H -1.9937 -5.1573 0.6932 0
M  V30 41 H -2.1452 -3.1588 2.2078 0
M  V30 42 H 2.7733 -1.2969 -3.1968 0
M  V30 43 H -0.9523 -3.4891 -3.3758 0
M  V30 44 H 2.0892 -0.0219 -5.1789 0
M  V30 45 H -1.604 -2.2284 -5.3295 0
M  V30 46 H 1.9028 1.4218 0.5811 0
M  V30 47 H -1.3304 -1.486 -7.5751 0
M  V30 48 H -1.3217 0.2239 -8.0233 0
M  V30 49 H -2.1336 -0.2522 -6.527 0
M  V30 50 H 1.3187 0.7235 3.9464 0
M  V30 51 H -0.5065 5.165 2.6917 0
M  V30 52 H -1.5604 4.7678 0.6077 0
M  V30 53 H -0.6105 4.7193 -0.8818 0
M  V30 54 H 0.0384 5.6047 0.5026 0
M  V30 55 H -1.2998 2.3759 6.4712 0
M  V30 56 H -0.2876 1.3539 7.5036 0
M  V30 57 H -0.7642 0.7546 5.9066 0
M  V30 58 H 0.0607 6.5498 4.5146 0
M  V30 59 H -0.8657 6.5198 6.0194 0
M  V30 60 H -1.6582 5.992 4.5309 0
M  V30 END ATOM
M  V30 BEGIN BOND
M  V30 1 2 1 2
M  V30 2 1 2 3
M  V30 3 1 2 4
M  V30 4 1 3 5
M  V30 5 1 4 6
M  V30 6 2 5 7
M  V30 7 1 5 8
M  V30 8 1 6 9
M  V30 9 1 7 10
M  V30 10 2 8 11
M  V30 11 2 9 12
M  V30 12 1 9 13
M  V30 13 1 10 14
M  V30 14 2 10 15
M  V30 15 1 12 16
M  V30 16 2 13 17
M  V30 17 1 14 18
M  V30 18 1 15 19
M  V30 19 2 16 20
M  V30 20 2 18 21
M  V30 21 2 19 22
M  V30 22 1 20 23
M  V30 23 1 21 24
M  V30 24 1 23 25
M  V30 25 2 24 26
M  V30 26 1 24 27
M  V30 27 1 26 28
M  V30 28 1 26 29
M  V30 29 2 27 30
M  V30 30 1 28 31
M  V30 31 2 29 32
M  V30 32 1 30 33
M  V30 33 1 32 34
M  V30 34 1 33 35
M  V30 35 1 34 36
M  V30 36 1 6 7
M  V30 37 1 11 15
M  V30 38 1 17 20
M  V30 39 1 18 19
M  V30 40 1 30 32
M  V30 41 1 4 37
M  V30 42 1 4 38
M  V30 43 1 6 39
M  V30 44 1 8 40
M  V30 45 1 11 41
M  V30 46 1 12 42
M  V30 47 1 13 43
M  V30 48 1 16 44
M  V30 49 1 17 45
M  V30 50 1 21 46
M  V30 51 1 25 47
M  V30 52 1 25 48
M  V30 53 1 25 49
M  V30 54 1 27 50
M  V30 55 1 29 51
M  V30 56 1 31 52
M  V30 57 1 31 53
M  V30 58 1 31 54
M  V30 59 1 35 55
M  V30 60 1 35 56
M  V30 61 1 35 57
M  V30 62 1 36 58
M  V30 63 1 36 59
M  V30 64 1 36 60
M  V30 END BOND
M  V30 BEGIN COLLECTION
M  V30 MDLV30/STEABS ATOMS=(1 6)
M  V30 END COLLECTION
M  V30 END CTAB
M  END
>  <NO.>
3969

>  <Name>
chlorambucil

>  <SMILES>
COc1ccc([C@@H]2CC(=O)Oc3ccc4c(c32)O/C(=C/c2cc(OC)c(OC)cc2OC)C4=O)cc1

>  <logBB>


>  <Class>
-1

>  <MW>
488.15

>  <nHBAcc>
8

>  <nHBDon>
0

>  <SLogP>
4.78

>  <TopoPSA>
89.52

>  <MMFF94 Energy>
125.87

$$$$
COc1ccc([C@@H]2[C@@H](C(=O)O)[C@@H]2S(=O)(=O)c2ccc(C)cc2)cc1
Actelion Java MolfileCreator 2.0

  0  0  0  0  0  0              0 V3000
M  V30 BEGIN CTAB
M  V30 COUNTS 42 44 0 0 0
M  V30 BEGIN ATOM
M  V30 1 S -0.9742 -0.1623 -0.3246 0
M  V30 2 O -0.553 1.1586 0.0959 0
M  V30 3 O -2.0785 -0.8551 0.3091 0
M  V30 4 C -1.3333 -0.0632 -2.0635 0
M  V30 5 C 0.4275 -1.2942 -0.287 0 CFG=2
M  V30 6 C -0.638 0.8543 -2.8544 0
M  V30 7 C -2.3196 -0.8816 -2.617 0
M  V30 8 C 1.2855 -1.366 0.9461 0 CFG=1
M  V30 9 C 1.7633 -0.5891 -0.2703 0 CFG=1
M  V30 10 C -0.9168 0.9327 -4.2195 0
M  V30 11 C -2.5924 -0.7973 -3.9831 0
M  V30 12 C 0.9561 -0.6778 2.2485 0
M  V30 13 C 2.8414 -1.1227 -1.116 0
M  V30 14 C -1.8838 0.0979 -4.7963 0
M  V30 15 C 1.7179 0.3955 2.7381 0
M  V30 16 C -0.1759 -1.044 2.9919 0
M  V30 17 O 3.0107 -2.3051 -1.3577 0
M  V30 18 O 3.6353 -0.1658 -1.6263 0
M  V30 19 C -2.208 0.2119 -6.2573 0
M  V30 20 C 1.3823 1.0592 3.9264 0
M  V30 21 C -0.515 -0.3858 4.1785 0
M  V30 22 C 0.2611 0.6693 4.6532 0
M  V30 23 O -0.177 1.2258 5.8223 0
M  V30 24 C 0.5369 2.3584 6.3 0
M  V30 25 H 0.3122 -2.2051 -0.8589 0
M  V30 26 H 0.1074 1.5163 -2.4195 0
M  V30 27 H -2.883 -1.5773 -1.999 0
M  V30 28 H 1.7696 -2.3322 1.0994 0
M  V30 29 H 1.7771 0.4925 -0.1835 0
M  V30 30 H -0.3808 1.6552 -4.8318 0
M  V30 31 H -3.3671 -1.4309 -4.4106 0
M  V30 32 H 2.5971 0.7289 2.191 0
M  V30 33 H -0.816 -1.8535 2.6454 0
M  V30 34 H 4.2981 -0.6573 -2.1551 0
M  V30 35 H -2.9975 0.9544 -6.4083 0
M  V30 36 H -1.3247 0.5119 -6.8307 0
M  V30 37 H -2.5441 -0.7497 -6.6586 0
M  V30 38 H 2.0171 1.8772 4.2487 0
M  V30 39 H -1.4004 -0.6948 4.7286 0
M  V30 40 H 1.5681 2.0944 6.5564 0
M  V30 41 H 0.0447 2.7025 7.2149 0
M  V30 42 H 0.5067 3.1801 5.5768 0
M  V30 END ATOM
M  V30 BEGIN BOND
M  V30 1 2 1 2
M  V30 2 2 1 3
M  V30 3 1 1 4
M  V30 4 1 1 5
M  V30 5 2 4 6
M  V30 6 1 4 7
M  V30 7 1 5 8
M  V30 8 1 5 9
M  V30 9 1 6 10
M  V30 10 2 7 11
M  V30 11 1 8 12
M  V30 12 1 9 13
M  V30 13 2 10 14
M  V30 14 2 12 15
M  V30 15 1 12 16
M  V30 16 2 13 17
M  V30 17 1 13 18
M  V30 18 1 14 19
M  V30 19 1 15 20
M  V30 20 2 16 21
M  V30 21 2 20 22
M  V30 22 1 22 23
M  V30 23 1 23 24
M  V30 24 1 8 9
M  V30 25 1 11 14
M  V30 26 1 21 22
M  V30 27 1 5 25
M  V30 28 1 6 26
M  V30 29 1 7 27
M  V30 30 1 8 28
M  V30 31 1 9 29
M  V30 32 1 10 30
M  V30 33 1 11 31
M  V30 34 1 15 32
M  V30 35 1 16 33
M  V30 36 1 18 34
M  V30 37 1 19 35
M  V30 38 1 19 36
M  V30 39 1 19 37
M  V30 40 1 20 38
M  V30 41 1 21 39
M  V30 42 1 24 40
M  V30 43 1 24 41
M  V30 44 1 24 42
M  V30 END BOND
M  V30 BEGIN COLLECTION
M  V30 MDLV30/STEABS ATOMS=(3 5 8 9)
M  V30 END COLLECTION
M  V30 END CTAB
M  END
>  <NO.>
3970

>  <Name>
nevirapine

>  <SMILES>
COc1ccc([C@@H]2[C@@H](C(=O)O)[C@@H]2S(=O)(=O)c2ccc(C)cc2)cc1

>  <logBB>


>  <Class>
1

>  <MW>
346.09

>  <nHBAcc>
4

>  <nHBDon>
1

>  <SLogP>
2.64

>  <TopoPSA>
80.67

>  <MMFF94 Energy>
26.181

$$$$
COc1ccc([C@@H]2[C@@H](N)[C@@H]2S(=O)(=O)c2ccc(Cl)cc2)cc1
Actelion Java MolfileCreator 2.0

  0  0  0  0  0  0              0 V3000
M  V30 BEGIN CTAB
M  V30 COUNTS 38 40 0 0 0
M  V30 BEGIN ATOM
M  V30 1 Cl -2.4661 -0.7393 6.9993 0
M  V30 2 C -2.0513 -0.6706 5.3312 0
M  V30 3 C -0.7078 -0.6423 4.9536 0
M  V30 4 C -3.0609 -0.648 4.3675 0
M  V30 5 C -0.3672 -0.5853 3.6007 0
M  V30 6 C -2.7278 -0.5915 3.0125 0
M  V30 7 C -1.3812 -0.5485 2.6378 0
M  V30 8 S -0.9459 -0.4896 0.9104 0
M  V30 9 O 0.3516 -1.1232 0.7866 0
M  V30 10 O -2.1014 -0.951 0.1662 0
M  V30 11 C -0.8027 1.2839 0.6091 0 CFG=1
M  V30 12 C 0.6043 1.8054 0.6778 0 CFG=1
M  V30 13 C -0.1201 1.7409 -0.654 0 CFG=1
M  V30 14 N 0.8488 3.1273 1.2777 0
M  V30 15 C 0.3274 0.8186 -1.7628 0
M  V30 16 C -0.6085 0.1187 -2.5394 0
M  V30 17 C 1.6842 0.5739 -2.0304 0
M  V30 18 C -0.2079 -0.7663 -3.5455 0
M  V30 19 C 2.0916 -0.3124 -3.0371 0
M  V30 20 C 1.1437 -0.9879 -3.8004 0
M  V30 21 O 1.4014 -1.874 -4.8088 0
M  V30 22 C 2.7661 -2.1901 -5.0511 0
M  V30 23 H 0.0752 -0.6726 5.7073 0
M  V30 24 H -4.1063 -0.6809 4.6653 0
M  V30 25 H 0.6807 -0.5801 3.309 0
M  V30 26 H -3.518 -0.5876 2.2643 0
M  V30 27 H -1.6117 1.8959 0.9821 0
M  V30 28 H 1.415 1.0977 0.8348 0
M  V30 29 H -0.481 2.6983 -1.0325 0
M  V30 30 H 1.6008 3.6097 0.7821 0
M  V30 31 H 1.1708 3.0389 2.2426 0
M  V30 32 H -1.6736 0.2552 -2.3602 0
M  V30 33 H 2.4494 1.0838 -1.4494 0
M  V30 34 H -0.9606 -1.2938 -4.1261 0
M  V30 35 H 3.1558 -0.4512 -3.1923 0
M  V30 36 H 3.321 -1.3078 -5.3866 0
M  V30 37 H 2.7998 -2.9302 -5.8563 0
M  V30 38 H 3.232 -2.6383 -4.1671 0
M  V30 END ATOM
M  V30 BEGIN BOND
M  V30 1 1 1 2
M  V30 2 2 2 3
M  V30 3 1 2 4
M  V30 4 1 3 5
M  V30 5 2 4 6
M  V30 6 2 5 7
M  V30 7 1 7 8
M  V30 8 2 8 9
M  V30 9 2 8 10
M  V30 10 1 8 11
M  V30 11 1 11 12
M  V30 12 1 11 13
M  V30 13 1 12 14
M  V30 14 1 13 15
M  V30 15 2 15 16
M  V30 16 1 15 17
M  V30 17 1 16 18
M  V30 18 2 17 19
M  V30 19 2 18 20
M  V30 20 1 20 21
M  V30 21 1 21 22
M  V30 22 1 6 7
M  V30 23 1 12 13
M  V30 24 1 19 20
M  V30 25 1 3 23
M  V30 26 1 4 24
M  V30 27 1 5 25
M  V30 28 1 6 26
M  V30 29 1 11 27
M  V30 30 1 12 28
M  V30 31 1 13 29
M  V30 32 1 14 30
M  V30 33 1 14 31
M  V30 34 1 16 32
M  V30 35 1 17 33
M  V30 36 1 18 34
M  V30 37 1 19 35
M  V30 38 1 22 36
M  V30 39 1 22 37
M  V30 40 1 22 38
M  V30 END BOND
M  V30 BEGIN COLLECTION
M  V30 MDLV30/STEABS ATOMS=(3 11 12 13)
M  V30 END COLLECTION
M  V30 END CTAB
M  END
>  <NO.>
3971

>  <Name>
protriptyline

>  <SMILES>
COc1ccc([C@@H]2[C@@H](N)[C@@H]2S(=O)(=O)c2ccc(Cl)cc2)cc1

>  <logBB>


>  <Class>
1

>  <MW>
337.05

>  <nHBAcc>
4

>  <nHBDon>
1

>  <SLogP>
2.62

>  <TopoPSA>
69.39

>  <MMFF94 Energy>
73.28

$$$$
COc1ccc([C@@H]2[C@@H](S(=O)(=O)c3ccc(Cl)cc3)C2(CN)CN)cc1
Actelion Java MolfileCreator 2.0

  0  0  0  0  0  0              0 V3000
M  V30 BEGIN CTAB
M  V30 COUNTS 46 48 0 0 0
M  V30 BEGIN ATOM
M  V30 1 Cl 1.1381 1.3007 -7.17 0
M  V30 2 C 0.321 0.8518 -5.7237 0
M  V30 3 C -0.9108 1.4311 -5.4173 0
M  V30 4 C 0.8966 -0.0885 -4.868 0
M  V30 5 C -1.5725 1.0729 -4.2411 0
M  V30 6 C 0.239 -0.4524 -3.6908 0
M  V30 7 C -0.9903 0.1366 -3.3797 0
M  V30 8 S -1.8286 -0.3065 -1.8805 0
M  V30 9 O -2.7907 0.7343 -1.5702 0
M  V30 10 O -2.2699 -1.6772 -2.0599 0
M  V30 11 C -0.5811 -0.3726 -0.5851 0 CFG=1
M  V30 12 C -0.0122 0.9101 0.0023 0
M  V30 13 C -1.0524 0.0732 0.7721 0 CFG=2
M  V30 14 C 1.4679 0.8292 0.3444 0
M  V30 15 C -0.4782 2.3036 -0.3686 0
M  V30 16 C -0.6961 -0.6902 2.0274 0
M  V30 17 N 2.2133 0.5258 -0.8749 0
M  V30 18 N 0.0806 2.7029 -1.6523 0
M  V30 19 C -0.6806 -2.092 2.065 0
M  V30 20 C -0.289 -0.0143 3.1901 0
M  V30 21 C -0.2969 -2.7839 3.2184 0
M  V30 22 C 0.0953 -0.7029 4.3484 0
M  V30 23 C 0.0915 -2.0949 4.3665 0
M  V30 24 O 0.4423 -2.8893 5.4219 0
M  V30 25 C 0.813 -2.2317 6.6268 0
M  V30 26 H -1.3591 2.1598 -6.0876 0
M  V30 27 H 1.8542 -0.5413 -5.1116 0
M  V30 28 H -2.5323 1.5254 -4.0018 0
M  V30 29 H 0.6929 -1.1889 -3.0328 0
M  V30 30 H 0.07 -1.2351 -0.6411 0
M  V30 31 H -2.0625 0.4816 0.8179 0
M  V30 32 H 1.8186 1.7738 0.7746 0
M  V30 33 H 1.6856 0.0429 1.072 0
M  V30 34 H -1.567 2.385 -0.4033 0
M  V30 35 H -0.1641 3.017 0.403 0
M  V30 36 H 1.9461 1.2005 -1.5952 0
M  V30 37 H 3.2081 0.6587 -0.7026 0
M  V30 38 H 0.9731 3.1702 -1.4956 0
M  V30 39 H -0.5216 3.4224 -2.0567 0
M  V30 40 H -0.9819 -2.6638 1.1893 0
M  V30 41 H -0.2761 1.0738 3.1991 0
M  V30 42 H -0.3032 -3.8713 3.2184 0
M  V30 43 H 0.3919 -0.1198 5.2135 0
M  V30 44 H 1.7125 -1.624 6.4835 0
M  V30 45 H 1.046 -3.0008 7.3695 0
M  V30 46 H -0.0131 -1.6294 7.0191 0
M  V30 END ATOM
M  V30 BEGIN BOND
M  V30 1 1 1 2
M  V30 2 2 2 3
M  V30 3 1 2 4
M  V30 4 1 3 5
M  V30 5 2 4 6
M  V30 6 2 5 7
M  V30 7 1 7 8
M  V30 8 2 8 9
M  V30 9 2 8 10
M  V30 10 1 8 11
M  V30 11 1 11 12
M  V30 12 1 11 13
M  V30 13 1 12 14
M  V30 14 1 12 15
M  V30 15 1 13 16
M  V30 16 1 14 17
M  V30 17 1 15 18
M  V30 18 2 16 19
M  V30 19 1 16 20
M  V30 20 1 19 21
M  V30 21 2 20 22
M  V30 22 2 21 23
M  V30 23 1 23 24
M  V30 24 1 24 25
M  V30 25 1 6 7
M  V30 26 1 12 13
M  V30 27 1 22 23
M  V30 28 1 3 26
M  V30 29 1 4 27
M  V30 30 1 5 28
M  V30 31 1 6 29
M  V30 32 1 11 30
M  V30 33 1 13 31
M  V30 34 1 14 32
M  V30 35 1 14 33
M  V30 36 1 15 34
M  V30 37 1 15 35
M  V30 38 1 17 36
M  V30 39 1 17 37
M  V30 40 1 18 38
M  V30 41 1 18 39
M  V30 42 1 19 40
M  V30 43 1 20 41
M  V30 44 1 21 42
M  V30 45 1 22 43
M  V30 46 1 25 44
M  V30 47 1 25 45
M  V30 48 1 25 46
M  V30 END BOND
M  V30 BEGIN COLLECTION
M  V30 MDLV30/STEABS ATOMS=(2 11 13)
M  V30 END COLLECTION
M  V30 END CTAB
M  END
>  <NO.>
3972

>  <Name>
pentobarbital

>  <SMILES>
COc1ccc([C@@H]2[C@@H](S(=O)(=O)c3ccc(Cl)cc3)C2(CN)CN)cc1

>  <logBB>


>  <Class>
1

>  <MW>
380.1

>  <nHBAcc>
5

>  <nHBDon>
2

>  <SLogP>
2.19

>  <TopoPSA>
95.41

>  <MMFF94 Energy>
46.992

$$$$
COc1ccc([C@@H]2[C@@H](S(=O)(=O)c3ccccc3)[C@@]2(CO)C(=O)O)cc1
Actelion Java MolfileCreator 2.0

  0  0  0  0  0  0              0 V3000
M  V30 BEGIN CTAB
M  V30 COUNTS 43 45 0 0 0
M  V30 BEGIN ATOM
M  V30 1 S -0.9751 0.8938 -2.6833 0
M  V30 2 O -0.229 0.9788 -3.9217 0
M  V30 3 O -2.0247 1.8364 -2.359 0
M  V30 4 C -1.6795 -0.7344 -2.5853 0
M  V30 5 C 0.2593 0.8581 -1.3678 0 CFG=1
M  V30 6 C -1.237 -1.7382 -3.4503 0
M  V30 7 C -2.6824 -0.9882 -1.6447 0
M  V30 8 C 0.7365 2.1932 -0.8363 0 CFG=2
M  V30 9 C -0.2276 1.318 -0.0146 0 CFG=2
M  V30 10 C -1.7905 -3.0147 -3.3551 0
M  V30 11 C -3.2293 -2.2676 -1.5562 0
M  V30 12 C 0.2202 3.4526 -1.4407 0
M  V30 13 C 2.2139 2.2358 -0.511 0
M  V30 14 C 0.1954 0.5728 1.232 0
M  V30 15 C -2.7817 -3.279 -2.4078 0
M  V30 16 O 0.7334 3.9939 -2.4052 0
M  V30 17 O -0.8216 3.9967 -0.7844 0
M  V30 18 O 2.4513 3.2051 0.5016 0
M  V30 19 C 0.2118 -0.831 1.2886 0
M  V30 20 C 0.6699 1.2602 2.358 0
M  V30 21 C 0.6571 -1.5186 2.426 0
M  V30 22 C 1.1173 0.5795 3.4945 0
M  V30 23 C 1.1119 -0.8132 3.5367 0
M  V30 24 O 1.5745 -1.3547 4.703 0
M  V30 25 C 1.5544 -2.7725 4.8069 0
M  V30 26 H 0.9753 0.0514 -1.4354 0
M  V30 27 H -0.4734 -1.5377 -4.1988 0
M  V30 28 H -3.0462 -0.2008 -0.9878 0
M  V30 29 H -1.2528 1.6824 0.0491 0
M  V30 30 H -1.4564 -3.8036 -4.0251 0
M  V30 31 H -4.012 -2.4757 -0.8302 0
M  V30 32 H 2.7904 2.5125 -1.4005 0
M  V30 33 H 2.5922 1.2715 -0.1555 0
M  V30 34 H -3.2157 -4.2742 -2.3414 0
M  V30 35 H -1.0503 4.7855 -1.3172 0
M  V30 36 H 3.413 3.2339 0.6447 0
M  V30 37 H -0.14 -1.4131 0.4394 0
M  V30 38 H 0.692 2.3495 2.3539 0
M  V30 39 H 0.6349 -2.603 2.4071 0
M  V30 40 H 1.4736 1.1453 4.352 0
M  V30 41 H 0.5335 -3.1603 4.7271 0
M  V30 42 H 1.936 -3.0407 5.7968 0
M  V30 43 H 2.2116 -3.2315 4.0611 0
M  V30 END ATOM
M  V30 BEGIN BOND
M  V30 1 2 1 2
M  V30 2 2 1 3
M  V30 3 1 1 4
M  V30 4 1 1 5
M  V30 5 2 4 6
M  V30 6 1 4 7
M  V30 7 1 5 8
M  V30 8 1 5 9
M  V30 9 1 6 10
M  V30 10 2 7 11
M  V30 11 1 8 12
M  V30 12 1 8 13
M  V30 13 1 9 14
M  V30 14 2 10 15
M  V30 15 2 12 16
M  V30 16 1 12 17
M  V30 17 1 13 18
M  V30 18 2 14 19
M  V30 19 1 14 20
M  V30 20 1 19 21
M  V30 21 2 20 22
M  V30 22 2 21 23
M  V30 23 1 23 24
M  V30 24 1 24 25
M  V30 25 1 8 9
M  V30 26 1 11 15
M  V30 27 1 22 23
M  V30 28 1 5 26
M  V30 29 1 6 27
M  V30 30 1 7 28
M  V30 31 1 9 29
M  V30 32 1 10 30
M  V30 33 1 11 31
M  V30 34 1 13 32
M  V30 35 1 13 33
M  V30 36 1 15 34
M  V30 37 1 17 35
M  V30 38 1 18 36
M  V30 39 1 19 37
M  V30 40 1 20 38
M  V30 41 1 21 39
M  V30 42 1 22 40
M  V30 43 1 25 41
M  V30 44 1 25 42
M  V30 45 1 25 43
M  V30 END BOND
M  V30 BEGIN COLLECTION
M  V30 MDLV30/STEABS ATOMS=(3 5 8 9)
M  V30 END COLLECTION
M  V30 END CTAB
M  END
>  <NO.>
3973

>  <Name>
lomefloxacin

>  <SMILES>
COc1ccc([C@@H]2[C@@H](S(=O)(=O)c3ccccc3)[C@@]2(CO)C(=O)O)cc1

>  <logBB>


>  <Class>
-1

>  <MW>
362.08

>  <nHBAcc>
5

>  <nHBDon>
2

>  <SLogP>
1.7

>  <TopoPSA>
100.9

>  <MMFF94 Energy>
18.441

$$$$
COc1ccc([C@@H]2[C@@H](S(=O)(=O)c3ccccc3)[C@@]2(N)CN)cc1
Actelion Java MolfileCreator 2.0

  0  0  0  0  0  0              0 V3000
M  V30 BEGIN CTAB
M  V30 COUNTS 43 45 0 0 0
M  V30 BEGIN ATOM
M  V30 1 S -1.7765 0.0806 -1.9381 0
M  V30 2 O -2.5749 1.2219 -1.538 0
M  V30 3 O -2.3899 -1.2143 -2.1589 0
M  V30 4 C -0.9141 0.4989 -3.43 0
M  V30 5 C -0.477 -0.189 -0.7217 0 CFG=1
M  V30 6 C -1.1877 1.7052 -4.0799 0
M  V30 7 C 0.0362 -0.3907 -3.9397 0
M  V30 8 C 0.3423 0.9852 -0.222 0 CFG=1
M  V30 9 C -0.7648 0.3748 0.6462 0 CFG=2
M  V30 10 C -0.4891 2.0295 -5.2425 0
M  V30 11 C 0.7293 -0.0585 -5.1033 0
M  V30 12 N 1.7751 0.6316 0.0525 0
M  V30 13 C 0.1222 2.4253 -0.6856 0
M  V30 14 C -0.4512 -0.4152 1.8999 0
M  V30 15 C 0.4687 1.1504 -5.7509 0
M  V30 16 N 0.8324 3.341 0.2089 0
M  V30 17 C 0.1364 0.2035 3.0144 0
M  V30 18 C -0.6728 -1.7997 1.9826 0
M  V30 19 C 0.4701 -0.5237 4.1612 0
M  V30 20 C -0.3406 -2.5334 3.1298 0
M  V30 21 C 0.2333 -1.8959 4.2263 0
M  V30 22 O 0.6052 -2.4875 5.4011 0
M  V30 23 C 0.3643 -3.8839 5.5205 0
M  V30 24 H 0.0189 -1.1474 -0.7962 0
M  V30 25 H -1.9366 2.3937 -3.6937 0
M  V30 26 H 0.2334 -1.3414 -3.4501 0
M  V30 27 H -1.6702 0.9722 0.7513 0
M  V30 28 H -0.6936 2.9662 -5.7561 0
M  V30 29 H 1.4683 -0.7439 -5.5117 0
M  V30 30 H 2.0378 0.9169 0.9956 0
M  V30 31 H 2.4014 1.1127 -0.5924 0
M  V30 32 H -0.9283 2.7196 -0.6897 0
M  V30 33 H 0.5162 2.5495 -1.6988 0
M  V30 34 H 1.0082 1.4052 -6.6605 0
M  V30 35 H 1.8086 3.0642 0.269 0
M  V30 36 H 0.4467 3.2492 1.1472 0
M  V30 37 H 0.3312 1.273 2.9975 0
M  V30 38 H -1.1238 -2.3253 1.1427 0
M  V30 39 H 0.9176 -0.0144 5.0112 0
M  V30 40 H -0.5448 -3.5987 3.1278 0
M  V30 41 H -0.7053 -4.1078 5.4507 0
M  V30 42 H 0.706 -4.1985 6.5114 0
M  V30 43 H 0.9365 -4.4479 4.7765 0
M  V30 END ATOM
M  V30 BEGIN BOND
M  V30 1 2 1 2
M  V30 2 2 1 3
M  V30 3 1 1 4
M  V30 4 1 1 5
M  V30 5 2 4 6
M  V30 6 1 4 7
M  V30 7 1 5 8
M  V30 8 1 5 9
M  V30 9 1 6 10
M  V30 10 2 7 11
M  V30 11 1 8 12
M  V30 12 1 8 13
M  V30 13 1 9 14
M  V30 14 2 10 15
M  V30 15 1 13 16
M  V30 16 2 14 17
M  V30 17 1 14 18
M  V30 18 1 17 19
M  V30 19 2 18 20
M  V30 20 2 19 21
M  V30 21 1 21 22
M  V30 22 1 22 23
M  V30 23 1 8 9
M  V30 24 1 11 15
M  V30 25 1 20 21
M  V30 26 1 5 24
M  V30 27 1 6 25
M  V30 28 1 7 26
M  V30 29 1 9 27
M  V30 30 1 10 28
M  V30 31 1 11 29
M  V30 32 1 12 30
M  V30 33 1 12 31
M  V30 34 1 13 32
M  V30 35 1 13 33
M  V30 36 1 15 34
M  V30 37 1 16 35
M  V30 38 1 16 36
M  V30 39 1 17 37
M  V30 40 1 18 38
M  V30 41 1 19 39
M  V30 42 1 20 40
M  V30 43 1 23 41
M  V30 44 1 23 42
M  V30 45 1 23 43
M  V30 END BOND
M  V30 BEGIN COLLECTION
M  V30 MDLV30/STEABS ATOMS=(3 5 8 9)
M  V30 END COLLECTION
M  V30 END CTAB
M  END
>  <NO.>
3974

>  <Name>
labetalol

>  <SMILES>
COc1ccc([C@@H]2[C@@H](S(=O)(=O)c3ccccc3)[C@@]2(N)CN)cc1

>  <logBB>


>  <Class>
-1

>  <MW>
332.12

>  <nHBAcc>
5

>  <nHBDon>
2

>  <SLogP>
1.29

>  <TopoPSA>
95.41

>  <MMFF94 Energy>
74.231

$$$$
COc1ccc([C@@H]2[C@H](C(N)=S)[C@@H]2S(=O)(=O)c2ccc(Cl)cc2)cc1
Actelion Java MolfileCreator 2.0

  0  0  0  0  0  0              0 V3000
M  V30 BEGIN CTAB
M  V30 COUNTS 40 42 0 0 0
M  V30 BEGIN ATOM
M  V30 1 Cl -4.5569 2.1522 -5.3871 0
M  V30 2 C -3.638 1.7475 -3.9908 0
M  V30 3 C -2.3132 2.1728 -3.8868 0
M  V30 4 C -4.2258 0.9992 -2.9693 0
M  V30 5 C -1.5646 1.8427 -2.7554 0
M  V30 6 C -3.4827 0.6643 -1.8352 0
M  V30 7 C -2.1489 1.0759 -1.7417 0
M  V30 8 S -1.201 0.6481 -0.2947 0
M  V30 9 O 0.1613 1.0713 -0.5281 0
M  V30 10 O -1.9748 1.1545 0.8229 0
M  V30 11 C -1.2969 -1.1527 -0.1872 0 CFG=2
M  V30 12 C -0.2728 -1.8734 0.6449 0 CFG=1
M  V30 13 C -0.2485 -2.007 -0.8687 0 CFG=2
M  V30 14 C 0.8079 -1.2948 1.5284 0
M  V30 15 C 0.634 -1.4434 -1.9064 0
M  V30 16 C 2.0909 -1.8644 1.5606 0
M  V30 17 C 0.6041 -0.1959 2.3784 0
M  V30 18 S 2.2764 -1.6052 -1.8575 0
M  V30 19 N 0.0211 -0.9677 -3.028 0
M  V30 20 C 3.1174 -1.3462 2.3599 0
M  V30 21 C 1.6268 0.3335 3.1812 0
M  V30 22 C 2.8944 -0.2362 3.168 0
M  V30 23 O 3.9735 0.1752 3.8983 0
M  V30 24 C 3.8204 1.3798 4.6383 0
M  V30 25 H -1.8617 2.7677 -4.6773 0
M  V30 26 H -5.2652 0.688 -3.0467 0
M  V30 27 H -0.534 2.1852 -2.6726 0
M  V30 28 H -3.9579 0.1111 -1.0285 0
M  V30 29 H -2.3056 -1.5417 -0.1413 0
M  V30 30 H -0.6856 -2.7608 1.1362 0
M  V30 31 H -0.5977 -2.9893 -1.1953 0
M  V30 32 H 2.3071 -2.7446 0.959 0
M  V30 33 H -0.3775 0.2627 2.4591 0
M  V30 34 H -0.9762 -0.9798 -3.1886 0
M  V30 35 H 0.6101 -0.6274 -3.7811 0
M  V30 36 H 4.0982 -1.8141 2.3426 0
M  V30 37 H 1.3881 1.1873 3.8063 0
M  V30 38 H 3.566 2.2197 3.9831 0
M  V30 39 H 4.781 1.6059 5.1111 0
M  V30 40 H 3.0782 1.2601 5.4345 0
M  V30 END ATOM
M  V30 BEGIN BOND
M  V30 1 1 1 2
M  V30 2 2 2 3
M  V30 3 1 2 4
M  V30 4 1 3 5
M  V30 5 2 4 6
M  V30 6 2 5 7
M  V30 7 1 7 8
M  V30 8 2 8 9
M  V30 9 2 8 10
M  V30 10 1 8 11
M  V30 11 1 11 12
M  V30 12 1 11 13
M  V30 13 1 12 14
M  V30 14 1 13 15
M  V30 15 2 14 16
M  V30 16 1 14 17
M  V30 17 2 15 18
M  V30 18 1 15 19
M  V30 19 1 16 20
M  V30 20 2 17 21
M  V30 21 2 20 22
M  V30 22 1 22 23
M  V30 23 1 23 24
M  V30 24 1 6 7
M  V30 25 1 12 13
M  V30 26 1 21 22
M  V30 27 1 3 25
M  V30 28 1 4 26
M  V30 29 1 5 27
M  V30 30 1 6 28
M  V30 31 1 11 29
M  V30 32 1 12 30
M  V30 33 1 13 31
M  V30 34 1 16 32
M  V30 35 1 17 33
M  V30 36 1 19 34
M  V30 37 1 19 35
M  V30 38 1 20 36
M  V30 39 1 21 37
M  V30 40 1 24 38
M  V30 41 1 24 39
M  V30 42 1 24 40
M  V30 END BOND
M  V30 BEGIN COLLECTION
M  V30 MDLV30/STEABS ATOMS=(3 11 12 13)
M  V30 END COLLECTION
M  V30 END CTAB
M  END
>  <NO.>
3975

>  <Name>
ephedrine

>  <SMILES>
COc1ccc([C@@H]2[C@H](C(N)=S)[C@@H]2S(=O)(=O)c2ccc(Cl)cc2)cc1

>  <logBB>


>  <Class>
-1

>  <MW>
381.03

>  <nHBAcc>
4

>  <nHBDon>
1

>  <SLogP>
3.19

>  <TopoPSA>
69.39

>  <MMFF94 Energy>
50.406

$$$$
COc1ccc([C@@H]2[C@H](C(N)=S)[C@@H]2S(=O)(=O)c2ccccc2)cc1
Actelion Java MolfileCreator 2.0

  0  0  0  0  0  0              0 V3000
M  V30 BEGIN CTAB
M  V30 COUNTS 40 42 0 0 0
M  V30 BEGIN ATOM
M  V30 1 S -1.1451 0.6542 -0.2453 0
M  V30 2 O 0.2273 1.0191 -0.5172 0
M  V30 3 O -1.8812 1.2367 0.861 0
M  V30 4 C -2.1027 1.0382 -1.6952 0
M  V30 5 C -1.2941 -1.1356 -0.0478 0 CFG=2
M  V30 6 C -1.5175 1.7498 -2.7465 0
M  V30 7 C -3.4399 0.6353 -1.7619 0
M  V30 8 C -0.2772 -1.8512 0.7971 0 CFG=1
M  V30 9 C -0.2889 -2.0543 -0.7093 0 CFG=2
M  V30 10 C -2.2693 2.031 -3.8866 0
M  V30 11 C -4.1849 0.9218 -2.9057 0
M  V30 12 C 0.8394 -1.2687 1.632 0
M  V30 13 C 0.5981 -1.5723 -1.7837 0
M  V30 14 C -3.5987 1.6133 -3.9671 0
M  V30 15 C 2.1008 -1.8843 1.6737 0
M  V30 16 C 0.6915 -0.1217 2.4281 0
M  V30 17 S 2.2309 -1.8192 -1.7583 0
M  V30 18 N -0.0105 -1.106 -2.911 0
M  V30 19 C 3.1596 -1.3659 2.4293 0
M  V30 20 C 1.747 0.4084 3.1866 0
M  V30 21 C 2.9922 -0.2089 3.1828 0
M  V30 22 O 4.0984 0.1978 3.8741 0
M  V30 23 C 4.0036 1.4449 4.5506 0
M  V30 24 H -2.3135 -1.4888 0.0359 0
M  V30 25 H -0.4834 2.0846 -2.6862 0
M  V30 26 H -3.9156 0.1256 -0.9279 0
M  V30 27 H -0.708 -2.7013 1.3363 0
M  V30 28 H -0.6796 -3.0362 -0.9857 0
M  V30 29 H -1.8223 2.5847 -4.7091 0
M  V30 30 H -5.2286 0.6212 -2.9668 0
M  V30 31 H -4.185 1.8433 -4.8542 0
M  V30 32 H 2.2733 -2.8014 1.1145 0
M  V30 33 H -0.2707 0.3773 2.5003 0
M  V30 34 H -1.0104 -1.0583 -3.0507 0
M  V30 35 H 0.5791 -0.8149 -3.6834 0
M  V30 36 H 4.1218 -1.8711 2.4205 0
M  V30 37 H 1.5509 1.3011 3.7708 0
M  V30 38 H 3.7692 2.2579 3.8553 0
M  V30 39 H 4.9803 1.6588 4.9953 0
M  V30 40 H 3.2719 1.3961 5.3637 0
M  V30 END ATOM
M  V30 BEGIN BOND
M  V30 1 2 1 2
M  V30 2 2 1 3
M  V30 3 1 1 4
M  V30 4 1 1 5
M  V30 5 2 4 6
M  V30 6 1 4 7
M  V30 7 1 5 8
M  V30 8 1 5 9
M  V30 9 1 6 10
M  V30 10 2 7 11
M  V30 11 1 8 12
M  V30 12 1 9 13
M  V30 13 2 10 14
M  V30 14 2 12 15
M  V30 15 1 12 16
M  V30 16 2 13 17
M  V30 17 1 13 18
M  V30 18 1 15 19
M  V30 19 2 16 20
M  V30 20 2 19 21
M  V30 21 1 21 22
M  V30 22 1 22 23
M  V30 23 1 8 9
M  V30 24 1 11 14
M  V30 25 1 20 21
M  V30 26 1 5 24
M  V30 27 1 6 25
M  V30 28 1 7 26
M  V30 29 1 8 27
M  V30 30 1 9 28
M  V30 31 1 10 29
M  V30 32 1 11 30
M  V30 33 1 14 31
M  V30 34 1 15 32
M  V30 35 1 16 33
M  V30 36 1 18 34
M  V30 37 1 18 35
M  V30 38 1 19 36
M  V30 39 1 20 37
M  V30 40 1 23 38
M  V30 41 1 23 39
M  V30 42 1 23 40
M  V30 END BOND
M  V30 BEGIN COLLECTION
M  V30 MDLV30/STEABS ATOMS=(3 5 8 9)
M  V30 END COLLECTION
M  V30 END CTAB
M  END
>  <NO.>
3976

>  <Name>
methotrexate

>  <SMILES>
COc1ccc([C@@H]2[C@H](C(N)=S)[C@@H]2S(=O)(=O)c2ccccc2)cc1

>  <logBB>


>  <Class>
-1

>  <MW>
347.06

>  <nHBAcc>
4

>  <nHBDon>
1

>  <SLogP>
2.54

>  <TopoPSA>
69.39

>  <MMFF94 Energy>
49.965

$$$$
COc1ccc([C@@H]2[C@H](CO)[C@@H]2S(=O)(=O)c2ccc(C)cc2)cc1
Actelion Java MolfileCreator 2.0

  0  0  0  0  0  0              0 V3000
M  V30 BEGIN CTAB
M  V30 COUNTS 43 45 0 0 0
M  V30 BEGIN ATOM
M  V30 1 S -0.6469 0.1617 0.8087 0
M  V30 2 O -0.3079 1.0874 -0.2509 0
M  V30 3 O -0.3357 0.453 2.1952 0
M  V30 4 C -2.405 -0.1081 0.7309 0
M  V30 5 C 0.0203 -1.4771 0.4713 0 CFG=2
M  V30 6 C -3.1288 0.3164 -0.3846 0
M  V30 7 C -3.0505 -0.7133 1.8124 0
M  V30 8 C 1.469 -1.6352 0.0816 0 CFG=1
M  V30 9 C 0.3681 -1.8561 -0.9483 0 CFG=2
M  V30 10 C -4.5073 0.1016 -0.4308 0
M  V30 11 C -4.4291 -0.9243 1.7591 0
M  V30 12 C 2.5041 -0.5405 -0.0184 0
M  V30 13 C 0.1497 -0.9911 -2.1431 0
M  V30 14 C -5.1645 -0.5338 0.6318 0
M  V30 15 C 3.2375 -0.3373 -1.1986 0
M  V30 16 C 2.7474 0.3559 1.0338 0
M  V30 17 O 0.6443 -1.6886 -3.2816 0
M  V30 18 C -6.6526 -0.7277 0.5939 0
M  V30 19 C 4.1655 0.7025 -1.3188 0
M  V30 20 C 3.6729 1.4033 0.9196 0
M  V30 21 C 4.3854 1.5826 -0.2619 0
M  V30 22 O 5.3128 2.5566 -0.5063 0
M  V30 23 C 5.5187 3.5155 0.5233 0
M  V30 24 H -0.3866 -2.2543 1.1065 0
M  V30 25 H -2.638 0.8216 -1.2131 0
M  V30 26 H -2.4957 -1.01 2.6998 0
M  V30 27 H 1.9191 -2.5616 0.4462 0
M  V30 28 H 0.1523 -2.8897 -1.2116 0
M  V30 29 H -5.0697 0.44 -1.299 0
M  V30 30 H -4.9303 -1.3884 2.6065 0
M  V30 31 H -0.9197 -0.824 -2.2987 0
M  V30 32 H 0.66 -0.0285 -2.1017 0
M  V30 33 H 3.0932 -1.0073 -2.0445 0
M  V30 34 H 2.2188 0.2415 1.9783 0
M  V30 35 H 0.5847 -1.0686 -4.0291 0
M  V30 36 H -7.1547 0.146 1.0204 0
M  V30 37 H -7.0014 -0.8704 -0.4341 0
M  V30 38 H -6.9448 -1.617 1.1621 0
M  V30 39 H 4.7163 0.8264 -2.2476 0
M  V30 40 H 3.8056 2.0564 1.7754 0
M  V30 41 H 4.5976 4.0659 0.7424 0
M  V30 42 H 6.2596 4.2367 0.165 0
M  V30 43 H 5.9227 3.0443 1.4254 0
M  V30 END ATOM
M  V30 BEGIN BOND
M  V30 1 2 1 2
M  V30 2 2 1 3
M  V30 3 1 1 4
M  V30 4 1 1 5
M  V30 5 2 4 6
M  V30 6 1 4 7
M  V30 7 1 5 8
M  V30 8 1 5 9
M  V30 9 1 6 10
M  V30 10 2 7 11
M  V30 11 1 8 12
M  V30 12 1 9 13
M  V30 13 2 10 14
M  V30 14 2 12 15
M  V30 15 1 12 16
M  V30 16 1 13 17
M  V30 17 1 14 18
M  V30 18 1 15 19
M  V30 19 2 16 20
M  V30 20 2 19 21
M  V30 21 1 21 22
M  V30 22 1 22 23
M  V30 23 1 8 9
M  V30 24 1 11 14
M  V30 25 1 20 21
M  V30 26 1 5 24
M  V30 27 1 6 25
M  V30 28 1 7 26
M  V30 29 1 8 27
M  V30 30 1 9 28
M  V30 31 1 10 29
M  V30 32 1 11 30
M  V30 33 1 13 31
M  V30 34 1 13 32
M  V30 35 1 15 33
M  V30 36 1 16 34
M  V30 37 1 17 35
M  V30 38 1 18 36
M  V30 39 1 18 37
M  V30 40 1 18 38
M  V30 41 1 19 39
M  V30 42 1 20 40
M  V30 43 1 23 41
M  V30 44 1 23 42
M  V30 45 1 23 43
M  V30 END BOND
M  V30 BEGIN COLLECTION
M  V30 MDLV30/STEABS ATOMS=(3 5 8 9)
M  V30 END COLLECTION
M  V30 END CTAB
M  END
>  <NO.>
3977

>  <Name>
naloxone

>  <SMILES>
COc1ccc([C@@H]2[C@H](CO)[C@@H]2S(=O)(=O)c2ccc(C)cc2)cc1

>  <logBB>


>  <Class>
1

>  <MW>
332.11

>  <nHBAcc>
4

>  <nHBDon>
1

>  <SLogP>
2.55

>  <TopoPSA>
63.6

>  <MMFF94 Energy>
72.779

$$$$
COc1ccc([C@@H]2[C@H](N)[C@@H]2S(=O)(=O)c2ccc(C)cc2)cc1
Actelion Java MolfileCreator 2.0

  0  0  0  0  0  0              0 V3000
M  V30 BEGIN CTAB
M  V30 COUNTS 41 43 0 0 0
M  V30 BEGIN ATOM
M  V30 1 S -0.4042 0.8086 -0.8894 0
M  V30 2 O 0.3918 0.9451 0.3119 0
M  V30 3 O -1.3585 1.8382 -1.2661 0
M  V30 4 C 0.7224 0.6405 -2.2585 0
M  V30 5 C -1.3322 -0.734 -0.9405 0 CFG=1
M  V30 6 C 2.0595 0.3168 -2.0211 0
M  V30 7 C 0.2647 0.875 -3.5574 0
M  V30 8 C -0.7163 -1.9813 -0.3874 0 CFG=2
M  V30 9 C -1.8647 -1.3157 0.3436 0 CFG=1
M  V30 10 C 2.9388 0.1944 -3.0979 0
M  V30 11 C 1.1496 0.7511 -4.6298 0
M  V30 12 N 0.6473 -2.0565 0.1203 0
M  V30 13 C -1.8033 -0.6258 1.6848 0
M  V30 14 C 2.4876 0.3948 -4.4099 0
M  V30 15 C -2.4486 0.607 1.885 0
M  V30 16 C -1.0802 -1.1405 2.7714 0
M  V30 17 C 3.4457 0.3032 -5.5616 0
M  V30 18 C -2.3879 1.2777 3.1113 0
M  V30 19 C -1.0135 -0.4724 4.0031 0
M  V30 20 C -1.6682 0.7433 4.1773 0
M  V30 21 O -1.6881 1.4933 5.3203 0
M  V30 22 C -0.8623 1.0503 6.3893 0
M  V30 23 H -1.9598 -0.8366 -1.8161 0
M  V30 24 H 2.4223 0.1681 -1.0057 0
M  V30 25 H -0.7666 1.167 -3.7413 0
M  V30 26 H -0.9983 -2.8979 -0.909 0
M  V30 27 H -2.8148 -1.8419 0.2255 0
M  V30 28 H 3.982 -0.0488 -2.9064 0
M  V30 29 H 0.7927 0.9446 -5.6395 0
M  V30 30 H 0.7278 -2.7168 0.8924 0
M  V30 31 H 1.3048 -2.3748 -0.5917 0
M  V30 32 H -3.0089 1.0651 1.0719 0
M  V30 33 H -0.5582 -2.0872 2.6709 0
M  V30 34 H 3.9057 1.2792 -5.7441 0
M  V30 35 H 4.2346 -0.4278 -5.3557 0
M  V30 36 H 2.9313 -0.0222 -6.472 0
M  V30 37 H -2.8964 2.2315 3.2268 0
M  V30 38 H -0.4382 -0.9315 4.7992 0
M  V30 39 H -1.2042 0.0846 6.776 0
M  V30 40 H -0.9447 1.7807 7.2002 0
M  V30 41 H 0.1892 1.006 6.087 0
M  V30 END ATOM
M  V30 BEGIN BOND
M  V30 1 2 1 2
M  V30 2 2 1 3
M  V30 3 1 1 4
M  V30 4 1 1 5
M  V30 5 2 4 6
M  V30 6 1 4 7
M  V30 7 1 5 8
M  V30 8 1 5 9
M  V30 9 1 6 10
M  V30 10 2 7 11
M  V30 11 1 8 12
M  V30 12 1 9 13
M  V30 13 2 10 14
M  V30 14 2 13 15
M  V30 15 1 13 16
M  V30 16 1 14 17
M  V30 17 1 15 18
M  V30 18 2 16 19
M  V30 19 2 18 20
M  V30 20 1 20 21
M  V30 21 1 21 22
M  V30 22 1 8 9
M  V30 23 1 11 14
M  V30 24 1 19 20
M  V30 25 1 5 23
M  V30 26 1 6 24
M  V30 27 1 7 25
M  V30 28 1 8 26
M  V30 29 1 9 27
M  V30 30 1 10 28
M  V30 31 1 11 29
M  V30 32 1 12 30
M  V30 33 1 12 31
M  V30 34 1 15 32
M  V30 35 1 16 33
M  V30 36 1 17 34
M  V30 37 1 17 35
M  V30 38 1 17 36
M  V30 39 1 18 37
M  V30 40 1 19 38
M  V30 41 1 22 39
M  V30 42 1 22 40
M  V30 43 1 22 41
M  V30 END BOND
M  V30 BEGIN COLLECTION
M  V30 MDLV30/STEABS ATOMS=(3 5 8 9)
M  V30 END COLLECTION
M  V30 END CTAB
M  END
>  <NO.>
3978

>  <Name>
nitrazepam

>  <SMILES>
COc1ccc([C@@H]2[C@H](N)[C@@H]2S(=O)(=O)c2ccc(C)cc2)cc1

>  <logBB>


>  <Class>
1

>  <MW>
317.11

>  <nHBAcc>
4

>  <nHBDon>
1

>  <SLogP>
2.27

>  <TopoPSA>
69.39

>  <MMFF94 Energy>
90.849

$$$$
COc1ccc([C@@H]2[C@H](S(=O)(=O)c3ccc(C)cc3)[C@@]2(C#N)C(=O)O)cc1
Actelion Java MolfileCreator 2.0

  0  0  0  0  0  0              0 V3000
M  V30 BEGIN CTAB
M  V30 COUNTS 43 45 0 0 0
M  V30 BEGIN ATOM
M  V30 1 S 0.163 0.3261 1.0603 0
M  V30 2 O 0.4898 -0.183 2.3785 0
M  V30 3 O -1.1683 0.1889 0.5178 0
M  V30 4 C 0.5884 2.0504 1.0501 0
M  V30 5 C 1.3764 -0.3997 -0.0408 0 CFG=2
M  V30 6 C 1.7063 2.4809 1.7693 0
M  V30 7 C -0.2028 2.9613 0.3487 0
M  V30 8 C 1.1436 -0.2803 -1.5369 0 CFG=1
M  V30 9 C 1.0541 -1.6408 -0.8203 0 CFG=2
M  V30 10 C 2.0516 3.8331 1.757 0
M  V30 11 C 0.1502 4.3115 0.3395 0
M  V30 12 C -0.0491 0.3241 -2.0739 0
M  V30 13 C 2.3823 -0.0347 -2.3428 0
M  V30 14 C -0.1997 -2.4692 -0.6645 0
M  V30 15 C 1.287 4.7549 1.0291 0
M  V30 16 N -0.9759 0.8404 -2.5447 0
M  V30 17 O 3.4871 -0.4473 -2.0232 0
M  V30 18 O 2.217 0.6866 -3.4678 0
M  V30 19 C -1.0731 -2.7138 -1.7352 0
M  V30 20 C -0.5769 -2.9844 0.5883 0
M  V30 21 C 1.6382 6.2143 1.0481 0
M  V30 22 C -2.2524 -3.4478 -1.564 0
M  V30 23 C -1.7589 -3.7165 0.7658 0
M  V30 24 C -2.6047 -3.95 -0.3133 0
M  V30 25 O -3.7799 -4.647 -0.2821 0
M  V30 26 C -4.2405 -5.066 0.9963 0
M  V30 27 H 2.3921 -0.3234 0.3292 0
M  V30 28 H 2.3026 1.7811 2.3508 0
M  V30 29 H -1.0953 2.64 -0.1863 0
M  V30 30 H 1.9188 -2.2908 -0.9802 0
M  V30 31 H 2.9168 4.1681 2.3262 0
M  V30 32 H -0.473 5.0184 -0.2054 0
M  V30 33 H 3.1076 0.7504 -3.8741 0
M  V30 34 H -0.8461 -2.3422 -2.7319 0
M  V30 35 H 0.0577 -2.8189 1.458 0
M  V30 36 H 1.1351 6.7092 1.8846 0
M  V30 37 H 2.7192 6.3541 1.1518 0
M  V30 38 H 1.3361 6.7005 0.1147 0
M  V30 39 H -2.9071 -3.6181 -2.4154 0
M  V30 40 H -1.9854 -4.0819 1.7617 0
M  V30 41 H -3.5587 -5.7998 1.4385 0
M  V30 42 H -5.2102 -5.5541 0.8587 0
M  V30 43 H -4.39 -4.2112 1.6646 0
M  V30 END ATOM
M  V30 BEGIN BOND
M  V30 1 2 1 2
M  V30 2 2 1 3
M  V30 3 1 1 4
M  V30 4 1 1 5
M  V30 5 2 4 6
M  V30 6 1 4 7
M  V30 7 1 5 8
M  V30 8 1 5 9
M  V30 9 1 6 10
M  V30 10 2 7 11
M  V30 11 1 8 12
M  V30 12 1 8 13
M  V30 13 1 9 14
M  V30 14 2 10 15
M  V30 15 3 12 16
M  V30 16 2 13 17
M  V30 17 1 13 18
M  V30 18 2 14 19
M  V30 19 1 14 20
M  V30 20 1 15 21
M  V30 21 1 19 22
M  V30 22 2 20 23
M  V30 23 2 22 24
M  V30 24 1 24 25
M  V30 25 1 25 26
M  V30 26 1 8 9
M  V30 27 1 11 15
M  V30 28 1 23 24
M  V30 29 1 5 27
M  V30 30 1 6 28
M  V30 31 1 7 29
M  V30 32 1 9 30
M  V30 33 1 10 31
M  V30 34 1 11 32
M  V30 35 1 18 33
M  V30 36 1 19 34
M  V30 37 1 20 35
M  V30 38 1 21 36
M  V30 39 1 21 37
M  V30 40 1 21 38
M  V30 41 1 22 39
M  V30 42 1 23 40
M  V30 43 1 26 41
M  V30 44 1 26 42
M  V30 45 1 26 43
M  V30 END BOND
M  V30 BEGIN COLLECTION
M  V30 MDLV30/STEABS ATOMS=(3 5 8 9)
M  V30 END COLLECTION
M  V30 END CTAB
M  END
>  <NO.>
3979

>  <Name>
miconazole

>  <SMILES>
COc1ccc([C@@H]2[C@H](S(=O)(=O)c3ccc(C)cc3)[C@@]2(C#N)C(=O)O)cc1

>  <logBB>


>  <Class>
-1

>  <MW>
371.08

>  <nHBAcc>
5

>  <nHBDon>
1

>  <SLogP>
2.54

>  <TopoPSA>
104.46

>  <MMFF94 Energy>
10.353

$$$$
COc1ccc([C@@H]2[C@H](S(=O)(=O)c3ccc(Cl)cc3)C2(CO)CO)cc1
Actelion Java MolfileCreator 2.0

  0  0  0  0  0  0              0 V3000
M  V30 BEGIN CTAB
M  V30 COUNTS 44 46 0 0 0
M  V30 BEGIN ATOM
M  V30 1 Cl 0.982 1.9648 -7.0539 0
M  V30 2 C 0.787 1.2379 -5.5069 0
M  V30 3 C -0.2444 0.3212 -5.2983 0
M  V30 4 C 1.6655 1.5659 -4.473 0
M  V30 5 C -0.4051 -0.2703 -4.0436 0
M  V30 6 C 1.5107 0.9784 -3.2154 0
M  V30 7 C 0.4667 0.0724 -3.0041 0
M  V30 8 S 0.2587 -0.6947 -1.4079 0
M  V30 9 O -0.1054 -2.0748 -1.6647 0
M  V30 10 O 1.4284 -0.3626 -0.6235 0
M  V30 11 C -1.2118 0.1102 -0.7663 0 CFG=2
M  V30 12 C -1.0871 1.3913 0.0505 0
M  V30 13 C -1.5444 0.0732 0.6999 0 CFG=2
M  V30 14 C 0.2614 1.9936 0.397 0
M  V30 15 C -2.1207 2.4685 -0.2405 0
M  V30 16 C -0.774 -0.6426 1.7851 0
M  V30 17 O 0.0747 3.0732 1.31 0
M  V30 18 O -3.3403 1.9119 -0.7251 0
M  V30 19 C -0.3486 0.0324 2.9411 0
M  V30 20 C -0.4006 -1.991 1.6721 0
M  V30 21 C 0.4056 -0.6065 3.9309 0
M  V30 22 C 0.3584 -2.6371 2.6584 0
M  V30 23 C 0.7679 -1.9442 3.7935 0
M  V30 24 O 1.5072 -2.4496 4.8262 0
M  V30 25 C 1.947 -3.796 4.6984 0
M  V30 26 H -0.9202 0.06 -6.1092 0
M  V30 27 H 2.4749 2.2717 -4.6433 0
M  V30 28 H -1.2004 -0.9969 -3.8893 0
M  V30 29 H 2.2089 1.2264 -2.4189 0
M  V30 30 H -2.0594 0.0043 -1.4333 0
M  V30 31 H -2.6166 0.005 0.8946 0
M  V30 32 H 0.9477 1.2984 0.8788 0
M  V30 33 H 0.7352 2.3975 -0.5029 0
M  V30 34 H -2.346 3.0593 0.6538 0
M  V30 35 H -1.7431 3.1445 -1.0148 0
M  V30 36 H 0.9642 3.3346 1.6083 0
M  V30 37 H -3.932 1.8309 0.0434 0
M  V30 38 H -0.6137 1.0787 3.0832 0
M  V30 39 H -0.7128 -2.5714 0.8059 0
M  V30 40 H 0.7148 -0.0519 4.8133 0
M  V30 41 H 0.6091 -3.6806 2.5006 0
M  V30 42 H 1.0978 -4.4868 4.6692 0
M  V30 43 H 2.5424 -4.0384 5.5841 0
M  V30 44 H 2.59 -3.9209 3.8208 0
M  V30 END ATOM
M  V30 BEGIN BOND
M  V30 1 1 1 2
M  V30 2 2 2 3
M  V30 3 1 2 4
M  V30 4 1 3 5
M  V30 5 2 4 6
M  V30 6 2 5 7
M  V30 7 1 7 8
M  V30 8 2 8 9
M  V30 9 2 8 10
M  V30 10 1 8 11
M  V30 11 1 11 12
M  V30 12 1 11 13
M  V30 13 1 12 14
M  V30 14 1 12 15
M  V30 15 1 13 16
M  V30 16 1 14 17
M  V30 17 1 15 18
M  V30 18 2 16 19
M  V30 19 1 16 20
M  V30 20 1 19 21
M  V30 21 2 20 22
M  V30 22 2 21 23
M  V30 23 1 23 24
M  V30 24 1 24 25
M  V30 25 1 6 7
M  V30 26 1 12 13
M  V30 27 1 22 23
M  V30 28 1 3 26
M  V30 29 1 4 27
M  V30 30 1 5 28
M  V30 31 1 6 29
M  V30 32 1 11 30
M  V30 33 1 13 31
M  V30 34 1 14 32
M  V30 35 1 14 33
M  V30 36 1 15 34
M  V30 37 1 15 35
M  V30 38 1 17 36
M  V30 39 1 18 37
M  V30 40 1 19 38
M  V30 41 1 20 39
M  V30 42 1 21 40
M  V30 43 1 22 41
M  V30 44 1 25 42
M  V30 45 1 25 43
M  V30 46 1 25 44
M  V30 END BOND
M  V30 BEGIN COLLECTION
M  V30 MDLV30/STEABS ATOMS=(2 11 13)
M  V30 END COLLECTION
M  V30 END CTAB
M  END
>  <NO.>
3980

>  <Name>
pirbuterol

>  <SMILES>
COc1ccc([C@@H]2[C@H](S(=O)(=O)c3ccc(Cl)cc3)C2(CO)CO)cc1

>  <logBB>


>  <Class>
-1

>  <MW>
382.06

>  <nHBAcc>
5

>  <nHBDon>
2

>  <SLogP>
2.26

>  <TopoPSA>
83.83

>  <MMFF94 Energy>
61.805

$$$$
COc1ccc([C@@H]2[C@H](S(C)(=O)=O)[C@@]2(N)C#N)cc1
Actelion Java MolfileCreator 2.0

  0  0  0  0  0  0              0 V3000
M  V30 BEGIN CTAB
M  V30 COUNTS 32 33 0 0 0
M  V30 BEGIN ATOM
M  V30 1 S -0.3254 1.2207 -2.1166 0
M  V30 2 O -0.6837 1.7123 -0.8009 0
M  V30 3 O 1.0162 1.3939 -2.6389 0
M  V30 4 C -0.6535 -0.5389 -2.2337 0 CFG=2
M  V30 5 C -1.4517 1.9314 -3.2866 0
M  V30 6 C -1.8371 -1.0648 -1.454 0 CFG=1
M  V30 7 C -0.404 -1.4362 -1.0535 0 CFG=2
M  V30 8 N -2.6649 -0.176 -0.5992 0
M  V30 9 C -2.5865 -2.1146 -2.1324 0
M  V30 10 C 0.241 -1.0387 0.2542 0
M  V30 11 N -3.1585 -2.9564 -2.6893 0
M  V30 12 C 1.4795 -0.3765 0.2953 0
M  V30 13 C -0.3976 -1.2583 1.4853 0
M  V30 14 C 2.0578 0.0425 1.5016 0
M  V30 15 C 0.1768 -0.8465 2.6926 0
M  V30 16 C 1.4054 -0.19 2.7082 0
M  V30 17 O 1.8536 0.162 3.9503 0
M  V30 18 C 3.0701 0.8965 4.0072 0
M  V30 19 H -0.4459 -0.9593 -3.2102 0
M  V30 20 H -1.2778 3.0092 -3.3153 0
M  V30 21 H -2.4749 1.7282 -2.9669 0
M  V30 22 H -1.2605 1.4967 -4.2693 0
M  V30 23 H -0.0936 -2.4452 -1.3386 0
M  V30 24 H -2.0781 0.5347 -0.1353 0
M  V30 25 H -3.0898 -0.7009 0.1662 0
M  V30 26 H 2.0199 -0.1754 -0.6286 0
M  V30 27 H -1.3533 -1.7757 1.5204 0
M  V30 28 H 3.015 0.5508 1.4551 0
M  V30 29 H -0.3413 -1.0378 3.6293 0
M  V30 30 H 3.9076 0.3009 3.6291 0
M  V30 31 H 3.273 1.1262 5.0577 0
M  V30 32 H 2.9848 1.8465 3.4691 0
M  V30 END ATOM
M  V30 BEGIN BOND
M  V30 1 2 1 2
M  V30 2 2 1 3
M  V30 3 1 1 4
M  V30 4 1 1 5
M  V30 5 1 4 6
M  V30 6 1 4 7
M  V30 7 1 6 8
M  V30 8 1 6 9
M  V30 9 1 7 10
M  V30 10 3 9 11
M  V30 11 2 10 12
M  V30 12 1 10 13
M  V30 13 1 12 14
M  V30 14 2 13 15
M  V30 15 2 14 16
M  V30 16 1 16 17
M  V30 17 1 17 18
M  V30 18 1 6 7
M  V30 19 1 15 16
M  V30 20 1 4 19
M  V30 21 1 5 20
M  V30 22 1 5 21
M  V30 23 1 5 22
M  V30 24 1 7 23
M  V30 25 1 8 24
M  V30 26 1 8 25
M  V30 27 1 12 26
M  V30 28 1 13 27
M  V30 29 1 14 28
M  V30 30 1 15 29
M  V30 31 1 18 30
M  V30 32 1 18 31
M  V30 33 1 18 32
M  V30 END BOND
M  V30 BEGIN COLLECTION
M  V30 MDLV30/STEABS ATOMS=(3 4 6 7)
M  V30 END COLLECTION
M  V30 END CTAB
M  END
>  <NO.>
3981

>  <Name>
clotrimazole

>  <SMILES>
COc1ccc([C@@H]2[C@H](S(C)(=O)=O)[C@@]2(N)C#N)cc1

>  <logBB>


>  <Class>
-1

>  <MW>
266.07

>  <nHBAcc>
5

>  <nHBDon>
1

>  <SLogP>
0.43

>  <TopoPSA>
93.18

>  <MMFF94 Energy>
41.747

$$$$
COc1ccc([C@H]2CC(=O)Oc3cc(C)oc(=O)c32)cc1
Actelion Java MolfileCreator 2.0

  0  0  0  0  0  0              0 V3000
M  V30 BEGIN CTAB
M  V30 COUNTS 35 37 0 0 0
M  V30 BEGIN ATOM
M  V30 1 O -2.8185 0.1608 0.1608 0
M  V30 2 C -2.2112 0.4603 -0.8614 0
M  V30 3 O -2.7161 0.1834 -2.1045 0
M  V30 4 C -0.9106 1.1643 -0.806 0
M  V30 5 C -2.0496 0.5996 -3.2832 0
M  V30 6 C -0.3345 1.5742 -1.9396 0
M  V30 7 C -0.2936 1.4654 0.5221 0 CFG=1
M  V30 8 C -0.8998 1.2807 -3.2219 0
M  V30 9 C -2.7407 0.2168 -4.5503 0
M  V30 10 O 0.8812 2.2716 -1.98 0
M  V30 11 C 0.414 0.2517 1.1165 0
M  V30 12 C 0.5914 2.7094 0.4124 0
M  V30 13 C 1.4419 2.7497 -0.8313 0
M  V30 14 C -0.2387 -0.4985 2.1095 0
M  V30 15 C 1.6785 -0.1801 0.6941 0
M  V30 16 O 2.5578 3.2615 -0.8348 0
M  V30 17 C 0.3571 -1.6314 2.6767 0
M  V30 18 C 2.2723 -1.3109 1.265 0
M  V30 19 C 1.6194 -2.0414 2.2578 0
M  V30 20 O 2.313 -3.1229 2.7243 0
M  V30 21 C 1.6831 -3.9024 3.7331 0
M  V30 22 H -1.0906 1.753 1.2229 0
M  V30 23 H -0.3767 1.6058 -4.1156 0
M  V30 24 H -2.1937 0.5599 -5.4343 0
M  V30 25 H -2.8373 -0.8715 -4.6139 0
M  V30 26 H -3.7429 0.6556 -4.5816 0
M  V30 27 H 1.2464 2.7926 1.288 0
M  V30 28 H -0.0336 3.6117 0.3862 0
M  V30 29 H -1.2351 -0.2138 2.4474 0
M  V30 30 H 2.2327 0.3364 -0.0838 0
M  V30 31 H -0.198 -2.1699 3.4374 0
M  V30 32 H 3.2565 -1.6281 0.9271 0
M  V30 33 H 1.509 -3.3111 4.6382 0
M  V30 34 H 2.3611 -4.7202 3.9956 0
M  V30 35 H 0.7524 -4.3467 3.3652 0
M  V30 END ATOM
M  V30 BEGIN BOND
M  V30 1 2 1 2
M  V30 2 1 2 3
M  V30 3 1 2 4
M  V30 4 1 3 5
M  V30 5 2 4 6
M  V30 6 1 4 7
M  V30 7 2 5 8
M  V30 8 1 5 9
M  V30 9 1 6 10
M  V30 10 1 7 11
M  V30 11 1 7 12
M  V30 12 1 10 13
M  V30 13 2 11 14
M  V30 14 1 11 15
M  V30 15 2 13 16
M  V30 16 1 14 17
M  V30 17 2 15 18
M  V30 18 2 17 19
M  V30 19 1 19 20
M  V30 20 1 20 21
M  V30 21 1 6 8
M  V30 22 1 12 13
M  V30 23 1 18 19
M  V30 24 1 7 22
M  V30 25 1 8 23
M  V30 26 1 9 24
M  V30 27 1 9 25
M  V30 28 1 9 26
M  V30 29 1 12 27
M  V30 30 1 12 28
M  V30 31 1 14 29
M  V30 32 1 15 30
M  V30 33 1 17 31
M  V30 34 1 18 32
M  V30 35 1 21 33
M  V30 36 1 21 34
M  V30 37 1 21 35
M  V30 END BOND
M  V30 BEGIN COLLECTION
M  V30 MDLV30/STEABS ATOMS=(1 7)
M  V30 END COLLECTION
M  V30 END CTAB
M  END
>  <NO.>
3982

>  <Name>
mianserin

>  <SMILES>
COc1ccc([C@H]2CC(=O)Oc3cc(C)oc(=O)c32)cc1

>  <logBB>


>  <Class>
1

>  <MW>
286.08

>  <nHBAcc>
5

>  <nHBDon>
0

>  <SLogP>
2.4

>  <TopoPSA>
65.74

>  <MMFF94 Energy>
26.319

$$$$
COc1ccc([C@H]2[C@@H](C#N)[C@@H]2S(=O)(=O)c2ccc(Cl)cc2)cc1
Actelion Java MolfileCreator 2.0

  0  0  0  0  0  0              0 V3000
M  V30 BEGIN CTAB
M  V30 COUNTS 37 39 0 0 0
M  V30 BEGIN ATOM
M  V30 1 Cl -6.2206 -1.159 0.4138 0
M  V30 2 C -4.8994 -0.4079 -0.3912 0
M  V30 3 C -4.5035 -0.8672 -1.6483 0
M  V30 4 C -4.2344 0.6579 0.2168 0
M  V30 5 C -3.4299 -0.2613 -2.3042 0
M  V30 6 C -3.1604 1.2693 -0.433 0
M  V30 7 C -2.7571 0.7971 -1.6863 0
M  V30 8 S -1.3914 1.5729 -2.5106 0
M  V30 9 O -1.4456 1.2189 -3.9133 0
M  V30 10 O -1.335 2.9558 -2.0818 0
M  V30 11 C 0.0383 0.7063 -1.838 0 CFG=1
M  V30 12 C 1.3143 1.4898 -1.9918 0 CFG=1
M  V30 13 C 0.6661 1.3477 -0.6247 0 CFG=2
M  V30 14 C 2.4955 0.7646 -2.357 0
M  V30 15 C 1.2217 0.4729 0.4764 0
M  V30 16 N 3.4506 0.1813 -2.6592 0
M  V30 17 C 0.4791 -0.595 1.0046 0
M  V30 18 C 2.5354 0.6296 0.947 0
M  V30 19 C 1.015 -1.4432 1.979 0
M  V30 20 C 3.0778 -0.2202 1.9206 0
M  V30 21 C 2.3168 -1.262 2.4423 0
M  V30 22 O 2.7185 -2.1598 3.3908 0
M  V30 23 C 4.057 -2.0447 3.8577 0
M  V30 24 H -5.031 -1.6913 -2.1231 0
M  V30 25 H -4.5535 1.0198 1.1916 0
M  V30 26 H -3.1338 -0.6167 -3.2895 0
M  V30 27 H -2.6558 2.1096 0.0396 0
M  V30 28 H 0.0661 -0.3665 -1.9671 0
M  V30 29 H 1.2589 2.4786 -2.4388 0
M  V30 30 H 0.2128 2.2633 -0.2449 0
M  V30 31 H -0.5392 -0.7754 0.6679 0
M  V30 32 H 3.1604 1.4306 0.5552 0
M  V30 33 H 0.4124 -2.2568 2.3762 0
M  V30 34 H 4.0985 -0.0398 2.2413 0
M  V30 35 H 4.7739 -2.1863 3.0422 0
M  V30 36 H 4.2249 -2.84 4.5903 0
M  V30 37 H 4.2168 -1.0868 4.3637 0
M  V30 END ATOM
M  V30 BEGIN BOND
M  V30 1 1 1 2
M  V30 2 2 2 3
M  V30 3 1 2 4
M  V30 4 1 3 5
M  V30 5 2 4 6
M  V30 6 2 5 7
M  V30 7 1 7 8
M  V30 8 2 8 9
M  V30 9 2 8 10
M  V30 10 1 8 11
M  V30 11 1 11 12
M  V30 12 1 11 13
M  V30 13 1 12 14
M  V30 14 1 13 15
M  V30 15 3 14 16
M  V30 16 2 15 17
M  V30 17 1 15 18
M  V30 18 1 17 19
M  V30 19 2 18 20
M  V30 20 2 19 21
M  V30 21 1 21 22
M  V30 22 1 22 23
M  V30 23 1 6 7
M  V30 24 1 12 13
M  V30 25 1 20 21
M  V30 26 1 3 24
M  V30 27 1 4 25
M  V30 28 1 5 26
M  V30 29 1 6 27
M  V30 30 1 11 28
M  V30 31 1 12 29
M  V30 32 1 13 30
M  V30 33 1 17 31
M  V30 34 1 18 32
M  V30 35 1 19 33
M  V30 36 1 20 34
M  V30 37 1 23 35
M  V30 38 1 23 36
M  V30 39 1 23 37
M  V30 END BOND
M  V30 BEGIN COLLECTION
M  V30 MDLV30/STEABS ATOMS=(3 11 12 13)
M  V30 END COLLECTION
M  V30 END CTAB
M  END
>  <NO.>
3983

>  <Name>
papaverine

>  <SMILES>
COc1ccc([C@H]2[C@@H](C#N)[C@@H]2S(=O)(=O)c2ccc(Cl)cc2)cc1

>  <logBB>


>  <Class>
-1

>  <MW>
347.04

>  <nHBAcc>
4

>  <nHBDon>
0

>  <SLogP>
3.43

>  <TopoPSA>
67.16

>  <MMFF94 Energy>
45.988

$$$$
COc1ccc([C@H]2[C@@H](S(=O)(=O)c3ccc(C)cc3)[C@]2(C#N)C=O)cc1
Actelion Java MolfileCreator 2.0

  0  0  0  0  0  0              0 V3000
M  V30 BEGIN CTAB
M  V30 COUNTS 42 44 0 0 0
M  V30 BEGIN ATOM
M  V30 1 S 0.2449 -1.0615 0.5715 0
M  V30 2 O 1.1273 0.0448 0.2819 0
M  V30 3 O 0.6407 -2.4297 0.297 0
M  V30 4 C -0.2015 -0.9801 2.2874 0
M  V30 5 C -1.3252 -0.8553 -0.2788 0 CFG=1
M  V30 6 C 0.0271 0.1901 3.0129 0
M  V30 7 C -0.7496 -2.1072 2.9054 0
M  V30 8 C -1.8477 0.544 -0.4854 0 CFG=2
M  V30 9 C -1.3468 -0.2781 -1.675 0 CFG=1
M  V30 10 C -0.3325 0.2431 4.3604 0
M  V30 11 C -1.1043 -2.0471 4.254 0
M  V30 12 C -1.1307 1.7091 -0.0373 0
M  V30 13 C -3.3244 0.7003 -0.3478 0
M  V30 14 C -0.1197 0.0216 -2.504 0
M  V30 15 C -0.9149 -0.8673 4.9864 0
M  V30 16 N -0.6114 2.6869 0.3099 0
M  V30 17 O -3.8398 1.0073 0.719 0
M  V30 18 C 0.7943 -0.9961 -2.8249 0
M  V30 19 C 0.1958 1.3159 -2.949 0
M  V30 20 C -1.2662 -0.8149 6.4448 0
M  V30 21 C 1.9543 -0.7349 -3.5616 0
M  V30 22 C 1.3599 1.5834 -3.6842 0
M  V30 23 C 2.2468 0.5567 -3.992 0
M  V30 24 O 3.4088 0.6791 -4.7006 0
M  V30 25 C 3.8215 1.9999 -5.0285 0
M  V30 26 H -2.0396 -1.6415 -0.0675 0
M  V30 27 H 0.4868 1.0619 2.5503 0
M  V30 28 H -0.8919 -3.035 2.3561 0
M  V30 29 H -2.1333 -0.701 -2.3047 0
M  V30 30 H -0.1516 1.1584 4.9217 0
M  V30 31 H -1.5244 -2.9281 4.7355 0
M  V30 32 H -3.9288 0.5462 -1.2578 0
M  V30 33 H 0.614 -2.0192 -2.4989 0
M  V30 34 H -0.4674 2.1513 -2.7348 0
M  V30 35 H -0.4082 -1.1276 7.0477 0
M  V30 36 H -1.5567 0.1988 6.7402 0
M  V30 37 H -2.1135 -1.4725 6.666 0
M  V30 38 H 2.6413 -1.5468 -3.7877 0
M  V30 39 H 1.5408 2.6072 -3.9946 0
M  V30 40 H 3.1193 2.4688 -5.7257 0
M  V30 41 H 4.792 1.9321 -5.5295 0
M  V30 42 H 3.9531 2.6104 -4.1287 0
M  V30 END ATOM
M  V30 BEGIN BOND
M  V30 1 2 1 2
M  V30 2 2 1 3
M  V30 3 1 1 4
M  V30 4 1 1 5
M  V30 5 2 4 6
M  V30 6 1 4 7
M  V30 7 1 5 8
M  V30 8 1 5 9
M  V30 9 1 6 10
M  V30 10 2 7 11
M  V30 11 1 8 12
M  V30 12 1 8 13
M  V30 13 1 9 14
M  V30 14 2 10 15
M  V30 15 3 12 16
M  V30 16 2 13 17
M  V30 17 2 14 18
M  V30 18 1 14 19
M  V30 19 1 15 20
M  V30 20 1 18 21
M  V30 21 2 19 22
M  V30 22 2 21 23
M  V30 23 1 23 24
M  V30 24 1 24 25
M  V30 25 1 8 9
M  V30 26 1 11 15
M  V30 27 1 22 23
M  V30 28 1 5 26
M  V30 29 1 6 27
M  V30 30 1 7 28
M  V30 31 1 9 29
M  V30 32 1 10 30
M  V30 33 1 11 31
M  V30 34 1 13 32
M  V30 35 1 18 33
M  V30 36 1 19 34
M  V30 37 1 20 35
M  V30 38 1 20 36
M  V30 39 1 20 37
M  V30 40 1 21 38
M  V30 41 1 22 39
M  V30 42 1 25 40
M  V30 43 1 25 41
M  V30 44 1 25 42
M  V30 END BOND
M  V30 BEGIN COLLECTION
M  V30 MDLV30/STEABS ATOMS=(3 5 8 9)
M  V30 END COLLECTION
M  V30 END CTAB
M  END
>  <NO.>
3984

>  <Name>
methylphenidate

>  <SMILES>
COc1ccc([C@H]2[C@@H](S(=O)(=O)c3ccc(C)cc3)[C@]2(C#N)C=O)cc1

>  <logBB>


>  <Class>
1

>  <MW>
355.09

>  <nHBAcc>
5

>  <nHBDon>
0

>  <SLogP>
2.65

>  <TopoPSA>
84.23

>  <MMFF94 Energy>
44.735

$$$$
COc1ccc([C@H]2[C@@H](S(=O)(=O)c3ccc(Cl)cc3)C2(C#N)C#N)cc1
Actelion Java MolfileCreator 2.0

  0  0  0  0  0  0              0 V3000
M  V30 BEGIN CTAB
M  V30 COUNTS 38 40 0 0 0
M  V30 BEGIN ATOM
M  V30 1 Cl 0.9139 -2.6605 -6.7445 0
M  V30 2 C 0.7715 -2.2936 -5.0702 0
M  V30 3 C -0.2535 -1.4557 -4.6291 0
M  V30 4 C 1.6792 -2.8419 -4.1625 0
M  V30 5 C -0.3724 -1.1563 -3.27 0
M  V30 6 C 1.568 -2.5458 -2.8021 0
M  V30 7 C 0.5496 -1.6914 -2.3653 0
M  V30 8 S 0.4128 -1.3195 -0.6316 0
M  V30 9 O -0.8698 -0.6934 -0.4134 0
M  V30 10 O 0.807 -2.5135 0.0883 0
M  V30 11 C 1.7368 -0.1399 -0.3557 0 CFG=1
M  V30 12 C 1.4616 1.3 -0.6996 0
M  V30 13 C 1.6171 0.8704 0.7566 0 CFG=1
M  V30 14 C 2.5587 2.0213 -1.2874 0
M  V30 15 C 0.2175 1.7705 -1.232 0
M  V30 16 C 0.5215 0.8812 1.7972 0
M  V30 17 N 3.4773 2.561 -1.7452 0
M  V30 18 N -0.751 2.189 -1.7143 0
M  V30 19 C -0.3604 1.9637 1.9522 0
M  V30 20 C 0.3042 -0.2336 2.624 0
M  V30 21 C -1.4026 1.9414 2.8906 0
M  V30 22 C -0.7322 -0.2589 3.5632 0
M  V30 23 C -1.5942 0.8262 3.7002 0
M  V30 24 O -2.5637 0.6754 4.6514 0
M  V30 25 C -3.5335 1.7111 4.7484 0
M  V30 26 H -0.9673 -1.0394 -5.3366 0
M  V30 27 H 2.4668 -3.5068 -4.5093 0
M  V30 28 H -1.1884 -0.5165 -2.9356 0
M  V30 29 H 2.2651 -2.9957 -2.0979 0
M  V30 30 H 2.7277 -0.5401 -0.5337 0
M  V30 31 H 2.5757 1.1379 1.2103 0
M  V30 32 H -0.2471 2.8609 1.347 0
M  V30 33 H 0.9472 -1.1091 2.5479 0
M  V30 34 H -2.0453 2.8132 2.9578 0
M  V30 35 H -0.8727 -1.14 4.185 0
M  V30 36 H -3.0736 2.6515 5.0696 0
M  V30 37 H -4.2601 1.4183 5.5126 0
M  V30 38 H -4.075 1.8372 3.8049 0
M  V30 END ATOM
M  V30 BEGIN BOND
M  V30 1 1 1 2
M  V30 2 2 2 3
M  V30 3 1 2 4
M  V30 4 1 3 5
M  V30 5 2 4 6
M  V30 6 2 5 7
M  V30 7 1 7 8
M  V30 8 2 8 9
M  V30 9 2 8 10
M  V30 10 1 8 11
M  V30 11 1 11 12
M  V30 12 1 11 13
M  V30 13 1 12 14
M  V30 14 1 12 15
M  V30 15 1 13 16
M  V30 16 3 14 17
M  V30 17 3 15 18
M  V30 18 2 16 19
M  V30 19 1 16 20
M  V30 20 1 19 21
M  V30 21 2 20 22
M  V30 22 2 21 23
M  V30 23 1 23 24
M  V30 24 1 24 25
M  V30 25 1 6 7
M  V30 26 1 12 13
M  V30 27 1 22 23
M  V30 28 1 3 26
M  V30 29 1 4 27
M  V30 30 1 5 28
M  V30 31 1 6 29
M  V30 32 1 11 30
M  V30 33 1 13 31
M  V30 34 1 19 32
M  V30 35 1 20 33
M  V30 36 1 21 34
M  V30 37 1 22 35
M  V30 38 1 25 36
M  V30 39 1 25 37
M  V30 40 1 25 38
M  V30 END BOND
M  V30 BEGIN COLLECTION
M  V30 MDLV30/STEABS ATOMS=(2 11 13)
M  V30 END COLLECTION
M  V30 END CTAB
M  END
>  <NO.>
3985

>  <Name>
olanzapine

>  <SMILES>
COc1ccc([C@H]2[C@@H](S(=O)(=O)c3ccc(Cl)cc3)C2(C#N)C#N)cc1

>  <logBB>


>  <Class>
1

>  <MW>
372.03

>  <nHBAcc>
5

>  <nHBDon>
0

>  <SLogP>
3.32

>  <TopoPSA>
90.95

>  <MMFF94 Energy>
24.025

$$$$
COc1ccc([C@H]2[C@@H](S(=O)(=O)c3ccccc3)[C@]2(C#N)C=O)cc1
Actelion Java MolfileCreator 2.0

  0  0  0  0  0  0              0 V3000
M  V30 BEGIN CTAB
M  V30 COUNTS 39 41 0 0 0
M  V30 BEGIN ATOM
M  V30 1 S -0.7378 -0.7378 1.1479 0
M  V30 2 O 0.5711 -0.989 0.5939 0
M  V30 3 O -1.8154 -1.6981 1.0089 0
M  V30 4 C -0.5521 -0.4141 2.8847 0
M  V30 5 C -1.4115 0.8079 0.519 0 CFG=1
M  V30 6 C 0.7125 -0.1468 3.414 0
M  V30 7 C -1.6804 -0.4527 3.7107 0
M  V30 8 C -0.4574 1.9441 0.2109 0 CFG=2
M  V30 9 C -1.1716 1.1891 -0.9159 0 CFG=1
M  V30 10 C 0.8415 0.1182 4.777 0
M  V30 11 C -1.5414 -0.189 5.0732 0
M  V30 12 C 0.9608 1.8128 0.4223 0
M  V30 13 C -0.9675 3.3218 0.4918 0
M  V30 14 C -0.493 0.3231 -1.9508 0
M  V30 15 C -0.2833 0.1014 5.6034 0
M  V30 16 N 2.0987 1.7505 0.64 0
M  V30 17 O -0.3225 4.3266 0.2213 0
M  V30 18 C -0.9952 -0.9497 -2.2684 0
M  V30 19 C 0.6892 0.7156 -2.5997 0
M  V30 20 C -0.3555 -1.7793 -3.1953 0
M  V30 21 C 1.3358 -0.1139 -3.5269 0
M  V30 22 C 0.8155 -1.3687 -3.8272 0
M  V30 23 O 1.3412 -2.2708 -4.7091 0
M  V30 24 C 2.6035 -1.9469 -5.2781 0
M  V30 25 H -2.3911 1.0412 0.9168 0
M  V30 26 H 1.6012 -0.1483 2.7846 0
M  V30 27 H -2.6609 -0.7012 3.3106 0
M  V30 28 H -2.0012 1.738 -1.3692 0
M  V30 29 H 1.8227 0.3293 5.1973 0
M  V30 30 H -2.4098 -0.2215 5.7274 0
M  V30 31 H -1.9589 3.3972 0.9701 0
M  V30 32 H -0.1752 0.3007 6.6675 0
M  V30 33 H -1.9024 -1.3173 -1.7918 0
M  V30 34 H 1.1294 1.6909 -2.3993 0
M  V30 35 H -0.7705 -2.76 -3.4145 0
M  V30 36 H 2.2448 0.2548 -3.9902 0
M  V30 37 H 2.5307 -1.0605 -5.9167 0
M  V30 38 H 2.9109 -2.7866 -5.9088 0
M  V30 39 H 3.3665 -1.8154 -4.5035 0
M  V30 END ATOM
M  V30 BEGIN BOND
M  V30 1 2 1 2
M  V30 2 2 1 3
M  V30 3 1 1 4
M  V30 4 1 1 5
M  V30 5 2 4 6
M  V30 6 1 4 7
M  V30 7 1 5 8
M  V30 8 1 5 9
M  V30 9 1 6 10
M  V30 10 2 7 11
M  V30 11 1 8 12
M  V30 12 1 8 13
M  V30 13 1 9 14
M  V30 14 2 10 15
M  V30 15 3 12 16
M  V30 16 2 13 17
M  V30 17 2 14 18
M  V30 18 1 14 19
M  V30 19 1 18 20
M  V30 20 2 19 21
M  V30 21 2 20 22
M  V30 22 1 22 23
M  V30 23 1 23 24
M  V30 24 1 8 9
M  V30 25 1 11 15
M  V30 26 1 21 22
M  V30 27 1 5 25
M  V30 28 1 6 26
M  V30 29 1 7 27
M  V30 30 1 9 28
M  V30 31 1 10 29
M  V30 32 1 11 30
M  V30 33 1 13 31
M  V30 34 1 15 32
M  V30 35 1 18 33
M  V30 36 1 19 34
M  V30 37 1 20 35
M  V30 38 1 21 36
M  V30 39 1 24 37
M  V30 40 1 24 38
M  V30 41 1 24 39
M  V30 END BOND
M  V30 BEGIN COLLECTION
M  V30 MDLV30/STEABS ATOMS=(3 5 8 9)
M  V30 END COLLECTION
M  V30 END CTAB
M  END
>  <NO.>
3987

>  <Name>
imipramine

>  <SMILES>
COc1ccc([C@H]2[C@@H](S(=O)(=O)c3ccccc3)[C@]2(C#N)C=O)cc1

>  <logBB>


>  <Class>
1

>  <MW>
341.07

>  <nHBAcc>
5

>  <nHBDon>
0

>  <SLogP>
2.34

>  <TopoPSA>
84.23

>  <MMFF94 Energy>
43.986

$$$$
COc1ccc([C@H]2[C@@H](S(C)(=O)=O)[C@@]2(CN)CO)cc1
Actelion Java MolfileCreator 2.0

  0  0  0  0  0  0              0 V3000
M  V30 BEGIN CTAB
M  V30 COUNTS 38 39 0 0 0
M  V30 BEGIN ATOM
M  V30 1 S 0.8841 -0.1607 2.3322 0
M  V30 2 O 0.7788 -1.5336 2.7883 0
M  V30 3 O 1.8767 0.2254 1.3533 0
M  V30 4 C -0.7678 0.3165 1.818 0 CFG=1
M  V30 5 C 1.1477 0.8446 3.769 0
M  V30 6 C -0.9463 1.4926 0.8592 0 CFG=2
M  V30 7 C -1.2767 0.0498 0.4306 0 CFG=1
M  V30 8 C 0.2441 2.2085 0.2384 0
M  V30 9 C -2.0876 2.4626 1.143 0
M  V30 10 C -0.5563 -0.6844 -0.6766 0
M  V30 11 O -0.2168 3.1358 -0.7438 0
M  V30 12 N -3.1022 1.9491 2.0611 0
M  V30 13 C -0.4325 -0.1205 -1.9574 0
M  V30 14 C 0.0652 -1.9261 -0.4745 0
M  V30 15 C 0.2689 -0.7657 -2.9811 0
M  V30 16 C 0.7735 -2.5772 -1.4948 0
M  V30 17 C 0.8802 -1.9965 -2.7547 0
M  V30 18 O 1.5373 -2.5203 -3.8329 0
M  V30 19 C 2.2283 -3.7458 -3.6256 0
M  V30 20 H -1.491 0.1681 2.6104 0
M  V30 21 H 2.125 0.5941 4.1867 0
M  V30 22 H 1.1259 1.8954 3.4746 0
M  V30 23 H 0.3643 0.6321 4.499 0
M  V30 24 H -2.3419 -0.1865 0.4012 0
M  V30 25 H 0.7816 2.7755 1.0054 0
M  V30 26 H 0.944 1.546 -0.2695 0
M  V30 27 H -2.5757 2.7464 0.2036 0
M  V30 28 H -1.6741 3.3743 1.59 0
M  V30 29 H 0.5774 3.4458 -1.2141 0
M  V30 30 H -3.667 1.2572 1.5683 0
M  V30 31 H -3.7517 2.7076 2.2745 0
M  V30 32 H -0.8964 0.8415 -2.1687 0
M  V30 33 H -0.005 -2.4178 0.4937 0
M  V30 34 H 0.3411 -0.2993 -3.9602 0
M  V30 35 H 1.228 -3.5343 -1.2622 0
M  V30 36 H 3.0051 -3.6383 -2.8611 0
M  V30 37 H 2.7212 -4.0144 -4.5649 0
M  V30 38 H 1.5324 -4.5526 -3.3727 0
M  V30 END ATOM
M  V30 BEGIN BOND
M  V30 1 2 1 2
M  V30 2 2 1 3
M  V30 3 1 1 4
M  V30 4 1 1 5
M  V30 5 1 4 6
M  V30 6 1 4 7
M  V30 7 1 6 8
M  V30 8 1 6 9
M  V30 9 1 7 10
M  V30 10 1 8 11
M  V30 11 1 9 12
M  V30 12 2 10 13
M  V30 13 1 10 14
M  V30 14 1 13 15
M  V30 15 2 14 16
M  V30 16 2 15 17
M  V30 17 1 17 18
M  V30 18 1 18 19
M  V30 19 1 6 7
M  V30 20 1 16 17
M  V30 21 1 4 20
M  V30 22 1 5 21
M  V30 23 1 5 22
M  V30 24 1 5 23
M  V30 25 1 7 24
M  V30 26 1 8 25
M  V30 27 1 8 26
M  V30 28 1 9 27
M  V30 29 1 9 28
M  V30 30 1 11 29
M  V30 31 1 12 30
M  V30 32 1 12 31
M  V30 33 1 13 32
M  V30 34 1 14 33
M  V30 35 1 15 34
M  V30 36 1 16 35
M  V30 37 1 19 36
M  V30 38 1 19 37
M  V30 39 1 19 38
M  V30 END BOND
M  V30 BEGIN COLLECTION
M  V30 MDLV30/STEABS ATOMS=(3 4 6 7)
M  V30 END COLLECTION
M  V30 END CTAB
M  END
>  <NO.>
3988

>  <Name>
dapsone

>  <SMILES>
COc1ccc([C@H]2[C@@H](S(C)(=O)=O)[C@@]2(CN)CO)cc1

>  <logBB>


>  <Class>
-1

>  <MW>
285.1

>  <nHBAcc>
5

>  <nHBDon>
2

>  <SLogP>
0.14

>  <TopoPSA>
89.62

>  <MMFF94 Energy>
19.695

$$$$
COc1ccc([C@H]2[C@@H](S(C)(=O)=O)[C@@]2(CO)C(=O)O)cc1
Actelion Java MolfileCreator 2.0

  0  0  0  0  0  0              0 V3000
M  V30 BEGIN CTAB
M  V30 COUNTS 36 37 0 0 0
M  V30 BEGIN ATOM
M  V30 1 S 0.6482 -0.4861 2.3515 0
M  V30 2 O 0.0348 -1.7439 2.7382 0
M  V30 3 O 1.6784 -0.4465 1.3347 0
M  V30 4 C -0.7254 0.5986 1.9166 0 CFG=1
M  V30 5 C 1.2983 0.2224 3.842 0
M  V30 6 C -0.5168 1.7584 0.9624 0 CFG=2
M  V30 7 C -1.2609 0.5027 0.5023 0 CFG=1
M  V30 8 C 0.8289 2.1271 0.4577 0
M  V30 9 C -1.3986 2.9917 1.1081 0
M  V30 10 C -0.7898 -0.449 -0.5755 0
M  V30 11 O 1.0427 2.5714 -0.6584 0
M  V30 12 O 1.7586 2.2245 1.428 0
M  V30 13 O -2.5497 2.7263 1.9055 0
M  V30 14 C -0.8179 -1.8397 -0.382 0
M  V30 15 C -0.2793 -0.0027 -1.8045 0
M  V30 16 C -0.3547 -2.7313 -1.3566 0
M  V30 17 C 0.1878 -0.8893 -2.7864 0
M  V30 18 C 0.1559 -2.2615 -2.5633 0
M  V30 19 O 0.5748 -3.2314 -3.4304 0
M  V30 20 C 1.184 -2.79 -4.6367 0
M  V30 21 H -1.4598 0.6984 2.7052 0
M  V30 22 H 2.1177 -0.4114 4.1881 0
M  V30 23 H 1.666 1.2293 3.6544 0
M  V30 24 H 0.5058 0.2432 4.593 0
M  V30 25 H -2.3485 0.6049 0.4558 0
M  V30 26 H -1.7296 3.3324 0.1209 0
M  V30 27 H -0.8419 3.8011 1.5928 0
M  V30 28 H 2.5762 2.4447 0.9314 0
M  V30 29 H -3.0999 3.5294 1.88 0
M  V30 30 H -1.2137 -2.2533 0.5437 0
M  V30 31 H -0.2568 1.0607 -2.0302 0
M  V30 32 H -0.389 -3.8004 -1.1629 0
M  V30 33 H 0.5664 -0.4668 -3.7107 0
M  V30 34 H 0.4706 -2.2407 -5.2599 0
M  V30 35 H 1.4995 -3.6764 -5.1955 0
M  V30 36 H 2.0769 -2.1893 -4.4337 0
M  V30 END ATOM
M  V30 BEGIN BOND
M  V30 1 2 1 2
M  V30 2 2 1 3
M  V30 3 1 1 4
M  V30 4 1 1 5
M  V30 5 1 4 6
M  V30 6 1 4 7
M  V30 7 1 6 8
M  V30 8 1 6 9
M  V30 9 1 7 10
M  V30 10 2 8 11
M  V30 11 1 8 12
M  V30 12 1 9 13
M  V30 13 2 10 14
M  V30 14 1 10 15
M  V30 15 1 14 16
M  V30 16 2 15 17
M  V30 17 2 16 18
M  V30 18 1 18 19
M  V30 19 1 19 20
M  V30 20 1 6 7
M  V30 21 1 17 18
M  V30 22 1 4 21
M  V30 23 1 5 22
M  V30 24 1 5 23
M  V30 25 1 5 24
M  V30 26 1 7 25
M  V30 27 1 9 26
M  V30 28 1 9 27
M  V30 29 1 12 28
M  V30 30 1 13 29
M  V30 31 1 14 30
M  V30 32 1 15 31
M  V30 33 1 16 32
M  V30 34 1 17 33
M  V30 35 1 20 34
M  V30 36 1 20 35
M  V30 37 1 20 36
M  V30 END BOND
M  V30 BEGIN COLLECTION
M  V30 MDLV30/STEABS ATOMS=(3 4 6 7)
M  V30 END COLLECTION
M  V30 END CTAB
M  END
>  <NO.>
3989

>  <Name>
dihydrocodeine

>  <SMILES>
COc1ccc([C@H]2[C@@H](S(C)(=O)=O)[C@@]2(CO)C(=O)O)cc1

>  <logBB>


>  <Class>
1

>  <MW>
300.07

>  <nHBAcc>
5

>  <nHBDon>
2

>  <SLogP>
0.27

>  <TopoPSA>
100.9

>  <MMFF94 Energy>
-10.637

$$$$
COc1ccc([C@H]2[C@@H](S(C)(=O)=O)[C@]2(C#N)CO)cc1
Actelion Java MolfileCreator 2.0

  0  0  0  0  0  0              0 V3000
M  V30 BEGIN CTAB
M  V30 COUNTS 34 35 0 0 0
M  V30 BEGIN ATOM
M  V30 1 S -1.7073 -1.7073 0.8127 0
M  V30 2 O -1.0065 -0.8045 1.6959 0
M  V30 3 O -3.0883 -2.0779 1.0522 0
M  V30 4 C -1.6884 -1.0793 -0.8727 0 CFG=1
M  V30 5 C -0.7687 -3.206 0.7138 0
M  V30 6 C -2.3129 0.2983 -1.017 0 CFG=2
M  V30 7 C -0.8311 0.0749 -1.3153 0 CFG=1
M  V30 8 C -2.7141 1.0801 0.1283 0
M  V30 9 C -3.2656 0.5149 -2.1753 0
M  V30 10 C 0.348 0.6094 -0.5379 0
M  V30 11 N -3.0973 1.7678 0.98 0
M  V30 12 O -2.9167 -0.291 -3.3003 0
M  V30 13 C 1.4731 -0.2039 -0.3093 0
M  V30 14 C 0.3859 1.9008 0.0073 0
M  V30 15 C 2.5793 0.2432 0.4264 0
M  V30 16 C 1.4883 2.3531 0.7423 0
M  V30 17 C 2.5884 1.5275 0.9602 0
M  V30 18 O 3.597 2.0917 1.6896 0
M  V30 19 C 4.6833 1.2458 2.0431 0
M  V30 20 H -1.9303 -1.8259 -1.6182 0
M  V30 21 H -0.7833 -3.6822 1.6964 0
M  V30 22 H -1.2297 -3.864 -0.0249 0
M  V30 23 H 0.2573 -2.9691 0.432 0
M  V30 24 H -0.5955 0.0594 -2.3829 0
M  V30 25 H -3.2446 1.5632 -2.4933 0
M  V30 26 H -4.2883 0.2525 -1.8821 0
M  V30 27 H -3.5688 -0.0934 -3.9969 0
M  V30 28 H 1.5037 -1.2082 -0.7244 0
M  V30 29 H -0.4427 2.5896 -0.136 0
M  V30 30 H 3.4138 -0.4362 0.5592 0
M  V30 31 H 1.4796 3.3592 1.1549 0
M  V30 32 H 4.3427 0.386 2.6296 0
M  V30 33 H 5.3684 1.8254 2.6693 0
M  V30 34 H 5.2361 0.9245 1.1545 0
M  V30 END ATOM
M  V30 BEGIN BOND
M  V30 1 2 1 2
M  V30 2 2 1 3
M  V30 3 1 1 4
M  V30 4 1 1 5
M  V30 5 1 4 6
M  V30 6 1 4 7
M  V30 7 1 6 8
M  V30 8 1 6 9
M  V30 9 1 7 10
M  V30 10 3 8 11
M  V30 11 1 9 12
M  V30 12 2 10 13
M  V30 13 1 10 14
M  V30 14 1 13 15
M  V30 15 2 14 16
M  V30 16 2 15 17
M  V30 17 1 17 18
M  V30 18 1 18 19
M  V30 19 1 6 7
M  V30 20 1 16 17
M  V30 21 1 4 20
M  V30 22 1 5 21
M  V30 23 1 5 22
M  V30 24 1 5 23
M  V30 25 1 7 24
M  V30 26 1 9 25
M  V30 27 1 9 26
M  V30 28 1 12 27
M  V30 29 1 13 28
M  V30 30 1 14 29
M  V30 31 1 15 30
M  V30 32 1 16 31
M  V30 33 1 19 32
M  V30 34 1 19 33
M  V30 35 1 19 34
M  V30 END BOND
M  V30 BEGIN COLLECTION
M  V30 MDLV30/STEABS ATOMS=(3 4 6 7)
M  V30 END COLLECTION
M  V30 END CTAB
M  END
>  <NO.>
3990

>  <Name>
clofazimine

>  <SMILES>
COc1ccc([C@H]2[C@@H](S(C)(=O)=O)[C@]2(C#N)CO)cc1

>  <logBB>


>  <Class>
-1

>  <MW>
281.07

>  <nHBAcc>
5

>  <nHBDon>
1

>  <SLogP>
0.71

>  <TopoPSA>
87.39

>  <MMFF94 Energy>
14.451

$$$$
COc1ccc([C@H]2[C@H](C#N)[C@@H]2S(=O)(=O)c2ccc(C)cc2)cc1
Actelion Java MolfileCreator 2.0

  0  0  0  0  0  0              0 V3000
M  V30 BEGIN CTAB
M  V30 COUNTS 40 42 0 0 0
M  V30 BEGIN ATOM
M  V30 1 S 2.369 0.169 -2.5384 0
M  V30 2 O 3.7539 0.5928 -2.3805 0
M  V30 3 O 1.7359 0.2533 -3.8471 0
M  V30 4 C 2.1086 -1.4047 -1.7893 0
M  V30 5 C 1.2949 1.4335 -1.2801 0 CFG=1
M  V30 6 C 2.997 -1.8626 -0.8108 0
M  V30 7 C 0.9866 -2.1626 -2.1403 0
M  V30 8 C 0.4809 2.8877 -2.0053 0 CFG=2
M  V30 9 C -0.5161 1.4728 -1.4432 0 CFG=2
M  V30 10 C 2.7678 -3.0939 -0.1942 0
M  V30 11 C 0.7647 -3.3927 -1.5189 0
M  V30 12 C 0.6357 3.1522 -3.6737 0
M  V30 13 C -1.4881 1.6608 0.0135 0
M  V30 14 C 1.6457 -3.8613 -0.535 0
M  V30 15 N 0.7537 3.3538 -4.9454 0
M  V30 16 C -2.7367 1.0268 0.144 0
M  V30 17 C -0.9803 2.3132 1.1511 0
M  V30 18 C 1.4223 -5.2008 0.1051 0
M  V30 19 C -3.4794 1.1011 1.3287 0
M  V30 20 C -1.7149 2.3925 2.3397 0
M  V30 21 C -2.9787 1.8042 2.4282 0
M  V30 22 O -3.612 1.8987 3.6458 0
M  V30 23 C -2.9362 2.6609 4.6346 0
M  V30 24 H 1.7514 1.526 -0.2208 0
M  V30 25 H 3.8701 -1.2773 -0.5266 0
M  V30 26 H 0.2862 -1.8121 -2.8967 0
M  V30 27 H 0.4496 3.864 -1.3863 0
M  V30 28 H -1.0114 0.8012 -2.2436 0
M  V30 29 H 3.4696 -3.4531 0.5566 0
M  V30 30 H -0.102 -3.9861 -1.8053 0
M  V30 31 H -3.1439 0.4629 -0.6941 0
M  V30 32 H 0.0063 2.7726 1.1114 0
M  V30 33 H 1.9233 -5.9809 -0.4761 0
M  V30 34 H 1.813 -5.2147 1.1281 0
M  V30 35 H 0.3536 -5.4325 0.1628 0
M  V30 36 H -4.4396 0.5929 1.3806 0
M  V30 37 H -1.2928 2.9152 3.195 0
M  V30 38 H -1.9672 2.2174 4.888 0
M  V30 39 H -3.5498 2.6493 5.5411 0
M  V30 40 H -2.8247 3.7061 4.3266 0
M  V30 END ATOM
M  V30 BEGIN BOND
M  V30 1 2 1 2
M  V30 2 2 1 3
M  V30 3 1 1 4
M  V30 4 1 1 5
M  V30 5 2 4 6
M  V30 6 1 4 7
M  V30 7 1 5 8
M  V30 8 1 5 9
M  V30 9 1 6 10
M  V30 10 2 7 11
M  V30 11 1 8 12
M  V30 12 1 9 13
M  V30 13 2 10 14
M  V30 14 3 12 15
M  V30 15 2 13 16
M  V30 16 1 13 17
M  V30 17 1 14 18
M  V30 18 1 16 19
M  V30 19 2 17 20
M  V30 20 2 19 21
M  V30 21 1 21 22
M  V30 22 1 22 23
M  V30 23 1 8 9
M  V30 24 1 11 14
M  V30 25 1 20 21
M  V30 26 1 5 24
M  V30 27 1 6 25
M  V30 28 1 7 26
M  V30 29 1 8 27
M  V30 30 1 9 28
M  V30 31 1 10 29
M  V30 32 1 11 30
M  V30 33 1 16 31
M  V30 34 1 17 32
M  V30 35 1 18 33
M  V30 36 1 18 34
M  V30 37 1 18 35
M  V30 38 1 19 36
M  V30 39 1 20 37
M  V30 40 1 23 38
M  V30 41 1 23 39
M  V30 42 1 23 40
M  V30 END BOND
M  V30 BEGIN COLLECTION
M  V30 MDLV30/STEABS ATOMS=(3 5 8 9)
M  V30 END COLLECTION
M  V30 END CTAB
M  END
>  <NO.>
3991

>  <Name>
morphine

>  <SMILES>
COc1ccc([C@H]2[C@H](C#N)[C@@H]2S(=O)(=O)c2ccc(C)cc2)cc1

>  <logBB>


>  <Class>
1

>  <MW>
327.09

>  <nHBAcc>
4

>  <nHBDon>
0

>  <SLogP>
3.08

>  <TopoPSA>
67.16

>  <MMFF94 Energy>
MMFF94 error code 2

$$$$
COc1ccc([C@H]2[C@H](CO)[C@@H]2S(=O)(=O)c2ccc(Cl)cc2)cc1
Actelion Java MolfileCreator 2.0

  0  0  0  0  0  0              0 V3000
M  V30 BEGIN CTAB
M  V30 COUNTS 40 42 0 0 0
M  V30 BEGIN ATOM
M  V30 1 Cl 0.5743 0.0 -6.0019 0
M  V30 2 C 0.272 0.7994 -4.5091 0
M  V30 3 C 1.2309 1.6662 -3.982 0
M  V30 4 C -0.9305 0.5766 -3.8366 0
M  V30 5 C 0.9914 2.3129 -2.7678 0
M  V30 6 C -1.1772 1.2201 -2.6223 0
M  V30 7 C -0.2077 2.0757 -2.0886 0
M  V30 8 S -0.5192 2.8941 -0.5345 0
M  V30 9 O 0.3451 4.0553 -0.4891 0
M  V30 10 O -1.9583 2.9897 -0.3963 0
M  V30 11 C 0.1381 1.6983 0.6521 0 CFG=2
M  V30 12 C -0.8784 0.6829 1.1311 0 CFG=2
M  V30 13 C -0.3471 1.7426 2.08 0 CFG=2
M  V30 14 C -0.4698 -0.7627 1.2922 0
M  V30 15 C -1.2461 2.7949 2.6302 0
M  V30 16 C -0.5774 -1.4171 2.528 0
M  V30 17 C 0.1395 -1.4724 0.2444 0
M  V30 18 O -0.551 4.0277 2.6517 0
M  V30 19 C -0.1352 -2.733 2.696 0
M  V30 20 C 0.584 -2.7914 0.4072 0
M  V30 21 C 0.4449 -3.429 1.6368 0
M  V30 22 O 0.8339 -4.705 1.9332 0
M  V30 23 C 1.4087 -5.4641 0.8771 0
M  V30 24 H 2.1612 1.8467 -4.515 0
M  V30 25 H -1.6804 -0.0894 -4.2565 0
M  V30 26 H 1.7357 2.998 -2.3664 0
M  V30 27 H -2.1216 1.0544 -2.1075 0
M  V30 28 H 1.1652 1.4002 0.4943 0
M  V30 29 H -1.9126 0.8087 0.8137 0
M  V30 30 H 0.3778 1.4409 2.8303 0
M  V30 31 H -2.1688 2.9212 2.06 0
M  V30 32 H -1.5375 2.5432 3.6555 0
M  V30 33 H -1.0207 -0.9015 3.3774 0
M  V30 34 H 0.2677 -0.9991 -0.7267 0
M  V30 35 H 0.2129 3.9346 3.2438 0
M  V30 36 H -0.243 -3.2174 3.6636 0
M  V30 37 H 1.0361 -3.2858 -0.4459 0
M  V30 38 H 0.6992 -5.5956 0.0535 0
M  V30 39 H 1.6491 -6.4562 1.271 0
M  V30 40 H 2.3414 -5.0095 0.5275 0
M  V30 END ATOM
M  V30 BEGIN BOND
M  V30 1 1 1 2
M  V30 2 2 2 3
M  V30 3 1 2 4
M  V30 4 1 3 5
M  V30 5 2 4 6
M  V30 6 2 5 7
M  V30 7 1 7 8
M  V30 8 2 8 9
M  V30 9 2 8 10
M  V30 10 1 8 11
M  V30 11 1 11 12
M  V30 12 1 11 13
M  V30 13 1 12 14
M  V30 14 1 13 15
M  V30 15 2 14 16
M  V30 16 1 14 17
M  V30 17 1 15 18
M  V30 18 1 16 19
M  V30 19 2 17 20
M  V30 20 2 19 21
M  V30 21 1 21 22
M  V30 22 1 22 23
M  V30 23 1 6 7
M  V30 24 1 12 13
M  V30 25 1 20 21
M  V30 26 1 3 24
M  V30 27 1 4 25
M  V30 28 1 5 26
M  V30 29 1 6 27
M  V30 30 1 11 28
M  V30 31 1 12 29
M  V30 32 1 13 30
M  V30 33 1 15 31
M  V30 34 1 15 32
M  V30 35 1 16 33
M  V30 36 1 17 34
M  V30 37 1 18 35
M  V30 38 1 19 36
M  V30 39 1 20 37
M  V30 40 1 23 38
M  V30 41 1 23 39
M  V30 42 1 23 40
M  V30 END BOND
M  V30 BEGIN COLLECTION
M  V30 MDLV30/STEABS ATOMS=(3 11 12 13)
M  V30 END COLLECTION
M  V30 END CTAB
M  END
>  <NO.>
3992

>  <Name>
prednisolone

>  <SMILES>
COc1ccc([C@H]2[C@H](CO)[C@@H]2S(=O)(=O)c2ccc(Cl)cc2)cc1

>  <logBB>


>  <Class>
-1

>  <MW>
352.05

>  <nHBAcc>
4

>  <nHBDon>
1

>  <SLogP>
2.9

>  <TopoPSA>
63.6

>  <MMFF94 Energy>
64.06

$$$$
COc1ccc([C@H]2[C@H](N)[C@@H]2S(C)(=O)=O)cc1
Actelion Java MolfileCreator 2.0

  0  0  0  0  0  0              0 V3000
M  V30 BEGIN CTAB
M  V30 COUNTS 31 32 0 0 0
M  V30 BEGIN ATOM
M  V30 1 S -1.5357 -2.1019 2.6684 0
M  V30 2 O -2.6132 -3.0528 2.4623 0
M  V30 3 O -0.345 -2.4996 3.3986 0
M  V30 4 C -0.9374 -1.66 1.0338 0 CFG=1
M  V30 5 C -2.195 -0.6865 3.4961 0
M  V30 6 C -1.9054 -1.0488 0.0681 0 CFG=2
M  V30 7 C -0.8264 -0.1936 0.7052 0 CFG=2
M  V30 8 N -3.3057 -0.759 0.383 0
M  V30 9 C 0.3438 0.3014 -0.1143 0
M  V30 10 C 0.1509 0.9937 -1.3208 0
M  V30 11 C 1.6654 -0.0074 0.2413 0
M  V30 12 C 1.2288 1.3982 -2.1198 0
M  V30 13 C 2.7445 0.3935 -0.5527 0
M  V30 14 C 2.5336 1.1007 -1.7356 0
M  V30 15 O 3.6711 1.432 -2.4168 0
M  V30 16 C 3.5077 2.1657 -3.6238 0
M  V30 17 H -0.2125 -2.3499 0.6222 0
M  V30 18 H -2.5338 -1.0103 4.4838 0
M  V30 19 H -1.4085 0.0596 3.6191 0
M  V30 20 H -3.0432 -0.2814 2.9471 0
M  V30 21 H -1.7558 -1.3588 -0.9661 0
M  V30 22 H -1.1776 0.5368 1.4264 0
M  V30 23 H -3.7539 -0.247 -0.379 0
M  V30 24 H -3.8369 -1.6322 0.4708 0
M  V30 25 H -0.8601 1.2334 -1.6454 0
M  V30 26 H 1.8669 -0.5647 1.1548 0
M  V30 27 H 1.0104 1.939 -3.0344 0
M  V30 28 H 3.7583 0.1475 -0.2453 0
M  V30 29 H 2.9455 1.587 -4.3641 0
M  V30 30 H 4.503 2.3565 -4.0365 0
M  V30 31 H 3.0337 3.135 -3.4359 0
M  V30 END ATOM
M  V30 BEGIN BOND
M  V30 1 2 1 2
M  V30 2 2 1 3
M  V30 3 1 1 4
M  V30 4 1 1 5
M  V30 5 1 4 6
M  V30 6 1 4 7
M  V30 7 1 6 8
M  V30 8 1 7 9
M  V30 9 2 9 10
M  V30 10 1 9 11
M  V30 11 1 10 12
M  V30 12 2 11 13
M  V30 13 2 12 14
M  V30 14 1 14 15
M  V30 15 1 15 16
M  V30 16 1 6 7
M  V30 17 1 13 14
M  V30 18 1 4 17
M  V30 19 1 5 18
M  V30 20 1 5 19
M  V30 21 1 5 20
M  V30 22 1 6 21
M  V30 23 1 7 22
M  V30 24 1 8 23
M  V30 25 1 8 24
M  V30 26 1 10 25
M  V30 27 1 11 26
M  V30 28 1 12 27
M  V30 29 1 13 28
M  V30 30 1 16 29
M  V30 31 1 16 30
M  V30 32 1 16 31
M  V30 END BOND
M  V30 BEGIN COLLECTION
M  V30 MDLV30/STEABS ATOMS=(3 4 6 7)
M  V30 END COLLECTION
M  V30 END CTAB
M  END
>  <NO.>
3993

>  <Name>
droperidol

>  <SMILES>
COc1ccc([C@H]2[C@H](N)[C@@H]2S(C)(=O)=O)cc1

>  <logBB>


>  <Class>
1

>  <MW>
241.08

>  <nHBAcc>
4

>  <nHBDon>
1

>  <SLogP>
0.53

>  <TopoPSA>
69.39

>  <MMFF94 Energy>
37.032

$$$$
COc1ccc([C@H]2[C@H](S(=O)(=O)c3ccc(Cl)cc3)[C@@]2(CN)CO)cc1
Actelion Java MolfileCreator 2.0

  0  0  0  0  0  0              0 V3000
M  V30 BEGIN CTAB
M  V30 COUNTS 45 47 0 0 0
M  V30 BEGIN ATOM
M  V30 1 Cl -1.468 -4.5726 -5.3089 0
M  V30 2 C -0.4893 -3.5 -4.3863 0
M  V30 3 C -0.1402 -3.8358 -3.0771 0
M  V30 4 C -0.0495 -2.3031 -4.9545 0
M  V30 5 C 0.6524 -2.9669 -2.325 0
M  V30 6 C 0.7436 -1.429 -4.2084 0
M  V30 7 C 1.0815 -1.7629 -2.8936 0
M  V30 8 S 2.0943 -0.661 -1.9325 0
M  V30 9 O 2.8855 -1.485 -1.0409 0
M  V30 10 O 2.7168 0.2744 -2.8472 0
M  V30 11 C 0.8748 0.2578 -0.9703 0 CFG=2
M  V30 12 C 1.3768 1.4413 -0.1542 0 CFG=2
M  V30 13 C 0.9911 0.1222 0.5264 0 CFG=1
M  V30 14 C 0.4328 2.6233 -0.1647 0
M  V30 15 C 2.844 1.8188 -0.11 0
M  V30 16 C -0.2324 0.0263 1.4085 0
M  V30 17 O 0.5291 3.2654 -1.4303 0
M  V30 18 N 3.1558 2.3868 1.2014 0
M  V30 19 C -0.2995 0.75 2.6108 0
M  V30 20 C -1.367 -0.7108 1.0409 0
M  V30 21 C -1.4383 0.725 3.4256 0
M  V30 22 C -2.5074 -0.7378 1.8504 0
M  V30 23 C -2.5496 -0.0229 3.047 0
M  V30 24 O -3.7217 -0.1347 3.7412 0
M  V30 25 C -3.7927 0.5357 4.9933 0
M  V30 26 H -0.4759 -4.774 -2.642 0
M  V30 27 H -0.3166 -2.0491 -5.9774 0
M  V30 28 H 0.9355 -3.2372 -1.3094 0
M  V30 29 H 1.0921 -0.501 -4.6577 0
M  V30 30 H -0.0991 0.3544 -1.4301 0
M  V30 31 H 1.8279 -0.4591 0.9137 0
M  V30 32 H -0.6115 2.3232 -0.0326 0
M  V30 33 H 0.6749 3.3464 0.6197 0
M  V30 34 H 3.0914 2.5348 -0.9009 0
M  V30 35 H 3.4959 0.952 -0.2415 0
M  V30 36 H -0.0749 4.027 -1.4041 0
M  V30 37 H 2.8501 3.3587 1.2175 0
M  V30 38 H 4.1715 2.4308 1.2926 0
M  V30 39 H 0.5613 1.3414 2.9224 0
M  V30 40 H -1.3713 -1.2835 0.1171 0
M  V30 41 H -1.419 1.301 4.3445 0
M  V30 42 H -3.3706 -1.3241 1.5444 0
M  V30 43 H -3.0353 0.1578 5.6881 0
M  V30 44 H -4.7755 0.3292 5.4279 0
M  V30 45 H -3.7066 1.6198 4.8652 0
M  V30 END ATOM
M  V30 BEGIN BOND
M  V30 1 1 1 2
M  V30 2 2 2 3
M  V30 3 1 2 4
M  V30 4 1 3 5
M  V30 5 2 4 6
M  V30 6 2 5 7
M  V30 7 1 7 8
M  V30 8 2 8 9
M  V30 9 2 8 10
M  V30 10 1 8 11
M  V30 11 1 11 12
M  V30 12 1 11 13
M  V30 13 1 12 14
M  V30 14 1 12 15
M  V30 15 1 13 16
M  V30 16 1 14 17
M  V30 17 1 15 18
M  V30 18 2 16 19
M  V30 19 1 16 20
M  V30 20 1 19 21
M  V30 21 2 20 22
M  V30 22 2 21 23
M  V30 23 1 23 24
M  V30 24 1 24 25
M  V30 25 1 6 7
M  V30 26 1 12 13
M  V30 27 1 22 23
M  V30 28 1 3 26
M  V30 29 1 4 27
M  V30 30 1 5 28
M  V30 31 1 6 29
M  V30 32 1 11 30
M  V30 33 1 13 31
M  V30 34 1 14 32
M  V30 35 1 14 33
M  V30 36 1 15 34
M  V30 37 1 15 35
M  V30 38 1 17 36
M  V30 39 1 18 37
M  V30 40 1 18 38
M  V30 41 1 19 39
M  V30 42 1 20 40
M  V30 43 1 21 41
M  V30 44 1 22 42
M  V30 45 1 25 43
M  V30 46 1 25 44
M  V30 47 1 25 45
M  V30 END BOND
M  V30 BEGIN COLLECTION
M  V30 MDLV30/STEABS ATOMS=(3 11 12 13)
M  V30 END COLLECTION
M  V30 END CTAB
M  END
>  <NO.>
3994

>  <Name>
pergolide

>  <SMILES>
COc1ccc([C@H]2[C@H](S(=O)(=O)c3ccc(Cl)cc3)[C@@]2(CN)CO)cc1

>  <logBB>


>  <Class>
1

>  <MW>
381.08

>  <nHBAcc>
5

>  <nHBDon>
2

>  <SLogP>
2.23

>  <TopoPSA>
89.62

>  <MMFF94 Energy>
50.013

$$$$
COc1ccc([C@H]2[C@H](S(=O)(=O)c3ccc(Cl)cc3)[C@@]2(N)C#N)cc1
Actelion Java MolfileCreator 2.0

  0  0  0  0  0  0              0 V3000
M  V30 BEGIN CTAB
M  V30 COUNTS 39 41 0 0 0
M  V30 BEGIN ATOM
M  V30 1 Cl -4.3797 3.056 -2.6426 0
M  V30 2 C -2.7072 2.7467 -2.3891 0
M  V30 3 C -2.1301 1.5903 -2.9156 0
M  V30 4 C -1.9382 3.6552 -1.6602 0
M  V30 5 C -0.7732 1.334 -2.7088 0
M  V30 6 C -0.5807 3.4055 -1.4483 0
M  V30 7 C -0.009 2.2386 -1.9644 0
M  V30 8 S 1.7142 1.9102 -1.6937 0
M  V30 9 O 2.1913 1.0986 -2.7966 0
M  V30 10 O 2.3597 3.16 -1.3492 0
M  V30 11 C 1.7123 0.9255 -0.2004 0 CFG=2
M  V30 12 C 2.8902 0.0053 0.0141 0 CFG=1
M  V30 13 C 1.5221 -0.5528 -0.405 0 CFG=1
M  V30 14 N 3.991 -0.182 -0.971 0
M  V30 15 C 3.3026 -0.0898 1.4086 0
M  V30 16 C 0.6317 -1.3438 0.5283 0
M  V30 17 N 3.6324 -0.1248 2.5208 0
M  V30 18 C -0.6383 -0.8779 0.9093 0
M  V30 19 C 1.0778 -2.5348 1.1202 0
M  V30 20 C -1.4412 -1.5834 1.8161 0
M  V30 21 C 0.2802 -3.2411 2.0259 0
M  V30 22 C -0.9837 -2.7714 2.3784 0
M  V30 23 O -1.6599 -3.5559 3.2696 0
M  V30 24 C -2.9396 -3.0996 3.6889 0
M  V30 25 H -2.7305 0.8908 -3.4927 0
M  V30 26 H -2.3894 4.5611 -1.2614 0
M  V30 27 H -0.327 0.4374 -3.1342 0
M  V30 28 H 0.0156 4.1244 -0.8895 0
M  V30 29 H 1.2734 1.401 0.6672 0
M  V30 30 H 1.4691 -0.9164 -1.4306 0
M  V30 31 H 4.7432 0.491 -0.8089 0
M  V30 32 H 3.6781 -0.0124 -1.9342 0
M  V30 33 H -1.0292 0.0466 0.4899 0
M  V30 34 H 2.0622 -2.9307 0.8753 0
M  V30 35 H -2.4161 -1.1747 2.0605 0
M  V30 36 H 0.6538 -4.1636 2.4644 0
M  V30 37 H -2.8671 -2.1334 4.1992 0
M  V30 38 H -3.3354 -3.8256 4.4056 0
M  V30 39 H -3.6363 -3.0503 2.8456 0
M  V30 END ATOM
M  V30 BEGIN BOND
M  V30 1 1 1 2
M  V30 2 2 2 3
M  V30 3 1 2 4
M  V30 4 1 3 5
M  V30 5 2 4 6
M  V30 6 2 5 7
M  V30 7 1 7 8
M  V30 8 2 8 9
M  V30 9 2 8 10
M  V30 10 1 8 11
M  V30 11 1 11 12
M  V30 12 1 11 13
M  V30 13 1 12 14
M  V30 14 1 12 15
M  V30 15 1 13 16
M  V30 16 3 15 17
M  V30 17 2 16 18
M  V30 18 1 16 19
M  V30 19 1 18 20
M  V30 20 2 19 21
M  V30 21 2 20 22
M  V30 22 1 22 23
M  V30 23 1 23 24
M  V30 24 1 6 7
M  V30 25 1 12 13
M  V30 26 1 21 22
M  V30 27 1 3 25
M  V30 28 1 4 26
M  V30 29 1 5 27
M  V30 30 1 6 28
M  V30 31 1 11 29
M  V30 32 1 13 30
M  V30 33 1 14 31
M  V30 34 1 14 32
M  V30 35 1 18 33
M  V30 36 1 19 34
M  V30 37 1 20 35
M  V30 38 1 21 36
M  V30 39 1 24 37
M  V30 40 1 24 38
M  V30 41 1 24 39
M  V30 END BOND
M  V30 BEGIN COLLECTION
M  V30 MDLV30/STEABS ATOMS=(3 11 12 13)
M  V30 END COLLECTION
M  V30 END CTAB
M  END
>  <NO.>
3995

>  <Name>
oxymorphone

>  <SMILES>
COc1ccc([C@H]2[C@H](S(=O)(=O)c3ccc(Cl)cc3)[C@@]2(N)C#N)cc1

>  <logBB>


>  <Class>
1

>  <MW>
362.05

>  <nHBAcc>
5

>  <nHBDon>
1

>  <SLogP>
2.51

>  <TopoPSA>
93.18

>  <MMFF94 Energy>
76.022

$$$$
COc1ccc([C@H]2[C@H](S(=O)(=O)c3ccc(Cl)cc3)[C@@]2(N)C(=O)O)cc1
Actelion Java MolfileCreator 2.0

  0  0  0  0  0  0              0 V3000
M  V30 BEGIN CTAB
M  V30 COUNTS 41 43 0 0 0
M  V30 BEGIN ATOM
M  V30 1 Cl 5.9347 -0.1645 -3.7061 0
M  V30 2 C 4.8871 0.4047 -2.466 0
M  V30 3 C 4.4884 -0.4607 -1.4461 0
M  V30 4 C 4.4463 1.7292 -2.4866 0
M  V30 5 C 3.6376 -0.002 -0.4386 0
M  V30 6 C 3.5952 2.1957 -1.4823 0
M  V30 7 C 3.1882 1.3228 -0.4692 0
M  V30 8 S 2.1054 1.8979 0.8215 0
M  V30 9 O 2.5273 1.2352 2.0385 0
M  V30 10 O 2.0357 3.3439 0.7196 0
M  V30 11 C 0.5102 1.2668 0.3064 0 CFG=2
M  V30 12 C -0.6784 1.8339 1.0555 0 CFG=1
M  V30 13 C -0.2154 0.3925 1.2857 0 CFG=1
M  V30 14 N -0.5621 2.7226 2.256 0
M  V30 15 C -1.8708 2.1633 0.1877 0
M  V30 16 C -1.0493 -0.7843 0.8343 0
M  V30 17 O -2.0944 1.6826 -0.9114 0
M  V30 18 O -2.7236 3.0538 0.7475 0
M  V30 19 C -0.6312 -1.6462 -0.1901 0
M  V30 20 C -2.3235 -1.0113 1.3812 0
M  V30 21 C -1.4398 -2.7004 -0.6273 0
M  V30 22 C -3.1368 -2.0662 0.9468 0
M  V30 23 C -2.6954 -2.9179 -0.0615 0
M  V30 24 O -3.3813 -3.9811 -0.5784 0
M  V30 25 C -4.6677 -4.2425 -0.0317 0
M  V30 26 H 4.8433 -1.4884 -1.4273 0
M  V30 27 H 4.7666 2.4025 -3.2782 0
M  V30 28 H 3.3416 -0.6741 0.3647 0
M  V30 29 H 3.2633 3.2319 -1.498 0
M  V30 30 H 0.394 1.085 -0.7533 0
M  V30 31 H 0.2753 0.2129 2.2424 0
M  V30 32 H -0.0193 3.5583 2.0143 0
M  V30 33 H -1.4958 3.0865 2.4763 0
M  V30 34 H -3.4329 3.1409 0.0763 0
M  V30 35 H 0.34 -1.5095 -0.6586 0
M  V30 36 H -2.6908 -0.3582 2.1716 0
M  V30 37 H -1.0869 -3.3562 -1.4196 0
M  V30 38 H -4.106 -2.1893 1.418 0
M  V30 39 H -4.6021 -4.4847 1.0342 0
M  V30 40 H -5.0785 -5.1162 -0.5467 0
M  V30 41 H -5.3488 -3.4028 -0.2056 0
M  V30 END ATOM
M  V30 BEGIN BOND
M  V30 1 1 1 2
M  V30 2 2 2 3
M  V30 3 1 2 4
M  V30 4 1 3 5
M  V30 5 2 4 6
M  V30 6 2 5 7
M  V30 7 1 7 8
M  V30 8 2 8 9
M  V30 9 2 8 10
M  V30 10 1 8 11
M  V30 11 1 11 12
M  V30 12 1 11 13
M  V30 13 1 12 14
M  V30 14 1 12 15
M  V30 15 1 13 16
M  V30 16 2 15 17
M  V30 17 1 15 18
M  V30 18 2 16 19
M  V30 19 1 16 20
M  V30 20 1 19 21
M  V30 21 2 20 22
M  V30 22 2 21 23
M  V30 23 1 23 24
M  V30 24 1 24 25
M  V30 25 1 6 7
M  V30 26 1 12 13
M  V30 27 1 22 23
M  V30 28 1 3 26
M  V30 29 1 4 27
M  V30 30 1 5 28
M  V30 31 1 6 29
M  V30 32 1 11 30
M  V30 33 1 13 31
M  V30 34 1 14 32
M  V30 35 1 14 33
M  V30 36 1 18 34
M  V30 37 1 19 35
M  V30 38 1 20 36
M  V30 39 1 21 37
M  V30 40 1 22 38
M  V30 41 1 25 39
M  V30 42 1 25 40
M  V30 43 1 25 41
M  V30 END BOND
M  V30 BEGIN COLLECTION
M  V30 MDLV30/STEABS ATOMS=(3 11 12 13)
M  V30 END COLLECTION
M  V30 END CTAB
M  END
>  <NO.>
3996

>  <Name>
prednisone

>  <SMILES>
COc1ccc([C@H]2[C@H](S(=O)(=O)c3ccc(Cl)cc3)[C@@]2(N)C(=O)O)cc1

>  <logBB>


>  <Class>
-1

>  <MW>
381.04

>  <nHBAcc>
5

>  <nHBDon>
2

>  <SLogP>
2.07

>  <TopoPSA>
106.69

>  <MMFF94 Energy>
70.438

$$$$
COc1ccc([C@H]2[C@H](S(=O)(=O)c3ccc(Cl)cc3)[C@]2(C#N)CO)cc1
Actelion Java MolfileCreator 2.0

  0  0  0  0  0  0              0 V3000
M  V30 BEGIN CTAB
M  V30 COUNTS 41 43 0 0 0
M  V30 BEGIN ATOM
M  V30 1 Cl -3.3011 -3.7969 -5.0374 0
M  V30 2 C -2.5376 -3.4828 -3.5284 0
M  V30 3 C -3.2081 -2.7405 -2.5549 0
M  V30 4 C -1.2545 -3.976 -3.2864 0
M  V30 5 C -2.5913 -2.4832 -1.3288 0
M  V30 6 C -0.6309 -3.7232 -2.0626 0
M  V30 7 C -1.3004 -2.9677 -1.0944 0
M  V30 8 S -0.5146 -2.6498 0.4694 0
M  V30 9 O -1.5642 -2.3689 1.426 0
M  V30 10 O 0.4473 -3.7129 0.6899 0
M  V30 11 C 0.3941 -1.1303 0.1653 0 CFG=2
M  V30 12 C 1.6982 -0.912 0.9253 0 CFG=2
M  V30 13 C 0.4258 -0.1678 1.3312 0 CFG=1
M  V30 14 C 2.712 -0.2511 0.1352 0
M  V30 15 C 2.3168 -1.8809 1.9111 0
M  V30 16 C 0.2374 1.3162 1.0943 0
M  V30 17 N 3.5318 0.2477 -0.5153 0
M  V30 18 O 1.3825 -2.3835 2.8563 0
M  V30 19 C 1.1474 2.2594 1.5991 0
M  V30 20 C -0.7946 1.8012 0.2762 0
M  V30 21 C 1.0224 3.6278 1.3233 0
M  V30 22 C -0.925 3.166 2.0E-4 0
M  V30 23 C -0.0177 4.0872 0.5207 0
M  V30 24 O -0.2562 5.3871 0.1727 0
M  V30 25 C 0.657 6.3608 0.663 0
M  V30 26 H -4.2122 -2.3673 -2.7435 0
M  V30 27 H -0.7401 -4.5624 -4.0443 0
M  V30 28 H -3.1254 -1.9164 -0.5681 0
M  V30 29 H 0.3636 -4.123 -1.8758 0
M  V30 30 H 0.3114 -0.7244 -0.8351 0
M  V30 31 H -0.0421 -0.4985 2.259 0
M  V30 32 H 3.0925 -1.3662 2.49 0
M  V30 33 H 2.7999 -2.719 1.3952 0
M  V30 34 H 1.1222 -3.276 2.5472 0
M  V30 35 H 1.9731 1.9314 2.2285 0
M  V30 36 H -1.525 1.115 -0.1462 0
M  V30 37 H 1.7579 4.3017 1.7496 0
M  V30 38 H -1.7416 3.5134 -0.6283 0
M  V30 39 H 0.6434 6.3988 1.7573 0
M  V30 40 H 0.3342 7.3385 0.2922 0
M  V30 41 H 1.6687 6.1791 0.2855 0
M  V30 END ATOM
M  V30 BEGIN BOND
M  V30 1 1 1 2
M  V30 2 2 2 3
M  V30 3 1 2 4
M  V30 4 1 3 5
M  V30 5 2 4 6
M  V30 6 2 5 7
M  V30 7 1 7 8
M  V30 8 2 8 9
M  V30 9 2 8 10
M  V30 10 1 8 11
M  V30 11 1 11 12
M  V30 12 1 11 13
M  V30 13 1 12 14
M  V30 14 1 12 15
M  V30 15 1 13 16
M  V30 16 3 14 17
M  V30 17 1 15 18
M  V30 18 2 16 19
M  V30 19 1 16 20
M  V30 20 1 19 21
M  V30 21 2 20 22
M  V30 22 2 21 23
M  V30 23 1 23 24
M  V30 24 1 24 25
M  V30 25 1 6 7
M  V30 26 1 12 13
M  V30 27 1 22 23
M  V30 28 1 3 26
M  V30 29 1 4 27
M  V30 30 1 5 28
M  V30 31 1 6 29
M  V30 32 1 11 30
M  V30 33 1 13 31
M  V30 34 1 15 32
M  V30 35 1 15 33
M  V30 36 1 18 34
M  V30 37 1 19 35
M  V30 38 1 20 36
M  V30 39 1 21 37
M  V30 40 1 22 38
M  V30 41 1 25 39
M  V30 42 1 25 40
M  V30 43 1 25 41
M  V30 END BOND
M  V30 BEGIN COLLECTION
M  V30 MDLV30/STEABS ATOMS=(3 11 12 13)
M  V30 END COLLECTION
M  V30 END CTAB
M  END
>  <NO.>
3997

>  <Name>
oxaprozin

>  <SMILES>
COc1ccc([C@H]2[C@H](S(=O)(=O)c3ccc(Cl)cc3)[C@]2(C#N)CO)cc1

>  <logBB>


>  <Class>
-1

>  <MW>
377.05

>  <nHBAcc>
5

>  <nHBDon>
1

>  <SLogP>
2.79

>  <TopoPSA>
87.39

>  <MMFF94 Energy>
42.023

$$$$
COc1ccc([C@H]2[C@H](S(=O)(=O)c3ccc(Cl)cc3)[C@]2(C=O)NC(=O)OC(C)(C)C)cc1
Actelion Java MolfileCreator 2.0

  0  0  0  0  0  0              0 V3000
M  V30 BEGIN CTAB
M  V30 COUNTS 55 57 0 0 0
M  V30 BEGIN ATOM
M  V30 1 Cl -0.1626 -3.8268 -6.1119 0
M  V30 2 C -0.5567 -2.7565 -4.8242 0
M  V30 3 C 0.0864 -1.5214 -4.73 0
M  V30 4 C -1.5189 -3.1295 -3.8843 0
M  V30 5 C -0.23 -0.6507 -3.6852 0
M  V30 6 C -1.8402 -2.2643 -2.8361 0
M  V30 7 C -1.1857 -1.0329 -2.7377 0
M  V30 8 S -1.582 0.0794 -1.4083 0
M  V30 9 O -1.5464 1.4234 -1.951 0
M  V30 10 O -2.7566 -0.4378 -0.7367 0
M  V30 11 C -0.2044 -0.1457 -0.2784 0 CFG=2
M  V30 12 C -0.0295 0.9164 0.795 0 CFG=1
M  V30 13 C 0.9042 0.8525 -0.4306 0 CFG=1
M  V30 14 N -0.8591 2.1011 0.8922 0
M  V30 15 C 0.4515 0.3911 2.1328 0
M  V30 16 C 2.3754 0.5152 -0.2934 0
M  V30 17 C -2.0565 2.1859 1.5533 0
M  V30 18 O 1.0183 -0.6899 2.2544 0
M  V30 19 C 3.3273 1.5473 -0.3653 0
M  V30 20 C 2.8779 -0.7954 -0.2538 0
M  V30 21 O -2.6824 3.2334 1.6097 0
M  V30 22 O -2.4063 1.0089 2.1191 0
M  V30 23 C 4.7014 1.2872 -0.334 0
M  V30 24 C 4.2547 -1.0633 -0.2181 0
M  V30 25 C -3.6596 0.8687 2.8357 0
M  V30 26 C 5.1737 -0.0199 -0.253 0
M  V30 27 C -3.6754 1.7488 4.09 0
M  V30 28 C -3.696 -0.605 3.2667 0
M  V30 29 C -4.8642 1.1443 1.9292 0
M  V30 30 O 6.5345 -0.1397 -0.2272 0
M  V30 31 C 7.0599 -1.4532 -0.0817 0
M  V30 32 H 0.8287 -1.2307 -5.4696 0
M  V30 33 H -2.0241 -4.089 -3.9659 0
M  V30 34 H 0.264 0.3166 -3.6247 0
M  V30 35 H -2.5976 -2.5574 -2.1114 0
M  V30 36 H 0.0026 -1.1701 -0.0077 0
M  V30 37 H 0.7424 1.6503 -1.1568 0
M  V30 38 H -0.5901 2.9544 0.4163 0
M  V30 39 H 0.2808 1.0451 3.0047 0
M  V30 40 H 2.9998 2.5827 -0.4417 0
M  V30 41 H 2.1996 -1.6447 -0.228 0
M  V30 42 H 5.4075 2.113 -0.3764 0
M  V30 43 H 4.5679 -2.1007 -0.1649 0
M  V30 44 H -3.7097 2.8137 3.8406 0
M  V30 45 H -4.545 1.5305 4.7194 0
M  V30 46 H -2.7676 1.5951 4.6842 0
M  V30 47 H -2.828 -0.8504 3.8898 0
M  V30 48 H -4.6046 -0.8425 3.8298 0
M  V30 49 H -3.646 -1.2669 2.3941 0
M  V30 50 H -4.9262 2.1974 1.6392 0
M  V30 51 H -4.795 0.5666 1.0013 0
M  V30 52 H -5.8046 0.887 2.4286 0
M  V30 53 H 6.728 -1.9108 0.8562 0
M  V30 54 H 8.1507 -1.3747 -0.0461 0
M  V30 55 H 6.799 -2.0788 -0.9415 0
M  V30 END ATOM
M  V30 BEGIN BOND
M  V30 1 1 1 2
M  V30 2 2 2 3
M  V30 3 1 2 4
M  V30 4 1 3 5
M  V30 5 2 4 6
M  V30 6 2 5 7
M  V30 7 1 7 8
M  V30 8 2 8 9
M  V30 9 2 8 10
M  V30 10 1 8 11
M  V30 11 1 11 12
M  V30 12 1 11 13
M  V30 13 1 12 14
M  V30 14 1 12 15
M  V30 15 1 13 16
M  V30 16 1 14 17
M  V30 17 2 15 18
M  V30 18 2 16 19
M  V30 19 1 16 20
M  V30 20 2 17 21
M  V30 21 1 17 22
M  V30 22 1 19 23
M  V30 23 2 20 24
M  V30 24 1 22 25
M  V30 25 2 23 26
M  V30 26 1 25 27
M  V30 27 1 25 28
M  V30 28 1 25 29
M  V30 29 1 26 30
M  V30 30 1 30 31
M  V30 31 1 6 7
M  V30 32 1 12 13
M  V30 33 1 24 26
M  V30 34 1 3 32
M  V30 35 1 4 33
M  V30 36 1 5 34
M  V30 37 1 6 35
M  V30 38 1 11 36
M  V30 39 1 13 37
M  V30 40 1 14 38
M  V30 41 1 15 39
M  V30 42 1 19 40
M  V30 43 1 20 41
M  V30 44 1 23 42
M  V30 45 1 24 43
M  V30 46 1 27 44
M  V30 47 1 27 45
M  V30 48 1 27 46
M  V30 49 1 28 47
M  V30 50 1 28 48
M  V30 51 1 28 49
M  V30 52 1 29 50
M  V30 53 1 29 51
M  V30 54 1 29 52
M  V30 55 1 31 53
M  V30 56 1 31 54
M  V30 57 1 31 55
M  V30 END BOND
M  V30 BEGIN COLLECTION
M  V30 MDLV30/STEABS ATOMS=(3 11 12 13)
M  V30 END COLLECTION
M  V30 END CTAB
M  END
>  <NO.>
3998

>  <Name>
mepyramine

>  <SMILES>
COc1ccc([C@H]2[C@H](S(=O)(=O)c3ccc(Cl)cc3)[C@]2(C=O)NC(=O)OC(C)(C)C)cc1

>  <logBB>


>  <Class>
1

>  <MW>
465.1

>  <nHBAcc>
6

>  <nHBDon>
1

>  <SLogP>
3.75

>  <TopoPSA>
98.77

>  <MMFF94 Energy>
31.449

$$$$
COc1ccc([C@H]2[C@H](S(=O)(=O)c3ccccc3)[C@@]2(N)CO)cc1
Actelion Java MolfileCreator 2.0

  0  0  0  0  0  0              0 V3000
M  V30 BEGIN CTAB
M  V30 COUNTS 42 44 0 0 0
M  V30 BEGIN ATOM
M  V30 1 S -0.3237 2.4304 -1.2146 0
M  V30 2 O 0.1287 2.4639 -2.594 0
M  V30 3 O 0.2538 3.3274 -0.2328 0
M  V30 4 C -2.0808 2.6811 -1.2573 0
M  V30 5 C -0.1144 0.7191 -0.6923 0 CFG=2
M  V30 6 C -2.8437 1.9854 -2.2006 0
M  V30 7 C -2.6822 3.5806 -0.3735 0
M  V30 8 C -0.6345 0.2762 0.6511 0 CFG=1
M  V30 9 C 0.8643 0.5249 0.4387 0 CFG=1
M  V30 10 C -4.2247 2.1771 -2.2401 0
M  V30 11 C -4.0638 3.7657 -0.4191 0
M  V30 12 N -1.3187 1.217 1.5727 0
M  V30 13 C -1.1878 -1.1459 0.6828 0
M  V30 14 C 1.8924 -0.5822 0.3609 0
M  V30 15 C -4.833 3.0631 -1.3486 0
M  V30 16 O -1.2714 -1.6029 2.0297 0
M  V30 17 C 2.053 -1.5099 1.4023 0
M  V30 18 C 2.66 -0.7855 -0.7965 0
M  V30 19 C 2.9557 -2.5777 1.3094 0
M  V30 20 C 3.5639 -1.8483 -0.8941 0
M  V30 21 C 3.7181 -2.7499 0.1577 0
M  V30 22 O 4.6295 -3.7435 -0.066 0
M  V30 23 C 4.8383 -4.6719 0.9906 0
M  V30 24 H -0.123 0.0017 -1.5017 0
M  V30 25 H -2.3722 1.312 -2.9122 0
M  V30 26 H -2.0854 4.1318 0.3504 0
M  V30 27 H 1.2567 1.4199 0.9212 0
M  V30 28 H -4.8277 1.6468 -2.9734 0
M  V30 29 H -4.5405 4.464 0.2648 0
M  V30 30 H -0.9739 1.1123 2.5279 0
M  V30 31 H -2.3312 1.0968 1.5858 0
M  V30 32 H -2.197 -1.1598 0.2558 0
M  V30 33 H -0.5803 -1.8549 0.1127 0
M  V30 34 H -5.9092 3.2166 -1.3867 0
M  V30 35 H -1.8144 -0.9553 2.5073 0
M  V30 36 H 1.4608 -1.4046 2.3103 0
M  V30 37 H 2.569 -0.0993 -1.6369 0
M  V30 38 H 3.0292 -3.2545 2.1538 0
M  V30 39 H 4.1523 -1.9716 -1.8001 0
M  V30 40 H 5.217 -4.1712 1.888 0
M  V30 41 H 5.5992 -5.3864 0.6622 0
M  V30 42 H 3.9244 -5.235 1.2072 0
M  V30 END ATOM
M  V30 BEGIN BOND
M  V30 1 2 1 2
M  V30 2 2 1 3
M  V30 3 1 1 4
M  V30 4 1 1 5
M  V30 5 2 4 6
M  V30 6 1 4 7
M  V30 7 1 5 8
M  V30 8 1 5 9
M  V30 9 1 6 10
M  V30 10 2 7 11
M  V30 11 1 8 12
M  V30 12 1 8 13
M  V30 13 1 9 14
M  V30 14 2 10 15
M  V30 15 1 13 16
M  V30 16 2 14 17
M  V30 17 1 14 18
M  V30 18 1 17 19
M  V30 19 2 18 20
M  V30 20 2 19 21
M  V30 21 1 21 22
M  V30 22 1 22 23
M  V30 23 1 8 9
M  V30 24 1 11 15
M  V30 25 1 20 21
M  V30 26 1 5 24
M  V30 27 1 6 25
M  V30 28 1 7 26
M  V30 29 1 9 27
M  V30 30 1 10 28
M  V30 31 1 11 29
M  V30 32 1 12 30
M  V30 33 1 12 31
M  V30 34 1 13 32
M  V30 35 1 13 33
M  V30 36 1 15 34
M  V30 37 1 16 35
M  V30 38 1 17 36
M  V30 39 1 18 37
M  V30 40 1 19 38
M  V30 41 1 20 39
M  V30 42 1 23 40
M  V30 43 1 23 41
M  V30 44 1 23 42
M  V30 END BOND
M  V30 BEGIN COLLECTION
M  V30 MDLV30/STEABS ATOMS=(3 5 8 9)
M  V30 END COLLECTION
M  V30 END CTAB
M  END
>  <NO.>
3999

>  <Name>
loratadine

>  <SMILES>
COc1ccc([C@H]2[C@H](S(=O)(=O)c3ccccc3)[C@@]2(N)CO)cc1

>  <logBB>


>  <Class>
-1

>  <MW>
333.1

>  <nHBAcc>
5

>  <nHBDon>
2

>  <SLogP>
1.32

>  <TopoPSA>
89.62

>  <MMFF94 Energy>
87.11

$$$$
COc1ccc([C@H]2[C@H](S(C)(=O)=O)[C@@]2(C#N)C(=O)O)cc1
Actelion Java MolfileCreator 2.0

  0  0  0  0  0  0              0 V3000
M  V30 BEGIN CTAB
M  V30 COUNTS 33 34 0 0 0
M  V30 BEGIN ATOM
M  V30 1 S -1.6348 0.4085 3.026 0
M  V30 2 O -2.8237 1.1182 2.609 0
M  V30 3 O -1.6905 -1.002 3.3541 0
M  V30 4 C -0.4068 0.518 1.717 0 CFG=2
M  V30 5 C -0.9097 1.2536 4.4049 0
M  V30 6 C -0.2186 1.8291 0.9875 0 CFG=1
M  V30 7 C -1.0074 0.6886 0.3371 0 CFG=1
M  V30 8 C -0.959 3.0047 1.3662 0
M  V30 9 C 1.1438 2.1586 0.492 0
M  V30 10 C -0.4593 -0.1148 -0.823 0
M  V30 11 N -1.5148 3.958 1.7234 0
M  V30 12 O 1.3918 3.0449 -0.3086 0
M  V30 13 O 2.1354 1.437 1.0589 0
M  V30 14 C -0.0811 0.5 -2.0258 0
M  V30 15 C -0.2155 -1.4936 -0.7061 0
M  V30 16 C 0.4927 -0.2338 -3.0688 0
M  V30 17 C 0.3562 -2.2334 -1.7498 0
M  V30 18 C 0.7128 -1.604 -2.9388 0
M  V30 19 O 1.2797 -2.2006 -4.0294 0
M  V30 20 C 1.4633 -3.6095 -3.9688 0
M  V30 21 H 0.4395 -0.1442 1.8368 0
M  V30 22 H -1.5852 1.153 5.2572 0
M  V30 23 H -0.7782 2.3077 4.1611 0
M  V30 24 H 0.0506 0.7887 4.6354 0
M  V30 25 H -2.0864 0.8329 0.2723 0
M  V30 26 H 2.9503 1.7689 0.6211 0
M  V30 27 H -0.2385 1.5682 -2.1695 0
M  V30 28 H -0.4877 -2.016 0.2105 0
M  V30 29 H 0.7683 0.2707 -3.9921 0
M  V30 30 H 0.5077 -3.2968 -1.5966 0
M  V30 31 H 2.1678 -3.8808 -3.1757 0
M  V30 32 H 1.8945 -3.9317 -4.9215 0
M  V30 33 H 0.507 -4.1283 -3.8434 0
M  V30 END ATOM
M  V30 BEGIN BOND
M  V30 1 2 1 2
M  V30 2 2 1 3
M  V30 3 1 1 4
M  V30 4 1 1 5
M  V30 5 1 4 6
M  V30 6 1 4 7
M  V30 7 1 6 8
M  V30 8 1 6 9
M  V30 9 1 7 10
M  V30 10 3 8 11
M  V30 11 2 9 12
M  V30 12 1 9 13
M  V30 13 2 10 14
M  V30 14 1 10 15
M  V30 15 1 14 16
M  V30 16 2 15 17
M  V30 17 2 16 18
M  V30 18 1 18 19
M  V30 19 1 19 20
M  V30 20 1 6 7
M  V30 21 1 17 18
M  V30 22 1 4 21
M  V30 23 1 5 22
M  V30 24 1 5 23
M  V30 25 1 5 24
M  V30 26 1 7 25
M  V30 27 1 13 26
M  V30 28 1 14 27
M  V30 29 1 15 28
M  V30 30 1 16 29
M  V30 31 1 17 30
M  V30 32 1 20 31
M  V30 33 1 20 32
M  V30 34 1 20 33
M  V30 END BOND
M  V30 BEGIN COLLECTION
M  V30 MDLV30/STEABS ATOMS=(3 4 6 7)
M  V30 END COLLECTION
M  V30 END CTAB
M  END
>  <NO.>
4000

>  <Name>
clomipramine

>  <SMILES>
COc1ccc([C@H]2[C@H](S(C)(=O)=O)[C@@]2(C#N)C(=O)O)cc1

>  <logBB>


>  <Class>
1

>  <MW>
295.05

>  <nHBAcc>
5

>  <nHBDon>
1

>  <SLogP>
0.8

>  <TopoPSA>
104.46

>  <MMFF94 Energy>
-31.566

$$$$
COc1ccc2[nH]c(=O)c([C@H]3CC(=O)Oc4ccc5c(c43)O/C(=C\c3cccc(OC)c3OC)C5=O)cc2c1
Actelion Java MolfileCreator 2.0

  0  0  0  0  0  0              0 V3000
M  V30 BEGIN CTAB
M  V30 COUNTS 62 67 0 0 0
M  V30 BEGIN ATOM
M  V30 1 O 2.5898 -0.6469 1.5371 0
M  V30 2 C 2.1666 0.413 1.0837 0
M  V30 3 N 2.9309 1.1749 0.244 0
M  V30 4 C 0.7976 0.9256 1.4346 0
M  V30 5 C 2.511 2.3927 -0.2971 0
M  V30 6 C 0.3835 2.0966 0.9131 0
M  V30 7 C -0.0121 0.0167 2.3441 0 CFG=2
M  V30 8 C 1.2415 2.8787 0.0223 0
M  V30 9 C 3.3542 3.1087 -1.1439 0
M  V30 10 C -1.5034 0.1654 2.2251 0
M  V30 11 C 0.3726 0.173 3.8141 0
M  V30 12 C 0.8201 4.0967 -0.5179 0
M  V30 13 C 2.9255 4.3274 -1.6806 0
M  V30 14 C -2.2202 0.934 3.1445 0
M  V30 15 C -2.2399 -0.4314 1.2194 0
M  V30 16 C -0.2048 1.4238 4.4192 0
M  V30 17 C 1.658 4.8256 -1.3697 0
M  V30 18 O -1.552 1.6464 4.1582 0
M  V30 19 C -3.6188 1.0852 3.0763 0
M  V30 20 O -1.7235 -1.1966 0.2027 0
M  V30 21 C -3.626 -0.299 1.1523 0
M  V30 22 O 0.4313 2.158 5.1679 0
M  V30 23 O 1.1216 5.9979 -1.827 0
M  V30 24 C -4.3443 0.4491 2.0653 0
M  V30 25 C -2.8115 -1.6198 -0.5516 0
M  V30 26 C -4.0781 -1.0687 -0.0025 0
M  V30 27 C 1.9359 6.7904 -2.6823 0
M  V30 28 C -2.7449 -2.4081 -1.632 0
M  V30 29 O -5.213 -1.2088 -0.4019 0
M  V30 30 C -1.4793 -2.9192 -2.1791 0
M  V30 31 C -0.5371 -3.6353 -1.4167 0
M  V30 32 C -1.2156 -2.6904 -3.5379 0
M  V30 33 O -0.8256 -3.9398 -0.107 0
M  V30 34 C 0.6899 -4.0095 -1.9837 0
M  V30 35 C -0.0231 -3.1308 -4.1171 0
M  V30 36 C -1.2118 -5.3106 0.0028 0
M  V30 37 O 1.6913 -4.6359 -1.2869 0
M  V30 38 C 0.9296 -3.7859 -3.3391 0
M  V30 39 C 2.1571 -3.8342 -0.1973 0
M  V30 40 H 3.8473 0.8083 0.0263 0
M  V30 41 H -0.597 2.5074 1.1295 0
M  V30 42 H 0.2117 -1.0245 2.0713 0
M  V30 43 H 4.3425 2.7342 -1.3943 0
M  V30 44 H 1.4617 0.197 3.9364 0
M  V30 45 H 0.0019 -0.6728 4.4075 0
M  V30 46 H -0.1643 4.4942 -0.2824 0
M  V30 47 H 3.6043 4.862 -2.337 0
M  V30 48 H -4.134 1.7012 3.8105 0
M  V30 49 H -5.4228 0.5426 1.9908 0
M  V30 50 H 2.8486 7.1134 -2.1706 0
M  V30 51 H 1.368 7.6873 -2.9479 0
M  V30 52 H 2.1692 6.257 -3.6097 0
M  V30 53 H -3.6505 -2.6686 -2.1734 0
M  V30 54 H -1.9353 -2.1571 -4.1562 0
M  V30 55 H 0.1689 -2.9486 -5.1715 0
M  V30 56 H -2.0321 -5.5527 -0.6824 0
M  V30 57 H -1.5672 -5.4747 1.0246 0
M  V30 58 H -0.3622 -5.9792 -0.1685 0
M  V30 59 H 1.8667 -4.1103 -3.7834 0
M  V30 60 H 2.1476 -2.7634 -0.4322 0
M  V30 61 H 3.1931 -4.1226 0.0058 0
M  V30 62 H 1.5737 -4.036 0.7055 0
M  V30 END ATOM
M  V30 BEGIN BOND
M  V30 1 2 1 2
M  V30 2 1 2 3
M  V30 3 1 2 4
M  V30 4 1 3 5
M  V30 5 2 4 6
M  V30 6 1 4 7
M  V30 7 2 5 8
M  V30 8 1 5 9
M  V30 9 1 7 10
M  V30 10 1 7 11
M  V30 11 1 8 12
M  V30 12 2 9 13
M  V30 13 2 10 14
M  V30 14 1 10 15
M  V30 15 1 11 16
M  V30 16 2 12 17
M  V30 17 1 14 18
M  V30 18 1 14 19
M  V30 19 1 15 20
M  V30 20 2 15 21
M  V30 21 2 16 22
M  V30 22 1 17 23
M  V30 23 2 19 24
M  V30 24 1 20 25
M  V30 25 1 21 26
M  V30 26 1 23 27
M  V30 27 2 25 28
M  V30 28 2 26 29
M  V30 29 1 28 30
M  V30 30 2 30 31
M  V30 31 1 30 32
M  V30 32 1 31 33
M  V30 33 1 31 34
M  V30 34 2 32 35
M  V30 35 1 33 36
M  V30 36 1 34 37
M  V30 37 2 34 38
M  V30 38 1 37 39
M  V30 39 1 6 8
M  V30 40 1 13 17
M  V30 41 1 16 18
M  V30 42 1 21 24
M  V30 43 1 25 26
M  V30 44 1 35 38
M  V30 45 1 3 40
M  V30 46 1 6 41
M  V30 47 1 7 42
M  V30 48 1 9 43
M  V30 49 1 11 44
M  V30 50 1 11 45
M  V30 51 1 12 46
M  V30 52 1 13 47
M  V30 53 1 19 48
M  V30 54 1 24 49
M  V30 55 1 27 50
M  V30 56 1 27 51
M  V30 57 1 27 52
M  V30 58 1 28 53
M  V30 59 1 32 54
M  V30 60 1 35 55
M  V30 61 1 36 56
M  V30 62 1 36 57
M  V30 63 1 36 58
M  V30 64 1 38 59
M  V30 65 1 39 60
M  V30 66 1 39 61
M  V30 67 1 39 62
M  V30 END BOND
M  V30 BEGIN COLLECTION
M  V30 MDLV30/STEABS ATOMS=(1 7)
M  V30 END COLLECTION
M  V30 END CTAB
M  END
>  <NO.>
4001

>  <Name>
levofloxacin

>  <SMILES>
COc1ccc2[nH]c(=O)c([C@H]3CC(=O)Oc4ccc5c(c43)O/C(=C\c3cccc(OC)c3OC)C5=O)cc2c1

>  <logBB>


>  <Class>
1

>  <MW>
525.14

>  <nHBAcc>
8

>  <nHBDon>
1

>  <SLogP>
4.61

>  <TopoPSA>
113.15

>  <MMFF94 Energy>
90.629

$$$$
COc1ccc2c(c1)CCC[C@@]2(O)CNC(=O)C(=O)Nc1cccc(Cl)c1C
Actelion Java MolfileCreator 2.0

  0  0  0  0  0  0              0 V3000
M  V30 BEGIN CTAB
M  V30 COUNTS 51 53 0 0 0
M  V30 BEGIN ATOM
M  V30 1 Cl -2.4865 -7.3932 -4.1737 0
M  V30 2 C -2.5251 -5.7272 -3.7043 0
M  V30 3 C -1.7512 -5.2268 -2.6366 0
M  V30 4 C -3.3583 -4.8867 -4.4477 0
M  V30 5 C -1.8053 -3.8389 -2.3611 0
M  V30 6 C -0.8562 -6.1384 -1.8338 0
M  V30 7 C -3.4218 -3.5309 -4.1522 0
M  V30 8 N -0.978 -3.3022 -1.3544 0
M  V30 9 C -2.6431 -3.0101 -3.1202 0
M  V30 10 C -1.1285 -2.103 -0.6897 0
M  V30 11 O -1.995 -1.2493 -0.8176 0
M  V30 12 C -0.0122 -1.8865 0.3556 0
M  V30 13 O 0.8375 -2.7526 0.5137 0
M  V30 14 N -0.1121 -0.6933 1.0296 0
M  V30 15 C 0.9061 -0.217 1.95 0
M  V30 16 C 1.8938 0.8218 1.3281 0 CFG=1
M  V30 17 O 2.4598 0.2739 0.1269 0
M  V30 18 C 1.1901 2.1416 1.0103 0
M  V30 19 C 3.0845 1.0503 2.2831 0
M  V30 20 C 1.3159 3.2644 1.8534 0
M  V30 21 C 0.3767 2.25 -0.1317 0
M  V30 22 C 2.688 1.8825 3.494 0
M  V30 23 C 0.6319 4.4569 1.5396 0
M  V30 24 C 2.2293 3.2691 3.0571 0
M  V30 25 C -0.3004 3.4348 -0.4238 0
M  V30 26 C -0.1802 4.5439 0.4093 0
M  V30 27 O -0.8911 5.6406 0.0083 0
M  V30 28 C -0.8231 6.7929 0.8386 0
M  V30 29 H -3.9562 -5.2845 -5.264 0
M  V30 30 H -1.1822 -7.1816 -1.8588 0
M  V30 31 H -0.8644 -5.8639 -0.7735 0
M  V30 32 H 0.1688 -6.0827 -2.2131 0
M  V30 33 H -4.0651 -2.8734 -4.7315 0
M  V30 34 H -0.1801 -3.848 -1.0368 0
M  V30 35 H -2.695 -1.9396 -2.9395 0
M  V30 36 H -0.9003 -0.0964 0.7918 0
M  V30 37 H 1.4684 -1.0898 2.3016 0
M  V30 38 H 0.3719 0.2098 2.8056 0
M  V30 39 H 2.7852 1.0212 -0.404 0
M  V30 40 H 3.5002 0.0876 2.6066 0
M  V30 41 H 3.9028 1.553 1.7483 0
M  V30 42 H 0.2622 1.4055 -0.81 0
M  V30 43 H 1.8903 1.3831 4.0557 0
M  V30 44 H 3.5378 1.9786 4.1796 0
M  V30 45 H 0.7605 5.3107 2.1985 0
M  V30 46 H 3.1109 3.8721 2.804 0
M  V30 47 H 1.7293 3.757 3.9027 0
M  V30 48 H -0.927 3.4918 -1.311 0
M  V30 49 H -1.214 6.5827 1.8398 0
M  V30 50 H -1.455 7.5658 0.3904 0
M  V30 51 H 0.1982 7.1845 0.8863 0
M  V30 END ATOM
M  V30 BEGIN BOND
M  V30 1 1 1 2
M  V30 2 2 2 3
M  V30 3 1 2 4
M  V30 4 1 3 5
M  V30 5 1 3 6
M  V30 6 2 4 7
M  V30 7 1 5 8
M  V30 8 2 5 9
M  V30 9 1 8 10
M  V30 10 2 10 11
M  V30 11 1 10 12
M  V30 12 2 12 13
M  V30 13 1 12 14
M  V30 14 1 14 15
M  V30 15 1 15 16
M  V30 16 1 16 17
M  V30 17 1 16 18
M  V30 18 1 16 19
M  V30 19 2 18 20
M  V30 20 1 18 21
M  V30 21 1 19 22
M  V30 22 1 20 23
M  V30 23 1 20 24
M  V30 24 2 21 25
M  V30 25 2 23 26
M  V30 26 1 26 27
M  V30 27 1 27 28
M  V30 28 1 7 9
M  V30 29 1 22 24
M  V30 30 1 25 26
M  V30 31 1 4 29
M  V30 32 1 6 30
M  V30 33 1 6 31
M  V30 34 1 6 32
M  V30 35 1 7 33
M  V30 36 1 8 34
M  V30 37 1 9 35
M  V30 38 1 14 36
M  V30 39 1 15 37
M  V30 40 1 15 38
M  V30 41 1 17 39
M  V30 42 1 19 40
M  V30 43 1 19 41
M  V30 44 1 21 42
M  V30 45 1 22 43
M  V30 46 1 22 44
M  V30 47 1 23 45
M  V30 48 1 24 46
M  V30 49 1 24 47
M  V30 50 1 25 48
M  V30 51 1 28 49
M  V30 52 1 28 50
M  V30 53 1 28 51
M  V30 END BOND
M  V30 BEGIN COLLECTION
M  V30 MDLV30/STEABS ATOMS=(1 16)
M  V30 END COLLECTION
M  V30 END CTAB
M  END
>  <NO.>
4002

>  <Name>
dopamine

>  <SMILES>
COc1ccc2c(c1)CCC[C@@]2(O)CNC(=O)C(=O)Nc1cccc(Cl)c1C

>  <logBB>


>  <Class>
-1

>  <MW>
402.13

>  <nHBAcc>
4

>  <nHBDon>
3

>  <SLogP>
2.94

>  <TopoPSA>
87.66

>  <MMFF94 Energy>
96.857

$$$$
COc1ccc2c(c1)CCC[C@]2(O)CNC(=O)C(=O)NCc1ccc2c(c1)OCO2
Actelion Java MolfileCreator 2.0

  0  0  0  0  0  0              0 V3000
M  V30 BEGIN CTAB
M  V30 COUNTS 54 57 0 0 0
M  V30 BEGIN ATOM
M  V30 1 O 1.8395 -1.5994 0.9594 0
M  V30 2 C 1.1483 -1.6558 -0.0477 0
M  V30 3 N 1.5875 -1.9483 -1.3144 0
M  V30 4 C -0.3692 -1.3795 0.035 0
M  V30 5 C 2.9728 -2.2166 -1.5902 0
M  V30 6 O -1.0708 -1.4174 -0.9677 0
M  V30 7 N -0.816 -1.0754 1.2982 0
M  V30 8 C 3.1727 -2.5775 -3.0371 0
M  V30 9 C -2.2039 -0.747 1.5763 0
M  V30 10 C 3.4367 -1.5758 -3.9858 0
M  V30 11 C 3.048 -3.9221 -3.4582 0
M  V30 12 C -2.61 0.7211 1.217 0 CFG=2
M  V30 13 C 3.5839 -1.9523 -5.3042 0
M  V30 14 C 3.2025 -4.2726 -4.8034 0
M  V30 15 O -2.1872 1.0554 -0.114 0
M  V30 16 C -1.9729 1.7022 2.1974 0
M  V30 17 C -4.1456 0.8621 1.2197 0
M  V30 18 O 3.8446 -1.1155 -6.3439 0
M  V30 19 C 3.4712 -3.2634 -5.7014 0
M  V30 20 C -2.7005 2.231 3.2813 0
M  V30 21 C -0.6222 2.068 2.0553 0
M  V30 22 C -4.716 0.8175 2.6308 0
M  V30 23 C 3.8845 -2.0513 -7.4414 0
M  V30 24 O 3.6482 -3.4171 -7.0407 0
M  V30 25 C -2.0597 3.0933 4.1891 0
M  V30 26 C -4.1778 1.9778 3.4615 0
M  V30 27 C 0.0032 2.9221 2.9692 0
M  V30 28 C -0.7136 3.4361 4.0447 0
M  V30 29 O -0.2302 4.2783 5.008 0
M  V30 30 C 1.1297 4.6758 4.8875 0
M  V30 31 H 0.9012 -1.9457 -2.0643 0
M  V30 32 H 3.5595 -1.329 -1.3248 0
M  V30 33 H 3.3141 -3.0276 -0.9359 0
M  V30 34 H -0.1198 -1.0252 2.0386 0
M  V30 35 H -2.8127 -1.4459 0.9896 0
M  V30 36 H -2.372 -0.9616 2.6371 0
M  V30 37 H 3.5227 -0.5319 -3.7016 0
M  V30 38 H 2.8269 -4.7016 -2.7308 0
M  V30 39 H 3.111 -5.302 -5.1311 0
M  V30 40 H -2.1764 0.2309 -0.6393 0
M  V30 41 H -4.5982 0.0739 0.6048 0
M  V30 42 H -4.4356 1.8071 0.7388 0
M  V30 43 H -0.0453 1.6914 1.2125 0
M  V30 44 H -5.8104 0.8701 2.5964 0
M  V30 45 H -4.4663 -0.1349 3.112 0
M  V30 46 H 4.8701 -1.9913 -7.9174 0
M  V30 47 H 3.122 -1.7641 -8.1747 0
M  V30 48 H -2.6202 3.5178 5.0204 0
M  V30 49 H -4.3975 1.7859 4.5188 0
M  V30 50 H -4.71 2.8948 3.1769 0
M  V30 51 H 1.0468 3.1665 2.8041 0
M  V30 52 H 1.8009 3.8137 4.9606 0
M  V30 53 H 1.3571 5.3459 5.7223 0
M  V30 54 H 1.2981 5.2318 3.9592 0
M  V30 END ATOM
M  V30 BEGIN BOND
M  V30 1 2 1 2
M  V30 2 1 2 3
M  V30 3 1 2 4
M  V30 4 1 3 5
M  V30 5 2 4 6
M  V30 6 1 4 7
M  V30 7 1 5 8
M  V30 8 1 7 9
M  V30 9 2 8 10
M  V30 10 1 8 11
M  V30 11 1 9 12
M  V30 12 1 10 13
M  V30 13 2 11 14
M  V30 14 1 12 15
M  V30 15 1 12 16
M  V30 16 1 12 17
M  V30 17 1 13 18
M  V30 18 2 13 19
M  V30 19 2 16 20
M  V30 20 1 16 21
M  V30 21 1 17 22
M  V30 22 1 18 23
M  V30 23 1 19 24
M  V30 24 1 20 25
M  V30 25 1 20 26
M  V30 26 2 21 27
M  V30 27 2 25 28
M  V30 28 1 28 29
M  V30 29 1 29 30
M  V30 30 1 14 19
M  V30 31 1 22 26
M  V30 32 1 23 24
M  V30 33 1 27 28
M  V30 34 1 3 31
M  V30 35 1 5 32
M  V30 36 1 5 33
M  V30 37 1 7 34
M  V30 38 1 9 35
M  V30 39 1 9 36
M  V30 40 1 10 37
M  V30 41 1 11 38
M  V30 42 1 14 39
M  V30 43 1 15 40
M  V30 44 1 17 41
M  V30 45 1 17 42
M  V30 46 1 21 43
M  V30 47 1 22 44
M  V30 48 1 22 45
M  V30 49 1 23 46
M  V30 50 1 23 47
M  V30 51 1 25 48
M  V30 52 1 26 49
M  V30 53 1 26 50
M  V30 54 1 27 51
M  V30 55 1 30 52
M  V30 56 1 30 53
M  V30 57 1 30 54
M  V30 END BOND
M  V30 BEGIN COLLECTION
M  V30 MDLV30/STEABS ATOMS=(1 12)
M  V30 END COLLECTION
M  V30 END CTAB
M  END
>  <NO.>
4003

>  <Name>
estrone

>  <SMILES>
COc1ccc2c(c1)CCC[C@]2(O)CNC(=O)C(=O)NCc1ccc2c(c1)OCO2

>  <logBB>


>  <Class>
-1

>  <MW>
412.16

>  <nHBAcc>
6

>  <nHBDon>
3

>  <SLogP>
1.38

>  <TopoPSA>
106.12

>  <MMFF94 Energy>
81.751

$$$$
COc1ccc2c(c1OC)C(=O)O[C@H]2Nc1ccc2c(c1)COC2=O
Actelion Java MolfileCreator 2.0

  0  0  0  0  0  0              0 V3000
M  V30 BEGIN CTAB
M  V30 COUNTS 40 43 0 0 0
M  V30 BEGIN ATOM
M  V30 1 O 1.9318 -0.3217 3.3825 0
M  V30 2 C 1.0004 -0.5283 2.6317 0
M  V30 3 O -0.2848 -0.101 2.8313 0
M  V30 4 C 1.0191 -1.2661 1.3692 0
M  V30 5 C -1.1677 -0.6724 1.863 0 CFG=2
M  V30 6 C 2.0844 -1.8224 0.681 0
M  V30 7 C -0.2724 -1.3287 0.8865 0
M  V30 8 N -2.0825 0.2907 1.295 0
M  V30 9 O 3.3627 -1.6723 1.1414 0
M  V30 10 C 1.8326 -2.448 -0.5525 0
M  V30 11 C -0.5502 -1.9618 -0.3134 0
M  V30 12 C -1.8201 1.4544 0.6028 0
M  V30 13 C 3.7551 -2.8089 1.9096 0
M  V30 14 O 2.9258 -2.9618 -1.2009 0
M  V30 15 C 0.5116 -2.5224 -1.0343 0
M  V30 16 C -2.9134 2.1477 0.0445 0
M  V30 17 C -0.5286 1.9651 0.3669 0
M  V30 18 C 2.7488 -3.3837 -2.5465 0
M  V30 19 C -2.6995 3.3003 -0.6965 0
M  V30 20 C -0.3172 3.1297 -0.3833 0
M  V30 21 C -1.4241 3.77 -0.8992 0
M  V30 22 C -3.6593 4.1948 -1.3697 0
M  V30 23 C -1.4893 4.9786 -1.7089 0
M  V30 24 O -2.8138 5.2004 -1.9689 0
M  V30 25 O -0.5531 5.654 -2.0843 0
M  V30 26 H -1.7526 -1.4422 2.3811 0
M  V30 27 H -3.046 0.1491 1.5719 0
M  V30 28 H -1.5657 -2.0113 -0.6968 0
M  V30 29 H 3.0829 -2.9676 2.7602 0
M  V30 30 H 4.7583 -2.6179 2.3021 0
M  V30 31 H 3.7998 -3.7109 1.2902 0
M  V30 32 H 0.2802 -3.0108 -1.9763 0
M  V30 33 H -3.9272 1.7836 0.1874 0
M  V30 34 H 0.3511 1.4821 0.7768 0
M  V30 35 H 2.1148 -4.2747 -2.5962 0
M  V30 36 H 3.7319 -3.6529 -2.9444 0
M  V30 37 H 2.3473 -2.5765 -3.1683 0
M  V30 38 H 0.6829 3.517 -0.551 0
M  V30 39 H -4.2162 3.6866 -2.1616 0
M  V30 40 H -4.3391 4.6814 -0.665 0
M  V30 END ATOM
M  V30 BEGIN BOND
M  V30 1 2 1 2
M  V30 2 1 2 3
M  V30 3 1 2 4
M  V30 4 1 3 5
M  V30 5 2 4 6
M  V30 6 1 4 7
M  V30 7 1 5 8
M  V30 8 1 6 9
M  V30 9 1 6 10
M  V30 10 2 7 11
M  V30 11 1 8 12
M  V30 12 1 9 13
M  V30 13 1 10 14
M  V30 14 2 10 15
M  V30 15 2 12 16
M  V30 16 1 12 17
M  V30 17 1 14 18
M  V30 18 1 16 19
M  V30 19 2 17 20
M  V30 20 2 19 21
M  V30 21 1 19 22
M  V30 22 1 21 23
M  V30 23 1 22 24
M  V30 24 2 23 25
M  V30 25 1 5 7
M  V30 26 1 11 15
M  V30 27 1 20 21
M  V30 28 1 23 24
M  V30 29 1 5 26
M  V30 30 1 8 27
M  V30 31 1 11 28
M  V30 32 1 13 29
M  V30 33 1 13 30
M  V30 34 1 13 31
M  V30 35 1 15 32
M  V30 36 1 16 33
M  V30 37 1 17 34
M  V30 38 1 18 35
M  V30 39 1 18 36
M  V30 40 1 18 37
M  V30 41 1 20 38
M  V30 42 1 22 39
M  V30 43 1 22 40
M  V30 END BOND
M  V30 BEGIN COLLECTION
M  V30 MDLV30/STEABS ATOMS=(1 5)
M  V30 END COLLECTION
M  V30 END CTAB
M  END
>  <NO.>
4005

>  <Name>
trimipramine

>  <SMILES>
COc1ccc2c(c1OC)C(=O)O[C@H]2Nc1ccc2c(c1)COC2=O

>  <logBB>


>  <Class>
1

>  <MW>
341.09

>  <nHBAcc>
7

>  <nHBDon>
1

>  <SLogP>
2.66

>  <TopoPSA>
83.09

>  <MMFF94 Energy>
46.566

$$$$
COc1ccc2cc([C@@H]3CC(=O)Oc4cc(C)oc(=O)c43)c(=O)[nH]c2c1
Actelion Java MolfileCreator 2.0

  0  0  0  0  0  0              0 V3000
M  V30 BEGIN CTAB
M  V30 COUNTS 41 44 0 0 0
M  V30 BEGIN ATOM
M  V30 1 O 2.3474 -0.1617 -2.7525 0
M  V30 2 C 2.9032 -0.2846 -1.6676 0
M  V30 3 O 4.0478 0.4027 -1.3608 0
M  V30 4 C 2.3601 -1.1822 -0.6241 0
M  V30 5 C 4.6863 0.2574 -0.1042 0
M  V30 6 C 3.0038 -1.3066 0.5412 0
M  V30 7 C 1.1151 -1.9712 -0.9065 0 CFG=2
M  V30 8 C 4.1938 -0.5648 0.8292 0
M  V30 9 C 5.9173 1.0865 0.0614 0
M  V30 10 O 2.5395 -2.1085 1.5942 0
M  V30 11 C -0.1803 -1.1945 -0.705 0
M  V30 12 C 1.147 -3.2456 -0.0571 0
M  V30 13 C 1.5005 -2.9714 1.3825 0
M  V30 14 C -1.3701 -1.7569 -1.4337 0
M  V30 15 C -0.3334 -0.0733 0.027 0
M  V30 16 O 0.9574 -3.5556 2.3149 0
M  V30 17 O -1.2831 -2.7876 -2.0949 0
M  V30 18 N -2.5569 -1.0886 -1.3189 0
M  V30 19 C -1.6293 0.6002 0.1269 0
M  V30 20 C -2.7248 0.0728 -0.5597 0
M  V30 21 C -1.7968 1.7587 0.8885 0
M  V30 22 C -3.974 0.6884 -0.4913 0
M  V30 23 C -3.05 2.3804 0.9603 0
M  V30 24 C -4.142 1.8477 0.271 0
M  V30 25 O -5.4113 2.3573 0.2598 0
M  V30 26 C -5.6395 3.5387 1.0183 0
M  V30 27 H 1.161 -2.2905 -1.957 0
M  V30 28 H 4.6698 -0.686 1.7973 0
M  V30 29 H 6.6574 0.8203 -0.6997 0
M  V30 30 H 5.6752 2.1484 -0.0474 0
M  V30 31 H 6.3773 0.9438 1.0447 0
M  V30 32 H 0.1818 -3.7644 -0.0811 0
M  V30 33 H 1.8961 -3.948 -0.4452 0
M  V30 34 H 0.4892 0.3785 0.5699 0
M  V30 35 H -3.3395 -1.4865 -1.8206 0
M  V30 36 H -0.9607 2.1914 1.4326 0
M  V30 37 H -4.8257 0.2772 -1.0257 0
M  V30 38 H -3.1383 3.2787 1.563 0
M  V30 39 H -5.4546 3.3654 2.0837 0
M  V30 40 H -6.693 3.8116 0.9034 0
M  V30 41 H -5.0367 4.3718 0.642 0
M  V30 END ATOM
M  V30 BEGIN BOND
M  V30 1 2 1 2
M  V30 2 1 2 3
M  V30 3 1 2 4
M  V30 4 1 3 5
M  V30 5 2 4 6
M  V30 6 1 4 7
M  V30 7 2 5 8
M  V30 8 1 5 9
M  V30 9 1 6 10
M  V30 10 1 7 11
M  V30 11 1 7 12
M  V30 12 1 10 13
M  V30 13 1 11 14
M  V30 14 2 11 15
M  V30 15 2 13 16
M  V30 16 2 14 17
M  V30 17 1 14 18
M  V30 18 1 15 19
M  V30 19 1 18 20
M  V30 20 1 19 21
M  V30 21 1 20 22
M  V30 22 2 21 23
M  V30 23 2 22 24
M  V30 24 1 24 25
M  V30 25 1 25 26
M  V30 26 1 6 8
M  V30 27 1 12 13
M  V30 28 2 19 20
M  V30 29 1 23 24
M  V30 30 1 7 27
M  V30 31 1 8 28
M  V30 32 1 9 29
M  V30 33 1 9 30
M  V30 34 1 9 31
M  V30 35 1 12 32
M  V30 36 1 12 33
M  V30 37 1 15 34
M  V30 38 1 18 35
M  V30 39 1 21 36
M  V30 40 1 22 37
M  V30 41 1 23 38
M  V30 42 1 26 39
M  V30 43 1 26 40
M  V30 44 1 26 41
M  V30 END BOND
M  V30 BEGIN COLLECTION
M  V30 MDLV30/STEABS ATOMS=(1 7)
M  V30 END COLLECTION
M  V30 END CTAB
M  END
>  <NO.>
4006

>  <Name>
oxycodone

>  <SMILES>
COc1ccc2cc([C@@H]3CC(=O)Oc4cc(C)oc(=O)c43)c(=O)[nH]c2c1

>  <logBB>


>  <Class>
1

>  <MW>
353.09

>  <nHBAcc>
6

>  <nHBDon>
1

>  <SLogP>
2.24

>  <TopoPSA>
98.6

>  <MMFF94 Energy>
-0.83745

$$$$
COc1cccc([C@H]2CC(=O)Oc3cc(C)oc(=O)c32)c1OCCc1ccccc1
Actelion Java MolfileCreator 2.0

  0  0  0  0  0  0              0 V3000
M  V30 BEGIN CTAB
M  V30 COUNTS 52 55 0 0 0
M  V30 BEGIN ATOM
M  V30 1 O -1.8469 -1.7666 -1.6862 0
M  V30 2 C -1.2766 -1.0808 -2.5259 0
M  V30 3 O -1.5316 -1.2299 -3.8648 0
M  V30 4 C -0.2917 -0.0438 -2.1455 0
M  V30 5 C -0.9097 -0.408 -4.8367 0
M  V30 6 C 0.2494 0.7318 -3.0909 0
M  V30 7 C 0.035 0.1693 -0.6982 0 CFG=1
M  V30 8 C -0.0471 0.5497 -4.4794 0
M  V30 9 C -1.3049 -0.7107 -6.2443 0
M  V30 10 O 1.1999 1.7281 -2.8189 0
M  V30 11 C 1.0637 -0.8088 -0.1322 0
M  V30 12 C 0.4733 1.6195 -0.491 0
M  V30 13 C 1.4615 2.0874 -1.526 0
M  V30 14 C 0.9187 -1.3277 1.173 0
M  V30 15 C 2.1986 -1.1905 -0.8678 0
M  V30 16 O 2.3979 2.8314 -1.2494 0
M  V30 17 O -0.1885 -0.9464 1.8974 0
M  V30 18 C 1.828 -2.2695 1.6951 0
M  V30 19 C 3.1275 -2.0862 -0.3377 0
M  V30 20 C 0.1647 -0.0888 2.9935 0
M  V30 21 O 1.5508 -2.7722 2.9401 0
M  V30 22 C 2.9404 -2.6292 0.9331 0
M  V30 23 C -1.11 0.5264 3.5757 0
M  V30 24 C 2.2825 -3.917 3.3573 0
M  V30 25 C -1.7231 1.5764 2.6778 0
M  V30 26 C -1.271 2.9023 2.7186 0
M  V30 27 C -2.7447 1.2342 1.7817 0
M  V30 28 C -1.8372 3.8679 1.8844 0
M  V30 29 C -3.3091 2.2006 0.9479 0
M  V30 30 C -2.8569 3.5176 1.0009 0
M  V30 31 H -0.9015 0.0453 -0.143 0
M  V30 32 H 0.439 1.1873 -5.2109 0
M  V30 33 H -0.8027 -0.0525 -6.9606 0
M  V30 34 H -1.0459 -1.744 -6.4956 0
M  V30 35 H -2.385 -0.5845 -6.3691 0
M  V30 36 H 0.9186 1.7593 0.5 0
M  V30 37 H -0.3894 2.293 -0.5608 0
M  V30 38 H 2.3838 -0.804 -1.8669 0
M  V30 39 H 3.999 -2.3703 -0.9232 0
M  V30 40 H 0.8609 0.6951 2.6698 0
M  V30 41 H 0.6424 -0.6767 3.7841 0
M  V30 42 H 3.6835 -3.329 1.2999 0
M  V30 43 H -1.8509 -0.2592 3.7694 0
M  V30 44 H -0.8831 0.9867 4.5454 0
M  V30 45 H 2.1987 -4.7326 2.6312 0
M  V30 46 H 1.8486 -4.2652 4.2997 0
M  V30 47 H 3.3298 -3.6626 3.5487 0
M  V30 48 H -0.4783 3.1927 3.4044 0
M  V30 49 H -3.1012 0.2069 1.7242 0
M  V30 50 H -1.4847 4.8954 1.9271 0
M  V30 51 H -4.1038 1.9232 0.2602 0
M  V30 52 H -3.3008 4.2714 0.356 0
M  V30 END ATOM
M  V30 BEGIN BOND
M  V30 1 2 1 2
M  V30 2 1 2 3
M  V30 3 1 2 4
M  V30 4 1 3 5
M  V30 5 2 4 6
M  V30 6 1 4 7
M  V30 7 2 5 8
M  V30 8 1 5 9
M  V30 9 1 6 10
M  V30 10 1 7 11
M  V30 11 1 7 12
M  V30 12 1 10 13
M  V30 13 2 11 14
M  V30 14 1 11 15
M  V30 15 2 13 16
M  V30 16 1 14 17
M  V30 17 1 14 18
M  V30 18 2 15 19
M  V30 19 1 17 20
M  V30 20 1 18 21
M  V30 21 2 18 22
M  V30 22 1 20 23
M  V30 23 1 21 24
M  V30 24 1 23 25
M  V30 25 2 25 26
M  V30 26 1 25 27
M  V30 27 1 26 28
M  V30 28 2 27 29
M  V30 29 2 28 30
M  V30 30 1 6 8
M  V30 31 1 12 13
M  V30 32 1 19 22
M  V30 33 1 29 30
M  V30 34 1 7 31
M  V30 35 1 8 32
M  V30 36 1 9 33
M  V30 37 1 9 34
M  V30 38 1 9 35
M  V30 39 1 12 36
M  V30 40 1 12 37
M  V30 41 1 15 38
M  V30 42 1 19 39
M  V30 43 1 20 40
M  V30 44 1 20 41
M  V30 45 1 22 42
M  V30 46 1 23 43
M  V30 47 1 23 44
M  V30 48 1 24 45
M  V30 49 1 24 46
M  V30 50 1 24 47
M  V30 51 1 26 48
M  V30 52 1 27 49
M  V30 53 1 28 50
M  V30 54 1 29 51
M  V30 55 1 30 52
M  V30 END BOND
M  V30 BEGIN COLLECTION
M  V30 MDLV30/STEABS ATOMS=(1 7)
M  V30 END COLLECTION
M  V30 END CTAB
M  END
>  <NO.>
4007

>  <Name>
mesna

>  <SMILES>
COc1cccc([C@H]2CC(=O)Oc3cc(C)oc(=O)c32)c1OCCc1ccccc1

>  <logBB>


>  <Class>
-1

>  <MW>
406.14

>  <nHBAcc>
6

>  <nHBDon>
0

>  <SLogP>
4.02

>  <TopoPSA>
74.97

>  <MMFF94 Energy>
67.798

$$$$
COc1ccccc1CCCNC(=O)CCSc1ccccc1
Actelion Java MolfileCreator 2.0

  0  0  0  0  0  0              0 V3000
M  V30 BEGIN CTAB
M  V30 COUNTS 46 47 0 0 0
M  V30 BEGIN ATOM
M  V30 1 S 1.4344 0.4779 3.7487 0
M  V30 2 C 0.9072 0.4452 5.4519 0
M  V30 3 C 1.6049 -1.3208 3.444 0
M  V30 4 C -0.2879 -0.1732 5.8323 0
M  V30 5 C 1.6895 1.0791 6.422 0
M  V30 6 C 2.133 -1.6001 2.0436 0
M  V30 7 C -0.6843 -0.1769 7.1718 0
M  V30 8 C 1.2929 1.075 7.7613 0
M  V30 9 C 1.0273 -1.5584 1.012 0
M  V30 10 C 0.1075 0.4446 8.1359 0
M  V30 11 O 0.4932 -2.5805 0.593 0
M  V30 12 N 0.6818 -0.2933 0.6016 0
M  V30 13 C -0.3537 -0.0534 -0.3818 0
M  V30 14 C 0.1867 -0.1719 -1.805 0
M  V30 15 C -0.9074 0.1347 -2.833 0
M  V30 16 C -0.5054 0.1238 -4.2975 0
M  V30 17 C -1.434 0.5636 -5.2677 0
M  V30 18 C 0.751 -0.3341 -4.7272 0
M  V30 19 O -2.6481 0.9824 -4.7823 0
M  V30 20 C -1.0862 0.5537 -6.6235 0
M  V30 21 C 1.0867 -0.3417 -6.0816 0
M  V30 22 C -3.6297 1.3843 -5.7286 0
M  V30 23 C 0.1709 0.1033 -7.0276 0
M  V30 24 H 0.6393 -1.8137 3.597 0
M  V30 25 H 2.313 -1.716 4.1802 0
M  V30 26 H -0.9273 -0.6479 5.0924 0
M  V30 27 H 2.6142 1.5795 6.1444 0
M  V30 28 H 2.5529 -2.6134 2.0155 0
M  V30 29 H 2.9429 -0.9191 1.7574 0
M  V30 30 H -1.6143 -0.6599 7.4611 0
M  V30 31 H 1.9079 1.5667 8.5107 0
M  V30 32 H -0.2024 0.4435 9.178 0
M  V30 33 H 1.1235 0.504 1.0467 0
M  V30 34 H -0.7392 0.9552 -0.199 0
M  V30 35 H -1.1707 -0.7654 -0.2198 0
M  V30 36 H 0.5798 -1.184 -1.9612 0
M  V30 37 H 1.0289 0.5202 -1.9317 0
M  V30 38 H -1.7213 -0.5905 -2.704 0
M  V30 39 H -1.3111 1.1295 -2.6023 0
M  V30 40 H 1.4907 -0.6966 -4.0187 0
M  V30 41 H -1.7724 0.8895 -7.3933 0
M  V30 42 H 2.0642 -0.6988 -6.3955 0
M  V30 43 H -3.3011 2.2671 -6.2867 0
M  V30 44 H -4.5333 1.6591 -5.1758 0
M  V30 45 H -3.8904 0.5617 -6.4026 0
M  V30 46 H 0.4326 0.0969 -8.0823 0
M  V30 END ATOM
M  V30 BEGIN BOND
M  V30 1 1 1 2
M  V30 2 1 1 3
M  V30 3 2 2 4
M  V30 4 1 2 5
M  V30 5 1 3 6
M  V30 6 1 4 7
M  V30 7 2 5 8
M  V30 8 1 6 9
M  V30 9 2 7 10
M  V30 10 2 9 11
M  V30 11 1 9 12
M  V30 12 1 12 13
M  V30 13 1 13 14
M  V30 14 1 14 15
M  V30 15 1 15 16
M  V30 16 2 16 17
M  V30 17 1 16 18
M  V30 18 1 17 19
M  V30 19 1 17 20
M  V30 20 2 18 21
M  V30 21 1 19 22
M  V30 22 2 20 23
M  V30 23 1 8 10
M  V30 24 1 21 23
M  V30 25 1 3 24
M  V30 26 1 3 25
M  V30 27 1 4 26
M  V30 28 1 5 27
M  V30 29 1 6 28
M  V30 30 1 6 29
M  V30 31 1 7 30
M  V30 32 1 8 31
M  V30 33 1 10 32
M  V30 34 1 12 33
M  V30 35 1 13 34
M  V30 36 1 13 35
M  V30 37 1 14 36
M  V30 38 1 14 37
M  V30 39 1 15 38
M  V30 40 1 15 39
M  V30 41 1 18 40
M  V30 42 1 20 41
M  V30 43 1 21 42
M  V30 44 1 22 43
M  V30 45 1 22 44
M  V30 46 1 22 45
M  V30 47 1 23 46
M  V30 END BOND
M  V30 END CTAB
M  END
>  <NO.>
4008

>  <Name>
estazolam

>  <SMILES>
COc1ccccc1CCCNC(=O)CCSc1ccccc1

>  <logBB>


>  <Class>
1

>  <MW>
329.14

>  <nHBAcc>
3

>  <nHBDon>
1

>  <SLogP>
3.93

>  <TopoPSA>
38.33

>  <MMFF94 Energy>
13.908

$$$$
COc1ccccc1CCCNC(=O)CSCc1ccc(Cl)cc1
Actelion Java MolfileCreator 2.0

  0  0  0  0  0  0              0 V3000
M  V30 BEGIN CTAB
M  V30 COUNTS 46 47 0 0 0
M  V30 BEGIN ATOM
M  V30 1 Cl 2.0142 4.1123 7.7515 0
M  V30 2 C 2.4098 3.1151 6.4068 0
M  V30 3 C 3.1537 3.6387 5.352 0
M  V30 4 C 1.9847 1.7893 6.3794 0
M  V30 5 C 3.4751 2.8299 4.2593 0
M  V30 6 C 2.3056 0.9803 5.2872 0
M  V30 7 C 3.0523 1.4925 4.2143 0
M  V30 8 C 3.3942 0.6203 3.0325 0
M  V30 9 S 1.9565 0.2257 1.9895 0
M  V30 10 C 1.5713 1.9027 1.3762 0
M  V30 11 C 0.5503 1.8785 0.2479 0
M  V30 12 O 0.6265 2.6516 -0.7048 0
M  V30 13 N -0.4956 0.9997 0.42 0
M  V30 14 C -1.5722 0.8691 -0.5373 0
M  V30 15 C -1.2159 -0.1153 -1.6462 0
M  V30 16 C -2.3542 -0.2311 -2.6599 0
M  V30 17 C -2.0398 -1.2391 -3.7425 0
M  V30 18 C -2.2962 -2.6124 -3.5673 0
M  V30 19 C -1.4503 -0.7935 -4.9373 0
M  V30 20 O -2.8553 -2.9681 -2.367 0
M  V30 21 C -1.9749 -3.5077 -4.593 0
M  V30 22 C -1.1332 -1.6944 -5.9513 0
M  V30 23 C -3.1088 -4.3493 -2.1485 0
M  V30 24 C -1.3972 -3.0493 -5.7798 0
M  V30 25 H 3.4862 4.6732 5.3743 0
M  V30 26 H 1.4043 1.3798 7.2019 0
M  V30 27 H 4.0578 3.2538 3.4437 0
M  V30 28 H 1.9665 -0.054 5.2753 0
M  V30 29 H 4.1686 1.083 2.4106 0
M  V30 30 H 3.8193 -0.321 3.3991 0
M  V30 31 H 2.4871 2.3648 0.9953 0
M  V30 32 H 1.1604 2.5115 2.1867 0
M  V30 33 H -0.4358 0.3436 1.1919 0
M  V30 34 H -1.7976 1.8557 -0.957 0
M  V30 35 H -2.4522 0.5236 0.0151 0
M  V30 36 H -0.9939 -1.0955 -1.2051 0
M  V30 37 H -0.2968 0.207 -2.1519 0
M  V30 38 H -3.2913 -0.5038 -2.1589 0
M  V30 39 H -2.5446 0.7481 -3.1183 0
M  V30 40 H -1.2329 0.263 -5.0795 0
M  V30 41 H -2.1592 -4.5726 -4.5015 0
M  V30 42 H -0.6788 -1.3386 -6.872 0
M  V30 43 H -3.8376 -4.7358 -2.8684 0
M  V30 44 H -3.5418 -4.455 -1.1491 0
M  V30 45 H -2.1809 -4.9301 -2.1712 0
M  V30 46 H -1.1503 -3.7537 -6.5698 0
M  V30 END ATOM
M  V30 BEGIN BOND
M  V30 1 1 1 2
M  V30 2 2 2 3
M  V30 3 1 2 4
M  V30 4 1 3 5
M  V30 5 2 4 6
M  V30 6 2 5 7
M  V30 7 1 7 8
M  V30 8 1 8 9
M  V30 9 1 9 10
M  V30 10 1 10 11
M  V30 11 2 11 12
M  V30 12 1 11 13
M  V30 13 1 13 14
M  V30 14 1 14 15
M  V30 15 1 15 16
M  V30 16 1 16 17
M  V30 17 2 17 18
M  V30 18 1 17 19
M  V30 19 1 18 20
M  V30 20 1 18 21
M  V30 21 2 19 22
M  V30 22 1 20 23
M  V30 23 2 21 24
M  V30 24 1 6 7
M  V30 25 1 22 24
M  V30 26 1 3 25
M  V30 27 1 4 26
M  V30 28 1 5 27
M  V30 29 1 6 28
M  V30 30 1 8 29
M  V30 31 1 8 30
M  V30 32 1 10 31
M  V30 33 1 10 32
M  V30 34 1 13 33
M  V30 35 1 14 34
M  V30 36 1 14 35
M  V30 37 1 15 36
M  V30 38 1 15 37
M  V30 39 1 16 38
M  V30 40 1 16 39
M  V30 41 1 19 40
M  V30 42 1 21 41
M  V30 43 1 22 42
M  V30 44 1 23 43
M  V30 45 1 23 44
M  V30 46 1 23 45
M  V30 47 1 24 46
M  V30 END BOND
M  V30 END CTAB
M  END
>  <NO.>
4009

>  <Name>
phenytoin

>  <SMILES>
COc1ccccc1CCCNC(=O)CSCc1ccc(Cl)cc1

>  <logBB>


>  <Class>
1

>  <MW>
363.11

>  <nHBAcc>
3

>  <nHBDon>
1

>  <SLogP>
4.33

>  <TopoPSA>
38.33

>  <MMFF94 Energy>
46.666

$$$$
COc1ccccc1CCCNC(=O)[C@@H](C)SCc1ccccc1
Actelion Java MolfileCreator 2.0

  0  0  0  0  0  0              0 V3000
M  V30 BEGIN CTAB
M  V30 COUNTS 49 50 0 0 0
M  V30 BEGIN ATOM
M  V30 1 S 3.2665 1.8314 1.9908 0
M  V30 2 C 1.6553 1.082 2.4524 0 CFG=1
M  V30 3 C 3.5074 1.1443 0.322 0
M  V30 4 C 0.61 1.274 1.3455 0
M  V30 5 C 1.844 -0.3485 2.9442 0
M  V30 6 C 4.8937 1.4372 -0.1957 0
M  V30 7 O 0.0312 2.3485 1.1863 0
M  V30 8 N 0.3919 0.1993 0.5069 0
M  V30 9 C 5.1531 2.6198 -0.9042 0
M  V30 10 C 5.9493 0.5444 0.0421 0
M  V30 11 C -0.5601 0.2657 -0.5852 0
M  V30 12 C 6.4365 2.8944 -1.3793 0
M  V30 13 C 7.232 0.8212 -0.4341 0
M  V30 14 C -1.9662 -0.0974 -0.1195 0
M  V30 15 C 7.4745 1.9943 -1.1464 0
M  V30 16 C -2.9639 -0.0122 -1.2745 0
M  V30 17 C -4.3535 -0.4252 -0.8438 0
M  V30 18 C -4.7505 -1.7762 -0.8334 0
M  V30 19 C -5.2565 0.5633 -0.4179 0
M  V30 20 O -3.8049 -2.6809 -1.243 0
M  V30 21 C -6.0426 -2.1096 -0.4126 0
M  V30 22 C -6.5406 0.2195 -9.0E-4 0
M  V30 23 C -4.1878 -4.0493 -1.2866 0
M  V30 24 C -6.9334 -1.1148 0.0 0
M  V30 25 H 1.2858 1.6631 3.307 0
M  V30 26 H 2.7706 1.5748 -0.3645 0
M  V30 27 H 3.3521 0.0605 0.3355 0
M  V30 28 H 0.8763 -0.8001 3.1907 0
M  V30 29 H 2.3263 -0.9926 2.2019 0
M  V30 30 H 2.4566 -0.3716 3.8527 0
M  V30 31 H 0.8617 -0.6812 0.6622 0
M  V30 32 H 4.3554 3.3384 -1.0823 0
M  V30 33 H 5.7796 -0.3691 0.6071 0
M  V30 34 H -0.2164 -0.4376 -1.3511 0
M  V30 35 H -0.5433 1.2725 -1.0171 0
M  V30 36 H 6.6269 3.8149 -1.9251 0
M  V30 37 H 8.0441 0.1246 -0.2433 0
M  V30 38 H -2.2771 0.5728 0.6923 0
M  V30 39 H -1.9579 -1.1089 0.3064 0
M  V30 40 H 8.4743 2.2115 -1.5128 0
M  V30 41 H -2.9928 1.0131 -1.6659 0
M  V30 42 H -2.6353 -0.635 -2.1158 0
M  V30 43 H -4.9584 1.6099 -0.4077 0
M  V30 44 H -6.3902 -3.1368 -0.3893 0
M  V30 45 H -7.2317 0.9926 0.3249 0
M  V30 46 H -4.4344 -4.4219 -0.2868 0
M  V30 47 H -3.3311 -4.6236 -1.6524 0
M  V30 48 H -5.016 -4.2069 -1.9854 0
M  V30 49 H -7.9347 -1.3847 0.3259 0
M  V30 END ATOM
M  V30 BEGIN BOND
M  V30 1 1 1 2
M  V30 2 1 1 3
M  V30 3 1 2 4
M  V30 4 1 2 5
M  V30 5 1 3 6
M  V30 6 2 4 7
M  V30 7 1 4 8
M  V30 8 2 6 9
M  V30 9 1 6 10
M  V30 10 1 8 11
M  V30 11 1 9 12
M  V30 12 2 10 13
M  V30 13 1 11 14
M  V30 14 2 12 15
M  V30 15 1 14 16
M  V30 16 1 16 17
M  V30 17 2 17 18
M  V30 18 1 17 19
M  V30 19 1 18 20
M  V30 20 1 18 21
M  V30 21 2 19 22
M  V30 22 1 20 23
M  V30 23 2 21 24
M  V30 24 1 13 15
M  V30 25 1 22 24
M  V30 26 1 2 25
M  V30 27 1 3 26
M  V30 28 1 3 27
M  V30 29 1 5 28
M  V30 30 1 5 29
M  V30 31 1 5 30
M  V30 32 1 8 31
M  V30 33 1 9 32
M  V30 34 1 10 33
M  V30 35 1 11 34
M  V30 36 1 11 35
M  V30 37 1 12 36
M  V30 38 1 13 37
M  V30 39 1 14 38
M  V30 40 1 14 39
M  V30 41 1 15 40
M  V30 42 1 16 41
M  V30 43 1 16 42
M  V30 44 1 19 43
M  V30 45 1 21 44
M  V30 46 1 22 45
M  V30 47 1 23 46
M  V30 48 1 23 47
M  V30 49 1 23 48
M  V30 50 1 24 49
M  V30 END BOND
M  V30 BEGIN COLLECTION
M  V30 MDLV30/STEABS ATOMS=(1 2)
M  V30 END COLLECTION
M  V30 END CTAB
M  END
>  <NO.>
4010

>  <Name>
cimetidine

>  <SMILES>
COc1ccccc1CCCNC(=O)[C@@H](C)SCc1ccccc1

>  <logBB>


>  <Class>
-1

>  <MW>
343.16

>  <nHBAcc>
3

>  <nHBDon>
1

>  <SLogP>
4.07

>  <TopoPSA>
38.33

>  <MMFF94 Energy>
54.304

$$$$
COc1ccccc1N1CCN(C(=O)COc2cc(C)cc(C)c2C)CC1
Actelion Java MolfileCreator 2.0

  0  0  0  0  0  0              0 V3000
M  V30 BEGIN CTAB
M  V30 COUNTS 55 57 0 0 0
M  V30 BEGIN ATOM
M  V30 1 O 1.9772 -1.9772 -1.1068 0
M  V30 2 C 1.4793 -1.0695 -0.4377 0
M  V30 3 N 0.9454 -1.3079 0.8229 0
M  V30 4 C 1.4171 0.3745 -0.9553 0
M  V30 5 C 0.3275 -0.3108 1.7098 0
M  V30 6 C 0.9977 -2.6615 1.3894 0
M  V30 7 O 2.0167 0.4945 -2.2367 0
M  V30 8 C -1.066 -0.7639 2.1914 0
M  V30 9 C -0.3807 -3.1345 1.8891 0
M  V30 10 C 2.0145 1.7271 -2.8378 0
M  V30 11 N -0.9915 -2.1151 2.7656 0
M  V30 12 C 2.5939 1.7815 -4.1237 0
M  V30 13 C 1.4948 2.8889 -2.2559 0
M  V30 14 C -1.9641 -2.5597 3.6655 0
M  V30 15 C 2.6881 3.0234 -4.7908 0
M  V30 16 C 3.1683 0.5277 -4.7386 0
M  V30 17 C 1.5419 4.1127 -2.9333 0
M  V30 18 C -3.3297 -2.1804 3.6396 0
M  V30 19 C -1.5536 -3.4491 4.6794 0
M  V30 20 C 2.1512 4.1723 -4.1893 0
M  V30 21 C 3.3335 3.1501 -6.1445 0
M  V30 22 C 1.0082 5.359 -2.2904 0
M  V30 23 O -3.7298 -1.3392 2.6284 0
M  V30 24 C -4.2136 -2.6744 4.6137 0
M  V30 25 C -2.4408 -3.9418 5.6367 0
M  V30 26 C -5.1247 -1.1497 2.4362 0
M  V30 27 C -3.7714 -3.5514 5.6047 0
M  V30 28 H 0.3589 0.6541 -1.017 0
M  V30 29 H 1.9554 1.0043 -0.2375 0
M  V30 30 H 0.9994 -0.1957 2.5689 0
M  V30 31 H 0.2438 0.6646 1.2271 0
M  V30 32 H 1.3913 -3.3831 0.6672 0
M  V30 33 H 1.7017 -2.6219 2.2298 0
M  V30 34 H -1.4236 -0.0399 2.9332 0
M  V30 35 H -1.7468 -0.759 1.3318 0
M  V30 36 H -0.2492 -4.0947 2.4004 0
M  V30 37 H -1.0444 -3.3065 1.0323 0
M  V30 38 H 1.0467 2.8724 -1.2683 0
M  V30 39 H 4.2171 0.4184 -4.4464 0
M  V30 40 H 3.1037 0.5478 -5.8306 0
M  V30 41 H 2.6178 -0.3656 -4.4262 0
M  V30 42 H -0.5085 -3.7442 4.7407 0
M  V30 43 H 2.2133 5.1286 -4.7062 0
M  V30 44 H 2.7101 2.6715 -6.9061 0
M  V30 45 H 4.3278 2.6921 -6.1411 0
M  V30 46 H 3.4654 4.1993 -6.4301 0
M  V30 47 H 0.1574 5.1296 -1.6402 0
M  V30 48 H 1.7913 5.8369 -1.6938 0
M  V30 49 H 0.6557 6.0691 -3.0459 0
M  V30 50 H -5.2607 -2.3919 4.6296 0
M  V30 51 H -2.086 -4.6194 6.4082 0
M  V30 52 H -5.6416 -2.1034 2.2864 0
M  V30 53 H -5.2577 -0.5548 1.5273 0
M  V30 54 H -5.5615 -0.5857 3.2667 0
M  V30 55 H -4.4673 -3.9255 6.3509 0
M  V30 END ATOM
M  V30 BEGIN BOND
M  V30 1 2 1 2
M  V30 2 1 2 3
M  V30 3 1 2 4
M  V30 4 1 3 5
M  V30 5 1 3 6
M  V30 6 1 4 7
M  V30 7 1 5 8
M  V30 8 1 6 9
M  V30 9 1 7 10
M  V30 10 1 8 11
M  V30 11 2 10 12
M  V30 12 1 10 13
M  V30 13 1 11 14
M  V30 14 1 12 15
M  V30 15 1 12 16
M  V30 16 2 13 17
M  V30 17 2 14 18
M  V30 18 1 14 19
M  V30 19 2 15 20
M  V30 20 1 15 21
M  V30 21 1 17 22
M  V30 22 1 18 23
M  V30 23 1 18 24
M  V30 24 2 19 25
M  V30 25 1 23 26
M  V30 26 2 24 27
M  V30 27 1 9 11
M  V30 28 1 17 20
M  V30 29 1 25 27
M  V30 30 1 4 28
M  V30 31 1 4 29
M  V30 32 1 5 30
M  V30 33 1 5 31
M  V30 34 1 6 32
M  V30 35 1 6 33
M  V30 36 1 8 34
M  V30 37 1 8 35
M  V30 38 1 9 36
M  V30 39 1 9 37
M  V30 40 1 13 38
M  V30 41 1 16 39
M  V30 42 1 16 40
M  V30 43 1 16 41
M  V30 44 1 19 42
M  V30 45 1 20 43
M  V30 46 1 21 44
M  V30 47 1 21 45
M  V30 48 1 21 46
M  V30 49 1 22 47
M  V30 50 1 22 48
M  V30 51 1 22 49
M  V30 52 1 24 50
M  V30 53 1 25 51
M  V30 54 1 26 52
M  V30 55 1 26 53
M  V30 56 1 26 54
M  V30 57 1 27 55
M  V30 END BOND
M  V30 END CTAB
M  END
>  <NO.>
4011

>  <Name>
dexrazoxane

>  <SMILES>
COc1ccccc1N1CCN(C(=O)COc2cc(C)cc(C)c2C)CC1

>  <logBB>


>  <Class>
-1

>  <MW>
368.21

>  <nHBAcc>
4

>  <nHBDon>
0

>  <SLogP>
3.35

>  <TopoPSA>
42.01

>  <MMFF94 Energy>
150.9

$$$$
CS(=O)(=O)[C@@H]1[C@@H](c2ccc3c(c2)OCO3)[C@]1(C#N)C=O
Actelion Java MolfileCreator 2.0

  0  0  0  0  0  0              0 V3000
M  V30 BEGIN CTAB
M  V30 COUNTS 31 33 0 0 0
M  V30 BEGIN ATOM
M  V30 1 S 2.6583 -1.827 -0.9962 0
M  V30 2 O 1.9596 -2.2883 -2.175 0
M  V30 3 O 4.0097 -1.3061 -1.0288 0
M  V30 4 C 1.6617 -0.5539 -0.2084 0 CFG=1
M  V30 5 C 2.6294 -3.1515 0.1812 0
M  V30 6 C 1.8908 0.8441 -0.7637 0 CFG=1
M  V30 7 C 0.5804 0.0873 -1.029 0 CFG=2
M  V30 8 C 1.9831 1.8494 0.2631 0
M  V30 9 C 2.7277 1.1522 -1.9621 0
M  V30 10 C -0.7264 0.5137 -0.3916 0
M  V30 11 N 2.078 2.6515 1.095 0
M  V30 12 O 2.5873 0.5682 -3.0295 0
M  V30 13 C -1.4019 -0.3193 0.5204 0
M  V30 14 C -1.2578 1.8083 -0.6237 0
M  V30 15 C -2.5526 0.1424 1.1274 0
M  V30 16 C -2.4273 2.2549 0.0037 0
M  V30 17 O -3.3098 -0.5494 2.0203 0
M  V30 18 C -3.0521 1.3951 0.8756 0
M  V30 19 C -4.35 0.4135 2.2957 0
M  V30 20 O -4.1886 1.6523 1.5743 0
M  V30 21 H 1.521 -0.6619 0.8589 0
M  V30 22 H 3.2265 -3.9747 -0.2161 0
M  V30 23 H 3.058 -2.7992 1.1213 0
M  V30 24 H 1.5962 -3.4737 0.3236 0
M  V30 25 H 0.4456 -0.2965 -2.0414 0
M  V30 26 H 3.5032 1.9287 -1.8406 0
M  V30 27 H -1.0446 -1.3188 0.744 0
M  V30 28 H -0.7549 2.4815 -1.3169 0
M  V30 29 H -2.8259 3.245 -0.1874 0
M  V30 30 H -4.3506 0.6306 3.3701 0
M  V30 31 H -5.3164 -0.0272 2.025 0
M  V30 END ATOM
M  V30 BEGIN BOND
M  V30 1 2 1 2
M  V30 2 2 1 3
M  V30 3 1 1 4
M  V30 4 1 1 5
M  V30 5 1 4 6
M  V30 6 1 4 7
M  V30 7 1 6 8
M  V30 8 1 6 9
M  V30 9 1 7 10
M  V30 10 3 8 11
M  V30 11 2 9 12
M  V30 12 2 10 13
M  V30 13 1 10 14
M  V30 14 1 13 15
M  V30 15 2 14 16
M  V30 16 1 15 17
M  V30 17 2 15 18
M  V30 18 1 17 19
M  V30 19 1 18 20
M  V30 20 1 6 7
M  V30 21 1 16 18
M  V30 22 1 19 20
M  V30 23 1 4 21
M  V30 24 1 5 22
M  V30 25 1 5 23
M  V30 26 1 5 24
M  V30 27 1 7 25
M  V30 28 1 9 26
M  V30 29 1 13 27
M  V30 30 1 14 28
M  V30 31 1 16 29
M  V30 32 1 19 30
M  V30 33 1 19 31
M  V30 END BOND
M  V30 BEGIN COLLECTION
M  V30 MDLV30/STEABS ATOMS=(3 4 6 7)
M  V30 END COLLECTION
M  V30 END CTAB
M  END
>  <NO.>
4012

>  <Name>
risperidone

>  <SMILES>
CS(=O)(=O)[C@@H]1[C@@H](c2ccc3c(c2)OCO3)[C@]1(C#N)C=O

>  <logBB>


>  <Class>
1

>  <MW>
293.04

>  <nHBAcc>
6

>  <nHBDon>
0

>  <SLogP>
0.63

>  <TopoPSA>
93.46

>  <MMFF94 Energy>
-8.7195

$$$$
CS(=O)(=O)[C@@H]1[C@H](C(N)=S)[C@@H]1c1ccccc1
Actelion Java MolfileCreator 2.0

  0  0  0  0  0  0              0 V3000
M  V30 BEGIN CTAB
M  V30 COUNTS 29 30 0 0 0
M  V30 BEGIN ATOM
M  V30 1 S 0.4105 0.9855 1.9719 0
M  V30 2 O -0.1179 0.925 3.3197 0
M  V30 3 O 1.1902 -0.1037 1.422 0
M  V30 4 C -0.9908 1.3609 0.9127 0 CFG=1
M  V30 5 C 1.402 2.4507 1.8678 0
M  V30 6 C -1.1914 0.7427 -0.442 0 CFG=2
M  V30 7 C -2.0186 0.2662 0.7358 0 CFG=1
M  V30 8 C -0.2223 -0.0862 -1.2416 0
M  V30 9 C -1.9728 -1.0756 1.3695 0
M  V30 10 C -0.5439 -1.3849 -1.6744 0
M  V30 11 C 1.0621 0.3874 -1.5599 0
M  V30 12 S -3.3902 -1.6524 2.0234 0
M  V30 13 N -0.8455 -1.8273 1.4056 0
M  V30 14 C 0.3652 -2.17 -2.3888 0
M  V30 15 C 1.9775 -0.3914 -2.2744 0
M  V30 16 C 1.6281 -1.6722 -2.6878 0
M  V30 17 H -1.389 2.3574 1.0635 0
M  V30 18 H 2.2711 2.3212 2.5161 0
M  V30 19 H 1.7253 2.5907 0.8356 0
M  V30 20 H 0.81 3.3036 2.2051 0
M  V30 21 H -1.7583 1.3882 -1.1204 0
M  V30 22 H -3.0408 0.6556 0.6982 0
M  V30 23 H -1.5269 -1.7992 -1.4567 0
M  V30 24 H 1.3623 1.3861 -1.2558 0
M  V30 25 H 0.0612 -1.5036 1.0656 0
M  V30 26 H -0.8559 -2.7284 1.8657 0
M  V30 27 H 0.0838 -3.1707 -2.7065 0
M  V30 28 H 2.9643 0.0023 -2.5027 0
M  V30 29 H 2.3387 -2.2816 -3.2394 0
M  V30 END ATOM
M  V30 BEGIN BOND
M  V30 1 2 1 2
M  V30 2 2 1 3
M  V30 3 1 1 4
M  V30 4 1 1 5
M  V30 5 1 4 6
M  V30 6 1 4 7
M  V30 7 1 6 8
M  V30 8 1 7 9
M  V30 9 2 8 10
M  V30 10 1 8 11
M  V30 11 2 9 12
M  V30 12 1 9 13
M  V30 13 1 10 14
M  V30 14 2 11 15
M  V30 15 2 14 16
M  V30 16 1 6 7
M  V30 17 1 15 16
M  V30 18 1 4 17
M  V30 19 1 5 18
M  V30 20 1 5 19
M  V30 21 1 5 20
M  V30 22 1 6 21
M  V30 23 1 7 22
M  V30 24 1 10 23
M  V30 25 1 11 24
M  V30 26 1 13 25
M  V30 27 1 13 26
M  V30 28 1 14 27
M  V30 29 1 15 28
M  V30 30 1 16 29
M  V30 END BOND
M  V30 BEGIN COLLECTION
M  V30 MDLV30/STEABS ATOMS=(3 4 6 7)
M  V30 END COLLECTION
M  V30 END CTAB
M  END
>  <NO.>
4013

>  <Name>
nicotine

>  <SMILES>
CS(=O)(=O)[C@@H]1[C@H](C(N)=S)[C@@H]1c1ccccc1

>  <logBB>


>  <Class>
1

>  <MW>
255.04

>  <nHBAcc>
3

>  <nHBDon>
1

>  <SLogP>
1.1

>  <TopoPSA>
60.16

>  <MMFF94 Energy>
0.70903

$$$$
CS(=O)(=O)[C@H]1[C@@H](C#N)[C@@H]1c1ccccc1
Actelion Java MolfileCreator 2.0

  0  0  0  0  0  0              0 V3000
M  V30 BEGIN CTAB
M  V30 COUNTS 26 27 0 0 0
M  V30 BEGIN ATOM
M  V30 1 S -0.6569 2.2185 1.5608 0
M  V30 2 O 0.604 2.9327 1.5789 0
M  V30 3 O -1.7554 2.669 0.7342 0
M  V30 4 C -0.2203 0.5321 1.0819 0 CFG=1
M  V30 5 C -1.2209 2.0768 3.235 0
M  V30 6 C -1.3079 -0.44 0.7331 0 CFG=2
M  V30 7 C -0.5234 0.2385 -0.3735 0 CFG=2
M  V30 8 C -2.6993 -0.1508 0.9121 0
M  V30 9 C 0.4757 -0.5433 -1.1954 0
M  V30 10 N -3.824 0.0389 1.1174 0
M  V30 11 C 0.1256 -1.7533 -1.8181 0
M  V30 12 C 1.8212 -0.144 -1.2715 0
M  V30 13 C 1.0683 -2.5132 -2.5155 0
M  V30 14 C 2.7679 -0.8998 -1.9673 0
M  V30 15 C 2.39 -2.0847 -2.5907 0
M  V30 16 H 0.6863 0.1403 1.5219 0
M  V30 17 H -0.4316 1.6187 3.8337 0
M  V30 18 H -1.4341 3.0813 3.607 0
M  V30 19 H -2.1274 1.4722 3.2645 0
M  V30 20 H -1.0701 -1.4827 0.9279 0
M  V30 21 H -1.0553 0.9976 -0.9466 0
M  V30 22 H -0.9022 -2.1082 -1.7747 0
M  V30 23 H 2.1391 0.781 -0.792 0
M  V30 24 H 0.7686 -3.4387 -3.0007 0
M  V30 25 H 3.7991 -0.5601 -2.0223 0
M  V30 26 H 3.1242 -2.6726 -3.1351 0
M  V30 END ATOM
M  V30 BEGIN BOND
M  V30 1 2 1 2
M  V30 2 2 1 3
M  V30 3 1 1 4
M  V30 4 1 1 5
M  V30 5 1 4 6
M  V30 6 1 4 7
M  V30 7 1 6 8
M  V30 8 1 7 9
M  V30 9 3 8 10
M  V30 10 2 9 11
M  V30 11 1 9 12
M  V30 12 1 11 13
M  V30 13 2 12 14
M  V30 14 2 13 15
M  V30 15 1 6 7
M  V30 16 1 14 15
M  V30 17 1 4 16
M  V30 18 1 5 17
M  V30 19 1 5 18
M  V30 20 1 5 19
M  V30 21 1 6 20
M  V30 22 1 7 21
M  V30 23 1 11 22
M  V30 24 1 12 23
M  V30 25 1 13 24
M  V30 26 1 14 25
M  V30 27 1 15 26
M  V30 END BOND
M  V30 BEGIN COLLECTION
M  V30 MDLV30/STEABS ATOMS=(3 4 6 7)
M  V30 END COLLECTION
M  V30 END CTAB
M  END
>  <NO.>
4016

>  <Name>
cytarabine

>  <SMILES>
CS(=O)(=O)[C@H]1[C@@H](C#N)[C@@H]1c1ccccc1

>  <logBB>


>  <Class>
1

>  <MW>
221.05

>  <nHBAcc>
3

>  <nHBDon>
0

>  <SLogP>
1.34

>  <TopoPSA>
57.93

>  <MMFF94 Energy>
7.1764

$$$$
CS(=O)(=O)[C@H]1[C@@H](c2ccc3c(c2)OCO3)C1(C#N)C#N
Actelion Java MolfileCreator 2.0

  0  0  0  0  0  0              0 V3000
M  V30 BEGIN CTAB
M  V30 COUNTS 30 32 0 0 0
M  V30 BEGIN ATOM
M  V30 1 S 1.1645 -1.9969 0.9981 0
M  V30 2 O 0.528 -0.9445 1.754 0
M  V30 3 O 0.463 -3.223 0.6751 0
M  V30 4 C 1.7211 -1.3621 -0.5874 0 CFG=2
M  V30 5 C 2.6643 -2.4434 1.8315 0
M  V30 6 C 2.1843 0.0708 -0.6395 0
M  V30 7 C 0.8803 -0.343 -1.3148 0 CFG=2
M  V30 8 C 2.23 0.9238 0.5109 0
M  V30 9 C 3.3074 0.3339 -1.4993 0
M  V30 10 C -0.4984 0.1174 -0.8968 0
M  V30 11 N 2.3541 1.6239 1.4276 0
M  V30 12 N 4.21 0.4896 -2.2106 0
M  V30 13 C -0.7757 1.4672 -0.606 0
M  V30 14 C -1.5526 -0.8192 -0.7284 0
M  V30 15 C -2.0437 1.8201 -0.1863 0
M  V30 16 C -2.8306 -0.438 -0.3007 0
M  V30 17 O -2.4547 3.0808 0.1174 0
M  V30 18 C -3.0436 0.8932 -0.0364 0
M  V30 19 C -3.8196 2.8311 0.514 0
M  V30 20 O -4.2104 1.4483 0.384 0
M  V30 21 H 2.225 -2.0978 -1.2029 0
M  V30 22 H 3.2634 -1.5466 1.9964 0
M  V30 23 H 2.3996 -2.8954 2.7897 0
M  V30 24 H 3.2081 -3.1632 1.2171 0
M  V30 25 H 0.9367 -0.4307 -2.4035 0
M  V30 26 H -0.0244 2.243 -0.7113 0
M  V30 27 H -1.3766 -1.8752 -0.9323 0
M  V30 28 H -3.6215 -1.1684 -0.1729 0
M  V30 29 H -4.4821 3.4418 -0.1099 0
M  V30 30 H -3.9432 3.1349 1.5602 0
M  V30 END ATOM
M  V30 BEGIN BOND
M  V30 1 2 1 2
M  V30 2 2 1 3
M  V30 3 1 1 4
M  V30 4 1 1 5
M  V30 5 1 4 6
M  V30 6 1 4 7
M  V30 7 1 6 8
M  V30 8 1 6 9
M  V30 9 1 7 10
M  V30 10 3 8 11
M  V30 11 3 9 12
M  V30 12 2 10 13
M  V30 13 1 10 14
M  V30 14 1 13 15
M  V30 15 2 14 16
M  V30 16 1 15 17
M  V30 17 2 15 18
M  V30 18 1 17 19
M  V30 19 1 18 20
M  V30 20 1 6 7
M  V30 21 1 16 18
M  V30 22 1 19 20
M  V30 23 1 4 21
M  V30 24 1 5 22
M  V30 25 1 5 23
M  V30 26 1 5 24
M  V30 27 1 7 25
M  V30 28 1 13 26
M  V30 29 1 14 27
M  V30 30 1 16 28
M  V30 31 1 19 29
M  V30 32 1 19 30
M  V30 END BOND
M  V30 BEGIN COLLECTION
M  V30 MDLV30/STEABS ATOMS=(2 4 7)
M  V30 END COLLECTION
M  V30 END CTAB
M  END
>  <NO.>
4017

>  <Name>
ribavirin

>  <SMILES>
CS(=O)(=O)[C@H]1[C@@H](c2ccc3c(c2)OCO3)C1(C#N)C#N

>  <logBB>


>  <Class>
1

>  <MW>
290.04

>  <nHBAcc>
6

>  <nHBDon>
0

>  <SLogP>
0.96

>  <TopoPSA>
100.18

>  <MMFF94 Energy>
-12.213

$$$$
CSCC[C@@H](CO)NC(=O)C1CCN(c2ncccn2)CC1
Actelion Java MolfileCreator 2.0

  0  0  0  0  0  0              0 V3000
M  V30 BEGIN CTAB
M  V30 COUNTS 46 47 0 0 0
M  V30 BEGIN ATOM
M  V30 1 S -0.637 3.9071 -4.1466 0
M  V30 2 C 0.339 3.4522 -2.6687 0
M  V30 3 C 0.7004 4.4055 -5.2584 0
M  V30 4 C 1.1771 2.1934 -2.8906 0
M  V30 5 C 1.8302 1.6183 -1.6167 0 CFG=2
M  V30 6 N 0.8192 1.1365 -0.6808 0
M  V30 7 C 2.7771 2.5976 -0.9028 0
M  V30 8 C 0.2876 -0.131 -0.7412 0
M  V30 9 O 2.0386 3.6152 -0.2256 0
M  V30 10 O 0.6429 -0.9592 -1.5729 0
M  V30 11 C -0.7889 -0.3935 0.3046 0
M  V30 12 C -1.516 -1.7223 0.0258 0
M  V30 13 C -0.1824 -0.3777 1.721 0
M  V30 14 C -2.5314 -2.0335 1.1253 0
M  V30 15 C -1.2354 -0.7329 2.7721 0
M  V30 16 N -1.8543 -1.9974 2.413 0
M  V30 17 C -1.3541 -3.1695 2.9442 0
M  V30 18 N -1.7548 -4.343 2.4253 0
M  V30 19 N -0.4829 -3.1018 3.9668 0
M  V30 20 C -1.2555 -5.4741 2.9576 0
M  V30 21 C -0.0092 -4.2572 4.4703 0
M  V30 22 C -0.3653 -5.4922 3.9977 0
M  V30 23 H -0.378 3.297 -1.8568 0
M  V30 24 H 0.9645 4.3088 -2.4022 0
M  V30 25 H 0.2671 4.8435 -6.1617 0
M  V30 26 H 1.3007 3.5418 -5.5534 0
M  V30 27 H 1.3368 5.1558 -4.7822 0
M  V30 28 H 1.9753 2.4085 -3.6113 0
M  V30 29 H 0.5501 1.4109 -3.3384 0
M  V30 30 H 2.4315 0.7563 -1.933 0
M  V30 31 H 0.4658 1.8118 -0.012 0
M  V30 32 H 3.4648 3.0685 -1.6124 0
M  V30 33 H 3.3636 2.0628 -0.1477 0
M  V30 34 H 2.69 4.1785 0.2296 0
M  V30 35 H -1.5229 0.4208 0.2273 0
M  V30 36 H -2.0256 -1.6738 -0.9439 0
M  V30 37 H -0.7877 -2.5411 -0.0413 0
M  V30 38 H 0.6517 -1.0897 1.772 0
M  V30 39 H 0.2355 0.6089 1.9516 0
M  V30 40 H -3.0435 -2.981 0.924 0
M  V30 41 H -3.3163 -1.266 1.1172 0
M  V30 42 H -0.7979 -0.7269 3.7769 0
M  V30 43 H -2.0073 0.0475 2.783 0
M  V30 44 H -1.6099 -6.3934 2.502 0
M  V30 45 H 0.6892 -4.1492 5.2941 0
M  V30 46 H 0.0248 -6.4091 4.4133 0
M  V30 END ATOM
M  V30 BEGIN BOND
M  V30 1 1 1 2
M  V30 2 1 1 3
M  V30 3 1 2 4
M  V30 4 1 4 5
M  V30 5 1 5 6
M  V30 6 1 5 7
M  V30 7 1 6 8
M  V30 8 1 7 9
M  V30 9 2 8 10
M  V30 10 1 8 11
M  V30 11 1 11 12
M  V30 12 1 11 13
M  V30 13 1 12 14
M  V30 14 1 13 15
M  V30 15 1 14 16
M  V30 16 1 16 17
M  V30 17 2 17 18
M  V30 18 1 17 19
M  V30 19 1 18 20
M  V30 20 2 19 21
M  V30 21 2 20 22
M  V30 22 1 15 16
M  V30 23 1 21 22
M  V30 24 1 2 23
M  V30 25 1 2 24
M  V30 26 1 3 25
M  V30 27 1 3 26
M  V30 28 1 3 27
M  V30 29 1 4 28
M  V30 30 1 4 29
M  V30 31 1 5 30
M  V30 32 1 6 31
M  V30 33 1 7 32
M  V30 34 1 7 33
M  V30 35 1 9 34
M  V30 36 1 11 35
M  V30 37 1 12 36
M  V30 38 1 12 37
M  V30 39 1 13 38
M  V30 40 1 13 39
M  V30 41 1 14 40
M  V30 42 1 14 41
M  V30 43 1 15 42
M  V30 44 1 15 43
M  V30 45 1 20 44
M  V30 46 1 21 45
M  V30 47 1 22 46
M  V30 END BOND
M  V30 BEGIN COLLECTION
M  V30 MDLV30/STEABS ATOMS=(1 5)
M  V30 END COLLECTION
M  V30 END CTAB
M  END
>  <NO.>
4020

>  <Name>
triamcinolone

>  <SMILES>
CSCC[C@@H](CO)NC(=O)C1CCN(c2ncccn2)CC1

>  <logBB>


>  <Class>
-1

>  <MW>
324.16

>  <nHBAcc>
6

>  <nHBDon>
2

>  <SLogP>
0.92

>  <TopoPSA>
78.35

>  <MMFF94 Energy>
-75.523

$$$$
C[C@@H](CC(=O)N1CCc2[nH]ncc2C1)N1CCOCC1
Actelion Java MolfileCreator 2.0

  0  0  0  0  0  0              0 V3000
M  V30 BEGIN CTAB
M  V30 COUNTS 42 44 0 0 0
M  V30 BEGIN ATOM
M  V30 1 O -0.3177 1.2715 2.1464 0
M  V30 2 C -0.1605 1.0686 0.9423 0
M  V30 3 N 0.1735 2.0961 0.0689 0
M  V30 4 C -0.3407 -0.3178 0.3399 0
M  V30 5 C 0.3864 3.4388 0.6519 0
M  V30 6 C 0.1691 1.9961 -1.4118 0
M  V30 7 C -0.5182 -1.4266 1.3987 0 CFG=1
M  V30 8 C 1.3856 4.1823 -0.16 0
M  V30 9 C 1.4911 2.4906 -2.0439 0
M  V30 10 N -1.0475 -2.7122 0.8802 0
M  V30 11 C 0.8092 -1.705 2.1255 0
M  V30 12 C 1.8711 3.7547 -1.3752 0
M  V30 13 C 2.0395 5.4081 0.0565 0
M  V30 14 C -2.5029 -2.6615 0.6303 0
M  V30 15 C -0.3639 -3.24 -0.3158 0
M  V30 16 N 2.756 4.6929 -1.8031 0
M  V30 17 N 2.8688 5.7249 -0.9452 0
M  V30 18 C -3.0392 -4.0298 0.1779 0
M  V30 19 C -0.9537 -4.5972 -0.736 0
M  V30 20 O -2.3594 -4.4897 -0.9982 0
M  V30 21 H -1.2297 -0.2634 -0.298 0
M  V30 22 H 0.5292 -0.5421 -0.288 0
M  V30 23 H -0.5787 3.9572 0.6356 0
M  V30 24 H 0.7219 3.361 1.6912 0
M  V30 25 H -0.6661 2.6199 -1.7566 0
M  V30 26 H -0.0368 0.9806 -1.755 0
M  V30 27 H -1.2136 -1.0765 2.1733 0
M  V30 28 H 1.3659 2.6255 -3.1229 0
M  V30 29 H 2.2778 1.7454 -1.8787 0
M  V30 30 H 1.1504 -0.8229 2.6768 0
M  V30 31 H 0.692 -2.5139 2.8559 0
M  V30 32 H 1.608 -1.9865 1.4317 0
M  V30 33 H 1.9494 6.0862 0.8959 0
M  V30 34 H -2.7297 -1.9231 -0.1476 0
M  V30 35 H -3.0332 -2.3664 1.5431 0
M  V30 36 H 0.705 -3.3759 -0.1246 0
M  V30 37 H -0.4751 -2.5437 -1.1559 0
M  V30 38 H 3.3138 4.7075 -2.651 0
M  V30 39 H -4.1033 -3.9478 -0.0663 0
M  V30 40 H -2.9372 -4.7796 0.9719 0
M  V30 41 H -0.7843 -5.3612 0.0325 0
M  V30 42 H -0.472 -4.9401 -1.6572 0
M  V30 END ATOM
M  V30 BEGIN BOND
M  V30 1 2 1 2
M  V30 2 1 2 3
M  V30 3 1 2 4
M  V30 4 1 3 5
M  V30 5 1 3 6
M  V30 6 1 4 7
M  V30 7 1 5 8
M  V30 8 1 6 9
M  V30 9 1 7 10
M  V30 10 1 7 11
M  V30 11 2 8 12
M  V30 12 1 8 13
M  V30 13 1 10 14
M  V30 14 1 10 15
M  V30 15 1 12 16
M  V30 16 2 13 17
M  V30 17 1 14 18
M  V30 18 1 15 19
M  V30 19 1 18 20
M  V30 20 1 9 12
M  V30 21 1 16 17
M  V30 22 1 19 20
M  V30 23 1 4 21
M  V30 24 1 4 22
M  V30 25 1 5 23
M  V30 26 1 5 24
M  V30 27 1 6 25
M  V30 28 1 6 26
M  V30 29 1 7 27
M  V30 30 1 9 28
M  V30 31 1 9 29
M  V30 32 1 11 30
M  V30 33 1 11 31
M  V30 34 1 11 32
M  V30 35 1 13 33
M  V30 36 1 14 34
M  V30 37 1 14 35
M  V30 38 1 15 36
M  V30 39 1 15 37
M  V30 40 1 16 38
M  V30 41 1 18 39
M  V30 42 1 18 40
M  V30 43 1 19 41
M  V30 44 1 19 42
M  V30 END BOND
M  V30 BEGIN COLLECTION
M  V30 MDLV30/STEABS ATOMS=(1 7)
M  V30 END COLLECTION
M  V30 END CTAB
M  END
>  <NO.>
4021

>  <Name>
polythiazide

>  <SMILES>
C[C@@H](CC(=O)N1CCc2[nH]ncc2C1)N1CCOCC1

>  <logBB>


>  <Class>
-1

>  <MW>
278.17

>  <nHBAcc>
4

>  <nHBDon>
1

>  <SLogP>
0.41

>  <TopoPSA>
61.46

>  <MMFF94 Energy>
72.599

$$$$
C[C@@H](O)c1cc2n(n1)CCN(C(=O)CC1=C(c3ccccc3)CCC1=O)C2
Actelion Java MolfileCreator 2.0

  0  0  0  0  0  0              0 V3000
M  V30 BEGIN CTAB
M  V30 COUNTS 50 53 0 0 0
M  V30 BEGIN ATOM
M  V30 1 O -2.6394 -1.0391 -1.599 0
M  V30 2 C -3.1996 -0.9537 -0.5156 0
M  V30 3 C -2.4781 -0.9727 0.7698 0
M  V30 4 C -4.6808 -0.8242 -0.3315 0
M  V30 5 C -3.4343 -0.9366 1.7113 0
M  V30 6 C -0.9946 -1.0587 0.8366 0
M  V30 7 C -4.8385 -0.9047 1.1796 0
M  V30 8 C -3.2133 -0.9559 3.1607 0
M  V30 9 C -0.3733 0.2598 0.3844 0
M  V30 10 C -3.7991 -1.9502 3.9547 0
M  V30 11 C -2.4342 0.0301 3.7795 0
M  V30 12 O -0.5345 1.2684 1.0815 0
M  V30 13 N 0.3794 0.3094 -0.7798 0
M  V30 14 C -3.5981 -1.9655 5.3374 0
M  V30 15 C -2.2336 0.0145 5.1617 0
M  V30 16 C 0.9997 1.5917 -1.1173 0
M  V30 17 C 0.3945 -0.7063 -1.844 0
M  V30 18 C -2.8145 -0.9839 5.9401 0
M  V30 19 C 2.2286 1.3943 -1.932 0
M  V30 20 C 1.8176 -1.041 -2.2656 0
M  V30 21 N 2.5653 0.1826 -2.4627 0
M  V30 22 C 3.2217 2.2599 -2.3357 0
M  V30 23 N 3.7035 0.1905 -3.1768 0
M  V30 24 C 4.1142 1.4688 -3.0989 0
M  V30 25 C 5.379 1.8939 -3.7923 0 CFG=2
M  V30 26 O 5.7573 0.9513 -4.8049 0
M  V30 27 C 6.545 2.0291 -2.8229 0
M  V30 28 H -5.0209 0.1388 -0.7227 0
M  V30 29 H -5.2007 -1.6446 -0.8335 0
M  V30 30 H -0.6558 -1.224 1.8663 0
M  V30 31 H -0.63 -1.925 0.2865 0
M  V30 32 H -5.3909 -0.0366 1.5561 0
M  V30 33 H -5.3947 -1.8074 1.4552 0
M  V30 34 H -4.4082 -2.7311 3.5063 0
M  V30 35 H -1.983 0.8293 3.194 0
M  V30 36 H -4.053 -2.7447 5.9437 0
M  V30 37 H -1.6262 0.7863 5.628 0
M  V30 38 H 1.2452 2.1513 -0.208 0
M  V30 39 H 0.263 2.1733 -1.6838 0
M  V30 40 H -0.1603 -0.279 -2.6896 0
M  V30 41 H -0.1217 -1.6225 -1.5638 0
M  V30 42 H -2.6584 -0.9948 7.0157 0
M  V30 43 H 1.8293 -1.6129 -3.1985 0
M  V30 44 H 2.3397 -1.6038 -1.4843 0
M  V30 45 H 3.2966 3.3154 -2.1127 0
M  V30 46 H 5.2098 2.8522 -4.2957 0
M  V30 47 H 5.2138 0.1608 -4.6014 0
M  V30 48 H 6.337 2.7685 -2.0427 0
M  V30 49 H 6.7664 1.0713 -2.3375 0
M  V30 50 H 7.4535 2.3297 -3.356 0
M  V30 END ATOM
M  V30 BEGIN BOND
M  V30 1 2 1 2
M  V30 2 1 2 3
M  V30 3 1 2 4
M  V30 4 2 3 5
M  V30 5 1 3 6
M  V30 6 1 4 7
M  V30 7 1 5 8
M  V30 8 1 6 9
M  V30 9 2 8 10
M  V30 10 1 8 11
M  V30 11 2 9 12
M  V30 12 1 9 13
M  V30 13 1 10 14
M  V30 14 2 11 15
M  V30 15 1 13 16
M  V30 16 1 13 17
M  V30 17 2 14 18
M  V30 18 1 16 19
M  V30 19 1 17 20
M  V30 20 1 19 21
M  V30 21 2 19 22
M  V30 22 1 21 23
M  V30 23 1 22 24
M  V30 24 1 24 25
M  V30 25 1 25 26
M  V30 26 1 25 27
M  V30 27 1 5 7
M  V30 28 1 15 18
M  V30 29 1 20 21
M  V30 30 2 23 24
M  V30 31 1 4 28
M  V30 32 1 4 29
M  V30 33 1 6 30
M  V30 34 1 6 31
M  V30 35 1 7 32
M  V30 36 1 7 33
M  V30 37 1 10 34
M  V30 38 1 11 35
M  V30 39 1 14 36
M  V30 40 1 15 37
M  V30 41 1 16 38
M  V30 42 1 16 39
M  V30 43 1 17 40
M  V30 44 1 17 41
M  V30 45 1 18 42
M  V30 46 1 20 43
M  V30 47 1 20 44
M  V30 48 1 22 45
M  V30 49 1 25 46
M  V30 50 1 26 47
M  V30 51 1 27 48
M  V30 52 1 27 49
M  V30 53 1 27 50
M  V30 END BOND
M  V30 BEGIN COLLECTION
M  V30 MDLV30/STEABS ATOMS=(1 25)
M  V30 END COLLECTION
M  V30 END CTAB
M  END
>  <NO.>
4022

>  <Name>
ceftazidime

>  <SMILES>
C[C@@H](O)c1cc2n(n1)CCN(C(=O)CC1=C(c3ccccc3)CCC1=O)C2

>  <logBB>


>  <Class>
1

>  <MW>
365.17

>  <nHBAcc>
4

>  <nHBDon>
1

>  <SLogP>
2.49

>  <TopoPSA>
75.43

>  <MMFF94 Energy>
19.618

$$$$
C[C@](O)(CNC(=O)C(=O)Nc1cccc(C(F)(F)F)c1)c1cc2ccccc2o1
Actelion Java MolfileCreator 2.0

  0  0  0  0  0  0              0 V3000
M  V30 BEGIN CTAB
M  V30 COUNTS 46 48 0 0 0
M  V30 BEGIN ATOM
M  V30 1 F 0.3219 4.4333 6.7769 0
M  V30 2 C -0.826 3.7019 6.7768 0
M  V30 3 F -1.7093 4.3927 6.0025 0
M  V30 4 F -1.3147 3.7701 8.0466 0
M  V30 5 C -0.6051 2.2888 6.2993 0
M  V30 6 C -0.6574 1.9854 4.9272 0
M  V30 7 C -0.3085 1.2652 7.2086 0
M  V30 8 C -0.4341 0.6821 4.4657 0
M  V30 9 C -0.0854 -0.0334 6.755 0
M  V30 10 N -0.5121 0.4685 3.08 0
M  V30 11 C -0.1494 -0.3236 5.3895 0
M  V30 12 C -0.3258 -0.7116 2.3927 0
M  V30 13 O -0.0548 -1.8258 2.8176 0
M  V30 14 C -0.5006 -0.5206 0.8704 0
M  V30 15 O -0.8059 0.5766 0.421 0
M  V30 16 N -0.2805 -1.6618 0.1337 0
M  V30 17 C -0.34 -1.6645 -1.3175 0
M  V30 18 C 0.9647 -1.163 -2.0011 0 CFG=2
M  V30 19 O 1.349 0.1204 -1.4935 0
M  V30 20 C 0.7382 -0.9754 -3.4729 0
M  V30 21 C 2.1278 -2.1163 -1.714 0
M  V30 22 O -0.248 -0.0902 -3.8191 0
M  V30 23 C 1.3107 -1.5006 -4.617 0
M  V30 24 C -0.303 -0.0531 -5.1776 0
M  V30 25 C 0.6426 -0.9114 -5.7225 0
M  V30 26 C -1.1771 0.7272 -5.9301 0
M  V30 27 C 0.7355 -1.0075 -7.122 0
M  V30 28 C -1.0707 0.6176 -7.3205 0
M  V30 29 C -0.1314 -0.2343 -7.9083 0
M  V30 30 H -0.8771 2.7846 4.2201 0
M  V30 31 H -0.2515 1.4756 8.2758 0
M  V30 32 H 0.1413 -0.8266 7.4639 0
M  V30 33 H -0.7285 1.2661 2.4851 0
M  V30 34 H 0.0313 -1.3486 5.0801 0
M  V30 35 H -0.0211 -2.4985 0.6507 0
M  V30 36 H -0.5775 -2.6862 -1.6355 0
M  V30 37 H -1.187 -1.0265 -1.5992 0
M  V30 38 H 0.5391 0.6668 -1.4778 0
M  V30 39 H 3.0551 -1.7608 -2.1794 0
M  V30 40 H 1.9261 -3.1279 -2.0825 0
M  V30 41 H 2.3334 -2.175 -0.639 0
M  V30 42 H 2.1185 -2.2177 -4.6554 0
M  V30 43 H -1.8969 1.3839 -5.4572 0
M  V30 44 H 1.4632 -1.6639 -7.5893 0
M  V30 45 H -1.7299 1.208 -7.9537 0
M  V30 46 H -0.0693 -0.298 -8.9927 0
M  V30 END ATOM
M  V30 BEGIN BOND
M  V30 1 1 1 2
M  V30 2 1 2 3
M  V30 3 1 2 4
M  V30 4 1 2 5
M  V30 5 2 5 6
M  V30 6 1 5 7
M  V30 7 1 6 8
M  V30 8 2 7 9
M  V30 9 1 8 10
M  V30 10 2 8 11
M  V30 11 1 10 12
M  V30 12 2 12 13
M  V30 13 1 12 14
M  V30 14 2 14 15
M  V30 15 1 14 16
M  V30 16 1 16 17
M  V30 17 1 17 18
M  V30 18 1 18 19
M  V30 19 1 18 20
M  V30 20 1 18 21
M  V30 21 1 20 22
M  V30 22 2 20 23
M  V30 23 1 22 24
M  V30 24 1 23 25
M  V30 25 1 24 26
M  V30 26 1 25 27
M  V30 27 2 26 28
M  V30 28 2 27 29
M  V30 29 1 9 11
M  V30 30 2 24 25
M  V30 31 1 28 29
M  V30 32 1 6 30
M  V30 33 1 7 31
M  V30 34 1 9 32
M  V30 35 1 10 33
M  V30 36 1 11 34
M  V30 37 1 16 35
M  V30 38 1 17 36
M  V30 39 1 17 37
M  V30 40 1 19 38
M  V30 41 1 21 39
M  V30 42 1 21 40
M  V30 43 1 21 41
M  V30 44 1 23 42
M  V30 45 1 26 43
M  V30 46 1 27 44
M  V30 47 1 28 45
M  V30 48 1 29 46
M  V30 END BOND
M  V30 BEGIN COLLECTION
M  V30 MDLV30/STEABS ATOMS=(1 18)
M  V30 END COLLECTION
M  V30 END CTAB
M  END
>  <NO.>
4024

>  <Name>
methane

>  <SMILES>
C[C@](O)(CNC(=O)C(=O)Nc1cccc(C(F)(F)F)c1)c1cc2ccccc2o1

>  <logBB>


>  <Class>
1

>  <MW>
406.11

>  <nHBAcc>
4

>  <nHBDon>
3

>  <SLogP>
3.41

>  <TopoPSA>
91.57

>  <MMFF94 Energy>
102.54

$$$$
Cc1cc(C(=O)N(C)[C@@H](C)c2ccncn2)ccc1Cl
Actelion Java MolfileCreator 2.0

  0  0  0  0  0  0              0 V3000
M  V30 BEGIN CTAB
M  V30 COUNTS 36 37 0 0 0
M  V30 BEGIN ATOM
M  V30 1 Cl 3.4435 -5.0483 -0.3199 0
M  V30 2 C 2.4786 -3.6288 -0.5164 0
M  V30 3 C 1.0763 -3.6784 -0.4351 0
M  V30 4 C 3.1385 -2.4209 -0.7683 0
M  V30 5 C 0.3499 -2.4877 -0.6043 0
M  V30 6 C 0.34 -4.9648 -0.1862 0
M  V30 7 C 2.4083 -1.2438 -0.9342 0
M  V30 8 C 1.0163 -1.276 -0.8313 0
M  V30 9 C 0.2551 -0.0234 -1.0385 0
M  V30 10 O 0.4665 0.5984 -2.0777 0
M  V30 11 N -0.6611 0.3846 -0.0706 0
M  V30 12 C -1.5486 1.5218 -0.3945 0 CFG=2
M  V30 13 C -0.7039 -0.1508 1.2886 0
M  V30 14 C -1.0137 2.8323 0.1797 0
M  V30 15 C -3.0065 1.2533 0.001 0
M  V30 16 N -1.4821 3.2541 1.3792 0
M  V30 17 C -0.0315 3.5292 -0.5047 0
M  V30 18 C -0.9602 4.3949 1.8578 0
M  V30 19 C 0.4302 4.6826 0.0867 0
M  V30 20 N -0.0179 5.143 1.2676 0
M  V30 21 H 4.223 -2.3924 -0.8434 0
M  V30 22 H -0.7376 -2.501 -0.5719 0
M  V30 23 H 0.6433 -5.3996 0.7715 0
M  V30 24 H -0.7427 -4.8051 -0.144 0
M  V30 25 H 0.5356 -5.6785 -0.9929 0
M  V30 26 H 2.9208 -0.308 -1.1453 0
M  V30 27 H -1.5665 1.6426 -1.4859 0
M  V30 28 H 0.1991 -0.7138 1.533 0
M  V30 29 H -1.5739 -0.8071 1.3792 0
M  V30 30 H -0.7868 0.6659 2.01 0
M  V30 31 H -3.1329 1.1469 1.0839 0
M  V30 32 H -3.3664 0.3297 -0.4654 0
M  V30 33 H -3.655 2.0738 -0.3262 0
M  V30 34 H 0.3631 3.1853 -1.453 0
M  V30 35 H -1.3359 4.7437 2.8135 0
M  V30 36 H 1.1997 5.285 -0.3871 0
M  V30 END ATOM
M  V30 BEGIN BOND
M  V30 1 1 1 2
M  V30 2 2 2 3
M  V30 3 1 2 4
M  V30 4 1 3 5
M  V30 5 1 3 6
M  V30 6 2 4 7
M  V30 7 2 5 8
M  V30 8 1 8 9
M  V30 9 2 9 10
M  V30 10 1 9 11
M  V30 11 1 11 12
M  V30 12 1 11 13
M  V30 13 1 12 14
M  V30 14 1 12 15
M  V30 15 2 14 16
M  V30 16 1 14 17
M  V30 17 1 16 18
M  V30 18 2 17 19
M  V30 19 2 18 20
M  V30 20 1 7 8
M  V30 21 1 19 20
M  V30 22 1 4 21
M  V30 23 1 5 22
M  V30 24 1 6 23
M  V30 25 1 6 24
M  V30 26 1 6 25
M  V30 27 1 7 26
M  V30 28 1 12 27
M  V30 29 1 13 28
M  V30 30 1 13 29
M  V30 31 1 13 30
M  V30 32 1 15 31
M  V30 33 1 15 32
M  V30 34 1 15 33
M  V30 35 1 17 34
M  V30 36 1 18 35
M  V30 37 1 19 36
M  V30 END BOND
M  V30 BEGIN COLLECTION
M  V30 MDLV30/STEABS ATOMS=(1 12)
M  V30 END COLLECTION
M  V30 END CTAB
M  END
>  <NO.>
4025

>  <Name>
homatropine

>  <SMILES>
Cc1cc(C(=O)N(C)[C@@H](C)c2ccncn2)ccc1Cl

>  <logBB>


>  <Class>
-1

>  <MW>
289.1

>  <nHBAcc>
3

>  <nHBDon>
0

>  <SLogP>
3.27

>  <TopoPSA>
46.09

>  <MMFF94 Energy>
27.501

$$$$
Cc1cc(C(=O)NCCCN2CCCc3ccccc32)ccc1[N+](=O)[O-]
Actelion Java MolfileCreator 2.0

  0  0  0  0  0  0              0 V3000
M  V30 BEGIN CTAB
M  V30 COUNTS 49 51 0 0 0
M  V30 BEGIN ATOM
M  V30 1 O -7.0064 0.1588 3.3393 0
M  V30 2 N -6.4062 -0.9243 3.3742 0 CHG=1
M  V30 3 O -6.7125 -1.8903 4.0846 0 CHG=-1
M  V30 4 C -5.2606 -1.0741 2.4806 0
M  V30 5 C -4.0355 -1.588 2.9434 0
M  V30 6 C -5.4357 -0.6858 1.1422 0
M  V30 7 C -2.9913 -1.725 2.0113 0
M  V30 8 C -3.8017 -2.0165 4.3653 0
M  V30 9 C -4.3796 -0.8186 0.238 0
M  V30 10 C -3.1509 -1.3309 0.6715 0
M  V30 11 C -1.9964 -1.5046 -0.253 0
M  V30 12 O -1.1649 -2.3778 -0.0351 0
M  V30 13 N -1.9086 -0.6189 -1.3055 0
M  V30 14 C -0.8497 -0.7028 -2.2933 0
M  V30 15 C 0.3039 0.2522 -2.0057 0
M  V30 16 C 1.1537 -0.1848 -0.8099 0
M  V30 17 N 2.2932 0.7249 -0.6432 0
M  V30 18 C 3.4912 0.5868 -1.3366 0
M  V30 19 C 2.1976 1.7201 0.4245 0
M  V30 20 C 4.5395 1.5191 -1.1601 0
M  V30 21 C 3.723 -0.4565 -2.2486 0
M  V30 22 C 2.9263 2.9965 0.0444 0
M  V30 23 C 5.7627 1.375 -1.8413 0
M  V30 24 C 4.39 2.6775 -0.2059 0
M  V30 25 C 4.9356 -0.5905 -2.9356 0
M  V30 26 C 5.9583 0.3238 -2.7287 0
M  V30 27 H -6.3916 -0.2944 0.7971 0
M  V30 28 H -2.0329 -2.1395 2.3273 0
M  V30 29 H -2.7317 -2.1192 4.5768 0
M  V30 30 H -4.1899 -1.2713 5.0672 0
M  V30 31 H -4.2762 -2.9844 4.5533 0
M  V30 32 H -4.5432 -0.55 -0.802 0
M  V30 33 H -2.5639 0.1463 -1.3853 0
M  V30 34 H -1.3076 -0.4354 -3.2519 0
M  V30 35 H -0.4915 -1.7349 -2.3734 0
M  V30 36 H -0.0811 1.2654 -1.8333 0
M  V30 37 H 0.932 0.3077 -2.9028 0
M  V30 38 H 0.5388 -0.1597 0.098 0
M  V30 39 H 1.4809 -1.2261 -0.9035 0
M  V30 40 H 1.1475 1.9665 0.6236 0
M  V30 41 H 2.6103 1.3006 1.3506 0
M  V30 42 H 2.9622 -1.2043 -2.4467 0
M  V30 43 H 2.4752 3.4282 -0.8584 0
M  V30 44 H 2.8356 3.741 0.843 0
M  V30 45 H 6.5651 2.0909 -1.6799 0
M  V30 46 H 4.8828 3.5693 -0.6108 0
M  V30 47 H 4.8867 2.419 0.7372 0
M  V30 48 H 5.0747 -1.4165 -3.6276 0
M  V30 49 H 6.9024 0.2193 -3.255 0
M  V30 END ATOM
M  V30 BEGIN BOND
M  V30 1 2 1 2
M  V30 2 1 2 3
M  V30 3 1 2 4
M  V30 4 2 4 5
M  V30 5 1 4 6
M  V30 6 1 5 7
M  V30 7 1 5 8
M  V30 8 2 6 9
M  V30 9 2 7 10
M  V30 10 1 10 11
M  V30 11 2 11 12
M  V30 12 1 11 13
M  V30 13 1 13 14
M  V30 14 1 14 15
M  V30 15 1 15 16
M  V30 16 1 16 17
M  V30 17 1 17 18
M  V30 18 1 17 19
M  V30 19 2 18 20
M  V30 20 1 18 21
M  V30 21 1 19 22
M  V30 22 1 20 23
M  V30 23 1 20 24
M  V30 24 2 21 25
M  V30 25 2 23 26
M  V30 26 1 9 10
M  V30 27 1 22 24
M  V30 28 1 25 26
M  V30 29 1 6 27
M  V30 30 1 7 28
M  V30 31 1 8 29
M  V30 32 1 8 30
M  V30 33 1 8 31
M  V30 34 1 9 32
M  V30 35 1 13 33
M  V30 36 1 14 34
M  V30 37 1 14 35
M  V30 38 1 15 36
M  V30 39 1 15 37
M  V30 40 1 16 38
M  V30 41 1 16 39
M  V30 42 1 19 40
M  V30 43 1 19 41
M  V30 44 1 21 42
M  V30 45 1 22 43
M  V30 46 1 22 44
M  V30 47 1 23 45
M  V30 48 1 24 46
M  V30 49 1 24 47
M  V30 50 1 25 48
M  V30 51 1 26 49
M  V30 END BOND
M  V30 END CTAB
M  END
>  <NO.>
4026

>  <Name>
spironolactone

>  <SMILES>
Cc1cc(C(=O)NCCCN2CCCc3ccccc32)ccc1[N+](=O)[O-]

>  <logBB>


>  <Class>
-1

>  <MW>
353.17

>  <nHBAcc>
4

>  <nHBDon>
1

>  <SLogP>
3.48

>  <TopoPSA>
75.48

>  <MMFF94 Energy>
59.466

$$$$
Cc1cc(C)n(CCNC(=O)[C@H]2Cc3cc(Cl)ccc3N2)c(=O)n1
Actelion Java MolfileCreator 2.0

  0  0  0  0  0  0              0 V3000
M  V30 BEGIN CTAB
M  V30 COUNTS 43 45 0 0 0
M  V30 BEGIN ATOM
M  V30 1 Cl -4.256 2.2467 -4.256 0
M  V30 2 C -2.965 1.1193 -4.0903 0
M  V30 3 C -2.7376 0.5108 -2.856 0
M  V30 4 C -2.1605 0.8224 -5.2003 0
M  V30 5 C -1.6874 -0.3883 -2.7625 0
M  V30 6 C -1.1083 -0.0919 -5.0846 0
M  V30 7 C -0.8726 -0.6768 -3.8552 0
M  V30 8 C -1.2378 -1.1735 -1.573 0
M  V30 9 N 0.0848 -1.6445 -3.5705 0
M  V30 10 C 0.0124 -1.9091 -2.1196 0 CFG=1
M  V30 11 C 1.3125 -1.4572 -1.4193 0
M  V30 12 O 2.2823 -1.0004 -2.0242 0
M  V30 13 N 1.3266 -1.656 -0.0563 0
M  V30 14 C 2.4461 -1.25 0.7712 0
M  V30 15 C 2.1172 -1.2731 2.2719 0
M  V30 16 N 1.0597 -0.3182 2.6404 0
M  V30 17 C -0.2699 -0.7396 2.4463 0
M  V30 18 C 1.3563 0.9614 3.102 0
M  V30 19 O -0.5166 -1.8416 1.953 0
M  V30 20 N -1.2908 0.1093 2.7821 0
M  V30 21 C 0.3593 1.8027 3.4013 0
M  V30 22 C 2.7849 1.406 3.2542 0
M  V30 23 C -1.0081 1.2873 3.2235 0
M  V30 24 C -2.1524 2.202 3.5808 0
M  V30 25 H -3.3621 0.7305 -1.997 0
M  V30 26 H -2.3548 1.2957 -6.1589 0
M  V30 27 H -0.4943 -0.3385 -5.944 0
M  V30 28 H -2.0114 -1.8927 -1.2843 0
M  V30 29 H -1.0183 -0.511 -0.7306 0
M  V30 30 H 0.9984 -1.5878 -4.0095 0
M  V30 31 H -0.0822 -2.9893 -1.9539 0
M  V30 32 H 0.5186 -2.077 0.4053 0
M  V30 33 H 2.7602 -0.248 0.4587 0
M  V30 34 H 3.2705 -1.9401 0.5615 0
M  V30 35 H 1.7844 -2.2814 2.5499 0
M  V30 36 H 3.0217 -1.0865 2.8583 0
M  V30 37 H 0.5091 2.8119 3.7604 0
M  V30 38 H 3.3296 1.3075 2.3103 0
M  V30 39 H 3.2933 0.8187 4.0256 0
M  V30 40 H 2.8543 2.4579 3.5542 0
M  V30 41 H -1.7973 3.1661 3.9537 0
M  V30 42 H -2.7649 1.7287 4.3539 0
M  V30 43 H -2.7684 2.372 2.6929 0
M  V30 END ATOM
M  V30 BEGIN BOND
M  V30 1 1 1 2
M  V30 2 2 2 3
M  V30 3 1 2 4
M  V30 4 1 3 5
M  V30 5 2 4 6
M  V30 6 2 5 7
M  V30 7 1 5 8
M  V30 8 1 7 9
M  V30 9 1 8 10
M  V30 10 1 10 11
M  V30 11 2 11 12
M  V30 12 1 11 13
M  V30 13 1 13 14
M  V30 14 1 14 15
M  V30 15 1 15 16
M  V30 16 1 16 17
M  V30 17 1 16 18
M  V30 18 2 17 19
M  V30 19 1 17 20
M  V30 20 2 18 21
M  V30 21 1 18 22
M  V30 22 2 20 23
M  V30 23 1 23 24
M  V30 24 1 6 7
M  V30 25 1 9 10
M  V30 26 1 21 23
M  V30 27 1 3 25
M  V30 28 1 4 26
M  V30 29 1 6 27
M  V30 30 1 8 28
M  V30 31 1 8 29
M  V30 32 1 9 30
M  V30 33 1 10 31
M  V30 34 1 13 32
M  V30 35 1 14 33
M  V30 36 1 14 34
M  V30 37 1 15 35
M  V30 38 1 15 36
M  V30 39 1 21 37
M  V30 40 1 22 38
M  V30 41 1 22 39
M  V30 42 1 22 40
M  V30 43 1 24 41
M  V30 44 1 24 42
M  V30 45 1 24 43
M  V30 END BOND
M  V30 BEGIN COLLECTION
M  V30 MDLV30/STEABS ATOMS=(1 10)
M  V30 END COLLECTION
M  V30 END CTAB
M  END
>  <NO.>
4027

>  <Name>
phenoxymethylpenicillin

>  <SMILES>
Cc1cc(C)n(CCNC(=O)[C@H]2Cc3cc(Cl)ccc3N2)c(=O)n1

>  <logBB>


>  <Class>
-1

>  <MW>
346.12

>  <nHBAcc>
4

>  <nHBDon>
2

>  <SLogP>
1.67

>  <TopoPSA>
76.02

>  <MMFF94 Energy>
21.719

$$$$
Cc1cc2c(c(=O)n1CCc1ccc(O)cc1)[C@@H](c1cc3cc4c(cc3[nH]c1=O)OCCO4)CC(=O)O2
Actelion Java MolfileCreator 2.0

  0  0  0  0  0  0              0 V3000
M  V30 BEGIN CTAB
M  V30 COUNTS 61 66 0 0 0
M  V30 BEGIN ATOM
M  V30 1 O 0.0 0.727 -1.697 0
M  V30 2 C 1.0256 0.2894 -1.1811 0
M  V30 3 N 1.5323 -0.9969 -1.4208 0
M  V30 4 C 1.8014 1.1483 -0.2446 0
M  V30 5 C 2.7289 -1.4494 -0.8523 0
M  V30 6 C 0.7567 -1.8355 -2.3442 0
M  V30 7 C 2.9432 0.6792 0.267 0
M  V30 8 C 1.3154 2.5307 0.076 0 CFG=1
M  V30 9 C 3.4196 -0.6398 -0.0319 0
M  V30 10 C 3.2403 -2.8314 -1.1563 0
M  V30 11 C 1.1245 -1.5665 -3.808 0
M  V30 12 O 3.727 1.3973 1.182 0
M  V30 13 C 0.2385 2.5831 1.1529 0
M  V30 14 C 2.5271 3.3921 0.4433 0
M  V30 15 C 0.3594 -2.4637 -4.7486 0
M  V30 16 C 3.4446 2.7119 1.4271 0
M  V30 17 C -0.5897 3.838 1.1556 0
M  V30 18 C -0.0376 1.6171 2.0508 0
M  V30 19 C 0.9282 -3.6554 -5.2201 0
M  V30 20 C -0.9442 -2.1275 -5.1398 0
M  V30 21 O 3.9899 3.3203 2.343 0
M  V30 22 O -0.365 4.7542 0.3699 0
M  V30 23 N -1.594 3.9324 2.0785 0
M  V30 24 C -1.1186 1.7673 3.0264 0
M  V30 25 C 0.209 -4.4936 -6.0754 0
M  V30 26 C -1.6626 -2.9655 -5.993 0
M  V30 27 C -1.8858 2.9382 3.0161 0
M  V30 28 C -1.4046 0.7658 3.9582 0
M  V30 29 C -1.0817 -4.1399 -6.4546 0
M  V30 30 C -2.9237 3.1243 3.9282 0
M  V30 31 C -2.4506 0.9414 4.8645 0
M  V30 32 O -1.819 -4.9289 -7.2869 0
M  V30 33 C -3.1943 2.1276 4.8635 0
M  V30 34 O -2.6879 -0.0918 5.735 0
M  V30 35 O -4.2119 2.3762 5.7493 0
M  V30 36 C -3.9655 0.0415 6.3691 0
M  V30 37 C -4.1773 1.4657 6.8545 0
M  V30 38 H 0.8784 -2.894 -2.0913 0
M  V30 39 H -0.3103 -1.6252 -2.1928 0
M  V30 40 H 0.8944 2.9543 -0.8463 0
M  V30 41 H 4.3501 -0.9573 0.4301 0
M  V30 42 H 4.2176 -3.0145 -0.6954 0
M  V30 43 H 3.3645 -2.977 -2.2336 0
M  V30 44 H 2.5554 -3.5918 -0.7676 0
M  V30 45 H 0.9272 -0.5184 -4.067 0
M  V30 46 H 2.2017 -1.7052 -3.9626 0
M  V30 47 H 3.1234 3.6177 -0.4503 0
M  V30 48 H 2.2183 4.3532 0.87 0
M  V30 49 H 0.522 0.6889 2.0877 0
M  V30 50 H 1.9367 -3.9372 -4.9263 0
M  V30 51 H -1.4077 -1.2097 -4.7821 0
M  V30 52 H -2.1346 4.7866 2.0548 0
M  V30 53 H 0.6686 -5.4097 -6.4316 0
M  V30 54 H -2.6717 -2.7016 -6.2964 0
M  V30 55 H -0.8309 -0.1563 3.9815 0
M  V30 56 H -3.5151 4.0344 3.9287 0
M  V30 57 H -1.2829 -5.6976 -7.54 0
M  V30 58 H -3.9905 -0.654 7.2137 0
M  V30 59 H -4.7422 -0.2592 5.655 0
M  V30 60 H -3.3801 1.7795 7.5398 0
M  V30 61 H -5.1328 1.5481 7.3819 0
M  V30 END ATOM
M  V30 BEGIN BOND
M  V30 1 2 1 2
M  V30 2 1 2 3
M  V30 3 1 2 4
M  V30 4 1 3 5
M  V30 5 1 3 6
M  V30 6 2 4 7
M  V30 7 1 4 8
M  V30 8 2 5 9
M  V30 9 1 5 10
M  V30 10 1 6 11
M  V30 11 1 7 12
M  V30 12 1 8 13
M  V30 13 1 8 14
M  V30 14 1 11 15
M  V30 15 1 12 16
M  V30 16 1 13 17
M  V30 17 2 13 18
M  V30 18 2 15 19
M  V30 19 1 15 20
M  V30 20 2 16 21
M  V30 21 2 17 22
M  V30 22 1 17 23
M  V30 23 1 18 24
M  V30 24 1 19 25
M  V30 25 2 20 26
M  V30 26 1 23 27
M  V30 27 1 24 28
M  V30 28 2 25 29
M  V30 29 1 27 30
M  V30 30 2 28 31
M  V30 31 1 29 32
M  V30 32 2 30 33
M  V30 33 1 31 34
M  V30 34 1 33 35
M  V30 35 1 34 36
M  V30 36 1 35 37
M  V30 37 1 7 9
M  V30 38 1 14 16
M  V30 39 2 24 27
M  V30 40 1 26 29
M  V30 41 1 31 33
M  V30 42 1 36 37
M  V30 43 1 6 38
M  V30 44 1 6 39
M  V30 45 1 8 40
M  V30 46 1 9 41
M  V30 47 1 10 42
M  V30 48 1 10 43
M  V30 49 1 10 44
M  V30 50 1 11 45
M  V30 51 1 11 46
M  V30 52 1 14 47
M  V30 53 1 14 48
M  V30 54 1 18 49
M  V30 55 1 19 50
M  V30 56 1 20 51
M  V30 57 1 23 52
M  V30 58 1 25 53
M  V30 59 1 26 54
M  V30 60 1 28 55
M  V30 61 1 30 56
M  V30 62 1 32 57
M  V30 63 1 36 58
M  V30 64 1 36 59
M  V30 65 1 37 60
M  V30 66 1 37 61
M  V30 END BOND
M  V30 BEGIN COLLECTION
M  V30 MDLV30/STEABS ATOMS=(1 8)
M  V30 END COLLECTION
M  V30 END CTAB
M  END
>  <NO.>
4028

>  <Name>
androsan

>  <SMILES>
Cc1cc2c(c(=O)n1CCc1ccc(O)cc1)[C@@H](c1cc3cc4c(cc3[nH]c1=O)OCCO4)CC(=O)O2

>  <logBB>


>  <Class>
-1

>  <MW>
500.16

>  <nHBAcc>
7

>  <nHBDon>
2

>  <SLogP>
3.16

>  <TopoPSA>
119.85

>  <MMFF94 Energy>
18.094

$$$$
Cc1cc2c(c(=O)o1)[C@@H](c1ccc3c(c1)OCO3)CC(=O)O2
Actelion Java MolfileCreator 2.0

  0  0  0  0  0  0              0 V3000
M  V30 BEGIN CTAB
M  V30 COUNTS 34 37 0 0 0
M  V30 BEGIN ATOM
M  V30 1 O -2.9353 0.4073 -0.4887 0
M  V30 2 C -2.2395 -0.5276 -0.8697 0
M  V30 3 O -2.735 -1.801 -0.9675 0
M  V30 4 C -0.8299 -0.3228 -1.2701 0
M  V30 5 C -1.9484 -2.8638 -1.4759 0
M  V30 6 C -0.1342 -1.3429 -1.78 0
M  V30 7 C -0.2258 1.0396 -1.1576 0 CFG=1
M  V30 8 C -0.6898 -2.6586 -1.8806 0
M  V30 9 C -2.6458 -4.1836 -1.5143 0
M  V30 10 O 1.197 -1.2332 -2.2067 0
M  V30 11 C 0.1967 1.3675 0.2724 0
M  V30 12 C 0.8986 1.1976 -2.1835 0
M  V30 13 C 1.7926 -0.0094 -2.3079 0
M  V30 14 C 1.3395 0.8079 0.872 0
M  V30 15 C -0.6142 2.2439 1.0386 0
M  V30 16 O 2.987 0.0958 -2.5714 0
M  V30 17 C 1.6323 1.1531 2.1769 0
M  V30 18 C -0.2912 2.5741 2.3593 0
M  V30 19 O 2.6962 0.7009 2.8937 0
M  V30 20 C 0.842 2.0129 2.8992 0
M  V30 21 C 2.487 1.3823 4.1483 0
M  V30 22 O 1.3085 2.214 4.1599 0
M  V30 23 H -0.9801 1.7825 -1.4541 0
M  V30 24 H -0.0741 -3.4625 -2.2713 0
M  V30 25 H -2.0035 -4.9741 -1.9153 0
M  V30 26 H -2.954 -4.4775 -0.5059 0
M  V30 27 H -3.5385 -4.121 -2.1445 0
M  V30 28 H 0.4724 1.3674 -3.1811 0
M  V30 29 H 1.5187 2.0693 -1.9417 0
M  V30 30 H 1.9952 0.1142 0.3591 0
M  V30 31 H -1.5213 2.6675 0.6068 0
M  V30 32 H -0.9165 3.2426 2.9401 0
M  V30 33 H 2.3949 0.6329 4.9428 0
M  V30 34 H 3.3612 2.0098 4.3566 0
M  V30 END ATOM
M  V30 BEGIN BOND
M  V30 1 2 1 2
M  V30 2 1 2 3
M  V30 3 1 2 4
M  V30 4 1 3 5
M  V30 5 2 4 6
M  V30 6 1 4 7
M  V30 7 2 5 8
M  V30 8 1 5 9
M  V30 9 1 6 10
M  V30 10 1 7 11
M  V30 11 1 7 12
M  V30 12 1 10 13
M  V30 13 2 11 14
M  V30 14 1 11 15
M  V30 15 2 13 16
M  V30 16 1 14 17
M  V30 17 2 15 18
M  V30 18 1 17 19
M  V30 19 2 17 20
M  V30 20 1 19 21
M  V30 21 1 20 22
M  V30 22 1 6 8
M  V30 23 1 12 13
M  V30 24 1 18 20
M  V30 25 1 21 22
M  V30 26 1 7 23
M  V30 27 1 8 24
M  V30 28 1 9 25
M  V30 29 1 9 26
M  V30 30 1 9 27
M  V30 31 1 12 28
M  V30 32 1 12 29
M  V30 33 1 14 30
M  V30 34 1 15 31
M  V30 35 1 18 32
M  V30 36 1 21 33
M  V30 37 1 21 34
M  V30 END BOND
M  V30 BEGIN COLLECTION
M  V30 MDLV30/STEABS ATOMS=(1 7)
M  V30 END COLLECTION
M  V30 END CTAB
M  END
>  <NO.>
4029

>  <Name>
ranitidine

>  <SMILES>
Cc1cc2c(c(=O)o1)[C@@H](c1ccc3c(c1)OCO3)CC(=O)O2

>  <logBB>


>  <Class>
-1

>  <MW>
300.06

>  <nHBAcc>
6

>  <nHBDon>
0

>  <SLogP>
2.12

>  <TopoPSA>
74.97

>  <MMFF94 Energy>
23.661

$$$$
Cc1ccc(-n2cccc2[C@H]2[C@H](c3ccccn3)NC(=S)N2CCN(C)C)cc1
Actelion Java MolfileCreator 2.0

  0  0  0  0  0  0              0 V3000
M  V30 BEGIN CTAB
M  V30 COUNTS 56 59 0 0 0
M  V30 BEGIN ATOM
M  V30 1 S 2.233 -3.8303 -2.3128 0
M  V30 2 C 2.0656 -2.5351 -1.2987 0
M  V30 3 N 0.9472 -2.106 -0.5921 0
M  V30 4 N 3.1042 -1.6585 -1.0525 0
M  V30 5 C 1.2438 -0.8992 0.1892 0 CFG=2
M  V30 6 C -0.4136 -2.6515 -0.6634 0
M  V30 7 C 2.701 -0.5528 -0.2038 0 CFG=2
M  V30 8 C 1.1009 -1.2135 1.6541 0
M  V30 9 C -1.2887 -1.8781 -1.6705 0
M  V30 10 C 2.7969 0.791 -0.9026 0
M  V30 11 N 0.3586 -0.4327 2.5234 0
M  V30 12 C 1.6182 -2.2696 2.3912 0
M  V30 13 N -2.6723 -2.3816 -1.7752 0
M  V30 14 N 3.3288 1.8145 -0.1841 0
M  V30 15 C 2.3329 0.9703 -2.2074 0
M  V30 16 C -0.358 0.7358 2.2053 0
M  V30 17 C 0.3904 -1.0037 3.7753 0
M  V30 18 C 1.1704 -2.1355 3.7233 0
M  V30 19 C -3.331 -1.7927 -2.9441 0
M  V30 20 C -3.4507 -2.0869 -0.5702 0
M  V30 21 C 3.4111 3.0243 -0.7812 0
M  V30 22 C 2.4255 2.2298 -2.793 0
M  V30 23 C -1.7535 0.7041 2.2239 0
M  V30 24 C 0.3367 1.8985 1.8698 0
M  V30 25 C 2.9758 3.2789 -2.0691 0
M  V30 26 C -2.4631 1.8555 1.8817 0
M  V30 27 C -0.3822 3.0436 1.5272 0
M  V30 28 C -1.7847 3.0277 1.5167 0
M  V30 29 C -2.552 4.2729 1.1807 0
M  V30 30 H 4.0255 -1.7722 -1.4542 0
M  V30 31 H 0.539 -0.1275 -0.1341 0
M  V30 32 H -0.839 -2.6189 0.3434 0
M  V30 33 H -0.3645 -3.704 -0.9605 0
M  V30 34 H 3.38 -0.5492 0.6574 0
M  V30 35 H -1.2922 -0.8081 -1.4247 0
M  V30 36 H -0.8008 -1.9628 -2.6507 0
M  V30 37 H 2.242 -3.0624 1.9953 0
M  V30 38 H 1.9058 0.1435 -2.7676 0
M  V30 39 H -0.1377 -0.5473 4.6024 0
M  V30 40 H 1.3873 -2.7951 4.5536 0
M  V30 41 H -2.7938 -2.0545 -3.8625 0
M  V30 42 H -3.3914 -0.7003 -2.8778 0
M  V30 43 H -4.3466 -2.189 -3.0551 0
M  V30 44 H -3.4867 -1.0131 -0.3533 0
M  V30 45 H -3.0433 -2.6041 0.3036 0
M  V30 46 H -4.4799 -2.4475 -0.6807 0
M  V30 47 H 3.852 3.8106 -0.1748 0
M  V30 48 H 2.0735 2.3879 -3.8086 0
M  V30 49 H -2.2904 -0.2015 2.4942 0
M  V30 50 H 1.424 1.9281 1.8757 0
M  V30 51 H 3.066 4.2699 -2.4992 0
M  V30 52 H -3.5507 1.8355 1.9001 0
M  V30 53 H 0.1594 3.9508 1.2684 0
M  V30 54 H -3.5155 4.0261 0.7225 0
M  V30 55 H -2.0004 4.8898 0.4637 0
M  V30 56 H -2.7309 4.8583 2.0879 0
M  V30 END ATOM
M  V30 BEGIN BOND
M  V30 1 2 1 2
M  V30 2 1 2 3
M  V30 3 1 2 4
M  V30 4 1 3 5
M  V30 5 1 3 6
M  V30 6 1 4 7
M  V30 7 1 5 8
M  V30 8 1 6 9
M  V30 9 1 7 10
M  V30 10 1 8 11
M  V30 11 2 8 12
M  V30 12 1 9 13
M  V30 13 2 10 14
M  V30 14 1 10 15
M  V30 15 1 11 16
M  V30 16 1 11 17
M  V30 17 1 12 18
M  V30 18 1 13 19
M  V30 19 1 13 20
M  V30 20 1 14 21
M  V30 21 2 15 22
M  V30 22 2 16 23
M  V30 23 1 16 24
M  V30 24 2 21 25
M  V30 25 1 23 26
M  V30 26 2 24 27
M  V30 27 2 26 28
M  V30 28 1 28 29
M  V30 29 1 5 7
M  V30 30 2 17 18
M  V30 31 1 22 25
M  V30 32 1 27 28
M  V30 33 1 4 30
M  V30 34 1 5 31
M  V30 35 1 6 32
M  V30 36 1 6 33
M  V30 37 1 7 34
M  V30 38 1 9 35
M  V30 39 1 9 36
M  V30 40 1 12 37
M  V30 41 1 15 38
M  V30 42 1 17 39
M  V30 43 1 18 40
M  V30 44 1 19 41
M  V30 45 1 19 42
M  V30 46 1 19 43
M  V30 47 1 20 44
M  V30 48 1 20 45
M  V30 49 1 20 46
M  V30 50 1 21 47
M  V30 51 1 22 48
M  V30 52 1 23 49
M  V30 53 1 24 50
M  V30 54 1 25 51
M  V30 55 1 26 52
M  V30 56 1 27 53
M  V30 57 1 29 54
M  V30 58 1 29 55
M  V30 59 1 29 56
M  V30 END BOND
M  V30 BEGIN COLLECTION
M  V30 MDLV30/STEABS ATOMS=(2 5 7)
M  V30 END COLLECTION
M  V30 END CTAB
M  END
>  <NO.>
4030

>  <Name>
cortisone

>  <SMILES>
Cc1ccc(-n2cccc2[C@H]2[C@H](c3ccccn3)NC(=S)N2CCN(C)C)cc1

>  <logBB>


>  <Class>
-1

>  <MW>
405.2

>  <nHBAcc>
3

>  <nHBDon>
1

>  <SLogP>
3.71

>  <TopoPSA>
36.33

>  <MMFF94 Energy>
65.474

$$$$
Cc1ccc(C(N)=NC=N)cc1
Actelion Java MolfileCreator 2.0

  0  0  0  0  0  0              0 V3000
M  V30 BEGIN CTAB
M  V30 COUNTS 23 23 0 0 0
M  V30 BEGIN ATOM
M  V30 1 N 1.7032 0.4642 -2.4782 0
M  V30 2 C 0.9342 -0.4516 -1.9667 0
M  V30 3 C 1.9797 1.5763 -1.7472 0
M  V30 4 N 0.7423 -1.5906 -2.6906 0
M  V30 5 C 0.2389 -0.3478 -0.6555 0
M  V30 6 N 1.6571 2.7264 -2.2229 0
M  V30 7 C 0.4711 -1.3198 0.3197 0
M  V30 8 C -0.6607 0.6938 -0.4202 0
M  V30 9 C -0.1908 -1.2376 1.5462 0
M  V30 10 C -1.3209 0.7711 0.8071 0
M  V30 11 C -1.0992 -0.1988 1.7946 0
M  V30 12 C -1.7853 -0.0941 3.1255 0
M  V30 13 H 2.4855 1.4745 -0.7706 0
M  V30 14 H 0.0779 -2.303 -2.4235 0
M  V30 15 H 1.1674 -1.6373 -3.6082 0
M  V30 16 H 1.9486 3.4531 -1.5647 0
M  V30 17 H 1.1733 -2.1284 0.1352 0
M  V30 18 H -0.853 1.4391 -1.1896 0
M  V30 19 H 0.0045 -1.989 2.3084 0
M  V30 20 H -2.0142 1.5904 0.986 0
M  V30 21 H -1.9441 -1.0857 3.5621 0
M  V30 22 H -1.1781 0.5025 3.8131 0
M  V30 23 H -2.7689 0.376 3.0219 0
M  V30 END ATOM
M  V30 BEGIN BOND
M  V30 1 2 1 2
M  V30 2 1 1 3
M  V30 3 1 2 4
M  V30 4 1 2 5
M  V30 5 2 3 6
M  V30 6 2 5 7
M  V30 7 1 5 8
M  V30 8 1 7 9
M  V30 9 2 8 10
M  V30 10 2 9 11
M  V30 11 1 11 12
M  V30 12 1 10 11
M  V30 13 1 3 13
M  V30 14 1 4 14
M  V30 15 1 4 15
M  V30 16 1 6 16
M  V30 17 1 7 17
M  V30 18 1 8 18
M  V30 19 1 9 19
M  V30 20 1 10 20
M  V30 21 1 12 21
M  V30 22 1 12 22
M  V30 23 1 12 23
M  V30 END BOND
M  V30 END CTAB
M  END
>  <NO.>
4031

>  <Name>
oxytetracycline

>  <SMILES>
Cc1ccc(C(N)=NC=N)cc1

>  <logBB>


>  <Class>
-1

>  <MW>
161.1

>  <nHBAcc>
1

>  <nHBDon>
2

>  <SLogP>
1.31

>  <TopoPSA>
62.23

>  <MMFF94 Energy>
-14.236

$$$$
Cc1ccc(C)c([C@H](C)NC(=O)[C@H](C)SCc2ccccc2)c1
Actelion Java MolfileCreator 2.0

  0  0  0  0  0  0              0 V3000
M  V30 BEGIN CTAB
M  V30 COUNTS 48 49 0 0 0
M  V30 BEGIN ATOM
M  V30 1 S -0.5571 -1.9111 0.2387 0
M  V30 2 C -2.035 -1.5777 -0.8011 0 CFG=2
M  V30 3 C -0.9305 -3.6211 0.7356 0
M  V30 4 C -1.7689 -0.4027 -1.7461 0
M  V30 5 C -3.2526 -1.2747 0.0633 0
M  V30 6 C 0.1818 -4.2063 1.5677 0
M  V30 7 O -2.1188 -0.4345 -2.9244 0
M  V30 8 N -1.1895 0.7014 -1.167 0
M  V30 9 C 1.2545 -4.8723 0.9567 0
M  V30 10 C 0.1741 -4.0734 2.9642 0
M  V30 11 C -0.8871 1.9147 -1.9051 0 CFG=2
M  V30 12 C 2.2879 -5.4075 1.7274 0
M  V30 13 C 1.2087 -4.6095 3.7328 0
M  V30 14 C 0.224 2.67 -1.1819 0
M  V30 15 C -2.1591 2.7379 -2.1442 0
M  V30 16 C 2.2634 -5.278 3.1147 0
M  V30 17 C 1.5856 2.4026 -1.4573 0
M  V30 18 C -0.0832 3.6022 -0.1691 0
M  V30 19 C 2.5836 3.0964 -0.7536 0
M  V30 20 C 2.0083 1.393 -2.492 0
M  V30 21 C 0.918 4.2972 0.5227 0
M  V30 22 C 2.254 4.031 0.2269 0
M  V30 23 C 0.5578 5.2653 1.6105 0
M  V30 24 H -2.2211 -2.4574 -1.4272 0
M  V30 25 H -1.0815 -4.2359 -0.1586 0
M  V30 26 H -1.8641 -3.6456 1.3072 0
M  V30 27 H -4.1133 -1.0234 -0.5672 0
M  V30 28 H -3.0831 -0.4187 0.7266 0
M  V30 29 H -3.5391 -2.1343 0.6769 0
M  V30 30 H -0.8261 0.6061 -0.2241 0
M  V30 31 H 1.2939 -4.972 -0.1257 0
M  V30 32 H -0.6364 -3.5451 3.4614 0
M  V30 33 H -0.5333 1.6233 -2.9007 0
M  V30 34 H 3.115 -5.9208 1.2443 0
M  V30 35 H 1.1942 -4.5006 4.8141 0
M  V30 36 H -2.7014 2.9392 -1.2139 0
M  V30 37 H -1.9263 3.6948 -2.6237 0
M  V30 38 H -2.8524 2.1976 -2.7983 0
M  V30 39 H 3.0702 -5.692 3.7135 0
M  V30 40 H -1.1199 3.7952 0.0979 0
M  V30 41 H 3.6346 2.9044 -0.9601 0
M  V30 42 H 1.5472 0.4206 -2.293 0
M  V30 43 H 1.7292 1.7372 -3.4928 0
M  V30 44 H 3.093 1.2406 -2.4851 0
M  V30 45 H 3.0502 4.5434 0.7618 0
M  V30 46 H 0.4596 4.7372 2.564 0
M  V30 47 H 1.3233 6.0415 1.7137 0
M  V30 48 H -0.3874 5.7705 1.3856 0
M  V30 END ATOM
M  V30 BEGIN BOND
M  V30 1 1 1 2
M  V30 2 1 1 3
M  V30 3 1 2 4
M  V30 4 1 2 5
M  V30 5 1 3 6
M  V30 6 2 4 7
M  V30 7 1 4 8
M  V30 8 2 6 9
M  V30 9 1 6 10
M  V30 10 1 8 11
M  V30 11 1 9 12
M  V30 12 2 10 13
M  V30 13 1 11 14
M  V30 14 1 11 15
M  V30 15 2 12 16
M  V30 16 2 14 17
M  V30 17 1 14 18
M  V30 18 1 17 19
M  V30 19 1 17 20
M  V30 20 2 18 21
M  V30 21 2 19 22
M  V30 22 1 21 23
M  V30 23 1 13 16
M  V30 24 1 21 22
M  V30 25 1 2 24
M  V30 26 1 3 25
M  V30 27 1 3 26
M  V30 28 1 5 27
M  V30 29 1 5 28
M  V30 30 1 5 29
M  V30 31 1 8 30
M  V30 32 1 9 31
M  V30 33 1 10 32
M  V30 34 1 11 33
M  V30 35 1 12 34
M  V30 36 1 13 35
M  V30 37 1 15 36
M  V30 38 1 15 37
M  V30 39 1 15 38
M  V30 40 1 16 39
M  V30 41 1 18 40
M  V30 42 1 19 41
M  V30 43 1 20 42
M  V30 44 1 20 43
M  V30 45 1 20 44
M  V30 46 1 22 45
M  V30 47 1 23 46
M  V30 48 1 23 47
M  V30 49 1 23 48
M  V30 END BOND
M  V30 BEGIN COLLECTION
M  V30 MDLV30/STEABS ATOMS=(2 2 11)
M  V30 END COLLECTION
M  V30 END CTAB
M  END
>  <NO.>
4032

>  <Name>
chlorthalidone

>  <SMILES>
Cc1ccc(C)c([C@H](C)NC(=O)[C@H](C)SCc2ccccc2)c1

>  <logBB>


>  <Class>
-1

>  <MW>
327.17

>  <nHBAcc>
2

>  <nHBDon>
1

>  <SLogP>
4.8

>  <TopoPSA>
29.1

>  <MMFF94 Energy>
49.364

$$$$
Cc1ccc(CS(=O)(=O)N[C@H](c2ccccn2)C2CC(O)C2)cc1
Actelion Java MolfileCreator 2.0

  0  0  0  0  0  0              0 V3000
M  V30 BEGIN CTAB
M  V30 COUNTS 46 48 0 0 0
M  V30 BEGIN ATOM
M  V30 1 S 1.3744 -0.6466 1.1317 0
M  V30 2 O 2.7813 -0.9511 0.9737 0
M  V30 3 O 0.6544 -0.9911 2.3404 0
M  V30 4 N 1.2715 1.0218 0.9672 0
M  V30 5 C 0.4752 -1.2682 -0.3026 0
M  V30 6 C -0.0573 1.6765 1.1209 0 CFG=2
M  V30 7 C 0.5637 -2.7727 -0.3306 0
M  V30 8 C -0.7279 1.8372 -0.2381 0
M  V30 9 C 0.1703 3.0206 1.84 0
M  V30 10 C 1.6011 -3.4128 -1.0211 0
M  V30 11 C -0.382 -3.5555 0.3449 0
M  V30 12 N 0.0969 1.8844 -1.3249 0
M  V30 13 C -2.1153 1.8614 -0.3562 0
M  V30 14 C 0.7877 4.222 1.0823 0
M  V30 15 C -1.0285 3.9225 2.2179 0
M  V30 16 C 1.6831 -4.8069 -1.0458 0
M  V30 17 C -0.2986 -4.9494 0.319 0
M  V30 18 C -0.4839 1.9966 -2.5403 0
M  V30 19 C -2.6796 1.9684 -1.6242 0
M  V30 20 C -0.5551 4.9683 1.1931 0
M  V30 21 C 0.7261 -5.5867 -0.3881 0
M  V30 22 C -1.8524 2.0407 -2.7379 0
M  V30 23 O -1.3438 5.0531 -0.0064 0
M  V30 24 C 0.8387 -7.0822 -0.3808 0
M  V30 25 H 1.7516 1.3564 0.1254 0
M  V30 26 H 0.9249 -0.8363 -1.2012 0
M  V30 27 H -0.5684 -0.9544 -0.225 0
M  V30 28 H -0.6943 1.0556 1.7619 0
M  V30 29 H 0.7515 2.7975 2.7502 0
M  V30 30 H 2.3657 -2.8312 -1.5329 0
M  V30 31 H -1.1849 -3.0871 0.9114 0
M  V30 32 H -2.7559 1.8044 0.5179 0
M  V30 33 H 1.602 4.7119 1.6291 0
M  V30 34 H 1.1354 4.0314 0.0636 0
M  V30 35 H -0.9944 4.2859 3.2521 0
M  V30 36 H -2.0235 3.5056 2.0441 0
M  V30 37 H 2.5062 -5.2802 -1.5764 0
M  V30 38 H -1.0363 -5.5354 0.8628 0
M  V30 39 H 0.2023 2.0497 -3.3809 0
M  V30 40 H -3.7596 2.0033 -1.7404 0
M  V30 41 H -0.4477 5.9695 1.6263 0
M  V30 42 H -2.2661 2.1319 -3.736 0
M  V30 43 H -0.7859 5.534 -0.6419 0
M  V30 44 H -0.1496 -7.5479 -0.3074 0
M  V30 45 H 1.4474 -7.4075 0.4683 0
M  V30 46 H 1.2995 -7.4434 -1.3062 0
M  V30 END ATOM
M  V30 BEGIN BOND
M  V30 1 2 1 2
M  V30 2 2 1 3
M  V30 3 1 1 4
M  V30 4 1 1 5
M  V30 5 1 4 6
M  V30 6 1 5 7
M  V30 7 1 6 8
M  V30 8 1 6 9
M  V30 9 2 7 10
M  V30 10 1 7 11
M  V30 11 2 8 12
M  V30 12 1 8 13
M  V30 13 1 9 14
M  V30 14 1 9 15
M  V30 15 1 10 16
M  V30 16 2 11 17
M  V30 17 1 12 18
M  V30 18 2 13 19
M  V30 19 1 14 20
M  V30 20 2 16 21
M  V30 21 2 18 22
M  V30 22 1 20 23
M  V30 23 1 21 24
M  V30 24 1 15 20
M  V30 25 1 17 21
M  V30 26 1 19 22
M  V30 27 1 4 25
M  V30 28 1 5 26
M  V30 29 1 5 27
M  V30 30 1 6 28
M  V30 31 1 9 29
M  V30 32 1 10 30
M  V30 33 1 11 31
M  V30 34 1 13 32
M  V30 35 1 14 33
M  V30 36 1 14 34
M  V30 37 1 15 35
M  V30 38 1 15 36
M  V30 39 1 16 37
M  V30 40 1 17 38
M  V30 41 1 18 39
M  V30 42 1 19 40
M  V30 43 1 20 41
M  V30 44 1 22 42
M  V30 45 1 23 43
M  V30 46 1 24 44
M  V30 47 1 24 45
M  V30 48 1 24 46
M  V30 END BOND
M  V30 BEGIN COLLECTION
M  V30 MDLV30/STEABS ATOMS=(1 6)
M  V30 END COLLECTION
M  V30 END CTAB
M  END
>  <NO.>
4033

>  <Name>
reserpine

>  <SMILES>
Cc1ccc(CS(=O)(=O)N[C@H](c2ccccn2)C2CC(O)C2)cc1

>  <logBB>


>  <Class>
1

>  <MW>
346.14

>  <nHBAcc>
4

>  <nHBDon>
2

>  <SLogP>
2.32

>  <TopoPSA>
79.29

>  <MMFF94 Energy>
13.791

$$$$
Cc1ccc(OCCNC(=O)CCSc2ccccc2)cc1
Actelion Java MolfileCreator 2.0

  0  0  0  0  0  0              0 V3000
M  V30 BEGIN CTAB
M  V30 COUNTS 43 44 0 0 0
M  V30 BEGIN ATOM
M  V30 1 S -4.5534 0.9573 0.2392 0
M  V30 2 C -4.8814 0.8841 1.9914 0
M  V30 3 C -2.889 1.7188 0.2305 0
M  V30 4 C -4.8605 2.0299 2.7925 0
M  V30 5 C -5.197 -0.3491 2.5706 0
M  V30 6 C -1.8335 0.7643 0.7719 0
M  V30 7 C -5.1255 1.9388 4.161 0
M  V30 8 C -5.4621 -0.4401 3.9388 0
M  V30 9 C -0.4579 1.3924 0.7189 0
M  V30 10 C -5.4227 0.7036 4.734 0
M  V30 11 O -0.2405 2.5255 0.3041 0
M  V30 12 N 0.5335 0.559 1.1851 0
M  V30 13 C 1.9309 0.958 1.189 0
M  V30 14 C 2.6004 0.7242 -0.167 0
M  V30 15 O 2.6998 -0.6887 -0.3781 0
M  V30 16 C 3.2865 -1.1015 -1.5422 0
M  V30 17 C 3.763 -0.2765 -2.5601 0
M  V30 18 C 3.3915 -2.4866 -1.6837 0
M  V30 19 C 4.3434 -0.8346 -3.7049 0
M  V30 20 C 3.9707 -3.0457 -2.8253 0
M  V30 21 C 4.4637 -2.2219 -3.8412 0
M  V30 22 C 5.0547 -2.8165 -5.0845 0
M  V30 23 H -2.9007 2.6611 0.7878 0
M  V30 24 H -2.6598 1.9738 -0.8102 0
M  V30 25 H -4.6517 3.0054 2.3611 0
M  V30 26 H -5.2385 -1.2488 1.9613 0
M  V30 27 H -1.8081 -0.1592 0.1812 0
M  V30 28 H -2.0363 0.4993 1.8159 0
M  V30 29 H -5.1075 2.8341 4.7774 0
M  V30 30 H -5.7044 -1.4026 4.3815 0
M  V30 31 H -5.6329 0.6341 5.7983 0
M  V30 32 H 0.3096 -0.3931 1.4462 0
M  V30 33 H 2.4227 0.3658 1.9675 0
M  V30 34 H 1.9933 2.0177 1.4579 0
M  V30 35 H 2.0066 1.1868 -0.9641 0
M  V30 36 H 3.6051 1.1621 -0.1414 0
M  V30 37 H 3.695 0.8045 -2.5018 0
M  V30 38 H 3.0167 -3.1383 -0.8987 0
M  V30 39 H 4.7012 -0.1744 -4.4921 0
M  V30 40 H 4.0334 -4.1276 -2.9134 0
M  V30 41 H 4.2711 -2.9774 -5.8312 0
M  V30 42 H 5.8179 -2.1556 -5.5085 0
M  V30 43 H 5.5391 -3.7741 -4.8674 0
M  V30 END ATOM
M  V30 BEGIN BOND
M  V30 1 1 1 2
M  V30 2 1 1 3
M  V30 3 2 2 4
M  V30 4 1 2 5
M  V30 5 1 3 6
M  V30 6 1 4 7
M  V30 7 2 5 8
M  V30 8 1 6 9
M  V30 9 2 7 10
M  V30 10 2 9 11
M  V30 11 1 9 12
M  V30 12 1 12 13
M  V30 13 1 13 14
M  V30 14 1 14 15
M  V30 15 1 15 16
M  V30 16 2 16 17
M  V30 17 1 16 18
M  V30 18 1 17 19
M  V30 19 2 18 20
M  V30 20 2 19 21
M  V30 21 1 21 22
M  V30 22 1 8 10
M  V30 23 1 20 21
M  V30 24 1 3 23
M  V30 25 1 3 24
M  V30 26 1 4 25
M  V30 27 1 5 26
M  V30 28 1 6 27
M  V30 29 1 6 28
M  V30 30 1 7 29
M  V30 31 1 8 30
M  V30 32 1 10 31
M  V30 33 1 12 32
M  V30 34 1 13 33
M  V30 35 1 13 34
M  V30 36 1 14 35
M  V30 37 1 14 36
M  V30 38 1 17 37
M  V30 39 1 18 38
M  V30 40 1 19 39
M  V30 41 1 20 40
M  V30 42 1 22 41
M  V30 43 1 22 42
M  V30 44 1 22 43
M  V30 END BOND
M  V30 END CTAB
M  END
>  <NO.>
4034

>  <Name>
ethambutol

>  <SMILES>
Cc1ccc(OCCNC(=O)CCSc2ccccc2)cc1

>  <logBB>


>  <Class>
-1

>  <MW>
315.13

>  <nHBAcc>
3

>  <nHBDon>
1

>  <SLogP>
3.67

>  <TopoPSA>
38.33

>  <MMFF94 Energy>
19.057

$$$$
Cc1ccc(OCCNC(=O)[C@@H](C)SCc2ccccc2)cc1
Actelion Java MolfileCreator 2.0

  0  0  0  0  0  0              0 V3000
M  V30 BEGIN CTAB
M  V30 COUNTS 46 47 0 0 0
M  V30 BEGIN ATOM
M  V30 1 S -2.4724 -1.5148 -0.9565 0
M  V30 2 C -2.4723 -2.1086 0.786 0 CFG=1
M  V30 3 C -0.7073 -1.0873 -1.1477 0
M  V30 4 C -2.0106 -1.0072 1.7432 0
M  V30 5 C -3.876 -2.5761 1.1549 0
M  V30 6 C 0.213 -2.2765 -1.0633 0
M  V30 7 O -1.1472 -1.2107 2.5934 0
M  V30 8 N -2.6599 0.2016 1.5994 0
M  V30 9 C 1.031 -2.4642 0.0605 0
M  V30 10 C 0.2682 -3.215 -2.1044 0
M  V30 11 C -2.3031 1.3809 2.371 0
M  V30 12 C 1.8826 -3.5669 0.1415 0
M  V30 13 C 1.1217 -4.3163 -2.022 0
M  V30 14 C -1.4274 2.3499 1.5684 0
M  V30 15 C 1.9283 -4.4917 -0.8994 0
M  V30 16 O -0.1429 1.7626 1.359 0
M  V30 17 C 0.7308 2.4368 0.5535 0
M  V30 18 C 0.5306 3.6999 -9.0E-4 0
M  V30 19 C 1.9238 1.7598 0.2941 0
M  V30 20 C 1.5115 4.2716 -0.8196 0
M  V30 21 C 2.9031 2.3274 -0.5235 0
M  V30 22 C 2.6983 3.5846 -1.0992 0
M  V30 23 C 3.7609 4.2141 -1.9498 0
M  V30 24 H -1.788 -2.9582 0.8705 0
M  V30 25 H -0.434 -0.3234 -0.4156 0
M  V30 26 H -0.583 -0.6161 -2.1297 0
M  V30 27 H -3.9007 -2.9169 2.1964 0
M  V30 28 H -4.62 -1.7766 1.063 0
M  V30 29 H -4.1933 -3.4152 0.5261 0
M  V30 30 H -3.3255 0.2911 0.8397 0
M  V30 31 H 1.0038 -1.7565 0.8882 0
M  V30 32 H -0.3587 -3.0928 -2.9851 0
M  V30 33 H -1.7876 1.0743 3.287 0
M  V30 34 H -3.2426 1.8721 2.6432 0
M  V30 35 H 2.5069 -3.7041 1.0206 0
M  V30 36 H 1.1549 -5.0384 -2.8333 0
M  V30 37 H -1.9123 2.5604 0.6072 0
M  V30 38 H -1.3137 3.2779 2.141 0
M  V30 39 H 2.5908 -5.3505 -0.8342 0
M  V30 40 H -0.3711 4.2721 0.1869 0
M  V30 41 H 2.0935 0.7802 0.7346 0
M  V30 42 H 1.3416 5.2613 -1.2381 0
M  V30 43 H 3.8248 1.7797 -0.7053 0
M  V30 44 H 3.3179 4.8733 -2.7036 0
M  V30 45 H 4.4428 4.7988 -1.3248 0
M  V30 46 H 4.3364 3.451 -2.4841 0
M  V30 END ATOM
M  V30 BEGIN BOND
M  V30 1 1 1 2
M  V30 2 1 1 3
M  V30 3 1 2 4
M  V30 4 1 2 5
M  V30 5 1 3 6
M  V30 6 2 4 7
M  V30 7 1 4 8
M  V30 8 2 6 9
M  V30 9 1 6 10
M  V30 10 1 8 11
M  V30 11 1 9 12
M  V30 12 2 10 13
M  V30 13 1 11 14
M  V30 14 2 12 15
M  V30 15 1 14 16
M  V30 16 1 16 17
M  V30 17 2 17 18
M  V30 18 1 17 19
M  V30 19 1 18 20
M  V30 20 2 19 21
M  V30 21 2 20 22
M  V30 22 1 22 23
M  V30 23 1 13 15
M  V30 24 1 21 22
M  V30 25 1 2 24
M  V30 26 1 3 25
M  V30 27 1 3 26
M  V30 28 1 5 27
M  V30 29 1 5 28
M  V30 30 1 5 29
M  V30 31 1 8 30
M  V30 32 1 9 31
M  V30 33 1 10 32
M  V30 34 1 11 33
M  V30 35 1 11 34
M  V30 36 1 12 35
M  V30 37 1 13 36
M  V30 38 1 14 37
M  V30 39 1 14 38
M  V30 40 1 15 39
M  V30 41 1 18 40
M  V30 42 1 19 41
M  V30 43 1 20 42
M  V30 44 1 21 43
M  V30 45 1 23 44
M  V30 46 1 23 45
M  V30 47 1 23 46
M  V30 END BOND
M  V30 BEGIN COLLECTION
M  V30 MDLV30/STEABS ATOMS=(1 2)
M  V30 END COLLECTION
M  V30 END CTAB
M  END
>  <NO.>
4035

>  <Name>
clobazam

>  <SMILES>
Cc1ccc(OCCNC(=O)[C@@H](C)SCc2ccccc2)cc1

>  <logBB>


>  <Class>
1

>  <MW>
329.14

>  <nHBAcc>
3

>  <nHBDon>
1

>  <SLogP>
3.81

>  <TopoPSA>
38.33

>  <MMFF94 Energy>
58.225

$$$$
Cc1ccc(OC[C@@H](C)NC(=O)/C(=C/c2ccco2)c2ccccc2)cc1
Actelion Java MolfileCreator 2.0

  0  0  0  0  0  0              0 V3000
M  V30 BEGIN CTAB
M  V30 COUNTS 50 52 0 0 0
M  V30 BEGIN ATOM
M  V30 1 O 3.1701 -1.3463 1.5841 0
M  V30 2 C 2.4313 -0.7245 0.825 0
M  V30 3 N 1.3081 -1.2839 0.2637 0
M  V30 4 C 2.6938 0.716 0.4445 0
M  V30 5 C 0.8538 -2.6353 0.5858 0 CFG=1
M  V30 6 C 1.7635 1.4408 -0.4408 0
M  V30 7 C 3.8117 1.2539 0.9764 0
M  V30 8 C -0.6267 -2.8184 0.201 0
M  V30 9 C 1.7127 -3.6793 -0.1256 0
M  V30 10 C 0.6124 2.0409 0.0873 0
M  V30 11 C 1.9971 1.495 -1.8212 0
M  V30 12 C 4.2729 2.5897 0.7856 0
M  V30 13 O -1.4092 -1.8692 0.9319 0
M  V30 14 C -0.2949 2.6828 -0.7566 0
M  V30 15 C 1.0888 2.1406 -2.6619 0
M  V30 16 O 3.6248 3.5671 0.064 0
M  V30 17 C 5.4404 3.1629 1.2841 0
M  V30 18 C -2.7441 -1.8078 0.6455 0
M  V30 19 C -0.0568 2.7314 -2.1297 0
M  V30 20 C 4.3589 4.703 0.1082 0
M  V30 21 C 5.4937 4.5087 0.8504 0
M  V30 22 C -3.4399 -2.6551 -0.2155 0
M  V30 23 C -3.4344 -0.7871 1.3023 0
M  V30 24 C -4.8137 -2.4784 -0.4179 0
M  V30 25 C -4.8052 -0.6088 1.1017 0
M  V30 26 C -5.5094 -1.4623 0.2471 0
M  V30 27 C -6.9746 -1.2557 0.0024 0
M  V30 28 H 0.7082 -0.7169 -0.323 0
M  V30 29 H 0.9584 -2.7573 1.6711 0
M  V30 30 H 4.4383 0.6371 1.6184 0
M  V30 31 H -0.9483 -3.8348 0.4585 0
M  V30 32 H -0.7466 -2.6498 -0.8769 0
M  V30 33 H 1.3782 -4.6926 0.1199 0
M  V30 34 H 2.7648 -3.5956 0.1651 0
M  V30 35 H 1.6625 -3.5563 -1.2133 0
M  V30 36 H 0.4175 2.0102 1.1571 0
M  V30 37 H 2.8897 1.0414 -2.2456 0
M  V30 38 H -1.1858 3.1475 -0.3419 0
M  V30 39 H 1.2778 2.1866 -3.7311 0
M  V30 40 H 6.1715 2.6532 1.8971 0
M  V30 41 H -0.7623 3.236 -2.785 0
M  V30 42 H 3.9459 5.5458 -0.4277 0
M  V30 43 H 6.261 5.2413 1.055 0
M  V30 44 H -2.9489 -3.4644 -0.7445 0
M  V30 45 H -2.8987 -0.1218 1.975 0
M  V30 46 H -5.3388 -3.1448 -1.099 0
M  V30 47 H -5.317 0.1988 1.6197 0
M  V30 48 H -7.1206 -0.5735 -0.8406 0
M  V30 49 H -7.4711 -2.2059 -0.2204 0
M  V30 50 H -7.4631 -0.8344 0.8875 0
M  V30 END ATOM
M  V30 BEGIN BOND
M  V30 1 2 1 2
M  V30 2 1 2 3
M  V30 3 1 2 4
M  V30 4 1 3 5
M  V30 5 1 4 6
M  V30 6 2 4 7
M  V30 7 1 5 8
M  V30 8 1 5 9
M  V30 9 2 6 10
M  V30 10 1 6 11
M  V30 11 1 7 12
M  V30 12 1 8 13
M  V30 13 1 10 14
M  V30 14 2 11 15
M  V30 15 1 12 16
M  V30 16 2 12 17
M  V30 17 1 13 18
M  V30 18 2 14 19
M  V30 19 1 16 20
M  V30 20 1 17 21
M  V30 21 2 18 22
M  V30 22 1 18 23
M  V30 23 1 22 24
M  V30 24 2 23 25
M  V30 25 2 24 26
M  V30 26 1 26 27
M  V30 27 1 15 19
M  V30 28 2 20 21
M  V30 29 1 25 26
M  V30 30 1 3 28
M  V30 31 1 5 29
M  V30 32 1 7 30
M  V30 33 1 8 31
M  V30 34 1 8 32
M  V30 35 1 9 33
M  V30 36 1 9 34
M  V30 37 1 9 35
M  V30 38 1 10 36
M  V30 39 1 11 37
M  V30 40 1 14 38
M  V30 41 1 15 39
M  V30 42 1 17 40
M  V30 43 1 19 41
M  V30 44 1 20 42
M  V30 45 1 21 43
M  V30 46 1 22 44
M  V30 47 1 23 45
M  V30 48 1 24 46
M  V30 49 1 25 47
M  V30 50 1 27 48
M  V30 51 1 27 49
M  V30 52 1 27 50
M  V30 END BOND
M  V30 BEGIN COLLECTION
M  V30 MDLV30/STEABS ATOMS=(1 5)
M  V30 END COLLECTION
M  V30 END CTAB
M  END
>  <NO.>
4036

>  <Name>
methylprednisolone

>  <SMILES>
Cc1ccc(OC[C@@H](C)NC(=O)/C(=C/c2ccco2)c2ccccc2)cc1

>  <logBB>


>  <Class>
-1

>  <MW>
361.17

>  <nHBAcc>
3

>  <nHBDon>
1

>  <SLogP>
4.71

>  <TopoPSA>
51.47

>  <MMFF94 Energy>
43.947

$$$$
Cc1ccc(OC[C@@H](C)NC(=O)c2cc([N+](=O)[O-])ccc2Cl)cc1
Actelion Java MolfileCreator 2.0

  0  0  0  0  0  0              0 V3000
M  V30 BEGIN CTAB
M  V30 COUNTS 41 42 0 0 0
M  V30 BEGIN ATOM
M  V30 1 Cl 4.0148 1.8452 -0.5613 0
M  V30 2 C 3.9663 0.4097 0.3995 0
M  V30 3 C 3.1884 -0.7152 0.0832 0
M  V30 4 C 4.791 0.3942 1.5344 0
M  V30 5 C 2.2766 -0.8193 -1.0891 0
M  V30 6 C 3.2632 -1.8576 0.9041 0
M  V30 7 C 4.8551 -0.7347 2.3546 0
M  V30 8 O 2.0962 -1.9122 -1.6159 0
M  V30 9 N 1.6198 0.3194 -1.4858 0
M  V30 10 C 4.0907 -1.8611 2.0336 0
M  V30 11 C 0.6164 0.3076 -2.5481 0 CFG=1
M  V30 12 N 4.1562 -3.0528 2.8898 0 CHG=1
M  V30 13 C -0.7633 -0.1 -1.9953 0
M  V30 14 C 0.5773 1.6696 -3.2372 0
M  V30 15 O 4.9747 -3.0454 3.8198 0
M  V30 16 O 3.3877 -3.9891 2.6345 0 CHG=-1
M  V30 17 O -1.2233 0.9036 -1.0826 0
M  V30 18 C -2.4387 0.6967 -0.4917 0
M  V30 19 C -3.2584 -0.4174 -0.6652 0
M  V30 20 C -2.8578 1.7245 0.3556 0
M  V30 21 C -4.4838 -0.5013 0.0061 0
M  V30 22 C -4.0806 1.6432 1.0261 0
M  V30 23 C -4.8991 0.5214 0.8661 0
M  V30 24 C -6.2277 0.4427 1.5572 0
M  V30 25 H 5.3985 1.2634 1.7826 0
M  V30 26 H 2.668 -2.7358 0.6512 0
M  V30 27 H 5.5048 -0.7201 3.2283 0
M  V30 28 H 1.7418 1.18 -0.9651 0
M  V30 29 H 0.9196 -0.4448 -3.2862 0
M  V30 30 H -0.678 -1.0632 -1.4777 0
M  V30 31 H -1.469 -0.1906 -2.8302 0
M  V30 32 H -0.1649 1.6787 -4.0417 0
M  V30 33 H 1.5536 1.9064 -3.6742 0
M  V30 34 H 0.3327 2.4737 -2.5346 0
M  V30 35 H -2.9786 -1.2402 -1.3141 0
M  V30 36 H -2.2285 2.6001 0.4926 0
M  V30 37 H -5.1122 -1.3761 -0.147 0
M  V30 38 H -4.387 2.4613 1.6737 0
M  V30 39 H -7.0047 0.8841 0.9256 0
M  V30 40 H -6.4947 -0.597 1.7729 0
M  V30 41 H -6.2031 0.9761 2.5132 0
M  V30 END ATOM
M  V30 BEGIN BOND
M  V30 1 1 1 2
M  V30 2 2 2 3
M  V30 3 1 2 4
M  V30 4 1 3 5
M  V30 5 1 3 6
M  V30 6 2 4 7
M  V30 7 2 5 8
M  V30 8 1 5 9
M  V30 9 2 6 10
M  V30 10 1 9 11
M  V30 11 1 10 12
M  V30 12 1 11 13
M  V30 13 1 11 14
M  V30 14 2 12 15
M  V30 15 1 12 16
M  V30 16 1 13 17
M  V30 17 1 17 18
M  V30 18 2 18 19
M  V30 19 1 18 20
M  V30 20 1 19 21
M  V30 21 2 20 22
M  V30 22 2 21 23
M  V30 23 1 23 24
M  V30 24 1 7 10
M  V30 25 1 22 23
M  V30 26 1 4 25
M  V30 27 1 6 26
M  V30 28 1 7 27
M  V30 29 1 9 28
M  V30 30 1 11 29
M  V30 31 1 13 30
M  V30 32 1 13 31
M  V30 33 1 14 32
M  V30 34 1 14 33
M  V30 35 1 14 34
M  V30 36 1 19 35
M  V30 37 1 20 36
M  V30 38 1 21 37
M  V30 39 1 22 38
M  V30 40 1 24 39
M  V30 41 1 24 40
M  V30 42 1 24 41
M  V30 END BOND
M  V30 BEGIN COLLECTION
M  V30 MDLV30/STEABS ATOMS=(1 11)
M  V30 END COLLECTION
M  V30 END CTAB
M  END
>  <NO.>
4037

>  <Name>
isopromethazine

>  <SMILES>
Cc1ccc(OC[C@@H](C)NC(=O)c2cc([N+](=O)[O-])ccc2Cl)cc1

>  <logBB>


>  <Class>
1

>  <MW>
348.09

>  <nHBAcc>
4

>  <nHBDon>
1

>  <SLogP>
3.75

>  <TopoPSA>
81.47

>  <MMFF94 Energy>
66.733

$$$$
Cc1ccc(S(=O)(=O)[C@@H]2[C@@H](c3ccccc3)C2(CN)CN)cc1
Actelion Java MolfileCreator 2.0

  0  0  0  0  0  0              0 V3000
M  V30 BEGIN CTAB
M  V30 COUNTS 45 47 0 0 0
M  V30 BEGIN ATOM
M  V30 1 S -1.6104 -0.8049 -1.2076 0
M  V30 2 O -1.6028 -0.9934 -2.6449 0
M  V30 3 O -2.8024 -0.3642 -0.5109 0
M  V30 4 C -1.0825 -2.3191 -0.4488 0
M  V30 5 C -0.2503 0.3242 -0.8439 0 CFG=1
M  V30 6 C -0.4638 -3.3054 -1.2185 0
M  V30 7 C -1.3142 -2.5149 0.9146 0
M  V30 8 C -0.3372 1.7499 -1.379 0
M  V30 9 C -0.5756 1.4455 0.1091 0 CFG=2
M  V30 10 C -0.0491 -4.49 -0.608 0
M  V30 11 C -0.8966 -3.7018 1.5176 0
M  V30 12 C 0.9936 2.2725 -1.9034 0
M  V30 13 C -1.54 2.1661 -2.2206 0
M  V30 14 C 0.4057 1.7801 1.2137 0
M  V30 15 C -0.248 -4.6906 0.7652 0
M  V30 16 N 1.1044 3.7126 -1.7265 0
M  V30 17 N -1.7537 3.6091 -2.1252 0
M  V30 18 C 1.0323 0.7759 1.9744 0
M  V30 19 C 0.7877 3.1053 1.4733 0
M  V30 20 C 0.1655 -5.982 1.4089 0
M  V30 21 C 1.9711 1.0827 2.9641 0
M  V30 22 C 1.7271 3.4204 2.4592 0
M  V30 23 C 2.3173 2.4075 3.2073 0
M  V30 24 H 0.7269 -0.138 -0.8091 0
M  V30 25 H -0.3059 -3.1675 -2.2859 0
M  V30 26 H -1.8235 -1.7593 1.5096 0
M  V30 27 H -1.6099 1.5534 0.4341 0
M  V30 28 H 0.4264 -5.261 -1.2112 0
M  V30 29 H -1.0861 -3.8558 2.5783 0
M  V30 30 H 1.0773 2.0271 -2.9686 0
M  V30 31 H 1.8426 1.7963 -1.401 0
M  V30 32 H -2.4664 1.6867 -1.8991 0
M  V30 33 H -1.372 1.8917 -3.2675 0
M  V30 34 H 0.228 4.1258 -2.0722 0
M  V30 35 H 1.8407 4.0717 -2.3292 0
M  V30 36 H -2.6079 3.8428 -2.6323 0
M  V30 37 H -1.9442 3.841 -1.1489 0
M  V30 38 H 0.7819 -0.2685 1.8068 0
M  V30 39 H 0.3498 3.9127 0.8892 0
M  V30 40 H -0.652 -6.7071 1.3515 0
M  V30 41 H 1.0468 -6.4009 0.9121 0
M  V30 42 H 0.4289 -5.827 2.4605 0
M  V30 43 H 2.4324 0.2857 3.5411 0
M  V30 44 H 1.9998 4.4581 2.6315 0
M  V30 45 H 3.0492 2.6507 3.9726 0
M  V30 END ATOM
M  V30 BEGIN BOND
M  V30 1 2 1 2
M  V30 2 2 1 3
M  V30 3 1 1 4
M  V30 4 1 1 5
M  V30 5 2 4 6
M  V30 6 1 4 7
M  V30 7 1 5 8
M  V30 8 1 5 9
M  V30 9 1 6 10
M  V30 10 2 7 11
M  V30 11 1 8 12
M  V30 12 1 8 13
M  V30 13 1 9 14
M  V30 14 2 10 15
M  V30 15 1 12 16
M  V30 16 1 13 17
M  V30 17 2 14 18
M  V30 18 1 14 19
M  V30 19 1 15 20
M  V30 20 1 18 21
M  V30 21 2 19 22
M  V30 22 2 21 23
M  V30 23 1 8 9
M  V30 24 1 11 15
M  V30 25 1 22 23
M  V30 26 1 5 24
M  V30 27 1 6 25
M  V30 28 1 7 26
M  V30 29 1 9 27
M  V30 30 1 10 28
M  V30 31 1 11 29
M  V30 32 1 12 30
M  V30 33 1 12 31
M  V30 34 1 13 32
M  V30 35 1 13 33
M  V30 36 1 16 34
M  V30 37 1 16 35
M  V30 38 1 17 36
M  V30 39 1 17 37
M  V30 40 1 18 38
M  V30 41 1 19 39
M  V30 42 1 20 40
M  V30 43 1 20 41
M  V30 44 1 20 42
M  V30 45 1 21 43
M  V30 46 1 22 44
M  V30 47 1 23 45
M  V30 END BOND
M  V30 BEGIN COLLECTION
M  V30 MDLV30/STEABS ATOMS=(2 5 9)
M  V30 END COLLECTION
M  V30 END CTAB
M  END
>  <NO.>
4038

>  <Name>
acebutolol

>  <SMILES>
Cc1ccc(S(=O)(=O)[C@@H]2[C@@H](c3ccccc3)C2(CN)CN)cc1

>  <logBB>


>  <Class>
1

>  <MW>
330.14

>  <nHBAcc>
4

>  <nHBDon>
2

>  <SLogP>
1.84

>  <TopoPSA>
86.18

>  <MMFF94 Energy>
46.434

$$$$
Cc1ccc(S(=O)(=O)[C@@H]2[C@H](c3ccccc3)[C@@]2(N)C(=O)O)cc1
Actelion Java MolfileCreator 2.0

  0  0  0  0  0  0              0 V3000
M  V30 BEGIN CTAB
M  V30 COUNTS 40 42 0 0 0
M  V30 BEGIN ATOM
M  V30 1 S -0.5695 -0.895 0.244 0
M  V30 2 O -1.347 -0.4626 -0.9008 0
M  V30 3 O -1.1168 -1.8009 1.2355 0
M  V30 4 C 0.9097 -1.6571 -0.3891 0
M  V30 5 C 0.0795 0.5106 1.1365 0 CFG=1
M  V30 6 C 1.3229 -1.3907 -1.696 0
M  V30 7 C 1.629 -2.5374 0.4222 0
M  V30 8 C 0.2427 1.8052 0.3693 0 CFG=2
M  V30 9 C -0.7992 1.6747 1.4896 0 CFG=1
M  V30 10 C 2.4854 -1.9897 -2.1831 0
M  V30 11 C 2.7904 -3.1324 -0.0721 0
M  V30 12 N -0.2318 2.0376 -1.0236 0
M  V30 13 C 1.5307 2.5438 0.6728 0
M  V30 14 C -2.2997 1.6984 1.2914 0
M  V30 15 C 3.2356 -2.8512 -1.371 0
M  V30 16 O 2.0339 2.6189 1.7832 0
M  V30 17 O 2.1637 3.0358 -0.4166 0
M  V30 18 C -2.9284 2.6466 0.4665 0
M  V30 19 C -3.1262 0.7257 1.8819 0
M  V30 20 C 4.4636 -3.5235 -1.9121 0
M  V30 21 C -4.3099 2.6364 0.2521 0
M  V30 22 C -4.5081 0.7075 1.6714 0
M  V30 23 C -5.1004 1.6649 0.8557 0
M  V30 24 H 0.8271 0.2509 1.8765 0
M  V30 25 H 0.7474 -0.7342 -2.3441 0
M  V30 26 H 1.2918 -2.7736 1.4292 0
M  V30 27 H -0.5212 2.1792 2.4177 0
M  V30 28 H 2.8004 -1.7875 -3.205 0
M  V30 29 H 3.3444 -3.8243 0.5595 0
M  V30 30 H 0.5501 2.0128 -1.6788 0
M  V30 31 H -0.9085 1.3221 -1.319 0
M  V30 32 H 2.9609 3.4703 -0.0499 0
M  V30 33 H -2.3329 3.4162 -0.021 0
M  V30 34 H -2.6924 -0.0376 2.5254 0
M  V30 35 H 4.1926 -4.4717 -2.3861 0
M  V30 36 H 4.963 -2.8877 -2.6506 0
M  V30 37 H 5.1852 -3.7201 -1.1124 0
M  V30 38 H -4.7626 3.3846 -0.3926 0
M  V30 39 H -5.1163 -0.0611 2.1408 0
M  V30 40 H -6.1732 1.6499 0.686 0
M  V30 END ATOM
M  V30 BEGIN BOND
M  V30 1 2 1 2
M  V30 2 2 1 3
M  V30 3 1 1 4
M  V30 4 1 1 5
M  V30 5 2 4 6
M  V30 6 1 4 7
M  V30 7 1 5 8
M  V30 8 1 5 9
M  V30 9 1 6 10
M  V30 10 2 7 11
M  V30 11 1 8 12
M  V30 12 1 8 13
M  V30 13 1 9 14
M  V30 14 2 10 15
M  V30 15 2 13 16
M  V30 16 1 13 17
M  V30 17 2 14 18
M  V30 18 1 14 19
M  V30 19 1 15 20
M  V30 20 1 18 21
M  V30 21 2 19 22
M  V30 22 2 21 23
M  V30 23 1 8 9
M  V30 24 1 11 15
M  V30 25 1 22 23
M  V30 26 1 5 24
M  V30 27 1 6 25
M  V30 28 1 7 26
M  V30 29 1 9 27
M  V30 30 1 10 28
M  V30 31 1 11 29
M  V30 32 1 12 30
M  V30 33 1 12 31
M  V30 34 1 17 32
M  V30 35 1 18 33
M  V30 36 1 19 34
M  V30 37 1 20 35
M  V30 38 1 20 36
M  V30 39 1 20 37
M  V30 40 1 21 38
M  V30 41 1 22 39
M  V30 42 1 23 40
M  V30 END BOND
M  V30 BEGIN COLLECTION
M  V30 MDLV30/STEABS ATOMS=(3 5 8 9)
M  V30 END COLLECTION
M  V30 END CTAB
M  END
>  <NO.>
4040

>  <Name>
amifostine

>  <SMILES>
Cc1ccc(S(=O)(=O)[C@@H]2[C@H](c3ccccc3)[C@@]2(N)C(=O)O)cc1

>  <logBB>


>  <Class>
-1

>  <MW>
331.09

>  <nHBAcc>
4

>  <nHBDon>
2

>  <SLogP>
1.72

>  <TopoPSA>
97.46

>  <MMFF94 Energy>
74.025

$$$$
Cc1ccc(S(=O)(=O)[C@@H]2[C@H](c3ccccc3)[C@]2(C=O)NC(=O)OC(C)(C)C)cc1
Actelion Java MolfileCreator 2.0

  0  0  0  0  0  0              0 V3000
M  V30 BEGIN CTAB
M  V30 COUNTS 54 56 0 0 0
M  V30 BEGIN ATOM
M  V30 1 S 1.2907 0.1612 -2.098 0
M  V30 2 O 0.6726 -0.999 -1.4836 0
M  V30 3 O 2.4829 0.044 -2.9135 0
M  V30 4 C 0.0466 0.9439 -3.101 0
M  V30 5 C 1.6236 1.4065 -0.8578 0 CFG=1
M  V30 6 C -1.3044 0.6852 -2.8594 0
M  V30 7 C 0.437 1.7922 -4.1395 0
M  V30 8 C 0.7861 1.3261 0.418 0 CFG=2
M  V30 9 C 2.3098 1.0786 0.4313 0 CFG=1
M  V30 10 C -2.2732 1.3065 -3.6489 0
M  V30 11 C -0.5378 2.4096 -4.9242 0
M  V30 12 N -0.0925 0.2068 0.7082 0
M  V30 13 C 0.2925 2.684 0.8846 0
M  V30 14 C 2.9298 -0.2548 0.7914 0
M  V30 15 C -1.8986 2.1843 -4.6753 0
M  V30 16 C -0.7324 -0.005 1.8944 0
M  V30 17 O 0.9475 3.7043 0.6926 0
M  V30 18 C 2.6 -0.9112 1.9913 0
M  V30 19 C 3.8097 -0.9262 -0.0735 0
M  V30 20 C -2.9426 2.8219 -5.5453 0
M  V30 21 O -0.7215 0.768 2.8388 0
M  V30 22 O -1.3546 -1.2027 1.8475 0
M  V30 23 C 3.1147 -2.1709 2.3103 0
M  V30 24 C 4.3283 -2.1871 0.2371 0
M  V30 25 C -2.0663 -1.7192 3.0011 0
M  V30 26 C 3.9775 -2.8112 1.4289 0
M  V30 27 C -1.1171 -1.9368 4.1848 0
M  V30 28 C -2.6065 -3.0837 2.5475 0
M  V30 29 C -3.2511 -0.8213 3.3729 0
M  V30 30 H 1.8531 2.3818 -1.2711 0
M  V30 31 H -1.616 8.0E-4 -2.0742 0
M  V30 32 H 1.4888 1.9732 -4.3506 0
M  V30 33 H 2.8977 1.905 0.8385 0
M  V30 34 H -3.3255 1.0979 -3.4643 0
M  V30 35 H -0.2305 3.0656 -5.7367 0
M  V30 36 H -0.0911 -0.6008 0.0819 0
M  V30 37 H -0.6955 2.726 1.3699 0
M  V30 38 H 1.9423 -0.4258 2.7097 0
M  V30 39 H 4.1185 -0.4622 -1.008 0
M  V30 40 H -3.1606 2.1766 -6.4017 0
M  V30 41 H -3.8677 2.9914 -4.9843 0
M  V30 42 H -2.6029 3.796 -5.9125 0
M  V30 43 H 2.8408 -2.6471 3.248 0
M  V30 44 H 5.005 -2.6783 -0.4573 0
M  V30 45 H 4.3788 -3.7914 1.6705 0
M  V30 46 H -0.7482 -0.9906 4.5922 0
M  V30 47 H -1.6136 -2.4735 5.0003 0
M  V30 48 H -0.2356 -2.5098 3.8759 0
M  V30 49 H -1.7877 -3.743 2.2366 0
M  V30 50 H -3.1701 -3.5832 3.3425 0
M  V30 51 H -3.2618 -2.9729 1.6756 0
M  V30 52 H -2.924 0.1437 3.7713 0
M  V30 53 H -3.8665 -0.6053 2.4923 0
M  V30 54 H -3.8839 -1.2914 4.1334 0
M  V30 END ATOM
M  V30 BEGIN BOND
M  V30 1 2 1 2
M  V30 2 2 1 3
M  V30 3 1 1 4
M  V30 4 1 1 5
M  V30 5 2 4 6
M  V30 6 1 4 7
M  V30 7 1 5 8
M  V30 8 1 5 9
M  V30 9 1 6 10
M  V30 10 2 7 11
M  V30 11 1 8 12
M  V30 12 1 8 13
M  V30 13 1 9 14
M  V30 14 2 10 15
M  V30 15 1 12 16
M  V30 16 2 13 17
M  V30 17 2 14 18
M  V30 18 1 14 19
M  V30 19 1 15 20
M  V30 20 2 16 21
M  V30 21 1 16 22
M  V30 22 1 18 23
M  V30 23 2 19 24
M  V30 24 1 22 25
M  V30 25 2 23 26
M  V30 26 1 25 27
M  V30 27 1 25 28
M  V30 28 1 25 29
M  V30 29 1 8 9
M  V30 30 1 11 15
M  V30 31 1 24 26
M  V30 32 1 5 30
M  V30 33 1 6 31
M  V30 34 1 7 32
M  V30 35 1 9 33
M  V30 36 1 10 34
M  V30 37 1 11 35
M  V30 38 1 12 36
M  V30 39 1 13 37
M  V30 40 1 18 38
M  V30 41 1 19 39
M  V30 42 1 20 40
M  V30 43 1 20 41
M  V30 44 1 20 42
M  V30 45 1 23 43
M  V30 46 1 24 44
M  V30 47 1 26 45
M  V30 48 1 27 46
M  V30 49 1 27 47
M  V30 50 1 27 48
M  V30 51 1 28 49
M  V30 52 1 28 50
M  V30 53 1 28 51
M  V30 54 1 29 52
M  V30 55 1 29 53
M  V30 56 1 29 54
M  V30 END BOND
M  V30 BEGIN COLLECTION
M  V30 MDLV30/STEABS ATOMS=(3 5 8 9)
M  V30 END COLLECTION
M  V30 END CTAB
M  END
>  <NO.>
4041

>  <Name>
apomorphine

>  <SMILES>
Cc1ccc(S(=O)(=O)[C@@H]2[C@H](c3ccccc3)[C@]2(C=O)NC(=O)OC(C)(C)C)cc1

>  <logBB>


>  <Class>
1

>  <MW>
415.15

>  <nHBAcc>
5

>  <nHBDon>
1

>  <SLogP>
3.4

>  <TopoPSA>
89.54

>  <MMFF94 Energy>
27.368

$$$$
Cc1ccc(S(=O)(=O)[C@H]2[C@H](C(N)=S)[C@@H]2c2ccccc2)cc1
Actelion Java MolfileCreator 2.0

  0  0  0  0  0  0              0 V3000
M  V30 BEGIN CTAB
M  V30 COUNTS 39 41 0 0 0
M  V30 BEGIN ATOM
M  V30 1 S -1.7192 1.064 -0.0818 0
M  V30 2 O -2.6737 0.5055 -1.02 0
M  V30 3 O -1.5425 2.4974 0.0421 0
M  V30 4 C -2.0815 0.4097 1.5243 0
M  V30 5 C -0.0789 0.3928 -0.4525 0 CFG=2
M  V30 6 C -2.6229 -0.8724 1.6356 0
M  V30 7 C -1.8529 1.1895 2.6598 0
M  V30 8 C 0.2851 0.4782 -1.9091 0 CFG=2
M  V30 9 C -0.093 -0.8659 -1.296 0 CFG=1
M  V30 10 C -2.909 -1.389 2.9001 0
M  V30 11 C -2.1436 0.6668 3.921 0
M  V30 12 C 1.6938 0.7648 -2.3986 0
M  V30 13 C 0.8727 -1.9474 -1.0245 0
M  V30 14 C -2.6579 -0.6303 4.0516 0
M  V30 15 C 1.9031 1.0274 -3.7667 0
M  V30 16 C 2.8047 0.9293 -1.5525 0
M  V30 17 S 0.8602 -2.6727 0.4647 0
M  V30 18 N 1.6873 -2.3514 -2.0331 0
M  V30 19 C -2.9986 -1.1773 5.4072 0
M  V30 20 C 3.1612 1.3657 -4.2736 0
M  V30 21 C 4.0679 1.2657 -2.0519 0
M  V30 22 C 4.2469 1.4786 -3.414 0
M  V30 23 H 0.6705 0.5313 0.3088 0
M  V30 24 H -2.8268 -1.4733 0.7524 0
M  V30 25 H -1.4572 2.1994 2.5763 0
M  V30 26 H -0.484 0.9062 -2.5563 0
M  V30 27 H -1.0544 -1.2553 -1.6267 0
M  V30 28 H -3.3306 -2.3889 2.9832 0
M  V30 29 H -1.969 1.2787 4.8039 0
M  V30 30 H 1.0652 0.9653 -4.4599 0
M  V30 31 H 2.7106 0.7831 -0.4799 0
M  V30 32 H 1.7019 -1.8958 -2.9377 0
M  V30 33 H 2.3482 -3.1022 -1.8749 0
M  V30 34 H -4.0316 -0.9234 5.6642 0
M  V30 35 H -2.8852 -2.2663 5.4285 0
M  V30 36 H -2.3317 -0.7667 6.1727 0
M  V30 37 H 3.2865 1.5517 -5.3371 0
M  V30 38 H 4.9087 1.3694 -1.3705 0
M  V30 39 H 5.2263 1.7464 -3.8012 0
M  V30 END ATOM
M  V30 BEGIN BOND
M  V30 1 2 1 2
M  V30 2 2 1 3
M  V30 3 1 1 4
M  V30 4 1 1 5
M  V30 5 2 4 6
M  V30 6 1 4 7
M  V30 7 1 5 8
M  V30 8 1 5 9
M  V30 9 1 6 10
M  V30 10 2 7 11
M  V30 11 1 8 12
M  V30 12 1 9 13
M  V30 13 2 10 14
M  V30 14 2 12 15
M  V30 15 1 12 16
M  V30 16 2 13 17
M  V30 17 1 13 18
M  V30 18 1 14 19
M  V30 19 1 15 20
M  V30 20 2 16 21
M  V30 21 2 20 22
M  V30 22 1 8 9
M  V30 23 1 11 14
M  V30 24 1 21 22
M  V30 25 1 5 23
M  V30 26 1 6 24
M  V30 27 1 7 25
M  V30 28 1 8 26
M  V30 29 1 9 27
M  V30 30 1 10 28
M  V30 31 1 11 29
M  V30 32 1 15 30
M  V30 33 1 16 31
M  V30 34 1 18 32
M  V30 35 1 18 33
M  V30 36 1 19 34
M  V30 37 1 19 35
M  V30 38 1 19 36
M  V30 39 1 20 37
M  V30 40 1 21 38
M  V30 41 1 22 39
M  V30 END BOND
M  V30 BEGIN COLLECTION
M  V30 MDLV30/STEABS ATOMS=(3 5 8 9)
M  V30 END COLLECTION
M  V30 END CTAB
M  END
>  <NO.>
4042

>  <Name>
atenolol

>  <SMILES>
Cc1ccc(S(=O)(=O)[C@H]2[C@H](C(N)=S)[C@@H]2c2ccccc2)cc1

>  <logBB>


>  <Class>
1

>  <MW>
331.07

>  <nHBAcc>
3

>  <nHBDon>
1

>  <SLogP>
2.84

>  <TopoPSA>
60.16

>  <MMFF94 Energy>
28.718

$$$$
Cc1ccc(S(=O)(=O)[C@H]2[C@H](C=O)[C@@H]2c2ccccc2)cc1
Actelion Java MolfileCreator 2.0

  0  0  0  0  0  0              0 V3000
M  V30 BEGIN CTAB
M  V30 COUNTS 37 39 0 0 0
M  V30 BEGIN ATOM
M  V30 1 S -0.4082 1.8789 -0.4082 0
M  V30 2 O 0.7137 2.7838 -0.554 0
M  V30 3 O -1.6594 2.312 0.1819 0
M  V30 4 C -0.7524 1.1773 -1.998 0
M  V30 5 C 0.113 0.455 0.5771 0 CFG=2
M  V30 6 C 0.3058 0.7036 -2.7769 0
M  V30 7 C -2.0672 1.1106 -2.4624 0
M  V30 8 C 0.8762 0.8249 1.8199 0 CFG=2
M  V30 9 C 1.6068 0.2366 0.623 0 CFG=1
M  V30 10 C 0.0395 0.1375 -4.0244 0
M  V30 11 C -2.3252 0.5446 -3.712 0
M  V30 12 C 0.6977 0.049 3.1034 0
M  V30 13 C 2.0678 -1.1666 0.5475 0
M  V30 14 C -1.2772 0.0406 -4.4947 0
M  V30 15 C 1.8098 -0.3951 3.8401 0
M  V30 16 C -0.5735 -0.34 3.5586 0
M  V30 17 O 2.8269 -1.5133 -0.3479 0
M  V30 18 C -1.5551 -0.5349 -5.8529 0
M  V30 19 C 1.6599 -1.1738 4.9905 0
M  V30 20 C -0.7295 -1.118 4.709 0
M  V30 21 C 0.3883 -1.535 5.4247 0
M  V30 22 H -0.5539 -0.3943 0.5898 0
M  V30 23 H 1.3355 0.777 -2.4334 0
M  V30 24 H -2.893 1.4979 -1.8691 0
M  V30 25 H 1.0455 1.8901 1.9861 0
M  V30 26 H 2.2584 0.9248 0.0922 0
M  V30 27 H 0.8673 -0.2248 -4.6314 0
M  V30 28 H -3.3504 0.5014 -4.0752 0
M  V30 29 H 1.6978 -1.8775 1.3042 0
M  V30 30 H 2.8143 -0.1222 3.5201 0
M  V30 31 H -1.4644 -0.02 3.0207 0
M  V30 32 H -1.517 0.2554 -6.6089 0
M  V30 33 H -0.8201 -1.3055 -6.108 0
M  V30 34 H -2.5431 -1.0063 -5.8823 0
M  V30 35 H 2.5366 -1.4954 5.5472 0
M  V30 36 H -1.7255 -1.3944 5.0464 0
M  V30 37 H 0.2686 -2.1379 6.3212 0
M  V30 END ATOM
M  V30 BEGIN BOND
M  V30 1 2 1 2
M  V30 2 2 1 3
M  V30 3 1 1 4
M  V30 4 1 1 5
M  V30 5 2 4 6
M  V30 6 1 4 7
M  V30 7 1 5 8
M  V30 8 1 5 9
M  V30 9 1 6 10
M  V30 10 2 7 11
M  V30 11 1 8 12
M  V30 12 1 9 13
M  V30 13 2 10 14
M  V30 14 2 12 15
M  V30 15 1 12 16
M  V30 16 2 13 17
M  V30 17 1 14 18
M  V30 18 1 15 19
M  V30 19 2 16 20
M  V30 20 2 19 21
M  V30 21 1 8 9
M  V30 22 1 11 14
M  V30 23 1 20 21
M  V30 24 1 5 22
M  V30 25 1 6 23
M  V30 26 1 7 24
M  V30 27 1 8 25
M  V30 28 1 9 26
M  V30 29 1 10 27
M  V30 30 1 11 28
M  V30 31 1 13 29
M  V30 32 1 15 30
M  V30 33 1 16 31
M  V30 34 1 18 32
M  V30 35 1 18 33
M  V30 36 1 18 34
M  V30 37 1 19 35
M  V30 38 1 20 36
M  V30 39 1 21 37
M  V30 END BOND
M  V30 BEGIN COLLECTION
M  V30 MDLV30/STEABS ATOMS=(3 5 8 9)
M  V30 END COLLECTION
M  V30 END CTAB
M  END
>  <NO.>
4043

>  <Name>
azelaicacid

>  <SMILES>
Cc1ccc(S(=O)(=O)[C@H]2[C@H](C=O)[C@@H]2c2ccccc2)cc1

>  <logBB>


>  <Class>
-1

>  <MW>
300.08

>  <nHBAcc>
3

>  <nHBDon>
0

>  <SLogP>
2.75

>  <TopoPSA>
51.21

>  <MMFF94 Energy>
60.318

$$$$
Cc1ccc(S(=O)(=O)[C@H]2[C@H](CN)[C@@H]2c2ccccc2)cc1
Actelion Java MolfileCreator 2.0

  0  0  0  0  0  0              0 V3000
M  V30 BEGIN CTAB
M  V30 COUNTS 40 42 0 0 0
M  V30 BEGIN ATOM
M  V30 1 S -1.6986 -0.5659 1.2131 0
M  V30 2 O -2.5769 0.5751 1.3791 0
M  V30 3 O -1.5366 -1.5539 2.2616 0
M  V30 4 C -2.1785 -1.4128 -0.2701 0
M  V30 5 C -0.0288 0.0195 0.8246 0 CFG=2
M  V30 6 C -2.7393 -0.6863 -1.3229 0
M  V30 7 C -2.0186 -2.7967 -0.3625 0
M  V30 8 C 0.3764 1.2545 1.5958 0 CFG=2
M  V30 9 C 0.0338 1.3428 0.1113 0 CFG=1
M  V30 10 C -3.1174 -1.3506 -2.4904 0
M  V30 11 C -2.3998 -3.4542 -1.5333 0
M  V30 12 C 1.7937 1.4754 2.0765 0
M  V30 13 C 1.0421 1.5065 -0.9763 0
M  V30 14 C -2.9367 -2.7354 -2.6103 0
M  V30 15 C 2.2677 2.7836 2.2821 0
M  V30 16 C 2.675 0.422 2.3715 0
M  V30 17 N 1.2193 2.9268 -1.2244 0
M  V30 18 C -3.3807 -3.4516 -3.8525 0
M  V30 19 C 3.5683 3.032 2.728 0
M  V30 20 C 3.9778 0.6634 2.8187 0
M  V30 21 C 4.4255 1.9693 2.9922 0
M  V30 22 H 0.6993 -0.7408 0.5891 0
M  V30 23 H -2.8942 0.3875 -1.2413 0
M  V30 24 H -1.61 -3.3703 0.4666 0
M  V30 25 H -0.374 1.691 2.2568 0
M  V30 26 H -0.8964 1.8425 -0.144 0
M  V30 27 H -3.5613 -0.7824 -3.3057 0
M  V30 28 H -2.2819 -4.5342 -1.5993 0
M  V30 29 H 2.0035 1.0426 -0.7325 0
M  V30 30 H 0.6677 1.0271 -1.8871 0
M  V30 31 H 1.6053 3.6273 2.094 0
M  V30 32 H 2.3474 -0.6097 2.2699 0
M  V30 33 H 1.6521 3.3496 -0.4034 0
M  V30 34 H 1.8936 3.0502 -1.9786 0
M  V30 35 H -4.4254 -3.7618 -3.7522 0
M  V30 36 H -3.2855 -2.8048 -4.731 0
M  V30 37 H -2.7634 -4.3378 -4.0335 0
M  V30 38 H 3.9057 4.0546 2.8761 0
M  V30 39 H 4.6378 -0.1712 3.0406 0
M  V30 40 H 5.436 2.1576 3.3448 0
M  V30 END ATOM
M  V30 BEGIN BOND
M  V30 1 2 1 2
M  V30 2 2 1 3
M  V30 3 1 1 4
M  V30 4 1 1 5
M  V30 5 2 4 6
M  V30 6 1 4 7
M  V30 7 1 5 8
M  V30 8 1 5 9
M  V30 9 1 6 10
M  V30 10 2 7 11
M  V30 11 1 8 12
M  V30 12 1 9 13
M  V30 13 2 10 14
M  V30 14 2 12 15
M  V30 15 1 12 16
M  V30 16 1 13 17
M  V30 17 1 14 18
M  V30 18 1 15 19
M  V30 19 2 16 20
M  V30 20 2 19 21
M  V30 21 1 8 9
M  V30 22 1 11 14
M  V30 23 1 20 21
M  V30 24 1 5 22
M  V30 25 1 6 23
M  V30 26 1 7 24
M  V30 27 1 8 25
M  V30 28 1 9 26
M  V30 29 1 10 27
M  V30 30 1 11 28
M  V30 31 1 13 29
M  V30 32 1 13 30
M  V30 33 1 15 31
M  V30 34 1 16 32
M  V30 35 1 17 33
M  V30 36 1 17 34
M  V30 37 1 18 35
M  V30 38 1 18 36
M  V30 39 1 18 37
M  V30 40 1 19 38
M  V30 41 1 20 39
M  V30 42 1 21 40
M  V30 END BOND
M  V30 BEGIN COLLECTION
M  V30 MDLV30/STEABS ATOMS=(3 5 8 9)
M  V30 END COLLECTION
M  V30 END CTAB
M  END
>  <NO.>
4044

>  <Name>
albendazole

>  <SMILES>
Cc1ccc(S(=O)(=O)[C@H]2[C@H](CN)[C@@H]2c2ccccc2)cc1

>  <logBB>


>  <Class>
1

>  <MW>
301.11

>  <nHBAcc>
3

>  <nHBDon>
1

>  <SLogP>
2.51

>  <TopoPSA>
60.16

>  <MMFF94 Energy>
54.916

$$$$
Cc1ccc(S(=O)(=O)[C@H]2[C@H](c3ccccc3)[C@@]2(N)CO)cc1
Actelion Java MolfileCreator 2.0

  0  0  0  0  0  0              0 V3000
M  V30 BEGIN CTAB
M  V30 COUNTS 41 43 0 0 0
M  V30 BEGIN ATOM
M  V30 1 S 2.0259 -0.0809 -0.81 0
M  V30 2 O 2.3281 1.3295 -0.9441 0
M  V30 3 O 2.7147 -1.0762 -1.608 0
M  V30 4 C 2.2262 -0.5015 0.9008 0
M  V30 5 C 0.2644 -0.349 -1.0857 0 CFG=2
M  V30 6 C 1.7848 0.3978 1.8747 0
M  V30 7 C 2.8284 -1.7076 1.2604 0
M  V30 8 C -0.25 -0.071 -2.4842 0 CFG=2
M  V30 9 C -0.5446 0.8977 -1.3339 0 CFG=1
M  V30 10 C 1.9301 0.0731 3.2238 0
M  V30 11 C 2.9701 -2.025 2.6122 0
M  V30 12 N -1.335 -0.9969 -2.9429 0
M  V30 13 C 0.6589 0.4528 -3.5918 0
M  V30 14 C -1.9448 1.0569 -0.7783 0
M  V30 15 C 2.5095 -1.1456 3.6023 0
M  V30 16 O -0.1467 0.8933 -4.6852 0
M  V30 17 C -2.3278 0.537 0.4694 0
M  V30 18 C -2.9307 1.7233 -1.5279 0
M  V30 19 C 2.6986 -1.4751 5.0545 0
M  V30 20 C -3.6324 0.6829 0.9504 0
M  V30 21 C -4.2358 1.8726 -1.0524 0
M  V30 22 C -4.5861 1.3514 0.1888 0
M  V30 23 H -0.1725 -1.1863 -0.5603 0
M  V30 24 H 1.3406 1.3509 1.5953 0
M  V30 25 H 3.1924 -2.4004 0.5051 0
M  V30 26 H -0.0093 1.8456 -1.3755 0
M  V30 27 H 1.5947 0.7795 3.9809 0
M  V30 28 H 3.4467 -2.9628 2.8909 0
M  V30 29 H -2.0895 -0.4646 -3.3773 0
M  V30 30 H -0.994 -1.6751 -3.6214 0
M  V30 31 H 1.3231 -0.3385 -3.953 0
M  V30 32 H 1.2668 1.305 -3.2802 0
M  V30 33 H -0.6233 0.1105 -5.0043 0
M  V30 34 H -1.6035 0.0116 1.0866 0
M  V30 35 H -2.6719 2.1374 -2.501 0
M  V30 36 H 3.6656 -1.0975 5.4006 0
M  V30 37 H 1.9051 -1.0283 5.6627 0
M  V30 38 H 2.6615 -2.5573 5.2171 0
M  V30 39 H -3.9019 0.2722 1.9199 0
M  V30 40 H -4.9753 2.3958 -1.6526 0
M  V30 41 H -5.6004 1.4651 0.5615 0
M  V30 END ATOM
M  V30 BEGIN BOND
M  V30 1 2 1 2
M  V30 2 2 1 3
M  V30 3 1 1 4
M  V30 4 1 1 5
M  V30 5 2 4 6
M  V30 6 1 4 7
M  V30 7 1 5 8
M  V30 8 1 5 9
M  V30 9 1 6 10
M  V30 10 2 7 11
M  V30 11 1 8 12
M  V30 12 1 8 13
M  V30 13 1 9 14
M  V30 14 2 10 15
M  V30 15 1 13 16
M  V30 16 2 14 17
M  V30 17 1 14 18
M  V30 18 1 15 19
M  V30 19 1 17 20
M  V30 20 2 18 21
M  V30 21 2 20 22
M  V30 22 1 8 9
M  V30 23 1 11 15
M  V30 24 1 21 22
M  V30 25 1 5 23
M  V30 26 1 6 24
M  V30 27 1 7 25
M  V30 28 1 9 26
M  V30 29 1 10 27
M  V30 30 1 11 28
M  V30 31 1 12 29
M  V30 32 1 12 30
M  V30 33 1 13 31
M  V30 34 1 13 32
M  V30 35 1 16 33
M  V30 36 1 17 34
M  V30 37 1 18 35
M  V30 38 1 19 36
M  V30 39 1 19 37
M  V30 40 1 19 38
M  V30 41 1 20 39
M  V30 42 1 21 40
M  V30 43 1 22 41
M  V30 END BOND
M  V30 BEGIN COLLECTION
M  V30 MDLV30/STEABS ATOMS=(3 5 8 9)
M  V30 END COLLECTION
M  V30 END CTAB
M  END
>  <NO.>
4045

>  <Name>
alprazolam

>  <SMILES>
Cc1ccc(S(=O)(=O)[C@H]2[C@H](c3ccccc3)[C@@]2(N)CO)cc1

>  <logBB>


>  <Class>
1

>  <MW>
317.11

>  <nHBAcc>
4

>  <nHBDon>
2

>  <SLogP>
1.62

>  <TopoPSA>
80.39

>  <MMFF94 Energy>
77.168

$$$$
Cc1ccc(S[C@@H](C)C(=O)N(C)Cc2nc(-c3ccccc3Cl)no2)cc1
Actelion Java MolfileCreator 2.0

  0  0  0  0  0  0              0 V3000
M  V30 BEGIN CTAB
M  V30 COUNTS 47 49 0 0 0
M  V30 BEGIN ATOM
M  V30 1 Cl -0.407 -5.3015 5.2198 0
M  V30 2 C -1.5297 -4.5086 4.1677 0
M  V30 3 C -1.1599 -3.4983 3.2668 0
M  V30 4 C -2.8739 -4.8908 4.2838 0
M  V30 5 C 0.2116 -3.0524 3.0721 0
M  V30 6 C -2.1674 -2.8727 2.5071 0
M  V30 7 C -3.8573 -4.2696 3.5135 0
M  V30 8 N 1.273 -3.8677 2.9734 0
M  V30 9 N 0.5139 -1.7181 2.8954 0
M  V30 10 C -3.5047 -3.2571 2.6273 0
M  V30 11 O 2.3355 -3.0033 2.7217 0
M  V30 12 C 1.8113 -1.7457 2.6783 0
M  V30 13 C 2.7696 -0.6322 2.4342 0
M  V30 14 N 2.2025 0.3601 1.5117 0
M  V30 15 C 2.3598 0.1178 0.155 0
M  V30 16 C 1.4121 1.4155 2.1319 0
M  V30 17 O 2.9923 -0.879 -0.2217 0
M  V30 18 C 1.8127 1.0686 -0.9191 0 CFG=1
M  V30 19 S -0.024 1.0475 -0.9343 0
M  V30 20 C 2.4306 2.4614 -0.8644 0
M  V30 21 C -0.3408 1.8013 -2.5174 0
M  V30 22 C -0.9765 3.044 -2.5724 0
M  V30 23 C 0.0135 1.1605 -3.7071 0
M  V30 24 C -1.2369 3.6501 -3.8046 0
M  V30 25 C -0.2467 1.766 -4.9395 0
M  V30 26 C -0.8828 3.0112 -4.9981 0
M  V30 27 C -1.1336 3.6751 -6.3197 0
M  V30 28 H -3.1619 -5.6727 4.983 0
M  V30 29 H -1.9073 -2.0806 1.8048 0
M  V30 30 H -4.8971 -4.5726 3.6102 0
M  V30 31 H -4.2666 -2.7659 2.0265 0
M  V30 32 H 3.7076 -1.025 2.0257 0
M  V30 33 H 3.0148 -0.1367 3.3802 0
M  V30 34 H 0.6006 0.9661 2.7111 0
M  V30 35 H 2.0615 1.9813 2.807 0
M  V30 36 H 0.9727 2.1075 1.4211 0
M  V30 37 H 2.1325 0.6213 -1.8693 0
M  V30 38 H 3.5135 2.3926 -0.7107 0
M  V30 39 H 2.0308 3.0882 -0.0644 0
M  V30 40 H 2.2708 2.9961 -1.8071 0
M  V30 41 H -1.2717 3.554 -1.6586 0
M  V30 42 H 0.4889 0.1826 -3.6894 0
M  V30 43 H -1.7233 4.623 -3.8255 0
M  V30 44 H 0.0445 1.2539 -5.8541 0
M  V30 45 H -1.3037 2.9309 -7.1048 0
M  V30 46 H -2.0254 4.3093 -6.2754 0
M  V30 47 H -0.2737 4.2925 -6.5972 0
M  V30 END ATOM
M  V30 BEGIN BOND
M  V30 1 1 1 2
M  V30 2 2 2 3
M  V30 3 1 2 4
M  V30 4 1 3 5
M  V30 5 1 3 6
M  V30 6 2 4 7
M  V30 7 2 5 8
M  V30 8 1 5 9
M  V30 9 2 6 10
M  V30 10 1 8 11
M  V30 11 2 9 12
M  V30 12 1 12 13
M  V30 13 1 13 14
M  V30 14 1 14 15
M  V30 15 1 14 16
M  V30 16 2 15 17
M  V30 17 1 15 18
M  V30 18 1 18 19
M  V30 19 1 18 20
M  V30 20 1 19 21
M  V30 21 2 21 22
M  V30 22 1 21 23
M  V30 23 1 22 24
M  V30 24 2 23 25
M  V30 25 2 24 26
M  V30 26 1 26 27
M  V30 27 1 7 10
M  V30 28 1 11 12
M  V30 29 1 25 26
M  V30 30 1 4 28
M  V30 31 1 6 29
M  V30 32 1 7 30
M  V30 33 1 10 31
M  V30 34 1 13 32
M  V30 35 1 13 33
M  V30 36 1 16 34
M  V30 37 1 16 35
M  V30 38 1 16 36
M  V30 39 1 18 37
M  V30 40 1 20 38
M  V30 41 1 20 39
M  V30 42 1 20 40
M  V30 43 1 22 41
M  V30 44 1 23 42
M  V30 45 1 24 43
M  V30 46 1 25 44
M  V30 47 1 27 45
M  V30 48 1 27 46
M  V30 49 1 27 47
M  V30 END BOND
M  V30 BEGIN COLLECTION
M  V30 MDLV30/STEABS ATOMS=(1 18)
M  V30 END COLLECTION
M  V30 END CTAB
M  END
>  <NO.>
4047

>  <Name>
delavirdine

>  <SMILES>
Cc1ccc(S[C@@H](C)C(=O)N(C)Cc2nc(-c3ccccc3Cl)no2)cc1

>  <logBB>


>  <Class>
-1

>  <MW>
401.1

>  <nHBAcc>
5

>  <nHBDon>
0

>  <SLogP>
4.84

>  <TopoPSA>
59.23

>  <MMFF94 Energy>
78.947

$$$$
Cc1ccc(S[C@@H](C)C(=O)NCc2nc(-c3ccccc3Cl)no2)cc1
Actelion Java MolfileCreator 2.0

  0  0  0  0  0  0              0 V3000
M  V30 BEGIN CTAB
M  V30 COUNTS 44 46 0 0 0
M  V30 BEGIN ATOM
M  V30 1 Cl -3.4315 1.0612 -0.0816 0
M  V30 2 C -2.8839 2.5944 -0.6732 0
M  V30 3 C -1.888 2.7388 -1.6542 0
M  V30 4 C -3.5222 3.7251 -0.1419 0
M  V30 5 C -1.1668 1.6112 -2.2358 0
M  V30 6 C -1.5662 4.0403 -2.09 0
M  V30 7 C -3.1831 5.0043 -0.5808 0
M  V30 8 N -0.6654 1.6179 -3.4847 0
M  V30 9 N -0.8827 0.4619 -1.5357 0
M  V30 10 C -2.2066 5.1622 -1.5575 0
M  V30 11 O -0.0379 0.3793 -3.6028 0
M  V30 12 C -0.2081 -0.2519 -2.4094 0
M  V30 13 C 0.3721 -1.609 -2.2745 0
M  V30 14 N -0.1135 -2.2177 -1.0547 0
M  V30 15 C 0.5113 -3.2943 -0.481 0
M  V30 16 O 1.4548 -3.8666 -1.0249 0
M  V30 17 C -0.0859 -3.8008 0.8332 0 CFG=1
M  V30 18 S -0.6754 -2.4332 1.9165 0
M  V30 19 C -1.2592 -4.7261 0.5319 0
M  V30 20 C 0.7896 -1.4204 2.0288 0
M  V30 21 C 2.0209 -1.938 2.4359 0
M  V30 22 C 0.6925 -0.0636 1.7055 0
M  V30 23 C 3.1474 -1.1122 2.4983 0
M  V30 24 C 1.8182 0.7615 1.7659 0
M  V30 25 C 3.053 0.2455 2.1727 0
M  V30 26 C 4.2699 1.1217 2.2049 0
M  V30 27 H -4.2951 3.6121 0.6155 0
M  V30 28 H -0.8008 4.1914 -2.8507 0
M  V30 29 H -3.6849 5.8744 -0.1639 0
M  V30 30 H -1.94 6.157 -1.9073 0
M  V30 31 H 1.465 -1.5564 -2.2446 0
M  V30 32 H 0.0719 -2.2478 -3.1108 0
M  V30 33 H -0.8473 -1.7404 -0.5355 0
M  V30 34 H 0.6883 -4.3593 1.3694 0
M  V30 35 H -0.935 -5.5563 -0.1062 0
M  V30 36 H -2.0642 -4.2087 -0.003 0
M  V30 37 H -1.6738 -5.1591 1.4489 0
M  V30 38 H 2.1234 -2.9834 2.7133 0
M  V30 39 H -0.257 0.3635 1.3886 0
M  V30 40 H 4.1 -1.5376 2.8063 0
M  V30 41 H 1.7212 1.8101 1.4933 0
M  V30 42 H 3.9999 2.1572 2.4378 0
M  V30 43 H 4.9713 0.788 2.9769 0
M  V30 44 H 4.774 1.0972 1.2339 0
M  V30 END ATOM
M  V30 BEGIN BOND
M  V30 1 1 1 2
M  V30 2 2 2 3
M  V30 3 1 2 4
M  V30 4 1 3 5
M  V30 5 1 3 6
M  V30 6 2 4 7
M  V30 7 2 5 8
M  V30 8 1 5 9
M  V30 9 2 6 10
M  V30 10 1 8 11
M  V30 11 2 9 12
M  V30 12 1 12 13
M  V30 13 1 13 14
M  V30 14 1 14 15
M  V30 15 2 15 16
M  V30 16 1 15 17
M  V30 17 1 17 18
M  V30 18 1 17 19
M  V30 19 1 18 20
M  V30 20 2 20 21
M  V30 21 1 20 22
M  V30 22 1 21 23
M  V30 23 2 22 24
M  V30 24 2 23 25
M  V30 25 1 25 26
M  V30 26 1 7 10
M  V30 27 1 11 12
M  V30 28 1 24 25
M  V30 29 1 4 27
M  V30 30 1 6 28
M  V30 31 1 7 29
M  V30 32 1 10 30
M  V30 33 1 13 31
M  V30 34 1 13 32
M  V30 35 1 14 33
M  V30 36 1 17 34
M  V30 37 1 19 35
M  V30 38 1 19 36
M  V30 39 1 19 37
M  V30 40 1 21 38
M  V30 41 1 22 39
M  V30 42 1 23 40
M  V30 43 1 24 41
M  V30 44 1 26 42
M  V30 45 1 26 43
M  V30 46 1 26 44
M  V30 END BOND
M  V30 BEGIN COLLECTION
M  V30 MDLV30/STEABS ATOMS=(1 17)
M  V30 END COLLECTION
M  V30 END CTAB
M  END
>  <NO.>
4048

>  <Name>
trifluoperazine

>  <SMILES>
Cc1ccc(S[C@@H](C)C(=O)NCc2nc(-c3ccccc3Cl)no2)cc1

>  <logBB>


>  <Class>
1

>  <MW>
387.08

>  <nHBAcc>
5

>  <nHBDon>
1

>  <SLogP>
4.5

>  <TopoPSA>
68.02

>  <MMFF94 Energy>
58.257

$$$$
Cc1ccc(S[C@H](C)C(=O)NCc2nc(-c3cccc(Br)c3)no2)cc1
Actelion Java MolfileCreator 2.0

  0  0  0  0  0  0              0 V3000
M  V30 BEGIN CTAB
M  V30 COUNTS 44 46 0 0 0
M  V30 BEGIN ATOM
M  V30 1 Br -5.5738 -1.4731 3.1939 0
M  V30 2 C -4.8881 0.2299 3.6468 0
M  V30 3 C -3.611 0.5961 3.2203 0
M  V30 4 C -5.6634 1.1063 4.4032 0
M  V30 5 C -3.0913 1.8567 3.5507 0
M  V30 6 C -5.1574 2.3613 4.7368 0
M  V30 7 C -1.7552 2.2383 3.1048 0
M  V30 8 C -3.8788 2.7346 4.3131 0
M  V30 9 N -1.1856 3.4275 3.3658 0
M  V30 10 N -0.9565 1.3893 2.366 0
M  V30 11 O 0.0622 3.3434 2.7542 0
M  V30 12 C 0.1292 2.1098 2.1824 0
M  V30 13 C 1.3792 1.7789 1.4587 0
M  V30 14 N 1.3271 0.41 0.9914 0
M  V30 15 C 2.3842 -0.1642 0.3306 0
M  V30 16 O 3.4301 0.4478 0.1218 0
M  V30 17 C 2.1977 -1.6214 -0.0909 0 CFG=2
M  V30 18 S 0.6444 -1.814 -1.0565 0
M  V30 19 C 2.1392 -2.5245 1.1365 0
M  V30 20 C 1.2485 -1.5919 -2.7209 0
M  V30 21 C 1.9909 -0.4737 -3.1082 0
M  V30 22 C 0.9366 -2.5631 -3.6771 0
M  V30 23 C 2.4339 -0.3401 -4.428 0
M  V30 24 C 1.3782 -2.4301 -4.9967 0
M  V30 25 C 2.1228 -1.3119 -5.3848 0
M  V30 26 C 2.6267 -1.1834 -6.7915 0
M  V30 27 H -3.019 -0.0994 2.6294 0
M  V30 28 H -6.6586 0.8223 4.7359 0
M  V30 29 H -5.7566 3.0511 5.3266 0
M  V30 30 H -3.5032 3.7199 4.585 0
M  V30 31 H 2.2496 1.8912 2.1132 0
M  V30 32 H 1.5077 2.4339 0.5909 0
M  V30 33 H 0.4484 -0.0952 1.0712 0
M  V30 34 H 3.0533 -1.9195 -0.7068 0
M  V30 35 H 3.0452 -2.4017 1.741 0
M  V30 36 H 1.2879 -2.2924 1.7867 0
M  V30 37 H 2.0747 -3.5798 0.8495 0
M  V30 38 H 2.2335 0.3146 -2.4014 0
M  V30 39 H 0.3504 -3.4376 -3.4037 0
M  V30 40 H 3.0208 0.5337 -4.7032 0
M  V30 41 H 1.1329 -3.2054 -5.719 0
M  V30 42 H 1.9402 -1.6621 -7.4977 0
M  V30 43 H 2.7091 -0.1308 -7.0823 0
M  V30 44 H 3.6109 -1.6534 -6.8806 0
M  V30 END ATOM
M  V30 BEGIN BOND
M  V30 1 1 1 2
M  V30 2 2 2 3
M  V30 3 1 2 4
M  V30 4 1 3 5
M  V30 5 2 4 6
M  V30 6 1 5 7
M  V30 7 2 5 8
M  V30 8 2 7 9
M  V30 9 1 7 10
M  V30 10 1 9 11
M  V30 11 2 10 12
M  V30 12 1 12 13
M  V30 13 1 13 14
M  V30 14 1 14 15
M  V30 15 2 15 16
M  V30 16 1 15 17
M  V30 17 1 17 18
M  V30 18 1 17 19
M  V30 19 1 18 20
M  V30 20 2 20 21
M  V30 21 1 20 22
M  V30 22 1 21 23
M  V30 23 2 22 24
M  V30 24 2 23 25
M  V30 25 1 25 26
M  V30 26 1 6 8
M  V30 27 1 11 12
M  V30 28 1 24 25
M  V30 29 1 3 27
M  V30 30 1 4 28
M  V30 31 1 6 29
M  V30 32 1 8 30
M  V30 33 1 13 31
M  V30 34 1 13 32
M  V30 35 1 14 33
M  V30 36 1 17 34
M  V30 37 1 19 35
M  V30 38 1 19 36
M  V30 39 1 19 37
M  V30 40 1 21 38
M  V30 41 1 22 39
M  V30 42 1 23 40
M  V30 43 1 24 41
M  V30 44 1 26 42
M  V30 45 1 26 43
M  V30 46 1 26 44
M  V30 END BOND
M  V30 BEGIN COLLECTION
M  V30 MDLV30/STEABS ATOMS=(1 17)
M  V30 END COLLECTION
M  V30 END CTAB
M  END
>  <NO.>
4051

>  <Name>
trimetrexate

>  <SMILES>
Cc1ccc(S[C@H](C)C(=O)NCc2nc(-c3cccc(Br)c3)no2)cc1

>  <logBB>


>  <Class>
-1

>  <MW>
431.03

>  <nHBAcc>
5

>  <nHBDon>
1

>  <SLogP>
4.6

>  <TopoPSA>
68.02

>  <MMFF94 Energy>
51.284

$$$$
Cc1ccc([C@@H](C)NC(=O)CCSc2ccccc2)cc1C
Actelion Java MolfileCreator 2.0

  0  0  0  0  0  0              0 V3000
M  V30 BEGIN CTAB
M  V30 COUNTS 45 46 0 0 0
M  V30 BEGIN ATOM
M  V30 1 S 0.7966 -3.0296 -1.0356 0
M  V30 2 C -0.7107 -3.2135 -0.0996 0
M  V30 3 C 0.1446 -2.8663 -2.7464 0
M  V30 4 C -1.6454 -4.2105 -0.3945 0
M  V30 5 C -0.9483 -2.3494 0.9752 0
M  V30 6 C -0.7425 -1.6483 -2.9795 0
M  V30 7 C -2.8172 -4.3232 0.3575 0
M  V30 8 C -2.1208 -2.4615 1.7254 0
M  V30 9 C 0.0442 -0.3576 -3.0528 0
M  V30 10 C -3.0565 -3.446 1.414 0
M  V30 11 O 0.2383 0.2287 -4.1124 0
M  V30 12 N 0.4965 0.0891 -1.8395 0
M  V30 13 C 1.2544 1.3149 -1.6705 0 CFG=1
M  V30 14 C 1.1766 1.7432 -0.2149 0
M  V30 15 C 2.697 1.1535 -2.1587 0
M  V30 16 C 0.356 2.8212 0.152 0
M  V30 17 C 1.863 1.055 0.7942 0
M  V30 18 C 0.2298 3.2259 1.4923 0
M  V30 19 C 1.7464 1.4465 2.1292 0
M  V30 20 C 0.9357 2.5308 2.4927 0
M  V30 21 C -0.6597 4.3924 1.8275 0
M  V30 22 C 0.8364 2.9237 3.9413 0
M  V30 23 H -0.4046 -3.7791 -2.9972 0
M  V30 24 H 1.0141 -2.8263 -3.4118 0
M  V30 25 H -1.4694 -4.918 -1.2002 0
M  V30 26 H -0.227 -1.5799 1.2414 0
M  V30 27 H -1.5312 -1.5526 -2.2257 0
M  V30 28 H -1.2517 -1.7651 -3.9445 0
M  V30 29 H -3.5403 -5.1004 0.123 0
M  V30 30 H -2.3005 -1.7821 2.5551 0
M  V30 31 H -3.9678 -3.5353 2.0002 0
M  V30 32 H 0.3342 -0.4842 -1.0203 0
M  V30 33 H 0.7828 2.0808 -2.2997 0
M  V30 34 H 3.206 0.3167 -1.668 0
M  V30 35 H 3.2789 2.0627 -1.972 0
M  V30 36 H 2.7242 0.9541 -3.2354 0
M  V30 37 H -0.1982 3.3536 -0.62 0
M  V30 38 H 2.4925 0.2011 0.5534 0
M  V30 39 H 2.297 0.8937 2.8878 0
M  V30 40 H -1.4622 4.077 2.5019 0
M  V30 41 H -0.0782 5.1911 2.2987 0
M  V30 42 H -1.1289 4.8119 0.9312 0
M  V30 43 H -0.1973 2.8339 4.2898 0
M  V30 44 H 1.4551 2.2803 4.576 0
M  V30 45 H 1.1817 3.953 4.0811 0
M  V30 END ATOM
M  V30 BEGIN BOND
M  V30 1 1 1 2
M  V30 2 1 1 3
M  V30 3 2 2 4
M  V30 4 1 2 5
M  V30 5 1 3 6
M  V30 6 1 4 7
M  V30 7 2 5 8
M  V30 8 1 6 9
M  V30 9 2 7 10
M  V30 10 2 9 11
M  V30 11 1 9 12
M  V30 12 1 12 13
M  V30 13 1 13 14
M  V30 14 1 13 15
M  V30 15 2 14 16
M  V30 16 1 14 17
M  V30 17 1 16 18
M  V30 18 2 17 19
M  V30 19 2 18 20
M  V30 20 1 18 21
M  V30 21 1 20 22
M  V30 22 1 8 10
M  V30 23 1 19 20
M  V30 24 1 3 23
M  V30 25 1 3 24
M  V30 26 1 4 25
M  V30 27 1 5 26
M  V30 28 1 6 27
M  V30 29 1 6 28
M  V30 30 1 7 29
M  V30 31 1 8 30
M  V30 32 1 10 31
M  V30 33 1 12 32
M  V30 34 1 13 33
M  V30 35 1 15 34
M  V30 36 1 15 35
M  V30 37 1 15 36
M  V30 38 1 16 37
M  V30 39 1 17 38
M  V30 40 1 19 39
M  V30 41 1 21 40
M  V30 42 1 21 41
M  V30 43 1 21 42
M  V30 44 1 22 43
M  V30 45 1 22 44
M  V30 46 1 22 45
M  V30 END BOND
M  V30 BEGIN COLLECTION
M  V30 MDLV30/STEABS ATOMS=(1 13)
M  V30 END COLLECTION
M  V30 END CTAB
M  END
>  <NO.>
4052

>  <Name>
flucloxacillin

>  <SMILES>
Cc1ccc([C@@H](C)NC(=O)CCSc2ccccc2)cc1C

>  <logBB>


>  <Class>
-1

>  <MW>
313.15

>  <nHBAcc>
2

>  <nHBDon>
1

>  <SLogP>
4.66

>  <TopoPSA>
29.1

>  <MMFF94 Energy>
9.6725

$$$$
Cc1ccc([C@H](C)NC(=O)Cc2ccsc2)nc1
Actelion Java MolfileCreator 2.0

  0  0  0  0  0  0              0 V3000
M  V30 BEGIN CTAB
M  V30 COUNTS 34 35 0 0 0
M  V30 BEGIN ATOM
M  V30 1 S -2.6486 -3.2916 3.1308 0
M  V30 2 C -0.9529 -3.2369 2.9228 0
M  V30 3 C -2.9088 -3.2956 1.4428 0
M  V30 4 C -0.5749 -3.2194 1.592 0
M  V30 5 C -1.7266 -3.2564 0.7376 0
M  V30 6 C 0.8455 -3.1716 1.1104 0
M  V30 7 C 1.4571 -1.7969 1.3155 0
M  V30 8 O 2.1956 -1.537 2.2623 0
M  V30 9 N 1.1158 -0.8787 0.3557 0
M  V30 10 C 1.5733 0.502 0.3739 0 CFG=2
M  V30 11 C 0.632 1.3657 -0.4561 0
M  V30 12 C 2.9984 0.604 -0.1678 0
M  V30 13 N -0.0306 0.7627 -1.4831 0
M  V30 14 C 0.4871 2.7208 -0.1687 0
M  V30 15 C -0.8575 1.5354 -2.2242 0
M  V30 16 C -0.3727 3.4869 -0.9521 0
M  V30 17 C -1.0755 2.8889 -1.9977 0
M  V30 18 C -1.9805 3.6851 -2.8826 0
M  V30 19 H -0.3073 -3.2129 3.7915 0
M  V30 20 H -3.9151 -3.326 1.0483 0
M  V30 21 H -1.6903 -3.2519 -0.3453 0
M  V30 22 H 1.4528 -3.9064 1.6519 0
M  V30 23 H 0.9019 -3.4339 0.0473 0
M  V30 24 H 0.4591 -1.109 -0.3831 0
M  V30 25 H 1.5518 0.8434 1.4162 0
M  V30 26 H 3.0577 0.2483 -1.2032 0
M  V30 27 H 3.3572 1.6389 -0.149 0
M  V30 28 H 3.6904 -0.0013 0.427 0
M  V30 29 H 1.0325 3.1787 0.6505 0
M  V30 30 H -1.3577 1.0143 -3.0365 0
M  V30 31 H -0.4905 4.5469 -0.7408 0
M  V30 32 H -2.4327 4.5168 -2.3321 0
M  V30 33 H -2.799 3.0654 -3.2637 0
M  V30 34 H -1.4178 4.0876 -3.7304 0
M  V30 END ATOM
M  V30 BEGIN BOND
M  V30 1 1 1 2
M  V30 2 1 1 3
M  V30 3 2 2 4
M  V30 4 2 3 5
M  V30 5 1 4 6
M  V30 6 1 6 7
M  V30 7 2 7 8
M  V30 8 1 7 9
M  V30 9 1 9 10
M  V30 10 1 10 11
M  V30 11 1 10 12
M  V30 12 2 11 13
M  V30 13 1 11 14
M  V30 14 1 13 15
M  V30 15 2 14 16
M  V30 16 2 15 17
M  V30 17 1 17 18
M  V30 18 1 4 5
M  V30 19 1 16 17
M  V30 20 1 2 19
M  V30 21 1 3 20
M  V30 22 1 5 21
M  V30 23 1 6 22
M  V30 24 1 6 23
M  V30 25 1 9 24
M  V30 26 1 10 25
M  V30 27 1 12 26
M  V30 28 1 12 27
M  V30 29 1 12 28
M  V30 30 1 14 29
M  V30 31 1 15 30
M  V30 32 1 16 31
M  V30 33 1 18 32
M  V30 34 1 18 33
M  V30 35 1 18 34
M  V30 END BOND
M  V30 BEGIN COLLECTION
M  V30 MDLV30/STEABS ATOMS=(1 10)
M  V30 END COLLECTION
M  V30 END CTAB
M  END
>  <NO.>
4054

>  <Name>
didanosine

>  <SMILES>
Cc1ccc([C@H](C)NC(=O)Cc2ccsc2)nc1

>  <logBB>


>  <Class>
-1

>  <MW>
260.1

>  <nHBAcc>
3

>  <nHBDon>
1

>  <SLogP>
2.87

>  <TopoPSA>
41.99

>  <MMFF94 Energy>
31.09

$$$$
Cc1ccc([C@H](C)NC(=O)[C@H](C)SCc2ccccc2)cc1C
Actelion Java MolfileCreator 2.0

  0  0  0  0  0  0              0 V3000
M  V30 BEGIN CTAB
M  V30 COUNTS 48 49 0 0 0
M  V30 BEGIN ATOM
M  V30 1 S -1.3534 -2.1501 1.5923 0
M  V30 2 C -0.9184 -3.1316 0.0972 0 CFG=2
M  V30 3 C -2.9788 -1.4884 1.0873 0
M  V30 4 C -0.7993 -2.211 -1.122 0
M  V30 5 C -1.8956 -4.2774 -0.1295 0
M  V30 6 C -3.4223 -0.3841 2.0148 0
M  V30 7 O -1.4716 -2.3518 -2.1395 0
M  V30 8 N 0.1435 -1.2169 -0.9788 0
M  V30 9 C -4.0824 -0.6818 3.2161 0
M  V30 10 C -3.1613 0.9575 1.6995 0
M  V30 11 C 0.4169 -0.236 -2.0132 0 CFG=2
M  V30 12 C -4.4838 0.3415 4.0763 0
M  V30 13 C -3.5642 1.9792 2.561 0
M  V30 14 C 1.7962 0.359 -1.7966 0
M  V30 15 C -0.6749 0.8368 -2.0637 0
M  V30 16 C -4.2263 1.6711 3.7478 0
M  V30 17 C 2.0757 1.1994 -0.7059 0
M  V30 18 C 2.8362 0.045 -2.6786 0
M  V30 19 C 3.3597 1.7328 -0.4997 0
M  V30 20 C 4.1158 0.5689 -2.4859 0
M  V30 21 C 4.3915 1.4155 -1.403 0
M  V30 22 C 3.6024 2.6304 0.6832 0
M  V30 23 C 5.783 1.959 -1.2287 0
M  V30 24 H 0.0754 -3.5564 0.2804 0
M  V30 25 H -3.7208 -2.2937 1.1013 0
M  V30 26 H -2.9355 -1.1018 0.0643 0
M  V30 27 H -1.5522 -4.9057 -0.9594 0
M  V30 28 H -2.897 -3.9247 -0.3973 0
M  V30 29 H -1.9756 -4.9174 0.7554 0
M  V30 30 H 0.6239 -1.1313 -0.09 0
M  V30 31 H -4.2819 -1.7153 3.4906 0
M  V30 32 H -2.6414 1.2142 0.7796 0
M  V30 33 H 0.3985 -0.7631 -2.9758 0
M  V30 34 H -4.994 0.1004 5.0051 0
M  V30 35 H -3.3595 3.0159 2.3071 0
M  V30 36 H -0.7962 1.3448 -1.1008 0
M  V30 37 H -0.4452 1.5953 -2.82 0
M  V30 38 H -1.6453 0.3953 -2.3151 0
M  V30 39 H -4.538 2.4668 4.4191 0
M  V30 40 H 1.283 1.4418 0.0 0
M  V30 41 H 2.66 -0.6136 -3.5264 0
M  V30 42 H 4.901 0.3072 -3.1921 0
M  V30 43 H 3.9241 3.6216 0.3485 0
M  V30 44 H 4.3664 2.199 1.3375 0
M  V30 45 H 2.6944 2.7635 1.281 0
M  V30 46 H 5.7701 3.0532 -1.2518 0
M  V30 47 H 6.4499 1.6215 -2.0291 0
M  V30 48 H 6.208 1.618 -0.2794 0
M  V30 END ATOM
M  V30 BEGIN BOND
M  V30 1 1 1 2
M  V30 2 1 1 3
M  V30 3 1 2 4
M  V30 4 1 2 5
M  V30 5 1 3 6
M  V30 6 2 4 7
M  V30 7 1 4 8
M  V30 8 2 6 9
M  V30 9 1 6 10
M  V30 10 1 8 11
M  V30 11 1 9 12
M  V30 12 2 10 13
M  V30 13 1 11 14
M  V30 14 1 11 15
M  V30 15 2 12 16
M  V30 16 2 14 17
M  V30 17 1 14 18
M  V30 18 1 17 19
M  V30 19 2 18 20
M  V30 20 2 19 21
M  V30 21 1 19 22
M  V30 22 1 21 23
M  V30 23 1 13 16
M  V30 24 1 20 21
M  V30 25 1 2 24
M  V30 26 1 3 25
M  V30 27 1 3 26
M  V30 28 1 5 27
M  V30 29 1 5 28
M  V30 30 1 5 29
M  V30 31 1 8 30
M  V30 32 1 9 31
M  V30 33 1 10 32
M  V30 34 1 11 33
M  V30 35 1 12 34
M  V30 36 1 13 35
M  V30 37 1 15 36
M  V30 38 1 15 37
M  V30 39 1 15 38
M  V30 40 1 16 39
M  V30 41 1 17 40
M  V30 42 1 18 41
M  V30 43 1 20 42
M  V30 44 1 22 43
M  V30 45 1 22 44
M  V30 46 1 22 45
M  V30 47 1 23 46
M  V30 48 1 23 47
M  V30 49 1 23 48
M  V30 END BOND
M  V30 BEGIN COLLECTION
M  V30 MDLV30/STEABS ATOMS=(2 2 11)
M  V30 END COLLECTION
M  V30 END CTAB
M  END
>  <NO.>
4055

>  <Name>
daunorubicin

>  <SMILES>
Cc1ccc([C@H](C)NC(=O)[C@H](C)SCc2ccccc2)cc1C

>  <logBB>


>  <Class>
-1

>  <MW>
327.17

>  <nHBAcc>
2

>  <nHBDon>
1

>  <SLogP>
4.8

>  <TopoPSA>
29.1

>  <MMFF94 Energy>
45.21

$$$$
Cc1ccc2[nH]c(CCC(=O)N[C@H](C)Cc3cnccn3)nc2c1C
Actelion Java MolfileCreator 2.0

  0  0  0  0  0  0              0 V3000
M  V30 BEGIN CTAB
M  V30 COUNTS 48 50 0 0 0
M  V30 BEGIN ATOM
M  V30 1 O 1.2647 -0.3951 2.9266 0
M  V30 2 C 1.49 -0.2484 1.7313 0
M  V30 3 N 2.6773 -0.6039 1.1246 0
M  V30 4 C 0.4942 0.3434 0.7603 0
M  V30 5 C 3.8001 -1.1719 1.8717 0 CFG=1
M  V30 6 C -0.8169 0.6942 1.4526 0
M  V30 7 C 4.4656 -2.3209 1.0964 0
M  V30 8 C 4.8121 -0.0632 2.1619 0
M  V30 9 C -1.8145 1.261 0.5005 0
M  V30 10 C 3.6601 -3.5911 1.1557 0
M  V30 11 N -1.6046 1.6568 -0.7376 0
M  V30 12 N -3.1291 1.4412 0.8521 0
M  V30 13 N 4.0115 -4.5103 2.0908 0
M  V30 14 C 2.587 -3.8113 0.2966 0
M  V30 15 C -2.8222 2.1042 -1.2042 0
M  V30 16 C -3.7943 1.9772 -0.2202 0
M  V30 17 C 3.2554 -5.6315 2.1284 0
M  V30 18 N 1.8355 -4.9372 0.3277 0
M  V30 19 C -3.1593 2.6339 -2.4693 0
M  V30 20 C -5.1241 2.3483 -0.4001 0
M  V30 21 C 2.193 -5.84 1.2669 0
M  V30 22 C -4.5107 3.0201 -2.678 0
M  V30 23 C -2.131 2.7844 -3.5546 0
M  V30 24 C -5.4607 2.8726 -1.6514 0
M  V30 25 C -4.9524 3.5938 -3.9995 0
M  V30 26 H 2.8131 -0.3506 0.1531 0
M  V30 27 H 0.3214 -0.3836 -0.0429 0
M  V30 28 H 0.9435 1.2377 0.3108 0
M  V30 29 H 3.4299 -1.5464 2.8343 0
M  V30 30 H -1.2378 -0.2015 1.9265 0
M  V30 31 H -0.6349 1.4234 2.252 0
M  V30 32 H 5.4532 -2.5328 1.5264 0
M  V30 33 H 4.6384 -2.0429 0.049 0
M  V30 34 H 5.214 0.3588 1.234 0
M  V30 35 H 4.3443 0.7546 2.721 0
M  V30 36 H 5.6493 -0.4423 2.757 0
M  V30 37 H -3.5358 1.2162 1.7483 0
M  V30 38 H 2.2952 -3.0827 -0.4514 0
M  V30 39 H 3.5297 -6.3649 2.8778 0
M  V30 40 H -5.8658 2.2397 0.3831 0
M  V30 41 H 1.5972 -6.7442 1.3099 0
M  V30 42 H -1.146 2.4393 -3.2247 0
M  V30 43 H -2.4127 2.1919 -4.4306 0
M  V30 44 H -2.0334 3.8357 -3.8433 0
M  V30 45 H -6.4938 3.1721 -1.8229 0
M  V30 46 H -6.0199 3.8388 -3.9957 0
M  V30 47 H -4.4045 4.5164 -4.2155 0
M  V30 48 H -4.7844 2.8701 -4.8031 0
M  V30 END ATOM
M  V30 BEGIN BOND
M  V30 1 2 1 2
M  V30 2 1 2 3
M  V30 3 1 2 4
M  V30 4 1 3 5
M  V30 5 1 4 6
M  V30 6 1 5 7
M  V30 7 1 5 8
M  V30 8 1 6 9
M  V30 9 1 7 10
M  V30 10 2 9 11
M  V30 11 1 9 12
M  V30 12 2 10 13
M  V30 13 1 10 14
M  V30 14 1 11 15
M  V30 15 1 12 16
M  V30 16 1 13 17
M  V30 17 2 14 18
M  V30 18 1 15 19
M  V30 19 1 16 20
M  V30 20 2 17 21
M  V30 21 2 19 22
M  V30 22 1 19 23
M  V30 23 2 20 24
M  V30 24 1 22 25
M  V30 25 2 15 16
M  V30 26 1 18 21
M  V30 27 1 22 24
M  V30 28 1 3 26
M  V30 29 1 4 27
M  V30 30 1 4 28
M  V30 31 1 5 29
M  V30 32 1 6 30
M  V30 33 1 6 31
M  V30 34 1 7 32
M  V30 35 1 7 33
M  V30 36 1 8 34
M  V30 37 1 8 35
M  V30 38 1 8 36
M  V30 39 1 12 37
M  V30 40 1 14 38
M  V30 41 1 17 39
M  V30 42 1 20 40
M  V30 43 1 21 41
M  V30 44 1 23 42
M  V30 45 1 23 43
M  V30 46 1 23 44
M  V30 47 1 24 45
M  V30 48 1 25 46
M  V30 49 1 25 47
M  V30 50 1 25 48
M  V30 END BOND
M  V30 BEGIN COLLECTION
M  V30 MDLV30/STEABS ATOMS=(1 5)
M  V30 END COLLECTION
M  V30 END CTAB
M  END
>  <NO.>
4056

>  <Name>
terconazole

>  <SMILES>
Cc1ccc2[nH]c(CCC(=O)N[C@H](C)Cc3cnccn3)nc2c1C

>  <logBB>


>  <Class>
-1

>  <MW>
337.19

>  <nHBAcc>
4

>  <nHBDon>
2

>  <SLogP>
2.65

>  <TopoPSA>
83.56

>  <MMFF94 Energy>
46.913

$$$$
Cc1ccc2c(c1)OC(C)(C)C[C@@H]2NC(=O)CCSc1ccccc1
Actelion Java MolfileCreator 2.0

  0  0  0  0  0  0              0 V3000
M  V30 BEGIN CTAB
M  V30 COUNTS 50 52 0 0 0
M  V30 BEGIN ATOM
M  V30 1 S -1.4432 -2.4865 1.8444 0
M  V30 2 C -2.5088 -1.6655 3.0148 0
M  V30 3 C -2.4719 -2.3472 0.3349 0
M  V30 4 C -2.8638 -0.3216 2.8575 0
M  V30 5 C -2.9662 -2.3683 4.1333 0
M  V30 6 C -1.7123 -2.8325 -0.8914 0
M  V30 7 C -3.6865 0.3045 3.7964 0
M  V30 8 C -3.7888 -1.7415 5.072 0
M  V30 9 C -0.8086 -1.7448 -1.4312 0
M  V30 10 C -4.1507 -0.4062 4.9017 0
M  V30 11 O -1.2041 -0.9558 -2.2816 0
M  V30 12 N 0.4468 -1.7303 -0.8711 0
M  V30 13 C 1.4926 -0.7623 -1.1919 0 CFG=2
M  V30 14 C 1.2068 0.6363 -0.7072 0
M  V30 15 C 1.8679 -0.7683 -2.6733 0
M  V30 16 C 1.6331 1.7374 -1.4561 0
M  V30 17 C 0.5787 0.8714 0.5267 0
M  V30 18 C 2.8533 0.3629 -2.9924 0
M  V30 19 O 2.3183 1.6487 -2.6375 0
M  V30 20 C 1.372 3.0391 -1.0174 0
M  V30 21 C 0.3301 2.1724 0.9712 0
M  V30 22 C 3.0761 0.4086 -4.5122 0
M  V30 23 C 4.2188 0.1814 -2.3113 0
M  V30 24 C 0.7061 3.2683 0.1914 0
M  V30 25 C 0.4639 4.6674 0.672 0
M  V30 26 H -2.7993 -1.3122 0.1949 0
M  V30 27 H -3.3607 -2.9692 0.4844 0
M  V30 28 H -2.5006 0.2543 2.0098 0
M  V30 29 H -2.6884 -3.4088 4.2829 0
M  V30 30 H -2.428 -3.0718 -1.6877 0
M  V30 31 H -1.1432 -3.7491 -0.6993 0
M  V30 32 H -3.9614 1.3482 3.6663 0
M  V30 33 H -4.1445 -2.2951 5.9372 0
M  V30 34 H -4.79 0.0817 5.6331 0
M  V30 35 H 0.6269 -2.3615 -0.1001 0
M  V30 36 H 2.3639 -1.1123 -0.6226 0
M  V30 37 H 2.2813 -1.7455 -2.9526 0
M  V30 38 H 0.9714 -0.6235 -3.288 0
M  V30 39 H 0.2764 0.0398 1.1568 0
M  V30 40 H 1.7024 3.8768 -1.6273 0
M  V30 41 H -0.1606 2.3218 1.9303 0
M  V30 42 H 3.5006 -0.5282 -4.8872 0
M  V30 43 H 3.75 1.2292 -4.7848 0
M  V30 44 H 2.1339 0.5989 -5.0392 0
M  V30 45 H 4.1484 0.2465 -1.2209 0
M  V30 46 H 4.9089 0.9784 -2.6126 0
M  V30 47 H 4.6699 -0.7816 -2.571 0
M  V30 48 H 0.311 5.349 -0.1712 0
M  V30 49 H 1.3199 5.0155 1.2581 0
M  V30 50 H -0.4349 4.7164 1.2955 0
M  V30 END ATOM
M  V30 BEGIN BOND
M  V30 1 1 1 2
M  V30 2 1 1 3
M  V30 3 2 2 4
M  V30 4 1 2 5
M  V30 5 1 3 6
M  V30 6 1 4 7
M  V30 7 2 5 8
M  V30 8 1 6 9
M  V30 9 2 7 10
M  V30 10 2 9 11
M  V30 11 1 9 12
M  V30 12 1 12 13
M  V30 13 1 13 14
M  V30 14 1 13 15
M  V30 15 2 14 16
M  V30 16 1 14 17
M  V30 17 1 15 18
M  V30 18 1 16 19
M  V30 19 1 16 20
M  V30 20 2 17 21
M  V30 21 1 18 22
M  V30 22 1 18 23
M  V30 23 2 20 24
M  V30 24 1 24 25
M  V30 25 1 8 10
M  V30 26 1 18 19
M  V30 27 1 21 24
M  V30 28 1 3 26
M  V30 29 1 3 27
M  V30 30 1 4 28
M  V30 31 1 5 29
M  V30 32 1 6 30
M  V30 33 1 6 31
M  V30 34 1 7 32
M  V30 35 1 8 33
M  V30 36 1 10 34
M  V30 37 1 12 35
M  V30 38 1 13 36
M  V30 39 1 15 37
M  V30 40 1 15 38
M  V30 41 1 17 39
M  V30 42 1 20 40
M  V30 43 1 21 41
M  V30 44 1 22 42
M  V30 45 1 22 43
M  V30 46 1 22 44
M  V30 47 1 23 45
M  V30 48 1 23 46
M  V30 49 1 23 47
M  V30 50 1 25 48
M  V30 51 1 25 49
M  V30 52 1 25 50
M  V30 END BOND
M  V30 BEGIN COLLECTION
M  V30 MDLV30/STEABS ATOMS=(1 13)
M  V30 END COLLECTION
M  V30 END CTAB
M  END
>  <NO.>
4057

>  <Name>
fentanyl

>  <SMILES>
Cc1ccc2c(c1)OC(C)(C)C[C@@H]2NC(=O)CCSc1ccccc1

>  <logBB>


>  <Class>
1

>  <MW>
355.16

>  <nHBAcc>
3

>  <nHBDon>
1

>  <SLogP>
4.9

>  <TopoPSA>
38.33

>  <MMFF94 Energy>
12.685

$$$$
Cc1ccc2c(c1)OC(C)(C)C[C@@H]2NC(=O)CSCc1ccc([N+](=O)[O-])cc1
Actelion Java MolfileCreator 2.0

  0  0  0  0  0  0              0 V3000
M  V30 BEGIN CTAB
M  V30 COUNTS 52 54 0 0 0
M  V30 BEGIN ATOM
M  V30 1 S 1.9345 -3.0643 0.7251 0
M  V30 2 C 2.6025 -1.7307 1.777 0
M  V30 3 C 1.4964 -2.1057 -0.7629 0
M  V30 4 C 3.8952 -1.1511 1.2568 0
M  V30 5 C 0.4154 -1.0872 -0.4468 0
M  V30 6 C 3.9295 0.1498 0.7301 0
M  V30 7 C 5.0808 -1.9033 1.2945 0
M  V30 8 O 0.6592 0.113 -0.3795 0
M  V30 9 N -0.8287 -1.6433 -0.2343 0
M  V30 10 C 5.1224 0.6913 0.2443 0
M  V30 11 C 6.2788 -1.3706 0.8122 0
M  V30 12 C -2.0359 -0.8852 0.0783 0 CFG=2
M  V30 13 C 6.2944 -0.0725 0.2876 0
M  V30 14 C -2.5046 0.0206 -1.0304 0
M  V30 15 C -1.9158 -0.1239 1.3973 0
M  V30 16 N 7.5505 0.4908 -0.2217 0 CHG=1
M  V30 17 C -3.1227 1.237 -0.7234 0
M  V30 18 C -2.3968 -0.3539 -2.3798 0
M  V30 19 C -3.1441 0.7658 1.627 0
M  V30 20 O 8.5634 -0.2221 -0.1744 0
M  V30 21 O 7.5263 1.6462 -0.6694 0 CHG=-1
M  V30 22 O -3.3388 1.6945 0.5483 0
M  V30 23 C -3.5657 2.0854 -1.7422 0
M  V30 24 C -2.8499 0.4902 -3.3968 0
M  V30 25 C -2.9036 1.6238 2.8791 0
M  V30 26 C -4.4376 -0.0372 1.8347 0
M  V30 27 C -3.4214 1.7268 -3.0867 0
M  V30 28 C -3.9304 2.6272 -4.1719 0
M  V30 29 H 2.7875 -2.1537 2.7714 0
M  V30 30 H 1.8443 -0.9541 1.9222 0
M  V30 31 H 1.12 -2.7984 -1.5229 0
M  V30 32 H 2.3738 -1.6065 -1.1825 0
M  V30 33 H 3.0216 0.7522 0.6875 0
M  V30 34 H 5.0739 -2.9148 1.6986 0
M  V30 35 H -0.9015 -2.653 -0.2389 0
M  V30 36 H 5.1171 1.7008 -0.1619 0
M  V30 37 H 7.1815 -1.9765 0.8516 0
M  V30 38 H -2.8116 -1.653 0.1972 0
M  V30 39 H -1.0241 0.5151 1.3787 0
M  V30 40 H -1.7755 -0.8279 2.2274 0
M  V30 41 H -1.951 -1.3068 -2.6524 0
M  V30 42 H -4.0315 3.0315 -1.4757 0
M  V30 43 H -2.7476 0.1775 -4.4334 0
M  V30 44 H -2.0215 2.262 2.7513 0
M  V30 45 H -3.7472 2.3006 3.0584 0
M  V30 46 H -2.7587 1.0059 3.7714 0
M  V30 47 H -4.3379 -0.7494 2.6603 0
M  V30 48 H -4.7291 -0.5892 0.9356 0
M  V30 49 H -5.2764 0.6331 2.0567 0
M  V30 50 H -3.8514 3.6787 -3.876 0
M  V30 51 H -3.3449 2.5037 -5.0889 0
M  V30 52 H -4.9784 2.3979 -4.3878 0
M  V30 END ATOM
M  V30 BEGIN BOND
M  V30 1 1 1 2
M  V30 2 1 1 3
M  V30 3 1 2 4
M  V30 4 1 3 5
M  V30 5 2 4 6
M  V30 6 1 4 7
M  V30 7 2 5 8
M  V30 8 1 5 9
M  V30 9 1 6 10
M  V30 10 2 7 11
M  V30 11 1 9 12
M  V30 12 2 10 13
M  V30 13 1 12 14
M  V30 14 1 12 15
M  V30 15 1 13 16
M  V30 16 2 14 17
M  V30 17 1 14 18
M  V30 18 1 15 19
M  V30 19 2 16 20
M  V30 20 1 16 21
M  V30 21 1 17 22
M  V30 22 1 17 23
M  V30 23 2 18 24
M  V30 24 1 19 25
M  V30 25 1 19 26
M  V30 26 2 23 27
M  V30 27 1 27 28
M  V30 28 1 11 13
M  V30 29 1 19 22
M  V30 30 1 24 27
M  V30 31 1 2 29
M  V30 32 1 2 30
M  V30 33 1 3 31
M  V30 34 1 3 32
M  V30 35 1 6 33
M  V30 36 1 7 34
M  V30 37 1 9 35
M  V30 38 1 10 36
M  V30 39 1 11 37
M  V30 40 1 12 38
M  V30 41 1 15 39
M  V30 42 1 15 40
M  V30 43 1 18 41
M  V30 44 1 23 42
M  V30 45 1 24 43
M  V30 46 1 25 44
M  V30 47 1 25 45
M  V30 48 1 25 46
M  V30 49 1 26 47
M  V30 50 1 26 48
M  V30 51 1 26 49
M  V30 52 1 28 50
M  V30 53 1 28 51
M  V30 54 1 28 52
M  V30 END BOND
M  V30 BEGIN COLLECTION
M  V30 MDLV30/STEABS ATOMS=(1 12)
M  V30 END COLLECTION
M  V30 END CTAB
M  END
>  <NO.>
4058

>  <Name>
amitriptyline

>  <SMILES>
Cc1ccc2c(c1)OC(C)(C)C[C@@H]2NC(=O)CSCc1ccc([N+](=O)[O-])cc1

>  <logBB>


>  <Class>
1

>  <MW>
400.15

>  <nHBAcc>
5

>  <nHBDon>
1

>  <SLogP>
4.56

>  <TopoPSA>
81.47

>  <MMFF94 Energy>
78.984

$$$$
Cc1ccc2c(c1)[C@H](NC(=O)[C@@H](C)Sc1ccccc1)CC(C)(C)O2
Actelion Java MolfileCreator 2.0

  0  0  0  0  0  0              0 V3000
M  V30 BEGIN CTAB
M  V30 COUNTS 50 52 0 0 0
M  V30 BEGIN ATOM
M  V30 1 S -0.4811 3.0501 1.1229 0
M  V30 2 C -1.5671 3.5757 -0.1909 0
M  V30 3 C -1.5657 1.8362 1.9823 0 CFG=1
M  V30 4 C -2.0057 2.6955 -1.1846 0
M  V30 5 C -1.9606 4.917 -0.2442 0
M  V30 6 C -1.4878 0.4647 1.3129 0
M  V30 7 C -1.1348 1.7274 3.4407 0
M  V30 8 C -2.8476 3.1465 -2.2042 0
M  V30 9 C -2.8013 5.3676 -1.2644 0
M  V30 10 O -2.4947 -0.1975 1.0703 0
M  V30 11 N -0.2188 0.0044 1.0474 0
M  V30 12 C -3.247 4.481 -2.2424 0
M  V30 13 C 0.0336 -1.2874 0.4286 0 CFG=1
M  V30 14 C 1.3375 -1.2895 -0.3297 0
M  V30 15 C 0.0372 -2.3747 1.5014 0
M  V30 16 C 2.1932 -2.3925 -0.2645 0
M  V30 17 C 1.6916 -0.2088 -1.1598 0
M  V30 18 C 0.5964 -3.691 0.9528 0
M  V30 19 O 1.9374 -3.5227 0.4623 0
M  V30 20 C 3.4016 -2.3906 -0.962 0
M  V30 21 C 2.9049 -0.1982 -1.8605 0
M  V30 22 C -0.2772 -4.3033 -0.1526 0
M  V30 23 C 0.6977 -4.7024 2.1049 0
M  V30 24 C 3.7558 -1.3016 -1.7586 0
M  V30 25 C 3.2544 0.9541 -2.7551 0
M  V30 26 H -2.6025 2.188 1.9397 0
M  V30 27 H -1.6989 1.6533 -1.1884 0
M  V30 28 H -1.6184 5.6231 0.5089 0
M  V30 29 H -1.7589 0.9961 3.9671 0
M  V30 30 H -0.0961 1.3931 3.5441 0
M  V30 31 H -1.2419 2.6863 3.9597 0
M  V30 32 H -3.1895 2.4543 -2.9697 0
M  V30 33 H -3.1063 6.4105 -1.2956 0
M  V30 34 H 0.5719 0.6003 1.267 0
M  V30 35 H -3.9018 4.8305 -3.0367 0
M  V30 36 H -0.7735 -1.4841 -0.2882 0
M  V30 37 H 0.6664 -2.0412 2.3402 0
M  V30 38 H -0.973 -2.5132 1.9067 0
M  V30 39 H 1.0141 0.638 -1.2613 0
M  V30 40 H 4.0642 -3.2496 -0.895 0
M  V30 41 H -0.3129 -3.6738 -1.0474 0
M  V30 42 H -1.3029 -4.467 0.1938 0
M  V30 43 H 0.1343 -5.2651 -0.4807 0
M  V30 44 H 1.3612 -4.3299 2.8942 0
M  V30 45 H 1.1335 -5.6471 1.7594 0
M  V30 46 H -0.282 -4.9131 2.5461 0
M  V30 47 H 4.6958 -1.3262 -2.3047 0
M  V30 48 H 4.3401 1.0775 -2.8278 0
M  V30 49 H 2.8495 0.7855 -3.7576 0
M  V30 50 H 2.8471 1.8912 -2.3608 0
M  V30 END ATOM
M  V30 BEGIN BOND
M  V30 1 1 1 2
M  V30 2 1 1 3
M  V30 3 2 2 4
M  V30 4 1 2 5
M  V30 5 1 3 6
M  V30 6 1 3 7
M  V30 7 1 4 8
M  V30 8 2 5 9
M  V30 9 2 6 10
M  V30 10 1 6 11
M  V30 11 2 8 12
M  V30 12 1 11 13
M  V30 13 1 13 14
M  V30 14 1 13 15
M  V30 15 2 14 16
M  V30 16 1 14 17
M  V30 17 1 15 18
M  V30 18 1 16 19
M  V30 19 1 16 20
M  V30 20 2 17 21
M  V30 21 1 18 22
M  V30 22 1 18 23
M  V30 23 2 20 24
M  V30 24 1 21 25
M  V30 25 1 9 12
M  V30 26 1 18 19
M  V30 27 1 21 24
M  V30 28 1 3 26
M  V30 29 1 4 27
M  V30 30 1 5 28
M  V30 31 1 7 29
M  V30 32 1 7 30
M  V30 33 1 7 31
M  V30 34 1 8 32
M  V30 35 1 9 33
M  V30 36 1 11 34
M  V30 37 1 12 35
M  V30 38 1 13 36
M  V30 39 1 15 37
M  V30 40 1 15 38
M  V30 41 1 17 39
M  V30 42 1 20 40
M  V30 43 1 22 41
M  V30 44 1 22 42
M  V30 45 1 22 43
M  V30 46 1 23 44
M  V30 47 1 23 45
M  V30 48 1 23 46
M  V30 49 1 24 47
M  V30 50 1 25 48
M  V30 51 1 25 49
M  V30 52 1 25 50
M  V30 END BOND
M  V30 BEGIN COLLECTION
M  V30 MDLV30/STEABS ATOMS=(2 3 13)
M  V30 END COLLECTION
M  V30 END CTAB
M  END
>  <NO.>
4060

>  <Name>
buprenorphine

>  <SMILES>
Cc1ccc2c(c1)[C@H](NC(=O)[C@@H](C)Sc1ccccc1)CC(C)(C)O2

>  <logBB>


>  <Class>
1

>  <MW>
355.16

>  <nHBAcc>
3

>  <nHBDon>
1

>  <SLogP>
4.89

>  <TopoPSA>
38.33

>  <MMFF94 Energy>
36.305

$$$$
Cc1cccc(-c2noc(CNC(=O)CCSc3ccc(Cl)cc3)n2)c1
Actelion Java MolfileCreator 2.0

  0  0  0  0  0  0              0 V3000
M  V30 BEGIN CTAB
M  V30 COUNTS 44 46 0 0 0
M  V30 BEGIN ATOM
M  V30 1 Cl -7.2762 -1.1419 0.6524 0
M  V30 2 C -5.9282 -2.1193 1.0832 0
M  V30 3 C -5.5384 -2.2131 2.4175 0
M  V30 4 C -5.2351 -2.8171 0.0967 0
M  V30 5 C -4.442 -3.0069 2.7672 0
M  V30 6 C -4.1392 -3.6102 0.4481 0
M  V30 7 C -3.7282 -3.6989 1.783 0
M  V30 8 S -2.3296 -4.7282 2.1884 0
M  V30 9 C -1.2428 -3.5219 3.0336 0
M  V30 10 C -0.6669 -2.5074 2.0544 0
M  V30 11 C 0.2592 -1.5409 2.7593 0
M  V30 12 O 0.4709 -1.5531 3.9665 0
M  V30 13 N 0.842 -0.6321 1.9129 0
M  V30 14 C 1.758 0.3748 2.4114 0
M  V30 15 C 2.2325 1.2192 1.2898 0
M  V30 16 O 3.1076 2.2136 1.6014 0
M  V30 17 N 1.9381 1.1632 0.0082 0
M  V30 18 N 3.4082 2.8631 0.4079 0
M  V30 19 C 2.6868 2.201 -0.5134 0
M  V30 20 C 2.6795 2.5294 -1.936 0
M  V30 21 C 3.4513 3.5895 -2.4392 0
M  V30 22 C 1.8928 1.7869 -2.828 0
M  V30 23 C 3.4497 3.9003 -3.8077 0
M  V30 24 C 1.874 2.0988 -4.1889 0
M  V30 25 C 2.6449 3.154 -4.675 0
M  V30 26 C 4.2543 5.0574 -4.3225 0
M  V30 27 H -6.0853 -1.6791 3.1903 0
M  V30 28 H -5.5432 -2.7535 -0.9434 0
M  V30 29 H -4.1639 -3.087 3.8154 0
M  V30 30 H -3.61 -4.1573 -0.3289 0
M  V30 31 H -0.4299 -4.0926 3.4968 0
M  V30 32 H -1.7836 -3.0301 3.8486 0
M  V30 33 H -1.4608 -1.9184 1.5807 0
M  V30 34 H -0.0961 -3.0122 1.2656 0
M  V30 35 H 0.6445 -0.6436 0.9173 0
M  V30 36 H 1.2342 0.9804 3.1582 0
M  V30 37 H 2.5978 -0.1317 2.8981 0
M  V30 38 H 4.0636 4.1835 -1.7617 0
M  V30 39 H 1.2836 0.9605 -2.4683 0
M  V30 40 H 1.2551 1.52 -4.8698 0
M  V30 41 H 2.6146 3.3904 -5.7366 0
M  V30 42 H 4.5517 4.8947 -5.3637 0
M  V30 43 H 3.6658 5.9781 -4.2627 0
M  V30 44 H 5.1723 5.1843 -3.7391 0
M  V30 END ATOM
M  V30 BEGIN BOND
M  V30 1 1 1 2
M  V30 2 2 2 3
M  V30 3 1 2 4
M  V30 4 1 3 5
M  V30 5 2 4 6
M  V30 6 2 5 7
M  V30 7 1 7 8
M  V30 8 1 8 9
M  V30 9 1 9 10
M  V30 10 1 10 11
M  V30 11 2 11 12
M  V30 12 1 11 13
M  V30 13 1 13 14
M  V30 14 1 14 15
M  V30 15 1 15 16
M  V30 16 2 15 17
M  V30 17 1 16 18
M  V30 18 1 17 19
M  V30 19 1 19 20
M  V30 20 2 20 21
M  V30 21 1 20 22
M  V30 22 1 21 23
M  V30 23 2 22 24
M  V30 24 2 23 25
M  V30 25 1 23 26
M  V30 26 1 6 7
M  V30 27 2 18 19
M  V30 28 1 24 25
M  V30 29 1 3 27
M  V30 30 1 4 28
M  V30 31 1 5 29
M  V30 32 1 6 30
M  V30 33 1 9 31
M  V30 34 1 9 32
M  V30 35 1 10 33
M  V30 36 1 10 34
M  V30 37 1 13 35
M  V30 38 1 14 36
M  V30 39 1 14 37
M  V30 40 1 21 38
M  V30 41 1 22 39
M  V30 42 1 24 40
M  V30 43 1 25 41
M  V30 44 1 26 42
M  V30 45 1 26 43
M  V30 46 1 26 44
M  V30 END BOND
M  V30 END CTAB
M  END
>  <NO.>
4061

>  <Name>
hydroxycarbamide

>  <SMILES>
Cc1cccc(-c2noc(CNC(=O)CCSc3ccc(Cl)cc3)n2)c1

>  <logBB>


>  <Class>
1

>  <MW>
387.08

>  <nHBAcc>
5

>  <nHBDon>
1

>  <SLogP>
4.5

>  <TopoPSA>
68.02

>  <MMFF94 Energy>
25.462

$$$$
Cc1ccccc1OC[C@H](C)NC(=O)CSCc1ccc([N+](=O)[O-])cc1
Actelion Java MolfileCreator 2.0

  0  0  0  0  0  0              0 V3000
M  V30 BEGIN CTAB
M  V30 COUNTS 48 49 0 0 0
M  V30 BEGIN ATOM
M  V30 1 S 3.2089 -3.0483 0.0801 0
M  V30 2 C 3.8798 -1.9062 1.3317 0
M  V30 3 C 1.7267 -2.1397 -0.4592 0
M  V30 4 C 4.1788 -0.5231 0.8024 0
M  V30 5 C 0.8232 -1.7094 0.687 0
M  V30 6 C 3.4836 0.5898 1.3019 0
M  V30 7 C 5.1642 -0.3271 -0.1794 0
M  V30 8 O 0.6276 -2.3763 1.6992 0
M  V30 9 N 0.2193 -0.4836 0.4856 0
M  V30 10 C 3.7514 1.8733 0.8197 0
M  V30 11 C 5.4406 0.9524 -0.6674 0
M  V30 12 C -0.7456 0.0694 1.4346 0 CFG=2
M  V30 13 C 4.73 2.0495 -0.166 0
M  V30 14 C -2.1624 -0.4652 1.1474 0
M  V30 15 C -0.6912 1.5951 1.394 0
M  V30 16 N 5.0116 3.3959 -0.6786 0 CHG=1
M  V30 17 O -2.5871 0.0088 -0.135 0
M  V30 18 O 4.3189 4.3311 -0.2517 0
M  V30 19 O 5.9208 3.5182 -1.5117 0 CHG=-1
M  V30 20 C -3.8493 -0.327 -0.5488 0
M  V30 21 C -4.2638 0.2493 -1.7638 0
M  V30 22 C -4.7146 -1.1845 0.1377 0
M  V30 23 C -5.5416 -0.0406 -2.2661 0
M  V30 24 C -3.356 1.1745 -2.5262 0
M  V30 25 C -5.9841 -1.4657 -0.3734 0
M  V30 26 C -6.3976 -0.8943 -1.5729 0
M  V30 27 H 4.8127 -2.3388 1.712 0
M  V30 28 H 3.2002 -1.8651 2.1892 0
M  V30 29 H 1.141 -2.7942 -1.1129 0
M  V30 30 H 2.0376 -1.2765 -1.0559 0
M  V30 31 H 2.7251 0.4625 2.0738 0
M  V30 32 H 5.7215 -1.1774 -0.5717 0
M  V30 33 H 0.2958 -0.0323 -0.4182 0
M  V30 34 H 3.196 2.7176 1.2236 0
M  V30 35 H 6.2066 1.0738 -1.4308 0
M  V30 36 H -0.4572 -0.2598 2.4403 0
M  V30 37 H -2.1458 -1.5618 1.1515 0
M  V30 38 H -2.846 -0.1009 1.9242 0
M  V30 39 H -1.4071 2.0299 2.0992 0
M  V30 40 H 0.3088 1.951 1.6648 0
M  V30 41 H -0.9143 1.9836 0.3943 0
M  V30 42 H -4.4324 -1.6569 1.0726 0
M  V30 43 H -5.8774 0.3983 -3.2029 0
M  V30 44 H -3.1117 2.0516 -1.9181 0
M  V30 45 H -3.8268 1.5306 -3.4486 0
M  V30 46 H -2.4328 0.6557 -2.8041 0
M  V30 47 H -6.6498 -2.1345 0.1664 0
M  V30 48 H -7.3854 -1.1143 -1.9696 0
M  V30 END ATOM
M  V30 BEGIN BOND
M  V30 1 1 1 2
M  V30 2 1 1 3
M  V30 3 1 2 4
M  V30 4 1 3 5
M  V30 5 2 4 6
M  V30 6 1 4 7
M  V30 7 2 5 8
M  V30 8 1 5 9
M  V30 9 1 6 10
M  V30 10 2 7 11
M  V30 11 1 9 12
M  V30 12 2 10 13
M  V30 13 1 12 14
M  V30 14 1 12 15
M  V30 15 1 13 16
M  V30 16 1 14 17
M  V30 17 2 16 18
M  V30 18 1 16 19
M  V30 19 1 17 20
M  V30 20 2 20 21
M  V30 21 1 20 22
M  V30 22 1 21 23
M  V30 23 1 21 24
M  V30 24 2 22 25
M  V30 25 2 23 26
M  V30 26 1 11 13
M  V30 27 1 25 26
M  V30 28 1 2 27
M  V30 29 1 2 28
M  V30 30 1 3 29
M  V30 31 1 3 30
M  V30 32 1 6 31
M  V30 33 1 7 32
M  V30 34 1 9 33
M  V30 35 1 10 34
M  V30 36 1 11 35
M  V30 37 1 12 36
M  V30 38 1 14 37
M  V30 39 1 14 38
M  V30 40 1 15 39
M  V30 41 1 15 40
M  V30 42 1 15 41
M  V30 43 1 22 42
M  V30 44 1 23 43
M  V30 45 1 24 44
M  V30 46 1 24 45
M  V30 47 1 24 46
M  V30 48 1 25 47
M  V30 49 1 26 48
M  V30 END BOND
M  V30 BEGIN COLLECTION
M  V30 MDLV30/STEABS ATOMS=(1 12)
M  V30 END COLLECTION
M  V30 END CTAB
M  END
>  <NO.>
4063

>  <Name>
amantadine

>  <SMILES>
Cc1ccccc1OC[C@H](C)NC(=O)CSCc1ccc([N+](=O)[O-])cc1

>  <logBB>


>  <Class>
1

>  <MW>
374.13

>  <nHBAcc>
5

>  <nHBDon>
1

>  <SLogP>
3.72

>  <TopoPSA>
81.47

>  <MMFF94 Energy>
94.718

$$$$
Cc1ccccc1OC[C@H](C)NC(=O)[C@H](C)Sc1ccccc1
Actelion Java MolfileCreator 2.0

  0  0  0  0  0  0              0 V3000
M  V30 BEGIN CTAB
M  V30 COUNTS 46 47 0 0 0
M  V30 BEGIN ATOM
M  V30 1 S 1.9142 -0.3985 -0.3985 0
M  V30 2 C 3.3576 -0.7753 -1.3739 0
M  V30 3 C 2.2948 1.3324 0.1053 0 CFG=2
M  V30 4 C 4.6334 -0.8039 -0.8023 0
M  V30 5 C 3.2067 -1.0803 -2.73 0
M  V30 6 C 1.3682 1.7469 1.2517 0
M  V30 7 C 2.1349 2.2919 -1.0689 0
M  V30 8 C 5.749 -1.1092 -1.5849 0
M  V30 9 C 4.3227 -1.3853 -3.5122 0
M  V30 10 O 1.8073 2.2509 2.2839 0
M  V30 11 N 0.021 1.5726 1.0172 0
M  V30 12 C 5.5935 -1.3964 -2.94 0
M  V30 13 C -1.0078 1.8805 2.0097 0 CFG=2
M  V30 14 C -2.3624 1.2767 1.5917 0
M  V30 15 C -1.155 3.3893 2.2055 0
M  V30 16 O -2.2012 -0.1367 1.4466 0
M  V30 17 C -3.2656 -0.8511 0.9643 0
M  V30 18 C -3.008 -2.2033 0.6734 0
M  V30 19 C -4.5493 -0.3345 0.7628 0
M  V30 20 C -4.0396 -3.0104 0.1705 0
M  V30 21 C -1.6366 -2.7868 0.8774 0
M  V30 22 C -5.5692 -1.1498 0.2654 0
M  V30 23 C -5.3146 -2.4852 -0.0319 0
M  V30 24 H 3.3192 1.3792 0.4899 0
M  V30 25 H 4.7717 -0.6006 0.2569 0
M  V30 26 H 2.2209 -1.0816 -3.189 0
M  V30 27 H 2.2904 3.3255 -0.7384 0
M  V30 28 H 1.1319 2.2445 -1.5084 0
M  V30 29 H 2.8657 2.0883 -1.8582 0
M  V30 30 H 6.7384 -1.1293 -1.1346 0
M  V30 31 H 4.1987 -1.618 -4.5667 0
M  V30 32 H -0.2369 0.9699 0.241 0
M  V30 33 H 6.4619 -1.6368 -3.5481 0
M  V30 34 H -0.6835 1.4197 2.951 0
M  V30 35 H -3.1091 1.4857 2.3673 0
M  V30 36 H -2.6794 1.7153 0.6366 0
M  V30 37 H -1.9327 3.6123 2.9437 0
M  V30 38 H -0.2238 3.8425 2.5592 0
M  V30 39 H -1.4235 3.8842 1.2655 0
M  V30 40 H -4.7937 0.6977 0.9885 0
M  V30 41 H -3.8538 -4.056 -0.0648 0
M  V30 42 H -0.9213 -2.312 0.1987 0
M  V30 43 H -1.6246 -3.8635 0.6776 0
M  V30 44 H -1.3094 -2.6416 1.9122 0
M  V30 45 H -6.5647 -0.7409 0.1124 0
M  V30 46 H -6.1083 -3.1188 -0.4191 0
M  V30 END ATOM
M  V30 BEGIN BOND
M  V30 1 1 1 2
M  V30 2 1 1 3
M  V30 3 2 2 4
M  V30 4 1 2 5
M  V30 5 1 3 6
M  V30 6 1 3 7
M  V30 7 1 4 8
M  V30 8 2 5 9
M  V30 9 2 6 10
M  V30 10 1 6 11
M  V30 11 2 8 12
M  V30 12 1 11 13
M  V30 13 1 13 14
M  V30 14 1 13 15
M  V30 15 1 14 16
M  V30 16 1 16 17
M  V30 17 2 17 18
M  V30 18 1 17 19
M  V30 19 1 18 20
M  V30 20 1 18 21
M  V30 21 2 19 22
M  V30 22 2 20 23
M  V30 23 1 9 12
M  V30 24 1 22 23
M  V30 25 1 3 24
M  V30 26 1 4 25
M  V30 27 1 5 26
M  V30 28 1 7 27
M  V30 29 1 7 28
M  V30 30 1 7 29
M  V30 31 1 8 30
M  V30 32 1 9 31
M  V30 33 1 11 32
M  V30 34 1 12 33
M  V30 35 1 13 34
M  V30 36 1 14 35
M  V30 37 1 14 36
M  V30 38 1 15 37
M  V30 39 1 15 38
M  V30 40 1 15 39
M  V30 41 1 19 40
M  V30 42 1 20 41
M  V30 43 1 21 42
M  V30 44 1 21 43
M  V30 45 1 21 44
M  V30 46 1 22 45
M  V30 47 1 23 46
M  V30 END BOND
M  V30 BEGIN COLLECTION
M  V30 MDLV30/STEABS ATOMS=(2 3 13)
M  V30 END COLLECTION
M  V30 END CTAB
M  END
>  <NO.>
4064

>  <Name>
bretylium

>  <SMILES>
Cc1ccccc1OC[C@H](C)NC(=O)[C@H](C)Sc1ccccc1

>  <logBB>


>  <Class>
-1

>  <MW>
329.14

>  <nHBAcc>
3

>  <nHBDon>
1

>  <SLogP>
4.06

>  <TopoPSA>
38.33

>  <MMFF94 Energy>
58.273

$$$$
Cc1nc(N)ncc1C(=O)N1CC[C@@H]1c1ccc(F)cc1
Actelion Java MolfileCreator 2.0

  0  0  0  0  0  0              0 V3000
M  V30 BEGIN CTAB
M  V30 COUNTS 36 38 0 0 0
M  V30 BEGIN ATOM
M  V30 1 F -2.7976 -2.5576 -3.438 0
M  V30 2 C -2.2422 -2.1647 -2.2846 0
M  V30 3 C -1.2559 -2.9424 -1.6987 0
M  V30 4 C -2.6578 -0.9845 -1.6892 0
M  V30 5 C -0.6776 -2.5287 -0.4951 0
M  V30 6 C -2.0763 -0.5795 -0.4844 0
M  V30 7 C -1.0689 -1.3361 0.154 0
M  V30 8 C -0.4064 -0.8414 1.5106 0 CFG=2
M  V30 9 N 1.0454 -0.7288 1.5198 0
M  V30 10 C -0.2412 -1.8398 2.6755 0
M  V30 11 C 1.9446 0.0556 0.8582 0
M  V30 12 C 1.2763 -1.7795 2.4861 0
M  V30 13 O 3.1602 -0.0314 0.9795 0
M  V30 14 C 1.3918 1.0605 -0.0475 0
M  V30 15 C 0.9733 2.3076 0.3703 0
M  V30 16 C 1.2803 0.7942 -1.3914 0
M  V30 17 N 0.4326 3.2006 -0.4945 0
M  V30 18 C 1.0986 2.7493 1.7976 0
M  V30 19 N 0.7559 1.6684 -2.276 0
M  V30 20 C 0.3476 2.8418 -1.7827 0
M  V30 21 N -0.1932 3.7384 -2.653 0
M  V30 22 H -0.9391 -3.8619 -2.1801 0
M  V30 23 H -3.4248 -0.3817 -2.1649 0
M  V30 24 H 0.1024 -3.1477 -0.0546 0
M  V30 25 H -2.407 0.3576 -0.0376 0
M  V30 26 H -0.8651 0.0932 1.8631 0
M  V30 27 H -0.679 -2.8317 2.5251 0
M  V30 28 H -0.5862 -1.4542 3.6418 0
M  V30 29 H 1.8421 -1.455 3.3628 0
M  V30 30 H 1.7294 -2.6715 2.0457 0
M  V30 31 H 1.6039 -0.153 -1.8121 0
M  V30 32 H 0.767 3.7868 1.9121 0
M  V30 33 H 2.1413 2.6945 2.1253 0
M  V30 34 H 0.4798 2.1267 2.4501 0
M  V30 35 H -0.2198 3.4896 -3.626 0
M  V30 36 H -0.4587 4.64 -2.2993 0
M  V30 END ATOM
M  V30 BEGIN BOND
M  V30 1 1 1 2
M  V30 2 2 2 3
M  V30 3 1 2 4
M  V30 4 1 3 5
M  V30 5 2 4 6
M  V30 6 2 5 7
M  V30 7 1 7 8
M  V30 8 1 8 9
M  V30 9 1 8 10
M  V30 10 1 9 11
M  V30 11 1 9 12
M  V30 12 2 11 13
M  V30 13 1 11 14
M  V30 14 2 14 15
M  V30 15 1 14 16
M  V30 16 1 15 17
M  V30 17 1 15 18
M  V30 18 2 16 19
M  V30 19 2 17 20
M  V30 20 1 20 21
M  V30 21 1 6 7
M  V30 22 1 10 12
M  V30 23 1 19 20
M  V30 24 1 3 22
M  V30 25 1 4 23
M  V30 26 1 5 24
M  V30 27 1 6 25
M  V30 28 1 8 26
M  V30 29 1 10 27
M  V30 30 1 10 28
M  V30 31 1 12 29
M  V30 32 1 12 30
M  V30 33 1 16 31
M  V30 34 1 18 32
M  V30 35 1 18 33
M  V30 36 1 18 34
M  V30 37 1 21 35
M  V30 38 1 21 36
M  V30 END BOND
M  V30 BEGIN COLLECTION
M  V30 MDLV30/STEABS ATOMS=(1 8)
M  V30 END COLLECTION
M  V30 END CTAB
M  END
>  <NO.>
4065

>  <Name>
fluoxetine

>  <SMILES>
Cc1nc(N)ncc1C(=O)N1CC[C@@H]1c1ccc(F)cc1

>  <logBB>


>  <Class>
1

>  <MW>
286.12

>  <nHBAcc>
4

>  <nHBDon>
1

>  <SLogP>
2.09

>  <TopoPSA>
72.11

>  <MMFF94 Energy>
-59.157

$$$$
Cc1ncsc1CCC(=O)N[C@@H](c1cnn(C)c1)C1CC(O)C1
Actelion Java MolfileCreator 2.0

  0  0  0  0  0  0              0 V3000
M  V30 BEGIN CTAB
M  V30 COUNTS 45 47 0 0 0
M  V30 BEGIN ATOM
M  V30 1 S -3.1355 2.8136 -2.4113 0
M  V30 2 C -1.7808 3.2351 -1.4372 0
M  V30 3 C -2.1406 2.8732 -3.8002 0
M  V30 4 C -0.665 3.4117 -2.2434 0
M  V30 5 C -1.9291 3.3811 0.05 0
M  V30 6 N -0.8829 3.1872 -3.5955 0
M  V30 7 C 0.7054 3.8036 -1.8161 0
M  V30 8 C -2.0106 2.0356 0.7674 0
M  V30 9 C -0.6719 1.3278 0.8134 0
M  V30 10 O 0.39 1.9243 0.9525 0
M  V30 11 N -0.7719 -0.0411 0.7389 0
M  V30 12 C 0.3876 -0.9116 0.7815 0 CFG=1
M  V30 13 C 0.007 -2.1076 1.5905 0
M  V30 14 C 0.7351 -1.2476 -0.6656 0
M  V30 15 C -0.6936 -3.2718 1.1912 0
M  V30 16 C 0.2545 -2.3244 2.9334 0
M  V30 17 C 1.4568 -0.1499 -1.4952 0
M  V30 18 C 2.006 -2.114 -0.8848 0
M  V30 19 N -0.8708 -4.1391 2.1894 0
M  V30 20 N -0.2794 -3.5409 3.2378 0
M  V30 21 C 2.2897 -1.2736 -2.1499 0
M  V30 22 C -0.2669 -4.2011 4.5203 0
M  V30 23 O 3.6699 -0.9677 -2.4046 0
M  V30 24 H -2.5293 2.6649 -4.7881 0
M  V30 25 H -2.8443 3.9495 0.2611 0
M  V30 26 H -1.105 3.9817 0.4521 0
M  V30 27 H 1.244 2.9396 -1.4196 0
M  V30 28 H 1.2755 4.198 -2.6635 0
M  V30 29 H 0.6725 4.5815 -1.0476 0
M  V30 30 H -2.312 2.199 1.8093 0
M  V30 31 H -2.7693 1.3906 0.3104 0
M  V30 32 H -1.6832 -0.4699 0.6483 0
M  V30 33 H 1.2239 -0.392 1.265 0
M  V30 34 H -0.125 -1.6571 -1.2191 0
M  V30 35 H -1.0848 -3.5227 0.2133 0
M  V30 36 H 0.7569 -1.7184 3.6752 0
M  V30 37 H 0.814 0.4138 -2.1766 0
M  V30 38 H 2.0568 0.5542 -0.9074 0
M  V30 39 H 2.7716 -2.014 -0.1061 0
M  V30 40 H 1.8206 -3.1772 -1.0619 0
M  V30 41 H 1.8119 -1.682 -3.0496 0
M  V30 42 H 0.253 -3.573 5.2479 0
M  V30 43 H -1.3009 -4.3605 4.8362 0
M  V30 44 H 0.254 -5.1556 4.4115 0
M  V30 45 H 4.0635 -1.8048 -2.7038 0
M  V30 END ATOM
M  V30 BEGIN BOND
M  V30 1 1 1 2
M  V30 2 1 1 3
M  V30 3 2 2 4
M  V30 4 1 2 5
M  V30 5 2 3 6
M  V30 6 1 4 7
M  V30 7 1 5 8
M  V30 8 1 8 9
M  V30 9 2 9 10
M  V30 10 1 9 11
M  V30 11 1 11 12
M  V30 12 1 12 13
M  V30 13 1 12 14
M  V30 14 1 13 15
M  V30 15 2 13 16
M  V30 16 1 14 17
M  V30 17 1 14 18
M  V30 18 2 15 19
M  V30 19 1 16 20
M  V30 20 1 17 21
M  V30 21 1 20 22
M  V30 22 1 21 23
M  V30 23 1 4 6
M  V30 24 1 18 21
M  V30 25 1 19 20
M  V30 26 1 3 24
M  V30 27 1 5 25
M  V30 28 1 5 26
M  V30 29 1 7 27
M  V30 30 1 7 28
M  V30 31 1 7 29
M  V30 32 1 8 30
M  V30 33 1 8 31
M  V30 34 1 11 32
M  V30 35 1 12 33
M  V30 36 1 14 34
M  V30 37 1 15 35
M  V30 38 1 16 36
M  V30 39 1 17 37
M  V30 40 1 17 38
M  V30 41 1 18 39
M  V30 42 1 18 40
M  V30 43 1 21 41
M  V30 44 1 22 42
M  V30 45 1 22 43
M  V30 46 1 22 44
M  V30 47 1 23 45
M  V30 END BOND
M  V30 BEGIN COLLECTION
M  V30 MDLV30/STEABS ATOMS=(1 12)
M  V30 END COLLECTION
M  V30 END CTAB
M  END
>  <NO.>
4066

>  <Name>
oxazepam

>  <SMILES>
Cc1ncsc1CCC(=O)N[C@@H](c1cnn(C)c1)C1CC(O)C1

>  <logBB>


>  <Class>
1

>  <MW>
334.15

>  <nHBAcc>
5

>  <nHBDon>
2

>  <SLogP>
1.75

>  <TopoPSA>
80.04

>  <MMFF94 Energy>
-13.109

$$$$
Cn1c(C(=O)N2CCCC[C@H]2c2cccnc2)cc2ccccc21
Actelion Java MolfileCreator 2.0

  0  0  0  0  0  0              0 V3000
M  V30 BEGIN CTAB
M  V30 COUNTS 45 48 0 0 0
M  V30 BEGIN ATOM
M  V30 1 O 2.076 -0.9577 0.0797 0
M  V30 2 C 1.0191 -0.3783 0.3286 0
M  V30 3 N -0.2093 -1.0208 0.1667 0
M  V30 4 C 1.0285 0.9993 0.7859 0
M  V30 5 C -0.2296 -2.4801 -0.0564 0 CFG=2
M  V30 6 C -1.5178 -0.3625 0.1479 0
M  V30 7 N 1.8115 1.9988 0.2355 0
M  V30 8 C 0.382 1.566 1.8728 0
M  V30 9 C -0.5112 -2.8308 -1.5122 0
M  V30 10 C -1.1473 -3.1155 1.0145 0
M  V30 11 C -2.4139 -0.9383 1.2378 0
M  V30 12 C 1.6371 3.1894 0.9156 0
M  V30 13 C 2.6851 1.8137 -0.9057 0
M  V30 14 C 0.7365 2.9369 1.9512 0
M  V30 15 C -1.4844 -3.7399 -1.9186 0
M  V30 16 C 0.268 -2.2684 -2.5354 0
M  V30 17 C -2.5285 -2.4553 1.1023 0
M  V30 18 C 2.1996 4.4627 0.7233 0
M  V30 19 C 0.3803 3.9837 2.8243 0
M  V30 20 N -1.7403 -4.0763 -3.2065 0
M  V30 21 C 0.034 -2.5955 -3.8685 0
M  V30 22 C 1.828 5.4883 1.5986 0
M  V30 23 C 0.9305 5.2549 2.6354 0
M  V30 24 C -0.9759 -3.4943 -4.1516 0
M  V30 25 H 0.7708 -2.8872 0.1422 0
M  V30 26 H -1.9652 -0.5388 -0.8375 0
M  V30 27 H -1.4398 0.7209 0.2477 0
M  V30 28 H -0.2732 1.0411 2.5547 0
M  V30 29 H -0.6618 -2.9915 1.9927 0
M  V30 30 H -1.2506 -4.1959 0.865 0
M  V30 31 H -1.9996 -0.6976 2.2241 0
M  V30 32 H -3.4092 -0.4839 1.1843 0
M  V30 33 H 2.8801 2.7741 -1.3866 0
M  V30 34 H 3.6191 1.3723 -0.5499 0
M  V30 35 H 2.1954 1.1585 -1.6306 0
M  V30 36 H -2.1226 -4.2611 -1.2125 0
M  V30 37 H 1.0726 -1.5763 -2.2976 0
M  V30 38 H -3.1221 -2.693 0.2133 0
M  V30 39 H -3.0747 -2.8607 1.9616 0
M  V30 40 H 2.9077 4.6598 -0.0744 0
M  V30 41 H -0.3142 3.8068 3.64 0
M  V30 42 H 0.6312 -2.163 -4.6627 0
M  V30 43 H 2.2514 6.4815 1.4679 0
M  V30 44 H 0.6572 6.0643 3.3076 0
M  V30 45 H -1.1996 -3.7838 -5.1739 0
M  V30 END ATOM
M  V30 BEGIN BOND
M  V30 1 2 1 2
M  V30 2 1 2 3
M  V30 3 1 2 4
M  V30 4 1 3 5
M  V30 5 1 3 6
M  V30 6 1 4 7
M  V30 7 2 4 8
M  V30 8 1 5 9
M  V30 9 1 5 10
M  V30 10 1 6 11
M  V30 11 1 7 12
M  V30 12 1 7 13
M  V30 13 1 8 14
M  V30 14 2 9 15
M  V30 15 1 9 16
M  V30 16 1 10 17
M  V30 17 1 12 18
M  V30 18 1 14 19
M  V30 19 1 15 20
M  V30 20 2 16 21
M  V30 21 2 18 22
M  V30 22 2 19 23
M  V30 23 2 20 24
M  V30 24 1 11 17
M  V30 25 2 12 14
M  V30 26 1 21 24
M  V30 27 1 22 23
M  V30 28 1 5 25
M  V30 29 1 6 26
M  V30 30 1 6 27
M  V30 31 1 8 28
M  V30 32 1 10 29
M  V30 33 1 10 30
M  V30 34 1 11 31
M  V30 35 1 11 32
M  V30 36 1 13 33
M  V30 37 1 13 34
M  V30 38 1 13 35
M  V30 39 1 15 36
M  V30 40 1 16 37
M  V30 41 1 17 38
M  V30 42 1 17 39
M  V30 43 1 18 40
M  V30 44 1 19 41
M  V30 45 1 21 42
M  V30 46 1 22 43
M  V30 47 1 23 44
M  V30 48 1 24 45
M  V30 END BOND
M  V30 BEGIN COLLECTION
M  V30 MDLV30/STEABS ATOMS=(1 5)
M  V30 END COLLECTION
M  V30 END CTAB
M  END
>  <NO.>
4067

>  <Name>
metoprolol

>  <SMILES>
Cn1c(C(=O)N2CCCC[C@H]2c2cccnc2)cc2ccccc21

>  <logBB>


>  <Class>
1

>  <MW>
319.17

>  <nHBAcc>
2

>  <nHBDon>
0

>  <SLogP>
3.94

>  <TopoPSA>
38.13

>  <MMFF94 Energy>
13.024

$$$$
N#Cc1ccccc1C(=O)NCCC[C@@H]1CCOC1
Actelion Java MolfileCreator 2.0

  0  0  0  0  0  0              0 V3000
M  V30 BEGIN CTAB
M  V30 COUNTS 37 38 0 0 0
M  V30 BEGIN ATOM
M  V30 1 O -2.6947 0.3167 0.7919 0
M  V30 2 C -2.3887 -0.0616 -0.3317 0
M  V30 3 N -1.3823 -0.9624 -0.5996 0
M  V30 4 C -3.1608 0.4294 -1.4974 0
M  V30 5 C -0.524 -1.473 0.4504 0
M  V30 6 C -2.5581 0.9642 -2.6443 0
M  V30 7 C -4.5596 0.3844 -1.3968 0
M  V30 8 C 0.637 -0.5199 0.727 0
M  V30 9 C -1.1364 1.0915 -2.7707 0
M  V30 10 C -3.3682 1.4155 -3.698 0
M  V30 11 C -5.3554 0.8368 -2.4495 0
M  V30 12 C 1.5631 -1.0696 1.8132 0
M  V30 13 N 0.0145 1.1632 -2.9002 0
M  V30 14 C -4.7602 1.3473 -3.6013 0
M  V30 15 C 2.6973 -0.1048 2.1547 0 CFG=1
M  V30 16 C 3.6257 -0.6331 3.2379 0
M  V30 17 C 3.6779 0.1656 1.0321 0
M  V30 18 O 4.8835 0.0366 3.0658 0
M  V30 19 C 4.878 0.6927 1.79 0
M  V30 20 H -1.2098 -1.2854 -1.5426 0
M  V30 21 H -0.1506 -2.4464 0.1153 0
M  V30 22 H -1.1193 -1.6288 1.3571 0
M  V30 23 H -5.0286 -0.0029 -0.4932 0
M  V30 24 H 0.2484 0.4592 1.0334 0
M  V30 25 H 1.1989 -0.3584 -0.2006 0
M  V30 26 H -2.9203 1.8346 -4.5983 0
M  V30 27 H -6.4396 0.7968 -2.3668 0
M  V30 28 H 1.9747 -2.0328 1.4865 0
M  V30 29 H 0.9797 -1.2677 2.7213 0
M  V30 30 H -5.3813 1.7044 -4.4204 0
M  V30 31 H 2.2757 0.8526 2.4902 0
M  V30 32 H 3.8071 -1.709 3.1384 0
M  V30 33 H 3.2449 -0.4375 4.2449 0
M  V30 34 H 3.3118 0.8768 0.2863 0
M  V30 35 H 3.9414 -0.7665 0.5178 0
M  V30 36 H 5.821 0.4988 1.2713 0
M  V30 37 H 4.7924 1.77 1.9689 0
M  V30 END ATOM
M  V30 BEGIN BOND
M  V30 1 2 1 2
M  V30 2 1 2 3
M  V30 3 1 2 4
M  V30 4 1 3 5
M  V30 5 2 4 6
M  V30 6 1 4 7
M  V30 7 1 5 8
M  V30 8 1 6 9
M  V30 9 1 6 10
M  V30 10 2 7 11
M  V30 11 1 8 12
M  V30 12 3 9 13
M  V30 13 2 10 14
M  V30 14 1 12 15
M  V30 15 1 15 16
M  V30 16 1 15 17
M  V30 17 1 16 18
M  V30 18 1 17 19
M  V30 19 1 11 14
M  V30 20 1 18 19
M  V30 21 1 3 20
M  V30 22 1 5 21
M  V30 23 1 5 22
M  V30 24 1 7 23
M  V30 25 1 8 24
M  V30 26 1 8 25
M  V30 27 1 10 26
M  V30 28 1 11 27
M  V30 29 1 12 28
M  V30 30 1 12 29
M  V30 31 1 14 30
M  V30 32 1 15 31
M  V30 33 1 16 32
M  V30 34 1 16 33
M  V30 35 1 17 34
M  V30 36 1 17 35
M  V30 37 1 19 36
M  V30 38 1 19 37
M  V30 END BOND
M  V30 BEGIN COLLECTION
M  V30 MDLV30/STEABS ATOMS=(1 15)
M  V30 END COLLECTION
M  V30 END CTAB
M  END
>  <NO.>
4068

>  <Name>
indomethacin

>  <SMILES>
N#Cc1ccccc1C(=O)NCCC[C@@H]1CCOC1

>  <logBB>


>  <Class>
-1

>  <MW>
258.14

>  <nHBAcc>
3

>  <nHBDon>
1

>  <SLogP>
2.1

>  <TopoPSA>
62.12

>  <MMFF94 Energy>
17.997

$$$$
NC(=O)C[C@@H](c1ccc(O)cc1)c1oc(CN2CCOCC2)cc(=O)c1O
Actelion Java MolfileCreator 2.0

  0  0  0  0  0  0              0 V3000
M  V30 BEGIN CTAB
M  V30 COUNTS 49 51 0 0 0
M  V30 BEGIN ATOM
M  V30 1 O 4.4693 -1.1158 -1.1158 0
M  V30 2 C 3.3458 -1.0049 -0.6341 0
M  V30 3 C 2.1756 -1.6182 -1.3097 0
M  V30 4 C 3.0956 -0.258 0.6053 0
M  V30 5 O 2.3919 -2.2685 -2.5093 0
M  V30 6 C 0.9666 -1.5045 -0.735 0
M  V30 7 C 1.8411 -0.1852 1.0717 0
M  V30 8 O 0.7723 -0.8269 0.4639 0
M  V30 9 C -0.3 -2.1005 -1.3314 0 CFG=2
M  V30 10 C 1.4791 0.5709 2.3258 0
M  V30 11 C -1.1614 -0.9922 -1.9442 0
M  V30 12 C -1.0915 -2.9565 -0.3222 0
M  V30 13 N 1.149 1.985 2.0817 0
M  V30 14 C -1.0345 -0.7067 -3.3152 0
M  V30 15 C -2.0407 -0.21 -1.1765 0
M  V30 16 C -0.3812 -4.2358 0.0618 0
M  V30 17 C -0.0849 2.1405 1.2766 0
M  V30 18 C 0.9657 2.6917 3.369 0
M  V30 19 C -1.779 0.3164 -3.9071 0
M  V30 20 C -2.785 0.8126 -1.7681 0
M  V30 21 O 0.6989 -4.6074 -0.3756 0
M  V30 22 N -1.0587 -4.9949 0.9729 0
M  V30 23 C -0.4846 3.6175 1.1248 0
M  V30 24 C 0.5529 4.1561 3.1577 0
M  V30 25 C -2.6501 1.0667 -3.1263 0
M  V30 26 O -0.662 4.2417 2.4032 0
M  V30 27 O -3.3935 2.0772 -3.6602 0
M  V30 28 H 3.9381 0.2299 1.0758 0
M  V30 29 H 3.3644 -2.2458 -2.6334 0
M  V30 30 H -0.0286 -2.779 -2.1524 0
M  V30 31 H 0.6565 0.0551 2.8397 0
M  V30 32 H 2.3375 0.5205 3.0097 0
M  V30 33 H -2.0574 -3.2444 -0.7585 0
M  V30 34 H -1.3077 -2.403 0.6 0
M  V30 35 H -0.3423 -1.2804 -3.9301 0
M  V30 36 H -2.1477 -0.3743 -0.1078 0
M  V30 37 H 0.0595 1.732 0.2715 0
M  V30 38 H -0.9114 1.5976 1.7535 0
M  V30 39 H 0.1911 2.1887 3.9629 0
M  V30 40 H 1.8997 2.6706 3.9421 0
M  V30 41 H -1.6596 0.5124 -4.9678 0
M  V30 42 H -3.4641 1.4132 -1.1694 0
M  V30 43 H -0.6351 -5.8663 1.2651 0
M  V30 44 H -1.9587 -4.7378 1.3528 0
M  V30 45 H -1.4356 3.6895 0.587 0
M  V30 46 H 0.2651 4.1749 0.5504 0
M  V30 47 H 0.3743 4.6337 4.1265 0
M  V30 48 H 1.3402 4.7236 2.6469 0
M  V30 49 H -3.1918 2.1399 -4.6082 0
M  V30 END ATOM
M  V30 BEGIN BOND
M  V30 1 2 1 2
M  V30 2 1 2 3
M  V30 3 1 2 4
M  V30 4 1 3 5
M  V30 5 2 3 6
M  V30 6 2 4 7
M  V30 7 1 6 8
M  V30 8 1 6 9
M  V30 9 1 7 10
M  V30 10 1 9 11
M  V30 11 1 9 12
M  V30 12 1 10 13
M  V30 13 2 11 14
M  V30 14 1 11 15
M  V30 15 1 12 16
M  V30 16 1 13 17
M  V30 17 1 13 18
M  V30 18 1 14 19
M  V30 19 2 15 20
M  V30 20 2 16 21
M  V30 21 1 16 22
M  V30 22 1 17 23
M  V30 23 1 18 24
M  V30 24 2 19 25
M  V30 25 1 23 26
M  V30 26 1 25 27
M  V30 27 1 7 8
M  V30 28 1 20 25
M  V30 29 1 24 26
M  V30 30 1 4 28
M  V30 31 1 5 29
M  V30 32 1 9 30
M  V30 33 1 10 31
M  V30 34 1 10 32
M  V30 35 1 12 33
M  V30 36 1 12 34
M  V30 37 1 14 35
M  V30 38 1 15 36
M  V30 39 1 17 37
M  V30 40 1 17 38
M  V30 41 1 18 39
M  V30 42 1 18 40
M  V30 43 1 19 41
M  V30 44 1 20 42
M  V30 45 1 22 43
M  V30 46 1 22 44
M  V30 47 1 23 45
M  V30 48 1 23 46
M  V30 49 1 24 47
M  V30 50 1 24 48
M  V30 51 1 27 49
M  V30 END BOND
M  V30 BEGIN COLLECTION
M  V30 MDLV30/STEABS ATOMS=(1 9)
M  V30 END COLLECTION
M  V30 END CTAB
M  END
>  <NO.>
4069

>  <Name>
praziquantel

>  <SMILES>
NC(=O)C[C@@H](c1ccc(O)cc1)c1oc(CN2CCOCC2)cc(=O)c1O

>  <logBB>


>  <Class>
1

>  <MW>
374.15

>  <nHBAcc>
7

>  <nHBDon>
3

>  <SLogP>
0.89

>  <TopoPSA>
126.23

>  <MMFF94 Energy>
63.709

$$$$
NC(=O)C[C@@H](c1oc(CN2CCOCC2)cc(=O)c1O)c1ccnc2ccccc12
Actelion Java MolfileCreator 2.0

  0  0  0  0  0  0              0 V3000
M  V30 BEGIN CTAB
M  V30 COUNTS 53 56 0 0 0
M  V30 BEGIN ATOM
M  V30 1 O -0.3204 3.8508 -1.7635 0
M  V30 2 C 0.0326 2.693 -1.5586 0
M  V30 3 C -0.9794 1.623 -1.3709 0
M  V30 4 C 1.4464 2.3101 -1.4861 0
M  V30 5 O -2.3065 1.9883 -1.4757 0
M  V30 6 C -0.5593 0.3647 -1.1476 0
M  V30 7 C 1.7543 1.03 -1.2388 0
M  V30 8 O 0.7952 0.0418 -1.077 0
M  V30 9 C -1.4502 -0.8523 -0.9422 0 CFG=1
M  V30 10 C 3.1791 0.5378 -1.1727 0
M  V30 11 C -2.6807 -0.6179 -0.0533 0
M  V30 12 C -1.6746 -1.6862 -2.2258 0
M  V30 13 N 3.7605 0.6111 0.1779 0
M  V30 14 C -2.5725 -0.5421 1.3713 0
M  V30 15 C -3.948 -0.4498 -0.6245 0
M  V30 16 C -2.1013 -0.9299 -3.4662 0
M  V30 17 C 3.1365 -0.358 1.1059 0
M  V30 18 C 5.214 0.3364 0.1188 0
M  V30 19 C -3.767 -0.356 2.1115 0
M  V30 20 C -1.3558 -0.635 2.0968 0
M  V30 21 C -5.0409 -0.262 0.1988 0
M  V30 22 O -1.4552 -0.0252 -3.9804 0
M  V30 23 N -3.2524 -1.3716 -4.0505 0
M  V30 24 C 3.8217 -0.3423 2.4824 0
M  V30 25 C 5.8477 0.3404 1.5184 0
M  V30 26 N -4.9736 -0.2338 1.5412 0
M  V30 27 C -3.708 -0.2907 3.4971 0
M  V30 28 C -1.3227 -0.5623 3.49 0
M  V30 29 O 5.221 -0.628 2.3689 0
M  V30 30 C -2.5039 -0.3928 4.1933 0
M  V30 31 H 2.1845 3.0879 -1.6248 0
M  V30 32 H -2.2857 2.9485 -1.6751 0
M  V30 33 H -0.8513 -1.5569 -0.3446 0
M  V30 34 H 3.2366 -0.4822 -1.5759 0
M  V30 35 H 3.7788 1.1598 -1.8517 0
M  V30 36 H -0.7275 -2.1718 -2.5011 0
M  V30 37 H -2.3776 -2.5039 -2.0226 0
M  V30 38 H -4.1014 -0.422 -1.6948 0
M  V30 39 H 2.079 -0.1188 1.2568 0
M  V30 40 H 3.2025 -1.3712 0.6886 0
M  V30 41 H 5.3893 -0.6425 -0.3465 0
M  V30 42 H 5.713 1.097 -0.4924 0
M  V30 43 H -0.4058 -0.7548 1.5848 0
M  V30 44 H -6.0344 -0.1181 -0.2161 0
M  V30 45 H -3.5539 -0.9033 -4.896 0
M  V30 46 H -3.797 -2.15 -3.7071 0
M  V30 47 H 3.3786 -1.1106 3.1242 0
M  V30 48 H 3.6881 0.6249 2.982 0
M  V30 49 H 6.9081 0.0791 1.4455 0
M  V30 50 H 5.7801 1.331 1.9842 0
M  V30 51 H -4.6326 -0.1492 4.0527 0
M  V30 52 H -0.3764 -0.6338 4.0196 0
M  V30 53 H -2.4965 -0.3323 5.2782 0
M  V30 END ATOM
M  V30 BEGIN BOND
M  V30 1 2 1 2
M  V30 2 1 2 3
M  V30 3 1 2 4
M  V30 4 1 3 5
M  V30 5 2 3 6
M  V30 6 2 4 7
M  V30 7 1 6 8
M  V30 8 1 6 9
M  V30 9 1 7 10
M  V30 10 1 9 11
M  V30 11 1 9 12
M  V30 12 1 10 13
M  V30 13 1 11 14
M  V30 14 2 11 15
M  V30 15 1 12 16
M  V30 16 1 13 17
M  V30 17 1 13 18
M  V30 18 1 14 19
M  V30 19 2 14 20
M  V30 20 1 15 21
M  V30 21 2 16 22
M  V30 22 1 16 23
M  V30 23 1 17 24
M  V30 24 1 18 25
M  V30 25 1 19 26
M  V30 26 2 19 27
M  V30 27 1 20 28
M  V30 28 1 24 29
M  V30 29 1 27 30
M  V30 30 1 7 8
M  V30 31 2 21 26
M  V30 32 1 25 29
M  V30 33 2 28 30
M  V30 34 1 4 31
M  V30 35 1 5 32
M  V30 36 1 9 33
M  V30 37 1 10 34
M  V30 38 1 10 35
M  V30 39 1 12 36
M  V30 40 1 12 37
M  V30 41 1 15 38
M  V30 42 1 17 39
M  V30 43 1 17 40
M  V30 44 1 18 41
M  V30 45 1 18 42
M  V30 46 1 20 43
M  V30 47 1 21 44
M  V30 48 1 23 45
M  V30 49 1 23 46
M  V30 50 1 24 47
M  V30 51 1 24 48
M  V30 52 1 25 49
M  V30 53 1 25 50
M  V30 54 1 27 51
M  V30 55 1 28 52
M  V30 56 1 30 53
M  V30 END BOND
M  V30 BEGIN COLLECTION
M  V30 MDLV30/STEABS ATOMS=(1 9)
M  V30 END COLLECTION
M  V30 END CTAB
M  END
>  <NO.>
4070

>  <Name>
ketorolac

>  <SMILES>
NC(=O)C[C@@H](c1oc(CN2CCOCC2)cc(=O)c1O)c1ccnc2ccccc12

>  <logBB>


>  <Class>
-1

>  <MW>
409.16

>  <nHBAcc>
7

>  <nHBDon>
2

>  <SLogP>
1.73

>  <TopoPSA>
118.89

>  <MMFF94 Energy>
101.26

$$$$
NC(=S)[C@@H]1[C@@H](c2ccccc2)[C@@H]1S(=O)(=O)c1ccc(Cl)cc1
Actelion Java MolfileCreator 2.0

  0  0  0  0  0  0              0 V3000
M  V30 BEGIN CTAB
M  V30 COUNTS 36 38 0 0 0
M  V30 BEGIN ATOM
M  V30 1 Cl -5.9217 -0.6659 -1.9988 0
M  V30 2 C -4.5162 -0.8776 -1.0303 0
M  V30 3 C -3.9592 0.2195 -0.3712 0
M  V30 4 C -3.9445 -2.1449 -0.9079 0
M  V30 5 C -2.8172 0.0521 0.4141 0
M  V30 6 C -2.802 -2.3202 -0.1243 0
M  V30 7 C -2.2388 -1.2167 0.5234 0
M  V30 8 S -0.7862 -1.4273 1.5269 0
M  V30 9 O -0.859 -0.4439 2.5923 0
M  V30 10 O -0.6429 -2.8406 1.8043 0
M  V30 11 C 0.5437 -0.9774 0.3965 0 CFG=1
M  V30 12 C 1.1803 0.3646 0.6811 0 CFG=1
M  V30 13 C 1.9455 -0.9235 0.9447 0 CFG=1
M  V30 14 C 1.5755 1.2612 -0.4722 0
M  V30 15 C 2.3276 -1.3743 2.3029 0
M  V30 16 C 0.6612 1.597 -1.4856 0
M  V30 17 C 2.9017 1.6973 -0.6311 0
M  V30 18 S 3.5212 -2.5221 2.4191 0
M  V30 19 N 1.7422 -0.8509 3.4111 0
M  V30 20 C 1.0437 2.3677 -2.5867 0
M  V30 21 C 3.2901 2.4679 -1.7298 0
M  V30 22 C 2.3589 2.8053 -2.7067 0
M  V30 23 H -4.4152 1.2028 -0.46 0
M  V30 24 H -4.3874 -2.999 -1.4148 0
M  V30 25 H -2.3952 0.9075 0.9379 0
M  V30 26 H -2.3671 -3.3128 -0.0231 0
M  V30 27 H 0.4383 -1.324 -0.6222 0
M  V30 28 H 0.851 0.9231 1.5523 0
M  V30 29 H 2.7109 -1.1461 0.1974 0
M  V30 30 H -0.3713 1.2627 -1.419 0
M  V30 31 H 3.6483 1.4384 0.1178 0
M  V30 32 H 0.9351 -0.2317 3.3947 0
M  V30 33 H 2.0245 -1.1931 4.3223 0
M  V30 34 H 0.3148 2.6229 -3.3517 0
M  V30 35 H 4.321 2.7999 -1.8221 0
M  V30 36 H 2.6594 3.4039 -3.5626 0
M  V30 END ATOM
M  V30 BEGIN BOND
M  V30 1 1 1 2
M  V30 2 2 2 3
M  V30 3 1 2 4
M  V30 4 1 3 5
M  V30 5 2 4 6
M  V30 6 2 5 7
M  V30 7 1 7 8
M  V30 8 2 8 9
M  V30 9 2 8 10
M  V30 10 1 8 11
M  V30 11 1 11 12
M  V30 12 1 11 13
M  V30 13 1 12 14
M  V30 14 1 13 15
M  V30 15 2 14 16
M  V30 16 1 14 17
M  V30 17 2 15 18
M  V30 18 1 15 19
M  V30 19 1 16 20
M  V30 20 2 17 21
M  V30 21 2 20 22
M  V30 22 1 6 7
M  V30 23 1 12 13
M  V30 24 1 21 22
M  V30 25 1 3 23
M  V30 26 1 4 24
M  V30 27 1 5 25
M  V30 28 1 6 26
M  V30 29 1 11 27
M  V30 30 1 12 28
M  V30 31 1 13 29
M  V30 32 1 16 30
M  V30 33 1 17 31
M  V30 34 1 19 32
M  V30 35 1 19 33
M  V30 36 1 20 34
M  V30 37 1 21 35
M  V30 38 1 22 36
M  V30 END BOND
M  V30 BEGIN COLLECTION
M  V30 MDLV30/STEABS ATOMS=(3 11 12 13)
M  V30 END COLLECTION
M  V30 END CTAB
M  END
>  <NO.>
4073

>  <Name>
chlorpropamide

>  <SMILES>
NC(=S)[C@@H]1[C@@H](c2ccccc2)[C@@H]1S(=O)(=O)c1ccc(Cl)cc1

>  <logBB>


>  <Class>
-1

>  <MW>
351.02

>  <nHBAcc>
3

>  <nHBDon>
1

>  <SLogP>
3.18

>  <TopoPSA>
60.16

>  <MMFF94 Energy>
26.701

$$$$
NC(=S)[C@H]1[C@@H](S(=O)(=O)c2ccc(Cl)cc2)[C@H]1c1ccccc1
Actelion Java MolfileCreator 2.0

  0  0  0  0  0  0              0 V3000
M  V30 BEGIN CTAB
M  V30 COUNTS 36 38 0 0 0
M  V30 BEGIN ATOM
M  V30 1 Cl -2.4153 5.8374 2.332 0
M  V30 2 C -1.555 4.4263 1.8566 0
M  V30 3 C -0.6222 4.5015 0.8208 0
M  V30 4 C -1.7923 3.2175 2.5118 0
M  V30 5 C 0.076 3.3575 0.4281 0
M  V30 6 C -1.0971 2.0701 2.1253 0
M  V30 7 C -0.1774 2.1427 1.0738 0
M  V30 8 S 0.7133 0.6826 0.5719 0
M  V30 9 O 2.1135 1.0425 0.6892 0
M  V30 10 O 0.1512 -0.436 1.2948 0
M  V30 11 C 0.3879 0.5228 -1.1988 0 CFG=1
M  V30 12 C 0.6215 -0.8135 -1.8475 0 CFG=2
M  V30 13 C -0.7955 -0.2926 -1.6778 0 CFG=1
M  V30 14 C 1.223 -2.0609 -1.2429 0
M  V30 15 C -1.8915 -0.6525 -0.7595 0
M  V30 16 C 0.6712 -3.3277 -1.5035 0
M  V30 17 C 2.3607 -2.0411 -0.4183 0
M  V30 18 S -2.4434 -2.2005 -0.5995 0
M  V30 19 N -2.5831 0.3852 -0.2072 0
M  V30 20 C 1.1942 -4.5002 -0.9474 0
M  V30 21 C 2.8928 -3.2074 0.1442 0
M  V30 22 C 2.3039 -4.4383 -0.1152 0
M  V30 23 H -0.4265 5.4511 0.3278 0
M  V30 24 H -2.5091 3.1644 3.3281 0
M  V30 25 H 0.8261 3.4315 -0.3556 0
M  V30 26 H -1.2768 1.1304 2.6457 0
M  V30 27 H 0.6673 1.39 -1.7824 0
M  V30 28 H 0.9802 -0.7194 -2.8778 0
M  V30 29 H -1.2237 0.0347 -2.6281 0
M  V30 30 H -0.1842 -3.4155 -2.1699 0
M  V30 31 H 2.8793 -1.1081 -0.2163 0
M  V30 32 H -2.3955 1.3619 -0.3854 0
M  V30 33 H -3.3782 0.1639 0.3831 0
M  V30 34 H 0.7273 -5.4567 -1.1654 0
M  V30 35 H 3.7685 -3.1458 0.7849 0
M  V30 36 H 2.7107 -5.344 0.3246 0
M  V30 END ATOM
M  V30 BEGIN BOND
M  V30 1 1 1 2
M  V30 2 2 2 3
M  V30 3 1 2 4
M  V30 4 1 3 5
M  V30 5 2 4 6
M  V30 6 2 5 7
M  V30 7 1 7 8
M  V30 8 2 8 9
M  V30 9 2 8 10
M  V30 10 1 8 11
M  V30 11 1 11 12
M  V30 12 1 11 13
M  V30 13 1 12 14
M  V30 14 1 13 15
M  V30 15 2 14 16
M  V30 16 1 14 17
M  V30 17 2 15 18
M  V30 18 1 15 19
M  V30 19 1 16 20
M  V30 20 2 17 21
M  V30 21 2 20 22
M  V30 22 1 6 7
M  V30 23 1 12 13
M  V30 24 1 21 22
M  V30 25 1 3 23
M  V30 26 1 4 24
M  V30 27 1 5 25
M  V30 28 1 6 26
M  V30 29 1 11 27
M  V30 30 1 12 28
M  V30 31 1 13 29
M  V30 32 1 16 30
M  V30 33 1 17 31
M  V30 34 1 19 32
M  V30 35 1 19 33
M  V30 36 1 20 34
M  V30 37 1 21 35
M  V30 38 1 22 36
M  V30 END BOND
M  V30 BEGIN COLLECTION
M  V30 MDLV30/STEABS ATOMS=(3 11 12 13)
M  V30 END COLLECTION
M  V30 END CTAB
M  END
>  <NO.>
4074

>  <Name>
chlorothiazide

>  <SMILES>
NC(=S)[C@H]1[C@@H](S(=O)(=O)c2ccc(Cl)cc2)[C@H]1c1ccccc1

>  <logBB>


>  <Class>
-1

>  <MW>
351.02

>  <nHBAcc>
3

>  <nHBDon>
1

>  <SLogP>
3.18

>  <TopoPSA>
60.16

>  <MMFF94 Energy>
46.969

$$$$
NC[C@@H]1[C@@H](c2ccc3c(c2)OCO3)[C@@H]1S(=O)(=O)c1ccccc1
Actelion Java MolfileCreator 2.0

  0  0  0  0  0  0              0 V3000
M  V30 BEGIN CTAB
M  V30 COUNTS 40 43 0 0 0
M  V30 BEGIN ATOM
M  V30 1 S 1.8798 -1.6345 1.0621 0
M  V30 2 O 2.9286 -0.6352 1.0125 0
M  V30 3 O 2.1642 -3.0368 0.832 0
M  V30 4 C 1.0731 -1.4838 2.6351 0
M  V30 5 C 0.5737 -1.1831 -0.1027 0 CFG=1
M  V30 6 C 1.0283 -0.2356 3.2635 0
M  V30 7 C 0.51 -2.6112 3.2381 0
M  V30 8 C 0.7786 0.1342 -0.8181 0 CFG=1
M  V30 9 C 0.9398 -1.1759 -1.5686 0 CFG=1
M  V30 10 C 0.3924 -0.114 4.4985 0
M  V30 11 C -0.1239 -2.4801 4.4734 0
M  V30 12 C -0.4132 1.027 -1.0821 0
M  V30 13 C 2.2728 -1.5959 -2.0963 0
M  V30 14 C -0.1849 -1.2337 5.1 0
M  V30 15 C -0.8177 1.3327 -2.395 0
M  V30 16 C -1.2231 1.4888 -0.0134 0
M  V30 17 N 2.3981 -1.0332 -3.434 0
M  V30 18 C -1.951 2.0964 -2.5875 0
M  V30 19 C -2.3696 2.2619 -0.2322 0
M  V30 20 O -2.4561 2.4799 -3.7904 0
M  V30 21 C -2.705 2.5502 -1.5342 0
M  V30 22 C -3.6134 3.2322 -3.3709 0
M  V30 23 O -3.7788 3.2789 -1.9382 0
M  V30 24 H -0.4252 -1.5121 0.1481 0
M  V30 25 H 1.4891 0.6373 2.8065 0
M  V30 26 H 0.5625 -3.5874 2.7611 0
M  V30 27 H 1.6992 0.6841 -0.6316 0
M  V30 28 H 0.1472 -1.4964 -2.2403 0
M  V30 29 H 0.3533 0.8509 4.9986 0
M  V30 30 H -0.5655 -3.3506 4.953 0
M  V30 31 H 3.1111 -1.2486 -1.4878 0
M  V30 32 H 2.3185 -2.6879 -2.1534 0
M  V30 33 H -0.6757 -1.1371 6.0659 0
M  V30 34 H -0.2503 0.9769 -3.2497 0
M  V30 35 H -0.9478 1.2458 1.0111 0
M  V30 36 H 2.4776 -0.0194 -3.3613 0
M  V30 37 H 3.2792 -1.3485 -3.8388 0
M  V30 38 H -2.9755 2.6177 0.5932 0
M  V30 39 H -3.5203 4.2577 -3.7465 0
M  V30 40 H -4.507 2.776 -3.8121 0
M  V30 END ATOM
M  V30 BEGIN BOND
M  V30 1 2 1 2
M  V30 2 2 1 3
M  V30 3 1 1 4
M  V30 4 1 1 5
M  V30 5 2 4 6
M  V30 6 1 4 7
M  V30 7 1 5 8
M  V30 8 1 5 9
M  V30 9 1 6 10
M  V30 10 2 7 11
M  V30 11 1 8 12
M  V30 12 1 9 13
M  V30 13 2 10 14
M  V30 14 2 12 15
M  V30 15 1 12 16
M  V30 16 1 13 17
M  V30 17 1 15 18
M  V30 18 2 16 19
M  V30 19 1 18 20
M  V30 20 2 18 21
M  V30 21 1 20 22
M  V30 22 1 21 23
M  V30 23 1 8 9
M  V30 24 1 11 14
M  V30 25 1 19 21
M  V30 26 1 22 23
M  V30 27 1 5 24
M  V30 28 1 6 25
M  V30 29 1 7 26
M  V30 30 1 8 27
M  V30 31 1 9 28
M  V30 32 1 10 29
M  V30 33 1 11 30
M  V30 34 1 13 31
M  V30 35 1 13 32
M  V30 36 1 14 33
M  V30 37 1 15 34
M  V30 38 1 16 35
M  V30 39 1 17 36
M  V30 40 1 17 37
M  V30 41 1 19 38
M  V30 42 1 22 39
M  V30 43 1 22 40
M  V30 END BOND
M  V30 BEGIN COLLECTION
M  V30 MDLV30/STEABS ATOMS=(3 5 8 9)
M  V30 END COLLECTION
M  V30 END CTAB
M  END
>  <NO.>
4075

>  <Name>
tetrabenzine

>  <SMILES>
NC[C@@H]1[C@@H](c2ccc3c(c2)OCO3)[C@@H]1S(=O)(=O)c1ccccc1

>  <logBB>


>  <Class>
1

>  <MW>
331.09

>  <nHBAcc>
5

>  <nHBDon>
1

>  <SLogP>
1.93

>  <TopoPSA>
78.62

>  <MMFF94 Energy>
51.376

$$$$
NC[C@]1(CO)[C@H](c2ccccc2)[C@@H]1S(=O)(=O)c1ccc(Cl)cc1
Actelion Java MolfileCreator 2.0

  0  0  0  0  0  0              0 V3000
M  V30 BEGIN CTAB
M  V30 COUNTS 41 43 0 0 0
M  V30 BEGIN ATOM
M  V30 1 Cl 3.6064 4.2632 -3.7706 0
M  V30 2 C 2.5044 3.085 -3.1739 0
M  V30 3 C 1.1338 3.3485 -3.1923 0
M  V30 4 C 2.988 1.8726 -2.6802 0
M  V30 5 C 0.2364 2.396 -2.7055 0
M  V30 6 C 2.0963 0.915 -2.1926 0
M  V30 7 C 0.7252 1.189 -2.1935 0
M  V30 8 S -0.4274 -0.0258 -1.578 0
M  V30 9 O -1.5898 0.05 -2.4429 0
M  V30 10 O 0.3066 -1.2594 -1.4163 0
M  V30 11 C -0.9407 0.6825 -0.0066 0 CFG=2
M  V30 12 C -0.0697 0.5266 1.234 0 CFG=2
M  V30 13 C -1.4329 -0.1763 1.1238 0 CFG=2
M  V30 14 C 0.0177 1.828 2.0273 0
M  V30 15 C 1.2289 -0.2621 1.2327 0
M  V30 16 C -1.6857 -1.6619 1.005 0
M  V30 17 O 0.1471 1.5583 3.4159 0
M  V30 18 N 1.6033 -0.6662 2.582 0
M  V30 19 C -2.5134 -2.1827 -0.007 0
M  V30 20 C -1.0754 -2.5937 1.8588 0
M  V30 21 C -2.7229 -3.5572 -0.1559 0
M  V30 22 C -1.2798 -3.97 1.7187 0
M  V30 23 C -2.1038 -4.4521 0.7085 0
M  V30 24 H 0.7605 4.2876 -3.5938 0
M  V30 25 H 4.0553 1.6646 -2.6815 0
M  V30 26 H -0.8326 2.5952 -2.7429 0
M  V30 27 H 2.4776 -0.0361 -1.8261 0
M  V30 28 H -1.4878 1.6083 -0.1428 0
M  V30 29 H -2.2061 0.2867 1.7417 0
M  V30 30 H 0.8835 2.4139 1.7007 0
M  V30 31 H -0.8785 2.4439 1.8928 0
M  V30 32 H 2.0226 0.3659 0.8147 0
M  V30 33 H 1.1864 -1.1759 0.6458 0
M  V30 34 H 0.0375 2.4038 3.8845 0
M  V30 35 H 1.3931 0.0927 3.2377 0
M  V30 36 H 2.6027 -0.8443 2.63 0
M  V30 37 H -3.0162 -1.509 -0.6982 0
M  V30 38 H -0.4326 -2.2458 2.6643 0
M  V30 39 H -3.3644 -3.9232 -0.9528 0
M  V30 40 H -0.7878 -4.6592 2.3992 0
M  V30 41 H -2.2589 -5.5207 0.5929 0
M  V30 END ATOM
M  V30 BEGIN BOND
M  V30 1 1 1 2
M  V30 2 2 2 3
M  V30 3 1 2 4
M  V30 4 1 3 5
M  V30 5 2 4 6
M  V30 6 2 5 7
M  V30 7 1 7 8
M  V30 8 2 8 9
M  V30 9 2 8 10
M  V30 10 1 8 11
M  V30 11 1 11 12
M  V30 12 1 11 13
M  V30 13 1 12 14
M  V30 14 1 12 15
M  V30 15 1 13 16
M  V30 16 1 14 17
M  V30 17 1 15 18
M  V30 18 2 16 19
M  V30 19 1 16 20
M  V30 20 1 19 21
M  V30 21 2 20 22
M  V30 22 2 21 23
M  V30 23 1 6 7
M  V30 24 1 12 13
M  V30 25 1 22 23
M  V30 26 1 3 24
M  V30 27 1 4 25
M  V30 28 1 5 26
M  V30 29 1 6 27
M  V30 30 1 11 28
M  V30 31 1 13 29
M  V30 32 1 14 30
M  V30 33 1 14 31
M  V30 34 1 15 32
M  V30 35 1 15 33
M  V30 36 1 17 34
M  V30 37 1 18 35
M  V30 38 1 18 36
M  V30 39 1 19 37
M  V30 40 1 20 38
M  V30 41 1 21 39
M  V30 42 1 22 40
M  V30 43 1 23 41
M  V30 END BOND
M  V30 BEGIN COLLECTION
M  V30 MDLV30/STEABS ATOMS=(3 11 12 13)
M  V30 END COLLECTION
M  V30 END CTAB
M  END
>  <NO.>
4076

>  <Name>
bromocriptine

>  <SMILES>
NC[C@]1(CO)[C@H](c2ccccc2)[C@@H]1S(=O)(=O)c1ccc(Cl)cc1

>  <logBB>


>  <Class>
-1

>  <MW>
351.07

>  <nHBAcc>
4

>  <nHBDon>
2

>  <SLogP>
2.22

>  <TopoPSA>
80.39

>  <MMFF94 Energy>
62.985

$$$$
N[C@]1(CO)[C@@H](S(=O)(=O)c2ccc(Cl)cc2)[C@@H]1c1ccccc1
Actelion Java MolfileCreator 2.0

  0  0  0  0  0  0              0 V3000
M  V30 BEGIN CTAB
M  V30 COUNTS 38 40 0 0 0
M  V30 BEGIN ATOM
M  V30 1 Cl 3.13 -2.9651 5.028 0
M  V30 2 C 2.8457 -2.304 3.4654 0
M  V30 3 C 2.3074 -1.0217 3.3445 0
M  V30 4 C 3.1571 -3.0541 2.3299 0
M  V30 5 C 2.0739 -0.483 2.0778 0
M  V30 6 C 2.9263 -2.5222 1.0593 0
M  V30 7 C 2.3796 -1.2414 0.9423 0
M  V30 8 S 2.0705 -0.5452 -0.6618 0
M  V30 9 O 2.6097 0.799 -0.6481 0
M  V30 10 O 2.4778 -1.514 -1.66 0
M  V30 11 C 0.2684 -0.4754 -0.7369 0 CFG=2
M  V30 12 C -0.335 0.0297 -2.0356 0 CFG=2
M  V30 13 C -0.3152 0.9123 -0.7856 0 CFG=1
M  V30 14 N -1.6276 -0.6205 -2.4253 0
M  V30 15 C 0.5302 0.4914 -3.2047 0
M  V30 16 C -1.6077 1.298 -0.0841 0
M  V30 17 O -0.2664 1.2739 -4.0931 0
M  V30 18 C -2.0866 2.6168 -0.205 0
M  V30 19 C -2.2939 0.4597 0.8118 0
M  V30 20 C -3.2211 3.0591 0.4817 0
M  V30 21 C -3.431 0.8942 1.5022 0
M  V30 22 C -3.8967 2.1936 1.3338 0
M  V30 23 H 2.0742 -0.4373 4.2316 0
M  V30 24 H 3.5823 -4.0501 2.4288 0
M  V30 25 H 1.6669 0.5224 1.9865 0
M  V30 26 H 3.177 -3.1086 0.1775 0
M  V30 27 H -0.2473 -1.2862 -0.2461 0
M  V30 28 H 0.3892 1.7438 -0.8334 0
M  V30 29 H -2.3347 0.0908 -2.6193 0
M  V30 30 H -1.5276 -1.2025 -3.2554 0
M  V30 31 H 0.9174 -0.3697 -3.7586 0
M  V30 32 H 1.3722 1.1159 -2.8983 0
M  V30 33 H -1.0223 0.7202 -4.3459 0
M  V30 34 H -1.5675 3.3161 -0.8594 0
M  V30 35 H -1.959 -0.56 0.9773 0
M  V30 36 H -3.5697 4.0805 0.3521 0
M  V30 37 H -3.9487 0.2146 2.1745 0
M  V30 38 H -4.7788 2.5325 1.8706 0
M  V30 END ATOM
M  V30 BEGIN BOND
M  V30 1 1 1 2
M  V30 2 2 2 3
M  V30 3 1 2 4
M  V30 4 1 3 5
M  V30 5 2 4 6
M  V30 6 2 5 7
M  V30 7 1 7 8
M  V30 8 2 8 9
M  V30 9 2 8 10
M  V30 10 1 8 11
M  V30 11 1 11 12
M  V30 12 1 11 13
M  V30 13 1 12 14
M  V30 14 1 12 15
M  V30 15 1 13 16
M  V30 16 1 15 17
M  V30 17 2 16 18
M  V30 18 1 16 19
M  V30 19 1 18 20
M  V30 20 2 19 21
M  V30 21 2 20 22
M  V30 22 1 6 7
M  V30 23 1 12 13
M  V30 24 1 21 22
M  V30 25 1 3 23
M  V30 26 1 4 24
M  V30 27 1 5 25
M  V30 28 1 6 26
M  V30 29 1 11 27
M  V30 30 1 13 28
M  V30 31 1 14 29
M  V30 32 1 14 30
M  V30 33 1 15 31
M  V30 34 1 15 32
M  V30 35 1 17 33
M  V30 36 1 18 34
M  V30 37 1 19 35
M  V30 38 1 20 36
M  V30 39 1 21 37
M  V30 40 1 22 38
M  V30 END BOND
M  V30 BEGIN COLLECTION
M  V30 MDLV30/STEABS ATOMS=(3 11 12 13)
M  V30 END COLLECTION
M  V30 END CTAB
M  END
>  <NO.>
4077

>  <Name>
carbidopa

>  <SMILES>
N[C@]1(CO)[C@@H](S(=O)(=O)c2ccc(Cl)cc2)[C@@H]1c1ccccc1

>  <logBB>


>  <Class>
-1

>  <MW>
337.05

>  <nHBAcc>
4

>  <nHBDon>
2

>  <SLogP>
1.97

>  <TopoPSA>
80.39

>  <MMFF94 Energy>
75.168

$$$$
Nc1nc(OC(C(F)(F)F)C(F)(F)F)ccc1[N+](=O)[O-]
Actelion Java MolfileCreator 2.0

  0  0  0  0  0  0              0 V3000
M  V30 BEGIN CTAB
M  V30 COUNTS 25 25 0 0 0
M  V30 BEGIN ATOM
M  V30 1 F -0.9031 -1.7246 1.6424 0
M  V30 2 C -1.0174 -0.7353 2.5599 0
M  V30 3 F -0.1386 -1.0221 3.5458 0
M  V30 4 F -2.261 -0.846 3.0807 0
M  V30 5 C -0.7833 0.6277 1.9589 0
M  V30 6 O 0.5472 0.7607 1.4086 0
M  V30 7 C -0.943 1.6174 3.0831 0
M  V30 8 C 0.6702 0.339 0.105 0
M  V30 9 F -0.0567 1.4313 4.0832 0
M  V30 10 F -0.7599 2.8825 2.6251 0
M  V30 11 F -2.1829 1.5847 3.6191 0
M  V30 12 N -0.4266 -0.0733 -0.5639 0
M  V30 13 C 1.9403 0.3821 -0.4419 0
M  V30 14 C -0.2767 -0.4928 -1.8413 0
M  V30 15 C 2.0978 -0.0322 -1.7586 0
M  V30 16 N -1.4567 -0.8357 -2.4651 0
M  V30 17 C 0.9711 -0.4739 -2.4629 0
M  V30 18 N 1.1297 -0.9142 -3.8377 0 CHG=1
M  V30 19 O 2.0118 -0.3627 -4.5117 0
M  V30 20 O 0.3993 -1.8304 -4.245 0 CHG=-1
M  V30 21 H -1.5549 0.8673 1.2176 0
M  V30 22 H 2.7859 0.7311 0.1416 0
M  V30 23 H 3.0823 -0.0089 -2.2199 0
M  V30 24 H -1.4323 -1.5462 -3.1914 0
M  V30 25 H -2.2796 -0.7995 -1.8777 0
M  V30 END ATOM
M  V30 BEGIN BOND
M  V30 1 1 1 2
M  V30 2 1 2 3
M  V30 3 1 2 4
M  V30 4 1 2 5
M  V30 5 1 5 6
M  V30 6 1 5 7
M  V30 7 1 6 8
M  V30 8 1 7 9
M  V30 9 1 7 10
M  V30 10 1 7 11
M  V30 11 2 8 12
M  V30 12 1 8 13
M  V30 13 1 12 14
M  V30 14 2 13 15
M  V30 15 1 14 16
M  V30 16 2 14 17
M  V30 17 1 17 18
M  V30 18 2 18 19
M  V30 19 1 18 20
M  V30 20 1 15 17
M  V30 21 1 5 21
M  V30 22 1 13 22
M  V30 23 1 15 23
M  V30 24 1 16 24
M  V30 25 1 16 25
M  V30 END BOND
M  V30 END CTAB
M  END
>  <NO.>
4078

>  <Name>
thioguanine

>  <SMILES>
Nc1nc(OC(C(F)(F)F)C(F)(F)F)ccc1[N+](=O)[O-]

>  <logBB>


>  <Class>
-1

>  <MW>
305.02

>  <nHBAcc>
5

>  <nHBDon>
1

>  <SLogP>
2.44

>  <TopoPSA>
91.28

>  <MMFF94 Energy>
-12.448

$$$$
O=C(/C(=C/c1ccco1)c1ccccc1)N1CCN(S(=O)(=O)c2ccccc2)CC1
Actelion Java MolfileCreator 2.0

  0  0  0  0  0  0              0 V3000
M  V30 BEGIN CTAB
M  V30 COUNTS 52 55 0 0 0
M  V30 BEGIN ATOM
M  V30 1 S -0.8111 -4.142 -1.6227 0
M  V30 2 O -2.2288 -4.4295 -1.6873 0
M  V30 3 O 0.1706 -5.1058 -2.073 0
M  V30 4 N -0.5353 -2.6896 -2.4516 0
M  V30 5 C -0.4287 -3.7341 0.0693 0
M  V30 6 C -1.4624 -1.552 -2.2022 0
M  V30 7 C 0.8861 -2.3115 -2.6996 0
M  V30 8 C 0.8699 -3.9209 0.5526 0
M  V30 9 C -1.4458 -3.2864 0.9195 0
M  V30 10 C -0.772 -0.4055 -1.4515 0
M  V30 11 C 1.0243 -0.8428 -3.1172 0
M  V30 12 C 1.1614 -3.6073 1.8801 0
M  V30 13 C -1.1466 -2.9753 2.2458 0
M  V30 14 N 0.4519 0.0594 -2.1143 0
M  V30 15 C 0.1558 -3.1301 2.7224 0
M  V30 16 C 1.0749 1.2707 -1.8703 0
M  V30 17 O 2.0421 1.6686 -2.518 0
M  V30 18 C 0.5324 2.1219 -0.759 0
M  V30 19 C 0.6133 1.6434 0.636 0
M  V30 20 C 0.0604 3.3066 -1.1954 0
M  V30 21 C 1.8326 1.1661 1.1372 0
M  V30 22 C -0.5178 1.6081 1.4662 0
M  V30 23 C -0.4298 4.3631 -0.3798 0
M  V30 24 C 1.922 0.6784 2.4428 0
M  V30 25 C -0.4266 1.1215 2.772 0
M  V30 26 O -1.4745 5.1633 -0.7925 0
M  V30 27 C -0.0104 4.8454 0.8565 0
M  V30 28 C 0.7933 0.6584 3.2596 0
M  V30 29 C -1.7137 6.0909 0.1644 0
M  V30 30 C -0.8376 5.9388 1.2067 0
M  V30 31 H -2.3512 -1.8691 -1.6489 0
M  V30 32 H -1.8182 -1.1992 -3.1781 0
M  V30 33 H 1.2851 -2.9513 -3.4938 0
M  V30 34 H 1.4802 -2.4704 -1.7948 0
M  V30 35 H 1.6541 -4.3102 -0.0925 0
M  V30 36 H -2.4675 -3.1833 0.561 0
M  V30 37 H -0.4818 -0.7444 -0.4522 0
M  V30 38 H -1.4659 0.4337 -1.3399 0
M  V30 39 H 0.4891 -0.6586 -4.0565 0
M  V30 40 H 2.0797 -0.606 -3.2889 0
M  V30 41 H 2.1705 -3.7422 2.2619 0
M  V30 42 H -1.9292 -2.6204 2.9122 0
M  V30 43 H 0.386 -2.8896 3.7576 0
M  V30 44 H 0.0376 3.5096 -2.265 0
M  V30 45 H 2.7272 1.1769 0.5162 0
M  V30 46 H -1.4812 1.9609 1.1031 0
M  V30 47 H 2.8743 0.3158 2.8215 0
M  V30 48 H -1.308 1.1057 3.4081 0
M  V30 49 H 0.8133 4.4526 1.4376 0
M  V30 50 H 0.8651 0.2811 4.2765 0
M  V30 51 H -2.5208 6.7796 -0.0429 0
M  V30 52 H -0.79 6.5449 2.1001 0
M  V30 END ATOM
M  V30 BEGIN BOND
M  V30 1 2 1 2
M  V30 2 2 1 3
M  V30 3 1 1 4
M  V30 4 1 1 5
M  V30 5 1 4 6
M  V30 6 1 4 7
M  V30 7 2 5 8
M  V30 8 1 5 9
M  V30 9 1 6 10
M  V30 10 1 7 11
M  V30 11 1 8 12
M  V30 12 2 9 13
M  V30 13 1 10 14
M  V30 14 2 12 15
M  V30 15 1 14 16
M  V30 16 2 16 17
M  V30 17 1 16 18
M  V30 18 1 18 19
M  V30 19 2 18 20
M  V30 20 2 19 21
M  V30 21 1 19 22
M  V30 22 1 20 23
M  V30 23 1 21 24
M  V30 24 2 22 25
M  V30 25 1 23 26
M  V30 26 2 23 27
M  V30 27 2 24 28
M  V30 28 1 26 29
M  V30 29 1 27 30
M  V30 30 1 11 14
M  V30 31 1 13 15
M  V30 32 1 25 28
M  V30 33 2 29 30
M  V30 34 1 6 31
M  V30 35 1 6 32
M  V30 36 1 7 33
M  V30 37 1 7 34
M  V30 38 1 8 35
M  V30 39 1 9 36
M  V30 40 1 10 37
M  V30 41 1 10 38
M  V30 42 1 11 39
M  V30 43 1 11 40
M  V30 44 1 12 41
M  V30 45 1 13 42
M  V30 46 1 15 43
M  V30 47 1 20 44
M  V30 48 1 21 45
M  V30 49 1 22 46
M  V30 50 1 24 47
M  V30 51 1 25 48
M  V30 52 1 27 49
M  V30 53 1 28 50
M  V30 54 1 29 51
M  V30 55 1 30 52
M  V30 END BOND
M  V30 END CTAB
M  END
>  <NO.>
4079

>  <Name>
mefloquine

>  <SMILES>
O=C(/C(=C/c1ccco1)c1ccccc1)N1CCN(S(=O)(=O)c2ccccc2)CC1

>  <logBB>


>  <Class>
1

>  <MW>
422.13

>  <nHBAcc>
4

>  <nHBDon>
0

>  <SLogP>
3.35

>  <TopoPSA>
70.83

>  <MMFF94 Energy>
45.045

$$$$
O=C(/C=C\c1cccc2cccnc12)N(Cc1ccco1)C[C@@H]1CCCO1
Actelion Java MolfileCreator 2.0

  0  0  0  0  0  0              0 V3000
M  V30 BEGIN CTAB
M  V30 COUNTS 49 52 0 0 0
M  V30 BEGIN ATOM
M  V30 1 O -0.1597 -1.9989 -1.039 0
M  V30 2 C -0.0176 -0.8362 -0.6691 0
M  V30 3 N 1.214 -0.2759 -0.3567 0
M  V30 4 C -1.2027 0.0406 -0.5259 0
M  V30 5 C 2.3898 -1.1369 -0.5144 0
M  V30 6 C 1.3898 1.0431 0.2827 0
M  V30 7 C -2.2761 -0.231 0.2336 0
M  V30 8 C 3.5428 -0.4293 -1.1345 0
M  V30 9 C 1.5332 2.2006 -0.72 0 CFG=1
M  V30 10 C -2.5109 -1.3942 1.1168 0
M  V30 11 O 3.444 -0.1322 -2.4627 0
M  V30 12 C 4.7631 -0.0018 -0.6498 0
M  V30 13 O 0.27 2.871 -0.9197 0
M  V30 14 C 2.4802 3.2885 -0.2372 0
M  V30 15 C -3.7784 -2.0112 1.1231 0
M  V30 16 C -1.5 -1.8299 1.9921 0
M  V30 17 C 4.5968 0.488 -2.8203 0
M  V30 18 C 5.4406 0.5949 -1.7404 0
M  V30 19 C 0.5139 4.2793 -1.0526 0
M  V30 20 C 2.0147 4.4743 -1.0437 0
M  V30 21 N -4.7844 -1.5751 0.3245 0
M  V30 22 C -3.9768 -3.1064 1.9971 0
M  V30 23 C -1.7143 -2.9072 2.8448 0
M  V30 24 C -5.9729 -2.2146 0.3581 0
M  V30 25 C -5.2261 -3.7422 2.006 0
M  V30 26 C -2.9472 -3.5478 2.8431 0
M  V30 27 C -6.2412 -3.2934 1.1733 0
M  V30 28 H -1.1932 0.932 -1.1412 0
M  V30 29 H 2.6604 -1.49 0.4878 0
M  V30 30 H 2.1573 -2.0241 -1.1127 0
M  V30 31 H 2.2747 0.9723 0.926 0
M  V30 32 H 0.5372 1.227 0.946 0
M  V30 33 H -3.1143 0.4634 0.1893 0
M  V30 34 H 1.8504 1.8409 -1.7044 0
M  V30 35 H 5.12 -0.1132 0.3646 0
M  V30 36 H 2.3327 3.4903 0.8308 0
M  V30 37 H 3.5325 3.0421 -0.4003 0
M  V30 38 H -0.5346 -1.332 2.0136 0
M  V30 39 H 4.664 0.7836 -3.8581 0
M  V30 40 H 6.4254 1.0403 -1.7435 0
M  V30 41 H 0.0436 4.7789 -0.1992 0
M  V30 42 H 0.0494 4.6483 -1.9714 0
M  V30 43 H 2.3171 5.438 -0.6257 0
M  V30 44 H 2.4071 4.4072 -2.0653 0
M  V30 45 H -0.9214 -3.2462 3.5057 0
M  V30 46 H -6.7276 -1.8186 -0.3151 0
M  V30 47 H -5.4127 -4.5898 2.6604 0
M  V30 48 H -3.1036 -4.3922 3.5104 0
M  V30 49 H -7.213 -3.7724 1.1614 0
M  V30 END ATOM
M  V30 BEGIN BOND
M  V30 1 2 1 2
M  V30 2 1 2 3
M  V30 3 1 2 4
M  V30 4 1 3 5
M  V30 5 1 3 6
M  V30 6 2 4 7
M  V30 7 1 5 8
M  V30 8 1 6 9
M  V30 9 1 7 10
M  V30 10 1 8 11
M  V30 11 2 8 12
M  V30 12 1 9 13
M  V30 13 1 9 14
M  V30 14 1 10 15
M  V30 15 2 10 16
M  V30 16 1 11 17
M  V30 17 1 12 18
M  V30 18 1 13 19
M  V30 19 1 14 20
M  V30 20 2 15 21
M  V30 21 1 15 22
M  V30 22 1 16 23
M  V30 23 1 21 24
M  V30 24 2 22 25
M  V30 25 1 22 26
M  V30 26 2 24 27
M  V30 27 2 17 18
M  V30 28 1 19 20
M  V30 29 2 23 26
M  V30 30 1 25 27
M  V30 31 1 4 28
M  V30 32 1 5 29
M  V30 33 1 5 30
M  V30 34 1 6 31
M  V30 35 1 6 32
M  V30 36 1 7 33
M  V30 37 1 9 34
M  V30 38 1 12 35
M  V30 39 1 14 36
M  V30 40 1 14 37
M  V30 41 1 16 38
M  V30 42 1 17 39
M  V30 43 1 18 40
M  V30 44 1 19 41
M  V30 45 1 19 42
M  V30 46 1 20 43
M  V30 47 1 20 44
M  V30 48 1 23 45
M  V30 49 1 24 46
M  V30 50 1 25 47
M  V30 51 1 26 48
M  V30 52 1 27 49
M  V30 END BOND
M  V30 BEGIN COLLECTION
M  V30 MDLV30/STEABS ATOMS=(1 9)
M  V30 END COLLECTION
M  V30 END CTAB
M  END
>  <NO.>
4080

>  <Name>
atovaquone

>  <SMILES>
O=C(/C=C\c1cccc2cccnc12)N(Cc1ccco1)C[C@@H]1CCCO1

>  <logBB>


>  <Class>
-1

>  <MW>
362.16

>  <nHBAcc>
4

>  <nHBDon>
0

>  <SLogP>
4.05

>  <TopoPSA>
55.57

>  <MMFF94 Energy>
65.499

$$$$
O=C(CCN1C(=O)CC2(CCCC2)C1=O)NC[C@@H]1C[C@H]2C=C[C@@H]1C2
Actelion Java MolfileCreator 2.0

  0  0  0  0  0  0              0 V3000
M  V30 BEGIN CTAB
M  V30 COUNTS 50 53 0 0 0
M  V30 BEGIN ATOM
M  V30 1 O 0.08 -3.8486 0.2402 0
M  V30 2 C 0.9863 -3.2611 0.8116 0
M  V30 3 N 1.4883 -2.0346 0.4797 0
M  V30 4 C 1.6826 -3.7409 2.0743 0
M  V30 5 C 2.5285 -1.6606 1.2784 0
M  V30 6 C 0.957 -1.2078 -0.5917 0
M  V30 7 C 2.9049 -2.8272 2.1435 0
M  V30 8 C 0.7273 -3.5841 3.2771 0
M  V30 9 C 2.0355 -5.2293 2.0101 0
M  V30 10 O 3.0969 -0.5802 1.2848 0
M  V30 11 C -0.1621 -0.3041 -0.09 0
M  V30 12 C 0.5527 -4.9874 3.8551 0
M  V30 13 C 0.8706 -5.9224 2.7024 0
M  V30 14 C -0.7078 0.5569 -1.2056 0
M  V30 15 O -0.2925 0.5129 -2.3576 0
M  V30 16 N -1.7163 1.3995 -0.7901 0
M  V30 17 C -2.3874 2.3127 -1.6946 0
M  V30 18 C -1.8951 3.7513 -1.5213 0 CFG=1
M  V30 19 C -0.4444 3.9938 -2.0217 0 CFG=2
M  V30 20 C -2.7139 4.7477 -2.4078 0
M  V30 21 C -0.0467 5.3835 -1.5658 0
M  V30 22 C -0.66 4.2949 -3.5087 0
M  V30 23 C -1.6203 5.4554 -3.2367 0 CFG=2
M  V30 24 C -0.7598 6.259 -2.2906 0
M  V30 25 H 1.7737 -0.6039 -1.0044 0
M  V30 26 H 0.5846 -1.8633 -1.3876 0
M  V30 27 H 3.7936 -3.2949 1.7053 0
M  V30 28 H 3.1388 -2.4929 3.1579 0
M  V30 29 H 1.1117 -2.9075 4.0479 0
M  V30 30 H -0.2495 -3.1926 2.9678 0
M  V30 31 H 2.9587 -5.4323 2.5672 0
M  V30 32 H 2.1694 -5.6002 0.9888 0
M  V30 33 H -0.9819 -0.904 0.3226 0
M  V30 34 H 0.2047 0.35 0.7098 0
M  V30 35 H 1.2695 -5.1429 4.6705 0
M  V30 36 H -0.4521 -5.1476 4.2567 0
M  V30 37 H 0.0116 -6.002 2.0266 0
M  V30 38 H 1.131 -6.9283 3.0438 0
M  V30 39 H -2.0098 1.3838 0.1783 0
M  V30 40 H -2.2714 1.9657 -2.7263 0
M  V30 41 H -3.4537 2.2576 -1.4482 0
M  V30 42 H -1.9891 4.0314 -0.463 0
M  V30 43 H 0.2961 3.2247 -1.8039 0
M  V30 44 H -3.4114 4.2181 -3.0668 0
M  V30 45 H -3.2878 5.4494 -1.7922 0
M  V30 46 H 0.6448 5.6123 -0.7694 0
M  V30 47 H -1.1207 3.472 -4.0647 0
M  V30 48 H 0.2571 4.6015 -4.0279 0
M  V30 49 H -1.9626 5.9955 -4.1198 0
M  V30 50 H -0.7554 7.334 -2.1952 0
M  V30 END ATOM
M  V30 BEGIN BOND
M  V30 1 2 1 2
M  V30 2 1 2 3
M  V30 3 1 2 4
M  V30 4 1 3 5
M  V30 5 1 3 6
M  V30 6 1 4 7
M  V30 7 1 4 8
M  V30 8 1 4 9
M  V30 9 2 5 10
M  V30 10 1 6 11
M  V30 11 1 8 12
M  V30 12 1 9 13
M  V30 13 1 11 14
M  V30 14 2 14 15
M  V30 15 1 14 16
M  V30 16 1 16 17
M  V30 17 1 17 18
M  V30 18 1 18 19
M  V30 19 1 18 20
M  V30 20 1 19 21
M  V30 21 1 19 22
M  V30 22 1 20 23
M  V30 23 2 21 24
M  V30 24 1 5 7
M  V30 25 1 12 13
M  V30 26 1 22 23
M  V30 27 1 23 24
M  V30 28 1 6 25
M  V30 29 1 6 26
M  V30 30 1 7 27
M  V30 31 1 7 28
M  V30 32 1 8 29
M  V30 33 1 8 30
M  V30 34 1 9 31
M  V30 35 1 9 32
M  V30 36 1 11 33
M  V30 37 1 11 34
M  V30 38 1 12 35
M  V30 39 1 12 36
M  V30 40 1 13 37
M  V30 41 1 13 38
M  V30 42 1 16 39
M  V30 43 1 17 40
M  V30 44 1 17 41
M  V30 45 1 18 42
M  V30 46 1 19 43
M  V30 47 1 20 44
M  V30 48 1 20 45
M  V30 49 1 21 46
M  V30 50 1 22 47
M  V30 51 1 22 48
M  V30 52 1 23 49
M  V30 53 1 24 50
M  V30 END BOND
M  V30 BEGIN COLLECTION
M  V30 MDLV30/STEABS ATOMS=(3 18 19 23)
M  V30 END COLLECTION
M  V30 END CTAB
M  END
>  <NO.>
4081

>  <Name>
thc

>  <SMILES>
O=C(CCN1C(=O)CC2(CCCC2)C1=O)NC[C@@H]1C[C@H]2C=C[C@@H]1C2

>  <logBB>


>  <Class>
1

>  <MW>
330.19

>  <nHBAcc>
3

>  <nHBDon>
1

>  <SLogP>
2.02

>  <TopoPSA>
66.48

>  <MMFF94 Energy>
-24.857

$$$$
O=C(CCc1nc(-c2ccncc2)no1)NC[C@@H]1C[C@@H]2C=C[C@@H]1C2
Actelion Java MolfileCreator 2.0

  0  0  0  0  0  0              0 V3000
M  V30 BEGIN CTAB
M  V30 COUNTS 44 47 0 0 0
M  V30 BEGIN ATOM
M  V30 1 O 0.5628 1.8504 -1.4479 0
M  V30 2 C -0.0622 1.0845 -0.7237 0
M  V30 3 N -1.1459 1.4659 0.0362 0
M  V30 4 C 0.286 -0.3772 -0.563 0
M  V30 5 C -1.6485 2.8275 0.0323 0
M  V30 6 C 1.4596 -0.7667 -1.4522 0
M  V30 7 C -0.8621 3.7242 0.9867 0 CFG=1
M  V30 8 C 1.7933 -2.1974 -1.279 0
M  V30 9 C -1.2613 5.2232 0.9308 0 CFG=2
M  V30 10 C -1.0709 3.3809 2.4974 0
M  V30 11 O 2.8571 -2.4924 -0.4812 0
M  V30 12 N 1.1961 -3.2603 -1.7652 0
M  V30 13 C -2.726 5.3761 1.2764 0
M  V30 14 C -0.66 5.7164 2.2533 0
M  V30 15 C -1.4817 4.7417 3.1024 0 CFG=1
M  V30 16 N 2.9587 -3.8812 -0.4564 0
M  V30 17 C 1.9498 -4.2916 -1.2434 0
M  V30 18 C -2.8586 5.0793 2.5782 0
M  V30 19 C 1.6536 -5.6902 -1.5266 0
M  V30 20 C 2.4187 -6.7184 -0.9691 0
M  V30 21 C 0.5901 -6.028 -2.368 0
M  V30 22 C 2.0878 -8.0279 -1.2739 0
M  V30 23 C 0.339 -7.3671 -2.6121 0
M  V30 24 N 1.0641 -8.3742 -2.0821 0
M  V30 25 H -1.6134 0.7846 0.6207 0
M  V30 26 H -0.5997 -0.9751 -0.8113 0
M  V30 27 H 0.5254 -0.5607 0.4919 0
M  V30 28 H -1.5836 3.2195 -0.989 0
M  V30 29 H -2.7075 2.7714 0.305 0
M  V30 30 H 1.214 -0.5814 -2.5048 0
M  V30 31 H 2.3352 -0.1478 -1.2211 0
M  V30 32 H 0.2103 3.6388 0.7628 0
M  V30 33 H -0.9357 5.7714 0.0458 0
M  V30 34 H -0.1252 3.0361 2.9314 0
M  V30 35 H -1.8286 2.607 2.6629 0
M  V30 36 H -3.516 5.634 0.5871 0
M  V30 37 H 0.4208 5.5517 2.3288 0
M  V30 38 H -0.8762 6.7715 2.4655 0
M  V30 39 H -1.3624 4.8434 4.1814 0
M  V30 40 H -3.7764 5.0507 3.146 0
M  V30 41 H 3.2567 -6.5136 -0.3105 0
M  V30 42 H -0.0327 -5.2672 -2.8279 0
M  V30 43 H 2.6553 -8.8583 -0.8631 0
M  V30 44 H -0.4768 -7.6745 -3.2603 0
M  V30 END ATOM
M  V30 BEGIN BOND
M  V30 1 2 1 2
M  V30 2 1 2 3
M  V30 3 1 2 4
M  V30 4 1 3 5
M  V30 5 1 4 6
M  V30 6 1 5 7
M  V30 7 1 6 8
M  V30 8 1 7 9
M  V30 9 1 7 10
M  V30 10 1 8 11
M  V30 11 2 8 12
M  V30 12 1 9 13
M  V30 13 1 9 14
M  V30 14 1 10 15
M  V30 15 1 11 16
M  V30 16 1 12 17
M  V30 17 2 13 18
M  V30 18 1 17 19
M  V30 19 2 19 20
M  V30 20 1 19 21
M  V30 21 1 20 22
M  V30 22 2 21 23
M  V30 23 2 22 24
M  V30 24 1 14 15
M  V30 25 1 15 18
M  V30 26 2 16 17
M  V30 27 1 23 24
M  V30 28 1 3 25
M  V30 29 1 4 26
M  V30 30 1 4 27
M  V30 31 1 5 28
M  V30 32 1 5 29
M  V30 33 1 6 30
M  V30 34 1 6 31
M  V30 35 1 7 32
M  V30 36 1 9 33
M  V30 37 1 10 34
M  V30 38 1 10 35
M  V30 39 1 13 36
M  V30 40 1 14 37
M  V30 41 1 14 38
M  V30 42 1 15 39
M  V30 43 1 18 40
M  V30 44 1 20 41
M  V30 45 1 21 42
M  V30 46 1 22 43
M  V30 47 1 23 44
M  V30 END BOND
M  V30 BEGIN COLLECTION
M  V30 MDLV30/STEABS ATOMS=(3 7 9 15)
M  V30 END COLLECTION
M  V30 END CTAB
M  END
>  <NO.>
4082

>  <Name>
mirtazapine

>  <SMILES>
O=C(CCc1nc(-c2ccncc2)no1)NC[C@@H]1C[C@@H]2C=C[C@@H]1C2

>  <logBB>


>  <Class>
1

>  <MW>
324.16

>  <nHBAcc>
5

>  <nHBDon>
1

>  <SLogP>
2.39

>  <TopoPSA>
80.91

>  <MMFF94 Energy>
15.484

$$$$
O=C(CN1CCOC1=O)N1CCC[C@H](Cc2nc(-c3ccsc3)no2)C1
Actelion Java MolfileCreator 2.0

  0  0  0  0  0  0              0 V3000
M  V30 BEGIN CTAB
M  V30 COUNTS 46 49 0 0 0
M  V30 BEGIN ATOM
M  V30 1 S -0.244 -3.9098 5.0523 0
M  V30 2 C -0.2524 -2.1974 5.0361 0
M  V30 3 C -0.0725 -3.9802 3.3512 0
M  V30 4 C -0.1242 -1.6872 3.7609 0
M  V30 5 C -0.0193 -2.7249 2.784 0
M  V30 6 C -0.0995 -0.2644 3.4156 0
M  V30 7 N -0.2474 0.7324 4.2985 0
M  V30 8 N 0.0741 0.1387 2.1141 0
M  V30 9 O -0.164 1.8782 3.5052 0
M  V30 10 C 0.0282 1.4466 2.2255 0
M  V30 11 C 0.1388 2.487 1.1726 0
M  V30 12 C -1.1859 2.6755 0.4044 0 CFG=2
M  V30 13 C -1.5053 1.4784 -0.5118 0
M  V30 14 C -1.1635 3.9723 -0.4267 0
M  V30 15 N -0.6055 1.4292 -1.666 0
M  V30 16 C -0.2374 3.8674 -1.6384 0
M  V30 17 C 0.1138 0.3104 -2.0854 0
M  V30 18 C -0.5693 2.6413 -2.4833 0
M  V30 19 O 0.8737 0.3621 -3.0565 0
M  V30 20 C -0.0198 -0.975 -1.248 0
M  V30 21 N 0.5505 -2.1469 -1.8867 0
M  V30 22 C -0.149 -2.9706 -2.7265 0
M  V30 23 C 1.9545 -2.3799 -2.0031 0
M  V30 24 O -1.3462 -2.9224 -2.9556 0
M  V30 25 O 0.7015 -3.8841 -3.2856 0
M  V30 26 C 1.9905 -3.731 -2.6759 0
M  V30 27 H -0.3513 -1.6496 5.9642 0
M  V30 28 H -0.0208 -4.9373 2.8497 0
M  V30 29 H 0.0852 -2.5634 1.7179 0
M  V30 30 H 0.4286 3.434 1.6451 0
M  V30 31 H 0.955 2.2157 0.4937 0
M  V30 32 H -1.9982 2.7659 1.139 0
M  V30 33 H -1.4948 0.5479 0.0553 0
M  V30 34 H -2.5216 1.5834 -0.9125 0
M  V30 35 H -0.8645 4.8231 0.1967 0
M  V30 36 H -2.1816 4.1856 -0.7776 0
M  V30 37 H -0.3247 4.7724 -2.25 0
M  V30 38 H 0.8043 3.8101 -1.3013 0
M  V30 39 H -1.5604 2.7522 -2.9397 0
M  V30 40 H 0.1528 2.5551 -3.3009 0
M  V30 41 H -1.0821 -1.178 -1.0821 0
M  V30 42 H 0.4857 -0.8318 -0.2903 0
M  V30 43 H 2.4437 -2.3775 -1.0253 0
M  V30 44 H 2.4026 -1.6129 -2.6411 0
M  V30 45 H 2.1261 -4.5447 -1.9554 0
M  V30 46 H 2.7751 -3.7958 -3.4352 0
M  V30 END ATOM
M  V30 BEGIN BOND
M  V30 1 1 1 2
M  V30 2 1 1 3
M  V30 3 2 2 4
M  V30 4 2 3 5
M  V30 5 1 4 6
M  V30 6 2 6 7
M  V30 7 1 6 8
M  V30 8 1 7 9
M  V30 9 2 8 10
M  V30 10 1 10 11
M  V30 11 1 11 12
M  V30 12 1 12 13
M  V30 13 1 12 14
M  V30 14 1 13 15
M  V30 15 1 14 16
M  V30 16 1 15 17
M  V30 17 1 15 18
M  V30 18 2 17 19
M  V30 19 1 17 20
M  V30 20 1 20 21
M  V30 21 1 21 22
M  V30 22 1 21 23
M  V30 23 2 22 24
M  V30 24 1 22 25
M  V30 25 1 23 26
M  V30 26 1 4 5
M  V30 27 1 9 10
M  V30 28 1 16 18
M  V30 29 1 25 26
M  V30 30 1 2 27
M  V30 31 1 3 28
M  V30 32 1 5 29
M  V30 33 1 11 30
M  V30 34 1 11 31
M  V30 35 1 12 32
M  V30 36 1 13 33
M  V30 37 1 13 34
M  V30 38 1 14 35
M  V30 39 1 14 36
M  V30 40 1 16 37
M  V30 41 1 16 38
M  V30 42 1 18 39
M  V30 43 1 18 40
M  V30 44 1 20 41
M  V30 45 1 20 42
M  V30 46 1 23 43
M  V30 47 1 23 44
M  V30 48 1 26 45
M  V30 49 1 26 46
M  V30 END BOND
M  V30 BEGIN COLLECTION
M  V30 MDLV30/STEABS ATOMS=(1 12)
M  V30 END COLLECTION
M  V30 END CTAB
M  END
>  <NO.>
4083

>  <Name>
bacitracin

>  <SMILES>
O=C(CN1CCOC1=O)N1CCC[C@H](Cc2nc(-c3ccsc3)no2)C1

>  <logBB>


>  <Class>
-1

>  <MW>
376.12

>  <nHBAcc>
7

>  <nHBDon>
0

>  <SLogP>
2.03

>  <TopoPSA>
88.77

>  <MMFF94 Energy>
-3.9774

$$$$
O=C(C[C@H]1C[C@H]2CC[C@@H]1C2)NC[C@@H](O)c1ccccc1
Actelion Java MolfileCreator 2.0

  0  0  0  0  0  0              0 V3000
M  V30 BEGIN CTAB
M  V30 COUNTS 43 45 0 0 0
M  V30 BEGIN ATOM
M  V30 1 O -1.0337 0.3179 -1.2724 0
M  V30 2 C 0.1703 0.1124 -1.3771 0
M  V30 3 N 1.1216 1.0304 -0.9958 0
M  V30 4 C 0.7662 -1.1551 -1.9591 0
M  V30 5 C 0.7528 2.2993 -0.3854 0
M  V30 6 C -0.2393 -2.3011 -2.0551 0 CFG=2
M  V30 7 C 0.4261 2.1471 1.1115 0 CFG=1
M  V30 8 C -0.8312 -2.8252 -0.7208 0 CFG=1
M  V30 9 C 0.3717 -3.5804 -2.6701 0
M  V30 10 O 1.6127 1.7566 1.8199 0
M  V30 11 C -0.1184 3.4302 1.7026 0
M  V30 12 C -1.3727 -4.1893 -1.1607 0
M  V30 13 C 0.2683 -3.251 0.266 0
M  V30 14 C -0.0101 -4.6722 -1.6541 0 CFG=2
M  V30 15 C -1.4965 3.5687 1.9247 0
M  V30 16 C 0.7273 4.5071 2.012 0
M  V30 17 C 0.8608 -4.5021 -0.3972 0
M  V30 18 C -2.014 4.7513 2.456 0
M  V30 19 C 0.2078 5.6883 2.5437 0
M  V30 20 C -1.1621 5.8093 2.7668 0
M  V30 21 H 2.1022 0.783 -1.0146 0
M  V30 22 H 1.1251 -0.9058 -2.9657 0
M  V30 23 H 1.6472 -1.4447 -1.3767 0
M  V30 24 H -0.105 2.7101 -0.9304 0
M  V30 25 H 1.6077 2.9692 -0.5308 0
M  V30 26 H -1.0721 -1.978 -2.6959 0
M  V30 27 H -0.2971 1.3367 1.2609 0
M  V30 28 H -1.5782 -2.1623 -0.2792 0
M  V30 29 H 1.4544 -3.5166 -2.8204 0
M  V30 30 H -0.0934 -3.7826 -3.6419 0
M  V30 31 H 1.4161 1.8828 2.765 0
M  V30 32 H -1.7689 -4.7857 -0.3319 0
M  V30 33 H -2.1231 -4.1231 -1.9556 0
M  V30 34 H 1.0188 -2.4796 0.4533 0
M  V30 35 H -0.1724 -3.5193 1.2336 0
M  V30 36 H 0.0131 -5.6817 -2.0688 0
M  V30 37 H -2.1786 2.7563 1.679 0
M  V30 38 H 1.7991 4.4291 1.8389 0
M  V30 39 H 0.7585 -5.3656 0.2694 0
M  V30 40 H 1.9218 -4.3782 -0.6353 0
M  V30 41 H -3.0838 4.8478 2.6237 0
M  V30 42 H 0.8719 6.5152 2.7816 0
M  V30 43 H -1.5671 6.7299 3.1789 0
M  V30 END ATOM
M  V30 BEGIN BOND
M  V30 1 2 1 2
M  V30 2 1 2 3
M  V30 3 1 2 4
M  V30 4 1 3 5
M  V30 5 1 4 6
M  V30 6 1 5 7
M  V30 7 1 6 8
M  V30 8 1 6 9
M  V30 9 1 7 10
M  V30 10 1 7 11
M  V30 11 1 8 12
M  V30 12 1 8 13
M  V30 13 1 9 14
M  V30 14 2 11 15
M  V30 15 1 11 16
M  V30 16 1 13 17
M  V30 17 1 15 18
M  V30 18 2 16 19
M  V30 19 2 18 20
M  V30 20 1 12 14
M  V30 21 1 14 17
M  V30 22 1 19 20
M  V30 23 1 3 21
M  V30 24 1 4 22
M  V30 25 1 4 23
M  V30 26 1 5 24
M  V30 27 1 5 25
M  V30 28 1 6 26
M  V30 29 1 7 27
M  V30 30 1 8 28
M  V30 31 1 9 29
M  V30 32 1 9 30
M  V30 33 1 10 31
M  V30 34 1 12 32
M  V30 35 1 12 33
M  V30 36 1 13 34
M  V30 37 1 13 35
M  V30 38 1 14 36
M  V30 39 1 15 37
M  V30 40 1 16 38
M  V30 41 1 17 39
M  V30 42 1 17 40
M  V30 43 1 18 41
M  V30 44 1 19 42
M  V30 45 1 20 43
M  V30 END BOND
M  V30 BEGIN COLLECTION
M  V30 MDLV30/STEABS ATOMS=(4 6 7 8 14)
M  V30 END COLLECTION
M  V30 END CTAB
M  END
>  <NO.>
4084

>  <Name>
pindolol

>  <SMILES>
O=C(C[C@H]1C[C@H]2CC[C@@H]1C2)NC[C@@H](O)c1ccccc1

>  <logBB>


>  <Class>
1

>  <MW>
273.17

>  <nHBAcc>
2

>  <nHBDon>
2

>  <SLogP>
2.66

>  <TopoPSA>
49.33

>  <MMFF94 Energy>
46.188

$$$$
O=C(Cc1csc(-n2cccc2)n1)N1CCCC[C@H]1c1cccnc1
Actelion Java MolfileCreator 2.0

  0  0  0  0  0  0              0 V3000
M  V30 BEGIN CTAB
M  V30 COUNTS 45 48 0 0 0
M  V30 BEGIN ATOM
M  V30 1 S 3.8921 2.1068 2.0257 0
M  V30 2 C 3.3073 2.8618 0.6173 0
M  V30 3 C 2.4056 1.2638 2.1648 0
M  V30 4 N 2.0868 2.5437 0.2413 0
M  V30 5 N 4.1056 3.7805 -0.0818 0
M  V30 6 C 1.5631 1.5981 1.1172 0
M  V30 7 C 3.7109 4.447 -1.2339 0
M  V30 8 C 5.3942 4.212 0.1993 0
M  V30 9 C 0.1685 1.1092 0.8764 0
M  V30 10 C 4.7242 5.274 -1.6621 0
M  V30 11 C 5.7914 5.1253 -0.7537 0
M  V30 12 C 0.0217 -0.4081 0.8667 0
M  V30 13 O 0.9673 -1.1585 1.1155 0
M  V30 14 N -1.2442 -0.9213 0.5766 0
M  V30 15 C -1.4396 -2.3875 0.5581 0 CFG=2
M  V30 16 C -2.4399 -0.1171 0.3086 0
M  V30 17 C -1.5682 -2.9133 -0.8645 0
M  V30 18 C -2.5671 -2.7514 1.5511 0
M  V30 19 C -3.5229 -0.424 1.3365 0
M  V30 20 C -0.5454 -2.6555 -1.7812 0
M  V30 21 C -2.6322 -3.6924 -1.3323 0
M  V30 22 C -3.8387 -1.9163 1.3685 0
M  V30 23 N -0.5375 -3.0714 -3.0704 0
M  V30 24 C -2.6502 -4.1387 -2.6534 0
M  V30 25 C -1.5922 -3.8026 -3.4774 0
M  V30 26 H 2.2298 0.5659 2.9716 0
M  V30 27 H 2.7273 4.2627 -1.6468 0
M  V30 28 H 5.9331 3.8347 1.0573 0
M  V30 29 H -0.1688 1.4914 -0.094 0
M  V30 30 H -0.4816 1.5171 1.659 0
M  V30 31 H 4.6927 5.9116 -2.5364 0
M  V30 32 H 6.7504 5.6265 -0.7867 0
M  V30 33 H -0.5412 -2.8788 0.9543 0
M  V30 34 H -2.7889 -0.3554 -0.7025 0
M  V30 35 H -2.2273 0.9527 0.3264 0
M  V30 36 H -2.1948 -2.5622 2.5678 0
M  V30 37 H -2.8055 -3.8202 1.5105 0
M  V30 38 H -3.185 -0.1052 2.3305 0
M  V30 39 H -4.431 0.1434 1.105 0
M  V30 40 H 0.3372 -2.0876 -1.4935 0
M  V30 41 H -3.4589 -3.9763 -0.6892 0
M  V30 42 H -4.3512 -2.1949 0.4419 0
M  V30 43 H -4.5361 -2.1272 2.1874 0
M  V30 44 H -3.4704 -4.7406 -3.0284 0
M  V30 45 H -1.5609 -4.1267 -4.5133 0
M  V30 END ATOM
M  V30 BEGIN BOND
M  V30 1 1 1 2
M  V30 2 1 1 3
M  V30 3 2 2 4
M  V30 4 1 2 5
M  V30 5 2 3 6
M  V30 6 1 5 7
M  V30 7 1 5 8
M  V30 8 1 6 9
M  V30 9 2 7 10
M  V30 10 2 8 11
M  V30 11 1 9 12
M  V30 12 2 12 13
M  V30 13 1 12 14
M  V30 14 1 14 15
M  V30 15 1 14 16
M  V30 16 1 15 17
M  V30 17 1 15 18
M  V30 18 1 16 19
M  V30 19 2 17 20
M  V30 20 1 17 21
M  V30 21 1 18 22
M  V30 22 1 20 23
M  V30 23 2 21 24
M  V30 24 2 23 25
M  V30 25 1 4 6
M  V30 26 1 10 11
M  V30 27 1 19 22
M  V30 28 1 24 25
M  V30 29 1 3 26
M  V30 30 1 7 27
M  V30 31 1 8 28
M  V30 32 1 9 29
M  V30 33 1 9 30
M  V30 34 1 10 31
M  V30 35 1 11 32
M  V30 36 1 15 33
M  V30 37 1 16 34
M  V30 38 1 16 35
M  V30 39 1 18 36
M  V30 40 1 18 37
M  V30 41 1 19 38
M  V30 42 1 19 39
M  V30 43 1 20 40
M  V30 44 1 21 41
M  V30 45 1 22 42
M  V30 46 1 22 43
M  V30 47 1 24 44
M  V30 48 1 25 45
M  V30 END BOND
M  V30 BEGIN COLLECTION
M  V30 MDLV30/STEABS ATOMS=(1 15)
M  V30 END COLLECTION
M  V30 END CTAB
M  END
>  <NO.>
4085

>  <Name>
moclobemide

>  <SMILES>
O=C(Cc1csc(-n2cccc2)n1)N1CCCC[C@H]1c1cccnc1

>  <logBB>


>  <Class>
1

>  <MW>
352.14

>  <nHBAcc>
4

>  <nHBDon>
0

>  <SLogP>
3.63

>  <TopoPSA>
51.02

>  <MMFF94 Energy>
61.976

$$$$
O=C(NCCCc1ccc(F)cc1)c1ccc([C@H]2SCC(=O)N2Cc2ccccc2)cc1
Actelion Java MolfileCreator 2.0

  0  0  0  0  0  0              0 V3000
M  V30 BEGIN CTAB
M  V30 COUNTS 57 60 0 0 0
M  V30 BEGIN ATOM
M  V30 1 S -4.6886 2.9082 1.5341 0
M  V30 2 C -3.1043 2.241 2.1026 0 CFG=1
M  V30 3 C -5.608 2.2834 2.9507 0
M  V30 4 N -3.3307 1.6352 3.3967 0
M  V30 5 C -2.5104 1.2925 1.0779 0
M  V30 6 C -4.6162 1.653 3.8973 0
M  V30 7 C -2.2169 1.1082 4.1748 0
M  V30 8 C -1.4262 1.7114 0.2875 0
M  V30 9 C -3.0184 -0.0044 0.8868 0
M  V30 10 O -4.9429 1.2028 4.9906 0
M  V30 11 C -1.2308 2.1821 4.5643 0
M  V30 12 C -0.8611 0.8582 -0.6657 0
M  V30 13 C -2.4523 -0.8596 -0.0619 0
M  V30 14 C 0.0456 2.2254 3.9855 0
M  V30 15 C -1.5883 3.1643 5.4996 0
M  V30 16 C -1.3809 -0.4273 -0.8499 0
M  V30 17 C 0.9454 3.2333 4.3353 0
M  V30 18 C -0.6869 4.1709 5.8472 0
M  V30 19 C -0.8084 -1.3737 -1.8446 0
M  V30 20 C 0.5787 4.2054 5.2647 0
M  V30 21 O -0.8401 -2.5804 -1.633 0
M  V30 22 N -0.2831 -0.8134 -2.9905 0
M  V30 23 C 0.3199 -1.6303 -4.0234 0
M  V30 24 C 1.784 -1.9282 -3.7142 0
M  V30 25 C 2.4036 -2.8155 -4.7934 0
M  V30 26 C 3.8613 -3.0933 -4.5183 0
M  V30 27 C 4.8611 -2.3252 -5.1338 0
M  V30 28 C 4.2304 -4.1085 -3.6222 0
M  V30 29 C 6.2072 -2.5759 -4.8644 0
M  V30 30 C 5.577 -4.3569 -3.3542 0
M  V30 31 C 6.5524 -3.5891 -3.9782 0
M  V30 32 F 7.8452 -3.8271 -3.7201 0
M  V30 33 H -2.4376 3.0975 2.2515 0
M  V30 34 H -6.3301 1.5294 2.6273 0
M  V30 35 H -6.1245 3.1042 3.4548 0
M  V30 36 H -2.5842 0.6227 5.0867 0
M  V30 37 H -1.7265 0.3224 3.5896 0
M  V30 38 H -1.0076 2.709 0.4149 0
M  V30 39 H -3.8578 -0.3622 1.4804 0
M  V30 40 H -0.0019 1.2026 -1.234 0
M  V30 41 H -2.8525 -1.864 -0.1893 0
M  V30 42 H 0.3489 1.4729 3.2605 0
M  V30 43 H -2.5736 3.1451 5.9629 0
M  V30 44 H 1.9351 3.2585 3.8866 0
M  V30 45 H -0.9716 4.9263 6.5754 0
M  V30 46 H 1.2812 4.9881 5.5393 0
M  V30 47 H -0.3702 0.1798 -3.1543 0
M  V30 48 H 0.2319 -1.0763 -4.9641 0
M  V30 49 H -0.2508 -2.5604 -4.1219 0
M  V30 50 H 1.8662 -2.416 -2.7344 0
M  V30 51 H 2.3404 -0.9852 -3.6334 0
M  V30 52 H 1.8625 -3.768 -4.8595 0
M  V30 53 H 2.2999 -2.3405 -5.7772 0
M  V30 54 H 4.5972 -1.5286 -5.8256 0
M  V30 55 H 3.4689 -4.7082 -3.1273 0
M  V30 56 H 6.987 -1.9885 -5.3379 0
M  V30 57 H 5.8694 -5.1408 -2.6631 0
M  V30 END ATOM
M  V30 BEGIN BOND
M  V30 1 1 1 2
M  V30 2 1 1 3
M  V30 3 1 2 4
M  V30 4 1 2 5
M  V30 5 1 3 6
M  V30 6 1 4 7
M  V30 7 2 5 8
M  V30 8 1 5 9
M  V30 9 2 6 10
M  V30 10 1 7 11
M  V30 11 1 8 12
M  V30 12 2 9 13
M  V30 13 2 11 14
M  V30 14 1 11 15
M  V30 15 2 12 16
M  V30 16 1 14 17
M  V30 17 2 15 18
M  V30 18 1 16 19
M  V30 19 2 17 20
M  V30 20 2 19 21
M  V30 21 1 19 22
M  V30 22 1 22 23
M  V30 23 1 23 24
M  V30 24 1 24 25
M  V30 25 1 25 26
M  V30 26 2 26 27
M  V30 27 1 26 28
M  V30 28 1 27 29
M  V30 29 2 28 30
M  V30 30 2 29 31
M  V30 31 1 31 32
M  V30 32 1 4 6
M  V30 33 1 13 16
M  V30 34 1 18 20
M  V30 35 1 30 31
M  V30 36 1 2 33
M  V30 37 1 3 34
M  V30 38 1 3 35
M  V30 39 1 7 36
M  V30 40 1 7 37
M  V30 41 1 8 38
M  V30 42 1 9 39
M  V30 43 1 12 40
M  V30 44 1 13 41
M  V30 45 1 14 42
M  V30 46 1 15 43
M  V30 47 1 17 44
M  V30 48 1 18 45
M  V30 49 1 20 46
M  V30 50 1 22 47
M  V30 51 1 23 48
M  V30 52 1 23 49
M  V30 53 1 24 50
M  V30 54 1 24 51
M  V30 55 1 25 52
M  V30 56 1 25 53
M  V30 57 1 27 54
M  V30 58 1 28 55
M  V30 59 1 29 56
M  V30 60 1 30 57
M  V30 END BOND
M  V30 BEGIN COLLECTION
M  V30 MDLV30/STEABS ATOMS=(1 2)
M  V30 END COLLECTION
M  V30 END CTAB
M  END
>  <NO.>
4086

>  <Name>
ipratropium bromide

>  <SMILES>
O=C(NCCCc1ccc(F)cc1)c1ccc([C@H]2SCC(=O)N2Cc2ccccc2)cc1

>  <logBB>


>  <Class>
-1

>  <MW>
448.16

>  <nHBAcc>
3

>  <nHBDon>
1

>  <SLogP>
4.96

>  <TopoPSA>
49.41

>  <MMFF94 Energy>
23.787

$$$$
O=C(NCCSCc1ccccc1)/C(=C/c1ccco1)c1ccccc1
Actelion Java MolfileCreator 2.0

  0  0  0  0  0  0              0 V3000
M  V30 BEGIN CTAB
M  V30 COUNTS 47 49 0 0 0
M  V30 BEGIN ATOM
M  V30 1 S -1.366 -4.2634 1.2052 0
M  V30 2 C 0.2895 -4.776 0.6368 0
M  V30 3 C -1.2607 -2.462 0.9312 0
M  V30 4 C 1.3997 -4.3435 1.5595 0
M  V30 5 C -1.4042 -2.094 -0.5459 0
M  V30 6 C 2.2755 -3.313 1.1882 0
M  V30 7 C 1.5765 -4.9638 2.8057 0
M  V30 8 N -1.3209 -0.6601 -0.7545 0
M  V30 9 C 3.3027 -2.9119 2.0441 0
M  V30 10 C 2.6055 -4.5626 3.6593 0
M  V30 11 C -0.111 -0.0135 -0.8599 0
M  V30 12 C 3.4683 -3.5371 3.2782 0
M  V30 13 O 0.9586 -0.6136 -0.7921 0
M  V30 14 C -0.1877 1.4825 -1.0599 0
M  V30 15 C -1.4911 2.1698 -1.1011 0
M  V30 16 C 1.0032 2.1047 -1.1868 0
M  V30 17 C -2.0869 2.6234 0.0832 0
M  V30 18 C -2.161 2.3422 -2.3196 0
M  V30 19 C 1.2022 3.5037 -1.3789 0
M  V30 20 C -3.3393 3.2384 0.0479 0
M  V30 21 C -3.4133 2.9579 -2.3509 0
M  V30 22 O 0.207 4.4517 -1.461 0
M  V30 23 C 2.4135 4.1769 -1.5179 0
M  V30 24 C -4.0021 3.4034 -1.1677 0
M  V30 25 C 0.7736 5.6667 -1.6438 0
M  V30 26 C 2.1381 5.5544 -1.6866 0
M  V30 27 H 0.4604 -4.4201 -0.384 0
M  V30 28 H 0.2948 -5.8705 0.5744 0
M  V30 29 H -2.0803 -2.0012 1.4946 0
M  V30 30 H -0.3371 -2.0638 1.3606 0
M  V30 31 H -0.6298 -2.5716 -1.1545 0
M  V30 32 H -2.3806 -2.4105 -0.9289 0
M  V30 33 H 2.1584 -2.8046 0.2323 0
M  V30 34 H 0.9063 -5.7617 3.1193 0
M  V30 35 H -2.1844 -0.1345 -0.814 0
M  V30 36 H 3.9698 -2.1072 1.746 0
M  V30 37 H 2.7309 -5.0485 4.6232 0
M  V30 38 H 4.2674 -3.2226 3.9438 0
M  V30 39 H 1.9151 1.512 -1.1418 0
M  V30 40 H -1.5754 2.5076 1.0362 0
M  V30 41 H -1.7074 2.0062 -3.2492 0
M  V30 42 H -3.7945 3.5958 0.9682 0
M  V30 43 H -3.9261 3.0969 -3.2991 0
M  V30 44 H 3.3902 3.7125 -1.4979 0
M  V30 45 H -4.9746 3.8887 -1.1944 0
M  V30 46 H 0.0844 6.4955 -1.723 0
M  V30 47 H 2.845 6.3604 -1.8216 0
M  V30 END ATOM
M  V30 BEGIN BOND
M  V30 1 1 1 2
M  V30 2 1 1 3
M  V30 3 1 2 4
M  V30 4 1 3 5
M  V30 5 2 4 6
M  V30 6 1 4 7
M  V30 7 1 5 8
M  V30 8 1 6 9
M  V30 9 2 7 10
M  V30 10 1 8 11
M  V30 11 2 9 12
M  V30 12 2 11 13
M  V30 13 1 11 14
M  V30 14 1 14 15
M  V30 15 2 14 16
M  V30 16 2 15 17
M  V30 17 1 15 18
M  V30 18 1 16 19
M  V30 19 1 17 20
M  V30 20 2 18 21
M  V30 21 1 19 22
M  V30 22 2 19 23
M  V30 23 2 20 24
M  V30 24 1 22 25
M  V30 25 1 23 26
M  V30 26 1 10 12
M  V30 27 1 21 24
M  V30 28 2 25 26
M  V30 29 1 2 27
M  V30 30 1 2 28
M  V30 31 1 3 29
M  V30 32 1 3 30
M  V30 33 1 5 31
M  V30 34 1 5 32
M  V30 35 1 6 33
M  V30 36 1 7 34
M  V30 37 1 8 35
M  V30 38 1 9 36
M  V30 39 1 10 37
M  V30 40 1 12 38
M  V30 41 1 16 39
M  V30 42 1 17 40
M  V30 43 1 18 41
M  V30 44 1 20 42
M  V30 45 1 21 43
M  V30 46 1 23 44
M  V30 47 1 24 45
M  V30 48 1 25 46
M  V30 49 1 26 47
M  V30 END BOND
M  V30 END CTAB
M  END
>  <NO.>
4087

>  <Name>
ketoprofen

>  <SMILES>
O=C(NCCSCc1ccccc1)/C(=C/c1ccco1)c1ccccc1

>  <logBB>


>  <Class>
1

>  <MW>
363.13

>  <nHBAcc>
3

>  <nHBDon>
1

>  <SLogP>
4.87

>  <TopoPSA>
42.24

>  <MMFF94 Energy>
39.636

$$$$
O=C(NCc1nc(-c2ccc(Cl)cc2)no1)c1ccc(CN2CCOCC2)cc1
Actelion Java MolfileCreator 2.0

  0  0  0  0  0  0              0 V3000
M  V30 BEGIN CTAB
M  V30 COUNTS 50 53 0 0 0
M  V30 BEGIN ATOM
M  V30 1 Cl -4.0479 8.027 -1.8605 0
M  V30 2 C -3.0593 6.7823 -2.5173 0
M  V30 3 C -2.7922 6.7579 -3.884 0
M  V30 4 C -2.5298 5.8037 -1.6793 0
M  V30 5 C -1.9878 5.7452 -4.4178 0
M  V30 6 C -1.7258 4.7915 -2.2139 0
M  V30 7 C -1.4452 4.7499 -3.589 0
M  V30 8 C -0.6047 3.6889 -4.1365 0
M  V30 9 N -0.2796 3.5841 -5.4361 0
M  V30 10 N -0.0685 2.6922 -3.3457 0
M  V30 11 O 0.5197 2.4457 -5.4914 0
M  V30 12 C 0.6014 1.9691 -4.2188 0
M  V30 13 C 1.4125 0.7447 -4.0179 0
M  V30 14 N 1.3182 0.3167 -2.6366 0
M  V30 15 C 1.9461 -0.8301 -2.2148 0
M  V30 16 O 2.6298 -1.52 -2.9632 0
M  V30 17 C 1.7902 -1.1937 -0.7788 0
M  V30 18 C 2.7812 -1.9859 -0.1862 0
M  V30 19 C 0.6837 -0.7932 -0.0208 0
M  V30 20 C 2.681 -2.3565 1.1574 0
M  V30 21 C 0.586 -1.1652 1.3233 0
M  V30 22 C 1.5816 -1.9497 1.9254 0
M  V30 23 C 1.4712 -2.3439 3.3845 0
M  V30 24 N 0.2376 -3.086 3.6907 0
M  V30 25 C 0.2496 -4.4371 3.0844 0
M  V30 26 C 0.0769 -3.2282 5.154 0
M  V30 27 C -0.9997 -5.2395 3.4833 0
M  V30 28 C -1.1701 -4.0553 5.503 0
M  V30 29 O -1.1078 -5.3578 4.9083 0
M  V30 30 H -3.2041 7.5204 -4.5402 0
M  V30 31 H -2.7367 5.821 -0.6124 0
M  V30 32 H -1.79 5.7425 -5.4886 0
M  V30 33 H -1.3189 4.0343 -1.5461 0
M  V30 34 H 2.4652 0.9378 -4.2483 0
M  V30 35 H 1.0564 -0.0674 -4.6602 0
M  V30 36 H 0.8395 0.9299 -1.9882 0
M  V30 37 H 3.6378 -2.3162 -0.7711 0
M  V30 38 H -0.1268 -0.2191 -0.459 0
M  V30 39 H 3.4649 -2.9702 1.596 0
M  V30 40 H -0.2827 -0.8584 1.9039 0
M  V30 41 H 1.4927 -1.4081 3.9596 0
M  V30 42 H 2.3564 -2.9149 3.6951 0
M  V30 43 H 0.2765 -4.3694 1.9915 0
M  V30 44 H 1.1419 -4.9858 3.4134 0
M  V30 45 H 0.9605 -3.7204 5.5814 0
M  V30 46 H -0.0178 -2.2392 5.6171 0
M  V30 47 H -0.9356 -6.2522 3.0723 0
M  V30 48 H -1.9124 -4.7772 3.0879 0
M  V30 49 H -1.2333 -4.1901 6.5876 0
M  V30 50 H -2.0876 -3.5506 5.1765 0
M  V30 END ATOM
M  V30 BEGIN BOND
M  V30 1 1 1 2
M  V30 2 2 2 3
M  V30 3 1 2 4
M  V30 4 1 3 5
M  V30 5 2 4 6
M  V30 6 2 5 7
M  V30 7 1 7 8
M  V30 8 2 8 9
M  V30 9 1 8 10
M  V30 10 1 9 11
M  V30 11 2 10 12
M  V30 12 1 12 13
M  V30 13 1 13 14
M  V30 14 1 14 15
M  V30 15 2 15 16
M  V30 16 1 15 17
M  V30 17 2 17 18
M  V30 18 1 17 19
M  V30 19 1 18 20
M  V30 20 2 19 21
M  V30 21 2 20 22
M  V30 22 1 22 23
M  V30 23 1 23 24
M  V30 24 1 24 25
M  V30 25 1 24 26
M  V30 26 1 25 27
M  V30 27 1 26 28
M  V30 28 1 27 29
M  V30 29 1 6 7
M  V30 30 1 11 12
M  V30 31 1 21 22
M  V30 32 1 28 29
M  V30 33 1 3 30
M  V30 34 1 4 31
M  V30 35 1 5 32
M  V30 36 1 6 33
M  V30 37 1 13 34
M  V30 38 1 13 35
M  V30 39 1 14 36
M  V30 40 1 18 37
M  V30 41 1 19 38
M  V30 42 1 20 39
M  V30 43 1 21 40
M  V30 44 1 23 41
M  V30 45 1 23 42
M  V30 46 1 25 43
M  V30 47 1 25 44
M  V30 48 1 26 45
M  V30 49 1 26 46
M  V30 50 1 27 47
M  V30 51 1 27 48
M  V30 52 1 28 49
M  V30 53 1 28 50
M  V30 END BOND
M  V30 END CTAB
M  END
>  <NO.>
4089

>  <Name>
doxepin

>  <SMILES>
O=C(NCc1nc(-c2ccc(Cl)cc2)no1)c1ccc(CN2CCOCC2)cc1

>  <logBB>


>  <Class>
1

>  <MW>
412.13

>  <nHBAcc>
6

>  <nHBDon>
1

>  <SLogP>
3.15

>  <TopoPSA>
80.49

>  <MMFF94 Energy>
104.89

$$$$
O=C(N[C@@H](Cc1ccccn1)C1CC(O)C1)c1n[nH]c2ccccc12
Actelion Java MolfileCreator 2.0

  0  0  0  0  0  0              0 V3000
M  V30 BEGIN CTAB
M  V30 COUNTS 45 48 0 0 0
M  V30 BEGIN ATOM
M  V30 1 O -0.08 1.3611 2.1624 0
M  V30 2 C -0.6368 0.6421 1.3369 0
M  V30 3 N 0.0379 -0.2582 0.5457 0
M  V30 4 C -2.0906 0.6623 1.1004 0
M  V30 5 C 1.4762 -0.4426 0.5484 0 CFG=2
M  V30 6 N -2.6722 -0.1297 0.172 0
M  V30 7 C -3.0603 1.4719 1.7664 0
M  V30 8 C 2.0108 0.3308 -0.6564 0
M  V30 9 C 1.8699 -1.9313 0.5091 0
M  V30 10 N -3.9774 0.1721 0.2614 0
M  V30 11 C -4.2784 1.1248 1.1937 0
M  V30 12 C -3.0433 2.4496 2.7803 0
M  V30 13 C 2.0297 1.882 -0.5474 0
M  V30 14 C 3.5537 0.4193 -0.8062 0
M  V30 15 C 1.4764 -2.6781 -0.7461 0
M  V30 16 C -5.4957 1.6992 1.5749 0
M  V30 17 C -4.2496 3.0391 3.1782 0
M  V30 18 C 3.3573 1.8579 -1.3376 0
M  V30 19 N 0.1937 -2.559 -1.1704 0
M  V30 20 C 2.4008 -3.4893 -1.4007 0
M  V30 21 C -5.4551 2.6677 2.5833 0
M  V30 22 O 4.3492 2.8176 -0.9376 0
M  V30 23 C -0.1667 -3.2442 -2.2774 0
M  V30 24 C 2.0013 -4.1833 -2.54 0
M  V30 25 C 0.6934 -4.0592 -2.9908 0
M  V30 26 H -0.5245 -0.812 -0.1048 0
M  V30 27 H 1.8793 -0.015 1.4747 0
M  V30 28 H 1.5404 0.0096 -1.5988 0
M  V30 29 H 1.4129 -2.4531 1.3598 0
M  V30 30 H 2.9564 -2.0041 0.6443 0
M  V30 31 H -4.6237 -0.3123 -0.3502 0
M  V30 32 H -2.107 2.7444 3.2483 0
M  V30 33 H 2.1304 2.2735 0.4717 0
M  V30 34 H 1.198 2.3926 -1.0409 0
M  V30 35 H 4.1114 0.3673 0.1364 0
M  V30 36 H 3.9936 -0.2866 -1.516 0
M  V30 37 H -6.4348 1.412 1.1137 0
M  V30 38 H -4.2421 3.795 3.9604 0
M  V30 39 H 3.2015 1.8942 -2.4235 0
M  V30 40 H 3.4181 -3.5864 -1.0356 0
M  V30 41 H -6.3797 3.1399 2.9094 0
M  V30 42 H 5.1415 2.5909 -1.453 0
M  V30 43 H -1.2012 -3.1159 -2.5832 0
M  V30 44 H 2.7054 -4.8196 -3.0686 0
M  V30 45 H 0.3512 -4.5881 -3.873 0
M  V30 END ATOM
M  V30 BEGIN BOND
M  V30 1 2 1 2
M  V30 2 1 2 3
M  V30 3 1 2 4
M  V30 4 1 3 5
M  V30 5 2 4 6
M  V30 6 1 4 7
M  V30 7 1 5 8
M  V30 8 1 5 9
M  V30 9 1 6 10
M  V30 10 2 7 11
M  V30 11 1 7 12
M  V30 12 1 8 13
M  V30 13 1 8 14
M  V30 14 1 9 15
M  V30 15 1 11 16
M  V30 16 2 12 17
M  V30 17 1 13 18
M  V30 18 2 15 19
M  V30 19 1 15 20
M  V30 20 2 16 21
M  V30 21 1 18 22
M  V30 22 1 19 23
M  V30 23 2 20 24
M  V30 24 2 23 25
M  V30 25 1 10 11
M  V30 26 1 14 18
M  V30 27 1 17 21
M  V30 28 1 24 25
M  V30 29 1 3 26
M  V30 30 1 5 27
M  V30 31 1 8 28
M  V30 32 1 9 29
M  V30 33 1 9 30
M  V30 34 1 10 31
M  V30 35 1 12 32
M  V30 36 1 13 33
M  V30 37 1 13 34
M  V30 38 1 14 35
M  V30 39 1 14 36
M  V30 40 1 16 37
M  V30 41 1 17 38
M  V30 42 1 18 39
M  V30 43 1 20 40
M  V30 44 1 21 41
M  V30 45 1 22 42
M  V30 46 1 23 43
M  V30 47 1 24 44
M  V30 48 1 25 45
M  V30 END BOND
M  V30 BEGIN COLLECTION
M  V30 MDLV30/STEABS ATOMS=(1 5)
M  V30 END COLLECTION
M  V30 END CTAB
M  END
>  <NO.>
4090

>  <Name>
bromazepam

>  <SMILES>
O=C(N[C@@H](Cc1ccccn1)C1CC(O)C1)c1n[nH]c2ccccc12

>  <logBB>


>  <Class>
1

>  <MW>
336.16

>  <nHBAcc>
4

>  <nHBDon>
3

>  <SLogP>
2.07

>  <TopoPSA>
90.9

>  <MMFF94 Energy>
71.085

$$$$
O=C(N[C@@H](c1ccccn1)C1CC(O)C1)c1ncoc1C1CC1
Actelion Java MolfileCreator 2.0

  0  0  0  0  0  0              0 V3000
M  V30 BEGIN CTAB
M  V30 COUNTS 42 45 0 0 0
M  V30 BEGIN ATOM
M  V30 1 O 1.2053 1.4465 -1.2857 0
M  V30 2 C 0.7075 0.3266 -1.293 0
M  V30 3 N -0.1269 -0.1487 -0.3095 0
M  V30 4 C 0.9453 -0.661 -2.3382 0
M  V30 5 C -0.5427 0.6438 0.836 0 CFG=1
M  V30 6 N 0.4116 -1.9474 -2.2988 0
M  V30 7 C 1.6976 -0.516 -3.487 0
M  V30 8 C -1.8852 0.215 1.4064 0
M  V30 9 C 0.61 0.6113 1.8535 0
M  V30 10 C 0.8644 -2.4973 -3.4024 0
M  V30 11 O 1.6498 -1.699 -4.1715 0
M  V30 12 C 2.4714 0.7411 -3.9547 0
M  V30 13 N -2.761 1.2177 1.6874 0
M  V30 14 C -2.2187 -1.1221 1.6217 0
M  V30 15 C 0.3697 1.1403 3.2887 0
M  V30 16 C 1.1226 -0.7158 2.464 0
M  V30 17 C 2.773 0.9189 -5.4194 0
M  V30 18 C 1.7363 1.7804 -4.7596 0
M  V30 19 C -3.9726 0.8819 2.1821 0
M  V30 20 C -3.4744 -1.438 2.1372 0
M  V30 21 C 0.624 -0.2705 3.8487 0
M  V30 22 C -4.3718 -0.419 2.4223 0
M  V30 23 O -0.523 -0.9809 4.3476 0
M  V30 24 H -0.4755 -1.0921 -0.4416 0
M  V30 25 H -0.6539 1.679 0.4862 0
M  V30 26 H 1.4543 1.1588 1.4035 0
M  V30 27 H 0.6902 -3.4989 -3.7696 0
M  V30 28 H 3.2178 1.0979 -3.2515 0
M  V30 29 H -1.5166 -1.9213 1.4135 0
M  V30 30 H 1.1141 1.8767 3.6142 0
M  V30 31 H -0.6201 1.5533 3.5004 0
M  V30 32 H 0.6744 -1.6344 2.0776 0
M  V30 33 H 2.2119 -0.829 2.4112 0
M  V30 34 H 2.4341 0.1619 -6.1172 0
M  V30 35 H 3.7182 1.3761 -5.6877 0
M  V30 36 H 1.976 2.8204 -4.5696 0
M  V30 37 H 0.6959 1.6062 -5.0089 0
M  V30 38 H -4.6356 1.7175 2.3867 0
M  V30 39 H -3.7433 -2.4744 2.32 0
M  V30 40 H 1.4151 -0.2843 4.6075 0
M  V30 41 H -5.3553 -0.6333 2.8237 0
M  V30 42 H -0.8887 -0.4104 5.0457 0
M  V30 END ATOM
M  V30 BEGIN BOND
M  V30 1 2 1 2
M  V30 2 1 2 3
M  V30 3 1 2 4
M  V30 4 1 3 5
M  V30 5 1 4 6
M  V30 6 2 4 7
M  V30 7 1 5 8
M  V30 8 1 5 9
M  V30 9 2 6 10
M  V30 10 1 7 11
M  V30 11 1 7 12
M  V30 12 2 8 13
M  V30 13 1 8 14
M  V30 14 1 9 15
M  V30 15 1 9 16
M  V30 16 1 12 17
M  V30 17 1 12 18
M  V30 18 1 13 19
M  V30 19 2 14 20
M  V30 20 1 15 21
M  V30 21 2 19 22
M  V30 22 1 21 23
M  V30 23 1 10 11
M  V30 24 1 16 21
M  V30 25 1 17 18
M  V30 26 1 20 22
M  V30 27 1 3 24
M  V30 28 1 5 25
M  V30 29 1 9 26
M  V30 30 1 10 27
M  V30 31 1 12 28
M  V30 32 1 14 29
M  V30 33 1 15 30
M  V30 34 1 15 31
M  V30 35 1 16 32
M  V30 36 1 16 33
M  V30 37 1 17 34
M  V30 38 1 17 35
M  V30 39 1 18 36
M  V30 40 1 18 37
M  V30 41 1 19 38
M  V30 42 1 20 39
M  V30 43 1 21 40
M  V30 44 1 22 41
M  V30 45 1 23 42
M  V30 END BOND
M  V30 BEGIN COLLECTION
M  V30 MDLV30/STEABS ATOMS=(1 5)
M  V30 END COLLECTION
M  V30 END CTAB
M  END
>  <NO.>
4091

>  <Name>
aminosalicylic acid

>  <SMILES>
O=C(N[C@@H](c1ccccn1)C1CC(O)C1)c1ncoc1C1CC1

>  <logBB>


>  <Class>
-1

>  <MW>
313.14

>  <nHBAcc>
5

>  <nHBDon>
2

>  <SLogP>
2.19

>  <TopoPSA>
88.25

>  <MMFF94 Energy>
53.085

$$$$
O=C(O)CC[C@@]1(CCC(=O)NCc2cc3cc(F)ccc3[nH]2)CCC(=O)N1
Actelion Java MolfileCreator 2.0

  0  0  0  0  0  0              0 V3000
M  V30 BEGIN CTAB
M  V30 COUNTS 49 51 0 0 0
M  V30 BEGIN ATOM
M  V30 1 F 0.7951 -4.6184 7.2535 0
M  V30 2 C 0.0597 -3.9704 6.3392 0
M  V30 3 C 0.6263 -2.8997 5.6482 0
M  V30 4 C -1.2461 -4.3838 6.105 0
M  V30 5 C -0.154 -2.2279 4.6895 0
M  V30 6 C -2.0397 -3.7301 5.1581 0
M  V30 7 C -1.4641 -2.6558 4.4669 0
M  V30 8 C 0.0809 -1.1293 3.8186 0
M  V30 9 N -1.9975 -1.8373 3.4968 0
M  V30 10 C -1.0692 -0.9106 3.0867 0
M  V30 11 C -1.3762 0.0895 2.035 0
M  V30 12 N -1.0693 -0.5177 0.7659 0
M  V30 13 C -1.5374 0.02 -0.4067 0
M  V30 14 O -2.325 0.96 -0.4526 0
M  V30 15 C -1.0105 -0.6743 -1.6494 0
M  V30 16 C -0.8375 0.2898 -2.8278 0
M  V30 17 C 0.3744 1.2643 -2.7608 0 CFG=1
M  V30 18 N 0.41 1.9783 -1.5102 0
M  V30 19 C 1.7182 0.5085 -2.778 0
M  V30 20 C 0.2555 2.2525 -3.9491 0
M  V30 21 C 1.4327 1.6079 -0.6708 0
M  V30 22 C 2.2407 0.5352 -1.3426 0
M  V30 23 C 1.2492 3.4164 -3.938 0
M  V30 24 O 1.6161 2.0431 0.452 0
M  V30 25 C 1.0685 4.2595 -5.1666 0
M  V30 26 O 0.4085 5.2803 -5.2541 0
M  V30 27 O 1.7061 3.7546 -6.2397 0
M  V30 28 H 1.6478 -2.6003 5.8552 0
M  V30 29 H -1.6458 -5.2219 6.6684 0
M  V30 30 H -3.061 -4.0462 4.9723 0
M  V30 31 H 0.9974 -0.5577 3.7346 0
M  V30 32 H -2.9379 -1.9156 3.133 0
M  V30 33 H -0.7561 0.9855 2.1435 0
M  V30 34 H -2.4279 0.3952 2.0598 0
M  V30 35 H -0.3773 -1.2545 0.7518 0
M  V30 36 H -1.7586 -1.4308 -1.917 0
M  V30 37 H -0.0822 -1.2117 -1.4375 0
M  V30 38 H -0.75 -0.308 -3.7449 0
M  V30 39 H -1.7617 0.8735 -2.9362 0
M  V30 40 H -0.3046 2.6266 -1.1891 0
M  V30 41 H 1.6252 -0.5186 -3.1479 0
M  V30 42 H 2.4556 0.9903 -3.4284 0
M  V30 43 H -0.7549 2.6853 -3.9591 0
M  V30 44 H 0.352 1.695 -4.8905 0
M  V30 45 H 3.3055 0.7799 -1.3059 0
M  V30 46 H 2.065 -0.4162 -0.8328 0
M  V30 47 H 1.0936 4.063 -3.0669 0
M  V30 48 H 2.2914 3.086 -3.8997 0
M  V30 49 H 1.5023 4.3925 -6.9563 0
M  V30 END ATOM
M  V30 BEGIN BOND
M  V30 1 1 1 2
M  V30 2 2 2 3
M  V30 3 1 2 4
M  V30 4 1 3 5
M  V30 5 2 4 6
M  V30 6 2 5 7
M  V30 7 1 5 8
M  V30 8 1 7 9
M  V30 9 2 8 10
M  V30 10 1 10 11
M  V30 11 1 11 12
M  V30 12 1 12 13
M  V30 13 2 13 14
M  V30 14 1 13 15
M  V30 15 1 15 16
M  V30 16 1 16 17
M  V30 17 1 17 18
M  V30 18 1 17 19
M  V30 19 1 17 20
M  V30 20 1 18 21
M  V30 21 1 19 22
M  V30 22 1 20 23
M  V30 23 2 21 24
M  V30 24 1 23 25
M  V30 25 2 25 26
M  V30 26 1 25 27
M  V30 27 1 6 7
M  V30 28 1 9 10
M  V30 29 1 21 22
M  V30 30 1 3 28
M  V30 31 1 4 29
M  V30 32 1 6 30
M  V30 33 1 8 31
M  V30 34 1 9 32
M  V30 35 1 11 33
M  V30 36 1 11 34
M  V30 37 1 12 35
M  V30 38 1 15 36
M  V30 39 1 15 37
M  V30 40 1 16 38
M  V30 41 1 16 39
M  V30 42 1 18 40
M  V30 43 1 19 41
M  V30 44 1 19 42
M  V30 45 1 20 43
M  V30 46 1 20 44
M  V30 47 1 22 45
M  V30 48 1 22 46
M  V30 49 1 23 47
M  V30 50 1 23 48
M  V30 51 1 27 49
M  V30 END BOND
M  V30 BEGIN COLLECTION
M  V30 MDLV30/STEABS ATOMS=(1 17)
M  V30 END COLLECTION
M  V30 END CTAB
M  END
>  <NO.>
4093

>  <Name>
norfloxacin

>  <SMILES>
O=C(O)CC[C@@]1(CCC(=O)NCc2cc3cc(F)ccc3[nH]2)CCC(=O)N1

>  <logBB>


>  <Class>
-1

>  <MW>
375.16

>  <nHBAcc>
3

>  <nHBDon>
4

>  <SLogP>
2.22

>  <TopoPSA>
111.29

>  <MMFF94 Energy>
-71.035

$$$$
O=C(O)[C@H]1C[C@H]1S(=O)(=O)c1ccc(Cl)cc1
Actelion Java MolfileCreator 2.0

  0  0  0  0  0  0              0 V3000
M  V30 BEGIN CTAB
M  V30 COUNTS 25 26 0 0 0
M  V30 BEGIN ATOM
M  V30 1 Cl -2.6803 -3.2673 -2.5965 0
M  V30 2 C -1.8646 -1.8758 -1.9984 0
M  V30 3 C -0.5988 -1.5522 -2.4878 0
M  V30 4 C -2.4759 -1.0802 -1.0275 0
M  V30 5 C 0.0669 -0.4259 -2.0004 0
M  V30 6 C -1.8149 0.0467 -0.5346 0
M  V30 7 C -0.54 0.3609 -1.0174 0
M  V30 8 S 0.2962 1.7917 -0.3837 0
M  V30 9 O 1.6463 1.8291 -0.9036 0
M  V30 10 O -0.6074 2.9058 -0.6021 0
M  V30 11 C 0.3559 1.5906 1.4132 0 CFG=1
M  V30 12 C 0.9537 0.3482 2.017 0 CFG=2
M  V30 13 C 1.7276 1.6481 2.0279 0
M  V30 14 C 1.4683 -0.8096 1.267 0
M  V30 15 O 2.1598 -0.7623 0.2677 0
M  V30 16 O 1.0543 -1.9806 1.7827 0
M  V30 17 H -0.1258 -2.1696 -3.2474 0
M  V30 18 H -3.4682 -1.3295 -0.6593 0
M  V30 19 H 1.0575 -0.1776 -2.3783 0
M  V30 20 H -2.3046 0.6762 0.2047 0
M  V30 21 H -0.4532 2.0694 1.9485 0
M  V30 22 H 0.4843 0.0569 2.9548 0
M  V30 23 H 1.8378 2.1657 2.9741 0
M  V30 24 H 2.6026 1.7312 1.3909 0
M  V30 25 H 1.4558 -2.6541 1.1936 0
M  V30 END ATOM
M  V30 BEGIN BOND
M  V30 1 1 1 2
M  V30 2 2 2 3
M  V30 3 1 2 4
M  V30 4 1 3 5
M  V30 5 2 4 6
M  V30 6 2 5 7
M  V30 7 1 7 8
M  V30 8 2 8 9
M  V30 9 2 8 10
M  V30 10 1 8 11
M  V30 11 1 11 12
M  V30 12 1 11 13
M  V30 13 1 12 14
M  V30 14 2 14 15
M  V30 15 1 14 16
M  V30 16 1 6 7
M  V30 17 1 12 13
M  V30 18 1 3 17
M  V30 19 1 4 18
M  V30 20 1 5 19
M  V30 21 1 6 20
M  V30 22 1 11 21
M  V30 23 1 12 22
M  V30 24 1 13 23
M  V30 25 1 13 24
M  V30 26 1 16 25
M  V30 END BOND
M  V30 BEGIN COLLECTION
M  V30 MDLV30/STEABS ATOMS=(2 11 12)
M  V30 END COLLECTION
M  V30 END CTAB
M  END
>  <NO.>
4095

>  <Name>
salicyclic acid

>  <SMILES>
O=C(O)[C@H]1C[C@H]1S(=O)(=O)c1ccc(Cl)cc1

>  <logBB>


>  <Class>
-1

>  <MW>
259.99

>  <nHBAcc>
3

>  <nHBDon>
1

>  <SLogP>
1.59

>  <TopoPSA>
71.44

>  <MMFF94 Energy>
30.772

$$$$
O=C(c1cc(-c2ccc(Br)s2)[nH]n1)N1C[C@@H]2C[C@H](C1)c1cccc(=O)n1C2
Actelion Java MolfileCreator 2.0

  0  0  0  0  0  0              0 V3000
M  V30 BEGIN CTAB
M  V30 COUNTS 44 48 0 0 0
M  V30 BEGIN ATOM
M  V30 1 Br -4.9777 2.5695 -7.3069 0
M  V30 2 C -4.2853 1.5753 -5.8293 0
M  V30 3 S -3.7246 2.3006 -4.4071 0
M  V30 4 C -4.1927 0.2084 -5.8139 0
M  V30 5 C -3.3324 0.7779 -3.7118 0
M  V30 6 C -3.638 -0.2544 -4.5816 0
M  V30 7 C -2.7648 0.6627 -2.3998 0
M  V30 8 N -2.5088 1.7225 -1.5748 0
M  V30 9 C -2.3738 -0.4435 -1.6793 0
M  V30 10 N -1.9808 1.3863 -0.386 0
M  V30 11 C -1.8711 0.0435 -0.4374 0
M  V30 12 C -1.3903 -0.812 0.6716 0
M  V30 13 O -1.7836 -1.9792 0.7385 0
M  V30 14 N -0.5101 -0.2939 1.6359 0
M  V30 15 C 0.1278 1.0247 1.5604 0
M  V30 16 C -0.3604 -1.0327 2.8858 0
M  V30 17 C 1.5362 1.0602 2.19 0 CFG=2
M  V30 18 C 1.041 -0.9505 3.5052 0 CFG=2
M  V30 19 C 2.516 0.2789 1.3315 0
M  V30 20 C 1.4921 0.4996 3.6072 0
M  V30 21 C 2.0681 -1.7595 2.7049 0
M  V30 22 N 2.7069 -1.0821 1.5777 0
M  V30 23 C 3.1947 0.8809 0.3383 0
M  V30 24 C 3.5817 -1.8627 0.8127 0
M  V30 25 C 4.0988 0.1375 -0.497 0
M  V30 26 O 3.8057 -3.0555 1.0065 0
M  V30 27 C 4.2897 -1.1695 -0.2934 0
M  V30 28 H -4.5004 -0.4345 -6.6292 0
M  V30 29 H -3.4749 -1.3008 -4.3517 0
M  V30 30 H -2.683 2.703 -1.7675 0
M  V30 31 H -2.4329 -1.481 -1.9788 0
M  V30 32 H -0.531 1.7264 2.0862 0
M  V30 33 H 0.2123 1.3506 0.5209 0
M  V30 34 H -0.6523 -2.0813 2.7628 0
M  V30 35 H -1.086 -0.5924 3.5822 0
M  V30 36 H 1.8599 2.1081 2.2446 0
M  V30 37 H 0.9784 -1.3852 4.511 0
M  V30 38 H 0.7957 1.0769 4.2275 0
M  V30 39 H 2.4781 0.5645 4.0841 0
M  V30 40 H 2.8851 -2.0449 3.3821 0
M  V30 41 H 1.6307 -2.701 2.349 0
M  V30 42 H 3.0665 1.9372 0.1213 0
M  V30 43 H 4.6127 0.6583 -1.2977 0
M  V30 44 H 4.9567 -1.77 -0.897 0
M  V30 END ATOM
M  V30 BEGIN BOND
M  V30 1 1 1 2
M  V30 2 1 2 3
M  V30 3 2 2 4
M  V30 4 1 3 5
M  V30 5 1 4 6
M  V30 6 1 5 7
M  V30 7 1 7 8
M  V30 8 2 7 9
M  V30 9 1 8 10
M  V30 10 1 9 11
M  V30 11 1 11 12
M  V30 12 2 12 13
M  V30 13 1 12 14
M  V30 14 1 14 15
M  V30 15 1 14 16
M  V30 16 1 15 17
M  V30 17 1 16 18
M  V30 18 1 17 19
M  V30 19 1 17 20
M  V30 20 1 18 21
M  V30 21 1 19 22
M  V30 22 2 19 23
M  V30 23 1 22 24
M  V30 24 1 23 25
M  V30 25 2 24 26
M  V30 26 1 24 27
M  V30 27 2 5 6
M  V30 28 2 10 11
M  V30 29 1 18 20
M  V30 30 1 21 22
M  V30 31 2 25 27
M  V30 32 1 4 28
M  V30 33 1 6 29
M  V30 34 1 8 30
M  V30 35 1 9 31
M  V30 36 1 15 32
M  V30 37 1 15 33
M  V30 38 1 16 34
M  V30 39 1 16 35
M  V30 40 1 17 36
M  V30 41 1 18 37
M  V30 42 1 20 38
M  V30 43 1 20 39
M  V30 44 1 21 40
M  V30 45 1 21 41
M  V30 46 1 23 42
M  V30 47 1 25 43
M  V30 48 1 27 44
M  V30 END BOND
M  V30 BEGIN COLLECTION
M  V30 MDLV30/STEABS ATOMS=(2 17 18)
M  V30 END COLLECTION
M  V30 END CTAB
M  END
>  <NO.>
4096

>  <Name>
amoxicillin

>  <SMILES>
O=C(c1cc(-c2ccc(Br)s2)[nH]n1)N1C[C@@H]2C[C@H](C1)c1cccc(=O)n1C2

>  <logBB>


>  <Class>
-1

>  <MW>
444.03

>  <nHBAcc>
4

>  <nHBDon>
1

>  <SLogP>
3.32

>  <TopoPSA>
70.99

>  <MMFF94 Energy>
55.251

$$$$
O=C(c1ccc(CSc2ccccn2)cc1)N1CCC[C@H]1c1ccccn1
Actelion Java MolfileCreator 2.0

  0  0  0  0  0  0              0 V3000
M  V30 BEGIN CTAB
M  V30 COUNTS 48 51 0 0 0
M  V30 BEGIN ATOM
M  V30 1 S -0.7287 1.6199 4.216 0
M  V30 2 C -0.2135 2.3798 5.7449 0
M  V30 3 C 0.8694 0.9852 3.6152 0
M  V30 4 N 1.0967 2.3502 6.0748 0
M  V30 5 C -1.1758 2.9802 6.5498 0
M  V30 6 C 0.7048 0.271 2.2934 0
M  V30 7 C 1.4553 2.9341 7.2397 0
M  V30 8 C -0.7779 3.5748 7.7448 0
M  V30 9 C 0.7797 0.9833 1.0859 0
M  V30 10 C 0.4585 -1.1104 2.2579 0
M  V30 11 C 0.5644 3.5528 8.0997 0
M  V30 12 C 0.6134 0.3272 -0.1353 0
M  V30 13 C 0.2931 -1.7689 1.0381 0
M  V30 14 C 0.3511 -1.0461 -0.1561 0
M  V30 15 C 0.1826 -1.7737 -1.4357 0
M  V30 16 O 0.848 -2.7896 -1.6139 0
M  V30 17 N -0.7124 -1.2759 -2.3676 0
M  V30 18 C -0.9086 -1.9462 -3.6614 0 CFG=2
M  V30 19 C -1.7862 -0.3289 -2.1002 0
M  V30 20 C 0.233 -1.8783 -4.6625 0
M  V30 21 C -2.1564 -1.2635 -4.2486 0
M  V30 22 C -2.9094 -0.7761 -3.0204 0
M  V30 23 N 0.0946 -2.6553 -5.7721 0
M  V30 24 C 1.3361 -1.0426 -4.4905 0
M  V30 25 C 1.0793 -2.6171 -6.696 0
M  V30 26 C 2.3327 -1.0202 -5.4638 0
M  V30 27 C 2.2062 -1.8233 -6.5883 0
M  V30 28 H 1.2966 0.2942 4.3511 0
M  V30 29 H 1.5781 1.8124 3.4927 0
M  V30 30 H -2.2212 2.9885 6.2587 0
M  V30 31 H 2.5157 2.8898 7.4718 0
M  V30 32 H -1.5108 4.0497 8.3909 0
M  V30 33 H 0.9726 2.0544 1.0943 0
M  V30 34 H 0.3967 -1.6814 3.1823 0
M  V30 35 H 0.9082 4.0057 9.0229 0
M  V30 36 H 0.7005 0.8873 -1.0617 0
M  V30 37 H 0.1173 -2.8421 1.0181 0
M  V30 38 H -1.1196 -3.0018 -3.4452 0
M  V30 39 H -1.4296 0.669 -2.3766 0
M  V30 40 H -2.0914 -0.3329 -1.0505 0
M  V30 41 H -1.8853 -0.4008 -4.8715 0
M  V30 42 H -2.7527 -1.944 -4.8644 0
M  V30 43 H -3.4608 -1.6091 -2.5681 0
M  V30 44 H -3.6175 0.0265 -3.2433 0
M  V30 45 H 1.4362 -0.4189 -3.6097 0
M  V30 46 H 0.9317 -3.2652 -7.5547 0
M  V30 47 H 3.2041 -0.3845 -5.3379 0
M  V30 48 H 2.9675 -1.8336 -7.3592 0
M  V30 END ATOM
M  V30 BEGIN BOND
M  V30 1 1 1 2
M  V30 2 1 1 3
M  V30 3 2 2 4
M  V30 4 1 2 5
M  V30 5 1 3 6
M  V30 6 1 4 7
M  V30 7 2 5 8
M  V30 8 2 6 9
M  V30 9 1 6 10
M  V30 10 2 7 11
M  V30 11 1 9 12
M  V30 12 2 10 13
M  V30 13 2 12 14
M  V30 14 1 14 15
M  V30 15 2 15 16
M  V30 16 1 15 17
M  V30 17 1 17 18
M  V30 18 1 17 19
M  V30 19 1 18 20
M  V30 20 1 18 21
M  V30 21 1 19 22
M  V30 22 2 20 23
M  V30 23 1 20 24
M  V30 24 1 23 25
M  V30 25 2 24 26
M  V30 26 2 25 27
M  V30 27 1 8 11
M  V30 28 1 13 14
M  V30 29 1 21 22
M  V30 30 1 26 27
M  V30 31 1 3 28
M  V30 32 1 3 29
M  V30 33 1 5 30
M  V30 34 1 7 31
M  V30 35 1 8 32
M  V30 36 1 9 33
M  V30 37 1 10 34
M  V30 38 1 11 35
M  V30 39 1 12 36
M  V30 40 1 13 37
M  V30 41 1 18 38
M  V30 42 1 19 39
M  V30 43 1 19 40
M  V30 44 1 21 41
M  V30 45 1 21 42
M  V30 46 1 22 43
M  V30 47 1 22 44
M  V30 48 1 24 45
M  V30 49 1 25 46
M  V30 50 1 26 47
M  V30 51 1 27 48
M  V30 END BOND
M  V30 BEGIN COLLECTION
M  V30 MDLV30/STEABS ATOMS=(1 18)
M  V30 END COLLECTION
M  V30 END CTAB
M  END
>  <NO.>
4097

>  <Name>
amikacin

>  <SMILES>
O=C(c1ccc(CSc2ccccn2)cc1)N1CCC[C@H]1c1ccccn1

>  <logBB>


>  <Class>
1

>  <MW>
375.14

>  <nHBAcc>
4

>  <nHBDon>
0

>  <SLogP>
4.75

>  <TopoPSA>
46.09

>  <MMFF94 Energy>
63.722

$$$$
O=C(c1cccc(-c2ccco2)c1)N(Cc1ccccn1)C[C@@H]1CCCO1
Actelion Java MolfileCreator 2.0

  0  0  0  0  0  0              0 V3000
M  V30 BEGIN CTAB
M  V30 COUNTS 49 52 0 0 0
M  V30 BEGIN ATOM
M  V30 1 O 0.2398 1.9202 -1.4399 0
M  V30 2 C 0.2107 1.1238 -0.505 0
M  V30 3 N -0.9298 0.4499 -0.0773 0
M  V30 4 C 1.4787 0.8828 0.2063 0
M  V30 5 C -0.9237 -0.6574 0.892 0
M  V30 6 C -2.2322 0.9014 -0.5929 0
M  V30 7 C 2.5179 0.2212 -0.4546 0
M  V30 8 C 1.6355 1.347 1.5144 0
M  V30 9 C -1.5687 -1.9191 0.3558 0
M  V30 10 C -3.15 1.4916 0.4989 0 CFG=1
M  V30 11 C 3.7313 -0.0193 0.2044 0
M  V30 12 C 2.8382 1.1191 2.1759 0
M  V30 13 N -2.8133 -2.2272 0.8053 0
M  V30 14 C -0.9019 -2.6946 -0.5916 0
M  V30 15 O -2.478 2.5766 1.1746 0
M  V30 16 C -4.4253 2.0875 -0.0798 0
M  V30 17 C 4.8239 -0.7259 -0.4598 0
M  V30 18 C 3.8748 0.438 1.5264 0
M  V30 19 C -3.392 -3.3426 0.3082 0
M  V30 20 C -1.5267 -3.8358 -1.0856 0
M  V30 21 C -3.0814 3.8159 0.7798 0
M  V30 22 C -4.0245 3.5138 -0.3637 0
M  V30 23 O 4.527 -1.3092 -1.6616 0
M  V30 24 C 6.1495 -0.9704 -0.1527 0
M  V30 25 C -2.7951 -4.1699 -0.6276 0
M  V30 26 C 5.6563 -1.9105 -2.1132 0
M  V30 27 C 6.6847 -1.7324 -1.2204 0
M  V30 28 H 0.0909 -0.9179 1.2039 0
M  V30 29 H -1.445 -0.3207 1.7949 0
M  V30 30 H -2.7236 0.0568 -1.0879 0
M  V30 31 H -2.065 1.6579 -1.3666 0
M  V30 32 H 2.3721 -0.0973 -1.4846 0
M  V30 33 H 0.8282 1.8861 2.0057 0
M  V30 34 H -3.3928 0.7259 1.2423 0
M  V30 35 H 2.9748 1.4742 3.1945 0
M  V30 36 H 0.0846 -2.4116 -0.946 0
M  V30 37 H -4.8043 1.5563 -0.9573 0
M  V30 38 H -5.2121 2.0811 0.6847 0
M  V30 39 H 4.802 0.2719 2.0703 0
M  V30 40 H -4.3834 -3.561 0.6949 0
M  V30 41 H -1.0278 -4.456 -1.8248 0
M  V30 42 H -2.3029 4.5324 0.5028 0
M  V30 43 H -3.6247 4.2105 1.6451 0
M  V30 44 H -4.8703 4.2053 -0.41 0
M  V30 45 H -3.4891 3.5728 -1.318 0
M  V30 46 H 6.6734 -0.6356 0.731 0
M  V30 47 H -3.3078 -5.0523 -0.9933 0
M  V30 48 H 5.5686 -2.4126 -3.0665 0
M  V30 49 H 7.6944 -2.103 -1.3267 0
M  V30 END ATOM
M  V30 BEGIN BOND
M  V30 1 2 1 2
M  V30 2 1 2 3
M  V30 3 1 2 4
M  V30 4 1 3 5
M  V30 5 1 3 6
M  V30 6 2 4 7
M  V30 7 1 4 8
M  V30 8 1 5 9
M  V30 9 1 6 10
M  V30 10 1 7 11
M  V30 11 2 8 12
M  V30 12 2 9 13
M  V30 13 1 9 14
M  V30 14 1 10 15
M  V30 15 1 10 16
M  V30 16 1 11 17
M  V30 17 2 11 18
M  V30 18 1 13 19
M  V30 19 2 14 20
M  V30 20 1 15 21
M  V30 21 1 16 22
M  V30 22 1 17 23
M  V30 23 2 17 24
M  V30 24 2 19 25
M  V30 25 1 23 26
M  V30 26 1 24 27
M  V30 27 1 12 18
M  V30 28 1 20 25
M  V30 29 1 21 22
M  V30 30 2 26 27
M  V30 31 1 5 28
M  V30 32 1 5 29
M  V30 33 1 6 30
M  V30 34 1 6 31
M  V30 35 1 7 32
M  V30 36 1 8 33
M  V30 37 1 10 34
M  V30 38 1 12 35
M  V30 39 1 14 36
M  V30 40 1 16 37
M  V30 41 1 16 38
M  V30 42 1 18 39
M  V30 43 1 19 40
M  V30 44 1 20 41
M  V30 45 1 21 42
M  V30 46 1 21 43
M  V30 47 1 22 44
M  V30 48 1 22 45
M  V30 49 1 24 46
M  V30 50 1 25 47
M  V30 51 1 26 48
M  V30 52 1 27 49
M  V30 END BOND
M  V30 BEGIN COLLECTION
M  V30 MDLV30/STEABS ATOMS=(1 10)
M  V30 END COLLECTION
M  V30 END CTAB
M  END
>  <NO.>
4098

>  <Name>
etoposide

>  <SMILES>
O=C(c1cccc(-c2ccco2)c1)N(Cc1ccccn1)C[C@@H]1CCCO1

>  <logBB>


>  <Class>
-1

>  <MW>
362.16

>  <nHBAcc>
4

>  <nHBDon>
0

>  <SLogP>
4.16

>  <TopoPSA>
55.57

>  <MMFF94 Energy>
73.934

$$$$
O=C(c1cccc(OC(F)F)c1)N1CCn2nc([C@@H](O)C3CC3)cc2C1
Actelion Java MolfileCreator 2.0

  0  0  0  0  0  0              0 V3000
M  V30 BEGIN CTAB
M  V30 COUNTS 45 48 0 0 0
M  V30 BEGIN ATOM
M  V30 1 F -2.1737 2.4961 -4.7547 0
M  V30 2 C -2.8421 1.3773 -4.3802 0
M  V30 3 F -2.5303 0.4183 -5.2881 0
M  V30 4 O -2.3532 0.9427 -3.1221 0
M  V30 5 C -2.7208 1.6824 -2.0335 0
M  V30 6 C -2.5014 1.0566 -0.8042 0
M  V30 7 C -3.2563 2.9737 -2.0599 0
M  V30 8 C -2.8186 1.7209 0.385 0
M  V30 9 C -3.5961 3.6235 -0.8674 0
M  V30 10 C -2.6204 1.0521 1.6845 0
M  V30 11 C -3.3877 2.9945 0.3583 0
M  V30 12 O -3.6254 0.7957 2.3425 0
M  V30 13 N -1.331 0.7424 2.0972 0
M  V30 14 C -0.0974 1.1964 1.4523 0
M  V30 15 C -1.1463 -0.0248 3.3327 0
M  V30 16 C 0.8689 0.069 1.3897 0
M  V30 17 C -0.3951 -1.3181 3.0448 0
M  V30 18 N 0.7255 -1.0516 2.1617 0
M  V30 19 C 2.0211 -0.1296 0.6617 0
M  V30 20 N 1.7018 -1.96 1.9943 0
M  V30 21 C 2.5004 -1.3994 1.0673 0
M  V30 22 C 3.7355 -2.1258 0.5916 0 CFG=1
M  V30 23 O 4.1112 -3.154 1.517 0
M  V30 24 C 3.5693 -2.7766 -0.7555 0
M  V30 25 C 3.8856 -2.0296 -2.0294 0
M  V30 26 C 4.7779 -3.1526 -1.5783 0
M  V30 27 H -3.9252 1.5424 -4.3953 0
M  V30 28 H -2.0895 0.0503 -0.7735 0
M  V30 29 H -3.4136 3.5137 -2.9896 0
M  V30 30 H -4.0245 4.6232 -0.8969 0
M  V30 31 H -3.6664 3.491 1.2849 0
M  V30 32 H -0.2705 1.6151 0.4604 0
M  V30 33 H 0.3136 1.9992 2.0758 0
M  V30 34 H -0.5765 0.6081 4.0246 0
M  V30 35 H -2.1021 -0.2534 3.8145 0
M  V30 36 H -0.0144 -1.77 3.9658 0
M  V30 37 H -1.0354 -2.0369 2.5217 0
M  V30 38 H 2.4619 0.5409 -0.0628 0
M  V30 39 H 4.5677 -1.4119 0.5682 0
M  V30 40 H 3.3037 -3.2821 2.0568 0
M  V30 41 H 2.7337 -3.4689 -0.765 0
M  V30 42 H 4.2747 -1.0202 -1.964 0
M  V30 43 H 3.2462 -2.2034 -2.8878 0
M  V30 44 H 5.7599 -2.9072 -1.1892 0
M  V30 45 H 4.7416 -4.0883 -2.1247 0
M  V30 END ATOM
M  V30 BEGIN BOND
M  V30 1 1 1 2
M  V30 2 1 2 3
M  V30 3 1 2 4
M  V30 4 1 4 5
M  V30 5 2 5 6
M  V30 6 1 5 7
M  V30 7 1 6 8
M  V30 8 2 7 9
M  V30 9 1 8 10
M  V30 10 2 8 11
M  V30 11 2 10 12
M  V30 12 1 10 13
M  V30 13 1 13 14
M  V30 14 1 13 15
M  V30 15 1 14 16
M  V30 16 1 15 17
M  V30 17 1 16 18
M  V30 18 2 16 19
M  V30 19 1 18 20
M  V30 20 1 19 21
M  V30 21 1 21 22
M  V30 22 1 22 23
M  V30 23 1 22 24
M  V30 24 1 24 25
M  V30 25 1 24 26
M  V30 26 1 9 11
M  V30 27 1 17 18
M  V30 28 2 20 21
M  V30 29 1 25 26
M  V30 30 1 2 27
M  V30 31 1 6 28
M  V30 32 1 7 29
M  V30 33 1 9 30
M  V30 34 1 11 31
M  V30 35 1 14 32
M  V30 36 1 14 33
M  V30 37 1 15 34
M  V30 38 1 15 35
M  V30 39 1 17 36
M  V30 40 1 17 37
M  V30 41 1 19 38
M  V30 42 1 22 39
M  V30 43 1 23 40
M  V30 44 1 24 41
M  V30 45 1 25 42
M  V30 46 1 25 43
M  V30 47 1 26 44
M  V30 48 1 26 45
M  V30 END BOND
M  V30 BEGIN COLLECTION
M  V30 MDLV30/STEABS ATOMS=(1 22)
M  V30 END COLLECTION
M  V30 END CTAB
M  END
>  <NO.>
4099

>  <Name>
flunitrazepam

>  <SMILES>
O=C(c1cccc(OC(F)F)c1)N1CCn2nc([C@@H](O)C3CC3)cc2C1

>  <logBB>


>  <Class>
1

>  <MW>
363.14

>  <nHBAcc>
4

>  <nHBDon>
1

>  <SLogP>
2.58

>  <TopoPSA>
67.59

>  <MMFF94 Energy>
53.471

$$$$
O=C(c1n[nH]c2c1CCCCC2)N1CCCC[C@H]1c1cccnc1
Actelion Java MolfileCreator 2.0

  0  0  0  0  0  0              0 V3000
M  V30 BEGIN CTAB
M  V30 COUNTS 48 51 0 0 0
M  V30 BEGIN ATOM
M  V30 1 O -0.9577 2.3957 1.5167 0
M  V30 2 C -0.7709 1.1794 1.4337 0
M  V30 3 N -1.8548 0.2828 1.3281 0
M  V30 4 C 0.6094 0.6522 1.4006 0
M  V30 5 C -1.704 -1.1102 0.8667 0 CFG=2
M  V30 6 C -3.1924 0.8677 1.3865 0
M  V30 7 N 1.027 -0.3525 2.1975 0
M  V30 8 C 1.6886 1.1457 0.6024 0
M  V30 9 C -1.3931 -1.2017 -0.6192 0
M  V30 10 C -2.8608 -2.0374 1.2923 0
M  V30 11 C -4.2479 -0.0766 1.941 0
M  V30 12 N 2.3348 -0.4701 1.9314 0
M  V30 13 C 2.7783 0.3819 0.9648 0
M  V30 14 C 1.6666 2.2386 -0.4095 0
M  V30 15 C -2.2353 -0.7089 -1.6099 0
M  V30 16 C -0.2052 -1.8063 -1.055 0
M  V30 17 C -4.2415 -1.4032 1.2008 0
M  V30 18 C 4.1839 0.4108 0.4888 0
M  V30 19 C 2.2701 1.8287 -1.7551 0
M  V30 20 N -1.9843 -0.7812 -2.9392 0
M  V30 21 C 0.0851 -1.8907 -2.4137 0
M  V30 22 C 4.2775 0.3637 -1.0367 0
M  V30 23 C 3.7908 1.6356 -1.741 0
M  V30 24 C -0.8286 -1.3683 -3.3096 0
M  V30 25 H -0.8387 -1.5297 1.384 0
M  V30 26 H -3.459 1.1886 0.3738 0
M  V30 27 H -3.1784 1.7734 2.0038 0
M  V30 28 H -2.6998 -2.3122 2.3444 0
M  V30 29 H -2.841 -2.9765 0.7263 0
M  V30 30 H -4.0558 -0.2536 3.0068 0
M  V30 31 H -5.2373 0.3881 1.8662 0
M  V30 32 H 2.8683 -1.1611 2.4487 0
M  V30 33 H 2.1957 3.1126 -0.0105 0
M  V30 34 H 0.633 2.555 -0.5906 0
M  V30 35 H -3.1728 -0.2182 -1.373 0
M  V30 36 H 0.5066 -2.2058 -0.3357 0
M  V30 37 H -4.5347 -1.2585 0.1563 0
M  V30 38 H -4.9839 -2.0761 1.645 0
M  V30 39 H 4.7305 -0.448 0.8976 0
M  V30 40 H 4.6808 1.3111 0.8695 0
M  V30 41 H 1.7833 0.9209 -2.1319 0
M  V30 42 H 2.0447 2.6252 -2.4758 0
M  V30 43 H 1.0029 -2.3495 -2.7621 0
M  V30 44 H 5.3332 0.2213 -1.3006 0
M  V30 45 H 3.7374 -0.5077 -1.4279 0
M  V30 46 H 4.1238 1.58 -2.7854 0
M  V30 47 H 4.2791 2.5172 -1.3086 0
M  V30 48 H -0.6507 -1.4078 -4.3801 0
M  V30 END ATOM
M  V30 BEGIN BOND
M  V30 1 2 1 2
M  V30 2 1 2 3
M  V30 3 1 2 4
M  V30 4 1 3 5
M  V30 5 1 3 6
M  V30 6 2 4 7
M  V30 7 1 4 8
M  V30 8 1 5 9
M  V30 9 1 5 10
M  V30 10 1 6 11
M  V30 11 1 7 12
M  V30 12 2 8 13
M  V30 13 1 8 14
M  V30 14 2 9 15
M  V30 15 1 9 16
M  V30 16 1 10 17
M  V30 17 1 13 18
M  V30 18 1 14 19
M  V30 19 1 15 20
M  V30 20 2 16 21
M  V30 21 1 18 22
M  V30 22 1 19 23
M  V30 23 2 20 24
M  V30 24 1 11 17
M  V30 25 1 12 13
M  V30 26 1 21 24
M  V30 27 1 22 23
M  V30 28 1 5 25
M  V30 29 1 6 26
M  V30 30 1 6 27
M  V30 31 1 10 28
M  V30 32 1 10 29
M  V30 33 1 11 30
M  V30 34 1 11 31
M  V30 35 1 12 32
M  V30 36 1 14 33
M  V30 37 1 14 34
M  V30 38 1 15 35
M  V30 39 1 16 36
M  V30 40 1 17 37
M  V30 41 1 17 38
M  V30 42 1 18 39
M  V30 43 1 18 40
M  V30 44 1 19 41
M  V30 45 1 19 42
M  V30 46 1 21 43
M  V30 47 1 22 44
M  V30 48 1 22 45
M  V30 49 1 23 46
M  V30 50 1 23 47
M  V30 51 1 24 48
M  V30 END BOND
M  V30 BEGIN COLLECTION
M  V30 MDLV30/STEABS ATOMS=(1 5)
M  V30 END COLLECTION
M  V30 END CTAB
M  END
>  <NO.>
4100

>  <Name>
digoxin

>  <SMILES>
O=C(c1n[nH]c2c1CCCCC2)N1CCCC[C@H]1c1cccnc1

>  <logBB>


>  <Class>
-1

>  <MW>
324.2

>  <nHBAcc>
3

>  <nHBDon>
1

>  <SLogP>
3.44

>  <TopoPSA>
61.88

>  <MMFF94 Energy>
58.224

$$$$
O=C1CCC(C(=O)N[C@@H](c2ccc(F)cc2)C2CC(O)C2)=NN1
Actelion Java MolfileCreator 2.0

  0  0  0  0  0  0              0 V3000
M  V30 BEGIN CTAB
M  V30 COUNTS 41 43 0 0 0
M  V30 BEGIN ATOM
M  V30 1 F 3.774 2.729 4.4174 0
M  V30 2 C 2.9677 2.4243 3.3922 0
M  V30 3 C 2.1387 3.4011 2.8586 0
M  V30 4 C 2.974 1.1356 2.8757 0
M  V30 5 C 1.2999 3.0824 1.7887 0
M  V30 6 C 2.1353 0.815 1.8051 0
M  V30 7 C 1.2813 1.7829 1.2468 0
M  V30 8 C 0.3655 1.4915 0.0685 0 CFG=2
M  V30 9 N -0.3114 0.2243 0.1992 0
M  V30 10 C 1.1748 1.503 -1.2415 0
M  V30 11 C -1.6422 0.0495 -0.0889 0
M  V30 12 C 2.0361 0.284 -1.6736 0
M  V30 13 C 0.3881 1.3486 -2.5696 0
M  V30 14 O -2.4398 0.9254 -0.3813 0
M  V30 15 C -2.0848 -1.4102 -0.032 0
M  V30 16 C 0.9948 -0.0529 -2.7578 0
M  V30 17 N -1.3311 -2.2673 0.5987 0
M  V30 18 C -3.3234 -1.7859 -0.7926 0
M  V30 19 O 0.1226 -1.1646 -2.4721 0
M  V30 20 N -1.7449 -3.5681 0.6102 0
M  V30 21 C -3.9892 -2.9681 -0.1258 0
M  V30 22 C -2.983 -4.0279 0.2318 0
M  V30 23 O -3.2625 -5.2235 0.2581 0
M  V30 24 H 2.1483 4.4025 3.2774 0
M  V30 25 H 3.6304 0.388 3.3095 0
M  V30 26 H 0.6537 3.858 1.3803 0
M  V30 27 H 2.1596 -0.2001 1.4194 0
M  V30 28 H -0.3947 2.281 0.0142 0
M  V30 29 H 0.2036 -0.6208 0.4168 0
M  V30 30 H 1.7645 2.4332 -1.271 0
M  V30 31 H 3.0141 0.5628 -2.0834 0
M  V30 32 H 2.1921 -0.4985 -0.9271 0
M  V30 33 H -0.702 1.3853 -2.4969 0
M  V30 34 H 0.6967 2.0599 -3.3453 0
M  V30 35 H 1.4389 -0.1873 -3.7512 0
M  V30 36 H -4.0229 -0.9468 -0.8459 0
M  V30 37 H -3.0167 -2.0393 -1.8139 0
M  V30 38 H 0.6665 -1.9557 -2.6335 0
M  V30 39 H -1.0836 -4.2581 0.9542 0
M  V30 40 H -4.7475 -3.3979 -0.7883 0
M  V30 41 H -4.4813 -2.6566 0.803 0
M  V30 END ATOM
M  V30 BEGIN BOND
M  V30 1 1 1 2
M  V30 2 2 2 3
M  V30 3 1 2 4
M  V30 4 1 3 5
M  V30 5 2 4 6
M  V30 6 2 5 7
M  V30 7 1 7 8
M  V30 8 1 8 9
M  V30 9 1 8 10
M  V30 10 1 9 11
M  V30 11 1 10 12
M  V30 12 1 10 13
M  V30 13 2 11 14
M  V30 14 1 11 15
M  V30 15 1 12 16
M  V30 16 2 15 17
M  V30 17 1 15 18
M  V30 18 1 16 19
M  V30 19 1 17 20
M  V30 20 1 18 21
M  V30 21 1 20 22
M  V30 22 2 22 23
M  V30 23 1 6 7
M  V30 24 1 13 16
M  V30 25 1 21 22
M  V30 26 1 3 24
M  V30 27 1 4 25
M  V30 28 1 5 26
M  V30 29 1 6 27
M  V30 30 1 8 28
M  V30 31 1 9 29
M  V30 32 1 10 30
M  V30 33 1 12 31
M  V30 34 1 12 32
M  V30 35 1 13 33
M  V30 36 1 13 34
M  V30 37 1 16 35
M  V30 38 1 18 36
M  V30 39 1 18 37
M  V30 40 1 19 38
M  V30 41 1 20 39
M  V30 42 1 21 40
M  V30 43 1 21 41
M  V30 END BOND
M  V30 BEGIN COLLECTION
M  V30 MDLV30/STEABS ATOMS=(1 8)
M  V30 END COLLECTION
M  V30 END CTAB
M  END
>  <NO.>
4101

>  <Name>
meprobamate

>  <SMILES>
O=C1CCC(C(=O)N[C@@H](c2ccc(F)cc2)C2CC(O)C2)=NN1

>  <logBB>


>  <Class>
1

>  <MW>
319.13

>  <nHBAcc>
4

>  <nHBDon>
3

>  <SLogP>
1.02

>  <TopoPSA>
90.79

>  <MMFF94 Energy>
63.12

$$$$
O=C1C[C@@H](c2cccnc2)c2c(ccc3c2OC2(CCCCC2)CC3=O)O1
Actelion Java MolfileCreator 2.0

  0  0  0  0  0  0              0 V3000
M  V30 BEGIN CTAB
M  V30 COUNTS 48 52 0 0 0
M  V30 BEGIN ATOM
M  V30 1 O -4.6285 -1.9469 -2.1092 0
M  V30 2 C -3.4563 -1.638 -1.9241 0
M  V30 3 O -2.4206 -2.516 -2.2113 0
M  V30 4 C -3.0374 -0.2629 -1.4905 0
M  V30 5 C -1.0875 -2.2243 -1.8684 0
M  V30 6 C -1.878 -0.2817 -0.4989 0 CFG=2
M  V30 7 C -0.7702 -1.1642 -1.0171 0
M  V30 8 C -0.1118 -3.0804 -2.3753 0
M  V30 9 C -2.3226 -0.6016 0.9164 0
M  V30 10 C 0.5742 -0.9666 -0.6666 0
M  V30 11 C 1.2198 -2.8808 -2.0198 0
M  V30 12 C -2.5764 -1.8966 1.3647 0
M  V30 13 C -2.5132 0.4331 1.8419 0
M  V30 14 O 0.8474 0.081 0.1692 0
M  V30 15 C 1.5556 -1.8312 -1.1575 0
M  V30 16 N -2.9828 -2.2049 2.6178 0
M  V30 17 C -2.931 0.1446 3.138 0
M  V30 18 C 2.2118 0.5412 0.2065 0
M  V30 19 C 2.9522 -1.645 -0.7266 0
M  V30 20 C -3.1511 -1.1781 3.4754 0
M  V30 21 C 3.1836 -0.6317 0.3563 0
M  V30 22 C 2.5197 1.4043 -1.0413 0
M  V30 23 C 2.3221 1.4296 1.468 0
M  V30 24 O 3.856 -2.3278 -1.196 0
M  V30 25 C 1.6335 2.6486 -1.1241 0
M  V30 26 C 1.4411 2.6781 1.3897 0
M  V30 27 C 1.7366 3.4962 0.1384 0
M  V30 28 H -3.9062 0.2496 -1.0602 0
M  V30 29 H -2.7551 0.2805 -2.4015 0
M  V30 30 H -1.488 0.7467 -0.4944 0
M  V30 31 H -0.3868 -3.9055 -3.0275 0
M  V30 32 H 1.9891 -3.5523 -2.3963 0
M  V30 33 H -2.4593 -2.7637 0.7205 0
M  V30 34 H -2.334 1.4688 1.5628 0
M  V30 35 H -3.0813 0.9329 3.8669 0
M  V30 36 H -3.4784 -1.4562 4.473 0
M  V30 37 H 3.0371 -1.1502 1.3117 0
M  V30 38 H 4.2216 -0.2843 0.3051 0
M  V30 39 H 3.5719 1.7159 -1.0234 0
M  V30 40 H 2.3752 0.8306 -1.9637 0
M  V30 41 H 3.3648 1.7368 1.6196 0
M  V30 42 H 2.0191 0.8581 2.3546 0
M  V30 43 H 0.5899 2.3522 -1.2844 0
M  V30 44 H 1.9279 3.2493 -1.9923 0
M  V30 45 H 0.3833 2.3884 1.3972 0
M  V30 46 H 1.6042 3.297 2.2794 0
M  V30 47 H 1.0401 4.3399 0.0753 0
M  V30 48 H 2.7456 3.9203 0.2108 0
M  V30 END ATOM
M  V30 BEGIN BOND
M  V30 1 2 1 2
M  V30 2 1 2 3
M  V30 3 1 2 4
M  V30 4 1 3 5
M  V30 5 1 4 6
M  V30 6 2 5 7
M  V30 7 1 5 8
M  V30 8 1 6 9
M  V30 9 1 7 10
M  V30 10 2 8 11
M  V30 11 2 9 12
M  V30 12 1 9 13
M  V30 13 1 10 14
M  V30 14 2 10 15
M  V30 15 1 12 16
M  V30 16 2 13 17
M  V30 17 1 14 18
M  V30 18 1 15 19
M  V30 19 2 16 20
M  V30 20 1 18 21
M  V30 21 1 18 22
M  V30 22 1 18 23
M  V30 23 2 19 24
M  V30 24 1 22 25
M  V30 25 1 23 26
M  V30 26 1 25 27
M  V30 27 1 6 7
M  V30 28 1 11 15
M  V30 29 1 17 20
M  V30 30 1 19 21
M  V30 31 1 26 27
M  V30 32 1 4 28
M  V30 33 1 4 29
M  V30 34 1 6 30
M  V30 35 1 8 31
M  V30 36 1 11 32
M  V30 37 1 12 33
M  V30 38 1 13 34
M  V30 39 1 17 35
M  V30 40 1 20 36
M  V30 41 1 21 37
M  V30 42 1 21 38
M  V30 43 1 22 39
M  V30 44 1 22 40
M  V30 45 1 23 41
M  V30 46 1 23 42
M  V30 47 1 25 43
M  V30 48 1 25 44
M  V30 49 1 26 45
M  V30 50 1 26 46
M  V30 51 1 27 47
M  V30 52 1 27 48
M  V30 END BOND
M  V30 BEGIN COLLECTION
M  V30 MDLV30/STEABS ATOMS=(1 6)
M  V30 END COLLECTION
M  V30 END CTAB
M  END
>  <NO.>
4102

>  <Name>
phenazopyridine

>  <SMILES>
O=C1C[C@@H](c2cccnc2)c2c(ccc3c2OC2(CCCCC2)CC3=O)O1

>  <logBB>


>  <Class>
-1

>  <MW>
363.15

>  <nHBAcc>
5

>  <nHBDon>
0

>  <SLogP>
4.19

>  <TopoPSA>
65.49

>  <MMFF94 Energy>
56.788

$$$$
O=C[C@@H]1[C@@H](S(=O)(=O)c2ccc(Cl)cc2)[C@H]1c1ccccc1
Actelion Java MolfileCreator 2.0

  0  0  0  0  0  0              0 V3000
M  V30 BEGIN CTAB
M  V30 COUNTS 34 36 0 0 0
M  V30 BEGIN ATOM
M  V30 1 Cl 1.4967 -0.3324 5.079 0
M  V30 2 C 1.1379 0.3632 3.5474 0
M  V30 3 C -0.1908 0.515 3.1508 0
M  V30 4 C 2.1798 0.7716 2.7128 0
M  V30 5 C -0.4843 1.0718 1.9046 0
M  V30 6 C 1.8936 1.327 1.4641 0
M  V30 7 C 0.5606 1.4603 1.0614 0
M  V30 8 S 0.2043 2.1532 -0.5319 0
M  V30 9 O -1.2308 2.1608 -0.7269 0
M  V30 10 O 0.9734 3.3788 -0.6274 0
M  V30 11 C 0.9657 1.0296 -1.7278 0 CFG=1
M  V30 12 C 0.4501 -0.3628 -1.9088 0 CFG=2
M  V30 13 C 0.0614 0.7179 -2.907 0 CFG=2
M  V30 14 C -0.521 -1.0269 -0.9599 0
M  V30 15 C 0.6585 0.6908 -4.262 0
M  V30 16 C -1.9168 -0.9072 -1.0591 0
M  V30 17 C -0.0332 -1.9373 -0.0017 0
M  V30 18 O -0.0109 0.968 -5.2472 0
M  V30 19 C -2.7772 -1.5986 -0.1995 0
M  V30 20 C -0.8861 -2.6328 0.86 0
M  V30 21 C -2.2611 -2.4569 0.7646 0
M  V30 22 H -1.0014 0.1996 3.8029 0
M  V30 23 H 3.213 0.6656 3.0342 0
M  V30 24 H -1.5225 1.1822 1.5972 0
M  V30 25 H 2.7074 1.6627 0.8258 0
M  V30 26 H 2.0172 1.206 -1.9082 0
M  V30 27 H 1.2111 -1.0619 -2.2637 0
M  V30 28 H -0.9523 1.0996 -2.8986 0
M  V30 29 H 1.7225 0.4122 -4.3426 0
M  V30 30 H -2.3643 -0.2574 -1.8082 0
M  V30 31 H 1.0388 -2.1033 0.0884 0
M  V30 32 H -3.8526 -1.4671 -0.2926 0
M  V30 33 H -0.4744 -3.3137 1.6005 0
M  V30 34 H -2.9299 -2.996 1.4301 0
M  V30 END ATOM
M  V30 BEGIN BOND
M  V30 1 1 1 2
M  V30 2 2 2 3
M  V30 3 1 2 4
M  V30 4 1 3 5
M  V30 5 2 4 6
M  V30 6 2 5 7
M  V30 7 1 7 8
M  V30 8 2 8 9
M  V30 9 2 8 10
M  V30 10 1 8 11
M  V30 11 1 11 12
M  V30 12 1 11 13
M  V30 13 1 12 14
M  V30 14 1 13 15
M  V30 15 2 14 16
M  V30 16 1 14 17
M  V30 17 2 15 18
M  V30 18 1 16 19
M  V30 19 2 17 20
M  V30 20 2 19 21
M  V30 21 1 6 7
M  V30 22 1 12 13
M  V30 23 1 20 21
M  V30 24 1 3 22
M  V30 25 1 4 23
M  V30 26 1 5 24
M  V30 27 1 6 25
M  V30 28 1 11 26
M  V30 29 1 12 27
M  V30 30 1 13 28
M  V30 31 1 15 29
M  V30 32 1 16 30
M  V30 33 1 17 31
M  V30 34 1 19 32
M  V30 35 1 20 33
M  V30 36 1 21 34
M  V30 END BOND
M  V30 BEGIN COLLECTION
M  V30 MDLV30/STEABS ATOMS=(3 11 12 13)
M  V30 END COLLECTION
M  V30 END CTAB
M  END
>  <NO.>
4103

>  <Name>
chlorzoxazone

>  <SMILES>
O=C[C@@H]1[C@@H](S(=O)(=O)c2ccc(Cl)cc2)[C@H]1c1ccccc1

>  <logBB>


>  <Class>
1

>  <MW>
320.03

>  <nHBAcc>
3

>  <nHBDon>
0

>  <SLogP>
3.09

>  <TopoPSA>
51.21

>  <MMFF94 Energy>
63.103

$$$$
O=S(=O)(c1ccc(Cl)cc1)[C@@H]1[C@H](CO)[C@H]1c1ccccc1
Actelion Java MolfileCreator 2.0

  0  0  0  0  0  0              0 V3000
M  V30 BEGIN CTAB
M  V30 COUNTS 36 38 0 0 0
M  V30 BEGIN ATOM
M  V30 1 Cl -5.4536 -0.7423 -4.0468 0
M  V30 2 C -4.3682 -0.2553 -2.8043 0
M  V30 3 C -3.4146 0.7297 -3.0659 0
M  V30 4 C -4.4523 -0.8443 -1.5417 0
M  V30 5 C -2.5315 1.127 -2.0597 0
M  V30 6 C -3.5729 -0.4513 -0.5302 0
M  V30 7 C -2.6077 0.5236 -0.7996 0
M  V30 8 S -1.4894 1.0442 0.478 0
M  V30 9 O -1.2777 2.4683 0.3112 0
M  V30 10 O -1.9585 0.5004 1.7357 0
M  V30 11 C 0.0676 0.2545 0.0256 0 CFG=1
M  V30 12 C 1.0172 0.1036 1.1968 0 CFG=1
M  V30 13 C 0.4099 -1.1217 0.5384 0 CFG=1
M  V30 14 C 2.4758 0.4466 1.0055 0
M  V30 15 C -0.5043 -2.0111 1.308 0
M  V30 16 C 2.8638 1.7489 0.6456 0
M  V30 17 C 3.4829 -0.5299 1.0756 0
M  V30 18 O 0.2068 -3.1954 1.6459 0
M  V30 19 C 4.2017 2.0713 0.4039 0
M  V30 20 C 4.8228 -0.2139 0.8343 0
M  V30 21 C 5.1819 1.0886 0.5009 0
M  V30 22 H -3.3609 1.1952 -4.0472 0
M  V30 23 H -5.2037 -1.6039 -1.3385 0
M  V30 24 H -1.8017 1.9084 -2.2625 0
M  V30 25 H -3.6545 -0.9045 0.4557 0
M  V30 26 H 0.4756 0.5489 -0.9323 0
M  V30 27 H 0.6356 0.3547 2.1864 0
M  V30 28 H 1.0201 -1.7122 -0.1405 0
M  V30 29 H -1.3587 -2.3036 0.6919 0
M  V30 30 H -0.8698 -1.5745 2.2401 0
M  V30 31 H 2.1111 2.5318 0.5615 0
M  V30 32 H 3.2241 -1.5566 1.3259 0
M  V30 33 H 0.8459 -2.9503 2.3373 0
M  V30 34 H 4.475 3.0895 0.1391 0
M  V30 35 H 5.5837 -0.9869 0.9041 0
M  V30 36 H 6.2233 1.3366 0.3134 0
M  V30 END ATOM
M  V30 BEGIN BOND
M  V30 1 1 1 2
M  V30 2 2 2 3
M  V30 3 1 2 4
M  V30 4 1 3 5
M  V30 5 2 4 6
M  V30 6 2 5 7
M  V30 7 1 7 8
M  V30 8 2 8 9
M  V30 9 2 8 10
M  V30 10 1 8 11
M  V30 11 1 11 12
M  V30 12 1 11 13
M  V30 13 1 12 14
M  V30 14 1 13 15
M  V30 15 2 14 16
M  V30 16 1 14 17
M  V30 17 1 15 18
M  V30 18 1 16 19
M  V30 19 2 17 20
M  V30 20 2 19 21
M  V30 21 1 6 7
M  V30 22 1 12 13
M  V30 23 1 20 21
M  V30 24 1 3 22
M  V30 25 1 4 23
M  V30 26 1 5 24
M  V30 27 1 6 25
M  V30 28 1 11 26
M  V30 29 1 12 27
M  V30 30 1 13 28
M  V30 31 1 15 29
M  V30 32 1 15 30
M  V30 33 1 16 31
M  V30 34 1 17 32
M  V30 35 1 18 33
M  V30 36 1 19 34
M  V30 37 1 20 35
M  V30 38 1 21 36
M  V30 END BOND
M  V30 BEGIN COLLECTION
M  V30 MDLV30/STEABS ATOMS=(3 11 12 13)
M  V30 END COLLECTION
M  V30 END CTAB
M  END
>  <NO.>
4104

>  <Name>
bcnu

>  <SMILES>
O=S(=O)(c1ccc(Cl)cc1)[C@@H]1[C@H](CO)[C@H]1c1ccccc1

>  <logBB>


>  <Class>
1

>  <MW>
322.04

>  <nHBAcc>
3

>  <nHBDon>
1

>  <SLogP>
2.89

>  <TopoPSA>
54.37

>  <MMFF94 Energy>
59.791

$$$$
OC1CCN(c2ccnc(N[C@H](c3ccccn3)C3CC(O)C3)n2)CC1
Actelion Java MolfileCreator 2.0

  0  0  0  0  0  0              0 V3000
M  V30 BEGIN CTAB
M  V30 COUNTS 51 54 0 0 0
M  V30 BEGIN ATOM
M  V30 1 O -5.344 -0.8758 -4.9444 0
M  V30 2 C -4.0431 -0.9634 -4.3688 0
M  V30 3 C -3.9884 -0.0656 -3.141 0
M  V30 4 C -3.7431 -2.4052 -3.9799 0
M  V30 5 C -2.6336 -0.1706 -2.4521 0
M  V30 6 C -2.3899 -2.5131 -3.2861 0
M  V30 7 N -2.3082 -1.5724 -2.1668 0
M  V30 8 C -1.2726 -1.7666 -1.2441 0
M  V30 9 N -0.4941 -0.7202 -0.9059 0
M  V30 10 C -1.07 -3.0023 -0.6627 0
M  V30 11 C 0.494 -0.9086 -0.0209 0
M  V30 12 C -0.0362 -3.1042 0.2346 0
M  V30 13 N 0.7617 -2.0788 0.56 0
M  V30 14 N 1.2388 0.1987 0.2708 0
M  V30 15 C 2.2184 0.2225 1.3433 0 CFG=2
M  V30 16 C 1.5893 0.3767 2.7272 0
M  V30 17 C 3.2309 1.3446 1.0536 0
M  V30 18 N 2.2726 -0.1697 3.7698 0
M  V30 19 C 0.3854 1.058 2.9225 0
M  V30 20 C 2.8114 2.8417 1.0809 0
M  V30 21 C 4.342 1.7317 2.0719 0
M  V30 22 C 1.7476 -0.0388 5.0075 0
M  V30 23 C -0.1302 1.178 4.2109 0
M  V30 24 C 4.2654 3.1685 1.5006 0
M  V30 25 C 0.5622 0.6202 5.2763 0
M  V30 26 O 4.4244 4.2351 2.4504 0
M  V30 27 H -5.3635 -1.4546 -5.7255 0
M  V30 28 H -3.3235 -0.6136 -5.1185 0
M  V30 29 H -4.7884 -0.3461 -2.4429 0
M  V30 30 H -4.1903 0.9741 -3.4248 0
M  V30 31 H -4.5358 -2.781 -3.3194 0
M  V30 32 H -3.7645 -3.0473 -4.8684 0
M  V30 33 H -1.8574 0.273 -3.0889 0
M  V30 34 H -2.6877 0.4169 -1.5265 0
M  V30 35 H -1.5862 -2.2986 -4.0021 0
M  V30 36 H -2.2671 -3.553 -2.9657 0
M  V30 37 H -1.7045 -3.8523 -0.866 0
M  V30 38 H 0.1818 -4.0405 0.7383 0
M  V30 39 H 0.9236 1.0414 -0.1783 0
M  V30 40 H 2.7832 -0.7196 1.3406 0
M  V30 41 H 3.6983 1.1042 0.0818 0
M  V30 42 H -0.1559 1.4869 2.0861 0
M  V30 43 H 2.0677 3.1155 1.8361 0
M  V30 44 H 2.4985 3.2527 0.1169 0
M  V30 45 H 4.07 1.6756 3.1305 0
M  V30 46 H 5.2979 1.2201 1.9293 0
M  V30 47 H 2.3278 -0.4938 5.8049 0
M  V30 48 H -1.0676 1.7004 4.3779 0
M  V30 49 H 4.9331 3.3164 0.6421 0
M  V30 50 H 0.1872 0.6948 6.2903 0
M  V30 51 H 4.2087 5.0453 1.9586 0
M  V30 END ATOM
M  V30 BEGIN BOND
M  V30 1 1 1 2
M  V30 2 1 2 3
M  V30 3 1 2 4
M  V30 4 1 3 5
M  V30 5 1 4 6
M  V30 6 1 5 7
M  V30 7 1 7 8
M  V30 8 2 8 9
M  V30 9 1 8 10
M  V30 10 1 9 11
M  V30 11 2 10 12
M  V30 12 2 11 13
M  V30 13 1 11 14
M  V30 14 1 14 15
M  V30 15 1 15 16
M  V30 16 1 15 17
M  V30 17 2 16 18
M  V30 18 1 16 19
M  V30 19 1 17 20
M  V30 20 1 17 21
M  V30 21 1 18 22
M  V30 22 2 19 23
M  V30 23 1 20 24
M  V30 24 2 22 25
M  V30 25 1 24 26
M  V30 26 1 6 7
M  V30 27 1 12 13
M  V30 28 1 21 24
M  V30 29 1 23 25
M  V30 30 1 1 27
M  V30 31 1 2 28
M  V30 32 1 3 29
M  V30 33 1 3 30
M  V30 34 1 4 31
M  V30 35 1 4 32
M  V30 36 1 5 33
M  V30 37 1 5 34
M  V30 38 1 6 35
M  V30 39 1 6 36
M  V30 40 1 10 37
M  V30 41 1 12 38
M  V30 42 1 14 39
M  V30 43 1 15 40
M  V30 44 1 17 41
M  V30 45 1 19 42
M  V30 46 1 20 43
M  V30 47 1 20 44
M  V30 48 1 21 45
M  V30 49 1 21 46
M  V30 50 1 22 47
M  V30 51 1 23 48
M  V30 52 1 24 49
M  V30 53 1 25 50
M  V30 54 1 26 51
M  V30 END BOND
M  V30 BEGIN COLLECTION
M  V30 MDLV30/STEABS ATOMS=(1 15)
M  V30 END COLLECTION
M  V30 END CTAB
M  END
>  <NO.>
4105

>  <Name>
abacavir

>  <SMILES>
OC1CCN(c2ccnc(N[C@H](c3ccccn3)C3CC(O)C3)n2)CC1

>  <logBB>


>  <Class>
1

>  <MW>
355.2

>  <nHBAcc>
7

>  <nHBDon>
3

>  <SLogP>
1.76

>  <TopoPSA>
94.4

>  <MMFF94 Energy>
-69.298

$$$$
C1=C(CC2=NCCN2)CCc2ccccc21
Actelion Java MolfileCreator 2.0

  0  0  0  0  0  0              0 V3000
M  V30 BEGIN CTAB
M  V30 COUNTS 32 34 0 0 0
M  V30 BEGIN ATOM
M  V30 1 N 0.2388 -1.4339 -2.9491 0
M  V30 2 C -0.0343 -0.1906 -2.6437 0
M  V30 3 C 1.5162 -1.3624 -3.7196 0
M  V30 4 N 0.8623 0.7409 -3.0752 0
M  V30 5 C -1.2663 0.1816 -1.8466 0
M  V30 6 C 1.9695 0.1046 -3.7239 0
M  V30 7 C -0.9295 0.298 -0.3812 0
M  V30 8 C -1.1113 -0.7304 0.4681 0
M  V30 9 C -0.4411 1.6368 0.1187 0
M  V30 10 C -0.8505 -0.5853 1.9046 0
M  V30 11 C 0.3915 1.5449 1.4045 0
M  V30 12 C -0.1477 0.5339 2.3831 0
M  V30 13 C -1.2891 -1.5619 2.8051 0
M  V30 14 C 0.1142 0.6572 3.754 0
M  V30 15 C -1.0362 -1.4251 4.1715 0
M  V30 16 C -0.336 -0.3169 4.6449 0
M  V30 17 H 2.2684 -2.0055 -3.2514 0
M  V30 18 H 1.3423 -1.7216 -4.7396 0
M  V30 19 H 0.8145 1.7294 -2.8817 0
M  V30 20 H -2.0323 -0.5853 -2.0122 0
M  V30 21 H -1.6729 1.1269 -2.2229 0
M  V30 22 H 2.8912 0.2377 -3.1497 0
M  V30 23 H 2.1172 0.4801 -4.7403 0
M  V30 24 H -1.4776 -1.6902 0.1145 0
M  V30 25 H 0.1641 2.1398 -0.6433 0
M  V30 26 H -1.319 2.2727 0.2931 0
M  V30 27 H 1.4195 1.2539 1.1525 0
M  V30 28 H 0.4374 2.5381 1.8672 0
M  V30 29 H -1.8327 -2.4342 2.451 0
M  V30 30 H 0.6743 1.5088 4.1321 0
M  V30 31 H -1.3825 -2.1866 4.8653 0
M  V30 32 H -0.1338 -0.2158 5.708 0
M  V30 END ATOM
M  V30 BEGIN BOND
M  V30 1 2 1 2
M  V30 2 1 1 3
M  V30 3 1 2 4
M  V30 4 1 2 5
M  V30 5 1 3 6
M  V30 6 1 5 7
M  V30 7 2 7 8
M  V30 8 1 7 9
M  V30 9 1 8 10
M  V30 10 1 9 11
M  V30 11 2 10 12
M  V30 12 1 10 13
M  V30 13 1 12 14
M  V30 14 2 13 15
M  V30 15 2 14 16
M  V30 16 1 4 6
M  V30 17 1 11 12
M  V30 18 1 15 16
M  V30 19 1 3 17
M  V30 20 1 3 18
M  V30 21 1 4 19
M  V30 22 1 5 20
M  V30 23 1 5 21
M  V30 24 1 6 22
M  V30 25 1 6 23
M  V30 26 1 8 24
M  V30 27 1 9 25
M  V30 28 1 9 26
M  V30 29 1 11 27
M  V30 30 1 11 28
M  V30 31 1 13 29
M  V30 32 1 14 30
M  V30 33 1 15 31
M  V30 34 1 16 32
M  V30 END BOND
M  V30 END CTAB
M  END
>  <NO.>
4109

>  <Name>
napamezole

>  <SMILES>
C1=C(CC2=NCCN2)CCc2ccccc21

>  <logBB>


>  <Class>
1

>  <MW>
212.13

>  <nHBAcc>
2

>  <nHBDon>
1

>  <SLogP>
2.41

>  <TopoPSA>
24.39

>  <MMFF94 Energy>
55.109

$$$$
CNC1=Nc2ccc(Cl)cc2C(c2ccccc2)=[N+]([O-])C1
Actelion Java MolfileCreator 2.0

  0  0  0  0  0  0              0 V3000
M  V30 BEGIN CTAB
M  V30 COUNTS 35 37 0 0 0
M  V30 BEGIN ATOM
M  V30 1 Cl -0.9683 -1.4528 4.687 0
M  V30 2 C -1.2495 -1.1213 3.0228 0
M  V30 3 C -0.2985 -0.4191 2.2864 0
M  V30 4 C -2.4254 -1.556 2.4217 0
M  V30 5 C -0.5245 -0.1458 0.9275 0
M  V30 6 C -2.6514 -1.2811 1.0716 0
M  V30 7 C 0.5256 0.6067 0.187 0
M  V30 8 C -1.7184 -0.5668 0.3083 0
M  V30 9 N 0.1846 1.5646 -0.6619 0 CHG=1
M  V30 10 C 1.9518 0.267 0.408 0
M  V30 11 N -2.0372 -0.3815 -1.0467 0
M  V30 12 O 1.0703 2.2306 -1.3025 0 CHG=-1
M  V30 13 C -1.217 1.9354 -0.921 0
M  V30 14 C 2.3643 -1.0604 0.2532 0
M  V30 15 C 2.8634 1.2444 0.8152 0
M  V30 16 C -1.8238 0.7557 -1.6423 0
M  V30 17 C 3.6928 -1.4063 0.5026 0
M  V30 18 C 4.191 0.8928 1.0619 0
M  V30 19 N -2.1389 0.9256 -2.9706 0
M  V30 20 C 4.6043 -0.4307 0.9073 0
M  V30 21 C -2.6946 -0.1171 -3.7968 0
M  V30 22 H 0.6123 -0.0842 2.7767 0
M  V30 23 H -3.1674 -2.11 2.9906 0
M  V30 24 H -3.5672 -1.6301 0.5986 0
M  V30 25 H -1.7233 2.1534 0.0232 0
M  V30 26 H -1.2382 2.835 -1.544 0
M  V30 27 H 1.6642 -1.8263 -0.0696 0
M  V30 28 H 2.5526 2.2791 0.9331 0
M  V30 29 H 4.0185 -2.4355 0.3768 0
M  V30 30 H 4.9043 1.6534 1.3689 0
M  V30 31 H -1.8934 1.7922 -3.437 0
M  V30 32 H 5.6402 -0.7007 1.0962 0
M  V30 33 H -3.6575 -0.4552 -3.4015 0
M  V30 34 H -2.8584 0.2596 -4.8108 0
M  V30 35 H -2.0121 -0.9703 -3.8575 0
M  V30 END ATOM
M  V30 BEGIN BOND
M  V30 1 1 1 2
M  V30 2 2 2 3
M  V30 3 1 2 4
M  V30 4 1 3 5
M  V30 5 2 4 6
M  V30 6 1 5 7
M  V30 7 2 5 8
M  V30 8 2 7 9
M  V30 9 1 7 10
M  V30 10 1 8 11
M  V30 11 1 9 12
M  V30 12 1 9 13
M  V30 13 2 10 14
M  V30 14 1 10 15
M  V30 15 2 11 16
M  V30 16 1 14 17
M  V30 17 2 15 18
M  V30 18 1 16 19
M  V30 19 2 17 20
M  V30 20 1 19 21
M  V30 21 1 6 8
M  V30 22 1 13 16
M  V30 23 1 18 20
M  V30 24 1 3 22
M  V30 25 1 4 23
M  V30 26 1 6 24
M  V30 27 1 13 25
M  V30 28 1 13 26
M  V30 29 1 14 27
M  V30 30 1 15 28
M  V30 31 1 17 29
M  V30 32 1 18 30
M  V30 33 1 19 31
M  V30 34 1 20 32
M  V30 35 1 21 33
M  V30 36 1 21 34
M  V30 37 1 21 35
M  V30 END BOND
M  V30 END CTAB
M  END
>  <NO.>
4484

>  <Name>
chlordiazepoxide

>  <SMILES>
CNC1=Nc2ccc(Cl)cc2C(c2ccccc2)=[N+]([O-])C1

>  <logBB>


>  <Class>
1

>  <MW>
299.08

>  <nHBAcc>
3

>  <nHBDon>
1

>  <SLogP>
2.95

>  <TopoPSA>
50.46

>  <MMFF94 Energy>
35.194

$$$$
O=C1C[N+]([O-])=C(c2ccccc2)c2cc(Cl)ccc2N1
Actelion Java MolfileCreator 2.0

  0  0  0  0  0  0              0 V3000
M  V30 BEGIN CTAB
M  V30 COUNTS 31 33 0 0 0
M  V30 BEGIN ATOM
M  V30 1 Cl -0.3252 -3.6638 2.6858 0
M  V30 2 C 0.3523 -2.1379 2.2732 0
M  V30 3 C -0.2501 -1.3553 1.2898 0
M  V30 4 C 1.5038 -1.6974 2.9183 0
M  V30 5 C 0.2981 -0.1093 0.9462 0
M  V30 6 C 2.0515 -0.4569 2.587 0
M  V30 7 C -0.3305 0.6418 -0.1758 0
M  V30 8 C 1.4441 0.3507 1.6175 0
M  V30 9 N -0.4794 1.9573 -0.1226 0 CHG=1
M  V30 10 C -0.7823 -0.1089 -1.3752 0
M  V30 11 N 2.0534 1.5843 1.356 0
M  V30 12 O -1.0189 2.5929 -1.0916 0 CHG=-1
M  V30 13 C -0.0749 2.7631 1.0351 0
M  V30 14 C -2.1152 -0.0475 -1.7906 0
M  V30 15 C 0.1312 -0.9222 -2.0537 0
M  V30 16 C 1.4213 2.7624 1.0669 0
M  V30 17 C -2.5321 -0.7974 -2.8909 0
M  V30 18 C -0.2921 -1.6707 -3.1525 0
M  V30 19 O 2.0882 3.7849 0.9159 0
M  V30 20 C -1.6222 -1.6089 -3.5694 0
M  V30 21 H -1.1428 -1.727 0.7913 0
M  V30 22 H 1.9774 -2.3113 3.6808 0
M  V30 23 H 2.9463 -0.1226 3.1083 0
M  V30 24 H 3.0577 1.6732 1.4684 0
M  V30 25 H -0.4421 3.786 0.9033 0
M  V30 26 H -0.5119 2.3504 1.9485 0
M  V30 27 H -2.8299 0.5877 -1.274 0
M  V30 28 H 1.1712 -0.9722 -1.7439 0
M  V30 29 H -3.5655 -0.7422 -3.2237 0
M  V30 30 H 0.4154 -2.2982 -3.6883 0
M  V30 31 H -1.9492 -2.1875 -4.4298 0
M  V30 END ATOM
M  V30 BEGIN BOND
M  V30 1 1 1 2
M  V30 2 2 2 3
M  V30 3 1 2 4
M  V30 4 1 3 5
M  V30 5 2 4 6
M  V30 6 1 5 7
M  V30 7 2 5 8
M  V30 8 2 7 9
M  V30 9 1 7 10
M  V30 10 1 8 11
M  V30 11 1 9 12
M  V30 12 1 9 13
M  V30 13 2 10 14
M  V30 14 1 10 15
M  V30 15 1 11 16
M  V30 16 1 14 17
M  V30 17 2 15 18
M  V30 18 2 16 19
M  V30 19 2 17 20
M  V30 20 1 6 8
M  V30 21 1 13 16
M  V30 22 1 18 20
M  V30 23 1 3 21
M  V30 24 1 4 22
M  V30 25 1 6 23
M  V30 26 1 11 24
M  V30 27 1 13 25
M  V30 28 1 13 26
M  V30 29 1 14 27
M  V30 30 1 15 28
M  V30 31 1 17 29
M  V30 32 1 18 30
M  V30 33 1 20 31
M  V30 END BOND
M  V30 END CTAB
M  END
>  <NO.>
4654

>  <Name>
demoxepam

>  <SMILES>
O=C1C[N+]([O-])=C(c2ccccc2)c2cc(Cl)ccc2N1

>  <logBB>


>  <Class>
1

>  <MW>
286.05

>  <nHBAcc>
2

>  <nHBDon>
1

>  <SLogP>
2.64

>  <TopoPSA>
55.17

>  <MMFF94 Energy>
34.963

$$$$
[O-][N+]1=C(c2ccccc2)c2cc(Cl)ccc2N=C(NCC2CC2)C1
Actelion Java MolfileCreator 2.0

  0  0  0  0  0  0              0 V3000
M  V30 BEGIN CTAB
M  V30 COUNTS 42 45 0 0 0
M  V30 BEGIN ATOM
M  V30 1 Cl -3.313 -1.1303 4.4462 0
M  V30 2 C -2.5437 -0.9494 2.9184 0
M  V30 3 C -1.2777 -0.3732 2.8446 0
M  V30 4 C -3.1901 -1.3799 1.7651 0
M  V30 5 C -0.6458 -0.2243 1.5991 0
M  V30 6 C -2.5602 -1.2349 0.5274 0
M  V30 7 C 0.7062 0.3991 1.5767 0
M  V30 8 C -1.2821 -0.6698 0.4233 0
M  V30 9 N 1.6566 -0.0999 0.8004 0 CHG=1
M  V30 10 C 0.9716 1.5843 2.4273 0
M  V30 11 N -0.7646 -0.5425 -0.8756 0
M  V30 12 O 2.8288 0.4135 0.7722 0 CHG=-1
M  V30 13 C 1.4413 -1.2709 -0.0666 0
M  V30 14 C 2.0185 1.5786 3.3528 0
M  V30 15 C 0.1252 2.6936 2.3278 0
M  V30 16 C 0.4804 -0.8138 -1.139 0
M  V30 17 C 2.2213 2.6876 4.1755 0
M  V30 18 C 0.332 3.7992 3.1538 0
M  V30 19 N 0.9809 -0.6895 -2.4139 0
M  V30 20 C 1.3782 3.7952 4.077 0
M  V30 21 C 0.2022 -0.3028 -3.5666 0
M  V30 22 C -0.4146 -1.5239 -4.1739 0
M  V30 23 C -0.6687 -1.6009 -5.6584 0
M  V30 24 C 0.3999 -2.4569 -5.0355 0
M  V30 25 H -0.7877 -0.0471 3.759 0
M  V30 26 H -4.1808 -1.8237 1.817 0
M  V30 27 H -3.0704 -1.5623 -0.3763 0
M  V30 28 H 1.0443 -2.1012 0.5236 0
M  V30 29 H 2.4003 -1.5761 -0.4967 0
M  V30 30 H 2.6838 0.7233 3.4333 0
M  V30 31 H -0.6874 2.7104 1.6062 0
M  V30 32 H 3.0412 2.6896 4.889 0
M  V30 33 H -0.3195 4.6657 3.0746 0
M  V30 34 H 1.9608 -0.8788 -2.5885 0
M  V30 35 H 1.5414 4.6594 4.7163 0
M  V30 36 H -0.5727 0.4261 -3.3042 0
M  V30 37 H 0.8658 0.1916 -4.2855 0
M  V30 38 H -1.1607 -1.9607 -3.5181 0
M  V30 39 H -0.3553 -0.7751 -6.2869 0
M  V30 40 H -1.5795 -2.0872 -5.9903 0
M  V30 41 H 1.4341 -2.207 -5.2417 0
M  V30 42 H 0.2109 -3.5206 -4.9433 0
M  V30 END ATOM
M  V30 BEGIN BOND
M  V30 1 1 1 2
M  V30 2 2 2 3
M  V30 3 1 2 4
M  V30 4 1 3 5
M  V30 5 2 4 6
M  V30 6 1 5 7
M  V30 7 2 5 8
M  V30 8 2 7 9
M  V30 9 1 7 10
M  V30 10 1 8 11
M  V30 11 1 9 12
M  V30 12 1 9 13
M  V30 13 2 10 14
M  V30 14 1 10 15
M  V30 15 2 11 16
M  V30 16 1 14 17
M  V30 17 2 15 18
M  V30 18 1 16 19
M  V30 19 2 17 20
M  V30 20 1 19 21
M  V30 21 1 21 22
M  V30 22 1 22 23
M  V30 23 1 22 24
M  V30 24 1 6 8
M  V30 25 1 13 16
M  V30 26 1 18 20
M  V30 27 1 23 24
M  V30 28 1 3 25
M  V30 29 1 4 26
M  V30 30 1 6 27
M  V30 31 1 13 28
M  V30 32 1 13 29
M  V30 33 1 14 30
M  V30 34 1 15 31
M  V30 35 1 17 32
M  V30 36 1 18 33
M  V30 37 1 19 34
M  V30 38 1 20 35
M  V30 39 1 21 36
M  V30 40 1 21 37
M  V30 41 1 22 38
M  V30 42 1 23 39
M  V30 43 1 23 40
M  V30 44 1 24 41
M  V30 45 1 24 42
M  V30 END BOND
M  V30 END CTAB
M  END
>  <NO.>
4663

>  <Name>
cyprazepam

>  <SMILES>
[O-][N+]1=C(c2ccccc2)c2cc(Cl)ccc2N=C(NCC2CC2)C1

>  <logBB>


>  <Class>
1

>  <MW>
339.11

>  <nHBAcc>
3

>  <nHBDon>
1

>  <SLogP>
3.73

>  <TopoPSA>
50.46

>  <MMFF94 Energy>
47.683

$$$$
CC(=O)NC1C(I)C(NC(C)=O)C(I)C(C(=O)O)C1I
Actelion Java MolfileCreator 2.0

  0  0  0  0  0  0              0 V3000
M  V30 BEGIN CTAB
M  V30 COUNTS 35 35 0 0 0
M  V30 BEGIN ATOM
M  V30 1 I 0.678 1.9502 2.2048 0
M  V30 2 C 0.4083 0.6571 0.3835 0
M  V30 3 C -0.972 0.9519 -0.2496 0
M  V30 4 C 0.5725 -0.8276 0.7855 0
M  V30 5 N -1.0465 2.3571 -0.6834 0
M  V30 6 C -1.2214 0.0199 -1.4573 0
M  V30 7 N 1.9273 -1.0692 1.3093 0
M  V30 8 C 0.3119 -1.7473 -0.4293 0
M  V30 9 C -1.983 3.2361 -0.1775 0
M  V30 10 I -3.3631 0.303 -2.1613 0
M  V30 11 C -1.02 -1.4736 -1.1486 0
M  V30 12 C 2.1505 -1.5349 2.5894 0
M  V30 13 I 0.286 -3.9039 0.2868 0
M  V30 14 O -2.8324 2.9276 0.6492 0
M  V30 15 C -1.8874 4.6184 -0.7625 0
M  V30 16 C -0.9836 -2.21 -2.4689 0
M  V30 17 O 1.2586 -1.7747 3.394 0
M  V30 18 C 3.6078 -1.6972 2.9236 0
M  V30 19 O -0.1712 -2.0234 -3.3603 0
M  V30 20 O -1.9572 -3.1264 -2.5913 0
M  V30 21 H 1.2113 0.9536 -0.3049 0
M  V30 22 H -1.7493 0.7736 0.5044 0
M  V30 23 H -0.1568 -1.0611 1.5717 0
M  V30 24 H -0.3949 2.7024 -1.378 0
M  V30 25 H -0.6008 0.3382 -2.3059 0
M  V30 26 H 2.7318 -0.8881 0.7208 0
M  V30 27 H 1.1595 -1.6911 -1.1257 0
M  V30 28 H -1.8554 -1.8453 -0.5418 0
M  V30 29 H -0.8415 4.9214 -0.8644 0
M  V30 30 H -2.3932 5.3303 -0.1043 0
M  V30 31 H -2.3662 4.6285 -1.7452 0
M  V30 32 H 4.148 -2.1376 2.0809 0
M  V30 33 H 3.7138 -2.3574 3.7887 0
M  V30 34 H 4.0358 -0.7191 3.1588 0
M  V30 35 H -1.8321 -3.5319 -3.4753 0
M  V30 END ATOM
M  V30 BEGIN BOND
M  V30 1 1 1 2
M  V30 2 1 2 3
M  V30 3 1 2 4
M  V30 4 1 3 5
M  V30 5 1 3 6
M  V30 6 1 4 7
M  V30 7 1 4 8
M  V30 8 1 5 9
M  V30 9 1 6 10
M  V30 10 1 6 11
M  V30 11 1 7 12
M  V30 12 1 8 13
M  V30 13 2 9 14
M  V30 14 1 9 15
M  V30 15 1 11 16
M  V30 16 2 12 17
M  V30 17 1 12 18
M  V30 18 2 16 19
M  V30 19 1 16 20
M  V30 20 1 8 11
M  V30 21 1 2 21
M  V30 22 1 3 22
M  V30 23 1 4 23
M  V30 24 1 5 24
M  V30 25 1 6 25
M  V30 26 1 7 26
M  V30 27 1 8 27
M  V30 28 1 11 28
M  V30 29 1 15 29
M  V30 30 1 15 30
M  V30 31 1 15 31
M  V30 32 1 18 32
M  V30 33 1 18 33
M  V30 34 1 18 34
M  V30 35 1 20 35
M  V30 END BOND
M  V30 END CTAB
M  END
>  <NO.>
4665

>  <Name>
sodiumamidotrizoate

>  <SMILES>
CC(=O)NC1C(I)C(NC(C)=O)C(I)C(C(=O)O)C1I

>  <logBB>


>  <Class>
-1

>  <MW>
619.82

>  <nHBAcc>
3

>  <nHBDon>
3

>  <SLogP>
1.12

>  <TopoPSA>
95.5

>  <MMFF94 Energy>
-34.236

$$$$
CCCc1ccc(Cl)cc1
Actelion Java MolfileCreator 2.0

  0  0  0  0  0  0              0 V3000
M  V30 BEGIN CTAB
M  V30 COUNTS 21 21 0 0 0
M  V30 BEGIN ATOM
M  V30 1 Cl 0.556 4.6939 -1.3507 0
M  V30 2 C 0.2694 3.0262 -1.0378 0
M  V30 3 C -0.8989 2.6348 -0.388 0
M  V30 4 C 1.2084 2.0766 -1.4336 0
M  V30 5 C -1.1312 1.2814 -0.1334 0
M  V30 6 C 0.9761 0.7232 -1.179 0
M  V30 7 C -0.1982 0.3139 -0.5318 0
M  V30 8 C -0.4409 -1.1466 -0.241 0
M  V30 9 C 0.1262 -1.5533 1.1194 0
M  V30 10 C -0.1214 -3.0256 1.4064 0
M  V30 11 H -1.6303 3.3753 -0.0761 0
M  V30 12 H 2.1212 2.3815 -1.9376 0
M  V30 13 H -2.0444 0.9857 0.3787 0
M  V30 14 H 1.7174 -0.0107 -1.4877 0
M  V30 15 H 0.0082 -1.7551 -1.036 0
M  V30 16 H -1.5186 -1.3507 -0.2784 0
M  V30 17 H 1.2048 -1.3574 1.1531 0
M  V30 18 H -0.3299 -0.9509 1.9145 0
M  V30 19 H 0.2914 -3.2961 2.3832 0
M  V30 20 H -1.1933 -3.2482 1.4172 0
M  V30 21 H 0.3537 -3.658 0.6497 0
M  V30 END ATOM
M  V30 BEGIN BOND
M  V30 1 1 1 2
M  V30 2 2 2 3
M  V30 3 1 2 4
M  V30 4 1 3 5
M  V30 5 2 4 6
M  V30 6 2 5 7
M  V30 7 1 7 8
M  V30 8 1 8 9
M  V30 9 1 9 10
M  V30 10 1 6 7
M  V30 11 1 3 11
M  V30 12 1 4 12
M  V30 13 1 5 13
M  V30 14 1 6 14
M  V30 15 1 8 15
M  V30 16 1 8 16
M  V30 17 1 9 17
M  V30 18 1 9 18
M  V30 19 1 10 19
M  V30 20 1 10 20
M  V30 21 1 10 21
M  V30 END BOND
M  V30 END CTAB
M  END
>  <NO.>
4669

>  <Name>
1-chloro-4-propylbenzene

>  <SMILES>
CCCc1ccc(Cl)cc1

>  <logBB>


>  <Class>
-1

>  <MW>
154.05

>  <nHBAcc>
0

>  <nHBDon>
0

>  <SLogP>
3.29

>  <TopoPSA>
0

>  <MMFF94 Energy>
16.579

$$$$
CN1Cc2c(-c3noc(C(C)(CO)CO)n3)ncn2-c2ccccc2C1=O
Actelion Java MolfileCreator 2.0

  0  0  0  0  0  0              0 V3000
M  V30 BEGIN CTAB
M  V30 COUNTS 46 49 0 0 0
M  V30 BEGIN ATOM
M  V30 1 O 0.4815 3.8571 -2.1682 0
M  V30 2 C 0.0365 2.7101 -2.177 0
M  V30 3 N 0.5335 1.7067 -1.3545 0
M  V30 4 C -1.0748 2.4071 -3.1311 0
M  V30 5 C 0.1115 0.3224 -1.441 0
M  V30 6 C 1.5438 2.0242 -0.3597 0
M  V30 7 C -2.1777 1.5756 -2.8614 0
M  V30 8 C -1.0264 3.0807 -4.3641 0
M  V30 9 C -1.2746 0.2709 -0.9484 0
M  V30 10 N -2.2968 0.8815 -1.6376 0
M  V30 11 C -3.189 1.4061 -3.8233 0
M  V30 12 C -2.0337 2.9115 -5.3159 0
M  V30 13 C -1.8671 -0.3002 0.1623 0
M  V30 14 C -3.4484 0.6442 -0.9272 0
M  V30 15 C -3.1112 2.073 -5.0463 0
M  V30 16 N -3.2265 -0.0731 0.1507 0
M  V30 17 C -1.2363 -1.0507 1.2555 0
M  V30 18 N -1.8986 -1.7492 2.1871 0
M  V30 19 N 0.1315 -1.0608 1.3991 0
M  V30 20 O -0.8816 -2.2757 2.9802 0
M  V30 21 C 0.2982 -1.8407 2.445 0
M  V30 22 C 1.5669 -2.2194 3.1558 0
M  V30 23 C 2.7065 -2.4122 2.1266 0
M  V30 24 C 1.9304 -1.0521 4.1011 0
M  V30 25 C 1.3857 -3.5169 3.9691 0
M  V30 26 O 2.5004 -3.5484 1.2852 0
M  V30 27 O 3.1223 -1.3275 4.8324 0
M  V30 28 H 0.1669 -0.0019 -2.487 0
M  V30 29 H 0.7965 -0.3147 -0.8764 0
M  V30 30 H 1.1783 1.7196 0.6255 0
M  V30 31 H 2.4568 1.4705 -0.5977 0
M  V30 32 H 1.7748 3.092 -0.3331 0
M  V30 33 H -0.1967 3.7516 -4.585 0
M  V30 34 H -4.0374 0.7472 -3.6485 0
M  V30 35 H -1.9767 3.44 -6.2648 0
M  V30 36 H -4.4145 1.0243 -1.2329 0
M  V30 37 H -3.8938 1.9398 -5.7902 0
M  V30 38 H 2.801 -1.5369 1.4733 0
M  V30 39 H 3.6753 -2.5467 2.6213 0
M  V30 40 H 1.1261 -0.8713 4.8247 0
M  V30 41 H 2.0868 -0.1237 3.5384 0
M  V30 42 H 0.6771 -3.3756 4.794 0
M  V30 43 H 2.334 -3.8506 4.4051 0
M  V30 44 H 0.9988 -4.3333 3.3482 0
M  V30 45 H 2.7939 -4.3363 1.7753 0
M  V30 46 H 3.2711 -0.5744 5.4328 0
M  V30 END ATOM
M  V30 BEGIN BOND
M  V30 1 2 1 2
M  V30 2 1 2 3
M  V30 3 1 2 4
M  V30 4 1 3 5
M  V30 5 1 3 6
M  V30 6 2 4 7
M  V30 7 1 4 8
M  V30 8 1 5 9
M  V30 9 1 7 10
M  V30 10 1 7 11
M  V30 11 2 8 12
M  V30 12 2 9 13
M  V30 13 1 10 14
M  V30 14 2 11 15
M  V30 15 1 13 16
M  V30 16 1 13 17
M  V30 17 2 17 18
M  V30 18 1 17 19
M  V30 19 1 18 20
M  V30 20 2 19 21
M  V30 21 1 21 22
M  V30 22 1 22 23
M  V30 23 1 22 24
M  V30 24 1 22 25
M  V30 25 1 23 26
M  V30 26 1 24 27
M  V30 27 1 9 10
M  V30 28 1 12 15
M  V30 29 2 14 16
M  V30 30 1 20 21
M  V30 31 1 5 28
M  V30 32 1 5 29
M  V30 33 1 6 30
M  V30 34 1 6 31
M  V30 35 1 6 32
M  V30 36 1 8 33
M  V30 37 1 11 34
M  V30 38 1 12 35
M  V30 39 1 14 36
M  V30 40 1 15 37
M  V30 41 1 23 38
M  V30 42 1 23 39
M  V30 43 1 24 40
M  V30 44 1 24 41
M  V30 45 1 25 42
M  V30 46 1 25 43
M  V30 47 1 25 44
M  V30 48 1 26 45
M  V30 49 1 27 46
M  V30 END BOND
M  V30 END CTAB
M  END
>  <NO.>
4672

>  <Name>
bis-hydroxylated-l-663581

>  <SMILES>
CN1Cc2c(-c3noc(C(C)(CO)CO)n3)ncn2-c2ccccc2C1=O

>  <logBB>


>  <Class>
-1

>  <MW>
369.14

>  <nHBAcc>
7

>  <nHBDon>
2

>  <SLogP>
0.75

>  <TopoPSA>
117.51

>  <MMFF94 Energy>
68.346

$$$$
N#Cc1ccc(N2CCC3(CCNCC3)CC2)cc1
Actelion Java MolfileCreator 2.0

  0  0  0  0  0  0              0 V3000
M  V30 BEGIN CTAB
M  V30 COUNTS 40 42 0 0 0
M  V30 BEGIN ATOM
M  V30 1 N 1.8314 7.5012 1.433 0
M  V30 2 C 1.6105 6.3767 1.248 0
M  V30 3 C 1.3368 4.9891 1.0174 0
M  V30 4 C 1.9854 4.3044 -0.0098 0
M  V30 5 C 0.4221 4.3087 1.8199 0
M  V30 6 C 1.7158 2.9472 -0.2313 0
M  V30 7 C 0.1593 2.953 1.5876 0
M  V30 8 C 0.7926 2.2416 0.5555 0
M  V30 9 N 0.5123 0.8916 0.3551 0
M  V30 10 C -0.8938 0.5201 0.165 0
M  V30 11 C 1.5106 0.0341 -0.2871 0
M  V30 12 C -1.1206 -0.946 0.5403 0
M  V30 13 C 1.2896 -1.427 0.1047 0
M  V30 14 C -0.1497 -1.9227 -0.1695 0
M  V30 15 C -0.3044 -3.3486 0.4168 0
M  V30 16 C -0.4149 -2.007 -1.6941 0
M  V30 17 C -1.613 -4.0249 0.0066 0
M  V30 18 C -1.7181 -2.7331 -2.0352 0
M  V30 19 N -1.7549 -4.0687 -1.4465 0
M  V30 20 H 2.7032 4.8149 -0.6487 0
M  V30 21 H -0.0876 4.8175 2.6355 0
M  V30 22 H 2.2312 2.4556 -1.052 0
M  V30 23 H -0.5324 2.4408 2.2526 0
M  V30 24 H -1.1816 0.7017 -0.8771 0
M  V30 25 H -1.5703 1.1239 0.7805 0
M  V30 26 H 2.5228 0.3086 0.0359 0
M  V30 27 H 1.4676 0.1522 -1.3761 0
M  V30 28 H -2.1659 -1.202 0.3373 0
M  V30 29 H -0.9897 -1.0423 1.6273 0
M  V30 30 H 1.5085 -1.5352 1.1762 0
M  V30 31 H 2.0183 -2.0542 -0.4237 0
M  V30 32 H 0.5323 -3.9746 0.0767 0
M  V30 33 H -0.2406 -3.3213 1.5118 0
M  V30 34 H -0.4347 -1.0137 -2.1545 0
M  V30 35 H 0.4147 -2.5447 -2.1739 0
M  V30 36 H -1.6158 -5.0515 0.3897 0
M  V30 37 H -2.4736 -3.5191 0.4592 0
M  V30 38 H -2.5874 -2.1489 -1.7124 0
M  V30 39 H -1.7935 -2.8295 -3.1241 0
M  V30 40 H -2.636 -4.5224 -1.6872 0
M  V30 END ATOM
M  V30 BEGIN BOND
M  V30 1 3 1 2
M  V30 2 1 2 3
M  V30 3 2 3 4
M  V30 4 1 3 5
M  V30 5 1 4 6
M  V30 6 2 5 7
M  V30 7 2 6 8
M  V30 8 1 8 9
M  V30 9 1 9 10
M  V30 10 1 9 11
M  V30 11 1 10 12
M  V30 12 1 11 13
M  V30 13 1 12 14
M  V30 14 1 14 15
M  V30 15 1 14 16
M  V30 16 1 15 17
M  V30 17 1 16 18
M  V30 18 1 17 19
M  V30 19 1 7 8
M  V30 20 1 13 14
M  V30 21 1 18 19
M  V30 22 1 4 20
M  V30 23 1 5 21
M  V30 24 1 6 22
M  V30 25 1 7 23
M  V30 26 1 10 24
M  V30 27 1 10 25
M  V30 28 1 11 26
M  V30 29 1 11 27
M  V30 30 1 12 28
M  V30 31 1 12 29
M  V30 32 1 13 30
M  V30 33 1 13 31
M  V30 34 1 15 32
M  V30 35 1 15 33
M  V30 36 1 16 34
M  V30 37 1 16 35
M  V30 38 1 17 36
M  V30 39 1 17 37
M  V30 40 1 18 38
M  V30 41 1 18 39
M  V30 42 1 19 40
M  V30 END BOND
M  V30 END CTAB
M  END
>  <NO.>
4674

>  <Name>
4-(3,9-diazaspiro[5.5]undecan-3-yl)benzonitrile

>  <SMILES>
N#Cc1ccc(N2CCC3(CCNCC3)CC2)cc1

>  <logBB>


>  <Class>
-1

>  <MW>
255.17

>  <nHBAcc>
3

>  <nHBDon>
1

>  <SLogP>
2.53

>  <TopoPSA>
39.06

>  <MMFF94 Energy>
45.623

$$$$
O=C(O)c1cc(=O)c2c(OCC(O)COc3cccc4oc(C(=O)O)cc(=O)c34)cccc2o1
Actelion Java MolfileCreator 2.0

  0  0  0  0  0  0              0 V3000
M  V30 BEGIN CTAB
M  V30 COUNTS 50 53 0 0 0
M  V30 BEGIN ATOM
M  V30 1 O -0.8096 2.5115 1.4577 0
M  V30 2 C -1.959 2.7344 1.8187 0
M  V30 3 C -3.0474 1.7376 1.7561 0
M  V30 4 C -2.3022 4.0547 2.3705 0
M  V30 5 C -4.2938 2.1009 2.2668 0
M  V30 6 C -2.8687 0.4531 1.2284 0
M  V30 7 C -3.544 4.2811 2.8196 0
M  V30 8 O -4.5577 3.3372 2.8001 0
M  V30 9 C -5.3565 1.1943 2.2517 0
M  V30 10 O -1.6761 0.0972 0.6628 0
M  V30 11 C -3.9375 -0.4487 1.1957 0
M  V30 12 C -3.9067 5.6035 3.3875 0
M  V30 13 C -5.1783 -0.0802 1.7152 0
M  V30 14 C -1.0142 -0.9506 1.3906 0
M  V30 15 O -5.004 5.9036 3.826 0
M  V30 16 O -2.9012 6.4967 3.3871 0
M  V30 17 C 0.495 -0.6815 1.3996 0
M  V30 18 O 0.7659 0.4322 2.2692 0
M  V30 19 C 1.0397 -0.3945 -0.0061 0
M  V30 20 O 2.4666 -0.5826 0.0186 0
M  V30 21 C 2.9783 -0.5999 -1.2493 0
M  V30 22 C 3.1145 -1.7788 -1.9926 0
M  V30 23 C 3.4668 0.6113 -1.749 0
M  V30 24 C 2.6312 -3.095 -1.5231 0
M  V30 25 C 3.7299 -1.723 -3.2449 0
M  V30 26 C 4.0662 0.6593 -3.0062 0
M  V30 27 O 1.9845 -3.2659 -0.4979 0
M  V30 28 C 2.933 -4.2533 -2.3799 0
M  V30 29 O 3.9228 -2.8246 -4.0403 0
M  V30 30 C 4.1975 -0.5086 -3.755 0
M  V30 31 C 3.5416 -4.065 -3.5578 0
M  V30 32 C 3.8384 -5.2193 -4.4419 0
M  V30 33 O 4.3771 -5.1497 -5.5331 0
M  V30 34 O 3.4572 -6.4082 -3.9412 0
M  V30 35 H -1.5061 4.7886 2.3923 0
M  V30 36 H -6.3257 1.4838 2.652 0
M  V30 37 H -3.8108 -1.4337 0.7536 0
M  V30 38 H -6.0086 -0.7823 1.6924 0
M  V30 39 H -1.3734 -1.0098 2.4269 0
M  V30 40 H -1.2238 -1.8994 0.884 0
M  V30 41 H -3.3001 7.2974 3.7892 0
M  V30 42 H 1.0113 -1.5421 1.8386 0
M  V30 43 H 0.3013 1.212 1.888 0
M  V30 44 H 0.8305 0.6419 -0.2978 0
M  V30 45 H 0.5774 -1.0746 -0.7317 0
M  V30 46 H 3.3846 1.5153 -1.1492 0
M  V30 47 H 4.4415 1.6032 -3.3942 0
M  V30 48 H 2.6236 -5.2209 -2.0048 0
M  V30 49 H 4.6745 -0.4751 -4.7319 0
M  V30 50 H 3.7247 -7.0483 -4.6342 0
M  V30 END ATOM
M  V30 BEGIN BOND
M  V30 1 2 1 2
M  V30 2 1 2 3
M  V30 3 1 2 4
M  V30 4 2 3 5
M  V30 5 1 3 6
M  V30 6 2 4 7
M  V30 7 1 5 8
M  V30 8 1 5 9
M  V30 9 1 6 10
M  V30 10 2 6 11
M  V30 11 1 7 12
M  V30 12 2 9 13
M  V30 13 1 10 14
M  V30 14 2 12 15
M  V30 15 1 12 16
M  V30 16 1 14 17
M  V30 17 1 17 18
M  V30 18 1 17 19
M  V30 19 1 19 20
M  V30 20 1 20 21
M  V30 21 2 21 22
M  V30 22 1 21 23
M  V30 23 1 22 24
M  V30 24 1 22 25
M  V30 25 2 23 26
M  V30 26 2 24 27
M  V30 27 1 24 28
M  V30 28 1 25 29
M  V30 29 2 25 30
M  V30 30 2 28 31
M  V30 31 1 31 32
M  V30 32 2 32 33
M  V30 33 1 32 34
M  V30 34 1 7 8
M  V30 35 1 11 13
M  V30 36 1 26 30
M  V30 37 1 29 31
M  V30 38 1 4 35
M  V30 39 1 9 36
M  V30 40 1 11 37
M  V30 41 1 13 38
M  V30 42 1 14 39
M  V30 43 1 14 40
M  V30 44 1 16 41
M  V30 45 1 17 42
M  V30 46 1 18 43
M  V30 47 1 19 44
M  V30 48 1 19 45
M  V30 49 1 23 46
M  V30 50 1 26 47
M  V30 51 1 28 48
M  V30 52 1 30 49
M  V30 53 1 34 50
M  V30 END BOND
M  V30 END CTAB
M  END
>  <NO.>
4677

>  <Name>
cromoglicicacid

>  <SMILES>
O=C(O)c1cc(=O)c2c(OCC(O)COc3cccc4oc(C(=O)O)cc(=O)c34)cccc2o1

>  <logBB>


>  <Class>
-1

>  <MW>
468.07

>  <nHBAcc>
9

>  <nHBDon>
3

>  <SLogP>
2.11

>  <TopoPSA>
173.71

>  <MMFF94 Energy>
71.517

$$$$
O=C(O)c1cc(=O)cco1
Actelion Java MolfileCreator 2.0

  0  0  0  0  0  0              0 V3000
M  V30 BEGIN CTAB
M  V30 COUNTS 14 14 0 0 0
M  V30 BEGIN ATOM
M  V30 1 O -2.1571 -1.2779 1.5176 0
M  V30 2 C -1.1159 -1.0351 0.922 0
M  V30 3 C -0.8534 0.2934 0.3433 0
M  V30 4 C -0.072 -2.0603 0.7538 0
M  V30 5 C 0.3054 0.503 -0.2991 0
M  V30 6 C 1.0366 -1.7219 0.0925 0
M  V30 7 O 1.2763 -0.4807 -0.4453 0
M  V30 8 C 0.6142 1.8236 -0.8978 0
M  V30 9 O 1.6372 2.1051 -1.4976 0
M  V30 10 O -0.356 2.7406 -0.7293 0
M  V30 11 H -1.6253 1.0411 0.4713 0
M  V30 12 H -0.2464 -3.0418 1.1717 0
M  V30 13 H 1.8656 -2.3927 -0.0893 0
M  V30 14 H 0.0 3.5386 -1.1747 0
M  V30 END ATOM
M  V30 BEGIN BOND
M  V30 1 2 1 2
M  V30 2 1 2 3
M  V30 3 1 2 4
M  V30 4 2 3 5
M  V30 5 2 4 6
M  V30 6 1 5 7
M  V30 7 1 5 8
M  V30 8 2 8 9
M  V30 9 1 8 10
M  V30 10 1 6 7
M  V30 11 1 3 11
M  V30 12 1 4 12
M  V30 13 1 6 13
M  V30 14 1 10 14
M  V30 END BOND
M  V30 END CTAB
M  END
>  <NO.>
4678

>  <Name>
comanic acid

>  <SMILES>
O=C(O)c1cc(=O)cco1

>  <logBB>


>  <Class>
-1

>  <MW>
140.01

>  <nHBAcc>
3

>  <nHBDon>
1

>  <SLogP>
0.34

>  <TopoPSA>
67.51

>  <MMFF94 Energy>
-18.92

$$$$
CC(=N)N1CC[C@@H](SC2=C(C(=O)O)N3C(=O)[C@H]([C@@H](C)O)[C@H]3C2)C1
Actelion Java MolfileCreator 2.0

  0  0  0  0  0  0              0 V3000
M  V30 BEGIN CTAB
M  V30 COUNTS 44 46 0 0 0
M  V30 BEGIN ATOM
M  V30 1 S 1.533 0.2419 0.0806 0
M  V30 2 C -0.1074 0.6624 0.3707 0
M  V30 3 C 1.3448 -0.9854 -1.274 0 CFG=1
M  V30 4 C -0.9016 0.2293 1.362 0
M  V30 5 C -0.8279 1.6795 -0.481 0
M  V30 6 C 2.7143 -1.3713 -1.86 0
M  V30 7 C 0.8296 -2.3316 -0.7764 0
M  V30 8 N -2.1573 0.7663 1.2638 0
M  V30 9 C -0.5705 -0.6759 2.4771 0
M  V30 10 C -2.2528 1.6468 0.0848 0 CFG=1
M  V30 11 N 3.1623 -2.5241 -1.074 0
M  V30 12 C 2.0771 -3.0267 -0.2392 0
M  V30 13 C -2.6869 1.648 2.1539 0
M  V30 14 O -1.1873 -1.6803 2.7853 0
M  V30 15 O 0.5023 -0.2612 3.1712 0
M  V30 16 C -2.823 2.73 1.0589 0 CFG=2
M  V30 17 C 4.4345 -3.0441 -1.1174 0
M  V30 18 O -2.8144 1.6141 3.356 0
M  V30 19 C -4.2299 3.2638 0.8409 0 CFG=2
M  V30 20 N 4.8478 -4.0118 -0.3683 0
M  V30 21 C 5.4445 -2.4657 -2.0863 0
M  V30 22 O -5.0995 2.2079 0.4467 0
M  V30 23 C -4.2275 4.3193 -0.2554 0
M  V30 24 H 0.7007 -0.555 -2.0471 0
M  V30 25 H -0.8272 1.3859 -1.5359 0
M  V30 26 H -0.3795 2.6737 -0.3835 0
M  V30 27 H 3.4304 -0.5428 -1.8354 0
M  V30 28 H 2.5918 -1.6865 -2.9033 0
M  V30 29 H 0.4427 -2.9026 -1.6308 0
M  V30 30 H 0.0269 -2.2794 -0.0366 0
M  V30 31 H -2.9745 1.2517 -0.6415 0
M  V30 32 H 2.2568 -2.763 0.8088 0
M  V30 33 H 1.9693 -4.1136 -0.317 0
M  V30 34 H 0.5724 -0.9026 3.9074 0
M  V30 35 H -2.1179 3.5526 1.2485 0
M  V30 36 H -4.613 3.6989 1.771 0
M  V30 37 H 4.0999 -4.3129 0.2545 0
M  V30 38 H 5.6938 -1.4443 -1.7854 0
M  V30 39 H 6.3608 -3.0634 -2.0912 0
M  V30 40 H 5.028 -2.4563 -3.0972 0
M  V30 41 H -6.0144 2.5352 0.522 0
M  V30 42 H -3.5759 5.16 0.0022 0
M  V30 43 H -3.8833 3.8975 -1.2064 0
M  V30 44 H -5.2404 4.6995 -0.4254 0
M  V30 END ATOM
M  V30 BEGIN BOND
M  V30 1 1 1 2
M  V30 2 1 1 3
M  V30 3 2 2 4
M  V30 4 1 2 5
M  V30 5 1 3 6
M  V30 6 1 3 7
M  V30 7 1 4 8
M  V30 8 1 4 9
M  V30 9 1 5 10
M  V30 10 1 6 11
M  V30 11 1 7 12
M  V30 12 1 8 13
M  V30 13 2 9 14
M  V30 14 1 9 15
M  V30 15 1 10 16
M  V30 16 1 11 17
M  V30 17 2 13 18
M  V30 18 1 16 19
M  V30 19 2 17 20
M  V30 20 1 17 21
M  V30 21 1 19 22
M  V30 22 1 19 23
M  V30 23 1 8 10
M  V30 24 1 11 12
M  V30 25 1 13 16
M  V30 26 1 3 24
M  V30 27 1 5 25
M  V30 28 1 5 26
M  V30 29 1 6 27
M  V30 30 1 6 28
M  V30 31 1 7 29
M  V30 32 1 7 30
M  V30 33 1 10 31
M  V30 34 1 12 32
M  V30 35 1 12 33
M  V30 36 1 15 34
M  V30 37 1 16 35
M  V30 38 1 19 36
M  V30 39 1 20 37
M  V30 40 1 21 38
M  V30 41 1 21 39
M  V30 42 1 21 40
M  V30 43 1 22 41
M  V30 44 1 23 42
M  V30 45 1 23 43
M  V30 46 1 23 44
M  V30 END BOND
M  V30 BEGIN COLLECTION
M  V30 MDLV30/STEABS ATOMS=(4 3 10 16 19)
M  V30 END COLLECTION
M  V30 END CTAB
M  END
>  <NO.>
4694

>  <Name>
(5r,6s)-3-[(3r)-1-ethanimidoylpyrrolidin-3-yl]sulfanyl-6-[(1r)-1-hydroxyethyl]-7-oxo-1-azabicyclo[3.2.0]hept-2-ene-2-carboxylic acid

>  <SMILES>
CC(=N)N1CC[C@@H](SC2=C(C(=O)O)N3C(=O)[C@H]([C@@H](C)O)[C@H]3C2)C1

>  <logBB>


>  <Class>
-1

>  <MW>
339.13

>  <nHBAcc>
5

>  <nHBDon>
3

>  <SLogP>
0.7

>  <TopoPSA>
104.93

>  <MMFF94 Energy>
18.111

$$$$
CC(=O)Nc1ccc(S(=O)(=O)c2ccc(NC(C)=O)cc2)cc1
Actelion Java MolfileCreator 2.0

  0  0  0  0  0  0              0 V3000
M  V30 BEGIN CTAB
M  V30 COUNTS 39 40 0 0 0
M  V30 BEGIN ATOM
M  V30 1 S -2.5004 1.3706 -0.3223 0
M  V30 2 O -3.5521 1.2778 0.6751 0
M  V30 3 O -2.672 2.1947 -1.504 0
M  V30 4 C -1.0471 1.9268 0.5381 0
M  V30 5 C -2.1581 -0.2747 -0.9013 0
M  V30 6 C -0.7285 1.3599 1.7734 0
M  V30 7 C -0.25 2.9324 -0.0086 0
M  V30 8 C -2.9837 -1.3342 -0.523 0
M  V30 9 C -1.0586 -0.4918 -1.7335 0
M  V30 10 C 0.4129 1.7936 2.4532 0
M  V30 11 C 0.8913 3.3587 0.6786 0
M  V30 12 C -2.6953 -2.6245 -0.976 0
M  V30 13 C -0.7755 -1.787 -2.1782 0
M  V30 14 C 1.2365 2.7889 1.9077 0
M  V30 15 C -1.5841 -2.862 -1.7967 0
M  V30 16 N 2.3634 3.177 2.6597 0
M  V30 17 N -1.3662 -4.1864 -2.2242 0
M  V30 18 C 3.4206 3.9621 2.2342 0
M  V30 19 C -0.1996 -4.7008 -2.7617 0
M  V30 20 O 3.5836 4.4341 1.1151 0
M  V30 21 C 4.4391 4.1784 3.3251 0
M  V30 22 O 0.8612 -4.1065 -2.9147 0
M  V30 23 C -0.3375 -6.1562 -3.1308 0
M  V30 24 H -1.3603 0.592 2.2144 0
M  V30 25 H -0.5019 3.3953 -0.9607 0
M  V30 26 H -3.8496 -1.1689 0.1148 0
M  V30 27 H -0.423 0.3312 -2.0527 0
M  V30 28 H 0.6494 1.3404 3.413 0
M  V30 29 H 1.4875 4.1498 0.2317 0
M  V30 30 H -3.3475 -3.4398 -0.6724 0
M  V30 31 H 0.0776 -1.9265 -2.837 0
M  V30 32 H 2.4205 2.81 3.6015 0
M  V30 33 H -2.1288 -4.8362 -2.0783 0
M  V30 34 H 3.945 4.4912 4.2497 0
M  V30 35 H 5.1419 4.9602 3.0237 0
M  V30 36 H 4.988 3.2491 3.5009 0
M  V30 37 H -0.3207 -6.7645 -2.2223 0
M  V30 38 H 0.4922 -6.4514 -3.779 0
M  V30 39 H -1.2755 -6.3273 -3.667 0
M  V30 END ATOM
M  V30 BEGIN BOND
M  V30 1 2 1 2
M  V30 2 2 1 3
M  V30 3 1 1 4
M  V30 4 1 1 5
M  V30 5 2 4 6
M  V30 6 1 4 7
M  V30 7 2 5 8
M  V30 8 1 5 9
M  V30 9 1 6 10
M  V30 10 2 7 11
M  V30 11 1 8 12
M  V30 12 2 9 13
M  V30 13 2 10 14
M  V30 14 2 12 15
M  V30 15 1 14 16
M  V30 16 1 15 17
M  V30 17 1 16 18
M  V30 18 1 17 19
M  V30 19 2 18 20
M  V30 20 1 18 21
M  V30 21 2 19 22
M  V30 22 1 19 23
M  V30 23 1 11 14
M  V30 24 1 13 15
M  V30 25 1 6 24
M  V30 26 1 7 25
M  V30 27 1 8 26
M  V30 28 1 9 27
M  V30 29 1 10 28
M  V30 30 1 11 29
M  V30 31 1 12 30
M  V30 32 1 13 31
M  V30 33 1 16 32
M  V30 34 1 17 33
M  V30 35 1 21 34
M  V30 36 1 21 35
M  V30 37 1 21 36
M  V30 38 1 23 37
M  V30 39 1 23 38
M  V30 40 1 23 39
M  V30 END BOND
M  V30 END CTAB
M  END
>  <NO.>
4696

>  <Name>
ornidazole

>  <SMILES>
CC(=O)Nc1ccc(S(=O)(=O)c2ccc(NC(C)=O)cc2)cc1

>  <logBB>


>  <Class>
1

>  <MW>
332.08

>  <nHBAcc>
4

>  <nHBDon>
2

>  <SLogP>
2.44

>  <TopoPSA>
92.34

>  <MMFF94 Energy>
52.82

$$$$
CC(=O)[C@H]1CC[C@H]2[C@@H]3CC=C4C[C@@H](O)CC[C@]4(C)[C@H]3CC[C@]12C
Actelion Java MolfileCreator 2.0

  0  0  0  0  0  0              0 V3000
M  V30 BEGIN CTAB
M  V30 COUNTS 55 58 0 0 0
M  V30 BEGIN ATOM
M  V30 1 O -2.645 -4.2506 2.9659 0
M  V30 2 C -1.6152 -4.1291 2.3022 0
M  V30 3 C -1.5649 -3.3313 1.0006 0 CFG=2
M  V30 4 C -0.3277 -4.7502 2.7797 0
M  V30 5 C -0.8993 -1.9359 1.0946 0 CFG=2
M  V30 6 C -2.969 -3.039 0.4097 0
M  V30 7 C -1.4134 -1.3169 -0.223 0 CFG=1
M  V30 8 C 0.6352 -1.9326 1.023 0
M  V30 9 C -1.3756 -1.1887 2.3656 0
M  V30 10 C -2.9018 -1.6369 -0.216 0
M  V30 11 C -0.9817 0.1397 -0.4255 0 CFG=1
M  V30 12 C 1.1918 -0.5142 0.8099 0
M  V30 13 C 0.5709 0.2299 -0.4021 0 CFG=2
M  V30 14 C -1.5246 0.6882 -1.7543 0
M  V30 15 C 1.0692 1.7218 -0.5677 0 CFG=2
M  V30 16 C -0.8537 1.9485 -2.2016 0
M  V30 17 C 0.2875 2.4351 -1.682 0
M  V30 18 C 2.5812 1.6929 -0.9428 0
M  V30 19 C 0.8805 2.5274 0.7401 0
M  V30 20 C 0.8622 3.7383 -2.1945 0
M  V30 21 C 3.1449 3.0386 -1.3977 0
M  V30 22 C 2.3418 3.6114 -2.5604 0 CFG=2
M  V30 23 O 2.8771 4.8916 -2.8892 0
M  V30 24 H -1.0304 -3.9551 0.2703 0
M  V30 25 H 0.2574 -5.1075 1.9288 0
M  V30 26 H 0.2458 -4.0175 3.3506 0
M  V30 27 H -0.5546 -5.6083 3.4189 0
M  V30 28 H -3.7731 -3.0746 1.1519 0
M  V30 29 H -3.2094 -3.7874 -0.3545 0
M  V30 30 H -0.9821 -1.8913 -1.0606 0
M  V30 31 H 0.9765 -2.572 0.1988 0
M  V30 32 H 1.0698 -2.3491 1.9378 0
M  V30 33 H -1.0959 -0.132 2.3661 0
M  V30 34 H -0.9321 -1.6322 3.2643 0
M  V30 35 H -2.4626 -1.2286 2.4901 0
M  V30 36 H -3.3322 -1.6296 -1.2225 0
M  V30 37 H -3.4643 -0.9179 0.3899 0
M  V30 38 H -1.3964 0.7552 0.381 0
M  V30 39 H 2.2767 -0.5945 0.6778 0
M  V30 40 H 1.038 0.0553 1.7311 0
M  V30 41 H 0.9167 -0.3227 -1.2909 0
M  V30 42 H -2.5993 0.8805 -1.6497 0
M  V30 43 H -1.4117 -0.0543 -2.5539 0
M  V30 44 H -1.3581 2.4866 -3.0021 0
M  V30 45 H 2.7443 0.9692 -1.7531 0
M  V30 46 H 3.1783 1.3428 -0.0923 0
M  V30 47 H -0.1528 2.4833 1.0995 0
M  V30 48 H 1.5307 2.1585 1.5398 0
M  V30 49 H 1.1254 3.5876 0.6156 0
M  V30 50 H 0.3125 4.1012 -3.0727 0
M  V30 51 H 0.7319 4.5222 -1.4377 0
M  V30 52 H 4.1924 2.9178 -1.7007 0
M  V30 53 H 3.1653 3.7512 -0.5637 0
M  V30 54 H 2.4588 2.9656 -3.4394 0
M  V30 55 H 2.3784 5.2282 -3.6533 0
M  V30 END ATOM
M  V30 BEGIN BOND
M  V30 1 2 1 2
M  V30 2 1 2 3
M  V30 3 1 2 4
M  V30 4 1 3 5
M  V30 5 1 3 6
M  V30 6 1 5 7
M  V30 7 1 5 8
M  V30 8 1 5 9
M  V30 9 1 6 10
M  V30 10 1 7 11
M  V30 11 1 8 12
M  V30 12 1 11 13
M  V30 13 1 11 14
M  V30 14 1 13 15
M  V30 15 1 14 16
M  V30 16 1 15 17
M  V30 17 1 15 18
M  V30 18 1 15 19
M  V30 19 1 17 20
M  V30 20 1 18 21
M  V30 21 1 20 22
M  V30 22 1 22 23
M  V30 23 1 7 10
M  V30 24 1 12 13
M  V30 25 2 16 17
M  V30 26 1 21 22
M  V30 27 1 3 24
M  V30 28 1 4 25
M  V30 29 1 4 26
M  V30 30 1 4 27
M  V30 31 1 6 28
M  V30 32 1 6 29
M  V30 33 1 7 30
M  V30 34 1 8 31
M  V30 35 1 8 32
M  V30 36 1 9 33
M  V30 37 1 9 34
M  V30 38 1 9 35
M  V30 39 1 10 36
M  V30 40 1 10 37
M  V30 41 1 11 38
M  V30 42 1 12 39
M  V30 43 1 12 40
M  V30 44 1 13 41
M  V30 45 1 14 42
M  V30 46 1 14 43
M  V30 47 1 16 44
M  V30 48 1 18 45
M  V30 49 1 18 46
M  V30 50 1 19 47
M  V30 51 1 19 48
M  V30 52 1 19 49
M  V30 53 1 20 50
M  V30 54 1 20 51
M  V30 55 1 21 52
M  V30 56 1 21 53
M  V30 57 1 22 54
M  V30 58 1 23 55
M  V30 END BOND
M  V30 BEGIN COLLECTION
M  V30 MDLV30/STEABS ATOMS=(7 3 5 7 11 13 15 22)
M  V30 END COLLECTION
M  V30 END CTAB
M  END
>  <NO.>
4732

>  <Name>
pregnenolone

>  <SMILES>
CC(=O)[C@H]1CC[C@H]2[C@@H]3CC=C4C[C@@H](O)CC[C@]4(C)[C@H]3CC[C@]12C

>  <logBB>


>  <Class>
1

>  <MW>
316.24

>  <nHBAcc>
2

>  <nHBDon>
1

>  <SLogP>
4.52

>  <TopoPSA>
37.3

>  <MMFF94 Energy>
85.055

$$$$
CC(C)(C)C(=O)O[C@]1(C(=O)CS)CC[C@H]2[C@@H]3CCC4=CC(=O)CC[C@]4(C)[C@H]3[C@@H](O)C[C@@]21C
Actelion Java MolfileCreator 2.0

  0  0  0  0  0  0              0 V3000
M  V30 BEGIN CTAB
M  V30 COUNTS 70 73 0 0 0
M  V30 BEGIN ATOM
M  V30 1 S -0.9701 1.3746 5.0201 0
M  V30 2 C 0.5318 1.7451 4.0758 0
M  V30 3 C 1.2449 0.4741 3.6476 0
M  V30 4 O 1.6332 -0.3462 4.4852 0
M  V30 5 C 1.4329 0.233 2.1205 0 CFG=2
M  V30 6 O 1.6817 1.441 1.357 0
M  V30 7 C 0.1874 -0.4852 1.474 0 CFG=2
M  V30 8 C 2.5866 -0.7762 1.8073 0
M  V30 9 C 2.7035 2.2618 1.7267 0
M  V30 10 C 0.824 -0.9899 0.1572 0 CFG=1
M  V30 11 C -0.9914 0.4337 1.082 0
M  V30 12 C -0.302 -1.6464 2.3837 0
M  V30 13 C 2.1207 -1.6421 0.6191 0
M  V30 14 O 3.3531 2.119 2.7514 0
M  V30 15 C 2.884 3.3977 0.7192 0
M  V30 16 C -0.1329 -1.8016 -0.7297 0 CFG=1
M  V30 17 C -2.013 -0.2438 0.1427 0 CFG=1
M  V30 18 C 4.1278 4.2186 1.0929 0
M  V30 19 C 3.0744 2.8183 -0.6892 0
M  V30 20 C 1.6472 4.3038 0.7626 0
M  V30 21 C -1.3553 -0.9038 -1.1061 0 CFG=2
M  V30 22 C 0.5904 -2.2771 -2.0004 0
M  V30 23 O -2.7776 -1.1868 0.877 0
M  V30 24 C -2.3561 -1.6146 -2.1045 0 CFG=2
M  V30 25 C -0.3475 -3.0116 -2.9464 0
M  V30 26 C -1.5599 -2.1809 -3.2906 0
M  V30 27 C -3.3747 -0.549 -2.609 0
M  V30 28 C -3.1342 -2.7918 -1.4747 0
M  V30 29 C -1.9073 -2.0063 -4.5781 0
M  V30 30 C -4.1328 -0.9697 -3.8592 0
M  V30 31 C -3.1654 -1.3234 -4.9572 0
M  V30 32 O -3.4153 -1.1289 -6.144 0
M  V30 33 H -1.1624 2.6146 5.4927 0
M  V30 34 H 0.2443 2.3473 3.2117 0
M  V30 35 H 1.2195 2.3358 4.6883 0
M  V30 36 H 2.8196 -1.4323 2.6524 0
M  V30 37 H 3.5164 -0.265 1.5358 0
M  V30 38 H 1.1222 -0.1171 -0.4459 0
M  V30 39 H -1.5026 0.7809 1.9862 0
M  V30 40 H -0.6184 1.3284 0.5689 0
M  V30 41 H -0.8841 -1.2615 3.2273 0
M  V30 42 H 0.5238 -2.2295 2.8031 0
M  V30 43 H -0.938 -2.3638 1.8622 0
M  V30 44 H 1.9584 -2.677 0.9409 0
M  V30 45 H 2.8752 -1.6579 -0.1741 0
M  V30 46 H -0.4758 -2.6903 -0.1904 0
M  V30 47 H -2.7123 0.5309 -0.1909 0
M  V30 48 H 5.0288 3.5943 1.094 0
M  V30 49 H 4.2895 5.0402 0.3862 0
M  V30 50 H 4.0313 4.6544 2.0942 0
M  V30 51 H 3.9081 2.1072 -0.7127 0
M  V30 52 H 2.1813 2.283 -1.0311 0
M  V30 53 H 3.2824 3.6091 -1.4185 0
M  V30 54 H 1.4764 4.6893 1.7745 0
M  V30 55 H 0.7414 3.7627 0.4662 0
M  V30 56 H 1.7585 5.16 0.0882 0
M  V30 57 H -0.9241 -0.0588 -1.6694 0
M  V30 58 H 1.4149 -2.9489 -1.7344 0
M  V30 59 H 1.0366 -1.42 -2.5218 0
M  V30 60 H -3.1879 -0.7279 1.6312 0
M  V30 61 H 0.2101 -3.2928 -3.8481 0
M  V30 62 H -0.6759 -3.9503 -2.4837 0
M  V30 63 H -4.1015 -0.3079 -1.8238 0
M  V30 64 H -2.8433 0.386 -2.8362 0
M  V30 65 H -3.9397 -2.4462 -0.8194 0
M  V30 66 H -3.6116 -3.4141 -2.2417 0
M  V30 67 H -2.4865 -3.4515 -0.8893 0
M  V30 68 H -1.3293 -2.4051 -5.4045 0
M  V30 69 H -4.7562 -0.1357 -4.1999 0
M  V30 70 H -4.7842 -1.8288 -3.6714 0
M  V30 END ATOM
M  V30 BEGIN BOND
M  V30 1 1 1 2
M  V30 2 1 2 3
M  V30 3 2 3 4
M  V30 4 1 3 5
M  V30 5 1 5 6
M  V30 6 1 5 7
M  V30 7 1 5 8
M  V30 8 1 6 9
M  V30 9 1 7 10
M  V30 10 1 7 11
M  V30 11 1 7 12
M  V30 12 1 8 13
M  V30 13 2 9 14
M  V30 14 1 9 15
M  V30 15 1 10 16
M  V30 16 1 11 17
M  V30 17 1 15 18
M  V30 18 1 15 19
M  V30 19 1 15 20
M  V30 20 1 16 21
M  V30 21 1 16 22
M  V30 22 1 17 23
M  V30 23 1 21 24
M  V30 24 1 22 25
M  V30 25 1 24 26
M  V30 26 1 24 27
M  V30 27 1 24 28
M  V30 28 2 26 29
M  V30 29 1 27 30
M  V30 30 1 29 31
M  V30 31 2 31 32
M  V30 32 1 10 13
M  V30 33 1 17 21
M  V30 34 1 25 26
M  V30 35 1 30 31
M  V30 36 1 1 33
M  V30 37 1 2 34
M  V30 38 1 2 35
M  V30 39 1 8 36
M  V30 40 1 8 37
M  V30 41 1 10 38
M  V30 42 1 11 39
M  V30 43 1 11 40
M  V30 44 1 12 41
M  V30 45 1 12 42
M  V30 46 1 12 43
M  V30 47 1 13 44
M  V30 48 1 13 45
M  V30 49 1 16 46
M  V30 50 1 17 47
M  V30 51 1 18 48
M  V30 52 1 18 49
M  V30 53 1 18 50
M  V30 54 1 19 51
M  V30 55 1 19 52
M  V30 56 1 19 53
M  V30 57 1 20 54
M  V30 58 1 20 55
M  V30 59 1 20 56
M  V30 60 1 21 57
M  V30 61 1 22 58
M  V30 62 1 22 59
M  V30 63 1 23 60
M  V30 64 1 25 61
M  V30 65 1 25 62
M  V30 66 1 27 63
M  V30 67 1 27 64
M  V30 68 1 28 65
M  V30 69 1 28 66
M  V30 70 1 28 67
M  V30 71 1 29 68
M  V30 72 1 30 69
M  V30 73 1 30 70
M  V30 END BOND
M  V30 BEGIN COLLECTION
M  V30 MDLV30/STEABS ATOMS=(7 5 7 10 16 17 21 24)
M  V30 END COLLECTION
M  V30 END CTAB
M  END
>  <NO.>
4738

>  <Name>
tixocortol-pivalate

>  <SMILES>
CC(C)(C)C(=O)O[C@]1(C(=O)CS)CC[C@H]2[C@@H]3CCC4=CC(=O)CC[C@]4(C)[C@H]3[C@@H](O)C[C@@]21C

>  <logBB>


>  <Class>
1

>  <MW>
462.24

>  <nHBAcc>
6

>  <nHBDon>
2

>  <SLogP>
4.32

>  <TopoPSA>
80.67

>  <MMFF94 Energy>
114.21

$$$$
CC(O)C(=O)[C@@]1(O)CC[C@H]2[C@@H]3CCC4=CC(=O)C=C[C@]4(C)[C@@]3(F)[C@@H](O)C[C@@]21C
Actelion Java MolfileCreator 2.0

  0  0  0  0  0  0              0 V3000
M  V30 BEGIN CTAB
M  V30 COUNTS 57 60 0 0 0
M  V30 BEGIN ATOM
M  V30 1 F -0.2423 2.0212 0.9698 0
M  V30 2 C -0.044 0.7286 1.4344 0 CFG=2
M  V30 3 C -0.1302 0.8105 3.0144 0 CFG=2
M  V30 4 C 1.3432 0.3097 0.8552 0 CFG=1
M  V30 5 C -1.2108 -0.1206 0.8288 0 CFG=2
M  V30 6 C -1.5457 1.2958 3.3815 0
M  V30 7 C 0.9295 1.7629 3.5688 0
M  V30 8 C 0.1012 -0.542 3.7272 0
M  V30 9 O 1.8207 -0.9099 1.414 0
M  V30 10 C 1.3556 0.2058 -0.6878 0
M  V30 11 C -1.1128 -0.0831 -0.7042 0 CFG=1
M  V30 12 C -2.5803 0.4088 1.2948 0
M  V30 13 C -1.7915 2.3953 4.1164 0
M  V30 14 C -2.6848 0.4885 2.8141 0
M  V30 15 C 0.6791 2.8576 4.2994 0
M  V30 16 C 0.2119 -0.661 -1.2571 0 CFG=1
M  V30 17 C -2.1823 -0.8002 -1.5192 0
M  V30 18 C -0.7026 3.2458 4.6378 0
M  V30 19 C -0.0633 -0.5313 -2.7929 0 CFG=1
M  V30 20 C 0.4293 -2.1539 -0.8878 0
M  V30 21 C -1.5583 -0.9511 -2.9199 0
M  V30 22 O -0.9371 4.2326 5.3241 0
M  V30 23 O 0.0457 0.8368 -3.1965 0
M  V30 24 C 0.869 -1.394 -3.671 0
M  V30 25 O 0.5407 -2.5049 -4.1019 0
M  V30 26 C 2.2615 -0.843 -3.9856 0
M  V30 27 O 3.2086 -1.9095 -3.9415 0
M  V30 28 C 2.2841 -0.2271 -5.3745 0
M  V30 29 H 2.076 1.0817 1.1174 0
M  V30 30 H -1.129 -1.1567 1.1721 0
M  V30 31 H 1.9705 1.5143 3.3745 0
M  V30 32 H -0.2032 -0.4899 4.7812 0
M  V30 33 H -0.4639 -1.3609 3.2729 0
M  V30 34 H 1.1563 -0.8356 3.7327 0
M  V30 35 H 2.7094 -1.0767 1.0508 0
M  V30 36 H 2.3201 -0.201 -1.0118 0
M  V30 37 H 1.2887 1.2243 -1.0896 0
M  V30 38 H -1.178 0.979 -0.9913 0
M  V30 39 H -2.7619 1.4031 0.8656 0
M  V30 40 H -3.3802 -0.2435 0.925 0
M  V30 41 H -2.794 2.7322 4.3543 0
M  V30 42 H -2.6762 -0.519 3.2455 0
M  V30 43 H -3.6549 0.9262 3.0797 0
M  V30 44 H 1.4656 3.4966 4.6814 0
M  V30 45 H -3.1157 -0.2294 -1.5642 0
M  V30 46 H -2.4169 -1.7837 -1.0967 0
M  V30 47 H 1.4289 -2.4841 -1.1928 0
M  V30 48 H -0.2904 -2.8171 -1.3783 0
M  V30 49 H 0.3403 -2.351 0.182 0
M  V30 50 H -2.0966 -0.3176 -3.6342 0
M  V30 51 H -1.6861 -1.9872 -3.2505 0
M  V30 52 H -0.4506 0.9568 -4.0261 0
M  V30 53 H 2.5634 -0.1068 -3.2394 0
M  V30 54 H 2.8 -2.6567 -4.4231 0
M  V30 55 H 2.0177 -0.9677 -6.1372 0
M  V30 56 H 3.2901 0.13 -5.6184 0
M  V30 57 H 1.5849 0.61 -5.4569 0
M  V30 END ATOM
M  V30 BEGIN BOND
M  V30 1 1 1 2
M  V30 2 1 2 3
M  V30 3 1 2 4
M  V30 4 1 2 5
M  V30 5 1 3 6
M  V30 6 1 3 7
M  V30 7 1 3 8
M  V30 8 1 4 9
M  V30 9 1 4 10
M  V30 10 1 5 11
M  V30 11 1 5 12
M  V30 12 2 6 13
M  V30 13 1 6 14
M  V30 14 2 7 15
M  V30 15 1 10 16
M  V30 16 1 11 17
M  V30 17 1 13 18
M  V30 18 1 16 19
M  V30 19 1 16 20
M  V30 20 1 17 21
M  V30 21 2 18 22
M  V30 22 1 19 23
M  V30 23 1 19 24
M  V30 24 2 24 25
M  V30 25 1 24 26
M  V30 26 1 26 27
M  V30 27 1 26 28
M  V30 28 1 11 16
M  V30 29 1 12 14
M  V30 30 1 15 18
M  V30 31 1 19 21
M  V30 32 1 4 29
M  V30 33 1 5 30
M  V30 34 1 7 31
M  V30 35 1 8 32
M  V30 36 1 8 33
M  V30 37 1 8 34
M  V30 38 1 9 35
M  V30 39 1 10 36
M  V30 40 1 10 37
M  V30 41 1 11 38
M  V30 42 1 12 39
M  V30 43 1 12 40
M  V30 44 1 13 41
M  V30 45 1 14 42
M  V30 46 1 14 43
M  V30 47 1 15 44
M  V30 48 1 17 45
M  V30 49 1 17 46
M  V30 50 1 20 47
M  V30 51 1 20 48
M  V30 52 1 20 49
M  V30 53 1 21 50
M  V30 54 1 21 51
M  V30 55 1 23 52
M  V30 56 1 26 53
M  V30 57 1 27 54
M  V30 58 1 28 55
M  V30 59 1 28 56
M  V30 60 1 28 57
M  V30 END BOND
M  V30 BEGIN COLLECTION
M  V30 MDLV30/STEABS ATOMS=(7 2 3 4 5 11 16 19)
M  V30 END COLLECTION
M  V30 END CTAB
M  END
>  <NO.>
4749

>  <Name>
fluperolone

>  <SMILES>
CC(O)C(=O)[C@@]1(O)CC[C@H]2[C@@H]3CCC4=CC(=O)C=C[C@]4(C)[C@@]3(F)[C@@H](O)C[C@@]21C

>  <logBB>


>  <Class>
1

>  <MW>
392.2

>  <nHBAcc>
5

>  <nHBDon>
3

>  <SLogP>
2.04

>  <TopoPSA>
94.83

>  <MMFF94 Energy>
170.6

$$$$
CC1(C)SC2C(NC(=O)C(N=[N+]=[N-])c3ccccc3)C(=O)N2C1C(=O)O
Actelion Java MolfileCreator 2.0

  0  0  0  0  0  0              0 V3000
M  V30 BEGIN CTAB
M  V30 COUNTS 43 45 0 0 0
M  V30 BEGIN ATOM
M  V30 1 S 0.3267 -1.4707 0.245 0
M  V30 2 C -1.1981 -2.492 -0.0916 0
M  V30 3 C 0.6185 -1.2269 -1.5512 0
M  V30 4 C -1.8345 -1.804 -1.3187 0
M  V30 5 C -0.7444 -3.9371 -0.3411 0
M  V30 6 C -2.1061 -2.4245 1.1381 0
M  V30 7 N -0.742 -1.2266 -2.086 0
M  V30 8 C 0.7742 0.2128 -2.1085 0
M  V30 9 C -2.7385 -2.7242 -2.1315 0
M  V30 10 C -0.718 0.0641 -2.5057 0
M  V30 11 N 1.076 1.301 -1.1467 0
M  V30 12 O -3.7325 -3.2938 -1.705 0
M  V30 13 O -2.3544 -2.9131 -3.4095 0
M  V30 14 O -1.6051 0.7963 -2.8771 0
M  V30 15 C 2.3188 1.4253 -0.5638 0
M  V30 16 O 3.2517 0.6749 -0.8453 0
M  V30 17 C 2.4686 2.6002 0.4236 0
M  V30 18 N 2.3104 3.8483 -0.3571 0
M  V30 19 C 1.4888 2.4882 1.5836 0
M  V30 20 N 3.3193 4.2004 -0.9942 0 CHG=1
M  V30 21 C 1.6156 1.4204 2.4887 0
M  V30 22 C 0.4478 3.4095 1.7796 0
M  V30 23 N 4.2413 4.5269 -1.5773 0 CHG=-1
M  V30 24 C 0.722 1.2736 3.5509 0
M  V30 25 C -0.4435 3.2618 2.8448 0
M  V30 26 C -0.3074 2.194 3.7284 0
M  V30 27 H 1.2576 -1.9802 -2.0214 0
M  V30 28 H -2.4731 -0.9665 -1.0037 0
M  V30 29 H -0.1729 -4.3306 0.508 0
M  V30 30 H -0.1204 -4.0276 -1.2371 0
M  V30 31 H -1.6045 -4.6025 -0.4755 0
M  V30 32 H -3.0255 -2.9977 0.9752 0
M  V30 33 H -1.6161 -2.8424 2.0253 0
M  V30 34 H -2.4013 -1.3949 1.3715 0
M  V30 35 H 1.4239 0.2791 -2.99 0
M  V30 36 H 0.3526 1.9609 -0.8744 0
M  V30 37 H -3.0469 -3.4884 -3.7962 0
M  V30 38 H 3.4815 2.5624 0.8491 0
M  V30 39 H 2.4084 0.6835 2.3661 0
M  V30 40 H 0.3165 4.2552 1.1077 0
M  V30 41 H 0.8287 0.4374 4.2374 0
M  V30 42 H -1.245 3.983 2.9851 0
M  V30 43 H -1.0028 2.0798 4.5559 0
M  V30 END ATOM
M  V30 BEGIN BOND
M  V30 1 1 1 2
M  V30 2 1 1 3
M  V30 3 1 2 4
M  V30 4 1 2 5
M  V30 5 1 2 6
M  V30 6 1 3 7
M  V30 7 1 3 8
M  V30 8 1 4 9
M  V30 9 1 7 10
M  V30 10 1 8 11
M  V30 11 2 9 12
M  V30 12 1 9 13
M  V30 13 2 10 14
M  V30 14 1 11 15
M  V30 15 2 15 16
M  V30 16 1 15 17
M  V30 17 1 17 18
M  V30 18 1 17 19
M  V30 19 2 18 20
M  V30 20 2 19 21
M  V30 21 1 19 22
M  V30 22 2 20 23
M  V30 23 1 21 24
M  V30 24 2 22 25
M  V30 25 2 24 26
M  V30 26 1 4 7
M  V30 27 1 8 10
M  V30 28 1 25 26
M  V30 29 1 3 27
M  V30 30 1 4 28
M  V30 31 1 5 29
M  V30 32 1 5 30
M  V30 33 1 5 31
M  V30 34 1 6 32
M  V30 35 1 6 33
M  V30 36 1 6 34
M  V30 37 1 8 35
M  V30 38 1 11 36
M  V30 39 1 13 37
M  V30 40 1 17 38
M  V30 41 1 21 39
M  V30 42 1 22 40
M  V30 43 1 24 41
M  V30 44 1 25 42
M  V30 45 1 26 43
M  V30 END BOND
M  V30 END CTAB
M  END
>  <NO.>
4761

>  <Name>
ft-0770806

>  <SMILES>
CC1(C)SC2C(NC(=O)C(N=[N+]=[N-])c3ccccc3)C(=O)N2C1C(=O)O

>  <logBB>


>  <Class>
-1

>  <MW>
375.1

>  <nHBAcc>
5

>  <nHBDon>
2

>  <SLogP>
1.67

>  <TopoPSA>
135.47

>  <MMFF94 Energy>
64.898

$$$$
CCC(=O)O[C@]1(C(=O)CCl)[C@@H](C)CC2C3C[C@H](F)C4=CC(=O)C=C[C@]4(C)[C@@]3(F)[C@@H](O)C[C@@]21C
Actelion Java MolfileCreator 2.0

  0  0  0  0  0  0              0 V3000
M  V30 BEGIN CTAB
M  V30 COUNTS 64 67 0 0 0
M  V30 BEGIN ATOM
M  V30 1 Cl -3.5918 -1.8763 -3.2649 0
M  V30 2 C -3.4219 -2.4217 -1.5834 0
M  V30 3 C -2.0028 -2.8969 -1.3379 0
M  V30 4 O -1.5236 -3.7946 -2.0365 0
M  V30 5 C -1.166 -2.1496 -0.2485 0 CFG=2
M  V30 6 O -2.0016 -1.6268 0.8288 0
M  V30 7 C -0.4147 -0.9013 -0.8765 0 CFG=2
M  V30 8 C 0.0085 -2.9481 0.4584 0 CFG=2
M  V30 9 C -2.7795 -2.4979 1.5317 0
M  V30 10 C 0.6461 -0.63 0.2167 0
M  V30 11 C -1.2552 0.3896 -1.0233 0
M  V30 12 C 0.2199 -1.2809 -2.2439 0
M  V30 13 C 1.2422 -2.0091 0.4593 0
M  V30 14 C 0.3833 -4.3269 -0.0693 0
M  V30 15 O -2.9356 -3.6706 1.2331 0
M  V30 16 C -3.4282 -1.7799 2.6884 0
M  V30 17 C 1.597 0.5327 -0.1131 0
M  V30 18 C -0.4081 1.6518 -1.3084 0 CFG=1
M  V30 19 C -4.2719 -2.7156 3.5357 0
M  V30 20 C 0.7579 1.8425 -0.2902 0 CFG=1
M  V30 21 C 2.6474 0.6994 0.9988 0
M  V30 22 O 0.051 1.6257 -2.6541 0
M  V30 23 F 0.1309 2.0485 0.9298 0
M  V30 24 C 1.6791 3.1095 -0.5319 0 CFG=2
M  V30 25 C 3.5415 1.9124 0.7802 0 CFG=1
M  V30 26 C 2.7153 3.16 0.605 0
M  V30 27 C 0.8438 4.3897 -0.5613 0
M  V30 28 C 2.449 3.0775 -1.8727 0
M  V30 29 F 4.3725 2.0115 1.8571 0
M  V30 30 C 2.8631 4.2085 1.4354 0
M  V30 31 C 0.995 5.43 0.2691 0
M  V30 32 C 2.0246 5.4179 1.325 0
M  V30 33 O 2.1748 6.3729 2.0761 0
M  V30 34 H -3.6906 -1.5782 -0.9469 0
M  V30 35 H -4.1171 -3.2452 -1.4006 0
M  V30 36 H -0.2555 -3.0943 1.5148 0
M  V30 37 H 0.1301 -0.3498 1.1492 0
M  V30 38 H -1.9924 0.2589 -1.8226 0
M  V30 39 H -1.8206 0.5793 -0.103 0
M  V30 40 H -0.5385 -1.3014 -3.0335 0
M  V30 41 H 0.9929 -0.5829 -2.57 0
M  V30 42 H 0.6942 -2.2656 -2.2297 0
M  V30 43 H 1.9624 -2.2758 -0.3221 0
M  V30 44 H 1.7673 -2.064 1.4192 0
M  V30 45 H -0.4681 -5.0123 -0.016 0
M  V30 46 H 1.1841 -4.7592 0.5413 0
M  V30 47 H 0.7492 -4.2923 -1.0992 0
M  V30 48 H -4.0595 -0.9793 2.289 0
M  V30 49 H -2.6403 -1.3403 3.3092 0
M  V30 50 H 2.1372 0.3125 -1.0389 0
M  V30 51 H -1.0898 2.5059 -1.2242 0
M  V30 52 H -4.7252 -2.1708 4.3696 0
M  V30 53 H -3.6644 -3.5285 3.9471 0
M  V30 54 H -5.0756 -3.1654 2.9433 0
M  V30 55 H 2.1575 0.7825 1.9784 0
M  V30 56 H 3.283 -0.1919 1.0604 0
M  V30 57 H -0.7249 1.5437 -3.2386 0
M  V30 58 H 4.1835 1.7608 -0.0934 0
M  V30 59 H 0.0852 4.4725 -1.3369 0
M  V30 60 H 1.8025 3.293 -2.7301 0
M  V30 61 H 2.9299 2.1132 -2.0605 0
M  V30 62 H 3.2406 3.8386 -1.8915 0
M  V30 63 H 3.5895 4.2183 2.2414 0
M  V30 64 H 0.3868 6.3241 0.2022 0
M  V30 END ATOM
M  V30 BEGIN BOND
M  V30 1 1 1 2
M  V30 2 1 2 3
M  V30 3 2 3 4
M  V30 4 1 3 5
M  V30 5 1 5 6
M  V30 6 1 5 7
M  V30 7 1 5 8
M  V30 8 1 6 9
M  V30 9 1 7 10
M  V30 10 1 7 11
M  V30 11 1 7 12
M  V30 12 1 8 13
M  V30 13 1 8 14
M  V30 14 2 9 15
M  V30 15 1 9 16
M  V30 16 1 10 17
M  V30 17 1 11 18
M  V30 18 1 16 19
M  V30 19 1 17 20
M  V30 20 1 17 21
M  V30 21 1 18 22
M  V30 22 1 20 23
M  V30 23 1 20 24
M  V30 24 1 21 25
M  V30 25 1 24 26
M  V30 26 1 24 27
M  V30 27 1 24 28
M  V30 28 1 25 29
M  V30 29 2 26 30
M  V30 30 2 27 31
M  V30 31 1 30 32
M  V30 32 2 32 33
M  V30 33 1 10 13
M  V30 34 1 18 20
M  V30 35 1 25 26
M  V30 36 1 31 32
M  V30 37 1 2 34
M  V30 38 1 2 35
M  V30 39 1 8 36
M  V30 40 1 10 37
M  V30 41 1 11 38
M  V30 42 1 11 39
M  V30 43 1 12 40
M  V30 44 1 12 41
M  V30 45 1 12 42
M  V30 46 1 13 43
M  V30 47 1 13 44
M  V30 48 1 14 45
M  V30 49 1 14 46
M  V30 50 1 14 47
M  V30 51 1 16 48
M  V30 52 1 16 49
M  V30 53 1 17 50
M  V30 54 1 18 51
M  V30 55 1 19 52
M  V30 56 1 19 53
M  V30 57 1 19 54
M  V30 58 1 21 55
M  V30 59 1 21 56
M  V30 60 1 22 57
M  V30 61 1 25 58
M  V30 62 1 27 59
M  V30 63 1 28 60
M  V30 64 1 28 61
M  V30 65 1 28 62
M  V30 66 1 30 63
M  V30 67 1 31 64
M  V30 END BOND
M  V30 BEGIN COLLECTION
M  V30 MDLV30/STEABS ATOMS=(7 5 7 8 18 20 24 25)
M  V30 END COLLECTION
M  V30 END CTAB
M  END
>  <NO.>
4785

>  <Name>
schembl13321839

>  <SMILES>
CCC(=O)O[C@]1(C(=O)CCl)[C@@H](C)CC2C3C[C@H](F)C4=CC(=O)C=C[C@]4(C)[C@@]3(F)[C@@H](O)C[C@@]21C

>  <logBB>


>  <Class>
1

>  <MW>
484.18

>  <nHBAcc>
5

>  <nHBDon>
1

>  <SLogP>
4.05

>  <TopoPSA>
80.67

>  <MMFF94 Energy>
140.99

$$$$
CCC(C)C(C(=O)OC1CC[N+](C)(C)CC1)c1ccccc1
Actelion Java MolfileCreator 2.0

  0  0  0  0  0  0              0 V3000
M  V30 BEGIN CTAB
M  V30 COUNTS 52 53 0 0 0
M  V30 BEGIN ATOM
M  V30 1 O -0.5506 1.1014 -1.7313 0
M  V30 2 C -0.5501 0.043 -1.1154 0
M  V30 3 O -0.8155 -0.0569 0.2248 0
M  V30 4 C -0.1931 -1.3294 -1.6905 0
M  V30 5 C -1.0391 1.19 0.9036 0
M  V30 6 C 1.2836 -1.5927 -1.4229 0
M  V30 7 C -0.5987 -1.4413 -3.1907 0
M  V30 8 C -1.7802 0.8806 2.1993 0
M  V30 9 C 0.2979 1.8658 1.1984 0
M  V30 10 C 1.6658 -2.6081 -0.5327 0
M  V30 11 C 2.2842 -0.8191 -2.0334 0
M  V30 12 C -0.156 -2.7645 -3.8619 0
M  V30 13 C -2.1141 -1.2444 -3.3683 0
M  V30 14 C -1.9778 2.132 3.0381 0
M  V30 15 C 0.1101 3.1246 2.0259 0
M  V30 16 C 3.0149 -2.8501 -0.2687 0
M  V30 17 C 3.6322 -1.0632 -1.7667 0
M  V30 18 C -0.747 -4.0328 -3.2603 0
M  V30 19 N -0.6503 2.8401 3.3267 0 CHG=1
M  V30 20 C 3.997 -2.0784 -0.8855 0
M  V30 21 C -0.9619 4.1859 3.9988 0
M  V30 22 C 0.2085 2.0356 4.3059 0
M  V30 23 H -0.7974 -2.0621 -1.1374 0
M  V30 24 H -1.6744 1.8426 0.2897 0
M  V30 25 H -0.1103 -0.6314 -3.7501 0
M  V30 26 H -2.7572 0.441 1.962 0
M  V30 27 H -1.2505 0.1049 2.7655 0
M  V30 28 H 0.9761 1.1612 1.6944 0
M  V30 29 H 0.8025 2.1288 0.2614 0
M  V30 30 H 0.9172 -3.2295 -0.0455 0
M  V30 31 H 2.0243 -0.0228 -2.7292 0
M  V30 32 H 0.9369 -2.8434 -3.8446 0
M  V30 33 H -0.4313 -2.7284 -4.9239 0
M  V30 34 H -2.4072 -1.3985 -4.4124 0
M  V30 35 H -2.6875 -1.9398 -2.7468 0
M  V30 36 H -2.4189 -0.2291 -3.0959 0
M  V30 37 H -2.6164 2.848 2.5063 0
M  V30 38 H -2.4447 1.8948 4.0008 0
M  V30 39 H -0.4742 3.8645 1.4655 0
M  V30 40 H 1.0742 3.5704 2.2952 0
M  V30 41 H 3.3018 -3.6495 0.4104 0
M  V30 42 H 4.3994 -0.4673 -2.2554 0
M  V30 43 H -0.4747 -4.1498 -2.2083 0
M  V30 44 H -1.8378 -4.0455 -3.3396 0
M  V30 45 H -0.3687 -4.9086 -3.7981 0
M  V30 46 H 5.048 -2.2753 -0.688 0
M  V30 47 H -1.5057 3.9893 4.9278 0
M  V30 48 H -0.016 4.6953 4.2057 0
M  V30 49 H -1.5753 4.7819 3.3164 0
M  V30 50 H -0.3618 1.8977 5.2294 0
M  V30 51 H 0.4529 1.0662 3.8687 0
M  V30 52 H 1.1243 2.6006 4.5041 0
M  V30 END ATOM
M  V30 BEGIN BOND
M  V30 1 2 1 2
M  V30 2 1 2 3
M  V30 3 1 2 4
M  V30 4 1 3 5
M  V30 5 1 4 6
M  V30 6 1 4 7
M  V30 7 1 5 8
M  V30 8 1 5 9
M  V30 9 2 6 10
M  V30 10 1 6 11
M  V30 11 1 7 12
M  V30 12 1 7 13
M  V30 13 1 8 14
M  V30 14 1 9 15
M  V30 15 1 10 16
M  V30 16 2 11 17
M  V30 17 1 12 18
M  V30 18 1 14 19
M  V30 19 2 16 20
M  V30 20 1 19 21
M  V30 21 1 19 22
M  V30 22 1 15 19
M  V30 23 1 17 20
M  V30 24 1 4 23
M  V30 25 1 5 24
M  V30 26 1 7 25
M  V30 27 1 8 26
M  V30 28 1 8 27
M  V30 29 1 9 28
M  V30 30 1 9 29
M  V30 31 1 10 30
M  V30 32 1 11 31
M  V30 33 1 12 32
M  V30 34 1 12 33
M  V30 35 1 13 34
M  V30 36 1 13 35
M  V30 37 1 13 36
M  V30 38 1 14 37
M  V30 39 1 14 38
M  V30 40 1 15 39
M  V30 41 1 15 40
M  V30 42 1 16 41
M  V30 43 1 17 42
M  V30 44 1 18 43
M  V30 45 1 18 44
M  V30 46 1 18 45
M  V30 47 1 20 46
M  V30 48 1 21 47
M  V30 49 1 21 48
M  V30 50 1 21 49
M  V30 51 1 22 50
M  V30 52 1 22 51
M  V30 53 1 22 52
M  V30 END BOND
M  V30 END CTAB
M  END
>  <NO.>
4791

>  <Name>
pentapiperium

>  <SMILES>
CCC(C)C(C(=O)OC1CC[N+](C)(C)CC1)c1ccccc1

>  <logBB>


>  <Class>
-1

>  <MW>
304.23

>  <nHBAcc>
2

>  <nHBDon>
0

>  <SLogP>
3.6

>  <TopoPSA>
26.3

>  <MMFF94 Energy>
44.34

$$$$
CCCC(=O)OCC(=O)[C@@]1(OC(=O)CC)CC[C@H]2[C@@H]3CCC4=CC(=O)CC[C@]4(C)[C@H]3[C@@H](O)C[C@@]21C
Actelion Java MolfileCreator 2.0

  0  0  0  0  0  0              0 V3000
M  V30 BEGIN CTAB
M  V30 COUNTS 75 78 0 0 0
M  V30 BEGIN ATOM
M  V30 1 O 5.2186 1.2024 5.1381 0
M  V30 2 C 4.7461 0.6841 4.1301 0
M  V30 3 C 4.3805 -0.7515 4.147 0
M  V30 4 C 4.4093 1.4781 2.8938 0
M  V30 5 C 3.9211 -1.3648 3.0421 0
M  V30 6 C 4.6475 0.6266 1.6591 0
M  V30 7 C 3.8529 -0.7107 1.6542 0 CFG=2
M  V30 8 C 3.2843 -2.728 3.1384 0
M  V30 9 C 2.3161 -0.5236 1.3609 0 CFG=1
M  V30 10 C 4.5736 -1.6143 0.6212 0
M  V30 11 C 1.7998 -2.6057 2.7936 0
M  V30 12 C 1.961 0.2683 0.072 0 CFG=1
M  V30 13 C 1.5417 -1.8882 1.45 0 CFG=1
M  V30 14 O 2.5894 -0.3001 -1.0654 0
M  V30 15 C 0.4404 0.382 -0.1793 0
M  V30 16 C 0.043 -1.6111 1.2604 0 CFG=1
M  V30 17 C -0.3089 -0.9689 -0.1031 0 CFG=1
M  V30 18 C -0.9277 -2.7789 1.3625 0
M  V30 19 C -1.8821 -0.8878 0.0337 0 CFG=1
M  V30 20 C 0.0825 -1.8645 -1.3116 0
M  V30 21 C -2.2211 -2.2606 0.7046 0
M  V30 22 O -2.1816 0.1754 0.9726 0
M  V30 23 C -2.5727 -0.7099 -1.3499 0
M  V30 24 C -3.4831 0.4225 1.2914 0
M  V30 25 O -2.9157 -1.6779 -2.0348 0
M  V30 26 C -2.7478 0.7188 -1.855 0
M  V30 27 O -4.4387 -0.1292 0.771 0
M  V30 28 C -3.5479 1.4908 2.3546 0
M  V30 29 O -2.8617 0.7384 -3.2782 0
M  V30 30 C -4.9767 1.795 2.7682 0
M  V30 31 C -2.9294 1.9899 -3.8075 0
M  V30 32 O -2.8548 3.0233 -3.1579 0
M  V30 33 C -3.0981 1.8974 -5.3052 0
M  V30 34 C -3.1908 3.2759 -5.954 0
M  V30 35 C -3.3622 3.1725 -7.4606 0
M  V30 36 H 4.408 -1.2279 5.1207 0
M  V30 37 H 3.3721 1.8209 2.961 0
M  V30 38 H 5.0608 2.358 2.8578 0
M  V30 39 H 5.7244 0.403 1.6205 0
M  V30 40 H 4.4427 1.2141 0.7582 0
M  V30 41 H 3.3818 -3.1457 4.1479 0
M  V30 42 H 3.7813 -3.4361 2.4673 0
M  V30 43 H 1.916 0.0938 2.1818 0
M  V30 44 H 5.5509 -1.9375 1.0017 0
M  V30 45 H 4.7678 -1.0824 -0.3157 0
M  V30 46 H 4.0152 -2.5197 0.3715 0
M  V30 47 H 1.2913 -2.0614 3.601 0
M  V30 48 H 1.3606 -3.6101 2.7703 0
M  V30 49 H 2.348 1.289 0.1661 0
M  V30 50 H 1.8865 -2.5596 0.6583 0
M  V30 51 H 2.4305 0.2867 -1.8252 0
M  V30 52 H 0.2732 0.8375 -1.162 0
M  V30 53 H 0.0374 1.0778 0.5663 0
M  V30 54 H -0.2385 -0.9095 2.0625 0
M  V30 55 H -1.1061 -3.073 2.4021 0
M  V30 56 H -0.5545 -3.661 0.8305 0
M  V30 57 H -0.0665 -1.3265 -2.2549 0
M  V30 58 H -0.5123 -2.7817 -1.3654 0
M  V30 59 H 1.1254 -2.1848 -1.2915 0
M  V30 60 H -2.9952 -2.1646 1.473 0
M  V30 61 H -2.5767 -3.0077 -0.0125 0
M  V30 62 H -3.6619 1.131 -1.4177 0
M  V30 63 H -1.882 1.3124 -1.5517 0
M  V30 64 H -3.0812 2.3998 1.9609 0
M  V30 65 H -2.9832 1.1459 3.2271 0
M  V30 66 H -4.9935 2.5694 3.5412 0
M  V30 67 H -5.4692 0.9019 3.167 0
M  V30 68 H -5.5658 2.1493 1.9158 0
M  V30 69 H -4.012 1.3292 -5.5116 0
M  V30 70 H -2.239 1.353 -5.7126 0
M  V30 71 H -4.0356 3.8326 -5.5308 0
M  V30 72 H -2.2871 3.8558 -5.7314 0
M  V30 73 H -3.4262 4.171 -7.9042 0
M  V30 74 H -2.5144 2.6518 -7.9169 0
M  V30 75 H -4.2774 2.6286 -7.7148 0
M  V30 END ATOM
M  V30 BEGIN BOND
M  V30 1 2 1 2
M  V30 2 1 2 3
M  V30 3 1 2 4
M  V30 4 2 3 5
M  V30 5 1 4 6
M  V30 6 1 5 7
M  V30 7 1 5 8
M  V30 8 1 7 9
M  V30 9 1 7 10
M  V30 10 1 8 11
M  V30 11 1 9 12
M  V30 12 1 9 13
M  V30 13 1 12 14
M  V30 14 1 12 15
M  V30 15 1 13 16
M  V30 16 1 15 17
M  V30 17 1 16 18
M  V30 18 1 17 19
M  V30 19 1 17 20
M  V30 20 1 18 21
M  V30 21 1 19 22
M  V30 22 1 19 23
M  V30 23 1 22 24
M  V30 24 2 23 25
M  V30 25 1 23 26
M  V30 26 2 24 27
M  V30 27 1 24 28
M  V30 28 1 26 29
M  V30 29 1 28 30
M  V30 30 1 29 31
M  V30 31 2 31 32
M  V30 32 1 31 33
M  V30 33 1 33 34
M  V30 34 1 34 35
M  V30 35 1 6 7
M  V30 36 1 11 13
M  V30 37 1 16 17
M  V30 38 1 19 21
M  V30 39 1 3 36
M  V30 40 1 4 37
M  V30 41 1 4 38
M  V30 42 1 6 39
M  V30 43 1 6 40
M  V30 44 1 8 41
M  V30 45 1 8 42
M  V30 46 1 9 43
M  V30 47 1 10 44
M  V30 48 1 10 45
M  V30 49 1 10 46
M  V30 50 1 11 47
M  V30 51 1 11 48
M  V30 52 1 12 49
M  V30 53 1 13 50
M  V30 54 1 14 51
M  V30 55 1 15 52
M  V30 56 1 15 53
M  V30 57 1 16 54
M  V30 58 1 18 55
M  V30 59 1 18 56
M  V30 60 1 20 57
M  V30 61 1 20 58
M  V30 62 1 20 59
M  V30 63 1 21 60
M  V30 64 1 21 61
M  V30 65 1 26 62
M  V30 66 1 26 63
M  V30 67 1 28 64
M  V30 68 1 28 65
M  V30 69 1 30 66
M  V30 70 1 30 67
M  V30 71 1 30 68
M  V30 72 1 33 69
M  V30 73 1 33 70
M  V30 74 1 34 71
M  V30 75 1 34 72
M  V30 76 1 35 73
M  V30 77 1 35 74
M  V30 78 1 35 75
M  V30 END BOND
M  V30 BEGIN COLLECTION
M  V30 MDLV30/STEABS ATOMS=(7 7 9 12 13 16 17 19)
M  V30 END COLLECTION
M  V30 END CTAB
M  END
>  <NO.>
4794

>  <Name>
hydrocortisone-buteprate

>  <SMILES>
CCCC(=O)OCC(=O)[C@@]1(OC(=O)CC)CC[C@H]2[C@@H]3CCC4=CC(=O)CC[C@]4(C)[C@H]3[C@@H](O)C[C@@]21C

>  <logBB>


>  <Class>
1

>  <MW>
488.28

>  <nHBAcc>
7

>  <nHBDon>
1

>  <SLogP>
4.09

>  <TopoPSA>
106.97

>  <MMFF94 Energy>
85.557

$$$$
CC[N+](C)(C)C(C)CC(c1ccccc1)c1ccccc1
Actelion Java MolfileCreator 2.0

  0  0  0  0  0  0              0 V3000
M  V30 BEGIN CTAB
M  V30 COUNTS 49 50 0 0 0
M  V30 BEGIN ATOM
M  V30 1 N 0.4709 0.6279 2.5921 0 CHG=1
M  V30 2 C -0.3358 0.6928 1.2283 0 CFG=2
M  V30 3 C -0.4508 0.7477 3.8384 0
M  V30 4 C 1.2243 -0.7129 2.691 0
M  V30 5 C 1.5082 1.7533 2.6987 0
M  V30 6 C 0.6142 0.6521 0.0016 0
M  V30 7 C -1.2399 1.9335 1.1795 0
M  V30 8 C -1.5515 -0.3002 3.8907 0
M  V30 9 C -0.1032 0.335 -1.3416 0
M  V30 10 C 0.7725 0.5101 -2.5815 0
M  V30 11 C -0.7536 -1.043 -1.2887 0
M  V30 12 C 2.1736 0.4254 -2.5578 0
M  V30 13 C 0.1448 0.7469 -3.8187 0
M  V30 14 C 0.0164 -2.2144 -1.2044 0
M  V30 15 C -2.1536 -1.1578 -1.3054 0
M  V30 16 C 2.9201 0.5889 -3.7283 0
M  V30 17 C 0.8921 0.9095 -4.9864 0
M  V30 18 C -0.5983 -3.4647 -1.1224 0
M  V30 19 C -2.7649 -2.4097 -1.2214 0
M  V30 20 C 2.2803 0.833 -4.9403 0
M  V30 21 C -1.9877 -3.5614 -1.1261 0
M  V30 22 H -0.9626 -0.2029 1.2404 0
M  V30 23 H -0.867 1.76 3.85 0
M  V30 24 H 0.1933 0.6517 4.721 0
M  V30 25 H 1.5698 -0.8425 3.7212 0
M  V30 26 H 0.5462 -1.5205 2.4045 0
M  V30 27 H 2.0913 -0.6873 2.0268 0
M  V30 28 H 2.223 1.6619 1.8779 0
M  V30 29 H 0.9925 2.7154 2.6637 0
M  V30 30 H 2.0328 1.6452 3.6535 0
M  V30 31 H 1.1171 1.6234 -0.0942 0
M  V30 32 H 1.4004 -0.0907 0.1582 0
M  V30 33 H -0.6617 2.8621 1.1741 0
M  V30 34 H -1.9454 1.972 2.0127 0
M  V30 35 H -1.8564 1.9314 0.2756 0
M  V30 36 H -2.2517 -0.2116 3.0563 0
M  V30 37 H -1.1523 -1.3178 3.9041 0
M  V30 38 H -2.1321 -0.1697 4.8105 0
M  V30 39 H -0.8958 1.086 -1.4545 0
M  V30 40 H 2.717 0.2226 -1.6405 0
M  V30 41 H -0.9406 0.7988 -3.8861 0
M  V30 42 H 1.1029 -2.1694 -1.2291 0
M  V30 43 H -2.7849 -0.2761 -1.3975 0
M  V30 44 H 4.005 0.5195 -3.6982 0
M  V30 45 H 0.3895 1.0893 -5.9338 0
M  V30 46 H 0.0059 -4.3679 -1.0774 0
M  V30 47 H -3.8494 -2.4904 -1.2476 0
M  V30 48 H 2.8624 0.9555 -5.8504 0
M  V30 49 H -2.4654 -4.5374 -1.078 0
M  V30 END ATOM
M  V30 BEGIN BOND
M  V30 1 1 1 2
M  V30 2 1 1 3
M  V30 3 1 1 4
M  V30 4 1 1 5
M  V30 5 1 2 6
M  V30 6 1 2 7
M  V30 7 1 3 8
M  V30 8 1 6 9
M  V30 9 1 9 10
M  V30 10 1 9 11
M  V30 11 2 10 12
M  V30 12 1 10 13
M  V30 13 2 11 14
M  V30 14 1 11 15
M  V30 15 1 12 16
M  V30 16 2 13 17
M  V30 17 1 14 18
M  V30 18 2 15 19
M  V30 19 2 16 20
M  V30 20 2 18 21
M  V30 21 1 17 20
M  V30 22 1 19 21
M  V30 23 1 2 22
M  V30 24 1 3 23
M  V30 25 1 3 24
M  V30 26 1 4 25
M  V30 27 1 4 26
M  V30 28 1 4 27
M  V30 29 1 5 28
M  V30 30 1 5 29
M  V30 31 1 5 30
M  V30 32 1 6 31
M  V30 33 1 6 32
M  V30 34 1 7 33
M  V30 35 1 7 34
M  V30 36 1 7 35
M  V30 37 1 8 36
M  V30 38 1 8 37
M  V30 39 1 8 38
M  V30 40 1 9 39
M  V30 41 1 12 40
M  V30 42 1 13 41
M  V30 43 1 14 42
M  V30 44 1 15 43
M  V30 45 1 16 44
M  V30 46 1 17 45
M  V30 47 1 18 46
M  V30 48 1 19 47
M  V30 49 1 20 48
M  V30 50 1 21 49
M  V30 END BOND
M  V30 BEGIN COLLECTION
M  V30 MDLV30/STERAC1 ATOMS=(1 2)
M  V30 END COLLECTION
M  V30 END CTAB
M  END
>  <NO.>
4837

>  <Name>
emepronium

>  <SMILES>
CC[N+](C)(C)C(C)CC(c1ccccc1)c1ccccc1

>  <logBB>


>  <Class>
-1

>  <MW>
282.22

>  <nHBAcc>
0

>  <nHBDon>
0

>  <SLogP>
4.69

>  <TopoPSA>
0

>  <MMFF94 Energy>
75.962

$$$$
CN1CC[C@]23c4c5ccc(O)c4O[C@H]2C(=O)C=C[C@@]3(CCCCCN)[C@H]1C5
Actelion Java MolfileCreator 2.0

  0  0  0  0  0  0              0 V3000
M  V30 BEGIN CTAB
M  V30 COUNTS 55 59 0 0 0
M  V30 BEGIN ATOM
M  V30 1 O 2.9001 2.8195 1.8521 0
M  V30 2 C 2.1484 1.8922 1.5492 0
M  V30 3 C 2.7086 0.7567 0.7691 0
M  V30 4 C 0.6726 1.853 1.981 0 CFG=2
M  V30 5 C 1.9163 -0.1545 0.1872 0
M  V30 6 O 0.641 1.892 3.4494 0
M  V30 7 C -0.0775 0.5867 1.5378 0 CFG=1
M  V30 8 C 0.394 -0.0931 0.2234 0 CFG=2
M  V30 9 C 0.6357 0.5599 3.786 0
M  V30 10 C 0.2993 -0.2473 2.7211 0
M  V30 11 C -1.6157 0.7508 1.5667 0
M  V30 12 C -0.2955 -1.5196 0.2592 0 CFG=2
M  V30 13 C -0.0335 0.7367 -1.0417 0
M  V30 14 C 0.9687 0.0069 4.9983 0
M  V30 15 C 0.3696 -1.6253 2.7661 0
M  V30 16 C -2.3465 -0.5737 1.2828 0
M  V30 17 N -1.7665 -1.3167 0.1574 0
M  V30 18 C 0.1713 -2.3925 1.4875 0
M  V30 19 C 0.3487 0.1211 -2.3987 0
M  V30 20 O 1.3002 0.78 6.0655 0
M  V30 21 C 0.9964 -1.3836 5.11 0
M  V30 22 C 0.7158 -2.2002 3.9917 0
M  V30 23 C -2.5061 -2.5491 -0.0995 0
M  V30 24 C -0.0902 1.0259 -3.5556 0
M  V30 25 C 0.2772 0.4106 -4.9091 0
M  V30 26 C -0.2148 1.2277 -6.1051 0
M  V30 27 N 0.4447 2.5243 -6.1973 0
M  V30 28 H 3.7891 0.7229 0.6866 0
M  V30 29 H 0.1912 2.7588 1.5942 0
M  V30 30 H 2.3777 -0.9517 -0.3924 0
M  V30 31 H -1.9242 1.5042 0.8322 0
M  V30 32 H -1.9609 1.134 2.5366 0
M  V30 33 H 0.0161 -2.0702 -0.6379 0
M  V30 34 H 0.4075 1.7413 -0.9791 0
M  V30 35 H -1.1163 0.8984 -1.0565 0
M  V30 36 H -3.394 -0.3337 1.0608 0
M  V30 37 H -2.3622 -1.1902 2.1901 0
M  V30 38 H -0.5153 -3.2265 1.6623 0
M  V30 39 H 1.1393 -2.84 1.2252 0
M  V30 40 H -0.1279 -0.8579 -2.5145 0
M  V30 41 H 1.4314 -0.0312 -2.4608 0
M  V30 42 H 1.2728 1.7031 5.7478 0
M  V30 43 H 1.2691 -1.8396 6.0583 0
M  V30 44 H 0.7905 -3.2805 4.0922 0
M  V30 45 H -3.5459 -2.3181 -0.3574 0
M  V30 46 H -2.518 -3.2262 0.7601 0
M  V30 47 H -2.0856 -3.0838 -0.958 0
M  V30 48 H 0.3869 2.0062 -3.4442 0
M  V30 49 H -1.1745 1.1836 -3.5076 0
M  V30 50 H 1.365 0.2805 -4.9725 0
M  V30 51 H -0.1622 -0.5924 -4.977 0
M  V30 52 H -1.2996 1.3702 -6.0463 0
M  V30 53 H -0.0091 0.6679 -7.0239 0
M  V30 54 H 0.1035 3.0177 -7.0216 0
M  V30 55 H 0.1875 3.1029 -5.3991 0
M  V30 END ATOM
M  V30 BEGIN BOND
M  V30 1 2 1 2
M  V30 2 1 2 3
M  V30 3 1 2 4
M  V30 4 2 3 5
M  V30 5 1 4 6
M  V30 6 1 4 7
M  V30 7 1 5 8
M  V30 8 1 6 9
M  V30 9 1 7 10
M  V30 10 1 7 11
M  V30 11 1 8 12
M  V30 12 1 8 13
M  V30 13 1 9 14
M  V30 14 1 10 15
M  V30 15 1 11 16
M  V30 16 1 12 17
M  V30 17 1 12 18
M  V30 18 1 13 19
M  V30 19 1 14 20
M  V30 20 2 14 21
M  V30 21 2 15 22
M  V30 22 1 17 23
M  V30 23 1 19 24
M  V30 24 1 24 25
M  V30 25 1 25 26
M  V30 26 1 26 27
M  V30 27 1 7 8
M  V30 28 2 9 10
M  V30 29 1 15 18
M  V30 30 1 16 17
M  V30 31 1 21 22
M  V30 32 1 3 28
M  V30 33 1 4 29
M  V30 34 1 5 30
M  V30 35 1 11 31
M  V30 36 1 11 32
M  V30 37 1 12 33
M  V30 38 1 13 34
M  V30 39 1 13 35
M  V30 40 1 16 36
M  V30 41 1 16 37
M  V30 42 1 18 38
M  V30 43 1 18 39
M  V30 44 1 19 40
M  V30 45 1 19 41
M  V30 46 1 20 42
M  V30 47 1 21 43
M  V30 48 1 22 44
M  V30 49 1 23 45
M  V30 50 1 23 46
M  V30 51 1 23 47
M  V30 52 1 24 48
M  V30 53 1 24 49
M  V30 54 1 25 50
M  V30 55 1 25 51
M  V30 56 1 26 52
M  V30 57 1 26 53
M  V30 58 1 27 54
M  V30 59 1 27 55
M  V30 END BOND
M  V30 BEGIN COLLECTION
M  V30 MDLV30/STEABS ATOMS=(4 4 7 8 12)
M  V30 END COLLECTION
M  V30 END CTAB
M  END
>  <NO.>
4848

>  <Name>
pentamorphone

>  <SMILES>
CN1CC[C@]23c4c5ccc(O)c4O[C@H]2C(=O)C=C[C@@]3(CCCCCN)[C@H]1C5

>  <logBB>


>  <Class>
1

>  <MW>
368.21

>  <nHBAcc>
5

>  <nHBDon>
2

>  <SLogP>
2.3

>  <TopoPSA>
75.79

>  <MMFF94 Energy>
105.78

$$$$
CNC1CCCC(=O)C1c1ccccc1Cl
Actelion Java MolfileCreator 2.0

  0  0  0  0  0  0              0 V3000
M  V30 BEGIN CTAB
M  V30 COUNTS 32 33 0 0 0
M  V30 BEGIN ATOM
M  V30 1 Cl -0.8041 3.0582 1.6087 0
M  V30 2 C -0.489 1.4665 2.2056 0
M  V30 3 C 0.0561 0.4489 1.4015 0
M  V30 4 C -0.8109 1.2232 3.5467 0
M  V30 5 C 0.2822 -0.8087 1.9981 0
M  V30 6 C 0.409 0.6621 -0.0719 0
M  V30 7 C -0.5892 -0.0311 4.1104 0
M  V30 8 C -0.039 -1.0458 3.3363 0
M  V30 9 C 1.9186 0.5979 -0.3238 0
M  V30 10 C -0.3145 -0.3364 -1.0314 0
M  V30 11 O 2.7588 0.4443 0.5624 0
M  V30 12 C 2.3526 0.8116 -1.7552 0
M  V30 13 N -1.7836 -0.1998 -0.9251 0
M  V30 14 C 0.1194 -0.0849 -2.4922 0
M  V30 15 C 1.6346 -0.1747 -2.6575 0
M  V30 16 C -2.5029 -1.3525 -1.4563 0
M  V30 17 H -1.2327 2.015 4.1614 0
M  V30 18 H 0.7367 -1.617 1.4285 0
M  V30 19 H 0.1209 1.6738 -0.379 0
M  V30 20 H -0.8346 -0.2112 5.1538 0
M  V30 21 H 0.1533 -2.0218 3.7755 0
M  V30 22 H -0.023 -1.3591 -0.7575 0
M  V30 23 H 3.4357 0.6685 -1.8293 0
M  V30 24 H 2.1281 1.8464 -2.0346 0
M  V30 25 H -2.047 -0.0947 0.0571 0
M  V30 26 H -0.3373 -0.8193 -3.1647 0
M  V30 27 H -0.2236 0.9046 -2.8218 0
M  V30 28 H 1.9623 -1.1956 -2.4251 0
M  V30 29 H 1.9029 0.0197 -3.7019 0
M  V30 30 H -2.2068 -2.2777 -0.9517 0
M  V30 31 H -2.3584 -1.4663 -2.5338 0
M  V30 32 H -3.576 -1.2125 -1.291 0
M  V30 END ATOM
M  V30 BEGIN BOND
M  V30 1 1 1 2
M  V30 2 2 2 3
M  V30 3 1 2 4
M  V30 4 1 3 5
M  V30 5 1 3 6
M  V30 6 2 4 7
M  V30 7 2 5 8
M  V30 8 1 6 9
M  V30 9 1 6 10
M  V30 10 2 9 11
M  V30 11 1 9 12
M  V30 12 1 10 13
M  V30 13 1 10 14
M  V30 14 1 12 15
M  V30 15 1 13 16
M  V30 16 1 7 8
M  V30 17 1 14 15
M  V30 18 1 4 17
M  V30 19 1 5 18
M  V30 20 1 6 19
M  V30 21 1 7 20
M  V30 22 1 8 21
M  V30 23 1 10 22
M  V30 24 1 12 23
M  V30 25 1 12 24
M  V30 26 1 13 25
M  V30 27 1 14 26
M  V30 28 1 14 27
M  V30 29 1 15 28
M  V30 30 1 15 29
M  V30 31 1 16 30
M  V30 32 1 16 31
M  V30 33 1 16 32
M  V30 END BOND
M  V30 END CTAB
M  END
>  <NO.>
4859

>  <Name>
ketamine

>  <SMILES>
CNC1CCCC(=O)C1c1ccccc1Cl

>  <logBB>


>  <Class>
1

>  <MW>
237.09

>  <nHBAcc>
2

>  <nHBDon>
1

>  <SLogP>
2.76

>  <TopoPSA>
29.1

>  <MMFF94 Energy>
48.414

$$$$
CO/N=C(/C(=O)N[C@@H]1C(=O)N2C(C(=O)O)=C(C[n+]3cccc4c3CCC4)CS[C@H]12)c1csc(N)n1
Actelion Java MolfileCreator 2.0

  0  0  0  0  0  0              0 V3000
M  V30 BEGIN CTAB
M  V30 COUNTS 58 62 0 0 0
M  V30 BEGIN ATOM
M  V30 1 S -0.6553 -0.4095 0.2457 0
M  V30 2 C 0.6223 -1.5856 0.756 0 CFG=1
M  V30 3 C 0.0569 -0.179 -1.4076 0
M  V30 4 N 1.8876 -0.8831 0.705 0
M  V30 5 C 0.9084 -1.8188 2.2718 0 CFG=1
M  V30 6 C 1.5325 0.1768 -1.3836 0
M  V30 7 C 2.3375 -0.1455 -0.3414 0
M  V30 8 C 2.3294 -1.2464 1.9273 0
M  V30 9 N 0.1255 -1.0448 3.2596 0
M  V30 10 C 1.9862 1.0103 -2.5687 0
M  V30 11 C 3.7363 0.3533 -0.2949 0
M  V30 12 O 3.3921 -1.1052 2.4804 0
M  V30 13 C -1.17 -1.3911 3.5912 0
M  V30 14 N 1.9962 0.2072 -3.8187 0 CHG=1
M  V30 15 O 4.5625 0.1501 -1.1673 0
M  V30 16 O 3.9366 1.1591 0.7526 0
M  V30 17 O -1.7462 -2.3607 3.1221 0
M  V30 18 C -1.8323 -0.4364 4.6038 0
M  V30 19 C 1.1098 0.4241 -4.8148 0
M  V30 20 C 2.9628 -0.7351 -3.992 0
M  V30 21 N -1.0203 0.4477 5.1275 0
M  V30 22 C -3.2623 -0.5469 4.9068 0
M  V30 23 C 1.1596 -0.3127 -5.9988 0
M  V30 24 C 0.0262 1.4657 -4.8891 0
M  V30 25 C 3.034 -1.492 -5.1644 0
M  V30 26 O -1.6441 1.2467 6.0955 0
M  V30 27 N -4.0665 0.5804 5.0914 0
M  V30 28 C -3.956 -1.741 5.0035 0
M  V30 29 C 2.1216 -1.2809 -6.1898 0
M  V30 30 C 0.1143 0.1476 -6.9676 0
M  V30 31 C -0.8323 0.9189 -6.0384 0
M  V30 32 C -0.7067 2.193 6.5903 0
M  V30 33 C -5.3015 0.2362 5.3518 0
M  V30 34 S -5.6053 -1.45 5.3615 0
M  V30 35 N -6.2727 1.1213 5.591 0
M  V30 36 H 0.6323 -2.5145 0.1722 0
M  V30 37 H -0.1004 -1.0799 -2.0101 0
M  V30 38 H -0.5183 0.6319 -1.8625 0
M  V30 39 H 0.9503 -2.8792 2.5497 0
M  V30 40 H 0.5042 -0.2308 3.7433 0
M  V30 41 H 1.3233 1.8714 -2.697 0
M  V30 42 H 2.9897 1.4341 -2.4747 0
M  V30 43 H 4.8971 1.3513 0.7992 0
M  V30 44 H 3.6857 -0.8774 -3.1943 0
M  V30 45 H 0.4624 2.4358 -5.1475 0
M  V30 46 H -0.5585 1.5483 -3.9714 0
M  V30 47 H 3.818 -2.2391 -5.2792 0
M  V30 48 H -3.5883 -2.7514 4.8936 0
M  V30 49 H 2.1779 -1.8512 -7.1144 0
M  V30 50 H -0.3977 -0.6844 -7.4585 0
M  V30 51 H 0.5607 0.81 -7.7162 0
M  V30 52 H -1.381 1.708 -6.5621 0
M  V30 53 H -1.5787 0.2237 -5.629 0
M  V30 54 H -0.3563 2.8384 5.779 0
M  V30 55 H 0.1398 1.6795 7.0559 0
M  V30 56 H -1.2025 2.8109 7.3436 0
M  V30 57 H -7.2187 0.8408 5.8092 0
M  V30 58 H -6.0582 2.1097 5.602 0
M  V30 END ATOM
M  V30 BEGIN BOND
M  V30 1 1 1 2
M  V30 2 1 1 3
M  V30 3 1 2 4
M  V30 4 1 2 5
M  V30 5 1 3 6
M  V30 6 1 4 7
M  V30 7 1 4 8
M  V30 8 1 5 9
M  V30 9 1 6 10
M  V30 10 1 7 11
M  V30 11 2 8 12
M  V30 12 1 9 13
M  V30 13 1 10 14
M  V30 14 2 11 15
M  V30 15 1 11 16
M  V30 16 2 13 17
M  V30 17 1 13 18
M  V30 18 2 14 19
M  V30 19 1 14 20
M  V30 20 2 18 21
M  V30 21 1 18 22
M  V30 22 1 19 23
M  V30 23 1 19 24
M  V30 24 2 20 25
M  V30 25 1 21 26
M  V30 26 1 22 27
M  V30 27 2 22 28
M  V30 28 2 23 29
M  V30 29 1 23 30
M  V30 30 1 24 31
M  V30 31 1 26 32
M  V30 32 2 27 33
M  V30 33 1 28 34
M  V30 34 1 33 35
M  V30 35 1 5 8
M  V30 36 2 6 7
M  V30 37 1 25 29
M  V30 38 1 30 31
M  V30 39 1 33 34
M  V30 40 1 2 36
M  V30 41 1 3 37
M  V30 42 1 3 38
M  V30 43 1 5 39
M  V30 44 1 9 40
M  V30 45 1 10 41
M  V30 46 1 10 42
M  V30 47 1 16 43
M  V30 48 1 20 44
M  V30 49 1 24 45
M  V30 50 1 24 46
M  V30 51 1 25 47
M  V30 52 1 28 48
M  V30 53 1 29 49
M  V30 54 1 30 50
M  V30 55 1 30 51
M  V30 56 1 31 52
M  V30 57 1 31 53
M  V30 58 1 32 54
M  V30 59 1 32 55
M  V30 60 1 32 56
M  V30 61 1 35 57
M  V30 62 1 35 58
M  V30 END BOND
M  V30 BEGIN COLLECTION
M  V30 MDLV30/STEABS ATOMS=(2 2 5)
M  V30 END COLLECTION
M  V30 END CTAB
M  END
>  <NO.>
4871

>  <Name>
cefpirome

>  <SMILES>
CO/N=C(/C(=O)N[C@@H]1C(=O)N2C(C(=O)O)=C(C[n+]3cccc4c3CCC4)CS[C@H]12)c1csc(N)n1

>  <logBB>


>  <Class>
-1

>  <MW>
515.12

>  <nHBAcc>
9

>  <nHBDon>
3

>  <SLogP>
0.29

>  <TopoPSA>
151.09

>  <MMFF94 Energy>
81.828

$$$$
CO/N=C(\C(=O)N[C@@H]1C(=O)N2C(C(=O)O)=C(C[N+]3(C)CCCC3)CS[C@H]12)c1csc(N)n1
Actelion Java MolfileCreator 2.0

  0  0  0  0  0  0              0 V3000
M  V30 BEGIN CTAB
M  V30 COUNTS 57 60 0 0 0
M  V30 BEGIN ATOM
M  V30 1 S -0.8977 -0.7345 0.1631 0
M  V30 2 C -1.3363 1.0239 0.1802 0 CFG=1
M  V30 3 C 0.3115 -0.5523 1.5074 0
M  V30 4 N -0.1332 1.7572 -0.1468 0
M  V30 5 C -1.9788 1.6774 -1.0824 0 CFG=1
M  V30 6 C 1.3395 0.5392 1.2605 0
M  V30 7 C 1.0859 1.576 0.4225 0
M  V30 8 C -0.6626 2.5295 -1.1186 0
M  V30 9 N -2.2248 0.8235 -2.2665 0
M  V30 10 C 2.706 0.2782 1.8696 0
M  V30 11 C 2.1702 2.5136 0.0313 0
M  V30 12 O -0.215 3.4515 -1.7552 0
M  V30 13 C -3.2992 -0.0416 -2.3131 0
M  V30 14 N 2.8936 0.6055 3.3649 0 CHG=1
M  V30 15 O 2.7836 3.2279 0.8031 0
M  V30 16 O 2.4708 2.3879 -1.2669 0
M  V30 17 O -4.1041 -0.1807 -1.4031 0
M  V30 18 C -3.3829 -0.8844 -3.586 0
M  V30 19 C 2.0359 -0.2709 4.2892 0
M  V30 20 C 4.3663 0.2959 3.7788 0
M  V30 21 C 2.6248 2.087 3.6389 0
M  V30 22 N -3.4163 -0.3445 -4.773 0
M  V30 23 C -3.377 -2.3467 -3.5002 0
M  V30 24 C 2.9382 -0.5961 5.4614 0
M  V30 25 C 4.2696 -0.8336 4.7873 0
M  V30 26 O -3.4385 1.0572 -4.7305 0
M  V30 27 N -3.2716 -3.1389 -4.6454 0
M  V30 28 C -3.4539 -3.0794 -2.3281 0
M  V30 29 C -3.629 1.5397 -6.058 0
M  V30 30 C -3.2905 -4.4105 -4.34 0
M  V30 31 S -3.4079 -4.7585 -2.666 0
M  V30 32 N -3.2198 -5.382 -5.2531 0
M  V30 33 H -1.7959 1.3616 1.1174 0
M  V30 34 H -0.2195 -0.3591 2.4452 0
M  V30 35 H 0.8046 -1.5255 1.5948 0
M  V30 36 H -2.8583 2.2931 -0.8555 0
M  V30 37 H -1.6871 0.9283 -3.1245 0
M  V30 38 H 2.9651 -0.7822 1.7522 0
M  V30 39 H 3.4945 0.8284 1.3451 0
M  V30 40 H 3.0843 3.119 -1.4922 0
M  V30 41 H 1.7856 -1.1892 3.7491 0
M  V30 42 H 1.1234 0.2652 4.5662 0
M  V30 43 H 4.7913 1.1965 4.2354 0
M  V30 44 H 4.9508 0.0243 2.8946 0
M  V30 45 H 3.363 2.6772 3.0928 0
M  V30 46 H 2.7335 2.2638 4.7136 0
M  V30 47 H 1.6045 2.3251 3.329 0
M  V30 48 H 2.9985 0.2501 6.1553 0
M  V30 49 H 2.5909 -1.4708 6.0185 0
M  V30 50 H 5.1048 -0.8276 5.4935 0
M  V30 51 H 4.2704 -1.8013 4.2715 0
M  V30 52 H -3.546 -2.7301 -1.3093 0
M  V30 53 H -4.5827 1.1812 -6.4573 0
M  V30 54 H -2.8036 1.2164 -6.6996 0
M  V30 55 H -3.6465 2.6323 -6.0282 0
M  V30 56 H -3.2618 -6.3619 -5.0111 0
M  V30 57 H -3.1737 -5.1405 -6.2351 0
M  V30 END ATOM
M  V30 BEGIN BOND
M  V30 1 1 1 2
M  V30 2 1 1 3
M  V30 3 1 2 4
M  V30 4 1 2 5
M  V30 5 1 3 6
M  V30 6 1 4 7
M  V30 7 1 4 8
M  V30 8 1 5 9
M  V30 9 1 6 10
M  V30 10 1 7 11
M  V30 11 2 8 12
M  V30 12 1 9 13
M  V30 13 1 10 14
M  V30 14 2 11 15
M  V30 15 1 11 16
M  V30 16 2 13 17
M  V30 17 1 13 18
M  V30 18 1 14 19
M  V30 19 1 14 20
M  V30 20 1 14 21
M  V30 21 2 18 22
M  V30 22 1 18 23
M  V30 23 1 19 24
M  V30 24 1 20 25
M  V30 25 1 22 26
M  V30 26 1 23 27
M  V30 27 2 23 28
M  V30 28 1 26 29
M  V30 29 2 27 30
M  V30 30 1 28 31
M  V30 31 1 30 32
M  V30 32 1 5 8
M  V30 33 2 6 7
M  V30 34 1 24 25
M  V30 35 1 30 31
M  V30 36 1 2 33
M  V30 37 1 3 34
M  V30 38 1 3 35
M  V30 39 1 5 36
M  V30 40 1 9 37
M  V30 41 1 10 38
M  V30 42 1 10 39
M  V30 43 1 16 40
M  V30 44 1 19 41
M  V30 45 1 19 42
M  V30 46 1 20 43
M  V30 47 1 20 44
M  V30 48 1 21 45
M  V30 49 1 21 46
M  V30 50 1 21 47
M  V30 51 1 24 48
M  V30 52 1 24 49
M  V30 53 1 25 50
M  V30 54 1 25 51
M  V30 55 1 28 52
M  V30 56 1 29 53
M  V30 57 1 29 54
M  V30 58 1 29 55
M  V30 59 1 32 56
M  V30 60 1 32 57
M  V30 END BOND
M  V30 BEGIN COLLECTION
M  V30 MDLV30/STEABS ATOMS=(2 2 5)
M  V30 END COLLECTION
M  V30 END CTAB
M  END
>  <NO.>
4877

>  <Name>
cefepime

>  <SMILES>
CO/N=C(\C(=O)N[C@@H]1C(=O)N2C(C(=O)O)=C(C[N+]3(C)CCCC3)CS[C@H]12)c1csc(N)n1

>  <logBB>


>  <Class>
-1

>  <MW>
481.13

>  <nHBAcc>
9

>  <nHBDon>
3

>  <SLogP>
0.05

>  <TopoPSA>
147.21

>  <MMFF94 Energy>
35.973

$$$$
CO/N=C(\C(=O)N[C@@H]1C(=O)N2C(C(=O)O)=C(C[n+]3cccc4c3CCCC4)CS[C@H]12)c1csc(N)n1
Actelion Java MolfileCreator 2.0

  0  0  0  0  0  0              0 V3000
M  V30 BEGIN CTAB
M  V30 COUNTS 61 65 0 0 0
M  V30 BEGIN ATOM
M  V30 1 S -0.8993 -0.4087 0.654 0
M  V30 2 C 0.2786 -1.6131 1.3183 0 CFG=1
M  V30 3 C -0.0289 -0.2641 -0.9339 0
M  V30 4 N 1.5692 -0.9587 1.362 0
M  V30 5 C 0.4158 -1.8014 2.8608 0 CFG=1
M  V30 6 C 1.453 0.0315 -0.7874 0
M  V30 7 C 2.1437 -0.2799 0.3371 0
M  V30 8 C 1.8816 -1.2889 2.6325 0
M  V30 9 N -0.4252 -0.9662 3.7479 0
M  V30 10 C 2.0557 0.7927 -1.9578 0
M  V30 11 C 3.5522 0.1645 0.4995 0
M  V30 12 O 2.8916 -1.1585 3.279 0
M  V30 13 C -1.757 -1.2626 3.9577 0
M  V30 14 N 2.1214 -0.0575 -3.1875 0 CHG=1
M  V30 15 O 4.4502 -0.1184 -0.2737 0
M  V30 16 O 3.683 1.0166 1.5211 0
M  V30 17 O -2.3378 -2.2023 3.434 0
M  V30 18 C -2.4944 -0.2741 4.8616 0
M  V30 19 C 1.3701 0.1973 -4.3076 0
M  V30 20 C 3.0231 -1.0756 -3.1818 0
M  V30 21 N -2.0798 0.0046 6.0666 0
M  V30 22 C -3.677 0.4336 4.3653 0
M  V30 23 C 1.546 -0.6205 -5.4503 0
M  V30 24 C 0.4289 1.3816 -4.3677 0
M  V30 25 C 3.1912 -1.9102 -4.2718 0
M  V30 26 O -0.9555 -0.7456 6.4406 0
M  V30 27 N -4.2571 1.4741 5.0942 0
M  V30 28 C -4.3167 0.1784 3.1645 0
M  V30 29 C 2.4438 -1.6876 -5.4112 0
M  V30 30 C 0.7529 -0.4061 -6.7205 0
M  V30 31 C -0.5545 1.3506 -5.5362 0
M  V30 32 C -0.6825 -0.4832 7.8147 0
M  V30 33 C -5.3 1.9593 4.4716 0
M  V30 34 S -5.6515 1.2332 2.9597 0
M  V30 35 C 0.1605 0.9937 -6.828 0
M  V30 36 N -6.0464 2.9523 4.9613 0
M  V30 37 H 0.3049 -2.5619 0.7681 0
M  V30 38 H -0.1721 -1.177 -1.5215 0
M  V30 39 H -0.5258 0.5547 -1.4598 0
M  V30 40 H 0.3934 -2.8519 3.1761 0
M  V30 41 H -0.0289 -0.2257 4.3234 0
M  V30 42 H 1.4777 1.6986 -2.1494 0
M  V30 43 H 3.0772 1.147 -1.793 0
M  V30 44 H 4.642 1.172 1.6559 0
M  V30 45 H 3.6224 -1.2202 -2.2872 0
M  V30 46 H 1.0405 2.2892 -4.4392 0
M  V30 47 H -0.1645 1.446 -3.4529 0
M  V30 48 H 3.9127 -2.7236 -4.2364 0
M  V30 49 H -4.0882 -0.5644 2.4136 0
M  V30 50 H 2.5746 -2.3373 -6.277 0
M  V30 51 H 1.3921 -0.5826 -7.594 0
M  V30 52 H -0.0544 -1.1488 -6.7459 0
M  V30 53 H -1.3447 0.6152 -5.3378 0
M  V30 54 H -1.0433 2.3269 -5.6307 0
M  V30 55 H -1.5331 -0.785 8.4336 0
M  V30 56 H -0.4656 0.5793 7.9608 0
M  V30 57 H 0.1936 -1.0665 8.1093 0
M  V30 58 H -0.5369 1.0357 -7.6718 0
M  V30 59 H 0.9537 1.7252 -7.0271 0
M  V30 60 H -6.867 3.3026 4.4874 0
M  V30 61 H -5.8239 3.3425 5.8686 0
M  V30 END ATOM
M  V30 BEGIN BOND
M  V30 1 1 1 2
M  V30 2 1 1 3
M  V30 3 1 2 4
M  V30 4 1 2 5
M  V30 5 1 3 6
M  V30 6 1 4 7
M  V30 7 1 4 8
M  V30 8 1 5 9
M  V30 9 1 6 10
M  V30 10 1 7 11
M  V30 11 2 8 12
M  V30 12 1 9 13
M  V30 13 1 10 14
M  V30 14 2 11 15
M  V30 15 1 11 16
M  V30 16 2 13 17
M  V30 17 1 13 18
M  V30 18 2 14 19
M  V30 19 1 14 20
M  V30 20 2 18 21
M  V30 21 1 18 22
M  V30 22 1 19 23
M  V30 23 1 19 24
M  V30 24 2 20 25
M  V30 25 1 21 26
M  V30 26 1 22 27
M  V30 27 2 22 28
M  V30 28 2 23 29
M  V30 29 1 23 30
M  V30 30 1 24 31
M  V30 31 1 26 32
M  V30 32 2 27 33
M  V30 33 1 28 34
M  V30 34 1 30 35
M  V30 35 1 33 36
M  V30 36 1 5 8
M  V30 37 2 6 7
M  V30 38 1 25 29
M  V30 39 1 31 35
M  V30 40 1 33 34
M  V30 41 1 2 37
M  V30 42 1 3 38
M  V30 43 1 3 39
M  V30 44 1 5 40
M  V30 45 1 9 41
M  V30 46 1 10 42
M  V30 47 1 10 43
M  V30 48 1 16 44
M  V30 49 1 20 45
M  V30 50 1 24 46
M  V30 51 1 24 47
M  V30 52 1 25 48
M  V30 53 1 28 49
M  V30 54 1 29 50
M  V30 55 1 30 51
M  V30 56 1 30 52
M  V30 57 1 31 53
M  V30 58 1 31 54
M  V30 59 1 32 55
M  V30 60 1 32 56
M  V30 61 1 32 57
M  V30 62 1 35 58
M  V30 63 1 35 59
M  V30 64 1 36 60
M  V30 65 1 36 61
M  V30 END BOND
M  V30 BEGIN COLLECTION
M  V30 MDLV30/STEABS ATOMS=(2 2 5)
M  V30 END COLLECTION
M  V30 END CTAB
M  END
>  <NO.>
4880

>  <Name>
cefquinome

>  <SMILES>
CO/N=C(\C(=O)N[C@@H]1C(=O)N2C(C(=O)O)=C(C[n+]3cccc4c3CCCC4)CS[C@H]12)c1csc(N)n1

>  <logBB>


>  <Class>
-1

>  <MW>
529.13

>  <nHBAcc>
9

>  <nHBDon>
3

>  <SLogP>
0.68

>  <TopoPSA>
151.09

>  <MMFF94 Energy>
78.337

$$$$
CSC(=O)[C@@]1(O)[C@H](C)C[C@H]2[C@@H]3C[C@H](F)C4=CC(=O)C=C[C@]4(C)[C@@]3(F)[C@@H](O)C[C@@]21C
Actelion Java MolfileCreator 2.0

  0  0  0  0  0  0              0 V3000
M  V30 BEGIN CTAB
M  V30 COUNTS 57 60 0 0 0
M  V30 BEGIN ATOM
M  V30 1 S 3.6889 3.6889 -0.2456 0
M  V30 2 C 3.415 2.1045 0.4708 0
M  V30 3 C 5.4811 3.6217 -0.4529 0
M  V30 4 O 4.3317 1.2866 0.5616 0
M  V30 5 C 2.0006 1.7417 0.9868 0 CFG=2
M  V30 6 O 2.2208 1.0283 2.2253 0
M  V30 7 C 1.2115 0.8098 0.0034 0 CFG=2
M  V30 8 C 0.9806 2.8906 1.2677 0 CFG=1
M  V30 9 C -0.1694 0.8091 0.6989 0 CFG=1
M  V30 10 C 1.683 -0.6595 -0.0683 0
M  V30 11 C 1.1814 1.4356 -1.4166 0
M  V30 12 C -0.4261 2.2822 1.0138 0
M  V30 13 C 1.0902 3.5059 2.6607 0
M  V30 14 C -1.2396 0.0188 -0.0695 0 CFG=1
M  V30 15 C 0.6702 -1.596 -0.7678 0 CFG=1
M  V30 16 C -0.7794 -1.4726 -0.1998 0 CFG=1
M  V30 17 C -2.5986 0.1112 0.645 0
M  V30 18 O 0.7235 -1.3848 -2.1744 0
M  V30 19 F -0.6876 -1.9468 1.1001 0
M  V30 20 C -1.8763 -2.3672 -0.914 0 CFG=2
M  V30 21 C -3.6655 -0.7402 -0.0296 0 CFG=1
M  V30 22 C -3.2067 -2.1689 -0.1646 0
M  V30 23 C -1.4645 -3.8393 -0.9067 0
M  V30 24 C -2.1133 -2.0029 -2.3983 0
M  V30 25 F -4.8026 -0.6487 0.7177 0
M  V30 26 C -3.9099 -3.1744 0.3876 0
M  V30 27 C -2.1689 -4.8356 -0.354 0
M  V30 28 C -3.4537 -4.576 0.3217 0
M  V30 29 O -4.1129 -5.488 0.8038 0
M  V30 30 H 5.9753 3.4754 0.5113 0
M  V30 31 H 5.8289 4.5665 -0.8792 0
M  V30 32 H 5.7603 2.813 -1.1336 0
M  V30 33 H 3.0217 0.4799 2.102 0
M  V30 34 H 1.0928 3.7079 0.548 0
M  V30 35 H -0.0698 0.3119 1.6771 0
M  V30 36 H 1.8438 -1.0531 0.9424 0
M  V30 37 H 2.6502 -0.7077 -0.583 0
M  V30 38 H 2.1544 1.3232 -1.908 0
M  V30 39 H 0.4401 0.9781 -2.0738 0
M  V30 40 H 0.9449 2.5035 -1.4044 0
M  V30 41 H -1.0931 2.3957 1.8752 0
M  V30 42 H -0.9019 2.7857 0.1639 0
M  V30 43 H 2.1009 3.8854 2.8408 0
M  V30 44 H 0.8478 2.7836 3.447 0
M  V30 45 H 0.3938 4.3455 2.7612 0
M  V30 46 H -1.3655 0.4549 -1.0653 0
M  V30 47 H 1.024 -2.6184 -0.5916 0
M  V30 48 H -2.9484 1.1503 0.6697 0
M  V30 49 H -2.5008 -0.1935 1.6955 0
M  V30 50 H 1.6362 -1.5632 -2.4658 0
M  V30 51 H -3.9105 -0.3315 -1.0152 0
M  V30 52 H -0.5382 -4.1 -1.414 0
M  V30 53 H -2.219 -0.9259 -2.5576 0
M  V30 54 H -3.0302 -2.4731 -2.7781 0
M  V30 55 H -1.3042 -2.3518 -3.0484 0
M  V30 56 H -4.8381 -3.012 0.9256 0
M  V30 57 H -1.8426 -5.868 -0.3842 0
M  V30 END ATOM
M  V30 BEGIN BOND
M  V30 1 1 1 2
M  V30 2 1 1 3
M  V30 3 2 2 4
M  V30 4 1 2 5
M  V30 5 1 5 6
M  V30 6 1 5 7
M  V30 7 1 5 8
M  V30 8 1 7 9
M  V30 9 1 7 10
M  V30 10 1 7 11
M  V30 11 1 8 12
M  V30 12 1 8 13
M  V30 13 1 9 14
M  V30 14 1 10 15
M  V30 15 1 14 16
M  V30 16 1 14 17
M  V30 17 1 15 18
M  V30 18 1 16 19
M  V30 19 1 16 20
M  V30 20 1 17 21
M  V30 21 1 20 22
M  V30 22 1 20 23
M  V30 23 1 20 24
M  V30 24 1 21 25
M  V30 25 2 22 26
M  V30 26 2 23 27
M  V30 27 1 26 28
M  V30 28 2 28 29
M  V30 29 1 9 12
M  V30 30 1 15 16
M  V30 31 1 21 22
M  V30 32 1 27 28
M  V30 33 1 3 30
M  V30 34 1 3 31
M  V30 35 1 3 32
M  V30 36 1 6 33
M  V30 37 1 8 34
M  V30 38 1 9 35
M  V30 39 1 10 36
M  V30 40 1 10 37
M  V30 41 1 11 38
M  V30 42 1 11 39
M  V30 43 1 11 40
M  V30 44 1 12 41
M  V30 45 1 12 42
M  V30 46 1 13 43
M  V30 47 1 13 44
M  V30 48 1 13 45
M  V30 49 1 14 46
M  V30 50 1 15 47
M  V30 51 1 17 48
M  V30 52 1 17 49
M  V30 53 1 18 50
M  V30 54 1 21 51
M  V30 55 1 23 52
M  V30 56 1 24 53
M  V30 57 1 24 54
M  V30 58 1 24 55
M  V30 59 1 26 56
M  V30 60 1 27 57
M  V30 END BOND
M  V30 BEGIN COLLECTION
M  V30 MDLV30/STEABS ATOMS=(9 5 7 8 9 14 15 16 20 21)
M  V30 END COLLECTION
M  V30 END CTAB
M  END
>  <NO.>
4918

>  <Name>
ticabesone

>  <SMILES>
CSC(=O)[C@@]1(O)[C@H](C)C[C@H]2[C@@H]3C[C@H](F)C4=CC(=O)C=C[C@]4(C)[C@@]3(F)[C@@H](O)C[C@@]21C

>  <logBB>


>  <Class>
1

>  <MW>
426.17

>  <nHBAcc>
5

>  <nHBDon>
2

>  <SLogP>
3.17

>  <TopoPSA>
74.6

>  <MMFF94 Energy>
153.19

$$$$
C[C@@H]1CC2C3C[C@H](F)C4=CC(=O)C=C[C@]4(C)C3[C@@H](O)C[C@]2(C)[C@H]1C(=O)C(=O)O
Actelion Java MolfileCreator 2.0

  0  0  0  0  0  0              0 V3000
M  V30 BEGIN CTAB
M  V30 COUNTS 55 58 0 0 0
M  V30 BEGIN ATOM
M  V30 1 F 0.0809 4.0526 -2.349 0
M  V30 2 C 0.3664 3.3118 -1.2402 0 CFG=2
M  V30 3 C 1.7903 2.8226 -1.2562 0
M  V30 4 C -0.5821 2.123 -1.2234 0
M  V30 5 C 2.6129 3.1217 -2.2781 0
M  V30 6 C 2.1909 1.9362 -0.0705 0 CFG=2
M  V30 7 C -0.3064 1.1562 -0.0559 0
M  V30 8 C 3.9925 2.6024 -2.3469 0
M  V30 9 C 3.6204 1.4281 -0.2287 0
M  V30 10 C 1.1863 0.7145 -0.0216 0
M  V30 11 C 2.1879 2.8125 1.2024 0
M  V30 12 C -1.3019 -0.0306 -0.0889 0
M  V30 13 O 4.7357 2.8808 -3.2787 0
M  V30 14 C 4.4369 1.7248 -1.2483 0
M  V30 15 C 1.4268 -0.2913 1.1305 0 CFG=1
M  V30 16 C -1.0507 -1.1454 0.9628 0 CFG=2
M  V30 17 C -1.3814 -0.8023 -1.4092 0
M  V30 18 O 1.3921 0.297 2.4207 0
M  V30 19 C 0.4632 -1.4805 1.0739 0
M  V30 20 C -1.7773 -2.4136 0.367 0 CFG=2
M  V30 21 C -1.6174 -0.7105 2.3274 0
M  V30 22 C -2.2586 -1.9957 -1.0413 0 CFG=2
M  V30 23 C -2.9222 -2.9718 1.207 0
M  V30 24 C -2.1668 -3.1215 -2.0629 0
M  V30 25 O -4.0952 -2.6444 1.074 0
M  V30 26 C -2.5131 -3.9847 2.293 0
M  V30 27 O -1.3671 -4.3371 2.4923 0
M  V30 28 O -3.5415 -4.4452 3.0105 0
M  V30 29 H 0.1913 3.9617 -0.3774 0
M  V30 30 H -0.4947 1.6042 -2.1862 0
M  V30 31 H -1.615 2.4894 -1.1741 0
M  V30 32 H 2.3061 3.7417 -3.1141 0
M  V30 33 H -0.5149 1.7118 0.8672 0
M  V30 34 H 4.02 0.8031 0.5682 0
M  V30 35 H 1.3588 0.1472 -0.9504 0
M  V30 36 H 1.1766 3.0664 1.5349 0
M  V30 37 H 2.717 3.7596 1.0322 0
M  V30 38 H 2.6974 2.3276 2.0424 0
M  V30 39 H -2.3034 0.3926 0.0876 0
M  V30 40 H 5.4528 1.3535 -1.3093 0
M  V30 41 H 2.4335 -0.7108 1.0299 0
M  V30 42 H -1.8465 -0.2159 -2.2081 0
M  V30 43 H -0.3933 -1.1249 -1.7546 0
M  V30 44 H 0.6202 0.8769 2.4997 0
M  V30 45 H 0.6227 -2.1213 1.951 0
M  V30 46 H 0.7637 -2.0768 0.2014 0
M  V30 47 H -1.0631 -3.238 0.242 0
M  V30 48 H -2.7057 -0.5891 2.2883 0
M  V30 49 H -1.3852 -1.4401 3.1099 0
M  V30 50 H -1.2285 0.2555 2.6533 0
M  V30 51 H -3.3019 -1.6558 -1.0085 0
M  V30 52 H -2.5007 -2.7766 -3.047 0
M  V30 53 H -2.7989 -3.9651 -1.7671 0
M  V30 54 H -1.1396 -3.4871 -2.1656 0
M  V30 55 H -3.1537 -5.0689 3.6567 0
M  V30 END ATOM
M  V30 BEGIN BOND
M  V30 1 1 1 2
M  V30 2 1 2 3
M  V30 3 1 2 4
M  V30 4 2 3 5
M  V30 5 1 3 6
M  V30 6 1 4 7
M  V30 7 1 5 8
M  V30 8 1 6 9
M  V30 9 1 6 10
M  V30 10 1 6 11
M  V30 11 1 7 12
M  V30 12 2 8 13
M  V30 13 1 8 14
M  V30 14 1 10 15
M  V30 15 1 12 16
M  V30 16 1 12 17
M  V30 17 1 15 18
M  V30 18 1 15 19
M  V30 19 1 16 20
M  V30 20 1 16 21
M  V30 21 1 17 22
M  V30 22 1 20 23
M  V30 23 1 22 24
M  V30 24 2 23 25
M  V30 25 1 23 26
M  V30 26 2 26 27
M  V30 27 1 26 28
M  V30 28 1 7 10
M  V30 29 2 9 14
M  V30 30 1 16 19
M  V30 31 1 20 22
M  V30 32 1 2 29
M  V30 33 1 4 30
M  V30 34 1 4 31
M  V30 35 1 5 32
M  V30 36 1 7 33
M  V30 37 1 9 34
M  V30 38 1 10 35
M  V30 39 1 11 36
M  V30 40 1 11 37
M  V30 41 1 11 38
M  V30 42 1 12 39
M  V30 43 1 14 40
M  V30 44 1 15 41
M  V30 45 1 17 42
M  V30 46 1 17 43
M  V30 47 1 18 44
M  V30 48 1 19 45
M  V30 49 1 19 46
M  V30 50 1 20 47
M  V30 51 1 21 48
M  V30 52 1 21 49
M  V30 53 1 21 50
M  V30 54 1 22 51
M  V30 55 1 24 52
M  V30 56 1 24 53
M  V30 57 1 24 54
M  V30 58 1 28 55
M  V30 END BOND
M  V30 BEGIN COLLECTION
M  V30 MDLV30/STEABS ATOMS=(6 2 6 15 16 20 22)
M  V30 END COLLECTION
M  V30 END CTAB
M  END
>  <NO.>
4927

>  <Name>
fluocortin

>  <SMILES>
C[C@@H]1CC2C3C[C@H](F)C4=CC(=O)C=C[C@]4(C)C3[C@@H](O)C[C@]2(C)[C@H]1C(=O)C(=O)O

>  <logBB>


>  <Class>
1

>  <MW>
390.18

>  <nHBAcc>
4

>  <nHBDon>
2

>  <SLogP>
2.73

>  <TopoPSA>
91.67

>  <MMFF94 Energy>
111.14

$$$$
C[C@@H]1C[C@H]2[C@@H]3C[C@H](F)C4=CC(=O)C=C[C@]4(C)[C@@]3(F)[C@@H](O)C[C@]2(C)[C@@]1(O)C(=O)SCCl
Actelion Java MolfileCreator 2.0

  0  0  0  0  0  0              0 V3000
M  V30 BEGIN CTAB
M  V30 COUNTS 57 60 0 0 0
M  V30 BEGIN ATOM
M  V30 1 Cl -0.4955 3.0589 7.0375 0
M  V30 2 C -0.8197 1.5641 6.1324 0
M  V30 3 S 0.1415 1.5482 4.6033 0
M  V30 4 C -0.3928 -0.0214 3.9894 0
M  V30 5 O -1.3052 -0.6265 4.5377 0
M  V30 6 C 0.3495 -0.4985 2.7092 0 CFG=2
M  V30 7 O 1.7425 -0.1665 2.7536 0
M  V30 8 C -0.2855 0.0274 1.373 0 CFG=2
M  V30 9 C 0.2318 -2.0559 2.5467 0 CFG=1
M  V30 10 C 0.3579 -0.9616 0.3721 0 CFG=1
M  V30 11 C 0.1293 1.4487 0.9296 0
M  V30 12 C -1.8335 -0.0856 1.4356 0
M  V30 13 C 0.1616 -2.3288 1.0229 0
M  V30 14 C 1.3526 -2.8462 3.2179 0
M  V30 15 C -0.1131 -0.7652 -1.0777 0 CFG=1
M  V30 16 C -0.2319 1.7681 -0.5403 0 CFG=1
M  V30 17 C 0.2604 0.681 -1.5457 0 CFG=1
M  V30 18 C 0.5218 -1.82 -2.0002 0
M  V30 19 O -1.6311 2.0077 -0.6411 0
M  V30 20 F 1.644 0.7464 -1.4816 0
M  V30 21 C -0.1197 0.9271 -3.0651 0 CFG=2
M  V30 22 C 0.1646 -1.6004 -3.464 0 CFG=1
M  V30 23 C 0.516 -0.2008 -3.8977 0
M  V30 24 C 0.3784 2.2943 -3.5344 0
M  V30 25 C -1.6417 0.9158 -3.3403 0
M  V30 26 F 0.8345 -2.5341 -4.1983 0
M  V30 27 C 1.3702 0.0122 -4.9153 0
M  V30 28 C 1.2299 2.4996 -4.5479 0
M  V30 29 C 1.778 1.3707 -5.3225 0
M  V30 30 O 2.5368 1.5568 -6.2648 0
M  V30 31 H -0.5463 0.7207 6.7721 0
M  V30 32 H -1.8915 1.5338 5.9191 0
M  V30 33 H 1.8236 0.7681 3.0198 0
M  V30 34 H -0.7107 -2.4161 2.9782 0
M  V30 35 H 1.4466 -0.7911 0.3643 0
M  V30 36 H -0.3385 2.1897 1.5883 0
M  V30 37 H 1.2141 1.5723 1.0326 0
M  V30 38 H -2.172 -1.0399 1.8504 0
M  V30 39 H -2.3119 -4.0E-4 0.4585 0
M  V30 40 H -2.2524 0.7062 2.0671 0
M  V30 41 H -0.8173 -2.7488 0.7633 0
M  V30 42 H 0.922 -3.0432 0.69 0
M  V30 43 H 1.4126 -2.6051 4.2842 0
M  V30 44 H 2.3268 -2.6414 2.7619 0
M  V30 45 H 1.1668 -3.9218 3.127 0
M  V30 46 H -1.1982 -0.9003 -1.1268 0
M  V30 47 H 0.2667 2.7142 -0.7816 0
M  V30 48 H 0.1963 -2.8267 -1.7116 0
M  V30 49 H 1.6144 -1.8182 -1.8886 0
M  V30 50 H -1.8451 2.7714 -0.0748 0
M  V30 51 H -0.9019 -1.786 -3.6273 0
M  V30 52 H -0.0115 3.1705 -3.0208 0
M  V30 53 H -2.1506 0.0711 -2.867 0
M  V30 54 H -1.8474 0.8499 -4.4171 0
M  V30 55 H -2.1354 1.8303 -2.9945 0
M  V30 56 H 1.82 -0.7975 -5.4802 0
M  V30 57 H 1.546 3.4897 -4.8537 0
M  V30 END ATOM
M  V30 BEGIN BOND
M  V30 1 1 1 2
M  V30 2 1 2 3
M  V30 3 1 3 4
M  V30 4 2 4 5
M  V30 5 1 4 6
M  V30 6 1 6 7
M  V30 7 1 6 8
M  V30 8 1 6 9
M  V30 9 1 8 10
M  V30 10 1 8 11
M  V30 11 1 8 12
M  V30 12 1 9 13
M  V30 13 1 9 14
M  V30 14 1 10 15
M  V30 15 1 11 16
M  V30 16 1 15 17
M  V30 17 1 15 18
M  V30 18 1 16 19
M  V30 19 1 17 20
M  V30 20 1 17 21
M  V30 21 1 18 22
M  V30 22 1 21 23
M  V30 23 1 21 24
M  V30 24 1 21 25
M  V30 25 1 22 26
M  V30 26 2 23 27
M  V30 27 2 24 28
M  V30 28 1 27 29
M  V30 29 2 29 30
M  V30 30 1 10 13
M  V30 31 1 16 17
M  V30 32 1 22 23
M  V30 33 1 28 29
M  V30 34 1 2 31
M  V30 35 1 2 32
M  V30 36 1 7 33
M  V30 37 1 9 34
M  V30 38 1 10 35
M  V30 39 1 11 36
M  V30 40 1 11 37
M  V30 41 1 12 38
M  V30 42 1 12 39
M  V30 43 1 12 40
M  V30 44 1 13 41
M  V30 45 1 13 42
M  V30 46 1 14 43
M  V30 47 1 14 44
M  V30 48 1 14 45
M  V30 49 1 15 46
M  V30 50 1 16 47
M  V30 51 1 18 48
M  V30 52 1 18 49
M  V30 53 1 19 50
M  V30 54 1 22 51
M  V30 55 1 24 52
M  V30 56 1 25 53
M  V30 57 1 25 54
M  V30 58 1 25 55
M  V30 59 1 27 56
M  V30 60 1 28 57
M  V30 END BOND
M  V30 BEGIN COLLECTION
M  V30 MDLV30/STEABS ATOMS=(9 6 8 9 10 15 16 17 21 22)
M  V30 END COLLECTION
M  V30 END CTAB
M  END
>  <NO.>
4939

>  <Name>
cloticasone

>  <SMILES>
C[C@@H]1C[C@H]2[C@@H]3C[C@H](F)C4=CC(=O)C=C[C@]4(C)[C@@]3(F)[C@@H](O)C[C@]2(C)[C@@]1(O)C(=O)SCCl

>  <logBB>


>  <Class>
1

>  <MW>
460.13

>  <nHBAcc>
5

>  <nHBDon>
2

>  <SLogP>
3.74

>  <TopoPSA>
74.6

>  <MMFF94 Energy>
137.38

$$$$
C[C@]12C[C@H](O)[C@H]3[C@@H](CCC4=CC(=O)C=C[C@@]43C)[C@@H]1CC[C@]2(O)C(=O)OCCl
Actelion Java MolfileCreator 2.0

  0  0  0  0  0  0              0 V3000
M  V30 BEGIN CTAB
M  V30 COUNTS 54 57 0 0 0
M  V30 BEGIN ATOM
M  V30 1 Cl 6.1936 -3.3377 -0.6506 0
M  V30 2 C 4.5443 -3.9333 -0.9265 0
M  V30 3 O 3.6574 -3.1484 -0.139 0
M  V30 4 C 2.3586 -3.4909 -0.3001 0
M  V30 5 O 1.9604 -4.3722 -1.0579 0
M  V30 6 C 1.3928 -2.6392 0.5431 0 CFG=2
M  V30 7 O 0.2217 -3.4467 0.7864 0
M  V30 8 C 0.9714 -1.2946 -0.1278 0 CFG=2
M  V30 9 C 1.9265 -2.2112 1.9325 0
M  V30 10 C 0.3332 -0.5874 1.0892 0 CFG=1
M  V30 11 C -0.1142 -1.4 -1.2195 0
M  V30 12 C 2.2227 -0.5545 -0.673 0
M  V30 13 C 1.3576 -0.8009 2.2 0
M  V30 14 C -0.1492 0.8381 0.7854 0 CFG=1
M  V30 15 C -0.7492 -0.0395 -1.5838 0 CFG=1
M  V30 16 C -1.2369 0.7711 -0.344 0 CFG=2
M  V30 17 C -0.7094 1.5005 2.0575 0
M  V30 18 O 0.1672 0.7129 -2.3652 0
M  V30 19 C -1.8624 2.1869 -0.6504 0 CFG=2
M  V30 20 C -1.322 2.8676 1.7779 0
M  V30 21 C -2.3563 2.7616 0.6869 0
M  V30 22 C -3.0137 2.0525 -1.6424 0
M  V30 23 C -0.8728 3.1974 -1.2724 0
M  V30 24 C -3.6327 3.1136 0.9234 0
M  V30 25 C -4.2845 2.4026 -1.4043 0
M  V30 26 C -4.6847 2.9666 -0.102 0
M  V30 27 O -5.8436 3.2933 0.121 0
M  V30 28 H 4.3244 -3.8242 -1.993 0
M  V30 29 H 4.51 -4.9838 -0.6219 0
M  V30 30 H 0.0974 -4.0108 -0.0031 0
M  V30 31 H 3.0188 -2.169 1.9863 0
M  V30 32 H 1.5896 -2.9014 2.7149 0
M  V30 33 H -0.5635 -1.1517 1.3939 0
M  V30 34 H -0.9259 -2.0557 -0.8818 0
M  V30 35 H 0.3148 -1.8655 -2.1152 0
M  V30 36 H 3.0568 -0.5625 0.0358 0
M  V30 37 H 2.5772 -1.0258 -1.5968 0
M  V30 38 H 2.0384 0.4961 -0.9031 0
M  V30 39 H 2.1563 -0.052 2.1577 0
M  V30 40 H 0.9031 -0.7425 3.1945 0
M  V30 41 H 0.6947 1.4473 0.4472 0
M  V30 42 H -1.6089 -0.2491 -2.2302 0
M  V30 43 H -2.0571 0.1627 0.0748 0
M  V30 44 H -1.4688 0.8498 2.5113 0
M  V30 45 H 0.0877 1.6188 2.8008 0
M  V30 46 H 0.3605 0.2041 -3.1719 0
M  V30 47 H -1.759 3.257 2.7056 0
M  V30 48 H -0.5421 3.5798 1.4857 0
M  V30 49 H -2.7719 1.6751 -2.6335 0
M  V30 50 H 0.0891 3.2205 -0.7521 0
M  V30 51 H -0.6683 2.9859 -2.3274 0
M  V30 52 H -1.2787 4.2173 -1.2407 0
M  V30 53 H -3.9677 3.5064 1.8766 0
M  V30 54 H -5.0659 2.305 -2.1478 0
M  V30 END ATOM
M  V30 BEGIN BOND
M  V30 1 1 1 2
M  V30 2 1 2 3
M  V30 3 1 3 4
M  V30 4 2 4 5
M  V30 5 1 4 6
M  V30 6 1 6 7
M  V30 7 1 6 8
M  V30 8 1 6 9
M  V30 9 1 8 10
M  V30 10 1 8 11
M  V30 11 1 8 12
M  V30 12 1 9 13
M  V30 13 1 10 14
M  V30 14 1 11 15
M  V30 15 1 14 16
M  V30 16 1 14 17
M  V30 17 1 15 18
M  V30 18 1 16 19
M  V30 19 1 17 20
M  V30 20 1 19 21
M  V30 21 1 19 22
M  V30 22 1 19 23
M  V30 23 2 21 24
M  V30 24 2 22 25
M  V30 25 1 24 26
M  V30 26 2 26 27
M  V30 27 1 10 13
M  V30 28 1 15 16
M  V30 29 1 20 21
M  V30 30 1 25 26
M  V30 31 1 2 28
M  V30 32 1 2 29
M  V30 33 1 7 30
M  V30 34 1 9 31
M  V30 35 1 9 32
M  V30 36 1 10 33
M  V30 37 1 11 34
M  V30 38 1 11 35
M  V30 39 1 12 36
M  V30 40 1 12 37
M  V30 41 1 12 38
M  V30 42 1 13 39
M  V30 43 1 13 40
M  V30 44 1 14 41
M  V30 45 1 15 42
M  V30 46 1 16 43
M  V30 47 1 17 44
M  V30 48 1 17 45
M  V30 49 1 18 46
M  V30 50 1 20 47
M  V30 51 1 20 48
M  V30 52 1 22 49
M  V30 53 1 23 50
M  V30 54 1 23 51
M  V30 55 1 23 52
M  V30 56 1 24 53
M  V30 57 1 25 54
M  V30 END BOND
M  V30 BEGIN COLLECTION
M  V30 MDLV30/STEABS ATOMS=(7 6 8 10 14 15 16 19)
M  V30 END COLLECTION
M  V30 END CTAB
M  END
>  <NO.>
4964

>  <Name>
loteprednol

>  <SMILES>
C[C@]12C[C@H](O)[C@H]3[C@@H](CCC4=CC(=O)C=C[C@@]43C)[C@@H]1CC[C@]2(O)C(=O)OCCl

>  <logBB>


>  <Class>
1

>  <MW>
394.15

>  <nHBAcc>
5

>  <nHBDon>
2

>  <SLogP>
2.74

>  <TopoPSA>
83.83

>  <MMFF94 Energy>
98.184

$$$$
C[N+]1(C)CCCCC1COC(=O)C(O)(c1ccccc1)c1ccccc1
Actelion Java MolfileCreator 2.0

  0  0  0  0  0  0              0 V3000
M  V30 BEGIN CTAB
M  V30 COUNTS 54 56 0 0 0
M  V30 BEGIN ATOM
M  V30 1 O 1.4315 0.477 1.0337 0
M  V30 2 C 1.3622 0.1518 -0.1473 0
M  V30 3 O 0.6126 0.8536 -1.06 0
M  V30 4 C 1.9854 -1.1367 -0.8003 0
M  V30 5 C -0.0942 2.0037 -0.5657 0
M  V30 6 O 2.1556 -0.9105 -2.214 0
M  V30 7 C 0.949 -2.258 -0.587 0
M  V30 8 C 3.3909 -1.4916 -0.2782 0
M  V30 9 C -1.5961 1.6779 -0.3611 0 CFG=2
M  V30 10 C 0.7224 -2.7779 0.7032 0
M  V30 11 C 0.1752 -2.7605 -1.6481 0
M  V30 12 C 4.2196 -0.56 0.372 0
M  V30 13 C 3.9286 -2.7696 -0.5412 0
M  V30 14 N -2.4563 2.9468 -0.0223 0 CHG=1
M  V30 15 C -1.8102 0.5848 0.7003 0
M  V30 16 C -0.2366 -3.769 0.9192 0
M  V30 17 C -0.7831 -3.7525 -1.4287 0
M  V30 18 C 5.5104 -0.9073 0.7833 0
M  V30 19 C 5.2179 -3.114 -0.1304 0
M  V30 20 C -3.9332 2.539 0.1619 0
M  V30 21 C -1.9556 3.6899 1.2192 0
M  V30 22 C -2.427 3.9334 -1.2016 0
M  V30 23 C -3.2766 0.2356 0.9064 0
M  V30 24 C -0.9887 -4.2554 -0.1464 0
M  V30 25 C 6.0069 -2.1833 0.5362 0
M  V30 26 C -4.1031 1.4672 1.226 0
M  V30 27 H 0.0297 2.7689 -1.3365 0
M  V30 28 H 0.364 2.4009 0.3458 0
M  V30 29 H 3.0842 -0.6592 -2.3606 0
M  V30 30 H -1.9969 1.3003 -1.3119 0
M  V30 31 H 1.3016 -2.4192 1.5542 0
M  V30 32 H 0.319 -2.391 -2.6621 0
M  V30 33 H 3.8885 0.4547 0.5791 0
M  V30 34 H 3.3429 -3.5165 -1.0769 0
M  V30 35 H -1.2973 -0.3319 0.393 0
M  V30 36 H -1.3635 0.8819 1.656 0
M  V30 37 H -0.3883 -4.17 1.9188 0
M  V30 38 H -1.3617 -4.1422 -2.2632 0
M  V30 39 H 6.1322 -0.1775 1.2973 0
M  V30 40 H 5.6061 -4.109 -0.3352 0
M  V30 41 H -4.2881 2.1742 -0.8096 0
M  V30 42 H -4.4976 3.4412 0.4243 0
M  V30 43 H -1.8965 3.0 2.062 0
M  V30 44 H -0.9698 4.1099 1.0039 0
M  V30 45 H -2.6586 4.4988 1.4406 0
M  V30 46 H -1.4237 4.3561 -1.2892 0
M  V30 47 H -3.1442 4.7348 -0.9973 0
M  V30 48 H -2.7039 3.3943 -2.1119 0
M  V30 49 H -3.3723 -0.4964 1.7164 0
M  V30 50 H -3.6675 -0.2429 0.0 0
M  V30 51 H -1.7264 -5.0367 0.02 0
M  V30 52 H 7.0107 -2.4506 0.8574 0
M  V30 53 H -5.161 1.1858 1.2858 0
M  V30 54 H -3.8332 1.855 2.2145 0
M  V30 END ATOM
M  V30 BEGIN BOND
M  V30 1 2 1 2
M  V30 2 1 2 3
M  V30 3 1 2 4
M  V30 4 1 3 5
M  V30 5 1 4 6
M  V30 6 1 4 7
M  V30 7 1 4 8
M  V30 8 1 5 9
M  V30 9 2 7 10
M  V30 10 1 7 11
M  V30 11 2 8 12
M  V30 12 1 8 13
M  V30 13 1 9 14
M  V30 14 1 9 15
M  V30 15 1 10 16
M  V30 16 2 11 17
M  V30 17 1 12 18
M  V30 18 2 13 19
M  V30 19 1 14 20
M  V30 20 1 14 21
M  V30 21 1 14 22
M  V30 22 1 15 23
M  V30 23 2 16 24
M  V30 24 2 18 25
M  V30 25 1 20 26
M  V30 26 1 17 24
M  V30 27 1 19 25
M  V30 28 1 23 26
M  V30 29 1 5 27
M  V30 30 1 5 28
M  V30 31 1 6 29
M  V30 32 1 9 30
M  V30 33 1 10 31
M  V30 34 1 11 32
M  V30 35 1 12 33
M  V30 36 1 13 34
M  V30 37 1 15 35
M  V30 38 1 15 36
M  V30 39 1 16 37
M  V30 40 1 17 38
M  V30 41 1 18 39
M  V30 42 1 19 40
M  V30 43 1 20 41
M  V30 44 1 20 42
M  V30 45 1 21 43
M  V30 46 1 21 44
M  V30 47 1 21 45
M  V30 48 1 22 46
M  V30 49 1 22 47
M  V30 50 1 22 48
M  V30 51 1 23 49
M  V30 52 1 23 50
M  V30 53 1 24 51
M  V30 54 1 25 52
M  V30 55 1 26 53
M  V30 56 1 26 54
M  V30 END BOND
M  V30 BEGIN COLLECTION
M  V30 MDLV30/STERAC1 ATOMS=(1 9)
M  V30 END COLLECTION
M  V30 END CTAB
M  END
>  <NO.>
4966

>  <Name>
bevonium

>  <SMILES>
C[N+]1(C)CCCCC1COC(=O)C(O)(c1ccccc1)c1ccccc1

>  <logBB>


>  <Class>
-1

>  <MW>
354.21

>  <nHBAcc>
3

>  <nHBDon>
1

>  <SLogP>
3.09

>  <TopoPSA>
46.53

>  <MMFF94 Energy>
156.07

$$$$
C[N+]1(CCCS(=O)(=O)O)C2CCC1CC(OC(=O)C(CO)c1ccccc1)C2
Actelion Java MolfileCreator 2.0

  0  0  0  0  0  0              0 V3000
M  V30 BEGIN CTAB
M  V30 COUNTS 58 60 0 0 0
M  V30 BEGIN ATOM
M  V30 1 S -1.0473 -0.8056 -3.3868 0
M  V30 2 O -0.3958 0.4463 -3.6884 0
M  V30 3 O -1.7678 -1.0213 -2.1547 0
M  V30 4 O -2.0064 -1.1665 -4.6273 0
M  V30 5 C 0.1362 -2.1271 -3.5722 0
M  V30 6 C 1.3666 -1.9397 -2.6788 0
M  V30 7 C 1.0374 -1.9382 -1.1781 0
M  V30 8 N 2.2951 -1.7404 -0.2876 0 CHG=1
M  V30 9 C 1.9632 -1.6383 1.2341 0
M  V30 10 C 3.0429 -0.3976 -0.4607 0
M  V30 11 C 3.2278 -2.9496 -0.5366 0
M  V30 12 C 0.8786 -0.5779 1.4695 0
M  V30 13 C 3.2939 -1.1668 1.849 0
M  V30 14 C 2.0435 0.7671 -0.3791 0
M  V30 15 C 4.003 -0.3816 0.7398 0
M  V30 16 C 1.2815 0.8151 0.9536 0
M  V30 17 O 0.1087 1.6284 0.7657 0
M  V30 18 C -0.4337 2.1503 1.9093 0
M  V30 19 O 0.0616 2.0001 3.0203 0
M  V30 20 C -1.7479 2.8622 1.6453 0
M  V30 21 C -2.8977 1.867 1.5757 0
M  V30 22 C -1.6355 3.791 0.428 0
M  V30 23 C -3.8129 1.7894 2.6375 0
M  V30 24 C -3.0561 0.9882 0.4924 0
M  V30 25 O -2.6127 4.8261 0.5132 0
M  V30 26 C -4.8597 0.8656 2.6122 0
M  V30 27 C -4.1026 0.0639 0.4695 0
M  V30 28 C -5.0044 0.0031 1.5287 0
M  V30 29 H -2.1684 -0.3588 -5.1639 0
M  V30 30 H 0.4472 -2.1343 -4.622 0
M  V30 31 H -0.3764 -3.0672 -3.3467 0
M  V30 32 H 1.8684 -1.0057 -2.9537 0
M  V30 33 H 2.0564 -2.7553 -2.9167 0
M  V30 34 H 0.5804 -2.8858 -0.8707 0
M  V30 35 H 0.3426 -1.1364 -0.9474 0
M  V30 36 H 1.6495 -2.6261 1.5876 0
M  V30 37 H 3.5714 -0.4085 -1.4193 0
M  V30 38 H 2.6252 -3.8606 -0.4805 0
M  V30 39 H 4.0165 -2.992 0.2153 0
M  V30 40 H 3.6841 -2.8351 -1.5225 0
M  V30 41 H 0.6824 -0.5111 2.5478 0
M  V30 42 H -0.0835 -0.889 1.0475 0
M  V30 43 H 3.9064 -2.021 2.159 0
M  V30 44 H 3.1471 -0.5578 2.7479 0
M  V30 45 H 1.3446 0.7482 -1.2227 0
M  V30 46 H 2.5832 1.716 -0.5011 0
M  V30 47 H 4.9475 -0.8746 0.4811 0
M  V30 48 H 4.2594 0.6347 1.0575 0
M  V30 49 H 1.939 1.3027 1.6859 0
M  V30 50 H -1.911 3.5135 2.5163 0
M  V30 51 H -0.6542 4.2782 0.4041 0
M  V30 52 H -1.7711 3.2638 -0.5214 0
M  V30 53 H -3.7235 2.4547 3.4949 0
M  V30 54 H -2.3711 1.0085 -0.3511 0
M  V30 55 H -2.5767 5.339 -0.3128 0
M  V30 56 H -5.5659 0.8243 3.4381 0
M  V30 57 H -4.2157 -0.6052 -0.38 0
M  V30 58 H -5.824 -0.7105 1.5081 0
M  V30 END ATOM
M  V30 BEGIN BOND
M  V30 1 2 1 2
M  V30 2 2 1 3
M  V30 3 1 1 4
M  V30 4 1 1 5
M  V30 5 1 5 6
M  V30 6 1 6 7
M  V30 7 1 7 8
M  V30 8 1 8 9
M  V30 9 1 8 10
M  V30 10 1 8 11
M  V30 11 1 9 12
M  V30 12 1 9 13
M  V30 13 1 10 14
M  V30 14 1 10 15
M  V30 15 1 12 16
M  V30 16 1 16 17
M  V30 17 1 17 18
M  V30 18 2 18 19
M  V30 19 1 18 20
M  V30 20 1 20 21
M  V30 21 1 20 22
M  V30 22 2 21 23
M  V30 23 1 21 24
M  V30 24 1 22 25
M  V30 25 1 23 26
M  V30 26 2 24 27
M  V30 27 2 26 28
M  V30 28 1 13 15
M  V30 29 1 14 16
M  V30 30 1 27 28
M  V30 31 1 4 29
M  V30 32 1 5 30
M  V30 33 1 5 31
M  V30 34 1 6 32
M  V30 35 1 6 33
M  V30 36 1 7 34
M  V30 37 1 7 35
M  V30 38 1 9 36
M  V30 39 1 10 37
M  V30 40 1 11 38
M  V30 41 1 11 39
M  V30 42 1 11 40
M  V30 43 1 12 41
M  V30 44 1 12 42
M  V30 45 1 13 43
M  V30 46 1 13 44
M  V30 47 1 14 45
M  V30 48 1 14 46
M  V30 49 1 15 47
M  V30 50 1 15 48
M  V30 51 1 16 49
M  V30 52 1 20 50
M  V30 53 1 22 51
M  V30 54 1 22 52
M  V30 55 1 23 53
M  V30 56 1 24 54
M  V30 57 1 25 55
M  V30 58 1 26 56
M  V30 59 1 27 57
M  V30 60 1 28 58
M  V30 END BOND
M  V30 END CTAB
M  END
>  <NO.>
4967

>  <Name>
15130-91-3

>  <SMILES>
C[N+]1(CCCS(=O)(=O)O)C2CCC1CC(OC(=O)C(CO)c1ccccc1)C2

>  <logBB>


>  <Class>
-1

>  <MW>
412.18

>  <nHBAcc>
5

>  <nHBDon>
2

>  <SLogP>
1.72

>  <TopoPSA>
100.9

>  <MMFF94 Energy>
6.7868

$$$$
Cc1nc2n(n1)C(N1CCN(C)CC1)=Nc1cc(I)ccc1C2
Actelion Java MolfileCreator 2.0

  0  0  0  0  0  0              0 V3000
M  V30 BEGIN CTAB
M  V30 COUNTS 42 45 0 0 0
M  V30 BEGIN ATOM
M  V30 1 I -1.6252 -3.3338 5.6154 0
M  V30 2 C -0.7104 -3.2572 3.7514 0
M  V30 3 C -0.3635 -2.0252 3.1976 0
M  V30 4 C -0.4436 -4.434 3.062 0
M  V30 5 C 0.2488 -1.9418 1.9388 0
M  V30 6 C 0.1756 -4.3704 1.8148 0
M  V30 7 N 0.5782 -0.648 1.5092 0
M  V30 8 C 0.5266 -3.1306 1.2484 0
M  V30 9 C 0.4722 -0.1592 0.2969 0
M  V30 10 C 1.1907 -3.0928 -0.096 0
M  V30 11 N 0.6766 1.2117 0.126 0
M  V30 12 N 0.14 -0.9581 -0.8334 0
M  V30 13 C 0.4029 -2.2899 -1.055 0
M  V30 14 C 0.4949 2.163 1.2308 0
M  V30 15 C 1.2345 1.838 -1.0787 0
M  V30 16 N -0.4883 -0.4359 -1.9277 0
M  V30 17 N -0.0797 -2.6613 -2.2231 0
M  V30 18 C -0.3593 3.365 0.7607 0
M  V30 19 C 0.3422 3.0137 -1.5274 0
M  V30 20 C -0.6275 -1.5091 -2.7111 0
M  V30 21 N 0.1797 4.0219 -0.4527 0
M  V30 22 C -1.2997 -1.4483 -4.0244 0
M  V30 23 C -0.7051 5.0998 -0.8902 0
M  V30 24 H -0.5625 -1.1027 3.7389 0
M  V30 25 H -0.708 -5.4025 3.4788 0
M  V30 26 H 0.3801 -5.2972 1.2817 0
M  V30 27 H 2.2031 -2.6831 0.0087 0
M  V30 28 H 1.3119 -4.1071 -0.4954 0
M  V30 29 H -0.0125 1.7015 2.0856 0
M  V30 30 H 1.4762 2.508 1.5783 0
M  V30 31 H 2.2383 2.2143 -0.8407 0
M  V30 32 H 1.3769 1.1374 -1.9054 0
M  V30 33 H -0.4058 4.0935 1.5791 0
M  V30 34 H -1.3838 3.0143 0.574 0
M  V30 35 H 0.8083 3.4864 -2.4001 0
M  V30 36 H -0.6366 2.6274 -1.841 0
M  V30 37 H -2.3217 -1.0714 -3.917 0
M  V30 38 H -0.7545 -0.786 -4.7039 0
M  V30 39 H -1.3504 -2.4404 -4.4835 0
M  V30 40 H -0.801 5.8589 -0.1058 0
M  V30 41 H -1.7082 4.7385 -1.1445 0
M  V30 42 H -0.2881 5.605 -1.7683 0
M  V30 END ATOM
M  V30 BEGIN BOND
M  V30 1 1 1 2
M  V30 2 2 2 3
M  V30 3 1 2 4
M  V30 4 1 3 5
M  V30 5 2 4 6
M  V30 6 1 5 7
M  V30 7 2 5 8
M  V30 8 2 7 9
M  V30 9 1 8 10
M  V30 10 1 9 11
M  V30 11 1 9 12
M  V30 12 1 10 13
M  V30 13 1 11 14
M  V30 14 1 11 15
M  V30 15 1 12 16
M  V30 16 2 13 17
M  V30 17 1 14 18
M  V30 18 1 15 19
M  V30 19 2 16 20
M  V30 20 1 18 21
M  V30 21 1 20 22
M  V30 22 1 21 23
M  V30 23 1 6 8
M  V30 24 1 12 13
M  V30 25 1 17 20
M  V30 26 1 19 21
M  V30 27 1 3 24
M  V30 28 1 4 25
M  V30 29 1 6 26
M  V30 30 1 10 27
M  V30 31 1 10 28
M  V30 32 1 14 29
M  V30 33 1 14 30
M  V30 34 1 15 31
M  V30 35 1 15 32
M  V30 36 1 18 33
M  V30 37 1 18 34
M  V30 38 1 19 35
M  V30 39 1 19 36
M  V30 40 1 22 37
M  V30 41 1 22 38
M  V30 42 1 22 39
M  V30 43 1 23 40
M  V30 44 1 23 41
M  V30 45 1 23 42
M  V30 END BOND
M  V30 END CTAB
M  END
>  <NO.>
4972

>  <Name>
schembl2056520

>  <SMILES>
Cc1nc2n(n1)C(N1CCN(C)CC1)=Nc1cc(I)ccc1C2

>  <logBB>


>  <Class>
1

>  <MW>
422.07

>  <nHBAcc>
5

>  <nHBDon>
0

>  <SLogP>
1.88

>  <TopoPSA>
49.55

>  <MMFF94 Energy>
140.38

$$$$
Cc1ncc(COC(=O)CCC(=O)OCCN(C)C)c(CO)c1O
Actelion Java MolfileCreator 2.0

  0  0  0  0  0  0              0 V3000
M  V30 BEGIN CTAB
M  V30 COUNTS 48 48 0 0 0
M  V30 BEGIN ATOM
M  V30 1 O 1.1765 1.4119 -0.1568 0
M  V30 2 C 0.2407 0.768 0.2953 0
M  V30 3 O -0.9797 1.2861 0.6066 0
M  V30 4 C 0.2597 -0.7061 0.5986 0
M  V30 5 C -1.0893 2.6908 0.3484 0
M  V30 6 C 1.5886 -1.3345 0.1987 0
M  V30 7 C -2.4513 3.2336 0.7206 0
M  V30 8 C 1.6014 -2.8105 0.4958 0
M  V30 9 C -2.7175 4.6252 0.7267 0
M  V30 10 C -3.5001 2.3704 1.0382 0
M  V30 11 O 0.7027 -3.4231 1.055 0
M  V30 12 O 2.7675 -3.3538 0.0584 0
M  V30 13 C -4.014 5.0418 1.0739 0
M  V30 14 C -1.6056 5.5951 0.388 0
M  V30 15 N -4.7479 2.765 1.3697 0
M  V30 16 C 2.8769 -4.7718 0.2544 0
M  V30 17 O -4.3629 6.3651 1.114 0
M  V30 18 C -4.9921 4.0958 1.3878 0
M  V30 19 O -2.0594 6.9453 0.3024 0
M  V30 20 C 4.1243 -5.2976 -0.4757 0
M  V30 21 C -6.3819 4.5209 1.7607 0
M  V30 22 N 4.1107 -5.111 -1.9426 0
M  V30 23 C 3.0728 -5.913 -2.5915 0
M  V30 24 C 5.4218 -5.4486 -2.5022 0
M  V30 25 H -0.5597 -1.1835 0.0491 0
M  V30 26 H 0.0868 -0.839 1.6728 0
M  V30 27 H -0.9253 2.8698 -0.7209 0
M  V30 28 H -0.3268 3.2089 0.9419 0
M  V30 29 H 1.7592 -1.1946 -0.8749 0
M  V30 30 H 2.4108 -0.8639 0.7497 0
M  V30 31 H -3.3707 1.2908 1.0384 0
M  V30 32 H -0.8346 5.5541 1.164 0
M  V30 33 H -1.1701 5.3375 -0.5826 0
M  V30 34 H 1.9725 -5.2826 -0.0933 0
M  V30 35 H 2.991 -4.9619 1.3283 0
M  V30 36 H -3.5826 6.8759 0.8052 0
M  V30 37 H -1.281 7.4769 0.0517 0
M  V30 38 H 4.9834 -4.7468 -0.0707 0
M  V30 39 H 4.2674 -6.3565 -0.226 0
M  V30 40 H -7.0097 3.6502 1.9768 0
M  V30 41 H -6.8445 5.0743 0.9375 0
M  V30 42 H -6.3604 5.1511 2.6552 0
M  V30 43 H 2.0729 -5.5905 -2.2854 0
M  V30 44 H 3.1784 -6.9814 -2.3716 0
M  V30 45 H 3.1098 -5.7825 -3.6792 0
M  V30 46 H 5.6898 -6.4962 -2.3234 0
M  V30 47 H 6.2021 -4.8131 -2.0687 0
M  V30 48 H 5.4386 -5.2669 -3.5827 0
M  V30 END ATOM
M  V30 BEGIN BOND
M  V30 1 2 1 2
M  V30 2 1 2 3
M  V30 3 1 2 4
M  V30 4 1 3 5
M  V30 5 1 4 6
M  V30 6 1 5 7
M  V30 7 1 6 8
M  V30 8 2 7 9
M  V30 9 1 7 10
M  V30 10 2 8 11
M  V30 11 1 8 12
M  V30 12 1 9 13
M  V30 13 1 9 14
M  V30 14 2 10 15
M  V30 15 1 12 16
M  V30 16 1 13 17
M  V30 17 2 13 18
M  V30 18 1 14 19
M  V30 19 1 16 20
M  V30 20 1 18 21
M  V30 21 1 20 22
M  V30 22 1 22 23
M  V30 23 1 22 24
M  V30 24 1 15 18
M  V30 25 1 4 25
M  V30 26 1 4 26
M  V30 27 1 5 27
M  V30 28 1 5 28
M  V30 29 1 6 29
M  V30 30 1 6 30
M  V30 31 1 10 31
M  V30 32 1 14 32
M  V30 33 1 14 33
M  V30 34 1 16 34
M  V30 35 1 16 35
M  V30 36 1 17 36
M  V30 37 1 19 37
M  V30 38 1 20 38
M  V30 39 1 20 39
M  V30 40 1 21 40
M  V30 41 1 21 41
M  V30 42 1 21 42
M  V30 43 1 23 43
M  V30 44 1 23 44
M  V30 45 1 23 45
M  V30 46 1 24 46
M  V30 47 1 24 47
M  V30 48 1 24 48
M  V30 END BOND
M  V30 END CTAB
M  END
>  <NO.>
4973

>  <Name>
pirisudanol

>  <SMILES>
Cc1ncc(COC(=O)CCC(=O)OCCN(C)C)c(CO)c1O

>  <logBB>


>  <Class>
1

>  <MW>
340.16

>  <nHBAcc>
8

>  <nHBDon>
2

>  <SLogP>
0.52

>  <TopoPSA>
109.19

>  <MMFF94 Energy>
8.3148

$$$$
NC(=O)Nc1ccc(S(=O)(=O)c2ccc(N)cc2)cc1
Actelion Java MolfileCreator 2.0

  0  0  0  0  0  0              0 V3000
M  V30 BEGIN CTAB
M  V30 COUNTS 33 34 0 0 0
M  V30 BEGIN ATOM
M  V30 1 S -1.4472 -1.7691 -1.2059 0
M  V30 2 O -1.0169 -2.1638 -2.5346 0
M  V30 3 O -2.3411 -2.6167 -0.4369 0
M  V30 4 C 0.0315 -1.5295 -0.2487 0
M  V30 5 C -2.239 -0.183 -1.3286 0
M  V30 6 C 0.1905 -2.1868 0.9717 0
M  V30 7 C 1.0298 -0.6848 -0.7372 0
M  V30 8 C -2.8028 0.3864 -0.1855 0
M  V30 9 C -2.3014 0.4763 -2.5564 0
M  V30 10 C 1.3567 -1.9819 1.7141 0
M  V30 11 C 2.192 -0.4841 0.0139 0
M  V30 12 C -3.4214 1.636 -0.2764 0
M  V30 13 C -2.9233 1.7255 -2.6316 0
M  V30 14 C 2.3605 -1.1223 1.2465 0
M  V30 15 C -3.4947 2.3121 -1.4981 0
M  V30 16 N 3.5121 -0.9765 2.0432 0
M  V30 17 N -4.0839 3.5595 -1.5754 0
M  V30 18 C 4.4724 -0.0064 1.9349 0
M  V30 19 O 4.4975 0.9441 1.1665 0
M  V30 20 N 5.487 -0.1782 2.8258 0
M  V30 21 H -0.5775 -2.8575 1.3506 0
M  V30 22 H 0.9235 -0.187 -1.6984 0
M  V30 23 H -2.7712 -0.1294 0.771 0
M  V30 24 H -1.8741 0.0352 -3.4539 0
M  V30 25 H 1.4662 -2.4994 2.6639 0
M  V30 26 H 2.9596 0.1683 -0.394 0
M  V30 27 H -3.8527 2.0786 0.618 0
M  V30 28 H -2.9616 2.2386 -3.5893 0
M  V30 29 H 3.6083 -1.6073 2.8229 0
M  V30 30 H -4.1826 4.027 -2.466 0
M  V30 31 H -4.5422 3.9634 -0.7702 0
M  V30 32 H 5.5752 -0.9719 3.4376 0
M  V30 33 H 6.2303 0.5072 2.8037 0
M  V30 END ATOM
M  V30 BEGIN BOND
M  V30 1 2 1 2
M  V30 2 2 1 3
M  V30 3 1 1 4
M  V30 4 1 1 5
M  V30 5 2 4 6
M  V30 6 1 4 7
M  V30 7 2 5 8
M  V30 8 1 5 9
M  V30 9 1 6 10
M  V30 10 2 7 11
M  V30 11 1 8 12
M  V30 12 2 9 13
M  V30 13 2 10 14
M  V30 14 2 12 15
M  V30 15 1 14 16
M  V30 16 1 15 17
M  V30 17 1 16 18
M  V30 18 2 18 19
M  V30 19 1 18 20
M  V30 20 1 11 14
M  V30 21 1 13 15
M  V30 22 1 6 21
M  V30 23 1 7 22
M  V30 24 1 8 23
M  V30 25 1 9 24
M  V30 26 1 10 25
M  V30 27 1 11 26
M  V30 28 1 12 27
M  V30 29 1 13 28
M  V30 30 1 16 29
M  V30 31 1 17 30
M  V30 32 1 17 31
M  V30 33 1 20 32
M  V30 34 1 20 33
M  V30 END BOND
M  V30 END CTAB
M  END
>  <NO.>
4978

>  <Name>
amidapsone

>  <SMILES>
NC(=O)Nc1ccc(S(=O)(=O)c2ccc(N)cc2)cc1

>  <logBB>


>  <Class>
1

>  <MW>
291.07

>  <nHBAcc>
4

>  <nHBDon>
3

>  <SLogP>
1.59

>  <TopoPSA>
115.28

>  <MMFF94 Energy>
-9.4251

$$$$
NC(=O)c1cc[n+](CC2=C(C(=O)O)N3C(=O)[C@@H](NC(=O)Cc4cccs4)[C@H]3SC2)cc1
Actelion Java MolfileCreator 2.0

  0  0  0  0  0  0              0 V3000
M  V30 BEGIN CTAB
M  V30 COUNTS 50 53 0 0 0
M  V30 BEGIN ATOM
M  V30 1 S -1.2301 -1.066 -2.0507 0
M  V30 2 C -0.5875 -2.4598 -1.0786 0 CFG=1
M  V30 3 C 0.3053 -0.9261 -3.0159 0
M  V30 4 N 0.5461 -1.9466 -0.3327 0
M  V30 5 C -1.2224 -2.8238 0.2959 0 CFG=1
M  V30 6 C 1.5207 -0.7405 -2.1236 0
M  V30 7 C 1.5731 -1.2305 -0.8598 0
M  V30 8 C 0.1756 -2.4175 0.8766 0
M  V30 9 N -2.3808 -2.0272 0.7737 0
M  V30 10 C 2.6382 0.0566 -2.7663 0
M  V30 11 C 2.739 -0.9117 0.0049 0
M  V30 12 O 0.7292 -2.4287 1.9488 0
M  V30 13 C -3.6456 -2.2551 0.2718 0
M  V30 14 N 2.8929 1.3577 -2.0828 0 CHG=1
M  V30 15 O 3.9038 -1.0572 -0.3209 0
M  V30 16 O 2.3617 -0.2649 1.1145 0
M  V30 17 O -3.8472 -3.0869 -0.6108 0
M  V30 18 C -4.7417 -1.3624 0.8262 0
M  V30 19 C 1.8902 2.255 -1.9151 0
M  V30 20 C 4.1477 1.6508 -1.6628 0
M  V30 21 C -4.8423 -1.515 2.3138 0
M  V30 22 C 2.1156 3.4757 -1.2858 0
M  V30 23 C 4.4199 2.855 -1.0299 0
M  V30 24 S -4.1427 -0.3429 3.3522 0
M  V30 25 C -5.4584 -2.5227 3.0295 0
M  V30 26 C 3.3962 3.7829 -0.8369 0
M  V30 27 C -4.6533 -1.1844 4.7495 0
M  V30 28 C -5.3461 -2.3323 4.4369 0
M  V30 29 C 3.7325 5.043 -0.1259 0
M  V30 30 O 4.7814 5.132 0.4976 0
M  V30 31 N 2.863 6.0901 -0.1984 0
M  V30 32 H -0.335 -3.3435 -1.678 0
M  V30 33 H 0.4367 -1.805 -3.6559 0
M  V30 34 H 0.172 -0.0562 -3.667 0
M  V30 35 H -1.4142 -3.8976 0.4167 0
M  V30 36 H -2.2823 -1.3821 1.553 0
M  V30 37 H 3.5632 -0.5288 -2.7984 0
M  V30 38 H 2.4052 0.3215 -3.8052 0
M  V30 39 H 3.1345 -0.238 1.7189 0
M  V30 40 H -5.6922 -1.6472 0.3602 0
M  V30 41 H -4.5294 -0.3281 0.5326 0
M  V30 42 H 0.9016 1.9856 -2.2772 0
M  V30 43 H 4.9269 0.908 -1.8191 0
M  V30 44 H 1.28 4.1529 -1.1357 0
M  V30 45 H 5.4312 3.065 -0.6816 0
M  V30 46 H -5.9679 -3.3616 2.5678 0
M  V30 47 H -4.4266 -0.7974 5.7342 0
M  V30 48 H -5.7571 -3.002 5.1834 0
M  V30 49 H 2.0124 6.1349 -0.737 0
M  V30 50 H 3.131 6.9328 0.3011 0
M  V30 END ATOM
M  V30 BEGIN BOND
M  V30 1 1 1 2
M  V30 2 1 1 3
M  V30 3 1 2 4
M  V30 4 1 2 5
M  V30 5 1 3 6
M  V30 6 1 4 7
M  V30 7 1 4 8
M  V30 8 1 5 9
M  V30 9 1 6 10
M  V30 10 1 7 11
M  V30 11 2 8 12
M  V30 12 1 9 13
M  V30 13 1 10 14
M  V30 14 2 11 15
M  V30 15 1 11 16
M  V30 16 2 13 17
M  V30 17 1 13 18
M  V30 18 2 14 19
M  V30 19 1 14 20
M  V30 20 1 18 21
M  V30 21 1 19 22
M  V30 22 2 20 23
M  V30 23 1 21 24
M  V30 24 2 21 25
M  V30 25 2 22 26
M  V30 26 1 24 27
M  V30 27 1 25 28
M  V30 28 1 26 29
M  V30 29 2 29 30
M  V30 30 1 29 31
M  V30 31 1 5 8
M  V30 32 2 6 7
M  V30 33 1 23 26
M  V30 34 2 27 28
M  V30 35 1 2 32
M  V30 36 1 3 33
M  V30 37 1 3 34
M  V30 38 1 5 35
M  V30 39 1 9 36
M  V30 40 1 10 37
M  V30 41 1 10 38
M  V30 42 1 16 39
M  V30 43 1 18 40
M  V30 44 1 18 41
M  V30 45 1 19 42
M  V30 46 1 20 43
M  V30 47 1 22 44
M  V30 48 1 23 45
M  V30 49 1 25 46
M  V30 50 1 27 47
M  V30 51 1 28 48
M  V30 52 1 31 49
M  V30 53 1 31 50
M  V30 END BOND
M  V30 BEGIN COLLECTION
M  V30 MDLV30/STEABS ATOMS=(2 2 5)
M  V30 END COLLECTION
M  V30 END CTAB
M  END
>  <NO.>
4980

>  <Name>
cefalonium

>  <SMILES>
NC(=O)c1cc[n+](CC2=C(C(=O)O)N3C(=O)[C@@H](NC(=O)Cc4cccs4)[C@H]3SC2)cc1

>  <logBB>


>  <Class>
-1

>  <MW>
459.08

>  <nHBAcc>
6

>  <nHBDon>
3

>  <SLogP>
0.12

>  <TopoPSA>
133.68

>  <MMFF94 Energy>
17.445

$$$$
O=C(Cc1cccs1)N[C@@H]1C(=O)N2C(C(=O)O)=C(C[n+]3ccccc3)CS[C@H]12
Actelion Java MolfileCreator 2.0

  0  0  0  0  0  0              0 V3000
M  V30 BEGIN CTAB
M  V30 COUNTS 46 49 0 0 0
M  V30 BEGIN ATOM
M  V30 1 S 0.2467 0.8228 -2.4699 0
M  V30 2 C 1.8225 0.1499 -1.8348 0 CFG=1
M  V30 3 C -0.4051 1.5573 -0.969 0
M  V30 4 N 2.1883 0.6612 -0.5126 0
M  V30 5 C 1.8023 -1.2758 -1.1942 0 CFG=1
M  V30 6 C 0.6169 2.405 -0.2578 0
M  V30 7 C 1.8566 1.9054 -0.0504 0
M  V30 8 C 1.9131 -0.5025 0.1443 0
M  V30 9 N 0.587 -2.1108 -1.368 0
M  V30 10 C 0.119 3.7569 0.1993 0
M  V30 11 C 2.88 2.5927 0.7939 0
M  V30 12 O 1.6948 -0.7131 1.3155 0
M  V30 13 C 0.3261 -2.7278 -2.5745 0
M  V30 14 N -0.8982 3.6231 1.2767 0 CHG=1
M  V30 15 O 2.6514 3.502 1.5722 0
M  V30 16 O 4.1125 2.1 0.6038 0
M  V30 17 O 1.0591 -2.5675 -3.5479 0
M  V30 18 C -0.9578 -3.5365 -2.6383 0
M  V30 19 C -2.2007 3.889 1.0129 0
M  V30 20 C -0.5111 3.2773 2.5294 0
M  V30 21 C -0.9918 -4.5678 -1.5509 0
M  V30 22 C -3.1648 3.7818 2.0087 0
M  V30 23 C -1.4439 3.1578 3.5533 0
M  V30 24 S -1.8914 -4.2847 -0.1182 0
M  V30 25 C -0.3697 -5.8003 -1.5234 0
M  V30 26 C -2.783 3.4094 3.2898 0
M  V30 27 C -1.4439 -5.7985 0.5365 0
M  V30 28 C -0.6292 -6.5095 -0.3155 0
M  V30 29 H 2.6411 0.2727 -2.5536 0
M  V30 30 H -0.7874 0.781 -0.2967 0
M  V30 31 H -1.2662 2.1608 -1.2731 0
M  V30 32 H 2.7079 -1.8644 -1.3919 0
M  V30 33 H 0.0045 -2.3521 -0.5707 0
M  V30 34 H 0.8817 4.4442 0.568 0
M  V30 35 H -0.346 4.278 -0.6468 0
M  V30 36 H 4.7116 2.5859 1.2094 0
M  V30 37 H -1.0096 -4.03 -3.6157 0
M  V30 38 H -1.8055 -2.8448 -2.5736 0
M  V30 39 H -2.4663 4.1852 0.0018 0
M  V30 40 H 0.5438 3.0967 2.7087 0
M  V30 41 H -4.2097 3.9919 1.7888 0
M  V30 42 H -1.1247 2.8732 4.5541 0
M  V30 43 H 0.2445 -6.1807 -2.3324 0
M  V30 44 H -3.525 3.3219 4.0829 0
M  V30 45 H -1.802 -6.1003 1.5119 0
M  V30 46 H -0.2419 -7.4953 -0.0856 0
M  V30 END ATOM
M  V30 BEGIN BOND
M  V30 1 1 1 2
M  V30 2 1 1 3
M  V30 3 1 2 4
M  V30 4 1 2 5
M  V30 5 1 3 6
M  V30 6 1 4 7
M  V30 7 1 4 8
M  V30 8 1 5 9
M  V30 9 1 6 10
M  V30 10 1 7 11
M  V30 11 2 8 12
M  V30 12 1 9 13
M  V30 13 1 10 14
M  V30 14 2 11 15
M  V30 15 1 11 16
M  V30 16 2 13 17
M  V30 17 1 13 18
M  V30 18 2 14 19
M  V30 19 1 14 20
M  V30 20 1 18 21
M  V30 21 1 19 22
M  V30 22 2 20 23
M  V30 23 1 21 24
M  V30 24 2 21 25
M  V30 25 2 22 26
M  V30 26 1 24 27
M  V30 27 1 25 28
M  V30 28 1 5 8
M  V30 29 2 6 7
M  V30 30 1 23 26
M  V30 31 2 27 28
M  V30 32 1 2 29
M  V30 33 1 3 30
M  V30 34 1 3 31
M  V30 35 1 5 32
M  V30 36 1 9 33
M  V30 37 1 10 34
M  V30 38 1 10 35
M  V30 39 1 16 36
M  V30 40 1 18 37
M  V30 41 1 18 38
M  V30 42 1 19 39
M  V30 43 1 20 40
M  V30 44 1 22 41
M  V30 45 1 23 42
M  V30 46 1 25 43
M  V30 47 1 26 44
M  V30 48 1 27 45
M  V30 49 1 28 46
M  V30 END BOND
M  V30 BEGIN COLLECTION
M  V30 MDLV30/STEABS ATOMS=(2 2 5)
M  V30 END COLLECTION
M  V30 END CTAB
M  END
>  <NO.>
4994

>  <Name>
cefaloridine

>  <SMILES>
O=C(Cc1cccs1)N[C@@H]1C(=O)N2C(C(=O)O)=C(C[n+]3ccccc3)CS[C@H]12

>  <logBB>


>  <Class>
-1

>  <MW>
416.07

>  <nHBAcc>
5

>  <nHBDon>
2

>  <SLogP>
1.02

>  <TopoPSA>
90.59

>  <MMFF94 Energy>
55.817

$$$$
O=C1CC=C2CCC(=O)N12
Actelion Java MolfileCreator 2.0

  0  0  0  0  0  0              0 V3000
M  V30 BEGIN CTAB
M  V30 COUNTS 17 18 0 0 0
M  V30 BEGIN ATOM
M  V30 1 O 2.3324 0.4822 1.8495 0
M  V30 2 C 1.3973 -0.0568 1.2832 0
M  V30 3 N 0.5376 0.4557 0.3017 0
M  V30 4 C 0.9204 -1.4936 1.5257 0
M  V30 5 C 0.4273 1.6784 -0.353 0
M  V30 6 C -0.3899 -0.4541 -0.0884 0
M  V30 7 C -0.2418 -1.6036 0.5658 0
M  V30 8 O 1.1028 2.685 -0.226 0
M  V30 9 C -0.7472 1.5351 -1.3084 0
M  V30 10 C -1.2855 0.1052 -1.1226 0
M  V30 11 H 1.7149 -2.1998 1.274 0
M  V30 12 H 0.5952 -1.6108 2.5621 0
M  V30 13 H -0.8489 -2.4882 0.4427 0
M  V30 14 H -0.403 1.6964 -2.3345 0
M  V30 15 H -1.5106 2.279 -1.0603 0
M  V30 16 H -1.2228 -0.4568 -2.0593 0
M  V30 17 H -2.3275 0.1242 -0.7884 0
M  V30 END ATOM
M  V30 BEGIN BOND
M  V30 1 2 1 2
M  V30 2 1 2 3
M  V30 3 1 2 4
M  V30 4 1 3 5
M  V30 5 1 3 6
M  V30 6 1 4 7
M  V30 7 2 5 8
M  V30 8 1 5 9
M  V30 9 1 6 10
M  V30 10 2 6 7
M  V30 11 1 9 10
M  V30 12 1 4 11
M  V30 13 1 4 12
M  V30 14 1 7 13
M  V30 15 1 9 14
M  V30 16 1 9 15
M  V30 17 1 10 16
M  V30 18 1 10 17
M  V30 END BOND
M  V30 END CTAB
M  END
>  <NO.>
4998

>  <Name>
2,6-dihydro-1h-pyrrolizine-3,5-dione

>  <SMILES>
O=C1CC=C2CCC(=O)N12

>  <logBB>


>  <Class>
1

>  <MW>
137.05

>  <nHBAcc>
2

>  <nHBDon>
0

>  <SLogP>
0.42

>  <TopoPSA>
37.38

>  <MMFF94 Energy>
12.463

$$$$
O=C1CCNC1C(=O)N[C@H]1CC1c1ccccc1
Actelion Java MolfileCreator 2.0

  0  0  0  0  0  0              0 V3000
M  V30 BEGIN CTAB
M  V30 COUNTS 34 36 0 0 0
M  V30 BEGIN ATOM
M  V30 1 O -2.7989 -2.1586 1.5986 0
M  V30 2 C -2.4708 -2.9244 0.7002 0
M  V30 3 C -1.123 -2.9282 0.0199 0
M  V30 4 C -3.3707 -3.9605 0.1076 0
M  V30 5 N -1.2346 -4.0202 -0.9968 0
M  V30 6 C -0.8434 -1.5966 -0.6717 0
M  V30 7 C -2.3388 -4.8718 -0.5331 0
M  V30 8 O -1.2251 -1.3699 -1.8209 0
M  V30 9 N -0.1403 -0.6896 0.0971 0
M  V30 10 C 0.2147 0.607 -0.3902 0 CFG=2
M  V30 11 C 0.4349 1.7621 0.5656 0
M  V30 12 C -0.7705 1.7412 -0.336 0
M  V30 13 C 1.632 2.6709 0.3551 0
M  V30 14 C 2.5808 2.8164 1.3856 0
M  V30 15 C 1.7972 3.4986 -0.7696 0
M  V30 16 C 3.6645 3.6937 1.2779 0
M  V30 17 C 2.8792 4.3786 -0.8863 0
M  V30 18 C 3.8157 4.4728 0.1369 0
M  V30 19 H -0.345 -3.1853 0.7449 0
M  V30 20 H -4.021 -3.4896 -0.6346 0
M  V30 21 H -3.9504 -4.4733 0.8779 0
M  V30 22 H -1.5113 -3.5674 -1.8791 0
M  V30 23 H -1.95 -5.5857 0.2035 0
M  V30 24 H -2.7657 -5.4509 -1.3579 0
M  V30 25 H 0.1071 -0.9287 1.0505 0
M  V30 26 H 0.8485 0.5593 -1.274 0
M  V30 27 H 0.1979 1.5709 1.6123 0
M  V30 28 H -0.8304 2.3927 -1.1977 0
M  V30 29 H -1.7383 1.5549 0.1181 0
M  V30 30 H 2.4784 2.2273 2.2951 0
M  V30 31 H 1.0816 3.4611 -1.5868 0
M  V30 32 H 4.3837 3.77 2.0891 0
M  V30 33 H 2.9826 4.9931 -1.7769 0
M  V30 34 H 4.6548 5.1573 0.0487 0
M  V30 END ATOM
M  V30 BEGIN BOND
M  V30 1 2 1 2
M  V30 2 1 2 3
M  V30 3 1 2 4
M  V30 4 1 3 5
M  V30 5 1 3 6
M  V30 6 1 4 7
M  V30 7 2 6 8
M  V30 8 1 6 9
M  V30 9 1 9 10
M  V30 10 1 10 11
M  V30 11 1 10 12
M  V30 12 1 11 13
M  V30 13 2 13 14
M  V30 14 1 13 15
M  V30 15 1 14 16
M  V30 16 2 15 17
M  V30 17 2 16 18
M  V30 18 1 5 7
M  V30 19 1 11 12
M  V30 20 1 17 18
M  V30 21 1 3 19
M  V30 22 1 4 20
M  V30 23 1 4 21
M  V30 24 1 5 22
M  V30 25 1 7 23
M  V30 26 1 7 24
M  V30 27 1 9 25
M  V30 28 1 10 26
M  V30 29 1 11 27
M  V30 30 1 12 28
M  V30 31 1 12 29
M  V30 32 1 14 30
M  V30 33 1 15 31
M  V30 34 1 16 32
M  V30 35 1 17 33
M  V30 36 1 18 34
M  V30 END BOND
M  V30 BEGIN COLLECTION
M  V30 MDLV30/STEABS ATOMS=(1 10)
M  V30 END COLLECTION
M  V30 END CTAB
M  END
>  <NO.>
4999

>  <Name>
rolicyprine

>  <SMILES>
O=C1CCNC1C(=O)N[C@H]1CC1c1ccccc1

>  <logBB>


>  <Class>
1

>  <MW>
244.12

>  <nHBAcc>
3

>  <nHBDon>
2

>  <SLogP>
0.59

>  <TopoPSA>
58.2

>  <MMFF94 Energy>
61.702

$$$$
CCn1cc(C(=O)O)c(=O)c2cc(F)c(N3CCN[C@H](C)C3)c(F)c21
Actelion Java MolfileCreator 2.0

  0  0  0  0  0  0              0 V3000
M  V30 BEGIN CTAB
M  V30 COUNTS 44 46 0 0 0
M  V30 BEGIN ATOM
M  V30 1 F -0.5617 -1.2041 -0.1604 0
M  V30 2 C 0.2039 -0.0993 -0.1814 0
M  V30 3 C -0.278 1.0369 0.5171 0
M  V30 4 C 1.4528 -0.1478 -0.8523 0
M  V30 5 N -1.5184 1.0696 1.1632 0
M  V30 6 C 0.5613 2.1627 0.51 0
M  V30 7 N 1.9549 -1.2697 -1.5602 0
M  V30 8 C 2.2382 1.0203 -0.7922 0
M  V30 9 C -2.6147 0.1824 0.7393 0
M  V30 10 C -1.5653 1.5081 2.5706 0
M  V30 11 F 0.1698 3.3062 1.0951 0
M  V30 12 C 1.7966 2.165 -0.1225 0
M  V30 13 C 3.2261 -1.2051 -2.1189 0
M  V30 14 C 1.1555 -2.504 -1.6824 0
M  V30 15 C 3.5699 1.0695 -1.4496 0
M  V30 16 C -3.9943 0.7463 1.1829 0 CFG=2
M  V30 17 C -2.9749 2.0156 2.9464 0
M  V30 18 C 4.062 -0.1559 -2.1179 0
M  V30 19 C 1.3571 -3.4111 -0.4766 0
M  V30 20 O 4.2145 2.112 -1.4267 0
M  V30 21 N -4.0544 1.0587 2.6302 0
M  V30 22 C -5.1048 -0.2491 0.851 0
M  V30 23 C 5.398 -0.2352 -2.739 0
M  V30 24 O 6.3037 0.5725 -2.6521 0
M  V30 25 O 5.5814 -1.3546 -3.4707 0
M  V30 26 H -2.4669 -0.8134 1.1761 0
M  V30 27 H -2.6264 0.0837 -0.3533 0
M  V30 28 H -1.3016 0.6563 3.2108 0
M  V30 29 H -0.8506 2.305 2.7945 0
M  V30 30 H 2.4005 3.0688 -0.094 0
M  V30 31 H 3.5231 -2.1401 -2.5904 0
M  V30 32 H 1.4753 -3.0576 -2.5758 0
M  V30 33 H 0.0976 -2.2937 -1.8687 0
M  V30 34 H -4.1926 1.6709 0.6245 0
M  V30 35 H -3.1753 2.9638 2.432 0
M  V30 36 H -3.0042 2.2298 4.0206 0
M  V30 37 H 1.0603 -2.925 0.4573 0
M  V30 38 H 2.4089 -3.6999 -0.3778 0
M  V30 39 H 0.7646 -4.3245 -0.5881 0
M  V30 40 H -3.8808 0.1994 3.1518 0
M  V30 41 H -4.9698 -1.1963 1.3852 0
M  V30 42 H -5.1194 -0.4671 -0.2222 0
M  V30 43 H -6.0872 0.1546 1.1206 0
M  V30 44 H 6.4953 -1.2434 -3.8108 0
M  V30 END ATOM
M  V30 BEGIN BOND
M  V30 1 1 1 2
M  V30 2 2 2 3
M  V30 3 1 2 4
M  V30 4 1 3 5
M  V30 5 1 3 6
M  V30 6 1 4 7
M  V30 7 2 4 8
M  V30 8 1 5 9
M  V30 9 1 5 10
M  V30 10 1 6 11
M  V30 11 2 6 12
M  V30 12 1 7 13
M  V30 13 1 7 14
M  V30 14 1 8 15
M  V30 15 1 9 16
M  V30 16 1 10 17
M  V30 17 2 13 18
M  V30 18 1 14 19
M  V30 19 2 15 20
M  V30 20 1 16 21
M  V30 21 1 16 22
M  V30 22 1 18 23
M  V30 23 2 23 24
M  V30 24 1 23 25
M  V30 25 1 8 12
M  V30 26 1 15 18
M  V30 27 1 17 21
M  V30 28 1 9 26
M  V30 29 1 9 27
M  V30 30 1 10 28
M  V30 31 1 10 29
M  V30 32 1 12 30
M  V30 33 1 13 31
M  V30 34 1 14 32
M  V30 35 1 14 33
M  V30 36 1 16 34
M  V30 37 1 17 35
M  V30 38 1 17 36
M  V30 39 1 19 37
M  V30 40 1 19 38
M  V30 41 1 19 39
M  V30 42 1 21 40
M  V30 43 1 22 41
M  V30 44 1 22 42
M  V30 45 1 22 43
M  V30 46 1 25 44
M  V30 END BOND
M  V30 BEGIN COLLECTION
M  V30 MDLV30/STEABS ATOMS=(1 16)
M  V30 END COLLECTION
M  V30 END CTAB
M  END
>  <NO.>
5026

>  <Name>
lomefloxacin

>  <SMILES>
CCn1cc(C(=O)O)c(=O)c2cc(F)c(N3CCN[C@H](C)C3)c(F)c21

>  <logBB>


>  <Class>
-1

>  <MW>
351.14

>  <nHBAcc>
4

>  <nHBDon>
2

>  <SLogP>
1.8

>  <TopoPSA>
74.57

>  <MMFF94 Energy>
141.37

$$$$
C[C@@H]1COc2c(N3CCN(C)CC3)c(F)c(C(=O)O)c3c(=O)ccn1c23
Actelion Java MolfileCreator 2.0

  0  0  0  0  0  0              0 V3000
M  V30 BEGIN CTAB
M  V30 COUNTS 46 49 0 0 0
M  V30 BEGIN ATOM
M  V30 1 F 2.9018 -0.4831 0.8054 0
M  V30 2 C 1.9656 -0.0836 -0.0752 0
M  V30 3 C 0.6121 -0.0961 0.3134 0
M  V30 4 C 2.367 0.279 -1.358 0
M  V30 5 N 0.2761 -0.4842 1.6098 0
M  V30 6 C -0.3311 0.2892 -0.6718 0
M  V30 7 C 1.4259 0.6504 -2.3189 0
M  V30 8 C 3.7991 0.22 -1.6312 0
M  V30 9 C 0.8511 0.2701 2.7383 0
M  V30 10 C -0.9789 -1.1822 1.9202 0
M  V30 11 O -1.6576 0.3147 -0.2895 0
M  V30 12 C 0.0513 0.6455 -1.9948 0
M  V30 13 C 1.8381 1.0638 -3.6872 0
M  V30 14 O 4.6415 0.9947 -1.2248 0
M  V30 15 O 4.0807 -0.8688 -2.3672 0
M  V30 16 C 0.9586 -0.624 3.9948 0
M  V30 17 C -0.8192 -2.0413 3.1979 0
M  V30 18 C -2.4317 1.2149 -1.0769 0
M  V30 19 N -0.9133 0.9886 -2.9903 0
M  V30 20 O 3.0047 1.2328 -4.0173 0
M  V30 21 C 0.7762 1.286 -4.6849 0
M  V30 22 N -0.3268 -1.2637 4.3577 0
M  V30 23 C -2.3241 0.8575 -2.5601 0 CFG=2
M  V30 24 C -0.4935 1.2286 -4.2822 0
M  V30 25 C -0.157 -2.1298 5.5222 0
M  V30 26 C -3.2773 1.758 -3.349 0
M  V30 27 H 1.8466 0.6682 2.5151 0
M  V30 28 H 0.206 1.132 2.9525 0
M  V30 29 H -1.2652 -1.8525 1.1009 0
M  V30 30 H -1.7849 -0.4552 2.0773 0
M  V30 31 H 5.0347 -0.7716 -2.5692 0
M  V30 32 H 1.7259 -1.3898 3.8176 0
M  V30 33 H 1.3033 -0.001 4.8289 0
M  V30 34 H -1.7957 -2.4782 3.4393 0
M  V30 35 H -0.1332 -2.8715 2.9812 0
M  V30 36 H -3.4694 1.1225 -0.7374 0
M  V30 37 H -2.1141 2.2466 -0.873 0
M  V30 38 H 1.0723 1.4955 -5.7034 0
M  V30 39 H -2.6222 -0.1898 -2.7002 0
M  V30 40 H -1.2804 1.3853 -5.0129 0
M  V30 41 H 0.1834 -1.548 6.3857 0
M  V30 42 H 0.565 -2.9343 5.3425 0
M  V30 43 H -1.1136 -2.5827 5.8051 0
M  V30 44 H -3.3639 1.4343 -4.3909 0
M  V30 45 H -2.941 2.8007 -3.3431 0
M  V30 46 H -4.2866 1.7245 -2.9243 0
M  V30 END ATOM
M  V30 BEGIN BOND
M  V30 1 1 1 2
M  V30 2 2 2 3
M  V30 3 1 2 4
M  V30 4 1 3 5
M  V30 5 1 3 6
M  V30 6 2 4 7
M  V30 7 1 4 8
M  V30 8 1 5 9
M  V30 9 1 5 10
M  V30 10 1 6 11
M  V30 11 2 6 12
M  V30 12 1 7 13
M  V30 13 2 8 14
M  V30 14 1 8 15
M  V30 15 1 9 16
M  V30 16 1 10 17
M  V30 17 1 11 18
M  V30 18 1 12 19
M  V30 19 2 13 20
M  V30 20 1 13 21
M  V30 21 1 16 22
M  V30 22 1 18 23
M  V30 23 1 19 24
M  V30 24 1 22 25
M  V30 25 1 23 26
M  V30 26 1 7 12
M  V30 27 1 17 22
M  V30 28 1 19 23
M  V30 29 2 21 24
M  V30 30 1 9 27
M  V30 31 1 9 28
M  V30 32 1 10 29
M  V30 33 1 10 30
M  V30 34 1 15 31
M  V30 35 1 16 32
M  V30 36 1 16 33
M  V30 37 1 17 34
M  V30 38 1 17 35
M  V30 39 1 18 36
M  V30 40 1 18 37
M  V30 41 1 21 38
M  V30 42 1 23 39
M  V30 43 1 24 40
M  V30 44 1 25 41
M  V30 45 1 25 42
M  V30 46 1 25 43
M  V30 47 1 26 44
M  V30 48 1 26 45
M  V30 49 1 26 46
M  V30 END BOND
M  V30 BEGIN COLLECTION
M  V30 MDLV30/STEABS ATOMS=(1 23)
M  V30 END COLLECTION
M  V30 END CTAB
M  END
>  <NO.>
5041

>  <Name>
ofloxacin

>  <SMILES>
C[C@@H]1COc2c(N3CCN(C)CC3)c(F)c(C(=O)O)c3c(=O)ccn1c23

>  <logBB>


>  <Class>
1

>  <MW>
361.14

>  <nHBAcc>
5

>  <nHBDon>
1

>  <SLogP>
1.54

>  <TopoPSA>
75.01

>  <MMFF94 Energy>
147.95

$$$$
C[N+]12CCC(CC1)[C@@H](OC(=O)C(O)(c1ccccc1)[C+]1CCCCC1)C2
Actelion Java MolfileCreator 2.0

  0  0  0  0  0  0              0 V3000
M  V30 BEGIN CTAB
M  V30 COUNTS 57 60 0 0 0
M  V30 BEGIN ATOM
M  V30 1 O -0.4801 0.9604 -1.2006 0
M  V30 2 C -0.0848 0.0975 -0.4231 0
M  V30 3 O 0.9014 0.3448 0.501 0
M  V30 4 C -0.5598 -1.408 -0.3516 0
M  V30 5 C 1.561 1.6152 0.3614 0 CFG=2
M  V30 6 O -0.6226 -1.8066 1.0263 0
M  V30 7 C 0.5138 -2.2288 -1.0827 0
M  V30 8 C -1.9589 -1.6112 -0.9208 0 CHG=1
M  V30 9 C 2.8223 1.587 1.2479 0
M  V30 10 C 0.6454 2.7786 0.805 0
M  V30 11 C 0.7406 -2.029 -2.4601 0
M  V30 12 C 1.3072 -3.1763 -0.4129 0
M  V30 13 C -3.0803 -0.6709 -0.5439 0
M  V30 14 C -2.4167 -3.0001 -1.3106 0
M  V30 15 C 3.4917 2.9652 1.191 0
M  V30 16 C 2.4191 1.3149 2.7053 0
M  V30 17 N 1.2102 3.415 2.1007 0 CHG=1
M  V30 18 C 1.722 -2.7537 -3.1387 0
M  V30 19 C 2.2885 -3.8996 -1.0947 0
M  V30 20 C -4.17 -0.6396 -1.6143 0
M  V30 21 C -3.5221 -2.9526 -2.3657 0
M  V30 22 C 2.581 4.0351 1.7976 0
M  V30 23 C 1.3653 2.3204 3.1681 0
M  V30 24 C 0.2563 4.4879 2.5983 0
M  V30 25 C 2.4954 -3.6879 -2.4554 0
M  V30 26 C -4.6732 -2.0408 -1.9503 0
M  V30 27 H 1.8591 1.7468 -0.687 0
M  V30 28 H -1.5486 -1.772 1.3122 0
M  V30 29 H 3.51 0.8047 0.9076 0
M  V30 30 H -0.3781 2.4574 1.026 0
M  V30 31 H 0.6269 3.5743 0.0519 0
M  V30 32 H 0.142 -1.3123 -3.0215 0
M  V30 33 H 1.1661 -3.3665 0.6492 0
M  V30 34 H -2.7232 0.3488 -0.382 0
M  V30 35 H -3.5147 -1.0028 0.4072 0
M  V30 36 H -2.7847 -3.5122 -0.413 0
M  V30 37 H -1.5986 -3.6076 -1.7061 0
M  V30 38 H 3.7313 3.2268 0.1532 0
M  V30 39 H 4.4462 2.9505 1.7309 0
M  V30 40 H 2.0344 0.2954 2.8255 0
M  V30 41 H 3.3008 1.3811 3.355 0
M  V30 42 H 1.8778 -2.5954 -4.2032 0
M  V30 43 H 2.8882 -4.6347 -0.5632 0
M  V30 44 H -3.7785 -0.1649 -2.523 0
M  V30 45 H -5.0071 -0.0226 -1.268 0
M  V30 46 H -3.1037 -2.5978 -3.3163 0
M  V30 47 H -3.902 -3.965 -2.5443 0
M  V30 48 H 2.4289 4.8699 1.1043 0
M  V30 49 H 2.9832 4.4205 2.7415 0
M  V30 50 H 0.3848 1.8483 3.2981 0
M  V30 51 H 1.6591 2.8036 4.1067 0
M  V30 52 H -0.7051 4.0183 2.8253 0
M  V30 53 H 0.6834 4.9396 3.4983 0
M  V30 54 H 0.1394 5.2388 1.8116 0
M  V30 55 H 3.2552 -4.2575 -2.985 0
M  V30 56 H -5.1837 -2.4673 -1.078 0
M  V30 57 H -5.4108 -1.9847 -2.7586 0
M  V30 END ATOM
M  V30 BEGIN BOND
M  V30 1 2 1 2
M  V30 2 1 2 3
M  V30 3 1 2 4
M  V30 4 1 3 5
M  V30 5 1 4 6
M  V30 6 1 4 7
M  V30 7 1 4 8
M  V30 8 1 5 9
M  V30 9 1 5 10
M  V30 10 2 7 11
M  V30 11 1 7 12
M  V30 12 1 8 13
M  V30 13 1 8 14
M  V30 14 1 9 15
M  V30 15 1 9 16
M  V30 16 1 10 17
M  V30 17 1 11 18
M  V30 18 2 12 19
M  V30 19 1 13 20
M  V30 20 1 14 21
M  V30 21 1 15 22
M  V30 22 1 16 23
M  V30 23 1 17 24
M  V30 24 2 18 25
M  V30 25 1 20 26
M  V30 26 1 17 22
M  V30 27 1 17 23
M  V30 28 1 19 25
M  V30 29 1 21 26
M  V30 30 1 5 27
M  V30 31 1 6 28
M  V30 32 1 9 29
M  V30 33 1 10 30
M  V30 34 1 10 31
M  V30 35 1 11 32
M  V30 36 1 12 33
M  V30 37 1 13 34
M  V30 38 1 13 35
M  V30 39 1 14 36
M  V30 40 1 14 37
M  V30 41 1 15 38
M  V30 42 1 15 39
M  V30 43 1 16 40
M  V30 44 1 16 41
M  V30 45 1 18 42
M  V30 46 1 19 43
M  V30 47 1 20 44
M  V30 48 1 20 45
M  V30 49 1 21 46
M  V30 50 1 21 47
M  V30 51 1 22 48
M  V30 52 1 22 49
M  V30 53 1 23 50
M  V30 54 1 23 51
M  V30 55 1 24 52
M  V30 56 1 24 53
M  V30 57 1 24 54
M  V30 58 1 25 55
M  V30 59 1 26 56
M  V30 60 1 26 57
M  V30 END BOND
M  V30 BEGIN COLLECTION
M  V30 MDLV30/STEABS ATOMS=(1 5)
M  V30 END COLLECTION
M  V30 END CTAB
M  END
>  <NO.>
5045

>  <Name>
clidiniumbromide

>  <SMILES>
C[N+]12CCC(CC1)[C@@H](OC(=O)C(O)(c1ccccc1)[C+]1CCCCC1)C2

>  <logBB>


>  <Class>
-1

>  <MW>
357.23

>  <nHBAcc>
3

>  <nHBDon>
1

>  <SLogP>
3.19

>  <TopoPSA>
46.53

>  <MMFF94 Energy>
120.57

$$$$
Cc1ccc(C(=O)NC[C@H]2CN=C(c3ccc(F)cc3)c3ccc(C)cc3N2C)cc1
Actelion Java MolfileCreator 2.0

  0  0  0  0  0  0              0 V3000
M  V30 BEGIN CTAB
M  V30 COUNTS 57 60 0 0 0
M  V30 BEGIN ATOM
M  V30 1 F 3.7552 -3.4352 -1.5966 0
M  V30 2 C 2.563 -2.9148 -1.2774 0
M  V30 3 C 1.4723 -3.143 -2.1098 0
M  V30 4 C 2.439 -2.144 -0.1264 0
M  V30 5 C 0.232 -2.5914 -1.785 0
M  V30 6 C 1.2001 -1.5915 0.2036 0
M  V30 7 C 0.0899 -1.8245 -0.6203 0
M  V30 8 C -1.2404 -1.2187 -0.3041 0
M  V30 9 N -1.9657 -0.8166 -1.3007 0
M  V30 10 C -1.647 -1.1123 1.1264 0
M  V30 11 C -3.2275 -0.1412 -0.9536 0
M  V30 12 C -2.0925 0.1074 1.6744 0
M  V30 13 C -1.5635 -2.2831 1.9024 0
M  V30 14 C -2.9707 1.2717 -0.3677 0 CFG=1
M  V30 15 N -2.2133 1.2754 0.9215 0
M  V30 16 C -2.4038 0.0935 3.0499 0
M  V30 17 C -1.8896 -2.2569 3.2543 0
M  V30 18 C -2.3066 2.1714 -1.4517 0
M  V30 19 C -2.0551 2.5624 1.5988 0
M  V30 20 C -2.296 -1.0622 3.8442 0
M  V30 21 N -0.9274 1.8059 -1.7213 0
M  V30 22 C -2.6835 -1.0212 5.2934 0
M  V30 23 C 0.1456 2.6067 -1.4195 0
M  V30 24 O 0.0487 3.7413 -0.9645 0
M  V30 25 C 1.4883 2.0007 -1.6371 0
M  V30 26 C 2.5446 2.4094 -0.8158 0
M  V30 27 C 1.7193 1.049 -2.6368 0
M  V30 28 C 3.816 1.8531 -0.9754 0
M  V30 29 C 2.9934 0.4978 -2.7973 0
M  V30 30 C 4.0513 0.8985 -1.972 0
M  V30 31 C 5.4049 0.2684 -2.1173 0
M  V30 32 H 1.5951 -3.7409 -3.0068 0
M  V30 33 H 3.3093 -1.9621 0.4957 0
M  V30 34 H -0.6219 -2.7591 -2.4373 0
M  V30 35 H 1.1196 -0.9608 1.0858 0
M  V30 36 H -3.8418 -0.756 -0.2833 0
M  V30 37 H -3.8152 -0.0469 -1.8748 0
M  V30 38 H -1.2496 -3.2224 1.4539 0
M  V30 39 H -3.9614 1.6977 -0.158 0
M  V30 40 H -2.7674 0.9994 3.5293 0
M  V30 41 H -1.8247 -3.1707 3.8401 0
M  V30 42 H -2.8484 2.0722 -2.3991 0
M  V30 43 H -2.3623 3.2266 -1.1684 0
M  V30 44 H -1.8554 3.376 0.899 0
M  V30 45 H -2.966 2.8258 2.1474 0
M  V30 46 H -1.2082 2.5423 2.2944 0
M  V30 47 H -0.7869 0.8261 -1.9481 0
M  V30 48 H -2.4355 -0.0504 5.7352 0
M  V30 49 H -2.1448 -1.7843 5.8649 0
M  V30 50 H -3.7587 -1.1953 5.3982 0
M  V30 51 H 2.3747 3.1559 -0.0428 0
M  V30 52 H 0.9236 0.7346 -3.3059 0
M  V30 53 H 4.6211 2.1729 -0.3177 0
M  V30 54 H 3.1546 -0.2498 -3.5708 0
M  V30 55 H 6.1946 0.9657 -1.8189 0
M  V30 56 H 5.5954 -0.0116 -3.1585 0
M  V30 57 H 5.4688 -0.6274 -1.4921 0
M  V30 END ATOM
M  V30 BEGIN BOND
M  V30 1 1 1 2
M  V30 2 2 2 3
M  V30 3 1 2 4
M  V30 4 1 3 5
M  V30 5 2 4 6
M  V30 6 2 5 7
M  V30 7 1 7 8
M  V30 8 2 8 9
M  V30 9 1 8 10
M  V30 10 1 9 11
M  V30 11 2 10 12
M  V30 12 1 10 13
M  V30 13 1 11 14
M  V30 14 1 12 15
M  V30 15 1 12 16
M  V30 16 2 13 17
M  V30 17 1 14 18
M  V30 18 1 15 19
M  V30 19 2 16 20
M  V30 20 1 18 21
M  V30 21 1 20 22
M  V30 22 1 21 23
M  V30 23 2 23 24
M  V30 24 1 23 25
M  V30 25 2 25 26
M  V30 26 1 25 27
M  V30 27 1 26 28
M  V30 28 2 27 29
M  V30 29 2 28 30
M  V30 30 1 30 31
M  V30 31 1 6 7
M  V30 32 1 14 15
M  V30 33 1 17 20
M  V30 34 1 29 30
M  V30 35 1 3 32
M  V30 36 1 4 33
M  V30 37 1 5 34
M  V30 38 1 6 35
M  V30 39 1 11 36
M  V30 40 1 11 37
M  V30 41 1 13 38
M  V30 42 1 14 39
M  V30 43 1 16 40
M  V30 44 1 17 41
M  V30 45 1 18 42
M  V30 46 1 18 43
M  V30 47 1 19 44
M  V30 48 1 19 45
M  V30 49 1 19 46
M  V30 50 1 21 47
M  V30 51 1 22 48
M  V30 52 1 22 49
M  V30 53 1 22 50
M  V30 54 1 26 51
M  V30 55 1 27 52
M  V30 56 1 28 53
M  V30 57 1 29 54
M  V30 58 1 31 55
M  V30 59 1 31 56
M  V30 60 1 31 57
M  V30 END BOND
M  V30 BEGIN COLLECTION
M  V30 MDLV30/STEABS ATOMS=(1 14)
M  V30 END COLLECTION
M  V30 END CTAB
M  END
>  <NO.>
5046

>  <Name>
chembl68870

>  <SMILES>
Cc1ccc(C(=O)NC[C@H]2CN=C(c3ccc(F)cc3)c3ccc(C)cc3N2C)cc1

>  <logBB>


>  <Class>
1

>  <MW>
415.21

>  <nHBAcc>
3

>  <nHBDon>
1

>  <SLogP>
4.53

>  <TopoPSA>
44.7

>  <MMFF94 Energy>
152.14

$$$$
O=C(c1ccccc1)c1ccc2n1CC[C@H]2C(=O)O
Actelion Java MolfileCreator 2.0

  0  0  0  0  0  0              0 V3000
M  V30 BEGIN CTAB
M  V30 COUNTS 32 34 0 0 0
M  V30 BEGIN ATOM
M  V30 1 O -0.5617 -0.1604 2.3287 0
M  V30 2 C 0.0992 -0.6045 1.3911 0
M  V30 3 C 0.9593 -1.7864 1.6637 0
M  V30 4 C 0.0694 -0.017 0.0631 0
M  V30 5 C 1.6767 -1.8297 2.8657 0
M  V30 6 C 1.0209 -2.868 0.7762 0
M  V30 7 N -0.8704 0.8727 -0.3518 0
M  V30 8 C 0.9341 -0.148 -1.0259 0
M  V30 9 C 2.4791 -2.9328 3.161 0
M  V30 10 C 1.8249 -3.9695 1.0761 0
M  V30 11 C -0.6628 1.2812 -1.6358 0
M  V30 12 C -2.0508 1.4675 0.2544 0
M  V30 13 C 0.462 0.6617 -2.1034 0
M  V30 14 C 2.5556 -3.9987 2.2644 0
M  V30 15 C -1.7126 2.2413 -2.064 0 CFG=1
M  V30 16 C -2.799 2.0177 -0.9742 0
M  V30 17 C -1.1788 3.6594 -2.0406 0
M  V30 18 O -1.3784 4.5068 -1.1842 0
M  V30 19 O -0.415 3.9504 -3.1153 0
M  V30 20 H 1.6102 -1.0046 3.5721 0
M  V30 21 H 0.4361 -2.8708 -0.1401 0
M  V30 22 H 1.8301 -0.756 -1.05 0
M  V30 23 H 3.0391 -2.9627 4.0924 0
M  V30 24 H 1.875 -4.8095 0.3874 0
M  V30 25 H -2.6222 0.702 0.7841 0
M  V30 26 H -1.7136 2.26 0.9287 0
M  V30 27 H 0.9099 0.7775 -3.082 0
M  V30 28 H 3.1785 -4.8592 2.4976 0
M  V30 29 H -2.1241 2.0243 -3.0544 0
M  V30 30 H -3.5023 1.2518 -1.3288 0
M  V30 31 H -3.3845 2.9106 -0.7339 0
M  V30 32 H -0.1112 4.8666 -2.9473 0
M  V30 END ATOM
M  V30 BEGIN BOND
M  V30 1 2 1 2
M  V30 2 1 2 3
M  V30 3 1 2 4
M  V30 4 2 3 5
M  V30 5 1 3 6
M  V30 6 1 4 7
M  V30 7 2 4 8
M  V30 8 1 5 9
M  V30 9 2 6 10
M  V30 10 1 7 11
M  V30 11 1 7 12
M  V30 12 1 8 13
M  V30 13 2 9 14
M  V30 14 1 11 15
M  V30 15 1 12 16
M  V30 16 1 15 17
M  V30 17 2 17 18
M  V30 18 1 17 19
M  V30 19 1 10 14
M  V30 20 2 11 13
M  V30 21 1 15 16
M  V30 22 1 5 20
M  V30 23 1 6 21
M  V30 24 1 8 22
M  V30 25 1 9 23
M  V30 26 1 10 24
M  V30 27 1 12 25
M  V30 28 1 12 26
M  V30 29 1 13 27
M  V30 30 1 14 28
M  V30 31 1 15 29
M  V30 32 1 16 30
M  V30 33 1 16 31
M  V30 34 1 19 32
M  V30 END BOND
M  V30 BEGIN COLLECTION
M  V30 MDLV30/STEABS ATOMS=(1 15)
M  V30 END COLLECTION
M  V30 END CTAB
M  END
>  <NO.>
5056

>  <Name>
(r)-ketorolac

>  <SMILES>
O=C(c1ccccc1)c1ccc2n1CC[C@H]2C(=O)O

>  <logBB>


>  <Class>
-1

>  <MW>
255.09

>  <nHBAcc>
2

>  <nHBDon>
1

>  <SLogP>
2.29

>  <TopoPSA>
59.3

>  <MMFF94 Energy>
58.824

$$$$
C#CC1(O)CCC2C3CCC4=Cc5oncc5CC4(C)C3CCC21C
Actelion Java MolfileCreator 2.0

  0  0  0  0  0  0              0 V3000
M  V30 BEGIN CTAB
M  V30 COUNTS 52 56 0 0 0
M  V30 BEGIN ATOM
M  V30 1 O 1.8614 4.3744 3.7254 0
M  V30 2 N 0.7521 5.1558 4.0211 0
M  V30 3 C 1.4804 3.2909 2.9845 0
M  V30 4 C -0.2814 4.5372 3.446 0
M  V30 5 C 0.1198 3.3683 2.7846 0
M  V30 6 C 2.306 2.2511 2.5066 0
M  V30 7 C -0.6174 2.372 1.9741 0
M  V30 8 C 1.7155 1.1662 1.9602 0
M  V30 9 C 0.172 1.0067 1.8117 0
M  V30 10 C 2.5611 -0.0044 1.5236 0
M  V30 11 C -0.1644 0.4193 0.3847 0
M  V30 12 C -0.288 0.0658 2.9537 0
M  V30 13 C 2.2057 -0.455 0.1145 0
M  V30 14 C 0.7128 -0.7966 -0.0071 0
M  V30 15 C -1.6564 0.0701 0.2091 0
M  V30 16 C 0.3864 -1.3559 -1.4103 0
M  V30 17 C -1.9731 -0.4146 -1.2059 0
M  V30 18 C -1.1154 -1.6305 -1.6556 0
M  V30 19 C 0.8069 -0.4662 -2.5979 0
M  V30 20 C -1.1579 -1.809 -3.2059 0
M  V30 21 C -1.6035 -2.8829 -0.8993 0
M  V30 22 C -0.2094 -0.7137 -3.7195 0
M  V30 23 O -2.4692 -1.5969 -3.7107 0
M  V30 24 C -0.6908 -3.1333 -3.6743 0
M  V30 25 C -0.3174 -4.2045 -4.0701 0
M  V30 26 H -1.2664 4.9736 3.5323 0
M  V30 27 H 3.3796 2.333 2.6369 0
M  V30 28 H -0.7809 2.8279 0.9883 0
M  V30 29 H -1.6113 2.1994 2.4046 0
M  V30 30 H 2.4182 -0.8351 2.2251 0
M  V30 31 H 3.6288 0.2446 1.5549 0
M  V30 32 H 0.0615 1.2187 -0.336 0
M  V30 33 H -1.3783 -0.0305 2.9882 0
M  V30 34 H 0.1249 -0.9427 2.8544 0
M  V30 35 H 0.025 0.4501 3.9322 0
M  V30 36 H 2.4796 0.3365 -0.5938 0
M  V30 37 H 2.8097 -1.3337 -0.142 0
M  V30 38 H 0.5036 -1.606 0.7054 0
M  V30 39 H -1.9612 -0.6953 0.9293 0
M  V30 40 H -2.2792 0.9485 0.4119 0
M  V30 41 H 0.9387 -2.3021 -1.5125 0
M  V30 42 H -1.8328 0.4343 -1.8858 0
M  V30 43 H -3.0395 -0.6683 -1.2624 0
M  V30 44 H 1.8199 -0.7231 -2.9276 0
M  V30 45 H 0.8129 0.5988 -2.3457 0
M  V30 46 H -2.6316 -3.1336 -1.1834 0
M  V30 47 H -0.9764 -3.7567 -1.1038 0
M  V30 48 H -1.5849 -2.7428 0.1855 0
M  V30 49 H -0.7562 0.2125 -3.9358 0
M  V30 50 H 0.2964 -0.9905 -4.6522 0
M  V30 51 H -2.4374 -1.7795 -4.6653 0
M  V30 52 H 0.0099 -5.1575 -4.4171 0
M  V30 END ATOM
M  V30 BEGIN BOND
M  V30 1 1 1 2
M  V30 2 1 1 3
M  V30 3 2 2 4
M  V30 4 2 3 5
M  V30 5 1 3 6
M  V30 6 1 5 7
M  V30 7 2 6 8
M  V30 8 1 7 9
M  V30 9 1 8 10
M  V30 10 1 9 11
M  V30 11 1 9 12
M  V30 12 1 10 13
M  V30 13 1 11 14
M  V30 14 1 11 15
M  V30 15 1 14 16
M  V30 16 1 15 17
M  V30 17 1 16 18
M  V30 18 1 16 19
M  V30 19 1 18 20
M  V30 20 1 18 21
M  V30 21 1 19 22
M  V30 22 1 20 23
M  V30 23 1 20 24
M  V30 24 3 24 25
M  V30 25 1 4 5
M  V30 26 1 8 9
M  V30 27 1 13 14
M  V30 28 1 17 18
M  V30 29 1 20 22
M  V30 30 1 4 26
M  V30 31 1 6 27
M  V30 32 1 7 28
M  V30 33 1 7 29
M  V30 34 1 10 30
M  V30 35 1 10 31
M  V30 36 1 11 32
M  V30 37 1 12 33
M  V30 38 1 12 34
M  V30 39 1 12 35
M  V30 40 1 13 36
M  V30 41 1 13 37
M  V30 42 1 14 38
M  V30 43 1 15 39
M  V30 44 1 15 40
M  V30 45 1 16 41
M  V30 46 1 17 42
M  V30 47 1 17 43
M  V30 48 1 19 44
M  V30 49 1 19 45
M  V30 50 1 21 46
M  V30 51 1 21 47
M  V30 52 1 21 48
M  V30 53 1 22 49
M  V30 54 1 22 50
M  V30 55 1 23 51
M  V30 56 1 25 52
M  V30 END BOND
M  V30 END CTAB
M  END
>  <NO.>
5068

>  <Name>
mls003115428

>  <SMILES>
C#CC1(O)CCC2C3CCC4=Cc5oncc5CC4(C)C3CCC21C

>  <logBB>


>  <Class>
-1

>  <MW>
337.2

>  <nHBAcc>
3

>  <nHBDon>
1

>  <SLogP>
4.22

>  <TopoPSA>
46.26

>  <MMFF94 Energy>
77.47

$$$$
C1COC(NC(C2CC2)C2CC2)=N1
Actelion Java MolfileCreator 2.0

  0  0  0  0  0  0              0 V3000
M  V30 BEGIN CTAB
M  V30 COUNTS 29 31 0 0 0
M  V30 BEGIN ATOM
M  V30 1 O 1.3451 1.6618 1.5826 0
M  V30 2 C 0.6864 0.897 0.671 0
M  V30 3 C 1.4955 2.9267 0.9589 0
M  V30 4 N 0.5323 1.3688 -0.5157 0
M  V30 5 N 0.2976 -0.2671 1.2274 0
M  V30 6 C 1.2447 2.646 -0.5001 0
M  V30 7 C -0.4245 -1.3904 0.6844 0
M  V30 8 C -1.8782 -1.1531 0.3516 0
M  V30 9 C 0.2971 -2.2102 -0.358 0
M  V30 10 C -2.6404 0.0828 0.7744 0
M  V30 11 C -2.3657 -0.1694 -0.6836 0
M  V30 12 C 0.7287 -1.6839 -1.7047 0
M  V30 13 C 1.7664 -2.0502 -0.6781 0
M  V30 14 H 0.7577 3.618 1.3798 0
M  V30 15 H 2.4985 3.3242 1.1387 0
M  V30 16 H 0.5667 -0.3624 2.1963 0
M  V30 17 H 2.1853 2.5448 -1.0526 0
M  V30 18 H 0.658 3.4419 -0.9687 0
M  V30 19 H -0.4813 -2.0807 1.539 0
M  V30 20 H -2.4213 -2.0946 0.3901 0
M  V30 21 H -0.0918 -3.2259 -0.3589 0
M  V30 22 H -2.1152 0.9045 1.2458 0
M  V30 23 H -3.6573 -0.0451 1.1274 0
M  V30 24 H -1.653 0.4666 -1.1904 0
M  V30 25 H -3.1967 -0.4679 -1.3128 0
M  V30 26 H 0.6116 -2.3354 -2.5634 0
M  V30 27 H 0.583 -0.638 -1.9386 0
M  V30 28 H 2.349 -2.9488 -0.8455 0
M  V30 29 H 2.3309 -1.2419 -0.2294 0
M  V30 END ATOM
M  V30 BEGIN BOND
M  V30 1 1 1 2
M  V30 2 1 1 3
M  V30 3 2 2 4
M  V30 4 1 2 5
M  V30 5 1 3 6
M  V30 6 1 5 7
M  V30 7 1 7 8
M  V30 8 1 7 9
M  V30 9 1 8 10
M  V30 10 1 8 11
M  V30 11 1 9 12
M  V30 12 1 9 13
M  V30 13 1 4 6
M  V30 14 1 10 11
M  V30 15 1 12 13
M  V30 16 1 3 14
M  V30 17 1 3 15
M  V30 18 1 5 16
M  V30 19 1 6 17
M  V30 20 1 6 18
M  V30 21 1 7 19
M  V30 22 1 8 20
M  V30 23 1 9 21
M  V30 24 1 10 22
M  V30 25 1 10 23
M  V30 26 1 11 24
M  V30 27 1 11 25
M  V30 28 1 12 26
M  V30 29 1 12 27
M  V30 30 1 13 28
M  V30 31 1 13 29
M  V30 END BOND
M  V30 END CTAB
M  END
>  <NO.>
5073

>  <Name>
rilmenidine

>  <SMILES>
C1COC(NC(C2CC2)C2CC2)=N1

>  <logBB>


>  <Class>
-1

>  <MW>
180.13

>  <nHBAcc>
3

>  <nHBDon>
1

>  <SLogP>
1.15

>  <TopoPSA>
33.62

>  <MMFF94 Energy>
-24.559

$$$$
C=CCN1CCc2nc(N)sc2CC1
Actelion Java MolfileCreator 2.0

  0  0  0  0  0  0              0 V3000
M  V30 BEGIN CTAB
M  V30 COUNTS 29 30 0 0 0
M  V30 BEGIN ATOM
M  V30 1 S 1.2808 0.8804 -3.2045 0
M  V30 2 C 2.1677 -0.5738 -3.0123 0
M  V30 3 C 0.5459 0.6319 -1.6772 0
M  V30 4 N 1.9511 -1.2166 -1.893 0
M  V30 5 N 3.0165 -1.0037 -3.95 0
M  V30 6 C 1.0232 -0.5383 -1.1179 0
M  V30 7 C -0.442 1.6045 -1.1227 0
M  V30 8 C 0.6467 -1.1101 0.2075 0
M  V30 9 C -1.7057 0.9242 -0.5673 0
M  V30 10 C -0.8689 -1.1522 0.4535 0
M  V30 11 N -1.5813 0.1228 0.6623 0
M  V30 12 C -1.1088 0.9071 1.8058 0
M  V30 13 C -1.369 0.2103 3.1099 0
M  V30 14 C -0.433 -0.0623 4.0288 0
M  V30 15 H 3.5233 -1.8662 -3.8034 0
M  V30 16 H 3.1737 -0.4973 -4.8091 0
M  V30 17 H 0.0421 2.2175 -0.354 0
M  V30 18 H -0.7604 2.3033 -1.9071 0
M  V30 19 H 1.1644 -0.5619 1.0018 0
M  V30 20 H 1.0229 -2.14 0.2608 0
M  V30 21 H -2.4463 1.7113 -0.3719 0
M  V30 22 H -2.1613 0.3039 -1.3511 0
M  V30 23 H -1.3536 -1.6904 -0.3726 0
M  V30 24 H -1.046 -1.7894 1.3293 0
M  V30 25 H -1.6669 1.8516 1.8496 0
M  V30 26 H -0.052 1.1795 1.7103 0
M  V30 27 H -2.4001 -0.0782 3.3029 0
M  V30 28 H 0.6079 0.2072 3.8824 0
M  V30 29 H -0.6958 -0.5689 4.9524 0
M  V30 END ATOM
M  V30 BEGIN BOND
M  V30 1 1 1 2
M  V30 2 1 1 3
M  V30 3 2 2 4
M  V30 4 1 2 5
M  V30 5 2 3 6
M  V30 6 1 3 7
M  V30 7 1 6 8
M  V30 8 1 7 9
M  V30 9 1 8 10
M  V30 10 1 9 11
M  V30 11 1 11 12
M  V30 12 1 12 13
M  V30 13 2 13 14
M  V30 14 1 4 6
M  V30 15 1 10 11
M  V30 16 1 5 15
M  V30 17 1 5 16
M  V30 18 1 7 17
M  V30 19 1 7 18
M  V30 20 1 8 19
M  V30 21 1 8 20
M  V30 22 1 9 21
M  V30 23 1 9 22
M  V30 24 1 10 23
M  V30 25 1 10 24
M  V30 26 1 12 25
M  V30 27 1 12 26
M  V30 28 1 13 27
M  V30 29 1 14 28
M  V30 30 1 14 29
M  V30 END BOND
M  V30 END CTAB
M  END
>  <NO.>
5079

>  <Name>
talipexole

>  <SMILES>
C=CCN1CCc2nc(N)sc2CC1

>  <logBB>


>  <Class>
1

>  <MW>
209.1

>  <nHBAcc>
4

>  <nHBDon>
1

>  <SLogP>
1.31

>  <TopoPSA>
42.15

>  <MMFF94 Energy>
-5.463

$$$$
CC(=Cc1ccccc1)C=C1SC(=S)N(CC(=O)O)C1=O
Actelion Java MolfileCreator 2.0

  0  0  0  0  0  0              0 V3000
M  V30 BEGIN CTAB
M  V30 COUNTS 34 35 0 0 0
M  V30 BEGIN ATOM
M  V30 1 S 0.0817 -4.9112 2.617 0
M  V30 2 C 0.0487 -3.5053 1.7201 0
M  V30 3 S 1.1197 -2.1541 2.0554 0
M  V30 4 N -0.7578 -3.2005 0.6493 0
M  V30 5 C 0.4643 -1.1818 0.8036 0
M  V30 6 C -0.6133 -1.9406 0.1005 0
M  V30 7 C -1.8 -4.0749 0.1127 0
M  V30 8 C 0.7772 0.0658 0.4174 0
M  V30 9 O -1.2736 -1.4966 -0.8291 0
M  V30 10 C -3.1419 -3.8606 0.7947 0
M  V30 11 C 1.7654 1.0344 0.9065 0
M  V30 12 O -4.1723 -4.4579 0.5215 0
M  V30 13 O -3.141 -2.939 1.7794 0
M  V30 14 C 1.9101 2.2574 0.3485 0
M  V30 15 C 2.6624 0.686 2.0669 0
M  V30 16 C 1.1508 2.8051 -0.7798 0
M  V30 17 C 1.6116 2.6282 -2.0884 0
M  V30 18 C -0.0419 3.4998 -0.554 0
M  V30 19 C 0.8839 3.1427 -3.1628 0
M  V30 20 C -0.768 4.0133 -1.63 0
M  V30 21 C -0.3048 3.8347 -2.9332 0
M  V30 22 H -1.5157 -5.1226 0.2397 0
M  V30 23 H -1.9341 -3.8666 -0.9538 0
M  V30 24 H 0.1873 0.442 -0.4225 0
M  V30 25 H -4.0699 -2.9243 2.0956 0
M  V30 26 H 2.6537 2.9522 0.7359 0
M  V30 27 H 3.3445 1.5057 2.3221 0
M  V30 28 H 3.293 -0.176 1.8285 0
M  V30 29 H 2.075 0.4829 2.968 0
M  V30 30 H 2.5348 2.0863 -2.2779 0
M  V30 31 H -0.4137 3.6402 0.4579 0
M  V30 32 H 1.2428 3.0012 -4.1788 0
M  V30 33 H -1.6962 4.5499 -1.4518 0
M  V30 34 H -0.8722 4.2326 -3.7705 0
M  V30 END ATOM
M  V30 BEGIN BOND
M  V30 1 2 1 2
M  V30 2 1 2 3
M  V30 3 1 2 4
M  V30 4 1 3 5
M  V30 5 1 4 6
M  V30 6 1 4 7
M  V30 7 2 5 8
M  V30 8 2 6 9
M  V30 9 1 7 10
M  V30 10 1 8 11
M  V30 11 2 10 12
M  V30 12 1 10 13
M  V30 13 2 11 14
M  V30 14 1 11 15
M  V30 15 1 14 16
M  V30 16 2 16 17
M  V30 17 1 16 18
M  V30 18 1 17 19
M  V30 19 2 18 20
M  V30 20 2 19 21
M  V30 21 1 5 6
M  V30 22 1 20 21
M  V30 23 1 7 22
M  V30 24 1 7 23
M  V30 25 1 8 24
M  V30 26 1 13 25
M  V30 27 1 14 26
M  V30 28 1 15 27
M  V30 29 1 15 28
M  V30 30 1 15 29
M  V30 31 1 17 30
M  V30 32 1 18 31
M  V30 33 1 19 32
M  V30 34 1 20 33
M  V30 35 1 21 34
M  V30 END BOND
M  V30 END CTAB
M  END
>  <NO.>
5081

>  <Name>
epalrestat

>  <SMILES>
CC(=Cc1ccccc1)C=C1SC(=S)N(CC(=O)O)C1=O

>  <logBB>


>  <Class>
-1

>  <MW>
319.03

>  <nHBAcc>
4

>  <nHBDon>
1

>  <SLogP>
2.92

>  <TopoPSA>
57.61

>  <MMFF94 Energy>
-9.4632

$$$$
CC(=O)C1(O)CCC2C3C=C(C)C4=CC(=O)CCC4(C)C3CCC21C
Actelion Java MolfileCreator 2.0

  0  0  0  0  0  0              0 V3000
M  V30 BEGIN CTAB
M  V30 COUNTS 55 58 0 0 0
M  V30 BEGIN ATOM
M  V30 1 O -1.2868 4.9934 -3.5418 0
M  V30 2 C -1.3861 3.9196 -2.9511 0
M  V30 3 C -0.8181 3.7908 -1.5864 0
M  V30 4 C -2.1192 2.7479 -3.5505 0
M  V30 5 C -0.9314 2.6675 -0.851 0
M  V30 6 C -1.6093 1.44 -2.9612 0
M  V30 7 C -0.412 2.5832 0.5242 0
M  V30 8 C -1.6289 1.4143 -1.4055 0
M  V30 9 C -0.4237 1.4243 1.2105 0
M  V30 10 C 0.1055 3.8307 1.1998 0
M  V30 11 C -0.9332 0.0991 -0.8738 0
M  V30 12 C -3.113 1.4369 -0.9429 0
M  V30 13 C -0.8978 0.0925 0.6765 0
M  V30 14 C 0.478 -0.1351 -1.4636 0
M  V30 15 C -0.0935 -1.0803 1.2821 0
M  V30 16 C 1.1752 -1.3672 -0.8894 0
M  V30 17 C 1.2881 -1.367 0.6585 0
M  V30 18 C -0.8351 -2.4269 1.1665 0
M  V30 19 C 1.5966 -2.8063 1.1944 0
M  V30 20 C 2.3682 -0.3474 1.0665 0
M  V30 21 C 0.2352 -3.5226 1.1349 0
M  V30 22 O 2.5152 -3.4777 0.3332 0
M  V30 23 C 2.1106 -2.9082 2.6601 0
M  V30 24 O 1.8537 -2.0711 3.5265 0
M  V30 25 C 2.9161 -4.1357 3.0173 0
M  V30 26 H -0.3321 4.6927 -1.2332 0
M  V30 27 H -1.9378 2.7453 -4.6313 0
M  V30 28 H -3.1929 2.8819 -3.3913 0
M  V30 29 H -2.1926 0.6028 -3.3638 0
M  V30 30 H -0.5861 1.3182 -3.3338 0
M  V30 31 H -0.0841 1.4247 2.2461 0
M  V30 32 H 0.9921 4.212 0.6822 0
M  V30 33 H 0.397 3.6466 2.2401 0
M  V30 34 H -0.6629 4.6112 1.217 0
M  V30 35 H -1.5506 -0.7497 -1.1996 0
M  V30 36 H -3.2178 1.4586 0.1463 0
M  V30 37 H -3.6473 0.5533 -1.31 0
M  V30 38 H -3.6463 2.321 -1.3079 0
M  V30 39 H -1.9232 -0.028 1.0513 0
M  V30 40 H 1.111 0.7484 -1.3324 0
M  V30 41 H 0.4058 -0.302 -2.5437 0
M  V30 42 H 0.0264 -0.8854 2.3565 0
M  V30 43 H 0.6255 -2.2503 -1.2383 0
M  V30 44 H 2.1739 -1.4444 -1.3385 0
M  V30 45 H -1.4449 -2.489 0.2591 0
M  V30 46 H -1.5155 -2.5652 2.0144 0
M  V30 47 H 2.372 -0.1522 2.1422 0
M  V30 48 H 3.3664 -0.7022 0.7879 0
M  V30 49 H 2.2285 0.6227 0.5819 0
M  V30 50 H 0.1348 -4.1186 0.2197 0
M  V30 51 H 0.0869 -4.2162 1.9707 0
M  V30 52 H 3.3042 -2.915 0.2407 0
M  V30 53 H 3.0815 -4.1626 4.0984 0
M  V30 54 H 2.3712 -5.0377 2.7289 0
M  V30 55 H 3.8861 -4.0997 2.5159 0
M  V30 END ATOM
M  V30 BEGIN BOND
M  V30 1 2 1 2
M  V30 2 1 2 3
M  V30 3 1 2 4
M  V30 4 2 3 5
M  V30 5 1 4 6
M  V30 6 1 5 7
M  V30 7 1 5 8
M  V30 8 2 7 9
M  V30 9 1 7 10
M  V30 10 1 8 11
M  V30 11 1 8 12
M  V30 12 1 9 13
M  V30 13 1 11 14
M  V30 14 1 13 15
M  V30 15 1 14 16
M  V30 16 1 15 17
M  V30 17 1 15 18
M  V30 18 1 17 19
M  V30 19 1 17 20
M  V30 20 1 18 21
M  V30 21 1 19 22
M  V30 22 1 19 23
M  V30 23 2 23 24
M  V30 24 1 23 25
M  V30 25 1 6 8
M  V30 26 1 11 13
M  V30 27 1 16 17
M  V30 28 1 19 21
M  V30 29 1 3 26
M  V30 30 1 4 27
M  V30 31 1 4 28
M  V30 32 1 6 29
M  V30 33 1 6 30
M  V30 34 1 9 31
M  V30 35 1 10 32
M  V30 36 1 10 33
M  V30 37 1 10 34
M  V30 38 1 11 35
M  V30 39 1 12 36
M  V30 40 1 12 37
M  V30 41 1 12 38
M  V30 42 1 13 39
M  V30 43 1 14 40
M  V30 44 1 14 41
M  V30 45 1 15 42
M  V30 46 1 16 43
M  V30 47 1 16 44
M  V30 48 1 18 45
M  V30 49 1 18 46
M  V30 50 1 20 47
M  V30 51 1 20 48
M  V30 52 1 20 49
M  V30 53 1 21 50
M  V30 54 1 21 51
M  V30 55 1 22 52
M  V30 56 1 25 53
M  V30 57 1 25 54
M  V30 58 1 25 55
M  V30 END BOND
M  V30 END CTAB
M  END
>  <NO.>
5082

>  <Name>
megestrol acetate

>  <SMILES>
CC(=O)C1(O)CCC2C3C=C(C)C4=CC(=O)CCC4(C)C3CCC21C

>  <logBB>


>  <Class>
-1

>  <MW>
342.22

>  <nHBAcc>
3

>  <nHBDon>
1

>  <SLogP>
4

>  <TopoPSA>
54.37

>  <MMFF94 Energy>
97.249

$$$$
CC(=O)C1(O)CCC2C3CC(C)C4=CC(=O)CCC4(C)C3CCC21C
Actelion Java MolfileCreator 2.0

  0  0  0  0  0  0              0 V3000
M  V30 BEGIN CTAB
M  V30 COUNTS 57 60 0 0 0
M  V30 BEGIN ATOM
M  V30 1 O -2.1699 4.1018 -4.1824 0
M  V30 2 C -1.7232 3.5869 -3.1601 0
M  V30 3 C -0.5371 2.7012 -3.2508 0
M  V30 4 C -2.2944 3.878 -1.7971 0
M  V30 5 C 0.0299 2.1325 -2.1675 0
M  V30 6 C -2.0566 2.6914 -0.8723 0
M  V30 7 C -0.5558 2.2812 -0.7571 0
M  V30 8 C 1.3111 1.3376 -2.3574 0
M  V30 9 C -0.4061 0.9709 0.1195 0
M  V30 10 C 0.1865 3.4367 -0.0312 0
M  V30 11 C 1.3485 0.0745 -1.4933 0
M  V30 12 C 2.5661 2.1978 -2.1717 0
M  V30 13 C 1.0011 0.3297 -0.0167 0
M  V30 14 C -1.495 -0.1016 -0.0948 0
M  V30 15 C 1.1759 -0.9535 0.8313 0
M  V30 16 C -1.3427 -1.2765 0.8771 0
M  V30 17 C 0.0243 -1.9952 0.801 0
M  V30 18 C 1.3549 -0.6226 2.3301 0
M  V30 19 C 0.3495 -2.839 2.0856 0
M  V30 20 C 0.058 -2.879 -0.4609 0
M  V30 21 C 0.7482 -1.7808 3.1249 0
M  V30 22 O 1.5274 -3.6323 1.8893 0
M  V30 23 C -0.8323 -3.6926 2.6161 0
M  V30 24 O -1.8386 -3.1913 3.1229 0
M  V30 25 C -0.7274 -5.1912 2.4818 0
M  V30 26 H -0.1254 2.5964 -4.2493 0
M  V30 27 H -3.3732 4.0391 -1.902 0
M  V30 28 H -1.8485 4.7995 -1.4117 0
M  V30 29 H -2.4715 2.9097 0.1194 0
M  V30 30 H -2.6428 1.8625 -1.2878 0
M  V30 31 H 1.3467 0.9878 -3.3999 0
M  V30 32 H -0.5221 1.2931 1.1645 0
M  V30 33 H 0.2742 4.3307 -0.6586 0
M  V30 34 H -0.3451 3.7264 0.8831 0
M  V30 35 H 1.1991 3.1629 0.2732 0
M  V30 36 H 0.6516 -0.6429 -1.9326 0
M  V30 37 H 2.3416 -0.387 -1.5668 0
M  V30 38 H 2.5179 3.1035 -2.7864 0
M  V30 39 H 2.7229 2.5035 -1.1352 0
M  V30 40 H 3.4563 1.6388 -2.4814 0
M  V30 41 H 1.7421 1.0441 0.363 0
M  V30 42 H -1.5069 -0.4491 -1.1325 0
M  V30 43 H -2.4856 0.321 0.1048 0
M  V30 44 H 2.1069 -1.4443 0.5118 0
M  V30 45 H -2.1526 -1.9925 0.6876 0
M  V30 46 H -1.5168 -0.8845 1.8866 0
M  V30 47 H 2.4194 -0.5057 2.564 0
M  V30 48 H 0.8662 0.3137 2.6187 0
M  V30 49 H -0.3532 -2.3772 -1.3391 0
M  V30 50 H 1.0759 -3.1921 -0.7154 0
M  V30 51 H -0.5458 -3.7816 -0.3188 0
M  V30 52 H -0.1103 -1.4125 3.6981 0
M  V30 53 H 1.4748 -2.1674 3.8492 0
M  V30 54 H 1.3904 -4.2323 1.1383 0
M  V30 55 H -0.6026 -5.4656 1.4323 0
M  V30 56 H 0.1131 -5.5576 3.076 0
M  V30 57 H -1.6447 -5.6568 2.8541 0
M  V30 END ATOM
M  V30 BEGIN BOND
M  V30 1 2 1 2
M  V30 2 1 2 3
M  V30 3 1 2 4
M  V30 4 2 3 5
M  V30 5 1 4 6
M  V30 6 1 5 7
M  V30 7 1 5 8
M  V30 8 1 7 9
M  V30 9 1 7 10
M  V30 10 1 8 11
M  V30 11 1 8 12
M  V30 12 1 9 13
M  V30 13 1 9 14
M  V30 14 1 13 15
M  V30 15 1 14 16
M  V30 16 1 15 17
M  V30 17 1 15 18
M  V30 18 1 17 19
M  V30 19 1 17 20
M  V30 20 1 18 21
M  V30 21 1 19 22
M  V30 22 1 19 23
M  V30 23 2 23 24
M  V30 24 1 23 25
M  V30 25 1 6 7
M  V30 26 1 11 13
M  V30 27 1 16 17
M  V30 28 1 19 21
M  V30 29 1 3 26
M  V30 30 1 4 27
M  V30 31 1 4 28
M  V30 32 1 6 29
M  V30 33 1 6 30
M  V30 34 1 8 31
M  V30 35 1 9 32
M  V30 36 1 10 33
M  V30 37 1 10 34
M  V30 38 1 10 35
M  V30 39 1 11 36
M  V30 40 1 11 37
M  V30 41 1 12 38
M  V30 42 1 12 39
M  V30 43 1 12 40
M  V30 44 1 13 41
M  V30 45 1 14 42
M  V30 46 1 14 43
M  V30 47 1 15 44
M  V30 48 1 16 45
M  V30 49 1 16 46
M  V30 50 1 18 47
M  V30 51 1 18 48
M  V30 52 1 20 49
M  V30 53 1 20 50
M  V30 54 1 20 51
M  V30 55 1 21 52
M  V30 56 1 21 53
M  V30 57 1 22 54
M  V30 58 1 25 55
M  V30 59 1 25 56
M  V30 60 1 25 57
M  V30 END BOND
M  V30 END CTAB
M  END
>  <NO.>
5083

>  <Name>
medroxyprogesterone

>  <SMILES>
CC(=O)C1(O)CCC2C3CC(C)C4=CC(=O)CCC4(C)C3CCC21C

>  <logBB>


>  <Class>
-1

>  <MW>
344.24

>  <nHBAcc>
3

>  <nHBDon>
1

>  <SLogP>
4.08

>  <TopoPSA>
54.37

>  <MMFF94 Energy>
113.35

$$$$
CC(=O)C1CCC2C3C=CC4=CC(=O)CCC4(C)C3CCC12C
Actelion Java MolfileCreator 2.0

  0  0  0  0  0  0              0 V3000
M  V30 BEGIN CTAB
M  V30 COUNTS 51 54 0 0 0
M  V30 BEGIN ATOM
M  V30 1 O -4.7541 -0.3217 4.3506 0
M  V30 2 C -3.8172 -0.3793 3.5571 0
M  V30 3 C -3.935 0.3041 2.25 0
M  V30 4 C -2.5707 -1.1719 3.8528 0
M  V30 5 C -2.9695 0.2233 1.3188 0
M  V30 6 C -1.3792 -0.6715 3.0442 0
M  V30 7 C -3.1426 0.924 0.0588 0
M  V30 8 C -1.6651 -0.5599 1.5204 0
M  V30 9 C -2.172 1.0374 -0.8574 0
M  V30 10 C -0.4913 0.2194 0.8219 0
M  V30 11 C -1.8398 -1.9801 0.9321 0
M  V30 12 C -0.7757 0.4871 -0.6798 0
M  V30 13 C 0.889 -0.4395 0.959 0
M  V30 14 C 0.3057 1.4251 -1.2924 0
M  V30 15 C 1.9785 0.487 0.4274 0
M  V30 16 C 1.7692 0.9647 -1.0214 0
M  V30 17 C 0.2466 1.4401 -2.8307 0
M  V30 18 C 1.9561 -0.1606 -2.0762 0
M  V30 19 C 2.7448 2.1443 -1.2589 0
M  V30 20 C 1.1186 0.2729 -3.2925 0
M  V30 21 C 3.4022 -0.4703 -2.4602 0
M  V30 22 O 4.0339 0.2156 -3.2636 0
M  V30 23 C 4.0442 -1.6626 -1.7981 0
M  V30 24 H -4.853 0.8634 2.1054 0
M  V30 25 H -2.3432 -1.0701 4.9199 0
M  V30 26 H -2.7758 -2.2278 3.6506 0
M  V30 27 H -0.5359 -1.345 3.2348 0
M  V30 28 H -1.0871 0.3141 3.4327 0
M  V30 29 H -4.112 1.3748 -0.1489 0
M  V30 30 H -2.4099 1.5523 -1.7847 0
M  V30 31 H -0.4252 1.2 1.3221 0
M  V30 32 H -0.9632 -2.6048 1.1328 0
M  V30 33 H -2.7073 -2.494 1.3615 0
M  V30 34 H -1.9976 -1.9669 -0.1507 0
M  V30 35 H -0.7457 -0.4643 -1.226 0
M  V30 36 H 1.1185 -0.6493 2.0083 0
M  V30 37 H 0.9192 -1.3991 0.4328 0
M  V30 38 H 0.143 2.4403 -0.9061 0
M  V30 39 H 2.0182 1.3624 1.0908 0
M  V30 40 H 2.951 -0.0059 0.5303 0
M  V30 41 H -0.7625 1.3645 -3.2438 0
M  V30 42 H 0.6647 2.3806 -3.2092 0
M  V30 43 H 1.5205 -1.0997 -1.7134 0
M  V30 44 H 3.7732 1.8646 -1.004 0
M  V30 45 H 2.7461 2.4892 -2.2973 0
M  V30 46 H 2.4781 3.0019 -0.6303 0
M  V30 47 H 0.4855 -0.5623 -3.6155 0
M  V30 48 H 1.718 0.5652 -4.1607 0
M  V30 49 H 4.1285 -1.4961 -0.7232 0
M  V30 50 H 5.0461 -1.8143 -2.2096 0
M  V30 51 H 3.4489 -2.5573 -1.9966 0
M  V30 END ATOM
M  V30 BEGIN BOND
M  V30 1 2 1 2
M  V30 2 1 2 3
M  V30 3 1 2 4
M  V30 4 2 3 5
M  V30 5 1 4 6
M  V30 6 1 5 7
M  V30 7 1 5 8
M  V30 8 2 7 9
M  V30 9 1 8 10
M  V30 10 1 8 11
M  V30 11 1 9 12
M  V30 12 1 10 13
M  V30 13 1 12 14
M  V30 14 1 13 15
M  V30 15 1 14 16
M  V30 16 1 14 17
M  V30 17 1 16 18
M  V30 18 1 16 19
M  V30 19 1 17 20
M  V30 20 1 18 21
M  V30 21 2 21 22
M  V30 22 1 21 23
M  V30 23 1 6 8
M  V30 24 1 10 12
M  V30 25 1 15 16
M  V30 26 1 18 20
M  V30 27 1 3 24
M  V30 28 1 4 25
M  V30 29 1 4 26
M  V30 30 1 6 27
M  V30 31 1 6 28
M  V30 32 1 7 29
M  V30 33 1 9 30
M  V30 34 1 10 31
M  V30 35 1 11 32
M  V30 36 1 11 33
M  V30 37 1 11 34
M  V30 38 1 12 35
M  V30 39 1 13 36
M  V30 40 1 13 37
M  V30 41 1 14 38
M  V30 42 1 15 39
M  V30 43 1 15 40
M  V30 44 1 17 41
M  V30 45 1 17 42
M  V30 46 1 18 43
M  V30 47 1 19 44
M  V30 48 1 19 45
M  V30 49 1 19 46
M  V30 50 1 20 47
M  V30 51 1 20 48
M  V30 52 1 23 49
M  V30 53 1 23 50
M  V30 54 1 23 51
M  V30 END BOND
M  V30 END CTAB
M  END
>  <NO.>
5084

>  <Name>
dydrogesterone

>  <SMILES>
CC(=O)C1CCC2C3C=CC4=CC(=O)CCC4(C)C3CCC12C

>  <logBB>


>  <Class>
-1

>  <MW>
312.21

>  <nHBAcc>
2

>  <nHBDon>
0

>  <SLogP>
4.5

>  <TopoPSA>
34.14

>  <MMFF94 Energy>
65.883

$$$$
CC(=O)N(CC(C)C(=O)O)c1c(I)cc(I)c(N)c1I
Actelion Java MolfileCreator 2.0

  0  0  0  0  0  0              0 V3000
M  V30 BEGIN CTAB
M  V30 COUNTS 33 33 0 0 0
M  V30 BEGIN ATOM
M  V30 1 I -0.6719 1.176 -2.4373 0
M  V30 2 C -0.3419 -0.749 -1.5495 0
M  V30 3 C 0.3636 -0.8852 -0.3272 0
M  V30 4 C -0.8353 -1.8799 -2.2494 0
M  V30 5 N 0.828 0.2521 0.4037 0
M  V30 6 C 0.6019 -2.1866 0.1653 0
M  V30 7 N -1.51 -1.7481 -3.4611 0
M  V30 8 C -0.5813 -3.1531 -1.7096 0
M  V30 9 C 2.0851 0.8195 0.1918 0
M  V30 10 C 0.0406 0.6614 1.5846 0
M  V30 11 I 1.7143 -2.5906 1.9182 0
M  V30 12 C 0.1298 -3.3094 -0.5194 0
M  V30 13 I -1.2476 -4.9087 -2.6648 0
M  V30 14 O 2.5203 1.7383 0.8886 0
M  V30 15 C 2.9347 0.2594 -0.927 0
M  V30 16 C -0.9296 1.8263 1.3658 0 CFG=1
M  V30 17 C -1.8137 1.9165 2.5867 0
M  V30 18 C -0.2416 3.1688 1.1355 0
M  V30 19 O -1.6744 2.647 3.5521 0
M  V30 20 O -2.8437 1.0468 2.5386 0
M  V30 21 H -1.8966 -2.5641 -3.9197 0
M  V30 22 H -1.7342 -0.829 -3.8223 0
M  V30 23 H 0.7381 0.9161 2.3939 0
M  V30 24 H -0.5215 -0.2105 1.9427 0
M  V30 25 H 0.3206 -4.3074 -0.1305 0
M  V30 26 H 3.137 -0.8015 -0.766 0
M  V30 27 H 2.4526 0.4055 -1.8945 0
M  V30 28 H 3.894 0.7861 -0.9455 0
M  V30 29 H -1.5871 1.6309 0.5134 0
M  V30 30 H 0.4485 3.4104 1.9514 0
M  V30 31 H 0.3214 3.1755 0.1985 0
M  V30 32 H -0.9791 3.9778 1.0825 0
M  V30 33 H -3.3346 1.2163 3.3713 0
M  V30 END ATOM
M  V30 BEGIN BOND
M  V30 1 1 1 2
M  V30 2 2 2 3
M  V30 3 1 2 4
M  V30 4 1 3 5
M  V30 5 1 3 6
M  V30 6 1 4 7
M  V30 7 2 4 8
M  V30 8 1 5 9
M  V30 9 1 5 10
M  V30 10 1 6 11
M  V30 11 2 6 12
M  V30 12 1 8 13
M  V30 13 2 9 14
M  V30 14 1 9 15
M  V30 15 1 10 16
M  V30 16 1 16 17
M  V30 17 1 16 18
M  V30 18 2 17 19
M  V30 19 1 17 20
M  V30 20 1 8 12
M  V30 21 1 7 21
M  V30 22 1 7 22
M  V30 23 1 10 23
M  V30 24 1 10 24
M  V30 25 1 12 25
M  V30 26 1 15 26
M  V30 27 1 15 27
M  V30 28 1 15 28
M  V30 29 1 16 29
M  V30 30 1 18 30
M  V30 31 1 18 31
M  V30 32 1 18 32
M  V30 33 1 20 33
M  V30 END BOND
M  V30 BEGIN COLLECTION
M  V30 MDLV30/STERAC1 ATOMS=(1 16)
M  V30 END COLLECTION
M  V30 END CTAB
M  END
>  <NO.>
5085

>  <Name>
iocetamic acid

>  <SMILES>
CC(=O)N(CC(C)C(=O)O)c1c(I)cc(I)c(N)c1I

>  <logBB>


>  <Class>
-1

>  <MW>
613.81

>  <nHBAcc>
3

>  <nHBDon>
2

>  <SLogP>
3.16

>  <TopoPSA>
83.63

>  <MMFF94 Energy>
27.417

$$$$
CC(=O)N(c1onc(C)c1C)S(=O)(=O)c1ccc(N)cc1
Actelion Java MolfileCreator 2.0

  0  0  0  0  0  0              0 V3000
M  V30 BEGIN CTAB
M  V30 COUNTS 36 37 0 0 0
M  V30 BEGIN ATOM
M  V30 1 S -0.8886 0.6462 -1.5353 0
M  V30 2 O 0.2115 1.5479 -1.8287 0
M  V30 3 O -1.9554 0.5058 -2.5063 0
M  V30 4 N -0.2727 -0.8836 -1.1683 0
M  V30 5 C -1.6032 1.1872 0.003 0
M  V30 6 C 1.033 -0.8423 -0.521 0
M  V30 7 C -1.1119 -1.972 -0.8126 0
M  V30 8 C -2.9675 1.0118 0.2379 0
M  V30 9 C -0.8038 1.841 0.9435 0
M  V30 10 O 1.2194 -0.9288 0.823 0
M  V30 11 C 2.2566 -0.7383 -1.1478 0
M  V30 12 O -2.3361 -1.8902 -0.7987 0
M  V30 13 C -0.4426 -3.2805 -0.4657 0
M  V30 14 C -3.5234 1.4628 1.4382 0
M  V30 15 C -1.3728 2.287 2.1396 0
M  V30 16 N 2.5669 -0.8706 1.1099 0
M  V30 17 C 3.1847 -0.7444 -0.0699 0
M  V30 18 C 2.5509 -0.6224 -2.5944 0
M  V30 19 C -2.7348 2.1058 2.3966 0
M  V30 20 C 4.6618 -0.6385 -0.1306 0
M  V30 21 N -3.2874 2.5336 3.5883 0
M  V30 22 H -3.6019 0.5183 -0.4958 0
M  V30 23 H 0.2551 2.0086 0.7611 0
M  V30 24 H -1.1728 -4.0911 -0.5515 0
M  V30 25 H 0.376 -3.4908 -1.1589 0
M  V30 26 H -0.0743 -3.2548 0.5625 0
M  V30 27 H -4.5844 1.3078 1.6172 0
M  V30 28 H -0.7408 2.7843 2.8711 0
M  V30 29 H 3.3992 -1.2579 -2.868 0
M  V30 30 H 2.8011 0.4121 -2.8496 0
M  V30 31 H 1.6969 -0.9292 -3.2062 0
M  V30 32 H 4.9597 0.2217 -0.7384 0
M  V30 33 H 5.0884 -1.5417 -0.5779 0
M  V30 34 H 5.0988 -0.5131 0.8654 0
M  V30 35 H -2.7274 3.0265 4.2697 0
M  V30 36 H -4.2778 2.4317 3.7621 0
M  V30 END ATOM
M  V30 BEGIN BOND
M  V30 1 2 1 2
M  V30 2 2 1 3
M  V30 3 1 1 4
M  V30 4 1 1 5
M  V30 5 1 4 6
M  V30 6 1 4 7
M  V30 7 2 5 8
M  V30 8 1 5 9
M  V30 9 1 6 10
M  V30 10 2 6 11
M  V30 11 2 7 12
M  V30 12 1 7 13
M  V30 13 1 8 14
M  V30 14 2 9 15
M  V30 15 1 10 16
M  V30 16 1 11 17
M  V30 17 1 11 18
M  V30 18 2 14 19
M  V30 19 1 17 20
M  V30 20 1 19 21
M  V30 21 1 15 19
M  V30 22 2 16 17
M  V30 23 1 8 22
M  V30 24 1 9 23
M  V30 25 1 13 24
M  V30 26 1 13 25
M  V30 27 1 13 26
M  V30 28 1 14 27
M  V30 29 1 15 28
M  V30 30 1 18 29
M  V30 31 1 18 30
M  V30 32 1 18 31
M  V30 33 1 20 32
M  V30 34 1 20 33
M  V30 35 1 20 34
M  V30 36 1 21 35
M  V30 37 1 21 36
M  V30 END BOND
M  V30 END CTAB
M  END
>  <NO.>
5087

>  <Name>
sulfisoxazole acetyl

>  <SMILES>
CC(=O)N(c1onc(C)c1C)S(=O)(=O)c1ccc(N)cc1

>  <logBB>


>  <Class>
-1

>  <MW>
309.08

>  <nHBAcc>
6

>  <nHBDon>
1

>  <SLogP>
1.62

>  <TopoPSA>
106.5

>  <MMFF94 Energy>
-55.29

$$$$
CC(=O)Nc1ccc(C=NNC(N)=S)cc1
Actelion Java MolfileCreator 2.0

  0  0  0  0  0  0              0 V3000
M  V30 BEGIN CTAB
M  V30 COUNTS 28 28 0 0 0
M  V30 BEGIN ATOM
M  V30 1 S 1.4163 -2.9131 -4.5694 0
M  V30 2 C 1.0111 -3.9761 -3.3533 0
M  V30 3 N 0.6086 -3.675 -2.0722 0
M  V30 4 N 1.068 -5.316 -3.6029 0
M  V30 5 N 0.4908 -2.3871 -1.6427 0
M  V30 6 C 0.1083 -2.2365 -0.4157 0
M  V30 7 C -0.0633 -0.8991 0.1857 0
M  V30 8 C 0.1677 0.2589 -0.558 0
M  V30 9 C -0.4612 -0.8032 1.5198 0
M  V30 10 C -0.0011 1.517 0.0323 0
M  V30 11 C -0.6272 0.4568 2.1049 0
M  V30 12 C -0.4034 1.6268 1.3652 0
M  V30 13 N -0.5837 2.8551 2.0332 0
M  V30 14 C -0.5842 4.1211 1.4741 0
M  V30 15 O -0.4563 4.4059 0.2896 0
M  V30 16 C -0.7952 5.1948 2.512 0
M  V30 17 H 0.3933 -4.4267 -1.4315 0
M  V30 18 H 1.3569 -5.6129 -4.5273 0
M  V30 19 H 0.8382 -6.0249 -2.9247 0
M  V30 20 H -0.1051 -3.103 0.2355 0
M  V30 21 H 0.481 0.1955 -1.5989 0
M  V30 22 H -0.6446 -1.694 2.1141 0
M  V30 23 H 0.1973 2.3925 -0.5793 0
M  V30 24 H -0.9389 0.5092 3.1451 0
M  V30 25 H -0.7588 2.8005 3.0284 0
M  V30 26 H -1.8216 5.1453 2.8861 0
M  V30 27 H -0.6226 6.1784 2.0662 0
M  V30 28 H -0.0965 5.0601 3.3429 0
M  V30 END ATOM
M  V30 BEGIN BOND
M  V30 1 2 1 2
M  V30 2 1 2 3
M  V30 3 1 2 4
M  V30 4 1 3 5
M  V30 5 2 5 6
M  V30 6 1 6 7
M  V30 7 2 7 8
M  V30 8 1 7 9
M  V30 9 1 8 10
M  V30 10 2 9 11
M  V30 11 2 10 12
M  V30 12 1 12 13
M  V30 13 1 13 14
M  V30 14 2 14 15
M  V30 15 1 14 16
M  V30 16 1 11 12
M  V30 17 1 3 17
M  V30 18 1 4 18
M  V30 19 1 4 19
M  V30 20 1 6 20
M  V30 21 1 8 21
M  V30 22 1 9 22
M  V30 23 1 10 23
M  V30 24 1 11 24
M  V30 25 1 13 25
M  V30 26 1 16 26
M  V30 27 1 16 27
M  V30 28 1 16 28
M  V30 END BOND
M  V30 END CTAB
M  END
>  <NO.>
5091

>  <Name>
thiacetazone

>  <SMILES>
CC(=O)Nc1ccc(C=NNC(N)=S)cc1

>  <logBB>


>  <Class>
-1

>  <MW>
236.07

>  <nHBAcc>
3

>  <nHBDon>
3

>  <SLogP>
0.81

>  <TopoPSA>
79.51

>  <MMFF94 Energy>
-3.1416

$$$$
CC(=O)OCC(=O)C1(O)C(O)CC2C3CCC4=CC(=O)C=CC4(C)C3(F)C(O)CC21C
Actelion Java MolfileCreator 2.0

  0  0  0  0  0  0              0 V3000
M  V30 BEGIN CTAB
M  V30 COUNTS 60 63 0 0 0
M  V30 BEGIN ATOM
M  V30 1 F -1.2949 1.7808 1.5378 0
M  V30 2 C -0.278 0.9156 1.896 0
M  V30 3 C 0.2363 1.4093 3.3143 0
M  V30 4 C -0.9149 -0.4982 1.8784 0
M  V30 5 C 0.8206 1.0427 0.798 0
M  V30 6 C 0.8312 2.8187 3.1353 0
M  V30 7 C -0.9092 1.4302 4.3275 0
M  V30 8 C 1.333 0.5151 3.938 0
M  V30 9 O -0.047 -1.4985 2.3978 0
M  V30 10 C -1.3857 -0.9027 0.4726 0
M  V30 11 C 0.3655 0.5889 -0.6124 0
M  V30 12 C 1.3945 2.4725 0.7396 0
M  V30 13 C 0.4052 3.9017 3.8096 0
M  V30 14 C 1.9121 2.9455 2.0931 0
M  V30 15 C -1.3309 2.5123 4.9954 0
M  V30 16 C -0.307 -0.7999 -0.6468 0
M  V30 17 C -0.6372 1.5151 -1.3266 0
M  V30 18 C -0.6945 3.8269 4.7923 0
M  V30 19 C -0.9666 -0.8234 -2.0666 0
M  V30 20 C 0.7257 -1.9325 -0.481 0
M  V30 21 C -1.3932 0.6454 -2.3357 0
M  V30 22 O -1.0637 4.816 5.4126 0
M  V30 23 O -2.1176 -1.6718 -2.0747 0
M  V30 24 C -0.0114 -1.2386 -3.2106 0
M  V30 25 O -2.8114 0.7691 -2.1532 0
M  V30 26 O 0.879 -0.4807 -3.6084 0
M  V30 27 C -0.2098 -2.6343 -3.7946 0
M  V30 28 O 0.8247 -2.9265 -4.7365 0
M  V30 29 C 0.7368 -4.1647 -5.2866 0
M  V30 30 O -0.1251 -4.9927 -5.0294 0
M  V30 31 C 1.8548 -4.3768 -6.26 0
M  V30 32 H -1.8062 -0.4919 2.5161 0
M  V30 33 H 1.6478 0.378 1.0783 0
M  V30 34 H -1.4024 0.4843 4.5401 0
M  V30 35 H 0.9296 -0.4234 4.3333 0
M  V30 36 H 1.8166 1.0171 4.7867 0
M  V30 37 H 2.124 0.2587 3.2275 0
M  V30 38 H -0.528 -2.3459 2.3817 0
M  V30 39 H -2.2433 -0.2659 0.2234 0
M  V30 40 H -1.7676 -1.9316 0.5062 0
M  V30 41 H 1.2689 0.5571 -1.2387 0
M  V30 42 H 0.628 3.1762 0.3916 0
M  V30 43 H 2.2133 2.5128 0.0112 0
M  V30 44 H 0.8254 4.89 3.6619 0
M  V30 45 H 2.256 3.9828 1.9989 0
M  V30 46 H 2.7886 2.3586 2.3899 0
M  V30 47 H -2.1405 2.4758 5.714 0
M  V30 48 H -0.0982 2.3155 -1.8467 0
M  V30 49 H -1.3355 1.9995 -0.6404 0
M  V30 50 H 1.2701 -1.8689 0.4635 0
M  V30 51 H 1.4948 -1.9046 -1.2596 0
M  V30 52 H 0.2405 -2.9134 -0.5238 0
M  V30 53 H -1.1817 0.9684 -3.3607 0
M  V30 54 H -2.8833 -1.0601 -2.1662 0
M  V30 55 H -3.0246 1.7199 -2.2077 0
M  V30 56 H -0.1746 -3.3618 -2.9773 0
M  V30 57 H -1.1795 -2.6573 -4.3032 0
M  V30 58 H 1.792 -3.6385 -7.0633 0
M  V30 59 H 2.8149 -4.3035 -5.7433 0
M  V30 60 H 1.7696 -5.3756 -6.6975 0
M  V30 END ATOM
M  V30 BEGIN BOND
M  V30 1 1 1 2
M  V30 2 1 2 3
M  V30 3 1 2 4
M  V30 4 1 2 5
M  V30 5 1 3 6
M  V30 6 1 3 7
M  V30 7 1 3 8
M  V30 8 1 4 9
M  V30 9 1 4 10
M  V30 10 1 5 11
M  V30 11 1 5 12
M  V30 12 2 6 13
M  V30 13 1 6 14
M  V30 14 2 7 15
M  V30 15 1 10 16
M  V30 16 1 11 17
M  V30 17 1 13 18
M  V30 18 1 16 19
M  V30 19 1 16 20
M  V30 20 1 17 21
M  V30 21 2 18 22
M  V30 22 1 19 23
M  V30 23 1 19 24
M  V30 24 1 21 25
M  V30 25 2 24 26
M  V30 26 1 24 27
M  V30 27 1 27 28
M  V30 28 1 28 29
M  V30 29 2 29 30
M  V30 30 1 29 31
M  V30 31 1 11 16
M  V30 32 1 12 14
M  V30 33 1 15 18
M  V30 34 1 19 21
M  V30 35 1 4 32
M  V30 36 1 5 33
M  V30 37 1 7 34
M  V30 38 1 8 35
M  V30 39 1 8 36
M  V30 40 1 8 37
M  V30 41 1 9 38
M  V30 42 1 10 39
M  V30 43 1 10 40
M  V30 44 1 11 41
M  V30 45 1 12 42
M  V30 46 1 12 43
M  V30 47 1 13 44
M  V30 48 1 14 45
M  V30 49 1 14 46
M  V30 50 1 15 47
M  V30 51 1 17 48
M  V30 52 1 17 49
M  V30 53 1 20 50
M  V30 54 1 20 51
M  V30 55 1 20 52
M  V30 56 1 21 53
M  V30 57 1 23 54
M  V30 58 1 25 55
M  V30 59 1 27 56
M  V30 60 1 27 57
M  V30 61 1 31 58
M  V30 62 1 31 59
M  V30 63 1 31 60
M  V30 END BOND
M  V30 END CTAB
M  END
>  <NO.>
5092

>  <Name>
ctk8i5337

>  <SMILES>
CC(=O)OCC(=O)C1(O)C(O)CC2C3CCC4=CC(=O)C=CC4(C)C3(F)C(O)CC21C

>  <logBB>


>  <Class>
-1

>  <MW>
436.19

>  <nHBAcc>
7

>  <nHBDon>
3

>  <SLogP>
1.19

>  <TopoPSA>
121.13

>  <MMFF94 Energy>
160.05

$$$$
CC(=O)Oc1cc(C)c(OC(C)=O)c2ccccc12
Actelion Java MolfileCreator 2.0

  0  0  0  0  0  0              0 V3000
M  V30 BEGIN CTAB
M  V30 COUNTS 33 34 0 0 0
M  V30 BEGIN ATOM
M  V30 1 O 3.3443 0.0 -1.1138 0
M  V30 2 C 3.4259 0.5951 -0.0482 0
M  V30 3 O 2.3792 0.9894 0.7769 0
M  V30 4 C 4.7178 1.0282 0.5781 0
M  V30 5 C 1.1146 0.6173 0.286 0
M  V30 6 C 0.5363 -0.5963 0.7394 0
M  V30 7 C 0.4519 1.4994 -0.5854 0
M  V30 8 C -0.7443 -0.9508 0.2567 0
M  V30 9 C 1.181 -1.4662 1.6473 0
M  V30 10 C -0.8042 1.1288 -1.0648 0
M  V30 11 C 1.0786 2.7844 -1.0394 0
M  V30 12 C -1.3909 -0.0652 -0.6326 0
M  V30 13 C -1.3238 -2.1665 0.6816 0
M  V30 14 C 0.5874 -2.6601 2.0592 0
M  V30 15 O -2.6423 -0.4138 -1.1665 0
M  V30 16 C -0.6642 -3.0119 1.5735 0
M  V30 17 C -3.7052 0.2672 -0.5856 0
M  V30 18 O -3.6482 1.112 0.2971 0
M  V30 19 C -4.9796 -0.1999 -1.2238 0
M  V30 20 H 4.7398 2.1172 0.6664 0
M  V30 21 H 4.8297 0.559 1.5587 0
M  V30 22 H 5.5512 0.7123 -0.0556 0
M  V30 23 H 2.1618 -1.2167 2.0447 0
M  V30 24 H -1.3377 1.7677 -1.7633 0
M  V30 25 H 1.837 2.5852 -1.8024 0
M  V30 26 H 1.5411 3.31 -0.1977 0
M  V30 27 H 0.3311 3.4611 -1.4672 0
M  V30 28 H -2.3041 -2.4644 0.3172 0
M  V30 29 H 1.1057 -3.3127 2.7565 0
M  V30 30 H -1.1305 -3.9417 1.8881 0
M  V30 31 H -4.9625 0.0244 -2.2931 0
M  V30 32 H -5.1063 -1.2723 -1.0563 0
M  V30 33 H -5.8252 0.3254 -0.7708 0
M  V30 END ATOM
M  V30 BEGIN BOND
M  V30 1 2 1 2
M  V30 2 1 2 3
M  V30 3 1 2 4
M  V30 4 1 3 5
M  V30 5 1 5 6
M  V30 6 2 5 7
M  V30 7 1 6 8
M  V30 8 2 6 9
M  V30 9 1 7 10
M  V30 10 1 7 11
M  V30 11 1 8 12
M  V30 12 2 8 13
M  V30 13 1 9 14
M  V30 14 1 12 15
M  V30 15 1 13 16
M  V30 16 1 15 17
M  V30 17 2 17 18
M  V30 18 1 17 19
M  V30 19 2 10 12
M  V30 20 2 14 16
M  V30 21 1 4 20
M  V30 22 1 4 21
M  V30 23 1 4 22
M  V30 24 1 9 23
M  V30 25 1 10 24
M  V30 26 1 11 25
M  V30 27 1 11 26
M  V30 28 1 11 27
M  V30 29 1 13 28
M  V30 30 1 14 29
M  V30 31 1 16 30
M  V30 32 1 19 31
M  V30 33 1 19 32
M  V30 34 1 19 33
M  V30 END BOND
M  V30 END CTAB
M  END
>  <NO.>
5095

>  <Name>
menadiol sodium diphosphate

>  <SMILES>
CC(=O)Oc1cc(C)c(OC(C)=O)c2ccccc12

>  <logBB>


>  <Class>
-1

>  <MW>
258.09

>  <nHBAcc>
4

>  <nHBDon>
0

>  <SLogP>
3

>  <TopoPSA>
52.6

>  <MMFF94 Energy>
59.245

$$$$
CC(=O)Oc1ccc(C(c2ccc(OC(C)=O)cc2)c2ccccn2)cc1
Actelion Java MolfileCreator 2.0

  0  0  0  0  0  0              0 V3000
M  V30 BEGIN CTAB
M  V30 COUNTS 46 48 0 0 0
M  V30 BEGIN ATOM
M  V30 1 O 5.125 0.3996 -2.7201 0
M  V30 2 C 5.5423 -0.6276 -2.2038 0
M  V30 3 O 4.9666 -1.3382 -1.1555 0
M  V30 4 C 6.7958 -1.3342 -2.6277 0
M  V30 5 C 3.7814 -0.8126 -0.6249 0
M  V30 6 C 3.7367 0.4593 -0.06 0
M  V30 7 C 2.6693 -1.6487 -0.5958 0
M  V30 8 C 2.5443 0.9163 0.5049 0
M  V30 9 C 1.4798 -1.1891 -0.0283 0
M  V30 10 C 1.3954 0.103 0.5201 0
M  V30 11 C 0.0954 0.6291 1.1389 0
M  V30 12 C -0.1809 0.1013 2.5552 0
M  V30 13 C -1.1012 0.5356 0.1826 0
M  V30 14 N 0.0855 -1.2022 2.8393 0
M  V30 15 C -0.7534 0.954 3.5034 0
M  V30 16 C -1.2379 1.4953 -0.8397 0
M  V30 17 C -2.0531 -0.497 0.2652 0
M  V30 18 C -0.1885 -1.645 4.0855 0
M  V30 19 C -1.0315 0.4664 4.7778 0
M  V30 20 C -2.3078 1.442 -1.7341 0
M  V30 21 C -3.126 -0.5527 -0.6261 0
M  V30 22 C -0.7409 -0.857 5.079 0
M  V30 23 C -3.2533 0.4288 -1.6036 0
M  V30 24 O -4.3074 0.3184 -2.5138 0
M  V30 25 C -5.2831 1.2996 -2.3802 0
M  V30 26 O -5.3109 2.2113 -1.5648 0
M  V30 27 C -6.3401 1.0672 -3.419 0
M  V30 28 H 7.4989 -1.3752 -1.7921 0
M  V30 29 H 6.5534 -2.3405 -2.9782 0
M  V30 30 H 7.2626 -0.782 -3.4483 0
M  V30 31 H 4.6144 1.0982 -0.06 0
M  V30 32 H 2.7218 -2.6521 -1.0062 0
M  V30 33 H 2.5197 1.9147 0.9356 0
M  V30 34 H 0.6173 -1.8515 -0.0016 0
M  V30 35 H 0.2542 1.7104 1.278 0
M  V30 36 H -0.989 1.9846 3.2557 0
M  V30 37 H -0.5015 2.2893 -0.9487 0
M  V30 38 H -1.9634 -1.2742 1.0221 0
M  V30 39 H 0.0549 -2.6875 4.2685 0
M  V30 40 H -1.4746 1.1157 5.5276 0
M  V30 41 H -2.3979 2.1867 -2.5187 0
M  V30 42 H -3.8511 -1.3574 -0.5544 0
M  V30 43 H -0.9434 -1.2661 6.0621 0
M  V30 44 H -5.8997 1.1323 -4.417 0
M  V30 45 H -6.8033 0.0895 -3.2643 0
M  V30 46 H -7.112 1.8369 -3.3285 0
M  V30 END ATOM
M  V30 BEGIN BOND
M  V30 1 2 1 2
M  V30 2 1 2 3
M  V30 3 1 2 4
M  V30 4 1 3 5
M  V30 5 2 5 6
M  V30 6 1 5 7
M  V30 7 1 6 8
M  V30 8 2 7 9
M  V30 9 2 8 10
M  V30 10 1 10 11
M  V30 11 1 11 12
M  V30 12 1 11 13
M  V30 13 2 12 14
M  V30 14 1 12 15
M  V30 15 2 13 16
M  V30 16 1 13 17
M  V30 17 1 14 18
M  V30 18 2 15 19
M  V30 19 1 16 20
M  V30 20 2 17 21
M  V30 21 2 18 22
M  V30 22 2 20 23
M  V30 23 1 23 24
M  V30 24 1 24 25
M  V30 25 2 25 26
M  V30 26 1 25 27
M  V30 27 1 9 10
M  V30 28 1 19 22
M  V30 29 1 21 23
M  V30 30 1 4 28
M  V30 31 1 4 29
M  V30 32 1 4 30
M  V30 33 1 6 31
M  V30 34 1 7 32
M  V30 35 1 8 33
M  V30 36 1 9 34
M  V30 37 1 11 35
M  V30 38 1 15 36
M  V30 39 1 16 37
M  V30 40 1 17 38
M  V30 41 1 18 39
M  V30 42 1 19 40
M  V30 43 1 20 41
M  V30 44 1 21 42
M  V30 45 1 22 43
M  V30 46 1 27 44
M  V30 47 1 27 45
M  V30 48 1 27 46
M  V30 END BOND
M  V30 END CTAB
M  END
>  <NO.>
5097

>  <Name>
bisacodyl

>  <SMILES>
CC(=O)Oc1ccc(C(c2ccc(OC(C)=O)cc2)c2ccccn2)cc1

>  <logBB>


>  <Class>
-1

>  <MW>
361.13

>  <nHBAcc>
5

>  <nHBDon>
0

>  <SLogP>
4.11

>  <TopoPSA>
65.49

>  <MMFF94 Energy>
114.95

$$$$
CC(=O)Oc1cccc2c1C(=O)c1c(OC(C)=O)cc(C(=O)O)cc1C2=O
Actelion Java MolfileCreator 2.0

  0  0  0  0  0  0              0 V3000
M  V30 BEGIN CTAB
M  V30 COUNTS 39 41 0 0 0
M  V30 BEGIN ATOM
M  V30 1 O -1.2983 0.8924 0.4056 0
M  V30 2 C -0.4606 0.2781 -0.2449 0
M  V30 3 C 0.7286 -0.3012 0.4299 0
M  V30 4 C -0.6271 0.1098 -1.7103 0
M  V30 5 C 0.9392 -0.1727 1.8135 0
M  V30 6 C 1.6759 -1.0025 -0.3155 0
M  V30 7 C -1.746 0.6096 -2.3983 0
M  V30 8 C 0.3523 -0.5569 -2.4455 0
M  V30 9 O 0.0529 0.5233 2.6404 0
M  V30 10 C 2.0341 -0.7703 2.4471 0
M  V30 11 C 1.5287 -1.1389 -1.7757 0
M  V30 12 C 2.7928 -1.5887 0.3071 0
M  V30 13 O -2.7839 1.2825 -1.7475 0
M  V30 14 C -1.86 0.495 -3.7882 0
M  V30 15 C 0.2334 -0.6928 -3.8391 0
M  V30 16 C 0.2842 1.8948 2.6071 0
M  V30 17 C 2.969 -1.4785 1.6905 0
M  V30 18 O 2.3794 -1.734 -2.4266 0
M  V30 19 C -3.6808 0.404 -1.1485 0
M  V30 20 C -0.8676 -0.1611 -4.5086 0
M  V30 21 O 1.2017 2.4621 2.0265 0
M  V30 22 C -0.7614 2.5873 3.4282 0
M  V30 23 C 4.1229 -2.0882 2.3932 0
M  V30 24 O -3.6743 -0.8176 -1.238 0
M  V30 25 C -4.6984 1.1943 -0.3818 0
M  V30 26 O 4.3264 -2.0438 3.5918 0
M  V30 27 O 4.9604 -2.7244 1.5589 0
M  V30 28 H 2.1603 -0.6693 3.5235 0
M  V30 29 H 3.5206 -2.1327 -0.2943 0
M  V30 30 H -2.7253 0.9047 -4.3032 0
M  V30 31 H 1.0024 -1.2144 -4.408 0
M  V30 32 H -0.9528 -0.2661 -5.5878 0
M  V30 33 H -1.756 2.3431 3.0463 0
M  V30 34 H -0.6668 2.2895 4.4753 0
M  V30 35 H -0.6201 3.6694 3.3554 0
M  V30 36 H -4.1994 1.8214 0.3613 0
M  V30 37 H -5.2868 1.8061 -1.0699 0
M  V30 38 H -5.37 0.5077 0.1414 0
M  V30 39 H 5.6684 -3.0716 2.1416 0
M  V30 END ATOM
M  V30 BEGIN BOND
M  V30 1 2 1 2
M  V30 2 1 2 3
M  V30 3 1 2 4
M  V30 4 2 3 5
M  V30 5 1 3 6
M  V30 6 2 4 7
M  V30 7 1 4 8
M  V30 8 1 5 9
M  V30 9 1 5 10
M  V30 10 1 6 11
M  V30 11 2 6 12
M  V30 12 1 7 13
M  V30 13 1 7 14
M  V30 14 2 8 15
M  V30 15 1 9 16
M  V30 16 2 10 17
M  V30 17 2 11 18
M  V30 18 1 13 19
M  V30 19 2 14 20
M  V30 20 2 16 21
M  V30 21 1 16 22
M  V30 22 1 17 23
M  V30 23 2 19 24
M  V30 24 1 19 25
M  V30 25 2 23 26
M  V30 26 1 23 27
M  V30 27 1 8 11
M  V30 28 1 12 17
M  V30 29 1 15 20
M  V30 30 1 10 28
M  V30 31 1 12 29
M  V30 32 1 14 30
M  V30 33 1 15 31
M  V30 34 1 20 32
M  V30 35 1 22 33
M  V30 36 1 22 34
M  V30 37 1 22 35
M  V30 38 1 25 36
M  V30 39 1 25 37
M  V30 40 1 25 38
M  V30 41 1 27 39
M  V30 END BOND
M  V30 END CTAB
M  END
>  <NO.>
5098

>  <Name>
diacerein

>  <SMILES>
CC(=O)Oc1cccc2c1C(=O)c1c(OC(C)=O)cc(C(=O)O)cc1C2=O

>  <logBB>


>  <Class>
-1

>  <MW>
368.05

>  <nHBAcc>
7

>  <nHBDon>
1

>  <SLogP>
2.01

>  <TopoPSA>
124.04

>  <MMFF94 Energy>
50.409

$$$$
CC(=O)Oc1ccccc1C(=O)Nc1ncc([N+](=O)[O-])s1
Actelion Java MolfileCreator 2.0

  0  0  0  0  0  0              0 V3000
M  V30 BEGIN CTAB
M  V30 COUNTS 30 31 0 0 0
M  V30 BEGIN ATOM
M  V30 1 S 1.7136 -0.5709 -2.7756 0
M  V30 2 C 1.4867 -0.8364 -1.1043 0
M  V30 3 C 3.3274 -1.0668 -2.6157 0
M  V30 4 N 2.5407 -1.2603 -0.4421 0
M  V30 5 N 0.2931 -0.6158 -0.4675 0
M  V30 6 N 4.2241 -1.108 -3.7245 0 CHG=1
M  V30 7 C 3.608 -1.3994 -1.3129 0
M  V30 8 C -0.8529 -0.0972 -1.0189 0
M  V30 9 O 3.7984 -0.7808 -4.8385 0
M  V30 10 O 5.3808 -1.4746 -3.4775 0 CHG=-1
M  V30 11 O -1.0505 0.2402 -2.178 0
M  V30 12 C -1.9829 0.0067 -0.0724 0
M  V30 13 C -1.967 0.8575 1.0382 0
M  V30 14 C -3.1211 -0.7646 -0.3369 0
M  V30 15 O -0.9077 1.7332 1.2997 0
M  V30 16 C -3.0773 0.9379 1.8832 0
M  V30 17 C -4.2237 -0.6975 0.5172 0
M  V30 18 C 0.1105 1.1494 2.0402 0
M  V30 19 C -4.2003 0.1502 1.6261 0
M  V30 20 O 0.1976 -0.0387 2.3252 0
M  V30 21 C 1.1356 2.1872 2.3815 0
M  V30 22 H 0.2992 -0.889 0.5134 0
M  V30 23 H 4.5623 -1.747 -0.9334 0
M  V30 24 H -3.1523 -1.4121 -1.2107 0
M  V30 25 H -3.0756 1.6148 2.7332 0
M  V30 26 H -5.1064 -1.2992 0.3118 0
M  V30 27 H -5.0654 0.207 2.283 0
M  V30 28 H 1.6493 2.5105 1.4731 0
M  V30 29 H 0.6556 3.036 2.8755 0
M  V30 30 H 1.8674 1.7588 3.072 0
M  V30 END ATOM
M  V30 BEGIN BOND
M  V30 1 1 1 2
M  V30 2 1 1 3
M  V30 3 2 2 4
M  V30 4 1 2 5
M  V30 5 1 3 6
M  V30 6 2 3 7
M  V30 7 1 5 8
M  V30 8 2 6 9
M  V30 9 1 6 10
M  V30 10 2 8 11
M  V30 11 1 8 12
M  V30 12 2 12 13
M  V30 13 1 12 14
M  V30 14 1 13 15
M  V30 15 1 13 16
M  V30 16 2 14 17
M  V30 17 1 15 18
M  V30 18 2 16 19
M  V30 19 2 18 20
M  V30 20 1 18 21
M  V30 21 1 4 7
M  V30 22 1 17 19
M  V30 23 1 5 22
M  V30 24 1 7 23
M  V30 25 1 14 24
M  V30 26 1 16 25
M  V30 27 1 17 26
M  V30 28 1 19 27
M  V30 29 1 21 28
M  V30 30 1 21 29
M  V30 31 1 21 30
M  V30 END BOND
M  V30 END CTAB
M  END
>  <NO.>
5099

>  <Name>
nitazoxanide

>  <SMILES>
CC(=O)Oc1ccccc1C(=O)Nc1ncc([N+](=O)[O-])s1

>  <logBB>


>  <Class>
-1

>  <MW>
307.03

>  <nHBAcc>
7

>  <nHBDon>
1

>  <SLogP>
2.23

>  <TopoPSA>
111.43

>  <MMFF94 Energy>
1.2755

$$$$
CC(=O)c1cc2cccc(OCC(O)CNC(C)C)c2o1
Actelion Java MolfileCreator 2.0

  0  0  0  0  0  0              0 V3000
M  V30 BEGIN CTAB
M  V30 COUNTS 42 43 0 0 0
M  V30 BEGIN ATOM
M  V30 1 O 4.2612 -3.0761 -0.3151 0
M  V30 2 C 3.3788 -2.2502 -0.5527 0
M  V30 3 C 3.0131 -1.2034 0.3752 0
M  V30 4 C 2.6211 -2.2948 -1.8566 0
M  V30 5 O 2.0228 -0.3243 0.0385 0
M  V30 6 C 3.5044 -0.8928 1.6287 0
M  V30 7 C 1.8752 0.5471 1.0792 0
M  V30 8 C 2.7777 0.2355 2.0895 0
M  V30 9 C 0.9545 1.6006 1.1363 0
M  V30 10 C 2.787 1.0247 3.2513 0
M  V30 11 O 0.1284 1.7978 0.0689 0
M  V30 12 C 0.9943 2.3803 2.3007 0
M  V30 13 C 1.8898 2.0969 3.3392 0
M  V30 14 C -1.0339 2.603 0.2919 0
M  V30 15 C -1.9889 2.4522 -0.9044 0 CFG=1
M  V30 16 O -1.2573 2.5915 -2.1314 0
M  V30 17 C -2.7815 1.1249 -0.9202 0
M  V30 18 N -1.9281 -0.0597 -1.0707 0
M  V30 19 C -2.6843 -1.3087 -1.2192 0
M  V30 20 C -1.7073 -2.4124 -1.6332 0
M  V30 21 C -3.3897 -1.7113 0.0768 0
M  V30 22 H 1.5573 -2.4577 -1.6657 0
M  V30 23 H 2.9943 -3.1215 -2.4683 0
M  V30 24 H 2.768 -1.362 -2.4078 0
M  V30 25 H 4.2946 -1.4247 2.1409 0
M  V30 26 H 3.4768 0.8151 4.0635 0
M  V30 27 H 0.3353 3.2352 2.4222 0
M  V30 28 H 1.8928 2.7223 4.2301 0
M  V30 29 H -0.7116 3.6497 0.3471 0
M  V30 30 H -1.5503 2.3241 1.2183 0
M  V30 31 H -2.7186 3.2695 -0.8697 0
M  V30 32 H -0.418 2.1128 -1.9777 0
M  V30 33 H -3.3654 1.0633 0.0039 0
M  V30 34 H -3.4807 1.1629 -1.7647 0
M  V30 35 H -1.3426 0.079 -1.8955 0
M  V30 36 H -3.4276 -1.2033 -2.0191 0
M  V30 37 H -0.9359 -2.5724 -0.8712 0
M  V30 38 H -1.2068 -2.1641 -2.5759 0
M  V30 39 H -2.2352 -3.3608 -1.7812 0
M  V30 40 H -4.1785 -1.0017 0.3455 0
M  V30 41 H -2.6851 -1.7708 0.914 0
M  V30 42 H -3.8635 -2.6933 -0.0308 0
M  V30 END ATOM
M  V30 BEGIN BOND
M  V30 1 2 1 2
M  V30 2 1 2 3
M  V30 3 1 2 4
M  V30 4 1 3 5
M  V30 5 2 3 6
M  V30 6 1 5 7
M  V30 7 1 6 8
M  V30 8 1 7 9
M  V30 9 1 8 10
M  V30 10 1 9 11
M  V30 11 2 9 12
M  V30 12 2 10 13
M  V30 13 1 11 14
M  V30 14 1 14 15
M  V30 15 1 15 16
M  V30 16 1 15 17
M  V30 17 1 17 18
M  V30 18 1 18 19
M  V30 19 1 19 20
M  V30 20 1 19 21
M  V30 21 2 7 8
M  V30 22 1 12 13
M  V30 23 1 4 22
M  V30 24 1 4 23
M  V30 25 1 4 24
M  V30 26 1 6 25
M  V30 27 1 10 26
M  V30 28 1 12 27
M  V30 29 1 13 28
M  V30 30 1 14 29
M  V30 31 1 14 30
M  V30 32 1 15 31
M  V30 33 1 16 32
M  V30 34 1 17 33
M  V30 35 1 17 34
M  V30 36 1 18 35
M  V30 37 1 19 36
M  V30 38 1 20 37
M  V30 39 1 20 38
M  V30 40 1 20 39
M  V30 41 1 21 40
M  V30 42 1 21 41
M  V30 43 1 21 42
M  V30 END BOND
M  V30 BEGIN COLLECTION
M  V30 MDLV30/STERAC1 ATOMS=(1 15)
M  V30 END COLLECTION
M  V30 END CTAB
M  END
>  <NO.>
5101

>  <Name>
befunolol

>  <SMILES>
CC(=O)c1cc2cccc(OCC(O)CNC(C)C)c2o1

>  <logBB>


>  <Class>
-1

>  <MW>
291.15

>  <nHBAcc>
5

>  <nHBDon>
2

>  <SLogP>
2.37

>  <TopoPSA>
71.7

>  <MMFF94 Energy>
83.397

$$$$
CC(=O)c1ccc2c(c1)Sc1ccccc1N2CCCN1CCN(CCO)CC1
Actelion Java MolfileCreator 2.0

  0  0  0  0  0  0              0 V3000
M  V30 BEGIN CTAB
M  V30 COUNTS 58 61 0 0 0
M  V30 BEGIN ATOM
M  V30 1 S -4.1099 -0.9659 -3.7871 0
M  V30 2 C -4.0416 0.1403 -2.3989 0
M  V30 3 C -2.6994 -2.01 -3.5163 0
M  V30 4 C -3.1463 -0.0129 -1.3214 0
M  V30 5 C -4.9706 1.201 -2.4314 0
M  V30 6 C -1.9171 -1.9793 -2.3441 0
M  V30 7 C -2.4066 -2.907 -4.5638 0
M  V30 8 N -2.209 -1.0848 -1.2713 0
M  V30 9 C -3.2265 0.9673 -0.3063 0
M  V30 10 C -5.0291 2.1466 -1.4072 0
M  V30 11 C -0.8233 -2.8756 -2.3053 0
M  V30 12 C -1.3292 -3.7806 -4.4822 0
M  V30 13 C -1.5412 -1.3466 0.0248 0
M  V30 14 C -4.1463 2.0264 -0.341 0
M  V30 15 C -6.031 3.2493 -1.4995 0
M  V30 16 C -0.5331 -3.7615 -3.3506 0
M  V30 17 C -0.216 -0.5806 0.1499 0
M  V30 18 O -6.7939 3.307 -2.4614 0
M  V30 19 C -6.087 4.2779 -0.4002 0
M  V30 20 C 0.4789 -0.9275 1.4718 0
M  V30 21 N 1.6673 -0.1002 1.731 0
M  V30 22 C 2.1601 -0.3397 3.1062 0
M  V30 23 C 2.7675 -0.3824 0.7842 0
M  V30 24 C 3.437 0.4672 3.4276 0
M  V30 25 C 4.0574 0.4113 1.1084 0
M  V30 26 N 4.5346 0.1791 2.4836 0
M  V30 27 C 5.7199 0.9954 2.8172 0
M  V30 28 C 7.0038 0.6191 2.056 0
M  V30 29 O 7.4547 -0.6808 2.4239 0
M  V30 30 H -5.6568 1.2899 -3.2739 0
M  V30 31 H -3.0254 -2.924 -5.4592 0
M  V30 32 H -2.559 0.9537 0.5497 0
M  V30 33 H -0.1422 -2.9079 -1.4616 0
M  V30 34 H -1.114 -4.4639 -5.2986 0
M  V30 35 H -1.3768 -2.4219 0.1724 0
M  V30 36 H -2.2039 -1.1018 0.8653 0
M  V30 37 H -4.1394 2.7378 0.4796 0
M  V30 38 H 0.3198 -4.431 -3.273 0
M  V30 39 H -0.3922 0.4997 0.0984 0
M  V30 40 H 0.4337 -0.8227 -0.6969 0
M  V30 41 H -6.3373 3.8023 0.5515 0
M  V30 42 H -5.136 4.8125 -0.3323 0
M  V30 43 H -6.8698 5.0077 -0.6304 0
M  V30 44 H -0.2446 -0.7592 2.2802 0
M  V30 45 H 0.7337 -1.9953 1.4899 0
M  V30 46 H 1.3856 -0.0469 3.8258 0
M  V30 47 H 2.3628 -1.4083 3.2611 0
M  V30 48 H 3.0016 -1.4556 0.778 0
M  V30 49 H 2.467 -0.1064 -0.2322 0
M  V30 50 H 3.1954 1.539 3.4223 0
M  V30 51 H 3.7522 0.2086 4.4459 0
M  V30 52 H 3.8685 1.4806 0.9428 0
M  V30 53 H 4.8195 0.0979 0.3871 0
M  V30 54 H 5.9355 0.8659 3.8858 0
M  V30 55 H 5.5058 2.0591 2.6527 0
M  V30 56 H 6.8644 0.6561 0.972 0
M  V30 57 H 7.7967 1.3286 2.3157 0
M  V30 58 H 8.1932 -0.9049 1.8344 0
M  V30 END ATOM
M  V30 BEGIN BOND
M  V30 1 1 1 2
M  V30 2 1 1 3
M  V30 3 2 2 4
M  V30 4 1 2 5
M  V30 5 2 3 6
M  V30 6 1 3 7
M  V30 7 1 4 8
M  V30 8 1 4 9
M  V30 9 2 5 10
M  V30 10 1 6 11
M  V30 11 2 7 12
M  V30 12 1 8 13
M  V30 13 2 9 14
M  V30 14 1 10 15
M  V30 15 2 11 16
M  V30 16 1 13 17
M  V30 17 2 15 18
M  V30 18 1 15 19
M  V30 19 1 17 20
M  V30 20 1 20 21
M  V30 21 1 21 22
M  V30 22 1 21 23
M  V30 23 1 22 24
M  V30 24 1 23 25
M  V30 25 1 24 26
M  V30 26 1 26 27
M  V30 27 1 27 28
M  V30 28 1 28 29
M  V30 29 1 6 8
M  V30 30 1 10 14
M  V30 31 1 12 16
M  V30 32 1 25 26
M  V30 33 1 5 30
M  V30 34 1 7 31
M  V30 35 1 9 32
M  V30 36 1 11 33
M  V30 37 1 12 34
M  V30 38 1 13 35
M  V30 39 1 13 36
M  V30 40 1 14 37
M  V30 41 1 16 38
M  V30 42 1 17 39
M  V30 43 1 17 40
M  V30 44 1 19 41
M  V30 45 1 19 42
M  V30 46 1 19 43
M  V30 47 1 20 44
M  V30 48 1 20 45
M  V30 49 1 22 46
M  V30 50 1 22 47
M  V30 51 1 23 48
M  V30 52 1 23 49
M  V30 53 1 24 50
M  V30 54 1 24 51
M  V30 55 1 25 52
M  V30 56 1 25 53
M  V30 57 1 27 54
M  V30 58 1 27 55
M  V30 59 1 28 56
M  V30 60 1 28 57
M  V30 61 1 29 58
M  V30 END BOND
M  V30 END CTAB
M  END
>  <NO.>
5102

>  <Name>
acetophenazine

>  <SMILES>
CC(=O)c1ccc2c(c1)Sc1ccccc1N2CCCN1CCN(CCO)CC1

>  <logBB>


>  <Class>
1

>  <MW>
411.2

>  <nHBAcc>
6

>  <nHBDon>
1

>  <SLogP>
3.49

>  <TopoPSA>
47.02

>  <MMFF94 Energy>
168.48

$$$$
CC(C(=O)O)c1ccc(C(=O)c2ccccc2)s1
Actelion Java MolfileCreator 2.0

  0  0  0  0  0  0              0 V3000
M  V30 BEGIN CTAB
M  V30 COUNTS 30 31 0 0 0
M  V30 BEGIN ATOM
M  V30 1 S 1.2187 1.5439 -0.1624 0
M  V30 2 C 0.8387 -0.1204 -0.0189 0
M  V30 3 C -0.2298 1.8915 -1.0112 0
M  V30 4 C 1.7716 -1.0003 0.6737 0
M  V30 5 C -0.3608 -0.4095 -0.6419 0
M  V30 6 C -0.9765 0.7455 -1.2056 0
M  V30 7 C -0.5172 3.309 -1.4533 0 CFG=2
M  V30 8 O 2.9742 -0.77 0.8 0
M  V30 9 C 1.2695 -2.2742 1.2593 0
M  V30 10 C -1.7809 3.8332 -0.791 0
M  V30 11 C -0.6506 3.4005 -2.9711 0
M  V30 12 C 2.0589 -3.4249 1.1396 0
M  V30 13 C 0.058 -2.3308 1.9612 0
M  V30 14 O -2.6865 3.1992 -0.2744 0
M  V30 15 O -1.8581 5.1827 -0.8387 0
M  V30 16 C 1.6224 -4.6318 1.6875 0
M  V30 17 C -0.3738 -3.5409 2.5075 0
M  V30 18 C 0.4052 -4.6894 2.3663 0
M  V30 19 H -0.7878 -1.4036 -0.702 0
M  V30 20 H -1.9287 0.7341 -1.7243 0
M  V30 21 H 0.3053 3.9612 -1.1308 0
M  V30 22 H -0.7938 4.4393 -3.2884 0
M  V30 23 H -1.5114 2.8289 -3.3367 0
M  V30 24 H 0.2456 3.0162 -3.4699 0
M  V30 25 H 3.015 -3.3815 0.6218 0
M  V30 26 H -0.5483 -1.4397 2.1054 0
M  V30 27 H -2.7027 5.3861 -0.3835 0
M  V30 28 H 2.2351 -5.5247 1.5911 0
M  V30 29 H -1.3138 -3.5867 3.0526 0
M  V30 30 H 0.0688 -5.6297 2.7969 0
M  V30 END ATOM
M  V30 BEGIN BOND
M  V30 1 1 1 2
M  V30 2 1 1 3
M  V30 3 1 2 4
M  V30 4 2 2 5
M  V30 5 2 3 6
M  V30 6 1 3 7
M  V30 7 2 4 8
M  V30 8 1 4 9
M  V30 9 1 7 10
M  V30 10 1 7 11
M  V30 11 2 9 12
M  V30 12 1 9 13
M  V30 13 2 10 14
M  V30 14 1 10 15
M  V30 15 1 12 16
M  V30 16 2 13 17
M  V30 17 2 16 18
M  V30 18 1 5 6
M  V30 19 1 17 18
M  V30 20 1 5 19
M  V30 21 1 6 20
M  V30 22 1 7 21
M  V30 23 1 11 22
M  V30 24 1 11 23
M  V30 25 1 11 24
M  V30 26 1 12 25
M  V30 27 1 13 26
M  V30 28 1 15 27
M  V30 29 1 16 28
M  V30 30 1 17 29
M  V30 31 1 18 30
M  V30 END BOND
M  V30 BEGIN COLLECTION
M  V30 MDLV30/STERAC1 ATOMS=(1 7)
M  V30 END COLLECTION
M  V30 END CTAB
M  END
>  <NO.>
5103

>  <Name>
tiaprofenic

>  <SMILES>
CC(C(=O)O)c1ccc(C(=O)c2ccccc2)s1

>  <logBB>


>  <Class>
-1

>  <MW>
260.05

>  <nHBAcc>
3

>  <nHBDon>
1

>  <SLogP>
3.17

>  <TopoPSA>
54.37

>  <MMFF94 Energy>
58.83

$$$$
CC(C(=O)O)c1ccc2oc(-c3ccc(Cl)cc3)nc2c1
Actelion Java MolfileCreator 2.0

  0  0  0  0  0  0              0 V3000
M  V30 BEGIN CTAB
M  V30 COUNTS 33 35 0 0 0
M  V30 BEGIN ATOM
M  V30 1 Cl -1.9525 4.4788 -6.2746 0
M  V30 2 C -1.5379 3.4848 -4.9334 0
M  V30 3 C -1.3491 2.1171 -5.1169 0
M  V30 4 C -1.3926 4.051 -3.6697 0
M  V30 5 C -1.0119 1.3081 -4.026 0
M  V30 6 C -1.0555 3.2403 -2.5809 0
M  V30 7 C -0.8607 1.8588 -2.7431 0
M  V30 8 C -0.5094 1.0398 -1.5845 0
M  V30 9 O -0.3362 -0.3041 -1.8094 0
M  V30 10 N -0.3326 1.4134 -0.3284 0
M  V30 11 C -0.0221 -0.8058 -0.5811 0
M  V30 12 C -0.0198 0.2449 0.3181 0
M  V30 13 C 0.2523 -2.1258 -0.2547 0
M  V30 14 C 0.2781 -0.0128 1.6634 0
M  V30 15 C 0.5474 -2.3696 1.0941 0
M  V30 16 C 0.566 -1.3387 2.0575 0
M  V30 17 C 0.8798 -1.6261 3.5223 0 CFG=2
M  V30 18 C 2.2835 -2.166 3.7461 0
M  V30 19 C -0.1451 -2.5801 4.1373 0
M  V30 20 O 3.0255 -2.6963 2.9363 0
M  V30 21 O 2.6863 -2.0246 5.0285 0
M  V30 22 H -1.4617 1.6727 -6.1024 0
M  V30 23 H -1.5387 5.1179 -3.5217 0
M  V30 24 H -0.8683 0.2417 -4.19 0
M  V30 25 H -0.944 3.6934 -1.5962 0
M  V30 26 H 0.2446 -2.9135 -0.9972 0
M  V30 27 H 0.2796 0.8089 2.3721 0
M  V30 28 H 0.7833 -3.3926 1.3885 0
M  V30 29 H 0.8287 -0.6732 4.0671 0
M  V30 30 H -0.0854 -3.5814 3.6961 0
M  V30 31 H -1.1659 -2.2082 3.9952 0
M  V30 32 H 0.0243 -2.693 5.214 0
M  V30 33 H 3.5903 -2.405 5.0335 0
M  V30 END ATOM
M  V30 BEGIN BOND
M  V30 1 1 1 2
M  V30 2 2 2 3
M  V30 3 1 2 4
M  V30 4 1 3 5
M  V30 5 2 4 6
M  V30 6 2 5 7
M  V30 7 1 7 8
M  V30 8 1 8 9
M  V30 9 2 8 10
M  V30 10 1 9 11
M  V30 11 1 10 12
M  V30 12 1 11 13
M  V30 13 1 12 14
M  V30 14 2 13 15
M  V30 15 2 14 16
M  V30 16 1 16 17
M  V30 17 1 17 18
M  V30 18 1 17 19
M  V30 19 2 18 20
M  V30 20 1 18 21
M  V30 21 1 6 7
M  V30 22 2 11 12
M  V30 23 1 15 16
M  V30 24 1 3 22
M  V30 25 1 4 23
M  V30 26 1 5 24
M  V30 27 1 6 25
M  V30 28 1 13 26
M  V30 29 1 14 27
M  V30 30 1 15 28
M  V30 31 1 17 29
M  V30 32 1 19 30
M  V30 33 1 19 31
M  V30 34 1 19 32
M  V30 35 1 21 33
M  V30 END BOND
M  V30 BEGIN COLLECTION
M  V30 MDLV30/STERAC1 ATOMS=(1 17)
M  V30 END COLLECTION
M  V30 END CTAB
M  END
>  <NO.>
5104

>  <Name>
benoxaprofen

>  <SMILES>
CC(C(=O)O)c1ccc2oc(-c3ccc(Cl)cc3)nc2c1

>  <logBB>


>  <Class>
-1

>  <MW>
301.05

>  <nHBAcc>
3

>  <nHBDon>
1

>  <SLogP>
4.34

>  <TopoPSA>
63.33

>  <MMFF94 Energy>
43.49

$$$$
CC(C)(C)NC(=O)C1CCC2C3CCC4NC(=O)C=CC4(C)C3CCC12C
Actelion Java MolfileCreator 2.0

  0  0  0  0  0  0              0 V3000
M  V30 BEGIN CTAB
M  V30 COUNTS 63 66 0 0 0
M  V30 BEGIN ATOM
M  V30 1 O -4.2285 -2.711 4.1486 0
M  V30 2 C -3.032 -2.6006 3.9171 0
M  V30 3 N -2.3757 -3.4258 3.0527 0
M  V30 4 C -2.2152 -1.5505 4.5636 0
M  V30 5 C -0.9236 -3.4815 2.9502 0
M  V30 6 C -0.966 -1.2842 4.1534 0
M  V30 7 C -0.2758 -2.0598 3.0349 0
M  V30 8 C -0.5006 -4.2641 1.7041 0
M  V30 9 C -0.4552 -1.284 1.6778 0
M  V30 10 C 1.2098 -2.2212 3.4294 0
M  V30 11 C -0.7338 -3.4778 0.4201 0
M  V30 12 C -0.016 -2.1212 0.4501 0
M  V30 13 C 0.2412 0.0925 1.6557 0
M  V30 14 C -0.1848 -1.3706 -0.8909 0
M  V30 15 C -0.0163 0.8445 0.3495 0
M  V30 16 C 0.4212 0.0531 -0.9056 0
M  V30 17 C -1.6347 -1.1552 -1.3455 0
M  V30 18 C -0.1861 0.6309 -2.2159 0
M  V30 19 C 1.9574 -0.0052 -0.9857 0
M  V30 20 C -1.6009 0.0367 -2.3005 0
M  V30 21 C -0.1718 2.1571 -2.2977 0
M  V30 22 O -1.1386 2.851 -2.0058 0
M  V30 23 N 1.0425 2.6674 -2.7078 0
M  V30 24 C 1.3574 4.0986 -2.8301 0
M  V30 25 C 0.4535 4.7747 -3.8725 0
M  V30 26 C 1.2253 4.8067 -1.4722 0
M  V30 27 C 2.8185 4.2251 -3.3 0
M  V30 28 H -2.9508 -4.1566 2.6527 0
M  V30 29 H -2.7075 -0.9735 5.3371 0
M  V30 30 H -0.6145 -4.0674 3.8275 0
M  V30 31 H -0.4303 -0.4609 4.6197 0
M  V30 32 H 0.5616 -4.5262 1.7763 0
M  V30 33 H -1.0487 -5.2128 1.6489 0
M  V30 34 H -1.5317 -1.0878 1.5681 0
M  V30 35 H 1.3117 -2.8168 4.345 0
M  V30 36 H 1.689 -1.2568 3.631 0
M  V30 37 H 1.7927 -2.7216 2.6511 0
M  V30 38 H -1.8118 -3.3402 0.2749 0
M  V30 39 H -0.3736 -4.0693 -0.4301 0
M  V30 40 H 1.0569 -2.3293 0.5537 0
M  V30 41 H 1.321 -0.0172 1.7987 0
M  V30 42 H -0.121 0.7148 2.4816 0
M  V30 43 H 0.3099 -1.9703 -1.67 0
M  V30 44 H 0.5085 1.8073 0.3903 0
M  V30 45 H -1.0856 1.0859 0.3001 0
M  V30 46 H -2.0358 -2.0452 -1.842 0
M  V30 47 H -2.3007 -0.9275 -0.5069 0
M  V30 48 H 0.3753 0.2463 -3.0797 0
M  V30 49 H 2.2882 -0.4912 -1.9103 0
M  V30 50 H 2.3922 -0.5683 -0.1546 0
M  V30 51 H 2.3969 0.997 -0.9607 0
M  V30 52 H -1.807 -0.2887 -3.3269 0
M  V30 53 H -2.39 0.7481 -2.0353 0
M  V30 54 H 1.766 2.0089 -2.9642 0
M  V30 55 H -0.5973 4.7749 -3.566 0
M  V30 56 H 0.7458 5.8188 -4.0315 0
M  V30 57 H 0.5118 4.2579 -4.8372 0
M  V30 58 H 1.5497 5.8515 -1.5379 0
M  V30 59 H 0.1926 4.8097 -1.1094 0
M  V30 60 H 1.8371 4.311 -0.7097 0
M  V30 61 H 2.9657 3.7321 -4.268 0
M  V30 62 H 3.5044 3.7524 -2.5872 0
M  V30 63 H 3.1159 5.2741 -3.4082 0
M  V30 END ATOM
M  V30 BEGIN BOND
M  V30 1 2 1 2
M  V30 2 1 2 3
M  V30 3 1 2 4
M  V30 4 1 3 5
M  V30 5 2 4 6
M  V30 6 1 5 7
M  V30 7 1 5 8
M  V30 8 1 7 9
M  V30 9 1 7 10
M  V30 10 1 8 11
M  V30 11 1 9 12
M  V30 12 1 9 13
M  V30 13 1 12 14
M  V30 14 1 13 15
M  V30 15 1 14 16
M  V30 16 1 14 17
M  V30 17 1 16 18
M  V30 18 1 16 19
M  V30 19 1 17 20
M  V30 20 1 18 21
M  V30 21 2 21 22
M  V30 22 1 21 23
M  V30 23 1 23 24
M  V30 24 1 24 25
M  V30 25 1 24 26
M  V30 26 1 24 27
M  V30 27 1 6 7
M  V30 28 1 11 12
M  V30 29 1 15 16
M  V30 30 1 18 20
M  V30 31 1 3 28
M  V30 32 1 4 29
M  V30 33 1 5 30
M  V30 34 1 6 31
M  V30 35 1 8 32
M  V30 36 1 8 33
M  V30 37 1 9 34
M  V30 38 1 10 35
M  V30 39 1 10 36
M  V30 40 1 10 37
M  V30 41 1 11 38
M  V30 42 1 11 39
M  V30 43 1 12 40
M  V30 44 1 13 41
M  V30 45 1 13 42
M  V30 46 1 14 43
M  V30 47 1 15 44
M  V30 48 1 15 45
M  V30 49 1 17 46
M  V30 50 1 17 47
M  V30 51 1 18 48
M  V30 52 1 19 49
M  V30 53 1 19 50
M  V30 54 1 19 51
M  V30 55 1 20 52
M  V30 56 1 20 53
M  V30 57 1 23 54
M  V30 58 1 25 55
M  V30 59 1 25 56
M  V30 60 1 25 57
M  V30 61 1 26 58
M  V30 62 1 26 59
M  V30 63 1 26 60
M  V30 64 1 27 61
M  V30 65 1 27 62
M  V30 66 1 27 63
M  V30 END BOND
M  V30 END CTAB
M  END
>  <NO.>
5106

>  <Name>
finasteride

>  <SMILES>
CC(C)(C)NC(=O)C1CCC2C3CCC4NC(=O)C=CC4(C)C3CCC12C

>  <logBB>


>  <Class>
-1

>  <MW>
372.28

>  <nHBAcc>
2

>  <nHBDon>
2

>  <SLogP>
3.81

>  <TopoPSA>
58.2

>  <MMFF94 Energy>
36.269

$$$$
CC(C)(C)NCC(O)COc1ccc(NC(=O)NC2CCCCC2)cc1
Actelion Java MolfileCreator 2.0

  0  0  0  0  0  0              0 V3000
M  V30 BEGIN CTAB
M  V30 COUNTS 59 60 0 0 0
M  V30 BEGIN ATOM
M  V30 1 O 3.1314 -0.7821 -0.0781 0
M  V30 2 C 2.8358 -1.3825 -1.1027 0
M  V30 3 N 1.5989 -1.4056 -1.7102 0
M  V30 4 N 3.7494 -2.1335 -1.8126 0
M  V30 5 C 0.4109 -0.8272 -1.224 0
M  V30 6 C 5.1403 -2.2565 -1.391 0
M  V30 7 C 0.2136 -0.4909 0.1143 0
M  V30 8 C -0.633 -0.6245 -2.1331 0
M  V30 9 C 5.3023 -3.3614 -0.3378 0
M  V30 10 C 6.0555 -2.4995 -2.5979 0
M  V30 11 C -1.0035 0.0585 0.5309 0
M  V30 12 C -1.8506 -0.0715 -1.7154 0
M  V30 13 C 5.147 -4.7615 -0.9299 0
M  V30 14 C 5.9173 -3.9073 -3.1778 0
M  V30 15 C -2.0373 0.279 -0.3801 0
M  V30 16 C 6.0909 -4.9802 -2.1078 0
M  V30 17 O -3.1689 0.8232 0.1575 0
M  V30 18 C -4.1844 1.2566 -0.7549 0
M  V30 19 C -5.311 1.9839 9.0E-4 0 CFG=1
M  V30 20 O -6.0425 1.0425 0.8004 0
M  V30 21 C -4.813 3.1299 0.9129 0
M  V30 22 N -4.1597 2.5897 2.1173 0
M  V30 23 C -3.5186 3.5794 3.0026 0
M  V30 24 C -2.2875 4.2171 2.3367 0
M  V30 25 C -3.0494 2.7956 4.243 0
M  V30 26 C -4.4966 4.6734 3.4588 0
M  V30 27 H 1.5717 -1.7754 -2.6465 0
M  V30 28 H 3.4071 -2.7538 -2.5284 0
M  V30 29 H 5.4256 -1.3012 -0.9327 0
M  V30 30 H 0.9863 -0.6545 0.8601 0
M  V30 31 H -0.5149 -0.8876 -3.1807 0
M  V30 32 H 6.3001 -3.2784 0.1115 0
M  V30 33 H 4.5784 -3.2298 0.475 0
M  V30 34 H 7.0973 -2.3518 -2.2856 0
M  V30 35 H 5.8527 -1.7616 -3.3834 0
M  V30 36 H -1.1394 0.3141 1.579 0
M  V30 37 H -2.6313 0.0623 -2.4564 0
M  V30 38 H 5.3482 -5.5104 -0.1554 0
M  V30 39 H 4.1111 -4.9137 -1.2561 0
M  V30 40 H 4.9352 -4.0198 -3.6521 0
M  V30 41 H 6.6646 -4.0521 -3.9663 0
M  V30 42 H 5.9123 -5.969 -2.5449 0
M  V30 43 H 7.1278 -4.9725 -1.7496 0
M  V30 44 H -4.6058 0.3809 -1.2623 0
M  V30 45 H -3.7524 1.9485 -1.4881 0
M  V30 46 H -6.0155 2.3882 -0.7342 0
M  V30 47 H -5.5869 1.0539 1.6689 0
M  V30 48 H -4.1502 3.783 0.3373 0
M  V30 49 H -5.6902 3.7084 1.2225 0
M  V30 50 H -3.45 1.9113 1.8136 0
M  V30 51 H -2.5618 4.8509 1.4872 0
M  V30 52 H -1.743 4.8497 3.0476 0
M  V30 53 H -1.5885 3.4539 1.9753 0
M  V30 54 H -2.3331 2.0096 3.9751 0
M  V30 55 H -2.5558 3.4565 4.965 0
M  V30 56 H -3.8924 2.3182 4.7568 0
M  V30 57 H -4.7994 5.323 2.6304 0
M  V30 58 H -5.4025 4.2398 3.898 0
M  V30 59 H -4.038 5.3159 4.2195 0
M  V30 END ATOM
M  V30 BEGIN BOND
M  V30 1 2 1 2
M  V30 2 1 2 3
M  V30 3 1 2 4
M  V30 4 1 3 5
M  V30 5 1 4 6
M  V30 6 2 5 7
M  V30 7 1 5 8
M  V30 8 1 6 9
M  V30 9 1 6 10
M  V30 10 1 7 11
M  V30 11 2 8 12
M  V30 12 1 9 13
M  V30 13 1 10 14
M  V30 14 2 11 15
M  V30 15 1 13 16
M  V30 16 1 15 17
M  V30 17 1 17 18
M  V30 18 1 18 19
M  V30 19 1 19 20
M  V30 20 1 19 21
M  V30 21 1 21 22
M  V30 22 1 22 23
M  V30 23 1 23 24
M  V30 24 1 23 25
M  V30 25 1 23 26
M  V30 26 1 12 15
M  V30 27 1 14 16
M  V30 28 1 3 27
M  V30 29 1 4 28
M  V30 30 1 6 29
M  V30 31 1 7 30
M  V30 32 1 8 31
M  V30 33 1 9 32
M  V30 34 1 9 33
M  V30 35 1 10 34
M  V30 36 1 10 35
M  V30 37 1 11 36
M  V30 38 1 12 37
M  V30 39 1 13 38
M  V30 40 1 13 39
M  V30 41 1 14 40
M  V30 42 1 14 41
M  V30 43 1 16 42
M  V30 44 1 16 43
M  V30 45 1 18 44
M  V30 46 1 18 45
M  V30 47 1 19 46
M  V30 48 1 20 47
M  V30 49 1 21 48
M  V30 50 1 21 49
M  V30 51 1 22 50
M  V30 52 1 24 51
M  V30 53 1 24 52
M  V30 54 1 24 53
M  V30 55 1 25 54
M  V30 56 1 25 55
M  V30 57 1 25 56
M  V30 58 1 26 57
M  V30 59 1 26 58
M  V30 60 1 26 59
M  V30 END BOND
M  V30 BEGIN COLLECTION
M  V30 MDLV30/STERAC1 ATOMS=(1 19)
M  V30 END COLLECTION
M  V30 END CTAB
M  END
>  <NO.>
5107

>  <Name>
talinolol

>  <SMILES>
CC(C)(C)NCC(O)COc1ccc(NC(=O)NC2CCCCC2)cc1

>  <logBB>


>  <Class>
-1

>  <MW>
363.25

>  <nHBAcc>
4

>  <nHBDon>
4

>  <SLogP>
3.27

>  <TopoPSA>
82.62

>  <MMFF94 Energy>
-18.871

$$$$
CC(C)(C)NCC(O)COc1nsnc1N1CCOCC1
Actelion Java MolfileCreator 2.0

  0  0  0  0  0  0              0 V3000
M  V30 BEGIN CTAB
M  V30 COUNTS 45 46 0 0 0
M  V30 BEGIN ATOM
M  V30 1 S 0.2393 2.5549 3.7543 0
M  V30 2 N -0.18 1.8681 2.2966 0
M  V30 3 N 1.7026 1.8158 4.0262 0
M  V30 4 C 0.8266 1.0368 2.0161 0
M  V30 5 C 1.9143 0.9796 2.9992 0
M  V30 6 O 0.7903 0.3365 0.8486 0
M  V30 7 N 3.0425 0.1938 2.9171 0
M  V30 8 C -0.363 0.5809 0.0291 0
M  V30 9 C 3.2641 -0.788 1.8483 0
M  V30 10 C 4.2655 0.6313 3.6177 0
M  V30 11 C -0.2101 -0.2664 -1.24 0 CFG=1
M  V30 12 C 4.2335 -1.895 2.2941 0
M  V30 13 C 5.1586 -0.5606 3.9795 0
M  V30 14 O -0.2439 -1.6631 -0.9108 0
M  V30 15 C -1.2717 0.0516 -2.32 0
M  V30 16 O 5.4515 -1.3618 2.8269 0
M  V30 17 N -2.6587 -0.1006 -1.8595 0
M  V30 18 C -3.7112 0.1218 -2.8677 0
M  V30 19 C -3.7202 1.5755 -3.3687 0
M  V30 20 C -5.0501 -0.1574 -2.1566 0
M  V30 21 C -3.5884 -0.8428 -4.0584 0
M  V30 22 H -0.4158 1.6419 -0.244 0
M  V30 23 H -1.2613 0.2721 0.5777 0
M  V30 24 H 3.6759 -0.2689 0.9749 0
M  V30 25 H 2.3361 -1.2888 1.5575 0
M  V30 26 H 4.0451 1.1795 4.5405 0
M  V30 27 H 4.8152 1.3059 2.9495 0
M  V30 28 H 0.7831 -0.0871 -1.6695 0
M  V30 29 H 4.4918 -2.5258 1.4373 0
M  V30 30 H 3.7667 -2.5403 3.0485 0
M  V30 31 H 4.6869 -1.1888 4.745 0
M  V30 32 H 6.1099 -0.2016 4.3852 0
M  V30 33 H 0.2377 -1.7671 -0.0719 0
M  V30 34 H -1.1028 1.0763 -2.668 0
M  V30 35 H -1.088 -0.6301 -3.1566 0
M  V30 36 H -2.833 0.4972 -1.0538 0
M  V30 37 H -2.8252 1.8122 -3.9539 0
M  V30 38 H -4.5861 1.7611 -4.015 0
M  V30 39 H -3.7754 2.285 -2.5346 0
M  V30 40 H -5.2031 0.5178 -1.306 0
M  V30 41 H -5.8969 -0.0199 -2.8394 0
M  V30 42 H -5.0954 -1.186 -1.7791 0
M  V30 43 H -2.7098 -0.6258 -4.675 0
M  V30 44 H -3.5184 -1.8837 -3.7217 0
M  V30 45 H -4.4641 -0.7684 -4.714 0
M  V30 END ATOM
M  V30 BEGIN BOND
M  V30 1 1 1 2
M  V30 2 1 1 3
M  V30 3 2 2 4
M  V30 4 2 3 5
M  V30 5 1 4 6
M  V30 6 1 5 7
M  V30 7 1 6 8
M  V30 8 1 7 9
M  V30 9 1 7 10
M  V30 10 1 8 11
M  V30 11 1 9 12
M  V30 12 1 10 13
M  V30 13 1 11 14
M  V30 14 1 11 15
M  V30 15 1 12 16
M  V30 16 1 15 17
M  V30 17 1 17 18
M  V30 18 1 18 19
M  V30 19 1 18 20
M  V30 20 1 18 21
M  V30 21 1 4 5
M  V30 22 1 13 16
M  V30 23 1 8 22
M  V30 24 1 8 23
M  V30 25 1 9 24
M  V30 26 1 9 25
M  V30 27 1 10 26
M  V30 28 1 10 27
M  V30 29 1 11 28
M  V30 30 1 12 29
M  V30 31 1 12 30
M  V30 32 1 13 31
M  V30 33 1 13 32
M  V30 34 1 14 33
M  V30 35 1 15 34
M  V30 36 1 15 35
M  V30 37 1 17 36
M  V30 38 1 19 37
M  V30 39 1 19 38
M  V30 40 1 19 39
M  V30 41 1 20 40
M  V30 42 1 20 41
M  V30 43 1 20 42
M  V30 44 1 21 43
M  V30 45 1 21 44
M  V30 46 1 21 45
M  V30 END BOND
M  V30 BEGIN COLLECTION
M  V30 MDLV30/STERAC1 ATOMS=(1 11)
M  V30 END COLLECTION
M  V30 END CTAB
M  END
>  <NO.>
5108

>  <Name>
timolol

>  <SMILES>
CC(C)(C)NCC(O)COc1nsnc1N1CCOCC1

>  <logBB>


>  <Class>
-1

>  <MW>
316.16

>  <nHBAcc>
8

>  <nHBDon>
2

>  <SLogP>
0.5

>  <TopoPSA>
79.74

>  <MMFF94 Energy>
107.74

$$$$
CC(C)(C)NCC(O)c1cc(Br)no1
Actelion Java MolfileCreator 2.0

  0  0  0  0  0  0              0 V3000
M  V30 BEGIN CTAB
M  V30 COUNTS 29 29 0 0 0
M  V30 BEGIN ATOM
M  V30 1 Br -1.0374 -1.7562 -5.1155 0
M  V30 2 C -1.3175 -0.5392 -3.714 0
M  V30 3 N -1.1376 0.7761 -3.83 0
M  V30 4 C -1.7352 -0.918 -2.4312 0
M  V30 5 O -1.4504 1.2916 -2.5806 0
M  V30 6 C -1.8028 0.2726 -1.7438 0
M  V30 7 C -2.1505 0.6672 -0.3537 0 CFG=1
M  V30 8 O -2.8533 -0.4256 0.2484 0
M  V30 9 C -0.8948 1.0024 0.4866 0
M  V30 10 N -0.2429 -0.2284 0.9936 0
M  V30 11 C 1.2108 -0.1144 1.2351 0
M  V30 12 C 1.9778 0.0104 -0.0921 0
M  V30 13 C 1.6415 -1.4286 1.9158 0
M  V30 14 C 1.5594 1.0561 2.1688 0
M  V30 15 H -1.9558 -1.903 -2.0505 0
M  V30 16 H -2.8268 1.5287 -0.3735 0
M  V30 17 H -2.1471 -1.0656 0.4662 0
M  V30 18 H -0.2222 1.635 -0.101 0
M  V30 19 H -1.2071 1.5887 1.3598 0
M  V30 20 H -0.6932 -0.4659 1.8822 0
M  V30 21 H 1.7818 0.96 -0.5998 0
M  V30 22 H 3.0598 -0.0447 0.0762 0
M  V30 23 H 1.712 -0.7988 -0.7823 0
M  V30 24 H 1.414 -2.2982 1.2875 0
M  V30 25 H 2.7202 -1.4372 2.1112 0
M  V30 26 H 1.1331 -1.569 2.8773 0
M  V30 27 H 1.3374 2.0264 1.7117 0
M  V30 28 H 1.0023 0.993 3.1108 0
M  V30 29 H 2.6271 1.0532 2.4172 0
M  V30 END ATOM
M  V30 BEGIN BOND
M  V30 1 1 1 2
M  V30 2 2 2 3
M  V30 3 1 2 4
M  V30 4 1 3 5
M  V30 5 2 4 6
M  V30 6 1 6 7
M  V30 7 1 7 8
M  V30 8 1 7 9
M  V30 9 1 9 10
M  V30 10 1 10 11
M  V30 11 1 11 12
M  V30 12 1 11 13
M  V30 13 1 11 14
M  V30 14 1 5 6
M  V30 15 1 4 15
M  V30 16 1 7 16
M  V30 17 1 8 17
M  V30 18 1 9 18
M  V30 19 1 9 19
M  V30 20 1 10 20
M  V30 21 1 12 21
M  V30 22 1 12 22
M  V30 23 1 12 23
M  V30 24 1 13 24
M  V30 25 1 13 25
M  V30 26 1 13 26
M  V30 27 1 14 27
M  V30 28 1 14 28
M  V30 29 1 14 29
M  V30 END BOND
M  V30 BEGIN COLLECTION
M  V30 MDLV30/STERAC1 ATOMS=(1 7)
M  V30 END COLLECTION
M  V30 END CTAB
M  END
>  <NO.>
5109

>  <Name>
broxaterol

>  <SMILES>
CC(C)(C)NCC(O)c1cc(Br)no1

>  <logBB>


>  <Class>
-1

>  <MW>
262.03

>  <nHBAcc>
4

>  <nHBDon>
2

>  <SLogP>
1.86

>  <TopoPSA>
58.29

>  <MMFF94 Energy>
32.277

$$$$
CC(C)(C)NCC(O)c1cc(Cl)c(N)c(Cl)c1
Actelion Java MolfileCreator 2.0

  0  0  0  0  0  0              0 V3000
M  V30 BEGIN CTAB
M  V30 COUNTS 35 35 0 0 0
M  V30 BEGIN ATOM
M  V30 1 Cl -1.9972 -0.3992 -3.4372 0
M  V30 2 C -1.8985 -1.3757 -2.0086 0
M  V30 3 C -2.5208 -2.6347 -1.9595 0
M  V30 4 C -1.1773 -0.8697 -0.9178 0
M  V30 5 N -3.2616 -3.1206 -3.0362 0
M  V30 6 C -2.4023 -3.364 -0.7653 0
M  V30 7 C -1.0634 -1.6019 0.2697 0
M  V30 8 Cl -3.1411 -4.9223 -0.6039 0
M  V30 9 C -1.6831 -2.8618 0.3258 0
M  V30 10 C -0.2936 -1.1215 1.4864 0 CFG=1
M  V30 11 O 0.8685 -1.9479 1.6323 0
M  V30 12 C 0.1438 0.3695 1.5293 0
M  V30 13 N 1.3033 0.6342 0.6546 0
M  V30 14 C 1.7288 2.0446 0.5587 0
M  V30 15 C 0.6478 2.9176 -0.0994 0
M  V30 16 C 2.9739 2.0535 -0.3494 0
M  V30 17 C 2.118 2.6314 1.9255 0
M  V30 18 H -0.7025 0.1034 -1.0178 0
M  V30 19 H -3.6566 -4.0521 -2.9945 0
M  V30 20 H -3.2884 -2.5986 -3.9036 0
M  V30 21 H -1.5984 -3.4602 1.2324 0
M  V30 22 H -0.9245 -1.293 2.368 0
M  V30 23 H 1.2859 -1.9618 0.7516 0
M  V30 24 H -0.7134 1.003 1.2815 0
M  V30 25 H 0.4384 0.5888 2.5623 0
M  V30 26 H 2.0836 0.0809 1.0186 0
M  V30 27 H -0.2372 3.028 0.5357 0
M  V30 28 H 1.0276 3.9273 -0.2959 0
M  V30 29 H 0.3253 2.4975 -1.059 0
M  V30 30 H 2.7479 1.6461 -1.3422 0
M  V30 31 H 3.353 3.0725 -0.4909 0
M  V30 32 H 3.7886 1.4574 0.0791 0
M  V30 33 H 1.252 2.7331 2.5884 0
M  V30 34 H 2.8603 2.0039 2.4321 0
M  V30 35 H 2.5551 3.6305 1.8121 0
M  V30 END ATOM
M  V30 BEGIN BOND
M  V30 1 1 1 2
M  V30 2 2 2 3
M  V30 3 1 2 4
M  V30 4 1 3 5
M  V30 5 1 3 6
M  V30 6 2 4 7
M  V30 7 1 6 8
M  V30 8 2 6 9
M  V30 9 1 7 10
M  V30 10 1 10 11
M  V30 11 1 10 12
M  V30 12 1 12 13
M  V30 13 1 13 14
M  V30 14 1 14 15
M  V30 15 1 14 16
M  V30 16 1 14 17
M  V30 17 1 7 9
M  V30 18 1 4 18
M  V30 19 1 5 19
M  V30 20 1 5 20
M  V30 21 1 9 21
M  V30 22 1 10 22
M  V30 23 1 11 23
M  V30 24 1 12 24
M  V30 25 1 12 25
M  V30 26 1 13 26
M  V30 27 1 15 27
M  V30 28 1 15 28
M  V30 29 1 15 29
M  V30 30 1 16 30
M  V30 31 1 16 31
M  V30 32 1 16 32
M  V30 33 1 17 33
M  V30 34 1 17 34
M  V30 35 1 17 35
M  V30 END BOND
M  V30 BEGIN COLLECTION
M  V30 MDLV30/STERAC1 ATOMS=(1 10)
M  V30 END COLLECTION
M  V30 END CTAB
M  END
>  <NO.>
5110

>  <Name>
clenbuterol

>  <SMILES>
CC(C)(C)NCC(O)c1cc(Cl)c(N)c(Cl)c1

>  <logBB>


>  <Class>
-1

>  <MW>
276.08

>  <nHBAcc>
3

>  <nHBDon>
3

>  <SLogP>
3

>  <TopoPSA>
58.28

>  <MMFF94 Energy>
85.008

$$$$
CC(C)(N)Cc1ccccc1
Actelion Java MolfileCreator 2.0

  0  0  0  0  0  0              0 V3000
M  V30 BEGIN CTAB
M  V30 COUNTS 26 26 0 0 0
M  V30 BEGIN ATOM
M  V30 1 N -0.7755 -0.4652 2.0173 0
M  V30 2 C 0.3948 -0.9819 1.2891 0
M  V30 3 C 0.1185 -1.1409 -0.2355 0
M  V30 4 C 1.5785 -0.0417 1.5615 0
M  V30 5 C 0.718 -2.3676 1.8743 0
M  V30 6 C -0.3024 0.1088 -0.9784 0
M  V30 7 C -1.6585 0.4461 -1.0956 0
M  V30 8 C 0.6553 0.9462 -1.5667 0
M  V30 9 C -2.0463 1.6012 -1.7765 0
M  V30 10 C 0.266 2.1012 -2.2471 0
M  V30 11 C -1.0841 2.4292 -2.3506 0
M  V30 12 H -1.5916 -1.0379 1.8079 0
M  V30 13 H -0.9956 0.47 1.6698 0
M  V30 14 H -0.6594 -1.9028 -0.3882 0
M  V30 15 H 1.0122 -1.5509 -0.7266 0
M  V30 16 H 2.4739 -0.3721 1.0229 0
M  V30 17 H 1.8287 -0.0153 2.6291 0
M  V30 18 H 1.3643 0.9883 1.2566 0
M  V30 19 H -0.1113 -3.0692 1.726 0
M  V30 20 H 1.6057 -2.7978 1.3964 0
M  V30 21 H 0.9176 -2.3134 2.9513 0
M  V30 22 H -2.4238 -0.1914 -0.659 0
M  V30 23 H 1.7137 0.7052 -1.4973 0
M  V30 24 H -3.1 1.8541 -1.861 0
M  V30 25 H 1.0173 2.7449 -2.6972 0
M  V30 26 H -1.3863 3.3283 -2.8811 0
M  V30 END ATOM
M  V30 BEGIN BOND
M  V30 1 1 1 2
M  V30 2 1 2 3
M  V30 3 1 2 4
M  V30 4 1 2 5
M  V30 5 1 3 6
M  V30 6 2 6 7
M  V30 7 1 6 8
M  V30 8 1 7 9
M  V30 9 2 8 10
M  V30 10 2 9 11
M  V30 11 1 10 11
M  V30 12 1 1 12
M  V30 13 1 1 13
M  V30 14 1 3 14
M  V30 15 1 3 15
M  V30 16 1 4 16
M  V30 17 1 4 17
M  V30 18 1 4 18
M  V30 19 1 5 19
M  V30 20 1 5 20
M  V30 21 1 5 21
M  V30 22 1 7 22
M  V30 23 1 8 23
M  V30 24 1 9 24
M  V30 25 1 10 25
M  V30 26 1 11 26
M  V30 END BOND
M  V30 END CTAB
M  END
>  <NO.>
5113

>  <Name>
phentermine

>  <SMILES>
CC(C)(N)Cc1ccccc1

>  <logBB>


>  <Class>
1

>  <MW>
149.12

>  <nHBAcc>
1

>  <nHBDon>
1

>  <SLogP>
1.97

>  <TopoPSA>
26.02

>  <MMFF94 Energy>
34.89

$$$$
CC(C)(Oc1ccc(C2CC2(Cl)Cl)cc1)C(=O)O
Actelion Java MolfileCreator 2.0

  0  0  0  0  0  0              0 V3000
M  V30 BEGIN CTAB
M  V30 COUNTS 32 33 0 0 0
M  V30 BEGIN ATOM
M  V30 1 Cl -2.3693 3.5146 2.5328 0
M  V30 2 C -1.4797 4.3731 1.2837 0
M  V30 3 Cl -0.8494 5.9287 1.8249 0
M  V30 4 C -0.7 3.6411 0.2116 0 CFG=2
M  V30 5 C -2.0227 4.2905 -0.1159 0
M  V30 6 C -0.5404 2.1374 0.1913 0
M  V30 7 C 0.102 1.4626 1.2444 0
M  V30 8 C -1.1112 1.3475 -0.8225 0
M  V30 9 C 0.2087 0.0691 1.2628 0
M  V30 10 C -1.0066 -0.0468 -0.811 0
M  V30 11 C -0.3137 -0.6786 0.2139 0
M  V30 12 O -0.2534 -2.0396 0.271 0
M  V30 13 C 0.8495 -2.6635 -0.4248 0
M  V30 14 C 0.8367 -4.1171 0.0732 0
M  V30 15 C 0.6151 -2.6687 -1.9412 0
M  V30 16 C 2.2305 -2.0803 -0.0933 0
M  V30 17 O 0.785 -5.1292 -0.6102 0
M  V30 18 O 0.9111 -4.2318 1.4191 0
M  V30 19 H 0.1742 4.1658 -0.1726 0
M  V30 20 H -2.8933 3.6671 -0.2832 0
M  V30 21 H -2.0089 5.1854 -0.7269 0
M  V30 22 H 0.5213 2.0294 2.0741 0
M  V30 23 H -1.6521 1.8225 -1.6386 0
M  V30 24 H 0.6916 -0.4268 2.1003 0
M  V30 25 H -1.4805 -0.629 -1.5955 0
M  V30 26 H 0.7014 -1.6628 -2.3647 0
M  V30 27 H -0.3899 -3.0348 -2.1805 0
M  V30 28 H 1.3415 -3.3042 -2.46 0
M  V30 29 H 2.3878 -2.0149 0.9891 0
M  V30 30 H 3.0325 -2.7003 -0.5097 0
M  V30 31 H 2.3484 -1.0692 -0.4982 0
M  V30 32 H 0.8522 -5.1962 1.5793 0
M  V30 END ATOM
M  V30 BEGIN BOND
M  V30 1 1 1 2
M  V30 2 1 2 3
M  V30 3 1 2 4
M  V30 4 1 2 5
M  V30 5 1 4 6
M  V30 6 2 6 7
M  V30 7 1 6 8
M  V30 8 1 7 9
M  V30 9 2 8 10
M  V30 10 2 9 11
M  V30 11 1 11 12
M  V30 12 1 12 13
M  V30 13 1 13 14
M  V30 14 1 13 15
M  V30 15 1 13 16
M  V30 16 2 14 17
M  V30 17 1 14 18
M  V30 18 1 4 5
M  V30 19 1 10 11
M  V30 20 1 4 19
M  V30 21 1 5 20
M  V30 22 1 5 21
M  V30 23 1 7 22
M  V30 24 1 8 23
M  V30 25 1 9 24
M  V30 26 1 10 25
M  V30 27 1 15 26
M  V30 28 1 15 27
M  V30 29 1 15 28
M  V30 30 1 16 29
M  V30 31 1 16 30
M  V30 32 1 16 31
M  V30 33 1 18 32
M  V30 END BOND
M  V30 BEGIN COLLECTION
M  V30 MDLV30/STERAC1 ATOMS=(1 4)
M  V30 END COLLECTION
M  V30 END CTAB
M  END
>  <NO.>
5114

>  <Name>
ciprofibrate

>  <SMILES>
CC(C)(Oc1ccc(C2CC2(Cl)Cl)cc1)C(=O)O

>  <logBB>


>  <Class>
-1

>  <MW>
288.03

>  <nHBAcc>
2

>  <nHBDon>
1

>  <SLogP>
3.59

>  <TopoPSA>
46.53

>  <MMFF94 Energy>
35.734

$$$$
CC(C)(Oc1ccc(CCNC(=O)c2ccc(Cl)cc2)cc1)C(=O)O
Actelion Java MolfileCreator 2.0

  0  0  0  0  0  0              0 V3000
M  V30 BEGIN CTAB
M  V30 COUNTS 45 46 0 0 0
M  V30 BEGIN ATOM
M  V30 1 Cl -9.6081 -1.9159 -1.1173 0
M  V30 2 C -7.9633 -1.638 -0.6976 0
M  V30 3 C -7.2085 -0.7207 -1.4287 0
M  V30 4 C -7.3918 -2.3354 0.3646 0
M  V30 5 C -5.8705 -0.491 -1.0915 0
M  V30 6 C -6.0551 -2.1086 0.7029 0
M  V30 7 C -5.292 -1.1766 -0.0144 0
M  V30 8 C -3.8712 -0.9751 0.3831 0
M  V30 9 O -3.2524 -1.8818 0.9281 0
M  V30 10 N -3.329 0.2673 0.1289 0
M  V30 11 C -1.957 0.5789 0.4872 0
M  V30 12 C -0.9511 -0.0107 -0.5042 0
M  V30 13 C 0.4667 0.363 -0.1499 0
M  V30 14 C 1.0845 1.4703 -0.7468 0
M  V30 15 C 1.168 -0.3708 0.8169 0
M  V30 16 C 2.3899 1.8234 -0.3983 0
M  V30 17 C 2.4719 -0.0151 1.1645 0
M  V30 18 C 3.0914 1.058 0.5288 0
M  V30 19 O 4.346 1.4291 0.9166 0
M  V30 20 C 5.4414 0.8904 0.1417 0
M  V30 21 C 6.6919 1.2442 0.9618 0
M  V30 22 C 5.4201 -0.6358 -0.0219 0
M  V30 23 C 5.5491 1.5786 -1.2255 0
M  V30 24 O 7.6741 1.8624 0.5775 0
M  V30 25 O 6.6575 0.7842 2.2335 0
M  V30 26 H -7.653 -0.1899 -2.2671 0
M  V30 27 H -7.9755 -3.0572 0.9303 0
M  V30 28 H -5.2911 0.2002 -1.6963 0
M  V30 29 H -5.6083 -2.6591 1.5294 0
M  V30 30 H -3.9091 1.0152 -0.2239 0
M  V30 31 H -1.7689 0.2057 1.501 0
M  V30 32 H -1.8751 1.6714 0.5157 0
M  V30 33 H -1.038 -1.1039 -0.5406 0
M  V30 34 H -1.1825 0.3342 -1.5203 0
M  V30 35 H 0.5511 2.0711 -1.4797 0
M  V30 36 H 0.6967 -1.2184 1.3116 0
M  V30 37 H 2.8488 2.7001 -0.8454 0
M  V30 38 H 2.9993 -0.5738 1.9327 0
M  V30 39 H 4.6032 -0.959 -0.6761 0
M  V30 40 H 5.2812 -1.1394 0.9412 0
M  V30 41 H 6.3576 -1.0006 -0.4567 0
M  V30 42 H 5.514 2.669 -1.1188 0
M  V30 43 H 6.4822 1.3167 -1.7369 0
M  V30 44 H 4.7242 1.2921 -1.886 0
M  V30 45 H 7.4891 1.1171 2.6292 0
M  V30 END ATOM
M  V30 BEGIN BOND
M  V30 1 1 1 2
M  V30 2 2 2 3
M  V30 3 1 2 4
M  V30 4 1 3 5
M  V30 5 2 4 6
M  V30 6 2 5 7
M  V30 7 1 7 8
M  V30 8 2 8 9
M  V30 9 1 8 10
M  V30 10 1 10 11
M  V30 11 1 11 12
M  V30 12 1 12 13
M  V30 13 2 13 14
M  V30 14 1 13 15
M  V30 15 1 14 16
M  V30 16 2 15 17
M  V30 17 2 16 18
M  V30 18 1 18 19
M  V30 19 1 19 20
M  V30 20 1 20 21
M  V30 21 1 20 22
M  V30 22 1 20 23
M  V30 23 2 21 24
M  V30 24 1 21 25
M  V30 25 1 6 7
M  V30 26 1 17 18
M  V30 27 1 3 26
M  V30 28 1 4 27
M  V30 29 1 5 28
M  V30 30 1 6 29
M  V30 31 1 10 30
M  V30 32 1 11 31
M  V30 33 1 11 32
M  V30 34 1 12 33
M  V30 35 1 12 34
M  V30 36 1 14 35
M  V30 37 1 15 36
M  V30 38 1 16 37
M  V30 39 1 17 38
M  V30 40 1 22 39
M  V30 41 1 22 40
M  V30 42 1 22 41
M  V30 43 1 23 42
M  V30 44 1 23 43
M  V30 45 1 23 44
M  V30 46 1 25 45
M  V30 END BOND
M  V30 END CTAB
M  END
>  <NO.>
5115

>  <Name>
bezafibrate

>  <SMILES>
CC(C)(Oc1ccc(CCNC(=O)c2ccc(Cl)cc2)cc1)C(=O)O

>  <logBB>


>  <Class>
-1

>  <MW>
361.11

>  <nHBAcc>
3

>  <nHBDon>
2

>  <SLogP>
3.55

>  <TopoPSA>
75.63

>  <MMFF94 Energy>
59.627

$$$$
CC(C)(S)C(N)C(=O)O
Actelion Java MolfileCreator 2.0

  0  0  0  0  0  0              0 V3000
M  V30 BEGIN CTAB
M  V30 COUNTS 20 19 0 0 0
M  V30 BEGIN ATOM
M  V30 1 S 1.0322 -1.4294 1.4294 0
M  V30 2 C -0.1568 -0.6508 0.2425 0
M  V30 3 C 0.1768 0.8584 0.0222 0 CFG=2
M  V30 4 C -0.1093 -1.4688 -1.0581 0
M  V30 5 C -1.5518 -0.8102 0.8785 0
M  V30 6 N -0.8075 1.5513 -0.8514 0
M  V30 7 C 1.5874 1.0671 -0.5585 0
M  V30 8 O 1.9385 0.9655 -1.7229 0
M  V30 9 O 2.4811 1.4476 0.3808 0
M  V30 10 H 0.8192 -0.5859 2.4508 0
M  V30 11 H 0.1432 1.386 0.9853 0
M  V30 12 H -0.8026 -1.0647 -1.8043 0
M  V30 13 H -0.4007 -2.5126 -0.8884 0
M  V30 14 H 0.8892 -1.4766 -1.5076 0
M  V30 15 H -1.6429 -0.2282 1.8033 0
M  V30 16 H -1.7767 -1.8576 1.1145 0
M  V30 17 H -2.3408 -0.4695 0.1985 0
M  V30 18 H -1.6841 1.6786 -0.3488 0
M  V30 19 H -0.4634 2.4872 -1.0697 0
M  V30 20 H 3.3202 1.5256 -0.1207 0
M  V30 END ATOM
M  V30 BEGIN BOND
M  V30 1 1 1 2
M  V30 2 1 2 3
M  V30 3 1 2 4
M  V30 4 1 2 5
M  V30 5 1 3 6
M  V30 6 1 3 7
M  V30 7 2 7 8
M  V30 8 1 7 9
M  V30 9 1 1 10
M  V30 10 1 3 11
M  V30 11 1 4 12
M  V30 12 1 4 13
M  V30 13 1 4 14
M  V30 14 1 5 15
M  V30 15 1 5 16
M  V30 16 1 5 17
M  V30 17 1 6 18
M  V30 18 1 6 19
M  V30 19 1 9 20
M  V30 END BOND
M  V30 BEGIN COLLECTION
M  V30 MDLV30/STERAC1 ATOMS=(1 3)
M  V30 END COLLECTION
M  V30 END CTAB
M  END
>  <NO.>
5116

>  <Name>
penicillamine

>  <SMILES>
CC(C)(S)C(N)C(=O)O

>  <logBB>


>  <Class>
-1

>  <MW>
149.05

>  <nHBAcc>
3

>  <nHBDon>
3

>  <SLogP>
0.11

>  <TopoPSA>
63.32

>  <MMFF94 Energy>
53.822

$$$$
CC(C)C1CCC(C(=O)NC(Cc2ccccc2)C(=O)O)CC1
Actelion Java MolfileCreator 2.0

  0  0  0  0  0  0              0 V3000
M  V30 BEGIN CTAB
M  V30 COUNTS 50 51 0 0 0
M  V30 BEGIN ATOM
M  V30 1 O -1.4195 0.6306 -0.5518 0
M  V30 2 C -0.5192 0.0581 0.0524 0
M  V30 3 N -0.3376 0.2049 1.405 0
M  V30 4 C 0.4776 -0.8981 -0.6055 0
M  V30 5 C -1.1883 1.0708 2.2234 0 CFG=2
M  V30 6 C 1.9076 -0.3555 -0.5537 0
M  V30 7 C 0.086 -1.2598 -2.0401 0
M  V30 8 C -0.442 1.3935 3.5152 0
M  V30 9 C -2.5793 0.4752 2.499 0
M  V30 10 C 2.1427 0.7871 -1.5401 0
M  V30 11 C 0.3567 -0.1466 -3.0538 0
M  V30 12 O 0.6269 0.9166 3.8701 0
M  V30 13 O -1.0567 2.3206 4.2776 0
M  V30 14 C -2.5643 -0.8706 3.1914 0
M  V30 15 C 1.7976 0.3956 -2.9898 0
M  V30 16 C -2.517 -2.0529 2.4396 0
M  V30 17 C -2.587 -0.9563 4.59 0
M  V30 18 C 2.0105 1.5848 -3.9762 0
M  V30 19 C -2.4842 -3.2952 3.074 0
M  V30 20 C -2.5536 -2.2 5.2227 0
M  V30 21 C 3.4467 2.1232 -3.9371 0
M  V30 22 C 1.6744 1.2061 -5.4245 0
M  V30 23 C -2.5005 -3.3683 4.4652 0
M  V30 24 H 0.3988 -0.3028 1.8855 0
M  V30 25 H 0.4396 -1.8211 -0.01 0
M  V30 26 H -1.3017 2.0146 1.6752 0
M  V30 27 H 2.1652 -0.0123 0.4546 0
M  V30 28 H 2.6038 -1.1711 -0.7887 0
M  V30 29 H 0.656 -2.1477 -2.3436 0
M  V30 30 H -0.973 -1.5407 -2.0878 0
M  V30 31 H -3.1307 0.3723 1.5554 0
M  V30 32 H -3.1721 1.1741 3.1037 0
M  V30 33 H 1.5517 1.6613 -1.2395 0
M  V30 34 H 3.1967 1.0743 -1.4636 0
M  V30 35 H -0.3513 0.676 -2.8996 0
M  V30 36 H 0.1489 -0.5539 -4.0493 0
M  V30 37 H -0.4516 2.4401 5.0403 0
M  V30 38 H 2.4741 -0.4181 -3.2868 0
M  V30 39 H -2.5099 -2.0113 1.3522 0
M  V30 40 H -2.6362 -0.0562 5.1986 0
M  V30 41 H 1.3416 2.4057 -3.6853 0
M  V30 42 H -2.4495 -4.2059 2.482 0
M  V30 43 H -2.5719 -2.2578 6.308 0
M  V30 44 H 3.5972 2.8928 -4.7022 0
M  V30 45 H 4.1739 1.324 -4.1147 0
M  V30 46 H 3.6743 2.5906 -2.9745 0
M  V30 47 H 2.2373 0.3225 -5.7432 0
M  V30 48 H 0.6072 0.9997 -5.5481 0
M  V30 49 H 1.9164 2.026 -6.1098 0
M  V30 50 H -2.4767 -4.3361 4.9591 0
M  V30 END ATOM
M  V30 BEGIN BOND
M  V30 1 2 1 2
M  V30 2 1 2 3
M  V30 3 1 2 4
M  V30 4 1 3 5
M  V30 5 1 4 6
M  V30 6 1 4 7
M  V30 7 1 5 8
M  V30 8 1 5 9
M  V30 9 1 6 10
M  V30 10 1 7 11
M  V30 11 2 8 12
M  V30 12 1 8 13
M  V30 13 1 9 14
M  V30 14 1 10 15
M  V30 15 2 14 16
M  V30 16 1 14 17
M  V30 17 1 15 18
M  V30 18 1 16 19
M  V30 19 2 17 20
M  V30 20 1 18 21
M  V30 21 1 18 22
M  V30 22 2 19 23
M  V30 23 1 11 15
M  V30 24 1 20 23
M  V30 25 1 3 24
M  V30 26 1 4 25
M  V30 27 1 5 26
M  V30 28 1 6 27
M  V30 29 1 6 28
M  V30 30 1 7 29
M  V30 31 1 7 30
M  V30 32 1 9 31
M  V30 33 1 9 32
M  V30 34 1 10 33
M  V30 35 1 10 34
M  V30 36 1 11 35
M  V30 37 1 11 36
M  V30 38 1 13 37
M  V30 39 1 15 38
M  V30 40 1 16 39
M  V30 41 1 17 40
M  V30 42 1 18 41
M  V30 43 1 19 42
M  V30 44 1 20 43
M  V30 45 1 21 44
M  V30 46 1 21 45
M  V30 47 1 21 46
M  V30 48 1 22 47
M  V30 49 1 22 48
M  V30 50 1 22 49
M  V30 51 1 23 50
M  V30 END BOND
M  V30 BEGIN COLLECTION
M  V30 MDLV30/STERAC1 ATOMS=(1 5)
M  V30 END COLLECTION
M  V30 END CTAB
M  END
>  <NO.>
5119

>  <Name>
2-{[4-(methylethyl)cyclohexyl]carbonylamino}-3-phenylpropanoic acid

>  <SMILES>
CC(C)C1CCC(C(=O)NC(Cc2ccccc2)C(=O)O)CC1

>  <logBB>


>  <Class>
-1

>  <MW>
317.2

>  <nHBAcc>
2

>  <nHBDon>
2

>  <SLogP>
3.26

>  <TopoPSA>
66.4

>  <MMFF94 Energy>
24.456

$$$$
CC(C)CC1C(=O)N2CCCC2C2(O)OC(NC(=O)C3CC4c5cccc6[nH]cc(c56)CC4N(C)C3)(C(C)C)C(=O)N12
Actelion Java MolfileCreator 2.0

  0  0  0  0  0  0              0 V3000
M  V30 BEGIN CTAB
M  V30 COUNTS 85 91 0 0 0
M  V30 BEGIN ATOM
M  V30 1 O -2.1669 0.8824 -6.9146 0
M  V30 2 C -1.486 0.7965 -5.8922 0
M  V30 3 N -0.1117 0.7061 -5.9492 0
M  V30 4 C -2.1485 0.7144 -4.4761 0
M  V30 5 C 0.7686 0.6894 -4.7809 0
M  V30 6 C 0.6278 0.5183 -7.1812 0
M  V30 7 N -1.1837 0.6804 -3.3763 0
M  V30 8 C -3.1311 -0.4766 -4.4545 0
M  V30 9 C 0.091 0.0841 -3.5365 0
M  V30 10 C 2.0173 -0.0203 -5.2987 0
M  V30 11 C 2.0894 0.4767 -6.7443 0
M  V30 12 C -1.1846 1.5299 -2.3018 0
M  V30 13 C -4.0753 -0.5227 -3.2331 0
M  V30 14 O 0.8209 0.3493 -2.3549 0
M  V30 15 O -0.0935 -1.3026 -3.6618 0
M  V30 16 O -2.12 2.2234 -1.9324 0
M  V30 17 C 0.1852 1.3947 -1.6088 0
M  V30 18 C -5.3873 -1.2174 -3.6175 0
M  V30 19 C -3.4617 -1.2638 -2.0428 0
M  V30 20 N -0.0844 0.9279 -0.2621 0
M  V30 21 C 0.9587 2.7368 -1.7174 0
M  V30 22 C 0.8478 0.3783 0.5832 0
M  V30 23 C 0.4754 3.7984 -0.7219 0
M  V30 24 C 2.4805 2.5951 -1.6115 0
M  V30 25 O 2.0175 0.183 0.2782 0
M  V30 26 C 0.2886 0.0419 1.9603 0
M  V30 27 C 0.2062 1.3207 2.7958 0
M  V30 28 C 1.1459 -1.0058 2.6706 0
M  V30 29 N -0.3674 1.0654 4.1308 0
M  V30 30 C 0.6054 -1.2767 4.0807 0
M  V30 31 C 0.4741 0.091 4.8889 0
M  V30 32 C -0.5163 2.3416 4.8389 0
M  V30 33 C 1.4274 -2.295 4.8531 0
M  V30 34 C -0.0459 -0.1502 6.3611 0
M  V30 35 C 1.4025 -2.1928 6.2494 0
M  V30 36 C 2.152 -3.3725 4.3262 0
M  V30 37 C 0.7416 -1.2256 7.0319 0
M  V30 38 C 2.0674 -3.0735 7.0796 0
M  V30 39 C 2.8324 -4.2669 5.1682 0
M  V30 40 C 1.0051 -1.5272 8.3479 0
M  V30 41 N 1.8108 -2.6481 8.365 0
M  V30 42 C 2.8084 -4.1374 6.5663 0
M  V30 43 H -2.7283 1.641 -4.3737 0
M  V30 44 H 1.0209 1.7406 -4.5877 0
M  V30 45 H 0.4142 1.3286 -7.8844 0
M  V30 46 H 0.3113 -0.4306 -7.6269 0
M  V30 47 H -2.5855 -1.4239 -4.5448 0
M  V30 48 H -3.7473 -0.4097 -5.3612 0
M  V30 49 H 1.8943 -1.1094 -5.2937 0
M  V30 50 H 2.9124 0.2301 -4.7225 0
M  V30 51 H 2.7013 -0.1633 -7.3856 0
M  V30 52 H 2.5143 1.4876 -6.7657 0
M  V30 53 H -4.3225 0.4999 -2.9233 0
M  V30 54 H -0.6884 -1.5287 -2.9311 0
M  V30 55 H -5.8912 -0.6778 -4.4264 0
M  V30 56 H -5.2093 -2.2449 -3.9529 0
M  V30 57 H -6.0752 -1.2518 -2.7658 0
M  V30 58 H -2.5729 -0.7616 -1.6581 0
M  V30 59 H -3.1798 -2.2866 -2.3152 0
M  V30 60 H -4.1774 -1.3239 -1.2153 0
M  V30 61 H -1.0204 1.0982 0.0899 0
M  V30 62 H 0.7737 3.1408 -2.7224 0
M  V30 63 H 0.6877 3.5075 0.3119 0
M  V30 64 H -0.5992 3.9782 -0.8125 0
M  V30 65 H 0.9811 4.7529 -0.9051 0
M  V30 66 H 2.8659 1.83 -2.2918 0
M  V30 67 H 2.9662 3.5402 -1.8803 0
M  V30 68 H 2.7974 2.3525 -0.594 0
M  V30 69 H -0.721 -0.3696 1.8222 0
M  V30 70 H -0.4294 2.0424 2.2665 0
M  V30 71 H 1.1991 1.7847 2.8797 0
M  V30 72 H 2.191 -0.673 2.7298 0
M  V30 73 H 1.1467 -1.9241 2.0708 0
M  V30 74 H -0.4029 -1.7055 3.9827 0
M  V30 75 H 1.4887 0.5116 4.9815 0
M  V30 76 H -1.105 2.2211 5.7534 0
M  V30 77 H 0.4514 2.7873 5.0943 0
M  V30 78 H -1.0728 3.0614 4.2271 0
M  V30 79 H 0.0439 0.7671 6.9533 0
M  V30 80 H -1.1037 -0.4393 6.3383 0
M  V30 81 H 2.1989 -3.5366 3.253 0
M  V30 82 H 3.3912 -5.0885 4.7241 0
M  V30 83 H 0.7005 -1.0545 9.2718 0
M  V30 84 H 2.1628 -3.0975 9.1986 0
M  V30 85 H 3.3348 -4.8359 7.2062 0
M  V30 END ATOM
M  V30 BEGIN BOND
M  V30 1 2 1 2
M  V30 2 1 2 3
M  V30 3 1 2 4
M  V30 4 1 3 5
M  V30 5 1 3 6
M  V30 6 1 4 7
M  V30 7 1 4 8
M  V30 8 1 5 9
M  V30 9 1 5 10
M  V30 10 1 6 11
M  V30 11 1 7 12
M  V30 12 1 8 13
M  V30 13 1 9 14
M  V30 14 1 9 15
M  V30 15 2 12 16
M  V30 16 1 12 17
M  V30 17 1 13 18
M  V30 18 1 13 19
M  V30 19 1 17 20
M  V30 20 1 17 21
M  V30 21 1 20 22
M  V30 22 1 21 23
M  V30 23 1 21 24
M  V30 24 2 22 25
M  V30 25 1 22 26
M  V30 26 1 26 27
M  V30 27 1 26 28
M  V30 28 1 27 29
M  V30 29 1 28 30
M  V30 30 1 29 31
M  V30 31 1 29 32
M  V30 32 1 30 33
M  V30 33 1 31 34
M  V30 34 2 33 35
M  V30 35 1 33 36
M  V30 36 1 34 37
M  V30 37 1 35 38
M  V30 38 2 36 39
M  V30 39 2 37 40
M  V30 40 1 38 41
M  V30 41 2 38 42
M  V30 42 1 7 9
M  V30 43 1 10 11
M  V30 44 1 14 17
M  V30 45 1 30 31
M  V30 46 1 35 37
M  V30 47 1 39 42
M  V30 48 1 40 41
M  V30 49 1 4 43
M  V30 50 1 5 44
M  V30 51 1 6 45
M  V30 52 1 6 46
M  V30 53 1 8 47
M  V30 54 1 8 48
M  V30 55 1 10 49
M  V30 56 1 10 50
M  V30 57 1 11 51
M  V30 58 1 11 52
M  V30 59 1 13 53
M  V30 60 1 15 54
M  V30 61 1 18 55
M  V30 62 1 18 56
M  V30 63 1 18 57
M  V30 64 1 19 58
M  V30 65 1 19 59
M  V30 66 1 19 60
M  V30 67 1 20 61
M  V30 68 1 21 62
M  V30 69 1 23 63
M  V30 70 1 23 64
M  V30 71 1 23 65
M  V30 72 1 24 66
M  V30 73 1 24 67
M  V30 74 1 24 68
M  V30 75 1 26 69
M  V30 76 1 27 70
M  V30 77 1 27 71
M  V30 78 1 28 72
M  V30 79 1 28 73
M  V30 80 1 30 74
M  V30 81 1 31 75
M  V30 82 1 32 76
M  V30 83 1 32 77
M  V30 84 1 32 78
M  V30 85 1 34 79
M  V30 86 1 34 80
M  V30 87 1 36 81
M  V30 88 1 39 82
M  V30 89 1 40 83
M  V30 90 1 41 84
M  V30 91 1 42 85
M  V30 END BOND
M  V30 END CTAB
M  END
>  <NO.>
5120

>  <Name>
ergoloidmesylate

>  <SMILES>
CC(C)CC1C(=O)N2CCCC2C2(O)OC(NC(=O)C3CC4c5cccc6[nH]cc(c56)CC4N(C)C3)(C(C)C)C(=O)N12

>  <logBB>


>  <Class>
1

>  <MW>
577.33

>  <nHBAcc>
6

>  <nHBDon>
3

>  <SLogP>
2.52

>  <TopoPSA>
118.21

>  <MMFF94 Energy>
71.71

$$$$
CC(C)CC1Nc2cc(Cl)c(S(N)(=O)=O)cc2S(=O)(=O)N1
Actelion Java MolfileCreator 2.0

  0  0  0  0  0  0              0 V3000
M  V30 BEGIN CTAB
M  V30 COUNTS 37 38 0 0 0
M  V30 BEGIN ATOM
M  V30 1 Cl 4.1492 -1.2434 2.737 0
M  V30 2 C 2.5534 -0.7457 2.3011 0
M  V30 3 C 1.8272 0.2327 2.9799 0
M  V30 4 C 1.9833 -1.3794 1.1829 0
M  V30 5 S 2.4707 1.0506 4.4043 0
M  V30 6 C 0.54 0.5672 2.545 0
M  V30 7 C 0.7034 -1.0491 0.7153 0
M  V30 8 O 2.9427 0.068 5.3487 0
M  V30 9 O 1.5549 2.0998 4.7913 0
M  V30 10 N 3.8138 1.8592 3.8067 0
M  V30 11 C 0.0047 -0.0747 1.4217 0
M  V30 12 N 0.184 -1.7221 -0.3702 0
M  V30 13 S -1.6279 0.3272 0.9191 0
M  V30 14 C -1.0259 -1.3432 -1.0627 0 CFG=1
M  V30 15 O -1.5632 1.5687 0.1841 0
M  V30 16 O -2.4909 0.1657 2.0688 0
M  V30 17 N -2.0236 -0.9147 -0.1178 0
M  V30 18 C -0.7207 -0.3507 -2.1936 0
M  V30 19 C -1.8159 -0.2373 -3.2766 0
M  V30 20 C -3.1241 0.3647 -2.7655 0
M  V30 21 C -1.2936 0.6059 -4.4451 0
M  V30 22 H 2.5576 -2.1471 0.6665 0
M  V30 23 H -0.0533 1.3152 3.0705 0
M  V30 24 H 4.6627 1.4857 4.2346 0
M  V30 25 H 3.6972 2.8655 3.9344 0
M  V30 26 H 0.7868 -2.3725 -0.8632 0
M  V30 27 H -1.4088 -2.259 -1.5304 0
M  V30 28 H -2.4919 -1.6657 0.3832 0
M  V30 29 H 0.1959 -0.6935 -2.6955 0
M  V30 30 H -0.4742 0.6432 -1.8065 0
M  V30 31 H -2.0303 -1.2416 -3.6636 0
M  V30 32 H -3.618 -0.2974 -2.0496 0
M  V30 33 H -2.9566 1.3343 -2.2856 0
M  V30 34 H -3.8284 0.518 -3.5908 0
M  V30 35 H -0.3828 0.1675 -4.8664 0
M  V30 36 H -1.0624 1.6277 -4.1249 0
M  V30 37 H -2.0359 0.6618 -5.2484 0
M  V30 END ATOM
M  V30 BEGIN BOND
M  V30 1 1 1 2
M  V30 2 2 2 3
M  V30 3 1 2 4
M  V30 4 1 3 5
M  V30 5 1 3 6
M  V30 6 2 4 7
M  V30 7 2 5 8
M  V30 8 2 5 9
M  V30 9 1 5 10
M  V30 10 2 6 11
M  V30 11 1 7 12
M  V30 12 1 11 13
M  V30 13 1 12 14
M  V30 14 2 13 15
M  V30 15 2 13 16
M  V30 16 1 13 17
M  V30 17 1 14 18
M  V30 18 1 18 19
M  V30 19 1 19 20
M  V30 20 1 19 21
M  V30 21 1 7 11
M  V30 22 1 14 17
M  V30 23 1 4 22
M  V30 24 1 6 23
M  V30 25 1 10 24
M  V30 26 1 10 25
M  V30 27 1 12 26
M  V30 28 1 14 27
M  V30 29 1 17 28
M  V30 30 1 18 29
M  V30 31 1 18 30
M  V30 32 1 19 31
M  V30 33 1 20 32
M  V30 34 1 20 33
M  V30 35 1 20 34
M  V30 36 1 21 35
M  V30 37 1 21 36
M  V30 38 1 21 37
M  V30 END BOND
M  V30 BEGIN COLLECTION
M  V30 MDLV30/STERAC1 ATOMS=(1 14)
M  V30 END COLLECTION
M  V30 END CTAB
M  END
>  <NO.>
5121

>  <Name>
buthiazide

>  <SMILES>
CC(C)CC1Nc2cc(Cl)c(S(N)(=O)=O)cc2S(=O)(=O)N1

>  <logBB>


>  <Class>
-1

>  <MW>
353.03

>  <nHBAcc>
5

>  <nHBDon>
3

>  <SLogP>
1.06

>  <TopoPSA>
118.36

>  <MMFF94 Energy>
-217.54

$$$$
CC(C)CN(CC(OP(=O)(O)O)C(Cc1ccccc1)NC(=O)OC1CCOC1)S(=O)(=O)c1ccc(N)cc1
Actelion Java MolfileCreator 2.0

  0  0  0  0  0  0              0 V3000
M  V30 BEGIN CTAB
M  V30 COUNTS 75 77 0 0 0
M  V30 BEGIN ATOM
M  V30 1 S 2.0123 -1.7707 2.4152 0
M  V30 2 O 0.9565 -1.4318 3.3538 0
M  V30 3 O 2.6475 -3.0683 2.4741 0
M  V30 4 N 1.4057 -1.5166 0.8553 0
M  V30 5 C 3.2888 -0.5424 2.5573 0
M  V30 6 C 0.7315 -0.221 0.5285 0
M  V30 7 C 2.1574 -2.0995 -0.2864 0
M  V30 8 C 4.5518 -0.7949 2.0199 0
M  V30 9 C 3.0341 0.6513 3.2363 0
M  V30 10 C -0.6562 -0.0809 1.177 0
M  V30 11 C 1.2034 -2.8909 -1.2003 0
M  V30 12 C 5.5537 0.1721 2.1357 0
M  V30 13 C 4.0456 1.6094 3.3444 0
M  V30 14 O -1.396 -1.2758 0.9318 0
M  V30 15 C -1.4642 1.1486 0.6578 0
M  V30 16 C 1.9288 -3.3059 -2.4808 0
M  V30 17 C 0.644 -4.1271 -0.4921 0
M  V30 18 C 5.3157 1.3739 2.8097 0
M  V30 19 P -2.2904 -1.8276 2.1368 0
M  V30 20 N -1.6468 1.1036 -0.7916 0
M  V30 21 C -0.7994 2.4712 1.095 0
M  V30 22 N 6.296 2.3466 2.8767 0
M  V30 23 O -2.9655 -0.8058 2.987 0
M  V30 24 O -1.309 -2.7946 2.9389 0
M  V30 25 O -3.2739 -2.8747 1.4445 0
M  V30 26 C -2.6197 0.3651 -1.39 0
M  V30 27 C -1.635 3.6971 0.8055 0
M  V30 28 O -3.5225 -0.2293 -0.825 0
M  V30 29 O -2.4008 0.3667 -2.7273 0
M  V30 30 C -1.2084 4.6458 -0.1342 0
M  V30 31 C -2.8465 3.9075 1.4794 0
M  V30 32 C -3.2385 -0.5406 -3.4679 0
M  V30 33 C -1.9822 5.7774 -0.3991 0
M  V30 34 C -3.6187 5.0389 1.2118 0
M  V30 35 C -2.7492 -1.9783 -3.3218 0
M  V30 36 C -3.0057 -0.2883 -4.9396 0
M  V30 37 C -3.187 5.9731 0.2728 0
M  V30 38 O -1.7171 -2.1748 -4.3118 0
M  V30 39 C -1.7169 -1.0428 -5.1902 0
M  V30 40 H 1.3839 0.6131 0.8024 0
M  V30 41 H 0.617 -0.1647 -0.5601 0
M  V30 42 H 2.9587 -2.7626 0.0551 0
M  V30 43 H 2.6472 -1.2913 -0.8439 0
M  V30 44 H 4.7671 -1.7344 1.5166 0
M  V30 45 H 2.0625 0.8479 3.6829 0
M  V30 46 H -0.5324 0.0468 2.2567 0
M  V30 47 H 0.3557 -2.2569 -1.4881 0
M  V30 48 H 6.5311 -0.0255 1.7022 0
M  V30 49 H 3.8371 2.543 3.8618 0
M  V30 50 H -2.4687 1.0876 1.0947 0
M  V30 51 H 2.7841 -3.9541 -2.2618 0
M  V30 52 H 2.2976 -2.427 -3.0202 0
M  V30 53 H 1.2541 -3.8489 -3.1513 0
M  V30 54 H 1.4475 -4.7996 -0.1728 0
M  V30 55 H 0.0628 -3.8493 0.3928 0
M  V30 56 H -0.0204 -4.6871 -1.1587 0
M  V30 57 H -1.0069 1.5669 -1.4205 0
M  V30 58 H -0.5976 2.4503 2.1739 0
M  V30 59 H 0.1758 2.5802 0.6044 0
M  V30 60 H 6.1581 3.1695 3.4483 0
M  V30 61 H 7.2394 2.1378 2.5777 0
M  V30 62 H -0.587 -2.2981 3.3851 0
M  V30 63 H -3.9764 -3.1443 2.059 0
M  V30 64 H -0.2709 4.5149 -0.6688 0
M  V30 65 H -3.2028 3.1895 2.2161 0
M  V30 66 H -4.2876 -0.4015 -3.1852 0
M  V30 67 H -1.6456 6.5075 -1.1304 0
M  V30 68 H -4.5593 5.189 1.736 0
M  V30 69 H -2.3312 -2.2112 -2.3389 0
M  V30 70 H -3.5502 -2.6892 -3.5499 0
M  V30 71 H -2.917 0.7685 -5.2066 0
M  V30 72 H -3.815 -0.7378 -5.5267 0
M  V30 73 H -3.7904 6.8529 0.065 0
M  V30 74 H -0.842 -0.43 -4.9471 0
M  V30 75 H -1.6252 -1.3812 -6.2261 0
M  V30 END ATOM
M  V30 BEGIN BOND
M  V30 1 2 1 2
M  V30 2 2 1 3
M  V30 3 1 1 4
M  V30 4 1 1 5
M  V30 5 1 4 6
M  V30 6 1 4 7
M  V30 7 2 5 8
M  V30 8 1 5 9
M  V30 9 1 6 10
M  V30 10 1 7 11
M  V30 11 1 8 12
M  V30 12 2 9 13
M  V30 13 1 10 14
M  V30 14 1 10 15
M  V30 15 1 11 16
M  V30 16 1 11 17
M  V30 17 2 12 18
M  V30 18 1 14 19
M  V30 19 1 15 20
M  V30 20 1 15 21
M  V30 21 1 18 22
M  V30 22 2 19 23
M  V30 23 1 19 24
M  V30 24 1 19 25
M  V30 25 1 20 26
M  V30 26 1 21 27
M  V30 27 2 26 28
M  V30 28 1 26 29
M  V30 29 2 27 30
M  V30 30 1 27 31
M  V30 31 1 29 32
M  V30 32 1 30 33
M  V30 33 2 31 34
M  V30 34 1 32 35
M  V30 35 1 32 36
M  V30 36 2 33 37
M  V30 37 1 35 38
M  V30 38 1 36 39
M  V30 39 1 13 18
M  V30 40 1 34 37
M  V30 41 1 38 39
M  V30 42 1 6 40
M  V30 43 1 6 41
M  V30 44 1 7 42
M  V30 45 1 7 43
M  V30 46 1 8 44
M  V30 47 1 9 45
M  V30 48 1 10 46
M  V30 49 1 11 47
M  V30 50 1 12 48
M  V30 51 1 13 49
M  V30 52 1 15 50
M  V30 53 1 16 51
M  V30 54 1 16 52
M  V30 55 1 16 53
M  V30 56 1 17 54
M  V30 57 1 17 55
M  V30 58 1 17 56
M  V30 59 1 20 57
M  V30 60 1 21 58
M  V30 61 1 21 59
M  V30 62 1 22 60
M  V30 63 1 22 61
M  V30 64 1 24 62
M  V30 65 1 25 63
M  V30 66 1 30 64
M  V30 67 1 31 65
M  V30 68 1 32 66
M  V30 69 1 33 67
M  V30 70 1 34 68
M  V30 71 1 35 69
M  V30 72 1 35 70
M  V30 73 1 36 71
M  V30 74 1 36 72
M  V30 75 1 37 73
M  V30 76 1 39 74
M  V30 77 1 39 75
M  V30 END BOND
M  V30 END CTAB
M  END
>  <NO.>
5122

>  <Name>
schembl10264224

>  <SMILES>
CC(C)CN(CC(OP(=O)(O)O)C(Cc1ccccc1)NC(=O)OC1CCOC1)S(=O)(=O)c1ccc(N)cc1

>  <logBB>


>  <Class>
-1

>  <MW>
585.19

>  <nHBAcc>
8

>  <nHBDon>
4

>  <SLogP>
2.52

>  <TopoPSA>
177.72

>  <MMFF94 Energy>
-229.61

$$$$
CC(C)N(CCC(C(N)=O)(c1ccccc1)c1ccccn1)C(C)C
Actelion Java MolfileCreator 2.0

  0  0  0  0  0  0              0 V3000
M  V30 BEGIN CTAB
M  V30 COUNTS 54 55 0 0 0
M  V30 BEGIN ATOM
M  V30 1 O 2.6748 -0.7861 -2.596 0
M  V30 2 C 1.616 -1.4001 -2.4685 0
M  V30 3 N 1.3177 -2.3813 -3.3765 0
M  V30 4 C 0.6027 -1.1784 -1.2913 0 CFG=2
M  V30 5 C 0.7604 -2.3307 -0.2584 0
M  V30 6 C -0.8073 -1.0214 -1.9446 0
M  V30 7 C 1.0353 0.1326 -0.5417 0
M  V30 8 N -0.2949 -2.6072 0.5571 0
M  V30 9 C 1.9831 -2.989 -0.0798 0
M  V30 10 C -1.7569 -2.0604 -1.9635 0
M  V30 11 C -1.1404 0.1621 -2.6373 0
M  V30 12 C 0.0924 0.5667 0.5994 0
M  V30 13 C -0.1485 -3.5554 1.5093 0
M  V30 14 C 2.1063 -3.9654 0.908 0
M  V30 15 C -2.9941 -1.9071 -2.5973 0
M  V30 16 C -2.3767 0.3148 -3.2716 0
M  V30 17 N 0.4866 1.8667 1.1769 0
M  V30 18 C 1.0202 -4.2593 1.7178 0
M  V30 19 C -3.306 -0.7182 -3.2468 0
M  V30 20 C 0.1772 2.0125 2.615 0
M  V30 21 C 0.1264 3.0222 0.3281 0
M  V30 22 C -1.1679 1.4403 3.0873 0
M  V30 23 C 1.3186 1.3783 3.4232 0
M  V30 24 C -1.3223 3.5061 0.4401 0
M  V30 25 C 1.0968 4.1857 0.5765 0
M  V30 26 H 1.9615 -2.5346 -4.1406 0
M  V30 27 H 0.4452 -2.8928 -3.3625 0
M  V30 28 H 2.0399 -0.004 -0.1134 0
M  V30 29 H 1.1599 0.9422 -1.2683 0
M  V30 30 H 2.8563 -2.745 -0.6787 0
M  V30 31 H -1.5578 -3.0144 -1.481 0
M  V30 32 H -0.4362 0.9881 -2.7073 0
M  V30 33 H -0.9539 0.5924 0.2792 0
M  V30 34 H 0.1672 -0.2032 1.3719 0
M  V30 35 H -1.0274 -3.7337 2.1221 0
M  V30 36 H 3.0526 -4.4799 1.0504 0
M  V30 37 H -3.7141 -2.7214 -2.5795 0
M  V30 38 H -2.6087 1.242 -3.7895 0
M  V30 39 H 1.0872 -5.0077 2.4988 0
M  V30 40 H -4.2682 -0.5996 -3.7372 0
M  V30 41 H 0.184 3.0739 2.8877 0
M  V30 42 H 0.2771 2.752 -0.7226 0
M  V30 43 H -2.007 1.8313 2.5066 0
M  V30 44 H -1.3436 1.715 4.1338 0
M  V30 45 H -1.199 0.3473 3.0347 0
M  V30 46 H 1.1749 1.5565 4.4948 0
M  V30 47 H 1.3803 0.2954 3.2722 0
M  V30 48 H 2.2842 1.8156 3.1448 0
M  V30 49 H -2.0306 2.6971 0.2363 0
M  V30 50 H -1.5147 4.2954 -0.2955 0
M  V30 51 H -1.5428 3.9248 1.427 0
M  V30 52 H 0.936 4.979 -0.1621 0
M  V30 53 H 0.9721 4.6324 1.5677 0
M  V30 54 H 2.1367 3.8545 0.4787 0
M  V30 END ATOM
M  V30 BEGIN BOND
M  V30 1 2 1 2
M  V30 2 1 2 3
M  V30 3 1 2 4
M  V30 4 1 4 5
M  V30 5 1 4 6
M  V30 6 1 4 7
M  V30 7 2 5 8
M  V30 8 1 5 9
M  V30 9 2 6 10
M  V30 10 1 6 11
M  V30 11 1 7 12
M  V30 12 1 8 13
M  V30 13 2 9 14
M  V30 14 1 10 15
M  V30 15 2 11 16
M  V30 16 1 12 17
M  V30 17 2 13 18
M  V30 18 2 15 19
M  V30 19 1 17 20
M  V30 20 1 17 21
M  V30 21 1 20 22
M  V30 22 1 20 23
M  V30 23 1 21 24
M  V30 24 1 21 25
M  V30 25 1 14 18
M  V30 26 1 16 19
M  V30 27 1 3 26
M  V30 28 1 3 27
M  V30 29 1 7 28
M  V30 30 1 7 29
M  V30 31 1 9 30
M  V30 32 1 10 31
M  V30 33 1 11 32
M  V30 34 1 12 33
M  V30 35 1 12 34
M  V30 36 1 13 35
M  V30 37 1 14 36
M  V30 38 1 15 37
M  V30 39 1 16 38
M  V30 40 1 18 39
M  V30 41 1 19 40
M  V30 42 1 20 41
M  V30 43 1 21 42
M  V30 44 1 22 43
M  V30 45 1 22 44
M  V30 46 1 22 45
M  V30 47 1 23 46
M  V30 48 1 23 47
M  V30 49 1 23 48
M  V30 50 1 24 49
M  V30 51 1 24 50
M  V30 52 1 24 51
M  V30 53 1 25 52
M  V30 54 1 25 53
M  V30 55 1 25 54
M  V30 END BOND
M  V30 BEGIN COLLECTION
M  V30 MDLV30/STERAC1 ATOMS=(1 4)
M  V30 END COLLECTION
M  V30 END CTAB
M  END
>  <NO.>
5123

>  <Name>
disopyramide

>  <SMILES>
CC(C)N(CCC(C(N)=O)(c1ccccc1)c1ccccn1)C(C)C

>  <logBB>


>  <Class>
-1

>  <MW>
339.23

>  <nHBAcc>
3

>  <nHBDon>
1

>  <SLogP>
3.36

>  <TopoPSA>
59.22

>  <MMFF94 Energy>
80.442

$$$$
CC(C)NCC(O)c1cc(O)cc(O)c1
Actelion Java MolfileCreator 2.0

  0  0  0  0  0  0              0 V3000
M  V30 BEGIN CTAB
M  V30 COUNTS 32 32 0 0 0
M  V30 BEGIN ATOM
M  V30 1 O -0.6992 -2.0989 -3.5001 0
M  V30 2 C -1.0163 -2.1062 -2.1734 0
M  V30 3 C -2.292 -2.4413 -1.7374 0
M  V30 4 C -0.018 -1.7609 -1.2665 0
M  V30 5 C -2.5602 -2.4292 -0.3743 0
M  V30 6 C -0.2848 -1.7416 0.112 0
M  V30 7 O -3.821 -2.7657 0.0244 0
M  V30 8 C -1.5766 -2.0815 0.5507 0
M  V30 9 C 0.7671 -1.3288 1.1228 0 CFG=1
M  V30 10 O 2.0795 -1.6403 0.6448 0
M  V30 11 C 0.6981 0.1782 1.4857 0
M  V30 12 N 1.2926 1.0032 0.415 0
M  V30 13 C 1.3533 2.4297 0.7571 0
M  V30 14 C 2.2843 3.1081 -0.2494 0
M  V30 15 C -0.0219 3.0989 0.7227 0
M  V30 16 H -1.4698 -2.4127 -4.0016 0
M  V30 17 H -3.0781 -2.7121 -2.4335 0
M  V30 18 H 0.9724 -1.5128 -1.6409 0
M  V30 19 H -3.85 -2.7753 0.9952 0
M  V30 20 H -1.8028 -2.0719 1.6132 0
M  V30 21 H 0.6252 -1.922 2.0339 0
M  V30 22 H 2.4439 -0.7788 0.3536 0
M  V30 23 H -0.3351 0.4706 1.6993 0
M  V30 24 H 1.2934 0.3272 2.3947 0
M  V30 25 H 0.7429 0.8822 -0.4399 0
M  V30 26 H 1.7935 2.556 1.7537 0
M  V30 27 H 1.9009 3.0274 -1.273 0
M  V30 28 H 3.2832 2.6581 -0.2252 0
M  V30 29 H 2.3964 4.1725 -0.0158 0
M  V30 30 H -0.6868 2.6944 1.492 0
M  V30 31 H -0.5082 2.9671 -0.2502 0
M  V30 32 H 0.0693 4.1751 0.9066 0
M  V30 END ATOM
M  V30 BEGIN BOND
M  V30 1 1 1 2
M  V30 2 2 2 3
M  V30 3 1 2 4
M  V30 4 1 3 5
M  V30 5 2 4 6
M  V30 6 1 5 7
M  V30 7 2 5 8
M  V30 8 1 6 9
M  V30 9 1 9 10
M  V30 10 1 9 11
M  V30 11 1 11 12
M  V30 12 1 12 13
M  V30 13 1 13 14
M  V30 14 1 13 15
M  V30 15 1 6 8
M  V30 16 1 1 16
M  V30 17 1 3 17
M  V30 18 1 4 18
M  V30 19 1 7 19
M  V30 20 1 8 20
M  V30 21 1 9 21
M  V30 22 1 10 22
M  V30 23 1 11 23
M  V30 24 1 11 24
M  V30 25 1 12 25
M  V30 26 1 13 26
M  V30 27 1 14 27
M  V30 28 1 14 28
M  V30 29 1 14 29
M  V30 30 1 15 30
M  V30 31 1 15 31
M  V30 32 1 15 32
M  V30 END BOND
M  V30 BEGIN COLLECTION
M  V30 MDLV30/STERAC1 ATOMS=(1 9)
M  V30 END COLLECTION
M  V30 END CTAB
M  END
>  <NO.>
5124

>  <Name>
metaproterenol

>  <SMILES>
CC(C)NCC(O)c1cc(O)cc(O)c1

>  <logBB>


>  <Class>
-1

>  <MW>
211.12

>  <nHBAcc>
4

>  <nHBDon>
4

>  <SLogP>
1.13

>  <TopoPSA>
72.72

>  <MMFF94 Energy>
25.179

$$$$
CC(C)NCC1CCc2cc(CO)c([N+](=O)[O-])cc2N1
Actelion Java MolfileCreator 2.0

  0  0  0  0  0  0              0 V3000
M  V30 BEGIN CTAB
M  V30 COUNTS 41 42 0 0 0
M  V30 BEGIN ATOM
M  V30 1 O -1.3407 -0.9462 4.8174 0
M  V30 2 N -0.8946 0.1828 4.5714 0 CHG=1
M  V30 3 O -1.1634 1.2091 5.2111 0 CHG=-1
M  V30 4 C 0.0085 0.3131 3.4327 0
M  V30 5 C 1.1873 1.0748 3.5249 0
M  V30 6 C -0.3612 -0.3489 2.2499 0
M  V30 7 C 1.9606 1.1877 2.3591 0
M  V30 8 C 1.6 1.7832 4.7928 0
M  V30 9 C 0.4392 -0.2578 1.1123 0
M  V30 10 C 1.5889 0.5462 1.163 0
M  V30 11 O 2.9889 2.0961 4.784 0
M  V30 12 N 0.051 -0.8937 -0.055 0
M  V30 13 C 2.4659 0.6906 -0.0567 0
M  V30 14 C 0.9521 -0.9278 -1.2118 0 CFG=2
M  V30 15 C 1.6874 0.4094 -1.3385 0
M  V30 16 C 0.1452 -1.2765 -2.4907 0
M  V30 17 N -0.9193 -0.3016 -2.7577 0
M  V30 18 C -1.8915 -0.7481 -3.7549 0
M  V30 19 C -2.9116 -1.724 -3.1654 0
M  V30 20 C -2.6115 0.4903 -4.291 0
M  V30 21 H -1.2773 -0.9343 2.216 0
M  V30 22 H 2.8726 1.7848 2.3751 0
M  V30 23 H 1.0406 2.7187 4.8929 0
M  V30 24 H 1.4278 1.1457 5.6653 0
M  V30 25 H 3.173 2.5577 5.6199 0
M  V30 26 H -0.6951 -1.5775 -0.0169 0
M  V30 27 H 2.8779 1.7053 -0.1079 0
M  V30 28 H 3.3061 -0.0083 0.0333 0
M  V30 29 H 1.6874 -1.7273 -1.0516 0
M  V30 30 H 2.3746 0.3916 -2.1921 0
M  V30 31 H 0.9758 1.2274 -1.5115 0
M  V30 32 H -0.2774 -2.2781 -2.3525 0
M  V30 33 H 0.8244 -1.3193 -3.3498 0
M  V30 34 H -1.3751 -0.0577 -1.8753 0
M  V30 35 H -1.3753 -1.2245 -4.5973 0
M  V30 36 H -3.4426 -1.2836 -2.3139 0
M  V30 37 H -2.4373 -2.6493 -2.8249 0
M  V30 38 H -3.659 -1.9989 -3.9177 0
M  V30 39 H -1.9008 1.1951 -4.7372 0
M  V30 40 H -3.1574 1.0158 -3.4989 0
M  V30 41 H -3.3323 0.2123 -5.0676 0
M  V30 END ATOM
M  V30 BEGIN BOND
M  V30 1 2 1 2
M  V30 2 1 2 3
M  V30 3 1 2 4
M  V30 4 2 4 5
M  V30 5 1 4 6
M  V30 6 1 5 7
M  V30 7 1 5 8
M  V30 8 2 6 9
M  V30 9 2 7 10
M  V30 10 1 8 11
M  V30 11 1 9 12
M  V30 12 1 10 13
M  V30 13 1 12 14
M  V30 14 1 13 15
M  V30 15 1 14 16
M  V30 16 1 16 17
M  V30 17 1 17 18
M  V30 18 1 18 19
M  V30 19 1 18 20
M  V30 20 1 9 10
M  V30 21 1 14 15
M  V30 22 1 6 21
M  V30 23 1 7 22
M  V30 24 1 8 23
M  V30 25 1 8 24
M  V30 26 1 11 25
M  V30 27 1 12 26
M  V30 28 1 13 27
M  V30 29 1 13 28
M  V30 30 1 14 29
M  V30 31 1 15 30
M  V30 32 1 15 31
M  V30 33 1 16 32
M  V30 34 1 16 33
M  V30 35 1 17 34
M  V30 36 1 18 35
M  V30 37 1 19 36
M  V30 38 1 19 37
M  V30 39 1 19 38
M  V30 40 1 20 39
M  V30 41 1 20 40
M  V30 42 1 20 41
M  V30 END BOND
M  V30 BEGIN COLLECTION
M  V30 MDLV30/STERAC1 ATOMS=(1 14)
M  V30 END COLLECTION
M  V30 END CTAB
M  END
>  <NO.>
5125

>  <Name>
oxamniquine

>  <SMILES>
CC(C)NCC1CCc2cc(CO)c([N+](=O)[O-])cc2N1

>  <logBB>


>  <Class>
-1

>  <MW>
279.16

>  <nHBAcc>
5

>  <nHBDon>
3

>  <SLogP>
1.81

>  <TopoPSA>
87.43

>  <MMFF94 Energy>
52.126

$$$$
CC(C)NCCCC1(C(N)=O)c2ccccc2-c2ccccc21
Actelion Java MolfileCreator 2.0

  0  0  0  0  0  0              0 V3000
M  V30 BEGIN CTAB
M  V30 COUNTS 47 49 0 0 0
M  V30 BEGIN ATOM
M  V30 1 O 1.0292 0.2374 3.328 0
M  V30 2 C 0.6726 -0.7904 2.7551 0
M  V30 3 N 0.5085 -1.9347 3.4887 0
M  V30 4 C 0.4096 -0.8889 1.228 0
M  V30 5 C 1.3405 -1.9369 0.5977 0
M  V30 6 C -0.9695 -1.5102 0.9527 0
M  V30 7 C 0.5597 0.5053 0.5685 0
M  V30 8 C 0.5834 -2.9976 0.0516 0
M  V30 9 C 2.727 -1.9305 0.5334 0
M  V30 10 C -0.8245 -2.7376 0.2681 0
M  V30 11 C -2.2211 -1.014 1.2905 0
M  V30 12 C 0.3508 0.5434 -0.9568 0
M  V30 13 C 1.2155 -4.0623 -0.5686 0
M  V30 14 C 3.3605 -3.005 -0.0918 0
M  V30 15 C -1.9401 -3.4792 -0.0834 0
M  V30 16 C -3.3428 -1.7639 0.9349 0
M  V30 17 C 0.4988 1.9547 -1.5393 0
M  V30 18 C 2.6123 -4.0606 -0.6381 0
M  V30 19 C -3.2041 -2.9848 0.2545 0
M  V30 20 N -0.5672 2.833 -1.0545 0
M  V30 21 C -0.5302 4.1715 -1.6577 0
M  V30 22 C -1.8419 4.8873 -1.3228 0
M  V30 23 C 0.6492 4.9986 -1.1437 0
M  V30 24 H 0.6797 -1.894 4.4835 0
M  V30 25 H 0.2247 -2.8104 3.0696 0
M  V30 26 H -0.1467 1.1978 1.0451 0
M  V30 27 H 1.5606 0.9032 0.7857 0
M  V30 28 H 3.3073 -1.1166 0.958 0
M  V30 29 H -2.3301 -0.0699 1.8163 0
M  V30 30 H 1.0909 -0.0992 -1.4471 0
M  V30 31 H -0.6363 0.1471 -1.2214 0
M  V30 32 H 0.6499 -4.8834 -0.996 0
M  V30 33 H 4.4461 -3.0263 -0.1571 0
M  V30 34 H -1.8475 -4.4222 -0.6115 0
M  V30 35 H -4.3363 -1.3991 1.1863 0
M  V30 36 H 0.4545 1.883 -2.6324 0
M  V30 37 H 1.4847 2.3455 -1.2672 0
M  V30 38 H 3.1278 -4.8871 -1.1221 0
M  V30 39 H -4.0929 -3.5514 -0.014 0
M  V30 40 H -1.4672 2.3964 -1.2552 0
M  V30 41 H -0.4667 4.0885 -2.7497 0
M  V30 42 H -1.9734 5.0016 -0.2407 0
M  V30 43 H -2.7038 4.3341 -1.7125 0
M  V30 44 H -1.8629 5.8865 -1.7714 0
M  V30 45 H 1.608 4.5768 -1.4601 0
M  V30 46 H 0.6484 5.0597 -0.0496 0
M  V30 47 H 0.6026 6.0211 -1.5347 0
M  V30 END ATOM
M  V30 BEGIN BOND
M  V30 1 2 1 2
M  V30 2 1 2 3
M  V30 3 1 2 4
M  V30 4 1 4 5
M  V30 5 1 4 6
M  V30 6 1 4 7
M  V30 7 2 5 8
M  V30 8 1 5 9
M  V30 9 2 6 10
M  V30 10 1 6 11
M  V30 11 1 7 12
M  V30 12 1 8 13
M  V30 13 2 9 14
M  V30 14 1 10 15
M  V30 15 2 11 16
M  V30 16 1 12 17
M  V30 17 2 13 18
M  V30 18 2 15 19
M  V30 19 1 17 20
M  V30 20 1 20 21
M  V30 21 1 21 22
M  V30 22 1 21 23
M  V30 23 1 8 10
M  V30 24 1 14 18
M  V30 25 1 16 19
M  V30 26 1 3 24
M  V30 27 1 3 25
M  V30 28 1 7 26
M  V30 29 1 7 27
M  V30 30 1 9 28
M  V30 31 1 11 29
M  V30 32 1 12 30
M  V30 33 1 12 31
M  V30 34 1 13 32
M  V30 35 1 14 33
M  V30 36 1 15 34
M  V30 37 1 16 35
M  V30 38 1 17 36
M  V30 39 1 17 37
M  V30 40 1 18 38
M  V30 41 1 19 39
M  V30 42 1 20 40
M  V30 43 1 21 41
M  V30 44 1 22 42
M  V30 45 1 22 43
M  V30 46 1 22 44
M  V30 47 1 23 45
M  V30 48 1 23 46
M  V30 49 1 23 47
M  V30 END BOND
M  V30 END CTAB
M  END
>  <NO.>
5126

>  <Name>
indecainide hydrochloride

>  <SMILES>
CC(C)NCCCC1(C(N)=O)c2ccccc2-c2ccccc21

>  <logBB>


>  <Class>
-1

>  <MW>
308.19

>  <nHBAcc>
2

>  <nHBDon>
2

>  <SLogP>
3.22

>  <TopoPSA>
55.12

>  <MMFF94 Energy>
62.57

$$$$
CC(C)OC(=O)C(C)(C)Oc1ccc(C(=O)c2ccc(Cl)cc2)cc1
Actelion Java MolfileCreator 2.0

  0  0  0  0  0  0              0 V3000
M  V30 BEGIN CTAB
M  V30 COUNTS 46 47 0 0 0
M  V30 BEGIN ATOM
M  V30 1 Cl 7.6191 0.3999 -4.9674 0
M  V30 2 C 5.9531 0.6575 -4.6255 0
M  V30 3 C 5.1799 -0.3891 -4.1229 0
M  V30 4 C 5.3834 1.9081 -4.8593 0
M  V30 5 C 3.8253 -0.1838 -3.8434 0
M  V30 6 C 4.03 2.1162 -4.581 0
M  V30 7 C 3.2512 1.0761 -4.0567 0
M  V30 8 C 1.8131 1.3359 -3.79 0
M  V30 9 O 1.2021 2.123 -4.5082 0
M  V30 10 C 1.0944 0.6684 -2.6769 0
M  V30 11 C -0.2425 0.3008 -2.8731 0
M  V30 12 C 1.7106 0.4294 -1.4426 0
M  V30 13 C -0.9548 -0.3227 -1.8468 0
M  V30 14 C 0.9931 -0.193 -0.4188 0
M  V30 15 C -0.3446 -0.5377 -0.6139 0
M  V30 16 O -1.0022 -1.1947 0.3832 0
M  V30 17 C -1.8528 -0.4047 1.2507 0
M  V30 18 C -2.1196 -1.3151 2.4729 0
M  V30 19 C -1.1833 0.8795 1.7649 0
M  V30 20 C -3.1919 -0.1066 0.5644 0
M  V30 21 O -1.6205 -2.4182 2.6606 0
M  V30 22 O -2.9873 -0.715 3.345 0
M  V30 23 C -3.3096 -1.455 4.5378 0
M  V30 24 C -2.2363 -1.2119 5.5927 0
M  V30 25 C -4.665 -0.9544 5.0221 0
M  V30 26 H 5.623 -1.3678 -3.9559 0
M  V30 27 H 5.9817 2.7213 -5.2622 0
M  V30 28 H 3.2314 -1.019 -3.4797 0
M  V30 29 H 3.5829 3.0899 -4.775 0
M  V30 30 H -0.7262 0.4881 -3.83 0
M  V30 31 H 2.7396 0.7268 -1.2591 0
M  V30 32 H -1.9768 -0.6453 -2.0223 0
M  V30 33 H 1.4748 -0.4049 0.5323 0
M  V30 34 H -0.9756 1.5824 0.9511 0
M  V30 35 H -0.2294 0.6532 2.2547 0
M  V30 36 H -1.8135 1.4041 2.4917 0
M  V30 37 H -3.6293 -1.0232 0.1523 0
M  V30 38 H -3.9202 0.3357 1.2525 0
M  V30 39 H -3.0691 0.5959 -0.2657 0
M  V30 40 H -3.3948 -2.5255 4.3156 0
M  V30 41 H -2.4794 -1.7219 6.53 0
M  V30 42 H -1.2613 -1.5715 5.2483 0
M  V30 43 H -2.1213 -0.141 5.7945 0
M  V30 44 H -4.9793 -1.4736 5.9326 0
M  V30 45 H -5.4263 -1.1116 4.2502 0
M  V30 46 H -4.6388 0.1226 5.2222 0
M  V30 END ATOM
M  V30 BEGIN BOND
M  V30 1 1 1 2
M  V30 2 2 2 3
M  V30 3 1 2 4
M  V30 4 1 3 5
M  V30 5 2 4 6
M  V30 6 2 5 7
M  V30 7 1 7 8
M  V30 8 2 8 9
M  V30 9 1 8 10
M  V30 10 2 10 11
M  V30 11 1 10 12
M  V30 12 1 11 13
M  V30 13 2 12 14
M  V30 14 2 13 15
M  V30 15 1 15 16
M  V30 16 1 16 17
M  V30 17 1 17 18
M  V30 18 1 17 19
M  V30 19 1 17 20
M  V30 20 2 18 21
M  V30 21 1 18 22
M  V30 22 1 22 23
M  V30 23 1 23 24
M  V30 24 1 23 25
M  V30 25 1 6 7
M  V30 26 1 14 15
M  V30 27 1 3 26
M  V30 28 1 4 27
M  V30 29 1 5 28
M  V30 30 1 6 29
M  V30 31 1 11 30
M  V30 32 1 12 31
M  V30 33 1 13 32
M  V30 34 1 14 33
M  V30 35 1 19 34
M  V30 36 1 19 35
M  V30 37 1 19 36
M  V30 38 1 20 37
M  V30 39 1 20 38
M  V30 40 1 20 39
M  V30 41 1 23 40
M  V30 42 1 24 41
M  V30 43 1 24 42
M  V30 44 1 24 43
M  V30 45 1 25 44
M  V30 46 1 25 45
M  V30 47 1 25 46
M  V30 END BOND
M  V30 END CTAB
M  END
>  <NO.>
5127

>  <Name>
fenofibrate

>  <SMILES>
CC(C)OC(=O)C(C)(C)Oc1ccc(C(=O)c2ccc(Cl)cc2)cc1

>  <logBB>


>  <Class>
-1

>  <MW>
360.11

>  <nHBAcc>
4

>  <nHBDon>
0

>  <SLogP>
4.68

>  <TopoPSA>
52.6

>  <MMFF94 Energy>
107.05

$$$$
CC(C)Oc1ccc2c(=O)c(-c3ccccc3)coc2c1
Actelion Java MolfileCreator 2.0

  0  0  0  0  0  0              0 V3000
M  V30 BEGIN CTAB
M  V30 COUNTS 37 39 0 0 0
M  V30 BEGIN ATOM
M  V30 1 O -2.1571 0.9583 1.9972 0
M  V30 2 C -1.6065 0.5819 0.9692 0
M  V30 3 C -2.3319 0.4059 -0.3214 0
M  V30 4 C -0.1636 0.2798 0.9605 0
M  V30 5 C -3.7787 0.6594 -0.4585 0
M  V30 6 C -1.6134 -0.0311 -1.368 0
M  V30 7 C 0.4321 -0.1565 -0.2185 0
M  V30 8 C 0.6043 0.4296 2.1163 0
M  V30 9 C -4.2778 1.4521 -1.5045 0
M  V30 10 C -4.6873 0.1124 0.4582 0
M  V30 11 O -0.2702 -0.3188 -1.3858 0
M  V30 12 C 1.7991 -0.4508 -0.2552 0
M  V30 13 C 1.9691 0.1361 2.0774 0
M  V30 14 C -5.6502 1.6809 -1.6348 0
M  V30 15 C -6.0594 0.342 0.3278 0
M  V30 16 C 2.5736 -0.3093 0.8964 0
M  V30 17 C -6.5403 1.1238 -0.7197 0
M  V30 18 O 3.9129 -0.5523 1.009 0
M  V30 19 C 4.6139 -1.1501 -0.0863 0
M  V30 20 C 5.1348 -0.065 -1.024 0
M  V30 21 C 5.7844 -1.9259 0.514 0
M  V30 22 H -2.0314 -0.2207 -2.3497 0
M  V30 23 H 0.1485 0.7732 3.0423 0
M  V30 24 H -3.6024 1.9118 -2.2225 0
M  V30 25 H -4.3338 -0.4934 1.2905 0
M  V30 26 H 2.2245 -0.7769 -1.1973 0
M  V30 27 H 2.5688 0.2541 2.9777 0
M  V30 28 H -6.0231 2.3 -2.4467 0
M  V30 29 H -6.7499 -0.0854 1.0503 0
M  V30 30 H -7.6075 1.3053 -0.8172 0
M  V30 31 H 3.9889 -1.8719 -0.624 0
M  V30 32 H 5.7206 -0.497 -1.8411 0
M  V30 33 H 4.3128 0.5115 -1.4592 0
M  V30 34 H 5.7636 0.6504 -0.4824 0
M  V30 35 H 6.3799 -2.4133 -0.2638 0
M  V30 36 H 5.4173 -2.6936 1.204 0
M  V30 37 H 6.4377 -1.2667 1.0965 0
M  V30 END ATOM
M  V30 BEGIN BOND
M  V30 1 2 1 2
M  V30 2 1 2 3
M  V30 3 1 2 4
M  V30 4 1 3 5
M  V30 5 2 3 6
M  V30 6 2 4 7
M  V30 7 1 4 8
M  V30 8 2 5 9
M  V30 9 1 5 10
M  V30 10 1 6 11
M  V30 11 1 7 12
M  V30 12 2 8 13
M  V30 13 1 9 14
M  V30 14 2 10 15
M  V30 15 2 12 16
M  V30 16 2 14 17
M  V30 17 1 16 18
M  V30 18 1 18 19
M  V30 19 1 19 20
M  V30 20 1 19 21
M  V30 21 1 7 11
M  V30 22 1 13 16
M  V30 23 1 15 17
M  V30 24 1 6 22
M  V30 25 1 8 23
M  V30 26 1 9 24
M  V30 27 1 10 25
M  V30 28 1 12 26
M  V30 29 1 13 27
M  V30 30 1 14 28
M  V30 31 1 15 29
M  V30 32 1 17 30
M  V30 33 1 19 31
M  V30 34 1 20 32
M  V30 35 1 20 33
M  V30 36 1 20 34
M  V30 37 1 21 35
M  V30 38 1 21 36
M  V30 39 1 21 37
M  V30 END BOND
M  V30 END CTAB
M  END
>  <NO.>
5128

>  <Name>
ipriflavone

>  <SMILES>
CC(C)Oc1ccc2c(=O)c(-c3ccccc3)coc2c1

>  <logBB>


>  <Class>
-1

>  <MW>
280.11

>  <nHBAcc>
3

>  <nHBDon>
0

>  <SLogP>
4.25

>  <TopoPSA>
39.44

>  <MMFF94 Energy>
70.936

$$$$
CC(C)[N+](C)(CCC(C(N)=O)(c1ccccc1)c1ccccc1)C(C)C
Actelion Java MolfileCreator 2.0

  0  0  0  0  0  0              0 V3000
M  V30 BEGIN CTAB
M  V30 COUNTS 59 60 0 0 0
M  V30 BEGIN ATOM
M  V30 1 O 2.5987 0.0 -0.1573 0
M  V30 2 C 2.261 0.4625 0.9332 0
M  V30 3 N 3.2032 0.6506 1.9018 0
M  V30 4 C 0.7744 0.8121 1.2797 0
M  V30 5 C 0.1017 -0.238 2.2054 0
M  V30 6 C 0.7587 2.2506 1.8816 0
M  V30 7 C -0.0138 0.7788 -0.0909 0
M  V30 8 C 0.7469 -1.4234 2.6006 0
M  V30 9 C -1.2308 -0.0432 2.633 0
M  V30 10 C 0.8844 3.3876 1.0592 0
M  V30 11 C 0.7048 2.466 3.275 0
M  V30 12 C -0.2879 -0.6441 -0.6278 0
M  V30 13 C 0.0909 -2.3672 3.3963 0
M  V30 14 C -1.8814 -0.9874 3.429 0
M  V30 15 C 0.9065 4.6767 1.6008 0
M  V30 16 C 0.7252 3.7553 3.8137 0
M  V30 17 N -0.6594 -0.7098 -2.154 0 CHG=1
M  V30 18 C -1.2199 -2.1497 3.8096 0
M  V30 19 C 0.8204 4.8604 2.9764 0
M  V30 20 C 0.6297 -0.4075 -3.0462 0
M  V30 21 C -1.3011 -2.1334 -2.4921 0
M  V30 22 C -1.6924 0.405 -2.4374 0
M  V30 23 C 1.6859 -1.5088 -3.0032 0
M  V30 24 C 0.2645 -0.1179 -4.5109 0
M  V30 25 C -0.6615 -3.2952 -1.7159 0
M  V30 26 C -2.8136 -2.1709 -2.2152 0
M  V30 27 H 4.1704 0.4371 1.6917 0
M  V30 28 H 2.9985 1.0725 2.7999 0
M  V30 29 H -0.9772 1.2914 0.0366 0
M  V30 30 H 0.5388 1.3588 -0.8351 0
M  V30 31 H 1.7692 -1.6494 2.3041 0
M  V30 32 H -1.7739 0.863 2.3656 0
M  V30 33 H 0.9903 3.3038 -0.0187 0
M  V30 34 H 0.6482 1.6343 3.976 0
M  V30 35 H -1.1556 -1.0556 -0.1022 0
M  V30 36 H 0.5561 -1.317 -0.4783 0
M  V30 37 H 0.6088 -3.2745 3.7017 0
M  V30 38 H -2.9016 -0.8105 3.7635 0
M  V30 39 H 1.0029 5.5414 0.9476 0
M  V30 40 H 0.6717 3.8956 4.8914 0
M  V30 41 H -1.7219 -2.8823 4.438 0
M  V30 42 H 0.8404 5.8634 3.3966 0
M  V30 43 H 1.0694 0.5045 -2.6332 0
M  V30 44 H -1.1476 -2.2872 -3.5633 0
M  V30 45 H -2.4647 0.3767 -1.6635 0
M  V30 46 H -1.1836 1.3729 -2.4189 0
M  V30 47 H -2.1323 0.2369 -3.4238 0
M  V30 48 H 1.3604 -2.4074 -3.536 0
M  V30 49 H 2.5966 -1.1643 -3.5079 0
M  V30 50 H 1.9834 -1.7783 -1.9888 0
M  V30 51 H -0.2913 -0.9354 -4.9771 0
M  V30 52 H 1.1753 0.0328 -5.1025 0
M  V30 53 H -0.3179 0.802 -4.615 0
M  V30 54 H -1.0353 -4.2478 -2.1104 0
M  V30 55 H -0.9263 -3.2742 -0.6532 0
M  V30 56 H 0.4231 -3.3383 -1.7882 0
M  V30 57 H -3.3739 -1.5164 -2.889 0
M  V30 58 H -3.2048 -3.1813 -2.3828 0
M  V30 59 H -3.0489 -1.8976 -1.1816 0
M  V30 END ATOM
M  V30 BEGIN BOND
M  V30 1 2 1 2
M  V30 2 1 2 3
M  V30 3 1 2 4
M  V30 4 1 4 5
M  V30 5 1 4 6
M  V30 6 1 4 7
M  V30 7 2 5 8
M  V30 8 1 5 9
M  V30 9 2 6 10
M  V30 10 1 6 11
M  V30 11 1 7 12
M  V30 12 1 8 13
M  V30 13 2 9 14
M  V30 14 1 10 15
M  V30 15 2 11 16
M  V30 16 1 12 17
M  V30 17 2 13 18
M  V30 18 2 15 19
M  V30 19 1 17 20
M  V30 20 1 17 21
M  V30 21 1 17 22
M  V30 22 1 20 23
M  V30 23 1 20 24
M  V30 24 1 21 25
M  V30 25 1 21 26
M  V30 26 1 14 18
M  V30 27 1 16 19
M  V30 28 1 3 27
M  V30 29 1 3 28
M  V30 30 1 7 29
M  V30 31 1 7 30
M  V30 32 1 8 31
M  V30 33 1 9 32
M  V30 34 1 10 33
M  V30 35 1 11 34
M  V30 36 1 12 35
M  V30 37 1 12 36
M  V30 38 1 13 37
M  V30 39 1 14 38
M  V30 40 1 15 39
M  V30 41 1 16 40
M  V30 42 1 18 41
M  V30 43 1 19 42
M  V30 44 1 20 43
M  V30 45 1 21 44
M  V30 46 1 22 45
M  V30 47 1 22 46
M  V30 48 1 22 47
M  V30 49 1 23 48
M  V30 50 1 23 49
M  V30 51 1 23 50
M  V30 52 1 24 51
M  V30 53 1 24 52
M  V30 54 1 24 53
M  V30 55 1 25 54
M  V30 56 1 25 55
M  V30 57 1 25 56
M  V30 58 1 26 57
M  V30 59 1 26 58
M  V30 60 1 26 59
M  V30 END BOND
M  V30 END CTAB
M  END
>  <NO.>
5129

>  <Name>
isopropamide iodide

>  <SMILES>
CC(C)[N+](C)(CCC(C(N)=O)(c1ccccc1)c1ccccc1)C(C)C

>  <logBB>


>  <Class>
-1

>  <MW>
353.26

>  <nHBAcc>
1

>  <nHBDon>
1

>  <SLogP>
4.11

>  <TopoPSA>
43.09

>  <MMFF94 Energy>
100.19

$$$$
CC(C)c1nc(N(C)S(C)(=O)=O)nc(-c2ccc(F)cc2)c1C=CC(O)CC(O)CC(=O)O
Actelion Java MolfileCreator 2.0

  0  0  0  0  0  0              0 V3000
M  V30 BEGIN CTAB
M  V30 COUNTS 61 62 0 0 0
M  V30 BEGIN ATOM
M  V30 1 S 1.1193 4.4833 -3.361 0
M  V30 2 O 1.7467 5.1549 -4.485 0
M  V30 3 O -0.2518 4.0273 -3.4701 0
M  V30 4 N 2.11 3.2089 -2.9308 0
M  V30 5 C 1.2235 5.6188 -1.9855 0
M  V30 6 C 1.5525 2.2888 -2.0273 0
M  V30 7 C 3.546 3.4476 -2.7808 0
M  V30 8 N 1.0908 2.7638 -0.8745 0
M  V30 9 N 1.8182 1.0069 -2.286 0
M  V30 10 C 0.7067 1.8476 0.0455 0
M  V30 11 C 1.4403 0.0952 -1.359 0
M  V30 12 C 0.1379 2.4576 1.2624 0
M  V30 13 C 0.8439 0.4696 -0.1531 0
M  V30 14 C 1.6514 -1.3619 -1.7457 0
M  V30 15 C 0.7004 2.2365 2.5332 0
M  V30 16 C -0.9801 3.3092 1.1693 0
M  V30 17 C 0.3728 -0.5278 0.8159 0
M  V30 18 C 0.5213 -1.832 -2.663 0
M  V30 19 C 3.0125 -1.5811 -2.416 0
M  V30 20 C 0.152 2.8312 3.6729 0
M  V30 21 C -1.5283 3.904 2.3081 0
M  V30 22 C -0.9315 -0.8009 0.9765 0
M  V30 23 C -0.9576 3.6574 3.5494 0
M  V30 24 C -1.4628 -1.8237 1.9356 0
M  V30 25 F -1.4787 4.2306 4.6422 0
M  V30 26 O -2.3865 -1.1438 2.776 0
M  V30 27 C -2.1549 -2.9699 1.1839 0
M  V30 28 C -2.5383 -4.1266 2.1229 0
M  V30 29 O -3.4011 -3.6099 3.1463 0
M  V30 30 C -3.2607 -5.2528 1.3819 0
M  V30 31 C -2.3196 -6.0577 0.5318 0
M  V30 32 O -1.1025 -5.9953 0.5193 0
M  V30 33 O -2.9742 -6.933 -0.2543 0
M  V30 34 H 0.722 5.2068 -1.1115 0
M  V30 35 H 0.7127 6.5381 -2.2843 0
M  V30 36 H 2.2705 5.8431 -1.7779 0
M  V30 37 H 3.7754 3.8857 -1.8043 0
M  V30 38 H 4.1006 2.508 -2.8786 0
M  V30 39 H 3.9218 4.113 -3.5635 0
M  V30 40 H 1.6508 -1.9915 -0.8489 0
M  V30 41 H 1.575 1.5997 2.6441 0
M  V30 42 H -1.4322 3.5064 0.198 0
M  V30 43 H 1.1367 -1.0501 1.3853 0
M  V30 44 H 0.4939 -1.257 -3.5956 0
M  V30 45 H 0.6469 -2.8886 -2.9223 0
M  V30 46 H -0.4543 -1.7212 -2.177 0
M  V30 47 H 3.0885 -1.0522 -3.3727 0
M  V30 48 H 3.8262 -1.2292 -1.7722 0
M  V30 49 H 3.1763 -2.6462 -2.6127 0
M  V30 50 H 0.5826 2.6546 4.6531 0
M  V30 51 H -2.3945 4.5532 2.2321 0
M  V30 52 H -1.681 -0.2622 0.3986 0
M  V30 53 H -0.6595 -2.2176 2.5689 0
M  V30 54 H -2.9535 -1.8367 3.1757 0
M  V30 55 H -3.0693 -2.5817 0.7147 0
M  V30 56 H -1.4998 -3.3411 0.3873 0
M  V30 57 H -1.639 -4.506 2.6224 0
M  V30 58 H -3.6116 -4.3419 3.7558 0
M  V30 59 H -4.0581 -4.8399 0.7534 0
M  V30 60 H -3.7278 -5.9336 2.103 0
M  V30 61 H -2.2698 -7.3998 -0.752 0
M  V30 END ATOM
M  V30 BEGIN BOND
M  V30 1 2 1 2
M  V30 2 2 1 3
M  V30 3 1 1 4
M  V30 4 1 1 5
M  V30 5 1 4 6
M  V30 6 1 4 7
M  V30 7 2 6 8
M  V30 8 1 6 9
M  V30 9 1 8 10
M  V30 10 2 9 11
M  V30 11 1 10 12
M  V30 12 2 10 13
M  V30 13 1 11 14
M  V30 14 2 12 15
M  V30 15 1 12 16
M  V30 16 1 13 17
M  V30 17 1 14 18
M  V30 18 1 14 19
M  V30 19 1 15 20
M  V30 20 2 16 21
M  V30 21 2 17 22
M  V30 22 2 20 23
M  V30 23 1 22 24
M  V30 24 1 23 25
M  V30 25 1 24 26
M  V30 26 1 24 27
M  V30 27 1 27 28
M  V30 28 1 28 29
M  V30 29 1 28 30
M  V30 30 1 30 31
M  V30 31 2 31 32
M  V30 32 1 31 33
M  V30 33 1 11 13
M  V30 34 1 21 23
M  V30 35 1 5 34
M  V30 36 1 5 35
M  V30 37 1 5 36
M  V30 38 1 7 37
M  V30 39 1 7 38
M  V30 40 1 7 39
M  V30 41 1 14 40
M  V30 42 1 15 41
M  V30 43 1 16 42
M  V30 44 1 17 43
M  V30 45 1 18 44
M  V30 46 1 18 45
M  V30 47 1 18 46
M  V30 48 1 19 47
M  V30 49 1 19 48
M  V30 50 1 19 49
M  V30 51 1 20 50
M  V30 52 1 21 51
M  V30 53 1 22 52
M  V30 54 1 24 53
M  V30 55 1 26 54
M  V30 56 1 27 55
M  V30 57 1 27 56
M  V30 58 1 28 57
M  V30 59 1 29 58
M  V30 60 1 30 59
M  V30 61 1 30 60
M  V30 62 1 33 61
M  V30 END BOND
M  V30 END CTAB
M  END
>  <NO.>
5130

>  <Name>
rosuvastatin

>  <SMILES>
CC(C)c1nc(N(C)S(C)(=O)=O)nc(-c2ccc(F)cc2)c1C=CC(O)CC(O)CC(=O)O

>  <logBB>


>  <Class>
-1

>  <MW>
481.17

>  <nHBAcc>
7

>  <nHBDon>
3

>  <SLogP>
2.4

>  <TopoPSA>
140.92

>  <MMFF94 Energy>
-105.71

$$$$
CC(CCC(=O)O)C1CCC2C3C(O)CC4CC(O)CCC4(C)C3CCC12C
Actelion Java MolfileCreator 2.0

  0  0  0  0  0  0              0 V3000
M  V30 BEGIN CTAB
M  V30 COUNTS 68 71 0 0 0
M  V30 BEGIN ATOM
M  V30 1 O 3.4312 2.313 -5.1102 0
M  V30 2 C 4.0771 3.0369 -4.3728 0
M  V30 3 O 4.6604 4.1546 -4.8496 0
M  V30 4 C 4.3497 2.8469 -2.9039 0
M  V30 5 C 3.5821 1.6478 -2.3389 0
M  V30 6 C 3.6228 1.5176 -0.801 0
M  V30 7 C 2.9441 0.2092 -0.2832 0
M  V30 8 C 5.0744 1.5972 -0.2912 0
M  V30 9 C 1.4518 -0.0919 -0.6488 0
M  V30 10 C 2.9659 0.1376 1.2616 0
M  V30 11 C 1.0818 -1.1596 0.4182 0
M  V30 12 C 0.5437 1.1484 -0.5106 0
M  V30 13 C 1.3146 -0.7195 -2.0516 0
M  V30 14 C 1.7431 -0.657 1.7029 0
M  V30 15 C -0.4361 -1.4563 0.5397 0
M  V30 16 C -0.9466 0.8079 -0.4864 0
M  V30 17 C -0.7392 -2.445 1.6847 0
M  V30 18 C -1.2983 -0.1676 0.6526 0
M  V30 19 O -0.0456 -3.6726 1.4756 0
M  V30 20 C -2.2314 -2.7441 1.8251 0
M  V30 21 C -2.8394 -0.4858 0.769 0
M  V30 22 C -3.0328 -1.4504 1.9826 0
M  V30 23 C -3.643 0.8136 1.0679 0
M  V30 24 C -3.3786 -1.0986 -0.5493 0
M  V30 25 C -4.5074 -1.7404 2.2898 0
M  V30 26 C -5.1128 0.5603 1.4104 0
M  V30 27 C -5.2788 -0.4464 2.5445 0
M  V30 28 O -6.6597 -0.7407 2.7245 0
M  V30 29 H 4.4198 4.1606 -5.7997 0
M  V30 30 H 4.045 3.7597 -2.3801 0
M  V30 31 H 5.4284 2.7017 -2.7883 0
M  V30 32 H 2.5418 1.7574 -2.6554 0
M  V30 33 H 3.9622 0.728 -2.8009 0
M  V30 34 H 3.0872 2.3782 -0.3791 0
M  V30 35 H 3.5505 -0.6347 -0.6456 0
M  V30 36 H 5.5335 2.5588 -0.5402 0
M  V30 37 H 5.6871 0.8007 -0.7264 0
M  V30 38 H 5.1319 1.512 0.7976 0
M  V30 39 H 2.9294 1.1351 1.7151 0
M  V30 40 H 3.8847 -0.3461 1.6119 0
M  V30 41 H 1.5852 -2.1005 0.1488 0
M  V30 42 H 0.7829 1.6991 0.4077 0
M  V30 43 H 0.7238 1.8479 -1.3342 0
M  V30 44 H 0.3267 -1.1634 -2.2073 0
M  V30 45 H 2.0496 -1.5182 -2.2008 0
M  V30 46 H 1.4504 0.0082 -2.8529 0
M  V30 47 H 1.0802 -0.0087 2.2852 0
M  V30 48 H 2.0303 -1.4891 2.3548 0
M  V30 49 H -0.705 -1.9645 -0.3947 0
M  V30 50 H -1.2381 0.3947 -1.4572 0
M  V30 51 H -1.4986 1.746 -0.3665 0
M  V30 52 H -0.3819 -2.0364 2.6367 0
M  V30 53 H -1.0173 0.3338 1.5898 0
M  V30 54 H -0.3385 -4.0411 0.6247 0
M  V30 55 H -2.5874 -3.333 0.9712 0
M  V30 56 H -2.3798 -3.3908 2.6997 0
M  V30 57 H -2.6317 -0.9411 2.873 0
M  V30 58 H -3.1775 1.3448 1.9086 0
M  V30 59 H -3.6085 1.4964 0.2114 0
M  V30 60 H -4.4215 -1.4168 -0.4655 0
M  V30 61 H -3.3441 -0.3712 -1.3672 0
M  V30 62 H -2.8112 -1.9756 -0.8698 0
M  V30 63 H -4.9777 -2.3159 1.4838 0
M  V30 64 H -4.589 -2.3793 3.1789 0
M  V30 65 H -5.5928 1.5058 1.6924 0
M  V30 66 H -5.6589 0.2203 0.5222 0
M  V30 67 H -4.9235 0.005 3.4783 0
M  V30 68 H -6.9911 -1.1432 1.9037 0
M  V30 END ATOM
M  V30 BEGIN BOND
M  V30 1 2 1 2
M  V30 2 1 2 3
M  V30 3 1 2 4
M  V30 4 1 4 5
M  V30 5 1 5 6
M  V30 6 1 6 7
M  V30 7 1 6 8
M  V30 8 1 7 9
M  V30 9 1 7 10
M  V30 10 1 9 11
M  V30 11 1 9 12
M  V30 12 1 9 13
M  V30 13 1 10 14
M  V30 14 1 11 15
M  V30 15 1 12 16
M  V30 16 1 15 17
M  V30 17 1 15 18
M  V30 18 1 17 19
M  V30 19 1 17 20
M  V30 20 1 18 21
M  V30 21 1 20 22
M  V30 22 1 21 23
M  V30 23 1 21 24
M  V30 24 1 22 25
M  V30 25 1 23 26
M  V30 26 1 25 27
M  V30 27 1 27 28
M  V30 28 1 11 14
M  V30 29 1 16 18
M  V30 30 1 21 22
M  V30 31 1 26 27
M  V30 32 1 3 29
M  V30 33 1 4 30
M  V30 34 1 4 31
M  V30 35 1 5 32
M  V30 36 1 5 33
M  V30 37 1 6 34
M  V30 38 1 7 35
M  V30 39 1 8 36
M  V30 40 1 8 37
M  V30 41 1 8 38
M  V30 42 1 10 39
M  V30 43 1 10 40
M  V30 44 1 11 41
M  V30 45 1 12 42
M  V30 46 1 12 43
M  V30 47 1 13 44
M  V30 48 1 13 45
M  V30 49 1 13 46
M  V30 50 1 14 47
M  V30 51 1 14 48
M  V30 52 1 15 49
M  V30 53 1 16 50
M  V30 54 1 16 51
M  V30 55 1 17 52
M  V30 56 1 18 53
M  V30 57 1 19 54
M  V30 58 1 20 55
M  V30 59 1 20 56
M  V30 60 1 22 57
M  V30 61 1 23 58
M  V30 62 1 23 59
M  V30 63 1 24 60
M  V30 64 1 24 61
M  V30 65 1 24 62
M  V30 66 1 25 63
M  V30 67 1 25 64
M  V30 68 1 26 65
M  V30 69 1 26 66
M  V30 70 1 27 67
M  V30 71 1 28 68
M  V30 END BOND
M  V30 END CTAB
M  END
>  <NO.>
5133

>  <Name>
3,7-dihydroxycholan-24-oic acid

>  <SMILES>
CC(CCC(=O)O)C1CCC2C3C(O)CC4CC(O)CCC4(C)C3CCC12C

>  <logBB>


>  <Class>
-1

>  <MW>
392.29

>  <nHBAcc>
3

>  <nHBDon>
3

>  <SLogP>
4.48

>  <TopoPSA>
77.76

>  <MMFF94 Energy>
61.994

$$$$
CC(CN(C)C)C(C)(O)Cc1ccc(Cl)cc1
Actelion Java MolfileCreator 2.0

  0  0  0  0  0  0              0 V3000
M  V30 BEGIN CTAB
M  V30 COUNTS 39 39 0 0 0
M  V30 BEGIN ATOM
M  V30 1 Cl -6.7169 0.5518 -1.7351 0
M  V30 2 C -5.045 0.5851 -1.3308 0
M  V30 3 C -4.0955 0.7938 -2.3281 0
M  V30 4 C -4.6492 0.4036 -0.0075 0
M  V30 5 C -2.7388 0.8201 -1.9989 0
M  V30 6 C -3.292 0.4296 0.3217 0
M  V30 7 C -2.3236 0.6339 -0.6717 0
M  V30 8 C -0.8486 0.6593 -0.3201 0
M  V30 9 C -0.0851 -0.6896 -0.4826 0
M  V30 10 O -0.2572 -1.143 -1.8388 0
M  V30 11 C 1.4598 -0.4723 -0.2859 0
M  V30 12 C -0.6525 -1.7729 0.4475 0
M  V30 13 C 1.8316 0.0667 1.1216 0
M  V30 14 C 2.2722 -1.7428 -0.6058 0
M  V30 15 N 3.2726 0.3066 1.3353 0
M  V30 16 C 3.5368 0.5769 2.7513 0
M  V30 17 C 3.7748 1.4147 0.5197 0
M  V30 18 H -4.4029 0.9389 -3.3602 0
M  V30 19 H -5.3904 0.2437 0.771 0
M  V30 20 H -2.0036 0.9866 -2.785 0
M  V30 21 H -2.9975 0.2895 1.3598 0
M  V30 22 H -0.7581 1.0288 0.708 0
M  V30 23 H -0.3757 1.4204 -0.9559 0
M  V30 24 H -1.1865 -1.413 -1.9474 0
M  V30 25 H 1.7583 0.27 -1.0385 0
M  V30 26 H -1.6927 -2.0082 0.1969 0
M  V30 27 H -0.6165 -1.4713 1.4984 0
M  V30 28 H -0.1134 -2.7188 0.3361 0
M  V30 29 H 1.2843 0.9919 1.3331 0
M  V30 30 H 1.4977 -0.6733 1.8593 0
M  V30 31 H 1.9873 -2.1736 -1.5705 0
M  V30 32 H 3.3422 -1.5172 -0.6659 0
M  V30 33 H 2.1411 -2.5097 0.164 0
M  V30 34 H 3.2235 -0.2706 3.3711 0
M  V30 35 H 3.0166 1.4748 3.1045 0
M  V30 36 H 4.6106 0.7082 2.9255 0
M  V30 37 H 3.2345 2.3483 0.714 0
M  V30 38 H 3.7046 1.1874 -0.5481 0
M  V30 39 H 4.8386 1.5875 0.7202 0
M  V30 END ATOM
M  V30 BEGIN BOND
M  V30 1 1 1 2
M  V30 2 2 2 3
M  V30 3 1 2 4
M  V30 4 1 3 5
M  V30 5 2 4 6
M  V30 6 2 5 7
M  V30 7 1 7 8
M  V30 8 1 8 9
M  V30 9 1 9 10
M  V30 10 1 9 11
M  V30 11 1 9 12
M  V30 12 1 11 13
M  V30 13 1 11 14
M  V30 14 1 13 15
M  V30 15 1 15 16
M  V30 16 1 15 17
M  V30 17 1 6 7
M  V30 18 1 3 18
M  V30 19 1 4 19
M  V30 20 1 5 20
M  V30 21 1 6 21
M  V30 22 1 8 22
M  V30 23 1 8 23
M  V30 24 1 10 24
M  V30 25 1 11 25
M  V30 26 1 12 26
M  V30 27 1 12 27
M  V30 28 1 12 28
M  V30 29 1 13 29
M  V30 30 1 13 30
M  V30 31 1 14 31
M  V30 32 1 14 32
M  V30 33 1 14 33
M  V30 34 1 16 34
M  V30 35 1 16 35
M  V30 36 1 16 36
M  V30 37 1 17 37
M  V30 38 1 17 38
M  V30 39 1 17 39
M  V30 END BOND
M  V30 END CTAB
M  END
>  <NO.>
5134

>  <Name>
clobutinol

>  <SMILES>
CC(CN(C)C)C(C)(O)Cc1ccc(Cl)cc1

>  <logBB>


>  <Class>
-1

>  <MW>
255.14

>  <nHBAcc>
2

>  <nHBDon>
1

>  <SLogP>
2.83

>  <TopoPSA>
23.47

>  <MMFF94 Energy>
54.703

$$$$
CC(COc1ccccc1)NC(C)C(O)c1ccc(O)cc1
Actelion Java MolfileCreator 2.0

  0  0  0  0  0  0              0 V3000
M  V30 BEGIN CTAB
M  V30 COUNTS 45 46 0 0 0
M  V30 BEGIN ATOM
M  V30 1 O -0.3928 1.9655 -2.359 0
M  V30 2 C 0.7435 2.2368 -3.0701 0
M  V30 3 C -0.4838 0.6764 -1.7448 0
M  V30 4 C 1.8282 1.3766 -3.2471 0
M  V30 5 C 0.7761 3.5058 -3.6549 0
M  V30 6 C -1.8423 0.5654 -1.0126 0
M  V30 7 C 2.9322 1.785 -4.0025 0
M  V30 8 C 1.8775 3.9145 -4.4088 0
M  V30 9 N -1.9648 -0.7004 -0.2586 0
M  V30 10 C -2.9915 0.6333 -2.0284 0
M  V30 11 C 2.9571 3.0522 -4.5826 0
M  V30 12 C -1.2613 -0.6641 1.0559 0
M  V30 13 C -0.8413 -2.1245 1.4143 0
M  V30 14 C -2.158 -0.0536 2.1367 0
M  V30 15 O -0.2141 -2.7059 0.2601 0
M  V30 16 C 0.1166 -2.2105 2.5821 0
M  V30 17 C -0.3415 -2.6256 3.8427 0
M  V30 18 C 1.4689 -1.8577 2.4401 0
M  V30 19 C 0.5299 -2.6813 4.9322 0
M  V30 20 C 2.3422 -1.9154 3.5288 0
M  V30 21 C 1.8627 -2.3262 4.7675 0
M  V30 22 O 2.6787 -2.3969 5.8576 0
M  V30 23 H 0.3375 0.5652 -1.028 0
M  V30 24 H -0.4127 -0.1108 -2.5063 0
M  V30 25 H 1.8491 0.3826 -2.8129 0
M  V30 26 H -0.0648 4.1819 -3.5217 0
M  V30 27 H -1.9655 1.4279 -0.346 0
M  V30 28 H 3.7742 1.1107 -4.1378 0
M  V30 29 H 1.8905 4.9035 -4.8586 0
M  V30 30 H -2.9542 -0.8943 -0.0875 0
M  V30 31 H -2.9393 -0.1912 -2.7483 0
M  V30 32 H -3.9638 0.5826 -1.525 0
M  V30 33 H -2.9664 1.5732 -2.5901 0
M  V30 34 H 3.8163 3.3663 -5.1693 0
M  V30 35 H -0.3519 -0.0588 0.9653 0
M  V30 36 H -1.7321 -2.7331 1.6152 0
M  V30 37 H -3.0535 -0.6624 2.3037 0
M  V30 38 H -2.4843 0.9551 1.8633 0
M  V30 39 H -1.6248 0.0295 3.0891 0
M  V30 40 H -0.7384 -2.3494 -0.4861 0
M  V30 41 H -1.3814 -2.9102 3.9865 0
M  V30 42 H 1.8479 -1.5475 1.468 0
M  V30 43 H 0.1708 -3.0043 5.9051 0
M  V30 44 H 3.3828 -1.6419 3.3881 0
M  V30 45 H 3.5785 -2.1559 5.583 0
M  V30 END ATOM
M  V30 BEGIN BOND
M  V30 1 1 1 2
M  V30 2 1 1 3
M  V30 3 2 2 4
M  V30 4 1 2 5
M  V30 5 1 3 6
M  V30 6 1 4 7
M  V30 7 2 5 8
M  V30 8 1 6 9
M  V30 9 1 6 10
M  V30 10 2 7 11
M  V30 11 1 9 12
M  V30 12 1 12 13
M  V30 13 1 12 14
M  V30 14 1 13 15
M  V30 15 1 13 16
M  V30 16 2 16 17
M  V30 17 1 16 18
M  V30 18 1 17 19
M  V30 19 2 18 20
M  V30 20 2 19 21
M  V30 21 1 21 22
M  V30 22 1 8 11
M  V30 23 1 20 21
M  V30 24 1 3 23
M  V30 25 1 3 24
M  V30 26 1 4 25
M  V30 27 1 5 26
M  V30 28 1 6 27
M  V30 29 1 7 28
M  V30 30 1 8 29
M  V30 31 1 9 30
M  V30 32 1 10 31
M  V30 33 1 10 32
M  V30 34 1 10 33
M  V30 35 1 11 34
M  V30 36 1 12 35
M  V30 37 1 13 36
M  V30 38 1 14 37
M  V30 39 1 14 38
M  V30 40 1 14 39
M  V30 41 1 15 40
M  V30 42 1 17 41
M  V30 43 1 18 42
M  V30 44 1 19 43
M  V30 45 1 20 44
M  V30 46 1 22 45
M  V30 END BOND
M  V30 END CTAB
M  END
>  <NO.>
5135

>  <Name>
isoxsuprine

>  <SMILES>
CC(COc1ccccc1)NC(C)C(O)c1ccc(O)cc1

>  <logBB>


>  <Class>
-1

>  <MW>
301.17

>  <nHBAcc>
4

>  <nHBDon>
3

>  <SLogP>
2.87

>  <TopoPSA>
61.72

>  <MMFF94 Energy>
78.128

$$$$
CC(Cc1ccc2c(c1)OCO2)NCC(O)c1ccc(O)c(O)c1
Actelion Java MolfileCreator 2.0

  0  0  0  0  0  0              0 V3000
M  V30 BEGIN CTAB
M  V30 COUNTS 45 47 0 0 0
M  V30 BEGIN ATOM
M  V30 1 O -3.176 3.335 -2.6991 0
M  V30 2 C -2.1333 3.3191 -1.8258 0
M  V30 3 C -4.2367 3.8099 -1.844 0
M  V30 4 C -2.4963 3.7361 -0.5673 0
M  V30 5 C -0.8423 2.9349 -2.1212 0
M  V30 6 O -3.8127 4.0679 -0.4896 0
M  V30 7 C -1.5892 3.792 0.4674 0
M  V30 8 C 0.1133 2.9811 -1.093 0
M  V30 9 C -0.2715 3.4093 0.1982 0
M  V30 10 C 1.5399 2.552 -1.3615 0
M  V30 11 C 1.7433 1.0185 -1.2964 0
M  V30 12 N 1.565 0.5515 0.0903 0
M  V30 13 C 3.1391 0.6671 -1.8214 0
M  V30 14 C 1.3451 -0.9046 0.183 0
M  V30 15 C 0.8868 -1.2618 1.618 0
M  V30 16 O -0.239 -0.4416 1.9573 0
M  V30 17 C 0.5391 -2.7291 1.7486 0
M  V30 18 C -0.7866 -3.1816 1.6309 0
M  V30 19 C 1.5639 -3.6714 1.9613 0
M  V30 20 C -1.0658 -4.5401 1.7323 0
M  V30 21 C 1.2744 -5.0348 2.0573 0
M  V30 22 O -2.3421 -5.0226 1.6321 0
M  V30 23 C -0.0402 -5.4568 1.9409 0
M  V30 24 O -0.325 -6.7889 2.0345 0
M  V30 25 H -5.034 3.0578 -1.8243 0
M  V30 26 H -4.6395 4.7372 -2.2676 0
M  V30 27 H -0.5855 2.6067 -3.1224 0
M  V30 28 H -1.8892 4.1181 1.4567 0
M  V30 29 H 0.4611 3.4369 1.0023 0
M  V30 30 H 2.2166 3.0589 -0.66 0
M  V30 31 H 1.8226 2.9217 -2.3564 0
M  V30 32 H 0.9944 0.5465 -1.9454 0
M  V30 33 H 2.377 0.813 0.6512 0
M  V30 34 H 3.2964 -0.4154 -1.8538 0
M  V30 35 H 3.9247 1.1069 -1.1968 0
M  V30 36 H 3.2727 1.0441 -2.8413 0
M  V30 37 H 2.2539 -1.4587 -0.075 0
M  V30 38 H 0.5543 -1.1931 -0.5209 0
M  V30 39 H 1.6766 -1.0134 2.3378 0
M  V30 40 H -0.0853 0.3929 1.4668 0
M  V30 41 H -1.5846 -2.4624 1.4661 0
M  V30 42 H 2.5982 -3.3474 2.0563 0
M  V30 43 H 2.0657 -5.7591 2.2233 0
M  V30 44 H -2.939 -4.2588 1.5438 0
M  V30 45 H -1.2965 -6.8348 1.9308 0
M  V30 END ATOM
M  V30 BEGIN BOND
M  V30 1 1 1 2
M  V30 2 1 1 3
M  V30 3 2 2 4
M  V30 4 1 2 5
M  V30 5 1 3 6
M  V30 6 1 4 7
M  V30 7 2 5 8
M  V30 8 2 7 9
M  V30 9 1 8 10
M  V30 10 1 10 11
M  V30 11 1 11 12
M  V30 12 1 11 13
M  V30 13 1 12 14
M  V30 14 1 14 15
M  V30 15 1 15 16
M  V30 16 1 15 17
M  V30 17 2 17 18
M  V30 18 1 17 19
M  V30 19 1 18 20
M  V30 20 2 19 21
M  V30 21 1 20 22
M  V30 22 2 20 23
M  V30 23 1 23 24
M  V30 24 1 4 6
M  V30 25 1 8 9
M  V30 26 1 21 23
M  V30 27 1 3 25
M  V30 28 1 3 26
M  V30 29 1 5 27
M  V30 30 1 7 28
M  V30 31 1 9 29
M  V30 32 1 10 30
M  V30 33 1 10 31
M  V30 34 1 11 32
M  V30 35 1 12 33
M  V30 36 1 13 34
M  V30 37 1 13 35
M  V30 38 1 13 36
M  V30 39 1 14 37
M  V30 40 1 14 38
M  V30 41 1 15 39
M  V30 42 1 16 40
M  V30 43 1 18 41
M  V30 44 1 19 42
M  V30 45 1 21 43
M  V30 46 1 22 44
M  V30 47 1 24 45
M  V30 END BOND
M  V30 END CTAB
M  END
>  <NO.>
5136

>  <Name>
protokylol hydrochloride

>  <SMILES>
CC(Cc1ccc2c(c1)OCO2)NCC(O)c1ccc(O)c(O)c1

>  <logBB>


>  <Class>
-1

>  <MW>
331.14

>  <nHBAcc>
6

>  <nHBDon>
4

>  <SLogP>
2.08

>  <TopoPSA>
91.18

>  <MMFF94 Energy>
69.91

$$$$
CC(Cc1cccc(C(F)(F)F)c1)NCCOC(=O)c1ccccc1
Actelion Java MolfileCreator 2.0

  0  0  0  0  0  0              0 V3000
M  V30 BEGIN CTAB
M  V30 COUNTS 45 46 0 0 0
M  V30 BEGIN ATOM
M  V30 1 F -1.5968 -6.5594 -0.7981 0
M  V30 2 C -0.8158 -6.1189 0.2282 0
M  V30 3 F 0.4607 -6.1259 -0.2448 0
M  V30 4 F -0.8683 -7.0952 1.1775 0
M  V30 5 C -1.2289 -4.7634 0.7463 0
M  V30 6 C -1.7885 -3.8098 -0.1207 0
M  V30 7 C -1.0272 -4.4217 2.091 0
M  V30 8 C -2.1544 -2.5367 0.3412 0
M  V30 9 C -1.3949 -3.1621 2.562 0
M  V30 10 C -1.9582 -2.2274 1.6934 0
M  V30 11 C -2.7526 -1.5168 -0.6039 0
M  V30 12 C -1.7491 -0.5985 -1.35 0 CFG=1
M  V30 13 N -0.8497 0.1772 -0.4852 0
M  V30 14 C -0.8744 -1.389 -2.3289 0
M  V30 15 C -1.517 1.2869 0.205 0
M  V30 16 C -0.5532 2.0403 1.1333 0
M  V30 17 O 0.4616 2.6833 0.3502 0
M  V30 18 C 1.4002 3.334 1.0774 0
M  V30 19 O 1.4134 3.4397 2.294 0
M  V30 20 C 2.4314 3.9286 0.1846 0
M  V30 21 C 3.4172 4.7418 0.7604 0
M  V30 22 C 2.4511 3.6968 -1.1978 0
M  V30 23 C 4.407 5.3201 -0.0368 0
M  V30 24 C 3.4433 4.277 -1.9918 0
M  V30 25 C 4.4185 5.0877 -1.4115 0
M  V30 26 H -1.9391 -4.0672 -1.1692 0
M  V30 27 H -0.5855 -5.1406 2.7796 0
M  V30 28 H -1.243 -2.9078 3.6085 0
M  V30 29 H -2.2444 -1.2529 2.0826 0
M  V30 30 H -3.4674 -0.9 -0.0437 0
M  V30 31 H -3.3674 -2.0471 -1.3441 0
M  V30 32 H -2.3371 0.0994 -1.961 0
M  V30 33 H -0.3908 -0.4408 0.185 0
M  V30 34 H -0.2799 -0.7096 -2.9509 0
M  V30 35 H -0.1764 -2.0572 -1.8136 0
M  V30 36 H -1.4923 -1.993 -3.002 0
M  V30 37 H -1.9066 1.9876 -0.5424 0
M  V30 38 H -2.3545 0.9212 0.8071 0
M  V30 39 H -1.1139 2.8044 1.6847 0
M  V30 40 H -0.0938 1.3458 1.8474 0
M  V30 41 H 3.4173 4.9276 1.8329 0
M  V30 42 H 1.7032 3.0626 -1.6686 0
M  V30 43 H 5.1688 5.9503 0.4154 0
M  V30 44 H 3.4557 4.0937 -3.0635 0
M  V30 45 H 5.1902 5.5373 -2.0317 0
M  V30 END ATOM
M  V30 BEGIN BOND
M  V30 1 1 1 2
M  V30 2 1 2 3
M  V30 3 1 2 4
M  V30 4 1 2 5
M  V30 5 2 5 6
M  V30 6 1 5 7
M  V30 7 1 6 8
M  V30 8 2 7 9
M  V30 9 2 8 10
M  V30 10 1 8 11
M  V30 11 1 11 12
M  V30 12 1 12 13
M  V30 13 1 12 14
M  V30 14 1 13 15
M  V30 15 1 15 16
M  V30 16 1 16 17
M  V30 17 1 17 18
M  V30 18 2 18 19
M  V30 19 1 18 20
M  V30 20 2 20 21
M  V30 21 1 20 22
M  V30 22 1 21 23
M  V30 23 2 22 24
M  V30 24 2 23 25
M  V30 25 1 9 10
M  V30 26 1 24 25
M  V30 27 1 6 26
M  V30 28 1 7 27
M  V30 29 1 9 28
M  V30 30 1 10 29
M  V30 31 1 11 30
M  V30 32 1 11 31
M  V30 33 1 12 32
M  V30 34 1 13 33
M  V30 35 1 14 34
M  V30 36 1 14 35
M  V30 37 1 14 36
M  V30 38 1 15 37
M  V30 39 1 15 38
M  V30 40 1 16 39
M  V30 41 1 16 40
M  V30 42 1 21 41
M  V30 43 1 22 42
M  V30 44 1 23 43
M  V30 45 1 24 44
M  V30 46 1 25 45
M  V30 END BOND
M  V30 BEGIN COLLECTION
M  V30 MDLV30/STERAC1 ATOMS=(1 12)
M  V30 END COLLECTION
M  V30 END CTAB
M  END
>  <NO.>
5137

>  <Name>
benfluorex

>  <SMILES>
CC(Cc1cccc(C(F)(F)F)c1)NCCOC(=O)c1ccccc1

>  <logBB>


>  <Class>
-1

>  <MW>
351.14

>  <nHBAcc>
3

>  <nHBDon>
1

>  <SLogP>
4.08

>  <TopoPSA>
38.33

>  <MMFF94 Energy>
103.82

$$$$
CC(N=C(NC#N)Nc1ccncc1)C(C)(C)C
Actelion Java MolfileCreator 2.0

  0  0  0  0  0  0              0 V3000
M  V30 BEGIN CTAB
M  V30 COUNTS 37 37 0 0 0
M  V30 BEGIN ATOM
M  V30 1 N 2.1004 -0.0777 3.7364 0
M  V30 2 C 1.6698 0.5489 2.8628 0
M  V30 3 N 1.1941 1.3541 1.9147 0
M  V30 4 C 0.805 0.746 0.7064 0
M  V30 5 N 0.856 -0.5291 0.6117 0
M  V30 6 N 0.4655 1.6396 -0.2701 0
M  V30 7 C 0.4487 -1.2283 -0.6099 0 CFG=2
M  V30 8 C -0.217 2.866 -0.1664 0
M  V30 9 C -0.2697 -2.5618 -0.2114 0
M  V30 10 C 1.6968 -1.4152 -1.4774 0
M  V30 11 C -1.0105 3.208 0.9303 0
M  V30 12 C -0.0605 3.8146 -1.181 0
M  V30 13 C 0.6402 -3.4995 0.6048 0
M  V30 14 C -1.5205 -2.2362 0.6353 0
M  V30 15 C -0.7417 -3.3156 -1.4713 0
M  V30 16 C -1.6143 4.4555 0.9599 0
M  V30 17 C -0.6991 5.0391 -1.0613 0
M  V30 18 N -1.4722 5.3791 -0.0114 0
M  V30 19 H 1.3447 2.3596 1.9272 0
M  V30 20 H 0.5614 1.3056 -1.2188 0
M  V30 21 H -0.2756 -0.6333 -1.1812 0
M  V30 22 H 2.4698 -1.9923 -0.9604 0
M  V30 23 H 1.4626 -1.9135 -2.4219 0
M  V30 24 H 2.1411 -0.4449 -1.726 0
M  V30 25 H -1.1942 2.5143 1.7443 0
M  V30 26 H 0.5571 3.6193 -2.0508 0
M  V30 27 H 1.0026 -3.0173 1.5189 0
M  V30 28 H 1.5107 -3.8243 0.0262 0
M  V30 29 H 0.0989 -4.4039 0.9068 0
M  V30 30 H -1.2546 -1.7615 1.5861 0
M  V30 31 H -2.1946 -1.5592 0.0984 0
M  V30 32 H -2.0847 -3.1451 0.8739 0
M  V30 33 H -1.3576 -2.672 -2.1092 0
M  V30 34 H 0.101 -3.6781 -2.0684 0
M  V30 35 H -1.3446 -4.1914 -1.2045 0
M  V30 36 H -2.2495 4.7502 1.791 0
M  V30 37 H -0.5985 5.8017 -1.8286 0
M  V30 END ATOM
M  V30 BEGIN BOND
M  V30 1 3 1 2
M  V30 2 1 2 3
M  V30 3 1 3 4
M  V30 4 2 4 5
M  V30 5 1 4 6
M  V30 6 1 5 7
M  V30 7 1 6 8
M  V30 8 1 7 9
M  V30 9 1 7 10
M  V30 10 2 8 11
M  V30 11 1 8 12
M  V30 12 1 9 13
M  V30 13 1 9 14
M  V30 14 1 9 15
M  V30 15 1 11 16
M  V30 16 2 12 17
M  V30 17 2 16 18
M  V30 18 1 17 18
M  V30 19 1 3 19
M  V30 20 1 6 20
M  V30 21 1 7 21
M  V30 22 1 10 22
M  V30 23 1 10 23
M  V30 24 1 10 24
M  V30 25 1 11 25
M  V30 26 1 12 26
M  V30 27 1 13 27
M  V30 28 1 13 28
M  V30 29 1 13 29
M  V30 30 1 14 30
M  V30 31 1 14 31
M  V30 32 1 14 32
M  V30 33 1 15 33
M  V30 34 1 15 34
M  V30 35 1 15 35
M  V30 36 1 16 36
M  V30 37 1 17 37
M  V30 END BOND
M  V30 BEGIN COLLECTION
M  V30 MDLV30/STERAC1 ATOMS=(1 7)
M  V30 END COLLECTION
M  V30 END CTAB
M  END
>  <NO.>
5139

>  <Name>
pinacidil

>  <SMILES>
CC(N=C(NC#N)Nc1ccncc1)C(C)(C)C

>  <logBB>


>  <Class>
-1

>  <MW>
245.16

>  <nHBAcc>
3

>  <nHBDon>
2

>  <SLogP>
2.35

>  <TopoPSA>
73.1

>  <MMFF94 Energy>
-86.492

$$$$
CC(NCCc1ccc(O)cc1)C(O)c1ccc(O)cc1
Actelion Java MolfileCreator 2.0

  0  0  0  0  0  0              0 V3000
M  V30 BEGIN CTAB
M  V30 COUNTS 42 43 0 0 0
M  V30 BEGIN ATOM
M  V30 1 O 3.9332 0.9428 5.5887 0
M  V30 2 C 3.0837 1.2799 4.5766 0
M  V30 3 C 1.9451 2.0438 4.8102 0
M  V30 4 C 3.3927 0.8374 3.2971 0
M  V30 5 C 1.1016 2.3656 3.7433 0
M  V30 6 C 2.5504 1.1605 2.232 0
M  V30 7 C 1.3918 1.9259 2.4413 0
M  V30 8 C 0.4564 2.2554 1.2979 0
M  V30 9 O 1.2346 2.745 0.1964 0
M  V30 10 C -0.3852 1.0341 0.809 0
M  V30 11 N -1.0549 1.4098 -0.4654 0
M  V30 12 C -1.4249 0.62 1.8545 0
M  V30 13 C -0.8294 0.4383 -1.5468 0
M  V30 14 C -1.5519 -0.9029 -1.3534 0
M  V30 15 C -1.361 -1.8147 -2.5412 0
M  V30 16 C -2.2834 -1.8113 -3.5978 0
M  V30 17 C -0.2423 -2.6567 -2.615 0
M  V30 18 C -2.0965 -2.6423 -4.705 0
M  V30 19 C -0.056 -3.4867 -3.7212 0
M  V30 20 C -0.983 -3.4741 -4.756 0
M  V30 21 O -0.7613 -4.3006 -5.8174 0
M  V30 22 H 3.6155 1.3558 6.408 0
M  V30 23 H 1.6989 2.3968 5.8065 0
M  V30 24 H 4.2896 0.2495 3.1256 0
M  V30 25 H 0.2144 2.9655 3.9344 0
M  V30 26 H 2.8072 0.8249 1.2292 0
M  V30 27 H -0.2113 3.0771 1.5867 0
M  V30 28 H 0.6262 2.6591 -0.5657 0
M  V30 29 H 0.2939 0.1897 0.6348 0
M  V30 30 H -2.0589 1.5193 -0.3151 0
M  V30 31 H -0.9419 0.2709 2.7728 0
M  V30 32 H -2.0838 1.4556 2.1162 0
M  V30 33 H -2.0524 -0.1993 1.4889 0
M  V30 34 H -1.1865 0.9043 -2.4738 0
M  V30 35 H 0.2475 0.2843 -1.6913 0
M  V30 36 H -1.1887 -1.4151 -0.4542 0
M  V30 37 H -2.6249 -0.7345 -1.1938 0
M  V30 38 H -3.1541 -1.1599 -3.5648 0
M  V30 39 H 0.4917 -2.6722 -1.8124 0
M  V30 40 H -2.8236 -2.625 -5.5105 0
M  V30 41 H 0.8103 -4.1397 -3.7759 0
M  V30 42 H -1.4823 -4.1824 -6.457 0
M  V30 END ATOM
M  V30 BEGIN BOND
M  V30 1 1 1 2
M  V30 2 2 2 3
M  V30 3 1 2 4
M  V30 4 1 3 5
M  V30 5 2 4 6
M  V30 6 2 5 7
M  V30 7 1 7 8
M  V30 8 1 8 9
M  V30 9 1 8 10
M  V30 10 1 10 11
M  V30 11 1 10 12
M  V30 12 1 11 13
M  V30 13 1 13 14
M  V30 14 1 14 15
M  V30 15 2 15 16
M  V30 16 1 15 17
M  V30 17 1 16 18
M  V30 18 2 17 19
M  V30 19 2 18 20
M  V30 20 1 20 21
M  V30 21 1 6 7
M  V30 22 1 19 20
M  V30 23 1 1 22
M  V30 24 1 3 23
M  V30 25 1 4 24
M  V30 26 1 5 25
M  V30 27 1 6 26
M  V30 28 1 8 27
M  V30 29 1 9 28
M  V30 30 1 10 29
M  V30 31 1 11 30
M  V30 32 1 12 31
M  V30 33 1 12 32
M  V30 34 1 12 33
M  V30 35 1 13 34
M  V30 36 1 13 35
M  V30 37 1 14 36
M  V30 38 1 14 37
M  V30 39 1 16 38
M  V30 40 1 17 39
M  V30 41 1 18 40
M  V30 42 1 19 41
M  V30 43 1 21 42
M  V30 END BOND
M  V30 END CTAB
M  END
>  <NO.>
5140

>  <Name>
ritodrine hydrochloride

>  <SMILES>
CC(NCCc1ccc(O)cc1)C(O)c1ccc(O)cc1

>  <logBB>


>  <Class>
-1

>  <MW>
287.15

>  <nHBAcc>
4

>  <nHBDon>
4

>  <SLogP>
2.35

>  <TopoPSA>
72.72

>  <MMFF94 Energy>
61.623

$$$$
CC(O)(CS(=O)(=O)c1ccc(F)cc1)C(=O)Nc1ccc(C#N)c(C(F)(F)F)c1
Actelion Java MolfileCreator 2.0

  0  0  0  0  0  0              0 V3000
M  V30 BEGIN CTAB
M  V30 COUNTS 43 44 0 0 0
M  V30 BEGIN ATOM
M  V30 1 S -3.4595 0.6582 -0.0822 0
M  V30 2 O -3.6299 -0.4168 -1.0446 0
M  V30 3 O -3.854 2.0132 -0.4119 0
M  V30 4 C -4.3197 0.2012 1.4036 0
M  V30 5 C -1.7579 0.6646 0.3995 0
M  V30 6 C -4.6868 -1.133 1.6111 0
M  V30 7 C -4.6529 1.1926 2.334 0
M  V30 8 C -0.8101 0.6574 -0.8012 0 CFG=2
M  V30 9 C -5.3731 -1.4787 2.7759 0
M  V30 10 C -5.3393 0.8366 3.4954 0
M  V30 11 O -0.8788 -0.5968 -1.5085 0
M  V30 12 C 0.6307 0.8004 -0.2479 0
M  V30 13 C -1.03 1.7894 -1.8049 0
M  V30 14 C -5.6905 -0.4934 3.707 0
M  V30 15 O 0.8846 1.5019 0.7264 0
M  V30 16 N 1.5446 0.0847 -1.0029 0
M  V30 17 F -6.3496 -0.8306 4.8227 0
M  V30 18 C 2.9371 0.0217 -0.8435 0
M  V30 19 C 3.6213 -0.9745 -1.5495 0
M  V30 20 C 3.6626 0.9054 -0.047 0
M  V30 21 C 5.0219 -1.1072 -1.4573 0
M  V30 22 C 5.0526 0.7878 0.0554 0
M  V30 23 C 5.7376 -0.2137 -0.643 0
M  V30 24 C 5.7308 -2.1953 -2.2249 0
M  V30 25 C 7.1653 -0.2956 -0.5058 0
M  V30 26 F 4.8851 -2.9679 -2.9633 0
M  V30 27 F 6.6416 -1.703 -3.1053 0
M  V30 28 F 6.3998 -3.0554 -1.4126 0
M  V30 29 N 8.3177 -0.3594 -0.3938 0
M  V30 30 H -1.6137 1.54 1.0417 0
M  V30 31 H -1.598 -0.2407 0.9966 0
M  V30 32 H -4.4528 -1.9024 0.8786 0
M  V30 33 H -4.3939 2.2354 2.1613 0
M  V30 34 H -5.6696 -2.5067 2.9624 0
M  V30 35 H -5.6102 1.5861 4.2334 0
M  V30 36 H -1.8132 -0.744 -1.7771 0
M  V30 37 H -1.9578 1.6559 -2.3701 0
M  V30 38 H -0.2266 1.8114 -2.5509 0
M  V30 39 H -1.05 2.7662 -1.3101 0
M  V30 40 H 1.1076 -0.5282 -1.6907 0
M  V30 41 H 3.0634 -1.6675 -2.1795 0
M  V30 42 H 3.1758 1.7055 0.5043 0
M  V30 43 H 5.5944 1.4911 0.6875 0
M  V30 END ATOM
M  V30 BEGIN BOND
M  V30 1 2 1 2
M  V30 2 2 1 3
M  V30 3 1 1 4
M  V30 4 1 1 5
M  V30 5 2 4 6
M  V30 6 1 4 7
M  V30 7 1 5 8
M  V30 8 1 6 9
M  V30 9 2 7 10
M  V30 10 1 8 11
M  V30 11 1 8 12
M  V30 12 1 8 13
M  V30 13 2 9 14
M  V30 14 2 12 15
M  V30 15 1 12 16
M  V30 16 1 14 17
M  V30 17 1 16 18
M  V30 18 2 18 19
M  V30 19 1 18 20
M  V30 20 1 19 21
M  V30 21 2 20 22
M  V30 22 2 21 23
M  V30 23 1 21 24
M  V30 24 1 23 25
M  V30 25 1 24 26
M  V30 26 1 24 27
M  V30 27 1 24 28
M  V30 28 3 25 29
M  V30 29 1 10 14
M  V30 30 1 22 23
M  V30 31 1 5 30
M  V30 32 1 5 31
M  V30 33 1 6 32
M  V30 34 1 7 33
M  V30 35 1 9 34
M  V30 36 1 10 35
M  V30 37 1 11 36
M  V30 38 1 13 37
M  V30 39 1 13 38
M  V30 40 1 13 39
M  V30 41 1 16 40
M  V30 42 1 19 41
M  V30 43 1 20 42
M  V30 44 1 22 43
M  V30 END BOND
M  V30 BEGIN COLLECTION
M  V30 MDLV30/STERAC1 ATOMS=(1 8)
M  V30 END COLLECTION
M  V30 END CTAB
M  END
>  <NO.>
5141

>  <Name>
bicalutamide

>  <SMILES>
CC(O)(CS(=O)(=O)c1ccc(F)cc1)C(=O)Nc1ccc(C#N)c(C(F)(F)F)c1

>  <logBB>


>  <Class>
-1

>  <MW>
430.06

>  <nHBAcc>
5

>  <nHBDon>
2

>  <SLogP>
2.88

>  <TopoPSA>
107.26

>  <MMFF94 Energy>
59.275

$$$$
CC(Oc1c(Cl)cccc1Cl)C1=NCCN1
Actelion Java MolfileCreator 2.0

  0  0  0  0  0  0              0 V3000
M  V30 BEGIN CTAB
M  V30 COUNTS 28 29 0 0 0
M  V30 BEGIN ATOM
M  V30 1 Cl 0.3266 3.5972 -0.8167 0
M  V30 2 C -1.0059 2.5275 -0.5582 0
M  V30 3 C -0.896 1.3746 0.2346 0
M  V30 4 C -2.2301 2.872 -1.1416 0
M  V30 5 O 0.2891 1.0206 0.8358 0
M  V30 6 C -2.0496 0.6216 0.4947 0
M  V30 7 C -3.3602 2.0878 -0.917 0
M  V30 8 C 1.223 0.45 -0.0946 0 CFG=2
M  V30 9 Cl -2.0309 -0.7371 1.5611 0
M  V30 10 C -3.2718 0.9693 -0.0903 0
M  V30 11 C 1.1864 -1.0739 -0.0231 0
M  V30 12 C 2.6214 0.9122 0.3022 0
M  V30 13 N 1.2081 -1.814 -1.1038 0
M  V30 14 N 1.1348 -1.7481 1.163 0
M  V30 15 C 1.1748 -3.2191 -0.5927 0
M  V30 16 C 0.9667 -3.1502 0.927 0
M  V30 17 H -2.3107 3.7608 -1.7638 0
M  V30 18 H -4.3116 2.3588 -1.3691 0
M  V30 19 H 1.0277 0.7507 -1.1321 0
M  V30 20 H -4.1619 0.3751 0.1038 0
M  V30 21 H 3.3848 0.4735 -0.3483 0
M  V30 22 H 2.7014 2.0023 0.2493 0
M  V30 23 H 2.852 0.631 1.3363 0
M  V30 24 H 0.8976 -1.2953 2.0365 0
M  V30 25 H 2.1241 -3.7085 -0.8362 0
M  V30 26 H 0.3653 -3.7745 -1.0771 0
M  V30 27 H -0.0409 -3.4753 1.203 0
M  V30 28 H 1.7031 -3.7511 1.4675 0
M  V30 END ATOM
M  V30 BEGIN BOND
M  V30 1 1 1 2
M  V30 2 2 2 3
M  V30 3 1 2 4
M  V30 4 1 3 5
M  V30 5 1 3 6
M  V30 6 2 4 7
M  V30 7 1 5 8
M  V30 8 1 6 9
M  V30 9 2 6 10
M  V30 10 1 8 11
M  V30 11 1 8 12
M  V30 12 2 11 13
M  V30 13 1 11 14
M  V30 14 1 13 15
M  V30 15 1 14 16
M  V30 16 1 7 10
M  V30 17 1 15 16
M  V30 18 1 4 17
M  V30 19 1 7 18
M  V30 20 1 8 19
M  V30 21 1 10 20
M  V30 22 1 12 21
M  V30 23 1 12 22
M  V30 24 1 12 23
M  V30 25 1 14 24
M  V30 26 1 15 25
M  V30 27 1 15 26
M  V30 28 1 16 27
M  V30 29 1 16 28
M  V30 END BOND
M  V30 BEGIN COLLECTION
M  V30 MDLV30/STERAC1 ATOMS=(1 8)
M  V30 END COLLECTION
M  V30 END CTAB
M  END
>  <NO.>
5144

>  <Name>
lofexidine

>  <SMILES>
CC(Oc1c(Cl)cccc1Cl)C1=NCCN1

>  <logBB>


>  <Class>
1

>  <MW>
258.03

>  <nHBAcc>
3

>  <nHBDon>
1

>  <SLogP>
2.76

>  <TopoPSA>
33.62

>  <MMFF94 Energy>
77.141

$$$$
CC(c1ccccc1)C1Nc2cc(Cl)c(S(N)(=O)=O)cc2S(=O)(=O)N1
Actelion Java MolfileCreator 2.0

  0  0  0  0  0  0              0 V3000
M  V30 BEGIN CTAB
M  V30 COUNTS 41 43 0 0 0
M  V30 BEGIN ATOM
M  V30 1 Cl 4.7487 0.0831 -0.9983 0
M  V30 2 C 3.2037 -0.6891 -0.9997 0
M  V30 3 C 2.7885 -1.6045 -1.9668 0
M  V30 4 C 2.331 -0.3464 0.0476 0
M  V30 5 S 3.8398 -2.0975 -3.2947 0
M  V30 6 C 1.5138 -2.1752 -1.8798 0
M  V30 7 C 1.0405 -0.8856 0.1439 0
M  V30 8 O 3.0827 -2.9306 -4.2011 0
M  V30 9 O 5.1159 -2.5131 -2.7669 0
M  V30 10 N 4.0859 -0.6683 -4.1385 0
M  V30 11 C 0.6644 -1.8045 -0.8305 0
M  V30 12 N 0.2433 -0.5443 1.2162 0
M  V30 13 S -0.9166 -2.5575 -0.7161 0
M  V30 14 C -1.165 -0.8685 1.3201 0
M  V30 15 O -0.7256 -3.9899 -0.7672 0
M  V30 16 O -1.7915 -1.8692 -1.6365 0
M  V30 17 N -1.3869 -2.2178 0.8467 0
M  V30 18 C -2.0717 0.2123 0.6649 0
M  V30 19 C -1.818 1.5908 1.2793 0
M  V30 20 C -3.5604 -0.1536 0.7583 0
M  V30 21 C -1.1672 2.5758 0.519 0
M  V30 22 C -2.1876 1.8961 2.5988 0
M  V30 23 C -0.8942 3.8316 1.0633 0
M  V30 24 C -1.9136 3.1536 3.1404 0
M  V30 25 C -1.2669 4.12 2.3737 0
M  V30 26 H 2.6692 0.3611 0.8036 0
M  V30 27 H 1.1754 -2.9069 -2.613 0
M  V30 28 H 3.7282 -0.7624 -5.0901 0
M  V30 29 H 5.0716 -0.4046 -4.0937 0
M  V30 30 H 0.5392 0.2384 1.7947 0
M  V30 31 H -1.3961 -0.8891 2.3935 0
M  V30 32 H -1.0741 -2.9471 1.4833 0
M  V30 33 H -1.8319 0.289 -0.4022 0
M  V30 34 H -3.7805 -1.0633 0.1909 0
M  V30 35 H -3.8748 -0.3274 1.7929 0
M  V30 36 H -4.1863 0.6474 0.3488 0
M  V30 37 H -0.8672 2.3723 -0.5074 0
M  V30 38 H -2.6961 1.1638 3.2215 0
M  V30 39 H -0.3941 4.5868 0.4621 0
M  V30 40 H -2.2098 3.3818 4.1614 0
M  V30 41 H -1.0585 5.1 2.7955 0
M  V30 END ATOM
M  V30 BEGIN BOND
M  V30 1 1 1 2
M  V30 2 2 2 3
M  V30 3 1 2 4
M  V30 4 1 3 5
M  V30 5 1 3 6
M  V30 6 2 4 7
M  V30 7 2 5 8
M  V30 8 2 5 9
M  V30 9 1 5 10
M  V30 10 2 6 11
M  V30 11 1 7 12
M  V30 12 1 11 13
M  V30 13 1 12 14
M  V30 14 2 13 15
M  V30 15 2 13 16
M  V30 16 1 13 17
M  V30 17 1 14 18
M  V30 18 1 18 19
M  V30 19 1 18 20
M  V30 20 2 19 21
M  V30 21 1 19 22
M  V30 22 1 21 23
M  V30 23 2 22 24
M  V30 24 2 23 25
M  V30 25 1 7 11
M  V30 26 1 14 17
M  V30 27 1 24 25
M  V30 28 1 4 26
M  V30 29 1 6 27
M  V30 30 1 10 28
M  V30 31 1 10 29
M  V30 32 1 12 30
M  V30 33 1 14 31
M  V30 34 1 17 32
M  V30 35 1 18 33
M  V30 36 1 20 34
M  V30 37 1 20 35
M  V30 38 1 20 36
M  V30 39 1 21 37
M  V30 40 1 22 38
M  V30 41 1 23 39
M  V30 42 1 24 40
M  V30 43 1 25 41
M  V30 END BOND
M  V30 END CTAB
M  END
>  <NO.>
5146

>  <Name>
bemetizide

>  <SMILES>
CC(c1ccccc1)C1Nc2cc(Cl)c(S(N)(=O)=O)cc2S(=O)(=O)N1

>  <logBB>


>  <Class>
-1

>  <MW>
401.03

>  <nHBAcc>
5

>  <nHBDon>
3

>  <SLogP>
1.82

>  <TopoPSA>
118.36

>  <MMFF94 Energy>
-180.38

$$$$
CC(c1ncncc1F)C(O)(Cn1cncn1)c1ccc(F)cc1F
Actelion Java MolfileCreator 2.0

  0  0  0  0  0  0              0 V3000
M  V30 BEGIN CTAB
M  V30 COUNTS 39 41 0 0 0
M  V30 BEGIN ATOM
M  V30 1 F 1.2946 1.6994 2.6715 0
M  V30 2 C 0.7796 2.669 1.9068 0
M  V30 3 C 0.5794 2.5124 0.5475 0
M  V30 4 C 0.4055 3.873 2.4591 0
M  V30 5 N 0.0346 3.5056 -0.2028 0
M  V30 6 C 0.9452 1.2429 -0.2081 0
M  V30 7 N -0.1351 4.8826 1.7474 0
M  V30 8 C -0.2961 4.6424 0.4377 0
M  V30 9 C -0.1713 0.1269 -0.1413 0
M  V30 10 C 2.3646 0.7572 0.1272 0
M  V30 11 O -1.4443 0.7441 -0.4435 0
M  V30 12 C 0.111 -0.9165 -1.2371 0
M  V30 13 C -0.3398 -0.4492 1.2918 0
M  V30 14 C -0.2107 -0.637 -2.5794 0
M  V30 15 C 0.7419 -2.1465 -0.9741 0
M  V30 16 N -1.2908 -1.5393 1.4178 0
M  V30 17 F -0.7549 0.5479 -2.898 0
M  V30 18 C 0.0387 -1.5373 -3.6096 0
M  V30 19 C 0.9944 -3.0596 -2.0035 0
M  V30 20 N -0.8949 -2.7367 1.8995 0
M  V30 21 C -2.6353 -1.5205 1.2117 0
M  V30 22 C 0.6367 -2.7484 -3.3085 0
M  V30 23 C -2.0525 -3.403 1.9253 0
M  V30 24 N -3.143 -2.6938 1.5139 0
M  V30 25 F 0.8875 -3.6246 -4.2893 0
M  V30 26 H 0.5327 4.0598 3.5204 0
M  V30 27 H 1.0046 1.5682 -1.2586 0
M  V30 28 H -0.732 5.4361 -0.1601 0
M  V30 29 H 2.4437 0.3382 1.1336 0
M  V30 30 H 2.6974 -0.0102 -0.578 0
M  V30 31 H 3.0813 1.5843 0.0606 0
M  V30 32 H -1.3323 1.2875 -1.2497 0
M  V30 33 H -0.7188 0.3194 1.9753 0
M  V30 34 H 0.6122 -0.8112 1.6938 0
M  V30 35 H 1.0524 -2.4281 0.0302 0
M  V30 36 H -0.2258 -1.293 -4.6315 0
M  V30 37 H 1.4689 -4.0134 -1.7904 0
M  V30 38 H -3.1773 -0.656 0.8533 0
M  V30 39 H -2.1049 -4.4319 2.2573 0
M  V30 END ATOM
M  V30 BEGIN BOND
M  V30 1 1 1 2
M  V30 2 2 2 3
M  V30 3 1 2 4
M  V30 4 1 3 5
M  V30 5 1 3 6
M  V30 6 2 4 7
M  V30 7 2 5 8
M  V30 8 1 6 9
M  V30 9 1 6 10
M  V30 10 1 9 11
M  V30 11 1 9 12
M  V30 12 1 9 13
M  V30 13 2 12 14
M  V30 14 1 12 15
M  V30 15 1 13 16
M  V30 16 1 14 17
M  V30 17 1 14 18
M  V30 18 2 15 19
M  V30 19 1 16 20
M  V30 20 1 16 21
M  V30 21 2 18 22
M  V30 22 2 20 23
M  V30 23 2 21 24
M  V30 24 1 22 25
M  V30 25 1 7 8
M  V30 26 1 19 22
M  V30 27 1 23 24
M  V30 28 1 4 26
M  V30 29 1 6 27
M  V30 30 1 8 28
M  V30 31 1 10 29
M  V30 32 1 10 30
M  V30 33 1 10 31
M  V30 34 1 11 32
M  V30 35 1 13 33
M  V30 36 1 13 34
M  V30 37 1 15 35
M  V30 38 1 18 36
M  V30 39 1 19 37
M  V30 40 1 21 38
M  V30 41 1 23 39
M  V30 END BOND
M  V30 END CTAB
M  END
>  <NO.>
5147

>  <Name>
voriconazole

>  <SMILES>
CC(c1ncncc1F)C(O)(Cn1cncn1)c1ccc(F)cc1F

>  <logBB>


>  <Class>
-1

>  <MW>
349.12

>  <nHBAcc>
5

>  <nHBDon>
1

>  <SLogP>
2.18

>  <TopoPSA>
76.72

>  <MMFF94 Energy>
55.693

$$$$
CC1(O)CCC2C3CCC4=CC(=O)CCC4(C)C3(F)C(O)CC21C
Actelion Java MolfileCreator 2.0

  0  0  0  0  0  0              0 V3000
M  V30 BEGIN CTAB
M  V30 COUNTS 53 56 0 0 0
M  V30 BEGIN ATOM
M  V30 1 F -0.9673 -0.9673 1.2899 0
M  V30 2 C -0.8387 0.057 0.3702 0
M  V30 3 C -1.7959 1.2259 0.8674 0
M  V30 4 C -1.1935 -0.5573 -1.0309 0
M  V30 5 C 0.6733 0.4672 0.4187 0
M  V30 6 C -1.2615 1.8272 2.1854 0
M  V30 7 C -3.2355 0.6732 1.1018 0
M  V30 8 C -1.8686 2.3676 -0.1726 0
M  V30 9 O -2.5232 -1.0806 -1.0654 0
M  V30 10 C -0.2244 -1.6805 -1.4627 0
M  V30 11 C 1.5389 -0.7294 -0.0033 0
M  V30 12 C 1.0591 0.9445 1.8248 0
M  V30 13 C -2.0285 2.0992 3.2567 0
M  V30 14 C 0.2137 2.1348 2.2482 0
M  V30 15 C -4.14 1.5869 1.9172 0
M  V30 16 C 1.2406 -1.2192 -1.4379 0
M  V30 17 C 3.0588 -0.583 0.013 0
M  V30 18 C -3.4981 1.9404 3.2285 0
M  V30 19 C 2.3159 -2.3386 -1.5664 0
M  V30 20 C 1.46 -0.1305 -2.5229 0
M  V30 21 C 3.5706 -1.7065 -0.913 0
M  V30 22 O -4.1525 2.184 4.2395 0
M  V30 23 O 1.9212 -3.4657 -0.7761 0
M  V30 24 C 2.5811 -2.8542 -2.9771 0
M  V30 25 H -1.1684 0.2342 -1.7852 0
M  V30 26 H 0.8502 1.3 -0.27 0
M  V30 27 H -3.7425 0.4952 0.1482 0
M  V30 28 H -3.1791 -0.2939 1.6188 0
M  V30 29 H -2.3822 2.0466 -1.085 0
M  V30 30 H -0.8771 2.7278 -0.4637 0
M  V30 31 H -2.4189 3.2328 0.2155 0
M  V30 32 H -2.5879 -1.7204 -1.7945 0
M  V30 33 H -0.3827 -2.5421 -0.8013 0
M  V30 34 H -0.4931 -2.037 -2.4654 0
M  V30 35 H 1.3081 -1.5422 0.704 0
M  V30 36 H 2.1135 1.2431 1.8473 0
M  V30 37 H 0.945 0.1286 2.55 0
M  V30 38 H -1.6287 2.5026 4.1809 0
M  V30 39 H 0.5156 2.4376 3.2585 0
M  V30 40 H 0.4276 2.9904 1.5957 0
M  V30 41 H -4.3695 2.5122 1.3792 0
M  V30 42 H -5.0837 1.0686 2.1209 0
M  V30 43 H 3.3718 0.3956 -0.3677 0
M  V30 44 H 3.4674 -0.6899 1.0232 0
M  V30 45 H 1.1747 -0.5099 -3.5108 0
M  V30 46 H 2.5037 0.1921 -2.5885 0
M  V30 47 H 0.8658 0.7705 -2.3534 0
M  V30 48 H 4.244 -1.2717 -1.6603 0
M  V30 49 H 4.1416 -2.4414 -0.3348 0
M  V30 50 H 2.6516 -4.1079 -0.7716 0
M  V30 51 H 3.3031 -3.6786 -2.958 0
M  V30 52 H 2.9794 -2.0801 -3.6394 0
M  V30 53 H 1.6633 -3.255 -3.4209 0
M  V30 END ATOM
M  V30 BEGIN BOND
M  V30 1 1 1 2
M  V30 2 1 2 3
M  V30 3 1 2 4
M  V30 4 1 2 5
M  V30 5 1 3 6
M  V30 6 1 3 7
M  V30 7 1 3 8
M  V30 8 1 4 9
M  V30 9 1 4 10
M  V30 10 1 5 11
M  V30 11 1 5 12
M  V30 12 2 6 13
M  V30 13 1 6 14
M  V30 14 1 7 15
M  V30 15 1 10 16
M  V30 16 1 11 17
M  V30 17 1 13 18
M  V30 18 1 16 19
M  V30 19 1 16 20
M  V30 20 1 17 21
M  V30 21 2 18 22
M  V30 22 1 19 23
M  V30 23 1 19 24
M  V30 24 1 11 16
M  V30 25 1 12 14
M  V30 26 1 15 18
M  V30 27 1 19 21
M  V30 28 1 4 25
M  V30 29 1 5 26
M  V30 30 1 7 27
M  V30 31 1 7 28
M  V30 32 1 8 29
M  V30 33 1 8 30
M  V30 34 1 8 31
M  V30 35 1 9 32
M  V30 36 1 10 33
M  V30 37 1 10 34
M  V30 38 1 11 35
M  V30 39 1 12 36
M  V30 40 1 12 37
M  V30 41 1 13 38
M  V30 42 1 14 39
M  V30 43 1 14 40
M  V30 44 1 15 41
M  V30 45 1 15 42
M  V30 46 1 17 43
M  V30 47 1 17 44
M  V30 48 1 20 45
M  V30 49 1 20 46
M  V30 50 1 20 47
M  V30 51 1 21 48
M  V30 52 1 21 49
M  V30 53 1 23 50
M  V30 54 1 24 51
M  V30 55 1 24 52
M  V30 56 1 24 53
M  V30 END BOND
M  V30 END CTAB
M  END
>  <NO.>
5149

>  <Name>
9-fluoro-11,17-dihydroxy-10,13,17-trimethyl-1,2,6,7,8,11,12,14,15,16-decahydrocyclopenta[a]phenanthren-3-one

>  <SMILES>
CC1(O)CCC2C3CCC4=CC(=O)CCC4(C)C3(F)C(O)CC21C

>  <logBB>


>  <Class>
-1

>  <MW>
336.21

>  <nHBAcc>
3

>  <nHBDon>
2

>  <SLogP>
3.33

>  <TopoPSA>
57.53

>  <MMFF94 Energy>
114.92

$$$$
CC12CCC(=O)C=C1C1CC1C1C2CCC2(C)C1C1CC1C21CCC(=O)O1
Actelion Java MolfileCreator 2.0

  0  0  0  0  0  0              0 V3000
M  V30 BEGIN CTAB
M  V30 COUNTS 57 63 0 0 0
M  V30 BEGIN ATOM
M  V30 1 O 6.3673 -1.5482 0.2443 0
M  V30 2 C 5.2817 -0.9747 0.1947 0
M  V30 3 C 4.265 -1.2552 1.2306 0
M  V30 4 C 4.9714 0.0631 -0.8481 0
M  V30 5 C 3.0566 -0.6602 1.2486 0
M  V30 6 C 3.4761 0.1192 -1.1265 0
M  V30 7 C 2.603 0.3182 0.1462 0
M  V30 8 C 2.1047 -0.9443 2.343 0
M  V30 9 C 1.0997 0.0145 -0.2163 0
M  V30 10 C 2.7917 1.7602 0.6679 0
M  V30 11 C 0.6426 -0.627 2.2045 0
M  V30 12 C 1.1055 -2.0581 2.1301 0
M  V30 13 C 0.1572 0.1616 1.0193 0
M  V30 14 C 0.5531 0.7905 -1.446 0
M  V30 15 C -1.2534 -0.2502 0.5994 0
M  V30 16 C -0.9227 0.4678 -1.7643 0
M  V30 17 C -1.8267 0.6467 -0.5364 0
M  V30 18 C -2.3571 -0.2375 1.6259 0
M  V30 19 C -3.3104 0.118 -0.6099 0
M  V30 20 C -1.8585 2.1619 -0.1649 0
M  V30 21 C -3.6571 -0.0773 0.8675 0
M  V30 22 C -3.3846 -1.3313 1.6638 0
M  V30 23 O -4.1868 1.0952 -1.1802 0
M  V30 24 C -3.5752 -1.1347 -1.4305 0
M  V30 25 C -4.4991 0.7501 -2.4604 0
M  V30 26 C -3.9357 -0.5948 -2.7927 0
M  V30 27 O -5.1298 1.4588 -3.2273 0
M  V30 28 H 4.5701 -1.9559 2.0006 0
M  V30 29 H 5.4963 -0.2061 -1.7714 0
M  V30 30 H 5.3578 1.0286 -0.5078 0
M  V30 31 H 3.2949 0.9251 -1.8478 0
M  V30 32 H 3.1862 -0.818 -1.622 0
M  V30 33 H 2.5227 -0.832 3.341 0
M  V30 34 H 1.0681 -1.0435 -0.5214 0
M  V30 35 H 2.5066 2.4999 -0.087 0
M  V30 36 H 3.835 1.9591 0.9373 0
M  V30 37 H 2.202 1.9594 1.5683 0
M  V30 38 H 0.1213 -0.3322 3.1114 0
M  V30 39 H 0.8868 -2.7037 2.9745 0
M  V30 40 H 1.0798 -2.5764 1.1794 0
M  V30 41 H 0.1421 1.2063 1.3459 0
M  V30 42 H 0.6744 1.8684 -1.3016 0
M  V30 43 H 1.1358 0.5358 -2.3382 0
M  V30 44 H -1.1798 -1.2863 0.2335 0
M  V30 45 H -0.9645 -0.5657 -2.1262 0
M  V30 46 H -1.263 1.1039 -2.5898 0
M  V30 47 H -2.1957 0.4022 2.4822 0
M  V30 48 H -2.2607 2.7526 -0.9964 0
M  V30 49 H -2.4849 2.3624 0.7106 0
M  V30 50 H -0.8717 2.5739 0.0578 0
M  V30 51 H -4.3828 0.6325 1.2459 0
M  V30 52 H -3.9381 -1.47 2.5871 0
M  V30 53 H -3.1784 -2.2606 1.1467 0
M  V30 54 H -4.4474 -1.6714 -1.033 0
M  V30 55 H -2.7498 -1.8507 -1.4562 0
M  V30 56 H -4.6845 -1.2207 -3.2841 0
M  V30 57 H -3.0614 -0.4722 -3.4359 0
M  V30 END ATOM
M  V30 BEGIN BOND
M  V30 1 2 1 2
M  V30 2 1 2 3
M  V30 3 1 2 4
M  V30 4 2 3 5
M  V30 5 1 4 6
M  V30 6 1 5 7
M  V30 7 1 5 8
M  V30 8 1 7 9
M  V30 9 1 7 10
M  V30 10 1 8 11
M  V30 11 1 8 12
M  V30 12 1 9 13
M  V30 13 1 9 14
M  V30 14 1 13 15
M  V30 15 1 14 16
M  V30 16 1 15 17
M  V30 17 1 15 18
M  V30 18 1 17 19
M  V30 19 1 17 20
M  V30 20 1 18 21
M  V30 21 1 18 22
M  V30 22 1 19 23
M  V30 23 1 19 24
M  V30 24 1 23 25
M  V30 25 1 24 26
M  V30 26 2 25 27
M  V30 27 1 6 7
M  V30 28 1 11 12
M  V30 29 1 11 13
M  V30 30 1 16 17
M  V30 31 1 19 21
M  V30 32 1 21 22
M  V30 33 1 25 26
M  V30 34 1 3 28
M  V30 35 1 4 29
M  V30 36 1 4 30
M  V30 37 1 6 31
M  V30 38 1 6 32
M  V30 39 1 8 33
M  V30 40 1 9 34
M  V30 41 1 10 35
M  V30 42 1 10 36
M  V30 43 1 10 37
M  V30 44 1 11 38
M  V30 45 1 12 39
M  V30 46 1 12 40
M  V30 47 1 13 41
M  V30 48 1 14 42
M  V30 49 1 14 43
M  V30 50 1 15 44
M  V30 51 1 16 45
M  V30 52 1 16 46
M  V30 53 1 18 47
M  V30 54 1 20 48
M  V30 55 1 20 49
M  V30 56 1 20 50
M  V30 57 1 21 51
M  V30 58 1 22 52
M  V30 59 1 22 53
M  V30 60 1 24 54
M  V30 61 1 24 55
M  V30 62 1 26 56
M  V30 63 1 26 57
M  V30 END BOND
M  V30 END CTAB
M  END
>  <NO.>
5151

>  <Name>
5a,7a-dimethyl-1,1a,5,5a,5b,6,7,7a,8a,9,9a,9b,9c,9d-tetradecahydro-3'h-spiro[cyclopropa[4,5]cyclopenta[1,2-a]cyclopropa[l]phenanthrene-8,2'-furan]-3,5'(4h,4'h)-dione

>  <SMILES>
CC12CCC(=O)C=C1C1CC1C1C2CCC2(C)C1C1CC1C21CCC(=O)O1

>  <logBB>


>  <Class>
-1

>  <MW>
366.22

>  <nHBAcc>
3

>  <nHBDon>
0

>  <SLogP>
4.31

>  <TopoPSA>
43.37

>  <MMFF94 Energy>
92.087

$$$$
CC12CCC3C(CCC45OC4C(O)=C(C#N)CC35C)C1CCC2O
Actelion Java MolfileCreator 2.0

  0  0  0  0  0  0              0 V3000
M  V30 BEGIN CTAB
M  V30 COUNTS 51 55 0 0 0
M  V30 BEGIN ATOM
M  V30 1 O 2.5922 0.8905 -1.3765 0
M  V30 2 C 1.3975 0.3469 -1.9558 0
M  V30 3 C 2.7313 0.294 -2.6812 0
M  V30 4 C 0.8759 -0.9312 -1.3048 0
M  V30 5 C 0.3879 1.3974 -2.3084 0
M  V30 6 C 3.3642 -1.0325 -2.8617 0
M  V30 7 C -0.0459 -0.5731 -0.0747 0
M  V30 8 C 2.0729 -1.8614 -0.9112 0
M  V30 9 C 0.0221 -1.7113 -2.3496 0
M  V30 10 C -0.4474 1.7594 -1.0848 0
M  V30 11 O 4.2569 -1.1359 -3.9169 0
M  V30 12 C 3.0785 -2.0639 -2.0321 0
M  V30 13 C -1.0993 0.5214 -0.4339 0
M  V30 14 C 0.7128 -0.1841 1.2106 0
M  V30 15 C 3.6796 -3.3445 -2.1776 0
M  V30 16 C -1.9953 0.9242 0.7608 0
M  V30 17 C -0.2382 0.0458 2.3879 0
M  V30 18 N 4.188 -4.3744 -2.336 0
M  V30 19 C -1.2928 1.1382 2.1216 0
M  V30 20 C -3.0709 -0.1476 1.0556 0
M  V30 21 C -2.4999 1.0543 3.0876 0
M  V30 22 C -0.6458 2.5254 2.2716 0
M  V30 23 C -3.3639 -0.0814 2.5527 0
M  V30 24 O -2.1365 0.8534 4.441 0
M  V30 25 H 2.886 0.9762 -3.511 0
M  V30 26 H -0.26 1.0391 -3.1159 0
M  V30 27 H 0.8795 2.3022 -2.6865 0
M  V30 28 H -0.5948 -1.4923 0.1745 0
M  V30 29 H 1.6772 -2.828 -0.5723 0
M  V30 30 H 2.6433 -1.4467 -0.0722 0
M  V30 31 H 0.5953 -1.9467 -3.2528 0
M  V30 32 H -0.3404 -2.6563 -1.9294 0
M  V30 33 H -0.8521 -1.1476 -2.6863 0
M  V30 34 H 0.1986 2.277 -0.3726 0
M  V30 35 H -1.223 2.4746 -1.3841 0
M  V30 36 H 4.6779 -2.0136 -3.9347 0
M  V30 37 H -1.7748 0.1038 -1.1923 0
M  V30 38 H 1.3838 -0.994 1.5138 0
M  V30 39 H 1.3385 0.6984 1.0459 0
M  V30 40 H -2.5395 1.8421 0.4935 0
M  V30 41 H -0.725 -0.911 2.615 0
M  V30 42 H 0.3513 0.2988 3.2783 0
M  V30 43 H -2.7376 -1.1573 0.7946 0
M  V30 44 H -3.9752 0.0483 0.4684 0
M  V30 45 H -3.0802 1.9851 3.0432 0
M  V30 46 H -1.3295 3.3205 1.9539 0
M  V30 47 H 0.2743 2.6279 1.6935 0
M  V30 48 H -0.3816 2.719 3.3179 0
M  V30 49 H -3.1271 -1.0365 3.0357 0
M  V30 50 H -4.4251 0.1091 2.7469 0
M  V30 51 H -1.7433 -0.0303 4.5302 0
M  V30 END ATOM
M  V30 BEGIN BOND
M  V30 1 1 1 2
M  V30 2 1 1 3
M  V30 3 1 2 4
M  V30 4 1 2 5
M  V30 5 1 3 6
M  V30 6 1 4 7
M  V30 7 1 4 8
M  V30 8 1 4 9
M  V30 9 1 5 10
M  V30 10 1 6 11
M  V30 11 2 6 12
M  V30 12 1 7 13
M  V30 13 1 7 14
M  V30 14 1 12 15
M  V30 15 1 13 16
M  V30 16 1 14 17
M  V30 17 3 15 18
M  V30 18 1 16 19
M  V30 19 1 16 20
M  V30 20 1 19 21
M  V30 21 1 19 22
M  V30 22 1 20 23
M  V30 23 1 21 24
M  V30 24 1 2 3
M  V30 25 1 8 12
M  V30 26 1 10 13
M  V30 27 1 17 19
M  V30 28 1 21 23
M  V30 29 1 3 25
M  V30 30 1 5 26
M  V30 31 1 5 27
M  V30 32 1 7 28
M  V30 33 1 8 29
M  V30 34 1 8 30
M  V30 35 1 9 31
M  V30 36 1 9 32
M  V30 37 1 9 33
M  V30 38 1 10 34
M  V30 39 1 10 35
M  V30 40 1 11 36
M  V30 41 1 13 37
M  V30 42 1 14 38
M  V30 43 1 14 39
M  V30 44 1 16 40
M  V30 45 1 17 41
M  V30 46 1 17 42
M  V30 47 1 20 43
M  V30 48 1 20 44
M  V30 49 1 21 45
M  V30 50 1 22 46
M  V30 51 1 22 47
M  V30 52 1 22 48
M  V30 53 1 23 49
M  V30 54 1 23 50
M  V30 55 1 24 51
M  V30 END BOND
M  V30 END CTAB
M  END
>  <NO.>
5153

>  <Name>
modrastane

>  <SMILES>
CC12CCC3C(CCC45OC4C(O)=C(C#N)CC35C)C1CCC2O

>  <logBB>


>  <Class>
-1

>  <MW>
329.2

>  <nHBAcc>
4

>  <nHBDon>
2

>  <SLogP>
3.47

>  <TopoPSA>
76.78

>  <MMFF94 Energy>
75.419

$$$$
CC12CCC3C(CCC4=C(O)C(=O)CCC43C)C1CCC2=O
Actelion Java MolfileCreator 2.0

  0  0  0  0  0  0              0 V3000
M  V30 BEGIN CTAB
M  V30 COUNTS 48 51 0 0 0
M  V30 BEGIN ATOM
M  V30 1 O -3.632 -3.1472 -2.824 0
M  V30 2 C -2.5883 -2.6048 -2.4627 0
M  V30 3 C -2.4662 -1.1016 -2.4193 0
M  V30 4 C -1.3735 -3.4231 -2.114 0
M  V30 5 O -3.5336 -0.4013 -2.9474 0
M  V30 6 C -1.3393 -0.5108 -1.9572 0
M  V30 7 C -0.6269 -2.7464 -0.9793 0
M  V30 8 C -0.1774 -1.2987 -1.3239 0
M  V30 9 C -1.075 0.9746 -2.1142 0
M  V30 10 C 0.3931 -0.5782 -0.0267 0
M  V30 11 C 0.9649 -1.401 -2.3736 0
M  V30 12 C -0.6067 1.6232 -0.819 0
M  V30 13 C 0.6518 0.9362 -0.2629 0
M  V30 14 C -0.453 -0.766 1.2532 0
M  V30 15 C 1.188 1.685 0.9777 0
M  V30 16 C 0.2102 -0.1446 2.4816 0
M  V30 17 C 0.5188 1.3475 2.3303 0
M  V30 18 C 2.6789 1.393 1.2228 0
M  V30 19 C 1.6389 1.7069 3.3065 0
M  V30 20 C -0.7056 2.2153 2.6273 0
M  V30 21 C 2.9523 1.9483 2.6117 0
M  V30 22 O 1.4973 1.7956 4.5204 0
M  V30 23 H -1.7071 -4.4127 -1.7818 0
M  V30 24 H -0.7598 -3.5585 -3.0084 0
M  V30 25 H -3.5594 0.4881 -2.5676 0
M  V30 26 H -1.3189 -2.7443 -0.1304 0
M  V30 27 H 0.2355 -3.3561 -0.6843 0
M  V30 28 H -0.309 1.1148 -2.887 0
M  V30 29 H -1.9471 1.5277 -2.4733 0
M  V30 30 H 1.3634 -1.0503 0.1837 0
M  V30 31 H 0.6164 -1.831 -3.3188 0
M  V30 32 H 1.7791 -2.0341 -2.0026 0
M  V30 33 H 1.4019 -0.4295 -2.6217 0
M  V30 34 H -1.4281 1.5998 -0.0986 0
M  V30 35 H -0.3923 2.681 -1.0152 0
M  V30 36 H 1.4255 1.0352 -1.0353 0
M  V30 37 H -0.5638 -1.8289 1.4871 0
M  V30 38 H -1.4627 -0.3634 1.1198 0
M  V30 39 H 1.1106 2.7671 0.7939 0
M  V30 40 H -0.4297 -0.3101 3.3581 0
M  V30 41 H 1.1329 -0.7034 2.691 0
M  V30 42 H 3.318 1.866 0.4701 0
M  V30 43 H 2.8873 0.3174 1.2049 0
M  V30 44 H -0.4802 3.2797 2.4964 0
M  V30 45 H -1.556 1.9671 1.9892 0
M  V30 46 H -1.036 2.0873 3.665 0
M  V30 47 H 3.147 3.0241 2.5828 0
M  V30 48 H 3.7678 1.4186 3.1083 0
M  V30 END ATOM
M  V30 BEGIN BOND
M  V30 1 2 1 2
M  V30 2 1 2 3
M  V30 3 1 2 4
M  V30 4 1 3 5
M  V30 5 2 3 6
M  V30 6 1 4 7
M  V30 7 1 6 8
M  V30 8 1 6 9
M  V30 9 1 8 10
M  V30 10 1 8 11
M  V30 11 1 9 12
M  V30 12 1 10 13
M  V30 13 1 10 14
M  V30 14 1 13 15
M  V30 15 1 14 16
M  V30 16 1 15 17
M  V30 17 1 15 18
M  V30 18 1 17 19
M  V30 19 1 17 20
M  V30 20 1 18 21
M  V30 21 2 19 22
M  V30 22 1 7 8
M  V30 23 1 12 13
M  V30 24 1 16 17
M  V30 25 1 19 21
M  V30 26 1 4 23
M  V30 27 1 4 24
M  V30 28 1 5 25
M  V30 29 1 7 26
M  V30 30 1 7 27
M  V30 31 1 9 28
M  V30 32 1 9 29
M  V30 33 1 10 30
M  V30 34 1 11 31
M  V30 35 1 11 32
M  V30 36 1 11 33
M  V30 37 1 12 34
M  V30 38 1 12 35
M  V30 39 1 13 36
M  V30 40 1 14 37
M  V30 41 1 14 38
M  V30 42 1 15 39
M  V30 43 1 16 40
M  V30 44 1 16 41
M  V30 45 1 18 42
M  V30 46 1 18 43
M  V30 47 1 20 44
M  V30 48 1 20 45
M  V30 49 1 20 46
M  V30 50 1 21 47
M  V30 51 1 21 48
M  V30 END BOND
M  V30 END CTAB
M  END
>  <NO.>
5154

>  <Name>
formestane

>  <SMILES>
CC12CCC3C(CCC4=C(O)C(=O)CCC43C)C1CCC2=O

>  <logBB>


>  <Class>
-1

>  <MW>
302.19

>  <nHBAcc>
3

>  <nHBDon>
1

>  <SLogP>
3.97

>  <TopoPSA>
54.37

>  <MMFF94 Energy>
83.613

$$$$
CC12CCC3c4ccc(OS(=O)(=O)O)cc4CCC3C1CCC2=O
Actelion Java MolfileCreator 2.0

  0  0  0  0  0  0              0 V3000
M  V30 BEGIN CTAB
M  V30 COUNTS 46 49 0 0 0
M  V30 BEGIN ATOM
M  V30 1 S -3.6006 0.5721 5.2404 0
M  V30 2 O -2.5573 1.3688 5.8516 0
M  V30 3 O -4.8795 0.3843 5.8885 0
M  V30 4 O -3.8703 1.1219 3.7249 0
M  V30 5 O -2.9549 -0.8922 5.016 0
M  V30 6 C -2.875 1.007 2.7947 0
M  V30 7 C -3.0355 0.0853 1.7659 0
M  V30 8 C -1.7525 1.8215 2.8379 0
M  V30 9 C -2.0434 -0.0622 0.7819 0
M  V30 10 C -0.7563 1.6734 1.871 0
M  V30 11 C -0.8643 0.7115 0.8495 0
M  V30 12 C -2.2721 -1.0875 -0.3018 0
M  V30 13 C 0.2177 0.5895 -0.2233 0
M  V30 14 C -1.344 -0.9167 -1.4995 0
M  V30 15 C 0.0963 -0.7351 -1.0151 0
M  V30 16 C 1.6588 0.7108 0.3093 0
M  V30 17 C 1.1171 -0.8577 -2.1606 0
M  V30 18 C 2.6835 0.6779 -0.8242 0
M  V30 19 C 2.5706 -0.5652 -1.7198 0
M  V30 20 C 0.8957 0.074 -3.3592 0
M  V30 21 C 3.2166 -0.2534 -3.0649 0
M  V30 22 C 3.2216 -1.7896 -1.0757 0
M  V30 23 C 2.1954 -0.0217 -4.1502 0
M  V30 24 O 4.4254 -0.1942 -3.2538 0
M  V30 25 H -2.0123 -0.7726 4.7813 0
M  V30 26 H -3.9381 -0.5217 1.7256 0
M  V30 27 H -1.6432 2.5818 3.6081 0
M  V30 28 H 0.0992 2.3423 1.9226 0
M  V30 29 H -3.3098 -1.0339 -0.6529 0
M  V30 30 H -2.1224 -2.0829 0.1352 0
M  V30 31 H 0.0372 1.4294 -0.9084 0
M  V30 32 H -1.6595 -0.047 -2.0898 0
M  V30 33 H -1.43 -1.7958 -2.1487 0
M  V30 34 H 0.3111 -1.5616 -0.3201 0
M  V30 35 H 1.8034 1.6528 0.8485 0
M  V30 36 H 1.865 -0.0915 1.0287 0
M  V30 37 H 1.0602 -1.8876 -2.5453 0
M  V30 38 H 2.5614 1.5901 -1.4242 0
M  V30 39 H 3.6934 0.7455 -0.3996 0
M  V30 40 H 0.7283 1.1094 -3.043 0
M  V30 41 H 0.0394 -0.2293 -3.9697 0
M  V30 42 H 3.22 -2.6457 -1.76 0
M  V30 43 H 4.2682 -1.5908 -0.8185 0
M  V30 44 H 2.7024 -2.09 -0.1603 0
M  V30 45 H 2.4038 0.8983 -4.7003 0
M  V30 46 H 2.1904 -0.8845 -4.8221 0
M  V30 END ATOM
M  V30 BEGIN BOND
M  V30 1 2 1 2
M  V30 2 2 1 3
M  V30 3 1 1 4
M  V30 4 1 1 5
M  V30 5 1 4 6
M  V30 6 2 6 7
M  V30 7 1 6 8
M  V30 8 1 7 9
M  V30 9 2 8 10
M  V30 10 2 9 11
M  V30 11 1 9 12
M  V30 12 1 11 13
M  V30 13 1 12 14
M  V30 14 1 13 15
M  V30 15 1 13 16
M  V30 16 1 15 17
M  V30 17 1 16 18
M  V30 18 1 17 19
M  V30 19 1 17 20
M  V30 20 1 19 21
M  V30 21 1 19 22
M  V30 22 1 20 23
M  V30 23 2 21 24
M  V30 24 1 10 11
M  V30 25 1 14 15
M  V30 26 1 18 19
M  V30 27 1 21 23
M  V30 28 1 5 25
M  V30 29 1 7 26
M  V30 30 1 8 27
M  V30 31 1 10 28
M  V30 32 1 12 29
M  V30 33 1 12 30
M  V30 34 1 13 31
M  V30 35 1 14 32
M  V30 36 1 14 33
M  V30 37 1 15 34
M  V30 38 1 16 35
M  V30 39 1 16 36
M  V30 40 1 17 37
M  V30 41 1 18 38
M  V30 42 1 18 39
M  V30 43 1 20 40
M  V30 44 1 20 41
M  V30 45 1 22 42
M  V30 46 1 22 43
M  V30 47 1 22 44
M  V30 48 1 23 45
M  V30 49 1 23 46
M  V30 END BOND
M  V30 END CTAB
M  END
>  <NO.>
5157

>  <Name>
estropipate

>  <SMILES>
CC12CCC3c4ccc(OS(=O)(=O)O)cc4CCC3C1CCC2=O

>  <logBB>


>  <Class>
-1

>  <MW>
350.12

>  <nHBAcc>
4

>  <nHBDon>
1

>  <SLogP>
3.29

>  <TopoPSA>
80.67

>  <MMFF94 Energy>
-7.1989

$$$$
CC1=C(CC(=O)O)c2cc(F)ccc2C1=Cc1ccc([S+](C)[O-])cc1
Actelion Java MolfileCreator 2.0

  0  0  0  0  0  0              0 V3000
M  V30 BEGIN CTAB
M  V30 COUNTS 42 44 0 0 0
M  V30 BEGIN ATOM
M  V30 1 S 0.9768 3.1773 4.9729 0 CFG=2
M  V30 2 O 0.0292 2.5608 5.9604 0
M  V30 3 C 1.0417 2.0406 3.5687 0
M  V30 4 C 2.6561 2.8747 5.5812 0
M  V30 5 C 0.4177 0.79 3.6268 0
M  V30 6 C 1.7109 2.4234 2.4007 0
M  V30 7 C 0.4723 -0.0767 2.5323 0
M  V30 8 C 1.7653 1.557 1.3053 0
M  V30 9 C 1.1446 0.3051 1.3677 0
M  V30 10 C 1.201 -0.5997 0.2202 0
M  V30 11 C 0.3272 -0.6689 -0.8001 0
M  V30 12 C -0.893 0.1229 -1.0342 0
M  V30 13 C 0.4535 -1.6025 -1.9299 0
M  V30 14 C -1.4256 -0.3498 -2.2502 0
M  V30 15 C -1.5283 1.1367 -0.3293 0
M  V30 16 C -0.5718 -1.4213 -2.79 0
M  V30 17 C 1.5698 -2.5874 -2.046 0
M  V30 18 C -2.5967 0.1848 -2.7699 0
M  V30 19 C -2.7055 1.6793 -0.852 0
M  V30 20 C -0.8511 -2.1078 -4.0839 0
M  V30 21 C -3.2249 1.2019 -2.0579 0
M  V30 22 C -1.9033 -3.1741 -3.9032 0
M  V30 23 F -4.3552 1.7375 -2.5389 0
M  V30 24 O -3.1128 -3.0083 -3.9035 0
M  V30 25 O -1.3823 -4.4024 -3.7061 0
M  V30 26 H 3.384 3.2287 4.8474 0
M  V30 27 H 2.79 3.4281 6.514 0
M  V30 28 H 2.8002 1.8081 5.7712 0
M  V30 29 H -0.1175 0.4839 4.5239 0
M  V30 30 H 2.1889 3.3973 2.3284 0
M  V30 31 H -0.0212 -1.0445 2.5926 0
M  V30 32 H 2.2846 1.8671 0.401 0
M  V30 33 H 2.0636 -1.2611 0.249 0
M  V30 34 H -1.1434 1.5146 0.6096 0
M  V30 35 H 1.4747 -3.2243 -2.9297 0
M  V30 36 H 1.5906 -3.2508 -1.1747 0
M  V30 37 H 2.533 -2.0713 -2.116 0
M  V30 38 H -3.0355 -0.169 -3.6952 0
M  V30 39 H -3.2277 2.472 -0.3242 0
M  V30 40 H -1.1981 -1.4033 -4.8484 0
M  V30 41 H 0.0482 -2.5659 -4.5095 0
M  V30 42 H -2.1691 -4.9705 -3.5666 0
M  V30 END ATOM
M  V30 BEGIN BOND
M  V30 1 2 1 2
M  V30 2 1 1 3
M  V30 3 1 1 4
M  V30 4 2 3 5
M  V30 5 1 3 6
M  V30 6 1 5 7
M  V30 7 2 6 8
M  V30 8 2 7 9
M  V30 9 1 9 10
M  V30 10 2 10 11
M  V30 11 1 11 12
M  V30 12 1 11 13
M  V30 13 2 12 14
M  V30 14 1 12 15
M  V30 15 2 13 16
M  V30 16 1 13 17
M  V30 17 1 14 18
M  V30 18 2 15 19
M  V30 19 1 16 20
M  V30 20 2 18 21
M  V30 21 1 20 22
M  V30 22 1 21 23
M  V30 23 2 22 24
M  V30 24 1 22 25
M  V30 25 1 8 9
M  V30 26 1 14 16
M  V30 27 1 19 21
M  V30 28 1 4 26
M  V30 29 1 4 27
M  V30 30 1 4 28
M  V30 31 1 5 29
M  V30 32 1 6 30
M  V30 33 1 7 31
M  V30 34 1 8 32
M  V30 35 1 10 33
M  V30 36 1 15 34
M  V30 37 1 17 35
M  V30 38 1 17 36
M  V30 39 1 17 37
M  V30 40 1 18 38
M  V30 41 1 19 39
M  V30 42 1 20 40
M  V30 43 1 20 41
M  V30 44 1 25 42
M  V30 END BOND
M  V30 BEGIN COLLECTION
M  V30 MDLV30/STERAC1 ATOMS=(1 1)
M  V30 END COLLECTION
M  V30 END CTAB
M  END
>  <NO.>
5161

>  <Name>
38194-50-2

>  <SMILES>
CC1=C(CC(=O)O)c2cc(F)ccc2C1=Cc1ccc([S+](C)[O-])cc1

>  <logBB>


>  <Class>
-1

>  <MW>
356.09

>  <nHBAcc>
2

>  <nHBDon>
1

>  <SLogP>
4.37

>  <TopoPSA>
60.36

>  <MMFF94 Energy>
58.867

$$$$
CC1CC(OC(=O)C(O)c2ccccc2)CC(C)(C)C1
Actelion Java MolfileCreator 2.0

  0  0  0  0  0  0              0 V3000
M  V30 BEGIN CTAB
M  V30 COUNTS 44 45 0 0 0
M  V30 BEGIN ATOM
M  V30 1 O 1.6606 -1.265 0.4742 0
M  V30 2 C 1.2196 -0.371 1.1837 0
M  V30 3 O -0.0583 0.1242 1.1081 0
M  V30 4 C 1.9614 0.3237 2.3461 0
M  V30 5 C -0.8886 -0.4234 0.0638 0
M  V30 6 O 1.4222 1.6097 2.6659 0
M  V30 7 C 3.4474 0.4602 2.0809 0
M  V30 8 C -2.3458 -0.1993 0.4834 0
M  V30 9 C -0.5894 0.2904 -1.2569 0
M  V30 10 C 4.327 -0.5686 2.4545 0
M  V30 11 C 3.9718 1.5869 1.4277 0
M  V30 12 C -3.3693 -0.6062 -0.5977 0
M  V30 13 C -1.553 -0.1355 -2.3692 0
M  V30 14 C 5.6949 -0.466 2.193 0
M  V30 15 C 5.3399 1.6884 1.1683 0
M  V30 16 C -3.0138 0.0767 -1.939 0
M  V30 17 C -3.409 -2.1378 -0.7604 0
M  V30 18 C -4.7713 -0.1423 -0.1576 0
M  V30 19 C -1.2576 0.6344 -3.6567 0
M  V30 20 C 6.2007 0.6625 1.5516 0
M  V30 21 H 1.8054 -0.2994 3.2349 0
M  V30 22 H -0.7042 -1.5004 -0.0275 0
M  V30 23 H 0.4547 1.5152 2.5929 0
M  V30 24 H -2.5387 -0.7401 1.4196 0
M  V30 25 H -2.477 0.8624 0.7372 0
M  V30 26 H 0.4449 0.0891 -1.5615 0
M  V30 27 H -0.6412 1.377 -1.1028 0
M  V30 28 H 3.9517 -1.4638 2.9456 0
M  V30 29 H 3.3137 2.3988 1.1238 0
M  V30 30 H -1.3935 -1.1999 -2.5805 0
M  V30 31 H 6.3652 -1.2697 2.4859 0
M  V30 32 H 5.7321 2.5691 0.6668 0
M  V30 33 H -3.6841 -0.2845 -2.7299 0
M  V30 34 H -3.1997 1.1565 -1.851 0
M  V30 35 H -4.152 -2.4327 -1.5102 0
M  V30 36 H -3.6812 -2.6246 0.1831 0
M  V30 37 H -2.4473 -2.5525 -1.0748 0
M  V30 38 H -5.5286 -0.4095 -0.9033 0
M  V30 39 H -4.807 0.9446 -0.0233 0
M  V30 40 H -5.0603 -0.6037 0.7934 0
M  V30 41 H -1.9243 0.3115 -4.4633 0
M  V30 42 H -0.2271 0.4613 -3.9844 0
M  V30 43 H -1.3919 1.7125 -3.5171 0
M  V30 44 H 7.2651 0.7413 1.3476 0
M  V30 END ATOM
M  V30 BEGIN BOND
M  V30 1 2 1 2
M  V30 2 1 2 3
M  V30 3 1 2 4
M  V30 4 1 3 5
M  V30 5 1 4 6
M  V30 6 1 4 7
M  V30 7 1 5 8
M  V30 8 1 5 9
M  V30 9 2 7 10
M  V30 10 1 7 11
M  V30 11 1 8 12
M  V30 12 1 9 13
M  V30 13 1 10 14
M  V30 14 2 11 15
M  V30 15 1 12 16
M  V30 16 1 12 17
M  V30 17 1 12 18
M  V30 18 1 13 19
M  V30 19 2 14 20
M  V30 20 1 13 16
M  V30 21 1 15 20
M  V30 22 1 4 21
M  V30 23 1 5 22
M  V30 24 1 6 23
M  V30 25 1 8 24
M  V30 26 1 8 25
M  V30 27 1 9 26
M  V30 28 1 9 27
M  V30 29 1 10 28
M  V30 30 1 11 29
M  V30 31 1 13 30
M  V30 32 1 14 31
M  V30 33 1 15 32
M  V30 34 1 16 33
M  V30 35 1 16 34
M  V30 36 1 17 35
M  V30 37 1 17 36
M  V30 38 1 17 37
M  V30 39 1 18 38
M  V30 40 1 18 39
M  V30 41 1 18 40
M  V30 42 1 19 41
M  V30 43 1 19 42
M  V30 44 1 19 43
M  V30 45 1 20 44
M  V30 END BOND
M  V30 END CTAB
M  END
>  <NO.>
5163

>  <Name>
cyclandelate

>  <SMILES>
CC1CC(OC(=O)C(O)c2ccccc2)CC(C)(C)C1

>  <logBB>


>  <Class>
-1

>  <MW>
276.17

>  <nHBAcc>
3

>  <nHBDon>
1

>  <SLogP>
3.48

>  <TopoPSA>
46.53

>  <MMFF94 Energy>
85.236

$$$$
CC1CCCC(C)N1CCCC(O)(c1ccccc1)c1ccccn1
Actelion Java MolfileCreator 2.0

  0  0  0  0  0  0              0 V3000
M  V30 BEGIN CTAB
M  V30 COUNTS 55 57 0 0 0
M  V30 BEGIN ATOM
M  V30 1 O 1.1081 2.455 1.1873 0
M  V30 2 C 1.5108 1.1268 1.5899 0
M  V30 3 C 3.0395 1.193 1.8595 0
M  V30 4 C 0.6614 0.702 2.8042 0
M  V30 5 C 1.2502 0.187 0.3794 0
M  V30 6 N 3.5552 0.6093 2.9717 0
M  V30 7 C 3.8716 1.8533 0.9456 0
M  V30 8 C -0.3449 1.5312 3.3356 0
M  V30 9 C 0.834 -0.5654 3.3946 0
M  V30 10 C -0.2194 0.1337 -0.0796 0
M  V30 11 C 4.8885 0.686 3.1779 0
M  V30 12 C 5.2433 1.9162 1.1798 0
M  V30 13 C -1.1286 1.1183 4.4175 0
M  V30 14 C 0.0522 -0.9772 4.4769 0
M  V30 15 C -0.3638 -0.7286 -1.3463 0
M  V30 16 C 5.7649 1.3216 2.319 0
M  V30 17 C -0.9285 -0.1342 4.9889 0
M  V30 18 N -1.7612 -1.0217 -1.7263 0
M  V30 19 C -2.5472 0.1952 -2.0426 0
M  V30 20 C -1.8766 -2.0329 -2.8083 0
M  V30 21 C -2.1924 0.7975 -3.4136 0
M  V30 22 C -4.0555 -0.075 -1.9172 0
M  V30 23 C -1.4685 -1.484 -4.1862 0
M  V30 24 C -1.1378 -3.346 -2.5175 0
M  V30 25 C -2.254 -0.2264 -4.5415 0
M  V30 26 H 1.4807 3.0499 1.8628 0
M  V30 27 H 1.841 0.5311 -0.4802 0
M  V30 28 H 1.5977 -0.8297 0.6041 0
M  V30 29 H 3.4555 2.3198 0.0567 0
M  V30 30 H -0.5503 2.5068 2.9019 0
M  V30 31 H 1.5987 -1.2434 3.0202 0
M  V30 32 H -0.8462 -0.2867 0.7147 0
M  V30 33 H -0.5634 1.1543 -0.2729 0
M  V30 34 H 5.2427 0.2049 4.0851 0
M  V30 35 H 5.896 2.4267 0.4776 0
M  V30 36 H -1.9011 1.7757 4.8078 0
M  V30 37 H 0.2135 -1.9568 4.9183 0
M  V30 38 H 0.1831 -0.2563 -2.1702 0
M  V30 39 H 0.1514 -1.6687 -1.1246 0
M  V30 40 H 6.8269 1.3526 2.5333 0
M  V30 41 H -1.5382 -0.4544 5.829 0
M  V30 42 H -2.3569 0.9655 -1.2888 0
M  V30 43 H -2.9329 -2.3237 -2.8679 0
M  V30 44 H -1.1809 1.2206 -3.3742 0
M  V30 45 H -2.8638 1.6335 -3.6442 0
M  V30 46 H -4.4373 -0.7546 -2.6839 0
M  V30 47 H -4.2916 -0.5025 -0.9363 0
M  V30 48 H -4.6152 0.8628 -2.0078 0
M  V30 49 H -1.6445 -2.243 -4.9582 0
M  V30 50 H -0.3944 -1.2625 -4.2075 0
M  V30 51 H -0.052 -3.2427 -2.6109 0
M  V30 52 H -1.3708 -3.7139 -1.5125 0
M  V30 53 H -1.4499 -4.1192 -3.2288 0
M  V30 54 H -1.8575 0.2118 -5.4643 0
M  V30 55 H -3.2979 -0.4927 -4.7448 0
M  V30 END ATOM
M  V30 BEGIN BOND
M  V30 1 1 1 2
M  V30 2 1 2 3
M  V30 3 1 2 4
M  V30 4 1 2 5
M  V30 5 2 3 6
M  V30 6 1 3 7
M  V30 7 2 4 8
M  V30 8 1 4 9
M  V30 9 1 5 10
M  V30 10 1 6 11
M  V30 11 2 7 12
M  V30 12 1 8 13
M  V30 13 2 9 14
M  V30 14 1 10 15
M  V30 15 2 11 16
M  V30 16 2 13 17
M  V30 17 1 15 18
M  V30 18 1 18 19
M  V30 19 1 18 20
M  V30 20 1 19 21
M  V30 21 1 19 22
M  V30 22 1 20 23
M  V30 23 1 20 24
M  V30 24 1 21 25
M  V30 25 1 12 16
M  V30 26 1 14 17
M  V30 27 1 23 25
M  V30 28 1 1 26
M  V30 29 1 5 27
M  V30 30 1 5 28
M  V30 31 1 7 29
M  V30 32 1 8 30
M  V30 33 1 9 31
M  V30 34 1 10 32
M  V30 35 1 10 33
M  V30 36 1 11 34
M  V30 37 1 12 35
M  V30 38 1 13 36
M  V30 39 1 14 37
M  V30 40 1 15 38
M  V30 41 1 15 39
M  V30 42 1 16 40
M  V30 43 1 17 41
M  V30 44 1 19 42
M  V30 45 1 20 43
M  V30 46 1 21 44
M  V30 47 1 21 45
M  V30 48 1 22 46
M  V30 49 1 22 47
M  V30 50 1 22 48
M  V30 51 1 23 49
M  V30 52 1 23 50
M  V30 53 1 24 51
M  V30 54 1 24 52
M  V30 55 1 24 53
M  V30 56 1 25 54
M  V30 57 1 25 55
M  V30 END BOND
M  V30 END CTAB
M  END
>  <NO.>
5167

>  <Name>
(+/-)-pirmenol

>  <SMILES>
CC1CCCC(C)N1CCCC(O)(c1ccccc1)c1ccccn1

>  <logBB>


>  <Class>
-1

>  <MW>
338.24

>  <nHBAcc>
3

>  <nHBDon>
1

>  <SLogP>
4.36

>  <TopoPSA>
36.36

>  <MMFF94 Energy>
90.206

$$$$
CC1CCc2cc(F)cc3c(=O)c(C(=O)O)cn1c23
Actelion Java MolfileCreator 2.0

  0  0  0  0  0  0              0 V3000
M  V30 BEGIN CTAB
M  V30 COUNTS 31 33 0 0 0
M  V30 BEGIN ATOM
M  V30 1 F 0.8088 -1.1325 4.6173 0
M  V30 2 C 0.5424 -0.8396 3.3382 0
M  V30 3 C 0.0011 0.3933 3.0161 0
M  V30 4 C 0.8094 -1.7819 2.3532 0
M  V30 5 C -0.2677 0.6915 1.6749 0
M  V30 6 C 0.5293 -1.4954 1.0076 0
M  V30 7 C -0.8501 2.0157 1.3357 0
M  V30 8 C 0.0049 -0.2367 0.6483 0
M  V30 9 C 0.8225 -2.5391 -0.035 0
M  V30 10 O -1.0716 2.8223 2.2323 0
M  V30 11 C -1.1348 2.3078 -0.0929 0
M  V30 12 N -0.2652 0.1066 -0.6934 0
M  V30 13 C 0.0177 -2.2809 -1.2991 0
M  V30 14 C -1.7296 3.5858 -0.5313 0
M  V30 15 C -0.8187 1.3464 -0.9764 0
M  V30 16 C 0.1504 -0.8287 -1.7581 0 CFG=2
M  V30 17 O -2.1253 4.4993 0.1686 0
M  V30 18 O -1.8234 3.7013 -1.8735 0
M  V30 19 C 1.563 -0.4822 -2.2379 0
M  V30 20 H -0.2051 1.1113 3.8047 0
M  V30 21 H 1.2293 -2.7405 2.6458 0
M  V30 22 H 1.8969 -2.5354 -0.2516 0
M  V30 23 H 0.5672 -3.5348 0.347 0
M  V30 24 H -1.0414 -2.497 -1.1026 0
M  V30 25 H 0.3382 -2.9676 -2.0912 0
M  V30 26 H -0.9877 1.4936 -2.041 0
M  V30 27 H -0.5237 -0.7074 -2.617 0
M  V30 28 H -2.2272 4.589 -1.9841 0
M  V30 29 H 1.5867 0.5242 -2.6704 0
M  V30 30 H 1.8945 -1.185 -3.0091 0
M  V30 31 H 2.2933 -0.4982 -1.4223 0
M  V30 END ATOM
M  V30 BEGIN BOND
M  V30 1 1 1 2
M  V30 2 2 2 3
M  V30 3 1 2 4
M  V30 4 1 3 5
M  V30 5 2 4 6
M  V30 6 1 5 7
M  V30 7 2 5 8
M  V30 8 1 6 9
M  V30 9 2 7 10
M  V30 10 1 7 11
M  V30 11 1 8 12
M  V30 12 1 9 13
M  V30 13 1 11 14
M  V30 14 2 11 15
M  V30 15 1 12 16
M  V30 16 2 14 17
M  V30 17 1 14 18
M  V30 18 1 16 19
M  V30 19 1 6 8
M  V30 20 1 12 15
M  V30 21 1 13 16
M  V30 22 1 3 20
M  V30 23 1 4 21
M  V30 24 1 9 22
M  V30 25 1 9 23
M  V30 26 1 13 24
M  V30 27 1 13 25
M  V30 28 1 15 26
M  V30 29 1 16 27
M  V30 30 1 18 28
M  V30 31 1 19 29
M  V30 32 1 19 30
M  V30 33 1 19 31
M  V30 END BOND
M  V30 BEGIN COLLECTION
M  V30 MDLV30/STERAC1 ATOMS=(1 16)
M  V30 END COLLECTION
M  V30 END CTAB
M  END
>  <NO.>
5168

>  <Name>
flumequine

>  <SMILES>
CC1CCc2cc(F)cc3c(=O)c(C(=O)O)cn1c23

>  <logBB>


>  <Class>
-1

>  <MW>
261.08

>  <nHBAcc>
2

>  <nHBDon>
1

>  <SLogP>
2.35

>  <TopoPSA>
59.3

>  <MMFF94 Energy>
10.804

$$$$
CC1CS(=O)(=O)CCN1N=Cc1ccc([N+](=O)[O-])o1
Actelion Java MolfileCreator 2.0

  0  0  0  0  0  0              0 V3000
M  V30 BEGIN CTAB
M  V30 COUNTS 32 33 0 0 0
M  V30 BEGIN ATOM
M  V30 1 S -0.817 3.5989 -1.5529 0
M  V30 2 O -0.8413 4.9696 -1.075 0
M  V30 3 O -1.2859 3.2779 -2.8869 0
M  V30 4 C 0.8545 3.0194 -1.3936 0
M  V30 5 C -1.7129 2.6035 -0.3873 0
M  V30 6 C 0.914 1.5424 -1.0163 0 CFG=1
M  V30 7 C -0.7703 2.18 0.7161 0
M  V30 8 N 0.2631 1.2189 0.2839 0
M  V30 9 C 0.4443 0.6459 -2.1757 0
M  V30 10 N -0.0516 -0.084 0.5146 0
M  V30 11 C 0.9218 -0.782 1.0118 0
M  V30 12 C 0.7671 -2.1806 1.3096 0
M  V30 13 O -0.4342 -2.7922 1.0594 0
M  V30 14 C 1.6567 -3.1016 1.8376 0
M  V30 15 C -0.2908 -4.0901 1.4323 0
M  V30 16 C 0.9703 -4.3413 1.9172 0
M  V30 17 N -1.4295 -4.9369 1.2637 0 CHG=1
M  V30 18 O -2.4623 -4.4393 0.7996 0
M  V30 19 O -1.283 -6.1193 1.6036 0 CHG=-1
M  V30 20 H 1.3399 3.6285 -0.6225 0
M  V30 21 H 1.364 3.2183 -2.342 0
M  V30 22 H -2.1466 1.7458 -0.9083 0
M  V30 23 H -2.5292 3.2173 0.0054 0
M  V30 24 H 1.9789 1.311 -0.8784 0
M  V30 25 H -0.2714 3.0549 1.1517 0
M  V30 26 H -1.352 1.7419 1.5374 0
M  V30 27 H -0.6397 0.6718 -2.3148 0
M  V30 28 H 0.73 -0.3979 -2.0054 0
M  V30 29 H 0.9127 0.9542 -3.1168 0
M  V30 30 H 1.9073 -0.3306 1.2291 0
M  V30 31 H 2.679 -2.9017 2.1309 0
M  V30 32 H 1.343 -5.29 2.2794 0
M  V30 END ATOM
M  V30 BEGIN BOND
M  V30 1 2 1 2
M  V30 2 2 1 3
M  V30 3 1 1 4
M  V30 4 1 1 5
M  V30 5 1 4 6
M  V30 6 1 5 7
M  V30 7 1 6 8
M  V30 8 1 6 9
M  V30 9 1 8 10
M  V30 10 2 10 11
M  V30 11 1 11 12
M  V30 12 1 12 13
M  V30 13 2 12 14
M  V30 14 1 13 15
M  V30 15 1 14 16
M  V30 16 1 15 17
M  V30 17 2 17 18
M  V30 18 1 17 19
M  V30 19 1 7 8
M  V30 20 2 15 16
M  V30 21 1 4 20
M  V30 22 1 4 21
M  V30 23 1 5 22
M  V30 24 1 5 23
M  V30 25 1 6 24
M  V30 26 1 7 25
M  V30 27 1 7 26
M  V30 28 1 9 27
M  V30 29 1 9 28
M  V30 30 1 9 29
M  V30 31 1 11 30
M  V30 32 1 14 31
M  V30 33 1 16 32
M  V30 END BOND
M  V30 BEGIN COLLECTION
M  V30 MDLV30/STERAC1 ATOMS=(1 6)
M  V30 END COLLECTION
M  V30 END CTAB
M  END
>  <NO.>
5169

>  <Name>
n-(3-methyl-1,1-dioxo-1,4-thiazinan-4-yl)-1-(5-nitro-2-furanyl)methanimine

>  <SMILES>
CC1CS(=O)(=O)CCN1N=Cc1ccc([N+](=O)[O-])o1

>  <logBB>


>  <Class>
-1

>  <MW>
287.06

>  <nHBAcc>
7

>  <nHBDon>
0

>  <SLogP>
0.64

>  <TopoPSA>
106.02

>  <MMFF94 Energy>
66.745

$$$$
CC1Cc2ccccc2N1NC(=O)c1ccc(Cl)c(S(N)(=O)=O)c1
Actelion Java MolfileCreator 2.0

  0  0  0  0  0  0              0 V3000
M  V30 BEGIN CTAB
M  V30 COUNTS 40 42 0 0 0
M  V30 BEGIN ATOM
M  V30 1 Cl 2.0474 6.1518 -0.4911 0
M  V30 2 C 1.2088 4.6432 -0.5033 0
M  V30 3 C 1.8278 3.4028 -0.6748 0
M  V30 4 C -0.178 4.6939 -0.325 0
M  V30 5 S 3.5687 3.2649 -0.9299 0
M  V30 6 C 1.0664 2.2191 -0.6706 0
M  V30 7 C -0.9367 3.5199 -0.3142 0
M  V30 8 O 3.9633 4.1153 -2.0251 0
M  V30 9 O 3.9256 1.8637 -0.8854 0
M  V30 10 N 4.22 3.9098 0.4742 0
M  V30 11 C -0.3181 2.2747 -0.4756 0
M  V30 12 C -1.1765 1.0556 -0.4655 0
M  V30 13 O -2.3533 1.157 -0.8005 0
M  V30 14 N -0.5585 -0.1138 -0.0594 0
M  V30 15 N -1.2976 -1.2745 0.0116 0
M  V30 16 C -1.0844 -2.1999 1.0407 0
M  V30 17 C -1.7957 -1.9995 -1.1651 0 CFG=2
M  V30 18 C -1.6237 -3.449 0.7118 0
M  V30 19 C -0.4545 -2.0122 2.2585 0
M  V30 20 C -2.2971 -3.3692 -0.6253 0
M  V30 21 C -0.6899 -2.1892 -2.2061 0
M  V30 22 C -1.5448 -4.5295 1.5746 0
M  V30 23 C -0.3581 -3.0956 3.1383 0
M  V30 24 C -0.8975 -4.3459 2.797 0
M  V30 25 H -0.6829 5.6498 -0.1953 0
M  V30 26 H 1.5581 1.2664 -0.8522 0
M  V30 27 H -2.0165 3.5799 -0.179 0
M  V30 28 H 4.7237 4.7729 0.2603 0
M  V30 29 H 4.7889 3.2102 0.9521 0
M  V30 30 H 0.4025 -0.1777 0.251 0
M  V30 31 H -2.6283 -1.4585 -1.63 0
M  V30 32 H -0.0562 -1.0448 2.5409 0
M  V30 33 H -2.0284 -4.2059 -1.2768 0
M  V30 34 H -3.3833 -3.3486 -0.4827 0
M  V30 35 H 0.1807 -2.7026 -1.7834 0
M  V30 36 H -0.3483 -1.2242 -2.5955 0
M  V30 37 H -1.0555 -2.7789 -3.0532 0
M  V30 38 H -1.978 -5.4896 1.3147 0
M  V30 39 H 0.1302 -2.9661 4.1012 0
M  V30 40 H -0.8198 -5.1743 3.4972 0
M  V30 END ATOM
M  V30 BEGIN BOND
M  V30 1 1 1 2
M  V30 2 2 2 3
M  V30 3 1 2 4
M  V30 4 1 3 5
M  V30 5 1 3 6
M  V30 6 2 4 7
M  V30 7 2 5 8
M  V30 8 2 5 9
M  V30 9 1 5 10
M  V30 10 2 6 11
M  V30 11 1 11 12
M  V30 12 2 12 13
M  V30 13 1 12 14
M  V30 14 1 14 15
M  V30 15 1 15 16
M  V30 16 1 15 17
M  V30 17 2 16 18
M  V30 18 1 16 19
M  V30 19 1 17 20
M  V30 20 1 17 21
M  V30 21 1 18 22
M  V30 22 2 19 23
M  V30 23 2 22 24
M  V30 24 1 7 11
M  V30 25 1 18 20
M  V30 26 1 23 24
M  V30 27 1 4 25
M  V30 28 1 6 26
M  V30 29 1 7 27
M  V30 30 1 10 28
M  V30 31 1 10 29
M  V30 32 1 14 30
M  V30 33 1 17 31
M  V30 34 1 19 32
M  V30 35 1 20 33
M  V30 36 1 20 34
M  V30 37 1 21 35
M  V30 38 1 21 36
M  V30 39 1 21 37
M  V30 40 1 22 38
M  V30 41 1 23 39
M  V30 42 1 24 40
M  V30 END BOND
M  V30 BEGIN COLLECTION
M  V30 MDLV30/STERAC1 ATOMS=(1 17)
M  V30 END COLLECTION
M  V30 END CTAB
M  END
>  <NO.>
5170

>  <Name>
indapamide

>  <SMILES>
CC1Cc2ccccc2N1NC(=O)c1ccc(Cl)c(S(N)(=O)=O)c1

>  <logBB>


>  <Class>
-1

>  <MW>
365.06

>  <nHBAcc>
4

>  <nHBDon>
2

>  <SLogP>
2.08

>  <TopoPSA>
92.5

>  <MMFF94 Energy>
-5.6677

$$$$
CCC(CO)NC(=O)C1C=C2c3cccc4[nH]cc(c34)CC2N(C)C1
Actelion Java MolfileCreator 2.0

  0  0  0  0  0  0              0 V3000
M  V30 BEGIN CTAB
M  V30 COUNTS 50 53 0 0 0
M  V30 BEGIN ATOM
M  V30 1 O -1.7541 0.0796 -1.9935 0
M  V30 2 C -0.7475 0.7646 -1.8342 0
M  V30 3 N -0.2861 1.6539 -2.7831 0
M  V30 4 C 0.1015 0.7351 -0.5591 0
M  V30 5 C -0.9877 1.9191 -4.0386 0
M  V30 6 C 0.219 -0.6635 -0.0194 0
M  V30 7 C -0.5391 1.6875 0.4615 0
M  V30 8 C -0.3889 3.1606 -4.7278 0
M  V30 9 C -1.0071 0.7022 -4.9825 0
M  V30 10 C 0.1275 -0.9121 1.3003 0
M  V30 11 N 0.1334 1.5994 1.7732 0
M  V30 12 O -0.4152 4.2729 -3.8315 0
M  V30 13 C 0.3689 0.1934 -5.3931 0
M  V30 14 C 0.1909 -2.2974 1.8203 0
M  V30 15 C -0.0287 0.2291 2.3562 0
M  V30 16 C -0.405 2.6313 2.6642 0
M  V30 17 C 0.6014 -2.3889 3.1567 0
M  V30 18 C -0.1165 -3.4927 1.1605 0
M  V30 19 C 0.939 0.0546 3.5902 0
M  V30 20 C 0.7092 -3.6062 3.8077 0
M  V30 21 C 0.9623 -1.3614 4.0544 0
M  V30 22 C -0.0046 -4.7234 1.8237 0
M  V30 23 N 1.1327 -3.3201 5.0878 0
M  V30 24 C 0.4126 -4.8085 3.1622 0
M  V30 25 C 1.2897 -1.9596 5.249 0
M  V30 26 H 0.4428 2.3091 -2.5252 0
M  V30 27 H 1.1157 1.0785 -0.8024 0
M  V30 28 H -2.0227 2.1523 -3.7558 0
M  V30 29 H 0.3695 -1.4589 -0.7427 0
M  V30 30 H -1.6154 1.4859 0.5641 0
M  V30 31 H -0.4513 2.7102 0.0706 0
M  V30 32 H 0.6556 2.9993 -5.0102 0
M  V30 33 H -0.9655 3.4203 -5.6214 0
M  V30 34 H -1.5714 0.9597 -5.8873 0
M  V30 35 H -1.5495 -0.1252 -4.5115 0
M  V30 36 H -0.1328 5.0536 -4.3392 0
M  V30 37 H 0.9185 0.9404 -5.9725 0
M  V30 38 H 0.2635 -0.697 -6.0214 0
M  V30 39 H 0.9704 -0.0829 -4.5218 0
M  V30 40 H -1.0615 0.1308 2.7278 0
M  V30 41 H -0.2981 3.6234 2.2102 0
M  V30 42 H -1.4659 2.4727 2.8889 0
M  V30 43 H 0.1486 2.6758 3.6064 0
M  V30 44 H -0.4609 -3.4785 0.1301 0
M  V30 45 H 1.958 0.3497 3.3086 0
M  V30 46 H 0.6212 0.6956 4.4199 0
M  V30 47 H -0.2526 -5.6372 1.2873 0
M  V30 48 H 1.3047 -4.0129 5.8026 0
M  V30 49 H 0.494 -5.7658 3.6648 0
M  V30 50 H 1.6219 -1.5506 6.1936 0
M  V30 END ATOM
M  V30 BEGIN BOND
M  V30 1 2 1 2
M  V30 2 1 2 3
M  V30 3 1 2 4
M  V30 4 1 3 5
M  V30 5 1 4 6
M  V30 6 1 4 7
M  V30 7 1 5 8
M  V30 8 1 5 9
M  V30 9 2 6 10
M  V30 10 1 7 11
M  V30 11 1 8 12
M  V30 12 1 9 13
M  V30 13 1 10 14
M  V30 14 1 10 15
M  V30 15 1 11 16
M  V30 16 2 14 17
M  V30 17 1 14 18
M  V30 18 1 15 19
M  V30 19 1 17 20
M  V30 20 1 17 21
M  V30 21 2 18 22
M  V30 22 1 20 23
M  V30 23 2 20 24
M  V30 24 2 21 25
M  V30 25 1 11 15
M  V30 26 1 19 21
M  V30 27 1 22 24
M  V30 28 1 23 25
M  V30 29 1 3 26
M  V30 30 1 4 27
M  V30 31 1 5 28
M  V30 32 1 6 29
M  V30 33 1 7 30
M  V30 34 1 7 31
M  V30 35 1 8 32
M  V30 36 1 8 33
M  V30 37 1 9 34
M  V30 38 1 9 35
M  V30 39 1 12 36
M  V30 40 1 13 37
M  V30 41 1 13 38
M  V30 42 1 13 39
M  V30 43 1 15 40
M  V30 44 1 16 41
M  V30 45 1 16 42
M  V30 46 1 16 43
M  V30 47 1 18 44
M  V30 48 1 19 45
M  V30 49 1 19 46
M  V30 50 1 22 47
M  V30 51 1 23 48
M  V30 52 1 24 49
M  V30 53 1 25 50
M  V30 END BOND
M  V30 END CTAB
M  END
>  <NO.>
5175

>  <Name>
mls000756415

>  <SMILES>
CCC(CO)NC(=O)C1C=C2c3cccc4[nH]cc(c34)CC2N(C)C1

>  <logBB>


>  <Class>
-1

>  <MW>
339.19

>  <nHBAcc>
3

>  <nHBDon>
3

>  <SLogP>
1.92

>  <TopoPSA>
68.36

>  <MMFF94 Energy>
93.921

$$$$
CCC(CO)NC(=O)C1C=C2c3cccc4c3c(cn4C)CC2N(C)C1
Actelion Java MolfileCreator 2.0

  0  0  0  0  0  0              0 V3000
M  V30 BEGIN CTAB
M  V30 COUNTS 53 56 0 0 0
M  V30 BEGIN ATOM
M  V30 1 O 1.3534 -2.7879 0.1591 0
M  V30 2 C 0.4283 -2.3055 0.8043 0
M  V30 3 N 0.4061 -2.3062 2.1878 0
M  V30 4 C -0.7993 -1.6359 0.1728 0
M  V30 5 C 1.4868 -2.8936 2.9857 0
M  V30 6 C -0.6799 -0.1335 0.2887 0
M  V30 7 C -0.9376 -2.068 -1.3029 0
M  V30 8 C 2.7115 -1.9555 3.0099 0
M  V30 9 C 0.9389 -3.2279 4.3863 0
M  V30 10 C -1.0497 0.6725 -0.7236 0
M  V30 11 N -1.9574 -1.3177 -2.0642 0
M  V30 12 O 3.8573 -2.598 3.5547 0
M  V30 13 C 1.8717 -4.0538 5.2579 0
M  V30 14 C -0.7754 2.1263 -0.7006 0
M  V30 15 C -1.6717 0.1404 -2.0446 0
M  V30 16 C -3.3097 -1.6031 -1.5856 0
M  V30 17 C -0.5167 2.6614 -1.9743 0
M  V30 18 C -0.7193 2.9918 0.3937 0
M  V30 19 C -0.8257 0.5507 -3.3057 0
M  V30 20 C -0.2131 4.0009 -2.1582 0
M  V30 21 C -0.5114 2.0123 -3.2338 0
M  V30 22 C -0.4159 4.3471 0.2053 0
M  V30 23 N -0.0177 4.1607 -3.5163 0
M  V30 24 C -0.1554 4.8802 -1.0694 0
M  V30 25 C -0.197 2.9628 -4.1768 0
M  V30 26 C 0.3274 5.4089 -4.1581 0
M  V30 27 H -0.3605 -1.8514 2.6674 0
M  V30 28 H -1.6804 -1.9609 0.7407 0
M  V30 29 H 1.7805 -3.833 2.4997 0
M  V30 30 H -0.2214 0.2741 1.1844 0
M  V30 31 H 0.0221 -1.9577 -1.8259 0
M  V30 32 H -1.1588 -3.1425 -1.351 0
M  V30 33 H 2.9663 -1.6326 1.9948 0
M  V30 34 H 2.5003 -1.0572 3.6004 0
M  V30 35 H 0.6714 -2.3045 4.9155 0
M  V30 36 H 0.0039 -3.792 4.2697 0
M  V30 37 H 4.6217 -2.0322 3.3499 0
M  V30 38 H 1.3393 -4.3989 6.1505 0
M  V30 39 H 2.7274 -3.4666 5.6011 0
M  V30 40 H 2.2386 -4.9347 4.7224 0
M  V30 41 H -2.633 0.6677 -2.1586 0
M  V30 42 H -3.4969 -1.2263 -0.5745 0
M  V30 43 H -3.5022 -2.6817 -1.593 0
M  V30 44 H -4.0508 -1.1539 -2.2564 0
M  V30 45 H -0.9176 2.6255 1.3962 0
M  V30 46 H 0.1132 -0.0147 -3.3406 0
M  V30 47 H -1.3887 0.3301 -4.2202 0
M  V30 48 H -0.3795 5.0073 1.0698 0
M  V30 49 H 0.0803 5.9314 -1.1953 0
M  V30 50 H -0.0873 2.8912 -5.2509 0
M  V30 51 H 0.4242 5.2531 -5.2354 0
M  V30 52 H 1.2785 5.757 -3.7474 0
M  V30 53 H -0.468 6.1314 -3.9585 0
M  V30 END ATOM
M  V30 BEGIN BOND
M  V30 1 2 1 2
M  V30 2 1 2 3
M  V30 3 1 2 4
M  V30 4 1 3 5
M  V30 5 1 4 6
M  V30 6 1 4 7
M  V30 7 1 5 8
M  V30 8 1 5 9
M  V30 9 2 6 10
M  V30 10 1 7 11
M  V30 11 1 8 12
M  V30 12 1 9 13
M  V30 13 1 10 14
M  V30 14 1 10 15
M  V30 15 1 11 16
M  V30 16 2 14 17
M  V30 17 1 14 18
M  V30 18 1 15 19
M  V30 19 1 17 20
M  V30 20 1 17 21
M  V30 21 2 18 22
M  V30 22 1 20 23
M  V30 23 2 20 24
M  V30 24 2 21 25
M  V30 25 1 23 26
M  V30 26 1 11 15
M  V30 27 1 19 21
M  V30 28 1 22 24
M  V30 29 1 23 25
M  V30 30 1 3 27
M  V30 31 1 4 28
M  V30 32 1 5 29
M  V30 33 1 6 30
M  V30 34 1 7 31
M  V30 35 1 7 32
M  V30 36 1 8 33
M  V30 37 1 8 34
M  V30 38 1 9 35
M  V30 39 1 9 36
M  V30 40 1 12 37
M  V30 41 1 13 38
M  V30 42 1 13 39
M  V30 43 1 13 40
M  V30 44 1 15 41
M  V30 45 1 16 42
M  V30 46 1 16 43
M  V30 47 1 16 44
M  V30 48 1 18 45
M  V30 49 1 19 46
M  V30 50 1 19 47
M  V30 51 1 22 48
M  V30 52 1 24 49
M  V30 53 1 25 50
M  V30 54 1 26 51
M  V30 55 1 26 52
M  V30 56 1 26 53
M  V30 END BOND
M  V30 END CTAB
M  END
>  <NO.>
5176

>  <Name>
methysergide

>  <SMILES>
CCC(CO)NC(=O)C1C=C2c3cccc4c3c(cn4C)CC2N(C)C1

>  <logBB>


>  <Class>
1

>  <MW>
353.21

>  <nHBAcc>
3

>  <nHBDon>
2

>  <SLogP>
1.94

>  <TopoPSA>
57.5

>  <MMFF94 Energy>
103.21

$$$$
CCC(Cc1c(I)cc(I)c(N)c1I)C(=O)O
Actelion Java MolfileCreator 2.0

  0  0  0  0  0  0              0 V3000
M  V30 BEGIN CTAB
M  V30 COUNTS 29 29 0 0 0
M  V30 BEGIN ATOM
M  V30 1 I -1.1859 1.1012 -2.7122 0
M  V30 2 C -1.4518 1.2208 -0.5696 0
M  V30 3 C -1.9331 2.4563 -0.0614 0
M  V30 4 C -1.1979 0.096 0.2674 0
M  V30 5 N -2.1346 3.5568 -0.8907 0
M  V30 6 C -2.1606 2.5524 1.3184 0
M  V30 7 C -1.4857 0.2461 1.6423 0
M  V30 8 C -0.6359 -1.2012 -0.2939 0
M  V30 9 I -2.8526 4.3328 2.2047 0
M  V30 10 C -1.9533 1.461 2.1595 0
M  V30 11 I -1.2986 -1.2955 3.0809 0
M  V30 12 C 0.8815 -1.1776 -0.5817 0 CFG=1
M  V30 13 C 1.1907 -2.3855 -1.4362 0
M  V30 14 C 1.7478 -1.2039 0.686 0
M  V30 15 O 0.9465 -3.5493 -1.1657 0
M  V30 16 O 1.8012 -2.064 -2.592 0
M  V30 17 C 3.2361 -1.0626 0.3874 0
M  V30 18 H -2.5259 4.411 -0.514 0
M  V30 19 H -2.0195 3.464 -1.8919 0
M  V30 20 H -1.1923 -1.4546 -1.2056 0
M  V30 21 H -0.8684 -2.0521 0.3535 0
M  V30 22 H -2.1597 1.5579 3.2234 0
M  V30 23 H 1.1391 -0.2778 -1.1508 0
M  V30 24 H 1.4646 -0.3765 1.3451 0
M  V30 25 H 1.5881 -2.1364 1.24 0
M  V30 26 H 1.9465 -2.9256 -3.0361 0
M  V30 27 H 3.4387 -0.1419 -0.1686 0
M  V30 28 H 3.611 -1.9089 -0.1958 0
M  V30 29 H 3.8041 -1.0249 1.3225 0
M  V30 END ATOM
M  V30 BEGIN BOND
M  V30 1 1 1 2
M  V30 2 2 2 3
M  V30 3 1 2 4
M  V30 4 1 3 5
M  V30 5 1 3 6
M  V30 6 2 4 7
M  V30 7 1 4 8
M  V30 8 1 6 9
M  V30 9 2 6 10
M  V30 10 1 7 11
M  V30 11 1 8 12
M  V30 12 1 12 13
M  V30 13 1 12 14
M  V30 14 2 13 15
M  V30 15 1 13 16
M  V30 16 1 14 17
M  V30 17 1 7 10
M  V30 18 1 5 18
M  V30 19 1 5 19
M  V30 20 1 8 20
M  V30 21 1 8 21
M  V30 22 1 10 22
M  V30 23 1 12 23
M  V30 24 1 14 24
M  V30 25 1 14 25
M  V30 26 1 16 26
M  V30 27 1 17 27
M  V30 28 1 17 28
M  V30 29 1 17 29
M  V30 END BOND
M  V30 BEGIN COLLECTION
M  V30 MDLV30/STERAC1 ATOMS=(1 12)
M  V30 END COLLECTION
M  V30 END CTAB
M  END
>  <NO.>
5177

>  <Name>
iopanoic acid

>  <SMILES>
CCC(Cc1c(I)cc(I)c(N)c1I)C(=O)O

>  <logBB>


>  <Class>
-1

>  <MW>
570.8

>  <nHBAcc>
2

>  <nHBDon>
2

>  <SLogP>
3.74

>  <TopoPSA>
63.32

>  <MMFF94 Energy>
22.211

$$$$
CCC(c1ccccc1)c1c(O)c2ccccc2oc1=O
Actelion Java MolfileCreator 2.0

  0  0  0  0  0  0              0 V3000
M  V30 BEGIN CTAB
M  V30 COUNTS 37 39 0 0 0
M  V30 BEGIN ATOM
M  V30 1 O 1.0404 -2.0016 -0.9604 0
M  V30 2 C 1.3307 -0.8522 -0.6461 0
M  V30 3 O 2.442 -0.2495 -1.2173 0
M  V30 4 C 0.5372 -0.0666 0.3491 0
M  V30 5 C 2.8617 1.0326 -0.8449 0
M  V30 6 C 0.9485 1.1751 0.6871 0
M  V30 7 C -0.6999 -0.7593 0.9273 0 CFG=2
M  V30 8 C 2.1543 1.7635 0.098 0
M  V30 9 C 4.0134 1.5261 -1.4586 0
M  V30 10 O 0.3088 2.009 1.5822 0
M  V30 11 C -1.8459 -0.8022 -0.0828 0
M  V30 12 C -0.3727 -2.0944 1.648 0
M  V30 13 C 2.6319 3.0382 0.4314 0
M  V30 14 C 4.4764 2.7939 -1.1181 0
M  V30 15 C -2.6941 0.313 -0.2119 0
M  V30 16 C -2.0744 -1.9041 -0.9201 0
M  V30 17 C -1.5131 -2.581 2.5385 0
M  V30 18 C 3.7859 3.5505 -0.1721 0
M  V30 19 C -3.7441 0.3157 -1.133 0
M  V30 20 C -3.1245 -1.9 -1.8418 0
M  V30 21 C -3.9606 -0.7923 -1.9464 0
M  V30 22 H -1.0822 -0.1402 1.7481 0
M  V30 23 H 4.5427 0.9263 -2.1933 0
M  V30 24 H -0.5471 1.6476 1.8512 0
M  V30 25 H -0.1247 -2.8969 0.9474 0
M  V30 26 H 0.5118 -1.9517 2.2824 0
M  V30 27 H 2.1092 3.6477 1.1656 0
M  V30 28 H 5.3723 3.1921 -1.5874 0
M  V30 29 H -2.5465 1.197 0.4032 0
M  V30 30 H -1.4307 -2.7803 -0.8805 0
M  V30 31 H -2.4122 -2.8044 1.957 0
M  V30 32 H -1.7683 -1.832 3.2951 0
M  V30 33 H -1.2161 -3.4968 3.0598 0
M  V30 34 H 4.1428 4.5416 0.0977 0
M  V30 35 H -4.3906 1.1853 -1.2186 0
M  V30 36 H -3.2818 -2.7633 -2.4835 0
M  V30 37 H -4.7745 -0.7908 -2.6663 0
M  V30 END ATOM
M  V30 BEGIN BOND
M  V30 1 2 1 2
M  V30 2 1 2 3
M  V30 3 1 2 4
M  V30 4 1 3 5
M  V30 5 2 4 6
M  V30 6 1 4 7
M  V30 7 2 5 8
M  V30 8 1 5 9
M  V30 9 1 6 10
M  V30 10 1 7 11
M  V30 11 1 7 12
M  V30 12 1 8 13
M  V30 13 2 9 14
M  V30 14 2 11 15
M  V30 15 1 11 16
M  V30 16 1 12 17
M  V30 17 2 13 18
M  V30 18 1 15 19
M  V30 19 2 16 20
M  V30 20 2 19 21
M  V30 21 1 6 8
M  V30 22 1 14 18
M  V30 23 1 20 21
M  V30 24 1 7 22
M  V30 25 1 9 23
M  V30 26 1 10 24
M  V30 27 1 12 25
M  V30 28 1 12 26
M  V30 29 1 13 27
M  V30 30 1 14 28
M  V30 31 1 15 29
M  V30 32 1 16 30
M  V30 33 1 17 31
M  V30 34 1 17 32
M  V30 35 1 17 33
M  V30 36 1 18 34
M  V30 37 1 19 35
M  V30 38 1 20 36
M  V30 39 1 21 37
M  V30 END BOND
M  V30 BEGIN COLLECTION
M  V30 MDLV30/STERAC1 ATOMS=(1 7)
M  V30 END COLLECTION
M  V30 END CTAB
M  END
>  <NO.>
5178

>  <Name>
phenprocoumon

>  <SMILES>
CCC(c1ccccc1)c1c(O)c2ccccc2oc1=O

>  <logBB>


>  <Class>
-1

>  <MW>
280.11

>  <nHBAcc>
3

>  <nHBDon>
1

>  <SLogP>
4.04

>  <TopoPSA>
50.44

>  <MMFF94 Energy>
56.787

$$$$
CCC1(c2cccc(O)c2)CCCCN(C)C1
Actelion Java MolfileCreator 2.0

  0  0  0  0  0  0              0 V3000
M  V30 BEGIN CTAB
M  V30 COUNTS 40 41 0 0 0
M  V30 BEGIN ATOM
M  V30 1 O 4.4121 0.8654 -1.6527 0
M  V30 2 C 3.1966 1.4095 -1.3529 0
M  V30 3 C 2.15 0.6235 -0.8634 0
M  V30 4 C 3.0379 2.7718 -1.5546 0
M  V30 5 C 0.902 1.1971 -0.5528 0
M  V30 6 C 1.8135 3.362 -1.2682 0
M  V30 7 C 0.7599 2.5844 -0.7776 0
M  V30 8 C -0.3043 0.3638 -0.0135 0 CFG=2
M  V30 9 C 0.0992 -1.1208 0.3204 0
M  V30 10 C -1.3862 0.4093 -1.1409 0
M  V30 11 C -0.8879 1.0504 1.2739 0
M  V30 12 N -0.9513 -1.9065 0.9868 0
M  V30 13 C -2.6144 -0.4919 -0.9917 0
M  V30 14 C 0.0856 1.189 2.4423 0
M  V30 15 C -1.8005 -2.6775 0.0743 0
M  V30 16 C -0.3919 -2.7974 2.0067 0
M  V30 17 C -2.2764 -1.964 -1.1905 0
M  V30 18 H 4.3845 -0.0848 -1.4577 0
M  V30 19 H 2.326 -0.4378 -0.7337 0
M  V30 20 H 3.8613 3.3678 -1.9362 0
M  V30 21 H 1.6736 4.4279 -1.4278 0
M  V30 22 H -0.1842 3.0861 -0.5771 0
M  V30 23 H 0.4472 -1.6448 -0.5801 0
M  V30 24 H 0.9757 -1.077 0.9813 0
M  V30 25 H -0.9114 0.1774 -2.1054 0
M  V30 26 H -1.7587 1.4377 -1.2453 0
M  V30 27 H -1.7632 0.4963 1.6333 0
M  V30 28 H -1.2704 2.0505 1.036 0
M  V30 29 H -3.3228 -0.2046 -1.7798 0
M  V30 30 H -3.1316 -0.3217 -0.0417 0
M  V30 31 H -0.4111 1.6955 3.2769 0
M  V30 32 H 0.4252 0.2171 2.808 0
M  V30 33 H 0.9631 1.7838 2.1739 0
M  V30 34 H -1.2939 -3.6001 -0.2403 0
M  V30 35 H -2.6914 -2.9908 0.6345 0
M  V30 36 H 0.1369 -2.2243 2.776 0
M  V30 37 H -1.1888 -3.344 2.5237 0
M  V30 38 H 0.3056 -3.5253 1.577 0
M  V30 39 H -1.5277 -2.0738 -1.9849 0
M  V30 40 H -3.1732 -2.4853 -1.5491 0
M  V30 END ATOM
M  V30 BEGIN BOND
M  V30 1 1 1 2
M  V30 2 2 2 3
M  V30 3 1 2 4
M  V30 4 1 3 5
M  V30 5 2 4 6
M  V30 6 2 5 7
M  V30 7 1 5 8
M  V30 8 1 8 9
M  V30 9 1 8 10
M  V30 10 1 8 11
M  V30 11 1 9 12
M  V30 12 1 10 13
M  V30 13 1 11 14
M  V30 14 1 12 15
M  V30 15 1 12 16
M  V30 16 1 13 17
M  V30 17 1 6 7
M  V30 18 1 15 17
M  V30 19 1 1 18
M  V30 20 1 3 19
M  V30 21 1 4 20
M  V30 22 1 6 21
M  V30 23 1 7 22
M  V30 24 1 9 23
M  V30 25 1 9 24
M  V30 26 1 10 25
M  V30 27 1 10 26
M  V30 28 1 11 27
M  V30 29 1 11 28
M  V30 30 1 13 29
M  V30 31 1 13 30
M  V30 32 1 14 31
M  V30 33 1 14 32
M  V30 34 1 14 33
M  V30 35 1 15 34
M  V30 36 1 15 35
M  V30 37 1 16 36
M  V30 38 1 16 37
M  V30 39 1 16 38
M  V30 40 1 17 39
M  V30 41 1 17 40
M  V30 END BOND
M  V30 BEGIN COLLECTION
M  V30 MDLV30/STERAC1 ATOMS=(1 8)
M  V30 END COLLECTION
M  V30 END CTAB
M  END
>  <NO.>
5181

>  <Name>
meptazinol

>  <SMILES>
CCC1(c2cccc(O)c2)CCCCN(C)C1

>  <logBB>


>  <Class>
1

>  <MW>
233.18

>  <nHBAcc>
2

>  <nHBDon>
1

>  <SLogP>
3.16

>  <TopoPSA>
23.47

>  <MMFF94 Energy>
54.03

$$$$
CCC12CCCN3CCc4c(n(c5ccccc45)C(O)(C(=O)OC)C1)C32
Actelion Java MolfileCreator 2.0

  0  0  0  0  0  0              0 V3000
M  V30 BEGIN CTAB
M  V30 COUNTS 52 56 0 0 0
M  V30 BEGIN ATOM
M  V30 1 O -3.2246 -0.4026 1.2889 0
M  V30 2 C -2.3811 0.3379 1.7826 0
M  V30 3 O -2.5164 0.9422 3.004 0
M  V30 4 C -1.0315 0.7291 1.1178 0
M  V30 5 C -3.7453 0.6448 3.669 0
M  V30 6 O -0.2417 1.6304 1.9037 0
M  V30 7 N -0.2255 -0.4768 0.8788 0
M  V30 8 C -1.3825 1.4764 -0.2026 0
M  V30 9 C 0.1963 -1.4114 1.8168 0
M  V30 10 C 0.3313 -0.7789 -0.334 0
M  V30 11 C -0.2873 1.4636 -1.3184 0
M  V30 12 C 1.0523 -2.306 1.1519 0
M  V30 13 C -0.0783 -1.5538 3.1893 0
M  V30 14 C 1.1359 -1.8852 -0.1986 0
M  V30 15 C 0.1066 -0.0119 -1.5995 0
M  V30 16 C 0.9746 2.257 -0.877 0
M  V30 17 C -0.8507 2.157 -2.6098 0
M  V30 18 C 1.6457 -3.3579 1.8781 0
M  V30 19 C 0.5188 -2.6113 3.8835 0
M  V30 20 C 1.9488 -2.3887 -1.3436 0
M  V30 21 N 1.2722 -0.1729 -2.5043 0
M  V30 22 C 2.1384 2.0737 -1.8503 0
M  V30 23 C -2.1652 1.6249 -3.1735 0
M  V30 24 C 1.3698 -3.5018 3.2399 0
M  V30 25 C 1.6035 -1.619 -2.6526 0
M  V30 26 C 2.4489 0.5938 -2.0674 0
M  V30 27 H -3.7509 1.1779 4.6238 0
M  V30 28 H -4.5966 0.9902 3.0742 0
M  V30 29 H -3.8208 -0.4281 3.8711 0
M  V30 30 H 0.015 1.1498 2.7091 0
M  V30 31 H -2.2865 1.0139 -0.6162 0
M  V30 32 H -1.647 2.5174 0.0283 0
M  V30 33 H -0.7372 -0.8784 3.723 0
M  V30 34 H -0.7462 -0.5012 -2.0881 0
M  V30 35 H 1.3246 1.9268 0.1056 0
M  V30 36 H 0.7418 3.3241 -0.7767 0
M  V30 37 H -0.1147 2.0972 -3.4191 0
M  V30 38 H -0.9906 3.2266 -2.4045 0
M  V30 39 H 2.3141 -4.0556 1.3823 0
M  V30 40 H 0.3135 -2.7388 4.9442 0
M  V30 41 H 1.7786 -3.4607 -1.4919 0
M  V30 42 H 3.011 -2.2486 -1.11 0
M  V30 43 H 1.9245 2.5597 -2.8084 0
M  V30 44 H 3.0272 2.5739 -1.4473 0
M  V30 45 H -2.1152 0.5574 -3.4002 0
M  V30 46 H -3.0023 1.8044 -2.4935 0
M  V30 47 H -2.3986 2.1459 -4.1086 0
M  V30 48 H 1.8252 -4.3164 3.7972 0
M  V30 49 H 0.7384 -2.1081 -3.1216 0
M  V30 50 H 2.4238 -1.7409 -3.3709 0
M  V30 51 H 2.8806 0.1934 -1.1422 0
M  V30 52 H 3.2299 0.5192 -2.834 0
M  V30 END ATOM
M  V30 BEGIN BOND
M  V30 1 2 1 2
M  V30 2 1 2 3
M  V30 3 1 2 4
M  V30 4 1 3 5
M  V30 5 1 4 6
M  V30 6 1 4 7
M  V30 7 1 4 8
M  V30 8 1 7 9
M  V30 9 1 7 10
M  V30 10 1 8 11
M  V30 11 2 9 12
M  V30 12 1 9 13
M  V30 13 2 10 14
M  V30 14 1 10 15
M  V30 15 1 11 16
M  V30 16 1 11 17
M  V30 17 1 12 18
M  V30 18 2 13 19
M  V30 19 1 14 20
M  V30 20 1 15 21
M  V30 21 1 16 22
M  V30 22 1 17 23
M  V30 23 2 18 24
M  V30 24 1 20 25
M  V30 25 1 21 26
M  V30 26 1 11 15
M  V30 27 1 12 14
M  V30 28 1 19 24
M  V30 29 1 21 25
M  V30 30 1 22 26
M  V30 31 1 5 27
M  V30 32 1 5 28
M  V30 33 1 5 29
M  V30 34 1 6 30
M  V30 35 1 8 31
M  V30 36 1 8 32
M  V30 37 1 13 33
M  V30 38 1 15 34
M  V30 39 1 16 35
M  V30 40 1 16 36
M  V30 41 1 17 37
M  V30 42 1 17 38
M  V30 43 1 18 39
M  V30 44 1 19 40
M  V30 45 1 20 41
M  V30 46 1 20 42
M  V30 47 1 22 43
M  V30 48 1 22 44
M  V30 49 1 23 45
M  V30 50 1 23 46
M  V30 51 1 23 47
M  V30 52 1 24 48
M  V30 53 1 25 49
M  V30 54 1 25 50
M  V30 55 1 26 51
M  V30 56 1 26 52
M  V30 END BOND
M  V30 END CTAB
M  END
>  <NO.>
5182

>  <Name>
isovincamine

>  <SMILES>
CCC12CCCN3CCc4c(n(c5ccccc45)C(O)(C(=O)OC)C1)C32

>  <logBB>


>  <Class>
-1

>  <MW>
354.19

>  <nHBAcc>
4

>  <nHBDon>
1

>  <SLogP>
2.95

>  <TopoPSA>
54.7

>  <MMFF94 Energy>
107.48

$$$$
CCC1NC(=O)c2cc(S(N)(=O)=O)c(Cl)cc2N1
Actelion Java MolfileCreator 2.0

  0  0  0  0  0  0              0 V3000
M  V30 BEGIN CTAB
M  V30 COUNTS 30 31 0 0 0
M  V30 BEGIN ATOM
M  V30 1 Cl -3.8576 1.0659 -0.6558 0
M  V30 2 C -2.3584 0.2718 -0.3283 0
M  V30 3 C -2.1079 -1.0733 -0.6113 0
M  V30 4 C -1.357 1.053 0.2707 0
M  V30 5 S -3.3159 -2.0999 -1.3832 0
M  V30 6 C -0.8657 -1.6356 -0.2919 0
M  V30 7 C -0.1063 0.5123 0.581 0
M  V30 8 O -2.825 -3.4587 -1.4209 0
M  V30 9 O -3.8167 -1.4435 -2.5662 0
M  V30 10 N -4.5643 -2.1319 -0.2623 0
M  V30 11 C 0.1172 -0.8388 0.3016 0
M  V30 12 N 0.8782 1.2922 1.1604 0
M  V30 13 C 1.4067 -1.4206 0.722 0
M  V30 14 C 2.2598 0.8732 1.1129 0 CFG=1
M  V30 15 O 1.6277 -2.6227 0.6481 0
M  V30 16 N 2.3281 -0.5541 1.238 0
M  V30 17 C 2.9371 1.3485 -0.1799 0
M  V30 18 C 3.0533 2.8644 -0.2626 0
M  V30 19 H -1.5567 2.0995 0.4909 0
M  V30 20 H -0.6554 -2.6857 -0.4889 0
M  V30 21 H -4.7183 -3.0896 0.0555 0
M  V30 22 H -5.3955 -1.6877 -0.6555 0
M  V30 23 H 0.6859 2.2599 1.3838 0
M  V30 24 H 2.7904 1.2891 1.9766 0
M  V30 25 H 3.1828 -0.9818 1.5645 0
M  V30 26 H 2.3957 0.9825 -1.0612 0
M  V30 27 H 3.9457 0.9199 -0.237 0
M  V30 28 H 3.5959 3.1509 -1.169 0
M  V30 29 H 2.0683 3.3398 -0.299 0
M  V30 30 H 3.5984 3.2636 0.5985 0
M  V30 END ATOM
M  V30 BEGIN BOND
M  V30 1 1 1 2
M  V30 2 2 2 3
M  V30 3 1 2 4
M  V30 4 1 3 5
M  V30 5 1 3 6
M  V30 6 2 4 7
M  V30 7 2 5 8
M  V30 8 2 5 9
M  V30 9 1 5 10
M  V30 10 2 6 11
M  V30 11 1 7 12
M  V30 12 1 11 13
M  V30 13 1 12 14
M  V30 14 2 13 15
M  V30 15 1 13 16
M  V30 16 1 14 17
M  V30 17 1 17 18
M  V30 18 1 7 11
M  V30 19 1 14 16
M  V30 20 1 4 19
M  V30 21 1 6 20
M  V30 22 1 10 21
M  V30 23 1 10 22
M  V30 24 1 12 23
M  V30 25 1 14 24
M  V30 26 1 16 25
M  V30 27 1 17 26
M  V30 28 1 17 27
M  V30 29 1 18 28
M  V30 30 1 18 29
M  V30 31 1 18 30
M  V30 END BOND
M  V30 BEGIN COLLECTION
M  V30 MDLV30/STERAC1 ATOMS=(1 14)
M  V30 END COLLECTION
M  V30 END CTAB
M  END
>  <NO.>
5183

>  <Name>
quinethazone

>  <SMILES>
CCC1NC(=O)c2cc(S(N)(=O)=O)c(Cl)cc2N1

>  <logBB>


>  <Class>
-1

>  <MW>
289.03

>  <nHBAcc>
4

>  <nHBDon>
3

>  <SLogP>
0.88

>  <TopoPSA>
101.29

>  <MMFF94 Energy>
-138.53

$$$$
CCC1OC(=O)CC(O)C(C)C(OC2OC(C)CC(N(C)C)C2O)C(CC=O)CC(C)C(=O)C=CC2(C)OC2C1C
Actelion Java MolfileCreator 2.0

  0  0  0  0  0  0              0 V3000
M  V30 BEGIN CTAB
M  V30 COUNTS 92 94 0 0 0
M  V30 BEGIN ATOM
M  V30 1 O -4.5245 -1.2684 0.8719 0
M  V30 2 C -4.0578 -0.8794 -0.2007 0
M  V30 3 C -4.0931 -1.8255 -1.3514 0
M  V30 4 C -3.4429 0.5099 -0.3567 0
M  V30 5 C -3.7811 -1.5301 -2.6227 0
M  V30 6 C -2.707 0.9525 0.929 0
M  V30 7 C -4.5552 1.4979 -0.702 0
M  V30 8 C -3.7278 -2.4834 -3.7471 0
M  V30 9 C -1.4269 0.1143 1.2294 0
M  V30 10 O -2.9187 -2.2132 -4.9026 0
M  V30 11 C -2.4318 -3.2533 -4.0541 0
M  V30 12 C -5.0383 -3.1229 -4.1331 0
M  V30 13 C -0.1148 0.9763 1.1582 0
M  V30 14 C -1.5863 -0.6733 2.5464 0
M  V30 15 C -1.0508 -3.0488 -3.463 0
M  V30 16 O 0.9991 0.1686 1.5685 0
M  V30 17 C 0.1526 1.4679 -0.3057 0
M  V30 18 C -1.8113 0.1618 3.785 0
M  V30 19 C -0.2695 -1.7551 -3.8256 0
M  V30 20 C -1.0566 -3.2872 -1.9488 0
M  V30 21 C 1.6088 0.5502 2.8059 0
M  V30 22 C 1.0491 0.5286 -1.1662 0
M  V30 23 C 0.7371 2.8885 -0.3149 0
M  V30 24 O -1.5475 1.3571 3.8761 0
M  V30 25 O -1.0175 -0.5934 -3.3915 0
M  V30 26 C 0.0654 -1.5866 -5.3201 0
M  V30 27 O 2.3979 -0.5747 3.2231 0
M  V30 28 C 2.5426 1.7728 2.6348 0
M  V30 29 O 0.8079 -0.8482 -0.8825 0
M  V30 30 C 0.9351 0.7327 -2.6808 0
M  V30 31 C -0.488 0.6275 -3.1657 0
M  V30 32 C 0.8646 -2.7344 -5.9144 0
M  V30 33 C 2.9806 -0.3843 4.5161 0
M  V30 34 O 3.5158 1.4714 1.6143 0
M  V30 35 C 3.2219 2.0661 4.001 0
M  V30 36 O -1.1927 1.6312 -3.2714 0
M  V30 37 C 3.9484 0.8026 4.5002 0
M  V30 38 C 3.7019 -1.6718 4.8914 0
M  V30 39 N 4.1017 3.2562 4.1095 0
M  V30 40 C 5.1832 3.3133 3.1255 0
M  V30 41 C 3.3337 4.503 4.0636 0
M  V30 42 H -4.3668 -2.8391 -1.0738 0
M  V30 43 H -2.7148 0.4955 -1.1697 0
M  V30 44 H -3.5318 -0.5092 -2.9019 0
M  V30 45 H -2.4399 2.013 0.8378 0
M  V30 46 H -3.4093 0.9011 1.7703 0
M  V30 47 H -5.298 1.5566 0.1014 0
M  V30 48 H -4.1483 2.5014 -0.8646 0
M  V30 49 H -5.0821 1.1974 -1.6138 0
M  V30 50 H -1.3334 -0.6624 0.4605 0
M  V30 51 H -2.5527 -4.2774 -4.3946 0
M  V30 52 H -5.4073 -3.765 -3.3265 0
M  V30 53 H -5.7937 -2.3574 -4.3412 0
M  V30 54 H -4.9384 -3.7433 -5.0308 0
M  V30 55 H -0.2284 1.8445 1.8172 0
M  V30 56 H -2.4525 -1.3391 2.4629 0
M  V30 57 H -0.7204 -1.3174 2.7313 0
M  V30 58 H -0.4554 -3.8816 -3.8607 0
M  V30 59 H -0.8205 1.5692 -0.7866 0
M  V30 60 H -2.1877 -0.3954 4.6604 0
M  V30 61 H 0.6753 -1.8066 -3.2759 0
M  V30 62 H -0.0395 -3.4843 -1.592 0
M  V30 63 H -1.4266 -2.4215 -1.3966 0
M  V30 64 H -1.6735 -4.1528 -1.685 0
M  V30 65 H 0.844 0.7352 3.5635 0
M  V30 66 H 2.099 0.7046 -0.8986 0
M  V30 67 H 0.7213 3.3104 -1.325 0
M  V30 68 H 0.1508 3.559 0.3222 0
M  V30 69 H 1.7734 2.903 0.0311 0
M  V30 70 H -0.8413 -1.4246 -5.9115 0
M  V30 71 H 0.6454 -0.6634 -5.4454 0
M  V30 72 H 1.974 2.6421 2.297 0
M  V30 73 H 1.0426 -0.9617 0.0646 0
M  V30 74 H 1.2949 1.7321 -2.9543 0
M  V30 75 H 1.5804 0.043 -3.2296 0
M  V30 76 H 1.7574 -2.9439 -5.3171 0
M  V30 77 H 0.266 -3.6472 -5.9826 0
M  V30 78 H 1.1887 -2.4793 -6.9286 0
M  V30 79 H 2.1774 -0.2114 5.2438 0
M  V30 80 H 3.6347 0.5012 1.6372 0
M  V30 81 H 2.4085 2.2326 4.7236 0
M  V30 82 H 4.3519 0.9658 5.5072 0
M  V30 83 H 4.7931 0.5666 3.8425 0
M  V30 84 H 3.0009 -2.5135 4.8952 0
M  V30 85 H 4.162 -1.5966 5.8813 0
M  V30 86 H 4.4795 -1.9148 4.1587 0
M  V30 87 H 5.8779 4.1203 3.3872 0
M  V30 88 H 5.7799 2.3968 3.1182 0
M  V30 89 H 4.8235 3.511 2.1105 0
M  V30 90 H 2.5629 4.5141 4.8422 0
M  V30 91 H 3.9852 5.3615 4.2631 0
M  V30 92 H 2.8489 4.6615 3.0943 0
M  V30 END ATOM
M  V30 BEGIN BOND
M  V30 1 2 1 2
M  V30 2 1 2 3
M  V30 3 1 2 4
M  V30 4 2 3 5
M  V30 5 1 4 6
M  V30 6 1 4 7
M  V30 7 1 5 8
M  V30 8 1 6 9
M  V30 9 1 8 10
M  V30 10 1 8 11
M  V30 11 1 8 12
M  V30 12 1 9 13
M  V30 13 1 9 14
M  V30 14 1 11 15
M  V30 15 1 13 16
M  V30 16 1 13 17
M  V30 17 1 14 18
M  V30 18 1 15 19
M  V30 19 1 15 20
M  V30 20 1 16 21
M  V30 21 1 17 22
M  V30 22 1 17 23
M  V30 23 2 18 24
M  V30 24 1 19 25
M  V30 25 1 19 26
M  V30 26 1 21 27
M  V30 27 1 21 28
M  V30 28 1 22 29
M  V30 29 1 22 30
M  V30 30 1 25 31
M  V30 31 1 26 32
M  V30 32 1 27 33
M  V30 33 1 28 34
M  V30 34 1 28 35
M  V30 35 2 31 36
M  V30 36 1 33 37
M  V30 37 1 33 38
M  V30 38 1 35 39
M  V30 39 1 39 40
M  V30 40 1 39 41
M  V30 41 1 10 11
M  V30 42 1 30 31
M  V30 43 1 35 37
M  V30 44 1 3 42
M  V30 45 1 4 43
M  V30 46 1 5 44
M  V30 47 1 6 45
M  V30 48 1 6 46
M  V30 49 1 7 47
M  V30 50 1 7 48
M  V30 51 1 7 49
M  V30 52 1 9 50
M  V30 53 1 11 51
M  V30 54 1 12 52
M  V30 55 1 12 53
M  V30 56 1 12 54
M  V30 57 1 13 55
M  V30 58 1 14 56
M  V30 59 1 14 57
M  V30 60 1 15 58
M  V30 61 1 17 59
M  V30 62 1 18 60
M  V30 63 1 19 61
M  V30 64 1 20 62
M  V30 65 1 20 63
M  V30 66 1 20 64
M  V30 67 1 21 65
M  V30 68 1 22 66
M  V30 69 1 23 67
M  V30 70 1 23 68
M  V30 71 1 23 69
M  V30 72 1 26 70
M  V30 73 1 26 71
M  V30 74 1 28 72
M  V30 75 1 29 73
M  V30 76 1 30 74
M  V30 77 1 30 75
M  V30 78 1 32 76
M  V30 79 1 32 77
M  V30 80 1 32 78
M  V30 81 1 33 79
M  V30 82 1 34 80
M  V30 83 1 35 81
M  V30 84 1 37 82
M  V30 85 1 37 83
M  V30 86 1 38 84
M  V30 87 1 38 85
M  V30 88 1 38 86
M  V30 89 1 40 87
M  V30 90 1 40 88
M  V30 91 1 40 89
M  V30 92 1 41 90
M  V30 93 1 41 91
M  V30 94 1 41 92
M  V30 END BOND
M  V30 END CTAB
M  END
>  <NO.>
5184

>  <Name>
rosaramicin

>  <SMILES>
CCC1OC(=O)CC(O)C(C)C(OC2OC(C)CC(N(C)C)C2O)C(CC=O)CC(C)C(=O)C=CC2(C)OC2C1C

>  <logBB>


>  <Class>
-1

>  <MW>
581.36

>  <nHBAcc>
10

>  <nHBDon>
2

>  <SLogP>
2.67

>  <TopoPSA>
135.13

>  <MMFF94 Energy>
118.1

$$$$
CCCC(=O)N1CCCN(c2nc(N)c3cc(OC)c(OC)cc3n2)CC1
Actelion Java MolfileCreator 2.0

  0  0  0  0  0  0              0 V3000
M  V30 BEGIN CTAB
M  V30 COUNTS 54 56 0 0 0
M  V30 BEGIN ATOM
M  V30 1 O -4.2592 1.8124 -1.1817 0
M  V30 2 C -3.8121 0.9427 -1.9302 0
M  V30 3 N -2.5653 0.3524 -1.7162 0
M  V30 4 C -4.6094 0.4514 -3.132 0
M  V30 5 C -1.7365 0.8919 -0.6233 0
M  V30 6 C -2.0648 -0.7749 -2.5084 0
M  V30 7 C -5.8326 1.3234 -3.4129 0
M  V30 8 C -1.8229 0.0221 0.6417 0
M  V30 9 C -0.9799 -1.6581 -1.8886 0
M  V30 10 C -6.5997 0.8322 -4.6299 0
M  V30 11 N -0.9755 -1.1627 0.5138 0
M  V30 12 C -1.3357 -2.1577 -0.4863 0
M  V30 13 C 0.3412 -1.0856 0.9321 0
M  V30 14 N 1.1684 -2.1013 0.6524 0
M  V30 15 N 0.747 0.0091 1.5899 0
M  V30 16 C 2.4394 -2.0203 1.0654 0
M  V30 17 C 2.0228 0.0984 1.9775 0
M  V30 18 N 3.2255 -3.1169 0.7399 0
M  V30 19 C 2.9528 -0.9069 1.731 0
M  V30 20 C 2.4376 1.2416 2.6495 0
M  V30 21 C 4.2995 -0.7448 2.1437 0
M  V30 22 C 3.7605 1.4142 3.0749 0
M  V30 23 C 4.7064 0.4103 2.8125 0
M  V30 24 O 4.2236 2.5217 3.7412 0
M  V30 25 O 5.9838 0.6495 3.2492 0
M  V30 26 C 3.2902 3.5496 4.0433 0
M  V30 27 C 6.9847 -0.3047 2.9259 0
M  V30 28 H -4.9372 -0.5744 -2.9304 0
M  V30 29 H -3.9584 0.447 -4.0131 0
M  V30 30 H -0.7086 1.0001 -0.9875 0
M  V30 31 H -2.0825 1.9 -0.3697 0
M  V30 32 H -1.6858 -0.3533 -3.4471 0
M  V30 33 H -2.9109 -1.4172 -2.7734 0
M  V30 34 H -6.5002 1.3248 -2.5429 0
M  V30 35 H -5.5212 2.3622 -3.5758 0
M  V30 36 H -1.5619 0.6172 1.5249 0
M  V30 37 H -2.8606 -0.2976 0.8024 0
M  V30 38 H -0.0212 -1.1259 -1.8888 0
M  V30 39 H -0.8469 -2.5262 -2.5463 0
M  V30 40 H -7.471 1.4694 -4.8114 0
M  V30 41 H -5.9705 0.8542 -5.5254 0
M  V30 42 H -6.9533 -0.1931 -4.483 0
M  V30 43 H -2.409 -2.3778 -0.4232 0
M  V30 44 H -0.8354 -3.1142 -0.2914 0
M  V30 45 H 2.6998 -3.8197 0.2334 0
M  V30 46 H 3.863 -3.4575 1.4441 0
M  V30 47 H 1.6857 2.0035 2.8297 0
M  V30 48 H 5.007 -1.5346 1.9186 0
M  V30 49 H 2.88 3.9911 3.1292 0
M  V30 50 H 3.8243 4.3384 4.582 0
M  V30 51 H 2.4939 3.1808 4.6983 0
M  V30 52 H 6.7807 -1.2671 3.4065 0
M  V30 53 H 7.9381 0.0652 3.3152 0
M  V30 54 H 7.0894 -0.4173 1.8417 0
M  V30 END ATOM
M  V30 BEGIN BOND
M  V30 1 2 1 2
M  V30 2 1 2 3
M  V30 3 1 2 4
M  V30 4 1 3 5
M  V30 5 1 3 6
M  V30 6 1 4 7
M  V30 7 1 5 8
M  V30 8 1 6 9
M  V30 9 1 7 10
M  V30 10 1 8 11
M  V30 11 1 9 12
M  V30 12 1 11 13
M  V30 13 1 13 14
M  V30 14 2 13 15
M  V30 15 2 14 16
M  V30 16 1 15 17
M  V30 17 1 16 18
M  V30 18 1 16 19
M  V30 19 2 17 20
M  V30 20 2 19 21
M  V30 21 1 20 22
M  V30 22 1 21 23
M  V30 23 1 22 24
M  V30 24 1 23 25
M  V30 25 1 24 26
M  V30 26 1 25 27
M  V30 27 1 11 12
M  V30 28 1 17 19
M  V30 29 2 22 23
M  V30 30 1 4 28
M  V30 31 1 4 29
M  V30 32 1 5 30
M  V30 33 1 5 31
M  V30 34 1 6 32
M  V30 35 1 6 33
M  V30 36 1 7 34
M  V30 37 1 7 35
M  V30 38 1 8 36
M  V30 39 1 8 37
M  V30 40 1 9 38
M  V30 41 1 9 39
M  V30 42 1 10 40
M  V30 43 1 10 41
M  V30 44 1 10 42
M  V30 45 1 12 43
M  V30 46 1 12 44
M  V30 47 1 18 45
M  V30 48 1 18 46
M  V30 49 1 20 47
M  V30 50 1 21 48
M  V30 51 1 26 49
M  V30 52 1 26 50
M  V30 53 1 26 51
M  V30 54 1 27 52
M  V30 55 1 27 53
M  V30 56 1 27 54
M  V30 END BOND
M  V30 END CTAB
M  END
>  <NO.>
5185

>  <Name>
bunazosin

>  <SMILES>
CCCC(=O)N1CCCN(c2nc(N)c3cc(OC)c(OC)cc3n2)CC1

>  <logBB>


>  <Class>
-1

>  <MW>
373.21

>  <nHBAcc>
7

>  <nHBDon>
1

>  <SLogP>
2.07

>  <TopoPSA>
93.81

>  <MMFF94 Energy>
-63.214

$$$$
CCCC(=O)Nc1c(I)cc(I)c(CC(CC)C(=O)O)c1I
Actelion Java MolfileCreator 2.0

  0  0  0  0  0  0              0 V3000
M  V30 BEGIN CTAB
M  V30 COUNTS 40 40 0 0 0
M  V30 BEGIN ATOM
M  V30 1 I 1.2461 1.4124 -1.5786 0
M  V30 2 C -0.6521 0.5578 -1.019 0
M  V30 3 C -0.8026 -0.8426 -1.1913 0
M  V30 4 C -1.7136 1.3634 -0.5219 0
M  V30 5 N 0.2897 -1.6185 -1.6378 0
M  V30 6 C -2.0444 -1.4385 -0.9377 0
M  V30 7 C -2.95 0.7155 -0.2841 0
M  V30 8 C -1.5554 2.8512 -0.2478 0
M  V30 9 C 0.9887 -2.4509 -0.7774 0
M  V30 10 I -2.4516 -3.4711 -1.311 0
M  V30 11 C -3.1105 -0.6616 -0.4895 0
M  V30 12 I -4.7198 1.719 0.3175 0
M  V30 13 C -1.4355 3.2521 1.242 0 CFG=1
M  V30 14 O 0.7137 -2.6138 0.4066 0
M  V30 15 C 2.1571 -3.1312 -1.4672 0
M  V30 16 C -1.7088 4.738 1.3417 0
M  V30 17 C -0.068 2.9778 1.8888 0
M  V30 18 C 2.8929 -4.0983 -0.545 0
M  V30 19 O -1.3908 5.5963 0.5357 0
M  V30 20 O -2.3513 5.0708 2.4782 0
M  V30 21 C 0.0417 1.5875 2.499 0
M  V30 22 C 4.0527 -4.7742 -1.2574 0
M  V30 23 H 0.7095 -1.3656 -2.5239 0
M  V30 24 H -2.4136 3.3638 -0.7039 0
M  V30 25 H -0.7193 3.283 -0.8036 0
M  V30 26 H -4.0769 -1.1291 -0.3102 0
M  V30 27 H -2.2139 2.7485 1.8255 0
M  V30 28 H 2.8443 -2.3535 -1.8213 0
M  V30 29 H 1.7733 -3.6668 -2.3437 0
M  V30 30 H 0.7403 3.1366 1.168 0
M  V30 31 H 0.1126 3.6988 2.6973 0
M  V30 32 H 3.2712 -3.5626 0.3339 0
M  V30 33 H 2.1993 -4.8632 -0.1755 0
M  V30 34 H -2.4498 6.0448 2.4251 0
M  V30 35 H -0.0579 0.7987 1.7521 0
M  V30 36 H -0.7286 1.4348 3.2619 0
M  V30 37 H 1.0177 1.4667 2.9802 0
M  V30 38 H 4.5658 -5.4622 -0.5781 0
M  V30 39 H 3.7017 -5.3481 -2.121 0
M  V30 40 H 4.7814 -4.0362 -1.6079 0
M  V30 END ATOM
M  V30 BEGIN BOND
M  V30 1 1 1 2
M  V30 2 2 2 3
M  V30 3 1 2 4
M  V30 4 1 3 5
M  V30 5 1 3 6
M  V30 6 2 4 7
M  V30 7 1 4 8
M  V30 8 1 5 9
M  V30 9 1 6 10
M  V30 10 2 6 11
M  V30 11 1 7 12
M  V30 12 1 8 13
M  V30 13 2 9 14
M  V30 14 1 9 15
M  V30 15 1 13 16
M  V30 16 1 13 17
M  V30 17 1 15 18
M  V30 18 2 16 19
M  V30 19 1 16 20
M  V30 20 1 17 21
M  V30 21 1 18 22
M  V30 22 1 7 11
M  V30 23 1 5 23
M  V30 24 1 8 24
M  V30 25 1 8 25
M  V30 26 1 11 26
M  V30 27 1 13 27
M  V30 28 1 15 28
M  V30 29 1 15 29
M  V30 30 1 17 30
M  V30 31 1 17 31
M  V30 32 1 18 32
M  V30 33 1 18 33
M  V30 34 1 20 34
M  V30 35 1 21 35
M  V30 36 1 21 36
M  V30 37 1 21 37
M  V30 38 1 22 38
M  V30 39 1 22 39
M  V30 40 1 22 40
M  V30 END BOND
M  V30 BEGIN COLLECTION
M  V30 MDLV30/STERAC1 ATOMS=(1 13)
M  V30 END COLLECTION
M  V30 END CTAB
M  END
>  <NO.>
5186

>  <Name>
tyropanoate sodium

>  <SMILES>
CCCC(=O)Nc1c(I)cc(I)c(CC(CC)C(=O)O)c1I

>  <logBB>


>  <Class>
-1

>  <MW>
640.84

>  <nHBAcc>
2

>  <nHBDon>
2

>  <SLogP>
4.89

>  <TopoPSA>
66.4

>  <MMFF94 Energy>
4.6456

$$$$
CCCC(CCC)C(=O)OC1CC2CCC(C1)[N+]2(C)C
Actelion Java MolfileCreator 2.0

  0  0  0  0  0  0              0 V3000
M  V30 BEGIN CTAB
M  V30 COUNTS 52 53 0 0 0
M  V30 BEGIN ATOM
M  V30 1 O -2.4405 0.6293 -0.3933 0
M  V30 2 C -1.4572 1.1684 0.0963 0
M  V30 3 O -0.1819 0.7022 -0.042 0
M  V30 4 C -1.5074 2.4258 0.9459 0
M  V30 5 C -0.035 -0.4806 -0.8483 0
M  V30 6 C -1.0033 2.1425 2.3725 0
M  V30 7 C -0.6977 3.5624 0.2968 0
M  V30 8 C 1.4191 -0.5277 -1.3428 0
M  V30 9 C -0.4427 -1.7274 -0.044 0
M  V30 10 C -1.8789 1.1308 3.1185 0
M  V30 11 C -1.266 3.9915 -1.0593 0
M  V30 12 C 1.8454 -1.9247 -1.8166 0
M  V30 13 C 0.1331 -3.0268 -0.6231 0
M  V30 14 C -1.388 0.916 4.5419 0
M  V30 15 C -0.4816 5.1549 -1.6461 0
M  V30 16 N 1.6718 -2.9357 -0.6661 0 CHG=1
M  V30 17 C 0.8724 -2.453 -2.8839 0
M  V30 18 C -0.2415 -3.1681 -2.108 0
M  V30 19 C 2.3027 -4.3001 -1.0183 0
M  V30 20 C 2.33 -2.5307 0.6542 0
M  V30 21 H -2.5586 2.738 1.004 0
M  V30 22 H -0.6791 -0.3891 -1.7333 0
M  V30 23 H -0.9901 3.0818 2.9401 0
M  V30 24 H 0.0308 1.7767 2.3455 0
M  V30 25 H -0.6984 4.4304 0.9686 0
M  V30 26 H 0.3501 3.2616 0.1727 0
M  V30 27 H 2.1036 -0.1482 -0.5752 0
M  V30 28 H 1.5251 0.1856 -2.1712 0
M  V30 29 H -0.1723 -1.6115 1.0118 0
M  V30 30 H -1.5378 -1.8012 -0.0339 0
M  V30 31 H -2.9157 1.4854 3.1458 0
M  V30 32 H -1.8777 0.1674 2.5968 0
M  V30 33 H -1.2375 3.155 -1.7663 0
M  V30 34 H -2.3155 4.287 -0.9461 0
M  V30 35 H 2.8904 -1.9378 -2.1433 0
M  V30 36 H -0.1521 -3.8971 -0.0228 0
M  V30 37 H -2.026 0.1913 5.0574 0
M  V30 38 H -0.363 0.5319 4.549 0
M  V30 39 H -1.4091 1.8515 5.1101 0
M  V30 40 H -0.9026 5.4461 -2.6135 0
M  V30 41 H -0.5173 6.0262 -0.9843 0
M  V30 42 H 0.5672 4.8823 -1.8 0
M  V30 43 H 1.378 -3.1618 -3.5498 0
M  V30 44 H 0.4779 -1.6558 -3.5232 0
M  V30 45 H -0.2794 -4.2246 -2.3975 0
M  V30 46 H -1.2287 -2.7501 -2.3328 0
M  V30 47 H 2.0768 -4.9962 -0.205 0
M  V30 48 H 3.3829 -4.1566 -1.1167 0
M  V30 49 H 1.8952 -4.6831 -1.9547 0
M  V30 50 H 2.1015 -3.3015 1.3963 0
M  V30 51 H 3.4091 -2.4618 0.4867 0
M  V30 52 H 1.9557 -1.569 1.0038 0
M  V30 END ATOM
M  V30 BEGIN BOND
M  V30 1 2 1 2
M  V30 2 1 2 3
M  V30 3 1 2 4
M  V30 4 1 3 5
M  V30 5 1 4 6
M  V30 6 1 4 7
M  V30 7 1 5 8
M  V30 8 1 5 9
M  V30 9 1 6 10
M  V30 10 1 7 11
M  V30 11 1 8 12
M  V30 12 1 9 13
M  V30 13 1 10 14
M  V30 14 1 11 15
M  V30 15 1 12 16
M  V30 16 1 12 17
M  V30 17 1 13 18
M  V30 18 1 16 19
M  V30 19 1 16 20
M  V30 20 1 13 16
M  V30 21 1 17 18
M  V30 22 1 4 21
M  V30 23 1 5 22
M  V30 24 1 6 23
M  V30 25 1 6 24
M  V30 26 1 7 25
M  V30 27 1 7 26
M  V30 28 1 8 27
M  V30 29 1 8 28
M  V30 30 1 9 29
M  V30 31 1 9 30
M  V30 32 1 10 31
M  V30 33 1 10 32
M  V30 34 1 11 33
M  V30 35 1 11 34
M  V30 36 1 12 35
M  V30 37 1 13 36
M  V30 38 1 14 37
M  V30 39 1 14 38
M  V30 40 1 14 39
M  V30 41 1 15 40
M  V30 42 1 15 41
M  V30 43 1 15 42
M  V30 44 1 17 43
M  V30 45 1 17 44
M  V30 46 1 18 45
M  V30 47 1 18 46
M  V30 48 1 19 47
M  V30 49 1 19 48
M  V30 50 1 19 49
M  V30 51 1 20 50
M  V30 52 1 20 51
M  V30 53 1 20 52
M  V30 END BOND
M  V30 END CTAB
M  END
>  <NO.>
5187

>  <Name>
anisotropine

>  <SMILES>
CCCC(CCC)C(=O)OC1CC2CCC(C1)[N+]2(C)C

>  <logBB>


>  <Class>
-1

>  <MW>
282.24

>  <nHBAcc>
2

>  <nHBDon>
0

>  <SLogP>
3.52

>  <TopoPSA>
26.3

>  <MMFF94 Energy>
21.919

$$$$
CCCC(NC(C)C(=O)N1C(C(=O)O)CC2CCCCC21)C(=O)O
Actelion Java MolfileCreator 2.0

  0  0  0  0  0  0              0 V3000
M  V30 BEGIN CTAB
M  V30 COUNTS 52 53 0 0 0
M  V30 BEGIN ATOM
M  V30 1 O 0.237 0.237 3.1646 0
M  V30 2 C 0.2455 0.4641 1.9634 0
M  V30 3 O -0.8374 0.9917 1.3662 0
M  V30 4 C 1.444 0.2432 1.035 0
M  V30 5 N 1.1886 0.4485 -0.4009 0
M  V30 6 C 2.5177 1.2875 1.3871 0
M  V30 7 C 0.4486 -0.3536 -1.247 0
M  V30 8 C 1.964 1.5678 -0.9245 0
M  V30 9 C 3.1534 1.6363 0.0386 0
M  V30 10 O 0.3339 -0.0831 -2.4482 0
M  V30 11 C -0.221 -1.6313 -0.6735 0
M  V30 12 C 1.1226 2.8494 -0.9707 0
M  V30 13 C 3.9206 2.955 0.012 0
M  V30 14 N -1.6783 -1.5014 -0.8699 0
M  V30 15 C 0.4171 -2.8333 -1.3724 0
M  V30 16 C 1.9882 4.0914 -1.139 0
M  V30 17 C 3.0246 4.1892 -0.0254 0
M  V30 18 C -2.4691 -2.6636 -0.412 0
M  V30 19 C -2.6729 -3.6861 -1.5375 0
M  V30 20 C -3.8597 -2.2024 0.0553 0
M  V30 21 O -2.9076 -4.8756 -1.392 0
M  V30 22 O -2.6181 -3.148 -2.7762 0
M  V30 23 C -3.8626 -1.1806 1.1979 0
M  V30 24 C -3.1869 -1.6805 2.4651 0
M  V30 25 H -1.5179 1.0598 2.0662 0
M  V30 26 H 1.8133 -0.7789 1.1685 0
M  V30 27 H 3.2529 0.8828 2.091 0
M  V30 28 H 2.0752 2.1738 1.8578 0
M  V30 29 H 2.3191 1.3404 -1.9373 0
M  V30 30 H 3.855 0.8262 -0.2075 0
M  V30 31 H -0.0298 -1.7188 0.397 0
M  V30 32 H 0.3985 2.7867 -1.792 0
M  V30 33 H 0.5289 2.9552 -0.054 0
M  V30 34 H 4.5984 3.0156 0.8715 0
M  V30 35 H 4.5533 2.9661 -0.885 0
M  V30 36 H -1.8576 -1.3603 -1.873 0
M  V30 37 H 0.0813 -3.779 -0.9362 0
M  V30 38 H 0.1907 -2.8463 -2.4443 0
M  V30 39 H 1.5083 -2.7974 -1.2741 0
M  V30 40 H 2.4906 4.0638 -2.1135 0
M  V30 41 H 1.3539 4.9851 -1.1299 0
M  V30 42 H 2.5195 4.3149 0.9395 0
M  V30 43 H 3.6415 5.0826 -0.1763 0
M  V30 44 H -1.9529 -3.1763 0.4076 0
M  V30 45 H -4.4406 -3.0805 0.3682 0
M  V30 46 H -4.4099 -1.7716 -0.7925 0
M  V30 47 H -2.7829 -3.9043 -3.3769 0
M  V30 48 H -3.3894 -0.2471 0.8745 0
M  V30 49 H -4.9046 -0.932 1.4339 0
M  V30 50 H -3.3072 -0.9469 3.2689 0
M  V30 51 H -3.628 -2.6249 2.7991 0
M  V30 52 H -2.1141 -1.8326 2.3157 0
M  V30 END ATOM
M  V30 BEGIN BOND
M  V30 1 2 1 2
M  V30 2 1 2 3
M  V30 3 1 2 4
M  V30 4 1 4 5
M  V30 5 1 4 6
M  V30 6 1 5 7
M  V30 7 1 5 8
M  V30 8 1 6 9
M  V30 9 2 7 10
M  V30 10 1 7 11
M  V30 11 1 8 12
M  V30 12 1 9 13
M  V30 13 1 11 14
M  V30 14 1 11 15
M  V30 15 1 12 16
M  V30 16 1 13 17
M  V30 17 1 14 18
M  V30 18 1 18 19
M  V30 19 1 18 20
M  V30 20 2 19 21
M  V30 21 1 19 22
M  V30 22 1 20 23
M  V30 23 1 23 24
M  V30 24 1 8 9
M  V30 25 1 16 17
M  V30 26 1 3 25
M  V30 27 1 4 26
M  V30 28 1 6 27
M  V30 29 1 6 28
M  V30 30 1 8 29
M  V30 31 1 9 30
M  V30 32 1 11 31
M  V30 33 1 12 32
M  V30 34 1 12 33
M  V30 35 1 13 34
M  V30 36 1 13 35
M  V30 37 1 14 36
M  V30 38 1 15 37
M  V30 39 1 15 38
M  V30 40 1 15 39
M  V30 41 1 16 40
M  V30 42 1 16 41
M  V30 43 1 17 42
M  V30 44 1 17 43
M  V30 45 1 18 44
M  V30 46 1 20 45
M  V30 47 1 20 46
M  V30 48 1 22 47
M  V30 49 1 23 48
M  V30 50 1 23 49
M  V30 51 1 24 50
M  V30 52 1 24 51
M  V30 53 1 24 52
M  V30 END BOND
M  V30 END CTAB
M  END
>  <NO.>
5188

>  <Name>
perindoprilat

>  <SMILES>
CCCC(NC(C)C(=O)N1C(C(=O)O)CC2CCCCC21)C(=O)O

>  <logBB>


>  <Class>
-1

>  <MW>
340.2

>  <nHBAcc>
4

>  <nHBDon>
3

>  <SLogP>
1.46

>  <TopoPSA>
106.94

>  <MMFF94 Energy>
73.826

$$$$
CCCC(NC(C)C(=O)N1C(C(=O)O)CC2CCCCC21)C(=O)OCC
Actelion Java MolfileCreator 2.0

  0  0  0  0  0  0              0 V3000
M  V30 BEGIN CTAB
M  V30 COUNTS 58 59 0 0 0
M  V30 BEGIN ATOM
M  V30 1 O -3.2385 1.9737 -0.868 0
M  V30 2 C -2.512 1.5063 -0.0037 0
M  V30 3 O -3.0255 1.1532 1.1894 0
M  V30 4 C -1.0065 1.2661 -0.1518 0
M  V30 5 N -0.3107 0.7363 1.0342 0
M  V30 6 C -0.3293 2.6202 -0.4238 0
M  V30 7 C -0.3915 -0.5338 1.5795 0
M  V30 8 C 0.6709 1.6905 1.5398 0
M  V30 9 C 1.017 2.5137 0.2955 0
M  V30 10 O 0.2799 -0.8358 2.5709 0
M  V30 11 C -1.3126 -1.5723 0.8898 0
M  V30 12 C 0.0883 2.5174 2.6929 0
M  V30 13 C 1.6973 3.8482 0.5848 0
M  V30 14 N -0.5143 -2.6789 0.31 0
M  V30 15 C -2.2527 -2.1614 1.943 0
M  V30 16 C 0.925 3.7567 2.9823 0
M  V30 17 C 1.0668 4.6244 1.7371 0
M  V30 18 C 0.3183 -2.2812 -0.8487 0
M  V30 19 C -0.5552 -2.0562 -2.0938 0
M  V30 20 C 1.3355 -3.3911 -1.1609 0
M  V30 21 O -1.6895 -2.4964 -2.2385 0
M  V30 22 O 0.1073 -1.2803 -2.9989 0
M  V30 23 C 2.3496 -3.6026 -0.033 0
M  V30 24 C -0.6011 -0.9953 -4.2144 0
M  V30 25 C 3.3797 -4.6579 -0.4043 0
M  V30 26 C -1.4798 0.2283 -4.0334 0
M  V30 27 H -3.9769 1.3826 1.1303 0
M  V30 28 H -0.8474 0.5658 -0.9747 0
M  V30 29 H -0.925 3.4519 -0.0294 0
M  V30 30 H -0.2037 2.7952 -1.4977 0
M  V30 31 H 1.5651 1.1642 1.896 0
M  V30 32 H 1.6827 1.9203 -0.3476 0
M  V30 33 H -1.9301 -1.1179 0.1144 0
M  V30 34 H 0.0196 1.8969 3.5946 0
M  V30 35 H -0.9389 2.8285 2.4638 0
M  V30 36 H 2.7464 3.6507 0.8406 0
M  V30 37 H 1.7088 4.4702 -0.3176 0
M  V30 38 H -1.1539 -3.4157 0.0029 0
M  V30 39 H -1.7025 -2.6964 2.7258 0
M  V30 40 H -2.8295 -1.3704 2.4343 0
M  V30 41 H -2.962 -2.862 1.489 0
M  V30 42 H 1.9171 3.4578 3.3417 0
M  V30 43 H 0.4552 4.3382 3.7836 0
M  V30 44 H 0.0832 5.0052 1.4383 0
M  V30 45 H 1.6854 5.499 1.9685 0
M  V30 46 H 0.8565 -1.3532 -0.6259 0
M  V30 47 H 1.8763 -3.1373 -2.082 0
M  V30 48 H 0.8118 -4.3339 -1.3694 0
M  V30 49 H 2.8644 -2.6595 0.1843 0
M  V30 50 H 1.8407 -3.9146 0.8857 0
M  V30 51 H -1.1826 -1.8619 -4.549 0
M  V30 52 H 0.152 -0.7969 -4.9837 0
M  V30 53 H 4.0943 -4.794 0.4133 0
M  V30 54 H 2.8999 -5.622 -0.6006 0
M  V30 55 H 3.9388 -4.3634 -1.298 0
M  V30 56 H -1.9772 0.4907 -4.9712 0
M  V30 57 H -2.2443 0.054 -3.2698 0
M  V30 58 H -0.884 1.0835 -3.6979 0
M  V30 END ATOM
M  V30 BEGIN BOND
M  V30 1 2 1 2
M  V30 2 1 2 3
M  V30 3 1 2 4
M  V30 4 1 4 5
M  V30 5 1 4 6
M  V30 6 1 5 7
M  V30 7 1 5 8
M  V30 8 1 6 9
M  V30 9 2 7 10
M  V30 10 1 7 11
M  V30 11 1 8 12
M  V30 12 1 9 13
M  V30 13 1 11 14
M  V30 14 1 11 15
M  V30 15 1 12 16
M  V30 16 1 13 17
M  V30 17 1 14 18
M  V30 18 1 18 19
M  V30 19 1 18 20
M  V30 20 2 19 21
M  V30 21 1 19 22
M  V30 22 1 20 23
M  V30 23 1 22 24
M  V30 24 1 23 25
M  V30 25 1 24 26
M  V30 26 1 8 9
M  V30 27 1 16 17
M  V30 28 1 3 27
M  V30 29 1 4 28
M  V30 30 1 6 29
M  V30 31 1 6 30
M  V30 32 1 8 31
M  V30 33 1 9 32
M  V30 34 1 11 33
M  V30 35 1 12 34
M  V30 36 1 12 35
M  V30 37 1 13 36
M  V30 38 1 13 37
M  V30 39 1 14 38
M  V30 40 1 15 39
M  V30 41 1 15 40
M  V30 42 1 15 41
M  V30 43 1 16 42
M  V30 44 1 16 43
M  V30 45 1 17 44
M  V30 46 1 17 45
M  V30 47 1 18 46
M  V30 48 1 20 47
M  V30 49 1 20 48
M  V30 50 1 23 49
M  V30 51 1 23 50
M  V30 52 1 24 51
M  V30 53 1 24 52
M  V30 54 1 25 53
M  V30 55 1 25 54
M  V30 56 1 25 55
M  V30 57 1 26 56
M  V30 58 1 26 57
M  V30 59 1 26 58
M  V30 END BOND
M  V30 END CTAB
M  END
>  <NO.>
5189

>  <Name>
82978-68-5

>  <SMILES>
CCCC(NC(C)C(=O)N1C(C(=O)O)CC2CCCCC21)C(=O)OCC

>  <logBB>


>  <Class>
-1

>  <MW>
368.23

>  <nHBAcc>
5

>  <nHBDon>
2

>  <SLogP>
1.94

>  <TopoPSA>
95.94

>  <MMFF94 Energy>
85.686

$$$$
CCCCC(=O)N(Cc1ccc(-c2ccccc2-c2nn[nH]n2)cc1)C(C(=O)O)C(C)C
Actelion Java MolfileCreator 2.0

  0  0  0  0  0  0              0 V3000
M  V30 BEGIN CTAB
M  V30 COUNTS 61 63 0 0 0
M  V30 BEGIN ATOM
M  V30 1 O -0.0792 -1.6662 1.428 0
M  V30 2 C -0.4655 -2.0134 0.3225 0
M  V30 3 O -1.7857 -2.2018 0.0781 0
M  V30 4 C 0.3741 -2.2616 -0.9462 0 CFG=1
M  V30 5 N 1.3742 -1.1703 -1.123 0
M  V30 6 C 0.9217 -3.7128 -1.0193 0
M  V30 7 C 2.5489 -1.1815 -0.3731 0
M  V30 8 C 0.9598 -0.0468 -1.9769 0
M  V30 9 C -0.2189 -4.741 -1.0431 0
M  V30 10 C 1.7926 -3.9225 -2.2642 0
M  V30 11 O 2.8049 -2.068 0.4405 0
M  V30 12 C 3.5489 -0.0585 -0.6254 0
M  V30 13 C -0.1989 0.7244 -1.3858 0
M  V30 14 C 4.8286 -0.2183 0.1986 0
M  V30 15 C -1.4722 0.6607 -1.9685 0
M  V30 16 C -0.0358 1.4592 -0.2051 0
M  V30 17 C 5.8914 0.8338 -0.1235 0
M  V30 18 C -2.5677 1.2761 -1.3542 0
M  V30 19 C -1.1297 2.0766 0.4031 0
M  V30 20 C 5.476 2.2493 0.2462 0
M  V30 21 C -2.4149 1.9709 -0.1473 0
M  V30 22 C -3.5766 2.5334 0.5596 0
M  V30 23 C -4.0579 1.9827 1.7702 0
M  V30 24 C -4.2194 3.6718 0.0413 0
M  V30 25 C -3.4657 0.7851 2.3365 0
M  V30 26 C -5.1357 2.5832 2.4398 0
M  V30 27 C -5.2987 4.2557 0.7089 0
M  V30 28 N -3.6253 -0.4608 1.7749 0
M  V30 29 N -2.6912 0.7669 3.434 0
M  V30 30 C -5.7534 3.7151 1.9087 0
M  V30 31 N -2.9231 -1.3036 2.5179 0
M  V30 32 N -2.3395 -0.5295 3.4483 0
M  V30 33 H -2.256 -1.8934 0.8931 0
M  V30 34 H -0.3143 -2.1579 -1.7971 0
M  V30 35 H 1.5227 -3.9401 -0.1326 0
M  V30 36 H 1.7767 0.6527 -2.1669 0
M  V30 37 H 0.6908 -0.4633 -2.9553 0
M  V30 38 H 0.1764 -5.7573 -1.1474 0
M  V30 39 H -0.7969 -4.7154 -0.1142 0
M  V30 40 H -0.9028 -4.5583 -1.8789 0
M  V30 41 H 2.1383 -4.9601 -2.3257 0
M  V30 42 H 2.6828 -3.2873 -2.2474 0
M  V30 43 H 1.2334 -3.6993 -3.1793 0
M  V30 44 H 3.0722 0.8921 -0.3734 0
M  V30 45 H 3.8068 -0.0601 -1.6904 0
M  V30 46 H 5.2592 -1.2097 0.0093 0
M  V30 47 H 4.5879 -0.1844 1.2685 0
M  V30 48 H -1.635 0.0936 -2.8824 0
M  V30 49 H 0.9328 1.52 0.2833 0
M  V30 50 H 6.8054 0.5839 0.4282 0
M  V30 51 H 6.1443 0.7946 -1.1893 0
M  V30 52 H -3.5539 1.1727 -1.8026 0
M  V30 53 H -0.9794 2.6104 1.3404 0
M  V30 54 H 6.3103 2.9394 0.085 0
M  V30 55 H 4.6384 2.595 -0.3666 0
M  V30 56 H 5.184 2.3111 1.2992 0
M  V30 57 H -3.8671 4.1198 -0.8861 0
M  V30 58 H -5.4988 2.165 3.3766 0
M  V30 59 H -5.7785 5.139 0.2944 0
M  V30 60 H -6.5893 4.1738 2.4312 0
M  V30 61 H -1.668 -0.9064 4.1129 0
M  V30 END ATOM
M  V30 BEGIN BOND
M  V30 1 2 1 2
M  V30 2 1 2 3
M  V30 3 1 2 4
M  V30 4 1 4 5
M  V30 5 1 4 6
M  V30 6 1 5 7
M  V30 7 1 5 8
M  V30 8 1 6 9
M  V30 9 1 6 10
M  V30 10 2 7 11
M  V30 11 1 7 12
M  V30 12 1 8 13
M  V30 13 1 12 14
M  V30 14 2 13 15
M  V30 15 1 13 16
M  V30 16 1 14 17
M  V30 17 1 15 18
M  V30 18 2 16 19
M  V30 19 1 17 20
M  V30 20 2 18 21
M  V30 21 1 21 22
M  V30 22 2 22 23
M  V30 23 1 22 24
M  V30 24 1 23 25
M  V30 25 1 23 26
M  V30 26 2 24 27
M  V30 27 1 25 28
M  V30 28 2 25 29
M  V30 29 2 26 30
M  V30 30 2 28 31
M  V30 31 1 29 32
M  V30 32 1 19 21
M  V30 33 1 27 30
M  V30 34 1 31 32
M  V30 35 1 3 33
M  V30 36 1 4 34
M  V30 37 1 6 35
M  V30 38 1 8 36
M  V30 39 1 8 37
M  V30 40 1 9 38
M  V30 41 1 9 39
M  V30 42 1 9 40
M  V30 43 1 10 41
M  V30 44 1 10 42
M  V30 45 1 10 43
M  V30 46 1 12 44
M  V30 47 1 12 45
M  V30 48 1 14 46
M  V30 49 1 14 47
M  V30 50 1 15 48
M  V30 51 1 16 49
M  V30 52 1 17 50
M  V30 53 1 17 51
M  V30 54 1 18 52
M  V30 55 1 19 53
M  V30 56 1 20 54
M  V30 57 1 20 55
M  V30 58 1 20 56
M  V30 59 1 24 57
M  V30 60 1 26 58
M  V30 61 1 27 59
M  V30 62 1 30 60
M  V30 63 1 32 61
M  V30 END BOND
M  V30 BEGIN COLLECTION
M  V30 MDLV30/STERAC1 ATOMS=(1 4)
M  V30 END COLLECTION
M  V30 END CTAB
M  END
>  <NO.>
5191

>  <Name>
l-valsartan

>  <SMILES>
CCCCC(=O)N(Cc1ccc(-c2ccccc2-c2nn[nH]n2)cc1)C(C(=O)O)C(C)C

>  <logBB>


>  <Class>
-1

>  <MW>
435.23

>  <nHBAcc>
5

>  <nHBDon>
2

>  <SLogP>
4.16

>  <TopoPSA>
112.07

>  <MMFF94 Energy>
59.987

$$$$
CCCCC1C(=O)N(c2ccccc2)N(c2ccc(O)cc2)C1=O
Actelion Java MolfileCreator 2.0

  0  0  0  0  0  0              0 V3000
M  V30 BEGIN CTAB
M  V30 COUNTS 44 46 0 0 0
M  V30 BEGIN ATOM
M  V30 1 O 0.397 1.1121 2.5434 0
M  V30 2 C 0.4435 0.4409 1.5219 0
M  V30 3 N 0.5281 0.8778 0.1984 0
M  V30 4 C 0.3646 -1.0677 1.4859 0 CFG=2
M  V30 5 N 0.5604 -0.2153 -0.6824 0
M  V30 6 C 0.2593 2.2133 -0.1821 0
M  V30 7 C 0.4409 -1.418 0.018 0
M  V30 8 C -0.933 -1.5598 2.1298 0
M  V30 9 C 0.9987 -0.1552 -2.0256 0
M  V30 10 C 0.9061 3.271 0.472 0
M  V30 11 C -0.6551 2.5015 -1.2038 0
M  V30 12 O 0.4411 -2.558 -0.4238 0
M  V30 13 C -0.8578 -3.035 2.5371 0
M  V30 14 C 2.0571 0.682 -2.4013 0
M  V30 15 C 0.3747 -0.943 -3.0006 0
M  V30 16 C 0.6523 4.5959 0.1054 0
M  V30 17 C -0.9064 3.825 -1.5729 0
M  V30 18 C -2.1552 -3.492 3.2055 0
M  V30 19 C 2.4735 0.7404 -3.7334 0
M  V30 20 C 0.7936 -0.885 -4.3317 0
M  V30 21 C -0.2521 4.8602 -0.9168 0
M  V30 22 C -2.0863 -4.9551 3.6133 0
M  V30 23 C 1.8405 -0.0414 -4.6977 0
M  V30 24 O -0.5309 6.1358 -1.3072 0
M  V30 25 H 1.2545 -1.4595 1.991 0
M  V30 26 H -1.157 -0.9636 3.0235 0
M  V30 27 H -1.775 -1.4142 1.4404 0
M  V30 28 H 1.6129 3.0737 1.2752 0
M  V30 29 H -1.1881 1.7068 -1.7187 0
M  V30 30 H -0.019 -3.1815 3.2287 0
M  V30 31 H -0.6649 -3.66 1.6584 0
M  V30 32 H 2.5744 1.2914 -1.6652 0
M  V30 33 H -0.4425 -1.6098 -2.7346 0
M  V30 34 H 1.164 5.3979 0.6282 0
M  V30 35 H -1.6143 4.0462 -2.3671 0
M  V30 36 H -2.3528 -2.8804 4.0937 0
M  V30 37 H -2.9979 -3.3493 2.5189 0
M  V30 38 H 3.2939 1.3949 -4.0173 0
M  V30 39 H 0.3037 -1.5016 -5.0812 0
M  V30 40 H -3.0236 -5.2605 4.0891 0
M  V30 41 H -1.9222 -5.5978 2.7425 0
M  V30 42 H -1.2725 -5.126 4.3253 0
M  V30 43 H 2.1665 0.0025 -5.7339 0
M  V30 44 H -0.0297 6.7503 -0.746 0
M  V30 END ATOM
M  V30 BEGIN BOND
M  V30 1 2 1 2
M  V30 2 1 2 3
M  V30 3 1 2 4
M  V30 4 1 3 5
M  V30 5 1 3 6
M  V30 6 1 4 7
M  V30 7 1 4 8
M  V30 8 1 5 9
M  V30 9 2 6 10
M  V30 10 1 6 11
M  V30 11 2 7 12
M  V30 12 1 8 13
M  V30 13 2 9 14
M  V30 14 1 9 15
M  V30 15 1 10 16
M  V30 16 2 11 17
M  V30 17 1 13 18
M  V30 18 1 14 19
M  V30 19 2 15 20
M  V30 20 2 16 21
M  V30 21 1 18 22
M  V30 22 2 19 23
M  V30 23 1 21 24
M  V30 24 1 5 7
M  V30 25 1 17 21
M  V30 26 1 20 23
M  V30 27 1 4 25
M  V30 28 1 8 26
M  V30 29 1 8 27
M  V30 30 1 10 28
M  V30 31 1 11 29
M  V30 32 1 13 30
M  V30 33 1 13 31
M  V30 34 1 14 32
M  V30 35 1 15 33
M  V30 36 1 16 34
M  V30 37 1 17 35
M  V30 38 1 18 36
M  V30 39 1 18 37
M  V30 40 1 19 38
M  V30 41 1 20 39
M  V30 42 1 22 40
M  V30 43 1 22 41
M  V30 44 1 22 42
M  V30 45 1 23 43
M  V30 46 1 24 44
M  V30 END BOND
M  V30 BEGIN COLLECTION
M  V30 MDLV30/STERAC1 ATOMS=(1 4)
M  V30 END COLLECTION
M  V30 END CTAB
M  END
>  <NO.>
5192

>  <Name>
oxyphenbutazone

>  <SMILES>
CCCCC1C(=O)N(c2ccccc2)N(c2ccc(O)cc2)C1=O

>  <logBB>


>  <Class>
-1

>  <MW>
324.15

>  <nHBAcc>
3

>  <nHBDon>
1

>  <SLogP>
3.49

>  <TopoPSA>
60.85

>  <MMFF94 Energy>
39.244

$$$$
CCCCCN(C)CCC(O)(P(=O)(O)O)P(=O)(O)O
Actelion Java MolfileCreator 2.0

  0  0  0  0  0  0              0 V3000
M  V30 BEGIN CTAB
M  V30 COUNTS 42 41 0 0 0
M  V30 BEGIN ATOM
M  V30 1 P 1.6089 0.402 -3.7034 0
M  V30 2 O 1.6512 -0.4183 -4.9508 0
M  V30 3 O 2.8968 1.3605 -3.6187 0
M  V30 4 O 0.4421 1.4996 -3.7463 0
M  V30 5 C 1.4941 -0.4772 -2.0947 0
M  V30 6 P 0.1433 -1.7043 -2.12 0
M  V30 7 O 2.732 -1.2336 -1.9604 0
M  V30 8 C 1.3687 0.5335 -0.9454 0
M  V30 9 O -1.2313 -1.2967 -2.5271 0
M  V30 10 O 0.1272 -2.468 -0.708 0
M  V30 11 O 0.7082 -2.9007 -3.0361 0
M  V30 12 C 1.8044 0.003 0.4223 0
M  V30 13 N 1.4978 1.0093 1.4602 0
M  V30 14 C 0.341 0.631 2.295 0
M  V30 15 C 2.6675 1.2231 2.319 0
M  V30 16 C -0.9838 0.5784 1.5228 0
M  V30 17 C -2.1587 0.2819 2.4586 0
M  V30 18 C -3.4776 0.2168 1.6887 0
M  V30 19 C -4.6482 -0.0785 2.6127 0
M  V30 20 H 3.1798 1.7003 -4.4866 0
M  V30 21 H 0.3046 1.8879 -4.6301 0
M  V30 22 H 2.6487 -1.9848 -2.5863 0
M  V30 23 H 0.3372 0.9015 -0.923 0
M  V30 24 H 1.9958 1.4064 -1.1674 0
M  V30 25 H -0.6562 -3.036 -0.5887 0
M  V30 26 H 0.0113 -3.5211 -3.324 0
M  V30 27 H 1.3502 -0.9604 0.6642 0
M  V30 28 H 2.885 -0.1869 0.3764 0
M  V30 29 H 0.2251 1.378 3.0915 0
M  V30 30 H 0.5211 -0.3327 2.7897 0
M  V30 31 H 2.4659 2.0035 3.0615 0
M  V30 32 H 2.9633 0.3096 2.8476 0
M  V30 33 H 3.5198 1.575 1.7266 0
M  V30 34 H -0.9464 -0.1985 0.7516 0
M  V30 35 H -1.1543 1.5369 1.0171 0
M  V30 36 H -2.2212 1.0597 3.2294 0
M  V30 37 H -1.9864 -0.6709 2.9736 0
M  V30 38 H -3.6563 1.1685 1.1748 0
M  V30 39 H -3.4216 -0.5618 0.9191 0
M  V30 40 H -5.5808 -0.1206 2.0415 0
M  V30 41 H -4.5158 -1.0403 3.1184 0
M  V30 42 H -4.752 0.6996 3.3756 0
M  V30 END ATOM
M  V30 BEGIN BOND
M  V30 1 2 1 2
M  V30 2 1 1 3
M  V30 3 1 1 4
M  V30 4 1 1 5
M  V30 5 1 5 6
M  V30 6 1 5 7
M  V30 7 1 5 8
M  V30 8 2 6 9
M  V30 9 1 6 10
M  V30 10 1 6 11
M  V30 11 1 8 12
M  V30 12 1 12 13
M  V30 13 1 13 14
M  V30 14 1 13 15
M  V30 15 1 14 16
M  V30 16 1 16 17
M  V30 17 1 17 18
M  V30 18 1 18 19
M  V30 19 1 3 20
M  V30 20 1 4 21
M  V30 21 1 7 22
M  V30 22 1 8 23
M  V30 23 1 8 24
M  V30 24 1 10 25
M  V30 25 1 11 26
M  V30 26 1 12 27
M  V30 27 1 12 28
M  V30 28 1 14 29
M  V30 29 1 14 30
M  V30 30 1 15 31
M  V30 31 1 15 32
M  V30 32 1 15 33
M  V30 33 1 16 34
M  V30 34 1 16 35
M  V30 35 1 17 36
M  V30 36 1 17 37
M  V30 37 1 18 38
M  V30 38 1 18 39
M  V30 39 1 19 40
M  V30 40 1 19 41
M  V30 41 1 19 42
M  V30 END BOND
M  V30 END CTAB
M  END
>  <NO.>
5197

>  <Name>
ibandronate

>  <SMILES>
CCCCCN(C)CCC(O)(P(=O)(O)O)P(=O)(O)O

>  <logBB>


>  <Class>
-1

>  <MW>
319.09

>  <nHBAcc>
4

>  <nHBDon>
5

>  <SLogP>
0.5

>  <TopoPSA>
138.53

>  <MMFF94 Energy>
-158.92

$$$$
CCCCCOC(=O)Nc1nc(=O)n(C2OC(C)C(O)C2O)cc1F
Actelion Java MolfileCreator 2.0

  0  0  0  0  0  0              0 V3000
M  V30 BEGIN CTAB
M  V30 COUNTS 47 48 0 0 0
M  V30 BEGIN ATOM
M  V30 1 F 1.9009 -1.0293 -2.4559 0
M  V30 2 C 0.6768 -0.7144 -2.0004 0
M  V30 3 C 0.5047 0.4959 -1.1786 0
M  V30 4 C -0.4206 -1.4242 -2.2388 0
M  V30 5 N -0.621 0.8876 -0.6907 0
M  V30 6 N 1.6852 1.1788 -0.9779 0
M  V30 7 N -1.6346 -1.0136 -1.7261 0
M  V30 8 C -1.7516 0.1469 -0.941 0
M  V30 9 C 1.8842 2.3308 -0.2623 0
M  V30 10 C -2.8716 -1.7391 -1.9716 0
M  V30 11 O -2.8462 0.4671 -0.4774 0
M  V30 12 O 1.0568 2.982 0.3517 0
M  V30 13 O 3.2066 2.6406 -0.3394 0
M  V30 14 O -2.6944 -2.7866 -2.944 0
M  V30 15 C -3.4627 -2.3776 -0.695 0
M  V30 16 C 3.6338 3.8296 0.3463 0
M  V30 17 C -3.5953 -3.8505 -2.5846 0
M  V30 18 O -4.7382 -1.8107 -0.3561 0
M  V30 19 C -3.6169 -3.8467 -1.0606 0
M  V30 20 C 4.453 3.4604 1.5807 0
M  V30 21 C -4.9498 -3.6297 -3.2497 0
M  V30 22 O -4.7711 -4.4383 -0.4851 0
M  V30 23 C 3.6195 2.7556 2.6538 0
M  V30 24 C 4.4526 2.4683 3.9031 0
M  V30 25 C 3.63 1.7656 4.9712 0
M  V30 26 H -0.3866 -2.3259 -2.8401 0
M  V30 27 H 2.5306 0.8168 -1.3947 0
M  V30 28 H -3.5861 -1.0236 -2.4002 0
M  V30 29 H -2.8204 -2.2688 0.1857 0
M  V30 30 H 2.8021 4.4936 0.6071 0
M  V30 31 H 4.2707 4.3808 -0.3538 0
M  V30 32 H -3.1778 -4.7915 -2.9589 0
M  V30 33 H -4.5592 -0.8666 -0.1478 0
M  V30 34 H -2.7341 -4.391 -0.7039 0
M  V30 35 H 5.2772 2.8009 1.2834 0
M  V30 36 H 4.8932 4.3732 1.9987 0
M  V30 37 H -5.4155 -2.6926 -2.9286 0
M  V30 38 H -4.8271 -3.5589 -4.3359 0
M  V30 39 H -5.6375 -4.4523 -3.0323 0
M  V30 40 H -5.3532 -3.6867 -0.24 0
M  V30 41 H 3.2236 1.8125 2.26 0
M  V30 42 H 2.7604 3.3823 2.9221 0
M  V30 43 H 5.3127 1.8415 3.641 0
M  V30 44 H 4.8467 3.4059 4.3121 0
M  V30 45 H 4.2446 1.5701 5.8555 0
M  V30 46 H 2.7784 2.3809 5.2787 0
M  V30 47 H 3.2475 0.8077 4.6048 0
M  V30 END ATOM
M  V30 BEGIN BOND
M  V30 1 1 1 2
M  V30 2 1 2 3
M  V30 3 2 2 4
M  V30 4 2 3 5
M  V30 5 1 3 6
M  V30 6 1 4 7
M  V30 7 1 5 8
M  V30 8 1 6 9
M  V30 9 1 7 10
M  V30 10 2 8 11
M  V30 11 2 9 12
M  V30 12 1 9 13
M  V30 13 1 10 14
M  V30 14 1 10 15
M  V30 15 1 13 16
M  V30 16 1 14 17
M  V30 17 1 15 18
M  V30 18 1 15 19
M  V30 19 1 16 20
M  V30 20 1 17 21
M  V30 21 1 19 22
M  V30 22 1 20 23
M  V30 23 1 23 24
M  V30 24 1 24 25
M  V30 25 1 7 8
M  V30 26 1 17 19
M  V30 27 1 4 26
M  V30 28 1 6 27
M  V30 29 1 10 28
M  V30 30 1 15 29
M  V30 31 1 16 30
M  V30 32 1 16 31
M  V30 33 1 17 32
M  V30 34 1 18 33
M  V30 35 1 19 34
M  V30 36 1 20 35
M  V30 37 1 20 36
M  V30 38 1 21 37
M  V30 39 1 21 38
M  V30 40 1 21 39
M  V30 41 1 22 40
M  V30 42 1 23 41
M  V30 43 1 23 42
M  V30 44 1 24 43
M  V30 45 1 24 44
M  V30 46 1 25 45
M  V30 47 1 25 46
M  V30 48 1 25 47
M  V30 END BOND
M  V30 END CTAB
M  END
>  <NO.>
5198

>  <Name>
pentyl [1-(3,4-dihydroxy-5-methyl-oxolan-2-yl)-5-fluoro-2-oxo-pyrimidin-4-yl]aminoformate

>  <SMILES>
CCCCCOC(=O)Nc1nc(=O)n(C2OC(C)C(O)C2O)cc1F

>  <logBB>


>  <Class>
-1

>  <MW>
359.15

>  <nHBAcc>
7

>  <nHBDon>
3

>  <SLogP>
0.76

>  <TopoPSA>
122.91

>  <MMFF94 Energy>
-40.589

$$$$
CCCCc1ncc(C=C(Cc2cccs2)C(=O)O)n1Cc1ccc(C(=O)O)cc1
Actelion Java MolfileCreator 2.0

  0  0  0  0  0  0              0 V3000
M  V30 BEGIN CTAB
M  V30 COUNTS 54 56 0 0 0
M  V30 BEGIN ATOM
M  V30 1 S 2.1642 3.0469 4.7338 0
M  V30 2 C 2.3992 1.5978 3.8435 0
M  V30 3 C 2.4869 2.2669 6.219 0
M  V30 4 C 2.7079 0.5415 4.6809 0
M  V30 5 C 2.2328 1.6191 2.3433 0
M  V30 6 C 2.7612 0.9291 6.0512 0
M  V30 7 C 2.9831 0.5515 1.5779 0
M  V30 8 C 4.4339 0.8311 1.4283 0
M  V30 9 C 2.4609 -0.5461 0.9935 0
M  V30 10 O 4.9846 1.8866 1.6845 0
M  V30 11 O 5.1465 -0.2142 0.9734 0
M  V30 12 C 1.0896 -0.8952 1.069 0
M  V30 13 N 0.3492 -1.2006 -0.0601 0
M  V30 14 C 0.2013 -1.0506 2.1131 0
M  V30 15 C -0.9325 -1.525 0.3556 0
M  V30 16 C 0.8083 -1.2017 -1.4467 0
M  V30 17 N -1.0306 -1.4317 1.6661 0
M  V30 18 C -2.0467 -1.8966 -0.5772 0
M  V30 19 C 0.2403 -0.0592 -2.2575 0
M  V30 20 C -3.2366 -2.5263 0.1533 0
M  V30 21 C -0.4109 -0.319 -3.4738 0
M  V30 22 C 0.3842 1.2732 -1.841 0
M  V30 23 C -4.3306 -3.0254 -0.7938 0
M  V30 24 C -0.9281 0.7267 -4.2446 0
M  V30 25 C -0.1317 2.3196 -2.6106 0
M  V30 26 C -5.0046 -1.9136 -1.5831 0
M  V30 27 C -0.7918 2.0507 -3.8141 0
M  V30 28 C -1.3225 3.193 -4.5969 0
M  V30 29 O -1.2272 4.3687 -4.2977 0
M  V30 30 O -1.9502 2.8079 -5.7223 0
M  V30 31 H 2.4573 2.8264 7.1439 0
M  V30 32 H 2.8889 -0.4688 4.3338 0
M  V30 33 H 1.1585 1.5702 2.1268 0
M  V30 34 H 2.5389 2.6002 1.9533 0
M  V30 35 H 2.9877 0.2598 6.872 0
M  V30 36 H 3.1069 -1.2222 0.4365 0
M  V30 37 H 6.0655 0.1279 0.9619 0
M  V30 38 H 0.3872 -0.9146 3.1707 0
M  V30 39 H 1.9003 -1.1524 -1.476 0
M  V30 40 H 0.5291 -2.1744 -1.868 0
M  V30 41 H -1.6792 -2.605 -1.3279 0
M  V30 42 H -2.373 -0.9908 -1.0993 0
M  V30 43 H -3.6668 -1.8054 0.8604 0
M  V30 44 H -2.8873 -3.3781 0.7512 0
M  V30 45 H -0.5274 -1.3398 -3.8335 0
M  V30 46 H 0.8928 1.5132 -0.9092 0
M  V30 47 H -3.914 -3.7642 -1.4882 0
M  V30 48 H -5.0934 -3.5436 -0.2004 0
M  V30 49 H -1.4341 0.4979 -5.1797 0
M  V30 50 H -0.0172 3.3461 -2.2657 0
M  V30 51 H -5.8398 -2.3186 -2.1636 0
M  V30 52 H -5.3993 -1.1409 -0.9156 0
M  V30 53 H -4.311 -1.4433 -2.2863 0
M  V30 54 H -2.2452 3.6522 -6.1242 0
M  V30 END ATOM
M  V30 BEGIN BOND
M  V30 1 1 1 2
M  V30 2 1 1 3
M  V30 3 2 2 4
M  V30 4 1 2 5
M  V30 5 2 3 6
M  V30 6 1 5 7
M  V30 7 1 7 8
M  V30 8 2 7 9
M  V30 9 2 8 10
M  V30 10 1 8 11
M  V30 11 1 9 12
M  V30 12 1 12 13
M  V30 13 2 12 14
M  V30 14 1 13 15
M  V30 15 1 13 16
M  V30 16 1 14 17
M  V30 17 1 15 18
M  V30 18 1 16 19
M  V30 19 1 18 20
M  V30 20 2 19 21
M  V30 21 1 19 22
M  V30 22 1 20 23
M  V30 23 1 21 24
M  V30 24 2 22 25
M  V30 25 1 23 26
M  V30 26 2 24 27
M  V30 27 1 27 28
M  V30 28 2 28 29
M  V30 29 1 28 30
M  V30 30 1 4 6
M  V30 31 2 15 17
M  V30 32 1 25 27
M  V30 33 1 3 31
M  V30 34 1 4 32
M  V30 35 1 5 33
M  V30 36 1 5 34
M  V30 37 1 6 35
M  V30 38 1 9 36
M  V30 39 1 11 37
M  V30 40 1 14 38
M  V30 41 1 16 39
M  V30 42 1 16 40
M  V30 43 1 18 41
M  V30 44 1 18 42
M  V30 45 1 20 43
M  V30 46 1 20 44
M  V30 47 1 21 45
M  V30 48 1 22 46
M  V30 49 1 23 47
M  V30 50 1 23 48
M  V30 51 1 24 49
M  V30 52 1 25 50
M  V30 53 1 26 51
M  V30 54 1 26 52
M  V30 55 1 26 53
M  V30 56 1 30 54
M  V30 END BOND
M  V30 END CTAB
M  END
>  <NO.>
5201

>  <Name>
4-[[2-butyl-5-(2-carboxy-3-thiophen-2-ylprop-1-enyl)-1-imidazolyl]methyl]benzoic acid

>  <SMILES>
CCCCc1ncc(C=C(Cc2cccs2)C(=O)O)n1Cc1ccc(C(=O)O)cc1

>  <logBB>


>  <Class>
-1

>  <MW>
424.15

>  <nHBAcc>
4

>  <nHBDon>
2

>  <SLogP>
4.74

>  <TopoPSA>
92.42

>  <MMFF94 Energy>
17.123

$$$$
CCCN(CCC)C(=O)C(CCC(=O)O)NC(=O)c1ccccc1
Actelion Java MolfileCreator 2.0

  0  0  0  0  0  0              0 V3000
M  V30 BEGIN CTAB
M  V30 COUNTS 50 50 0 0 0
M  V30 BEGIN ATOM
M  V30 1 O 3.2083 0.7035 -0.3908 0
M  V30 2 C 2.7124 -0.3752 -0.6848 0
M  V30 3 N 1.5284 -0.8687 -0.179 0
M  V30 4 C 3.4019 -1.2471 -1.6746 0
M  V30 5 C 0.607 -0.1235 0.6892 0 CFG=2
M  V30 6 C 4.1133 -0.6382 -2.715 0
M  V30 7 C 3.376 -2.6443 -1.574 0
M  V30 8 C -0.3601 0.6951 -0.2083 0
M  V30 9 C 1.2871 0.7695 1.7377 0
M  V30 10 C 4.7729 -1.4204 -3.6639 0
M  V30 11 C 4.0391 -3.4232 -2.5251 0
M  V30 12 O 0.08 1.48 -1.0533 0
M  V30 13 N -1.7371 0.5041 -0.0655 0
M  V30 14 C 0.3233 1.2279 2.8309 0
M  V30 15 C 4.7321 -2.8113 -3.5702 0
M  V30 16 C -2.3872 -0.3873 0.8969 0
M  V30 17 C -2.6234 1.2634 -0.9531 0
M  V30 18 C 1.0273 2.0546 3.8716 0
M  V30 19 C -2.5639 -1.7948 0.3276 0
M  V30 20 C -3.0057 2.6115 -0.3415 0
M  V30 21 O 2.1651 1.91 4.2822 0
M  V30 22 O 0.2252 3.0007 4.3976 0
M  V30 23 C -3.2129 -2.7251 1.3388 0
M  V30 24 C -3.9264 3.3978 -1.2599 0
M  V30 25 H 1.153 -1.7004 -0.6118 0
M  V30 26 H 0.0747 -0.9192 1.2118 0
M  V30 27 H 4.1491 0.4473 -2.7868 0
M  V30 28 H 2.8725 -3.1366 -0.7475 0
M  V30 29 H 2.1208 0.2221 2.1959 0
M  V30 30 H 1.7173 1.6627 1.2687 0
M  V30 31 H 5.3209 -0.9429 -4.4723 0
M  V30 32 H 4.0259 -4.5074 -2.4462 0
M  V30 33 H -0.476 1.8315 2.3868 0
M  V30 34 H -0.1299 0.3715 3.3405 0
M  V30 35 H 5.2508 -3.4188 -4.3077 0
M  V30 36 H -1.8082 -0.4209 1.8221 0
M  V30 37 H -3.3615 0.0391 1.1638 0
M  V30 38 H -2.1272 1.4241 -1.9173 0
M  V30 39 H -3.5171 0.6617 -1.1558 0
M  V30 40 H -3.1817 -1.757 -0.5772 0
M  V30 41 H -1.5945 -2.2078 0.0264 0
M  V30 42 H -3.5023 2.4593 0.6238 0
M  V30 43 H -2.1039 3.2018 -0.1407 0
M  V30 44 H 0.8005 3.4587 5.0463 0
M  V30 45 H -3.3347 -3.7249 0.9107 0
M  V30 46 H -2.5983 -2.8142 2.2402 0
M  V30 47 H -4.2018 -2.358 1.6314 0
M  V30 48 H -4.1881 4.3575 -0.8033 0
M  V30 49 H -3.4428 3.5996 -2.2209 0
M  V30 50 H -4.8536 2.8479 -1.4499 0
M  V30 END ATOM
M  V30 BEGIN BOND
M  V30 1 2 1 2
M  V30 2 1 2 3
M  V30 3 1 2 4
M  V30 4 1 3 5
M  V30 5 2 4 6
M  V30 6 1 4 7
M  V30 7 1 5 8
M  V30 8 1 5 9
M  V30 9 1 6 10
M  V30 10 2 7 11
M  V30 11 2 8 12
M  V30 12 1 8 13
M  V30 13 1 9 14
M  V30 14 2 10 15
M  V30 15 1 13 16
M  V30 16 1 13 17
M  V30 17 1 14 18
M  V30 18 1 16 19
M  V30 19 1 17 20
M  V30 20 2 18 21
M  V30 21 1 18 22
M  V30 22 1 19 23
M  V30 23 1 20 24
M  V30 24 1 11 15
M  V30 25 1 3 25
M  V30 26 1 5 26
M  V30 27 1 6 27
M  V30 28 1 7 28
M  V30 29 1 9 29
M  V30 30 1 9 30
M  V30 31 1 10 31
M  V30 32 1 11 32
M  V30 33 1 14 33
M  V30 34 1 14 34
M  V30 35 1 15 35
M  V30 36 1 16 36
M  V30 37 1 16 37
M  V30 38 1 17 38
M  V30 39 1 17 39
M  V30 40 1 19 40
M  V30 41 1 19 41
M  V30 42 1 20 42
M  V30 43 1 20 43
M  V30 44 1 22 44
M  V30 45 1 23 45
M  V30 46 1 23 46
M  V30 47 1 23 47
M  V30 48 1 24 48
M  V30 49 1 24 49
M  V30 50 1 24 50
M  V30 END BOND
M  V30 BEGIN COLLECTION
M  V30 MDLV30/STERAC1 ATOMS=(1 5)
M  V30 END COLLECTION
M  V30 END CTAB
M  END
>  <NO.>
5202

>  <Name>
proglumide

>  <SMILES>
CCCN(CCC)C(=O)C(CCC(=O)O)NC(=O)c1ccccc1

>  <logBB>


>  <Class>
-1

>  <MW>
334.19

>  <nHBAcc>
3

>  <nHBDon>
2

>  <SLogP>
2.3

>  <TopoPSA>
86.71

>  <MMFF94 Energy>
8.4912

$$$$
CCCN1CCCCC1C(=O)Nc1c(C)cccc1C
Actelion Java MolfileCreator 2.0

  0  0  0  0  0  0              0 V3000
M  V30 BEGIN CTAB
M  V30 COUNTS 46 47 0 0 0
M  V30 BEGIN ATOM
M  V30 1 O -1.4126 -0.1568 -0.1568 0
M  V30 2 C -0.2125 -0.3643 0.0048 0
M  V30 3 N 0.5334 -1.2743 -0.7357 0
M  V30 4 C 0.6346 0.3328 1.1016 0 CFG=1
M  V30 5 C -0.0162 -2.0863 -1.7465 0
M  V30 6 N 0.2564 1.7622 1.2802 0
M  V30 7 C 0.4264 -0.4831 2.3884 0
M  V30 8 C 0.0216 -3.4853 -1.5716 0
M  V30 9 C -0.528 -1.527 -2.9334 0
M  V30 10 C 0.9755 2.3634 2.4157 0
M  V30 11 C 0.477 2.5363 0.0425 0
M  V30 12 C 1.1475 0.138 3.5745 0
M  V30 13 C -0.4919 -4.3137 -2.5797 0
M  V30 14 C 0.5723 -4.1127 -0.3203 0
M  V30 15 C -1.0527 -2.3837 -3.9137 0
M  V30 16 C -0.5618 -0.0456 -3.1891 0
M  V30 17 C 0.7469 1.5972 3.7182 0
M  V30 18 C -0.1595 3.9344 0.0418 0
M  V30 19 C -1.0318 -3.7657 -3.7402 0
M  V30 20 C -1.6625 3.9055 0.2806 0
M  V30 21 H 1.4674 -1.5073 -0.4282 0
M  V30 22 H 1.6951 0.2822 0.8179 0
M  V30 23 H 0.7824 -1.5108 2.2448 0
M  V30 24 H -0.6456 -0.5586 2.6159 0
M  V30 25 H 2.0523 2.4116 2.2068 0
M  V30 26 H 0.6319 3.3891 2.5861 0
M  V30 27 H 0.0491 2.0088 -0.8168 0
M  V30 28 H 1.5516 2.63 -0.1616 0
M  V30 29 H 0.9062 -0.4108 4.4913 0
M  V30 30 H 2.2319 0.0634 3.4285 0
M  V30 31 H -0.4863 -5.3949 -2.462 0
M  V30 32 H 0.0351 -3.7434 0.5593 0
M  V30 33 H 0.4662 -5.2026 -0.3353 0
M  V30 34 H 1.6384 -3.8858 -0.2194 0
M  V30 35 H -1.4796 -1.9736 -4.8266 0
M  V30 36 H 0.3359 0.4445 -2.8 0
M  V30 37 H -1.451 0.4006 -2.7349 0
M  V30 38 H -0.5872 0.165 -4.2641 0
M  V30 39 H 1.326 2.0606 4.525 0
M  V30 40 H -0.3103 1.6638 4.0046 0
M  V30 41 H 0.3187 4.5851 0.7815 0
M  V30 42 H 0.0285 4.3962 -0.9352 0
M  V30 43 H -1.4396 -4.4153 -4.5102 0
M  V30 44 H -2.0768 4.9149 0.1927 0
M  V30 45 H -2.164 3.2684 -0.4547 0
M  V30 46 H -1.9019 3.5325 1.2812 0
M  V30 END ATOM
M  V30 BEGIN BOND
M  V30 1 2 1 2
M  V30 2 1 2 3
M  V30 3 1 2 4
M  V30 4 1 3 5
M  V30 5 1 4 6
M  V30 6 1 4 7
M  V30 7 2 5 8
M  V30 8 1 5 9
M  V30 9 1 6 10
M  V30 10 1 6 11
M  V30 11 1 7 12
M  V30 12 1 8 13
M  V30 13 1 8 14
M  V30 14 2 9 15
M  V30 15 1 9 16
M  V30 16 1 10 17
M  V30 17 1 11 18
M  V30 18 2 13 19
M  V30 19 1 18 20
M  V30 20 1 12 17
M  V30 21 1 15 19
M  V30 22 1 3 21
M  V30 23 1 4 22
M  V30 24 1 7 23
M  V30 25 1 7 24
M  V30 26 1 10 25
M  V30 27 1 10 26
M  V30 28 1 11 27
M  V30 29 1 11 28
M  V30 30 1 12 29
M  V30 31 1 12 30
M  V30 32 1 13 31
M  V30 33 1 14 32
M  V30 34 1 14 33
M  V30 35 1 14 34
M  V30 36 1 15 35
M  V30 37 1 16 36
M  V30 38 1 16 37
M  V30 39 1 16 38
M  V30 40 1 17 39
M  V30 41 1 17 40
M  V30 42 1 18 41
M  V30 43 1 18 42
M  V30 44 1 19 43
M  V30 45 1 20 44
M  V30 46 1 20 45
M  V30 47 1 20 46
M  V30 END BOND
M  V30 BEGIN COLLECTION
M  V30 MDLV30/STERAC1 ATOMS=(1 4)
M  V30 END COLLECTION
M  V30 END CTAB
M  END
>  <NO.>
5204

>  <Name>
1-propyl-2',6'-pipecoloxylidide

>  <SMILES>
CCCN1CCCCC1C(=O)Nc1c(C)cccc1C

>  <logBB>


>  <Class>
1

>  <MW>
274.2

>  <nHBAcc>
2

>  <nHBDon>
1

>  <SLogP>
3.51

>  <TopoPSA>
32.34

>  <MMFF94 Energy>
57.721

$$$$
CCCNC1CCc2nc(N)sc2C1
Actelion Java MolfileCreator 2.0

  0  0  0  0  0  0              0 V3000
M  V30 BEGIN CTAB
M  V30 COUNTS 31 32 0 0 0
M  V30 BEGIN ATOM
M  V30 1 S 1.1171 -1.4365 3.4344 0
M  V30 2 C -0.397 -1.6508 4.2288 0
M  V30 3 C 0.2908 -0.974 2.0235 0
M  V30 4 N -1.4582 -1.3971 3.4998 0
M  V30 5 N -0.4631 -2.0477 5.5031 0
M  V30 6 C -1.0697 -1.0183 2.2332 0
M  V30 7 C 0.9498 -0.6075 0.7386 0
M  V30 8 C -2.0646 -0.6484 1.1898 0
M  V30 9 C -0.053 0.1508 -0.1831 0 CFG=2
M  V30 10 C -1.4199 -0.5826 -0.2078 0
M  V30 11 N 0.537 0.274 -1.5296 0
M  V30 12 C -0.1476 1.2625 -2.3667 0
M  V30 13 C 0.5262 1.4061 -3.7361 0
M  V30 14 C 1.927 1.9984 -3.6734 0
M  V30 15 H -1.3673 -2.1674 5.9396 0
M  V30 16 H 0.3619 -2.2434 6.051 0
M  V30 17 H 1.2922 -1.527 0.2459 0
M  V30 18 H 1.8314 0.0196 0.9184 0
M  V30 19 H -2.4855 0.3325 1.4413 0
M  V30 20 H -2.891 -1.3676 1.1807 0
M  V30 21 H -0.1983 1.1546 0.2409 0
M  V30 22 H -1.2756 -1.6029 -0.5884 0
M  V30 23 H -2.1282 -0.0905 -0.8825 0
M  V30 24 H 1.5164 0.5446 -1.4391 0
M  V30 25 H -1.1842 0.9577 -2.5418 0
M  V30 26 H -0.1654 2.2394 -1.8689 0
M  V30 27 H 0.5643 0.4328 -4.24 0
M  V30 28 H -0.0971 2.0582 -4.3599 0
M  V30 29 H 2.3073 2.168 -4.6858 0
M  V30 30 H 1.924 2.9587 -3.1481 0
M  V30 31 H 2.627 1.3281 -3.1661 0
M  V30 END ATOM
M  V30 BEGIN BOND
M  V30 1 1 1 2
M  V30 2 1 1 3
M  V30 3 2 2 4
M  V30 4 1 2 5
M  V30 5 2 3 6
M  V30 6 1 3 7
M  V30 7 1 6 8
M  V30 8 1 7 9
M  V30 9 1 8 10
M  V30 10 1 9 11
M  V30 11 1 11 12
M  V30 12 1 12 13
M  V30 13 1 13 14
M  V30 14 1 4 6
M  V30 15 1 9 10
M  V30 16 1 5 15
M  V30 17 1 5 16
M  V30 18 1 7 17
M  V30 19 1 7 18
M  V30 20 1 8 19
M  V30 21 1 8 20
M  V30 22 1 9 21
M  V30 23 1 10 22
M  V30 24 1 10 23
M  V30 25 1 11 24
M  V30 26 1 12 25
M  V30 27 1 12 26
M  V30 28 1 13 27
M  V30 29 1 13 28
M  V30 30 1 14 29
M  V30 31 1 14 30
M  V30 32 1 14 31
M  V30 END BOND
M  V30 BEGIN COLLECTION
M  V30 MDLV30/STERAC1 ATOMS=(1 9)
M  V30 END COLLECTION
M  V30 END CTAB
M  END
>  <NO.>
5205

>  <Name>
104617-86-9

>  <SMILES>
CCCNC1CCc2nc(N)sc2C1

>  <logBB>


>  <Class>
1

>  <MW>
211.11

>  <nHBAcc>
4

>  <nHBDon>
2

>  <SLogP>
1.58

>  <TopoPSA>
50.94

>  <MMFF94 Energy>
-25.337

$$$$
CCCc1nc(C(C)(C)O)c(C(=O)O)n1Cc1ccc(-c2ccccc2-c2nn[nH]n2)cc1
Actelion Java MolfileCreator 2.0

  0  0  0  0  0  0              0 V3000
M  V30 BEGIN CTAB
M  V30 COUNTS 59 62 0 0 0
M  V30 BEGIN ATOM
M  V30 1 O -5.0267 -0.9559 -0.7966 0
M  V30 2 C -3.8136 -0.8655 -0.8898 0
M  V30 3 O -3.1095 -1.906 -1.3751 0
M  V30 4 C -2.9733 0.2295 -0.4936 0
M  V30 5 N -1.7255 0.5852 -0.9937 0
M  V30 6 C -3.235 1.1903 0.4777 0
M  V30 7 C -1.2868 1.7046 -0.3069 0
M  V30 8 C -1.021 -0.0164 -2.1249 0
M  V30 9 N -2.1777 2.0728 0.5855 0
M  V30 10 C -4.4077 1.4102 1.4156 0
M  V30 11 C 0.0355 2.3757 -0.5374 0
M  V30 12 C 0.2409 -0.7339 -1.7094 0
M  V30 13 O -4.0699 2.4606 2.3509 0
M  V30 14 C -4.7164 0.1871 2.2791 0
M  V30 15 C -5.6507 1.9065 0.6767 0
M  V30 16 C 0.1071 3.7978 0.0265 0
M  V30 17 C 0.223 -1.7405 -0.735 0
M  V30 18 C 1.4659 -0.3997 -2.3046 0
M  V30 19 C -0.7519 4.7888 -0.748 0
M  V30 20 C 1.4075 -2.3624 -0.331 0
M  V30 21 C 2.65 -1.019 -1.8949 0
M  V30 22 C 2.6402 -1.9957 -0.8894 0
M  V30 23 C 3.8939 -2.617 -0.4303 0
M  V30 24 C 4.4468 -2.3954 0.8538 0
M  V30 25 C 4.5595 -3.5029 -1.303 0
M  V30 26 C 3.8537 -1.485 1.8272 0
M  V30 27 C 5.6208 -3.0778 1.2286 0
M  V30 28 C 5.7291 -4.1612 -0.9199 0
M  V30 29 N 3.8027 -1.7817 3.1722 0
M  V30 30 N 3.3425 -0.2713 1.5544 0
M  V30 31 C 6.2579 -3.9518 0.3477 0
M  V30 32 N 3.208 -0.7588 3.769 0
M  V30 33 N 2.9393 0.0976 2.7778 0
M  V30 34 H -3.8039 -2.5752 -1.5528 0
M  V30 35 H -1.6815 -0.6869 -2.6769 0
M  V30 36 H -0.7982 0.8058 -2.816 0
M  V30 37 H 0.2712 2.4114 -1.606 0
M  V30 38 H 0.8104 1.7733 -0.0484 0
M  V30 39 H -3.2157 2.8101 2.0185 0
M  V30 40 H -5.4749 0.4253 3.0344 0
M  V30 41 H -5.0785 -0.6635 1.6974 0
M  V30 42 H -3.824 -0.1355 2.829 0
M  V30 43 H -6.4486 2.1622 1.3841 0
M  V30 44 H -6.0457 1.1709 -0.0275 0
M  V30 45 H -5.4296 2.8232 0.1164 0
M  V30 46 H -0.1811 3.811 1.0844 0
M  V30 47 H 1.1489 4.1375 -0.0209 0
M  V30 48 H -0.7091 -2.0402 -0.2613 0
M  V30 49 H 1.5189 0.3658 -3.0758 0
M  V30 50 H -0.6223 5.7966 -0.3404 0
M  V30 51 H -0.4656 4.8126 -1.8043 0
M  V30 52 H -1.8148 4.5374 -0.6858 0
M  V30 53 H 1.3651 -3.1271 0.4425 0
M  V30 54 H 3.5921 -0.7155 -2.3472 0
M  V30 55 H 4.151 -3.6947 -2.2942 0
M  V30 56 H 6.0522 -2.9216 2.2167 0
M  V30 57 H 6.22 -4.8425 -1.6102 0
M  V30 58 H 7.1655 -4.466 0.6533 0
M  V30 59 H 2.4607 0.9778 2.9482 0
M  V30 END ATOM
M  V30 BEGIN BOND
M  V30 1 2 1 2
M  V30 2 1 2 3
M  V30 3 1 2 4
M  V30 4 1 4 5
M  V30 5 2 4 6
M  V30 6 1 5 7
M  V30 7 1 5 8
M  V30 8 1 6 9
M  V30 9 1 6 10
M  V30 10 1 7 11
M  V30 11 1 8 12
M  V30 12 1 10 13
M  V30 13 1 10 14
M  V30 14 1 10 15
M  V30 15 1 11 16
M  V30 16 2 12 17
M  V30 17 1 12 18
M  V30 18 1 16 19
M  V30 19 1 17 20
M  V30 20 2 18 21
M  V30 21 2 20 22
M  V30 22 1 22 23
M  V30 23 2 23 24
M  V30 24 1 23 25
M  V30 25 1 24 26
M  V30 26 1 24 27
M  V30 27 2 25 28
M  V30 28 1 26 29
M  V30 29 2 26 30
M  V30 30 2 27 31
M  V30 31 2 29 32
M  V30 32 1 30 33
M  V30 33 2 7 9
M  V30 34 1 21 22
M  V30 35 1 28 31
M  V30 36 1 32 33
M  V30 37 1 3 34
M  V30 38 1 8 35
M  V30 39 1 8 36
M  V30 40 1 11 37
M  V30 41 1 11 38
M  V30 42 1 13 39
M  V30 43 1 14 40
M  V30 44 1 14 41
M  V30 45 1 14 42
M  V30 46 1 15 43
M  V30 47 1 15 44
M  V30 48 1 15 45
M  V30 49 1 16 46
M  V30 50 1 16 47
M  V30 51 1 17 48
M  V30 52 1 18 49
M  V30 53 1 19 50
M  V30 54 1 19 51
M  V30 55 1 19 52
M  V30 56 1 20 53
M  V30 57 1 21 54
M  V30 58 1 25 55
M  V30 59 1 27 56
M  V30 60 1 28 57
M  V30 61 1 31 58
M  V30 62 1 33 59
M  V30 END BOND
M  V30 END CTAB
M  END
>  <NO.>
5206

>  <Name>
olmesartan medoxomil

>  <SMILES>
CCCc1nc(C(C)(C)O)c(C(=O)O)n1Cc1ccc(-c2ccccc2-c2nn[nH]n2)cc1

>  <logBB>


>  <Class>
-1

>  <MW>
446.21

>  <nHBAcc>
6

>  <nHBDon>
3

>  <SLogP>
3.66

>  <TopoPSA>
129.81

>  <MMFF94 Energy>
55.338

$$$$
CCCc1nc(C(C)(C)O)c(C(=O)OCc2oc(=O)oc2C)n1Cc1ccc(-c2ccccc2-c2nn[nH]n2)cc1
Actelion Java MolfileCreator 2.0

  0  0  0  0  0  0              0 V3000
M  V30 BEGIN CTAB
M  V30 COUNTS 71 75 0 0 0
M  V30 BEGIN ATOM
M  V30 1 O 3.2034 -0.64 4.1659 0
M  V30 2 C 3.0142 -1.366 3.1981 0
M  V30 3 O 1.7939 -1.965 2.9323 0
M  V30 4 O 4.0082 -1.6803 2.2842 0
M  V30 5 C 2.0841 -2.695 1.7934 0
M  V30 6 C 3.3401 -2.538 1.4312 0
M  V30 7 C 0.9957 -3.5243 1.2077 0
M  V30 8 C 4.1035 -3.1029 0.2919 0
M  V30 9 O 0.1414 -2.65 0.468 0
M  V30 10 C -0.9884 -3.2359 4.0E-4 0
M  V30 11 O -1.2664 -4.419 0.1593 0
M  V30 12 C -1.8166 -2.2768 -0.6876 0
M  V30 13 N -1.4361 -1.0976 -1.3132 0
M  V30 14 C -3.1928 -2.3486 -0.8923 0
M  V30 15 C -2.5663 -0.5152 -1.851 0
M  V30 16 C -0.0726 -0.612 -1.5122 0
M  V30 17 N -3.6222 -1.262 -1.6229 0
M  V30 18 C -4.1952 -3.4052 -0.4586 0
M  V30 19 C -2.5969 0.785 -2.5909 0
M  V30 20 C 0.4535 0.3009 -0.4274 0
M  V30 21 O -3.8176 -4.0314 0.7781 0
M  V30 22 C -4.3199 -4.4977 -1.5275 0
M  V30 23 C -5.5763 -2.7894 -0.1948 0
M  V30 24 C -2.5166 0.5666 -4.1016 0
M  V30 25 C 1.8212 0.6205 -0.4426 0
M  V30 26 C -0.35 0.8855 0.5609 0
M  V30 27 C -2.5481 1.8864 -4.8559 0
M  V30 28 C 2.3659 1.5011 0.497 0
M  V30 29 C 0.1972 1.7682 1.4993 0
M  V30 30 C 1.5583 2.0993 1.4737 0
M  V30 31 C 2.1257 3.0458 2.4498 0
M  V30 32 C 2.5919 4.3355 2.1036 0
M  V30 33 C 2.2476 2.6325 3.7918 0
M  V30 34 C 2.4774 4.882 0.7587 0
M  V30 35 C 3.1883 5.1484 3.0879 0
M  V30 36 C 2.8307 3.4534 4.759 0
M  V30 37 N 3.5099 5.5623 0.1501 0
M  V30 38 N 1.3682 4.8526 -9.0E-4 0
M  V30 39 C 3.306 4.7101 4.4065 0
M  V30 40 N 3.0651 5.9528 -1.0358 0
M  V30 41 N 1.8022 5.5158 -1.0796 0
M  V30 42 H 1.3989 -4.2904 0.5368 0
M  V30 43 H 0.4382 -4.0175 2.0134 0
M  V30 44 H 4.517 -2.2967 -0.3223 0
M  V30 45 H 3.4796 -3.7272 -0.3539 0
M  V30 46 H 4.9324 -3.7165 0.6581 0
M  V30 47 H 0.5732 -1.4892 -1.631 0
M  V30 48 H -0.0441 -0.0813 -2.4701 0
M  V30 49 H -1.7917 1.4475 -2.2557 0
M  V30 50 H -3.5354 1.2988 -2.3466 0
M  V30 51 H -3.0132 -4.5573 0.5968 0
M  V30 52 H -5.0169 -5.2808 -1.2076 0
M  V30 53 H -4.6668 -4.0907 -2.4837 0
M  V30 54 H -3.357 -4.9917 -1.7022 0
M  V30 55 H -6.2768 -3.5452 0.1798 0
M  V30 56 H -6.0073 -2.3403 -1.0962 0
M  V30 57 H -5.5155 -2.0126 0.5771 0
M  V30 58 H -1.5979 0.027 -4.3604 0
M  V30 59 H -3.3538 -0.0587 -4.4354 0
M  V30 60 H 2.4796 0.1927 -1.1962 0
M  V30 61 H -1.4168 0.6794 0.6229 0
M  V30 62 H -2.493 1.7079 -5.9343 0
M  V30 63 H -3.4727 2.4348 -4.649 0
M  V30 64 H -1.7014 2.5199 -4.5727 0
M  V30 65 H 3.4294 1.7303 0.4569 0
M  V30 66 H -0.4558 2.2176 2.2458 0
M  V30 67 H 1.9009 1.644 4.0907 0
M  V30 68 H 3.5572 6.1398 2.8288 0
M  V30 69 H 2.921 3.0999 5.7833 0
M  V30 70 H 3.766 5.3497 5.1553 0
M  V30 71 H 1.2073 5.6846 -1.8854 0
M  V30 END ATOM
M  V30 BEGIN BOND
M  V30 1 2 1 2
M  V30 2 1 2 3
M  V30 3 1 2 4
M  V30 4 1 3 5
M  V30 5 1 4 6
M  V30 6 1 5 7
M  V30 7 1 6 8
M  V30 8 1 7 9
M  V30 9 1 9 10
M  V30 10 2 10 11
M  V30 11 1 10 12
M  V30 12 1 12 13
M  V30 13 2 12 14
M  V30 14 1 13 15
M  V30 15 1 13 16
M  V30 16 1 14 17
M  V30 17 1 14 18
M  V30 18 1 15 19
M  V30 19 1 16 20
M  V30 20 1 18 21
M  V30 21 1 18 22
M  V30 22 1 18 23
M  V30 23 1 19 24
M  V30 24 2 20 25
M  V30 25 1 20 26
M  V30 26 1 24 27
M  V30 27 1 25 28
M  V30 28 2 26 29
M  V30 29 2 28 30
M  V30 30 1 30 31
M  V30 31 2 31 32
M  V30 32 1 31 33
M  V30 33 1 32 34
M  V30 34 1 32 35
M  V30 35 2 33 36
M  V30 36 1 34 37
M  V30 37 2 34 38
M  V30 38 2 35 39
M  V30 39 2 37 40
M  V30 40 1 38 41
M  V30 41 2 5 6
M  V30 42 2 15 17
M  V30 43 1 29 30
M  V30 44 1 36 39
M  V30 45 1 40 41
M  V30 46 1 7 42
M  V30 47 1 7 43
M  V30 48 1 8 44
M  V30 49 1 8 45
M  V30 50 1 8 46
M  V30 51 1 16 47
M  V30 52 1 16 48
M  V30 53 1 19 49
M  V30 54 1 19 50
M  V30 55 1 21 51
M  V30 56 1 22 52
M  V30 57 1 22 53
M  V30 58 1 22 54
M  V30 59 1 23 55
M  V30 60 1 23 56
M  V30 61 1 23 57
M  V30 62 1 24 58
M  V30 63 1 24 59
M  V30 64 1 25 60
M  V30 65 1 26 61
M  V30 66 1 27 62
M  V30 67 1 27 63
M  V30 68 1 27 64
M  V30 69 1 28 65
M  V30 70 1 29 66
M  V30 71 1 33 67
M  V30 72 1 35 68
M  V30 73 1 36 69
M  V30 74 1 39 70
M  V30 75 1 41 71
M  V30 END BOND
M  V30 END CTAB
M  END
>  <NO.>
5207

>  <Name>
olmesartan medoxomil

>  <SMILES>
CCCc1nc(C(C)(C)O)c(C(=O)OCc2oc(=O)oc2C)n1Cc1ccc(-c2ccccc2-c2nn[nH]n2)cc1

>  <logBB>


>  <Class>
-1

>  <MW>
558.22

>  <nHBAcc>
10

>  <nHBDon>
2

>  <SLogP>
4.17

>  <TopoPSA>
162.16

>  <MMFF94 Energy>
84.063

$$$$
CCN(CC)C(=O)/C(C#N)=C/c1cc(O)c(O)c([N+](=O)[O-])c1
Actelion Java MolfileCreator 2.0

  0  0  0  0  0  0              0 V3000
M  V30 BEGIN CTAB
M  V30 COUNTS 37 37 0 0 0
M  V30 BEGIN ATOM
M  V30 1 O 4.5816 -1.8149 -0.5521 0
M  V30 2 N 4.8272 -0.6347 -0.2614 0 CHG=1
M  V30 3 O 5.8186 0.0073 -0.6318 0 CHG=-1
M  V30 4 C 3.8169 0.0687 0.4976 0
M  V30 5 C 4.1206 0.6154 1.7365 0
M  V30 6 C 2.53 0.1737 -0.0499 0
M  V30 7 O 5.3521 0.4911 2.3107 0
M  V30 8 C 3.1233 1.2972 2.4302 0
M  V30 9 C 1.529 0.8484 0.6616 0
M  V30 10 O 3.4548 1.8254 3.6487 0
M  V30 11 C 1.8388 1.43 1.902 0
M  V30 12 C 0.1935 0.9629 0.0593 0
M  V30 13 C -0.9721 0.6222 0.6398 0
M  V30 14 C -1.1226 0.1297 1.9614 0
M  V30 15 C -2.199 0.8363 -0.1633 0
M  V30 16 N -1.2094 -0.2764 3.0454 0
M  V30 17 O -2.7692 1.923 -0.0842 0
M  V30 18 N -2.6262 -0.2006 -0.9857 0
M  V30 19 C -2.0036 -1.5279 -1.0741 0
M  V30 20 C -3.8278 0.0235 -1.7926 0
M  V30 21 C -1.0801 -1.647 -2.2769 0
M  V30 22 C -5.0922 -0.3664 -1.0421 0
M  V30 23 H 2.317 -0.2728 -1.0199 0
M  V30 24 H 5.2985 0.9769 3.1598 0
M  V30 25 H 2.6551 2.2032 4.0575 0
M  V30 26 H 1.0825 1.9854 2.4517 0
M  V30 27 H 0.1877 1.3446 -0.9619 0
M  V30 28 H -2.7986 -2.2794 -1.1341 0
M  V30 29 H -1.436 -1.7436 -0.1652 0
M  V30 30 H -3.7469 -0.5479 -2.7231 0
M  V30 31 H -3.8887 1.0821 -2.0696 0
M  V30 32 H -0.2791 -0.9029 -2.2401 0
M  V30 33 H -1.6261 -1.4992 -3.2139 0
M  V30 34 H -0.6221 -2.6405 -2.3052 0
M  V30 35 H -5.1972 0.2124 -0.1185 0
M  V30 36 H -5.0803 -1.4268 -0.7708 0
M  V30 37 H -5.9744 -0.1827 -1.663 0
M  V30 END ATOM
M  V30 BEGIN BOND
M  V30 1 2 1 2
M  V30 2 1 2 3
M  V30 3 1 2 4
M  V30 4 2 4 5
M  V30 5 1 4 6
M  V30 6 1 5 7
M  V30 7 1 5 8
M  V30 8 2 6 9
M  V30 9 1 8 10
M  V30 10 2 8 11
M  V30 11 1 9 12
M  V30 12 2 12 13
M  V30 13 1 13 14
M  V30 14 1 13 15
M  V30 15 3 14 16
M  V30 16 2 15 17
M  V30 17 1 15 18
M  V30 18 1 18 19
M  V30 19 1 18 20
M  V30 20 1 19 21
M  V30 21 1 20 22
M  V30 22 1 9 11
M  V30 23 1 6 23
M  V30 24 1 7 24
M  V30 25 1 10 25
M  V30 26 1 11 26
M  V30 27 1 12 27
M  V30 28 1 19 28
M  V30 29 1 19 29
M  V30 30 1 20 30
M  V30 31 1 20 31
M  V30 32 1 21 32
M  V30 33 1 21 33
M  V30 34 1 21 34
M  V30 35 1 22 35
M  V30 36 1 22 36
M  V30 37 1 22 37
M  V30 END BOND
M  V30 END CTAB
M  END
>  <NO.>
5209

>  <Name>
entacapone

>  <SMILES>
CCN(CC)C(=O)/C(C#N)=C/c1cc(O)c(O)c([N+](=O)[O-])c1

>  <logBB>


>  <Class>
1

>  <MW>
305.1

>  <nHBAcc>
6

>  <nHBDon>
2

>  <SLogP>
1.78

>  <TopoPSA>
127.7

>  <MMFF94 Energy>
32.687

$$$$
CCN(CC)C(=O)N1CCN(C)CC1
Actelion Java MolfileCreator 2.0

  0  0  0  0  0  0              0 V3000
M  V30 BEGIN CTAB
M  V30 COUNTS 35 35 0 0 0
M  V30 BEGIN ATOM
M  V30 1 O 0.3877 -1.3963 -1.5515 0
M  V30 2 C 0.57 -0.5393 -0.6849 0
M  V30 3 N -0.2273 0.5849 -0.6205 0
M  V30 4 N 1.5854 -0.6558 0.2589 0
M  V30 5 C -0.8289 1.0447 0.6328 0
M  V30 6 C -0.9928 0.9713 -1.8036 0
M  V30 7 C 2.2368 -1.9627 0.3699 0
M  V30 8 C 2.284 0.5085 0.8207 0
M  V30 9 C -2.3089 0.6056 0.7232 0
M  V30 10 C -2.4576 0.5091 -1.6925 0
M  V30 11 C 3.416 -2.1271 -0.5779 0
M  V30 12 C 2.4659 0.449 2.33 0
M  V30 13 N -3.0962 1.0243 -0.4575 0
M  V30 14 C -4.4721 0.5414 -0.3557 0
M  V30 15 H -0.3055 0.6325 1.497 0
M  V30 16 H -0.7508 2.1374 0.6612 0
M  V30 17 H -0.9461 2.0643 -1.8808 0
M  V30 18 H -0.535 0.5573 -2.7086 0
M  V30 19 H 1.4996 -2.7456 0.1545 0
M  V30 20 H 2.556 -2.1169 1.4047 0
M  V30 21 H 1.7724 1.4366 0.5517 0
M  V30 22 H 3.2649 0.5708 0.3363 0
M  V30 23 H -2.3477 -0.4864 0.834 0
M  V30 24 H -2.7433 1.0448 1.6292 0
M  V30 25 H -3.0044 0.8765 -2.5688 0
M  V30 26 H -2.4952 -0.588 -1.7116 0
M  V30 27 H 4.2179 -1.4208 -0.3429 0
M  V30 28 H 3.1176 -1.9615 -1.6177 0
M  V30 29 H 3.8263 -3.1385 -0.497 0
M  V30 30 H 3.1505 -0.3533 2.6203 0
M  V30 31 H 1.5151 0.2811 2.8438 0
M  V30 32 H 2.8915 1.3896 2.6939 0
M  V30 33 H -4.5275 -0.5521 -0.3109 0
M  V30 34 H -4.9554 0.9478 0.5395 0
M  V30 35 H -5.0621 0.8815 -1.2138 0
M  V30 END ATOM
M  V30 BEGIN BOND
M  V30 1 2 1 2
M  V30 2 1 2 3
M  V30 3 1 2 4
M  V30 4 1 3 5
M  V30 5 1 3 6
M  V30 6 1 4 7
M  V30 7 1 4 8
M  V30 8 1 5 9
M  V30 9 1 6 10
M  V30 10 1 7 11
M  V30 11 1 8 12
M  V30 12 1 9 13
M  V30 13 1 13 14
M  V30 14 1 10 13
M  V30 15 1 5 15
M  V30 16 1 5 16
M  V30 17 1 6 17
M  V30 18 1 6 18
M  V30 19 1 7 19
M  V30 20 1 7 20
M  V30 21 1 8 21
M  V30 22 1 8 22
M  V30 23 1 9 23
M  V30 24 1 9 24
M  V30 25 1 10 25
M  V30 26 1 10 26
M  V30 27 1 11 27
M  V30 28 1 11 28
M  V30 29 1 11 29
M  V30 30 1 12 30
M  V30 31 1 12 31
M  V30 32 1 12 32
M  V30 33 1 14 33
M  V30 34 1 14 34
M  V30 35 1 14 35
M  V30 END BOND
M  V30 END CTAB
M  END
>  <NO.>
5210

>  <Name>
diethylcarbamazine citrate

>  <SMILES>
CCN(CC)C(=O)N1CCN(C)CC1

>  <logBB>


>  <Class>
-1

>  <MW>
199.17

>  <nHBAcc>
2

>  <nHBDon>
0

>  <SLogP>
0.7

>  <TopoPSA>
26.79

>  <MMFF94 Energy>
-8.4512

$$$$
CCN(CC)CCNC(=O)c1ccc(N)cc1
Actelion Java MolfileCreator 2.0

  0  0  0  0  0  0              0 V3000
M  V30 BEGIN CTAB
M  V30 COUNTS 38 38 0 0 0
M  V30 BEGIN ATOM
M  V30 1 O -0.4645 2.1691 -1.7815 0
M  V30 2 C -0.9874 1.5689 -0.8498 0
M  V30 3 N -0.3507 0.5823 -0.1264 0
M  V30 4 C -2.3669 1.9204 -0.4138 0
M  V30 5 C 1.0065 0.1737 -0.4529 0
M  V30 6 C -2.8213 3.2252 -0.629 0
M  V30 7 C -3.2207 0.9853 0.1808 0
M  V30 8 C 1.3897 -1.15 0.2357 0
M  V30 9 C -4.1099 3.5959 -0.2315 0
M  V30 10 C -4.5094 1.3659 0.5733 0
M  V30 11 N 2.7398 -1.6364 -0.1217 0
M  V30 12 C -4.9685 2.6685 0.3622 0
M  V30 13 C 2.8747 -3.0754 0.1785 0
M  V30 14 C 3.7783 -0.8556 0.5791 0
M  V30 15 N -6.2286 3.047 0.785 0
M  V30 16 C 2.1851 -3.9488 -0.8661 0
M  V30 17 C 5.139 -0.963 -0.1037 0
M  V30 18 H -0.769 0.2427 0.7281 0
M  V30 19 H 1.6614 0.9957 -0.148 0
M  V30 20 H 1.0847 0.0717 -1.5418 0
M  V30 21 H -2.1718 3.9592 -1.1017 0
M  V30 22 H -2.9147 -0.0463 0.323 0
M  V30 23 H 1.2912 -1.05 1.3253 0
M  V30 24 H 0.6296 -1.8807 -0.0641 0
M  V30 25 H -4.4372 4.6192 -0.3968 0
M  V30 26 H -5.1593 0.6289 1.0382 0
M  V30 27 H 3.9284 -3.3736 0.174 0
M  V30 28 H 2.4918 -3.3079 1.1803 0
M  V30 29 H 3.5245 0.2096 0.581 0
M  V30 30 H 3.8565 -1.1567 1.6316 0
M  V30 31 H -6.8772 2.3615 1.1463 0
M  V30 32 H -6.5823 3.9694 0.5693 0
M  V30 33 H 2.4019 -5.004 -0.6688 0
M  V30 34 H 2.5481 -3.7164 -1.873 0
M  V30 35 H 1.0979 -3.8321 -0.8564 0
M  V30 36 H 5.8512 -0.2858 0.3798 0
M  V30 37 H 5.0717 -0.6777 -1.159 0
M  V30 38 H 5.5571 -1.9716 -0.0453 0
M  V30 END ATOM
M  V30 BEGIN BOND
M  V30 1 2 1 2
M  V30 2 1 2 3
M  V30 3 1 2 4
M  V30 4 1 3 5
M  V30 5 2 4 6
M  V30 6 1 4 7
M  V30 7 1 5 8
M  V30 8 1 6 9
M  V30 9 2 7 10
M  V30 10 1 8 11
M  V30 11 2 9 12
M  V30 12 1 11 13
M  V30 13 1 11 14
M  V30 14 1 12 15
M  V30 15 1 13 16
M  V30 16 1 14 17
M  V30 17 1 10 12
M  V30 18 1 3 18
M  V30 19 1 5 19
M  V30 20 1 5 20
M  V30 21 1 6 21
M  V30 22 1 7 22
M  V30 23 1 8 23
M  V30 24 1 8 24
M  V30 25 1 9 25
M  V30 26 1 10 26
M  V30 27 1 13 27
M  V30 28 1 13 28
M  V30 29 1 14 29
M  V30 30 1 14 30
M  V30 31 1 15 31
M  V30 32 1 15 32
M  V30 33 1 16 33
M  V30 34 1 16 34
M  V30 35 1 16 35
M  V30 36 1 17 36
M  V30 37 1 17 37
M  V30 38 1 17 38
M  V30 END BOND
M  V30 END CTAB
M  END
>  <NO.>
5212

>  <Name>
procainamide

>  <SMILES>
CCN(CC)CCNC(=O)c1ccc(N)cc1

>  <logBB>


>  <Class>
-1

>  <MW>
235.17

>  <nHBAcc>
3

>  <nHBDon>
2

>  <SLogP>
1.34

>  <TopoPSA>
58.36

>  <MMFF94 Energy>
22.363

$$$$
CCN(CC)CCNC(=O)c1ccc(NC(C)=O)cc1
Actelion Java MolfileCreator 2.0

  0  0  0  0  0  0              0 V3000
M  V30 BEGIN CTAB
M  V30 COUNTS 43 43 0 0 0
M  V30 BEGIN ATOM
M  V30 1 O 2.1785 1.3222 -2.4121 0
M  V30 2 C 1.4735 0.7404 -1.5951 0
M  V30 3 N 1.8337 0.5625 -0.2815 0
M  V30 4 C 0.1387 0.2117 -1.9929 0
M  V30 5 C 3.0818 1.0688 0.2555 0
M  V30 6 C -0.4668 -0.8621 -1.3322 0
M  V30 7 C -0.5125 0.7978 -3.083 0
M  V30 8 C 3.4349 0.3665 1.5803 0
M  V30 9 C -1.7214 -1.3238 -1.7484 0
M  V30 10 C -1.7685 0.3351 -3.4941 0
M  V30 11 N 2.2879 0.2942 2.524 0
M  V30 12 C -2.386 -0.7225 -2.8251 0
M  V30 13 C 1.9829 1.6222 3.0924 0
M  V30 14 C 2.5853 -0.6992 3.5749 0
M  V30 15 N -3.6395 -1.2535 -3.1887 0
M  V30 16 C 0.497 1.9277 2.9505 0
M  V30 17 C 1.3904 -1.0162 4.4677 0
M  V30 18 C -4.5631 -0.6941 -4.0539 0
M  V30 19 O -4.4742 0.3825 -4.632 0
M  V30 20 C -5.7856 -1.5624 -4.2133 0
M  V30 21 H 1.1787 0.2107 0.4065 0
M  V30 22 H 2.9632 2.1486 0.3917 0
M  V30 23 H 3.8802 0.9136 -0.4783 0
M  V30 24 H 0.03 -1.3681 -0.5097 0
M  V30 25 H -0.046 1.622 -3.6198 0
M  V30 26 H 3.7349 -0.6558 1.3144 0
M  V30 27 H 4.3066 0.8441 2.0448 0
M  V30 28 H -2.1679 -2.1603 -1.2168 0
M  V30 29 H -2.2321 0.8179 -4.3495 0
M  V30 30 H 2.2805 1.6969 4.1457 0
M  V30 31 H 2.5343 2.4218 2.5838 0
M  V30 32 H 2.8777 -1.6447 3.1009 0
M  V30 33 H 3.4339 -0.3768 4.1915 0
M  V30 34 H -3.9048 -2.1202 -2.7387 0
M  V30 35 H 0.2763 2.9132 3.3736 0
M  V30 36 H -0.1241 1.1946 3.473 0
M  V30 37 H 0.1949 1.9424 1.8982 0
M  V30 38 H 1.6387 -1.8428 5.1416 0
M  V30 39 H 0.5231 -1.3202 3.8723 0
M  V30 40 H 1.1054 -0.1622 5.0892 0
M  V30 41 H -5.4933 -2.597 -4.4144 0
M  V30 42 H -6.3878 -1.2011 -5.0515 0
M  V30 43 H -6.3825 -1.5231 -3.2979 0
M  V30 END ATOM
M  V30 BEGIN BOND
M  V30 1 2 1 2
M  V30 2 1 2 3
M  V30 3 1 2 4
M  V30 4 1 3 5
M  V30 5 2 4 6
M  V30 6 1 4 7
M  V30 7 1 5 8
M  V30 8 1 6 9
M  V30 9 2 7 10
M  V30 10 1 8 11
M  V30 11 2 9 12
M  V30 12 1 11 13
M  V30 13 1 11 14
M  V30 14 1 12 15
M  V30 15 1 13 16
M  V30 16 1 14 17
M  V30 17 1 15 18
M  V30 18 2 18 19
M  V30 19 1 18 20
M  V30 20 1 10 12
M  V30 21 1 3 21
M  V30 22 1 5 22
M  V30 23 1 5 23
M  V30 24 1 6 24
M  V30 25 1 7 25
M  V30 26 1 8 26
M  V30 27 1 8 27
M  V30 28 1 9 28
M  V30 29 1 10 29
M  V30 30 1 13 30
M  V30 31 1 13 31
M  V30 32 1 14 32
M  V30 33 1 14 33
M  V30 34 1 15 34
M  V30 35 1 16 35
M  V30 36 1 16 36
M  V30 37 1 16 37
M  V30 38 1 17 38
M  V30 39 1 17 39
M  V30 40 1 17 40
M  V30 41 1 20 41
M  V30 42 1 20 42
M  V30 43 1 20 43
M  V30 END BOND
M  V30 END CTAB
M  END
>  <NO.>
5213

>  <Name>
n-acetylprocainamide

>  <SMILES>
CCN(CC)CCNC(=O)c1ccc(NC(C)=O)cc1

>  <logBB>


>  <Class>
-1

>  <MW>
277.18

>  <nHBAcc>
3

>  <nHBDon>
2

>  <SLogP>
1.72

>  <TopoPSA>
61.44

>  <MMFF94 Energy>
11.025

$$$$
CCN(CC)CCNC(=O)c1ccc(NS(C)(=O)=O)cc1
Actelion Java MolfileCreator 2.0

  0  0  0  0  0  0              0 V3000
M  V30 BEGIN CTAB
M  V30 COUNTS 44 44 0 0 0
M  V30 BEGIN ATOM
M  V30 1 S 0.0791 5.794 1.2677 0
M  V30 2 O -0.1266 6.9321 0.3962 0
M  V30 3 O -1.0378 5.046 1.7978 0
M  V30 4 N 1.1214 4.7658 0.4146 0
M  V30 5 C 1.1235 6.3237 2.6074 0
M  V30 6 C 1.0352 3.3731 0.7019 0
M  V30 7 C 1.8433 2.8282 1.6971 0
M  V30 8 C 0.0998 2.5776 0.0399 0
M  V30 9 C 1.7373 1.4709 2.0109 0
M  V30 10 C -0.0108 1.2193 0.3561 0
M  V30 11 C 0.8185 0.6552 1.3353 0
M  V30 12 C 0.7444 -0.7851 1.7155 0
M  V30 13 O 1.1708 -1.1589 2.8029 0
M  V30 14 N 0.2139 -1.6418 0.783 0
M  V30 15 C 0.1023 -3.0699 1.0106 0
M  V30 16 C -0.9262 -3.6953 0.0487 0
M  V30 17 N -0.7821 -3.2049 -1.3503 0
M  V30 18 C -2.0131 -3.4779 -2.1197 0
M  V30 19 C 0.3868 -3.8398 -1.9931 0
M  V30 20 C -3.1187 -2.4748 -1.8022 0
M  V30 21 C 0.8723 -3.049 -3.2046 0
M  V30 22 H 1.0699 5.0058 -0.5776 0
M  V30 23 H 1.3503 5.4688 3.2459 0
M  V30 24 H 2.0342 6.7628 2.1962 0
M  V30 25 H 0.5767 7.0759 3.1806 0
M  V30 26 H 2.5655 3.4435 2.2252 0
M  V30 27 H -0.5668 3.0085 -0.7024 0
M  V30 28 H 2.3735 1.0476 2.7864 0
M  V30 29 H -0.7721 0.6304 -0.1472 0
M  V30 30 H -0.0065 -1.3422 -0.1593 0
M  V30 31 H -0.1933 -3.2498 2.0502 0
M  V30 32 H 1.0983 -3.5023 0.8718 0
M  V30 33 H -0.8762 -4.7902 0.0976 0
M  V30 34 H -1.9108 -3.4102 0.4362 0
M  V30 35 H -1.8232 -3.3894 -3.1946 0
M  V30 36 H -2.3681 -4.5024 -1.951 0
M  V30 37 H 1.2329 -3.8777 -1.2985 0
M  V30 38 H 0.1693 -4.8773 -2.2765 0
M  V30 39 H -3.971 -2.638 -2.4705 0
M  V30 40 H -2.7704 -1.4469 -1.9507 0
M  V30 41 H -3.4859 -2.5689 -0.7766 0
M  V30 42 H 1.8004 -3.4875 -3.5863 0
M  V30 43 H 1.0816 -2.0081 -2.9349 0
M  V30 44 H 0.1479 -3.0534 -4.0236 0
M  V30 END ATOM
M  V30 BEGIN BOND
M  V30 1 2 1 2
M  V30 2 2 1 3
M  V30 3 1 1 4
M  V30 4 1 1 5
M  V30 5 1 4 6
M  V30 6 2 6 7
M  V30 7 1 6 8
M  V30 8 1 7 9
M  V30 9 2 8 10
M  V30 10 2 9 11
M  V30 11 1 11 12
M  V30 12 2 12 13
M  V30 13 1 12 14
M  V30 14 1 14 15
M  V30 15 1 15 16
M  V30 16 1 16 17
M  V30 17 1 17 18
M  V30 18 1 17 19
M  V30 19 1 18 20
M  V30 20 1 19 21
M  V30 21 1 10 11
M  V30 22 1 4 22
M  V30 23 1 5 23
M  V30 24 1 5 24
M  V30 25 1 5 25
M  V30 26 1 7 26
M  V30 27 1 8 27
M  V30 28 1 9 28
M  V30 29 1 10 29
M  V30 30 1 14 30
M  V30 31 1 15 31
M  V30 32 1 15 32
M  V30 33 1 16 33
M  V30 34 1 16 34
M  V30 35 1 18 35
M  V30 36 1 18 36
M  V30 37 1 19 37
M  V30 38 1 19 38
M  V30 39 1 20 39
M  V30 40 1 20 40
M  V30 41 1 20 41
M  V30 42 1 21 42
M  V30 43 1 21 43
M  V30 44 1 21 44
M  V30 END BOND
M  V30 END CTAB
M  END
>  <NO.>
5214

>  <Name>
sematilide

>  <SMILES>
CCN(CC)CCNC(=O)c1ccc(NS(C)(=O)=O)cc1

>  <logBB>


>  <Class>
-1

>  <MW>
313.15

>  <nHBAcc>
4

>  <nHBDon>
2

>  <SLogP>
1.13

>  <TopoPSA>
78.51

>  <MMFF94 Energy>
-27.783

$$$$
CCN(CC)CCOCCOC(=O)C1(c2ccccc2)CCCC1
Actelion Java MolfileCreator 2.0

  0  0  0  0  0  0              0 V3000
M  V30 BEGIN CTAB
M  V30 COUNTS 55 56 0 0 0
M  V30 BEGIN ATOM
M  V30 1 O -1.9689 0.3148 0.4722 0
M  V30 2 C -1.4602 1.2693 1.0477 0
M  V30 3 O -0.1313 1.3662 1.3446 0
M  V30 4 C -2.2303 2.5091 1.5462 0
M  V30 5 C 0.6724 0.2367 0.9739 0
M  V30 6 C -2.3484 2.4422 3.0708 0
M  V30 7 C -3.6142 2.5959 0.8571 0
M  V30 8 C -1.5843 3.803 0.9994 0
M  V30 9 C 1.0538 0.2874 -0.5022 0
M  V30 10 C -3.2851 1.5814 3.6724 0
M  V30 11 C -1.5011 3.1805 3.9139 0
M  V30 12 C -3.3601 3.1785 -0.5332 0
M  V30 13 C -2.0025 3.8657 -0.4652 0
M  V30 14 O 1.9548 -0.7801 -0.7913 0
M  V30 15 C -3.3917 1.4883 5.0621 0
M  V30 16 C -1.6088 3.0868 5.3043 0
M  V30 17 C 2.3376 -0.7867 -2.1703 0
M  V30 18 C -2.5563 2.2444 5.8781 0
M  V30 19 C 3.2422 -2.0004 -2.4663 0
M  V30 20 N 2.5399 -3.2587 -2.8355 0
M  V30 21 C 1.5875 -3.6568 -1.7759 0
M  V30 22 C 3.5093 -4.3383 -3.1153 0
M  V30 23 C 0.7548 -4.8943 -2.1066 0
M  V30 24 C 4.4547 -4.0463 -4.279 0
M  V30 25 H 0.1737 -0.707 1.2277 0
M  V30 26 H 1.5789 0.2679 1.589 0
M  V30 27 H -4.2753 3.2782 1.4089 0
M  V30 28 H -4.1347 1.6346 0.7851 0
M  V30 29 H -1.984 4.6848 1.5184 0
M  V30 30 H -0.494 3.8347 1.0947 0
M  V30 31 H 0.1602 0.2015 -1.1304 0
M  V30 32 H 1.5291 1.2492 -0.7291 0
M  V30 33 H -3.9412 0.9616 3.0638 0
M  V30 34 H -0.7348 3.8351 3.506 0
M  V30 35 H -3.3442 2.3868 -1.2906 0
M  V30 36 H -4.1536 3.88 -0.8117 0
M  V30 37 H -1.2805 3.3267 -1.0899 0
M  V30 38 H -2.0454 4.8969 -0.8296 0
M  V30 39 H -4.1247 0.8193 5.5057 0
M  V30 40 H -0.946 3.6692 5.9393 0
M  V30 41 H 2.9027 0.1318 -2.3693 0
M  V30 42 H 1.4535 -0.7921 -2.8191 0
M  V30 43 H -2.6373 2.1706 6.9592 0
M  V30 44 H 3.8594 -1.698 -3.3188 0
M  V30 45 H 3.9072 -2.1779 -1.6114 0
M  V30 46 H 2.1073 -3.8137 -0.8225 0
M  V30 47 H 0.8584 -2.8542 -1.6241 0
M  V30 48 H 4.0973 -4.5765 -2.22 0
M  V30 49 H 2.9709 -5.2485 -3.3992 0
M  V30 50 H -0.0511 -5.0052 -1.373 0
M  V30 51 H 1.3503 -5.8111 -2.0712 0
M  V30 52 H 0.2951 -4.8092 -3.0968 0
M  V30 53 H 5.0091 -4.9534 -4.5426 0
M  V30 54 H 5.1927 -3.2797 -4.0254 0
M  V30 55 H 3.9013 -3.7233 -5.1669 0
M  V30 END ATOM
M  V30 BEGIN BOND
M  V30 1 2 1 2
M  V30 2 1 2 3
M  V30 3 1 2 4
M  V30 4 1 3 5
M  V30 5 1 4 6
M  V30 6 1 4 7
M  V30 7 1 4 8
M  V30 8 1 5 9
M  V30 9 2 6 10
M  V30 10 1 6 11
M  V30 11 1 7 12
M  V30 12 1 8 13
M  V30 13 1 9 14
M  V30 14 1 10 15
M  V30 15 2 11 16
M  V30 16 1 14 17
M  V30 17 2 15 18
M  V30 18 1 17 19
M  V30 19 1 19 20
M  V30 20 1 20 21
M  V30 21 1 20 22
M  V30 22 1 21 23
M  V30 23 1 22 24
M  V30 24 1 12 13
M  V30 25 1 16 18
M  V30 26 1 5 25
M  V30 27 1 5 26
M  V30 28 1 7 27
M  V30 29 1 7 28
M  V30 30 1 8 29
M  V30 31 1 8 30
M  V30 32 1 9 31
M  V30 33 1 9 32
M  V30 34 1 10 33
M  V30 35 1 11 34
M  V30 36 1 12 35
M  V30 37 1 12 36
M  V30 38 1 13 37
M  V30 39 1 13 38
M  V30 40 1 15 39
M  V30 41 1 16 40
M  V30 42 1 17 41
M  V30 43 1 17 42
M  V30 44 1 18 43
M  V30 45 1 19 44
M  V30 46 1 19 45
M  V30 47 1 21 46
M  V30 48 1 21 47
M  V30 49 1 22 48
M  V30 50 1 22 49
M  V30 51 1 23 50
M  V30 52 1 23 51
M  V30 53 1 23 52
M  V30 54 1 24 53
M  V30 55 1 24 54
M  V30 56 1 24 55
M  V30 END BOND
M  V30 END CTAB
M  END
>  <NO.>
5215

>  <Name>
carbetapentane

>  <SMILES>
CCN(CC)CCOCCOC(=O)C1(c2ccccc2)CCCC1

>  <logBB>


>  <Class>
-1

>  <MW>
333.23

>  <nHBAcc>
4

>  <nHBDon>
0

>  <SLogP>
3.4

>  <TopoPSA>
38.77

>  <MMFF94 Energy>
84.541

$$$$
CCN(CC)Cc1nccn1-c1ccc([N+](=O)[O-])cc1C(=O)c1ccccc1Cl
Actelion Java MolfileCreator 2.0

  0  0  0  0  0  0              0 V3000
M  V30 BEGIN CTAB
M  V30 COUNTS 50 52 0 0 0
M  V30 BEGIN ATOM
M  V30 1 Cl -2.5728 0.1606 0.3213 0
M  V30 2 C -2.4385 -0.8615 1.7022 0
M  V30 3 C -1.2288 -1.4192 2.1318 0
M  V30 4 C -3.6129 -1.1139 2.4218 0
M  V30 5 C 0.074 -1.2256 1.4499 0
M  V30 6 C -1.2041 -2.1954 3.3029 0
M  V30 7 C -3.5834 -1.905 3.5715 0
M  V30 8 O 1.0115 -0.8646 2.154 0
M  V30 9 C 0.2853 -1.562 0.0054 0
M  V30 10 C -2.378 -2.4413 4.0156 0
M  V30 11 C 1.3714 -1.0685 -0.7466 0
M  V30 12 C -0.6053 -2.4484 -0.6275 0
M  V30 13 N 2.3692 -0.2415 -0.1882 0
M  V30 14 C 1.5392 -1.4135 -2.1004 0
M  V30 15 C -0.4409 -2.7782 -1.9834 0
M  V30 16 C 2.5774 1.1087 -0.4167 0
M  V30 17 C 3.4588 -0.6971 0.5165 0
M  V30 18 C 0.6255 -2.2599 -2.7241 0
M  V30 19 N -1.398 -3.6871 -2.6291 0 CHG=1
M  V30 20 N 3.7081 1.5129 0.1398 0
M  V30 21 C 1.6482 1.9782 -1.211 0
M  V30 22 C 4.2452 0.4056 0.7369 0
M  V30 23 O -2.3081 -4.1536 -1.9298 0
M  V30 24 O -1.2361 -3.9348 -3.8318 0 CHG=-1
M  V30 25 N 0.2959 2.0913 -0.6333 0
M  V30 26 C -0.6118 2.839 -1.5178 0
M  V30 27 C 0.3061 2.6647 0.7296 0
M  V30 28 C -0.9938 2.0535 -2.7695 0
M  V30 29 C 0.8512 4.083 0.8777 0
M  V30 30 H -4.5595 -0.6874 2.0961 0
M  V30 31 H -0.2629 -2.607 3.6651 0
M  V30 32 H -4.4999 -2.0917 4.127 0
M  V30 33 H -2.3489 -3.0447 4.9202 0
M  V30 34 H -1.4292 -2.8917 -0.0722 0
M  V30 35 H 2.3853 -1.0314 -2.6709 0
M  V30 36 H 3.5568 -1.7296 0.8174 0
M  V30 37 H 0.7659 -2.5137 -3.7732 0
M  V30 38 H 2.1035 2.968 -1.3394 0
M  V30 39 H 1.5981 1.5459 -2.2163 0
M  V30 40 H 5.1766 0.4571 1.2852 0
M  V30 41 H -1.5468 3.0523 -0.9845 0
M  V30 42 H -0.1842 3.8057 -1.8098 0
M  V30 43 H -0.7192 2.6494 1.1206 0
M  V30 44 H 0.8617 2.003 1.4045 0
M  V30 45 H -1.7897 2.5786 -3.3083 0
M  V30 46 H -1.3648 1.0553 -2.5158 0
M  V30 47 H -0.1519 1.9441 -3.4589 0
M  V30 48 H 0.7683 4.4009 1.9226 0
M  V30 49 H 0.2888 4.8001 0.2726 0
M  V30 50 H 1.9075 4.1454 0.6017 0
M  V30 END ATOM
M  V30 BEGIN BOND
M  V30 1 1 1 2
M  V30 2 2 2 3
M  V30 3 1 2 4
M  V30 4 1 3 5
M  V30 5 1 3 6
M  V30 6 2 4 7
M  V30 7 2 5 8
M  V30 8 1 5 9
M  V30 9 2 6 10
M  V30 10 2 9 11
M  V30 11 1 9 12
M  V30 12 1 11 13
M  V30 13 1 11 14
M  V30 14 2 12 15
M  V30 15 1 13 16
M  V30 16 1 13 17
M  V30 17 2 14 18
M  V30 18 1 15 19
M  V30 19 2 16 20
M  V30 20 1 16 21
M  V30 21 2 17 22
M  V30 22 2 19 23
M  V30 23 1 19 24
M  V30 24 1 21 25
M  V30 25 1 25 26
M  V30 26 1 25 27
M  V30 27 1 26 28
M  V30 28 1 27 29
M  V30 29 1 7 10
M  V30 30 1 15 18
M  V30 31 1 20 22
M  V30 32 1 4 30
M  V30 33 1 6 31
M  V30 34 1 7 32
M  V30 35 1 10 33
M  V30 36 1 12 34
M  V30 37 1 14 35
M  V30 38 1 17 36
M  V30 39 1 18 37
M  V30 40 1 21 38
M  V30 41 1 21 39
M  V30 42 1 22 40
M  V30 43 1 26 41
M  V30 44 1 26 42
M  V30 45 1 27 43
M  V30 46 1 27 44
M  V30 47 1 28 45
M  V30 48 1 28 46
M  V30 49 1 28 47
M  V30 50 1 29 48
M  V30 51 1 29 49
M  V30 52 1 29 50
M  V30 END BOND
M  V30 END CTAB
M  END
>  <NO.>
5217

>  <Name>
nizofenone

>  <SMILES>
CCN(CC)Cc1nccn1-c1ccc([N+](=O)[O-])cc1C(=O)c1ccccc1Cl

>  <logBB>


>  <Class>
1

>  <MW>
412.13

>  <nHBAcc>
5

>  <nHBDon>
0

>  <SLogP>
4.51

>  <TopoPSA>
81.27

>  <MMFF94 Energy>
118.87

$$$$
CCN(CCCCOC(=O)c1ccc(OC)c(OC)c1)C(C)Cc1ccc(OC)cc1
Actelion Java MolfileCreator 2.0

  0  0  0  0  0  0              0 V3000
M  V30 BEGIN CTAB
M  V30 COUNTS 66 67 0 0 0
M  V30 BEGIN ATOM
M  V30 1 O 0.3923 -3.7712 -2.906 0
M  V30 2 C -0.7067 -3.6229 -2.3959 0
M  V30 3 O -1.1324 -2.5163 -1.7372 0
M  V30 4 C -1.772 -4.6625 -2.4232 0
M  V30 5 C -0.1601 -1.4644 -1.664 0
M  V30 6 C -3.0259 -4.4714 -1.8256 0
M  V30 7 C -1.4948 -5.8694 -3.0737 0
M  V30 8 C -0.7911 -0.2951 -0.9168 0
M  V30 9 C -3.9962 -5.48 -1.8783 0
M  V30 10 C -2.4579 -6.8798 -3.1306 0
M  V30 11 C 0.1774 0.8797 -0.7872 0
M  V30 12 O -5.2483 -5.3796 -1.3223 0
M  V30 13 C -3.7102 -6.6947 -2.5366 0
M  V30 14 C -0.4715 2.0485 -0.0306 0
M  V30 15 C -5.577 -4.1793 -0.6377 0
M  V30 16 O -4.7162 -7.6285 -2.5421 0
M  V30 17 N 0.4741 3.1566 0.1718 0
M  V30 18 C -4.4651 -8.866 -3.1921 0
M  V30 19 C 0.165 4.004 1.3553 0 CFG=2
M  V30 20 C 0.6611 3.9576 -1.0496 0
M  V30 21 C 0.6482 3.342 2.6743 0
M  V30 22 C -1.318 4.3934 1.4796 0
M  V30 23 C 2.0348 4.6217 -1.083 0
M  V30 24 C 2.1529 3.3398 2.8304 0
M  V30 25 C 2.9225 2.2975 2.3045 0
M  V30 26 C 2.8031 4.3939 3.4846 0
M  V30 27 C 4.3125 2.3077 2.4389 0
M  V30 28 C 4.1964 4.4015 3.6192 0
M  V30 29 C 4.9576 3.3565 3.0967 0
M  V30 30 O 6.3193 3.2425 3.1582 0
M  V30 31 C 7.0219 4.2913 3.8116 0
M  V30 32 H 0.123 -1.1561 -2.6772 0
M  V30 33 H 0.7254 -1.8228 -1.1265 0
M  V30 34 H -3.2311 -3.5325 -1.3238 0
M  V30 35 H -0.5248 -6.0304 -3.5414 0
M  V30 36 H -1.7026 0.0203 -1.4397 0
M  V30 37 H -1.1158 -0.6326 0.0754 0
M  V30 38 H -2.1977 -7.7983 -3.646 0
M  V30 39 H 1.0771 0.5508 -0.2524 0
M  V30 40 H 0.4945 1.1885 -1.7889 0
M  V30 41 H -1.3727 2.391 -0.555 0
M  V30 42 H -0.8016 1.6491 0.9353 0
M  V30 43 H -4.9186 -4.0221 0.2227 0
M  V30 44 H -6.599 -4.2791 -0.2595 0
M  V30 45 H -5.5565 -3.3198 -1.3156 0
M  V30 46 H -4.2734 -8.7195 -4.26 0
M  V30 47 H -5.3647 -9.4818 -3.0979 0
M  V30 48 H -3.6421 -9.4049 -2.7113 0
M  V30 49 H 0.7175 4.948 1.2712 0
M  V30 50 H 0.6036 3.3273 -1.9434 0
M  V30 51 H -0.127 4.711 -1.1625 0
M  V30 52 H 0.221 3.8814 3.5308 0
M  V30 53 H 0.2708 2.3168 2.7718 0
M  V30 54 H -1.9527 3.5344 1.7199 0
M  V30 55 H -1.449 5.1287 2.2817 0
M  V30 56 H -1.692 4.8512 0.5585 0
M  V30 57 H 2.1784 5.1299 -2.0424 0
M  V30 58 H 2.8321 3.8783 -0.9769 0
M  V30 59 H 2.1562 5.37 -0.2949 0
M  V30 60 H 2.4446 1.4772 1.7748 0
M  V30 61 H 2.2287 5.2211 3.8952 0
M  V30 62 H 4.8974 1.4923 2.0216 0
M  V30 63 H 4.6528 5.2388 4.1354 0
M  V30 64 H 6.8755 5.2462 3.2959 0
M  V30 65 H 8.0891 4.0532 3.7734 0
M  V30 66 H 6.7346 4.3625 4.8658 0
M  V30 END ATOM
M  V30 BEGIN BOND
M  V30 1 2 1 2
M  V30 2 1 2 3
M  V30 3 1 2 4
M  V30 4 1 3 5
M  V30 5 2 4 6
M  V30 6 1 4 7
M  V30 7 1 5 8
M  V30 8 1 6 9
M  V30 9 2 7 10
M  V30 10 1 8 11
M  V30 11 1 9 12
M  V30 12 2 9 13
M  V30 13 1 11 14
M  V30 14 1 12 15
M  V30 15 1 13 16
M  V30 16 1 14 17
M  V30 17 1 16 18
M  V30 18 1 17 19
M  V30 19 1 17 20
M  V30 20 1 19 21
M  V30 21 1 19 22
M  V30 22 1 20 23
M  V30 23 1 21 24
M  V30 24 2 24 25
M  V30 25 1 24 26
M  V30 26 1 25 27
M  V30 27 2 26 28
M  V30 28 2 27 29
M  V30 29 1 29 30
M  V30 30 1 30 31
M  V30 31 1 10 13
M  V30 32 1 28 29
M  V30 33 1 5 32
M  V30 34 1 5 33
M  V30 35 1 6 34
M  V30 36 1 7 35
M  V30 37 1 8 36
M  V30 38 1 8 37
M  V30 39 1 10 38
M  V30 40 1 11 39
M  V30 41 1 11 40
M  V30 42 1 14 41
M  V30 43 1 14 42
M  V30 44 1 15 43
M  V30 45 1 15 44
M  V30 46 1 15 45
M  V30 47 1 18 46
M  V30 48 1 18 47
M  V30 49 1 18 48
M  V30 50 1 19 49
M  V30 51 1 20 50
M  V30 52 1 20 51
M  V30 53 1 21 52
M  V30 54 1 21 53
M  V30 55 1 22 54
M  V30 56 1 22 55
M  V30 57 1 22 56
M  V30 58 1 23 57
M  V30 59 1 23 58
M  V30 60 1 23 59
M  V30 61 1 25 60
M  V30 62 1 26 61
M  V30 63 1 27 62
M  V30 64 1 28 63
M  V30 65 1 31 64
M  V30 66 1 31 65
M  V30 67 1 31 66
M  V30 END BOND
M  V30 BEGIN COLLECTION
M  V30 MDLV30/STERAC1 ATOMS=(1 19)
M  V30 END COLLECTION
M  V30 END CTAB
M  END
>  <NO.>
5218

>  <Name>
mebeverine

>  <SMILES>
CCN(CCCCOC(=O)c1ccc(OC)c(OC)c1)C(C)Cc1ccc(OC)cc1

>  <logBB>


>  <Class>
-1

>  <MW>
429.25

>  <nHBAcc>
6

>  <nHBDon>
0

>  <SLogP>
4.6

>  <TopoPSA>
57.23

>  <MMFF94 Energy>
90.989

$$$$
CCNC(C)Cc1cccc(C(F)(F)F)c1
Actelion Java MolfileCreator 2.0

  0  0  0  0  0  0              0 V3000
M  V30 BEGIN CTAB
M  V30 COUNTS 32 32 0 0 0
M  V30 BEGIN ATOM
M  V30 1 F -3.4831 1.1072 -0.4744 0
M  V30 2 C -3.4559 1.0413 0.8868 0
M  V30 3 F -4.4051 0.1293 1.235 0
M  V30 4 F -3.9166 2.2467 1.3246 0
M  V30 5 C -2.0939 0.69 1.4318 0
M  V30 6 C -1.2479 -0.179 0.7226 0
M  V30 7 C -1.6663 1.1934 2.6683 0
M  V30 8 C 0.0151 -0.5297 1.2223 0
M  V30 9 C -0.4159 0.8455 3.1774 0
M  V30 10 C 0.4186 -0.0109 2.4593 0
M  V30 11 C 0.9226 -1.4571 0.443 0
M  V30 12 C 1.9089 -0.7845 -0.5477 0 CFG=1
M  V30 13 N 1.2857 0.0571 -1.5796 0
M  V30 14 C 2.948 0.0752 0.1802 0
M  V30 15 C 0.5786 -0.7077 -2.6014 0
M  V30 16 C -0.0302 0.2437 -3.6207 0
M  V30 17 H -1.5828 -0.5858 -0.2311 0
M  V30 18 H -2.3086 1.8607 3.2416 0
M  V30 19 H -0.0902 1.2409 4.1368 0
M  V30 20 H 1.3902 -0.2715 2.8744 0
M  V30 21 H 0.2996 -2.1834 -0.095 0
M  V30 22 H 1.4964 -2.0632 1.1577 0
M  V30 23 H 2.4704 -1.5873 -1.0442 0
M  V30 24 H 0.66 0.7339 -1.1412 0
M  V30 25 H 3.7212 0.4194 -0.5163 0
M  V30 26 H 2.5014 0.9634 0.6399 0
M  V30 27 H 3.4482 -0.5013 0.9658 0
M  V30 28 H -0.2216 -1.3141 -2.1662 0
M  V30 29 H 1.2726 -1.3813 -3.1164 0
M  V30 30 H -0.7571 0.9157 -3.1516 0
M  V30 31 H 0.7405 0.8539 -4.1037 0
M  V30 32 H -0.5496 -0.322 -4.4009 0
M  V30 END ATOM
M  V30 BEGIN BOND
M  V30 1 1 1 2
M  V30 2 1 2 3
M  V30 3 1 2 4
M  V30 4 1 2 5
M  V30 5 2 5 6
M  V30 6 1 5 7
M  V30 7 1 6 8
M  V30 8 2 7 9
M  V30 9 2 8 10
M  V30 10 1 8 11
M  V30 11 1 11 12
M  V30 12 1 12 13
M  V30 13 1 12 14
M  V30 14 1 13 15
M  V30 15 1 15 16
M  V30 16 1 9 10
M  V30 17 1 6 17
M  V30 18 1 7 18
M  V30 19 1 9 19
M  V30 20 1 10 20
M  V30 21 1 11 21
M  V30 22 1 11 22
M  V30 23 1 12 23
M  V30 24 1 13 24
M  V30 25 1 14 25
M  V30 26 1 14 26
M  V30 27 1 14 27
M  V30 28 1 15 28
M  V30 29 1 15 29
M  V30 30 1 16 30
M  V30 31 1 16 31
M  V30 32 1 16 32
M  V30 END BOND
M  V30 BEGIN COLLECTION
M  V30 MDLV30/STERAC1 ATOMS=(1 12)
M  V30 END COLLECTION
M  V30 END CTAB
M  END
>  <NO.>
5219

>  <Name>
fenfluramine

>  <SMILES>
CCNC(C)Cc1cccc(C(F)(F)F)c1

>  <logBB>


>  <Class>
1

>  <MW>
231.12

>  <nHBAcc>
1

>  <nHBDon>
1

>  <SLogP>
3.25

>  <TopoPSA>
12.03

>  <MMFF94 Energy>
54.543

$$$$
CCOC(=O)C(CCc1ccccc1)NC(C)C(=O)N1C(C(=O)O)CC2CCCC21
Actelion Java MolfileCreator 2.0

  0  0  0  0  0  0              0 V3000
M  V30 BEGIN CTAB
M  V30 COUNTS 62 64 0 0 0
M  V30 BEGIN ATOM
M  V30 1 O 0.4762 -1.3498 -2.1444 0
M  V30 2 C 1.4096 -2.0175 -1.7297 0
M  V30 3 O 2.4335 -2.3335 -2.5498 0
M  V30 4 C 1.6037 -2.5656 -0.3103 0
M  V30 5 N 0.5167 -2.1478 0.5786 0
M  V30 6 C 1.502 -4.0863 -0.3081 0
M  V30 7 C 0.3402 -0.9056 1.15 0
M  V30 8 C -0.5195 -3.1661 0.6723 0
M  V30 9 C -0.0042 -4.3504 -0.1607 0
M  V30 10 O -0.693 -0.6188 1.7642 0
M  V30 11 C 1.4878 0.1276 1.0367 0
M  V30 12 C -0.7561 -3.7124 2.0888 0
M  V30 13 C -0.3306 -5.5935 0.6549 0
M  V30 14 N 0.9295 1.5011 1.0521 0
M  V30 15 C 2.402 -0.0367 2.2485 0
M  V30 16 C -0.1958 -5.1305 2.0982 0
M  V30 17 C 0.3325 1.8769 -0.2542 0
M  V30 18 C 1.4154 2.5067 -1.1527 0
M  V30 19 C -0.8158 2.8918 -0.0832 0
M  V30 20 O 1.6463 3.7061 -1.2528 0
M  V30 21 O 2.1052 1.5336 -1.8241 0
M  V30 22 C -2.0705 2.2811 0.5503 0
M  V30 23 C 3.1573 2.0404 -2.6524 0
M  V30 24 C -3.2222 3.2574 0.5482 0
M  V30 25 C 3.8313 0.8657 -3.3333 0
M  V30 26 C -3.3227 4.238 1.5442 0
M  V30 27 C -4.1914 3.2129 -0.4625 0
M  V30 28 C -4.3781 5.1513 1.5338 0
M  V30 29 C -5.2463 4.127 -0.4712 0
M  V30 30 C -5.3399 5.0953 0.5269 0
M  V30 31 H 2.1878 -1.9172 -3.4039 0
M  V30 32 H 2.5649 -2.2094 0.0708 0
M  V30 33 H 2.0611 -4.486 0.5459 0
M  V30 34 H 1.9041 -4.5598 -1.2094 0
M  V30 35 H -1.451 -2.7545 0.2658 0
M  V30 36 H -0.4755 -4.3797 -1.1497 0
M  V30 37 H 2.0797 -0.0285 0.1342 0
M  V30 38 H -0.3102 -3.1025 2.8806 0
M  V30 39 H -1.8361 -3.757 2.2764 0
M  V30 40 H 0.324 -6.4397 0.4267 0
M  V30 41 H -1.3656 -5.9015 0.4631 0
M  V30 42 H 0.1967 1.5001 1.768 0
M  V30 43 H 1.8567 0.1089 3.1885 0
M  V30 44 H 2.8335 -1.0429 2.2783 0
M  V30 45 H 3.2278 0.6823 2.218 0
M  V30 46 H -0.7358 -5.7814 2.7924 0
M  V30 47 H 0.8561 -5.1177 2.4043 0
M  V30 48 H -0.0822 1.008 -0.7799 0
M  V30 49 H -1.0769 3.3001 -1.0696 0
M  V30 50 H -0.4757 3.7505 0.5119 0
M  V30 51 H -2.3621 1.3723 0.009 0
M  V30 52 H -1.8785 1.9709 1.5839 0
M  V30 53 H 3.8871 2.5771 -2.0359 0
M  V30 54 H 2.7424 2.7162 -3.4086 0
M  V30 55 H 4.6543 1.2032 -3.9693 0
M  V30 56 H 4.2225 0.162 -2.5911 0
M  V30 57 H 3.1129 0.3149 -3.9491 0
M  V30 58 H -2.5767 4.2954 2.3337 0
M  V30 59 H -4.1299 2.4651 -1.2496 0
M  V30 60 H -4.448 5.9076 2.3111 0
M  V30 61 H -5.9945 4.0841 -1.258 0
M  V30 62 H -6.1608 5.8071 0.5191 0
M  V30 END ATOM
M  V30 BEGIN BOND
M  V30 1 2 1 2
M  V30 2 1 2 3
M  V30 3 1 2 4
M  V30 4 1 4 5
M  V30 5 1 4 6
M  V30 6 1 5 7
M  V30 7 1 5 8
M  V30 8 1 6 9
M  V30 9 2 7 10
M  V30 10 1 7 11
M  V30 11 1 8 12
M  V30 12 1 9 13
M  V30 13 1 11 14
M  V30 14 1 11 15
M  V30 15 1 12 16
M  V30 16 1 14 17
M  V30 17 1 17 18
M  V30 18 1 17 19
M  V30 19 2 18 20
M  V30 20 1 18 21
M  V30 21 1 19 22
M  V30 22 1 21 23
M  V30 23 1 22 24
M  V30 24 1 23 25
M  V30 25 2 24 26
M  V30 26 1 24 27
M  V30 27 1 26 28
M  V30 28 2 27 29
M  V30 29 2 28 30
M  V30 30 1 8 9
M  V30 31 1 13 16
M  V30 32 1 29 30
M  V30 33 1 3 31
M  V30 34 1 4 32
M  V30 35 1 6 33
M  V30 36 1 6 34
M  V30 37 1 8 35
M  V30 38 1 9 36
M  V30 39 1 11 37
M  V30 40 1 12 38
M  V30 41 1 12 39
M  V30 42 1 13 40
M  V30 43 1 13 41
M  V30 44 1 14 42
M  V30 45 1 15 43
M  V30 46 1 15 44
M  V30 47 1 15 45
M  V30 48 1 16 46
M  V30 49 1 16 47
M  V30 50 1 17 48
M  V30 51 1 19 49
M  V30 52 1 19 50
M  V30 53 1 22 51
M  V30 54 1 22 52
M  V30 55 1 23 53
M  V30 56 1 23 54
M  V30 57 1 25 55
M  V30 58 1 25 56
M  V30 59 1 25 57
M  V30 60 1 26 58
M  V30 61 1 27 59
M  V30 62 1 28 60
M  V30 63 1 29 61
M  V30 64 1 30 62
M  V30 END BOND
M  V30 END CTAB
M  END
>  <NO.>
5220

>  <Name>
ramipril

>  <SMILES>
CCOC(=O)C(CCc1ccccc1)NC(C)C(=O)N1C(C(=O)O)CC2CCCC21

>  <logBB>


>  <Class>
-1

>  <MW>
416.23

>  <nHBAcc>
5

>  <nHBDon>
2

>  <SLogP>
2.38

>  <TopoPSA>
95.94

>  <MMFF94 Energy>
108.2

$$$$
CCOC(=O)C(CCc1ccccc1)NC(C)C(=O)N1C(C(=O)O)CC2CCCCC21
Actelion Java MolfileCreator 2.0

  0  0  0  0  0  0              0 V3000
M  V30 BEGIN CTAB
M  V30 COUNTS 65 67 0 0 0
M  V30 BEGIN ATOM
M  V30 1 O 1.1898 -3.8112 2.1424 0
M  V30 2 C 0.2854 -3.2454 1.5515 0
M  V30 3 O -0.5628 -3.9541 0.7758 0
M  V30 4 C -0.0588 -1.7553 1.5803 0
M  V30 5 N 1.1378 -0.901 1.5539 0
M  V30 6 C -0.7478 -1.4127 2.9052 0
M  V30 7 C 1.9944 -0.6616 0.4927 0
M  V30 8 C 1.3238 -0.2138 2.8362 0
M  V30 9 C 0.4281 -1.0045 3.8028 0
M  V30 10 O 2.9708 0.0814 0.6265 0
M  V30 11 C 1.6877 -1.3509 -0.861 0
M  V30 12 C 0.9275 1.2681 2.7113 0
M  V30 13 C 0.032 -0.2696 5.0795 0
M  V30 14 N 1.8326 -0.4293 -2.0026 0
M  V30 15 C 2.6762 -2.501 -1.0486 0
M  V30 16 C 0.6959 1.928 4.0634 0
M  V30 17 C -0.3685 1.1829 4.857 0
M  V30 18 C 1.0554 0.827 -1.9475 0
M  V30 19 C 1.2168 1.5642 -3.2901 0
M  V30 20 C -0.4442 0.6883 -1.6379 0
M  V30 21 O 1.3679 1.0063 -4.3719 0
M  V30 22 O 1.1087 2.9116 -3.1082 0
M  V30 23 C -1.2217 -0.1983 -2.619 0
M  V30 24 C 1.2401 3.7128 -4.2908 0
M  V30 25 C -2.6103 -0.4897 -2.102 0
M  V30 26 C 2.7035 3.9976 -4.5717 0
M  V30 27 C -2.8976 -1.7184 -1.4917 0
M  V30 28 C -3.6224 0.4744 -2.1992 0
M  V30 29 C -4.1736 -1.9773 -0.9892 0
M  V30 30 C -4.898 0.2131 -1.6966 0
M  V30 31 C -5.1732 -1.0117 -1.0915 0
M  V30 32 H -0.242 -4.8782 0.8619 0
M  V30 33 H -0.7029 -1.5171 0.7309 0
M  V30 34 H -1.4382 -0.5741 2.7579 0
M  V30 35 H -1.3165 -2.2476 3.3276 0
M  V30 36 H 2.375 -0.283 3.1412 0
M  V30 37 H 0.9534 -1.9236 4.0982 0
M  V30 38 H 0.6802 -1.7672 -0.8757 0
M  V30 39 H 0.0161 1.3674 2.1066 0
M  V30 40 H 1.7058 1.818 2.1692 0
M  V30 41 H 0.8896 -0.2858 5.7649 0
M  V30 42 H -0.7798 -0.804 5.5864 0
M  V30 43 H 1.6583 -0.9074 -2.888 0
M  V30 44 H 2.6216 -3.2075 -0.2144 0
M  V30 45 H 3.7098 -2.1386 -1.0967 0
M  V30 46 H 2.4668 -3.0546 -1.9705 0
M  V30 47 H 0.3825 2.9676 3.9153 0
M  V30 48 H 1.6349 1.9532 4.6295 0
M  V30 49 H -0.5153 1.6738 5.826 0
M  V30 50 H -1.3283 1.2318 4.3295 0
M  V30 51 H 1.5186 1.4674 -1.1867 0
M  V30 52 H -0.5682 0.3154 -0.6159 0
M  V30 53 H -0.9003 1.688 -1.6343 0
M  V30 54 H -1.3009 0.2894 -3.5982 0
M  V30 55 H -0.7008 -1.146 -2.7947 0
M  V30 56 H 0.7128 4.6532 -4.0997 0
M  V30 57 H 0.7505 3.2392 -5.1494 0
M  V30 58 H 2.8109 4.6577 -5.4369 0
M  V30 59 H 3.1762 4.4712 -3.7049 0
M  V30 60 H 3.2536 3.072 -4.7681 0
M  V30 61 H -2.1307 -2.4848 -1.405 0
M  V30 62 H -3.423 1.4354 -2.6682 0
M  V30 63 H -4.389 -2.9342 -0.5211 0
M  V30 64 H -5.678 0.9656 -1.7787 0
M  V30 65 H -6.1677 -1.2145 -0.7031 0
M  V30 END ATOM
M  V30 BEGIN BOND
M  V30 1 2 1 2
M  V30 2 1 2 3
M  V30 3 1 2 4
M  V30 4 1 4 5
M  V30 5 1 4 6
M  V30 6 1 5 7
M  V30 7 1 5 8
M  V30 8 1 6 9
M  V30 9 2 7 10
M  V30 10 1 7 11
M  V30 11 1 8 12
M  V30 12 1 9 13
M  V30 13 1 11 14
M  V30 14 1 11 15
M  V30 15 1 12 16
M  V30 16 1 13 17
M  V30 17 1 14 18
M  V30 18 1 18 19
M  V30 19 1 18 20
M  V30 20 2 19 21
M  V30 21 1 19 22
M  V30 22 1 20 23
M  V30 23 1 22 24
M  V30 24 1 23 25
M  V30 25 1 24 26
M  V30 26 2 25 27
M  V30 27 1 25 28
M  V30 28 1 27 29
M  V30 29 2 28 30
M  V30 30 2 29 31
M  V30 31 1 8 9
M  V30 32 1 16 17
M  V30 33 1 30 31
M  V30 34 1 3 32
M  V30 35 1 4 33
M  V30 36 1 6 34
M  V30 37 1 6 35
M  V30 38 1 8 36
M  V30 39 1 9 37
M  V30 40 1 11 38
M  V30 41 1 12 39
M  V30 42 1 12 40
M  V30 43 1 13 41
M  V30 44 1 13 42
M  V30 45 1 14 43
M  V30 46 1 15 44
M  V30 47 1 15 45
M  V30 48 1 15 46
M  V30 49 1 16 47
M  V30 50 1 16 48
M  V30 51 1 17 49
M  V30 52 1 17 50
M  V30 53 1 18 51
M  V30 54 1 20 52
M  V30 55 1 20 53
M  V30 56 1 23 54
M  V30 57 1 23 55
M  V30 58 1 24 56
M  V30 59 1 24 57
M  V30 60 1 26 58
M  V30 61 1 26 59
M  V30 62 1 26 60
M  V30 63 1 27 61
M  V30 64 1 28 62
M  V30 65 1 29 63
M  V30 66 1 30 64
M  V30 67 1 31 65
M  V30 END BOND
M  V30 END CTAB
M  END
>  <NO.>
5221

>  <Name>
indolapril

>  <SMILES>
CCOC(=O)C(CCc1ccccc1)NC(C)C(=O)N1C(C(=O)O)CC2CCCCC21

>  <logBB>


>  <Class>
-1

>  <MW>
430.25

>  <nHBAcc>
5

>  <nHBDon>
2

>  <SLogP>
2.77

>  <TopoPSA>
95.94

>  <MMFF94 Energy>
109.37

$$$$
CCOC(=O)C(CCc1ccccc1)NC(C)C(=O)N1CC2(CC1C(=O)O)SCCS2
Actelion Java MolfileCreator 2.0

  0  0  0  0  0  0              0 V3000
M  V30 BEGIN CTAB
M  V30 COUNTS 61 63 0 0 0
M  V30 BEGIN ATOM
M  V30 1 S 5.0394 1.1362 -1.5423 0
M  V30 2 C 3.479 0.9872 -0.6186 0
M  V30 3 C 4.5779 -0.0109 -2.8612 0
M  V30 4 S 2.1358 0.5439 -1.8067 0
M  V30 5 C 3.5649 -0.034 0.5237 0
M  V30 6 C 3.1176 2.2707 0.1314 0
M  V30 7 C 3.1722 0.3613 -3.287 0
M  V30 8 N 2.5118 0.3742 1.4452 0
M  V30 9 C 2.2027 1.8034 1.282 0
M  V30 10 C 1.8478 -0.5744 2.2008 0
M  V30 11 C 2.4992 2.6226 2.5405 0
M  V30 12 O 2.2436 -1.7438 2.2182 0
M  V30 13 C 0.5764 -0.1426 2.9762 0
M  V30 14 O 2.7013 2.1976 3.6658 0
M  V30 15 O 2.4344 3.9532 2.3244 0
M  V30 16 N -0.6228 -0.8411 2.4527 0
M  V30 17 C 0.7492 -0.527 4.446 0
M  V30 18 C -0.9754 -0.4881 1.055 0
M  V30 19 C -1.5405 0.9398 0.9948 0
M  V30 20 C -2.035 -1.4891 0.569 0
M  V30 21 O -2.1663 1.4828 1.8978 0
M  V30 22 O -1.2308 1.5217 -0.1972 0
M  V30 23 C -2.3035 -1.3756 -0.9362 0
M  V30 24 C -1.7141 2.8612 -0.3492 0
M  V30 25 C -3.2689 -2.4339 -1.4098 0
M  V30 26 C -1.2251 3.3882 -1.6837 0
M  V30 27 C -2.801 -3.6925 -1.8102 0
M  V30 28 C -4.6474 -2.1829 -1.4278 0
M  V30 29 C -3.6951 -4.6775 -2.2324 0
M  V30 30 C -5.5398 -3.1692 -1.8508 0
M  V30 31 C -5.0636 -4.4153 -2.254 0
M  V30 32 H 5.2777 0.077 -3.6973 0
M  V30 33 H 4.6276 -1.0387 -2.486 0
M  V30 34 H 3.4489 -1.0733 0.1977 0
M  V30 35 H 4.5075 0.0495 1.0792 0
M  V30 36 H 4.0228 2.7382 0.5441 0
M  V30 37 H 2.6281 3.0292 -0.4908 0
M  V30 38 H 2.7461 -0.4057 -3.9406 0
M  V30 39 H 3.163 1.3077 -3.8394 0
M  V30 40 H 1.1456 1.911 1.0309 0
M  V30 41 H 0.4175 0.9353 2.9293 0
M  V30 42 H 2.603 4.3483 3.2075 0
M  V30 43 H -1.4212 -0.6176 3.052 0
M  V30 44 H 1.653 -0.0707 4.8635 0
M  V30 45 H 0.8448 -1.6115 4.5738 0
M  V30 46 H -0.1047 -0.1898 5.0438 0
M  V30 47 H -0.087 -0.5616 0.4202 0
M  V30 48 H -2.975 -1.346 1.1196 0
M  V30 49 H -1.6951 -2.5101 0.7911 0
M  V30 50 H -2.7132 -0.3899 -1.1852 0
M  V30 51 H -1.3647 -1.4654 -1.4971 0
M  V30 52 H -1.3277 3.4911 0.4599 0
M  V30 53 H -2.8095 2.86 -0.3272 0
M  V30 54 H -1.5769 4.4098 -1.8526 0
M  V30 55 H -0.1308 3.3806 -1.7227 0
M  V30 56 H -1.5774 2.7521 -2.5024 0
M  V30 57 H -1.7362 -3.914 -1.7907 0
M  V30 58 H -5.0351 -1.2177 -1.11 0
M  V30 59 H -3.3232 -5.6509 -2.5404 0
M  V30 60 H -6.6074 -2.9663 -1.8624 0
M  V30 61 H -5.7591 -5.1836 -2.5807 0
M  V30 END ATOM
M  V30 BEGIN BOND
M  V30 1 1 1 2
M  V30 2 1 1 3
M  V30 3 1 2 4
M  V30 4 1 2 5
M  V30 5 1 2 6
M  V30 6 1 3 7
M  V30 7 1 5 8
M  V30 8 1 6 9
M  V30 9 1 8 10
M  V30 10 1 9 11
M  V30 11 2 10 12
M  V30 12 1 10 13
M  V30 13 2 11 14
M  V30 14 1 11 15
M  V30 15 1 13 16
M  V30 16 1 13 17
M  V30 17 1 16 18
M  V30 18 1 18 19
M  V30 19 1 18 20
M  V30 20 2 19 21
M  V30 21 1 19 22
M  V30 22 1 20 23
M  V30 23 1 22 24
M  V30 24 1 23 25
M  V30 25 1 24 26
M  V30 26 2 25 27
M  V30 27 1 25 28
M  V30 28 1 27 29
M  V30 29 2 28 30
M  V30 30 2 29 31
M  V30 31 1 4 7
M  V30 32 1 8 9
M  V30 33 1 30 31
M  V30 34 1 3 32
M  V30 35 1 3 33
M  V30 36 1 5 34
M  V30 37 1 5 35
M  V30 38 1 6 36
M  V30 39 1 6 37
M  V30 40 1 7 38
M  V30 41 1 7 39
M  V30 42 1 9 40
M  V30 43 1 13 41
M  V30 44 1 15 42
M  V30 45 1 16 43
M  V30 46 1 17 44
M  V30 47 1 17 45
M  V30 48 1 17 46
M  V30 49 1 18 47
M  V30 50 1 20 48
M  V30 51 1 20 49
M  V30 52 1 23 50
M  V30 53 1 23 51
M  V30 54 1 24 52
M  V30 55 1 24 53
M  V30 56 1 26 54
M  V30 57 1 26 55
M  V30 58 1 26 56
M  V30 59 1 27 57
M  V30 60 1 28 58
M  V30 61 1 29 59
M  V30 62 1 30 60
M  V30 63 1 31 61
M  V30 END BOND
M  V30 END CTAB
M  END
>  <NO.>
5222

>  <Name>
spirapril

>  <SMILES>
CCOC(=O)C(CCc1ccccc1)NC(C)C(=O)N1CC2(CC1C(=O)O)SCCS2

>  <logBB>


>  <Class>
-1

>  <MW>
466.16

>  <nHBAcc>
7

>  <nHBDon>
2

>  <SLogP>
2.39

>  <TopoPSA>
95.94

>  <MMFF94 Energy>
120.54

$$$$
CCOC(=O)C(CCc1ccccc1)NC(C)C(=O)N1Cc2cc(OC)c(OC)cc2CC1C(=O)O
Actelion Java MolfileCreator 2.0

  0  0  0  0  0  0              0 V3000
M  V30 BEGIN CTAB
M  V30 COUNTS 70 72 0 0 0
M  V30 BEGIN ATOM
M  V30 1 O -1.8242 1.2687 4.6846 0
M  V30 2 C -0.8079 0.6967 5.0512 0
M  V30 3 O -0.6279 0.4272 6.3629 0
M  V30 4 C 0.3615 0.2265 4.1777 0
M  V30 5 N 0.1885 0.7007 2.7949 0
M  V30 6 C 0.5462 -1.2894 4.2395 0
M  V30 7 C 0.744 1.9332 2.4552 0
M  V30 8 C -0.7902 0.0093 1.9566 0
M  V30 9 C -0.5218 -2.0207 3.4698 0
M  V30 10 O 1.4641 2.5479 3.2477 0
M  V30 11 C 0.4457 2.5079 1.0391 0
M  V30 12 C -1.1452 -1.3964 2.3829 0
M  V30 13 C -0.8587 -3.3398 3.8097 0
M  V30 14 N 1.2326 1.7288 0.0604 0
M  V30 15 C 0.76 4.0053 1.0103 0
M  V30 16 C -2.1241 -2.0995 1.6599 0
M  V30 17 C -1.8335 -4.0376 3.0889 0
M  V30 18 C 0.9131 2.0263 -1.3571 0
M  V30 19 C -2.4753 -3.41 2.0048 0
M  V30 20 O -2.2276 -5.3247 3.3604 0
M  V30 21 C 1.823 3.1481 -1.8809 0
M  V30 22 C 1.1555 0.7405 -2.1621 0
M  V30 23 O -3.4207 -4.1587 1.348 0
M  V30 24 C -1.5847 -6.0004 4.431 0
M  V30 25 O 2.9745 3.3377 -1.5079 0
M  V30 26 O 1.1673 3.8918 -2.8158 0
M  V30 27 C 0.6892 0.857 -3.6179 0
M  V30 28 C -4.0929 -3.5607 0.25 0
M  V30 29 C 1.9445 4.9649 -3.3607 0
M  V30 30 C 0.8046 -0.4604 -4.3435 0
M  V30 31 C 1.0957 5.6877 -4.3881 0
M  V30 32 C 2.0216 -0.8484 -4.9197 0
M  V30 33 C -0.2941 -1.326 -4.4263 0
M  V30 34 C 2.1339 -2.0753 -5.5752 0
M  V30 35 C -0.1795 -2.5526 -5.0824 0
M  V30 36 C 1.0335 -2.9264 -5.6572 0
M  V30 37 H -1.4273 0.8039 6.7884 0
M  V30 38 H 1.2557 0.6952 4.6066 0
M  V30 39 H 0.5553 -1.6291 5.2819 0
M  V30 40 H 1.5143 -1.5565 3.7969 0
M  V30 41 H -0.413 -0.034 0.9316 0
M  V30 42 H -1.7011 0.6203 1.9588 0
M  V30 43 H -0.6259 2.3825 0.8484 0
M  V30 44 H -0.3438 -3.8017 4.646 0
M  V30 45 H 2.2322 1.9092 0.2155 0
M  V30 46 H 0.4168 4.4699 0.0811 0
M  V30 47 H 1.834 4.1954 1.1162 0
M  V30 48 H 0.2552 4.5209 1.8355 0
M  V30 49 H -2.5987 -1.5978 0.8224 0
M  V30 50 H -0.1374 2.3278 -1.4465 0
M  V30 51 H 2.2214 0.4746 -2.1411 0
M  V30 52 H 0.6176 -0.0897 -1.6835 0
M  V30 53 H -0.5112 -6.1071 4.2438 0
M  V30 54 H -2.0115 -7.0059 4.4962 0
M  V30 55 H -1.7732 -5.4977 5.3854 0
M  V30 56 H -0.351 1.2042 -3.6552 0
M  V30 57 H 1.2802 1.6063 -4.1577 0
M  V30 58 H -4.6618 -2.6802 0.5663 0
M  V30 59 H -4.8055 -4.2915 -0.1443 0
M  V30 60 H -3.3928 -3.3127 -0.5544 0
M  V30 61 H 2.8442 4.5638 -3.8404 0
M  V30 62 H 2.2287 5.6579 -2.5609 0
M  V30 63 H 1.6475 6.5192 -4.8351 0
M  V30 64 H 0.785 5.0012 -5.1827 0
M  V30 65 H 0.1812 6.0766 -3.9279 0
M  V30 66 H 2.8911 -0.1978 -4.8588 0
M  V30 67 H -1.2463 -1.0516 -3.9787 0
M  V30 68 H 3.0815 -2.3683 -6.0194 0
M  V30 69 H -1.0363 -3.2184 -5.1428 0
M  V30 70 H 1.1225 -3.8824 -6.1661 0
M  V30 END ATOM
M  V30 BEGIN BOND
M  V30 1 2 1 2
M  V30 2 1 2 3
M  V30 3 1 2 4
M  V30 4 1 4 5
M  V30 5 1 4 6
M  V30 6 1 5 7
M  V30 7 1 5 8
M  V30 8 1 6 9
M  V30 9 2 7 10
M  V30 10 1 7 11
M  V30 11 1 8 12
M  V30 12 1 9 13
M  V30 13 1 11 14
M  V30 14 1 11 15
M  V30 15 1 12 16
M  V30 16 2 13 17
M  V30 17 1 14 18
M  V30 18 2 16 19
M  V30 19 1 17 20
M  V30 20 1 18 21
M  V30 21 1 18 22
M  V30 22 1 19 23
M  V30 23 1 20 24
M  V30 24 2 21 25
M  V30 25 1 21 26
M  V30 26 1 22 27
M  V30 27 1 23 28
M  V30 28 1 26 29
M  V30 29 1 27 30
M  V30 30 1 29 31
M  V30 31 2 30 32
M  V30 32 1 30 33
M  V30 33 1 32 34
M  V30 34 2 33 35
M  V30 35 2 34 36
M  V30 36 2 9 12
M  V30 37 1 17 19
M  V30 38 1 35 36
M  V30 39 1 3 37
M  V30 40 1 4 38
M  V30 41 1 6 39
M  V30 42 1 6 40
M  V30 43 1 8 41
M  V30 44 1 8 42
M  V30 45 1 11 43
M  V30 46 1 13 44
M  V30 47 1 14 45
M  V30 48 1 15 46
M  V30 49 1 15 47
M  V30 50 1 15 48
M  V30 51 1 16 49
M  V30 52 1 18 50
M  V30 53 1 22 51
M  V30 54 1 22 52
M  V30 55 1 24 53
M  V30 56 1 24 54
M  V30 57 1 24 55
M  V30 58 1 27 56
M  V30 59 1 27 57
M  V30 60 1 28 58
M  V30 61 1 28 59
M  V30 62 1 28 60
M  V30 63 1 29 61
M  V30 64 1 29 62
M  V30 65 1 31 63
M  V30 66 1 31 64
M  V30 67 1 31 65
M  V30 68 1 32 66
M  V30 69 1 33 67
M  V30 70 1 34 68
M  V30 71 1 35 69
M  V30 72 1 36 70
M  V30 END BOND
M  V30 END CTAB
M  END
>  <NO.>
5223

>  <Name>
[3s-[2[r*(r*)],3r*]]-2-[2-[[1-(ethoxycarbonyl)-3-phenylpropyl]amino]-1-oxopropyl]-1,2,3,4tetrahydro-6,7-dimethoxy-3-isoquinolinecarboxylic acid, monohydrochloride;[3s-[2[r*(r*)],3r*]]-2-[2-[[1-(ethoxycarbonyl)-3-phenylpropyl]amino]-1-oxopropyl]-1,2,3,4tetrahydro-6,7-dimethoxy-3-isoquinolinecarboxylic acid, monohydrochloride

>  <SMILES>
CCOC(=O)C(CCc1ccccc1)NC(C)C(=O)N1Cc2cc(OC)c(OC)cc2CC1C(=O)O

>  <logBB>


>  <Class>
-1

>  <MW>
498.24

>  <nHBAcc>
7

>  <nHBDon>
2

>  <SLogP>
2.58

>  <TopoPSA>
114.4

>  <MMFF94 Energy>
134.25

$$$$
CCOC(=O)C(CCc1ccccc1)NC(C)C(=O)N1Cc2ccccc2CC1C(=O)O
Actelion Java MolfileCreator 2.0

  0  0  0  0  0  0              0 V3000
M  V30 BEGIN CTAB
M  V30 COUNTS 62 64 0 0 0
M  V30 BEGIN ATOM
M  V30 1 O -2.4636 -1.5888 0.397 0
M  V30 2 C -2.8151 -1.9588 1.5091 0
M  V30 3 O -4.0353 -2.5128 1.6769 0
M  V30 4 C -2.0205 -1.8411 2.817 0
M  V30 5 N -0.7481 -1.1462 2.5516 0
M  V30 6 C -1.8061 -3.1969 3.4886 0
M  V30 7 C -0.7342 0.2417 2.6901 0
M  V30 8 C 0.3086 -1.9063 1.8834 0
M  V30 9 C -0.7816 -4.0321 2.769 0
M  V30 10 O -1.6533 0.8307 3.2661 0
M  V30 11 C 0.429 1.0275 2.02 0
M  V30 12 C 0.2284 -3.4071 2.0229 0
M  V30 13 C -0.8014 -5.4286 2.8858 0
M  V30 14 N 0.0534 1.2915 0.613 0
M  V30 15 C 0.6384 2.3579 2.7465 0
M  V30 16 C 1.1984 -4.1991 1.388 0
M  V30 17 C 0.1654 -6.2033 2.2466 0
M  V30 18 C 1.2113 1.5036 -0.2815 0
M  V30 19 C 1.1647 -5.5891 1.497 0
M  V30 20 C 1.8262 0.1521 -0.6905 0
M  V30 21 C 0.7821 2.3335 -1.5035 0
M  V30 22 O 2.6625 -0.4447 -0.0198 0
M  V30 23 O 1.2499 -0.3446 -1.8192 0
M  V30 24 C 0.3849 3.7649 -1.1263 0
M  V30 25 C 1.7247 -1.6347 -2.2205 0
M  V30 26 C 0.0539 4.5845 -2.3497 0
M  V30 27 C 0.9796 -2.0424 -3.4761 0
M  V30 28 C 1.0405 5.3526 -2.982 0
M  V30 29 C -1.2406 4.5643 -2.8856 0
M  V30 30 C 0.7342 6.0944 -4.1241 0
M  V30 31 C -1.5449 5.3067 -4.0276 0
M  V30 32 C -0.5579 6.0719 -4.6461 0
M  V30 33 H -4.4296 -2.4876 0.7793 0
M  V30 34 H -2.6404 -1.2262 3.4808 0
M  V30 35 H -1.4434 -3.0402 4.5127 0
M  V30 36 H -2.754 -3.7437 3.5558 0
M  V30 37 H 1.2726 -1.5821 2.2868 0
M  V30 38 H 0.2633 -1.654 0.8199 0
M  V30 39 H 1.3522 0.4512 2.0979 0
M  V30 40 H -1.5705 -5.9208 3.4775 0
M  V30 41 H -0.5312 0.5338 0.2471 0
M  V30 42 H -0.2408 3.0079 2.6658 0
M  V30 43 H 1.4979 2.9042 2.3447 0
M  V30 44 H 0.8209 2.1872 3.8136 0
M  V30 45 H 1.9927 -3.7313 0.8088 0
M  V30 46 H 0.1423 -7.286 2.3388 0
M  V30 47 H 2.0057 2.0654 0.2259 0
M  V30 48 H 1.9223 -6.192 1.003 0
M  V30 49 H 1.6103 2.362 -2.2249 0
M  V30 50 H -0.0536 1.8461 -2.0242 0
M  V30 51 H -0.4801 3.765 -0.4516 0
M  V30 52 H 1.1994 4.2501 -0.5736 0
M  V30 53 H 1.5335 -2.3634 -1.4254 0
M  V30 54 H 2.7998 -1.5846 -2.4254 0
M  V30 55 H 1.3091 -3.0256 -3.8234 0
M  V30 56 H -0.099 -2.076 -3.2899 0
M  V30 57 H 1.1422 -1.3116 -4.2753 0
M  V30 58 H 2.0535 5.3787 -2.5877 0
M  V30 59 H -2.0193 3.969 -2.4133 0
M  V30 60 H 1.5043 6.6904 -4.6067 0
M  V30 61 H -2.5526 5.2871 -4.434 0
M  V30 62 H -0.7958 6.6502 -5.5348 0
M  V30 END ATOM
M  V30 BEGIN BOND
M  V30 1 2 1 2
M  V30 2 1 2 3
M  V30 3 1 2 4
M  V30 4 1 4 5
M  V30 5 1 4 6
M  V30 6 1 5 7
M  V30 7 1 5 8
M  V30 8 1 6 9
M  V30 9 2 7 10
M  V30 10 1 7 11
M  V30 11 1 8 12
M  V30 12 1 9 13
M  V30 13 1 11 14
M  V30 14 1 11 15
M  V30 15 1 12 16
M  V30 16 2 13 17
M  V30 17 1 14 18
M  V30 18 2 16 19
M  V30 19 1 18 20
M  V30 20 1 18 21
M  V30 21 2 20 22
M  V30 22 1 20 23
M  V30 23 1 21 24
M  V30 24 1 23 25
M  V30 25 1 24 26
M  V30 26 1 25 27
M  V30 27 2 26 28
M  V30 28 1 26 29
M  V30 29 1 28 30
M  V30 30 2 29 31
M  V30 31 2 30 32
M  V30 32 2 9 12
M  V30 33 1 17 19
M  V30 34 1 31 32
M  V30 35 1 3 33
M  V30 36 1 4 34
M  V30 37 1 6 35
M  V30 38 1 6 36
M  V30 39 1 8 37
M  V30 40 1 8 38
M  V30 41 1 11 39
M  V30 42 1 13 40
M  V30 43 1 14 41
M  V30 44 1 15 42
M  V30 45 1 15 43
M  V30 46 1 15 44
M  V30 47 1 16 45
M  V30 48 1 17 46
M  V30 49 1 18 47
M  V30 50 1 19 48
M  V30 51 1 21 49
M  V30 52 1 21 50
M  V30 53 1 24 51
M  V30 54 1 24 52
M  V30 55 1 25 53
M  V30 56 1 25 54
M  V30 57 1 27 55
M  V30 58 1 27 56
M  V30 59 1 27 57
M  V30 60 1 28 58
M  V30 61 1 29 59
M  V30 62 1 30 60
M  V30 63 1 31 61
M  V30 64 1 32 62
M  V30 END BOND
M  V30 END CTAB
M  END
>  <NO.>
5224

>  <Name>
82768-84-1

>  <SMILES>
CCOC(=O)C(CCc1ccccc1)NC(C)C(=O)N1Cc2ccccc2CC1C(=O)O

>  <logBB>


>  <Class>
-1

>  <MW>
438.22

>  <nHBAcc>
5

>  <nHBDon>
2

>  <SLogP>
2.57

>  <TopoPSA>
95.94

>  <MMFF94 Energy>
112.9

$$$$
CCOC(=O)C(CCc1ccccc1)NC1CCCN2CCCC(C(=O)O)N2C1=O
Actelion Java MolfileCreator 2.0

  0  0  0  0  0  0              0 V3000
M  V30 BEGIN CTAB
M  V30 COUNTS 61 63 0 0 0
M  V30 BEGIN ATOM
M  V30 1 O 1.5898 1.6693 0.0794 0
M  V30 2 C 1.1929 0.9681 -0.8555 0
M  V30 3 N 2.0726 0.1203 -1.5429 0
M  V30 4 C -0.2728 0.9767 -1.3647 0
M  V30 5 N 1.5976 -0.6697 -2.6347 0
M  V30 6 C 3.4968 0.1446 -1.1586 0
M  V30 7 N -1.1823 1.7133 -0.4537 0
M  V30 8 C -0.306 1.6841 -2.7353 0
M  V30 9 C 1.4336 0.1214 -3.8608 0
M  V30 10 C 2.3472 -1.9107 -2.8397 0
M  V30 11 C 4.1922 1.3986 -1.6959 0
M  V30 12 C 4.2886 -1.1084 -1.5359 0
M  V30 13 C -1.2893 1.1939 0.9345 0
M  V30 14 C 0.0453 0.7631 -3.9078 0
M  V30 15 C 3.8509 -1.6803 -2.8751 0
M  V30 16 O 3.951 2.0121 -2.7234 0
M  V30 17 O 5.2303 1.7856 -0.9186 0
M  V30 18 C -2.4314 1.9728 1.6177 0
M  V30 19 C -1.5895 -0.3128 1.0261 0
M  V30 20 O -3.5228 2.1878 1.0999 0
M  V30 21 O -2.072 2.3458 2.879 0
M  V30 22 C -1.6744 -0.8145 2.474 0
M  V30 23 C -3.0564 3.0837 3.6161 0
M  V30 24 C -1.8192 -2.3158 2.5279 0
M  V30 25 C -2.9545 4.5625 3.2925 0
M  V30 26 C -3.0813 -2.9119 2.4034 0
M  V30 27 C -0.691 -3.1337 2.674 0
M  V30 28 C -3.2127 -4.301 2.4349 0
M  V30 29 C -0.8248 -4.5226 2.7056 0
M  V30 30 C -2.0851 -5.1057 2.5868 0
M  V30 31 H -0.6409 -0.0482 -1.4757 0
M  V30 32 H 3.5259 0.2393 -0.0642 0
M  V30 33 H -2.1228 1.7285 -0.8562 0
M  V30 34 H 0.3683 2.5505 -2.7373 0
M  V30 35 H -1.3135 2.0735 -2.9347 0
M  V30 36 H 1.5089 -0.5203 -4.748 0
M  V30 37 H 2.212 0.8802 -3.9754 0
M  V30 38 H 2.0193 -2.421 -3.7532 0
M  V30 39 H 2.1039 -2.5998 -2.0203 0
M  V30 40 H 4.12 -1.8717 -0.7645 0
M  V30 41 H 5.367 -0.913 -1.5484 0
M  V30 42 H -0.366 1.4269 1.4744 0
M  V30 43 H -0.0368 1.3398 -4.8376 0
M  V30 44 H -0.713 -0.0283 -3.9735 0
M  V30 45 H 4.1253 -1.0029 -3.6921 0
M  V30 46 H 4.3671 -2.6299 -3.0551 0
M  V30 47 H 5.5512 2.6059 -1.3494 0
M  V30 48 H -2.5272 -0.5424 0.5028 0
M  V30 49 H -0.7981 -0.8796 0.5215 0
M  V30 50 H -0.7783 -0.5138 3.0312 0
M  V30 51 H -2.5259 -0.3621 2.9963 0
M  V30 52 H -2.8456 2.9246 4.6788 0
M  V30 53 H -4.0657 2.6997 3.4283 0
M  V30 54 H -3.6613 5.1408 3.8944 0
M  V30 55 H -1.9414 4.9296 3.487 0
M  V30 56 H -3.1629 4.7487 2.2342 0
M  V30 57 H -3.97 -2.2965 2.2808 0
M  V30 58 H 0.2992 -2.6931 2.7645 0
M  V30 59 H -4.1957 -4.7549 2.3401 0
M  V30 60 H 0.0548 -5.1498 2.8228 0
M  V30 61 H -2.1886 -6.1871 2.612 0
M  V30 END ATOM
M  V30 BEGIN BOND
M  V30 1 2 1 2
M  V30 2 1 2 3
M  V30 3 1 2 4
M  V30 4 1 3 5
M  V30 5 1 3 6
M  V30 6 1 4 7
M  V30 7 1 4 8
M  V30 8 1 5 9
M  V30 9 1 5 10
M  V30 10 1 6 11
M  V30 11 1 6 12
M  V30 12 1 7 13
M  V30 13 1 8 14
M  V30 14 1 10 15
M  V30 15 2 11 16
M  V30 16 1 11 17
M  V30 17 1 13 18
M  V30 18 1 13 19
M  V30 19 2 18 20
M  V30 20 1 18 21
M  V30 21 1 19 22
M  V30 22 1 21 23
M  V30 23 1 22 24
M  V30 24 1 23 25
M  V30 25 2 24 26
M  V30 26 1 24 27
M  V30 27 1 26 28
M  V30 28 2 27 29
M  V30 29 2 28 30
M  V30 30 1 9 14
M  V30 31 1 12 15
M  V30 32 1 29 30
M  V30 33 1 4 31
M  V30 34 1 6 32
M  V30 35 1 7 33
M  V30 36 1 8 34
M  V30 37 1 8 35
M  V30 38 1 9 36
M  V30 39 1 9 37
M  V30 40 1 10 38
M  V30 41 1 10 39
M  V30 42 1 12 40
M  V30 43 1 12 41
M  V30 44 1 13 42
M  V30 45 1 14 43
M  V30 46 1 14 44
M  V30 47 1 15 45
M  V30 48 1 15 46
M  V30 49 1 17 47
M  V30 50 1 19 48
M  V30 51 1 19 49
M  V30 52 1 22 50
M  V30 53 1 22 51
M  V30 54 1 23 52
M  V30 55 1 23 53
M  V30 56 1 25 54
M  V30 57 1 25 55
M  V30 58 1 25 56
M  V30 59 1 26 57
M  V30 60 1 27 58
M  V30 61 1 28 59
M  V30 62 1 29 60
M  V30 63 1 30 61
M  V30 END BOND
M  V30 END CTAB
M  END
>  <NO.>
5225

>  <Name>
104013-57-2

>  <SMILES>
CCOC(=O)C(CCc1ccccc1)NC1CCCN2CCCC(C(=O)O)N2C1=O

>  <logBB>


>  <Class>
-1

>  <MW>
417.23

>  <nHBAcc>
6

>  <nHBDon>
2

>  <SLogP>
1.6

>  <TopoPSA>
99.18

>  <MMFF94 Energy>
146.41

$$$$
CCOC(=O)C(CCc1ccccc1)NC1CCc2ccccc2N(CC(=O)O)C1=O
Actelion Java MolfileCreator 2.0

  0  0  0  0  0  0              0 V3000
M  V30 BEGIN CTAB
M  V30 COUNTS 59 61 0 0 0
M  V30 BEGIN ATOM
M  V30 1 O -3.5013 -1.0335 -1.2721 0
M  V30 2 C -2.9728 -0.5927 -0.2459 0
M  V30 3 N -3.6588 -0.5326 0.9677 0
M  V30 4 C -1.5209 -0.0428 -0.2572 0
M  V30 5 C -3.1549 0.1358 2.1149 0
M  V30 6 C -5.0167 -1.0745 1.0162 0
M  V30 7 N -0.7931 -0.6601 -1.3867 0
M  V30 8 C -1.5605 1.4961 -0.2894 0
M  V30 9 C -2.6285 1.4386 2.0024 0
M  V30 10 C -3.1765 -0.4984 3.3619 0
M  V30 11 C -5.0097 -2.592 1.0985 0
M  V30 12 C 0.5395 -0.1154 -1.7112 0
M  V30 13 C -2.5782 2.1315 0.6652 0
M  V30 14 C -2.1376 2.0835 3.1463 0
M  V30 15 C -2.6847 0.1548 4.4927 0
M  V30 16 O -4.1737 -3.3026 1.6348 0
M  V30 17 O -6.1234 -3.144 0.5695 0
M  V30 18 C 1.046 -0.7822 -3.0095 0
M  V30 19 C 1.5503 -0.3694 -0.5801 0
M  V30 20 C -2.1685 1.4439 4.3853 0
M  V30 21 O 0.9014 -1.957 -3.3201 0
M  V30 22 O 1.7057 0.1431 -3.7711 0
M  V30 23 C 2.9211 0.2616 -0.8563 0
M  V30 24 C 2.2319 -0.3773 -4.9977 0
M  V30 25 C 3.8369 0.1475 0.3375 0
M  V30 26 C 2.9493 0.7474 -5.7179 0
M  V30 27 C 3.9994 1.2262 1.2168 0
M  V30 28 C 4.5185 -1.0493 0.5955 0
M  V30 29 C 4.8361 1.1119 2.3284 0
M  V30 30 C 5.354 -1.1616 1.7077 0
M  V30 31 C 5.5135 -0.0811 2.5731 0
M  V30 32 H -1.0316 -0.3895 0.6602 0
M  V30 33 H -5.5386 -0.7774 0.099 0
M  V30 34 H -5.5715 -0.673 1.8709 0
M  V30 35 H -1.401 -0.6664 -2.2109 0
M  V30 36 H -1.7826 1.8526 -1.3036 0
M  V30 37 H -0.5646 1.88 -0.0333 0
M  V30 38 H -3.5488 -1.5142 3.4667 0
M  V30 39 H 0.4483 0.9571 -1.918 0
M  V30 40 H -2.3361 3.1945 0.7892 0
M  V30 41 H -3.5809 2.1161 0.2183 0
M  V30 42 H -1.7247 3.0878 3.0805 0
M  V30 43 H -2.6966 -0.348 5.4566 0
M  V30 44 H -5.9725 -4.1083 0.6625 0
M  V30 45 H 1.6711 -1.4495 -0.4218 0
M  V30 46 H 1.1671 0.0422 0.3615 0
M  V30 47 H -1.7826 1.9489 5.2676 0
M  V30 48 H 3.4072 -0.2194 -1.7133 0
M  V30 49 H 2.8009 1.3186 -1.1254 0
M  V30 50 H 1.4128 -0.7534 -5.6207 0
M  V30 51 H 2.9375 -1.1878 -4.7838 0
M  V30 52 H 3.3709 0.3984 -6.6646 0
M  V30 53 H 2.2622 1.5757 -5.9204 0
M  V30 54 H 3.7573 1.1487 -5.0971 0
M  V30 55 H 3.4749 2.1627 1.0429 0
M  V30 56 H 4.3994 -1.9031 -0.068 0
M  V30 57 H 4.9582 1.9536 3.005 0
M  V30 58 H 5.8782 -2.0941 1.8997 0
M  V30 59 H 6.1635 -0.1701 3.4393 0
M  V30 END ATOM
M  V30 BEGIN BOND
M  V30 1 2 1 2
M  V30 2 1 2 3
M  V30 3 1 2 4
M  V30 4 1 3 5
M  V30 5 1 3 6
M  V30 6 1 4 7
M  V30 7 1 4 8
M  V30 8 2 5 9
M  V30 9 1 5 10
M  V30 10 1 6 11
M  V30 11 1 7 12
M  V30 12 1 8 13
M  V30 13 1 9 14
M  V30 14 2 10 15
M  V30 15 2 11 16
M  V30 16 1 11 17
M  V30 17 1 12 18
M  V30 18 1 12 19
M  V30 19 2 14 20
M  V30 20 2 18 21
M  V30 21 1 18 22
M  V30 22 1 19 23
M  V30 23 1 22 24
M  V30 24 1 23 25
M  V30 25 1 24 26
M  V30 26 2 25 27
M  V30 27 1 25 28
M  V30 28 1 27 29
M  V30 29 2 28 30
M  V30 30 2 29 31
M  V30 31 1 9 13
M  V30 32 1 15 20
M  V30 33 1 30 31
M  V30 34 1 4 32
M  V30 35 1 6 33
M  V30 36 1 6 34
M  V30 37 1 7 35
M  V30 38 1 8 36
M  V30 39 1 8 37
M  V30 40 1 10 38
M  V30 41 1 12 39
M  V30 42 1 13 40
M  V30 43 1 13 41
M  V30 44 1 14 42
M  V30 45 1 15 43
M  V30 46 1 17 44
M  V30 47 1 19 45
M  V30 48 1 19 46
M  V30 49 1 20 47
M  V30 50 1 23 48
M  V30 51 1 23 49
M  V30 52 1 24 50
M  V30 53 1 24 51
M  V30 54 1 26 52
M  V30 55 1 26 53
M  V30 56 1 26 54
M  V30 57 1 27 55
M  V30 58 1 28 56
M  V30 59 1 29 57
M  V30 60 1 30 58
M  V30 61 1 31 59
M  V30 END BOND
M  V30 END CTAB
M  END
>  <NO.>
5226

>  <Name>
benazepril

>  <SMILES>
CCOC(=O)C(CCc1ccccc1)NC1CCc2ccccc2N(CC(=O)O)C1=O

>  <logBB>


>  <Class>
-1

>  <MW>
424.2

>  <nHBAcc>
5

>  <nHBDon>
2

>  <SLogP>
2.57

>  <TopoPSA>
95.94

>  <MMFF94 Energy>
115.47

$$$$
CCOC(=O)C1(c2ccccc2)CCN(CCC(O)c2ccccc2)CC1
Actelion Java MolfileCreator 2.0

  0  0  0  0  0  0              0 V3000
M  V30 BEGIN CTAB
M  V30 COUNTS 56 58 0 0 0
M  V30 BEGIN ATOM
M  V30 1 O 1.4282 -0.7139 -2.3018 0
M  V30 2 C 1.0403 -1.6171 -1.5685 0
M  V30 3 O 0.2344 -2.6392 -1.9803 0
M  V30 4 C 1.439 -1.7792 -0.083 0
M  V30 5 C -0.1287 -2.5876 -3.3644 0
M  V30 6 C 2.5485 -2.853 5.0E-4 0
M  V30 7 C 0.1776 -2.1107 0.7556 0
M  V30 8 C 1.99 -0.4321 0.4552 0
M  V30 9 C -1.0155 -3.7803 -3.6635 0
M  V30 10 C 3.7593 -2.661 -0.6965 0
M  V30 11 C 2.4051 -4.044 0.7319 0
M  V30 12 C -0.8359 -0.9658 0.7658 0
M  V30 13 C 0.9264 0.67 0.5263 0
M  V30 14 C 4.7824 -3.6112 -0.6539 0
M  V30 15 C 3.4305 -4.9945 0.7743 0
M  V30 16 N -0.2357 0.2533 1.3215 0
M  V30 17 C 4.6183 -4.778 0.0836 0
M  V30 18 C -1.2588 1.3208 1.4034 0
M  V30 19 C -0.8235 2.4928 2.296 0
M  V30 20 C -1.9131 3.555 2.5039 0 CFG=2
M  V30 21 O -3.0775 2.9679 3.0825 0
M  V30 22 C -2.2582 4.3297 1.2472 0
M  V30 23 C -3.3133 3.942 0.406 0
M  V30 24 C -1.4948 5.4526 0.8912 0
M  V30 25 C -3.6035 4.6643 -0.7527 0
M  V30 26 C -1.7864 6.1742 -0.2678 0
M  V30 27 C -2.8411 5.7807 -1.0883 0
M  V30 28 H 0.7729 -2.6317 -3.9853 0
M  V30 29 H -0.6748 -1.6599 -3.5691 0
M  V30 30 H 0.4639 -2.3157 1.797 0
M  V30 31 H -0.3215 -3.0171 0.3911 0
M  V30 32 H 2.4075 -0.584 1.461 0
M  V30 33 H 2.8171 -0.0611 -0.1628 0
M  V30 34 H -1.3213 -3.7858 -4.7133 0
M  V30 35 H -0.4907 -4.7156 -3.4427 0
M  V30 36 H -1.9114 -3.7617 -3.0339 0
M  V30 37 H 3.9199 -1.7638 -1.2928 0
M  V30 38 H 1.4968 -4.2668 1.2849 0
M  V30 39 H -1.2334 -0.79 -0.2417 0
M  V30 40 H -1.6803 -1.2791 1.3926 0
M  V30 41 H 0.62 0.9714 -0.4827 0
M  V30 42 H 1.4061 1.5419 0.9836 0
M  V30 43 H 5.7059 -3.4376 -1.2001 0
M  V30 44 H 3.2971 -5.9073 1.3495 0
M  V30 45 H 5.4127 -5.5183 0.1183 0
M  V30 46 H -2.1742 0.8977 1.836 0
M  V30 47 H -1.5145 1.6711 0.3964 0
M  V30 48 H 0.0702 2.9782 1.8894 0
M  V30 49 H -0.5537 2.0851 3.2794 0
M  V30 50 H -1.5457 4.2711 3.2502 0
M  V30 51 H -3.7602 3.6614 3.0949 0
M  V30 52 H -3.9121 3.0648 0.6445 0
M  V30 53 H -0.6634 5.7729 1.5161 0
M  V30 54 H -4.4221 4.3521 -1.396 0
M  V30 55 H -1.1879 7.0423 -0.5321 0
M  V30 56 H -3.066 6.3413 -1.9918 0
M  V30 END ATOM
M  V30 BEGIN BOND
M  V30 1 2 1 2
M  V30 2 1 2 3
M  V30 3 1 2 4
M  V30 4 1 3 5
M  V30 5 1 4 6
M  V30 6 1 4 7
M  V30 7 1 4 8
M  V30 8 1 5 9
M  V30 9 2 6 10
M  V30 10 1 6 11
M  V30 11 1 7 12
M  V30 12 1 8 13
M  V30 13 1 10 14
M  V30 14 2 11 15
M  V30 15 1 12 16
M  V30 16 2 14 17
M  V30 17 1 16 18
M  V30 18 1 18 19
M  V30 19 1 19 20
M  V30 20 1 20 21
M  V30 21 1 20 22
M  V30 22 2 22 23
M  V30 23 1 22 24
M  V30 24 1 23 25
M  V30 25 2 24 26
M  V30 26 2 25 27
M  V30 27 1 13 16
M  V30 28 1 15 17
M  V30 29 1 26 27
M  V30 30 1 5 28
M  V30 31 1 5 29
M  V30 32 1 7 30
M  V30 33 1 7 31
M  V30 34 1 8 32
M  V30 35 1 8 33
M  V30 36 1 9 34
M  V30 37 1 9 35
M  V30 38 1 9 36
M  V30 39 1 10 37
M  V30 40 1 11 38
M  V30 41 1 12 39
M  V30 42 1 12 40
M  V30 43 1 13 41
M  V30 44 1 13 42
M  V30 45 1 14 43
M  V30 46 1 15 44
M  V30 47 1 17 45
M  V30 48 1 18 46
M  V30 49 1 18 47
M  V30 50 1 19 48
M  V30 51 1 19 49
M  V30 52 1 20 50
M  V30 53 1 21 51
M  V30 54 1 23 52
M  V30 55 1 24 53
M  V30 56 1 25 54
M  V30 57 1 26 55
M  V30 58 1 27 56
M  V30 END BOND
M  V30 BEGIN COLLECTION
M  V30 MDLV30/STERAC1 ATOMS=(1 20)
M  V30 END COLLECTION
M  V30 END CTAB
M  END
>  <NO.>
5227

>  <Name>
phenoperidine

>  <SMILES>
CCOC(=O)C1(c2ccccc2)CCN(CCC(O)c2ccccc2)CC1

>  <logBB>


>  <Class>
1

>  <MW>
367.21

>  <nHBAcc>
4

>  <nHBDon>
1

>  <SLogP>
3.71

>  <TopoPSA>
49.77

>  <MMFF94 Energy>
51.232

$$$$
CCOC(=O)C1=C(C)NC(C)=C(C(=O)OCC)C1c1ccccc1C=CC(=O)OC(C)(C)C
Actelion Java MolfileCreator 2.0

  0  0  0  0  0  0              0 V3000
M  V30 BEGIN CTAB
M  V30 COUNTS 66 67 0 0 0
M  V30 BEGIN ATOM
M  V30 1 O 0.2362 -3.2325 0.0787 0
M  V30 2 C -0.3893 -3.1907 -0.9685 0
M  V30 3 O -1.4285 -3.9893 -1.3181 0
M  V30 4 C -0.1536 -2.1819 -2.0194 0
M  V30 5 C -1.7923 -4.9428 -0.3146 0
M  V30 6 C 0.0944 -2.5034 -3.3091 0
M  V30 7 C -0.1822 -0.7328 -1.5386 0
M  V30 8 C -2.9705 -5.7446 -0.8317 0
M  V30 9 N 0.3292 -1.494 -4.2298 0
M  V30 10 C 0.1871 -3.9109 -3.8391 0
M  V30 11 C 0.1834 0.2545 -2.644 0
M  V30 12 C -1.5522 -0.3916 -0.9263 0
M  V30 13 C 0.4036 -0.1453 -3.9164 0
M  V30 14 C 0.2644 1.6787 -2.2671 0
M  V30 15 C -1.7182 -0.0603 0.4353 0
M  V30 16 C -2.6942 -0.4135 -1.7586 0
M  V30 17 C 0.771 0.7731 -5.0538 0
M  V30 18 O -0.3757 2.5729 -2.797 0
M  V30 19 O 1.1823 1.8213 -1.2801 0
M  V30 20 C -3.0058 0.2251 0.9243 0
M  V30 21 C -0.5993 -0.0272 1.3859 0
M  V30 22 C -3.9619 -0.119 -1.2587 0
M  V30 23 C 1.382 3.1739 -0.8551 0
M  V30 24 C -4.1182 0.1988 0.0838 0
M  V30 25 C -0.2617 1.0921 2.0431 0
M  V30 26 C 2.5955 3.2074 0.0522 0
M  V30 27 C 0.8494 1.0806 3.0161 0
M  V30 28 O 1.5225 0.1069 3.3015 0
M  V30 29 O 0.9561 2.3326 3.5223 0
M  V30 30 C 1.9318 2.6275 4.5549 0
M  V30 31 C 1.65 1.8224 5.8286 0
M  V30 32 C 1.7343 4.1195 4.8633 0
M  V30 33 C 3.3646 2.4178 4.0536 0
M  V30 34 H -2.0756 -4.4217 0.6068 0
M  V30 35 H -0.9474 -5.6117 -0.1165 0
M  V30 36 H 0.6052 -0.6494 -0.7794 0
M  V30 37 H -3.287 -6.4909 -0.0978 0
M  V30 38 H -3.8167 -5.086 -1.0542 0
M  V30 39 H -2.7098 -6.2542 -1.7651 0
M  V30 40 H 0.5079 -1.7647 -5.1936 0
M  V30 41 H 1.0414 -4.0054 -4.5189 0
M  V30 42 H -0.7214 -4.1637 -4.3949 0
M  V30 43 H 0.3341 -4.6573 -3.0536 0
M  V30 44 H -2.5986 -0.6628 -2.8149 0
M  V30 45 H -0.0848 0.8991 -5.7247 0
M  V30 46 H 1.5987 0.3466 -5.6318 0
M  V30 47 H 1.1003 1.7622 -4.7253 0
M  V30 48 H -3.1541 0.4632 1.9761 0
M  V30 49 H -0.0591 -0.9602 1.5387 0
M  V30 50 H -4.8246 -0.1401 -1.9193 0
M  V30 51 H 0.4957 3.5125 -0.3076 0
M  V30 52 H 1.5539 3.8266 -1.7185 0
M  V30 53 H -5.1049 0.4239 0.4798 0
M  V30 54 H -0.7836 2.0302 1.8968 0
M  V30 55 H 2.766 4.215 0.4414 0
M  V30 56 H 2.469 2.5181 0.8917 0
M  V30 57 H 3.4893 2.8826 -0.4904 0
M  V30 58 H 1.8395 0.7542 5.6865 0
M  V30 59 H 2.2785 2.159 6.6602 0
M  V30 60 H 0.5993 1.9184 6.1249 0
M  V30 61 H 0.7081 4.3165 5.1951 0
M  V30 62 H 2.4221 4.4694 5.6402 0
M  V30 63 H 1.8897 4.7268 3.9639 0
M  V30 64 H 3.5798 1.3637 3.8555 0
M  V30 65 H 3.5309 2.9549 3.1137 0
M  V30 66 H 4.0979 2.7702 4.7871 0
M  V30 END ATOM
M  V30 BEGIN BOND
M  V30 1 2 1 2
M  V30 2 1 2 3
M  V30 3 1 2 4
M  V30 4 1 3 5
M  V30 5 2 4 6
M  V30 6 1 4 7
M  V30 7 1 5 8
M  V30 8 1 6 9
M  V30 9 1 6 10
M  V30 10 1 7 11
M  V30 11 1 7 12
M  V30 12 1 9 13
M  V30 13 1 11 14
M  V30 14 2 12 15
M  V30 15 1 12 16
M  V30 16 1 13 17
M  V30 17 2 14 18
M  V30 18 1 14 19
M  V30 19 1 15 20
M  V30 20 1 15 21
M  V30 21 2 16 22
M  V30 22 1 19 23
M  V30 23 2 20 24
M  V30 24 2 21 25
M  V30 25 1 23 26
M  V30 26 1 25 27
M  V30 27 2 27 28
M  V30 28 1 27 29
M  V30 29 1 29 30
M  V30 30 1 30 31
M  V30 31 1 30 32
M  V30 32 1 30 33
M  V30 33 2 11 13
M  V30 34 1 22 24
M  V30 35 1 5 34
M  V30 36 1 5 35
M  V30 37 1 7 36
M  V30 38 1 8 37
M  V30 39 1 8 38
M  V30 40 1 8 39
M  V30 41 1 9 40
M  V30 42 1 10 41
M  V30 43 1 10 42
M  V30 44 1 10 43
M  V30 45 1 16 44
M  V30 46 1 17 45
M  V30 47 1 17 46
M  V30 48 1 17 47
M  V30 49 1 20 48
M  V30 50 1 21 49
M  V30 51 1 22 50
M  V30 52 1 23 51
M  V30 53 1 23 52
M  V30 54 1 24 53
M  V30 55 1 25 54
M  V30 56 1 26 55
M  V30 57 1 26 56
M  V30 58 1 26 57
M  V30 59 1 31 58
M  V30 60 1 31 59
M  V30 61 1 31 60
M  V30 62 1 32 61
M  V30 63 1 32 62
M  V30 64 1 32 63
M  V30 65 1 33 64
M  V30 66 1 33 65
M  V30 67 1 33 66
M  V30 END BOND
M  V30 END CTAB
M  END
>  <NO.>
5228

>  <Name>
2,6-dimethyl-4-[2-[3-[(2-methylpropan-2-yl)oxy]-3-oxoprop-1-enyl]phenyl]-1,4-dihydropyridine-3,5-dicarboxylic acid diethyl ester

>  <SMILES>
CCOC(=O)C1=C(C)NC(C)=C(C(=O)OCC)C1c1ccccc1C=CC(=O)OC(C)(C)C

>  <logBB>


>  <Class>
-1

>  <MW>
455.23

>  <nHBAcc>
7

>  <nHBDon>
1

>  <SLogP>
4.4

>  <TopoPSA>
90.93

>  <MMFF94 Energy>
11.632

$$$$
CCOC(=O)C1=C(COCCN)NC(C)=C(C(=O)OC)C1c1ccccc1Cl
Actelion Java MolfileCreator 2.0

  0  0  0  0  0  0              0 V3000
M  V30 BEGIN CTAB
M  V30 COUNTS 53 54 0 0 0
M  V30 BEGIN ATOM
M  V30 1 Cl 3.5034 -2.3876 0.7954 0
M  V30 2 C 2.0653 -2.3752 1.7528 0
M  V30 3 C 0.8758 -1.754 1.3316 0
M  V30 4 C 2.1283 -3.0298 2.9892 0
M  V30 5 C -0.2457 -1.828 2.1871 0
M  V30 6 C 0.7416 -1.021 -0.0115 0 CFG=2
M  V30 7 C 1.011 -3.0818 3.8206 0
M  V30 8 C -0.1769 -2.4825 3.4179 0
M  V30 9 C 0.337 0.4413 0.2036 0
M  V30 10 C -0.2183 -1.7702 -0.9385 0
M  V30 11 C -0.8204 0.9314 -0.2976 0
M  V30 12 C 1.2297 1.3107 1.0033 0
M  V30 13 C -1.3498 -1.1976 -1.4068 0
M  V30 14 C 0.1292 -3.1637 -1.2842 0
M  V30 15 N -1.6365 0.108 -1.0588 0
M  V30 16 C -1.2956 2.3638 -0.1139 0
M  V30 17 O 0.8403 2.1992 1.7466 0
M  V30 18 O 2.5248 0.9958 0.7595 0
M  V30 19 C -2.3355 -1.861 -2.3337 0
M  V30 20 O -0.6223 -4.1174 -1.1586 0
M  V30 21 O 1.3948 -3.1973 -1.7683 0
M  V30 22 O -2.3817 2.6142 -1.0234 0
M  V30 23 C 3.4691 1.7982 1.4785 0
M  V30 24 C 1.8473 -4.5066 -2.1121 0
M  V30 25 C -2.8743 3.9477 -0.8823 0
M  V30 26 C 4.8666 1.3812 1.0648 0
M  V30 27 C -4.0254 4.1593 -1.8721 0
M  V30 28 N -4.605 5.4998 -1.8049 0
M  V30 29 H 3.0506 -3.5082 3.3102 0
M  V30 30 H -1.1929 -1.3754 1.8935 0
M  V30 31 H 1.7033 -0.9873 -0.5356 0
M  V30 32 H 1.0664 -3.5945 4.7775 0
M  V30 33 H -1.0547 -2.5266 4.0585 0
M  V30 34 H -2.4621 0.5648 -1.4524 0
M  V30 35 H -1.6587 2.5022 0.9106 0
M  V30 36 H -0.4884 3.0706 -0.335 0
M  V30 37 H -2.6491 -1.1621 -3.1176 0
M  V30 38 H -1.9261 -2.7351 -2.8466 0
M  V30 39 H -3.2256 -2.1696 -1.776 0
M  V30 40 H 3.3388 1.6426 2.5554 0
M  V30 41 H 3.3161 2.8564 1.2375 0
M  V30 42 H 2.877 -4.4257 -2.471 0
M  V30 43 H 1.8376 -5.1592 -1.2333 0
M  V30 44 H 1.2321 -4.926 -2.9142 0
M  V30 45 H -2.0659 4.6592 -1.0885 0
M  V30 46 H -3.2288 4.0987 0.1442 0
M  V30 47 H 5.6207 1.9894 1.5724 0
M  V30 48 H 5.0439 0.3291 1.3079 0
M  V30 49 H 4.9965 1.4855 -0.0173 0
M  V30 50 H -4.81 3.417 -1.6853 0
M  V30 51 H -3.6712 3.9695 -2.8917 0
M  V30 52 H -4.947 5.6816 -0.862 0
M  V30 53 H -3.8847 6.1971 -1.9888 0
M  V30 END ATOM
M  V30 BEGIN BOND
M  V30 1 1 1 2
M  V30 2 2 2 3
M  V30 3 1 2 4
M  V30 4 1 3 5
M  V30 5 1 3 6
M  V30 6 2 4 7
M  V30 7 2 5 8
M  V30 8 1 6 9
M  V30 9 1 6 10
M  V30 10 2 9 11
M  V30 11 1 9 12
M  V30 12 2 10 13
M  V30 13 1 10 14
M  V30 14 1 11 15
M  V30 15 1 11 16
M  V30 16 2 12 17
M  V30 17 1 12 18
M  V30 18 1 13 19
M  V30 19 2 14 20
M  V30 20 1 14 21
M  V30 21 1 16 22
M  V30 22 1 18 23
M  V30 23 1 21 24
M  V30 24 1 22 25
M  V30 25 1 23 26
M  V30 26 1 25 27
M  V30 27 1 27 28
M  V30 28 1 7 8
M  V30 29 1 13 15
M  V30 30 1 4 29
M  V30 31 1 5 30
M  V30 32 1 6 31
M  V30 33 1 7 32
M  V30 34 1 8 33
M  V30 35 1 15 34
M  V30 36 1 16 35
M  V30 37 1 16 36
M  V30 38 1 19 37
M  V30 39 1 19 38
M  V30 40 1 19 39
M  V30 41 1 23 40
M  V30 42 1 23 41
M  V30 43 1 24 42
M  V30 44 1 24 43
M  V30 45 1 24 44
M  V30 46 1 25 45
M  V30 47 1 25 46
M  V30 48 1 26 47
M  V30 49 1 26 48
M  V30 50 1 26 49
M  V30 51 1 27 50
M  V30 52 1 27 51
M  V30 53 1 28 52
M  V30 54 1 28 53
M  V30 END BOND
M  V30 BEGIN COLLECTION
M  V30 MDLV30/STERAC1 ATOMS=(1 6)
M  V30 END COLLECTION
M  V30 END CTAB
M  END
>  <NO.>
5229

>  <Name>
amlodipine besylate

>  <SMILES>
CCOC(=O)C1=C(COCCN)NC(C)=C(C(=O)OC)C1c1ccccc1Cl

>  <logBB>


>  <Class>
-1

>  <MW>
408.15

>  <nHBAcc>
7

>  <nHBDon>
2

>  <SLogP>
2.27

>  <TopoPSA>
99.88

>  <MMFF94 Energy>
28.794

$$$$
CCOC(=O)C1=CC(OC(CC)CC)C(NC(C)=O)C(N)C1
Actelion Java MolfileCreator 2.0

  0  0  0  0  0  0              0 V3000
M  V30 BEGIN CTAB
M  V30 COUNTS 50 50 0 0 0
M  V30 BEGIN ATOM
M  V30 1 O -1.3286 3.4417 1.8761 0
M  V30 2 C -0.2088 3.208 1.4472 0
M  V30 3 O 0.8002 4.1075 1.3422 0
M  V30 4 C 0.2484 1.871 0.977 0
M  V30 5 C 0.4576 5.4287 1.7761 0
M  V30 6 C -0.581 0.8259 1.1593 0
M  V30 7 C 1.5896 1.7403 0.3051 0
M  V30 8 C 1.6734 6.3159 1.5929 0
M  V30 9 C -0.2572 -0.584 0.7509 0
M  V30 10 C 1.7854 0.3913 -0.4148 0
M  V30 11 O -0.9931 -0.8495 -0.4556 0
M  V30 12 C 1.2569 -0.771 0.4615 0
M  V30 13 N 3.2077 0.2069 -0.7779 0
M  V30 14 C -2.3066 -1.3763 -0.2433 0
M  V30 15 N 1.5236 -2.0697 -0.1703 0
M  V30 16 C -3.2442 -0.8696 -1.3543 0
M  V30 17 C -2.2611 -2.9094 -0.113 0
M  V30 18 C 1.7051 -3.2089 0.5721 0
M  V30 19 C -2.6133 -0.6852 -2.729 0
M  V30 20 C -1.7682 -3.657 -1.3417 0
M  V30 21 O 1.7134 -3.2196 1.7985 0
M  V30 22 C 1.8753 -4.4617 -0.2427 0
M  V30 23 H 0.1706 5.4082 2.8334 0
M  V30 24 H -0.374 5.8122 1.1746 0
M  V30 25 H -1.5525 0.9755 1.6266 0
M  V30 26 H 1.7244 2.5433 -0.4307 0
M  V30 27 H 2.3649 1.8705 1.0721 0
M  V30 28 H 1.4609 7.34 1.9119 0
M  V30 29 H 2.5203 5.9334 2.1721 0
M  V30 30 H 1.9857 6.3297 0.5436 0
M  V30 31 H -0.548 -1.2838 1.5435 0
M  V30 32 H 1.2232 0.41 -1.3579 0
M  V30 33 H 1.7943 -0.7525 1.4205 0
M  V30 34 H 3.7763 0.2332 0.07 0
M  V30 35 H 3.3227 -0.745 -1.1297 0
M  V30 36 H -2.7115 -0.9901 0.7019 0
M  V30 37 H 1.3339 -2.1428 -1.1624 0
M  V30 38 H -3.6128 0.1189 -1.0492 0
M  V30 39 H -4.129 -1.5126 -1.4262 0
M  V30 40 H -1.5983 -3.1744 0.7191 0
M  V30 41 H -3.2588 -3.2812 0.1495 0
M  V30 42 H -3.3696 -0.3347 -3.4392 0
M  V30 43 H -1.8175 0.066 -2.7023 0
M  V30 44 H -2.1945 -1.6128 -3.1227 0
M  V30 45 H -1.6135 -4.7132 -1.098 0
M  V30 46 H -2.5051 -3.6177 -2.1486 0
M  V30 47 H -0.8204 -3.2544 -1.7086 0
M  V30 48 H 2.0267 -4.2382 -1.3021 0
M  V30 49 H 0.9806 -5.0804 -0.135 0
M  V30 50 H 2.7465 -5.011 0.1241 0
M  V30 END ATOM
M  V30 BEGIN BOND
M  V30 1 2 1 2
M  V30 2 1 2 3
M  V30 3 1 2 4
M  V30 4 1 3 5
M  V30 5 2 4 6
M  V30 6 1 4 7
M  V30 7 1 5 8
M  V30 8 1 6 9
M  V30 9 1 7 10
M  V30 10 1 9 11
M  V30 11 1 9 12
M  V30 12 1 10 13
M  V30 13 1 11 14
M  V30 14 1 12 15
M  V30 15 1 14 16
M  V30 16 1 14 17
M  V30 17 1 15 18
M  V30 18 1 16 19
M  V30 19 1 17 20
M  V30 20 2 18 21
M  V30 21 1 18 22
M  V30 22 1 10 12
M  V30 23 1 5 23
M  V30 24 1 5 24
M  V30 25 1 6 25
M  V30 26 1 7 26
M  V30 27 1 7 27
M  V30 28 1 8 28
M  V30 29 1 8 29
M  V30 30 1 8 30
M  V30 31 1 9 31
M  V30 32 1 10 32
M  V30 33 1 12 33
M  V30 34 1 13 34
M  V30 35 1 13 35
M  V30 36 1 14 36
M  V30 37 1 15 37
M  V30 38 1 16 38
M  V30 39 1 16 39
M  V30 40 1 17 40
M  V30 41 1 17 41
M  V30 42 1 19 42
M  V30 43 1 19 43
M  V30 44 1 19 44
M  V30 45 1 20 45
M  V30 46 1 20 46
M  V30 47 1 20 47
M  V30 48 1 22 48
M  V30 49 1 22 49
M  V30 50 1 22 50
M  V30 END BOND
M  V30 END CTAB
M  END
>  <NO.>
5230

>  <Name>
oseltamivir

>  <SMILES>
CCOC(=O)C1=CC(OC(CC)CC)C(NC(C)=O)C(N)C1

>  <logBB>


>  <Class>
-1

>  <MW>
312.2

>  <nHBAcc>
5

>  <nHBDon>
2

>  <SLogP>
1.29

>  <TopoPSA>
90.65

>  <MMFF94 Energy>
21.626

$$$$
CCOC(=O)C=C1SC(N2CCCCC2)C(=O)N1C
Actelion Java MolfileCreator 2.0

  0  0  0  0  0  0              0 V3000
M  V30 BEGIN CTAB
M  V30 COUNTS 39 40 0 0 0
M  V30 BEGIN ATOM
M  V30 1 S -0.9627 -0.3208 0.6417 0
M  V30 2 C -0.6367 1.2305 -0.0503 0
M  V30 3 C -1.4201 -1.0909 -0.9373 0 CFG=2
M  V30 4 N -0.8811 1.2298 -1.4137 0
M  V30 5 C -0.2149 2.3039 0.6361 0
M  V30 6 N -0.6449 -2.2852 -1.334 0
M  V30 7 C -1.319 0.0297 -1.9863 0
M  V30 8 C -0.7069 2.3979 -2.2577 0
M  V30 9 C 0.0763 2.3811 2.0872 0
M  V30 10 C 0.7985 -2.0628 -1.4737 0
M  V30 11 C -0.9409 -3.4426 -0.4823 0
M  V30 12 O -1.5909 -0.1081 -3.177 0
M  V30 13 O 0.1735 1.4567 2.8722 0
M  V30 14 O 0.2323 3.6986 2.3899 0
M  V30 15 C 1.4835 -3.2952 -2.0702 0
M  V30 16 C -0.3059 -4.715 -1.0467 0
M  V30 17 C 0.5239 3.9487 3.771 0
M  V30 18 C 1.1953 -4.5449 -1.2464 0
M  V30 19 C 0.6652 5.4465 3.9609 0
M  V30 20 H -2.4862 -1.3453 -0.887 0
M  V30 21 H -0.0522 3.2465 0.1257 0
M  V30 22 H -1.3697 3.1969 -1.9105 0
M  V30 23 H 0.3357 2.727 -2.2089 0
M  V30 24 H -0.9485 2.183 -3.3023 0
M  V30 25 H 1.2636 -1.8309 -0.5077 0
M  V30 26 H 0.9995 -1.2188 -2.1431 0
M  V30 27 H -0.5831 -3.2854 0.5429 0
M  V30 28 H -2.0246 -3.6035 -0.4285 0
M  V30 29 H 2.5654 -3.1282 -2.1212 0
M  V30 30 H 1.1346 -3.447 -3.0997 0
M  V30 31 H -0.7762 -4.9655 -2.0063 0
M  V30 32 H -0.4959 -5.5553 -0.3692 0
M  V30 33 H 1.4603 3.4509 4.0472 0
M  V30 34 H -0.2937 3.5721 4.396 0
M  V30 35 H 1.6112 -5.4278 -1.744 0
M  V30 36 H 1.6881 -4.462 -0.2698 0
M  V30 37 H 0.8892 5.6882 5.0038 0
M  V30 38 H 1.4654 5.8417 3.3264 0
M  V30 39 H -0.2563 5.9608 3.6686 0
M  V30 END ATOM
M  V30 BEGIN BOND
M  V30 1 1 1 2
M  V30 2 1 1 3
M  V30 3 1 2 4
M  V30 4 2 2 5
M  V30 5 1 3 6
M  V30 6 1 3 7
M  V30 7 1 4 8
M  V30 8 1 5 9
M  V30 9 1 6 10
M  V30 10 1 6 11
M  V30 11 2 7 12
M  V30 12 2 9 13
M  V30 13 1 9 14
M  V30 14 1 10 15
M  V30 15 1 11 16
M  V30 16 1 14 17
M  V30 17 1 15 18
M  V30 18 1 17 19
M  V30 19 1 4 7
M  V30 20 1 16 18
M  V30 21 1 3 20
M  V30 22 1 5 21
M  V30 23 1 8 22
M  V30 24 1 8 23
M  V30 25 1 8 24
M  V30 26 1 10 25
M  V30 27 1 10 26
M  V30 28 1 11 27
M  V30 29 1 11 28
M  V30 30 1 15 29
M  V30 31 1 15 30
M  V30 32 1 16 31
M  V30 33 1 16 32
M  V30 34 1 17 33
M  V30 35 1 17 34
M  V30 36 1 18 35
M  V30 37 1 18 36
M  V30 38 1 19 37
M  V30 39 1 19 38
M  V30 40 1 19 39
M  V30 END BOND
M  V30 BEGIN COLLECTION
M  V30 MDLV30/STERAC1 ATOMS=(1 3)
M  V30 END COLLECTION
M  V30 END CTAB
M  END
>  <NO.>
5232

>  <Name>
etozolin

>  <SMILES>
CCOC(=O)C=C1SC(N2CCCCC2)C(=O)N1C

>  <logBB>


>  <Class>
-1

>  <MW>
284.12

>  <nHBAcc>
5

>  <nHBDon>
0

>  <SLogP>
1.41

>  <TopoPSA>
49.85

>  <MMFF94 Energy>
10.025

$$$$
CCOC(=O)Nc1ccc(NCc2ccc(F)cc2)nc1N
Actelion Java MolfileCreator 2.0

  0  0  0  0  0  0              0 V3000
M  V30 BEGIN CTAB
M  V30 COUNTS 39 40 0 0 0
M  V30 BEGIN ATOM
M  V30 1 F -5.0325 0.785 -6.8459 0
M  V30 2 C -4.0973 0.9054 -5.8946 0
M  V30 3 C -2.8912 0.2289 -6.0315 0
M  V30 4 C -4.3505 1.6997 -4.7827 0
M  V30 5 C -1.9163 0.3523 -5.0404 0
M  V30 6 C -3.3776 1.825 -3.79 0
M  V30 7 C -2.1457 1.1619 -3.9156 0
M  V30 8 C -1.1011 1.2765 -2.8299 0
M  V30 9 N -1.3053 0.2374 -1.8573 0
M  V30 10 C -0.5525 0.0263 -0.7379 0
M  V30 11 N -0.9386 -1.0244 0.0124 0
M  V30 12 C 0.5305 0.8168 -0.3749 0
M  V30 13 C -0.2557 -1.2968 1.1405 0
M  V30 14 C 1.2494 0.5182 0.783 0
M  V30 15 N -0.7201 -2.3832 1.8785 0
M  V30 16 C 0.8614 -0.5628 1.5612 0
M  V30 17 N 1.5551 -0.99 2.7084 0
M  V30 18 C 2.482 -0.3061 3.4348 0
M  V30 19 O 2.8846 0.8319 3.2486 0
M  V30 20 O 2.9017 -1.108 4.4501 0
M  V30 21 C 3.8859 -0.5121 5.3043 0
M  V30 22 C 4.2551 -1.5201 6.3752 0
M  V30 23 H -2.7201 -0.393 -6.9041 0
M  V30 24 H -5.3037 2.2108 -4.6935 0
M  V30 25 H -0.9784 -0.1898 -5.1436 0
M  V30 26 H -3.5844 2.4364 -2.9138 0
M  V30 27 H -1.1706 2.2671 -2.3637 0
M  V30 28 H -0.1029 1.2008 -3.2787 0
M  V30 29 H -2.0573 -0.4283 -1.9823 0
M  V30 30 H 0.8406 1.6608 -0.9799 0
M  V30 31 H 2.109 1.1296 1.0366 0
M  V30 32 H -0.8431 -2.217 2.8673 0
M  V30 33 H -1.5055 -2.82 1.4073 0
M  V30 34 H 1.345 -1.9232 3.0379 0
M  V30 35 H 3.4733 0.389 5.7719 0
M  V30 36 H 4.7752 -0.252 4.7195 0
M  V30 37 H 5.0068 -1.1095 7.055 0
M  V30 38 H 3.3719 -1.8067 6.9558 0
M  V30 39 H 4.6496 -2.4359 5.9228 0
M  V30 END ATOM
M  V30 BEGIN BOND
M  V30 1 1 1 2
M  V30 2 2 2 3
M  V30 3 1 2 4
M  V30 4 1 3 5
M  V30 5 2 4 6
M  V30 6 2 5 7
M  V30 7 1 7 8
M  V30 8 1 8 9
M  V30 9 1 9 10
M  V30 10 2 10 11
M  V30 11 1 10 12
M  V30 12 1 11 13
M  V30 13 2 12 14
M  V30 14 1 13 15
M  V30 15 2 13 16
M  V30 16 1 16 17
M  V30 17 1 17 18
M  V30 18 2 18 19
M  V30 19 1 18 20
M  V30 20 1 20 21
M  V30 21 1 21 22
M  V30 22 1 6 7
M  V30 23 1 14 16
M  V30 24 1 3 23
M  V30 25 1 4 24
M  V30 26 1 5 25
M  V30 27 1 6 26
M  V30 28 1 8 27
M  V30 29 1 8 28
M  V30 30 1 9 29
M  V30 31 1 12 30
M  V30 32 1 14 31
M  V30 33 1 15 32
M  V30 34 1 15 33
M  V30 35 1 17 34
M  V30 36 1 21 35
M  V30 37 1 21 36
M  V30 38 1 22 37
M  V30 39 1 22 38
M  V30 40 1 22 39
M  V30 END BOND
M  V30 END CTAB
M  END
>  <NO.>
5233

>  <Name>
flupirtine

>  <SMILES>
CCOC(=O)Nc1ccc(NCc2ccc(F)cc2)nc1N

>  <logBB>


>  <Class>
1

>  <MW>
304.13

>  <nHBAcc>
5

>  <nHBDon>
3

>  <SLogP>
2.98

>  <TopoPSA>
89.27

>  <MMFF94 Energy>
-82.896

$$$$
CCOC(=O)OC(C)OC(=O)C1N2C(=O)C(NC(=O)C(N)c3ccccc3)C2SC1(C)C
Actelion Java MolfileCreator 2.0

  0  0  0  0  0  0              0 V3000
M  V30 BEGIN CTAB
M  V30 COUNTS 59 61 0 0 0
M  V30 BEGIN ATOM
M  V30 1 S 0.9675 -2.7433 -0.403 0
M  V30 2 C -0.8379 -2.6126 -0.8987 0
M  V30 3 C 0.6963 -2.1039 1.3136 0
M  V30 4 C -1.5981 -2.4489 0.4339 0
M  V30 5 C -0.9777 -1.4287 -1.8631 0
M  V30 6 C -1.2039 -3.9175 -1.6167 0
M  V30 7 N -0.7157 -1.7129 1.333 0
M  V30 8 C 1.0622 -0.6169 1.5481 0
M  V30 9 C -3.0611 -2.011 0.3046 0
M  V30 10 C -0.4489 -0.373 1.2897 0
M  V30 11 N 1.9925 -0.0042 0.5638 0
M  V30 12 O -3.8392 -2.499 -0.5072 0
M  V30 13 O -3.405 -1.0981 1.2428 0
M  V30 14 O -1.147 0.5728 1.0114 0
M  V30 15 C 2.6382 1.1894 0.8075 0
M  V30 16 C -4.7039 -0.5124 1.0995 0
M  V30 17 O 2.5351 1.788 1.878 0
M  V30 18 C 3.4684 1.7323 -0.3872 0
M  V30 19 O -4.6422 0.8809 1.4119 0
M  V30 20 C -5.627 -1.166 2.1189 0
M  V30 21 N 4.0543 3.0442 -0.0505 0
M  V30 22 C 4.5444 0.7607 -0.8368 0
M  V30 23 C -4.0849 1.6244 0.4251 0
M  V30 24 C 4.6789 0.4459 -2.1983 0
M  V30 25 C 5.4289 0.1697 0.0813 0
M  V30 26 O -3.7664 1.2241 -0.6854 0
M  V30 27 O -3.9683 2.8997 0.8738 0
M  V30 28 C 5.6549 -0.4555 -2.6267 0
M  V30 29 C 6.4038 -0.7314 -0.35 0
M  V30 30 C -3.3198 3.7792 -0.048 0
M  V30 31 C 6.5138 -1.0463 -1.7026 0
M  V30 32 C -3.2004 5.144 0.6021 0
M  V30 33 H 0.9676 -2.7965 2.115 0
M  V30 34 H -1.6764 -3.4341 0.9192 0
M  V30 35 H -2.0157 -1.3089 -2.1925 0
M  V30 36 H -0.6662 -0.4794 -1.4184 0
M  V30 37 H -0.3749 -1.5787 -2.7671 0
M  V30 38 H -0.5782 -4.0803 -2.5024 0
M  V30 39 H -1.0905 -4.7892 -0.9617 0
M  V30 40 H -2.2432 -3.9019 -1.9611 0
M  V30 41 H 1.354 -0.4035 2.5835 0
M  V30 42 H 2.1545 -0.4698 -0.3262 0
M  V30 43 H -5.1342 -0.6478 0.0983 0
M  V30 44 H 2.7517 1.8894 -1.2036 0
M  V30 45 H -6.6252 -0.7178 2.086 0
M  V30 46 H -5.2394 -1.029 3.135 0
M  V30 47 H -5.7091 -2.2429 1.9417 0
M  V30 48 H 3.3075 3.613 0.3559 0
M  V30 49 H 4.6982 2.9046 0.7292 0
M  V30 50 H 4.0289 0.9098 -2.9376 0
M  V30 51 H 5.3677 0.4091 1.1414 0
M  V30 52 H 5.7505 -0.6899 -3.6839 0
M  V30 53 H 7.0827 -1.1826 0.3692 0
M  V30 54 H -3.9153 3.8582 -0.9646 0
M  V30 55 H -2.321 3.3973 -0.2887 0
M  V30 56 H 7.2765 -1.744 -2.0382 0
M  V30 57 H -2.7095 5.8543 -0.0689 0
M  V30 58 H -4.1893 5.533 0.8669 0
M  V30 59 H -2.6244 5.0792 1.5312 0
M  V30 END ATOM
M  V30 BEGIN BOND
M  V30 1 1 1 2
M  V30 2 1 1 3
M  V30 3 1 2 4
M  V30 4 1 2 5
M  V30 5 1 2 6
M  V30 6 1 3 7
M  V30 7 1 3 8
M  V30 8 1 4 9
M  V30 9 1 7 10
M  V30 10 1 8 11
M  V30 11 2 9 12
M  V30 12 1 9 13
M  V30 13 2 10 14
M  V30 14 1 11 15
M  V30 15 1 13 16
M  V30 16 2 15 17
M  V30 17 1 15 18
M  V30 18 1 16 19
M  V30 19 1 16 20
M  V30 20 1 18 21
M  V30 21 1 18 22
M  V30 22 1 19 23
M  V30 23 2 22 24
M  V30 24 1 22 25
M  V30 25 2 23 26
M  V30 26 1 23 27
M  V30 27 1 24 28
M  V30 28 2 25 29
M  V30 29 1 27 30
M  V30 30 2 28 31
M  V30 31 1 30 32
M  V30 32 1 4 7
M  V30 33 1 8 10
M  V30 34 1 29 31
M  V30 35 1 3 33
M  V30 36 1 4 34
M  V30 37 1 5 35
M  V30 38 1 5 36
M  V30 39 1 5 37
M  V30 40 1 6 38
M  V30 41 1 6 39
M  V30 42 1 6 40
M  V30 43 1 8 41
M  V30 44 1 11 42
M  V30 45 1 16 43
M  V30 46 1 18 44
M  V30 47 1 20 45
M  V30 48 1 20 46
M  V30 49 1 20 47
M  V30 50 1 21 48
M  V30 51 1 21 49
M  V30 52 1 24 50
M  V30 53 1 25 51
M  V30 54 1 28 52
M  V30 55 1 29 53
M  V30 56 1 30 54
M  V30 57 1 30 55
M  V30 58 1 31 56
M  V30 59 1 32 57
M  V30 60 1 32 58
M  V30 61 1 32 59
M  V30 END BOND
M  V30 END CTAB
M  END
>  <NO.>
5234

>  <Name>
bacampicillin hydrochloride

>  <SMILES>
CCOC(=O)OC(C)OC(=O)C1N2C(=O)C(NC(=O)C(N)c3ccccc3)C2SC1(C)C

>  <logBB>


>  <Class>
-1

>  <MW>
465.16

>  <nHBAcc>
9

>  <nHBDon>
2

>  <SLogP>
1.3

>  <TopoPSA>
137.26

>  <MMFF94 Energy>
42.671

$$$$
CCOC(=O)c1ncn2c1CN(C)C(=O)c1c(I)cccc1-2
Actelion Java MolfileCreator 2.0

  0  0  0  0  0  0              0 V3000
M  V30 BEGIN CTAB
M  V30 COUNTS 36 38 0 0 0
M  V30 BEGIN ATOM
M  V30 1 I -0.8972 -5.2289 0.3262 0
M  V30 2 C 0.4185 -3.7989 1.1449 0
M  V30 3 C 0.6055 -2.5061 0.6205 0
M  V30 4 C 1.0676 -4.1847 2.328 0
M  V30 5 C 0.0251 -2.1389 -0.7054 0
M  V30 6 C 1.4282 -1.6046 1.3344 0
M  V30 7 C 1.8983 -3.293 3.0036 0
M  V30 8 O 0.2512 -2.8768 -1.6605 0
M  V30 9 N -0.6999 -0.956 -0.8192 0
M  V30 10 N 1.5669 -0.2574 0.9252 0
M  V30 11 C 2.0727 -2.0006 2.5179 0
M  V30 12 C -0.8077 0.0044 0.2611 0
M  V30 13 C -1.2353 -0.5662 -2.1133 0
M  V30 14 C 0.5526 0.5533 0.4544 0
M  V30 15 C 2.6964 0.5144 0.9907 0
M  V30 16 C 1.1346 1.7962 0.2298 0
M  V30 17 N 2.471 1.7467 0.602 0
M  V30 18 C 0.5314 3.0202 -0.3153 0
M  V30 19 O 1.1113 4.0988 -0.3728 0
M  V30 20 O -0.7468 2.8302 -0.7613 0
M  V30 21 C -1.3537 3.9971 -1.3276 0
M  V30 22 C -2.7434 3.6182 -1.8015 0
M  V30 23 H 0.9283 -5.1822 2.741 0
M  V30 24 H 2.3929 -3.6027 3.922 0
M  V30 25 H 2.6926 -1.3122 3.0897 0
M  V30 26 H -1.5626 0.7556 0.0223 0
M  V30 27 H -1.1539 -0.5083 1.1663 0
M  V30 28 H -0.6726 0.2965 -2.4816 0
M  V30 29 H -2.2878 -0.2929 -1.9937 0
M  V30 30 H -1.1632 -1.374 -2.8457 0
M  V30 31 H 3.6535 0.131 1.3197 0
M  V30 32 H -0.7584 4.3516 -2.1764 0
M  V30 33 H -1.4232 4.7837 -0.568 0
M  V30 34 H -3.2529 4.4782 -2.2448 0
M  V30 35 H -2.6914 2.8155 -2.5444 0
M  V30 36 H -3.3452 3.2411 -0.9679 0
M  V30 END ATOM
M  V30 BEGIN BOND
M  V30 1 1 1 2
M  V30 2 2 2 3
M  V30 3 1 2 4
M  V30 4 1 3 5
M  V30 5 1 3 6
M  V30 6 2 4 7
M  V30 7 2 5 8
M  V30 8 1 5 9
M  V30 9 1 6 10
M  V30 10 2 6 11
M  V30 11 1 9 12
M  V30 12 1 9 13
M  V30 13 1 10 14
M  V30 14 1 10 15
M  V30 15 2 14 16
M  V30 16 2 15 17
M  V30 17 1 16 18
M  V30 18 2 18 19
M  V30 19 1 18 20
M  V30 20 1 20 21
M  V30 21 1 21 22
M  V30 22 1 7 11
M  V30 23 1 12 14
M  V30 24 1 16 17
M  V30 25 1 4 23
M  V30 26 1 7 24
M  V30 27 1 11 25
M  V30 28 1 12 26
M  V30 29 1 12 27
M  V30 30 1 13 28
M  V30 31 1 13 29
M  V30 32 1 13 30
M  V30 33 1 15 31
M  V30 34 1 21 32
M  V30 35 1 21 33
M  V30 36 1 22 34
M  V30 37 1 22 35
M  V30 38 1 22 36
M  V30 END BOND
M  V30 END CTAB
M  END
>  <NO.>
5236

>  <Name>
iomazenil

>  <SMILES>
CCOC(=O)c1ncn2c1CN(C)C(=O)c1c(I)cccc1-2

>  <logBB>


>  <Class>
1

>  <MW>
411.01

>  <nHBAcc>
4

>  <nHBDon>
0

>  <SLogP>
2.24

>  <TopoPSA>
64.43

>  <MMFF94 Energy>
49.472

$$$$
CCOc1ccc2ccccc2c1NC(=O)C1C(=O)N2C1SC(C)(C)C2C(=O)O
Actelion Java MolfileCreator 2.0

  0  0  0  0  0  0              0 V3000
M  V30 BEGIN CTAB
M  V30 COUNTS 51 54 0 0 0
M  V30 BEGIN ATOM
M  V30 1 S -2.2756 1.2998 3.3334 0
M  V30 2 C -3.0704 2.728 2.4224 0
M  V30 3 C -0.8279 1.1783 2.1876 0
M  V30 4 C -1.9449 3.2905 1.5368 0
M  V30 5 C -4.2789 2.1823 1.6524 0
M  V30 6 C -3.5383 3.7531 3.461 0
M  V30 7 N -1.1112 2.1656 1.1393 0
M  V30 8 C -0.9492 0.0837 1.1186 0
M  V30 9 C -2.4093 4.2442 0.4391 0
M  V30 10 C -1.3705 1.2247 0.1947 0
M  V30 11 C 0.3304 -0.5611 0.5803 0
M  V30 12 O -2.8459 3.9726 -0.6644 0
M  V30 13 O -2.3495 5.5383 0.827 0
M  V30 14 O -1.8313 1.2758 -0.9205 0
M  V30 15 O 1.3751 -0.6037 1.2386 0
M  V30 16 N 0.2077 -1.0789 -0.6999 0
M  V30 17 C 1.265 -1.7273 -1.3737 0
M  V30 18 C 1.7734 -2.9394 -0.8779 0
M  V30 19 C 1.7621 -1.1736 -2.5836 0
M  V30 20 O 1.1914 -3.519 0.2223 0
M  V30 21 C 2.7719 -3.6152 -1.5754 0
M  V30 22 C 2.7915 -1.8655 -3.2694 0
M  V30 23 C 1.2952 0.0401 -3.1432 0
M  V30 24 C 2.1064 -3.6742 1.3146 0
M  V30 25 C 3.2839 -3.0749 -2.7546 0
M  V30 26 C 3.3096 -1.3423 -4.4658 0
M  V30 27 C 1.8206 0.5455 -4.3342 0
M  V30 28 C 2.1681 -5.1408 1.7014 0
M  V30 29 C 2.8273 -0.1459 -4.9951 0
M  V30 30 H 0.1487 1.3197 2.6581 0
M  V30 31 H -1.2618 3.8858 2.1626 0
M  V30 32 H -4.0021 1.4265 0.9115 0
M  V30 33 H -5.0111 1.7263 2.3299 0
M  V30 34 H -4.8004 2.9862 1.1207 0
M  V30 35 H -4.2772 3.3244 4.1483 0
M  V30 36 H -2.7049 4.1366 4.0611 0
M  V30 37 H -4.0116 4.6128 2.9732 0
M  V30 38 H -1.7453 -0.6514 1.2843 0
M  V30 39 H -2.6631 6.0314 0.0376 0
M  V30 40 H -0.6272 -0.8871 -1.2453 0
M  V30 41 H 3.1407 -4.573 -1.2221 0
M  V30 42 H 0.5146 0.6159 -2.6493 0
M  V30 43 H 1.7089 -3.1012 2.1591 0
M  V30 44 H 3.1115 -3.2886 1.1017 0
M  V30 45 H 4.0653 -3.619 -3.2813 0
M  V30 46 H 4.099 -1.8676 -4.9994 0
M  V30 47 H 1.4419 1.4804 -4.7394 0
M  V30 48 H 2.8198 -5.287 2.5675 0
M  V30 49 H 1.1688 -5.5172 1.9445 0
M  V30 50 H 2.5438 -5.7483 0.8724 0
M  V30 51 H 3.2393 0.2447 -5.9217 0
M  V30 END ATOM
M  V30 BEGIN BOND
M  V30 1 1 1 2
M  V30 2 1 1 3
M  V30 3 1 2 4
M  V30 4 1 2 5
M  V30 5 1 2 6
M  V30 6 1 3 7
M  V30 7 1 3 8
M  V30 8 1 4 9
M  V30 9 1 7 10
M  V30 10 1 8 11
M  V30 11 2 9 12
M  V30 12 1 9 13
M  V30 13 2 10 14
M  V30 14 2 11 15
M  V30 15 1 11 16
M  V30 16 1 16 17
M  V30 17 2 17 18
M  V30 18 1 17 19
M  V30 19 1 18 20
M  V30 20 1 18 21
M  V30 21 1 19 22
M  V30 22 2 19 23
M  V30 23 1 20 24
M  V30 24 2 21 25
M  V30 25 2 22 26
M  V30 26 1 23 27
M  V30 27 1 24 28
M  V30 28 1 26 29
M  V30 29 1 4 7
M  V30 30 1 8 10
M  V30 31 1 22 25
M  V30 32 2 27 29
M  V30 33 1 3 30
M  V30 34 1 4 31
M  V30 35 1 5 32
M  V30 36 1 5 33
M  V30 37 1 5 34
M  V30 38 1 6 35
M  V30 39 1 6 36
M  V30 40 1 6 37
M  V30 41 1 8 38
M  V30 42 1 13 39
M  V30 43 1 16 40
M  V30 44 1 21 41
M  V30 45 1 23 42
M  V30 46 1 24 43
M  V30 47 1 24 44
M  V30 48 1 25 45
M  V30 49 1 26 46
M  V30 50 1 27 47
M  V30 51 1 28 48
M  V30 52 1 28 49
M  V30 53 1 28 50
M  V30 54 1 29 51
M  V30 END BOND
M  V30 END CTAB
M  END
>  <NO.>
5238

>  <Name>
nafcillin sodium

>  <SMILES>
CCOc1ccc2ccccc2c1NC(=O)C1C(=O)N2C1SC(C)(C)C2C(=O)O

>  <logBB>


>  <Class>
-1

>  <MW>
414.12

>  <nHBAcc>
5

>  <nHBDon>
2

>  <SLogP>
2.94

>  <TopoPSA>
95.94

>  <MMFF94 Energy>
25.28

$$$$
CCOc1ccccc1OCCNC(C)Cc1ccc(OC)c(S(N)(=O)=O)c1
Actelion Java MolfileCreator 2.0

  0  0  0  0  0  0              0 V3000
M  V30 BEGIN CTAB
M  V30 COUNTS 56 57 0 0 0
M  V30 BEGIN ATOM
M  V30 1 S 0.8747 -5.7364 -0.5566 0
M  V30 2 O -0.184 -6.6666 -0.8711 0
M  V30 3 O 1.759 -5.9547 0.5686 0
M  V30 4 N 1.8976 -5.6796 -1.8881 0
M  V30 5 C 0.2275 -4.0927 -0.4658 0
M  V30 6 C -0.5607 -3.5767 -1.5029 0
M  V30 7 C 0.5036 -3.331 0.6813 0
M  V30 8 O -0.7756 -4.3704 -2.5956 0
M  V30 9 C -1.0578 -2.2755 -1.3729 0
M  V30 10 C 0.0025 -2.031 0.8044 0
M  V30 11 C -1.7621 -3.9521 -3.5308 0
M  V30 12 C -0.7831 -1.5134 -0.2314 0
M  V30 13 C 0.3022 -1.2007 2.0331 0
M  V30 14 C 1.1893 0.0335 1.7451 0 CFG=1
M  V30 15 N 1.3477 0.9279 2.9012 0
M  V30 16 C 2.6008 -0.3898 1.3156 0
M  V30 17 C 0.1175 1.5482 3.4122 0
M  V30 18 C -0.789 2.2675 2.3961 0
M  V30 19 O -0.0887 3.3729 1.8081 0
M  V30 20 C -0.9159 4.0383 0.9416 0
M  V30 21 C -1.122 3.6018 -0.3707 0
M  V30 22 C -1.5303 5.2061 1.3948 0
M  V30 23 O -0.5198 2.4829 -0.8843 0
M  V30 24 C -2.0103 4.2865 -1.2003 0
M  V30 25 C -2.398 5.9055 0.5546 0
M  V30 26 C 0.8725 2.7323 -1.1232 0
M  V30 27 C -2.6456 5.4406 -0.7381 0
M  V30 28 C 1.3939 1.635 -2.0338 0
M  V30 29 H 1.5143 -6.2584 -2.6349 0
M  V30 30 H 2.848 -5.915 -1.6068 0
M  V30 31 H 1.113 -3.7516 1.4796 0
M  V30 32 H -1.6598 -1.8124 -2.1487 0
M  V30 33 H -2.7297 -3.7884 -3.0446 0
M  V30 34 H -1.8892 -4.7554 -4.2628 0
M  V30 35 H -1.4335 -3.0589 -4.0717 0
M  V30 36 H -1.1853 -0.5028 -0.1654 0
M  V30 37 H 0.7725 -1.8241 2.8048 0
M  V30 38 H -0.6663 -0.8944 2.4468 0
M  V30 39 H 0.7698 0.606 0.9136 0
M  V30 40 H 1.8238 0.4432 3.6612 0
M  V30 41 H 3.2325 0.4867 1.1304 0
M  V30 42 H 3.0883 -1.0023 2.0826 0
M  V30 43 H 2.5764 -0.9674 0.3859 0
M  V30 44 H -0.4742 0.7964 3.9464 0
M  V30 45 H 0.4316 2.2849 4.1614 0
M  V30 46 H -1.1398 1.5671 1.6296 0
M  V30 47 H -1.6684 2.6428 2.9367 0
M  V30 48 H -1.3403 5.5636 2.4027 0
M  V30 49 H -2.195 3.9296 -2.2094 0
M  V30 50 H -2.8842 6.8108 0.9093 0
M  V30 51 H 1.4299 2.7158 -0.1808 0
M  V30 52 H 1.02 3.7036 -1.6126 0
M  V30 53 H -3.3278 5.9817 -1.3889 0
M  V30 54 H 2.4584 1.7745 -2.2415 0
M  V30 55 H 1.2496 0.6504 -1.5783 0
M  V30 56 H 0.8461 1.6299 -2.9819 0
M  V30 END ATOM
M  V30 BEGIN BOND
M  V30 1 2 1 2
M  V30 2 2 1 3
M  V30 3 1 1 4
M  V30 4 1 1 5
M  V30 5 2 5 6
M  V30 6 1 5 7
M  V30 7 1 6 8
M  V30 8 1 6 9
M  V30 9 2 7 10
M  V30 10 1 8 11
M  V30 11 2 9 12
M  V30 12 1 10 13
M  V30 13 1 13 14
M  V30 14 1 14 15
M  V30 15 1 14 16
M  V30 16 1 15 17
M  V30 17 1 17 18
M  V30 18 1 18 19
M  V30 19 1 19 20
M  V30 20 2 20 21
M  V30 21 1 20 22
M  V30 22 1 21 23
M  V30 23 1 21 24
M  V30 24 2 22 25
M  V30 25 1 23 26
M  V30 26 2 24 27
M  V30 27 1 26 28
M  V30 28 1 10 12
M  V30 29 1 25 27
M  V30 30 1 4 29
M  V30 31 1 4 30
M  V30 32 1 7 31
M  V30 33 1 9 32
M  V30 34 1 11 33
M  V30 35 1 11 34
M  V30 36 1 11 35
M  V30 37 1 12 36
M  V30 38 1 13 37
M  V30 39 1 13 38
M  V30 40 1 14 39
M  V30 41 1 15 40
M  V30 42 1 16 41
M  V30 43 1 16 42
M  V30 44 1 16 43
M  V30 45 1 17 44
M  V30 46 1 17 45
M  V30 47 1 18 46
M  V30 48 1 18 47
M  V30 49 1 22 48
M  V30 50 1 24 49
M  V30 51 1 25 50
M  V30 52 1 26 51
M  V30 53 1 26 52
M  V30 54 1 27 53
M  V30 55 1 28 54
M  V30 56 1 28 55
M  V30 57 1 28 56
M  V30 END BOND
M  V30 BEGIN COLLECTION
M  V30 MDLV30/STERAC1 ATOMS=(1 14)
M  V30 END COLLECTION
M  V30 END CTAB
M  END
>  <NO.>
5239

>  <Name>
racemic tamsulosin

>  <SMILES>
CCOc1ccccc1OCCNC(C)Cc1ccc(OC)c(S(N)(=O)=O)c1

>  <logBB>


>  <Class>
-1

>  <MW>
408.17

>  <nHBAcc>
6

>  <nHBDon>
2

>  <SLogP>
2.34

>  <TopoPSA>
99.88

>  <MMFF94 Energy>
17.429

$$$$
CC[N+](C)(CC)CCOC(=O)C(O)(c1ccccc1)C1CCCCC1
Actelion Java MolfileCreator 2.0

  0  0  0  0  0  0              0 V3000
M  V30 BEGIN CTAB
M  V30 COUNTS 59 60 0 0 0
M  V30 BEGIN ATOM
M  V30 1 O 1.3392 1.7333 -1.1027 0
M  V30 2 C 0.5612 0.7905 -1.0324 0
M  V30 3 O -0.7945 0.9405 -0.8973 0
M  V30 4 C 0.958 -0.7231 -0.9962 0 CFG=2
M  V30 5 C -1.2507 2.2946 -0.7954 0
M  V30 6 O -0.1072 -1.5037 -1.565 0
M  V30 7 C 1.1092 -1.1171 0.4863 0
M  V30 8 C 2.278 -0.9767 -1.8006 0
M  V30 9 C -2.6364 2.3328 -0.1301 0
M  V30 10 C 1.9892 -0.4102 1.329 0
M  V30 11 C 0.3852 -2.1877 1.0419 0
M  V30 12 C 2.7182 -2.4586 -1.7525 0
M  V30 13 C 2.1773 -0.5392 -3.2817 0
M  V30 14 N -2.6658 2.0087 1.4061 0 CHG=1
M  V30 15 C 2.124 -0.751 2.6768 0
M  V30 16 C 0.5252 -2.5296 2.389 0
M  V30 17 C 4.025 -2.6932 -2.5094 0
M  V30 18 C 3.4924 -0.759 -4.0282 0
M  V30 19 C -4.0792 2.347 1.9453 0
M  V30 20 C -2.2742 0.5298 1.6441 0
M  V30 21 C -1.675 2.9212 2.144 0
M  V30 22 C 1.3903 -1.8083 3.2066 0
M  V30 23 C 3.9396 -2.2133 -3.9525 0
M  V30 24 C -5.1895 1.5123 1.3265 0
M  V30 25 C -2.4876 0.058 3.075 0
M  V30 26 H -1.3477 2.6809 -1.8165 0
M  V30 27 H -0.5404 2.9319 -0.2605 0
M  V30 28 H -0.1914 -1.2663 -2.5027 0
M  V30 29 H 3.0801 -0.3787 -1.3447 0
M  V30 30 H -3.2929 1.6017 -0.612 0
M  V30 31 H -3.0636 3.336 -0.2376 0
M  V30 32 H 2.5962 0.408 0.9423 0
M  V30 33 H -0.2824 -2.7855 0.4231 0
M  V30 34 H 2.8648 -2.7845 -0.7172 0
M  V30 35 H 1.9355 -3.0971 -2.1806 0
M  V30 36 H 1.9114 0.5201 -3.3559 0
M  V30 37 H 1.3901 -1.1017 -3.7969 0
M  V30 38 H 2.8213 -0.2051 3.3087 0
M  V30 39 H -0.0266 -3.3746 2.7946 0
M  V30 40 H 4.2734 -3.7604 -2.491 0
M  V30 41 H 4.8405 -2.1676 -1.9973 0
M  V30 42 H 3.373 -0.4658 -5.0773 0
M  V30 43 H 4.2685 -0.1118 -3.6017 0
M  V30 44 H -4.0603 2.2178 3.0325 0
M  V30 45 H -4.2509 3.4108 1.7419 0
M  V30 46 H -2.8493 -0.0829 0.9429 0
M  V30 47 H -1.2138 0.4411 1.4058 0
M  V30 48 H -1.8563 2.844 3.2194 0
M  V30 49 H -1.8438 3.9495 1.8111 0
M  V30 50 H -0.6555 2.5999 1.9163 0
M  V30 51 H 1.513 -2.0878 4.2505 0
M  V30 52 H 4.9148 -2.3266 -4.4387 0
M  V30 53 H 3.2314 -2.8427 -4.5052 0
M  V30 54 H -5.3073 1.7136 0.2584 0
M  V30 55 H -6.1422 1.7661 1.8041 0
M  V30 56 H -5.034 0.4395 1.4639 0
M  V30 57 H -1.9294 0.6618 3.7954 0
M  V30 58 H -2.1344 -0.9736 3.1739 0
M  V30 59 H -3.5426 0.0583 3.3607 0
M  V30 END ATOM
M  V30 BEGIN BOND
M  V30 1 2 1 2
M  V30 2 1 2 3
M  V30 3 1 2 4
M  V30 4 1 3 5
M  V30 5 1 4 6
M  V30 6 1 4 7
M  V30 7 1 4 8
M  V30 8 1 5 9
M  V30 9 2 7 10
M  V30 10 1 7 11
M  V30 11 1 8 12
M  V30 12 1 8 13
M  V30 13 1 9 14
M  V30 14 1 10 15
M  V30 15 2 11 16
M  V30 16 1 12 17
M  V30 17 1 13 18
M  V30 18 1 14 19
M  V30 19 1 14 20
M  V30 20 1 14 21
M  V30 21 2 15 22
M  V30 22 1 17 23
M  V30 23 1 19 24
M  V30 24 1 20 25
M  V30 25 1 16 22
M  V30 26 1 18 23
M  V30 27 1 5 26
M  V30 28 1 5 27
M  V30 29 1 6 28
M  V30 30 1 8 29
M  V30 31 1 9 30
M  V30 32 1 9 31
M  V30 33 1 10 32
M  V30 34 1 11 33
M  V30 35 1 12 34
M  V30 36 1 12 35
M  V30 37 1 13 36
M  V30 38 1 13 37
M  V30 39 1 15 38
M  V30 40 1 16 39
M  V30 41 1 17 40
M  V30 42 1 17 41
M  V30 43 1 18 42
M  V30 44 1 18 43
M  V30 45 1 19 44
M  V30 46 1 19 45
M  V30 47 1 20 46
M  V30 48 1 20 47
M  V30 49 1 21 48
M  V30 50 1 21 49
M  V30 51 1 21 50
M  V30 52 1 22 51
M  V30 53 1 23 52
M  V30 54 1 23 53
M  V30 55 1 24 54
M  V30 56 1 24 55
M  V30 57 1 24 56
M  V30 58 1 25 57
M  V30 59 1 25 58
M  V30 60 1 25 59
M  V30 END BOND
M  V30 BEGIN COLLECTION
M  V30 MDLV30/STERAC1 ATOMS=(1 4)
M  V30 END COLLECTION
M  V30 END CTAB
M  END
>  <NO.>
5242

>  <Name>
oxyphenonium

>  <SMILES>
CC[N+](C)(CC)CCOC(=O)C(O)(c1ccccc1)C1CCCCC1

>  <logBB>


>  <Class>
-1

>  <MW>
348.25

>  <nHBAcc>
3

>  <nHBDon>
1

>  <SLogP>
3.48

>  <TopoPSA>
46.53

>  <MMFF94 Energy>
113.51

$$$$
CC[N+](CC)(CC)CCC(O)(c1ccccc1)C1CCCCC1
Actelion Java MolfileCreator 2.0

  0  0  0  0  0  0              0 V3000
M  V30 BEGIN CTAB
M  V30 COUNTS 59 60 0 0 0
M  V30 BEGIN ATOM
M  V30 1 O -0.706 1.648 1.4909 0
M  V30 2 C -1.1446 0.7029 0.4942 0 CFG=2
M  V30 3 C -1.5274 1.4892 -0.7703 0
M  V30 4 C -2.3775 -0.0779 1.0892 0
M  V30 5 C 0.1059 -0.1939 0.2634 0
M  V30 6 C -1.8328 2.8622 -0.7143 0
M  V30 7 C -1.5892 0.8676 -2.0329 0
M  V30 8 C -2.9038 -1.2253 0.2023 0
M  V30 9 C -2.1097 -0.6166 2.5176 0
M  V30 10 C 1.333 0.6346 -0.1527 0
M  V30 11 C -2.1714 3.58 -1.8654 0
M  V30 12 C -1.9295 1.5849 -3.1835 0
M  V30 13 C -4.1217 -1.9201 0.8134 0
M  V30 14 C -3.3389 -1.2977 3.117 0
M  V30 15 N 2.6625 -0.1927 -0.2766 0 CHG=1
M  V30 16 C -2.2182 2.9419 -3.0995 0
M  V30 17 C -3.8439 -2.4221 2.2235 0
M  V30 18 C 3.7506 0.8318 -0.7122 0
M  V30 19 C 3.0351 -0.8623 1.0754 0
M  V30 20 C 2.5211 -1.3403 -1.309 0
M  V30 21 C 5.1374 0.236 -0.8903 0
M  V30 22 C 3.184 0.1031 2.2394 0
M  V30 23 C 2.1792 -0.8829 -2.7171 0
M  V30 24 H -1.5019 2.0258 1.9102 0
M  V30 25 H -3.1953 0.6522 1.1917 0
M  V30 26 H 0.3388 -0.7039 1.2014 0
M  V30 27 H -0.1041 -0.9675 -0.4792 0
M  V30 28 H -1.8117 3.4087 0.2257 0
M  V30 29 H -1.394 -0.1955 -2.1483 0
M  V30 30 H -3.2045 -0.8499 -0.7792 0
M  V30 31 H -2.1165 -1.9705 0.0404 0
M  V30 32 H -1.8084 0.1951 3.1887 0
M  V30 33 H -1.287 -1.3404 2.5022 0
M  V30 34 H 1.1791 1.1111 -1.1254 0
M  V30 35 H 1.5407 1.4364 0.5623 0
M  V30 36 H -2.4058 4.6403 -1.7951 0
M  V30 37 H -1.9839 1.0812 -4.1461 0
M  V30 38 H -4.4219 -2.7601 0.1768 0
M  V30 39 H -4.9661 -1.2198 0.8347 0
M  V30 40 H -4.1342 -0.5563 3.2623 0
M  V30 41 H -3.091 -1.698 4.1067 0
M  V30 42 H -2.4914 3.5002 -3.9919 0
M  V30 43 H -4.7571 -2.8523 2.65 0
M  V30 44 H -3.098 -3.2255 2.1868 0
M  V30 45 H 3.7741 1.6259 0.0411 0
M  V30 46 H 3.4124 1.2897 -1.6475 0
M  V30 47 H 2.263 -1.6064 1.2966 0
M  V30 48 H 3.9676 -1.4144 0.9195 0
M  V30 49 H 1.7509 -2.0229 -0.9352 0
M  V30 50 H 3.4645 -1.8962 -1.3112 0
M  V30 51 H 5.1616 -0.5395 -1.6597 0
M  V30 52 H 5.8294 1.0233 -1.2091 0
M  V30 53 H 5.5343 -0.1769 0.0404 0
M  V30 54 H 3.461 -0.4575 3.1391 0
M  V30 55 H 3.9715 0.8416 2.0701 0
M  V30 56 H 2.2516 0.626 2.4675 0
M  V30 57 H 1.2276 -0.3489 -2.7626 0
M  V30 58 H 2.9591 -0.2502 -3.1486 0
M  V30 59 H 2.0846 -1.7592 -3.3678 0
M  V30 END ATOM
M  V30 BEGIN BOND
M  V30 1 1 1 2
M  V30 2 1 2 3
M  V30 3 1 2 4
M  V30 4 1 2 5
M  V30 5 2 3 6
M  V30 6 1 3 7
M  V30 7 1 4 8
M  V30 8 1 4 9
M  V30 9 1 5 10
M  V30 10 1 6 11
M  V30 11 2 7 12
M  V30 12 1 8 13
M  V30 13 1 9 14
M  V30 14 1 10 15
M  V30 15 2 11 16
M  V30 16 1 13 17
M  V30 17 1 15 18
M  V30 18 1 15 19
M  V30 19 1 15 20
M  V30 20 1 18 21
M  V30 21 1 19 22
M  V30 22 1 20 23
M  V30 23 1 12 16
M  V30 24 1 14 17
M  V30 25 1 1 24
M  V30 26 1 4 25
M  V30 27 1 5 26
M  V30 28 1 5 27
M  V30 29 1 6 28
M  V30 30 1 7 29
M  V30 31 1 8 30
M  V30 32 1 8 31
M  V30 33 1 9 32
M  V30 34 1 9 33
M  V30 35 1 10 34
M  V30 36 1 10 35
M  V30 37 1 11 36
M  V30 38 1 12 37
M  V30 39 1 13 38
M  V30 40 1 13 39
M  V30 41 1 14 40
M  V30 42 1 14 41
M  V30 43 1 16 42
M  V30 44 1 17 43
M  V30 45 1 17 44
M  V30 46 1 18 45
M  V30 47 1 18 46
M  V30 48 1 19 47
M  V30 49 1 19 48
M  V30 50 1 20 49
M  V30 51 1 20 50
M  V30 52 1 21 51
M  V30 53 1 21 52
M  V30 54 1 21 53
M  V30 55 1 22 54
M  V30 56 1 22 55
M  V30 57 1 22 56
M  V30 58 1 23 57
M  V30 59 1 23 58
M  V30 60 1 23 59
M  V30 END BOND
M  V30 BEGIN COLLECTION
M  V30 MDLV30/STERAC1 ATOMS=(1 2)
M  V30 END COLLECTION
M  V30 END CTAB
M  END
>  <NO.>
5243

>  <Name>
tridihexethyl chloride

>  <SMILES>
CC[N+](CC)(CC)CCC(O)(c1ccccc1)C1CCCCC1

>  <logBB>


>  <Class>
-1

>  <MW>
318.28

>  <nHBAcc>
1

>  <nHBDon>
1

>  <SLogP>
4.72

>  <TopoPSA>
20.23

>  <MMFF94 Energy>
57.737

$$$$
CCc1ccc(CCOc2ccc(CC3SC(=O)NC3=O)cc2)nc1
Actelion Java MolfileCreator 2.0

  0  0  0  0  0  0              0 V3000
M  V30 BEGIN CTAB
M  V30 COUNTS 45 47 0 0 0
M  V30 BEGIN ATOM
M  V30 1 S -5.0044 -4.4385 -3.388 0
M  V30 2 C -5.0799 -6.1675 -3.1976 0
M  V30 3 C -3.7585 -4.2319 -2.0616 0 CFG=2
M  V30 4 O -5.7731 -6.8989 -3.8824 0
M  V30 5 N -4.278 -6.565 -2.1857 0
M  V30 6 C -3.5685 -5.6284 -1.4967 0
M  V30 7 C -4.253 -3.2469 -0.9999 0
M  V30 8 O -2.8665 -5.9183 -0.5369 0
M  V30 9 C -3.1129 -2.5151 -0.3274 0
M  V30 10 C -2.5999 -1.3384 -0.8897 0
M  V30 11 C -2.5373 -3.006 0.8482 0
M  V30 12 C -1.5353 -0.6611 -0.2845 0
M  V30 13 C -1.4736 -2.3281 1.4488 0
M  V30 14 C -0.967 -1.1538 0.8891 0
M  V30 15 O 0.0726 -0.5932 1.5783 0
M  V30 16 C 0.6299 0.6123 1.0431 0
M  V30 17 C 1.7655 1.0521 1.9649 0
M  V30 18 C 2.4551 2.3218 1.5338 0
M  V30 19 N 2.0451 2.928 0.3948 0
M  V30 20 C 3.4926 2.8304 2.3117 0
M  V30 21 C 2.6804 4.0649 0.0279 0
M  V30 22 C 4.1292 4.0025 1.9103 0
M  V30 23 C 3.7182 4.6479 0.7447 0
M  V30 24 C 4.3885 5.9034 0.265 0
M  V30 25 C 5.5669 5.6033 -0.6485 0
M  V30 26 H -2.821 -3.9168 -2.5318 0
M  V30 27 H -4.2291 -7.5384 -1.9311 0
M  V30 28 H -4.9098 -2.4837 -1.4389 0
M  V30 29 H -4.8565 -3.7546 -0.2356 0
M  V30 30 H -3.0267 -0.9332 -1.8051 0
M  V30 31 H -2.9021 -3.9232 1.3063 0
M  V30 32 H -1.1752 0.2476 -0.756 0
M  V30 33 H -1.0335 -2.7228 2.3612 0
M  V30 34 H -0.1404 1.3927 1.006 0
M  V30 35 H 1.0219 0.4245 0.0357 0
M  V30 36 H 2.5073 0.2458 2.0279 0
M  V30 37 H 1.369 1.1868 2.9795 0
M  V30 38 H 3.8058 2.3234 3.2191 0
M  V30 39 H 2.316 4.508 -0.8952 0
M  V30 40 H 4.9425 4.4042 2.509 0
M  V30 41 H 4.7286 6.492 1.1259 0
M  V30 42 H 3.6613 6.532 -0.2634 0
M  V30 43 H 6.0346 6.5353 -0.9814 0
M  V30 44 H 5.2492 5.0469 -1.5368 0
M  V30 45 H 6.3274 5.0072 -0.1331 0
M  V30 END ATOM
M  V30 BEGIN BOND
M  V30 1 1 1 2
M  V30 2 1 1 3
M  V30 3 2 2 4
M  V30 4 1 2 5
M  V30 5 1 3 6
M  V30 6 1 3 7
M  V30 7 2 6 8
M  V30 8 1 7 9
M  V30 9 2 9 10
M  V30 10 1 9 11
M  V30 11 1 10 12
M  V30 12 2 11 13
M  V30 13 2 12 14
M  V30 14 1 14 15
M  V30 15 1 15 16
M  V30 16 1 16 17
M  V30 17 1 17 18
M  V30 18 2 18 19
M  V30 19 1 18 20
M  V30 20 1 19 21
M  V30 21 2 20 22
M  V30 22 2 21 23
M  V30 23 1 23 24
M  V30 24 1 24 25
M  V30 25 1 5 6
M  V30 26 1 13 14
M  V30 27 1 22 23
M  V30 28 1 3 26
M  V30 29 1 5 27
M  V30 30 1 7 28
M  V30 31 1 7 29
M  V30 32 1 10 30
M  V30 33 1 11 31
M  V30 34 1 12 32
M  V30 35 1 13 33
M  V30 36 1 16 34
M  V30 37 1 16 35
M  V30 38 1 17 36
M  V30 39 1 17 37
M  V30 40 1 20 38
M  V30 41 1 21 39
M  V30 42 1 22 40
M  V30 43 1 24 41
M  V30 44 1 24 42
M  V30 45 1 25 43
M  V30 46 1 25 44
M  V30 47 1 25 45
M  V30 END BOND
M  V30 BEGIN COLLECTION
M  V30 MDLV30/STERAC1 ATOMS=(1 3)
M  V30 END COLLECTION
M  V30 END CTAB
M  END
>  <NO.>
5245

>  <Name>
pioglitazone

>  <SMILES>
CCc1ccc(CCOc2ccc(CC3SC(=O)NC3=O)cc2)nc1

>  <logBB>


>  <Class>
-1

>  <MW>
356.12

>  <nHBAcc>
5

>  <nHBDon>
1

>  <SLogP>
3.16

>  <TopoPSA>
68.29

>  <MMFF94 Energy>
-15.834

$$$$
CCn1cc(C(=O)O)c(=O)c2cc3c(cc21)OCO3
Actelion Java MolfileCreator 2.0

  0  0  0  0  0  0              0 V3000
M  V30 BEGIN CTAB
M  V30 COUNTS 30 32 0 0 0
M  V30 BEGIN ATOM
M  V30 1 O -0.1611 -3.3888 -0.1611 0
M  V30 2 C -0.1222 -2.2493 0.2905 0
M  V30 3 C -0.0236 -1.9734 1.7437 0
M  V30 4 C -0.186 -1.0899 -0.6378 0
M  V30 5 C 0.11 -3.0519 2.7421 0
M  V30 6 C -0.0481 -0.6829 2.1124 0
M  V30 7 C -0.1988 0.2362 -0.1165 0
M  V30 8 C -0.234 -1.3507 -2.019 0
M  V30 9 O 0.3225 -4.2321 2.5353 0
M  V30 10 O -0.0228 -2.6223 4.0155 0
M  V30 11 N -0.1531 0.4269 1.284 0
M  V30 12 C -0.2572 1.2968 -1.0398 0
M  V30 13 C -0.2916 -0.2737 -2.8684 0
M  V30 14 C -0.1684 1.7889 1.8486 0
M  V30 15 C -0.3022 1.012 -2.3921 0
M  V30 16 O -0.3416 -0.3269 -4.2249 0
M  V30 17 C 1.2335 2.3801 1.8912 0
M  V30 18 O -0.3593 1.9343 -3.3911 0
M  V30 19 C -0.3853 1.0769 -4.5522 0
M  V30 20 H 0.025 -0.4118 3.1638 0
M  V30 21 H -0.2253 -2.3643 -2.4069 0
M  V30 22 H 0.0818 -3.4497 4.5328 0
M  V30 23 H -0.2633 2.3374 -0.7412 0
M  V30 24 H -0.5594 1.7572 2.8744 0
M  V30 25 H -0.8596 2.4467 1.3101 0
M  V30 26 H 1.6679 2.4671 0.8908 0
M  V30 27 H 1.9038 1.7562 2.4918 0
M  V30 28 H 1.2087 3.3789 2.338 0
M  V30 29 H -1.3034 1.278 -5.1161 0
M  V30 30 H 0.4768 1.3173 -5.1849 0
M  V30 END ATOM
M  V30 BEGIN BOND
M  V30 1 2 1 2
M  V30 2 1 2 3
M  V30 3 1 2 4
M  V30 4 1 3 5
M  V30 5 2 3 6
M  V30 6 2 4 7
M  V30 7 1 4 8
M  V30 8 2 5 9
M  V30 9 1 5 10
M  V30 10 1 6 11
M  V30 11 1 7 12
M  V30 12 2 8 13
M  V30 13 1 11 14
M  V30 14 2 12 15
M  V30 15 1 13 16
M  V30 16 1 14 17
M  V30 17 1 15 18
M  V30 18 1 16 19
M  V30 19 1 7 11
M  V30 20 1 13 15
M  V30 21 1 18 19
M  V30 22 1 6 20
M  V30 23 1 8 21
M  V30 24 1 10 22
M  V30 25 1 12 23
M  V30 26 1 14 24
M  V30 27 1 14 25
M  V30 28 1 17 26
M  V30 29 1 17 27
M  V30 30 1 17 28
M  V30 31 1 19 29
M  V30 32 1 19 30
M  V30 END BOND
M  V30 END CTAB
M  END
>  <NO.>
5246

>  <Name>
oxolinic

>  <SMILES>
CCn1cc(C(=O)O)c(=O)c2cc3c(cc21)OCO3

>  <logBB>


>  <Class>
-1

>  <MW>
261.06

>  <nHBAcc>
4

>  <nHBDon>
1

>  <SLogP>
1.45

>  <TopoPSA>
77.76

>  <MMFF94 Energy>
21.242

$$$$
CCn1cc(C(=O)O)c(=O)c2ccc(-c3ccncc3)cc21
Actelion Java MolfileCreator 2.0

  0  0  0  0  0  0              0 V3000
M  V30 BEGIN CTAB
M  V30 COUNTS 36 38 0 0 0
M  V30 BEGIN ATOM
M  V30 1 O -0.08 -0.8011 -4.0909 0
M  V30 2 C 0.2836 -0.131 -3.1304 0
M  V30 3 C 1.0794 1.1109 -3.2811 0
M  V30 4 C -0.0692 -0.5682 -1.754 0
M  V30 5 C 1.4324 1.6649 -4.6024 0
M  V30 6 C 1.4576 1.719 -2.1455 0
M  V30 7 C 0.3861 0.1661 -0.6408 0
M  V30 8 C -0.8564 -1.7184 -1.5997 0
M  V30 9 O 1.0316 1.2988 -5.6914 0
M  V30 10 O 2.2998 2.6974 -4.5359 0
M  V30 11 N 1.1836 1.3143 -0.8448 0
M  V30 12 C 0.0071 -0.3058 0.6302 0
M  V30 13 C -1.21 -2.1586 -0.3267 0
M  V30 14 C 1.6802 2.0921 0.3045 0
M  V30 15 C -0.7868 -1.4589 0.8086 0
M  V30 16 C 0.6396 3.0978 0.7765 0
M  V30 17 C -1.1603 -1.914 2.1566 0
M  V30 18 C -0.8472 -3.2051 2.5965 0
M  V30 19 C -1.8406 -1.0703 3.0424 0
M  V30 20 C -1.2157 -3.5868 3.8772 0
M  V30 21 C -2.1701 -1.5438 4.3029 0
M  V30 22 N -1.8696 -2.7832 4.7408 0
M  V30 23 H 2.041 2.6367 -2.1825 0
M  V30 24 H -1.1988 -2.2711 -2.4728 0
M  V30 25 H 2.4274 2.9313 -5.4803 0
M  V30 26 H 0.3291 0.2139 1.5281 0
M  V30 27 H -1.8316 -3.0468 -0.2297 0
M  V30 28 H 2.5832 2.6444 0.0124 0
M  V30 29 H 2.0069 1.4443 1.1253 0
M  V30 30 H -0.2779 2.6059 1.1129 0
M  V30 31 H 0.3698 3.7895 -0.0284 0
M  V30 32 H 1.0341 3.6858 1.611 0
M  V30 33 H -0.3147 -3.9042 1.9598 0
M  V30 34 H -2.1249 -0.0629 2.756 0
M  V30 35 H -0.9851 -4.5798 4.2524 0
M  V30 36 H -2.7029 -0.9184 5.0135 0
M  V30 END ATOM
M  V30 BEGIN BOND
M  V30 1 2 1 2
M  V30 2 1 2 3
M  V30 3 1 2 4
M  V30 4 1 3 5
M  V30 5 2 3 6
M  V30 6 2 4 7
M  V30 7 1 4 8
M  V30 8 2 5 9
M  V30 9 1 5 10
M  V30 10 1 6 11
M  V30 11 1 7 12
M  V30 12 2 8 13
M  V30 13 1 11 14
M  V30 14 2 12 15
M  V30 15 1 14 16
M  V30 16 1 15 17
M  V30 17 2 17 18
M  V30 18 1 17 19
M  V30 19 1 18 20
M  V30 20 2 19 21
M  V30 21 2 20 22
M  V30 22 1 7 11
M  V30 23 1 13 15
M  V30 24 1 21 22
M  V30 25 1 6 23
M  V30 26 1 8 24
M  V30 27 1 10 25
M  V30 28 1 12 26
M  V30 29 1 13 27
M  V30 30 1 14 28
M  V30 31 1 14 29
M  V30 32 1 16 30
M  V30 33 1 16 31
M  V30 34 1 16 32
M  V30 35 1 18 33
M  V30 36 1 19 34
M  V30 37 1 20 35
M  V30 38 1 21 36
M  V30 END BOND
M  V30 END CTAB
M  END
>  <NO.>
5247

>  <Name>
rosoxacin

>  <SMILES>
CCn1cc(C(=O)O)c(=O)c2ccc(-c3ccncc3)cc21

>  <logBB>


>  <Class>
-1

>  <MW>
294.1

>  <nHBAcc>
3

>  <nHBDon>
1

>  <SLogP>
2.78

>  <TopoPSA>
72.19

>  <MMFF94 Energy>
40.023

$$$$
CCn1ccc(NS(=O)(=O)c2ccc(N)cc2)nc1=O
Actelion Java MolfileCreator 2.0

  0  0  0  0  0  0              0 V3000
M  V30 BEGIN CTAB
M  V30 COUNTS 34 35 0 0 0
M  V30 BEGIN ATOM
M  V30 1 S -2.3306 -2.1697 -0.2409 0
M  V30 2 O -1.7807 -2.9527 -1.3259 0
M  V30 3 O -3.6035 -2.496 0.3621 0
M  V30 4 N -1.2148 -2.119 0.9865 0
M  V30 5 C -2.4185 -0.4745 -0.7602 0
M  V30 6 C 0.1142 -1.6874 0.9993 0
M  V30 7 C -2.7676 0.5076 0.1689 0
M  V30 8 C -2.1285 -0.1308 -2.0813 0
M  V30 9 N 0.5893 -1.4297 2.1629 0
M  V30 10 C 0.8344 -1.582 -0.2724 0
M  V30 11 C -2.8134 1.8454 -0.2316 0
M  V30 12 C -2.1804 1.2111 -2.4676 0
M  V30 13 C 1.885 -0.9842 2.2584 0
M  V30 14 C 2.0922 -1.1589 -0.1534 0
M  V30 15 C -2.5361 2.2076 -1.5534 0
M  V30 16 O 2.3658 -0.6934 3.3508 0
M  V30 17 N 2.6308 -0.8631 1.0786 0
M  V30 18 N -2.5404 3.5373 -1.9316 0
M  V30 19 C 4.0095 -0.3832 1.1621 0
M  V30 20 C 4.088 1.1314 1.0437 0
M  V30 21 H -1.6412 -2.222 1.9055 0
M  V30 22 H -3.0026 0.2465 1.1979 0
M  V30 23 H -1.8642 -0.8895 -2.8141 0
M  V30 24 H 0.403 -1.847 -1.2233 0
M  V30 25 H -3.0737 2.6072 0.4995 0
M  V30 26 H -1.9445 1.4745 -3.4959 0
M  V30 27 H 2.7329 -1.0429 -1.0226 0
M  V30 28 H -2.4301 3.7923 -2.9036 0
M  V30 29 H -2.8759 4.2469 -1.2937 0
M  V30 30 H 4.6044 -0.8566 0.3719 0
M  V30 31 H 4.4472 -0.6934 2.1179 0
M  V30 32 H 3.5155 1.6192 1.8395 0
M  V30 33 H 3.6845 1.473 0.0848 0
M  V30 34 H 5.1277 1.4651 1.1157 0
M  V30 END ATOM
M  V30 BEGIN BOND
M  V30 1 2 1 2
M  V30 2 2 1 3
M  V30 3 1 1 4
M  V30 4 1 1 5
M  V30 5 1 4 6
M  V30 6 2 5 7
M  V30 7 1 5 8
M  V30 8 2 6 9
M  V30 9 1 6 10
M  V30 10 1 7 11
M  V30 11 2 8 12
M  V30 12 1 9 13
M  V30 13 2 10 14
M  V30 14 2 11 15
M  V30 15 2 13 16
M  V30 16 1 13 17
M  V30 17 1 15 18
M  V30 18 1 17 19
M  V30 19 1 19 20
M  V30 20 1 12 15
M  V30 21 1 14 17
M  V30 22 1 4 21
M  V30 23 1 7 22
M  V30 24 1 8 23
M  V30 25 1 10 24
M  V30 26 1 11 25
M  V30 27 1 12 26
M  V30 28 1 14 27
M  V30 29 1 18 28
M  V30 30 1 18 29
M  V30 31 1 19 30
M  V30 32 1 19 31
M  V30 33 1 20 32
M  V30 34 1 20 33
M  V30 35 1 20 34
M  V30 END BOND
M  V30 END CTAB
M  END
>  <NO.>
5249

>  <Name>
sulfacytine

>  <SMILES>
CCn1ccc(NS(=O)(=O)c2ccc(N)cc2)nc1=O

>  <logBB>


>  <Class>
-1

>  <MW>
294.08

>  <nHBAcc>
5

>  <nHBDon>
2

>  <SLogP>
0.65

>  <TopoPSA>
107.08

>  <MMFF94 Energy>
-144.35

$$$$
CN(C)C=Nc1c(I)cc(I)c(CCC(=O)O)c1I
Actelion Java MolfileCreator 2.0

  0  0  0  0  0  0              0 V3000
M  V30 BEGIN CTAB
M  V30 COUNTS 32 32 0 0 0
M  V30 BEGIN ATOM
M  V30 1 I 0.2523 -0.8413 2.1042 0
M  V30 2 C 0.7826 -0.5887 0.0281 0
M  V30 3 C 1.0845 0.7293 -0.4091 0
M  V30 4 C 0.8287 -1.7071 -0.8519 0
M  V30 5 N 1.0452 1.8268 0.4796 0
M  V30 6 C 1.4714 0.9098 -1.7465 0
M  V30 7 C 1.1878 -1.456 -2.1944 0
M  V30 8 C 0.4836 -3.1109 -0.3846 0
M  V30 9 C -0.0705 2.4795 0.5336 0
M  V30 10 I 2.0189 2.7931 -2.516 0
M  V30 11 C 1.5136 -0.1668 -2.6318 0
M  V30 12 I 1.2805 -2.9482 -3.6914 0
M  V30 13 C -1.0069 -3.42 -0.5261 0
M  V30 14 N -0.3259 3.5709 1.3265 0
M  V30 15 C -1.3153 -4.8122 -0.0531 0
M  V30 16 C -1.6544 4.1434 1.4272 0
M  V30 17 C 0.6708 4.0271 2.2818 0
M  V30 18 O -0.5304 -5.6466 0.3617 0
M  V30 19 O -2.6315 -5.09 -0.1347 0
M  V30 20 H 0.814 -3.2698 0.6472 0
M  V30 21 H 1.0779 -3.8537 -0.928 0
M  V30 22 H -0.9427 2.1872 -0.0823 0
M  V30 23 H 1.8057 3.0E-4 -3.6666 0
M  V30 24 H -1.6046 -2.7186 0.0656 0
M  V30 25 H -1.3204 -3.339 -1.5723 0
M  V30 26 H -1.6091 5.215 1.6485 0
M  V30 27 H -2.2192 3.6473 2.2229 0
M  V30 28 H -2.2077 4.0306 0.4887 0
M  V30 29 H 0.4179 5.0114 2.6901 0
M  V30 30 H 0.7451 3.3223 3.1164 0
M  V30 31 H 1.6542 4.1164 1.8081 0
M  V30 32 H -2.7027 -6.0106 0.1951 0
M  V30 END ATOM
M  V30 BEGIN BOND
M  V30 1 1 1 2
M  V30 2 2 2 3
M  V30 3 1 2 4
M  V30 4 1 3 5
M  V30 5 1 3 6
M  V30 6 2 4 7
M  V30 7 1 4 8
M  V30 8 2 5 9
M  V30 9 1 6 10
M  V30 10 2 6 11
M  V30 11 1 7 12
M  V30 12 1 8 13
M  V30 13 1 9 14
M  V30 14 1 13 15
M  V30 15 1 14 16
M  V30 16 1 14 17
M  V30 17 2 15 18
M  V30 18 1 15 19
M  V30 19 1 7 11
M  V30 20 1 8 20
M  V30 21 1 8 21
M  V30 22 1 9 22
M  V30 23 1 11 23
M  V30 24 1 13 24
M  V30 25 1 13 25
M  V30 26 1 16 26
M  V30 27 1 16 27
M  V30 28 1 16 28
M  V30 29 1 17 29
M  V30 30 1 17 30
M  V30 31 1 17 31
M  V30 32 1 19 32
M  V30 END BOND
M  V30 END CTAB
M  END
>  <NO.>
5250

>  <Name>
ipodate

>  <SMILES>
CN(C)C=Nc1c(I)cc(I)c(CCC(=O)O)c1I

>  <logBB>


>  <Class>
-1

>  <MW>
597.81

>  <nHBAcc>
2

>  <nHBDon>
1

>  <SLogP>
3.74

>  <TopoPSA>
52.9

>  <MMFF94 Energy>
-10.359

$$$$
CN(C)CCC(c1ccc(Br)cc1)c1ccccn1
Actelion Java MolfileCreator 2.0

  0  0  0  0  0  0              0 V3000
M  V30 BEGIN CTAB
M  V30 COUNTS 38 39 0 0 0
M  V30 BEGIN ATOM
M  V30 1 Br -4.5619 2.0789 -3.1196 0
M  V30 2 C -3.1698 1.4024 -2.034 0
M  V30 3 C -2.049 2.1887 -1.7781 0
M  V30 4 C -3.2712 0.1207 -1.4989 0
M  V30 5 C -1.0207 1.6887 -0.9763 0
M  V30 6 C -2.2416 -0.3788 -0.6987 0
M  V30 7 C -1.1062 0.4007 -0.4229 0
M  V30 8 C 0.0345 -0.1331 0.4408 0 CFG=1
M  V30 9 C -0.4595 -0.5982 1.8132 0
M  V30 10 C 0.8441 -1.2344 -0.2834 0
M  V30 11 N -0.6814 -1.9247 2.0093 0
M  V30 12 C -0.7116 0.3473 2.8092 0
M  V30 13 C 1.5633 -0.7555 -1.5549 0
M  V30 14 C -1.143 -2.3095 3.2195 0
M  V30 15 C -1.188 -0.0803 4.0454 0
M  V30 16 N 2.4752 0.385 -1.3475 0
M  V30 17 C -1.4074 -1.4347 4.2584 0
M  V30 18 C 2.9099 0.9153 -2.6431 0
M  V30 19 C 3.6462 0.0081 -0.5519 0
M  V30 20 H -1.9627 3.1866 -2.1988 0
M  V30 21 H -4.1427 -0.4973 -1.6959 0
M  V30 22 H -0.1423 2.3057 -0.7953 0
M  V30 23 H -2.3307 -1.3822 -0.2846 0
M  V30 24 H 0.7282 0.6931 0.6498 0
M  V30 25 H 1.5813 -1.6639 0.4069 0
M  V30 26 H 0.1848 -2.067 -0.5642 0
M  V30 27 H -0.5468 1.4043 2.6245 0
M  V30 28 H 2.1071 -1.6028 -1.9937 0
M  V30 29 H 0.7962 -0.4778 -2.289 0
M  V30 30 H -1.3017 -3.3777 3.3346 0
M  V30 31 H -1.3903 0.6398 4.8328 0
M  V30 32 H -1.7792 -1.7997 5.2089 0
M  V30 33 H 2.0486 1.2577 -3.2278 0
M  V30 34 H 3.4554 0.1702 -3.2333 0
M  V30 35 H 3.5572 1.7886 -2.5044 0
M  V30 36 H 4.2108 -0.8122 -1.009 0
M  V30 37 H 3.3579 -0.2888 0.4611 0
M  V30 38 H 4.3209 0.8639 -0.4342 0
M  V30 END ATOM
M  V30 BEGIN BOND
M  V30 1 1 1 2
M  V30 2 2 2 3
M  V30 3 1 2 4
M  V30 4 1 3 5
M  V30 5 2 4 6
M  V30 6 2 5 7
M  V30 7 1 7 8
M  V30 8 1 8 9
M  V30 9 1 8 10
M  V30 10 2 9 11
M  V30 11 1 9 12
M  V30 12 1 10 13
M  V30 13 1 11 14
M  V30 14 2 12 15
M  V30 15 1 13 16
M  V30 16 2 14 17
M  V30 17 1 16 18
M  V30 18 1 16 19
M  V30 19 1 6 7
M  V30 20 1 15 17
M  V30 21 1 3 20
M  V30 22 1 4 21
M  V30 23 1 5 22
M  V30 24 1 6 23
M  V30 25 1 8 24
M  V30 26 1 10 25
M  V30 27 1 10 26
M  V30 28 1 12 27
M  V30 29 1 13 28
M  V30 30 1 13 29
M  V30 31 1 14 30
M  V30 32 1 15 31
M  V30 33 1 17 32
M  V30 34 1 18 33
M  V30 35 1 18 34
M  V30 36 1 18 35
M  V30 37 1 19 36
M  V30 38 1 19 37
M  V30 39 1 19 38
M  V30 END BOND
M  V30 BEGIN COLLECTION
M  V30 MDLV30/STERAC1 ATOMS=(1 8)
M  V30 END COLLECTION
M  V30 END CTAB
M  END
>  <NO.>
5252

>  <Name>
brompheniramine

>  <SMILES>
CN(C)CCC(c1ccc(Br)cc1)c1ccccn1

>  <logBB>


>  <Class>
1

>  <MW>
318.07

>  <nHBAcc>
2

>  <nHBDon>
0

>  <SLogP>
3.93

>  <TopoPSA>
16.13

>  <MMFF94 Energy>
57.53

$$$$
CN(C)CCC=C1C=c2ccccc2=Cc2ccccc21
Actelion Java MolfileCreator 2.0

  0  0  0  0  0  0              0 V3000
M  V30 BEGIN CTAB
M  V30 COUNTS 42 44 0 0 0
M  V30 BEGIN ATOM
M  V30 1 N -1.8246 1.5071 -3.016 0
M  V30 2 C -0.813 0.4356 -2.9067 0
M  V30 3 C -3.0959 1.0091 -3.5432 0
M  V30 4 C -1.3204 2.5838 -3.8721 0
M  V30 5 C -1.1091 -0.6366 -1.8359 0
M  V30 6 C -1.1552 -0.0705 -0.4372 0
M  V30 7 C -0.5299 -0.5182 0.6736 0
M  V30 8 C 0.2627 -1.7668 0.6919 0
M  V30 9 C -0.6524 0.2802 1.8836 0
M  V30 10 C 1.5875 -1.7825 1.1592 0
M  V30 11 C -0.3421 -2.9762 0.2964 0
M  V30 12 C 0.3777 0.7271 2.6287 0
M  V30 13 C 2.3064 -0.5967 1.6654 0
M  V30 14 C 2.2977 -2.9984 1.1428 0
M  V30 15 C 0.3712 -4.1742 0.2998 0
M  V30 16 C 1.8112 0.4677 2.3326 0
M  V30 17 C 0.0729 1.6249 3.7525 0
M  V30 18 C 1.6966 -4.1833 0.7146 0
M  V30 19 C 2.7808 1.4395 2.8684 0
M  V30 20 C 1.0431 2.3778 4.2998 0
M  V30 21 C 2.4039 2.336 3.7975 0
M  V30 22 H 0.1574 0.8848 -2.6546 0
M  V30 23 H -0.6833 -0.0607 -3.8777 0
M  V30 24 H -3.5531 0.2859 -2.8611 0
M  V30 25 H -2.9801 0.5374 -4.5255 0
M  V30 26 H -3.8182 1.828 -3.6406 0
M  V30 27 H -1.1128 2.2385 -4.8914 0
M  V30 28 H -0.4 3.0088 -3.4562 0
M  V30 29 H -2.0442 3.4049 -3.9259 0
M  V30 30 H -2.0586 -1.1396 -2.0471 0
M  V30 31 H -0.327 -1.3971 -1.9282 0
M  V30 32 H -1.7392 0.8484 -0.3624 0
M  V30 33 H -1.6689 0.5816 2.1298 0
M  V30 34 H -1.3837 -2.9863 -0.0177 0
M  V30 35 H 3.3849 -0.6622 1.5302 0
M  V30 36 H 3.3288 -3.037 1.4884 0
M  V30 37 H -0.11 -5.0954 -0.0164 0
M  V30 38 H -0.9444 1.6834 4.125 0
M  V30 39 H 2.2603 -5.1123 0.7216 0
M  V30 40 H 3.8066 1.4175 2.516 0
M  V30 41 H 0.8266 3.0508 5.1232 0
M  V30 42 H 3.1151 3.0486 4.2025 0
M  V30 END ATOM
M  V30 BEGIN BOND
M  V30 1 1 1 2
M  V30 2 1 1 3
M  V30 3 1 1 4
M  V30 4 1 2 5
M  V30 5 1 5 6
M  V30 6 2 6 7
M  V30 7 1 7 8
M  V30 8 1 7 9
M  V30 9 2 8 10
M  V30 10 1 8 11
M  V30 11 2 9 12
M  V30 12 1 10 13
M  V30 13 1 10 14
M  V30 14 2 11 15
M  V30 15 1 12 16
M  V30 16 1 12 17
M  V30 17 2 14 18
M  V30 18 1 16 19
M  V30 19 2 17 20
M  V30 20 2 19 21
M  V30 21 2 13 16
M  V30 22 1 15 18
M  V30 23 1 20 21
M  V30 24 1 2 22
M  V30 25 1 2 23
M  V30 26 1 3 24
M  V30 27 1 3 25
M  V30 28 1 3 26
M  V30 29 1 4 27
M  V30 30 1 4 28
M  V30 31 1 4 29
M  V30 32 1 5 30
M  V30 33 1 5 31
M  V30 34 1 6 32
M  V30 35 1 9 33
M  V30 36 1 11 34
M  V30 37 1 13 35
M  V30 38 1 14 36
M  V30 39 1 15 37
M  V30 40 1 17 38
M  V30 41 1 18 39
M  V30 42 1 19 40
M  V30 43 1 20 41
M  V30 44 1 21 42
M  V30 END BOND
M  V30 END CTAB
M  END
>  <NO.>
5253

>  <Name>
cyclobenzaprine hydrochloride

>  <SMILES>
CN(C)CCC=C1C=c2ccccc2=Cc2ccccc21

>  <logBB>


>  <Class>
-1

>  <MW>
275.17

>  <nHBAcc>
1

>  <nHBDon>
0

>  <SLogP>
2.64

>  <TopoPSA>
3.24

>  <MMFF94 Energy>
88.188

$$$$
CN(C)CCN(Cc1ccccc1)c1ccccn1
Actelion Java MolfileCreator 2.0

  0  0  0  0  0  0              0 V3000
M  V30 BEGIN CTAB
M  V30 COUNTS 40 41 0 0 0
M  V30 BEGIN ATOM
M  V30 1 N -2.1158 -1.5669 0.6265 0
M  V30 2 C -2.0525 -0.4082 -0.0725 0
M  V30 3 C -2.9848 -2.531 0.2476 0
M  V30 4 N -1.1528 0.5517 0.3505 0
M  V30 5 C -2.8898 -0.2376 -1.1762 0
M  V30 6 C -3.8348 -2.4178 -0.8307 0
M  V30 7 C -1.0334 1.8893 -0.218 0
M  V30 8 C -0.2837 0.2232 1.4952 0
M  V30 9 C -3.783 -1.2428 -1.558 0
M  V30 10 C 0.2041 2.035 -1.0773 0
M  V30 11 C 0.8888 -0.7041 1.0963 0
M  V30 12 C 1.2574 2.8675 -0.6672 0
M  V30 13 C 0.3273 1.3459 -2.2929 0
M  V30 14 N 1.8609 -0.9473 2.1911 0
M  V30 15 C 2.4015 3.0086 -1.4548 0
M  V30 16 C 1.4721 1.4881 -3.0794 0
M  V30 17 C 3.0557 -1.5988 1.6476 0
M  V30 18 C 1.275 -1.7887 3.2378 0
M  V30 19 C 2.5078 2.3203 -2.6609 0
M  V30 20 H -2.9731 -3.4263 0.8617 0
M  V30 21 H -2.8702 0.6648 -1.7733 0
M  V30 22 H -4.5138 -3.2192 -1.095 0
M  V30 23 H -1.9093 2.201 -0.7964 0
M  V30 24 H -0.9943 2.618 0.6029 0
M  V30 25 H -0.8803 -0.209 2.3074 0
M  V30 26 H 0.1378 1.1472 1.9131 0
M  V30 27 H -4.4287 -1.0995 -2.4193 0
M  V30 28 H 0.5152 -1.657 0.7016 0
M  V30 29 H 1.4199 -0.2209 0.2672 0
M  V30 30 H 1.198 3.4058 0.2762 0
M  V30 31 H -0.4627 0.6799 -2.6287 0
M  V30 32 H 3.2123 3.652 -1.1231 0
M  V30 33 H 1.5572 0.943 -4.0157 0
M  V30 34 H 3.5354 -0.9602 0.8974 0
M  V30 35 H 2.8268 -2.5654 1.1843 0
M  V30 36 H 3.798 -1.7613 2.437 0
M  V30 37 H 0.9168 -2.7482 2.8475 0
M  V30 38 H 0.442 -1.2818 3.7343 0
M  V30 39 H 2.0132 -1.9933 4.0219 0
M  V30 40 H 3.4002 2.4272 -3.2715 0
M  V30 END ATOM
M  V30 BEGIN BOND
M  V30 1 2 1 2
M  V30 2 1 1 3
M  V30 3 1 2 4
M  V30 4 1 2 5
M  V30 5 2 3 6
M  V30 6 1 4 7
M  V30 7 1 4 8
M  V30 8 2 5 9
M  V30 9 1 7 10
M  V30 10 1 8 11
M  V30 11 2 10 12
M  V30 12 1 10 13
M  V30 13 1 11 14
M  V30 14 1 12 15
M  V30 15 2 13 16
M  V30 16 1 14 17
M  V30 17 1 14 18
M  V30 18 2 15 19
M  V30 19 1 6 9
M  V30 20 1 16 19
M  V30 21 1 3 20
M  V30 22 1 5 21
M  V30 23 1 6 22
M  V30 24 1 7 23
M  V30 25 1 7 24
M  V30 26 1 8 25
M  V30 27 1 8 26
M  V30 28 1 9 27
M  V30 29 1 11 28
M  V30 30 1 11 29
M  V30 31 1 12 30
M  V30 32 1 13 31
M  V30 33 1 15 32
M  V30 34 1 16 33
M  V30 35 1 17 34
M  V30 36 1 17 35
M  V30 37 1 17 36
M  V30 38 1 18 37
M  V30 39 1 18 38
M  V30 40 1 18 39
M  V30 41 1 19 40
M  V30 END BOND
M  V30 END CTAB
M  END
>  <NO.>
5254

>  <Name>
tripelennamine

>  <SMILES>
CN(C)CCN(Cc1ccccc1)c1ccccn1

>  <logBB>


>  <Class>
1

>  <MW>
255.17

>  <nHBAcc>
3

>  <nHBDon>
0

>  <SLogP>
2.65

>  <TopoPSA>
19.37

>  <MMFF94 Energy>
36.197

$$$$
CN(C)CCOC1=Cc2cc(Cl)ccc2Sc2ccccc21
Actelion Java MolfileCreator 2.0

  0  0  0  0  0  0              0 V3000
M  V30 BEGIN CTAB
M  V30 COUNTS 40 42 0 0 0
M  V30 BEGIN ATOM
M  V30 1 Cl 4.4939 -3.4303 -2.6128 0
M  V30 2 C 2.811 -3.1839 -2.3534 0
M  V30 3 C 2.3849 -2.3071 -1.3564 0
M  V30 4 C 1.8848 -3.8694 -3.1306 0
M  V30 5 C 1.014 -2.089 -1.1332 0
M  V30 6 C 0.5208 -3.669 -2.9122 0
M  V30 7 C 0.0753 -2.7753 -1.9244 0
M  V30 8 C 0.6492 -1.2279 0.0062 0
M  V30 9 S -1.6921 -2.5825 -1.7416 0
M  V30 10 C -0.2929 -0.2646 0.0469 0
M  V30 11 C -1.823 -0.8064 -1.9231 0
M  V30 12 O -0.5857 0.5081 1.1577 0
M  V30 13 C -1.1308 0.1171 -1.1178 0
M  V30 14 C -2.6739 -0.3438 -2.9425 0
M  V30 15 C 0.0312 0.1922 2.4068 0
M  V30 16 C -1.2987 1.4914 -1.3823 0
M  V30 17 C -2.8246 1.0209 -3.1865 0
M  V30 18 C -0.5418 1.0949 3.5181 0
M  V30 19 C -2.1318 1.9398 -2.4089 0
M  V30 20 N -0.0776 2.4937 3.6005 0
M  V30 21 C -0.4006 3.2651 2.4034 0
M  V30 22 C 1.3414 2.6031 3.9235 0
M  V30 23 H 3.1261 -1.7918 -0.7492 0
M  V30 24 H 2.2125 -4.5586 -3.9041 0
M  V30 25 H -0.1954 -4.2106 -3.5271 0
M  V30 26 H 1.2486 -1.4354 0.8875 0
M  V30 27 H -3.2214 -1.0498 -3.5637 0
M  V30 28 H 1.1182 0.3027 2.3375 0
M  V30 29 H -0.2045 -0.8473 2.6667 0
M  V30 30 H -0.7794 2.2287 -0.7731 0
M  V30 31 H -3.4817 1.3627 -3.9817 0
M  V30 32 H -1.6362 1.1084 3.4313 0
M  V30 33 H -0.3275 0.62 4.4843 0
M  V30 34 H -2.2453 3.0056 -2.59 0
M  V30 35 H -1.4641 3.1771 2.1552 0
M  V30 36 H 0.1899 2.9593 1.5336 0
M  V30 37 H -0.2091 4.33 2.5786 0
M  V30 38 H 1.9884 2.24 3.1182 0
M  V30 39 H 1.5765 2.0437 4.8357 0
M  V30 40 H 1.6059 3.648 4.1222 0
M  V30 END ATOM
M  V30 BEGIN BOND
M  V30 1 1 1 2
M  V30 2 2 2 3
M  V30 3 1 2 4
M  V30 4 1 3 5
M  V30 5 2 4 6
M  V30 6 2 5 7
M  V30 7 1 5 8
M  V30 8 1 7 9
M  V30 9 2 8 10
M  V30 10 1 9 11
M  V30 11 1 10 12
M  V30 12 1 10 13
M  V30 13 1 11 14
M  V30 14 1 12 15
M  V30 15 1 13 16
M  V30 16 2 14 17
M  V30 17 1 15 18
M  V30 18 2 16 19
M  V30 19 1 18 20
M  V30 20 1 20 21
M  V30 21 1 20 22
M  V30 22 1 6 7
M  V30 23 2 11 13
M  V30 24 1 17 19
M  V30 25 1 3 23
M  V30 26 1 4 24
M  V30 27 1 6 25
M  V30 28 1 8 26
M  V30 29 1 14 27
M  V30 30 1 15 28
M  V30 31 1 15 29
M  V30 32 1 16 30
M  V30 33 1 17 31
M  V30 34 1 18 32
M  V30 35 1 18 33
M  V30 36 1 19 34
M  V30 37 1 21 35
M  V30 38 1 21 36
M  V30 39 1 21 37
M  V30 40 1 22 38
M  V30 41 1 22 39
M  V30 42 1 22 40
M  V30 END BOND
M  V30 END CTAB
M  END
>  <NO.>
5255

>  <Name>
zotepine

>  <SMILES>
CN(C)CCOC1=Cc2cc(Cl)ccc2Sc2ccccc21

>  <logBB>


>  <Class>
1

>  <MW>
331.08

>  <nHBAcc>
3

>  <nHBDon>
0

>  <SLogP>
4.88

>  <TopoPSA>
12.47

>  <MMFF94 Energy>
90.96

$$$$
CN(C)CCc1c[nH]c2ccc(CS(=O)(=O)N3CCCC3)cc12
Actelion Java MolfileCreator 2.0

  0  0  0  0  0  0              0 V3000
M  V30 BEGIN CTAB
M  V30 COUNTS 48 50 0 0 0
M  V30 BEGIN ATOM
M  V30 1 S 0.3206 2.4871 -0.9622 0
M  V30 2 O -0.0902 2.8172 -2.3119 0
M  V30 3 O 1.2412 1.3995 -0.6991 0
M  V30 4 N 1.0371 3.8939 -0.3217 0
M  V30 5 C -1.1375 2.3343 0.0818 0
M  V30 6 C 1.5952 3.8169 1.0567 0
M  V30 7 C 2.0606 4.5235 -1.2003 0
M  V30 8 C -1.9421 1.1377 -0.3562 0
M  V30 9 C 3.0292 4.3154 0.9426 0
M  V30 10 C 2.9705 5.2662 -0.2351 0
M  V30 11 C -1.6277 -0.1427 0.1351 0
M  V30 12 C -2.9999 1.288 -1.2613 0
M  V30 13 C -2.379 -1.2627 -0.2782 0
M  V30 14 C -3.7626 0.1936 -1.6823 0
M  V30 15 C -3.4288 -1.0652 -1.173 0
M  V30 16 C -2.3157 -2.6643 0.0091 0
M  V30 17 N -3.9918 -2.2964 -1.4135 0
M  V30 18 C -3.3324 -3.2654 -0.707 0
M  V30 19 C -1.3301 -3.3513 0.9062 0
M  V30 20 C 0.0126 -3.6062 0.1977 0
M  V30 21 N 0.9841 -4.3573 1.0215 0
M  V30 22 C 1.4804 -3.5532 2.1406 0
M  V30 23 C 2.1123 -4.7815 0.1864 0
M  V30 24 H -1.7181 3.2574 -0.0124 0
M  V30 25 H -0.8148 2.2209 1.1208 0
M  V30 26 H 1.5633 2.8116 1.4847 0
M  V30 27 H 1.0026 4.4794 1.6974 0
M  V30 28 H 1.5915 5.2055 -1.9146 0
M  V30 29 H 2.631 3.7611 -1.7427 0
M  V30 30 H 3.7009 3.4784 0.7168 0
M  V30 31 H 3.3789 4.7953 1.8608 0
M  V30 32 H 3.9547 5.4749 -0.6632 0
M  V30 33 H 2.5143 6.2166 0.0668 0
M  V30 34 H -0.7983 -0.2823 0.8238 0
M  V30 35 H -3.24 2.2715 -1.6637 0
M  V30 36 H -4.577 0.3235 -2.3877 0
M  V30 37 H -4.7751 -2.4568 -2.0311 0
M  V30 38 H -3.6355 -4.3016 -0.7777 0
M  V30 39 H -1.7524 -4.3053 1.2472 0
M  V30 40 H -1.188 -2.734 1.8006 0
M  V30 41 H -0.2029 -4.1878 -0.7092 0
M  V30 42 H 0.449 -2.657 -0.1421 0
M  V30 43 H 0.6774 -3.3142 2.8445 0
M  V30 44 H 1.9409 -2.6165 1.806 0
M  V30 45 H 2.2263 -4.1145 2.7152 0
M  V30 46 H 2.6456 -3.9304 -0.2525 0
M  V30 47 H 1.7679 -5.4309 -0.6261 0
M  V30 48 H 2.8256 -5.3711 0.7732 0
M  V30 END ATOM
M  V30 BEGIN BOND
M  V30 1 2 1 2
M  V30 2 2 1 3
M  V30 3 1 1 4
M  V30 4 1 1 5
M  V30 5 1 4 6
M  V30 6 1 4 7
M  V30 7 1 5 8
M  V30 8 1 6 9
M  V30 9 1 7 10
M  V30 10 2 8 11
M  V30 11 1 8 12
M  V30 12 1 11 13
M  V30 13 2 12 14
M  V30 14 2 13 15
M  V30 15 1 13 16
M  V30 16 1 15 17
M  V30 17 2 16 18
M  V30 18 1 16 19
M  V30 19 1 19 20
M  V30 20 1 20 21
M  V30 21 1 21 22
M  V30 22 1 21 23
M  V30 23 1 9 10
M  V30 24 1 14 15
M  V30 25 1 17 18
M  V30 26 1 5 24
M  V30 27 1 5 25
M  V30 28 1 6 26
M  V30 29 1 6 27
M  V30 30 1 7 28
M  V30 31 1 7 29
M  V30 32 1 9 30
M  V30 33 1 9 31
M  V30 34 1 10 32
M  V30 35 1 10 33
M  V30 36 1 11 34
M  V30 37 1 12 35
M  V30 38 1 14 36
M  V30 39 1 17 37
M  V30 40 1 18 38
M  V30 41 1 19 39
M  V30 42 1 19 40
M  V30 43 1 20 41
M  V30 44 1 20 42
M  V30 45 1 22 43
M  V30 46 1 22 44
M  V30 47 1 22 45
M  V30 48 1 23 46
M  V30 49 1 23 47
M  V30 50 1 23 48
M  V30 END BOND
M  V30 END CTAB
M  END
>  <NO.>
5256

>  <Name>
almotriptan

>  <SMILES>
CN(C)CCc1c[nH]c2ccc(CS(=O)(=O)N3CCCC3)cc12

>  <logBB>


>  <Class>
1

>  <MW>
335.17

>  <nHBAcc>
3

>  <nHBDon>
1

>  <SLogP>
2.2

>  <TopoPSA>
56.41

>  <MMFF94 Energy>
18.121

$$$$
CN(C)CCc1c[nH]c2ccc(Cn3cncn3)cc12
Actelion Java MolfileCreator 2.0

  0  0  0  0  0  0              0 V3000
M  V30 BEGIN CTAB
M  V30 COUNTS 39 41 0 0 0
M  V30 BEGIN ATOM
M  V30 1 N -0.5526 1.5797 -3.7945 0
M  V30 2 N -1.5839 0.9538 -3.1906 0
M  V30 3 C -0.0861 0.6091 -4.5846 0
M  V30 4 C -1.7025 -0.3274 -3.6342 0
M  V30 5 C -2.4404 1.6505 -2.2478 0
M  V30 6 N -0.7654 -0.5739 -4.5206 0
M  V30 7 C -2.3361 1.0696 -0.8589 0
M  V30 8 C -1.119 1.1455 -0.1546 0
M  V30 9 C -3.4435 0.4587 -0.2575 0
M  V30 10 C -1.0124 0.5932 1.1387 0
M  V30 11 C -3.3665 -0.086 1.0286 0
M  V30 12 C -2.141 -0.0034 1.6982 0
M  V30 13 C 0.0526 0.4854 2.0921 0
M  V30 14 N -1.7861 -0.4411 2.9522 0
M  V30 15 C -0.4757 -0.1413 3.2045 0
M  V30 16 C 1.4576 0.9907 1.9371 0
M  V30 17 C 2.2816 0.2819 0.8421 0
M  V30 18 N 3.1505 -0.8186 1.3146 0
M  V30 19 C 4.0202 -1.2629 0.2206 0
M  V30 20 C 2.3705 -1.9536 1.8101 0
M  V30 21 H 0.7701 0.7676 -5.2275 0
M  V30 22 H -2.4615 -1.0145 -3.2875 0
M  V30 23 H -2.1588 2.7097 -2.2348 0
M  V30 24 H -3.4619 1.583 -2.6393 0
M  V30 25 H -0.2526 1.6229 -0.6076 0
M  V30 26 H -4.394 0.3998 -0.7853 0
M  V30 27 H -4.2317 -0.5542 1.4872 0
M  V30 28 H -2.4102 -0.9077 3.5953 0
M  V30 29 H -0.0232 -0.4032 4.1519 0
M  V30 30 H 1.987 0.9511 2.8976 0
M  V30 31 H 1.3921 2.0571 1.6811 0
M  V30 32 H 1.6421 -0.0583 0.018 0
M  V30 33 H 2.9427 1.0524 0.4223 0
M  V30 34 H 4.648 -0.4376 -0.1334 0
M  V30 35 H 3.4491 -1.6531 -0.6296 0
M  V30 36 H 4.7042 -2.046 0.5662 0
M  V30 37 H 1.6389 -2.3091 1.0758 0
M  V30 38 H 1.8503 -1.6954 2.7357 0
M  V30 39 H 3.0291 -2.7914 2.0672 0
M  V30 END ATOM
M  V30 BEGIN BOND
M  V30 1 1 1 2
M  V30 2 2 1 3
M  V30 3 1 2 4
M  V30 4 1 2 5
M  V30 5 1 3 6
M  V30 6 1 5 7
M  V30 7 2 7 8
M  V30 8 1 7 9
M  V30 9 1 8 10
M  V30 10 2 9 11
M  V30 11 2 10 12
M  V30 12 1 10 13
M  V30 13 1 12 14
M  V30 14 2 13 15
M  V30 15 1 13 16
M  V30 16 1 16 17
M  V30 17 1 17 18
M  V30 18 1 18 19
M  V30 19 1 18 20
M  V30 20 2 4 6
M  V30 21 1 11 12
M  V30 22 1 14 15
M  V30 23 1 3 21
M  V30 24 1 4 22
M  V30 25 1 5 23
M  V30 26 1 5 24
M  V30 27 1 8 25
M  V30 28 1 9 26
M  V30 29 1 11 27
M  V30 30 1 14 28
M  V30 31 1 15 29
M  V30 32 1 16 30
M  V30 33 1 16 31
M  V30 34 1 17 32
M  V30 35 1 17 33
M  V30 36 1 19 34
M  V30 37 1 19 35
M  V30 38 1 19 36
M  V30 39 1 20 37
M  V30 40 1 20 38
M  V30 41 1 20 39
M  V30 END BOND
M  V30 END CTAB
M  END
>  <NO.>
5257

>  <Name>
rizatriptan

>  <SMILES>
CN(C)CCc1c[nH]c2ccc(Cn3cncn3)cc12

>  <logBB>


>  <Class>
1

>  <MW>
269.16

>  <nHBAcc>
3

>  <nHBDon>
1

>  <SLogP>
1.91

>  <TopoPSA>
49.74

>  <MMFF94 Energy>
64.558

$$$$
CN(C)c1nc(N(C)C)nc(N(C)C)n1
Actelion Java MolfileCreator 2.0

  0  0  0  0  0  0              0 V3000
M  V30 BEGIN CTAB
M  V30 COUNTS 33 33 0 0 0
M  V30 BEGIN ATOM
M  V30 1 N 0.7674 1.0746 -0.3069 0
M  V30 2 C -0.3849 0.838 -0.9207 0
M  V30 3 C 1.0637 0.3148 0.7399 0
M  V30 4 N -1.2227 -0.1161 -0.5351 0
M  V30 5 N -0.7264 1.6177 -2.0119 0
M  V30 6 N 0.2678 -0.6544 1.1734 0
M  V30 7 N 2.2555 0.5408 1.4061 0
M  V30 8 C -0.8705 -0.8425 0.5181 0
M  V30 9 C 0.265 2.5202 -2.5524 0
M  V30 10 C -1.8783 1.2377 -2.7983 0
M  V30 11 C 2.6714 -0.4053 2.4167 0
M  V30 12 C 3.2093 1.4569 0.8225 0
M  V30 13 N -1.7258 -1.8413 0.9495 0
M  V30 14 C -2.8651 -2.1778 0.1258 0
M  V30 15 C -1.2597 -2.7575 1.966 0
M  V30 16 H 0.6461 3.2047 -1.7859 0
M  V30 17 H 1.1054 1.965 -2.9834 0
M  V30 18 H -0.1595 3.1451 -3.3459 0
M  V30 19 H -2.7787 1.1552 -2.1788 0
M  V30 20 H -1.707 0.282 -3.3061 0
M  V30 21 H -2.0962 1.9862 -3.568 0
M  V30 22 H 1.9023 -0.5351 3.1868 0
M  V30 23 H 2.8963 -1.3804 1.9705 0
M  V30 24 H 3.5749 -0.0618 2.9324 0
M  V30 25 H 2.7619 2.4406 0.6393 0
M  V30 26 H 3.6023 1.0633 -0.1214 0
M  V30 27 H 4.061 1.6208 1.4919 0
M  V30 28 H -3.4878 -1.299 -0.0774 0
M  V30 29 H -2.5439 -2.6143 -0.8263 0
M  V30 30 H -3.5107 -2.9098 0.6235 0
M  V30 31 H -0.9226 -2.2254 2.863 0
M  V30 32 H -0.4373 -3.375 1.5883 0
M  V30 33 H -2.0602 -3.4335 2.2862 0
M  V30 END ATOM
M  V30 BEGIN BOND
M  V30 1 2 1 2
M  V30 2 1 1 3
M  V30 3 1 2 4
M  V30 4 1 2 5
M  V30 5 2 3 6
M  V30 6 1 3 7
M  V30 7 2 4 8
M  V30 8 1 5 9
M  V30 9 1 5 10
M  V30 10 1 7 11
M  V30 11 1 7 12
M  V30 12 1 8 13
M  V30 13 1 13 14
M  V30 14 1 13 15
M  V30 15 1 6 8
M  V30 16 1 9 16
M  V30 17 1 9 17
M  V30 18 1 9 18
M  V30 19 1 10 19
M  V30 20 1 10 20
M  V30 21 1 10 21
M  V30 22 1 11 22
M  V30 23 1 11 23
M  V30 24 1 11 24
M  V30 25 1 12 25
M  V30 26 1 12 26
M  V30 27 1 12 27
M  V30 28 1 14 28
M  V30 29 1 14 29
M  V30 30 1 14 30
M  V30 31 1 15 31
M  V30 32 1 15 32
M  V30 33 1 15 33
M  V30 END BOND
M  V30 END CTAB
M  END
>  <NO.>
5258

>  <Name>
altretamine

>  <SMILES>
CN(C)c1nc(N(C)C)nc(N(C)C)n1

>  <logBB>


>  <Class>
-1

>  <MW>
210.16

>  <nHBAcc>
6

>  <nHBDon>
0

>  <SLogP>
0.07

>  <TopoPSA>
48.39

>  <MMFF94 Energy>
-240.82

$$$$
CN(CCCCCCN(C)C(=O)Oc1ccc[n+](C)c1)C(=O)Oc1ccc[n+](C)c1
Actelion Java MolfileCreator 2.0

  0  0  0  0  0  0              0 V3000
M  V30 BEGIN CTAB
M  V30 COUNTS 62 63 0 0 0
M  V30 BEGIN ATOM
M  V30 1 O -3.0516 -0.5471 -3.7568 0
M  V30 2 C -3.9274 0.2189 -3.3657 0
M  V30 3 O -4.8548 0.8101 -4.2288 0
M  V30 4 N -4.109 0.5867 -2.0436 0
M  V30 5 C -4.8415 0.4676 -5.5918 0
M  V30 6 C -3.2702 -0.0141 -1.0087 0
M  V30 7 C -5.1244 1.5351 -1.6036 0
M  V30 8 C -3.6739 0.3406 -6.3399 0
M  V30 9 C -6.0772 0.3043 -6.2038 0
M  V30 10 C -2.0499 0.8491 -0.6806 0
M  V30 11 N -3.7404 0.0215 -7.6549 0 CHG=1
M  V30 12 C -6.122 -0.022 -7.5538 0
M  V30 13 C -1.2758 0.2847 0.5135 0
M  V30 14 C -4.9339 -0.167 -8.2642 0
M  V30 15 C -2.4898 -0.1453 -8.4133 0
M  V30 16 C -0.0629 1.1522 0.8579 0
M  V30 17 C 0.6255 0.6731 2.1387 0
M  V30 18 C 1.8273 1.555 2.4856 0
M  V30 19 N 2.4066 1.2127 3.7829 0
M  V30 20 C 3.475 0.3345 3.8409 0
M  V30 21 C 1.827 1.8544 4.9561 0
M  V30 22 O 3.9484 -0.2443 2.8675 0
M  V30 23 O 3.9756 0.1688 5.1357 0
M  V30 24 C 5.1114 -0.634 5.3366 0
M  V30 25 C 5.3035 -1.8625 4.7096 0
M  V30 26 C 6.0461 -0.1706 6.2528 0
M  V30 27 N 6.4186 -2.5886 4.9641 0 CHG=1
M  V30 28 C 7.1822 -0.932 6.4993 0
M  V30 29 C 7.354 -2.1427 5.8344 0
M  V30 30 C 6.6158 -3.8652 4.2581 0
M  V30 31 H -3.8895 -0.1697 -0.1173 0
M  V30 32 H -2.9341 -1.0028 -1.3425 0
M  V30 33 H -5.6498 2.0045 -2.4375 0
M  V30 34 H -5.852 1.0014 -0.985 0
M  V30 35 H -4.6483 2.3189 -1.0081 0
M  V30 36 H -2.6848 0.4859 -5.9184 0
M  V30 37 H -6.9979 0.42 -5.6348 0
M  V30 38 H -2.3675 1.8739 -0.454 0
M  V30 39 H -1.3951 0.9106 -1.5584 0
M  V30 40 H -7.0796 -0.1667 -8.0504 0
M  V30 41 H -0.9455 -0.7373 0.2929 0
M  V30 42 H -1.9436 0.2282 1.382 0
M  V30 43 H -4.9299 -0.4312 -9.3182 0
M  V30 44 H -2.0619 -1.1109 -8.1329 0
M  V30 45 H -2.7008 -0.1156 -9.4849 0
M  V30 46 H -1.8146 0.6741 -8.1527 0
M  V30 47 H -0.3828 2.1933 0.9883 0
M  V30 48 H 0.6492 1.1351 0.0242 0
M  V30 49 H -0.0967 0.6849 2.9637 0
M  V30 50 H 0.9528 -0.3673 2.0233 0
M  V30 51 H 1.541 2.6131 2.51 0
M  V30 52 H 2.5913 1.447 1.7069 0
M  V30 53 H 2.2529 1.484 5.8905 0
M  V30 54 H 2.0101 2.9308 4.8881 0
M  V30 55 H 0.7491 1.6704 4.969 0
M  V30 56 H 4.5915 -2.2841 4.0079 0
M  V30 57 H 5.8985 0.7787 6.7644 0
M  V30 58 H 7.9336 -0.5817 7.2044 0
M  V30 59 H 8.234 -2.7597 5.9944 0
M  V30 60 H 6.9198 -3.6312 3.2348 0
M  V30 61 H 7.3873 -4.4514 4.7631 0
M  V30 62 H 5.6724 -4.4176 4.2711 0
M  V30 END ATOM
M  V30 BEGIN BOND
M  V30 1 2 1 2
M  V30 2 1 2 3
M  V30 3 1 2 4
M  V30 4 1 3 5
M  V30 5 1 4 6
M  V30 6 1 4 7
M  V30 7 2 5 8
M  V30 8 1 5 9
M  V30 9 1 6 10
M  V30 10 1 8 11
M  V30 11 2 9 12
M  V30 12 1 10 13
M  V30 13 2 11 14
M  V30 14 1 11 15
M  V30 15 1 13 16
M  V30 16 1 16 17
M  V30 17 1 17 18
M  V30 18 1 18 19
M  V30 19 1 19 20
M  V30 20 1 19 21
M  V30 21 2 20 22
M  V30 22 1 20 23
M  V30 23 1 23 24
M  V30 24 2 24 25
M  V30 25 1 24 26
M  V30 26 1 25 27
M  V30 27 2 26 28
M  V30 28 2 27 29
M  V30 29 1 27 30
M  V30 30 1 12 14
M  V30 31 1 28 29
M  V30 32 1 6 31
M  V30 33 1 6 32
M  V30 34 1 7 33
M  V30 35 1 7 34
M  V30 36 1 7 35
M  V30 37 1 8 36
M  V30 38 1 9 37
M  V30 39 1 10 38
M  V30 40 1 10 39
M  V30 41 1 12 40
M  V30 42 1 13 41
M  V30 43 1 13 42
M  V30 44 1 14 43
M  V30 45 1 15 44
M  V30 46 1 15 45
M  V30 47 1 15 46
M  V30 48 1 16 47
M  V30 49 1 16 48
M  V30 50 1 17 49
M  V30 51 1 17 50
M  V30 52 1 18 51
M  V30 53 1 18 52
M  V30 54 1 21 53
M  V30 55 1 21 54
M  V30 56 1 21 55
M  V30 57 1 25 56
M  V30 58 1 26 57
M  V30 59 1 28 58
M  V30 60 1 29 59
M  V30 61 1 30 60
M  V30 62 1 30 61
M  V30 63 1 30 62
M  V30 END BOND
M  V30 END CTAB
M  END
>  <NO.>
5259

>  <Name>
distigmine

>  <SMILES>
CN(CCCCCCN(C)C(=O)Oc1ccc[n+](C)c1)C(=O)Oc1ccc[n+](C)c1

>  <logBB>


>  <Class>
-1

>  <MW>
416.24

>  <nHBAcc>
4

>  <nHBDon>
0

>  <SLogP>
2.46

>  <TopoPSA>
66.84

>  <MMFF94 Energy>
53.944

$$$$
CN(CCOc1ccc(CC2SC(=O)NC2=O)cc1)c1ccccn1
Actelion Java MolfileCreator 2.0

  0  0  0  0  0  0              0 V3000
M  V30 BEGIN CTAB
M  V30 COUNTS 44 46 0 0 0
M  V30 BEGIN ATOM
M  V30 1 S -6.2924 -3.4652 -0.644 0
M  V30 2 C -7.4847 -2.1973 -0.5866 0
M  V30 3 C -4.8878 -2.3103 -0.425 0 CFG=2
M  V30 4 O -8.6863 -2.3878 -0.6549 0
M  V30 5 N -6.8851 -0.992 -0.4724 0
M  V30 6 C -5.5251 -0.9318 -0.4231 0
M  V30 7 C -3.8703 -2.4697 -1.5569 0
M  V30 8 O -4.9208 0.1318 -0.3815 0
M  V30 9 C -2.4653 -2.1312 -1.1102 0
M  V30 10 C -1.9567 -0.8352 -1.2534 0
M  V30 11 C -1.6579 -3.111 -0.52 0
M  V30 12 C -0.6629 -0.5228 -0.8199 0
M  V30 13 C -0.3667 -2.796 -0.0904 0
M  V30 14 C 0.1391 -1.5032 -0.2381 0
M  V30 15 O 1.4143 -1.3323 0.225 0
M  V30 16 C 1.9933 -0.0317 0.067 0
M  V30 17 C 3.4192 -0.0636 0.6299 0
M  V30 18 N 4.1783 1.1417 0.2836 0
M  V30 19 C 3.9711 2.2897 1.0268 0
M  V30 20 C 5.0018 1.1261 -0.9098 0
M  V30 21 N 3.0638 2.2443 2.029 0
M  V30 22 C 4.6619 3.4769 0.7757 0
M  V30 23 C 2.8425 3.353 2.7712 0
M  V30 24 C 4.4214 4.6144 1.5497 0
M  V30 25 C 3.4904 4.5542 2.5718 0
M  V30 26 H -4.4568 -2.4947 0.5648 0
M  V30 27 H -7.4392 -0.1508 -0.4547 0
M  V30 28 H -3.8485 -3.5023 -1.931 0
M  V30 29 H -4.1343 -1.8455 -2.421 0
M  V30 30 H -2.5655 -0.048 -1.6952 0
M  V30 31 H -2.023 -4.1274 -0.3902 0
M  V30 32 H -0.3183 0.4985 -0.946 0
M  V30 33 H 0.2516 -3.5656 0.3652 0
M  V30 34 H 1.395 0.713 0.604 0
M  V30 35 H 2.0302 0.2273 -0.9985 0
M  V30 36 H 3.3967 -0.2325 1.7149 0
M  V30 37 H 3.9341 -0.9503 0.2366 0
M  V30 38 H 6.0438 1.3631 -0.6693 0
M  V30 39 H 4.6306 1.8425 -1.651 0
M  V30 40 H 5.0006 0.1408 -1.3888 0
M  V30 41 H 5.3992 3.5414 -0.0154 0
M  V30 42 H 2.1024 3.2385 3.5576 0
M  V30 43 H 4.9631 5.5344 1.351 0
M  V30 44 H 3.2772 5.4142 3.1953 0
M  V30 END ATOM
M  V30 BEGIN BOND
M  V30 1 1 1 2
M  V30 2 1 1 3
M  V30 3 2 2 4
M  V30 4 1 2 5
M  V30 5 1 3 6
M  V30 6 1 3 7
M  V30 7 2 6 8
M  V30 8 1 7 9
M  V30 9 2 9 10
M  V30 10 1 9 11
M  V30 11 1 10 12
M  V30 12 2 11 13
M  V30 13 2 12 14
M  V30 14 1 14 15
M  V30 15 1 15 16
M  V30 16 1 16 17
M  V30 17 1 17 18
M  V30 18 1 18 19
M  V30 19 1 18 20
M  V30 20 2 19 21
M  V30 21 1 19 22
M  V30 22 1 21 23
M  V30 23 2 22 24
M  V30 24 2 23 25
M  V30 25 1 5 6
M  V30 26 1 13 14
M  V30 27 1 24 25
M  V30 28 1 3 26
M  V30 29 1 5 27
M  V30 30 1 7 28
M  V30 31 1 7 29
M  V30 32 1 10 30
M  V30 33 1 11 31
M  V30 34 1 12 32
M  V30 35 1 13 33
M  V30 36 1 16 34
M  V30 37 1 16 35
M  V30 38 1 17 36
M  V30 39 1 17 37
M  V30 40 1 20 38
M  V30 41 1 20 39
M  V30 42 1 20 40
M  V30 43 1 22 41
M  V30 44 1 23 42
M  V30 45 1 24 43
M  V30 46 1 25 44
M  V30 END BOND
M  V30 BEGIN COLLECTION
M  V30 MDLV30/STERAC1 ATOMS=(1 3)
M  V30 END COLLECTION
M  V30 END CTAB
M  END
>  <NO.>
5260

>  <Name>
rosiglitazone

>  <SMILES>
CN(CCOc1ccc(CC2SC(=O)NC2=O)cc1)c1ccccn1

>  <logBB>


>  <Class>
-1

>  <MW>
357.11

>  <nHBAcc>
6

>  <nHBDon>
1

>  <SLogP>
2.49

>  <TopoPSA>
71.53

>  <MMFF94 Energy>
-33.575

$$$$
CN1C(=O)CNC(C2=CCCCC2)c2cc(Cl)ccc21
Actelion Java MolfileCreator 2.0

  0  0  0  0  0  0              0 V3000
M  V30 BEGIN CTAB
M  V30 COUNTS 39 41 0 0 0
M  V30 BEGIN ATOM
M  V30 1 Cl -4.3556 2.5794 1.934 0
M  V30 2 C -2.8549 1.7405 1.8839 0
M  V30 3 C -2.0044 1.9091 0.7926 0
M  V30 4 C -2.4985 0.8985 2.9317 0
M  V30 5 C -0.773 1.2278 0.732 0
M  V30 6 C -1.2794 0.2202 2.8899 0
M  V30 7 C -0.4117 0.3794 1.7992 0
M  V30 8 C 0.1209 1.4089 -0.4891 0 CFG=1
M  V30 9 N 0.8301 -0.3057 1.7941 0
M  V30 10 N 1.3794 2.1054 -0.1815 0
M  V30 11 C 0.2826 0.1355 -1.3292 0
M  V30 12 C 2.0355 0.3156 1.46 0
M  V30 13 C 0.8355 -1.7255 2.1067 0
M  V30 14 C 1.9672 1.8117 1.1378 0
M  V30 15 C 1.4688 -0.3616 -1.7399 0
M  V30 16 C -1.0112 -0.5501 -1.7327 0
M  V30 17 O 3.1165 -0.2795 1.4633 0
M  V30 18 C 1.6376 -1.6196 -2.5396 0
M  V30 19 C -0.8506 -1.5776 -2.8559 0
M  V30 20 C 0.3659 -2.4607 -2.616 0
M  V30 21 H -2.3049 2.568 -0.0193 0
M  V30 22 H -3.1592 0.7691 3.7851 0
M  V30 23 H -1.0075 -0.4178 3.7271 0
M  V30 24 H -0.4024 2.0949 -1.1719 0
M  V30 25 H 1.2222 3.1088 -0.2389 0
M  V30 26 H 1.6929 -2.2249 1.6457 0
M  V30 27 H 0.9065 -1.8486 3.1917 0
M  V30 28 H -0.0778 -2.2003 1.734 0
M  V30 29 H 2.9927 2.1988 1.1442 0
M  V30 30 H 1.4379 2.3422 1.9382 0
M  V30 31 H 2.3947 0.1513 -1.4864 0
M  V30 32 H -1.4318 -1.0539 -0.8536 0
M  V30 33 H -1.7431 0.1985 -2.0591 0
M  V30 34 H 1.9598 -1.3435 -3.5507 0
M  V30 35 H 2.4398 -2.224 -2.1012 0
M  V30 36 H -0.7441 -1.0594 -3.8175 0
M  V30 37 H -1.7552 -2.1925 -2.9241 0
M  V30 38 H 0.2342 -3.0171 -1.679 0
M  V30 39 H 0.46 -3.2026 -3.4168 0
M  V30 END ATOM
M  V30 BEGIN BOND
M  V30 1 1 1 2
M  V30 2 2 2 3
M  V30 3 1 2 4
M  V30 4 1 3 5
M  V30 5 2 4 6
M  V30 6 2 5 7
M  V30 7 1 5 8
M  V30 8 1 7 9
M  V30 9 1 8 10
M  V30 10 1 8 11
M  V30 11 1 9 12
M  V30 12 1 9 13
M  V30 13 1 10 14
M  V30 14 2 11 15
M  V30 15 1 11 16
M  V30 16 2 12 17
M  V30 17 1 15 18
M  V30 18 1 16 19
M  V30 19 1 18 20
M  V30 20 1 6 7
M  V30 21 1 12 14
M  V30 22 1 19 20
M  V30 23 1 3 21
M  V30 24 1 4 22
M  V30 25 1 6 23
M  V30 26 1 8 24
M  V30 27 1 10 25
M  V30 28 1 13 26
M  V30 29 1 13 27
M  V30 30 1 13 28
M  V30 31 1 14 29
M  V30 32 1 14 30
M  V30 33 1 15 31
M  V30 34 1 16 32
M  V30 35 1 16 33
M  V30 36 1 18 34
M  V30 37 1 18 35
M  V30 38 1 19 36
M  V30 39 1 19 37
M  V30 40 1 20 38
M  V30 41 1 20 39
M  V30 END BOND
M  V30 BEGIN COLLECTION
M  V30 MDLV30/STERAC1 ATOMS=(1 8)
M  V30 END COLLECTION
M  V30 END CTAB
M  END
>  <NO.>
5262

>  <Name>
tetrazepam

>  <SMILES>
CN1C(=O)CNC(C2=CCCCC2)c2cc(Cl)ccc21

>  <logBB>


>  <Class>
1

>  <MW>
290.12

>  <nHBAcc>
2

>  <nHBDon>
1

>  <SLogP>
3.45

>  <TopoPSA>
32.34

>  <MMFF94 Energy>
49.316

$$$$
CN1C(C(=O)Nc2ccccn2)=C(OC(=O)C(C)(C)C)c2ccccc2S1(=O)=O
Actelion Java MolfileCreator 2.0

  0  0  0  0  0  0              0 V3000
M  V30 BEGIN CTAB
M  V30 COUNTS 50 52 0 0 0
M  V30 BEGIN ATOM
M  V30 1 S -0.8893 -4.0475 -0.1616 0
M  V30 2 O -2.0225 -4.8542 -0.5675 0
M  V30 3 O 0.4501 -4.5912 -0.1294 0
M  V30 4 N -0.8965 -2.6401 -1.1191 0
M  V30 5 C -1.2445 -3.417 1.4384 0
M  V30 6 C -0.0965 -1.5636 -0.5814 0
M  V30 7 C -0.7754 -2.9302 -2.5696 0
M  V30 8 C -0.8374 -2.1168 1.7391 0
M  V30 9 C -1.9432 -4.2152 2.3519 0
M  V30 10 C -0.113 -1.2987 0.7422 0
M  V30 11 C 0.6642 -0.6814 -1.5235 0
M  V30 12 C -1.1301 -1.6348 3.0254 0
M  V30 13 C -2.2282 -3.7124 3.617 0
M  V30 14 O 0.6455 -0.2419 1.2988 0
M  V30 15 O 1.7954 -0.9956 -1.8655 0
M  V30 16 N -0.0755 0.4194 -1.8943 0
M  V30 17 C -1.8194 -2.4244 3.9542 0
M  V30 18 C 0.1012 1.0103 1.1293 0
M  V30 19 C 0.3349 1.4059 -2.7943 0
M  V30 20 O -0.9857 1.2335 0.6037 0
M  V30 21 C 1.0461 2.0855 1.6718 0
M  V30 22 N 1.3939 1.2028 -3.5951 0
M  V30 23 C -0.4089 2.5821 -2.834 0
M  V30 24 C 0.4175 3.4715 1.4586 0
M  V30 25 C 1.269 1.8617 3.1727 0
M  V30 26 C 2.3798 2.0218 0.9157 0
M  V30 27 C 1.7383 2.1904 -4.449 0
M  V30 28 C -0.0379 3.5885 -3.7235 0
M  V30 29 C 1.0596 3.3914 -4.5496 0
M  V30 30 H -1.0392 -2.0447 -3.1565 0
M  V30 31 H 0.2406 -3.2451 -2.8258 0
M  V30 32 H -1.4779 -3.7149 -2.867 0
M  V30 33 H -2.2588 -5.2208 2.0815 0
M  V30 34 H -0.8374 -0.6334 3.3302 0
M  V30 35 H -2.7663 -4.3222 4.3388 0
M  V30 36 H -0.9567 0.5764 -1.4156 0
M  V30 37 H -2.0393 -2.0288 4.9436 0
M  V30 38 H -1.2628 2.7304 -2.1809 0
M  V30 39 H -0.5455 3.5548 1.9755 0
M  V30 40 H 1.0697 4.2667 1.8366 0
M  V30 41 H 0.2351 3.6659 0.3954 0
M  V30 42 H 0.3167 1.855 3.7155 0
M  V30 43 H 1.7609 0.9026 3.3695 0
M  V30 44 H 1.8975 2.6497 3.6023 0
M  V30 45 H 2.227 2.1341 -0.1636 0
M  V30 46 H 2.8885 1.0643 1.073 0
M  V30 47 H 3.06 2.8153 1.2446 0
M  V30 48 H 2.6042 1.9794 -5.0699 0
M  V30 49 H -0.6012 4.5161 -3.7692 0
M  V30 50 H 1.3787 4.1511 -5.2538 0
M  V30 END ATOM
M  V30 BEGIN BOND
M  V30 1 2 1 2
M  V30 2 2 1 3
M  V30 3 1 1 4
M  V30 4 1 1 5
M  V30 5 1 4 6
M  V30 6 1 4 7
M  V30 7 2 5 8
M  V30 8 1 5 9
M  V30 9 2 6 10
M  V30 10 1 6 11
M  V30 11 1 8 12
M  V30 12 2 9 13
M  V30 13 1 10 14
M  V30 14 2 11 15
M  V30 15 1 11 16
M  V30 16 2 12 17
M  V30 17 1 14 18
M  V30 18 1 16 19
M  V30 19 2 18 20
M  V30 20 1 18 21
M  V30 21 2 19 22
M  V30 22 1 19 23
M  V30 23 1 21 24
M  V30 24 1 21 25
M  V30 25 1 21 26
M  V30 26 1 22 27
M  V30 27 2 23 28
M  V30 28 2 27 29
M  V30 29 1 8 10
M  V30 30 1 13 17
M  V30 31 1 28 29
M  V30 32 1 7 30
M  V30 33 1 7 31
M  V30 34 1 7 32
M  V30 35 1 9 33
M  V30 36 1 12 34
M  V30 37 1 13 35
M  V30 38 1 16 36
M  V30 39 1 17 37
M  V30 40 1 23 38
M  V30 41 1 24 39
M  V30 42 1 24 40
M  V30 43 1 24 41
M  V30 44 1 25 42
M  V30 45 1 25 43
M  V30 46 1 25 44
M  V30 47 1 26 45
M  V30 48 1 26 46
M  V30 49 1 26 47
M  V30 50 1 27 48
M  V30 51 1 28 49
M  V30 52 1 29 50
M  V30 END BOND
M  V30 END CTAB
M  END
>  <NO.>
5263

>  <Name>
piroxicam

>  <SMILES>
CN1C(C(=O)Nc2ccccn2)=C(OC(=O)C(C)(C)C)c2ccccc2S1(=O)=O

>  <logBB>


>  <Class>
-1

>  <MW>
415.12

>  <nHBAcc>
6

>  <nHBDon>
1

>  <SLogP>
2.61

>  <TopoPSA>
105.67

>  <MMFF94 Energy>
9.6152

$$$$
CN1C2CCC1CC(OC(=O)c1c[nH]c3ccccc13)C2
Actelion Java MolfileCreator 2.0

  0  0  0  0  0  0              0 V3000
M  V30 BEGIN CTAB
M  V30 COUNTS 41 44 0 0 0
M  V30 BEGIN ATOM
M  V30 1 O -0.801 0.1601 1.6827 0
M  V30 2 C -0.45 -0.6553 0.8382 0
M  V30 3 O 0.4088 -0.3717 -0.187 0
M  V30 4 C -0.9045 -2.0412 0.8138 0
M  V30 5 C 0.9028 0.9794 -0.2488 0
M  V30 6 C -1.8054 -2.6825 1.7288 0
M  V30 7 C -0.5403 -3.0027 -0.1157 0
M  V30 8 C 2.2109 0.9652 -1.0531 0
M  V30 9 C -0.1463 1.9074 -0.8805 0
M  V30 10 C -1.9518 -4.0089 1.3175 0
M  V30 11 C -2.514 -2.2584 2.8738 0
M  V30 12 N -1.1732 -4.1743 0.1971 0
M  V30 13 C 2.6073 2.3634 -1.557 0
M  V30 14 C 0.4676 3.2185 -1.4012 0
M  V30 15 C -2.7669 -4.9278 1.9899 0
M  V30 16 C -3.3331 -3.1637 3.558 0
M  V30 17 N 1.5492 2.9805 -2.3625 0
M  V30 18 C 2.6796 3.3796 -0.4094 0
M  V30 19 C 1.2562 3.9473 -0.3047 0
M  V30 20 C -3.4559 -4.4791 3.12 0
M  V30 21 C 1.1779 2.276 -3.5758 0
M  V30 22 H 1.1385 1.3214 0.7675 0
M  V30 23 H 0.1178 -2.9451 -0.9728 0
M  V30 24 H 2.1309 0.2635 -1.8928 0
M  V30 25 H 3.0093 0.558 -0.4193 0
M  V30 26 H -0.6755 1.3833 -1.6858 0
M  V30 27 H -0.9184 2.1381 -0.1359 0
M  V30 28 H -2.4268 -1.2336 3.2265 0
M  V30 29 H -1.0865 -5.0407 -0.3162 0
M  V30 30 H 3.5599 2.3181 -2.0954 0
M  V30 31 H -0.3128 3.867 -1.8135 0
M  V30 32 H -2.8655 -5.9542 1.652 0
M  V30 33 H -3.877 -2.8326 4.4394 0
M  V30 34 H 3.3746 4.1914 -0.6578 0
M  V30 35 H 3.014 2.9356 0.5337 0
M  V30 36 H 0.8307 3.804 0.6939 0
M  V30 37 H 1.2821 5.0263 -0.5019 0
M  V30 38 H -4.0973 -5.1682 3.6647 0
M  V30 39 H 0.7861 1.2686 -3.4101 0
M  V30 40 H 0.4171 2.8447 -4.1216 0
M  V30 41 H 2.0445 2.1922 -4.2406 0
M  V30 END ATOM
M  V30 BEGIN BOND
M  V30 1 2 1 2
M  V30 2 1 2 3
M  V30 3 1 2 4
M  V30 4 1 3 5
M  V30 5 1 4 6
M  V30 6 2 4 7
M  V30 7 1 5 8
M  V30 8 1 5 9
M  V30 9 2 6 10
M  V30 10 1 6 11
M  V30 11 1 7 12
M  V30 12 1 8 13
M  V30 13 1 9 14
M  V30 14 1 10 15
M  V30 15 2 11 16
M  V30 16 1 13 17
M  V30 17 1 13 18
M  V30 18 1 14 19
M  V30 19 2 15 20
M  V30 20 1 17 21
M  V30 21 1 10 12
M  V30 22 1 14 17
M  V30 23 1 16 20
M  V30 24 1 18 19
M  V30 25 1 5 22
M  V30 26 1 7 23
M  V30 27 1 8 24
M  V30 28 1 8 25
M  V30 29 1 9 26
M  V30 30 1 9 27
M  V30 31 1 11 28
M  V30 32 1 12 29
M  V30 33 1 13 30
M  V30 34 1 14 31
M  V30 35 1 15 32
M  V30 36 1 16 33
M  V30 37 1 18 34
M  V30 38 1 18 35
M  V30 39 1 19 36
M  V30 40 1 19 37
M  V30 41 1 20 38
M  V30 42 1 21 39
M  V30 43 1 21 40
M  V30 44 1 21 41
M  V30 END BOND
M  V30 END CTAB
M  END
>  <NO.>
5264

>  <Name>
chembl8197

>  <SMILES>
CN1C2CCC1CC(OC(=O)c1c[nH]c3ccccc13)C2

>  <logBB>


>  <Class>
1

>  <MW>
284.15

>  <nHBAcc>
3

>  <nHBDon>
1

>  <SLogP>
2.95

>  <TopoPSA>
45.33

>  <MMFF94 Energy>
38.133

$$$$
CN1CC(O)c2cc(N=NC(N)=O)c(O)cc21
Actelion Java MolfileCreator 2.0

  0  0  0  0  0  0              0 V3000
M  V30 BEGIN CTAB
M  V30 COUNTS 29 30 0 0 0
M  V30 BEGIN ATOM
M  V30 1 O -3.3967 0.1577 -4.5046 0
M  V30 2 C -2.2251 0.3162 -4.1766 0
M  V30 3 N -1.7796 0.3616 -2.8756 0
M  V30 4 N -1.2733 0.5116 -5.1357 0
M  V30 5 N -0.7538 -0.338 -2.7048 0
M  V30 6 C -0.2773 -0.1919 -1.3887 0
M  V30 7 C 0.9421 0.476 -1.1432 0
M  V30 8 C -0.9747 -0.7512 -0.3111 0
M  V30 9 O 1.6332 0.9997 -2.2095 0
M  V30 10 C 1.4596 0.613 0.1508 0
M  V30 11 C -0.4567 -0.5995 0.9673 0
M  V30 12 C 0.7477 0.0746 1.2083 0
M  V30 13 C -1.0044 -1.1293 2.2574 0 CFG=1
M  V30 14 N 1.075 0.0752 2.556 0
M  V30 15 O -0.756 -2.5289 2.3439 0
M  V30 16 C -0.1359 -0.3458 3.2793 0
M  V30 17 C 2.0536 0.945 3.1596 0
M  V30 18 H -1.5428 0.4963 -6.1058 0
M  V30 19 H -0.3119 0.6271 -4.8499 0
M  V30 20 H -1.8993 -1.2956 -0.4762 0
M  V30 21 H 2.4477 1.4129 -1.8791 0
M  V30 22 H 2.3985 1.1227 0.3272 0
M  V30 23 H -2.0711 -0.9324 2.3956 0
M  V30 24 H 0.1571 -2.6596 2.028 0
M  V30 25 H -0.6761 0.5488 3.6155 0
M  V30 26 H 0.1221 -0.955 4.152 0
M  V30 27 H 1.7413 1.9922 3.0889 0
M  V30 28 H 2.1819 0.6988 4.2189 0
M  V30 29 H 3.0305 0.8342 2.6779 0
M  V30 END ATOM
M  V30 BEGIN BOND
M  V30 1 2 1 2
M  V30 2 1 2 3
M  V30 3 1 2 4
M  V30 4 2 3 5
M  V30 5 1 5 6
M  V30 6 2 6 7
M  V30 7 1 6 8
M  V30 8 1 7 9
M  V30 9 1 7 10
M  V30 10 2 8 11
M  V30 11 2 10 12
M  V30 12 1 11 13
M  V30 13 1 12 14
M  V30 14 1 13 15
M  V30 15 1 13 16
M  V30 16 1 14 17
M  V30 17 1 11 12
M  V30 18 1 14 16
M  V30 19 1 4 18
M  V30 20 1 4 19
M  V30 21 1 8 20
M  V30 22 1 9 21
M  V30 23 1 10 22
M  V30 24 1 13 23
M  V30 25 1 15 24
M  V30 26 1 16 25
M  V30 27 1 16 26
M  V30 28 1 17 27
M  V30 29 1 17 28
M  V30 30 1 17 29
M  V30 END BOND
M  V30 BEGIN COLLECTION
M  V30 MDLV30/STERAC1 ATOMS=(1 13)
M  V30 END COLLECTION
M  V30 END CTAB
M  END
>  <NO.>
5265

>  <Name>
carbazochrome

>  <SMILES>
CN1CC(O)c2cc(N=NC(N)=O)c(O)cc21

>  <logBB>


>  <Class>
-1

>  <MW>
236.09

>  <nHBAcc>
5

>  <nHBDon>
3

>  <SLogP>
1.04

>  <TopoPSA>
111.51

>  <MMFF94 Energy>
22.562

$$$$
CN1CCC(=C2c3ccccc3C=Cc3ccccc32)CC1
Actelion Java MolfileCreator 2.0

  0  0  0  0  0  0              0 V3000
M  V30 BEGIN CTAB
M  V30 COUNTS 43 46 0 0 0
M  V30 BEGIN ATOM
M  V30 1 N -2.7236 -1.5213 2.0021 0
M  V30 2 C -1.3062 -1.9016 2.152 0
M  V30 3 C -2.845 -0.2114 1.3343 0
M  V30 4 C -3.393 -1.5022 3.3012 0
M  V30 5 C -0.5666 -1.9179 0.8033 0
M  V30 6 C -2.1383 -0.1917 -0.0318 0
M  V30 7 C -0.6695 -0.5611 0.1207 0
M  V30 8 C 0.3806 0.1867 -0.3098 0
M  V30 9 C 1.7745 -0.313 -0.1972 0
M  V30 10 C 0.1651 1.4547 -1.0524 0
M  V30 11 C 2.5052 -0.6307 -1.3599 0
M  V30 12 C 2.3887 -0.4075 1.0625 0
M  V30 13 C 0.5246 1.5447 -2.4123 0
M  V30 14 C -0.3356 2.5849 -0.3851 0
M  V30 15 C 1.9435 -0.5228 -2.7211 0
M  V30 16 C 3.8185 -1.1073 -1.2244 0
M  V30 17 C 3.7001 -0.8674 1.1773 0
M  V30 18 C 1.0908 0.4137 -3.1743 0
M  V30 19 C 0.3039 2.7529 -3.0921 0
M  V30 20 C -0.5331 3.7822 -1.0721 0
M  V30 21 C 4.4114 -1.2245 0.0352 0
M  V30 22 C -0.2211 3.8635 -2.4264 0
M  V30 23 H -0.7924 -1.2178 2.8417 0
M  V30 24 H -1.2456 -2.9075 2.5852 0
M  V30 25 H -2.4351 0.5864 1.9687 0
M  V30 26 H -3.9061 0.0145 1.1715 0
M  V30 27 H -2.951 -0.7687 3.9852 0
M  V30 28 H -3.3421 -2.4891 3.7743 0
M  V30 29 H -4.4563 -1.2655 3.1823 0
M  V30 30 H 0.4617 -2.2457 0.9712 0
M  V30 31 H -1.0169 -2.6746 0.1467 0
M  V30 32 H -2.2974 0.7848 -0.4947 0
M  V30 33 H -2.6143 -0.9201 -0.702 0
M  V30 34 H 1.8415 -0.1235 1.9581 0
M  V30 35 H -0.575 2.5306 0.674 0
M  V30 36 H 2.2883 -1.281 -3.4212 0
M  V30 37 H 4.3992 -1.3753 -2.1042 0
M  V30 38 H 4.1655 -0.9447 2.1563 0
M  V30 39 H 0.7881 0.3666 -4.2183 0
M  V30 40 H 0.5571 2.8446 -4.1459 0
M  V30 41 H -0.9281 4.6499 -0.5504 0
M  V30 42 H 5.4333 -1.5848 0.1214 0
M  V30 43 H -0.3752 4.795 -2.9651 0
M  V30 END ATOM
M  V30 BEGIN BOND
M  V30 1 1 1 2
M  V30 2 1 1 3
M  V30 3 1 1 4
M  V30 4 1 2 5
M  V30 5 1 3 6
M  V30 6 1 5 7
M  V30 7 2 7 8
M  V30 8 1 8 9
M  V30 9 1 8 10
M  V30 10 2 9 11
M  V30 11 1 9 12
M  V30 12 2 10 13
M  V30 13 1 10 14
M  V30 14 1 11 15
M  V30 15 1 11 16
M  V30 16 2 12 17
M  V30 17 1 13 18
M  V30 18 1 13 19
M  V30 19 2 14 20
M  V30 20 2 16 21
M  V30 21 2 19 22
M  V30 22 1 6 7
M  V30 23 2 15 18
M  V30 24 1 17 21
M  V30 25 1 20 22
M  V30 26 1 2 23
M  V30 27 1 2 24
M  V30 28 1 3 25
M  V30 29 1 3 26
M  V30 30 1 4 27
M  V30 31 1 4 28
M  V30 32 1 4 29
M  V30 33 1 5 30
M  V30 34 1 5 31
M  V30 35 1 6 32
M  V30 36 1 6 33
M  V30 37 1 12 34
M  V30 38 1 14 35
M  V30 39 1 15 36
M  V30 40 1 16 37
M  V30 41 1 17 38
M  V30 42 1 18 39
M  V30 43 1 19 40
M  V30 44 1 20 41
M  V30 45 1 21 42
M  V30 46 1 22 43
M  V30 END BOND
M  V30 END CTAB
M  END
>  <NO.>
5266

>  <Name>
cyproheptadine

>  <SMILES>
CN1CCC(=C2c3ccccc3C=Cc3ccccc32)CC1

>  <logBB>


>  <Class>
1

>  <MW>
287.17

>  <nHBAcc>
1

>  <nHBDon>
0

>  <SLogP>
4.7

>  <TopoPSA>
3.24

>  <MMFF94 Energy>
110.62

$$$$
CN1CCC(=C2c3ccccc3CCc3cccnc32)CC1
Actelion Java MolfileCreator 2.0

  0  0  0  0  0  0              0 V3000
M  V30 BEGIN CTAB
M  V30 COUNTS 44 47 0 0 0
M  V30 BEGIN ATOM
M  V30 1 N -2.723 -1.3608 0.0 0
M  V30 2 C -1.4871 -1.106 -0.4918 0
M  V30 3 C -3.6521 -1.7756 -0.8858 0
M  V30 4 C -0.4447 -0.6595 0.4619 0
M  V30 5 C -1.1403 -1.2499 -1.8375 0
M  V30 6 C -3.4087 -1.9452 -2.2396 0
M  V30 7 C 0.693 -1.5725 0.7539 0
M  V30 8 C -0.4799 0.6134 0.944 0
M  V30 9 C -2.1312 -1.6773 -2.7224 0
M  V30 10 C 0.2648 -0.9534 -2.2864 0
M  V30 11 C 1.4896 -2.1443 -0.2607 0
M  V30 12 C 0.9253 -1.9342 2.0961 0
M  V30 13 C 0.6028 1.2672 1.7914 0
M  V30 14 C -1.5968 1.6136 0.6673 0
M  V30 15 C 1.2858 -1.9676 -1.7568 0
M  V30 16 C 2.5377 -3.0113 0.1179 0
M  V30 17 C 1.9655 -2.7935 2.4459 0
M  V30 18 C 1.0828 2.5897 1.167 0
M  V30 19 C -1.0474 2.921 0.0735 0
M  V30 20 C 2.7793 -3.325 1.4554 0
M  V30 21 N -0.0238 3.5344 0.9379 0
M  V30 22 C 0.4718 4.776 0.3476 0
M  V30 23 H -4.6332 -1.9756 -0.4647 0
M  V30 24 H -4.1976 -2.282 -2.9029 0
M  V30 25 H -1.9164 -1.8076 -3.7793 0
M  V30 26 H 0.305 -0.9622 -3.3832 0
M  V30 27 H 0.5417 0.067 -1.992 0
M  V30 28 H 0.282 -1.5414 2.8821 0
M  V30 29 H 0.1983 1.4561 2.7942 0
M  V30 30 H 1.4844 0.635 1.9219 0
M  V30 31 H -2.3601 1.2326 -0.0157 0
M  V30 32 H -2.1117 1.8275 1.6133 0
M  V30 33 H 1.0235 -2.9551 -2.1621 0
M  V30 34 H 2.2581 -1.6953 -2.1892 0
M  V30 35 H 3.1681 -3.4661 -0.6444 0
M  V30 36 H 2.1308 -3.0504 3.4885 0
M  V30 37 H 1.6102 2.3765 0.227 0
M  V30 38 H 1.8108 3.0424 1.8516 0
M  V30 39 H -0.6423 2.7241 -0.9284 0
M  V30 40 H -1.8863 3.6178 -0.0464 0
M  V30 41 H 3.5892 -3.9998 1.7188 0
M  V30 42 H 0.9461 4.6125 -0.6267 0
M  V30 43 H 1.2025 5.2519 1.011 0
M  V30 44 H -0.3464 5.4928 0.2167 0
M  V30 END ATOM
M  V30 BEGIN BOND
M  V30 1 2 1 2
M  V30 2 1 1 3
M  V30 3 1 2 4
M  V30 4 1 2 5
M  V30 5 2 3 6
M  V30 6 1 4 7
M  V30 7 2 4 8
M  V30 8 2 5 9
M  V30 9 1 5 10
M  V30 10 2 7 11
M  V30 11 1 7 12
M  V30 12 1 8 13
M  V30 13 1 8 14
M  V30 14 1 10 15
M  V30 15 1 11 16
M  V30 16 2 12 17
M  V30 17 1 13 18
M  V30 18 1 14 19
M  V30 19 2 16 20
M  V30 20 1 18 21
M  V30 21 1 21 22
M  V30 22 1 6 9
M  V30 23 1 11 15
M  V30 24 1 17 20
M  V30 25 1 19 21
M  V30 26 1 3 23
M  V30 27 1 6 24
M  V30 28 1 9 25
M  V30 29 1 10 26
M  V30 30 1 10 27
M  V30 31 1 12 28
M  V30 32 1 13 29
M  V30 33 1 13 30
M  V30 34 1 14 31
M  V30 35 1 14 32
M  V30 36 1 15 33
M  V30 37 1 15 34
M  V30 38 1 16 35
M  V30 39 1 17 36
M  V30 40 1 18 37
M  V30 41 1 18 38
M  V30 42 1 19 39
M  V30 43 1 19 40
M  V30 44 1 20 41
M  V30 45 1 22 42
M  V30 46 1 22 43
M  V30 47 1 22 44
M  V30 END BOND
M  V30 END CTAB
M  END
>  <NO.>
5267

>  <Name>
azatadine

>  <SMILES>
CN1CCC(=C2c3ccccc3CCc3cccnc32)CC1

>  <logBB>


>  <Class>
1

>  <MW>
290.18

>  <nHBAcc>
2

>  <nHBDon>
0

>  <SLogP>
3.71

>  <TopoPSA>
16.13

>  <MMFF94 Energy>
104.7

$$$$
CN1CCC(CN2c3ccccc3Sc3ccccc32)C1
Actelion Java MolfileCreator 2.0

  0  0  0  0  0  0              0 V3000
M  V30 BEGIN CTAB
M  V30 COUNTS 41 44 0 0 0
M  V30 BEGIN ATOM
M  V30 1 S -0.4865 0.2432 -3.8975 0
M  V30 2 C -1.7278 -0.4588 -2.8447 0
M  V30 3 C 0.9361 0.2927 -2.8391 0
M  V30 4 C -1.506 -0.8372 -1.5051 0
M  V30 5 C -2.9902 -0.626 -3.4542 0
M  V30 6 C 0.9387 -0.1351 -1.4947 0
M  V30 7 C 2.0995 0.8116 -3.4487 0
M  V30 8 N -0.2317 -0.6705 -0.8721 0
M  V30 9 C -2.6241 -1.3936 -0.8359 0
M  V30 10 C -4.0607 -1.1725 -2.759 0
M  V30 11 C 2.1734 0.009 -0.8171 0
M  V30 12 C 3.2915 0.926 -2.7471 0
M  V30 13 C -0.1193 -1.1352 0.5364 0
M  V30 14 C -3.8757 -1.5585 -1.4448 0
M  V30 15 C 3.3262 0.5261 -1.4251 0
M  V30 16 C -0.7066 -0.128 1.5531 0 CFG=2
M  V30 17 C 0.1364 1.1257 1.7578 0
M  V30 18 C -0.7335 -0.7472 2.9624 0
M  V30 19 N 1.1426 0.6642 2.7171 0
M  V30 20 C 0.3879 -0.0599 3.7398 0
M  V30 21 C 1.9218 1.7622 3.2718 0
M  V30 22 H -3.1416 -0.3272 -4.49 0
M  V30 23 H 2.0758 1.1338 -4.4882 0
M  V30 24 H -2.5714 -1.7219 0.1963 0
M  V30 25 H -5.0254 -1.2955 -3.2425 0
M  V30 26 H 2.2954 -0.2531 0.2282 0
M  V30 27 H 4.1779 1.328 -3.2284 0
M  V30 28 H -0.6277 -2.1034 0.6357 0
M  V30 29 H 0.8972 -1.4225 0.8179 0
M  V30 30 H -4.6994 -1.9905 -0.882 0
M  V30 31 H 4.2446 0.6151 -0.8501 0
M  V30 32 H -1.7205 0.162 1.2589 0
M  V30 33 H 0.5741 1.5168 0.8377 0
M  V30 34 H -0.485 1.9212 2.192 0
M  V30 35 H -1.6971 -0.5454 3.4452 0
M  V30 36 H -0.597 -1.8338 2.9433 0
M  V30 37 H -0.0488 0.6158 4.4864 0
M  V30 38 H 1.0181 -0.7871 4.2617 0
M  V30 39 H 2.4797 2.2713 2.4782 0
M  V30 40 H 2.6589 1.3825 3.9876 0
M  V30 41 H 1.2972 2.5042 3.7823 0
M  V30 END ATOM
M  V30 BEGIN BOND
M  V30 1 1 1 2
M  V30 2 1 1 3
M  V30 3 2 2 4
M  V30 4 1 2 5
M  V30 5 2 3 6
M  V30 6 1 3 7
M  V30 7 1 4 8
M  V30 8 1 4 9
M  V30 9 2 5 10
M  V30 10 1 6 11
M  V30 11 2 7 12
M  V30 12 1 8 13
M  V30 13 2 9 14
M  V30 14 2 11 15
M  V30 15 1 13 16
M  V30 16 1 16 17
M  V30 17 1 16 18
M  V30 18 1 17 19
M  V30 19 1 18 20
M  V30 20 1 19 21
M  V30 21 1 6 8
M  V30 22 1 10 14
M  V30 23 1 12 15
M  V30 24 1 19 20
M  V30 25 1 5 22
M  V30 26 1 7 23
M  V30 27 1 9 24
M  V30 28 1 10 25
M  V30 29 1 11 26
M  V30 30 1 12 27
M  V30 31 1 13 28
M  V30 32 1 13 29
M  V30 33 1 14 30
M  V30 34 1 15 31
M  V30 35 1 16 32
M  V30 36 1 17 33
M  V30 37 1 17 34
M  V30 38 1 18 35
M  V30 39 1 18 36
M  V30 40 1 20 37
M  V30 41 1 20 38
M  V30 42 1 21 39
M  V30 43 1 21 40
M  V30 44 1 21 41
M  V30 END BOND
M  V30 BEGIN COLLECTION
M  V30 MDLV30/STERAC1 ATOMS=(1 16)
M  V30 END COLLECTION
M  V30 END CTAB
M  END
>  <NO.>
5268

>  <Name>
methdilazine

>  <SMILES>
CN1CCC(CN2c3ccccc3Sc3ccccc32)C1

>  <logBB>


>  <Class>
1

>  <MW>
296.13

>  <nHBAcc>
3

>  <nHBDon>
0

>  <SLogP>
4.24

>  <TopoPSA>
6.48

>  <MMFF94 Energy>
77.471

$$$$
CN1CCC(OC(c2ccccc2)c2ccccc2)CC1
Actelion Java MolfileCreator 2.0

  0  0  0  0  0  0              0 V3000
M  V30 BEGIN CTAB
M  V30 COUNTS 44 46 0 0 0
M  V30 BEGIN ATOM
M  V30 1 O -0.6342 0.3963 -0.1585 0
M  V30 2 C -0.1117 -0.5093 -1.1339 0
M  V30 3 C -0.0492 0.2588 1.1467 0
M  V30 4 C -0.8329 -1.855 -1.0628 0
M  V30 5 C -0.3303 0.1148 -2.5103 0
M  V30 6 C 1.2194 1.0963 1.2211 0
M  V30 7 C -1.0636 0.6446 2.2178 0
M  V30 8 C -0.4047 -2.764 -2.2128 0
M  V30 9 C 0.0876 -0.8458 -3.6193 0
M  V30 10 C 2.4015 0.5497 1.7464 0
M  V30 11 C 1.2332 2.4288 0.7776 0
M  V30 12 C -2.1933 1.4259 1.9248 0
M  V30 13 C -0.8676 0.2284 3.5465 0
M  V30 14 N -0.6336 -2.1211 -3.5126 0
M  V30 15 C 3.5668 1.3155 1.8202 0
M  V30 16 C 2.3989 3.1924 0.8521 0
M  V30 17 C -3.1029 1.7727 2.9263 0
M  V30 18 C -1.7775 0.5766 4.5473 0
M  V30 19 C -0.2573 -3.0179 -4.6052 0
M  V30 20 C 3.565 2.6354 1.3728 0
M  V30 21 C -2.8952 1.3476 4.2364 0
M  V30 22 H 0.9665 -0.6497 -0.9816 0
M  V30 23 H 0.1947 -0.7989 1.3099 0
M  V30 24 H -0.628 -2.3507 -0.1073 0
M  V30 25 H -1.9194 -1.6963 -1.0871 0
M  V30 26 H 0.239 1.0492 -2.5868 0
M  V30 27 H -1.3846 0.3987 -2.6306 0
M  V30 28 H -0.9876 -3.691 -2.1504 0
M  V30 29 H 0.6523 -3.0356 -2.0923 0
M  V30 30 H -0.1355 -0.3732 -4.5835 0
M  V30 31 H 1.173 -1.0063 -3.5786 0
M  V30 32 H 2.4224 -0.4771 2.1037 0
M  V30 33 H 0.3272 2.8736 0.3699 0
M  V30 34 H -2.3721 1.7695 0.9078 0
M  V30 35 H 0.0025 -0.3677 3.8114 0
M  V30 36 H 4.4763 0.8835 2.2295 0
M  V30 37 H 2.3941 4.2225 0.5057 0
M  V30 38 H -3.9728 2.3762 2.6809 0
M  V30 39 H -1.6116 0.249 5.5701 0
M  V30 40 H -0.4811 -2.5587 -5.5745 0
M  V30 41 H -0.8363 -3.9468 -4.5575 0
M  V30 42 H 0.8082 -3.2736 -4.5819 0
M  V30 43 H 4.4715 3.2318 1.4326 0
M  V30 44 H -3.6029 1.6198 5.0148 0
M  V30 END ATOM
M  V30 BEGIN BOND
M  V30 1 1 1 2
M  V30 2 1 1 3
M  V30 3 1 2 4
M  V30 4 1 2 5
M  V30 5 1 3 6
M  V30 6 1 3 7
M  V30 7 1 4 8
M  V30 8 1 5 9
M  V30 9 2 6 10
M  V30 10 1 6 11
M  V30 11 2 7 12
M  V30 12 1 7 13
M  V30 13 1 8 14
M  V30 14 1 10 15
M  V30 15 2 11 16
M  V30 16 1 12 17
M  V30 17 2 13 18
M  V30 18 1 14 19
M  V30 19 2 15 20
M  V30 20 2 17 21
M  V30 21 1 9 14
M  V30 22 1 16 20
M  V30 23 1 18 21
M  V30 24 1 2 22
M  V30 25 1 3 23
M  V30 26 1 4 24
M  V30 27 1 4 25
M  V30 28 1 5 26
M  V30 29 1 5 27
M  V30 30 1 8 28
M  V30 31 1 8 29
M  V30 32 1 9 30
M  V30 33 1 9 31
M  V30 34 1 10 32
M  V30 35 1 11 33
M  V30 36 1 12 34
M  V30 37 1 13 35
M  V30 38 1 15 36
M  V30 39 1 16 37
M  V30 40 1 17 38
M  V30 41 1 18 39
M  V30 42 1 19 40
M  V30 43 1 19 41
M  V30 44 1 19 42
M  V30 45 1 20 43
M  V30 46 1 21 44
M  V30 END BOND
M  V30 END CTAB
M  END
>  <NO.>
5269

>  <Name>
diphenylpyraline

>  <SMILES>
CN1CCC(OC(c2ccccc2)c2ccccc2)CC1

>  <logBB>


>  <Class>
1

>  <MW>
281.18

>  <nHBAcc>
2

>  <nHBDon>
0

>  <SLogP>
3.89

>  <TopoPSA>
12.47

>  <MMFF94 Energy>
58.536

$$$$
CN1CCC2=C(C1)C(c1ccccc1)c1ccccc12
Actelion Java MolfileCreator 2.0

  0  0  0  0  0  0              0 V3000
M  V30 BEGIN CTAB
M  V30 COUNTS 39 42 0 0 0
M  V30 BEGIN ATOM
M  V30 1 N -0.4804 2.4839 1.6821 0
M  V30 2 C 0.5669 1.5322 1.248 0
M  V30 3 C -1.5118 1.822 2.5037 0
M  V30 4 C 0.1166 3.6111 2.3927 0
M  V30 5 C -0.0086 0.2465 0.7526 0
M  V30 6 C -2.2539 0.7133 1.7229 0
M  V30 7 C -1.2864 -0.1161 0.9623 0
M  V30 8 C 0.7871 -0.8078 0.0083 0 CFG=2
M  V30 9 C -1.4931 -1.4282 0.3764 0
M  V30 10 C 1.4354 -0.3191 -1.2718 0
M  V30 11 C -0.2845 -1.8588 -0.1986 0
M  V30 12 C -2.6262 -2.2208 0.3265 0
M  V30 13 C 0.6871 0.2896 -2.2933 0
M  V30 14 C 2.8187 -0.4743 -1.4568 0
M  V30 15 C -0.1878 -3.0914 -0.8269 0
M  V30 16 C -2.538 -3.4631 -0.3088 0
M  V30 17 C 1.3054 0.7325 -3.4637 0
M  V30 18 C 3.4353 -0.0309 -2.6287 0
M  V30 19 C -1.3291 -3.8944 -0.8805 0
M  V30 20 C 2.6788 0.5723 -3.6309 0
M  V30 21 H 1.1479 2.0067 0.4492 0
M  V30 22 H 1.2543 1.305 2.073 0
M  V30 23 H -1.0597 1.3939 3.4091 0
M  V30 24 H -2.2575 2.556 2.8341 0
M  V30 25 H 0.6152 3.3003 3.3179 0
M  V30 26 H 0.8509 4.1207 1.759 0
M  V30 27 H -0.6477 4.3538 2.6469 0
M  V30 28 H -2.8214 0.1001 2.4319 0
M  V30 29 H -2.9684 1.1656 1.0247 0
M  V30 30 H 1.5429 -1.2164 0.6922 0
M  V30 31 H -3.5622 -1.892 0.7645 0
M  V30 32 H -0.3874 0.4232 -2.1795 0
M  V30 33 H 3.4278 -0.9438 -0.6876 0
M  V30 34 H 0.7446 -3.4213 -1.273 0
M  V30 35 H -3.4154 -4.1032 -0.3635 0
M  V30 36 H 0.7121 1.2027 -4.2436 0
M  V30 37 H 4.5068 -0.1568 -2.7596 0
M  V30 38 H -1.2834 -4.8632 -1.3723 0
M  V30 39 H 3.1588 0.9175 -4.5426 0
M  V30 END ATOM
M  V30 BEGIN BOND
M  V30 1 1 1 2
M  V30 2 1 1 3
M  V30 3 1 1 4
M  V30 4 1 2 5
M  V30 5 1 3 6
M  V30 6 2 5 7
M  V30 7 1 5 8
M  V30 8 1 7 9
M  V30 9 1 8 10
M  V30 10 1 8 11
M  V30 11 1 9 12
M  V30 12 2 10 13
M  V30 13 1 10 14
M  V30 14 1 11 15
M  V30 15 2 12 16
M  V30 16 1 13 17
M  V30 17 2 14 18
M  V30 18 2 15 19
M  V30 19 2 17 20
M  V30 20 1 6 7
M  V30 21 2 9 11
M  V30 22 1 16 19
M  V30 23 1 18 20
M  V30 24 1 2 21
M  V30 25 1 2 22
M  V30 26 1 3 23
M  V30 27 1 3 24
M  V30 28 1 4 25
M  V30 29 1 4 26
M  V30 30 1 4 27
M  V30 31 1 6 28
M  V30 32 1 6 29
M  V30 33 1 8 30
M  V30 34 1 12 31
M  V30 35 1 13 32
M  V30 36 1 14 33
M  V30 37 1 15 34
M  V30 38 1 16 35
M  V30 39 1 17 36
M  V30 40 1 18 37
M  V30 41 1 19 38
M  V30 42 1 20 39
M  V30 END BOND
M  V30 BEGIN COLLECTION
M  V30 MDLV30/STERAC1 ATOMS=(1 8)
M  V30 END COLLECTION
M  V30 END CTAB
M  END
>  <NO.>
5270

>  <Name>
phenindamine

>  <SMILES>
CN1CCC2=C(C1)C(c1ccccc1)c1ccccc12

>  <logBB>


>  <Class>
1

>  <MW>
261.15

>  <nHBAcc>
1

>  <nHBDon>
0

>  <SLogP>
3.92

>  <TopoPSA>
3.24

>  <MMFF94 Energy>
65.642

$$$$
CN1CCCN=C1C=Cc1cccs1
Actelion Java MolfileCreator 2.0

  0  0  0  0  0  0              0 V3000
M  V30 BEGIN CTAB
M  V30 COUNTS 28 29 0 0 0
M  V30 BEGIN ATOM
M  V30 1 S 3.2157 1.1246 1.5264 0
M  V30 2 C 2.8123 -0.218 0.5209 0
M  V30 3 C 4.8587 0.6752 1.6201 0
M  V30 4 C 3.9458 -0.9832 0.2854 0
M  V30 5 C 1.4959 -0.4815 0.0307 0
M  V30 6 C 5.1188 -0.4727 0.9119 0
M  V30 7 C 0.4445 0.3356 0.1956 0
M  V30 8 C -0.9087 -0.0243 -0.3525 0
M  V30 9 N -0.9116 -0.8267 -1.3734 0
M  V30 10 N -2.0605 0.5212 0.2035 0
M  V30 11 C -2.1933 -1.21 -1.9565 0
M  V30 12 C -3.3651 0.263 -0.389 0
M  V30 13 C -2.0646 1.2692 1.4508 0
M  V30 14 C -3.207 -0.091 -1.8522 0
M  V30 15 H 5.5551 1.274 2.1905 0
M  V30 16 H 3.9315 -1.8809 -0.3218 0
M  V30 17 H 1.3561 -1.4112 -0.5179 0
M  V30 18 H 6.0999 -0.9258 0.8444 0
M  V30 19 H 0.5098 1.2787 0.7185 0
M  V30 20 H -2.5583 -2.122 -1.4699 0
M  V30 21 H -2.0357 -1.4522 -3.013 0
M  V30 22 H -4.0106 1.145 -0.3022 0
M  V30 23 H -3.8514 -0.5572 0.1522 0
M  V30 24 H -1.5095 0.7337 2.2281 0
M  V30 25 H -3.0814 1.4218 1.8295 0
M  V30 26 H -1.6142 2.256 1.3041 0
M  V30 27 H -2.8585 0.7836 -2.4154 0
M  V30 28 H -4.1677 -0.3984 -2.2783 0
M  V30 END ATOM
M  V30 BEGIN BOND
M  V30 1 1 1 2
M  V30 2 1 1 3
M  V30 3 2 2 4
M  V30 4 1 2 5
M  V30 5 2 3 6
M  V30 6 2 5 7
M  V30 7 1 7 8
M  V30 8 2 8 9
M  V30 9 1 8 10
M  V30 10 1 9 11
M  V30 11 1 10 12
M  V30 12 1 10 13
M  V30 13 1 11 14
M  V30 14 1 4 6
M  V30 15 1 12 14
M  V30 16 1 3 15
M  V30 17 1 4 16
M  V30 18 1 5 17
M  V30 19 1 6 18
M  V30 20 1 7 19
M  V30 21 1 11 20
M  V30 22 1 11 21
M  V30 23 1 12 22
M  V30 24 1 12 23
M  V30 25 1 13 24
M  V30 26 1 13 25
M  V30 27 1 13 26
M  V30 28 1 14 27
M  V30 29 1 14 28
M  V30 END BOND
M  V30 END CTAB
M  END
>  <NO.>
5273

>  <Name>
pyrantel

>  <SMILES>
CN1CCCN=C1C=Cc1cccs1

>  <logBB>


>  <Class>
-1

>  <MW>
206.09

>  <nHBAcc>
3

>  <nHBDon>
0

>  <SLogP>
2.5

>  <TopoPSA>
15.6

>  <MMFF94 Energy>
-34.639

$$$$
CN1CCCN=C1COC(=O)C(O)(c1ccccc1)C1CCCCC1
Actelion Java MolfileCreator 2.0

  0  0  0  0  0  0              0 V3000
M  V30 BEGIN CTAB
M  V30 COUNTS 53 55 0 0 0
M  V30 BEGIN ATOM
M  V30 1 O 0.0 1.5095 1.748 0
M  V30 2 C 0.2862 0.8175 0.7785 0
M  V30 3 O 1.0536 -0.312 0.8304 0
M  V30 4 C -0.1627 1.0824 -0.6955 0 CFG=2
M  V30 5 C 1.495 -0.6653 2.1429 0
M  V30 6 O -0.059 -0.1425 -1.4489 0
M  V30 7 C 0.7497 2.1499 -1.3172 0
M  V30 8 C -1.6697 1.5067 -0.713 0
M  V30 9 C 1.9931 -2.1194 2.0994 0
M  V30 10 C 1.4343 1.9231 -2.5249 0
M  V30 11 C 0.9106 3.4036 -0.6969 0
M  V30 12 C -2.1746 1.8345 -2.1379 0
M  V30 13 C -2.5804 0.4154 -0.0985 0
M  V30 14 N 3.2679 -2.2715 2.2551 0
M  V30 15 N 1.0843 -3.1564 1.9011 0
M  V30 16 C 2.2586 2.9047 -3.0812 0
M  V30 17 C 1.7359 4.3834 -1.2539 0
M  V30 18 C -3.6486 2.2374 -2.1474 0
M  V30 19 C -4.0521 0.8245 -0.1068 0
M  V30 20 C 3.8177 -3.6239 2.1929 0
M  V30 21 C 1.5609 -4.531 1.8384 0
M  V30 22 C -0.3058 -2.9409 1.5299 0
M  V30 23 C 2.4112 4.1329 -2.4445 0
M  V30 24 C -4.53 1.1706 -1.511 0
M  V30 25 C 2.8233 -4.6649 2.666 0
M  V30 26 H 2.3145 -3.0E-4 2.437 0
M  V30 27 H 0.6849 -0.5964 2.8775 0
M  V30 28 H 0.7817 -0.5501 -1.1627 0
M  V30 29 H -1.7873 2.4141 -0.1032 0
M  V30 30 H 1.3238 0.9813 -3.0587 0
M  V30 31 H 0.3932 3.6352 0.2334 0
M  V30 32 H -1.5964 2.6582 -2.5706 0
M  V30 33 H -2.0366 0.9673 -2.7957 0
M  V30 34 H -2.2881 0.2079 0.9366 0
M  V30 35 H -2.4709 -0.5252 -0.6525 0
M  V30 36 H 2.778 2.7093 -4.016 0
M  V30 37 H 1.8495 5.3433 -0.7561 0
M  V30 38 H -3.9739 2.4155 -3.1788 0
M  V30 39 H -3.7708 3.1842 -1.6067 0
M  V30 40 H -4.6624 0.0093 0.2984 0
M  V30 41 H -4.1947 1.6888 0.5535 0
M  V30 42 H 4.1454 -3.8333 1.1679 0
M  V30 43 H 4.7091 -3.6665 2.8283 0
M  V30 44 H 1.7546 -4.8015 0.7936 0
M  V30 45 H 0.8055 -5.2242 2.2263 0
M  V30 46 H -0.7862 -2.2141 2.1919 0
M  V30 47 H -0.8898 -3.8652 1.5986 0
M  V30 48 H -0.3726 -2.5832 0.4977 0
M  V30 49 H 3.0524 4.8957 -2.8782 0
M  V30 50 H -5.5674 1.5217 -1.473 0
M  V30 51 H -4.5201 0.268 -2.1342 0
M  V30 52 H 2.5947 -4.5067 3.7276 0
M  V30 53 H 3.2433 -5.6711 2.5645 0
M  V30 END ATOM
M  V30 BEGIN BOND
M  V30 1 2 1 2
M  V30 2 1 2 3
M  V30 3 1 2 4
M  V30 4 1 3 5
M  V30 5 1 4 6
M  V30 6 1 4 7
M  V30 7 1 4 8
M  V30 8 1 5 9
M  V30 9 2 7 10
M  V30 10 1 7 11
M  V30 11 1 8 12
M  V30 12 1 8 13
M  V30 13 2 9 14
M  V30 14 1 9 15
M  V30 15 1 10 16
M  V30 16 2 11 17
M  V30 17 1 12 18
M  V30 18 1 13 19
M  V30 19 1 14 20
M  V30 20 1 15 21
M  V30 21 1 15 22
M  V30 22 2 16 23
M  V30 23 1 18 24
M  V30 24 1 20 25
M  V30 25 1 17 23
M  V30 26 1 19 24
M  V30 27 1 21 25
M  V30 28 1 5 26
M  V30 29 1 5 27
M  V30 30 1 6 28
M  V30 31 1 8 29
M  V30 32 1 10 30
M  V30 33 1 11 31
M  V30 34 1 12 32
M  V30 35 1 12 33
M  V30 36 1 13 34
M  V30 37 1 13 35
M  V30 38 1 16 36
M  V30 39 1 17 37
M  V30 40 1 18 38
M  V30 41 1 18 39
M  V30 42 1 19 40
M  V30 43 1 19 41
M  V30 44 1 20 42
M  V30 45 1 20 43
M  V30 46 1 21 44
M  V30 47 1 21 45
M  V30 48 1 22 46
M  V30 49 1 22 47
M  V30 50 1 22 48
M  V30 51 1 23 49
M  V30 52 1 24 50
M  V30 53 1 24 51
M  V30 54 1 25 52
M  V30 55 1 25 53
M  V30 END BOND
M  V30 BEGIN COLLECTION
M  V30 MDLV30/STERAC1 ATOMS=(1 4)
M  V30 END COLLECTION
M  V30 END CTAB
M  END
>  <NO.>
5274

>  <Name>
oxyphencyclimine

>  <SMILES>
CN1CCCN=C1COC(=O)C(O)(c1ccccc1)C1CCCCC1

>  <logBB>


>  <Class>
-1

>  <MW>
344.21

>  <nHBAcc>
5

>  <nHBDon>
1

>  <SLogP>
2.73

>  <TopoPSA>
62.13

>  <MMFF94 Energy>
70.316

$$$$
CN1CCN(C(c2ccccc2)c2ccccc2)CC1
Actelion Java MolfileCreator 2.0

  0  0  0  0  0  0              0 V3000
M  V30 BEGIN CTAB
M  V30 COUNTS 42 44 0 0 0
M  V30 BEGIN ATOM
M  V30 1 N -0.3174 0.238 0.6348 0
M  V30 2 C 0.1492 -0.7071 -0.4257 0
M  V30 3 C 0.1493 -0.1955 1.9776 0
M  V30 4 C -1.8017 0.2989 0.6785 0
M  V30 5 C -0.3648 -0.3557 -1.8297 0
M  V30 6 C 1.6754 -0.8724 -0.4715 0
M  V30 7 C -0.3743 0.714 3.1129 0
M  V30 8 C -2.3277 1.2091 1.8123 0
M  V30 9 C -0.8956 -1.3637 -2.6531 0
M  V30 10 C -0.2948 0.9534 -2.3373 0
M  V30 11 C 2.5409 0.2352 -0.4491 0
M  V30 12 C 2.2373 -2.1572 -0.568 0
M  V30 13 N -1.8463 0.7787 3.1369 0
M  V30 14 C -1.3529 -1.0676 -3.9389 0
M  V30 15 C -0.7528 1.2473 -3.6228 0
M  V30 16 C 3.9248 0.0626 -0.5084 0
M  V30 17 C 3.6221 -2.3276 -0.6276 0
M  V30 18 C -2.3084 1.6923 4.1786 0
M  V30 19 C -1.2822 0.2371 -4.4224 0
M  V30 20 C 4.4645 -1.2183 -0.5969 0
M  V30 21 H -0.2722 -1.6902 -0.1667 0
M  V30 22 H -0.1627 -1.23 2.1768 0
M  V30 23 H 1.2426 -0.1698 2.0333 0
M  V30 24 H -2.1994 0.7024 -0.2584 0
M  V30 25 H -2.2236 -0.7077 0.8046 0
M  V30 26 H -0.0122 0.3128 4.0673 0
M  V30 27 H 0.0572 1.7175 2.9953 0
M  V30 28 H -3.4239 1.1775 1.7957 0
M  V30 29 H -2.0274 2.2458 1.6072 0
M  V30 30 H -0.9527 -2.3899 -2.2977 0
M  V30 31 H 0.1116 1.7531 -1.7225 0
M  V30 32 H 2.1336 1.241 -0.3755 0
M  V30 33 H 1.5972 -3.0356 -0.6011 0
M  V30 34 H -1.7605 -1.8568 -4.565 0
M  V30 35 H -0.6938 2.2651 -3.9989 0
M  V30 36 H 4.5797 0.9294 -0.4875 0
M  V30 37 H 4.0431 -3.3266 -0.7025 0
M  V30 38 H -3.4033 1.7147 4.2106 0
M  V30 39 H -1.9715 1.3519 5.164 0
M  V30 40 H -1.9476 2.716 4.0263 0
M  V30 41 H -1.636 0.4661 -5.4239 0
M  V30 42 H 5.5418 -1.3518 -0.6458 0
M  V30 END ATOM
M  V30 BEGIN BOND
M  V30 1 1 1 2
M  V30 2 1 1 3
M  V30 3 1 1 4
M  V30 4 1 2 5
M  V30 5 1 2 6
M  V30 6 1 3 7
M  V30 7 1 4 8
M  V30 8 2 5 9
M  V30 9 1 5 10
M  V30 10 2 6 11
M  V30 11 1 6 12
M  V30 12 1 7 13
M  V30 13 1 9 14
M  V30 14 2 10 15
M  V30 15 1 11 16
M  V30 16 2 12 17
M  V30 17 1 13 18
M  V30 18 2 14 19
M  V30 19 2 16 20
M  V30 20 1 8 13
M  V30 21 1 15 19
M  V30 22 1 17 20
M  V30 23 1 2 21
M  V30 24 1 3 22
M  V30 25 1 3 23
M  V30 26 1 4 24
M  V30 27 1 4 25
M  V30 28 1 7 26
M  V30 29 1 7 27
M  V30 30 1 8 28
M  V30 31 1 8 29
M  V30 32 1 9 30
M  V30 33 1 10 31
M  V30 34 1 11 32
M  V30 35 1 12 33
M  V30 36 1 14 34
M  V30 37 1 15 35
M  V30 38 1 16 36
M  V30 39 1 17 37
M  V30 40 1 18 38
M  V30 41 1 18 39
M  V30 42 1 18 40
M  V30 43 1 19 41
M  V30 44 1 20 42
M  V30 END BOND
M  V30 END CTAB
M  END
>  <NO.>
5275

>  <Name>
cyclizine

>  <SMILES>
CN1CCN(C(c2ccccc2)c2ccccc2)CC1

>  <logBB>


>  <Class>
1

>  <MW>
266.18

>  <nHBAcc>
2

>  <nHBDon>
0

>  <SLogP>
3.02

>  <TopoPSA>
6.48

>  <MMFF94 Energy>
115.57

$$$$
CN=C(NC)NCc1ccccc1
Actelion Java MolfileCreator 2.0

  0  0  0  0  0  0              0 V3000
M  V30 BEGIN CTAB
M  V30 COUNTS 28 28 0 0 0
M  V30 BEGIN ATOM
M  V30 1 N 0.9996 1.3074 -1.9231 0
M  V30 2 C 0.7231 1.39 -0.6753 0
M  V30 3 C 1.6577 2.3731 -2.6428 0
M  V30 4 N 0.1355 0.3338 -0.0472 0
M  V30 5 N 0.9001 2.385 0.2373 0
M  V30 6 C -0.1485 -0.9196 -0.7071 0
M  V30 7 C 1.246 3.7594 0.0096 0
M  V30 8 C -0.7594 -1.8794 0.287 0
M  V30 9 C 0.0595 -2.6466 1.1285 0
M  V30 10 C -2.1522 -1.9809 0.4169 0
M  V30 11 C -0.5038 -3.5129 2.0665 0
M  V30 12 C -2.7135 -2.848 1.3558 0
M  V30 13 C -1.8895 -3.6145 2.1785 0
M  V30 14 H 1.0212 3.2578 -2.7309 0
M  V30 15 H 2.6213 2.6342 -2.1962 0
M  V30 16 H 1.8679 2.0329 -3.6623 0
M  V30 17 H -0.3167 0.4766 0.8418 0
M  V30 18 H 0.8567 2.1109 1.2081 0
M  V30 19 H -0.8379 -0.7659 -1.5461 0
M  V30 20 H 0.7689 -1.358 -1.1182 0
M  V30 21 H 0.5626 4.2276 -0.7041 0
M  V30 22 H 2.277 3.8591 -0.3387 0
M  V30 23 H 1.1659 4.3167 0.9488 0
M  V30 24 H 1.1424 -2.5681 1.0545 0
M  V30 25 H -2.8062 -1.383 -0.2148 0
M  V30 26 H 0.1387 -4.1074 2.7108 0
M  V30 27 H -3.794 -2.9249 1.446 0
M  V30 28 H -2.3276 -4.2902 2.9086 0
M  V30 END ATOM
M  V30 BEGIN BOND
M  V30 1 2 1 2
M  V30 2 1 1 3
M  V30 3 1 2 4
M  V30 4 1 2 5
M  V30 5 1 4 6
M  V30 6 1 5 7
M  V30 7 1 6 8
M  V30 8 2 8 9
M  V30 9 1 8 10
M  V30 10 1 9 11
M  V30 11 2 10 12
M  V30 12 2 11 13
M  V30 13 1 12 13
M  V30 14 1 3 14
M  V30 15 1 3 15
M  V30 16 1 3 16
M  V30 17 1 4 17
M  V30 18 1 5 18
M  V30 19 1 6 19
M  V30 20 1 6 20
M  V30 21 1 7 21
M  V30 22 1 7 22
M  V30 23 1 7 23
M  V30 24 1 9 24
M  V30 25 1 10 25
M  V30 26 1 11 26
M  V30 27 1 12 27
M  V30 28 1 13 28
M  V30 END BOND
M  V30 END CTAB
M  END
>  <NO.>
5276

>  <Name>
bethanidine sulfate

>  <SMILES>
CN=C(NC)NCc1ccccc1

>  <logBB>


>  <Class>
-1

>  <MW>
177.13

>  <nHBAcc>
1

>  <nHBDon>
2

>  <SLogP>
0.98

>  <TopoPSA>
36.42

>  <MMFF94 Energy>
-95.929

$$$$
CNC(=C[N+](=O)[O-])NCCSCc1csc(CN(C)C)n1
Actelion Java MolfileCreator 2.0

  0  0  0  0  0  0              0 V3000
M  V30 BEGIN CTAB
M  V30 COUNTS 42 42 0 0 0
M  V30 BEGIN ATOM
M  V30 1 S -1.765 -0.0801 2.809 0
M  V30 2 C -0.2867 0.4643 2.1144 0
M  V30 3 C -2.6229 1.0314 1.8305 0
M  V30 4 N -0.4176 1.3555 1.1484 0
M  V30 5 C 1.0367 -0.0818 2.6029 0
M  V30 6 C -1.7508 1.7209 1.0077 0
M  V30 7 N 1.381 0.3365 3.9815 0
M  V30 8 C -2.1003 2.8087 0.0462 0
M  V30 9 C 1.6507 1.7765 4.0414 0
M  V30 10 C 2.5588 -0.4056 4.4371 0
M  V30 11 S -3.1228 2.2377 -1.3481 0
M  V30 12 C -1.9065 1.1975 -2.2282 0
M  V30 13 C -2.1277 -0.2906 -1.9463 0
M  V30 14 N -1.2827 -1.1073 -2.8042 0
M  V30 15 C 0.0274 -1.5189 -2.6426 0
M  V30 16 N 0.5758 -2.2533 -3.6724 0
M  V30 17 C 0.6991 -1.2055 -1.5131 0
M  V30 18 C -0.0121 -2.6743 -4.9185 0
M  V30 19 N 2.052 -1.6265 -1.243 0 CHG=1
M  V30 20 O 2.4682 -1.3843 -0.1009 0
M  V30 21 O 2.717 -2.1889 -2.1253 0 CHG=-1
M  V30 22 H -3.6968 1.1313 1.9049 0
M  V30 23 H 1.8259 0.2278 1.9064 0
M  V30 24 H 0.9783 -1.1773 2.5514 0
M  V30 25 H -1.1973 3.2892 -0.3451 0
M  V30 26 H -2.6653 3.5838 0.5759 0
M  V30 27 H 0.7615 2.3591 3.7779 0
M  V30 28 H 2.4696 2.0735 3.3761 0
M  V30 29 H 1.916 2.0723 5.063 0
M  V30 30 H 3.4357 -0.2218 3.8054 0
M  V30 31 H 2.3567 -1.4825 4.4433 0
M  V30 32 H 2.8118 -0.1307 5.4674 0
M  V30 33 H -2.0413 1.3873 -3.2993 0
M  V30 34 H -0.8843 1.5042 -1.9834 0
M  V30 35 H -1.9647 -0.5369 -0.8923 0
M  V30 36 H -3.1692 -0.5548 -2.1676 0
M  V30 37 H -1.7089 -1.408 -3.6723 0
M  V30 38 H 1.5535 -2.531 -3.5374 0
M  V30 39 H 0.3149 -0.6411 -0.6805 0
M  V30 40 H -0.3184 -1.8108 -5.5173 0
M  V30 41 H -0.8799 -3.3177 -4.7432 0
M  V30 42 H 0.7182 -3.2452 -5.5 0
M  V30 END ATOM
M  V30 BEGIN BOND
M  V30 1 1 1 2
M  V30 2 1 1 3
M  V30 3 2 2 4
M  V30 4 1 2 5
M  V30 5 2 3 6
M  V30 6 1 5 7
M  V30 7 1 6 8
M  V30 8 1 7 9
M  V30 9 1 7 10
M  V30 10 1 8 11
M  V30 11 1 11 12
M  V30 12 1 12 13
M  V30 13 1 13 14
M  V30 14 1 14 15
M  V30 15 1 15 16
M  V30 16 2 15 17
M  V30 17 1 16 18
M  V30 18 1 17 19
M  V30 19 2 19 20
M  V30 20 1 19 21
M  V30 21 1 4 6
M  V30 22 1 3 22
M  V30 23 1 5 23
M  V30 24 1 5 24
M  V30 25 1 8 25
M  V30 26 1 8 26
M  V30 27 1 9 27
M  V30 28 1 9 28
M  V30 29 1 9 29
M  V30 30 1 10 30
M  V30 31 1 10 31
M  V30 32 1 10 32
M  V30 33 1 12 33
M  V30 34 1 12 34
M  V30 35 1 13 35
M  V30 36 1 13 36
M  V30 37 1 14 37
M  V30 38 1 16 38
M  V30 39 1 17 39
M  V30 40 1 18 40
M  V30 41 1 18 41
M  V30 42 1 18 42
M  V30 END BOND
M  V30 END CTAB
M  END
>  <NO.>
5277

>  <Name>
unii-p41pml4ghr

>  <SMILES>
CNC(=C[N+](=O)[O-])NCCSCc1csc(CN(C)C)n1

>  <logBB>


>  <Class>
-1

>  <MW>
331.11

>  <nHBAcc>
8

>  <nHBDon>
2

>  <SLogP>
1.32

>  <TopoPSA>
83.33

>  <MMFF94 Energy>
40.735

$$$$
COC(=O)C(c1ccccc1Cl)N1CCc2sccc2C1
Actelion Java MolfileCreator 2.0

  0  0  0  0  0  0              0 V3000
M  V30 BEGIN CTAB
M  V30 COUNTS 37 39 0 0 0
M  V30 BEGIN ATOM
M  V30 1 Cl -2.0577 -0.1645 -3.0465 0
M  V30 2 C -0.8412 0.9752 -2.5933 0
M  V30 3 C -0.378 1.0963 -1.273 0
M  V30 4 C -0.3207 1.7875 -3.6075 0
M  V30 5 C 0.6091 2.068 -1.003 0
M  V30 6 C -0.9282 0.254 -0.1213 0 CFG=1
M  V30 7 C 0.6612 2.7345 -3.3202 0
M  V30 8 C 1.1253 2.8755 -2.0169 0
M  V30 9 N 0.1558 -0.4 0.6918 0
M  V30 10 C -1.8237 1.1809 0.7447 0
M  V30 11 C 0.9645 -1.3013 -0.1741 0
M  V30 12 C -0.4117 -1.1717 1.8308 0
M  V30 13 O -1.4539 1.8694 1.6892 0
M  V30 14 O -3.1113 1.1411 0.2803 0
M  V30 15 C 1.9533 -2.0819 0.6471 0
M  V30 16 C 0.6855 -1.6772 2.7945 0
M  V30 17 C -4.0103 1.9948 0.9881 0
M  V30 18 C 1.8021 -2.2705 2.0051 0
M  V30 19 C 3.1273 -2.7429 0.1696 0
M  V30 20 S 3.0333 -3.21 2.6966 0
M  V30 21 C 3.8065 -3.3921 1.1793 0
M  V30 22 H -0.68 1.6884 -4.6291 0
M  V30 23 H 0.983 2.1945 0.014 0
M  V30 24 H -1.571 -0.5553 -0.4855 0
M  V30 25 H 1.0607 3.3633 -4.1119 0
M  V30 26 H 1.8882 3.6148 -1.7847 0
M  V30 27 H 1.5266 -0.7206 -0.9136 0
M  V30 28 H 0.3211 -2.0101 -0.7116 0
M  V30 29 H -1.0967 -0.5634 2.4301 0
M  V30 30 H -0.9949 -2.0225 1.4519 0
M  V30 31 H 0.2553 -2.4105 3.4857 0
M  V30 32 H 1.0689 -0.8368 3.3862 0
M  V30 33 H -5.0009 1.8924 0.5365 0
M  V30 34 H -4.0762 1.6953 2.0387 0
M  V30 35 H -3.6965 3.0397 0.9003 0
M  V30 36 H 3.4585 -2.743 -0.8615 0
M  V30 37 H 4.7201 -3.9649 1.1022 0
M  V30 END ATOM
M  V30 BEGIN BOND
M  V30 1 1 1 2
M  V30 2 2 2 3
M  V30 3 1 2 4
M  V30 4 1 3 5
M  V30 5 1 3 6
M  V30 6 2 4 7
M  V30 7 2 5 8
M  V30 8 1 6 9
M  V30 9 1 6 10
M  V30 10 1 9 11
M  V30 11 1 9 12
M  V30 12 2 10 13
M  V30 13 1 10 14
M  V30 14 1 11 15
M  V30 15 1 12 16
M  V30 16 1 14 17
M  V30 17 2 15 18
M  V30 18 1 15 19
M  V30 19 1 18 20
M  V30 20 2 19 21
M  V30 21 1 7 8
M  V30 22 1 16 18
M  V30 23 1 20 21
M  V30 24 1 4 22
M  V30 25 1 5 23
M  V30 26 1 6 24
M  V30 27 1 7 25
M  V30 28 1 8 26
M  V30 29 1 11 27
M  V30 30 1 11 28
M  V30 31 1 12 29
M  V30 32 1 12 30
M  V30 33 1 16 31
M  V30 34 1 16 32
M  V30 35 1 17 33
M  V30 36 1 17 34
M  V30 37 1 17 35
M  V30 38 1 19 36
M  V30 39 1 21 37
M  V30 END BOND
M  V30 BEGIN COLLECTION
M  V30 MDLV30/STERAC1 ATOMS=(1 6)
M  V30 END COLLECTION
M  V30 END CTAB
M  END
>  <NO.>
5283

>  <Name>
clopidogrel bisulfate

>  <SMILES>
COC(=O)C(c1ccccc1Cl)N1CCc2sccc2C1

>  <logBB>


>  <Class>
-1

>  <MW>
321.06

>  <nHBAcc>
4

>  <nHBDon>
0

>  <SLogP>
3.67

>  <TopoPSA>
29.54

>  <MMFF94 Energy>
90.65

$$$$
COC(=O)C1C(c2ccc(I)cc2)CC2CCC1N2CCCF
Actelion Java MolfileCreator 2.0

  0  0  0  0  0  0              0 V3000
M  V30 BEGIN CTAB
M  V30 COUNTS 46 48 0 0 0
M  V30 BEGIN ATOM
M  V30 1 I 1.7043 1.136 6.586 0
M  V30 2 C 1.2938 0.4655 4.6629 0
M  V30 3 C 2.007 -0.6078 4.1355 0
M  V30 4 C 0.3089 1.0946 3.9046 0
M  V30 5 C 1.7297 -1.0562 2.8416 0
M  V30 6 C 0.0345 0.6444 2.6104 0
M  V30 7 C 0.7369 -0.4404 2.0636 0
M  V30 8 C 0.4684 -0.9436 0.6503 0
M  V30 9 C 0.8728 0.0923 -0.427 0
M  V30 10 C -0.998 -1.4118 0.4786 0
M  V30 11 C 2.3816 0.2255 -0.5345 0
M  V30 12 C 0.3001 -0.2613 -1.818 0
M  V30 13 C -1.3988 -1.5982 -0.9974 0
M  V30 14 O 3.1893 -0.6604 -0.2905 0
M  V30 15 O 2.7072 1.4754 -0.9729 0
M  V30 16 N -1.1687 -0.3879 -1.7952 0
M  V30 17 C 0.6578 -1.6848 -2.277 0
M  V30 18 C -0.4585 -2.5717 -1.7161 0
M  V30 19 C 4.1117 1.6985 -1.1044 0
M  V30 20 C -1.8976 0.8219 -1.4203 0
M  V30 21 C -3.3975 0.6882 -1.7002 0
M  V30 22 C -4.1353 1.9646 -1.3356 0
M  V30 23 F -3.6513 2.9954 -2.0767 0
M  V30 24 H 2.7829 -1.1035 4.7128 0
M  V30 25 H -0.251 1.9364 4.304 0
M  V30 26 H 2.3069 -1.8881 2.4408 0
M  V30 27 H -0.7335 1.1556 2.0348 0
M  V30 28 H 1.0876 -1.8406 0.5087 0
M  V30 29 H 0.4994 1.0803 -0.126 0
M  V30 30 H -1.6982 -0.7119 0.9492 0
M  V30 31 H -1.1314 -2.3607 1.0154 0
M  V30 32 H 0.6281 0.4649 -2.5709 0
M  V30 33 H -2.4307 -1.9573 -1.0651 0
M  V30 34 H 0.6452 -1.7428 -3.373 0
M  V30 35 H 1.6445 -2.0215 -1.9479 0
M  V30 36 H -0.9775 -3.0681 -2.5454 0
M  V30 37 H -0.0682 -3.3531 -1.056 0
M  V30 38 H 4.2608 2.7271 -1.4444 0
M  V30 39 H 4.6117 1.5771 -0.1384 0
M  V30 40 H 4.5381 1.0214 -1.851 0
M  V30 41 H -1.5155 1.6573 -2.0208 0
M  V30 42 H -1.7441 1.0976 -0.372 0
M  V30 43 H -3.8297 -0.1398 -1.1287 0
M  V30 44 H -3.5501 0.4781 -2.7655 0
M  V30 45 H -4.0081 2.2168 -0.2786 0
M  V30 46 H -5.2039 1.8706 -1.5483 0
M  V30 END ATOM
M  V30 BEGIN BOND
M  V30 1 1 1 2
M  V30 2 2 2 3
M  V30 3 1 2 4
M  V30 4 1 3 5
M  V30 5 2 4 6
M  V30 6 2 5 7
M  V30 7 1 7 8
M  V30 8 1 8 9
M  V30 9 1 8 10
M  V30 10 1 9 11
M  V30 11 1 9 12
M  V30 12 1 10 13
M  V30 13 2 11 14
M  V30 14 1 11 15
M  V30 15 1 12 16
M  V30 16 1 12 17
M  V30 17 1 13 18
M  V30 18 1 15 19
M  V30 19 1 16 20
M  V30 20 1 20 21
M  V30 21 1 21 22
M  V30 22 1 22 23
M  V30 23 1 6 7
M  V30 24 1 13 16
M  V30 25 1 17 18
M  V30 26 1 3 24
M  V30 27 1 4 25
M  V30 28 1 5 26
M  V30 29 1 6 27
M  V30 30 1 8 28
M  V30 31 1 9 29
M  V30 32 1 10 30
M  V30 33 1 10 31
M  V30 34 1 12 32
M  V30 35 1 13 33
M  V30 36 1 17 34
M  V30 37 1 17 35
M  V30 38 1 18 36
M  V30 39 1 18 37
M  V30 40 1 19 38
M  V30 41 1 19 39
M  V30 42 1 19 40
M  V30 43 1 20 41
M  V30 44 1 20 42
M  V30 45 1 21 43
M  V30 46 1 21 44
M  V30 47 1 22 45
M  V30 48 1 22 46
M  V30 END BOND
M  V30 END CTAB
M  END
>  <NO.>
5285

>  <Name>
ioflupane

>  <SMILES>
COC(=O)C1C(c2ccc(I)cc2)CC2CCC1N2CCCF

>  <logBB>


>  <Class>
1

>  <MW>
431.08

>  <nHBAcc>
3

>  <nHBDon>
0

>  <SLogP>
3.76

>  <TopoPSA>
29.54

>  <MMFF94 Energy>
24.323

$$$$
COC(=O)C1CC2=CC(=O)CCC2(C)C23OC2CC2(C)C(CCC24CCC(=O)O4)C13
Actelion Java MolfileCreator 2.0

  0  0  0  0  0  0              0 V3000
M  V30 BEGIN CTAB
M  V30 COUNTS 60 65 0 0 0
M  V30 BEGIN ATOM
M  V30 1 O 1.2211 0.0 -6.1169 0
M  V30 2 C 1.0205 -0.3377 -4.9534 0
M  V30 3 C -0.3458 -0.2432 -4.3905 0
M  V30 4 C 2.1307 -0.7541 -4.025 0
M  V30 5 C -0.6302 -0.7233 -3.1675 0
M  V30 6 C 1.6418 -1.8551 -3.0968 0
M  V30 7 C 0.3536 -1.5075 -2.2898 0
M  V30 8 C -1.9323 -0.3611 -2.4961 0
M  V30 9 C 0.5847 -0.6831 -1.0007 0
M  V30 10 C -0.2424 -2.8848 -1.8884 0
M  V30 11 C -1.6757 0.4434 -1.2042 0
M  V30 12 O 1.4926 0.4124 -1.1983 0
M  V30 13 C -0.6998 -0.2803 -0.234 0
M  V30 14 C 1.9399 -0.6058 -0.2888 0
M  V30 15 C -3.037 0.6679 -0.584 0
M  V30 16 C -0.3375 0.5462 1.0292 0
M  V30 17 C 2.1045 -0.0792 1.1073 0
M  V30 18 O -3.7259 -0.2157 -0.0921 0
M  V30 19 O -3.3892 1.9798 -0.6706 0
M  V30 20 C 0.7824 -0.1043 1.8899 0
M  V30 21 C -1.4625 0.7941 2.042 0
M  V30 22 C -4.6752 2.2755 -0.1229 0
M  V30 23 C 0.728 0.7851 3.1746 0
M  V30 24 C 0.4774 -1.5869 2.2537 0
M  V30 25 C -0.7867 0.9448 3.4102 0
M  V30 26 O 1.3252 0.1349 4.3011 0
M  V30 27 C 1.4237 2.1437 3.1224 0
M  V30 28 C 2.533 0.6945 4.5931 0
M  V30 29 C 2.7894 1.8746 3.7114 0
M  V30 30 O 3.3005 0.2653 5.4383 0
M  V30 31 H -1.0539 0.3216 -4.9867 0
M  V30 32 H 2.9605 -1.1374 -4.6294 0
M  V30 33 H 2.4885 0.1248 -3.4825 0
M  V30 34 H 2.4566 -2.1765 -2.4414 0
M  V30 35 H 1.4333 -2.7259 -3.7369 0
M  V30 36 H -2.5065 -1.2724 -2.2887 0
M  V30 37 H -2.5664 0.2345 -3.167 0
M  V30 38 H 0.469 -3.4454 -1.2702 0
M  V30 39 H -0.4749 -3.492 -2.7715 0
M  V30 40 H -1.1671 -2.8074 -1.3099 0
M  V30 41 H -1.2393 1.4147 -1.4757 0
M  V30 42 H -1.1888 -1.1977 0.1136 0
M  V30 43 H 2.7761 -1.2154 -0.5964 0
M  V30 44 H 0.0106 1.5328 0.6887 0
M  V30 45 H 2.868 -0.665 1.6333 0
M  V30 46 H 2.5038 0.9358 1.0216 0
M  V30 47 H -2.1686 -0.0422 2.0786 0
M  V30 48 H -2.0265 1.6989 1.7946 0
M  V30 49 H -4.8542 3.3481 -0.2388 0
M  V30 50 H -5.4559 1.7328 -0.6649 0
M  V30 51 H -4.7023 2.033 0.944 0
M  V30 52 H -0.4846 -1.7046 2.7616 0
M  V30 53 H 0.4561 -2.2359 1.3727 0
M  V30 54 H 1.2498 -1.9919 2.9176 0
M  V30 55 H -1.1608 0.1762 4.0982 0
M  V30 56 H -1.0476 1.9052 3.8684 0
M  V30 57 H 1.4664 2.6032 2.1316 0
M  V30 58 H 0.9164 2.8637 3.778 0
M  V30 59 H 3.5278 1.605 2.9533 0
M  V30 60 H 3.1439 2.7266 4.2972 0
M  V30 END ATOM
M  V30 BEGIN BOND
M  V30 1 2 1 2
M  V30 2 1 2 3
M  V30 3 1 2 4
M  V30 4 2 3 5
M  V30 5 1 4 6
M  V30 6 1 5 7
M  V30 7 1 5 8
M  V30 8 1 7 9
M  V30 9 1 7 10
M  V30 10 1 8 11
M  V30 11 1 9 12
M  V30 12 1 9 13
M  V30 13 1 9 14
M  V30 14 1 11 15
M  V30 15 1 13 16
M  V30 16 1 14 17
M  V30 17 2 15 18
M  V30 18 1 15 19
M  V30 19 1 16 20
M  V30 20 1 16 21
M  V30 21 1 19 22
M  V30 22 1 20 23
M  V30 23 1 20 24
M  V30 24 1 21 25
M  V30 25 1 23 26
M  V30 26 1 23 27
M  V30 27 1 26 28
M  V30 28 1 27 29
M  V30 29 2 28 30
M  V30 30 1 6 7
M  V30 31 1 11 13
M  V30 32 1 12 14
M  V30 33 1 17 20
M  V30 34 1 23 25
M  V30 35 1 28 29
M  V30 36 1 3 31
M  V30 37 1 4 32
M  V30 38 1 4 33
M  V30 39 1 6 34
M  V30 40 1 6 35
M  V30 41 1 8 36
M  V30 42 1 8 37
M  V30 43 1 10 38
M  V30 44 1 10 39
M  V30 45 1 10 40
M  V30 46 1 11 41
M  V30 47 1 13 42
M  V30 48 1 14 43
M  V30 49 1 16 44
M  V30 50 1 17 45
M  V30 51 1 17 46
M  V30 52 1 21 47
M  V30 53 1 21 48
M  V30 54 1 22 49
M  V30 55 1 22 50
M  V30 56 1 22 51
M  V30 57 1 24 52
M  V30 58 1 24 53
M  V30 59 1 24 54
M  V30 60 1 25 55
M  V30 61 1 25 56
M  V30 62 1 27 57
M  V30 63 1 27 58
M  V30 64 1 29 59
M  V30 65 1 29 60
M  V30 END BOND
M  V30 END CTAB
M  END
>  <NO.>
5287

>  <Name>
eplerenone

>  <SMILES>
COC(=O)C1CC2=CC(=O)CCC2(C)C23OC2CC2(C)C(CCC24CCC(=O)O4)C13

>  <logBB>


>  <Class>
-1

>  <MW>
414.2

>  <nHBAcc>
6

>  <nHBDon>
0

>  <SLogP>
3.12

>  <TopoPSA>
82.2

>  <MMFF94 Energy>
66.727

$$$$
COC(=O)N[C@H](C(=O)N[C@@H](Cc1ccccc1)[C@@H](O)CN(Cc1ccc(-c2ccccn2)cc1)NC(=O)[C@@H](NC(=O)OC)C(C)(C)C)C(C)(C)C
Actelion Java MolfileCreator 2.0

  0  0  0  0  0  0              0 V3000
M  V30 BEGIN CTAB
M  V30 COUNTS 103 105 0 0 0
M  V30 BEGIN ATOM
M  V30 1 O -1.5754 0.3936 -3.1529 0
M  V30 2 C -0.6225 0.5814 -3.8949 0
M  V30 3 O -0.5781 1.4748 -4.9114 0
M  V30 4 N 0.5679 -0.0683 -3.8248 0
M  V30 5 C -1.7809 2.222 -5.0884 0
M  V30 6 C 0.8887 -1.0103 -2.7595 0 CFG=2
M  V30 7 C 1.5169 -0.184 -1.6129 0
M  V30 8 C 1.7862 -2.1896 -3.2453 0
M  V30 9 O 2.3252 0.7212 -1.8256 0
M  V30 10 N 1.0691 -0.5716 -0.3563 0
M  V30 11 C 1.0908 -2.915 -4.418 0
M  V30 12 C 3.1764 -1.7234 -3.7173 0
M  V30 13 C 1.9759 -3.2158 -2.1107 0
M  V30 14 N 1.4829 0.1286 0.8001 0
M  V30 15 C 2.1753 -0.7459 1.7646 0
M  V30 16 C 0.3233 0.8298 1.393 0
M  V30 17 C 3.4786 -1.3322 1.2551 0
M  V30 18 C -0.8064 -0.0648 1.9818 0 CFG=2
M  V30 19 C 3.8153 -2.6582 1.5505 0
M  V30 20 C 4.3889 -0.5654 0.5192 0
M  V30 21 O -1.2146 -1.0605 1.0172 0
M  V30 22 C -2.0264 0.8023 2.3988 0 CFG=1
M  V30 23 C 5.0173 -3.2082 1.0893 0
M  V30 24 C 5.5876 -1.1215 0.0557 0
M  V30 25 N -2.685 1.3347 1.2027 0
M  V30 26 C -3.0618 0.0221 3.2442 0
M  V30 27 C 5.9327 -2.4556 0.3316 0
M  V30 28 C -3.4375 2.4879 1.2254 0
M  V30 29 C -2.5109 -0.5047 4.5476 0
M  V30 30 C 7.192 -3.0633 -0.1518 0
M  V30 31 O -3.5854 3.1589 2.2458 0
M  V30 32 C -4.0893 2.8561 -0.1268 0 CFG=1
M  V30 33 C -2.3741 -1.8832 4.7608 0
M  V30 34 C -2.1257 0.3819 5.563 0
M  V30 35 N 7.1537 -4.4042 -0.3744 0
M  V30 36 C 8.3599 -2.328 -0.3625 0
M  V30 37 N -5.4895 3.1327 0.1604 0
M  V30 38 C -3.3694 4.0254 -0.8631 0
M  V30 39 C -1.8448 -2.3632 5.96 0
M  V30 40 C -1.5969 -0.1006 6.7607 0
M  V30 41 C 8.2772 -5.0065 -0.8225 0
M  V30 42 C 9.5057 -2.9757 -0.8225 0
M  V30 43 C -6.4379 2.1597 0.1598 0
M  V30 44 C -4.048 4.2515 -2.2312 0
M  V30 45 C -3.4101 5.3504 -0.0784 0
M  V30 46 C -1.8933 3.6592 -1.1183 0
M  V30 47 C -1.4535 -1.4724 6.9577 0
M  V30 48 C 9.4656 -4.3418 -1.0607 0
M  V30 49 O -6.2569 0.9974 -0.1696 0
M  V30 50 O -7.6083 2.6812 0.5982 0
M  V30 51 C -8.6786 1.7381 0.6521 0
M  V30 52 H 1.3119 0.3225 -4.3866 0
M  V30 53 H -2.6406 1.5567 -5.2174 0
M  V30 54 H -1.934 2.8951 -4.2402 0
M  V30 55 H -1.6745 2.8258 -5.9938 0
M  V30 56 H -0.0615 -1.4245 -2.3963 0
M  V30 57 H 0.2843 -1.219 -0.2571 0
M  V30 58 H 1.6623 -3.7953 -4.7342 0
M  V30 59 H 0.9884 -2.2641 -5.2932 0
M  V30 60 H 0.0889 -3.2555 -4.1325 0
M  V30 61 H 3.7687 -2.5704 -4.0831 0
M  V30 62 H 3.7466 -1.2615 -2.9048 0
M  V30 63 H 3.1061 -0.9999 -4.5359 0
M  V30 64 H 1.0114 -3.556 -1.7176 0
M  V30 65 H 2.5206 -4.0995 -2.4628 0
M  V30 66 H 2.5501 -2.7954 -1.2811 0
M  V30 67 H 2.4189 -0.173 2.6686 0
M  V30 68 H 1.5142 -1.5675 2.068 0
M  V30 69 H 0.685 1.5085 2.176 0
M  V30 70 H -0.0927 1.4775 0.6108 0
M  V30 71 H -0.4027 -0.596 2.8495 0
M  V30 72 H 3.1428 -3.2839 2.1324 0
M  V30 73 H 4.153 0.4684 0.2681 0
M  V30 74 H -1.8408 -1.6544 1.469 0
M  V30 75 H -1.6654 1.6549 2.9883 0
M  V30 76 H 5.2423 -4.2474 1.3261 0
M  V30 77 H 6.2338 -0.4918 -0.5509 0
M  V30 78 H -2.6416 0.7765 0.3531 0
M  V30 79 H -3.4872 -0.7996 2.6539 0
M  V30 80 H -3.9164 0.6705 3.4809 0
M  V30 81 H -4.0536 1.9673 -0.7709 0
M  V30 82 H -2.683 -2.5963 4.0003 0
M  V30 83 H -2.2436 1.4565 5.431 0
M  V30 84 H 8.3974 -1.2629 -0.1597 0
M  V30 85 H -5.7516 3.9967 0.6146 0
M  V30 86 H -1.7433 -3.4338 6.1199 0
M  V30 87 H -1.303 0.5945 7.5432 0
M  V30 88 H 8.1909 -6.0762 -0.9899 0
M  V30 89 H 10.4209 -2.4148 -0.989 0
M  V30 90 H -3.525 5.0204 -2.8114 0
M  V30 91 H -5.0869 4.5796 -2.116 0
M  V30 92 H -4.0516 3.3318 -2.8269 0
M  V30 93 H -2.9079 6.1491 -0.6373 0
M  V30 94 H -2.9013 5.2668 0.8869 0
M  V30 95 H -4.4361 5.6844 0.1064 0
M  V30 96 H -1.8079 2.6973 -1.6336 0
M  V30 97 H -1.3994 4.4141 -1.7408 0
M  V30 98 H -1.3273 3.5915 -0.1832 0
M  V30 99 H -1.0457 -1.8473 7.893 0
M  V30 100 H 10.3381 -4.8756 -1.4192 0
M  V30 101 H -8.8916 1.3414 -0.3455 0
M  V30 102 H -8.4423 0.9286 1.3499 0
M  V30 103 H -9.57 2.2576 1.0148 0
M  V30 END ATOM
M  V30 BEGIN BOND
M  V30 1 2 1 2
M  V30 2 1 2 3
M  V30 3 1 2 4
M  V30 4 1 3 5
M  V30 5 1 4 6
M  V30 6 1 6 7
M  V30 7 1 6 8
M  V30 8 2 7 9
M  V30 9 1 7 10
M  V30 10 1 8 11
M  V30 11 1 8 12
M  V30 12 1 8 13
M  V30 13 1 10 14
M  V30 14 1 14 15
M  V30 15 1 14 16
M  V30 16 1 15 17
M  V30 17 1 16 18
M  V30 18 2 17 19
M  V30 19 1 17 20
M  V30 20 1 18 21
M  V30 21 1 18 22
M  V30 22 1 19 23
M  V30 23 2 20 24
M  V30 24 1 22 25
M  V30 25 1 22 26
M  V30 26 2 23 27
M  V30 27 1 25 28
M  V30 28 1 26 29
M  V30 29 1 27 30
M  V30 30 2 28 31
M  V30 31 1 28 32
M  V30 32 2 29 33
M  V30 33 1 29 34
M  V30 34 2 30 35
M  V30 35 1 30 36
M  V30 36 1 32 37
M  V30 37 1 32 38
M  V30 38 1 33 39
M  V30 39 2 34 40
M  V30 40 1 35 41
M  V30 41 2 36 42
M  V30 42 1 37 43
M  V30 43 1 38 44
M  V30 44 1 38 45
M  V30 45 1 38 46
M  V30 46 2 39 47
M  V30 47 2 41 48
M  V30 48 2 43 49
M  V30 49 1 43 50
M  V30 50 1 50 51
M  V30 51 1 24 27
M  V30 52 1 40 47
M  V30 53 1 42 48
M  V30 54 1 4 52
M  V30 55 1 5 53
M  V30 56 1 5 54
M  V30 57 1 5 55
M  V30 58 1 6 56
M  V30 59 1 10 57
M  V30 60 1 11 58
M  V30 61 1 11 59
M  V30 62 1 11 60
M  V30 63 1 12 61
M  V30 64 1 12 62
M  V30 65 1 12 63
M  V30 66 1 13 64
M  V30 67 1 13 65
M  V30 68 1 13 66
M  V30 69 1 15 67
M  V30 70 1 15 68
M  V30 71 1 16 69
M  V30 72 1 16 70
M  V30 73 1 18 71
M  V30 74 1 19 72
M  V30 75 1 20 73
M  V30 76 1 21 74
M  V30 77 1 22 75
M  V30 78 1 23 76
M  V30 79 1 24 77
M  V30 80 1 25 78
M  V30 81 1 26 79
M  V30 82 1 26 80
M  V30 83 1 32 81
M  V30 84 1 33 82
M  V30 85 1 34 83
M  V30 86 1 36 84
M  V30 87 1 37 85
M  V30 88 1 39 86
M  V30 89 1 40 87
M  V30 90 1 41 88
M  V30 91 1 42 89
M  V30 92 1 44 90
M  V30 93 1 44 91
M  V30 94 1 44 92
M  V30 95 1 45 93
M  V30 96 1 45 94
M  V30 97 1 45 95
M  V30 98 1 46 96
M  V30 99 1 46 97
M  V30 100 1 46 98
M  V30 101 1 47 99
M  V30 102 1 48 100
M  V30 103 1 51 101
M  V30 104 1 51 102
M  V30 105 1 51 103
M  V30 END BOND
M  V30 BEGIN COLLECTION
M  V30 MDLV30/STEABS ATOMS=(4 6 18 22 32)
M  V30 END COLLECTION
M  V30 END CTAB
M  END
>  <NO.>
5288

>  <Name>
atazanavir

>  <SMILES>
COC(=O)N[C@H](C(=O)N[C@@H](Cc1ccccc1)[C@@H](O)CN(Cc1ccc(-c2ccccn2)cc1)NC(=O)[C@@H](NC(=O)OC)C(C)(C)C)C(C)(C)C

>  <logBB>


>  <Class>
-1

>  <MW>
704.39

>  <nHBAcc>
9

>  <nHBDon>
5

>  <SLogP>
4.21

>  <TopoPSA>
171.22

>  <MMFF94 Energy>
82.359

$$$$
COC12CC(COC(=O)c3cncc(Br)c3)CN(C)C1Cc1cn(C)c3cccc2c13
Actelion Java MolfileCreator 2.0

  0  0  0  0  0  0              0 V3000
M  V30 BEGIN CTAB
M  V30 COUNTS 57 61 0 0 0
M  V30 BEGIN ATOM
M  V30 1 Br 3.8975 1.5414 6.8282 0
M  V30 2 C 4.8881 1.8037 5.2455 0
M  V30 3 C 6.2263 2.165 5.3 0
M  V30 4 C 4.2877 1.6372 4.0008 0
M  V30 5 N 6.9923 2.3676 4.2017 0
M  V30 6 C 5.0519 1.8387 2.8469 0
M  V30 7 C 6.3863 2.2 2.999 0
M  V30 8 C 4.5188 1.688 1.4764 0
M  V30 9 O 5.1815 1.8729 0.4693 0
M  V30 10 O 3.2162 1.3178 1.516 0
M  V30 11 C 2.6047 1.1491 0.2287 0
M  V30 12 C 1.1426 0.7239 0.4178 0
M  V30 13 C 1.0551 -0.6323 1.1328 0
M  V30 14 C 0.4319 0.662 -0.9397 0
M  V30 15 N -0.3338 -1.0749 1.3313 0
M  V30 16 C -1.0431 0.2331 -0.7889 0
M  V30 17 C -1.0641 -1.1667 0.0261 0
M  V30 18 C -0.3434 -2.3345 2.0775 0
M  V30 19 O -1.7724 1.1799 0.0283 0
M  V30 20 C -1.7387 0.0306 -2.1366 0
M  V30 21 C -2.5435 -1.6974 0.1915 0
M  V30 22 C -2.0186 2.464 -0.5181 0
M  V30 23 C -2.7812 -0.9058 -2.1783 0
M  V30 24 C -1.4722 0.7132 -3.3344 0
M  V30 25 C -3.2264 -1.7444 -1.1367 0
M  V30 26 C -3.523 -1.1603 -3.3181 0
M  V30 27 C -2.2185 0.4576 -4.4941 0
M  V30 28 C -4.266 -2.4921 -1.6397 0
M  V30 29 N -4.4414 -2.1268 -2.9584 0
M  V30 30 C -3.2617 -0.4812 -4.512 0
M  V30 31 C -5.4402 -2.6852 -3.8413 0
M  V30 32 H 6.7395 2.3072 6.2473 0
M  V30 33 H 3.2402 1.3558 3.9347 0
M  V30 34 H 7.0298 2.3708 2.1382 0
M  V30 35 H 3.1544 0.3897 -0.3409 0
M  V30 36 H 2.6472 2.1033 -0.3103 0
M  V30 37 H 0.6542 1.4748 1.0543 0
M  V30 38 H 1.5393 -0.5394 2.1133 0
M  V30 39 H 1.6185 -1.3879 0.5682 0
M  V30 40 H 0.9577 -0.0445 -1.5969 0
M  V30 41 H 0.5133 1.6446 -1.4173 0
M  V30 42 H -0.5328 -1.9055 -0.5964 0
M  V30 43 H 0.2642 -2.2524 2.9866 0
M  V30 44 H 0.0451 -3.1687 1.4829 0
M  V30 45 H -1.3509 -2.5833 2.4244 0
M  V30 46 H -2.5437 -2.7104 0.6083 0
M  V30 47 H -3.1068 -1.0494 0.8736 0
M  V30 48 H -2.4764 3.0767 0.2643 0
M  V30 49 H -1.0969 2.9594 -0.8308 0
M  V30 50 H -2.7277 2.4114 -1.3482 0
M  V30 51 H -0.6887 1.4649 -3.3793 0
M  V30 52 H -1.9882 1.0071 -5.4051 0
M  V30 53 H -4.8865 -3.2497 -1.1793 0
M  V30 54 H -3.833 -0.6656 -5.4148 0
M  V30 55 H -4.9297 -3.1714 -4.6764 0
M  V30 56 H -6.0421 -3.4178 -3.2975 0
M  V30 57 H -6.0793 -1.8733 -4.1979 0
M  V30 END ATOM
M  V30 BEGIN BOND
M  V30 1 1 1 2
M  V30 2 2 2 3
M  V30 3 1 2 4
M  V30 4 1 3 5
M  V30 5 2 4 6
M  V30 6 2 5 7
M  V30 7 1 6 8
M  V30 8 2 8 9
M  V30 9 1 8 10
M  V30 10 1 10 11
M  V30 11 1 11 12
M  V30 12 1 12 13
M  V30 13 1 12 14
M  V30 14 1 13 15
M  V30 15 1 14 16
M  V30 16 1 15 17
M  V30 17 1 15 18
M  V30 18 1 16 19
M  V30 19 1 16 20
M  V30 20 1 17 21
M  V30 21 1 19 22
M  V30 22 2 20 23
M  V30 23 1 20 24
M  V30 24 1 21 25
M  V30 25 1 23 26
M  V30 26 2 24 27
M  V30 27 2 25 28
M  V30 28 1 26 29
M  V30 29 2 26 30
M  V30 30 1 29 31
M  V30 31 1 6 7
M  V30 32 1 16 17
M  V30 33 1 23 25
M  V30 34 1 27 30
M  V30 35 1 28 29
M  V30 36 1 3 32
M  V30 37 1 4 33
M  V30 38 1 7 34
M  V30 39 1 11 35
M  V30 40 1 11 36
M  V30 41 1 12 37
M  V30 42 1 13 38
M  V30 43 1 13 39
M  V30 44 1 14 40
M  V30 45 1 14 41
M  V30 46 1 17 42
M  V30 47 1 18 43
M  V30 48 1 18 44
M  V30 49 1 18 45
M  V30 50 1 21 46
M  V30 51 1 21 47
M  V30 52 1 22 48
M  V30 53 1 22 49
M  V30 54 1 22 50
M  V30 55 1 24 51
M  V30 56 1 27 52
M  V30 57 1 28 53
M  V30 58 1 30 54
M  V30 59 1 31 55
M  V30 60 1 31 56
M  V30 61 1 31 57
M  V30 END BOND
M  V30 END CTAB
M  END
>  <NO.>
5289

>  <Name>
sermion

>  <SMILES>
COC12CC(COC(=O)c3cncc(Br)c3)CN(C)C1Cc1cn(C)c3cccc2c13

>  <logBB>


>  <Class>
1

>  <MW>
483.12

>  <nHBAcc>
5

>  <nHBDon>
0

>  <SLogP>
3.91

>  <TopoPSA>
56.59

>  <MMFF94 Energy>
121.75

$$$$
COC1=C(OC)C(=O)C(CCCCCCCCCCO)=C(C)C1=O
Actelion Java MolfileCreator 2.0

  0  0  0  0  0  0              0 V3000
M  V30 BEGIN CTAB
M  V30 COUNTS 54 54 0 0 0
M  V30 BEGIN ATOM
M  V30 1 O -3.6097 1.8036 -1.0975 0
M  V30 2 C -3.7017 0.7522 -1.7249 0
M  V30 3 C -5.0038 0.0336 -1.8469 0
M  V30 4 C -2.4974 0.1611 -2.3834 0
M  V30 5 O -6.1486 0.5574 -1.251 0
M  V30 6 C -5.1039 -1.0736 -2.5945 0
M  V30 7 C -2.5948 -0.979 -3.0918 0
M  V30 8 C -1.2215 0.9568 -2.2065 0
M  V30 9 C -6.0069 0.7631 0.1525 0
M  V30 10 O -6.3214 -1.7423 -2.6862 0
M  V30 11 C -3.9071 -1.6697 -3.2499 0
M  V30 12 C -1.4505 -1.6852 -3.7669 0
M  V30 13 C -0.4998 0.5932 -0.9042 0
M  V30 14 C -6.8686 -1.6515 -3.9998 0
M  V30 15 O -3.9882 -2.7033 -3.9079 0
M  V30 16 C 0.7931 1.3973 -0.7475 0
M  V30 17 C 1.4993 1.1653 0.5925 0
M  V30 18 C 2.0546 -0.2528 0.7484 0
M  V30 19 C 2.7656 -0.4828 2.0863 0
M  V30 20 C 4.0652 0.312 2.2316 0
M  V30 21 C 4.7914 -0.0467 3.5303 0
M  V30 22 C 6.0881 0.7461 3.679 0
M  V30 23 C 6.8165 0.3959 4.9688 0
M  V30 24 O 8.01 1.1632 5.0448 0
M  V30 25 H -1.4421 2.0318 -2.2247 0
M  V30 26 H -0.5485 0.8058 -3.0583 0
M  V30 27 H -5.4109 -0.0248 0.6261 0
M  V30 28 H -7.0077 0.7406 0.5948 0
M  V30 29 H -5.5784 1.748 0.3569 0
M  V30 30 H -1.5579 -1.6252 -4.8549 0
M  V30 31 H -1.4268 -2.7418 -3.4777 0
M  V30 32 H -0.4722 -1.2762 -3.5036 0
M  V30 33 H -0.2756 -0.4794 -0.9036 0
M  V30 34 H -1.1555 0.7861 -0.0462 0
M  V30 35 H -6.9061 -0.6115 -4.3429 0
M  V30 36 H -7.8937 -2.0321 -3.9617 0
M  V30 37 H -6.3099 -2.2664 -4.7107 0
M  V30 38 H 0.5594 2.4664 -0.8276 0
M  V30 39 H 1.4788 1.1616 -1.5704 0
M  V30 40 H 0.8087 1.3863 1.4153 0
M  V30 41 H 2.3184 1.8896 0.663 0
M  V30 42 H 2.7416 -0.4759 -0.0765 0
M  V30 43 H 1.2344 -0.9763 0.6827 0
M  V30 44 H 2.9919 -1.5531 2.1711 0
M  V30 45 H 2.0859 -0.238 2.9116 0
M  V30 46 H 3.8522 1.3867 2.2275 0
M  V30 47 H 4.7199 0.106 1.3764 0
M  V30 48 H 5.0149 -1.1204 3.5423 0
M  V30 49 H 4.1358 0.1569 4.3858 0
M  V30 50 H 5.8791 1.8232 3.6612 0
M  V30 51 H 6.7499 0.5554 2.8249 0
M  V30 52 H 6.1979 0.6268 5.842 0
M  V30 53 H 7.083 -0.6655 4.9912 0
M  V30 54 H 8.4519 0.9216 5.8766 0
M  V30 END ATOM
M  V30 BEGIN BOND
M  V30 1 2 1 2
M  V30 2 1 2 3
M  V30 3 1 2 4
M  V30 4 1 3 5
M  V30 5 2 3 6
M  V30 6 2 4 7
M  V30 7 1 4 8
M  V30 8 1 5 9
M  V30 9 1 6 10
M  V30 10 1 6 11
M  V30 11 1 7 12
M  V30 12 1 8 13
M  V30 13 1 10 14
M  V30 14 2 11 15
M  V30 15 1 13 16
M  V30 16 1 16 17
M  V30 17 1 17 18
M  V30 18 1 18 19
M  V30 19 1 19 20
M  V30 20 1 20 21
M  V30 21 1 21 22
M  V30 22 1 22 23
M  V30 23 1 23 24
M  V30 24 1 7 11
M  V30 25 1 8 25
M  V30 26 1 8 26
M  V30 27 1 9 27
M  V30 28 1 9 28
M  V30 29 1 9 29
M  V30 30 1 12 30
M  V30 31 1 12 31
M  V30 32 1 12 32
M  V30 33 1 13 33
M  V30 34 1 13 34
M  V30 35 1 14 35
M  V30 36 1 14 36
M  V30 37 1 14 37
M  V30 38 1 16 38
M  V30 39 1 16 39
M  V30 40 1 17 40
M  V30 41 1 17 41
M  V30 42 1 18 42
M  V30 43 1 18 43
M  V30 44 1 19 44
M  V30 45 1 19 45
M  V30 46 1 20 46
M  V30 47 1 20 47
M  V30 48 1 21 48
M  V30 49 1 21 49
M  V30 50 1 22 50
M  V30 51 1 22 51
M  V30 52 1 23 52
M  V30 53 1 23 53
M  V30 54 1 24 54
M  V30 END BOND
M  V30 END CTAB
M  END
>  <NO.>
5290

>  <Name>
idebenone

>  <SMILES>
COC1=C(OC)C(=O)C(CCCCCCCCCCO)=C(C)C1=O

>  <logBB>


>  <Class>
1

>  <MW>
338.21

>  <nHBAcc>
5

>  <nHBDon>
1

>  <SLogP>
3.46

>  <TopoPSA>
72.83

>  <MMFF94 Energy>
62.265

$$$$
CON=C1CN(c2nc3c(cc2F)c(=O)c(C(=O)O)cn3C2CC2)CC1CN
Actelion Java MolfileCreator 2.0

  0  0  0  0  0  0              0 V3000
M  V30 BEGIN CTAB
M  V30 COUNTS 48 51 0 0 0
M  V30 BEGIN ATOM
M  V30 1 F -0.1605 -3.2961 -0.8031 0
M  V30 2 C 0.5884 -2.2091 -0.5606 0
M  V30 3 C 0.0077 -0.9479 -0.3739 0
M  V30 4 C 1.9652 -2.3693 -0.5004 0
M  V30 5 N 0.7984 0.127 -0.129 0
M  V30 6 N -1.3456 -0.7284 -0.4146 0
M  V30 7 C 2.7565 -1.2536 -0.2463 0
M  V30 8 C 2.1474 -0.0139 -0.0561 0
M  V30 9 C -2.3294 -1.703 -0.8553 0
M  V30 10 C -1.8965 0.6195 -0.2851 0
M  V30 11 C 4.2299 -1.3781 -0.1789 0
M  V30 12 N 2.9673 1.1148 0.2175 0
M  V30 13 C -3.6148 -0.9095 -0.8069 0
M  V30 14 C -3.4198 0.4583 -0.2081 0 CFG=1
M  V30 15 O 4.7382 -2.4885 -0.2822 0
M  V30 16 C 5.0321 -0.1414 0.019 0
M  V30 17 C 4.3419 0.9972 0.1972 0
M  V30 18 C 2.3503 2.4407 0.3882 0
M  V30 19 N -4.7869 -1.3061 -1.1997 0
M  V30 20 C -3.9578 0.4677 1.2216 0
M  V30 21 C 6.5068 -0.1474 0.0013 0
M  V30 22 C 1.415 2.7332 1.5351 0
M  V30 23 C 2.7586 3.391 1.4876 0
M  V30 24 O -4.7151 -2.6136 -1.7 0
M  V30 25 N -3.8763 1.801 1.8209 0
M  V30 26 O 7.2361 -1.0534 -0.3551 0
M  V30 27 O 7.049 1.0095 0.4343 0
M  V30 28 C -6.015 -3.0039 -2.1285 0
M  V30 29 H 2.4017 -3.3519 -0.6497 0
M  V30 30 H -2.4026 -2.5494 -0.166 0
M  V30 31 H -2.1417 -2.0366 -1.8804 0
M  V30 32 H -1.6358 1.2035 -1.1769 0
M  V30 33 H -1.4982 1.1439 0.5908 0
M  V30 34 H -3.9285 1.2115 -0.8204 0
M  V30 35 H 4.8522 1.9468 0.3383 0
M  V30 36 H 2.0858 2.883 -0.5699 0
M  V30 37 H -3.3982 -0.238 1.8472 0
M  V30 38 H -5.004 0.1401 1.2383 0
M  V30 39 H 1.2495 1.9537 2.2699 0
M  V30 40 H 0.5362 3.3304 1.3224 0
M  V30 41 H 2.7978 4.4479 1.2518 0
M  V30 42 H 3.4932 3.0699 2.2162 0
M  V30 43 H -4.2145 1.7532 2.7828 0
M  V30 44 H -4.5165 2.4308 1.336 0
M  V30 45 H 8.0135 0.8389 0.3705 0
M  V30 46 H -6.3664 -2.3403 -2.9245 0
M  V30 47 H -6.7128 -2.9859 -1.2856 0
M  V30 48 H -5.9586 -4.0236 -2.5183 0
M  V30 END ATOM
M  V30 BEGIN BOND
M  V30 1 1 1 2
M  V30 2 2 2 3
M  V30 3 1 2 4
M  V30 4 1 3 5
M  V30 5 1 3 6
M  V30 6 2 4 7
M  V30 7 2 5 8
M  V30 8 1 6 9
M  V30 9 1 6 10
M  V30 10 1 7 11
M  V30 11 1 8 12
M  V30 12 1 9 13
M  V30 13 1 10 14
M  V30 14 2 11 15
M  V30 15 1 11 16
M  V30 16 1 12 17
M  V30 17 1 12 18
M  V30 18 2 13 19
M  V30 19 1 14 20
M  V30 20 1 16 21
M  V30 21 1 18 22
M  V30 22 1 18 23
M  V30 23 1 19 24
M  V30 24 1 20 25
M  V30 25 2 21 26
M  V30 26 1 21 27
M  V30 27 1 24 28
M  V30 28 1 7 8
M  V30 29 1 13 14
M  V30 30 2 16 17
M  V30 31 1 22 23
M  V30 32 1 4 29
M  V30 33 1 9 30
M  V30 34 1 9 31
M  V30 35 1 10 32
M  V30 36 1 10 33
M  V30 37 1 14 34
M  V30 38 1 17 35
M  V30 39 1 18 36
M  V30 40 1 20 37
M  V30 41 1 20 38
M  V30 42 1 22 39
M  V30 43 1 22 40
M  V30 44 1 23 41
M  V30 45 1 23 42
M  V30 46 1 25 43
M  V30 47 1 25 44
M  V30 48 1 27 45
M  V30 49 1 28 46
M  V30 50 1 28 47
M  V30 51 1 28 48
M  V30 END BOND
M  V30 BEGIN COLLECTION
M  V30 MDLV30/STERAC1 ATOMS=(1 14)
M  V30 END COLLECTION
M  V30 END CTAB
M  END
>  <NO.>
5294

>  <Name>
gemifloxacin

>  <SMILES>
CON=C1CN(c2nc3c(cc2F)c(=O)c(C(=O)O)cn3C2CC2)CC1CN

>  <logBB>


>  <Class>
-1

>  <MW>
389.15

>  <nHBAcc>
7

>  <nHBDon>
2

>  <SLogP>
0.97

>  <TopoPSA>
123.04

>  <MMFF94 Energy>
36.668

$$$$
COc1c(C)c2c(c(O)c1CC=C(C)CCC(=O)O)C(=O)OC2
Actelion Java MolfileCreator 2.0

  0  0  0  0  0  0              0 V3000
M  V30 BEGIN CTAB
M  V30 COUNTS 43 44 0 0 0
M  V30 BEGIN ATOM
M  V30 1 O 1.662 -1.7412 -4.5161 0
M  V30 2 C 1.0648 -2.3587 -3.655 0
M  V30 3 O 0.3668 -3.5208 -3.7926 0
M  V30 4 C 0.9772 -1.9692 -2.2605 0
M  V30 5 C -0.197 -3.9536 -2.5356 0
M  V30 6 C 1.5369 -0.8614 -1.6501 0
M  V30 7 C 0.2289 -2.9076 -1.5807 0
M  V30 8 O 2.2837 0.0403 -2.3537 0
M  V30 9 C 1.3206 -0.6748 -0.279 0
M  V30 10 C -0.005 -2.7722 -0.2174 0
M  V30 11 C 0.513 -1.618 0.4115 0
M  V30 12 C 1.9136 0.5238 0.4358 0
M  V30 13 C -0.812 -3.7924 0.5288 0
M  V30 14 O 0.2889 -1.4292 1.7552 0
M  V30 15 C 1.0171 1.7363 0.3618 0
M  V30 16 C -0.9706 -0.7874 1.9683 0
M  V30 17 C 0.6296 2.5563 1.361 0
M  V30 18 C -0.3169 3.7353 1.1673 0
M  V30 19 C 1.1016 2.4183 2.788 0
M  V30 20 C -1.1036 3.8415 -0.1389 0
M  V30 21 C -2.1395 2.7618 -0.2734 0
M  V30 22 O -2.1855 1.903 -1.1383 0
M  V30 23 O -3.1061 2.8375 0.6619 0
M  V30 24 H -1.2846 -4.0029 -2.6379 0
M  V30 25 H 0.2167 -4.9352 -2.2887 0
M  V30 26 H 2.3157 -0.2366 -3.2946 0
M  V30 27 H 2.8798 0.778 -0.0174 0
M  V30 28 H 2.1537 0.2374 1.4633 0
M  V30 29 H -0.4932 -3.8677 1.5733 0
M  V30 30 H -0.6873 -4.7893 0.0938 0
M  V30 31 H -1.8733 -3.5278 0.4971 0
M  V30 32 H 0.6703 1.9294 -0.652 0
M  V30 33 H -0.9172 -0.2525 2.921 0
M  V30 34 H -1.7631 -1.5375 2.0471 0
M  V30 35 H -1.2234 -0.0654 1.1841 0
M  V30 36 H 0.2774 4.6518 1.2771 0
M  V30 37 H -1.0335 3.732 1.9994 0
M  V30 38 H 0.2656 2.1306 3.4337 0
M  V30 39 H 1.8963 1.6823 2.9206 0
M  V30 40 H 1.4981 3.3753 3.1449 0
M  V30 41 H -1.6277 4.8041 -0.1811 0
M  V30 42 H -0.4441 3.8187 -1.0128 0
M  V30 43 H -3.7177 2.11 0.4236 0
M  V30 END ATOM
M  V30 BEGIN BOND
M  V30 1 2 1 2
M  V30 2 1 2 3
M  V30 3 1 2 4
M  V30 4 1 3 5
M  V30 5 2 4 6
M  V30 6 1 4 7
M  V30 7 1 6 8
M  V30 8 1 6 9
M  V30 9 2 7 10
M  V30 10 2 9 11
M  V30 11 1 9 12
M  V30 12 1 10 13
M  V30 13 1 11 14
M  V30 14 1 12 15
M  V30 15 1 14 16
M  V30 16 2 15 17
M  V30 17 1 17 18
M  V30 18 1 17 19
M  V30 19 1 18 20
M  V30 20 1 20 21
M  V30 21 2 21 22
M  V30 22 1 21 23
M  V30 23 1 5 7
M  V30 24 1 10 11
M  V30 25 1 5 24
M  V30 26 1 5 25
M  V30 27 1 8 26
M  V30 28 1 12 27
M  V30 29 1 12 28
M  V30 30 1 13 29
M  V30 31 1 13 30
M  V30 32 1 13 31
M  V30 33 1 15 32
M  V30 34 1 16 33
M  V30 35 1 16 34
M  V30 36 1 16 35
M  V30 37 1 18 36
M  V30 38 1 18 37
M  V30 39 1 19 38
M  V30 40 1 19 39
M  V30 41 1 19 40
M  V30 42 1 20 41
M  V30 43 1 20 42
M  V30 44 1 23 43
M  V30 END BOND
M  V30 END CTAB
M  END
>  <NO.>
5296

>  <Name>
mycophenolic acid (unspecified stereochemistry)

>  <SMILES>
COc1c(C)c2c(c(O)c1CC=C(C)CCC(=O)O)C(=O)OC2

>  <logBB>


>  <Class>
-1

>  <MW>
320.13

>  <nHBAcc>
5

>  <nHBDon>
2

>  <SLogP>
2.73

>  <TopoPSA>
93.06

>  <MMFF94 Energy>
22.186

$$$$
COc1c(C)c2c(c(O)c1CC=C(C)CCC(=O)OCCN1CCOCC1)C(=O)OC2
Actelion Java MolfileCreator 2.0

  0  0  0  0  0  0              0 V3000
M  V30 BEGIN CTAB
M  V30 COUNTS 62 64 0 0 0
M  V30 BEGIN ATOM
M  V30 1 O -3.5744 6.5207 2.2229 0
M  V30 2 C -3.3514 6.4694 1.0284 0
M  V30 3 O -4.057 7.0546 0.0204 0
M  V30 4 C -2.2475 5.7526 0.4186 0
M  V30 5 C -3.4873 6.753 -1.2717 0
M  V30 6 C -1.2697 5.0025 1.048 0
M  V30 7 C -2.3118 5.9149 -0.9494 0
M  V30 8 O -1.2512 4.8559 2.4057 0
M  V30 9 C -0.2863 4.3929 0.2593 0
M  V30 10 C -1.3667 5.32 -1.776 0
M  V30 11 C -0.3296 4.5946 -1.1476 0
M  V30 12 C 0.7563 3.4935 0.8902 0
M  V30 13 C -1.4398 5.481 -3.2656 0
M  V30 14 O 0.6314 3.9963 -1.9299 0
M  V30 15 C 0.3784 2.0366 0.8052 0
M  V30 16 C 1.7042 4.9065 -2.1849 0
M  V30 17 C 0.0555 1.192 1.8059 0
M  V30 18 C -0.2995 -0.2512 1.4963 0
M  V30 19 C -0.0334 1.5752 3.2591 0
M  V30 20 C 0.8021 -1.2231 1.9142 0
M  V30 21 C 0.4546 -2.6418 1.5369 0
M  V30 22 O -0.5979 -3.0088 1.0354 0
M  V30 23 O 1.5003 -3.4608 1.8455 0
M  V30 24 C 1.298 -4.8574 1.5588 0
M  V30 25 C 1.5701 -5.1508 0.0746 0
M  V30 26 N 1.5564 -6.5868 -0.2585 0
M  V30 27 C 0.1885 -7.1512 -0.1892 0
M  V30 28 C 2.0754 -6.7935 -1.6302 0
M  V30 29 C 0.1631 -8.6225 -0.6375 0
M  V30 30 C 2.0129 -8.2732 -2.0388 0
M  V30 31 O 0.6712 -8.7716 -1.9693 0
M  V30 32 H -4.2326 6.2144 -1.8633 0
M  V30 33 H -3.2061 7.6911 -1.758 0
M  V30 34 H -2.0204 5.3288 2.7902 0
M  V30 35 H 0.961 3.8121 1.9165 0
M  V30 36 H 1.7182 3.627 0.3811 0
M  V30 37 H -0.9136 6.3904 -3.571 0
M  V30 38 H -2.4793 5.5477 -3.6032 0
M  V30 39 H -0.9998 4.6233 -3.7841 0
M  V30 40 H 0.3912 1.6477 -0.2137 0
M  V30 41 H 1.3943 5.6918 -2.8813 0
M  V30 42 H 2.516 4.3416 -2.6523 0
M  V30 43 H 2.09 5.3544 -1.2624 0
M  V30 44 H -0.5005 -0.3716 0.4233 0
M  V30 45 H -1.2418 -0.5064 1.9985 0
M  V30 46 H 0.1021 2.6432 3.4383 0
M  V30 47 H 0.7291 1.0473 3.84 0
M  V30 48 H -1.0177 1.3085 3.6586 0
M  V30 49 H 1.7416 -0.9567 1.4161 0
M  V30 50 H 0.9516 -1.191 2.9989 0
M  V30 51 H 0.293 -5.1628 1.8712 0
M  V30 52 H 2.0091 -5.4096 2.1834 0
M  V30 53 H 0.8691 -4.5917 -0.5583 0
M  V30 54 H 2.562 -4.7373 -0.1528 0
M  V30 55 H -0.1938 -7.1032 0.8354 0
M  V30 56 H -0.4871 -6.573 -0.833 0
M  V30 57 H 1.4876 -6.2024 -2.3449 0
M  V30 58 H 3.1174 -6.4584 -1.6884 0
M  V30 59 H -0.8673 -8.9919 -0.6342 0
M  V30 60 H 0.7448 -9.2548 0.0441 0
M  V30 61 H 2.354 -8.3862 -3.0727 0
M  V30 62 H 2.6622 -8.8894 -1.405 0
M  V30 END ATOM
M  V30 BEGIN BOND
M  V30 1 2 1 2
M  V30 2 1 2 3
M  V30 3 1 2 4
M  V30 4 1 3 5
M  V30 5 2 4 6
M  V30 6 1 4 7
M  V30 7 1 6 8
M  V30 8 1 6 9
M  V30 9 2 7 10
M  V30 10 2 9 11
M  V30 11 1 9 12
M  V30 12 1 10 13
M  V30 13 1 11 14
M  V30 14 1 12 15
M  V30 15 1 14 16
M  V30 16 2 15 17
M  V30 17 1 17 18
M  V30 18 1 17 19
M  V30 19 1 18 20
M  V30 20 1 20 21
M  V30 21 2 21 22
M  V30 22 1 21 23
M  V30 23 1 23 24
M  V30 24 1 24 25
M  V30 25 1 25 26
M  V30 26 1 26 27
M  V30 27 1 26 28
M  V30 28 1 27 29
M  V30 29 1 28 30
M  V30 30 1 29 31
M  V30 31 1 5 7
M  V30 32 1 10 11
M  V30 33 1 30 31
M  V30 34 1 5 32
M  V30 35 1 5 33
M  V30 36 1 8 34
M  V30 37 1 12 35
M  V30 38 1 12 36
M  V30 39 1 13 37
M  V30 40 1 13 38
M  V30 41 1 13 39
M  V30 42 1 15 40
M  V30 43 1 16 41
M  V30 44 1 16 42
M  V30 45 1 16 43
M  V30 46 1 18 44
M  V30 47 1 18 45
M  V30 48 1 19 46
M  V30 49 1 19 47
M  V30 50 1 19 48
M  V30 51 1 20 49
M  V30 52 1 20 50
M  V30 53 1 24 51
M  V30 54 1 24 52
M  V30 55 1 25 53
M  V30 56 1 25 54
M  V30 57 1 27 55
M  V30 58 1 27 56
M  V30 59 1 28 57
M  V30 60 1 28 58
M  V30 61 1 29 59
M  V30 62 1 29 60
M  V30 63 1 30 61
M  V30 64 1 30 62
M  V30 END BOND
M  V30 END CTAB
M  END
>  <NO.>
5297

>  <Name>
mycophenolate mofetil

>  <SMILES>
COc1c(C)c2c(c(O)c1CC=C(C)CCC(=O)OCCN1CCOCC1)C(=O)OC2

>  <logBB>


>  <Class>
-1

>  <MW>
433.21

>  <nHBAcc>
8

>  <nHBDon>
1

>  <SLogP>
2.52

>  <TopoPSA>
94.53

>  <MMFF94 Energy>
110.07

$$$$
COc1c(N2CC3CCCNC3C2)c(F)cc2c(=O)c(C(=O)O)cn(C3CC3)c12
Actelion Java MolfileCreator 2.0

  0  0  0  0  0  0              0 V3000
M  V30 BEGIN CTAB
M  V30 COUNTS 53 57 0 0 0
M  V30 BEGIN ATOM
M  V30 1 F -1.7736 -1.3703 2.9035 0
M  V30 2 C -0.9338 -0.4687 2.369 0
M  V30 3 C -0.6535 -0.4718 0.9898 0
M  V30 4 C -0.3933 0.4651 3.242 0
M  V30 5 N -1.2765 -1.3584 0.1278 0
M  V30 6 C 0.2992 0.4993 0.5525 0
M  V30 7 C 0.44 1.4713 2.7537 0
M  V30 8 C -1.979 -2.5741 0.5559 0
M  V30 9 C -1.5241 -1.0916 -1.2937 0
M  V30 10 O 0.7893 0.3994 -0.7365 0
M  V30 11 C 0.7996 1.5349 1.3919 0
M  V30 12 C 0.9487 2.4766 3.7205 0
M  V30 13 C -2.4215 -3.2545 -0.7646 0
M  V30 14 C -2.6912 -2.0285 -1.6455 0
M  V30 15 C 1.777 -0.641 -0.7825 0
M  V30 16 N 1.6169 2.6349 0.9573 0
M  V30 17 O 0.7968 2.2992 4.9242 0
M  V30 18 C 1.6472 3.6532 3.172 0
M  V30 19 N -1.3712 -4.1293 -1.3199 0
M  V30 20 C -2.8274 -2.3566 -3.1295 0
M  V30 21 C 1.9254 3.6392 1.8618 0
M  V30 22 C 1.9315 2.8789 -0.4706 0
M  V30 23 C 2.0488 4.833 3.9457 0
M  V30 24 C -1.6848 -4.557 -2.6784 0
M  V30 25 C -1.778 -3.3535 -3.6114 0
M  V30 26 C 3.0835 3.7347 -0.9574 0
M  V30 27 C 3.139 2.2541 -1.1277 0
M  V30 28 O 2.9649 5.5892 3.6663 0
M  V30 29 O 1.2541 5.0762 4.998 0
M  V30 30 H -0.6588 0.4157 4.2949 0
M  V30 31 H -2.8759 -2.313 1.1301 0
M  V30 32 H -1.3416 -3.2298 1.1594 0
M  V30 33 H -0.6414 -1.326 -1.8944 0
M  V30 34 H -1.8156 -0.0505 -1.4729 0
M  V30 35 H -3.3314 -3.8444 -0.6033 0
M  V30 36 H -3.6231 -1.5495 -1.3119 0
M  V30 37 H 2.584 -0.4553 -0.065 0
M  V30 38 H 2.2082 -0.6441 -1.7879 0
M  V30 39 H 1.344 -1.6301 -0.6033 0
M  V30 40 H -1.2482 -4.9404 -0.715 0
M  V30 41 H -3.8195 -2.7954 -3.2971 0
M  V30 42 H -2.7822 -1.4419 -3.7314 0
M  V30 43 H 2.425 4.4967 1.4196 0
M  V30 44 H 1.0232 2.9603 -1.0663 0
M  V30 45 H -2.6185 -5.132 -2.6941 0
M  V30 46 H -0.8909 -5.2229 -3.0332 0
M  V30 47 H -0.8004 -2.8608 -3.6796 0
M  V30 48 H -2.0303 -3.6898 -4.6236 0
M  V30 49 H 3.793 4.1641 -0.2614 0
M  V30 50 H 2.917 4.3418 -1.8401 0
M  V30 51 H 3.0164 1.8532 -2.1265 0
M  V30 52 H 3.8322 1.7029 -0.504 0
M  V30 53 H 1.6376 5.8666 5.4286 0
M  V30 END ATOM
M  V30 BEGIN BOND
M  V30 1 1 1 2
M  V30 2 2 2 3
M  V30 3 1 2 4
M  V30 4 1 3 5
M  V30 5 1 3 6
M  V30 6 2 4 7
M  V30 7 1 5 8
M  V30 8 1 5 9
M  V30 9 1 6 10
M  V30 10 2 6 11
M  V30 11 1 7 12
M  V30 12 1 8 13
M  V30 13 1 9 14
M  V30 14 1 10 15
M  V30 15 1 11 16
M  V30 16 2 12 17
M  V30 17 1 12 18
M  V30 18 1 13 19
M  V30 19 1 14 20
M  V30 20 1 16 21
M  V30 21 1 16 22
M  V30 22 1 18 23
M  V30 23 1 19 24
M  V30 24 1 20 25
M  V30 25 1 22 26
M  V30 26 1 22 27
M  V30 27 2 23 28
M  V30 28 1 23 29
M  V30 29 1 7 11
M  V30 30 1 13 14
M  V30 31 2 18 21
M  V30 32 1 24 25
M  V30 33 1 26 27
M  V30 34 1 4 30
M  V30 35 1 8 31
M  V30 36 1 8 32
M  V30 37 1 9 33
M  V30 38 1 9 34
M  V30 39 1 13 35
M  V30 40 1 14 36
M  V30 41 1 15 37
M  V30 42 1 15 38
M  V30 43 1 15 39
M  V30 44 1 19 40
M  V30 45 1 20 41
M  V30 46 1 20 42
M  V30 47 1 21 43
M  V30 48 1 22 44
M  V30 49 1 24 45
M  V30 50 1 24 46
M  V30 51 1 25 47
M  V30 52 1 25 48
M  V30 53 1 26 49
M  V30 54 1 26 50
M  V30 55 1 27 51
M  V30 56 1 27 52
M  V30 57 1 29 53
M  V30 END BOND
M  V30 END CTAB
M  END
>  <NO.>
5298

>  <Name>
354812-41-2

>  <SMILES>
COc1c(N2CC3CCCNC3C2)c(F)cc2c(=O)c(C(=O)O)cn(C3CC3)c12

>  <logBB>


>  <Class>
-1

>  <MW>
401.18

>  <nHBAcc>
5

>  <nHBDon>
2

>  <SLogP>
2.37

>  <TopoPSA>
83.8

>  <MMFF94 Energy>
99.036

$$$$
COc1c(N2CCNC(C)C2)c(F)cc2c(=O)c(C(=O)O)cn(C3CC3)c12
Actelion Java MolfileCreator 2.0

  0  0  0  0  0  0              0 V3000
M  V30 BEGIN CTAB
M  V30 COUNTS 49 52 0 0 0
M  V30 BEGIN ATOM
M  V30 1 F -1.5252 -1.7662 2.4894 0
M  V30 2 C -0.8203 -0.8478 1.8095 0
M  V30 3 C -0.2121 -1.1726 0.5852 0
M  V30 4 C -0.7737 0.4297 2.3447 0
M  V30 5 N -0.3462 -2.4355 0.0157 0
M  V30 6 C 0.5274 -0.1302 -0.0562 0
M  V30 7 C -0.1235 1.4495 1.6475 0
M  V30 8 C -0.8198 -2.5684 -1.3742 0
M  V30 9 C -0.4473 -3.6668 0.8099 0
M  V30 10 O 1.2403 -0.4349 -1.2022 0
M  V30 11 C 0.5432 1.208 0.4254 0
M  V30 12 C -0.1586 2.8135 2.2348 0
M  V30 13 C -2.2407 -3.2051 -1.4303 0 CFG=1
M  V30 14 C -1.8742 -4.2511 0.7474 0
M  V30 15 C 2.3652 -1.2648 -0.8901 0
M  V30 16 N 1.1598 2.3246 -0.2342 0
M  V30 17 O -0.5548 2.9748 3.384 0
M  V30 18 C 0.3127 3.9278 1.3925 0
M  V30 19 N -2.3728 -4.4451 -0.6293 0
M  V30 20 C -3.3274 -2.1856 -1.0676 0
M  V30 21 C 0.9313 3.6032 0.2499 0
M  V30 22 C 1.8917 2.2059 -1.5148 0
M  V30 23 C 0.1599 5.351 1.7119 0
M  V30 24 C 2.996 3.1558 -1.9347 0
M  V30 25 C 3.3312 1.7517 -1.5592 0
M  V30 26 O 0.8777 6.2521 1.3093 0
M  V30 27 O -0.9217 5.6153 2.4593 0
M  V30 28 H -1.2793 0.6254 3.287 0
M  V30 29 H -0.8353 -1.6147 -1.9136 0
M  V30 30 H -0.1197 -3.2233 -1.9084 0
M  V30 31 H 0.2506 -4.3998 0.3847 0
M  V30 32 H -0.1295 -3.5236 1.8487 0
M  V30 33 H -2.4183 -3.4911 -2.4748 0
M  V30 34 H -2.5697 -3.6089 1.2986 0
M  V30 35 H -1.8788 -5.2229 1.2532 0
M  V30 36 H 2.9033 -0.9066 -0.0048 0
M  V30 37 H 3.0515 -1.2267 -1.7413 0
M  V30 38 H 2.0762 -2.3107 -0.7604 0
M  V30 39 H -3.3526 -4.7224 -0.5894 0
M  V30 40 H -4.3254 -2.6249 -1.1758 0
M  V30 41 H -3.277 -1.3192 -1.7362 0
M  V30 42 H -3.2313 -1.8186 -0.0415 0
M  V30 43 H 1.2931 4.3937 -0.4034 0
M  V30 44 H 1.2362 1.8778 -2.3198 0
M  V30 45 H 3.3407 3.9313 -1.2616 0
M  V30 46 H 3.0494 3.4292 -2.9823 0
M  V30 47 H 3.6264 1.0787 -2.3546 0
M  V30 48 H 3.8418 1.5872 -0.6179 0
M  V30 49 H -0.8951 6.5816 2.6115 0
M  V30 END ATOM
M  V30 BEGIN BOND
M  V30 1 1 1 2
M  V30 2 2 2 3
M  V30 3 1 2 4
M  V30 4 1 3 5
M  V30 5 1 3 6
M  V30 6 2 4 7
M  V30 7 1 5 8
M  V30 8 1 5 9
M  V30 9 1 6 10
M  V30 10 2 6 11
M  V30 11 1 7 12
M  V30 12 1 8 13
M  V30 13 1 9 14
M  V30 14 1 10 15
M  V30 15 1 11 16
M  V30 16 2 12 17
M  V30 17 1 12 18
M  V30 18 1 13 19
M  V30 19 1 13 20
M  V30 20 1 16 21
M  V30 21 1 16 22
M  V30 22 1 18 23
M  V30 23 1 22 24
M  V30 24 1 22 25
M  V30 25 2 23 26
M  V30 26 1 23 27
M  V30 27 1 7 11
M  V30 28 1 14 19
M  V30 29 2 18 21
M  V30 30 1 24 25
M  V30 31 1 4 28
M  V30 32 1 8 29
M  V30 33 1 8 30
M  V30 34 1 9 31
M  V30 35 1 9 32
M  V30 36 1 13 33
M  V30 37 1 14 34
M  V30 38 1 14 35
M  V30 39 1 15 36
M  V30 40 1 15 37
M  V30 41 1 15 38
M  V30 42 1 19 39
M  V30 43 1 20 40
M  V30 44 1 20 41
M  V30 45 1 20 42
M  V30 46 1 21 43
M  V30 47 1 22 44
M  V30 48 1 24 45
M  V30 49 1 24 46
M  V30 50 1 25 47
M  V30 51 1 25 48
M  V30 52 1 27 49
M  V30 END BOND
M  V30 BEGIN COLLECTION
M  V30 MDLV30/STERAC1 ATOMS=(1 13)
M  V30 END COLLECTION
M  V30 END CTAB
M  END
>  <NO.>
5299

>  <Name>
gatifloxacin

>  <SMILES>
COc1c(N2CCNC(C)C2)c(F)cc2c(=O)c(C(=O)O)cn(C3CC3)c12

>  <logBB>


>  <Class>
-1

>  <MW>
375.16

>  <nHBAcc>
5

>  <nHBDon>
2

>  <SLogP>
1.98

>  <TopoPSA>
83.8

>  <MMFF94 Energy>
143.87

$$$$
COc1c2occc2cc2ccc(=O)oc12
Actelion Java MolfileCreator 2.0

  0  0  0  0  0  0              0 V3000
M  V30 BEGIN CTAB
M  V30 COUNTS 24 26 0 0 0
M  V30 BEGIN ATOM
M  V30 1 O -4.4669 0.811 0.8921 0
M  V30 2 C -3.3311 0.3599 0.9814 0
M  V30 3 O -2.3185 0.6951 0.0976 0
M  V30 4 C -2.9814 -0.5815 2.0578 0
M  V30 5 C -1.0061 0.1646 0.2129 0
M  V30 6 C -1.7556 -1.096 2.1903 0
M  V30 7 C -0.0597 0.5771 -0.7427 0
M  V30 8 C -0.7099 -0.7268 1.2474 0
M  V30 9 O -0.4977 1.4646 -1.7094 0
M  V30 10 C 1.2211 0.0266 -0.5874 0
M  V30 11 C 0.5831 -1.2522 1.3646 0
M  V30 12 C 0.4606 1.8787 -2.6726 0
M  V30 13 O 2.3187 0.2561 -1.3705 0
M  V30 14 C 1.5633 -0.8668 0.4294 0
M  V30 15 C 3.3443 -0.4743 -0.8676 0
M  V30 16 C 2.9358 -1.1816 0.2365 0
M  V30 17 H -3.7842 -0.8331 2.7402 0
M  V30 18 H -1.5257 -1.7879 2.9933 0
M  V30 19 H 0.8376 -1.9467 2.1602 0
M  V30 20 H 1.2864 2.4216 -2.2019 0
M  V30 21 H -0.037 2.5714 -3.3586 0
M  V30 22 H 0.8177 1.0311 -3.266 0
M  V30 23 H 4.2836 -0.3863 -1.396 0
M  V30 24 H 3.5497 -1.8433 0.8309 0
M  V30 END ATOM
M  V30 BEGIN BOND
M  V30 1 2 1 2
M  V30 2 1 2 3
M  V30 3 1 2 4
M  V30 4 1 3 5
M  V30 5 2 4 6
M  V30 6 2 5 7
M  V30 7 1 5 8
M  V30 8 1 7 9
M  V30 9 1 7 10
M  V30 10 2 8 11
M  V30 11 1 9 12
M  V30 12 1 10 13
M  V30 13 2 10 14
M  V30 14 1 13 15
M  V30 15 1 14 16
M  V30 16 1 6 8
M  V30 17 1 11 14
M  V30 18 2 15 16
M  V30 19 1 4 17
M  V30 20 1 6 18
M  V30 21 1 11 19
M  V30 22 1 12 20
M  V30 23 1 12 21
M  V30 24 1 12 22
M  V30 25 1 15 23
M  V30 26 1 16 24
M  V30 END BOND
M  V30 END CTAB
M  END
>  <NO.>
5300

>  <Name>
methoxsalen

>  <SMILES>
COc1c2occc2cc2ccc(=O)oc12

>  <logBB>


>  <Class>
-1

>  <MW>
216.04

>  <nHBAcc>
4

>  <nHBDon>
0

>  <SLogP>
2.55

>  <TopoPSA>
52.58

>  <MMFF94 Energy>
52.337

$$$$
COc1cc2nc(N3CCN(C(=O)C4CCCO4)CC3)nc(N)c2cc1OC
Actelion Java MolfileCreator 2.0

  0  0  0  0  0  0              0 V3000
M  V30 BEGIN CTAB
M  V30 COUNTS 53 56 0 0 0
M  V30 BEGIN ATOM
M  V30 1 O -0.6359 3.6607 -4.139 0
M  V30 2 C -0.6609 3.8252 -2.9163 0
M  V30 3 N -0.1635 2.8565 -2.0504 0
M  V30 4 C -1.2771 5.1018 -2.2947 0 CFG=1
M  V30 5 C -0.0893 2.9843 -0.589 0
M  V30 6 C 0.3416 1.5999 -2.6163 0
M  V30 7 O -1.4607 6.1499 -3.2633 0
M  V30 8 C -2.6545 4.8042 -1.7033 0
M  V30 9 C 0.8858 1.9933 0.0763 0
M  V30 10 C 0.1007 0.387 -1.7008 0
M  V30 11 C -2.8622 6.3022 -3.4951 0
M  V30 12 C -3.5086 5.9547 -2.1782 0
M  V30 13 N 0.6105 0.629 -0.3534 0
M  V30 14 C 0.8639 -0.4315 0.4806 0
M  V30 15 N 1.439 -0.1961 1.6665 0
M  V30 16 N 0.5242 -1.6617 0.0722 0
M  V30 17 C 1.6884 -1.24 2.4673 0
M  V30 18 C 0.75 -2.697 0.8865 0
M  V30 19 N 2.2873 -0.9138 3.6761 0
M  V30 20 C 1.3379 -2.5507 2.1399 0
M  V30 21 C 0.3814 -3.9691 0.4664 0
M  V30 22 C 1.5306 -3.684 2.9698 0
M  V30 23 C 0.5746 -5.101 1.2676 0
M  V30 24 C 1.1509 -4.9559 2.5398 0
M  V30 25 O 0.23 -6.3787 0.9027 0
M  V30 26 O 1.3029 -6.1044 3.2729 0
M  V30 27 C -0.3505 -6.5659 -0.3803 0
M  V30 28 C 1.7918 -5.9835 4.601 0
M  V30 29 H -0.5968 5.5099 -1.543 0
M  V30 30 H 0.1946 4.0045 -0.3188 0
M  V30 31 H -1.1026 2.8069 -0.21 0
M  V30 32 H 1.4184 1.7413 -2.7719 0
M  V30 33 H -0.107 1.411 -3.5973 0
M  V30 34 H -2.6303 4.7335 -0.6114 0
M  V30 35 H -3.0555 3.8557 -2.0805 0
M  V30 36 H 1.9173 2.2512 -0.1922 0
M  V30 37 H 0.7838 2.1151 1.1613 0
M  V30 38 H 0.5889 -0.4794 -2.1633 0
M  V30 39 H -0.9751 0.1809 -1.6433 0
M  V30 40 H -3.0766 7.3252 -3.8154 0
M  V30 41 H -3.1624 5.6101 -4.2896 0
M  V30 42 H -4.5683 5.7038 -2.2706 0
M  V30 43 H -3.4105 6.7944 -1.4801 0
M  V30 44 H 2.4427 0.0833 3.7658 0
M  V30 45 H 3.0268 -1.5141 4.0086 0
M  V30 46 H -0.0701 -4.0478 -0.5173 0
M  V30 47 H 1.9704 -3.5377 3.9498 0
M  V30 48 H -1.3052 -6.0362 -0.4626 0
M  V30 49 H -0.5522 -7.6343 -0.5032 0
M  V30 50 H 0.3404 -6.2648 -1.1745 0
M  V30 51 H 2.8184 -5.6031 4.609 0
M  V30 52 H 1.8047 -6.9834 5.0453 0
M  V30 53 H 1.1323 -5.3572 5.2109 0
M  V30 END ATOM
M  V30 BEGIN BOND
M  V30 1 2 1 2
M  V30 2 1 2 3
M  V30 3 1 2 4
M  V30 4 1 3 5
M  V30 5 1 3 6
M  V30 6 1 4 7
M  V30 7 1 4 8
M  V30 8 1 5 9
M  V30 9 1 6 10
M  V30 10 1 7 11
M  V30 11 1 8 12
M  V30 12 1 9 13
M  V30 13 1 13 14
M  V30 14 1 14 15
M  V30 15 2 14 16
M  V30 16 2 15 17
M  V30 17 1 16 18
M  V30 18 1 17 19
M  V30 19 1 17 20
M  V30 20 2 18 21
M  V30 21 2 20 22
M  V30 22 1 21 23
M  V30 23 1 22 24
M  V30 24 1 23 25
M  V30 25 1 24 26
M  V30 26 1 25 27
M  V30 27 1 26 28
M  V30 28 1 10 13
M  V30 29 1 11 12
M  V30 30 1 18 20
M  V30 31 2 23 24
M  V30 32 1 4 29
M  V30 33 1 5 30
M  V30 34 1 5 31
M  V30 35 1 6 32
M  V30 36 1 6 33
M  V30 37 1 8 34
M  V30 38 1 8 35
M  V30 39 1 9 36
M  V30 40 1 9 37
M  V30 41 1 10 38
M  V30 42 1 10 39
M  V30 43 1 11 40
M  V30 44 1 11 41
M  V30 45 1 12 42
M  V30 46 1 12 43
M  V30 47 1 19 44
M  V30 48 1 19 45
M  V30 49 1 21 46
M  V30 50 1 22 47
M  V30 51 1 27 48
M  V30 52 1 27 49
M  V30 53 1 27 50
M  V30 54 1 28 51
M  V30 55 1 28 52
M  V30 56 1 28 53
M  V30 END BOND
M  V30 BEGIN COLLECTION
M  V30 MDLV30/STERAC1 ATOMS=(1 4)
M  V30 END COLLECTION
M  V30 END CTAB
M  END
>  <NO.>
5304

>  <Name>
terazosin

>  <SMILES>
COc1cc2nc(N3CCN(C(=O)C4CCCO4)CC3)nc(N)c2cc1OC

>  <logBB>


>  <Class>
-1

>  <MW>
387.19

>  <nHBAcc>
8

>  <nHBDon>
1

>  <SLogP>
1.06

>  <TopoPSA>
103.04

>  <MMFF94 Energy>
14.624

$$$$
COc1ccc(C(=C(C#N)CCC(=O)O)c2ccc(OC)cc2)cc1
Actelion Java MolfileCreator 2.0

  0  0  0  0  0  0              0 V3000
M  V30 BEGIN CTAB
M  V30 COUNTS 44 45 0 0 0
M  V30 BEGIN ATOM
M  V30 1 O -3.7278 -2.4576 3.0925 0
M  V30 2 C -3.3517 -1.3508 3.4362 0
M  V30 3 O -3.4314 -0.9656 4.7245 0
M  V30 4 C -2.7859 -0.2679 2.5613 0
M  V30 5 C -2.5182 -0.7926 1.1505 0
M  V30 6 C -1.9049 0.268 0.2472 0
M  V30 7 C -2.8354 1.2344 -0.2666 0
M  V30 8 C -0.5894 0.3168 -0.0972 0
M  V30 9 N -3.6201 1.9934 -0.659 0
M  V30 10 C 0.3566 -0.6762 0.4653 0
M  V30 11 C -0.0942 1.3667 -1.0253 0
M  V30 12 C 0.7181 -1.8027 -0.2824 0
M  V30 13 C 0.9042 -0.4983 1.7399 0
M  V30 14 C -0.3364 1.2765 -2.402 0
M  V30 15 C 0.638 2.4512 -0.533 0
M  V30 16 C 1.606 -2.7489 0.2424 0
M  V30 17 C 1.7894 -1.4452 2.2601 0
M  V30 18 C 0.1361 2.2644 -3.274 0
M  V30 19 C 1.1103 3.4333 -1.4073 0
M  V30 20 C 2.1437 -2.5743 1.5178 0
M  V30 21 C 0.8604 3.3488 -2.7789 0
M  V30 22 O 3.0158 -3.419 2.1464 0
M  V30 23 O 1.3776 4.3764 -3.518 0
M  V30 24 C 3.4161 -4.5802 1.4299 0
M  V30 25 C 1.0925 4.3725 -4.911 0
M  V30 26 H -3.8192 -1.7392 5.1857 0
M  V30 27 H -1.8539 0.0869 3.0142 0
M  V30 28 H -3.5049 0.5583 2.5368 0
M  V30 29 H -1.8947 -1.6922 1.2035 0
M  V30 30 H -3.4597 -1.1392 0.7014 0
M  V30 31 H 0.3111 -1.9542 -1.2796 0
M  V30 32 H 0.6531 0.3754 2.3358 0
M  V30 33 H -0.8976 0.4388 -2.8095 0
M  V30 34 H 0.8473 2.5452 0.5292 0
M  V30 35 H 1.8562 -3.6076 -0.3713 0
M  V30 36 H 2.211 -1.3009 3.2521 0
M  V30 37 H -0.0797 2.1557 -4.3314 0
M  V30 38 H 1.6768 4.2748 -1.0156 0
M  V30 39 H 2.5591 -5.2278 1.2176 0
M  V30 40 H 4.1086 -5.142 2.0641 0
M  V30 41 H 3.9481 -4.3131 0.5109 0
M  V30 42 H 1.5383 3.501 -5.4014 0
M  V30 43 H 1.5458 5.2677 -5.3474 0
M  V30 44 H 0.0141 4.4221 -5.0947 0
M  V30 END ATOM
M  V30 BEGIN BOND
M  V30 1 2 1 2
M  V30 2 1 2 3
M  V30 3 1 2 4
M  V30 4 1 4 5
M  V30 5 1 5 6
M  V30 6 1 6 7
M  V30 7 2 6 8
M  V30 8 3 7 9
M  V30 9 1 8 10
M  V30 10 1 8 11
M  V30 11 2 10 12
M  V30 12 1 10 13
M  V30 13 2 11 14
M  V30 14 1 11 15
M  V30 15 1 12 16
M  V30 16 2 13 17
M  V30 17 1 14 18
M  V30 18 2 15 19
M  V30 19 2 16 20
M  V30 20 2 18 21
M  V30 21 1 20 22
M  V30 22 1 21 23
M  V30 23 1 22 24
M  V30 24 1 23 25
M  V30 25 1 17 20
M  V30 26 1 19 21
M  V30 27 1 3 26
M  V30 28 1 4 27
M  V30 29 1 4 28
M  V30 30 1 5 29
M  V30 31 1 5 30
M  V30 32 1 12 31
M  V30 33 1 13 32
M  V30 34 1 14 33
M  V30 35 1 15 34
M  V30 36 1 16 35
M  V30 37 1 17 36
M  V30 38 1 18 37
M  V30 39 1 19 38
M  V30 40 1 24 39
M  V30 41 1 24 40
M  V30 42 1 24 41
M  V30 43 1 25 42
M  V30 44 1 25 43
M  V30 45 1 25 44
M  V30 END BOND
M  V30 END CTAB
M  END
>  <NO.>
5305

>  <Name>
satigrel

>  <SMILES>
COc1ccc(C(=C(C#N)CCC(=O)O)c2ccc(OC)cc2)cc1

>  <logBB>


>  <Class>
-1

>  <MW>
337.13

>  <nHBAcc>
4

>  <nHBDon>
1

>  <SLogP>
3.89

>  <TopoPSA>
79.55

>  <MMFF94 Energy>
27.774

$$$$
COc1ccc(C(=O)Nc2ccccc2C(C)CN2CCCCC2)cc1
Actelion Java MolfileCreator 2.0

  0  0  0  0  0  0              0 V3000
M  V30 BEGIN CTAB
M  V30 COUNTS 54 56 0 0 0
M  V30 BEGIN ATOM
M  V30 1 O -0.474 3.4015 0.7112 0
M  V30 2 C -0.9131 2.2686 0.5541 0
M  V30 3 N -1.0086 1.5821 -0.6435 0
M  V30 4 C -1.3364 1.491 1.7526 0
M  V30 5 C -0.6628 2.0903 -1.9161 0
M  V30 6 C -2.4057 0.5876 1.7079 0
M  V30 7 C -0.6417 1.6797 2.9506 0
M  V30 8 C -0.1599 1.2205 -2.916 0
M  V30 9 C -0.8543 3.4487 -2.2041 0
M  V30 10 C -2.758 -0.143 2.8496 0
M  V30 11 C -0.9959 0.9455 4.0847 0
M  V30 12 C 0.1698 1.7743 -4.1696 0
M  V30 13 C 0.0957 -0.265 -2.6357 0 CFG=2
M  V30 14 C -0.5338 3.967 -3.4574 0
M  V30 15 C -2.0506 0.0295 4.0408 0
M  V30 16 C -0.0188 3.131 -4.4383 0
M  V30 17 C 1.4343 -0.4244 -1.8625 0
M  V30 18 C 0.0678 -1.1671 -3.8815 0
M  V30 19 O -2.2884 -0.6221 5.2188 0
M  V30 20 N 1.7009 -1.8004 -1.3971 0
M  V30 21 C -3.3734 -1.541 5.2417 0
M  V30 22 C 0.8487 -2.2231 -0.2743 0
M  V30 23 C 3.1214 -1.992 -1.0564 0
M  V30 24 C 1.1886 -1.5569 1.0617 0
M  V30 25 C 3.5493 -1.3051 0.243 0
M  V30 26 C 2.6628 -1.7298 1.4087 0
M  V30 27 H -1.2396 0.6018 -0.5934 0
M  V30 28 H -2.9929 0.4596 0.8022 0
M  V30 29 H 0.1797 2.3915 3.0027 0
M  V30 30 H -1.2601 4.1257 -1.4561 0
M  V30 31 H -3.5941 -0.8311 2.7779 0
M  V30 32 H -0.4469 1.092 5.0123 0
M  V30 33 H 0.5914 1.1607 -4.9616 0
M  V30 34 H -0.7388 -0.6236 -2.0251 0
M  V30 35 H -0.6826 5.0242 -3.6601 0
M  V30 36 H 0.2423 3.5337 -5.4135 0
M  V30 37 H 1.4821 0.2831 -1.0269 0
M  V30 38 H 2.2366 -0.1199 -2.5496 0
M  V30 39 H 0.9406 -1.0076 -4.5235 0
M  V30 40 H 0.0643 -2.2243 -3.5946 0
M  V30 41 H -0.8343 -0.9883 -4.477 0
M  V30 42 H -4.323 -1.0361 5.0353 0
M  V30 43 H -3.433 -1.9631 6.2496 0
M  V30 44 H -3.2046 -2.3676 4.5438 0
M  V30 45 H 0.9537 -3.3103 -0.1601 0
M  V30 46 H -0.2106 -2.0657 -0.5019 0
M  V30 47 H 3.7603 -1.6554 -1.882 0
M  V30 48 H 3.3105 -3.0699 -0.967 0
M  V30 49 H 0.5718 -1.9919 1.8566 0
M  V30 50 H 0.9451 -0.4898 1.0248 0
M  V30 51 H 3.508 -0.2156 0.1258 0
M  V30 52 H 4.592 -1.5585 0.4657 0
M  V30 53 H 2.91 -1.1461 2.3023 0
M  V30 54 H 2.8581 -2.7822 1.6489 0
M  V30 END ATOM
M  V30 BEGIN BOND
M  V30 1 2 1 2
M  V30 2 1 2 3
M  V30 3 1 2 4
M  V30 4 1 3 5
M  V30 5 2 4 6
M  V30 6 1 4 7
M  V30 7 2 5 8
M  V30 8 1 5 9
M  V30 9 1 6 10
M  V30 10 2 7 11
M  V30 11 1 8 12
M  V30 12 1 8 13
M  V30 13 2 9 14
M  V30 14 2 10 15
M  V30 15 2 12 16
M  V30 16 1 13 17
M  V30 17 1 13 18
M  V30 18 1 15 19
M  V30 19 1 17 20
M  V30 20 1 19 21
M  V30 21 1 20 22
M  V30 22 1 20 23
M  V30 23 1 22 24
M  V30 24 1 23 25
M  V30 25 1 24 26
M  V30 26 1 11 15
M  V30 27 1 14 16
M  V30 28 1 25 26
M  V30 29 1 3 27
M  V30 30 1 6 28
M  V30 31 1 7 29
M  V30 32 1 9 30
M  V30 33 1 10 31
M  V30 34 1 11 32
M  V30 35 1 12 33
M  V30 36 1 13 34
M  V30 37 1 14 35
M  V30 38 1 16 36
M  V30 39 1 17 37
M  V30 40 1 17 38
M  V30 41 1 18 39
M  V30 42 1 18 40
M  V30 43 1 18 41
M  V30 44 1 21 42
M  V30 45 1 21 43
M  V30 46 1 21 44
M  V30 47 1 22 45
M  V30 48 1 22 46
M  V30 49 1 23 47
M  V30 50 1 23 48
M  V30 51 1 24 49
M  V30 52 1 24 50
M  V30 53 1 25 51
M  V30 54 1 25 52
M  V30 55 1 26 53
M  V30 56 1 26 54
M  V30 END BOND
M  V30 BEGIN COLLECTION
M  V30 MDLV30/STERAC1 ATOMS=(1 13)
M  V30 END COLLECTION
M  V30 END CTAB
M  END
>  <NO.>
5306

>  <Name>
encainide

>  <SMILES>
COc1ccc(C(=O)Nc2ccccc2C(C)CN2CCCCC2)cc1

>  <logBB>


>  <Class>
-1

>  <MW>
352.22

>  <nHBAcc>
3

>  <nHBDon>
1

>  <SLogP>
4.54

>  <TopoPSA>
41.57

>  <MMFF94 Energy>
60.648

$$$$
COc1ccc(C2C(=O)c3ccccc3C2=O)cc1
Actelion Java MolfileCreator 2.0

  0  0  0  0  0  0              0 V3000
M  V30 BEGIN CTAB
M  V30 COUNTS 31 33 0 0 0
M  V30 BEGIN ATOM
M  V30 1 O -1.6927 -1.0476 2.0154 0
M  V30 2 C -0.8836 -1.437 1.1925 0
M  V30 3 C -1.1179 -2.5818 0.3126 0
M  V30 4 C 0.5006 -0.8785 0.9014 0
M  V30 5 C -0.0136 -2.7842 -0.5025 0
M  V30 6 C -2.2368 -3.3908 0.2347 0
M  V30 7 C 0.497 0.587 0.5327 0
M  V30 8 C 1.0127 -1.7846 -0.2074 0
M  V30 9 C 0.024 -3.8053 -1.4344 0
M  V30 10 C -2.2185 -4.4295 -0.7008 0
M  V30 11 C 1.232 1.501 1.3017 0
M  V30 12 C -0.2259 1.0707 -0.5668 0
M  V30 13 O 2.0887 -1.7407 -0.7763 0
M  V30 14 C -1.0972 -4.635 -1.5286 0
M  V30 15 C 1.246 2.8643 0.9822 0
M  V30 16 C -0.2092 2.4323 -0.8821 0
M  V30 17 C 0.5244 3.3361 -0.1125 0
M  V30 18 O 0.4528 4.6357 -0.5321 0
M  V30 19 C 1.1847 5.5944 0.2209 0
M  V30 20 H 1.119 -1.0719 1.7871 0
M  V30 21 H -3.0967 -3.2226 0.8766 0
M  V30 22 H 0.8928 -3.954 -2.0688 0
M  V30 23 H -3.0808 -5.088 -0.7926 0
M  V30 24 H 1.8052 1.1618 2.1626 0
M  V30 25 H -0.8116 0.4038 -1.1946 0
M  V30 26 H -1.106 -5.45 -2.2506 0
M  V30 27 H 1.8311 3.5275 1.6103 0
M  V30 28 H -0.7748 2.7932 -1.7379 0
M  V30 29 H 0.8205 5.648 1.2523 0
M  V30 30 H 1.0245 6.5741 -0.2394 0
M  V30 31 H 2.2589 5.3841 0.1904 0
M  V30 END ATOM
M  V30 BEGIN BOND
M  V30 1 2 1 2
M  V30 2 1 2 3
M  V30 3 1 2 4
M  V30 4 2 3 5
M  V30 5 1 3 6
M  V30 6 1 4 7
M  V30 7 1 4 8
M  V30 8 1 5 9
M  V30 9 2 6 10
M  V30 10 2 7 11
M  V30 11 1 7 12
M  V30 12 2 8 13
M  V30 13 2 9 14
M  V30 14 1 11 15
M  V30 15 2 12 16
M  V30 16 2 15 17
M  V30 17 1 17 18
M  V30 18 1 18 19
M  V30 19 1 5 8
M  V30 20 1 10 14
M  V30 21 1 16 17
M  V30 22 1 4 20
M  V30 23 1 6 21
M  V30 24 1 9 22
M  V30 25 1 10 23
M  V30 26 1 11 24
M  V30 27 1 12 25
M  V30 28 1 14 26
M  V30 29 1 15 27
M  V30 30 1 16 28
M  V30 31 1 19 29
M  V30 32 1 19 30
M  V30 33 1 19 31
M  V30 END BOND
M  V30 END CTAB
M  END
>  <NO.>
5308

>  <Name>
anisindione

>  <SMILES>
COc1ccc(C2C(=O)c3ccccc3C2=O)cc1

>  <logBB>


>  <Class>
-1

>  <MW>
252.08

>  <nHBAcc>
3

>  <nHBDon>
0

>  <SLogP>
2.86

>  <TopoPSA>
43.37

>  <MMFF94 Energy>
74.813

$$$$
COc1ccc(CC(C)NCC(O)c2ccc(O)c(NC=O)c2)cc1
Actelion Java MolfileCreator 2.0

  0  0  0  0  0  0              0 V3000
M  V30 BEGIN CTAB
M  V30 COUNTS 49 50 0 0 0
M  V30 BEGIN ATOM
M  V30 1 O -6.9289 0.0785 -0.6283 0
M  V30 2 C -5.9404 0.3659 0.0375 0
M  V30 3 N -5.4887 -0.4047 1.0643 0
M  V30 4 C -4.3774 -0.192 1.8979 0
M  V30 5 C -4.1779 -1.1076 2.9408 0
M  V30 6 C -3.4747 0.8611 1.7391 0
M  V30 7 O -5.0687 -2.1416 3.08 0
M  V30 8 C -3.1049 -0.9793 3.8181 0
M  V30 9 C -2.383 1.0095 2.6163 0
M  V30 10 C -2.2103 0.0786 3.6537 0
M  V30 11 C -1.3808 2.1342 2.4345 0
M  V30 12 O -2.0959 3.336 2.1309 0
M  V30 13 C -0.3559 1.8464 1.3064 0
M  V30 14 N 0.5426 0.7268 1.6178 0
M  V30 15 C 1.5672 0.5037 0.5799 0
M  V30 16 C 0.9942 -0.2054 -0.6715 0
M  V30 17 C 2.6708 -0.337 1.2343 0
M  V30 18 C 1.9846 -0.3351 -1.8059 0
M  V30 19 C 2.3762 0.7903 -2.5399 0
M  V30 20 C 2.5267 -1.5819 -2.1421 0
M  V30 21 C 3.2955 0.6666 -3.5842 0
M  V30 22 C 3.4477 -1.7024 -3.1894 0
M  V30 23 C 3.8366 -0.5771 -3.9153 0
M  V30 24 O 4.7236 -0.556 -4.956 0
M  V30 25 C 5.2913 -1.8015 -5.341 0
M  V30 26 H -5.3582 1.2756 -0.1615 0
M  V30 27 H -6.0401 -1.2334 1.2674 0
M  V30 28 H -3.5923 1.5916 0.9448 0
M  V30 29 H -4.8248 -2.6571 3.8669 0
M  V30 30 H -2.9485 -1.6858 4.6272 0
M  V30 31 H -1.3693 0.1737 4.339 0
M  V30 32 H -0.8557 2.3135 3.3812 0
M  V30 33 H -1.4655 4.0694 2.232 0
M  V30 34 H -0.8966 1.6694 0.3693 0
M  V30 35 H 0.2373 2.7567 1.1509 0
M  V30 36 H -0.0086 -0.1248 1.7414 0
M  V30 37 H 2.0141 1.4665 0.301 0
M  V30 38 H 0.613 -1.1977 -0.3953 0
M  V30 39 H 0.1282 0.3421 -1.0633 0
M  V30 40 H 3.5262 -0.4607 0.5625 0
M  V30 41 H 3.0458 0.1484 2.1431 0
M  V30 42 H 2.3082 -1.334 1.5097 0
M  V30 43 H 1.9682 1.7715 -2.3084 0
M  V30 44 H 2.2386 -2.4735 -1.5891 0
M  V30 45 H 3.592 1.5483 -4.1473 0
M  V30 46 H 3.8401 -2.6892 -3.4104 0
M  V30 47 H 5.8835 -2.2335 -4.5274 0
M  V30 48 H 5.9669 -1.6152 -6.1814 0
M  V30 49 H 4.5193 -2.4989 -5.6827 0
M  V30 END ATOM
M  V30 BEGIN BOND
M  V30 1 2 1 2
M  V30 2 1 2 3
M  V30 3 1 3 4
M  V30 4 2 4 5
M  V30 5 1 4 6
M  V30 6 1 5 7
M  V30 7 1 5 8
M  V30 8 2 6 9
M  V30 9 2 8 10
M  V30 10 1 9 11
M  V30 11 1 11 12
M  V30 12 1 11 13
M  V30 13 1 13 14
M  V30 14 1 14 15
M  V30 15 1 15 16
M  V30 16 1 15 17
M  V30 17 1 16 18
M  V30 18 2 18 19
M  V30 19 1 18 20
M  V30 20 1 19 21
M  V30 21 2 20 22
M  V30 22 2 21 23
M  V30 23 1 23 24
M  V30 24 1 24 25
M  V30 25 1 9 10
M  V30 26 1 22 23
M  V30 27 1 2 26
M  V30 28 1 3 27
M  V30 29 1 6 28
M  V30 30 1 7 29
M  V30 31 1 8 30
M  V30 32 1 10 31
M  V30 33 1 11 32
M  V30 34 1 12 33
M  V30 35 1 13 34
M  V30 36 1 13 35
M  V30 37 1 14 36
M  V30 38 1 15 37
M  V30 39 1 16 38
M  V30 40 1 16 39
M  V30 41 1 17 40
M  V30 42 1 17 41
M  V30 43 1 17 42
M  V30 44 1 19 43
M  V30 45 1 20 44
M  V30 46 1 21 45
M  V30 47 1 22 46
M  V30 48 1 25 47
M  V30 49 1 25 48
M  V30 50 1 25 49
M  V30 END BOND
M  V30 END CTAB
M  END
>  <NO.>
5309

>  <Name>
formoterol

>  <SMILES>
COc1ccc(CC(C)NCC(O)c2ccc(O)c(NC=O)c2)cc1

>  <logBB>


>  <Class>
-1

>  <MW>
344.17

>  <nHBAcc>
5

>  <nHBDon>
4

>  <SLogP>
2.22

>  <TopoPSA>
90.82

>  <MMFF94 Energy>
66.03

$$$$
COc1ccc(CCNCC(O)COc2cccc(C)c2)cc1OC
Actelion Java MolfileCreator 2.0

  0  0  0  0  0  0              0 V3000
M  V30 BEGIN CTAB
M  V30 COUNTS 52 53 0 0 0
M  V30 BEGIN ATOM
M  V30 1 O -3.2191 -2.9047 -1.0983 0
M  V30 2 C -3.0798 -3.735 -2.1762 0
M  V30 3 C -2.2463 -1.8609 -0.9496 0
M  V30 4 C -4.0944 -4.688 -2.3125 0
M  V30 5 C -2.0402 -3.7068 -3.1049 0
M  V30 6 C -2.634 -1.0479 0.2912 0 CFG=1
M  V30 7 C -4.0893 -5.6034 -3.3735 0
M  V30 8 C -2.0178 -4.6249 -4.1581 0
M  V30 9 O -2.5241 -1.8683 1.4635 0
M  V30 10 C -1.8008 0.2406 0.4651 0
M  V30 11 C -3.034 -5.5714 -4.2896 0
M  V30 12 C -5.1666 -6.6403 -3.4865 0
M  V30 13 N -0.3448 0.0283 0.4918 0
M  V30 14 C 0.365 1.2773 0.7865 0
M  V30 15 C 1.8785 1.0312 0.8445 0
M  V30 16 C 2.6397 2.3005 1.1452 0
M  V30 17 C 2.8242 2.7178 2.4721 0
M  V30 18 C 3.1441 3.0895 0.1079 0
M  V30 19 C 3.5109 3.9034 2.7633 0
M  V30 20 C 3.831 4.2737 0.3878 0
M  V30 21 O 3.733 4.3796 4.0324 0
M  V30 22 C 4.0202 4.6887 1.71 0
M  V30 23 C 3.2504 3.6054 5.1207 0
M  V30 24 O 4.6797 5.8362 2.0763 0
M  V30 25 C 5.2297 6.6386 1.0423 0
M  V30 26 H -2.254 -1.2138 -1.8343 0
M  V30 27 H -1.2596 -2.3156 -0.8047 0
M  V30 28 H -4.8985 -4.712 -1.5798 0
M  V30 29 H -1.2276 -2.9924 -3.0365 0
M  V30 30 H -3.6922 -0.7678 0.2212 0
M  V30 31 H -1.2019 -4.6056 -4.8762 0
M  V30 32 H -2.9311 -2.7242 1.2343 0
M  V30 33 H -2.0487 0.9321 -0.3491 0
M  V30 34 H -2.1052 0.7075 1.4102 0
M  V30 35 H -2.9963 -6.2838 -5.1105 0
M  V30 36 H -4.8872 -7.5335 -2.9195 0
M  V30 37 H -6.1178 -6.2585 -3.1008 0
M  V30 38 H -5.3303 -6.9216 -4.5321 0
M  V30 39 H -0.0211 -0.3472 -0.3962 0
M  V30 40 H 0.1412 2.0263 0.0165 0
M  V30 41 H 0.0257 1.6799 1.749 0
M  V30 42 H 2.1134 0.28 1.61 0
M  V30 43 H 2.2319 0.6123 -0.1066 0
M  V30 44 H 2.4186 2.0962 3.2644 0
M  V30 45 H 3.0077 2.7891 -0.9285 0
M  V30 46 H 4.2051 4.851 -0.4505 0
M  V30 47 H 2.1588 3.5241 5.0943 0
M  V30 48 H 3.5216 4.1235 6.0457 0
M  V30 49 H 3.7219 2.6175 5.1435 0
M  V30 50 H 5.9863 6.0879 0.474 0
M  V30 51 H 5.7249 7.4947 1.5108 0
M  V30 52 H 4.4454 7.0282 0.3852 0
M  V30 END ATOM
M  V30 BEGIN BOND
M  V30 1 1 1 2
M  V30 2 1 1 3
M  V30 3 2 2 4
M  V30 4 1 2 5
M  V30 5 1 3 6
M  V30 6 1 4 7
M  V30 7 2 5 8
M  V30 8 1 6 9
M  V30 9 1 6 10
M  V30 10 2 7 11
M  V30 11 1 7 12
M  V30 12 1 10 13
M  V30 13 1 13 14
M  V30 14 1 14 15
M  V30 15 1 15 16
M  V30 16 2 16 17
M  V30 17 1 16 18
M  V30 18 1 17 19
M  V30 19 2 18 20
M  V30 20 1 19 21
M  V30 21 2 19 22
M  V30 22 1 21 23
M  V30 23 1 22 24
M  V30 24 1 24 25
M  V30 25 1 8 11
M  V30 26 1 20 22
M  V30 27 1 3 26
M  V30 28 1 3 27
M  V30 29 1 4 28
M  V30 30 1 5 29
M  V30 31 1 6 30
M  V30 32 1 8 31
M  V30 33 1 9 32
M  V30 34 1 10 33
M  V30 35 1 10 34
M  V30 36 1 11 35
M  V30 37 1 12 36
M  V30 38 1 12 37
M  V30 39 1 12 38
M  V30 40 1 13 39
M  V30 41 1 14 40
M  V30 42 1 14 41
M  V30 43 1 15 42
M  V30 44 1 15 43
M  V30 45 1 17 44
M  V30 46 1 18 45
M  V30 47 1 20 46
M  V30 48 1 23 47
M  V30 49 1 23 48
M  V30 50 1 23 49
M  V30 51 1 25 50
M  V30 52 1 25 51
M  V30 53 1 25 52
M  V30 END BOND
M  V30 BEGIN COLLECTION
M  V30 MDLV30/STERAC1 ATOMS=(1 6)
M  V30 END COLLECTION
M  V30 END CTAB
M  END
>  <NO.>
5310

>  <Name>
bevantolol

>  <SMILES>
COc1ccc(CCNCC(O)COc2cccc(C)c2)cc1OC

>  <logBB>


>  <Class>
-1

>  <MW>
345.19

>  <nHBAcc>
5

>  <nHBDon>
2

>  <SLogP>
2.58

>  <TopoPSA>
59.95

>  <MMFF94 Energy>
114.72

$$$$
COc1ccc(OC)c(Cc2cnc3nc(N)nc(N)c3c2C)c1
Actelion Java MolfileCreator 2.0

  0  0  0  0  0  0              0 V3000
M  V30 BEGIN CTAB
M  V30 COUNTS 43 45 0 0 0
M  V30 BEGIN ATOM
M  V30 1 O -0.8668 -2.0499 0.4727 0
M  V30 2 C 0.2207 -2.3053 -0.3176 0
M  V30 3 C -2.1371 -2.4332 -0.04 0
M  V30 4 C 1.387 -1.5774 -0.0283 0
M  V30 5 C 0.2372 -3.2528 -1.3456 0
M  V30 6 C 2.5463 -1.8167 -0.7897 0
M  V30 7 C 1.4276 -0.532 1.0703 0
M  V30 8 C 1.3977 -3.4743 -2.0969 0
M  V30 9 C 2.5574 -2.7559 -1.8227 0
M  V30 10 C 0.6553 0.7347 0.7648 0
M  V30 11 O 3.7532 -2.8745 -2.4742 0
M  V30 12 C -0.4333 1.2316 1.5061 0
M  V30 13 C 1.0577 1.4946 -0.3235 0
M  V30 14 C 3.8061 -3.792 -3.5593 0
M  V30 15 C -1.0148 2.5081 1.1339 0
M  V30 16 C -0.9902 0.4535 2.6721 0
M  V30 17 N 0.4873 2.6516 -0.7101 0
M  V30 18 C -0.5244 3.1484 -0.0093 0
M  V30 19 C -2.0411 3.2404 1.7671 0
M  V30 20 N -1.0117 4.2848 -0.4783 0
M  V30 21 N -2.557 4.3755 1.2807 0
M  V30 22 N -2.6303 2.8631 2.9634 0
M  V30 23 C -2.0179 4.8487 0.1671 0
M  V30 24 N -2.528 6.0066 -0.342 0
M  V30 25 H -2.2914 -2.0557 -1.0565 0
M  V30 26 H -2.9034 -1.9865 0.6008 0
M  V30 27 H -2.261 -3.5198 0.0017 0
M  V30 28 H -0.6386 -3.8486 -1.5812 0
M  V30 29 H 3.4599 -1.2627 -0.5825 0
M  V30 30 H 2.4699 -0.2356 1.2567 0
M  V30 31 H 1.1273 -1.0043 2.0091 0
M  V30 32 H 1.3594 -4.2199 -2.8838 0
M  V30 33 H 1.8885 1.1838 -0.9536 0
M  V30 34 H 3.6259 -4.8166 -3.218 0
M  V30 35 H 4.8155 -3.754 -3.98 0
M  V30 36 H 3.1045 -3.5091 -4.3509 0
M  V30 37 H -2.0839 0.4427 2.6452 0
M  V30 38 H -0.6355 0.8807 3.6146 0
M  V30 39 H -0.7148 -0.6014 2.6624 0
M  V30 40 H -3.3764 3.4978 3.2256 0
M  V30 41 H -2.0141 2.5841 3.7117 0
M  V30 42 H -3.2966 6.4412 0.1356 0
M  V30 43 H -2.1195 6.3627 -1.1886 0
M  V30 END ATOM
M  V30 BEGIN BOND
M  V30 1 1 1 2
M  V30 2 1 1 3
M  V30 3 2 2 4
M  V30 4 1 2 5
M  V30 5 1 4 6
M  V30 6 1 4 7
M  V30 7 2 5 8
M  V30 8 2 6 9
M  V30 9 1 7 10
M  V30 10 1 9 11
M  V30 11 2 10 12
M  V30 12 1 10 13
M  V30 13 1 11 14
M  V30 14 1 12 15
M  V30 15 1 12 16
M  V30 16 2 13 17
M  V30 17 1 15 18
M  V30 18 2 15 19
M  V30 19 2 18 20
M  V30 20 1 19 21
M  V30 21 1 19 22
M  V30 22 1 20 23
M  V30 23 1 23 24
M  V30 24 1 8 9
M  V30 25 1 17 18
M  V30 26 2 21 23
M  V30 27 1 3 25
M  V30 28 1 3 26
M  V30 29 1 3 27
M  V30 30 1 5 28
M  V30 31 1 6 29
M  V30 32 1 7 30
M  V30 33 1 7 31
M  V30 34 1 8 32
M  V30 35 1 13 33
M  V30 36 1 14 34
M  V30 37 1 14 35
M  V30 38 1 14 36
M  V30 39 1 16 37
M  V30 40 1 16 38
M  V30 41 1 16 39
M  V30 42 1 22 40
M  V30 43 1 22 41
M  V30 44 1 24 42
M  V30 45 1 24 43
M  V30 END BOND
M  V30 END CTAB
M  END
>  <NO.>
5312

>  <Name>
piritrexim

>  <SMILES>
COc1ccc(OC)c(Cc2cnc3nc(N)nc(N)c3c2C)c1

>  <logBB>


>  <Class>
-1

>  <MW>
325.15

>  <nHBAcc>
7

>  <nHBDon>
2

>  <SLogP>
2.11

>  <TopoPSA>
109.17

>  <MMFF94 Energy>
-75.267

$$$$
COc1ccc2c(c1)c(CC(=O)OCC(=O)O)c(C)n2C(=O)c1ccc(Cl)cc1
Actelion Java MolfileCreator 2.0

  0  0  0  0  0  0              0 V3000
M  V30 BEGIN CTAB
M  V30 COUNTS 47 49 0 0 0
M  V30 BEGIN ATOM
M  V30 1 Cl 2.4205 -5.0883 -5.3311 0
M  V30 2 C 2.3146 -3.612 -4.4548 0
M  V30 3 C 1.124 -3.2735 -3.8109 0
M  V30 4 C 3.417 -2.7594 -4.3998 0
M  V30 5 C 1.0345 -2.0751 -3.0979 0
M  V30 6 C 3.3324 -1.5608 -3.6877 0
M  V30 7 C 2.1478 -1.2283 -3.0188 0
M  V30 8 C 2.0679 0.0617 -2.2941 0
M  V30 9 O 2.5637 1.0425 -2.8478 0
M  V30 10 N 1.4394 0.2515 -1.0343 0
M  V30 11 C 1.2858 -0.7122 -0.0299 0
M  V30 12 C 0.8691 1.4439 -0.5787 0
M  V30 13 C 0.5028 -0.1546 0.9836 0
M  V30 14 C 1.7951 -2.0194 0.097 0
M  V30 15 C 0.2476 1.2052 0.6386 0
M  V30 16 C 0.898 2.7052 -1.3813 0
M  V30 17 C 0.1486 -0.9485 2.1024 0
M  V30 18 C 1.4374 -2.777 1.2168 0
M  V30 19 C -0.5328 2.187 1.464 0
M  V30 20 C 0.6116 -2.2617 2.2086 0
M  V30 21 C -2.0104 2.1988 1.1268 0
M  V30 22 O 0.3453 -3.1262 3.2352 0
M  V30 23 O -2.566 1.5577 0.2459 0
M  V30 24 O -2.6548 3.0579 1.9685 0
M  V30 25 C -0.5241 -2.6618 4.2599 0
M  V30 26 C -4.061 3.1549 1.7299 0
M  V30 27 C -4.6914 4.0975 2.7336 0
M  V30 28 O -4.1389 4.6952 3.6426 0
M  V30 29 O -6.0197 4.2402 2.538 0
M  V30 30 H 0.262 -3.9339 -3.8655 0
M  V30 31 H 4.3395 -3.0174 -4.9136 0
M  V30 32 H 0.0946 -1.813 -2.6161 0
M  V30 33 H 4.1872 -0.8876 -3.6581 0
M  V30 34 H 2.4641 -2.4562 -0.6368 0
M  V30 35 H 1.9155 3.1045 -1.4347 0
M  V30 36 H 0.2664 3.4787 -0.9343 0
M  V30 37 H 0.5198 2.5352 -2.3942 0
M  V30 38 H -0.4716 -0.5061 2.8723 0
M  V30 39 H 1.8183 -3.7918 1.3141 0
M  V30 40 H -0.4267 1.9383 2.5263 0
M  V30 41 H -0.1374 3.1982 1.3197 0
M  V30 42 H -0.0862 -1.8111 4.7923 0
M  V30 43 H -0.6544 -3.474 4.9813 0
M  V30 44 H -1.5116 -2.4118 3.8581 0
M  V30 45 H -4.5253 2.1703 1.8511 0
M  V30 46 H -4.2343 3.558 0.7264 0
M  V30 47 H -6.2979 4.8657 3.2407 0
M  V30 END ATOM
M  V30 BEGIN BOND
M  V30 1 1 1 2
M  V30 2 2 2 3
M  V30 3 1 2 4
M  V30 4 1 3 5
M  V30 5 2 4 6
M  V30 6 2 5 7
M  V30 7 1 7 8
M  V30 8 2 8 9
M  V30 9 1 8 10
M  V30 10 1 10 11
M  V30 11 1 10 12
M  V30 12 2 11 13
M  V30 13 1 11 14
M  V30 14 2 12 15
M  V30 15 1 12 16
M  V30 16 1 13 17
M  V30 17 2 14 18
M  V30 18 1 15 19
M  V30 19 2 17 20
M  V30 20 1 19 21
M  V30 21 1 20 22
M  V30 22 2 21 23
M  V30 23 1 21 24
M  V30 24 1 22 25
M  V30 25 1 24 26
M  V30 26 1 26 27
M  V30 27 2 27 28
M  V30 28 1 27 29
M  V30 29 1 6 7
M  V30 30 1 13 15
M  V30 31 1 18 20
M  V30 32 1 3 30
M  V30 33 1 4 31
M  V30 34 1 5 32
M  V30 35 1 6 33
M  V30 36 1 14 34
M  V30 37 1 16 35
M  V30 38 1 16 36
M  V30 39 1 16 37
M  V30 40 1 17 38
M  V30 41 1 18 39
M  V30 42 1 19 40
M  V30 43 1 19 41
M  V30 44 1 25 42
M  V30 45 1 25 43
M  V30 46 1 25 44
M  V30 47 1 26 45
M  V30 48 1 26 46
M  V30 49 1 29 47
M  V30 END BOND
M  V30 END CTAB
M  END
>  <NO.>
5313

>  <Name>
acemetacin

>  <SMILES>
COc1ccc2c(c1)c(CC(=O)OCC(=O)O)c(C)n2C(=O)c1ccc(Cl)cc1

>  <logBB>


>  <Class>
-1

>  <MW>
415.08

>  <nHBAcc>
5

>  <nHBDon>
1

>  <SLogP>
3.47

>  <TopoPSA>
94.83

>  <MMFF94 Energy>
101.82

$$$$
COc1ccccc1OC(=O)CNC(=O)Cc1ccc(C(=O)c2ccc(C)cc2)n1C
Actelion Java MolfileCreator 2.0

  0  0  0  0  0  0              0 V3000
M  V30 BEGIN CTAB
M  V30 COUNTS 55 57 0 0 0
M  V30 BEGIN ATOM
M  V30 1 O -1.8261 1.9055 3.5752 0
M  V30 2 C -2.0489 0.7166 3.3525 0
M  V30 3 C -2.1234 -0.1921 4.5298 0
M  V30 4 C -2.2253 0.1788 2.0078 0
M  V30 5 C -1.2383 0.014 5.5939 0
M  V30 6 C -3.0824 -1.2081 4.6126 0
M  V30 7 N -2.6187 0.9238 0.9042 0
M  V30 8 C -2.0014 -1.1113 1.5494 0
M  V30 9 C -1.2918 -0.8099 6.7203 0
M  V30 10 C -3.1333 -2.0307 5.7412 0
M  V30 11 C -2.6214 0.1285 -0.2263 0
M  V30 12 C -2.9755 2.3309 0.9555 0
M  V30 13 C -2.2611 -1.1453 0.1643 0
M  V30 14 C -2.2449 -1.8324 6.8059 0
M  V30 15 C -2.9535 0.6199 -1.6048 0
M  V30 16 C -2.2809 -2.7368 8.0028 0
M  V30 17 C -1.8819 1.5722 -2.1133 0
M  V30 18 O -2.1017 2.7632 -2.3196 0
M  V30 19 N -0.6586 0.9922 -2.3386 0
M  V30 20 C 0.4751 1.7624 -2.8177 0
M  V30 21 C 1.7014 0.8755 -2.952 0
M  V30 22 O 1.7061 -0.3317 -2.7296 0
M  V30 23 O 2.7761 1.6645 -3.3419 0
M  V30 24 C 3.9153 0.9079 -3.6317 0
M  V30 25 C 4.0474 0.2893 -4.8832 0
M  V30 26 C 4.9247 0.8516 -2.6702 0
M  V30 27 O 3.0017 0.4554 -5.7517 0
M  V30 28 C 5.2177 -0.4245 -5.1464 0
M  V30 29 C 6.0849 0.1347 -2.9474 0
M  V30 30 C 3.0661 -0.2572 -6.98 0
M  V30 31 C 6.2294 -0.5031 -4.1804 0
M  V30 32 H -0.5035 0.8152 5.5463 0
M  V30 33 H -3.8026 -1.362 3.8129 0
M  V30 34 H -1.6593 -1.9461 2.1488 0
M  V30 35 H -0.5882 -0.6438 7.5335 0
M  V30 36 H -3.8777 -2.8229 5.7884 0
M  V30 37 H -2.0527 2.9141 0.9993 0
M  V30 38 H -3.555 2.6062 0.0734 0
M  V30 39 H -3.5985 2.5076 1.8359 0
M  V30 40 H -2.1694 -2.0061 -0.4866 0
M  V30 41 H -3.9251 1.1248 -1.6164 0
M  V30 42 H -3.0228 -0.2226 -2.3031 0
M  V30 43 H -1.6229 -3.5961 7.8418 0
M  V30 44 H -1.9563 -2.2056 8.9038 0
M  V30 45 H -3.2976 -3.0989 8.1885 0
M  V30 46 H -0.5053 0.0159 -2.0992 0
M  V30 47 H 0.6743 2.5607 -2.0963 0
M  V30 48 H 0.2171 2.1861 -3.7927 0
M  V30 49 H 4.8056 1.3547 -1.7157 0
M  V30 50 H 5.3806 -0.928 -6.0932 0
M  V30 51 H 6.8771 0.0725 -2.2057 0
M  V30 52 H 3.8991 0.0962 -7.5963 0
M  V30 53 H 2.1401 -0.0608 -7.5289 0
M  V30 54 H 3.1291 -1.337 -6.8094 0
M  V30 55 H 7.1371 -1.0626 -4.3948 0
M  V30 END ATOM
M  V30 BEGIN BOND
M  V30 1 2 1 2
M  V30 2 1 2 3
M  V30 3 1 2 4
M  V30 4 2 3 5
M  V30 5 1 3 6
M  V30 6 1 4 7
M  V30 7 2 4 8
M  V30 8 1 5 9
M  V30 9 2 6 10
M  V30 10 1 7 11
M  V30 11 1 7 12
M  V30 12 1 8 13
M  V30 13 2 9 14
M  V30 14 1 11 15
M  V30 15 1 14 16
M  V30 16 1 15 17
M  V30 17 2 17 18
M  V30 18 1 17 19
M  V30 19 1 19 20
M  V30 20 1 20 21
M  V30 21 2 21 22
M  V30 22 1 21 23
M  V30 23 1 23 24
M  V30 24 2 24 25
M  V30 25 1 24 26
M  V30 26 1 25 27
M  V30 27 1 25 28
M  V30 28 2 26 29
M  V30 29 1 27 30
M  V30 30 2 28 31
M  V30 31 1 10 14
M  V30 32 2 11 13
M  V30 33 1 29 31
M  V30 34 1 5 32
M  V30 35 1 6 33
M  V30 36 1 8 34
M  V30 37 1 9 35
M  V30 38 1 10 36
M  V30 39 1 12 37
M  V30 40 1 12 38
M  V30 41 1 12 39
M  V30 42 1 13 40
M  V30 43 1 15 41
M  V30 44 1 15 42
M  V30 45 1 16 43
M  V30 46 1 16 44
M  V30 47 1 16 45
M  V30 48 1 19 46
M  V30 49 1 20 47
M  V30 50 1 20 48
M  V30 51 1 26 49
M  V30 52 1 28 50
M  V30 53 1 29 51
M  V30 54 1 30 52
M  V30 55 1 30 53
M  V30 56 1 30 54
M  V30 57 1 31 55
M  V30 END BOND
M  V30 END CTAB
M  END
>  <NO.>
5315

>  <Name>
amtolmetin

>  <SMILES>
COc1ccccc1OC(=O)CNC(=O)Cc1ccc(C(=O)c2ccc(C)cc2)n1C

>  <logBB>


>  <Class>
-1

>  <MW>
420.17

>  <nHBAcc>
5

>  <nHBDon>
1

>  <SLogP>
2.84

>  <TopoPSA>
86.63

>  <MMFF94 Energy>
122.8

$$$$
COc1ccccc1OCCNCC(O)COc1cccc2[nH]c3ccccc3c12
Actelion Java MolfileCreator 2.0

  0  0  0  0  0  0              0 V3000
M  V30 BEGIN CTAB
M  V30 COUNTS 56 59 0 0 0
M  V30 BEGIN ATOM
M  V30 1 O 0.1586 -2.6997 3.2562 0
M  V30 2 C 0.4256 -1.8083 4.274 0
M  V30 3 C -0.6214 -2.0426 2.2363 0
M  V30 4 C 1.6223 -1.0573 4.3007 0
M  V30 5 C -0.4943 -1.7026 5.3236 0
M  V30 6 C -0.7466 -3.0214 1.0624 0 CFG=1
M  V30 7 C 1.8206 -0.1839 5.3717 0
M  V30 8 C 2.7705 -0.9519 3.448 0
M  V30 9 C -0.259 -0.8243 6.3779 0
M  V30 10 O -1.3872 -4.2243 1.5156 0
M  V30 11 C -1.5619 -2.439 -0.1041 0
M  V30 12 N 3.0284 0.44 5.1666 0
M  V30 13 C 0.8996 -0.0423 6.4184 0
M  V30 14 C 3.6252 -0.0048 4.0112 0
M  V30 15 C 3.1647 -1.5776 2.2463 0
M  V30 16 N -0.9108 -1.2747 -0.7175 0
M  V30 17 C 4.8481 0.3549 3.4319 0
M  V30 18 C 4.384 -1.2316 1.6532 0
M  V30 19 C -1.745 -0.7229 -1.794 0
M  V30 20 C 5.211 -0.277 2.2392 0
M  V30 21 C -1.1079 0.5278 -2.4142 0
M  V30 22 O -1.9436 0.9649 -3.4851 0
M  V30 23 C -1.54 2.0618 -4.2055 0
M  V30 24 C -2.3541 2.415 -5.3016 0
M  V30 25 C -0.4043 2.826 -3.9145 0
M  V30 26 O -3.4496 1.6161 -5.5209 0
M  V30 27 C -2.0124 3.5225 -6.0863 0
M  V30 28 C -0.0743 3.9291 -4.7041 0
M  V30 29 C -4.31 1.9612 -6.5965 0
M  V30 30 C -0.8757 4.276 -5.7872 0
M  V30 31 H -0.1309 -1.1159 1.9155 0
M  V30 32 H -1.6161 -1.817 2.6408 0
M  V30 33 H -1.3971 -2.3069 5.3134 0
M  V30 34 H 0.251 -3.3165 0.7162 0
M  V30 35 H -0.9859 -0.746 7.1833 0
M  V30 36 H -0.9239 -4.4715 2.3396 0
M  V30 37 H -1.7131 -3.2247 -0.8553 0
M  V30 38 H -2.5601 -2.1682 0.2637 0
M  V30 39 H 3.4285 1.1281 5.7868 0
M  V30 40 H 1.0778 0.6414 7.2424 0
M  V30 41 H 2.5303 -2.3297 1.7882 0
M  V30 42 H -0.0145 -1.5649 -1.1113 0
M  V30 43 H 5.4976 1.0948 3.8881 0
M  V30 44 H 4.6877 -1.7168 0.7292 0
M  V30 45 H -1.9031 -1.473 -2.5792 0
M  V30 46 H -2.7374 -0.4544 -1.4106 0
M  V30 47 H 6.156 -0.0219 1.7652 0
M  V30 48 H -1.0315 1.3113 -1.6503 0
M  V30 49 H -0.1109 0.2774 -2.7973 0
M  V30 50 H 0.2437 2.592 -3.0768 0
M  V30 51 H -2.6103 3.8255 -6.9388 0
M  V30 52 H 0.809 4.5181 -4.4708 0
M  V30 53 H -4.7482 2.9541 -6.4504 0
M  V30 54 H -5.1298 1.2366 -6.6146 0
M  V30 55 H -3.7879 1.8952 -7.5565 0
M  V30 56 H -0.6174 5.1353 -6.401 0
M  V30 END ATOM
M  V30 BEGIN BOND
M  V30 1 1 1 2
M  V30 2 1 1 3
M  V30 3 2 2 4
M  V30 4 1 2 5
M  V30 5 1 3 6
M  V30 6 1 4 7
M  V30 7 1 4 8
M  V30 8 2 5 9
M  V30 9 1 6 10
M  V30 10 1 6 11
M  V30 11 1 7 12
M  V30 12 2 7 13
M  V30 13 2 8 14
M  V30 14 1 8 15
M  V30 15 1 11 16
M  V30 16 1 14 17
M  V30 17 2 15 18
M  V30 18 1 16 19
M  V30 19 2 17 20
M  V30 20 1 19 21
M  V30 21 1 21 22
M  V30 22 1 22 23
M  V30 23 2 23 24
M  V30 24 1 23 25
M  V30 25 1 24 26
M  V30 26 1 24 27
M  V30 27 2 25 28
M  V30 28 1 26 29
M  V30 29 2 27 30
M  V30 30 1 9 13
M  V30 31 1 12 14
M  V30 32 1 18 20
M  V30 33 1 28 30
M  V30 34 1 3 31
M  V30 35 1 3 32
M  V30 36 1 5 33
M  V30 37 1 6 34
M  V30 38 1 9 35
M  V30 39 1 10 36
M  V30 40 1 11 37
M  V30 41 1 11 38
M  V30 42 1 12 39
M  V30 43 1 13 40
M  V30 44 1 15 41
M  V30 45 1 16 42
M  V30 46 1 17 43
M  V30 47 1 18 44
M  V30 48 1 19 45
M  V30 49 1 19 46
M  V30 50 1 20 47
M  V30 51 1 21 48
M  V30 52 1 21 49
M  V30 53 1 25 50
M  V30 54 1 27 51
M  V30 55 1 28 52
M  V30 56 1 29 53
M  V30 57 1 29 54
M  V30 58 1 29 55
M  V30 59 1 30 56
M  V30 END BOND
M  V30 BEGIN COLLECTION
M  V30 MDLV30/STERAC1 ATOMS=(1 6)
M  V30 END COLLECTION
M  V30 END CTAB
M  END
>  <NO.>
5316

>  <Name>
carvedilol

>  <SMILES>
COc1ccccc1OCCNCC(O)COc1cccc2[nH]c3ccccc3c12

>  <logBB>


>  <Class>
-1

>  <MW>
406.19

>  <nHBAcc>
5

>  <nHBDon>
3

>  <SLogP>
3.74

>  <TopoPSA>
75.74

>  <MMFF94 Energy>
132.39

$$$$
COc1ccccc1Oc1c(NS(=O)(=O)c2ccc(C(C)(C)C)cc2)nc(-c2ncccn2)nc1OCCO
Actelion Java MolfileCreator 2.0

  0  0  0  0  0  0              0 V3000
M  V30 BEGIN CTAB
M  V30 COUNTS 68 71 0 0 0
M  V30 BEGIN ATOM
M  V30 1 S -0.3216 0.0803 3.4616 0
M  V30 2 O -1.636 0.3032 4.0314 0
M  V30 3 O 0.8425 0.1134 4.3228 0
M  V30 4 N -0.3834 -1.4549 2.7288 0
M  V30 5 C -0.0939 1.2714 2.1657 0
M  V30 6 C -0.7633 -1.464 1.3554 0
M  V30 7 C 1.1917 1.5932 1.7405 0
M  V30 8 C -1.203 1.8868 1.5845 0
M  V30 9 N -2.0926 -1.4418 1.2033 0
M  V30 10 C 0.1474 -1.4028 0.3219 0
M  V30 11 C 1.3608 2.4871 0.6806 0
M  V30 12 C -1.024 2.782 0.5254 0
M  V30 13 C -2.551 -1.3185 -0.0628 0
M  V30 14 O 1.5034 -1.4157 0.483 0
M  V30 15 C -0.4168 -1.2475 -0.9233 0
M  V30 16 C 0.2588 3.092 0.0404 0
M  V30 17 N -1.7448 -1.2087 -1.1417 0
M  V30 18 C -4.0283 -1.2744 -0.2768 0
M  V30 19 C 2.0425 -2.5928 0.9652 0
M  V30 20 O 0.4428 -1.1355 -1.9986 0
M  V30 21 C 0.4881 4.0411 -1.1494 0
M  V30 22 N -4.8342 -1.4012 0.8046 0
M  V30 23 N -4.4918 -1.1038 -1.5389 0
M  V30 24 C 2.9469 -2.5147 2.0356 0
M  V30 25 C 1.7458 -3.8265 0.3721 0
M  V30 26 C -0.2225 -0.9561 -3.2546 0
M  V30 27 C 1.3799 5.2234 -0.713 0
M  V30 28 C 1.1854 3.2702 -2.2917 0
M  V30 29 C -0.8123 4.6407 -1.7305 0
M  V30 30 C -6.1608 -1.3524 0.586 0
M  V30 31 C -5.8277 -1.065 -1.6958 0
M  V30 32 O 3.2233 -1.2589 2.5091 0
M  V30 33 C 3.5196 -3.6915 2.5264 0
M  V30 34 C 2.3193 -4.9932 0.8741 0
M  V30 35 C 0.8387 -0.8239 -4.3439 0
M  V30 36 C -6.7189 -1.1848 -0.6574 0
M  V30 37 C 3.781 -1.1808 3.8159 0
M  V30 38 C 3.1999 -4.9258 1.9519 0
M  V30 39 O 1.4416 -2.0911 -4.6028 0
M  V30 40 H -1.1575 -1.9187 3.2103 0
M  V30 41 H 2.0628 1.1322 2.2006 0
M  V30 42 H -2.21 1.6588 1.9297 0
M  V30 43 H 2.3768 2.695 0.3501 0
M  V30 44 H -1.9176 3.2201 0.0882 0
M  V30 45 H 1.0866 -3.8876 -0.4892 0
M  V30 46 H -0.8163 -0.0344 -3.2281 0
M  V30 47 H -0.8607 -1.8226 -3.4662 0
M  V30 48 H 2.3752 4.897 -0.3927 0
M  V30 49 H 1.5261 5.933 -1.5359 0
M  V30 50 H 0.9278 5.7706 0.1228 0
M  V30 51 H 0.5887 2.4053 -2.6057 0
M  V30 52 H 1.332 3.9109 -3.169 0
M  V30 53 H 2.1729 2.8979 -1.9977 0
M  V30 54 H -1.355 5.229 -0.9813 0
M  V30 55 H -1.4848 3.8601 -2.1051 0
M  V30 56 H -0.5971 5.3101 -2.5721 0
M  V30 57 H -6.7804 -1.4558 1.4725 0
M  V30 58 H -6.1704 -0.9296 -2.7178 0
M  V30 59 H 4.2305 -3.6788 3.3459 0
M  V30 60 H 2.089 -5.9522 0.4171 0
M  V30 61 H 0.3848 -0.4741 -5.2757 0
M  V30 62 H 1.6261 -0.1283 -4.0358 0
M  V30 63 H -7.7886 -1.1496 -0.8086 0
M  V30 64 H 3.1871 -1.7469 4.5417 0
M  V30 65 H 3.7718 -0.13 4.1214 0
M  V30 66 H 4.8234 -1.5146 3.8134 0
M  V30 67 H 3.653 -5.8355 2.3387 0
M  V30 68 H 2.2037 -1.9297 -5.1845 0
M  V30 END ATOM
M  V30 BEGIN BOND
M  V30 1 2 1 2
M  V30 2 2 1 3
M  V30 3 1 1 4
M  V30 4 1 1 5
M  V30 5 1 4 6
M  V30 6 2 5 7
M  V30 7 1 5 8
M  V30 8 2 6 9
M  V30 9 1 6 10
M  V30 10 1 7 11
M  V30 11 2 8 12
M  V30 12 1 9 13
M  V30 13 1 10 14
M  V30 14 2 10 15
M  V30 15 2 11 16
M  V30 16 2 13 17
M  V30 17 1 13 18
M  V30 18 1 14 19
M  V30 19 1 15 20
M  V30 20 1 16 21
M  V30 21 2 18 22
M  V30 22 1 18 23
M  V30 23 2 19 24
M  V30 24 1 19 25
M  V30 25 1 20 26
M  V30 26 1 21 27
M  V30 27 1 21 28
M  V30 28 1 21 29
M  V30 29 1 22 30
M  V30 30 2 23 31
M  V30 31 1 24 32
M  V30 32 1 24 33
M  V30 33 2 25 34
M  V30 34 1 26 35
M  V30 35 2 30 36
M  V30 36 1 32 37
M  V30 37 2 33 38
M  V30 38 1 35 39
M  V30 39 1 12 16
M  V30 40 1 15 17
M  V30 41 1 31 36
M  V30 42 1 34 38
M  V30 43 1 4 40
M  V30 44 1 7 41
M  V30 45 1 8 42
M  V30 46 1 11 43
M  V30 47 1 12 44
M  V30 48 1 25 45
M  V30 49 1 26 46
M  V30 50 1 26 47
M  V30 51 1 27 48
M  V30 52 1 27 49
M  V30 53 1 27 50
M  V30 54 1 28 51
M  V30 55 1 28 52
M  V30 56 1 28 53
M  V30 57 1 29 54
M  V30 58 1 29 55
M  V30 59 1 29 56
M  V30 60 1 30 57
M  V30 61 1 31 58
M  V30 62 1 33 59
M  V30 63 1 34 60
M  V30 64 1 35 61
M  V30 65 1 35 62
M  V30 66 1 36 63
M  V30 67 1 37 64
M  V30 68 1 37 65
M  V30 69 1 37 66
M  V30 70 1 38 67
M  V30 71 1 39 68
M  V30 END BOND
M  V30 END CTAB
M  END
>  <NO.>
5317

>  <Name>
bosentan

>  <SMILES>
COc1ccccc1Oc1c(NS(=O)(=O)c2ccc(C(C)(C)C)cc2)nc(-c2ncccn2)nc1OCCO

>  <logBB>


>  <Class>
-1

>  <MW>
551.18

>  <nHBAcc>
10

>  <nHBDon>
2

>  <SLogP>
4.2

>  <TopoPSA>
145.65

>  <MMFF94 Energy>
68.574

$$$$
COc1cnc(NS(=O)(=O)c2ccc(N)cc2)nc1
Actelion Java MolfileCreator 2.0

  0  0  0  0  0  0              0 V3000
M  V30 BEGIN CTAB
M  V30 COUNTS 31 32 0 0 0
M  V30 BEGIN ATOM
M  V30 1 S -1.0475 -2.3379 0.2416 0
M  V30 2 O -0.8809 -3.7777 0.1836 0
M  V30 3 O -2.3208 -1.7737 0.6372 0
M  V30 4 N 0.1578 -1.7856 1.2412 0
M  V30 5 C -0.5947 -1.7161 -1.3582 0
M  V30 6 C 0.051 -0.4853 1.7153 0
M  V30 7 C -1.3479 -0.7054 -1.9568 0
M  V30 8 C 0.4913 -2.2816 -2.0295 0
M  V30 9 N 0.4975 -0.3409 2.9673 0
M  V30 10 N -0.2476 0.4962 0.8662 0
M  V30 11 C -0.9957 -0.2474 -3.2295 0
M  V30 12 C 0.8319 -1.815 -3.3021 0
M  V30 13 C 0.5492 0.9314 3.4234 0
M  V30 14 C -0.1765 1.7442 1.3768 0
M  V30 15 C 0.0861 -0.8049 -3.9178 0
M  V30 16 C 0.215 2.0357 2.6679 0
M  V30 17 N 0.4479 -0.3253 -5.1631 0
M  V30 18 O 0.2364 3.3429 3.0361 0
M  V30 19 C 0.6209 3.6188 4.3788 0
M  V30 20 H 0.4331 -2.4527 1.9518 0
M  V30 21 H -2.1956 -0.2626 -1.4392 0
M  V30 22 H 1.0723 -3.0787 -1.5727 0
M  V30 23 H -1.5785 0.5509 -3.6814 0
M  V30 24 H 1.6852 -2.2525 -3.8134 0
M  V30 25 H 0.8883 1.0119 4.4507 0
M  V30 26 H -0.4493 2.5388 0.6873 0
M  V30 27 H 1.186 -0.7728 -5.6884 0
M  V30 28 H -0.13 0.3562 -5.635 0
M  V30 29 H -0.0707 3.1551 5.0901 0
M  V30 30 H 0.5748 4.7023 4.5246 0
M  V30 31 H 1.6513 3.2989 4.5661 0
M  V30 END ATOM
M  V30 BEGIN BOND
M  V30 1 2 1 2
M  V30 2 2 1 3
M  V30 3 1 1 4
M  V30 4 1 1 5
M  V30 5 1 4 6
M  V30 6 2 5 7
M  V30 7 1 5 8
M  V30 8 2 6 9
M  V30 9 1 6 10
M  V30 10 1 7 11
M  V30 11 2 8 12
M  V30 12 1 9 13
M  V30 13 2 10 14
M  V30 14 2 11 15
M  V30 15 2 13 16
M  V30 16 1 15 17
M  V30 17 1 16 18
M  V30 18 1 18 19
M  V30 19 1 12 15
M  V30 20 1 14 16
M  V30 21 1 4 20
M  V30 22 1 7 21
M  V30 23 1 8 22
M  V30 24 1 11 23
M  V30 25 1 12 24
M  V30 26 1 13 25
M  V30 27 1 14 26
M  V30 28 1 17 27
M  V30 29 1 17 28
M  V30 30 1 19 29
M  V30 31 1 19 30
M  V30 32 1 19 31
M  V30 END BOND
M  V30 END CTAB
M  END
>  <NO.>
5318

>  <Name>
sulfameter

>  <SMILES>
COc1cnc(NS(=O)(=O)c2ccc(N)cc2)nc1

>  <logBB>


>  <Class>
-1

>  <MW>
280.06

>  <nHBAcc>
6

>  <nHBDon>
2

>  <SLogP>
0.87

>  <TopoPSA>
107.2

>  <MMFF94 Energy>
-106.86

$$$$
CS(=O)(=O)Nc1ccc([N+](=O)[O-])cc1Oc1ccccc1
Actelion Java MolfileCreator 2.0

  0  0  0  0  0  0              0 V3000
M  V30 BEGIN CTAB
M  V30 COUNTS 33 34 0 0 0
M  V30 BEGIN ATOM
M  V30 1 S 1.0577 2.2793 1.2205 0
M  V30 2 O 0.9091 1.4336 2.3826 0
M  V30 3 O 2.3292 2.8819 0.88 0
M  V30 4 N 0.5408 1.4789 -0.1642 0
M  V30 5 C -0.1255 3.604 1.3478 0
M  V30 6 C -0.6573 0.7116 -0.1295 0
M  V30 7 C -0.7221 -0.5502 0.4872 0
M  V30 8 C -1.8127 1.2669 -0.688 0
M  V30 9 O 0.3726 -1.172 1.0449 0
M  V30 10 C -1.9406 -1.227 0.5967 0
M  V30 11 C -3.0311 0.585 -0.6074 0
M  V30 12 C 1.4068 -1.4867 0.1909 0
M  V30 13 C -3.091 -0.6566 0.0425 0
M  V30 14 C 1.213 -2.1112 -1.0439 0
M  V30 15 C 2.698 -1.2101 0.6418 0
M  V30 16 N -4.3729 -1.3663 0.1363 0 CHG=1
M  V30 17 C 2.3152 -2.4246 -1.8415 0
M  V30 18 C 3.7971 -1.5211 -0.1583 0
M  V30 19 O -5.383 -0.7816 -0.2801 0
M  V30 20 O -4.3673 -2.506 0.6205 0 CHG=-1
M  V30 21 C 3.6051 -2.1256 -1.4007 0
M  V30 22 H 0.8084 1.9325 -1.036 0
M  V30 23 H -0.1323 4.1665 0.4123 0
M  V30 24 H -1.1105 3.19 1.569 0
M  V30 25 H 0.1892 4.2553 2.1666 0
M  V30 26 H -1.7808 2.2364 -1.1792 0
M  V30 27 H -1.9682 -2.1896 1.1034 0
M  V30 28 H -3.9208 1.0352 -1.0453 0
M  V30 29 H 0.217 -2.3698 -1.3886 0
M  V30 30 H 2.8439 -0.7382 1.6108 0
M  V30 31 H 2.1699 -2.9096 -2.8032 0
M  V30 32 H 4.8011 -1.2922 0.1893 0
M  V30 33 H 4.4628 -2.371 -2.0218 0
M  V30 END ATOM
M  V30 BEGIN BOND
M  V30 1 2 1 2
M  V30 2 2 1 3
M  V30 3 1 1 4
M  V30 4 1 1 5
M  V30 5 1 4 6
M  V30 6 2 6 7
M  V30 7 1 6 8
M  V30 8 1 7 9
M  V30 9 1 7 10
M  V30 10 2 8 11
M  V30 11 1 9 12
M  V30 12 2 10 13
M  V30 13 2 12 14
M  V30 14 1 12 15
M  V30 15 1 13 16
M  V30 16 1 14 17
M  V30 17 2 15 18
M  V30 18 2 16 19
M  V30 19 1 16 20
M  V30 20 2 17 21
M  V30 21 1 11 13
M  V30 22 1 18 21
M  V30 23 1 4 22
M  V30 24 1 5 23
M  V30 25 1 5 24
M  V30 26 1 5 25
M  V30 27 1 8 26
M  V30 28 1 10 27
M  V30 29 1 11 28
M  V30 30 1 14 29
M  V30 31 1 15 30
M  V30 32 1 17 31
M  V30 33 1 18 32
M  V30 34 1 21 33
M  V30 END BOND
M  V30 END CTAB
M  END
>  <NO.>
5319

>  <Name>
nimesulide

>  <SMILES>
CS(=O)(=O)Nc1ccc([N+](=O)[O-])cc1Oc1ccccc1

>  <logBB>


>  <Class>
-1

>  <MW>
308.05

>  <nHBAcc>
5

>  <nHBDon>
1

>  <SLogP>
2.76

>  <TopoPSA>
98.54

>  <MMFF94 Energy>
28.317

$$$$
C[N+]1(C)C2CCC1CC(OC(=O)C(O)c1ccccc1)C2
Actelion Java MolfileCreator 2.0

  0  0  0  0  0  0              0 V3000
M  V30 BEGIN CTAB
M  V30 COUNTS 45 47 0 0 0
M  V30 BEGIN ATOM
M  V30 1 O -1.994 -2.6327 0.2391 0
M  V30 2 C -1.8892 -1.7849 -0.6411 0
M  V30 3 O -0.7346 -1.1094 -0.9159 0
M  V30 4 C -3.0328 -1.3759 -1.5846 0
M  V30 5 C 0.3626 -1.3236 -0.0099 0
M  V30 6 O -4.2869 -1.8841 -1.1324 0
M  V30 7 C -3.1409 0.1301 -1.7252 0
M  V30 8 C 1.6386 -0.8492 -0.7243 0
M  V30 9 C 0.0972 -0.5897 1.3176 0
M  V30 10 C -2.6177 0.777 -2.856 0
M  V30 11 C -3.7259 0.909 -0.7134 0
M  V30 12 C 2.79 -0.5335 0.2395 0
M  V30 13 C 1.3757 -0.2966 2.1124 0
M  V30 14 C -2.681 2.167 -2.9712 0
M  V30 15 C -3.7886 2.2982 -0.8316 0
M  V30 16 N 2.3391 0.5393 1.2485 0 CHG=1
M  V30 17 C 3.0877 -1.7453 1.1373 0
M  V30 18 C 2.1674 -1.5921 2.3541 0
M  V30 19 C -3.2649 2.9265 -1.9592 0
M  V30 20 C 3.5284 1.0605 2.0826 0
M  V30 21 C 1.7188 1.7933 0.6247 0
M  V30 22 H -2.8366 -1.8404 -2.5575 0
M  V30 23 H 0.4651 -2.4006 0.1779 0
M  V30 24 H -4.1245 -2.7878 -0.8041 0
M  V30 25 H 1.4256 0.011 -1.3699 0
M  V30 26 H 1.9544 -1.6349 -1.4236 0
M  V30 27 H -0.5677 -1.2063 1.936 0
M  V30 28 H -0.4747 0.3292 1.1438 0
M  V30 29 H -2.1678 0.2027 -3.6631 0
M  V30 30 H -4.1611 0.4304 0.1625 0
M  V30 31 H 3.6731 -0.1675 -0.2943 0
M  V30 32 H 1.16 0.2533 3.0345 0
M  V30 33 H -2.2914 2.6575 -3.8601 0
M  V30 34 H -4.267 2.8883 -0.0535 0
M  V30 35 H 2.9274 -2.6984 0.6221 0
M  V30 36 H 4.1356 -1.739 1.4587 0
M  V30 37 H 1.5162 -2.4629 2.4852 0
M  V30 38 H 2.767 -1.5128 3.2683 0
M  V30 39 H -3.3327 4.0071 -2.0599 0
M  V30 40 H 4.0432 0.2353 2.5762 0
M  V30 41 H 4.217 1.573 1.4043 0
M  V30 42 H 3.1364 1.7535 2.8331 0
M  V30 43 H 2.4829 2.2768 0.0089 0
M  V30 44 H 0.8588 1.5424 0.0046 0
M  V30 45 H 1.4016 2.4532 1.4378 0
M  V30 END ATOM
M  V30 BEGIN BOND
M  V30 1 2 1 2
M  V30 2 1 2 3
M  V30 3 1 2 4
M  V30 4 1 3 5
M  V30 5 1 4 6
M  V30 6 1 4 7
M  V30 7 1 5 8
M  V30 8 1 5 9
M  V30 9 2 7 10
M  V30 10 1 7 11
M  V30 11 1 8 12
M  V30 12 1 9 13
M  V30 13 1 10 14
M  V30 14 2 11 15
M  V30 15 1 12 16
M  V30 16 1 12 17
M  V30 17 1 13 18
M  V30 18 2 14 19
M  V30 19 1 16 20
M  V30 20 1 16 21
M  V30 21 1 13 16
M  V30 22 1 15 19
M  V30 23 1 17 18
M  V30 24 1 4 22
M  V30 25 1 5 23
M  V30 26 1 6 24
M  V30 27 1 8 25
M  V30 28 1 8 26
M  V30 29 1 9 27
M  V30 30 1 9 28
M  V30 31 1 10 29
M  V30 32 1 11 30
M  V30 33 1 12 31
M  V30 34 1 13 32
M  V30 35 1 14 33
M  V30 36 1 15 34
M  V30 37 1 17 35
M  V30 38 1 17 36
M  V30 39 1 18 37
M  V30 40 1 18 38
M  V30 41 1 19 39
M  V30 42 1 20 40
M  V30 43 1 20 41
M  V30 44 1 20 42
M  V30 45 1 21 43
M  V30 46 1 21 44
M  V30 47 1 21 45
M  V30 END BOND
M  V30 END CTAB
M  END
>  <NO.>
5323

>  <Name>
homatropine methylbromide

>  <SMILES>
C[N+]1(C)C2CCC1CC(OC(=O)C(O)c1ccccc1)C2

>  <logBB>


>  <Class>
-1

>  <MW>
290.18

>  <nHBAcc>
3

>  <nHBDon>
1

>  <SLogP>
2.03

>  <TopoPSA>
46.53

>  <MMFF94 Energy>
91.767

$$$$
C[N+]1(C)CCC(=C(c2ccccc2)c2ccccc2)CC1
Actelion Java MolfileCreator 2.0

  0  0  0  0  0  0              0 V3000
M  V30 BEGIN CTAB
M  V30 COUNTS 45 47 0 0 0
M  V30 BEGIN ATOM
M  V30 1 N 1.9013 0.475 -2.4564 0 CHG=1
M  V30 2 C 1.425 1.5986 -1.512 0
M  V30 3 C 1.601 -0.9035 -1.8318 0
M  V30 4 C 1.2635 0.6066 -3.8359 0
M  V30 5 C 3.4161 0.6037 -2.6292 0
M  V30 6 C -0.0419 1.4322 -1.1014 0
M  V30 7 C 0.1325 -1.0487 -1.4185 0
M  V30 8 C -0.286 0.0682 -0.4757 0
M  V30 9 C -0.7941 -0.1265 0.7695 0
M  V30 10 C -1.1629 1.0376 1.608 0
M  V30 11 C -0.9843 -1.5029 1.2832 0
M  V30 12 C -0.245 1.5727 2.5212 0
M  V30 13 C -2.4342 1.6147 1.4914 0
M  V30 14 C -2.1659 -2.2016 1.0036 0
M  V30 15 C 0.0143 -2.1178 2.0494 0
M  V30 16 C -0.5931 2.6772 3.3009 0
M  V30 17 C -2.7784 2.7194 2.272 0
M  V30 18 C -2.341 -3.503 1.4767 0
M  V30 19 C -0.1644 -3.4192 2.5216 0
M  V30 20 C -1.8577 3.2507 3.1741 0
M  V30 21 C -1.3401 -4.111 2.2331 0
M  V30 22 H 2.0723 1.5675 -0.6267 0
M  V30 23 H 1.5835 2.5507 -2.0309 0
M  V30 24 H 2.2533 -1.006 -0.9557 0
M  V30 25 H 1.8798 -1.6641 -2.5697 0
M  V30 26 H 1.6549 -0.1918 -4.4733 0
M  V30 27 H 0.1792 0.5196 -3.751 0
M  V30 28 H 1.5299 1.5852 -4.2461 0
M  V30 29 H 3.8892 0.5115 -1.6471 0
M  V30 30 H 3.6317 1.5837 -3.0652 0
M  V30 31 H 3.7569 -0.1964 -3.2928 0
M  V30 32 H -0.2927 2.2603 -0.4325 0
M  V30 33 H -0.7014 1.547 -1.9694 0
M  V30 34 H -0.5201 -1.032 -2.2991 0
M  V30 35 H 0.0098 -2.0441 -0.9827 0
M  V30 36 H 0.7387 1.1283 2.6426 0
M  V30 37 H -3.166 1.2041 0.8 0
M  V30 38 H -2.9593 -1.7357 0.4243 0
M  V30 39 H 0.9296 -1.5867 2.2955 0
M  V30 40 H 0.1156 3.085 4.0178 0
M  V30 41 H -3.7689 3.1603 2.1855 0
M  V30 42 H -3.2627 -4.0401 1.2652 0
M  V30 43 H 0.6061 -3.8917 3.1259 0
M  V30 44 H -2.1316 4.1051 3.7892 0
M  V30 45 H -1.4829 -5.1214 2.6098 0
M  V30 END ATOM
M  V30 BEGIN BOND
M  V30 1 1 1 2
M  V30 2 1 1 3
M  V30 3 1 1 4
M  V30 4 1 1 5
M  V30 5 1 2 6
M  V30 6 1 3 7
M  V30 7 1 6 8
M  V30 8 2 8 9
M  V30 9 1 9 10
M  V30 10 1 9 11
M  V30 11 2 10 12
M  V30 12 1 10 13
M  V30 13 2 11 14
M  V30 14 1 11 15
M  V30 15 1 12 16
M  V30 16 2 13 17
M  V30 17 1 14 18
M  V30 18 2 15 19
M  V30 19 2 16 20
M  V30 20 2 18 21
M  V30 21 1 7 8
M  V30 22 1 17 20
M  V30 23 1 19 21
M  V30 24 1 2 22
M  V30 25 1 2 23
M  V30 26 1 3 24
M  V30 27 1 3 25
M  V30 28 1 4 26
M  V30 29 1 4 27
M  V30 30 1 4 28
M  V30 31 1 5 29
M  V30 32 1 5 30
M  V30 33 1 5 31
M  V30 34 1 6 32
M  V30 35 1 6 33
M  V30 36 1 7 34
M  V30 37 1 7 35
M  V30 38 1 12 36
M  V30 39 1 13 37
M  V30 40 1 14 38
M  V30 41 1 15 39
M  V30 42 1 16 40
M  V30 43 1 17 41
M  V30 44 1 18 42
M  V30 45 1 19 43
M  V30 46 1 20 44
M  V30 47 1 21 45
M  V30 END BOND
M  V30 END CTAB
M  END
>  <NO.>
5324

>  <Name>
diphemanil

>  <SMILES>
C[N+]1(C)CCC(=C(c2ccccc2)c2ccccc2)CC1

>  <logBB>


>  <Class>
-1

>  <MW>
278.19

>  <nHBAcc>
0

>  <nHBDon>
0

>  <SLogP>
4.36

>  <TopoPSA>
0

>  <MMFF94 Energy>
102.57

$$$$
C[N+]1(C)CCN(CC(O)(c2ccccc2)C2CCCCC2)CC1
Actelion Java MolfileCreator 2.0

  0  0  0  0  0  0              0 V3000
M  V30 BEGIN CTAB
M  V30 COUNTS 56 58 0 0 0
M  V30 BEGIN ATOM
M  V30 1 O 1.1869 -0.1581 1.5828 0
M  V30 2 C 0.782 -1.0205 0.504 0 CFG=2
M  V30 3 C 0.9117 -2.4875 0.9824 0
M  V30 4 C 1.6964 -0.6969 -0.7426 0
M  V30 5 C -0.766 -0.8153 0.2437 0
M  V30 6 C 0.9167 -2.8046 2.3552 0
M  V30 7 C 0.9526 -3.5567 0.0677 0
M  V30 8 C 1.6144 0.7707 -1.2221 0
M  V30 9 C 3.1889 -1.029 -0.4681 0
M  V30 10 N -1.3212 0.5204 -0.1108 0
M  V30 11 C 1.0037 -4.1288 2.7923 0
M  V30 12 C 1.0401 -4.8807 0.5066 0
M  V30 13 C 2.5201 1.0508 -2.4227 0
M  V30 14 C 4.0764 -0.769 -1.6832 0
M  V30 15 C -2.7452 0.3853 -0.4777 0
M  V30 16 C -1.1508 1.5033 0.976 0
M  V30 17 C 1.0706 -5.1657 1.8678 0
M  V30 18 C 3.968 0.6753 -2.148 0
M  V30 19 C -3.4091 1.7284 -0.8485 0
M  V30 20 C -1.7763 2.8797 0.6575 0
M  V30 21 N -3.2656 2.7777 0.2713 0 CHG=1
M  V30 22 C -3.7268 4.1298 -0.2607 0
M  V30 23 C -4.1197 2.4201 1.4783 0
M  V30 24 H 2.058 -0.4749 1.8824 0
M  V30 25 H 1.3653 -1.3191 -1.5843 0
M  V30 26 H -1.0381 -1.5036 -0.569 0
M  V30 27 H -1.3098 -1.1635 1.1349 0
M  V30 28 H 0.8416 -2.0233 3.1091 0
M  V30 29 H 0.9179 -3.3824 -1.0048 0
M  V30 30 H 0.5988 1.0181 -1.5362 0
M  V30 31 H 1.8818 1.4512 -0.4049 0
M  V30 32 H 3.312 -2.078 -0.1818 0
M  V30 33 H 3.5617 -0.4273 0.3696 0
M  V30 34 H 1.0154 -4.351 3.8568 0
M  V30 35 H 1.0836 -5.6918 -0.2166 0
M  V30 36 H 2.4596 2.1128 -2.6868 0
M  V30 37 H 2.1551 0.487 -3.2902 0
M  V30 38 H 3.789 -1.4438 -2.4986 0
M  V30 39 H 5.1187 -0.9963 -1.4322 0
M  V30 40 H -3.3101 -0.0937 0.3314 0
M  V30 41 H -2.8299 -0.2709 -1.3525 0
M  V30 42 H -0.0897 1.7033 1.1405 0
M  V30 43 H -1.5601 1.118 1.9175 0
M  V30 44 H 1.1405 -6.1961 2.2078 0
M  V30 45 H 4.5674 0.8201 -3.0536 0
M  V30 46 H 4.3808 1.3412 -1.3803 0
M  V30 47 H -4.4795 1.5992 -1.0439 0
M  V30 48 H -2.9324 2.147 -1.7433 0
M  V30 49 H -1.2566 3.3356 -0.1942 0
M  V30 50 H -1.7042 3.5546 1.5179 0
M  V30 51 H -3.6022 4.8739 0.5317 0
M  V30 52 H -4.7792 4.0469 -0.548 0
M  V30 53 H -3.1156 4.3935 -1.1289 0
M  V30 54 H -3.9958 3.2034 2.2322 0
M  V30 55 H -3.8023 1.4582 1.8842 0
M  V30 56 H -5.164 2.3655 1.1567 0
M  V30 END ATOM
M  V30 BEGIN BOND
M  V30 1 1 1 2
M  V30 2 1 2 3
M  V30 3 1 2 4
M  V30 4 1 2 5
M  V30 5 2 3 6
M  V30 6 1 3 7
M  V30 7 1 4 8
M  V30 8 1 4 9
M  V30 9 1 5 10
M  V30 10 1 6 11
M  V30 11 2 7 12
M  V30 12 1 8 13
M  V30 13 1 9 14
M  V30 14 1 10 15
M  V30 15 1 10 16
M  V30 16 2 11 17
M  V30 17 1 13 18
M  V30 18 1 15 19
M  V30 19 1 16 20
M  V30 20 1 19 21
M  V30 21 1 21 22
M  V30 22 1 21 23
M  V30 23 1 12 17
M  V30 24 1 14 18
M  V30 25 1 20 21
M  V30 26 1 1 24
M  V30 27 1 4 25
M  V30 28 1 5 26
M  V30 29 1 5 27
M  V30 30 1 6 28
M  V30 31 1 7 29
M  V30 32 1 8 30
M  V30 33 1 8 31
M  V30 34 1 9 32
M  V30 35 1 9 33
M  V30 36 1 11 34
M  V30 37 1 12 35
M  V30 38 1 13 36
M  V30 39 1 13 37
M  V30 40 1 14 38
M  V30 41 1 14 39
M  V30 42 1 15 40
M  V30 43 1 15 41
M  V30 44 1 16 42
M  V30 45 1 16 43
M  V30 46 1 17 44
M  V30 47 1 18 45
M  V30 48 1 18 46
M  V30 49 1 19 47
M  V30 50 1 19 48
M  V30 51 1 20 49
M  V30 52 1 20 50
M  V30 53 1 22 51
M  V30 54 1 22 52
M  V30 55 1 22 53
M  V30 56 1 23 54
M  V30 57 1 23 55
M  V30 58 1 23 56
M  V30 END BOND
M  V30 BEGIN COLLECTION
M  V30 MDLV30/STERAC1 ATOMS=(1 2)
M  V30 END COLLECTION
M  V30 END CTAB
M  END
>  <NO.>
5325

>  <Name>
hexocyclium

>  <SMILES>
C[N+]1(C)CCN(CC(O)(c2ccccc2)C2CCCCC2)CC1

>  <logBB>


>  <Class>
-1

>  <MW>
317.26

>  <nHBAcc>
2

>  <nHBDon>
1

>  <SLogP>
2.85

>  <TopoPSA>
23.47

>  <MMFF94 Energy>
169.29

$$$$
Cc1c(-c2ccccc2)oc2c(C(=O)OCCN3CCCCC3)cccc2c1=O
Actelion Java MolfileCreator 2.0

  0  0  0  0  0  0              0 V3000
M  V30 BEGIN CTAB
M  V30 COUNTS 54 57 0 0 0
M  V30 BEGIN ATOM
M  V30 1 O 2.8015 2.1606 5.1274 0
M  V30 2 C 2.0518 1.5193 4.4001 0
M  V30 3 C 2.3397 1.3722 2.9656 0
M  V30 4 C 0.8245 0.8637 4.9205 0
M  V30 5 C 1.4572 0.6468 2.1713 0
M  V30 6 C 3.4887 1.9542 2.4147 0
M  V30 7 C 0.0381 0.2248 4.0327 0
M  V30 8 C 0.6175 0.9744 6.4018 0
M  V30 9 O 0.3099 0.1016 2.6813 0
M  V30 10 C 1.7328 0.4926 0.8068 0
M  V30 11 C 3.7587 1.8077 1.0554 0
M  V30 12 C -1.2237 -0.4403 4.4028 0
M  V30 13 C 0.8353 -0.3186 -0.0477 0
M  V30 14 C 2.8846 1.0756 0.2515 0
M  V30 15 C -2.3008 0.2879 4.9282 0
M  V30 16 C -1.3738 -1.8173 4.1907 0
M  V30 17 O 0.308 -1.3616 0.2961 0
M  V30 18 O 0.7031 0.2924 -1.2518 0
M  V30 19 C -3.4953 -0.3552 5.2603 0
M  V30 20 C -2.5692 -2.4586 4.5221 0
M  V30 21 C -0.1813 -0.388 -2.16 0
M  V30 22 C -3.6275 -1.7281 5.0599 0
M  V30 23 C -0.209 0.3964 -3.4804 0
M  V30 24 N -1.193 -0.0951 -4.4594 0
M  V30 25 C -0.9064 -1.4431 -4.9726 0
M  V30 26 C -1.3693 0.8496 -5.5749 0
M  V30 27 C 0.2901 -1.5048 -5.9251 0
M  V30 28 C -0.1935 0.8809 -6.5551 0
M  V30 29 C 0.1317 -0.5152 -7.0749 0
M  V30 30 H 4.1722 2.5207 3.0451 0
M  V30 31 H 0.357 2.003 6.6721 0
M  V30 32 H 1.5313 0.6969 6.9388 0
M  V30 33 H -0.1708 0.3159 6.7759 0
M  V30 34 H 4.6513 2.2574 0.6261 0
M  V30 35 H 3.1108 0.9527 -0.8056 0
M  V30 36 H -2.2196 1.3621 5.0771 0
M  V30 37 H -0.5615 -2.3977 3.7576 0
M  V30 38 H -4.3247 0.2164 5.6689 0
M  V30 39 H -2.6753 -3.5269 4.3523 0
M  V30 40 H -1.1862 -0.4254 -1.7226 0
M  V30 41 H 0.1919 -1.4049 -2.3206 0
M  V30 42 H -4.5588 -2.2279 5.3138 0
M  V30 43 H -0.451 1.4368 -3.2231 0
M  V30 44 H 0.8057 0.4327 -3.8947 0
M  V30 45 H -1.7978 -1.8003 -5.5058 0
M  V30 46 H -0.7666 -2.1566 -4.154 0
M  V30 47 H -1.5601 1.86 -5.1925 0
M  V30 48 H -2.2798 0.5708 -6.1215 0
M  V30 49 H 0.3855 -2.5196 -6.3282 0
M  V30 50 H 1.2184 -1.2945 -5.3812 0
M  V30 51 H 0.6916 1.3086 -6.0695 0
M  V30 52 H -0.4367 1.5375 -7.3984 0
M  V30 53 H 1.0461 -0.489 -7.6776 0
M  V30 54 H -0.677 -0.8532 -7.7347 0
M  V30 END ATOM
M  V30 BEGIN BOND
M  V30 1 2 1 2
M  V30 2 1 2 3
M  V30 3 1 2 4
M  V30 4 2 3 5
M  V30 5 1 3 6
M  V30 6 2 4 7
M  V30 7 1 4 8
M  V30 8 1 5 9
M  V30 9 1 5 10
M  V30 10 2 6 11
M  V30 11 1 7 12
M  V30 12 1 10 13
M  V30 13 2 10 14
M  V30 14 2 12 15
M  V30 15 1 12 16
M  V30 16 2 13 17
M  V30 17 1 13 18
M  V30 18 1 15 19
M  V30 19 2 16 20
M  V30 20 1 18 21
M  V30 21 2 19 22
M  V30 22 1 21 23
M  V30 23 1 23 24
M  V30 24 1 24 25
M  V30 25 1 24 26
M  V30 26 1 25 27
M  V30 27 1 26 28
M  V30 28 1 27 29
M  V30 29 1 7 9
M  V30 30 1 11 14
M  V30 31 1 20 22
M  V30 32 1 28 29
M  V30 33 1 6 30
M  V30 34 1 8 31
M  V30 35 1 8 32
M  V30 36 1 8 33
M  V30 37 1 11 34
M  V30 38 1 14 35
M  V30 39 1 15 36
M  V30 40 1 16 37
M  V30 41 1 19 38
M  V30 42 1 20 39
M  V30 43 1 21 40
M  V30 44 1 21 41
M  V30 45 1 22 42
M  V30 46 1 23 43
M  V30 47 1 23 44
M  V30 48 1 25 45
M  V30 49 1 25 46
M  V30 50 1 26 47
M  V30 51 1 26 48
M  V30 52 1 27 49
M  V30 53 1 27 50
M  V30 54 1 28 51
M  V30 55 1 28 52
M  V30 56 1 29 53
M  V30 57 1 29 54
M  V30 END BOND
M  V30 END CTAB
M  END
>  <NO.>
5327

>  <Name>
flavoxate

>  <SMILES>
Cc1c(-c2ccccc2)oc2c(C(=O)OCCN3CCCCC3)cccc2c1=O

>  <logBB>


>  <Class>
-1

>  <MW>
391.18

>  <nHBAcc>
5

>  <nHBDon>
0

>  <SLogP>
4.41

>  <TopoPSA>
59.75

>  <MMFF94 Energy>
79.751

$$$$
Cc1c(C(C)C)c(=O)n(-c2ccccc2)n1C
Actelion Java MolfileCreator 2.0

  0  0  0  0  0  0              0 V3000
M  V30 BEGIN CTAB
M  V30 COUNTS 35 36 0 0 0
M  V30 BEGIN ATOM
M  V30 1 O -0.7067 1.3353 1.4925 0
M  V30 2 C -0.2183 0.4444 0.816 0
M  V30 3 N 0.1137 0.4445 -0.5388 0
M  V30 4 C 0.0979 -0.9258 1.3291 0
M  V30 5 N 0.6148 -0.8181 -0.8861 0
M  V30 6 C -0.3435 1.3795 -1.484 0
M  V30 7 C 0.5803 -1.6007 0.2662 0
M  V30 8 C -0.1128 -1.3387 2.7521 0
M  V30 9 C 1.6625 -0.9014 -1.895 0
M  V30 10 C -0.9867 0.9637 -2.6564 0
M  V30 11 C -0.1764 2.7478 -1.2457 0
M  V30 12 C 1.0637 -3.0145 0.2403 0
M  V30 13 C 0.7271 -0.5028 3.7201 0
M  V30 14 C -1.5921 -1.3042 3.1409 0
M  V30 15 C -1.4383 1.9029 -3.5861 0
M  V30 16 C -0.6282 3.6869 -2.1757 0
M  V30 17 C -1.2558 3.264 -3.3464 0
M  V30 18 H 0.2174 -2.3766 2.8736 0
M  V30 19 H 2.6147 -0.5473 -1.4852 0
M  V30 20 H 1.4338 -0.3085 -2.7846 0
M  V30 21 H 1.7943 -1.9355 -2.2299 0
M  V30 22 H -1.1544 -0.0937 -2.8424 0
M  V30 23 H 0.303 3.0912 -0.3319 0
M  V30 24 H 2.1442 -3.0465 0.0674 0
M  V30 25 H 0.8608 -3.5478 1.1722 0
M  V30 26 H 0.5677 -3.5688 -0.5633 0
M  V30 27 H 0.407 0.5438 3.7456 0
M  V30 28 H 0.6421 -0.8972 4.7388 0
M  V30 29 H 1.7866 -0.5267 3.4423 0
M  V30 30 H -1.9946 -0.2859 3.1387 0
M  V30 31 H -2.1935 -1.9075 2.4519 0
M  V30 32 H -1.7327 -1.7115 4.1482 0
M  V30 33 H -1.9402 1.5724 -4.4915 0
M  V30 34 H -0.4959 4.7479 -1.9805 0
M  V30 35 H -1.6119 3.9961 -4.0666 0
M  V30 END ATOM
M  V30 BEGIN BOND
M  V30 1 2 1 2
M  V30 2 1 2 3
M  V30 3 1 2 4
M  V30 4 1 3 5
M  V30 5 1 3 6
M  V30 6 2 4 7
M  V30 7 1 4 8
M  V30 8 1 5 9
M  V30 9 2 6 10
M  V30 10 1 6 11
M  V30 11 1 7 12
M  V30 12 1 8 13
M  V30 13 1 8 14
M  V30 14 1 10 15
M  V30 15 2 11 16
M  V30 16 2 15 17
M  V30 17 1 5 7
M  V30 18 1 16 17
M  V30 19 1 8 18
M  V30 20 1 9 19
M  V30 21 1 9 20
M  V30 22 1 9 21
M  V30 23 1 10 22
M  V30 24 1 11 23
M  V30 25 1 12 24
M  V30 26 1 12 25
M  V30 27 1 12 26
M  V30 28 1 13 27
M  V30 29 1 13 28
M  V30 30 1 13 29
M  V30 31 1 14 30
M  V30 32 1 14 31
M  V30 33 1 14 32
M  V30 34 1 15 33
M  V30 35 1 16 34
M  V30 36 1 17 35
M  V30 END BOND
M  V30 END CTAB
M  END
>  <NO.>
5328

>  <Name>
propyphenazone

>  <SMILES>
Cc1c(C(C)C)c(=O)n(-c2ccccc2)n1C

>  <logBB>


>  <Class>
-1

>  <MW>
230.14

>  <nHBAcc>
1

>  <nHBDon>
0

>  <SLogP>
2.61

>  <TopoPSA>
26.93

>  <MMFF94 Energy>
65.82

$$$$
Cc1c(Cl)cccc1Nc1ncccc1C(=O)O
Actelion Java MolfileCreator 2.0

  0  0  0  0  0  0              0 V3000
M  V30 BEGIN CTAB
M  V30 COUNTS 29 30 0 0 0
M  V30 BEGIN ATOM
M  V30 1 Cl 0.6435 -1.9316 4.2694 0
M  V30 2 C -0.3083 -1.8428 2.8243 0
M  V30 3 C 0.1726 -1.2233 1.6511 0
M  V30 4 C -1.5818 -2.4168 2.8722 0
M  V30 5 C -0.6807 -1.1496 0.5271 0
M  V30 6 C 1.576 -0.6742 1.6159 0
M  V30 7 C -2.4044 -2.3754 1.7546 0
M  V30 8 N -0.3657 -0.4539 -0.6564 0
M  V30 9 C -1.9574 -1.7415 0.5975 0
M  V30 10 C 0.0809 0.8714 -0.8295 0
M  V30 11 N 0.1134 1.6909 0.2532 0
M  V30 12 C 0.5327 1.3203 -2.0795 0
M  V30 13 C 0.5958 2.9447 0.1116 0
M  V30 14 C 0.5141 0.5009 -3.3103 0
M  V30 15 C 1.0398 2.6234 -2.194 0
M  V30 16 C 1.0711 3.4521 -1.0804 0
M  V30 17 O 1.1738 0.7172 -4.3111 0
M  V30 18 O -0.3747 -0.5122 -3.2818 0
M  V30 19 H -1.9358 -2.8948 3.782 0
M  V30 20 H 2.2795 -1.3704 2.0849 0
M  V30 21 H 1.623 0.2859 2.1383 0
M  V30 22 H 1.9462 -0.5442 0.5951 0
M  V30 23 H -3.3973 -2.8151 1.7885 0
M  V30 24 H -0.8025 -0.8181 -1.5011 0
M  V30 25 H -2.6298 -1.6826 -0.2557 0
M  V30 26 H 0.5919 3.5446 1.0177 0
M  V30 27 H 1.4056 2.9915 -3.1503 0
M  V30 28 H 1.4546 4.4645 -1.1417 0
M  V30 29 H -0.2767 -0.9198 -4.1712 0
M  V30 END ATOM
M  V30 BEGIN BOND
M  V30 1 1 1 2
M  V30 2 2 2 3
M  V30 3 1 2 4
M  V30 4 1 3 5
M  V30 5 1 3 6
M  V30 6 2 4 7
M  V30 7 1 5 8
M  V30 8 2 5 9
M  V30 9 1 8 10
M  V30 10 2 10 11
M  V30 11 1 10 12
M  V30 12 1 11 13
M  V30 13 1 12 14
M  V30 14 2 12 15
M  V30 15 2 13 16
M  V30 16 2 14 17
M  V30 17 1 14 18
M  V30 18 1 7 9
M  V30 19 1 15 16
M  V30 20 1 4 19
M  V30 21 1 6 20
M  V30 22 1 6 21
M  V30 23 1 6 22
M  V30 24 1 7 23
M  V30 25 1 8 24
M  V30 26 1 9 25
M  V30 27 1 13 26
M  V30 28 1 15 27
M  V30 29 1 16 28
M  V30 30 1 18 29
M  V30 END BOND
M  V30 END CTAB
M  END
>  <NO.>
5329

>  <Name>
clonixin

>  <SMILES>
Cc1c(Cl)cccc1Nc1ncccc1C(=O)O

>  <logBB>


>  <Class>
-1

>  <MW>
262.05

>  <nHBAcc>
3

>  <nHBDon>
2

>  <SLogP>
3.49

>  <TopoPSA>
62.22

>  <MMFF94 Energy>
20.751

$$$$
Cc1c(N(C)CS(=O)(=O)O)c(=O)n(-c2ccccc2)n1C
Actelion Java MolfileCreator 2.0

  0  0  0  0  0  0              0 V3000
M  V30 BEGIN CTAB
M  V30 COUNTS 38 39 0 0 0
M  V30 BEGIN ATOM
M  V30 1 S 0.2413 3.7862 1.2072 0
M  V30 2 O 0.2183 5.2178 0.9984 0
M  V30 3 O 1.3655 2.9664 0.8117 0
M  V30 4 O 0.0934 3.5294 2.8013 0
M  V30 5 C -1.3598 3.0473 0.6847 0
M  V30 6 N -1.6862 1.6757 1.1906 0
M  V30 7 C -1.0248 0.5433 0.7101 0
M  V30 8 C -2.6234 1.6527 2.3064 0
M  V30 9 C -0.3629 0.4903 -0.6696 0
M  V30 10 C -0.8078 -0.6956 1.2099 0
M  V30 11 O -0.3259 1.4254 -1.4568 0
M  V30 12 N 0.1768 -0.7853 -0.809 0
M  V30 13 N -0.1092 -1.5315 0.3363 0
M  V30 14 C -1.197 -1.2161 2.5571 0
M  V30 15 C 1.1568 -1.1568 -1.7459 0
M  V30 16 C -0.3911 -2.954 0.1794 0
M  V30 17 C 2.3389 -1.7875 -1.3379 0
M  V30 18 C 0.9646 -0.8793 -3.1034 0
M  V30 19 C 3.3062 -2.1519 -2.2771 0
M  V30 20 C 1.932 -1.2441 -4.0425 0
M  V30 21 C 3.1003 -1.8827 -3.6293 0
M  V30 22 H 0.6339 2.7362 3.0088 0
M  V30 23 H -1.4085 3.1094 -0.4041 0
M  V30 24 H -2.1103 3.7635 1.0433 0
M  V30 25 H -3.3581 2.462 2.2309 0
M  V30 26 H -2.0924 1.7659 3.2565 0
M  V30 27 H -3.1992 0.7215 2.3232 0
M  V30 28 H -0.4094 -1.862 2.961 0
M  V30 29 H -2.1204 -1.7996 2.4906 0
M  V30 30 H -1.3349 -0.4199 3.2912 0
M  V30 31 H 0.3602 -3.4618 -0.4312 0
M  V30 32 H -0.4009 -3.4595 1.1506 0
M  V30 33 H -1.3692 -3.0981 -0.2925 0
M  V30 34 H 2.5202 -1.9803 -0.2838 0
M  V30 35 H 0.0623 -0.3729 -3.4385 0
M  V30 36 H 4.2237 -2.635 -1.9519 0
M  V30 37 H 1.7755 -1.0209 -5.0947 0
M  V30 38 H 3.8556 -2.1594 -4.3603 0
M  V30 END ATOM
M  V30 BEGIN BOND
M  V30 1 2 1 2
M  V30 2 2 1 3
M  V30 3 1 1 4
M  V30 4 1 1 5
M  V30 5 1 5 6
M  V30 6 1 6 7
M  V30 7 1 6 8
M  V30 8 1 7 9
M  V30 9 2 7 10
M  V30 10 2 9 11
M  V30 11 1 9 12
M  V30 12 1 10 13
M  V30 13 1 10 14
M  V30 14 1 12 15
M  V30 15 1 13 16
M  V30 16 2 15 17
M  V30 17 1 15 18
M  V30 18 1 17 19
M  V30 19 2 18 20
M  V30 20 2 19 21
M  V30 21 1 12 13
M  V30 22 1 20 21
M  V30 23 1 4 22
M  V30 24 1 5 23
M  V30 25 1 5 24
M  V30 26 1 8 25
M  V30 27 1 8 26
M  V30 28 1 8 27
M  V30 29 1 14 28
M  V30 30 1 14 29
M  V30 31 1 14 30
M  V30 32 1 16 31
M  V30 33 1 16 32
M  V30 34 1 16 33
M  V30 35 1 17 34
M  V30 36 1 18 35
M  V30 37 1 19 36
M  V30 38 1 20 37
M  V30 39 1 21 38
M  V30 END BOND
M  V30 END CTAB
M  END
>  <NO.>
5330

>  <Name>
dipyrone

>  <SMILES>
Cc1c(N(C)CS(=O)(=O)O)c(=O)n(-c2ccccc2)n1C

>  <logBB>


>  <Class>
-1

>  <MW>
311.09

>  <nHBAcc>
4

>  <nHBDon>
1

>  <SLogP>
0.77

>  <TopoPSA>
84.54

>  <MMFF94 Energy>
150.69

$$$$
Cc1c(OCC(F)(F)F)ccnc1C[S+]([O-])c1nc2ccccc2[nH]1
Actelion Java MolfileCreator 2.0

  0  0  0  0  0  0              0 V3000
M  V30 BEGIN CTAB
M  V30 COUNTS 39 41 0 0 0
M  V30 BEGIN ATOM
M  V30 1 S -0.2461 -1.7238 0.2461 0 CFG=2
M  V30 2 O 0.3049 -1.2623 1.5675 0
M  V30 3 C 1.1242 -2.5927 -0.5389 0
M  V30 4 C -0.2971 -0.3251 -0.9128 0
M  V30 5 N 1.2414 -2.8261 -1.8273 0
M  V30 6 N 2.1878 -3.0871 0.1657 0
M  V30 7 C -1.3934 0.6478 -0.5586 0
M  V30 8 C 2.4305 -3.5034 -1.9583 0
M  V30 9 C 3.0464 -3.6785 -0.7222 0
M  V30 10 N -2.56 0.4471 -1.2302 0
M  V30 11 C -1.2474 1.6694 0.3929 0
M  V30 12 C 3.0552 -4.002 -3.1103 0
M  V30 13 C 4.2703 -4.33 -0.5595 0
M  V30 14 C -3.5997 1.2575 -0.9587 0
M  V30 15 C -2.3665 2.4844 0.6602 0
M  V30 16 C 0.0219 1.8881 1.1734 0
M  V30 17 C 4.284 -4.6613 -2.9759 0
M  V30 18 C 4.8783 -4.8204 -1.7211 0
M  V30 19 C -3.5554 2.2784 -0.0313 0
M  V30 20 O -2.1832 3.4512 1.6162 0
M  V30 21 C -3.308 4.2589 1.9795 0
M  V30 22 C -2.9264 5.2413 3.0767 0
M  V30 23 F -2.5161 4.6107 4.1984 0
M  V30 24 F -1.9439 6.0801 2.6813 0
M  V30 25 F -3.9954 6.0042 3.4118 0
M  V30 26 H 0.6803 0.1622 -0.9644 0
M  V30 27 H -0.4997 -0.7319 -1.9107 0
M  V30 28 H 2.303 -3.0002 1.1659 0
M  V30 29 H 2.5898 -3.8755 -4.0815 0
M  V30 30 H 4.7324 -4.4544 0.4139 0
M  V30 31 H -4.5041 1.054 -1.5255 0
M  V30 32 H 0.2636 2.9556 1.2243 0
M  V30 33 H 0.8921 1.4069 0.7232 0
M  V30 34 H -0.0961 1.5019 2.1909 0
M  V30 35 H 4.7795 -5.0534 -3.8611 0
M  V30 36 H 5.8335 -5.3366 -1.645 0
M  V30 37 H -4.4446 2.8751 0.122 0
M  V30 38 H -4.1199 3.6218 2.3493 0
M  V30 39 H -3.6514 4.8283 1.1081 0
M  V30 END ATOM
M  V30 BEGIN BOND
M  V30 1 2 1 2
M  V30 2 1 1 3
M  V30 3 1 1 4
M  V30 4 2 3 5
M  V30 5 1 3 6
M  V30 6 1 4 7
M  V30 7 1 5 8
M  V30 8 1 6 9
M  V30 9 2 7 10
M  V30 10 1 7 11
M  V30 11 1 8 12
M  V30 12 1 9 13
M  V30 13 1 10 14
M  V30 14 2 11 15
M  V30 15 1 11 16
M  V30 16 2 12 17
M  V30 17 2 13 18
M  V30 18 2 14 19
M  V30 19 1 15 20
M  V30 20 1 20 21
M  V30 21 1 21 22
M  V30 22 1 22 23
M  V30 23 1 22 24
M  V30 24 1 22 25
M  V30 25 2 8 9
M  V30 26 1 15 19
M  V30 27 1 17 18
M  V30 28 1 4 26
M  V30 29 1 4 27
M  V30 30 1 6 28
M  V30 31 1 12 29
M  V30 32 1 13 30
M  V30 33 1 14 31
M  V30 34 1 16 32
M  V30 35 1 16 33
M  V30 36 1 16 34
M  V30 37 1 17 35
M  V30 38 1 18 36
M  V30 39 1 19 37
M  V30 40 1 21 38
M  V30 41 1 21 39
M  V30 END BOND
M  V30 BEGIN COLLECTION
M  V30 MDLV30/STERAC1 ATOMS=(1 1)
M  V30 END COLLECTION
M  V30 END CTAB
M  END
>  <NO.>
5331

>  <Name>
lansoprazole

>  <SMILES>
Cc1c(OCC(F)(F)F)ccnc1C[S+]([O-])c1nc2ccccc2[nH]1

>  <logBB>


>  <Class>
-1

>  <MW>
369.08

>  <nHBAcc>
4

>  <nHBDon>
1

>  <SLogP>
3.52

>  <TopoPSA>
73.86

>  <MMFF94 Energy>
68.727

$$$$
Cc1cc(C(=O)NCCc2ccc(S(=O)(=O)NC(=O)NC3CCCCC3)cc2)no1
Actelion Java MolfileCreator 2.0

  0  0  0  0  0  0              0 V3000
M  V30 BEGIN CTAB
M  V30 COUNTS 56 58 0 0 0
M  V30 BEGIN ATOM
M  V30 1 S -1.9264 1.6051 -2.5692 0
M  V30 2 O -2.9101 2.6514 -2.7391 0
M  V30 3 O -2.309 0.218 -2.3999 0
M  V30 4 N -0.8823 1.7023 -3.8448 0
M  V30 5 C -0.8816 2.0586 -1.2061 0
M  V30 6 C 0.1572 0.8499 -4.1814 0
M  V30 7 C -0.3458 1.0715 -0.376 0
M  V30 8 C -0.6352 3.4114 -0.9563 0
M  V30 9 O 0.9947 1.2286 -4.9852 0
M  V30 10 N 0.1518 -0.3819 -3.6048 0
M  V30 11 C 0.4674 1.4426 0.6954 0
M  V30 12 C 0.1763 3.7759 0.119 0
M  V30 13 C 1.1648 -1.3913 -3.872 0
M  V30 14 C 0.7391 2.7954 0.9491 0
M  V30 15 C 1.4195 -2.2451 -2.6236 0
M  V30 16 C 0.7663 -2.2604 -5.0718 0
M  V30 17 C 1.6013 3.1932 2.1266 0
M  V30 18 C 0.2688 -3.2022 -2.3121 0
M  V30 19 C -0.3924 -3.204 -4.7505 0
M  V30 20 C 0.781 3.5085 3.3819 0
M  V30 21 C -0.0981 -4.0574 -3.5207 0
M  V30 22 N 0.1079 2.3461 3.9207 0
M  V30 23 C 0.7359 1.4248 4.7299 0
M  V30 24 O 1.9091 1.5239 5.0776 0
M  V30 25 C -0.1118 0.3006 5.1301 0
M  V30 26 N -1.3842 0.1818 4.7073 0
M  V30 27 C 0.241 -0.7867 5.9685 0
M  V30 28 O -1.8643 -0.9852 5.2742 0
M  V30 29 C -0.8899 -1.5603 6.027 0
M  V30 30 C -1.2427 -2.8201 6.7041 0
M  V30 31 H -0.915 2.5801 -4.3529 0
M  V30 32 H -0.553 0.0182 -0.548 0
M  V30 33 H -1.0714 4.1833 -1.5864 0
M  V30 34 H -0.6886 -0.6516 -3.1018 0
M  V30 35 H 0.8841 0.6699 1.3393 0
M  V30 36 H 0.3657 4.8311 0.3076 0
M  V30 37 H 2.0937 -0.8644 -4.1232 0
M  V30 38 H 2.3319 -2.8347 -2.7794 0
M  V30 39 H 1.6022 -1.6021 -1.7541 0
M  V30 40 H 1.633 -2.8593 -5.3793 0
M  V30 41 H 0.4956 -1.632 -5.9287 0
M  V30 42 H 2.1902 4.0766 1.8492 0
M  V30 43 H 2.3291 2.3983 2.3323 0
M  V30 44 H 0.5506 -3.8518 -1.4756 0
M  V30 45 H -0.6103 -2.6342 -1.9851 0
M  V30 46 H -1.3082 -2.6239 -4.5838 0
M  V30 47 H -0.583 -3.8551 -5.6112 0
M  V30 48 H 1.444 3.9116 4.1556 0
M  V30 49 H 0.0115 4.2594 3.1723 0
M  V30 50 H -0.9712 -4.6755 -3.2832 0
M  V30 51 H 0.7274 -4.7444 -3.744 0
M  V30 52 H -0.857 2.1555 3.6652 0
M  V30 53 H 1.1901 -0.9633 6.4531 0
M  V30 54 H -2.0825 -2.6657 7.3887 0
M  V30 55 H -1.5288 -3.5818 5.9724 0
M  V30 56 H -0.3976 -3.2047 7.2833 0
M  V30 END ATOM
M  V30 BEGIN BOND
M  V30 1 2 1 2
M  V30 2 2 1 3
M  V30 3 1 1 4
M  V30 4 1 1 5
M  V30 5 1 4 6
M  V30 6 2 5 7
M  V30 7 1 5 8
M  V30 8 2 6 9
M  V30 9 1 6 10
M  V30 10 1 7 11
M  V30 11 2 8 12
M  V30 12 1 10 13
M  V30 13 2 11 14
M  V30 14 1 13 15
M  V30 15 1 13 16
M  V30 16 1 14 17
M  V30 17 1 15 18
M  V30 18 1 16 19
M  V30 19 1 17 20
M  V30 20 1 18 21
M  V30 21 1 20 22
M  V30 22 1 22 23
M  V30 23 2 23 24
M  V30 24 1 23 25
M  V30 25 2 25 26
M  V30 26 1 25 27
M  V30 27 1 26 28
M  V30 28 2 27 29
M  V30 29 1 29 30
M  V30 30 1 12 14
M  V30 31 1 19 21
M  V30 32 1 28 29
M  V30 33 1 4 31
M  V30 34 1 7 32
M  V30 35 1 8 33
M  V30 36 1 10 34
M  V30 37 1 11 35
M  V30 38 1 12 36
M  V30 39 1 13 37
M  V30 40 1 15 38
M  V30 41 1 15 39
M  V30 42 1 16 40
M  V30 43 1 16 41
M  V30 44 1 17 42
M  V30 45 1 17 43
M  V30 46 1 18 44
M  V30 47 1 18 45
M  V30 48 1 19 46
M  V30 49 1 19 47
M  V30 50 1 20 48
M  V30 51 1 20 49
M  V30 52 1 21 50
M  V30 53 1 21 51
M  V30 54 1 22 52
M  V30 55 1 27 53
M  V30 56 1 30 54
M  V30 57 1 30 55
M  V30 58 1 30 56
M  V30 END BOND
M  V30 END CTAB
M  END
>  <NO.>
5332

>  <Name>
glisolamide

>  <SMILES>
Cc1cc(C(=O)NCCc2ccc(S(=O)(=O)NC(=O)NC3CCCCC3)cc2)no1

>  <logBB>


>  <Class>
-1

>  <MW>
434.16

>  <nHBAcc>
6

>  <nHBDon>
3

>  <SLogP>
2.28

>  <TopoPSA>
130.4

>  <MMFF94 Energy>
-153.05

$$$$
Cc1cc(C(=O)NCCc2ccc(S(=O)(=O)NC(=O)NN3CCCCCC3)cc2)no1
Actelion Java MolfileCreator 2.0

  0  0  0  0  0  0              0 V3000
M  V30 BEGIN CTAB
M  V30 COUNTS 58 60 0 0 0
M  V30 BEGIN ATOM
M  V30 1 S 1.6037 -1.1223 -3.2897 0
M  V30 2 O 2.6792 -2.0846 -3.3742 0
M  V30 3 O 1.3724 -0.18 -4.367 0
M  V30 4 N 0.1752 -1.9036 -3.0614 0
M  V30 5 C 1.7876 -0.1789 -1.797 0
M  V30 6 C -0.1041 -2.8695 -2.1098 0
M  V30 7 C 2.5366 -0.6956 -0.7381 0
M  V30 8 C 1.2244 1.0975 -1.7136 0
M  V30 9 O 0.6883 -3.2643 -1.2681 0
M  V30 10 N -1.3929 -3.352 -2.1741 0
M  V30 11 C 2.7013 0.061 0.4227 0
M  V30 12 C 1.3939 1.8512 -0.5508 0
M  V30 13 N -2.3262 -2.8853 -3.1313 0
M  V30 14 C 2.1347 1.3402 0.5246 0
M  V30 15 C -3.4733 -2.258 -2.461 0
M  V30 16 C -2.6812 -3.9501 -4.0783 0
M  V30 17 C 2.304 2.1452 1.7896 0
M  V30 18 C -4.6447 -1.867 -3.364 0
M  V30 19 C -3.339 -3.4588 -5.3817 0
M  V30 20 C 1.2387 1.7947 2.8302 0
M  V30 21 C -4.2503 -1.1607 -4.6604 0
M  V30 22 C -3.3119 -1.9432 -5.5874 0
M  V30 23 N 1.3646 2.5945 4.0289 0
M  V30 24 C 2.2805 2.3119 5.0203 0
M  V30 25 O 3.0666 1.3712 4.9625 0
M  V30 26 C 2.2412 3.2377 6.1538 0
M  V30 27 N 1.3769 4.2688 6.202 0
M  V30 28 C 3.053 3.2094 7.3156 0
M  V30 29 O 1.6258 4.9153 7.3998 0
M  V30 30 C 2.6279 4.279 8.0614 0
M  V30 31 C 3.0174 4.8463 9.3638 0
M  V30 32 H -0.5918 -1.6491 -3.6744 0
M  V30 33 H 2.9834 -1.686 -0.8057 0
M  V30 34 H 0.6615 1.5124 -2.5465 0
M  V30 35 H -1.6408 -4.0706 -1.5011 0
M  V30 36 H 3.2784 -0.3527 1.2482 0
M  V30 37 H 0.9519 2.8438 -0.4924 0
M  V30 38 H -3.1147 -1.35 -1.9587 0
M  V30 39 H -3.8615 -2.9174 -1.6731 0
M  V30 40 H -1.7611 -4.4739 -4.3726 0
M  V30 41 H -3.3142 -4.7091 -3.6004 0
M  V30 42 H 2.2599 3.2166 1.5547 0
M  V30 43 H 3.3095 1.9772 2.196 0
M  V30 44 H -5.2449 -2.7555 -3.5946 0
M  V30 45 H -5.3118 -1.2055 -2.7967 0
M  V30 46 H -4.3738 -3.8186 -5.4337 0
M  V30 47 H -2.817 -3.928 -6.2254 0
M  V30 48 H 0.2339 1.973 2.4312 0
M  V30 49 H 1.3035 0.7363 3.1085 0
M  V30 50 H -3.7981 -0.1877 -4.4325 0
M  V30 51 H -5.1736 -0.941 -5.2118 0
M  V30 52 H -3.589 -1.7187 -6.625 0
M  V30 53 H -2.2856 -1.5726 -5.4733 0
M  V30 54 H 0.7624 3.3992 4.1767 0
M  V30 55 H 3.8326 2.5017 7.5564 0
M  V30 56 H 3.3607 5.8786 9.2454 0
M  V30 57 H 2.1681 4.8415 10.0538 0
M  V30 58 H 3.828 4.2679 9.8176 0
M  V30 END ATOM
M  V30 BEGIN BOND
M  V30 1 2 1 2
M  V30 2 2 1 3
M  V30 3 1 1 4
M  V30 4 1 1 5
M  V30 5 1 4 6
M  V30 6 2 5 7
M  V30 7 1 5 8
M  V30 8 2 6 9
M  V30 9 1 6 10
M  V30 10 1 7 11
M  V30 11 2 8 12
M  V30 12 1 10 13
M  V30 13 2 11 14
M  V30 14 1 13 15
M  V30 15 1 13 16
M  V30 16 1 14 17
M  V30 17 1 15 18
M  V30 18 1 16 19
M  V30 19 1 17 20
M  V30 20 1 18 21
M  V30 21 1 19 22
M  V30 22 1 20 23
M  V30 23 1 23 24
M  V30 24 2 24 25
M  V30 25 1 24 26
M  V30 26 2 26 27
M  V30 27 1 26 28
M  V30 28 1 27 29
M  V30 29 2 28 30
M  V30 30 1 30 31
M  V30 31 1 12 14
M  V30 32 1 21 22
M  V30 33 1 29 30
M  V30 34 1 4 32
M  V30 35 1 7 33
M  V30 36 1 8 34
M  V30 37 1 10 35
M  V30 38 1 11 36
M  V30 39 1 12 37
M  V30 40 1 15 38
M  V30 41 1 15 39
M  V30 42 1 16 40
M  V30 43 1 16 41
M  V30 44 1 17 42
M  V30 45 1 17 43
M  V30 46 1 18 44
M  V30 47 1 18 45
M  V30 48 1 19 46
M  V30 49 1 19 47
M  V30 50 1 20 48
M  V30 51 1 20 49
M  V30 52 1 21 50
M  V30 53 1 21 51
M  V30 54 1 22 52
M  V30 55 1 22 53
M  V30 56 1 23 54
M  V30 57 1 28 55
M  V30 58 1 31 56
M  V30 59 1 31 57
M  V30 60 1 31 58
M  V30 END BOND
M  V30 END CTAB
M  END
>  <NO.>
5333

>  <Name>
glisoxepide

>  <SMILES>
Cc1cc(C(=O)NCCc2ccc(S(=O)(=O)NC(=O)NN3CCCCCC3)cc2)no1

>  <logBB>


>  <Class>
-1

>  <MW>
449.17

>  <nHBAcc>
7

>  <nHBDon>
3

>  <SLogP>
1.73

>  <TopoPSA>
133.64

>  <MMFF94 Energy>
-78.907

$$$$
Cc1cc(O)c2ccccc2c1O
Actelion Java MolfileCreator 2.0

  0  0  0  0  0  0              0 V3000
M  V30 BEGIN CTAB
M  V30 COUNTS 23 24 0 0 0
M  V30 BEGIN ATOM
M  V30 1 O 1.1861 0.7115 -2.2149 0
M  V30 2 C 0.6972 0.5432 -0.9407 0
M  V30 3 C -0.1424 -0.5735 -0.7092 0
M  V30 4 C 1.0249 1.4497 0.0811 0
M  V30 5 C -0.6651 -0.7808 0.5884 0
M  V30 6 C -0.4804 -1.4929 -1.7264 0
M  V30 7 C 0.4988 1.2296 1.36 0
M  V30 8 C 1.9136 2.6387 -0.1478 0
M  V30 9 C -0.3304 0.1334 1.605 0
M  V30 10 C -1.5019 -1.8935 0.82 0
M  V30 11 C -1.3099 -2.5872 -1.4766 0
M  V30 12 O -0.8322 -0.0582 2.8679 0
M  V30 13 C -1.8213 -2.7878 -0.2016 0
M  V30 14 H 1.7436 1.502 -2.2534 0
M  V30 15 H -0.0899 -1.3534 -2.7327 0
M  V30 16 H 0.74 1.9189 2.1646 0
M  V30 17 H 2.0509 3.2246 0.7673 0
M  V30 18 H 1.4734 3.3018 -0.8994 0
M  V30 19 H 2.9041 2.3129 -0.4811 0
M  V30 20 H -1.9111 -2.0652 1.8139 0
M  V30 21 H -1.5529 -3.2781 -2.2789 0
M  V30 22 H -0.5112 0.6511 3.447 0
M  V30 23 H -2.4677 -3.6367 0.0022 0
M  V30 END ATOM
M  V30 BEGIN BOND
M  V30 1 1 1 2
M  V30 2 1 2 3
M  V30 3 2 2 4
M  V30 4 1 3 5
M  V30 5 2 3 6
M  V30 6 1 4 7
M  V30 7 1 4 8
M  V30 8 1 5 9
M  V30 9 2 5 10
M  V30 10 1 6 11
M  V30 11 1 9 12
M  V30 12 1 10 13
M  V30 13 2 7 9
M  V30 14 2 11 13
M  V30 15 1 1 14
M  V30 16 1 6 15
M  V30 17 1 7 16
M  V30 18 1 8 17
M  V30 19 1 8 18
M  V30 20 1 8 19
M  V30 21 1 10 20
M  V30 22 1 11 21
M  V30 23 1 12 22
M  V30 24 1 13 23
M  V30 END BOND
M  V30 END CTAB
M  END
>  <NO.>
5335

>  <Name>
menadiol

>  <SMILES>
Cc1cc(O)c2ccccc2c1O

>  <logBB>


>  <Class>
-1

>  <MW>
174.07

>  <nHBAcc>
2

>  <nHBDon>
2

>  <SLogP>
2.56

>  <TopoPSA>
40.46

>  <MMFF94 Energy>
33.082

$$$$
Cc1cc2cc3c(C)cc(=O)oc3c(C)c2o1
Actelion Java MolfileCreator 2.0

  0  0  0  0  0  0              0 V3000
M  V30 BEGIN CTAB
M  V30 COUNTS 29 31 0 0 0
M  V30 BEGIN ATOM
M  V30 1 O -3.3763 -1.5263 3.2153 0
M  V30 2 C -2.5705 -1.3945 2.3017 0
M  V30 3 O -1.8287 -0.2422 2.1233 0
M  V30 4 C -2.3484 -2.4749 1.3321 0
M  V30 5 C -0.8983 -0.0999 1.062 0
M  V30 6 C -1.4813 -2.3885 0.3133 0
M  V30 7 C -0.7054 -1.1479 0.1493 0
M  V30 8 C -0.2144 1.1328 1.007 0
M  V30 9 C -1.2983 -3.5283 -0.646 0
M  V30 10 C 0.225 -0.9703 -0.8891 0
M  V30 11 C 0.6932 1.239 -0.0492 0
M  V30 12 C -0.456 2.2204 2.0053 0
M  V30 13 C 0.9338 0.2429 -0.9876 0
M  V30 14 O 1.4729 2.326 -0.3166 0
M  V30 15 C 1.9171 0.7654 -1.87 0
M  V30 16 C 2.2131 2.0341 -1.4213 0
M  V30 17 C 3.1346 3.0894 -1.8847 0
M  V30 18 H -2.9475 -3.3622 1.5039 0
M  V30 19 H -1.9419 -4.3792 -0.3957 0
M  V30 20 H -1.5511 -3.2223 -1.6667 0
M  V30 21 H -0.2647 -3.8897 -0.6284 0
M  V30 22 H 0.4159 -1.7452 -1.6239 0
M  V30 23 H 0.1641 3.0988 1.8016 0
M  V30 24 H -0.2165 1.8687 3.014 0
M  V30 25 H -1.5036 2.5365 1.9751 0
M  V30 26 H 2.3557 0.276 -2.7279 0
M  V30 27 H 2.5799 3.9981 -2.1377 0
M  V30 28 H 3.8611 3.3334 -1.1036 0
M  V30 29 H 3.6851 2.7673 -2.7739 0
M  V30 END ATOM
M  V30 BEGIN BOND
M  V30 1 2 1 2
M  V30 2 1 2 3
M  V30 3 1 2 4
M  V30 4 1 3 5
M  V30 5 2 4 6
M  V30 6 2 5 7
M  V30 7 1 5 8
M  V30 8 1 6 9
M  V30 9 1 7 10
M  V30 10 2 8 11
M  V30 11 1 8 12
M  V30 12 2 10 13
M  V30 13 1 11 14
M  V30 14 1 13 15
M  V30 15 1 14 16
M  V30 16 1 16 17
M  V30 17 1 6 7
M  V30 18 1 11 13
M  V30 19 2 15 16
M  V30 20 1 4 18
M  V30 21 1 9 19
M  V30 22 1 9 20
M  V30 23 1 9 21
M  V30 24 1 10 22
M  V30 25 1 12 23
M  V30 26 1 12 24
M  V30 27 1 12 25
M  V30 28 1 15 26
M  V30 29 1 17 27
M  V30 30 1 17 28
M  V30 31 1 17 29
M  V30 END BOND
M  V30 END CTAB
M  END
>  <NO.>
5336

>  <Name>
trioxsalen

>  <SMILES>
Cc1cc2cc3c(C)cc(=O)oc3c(C)c2o1

>  <logBB>


>  <Class>
-1

>  <MW>
228.08

>  <nHBAcc>
3

>  <nHBDon>
0

>  <SLogP>
3.46

>  <TopoPSA>
43.35

>  <MMFF94 Energy>
34.549

$$$$
Cc1ccc(-c2ncc(Cl)cc2-c2ccc(S(C)(=O)=O)cc2)cn1
Actelion Java MolfileCreator 2.0

  0  0  0  0  0  0              0 V3000
M  V30 BEGIN CTAB
M  V30 COUNTS 39 41 0 0 0
M  V30 BEGIN ATOM
M  V30 1 Cl -3.1289 -1.6459 5.0263 0
M  V30 2 C -2.3105 -1.7722 3.5243 0
M  V30 3 C -2.1261 -2.9966 2.9141 0
M  V30 4 C -1.8068 -0.6412 2.8945 0
M  V30 5 N -1.487 -3.1546 1.7321 0
M  V30 6 C -1.1332 -0.7494 1.6626 0
M  V30 7 C -1.0085 -2.0414 1.1061 0
M  V30 8 C -0.5764 0.4687 1.0475 0
M  V30 9 C -0.3599 -2.3316 -0.1822 0
M  V30 10 C -1.4227 1.5165 0.6412 0
M  V30 11 C 0.8085 0.6146 0.8519 0
M  V30 12 C 0.6338 -3.3042 -0.2789 0
M  V30 13 C -0.696 -1.6786 -1.3737 0
M  V30 14 C -0.9054 2.6708 0.0477 0
M  V30 15 C 1.3342 1.7641 0.2562 0
M  V30 16 N 1.3079 -3.6199 -1.4139 0
M  V30 17 C -0.0278 -1.9846 -2.5599 0
M  V30 18 C 0.4729 2.7908 -0.1323 0
M  V30 19 C 0.9684 -2.9538 -2.5399 0
M  V30 20 S 1.1369 4.2427 -0.9133 0
M  V30 21 C 1.7071 -3.302 -3.7968 0
M  V30 22 O 2.3624 3.8539 -1.5838 0
M  V30 23 O 0.0569 4.8769 -1.6455 0
M  V30 24 C 1.5596 5.2854 0.4577 0
M  V30 25 H -2.4936 -3.9148 3.3633 0
M  V30 26 H -1.9227 0.3313 3.3683 0
M  V30 27 H -2.5012 1.4303 0.7678 0
M  V30 28 H 1.4927 -0.1784 1.1516 0
M  V30 29 H 0.9353 -3.8786 0.5944 0
M  V30 30 H -1.4834 -0.9294 -1.3932 0
M  V30 31 H -1.5833 3.4575 -0.2779 0
M  V30 32 H 2.4072 1.8399 0.0913 0
M  V30 33 H -0.2861 -1.4718 -3.4809 0
M  V30 34 H 2.2177 -2.4185 -4.1923 0
M  V30 35 H 2.4598 -4.0734 -3.6055 0
M  V30 36 H 1.0115 -3.6836 -4.5506 0
M  V30 37 H 2.3036 4.7793 1.0755 0
M  V30 38 H 0.6574 5.5004 1.0337 0
M  V30 39 H 1.9765 6.2137 0.0612 0
M  V30 END ATOM
M  V30 BEGIN BOND
M  V30 1 1 1 2
M  V30 2 2 2 3
M  V30 3 1 2 4
M  V30 4 1 3 5
M  V30 5 2 4 6
M  V30 6 2 5 7
M  V30 7 1 6 8
M  V30 8 1 7 9
M  V30 9 2 8 10
M  V30 10 1 8 11
M  V30 11 2 9 12
M  V30 12 1 9 13
M  V30 13 1 10 14
M  V30 14 2 11 15
M  V30 15 1 12 16
M  V30 16 2 13 17
M  V30 17 2 14 18
M  V30 18 2 16 19
M  V30 19 1 18 20
M  V30 20 1 19 21
M  V30 21 2 20 22
M  V30 22 2 20 23
M  V30 23 1 20 24
M  V30 24 1 6 7
M  V30 25 1 15 18
M  V30 26 1 17 19
M  V30 27 1 3 25
M  V30 28 1 4 26
M  V30 29 1 10 27
M  V30 30 1 11 28
M  V30 31 1 12 29
M  V30 32 1 13 30
M  V30 33 1 14 31
M  V30 34 1 15 32
M  V30 35 1 17 33
M  V30 36 1 21 34
M  V30 37 1 21 35
M  V30 38 1 21 36
M  V30 39 1 24 37
M  V30 40 1 24 38
M  V30 41 1 24 39
M  V30 END BOND
M  V30 END CTAB
M  END
>  <NO.>
5338

>  <Name>
etoricoxib

>  <SMILES>
Cc1ccc(-c2ncc(Cl)cc2-c2ccc(S(C)(=O)=O)cc2)cn1

>  <logBB>


>  <Class>
-1

>  <MW>
358.05

>  <nHBAcc>
4

>  <nHBDon>
0

>  <SLogP>
4.18

>  <TopoPSA>
59.92

>  <MMFF94 Energy>
113.03

$$$$
Cc1ccc2c(-c3ccccc3)nc(=O)n(C(C)C)c2c1
Actelion Java MolfileCreator 2.0

  0  0  0  0  0  0              0 V3000
M  V30 BEGIN CTAB
M  V30 COUNTS 39 41 0 0 0
M  V30 BEGIN ATOM
M  V30 1 O -2.4664 -0.1589 2.3868 0
M  V30 2 C -1.6095 -0.0299 1.5161 0
M  V30 3 N -1.9736 0.4265 0.2773 0
M  V30 4 N -0.2564 -0.2979 1.774 0
M  V30 5 C -1.1365 0.4588 -0.7067 0
M  V30 6 C 0.6512 -0.4534 0.6822 0
M  V30 7 C 0.1823 -0.5222 3.1663 0
M  V30 8 C 0.2364 -0.0702 -0.5955 0
M  V30 9 C -1.6222 1.0488 -1.9782 0
M  V30 10 C 1.9267 -1.0286 0.8157 0
M  V30 11 C -0.2676 0.5816 4.1353 0
M  V30 12 C -0.2196 -1.9069 3.6759 0
M  V30 13 C 1.0691 -0.2483 -1.7098 0
M  V30 14 C -2.7553 0.5038 -2.5884 0
M  V30 15 C -0.9882 2.1675 -2.5294 0
M  V30 16 C 2.7738 -1.2036 -0.2918 0
M  V30 17 C 2.3404 -0.7959 -1.5531 0
M  V30 18 C -3.232 1.0567 -3.7771 0
M  V30 19 C -1.47 2.716 -3.7185 0
M  V30 20 C 4.1445 -1.7885 -0.1098 0
M  V30 21 C -2.5868 2.1577 -4.3431 0
M  V30 22 H 1.273 -0.4565 3.2036 0
M  V30 23 H 2.2901 -1.3868 1.7735 0
M  V30 24 H -1.3359 0.5383 4.3637 0
M  V30 25 H 0.2644 0.4864 5.0886 0
M  V30 26 H -0.0466 1.5727 3.7247 0
M  V30 27 H -1.3063 -2.0203 3.7399 0
M  V30 28 H 0.1557 -2.6909 3.01 0
M  V30 29 H 0.1938 -2.0862 4.674 0
M  V30 30 H 0.7434 0.0134 -2.7125 0
M  V30 31 H -3.2683 -0.3416 -2.1364 0
M  V30 32 H -0.1347 2.6221 -2.0338 0
M  V30 33 H 2.9797 -0.9208 -2.4247 0
M  V30 34 H -4.1129 0.6362 -4.2555 0
M  V30 35 H -0.984 3.5861 -4.1529 0
M  V30 36 H 4.1341 -2.5711 0.656 0
M  V30 37 H 4.8477 -1.0055 0.1901 0
M  V30 38 H 4.5034 -2.2471 -1.0372 0
M  V30 39 H -2.9655 2.5911 -5.2659 0
M  V30 END ATOM
M  V30 BEGIN BOND
M  V30 1 2 1 2
M  V30 2 1 2 3
M  V30 3 1 2 4
M  V30 4 2 3 5
M  V30 5 1 4 6
M  V30 6 1 4 7
M  V30 7 1 5 8
M  V30 8 1 5 9
M  V30 9 1 6 10
M  V30 10 1 7 11
M  V30 11 1 7 12
M  V30 12 1 8 13
M  V30 13 2 9 14
M  V30 14 1 9 15
M  V30 15 2 10 16
M  V30 16 2 13 17
M  V30 17 1 14 18
M  V30 18 2 15 19
M  V30 19 1 16 20
M  V30 20 2 18 21
M  V30 21 2 6 8
M  V30 22 1 16 17
M  V30 23 1 19 21
M  V30 24 1 7 22
M  V30 25 1 10 23
M  V30 26 1 11 24
M  V30 27 1 11 25
M  V30 28 1 11 26
M  V30 29 1 12 27
M  V30 30 1 12 28
M  V30 31 1 12 29
M  V30 32 1 13 30
M  V30 33 1 14 31
M  V30 34 1 15 32
M  V30 35 1 17 33
M  V30 36 1 18 34
M  V30 37 1 19 35
M  V30 38 1 20 36
M  V30 39 1 20 37
M  V30 40 1 20 38
M  V30 41 1 21 39
M  V30 END BOND
M  V30 END CTAB
M  END
>  <NO.>
5339

>  <Name>
proquazone

>  <SMILES>
Cc1ccc2c(-c3ccccc3)nc(=O)n(C(C)C)c2c1

>  <logBB>


>  <Class>
-1

>  <MW>
278.14

>  <nHBAcc>
2

>  <nHBDon>
0

>  <SLogP>
3.95

>  <TopoPSA>
34.89

>  <MMFF94 Energy>
38.064

$$$$
Cc1cccc(C(C)c2cnc[nH]2)c1C
Actelion Java MolfileCreator 2.0

  0  0  0  0  0  0              0 V3000
M  V30 BEGIN CTAB
M  V30 COUNTS 31 32 0 0 0
M  V30 BEGIN ATOM
M  V30 1 N 2.5945 2.5945 -1.5718 0
M  V30 2 C 1.5894 3.2161 -2.1408 0
M  V30 3 C 2.1054 1.3629 -1.2193 0
M  V30 4 N 0.4712 2.434 -2.1741 0
M  V30 5 C 0.7821 1.2294 -1.5886 0
M  V30 6 C -0.2075 0.1078 -1.4614 0 CFG=1
M  V30 7 C -0.0611 -0.6562 -0.1406 0
M  V30 8 C -0.1506 -0.7834 -2.7134 0
M  V30 9 C -0.7498 -0.2495 1.0373 0
M  V30 10 C 0.7981 -1.7701 -0.0688 0
M  V30 11 C -0.6149 -1.0119 2.2253 0
M  V30 12 C -1.6535 0.9612 1.0137 0
M  V30 13 C 0.9489 -2.4938 1.1099 0
M  V30 14 C 0.2422 -2.1215 2.2459 0
M  V30 15 C -1.3478 -0.6591 3.4933 0
M  V30 16 H 1.6106 4.22 -2.543 0
M  V30 17 H 2.7321 0.6362 -0.7177 0
M  V30 18 H -0.4217 2.6996 -2.5653 0
M  V30 19 H -1.2184 0.5363 -1.4795 0
M  V30 20 H 0.8542 -1.1782 -2.9002 0
M  V30 21 H -0.4347 -0.2114 -3.6048 0
M  V30 22 H -0.8414 -1.6294 -2.627 0
M  V30 23 H 1.3743 -2.0874 -0.9342 0
M  V30 24 H -2.6021 0.708 0.5299 0
M  V30 25 H -1.1829 1.7933 0.4817 0
M  V30 26 H -1.8727 1.3447 2.0137 0
M  V30 27 H 1.618 -3.3493 1.1413 0
M  V30 28 H 0.3687 -2.7033 3.1564 0
M  V30 29 H -0.9606 0.2776 3.9061 0
M  V30 30 H -1.2266 -1.4344 4.2577 0
M  V30 31 H -2.4217 -0.5652 3.3024 0
M  V30 END ATOM
M  V30 BEGIN BOND
M  V30 1 2 1 2
M  V30 2 1 1 3
M  V30 3 1 2 4
M  V30 4 2 3 5
M  V30 5 1 5 6
M  V30 6 1 6 7
M  V30 7 1 6 8
M  V30 8 2 7 9
M  V30 9 1 7 10
M  V30 10 1 9 11
M  V30 11 1 9 12
M  V30 12 2 10 13
M  V30 13 2 11 14
M  V30 14 1 11 15
M  V30 15 1 4 5
M  V30 16 1 13 14
M  V30 17 1 2 16
M  V30 18 1 3 17
M  V30 19 1 4 18
M  V30 20 1 6 19
M  V30 21 1 8 20
M  V30 22 1 8 21
M  V30 23 1 8 22
M  V30 24 1 10 23
M  V30 25 1 12 24
M  V30 26 1 12 25
M  V30 27 1 12 26
M  V30 28 1 13 27
M  V30 29 1 14 28
M  V30 30 1 15 29
M  V30 31 1 15 30
M  V30 32 1 15 31
M  V30 END BOND
M  V30 BEGIN COLLECTION
M  V30 MDLV30/STERAC1 ATOMS=(1 6)
M  V30 END COLLECTION
M  V30 END CTAB
M  END
>  <NO.>
5340

>  <Name>
medetomidine

>  <SMILES>
Cc1cccc(C(C)c2cnc[nH]2)c1C

>  <logBB>


>  <Class>
1

>  <MW>
200.13

>  <nHBAcc>
1

>  <nHBDon>
1

>  <SLogP>
3.18

>  <TopoPSA>
28.68

>  <MMFF94 Energy>
36.315

$$$$
Cc1ccccc1N1C(=O)c2cc(S(N)(=O)=O)c(Cl)cc2NC1C
Actelion Java MolfileCreator 2.0

  0  0  0  0  0  0              0 V3000
M  V30 BEGIN CTAB
M  V30 COUNTS 40 42 0 0 0
M  V30 BEGIN ATOM
M  V30 1 Cl 0.1635 -0.9813 5.5706 0
M  V30 2 C 0.374 -0.6935 3.8803 0
M  V30 3 C 1.4733 -1.1351 3.1423 0
M  V30 4 C -0.6484 0.0205 3.2364 0
M  V30 5 S 2.801 -2.0193 3.8932 0
M  V30 6 C 1.5538 -0.8519 1.7728 0
M  V30 7 C -0.5935 0.2912 1.8651 0
M  V30 8 O 3.2689 -1.2943 5.0491 0
M  V30 9 O 3.706 -2.4763 2.8632 0
M  V30 10 N 2.0603 -3.4198 4.4498 0
M  V30 11 C 0.5215 -0.1426 1.1459 0
M  V30 12 N -1.6151 0.984 1.2459 0
M  V30 13 C 0.6332 0.2366 -0.2822 0
M  V30 14 C -1.7745 0.8888 -0.1922 0 CFG=1
M  V30 15 O 1.6966 0.0235 -0.8597 0
M  V30 16 N -0.4754 0.8546 -0.848 0
M  V30 17 C -2.6324 -0.3333 -0.5254 0
M  V30 18 C -0.4017 1.3842 -2.1636 0
M  V30 19 C -0.2869 0.5672 -3.3034 0
M  V30 20 C -0.4639 2.7792 -2.3044 0
M  V30 21 C -0.2271 1.1809 -4.5669 0
M  V30 22 C -0.1506 -0.9282 -3.2368 0
M  V30 23 C -0.4167 3.3686 -3.5667 0
M  V30 24 C -0.2995 2.5686 -4.6982 0
M  V30 25 H -1.5044 0.3627 3.8147 0
M  V30 26 H 2.4199 -1.1624 1.1892 0
M  V30 27 H 2.1023 -3.4489 5.47 0
M  V30 28 H 2.4811 -4.2323 3.9972 0
M  V30 29 H -2.408 1.3073 1.7848 0
M  V30 30 H -2.3178 1.7841 -0.5176 0
M  V30 31 H -2.8489 -0.3793 -1.5976 0
M  V30 32 H -2.1337 -1.268 -0.246 0
M  V30 33 H -3.5883 -0.2949 0.0084 0
M  V30 34 H -0.53 3.4154 -1.425 0
M  V30 35 H -0.1121 0.5736 -5.4627 0
M  V30 36 H -0.6539 -1.3508 -2.364 0
M  V30 37 H 0.907 -1.2069 -3.2061 0
M  V30 38 H -0.6075 -1.3962 -4.1158 0
M  V30 39 H -0.4562 4.45 -3.6648 0
M  V30 40 H -0.2479 3.0236 -5.684 0
M  V30 END ATOM
M  V30 BEGIN BOND
M  V30 1 1 1 2
M  V30 2 2 2 3
M  V30 3 1 2 4
M  V30 4 1 3 5
M  V30 5 1 3 6
M  V30 6 2 4 7
M  V30 7 2 5 8
M  V30 8 2 5 9
M  V30 9 1 5 10
M  V30 10 2 6 11
M  V30 11 1 7 12
M  V30 12 1 11 13
M  V30 13 1 12 14
M  V30 14 2 13 15
M  V30 15 1 13 16
M  V30 16 1 14 17
M  V30 17 1 16 18
M  V30 18 2 18 19
M  V30 19 1 18 20
M  V30 20 1 19 21
M  V30 21 1 19 22
M  V30 22 2 20 23
M  V30 23 2 21 24
M  V30 24 1 7 11
M  V30 25 1 14 16
M  V30 26 1 23 24
M  V30 27 1 4 25
M  V30 28 1 6 26
M  V30 29 1 10 27
M  V30 30 1 10 28
M  V30 31 1 12 29
M  V30 32 1 14 30
M  V30 33 1 17 31
M  V30 34 1 17 32
M  V30 35 1 17 33
M  V30 36 1 20 34
M  V30 37 1 21 35
M  V30 38 1 22 36
M  V30 39 1 22 37
M  V30 40 1 22 38
M  V30 41 1 23 39
M  V30 42 1 24 40
M  V30 END BOND
M  V30 BEGIN COLLECTION
M  V30 MDLV30/STERAC1 ATOMS=(1 14)
M  V30 END COLLECTION
M  V30 END CTAB
M  END
>  <NO.>
5343

>  <Name>
metolazone

>  <SMILES>
Cc1ccccc1N1C(=O)c2cc(S(N)(=O)=O)c(Cl)cc2NC1C

>  <logBB>


>  <Class>
-1

>  <MW>
365.06

>  <nHBAcc>
4

>  <nHBDon>
2

>  <SLogP>
2.71

>  <TopoPSA>
92.5

>  <MMFF94 Energy>
-75.171

$$$$
Cc1ncc2c(c1O)COC2c1ccc(Cl)cc1
Actelion Java MolfileCreator 2.0

  0  0  0  0  0  0              0 V3000
M  V30 BEGIN CTAB
M  V30 COUNTS 30 32 0 0 0
M  V30 BEGIN ATOM
M  V30 1 Cl -2.601 -2.2756 -5.0441 0
M  V30 2 C -1.9379 -2.0084 -3.4792 0
M  V30 3 C -0.6095 -1.6131 -3.3481 0
M  V30 4 C -2.7341 -2.1877 -2.3504 0
M  V30 5 C -0.0725 -1.3964 -2.0768 0
M  V30 6 C -2.197 -1.9708 -1.0785 0
M  V30 7 C -0.8575 -1.5761 -0.9251 0
M  V30 8 C -0.2977 -1.3205 0.4563 0 CFG=1
M  V30 9 O 1.0252 -1.9105 0.5677 0
M  V30 10 C -0.0822 0.1115 0.7893 0
M  V30 11 C 1.9076 -1.0025 1.2631 0
M  V30 12 C 1.204 0.3007 1.2671 0
M  V30 13 C -0.946 1.1782 0.7226 0
M  V30 14 C 1.6155 1.5544 1.6713 0
M  V30 15 N -0.5815 2.4207 1.1085 0
M  V30 16 O 2.8653 1.796 2.1528 0
M  V30 17 C 0.6898 2.5973 1.5755 0
M  V30 18 C 1.062 3.9894 1.9947 0
M  V30 19 H 0.0131 -1.4716 -4.2272 0
M  V30 20 H -3.7713 -2.4958 -2.453 0
M  V30 21 H 0.9673 -1.0878 -1.986 0
M  V30 22 H -2.8333 -2.1155 -0.2075 0
M  V30 23 H -0.918 -1.7959 1.2257 0
M  V30 24 H 2.065 -1.3786 2.2782 0
M  V30 25 H 2.8556 -0.9621 0.7202 0
M  V30 26 H -1.9637 1.0804 0.3592 0
M  V30 27 H 3.3981 0.9865 2.1112 0
M  V30 28 H 1.3343 4.0073 3.0546 0
M  V30 29 H 0.2219 4.6765 1.8498 0
M  V30 30 H 1.9035 4.3541 1.3975 0
M  V30 END ATOM
M  V30 BEGIN BOND
M  V30 1 1 1 2
M  V30 2 2 2 3
M  V30 3 1 2 4
M  V30 4 1 3 5
M  V30 5 2 4 6
M  V30 6 2 5 7
M  V30 7 1 7 8
M  V30 8 1 8 9
M  V30 9 1 8 10
M  V30 10 1 9 11
M  V30 11 2 10 12
M  V30 12 1 10 13
M  V30 13 1 12 14
M  V30 14 2 13 15
M  V30 15 1 14 16
M  V30 16 2 14 17
M  V30 17 1 17 18
M  V30 18 1 6 7
M  V30 19 1 11 12
M  V30 20 1 15 17
M  V30 21 1 3 19
M  V30 22 1 4 20
M  V30 23 1 5 21
M  V30 24 1 6 22
M  V30 25 1 8 23
M  V30 26 1 11 24
M  V30 27 1 11 25
M  V30 28 1 13 26
M  V30 29 1 16 27
M  V30 30 1 18 28
M  V30 31 1 18 29
M  V30 32 1 18 30
M  V30 END BOND
M  V30 BEGIN COLLECTION
M  V30 MDLV30/STERAC1 ATOMS=(1 8)
M  V30 END COLLECTION
M  V30 END CTAB
M  END
>  <NO.>
5344

>  <Name>
cicletanine

>  <SMILES>
Cc1ncc2c(c1O)COC2c1ccc(Cl)cc1

>  <logBB>


>  <Class>
-1

>  <MW>
261.06

>  <nHBAcc>
3

>  <nHBDon>
1

>  <SLogP>
3.37

>  <TopoPSA>
42.35

>  <MMFF94 Energy>
60.888

$$$$
Cc1oncc1C(=O)Nc1ccc(C(F)(F)F)cc1
Actelion Java MolfileCreator 2.0

  0  0  0  0  0  0              0 V3000
M  V30 BEGIN CTAB
M  V30 COUNTS 28 29 0 0 0
M  V30 BEGIN ATOM
M  V30 1 F -3.8894 -2.7538 -3.2404 0
M  V30 2 C -4.2388 -1.7774 -2.3588 0
M  V30 3 F -5.2398 -2.3019 -1.5972 0
M  V30 4 F -4.8155 -0.7904 -3.0994 0
M  V30 5 C -3.066 -1.298 -1.5385 0
M  V30 6 C -2.7179 -1.9426 -0.3439 0
M  V30 7 C -2.2813 -0.2209 -1.972 0
M  V30 8 C -1.6172 -1.51 0.4031 0
M  V30 9 C -1.18 0.2103 -1.223 0
M  V30 10 C -0.8346 -0.4353 -0.0349 0
M  V30 11 N 0.2478 -0.0461 0.7816 0
M  V30 12 C 1.3205 0.748 0.4114 0
M  V30 13 O 1.5139 1.1871 -0.7165 0
M  V30 14 C 2.2629 1.0204 1.4849 0
M  V30 15 C 3.5009 1.6167 1.3359 0
M  V30 16 C 2.1888 0.7958 2.8786 0
M  V30 17 O 4.112 1.7175 2.5467 0
M  V30 18 C 4.2575 2.138 0.1795 0
M  V30 19 N 3.2849 1.1964 3.5246 0
M  V30 20 H -3.3054 -2.7881 0.012 0
M  V30 21 H -2.524 0.2968 -2.8995 0
M  V30 22 H -1.3784 -2.0356 1.3246 0
M  V30 23 H -0.6165 1.0623 -1.5935 0
M  V30 24 H 0.2592 -0.4507 1.7061 0
M  V30 25 H 1.3901 0.3658 3.4652 0
M  V30 26 H 5.253 2.4821 0.4773 0
M  V30 27 H 3.73 2.983 -0.2733 0
M  V30 28 H 4.3841 1.3598 -0.5792 0
M  V30 END ATOM
M  V30 BEGIN BOND
M  V30 1 1 1 2
M  V30 2 1 2 3
M  V30 3 1 2 4
M  V30 4 1 2 5
M  V30 5 2 5 6
M  V30 6 1 5 7
M  V30 7 1 6 8
M  V30 8 2 7 9
M  V30 9 2 8 10
M  V30 10 1 10 11
M  V30 11 1 11 12
M  V30 12 2 12 13
M  V30 13 1 12 14
M  V30 14 2 14 15
M  V30 15 1 14 16
M  V30 16 1 15 17
M  V30 17 1 15 18
M  V30 18 2 16 19
M  V30 19 1 9 10
M  V30 20 1 17 19
M  V30 21 1 6 20
M  V30 22 1 7 21
M  V30 23 1 8 22
M  V30 24 1 9 23
M  V30 25 1 11 24
M  V30 26 1 16 25
M  V30 27 1 18 26
M  V30 28 1 18 27
M  V30 29 1 18 28
M  V30 END BOND
M  V30 END CTAB
M  END
>  <NO.>
5345

>  <Name>
leflunomide

>  <SMILES>
Cc1oncc1C(=O)Nc1ccc(C(F)(F)F)cc1

>  <logBB>


>  <Class>
-1

>  <MW>
270.06

>  <nHBAcc>
3

>  <nHBDon>
1

>  <SLogP>
3.25

>  <TopoPSA>
55.13

>  <MMFF94 Energy>
18.941

$$$$
ClCCc1cncs1
Actelion Java MolfileCreator 2.0

  0  0  0  0  0  0              0 V3000
M  V30 BEGIN CTAB
M  V30 COUNTS 14 14 0 0 0
M  V30 BEGIN ATOM
M  V30 1 Cl 1.6849 -2.6125 1.8535 0
M  V30 2 C 0.4392 -1.6002 1.0834 0
M  V30 3 C 1.0646 -0.3412 0.4938 0
M  V30 4 C 0.041 0.508 -0.1906 0
M  V30 5 S -0.8448 1.7056 0.6631 0
M  V30 6 C -0.3544 0.5016 -1.5141 0
M  V30 7 C -1.6731 2.102 -0.785 0
M  V30 8 N -1.3391 1.4088 -1.8507 0
M  V30 9 H -0.3081 -1.3579 1.8458 0
M  V30 10 H -0.0464 -2.2043 0.3102 0
M  V30 11 H 1.5686 0.2354 1.28 0
M  V30 12 H 1.84 -0.6164 -0.2327 0
M  V30 13 H 0.0429 -0.1502 -2.2835 0
M  V30 14 H -2.4267 2.8783 -0.8129 0
M  V30 END ATOM
M  V30 BEGIN BOND
M  V30 1 1 1 2
M  V30 2 1 2 3
M  V30 3 1 3 4
M  V30 4 1 4 5
M  V30 5 2 4 6
M  V30 6 1 5 7
M  V30 7 1 6 8
M  V30 8 2 7 8
M  V30 9 1 2 9
M  V30 10 1 2 10
M  V30 11 1 3 11
M  V30 12 1 3 12
M  V30 13 1 6 13
M  V30 14 1 7 14
M  V30 END BOND
M  V30 END CTAB
M  END
>  <NO.>
5346

>  <Name>
chlormethiazole

>  <SMILES>
ClCCc1cncs1

>  <logBB>


>  <Class>
1

>  <MW>
146.99

>  <nHBAcc>
2

>  <nHBDon>
0

>  <SLogP>
1.92

>  <TopoPSA>
12.89

>  <MMFF94 Energy>
8.9812

$$$$
Cn1c([N+](=O)[O-])cnc1C=Cc1ccnc(N)n1
Actelion Java MolfileCreator 2.0

  0  0  0  0  0  0              0 V3000
M  V30 BEGIN CTAB
M  V30 COUNTS 28 29 0 0 0
M  V30 BEGIN ATOM
M  V30 1 O 5.2928 0.0 1.1041 0
M  V30 2 N 4.6656 -0.5923 1.9891 0 CHG=1
M  V30 3 O 5.1457 -1.0648 3.0251 0 CHG=-1
M  V30 4 C 3.2698 -0.7705 1.7993 0
M  V30 5 N 2.4746 -0.0256 0.9622 0
M  V30 6 C 2.4522 -1.6921 2.3952 0
M  V30 7 C 1.2104 -0.6009 1.0062 0
M  V30 8 C 2.8589 1.1634 0.2323 0
M  V30 9 N 1.1817 -1.577 1.9005 0
M  V30 10 C 0.1584 -0.1451 0.1678 0
M  V30 11 C -1.0909 -0.6029 0.3534 0
M  V30 12 C -2.2405 -0.1995 -0.468 0
M  V30 13 N -2.0198 0.7061 -1.4434 0
M  V30 14 C -3.4834 -0.7414 -0.2234 0
M  V30 15 C -3.0723 1.0665 -2.1823 0
M  V30 16 C -4.4935 -0.3007 -1.0411 0
M  V30 17 N -4.3128 0.5989 -2.0228 0
M  V30 18 N -2.8684 1.9788 -3.1739 0
M  V30 19 H 2.7071 -2.4413 3.1344 0
M  V30 20 H 3.5672 1.7445 0.8276 0
M  V30 21 H 1.9893 1.8007 0.0611 0
M  V30 22 H 3.3005 0.8553 -0.7179 0
M  V30 23 H 0.3566 0.5533 -0.6382 0
M  V30 24 H -1.2949 -1.3157 1.1494 0
M  V30 25 H -3.6653 -1.4672 0.5568 0
M  V30 26 H -5.5092 -0.668 -0.9293 0
M  V30 27 H -1.9402 2.3332 -3.313 0
M  V30 28 H -3.6595 2.2437 -3.7336 0
M  V30 END ATOM
M  V30 BEGIN BOND
M  V30 1 2 1 2
M  V30 2 1 2 3
M  V30 3 1 2 4
M  V30 4 1 4 5
M  V30 5 2 4 6
M  V30 6 1 5 7
M  V30 7 1 5 8
M  V30 8 1 6 9
M  V30 9 1 7 10
M  V30 10 2 10 11
M  V30 11 1 11 12
M  V30 12 2 12 13
M  V30 13 1 12 14
M  V30 14 1 13 15
M  V30 15 2 14 16
M  V30 16 2 15 17
M  V30 17 1 15 18
M  V30 18 2 7 9
M  V30 19 1 16 17
M  V30 20 1 6 19
M  V30 21 1 8 20
M  V30 22 1 8 21
M  V30 23 1 8 22
M  V30 24 1 10 23
M  V30 25 1 11 24
M  V30 26 1 14 25
M  V30 27 1 16 26
M  V30 28 1 18 27
M  V30 29 1 18 28
M  V30 END BOND
M  V30 END CTAB
M  END
>  <NO.>
5350

>  <Name>
azanidazole

>  <SMILES>
Cn1c([N+](=O)[O-])cnc1C=Cc1ccnc(N)n1

>  <logBB>


>  <Class>
-1

>  <MW>
246.09

>  <nHBAcc>
6

>  <nHBDon>
1

>  <SLogP>
0.87

>  <TopoPSA>
112.76

>  <MMFF94 Energy>
-107.04

$$$$
Cn1cnc([N+](=O)[O-])c1Sc1ncnc2nc[nH]c12
Actelion Java MolfileCreator 2.0

  0  0  0  0  0  0              0 V3000
M  V30 BEGIN CTAB
M  V30 COUNTS 26 28 0 0 0
M  V30 BEGIN ATOM
M  V30 1 S -0.6574 -0.5752 1.0685 0
M  V30 2 C -0.1123 -0.7627 -0.6055 0
M  V30 3 C -0.0123 0.9984 1.4257 0
M  V30 4 N 0.3108 0.2951 -1.3316 0
M  V30 5 C -0.1345 -1.9944 -1.2238 0
M  V30 6 N -0.8277 2.0693 1.7069 0
M  V30 7 C 1.2705 1.5115 1.4965 0
M  V30 8 C 0.6886 0.0797 -2.6083 0
M  V30 9 N -0.4679 -3.2665 -0.8473 0
M  V30 10 C 0.2629 -2.1126 -2.5421 0
M  V30 11 C -0.0267 3.1575 1.9332 0
M  V30 12 C -2.2709 2.0976 1.7448 0
M  V30 13 N 2.5328 0.8351 1.3008 0 CHG=1
M  V30 14 N 1.2472 2.8586 1.8214 0
M  V30 15 N 0.6851 -1.0746 -3.2836 0
M  V30 16 C -0.2758 -4.0801 -1.9299 0
M  V30 17 N 0.1591 -3.4077 -2.9721 0
M  V30 18 O 3.5277 1.5363 1.0695 0
M  V30 19 O 2.5372 -0.4022 1.3916 0 CHG=-1
M  V30 20 H 1.0345 0.9514 -3.1564 0
M  V30 21 H -0.7836 -3.5557 0.0684 0
M  V30 22 H -0.4206 4.138 2.1729 0
M  V30 23 H -2.6524 1.8184 0.7595 0
M  V30 24 H -2.6145 1.3983 2.5111 0
M  V30 25 H -2.6105 3.1065 1.9944 0
M  V30 26 H -0.466 -5.1453 -1.8984 0
M  V30 END ATOM
M  V30 BEGIN BOND
M  V30 1 1 1 2
M  V30 2 1 1 3
M  V30 3 2 2 4
M  V30 4 1 2 5
M  V30 5 1 3 6
M  V30 6 2 3 7
M  V30 7 1 4 8
M  V30 8 1 5 9
M  V30 9 2 5 10
M  V30 10 1 6 11
M  V30 11 1 6 12
M  V30 12 1 7 13
M  V30 13 1 7 14
M  V30 14 2 8 15
M  V30 15 1 9 16
M  V30 16 1 10 17
M  V30 17 2 13 18
M  V30 18 1 13 19
M  V30 19 1 10 15
M  V30 20 2 11 14
M  V30 21 2 16 17
M  V30 22 1 8 20
M  V30 23 1 9 21
M  V30 24 1 11 22
M  V30 25 1 12 23
M  V30 26 1 12 24
M  V30 27 1 12 25
M  V30 28 1 16 26
M  V30 END BOND
M  V30 END CTAB
M  END
>  <NO.>
5351

>  <Name>
azathioprine

>  <SMILES>
Cn1cnc([N+](=O)[O-])c1Sc1ncnc2nc[nH]c12

>  <logBB>


>  <Class>
-1

>  <MW>
277.04

>  <nHBAcc>
7

>  <nHBDon>
1

>  <SLogP>
1.15

>  <TopoPSA>
115.42

>  <MMFF94 Energy>
25.632

$$$$
NC(Cc1cc(I)c(Oc2cc(I)c(O)c(I)c2)c(I)c1)C(=O)O
Actelion Java MolfileCreator 2.0

  0  0  0  0  0  0              0 V3000
M  V30 BEGIN CTAB
M  V30 COUNTS 35 36 0 0 0
M  V30 BEGIN ATOM
M  V30 1 I 0.0 -2.3261 2.2398 0
M  V30 2 C -0.0174 -1.0554 0.5713 0
M  V30 3 C 0.9875 -0.1046 0.3426 0
M  V30 4 C -1.0754 -1.1955 -0.3345 0
M  V30 5 O 2.0382 0.0179 1.2201 0
M  V30 6 C 0.953 0.6622 -0.8307 0
M  V30 7 C -1.1298 -0.4064 -1.4916 0
M  V30 8 C 1.9256 0.9261 2.2559 0
M  V30 9 I 2.4608 2.0362 -1.3169 0
M  V30 10 C -0.1054 0.5189 -1.7354 0
M  V30 11 C -2.2614 -0.5722 -2.4822 0
M  V30 12 C 0.8225 1.7491 2.5015 0
M  V30 13 C 3.0382 0.9864 3.0999 0
M  V30 14 C -1.8627 -1.3501 -3.7458 0 CFG=2
M  V30 15 C 0.8361 2.6289 3.5904 0
M  V30 16 C 3.0493 1.865 4.1853 0
M  V30 17 N -2.9579 -1.2704 -4.7467 0
M  V30 18 C -1.6038 -2.8186 -3.4002 0
M  V30 19 I -0.8523 3.8307 3.8958 0
M  V30 20 C 1.9482 2.6906 4.436 0
M  V30 21 I 4.7432 1.9077 5.4103 0
M  V30 22 O -2.4508 -3.6949 -3.3089 0
M  V30 23 O -0.3025 -3.0976 -3.1967 0
M  V30 24 O 1.9421 3.558 5.4959 0
M  V30 25 H -1.8594 -1.9281 -0.1483 0
M  V30 26 H -0.1366 1.1229 -2.6411 0
M  V30 27 H -2.615 0.4315 -2.7556 0
M  V30 28 H -3.111 -1.0605 -1.9854 0
M  V30 29 H -0.051 1.7176 1.8576 0
M  V30 30 H 3.8894 0.3405 2.8966 0
M  V30 31 H -0.9634 -0.929 -4.2091 0
M  V30 32 H -3.7586 -1.7946 -4.3813 0
M  V30 33 H -2.6739 -1.7876 -5.5804 0
M  V30 34 H -0.2842 -4.0547 -2.9859 0
M  V30 35 H 2.7894 3.4652 5.9667 0
M  V30 END ATOM
M  V30 BEGIN BOND
M  V30 1 1 1 2
M  V30 2 2 2 3
M  V30 3 1 2 4
M  V30 4 1 3 5
M  V30 5 1 3 6
M  V30 6 2 4 7
M  V30 7 1 5 8
M  V30 8 1 6 9
M  V30 9 2 6 10
M  V30 10 1 7 11
M  V30 11 2 8 12
M  V30 12 1 8 13
M  V30 13 1 11 14
M  V30 14 1 12 15
M  V30 15 2 13 16
M  V30 16 1 14 17
M  V30 17 1 14 18
M  V30 18 1 15 19
M  V30 19 2 15 20
M  V30 20 1 16 21
M  V30 21 2 18 22
M  V30 22 1 18 23
M  V30 23 1 20 24
M  V30 24 1 7 10
M  V30 25 1 16 20
M  V30 26 1 4 25
M  V30 27 1 10 26
M  V30 28 1 11 27
M  V30 29 1 11 28
M  V30 30 1 12 29
M  V30 31 1 13 30
M  V30 32 1 14 31
M  V30 33 1 17 32
M  V30 34 1 17 33
M  V30 35 1 23 34
M  V30 36 1 24 35
M  V30 END BOND
M  V30 BEGIN COLLECTION
M  V30 MDLV30/STERAC1 ATOMS=(1 14)
M  V30 END COLLECTION
M  V30 END CTAB
M  END
>  <NO.>
5359

>  <Name>
dl-thyroxine

>  <SMILES>
NC(Cc1cc(I)c(Oc2cc(I)c(O)c(I)c2)c(I)c1)C(=O)O

>  <logBB>


>  <Class>
-1

>  <MW>
776.69

>  <nHBAcc>
4

>  <nHBDon>
3

>  <SLogP>
4.56

>  <TopoPSA>
92.78

>  <MMFF94 Energy>
92.51

$$$$
NC(Cc1cc(I)c(Oc2ccc(O)c(I)c2)c(I)c1)C(=O)O
Actelion Java MolfileCreator 2.0

  0  0  0  0  0  0              0 V3000
M  V30 BEGIN CTAB
M  V30 COUNTS 35 36 0 0 0
M  V30 BEGIN ATOM
M  V30 1 I 0.7591 -0.8435 3.4619 0
M  V30 2 C -0.2626 0.1062 1.8956 0
M  V30 3 C 0.2262 1.2645 1.275 0
M  V30 4 C -1.4749 -0.4575 1.481 0
M  V30 5 O 1.4142 1.8204 1.6851 0
M  V30 6 C -0.5433 1.8892 0.2833 0
M  V30 7 C -2.2238 0.1389 0.4576 0
M  V30 8 C 2.5724 1.4381 1.0349 0
M  V30 9 I 0.0432 3.6842 -0.6289 0
M  V30 10 C -1.7555 1.3232 -0.1284 0
M  V30 11 C -3.5157 -0.4894 -0.0167 0
M  V30 12 C 2.6589 0.4873 0.0131 0
M  V30 13 C 3.73 2.0858 1.4769 0
M  V30 14 C -3.3909 -1.1788 -1.3841 0 CFG=2
M  V30 15 C 3.9009 0.1932 -0.5608 0
M  V30 16 C 4.9696 1.7934 0.905 0
M  V30 17 N -4.7458 -1.5212 -1.8963 0
M  V30 18 C -2.5277 -2.4417 -1.2652 0
M  V30 19 I 3.9651 -1.2377 -2.0865 0
M  V30 20 C 5.0533 0.8465 -0.1145 0
M  V30 21 O -1.3089 -2.4934 -1.276 0
M  V30 22 O -3.2505 -3.5745 -1.1046 0
M  V30 23 O 6.2691 0.564 -0.6714 0
M  V30 24 H -1.8396 -1.3688 1.9515 0
M  V30 25 H -2.3458 1.8027 -0.9078 0
M  V30 26 H -4.2735 0.3047 -0.0626 0
M  V30 27 H -3.876 -1.2023 0.7372 0
M  V30 28 H 1.7746 -0.0315 -0.3441 0
M  V30 29 H 3.6638 2.8246 2.2725 0
M  V30 30 H -2.9211 -0.5227 -2.1252 0
M  V30 31 H 5.8517 2.3123 1.2674 0
M  V30 32 H -5.0971 -2.2971 -1.3262 0
M  V30 33 H -4.6398 -1.9291 -2.8267 0
M  V30 34 H -2.5684 -4.2769 -1.0392 0
M  V30 35 H 6.9522 1.1055 -0.2444 0
M  V30 END ATOM
M  V30 BEGIN BOND
M  V30 1 1 1 2
M  V30 2 2 2 3
M  V30 3 1 2 4
M  V30 4 1 3 5
M  V30 5 1 3 6
M  V30 6 2 4 7
M  V30 7 1 5 8
M  V30 8 1 6 9
M  V30 9 2 6 10
M  V30 10 1 7 11
M  V30 11 2 8 12
M  V30 12 1 8 13
M  V30 13 1 11 14
M  V30 14 1 12 15
M  V30 15 2 13 16
M  V30 16 1 14 17
M  V30 17 1 14 18
M  V30 18 1 15 19
M  V30 19 2 15 20
M  V30 20 2 18 21
M  V30 21 1 18 22
M  V30 22 1 20 23
M  V30 23 1 7 10
M  V30 24 1 16 20
M  V30 25 1 4 24
M  V30 26 1 10 25
M  V30 27 1 11 26
M  V30 28 1 11 27
M  V30 29 1 12 28
M  V30 30 1 13 29
M  V30 31 1 14 30
M  V30 32 1 16 31
M  V30 33 1 17 32
M  V30 34 1 17 33
M  V30 35 1 22 34
M  V30 36 1 23 35
M  V30 END BOND
M  V30 BEGIN COLLECTION
M  V30 MDLV30/STERAC1 ATOMS=(1 14)
M  V30 END COLLECTION
M  V30 END CTAB
M  END
>  <NO.>
5360

>  <Name>
liothyronine

>  <SMILES>
NC(Cc1cc(I)c(Oc2ccc(O)c(I)c2)c(I)c1)C(=O)O

>  <logBB>


>  <Class>
-1

>  <MW>
650.79

>  <nHBAcc>
4

>  <nHBDon>
3

>  <SLogP>
3.95

>  <TopoPSA>
92.78

>  <MMFF94 Energy>
88.195

$$$$
NCCCCC(NC(CCc1ccccc1)C(=O)O)C(=O)N1CCCC1C(=O)O
Actelion Java MolfileCreator 2.0

  0  0  0  0  0  0              0 V3000
M  V30 BEGIN CTAB
M  V30 COUNTS 60 61 0 0 0
M  V30 BEGIN ATOM
M  V30 1 O -0.9452 -1.2605 4.9704 0
M  V30 2 C -0.8332 -2.2715 4.293 0
M  V30 3 O -0.2329 -3.3684 4.8025 0
M  V30 4 C -1.3927 -2.5063 2.8905 0
M  V30 5 N -1.4307 -1.2626 2.1142 0
M  V30 6 C -2.8549 -2.9497 2.9921 0
M  V30 7 C -0.2532 -0.6507 1.7363 0
M  V30 8 C -2.7934 -0.8968 1.7768 0
M  V30 9 C -3.5477 -2.2134 1.8532 0
M  V30 10 O 0.8334 -1.1727 2.0021 0
M  V30 11 C -0.3436 0.7023 0.9826 0
M  V30 12 N 0.2532 0.5779 -0.368 0
M  V30 13 C 0.4207 1.7479 1.8215 0
M  V30 14 C -0.5226 -0.2949 -1.28 0
M  V30 15 C 0.2754 3.1816 1.2963 0
M  V30 16 C -1.7821 0.4147 -1.7862 0
M  V30 17 C 0.3328 -0.679 -2.4944 0
M  V30 18 C 0.9076 4.1881 2.2637 0
M  V30 19 O -2.8398 -0.1197 -2.0798 0
M  V30 20 O -1.634 1.7524 -1.9219 0
M  V30 21 C 1.5353 -1.5476 -2.1123 0
M  V30 22 C 0.9247 5.6223 1.7314 0
M  V30 23 C 2.3148 -1.9697 -3.3343 0
M  V30 24 N -0.4173 6.157 1.5299 0
M  V30 25 C 1.9849 -3.1474 -4.0178 0
M  V30 26 C 3.3603 -1.172 -3.8179 0
M  V30 27 C 2.6943 -3.5243 -5.1592 0
M  V30 28 C 4.0687 -1.5505 -4.9592 0
M  V30 29 C 3.7359 -2.7264 -5.6292 0
M  V30 30 H 0.1066 -3.0635 5.6701 0
M  V30 31 H -0.7689 -3.2276 2.351 0
M  V30 32 H -3.3015 -2.6523 3.9492 0
M  V30 33 H -2.9604 -4.0357 2.9053 0
M  V30 34 H -2.8704 -0.444 0.7878 0
M  V30 35 H -3.1458 -0.1857 2.5315 0
M  V30 36 H -3.416 -2.7747 0.9201 0
M  V30 37 H -4.6194 -2.0773 2.0221 0
M  V30 38 H -1.3782 1.0439 0.9039 0
M  V30 39 H 0.2967 1.5023 -0.802 0
M  V30 40 H 0.0475 1.7081 2.854 0
M  V30 41 H 1.4861 1.4864 1.8742 0
M  V30 42 H -0.8388 -1.2087 -0.7651 0
M  V30 43 H -0.788 3.4101 1.162 0
M  V30 44 H 0.7579 3.2751 0.3173 0
M  V30 45 H -0.2937 -1.2201 -3.2169 0
M  V30 46 H 0.6736 0.2246 -3.0188 0
M  V30 47 H 0.3766 4.1578 3.2238 0
M  V30 48 H 1.943 3.8882 2.4687 0
M  V30 49 H -2.4939 2.0478 -2.2893 0
M  V30 50 H 2.2038 -1.0108 -1.428 0
M  V30 51 H 1.2 -2.4407 -1.5697 0
M  V30 52 H 1.4821 5.6693 0.7894 0
M  V30 53 H 1.4491 6.2598 2.4516 0
M  V30 54 H -0.3475 7.1281 1.2272 0
M  V30 55 H -0.8752 5.659 0.7687 0
M  V30 56 H 1.1737 -3.779 -3.663 0
M  V30 57 H 3.6292 -0.2516 -3.304 0
M  V30 58 H 2.4344 -4.4413 -5.6811 0
M  V30 59 H 4.8811 -0.9279 -5.3243 0
M  V30 60 H 4.2888 -3.0213 -6.5169 0
M  V30 END ATOM
M  V30 BEGIN BOND
M  V30 1 2 1 2
M  V30 2 1 2 3
M  V30 3 1 2 4
M  V30 4 1 4 5
M  V30 5 1 4 6
M  V30 6 1 5 7
M  V30 7 1 5 8
M  V30 8 1 6 9
M  V30 9 2 7 10
M  V30 10 1 7 11
M  V30 11 1 11 12
M  V30 12 1 11 13
M  V30 13 1 12 14
M  V30 14 1 13 15
M  V30 15 1 14 16
M  V30 16 1 14 17
M  V30 17 1 15 18
M  V30 18 2 16 19
M  V30 19 1 16 20
M  V30 20 1 17 21
M  V30 21 1 18 22
M  V30 22 1 21 23
M  V30 23 1 22 24
M  V30 24 2 23 25
M  V30 25 1 23 26
M  V30 26 1 25 27
M  V30 27 2 26 28
M  V30 28 2 27 29
M  V30 29 1 8 9
M  V30 30 1 28 29
M  V30 31 1 3 30
M  V30 32 1 4 31
M  V30 33 1 6 32
M  V30 34 1 6 33
M  V30 35 1 8 34
M  V30 36 1 8 35
M  V30 37 1 9 36
M  V30 38 1 9 37
M  V30 39 1 11 38
M  V30 40 1 12 39
M  V30 41 1 13 40
M  V30 42 1 13 41
M  V30 43 1 14 42
M  V30 44 1 15 43
M  V30 45 1 15 44
M  V30 46 1 17 45
M  V30 47 1 17 46
M  V30 48 1 18 47
M  V30 49 1 18 48
M  V30 50 1 20 49
M  V30 51 1 21 50
M  V30 52 1 21 51
M  V30 53 1 22 52
M  V30 54 1 22 53
M  V30 55 1 24 54
M  V30 56 1 24 55
M  V30 57 1 25 56
M  V30 58 1 26 57
M  V30 59 1 27 58
M  V30 60 1 28 59
M  V30 61 1 29 60
M  V30 END BOND
M  V30 END CTAB
M  END
>  <NO.>
5366

>  <Name>
lisinopril

>  <SMILES>
NCCCCC(NC(CCc1ccccc1)C(=O)O)C(=O)N1CCCC1C(=O)O

>  <logBB>


>  <Class>
-1

>  <MW>
405.23

>  <nHBAcc>
5

>  <nHBDon>
4

>  <SLogP>
1.24

>  <TopoPSA>
132.96

>  <MMFF94 Energy>
81.937

$$$$
NCCCCCC(=O)O
Actelion Java MolfileCreator 2.0

  0  0  0  0  0  0              0 V3000
M  V30 BEGIN CTAB
M  V30 COUNTS 22 21 0 0 0
M  V30 BEGIN ATOM
M  V30 1 O -3.1311 -1.9082 -1.2973 0
M  V30 2 C -2.7555 -0.9399 -1.9345 0
M  V30 3 O -3.4172 -0.5509 -3.0426 0
M  V30 4 C -1.58 -0.0467 -1.6432 0
M  V30 5 C -0.8063 -0.514 -0.4119 0
M  V30 6 C 0.3823 0.4028 -0.1203 0
M  V30 7 C 1.1624 -0.0698 1.1083 0
M  V30 8 C 2.3448 0.8527 1.4007 0
M  V30 9 N 3.0829 0.3765 2.564 0
M  V30 10 H -4.147 -1.2006 -3.1219 0
M  V30 11 H -1.9552 0.9701 -1.4838 0
M  V30 12 H -0.9211 -0.0516 -2.5185 0
M  V30 13 H -0.4529 -1.5411 -0.5666 0
M  V30 14 H -1.4754 -0.5392 0.4573 0
M  V30 15 H 0.0246 1.4267 0.043 0
M  V30 16 H 1.049 0.428 -0.9908 0
M  V30 17 H 0.4918 -0.1016 1.9764 0
M  V30 18 H 1.5222 -1.0929 0.9408 0
M  V30 19 H 1.9919 1.873 1.5872 0
M  V30 20 H 3.0197 0.8852 0.5388 0
M  V30 21 H 3.8329 1.0314 2.7811 0
M  V30 22 H 2.4705 0.3625 3.3788 0
M  V30 END ATOM
M  V30 BEGIN BOND
M  V30 1 2 1 2
M  V30 2 1 2 3
M  V30 3 1 2 4
M  V30 4 1 4 5
M  V30 5 1 5 6
M  V30 6 1 6 7
M  V30 7 1 7 8
M  V30 8 1 8 9
M  V30 9 1 3 10
M  V30 10 1 4 11
M  V30 11 1 4 12
M  V30 12 1 5 13
M  V30 13 1 5 14
M  V30 14 1 6 15
M  V30 15 1 6 16
M  V30 16 1 7 17
M  V30 17 1 7 18
M  V30 18 1 8 19
M  V30 19 1 8 20
M  V30 20 1 9 21
M  V30 21 1 9 22
M  V30 END BOND
M  V30 END CTAB
M  END
>  <NO.>
5367

>  <Name>
aminocaproic acid

>  <SMILES>
NCCCCCC(=O)O

>  <logBB>


>  <Class>
-1

>  <MW>
131.09

>  <nHBAcc>
2

>  <nHBDon>
2

>  <SLogP>
0.59

>  <TopoPSA>
63.32

>  <MMFF94 Energy>
-29.78

$$$$
NS(=O)(=O)c1cc(Cl)c(Cl)c(S(N)(=O)=O)c1
Actelion Java MolfileCreator 2.0

  0  0  0  0  0  0              0 V3000
M  V30 BEGIN CTAB
M  V30 COUNTS 22 22 0 0 0
M  V30 BEGIN ATOM
M  V30 1 Cl 2.715 2.2768 -0.6126 0
M  V30 2 C 1.6509 0.9381 -0.3184 0
M  V30 3 C 2.1795 -0.3668 -0.2755 0
M  V30 4 C 0.2705 1.108 -0.1348 0
M  V30 5 Cl 3.8664 -0.6943 -0.4965 0
M  V30 6 C 1.3527 -1.4728 -0.0509 0
M  V30 7 S -0.4805 2.7084 -0.1475 0
M  V30 8 C -0.5638 2.0E-4 0.0898 0
M  V30 9 C -0.014 -1.2813 0.1371 0
M  V30 10 O 0.228 3.574 0.7619 0
M  V30 11 O -1.9149 2.5438 -0.074 0
M  V30 12 N -0.1919 3.2546 -1.7054 0
M  V30 13 S -1.0765 -2.6722 0.3996 0
M  V30 14 O -0.3072 -3.8851 0.2612 0
M  V30 15 O -2.3114 -2.4428 -0.3096 0
M  V30 16 N -1.4248 -2.5286 2.0331 0
M  V30 17 H 1.7779 -2.4749 -0.0247 0
M  V30 18 H -1.637 0.1306 0.2308 0
M  V30 19 H 0.4271 4.0674 -1.6839 0
M  V30 20 H -1.0757 3.4251 -2.1877 0
M  V30 21 H -1.0663 -3.3402 2.5393 0
M  V30 22 H -2.4268 -2.3806 2.1667 0
M  V30 END ATOM
M  V30 BEGIN BOND
M  V30 1 1 1 2
M  V30 2 2 2 3
M  V30 3 1 2 4
M  V30 4 1 3 5
M  V30 5 1 3 6
M  V30 6 1 4 7
M  V30 7 2 4 8
M  V30 8 2 6 9
M  V30 9 2 7 10
M  V30 10 2 7 11
M  V30 11 1 7 12
M  V30 12 1 9 13
M  V30 13 2 13 14
M  V30 14 2 13 15
M  V30 15 1 13 16
M  V30 16 1 8 9
M  V30 17 1 6 17
M  V30 18 1 8 18
M  V30 19 1 12 19
M  V30 20 1 12 20
M  V30 21 1 16 21
M  V30 22 1 16 22
M  V30 END BOND
M  V30 END CTAB
M  END
>  <NO.>
5371

>  <Name>
dichlorphenamide

>  <SMILES>
NS(=O)(=O)c1cc(Cl)c(Cl)c(S(N)(=O)=O)c1

>  <logBB>


>  <Class>
-1

>  <MW>
303.91

>  <nHBAcc>
4

>  <nHBDon>
2

>  <SLogP>
0.29

>  <TopoPSA>
120.32

>  <MMFF94 Energy>
-167.97

$$$$
NS(=O)(=O)c1cc2c(cc1C(F)(F)F)NC(Cc1ccccc1)NS2(=O)=O
Actelion Java MolfileCreator 2.0

  0  0  0  0  0  0              0 V3000
M  V30 BEGIN CTAB
M  V30 COUNTS 41 43 0 0 0
M  V30 BEGIN ATOM
M  V30 1 S -0.2502 -1.0848 2.5883 0
M  V30 2 O -0.4744 -0.1517 3.6691 0
M  V30 3 O 0.1002 -2.4652 2.8388 0
M  V30 4 N -1.6443 -1.0816 1.6558 0
M  V30 5 C 0.9378 -0.4076 1.4908 0
M  V30 6 C -1.4413 -1.7459 0.3774 0 CFG=2
M  V30 7 C 0.6654 -0.4432 0.1256 0
M  V30 8 C 2.0855 0.1959 2.0117 0
M  V30 9 N -0.4654 -1.0229 -0.4081 0
M  V30 10 C -2.7811 -1.893 -0.3876 0
M  V30 11 C 1.6141 0.1325 -0.7297 0
M  V30 12 C 3.0208 0.7606 1.1367 0
M  V30 13 C -3.4377 -0.6747 -1.0116 0
M  V30 14 C 2.8035 0.7343 -0.253 0
M  V30 15 S 4.4551 1.536 1.8435 0
M  V30 16 C -3.2502 0.6314 -0.5414 0
M  V30 17 C -4.3205 -0.8719 -2.0882 0
M  V30 18 C 3.7527 1.3432 -1.2618 0
M  V30 19 O 4.3324 1.5309 3.2818 0
M  V30 20 O 4.7503 2.7346 1.1015 0
M  V30 21 N 5.6479 0.4158 1.4923 0
M  V30 22 C -3.9019 1.71 -1.146 0
M  V30 23 C -4.972 0.2058 -2.6915 0
M  V30 24 F 3.54 0.8594 -2.5229 0
M  V30 25 F 3.6123 2.6892 -1.3715 0
M  V30 26 F 5.0671 1.0932 -1.0185 0
M  V30 27 C -4.76 1.4982 -2.2215 0
M  V30 28 H -2.4153 -1.4606 2.202 0
M  V30 29 H -1.0818 -2.7679 0.5559 0
M  V30 30 H 2.2365 0.2234 3.0905 0
M  V30 31 H -0.6655 -0.9009 -1.3952 0
M  V30 32 H -2.5942 -2.6077 -1.202 0
M  V30 33 H -3.5215 -2.36 0.2757 0
M  V30 34 H 1.4259 0.118 -1.8046 0
M  V30 35 H -2.5948 0.842 0.3001 0
M  V30 36 H -4.5104 -1.8741 -2.468 0
M  V30 37 H 6.0789 0.0753 2.3529 0
M  V30 38 H 6.3127 0.8047 0.8192 0
M  V30 39 H -3.7402 2.7177 -0.7704 0
M  V30 40 H -5.6483 0.0355 -3.5252 0
M  V30 41 H -5.2671 2.3391 -2.6873 0
M  V30 END ATOM
M  V30 BEGIN BOND
M  V30 1 2 1 2
M  V30 2 2 1 3
M  V30 3 1 1 4
M  V30 4 1 1 5
M  V30 5 1 4 6
M  V30 6 2 5 7
M  V30 7 1 5 8
M  V30 8 1 6 9
M  V30 9 1 6 10
M  V30 10 1 7 11
M  V30 11 2 8 12
M  V30 12 1 10 13
M  V30 13 2 11 14
M  V30 14 1 12 15
M  V30 15 2 13 16
M  V30 16 1 13 17
M  V30 17 1 14 18
M  V30 18 2 15 19
M  V30 19 2 15 20
M  V30 20 1 15 21
M  V30 21 1 16 22
M  V30 22 2 17 23
M  V30 23 1 18 24
M  V30 24 1 18 25
M  V30 25 1 18 26
M  V30 26 2 22 27
M  V30 27 1 7 9
M  V30 28 1 12 14
M  V30 29 1 23 27
M  V30 30 1 4 28
M  V30 31 1 6 29
M  V30 32 1 8 30
M  V30 33 1 9 31
M  V30 34 1 10 32
M  V30 35 1 10 33
M  V30 36 1 11 34
M  V30 37 1 16 35
M  V30 38 1 17 36
M  V30 39 1 21 37
M  V30 40 1 21 38
M  V30 41 1 22 39
M  V30 42 1 23 40
M  V30 43 1 27 41
M  V30 END BOND
M  V30 BEGIN COLLECTION
M  V30 MDLV30/STERAC1 ATOMS=(1 6)
M  V30 END COLLECTION
M  V30 END CTAB
M  END
>  <NO.>
5372

>  <Name>
bendroflumethiazide

>  <SMILES>
NS(=O)(=O)c1cc2c(cc1C(F)(F)F)NC(Cc1ccccc1)NS2(=O)=O

>  <logBB>


>  <Class>
-1

>  <MW>
421.04

>  <nHBAcc>
5

>  <nHBDon>
3

>  <SLogP>
1.63

>  <TopoPSA>
118.36

>  <MMFF94 Energy>
-180.08

$$$$
NS(=O)(=O)c1cc2c(cc1Cl)NC(C1CC3C=CC1C3)NS2(=O)=O
Actelion Java MolfileCreator 2.0

  0  0  0  0  0  0              0 V3000
M  V30 BEGIN CTAB
M  V30 COUNTS 40 43 0 0 0
M  V30 BEGIN ATOM
M  V30 1 Cl -1.4299 2.5243 -4.2098 0
M  V30 2 C -1.1046 2.2463 -2.5362 0
M  V30 3 C -0.7075 3.2403 -1.6416 0
M  V30 4 C -1.2778 0.9292 -2.0755 0
M  V30 5 S -0.4535 4.9087 -2.1557 0
M  V30 6 C -0.4886 2.917 -0.2978 0
M  V30 7 C -1.0509 0.5763 -0.7379 0
M  V30 8 O 0.4081 4.9283 -3.312 0
M  V30 9 O -0.1805 5.7181 -0.9897 0
M  V30 10 N -1.9802 5.3897 -2.6587 0
M  V30 11 C -0.6644 1.5954 0.1289 0
M  V30 12 N -1.2521 -0.7287 -0.3366 0
M  V30 13 S -0.449 1.2243 1.8321 0
M  V30 14 C -0.8232 -1.251 0.9399 0
M  V30 15 O -1.3121 2.1097 2.5831 0
M  V30 16 O 0.9695 1.1421 2.0879 0
M  V30 17 N -1.1248 -0.2929 1.9767 0
M  V30 18 C 0.6454 -1.7017 0.9059 0
M  V30 19 C 0.8813 -2.9291 -0.0245 0
M  V30 20 C 1.1552 -2.2494 2.2838 0
M  V30 21 C 2.3785 -3.0899 -0.1786 0
M  V30 22 C 0.6223 -4.111 0.9171 0
M  V30 23 C 1.6737 -3.6601 1.9329 0
M  V30 24 C 2.8529 -3.5171 1.0013 0
M  V30 25 H -1.5951 0.1642 -2.7825 0
M  V30 26 H -0.1871 3.6785 0.421 0
M  V30 27 H -1.9681 5.5894 -3.6603 0
M  V30 28 H -2.3017 6.1726 -2.0873 0
M  V30 29 H -1.4987 -1.4148 -1.0419 0
M  V30 30 H -1.45 -2.1266 1.1466 0
M  V30 31 H -2.1087 -0.225 2.2252 0
M  V30 32 H 1.2866 -0.8738 0.5773 0
M  V30 33 H 0.3289 -2.9554 -0.9642 0
M  V30 34 H 0.3438 -2.3191 3.0171 0
M  V30 35 H 1.9416 -1.6104 2.7001 0
M  V30 36 H 2.9589 -2.8357 -1.0527 0
M  V30 37 H 0.8445 -5.0855 0.4633 0
M  V30 38 H -0.3923 -4.1384 1.3271 0
M  V30 39 H 1.8295 -4.3363 2.7739 0
M  V30 40 H 3.8882 -3.6784 1.2618 0
M  V30 END ATOM
M  V30 BEGIN BOND
M  V30 1 1 1 2
M  V30 2 2 2 3
M  V30 3 1 2 4
M  V30 4 1 3 5
M  V30 5 1 3 6
M  V30 6 2 4 7
M  V30 7 2 5 8
M  V30 8 2 5 9
M  V30 9 1 5 10
M  V30 10 2 6 11
M  V30 11 1 7 12
M  V30 12 1 11 13
M  V30 13 1 12 14
M  V30 14 2 13 15
M  V30 15 2 13 16
M  V30 16 1 13 17
M  V30 17 1 14 18
M  V30 18 1 18 19
M  V30 19 1 18 20
M  V30 20 1 19 21
M  V30 21 1 19 22
M  V30 22 1 20 23
M  V30 23 2 21 24
M  V30 24 1 7 11
M  V30 25 1 14 17
M  V30 26 1 22 23
M  V30 27 1 23 24
M  V30 28 1 4 25
M  V30 29 1 6 26
M  V30 30 1 10 27
M  V30 31 1 10 28
M  V30 32 1 12 29
M  V30 33 1 14 30
M  V30 34 1 17 31
M  V30 35 1 18 32
M  V30 36 1 19 33
M  V30 37 1 20 34
M  V30 38 1 20 35
M  V30 39 1 21 36
M  V30 40 1 22 37
M  V30 41 1 22 38
M  V30 42 1 23 39
M  V30 43 1 24 40
M  V30 END BOND
M  V30 END CTAB
M  END
>  <NO.>
5373

>  <Name>
cyclothiazide

>  <SMILES>
NS(=O)(=O)c1cc2c(cc1Cl)NC(C1CC3C=CC1C3)NS2(=O)=O

>  <logBB>


>  <Class>
-1

>  <MW>
389.03

>  <nHBAcc>
5

>  <nHBDon>
3

>  <SLogP>
1.23

>  <TopoPSA>
118.36

>  <MMFF94 Energy>
-184.24

$$$$
NS(=O)(=O)c1cc2c(cc1Cl)NC(CSCc1ccccc1)=NS2(=O)=O
Actelion Java MolfileCreator 2.0

  0  0  0  0  0  0              0 V3000
M  V30 BEGIN CTAB
M  V30 COUNTS 40 42 0 0 0
M  V30 BEGIN ATOM
M  V30 1 Cl 3.2217 -2.3732 1.6099 0
M  V30 2 C 1.5915 -1.8161 1.7306 0
M  V30 3 C 0.5641 -2.5281 2.3542 0
M  V30 4 C 1.3129 -0.5717 1.1392 0
M  V30 5 S 0.8521 -4.0844 3.136 0
M  V30 6 C -0.7316 -1.9978 2.3842 0
M  V30 7 C 0.0216 -0.0312 1.1554 0
M  V30 8 O -0.415 -4.6283 3.5678 0
M  V30 9 O 1.976 -3.9671 4.0319 0
M  V30 10 N 1.3253 -5.0669 1.8607 0
M  V30 11 C -0.978 -0.7597 1.7808 0
M  V30 12 N -0.2382 1.2076 0.5752 0
M  V30 13 S -2.6153 -0.1001 1.7856 0
M  V30 14 C -1.473 1.8144 0.5839 0
M  V30 15 O -2.9548 0.0635 3.1851 0
M  V30 16 O -3.3763 -0.9924 0.933 0
M  V30 17 N -2.5657 1.3546 1.0924 0
M  V30 18 C -1.5483 3.1917 -0.0719 0
M  V30 19 S -2.5305 3.2006 -1.6045 0
M  V30 20 C -1.8628 1.765 -2.5056 0
M  V30 21 C -0.3629 1.7254 -2.6839 0
M  V30 22 C 0.3783 2.8572 -3.0536 0
M  V30 23 C 0.3122 0.5006 -2.5477 0
M  V30 24 C 1.7628 2.7794 -3.219 0
M  V30 25 C 1.6958 0.4228 -2.7158 0
M  V30 26 C 2.4217 1.5648 -3.043 0
M  V30 27 H 2.1211 -0.0224 0.658 0
M  V30 28 H -1.5495 -2.5329 2.8669 0
M  V30 29 H 0.6638 -5.8384 1.7571 0
M  V30 30 H 2.2901 -5.3729 1.9999 0
M  V30 31 H 0.5281 1.6551 0.0775 0
M  V30 32 H -2.022 3.8812 0.6351 0
M  V30 33 H -0.5459 3.5787 -0.277 0
M  V30 34 H -2.3231 1.7558 -3.5001 0
M  V30 35 H -2.2142 0.8629 -1.9924 0
M  V30 36 H -0.1163 3.8124 -3.2237 0
M  V30 37 H -0.2399 -0.4078 -2.3102 0
M  V30 38 H 2.3248 3.6661 -3.5034 0
M  V30 39 H 2.2043 -0.5325 -2.6092 0
M  V30 40 H 3.4978 1.5045 -3.1872 0
M  V30 END ATOM
M  V30 BEGIN BOND
M  V30 1 1 1 2
M  V30 2 2 2 3
M  V30 3 1 2 4
M  V30 4 1 3 5
M  V30 5 1 3 6
M  V30 6 2 4 7
M  V30 7 2 5 8
M  V30 8 2 5 9
M  V30 9 1 5 10
M  V30 10 2 6 11
M  V30 11 1 7 12
M  V30 12 1 11 13
M  V30 13 1 12 14
M  V30 14 2 13 15
M  V30 15 2 13 16
M  V30 16 1 13 17
M  V30 17 1 14 18
M  V30 18 1 18 19
M  V30 19 1 19 20
M  V30 20 1 20 21
M  V30 21 2 21 22
M  V30 22 1 21 23
M  V30 23 1 22 24
M  V30 24 2 23 25
M  V30 25 2 24 26
M  V30 26 1 7 11
M  V30 27 2 14 17
M  V30 28 1 25 26
M  V30 29 1 4 27
M  V30 30 1 6 28
M  V30 31 1 10 29
M  V30 32 1 10 30
M  V30 33 1 12 31
M  V30 34 1 18 32
M  V30 35 1 18 33
M  V30 36 1 20 34
M  V30 37 1 20 35
M  V30 38 1 22 36
M  V30 39 1 23 37
M  V30 40 1 24 38
M  V30 41 1 25 39
M  V30 42 1 26 40
M  V30 END BOND
M  V30 END CTAB
M  END
>  <NO.>
5374

>  <Name>
benzthiazide

>  <SMILES>
NS(=O)(=O)c1cc2c(cc1Cl)NC(CSCc1ccccc1)=NS2(=O)=O

>  <logBB>


>  <Class>
-1

>  <MW>
430.98

>  <nHBAcc>
6

>  <nHBDon>
2

>  <SLogP>
2.43

>  <TopoPSA>
118.69

>  <MMFF94 Energy>
-82.112

$$$$
NS(=O)(=O)c1cc2c(cc1Cl)NC(c1ccccc1)NC2=O
Actelion Java MolfileCreator 2.0

  0  0  0  0  0  0              0 V3000
M  V30 BEGIN CTAB
M  V30 COUNTS 34 36 0 0 0
M  V30 BEGIN ATOM
M  V30 1 Cl -3.5473 0.3295 3.3821 0
M  V30 2 C -2.7282 -0.1099 1.9257 0
M  V30 3 C -3.2895 -0.9039 0.922 0
M  V30 4 C -1.4153 0.3667 1.7805 0
M  V30 5 S -4.9401 -1.5141 1.0357 0
M  V30 6 C -2.5472 -1.2096 -0.2258 0
M  V30 7 C -0.653 0.0528 0.6523 0
M  V30 8 O -5.1835 -2.4205 -0.0634 0
M  V30 9 O -5.8365 -0.4241 1.3338 0
M  V30 10 N -4.8892 -2.5036 2.3911 0
M  V30 11 C -1.2405 -0.7289 -0.3479 0
M  V30 12 N 0.64 0.5227 0.5172 0
M  V30 13 C -0.4609 -0.9682 -1.5807 0
M  V30 14 C 1.5344 -0.1251 -0.4109 0 CFG=1
M  V30 15 O -0.9483 -1.5326 -2.5517 0
M  V30 16 N 0.8185 -0.4925 -1.5938 0
M  V30 17 C 2.6996 0.7841 -0.7306 0
M  V30 18 C 2.496 2.0262 -1.3577 0
M  V30 19 C 4.0108 0.4052 -0.4015 0
M  V30 20 C 3.5736 2.8632 -1.6496 0
M  V30 21 C 5.0878 1.2447 -0.6946 0
M  V30 22 C 4.8686 2.4716 -1.3181 0
M  V30 23 H -0.982 0.9862 2.5632 0
M  V30 24 H -2.977 -1.802 -1.0325 0
M  V30 25 H -5.1216 -3.4615 2.1255 0
M  V30 26 H -5.4931 -2.1203 3.1204 0
M  V30 27 H 1.0562 1.1031 1.2331 0
M  V30 28 H 1.8972 -1.0585 0.0379 0
M  V30 29 H 1.3332 -0.6359 -2.4505 0
M  V30 30 H 1.4871 2.3427 -1.6198 0
M  V30 31 H 4.2061 -0.5482 0.0852 0
M  V30 32 H 3.4016 3.8201 -2.136 0
M  V30 33 H 6.0998 0.9415 -0.4374 0
M  V30 34 H 5.7081 3.1235 -1.5464 0
M  V30 END ATOM
M  V30 BEGIN BOND
M  V30 1 1 1 2
M  V30 2 2 2 3
M  V30 3 1 2 4
M  V30 4 1 3 5
M  V30 5 1 3 6
M  V30 6 2 4 7
M  V30 7 2 5 8
M  V30 8 2 5 9
M  V30 9 1 5 10
M  V30 10 2 6 11
M  V30 11 1 7 12
M  V30 12 1 11 13
M  V30 13 1 12 14
M  V30 14 2 13 15
M  V30 15 1 13 16
M  V30 16 1 14 17
M  V30 17 2 17 18
M  V30 18 1 17 19
M  V30 19 1 18 20
M  V30 20 2 19 21
M  V30 21 2 20 22
M  V30 22 1 7 11
M  V30 23 1 14 16
M  V30 24 1 21 22
M  V30 25 1 4 23
M  V30 26 1 6 24
M  V30 27 1 10 25
M  V30 28 1 10 26
M  V30 29 1 12 27
M  V30 30 1 14 28
M  V30 31 1 16 29
M  V30 32 1 18 30
M  V30 33 1 19 31
M  V30 34 1 20 32
M  V30 35 1 21 33
M  V30 36 1 22 34
M  V30 END BOND
M  V30 BEGIN COLLECTION
M  V30 MDLV30/STERAC1 ATOMS=(1 14)
M  V30 END COLLECTION
M  V30 END CTAB
M  END
>  <NO.>
5375

>  <Name>
fenquizone

>  <SMILES>
NS(=O)(=O)c1cc2c(cc1Cl)NC(c1ccccc1)NC2=O

>  <logBB>


>  <Class>
-1

>  <MW>
337.03

>  <nHBAcc>
4

>  <nHBDon>
3

>  <SLogP>
1.84

>  <TopoPSA>
101.29

>  <MMFF94 Energy>
-124.75

$$$$
Nc1c(Br)cc(Br)cc1CNC1CCC(O)CC1
Actelion Java MolfileCreator 2.0

  0  0  0  0  0  0              0 V3000
M  V30 BEGIN CTAB
M  V30 COUNTS 36 37 0 0 0
M  V30 BEGIN ATOM
M  V30 1 Br -3.0065 2.4371 -3.7388 0
M  V30 2 C -3.1425 1.015 -2.4811 0
M  V30 3 C -2.1315 0.7955 -1.5242 0
M  V30 4 C -4.2652 0.1888 -2.5545 0
M  V30 5 N -1.0389 1.6585 -1.4172 0
M  V30 6 C -2.298 -0.246 -0.584 0
M  V30 7 C -4.4002 -0.8556 -1.6485 0
M  V30 8 C -3.4348 -1.0726 -0.6667 0
M  V30 9 C -1.3115 -0.4767 0.5483 0
M  V30 10 Br -5.917 -1.9814 -1.7345 0
M  V30 11 N 0.0552 -0.6834 0.0502 0
M  V30 12 C 0.9914 -1.1061 1.107 0
M  V30 13 C 2.3042 -1.5671 0.4469 0
M  V30 14 C 1.2956 0.0129 2.1179 0
M  V30 15 C 3.0797 -0.4121 -0.1952 0
M  V30 16 C 2.055 1.1845 1.4887 0
M  V30 17 C 3.3366 0.7239 0.7938 0
M  V30 18 O 4.2676 0.2653 1.7744 0
M  V30 19 H -5.0271 0.3632 -3.3088 0
M  V30 20 H -0.8704 2.3179 -2.1665 0
M  V30 21 H -0.231 1.2937 -0.914 0
M  V30 22 H -3.5707 -1.8815 0.0482 0
M  V30 23 H -1.6256 -1.35 1.1329 0
M  V30 24 H -1.362 0.3946 1.2109 0
M  V30 25 H 0.0137 -1.4146 -0.6621 0
M  V30 26 H 0.5671 -1.9668 1.6395 0
M  V30 27 H 2.104 -2.3366 -0.3092 0
M  V30 28 H 2.9348 -2.0465 1.2071 0
M  V30 29 H 0.3787 0.3824 2.5897 0
M  V30 30 H 1.899 -0.406 2.934 0
M  V30 31 H 4.0341 -0.8012 -0.5695 0
M  V30 32 H 2.5241 -0.0278 -1.0588 0
M  V30 33 H 1.4105 1.7005 0.7682 0
M  V30 34 H 2.2983 1.9045 2.2792 0
M  V30 35 H 3.8028 1.5657 0.2701 0
M  V30 36 H 4.4739 1.0193 2.3536 0
M  V30 END ATOM
M  V30 BEGIN BOND
M  V30 1 1 1 2
M  V30 2 2 2 3
M  V30 3 1 2 4
M  V30 4 1 3 5
M  V30 5 1 3 6
M  V30 6 2 4 7
M  V30 7 2 6 8
M  V30 8 1 6 9
M  V30 9 1 7 10
M  V30 10 1 9 11
M  V30 11 1 11 12
M  V30 12 1 12 13
M  V30 13 1 12 14
M  V30 14 1 13 15
M  V30 15 1 14 16
M  V30 16 1 15 17
M  V30 17 1 17 18
M  V30 18 1 7 8
M  V30 19 1 16 17
M  V30 20 1 4 19
M  V30 21 1 5 20
M  V30 22 1 5 21
M  V30 23 1 8 22
M  V30 24 1 9 23
M  V30 25 1 9 24
M  V30 26 1 11 25
M  V30 27 1 12 26
M  V30 28 1 13 27
M  V30 29 1 13 28
M  V30 30 1 14 29
M  V30 31 1 14 30
M  V30 32 1 15 31
M  V30 33 1 15 32
M  V30 34 1 16 33
M  V30 35 1 16 34
M  V30 36 1 17 35
M  V30 37 1 18 36
M  V30 END BOND
M  V30 END CTAB
M  END
>  <NO.>
5376

>  <Name>
ambroxol

>  <SMILES>
Nc1c(Br)cc(Br)cc1CNC1CCC(O)CC1

>  <logBB>


>  <Class>
-1

>  <MW>
375.98

>  <nHBAcc>
3

>  <nHBDon>
3

>  <SLogP>
3.19

>  <TopoPSA>
58.28

>  <MMFF94 Energy>
25.382

$$$$
Nc1c(CC(=O)O)cccc1C(=O)c1ccc(Br)cc1
Actelion Java MolfileCreator 2.0

  0  0  0  0  0  0              0 V3000
M  V30 BEGIN CTAB
M  V30 COUNTS 32 33 0 0 0
M  V30 BEGIN ATOM
M  V30 1 Br -1.8616 -4.8619 -4.2126 0
M  V30 2 C -1.5813 -3.7186 -2.7335 0
M  V30 3 C -0.8385 -2.549 -2.8949 0
M  V30 4 C -2.1253 -4.0474 -1.4927 0
M  V30 5 C -0.63 -1.7015 -1.803 0
M  V30 6 C -1.9181 -3.2012 -0.4007 0
M  V30 7 C -1.1575 -2.0341 -0.5484 0
M  V30 8 C -0.9705 -1.1549 0.636 0
M  V30 9 O -1.8484 -1.1092 1.4955 0
M  V30 10 C 0.2534 -0.3226 0.7859 0
M  V30 11 C 0.1469 1.0273 1.1921 0
M  V30 12 C 1.5044 -0.9104 0.5461 0
M  V30 13 N -1.1048 1.6165 1.3849 0
M  V30 14 C 1.3241 1.8031 1.2458 0
M  V30 15 C 2.6606 -0.1447 0.6441 0
M  V30 16 C 2.5699 1.2044 0.9782 0
M  V30 17 C 1.2869 3.2764 1.58 0
M  V30 18 C 0.6752 4.104 0.4797 0
M  V30 19 O 1.0602 4.1887 -0.6753 0
M  V30 20 O -0.3956 4.8136 0.8956 0
M  V30 21 H -0.4268 -2.2837 -3.8656 0
M  V30 22 H -2.7142 -4.952 -1.3651 0
M  V30 23 H -0.0729 -0.7794 -1.9523 0
M  V30 24 H -2.3513 -3.4526 0.5658 0
M  V30 25 H 1.5864 -1.9623 0.2846 0
M  V30 26 H -1.1999 2.5195 1.8294 0
M  V30 27 H -1.8781 0.9658 1.5444 0
M  V30 28 H 3.6318 -0.5933 0.4506 0
M  V30 29 H 3.4836 1.7947 1.0249 0
M  V30 30 H 0.7389 3.4239 2.5186 0
M  V30 31 H 2.293 3.6718 1.7644 0
M  V30 32 H -0.6956 5.2723 0.082 0
M  V30 END ATOM
M  V30 BEGIN BOND
M  V30 1 1 1 2
M  V30 2 2 2 3
M  V30 3 1 2 4
M  V30 4 1 3 5
M  V30 5 2 4 6
M  V30 6 2 5 7
M  V30 7 1 7 8
M  V30 8 2 8 9
M  V30 9 1 8 10
M  V30 10 2 10 11
M  V30 11 1 10 12
M  V30 12 1 11 13
M  V30 13 1 11 14
M  V30 14 2 12 15
M  V30 15 2 14 16
M  V30 16 1 14 17
M  V30 17 1 17 18
M  V30 18 2 18 19
M  V30 19 1 18 20
M  V30 20 1 6 7
M  V30 21 1 15 16
M  V30 22 1 3 21
M  V30 23 1 4 22
M  V30 24 1 5 23
M  V30 25 1 6 24
M  V30 26 1 12 25
M  V30 27 1 13 26
M  V30 28 1 13 27
M  V30 29 1 15 28
M  V30 30 1 16 29
M  V30 31 1 17 30
M  V30 32 1 17 31
M  V30 33 1 20 32
M  V30 END BOND
M  V30 END CTAB
M  END
>  <NO.>
5377

>  <Name>
bromfenac

>  <SMILES>
Nc1c(CC(=O)O)cccc1C(=O)c1ccc(Br)cc1

>  <logBB>


>  <Class>
-1

>  <MW>
333

>  <nHBAcc>
3

>  <nHBDon>
2

>  <SLogP>
2.89

>  <TopoPSA>
80.39

>  <MMFF94 Energy>
75.199

$$$$
Nc1ccc(C(=O)Oc2ccccc2)c(O)c1
Actelion Java MolfileCreator 2.0

  0  0  0  0  0  0              0 V3000
M  V30 BEGIN CTAB
M  V30 COUNTS 28 29 0 0 0
M  V30 BEGIN ATOM
M  V30 1 O 0.9494 1.5036 -0.3955 0
M  V30 2 C 0.3023 0.4938 -0.1462 0
M  V30 3 O -0.9832 0.195 -0.5474 0
M  V30 4 C 0.8634 -0.609 0.6772 0
M  V30 5 C -1.5577 1.2005 -1.3257 0
M  V30 6 C 2.1648 -0.4954 1.1855 0
M  V30 7 C 0.1295 -1.7688 0.962 0
M  V30 8 C -2.3112 2.1949 -0.7047 0
M  V30 9 C -1.4319 1.1438 -2.7124 0
M  V30 10 O 2.9717 0.5916 0.9657 0
M  V30 11 C 2.7181 -1.5161 1.9622 0
M  V30 12 C 0.6919 -2.787 1.7417 0
M  V30 13 C -2.9248 3.1707 -1.4888 0
M  V30 14 C -2.0482 2.1229 -3.4902 0
M  V30 15 C 1.9849 -2.6672 2.2544 0
M  V30 16 C -2.7917 3.1358 -2.879 0
M  V30 17 N 2.5396 -3.6845 3.0064 0
M  V30 18 H -0.8818 -1.9059 0.5874 0
M  V30 19 H -2.4163 2.2153 0.3753 0
M  V30 20 H -0.8576 0.3524 -3.1832 0
M  V30 21 H 2.4857 1.2419 0.4112 0
M  V30 22 H 3.7312 -1.4003 2.3378 0
M  V30 23 H 0.1059 -3.68 1.9457 0
M  V30 24 H -3.507 3.9591 -1.0188 0
M  V30 25 H -1.9505 2.0988 -4.5723 0
M  V30 26 H -3.2694 3.8995 -3.488 0
M  V30 27 H 2.0005 -4.5023 3.2542 0
M  V30 28 H 3.4635 -3.5805 3.4044 0
M  V30 END ATOM
M  V30 BEGIN BOND
M  V30 1 2 1 2
M  V30 2 1 2 3
M  V30 3 1 2 4
M  V30 4 1 3 5
M  V30 5 2 4 6
M  V30 6 1 4 7
M  V30 7 2 5 8
M  V30 8 1 5 9
M  V30 9 1 6 10
M  V30 10 1 6 11
M  V30 11 2 7 12
M  V30 12 1 8 13
M  V30 13 2 9 14
M  V30 14 2 11 15
M  V30 15 2 13 16
M  V30 16 1 15 17
M  V30 17 1 12 15
M  V30 18 1 14 16
M  V30 19 1 7 18
M  V30 20 1 8 19
M  V30 21 1 9 20
M  V30 22 1 10 21
M  V30 23 1 11 22
M  V30 24 1 12 23
M  V30 25 1 13 24
M  V30 26 1 14 25
M  V30 27 1 16 26
M  V30 28 1 17 27
M  V30 29 1 17 28
M  V30 END BOND
M  V30 END CTAB
M  END
>  <NO.>
5378

>  <Name>
phenyl 4-aminosalicylate

>  <SMILES>
Nc1ccc(C(=O)Oc2ccccc2)c(O)c1

>  <logBB>


>  <Class>
-1

>  <MW>
229.07

>  <nHBAcc>
4

>  <nHBDon>
2

>  <SLogP>
2.19

>  <TopoPSA>
72.55

>  <MMFF94 Energy>
51.774

$$$$
Nc1ccc(S(=O)(=O)Nc2ccccn2)cc1
Actelion Java MolfileCreator 2.0

  0  0  0  0  0  0              0 V3000
M  V30 BEGIN CTAB
M  V30 COUNTS 28 29 0 0 0
M  V30 BEGIN ATOM
M  V30 1 S -0.5655 0.3231 -2.1017 0
M  V30 2 O 0.558 -0.3696 -2.6949 0
M  V30 3 O -1.4367 1.1625 -2.8964 0
M  V30 4 N -1.5386 -0.7676 -1.3123 0
M  V30 5 C 0.0409 1.3469 -0.782 0
M  V30 6 C -1.0498 -1.9526 -0.7413 0
M  V30 7 C -0.8645 1.9214 0.1121 0
M  V30 8 C 1.4124 1.5632 -0.6399 0
M  V30 9 N -2.029 -2.8755 -0.6792 0
M  V30 10 C 0.1976 -2.122 -0.1648 0
M  V30 11 C -0.3862 2.7135 1.159 0
M  V30 12 C 1.8761 2.3582 0.4115 0
M  V30 13 C -1.7288 -4.0461 -0.075 0
M  V30 14 C 0.4783 -3.3383 0.4541 0
M  V30 15 C 0.9832 2.9522 1.3091 0
M  V30 16 C -0.4999 -4.3239 0.4978 0
M  V30 17 N 1.4523 3.7011 2.3726 0
M  V30 18 H -2.4719 -0.8661 -1.7029 0
M  V30 19 H -1.9338 1.7584 0.0034 0
M  V30 20 H 2.1235 1.122 -1.3343 0
M  V30 21 H 0.9556 -1.3509 -0.1835 0
M  V30 22 H -1.0959 3.1488 1.8582 0
M  V30 23 H 2.9461 2.515 0.5225 0
M  V30 24 H -2.5311 -4.7785 -0.0598 0
M  V30 25 H 1.4527 -3.5109 0.9026 0
M  V30 26 H -0.3119 -5.2808 0.9719 0
M  V30 27 H 2.4312 3.9464 2.4301 0
M  V30 28 H 0.8048 4.1986 2.9689 0
M  V30 END ATOM
M  V30 BEGIN BOND
M  V30 1 2 1 2
M  V30 2 2 1 3
M  V30 3 1 1 4
M  V30 4 1 1 5
M  V30 5 1 4 6
M  V30 6 2 5 7
M  V30 7 1 5 8
M  V30 8 2 6 9
M  V30 9 1 6 10
M  V30 10 1 7 11
M  V30 11 2 8 12
M  V30 12 1 9 13
M  V30 13 2 10 14
M  V30 14 2 11 15
M  V30 15 2 13 16
M  V30 16 1 15 17
M  V30 17 1 12 15
M  V30 18 1 14 16
M  V30 19 1 4 18
M  V30 20 1 7 19
M  V30 21 1 8 20
M  V30 22 1 10 21
M  V30 23 1 11 22
M  V30 24 1 12 23
M  V30 25 1 13 24
M  V30 26 1 14 25
M  V30 27 1 16 26
M  V30 28 1 17 27
M  V30 29 1 17 28
M  V30 END BOND
M  V30 END CTAB
M  END
>  <NO.>
5379

>  <Name>
sulfapyridine

>  <SMILES>
Nc1ccc(S(=O)(=O)Nc2ccccn2)cc1

>  <logBB>


>  <Class>
-1

>  <MW>
249.06

>  <nHBAcc>
4

>  <nHBDon>
2

>  <SLogP>
1.46

>  <TopoPSA>
85.08

>  <MMFF94 Energy>
-64.246

$$$$
Nc1ccc(S(=O)(=O)Nc2ccnn2-c2ccccc2)cc1
Actelion Java MolfileCreator 2.0

  0  0  0  0  0  0              0 V3000
M  V30 BEGIN CTAB
M  V30 COUNTS 36 38 0 0 0
M  V30 BEGIN ATOM
M  V30 1 S -0.4862 -2.1897 0.4052 0
M  V30 2 O -0.3585 -3.5677 0.833 0
M  V30 3 O -1.5821 -1.7635 -0.4343 0
M  V30 4 N -0.4861 -1.2661 1.8372 0
M  V30 5 C 1.0354 -1.7476 -0.4008 0
M  V30 6 C -0.0365 0.1309 1.7168 0
M  V30 7 C 1.0323 -0.7907 -1.4173 0
M  V30 8 C 2.221 -2.3864 -0.0316 0
M  V30 9 N -0.6632 1.2255 1.1269 0
M  V30 10 C 1.1687 0.5769 2.2057 0
M  V30 11 C 2.2346 -0.4487 -2.041 0
M  V30 12 C 3.415 -2.0373 -0.6677 0
M  V30 13 N 0.1699 2.3048 1.108 0
M  V30 14 C -1.9824 1.3413 0.6233 0
M  V30 15 C 1.2486 1.9118 1.7837 0
M  V30 16 C 3.4316 -1.0766 -1.6834 0
M  V30 17 C -3.0287 0.5908 1.1713 0
M  V30 18 C -2.2429 2.2533 -0.4097 0
M  V30 19 N 4.6236 -0.7022 -2.2752 0
M  V30 20 C -4.3235 0.7352 0.6676 0
M  V30 21 C -3.5399 2.393 -0.9059 0
M  V30 22 C -4.5778 1.6323 -0.3696 0
M  V30 23 H -0.0753 -1.8144 2.5939 0
M  V30 24 H 0.1105 -0.2996 -1.7221 0
M  V30 25 H 2.2277 -3.1505 0.7415 0
M  V30 26 H 1.9155 0.0114 2.7428 0
M  V30 27 H 2.2271 0.3134 -2.8162 0
M  V30 28 H 4.3372 -2.5287 -0.3679 0
M  V30 29 H 2.0571 2.6169 1.9314 0
M  V30 30 H -2.8644 -0.1076 1.9865 0
M  V30 31 H -1.4445 2.8575 -0.8354 0
M  V30 32 H 5.4722 -1.2179 -2.0869 0
M  V30 33 H 4.6217 -0.0657 -3.061 0
M  V30 34 H -5.1349 0.1435 1.0835 0
M  V30 35 H -3.7401 3.0954 -1.7107 0
M  V30 36 H -5.5867 1.7384 -0.7597 0
M  V30 END ATOM
M  V30 BEGIN BOND
M  V30 1 2 1 2
M  V30 2 2 1 3
M  V30 3 1 1 4
M  V30 4 1 1 5
M  V30 5 1 4 6
M  V30 6 2 5 7
M  V30 7 1 5 8
M  V30 8 1 6 9
M  V30 9 2 6 10
M  V30 10 1 7 11
M  V30 11 2 8 12
M  V30 12 1 9 13
M  V30 13 1 9 14
M  V30 14 1 10 15
M  V30 15 2 11 16
M  V30 16 2 14 17
M  V30 17 1 14 18
M  V30 18 1 16 19
M  V30 19 1 17 20
M  V30 20 2 18 21
M  V30 21 2 20 22
M  V30 22 1 12 16
M  V30 23 2 13 15
M  V30 24 1 21 22
M  V30 25 1 4 23
M  V30 26 1 7 24
M  V30 27 1 8 25
M  V30 28 1 10 26
M  V30 29 1 11 27
M  V30 30 1 12 28
M  V30 31 1 15 29
M  V30 32 1 17 30
M  V30 33 1 18 31
M  V30 34 1 19 32
M  V30 35 1 19 33
M  V30 36 1 20 34
M  V30 37 1 21 35
M  V30 38 1 22 36
M  V30 END BOND
M  V30 END CTAB
M  END
>  <NO.>
5380

>  <Name>
sulfaphenazole

>  <SMILES>
Nc1ccc(S(=O)(=O)Nc2ccnn2-c2ccccc2)cc1

>  <logBB>


>  <Class>
-1

>  <MW>
314.08

>  <nHBAcc>
4

>  <nHBDon>
2

>  <SLogP>
2.26

>  <TopoPSA>
90.01

>  <MMFF94 Energy>
49.861

$$$$
O=C(CCBr)N1CCN(C(=O)CCBr)CC1
Actelion Java MolfileCreator 2.0

  0  0  0  0  0  0              0 V3000
M  V30 BEGIN CTAB
M  V30 COUNTS 32 32 0 0 0
M  V30 BEGIN ATOM
M  V30 1 Br -4.8107 4.239 0.407 0
M  V30 2 C -3.1458 3.7397 1.2889 0
M  V30 3 C -2.6938 2.3826 0.7866 0
M  V30 4 C -1.3902 1.9669 1.4423 0
M  V30 5 O -0.8692 2.6534 2.3208 0
M  V30 6 N -0.8236 0.78 1.0013 0
M  V30 7 C 0.4469 0.3338 1.5798 0
M  V30 8 C -1.4169 -0.0876 -0.0266 0
M  V30 9 C 1.3859 -0.2634 0.5222 0
M  V30 10 C -0.7044 -1.4399 -0.1638 0
M  V30 11 N 0.7431 -1.2752 -0.3279 0
M  V30 12 C 1.4098 -2.0444 -1.2726 0
M  V30 13 O 0.8186 -2.8618 -1.9767 0
M  V30 14 C 2.9013 -1.7891 -1.4307 0
M  V30 15 C 3.5692 -2.7678 -2.3789 0
M  V30 16 Br 3.9469 -4.4525 -1.4672 0
M  V30 17 H -3.3499 3.7375 2.3635 0
M  V30 18 H -2.4223 4.5278 1.061 0
M  V30 19 H -2.5514 2.4125 -0.2994 0
M  V30 20 H -3.4553 1.6281 1.0136 0
M  V30 21 H 0.1981 -0.425 2.3316 0
M  V30 22 H 0.9526 1.1529 2.101 0
M  V30 23 H -2.4752 -0.2455 0.2027 0
M  V30 24 H -1.3564 0.4594 -0.9747 0
M  V30 25 H 1.746 0.5285 -0.1446 0
M  V30 26 H 2.2553 -0.7086 1.0153 0
M  V30 27 H -0.8521 -2.038 0.7434 0
M  V30 28 H -1.138 -2.0007 -0.9975 0
M  V30 29 H 3.006 -0.7779 -1.8417 0
M  V30 30 H 3.3922 -1.8116 -0.4533 0
M  V30 31 H 2.9723 -3.0061 -3.2628 0
M  V30 32 H 4.5457 -2.3918 -2.6973 0
M  V30 END ATOM
M  V30 BEGIN BOND
M  V30 1 1 1 2
M  V30 2 1 2 3
M  V30 3 1 3 4
M  V30 4 2 4 5
M  V30 5 1 4 6
M  V30 6 1 6 7
M  V30 7 1 6 8
M  V30 8 1 7 9
M  V30 9 1 8 10
M  V30 10 1 9 11
M  V30 11 1 11 12
M  V30 12 2 12 13
M  V30 13 1 12 14
M  V30 14 1 14 15
M  V30 15 1 15 16
M  V30 16 1 10 11
M  V30 17 1 2 17
M  V30 18 1 2 18
M  V30 19 1 3 19
M  V30 20 1 3 20
M  V30 21 1 7 21
M  V30 22 1 7 22
M  V30 23 1 8 23
M  V30 24 1 8 24
M  V30 25 1 9 25
M  V30 26 1 9 26
M  V30 27 1 10 27
M  V30 28 1 10 28
M  V30 29 1 14 29
M  V30 30 1 14 30
M  V30 31 1 15 31
M  V30 32 1 15 32
M  V30 END BOND
M  V30 END CTAB
M  END
>  <NO.>
5386

>  <Name>
pipobroman

>  <SMILES>
O=C(CCBr)N1CCN(C(=O)CCBr)CC1

>  <logBB>


>  <Class>
-1

>  <MW>
353.96

>  <nHBAcc>
2

>  <nHBDon>
0

>  <SLogP>
1.23

>  <TopoPSA>
40.62

>  <MMFF94 Energy>
4.8443

$$$$
O=C(Cn1ccnc1[N+](=O)[O-])NCc1ccccc1
Actelion Java MolfileCreator 2.0

  0  0  0  0  0  0              0 V3000
M  V30 BEGIN CTAB
M  V30 COUNTS 31 32 0 0 0
M  V30 BEGIN ATOM
M  V30 1 O -1.9064 -2.5425 0.0793 0
M  V30 2 N -0.7757 -2.3779 -0.3949 0 CHG=1
M  V30 3 O -0.5131 -2.2833 -1.6005 0 CHG=-1
M  V30 4 C 0.3299 -2.311 0.5271 0
M  V30 5 N 0.2163 -2.6252 1.8052 0
M  V30 6 N 1.6116 -1.9339 0.21 0
M  V30 7 C 1.4701 -2.4723 2.3309 0
M  V30 8 C 2.3534 -2.0489 1.3661 0
M  V30 9 C 2.1597 -1.4623 -1.0528 0
M  V30 10 C 1.6325 -0.1102 -1.4942 0
M  V30 11 O 1.4939 0.1586 -2.6853 0
M  V30 12 N 1.3915 0.8045 -0.4935 0
M  V30 13 C 0.733 2.0667 -0.7559 0
M  V30 14 C -0.6965 1.9894 -0.2878 0
M  V30 15 C -1.6539 1.3169 -1.0622 0
M  V30 16 C -1.0789 2.5287 0.9481 0
M  V30 17 C -2.9671 1.1889 -0.6099 0
M  V30 18 C -2.3951 2.4034 1.396 0
M  V30 19 C -3.3373 1.7326 0.6182 0
M  V30 20 H 1.6715 -2.6765 3.3757 0
M  V30 21 H 3.4119 -1.8269 1.4068 0
M  V30 22 H 3.2468 -1.3796 -0.9429 0
M  V30 23 H 1.9575 -2.2232 -1.8119 0
M  V30 24 H 1.5568 0.5766 0.4779 0
M  V30 25 H 1.2802 2.8419 -0.2087 0
M  V30 26 H 0.771 2.3244 -1.8197 0
M  V30 27 H -1.3759 0.8782 -2.0198 0
M  V30 28 H -0.3557 3.0463 1.5739 0
M  V30 29 H -3.6987 0.6561 -1.2123 0
M  V30 30 H -2.6862 2.8224 2.3558 0
M  V30 31 H -4.3599 1.6269 0.9713 0
M  V30 END ATOM
M  V30 BEGIN BOND
M  V30 1 2 1 2
M  V30 2 1 2 3
M  V30 3 1 2 4
M  V30 4 2 4 5
M  V30 5 1 4 6
M  V30 6 1 5 7
M  V30 7 1 6 8
M  V30 8 1 6 9
M  V30 9 1 9 10
M  V30 10 2 10 11
M  V30 11 1 10 12
M  V30 12 1 12 13
M  V30 13 1 13 14
M  V30 14 2 14 15
M  V30 15 1 14 16
M  V30 16 1 15 17
M  V30 17 2 16 18
M  V30 18 2 17 19
M  V30 19 2 7 8
M  V30 20 1 18 19
M  V30 21 1 7 20
M  V30 22 1 8 21
M  V30 23 1 9 22
M  V30 24 1 9 23
M  V30 25 1 12 24
M  V30 26 1 13 25
M  V30 27 1 13 26
M  V30 28 1 15 27
M  V30 29 1 16 28
M  V30 30 1 17 29
M  V30 31 1 18 30
M  V30 32 1 19 31
M  V30 END BOND
M  V30 END CTAB
M  END
>  <NO.>
5388

>  <Name>
benznidazole

>  <SMILES>
O=C(Cn1ccnc1[N+](=O)[O-])NCc1ccccc1

>  <logBB>


>  <Class>
-1

>  <MW>
260.09

>  <nHBAcc>
4

>  <nHBDon>
1

>  <SLogP>
1.11

>  <TopoPSA>
90.06

>  <MMFF94 Energy>
56.108

$$$$
O=C(NC(Cc1cc(=O)[nH]c2ccccc12)C(=O)O)c1ccc(Cl)cc1
Actelion Java MolfileCreator 2.0

  0  0  0  0  0  0              0 V3000
M  V30 BEGIN CTAB
M  V30 COUNTS 41 43 0 0 0
M  V30 BEGIN ATOM
M  V30 1 Cl -5.5063 1.2935 -4.7762 0
M  V30 2 C -4.6149 0.5905 -3.4839 0
M  V30 3 C -3.3596 1.1001 -3.1517 0
M  V30 4 C -5.1482 -0.4883 -2.7809 0
M  V30 5 C -2.6317 0.5324 -2.1011 0
M  V30 6 C -4.4226 -1.0587 -1.7318 0
M  V30 7 C -3.1683 -0.5425 -1.3791 0
M  V30 8 C -2.4293 -1.1845 -0.2585 0
M  V30 9 O -2.6204 -2.3624 0.0175 0
M  V30 10 N -1.5666 -0.3785 0.4496 0
M  V30 11 C -0.829 -0.8931 1.6066 0 CFG=2
M  V30 12 C -1.6946 -0.682 2.8475 0
M  V30 13 C 0.506 -0.157 1.8164 0
M  V30 14 O -2.4448 0.2606 3.0562 0
M  V30 15 O -1.5102 -1.6285 3.7899 0
M  V30 16 C 1.5834 -0.2949 0.7515 0
M  V30 17 C 2.8278 0.5111 0.8973 0
M  V30 18 C 1.4819 -1.1071 -0.3179 0
M  V30 19 C 3.8265 0.4116 -0.0882 0
M  V30 20 C 3.0644 1.3717 1.9805 0
M  V30 21 C 2.5328 -1.2097 -1.3569 0
M  V30 22 N 3.6433 -0.4406 -1.181 0
M  V30 23 C 5.0124 1.1465 -0.0033 0
M  V30 24 C 4.2508 2.1088 2.0691 0
M  V30 25 O 2.3918 -1.9476 -2.3253 0
M  V30 26 C 5.2224 1.9974 1.0785 0
M  V30 27 H -2.9388 1.9306 -3.7132 0
M  V30 28 H -6.1221 -0.8928 -3.0447 0
M  V30 29 H -1.6406 0.9196 -1.8816 0
M  V30 30 H -4.8373 -1.906 -1.1882 0
M  V30 31 H -1.6122 0.6251 0.3279 0
M  V30 32 H -0.6731 -1.971 1.481 0
M  V30 33 H 0.933 -0.4927 2.7717 0
M  V30 34 H 0.2755 0.9116 1.9325 0
M  V30 35 H -2.1446 -1.393 4.4995 0
M  V30 36 H 0.6257 -1.7441 -0.507 0
M  V30 37 H 2.3401 1.4891 2.7816 0
M  V30 38 H 4.3533 -0.5218 -1.8954 0
M  V30 39 H 5.7771 1.062 -0.7703 0
M  V30 40 H 4.415 2.7702 2.9171 0
M  V30 41 H 6.1433 2.5706 1.1511 0
M  V30 END ATOM
M  V30 BEGIN BOND
M  V30 1 1 1 2
M  V30 2 2 2 3
M  V30 3 1 2 4
M  V30 4 1 3 5
M  V30 5 2 4 6
M  V30 6 2 5 7
M  V30 7 1 7 8
M  V30 8 2 8 9
M  V30 9 1 8 10
M  V30 10 1 10 11
M  V30 11 1 11 12
M  V30 12 1 11 13
M  V30 13 2 12 14
M  V30 14 1 12 15
M  V30 15 1 13 16
M  V30 16 1 16 17
M  V30 17 2 16 18
M  V30 18 2 17 19
M  V30 19 1 17 20
M  V30 20 1 18 21
M  V30 21 1 19 22
M  V30 22 1 19 23
M  V30 23 2 20 24
M  V30 24 2 21 25
M  V30 25 2 23 26
M  V30 26 1 6 7
M  V30 27 1 21 22
M  V30 28 1 24 26
M  V30 29 1 3 27
M  V30 30 1 4 28
M  V30 31 1 5 29
M  V30 32 1 6 30
M  V30 33 1 10 31
M  V30 34 1 11 32
M  V30 35 1 13 33
M  V30 36 1 13 34
M  V30 37 1 15 35
M  V30 38 1 18 36
M  V30 39 1 20 37
M  V30 40 1 22 38
M  V30 41 1 23 39
M  V30 42 1 24 40
M  V30 43 1 26 41
M  V30 END BOND
M  V30 BEGIN COLLECTION
M  V30 MDLV30/STERAC1 ATOMS=(1 11)
M  V30 END COLLECTION
M  V30 END CTAB
M  END
>  <NO.>
5389

>  <Name>
rebamipide

>  <SMILES>
O=C(NC(Cc1cc(=O)[nH]c2ccccc12)C(=O)O)c1ccc(Cl)cc1

>  <logBB>


>  <Class>
-1

>  <MW>
370.07

>  <nHBAcc>
3

>  <nHBDon>
3

>  <SLogP>
2.61

>  <TopoPSA>
99.26

>  <MMFF94 Energy>
28.11

$$$$
O=C(NCC1CCCCN1)c1cc(OCC(F)(F)F)ccc1OCC(F)(F)F
Actelion Java MolfileCreator 2.0

  0  0  0  0  0  0              0 V3000
M  V30 BEGIN CTAB
M  V30 COUNTS 48 49 0 0 0
M  V30 BEGIN ATOM
M  V30 1 F 1.7705 -2.0927 -2.8178 0
M  V30 2 C 1.3501 -3.3084 -2.402 0
M  V30 3 F 2.4251 -3.9847 -1.9413 0
M  V30 4 F 0.8851 -3.972 -3.4849 0
M  V30 5 C 0.2681 -3.1905 -1.3399 0
M  V30 6 O 0.7555 -2.4329 -0.2114 0
M  V30 7 C -0.2531 -2.2325 0.6957 0
M  V30 8 C -1.0235 -1.0609 0.7049 0
M  V30 9 C -0.4637 -3.2211 1.658 0
M  V30 10 C -0.8367 0.0643 -0.2566 0
M  V30 11 C -2.0514 -0.9233 1.656 0
M  V30 12 C -1.479 -3.0648 2.6018 0
M  V30 13 O -1.7569 0.8473 -0.4668 0
M  V30 14 N 0.3961 0.1772 -0.854 0
M  V30 15 C -2.2827 -1.9224 2.6021 0
M  V30 16 C 0.7074 1.2329 -1.7994 0
M  V30 17 O -3.2429 -1.9039 3.5741 0
M  V30 18 C 1.0982 2.5682 -1.1131 0 CFG=2
M  V30 19 C -4.1156 -0.767 3.616 0
M  V30 20 N 1.23 3.6867 -2.0665 0
M  V30 21 C 2.3762 2.4514 -0.2621 0
M  V30 22 C -5.1332 -0.9194 4.7364 0
M  V30 23 C 2.3995 3.5751 -2.9354 0
M  V30 24 C 3.6382 2.3446 -1.1139 0
M  V30 25 F -5.9082 -2.013 4.5651 0
M  V30 26 F -4.5382 -1.0126 5.946 0
M  V30 27 F -5.9564 0.1556 4.7742 0
M  V30 28 C 3.6924 3.4801 -2.1297 0
M  V30 29 H -0.6052 -2.6918 -1.778 0
M  V30 30 H -0.0227 -4.1959 -1.0133 0
M  V30 31 H 0.1572 -4.1128 1.6788 0
M  V30 32 H -2.6482 -0.0155 1.6361 0
M  V30 33 H -1.6453 -3.8409 3.3464 0
M  V30 34 H 1.1279 -0.4805 -0.607 0
M  V30 35 H -0.1729 1.3886 -2.4347 0
M  V30 36 H 1.5107 0.8542 -2.4386 0
M  V30 37 H 0.2834 2.8364 -0.4285 0
M  V30 38 H -4.6549 -0.6776 2.6659 0
M  V30 39 H -3.5307 0.1419 3.7976 0
M  V30 40 H 0.3829 3.7519 -2.6315 0
M  V30 41 H 2.3163 1.5941 0.4176 0
M  V30 42 H 2.459 3.3422 0.3753 0
M  V30 43 H 2.4458 4.463 -3.5757 0
M  V30 44 H 2.3033 2.7128 -3.6048 0
M  V30 45 H 3.6602 1.3802 -1.6342 0
M  V30 46 H 4.525 2.3782 -0.4712 0
M  V30 47 H 3.866 4.4281 -1.6044 0
M  V30 48 H 4.5415 3.3317 -2.8062 0
M  V30 END ATOM
M  V30 BEGIN BOND
M  V30 1 1 1 2
M  V30 2 1 2 3
M  V30 3 1 2 4
M  V30 4 1 2 5
M  V30 5 1 5 6
M  V30 6 1 6 7
M  V30 7 2 7 8
M  V30 8 1 7 9
M  V30 9 1 8 10
M  V30 10 1 8 11
M  V30 11 2 9 12
M  V30 12 2 10 13
M  V30 13 1 10 14
M  V30 14 2 11 15
M  V30 15 1 14 16
M  V30 16 1 15 17
M  V30 17 1 16 18
M  V30 18 1 17 19
M  V30 19 1 18 20
M  V30 20 1 18 21
M  V30 21 1 19 22
M  V30 22 1 20 23
M  V30 23 1 21 24
M  V30 24 1 22 25
M  V30 25 1 22 26
M  V30 26 1 22 27
M  V30 27 1 23 28
M  V30 28 1 12 15
M  V30 29 1 24 28
M  V30 30 1 5 29
M  V30 31 1 5 30
M  V30 32 1 9 31
M  V30 33 1 11 32
M  V30 34 1 12 33
M  V30 35 1 14 34
M  V30 36 1 16 35
M  V30 37 1 16 36
M  V30 38 1 18 37
M  V30 39 1 19 38
M  V30 40 1 19 39
M  V30 41 1 20 40
M  V30 42 1 21 41
M  V30 43 1 21 42
M  V30 44 1 23 43
M  V30 45 1 23 44
M  V30 46 1 24 45
M  V30 47 1 24 46
M  V30 48 1 28 47
M  V30 49 1 28 48
M  V30 END BOND
M  V30 BEGIN COLLECTION
M  V30 MDLV30/STERAC1 ATOMS=(1 18)
M  V30 END COLLECTION
M  V30 END CTAB
M  END
>  <NO.>
5390

>  <Name>
flecainide acetate

>  <SMILES>
O=C(NCC1CCCCN1)c1cc(OCC(F)(F)F)ccc1OCC(F)(F)F

>  <logBB>


>  <Class>
-1

>  <MW>
414.14

>  <nHBAcc>
4

>  <nHBDon>
2

>  <SLogP>
3.44

>  <TopoPSA>
59.59

>  <MMFF94 Energy>
96.951

$$$$
O=C(Nc1ccc([N+](=O)[O-])cc1Cl)c1cc(Cl)ccc1O
Actelion Java MolfileCreator 2.0

  0  0  0  0  0  0              0 V3000
M  V30 BEGIN CTAB
M  V30 COUNTS 29 30 0 0 0
M  V30 BEGIN ATOM
M  V30 1 Cl -0.6603 -1.321 -2.8086 0
M  V30 2 C -0.4504 -2.1627 -1.3088 0
M  V30 3 C -0.1535 -1.4676 -0.118 0
M  V30 4 C -0.5869 -3.5537 -1.3244 0
M  V30 5 N -0.0268 -0.0599 -0.1699 0
M  V30 6 C 0.0073 -2.2057 1.0601 0
M  V30 7 C -0.4237 -4.2676 -0.134 0
M  V30 8 C 0.2086 0.8224 0.8641 0
M  V30 9 C -0.1266 -3.5998 1.0584 0
M  V30 10 N -0.5642 -5.7286 -0.1369 0 CHG=1
M  V30 11 O 0.3486 0.5096 2.0425 0
M  V30 12 C 0.294 2.2781 0.498 0
M  V30 13 O -0.4094 -6.3254 0.9372 0
M  V30 14 O -0.8294 -6.2775 -1.2156 0 CHG=-1
M  V30 15 C 0.1494 2.7844 -0.8053 0
M  V30 16 C 0.5361 3.1847 1.5454 0
M  V30 17 O -0.0879 1.9436 -1.8603 0
M  V30 18 C 0.244 4.1574 -1.0559 0
M  V30 19 C 0.6296 4.5518 1.2911 0
M  V30 20 C 0.4847 5.0413 -0.004 0
M  V30 21 Cl 0.9264 5.646 2.5851 0
M  V30 22 H -0.8173 -4.0629 -2.2575 0
M  V30 23 H -0.1341 0.3562 -1.0957 0
M  V30 24 H 0.2417 -1.7256 2.0062 0
M  V30 25 H 0.0049 -4.1402 1.9947 0
M  V30 26 H 0.6523 2.8223 2.5655 0
M  V30 27 H -0.1622 2.4654 -2.6803 0
M  V30 28 H 0.1337 4.558 -2.06 0
M  V30 29 H 0.5581 6.1085 -0.1992 0
M  V30 END ATOM
M  V30 BEGIN BOND
M  V30 1 1 1 2
M  V30 2 2 2 3
M  V30 3 1 2 4
M  V30 4 1 3 5
M  V30 5 1 3 6
M  V30 6 2 4 7
M  V30 7 1 5 8
M  V30 8 2 6 9
M  V30 9 1 7 10
M  V30 10 2 8 11
M  V30 11 1 8 12
M  V30 12 2 10 13
M  V30 13 1 10 14
M  V30 14 2 12 15
M  V30 15 1 12 16
M  V30 16 1 15 17
M  V30 17 1 15 18
M  V30 18 2 16 19
M  V30 19 2 18 20
M  V30 20 1 19 21
M  V30 21 1 7 9
M  V30 22 1 19 20
M  V30 23 1 4 22
M  V30 24 1 5 23
M  V30 25 1 6 24
M  V30 26 1 9 25
M  V30 27 1 16 26
M  V30 28 1 17 27
M  V30 29 1 18 28
M  V30 30 1 20 29
M  V30 END BOND
M  V30 END CTAB
M  END
>  <NO.>
5391

>  <Name>
niclosamide

>  <SMILES>
O=C(Nc1ccc([N+](=O)[O-])cc1Cl)c1cc(Cl)ccc1O

>  <logBB>


>  <Class>
-1

>  <MW>
325.99

>  <nHBAcc>
4

>  <nHBDon>
2

>  <SLogP>
3.86

>  <TopoPSA>
92.47

>  <MMFF94 Energy>
52.83

$$$$
O=C(O)C1N=C(c2ccccc2)c2cc(Cl)ccc2NC1=O
Actelion Java MolfileCreator 2.0

  0  0  0  0  0  0              0 V3000
M  V30 BEGIN CTAB
M  V30 COUNTS 33 35 0 0 0
M  V30 BEGIN ATOM
M  V30 1 Cl -2.0405 -2.6125 3.5935 0
M  V30 2 C -2.0476 -1.4546 2.3223 0
M  V30 3 C -0.8575 -1.1314 1.6745 0
M  V30 4 C -3.2442 -0.8538 1.9418 0
M  V30 5 C -0.8603 -0.1956 0.6276 0
M  V30 6 C -3.249 0.0956 0.9179 0
M  V30 7 C 0.4192 0.0639 -0.0984 0
M  V30 8 C -2.057 0.4491 0.2735 0
M  V30 9 N 0.849 1.2369 -0.4226 0
M  V30 10 C 1.2756 -1.1035 -0.4864 0
M  V30 11 N -2.1434 1.4398 -0.7129 0
M  V30 12 C 0.0403 2.4297 -0.1016 0 CFG=2
M  V30 13 C 0.711 -2.3195 -0.8929 0
M  V30 14 C 2.6681 -0.9564 -0.4733 0
M  V30 15 C -1.2093 2.4172 -0.9725 0
M  V30 16 C 0.8754 3.679 -0.3333 0
M  V30 17 C 1.5371 -3.3876 -1.25 0
M  V30 18 C 3.4894 -2.0264 -0.8317 0
M  V30 19 O -1.4518 3.2409 -1.8549 0
M  V30 20 O 1.9417 3.7869 -0.9195 0
M  V30 21 O 0.3288 4.7773 0.2436 0
M  V30 22 C 2.9237 -3.242 -1.2146 0
M  V30 23 H 0.0674 -1.6126 1.985 0
M  V30 24 H -4.174 -1.1103 2.4445 0
M  V30 25 H -4.189 0.5731 0.6482 0
M  V30 26 H -2.994 1.5322 -1.2556 0
M  V30 27 H -0.2271 2.4301 0.9627 0
M  V30 28 H -0.3658 -2.4472 -0.9566 0
M  V30 29 H 3.1177 -0.007 -0.1889 0
M  V30 30 H 1.0998 -4.3314 -1.5668 0
M  V30 31 H 4.57 -1.9068 -0.8199 0
M  V30 32 H 0.9441 5.4922 -0.0252 0
M  V30 33 H 3.5653 -4.0726 -1.4988 0
M  V30 END ATOM
M  V30 BEGIN BOND
M  V30 1 1 1 2
M  V30 2 2 2 3
M  V30 3 1 2 4
M  V30 4 1 3 5
M  V30 5 2 4 6
M  V30 6 1 5 7
M  V30 7 2 5 8
M  V30 8 2 7 9
M  V30 9 1 7 10
M  V30 10 1 8 11
M  V30 11 1 9 12
M  V30 12 2 10 13
M  V30 13 1 10 14
M  V30 14 1 11 15
M  V30 15 1 12 16
M  V30 16 1 13 17
M  V30 17 2 14 18
M  V30 18 2 15 19
M  V30 19 2 16 20
M  V30 20 1 16 21
M  V30 21 2 17 22
M  V30 22 1 6 8
M  V30 23 1 12 15
M  V30 24 1 18 22
M  V30 25 1 3 23
M  V30 26 1 4 24
M  V30 27 1 6 25
M  V30 28 1 11 26
M  V30 29 1 12 27
M  V30 30 1 13 28
M  V30 31 1 14 29
M  V30 32 1 17 30
M  V30 33 1 18 31
M  V30 34 1 21 32
M  V30 35 1 22 33
M  V30 END BOND
M  V30 BEGIN COLLECTION
M  V30 MDLV30/STERAC1 ATOMS=(1 12)
M  V30 END COLLECTION
M  V30 END CTAB
M  END
>  <NO.>
5393

>  <Name>
chlorazepate

>  <SMILES>
O=C(O)C1N=C(c2ccccc2)c2cc(Cl)ccc2NC1=O

>  <logBB>


>  <Class>
1

>  <MW>
314.05

>  <nHBAcc>
3

>  <nHBDon>
2

>  <SLogP>
2.58

>  <TopoPSA>
78.76

>  <MMFF94 Energy>
110.32

$$$$
O=C(O)CCC(=O)c1ccc(-c2ccccc2)cc1
Actelion Java MolfileCreator 2.0

  0  0  0  0  0  0              0 V3000
M  V30 BEGIN CTAB
M  V30 COUNTS 33 34 0 0 0
M  V30 BEGIN ATOM
M  V30 1 O -2.7063 1.8301 -4.9393 0
M  V30 2 C -3.0574 2.7665 -4.2413 0
M  V30 3 O -3.8285 3.7486 -4.7451 0
M  V30 4 C -2.7251 2.9926 -2.7953 0
M  V30 5 C -1.8547 1.8607 -2.2568 0
M  V30 6 C -1.5033 2.069 -0.7969 0
M  V30 7 O -1.9017 3.0451 -0.1642 0
M  V30 8 C -0.6462 1.052 -0.1133 0
M  V30 9 C -0.3164 1.2527 1.2322 0
M  V30 10 C -0.1659 -0.0864 -0.7676 0
M  V30 11 C 0.482 0.3276 1.9138 0
M  V30 12 C 0.634 -1.0086 -0.0803 0
M  V30 13 C 0.9713 -0.8189 1.2697 0
M  V30 14 C 1.8107 -1.7929 1.9867 0
M  V30 15 C 3.0626 -2.1814 1.4808 0
M  V30 16 C 1.3843 -2.3628 3.1982 0
M  V30 17 C 3.8598 -3.1061 2.1612 0
M  V30 18 C 2.1798 -3.2885 3.8791 0
M  V30 19 C 3.4174 -3.6594 3.36 0
M  V30 20 H -3.9744 3.4912 -5.6793 0
M  V30 21 H -3.6616 3.0505 -2.229 0
M  V30 22 H -2.1982 3.9493 -2.7059 0
M  V30 23 H -0.9263 1.8085 -2.8374 0
M  V30 24 H -2.3916 0.9102 -2.3566 0
M  V30 25 H -0.6765 2.1334 1.7618 0
M  V30 26 H -0.3968 -0.2889 -1.8094 0
M  V30 27 H 0.7303 0.5178 2.9567 0
M  V30 28 H 0.986 -1.8937 -0.6083 0
M  V30 29 H 3.434 -1.7528 0.5521 0
M  V30 30 H 0.416 -2.0956 3.6173 0
M  V30 31 H 4.827 -3.3905 1.7551 0
M  V30 32 H 1.8302 -3.72 4.8136 0
M  V30 33 H 4.0368 -4.3785 3.8896 0
M  V30 END ATOM
M  V30 BEGIN BOND
M  V30 1 2 1 2
M  V30 2 1 2 3
M  V30 3 1 2 4
M  V30 4 1 4 5
M  V30 5 1 5 6
M  V30 6 2 6 7
M  V30 7 1 6 8
M  V30 8 2 8 9
M  V30 9 1 8 10
M  V30 10 1 9 11
M  V30 11 2 10 12
M  V30 12 2 11 13
M  V30 13 1 13 14
M  V30 14 2 14 15
M  V30 15 1 14 16
M  V30 16 1 15 17
M  V30 17 2 16 18
M  V30 18 2 17 19
M  V30 19 1 12 13
M  V30 20 1 18 19
M  V30 21 1 3 20
M  V30 22 1 4 21
M  V30 23 1 4 22
M  V30 24 1 5 23
M  V30 25 1 5 24
M  V30 26 1 9 25
M  V30 27 1 10 26
M  V30 28 1 11 27
M  V30 29 1 12 28
M  V30 30 1 15 29
M  V30 31 1 16 30
M  V30 32 1 17 31
M  V30 33 1 18 32
M  V30 34 1 19 33
M  V30 END BOND
M  V30 END CTAB
M  END
>  <NO.>
5394

>  <Name>
fenbufen

>  <SMILES>
O=C(O)CCC(=O)c1ccc(-c2ccccc2)cc1

>  <logBB>


>  <Class>
-1

>  <MW>
254.09

>  <nHBAcc>
2

>  <nHBDon>
1

>  <SLogP>
3.4

>  <TopoPSA>
54.37

>  <MMFF94 Energy>
21.034

$$$$
O=C(O)CCCN1CCC(OC(c2ccc(Cl)cc2)c2ccccn2)CC1
Actelion Java MolfileCreator 2.0

  0  0  0  0  0  0              0 V3000
M  V30 BEGIN CTAB
M  V30 COUNTS 52 54 0 0 0
M  V30 BEGIN ATOM
M  V30 1 Cl 4.3314 -0.4004 7.1465 0
M  V30 2 C 3.228 -0.3263 5.8285 0
M  V30 3 C 3.4583 0.5632 4.7822 0
M  V30 4 C 2.1089 -1.1543 5.8153 0
M  V30 5 C 2.5623 0.6248 3.7115 0
M  V30 6 C 1.2138 -1.0933 4.7446 0
M  V30 7 C 1.4293 -0.2052 3.6749 0
M  V30 8 C 0.4238 -0.1592 2.5255 0 CFG=2
M  V30 9 O 0.9958 0.5339 1.4013 0
M  V30 10 C -0.8885 0.5006 2.937 0
M  V30 11 C 0.8698 -0.1568 0.1547 0
M  V30 12 N -1.9499 -0.3193 3.1753 0
M  V30 13 C -0.9786 1.8873 3.0675 0
M  V30 14 C -0.5643 -0.1413 -0.3693 0
M  V30 15 C 1.7823 0.5464 -0.8461 0
M  V30 16 C -3.1128 0.2617 3.5439 0
M  V30 17 C -2.1912 2.4534 3.449 0
M  V30 18 C -0.6459 -0.7158 -1.783 0
M  V30 19 C 1.6424 -0.0596 -2.2379 0
M  V30 20 C -3.2809 1.6276 3.6926 0
M  V30 21 N 0.2491 -0.0074 -2.7105 0
M  V30 22 C 0.1656 -0.5366 -4.0831 0
M  V30 23 C -1.1847 -0.2621 -4.7556 0
M  V30 24 C -1.153 -0.6692 -6.2282 0
M  V30 25 C -2.4768 -0.4284 -6.8999 0
M  V30 26 O -3.5212 -0.0721 -6.3837 0
M  V30 27 O -2.4166 -0.6729 -8.2241 0
M  V30 28 H 4.3297 1.2121 4.7922 0
M  V30 29 H 1.9238 -1.8449 6.6334 0
M  V30 30 H 2.7554 1.3281 2.9036 0
M  V30 31 H 0.3354 -1.7379 4.7498 0
M  V30 32 H 0.2207 -1.2019 2.2448 0
M  V30 33 H 1.2207 -1.19 0.2773 0
M  V30 34 H -0.1163 2.5164 2.8682 0
M  V30 35 H -1.2185 -0.7221 0.2901 0
M  V30 36 H -0.9557 0.8844 -0.3537 0
M  V30 37 H 2.8238 0.4773 -0.5087 0
M  V30 38 H 1.5507 1.6197 -0.8746 0
M  V30 39 H -3.9361 -0.4236 3.7233 0
M  V30 40 H -2.2828 3.5307 3.5532 0
M  V30 41 H -0.4079 -1.7872 -1.7581 0
M  V30 42 H -1.6875 -0.6214 -2.1069 0
M  V30 43 H 2.2868 0.5102 -2.9183 0
M  V30 44 H 2.0116 -1.0937 -2.2301 0
M  V30 45 H -4.2388 2.0385 3.9904 0
M  V30 46 H 0.3793 -1.6133 -4.0976 0
M  V30 47 H 0.9386 -0.0517 -4.6937 0
M  V30 48 H -1.4331 0.8038 -4.6758 0
M  V30 49 H -1.986 -0.8151 -4.2524 0
M  V30 50 H -0.3899 -0.0862 -6.7558 0
M  V30 51 H -0.9143 -1.7345 -6.3178 0
M  V30 52 H -3.3256 -0.4855 -8.5399 0
M  V30 END ATOM
M  V30 BEGIN BOND
M  V30 1 1 1 2
M  V30 2 2 2 3
M  V30 3 1 2 4
M  V30 4 1 3 5
M  V30 5 2 4 6
M  V30 6 2 5 7
M  V30 7 1 7 8
M  V30 8 1 8 9
M  V30 9 1 8 10
M  V30 10 1 9 11
M  V30 11 2 10 12
M  V30 12 1 10 13
M  V30 13 1 11 14
M  V30 14 1 11 15
M  V30 15 1 12 16
M  V30 16 2 13 17
M  V30 17 1 14 18
M  V30 18 1 15 19
M  V30 19 2 16 20
M  V30 20 1 18 21
M  V30 21 1 21 22
M  V30 22 1 22 23
M  V30 23 1 23 24
M  V30 24 1 24 25
M  V30 25 2 25 26
M  V30 26 1 25 27
M  V30 27 1 6 7
M  V30 28 1 17 20
M  V30 29 1 19 21
M  V30 30 1 3 28
M  V30 31 1 4 29
M  V30 32 1 5 30
M  V30 33 1 6 31
M  V30 34 1 8 32
M  V30 35 1 11 33
M  V30 36 1 13 34
M  V30 37 1 14 35
M  V30 38 1 14 36
M  V30 39 1 15 37
M  V30 40 1 15 38
M  V30 41 1 16 39
M  V30 42 1 17 40
M  V30 43 1 18 41
M  V30 44 1 18 42
M  V30 45 1 19 43
M  V30 46 1 19 44
M  V30 47 1 20 45
M  V30 48 1 22 46
M  V30 49 1 22 47
M  V30 50 1 23 48
M  V30 51 1 23 49
M  V30 52 1 24 50
M  V30 53 1 24 51
M  V30 54 1 27 52
M  V30 END BOND
M  V30 BEGIN COLLECTION
M  V30 MDLV30/STERAC1 ATOMS=(1 8)
M  V30 END COLLECTION
M  V30 END CTAB
M  END
>  <NO.>
5395

>  <Name>
4-(4-((4-chlorophenyl)(pyridin-2-yl)methoxy)piperidin-1-yl)butanoic acid

>  <SMILES>
O=C(O)CCCN1CCC(OC(c2ccc(Cl)cc2)c2ccccn2)CC1

>  <logBB>


>  <Class>
-1

>  <MW>
388.16

>  <nHBAcc>
4

>  <nHBDon>
1

>  <SLogP>
4.17

>  <TopoPSA>
62.66

>  <MMFF94 Energy>
44.92

$$$$
O=C(O)CCCc1ccccc1
Actelion Java MolfileCreator 2.0

  0  0  0  0  0  0              0 V3000
M  V30 BEGIN CTAB
M  V30 COUNTS 24 24 0 0 0
M  V30 BEGIN ATOM
M  V30 1 O -1.0949 -1.3297 2.0343 0
M  V30 2 C -1.4324 -0.2205 1.6546 0
M  V30 3 O -0.9861 0.8872 2.2761 0
M  V30 4 C -2.3728 0.0894 0.5222 0
M  V30 5 C -2.0081 -0.6631 -0.7574 0
M  V30 6 C -0.9169 0.0244 -1.5901 0
M  V30 7 C 0.4356 0.0952 -0.9274 0
M  V30 8 C 0.9855 1.3327 -0.5656 0
M  V30 9 C 1.1652 -1.0719 -0.6648 0
M  V30 10 C 2.2348 1.3998 0.0539 0
M  V30 11 C 2.4135 -1.0033 -0.0438 0
M  V30 12 C 2.948 0.232 0.3156 0
M  V30 13 H -0.3424 0.5402 2.9287 0
M  V30 14 H -2.4017 1.1693 0.3383 0
M  V30 15 H -3.3737 -0.206 0.858 0
M  V30 16 H -2.9083 -0.7195 -1.3827 0
M  V30 17 H -1.7218 -1.697 -0.5308 0
M  V30 18 H -0.8003 -0.5155 -2.5388 0
M  V30 19 H -1.2544 1.0322 -1.8642 0
M  V30 20 H 0.4418 2.2551 -0.7574 0
M  V30 21 H 0.7619 -2.0454 -0.9352 0
M  V30 22 H 2.6509 2.3646 0.3319 0
M  V30 23 H 2.9669 -1.9161 0.1603 0
M  V30 24 H 3.9205 0.2839 0.7974 0
M  V30 END ATOM
M  V30 BEGIN BOND
M  V30 1 2 1 2
M  V30 2 1 2 3
M  V30 3 1 2 4
M  V30 4 1 4 5
M  V30 5 1 5 6
M  V30 6 1 6 7
M  V30 7 2 7 8
M  V30 8 1 7 9
M  V30 9 1 8 10
M  V30 10 2 9 11
M  V30 11 2 10 12
M  V30 12 1 11 12
M  V30 13 1 3 13
M  V30 14 1 4 14
M  V30 15 1 4 15
M  V30 16 1 5 16
M  V30 17 1 5 17
M  V30 18 1 6 18
M  V30 19 1 6 19
M  V30 20 1 8 20
M  V30 21 1 9 21
M  V30 22 1 10 22
M  V30 23 1 11 23
M  V30 24 1 12 24
M  V30 END BOND
M  V30 END CTAB
M  END
>  <NO.>
5396

>  <Name>
4-phenylbutyric acid

>  <SMILES>
O=C(O)CCCc1ccccc1

>  <logBB>


>  <Class>
-1

>  <MW>
164.08

>  <nHBAcc>
1

>  <nHBDon>
1

>  <SLogP>
2.09

>  <TopoPSA>
37.3

>  <MMFF94 Energy>
-8.3742

$$$$
O=C(O)CCNC(=O)c1ccc(N=Nc2ccc(O)c(C(=O)O)c2)cc1
Actelion Java MolfileCreator 2.0

  0  0  0  0  0  0              0 V3000
M  V30 BEGIN CTAB
M  V30 COUNTS 41 42 0 0 0
M  V30 BEGIN ATOM
M  V30 1 O -1.0324 7.9629 2.3042 0
M  V30 2 C -1.0861 6.7501 2.1864 0
M  V30 3 O -2.0996 6.0316 2.6954 0
M  V30 4 C -0.0686 5.9371 1.487 0
M  V30 5 C 1.0445 6.5677 0.914 0
M  V30 6 C -0.1959 4.5447 1.3888 0
M  V30 7 O 1.255 7.9203 0.9593 0
M  V30 8 C 2.0176 5.8198 0.2556 0
M  V30 9 C 0.7723 3.7871 0.7164 0
M  V30 10 C 1.8824 4.4336 0.1621 0
M  V30 11 N 0.6722 2.3874 0.6318 0
M  V30 12 N -0.2638 2.0667 -0.134 0
M  V30 13 C -0.3726 0.6674 -0.2108 0
M  V30 14 C -1.4859 0.0291 0.3444 0
M  V30 15 C 0.5929 -0.104 -0.8715 0
M  V30 16 C -1.6269 -1.3591 0.2555 0
M  V30 17 C 0.4579 -1.4938 -0.965 0
M  V30 18 C -0.6613 -2.1255 -0.4092 0
M  V30 19 C -0.8556 -3.6006 -0.4739 0
M  V30 20 O -1.5056 -4.1739 0.3928 0
M  V30 21 N -0.2962 -4.2517 -1.5538 0
M  V30 22 C -0.443 -5.6861 -1.7318 0
M  V30 23 C 0.4812 -6.4777 -0.8168 0
M  V30 24 C 0.3391 -7.9482 -1.0752 0
M  V30 25 O -0.2963 -8.4848 -1.9665 0
M  V30 26 O 1.0445 -8.6875 -0.1965 0
M  V30 27 H -2.6862 6.6913 3.1224 0
M  V30 28 H -1.047 4.0323 1.8307 0
M  V30 29 H 0.5131 8.3435 1.4443 0
M  V30 30 H 2.8801 6.3157 -0.1821 0
M  V30 31 H 2.6449 3.8512 -0.3486 0
M  V30 32 H -2.2447 0.6165 0.8555 0
M  V30 33 H 1.4615 0.3855 -1.3057 0
M  V30 34 H -2.4943 -1.8412 0.7035 0
M  V30 35 H 1.2465 -2.0624 -1.4483 0
M  V30 36 H 0.1324 -3.7215 -2.2997 0
M  V30 37 H -0.2234 -5.8994 -2.784 0
M  V30 38 H -1.4904 -5.9555 -1.5505 0
M  V30 39 H 1.5238 -6.1911 -0.993 0
M  V30 40 H 0.2374 -6.2819 0.2329 0
M  V30 41 H 0.866 -9.6145 -0.4603 0
M  V30 END ATOM
M  V30 BEGIN BOND
M  V30 1 2 1 2
M  V30 2 1 2 3
M  V30 3 1 2 4
M  V30 4 2 4 5
M  V30 5 1 4 6
M  V30 6 1 5 7
M  V30 7 1 5 8
M  V30 8 2 6 9
M  V30 9 2 8 10
M  V30 10 1 9 11
M  V30 11 2 11 12
M  V30 12 1 12 13
M  V30 13 2 13 14
M  V30 14 1 13 15
M  V30 15 1 14 16
M  V30 16 2 15 17
M  V30 17 2 16 18
M  V30 18 1 18 19
M  V30 19 2 19 20
M  V30 20 1 19 21
M  V30 21 1 21 22
M  V30 22 1 22 23
M  V30 23 1 23 24
M  V30 24 2 24 25
M  V30 25 1 24 26
M  V30 26 1 9 10
M  V30 27 1 17 18
M  V30 28 1 3 27
M  V30 29 1 6 28
M  V30 30 1 7 29
M  V30 31 1 8 30
M  V30 32 1 10 31
M  V30 33 1 14 32
M  V30 34 1 15 33
M  V30 35 1 16 34
M  V30 36 1 17 35
M  V30 37 1 21 36
M  V30 38 1 22 37
M  V30 39 1 22 38
M  V30 40 1 23 39
M  V30 41 1 23 40
M  V30 42 1 26 41
M  V30 END BOND
M  V30 END CTAB
M  END
>  <NO.>
5397

>  <Name>
balsalazide

>  <SMILES>
O=C(O)CCNC(=O)c1ccc(N=Nc2ccc(O)c(C(=O)O)c2)cc1

>  <logBB>


>  <Class>
-1

>  <MW>
357.1

>  <nHBAcc>
6

>  <nHBDon>
4

>  <SLogP>
2.71

>  <TopoPSA>
148.65

>  <MMFF94 Energy>
-16.384

$$$$
O=C(O)COC(=O)Cc1ccccc1Nc1c(Cl)cccc1Cl
Actelion Java MolfileCreator 2.0

  0  0  0  0  0  0              0 V3000
M  V30 BEGIN CTAB
M  V30 COUNTS 36 37 0 0 0
M  V30 BEGIN ATOM
M  V30 1 Cl 0.1629 -1.4668 1.793 0
M  V30 2 C 1.3409 -2.0291 0.6544 0
M  V30 3 C 1.5293 -1.4303 -0.6075 0
M  V30 4 C 2.1751 -3.0691 1.092 0
M  V30 5 N 0.6878 -0.4258 -1.145 0
M  V30 6 C 2.6038 -1.9085 -1.3915 0
M  V30 7 C 3.2154 -3.5303 0.2891 0
M  V30 8 C -0.7166 -0.3166 -1.1799 0
M  V30 9 Cl 2.9335 -1.2206 -2.9492 0
M  V30 10 C 3.4351 -2.9442 -0.9523 0
M  V30 11 C -1.3372 0.9482 -1.256 0
M  V30 12 C -1.5288 -1.4614 -1.1329 0
M  V30 13 C -2.7434 1.0301 -1.2814 0
M  V30 14 C -0.553 2.2406 -1.2333 0
M  V30 15 C -2.9212 -1.3664 -1.1667 0
M  V30 16 C -3.5288 -0.1196 -1.2415 0
M  V30 17 C -0.4377 2.8335 0.1498 0
M  V30 18 O -1.0202 3.8497 0.5106 0
M  V30 19 O 0.4125 2.1086 0.9255 0
M  V30 20 C 0.4904 2.5404 2.2816 0
M  V30 21 C -0.7508 2.319 3.136 0
M  V30 22 O -0.9095 2.737 4.274 0
M  V30 23 O -1.6978 1.5583 2.5544 0
M  V30 24 H 2.0223 -3.5149 2.0729 0
M  V30 25 H 1.1524 0.1398 -1.8495 0
M  V30 26 H 3.8584 -4.3352 0.6368 0
M  V30 27 H 4.2522 -3.2968 -1.577 0
M  V30 28 H -1.0796 -2.4498 -1.0836 0
M  V30 29 H -3.2354 2.0009 -1.3174 0
M  V30 30 H 0.4499 2.1335 -1.6588 0
M  V30 31 H -1.0492 2.9782 -1.8776 0
M  V30 32 H -3.5267 -2.2678 -1.1309 0
M  V30 33 H -4.6125 -0.0403 -1.2592 0
M  V30 34 H 0.7612 3.6019 2.3157 0
M  V30 35 H 1.3014 1.9699 2.7456 0
M  V30 36 H -2.4129 1.4972 3.2195 0
M  V30 END ATOM
M  V30 BEGIN BOND
M  V30 1 1 1 2
M  V30 2 2 2 3
M  V30 3 1 2 4
M  V30 4 1 3 5
M  V30 5 1 3 6
M  V30 6 2 4 7
M  V30 7 1 5 8
M  V30 8 1 6 9
M  V30 9 2 6 10
M  V30 10 2 8 11
M  V30 11 1 8 12
M  V30 12 1 11 13
M  V30 13 1 11 14
M  V30 14 2 12 15
M  V30 15 2 13 16
M  V30 16 1 14 17
M  V30 17 2 17 18
M  V30 18 1 17 19
M  V30 19 1 19 20
M  V30 20 1 20 21
M  V30 21 2 21 22
M  V30 22 1 21 23
M  V30 23 1 7 10
M  V30 24 1 15 16
M  V30 25 1 4 24
M  V30 26 1 5 25
M  V30 27 1 7 26
M  V30 28 1 10 27
M  V30 29 1 12 28
M  V30 30 1 13 29
M  V30 31 1 14 30
M  V30 32 1 14 31
M  V30 33 1 15 32
M  V30 34 1 16 33
M  V30 35 1 20 34
M  V30 36 1 20 35
M  V30 37 1 23 36
M  V30 END BOND
M  V30 END CTAB
M  END
>  <NO.>
5399

>  <Name>
aceclofenac

>  <SMILES>
O=C(O)COC(=O)Cc1ccccc1Nc1c(Cl)cccc1Cl

>  <logBB>


>  <Class>
-1

>  <MW>
353.02

>  <nHBAcc>
4

>  <nHBDon>
2

>  <SLogP>
3.91

>  <TopoPSA>
75.63

>  <MMFF94 Energy>
64.99

$$$$
O=C(O)COc1ccc(C(=O)c2cccs2)c(Cl)c1Cl
Actelion Java MolfileCreator 2.0

  0  0  0  0  0  0              0 V3000
M  V30 BEGIN CTAB
M  V30 COUNTS 28 29 0 0 0
M  V30 BEGIN ATOM
M  V30 1 Cl 2.2798 -0.7595 2.2798 0
M  V30 2 C 0.8812 -0.5957 1.2564 0
M  V30 3 C -0.0616 0.4214 1.4918 0
M  V30 4 C 0.7096 -1.5029 0.1861 0
M  V30 5 Cl 0.113 1.509 2.8337 0
M  V30 6 C -1.1629 0.5334 0.6352 0
M  V30 7 O 1.6806 -2.4584 0.0263 0
M  V30 8 C -0.4115 -1.384 -0.6413 0
M  V30 9 C -2.202 1.5694 0.8101 0
M  V30 10 C -1.3465 -0.3735 -0.4158 0
M  V30 11 C 1.4862 -3.4586 -0.9658 0
M  V30 12 O -3.3039 1.1614 1.1754 0
M  V30 13 C -1.876 2.9502 0.4802 0
M  V30 14 C 2.6312 -4.455 -0.9476 0
M  V30 15 S -3.0282 4.1775 0.8175 0
M  V30 16 C -0.7395 3.4845 -0.1033 0
M  V30 17 O 3.6167 -4.4593 -0.2301 0
M  V30 18 O 2.4668 -5.4269 -1.8732 0
M  V30 19 C -2.0094 5.4047 0.2065 0
M  V30 20 C -0.8161 4.9008 -0.2564 0
M  V30 21 H -0.5921 -2.0607 -1.4714 0
M  V30 22 H -2.2241 -0.2962 -1.0572 0
M  V30 23 H 1.4696 -2.999 -1.9603 0
M  V30 24 H 0.5638 -4.0145 -0.7627 0
M  V30 25 H 0.1202 2.9014 -0.41 0
M  V30 26 H 3.2595 -5.9937 -1.7543 0
M  V30 27 H -2.3357 6.4359 0.2159 0
M  V30 28 H -0.0349 5.5181 -0.6836 0
M  V30 END ATOM
M  V30 BEGIN BOND
M  V30 1 1 1 2
M  V30 2 2 2 3
M  V30 3 1 2 4
M  V30 4 1 3 5
M  V30 5 1 3 6
M  V30 6 1 4 7
M  V30 7 2 4 8
M  V30 8 1 6 9
M  V30 9 2 6 10
M  V30 10 1 7 11
M  V30 11 2 9 12
M  V30 12 1 9 13
M  V30 13 1 11 14
M  V30 14 1 13 15
M  V30 15 2 13 16
M  V30 16 2 14 17
M  V30 17 1 14 18
M  V30 18 1 15 19
M  V30 19 1 16 20
M  V30 20 1 8 10
M  V30 21 2 19 20
M  V30 22 1 8 21
M  V30 23 1 10 22
M  V30 24 1 11 23
M  V30 25 1 11 24
M  V30 26 1 16 25
M  V30 27 1 18 26
M  V30 28 1 19 27
M  V30 29 1 20 28
M  V30 END BOND
M  V30 END CTAB
M  END
>  <NO.>
5400

>  <Name>
ticrynafen

>  <SMILES>
O=C(O)COc1ccc(C(=O)c2cccs2)c(Cl)c1Cl

>  <logBB>


>  <Class>
-1

>  <MW>
329.95

>  <nHBAcc>
4

>  <nHBDon>
1

>  <SLogP>
3.75

>  <TopoPSA>
63.6

>  <MMFF94 Energy>
74.426

$$$$
O=C(O)Cc1ccc(-c2ccccc2)cc1
Actelion Java MolfileCreator 2.0

  0  0  0  0  0  0              0 V3000
M  V30 BEGIN CTAB
M  V30 COUNTS 28 29 0 0 0
M  V30 BEGIN ATOM
M  V30 1 O 4.7686 0.8729 1.3493 0
M  V30 2 C 4.4416 -0.1926 0.8514 0
M  V30 3 O 5.0251 -0.6232 -0.2856 0
M  V30 4 C 3.3885 -1.1348 1.3684 0
M  V30 5 C 2.0025 -0.7608 0.914 0
M  V30 6 C 1.2722 0.2204 1.5935 0
M  V30 7 C 1.436 -1.3648 -0.2136 0
M  V30 8 C -0.0085 0.5784 1.1606 0
M  V30 9 C 0.1552 -1.0033 -0.6435 0
M  V30 10 C -0.5906 -0.0274 0.0362 0
M  V30 11 C -1.9388 0.3514 -0.4179 0
M  V30 12 C -3.0348 0.3184 0.4605 0
M  V30 13 C -2.1694 0.7573 -1.7431 0
M  V30 14 C -4.3153 0.6771 0.0302 0
M  V30 15 C -3.449 1.1176 -2.1748 0
M  V30 16 C -4.5214 1.0769 -1.2875 0
M  V30 17 H 5.6446 0.0997 -0.5189 0
M  V30 18 H 3.4432 -1.142 2.464 0
M  V30 19 H 3.6363 -2.1588 1.063 0
M  V30 20 H 1.6968 0.7218 2.4614 0
M  V30 21 H 1.9858 -2.1223 -0.7685 0
M  V30 22 H -0.5478 1.3528 1.703 0
M  V30 23 H -0.265 -1.5003 -1.5158 0
M  V30 24 H -2.8977 -0.0013 1.4916 0
M  V30 25 H -1.3432 0.8078 -2.4494 0
M  V30 26 H -5.1502 0.6415 0.7252 0
M  V30 27 H -3.6051 1.4325 -3.2032 0
M  V30 28 H -5.5167 1.3567 -1.6225 0
M  V30 END ATOM
M  V30 BEGIN BOND
M  V30 1 2 1 2
M  V30 2 1 2 3
M  V30 3 1 2 4
M  V30 4 1 4 5
M  V30 5 2 5 6
M  V30 6 1 5 7
M  V30 7 1 6 8
M  V30 8 2 7 9
M  V30 9 2 8 10
M  V30 10 1 10 11
M  V30 11 2 11 12
M  V30 12 1 11 13
M  V30 13 1 12 14
M  V30 14 2 13 15
M  V30 15 2 14 16
M  V30 16 1 9 10
M  V30 17 1 15 16
M  V30 18 1 3 17
M  V30 19 1 4 18
M  V30 20 1 4 19
M  V30 21 1 6 20
M  V30 22 1 7 21
M  V30 23 1 8 22
M  V30 24 1 9 23
M  V30 25 1 12 24
M  V30 26 1 13 25
M  V30 27 1 14 26
M  V30 28 1 15 27
M  V30 29 1 16 28
M  V30 END BOND
M  V30 END CTAB
M  END
>  <NO.>
5401

>  <Name>
felbinac

>  <SMILES>
O=C(O)Cc1ccc(-c2ccccc2)cc1

>  <logBB>


>  <Class>
-1

>  <MW>
212.08

>  <nHBAcc>
1

>  <nHBDon>
1

>  <SLogP>
2.98

>  <TopoPSA>
37.3

>  <MMFF94 Energy>
37.137

$$$$
O=C(O)Cc1nn(-c2ccc(F)cc2)cc1-c1ccc(Cl)cc1
Actelion Java MolfileCreator 2.0

  0  0  0  0  0  0              0 V3000
M  V30 BEGIN CTAB
M  V30 COUNTS 35 37 0 0 0
M  V30 BEGIN ATOM
M  V30 1 Cl 5.0447 -4.1482 1.3 0
M  V30 2 C 3.7299 -3.0703 1.0374 0
M  V30 3 C 2.9691 -3.1764 -0.1252 0
M  V30 4 C 3.4322 -2.0974 1.9906 0
M  V30 5 C 1.9013 -2.3008 -0.3378 0
M  V30 6 C 2.3632 -1.2225 1.7795 0
M  V30 7 C 1.5947 -1.3204 0.6135 0
M  V30 8 C 0.4829 -0.4221 0.4012 0
M  V30 9 C -0.7398 -0.2689 1.0979 0
M  V30 10 C 0.4229 0.4973 -0.6208 0
M  V30 11 N -1.4844 0.7123 0.5711 0
M  V30 12 C -1.2313 -1.0237 2.2862 0
M  V30 13 N -0.7714 1.1695 -0.4909 0
M  V30 14 C -1.5154 -2.4707 1.9739 0
M  V30 15 C -1.2754 2.2201 -1.3077 0
M  V30 16 O -1.4756 -3.0437 0.8981 0
M  V30 17 O -1.8563 -3.1634 3.0853 0
M  V30 18 C -2.6238 2.5988 -1.1878 0
M  V30 19 C -0.4474 2.8858 -2.2249 0
M  V30 20 C -3.1379 3.6263 -1.9815 0
M  V30 21 C -0.97 3.9138 -3.0152 0
M  V30 22 C -2.3072 4.2731 -2.8875 0
M  V30 23 F -2.7999 5.2591 -3.6481 0
M  V30 24 H 3.1959 -3.9384 -0.8658 0
M  V30 25 H 4.0273 -2.0136 2.896 0
M  V30 26 H 1.3005 -2.4001 -1.2397 0
M  V30 27 H 2.1442 -0.4609 2.5247 0
M  V30 28 H 1.1213 0.7158 -1.4138 0
M  V30 29 H -2.1557 -0.5742 2.6672 0
M  V30 30 H -0.4763 -0.9804 3.079 0
M  V30 31 H -2.0225 -4.0706 2.7517 0
M  V30 32 H -3.285 2.0984 -0.482 0
M  V30 33 H 0.6038 2.6398 -2.3384 0
M  V30 34 H -4.1782 3.9237 -1.8964 0
M  V30 35 H -0.3417 4.4396 -3.7276 0
M  V30 END ATOM
M  V30 BEGIN BOND
M  V30 1 1 1 2
M  V30 2 2 2 3
M  V30 3 1 2 4
M  V30 4 1 3 5
M  V30 5 2 4 6
M  V30 6 2 5 7
M  V30 7 1 7 8
M  V30 8 1 8 9
M  V30 9 2 8 10
M  V30 10 2 9 11
M  V30 11 1 9 12
M  V30 12 1 10 13
M  V30 13 1 12 14
M  V30 14 1 13 15
M  V30 15 2 14 16
M  V30 16 1 14 17
M  V30 17 2 15 18
M  V30 18 1 15 19
M  V30 19 1 18 20
M  V30 20 2 19 21
M  V30 21 2 20 22
M  V30 22 1 22 23
M  V30 23 1 6 7
M  V30 24 1 11 13
M  V30 25 1 21 22
M  V30 26 1 3 24
M  V30 27 1 4 25
M  V30 28 1 5 26
M  V30 29 1 6 27
M  V30 30 1 10 28
M  V30 31 1 12 29
M  V30 32 1 12 30
M  V30 33 1 17 31
M  V30 34 1 18 32
M  V30 35 1 19 33
M  V30 36 1 20 34
M  V30 37 1 21 35
M  V30 END BOND
M  V30 END CTAB
M  END
>  <NO.>
5402

>  <Name>
pirazolac

>  <SMILES>
O=C(O)Cc1nn(-c2ccc(F)cc2)cc1-c1ccc(Cl)cc1

>  <logBB>


>  <Class>
-1

>  <MW>
330.06

>  <nHBAcc>
2

>  <nHBDon>
1

>  <SLogP>
3.96

>  <TopoPSA>
55.12

>  <MMFF94 Energy>
45.995

$$$$
O=C(O)c1ccc(NC(=O)C(Cc2ccc(O)cc2)NC(=O)c2ccccc2)cc1
Actelion Java MolfileCreator 2.0

  0  0  0  0  0  0              0 V3000
M  V30 BEGIN CTAB
M  V30 COUNTS 50 52 0 0 0
M  V30 BEGIN ATOM
M  V30 1 O -7.3343 3.9809 -0.7952 0
M  V30 2 C -6.1543 4.0448 -1.0865 0
M  V30 3 O -5.6522 5.1037 -1.7452 0
M  V30 4 C -5.1294 3.0189 -0.7771 0
M  V30 5 C -5.5275 1.8678 -0.0895 0
M  V30 6 C -3.7891 3.1689 -1.1454 0
M  V30 7 C -4.5921 0.8756 0.2225 0
M  V30 8 C -2.8553 2.1733 -0.8316 0
M  V30 9 C -3.2512 1.0174 -0.1545 0
M  V30 10 N -2.3623 -0.0119 0.2127 0
M  V30 11 C -1.0924 -0.2326 -0.2997 0
M  V30 12 O -0.5668 0.3981 -1.2166 0
M  V30 13 C -0.3492 -1.3932 0.395 0 CFG=1
M  V30 14 N 0.7986 -1.7634 -0.4249 0
M  V30 15 C 0.0298 -1.0408 1.8471 0
M  V30 16 C 1.4499 -2.9621 -0.279 0
M  V30 17 C 1.0833 0.0369 1.9864 0
M  V30 18 O 1.075 -3.8278 0.5045 0
M  V30 19 C 2.648 -3.1805 -1.1354 0
M  V30 20 C 2.4369 -0.3133 2.111 0
M  V30 21 C 0.7306 1.3937 1.9809 0
M  V30 22 C 3.4236 -2.1179 -1.6185 0
M  V30 23 C 3.0195 -4.498 -1.4325 0
M  V30 24 C 3.4199 0.6717 2.2252 0
M  V30 25 C 1.7137 2.3783 2.0937 0
M  V30 26 C 4.5443 -2.3756 -2.4121 0
M  V30 27 C 4.1398 -4.7508 -2.2261 0
M  V30 28 C 3.0481 2.0114 2.2152 0
M  V30 29 C 4.8986 -3.6896 -2.718 0
M  V30 30 O 3.9738 3.0065 2.3248 0
M  V30 31 H -6.4276 5.6875 -1.8818 0
M  V30 32 H -6.5674 1.7381 0.2053 0
M  V30 33 H -3.4536 4.0569 -1.6764 0
M  V30 34 H -4.9333 -0.0086 0.7551 0
M  V30 35 H -1.8214 2.3364 -1.1232 0
M  V30 36 H -2.7197 -0.692 0.873 0
M  V30 37 H -1.0298 -2.2545 0.4105 0
M  V30 38 H 1.0652 -1.0939 -1.1402 0
M  V30 39 H 0.3885 -1.9438 2.3583 0
M  V30 40 H -0.8608 -0.7303 2.4087 0
M  V30 41 H 2.7322 -1.3612 2.1187 0
M  V30 42 H -0.3084 1.7004 1.8868 0
M  V30 43 H 3.1882 -1.0867 -1.3697 0
M  V30 44 H 2.4337 -5.3307 -1.048 0
M  V30 45 H 4.4593 0.3747 2.3206 0
M  V30 46 H 1.4383 3.4292 2.086 0
M  V30 47 H 5.1453 -1.5505 -2.7869 0
M  V30 48 H 4.4203 -5.7752 -2.4578 0
M  V30 49 H 5.7718 -3.8871 -3.3351 0
M  V30 50 H 4.8514 2.6016 2.4178 0
M  V30 END ATOM
M  V30 BEGIN BOND
M  V30 1 2 1 2
M  V30 2 1 2 3
M  V30 3 1 2 4
M  V30 4 2 4 5
M  V30 5 1 4 6
M  V30 6 1 5 7
M  V30 7 2 6 8
M  V30 8 2 7 9
M  V30 9 1 9 10
M  V30 10 1 10 11
M  V30 11 2 11 12
M  V30 12 1 11 13
M  V30 13 1 13 14
M  V30 14 1 13 15
M  V30 15 1 14 16
M  V30 16 1 15 17
M  V30 17 2 16 18
M  V30 18 1 16 19
M  V30 19 2 17 20
M  V30 20 1 17 21
M  V30 21 2 19 22
M  V30 22 1 19 23
M  V30 23 1 20 24
M  V30 24 2 21 25
M  V30 25 1 22 26
M  V30 26 2 23 27
M  V30 27 2 24 28
M  V30 28 2 26 29
M  V30 29 1 28 30
M  V30 30 1 8 9
M  V30 31 1 25 28
M  V30 32 1 27 29
M  V30 33 1 3 31
M  V30 34 1 5 32
M  V30 35 1 6 33
M  V30 36 1 7 34
M  V30 37 1 8 35
M  V30 38 1 10 36
M  V30 39 1 13 37
M  V30 40 1 14 38
M  V30 41 1 15 39
M  V30 42 1 15 40
M  V30 43 1 20 41
M  V30 44 1 21 42
M  V30 45 1 22 43
M  V30 46 1 23 44
M  V30 47 1 24 45
M  V30 48 1 25 46
M  V30 49 1 26 47
M  V30 50 1 27 48
M  V30 51 1 29 49
M  V30 52 1 30 50
M  V30 END BOND
M  V30 BEGIN COLLECTION
M  V30 MDLV30/STERAC1 ATOMS=(1 13)
M  V30 END COLLECTION
M  V30 END CTAB
M  END
>  <NO.>
5403

>  <Name>
bentiromide

>  <SMILES>
O=C(O)c1ccc(NC(=O)C(Cc2ccc(O)cc2)NC(=O)c2ccccc2)cc1

>  <logBB>


>  <Class>
-1

>  <MW>
404.14

>  <nHBAcc>
4

>  <nHBDon>
4

>  <SLogP>
3.07

>  <TopoPSA>
115.73

>  <MMFF94 Energy>
49.343

$$$$
O=C(O)c1ccccc1Nc1cccc(C(F)(F)F)c1
Actelion Java MolfileCreator 2.0

  0  0  0  0  0  0              0 V3000
M  V30 BEGIN CTAB
M  V30 COUNTS 30 31 0 0 0
M  V30 BEGIN ATOM
M  V30 1 F 1.3709 4.845 0.5643 0
M  V30 2 C 2.1435 4.2607 -0.3938 0
M  V30 3 F 3.3833 4.1303 0.1539 0
M  V30 4 F 2.2692 5.1897 -1.3833 0
M  V30 5 C 1.5905 2.9464 -0.8817 0
M  V30 6 C 0.8806 2.1055 -0.0063 0
M  V30 7 C 1.8083 2.5228 -2.1988 0
M  V30 8 C 0.3743 0.8665 -0.426 0
M  V30 9 C 1.3126 1.2949 -2.6308 0
M  V30 10 N -0.2974 0.063 0.5097 0
M  V30 11 C 0.604 0.4754 -1.7482 0
M  V30 12 C -0.4999 -1.3313 0.6138 0
M  V30 13 C -1.6079 -1.8587 1.3204 0
M  V30 14 C 0.373 -2.2414 -0.0046 0
M  V30 15 C -2.5402 -0.9417 2.0305 0
M  V30 16 C -1.8225 -3.2479 1.3753 0
M  V30 17 C 0.1555 -3.621 0.0563 0
M  V30 18 O -2.3552 0.246 2.2352 0
M  V30 19 O -3.6648 -1.5481 2.4534 0
M  V30 20 C -0.9444 -4.1242 0.7409 0
M  V30 21 H 0.7281 2.4213 1.0256 0
M  V30 22 H 2.3623 3.1512 -2.8947 0
M  V30 23 H 1.472 0.9731 -3.6571 0
M  V30 24 H -0.8077 0.5979 1.2193 0
M  V30 25 H 0.2025 -0.4625 -2.122 0
M  V30 26 H 1.2611 -1.8849 -0.5204 0
M  V30 27 H -2.6715 -3.6578 1.9179 0
M  V30 28 H 0.8534 -4.2998 -0.4281 0
M  V30 29 H -4.1763 -0.8313 2.8842 0
M  V30 30 H -1.114 -5.197 0.7895 0
M  V30 END ATOM
M  V30 BEGIN BOND
M  V30 1 1 1 2
M  V30 2 1 2 3
M  V30 3 1 2 4
M  V30 4 1 2 5
M  V30 5 2 5 6
M  V30 6 1 5 7
M  V30 7 1 6 8
M  V30 8 2 7 9
M  V30 9 1 8 10
M  V30 10 2 8 11
M  V30 11 1 10 12
M  V30 12 2 12 13
M  V30 13 1 12 14
M  V30 14 1 13 15
M  V30 15 1 13 16
M  V30 16 2 14 17
M  V30 17 2 15 18
M  V30 18 1 15 19
M  V30 19 2 16 20
M  V30 20 1 9 11
M  V30 21 1 17 20
M  V30 22 1 6 21
M  V30 23 1 7 22
M  V30 24 1 9 23
M  V30 25 1 10 24
M  V30 26 1 11 25
M  V30 27 1 14 26
M  V30 28 1 16 27
M  V30 29 1 17 28
M  V30 30 1 19 29
M  V30 31 1 20 30
M  V30 END BOND
M  V30 END CTAB
M  END
>  <NO.>
5404

>  <Name>
flufenamic

>  <SMILES>
O=C(O)c1ccccc1Nc1cccc(C(F)(F)F)c1

>  <logBB>


>  <Class>
-1

>  <MW>
281.07

>  <nHBAcc>
2

>  <nHBDon>
2

>  <SLogP>
4.15

>  <TopoPSA>
49.33

>  <MMFF94 Energy>
56.244

$$$$
O=C(O)c1cccnc1Nc1cccc(C(F)(F)F)c1
Actelion Java MolfileCreator 2.0

  0  0  0  0  0  0              0 V3000
M  V30 BEGIN CTAB
M  V30 COUNTS 29 30 0 0 0
M  V30 BEGIN ATOM
M  V30 1 F 2.2624 -0.5652 -3.557 0
M  V30 2 C 2.7751 0.5783 -3.0221 0
M  V30 3 F 3.132 1.352 -4.0874 0
M  V30 4 F 3.9424 0.2201 -2.4192 0
M  V30 5 C 1.8261 1.2719 -2.0787 0
M  V30 6 C 1.0291 0.5139 -1.2003 0
M  V30 7 C 1.7451 2.6693 -2.0367 0
M  V30 8 C 0.1524 1.1193 -0.2943 0
M  V30 9 C 0.8738 3.2918 -1.1477 0
M  V30 10 N -0.6627 0.4051 0.597 0
M  V30 11 C 0.0857 2.5215 -0.2891 0
M  V30 12 C -0.6866 -0.9435 1.0036 0
M  V30 13 N 0.3501 -1.7518 0.6634 0
M  V30 14 C -1.784 -1.4596 1.7141 0
M  V30 15 C 0.3143 -3.0562 1.0143 0
M  V30 16 C -2.959 -0.6635 2.1383 0
M  V30 17 C -1.7973 -2.8214 2.0567 0
M  V30 18 C -0.7302 -3.6347 1.7035 0
M  V30 19 O -4.0134 -1.1233 2.5399 0
M  V30 20 O -2.7716 0.6706 2.1024 0
M  V30 21 H 1.1005 -0.5703 -1.2475 0
M  V30 22 H 2.3595 3.2768 -2.6992 0
M  V30 23 H 0.8078 4.3765 -1.118 0
M  V30 24 H -1.2927 0.9791 1.1548 0
M  V30 25 H -0.5838 3.0333 0.3982 0
M  V30 26 H 1.1792 -3.6393 0.7101 0
M  V30 27 H -2.6387 -3.246 2.6007 0
M  V30 28 H -0.7153 -4.6883 1.9585 0
M  V30 29 H -3.6268 1.0223 2.4381 0
M  V30 END ATOM
M  V30 BEGIN BOND
M  V30 1 1 1 2
M  V30 2 1 2 3
M  V30 3 1 2 4
M  V30 4 1 2 5
M  V30 5 2 5 6
M  V30 6 1 5 7
M  V30 7 1 6 8
M  V30 8 2 7 9
M  V30 9 1 8 10
M  V30 10 2 8 11
M  V30 11 1 10 12
M  V30 12 2 12 13
M  V30 13 1 12 14
M  V30 14 1 13 15
M  V30 15 1 14 16
M  V30 16 2 14 17
M  V30 17 2 15 18
M  V30 18 2 16 19
M  V30 19 1 16 20
M  V30 20 1 9 11
M  V30 21 1 17 18
M  V30 22 1 6 21
M  V30 23 1 7 22
M  V30 24 1 9 23
M  V30 25 1 10 24
M  V30 26 1 11 25
M  V30 27 1 15 26
M  V30 28 1 17 27
M  V30 29 1 18 28
M  V30 30 1 20 29
M  V30 END BOND
M  V30 END CTAB
M  END
>  <NO.>
5405

>  <Name>
niflumic acid

>  <SMILES>
O=C(O)c1cccnc1Nc1cccc(C(F)(F)F)c1

>  <logBB>


>  <Class>
-1

>  <MW>
282.06

>  <nHBAcc>
3

>  <nHBDon>
2

>  <SLogP>
3.54

>  <TopoPSA>
62.22

>  <MMFF94 Energy>
33.926

$$$$
O=C(OC1CC2CC3CC(C1)N2CC3=O)c1c[nH]c2ccccc12
Actelion Java MolfileCreator 2.0

  0  0  0  0  0  0              0 V3000
M  V30 BEGIN CTAB
M  V30 COUNTS 44 48 0 0 0
M  V30 BEGIN ATOM
M  V30 1 O -0.8922 6.3401 0.081 0
M  V30 2 C -0.6014 5.1482 0.0891 0
M  V30 3 C -1.6316 4.0434 -0.0357 0
M  V30 4 C 0.8252 4.6286 0.2222 0
M  V30 5 C -1.4774 3.1859 1.2262 0
M  V30 6 C -1.2261 3.2372 -1.2755 0
M  V30 7 N 0.7965 3.1376 0.1892 0
M  V30 8 C -0.032 2.6315 1.3141 0
M  V30 9 C 0.209 2.6785 -1.0955 0
M  V30 10 C 0.0182 1.0979 1.3361 0
M  V30 11 C 0.2679 1.1465 -1.1633 0
M  V30 12 C -0.4443 0.4801 0.0148 0
M  V30 13 O -0.1246 -0.9231 -0.0172 0
M  V30 14 C -0.9926 -1.7552 0.6268 0
M  V30 15 O -2.005 -1.3716 1.2042 0
M  V30 16 C -0.5978 -3.1582 0.5591 0
M  V30 17 C 0.5512 -3.7703 -0.051 0
M  V30 18 C -1.3363 -4.1876 1.1219 0
M  V30 19 C 0.4564 -5.148 0.1674 0
M  V30 20 C 1.6702 -3.2933 -0.7701 0
M  V30 21 N -0.6971 -5.3702 0.8806 0
M  V30 22 C 1.4129 -6.0616 -0.2935 0
M  V30 23 C 2.6358 -4.193 -1.2378 0
M  V30 24 C 2.5061 -5.5576 -1.0016 0
M  V30 25 H -2.637 4.4635 -0.128 0
M  V30 26 H 1.4302 5.014 -0.6048 0
M  V30 27 H 1.2523 4.9786 1.1675 0
M  V30 28 H -1.6734 3.806 2.1108 0
M  V30 29 H -2.2236 2.3837 1.2285 0
M  V30 30 H -1.9549 2.4406 -1.4606 0
M  V30 31 H -1.2426 3.8944 -2.1549 0
M  V30 32 H 0.4123 2.9729 2.2588 0
M  V30 33 H 0.8311 3.0525 -1.9198 0
M  V30 34 H 1.044 0.7666 1.5496 0
M  V30 35 H -0.588 0.7135 2.1654 0
M  V30 36 H 1.3174 0.8206 -1.1843 0
M  V30 37 H -0.1653 0.787 -2.1053 0
M  V30 38 H -1.5257 0.6068 -0.1147 0
M  V30 39 H -2.2675 -4.1631 1.6742 0
M  V30 40 H 1.7949 -2.232 -0.9658 0
M  V30 41 H -1.0191 -6.2804 1.1808 0
M  V30 42 H 1.3151 -7.1268 -0.1099 0
M  V30 43 H 3.4945 -3.8183 -1.7897 0
M  V30 44 H 3.266 -6.2419 -1.3719 0
M  V30 END ATOM
M  V30 BEGIN BOND
M  V30 1 2 1 2
M  V30 2 1 2 3
M  V30 3 1 2 4
M  V30 4 1 3 5
M  V30 5 1 3 6
M  V30 6 1 4 7
M  V30 7 1 5 8
M  V30 8 1 6 9
M  V30 9 1 8 10
M  V30 10 1 9 11
M  V30 11 1 10 12
M  V30 12 1 12 13
M  V30 13 1 13 14
M  V30 14 2 14 15
M  V30 15 1 14 16
M  V30 16 1 16 17
M  V30 17 2 16 18
M  V30 18 2 17 19
M  V30 19 1 17 20
M  V30 20 1 18 21
M  V30 21 1 19 22
M  V30 22 2 20 23
M  V30 23 2 22 24
M  V30 24 1 7 8
M  V30 25 1 7 9
M  V30 26 1 11 12
M  V30 27 1 19 21
M  V30 28 1 23 24
M  V30 29 1 3 25
M  V30 30 1 4 26
M  V30 31 1 4 27
M  V30 32 1 5 28
M  V30 33 1 5 29
M  V30 34 1 6 30
M  V30 35 1 6 31
M  V30 36 1 8 32
M  V30 37 1 9 33
M  V30 38 1 10 34
M  V30 39 1 10 35
M  V30 40 1 11 36
M  V30 41 1 11 37
M  V30 42 1 12 38
M  V30 43 1 18 39
M  V30 44 1 20 40
M  V30 45 1 21 41
M  V30 46 1 22 42
M  V30 47 1 23 43
M  V30 48 1 24 44
M  V30 END BOND
M  V30 END CTAB
M  END
>  <NO.>
5406

>  <Name>
dolasetron

>  <SMILES>
O=C(OC1CC2CC3CC(C1)N2CC3=O)c1c[nH]c2ccccc12

>  <logBB>


>  <Class>
1

>  <MW>
324.15

>  <nHBAcc>
4

>  <nHBDon>
1

>  <SLogP>
2.52

>  <TopoPSA>
62.4

>  <MMFF94 Energy>
69.834

$$$$
O=C(OCC(O)CO)c1ccccc1Nc1ccnc2c(C(F)(F)F)cccc12
Actelion Java MolfileCreator 2.0

  0  0  0  0  0  0              0 V3000
M  V30 BEGIN CTAB
M  V30 COUNTS 46 48 0 0 0
M  V30 BEGIN ATOM
M  V30 1 F 0.0804 -0.3219 7.8289 0
M  V30 2 C 0.6388 -0.9589 6.752 0
M  V30 3 F 0.4905 -2.2863 7.0226 0
M  V30 4 F 1.9708 -0.6857 6.8435 0
M  V30 5 C 0.0181 -0.5306 5.4492 0
M  V30 6 C 0.4848 -1.0868 4.2583 0
M  V30 7 C -1.0219 0.4179 5.445 0
M  V30 8 N 1.4702 -1.9979 4.3044 0
M  V30 9 C -0.097 -0.6785 3.0318 0
M  V30 10 C -1.6056 0.8139 4.2519 0
M  V30 11 C 1.9134 -2.5379 3.1535 0
M  V30 12 C 0.4002 -1.2559 1.8305 0
M  V30 13 C -1.1487 0.2687 3.057 0
M  V30 14 C 1.4152 -2.2078 1.9131 0
M  V30 15 N -0.1396 -0.8899 0.5768 0
M  V30 16 C -0.3261 -1.6011 -0.6296 0
M  V30 17 C -0.4177 -0.9251 -1.8702 0
M  V30 18 C -0.402 -3.0038 -0.6393 0
M  V30 19 C -0.3748 0.5646 -1.9074 0
M  V30 20 C -0.5753 -1.6513 -3.0653 0
M  V30 21 C -0.5552 -3.7182 -1.8308 0
M  V30 22 O -0.5781 1.2738 -0.9315 0
M  V30 23 O -0.0558 1.0045 -3.1482 0
M  V30 24 C -0.6387 -3.0432 -3.0431 0
M  V30 25 C -0.039 2.4359 -3.2869 0
M  V30 26 C 0.3113 2.7834 -4.7335 0 CFG=1
M  V30 27 O -0.7682 2.3993 -5.6001 0
M  V30 28 C 0.5606 4.2829 -4.9042 0
M  V30 29 O 0.8626 4.5514 -6.276 0
M  V30 30 H -1.3808 0.8456 6.3804 0
M  V30 31 H -2.4145 1.5405 4.2481 0
M  V30 32 H 2.7141 -3.2642 3.2609 0
M  V30 33 H -1.6345 0.5862 2.1367 0
M  V30 34 H 1.843 -2.6615 1.0269 0
M  V30 35 H -0.3617 0.1067 0.4959 0
M  V30 36 H -0.3749 -3.5615 0.2938 0
M  V30 37 H -0.6618 -1.1395 -4.0219 0
M  V30 38 H -0.6195 -4.8035 -1.8059 0
M  V30 39 H -0.7648 -3.598 -3.9697 0
M  V30 40 H 0.7141 2.8488 -2.606 0
M  V30 41 H -1.0317 2.8268 -3.0332 0
M  V30 42 H 1.1846 2.2115 -5.0667 0
M  V30 43 H -0.6485 2.9181 -6.4206 0
M  V30 44 H 1.3893 4.6356 -4.2827 0
M  V30 45 H -0.3383 4.8569 -4.6577 0
M  V30 46 H 1.7609 4.2179 -6.4495 0
M  V30 END ATOM
M  V30 BEGIN BOND
M  V30 1 1 1 2
M  V30 2 1 2 3
M  V30 3 1 2 4
M  V30 4 1 2 5
M  V30 5 1 5 6
M  V30 6 2 5 7
M  V30 7 2 6 8
M  V30 8 1 6 9
M  V30 9 1 7 10
M  V30 10 1 8 11
M  V30 11 2 9 12
M  V30 12 1 9 13
M  V30 13 2 11 14
M  V30 14 1 12 15
M  V30 15 1 15 16
M  V30 16 2 16 17
M  V30 17 1 16 18
M  V30 18 1 17 19
M  V30 19 1 17 20
M  V30 20 2 18 21
M  V30 21 2 19 22
M  V30 22 1 19 23
M  V30 23 2 20 24
M  V30 24 1 23 25
M  V30 25 1 25 26
M  V30 26 1 26 27
M  V30 27 1 26 28
M  V30 28 1 28 29
M  V30 29 2 10 13
M  V30 30 1 12 14
M  V30 31 1 21 24
M  V30 32 1 7 30
M  V30 33 1 10 31
M  V30 34 1 11 32
M  V30 35 1 13 33
M  V30 36 1 14 34
M  V30 37 1 15 35
M  V30 38 1 18 36
M  V30 39 1 20 37
M  V30 40 1 21 38
M  V30 41 1 24 39
M  V30 42 1 25 40
M  V30 43 1 25 41
M  V30 44 1 26 42
M  V30 45 1 27 43
M  V30 46 1 28 44
M  V30 47 1 28 45
M  V30 48 1 29 46
M  V30 END BOND
M  V30 BEGIN COLLECTION
M  V30 MDLV30/STERAC1 ATOMS=(1 26)
M  V30 END COLLECTION
M  V30 END CTAB
M  END
>  <NO.>
5407

>  <Name>
floctafenine

>  <SMILES>
O=C(OCC(O)CO)c1ccccc1Nc1ccnc2c(C(F)(F)F)cccc12

>  <logBB>


>  <Class>
-1

>  <MW>
406.11

>  <nHBAcc>
6

>  <nHBDon>
3

>  <SLogP>
3.51

>  <TopoPSA>
91.68

>  <MMFF94 Energy>
108.2

$$$$
O=C(OCCN1CCOCC1)c1cccnc1Nc1cccc(C(F)(F)F)c1
Actelion Java MolfileCreator 2.0

  0  0  0  0  0  0              0 V3000
M  V30 BEGIN CTAB
M  V30 COUNTS 48 50 0 0 0
M  V30 BEGIN ATOM
M  V30 1 F 3.6219 -4.2669 -4.2669 0
M  V30 2 C 2.4976 -4.9314 -4.656 0
M  V30 3 F 2.9066 -6.1914 -4.9766 0
M  V30 4 F 2.1116 -4.3559 -5.8283 0
M  V30 5 C 1.4061 -4.9059 -3.6177 0
M  V30 6 C 1.2295 -3.7739 -2.801 0
M  V30 7 C 0.5294 -5.9868 -3.4728 0
M  V30 8 C 0.2118 -3.707 -1.8337 0
M  V30 9 C -0.4883 -5.9366 -2.5243 0
M  V30 10 N 0.1039 -2.5407 -1.0589 0
M  V30 11 C -0.6422 -4.806 -1.7156 0
M  V30 12 C -0.6643 -2.2058 0.0763 0
M  V30 13 N -1.3532 -3.1802 0.7233 0
M  V30 14 C -0.7491 -0.8691 0.5116 0
M  V30 15 C -2.1126 -2.8556 1.7921 0
M  V30 16 C 0.0206 0.1946 -0.1832 0
M  V30 17 C -1.5485 -0.5612 1.6252 0
M  V30 18 C -2.2427 -1.5713 2.2768 0
M  V30 19 O 0.9232 -0.0308 -0.9759 0
M  V30 20 O -0.4227 1.4244 0.177 0
M  V30 21 C 0.2733 2.5137 -0.4514 0
M  V30 22 C -0.2889 3.8515 0.0577 0
M  V30 23 N 0.2994 4.3249 1.3288 0
M  V30 24 C -0.217 5.6759 1.6499 0
M  V30 25 C 0.005 3.4234 2.4627 0
M  V30 26 C 0.3208 6.1863 2.9952 0
M  V30 27 C 0.528 3.9923 3.7931 0
M  V30 28 O -0.0214 5.2883 4.0583 0
M  V30 29 H 1.9071 -2.9289 -2.9233 0
M  V30 30 H 0.6356 -6.8718 -4.0978 0
M  V30 31 H -1.1704 -6.7754 -2.4098 0
M  V30 32 H 0.7843 -1.8166 -1.2947 0
M  V30 33 H -1.4556 -4.8026 -0.9964 0
M  V30 34 H -2.63 -3.6888 2.2598 0
M  V30 35 H -1.6326 0.4571 1.9946 0
M  V30 36 H -2.866 -1.3626 3.1392 0
M  V30 37 H 0.1035 2.4504 -1.533 0
M  V30 38 H 1.3501 2.4445 -0.2556 0
M  V30 39 H -0.0596 4.6014 -0.7097 0
M  V30 40 H -1.3812 3.7853 0.1429 0
M  V30 41 H 0.0754 6.3829 0.8652 0
M  V30 42 H -1.3138 5.653 1.695 0
M  V30 43 H -1.0785 3.2686 2.5445 0
M  V30 44 H 0.4817 2.4501 2.3109 0
M  V30 45 H -0.1253 7.1586 3.2275 0
M  V30 46 H 1.4092 6.3179 2.966 0
M  V30 47 H 0.2337 3.3339 4.6168 0
M  V30 48 H 1.6229 4.0558 3.7942 0
M  V30 END ATOM
M  V30 BEGIN BOND
M  V30 1 1 1 2
M  V30 2 1 2 3
M  V30 3 1 2 4
M  V30 4 1 2 5
M  V30 5 2 5 6
M  V30 6 1 5 7
M  V30 7 1 6 8
M  V30 8 2 7 9
M  V30 9 1 8 10
M  V30 10 2 8 11
M  V30 11 1 10 12
M  V30 12 2 12 13
M  V30 13 1 12 14
M  V30 14 1 13 15
M  V30 15 1 14 16
M  V30 16 2 14 17
M  V30 17 2 15 18
M  V30 18 2 16 19
M  V30 19 1 16 20
M  V30 20 1 20 21
M  V30 21 1 21 22
M  V30 22 1 22 23
M  V30 23 1 23 24
M  V30 24 1 23 25
M  V30 25 1 24 26
M  V30 26 1 25 27
M  V30 27 1 26 28
M  V30 28 1 9 11
M  V30 29 1 17 18
M  V30 30 1 27 28
M  V30 31 1 6 29
M  V30 32 1 7 30
M  V30 33 1 9 31
M  V30 34 1 10 32
M  V30 35 1 11 33
M  V30 36 1 15 34
M  V30 37 1 17 35
M  V30 38 1 18 36
M  V30 39 1 21 37
M  V30 40 1 21 38
M  V30 41 1 22 39
M  V30 42 1 22 40
M  V30 43 1 24 41
M  V30 44 1 24 42
M  V30 45 1 25 43
M  V30 46 1 25 44
M  V30 47 1 26 45
M  V30 48 1 26 46
M  V30 49 1 27 47
M  V30 50 1 27 48
M  V30 END BOND
M  V30 END CTAB
M  END
>  <NO.>
5408

>  <Name>
morniflumate

>  <SMILES>
O=C(OCCN1CCOCC1)c1cccnc1Nc1cccc(C(F)(F)F)c1

>  <logBB>


>  <Class>
-1

>  <MW>
395.15

>  <nHBAcc>
6

>  <nHBDon>
1

>  <SLogP>
3.33

>  <TopoPSA>
63.69

>  <MMFF94 Energy>
122.24

$$$$
O=C1C(c2[nH]c3ccc(S(=O)(=O)O)cc3c2O)=Nc2ccc(S(=O)(=O)O)cc21
Actelion Java MolfileCreator 2.0

  0  0  0  0  0  0              0 V3000
M  V30 BEGIN CTAB
M  V30 COUNTS 38 41 0 0 0
M  V30 BEGIN ATOM
M  V30 1 S 4.5371 1.5107 -5.2106 0
M  V30 2 O 4.1296 2.8958 -5.2989 0
M  V30 3 O 4.384 0.5898 -6.312 0
M  V30 4 O 6.0991 1.5592 -4.8108 0
M  V30 5 C 3.734 0.7931 -3.8023 0
M  V30 6 C 2.4858 1.2797 -3.4057 0
M  V30 7 C 4.3866 -0.2367 -3.0898 0
M  V30 8 C 1.9344 0.6856 -2.2894 0
M  V30 9 C 3.7849 -0.8082 -1.9598 0
M  V30 10 C 0.6782 0.9217 -1.5994 0
M  V30 11 C 2.5468 -0.3364 -1.5629 0
M  V30 12 O -0.1987 1.7148 -1.8538 0
M  V30 13 C 0.7053 -0.0796 -0.446 0
M  V30 14 N 1.8005 -0.7887 -0.4574 0
M  V30 15 C -0.3819 -0.1577 0.4835 0
M  V30 16 N -1.5071 0.6407 0.4085 0
M  V30 17 C -0.5724 -0.9635 1.5848 0
M  V30 18 C -2.3914 0.3555 1.4246 0
M  V30 19 O 0.3203 -1.8812 1.9874 0
M  V30 20 C -1.8221 -0.6629 2.1889 0
M  V30 21 C -3.6389 0.9231 1.7147 0
M  V30 22 C -2.5298 -1.1498 3.305 0
M  V30 23 C -4.3309 0.4326 2.8249 0
M  V30 24 C -3.7785 -0.5842 3.6046 0
M  V30 25 S -4.6824 -1.216 4.9905 0
M  V30 26 O -6.0914 -0.9718 4.7677 0
M  V30 27 O -4.0053 -0.7824 6.1906 0
M  V30 28 O -4.5207 -2.8181 4.8774 0
M  V30 29 H 6.4318 2.4558 -5.0303 0
M  V30 30 H 1.9727 2.0752 -3.9362 0
M  V30 31 H 5.3601 -0.5996 -3.4174 0
M  V30 32 H 4.2735 -1.6035 -1.4049 0
M  V30 33 H -1.6562 1.3457 -0.3062 0
M  V30 34 H 0.0108 -2.328 2.7921 0
M  V30 35 H -4.0584 1.7161 1.1022 0
M  V30 36 H -2.1185 -1.9408 3.9255 0
M  V30 37 H -5.3037 0.8543 3.073 0
M  V30 38 H -5.4237 -3.1975 4.8226 0
M  V30 END ATOM
M  V30 BEGIN BOND
M  V30 1 2 1 2
M  V30 2 2 1 3
M  V30 3 1 1 4
M  V30 4 1 1 5
M  V30 5 2 5 6
M  V30 6 1 5 7
M  V30 7 1 6 8
M  V30 8 2 7 9
M  V30 9 1 8 10
M  V30 10 2 8 11
M  V30 11 2 10 12
M  V30 12 1 10 13
M  V30 13 1 11 14
M  V30 14 1 13 15
M  V30 15 1 15 16
M  V30 16 2 15 17
M  V30 17 1 16 18
M  V30 18 1 17 19
M  V30 19 1 17 20
M  V30 20 1 18 21
M  V30 21 1 20 22
M  V30 22 2 21 23
M  V30 23 2 22 24
M  V30 24 1 24 25
M  V30 25 2 25 26
M  V30 26 2 25 27
M  V30 27 1 25 28
M  V30 28 1 9 11
M  V30 29 2 13 14
M  V30 30 2 18 20
M  V30 31 1 23 24
M  V30 32 1 4 29
M  V30 33 1 6 30
M  V30 34 1 7 31
M  V30 35 1 9 32
M  V30 36 1 16 33
M  V30 37 1 19 34
M  V30 38 1 21 35
M  V30 39 1 22 36
M  V30 40 1 23 37
M  V30 41 1 28 38
M  V30 END BOND
M  V30 END CTAB
M  END
>  <NO.>
5409

>  <Name>
indigotindisulfonate

>  <SMILES>
O=C1C(c2[nH]c3ccc(S(=O)(=O)O)cc3c2O)=Nc2ccc(S(=O)(=O)O)cc21

>  <logBB>


>  <Class>
-1

>  <MW>
421.99

>  <nHBAcc>
7

>  <nHBDon>
4

>  <SLogP>
1.68

>  <TopoPSA>
174.19

>  <MMFF94 Energy>
0.96743

$$$$
O=C1CCCC(=O)C1C(=O)c1ccc(C(F)(F)F)cc1[N+](=O)[O-]
Actelion Java MolfileCreator 2.0

  0  0  0  0  0  0              0 V3000
M  V30 BEGIN CTAB
M  V30 COUNTS 33 34 0 0 0
M  V30 BEGIN ATOM
M  V30 1 F 4.0267 3.8621 -1.5599 0
M  V30 2 C 4.187 3.094 -0.4484 0
M  V30 3 F 4.4736 3.9507 0.5673 0
M  V30 4 F 5.3146 2.3618 -0.6572 0
M  V30 5 C 2.9754 2.2389 -0.1474 0
M  V30 6 C 1.685 2.6936 -0.4639 0
M  V30 7 C 3.1188 0.9938 0.4887 0
M  V30 8 C 0.5691 1.8974 -0.1605 0
M  V30 9 C 2.0015 0.2068 0.7939 0
M  V30 10 N -0.7438 2.3828 -0.5578 0 CHG=1
M  V30 11 C 0.7168 0.6529 0.4608 0
M  V30 12 O -1.4771 1.5956 -1.1712 0
M  V30 13 O -1.0075 3.5653 -0.3043 0 CHG=-1
M  V30 14 C -0.453 -0.1602 0.8598 0
M  V30 15 O -1.3312 0.3811 1.5246 0
M  V30 16 C -0.5335 -1.5884 0.3828 0
M  V30 17 C -1.3403 -2.4477 1.3231 0
M  V30 18 C -1.0387 -1.6445 -1.0356 0
M  V30 19 O -0.8031 -3.0131 2.2773 0
M  V30 20 C -2.8354 -2.5133 1.1119 0
M  V30 21 O -0.258 -1.5088 -1.9796 0
M  V30 22 C -2.5325 -1.7314 -1.2529 0
M  V30 23 C -3.134 -2.7989 -0.3518 0
M  V30 24 H 1.5551 3.6609 -0.9514 0
M  V30 25 H 4.1122 0.6331 0.7606 0
M  V30 26 H 2.1529 -0.736 1.3171 0
M  V30 27 H 0.4669 -2.0378 0.3717 0
M  V30 28 H -3.2816 -1.567 1.4339 0
M  V30 29 H -3.2462 -3.3139 1.736 0
M  V30 30 H -2.7227 -1.983 -2.3014 0
M  V30 31 H -2.9748 -0.7511 -1.0495 0
M  V30 32 H -2.7237 -3.7796 -0.6238 0
M  V30 33 H -4.2178 -2.844 -0.5056 0
M  V30 END ATOM
M  V30 BEGIN BOND
M  V30 1 1 1 2
M  V30 2 1 2 3
M  V30 3 1 2 4
M  V30 4 1 2 5
M  V30 5 2 5 6
M  V30 6 1 5 7
M  V30 7 1 6 8
M  V30 8 2 7 9
M  V30 9 1 8 10
M  V30 10 2 8 11
M  V30 11 2 10 12
M  V30 12 1 10 13
M  V30 13 1 11 14
M  V30 14 2 14 15
M  V30 15 1 14 16
M  V30 16 1 16 17
M  V30 17 1 16 18
M  V30 18 2 17 19
M  V30 19 1 17 20
M  V30 20 2 18 21
M  V30 21 1 18 22
M  V30 22 1 20 23
M  V30 23 1 9 11
M  V30 24 1 22 23
M  V30 25 1 6 24
M  V30 26 1 7 25
M  V30 27 1 9 26
M  V30 28 1 16 27
M  V30 29 1 20 28
M  V30 30 1 20 29
M  V30 31 1 22 30
M  V30 32 1 22 31
M  V30 33 1 23 32
M  V30 34 1 23 33
M  V30 END BOND
M  V30 END CTAB
M  END
>  <NO.>
5410

>  <Name>
nitisinone

>  <SMILES>
O=C1CCCC(=O)C1C(=O)c1ccc(C(F)(F)F)cc1[N+](=O)[O-]

>  <logBB>


>  <Class>
-1

>  <MW>
329.05

>  <nHBAcc>
5

>  <nHBDon>
0

>  <SLogP>
2.73

>  <TopoPSA>
94.35

>  <MMFF94 Energy>
38.158

$$$$
O=C1CCc2cc(OCCCCc3nnnn3C3CCCCC3)ccc2N1
Actelion Java MolfileCreator 2.0

  0  0  0  0  0  0              0 V3000
M  V30 BEGIN CTAB
M  V30 COUNTS 54 57 0 0 0
M  V30 BEGIN ATOM
M  V30 1 O -4.6281 1.7535 -8.6311 0
M  V30 2 C -4.3399 1.4254 -7.4825 0
M  V30 3 N -3.0455 1.15 -7.1292 0
M  V30 4 C -5.3881 1.2068 -6.4157 0
M  V30 5 C -2.6456 0.8106 -5.8339 0
M  V30 6 C -4.8796 1.6046 -5.0384 0
M  V30 7 C -3.5319 0.9948 -4.7675 0
M  V30 8 C -1.3645 0.3159 -5.6117 0
M  V30 9 C -3.1207 0.6848 -3.4628 0
M  V30 10 C -0.9694 -0.0049 -4.3117 0
M  V30 11 C -1.8402 0.1773 -3.2328 0
M  V30 12 O -1.3193 -0.1732 -2.0183 0
M  V30 13 C -2.1382 0.0389 -0.8695 0
M  V30 14 C -1.3578 -0.3939 0.3715 0
M  V30 15 C -0.1329 0.492 0.6217 0
M  V30 16 C 0.647 0.024 1.8525 0
M  V30 17 C 1.8218 0.8884 2.1482 0
M  V30 18 N 2.1435 2.0347 1.5819 0
M  V30 19 N 2.7742 0.6153 3.0972 0
M  V30 20 N 3.3032 2.454 2.1814 0
M  V30 21 N 3.6973 1.5922 3.1058 0
M  V30 22 C 2.8804 -0.5159 4.0017 0
M  V30 23 C 4.0897 -1.3987 3.6598 0
M  V30 24 C 2.9089 -0.0755 5.4739 0
M  V30 25 C 4.1972 -2.5911 4.6077 0
M  V30 26 C 3.019 -1.2748 6.4128 0
M  V30 27 C 4.2206 -2.1503 6.0686 0
M  V30 28 H -2.3607 1.2166 -7.8712 0
M  V30 29 H -6.281 1.7895 -6.6657 0
M  V30 30 H -5.6593 0.1442 -6.4342 0
M  V30 31 H -4.7835 2.6953 -4.9716 0
M  V30 32 H -5.6057 1.2853 -4.2819 0
M  V30 33 H -0.6675 0.1717 -6.4317 0
M  V30 34 H -3.8157 0.8529 -2.6467 0
M  V30 35 H 0.0303 -0.3946 -4.1344 0
M  V30 36 H -3.0445 -0.5738 -0.9429 0
M  V30 37 H -2.4118 1.0973 -0.7814 0
M  V30 38 H -2.0211 -0.3567 1.2434 0
M  V30 39 H -1.0275 -1.4323 0.2466 0
M  V30 40 H -0.46 1.5307 0.758 0
M  V30 41 H 0.5258 0.4792 -0.2555 0
M  V30 42 H -0.0161 0.0175 2.726 0
M  V30 43 H 0.9863 -1.0058 1.6889 0
M  V30 44 H 1.9747 -1.1179 3.8576 0
M  V30 45 H 5.0159 -0.8121 3.7152 0
M  V30 46 H 4.0115 -1.7597 2.6269 0
M  V30 47 H 2.0023 0.494 5.7131 0
M  V30 48 H 3.7568 0.5976 5.655 0
M  V30 49 H 5.1047 -3.1614 4.3803 0
M  V30 50 H 3.3471 -3.2648 4.4435 0
M  V30 51 H 2.1014 -1.8727 6.3501 0
M  V30 52 H 3.1022 -0.9255 7.4482 0
M  V30 53 H 4.2322 -3.032 6.7192 0
M  V30 54 H 5.1453 -1.5943 6.2668 0
M  V30 END ATOM
M  V30 BEGIN BOND
M  V30 1 2 1 2
M  V30 2 1 2 3
M  V30 3 1 2 4
M  V30 4 1 3 5
M  V30 5 1 4 6
M  V30 6 2 5 7
M  V30 7 1 5 8
M  V30 8 1 7 9
M  V30 9 2 8 10
M  V30 10 2 9 11
M  V30 11 1 11 12
M  V30 12 1 12 13
M  V30 13 1 13 14
M  V30 14 1 14 15
M  V30 15 1 15 16
M  V30 16 1 16 17
M  V30 17 2 17 18
M  V30 18 1 17 19
M  V30 19 1 18 20
M  V30 20 1 19 21
M  V30 21 1 19 22
M  V30 22 1 22 23
M  V30 23 1 22 24
M  V30 24 1 23 25
M  V30 25 1 24 26
M  V30 26 1 25 27
M  V30 27 1 6 7
M  V30 28 1 10 11
M  V30 29 2 20 21
M  V30 30 1 26 27
M  V30 31 1 3 28
M  V30 32 1 4 29
M  V30 33 1 4 30
M  V30 34 1 6 31
M  V30 35 1 6 32
M  V30 36 1 8 33
M  V30 37 1 9 34
M  V30 38 1 10 35
M  V30 39 1 13 36
M  V30 40 1 13 37
M  V30 41 1 14 38
M  V30 42 1 14 39
M  V30 43 1 15 40
M  V30 44 1 15 41
M  V30 45 1 16 42
M  V30 46 1 16 43
M  V30 47 1 22 44
M  V30 48 1 23 45
M  V30 49 1 23 46
M  V30 50 1 24 47
M  V30 51 1 24 48
M  V30 52 1 25 49
M  V30 53 1 25 50
M  V30 54 1 26 51
M  V30 55 1 26 52
M  V30 56 1 27 53
M  V30 57 1 27 54
M  V30 END BOND
M  V30 END CTAB
M  END
>  <NO.>
5411

>  <Name>
cilostazol

>  <SMILES>
O=C1CCc2cc(OCCCCc3nnnn3C3CCCCC3)ccc2N1

>  <logBB>


>  <Class>
-1

>  <MW>
369.22

>  <nHBAcc>
5

>  <nHBDon>
1

>  <SLogP>
3.46

>  <TopoPSA>
81.93

>  <MMFF94 Energy>
-10.052

$$$$
O=C1NC(=O)C2(CCOc3ccc(F)cc32)N1
Actelion Java MolfileCreator 2.0

  0  0  0  0  0  0              0 V3000
M  V30 BEGIN CTAB
M  V30 COUNTS 26 28 0 0 0
M  V30 BEGIN ATOM
M  V30 1 F -2.5919 -3.2407 -0.2427 0
M  V30 2 C -2.245 -1.9475 -0.2675 0
M  V30 3 C -0.9051 -1.5967 -0.126 0
M  V30 4 C -3.2252 -0.9795 -0.4353 0
M  V30 5 C -0.5193 -0.2447 -0.154 0
M  V30 6 C -2.8598 0.3646 -0.4501 0
M  V30 7 C -1.5194 0.7292 -0.2927 0
M  V30 8 C 0.9242 0.1735 -0.0211 0 CFG=1
M  V30 9 O -1.2691 2.0751 -0.3128 0
M  V30 10 N 1.4357 -0.1423 1.298 0
M  V30 11 C 1.9053 -0.6622 -0.8715 0
M  V30 12 C 1.1264 1.6491 -0.3637 0
M  V30 13 C -0.0073 2.4568 0.2358 0
M  V30 14 C 2.5287 -0.9706 1.2545 0
M  V30 15 O 1.9109 -0.7755 -2.0884 0
M  V30 16 N 2.7996 -1.2628 -0.0372 0
M  V30 17 O 3.1361 -1.3765 2.2277 0
M  V30 18 H -0.1774 -2.3938 -7.0E-4 0
M  V30 19 H -4.263 -1.2751 -0.5505 0
M  V30 20 H -3.6193 1.1323 -0.5767 0
M  V30 21 H 1.0353 0.1525 2.1789 0
M  V30 22 H 1.1136 1.7839 -1.4537 0
M  V30 23 H 2.0938 2.0181 -0.0022 0
M  V30 24 H -0.0447 2.3681 1.3287 0
M  V30 25 H 0.1368 3.5178 0.0047 0
M  V30 26 H 3.5495 -1.8628 -0.3351 0
M  V30 END ATOM
M  V30 BEGIN BOND
M  V30 1 1 1 2
M  V30 2 2 2 3
M  V30 3 1 2 4
M  V30 4 1 3 5
M  V30 5 2 4 6
M  V30 6 2 5 7
M  V30 7 1 5 8
M  V30 8 1 7 9
M  V30 9 1 8 10
M  V30 10 1 8 11
M  V30 11 1 8 12
M  V30 12 1 9 13
M  V30 13 1 10 14
M  V30 14 2 11 15
M  V30 15 1 11 16
M  V30 16 2 14 17
M  V30 17 1 6 7
M  V30 18 1 12 13
M  V30 19 1 14 16
M  V30 20 1 3 18
M  V30 21 1 4 19
M  V30 22 1 6 20
M  V30 23 1 10 21
M  V30 24 1 12 22
M  V30 25 1 12 23
M  V30 26 1 13 24
M  V30 27 1 13 25
M  V30 28 1 16 26
M  V30 END BOND
M  V30 BEGIN COLLECTION
M  V30 MDLV30/STERAC1 ATOMS=(1 8)
M  V30 END COLLECTION
M  V30 END CTAB
M  END
>  <NO.>
5413

>  <Name>
sorbinil

>  <SMILES>
O=C1NC(=O)C2(CCOc3ccc(F)cc32)N1

>  <logBB>


>  <Class>
-1

>  <MW>
236.06

>  <nHBAcc>
3

>  <nHBDon>
2

>  <SLogP>
0.64

>  <TopoPSA>
67.43

>  <MMFF94 Energy>
-59.465

$$$$
O=C1OCCN1N=Cc1ccc([N+](=O)[O-])o1
Actelion Java MolfileCreator 2.0

  0  0  0  0  0  0              0 V3000
M  V30 BEGIN CTAB
M  V30 COUNTS 23 24 0 0 0
M  V30 BEGIN ATOM
M  V30 1 O 3.9494 -2.0941 0.4829 0
M  V30 2 N 4.3729 -1.0122 0.058 0 CHG=1
M  V30 3 O 5.5628 -0.7237 -0.1318 0 CHG=-1
M  V30 4 C 3.422 0.0092 -0.2493 0
M  V30 5 O 2.114 -0.2929 -0.0422 0
M  V30 6 C 3.5771 1.2863 -0.7325 0
M  V30 7 C 1.397 0.8199 -0.4005 0
M  V30 8 C 2.2627 1.8121 -0.831 0
M  V30 9 C -0.0395 0.8033 -0.2884 0
M  V30 10 N -0.6536 -0.2457 0.1538 0
M  V30 11 N -2.0149 -0.2317 0.2751 0
M  V30 12 C -2.8979 0.8397 0.2418 0
M  V30 13 C -2.6967 -1.4143 0.6886 0
M  V30 14 O -2.6483 2.0213 0.06 0
M  V30 15 O -4.1725 0.3828 0.4698 0
M  V30 16 C -4.1387 -1.0487 0.4541 0
M  V30 17 H 4.5113 1.7724 -0.9796 0
M  V30 18 H 1.9759 2.7983 -1.173 0
M  V30 19 H -0.5453 1.7229 -0.6182 0
M  V30 20 H -2.3795 -2.2895 0.1153 0
M  V30 21 H -2.4926 -1.5742 1.7526 0
M  V30 22 H -4.7991 -1.4491 1.2286 0
M  V30 23 H -4.4956 -1.3874 -0.5244 0
M  V30 END ATOM
M  V30 BEGIN BOND
M  V30 1 2 1 2
M  V30 2 1 2 3
M  V30 3 1 2 4
M  V30 4 1 4 5
M  V30 5 2 4 6
M  V30 6 1 5 7
M  V30 7 1 6 8
M  V30 8 1 7 9
M  V30 9 2 9 10
M  V30 10 1 10 11
M  V30 11 1 11 12
M  V30 12 1 11 13
M  V30 13 2 12 14
M  V30 14 1 12 15
M  V30 15 1 13 16
M  V30 16 2 7 8
M  V30 17 1 15 16
M  V30 18 1 6 17
M  V30 19 1 8 18
M  V30 20 1 9 19
M  V30 21 1 13 20
M  V30 22 1 13 21
M  V30 23 1 16 22
M  V30 24 1 16 23
M  V30 END BOND
M  V30 END CTAB
M  END
>  <NO.>
5414

>  <Name>
furazolidone

>  <SMILES>
O=C1OCCN1N=Cc1ccc([N+](=O)[O-])o1

>  <logBB>


>  <Class>
-1

>  <MW>
225.04

>  <nHBAcc>
6

>  <nHBDon>
0

>  <SLogP>
0.97

>  <TopoPSA>
98.18

>  <MMFF94 Energy>
90.758

$$$$
O=C1c2cccc3c2C(CCC3)CN1C1CN2CCC1CC2
Actelion Java MolfileCreator 2.0

  0  0  0  0  0  0              0 V3000
M  V30 BEGIN CTAB
M  V30 COUNTS 46 50 0 0 0
M  V30 BEGIN ATOM
M  V30 1 O -0.323 2.0203 -2.0203 0
M  V30 2 C -0.578 1.0653 -1.2918 0
M  V30 3 N 0.3827 0.4159 -0.5051 0
M  V30 4 C -1.978 0.5472 -1.2277 0
M  V30 5 C 1.7716 0.9076 -0.5457 0
M  V30 6 C -0.0591 -0.5376 0.5119 0
M  V30 7 C -2.2605 -0.6819 -0.6057 0
M  V30 8 C -3.01 1.2956 -1.8039 0
M  V30 9 C 2.1099 1.9314 0.569 0
M  V30 10 C 2.8777 -0.1819 -0.575 0
M  V30 11 C -1.1136 -1.4927 -0.0503 0
M  V30 12 C -3.585 -1.1551 -0.5562 0
M  V30 13 C -4.3226 0.8301 -1.7516 0
M  V30 14 C 2.3859 1.2193 1.9042 0
M  V30 15 C 3.4443 2.5911 0.1629 0
M  V30 16 N 4.0083 0.1524 0.3306 0
M  V30 17 C -1.5745 -2.5012 1.0067 0
M  V30 18 C -4.6085 -0.3835 -1.1257 0
M  V30 19 C -3.9411 -2.4348 0.1605 0
M  V30 20 C 3.5024 0.1798 1.7192 0
M  V30 21 C 4.5171 1.5004 -0.0168 0
M  V30 22 C -2.7363 -3.3257 0.4613 0
M  V30 23 H 1.8711 1.4491 -1.4967 0
M  V30 24 H -0.4744 0.0469 1.3427 0
M  V30 25 H 0.7883 -1.1118 0.8924 0
M  V30 26 H -2.7927 2.243 -2.2926 0
M  V30 27 H 1.3232 2.6849 0.6806 0
M  V30 28 H 3.2603 -0.2765 -1.6 0
M  V30 29 H 2.4978 -1.1795 -0.3318 0
M  V30 30 H -0.677 -2.0473 -0.8934 0
M  V30 31 H -5.1234 1.4161 -2.1957 0
M  V30 32 H 1.4836 0.7434 2.2962 0
M  V30 33 H 2.6943 1.9558 2.6571 0
M  V30 34 H 3.7614 3.3058 0.9321 0
M  V30 35 H 3.3232 3.1552 -0.7694 0
M  V30 36 H -0.7436 -3.1639 1.2755 0
M  V30 37 H -1.8876 -1.9877 1.9251 0
M  V30 38 H -5.6407 -0.7264 -1.0831 0
M  V30 39 H -4.43 -2.1654 1.1054 0
M  V30 40 H -4.6636 -3.0064 -0.4341 0
M  V30 41 H 4.3287 0.3924 2.4091 0
M  V30 42 H 3.137 -0.8158 1.9998 0
M  V30 43 H 4.881 1.5007 -1.0519 0
M  V30 44 H 5.392 1.7346 0.6022 0
M  V30 45 H -3.0225 -4.1001 1.1818 0
M  V30 46 H -2.4197 -3.8421 -0.4537 0
M  V30 END ATOM
M  V30 BEGIN BOND
M  V30 1 2 1 2
M  V30 2 1 2 3
M  V30 3 1 2 4
M  V30 4 1 3 5
M  V30 5 1 3 6
M  V30 6 2 4 7
M  V30 7 1 4 8
M  V30 8 1 5 9
M  V30 9 1 5 10
M  V30 10 1 6 11
M  V30 11 1 7 12
M  V30 12 2 8 13
M  V30 13 1 9 14
M  V30 14 1 9 15
M  V30 15 1 10 16
M  V30 16 1 11 17
M  V30 17 2 12 18
M  V30 18 1 12 19
M  V30 19 1 14 20
M  V30 20 1 15 21
M  V30 21 1 17 22
M  V30 22 1 7 11
M  V30 23 1 13 18
M  V30 24 1 16 20
M  V30 25 1 16 21
M  V30 26 1 19 22
M  V30 27 1 5 23
M  V30 28 1 6 24
M  V30 29 1 6 25
M  V30 30 1 8 26
M  V30 31 1 9 27
M  V30 32 1 10 28
M  V30 33 1 10 29
M  V30 34 1 11 30
M  V30 35 1 13 31
M  V30 36 1 14 32
M  V30 37 1 14 33
M  V30 38 1 15 34
M  V30 39 1 15 35
M  V30 40 1 17 36
M  V30 41 1 17 37
M  V30 42 1 18 38
M  V30 43 1 19 39
M  V30 44 1 19 40
M  V30 45 1 20 41
M  V30 46 1 20 42
M  V30 47 1 21 43
M  V30 48 1 21 44
M  V30 49 1 22 45
M  V30 50 1 22 46
M  V30 END BOND
M  V30 END CTAB
M  END
>  <NO.>
5415

>  <Name>
135729-75-8

>  <SMILES>
O=C1c2cccc3c2C(CCC3)CN1C1CN2CCC1CC2

>  <logBB>


>  <Class>
1

>  <MW>
296.19

>  <nHBAcc>
2

>  <nHBDon>
0

>  <SLogP>
2.66

>  <TopoPSA>
23.55

>  <MMFF94 Energy>
78.318

$$$$
O=Cc1cc(=O)c2c(OCC(O)COc3cccc4oc(C(=O)O)cc(=O)c34)cccc2o1
Actelion Java MolfileCreator 2.0

  0  0  0  0  0  0              0 V3000
M  V30 BEGIN CTAB
M  V30 COUNTS 49 52 0 0 0
M  V30 BEGIN ATOM
M  V30 1 O -0.9727 -3.0016 1.6216 0
M  V30 2 C -1.1228 -3.9972 0.926 0
M  V30 3 C -0.5017 -4.1842 -0.402 0
M  V30 4 C -1.9999 -5.0786 1.404 0
M  V30 5 C -0.868 -5.315 -1.1352 0
M  V30 6 C 0.4223 -3.2876 -0.9519 0
M  V30 7 C -2.2641 -6.1192 0.6035 0
M  V30 8 O -1.7534 -6.2578 -0.6758 0
M  V30 9 C -0.3271 -5.5483 -2.4029 0
M  V30 10 O 0.899 -2.2053 -0.265 0
M  V30 11 C 0.9832 -3.5341 -2.2095 0
M  V30 12 C -3.1603 -7.2098 1.0615 0
M  V30 13 C 0.6002 -4.6575 -2.9399 0
M  V30 14 C 0.1021 -1.0364 -0.5275 0
M  V30 15 O -3.4718 -8.1875 0.4035 0
M  V30 16 O -3.6332 -7.0456 2.3101 0
M  V30 17 C 0.6831 0.1338 0.2725 0 CFG=1
M  V30 18 O 1.8487 0.6221 -0.4149 0
M  V30 19 C -0.3344 1.273 0.3918 0
M  V30 20 O 0.1922 2.2404 1.3156 0
M  V30 21 C -0.1873 3.5179 1.0108 0
M  V30 22 C 0.7733 4.4776 0.6682 0
M  V30 23 C -1.5323 3.8829 1.1341 0
M  V30 24 C 2.2088 4.1523 0.5217 0
M  V30 25 C 0.3719 5.7947 0.4322 0
M  V30 26 C -1.9257 5.1983 0.8876 0
M  V30 27 O 2.6645 3.0212 0.6312 0
M  V30 28 C 3.1086 5.2726 0.2032 0
M  V30 29 O 1.2462 6.7998 0.0971 0
M  V30 30 C -0.974 6.1547 0.5356 0
M  V30 31 C 2.589 6.4908 0.0148 0
M  V30 32 C 3.5104 7.6089 -0.3161 0
M  V30 33 O 4.724 7.4852 -0.4238 0
M  V30 34 H -2.4067 -4.9611 2.4008 0
M  V30 35 H -0.6189 -6.432 -2.966 0
M  V30 36 H 1.7283 -2.8503 -2.611 0
M  V30 37 H 1.0358 -4.8447 -3.9184 0
M  V30 38 H -0.9348 -1.2239 -0.2265 0
M  V30 39 H 0.1306 -0.8074 -1.6006 0
M  V30 40 H -4.1912 -7.8393 2.4536 0
M  V30 41 H 1.0152 -0.1976 1.2631 0
M  V30 42 H 2.1926 1.3785 0.1155 0
M  V30 43 H -0.5025 1.7215 -0.5966 0
M  V30 44 H -1.2839 0.9015 0.7933 0
M  V30 45 H -2.2737 3.1495 1.4415 0
M  V30 46 H -2.972 5.4799 0.9839 0
M  V30 47 H 4.1667 5.0512 0.125 0
M  V30 48 H -1.2821 7.1813 0.3517 0
M  V30 49 H 3.0137 8.5829 -0.4617 0
M  V30 END ATOM
M  V30 BEGIN BOND
M  V30 1 2 1 2
M  V30 2 1 2 3
M  V30 3 1 2 4
M  V30 4 2 3 5
M  V30 5 1 3 6
M  V30 6 2 4 7
M  V30 7 1 5 8
M  V30 8 1 5 9
M  V30 9 1 6 10
M  V30 10 2 6 11
M  V30 11 1 7 12
M  V30 12 2 9 13
M  V30 13 1 10 14
M  V30 14 2 12 15
M  V30 15 1 12 16
M  V30 16 1 14 17
M  V30 17 1 17 18
M  V30 18 1 17 19
M  V30 19 1 19 20
M  V30 20 1 20 21
M  V30 21 2 21 22
M  V30 22 1 21 23
M  V30 23 1 22 24
M  V30 24 1 22 25
M  V30 25 2 23 26
M  V30 26 2 24 27
M  V30 27 1 24 28
M  V30 28 1 25 29
M  V30 29 2 25 30
M  V30 30 2 28 31
M  V30 31 1 31 32
M  V30 32 2 32 33
M  V30 33 1 7 8
M  V30 34 1 11 13
M  V30 35 1 26 30
M  V30 36 1 29 31
M  V30 37 1 4 34
M  V30 38 1 9 35
M  V30 39 1 11 36
M  V30 40 1 13 37
M  V30 41 1 14 38
M  V30 42 1 14 39
M  V30 43 1 16 40
M  V30 44 1 17 41
M  V30 45 1 18 42
M  V30 46 1 19 43
M  V30 47 1 19 44
M  V30 48 1 23 45
M  V30 49 1 26 46
M  V30 50 1 28 47
M  V30 51 1 30 48
M  V30 52 1 32 49
M  V30 END BOND
M  V30 BEGIN COLLECTION
M  V30 MDLV30/STERAC1 ATOMS=(1 17)
M  V30 END COLLECTION
M  V30 END CTAB
M  END
>  <NO.>
5417

>  <Name>
schembl5951410

>  <SMILES>
O=Cc1cc(=O)c2c(OCC(O)COc3cccc4oc(C(=O)O)cc(=O)c34)cccc2o1

>  <logBB>


>  <Class>
-1

>  <MW>
452.07

>  <nHBAcc>
9

>  <nHBDon>
2

>  <SLogP>
2.23

>  <TopoPSA>
153.48

>  <MMFF94 Energy>
95.02

$$$$
O=P(O)(O)C(Sc1ccc(Cl)cc1)P(=O)(O)O
Actelion Java MolfileCreator 2.0

  0  0  0  0  0  0              0 V3000
M  V30 BEGIN CTAB
M  V30 COUNTS 26 26 0 0 0
M  V30 BEGIN ATOM
M  V30 1 Cl 0.7794 2.7733 4.162 0
M  V30 2 C 0.7976 1.4805 3.0273 0
M  V30 3 C -0.2102 0.5191 3.0566 0
M  V30 4 C 1.8266 1.3942 2.0923 0
M  V30 5 C -0.1949 -0.53 2.1337 0
M  V30 6 C 1.8399 0.3441 1.1704 0
M  V30 7 C 0.8147 -0.6071 1.1691 0
M  V30 8 S 0.8597 -1.969 0.0285 0
M  V30 9 C -0.0989 -1.315 -1.4028 0
M  V30 10 P -1.8082 -1.1984 -0.9464 0
M  V30 11 P 0.8539 -0.0546 -2.2068 0
M  V30 12 O -2.4176 -2.2783 -0.1083 0
M  V30 13 O -2.6401 -1.0565 -2.3128 0
M  V30 14 O -2.0923 0.239 -0.3001 0
M  V30 15 O 2.3317 -0.2379 -2.3568 0
M  V30 16 O 0.5306 1.366 -1.542 0
M  V30 17 O 0.1981 0.1628 -3.6565 0
M  V30 18 H -1.0038 0.5741 3.7967 0
M  V30 19 H 2.6236 2.1326 2.0793 0
M  V30 20 H -0.976 -1.2868 2.1796 0
M  V30 21 H 2.6601 0.2753 0.4582 0
M  V30 22 H -0.0714 -2.1548 -2.1067 0
M  V30 23 H -3.5966 -1.2048 -2.192 0
M  V30 24 H -2.9594 0.305 0.1396 0
M  V30 25 H 1.1499 2.0705 -1.8058 0
M  V30 26 H 0.7711 0.6716 -4.2598 0
M  V30 END ATOM
M  V30 BEGIN BOND
M  V30 1 1 1 2
M  V30 2 2 2 3
M  V30 3 1 2 4
M  V30 4 1 3 5
M  V30 5 2 4 6
M  V30 6 2 5 7
M  V30 7 1 7 8
M  V30 8 1 8 9
M  V30 9 1 9 10
M  V30 10 1 9 11
M  V30 11 2 10 12
M  V30 12 1 10 13
M  V30 13 1 10 14
M  V30 14 2 11 15
M  V30 15 1 11 16
M  V30 16 1 11 17
M  V30 17 1 6 7
M  V30 18 1 3 18
M  V30 19 1 4 19
M  V30 20 1 5 20
M  V30 21 1 6 21
M  V30 22 1 9 22
M  V30 23 1 13 23
M  V30 24 1 14 24
M  V30 25 1 16 25
M  V30 26 1 17 26
M  V30 END BOND
M  V30 END CTAB
M  END
>  <NO.>
5418

>  <Name>
tiludronate disodium

>  <SMILES>
O=P(O)(O)C(Sc1ccc(Cl)cc1)P(=O)(O)O

>  <logBB>


>  <Class>
-1

>  <MW>
317.93

>  <nHBAcc>
3

>  <nHBDon>
4

>  <SLogP>
2.07

>  <TopoPSA>
115.06

>  <MMFF94 Energy>
-188.07

$$$$
O=P1(N(CCCl)CCCl)NCCCO1
Actelion Java MolfileCreator 2.0

  0  0  0  0  0  0              0 V3000
M  V30 BEGIN CTAB
M  V30 COUNTS 29 29 0 0 0
M  V30 BEGIN ATOM
M  V30 1 Cl 1.1534 1.5655 2.5552 0
M  V30 2 C 1.7169 1.4826 0.8658 0
M  V30 3 C 2.0355 0.0416 0.4469 0
M  V30 4 N 0.877 -0.8421 0.3553 0
M  V30 5 P -0.376 -0.558 -0.6424 0 CFG=2
M  V30 6 C 1.1074 -2.1844 0.8831 0
M  V30 7 O -1.0131 -1.7555 -1.2769 0
M  V30 8 O 0.1583 0.4691 -1.7712 0
M  V30 9 N -1.4127 0.3706 0.2151 0
M  V30 10 C 0.6463 -2.3453 2.3351 0
M  V30 11 C -0.8586 1.0877 -2.5465 0
M  V30 12 C -2.4336 1.0483 -0.5659 0
M  V30 13 Cl -1.1203 -2.1819 2.5081 0
M  V30 14 C -1.785 1.9077 -1.6523 0
M  V30 15 H 0.9637 1.953 0.23 0
M  V30 16 H 2.6254 2.09 0.8059 0
M  V30 17 H 2.5359 0.0594 -0.5284 0
M  V30 18 H 2.7766 -0.3499 1.1562 0
M  V30 19 H 2.1706 -2.4483 0.8165 0
M  V30 20 H 0.6009 -2.9331 0.2629 0
M  V30 21 H -1.8498 -0.1793 0.9492 0
M  V30 22 H 1.1199 -1.6075 2.9896 0
M  V30 23 H 0.913 -3.3414 2.7011 0
M  V30 24 H -0.3736 1.7397 -3.2794 0
M  V30 25 H -1.4137 0.3206 -3.0972 0
M  V30 26 H -3.0334 1.6853 0.0923 0
M  V30 27 H -3.1094 0.3141 -1.0187 0
M  V30 28 H -2.5619 2.3834 -2.2605 0
M  V30 29 H -1.206 2.7069 -1.1725 0
M  V30 END ATOM
M  V30 BEGIN BOND
M  V30 1 1 1 2
M  V30 2 1 2 3
M  V30 3 1 3 4
M  V30 4 1 4 5
M  V30 5 1 4 6
M  V30 6 2 5 7
M  V30 7 1 5 8
M  V30 8 1 5 9
M  V30 9 1 6 10
M  V30 10 1 8 11
M  V30 11 1 9 12
M  V30 12 1 10 13
M  V30 13 1 11 14
M  V30 14 1 12 14
M  V30 15 1 2 15
M  V30 16 1 2 16
M  V30 17 1 3 17
M  V30 18 1 3 18
M  V30 19 1 6 19
M  V30 20 1 6 20
M  V30 21 1 9 21
M  V30 22 1 10 22
M  V30 23 1 10 23
M  V30 24 1 11 24
M  V30 25 1 11 25
M  V30 26 1 12 26
M  V30 27 1 12 27
M  V30 28 1 14 28
M  V30 29 1 14 29
M  V30 END BOND
M  V30 BEGIN COLLECTION
M  V30 MDLV30/STERAC1 ATOMS=(1 5)
M  V30 END COLLECTION
M  V30 END CTAB
M  END
>  <NO.>
5419

>  <Name>
cyclophosphamide

>  <SMILES>
O=P1(N(CCCl)CCCl)NCCCO1

>  <logBB>


>  <Class>
-1

>  <MW>
260.02

>  <nHBAcc>
2

>  <nHBDon>
1

>  <SLogP>
1.88

>  <TopoPSA>
41.57

>  <MMFF94 Energy>
-163.9

$$$$
O=P1(N(CCCl)CCCl)OCCCN1CCCl
Actelion Java MolfileCreator 2.0

  0  0  0  0  0  0              0 V3000
M  V30 BEGIN CTAB
M  V30 COUNTS 35 35 0 0 0
M  V30 BEGIN ATOM
M  V30 1 Cl 1.6585 4.3996 2.3225 0
M  V30 2 C 1.4368 3.1455 1.0743 0
M  V30 3 C 0.0491 2.512 1.1976 0
M  V30 4 N -0.2342 1.444 0.2342 0
M  V30 5 P 0.5954 0.0355 0.3501 0 CFG=2
M  V30 6 C -0.6305 1.9173 -1.0852 0
M  V30 7 O 1.3387 -0.1588 1.637 0
M  V30 8 O 1.6213 0.0845 -0.8963 0
M  V30 9 N -0.4817 -1.1782 0.0227 0
M  V30 10 C 0.5097 1.8578 -2.0994 0
M  V30 11 C 1.1155 0.4654 -2.164 0
M  V30 12 C -1.5832 -1.3085 1.0001 0
M  V30 13 C 0.1086 -2.485 -0.3341 0
M  V30 14 C -2.8117 -2.0606 0.4796 0
M  V30 15 C 0.9431 -3.1737 0.754 0
M  V30 16 Cl -4.1378 -1.9864 1.669 0
M  V30 17 Cl 1.478 -4.7785 0.1831 0
M  V30 18 H 1.5659 3.64 0.1092 0
M  V30 19 H 2.2348 2.4093 1.202 0
M  V30 20 H -0.0618 2.0916 2.2055 0
M  V30 21 H -0.7247 3.2878 1.1312 0
M  V30 22 H -1.4481 1.2785 -1.4421 0
M  V30 23 H -1.0447 2.9321 -1.053 0
M  V30 24 H 0.135 2.1419 -3.0891 0
M  V30 25 H 1.287 2.5791 -1.8274 0
M  V30 26 H 0.3813 -0.2702 -2.5079 0
M  V30 27 H 1.9484 0.4547 -2.8739 0
M  V30 28 H -1.9196 -0.3009 1.2742 0
M  V30 29 H -1.2209 -1.761 1.9305 0
M  V30 30 H 0.7475 -2.3393 -1.2137 0
M  V30 31 H -0.6774 -3.1618 -0.6867 0
M  V30 32 H -2.603 -3.1194 0.3088 0
M  V30 33 H -3.1796 -1.6175 -0.4508 0
M  V30 34 H 0.3696 -3.337 1.6695 0
M  V30 35 H 1.8444 -2.6048 0.9933 0
M  V30 END ATOM
M  V30 BEGIN BOND
M  V30 1 1 1 2
M  V30 2 1 2 3
M  V30 3 1 3 4
M  V30 4 1 4 5
M  V30 5 1 4 6
M  V30 6 2 5 7
M  V30 7 1 5 8
M  V30 8 1 5 9
M  V30 9 1 6 10
M  V30 10 1 8 11
M  V30 11 1 9 12
M  V30 12 1 9 13
M  V30 13 1 12 14
M  V30 14 1 13 15
M  V30 15 1 14 16
M  V30 16 1 15 17
M  V30 17 1 10 11
M  V30 18 1 2 18
M  V30 19 1 2 19
M  V30 20 1 3 20
M  V30 21 1 3 21
M  V30 22 1 6 22
M  V30 23 1 6 23
M  V30 24 1 10 24
M  V30 25 1 10 25
M  V30 26 1 11 26
M  V30 27 1 11 27
M  V30 28 1 12 28
M  V30 29 1 12 29
M  V30 30 1 13 30
M  V30 31 1 13 31
M  V30 32 1 14 32
M  V30 33 1 14 33
M  V30 34 1 15 34
M  V30 35 1 15 35
M  V30 END BOND
M  V30 BEGIN COLLECTION
M  V30 MDLV30/STERAC1 ATOMS=(1 5)
M  V30 END COLLECTION
M  V30 END CTAB
M  END
>  <NO.>
5420

>  <Name>
trofosfamide

>  <SMILES>
O=P1(N(CCCl)CCCl)OCCCN1CCCl

>  <logBB>


>  <Class>
-1

>  <MW>
322.02

>  <nHBAcc>
2

>  <nHBDon>
0

>  <SLogP>
2.84

>  <TopoPSA>
32.78

>  <MMFF94 Energy>
-134.95

$$$$
O=S(O)CNc1ccc(S(=O)(=O)c2ccc(NCS(=O)O)cc2)cc1
Actelion Java MolfileCreator 2.0

  0  0  0  0  0  0              0 V3000
M  V30 BEGIN CTAB
M  V30 COUNTS 41 42 0 0 0
M  V30 BEGIN ATOM
M  V30 1 S -2.2659 1.5102 -0.5032 0
M  V30 2 O -3.4419 1.6117 0.3421 0
M  V30 3 O -2.1763 2.2703 -1.7371 0
M  V30 4 C -0.8727 1.9444 0.5103 0
M  V30 5 C -2.053 -0.1978 -0.9451 0
M  V30 6 C 0.0793 2.8496 0.0449 0
M  V30 7 C -0.7471 1.375 1.7762 0
M  V30 8 C -2.8999 -1.17 -0.4182 0
M  V30 9 C -1.0381 -0.5505 -1.8341 0
M  V30 10 C 1.1739 3.1753 0.8541 0
M  V30 11 C 0.3528 1.7109 2.5709 0
M  V30 12 C -2.712 -2.508 -0.778 0
M  V30 13 C -0.8639 -1.8941 -2.1835 0
M  V30 14 C 1.3253 2.6231 2.1326 0
M  V30 15 C -1.6987 -2.8946 -1.6688 0
M  V30 16 N 2.4047 2.8858 2.9521 0
M  V30 17 N -1.5525 -4.2344 -1.9681 0
M  V30 18 C 3.4408 3.8537 2.6495 0
M  V30 19 C -0.5621 -4.7554 -2.8919 0
M  V30 20 S 4.8469 3.8381 3.8875 0
M  V30 21 S -0.5792 -6.6216 -3.0195 0
M  V30 22 O 4.1691 3.9531 5.3953 0
M  V30 23 O 5.6898 5.2526 3.7172 0
M  V30 24 O 0.2526 -7.0368 -4.3882 0
M  V30 25 O -2.1405 -7.083 -3.3292 0
M  V30 26 H -0.0151 3.3076 -0.9371 0
M  V30 27 H -1.4916 0.6792 2.1555 0
M  V30 28 H -3.7032 -0.9062 0.266 0
M  V30 29 H -0.3843 0.205 -2.2637 0
M  V30 30 H 1.9021 3.8792 0.4616 0
M  V30 31 H 0.4445 1.2527 3.5538 0
M  V30 32 H -3.3765 -3.2576 -0.3529 0
M  V30 33 H -0.0628 -2.1388 -2.8754 0
M  V30 34 H 2.3499 2.5831 3.9218 0
M  V30 35 H -2.2609 -4.8801 -1.6341 0
M  V30 36 H 3.0335 4.8694 2.6686 0
M  V30 37 H 3.9115 3.6596 1.6811 0
M  V30 38 H -0.7525 -4.3874 -3.905 0
M  V30 39 H 0.4549 -4.4925 -2.5859 0
M  V30 40 H 5.2926 5.9004 4.3473 0
M  V30 41 H -2.2799 -7.0032 -4.3023 0
M  V30 END ATOM
M  V30 BEGIN BOND
M  V30 1 2 1 2
M  V30 2 2 1 3
M  V30 3 1 1 4
M  V30 4 1 1 5
M  V30 5 2 4 6
M  V30 6 1 4 7
M  V30 7 2 5 8
M  V30 8 1 5 9
M  V30 9 1 6 10
M  V30 10 2 7 11
M  V30 11 1 8 12
M  V30 12 2 9 13
M  V30 13 2 10 14
M  V30 14 2 12 15
M  V30 15 1 14 16
M  V30 16 1 15 17
M  V30 17 1 16 18
M  V30 18 1 17 19
M  V30 19 1 18 20
M  V30 20 1 19 21
M  V30 21 2 20 22
M  V30 22 1 20 23
M  V30 23 2 21 24
M  V30 24 1 21 25
M  V30 25 1 11 14
M  V30 26 1 13 15
M  V30 27 1 6 26
M  V30 28 1 7 27
M  V30 29 1 8 28
M  V30 30 1 9 29
M  V30 31 1 10 30
M  V30 32 1 11 31
M  V30 33 1 12 32
M  V30 34 1 13 33
M  V30 35 1 16 34
M  V30 36 1 17 35
M  V30 37 1 18 36
M  V30 38 1 18 37
M  V30 39 1 19 38
M  V30 40 1 19 39
M  V30 41 1 23 40
M  V30 42 1 25 41
M  V30 END BOND
M  V30 END CTAB
M  END
>  <NO.>
5422

>  <Name>
sulfoxone

>  <SMILES>
O=S(O)CNc1ccc(S(=O)(=O)c2ccc(NCS(=O)O)cc2)cc1

>  <logBB>


>  <Class>
-1

>  <MW>
404.02

>  <nHBAcc>
6

>  <nHBDon>
4

>  <SLogP>
1.7

>  <TopoPSA>
132.8

>  <MMFF94 Energy>
87.718

$$$$
O=c1[nH]cc(N(CCCl)CCCl)c(=O)[nH]1
Actelion Java MolfileCreator 2.0

  0  0  0  0  0  0              0 V3000
M  V30 BEGIN CTAB
M  V30 COUNTS 26 26 0 0 0
M  V30 BEGIN ATOM
M  V30 1 Cl 0.4046 -3.971 -2.0245 0
M  V30 2 C 0.0566 -2.2411 -1.7752 0
M  V30 3 C -0.0286 -1.9161 -0.283 0
M  V30 4 N -0.4587 -0.5136 -0.0476 0
M  V30 5 C 0.439 0.5805 0.0261 0
M  V30 6 C -1.9228 -0.366 0.129 0
M  V30 7 C 1.9293 0.4151 -0.285 0
M  V30 8 C 0.0889 1.8387 0.3596 0
M  V30 9 C -2.3174 -0.4588 1.6035 0
M  V30 10 O 2.4285 -0.6447 -0.6554 0
M  V30 11 N 2.7259 1.5196 -0.154 0
M  V30 12 N 0.9704 2.8801 0.4363 0
M  V30 13 Cl -4.0725 -0.2353 1.7964 0
M  V30 14 C 2.3043 2.7649 0.1899 0
M  V30 15 O 3.0658 3.7217 0.2714 0
M  V30 16 H 0.833 -1.6644 -2.2835 0
M  V30 17 H -0.8939 -2.0272 -2.2741 0
M  V30 18 H 0.9078 -2.1349 0.2404 0
M  V30 19 H -0.7587 -2.5916 0.1836 0
M  V30 20 H -2.2647 0.5795 -0.3087 0
M  V30 21 H -2.4442 -1.1473 -0.4395 0
M  V30 22 H -0.9314 2.1112 0.6016 0
M  V30 23 H -1.8183 0.3086 2.2023 0
M  V30 24 H -2.0564 -1.436 2.0213 0
M  V30 25 H 3.7063 1.4039 -0.354 0
M  V30 26 H 0.6519 3.808 0.6928 0
M  V30 END ATOM
M  V30 BEGIN BOND
M  V30 1 1 1 2
M  V30 2 1 2 3
M  V30 3 1 3 4
M  V30 4 1 4 5
M  V30 5 1 4 6
M  V30 6 1 5 7
M  V30 7 2 5 8
M  V30 8 1 6 9
M  V30 9 2 7 10
M  V30 10 1 7 11
M  V30 11 1 8 12
M  V30 12 1 9 13
M  V30 13 1 11 14
M  V30 14 2 14 15
M  V30 15 1 12 14
M  V30 16 1 2 16
M  V30 17 1 2 17
M  V30 18 1 3 18
M  V30 19 1 3 19
M  V30 20 1 6 20
M  V30 21 1 6 21
M  V30 22 1 8 22
M  V30 23 1 9 23
M  V30 24 1 9 24
M  V30 25 1 11 25
M  V30 26 1 12 26
M  V30 END BOND
M  V30 END CTAB
M  END
>  <NO.>
5430

>  <Name>
uramustine

>  <SMILES>
O=c1[nH]cc(N(CCCl)CCCl)c(=O)[nH]1

>  <logBB>


>  <Class>
-1

>  <MW>
251.02

>  <nHBAcc>
3

>  <nHBDon>
2

>  <SLogP>
0.35

>  <TopoPSA>
68.96

>  <MMFF94 Energy>
-8.4249

$$$$
OCC(O)CN1CCN(c2ccccc2)CC1
Actelion Java MolfileCreator 2.0

  0  0  0  0  0  0              0 V3000
M  V30 BEGIN CTAB
M  V30 COUNTS 37 38 0 0 0
M  V30 BEGIN ATOM
M  V30 1 O -4.2572 -1.7327 -2.6788 0
M  V30 2 C -3.4262 -0.7695 -2.0215 0 CFG=2
M  V30 3 C -3.3825 0.5269 -2.8456 0
M  V30 4 C -2.0195 -1.387 -1.8356 0
M  V30 5 O -2.7034 1.5739 -2.1636 0
M  V30 6 N -1.0387 -0.5039 -1.1661 0
M  V30 7 C 0.3269 -1.0674 -1.3199 0
M  V30 8 C -1.3219 -0.3963 0.2897 0
M  V30 9 C 1.4149 -0.2246 -0.6163 0
M  V30 10 C -0.2841 0.4625 1.0511 0
M  V30 11 N 1.0872 -0.0164 0.802 0
M  V30 12 C 2.0802 0.3574 1.7032 0
M  V30 13 C 1.9112 0.148 3.0817 0
M  V30 14 C 3.2942 0.9324 1.2968 0
M  V30 15 C 2.8941 0.5078 4.0109 0
M  V30 16 C 4.2824 1.2976 2.2195 0
M  V30 17 C 4.081 1.0866 3.5786 0
M  V30 18 H -5.1556 -1.3594 -2.7173 0
M  V30 19 H -3.8699 -0.5705 -1.04 0
M  V30 20 H -4.3997 0.8697 -3.0629 0
M  V30 21 H -2.8954 0.3595 -3.8126 0
M  V30 22 H -1.6494 -1.6419 -2.8386 0
M  V30 23 H -2.1091 -2.348 -1.3108 0
M  V30 24 H -1.8508 1.1889 -1.8655 0
M  V30 25 H 0.3591 -2.0914 -0.9233 0
M  V30 26 H 0.5802 -1.121 -2.3856 0
M  V30 27 H -2.3044 0.0622 0.4454 0
M  V30 28 H -1.3515 -1.3963 0.7432 0
M  V30 29 H 2.3661 -0.7609 -0.7191 0
M  V30 30 H 1.5107 0.7448 -1.1214 0
M  V30 31 H -0.3624 1.5077 0.7247 0
M  V30 32 H -0.5491 0.4345 2.1132 0
M  V30 33 H 1.0116 -0.3352 3.4526 0
M  V30 34 H 3.4889 1.1314 0.2474 0
M  V30 35 H 2.7299 0.3254 5.0693 0
M  V30 36 H 5.2068 1.7491 1.87 0
M  V30 37 H 4.8469 1.3672 4.2959 0
M  V30 END ATOM
M  V30 BEGIN BOND
M  V30 1 1 1 2
M  V30 2 1 2 3
M  V30 3 1 2 4
M  V30 4 1 3 5
M  V30 5 1 4 6
M  V30 6 1 6 7
M  V30 7 1 6 8
M  V30 8 1 7 9
M  V30 9 1 8 10
M  V30 10 1 9 11
M  V30 11 1 11 12
M  V30 12 2 12 13
M  V30 13 1 12 14
M  V30 14 1 13 15
M  V30 15 2 14 16
M  V30 16 2 15 17
M  V30 17 1 10 11
M  V30 18 1 16 17
M  V30 19 1 1 18
M  V30 20 1 2 19
M  V30 21 1 3 20
M  V30 22 1 3 21
M  V30 23 1 4 22
M  V30 24 1 4 23
M  V30 25 1 5 24
M  V30 26 1 7 25
M  V30 27 1 7 26
M  V30 28 1 8 27
M  V30 29 1 8 28
M  V30 30 1 9 29
M  V30 31 1 9 30
M  V30 32 1 10 31
M  V30 33 1 10 32
M  V30 34 1 13 33
M  V30 35 1 14 34
M  V30 36 1 15 35
M  V30 37 1 16 36
M  V30 38 1 17 37
M  V30 END BOND
M  V30 BEGIN COLLECTION
M  V30 MDLV30/STERAC1 ATOMS=(1 2)
M  V30 END COLLECTION
M  V30 END CTAB
M  END
>  <NO.>
5434

>  <Name>
dropropizine

>  <SMILES>
OCC(O)CN1CCN(c2ccccc2)CC1

>  <logBB>


>  <Class>
-1

>  <MW>
236.15

>  <nHBAcc>
4

>  <nHBDon>
2

>  <SLogP>
0.16

>  <TopoPSA>
46.94

>  <MMFF94 Energy>
136.34

$$$$
OCC(O)COc1ccc(Cl)cc1
Actelion Java MolfileCreator 2.0

  0  0  0  0  0  0              0 V3000
M  V30 BEGIN CTAB
M  V30 COUNTS 24 24 0 0 0
M  V30 BEGIN ATOM
M  V30 1 Cl 4.5519 -1.1165 2.7931 0
M  V30 2 C 3.1481 -0.7562 1.8672 0
M  V30 3 C 2.3875 0.371 2.1708 0
M  V30 4 C 2.7763 -1.591 0.8177 0
M  V30 5 C 1.2439 0.6677 1.4204 0
M  V30 6 C 1.6346 -1.2927 0.07 0
M  V30 7 C 0.8627 -0.1645 0.3665 0
M  V30 8 O -0.2283 0.0064 -0.4395 0
M  V30 9 C -1.0523 1.1532 -0.1919 0
M  V30 10 C -2.2136 1.1901 -1.1989 0 CFG=1
M  V30 11 O -1.7007 1.4887 -2.504 0
M  V30 12 C -3.0004 -0.1255 -1.2671 0
M  V30 13 O -2.211 -1.1618 -1.855 0
M  V30 14 H 2.6787 1.0247 2.9891 0
M  V30 15 H 3.3664 -2.4702 0.5745 0
M  V30 16 H 0.6796 1.5557 1.6856 0
M  V30 17 H 1.3491 -1.9451 -0.7518 0
M  V30 18 H -0.4526 2.0639 -0.3081 0
M  V30 19 H -1.4651 1.0947 0.8222 0
M  V30 20 H -2.8883 2.0074 -0.9221 0
M  V30 21 H -1.415 0.6314 -2.8796 0
M  V30 22 H -3.878 -4.0E-4 -1.909 0
M  V30 23 H -3.3358 -0.4487 -0.2769 0
M  V30 24 H -1.396 -1.2348 -1.319 0
M  V30 END ATOM
M  V30 BEGIN BOND
M  V30 1 1 1 2
M  V30 2 2 2 3
M  V30 3 1 2 4
M  V30 4 1 3 5
M  V30 5 2 4 6
M  V30 6 2 5 7
M  V30 7 1 7 8
M  V30 8 1 8 9
M  V30 9 1 9 10
M  V30 10 1 10 11
M  V30 11 1 10 12
M  V30 12 1 12 13
M  V30 13 1 6 7
M  V30 14 1 3 14
M  V30 15 1 4 15
M  V30 16 1 5 16
M  V30 17 1 6 17
M  V30 18 1 9 18
M  V30 19 1 9 19
M  V30 20 1 10 20
M  V30 21 1 11 21
M  V30 22 1 12 22
M  V30 23 1 12 23
M  V30 24 1 13 24
M  V30 END BOND
M  V30 BEGIN COLLECTION
M  V30 MDLV30/STERAC1 ATOMS=(1 10)
M  V30 END COLLECTION
M  V30 END CTAB
M  END
>  <NO.>
5435

>  <Name>
chlorphenesin

>  <SMILES>
OCC(O)COc1ccc(Cl)cc1

>  <logBB>


>  <Class>
1

>  <MW>
202.04

>  <nHBAcc>
3

>  <nHBDon>
2

>  <SLogP>
1.07

>  <TopoPSA>
49.69

>  <MMFF94 Energy>
50.926

$$$$
Oc1c(I)cc(I)c2cccnc12
Actelion Java MolfileCreator 2.0

  0  0  0  0  0  0              0 V3000
M  V30 BEGIN CTAB
M  V30 COUNTS 18 19 0 0 0
M  V30 BEGIN ATOM
M  V30 1 I -3.2794 2.5883 -1.121 0
M  V30 2 C -1.6162 1.5255 -0.43 0
M  V30 3 C -1.3287 0.2358 -0.8877 0
M  V30 4 C -0.7884 2.13 0.5055 0
M  V30 5 O -2.1512 -0.3665 -1.8179 0
M  V30 6 C -0.2146 -0.4828 -0.4282 0
M  V30 7 C 0.3286 1.4376 0.9809 0
M  V30 8 N 0.0212 -1.7281 -0.9013 0
M  V30 9 C 0.6365 0.1256 0.5268 0
M  V30 10 I 1.5027 2.4733 2.4008 0
M  V30 11 C 1.0915 -2.4142 -0.4577 0
M  V30 12 C 1.7473 -0.6385 0.96 0
M  V30 13 C 1.9786 -1.9166 0.4663 0
M  V30 14 H -1.0088 3.1329 0.8638 0
M  V30 15 H -2.8706 0.2493 -2.0353 0
M  V30 16 H 1.2142 -3.4057 -0.8832 0
M  V30 17 H 2.4518 -0.2507 1.6901 0
M  V30 18 H 2.828 -2.5029 0.7966 0
M  V30 END ATOM
M  V30 BEGIN BOND
M  V30 1 1 1 2
M  V30 2 2 2 3
M  V30 3 1 2 4
M  V30 4 1 3 5
M  V30 5 1 3 6
M  V30 6 2 4 7
M  V30 7 2 6 8
M  V30 8 1 6 9
M  V30 9 1 7 10
M  V30 10 1 8 11
M  V30 11 2 9 12
M  V30 12 2 11 13
M  V30 13 1 7 9
M  V30 14 1 12 13
M  V30 15 1 4 14
M  V30 16 1 5 15
M  V30 17 1 11 16
M  V30 18 1 12 17
M  V30 19 1 13 18
M  V30 END BOND
M  V30 END CTAB
M  END
>  <NO.>
5439

>  <Name>
iodoquinol

>  <SMILES>
Oc1c(I)cc(I)c2cccnc12

>  <logBB>


>  <Class>
-1

>  <MW>
396.85

>  <nHBAcc>
2

>  <nHBDon>
1

>  <SLogP>
3.15

>  <TopoPSA>
33.12

>  <MMFF94 Energy>
57.985

$$$$
Brc1c(NC2=NCCN2)ccc2nccnc12
Actelion Java MolfileCreator 2.0

  0  0  0  0  0  0              0 V3000
M  V30 BEGIN CTAB
M  V30 COUNTS 27 29 0 0 0
M  V30 BEGIN ATOM
M  V30 1 Br -2.7679 -0.0813 1.546 0
M  V30 2 C -1.315 -0.9265 0.6129 0
M  V30 3 C -1.3638 -2.3199 0.4207 0
M  V30 4 C -0.2471 -0.1207 0.1517 0
M  V30 5 N -2.3952 -3.0851 0.8701 0
M  V30 6 C -0.2898 -2.9292 -0.2694 0
M  V30 7 N -0.2655 1.2714 0.3742 0
M  V30 8 C 0.785 -0.7656 -0.5259 0
M  V30 9 C -2.3383 -4.4117 0.6306 0
M  V30 10 N -0.2482 -4.2563 -0.5016 0
M  V30 11 C 0.7569 -2.1477 -0.7274 0
M  V30 12 C 0.6611 2.2157 0.0767 0
M  V30 13 C -1.2849 -4.9859 -0.0422 0
M  V30 14 N 1.8475 2.0876 -0.443 0
M  V30 15 N 0.2809 3.4845 0.3703 0
M  V30 16 C 2.3998 3.4699 -0.5065 0
M  V30 17 C 1.2848 4.4179 -0.0547 0
M  V30 18 H -1.0763 1.586 0.889 0
M  V30 19 H 1.6362 -0.2138 -0.9158 0
M  V30 20 H -3.1706 -5.0 0.9989 0
M  V30 21 H 1.579 -2.6228 -1.2587 0
M  V30 22 H -1.2416 -6.0517 -0.2332 0
M  V30 23 H -0.6674 3.7706 0.5526 0
M  V30 24 H 2.7232 3.6978 -1.5272 0
M  V30 25 H 3.2696 3.5421 0.1552 0
M  V30 26 H 1.6088 5.069 0.762 0
M  V30 27 H 0.9224 5.0307 -0.8857 0
M  V30 END ATOM
M  V30 BEGIN BOND
M  V30 1 1 1 2
M  V30 2 1 2 3
M  V30 3 2 2 4
M  V30 4 2 3 5
M  V30 5 1 3 6
M  V30 6 1 4 7
M  V30 7 1 4 8
M  V30 8 1 5 9
M  V30 9 2 6 10
M  V30 10 1 6 11
M  V30 11 1 7 12
M  V30 12 2 9 13
M  V30 13 2 12 14
M  V30 14 1 12 15
M  V30 15 1 14 16
M  V30 16 1 15 17
M  V30 17 2 8 11
M  V30 18 1 10 13
M  V30 19 1 16 17
M  V30 20 1 7 18
M  V30 21 1 8 19
M  V30 22 1 9 20
M  V30 23 1 11 21
M  V30 24 1 13 22
M  V30 25 1 15 23
M  V30 26 1 16 24
M  V30 27 1 16 25
M  V30 28 1 17 26
M  V30 29 1 17 27
M  V30 END BOND
M  V30 END CTAB
M  END
>  <NO.>
5441

>  <Name>
brimonidine

>  <SMILES>
Brc1c(NC2=NCCN2)ccc2nccnc12

>  <logBB>


>  <Class>
1

>  <MW>
291.01

>  <nHBAcc>
5

>  <nHBDon>
2

>  <SLogP>
1.76

>  <TopoPSA>
62.2

>  <MMFF94 Energy>
35.733

$$$$
C/C(=C\C(=O)OCCCCCCCCC(=O)O)C[C@@H]1OC[C@H](C[C@@H]2O[C@H]2[C@@H](C)[C@H](C)O)[C@@H](O)[C@H]1O
Actelion Java MolfileCreator 2.0

  0  0  0  0  0  0              0 V3000
M  V30 BEGIN CTAB
M  V30 COUNTS 79 80 0 0 0
M  V30 BEGIN ATOM
M  V30 1 O -0.0787 -0.3148 -1.1811 0
M  V30 2 C -0.8214 0.6467 -1.0907 0
M  V30 3 O -1.454 1.2842 -2.1075 0
M  V30 4 C -1.2078 1.3271 0.1668 0
M  V30 5 C -1.2087 0.7782 -3.4281 0
M  V30 6 C -0.5054 1.3043 1.3177 0
M  V30 7 C -0.3246 1.7478 -4.2089 0
M  V30 8 C -1.0651 1.9844 2.5592 0
M  V30 9 C 0.8479 0.6648 1.4797 0
M  V30 10 C 1.0894 1.8535 -3.6321 0
M  V30 11 C -1.5309 1.0367 3.6867 0 CFG=2
M  V30 12 C 1.9687 2.7718 -4.483 0
M  V30 13 O -0.3845 0.4254 4.2987 0
M  V30 14 C -2.5364 -0.025 3.2008 0 CFG=2
M  V30 15 C 3.3794 2.8847 -3.9028 0
M  V30 16 C -0.7333 -0.3635 5.4368 0
M  V30 17 O -3.7439 0.5934 2.7405 0
M  V30 18 C -2.8812 -1.0036 4.3341 0 CFG=1
M  V30 19 C 4.259 3.8014 -4.7543 0
M  V30 20 C -1.6299 -1.544 5.0384 0 CFG=1
M  V30 21 O -3.7071 -0.3018 5.2839 0
M  V30 22 C 5.6685 3.9178 -4.1731 0
M  V30 23 C -0.8307 -2.5319 4.1664 0
M  V30 24 C 6.5469 4.8317 -5.025 0
M  V30 25 C -1.6326 -3.7298 3.756 0 CFG=2
M  V30 26 C 7.9359 4.9542 -4.4601 0
M  V30 27 O -0.92 -4.6177 2.8826 0
M  V30 28 C -2.044 -3.9356 2.3135 0 CFG=1
M  V30 29 O 8.3781 4.4356 -3.4502 0
M  V30 30 O 8.7166 5.7488 -5.2191 0
M  V30 31 C -3.196 -4.8346 1.9477 0 CFG=2
M  V30 32 C -2.8731 -5.691 0.701 0 CFG=1
M  V30 33 C -4.4768 -4.0074 1.8005 0
M  V30 34 O -3.8829 -6.6913 0.5326 0
M  V30 35 C -2.7319 -4.9123 -0.6036 0
M  V30 36 H -2.1634 1.8418 0.1191 0
M  V30 37 H -2.1839 0.7054 -3.9216 0
M  V30 38 H -0.7799 -0.2301 -3.4227 0
M  V30 39 H -0.2719 1.416 -5.2522 0
M  V30 40 H -0.7849 2.7433 -4.2004 0
M  V30 41 H -0.2945 2.6602 2.9529 0
M  V30 42 H -1.911 2.6261 2.279 0
M  V30 43 H 1.4014 0.6069 0.5389 0
M  V30 44 H 1.4721 1.2549 2.1596 0
M  V30 45 H 0.7487 -0.3435 1.8907 0
M  V30 46 H 1.5414 0.8557 -3.5824 0
M  V30 47 H 1.0471 2.2431 -2.6084 0
M  V30 48 H -2.0107 1.6772 4.4401 0
M  V30 49 H 1.5135 3.7682 -4.5384 0
M  V30 50 H 2.0227 2.3833 -5.5072 0
M  V30 51 H -2.1156 -0.5997 2.3699 0
M  V30 52 H 3.834 1.8882 -3.8459 0
M  V30 53 H 3.3254 3.2745 -2.879 0
M  V30 54 H 0.1978 -0.7262 5.8852 0
M  V30 55 H -1.2196 0.2742 6.1848 0
M  V30 56 H -4.254 0.7846 3.5549 0
M  V30 57 H -3.5099 -1.8084 3.9423 0
M  V30 58 H 3.8029 4.7972 -4.8131 0
M  V30 59 H 4.3147 3.4102 -5.7773 0
M  V30 60 H -1.9346 -2.059 5.959 0
M  V30 61 H -4.0253 -0.9577 5.9309 0
M  V30 62 H 6.1255 2.9225 -4.1079 0
M  V30 63 H 5.6152 4.3071 -3.1486 0
M  V30 64 H -0.4227 -2.0299 3.2818 0
M  V30 65 H 0.0335 -2.8868 4.7421 0
M  V30 66 H 6.625 4.4293 -6.0409 0
M  V30 67 H 6.1069 5.834 -5.0703 0
M  V30 68 H -2.1909 -4.1884 4.5608 0
M  V30 69 H -1.8446 -3.1539 1.5914 0
M  V30 70 H 9.5786 5.7467 -4.7525 0
M  V30 71 H -3.3783 -5.5341 2.7758 0
M  V30 72 H -1.9358 -6.2312 0.8785 0
M  V30 73 H -4.3674 -3.2211 1.0464 0
M  V30 74 H -4.7218 -3.5132 2.7468 0
M  V30 75 H -5.3309 -4.6341 1.5272 0
M  V30 76 H -4.6586 -6.2758 0.1202 0
M  V30 77 H -1.939 -4.1618 -0.5467 0
M  V30 78 H -3.6682 -4.418 -0.8822 0
M  V30 79 H -2.494 -5.5986 -1.424 0
M  V30 END ATOM
M  V30 BEGIN BOND
M  V30 1 2 1 2
M  V30 2 1 2 3
M  V30 3 1 2 4
M  V30 4 1 3 5
M  V30 5 2 4 6
M  V30 6 1 5 7
M  V30 7 1 6 8
M  V30 8 1 6 9
M  V30 9 1 7 10
M  V30 10 1 8 11
M  V30 11 1 10 12
M  V30 12 1 11 13
M  V30 13 1 11 14
M  V30 14 1 12 15
M  V30 15 1 13 16
M  V30 16 1 14 17
M  V30 17 1 14 18
M  V30 18 1 15 19
M  V30 19 1 16 20
M  V30 20 1 18 21
M  V30 21 1 19 22
M  V30 22 1 20 23
M  V30 23 1 22 24
M  V30 24 1 23 25
M  V30 25 1 24 26
M  V30 26 1 25 27
M  V30 27 1 25 28
M  V30 28 2 26 29
M  V30 29 1 26 30
M  V30 30 1 28 31
M  V30 31 1 31 32
M  V30 32 1 31 33
M  V30 33 1 32 34
M  V30 34 1 32 35
M  V30 35 1 18 20
M  V30 36 1 27 28
M  V30 37 1 4 36
M  V30 38 1 5 37
M  V30 39 1 5 38
M  V30 40 1 7 39
M  V30 41 1 7 40
M  V30 42 1 8 41
M  V30 43 1 8 42
M  V30 44 1 9 43
M  V30 45 1 9 44
M  V30 46 1 9 45
M  V30 47 1 10 46
M  V30 48 1 10 47
M  V30 49 1 11 48
M  V30 50 1 12 49
M  V30 51 1 12 50
M  V30 52 1 14 51
M  V30 53 1 15 52
M  V30 54 1 15 53
M  V30 55 1 16 54
M  V30 56 1 16 55
M  V30 57 1 17 56
M  V30 58 1 18 57
M  V30 59 1 19 58
M  V30 60 1 19 59
M  V30 61 1 20 60
M  V30 62 1 21 61
M  V30 63 1 22 62
M  V30 64 1 22 63
M  V30 65 1 23 64
M  V30 66 1 23 65
M  V30 67 1 24 66
M  V30 68 1 24 67
M  V30 69 1 25 68
M  V30 70 1 28 69
M  V30 71 1 30 70
M  V30 72 1 31 71
M  V30 73 1 32 72
M  V30 74 1 33 73
M  V30 75 1 33 74
M  V30 76 1 33 75
M  V30 77 1 34 76
M  V30 78 1 35 77
M  V30 79 1 35 78
M  V30 80 1 35 79
M  V30 END BOND
M  V30 BEGIN COLLECTION
M  V30 MDLV30/STEABS ATOMS=(8 11 14 18 20 25 28 31 32)
M  V30 END COLLECTION
M  V30 END CTAB
M  END
>  <NO.>
5443

>  <Name>
mupirocin

>  <SMILES>
C/C(=C\C(=O)OCCCCCCCCC(=O)O)C[C@@H]1OC[C@H](C[C@@H]2O[C@H]2[C@@H](C)[C@H](C)O)[C@@H](O)[C@H]1O

>  <logBB>


>  <Class>
-1

>  <MW>
500.3

>  <nHBAcc>
8

>  <nHBDon>
4

>  <SLogP>
2.59

>  <TopoPSA>
146.05

>  <MMFF94 Energy>
54.259

$$$$
CC(=O)NS(=O)(=O)c1ccc(N)cc1
Actelion Java MolfileCreator 2.0

  0  0  0  0  0  0              0 V3000
M  V30 BEGIN CTAB
M  V30 COUNTS 24 24 0 0 0
M  V30 BEGIN ATOM
M  V30 1 S -0.6435 0.2412 -2.0121 0
M  V30 2 O 0.3833 -0.0771 -2.9773 0
M  V30 3 O -1.7265 1.1419 -2.3547 0
M  V30 4 N -1.3898 -1.1559 -1.5135 0
M  V30 5 C 0.1093 0.8552 -0.529 0
M  V30 6 C -0.7361 -2.3121 -1.075 0
M  V30 7 C -0.6173 1.6912 0.3217 0
M  V30 8 C 1.439 0.5431 -0.2443 0
M  V30 9 O 0.4743 -2.3938 -0.9329 0
M  V30 10 C -1.6624 -3.4533 -0.7626 0
M  V30 11 C -0.0099 2.1952 1.4755 0
M  V30 12 C 2.0331 1.0512 0.9142 0
M  V30 13 C 1.3213 1.8914 1.7755 0
M  V30 14 N 1.9034 2.3602 2.9386 0
M  V30 15 H -2.4007 -1.1127 -1.5856 0
M  V30 16 H -1.6472 1.9585 0.0982 0
M  V30 17 H 2.0127 -0.1033 -0.9058 0
M  V30 18 H -2.2542 -3.7027 -1.6475 0
M  V30 19 H -2.3267 -3.174 0.0596 0
M  V30 20 H -1.0805 -4.331 -0.4679 0
M  V30 21 H -0.5851 2.8367 2.1385 0
M  V30 22 H 3.0635 0.7849 1.1361 0
M  V30 23 H 2.8856 2.1985 3.1156 0
M  V30 24 H 1.4204 3.0327 3.5181 0
M  V30 END ATOM
M  V30 BEGIN BOND
M  V30 1 2 1 2
M  V30 2 2 1 3
M  V30 3 1 1 4
M  V30 4 1 1 5
M  V30 5 1 4 6
M  V30 6 2 5 7
M  V30 7 1 5 8
M  V30 8 2 6 9
M  V30 9 1 6 10
M  V30 10 1 7 11
M  V30 11 2 8 12
M  V30 12 2 11 13
M  V30 13 1 13 14
M  V30 14 1 12 13
M  V30 15 1 4 15
M  V30 16 1 7 16
M  V30 17 1 8 17
M  V30 18 1 10 18
M  V30 19 1 10 19
M  V30 20 1 10 20
M  V30 21 1 11 21
M  V30 22 1 12 22
M  V30 23 1 14 23
M  V30 24 1 14 24
M  V30 END BOND
M  V30 END CTAB
M  END
>  <NO.>
5447

>  <Name>
sulfacetamide

>  <SMILES>
CC(=O)NS(=O)(=O)c1ccc(N)cc1

>  <logBB>


>  <Class>
-1

>  <MW>
214.04

>  <nHBAcc>
4

>  <nHBDon>
2

>  <SLogP>
0.09

>  <TopoPSA>
89.26

>  <MMFF94 Energy>
-98.456

$$$$
CC(=O)O[C@H]1C[C@@H]2CC[C@@H]3[C@H](CC[C@@]4(C)[C@H]3C[C@H](N3CC[N+](C)(C)CC3)[C@@H]4OC(C)=O)[C@@]2(C)C[C@@H]1N1CC[N+](C)(C)CC1
Actelion Java MolfileCreator 2.0

  0  0  0  0  0  0              0 V3000
M  V30 BEGIN CTAB
M  V30 COUNTS 105 110 0 0 0
M  V30 BEGIN ATOM
M  V30 1 O -5.1143 -1.6759 -4.9542 0
M  V30 2 C -4.8318 -0.6006 -4.4469 0
M  V30 3 O -4.3997 -0.4274 -3.1661 0
M  V30 4 C -4.9173 0.7212 -5.1449 0
M  V30 5 C -4.2323 -1.6362 -2.3818 0 CFG=2
M  V30 6 C -4.4439 -1.2609 -0.8796 0 CFG=1
M  V30 7 C -2.8408 -2.2286 -2.6418 0
M  V30 8 N -4.6386 -2.4096 0.069 0
M  V30 9 C -3.2749 -0.316 -0.4485 0
M  V30 10 C -1.7371 -1.2515 -2.2111 0 CFG=1
M  V30 11 C -5.1471 -1.9416 1.382 0
M  V30 12 C -5.5323 -3.4602 -0.469 0
M  V30 13 C -1.8298 -0.8528 -0.7057 0 CFG=1
M  V30 14 C -0.3431 -1.7547 -2.5964 0
M  V30 15 C -5.4022 -3.073 2.4046 0
M  V30 16 C -5.8053 -4.6309 0.5041 0
M  V30 17 C -0.7649 0.2887 -0.4723 0 CFG=2
M  V30 18 C -1.546 -2.0471 0.237 0
M  V30 19 C 0.702 -0.6679 -2.3515 0
M  V30 20 N -6.3491 -4.1527 1.8587 0 CHG=1
M  V30 21 C 0.6765 -0.1384 -0.9107 0 CFG=1
M  V30 22 C -0.7624 0.8855 0.9583 0
M  V30 23 C -6.362 -5.3333 2.8271 0
M  V30 24 C -7.7746 -3.6319 1.73 0
M  V30 25 C 1.6035 1.0717 -0.7384 0 CFG=1
M  V30 26 C 0.2817 2.0026 1.1511 0
M  V30 27 C 1.6921 1.5612 0.7237 0 CFG=2
M  V30 28 C 3.067 0.9587 -1.1506 0
M  V30 29 C 2.7248 2.7212 0.5868 0 CFG=2
M  V30 30 C 2.2105 0.4967 1.7245 0
M  V30 31 C 3.6549 2.2925 -0.6181 0 CFG=1
M  V30 32 O 3.4563 2.9577 1.799 0
M  V30 33 N 5.1269 2.3261 -0.5496 0
M  V30 34 C 2.8942 3.8507 2.6624 0
M  V30 35 C 5.6464 3.6976 -0.4046 0
M  V30 36 C 5.7458 1.41 0.4169 0
M  V30 37 O 1.8751 4.4911 2.4592 0
M  V30 38 C 3.7242 3.9504 3.9049 0
M  V30 39 C 7.1852 3.7673 -0.5264 0
M  V30 40 C 7.2911 1.4079 0.3206 0
M  V30 41 N 7.8931 2.8212 0.4659 0 CHG=1
M  V30 42 C 9.376 2.7607 0.1077 0
M  V30 43 C 7.768 3.3289 1.8935 0
M  V30 44 H -5.6438 1.3614 -4.6382 0
M  V30 45 H -3.9326 1.1948 -5.1624 0
M  V30 46 H -5.2469 0.5658 -6.176 0
M  V30 47 H -5.0057 -2.3423 -2.6967 0
M  V30 48 H -5.361 -0.6544 -0.8452 0
M  V30 49 H -2.7299 -2.4261 -3.7151 0
M  V30 50 H -2.7337 -3.1931 -2.1351 0
M  V30 51 H -3.3941 0.6257 -1.0036 0
M  V30 52 H -3.3885 -0.026 0.5993 0
M  V30 53 H -1.8954 -0.3353 -2.801 0
M  V30 54 H -4.4175 -1.2766 1.8531 0
M  V30 55 H -6.0665 -1.3585 1.2486 0
M  V30 56 H -6.4835 -3.022 -0.7943 0
M  V30 57 H -5.067 -3.9229 -1.3454 0
M  V30 58 H -0.3235 -2.0246 -3.6592 0
M  V30 59 H -0.0845 -2.6626 -2.0405 0
M  V30 60 H -4.4561 -3.5695 2.6529 0
M  V30 61 H -5.8469 -2.678 3.3249 0
M  V30 62 H -6.5347 -5.3313 0.0821 0
M  V30 63 H -4.8716 -5.1705 0.7052 0
M  V30 64 H -1.0568 1.1192 -1.1349 0
M  V30 65 H -2.1159 -2.9392 -0.0309 0
M  V30 66 H -0.4965 -2.3508 0.2298 0
M  V30 67 H -1.801 -1.8011 1.2735 0
M  V30 68 H 1.6933 -1.0734 -2.585 0
M  V30 69 H 0.5279 0.1587 -3.0522 0
M  V30 70 H 1.0315 -0.9507 -0.2692 0
M  V30 71 H -0.5873 0.0982 1.6983 0
M  V30 72 H -1.7447 1.3121 1.1883 0
M  V30 73 H -7.0203 -6.1064 2.4201 0
M  V30 74 H -6.7328 -4.9815 3.7945 0
M  V30 75 H -5.3422 -5.7163 2.9275 0
M  V30 76 H -8.4048 -4.4431 1.3537 0
M  V30 77 H -7.7979 -2.7887 1.0376 0
M  V30 78 H -8.1151 -3.3138 2.7199 0
M  V30 79 H 1.1739 1.8824 -1.3512 0
M  V30 80 H 0.2755 2.3195 2.2004 0
M  V30 81 H -0.0306 2.8746 0.562 0
M  V30 82 H 3.5275 0.072 -0.7077 0
M  V30 83 H 3.1868 0.885 -2.2369 0
M  V30 84 H 2.2278 3.6495 0.2718 0
M  V30 85 H 1.6027 -0.4113 1.7329 0
M  V30 86 H 3.2383 0.1907 1.5119 0
M  V30 87 H 2.1983 0.8889 2.7481 0
M  V30 88 H 3.3992 3.0059 -1.4186 0
M  V30 89 H 5.3338 4.1433 0.5453 0
M  V30 90 H 5.2336 4.3317 -1.199 0
M  V30 91 H 5.4249 0.3817 0.2253 0
M  V30 92 H 5.4522 1.6439 1.444 0
M  V30 93 H 3.8347 2.9617 4.3575 0
M  V30 94 H 4.7016 4.3745 3.663 0
M  V30 95 H 3.2234 4.6049 4.624 0
M  V30 96 H 7.5518 4.7819 -0.3345 0
M  V30 97 H 7.4936 3.4625 -1.5339 0
M  V30 98 H 7.6022 1.0275 -0.6599 0
M  V30 99 H 7.7337 0.7794 1.1014 0
M  V30 100 H 9.4747 2.3964 -0.919 0
M  V30 101 H 9.8708 2.0766 0.8033 0
M  V30 102 H 9.7933 3.7682 0.1958 0
M  V30 103 H 8.219 4.3243 1.9468 0
M  V30 104 H 6.7148 3.3802 2.1746 0
M  V30 105 H 8.2983 2.6363 2.5536 0
M  V30 END ATOM
M  V30 BEGIN BOND
M  V30 1 2 1 2
M  V30 2 1 2 3
M  V30 3 1 2 4
M  V30 4 1 3 5
M  V30 5 1 5 6
M  V30 6 1 5 7
M  V30 7 1 6 8
M  V30 8 1 6 9
M  V30 9 1 7 10
M  V30 10 1 8 11
M  V30 11 1 8 12
M  V30 12 1 9 13
M  V30 13 1 10 14
M  V30 14 1 11 15
M  V30 15 1 12 16
M  V30 16 1 13 17
M  V30 17 1 13 18
M  V30 18 1 14 19
M  V30 19 1 15 20
M  V30 20 1 17 21
M  V30 21 1 17 22
M  V30 22 1 20 23
M  V30 23 1 20 24
M  V30 24 1 21 25
M  V30 25 1 22 26
M  V30 26 1 25 27
M  V30 27 1 25 28
M  V30 28 1 27 29
M  V30 29 1 27 30
M  V30 30 1 28 31
M  V30 31 1 29 32
M  V30 32 1 31 33
M  V30 33 1 32 34
M  V30 34 1 33 35
M  V30 35 1 33 36
M  V30 36 2 34 37
M  V30 37 1 34 38
M  V30 38 1 35 39
M  V30 39 1 36 40
M  V30 40 1 39 41
M  V30 41 1 41 42
M  V30 42 1 41 43
M  V30 43 1 10 13
M  V30 44 1 16 20
M  V30 45 1 19 21
M  V30 46 1 26 27
M  V30 47 1 29 31
M  V30 48 1 40 41
M  V30 49 1 4 44
M  V30 50 1 4 45
M  V30 51 1 4 46
M  V30 52 1 5 47
M  V30 53 1 6 48
M  V30 54 1 7 49
M  V30 55 1 7 50
M  V30 56 1 9 51
M  V30 57 1 9 52
M  V30 58 1 10 53
M  V30 59 1 11 54
M  V30 60 1 11 55
M  V30 61 1 12 56
M  V30 62 1 12 57
M  V30 63 1 14 58
M  V30 64 1 14 59
M  V30 65 1 15 60
M  V30 66 1 15 61
M  V30 67 1 16 62
M  V30 68 1 16 63
M  V30 69 1 17 64
M  V30 70 1 18 65
M  V30 71 1 18 66
M  V30 72 1 18 67
M  V30 73 1 19 68
M  V30 74 1 19 69
M  V30 75 1 21 70
M  V30 76 1 22 71
M  V30 77 1 22 72
M  V30 78 1 23 73
M  V30 79 1 23 74
M  V30 80 1 23 75
M  V30 81 1 24 76
M  V30 82 1 24 77
M  V30 83 1 24 78
M  V30 84 1 25 79
M  V30 85 1 26 80
M  V30 86 1 26 81
M  V30 87 1 28 82
M  V30 88 1 28 83
M  V30 89 1 29 84
M  V30 90 1 30 85
M  V30 91 1 30 86
M  V30 92 1 30 87
M  V30 93 1 31 88
M  V30 94 1 35 89
M  V30 95 1 35 90
M  V30 96 1 36 91
M  V30 97 1 36 92
M  V30 98 1 38 93
M  V30 99 1 38 94
M  V30 100 1 38 95
M  V30 101 1 39 96
M  V30 102 1 39 97
M  V30 103 1 40 98
M  V30 104 1 40 99
M  V30 105 1 42 100
M  V30 106 1 42 101
M  V30 107 1 42 102
M  V30 108 1 43 103
M  V30 109 1 43 104
M  V30 110 1 43 105
M  V30 END BOND
M  V30 BEGIN COLLECTION
M  V30 MDLV30/STEABS ATOMS=(10 5 6 10 13 17 21 25 27 29 31)
M  V30 END COLLECTION
M  V30 END CTAB
M  END
>  <NO.>
5450

>  <Name>
pipecuronium bromide

>  <SMILES>
CC(=O)O[C@H]1C[C@@H]2CC[C@@H]3[C@H](CC[C@@]4(C)[C@H]3C[C@H](N3CC[N+](C)(C)CC3)[C@@H]4OC(C)=O)[C@@]2(C)C[C@@H]1N1CC[N+](C)(C)CC1

>  <logBB>


>  <Class>
-1

>  <MW>
602.48

>  <nHBAcc>
6

>  <nHBDon>
0

>  <SLogP>
3.63

>  <TopoPSA>
59.08

>  <MMFF94 Energy>
324.67

$$$$
CC(=O)O[C@]1(C(C)=O)CC[C@H]2[C@@H]3C=C(C)C4=CC(=O)CC[C@]4(C)[C@H]3CC[C@@]21C
Actelion Java MolfileCreator 2.0

  0  0  0  0  0  0              0 V3000
M  V30 BEGIN CTAB
M  V30 COUNTS 60 63 0 0 0
M  V30 BEGIN ATOM
M  V30 1 O 4.2669 -5.1542 0.2411 0
M  V30 2 C 3.3516 -4.3519 0.4138 0
M  V30 3 C 3.6741 -2.9209 0.617 0
M  V30 4 C 1.9147 -4.7885 0.4827 0
M  V30 5 C 2.7347 -1.9858 0.8591 0
M  V30 6 C 0.9779 -3.6506 0.1066 0
M  V30 7 C 3.1007 -0.5733 1.0746 0
M  V30 8 C 1.2315 -2.3427 0.9081 0 CFG=2
M  V30 9 C 2.1679 0.3963 1.1315 0
M  V30 10 C 4.5516 -0.2056 1.2789 0
M  V30 11 C 0.4181 -1.1764 0.2469 0 CFG=2
M  V30 12 C 0.82 -2.5702 2.3822 0
M  V30 13 C 0.6896 0.1774 0.9605 0 CFG=2
M  V30 14 C -1.1007 -1.4241 0.086 0
M  V30 15 C -0.0052 1.2841 0.1526 0 CFG=1
M  V30 16 C -1.8174 -0.2522 -0.6144 0
M  V30 17 C -1.5463 1.0988 0.0776 0 CFG=2
M  V30 18 C 0.1479 2.7315 0.6029 0
M  V30 19 C -1.9391 2.3917 -0.7284 0 CFG=1
M  V30 20 C -2.2285 1.0943 1.4759 0
M  V30 21 C -1.0173 3.4744 -0.0796 0
M  V30 22 O -1.5201 2.1938 -2.101 0
M  V30 23 C -3.4501 2.7247 -0.5873 0
M  V30 24 C -1.7766 3.1732 -3.0087 0
M  V30 25 O -3.8719 3.5435 0.2337 0
M  V30 26 C -4.4306 1.9137 -1.3993 0
M  V30 27 O -2.4008 4.1978 -2.7859 0
M  V30 28 C -1.1987 2.8016 -4.3389 0
M  V30 29 H 4.735 -2.7069 0.5637 0
M  V30 30 H 1.7114 -5.1635 1.4904 0
M  V30 31 H 1.7709 -5.6156 -0.2213 0
M  V30 32 H -0.0517 -3.9993 0.2495 0
M  V30 33 H 1.0947 -3.4477 -0.9672 0
M  V30 34 H 2.4824 1.415 1.3497 0
M  V30 35 H 4.6783 0.8552 1.5227 0
M  V30 36 H 4.9843 -0.7763 2.1076 0
M  V30 37 H 5.132 -0.3965 0.3701 0
M  V30 38 H 0.8047 -1.0805 -0.7821 0
M  V30 39 H 0.9472 -1.6742 2.9974 0
M  V30 40 H -0.2271 -2.8802 2.4604 0
M  V30 41 H 1.4251 -3.3513 2.8558 0
M  V30 42 H 0.2695 0.1672 1.9716 0
M  V30 43 H -1.2764 -2.3195 -0.5196 0
M  V30 44 H -1.5632 -1.6141 1.0596 0
M  V30 45 H 0.4113 1.2354 -0.8665 0
M  V30 46 H -2.8922 -0.4613 -0.6462 0
M  V30 47 H -1.4781 -0.2262 -1.6569 0
M  V30 48 H 1.1114 3.1543 0.3001 0
M  V30 49 H 0.0757 2.8254 1.6923 0
M  V30 50 H -3.3045 0.9095 1.3817 0
M  V30 51 H -2.109 2.0441 2.0061 0
M  V30 52 H -1.8428 0.3144 2.1367 0
M  V30 53 H -1.5359 4.0792 0.6717 0
M  V30 54 H -0.6126 4.1682 -0.8239 0
M  V30 55 H -5.2986 2.535 -1.6374 0
M  V30 56 H -3.9905 1.5776 -2.3394 0
M  V30 57 H -4.7521 1.0465 -0.8186 0
M  V30 58 H -0.1214 2.644 -4.244 0
M  V30 59 H -1.6882 1.9003 -4.7158 0
M  V30 60 H -1.3682 3.6167 -5.0482 0
M  V30 END ATOM
M  V30 BEGIN BOND
M  V30 1 2 1 2
M  V30 2 1 2 3
M  V30 3 1 2 4
M  V30 4 2 3 5
M  V30 5 1 4 6
M  V30 6 1 5 7
M  V30 7 1 5 8
M  V30 8 2 7 9
M  V30 9 1 7 10
M  V30 10 1 8 11
M  V30 11 1 8 12
M  V30 12 1 9 13
M  V30 13 1 11 14
M  V30 14 1 13 15
M  V30 15 1 14 16
M  V30 16 1 15 17
M  V30 17 1 15 18
M  V30 18 1 17 19
M  V30 19 1 17 20
M  V30 20 1 18 21
M  V30 21 1 19 22
M  V30 22 1 19 23
M  V30 23 1 22 24
M  V30 24 2 23 25
M  V30 25 1 23 26
M  V30 26 2 24 27
M  V30 27 1 24 28
M  V30 28 1 6 8
M  V30 29 1 11 13
M  V30 30 1 16 17
M  V30 31 1 19 21
M  V30 32 1 3 29
M  V30 33 1 4 30
M  V30 34 1 4 31
M  V30 35 1 6 32
M  V30 36 1 6 33
M  V30 37 1 9 34
M  V30 38 1 10 35
M  V30 39 1 10 36
M  V30 40 1 10 37
M  V30 41 1 11 38
M  V30 42 1 12 39
M  V30 43 1 12 40
M  V30 44 1 12 41
M  V30 45 1 13 42
M  V30 46 1 14 43
M  V30 47 1 14 44
M  V30 48 1 15 45
M  V30 49 1 16 46
M  V30 50 1 16 47
M  V30 51 1 18 48
M  V30 52 1 18 49
M  V30 53 1 20 50
M  V30 54 1 20 51
M  V30 55 1 20 52
M  V30 56 1 21 53
M  V30 57 1 21 54
M  V30 58 1 26 55
M  V30 59 1 26 56
M  V30 60 1 26 57
M  V30 61 1 28 58
M  V30 62 1 28 59
M  V30 63 1 28 60
M  V30 END BOND
M  V30 BEGIN COLLECTION
M  V30 MDLV30/STEABS ATOMS=(6 8 11 13 15 17 19)
M  V30 END COLLECTION
M  V30 END CTAB
M  END
>  <NO.>
5453

>  <Name>
megestrolacetate

>  <SMILES>
CC(=O)O[C@]1(C(C)=O)CC[C@H]2[C@@H]3C=C(C)C4=CC(=O)CC[C@]4(C)[C@H]3CC[C@@]21C

>  <logBB>


>  <Class>
-1

>  <MW>
384.23

>  <nHBAcc>
4

>  <nHBDon>
0

>  <SLogP>
4.58

>  <TopoPSA>
60.44

>  <MMFF94 Energy>
78.758

$$$$
CC(C)(C)NC[C@H](O)COc1cccc2c1CCCC2=O
Actelion Java MolfileCreator 2.0

  0  0  0  0  0  0              0 V3000
M  V30 BEGIN CTAB
M  V30 COUNTS 46 47 0 0 0
M  V30 BEGIN ATOM
M  V30 1 O -5.1309 -0.2363 4.6564 0
M  V30 2 C -4.741 -0.1245 3.4968 0
M  V30 3 C -3.2858 -0.0307 3.1963 0
M  V30 4 C -5.7138 -0.0106 2.3473 0
M  V30 5 C -2.8308 0.1291 1.8744 0
M  V30 6 C -2.378 -0.088 4.2594 0
M  V30 7 C -5.111 -0.5315 1.0555 0
M  V30 8 C -1.4479 0.2685 1.6392 0
M  V30 9 C -3.8153 0.2014 0.7312 0
M  V30 10 C -1.0135 0.0286 4.0152 0
M  V30 11 O -1.0845 0.4648 0.3323 0
M  V30 12 C -0.5505 0.2114 2.7113 0
M  V30 13 C 0.3172 0.5423 0.0321 0
M  V30 14 C 0.4509 0.7307 -1.4843 0 CFG=1
M  V30 15 O -0.2324 1.9392 -1.8595 0
M  V30 16 C 1.9133 0.8365 -1.96 0
M  V30 17 N 2.6969 -0.3728 -1.6829 0
M  V30 18 C 4.0003 -0.4628 -2.3735 0
M  V30 19 C 3.8204 -0.6225 -3.8924 0
M  V30 20 C 4.6864 -1.7346 -1.836 0
M  V30 21 C 4.9049 0.7431 -2.0723 0
M  V30 22 H -6.0099 1.0395 2.2497 0
M  V30 23 H -6.6051 -0.5997 2.5896 0
M  V30 24 H -2.7331 -0.2162 5.2805 0
M  V30 25 H -5.8245 -0.406 0.2334 0
M  V30 26 H -4.9122 -1.6071 1.15 0
M  V30 27 H -4.0211 1.2561 0.5119 0
M  V30 28 H -3.3916 -0.2527 -0.1718 0
M  V30 29 H -0.3098 -0.0127 4.8432 0
M  V30 30 H 0.5205 0.3122 2.5696 0
M  V30 31 H 0.8132 -0.3818 0.3471 0
M  V30 32 H 0.7469 1.4104 0.5461 0
M  V30 33 H -0.0564 -0.0887 -2.0075 0
M  V30 34 H -1.1181 1.8773 -1.4536 0
M  V30 35 H 1.8849 1.0534 -3.0332 0
M  V30 36 H 2.3782 1.7096 -1.4854 0
M  V30 37 H 2.8603 -0.4408 -0.6786 0
M  V30 38 H 3.4301 0.2861 -4.3619 0
M  V30 39 H 4.778 -0.8454 -4.3776 0
M  V30 40 H 3.1349 -1.445 -4.1275 0
M  V30 41 H 4.0802 -2.628 -2.0283 0
M  V30 42 H 5.6611 -1.8897 -2.313 0
M  V30 43 H 4.8573 -1.6731 -0.7545 0
M  V30 44 H 4.5082 1.6691 -2.5025 0
M  V30 45 H 5.0207 0.8945 -0.9928 0
M  V30 46 H 5.9064 0.5957 -2.4929 0
M  V30 END ATOM
M  V30 BEGIN BOND
M  V30 1 2 1 2
M  V30 2 1 2 3
M  V30 3 1 2 4
M  V30 4 2 3 5
M  V30 5 1 3 6
M  V30 6 1 4 7
M  V30 7 1 5 8
M  V30 8 1 5 9
M  V30 9 2 6 10
M  V30 10 1 8 11
M  V30 11 2 8 12
M  V30 12 1 11 13
M  V30 13 1 13 14
M  V30 14 1 14 15
M  V30 15 1 14 16
M  V30 16 1 16 17
M  V30 17 1 17 18
M  V30 18 1 18 19
M  V30 19 1 18 20
M  V30 20 1 18 21
M  V30 21 1 7 9
M  V30 22 1 10 12
M  V30 23 1 4 22
M  V30 24 1 4 23
M  V30 25 1 6 24
M  V30 26 1 7 25
M  V30 27 1 7 26
M  V30 28 1 9 27
M  V30 29 1 9 28
M  V30 30 1 10 29
M  V30 31 1 12 30
M  V30 32 1 13 31
M  V30 33 1 13 32
M  V30 34 1 14 33
M  V30 35 1 15 34
M  V30 36 1 16 35
M  V30 37 1 16 36
M  V30 38 1 17 37
M  V30 39 1 19 38
M  V30 40 1 19 39
M  V30 41 1 19 40
M  V30 42 1 20 41
M  V30 43 1 20 42
M  V30 44 1 20 43
M  V30 45 1 21 44
M  V30 46 1 21 45
M  V30 47 1 21 46
M  V30 END BOND
M  V30 BEGIN COLLECTION
M  V30 MDLV30/STEABS ATOMS=(1 14)
M  V30 END COLLECTION
M  V30 END CTAB
M  END
>  <NO.>
5455

>  <Name>
levobunolol

>  <SMILES>
CC(C)(C)NC[C@H](O)COc1cccc2c1CCCC2=O

>  <logBB>


>  <Class>
1

>  <MW>
291.18

>  <nHBAcc>
4

>  <nHBDon>
2

>  <SLogP>
2.33

>  <TopoPSA>
58.56

>  <MMFF94 Energy>
75.547

$$$$
CC(C)Cn1cnc2c(N)nc3ccccc3c21
Actelion Java MolfileCreator 2.0

  0  0  0  0  0  0              0 V3000
M  V30 BEGIN CTAB
M  V30 COUNTS 34 36 0 0 0
M  V30 BEGIN ATOM
M  V30 1 N 1.6595 -3.0044 0.4739 0
M  V30 2 C 0.6949 -3.2371 -0.4397 0
M  V30 3 C 1.7136 -1.8338 1.1231 0
M  V30 4 N 0.6943 -4.4559 -1.0783 0
M  V30 5 C -0.2683 -2.2416 -0.7063 0
M  V30 6 C 0.8017 -0.7635 0.9314 0
M  V30 7 C 2.7385 -1.6669 2.0419 0
M  V30 8 N -1.3233 -2.2921 -1.5956 0
M  V30 9 C -0.2252 -1.0162 -0.0266 0
M  V30 10 C 0.9688 0.4334 1.6666 0
M  V30 11 C 2.8983 -0.4864 2.771 0
M  V30 12 C -1.925 -1.1388 -1.4688 0
M  V30 13 N -1.31 -0.334 -0.5419 0
M  V30 14 C 2.0133 0.565 2.581 0
M  V30 15 C -1.8428 0.971 -0.2012 0
M  V30 16 C -1.5035 2.073 -1.2211 0
M  V30 17 C -2.2841 3.346 -0.8867 0
M  V30 18 C -0.0088 2.3868 -1.2851 0
M  V30 19 H -0.0225 -4.642 -1.7639 0
M  V30 20 H 1.4122 -5.1178 -0.837 0
M  V30 21 H 3.4405 -2.4839 2.1954 0
M  V30 22 H 0.3115 1.2816 1.544 0
M  V30 23 H 3.7162 -0.3952 3.4808 0
M  V30 24 H -2.8076 -0.8304 -2.0151 0
M  V30 25 H 2.1361 1.4882 3.1418 0
M  V30 26 H -1.5444 1.2353 0.8126 0
M  V30 27 H -2.9336 0.8467 -0.1541 0
M  V30 28 H -1.8171 1.7415 -2.2194 0
M  V30 29 H -2.0127 3.7299 0.1025 0
M  V30 30 H -3.3623 3.1543 -0.8921 0
M  V30 31 H -2.0823 4.1316 -1.6225 0
M  V30 32 H 0.3623 2.7613 -0.3262 0
M  V30 33 H 0.5745 1.5037 -1.5614 0
M  V30 34 H 0.1893 3.1564 -2.0392 0
M  V30 END ATOM
M  V30 BEGIN BOND
M  V30 1 2 1 2
M  V30 2 1 1 3
M  V30 3 1 2 4
M  V30 4 1 2 5
M  V30 5 1 3 6
M  V30 6 2 3 7
M  V30 7 1 5 8
M  V30 8 2 5 9
M  V30 9 2 6 10
M  V30 10 1 7 11
M  V30 11 2 8 12
M  V30 12 1 9 13
M  V30 13 1 10 14
M  V30 14 1 13 15
M  V30 15 1 15 16
M  V30 16 1 16 17
M  V30 17 1 16 18
M  V30 18 1 6 9
M  V30 19 2 11 14
M  V30 20 1 12 13
M  V30 21 1 4 19
M  V30 22 1 4 20
M  V30 23 1 7 21
M  V30 24 1 10 22
M  V30 25 1 11 23
M  V30 26 1 12 24
M  V30 27 1 14 25
M  V30 28 1 15 26
M  V30 29 1 15 27
M  V30 30 1 16 28
M  V30 31 1 17 29
M  V30 32 1 17 30
M  V30 33 1 17 31
M  V30 34 1 18 32
M  V30 35 1 18 33
M  V30 36 1 18 34
M  V30 END BOND
M  V30 END CTAB
M  END
>  <NO.>
5461

>  <Name>
imiquimod

>  <SMILES>
CC(C)Cn1cnc2c(N)nc3ccccc3c21

>  <logBB>


>  <Class>
-1

>  <MW>
240.14

>  <nHBAcc>
3

>  <nHBDon>
1

>  <SLogP>
2.82

>  <TopoPSA>
56.73

>  <MMFF94 Energy>
35.295

$$$$
CC(c1cc2ccccc2s1)N(O)C(N)=O
Actelion Java MolfileCreator 2.0

  0  0  0  0  0  0              0 V3000
M  V30 BEGIN CTAB
M  V30 COUNTS 28 29 0 0 0
M  V30 BEGIN ATOM
M  V30 1 S -0.3219 -0.644 -2.0135 0
M  V30 2 C -1.3412 0.73 -1.8304 0
M  V30 3 C -0.0453 -0.7767 -0.3293 0
M  V30 4 C -1.4746 1.0888 -0.4884 0
M  V30 5 C -1.99 1.4494 -2.8532 0
M  V30 6 C -0.7234 0.2096 0.3601 0
M  V30 7 C 0.8383 -1.8793 0.2033 0 CFG=1
M  V30 8 C -2.2851 2.205 -0.1702 0
M  V30 9 C -2.7839 2.5463 -2.5096 0
M  V30 10 N 2.0808 -1.3088 0.7418 0
M  V30 11 C 0.103 -2.7788 1.1975 0
M  V30 12 C -2.9312 2.9222 -1.1816 0
M  V30 13 O 3.1443 -1.2641 -0.1923 0
M  V30 14 C 2.2366 -0.6375 1.9262 0
M  V30 15 O 1.4029 -0.5571 2.8204 0
M  V30 16 N 3.4536 -0.0466 2.0695 0
M  V30 17 H -1.8752 1.1574 -3.893 0
M  V30 18 H -0.6853 0.3084 1.4395 0
M  V30 19 H 1.1464 -2.5322 -0.6248 0
M  V30 20 H -2.4056 2.5077 0.8671 0
M  V30 21 H -3.2889 3.1092 -3.291 0
M  V30 22 H 0.7747 -3.5489 1.5918 0
M  V30 23 H -0.3033 -2.2241 2.0492 0
M  V30 24 H -0.7401 -3.2814 0.7102 0
M  V30 25 H -3.5504 3.7779 -0.9236 0
M  V30 26 H 3.6117 -2.0939 0.0185 0
M  V30 27 H 4.0513 0.0239 1.2589 0
M  V30 28 H 3.6448 0.4851 2.9048 0
M  V30 END ATOM
M  V30 BEGIN BOND
M  V30 1 1 1 2
M  V30 2 1 1 3
M  V30 3 2 2 4
M  V30 4 1 2 5
M  V30 5 2 3 6
M  V30 6 1 3 7
M  V30 7 1 4 8
M  V30 8 2 5 9
M  V30 9 1 7 10
M  V30 10 1 7 11
M  V30 11 2 8 12
M  V30 12 1 10 13
M  V30 13 1 10 14
M  V30 14 2 14 15
M  V30 15 1 14 16
M  V30 16 1 4 6
M  V30 17 1 9 12
M  V30 18 1 5 17
M  V30 19 1 6 18
M  V30 20 1 7 19
M  V30 21 1 8 20
M  V30 22 1 9 21
M  V30 23 1 11 22
M  V30 24 1 11 23
M  V30 25 1 11 24
M  V30 26 1 12 25
M  V30 27 1 13 26
M  V30 28 1 16 27
M  V30 29 1 16 28
M  V30 END BOND
M  V30 BEGIN COLLECTION
M  V30 MDLV30/STERAC1 ATOMS=(1 7)
M  V30 END COLLECTION
M  V30 END CTAB
M  END
>  <NO.>
5463

>  <Name>
zileuton

>  <SMILES>
CC(c1cc2ccccc2s1)N(O)C(N)=O

>  <logBB>


>  <Class>
-1

>  <MW>
236.06

>  <nHBAcc>
3

>  <nHBDon>
2

>  <SLogP>
2.73

>  <TopoPSA>
66.56

>  <MMFF94 Energy>
-8.181

$$$$
CCC(NC(C)C)C(O)c1ccc(O)c(O)c1
Actelion Java MolfileCreator 2.0

  0  0  0  0  0  0              0 V3000
M  V30 BEGIN CTAB
M  V30 COUNTS 38 38 0 0 0
M  V30 BEGIN ATOM
M  V30 1 O -3.5813 -3.7373 -0.6221 0
M  V30 2 C -2.3429 -3.3614 -0.1812 0
M  V30 3 C -1.7525 -4.0581 0.872 0
M  V30 4 C -1.6776 -2.2902 -0.7787 0
M  V30 5 O -2.4207 -5.1043 1.444 0
M  V30 6 C -0.4913 -3.6917 1.3333 0
M  V30 7 C -0.4068 -1.903 -0.3213 0
M  V30 8 C 0.1767 -2.6187 0.7379 0
M  V30 9 C 0.3052 -0.7237 -0.9523 0
M  V30 10 O 1.6529 -1.1317 -1.2425 0
M  V30 11 C 0.3305 0.5545 -0.0426 0
M  V30 12 N 1.3452 1.5035 -0.5776 0
M  V30 13 C -1.0793 1.165 0.1345 0
M  V30 14 C 1.4997 2.7653 0.162 0
M  V30 15 C -1.7027 1.7311 -1.1354 0
M  V30 16 C 1.9959 2.5632 1.5951 0
M  V30 17 C 2.5014 3.6284 -0.6114 0
M  V30 18 H -3.8224 -3.1971 -1.3894 0
M  V30 19 H -2.142 -1.7489 -1.5979 0
M  V30 20 H -1.8598 -5.4975 2.1295 0
M  V30 21 H -0.0123 -4.2266 2.1471 0
M  V30 22 H 1.1681 -2.3445 1.0947 0
M  V30 23 H -0.1512 -0.4969 -1.9229 0
M  V30 24 H 1.9729 -0.4773 -1.8889 0
M  V30 25 H 0.6815 0.2384 0.948 0
M  V30 26 H 2.2448 1.0159 -0.5463 0
M  V30 27 H -1.7575 0.4092 0.5481 0
M  V30 28 H -1.0462 1.958 0.8911 0
M  V30 29 H 0.5546 3.3179 0.1803 0
M  V30 30 H -2.6705 2.1872 -0.9013 0
M  V30 31 H -1.0729 2.503 -1.587 0
M  V30 32 H -1.8814 0.951 -1.8802 0
M  V30 33 H 2.9255 1.9837 1.6197 0
M  V30 34 H 1.2538 2.0437 2.2092 0
M  V30 35 H 2.1926 3.5287 2.0744 0
M  V30 36 H 2.1556 3.8081 -1.6358 0
M  V30 37 H 3.4881 3.1542 -0.6642 0
M  V30 38 H 2.6236 4.6045 -0.1291 0
M  V30 END ATOM
M  V30 BEGIN BOND
M  V30 1 1 1 2
M  V30 2 2 2 3
M  V30 3 1 2 4
M  V30 4 1 3 5
M  V30 5 1 3 6
M  V30 6 2 4 7
M  V30 7 2 6 8
M  V30 8 1 7 9
M  V30 9 1 9 10
M  V30 10 1 9 11
M  V30 11 1 11 12
M  V30 12 1 11 13
M  V30 13 1 12 14
M  V30 14 1 13 15
M  V30 15 1 14 16
M  V30 16 1 14 17
M  V30 17 1 7 8
M  V30 18 1 1 18
M  V30 19 1 4 19
M  V30 20 1 5 20
M  V30 21 1 6 21
M  V30 22 1 8 22
M  V30 23 1 9 23
M  V30 24 1 10 24
M  V30 25 1 11 25
M  V30 26 1 12 26
M  V30 27 1 13 27
M  V30 28 1 13 28
M  V30 29 1 14 29
M  V30 30 1 15 30
M  V30 31 1 15 31
M  V30 32 1 15 32
M  V30 33 1 16 33
M  V30 34 1 16 34
M  V30 35 1 16 35
M  V30 36 1 17 36
M  V30 37 1 17 37
M  V30 38 1 17 38
M  V30 END BOND
M  V30 END CTAB
M  END
>  <NO.>
5467

>  <Name>
isoetharine

>  <SMILES>
CCC(NC(C)C)C(O)c1ccc(O)c(O)c1

>  <logBB>


>  <Class>
-1

>  <MW>
239.15

>  <nHBAcc>
4

>  <nHBDon>
4

>  <SLogP>
1.91

>  <TopoPSA>
72.72

>  <MMFF94 Energy>
47.444

$$$$
CCC1=C[C@@H]2CN(C1)Cc1c([nH]c3ccccc13)[C@@](C(=O)OC)(c1cc3c(cc1OC)N(C)[C@H]1[C@@](O)(C(=O)OC)[C@H](OC(C)=O)[C@]4(CC)C=CCN5CC[C@]31[C@@H]54)C2
Actelion Java MolfileCreator 2.0

  0  0  0  0  0  0              0 V3000
M  V30 BEGIN CTAB
M  V30 COUNTS 111 119 0 0 0
M  V30 BEGIN ATOM
M  V30 1 O -2.582 4.6837 1.0483 0
M  V30 2 C -2.249 3.5932 0.5933 0
M  V30 3 O -3.1071 2.7672 -0.0937 0
M  V30 4 C -0.7976 2.9873 0.6478 0 CFG=1
M  V30 5 C -4.443 3.2621 -0.1752 0
M  V30 6 C -0.8511 1.4764 1.0461 0
M  V30 7 C -0.2345 3.248 -0.7766 0
M  V30 8 C -0.0226 3.7816 1.7438 0
M  V30 9 C -1.6247 1.0288 2.1526 0
M  V30 10 C -0.1316 0.5071 0.3218 0
M  V30 11 N -0.8451 2.6576 -1.8696 0
M  V30 12 C 0.8311 4.005 -1.2779 0
M  V30 13 C 1.4208 3.356 2.105 0 CFG=2
M  V30 14 O -2.3029 2.001 2.8435 0
M  V30 15 C -1.6747 -0.3349 2.4942 0
M  V30 16 C -0.1975 -0.836 0.6817 0
M  V30 17 C -0.1793 2.9404 -3.0316 0
M  V30 18 C 0.876 3.7826 -2.6997 0
M  V30 19 C 1.7784 4.9023 -0.5255 0
M  V30 20 C 2.0456 4.4746 2.9219 0
M  V30 21 C 2.3734 3.0002 0.9458 0
M  V30 22 C -3.1854 1.5982 3.8827 0
M  V30 23 C -0.9586 -1.265 1.7568 0
M  V30 24 C 0.4156 -2.0265 -0.0321 0 CFG=1
M  V30 25 C -0.4345 2.5127 -4.34 0
M  V30 26 C 1.7245 4.225 -3.7376 0
M  V30 27 N 2.8371 4.1512 0.162 0
M  V30 28 C 3.0473 5.2401 2.4413 0
M  V30 29 N -0.8959 -2.6524 1.9339 0
M  V30 30 C 0.2266 -3.1246 1.0635 0 CFG=1
M  V30 31 C -0.3176 -2.2098 -1.4032 0 CFG=1
M  V30 32 C 1.9035 -1.808 -0.3622 0
M  V30 33 C 0.4205 2.9654 -5.3478 0
M  V30 34 C 1.4866 3.8103 -5.0535 0
M  V30 35 C 3.6151 5.0435 1.0424 0
M  V30 36 C 3.6536 6.3516 3.2643 0
M  V30 37 C -1.1459 -3.1866 3.2616 0
M  V30 38 C 0.0395 -4.517 0.4325 0 CFG=1
M  V30 39 N 0.7261 -1.7843 -2.3788 0
M  V30 40 C -1.1262 -3.5523 -1.6934 0 CFG=2
M  V30 41 C 2.0272 -2.1495 -1.8296 0
M  V30 42 C 5.0828 6.0523 3.6937 0
M  V30 43 O 1.1787 -4.8488 -0.3936 0
M  V30 44 C 0.0143 -5.5957 1.5308 0
M  V30 45 C -1.2296 -4.4993 -0.4298 0 CFG=1
M  V30 46 C 0.5652 -2.2496 -3.7455 0
M  V30 47 C -0.5594 -4.2953 -2.9116 0
M  V30 48 C -2.621 -3.1989 -2.0659 0
M  V30 49 O -0.9117 -6.362 1.7669 0
M  V30 50 O 1.2034 -5.62 2.2096 0
M  V30 51 O -1.4998 -5.8652 -0.873 0
M  V30 52 C 0.1922 -3.6905 -3.8412 0
M  V30 53 C -2.8713 -2.3142 -3.2858 0
M  V30 54 C 1.2852 -6.6227 3.2232 0
M  V30 55 C -2.7441 -6.3681 -0.631 0
M  V30 56 O -3.6856 -5.7521 -0.1543 0
M  V30 57 C -2.8027 -7.8011 -1.0628 0
M  V30 58 H -5.045 2.5233 -0.7114 0
M  V30 59 H -4.8671 3.3921 0.8255 0
M  V30 60 H -4.4696 4.202 -0.7352 0
M  V30 61 H -0.5925 3.7429 2.684 0
M  V30 62 H -0.0562 4.8506 1.5006 0
M  V30 63 H 0.4722 0.7719 -0.5428 0
M  V30 64 H -1.6565 2.055 -1.811 0
M  V30 65 H 1.3619 2.4705 2.7519 0
M  V30 66 H -2.2753 -0.6775 3.326 0
M  V30 67 H 2.2603 5.5782 -1.2439 0
M  V30 68 H 1.2195 5.5682 0.1372 0
M  V30 69 H 1.6448 4.6423 3.9184 0
M  V30 70 H 1.9674 2.2266 0.295 0
M  V30 71 H 3.262 2.5089 1.3721 0
M  V30 72 H -3.9705 0.9368 3.5018 0
M  V30 73 H -3.6705 2.4974 4.2746 0
M  V30 74 H -2.6355 1.1319 4.7065 0
M  V30 75 H -1.263 1.8503 -4.568 0
M  V30 76 H 2.5667 4.8751 -3.5206 0
M  V30 77 H 1.1241 -3.1327 1.7002 0
M  V30 78 H -1.0659 -1.4111 -1.475 0
M  V30 79 H 2.2222 -0.7722 -0.1963 0
M  V30 80 H 2.5775 -2.4386 0.2275 0
M  V30 81 H 0.2514 2.6504 -6.3745 0
M  V30 82 H 2.1447 4.1495 -5.8491 0
M  V30 83 H 4.6192 4.6122 1.1444 0
M  V30 84 H 3.7588 6.0174 0.557 0
M  V30 85 H 3.0515 6.5334 4.1634 0
M  V30 86 H 3.6286 7.2844 2.6883 0
M  V30 87 H -0.3726 -2.8598 3.9654 0
M  V30 88 H -1.1668 -4.2755 3.2667 0
M  V30 89 H -2.1247 -2.8731 3.6399 0
M  V30 90 H 2.2538 -3.213 -1.9585 0
M  V30 91 H 2.8372 -1.5769 -2.2942 0
M  V30 92 H 5.4609 6.8595 4.3295 0
M  V30 93 H 5.7517 5.9674 2.8314 0
M  V30 94 H 5.1376 5.1188 4.2637 0
M  V30 95 H 0.9306 -5.6407 -0.9083 0
M  V30 96 H -2.0562 -4.1625 0.2076 0
M  V30 97 H 1.4893 -2.076 -4.3114 0
M  V30 98 H -0.1977 -1.6488 -4.2533 0
M  V30 99 H -0.8517 -5.3271 -3.0861 0
M  V30 100 H -3.0886 -2.7054 -1.2028 0
M  V30 101 H -3.1859 -4.1249 -2.2302 0
M  V30 102 H 0.5076 -4.233 -4.7273 0
M  V30 103 H -3.947 -2.133 -3.3888 0
M  V30 104 H -2.3886 -1.3379 -3.199 0
M  V30 105 H -2.5385 -2.7929 -4.2106 0
M  V30 106 H 2.2708 -6.5514 3.6912 0
M  V30 107 H 0.5239 -6.4533 3.9911 0
M  V30 108 H 1.1806 -7.62 2.7848 0
M  V30 109 H -2.6505 -7.8682 -2.1428 0
M  V30 110 H -2.0444 -8.3802 -0.5299 0
M  V30 111 H -3.7864 -8.2129 -0.8198 0
M  V30 END ATOM
M  V30 BEGIN BOND
M  V30 1 2 1 2
M  V30 2 1 2 3
M  V30 3 1 2 4
M  V30 4 1 3 5
M  V30 5 1 4 6
M  V30 6 1 4 7
M  V30 7 1 4 8
M  V30 8 2 6 9
M  V30 9 1 6 10
M  V30 10 1 7 11
M  V30 11 2 7 12
M  V30 12 1 8 13
M  V30 13 1 9 14
M  V30 14 1 9 15
M  V30 15 2 10 16
M  V30 16 1 11 17
M  V30 17 1 12 18
M  V30 18 1 12 19
M  V30 19 1 13 20
M  V30 20 1 13 21
M  V30 21 1 14 22
M  V30 22 2 15 23
M  V30 23 1 16 24
M  V30 24 1 17 25
M  V30 25 1 18 26
M  V30 26 1 19 27
M  V30 27 2 20 28
M  V30 28 1 23 29
M  V30 29 1 24 30
M  V30 30 1 24 31
M  V30 31 1 24 32
M  V30 32 2 25 33
M  V30 33 2 26 34
M  V30 34 1 27 35
M  V30 35 1 28 36
M  V30 36 1 29 37
M  V30 37 1 30 38
M  V30 38 1 31 39
M  V30 39 1 31 40
M  V30 40 1 32 41
M  V30 41 1 36 42
M  V30 42 1 38 43
M  V30 43 1 38 44
M  V30 44 1 38 45
M  V30 45 1 39 46
M  V30 46 1 40 47
M  V30 47 1 40 48
M  V30 48 2 44 49
M  V30 49 1 44 50
M  V30 50 1 45 51
M  V30 51 1 46 52
M  V30 52 1 48 53
M  V30 53 1 50 54
M  V30 54 1 51 55
M  V30 55 2 55 56
M  V30 56 1 55 57
M  V30 57 1 16 23
M  V30 58 2 17 18
M  V30 59 1 21 27
M  V30 60 1 28 35
M  V30 61 1 29 30
M  V30 62 1 33 34
M  V30 63 1 39 41
M  V30 64 1 40 45
M  V30 65 2 47 52
M  V30 66 1 5 58
M  V30 67 1 5 59
M  V30 68 1 5 60
M  V30 69 1 8 61
M  V30 70 1 8 62
M  V30 71 1 10 63
M  V30 72 1 11 64
M  V30 73 1 13 65
M  V30 74 1 15 66
M  V30 75 1 19 67
M  V30 76 1 19 68
M  V30 77 1 20 69
M  V30 78 1 21 70
M  V30 79 1 21 71
M  V30 80 1 22 72
M  V30 81 1 22 73
M  V30 82 1 22 74
M  V30 83 1 25 75
M  V30 84 1 26 76
M  V30 85 1 30 77
M  V30 86 1 31 78
M  V30 87 1 32 79
M  V30 88 1 32 80
M  V30 89 1 33 81
M  V30 90 1 34 82
M  V30 91 1 35 83
M  V30 92 1 35 84
M  V30 93 1 36 85
M  V30 94 1 36 86
M  V30 95 1 37 87
M  V30 96 1 37 88
M  V30 97 1 37 89
M  V30 98 1 41 90
M  V30 99 1 41 91
M  V30 100 1 42 92
M  V30 101 1 42 93
M  V30 102 1 42 94
M  V30 103 1 43 95
M  V30 104 1 45 96
M  V30 105 1 46 97
M  V30 106 1 46 98
M  V30 107 1 47 99
M  V30 108 1 48 100
M  V30 109 1 48 101
M  V30 110 1 52 102
M  V30 111 1 53 103
M  V30 112 1 53 104
M  V30 113 1 53 105
M  V30 114 1 54 106
M  V30 115 1 54 107
M  V30 116 1 54 108
M  V30 117 1 57 109
M  V30 118 1 57 110
M  V30 119 1 57 111
M  V30 END BOND
M  V30 BEGIN COLLECTION
M  V30 MDLV30/STEABS ATOMS=(8 4 13 24 30 31 38 40 45)
M  V30 END COLLECTION
M  V30 END CTAB
M  END
>  <NO.>
5468

>  <Name>
vinorelbine

>  <SMILES>
CCC1=C[C@@H]2CN(C1)Cc1c([nH]c3ccccc13)[C@@](C(=O)OC)(c1cc3c(cc1OC)N(C)[C@H]1[C@@](O)(C(=O)OC)[C@H](OC(C)=O)[C@]4(CC)C=CCN5CC[C@]31[C@@H]54)C2

>  <logBB>


>  <Class>
-1

>  <MW>
778.39

>  <nHBAcc>
11

>  <nHBDon>
2

>  <SLogP>
4.75

>  <TopoPSA>
133.87

>  <MMFF94 Energy>
256.04

$$$$
CCCCCCCN(CC)CCCC(O)c1ccc(NS(C)(=O)=O)cc1
Actelion Java MolfileCreator 2.0

  0  0  0  0  0  0              0 V3000
M  V30 BEGIN CTAB
M  V30 COUNTS 62 62 0 0 0
M  V30 BEGIN ATOM
M  V30 1 S 0.9448 -3.31 -7.7365 0
M  V30 2 O 1.7616 -2.6358 -8.7238 0
M  V30 3 O 1.4558 -4.4186 -6.9631 0
M  V30 4 N 0.372 -2.0826 -6.7169 0
M  V30 5 C -0.5605 -3.8118 -8.5399 0
M  V30 6 C 0.2695 -2.3934 -5.3288 0
M  V30 7 C 1.3209 -2.0788 -4.4706 0
M  V30 8 C -0.8482 -3.0717 -4.8488 0
M  V30 9 C 1.2426 -2.4261 -3.12 0
M  V30 10 C -0.9262 -3.4174 -3.4971 0
M  V30 11 C 0.1206 -3.1041 -2.6162 0
M  V30 12 C 0.0154 -3.4883 -1.1531 0 CFG=1
M  V30 13 O 1.2909 -3.8259 -0.6133 0
M  V30 14 C -0.6574 -2.4235 -0.2753 0
M  V30 15 C 0.1312 -1.1124 -0.1472 0
M  V30 16 C -0.5597 -0.149 0.8299 0
M  V30 17 N 0.1907 1.1066 1.0248 0
M  V30 18 C -0.3486 1.8446 2.1835 0
M  V30 19 C 0.2093 1.9339 -0.1945 0
M  V30 20 C 0.6172 2.9323 2.6796 0
M  V30 21 C 1.6318 2.0284 -0.7303 0
M  V30 22 C 0.0643 3.7402 3.8596 0
M  V30 23 C -0.1008 2.9198 5.1409 0
M  V30 24 C -0.5312 3.8048 6.3133 0
M  V30 25 C -0.7018 2.9874 7.5936 0
M  V30 26 C -1.1288 3.8632 8.7609 0
M  V30 27 H 0.8892 -1.2256 -6.9246 0
M  V30 28 H -1.2331 -4.2497 -7.8012 0
M  V30 29 H -1.0144 -2.9429 -9.0202 0
M  V30 30 H -0.3047 -4.5593 -9.2941 0
M  V30 31 H 2.2097 -1.5746 -4.8389 0
M  V30 32 H -1.6679 -3.3265 -5.513 0
M  V30 33 H 2.0664 -2.1629 -2.4578 0
M  V30 34 H -1.81 -3.9401 -3.1365 0
M  V30 35 H -0.5821 -4.4062 -1.0863 0
M  V30 36 H 1.747 -4.366 -1.282 0
M  V30 37 H -1.6622 -2.2066 -0.6591 0
M  V30 38 H -0.7798 -2.8439 0.7314 0
M  V30 39 H 1.1482 -1.3201 0.2063 0
M  V30 40 H 0.2144 -0.6477 -1.1341 0
M  V30 41 H -1.5849 0.0614 0.4979 0
M  V30 42 H -0.6398 -0.6726 1.7915 0
M  V30 43 H -0.5003 1.1411 3.0103 0
M  V30 44 H -1.3302 2.2759 1.9483 0
M  V30 45 H -0.4479 1.5341 -0.9765 0
M  V30 46 H -0.1613 2.9499 -0.0108 0
M  V30 47 H 0.8378 3.6413 1.8736 0
M  V30 48 H 1.573 2.4752 2.9652 0
M  V30 49 H 1.6516 2.6459 -1.6342 0
M  V30 50 H 2.0318 1.0431 -0.9896 0
M  V30 51 H 2.3027 2.4873 0.0036 0
M  V30 52 H -0.8966 4.1886 3.5796 0
M  V30 53 H 0.7544 4.5706 4.0552 0
M  V30 54 H 0.8459 2.4231 5.3847 0
M  V30 55 H -0.8515 2.136 4.992 0
M  V30 56 H -1.476 4.3053 6.068 0
M  V30 57 H 0.2174 4.5896 6.4762 0
M  V30 58 H -1.4528 2.2041 7.4384 0
M  V30 59 H 0.241 2.488 7.845 0
M  V30 60 H -1.2449 3.2585 9.6659 0
M  V30 61 H -0.3828 4.6382 8.9636 0
M  V30 62 H -2.0859 4.3529 8.5545 0
M  V30 END ATOM
M  V30 BEGIN BOND
M  V30 1 2 1 2
M  V30 2 2 1 3
M  V30 3 1 1 4
M  V30 4 1 1 5
M  V30 5 1 4 6
M  V30 6 2 6 7
M  V30 7 1 6 8
M  V30 8 1 7 9
M  V30 9 2 8 10
M  V30 10 2 9 11
M  V30 11 1 11 12
M  V30 12 1 12 13
M  V30 13 1 12 14
M  V30 14 1 14 15
M  V30 15 1 15 16
M  V30 16 1 16 17
M  V30 17 1 17 18
M  V30 18 1 17 19
M  V30 19 1 18 20
M  V30 20 1 19 21
M  V30 21 1 20 22
M  V30 22 1 22 23
M  V30 23 1 23 24
M  V30 24 1 24 25
M  V30 25 1 25 26
M  V30 26 1 10 11
M  V30 27 1 4 27
M  V30 28 1 5 28
M  V30 29 1 5 29
M  V30 30 1 5 30
M  V30 31 1 7 31
M  V30 32 1 8 32
M  V30 33 1 9 33
M  V30 34 1 10 34
M  V30 35 1 12 35
M  V30 36 1 13 36
M  V30 37 1 14 37
M  V30 38 1 14 38
M  V30 39 1 15 39
M  V30 40 1 15 40
M  V30 41 1 16 41
M  V30 42 1 16 42
M  V30 43 1 18 43
M  V30 44 1 18 44
M  V30 45 1 19 45
M  V30 46 1 19 46
M  V30 47 1 20 47
M  V30 48 1 20 48
M  V30 49 1 21 49
M  V30 50 1 21 50
M  V30 51 1 21 51
M  V30 52 1 22 52
M  V30 53 1 22 53
M  V30 54 1 23 54
M  V30 55 1 23 55
M  V30 56 1 24 56
M  V30 57 1 24 57
M  V30 58 1 25 58
M  V30 59 1 25 59
M  V30 60 1 26 60
M  V30 61 1 26 61
M  V30 62 1 26 62
M  V30 END BOND
M  V30 BEGIN COLLECTION
M  V30 MDLV30/STERAC1 ATOMS=(1 12)
M  V30 END COLLECTION
M  V30 END CTAB
M  END
>  <NO.>
5469

>  <Name>
ibutilide

>  <SMILES>
CCCCCCCN(CC)CCCC(O)c1ccc(NS(C)(=O)=O)cc1

>  <logBB>


>  <Class>
-1

>  <MW>
384.24

>  <nHBAcc>
4

>  <nHBDon>
2

>  <SLogP>
4.16

>  <TopoPSA>
69.64

>  <MMFF94 Energy>
-26.823

$$$$
CCCCC[C@H](O)/C=C/[C@H]1[C@H](O)CC(=O)[C@@H]1C/C=C\CCCC(=O)O
Actelion Java MolfileCreator 2.0

  0  0  0  0  0  0              0 V3000
M  V30 BEGIN CTAB
M  V30 COUNTS 57 57 0 0 0
M  V30 BEGIN ATOM
M  V30 1 O 0.0782 -5.2555 0.1565 0
M  V30 2 C 0.4511 -4.1017 -0.0212 0
M  V30 3 C -0.0053 -2.922 0.8115 0 CFG=1
M  V30 4 C 1.4346 -3.7176 -1.0896 0
M  V30 5 C 0.4689 -1.7451 -0.0617 0 CFG=2
M  V30 6 C -1.5143 -2.9733 1.0578 0
M  V30 7 C 1.7521 -2.2745 -0.729 0 CFG=2
M  V30 8 C 0.7336 -0.4891 0.7333 0
M  V30 9 C -2.0001 -1.9044 1.9973 0
M  V30 10 O 2.0426 -1.5291 -1.9044 0
M  V30 11 C 0.2745 0.725 0.3831 0
M  V30 12 C -2.8097 -0.8712 1.7137 0
M  V30 13 C 0.4944 2.0152 1.1273 0 CFG=1
M  V30 14 C -3.3811 -0.4996 0.3754 0
M  V30 15 O 0.9683 1.7659 2.4459 0
M  V30 16 C 1.4579 2.9681 0.4086 0
M  V30 17 C -4.8868 -0.756 0.326 0
M  V30 18 C 2.8849 2.4226 0.2621 0
M  V30 19 C -5.4679 -0.3707 -1.0327 0
M  V30 20 C 3.8004 3.445 -0.4153 0
M  V30 21 C -6.9521 -0.6084 -1.0901 0
M  V30 22 C 5.221 2.9023 -0.5689 0
M  V30 23 O -7.6815 -0.9831 -0.1891 0
M  V30 24 O -7.4538 -0.3436 -2.3127 0
M  V30 25 C 6.1341 3.9143 -1.2419 0
M  V30 26 H 0.5499 -2.9624 1.7579 0
M  V30 27 H 2.3278 -4.3453 -1.0421 0
M  V30 28 H 0.9657 -3.8069 -2.0739 0
M  V30 29 H -0.2737 -1.533 -0.8446 0
M  V30 30 H -2.0532 -2.9548 0.1042 0
M  V30 31 H -1.7747 -3.9396 1.5099 0
M  V30 32 H 2.6108 -2.2174 -0.048 0
M  V30 33 H 1.3544 -0.5881 1.6221 0
M  V30 34 H -1.674 -2.0182 3.0314 0
M  V30 35 H 2.9168 -1.8102 -2.2265 0
M  V30 36 H -0.3103 0.8204 -0.5302 0
M  V30 37 H -3.0851 -0.2069 2.5331 0
M  V30 38 H -0.4753 2.5166 1.2307 0
M  V30 39 H -2.884 -1.0356 -0.4389 0
M  V30 40 H -3.1816 0.5653 0.2036 0
M  V30 41 H 0.3101 1.1855 2.8649 0
M  V30 42 H 1.0579 3.2175 -0.5821 0
M  V30 43 H 1.5077 3.9034 0.9812 0
M  V30 44 H -5.3899 -0.1855 1.1178 0
M  V30 45 H -5.0926 -1.8156 0.5261 0
M  V30 46 H 2.8756 1.5018 -0.332 0
M  V30 47 H 3.2908 2.169 1.2485 0
M  V30 48 H -5.2847 0.6911 -1.2305 0
M  V30 49 H -4.9941 -0.9679 -1.8195 0
M  V30 50 H 3.8219 4.3684 0.1761 0
M  V30 51 H 3.3967 3.7024 -1.4021 0
M  V30 52 H 5.6306 2.647 0.4152 0
M  V30 53 H 5.2055 1.9811 -1.1628 0
M  V30 54 H -8.4115 -0.5326 -2.2216 0
M  V30 55 H 7.1445 3.5057 -1.3416 0
M  V30 56 H 5.7695 4.167 -2.2426 0
M  V30 57 H 6.197 4.8368 -0.6558 0
M  V30 END ATOM
M  V30 BEGIN BOND
M  V30 1 2 1 2
M  V30 2 1 2 3
M  V30 3 1 2 4
M  V30 4 1 3 5
M  V30 5 1 3 6
M  V30 6 1 4 7
M  V30 7 1 5 8
M  V30 8 1 6 9
M  V30 9 1 7 10
M  V30 10 2 8 11
M  V30 11 2 9 12
M  V30 12 1 11 13
M  V30 13 1 12 14
M  V30 14 1 13 15
M  V30 15 1 13 16
M  V30 16 1 14 17
M  V30 17 1 16 18
M  V30 18 1 17 19
M  V30 19 1 18 20
M  V30 20 1 19 21
M  V30 21 1 20 22
M  V30 22 2 21 23
M  V30 23 1 21 24
M  V30 24 1 22 25
M  V30 25 1 5 7
M  V30 26 1 3 26
M  V30 27 1 4 27
M  V30 28 1 4 28
M  V30 29 1 5 29
M  V30 30 1 6 30
M  V30 31 1 6 31
M  V30 32 1 7 32
M  V30 33 1 8 33
M  V30 34 1 9 34
M  V30 35 1 10 35
M  V30 36 1 11 36
M  V30 37 1 12 37
M  V30 38 1 13 38
M  V30 39 1 14 39
M  V30 40 1 14 40
M  V30 41 1 15 41
M  V30 42 1 16 42
M  V30 43 1 16 43
M  V30 44 1 17 44
M  V30 45 1 17 45
M  V30 46 1 18 46
M  V30 47 1 18 47
M  V30 48 1 19 48
M  V30 49 1 19 49
M  V30 50 1 20 50
M  V30 51 1 20 51
M  V30 52 1 22 52
M  V30 53 1 22 53
M  V30 54 1 24 54
M  V30 55 1 25 55
M  V30 56 1 25 56
M  V30 57 1 25 57
M  V30 END BOND
M  V30 BEGIN COLLECTION
M  V30 MDLV30/STEABS ATOMS=(4 3 5 7 13)
M  V30 END COLLECTION
M  V30 END CTAB
M  END
>  <NO.>
5470

>  <Name>
dinoprostone

>  <SMILES>
CCCCC[C@H](O)/C=C/[C@H]1[C@H](O)CC(=O)[C@@H]1C/C=C\CCCC(=O)O

>  <logBB>


>  <Class>
-1

>  <MW>
352.22

>  <nHBAcc>
4

>  <nHBDon>
3

>  <SLogP>
3.25

>  <TopoPSA>
94.83

>  <MMFF94 Energy>
-3.9644

$$$$
CCCCC[C@H](O)/C=C/[C@H]1[C@H](O)C[C@@H]2O/C(=C\CCCC(=O)O)C[C@@H]21
Actelion Java MolfileCreator 2.0

  0  0  0  0  0  0              0 V3000
M  V30 BEGIN CTAB
M  V30 COUNTS 57 58 0 0 0
M  V30 BEGIN ATOM
M  V30 1 O -6.3889 -3.151 3.6244 0
M  V30 2 C -6.477 -3.2864 2.4166 0
M  V30 3 O -7.6771 -3.4876 1.8371 0
M  V30 4 C -5.3597 -3.2904 1.4083 0
M  V30 5 C -4.0366 -2.7917 1.9878 0
M  V30 6 C -4.045 -1.2814 2.243 0
M  V30 7 C -2.7209 -0.8197 2.7813 0
M  V30 8 C -1.8654 -0.015 2.1369 0
M  V30 9 O -2.1161 0.4477 0.8545 0
M  V30 10 C -0.5409 0.4255 2.6721 0
M  V30 11 C -0.9294 1.1316 0.4425 0 CFG=2
M  V30 12 C 0.1946 0.7341 1.3836 0 CFG=1
M  V30 13 C -1.0851 2.6497 0.5597 0
M  V30 14 C 1.1262 1.9473 1.419 0 CFG=2
M  V30 15 C 0.1866 3.1589 1.2466 0 CFG=2
M  V30 16 C 2.1363 1.8804 0.2906 0
M  V30 17 O -0.1337 3.6958 2.5289 0
M  V30 18 C 3.4651 1.8382 0.4889 0
M  V30 19 C 4.5525 1.7682 -0.5533 0 CFG=1
M  V30 20 O 5.4679 0.7458 -0.1679 0
M  V30 21 C 4.1391 1.5244 -2.014 0
M  V30 22 C 3.6039 0.1128 -2.2956 0
M  V30 23 C 3.1577 -0.026 -3.7532 0
M  V30 24 C 2.6271 -1.4304 -4.0404 0
M  V30 25 C 2.1811 -1.5722 -5.4869 0
M  V30 26 H -8.3073 -3.4767 2.5878 0
M  V30 27 H -5.6491 -2.6713 0.552 0
M  V30 28 H -5.2348 -4.3234 1.065 0
M  V30 29 H -3.2364 -3.0305 1.2755 0
M  V30 30 H -3.8051 -3.3288 2.9164 0
M  V30 31 H -4.3014 -0.7539 1.3168 0
M  V30 32 H -4.819 -1.0201 2.9736 0
M  V30 33 H -2.4642 -1.1691 3.7792 0
M  V30 34 H -0.0308 -0.3562 3.2435 0
M  V30 35 H -0.6679 1.3009 3.3155 0
M  V30 36 H -0.7049 0.8505 -0.5928 0
M  V30 37 H 0.6991 -0.1753 1.031 0
M  V30 38 H -1.9952 2.9327 1.1002 0
M  V30 39 H -1.159 3.0761 -0.4474 0
M  V30 40 H 1.6487 1.9905 2.383 0
M  V30 41 H 0.6517 3.9683 0.6729 0
M  V30 42 H 1.7374 1.8617 -0.7208 0
M  V30 43 H -0.7616 4.4271 2.3938 0
M  V30 44 H 3.8237 1.8783 1.5167 0
M  V30 45 H 5.1012 2.7173 -0.5156 0
M  V30 46 H 5.7719 0.9459 0.7323 0
M  V30 47 H 3.4098 2.2802 -2.3297 0
M  V30 48 H 5.0275 1.6683 -2.6437 0
M  V30 49 H 2.7601 -0.1188 -1.6375 0
M  V30 50 H 4.385 -0.6275 -2.0858 0
M  V30 51 H 4.002 0.1914 -4.4186 0
M  V30 52 H 2.3762 0.7125 -3.9697 0
M  V30 53 H 3.4052 -2.173 -3.8294 0
M  V30 54 H 1.7803 -1.6509 -3.3799 0
M  V30 55 H 1.8054 -2.5837 -5.6702 0
M  V30 56 H 1.3796 -0.8644 -5.7215 0
M  V30 57 H 3.0135 -1.3892 -6.1737 0
M  V30 END ATOM
M  V30 BEGIN BOND
M  V30 1 2 1 2
M  V30 2 1 2 3
M  V30 3 1 2 4
M  V30 4 1 4 5
M  V30 5 1 5 6
M  V30 6 1 6 7
M  V30 7 2 7 8
M  V30 8 1 8 9
M  V30 9 1 8 10
M  V30 10 1 9 11
M  V30 11 1 10 12
M  V30 12 1 11 13
M  V30 13 1 12 14
M  V30 14 1 13 15
M  V30 15 1 14 16
M  V30 16 1 15 17
M  V30 17 2 16 18
M  V30 18 1 18 19
M  V30 19 1 19 20
M  V30 20 1 19 21
M  V30 21 1 21 22
M  V30 22 1 22 23
M  V30 23 1 23 24
M  V30 24 1 24 25
M  V30 25 1 11 12
M  V30 26 1 14 15
M  V30 27 1 3 26
M  V30 28 1 4 27
M  V30 29 1 4 28
M  V30 30 1 5 29
M  V30 31 1 5 30
M  V30 32 1 6 31
M  V30 33 1 6 32
M  V30 34 1 7 33
M  V30 35 1 10 34
M  V30 36 1 10 35
M  V30 37 1 11 36
M  V30 38 1 12 37
M  V30 39 1 13 38
M  V30 40 1 13 39
M  V30 41 1 14 40
M  V30 42 1 15 41
M  V30 43 1 16 42
M  V30 44 1 17 43
M  V30 45 1 18 44
M  V30 46 1 19 45
M  V30 47 1 20 46
M  V30 48 1 21 47
M  V30 49 1 21 48
M  V30 50 1 22 49
M  V30 51 1 22 50
M  V30 52 1 23 51
M  V30 53 1 23 52
M  V30 54 1 24 53
M  V30 55 1 24 54
M  V30 56 1 25 55
M  V30 57 1 25 56
M  V30 58 1 25 57
M  V30 END BOND
M  V30 BEGIN COLLECTION
M  V30 MDLV30/STEABS ATOMS=(5 11 12 14 15 19)
M  V30 END COLLECTION
M  V30 END CTAB
M  END
>  <NO.>
5471

>  <Name>
epoprostenol

>  <SMILES>
CCCCC[C@H](O)/C=C/[C@H]1[C@H](O)C[C@@H]2O/C(=C\CCCC(=O)O)C[C@@H]21

>  <logBB>


>  <Class>
-1

>  <MW>
352.22

>  <nHBAcc>
4

>  <nHBDon>
3

>  <SLogP>
3.41

>  <TopoPSA>
86.99

>  <MMFF94 Energy>
2.5924

$$$$
CCCCN1CCCCC1C(=O)Nc1c(C)cccc1C
Actelion Java MolfileCreator 2.0

  0  0  0  0  0  0              0 V3000
M  V30 BEGIN CTAB
M  V30 COUNTS 49 50 0 0 0
M  V30 BEGIN ATOM
M  V30 1 O -1.882 -0.627 0.7054 0
M  V30 2 C -0.6715 -0.6921 0.5051 0
M  V30 3 N -0.0931 -1.2416 -0.633 0
M  V30 4 C 0.3863 -0.209 1.5281 0 CFG=1
M  V30 5 C -0.8383 -1.8158 -1.6808 0
M  V30 6 N 0.0499 1.1145 2.1056 0
M  V30 7 C 0.4687 -1.2835 2.6256 0
M  V30 8 C -0.6602 -3.1884 -1.951 0
M  V30 9 C -1.6867 -1.0318 -2.4863 0
M  V30 10 C 1.0178 1.5231 3.1305 0
M  V30 11 C -0.1882 2.1766 1.1154 0
M  V30 12 C 1.4397 -0.8858 3.7299 0
M  V30 13 C -1.3686 -3.7731 -3.0104 0
M  V30 14 C 0.2489 -4.0483 -1.1166 0
M  V30 15 C -2.3966 -1.6526 -3.5259 0
M  V30 16 C -1.8867 0.4419 -2.2661 0
M  V30 17 C 1.0963 0.4988 4.2626 0
M  V30 18 C 0.9709 2.4927 0.1588 0
M  V30 19 C -2.2366 -3.0112 -3.7882 0
M  V30 20 C 0.6014 3.6368 -0.7887 0
M  V30 21 C 1.7311 3.9431 -1.7589 0
M  V30 22 H 0.9039 -1.4048 -0.6475 0
M  V30 23 H 1.3647 -0.149 1.0341 0
M  V30 24 H 0.782 -2.241 2.1914 0
M  V30 25 H -0.5248 -1.4539 3.0619 0
M  V30 26 H 2.017 1.6575 2.6987 0
M  V30 27 H 0.7193 2.484 3.5669 0
M  V30 28 H -0.4686 3.0934 1.6513 0
M  V30 29 H -1.0785 1.9259 0.5267 0
M  V30 30 H 1.4061 -1.6201 4.5422 0
M  V30 31 H 2.4635 -0.8859 3.3366 0
M  V30 32 H -1.2583 -4.8326 -3.2301 0
M  V30 33 H -0.0517 -4.0121 -0.0644 0
M  V30 34 H 0.2133 -5.0966 -1.4315 0
M  V30 35 H 1.2852 -3.7091 -1.2123 0
M  V30 36 H -3.0797 -1.0733 -4.1437 0
M  V30 37 H -0.9518 0.9277 -1.9721 0
M  V30 38 H -2.648 0.6145 -1.5001 0
M  V30 39 H -2.2142 0.9346 -3.1884 0
M  V30 40 H 1.8523 0.8114 4.9919 0
M  V30 41 H 0.1364 0.461 4.7933 0
M  V30 42 H 1.2255 1.6087 -0.436 0
M  V30 43 H 1.8661 2.7749 0.7239 0
M  V30 44 H -2.7914 -3.4762 -4.5989 0
M  V30 45 H -0.2986 3.3759 -1.3571 0
M  V30 46 H 0.3696 4.5387 -0.2102 0
M  V30 47 H 1.447 4.7642 -2.4244 0
M  V30 48 H 2.639 4.2383 -1.2233 0
M  V30 49 H 1.9645 3.0703 -2.3768 0
M  V30 END ATOM
M  V30 BEGIN BOND
M  V30 1 2 1 2
M  V30 2 1 2 3
M  V30 3 1 2 4
M  V30 4 1 3 5
M  V30 5 1 4 6
M  V30 6 1 4 7
M  V30 7 2 5 8
M  V30 8 1 5 9
M  V30 9 1 6 10
M  V30 10 1 6 11
M  V30 11 1 7 12
M  V30 12 1 8 13
M  V30 13 1 8 14
M  V30 14 2 9 15
M  V30 15 1 9 16
M  V30 16 1 10 17
M  V30 17 1 11 18
M  V30 18 2 13 19
M  V30 19 1 18 20
M  V30 20 1 20 21
M  V30 21 1 12 17
M  V30 22 1 15 19
M  V30 23 1 3 22
M  V30 24 1 4 23
M  V30 25 1 7 24
M  V30 26 1 7 25
M  V30 27 1 10 26
M  V30 28 1 10 27
M  V30 29 1 11 28
M  V30 30 1 11 29
M  V30 31 1 12 30
M  V30 32 1 12 31
M  V30 33 1 13 32
M  V30 34 1 14 33
M  V30 35 1 14 34
M  V30 36 1 14 35
M  V30 37 1 15 36
M  V30 38 1 16 37
M  V30 39 1 16 38
M  V30 40 1 16 39
M  V30 41 1 17 40
M  V30 42 1 17 41
M  V30 43 1 18 42
M  V30 44 1 18 43
M  V30 45 1 19 44
M  V30 46 1 20 45
M  V30 47 1 20 46
M  V30 48 1 21 47
M  V30 49 1 21 48
M  V30 50 1 21 49
M  V30 END BOND
M  V30 BEGIN COLLECTION
M  V30 MDLV30/STERAC1 ATOMS=(1 4)
M  V30 END COLLECTION
M  V30 END CTAB
M  END
>  <NO.>
5472

>  <Name>
bupivacaine

>  <SMILES>
CCCCN1CCCCC1C(=O)Nc1c(C)cccc1C

>  <logBB>


>  <Class>
-1

>  <MW>
288.22

>  <nHBAcc>
2

>  <nHBDon>
1

>  <SLogP>
3.9

>  <TopoPSA>
32.34

>  <MMFF94 Energy>
57.702

$$$$
CCCCOc1cc(C(=O)NCCN(CC)CC)c2ccccc2n1
Actelion Java MolfileCreator 2.0

  0  0  0  0  0  0              0 V3000
M  V30 BEGIN CTAB
M  V30 COUNTS 54 55 0 0 0
M  V30 BEGIN ATOM
M  V30 1 O -0.9396 -3.0562 -2.3502 0
M  V30 2 C -0.4947 -2.1631 -1.6414 0
M  V30 3 N 0.4944 -1.296 -2.0344 0
M  V30 4 C -1.0149 -1.9417 -0.2691 0
M  V30 5 C 1.0605 -1.3098 -3.3693 0
M  V30 6 C -1.1576 -3.0059 0.6524 0
M  V30 7 C -1.3807 -0.6421 0.0792 0
M  V30 8 C 2.3632 -0.4876 -3.4216 0
M  V30 9 C -1.6704 -2.6657 1.9217 0
M  V30 10 C -0.8115 -4.3577 0.3983 0
M  V30 11 C -1.8691 -0.4359 1.3478 0
M  V30 12 N 2.2706 0.7952 -2.672 0
M  V30 13 N -2.0141 -1.4128 2.2631 0
M  V30 14 C -1.8257 -3.6655 2.8731 0
M  V30 15 C -0.9776 -5.3422 1.3709 0
M  V30 16 O -2.2191 0.862 1.6604 0
M  V30 17 C 1.4489 1.7684 -3.4207 0
M  V30 18 C 3.6186 1.3411 -2.4138 0
M  V30 19 C -1.4872 -4.995 2.613 0
M  V30 20 C -2.701 1.0148 2.9967 0
M  V30 21 C 0.9076 2.8716 -2.5155 0
M  V30 22 C 4.319 0.6211 -1.2648 0
M  V30 23 C -3.0401 2.4871 3.2345 0
M  V30 24 C -1.8715 3.4524 3.0119 0
M  V30 25 C -0.7048 3.2203 3.9593 0
M  V30 26 H 0.836 -0.561 -1.4222 0
M  V30 27 H 0.3042 -0.907 -4.0508 0
M  V30 28 H 1.2526 -2.3466 -3.6667 0
M  V30 29 H -1.306 0.1836 -0.6186 0
M  V30 30 H 3.1335 -1.1198 -2.9659 0
M  V30 31 H 2.6677 -0.3242 -4.4629 0
M  V30 32 H -0.4122 -4.6558 -0.5697 0
M  V30 33 H -2.2235 -3.4015 3.8508 0
M  V30 34 H -0.7118 -6.3736 1.1534 0
M  V30 35 H 2.0103 2.2014 -4.2581 0
M  V30 36 H 0.5714 1.2778 -3.8554 0
M  V30 37 H 4.2396 1.3086 -3.3179 0
M  V30 38 H 3.5568 2.3942 -2.1188 0
M  V30 39 H -1.6242 -5.7515 3.3812 0
M  V30 40 H -1.947 0.6846 3.7211 0
M  V30 41 H -3.6147 0.4226 3.1344 0
M  V30 42 H 0.2202 3.5109 -3.0797 0
M  V30 43 H 1.6998 3.513 -2.1196 0
M  V30 44 H 0.3522 2.4486 -1.6712 0
M  V30 45 H 5.2603 1.1286 -1.0278 0
M  V30 46 H 4.5609 -0.4168 -1.5088 0
M  V30 47 H 3.6996 0.6283 -0.3614 0
M  V30 48 H -3.8431 2.776 2.5448 0
M  V30 49 H -3.43 2.6076 4.2521 0
M  V30 50 H -1.5178 3.3879 1.9766 0
M  V30 51 H -2.2379 4.4764 3.1538 0
M  V30 52 H 0.0509 4.0005 3.8221 0
M  V30 53 H -1.034 3.2473 5.0028 0
M  V30 54 H -0.2223 2.2565 3.772 0
M  V30 END ATOM
M  V30 BEGIN BOND
M  V30 1 2 1 2
M  V30 2 1 2 3
M  V30 3 1 2 4
M  V30 4 1 3 5
M  V30 5 1 4 6
M  V30 6 2 4 7
M  V30 7 1 5 8
M  V30 8 1 6 9
M  V30 9 2 6 10
M  V30 10 1 7 11
M  V30 11 1 8 12
M  V30 12 1 9 13
M  V30 13 2 9 14
M  V30 14 1 10 15
M  V30 15 1 11 16
M  V30 16 1 12 17
M  V30 17 1 12 18
M  V30 18 1 14 19
M  V30 19 1 16 20
M  V30 20 1 17 21
M  V30 21 1 18 22
M  V30 22 1 20 23
M  V30 23 1 23 24
M  V30 24 1 24 25
M  V30 25 2 11 13
M  V30 26 2 15 19
M  V30 27 1 3 26
M  V30 28 1 5 27
M  V30 29 1 5 28
M  V30 30 1 7 29
M  V30 31 1 8 30
M  V30 32 1 8 31
M  V30 33 1 10 32
M  V30 34 1 14 33
M  V30 35 1 15 34
M  V30 36 1 17 35
M  V30 37 1 17 36
M  V30 38 1 18 37
M  V30 39 1 18 38
M  V30 40 1 19 39
M  V30 41 1 20 40
M  V30 42 1 20 41
M  V30 43 1 21 42
M  V30 44 1 21 43
M  V30 45 1 21 44
M  V30 46 1 22 45
M  V30 47 1 22 46
M  V30 48 1 22 47
M  V30 49 1 23 48
M  V30 50 1 23 49
M  V30 51 1 24 50
M  V30 52 1 24 51
M  V30 53 1 25 52
M  V30 54 1 25 53
M  V30 55 1 25 54
M  V30 END BOND
M  V30 END CTAB
M  END
>  <NO.>
5473

>  <Name>
dibucaine

>  <SMILES>
CCCCOc1cc(C(=O)NCCN(CC)CC)c2ccccc2n1

>  <logBB>


>  <Class>
-1

>  <MW>
343.23

>  <nHBAcc>
4

>  <nHBDon>
1

>  <SLogP>
3.49

>  <TopoPSA>
54.46

>  <MMFF94 Energy>
4.483

$$$$
CCCc1c2oc(C(=O)O)cc(=O)c2cc2c(=O)cc(C(=O)O)n(CC)c12
Actelion Java MolfileCreator 2.0

  0  0  0  0  0  0              0 V3000
M  V30 BEGIN CTAB
M  V30 COUNTS 44 46 0 0 0
M  V30 BEGIN ATOM
M  V30 1 O -3.5377 -3.6182 0.6425 0
M  V30 2 C -3.2824 -2.4462 0.4039 0
M  V30 3 C -1.9116 -1.915 0.4473 0
M  V30 4 C -4.3493 -1.5004 0.0558 0
M  V30 5 C -1.6941 -0.5688 0.1563 0
M  V30 6 C -0.8538 -2.734 0.824 0
M  V30 7 C -4.0299 -0.2225 -0.1868 0
M  V30 8 O -2.7397 0.2785 -0.1335 0
M  V30 9 C -0.3895 -0.0146 0.1842 0
M  V30 10 C 0.4353 -2.1976 0.8703 0
M  V30 11 C -5.0845 0.7605 -0.5392 0
M  V30 12 C 0.7104 -0.8628 0.4862 0
M  V30 13 C -0.2438 1.4912 0.0324 0
M  V30 14 C 1.533 -3.0375 1.3996 0
M  V30 15 O -4.8906 1.938 -0.7886 0
M  V30 16 O -6.3271 0.2473 -0.5689 0
M  V30 17 N 2.0764 -0.4346 0.462 0
M  V30 18 C -0.486 2.0192 -1.3859 0
M  V30 19 O 1.3939 -4.2363 1.6062 0
M  V30 20 C 2.7942 -2.3624 1.7424 0
M  V30 21 C 2.9997 -1.1238 1.2709 0
M  V30 22 C 2.5184 0.0392 -0.8768 0
M  V30 23 C -0.2382 3.5183 -1.4639 0
M  V30 24 C 4.273 -0.4595 1.6846 0
M  V30 25 C 3.2594 1.3657 -0.8508 0
M  V30 26 O 4.4361 0.7348 1.8624 0
M  V30 27 O 5.2957 -1.3212 1.8406 0
M  V30 28 H -5.3562 -1.8966 0.0169 0
M  V30 29 H -1.0313 -3.7711 1.1048 0
M  V30 30 H 0.7343 1.8143 0.3958 0
M  V30 31 H -0.9514 1.9716 0.7228 0
M  V30 32 H -6.8915 1.0123 -0.8105 0
M  V30 33 H 0.1609 1.5155 -2.1094 0
M  V30 34 H -1.5145 1.819 -1.7048 0
M  V30 35 H 3.4972 -2.9175 2.3496 0
M  V30 36 H 1.6769 0.1212 -1.57 0
M  V30 37 H 3.168 -0.7223 -1.33 0
M  V30 38 H -0.4237 3.8806 -2.4799 0
M  V30 39 H -0.9017 4.0613 -0.7833 0
M  V30 40 H 0.7968 3.7592 -1.2018 0
M  V30 41 H 4.3081 1.2256 -0.5749 0
M  V30 42 H 2.8168 2.0839 -0.1569 0
M  V30 43 H 3.2588 1.8115 -1.8512 0
M  V30 44 H 6.0446 -0.746 2.1038 0
M  V30 END ATOM
M  V30 BEGIN BOND
M  V30 1 2 1 2
M  V30 2 1 2 3
M  V30 3 1 2 4
M  V30 4 2 3 5
M  V30 5 1 3 6
M  V30 6 2 4 7
M  V30 7 1 5 8
M  V30 8 1 5 9
M  V30 9 2 6 10
M  V30 10 1 7 11
M  V30 11 2 9 12
M  V30 12 1 9 13
M  V30 13 1 10 14
M  V30 14 2 11 15
M  V30 15 1 11 16
M  V30 16 1 12 17
M  V30 17 1 13 18
M  V30 18 2 14 19
M  V30 19 1 14 20
M  V30 20 1 17 21
M  V30 21 1 17 22
M  V30 22 1 18 23
M  V30 23 1 21 24
M  V30 24 1 22 25
M  V30 25 2 24 26
M  V30 26 1 24 27
M  V30 27 1 7 8
M  V30 28 1 10 12
M  V30 29 2 20 21
M  V30 30 1 4 28
M  V30 31 1 6 29
M  V30 32 1 13 30
M  V30 33 1 13 31
M  V30 34 1 16 32
M  V30 35 1 18 33
M  V30 36 1 18 34
M  V30 37 1 20 35
M  V30 38 1 22 36
M  V30 39 1 22 37
M  V30 40 1 23 38
M  V30 41 1 23 39
M  V30 42 1 23 40
M  V30 43 1 25 41
M  V30 44 1 25 42
M  V30 45 1 25 43
M  V30 46 1 27 44
M  V30 END BOND
M  V30 END CTAB
M  END
>  <NO.>
5478

>  <Name>
nedocromil

>  <SMILES>
CCCc1c2oc(C(=O)O)cc(=O)c2cc2c(=O)cc(C(=O)O)n(CC)c12

>  <logBB>


>  <Class>
-1

>  <MW>
371.1

>  <nHBAcc>
5

>  <nHBDon>
2

>  <SLogP>
2.48

>  <TopoPSA>
126.81

>  <MMFF94 Energy>
40.943

$$$$
CCN[C@H]1CN(CCCOC)S(=O)(=O)c2sc(S(N)(=O)=O)cc21
Actelion Java MolfileCreator 2.0

  0  0  0  0  0  0              0 V3000
M  V30 BEGIN CTAB
M  V30 COUNTS 44 45 0 0 0
M  V30 BEGIN ATOM
M  V30 1 S 1.2409 -0.9927 -0.3308 0
M  V30 2 O 1.3624 -1.8747 -1.4696 0
M  V30 3 O 2.3367 -0.6771 0.554 0
M  V30 4 N 0.493 0.4653 -0.8525 0
M  V30 5 C -0.0242 -1.728 0.6687 0
M  V30 6 C -0.9768 0.2708 -1.1823 0
M  V30 7 C 1.2183 1.2022 -1.927 0
M  V30 8 S 0.3137 -3.1495 1.5226 0
M  V30 9 C -1.331 -1.2965 0.7963 0
M  V30 10 C -1.8191 -0.0363 0.1128 0 CFG=1
M  V30 11 C 2.5523 1.7515 -1.4274 0
M  V30 12 C -1.3061 -3.2607 2.0709 0
M  V30 13 C -2.08 -2.2129 1.6004 0
M  V30 14 N -1.6883 1.1107 1.0208 0
M  V30 15 C 3.1225 2.8032 -2.3721 0
M  V30 16 S -1.6952 -4.6494 3.1109 0
M  V30 17 C -2.5494 1.0836 2.1944 0
M  V30 18 O 3.2505 2.2459 -3.6779 0
M  V30 19 O -3.1101 -4.86 2.9131 0
M  V30 20 O -1.1123 -4.3362 4.3927 0
M  V30 21 N -0.9046 -5.9948 2.4993 0
M  V30 22 C -2.4618 2.4212 2.9149 0
M  V30 23 C 3.8398 3.1675 -4.5865 0
M  V30 24 H -1.0842 -0.5339 -1.9201 0
M  V30 25 H -1.3686 1.1867 -1.6421 0
M  V30 26 H 0.5924 2.0449 -2.2459 0
M  V30 27 H 1.3516 0.5541 -2.8006 0
M  V30 28 H -2.8657 -0.1599 -0.1916 0
M  V30 29 H 3.2708 0.9277 -1.3469 0
M  V30 30 H 2.439 2.1891 -0.4287 0
M  V30 31 H -3.133 -2.1128 1.8422 0
M  V30 32 H -0.7081 1.2421 1.2774 0
M  V30 33 H 2.4603 3.6759 -2.411 0
M  V30 34 H 4.1054 3.1245 -2.0088 0
M  V30 35 H -2.2492 0.2954 2.8918 0
M  V30 36 H -3.5909 0.908 1.9028 0
M  V30 37 H -1.2537 -6.2756 1.5854 0
M  V30 38 H 0.1083 -5.9177 2.577 0
M  V30 39 H -1.4397 2.6246 3.2522 0
M  V30 40 H -2.7793 3.2435 2.2645 0
M  V30 41 H -3.1125 2.4182 3.7954 0
M  V30 42 H 3.9046 2.6896 -5.5676 0
M  V30 43 H 4.8495 3.4344 -4.2601 0
M  V30 44 H 3.2217 4.0662 -4.6749 0
M  V30 END ATOM
M  V30 BEGIN BOND
M  V30 1 2 1 2
M  V30 2 2 1 3
M  V30 3 1 1 4
M  V30 4 1 1 5
M  V30 5 1 4 6
M  V30 6 1 4 7
M  V30 7 1 5 8
M  V30 8 2 5 9
M  V30 9 1 6 10
M  V30 10 1 7 11
M  V30 11 1 8 12
M  V30 12 1 9 13
M  V30 13 1 10 14
M  V30 14 1 11 15
M  V30 15 1 12 16
M  V30 16 1 14 17
M  V30 17 1 15 18
M  V30 18 2 16 19
M  V30 19 2 16 20
M  V30 20 1 16 21
M  V30 21 1 17 22
M  V30 22 1 18 23
M  V30 23 1 9 10
M  V30 24 2 12 13
M  V30 25 1 6 24
M  V30 26 1 6 25
M  V30 27 1 7 26
M  V30 28 1 7 27
M  V30 29 1 10 28
M  V30 30 1 11 29
M  V30 31 1 11 30
M  V30 32 1 13 31
M  V30 33 1 14 32
M  V30 34 1 15 33
M  V30 35 1 15 34
M  V30 36 1 17 35
M  V30 37 1 17 36
M  V30 38 1 21 37
M  V30 39 1 21 38
M  V30 40 1 22 39
M  V30 41 1 22 40
M  V30 42 1 22 41
M  V30 43 1 23 42
M  V30 44 1 23 43
M  V30 45 1 23 44
M  V30 END BOND
M  V30 BEGIN COLLECTION
M  V30 MDLV30/STEABS ATOMS=(1 10)
M  V30 END COLLECTION
M  V30 END CTAB
M  END
>  <NO.>
5480

>  <Name>
brinzolamide

>  <SMILES>
CCN[C@H]1CN(CCCOC)S(=O)(=O)c2sc(S(N)(=O)=O)cc21

>  <logBB>


>  <Class>
-1

>  <MW>
383.06

>  <nHBAcc>
7

>  <nHBDon>
2

>  <SLogP>
0.09

>  <TopoPSA>
118.8

>  <MMFF94 Energy>
-59.589

$$$$
CCN[C@H]1C[C@H](C)S(=O)(=O)c2sc(S(N)(=O)=O)cc21
Actelion Java MolfileCreator 2.0

  0  0  0  0  0  0              0 V3000
M  V30 BEGIN CTAB
M  V30 COUNTS 35 36 0 0 0
M  V30 BEGIN ATOM
M  V30 1 S 1.762 -1.6781 -0.9227 0
M  V30 2 O 1.4892 -2.9478 -0.2836 0
M  V30 3 O 2.3988 -1.5681 -2.2188 0
M  V30 4 C 0.1899 -0.8892 -1.128 0
M  V30 5 C 2.565 -0.5625 0.2451 0 CFG=2
M  V30 6 S -0.9618 -1.6542 -2.1129 0
M  V30 7 C -0.2339 0.3257 -0.6259 0
M  V30 8 C 2.1365 0.9044 0.0067 0
M  V30 9 C 4.0802 -0.7134 0.1525 0
M  V30 10 C -2.0691 -0.3664 -1.9098 0
M  V30 11 C -1.5454 0.635 -1.1121 0
M  V30 12 C 0.6286 1.1734 0.2716 0 CFG=2
M  V30 13 S -3.6331 -0.5296 -2.7372 0
M  V30 14 N 0.3415 0.8508 1.6743 0
M  V30 15 O -3.3502 -0.2953 -4.1321 0
M  V30 16 O -4.5361 0.2903 -1.9637 0
M  V30 17 N -4.1431 -2.1186 -2.5732 0
M  V30 18 C -0.9592 1.3427 2.1389 0
M  V30 19 C -1.0775 1.1328 3.6425 0
M  V30 20 H 2.2488 -0.8918 1.2415 0
M  V30 21 H 2.3749 1.1912 -1.0266 0
M  V30 22 H 2.7303 1.5625 0.6553 0
M  V30 23 H 4.3777 -1.7567 0.302 0
M  V30 24 H 4.4558 -0.3973 -0.8263 0
M  V30 25 H 4.5774 -0.1076 0.9171 0
M  V30 26 H -2.0985 1.5383 -0.8777 0
M  V30 27 H 0.441 2.2369 0.0761 0
M  V30 28 H 1.0592 1.2737 2.2651 0
M  V30 29 H -3.5383 -2.7687 -3.0734 0
M  V30 30 H -4.3387 -2.3678 -1.6056 0
M  V30 31 H -1.7785 0.8021 1.6559 0
M  V30 32 H -1.0703 2.411 1.9207 0
M  V30 33 H -0.988 0.0725 3.9023 0
M  V30 34 H -0.3027 1.6862 4.1838 0
M  V30 35 H -2.0517 1.4856 3.9964 0
M  V30 END ATOM
M  V30 BEGIN BOND
M  V30 1 2 1 2
M  V30 2 2 1 3
M  V30 3 1 1 4
M  V30 4 1 1 5
M  V30 5 1 4 6
M  V30 6 2 4 7
M  V30 7 1 5 8
M  V30 8 1 5 9
M  V30 9 1 6 10
M  V30 10 1 7 11
M  V30 11 1 7 12
M  V30 12 1 10 13
M  V30 13 1 12 14
M  V30 14 2 13 15
M  V30 15 2 13 16
M  V30 16 1 13 17
M  V30 17 1 14 18
M  V30 18 1 18 19
M  V30 19 1 8 12
M  V30 20 2 10 11
M  V30 21 1 5 20
M  V30 22 1 8 21
M  V30 23 1 8 22
M  V30 24 1 9 23
M  V30 25 1 9 24
M  V30 26 1 9 25
M  V30 27 1 11 26
M  V30 28 1 12 27
M  V30 29 1 14 28
M  V30 30 1 17 29
M  V30 31 1 17 30
M  V30 32 1 18 31
M  V30 33 1 18 32
M  V30 34 1 19 33
M  V30 35 1 19 34
M  V30 36 1 19 35
M  V30 END BOND
M  V30 BEGIN COLLECTION
M  V30 MDLV30/STEABS ATOMS=(2 5 12)
M  V30 END COLLECTION
M  V30 END CTAB
M  END
>  <NO.>
5481

>  <Name>
dorzolamide

>  <SMILES>
CCN[C@H]1C[C@H](C)S(=O)(=O)c2sc(S(N)(=O)=O)cc21

>  <logBB>


>  <Class>
-1

>  <MW>
324.03

>  <nHBAcc>
6

>  <nHBDon>
2

>  <SLogP>
0.61

>  <TopoPSA>
106.33

>  <MMFF94 Energy>
-50.729

$$$$
CCOC(=O)c1ccc(C#Cc2ccc3c(c2)C(C)(C)CCS3)nc1
Actelion Java MolfileCreator 2.0

  0  0  0  0  0  0              0 V3000
M  V30 BEGIN CTAB
M  V30 COUNTS 46 48 0 0 0
M  V30 BEGIN ATOM
M  V30 1 S 2.5859 -6.0688 -0.4037 0
M  V30 2 C 1.6981 -4.5193 -0.4055 0
M  V30 3 C 4.1156 -5.5812 0.4204 0
M  V30 4 C 2.2707 -3.2566 -0.1558 0
M  V30 5 C 0.3237 -4.6233 -0.6896 0
M  V30 6 C 4.6323 -4.2878 -0.1769 0
M  V30 7 C 1.4076 -2.134 -0.1597 0
M  V30 8 C 3.7601 -3.0505 0.1541 0
M  V30 9 C -0.5003 -3.4986 -0.7071 0
M  V30 10 C 0.0418 -2.2504 -0.4353 0
M  V30 11 C 4.3488 -1.8841 -0.68 0
M  V30 12 C 3.9083 -2.6944 1.6511 0
M  V30 13 C -0.7898 -1.0872 -0.4342 0
M  V30 14 C -1.4792 -0.1032 -0.4304 0
M  V30 15 C -2.2934 1.0685 -0.4249 0
M  V30 16 N -1.682 2.1844 0.0302 0
M  V30 17 C -3.6098 1.0328 -0.8605 0
M  V30 18 C -2.4241 3.321 0.051 0
M  V30 19 C -4.3477 2.216 -0.8277 0
M  V30 20 C -3.7488 3.3906 -0.3629 0
M  V30 21 C -4.5338 4.6442 -0.3291 0
M  V30 22 O -5.6977 4.7152 -0.6899 0
M  V30 23 O -3.7841 5.6668 0.1489 0
M  V30 24 C -4.474 6.922 0.2138 0
M  V30 25 C -3.5152 7.9601 0.7632 0
M  V30 26 H 4.8481 -6.3797 0.2642 0
M  V30 27 H 3.9486 -5.5038 1.4984 0
M  V30 28 H -0.1212 -5.5955 -0.8952 0
M  V30 29 H 5.6525 -4.1213 0.1951 0
M  V30 30 H 4.7319 -4.4021 -1.2661 0
M  V30 31 H 1.7977 -1.1425 0.0638 0
M  V30 32 H -1.5588 -3.6111 -0.9255 0
M  V30 33 H 5.4311 -1.7981 -0.5259 0
M  V30 34 H 3.9183 -0.9137 -0.4113 0
M  V30 35 H 4.1751 -2.0378 -1.7516 0
M  V30 36 H 4.9632 -2.6038 1.9339 0
M  V30 37 H 3.4268 -1.7383 1.8887 0
M  V30 38 H 3.4499 -3.4494 2.2991 0
M  V30 39 H -4.057 0.1112 -1.2179 0
M  V30 40 H -1.8914 4.1916 0.4243 0
M  V30 41 H -5.3828 2.2188 -1.1631 0
M  V30 42 H -5.3425 6.8325 0.8761 0
M  V30 43 H -4.8027 7.2153 -0.7894 0
M  V30 44 H -3.9974 8.9392 0.832 0
M  V30 45 H -3.1609 7.6694 1.7577 0
M  V30 46 H -2.6311 8.0452 0.1227 0
M  V30 END ATOM
M  V30 BEGIN BOND
M  V30 1 1 1 2
M  V30 2 1 1 3
M  V30 3 2 2 4
M  V30 4 1 2 5
M  V30 5 1 3 6
M  V30 6 1 4 7
M  V30 7 1 4 8
M  V30 8 2 5 9
M  V30 9 2 7 10
M  V30 10 1 8 11
M  V30 11 1 8 12
M  V30 12 1 10 13
M  V30 13 3 13 14
M  V30 14 1 14 15
M  V30 15 2 15 16
M  V30 16 1 15 17
M  V30 17 1 16 18
M  V30 18 2 17 19
M  V30 19 2 18 20
M  V30 20 1 20 21
M  V30 21 2 21 22
M  V30 22 1 21 23
M  V30 23 1 23 24
M  V30 24 1 24 25
M  V30 25 1 6 8
M  V30 26 1 9 10
M  V30 27 1 19 20
M  V30 28 1 3 26
M  V30 29 1 3 27
M  V30 30 1 5 28
M  V30 31 1 6 29
M  V30 32 1 6 30
M  V30 33 1 7 31
M  V30 34 1 9 32
M  V30 35 1 11 33
M  V30 36 1 11 34
M  V30 37 1 11 35
M  V30 38 1 12 36
M  V30 39 1 12 37
M  V30 40 1 12 38
M  V30 41 1 17 39
M  V30 42 1 18 40
M  V30 43 1 19 41
M  V30 44 1 24 42
M  V30 45 1 24 43
M  V30 46 1 25 44
M  V30 47 1 25 45
M  V30 48 1 25 46
M  V30 END BOND
M  V30 END CTAB
M  END
>  <NO.>
5488

>  <Name>
tazarotene

>  <SMILES>
CCOC(=O)c1ccc(C#Cc2ccc3c(c2)C(C)(C)CCS3)nc1

>  <logBB>


>  <Class>
-1

>  <MW>
351.13

>  <nHBAcc>
4

>  <nHBDon>
0

>  <SLogP>
4.43

>  <TopoPSA>
39.19

>  <MMFF94 Energy>
50.625

$$$$
CCOc1nc2cccc(C(=O)O)c2n1Cc1ccc(-c2ccccc2-c2nn[nH]n2)cc1
Actelion Java MolfileCreator 2.0

  0  0  0  0  0  0              0 V3000
M  V30 BEGIN CTAB
M  V30 COUNTS 53 57 0 0 0
M  V30 BEGIN ATOM
M  V30 1 O -0.8031 1.2853 3.4571 0
M  V30 2 C -0.8447 2.4892 3.6068 0
M  V30 3 O -0.8955 3.0347 4.8363 0
M  V30 4 C -0.8531 3.5231 2.5541 0
M  V30 5 C -0.1584 3.4161 1.3277 0
M  V30 6 C -1.6504 4.6715 2.7595 0
M  V30 7 N 0.7215 2.5235 0.7392 0
M  V30 8 C -0.2738 4.4266 0.3599 0
M  V30 9 C -1.7633 5.6704 1.7983 0
M  V30 10 C 1.0724 3.0276 -0.4938 0
M  V30 11 C 1.331 1.3179 1.2794 0
M  V30 12 N 0.4777 4.1635 -0.7515 0
M  V30 13 C -1.08 5.5535 0.5912 0
M  V30 14 O 1.9431 2.413 -1.2911 0
M  V30 15 C 0.84 0.0627 0.5953 0
M  V30 16 C 2.1119 3.0256 -2.5683 0
M  V30 17 C -0.5067 -0.3191 0.6427 0
M  V30 18 C 1.7415 -0.7547 -0.1019 0
M  V30 19 C 3.0822 2.1781 -3.37 0
M  V30 20 C -0.9419 -1.4846 0.0041 0
M  V30 21 C 1.3047 -1.9197 -0.7401 0
M  V30 22 C -0.0424 -2.3031 -0.6936 0
M  V30 23 C -0.5049 -3.5208 -1.3806 0
M  V30 24 C -0.9138 -4.6926 -0.7028 0
M  V30 25 C -0.582 -3.5009 -2.7889 0
M  V30 26 C -0.8508 -4.8294 0.7461 0
M  V30 27 C -1.4049 -5.7863 -1.4423 0
M  V30 28 C -1.0586 -4.5979 -3.5084 0
M  V30 29 N -1.8583 -5.4248 1.4743 0
M  V30 30 N 0.1866 -4.4621 1.5179 0
M  V30 31 C -1.4744 -5.7397 -2.8347 0
M  V30 32 N -1.4814 -5.3957 2.7448 0
M  V30 33 N -0.282 -4.8044 2.7239 0
M  V30 34 H -0.8939 2.2649 5.4428 0
M  V30 35 H -2.2078 4.7836 3.6892 0
M  V30 36 H -2.3874 6.5409 1.9849 0
M  V30 37 H 2.4143 1.4331 1.1406 0
M  V30 38 H 1.1893 1.268 2.3569 0
M  V30 39 H -1.1556 6.3236 -0.1698 0
M  V30 40 H 2.5203 4.0366 -2.4515 0
M  V30 41 H 1.1518 3.0759 -3.0962 0
M  V30 42 H -1.2365 0.2854 1.1763 0
M  V30 43 H 2.7947 -0.489 -0.1632 0
M  V30 44 H 3.2463 2.6065 -4.3627 0
M  V30 45 H 4.0449 2.1019 -2.8537 0
M  V30 46 H 2.6999 1.1582 -3.4833 0
M  V30 47 H -1.9958 -1.7512 0.0555 0
M  V30 48 H 2.0271 -2.5369 -1.27 0
M  V30 49 H -0.2794 -2.6072 -3.3334 0
M  V30 50 H -1.7294 -6.6908 -0.9296 0
M  V30 51 H -1.1119 -4.5538 -4.5932 0
M  V30 52 H -1.852 -6.5947 -3.3895 0
M  V30 53 H 0.2436 -4.633 3.576 0
M  V30 END ATOM
M  V30 BEGIN BOND
M  V30 1 2 1 2
M  V30 2 1 2 3
M  V30 3 1 2 4
M  V30 4 2 4 5
M  V30 5 1 4 6
M  V30 6 1 5 7
M  V30 7 1 5 8
M  V30 8 2 6 9
M  V30 9 1 7 10
M  V30 10 1 7 11
M  V30 11 1 8 12
M  V30 12 2 8 13
M  V30 13 1 10 14
M  V30 14 1 11 15
M  V30 15 1 14 16
M  V30 16 2 15 17
M  V30 17 1 15 18
M  V30 18 1 16 19
M  V30 19 1 17 20
M  V30 20 2 18 21
M  V30 21 2 20 22
M  V30 22 1 22 23
M  V30 23 2 23 24
M  V30 24 1 23 25
M  V30 25 1 24 26
M  V30 26 1 24 27
M  V30 27 2 25 28
M  V30 28 1 26 29
M  V30 29 2 26 30
M  V30 30 2 27 31
M  V30 31 2 29 32
M  V30 32 1 30 33
M  V30 33 1 9 13
M  V30 34 2 10 12
M  V30 35 1 21 22
M  V30 36 1 28 31
M  V30 37 1 32 33
M  V30 38 1 3 34
M  V30 39 1 6 35
M  V30 40 1 9 36
M  V30 41 1 11 37
M  V30 42 1 11 38
M  V30 43 1 13 39
M  V30 44 1 16 40
M  V30 45 1 16 41
M  V30 46 1 17 42
M  V30 47 1 18 43
M  V30 48 1 19 44
M  V30 49 1 19 45
M  V30 50 1 19 46
M  V30 51 1 20 47
M  V30 52 1 21 48
M  V30 53 1 25 49
M  V30 54 1 27 50
M  V30 55 1 28 51
M  V30 56 1 31 52
M  V30 57 1 33 53
M  V30 END BOND
M  V30 END CTAB
M  END
>  <NO.>
5491

>  <Name>
candesartan

>  <SMILES>
CCOc1nc2cccc(C(=O)O)c2n1Cc1ccc(-c2ccccc2-c2nn[nH]n2)cc1

>  <logBB>


>  <Class>
-1

>  <MW>
440.16

>  <nHBAcc>
6

>  <nHBDon>
2

>  <SLogP>
4.03

>  <TopoPSA>
118.81

>  <MMFF94 Energy>
68.319

$$$$
CC[N+](C)(C)c1cccc(O)c1
Actelion Java MolfileCreator 2.0

  0  0  0  0  0  0              0 V3000
M  V30 BEGIN CTAB
M  V30 COUNTS 28 28 0 0 0
M  V30 BEGIN ATOM
M  V30 1 O 1.2416 -1.0863 3.573 0
M  V30 2 C 0.8656 -1.3065 2.282 0
M  V30 3 C 0.7159 -0.1862 1.4643 0
M  V30 4 C 0.6421 -2.5882 1.8003 0
M  V30 5 C 0.3303 -0.3347 0.1283 0
M  V30 6 C 0.2629 -2.7527 0.472 0
M  V30 7 N 0.1579 0.855 -0.8065 0 CHG=1
M  V30 8 C 0.1096 -1.6364 -0.3579 0
M  V30 9 C -1.2583 0.8678 -1.4111 0
M  V30 10 C 0.4338 2.1896 -0.1117 0
M  V30 11 C 1.1962 0.7171 -1.9271 0
M  V30 12 C -2.3685 0.9438 -0.3724 0
M  V30 13 H 1.3097 -1.9356 4.045 0
M  V30 14 H 0.9132 0.7753 1.9236 0
M  V30 15 H 0.7586 -3.4612 2.4374 0
M  V30 16 H 0.0863 -3.7534 0.0807 0
M  V30 17 H -0.1852 -1.8204 -1.3869 0
M  V30 18 H -1.3739 -0.0258 -2.0337 0
M  V30 19 H -1.3094 1.7378 -2.0769 0
M  V30 20 H 0.2544 2.9928 -0.834 0
M  V30 21 H 1.4814 2.2172 0.2057 0
M  V30 22 H -0.2385 2.3105 0.7414 0
M  V30 23 H 2.192 0.6472 -1.4776 0
M  V30 24 H 1.1298 1.6058 -2.5629 0
M  V30 25 H 0.9746 -0.1716 -2.5245 0
M  V30 26 H -2.3467 0.1016 0.3244 0
M  V30 27 H -3.3399 0.921 -0.878 0
M  V30 28 H -2.3299 1.8727 0.2027 0
M  V30 END ATOM
M  V30 BEGIN BOND
M  V30 1 1 1 2
M  V30 2 2 2 3
M  V30 3 1 2 4
M  V30 4 1 3 5
M  V30 5 2 4 6
M  V30 6 1 5 7
M  V30 7 2 5 8
M  V30 8 1 7 9
M  V30 9 1 7 10
M  V30 10 1 7 11
M  V30 11 1 9 12
M  V30 12 1 6 8
M  V30 13 1 1 13
M  V30 14 1 3 14
M  V30 15 1 4 15
M  V30 16 1 6 16
M  V30 17 1 8 17
M  V30 18 1 9 18
M  V30 19 1 9 19
M  V30 20 1 10 20
M  V30 21 1 10 21
M  V30 22 1 10 22
M  V30 23 1 11 23
M  V30 24 1 11 24
M  V30 25 1 11 25
M  V30 26 1 12 26
M  V30 27 1 12 27
M  V30 28 1 12 28
M  V30 END BOND
M  V30 END CTAB
M  END
>  <NO.>
5494

>  <Name>
edrophoniumchloride

>  <SMILES>
CC[N+](C)(C)c1cccc(O)c1

>  <logBB>


>  <Class>
-1

>  <MW>
166.12

>  <nHBAcc>
1

>  <nHBDon>
1

>  <SLogP>
1.98

>  <TopoPSA>
20.23

>  <MMFF94 Energy>
19.524

$$$$
CCc1c2c(nc3ccc(OC(=O)N4CCC(N5CCCCC5)CC4)cc13)-c1cc3c(c(=O)n1C2)COC(=O)[C@]3(O)CC
Actelion Java MolfileCreator 2.0

  0  0  0  0  0  0              0 V3000
M  V30 BEGIN CTAB
M  V30 COUNTS 81 87 0 0 0
M  V30 BEGIN ATOM
M  V30 1 O 7.3364 -1.7699 3.381 0
M  V30 2 C 6.2459 -2.3263 3.4493 0
M  V30 3 N 5.127 -1.9101 2.7761 0
M  V30 4 C 6.0534 -3.5515 4.2908 0
M  V30 5 C 3.9045 -2.5477 2.8372 0
M  V30 6 C 5.0705 -0.7357 1.9019 0
M  V30 7 C 4.8576 -4.1685 4.3424 0
M  V30 8 C 7.249 -4.0378 5.03 0
M  V30 9 C 2.9691 -1.8192 1.9886 0
M  V30 10 C 3.7308 -3.6433 3.5812 0
M  V30 11 C 3.6466 -0.7439 1.426 0
M  V30 12 C 4.6963 -5.4326 5.15 0 CFG=2
M  V30 13 O 6.9613 -4.9868 6.0789 0
M  V30 14 N 1.6894 -2.1405 1.7799 0
M  V30 15 C 2.9688 0.1074 0.5645 0
M  V30 16 O 3.3773 -5.4545 5.7127 0
M  V30 17 C 5.7208 -5.4681 6.3065 0
M  V30 18 C 4.877 -6.6735 4.2491 0
M  V30 19 C 1.0175 -1.3311 0.9469 0
M  V30 20 C 1.6012 -0.1945 0.3009 0
M  V30 21 C 3.6947 1.2743 -0.0605 0
M  V30 22 O 5.4287 -5.9767 7.3901 0
M  V30 23 C 4.6029 -8.0042 4.9435 0
M  V30 24 C -0.3148 -1.6376 0.7058 0
M  V30 25 C 0.7898 0.5685 -0.5687 0
M  V30 26 C 4.2486 0.9322 -1.4358 0
M  V30 27 C -1.1068 -0.8702 -0.1477 0
M  V30 28 C -0.5499 0.2375 -0.7659 0
M  V30 29 O -1.3591 0.9501 -1.6621 0
M  V30 30 C -1.5254 2.3148 -1.4299 0
M  V30 31 O -1.0196 2.919 -0.4895 0
M  V30 32 N -2.3302 2.9211 -2.3849 0
M  V30 33 C -2.582 4.3548 -2.314 0
M  V30 34 C -2.9035 2.224 -3.5311 0
M  V30 35 C -4.0769 4.6546 -2.3952 0
M  V30 36 C -4.4058 2.4832 -3.6363 0
M  V30 37 C -4.6981 3.9965 -3.6443 0
M  V30 38 N -6.1207 4.3743 -3.7893 0
M  V30 39 C -7.028 3.7543 -2.8129 0
M  V30 40 C -6.6087 4.1696 -5.1622 0
M  V30 41 C -8.436 4.3457 -2.9207 0
M  V30 42 C -8.0042 4.7684 -5.348 0
M  V30 43 C -8.9904 4.2049 -4.3328 0
M  V30 44 H 5.3111 0.1554 2.4895 0
M  V30 45 H 5.7863 -0.8645 1.0845 0
M  V30 46 H 7.7637 -3.2031 5.5177 0
M  V30 47 H 7.9563 -4.5129 4.3423 0
M  V30 48 H 2.7653 -4.1398 3.6298 0
M  V30 49 H 3.451 -5.9324 6.564 0
M  V30 50 H 5.8938 -6.6994 3.8371 0
M  V30 51 H 4.1879 -6.6101 3.3966 0
M  V30 52 H 4.5195 1.5927 0.5883 0
M  V30 53 H 3.0361 2.1477 -0.1203 0
M  V30 54 H 4.7194 -8.8265 4.23 0
M  V30 55 H 5.3024 -8.1795 5.7659 0
M  V30 56 H 3.5832 -8.0486 5.3377 0
M  V30 57 H -0.7506 -2.5045 1.1981 0
M  V30 58 H 1.1902 1.4301 -1.0939 0
M  V30 59 H 4.7766 1.7946 -1.8549 0
M  V30 60 H 3.4524 0.6523 -2.133 0
M  V30 61 H 4.9546 0.0967 -1.3817 0
M  V30 62 H -2.1441 -1.1398 -0.3203 0
M  V30 63 H -2.0527 4.8205 -3.1537 0
M  V30 64 H -2.1713 4.7836 -1.3944 0
M  V30 65 H -2.7252 1.1466 -3.4801 0
M  V30 66 H -2.3895 2.5945 -4.4259 0
M  V30 67 H -4.5543 4.2805 -1.482 0
M  V30 68 H -4.2278 5.7404 -2.4215 0
M  V30 69 H -4.9007 2.0039 -2.7829 0
M  V30 70 H -4.7856 2.0069 -4.5464 0
M  V30 71 H -4.1626 4.4306 -4.5013 0
M  V30 72 H -7.0855 2.669 -2.9604 0
M  V30 73 H -6.6789 3.9271 -1.79 0
M  V30 74 H -6.6328 3.1031 -5.4172 0
M  V30 75 H -5.9382 4.6608 -5.8775 0
M  V30 76 H -9.1032 3.8434 -2.2111 0
M  V30 77 H -8.4115 5.4066 -2.6404 0
M  V30 78 H -7.9525 5.8594 -5.2405 0
M  V30 79 H -8.3622 4.5646 -6.3634 0
M  V30 80 H -9.9521 4.7231 -4.4136 0
M  V30 81 H -9.1749 3.1457 -4.55 0
M  V30 END ATOM
M  V30 BEGIN BOND
M  V30 1 2 1 2
M  V30 2 1 2 3
M  V30 3 1 2 4
M  V30 4 1 3 5
M  V30 5 1 3 6
M  V30 6 2 4 7
M  V30 7 1 4 8
M  V30 8 1 5 9
M  V30 9 2 5 10
M  V30 10 1 6 11
M  V30 11 1 7 12
M  V30 12 1 8 13
M  V30 13 2 9 14
M  V30 14 2 11 15
M  V30 15 1 12 16
M  V30 16 1 12 17
M  V30 17 1 12 18
M  V30 18 1 14 19
M  V30 19 1 15 20
M  V30 20 1 15 21
M  V30 21 2 17 22
M  V30 22 1 18 23
M  V30 23 2 19 24
M  V30 24 2 20 25
M  V30 25 1 21 26
M  V30 26 1 24 27
M  V30 27 1 25 28
M  V30 28 1 28 29
M  V30 29 1 29 30
M  V30 30 2 30 31
M  V30 31 1 30 32
M  V30 32 1 32 33
M  V30 33 1 32 34
M  V30 34 1 33 35
M  V30 35 1 34 36
M  V30 36 1 35 37
M  V30 37 1 37 38
M  V30 38 1 38 39
M  V30 39 1 38 40
M  V30 40 1 39 41
M  V30 41 1 40 42
M  V30 42 1 41 43
M  V30 43 1 7 10
M  V30 44 1 9 11
M  V30 45 1 13 17
M  V30 46 1 19 20
M  V30 47 2 27 28
M  V30 48 1 36 37
M  V30 49 1 42 43
M  V30 50 1 6 44
M  V30 51 1 6 45
M  V30 52 1 8 46
M  V30 53 1 8 47
M  V30 54 1 10 48
M  V30 55 1 16 49
M  V30 56 1 18 50
M  V30 57 1 18 51
M  V30 58 1 21 52
M  V30 59 1 21 53
M  V30 60 1 23 54
M  V30 61 1 23 55
M  V30 62 1 23 56
M  V30 63 1 24 57
M  V30 64 1 25 58
M  V30 65 1 26 59
M  V30 66 1 26 60
M  V30 67 1 26 61
M  V30 68 1 27 62
M  V30 69 1 33 63
M  V30 70 1 33 64
M  V30 71 1 34 65
M  V30 72 1 34 66
M  V30 73 1 35 67
M  V30 74 1 35 68
M  V30 75 1 36 69
M  V30 76 1 36 70
M  V30 77 1 37 71
M  V30 78 1 39 72
M  V30 79 1 39 73
M  V30 80 1 40 74
M  V30 81 1 40 75
M  V30 82 1 41 76
M  V30 83 1 41 77
M  V30 84 1 42 78
M  V30 85 1 42 79
M  V30 86 1 43 80
M  V30 87 1 43 81
M  V30 END BOND
M  V30 BEGIN COLLECTION
M  V30 MDLV30/STEABS ATOMS=(1 12)
M  V30 END COLLECTION
M  V30 END CTAB
M  END
>  <NO.>
5495

>  <Name>
irinotecan

>  <SMILES>
CCc1c2c(nc3ccc(OC(=O)N4CCC(N5CCCCC5)CC4)cc13)-c1cc3c(c(=O)n1C2)COC(=O)[C@]3(O)CC

>  <logBB>


>  <Class>
-1

>  <MW>
586.28

>  <nHBAcc>
8

>  <nHBDon>
1

>  <SLogP>
4.09

>  <TopoPSA>
114.2

>  <MMFF94 Energy>
52.484

$$$$
CN(C)CC/C=C1/c2ccccc2COc2ccc(CC(=O)O)cc21
Actelion Java MolfileCreator 2.0

  0  0  0  0  0  0              0 V3000
M  V30 BEGIN CTAB
M  V30 COUNTS 48 50 0 0 0
M  V30 BEGIN ATOM
M  V30 1 O 0.7944 -3.8975 2.544 0
M  V30 2 C -0.3657 -3.6118 2.7868 0
M  V30 3 O -1.2946 -4.5907 2.8633 0
M  V30 4 C -0.9549 -2.255 3.0856 0
M  V30 5 C -0.0741 -1.1027 2.6666 0
M  V30 6 C -0.2248 -0.5287 1.3937 0
M  V30 7 C 0.9322 -0.6236 3.5181 0
M  V30 8 C 0.6148 0.5097 0.9712 0
M  V30 9 C 1.7575 0.4266 3.1149 0
M  V30 10 C 0.523 1.0952 -0.3841 0
M  V30 11 C 1.5753 1.0008 1.8593 0
M  V30 12 C 0.2519 2.5476 -0.5976 0
M  V30 13 C 0.831 0.3401 -1.4659 0
M  V30 14 O 2.3923 2.0377 1.4884 0
M  V30 15 C 0.798 3.5427 0.2408 0
M  V30 16 C -0.6115 2.9427 -1.6407 0
M  V30 17 C 1.2449 -1.1102 -1.5162 0
M  V30 18 C 1.6459 3.2606 1.4706 0
M  V30 19 C 0.4829 4.8965 -0.0105 0
M  V30 20 C -0.9034 4.2865 -1.8779 0
M  V30 21 C 0.4132 -1.9924 -2.4715 0
M  V30 22 C -0.3506 5.2653 -1.0648 0
M  V30 23 N -0.9141 -2.391 -1.9565 0
M  V30 24 C -1.3456 -3.6368 -2.5989 0
M  V30 25 C -1.924 -1.3567 -2.1951 0
M  V30 26 H -0.7862 -5.4016 2.6503 0
M  V30 27 H -1.153 -2.1954 4.1621 0
M  V30 28 H -1.9203 -2.1715 2.5717 0
M  V30 29 H -0.9811 -0.9135 0.7127 0
M  V30 30 H 1.0866 -1.073 4.4965 0
M  V30 31 H 2.5373 0.7948 3.7744 0
M  V30 32 H 0.8502 0.8132 -2.4469 0
M  V30 33 H -1.0794 2.1954 -2.2779 0
M  V30 34 H 1.2845 -1.583 -0.5312 0
M  V30 35 H 2.2809 -1.1213 -1.8812 0
M  V30 36 H 2.4025 4.0513 1.5487 0
M  V30 37 H 1.0188 3.3461 2.37 0
M  V30 38 H 0.8866 5.6781 0.631 0
M  V30 39 H -1.5676 4.563 -2.692 0
M  V30 40 H 0.3318 -1.5262 -3.4624 0
M  V30 41 H 1.0156 -2.9 -2.6168 0
M  V30 42 H -0.5774 6.3136 -1.2399 0
M  V30 43 H -0.6444 -4.4488 -2.376 0
M  V30 44 H -1.4244 -3.5349 -3.6874 0
M  V30 45 H -2.3191 -3.9556 -2.2093 0
M  V30 46 H -2.0239 -1.1121 -3.2588 0
M  V30 47 H -1.7014 -0.4382 -1.6492 0
M  V30 48 H -2.9031 -1.6881 -1.8297 0
M  V30 END ATOM
M  V30 BEGIN BOND
M  V30 1 2 1 2
M  V30 2 1 2 3
M  V30 3 1 2 4
M  V30 4 1 4 5
M  V30 5 2 5 6
M  V30 6 1 5 7
M  V30 7 1 6 8
M  V30 8 2 7 9
M  V30 9 1 8 10
M  V30 10 2 8 11
M  V30 11 1 10 12
M  V30 12 2 10 13
M  V30 13 1 11 14
M  V30 14 2 12 15
M  V30 15 1 12 16
M  V30 16 1 13 17
M  V30 17 1 14 18
M  V30 18 1 15 19
M  V30 19 2 16 20
M  V30 20 1 17 21
M  V30 21 2 19 22
M  V30 22 1 21 23
M  V30 23 1 23 24
M  V30 24 1 23 25
M  V30 25 1 9 11
M  V30 26 1 15 18
M  V30 27 1 20 22
M  V30 28 1 3 26
M  V30 29 1 4 27
M  V30 30 1 4 28
M  V30 31 1 6 29
M  V30 32 1 7 30
M  V30 33 1 9 31
M  V30 34 1 13 32
M  V30 35 1 16 33
M  V30 36 1 17 34
M  V30 37 1 17 35
M  V30 38 1 18 36
M  V30 39 1 18 37
M  V30 40 1 19 38
M  V30 41 1 20 39
M  V30 42 1 21 40
M  V30 43 1 21 41
M  V30 44 1 22 42
M  V30 45 1 24 43
M  V30 46 1 24 44
M  V30 47 1 24 45
M  V30 48 1 25 46
M  V30 49 1 25 47
M  V30 50 1 25 48
M  V30 END BOND
M  V30 END CTAB
M  END
>  <NO.>
5497

>  <Name>
olopatadine

>  <SMILES>
CN(C)CC/C=C1/c2ccccc2COc2ccc(CC(=O)O)cc21

>  <logBB>


>  <Class>
-1

>  <MW>
337.17

>  <nHBAcc>
3

>  <nHBDon>
1

>  <SLogP>
3.59

>  <TopoPSA>
49.77

>  <MMFF94 Energy>
91.624

$$$$
CN(C)CCOC(=O)C(c1ccccc1)C1(O)CCCC1
Actelion Java MolfileCreator 2.0

  0  0  0  0  0  0              0 V3000
M  V30 BEGIN CTAB
M  V30 COUNTS 46 47 0 0 0
M  V30 BEGIN ATOM
M  V30 1 O 1.9728 -0.7887 0.1577 0
M  V30 2 C 0.9718 -0.0822 0.1465 0
M  V30 3 O 0.9955 1.2817 0.1064 0
M  V30 4 C -0.4735 -0.577 0.1946 0 CFG=1
M  V30 5 C 2.3099 1.8526 0.0498 0
M  V30 6 C -0.7894 -1.6053 -0.8885 0
M  V30 7 C -0.8513 -0.9666 1.6475 0
M  V30 8 C 2.2013 3.3814 -0.0811 0
M  V30 9 C -1.923 -1.4182 -1.7011 0
M  V30 10 C -0.0041 -2.7472 -1.1042 0
M  V30 11 O -0.8339 0.2237 2.4637 0
M  V30 12 C 0.0427 -1.9999 2.3408 0
M  V30 13 C -2.2409 -1.6033 1.8053 0
M  V30 14 N 1.4831 3.8603 -1.2826 0
M  V30 15 C -2.2584 -2.3434 -2.6918 0
M  V30 16 C -0.3404 -3.6718 -2.0961 0
M  V30 17 C -0.7734 -2.4777 3.5454 0
M  V30 18 C -2.2351 -2.1688 3.2248 0
M  V30 19 C 2.1812 3.5082 -2.5195 0
M  V30 20 C 1.2993 5.3118 -1.2097 0
M  V30 21 C -1.4672 -3.471 -2.8884 0
M  V30 22 H -1.0804 0.3079 -0.0548 0
M  V30 23 H 2.8761 1.4249 -0.7847 0
M  V30 24 H 2.8344 1.6171 0.9838 0
M  V30 25 H 1.6542 3.7367 0.8021 0
M  V30 26 H 3.2083 3.8158 -0.0385 0
M  V30 27 H -2.5605 -0.5457 -1.5696 0
M  V30 28 H 0.8897 -2.9337 -0.512 0
M  V30 29 H -1.5246 0.8286 2.1399 0
M  V30 30 H 0.9977 -1.5813 2.6751 0
M  V30 31 H 0.2469 -2.859 1.6959 0
M  V30 32 H -3.0557 -0.8828 1.6788 0
M  V30 33 H -2.3946 -2.4296 1.103 0
M  V30 34 H -3.1374 -2.1821 -3.3107 0
M  V30 35 H 0.2837 -4.5484 -2.2507 0
M  V30 36 H -0.6164 -3.5463 3.7257 0
M  V30 37 H -0.4692 -1.9455 4.4541 0
M  V30 38 H -2.8682 -3.0583 3.3047 0
M  V30 39 H -2.6224 -1.4268 3.9329 0
M  V30 40 H 2.2118 2.4237 -2.6622 0
M  V30 41 H 3.207 3.8935 -2.5389 0
M  V30 42 H 1.6488 3.9099 -3.3896 0
M  V30 43 H 2.2547 5.8487 -1.1858 0
M  V30 44 H 0.7269 5.5845 -0.3158 0
M  V30 45 H 0.7224 5.6713 -2.0693 0
M  V30 46 H -1.7254 -4.191 -3.6602 0
M  V30 END ATOM
M  V30 BEGIN BOND
M  V30 1 2 1 2
M  V30 2 1 2 3
M  V30 3 1 2 4
M  V30 4 1 3 5
M  V30 5 1 4 6
M  V30 6 1 4 7
M  V30 7 1 5 8
M  V30 8 2 6 9
M  V30 9 1 6 10
M  V30 10 1 7 11
M  V30 11 1 7 12
M  V30 12 1 7 13
M  V30 13 1 8 14
M  V30 14 1 9 15
M  V30 15 2 10 16
M  V30 16 1 12 17
M  V30 17 1 13 18
M  V30 18 1 14 19
M  V30 19 1 14 20
M  V30 20 2 15 21
M  V30 21 1 16 21
M  V30 22 1 17 18
M  V30 23 1 4 22
M  V30 24 1 5 23
M  V30 25 1 5 24
M  V30 26 1 8 25
M  V30 27 1 8 26
M  V30 28 1 9 27
M  V30 29 1 10 28
M  V30 30 1 11 29
M  V30 31 1 12 30
M  V30 32 1 12 31
M  V30 33 1 13 32
M  V30 34 1 13 33
M  V30 35 1 15 34
M  V30 36 1 16 35
M  V30 37 1 17 36
M  V30 38 1 17 37
M  V30 39 1 18 38
M  V30 40 1 18 39
M  V30 41 1 19 40
M  V30 42 1 19 41
M  V30 43 1 19 42
M  V30 44 1 20 43
M  V30 45 1 20 44
M  V30 46 1 20 45
M  V30 47 1 21 46
M  V30 END BOND
M  V30 BEGIN COLLECTION
M  V30 MDLV30/STERAC1 ATOMS=(1 4)
M  V30 END COLLECTION
M  V30 END CTAB
M  END
>  <NO.>
5498

>  <Name>
cyclopentolate

>  <SMILES>
CN(C)CCOC(=O)C(c1ccccc1)C1(O)CCCC1

>  <logBB>


>  <Class>
-1

>  <MW>
291.18

>  <nHBAcc>
4

>  <nHBDon>
1

>  <SLogP>
2.18

>  <TopoPSA>
49.77

>  <MMFF94 Energy>
81.181

$$$$
CN(C/C=C/c1ccccc1)Cc1cccc2ccccc12
Actelion Java MolfileCreator 2.0

  0  0  0  0  0  0              0 V3000
M  V30 BEGIN CTAB
M  V30 COUNTS 43 45 0 0 0
M  V30 BEGIN ATOM
M  V30 1 N -0.0791 1.4251 -0.9499 0
M  V30 2 C 0.2197 1.0057 -2.335 0
M  V30 3 C 0.5158 0.4926 0.0223 0
M  V30 4 C 0.4184 2.7898 -0.7411 0
M  V30 5 C -0.5059 -0.2638 -2.7545 0
M  V30 6 C 0.0263 0.7545 1.419 0
M  V30 7 C 0.1593 -1.4836 -3.0785 0
M  V30 8 C -1.9126 -0.1984 -2.8223 0
M  V30 9 C 0.8327 0.984 2.4686 0
M  V30 10 C -0.6273 -2.5979 -3.4754 0
M  V30 11 C 1.5623 -1.6717 -3.0271 0
M  V30 12 C -2.6649 -1.2998 -3.2099 0
M  V30 13 C 0.358 1.2348 3.8366 0
M  V30 14 C -2.0243 -2.4895 -3.5369 0
M  V30 15 C -0.0128 -3.8173 -3.8057 0
M  V30 16 C 2.1584 -2.8922 -3.3579 0
M  V30 17 C -0.8046 1.9701 4.1028 0
M  V30 18 C 1.124 0.773 4.9151 0
M  V30 19 C 1.3707 -3.9646 -3.749 0
M  V30 20 C -1.2062 2.2154 5.4188 0
M  V30 21 C 0.7223 1.0176 6.2311 0
M  V30 22 C -0.444 1.737 6.4823 0
M  V30 23 H -0.1228 1.785 -3.0315 0
M  V30 24 H 1.3003 0.9461 -2.494 0
M  V30 25 H 1.6122 0.521 -0.0285 0
M  V30 26 H 0.2166 -0.537 -0.2054 0
M  V30 27 H 0.1401 3.1711 0.247 0
M  V30 28 H 1.508 2.8525 -0.8432 0
M  V30 29 H -0.0334 3.4779 -1.4651 0
M  V30 30 H -1.0535 0.7252 1.5439 0
M  V30 31 H -2.4228 0.7271 -2.5592 0
M  V30 32 H 1.9119 0.9779 2.3362 0
M  V30 33 H 2.2262 -0.8698 -2.7196 0
M  V30 34 H -3.7484 -1.2318 -3.2538 0
M  V30 35 H -2.6304 -3.3414 -3.8376 0
M  V30 36 H -0.615 -4.6708 -4.1107 0
M  V30 37 H 3.2387 -3.0 -3.3066 0
M  V30 38 H -1.4057 2.3682 3.2888 0
M  V30 39 H 2.037 0.2087 4.74 0
M  V30 40 H 1.8286 -4.9156 -4.0067 0
M  V30 41 H -2.1125 2.7839 5.611 0
M  V30 42 H 1.3209 0.6462 7.0587 0
M  V30 43 H -0.7569 1.9278 7.5055 0
M  V30 END ATOM
M  V30 BEGIN BOND
M  V30 1 1 1 2
M  V30 2 1 1 3
M  V30 3 1 1 4
M  V30 4 1 2 5
M  V30 5 1 3 6
M  V30 6 1 5 7
M  V30 7 2 5 8
M  V30 8 2 6 9
M  V30 9 1 7 10
M  V30 10 2 7 11
M  V30 11 1 8 12
M  V30 12 1 9 13
M  V30 13 1 10 14
M  V30 14 2 10 15
M  V30 15 1 11 16
M  V30 16 2 13 17
M  V30 17 1 13 18
M  V30 18 1 15 19
M  V30 19 1 17 20
M  V30 20 2 18 21
M  V30 21 2 20 22
M  V30 22 2 12 14
M  V30 23 2 16 19
M  V30 24 1 21 22
M  V30 25 1 2 23
M  V30 26 1 2 24
M  V30 27 1 3 25
M  V30 28 1 3 26
M  V30 29 1 4 27
M  V30 30 1 4 28
M  V30 31 1 4 29
M  V30 32 1 6 30
M  V30 33 1 8 31
M  V30 34 1 9 32
M  V30 35 1 11 33
M  V30 36 1 12 34
M  V30 37 1 14 35
M  V30 38 1 15 36
M  V30 39 1 16 37
M  V30 40 1 17 38
M  V30 41 1 18 39
M  V30 42 1 19 40
M  V30 43 1 20 41
M  V30 44 1 21 42
M  V30 45 1 22 43
M  V30 END BOND
M  V30 END CTAB
M  END
>  <NO.>
5499

>  <Name>
naftifine

>  <SMILES>
CN(C/C=C/c1ccccc1)Cc1cccc2ccccc12

>  <logBB>


>  <Class>
-1

>  <MW>
287.17

>  <nHBAcc>
1

>  <nHBDon>
0

>  <SLogP>
4.99

>  <TopoPSA>
3.24

>  <MMFF94 Energy>
52.746

$$$$
CN(CCCl)CCCl
Actelion Java MolfileCreator 2.0

  0  0  0  0  0  0              0 V3000
M  V30 BEGIN CTAB
M  V30 COUNTS 19 18 0 0 0
M  V30 BEGIN ATOM
M  V30 1 Cl 0.2408 -1.0441 -3.9398 0
M  V30 2 C -0.1956 0.0252 -2.5799 0
M  V30 3 C 0.1982 -0.6191 -1.245 0
M  V30 4 N -0.219 0.1629 -0.0552 0
M  V30 5 C -0.0529 -0.6691 1.1619 0
M  V30 6 C 0.5503 1.4085 0.051 0
M  V30 7 C -0.7165 -0.0784 2.4121 0
M  V30 8 Cl -0.5655 -1.2046 3.7877 0
M  V30 9 H -1.2748 0.1991 -2.6298 0
M  V30 10 H 0.3218 0.9729 -2.747 0
M  V30 11 H -0.2918 -1.6011 -1.2071 0
M  V30 12 H 1.2803 -0.8044 -1.2192 0
M  V30 13 H 1.0119 -0.8579 1.3524 0
M  V30 14 H -0.5204 -1.6466 0.9834 0
M  V30 15 H 0.2173 2.0091 0.903 0
M  V30 16 H 1.6244 1.2209 0.1592 0
M  V30 17 H 0.3977 2.045 -0.8258 0
M  V30 18 H -0.2488 0.8593 2.7214 0
M  V30 19 H -1.7836 0.0979 2.2455 0
M  V30 END ATOM
M  V30 BEGIN BOND
M  V30 1 1 1 2
M  V30 2 1 2 3
M  V30 3 1 3 4
M  V30 4 1 4 5
M  V30 5 1 4 6
M  V30 6 1 5 7
M  V30 7 1 7 8
M  V30 8 1 2 9
M  V30 9 1 2 10
M  V30 10 1 3 11
M  V30 11 1 3 12
M  V30 12 1 5 13
M  V30 13 1 5 14
M  V30 14 1 6 15
M  V30 15 1 6 16
M  V30 16 1 6 17
M  V30 17 1 7 18
M  V30 18 1 7 19
M  V30 END BOND
M  V30 END CTAB
M  END
>  <NO.>
5500

>  <Name>
mechlorethamine

>  <SMILES>
CN(CCCl)CCCl

>  <logBB>


>  <Class>
-1

>  <MW>
155.03

>  <nHBAcc>
1

>  <nHBDon>
0

>  <SLogP>
1.4

>  <TopoPSA>
3.24

>  <MMFF94 Energy>
38.298

$$$$
CNC[C@H](O)c1cccc(O)c1
Actelion Java MolfileCreator 2.0

  0  0  0  0  0  0              0 V3000
M  V30 BEGIN CTAB
M  V30 COUNTS 25 25 0 0 0
M  V30 BEGIN ATOM
M  V30 1 O -0.3105 -4.1215 -0.3105 0
M  V30 2 C -0.6274 -2.8293 -0.6129 0
M  V30 3 C 0.3656 -1.8669 -0.4571 0
M  V30 4 C -1.8971 -2.4812 -1.0601 0
M  V30 5 C 0.1013 -0.5204 -0.7538 0
M  V30 6 C -2.1743 -1.1469 -1.3533 0
M  V30 7 C -1.1832 -0.174 -1.1997 0
M  V30 8 C 1.1873 0.5166 -0.5635 0 CFG=1
M  V30 9 O 1.029 1.592 -1.5016 0
M  V30 10 C 1.2563 1.0873 0.8787 0
M  V30 11 N 0.1055 1.9414 1.213 0
M  V30 12 C 0.3291 2.7004 2.4307 0
M  V30 13 H -1.0973 -4.6707 -0.46 0
M  V30 14 H 1.3458 -2.1743 -0.1025 0
M  V30 15 H -2.677 -3.225 -1.1832 0
M  V30 16 H -3.1628 -0.8578 -1.6998 0
M  V30 17 H -1.416 0.8644 -1.4268 0
M  V30 18 H 2.151 0.0488 -0.8017 0
M  V30 19 H 1.7989 2.1731 -1.3906 0
M  V30 20 H 1.3384 0.2714 1.606 0
M  V30 21 H 2.1692 1.6932 0.9424 0
M  V30 22 H -0.0882 2.5612 0.4248 0
M  V30 23 H 1.1735 3.3893 2.326 0
M  V30 24 H 0.5121 2.0372 3.2823 0
M  V30 25 H -0.5613 3.2935 2.6607 0
M  V30 END ATOM
M  V30 BEGIN BOND
M  V30 1 1 1 2
M  V30 2 2 2 3
M  V30 3 1 2 4
M  V30 4 1 3 5
M  V30 5 2 4 6
M  V30 6 2 5 7
M  V30 7 1 5 8
M  V30 8 1 8 9
M  V30 9 1 8 10
M  V30 10 1 10 11
M  V30 11 1 11 12
M  V30 12 1 6 7
M  V30 13 1 1 13
M  V30 14 1 3 14
M  V30 15 1 4 15
M  V30 16 1 6 16
M  V30 17 1 7 17
M  V30 18 1 8 18
M  V30 19 1 9 19
M  V30 20 1 10 20
M  V30 21 1 10 21
M  V30 22 1 11 22
M  V30 23 1 12 23
M  V30 24 1 12 24
M  V30 25 1 12 25
M  V30 END BOND
M  V30 BEGIN COLLECTION
M  V30 MDLV30/STEABS ATOMS=(1 8)
M  V30 END COLLECTION
M  V30 END CTAB
M  END
>  <NO.>
5502

>  <Name>
phenylephrine

>  <SMILES>
CNC[C@H](O)c1cccc(O)c1

>  <logBB>


>  <Class>
1

>  <MW>
167.09

>  <nHBAcc>
3

>  <nHBDon>
3

>  <SLogP>
0.64

>  <TopoPSA>
52.49

>  <MMFF94 Energy>
43.465

$$$$
COC(=O)C1=C(C)NC(C)=C(C(=O)OCC(C)C)C1c1ccccc1[N+](=O)[O-]
Actelion Java MolfileCreator 2.0

  0  0  0  0  0  0              0 V3000
M  V30 BEGIN CTAB
M  V30 COUNTS 52 53 0 0 0
M  V30 BEGIN ATOM
M  V30 1 O 2.2986 0.7921 0.9506 0
M  V30 2 N 1.8642 1.949 0.8947 0 CHG=1
M  V30 3 O 1.9747 2.8051 1.7826 0 CHG=-1
M  V30 4 C 1.1988 2.3512 -0.3335 0
M  V30 5 C 0.0336 1.7043 -0.7923 0
M  V30 6 C 1.7854 3.4168 -1.0356 0
M  V30 7 C -0.5164 2.1719 -2.0051 0
M  V30 8 C -0.6785 0.5699 -0.0386 0 CFG=2
M  V30 9 C 1.2145 3.8511 -2.2283 0
M  V30 10 C 0.0677 3.2276 -2.7124 0
M  V30 11 C -0.7392 -0.6956 -0.8866 0
M  V30 12 C -2.066 1.0242 0.428 0
M  V30 13 C -1.9085 -1.2519 -1.2695 0
M  V30 14 C 0.5477 -1.3007 -1.2672 0
M  V30 15 C -3.1934 0.4074 0.0035 0
M  V30 16 C -2.1259 2.1964 1.3314 0
M  V30 17 N -3.0991 -0.6789 -0.8531 0
M  V30 18 C -2.0336 -2.4965 -2.1098 0
M  V30 19 O 0.9882 -1.3266 -2.4042 0
M  V30 20 O 1.1183 -1.822 -0.1569 0
M  V30 21 C -4.5902 0.788 0.4271 0
M  V30 22 O -2.9214 3.116 1.2274 0
M  V30 23 O -1.1563 2.0813 2.2715 0
M  V30 24 C 2.4069 -2.41 -0.3772 0
M  V30 25 C -1.1034 3.173 3.192 0
M  V30 26 C 2.9488 -2.9391 0.9561 0
M  V30 27 C 2.0483 -4.037 1.5265 0
M  V30 28 C 4.3748 -3.457 0.7839 0
M  V30 29 H 2.6822 3.9064 -0.661 0
M  V30 30 H -1.4189 1.7156 -2.4131 0
M  V30 31 H -0.1268 0.2986 0.8678 0
M  V30 32 H 1.6615 4.6735 -2.7819 0
M  V30 33 H -0.3805 3.5645 -3.6451 0
M  V30 34 H -3.9651 -1.1187 -1.1559 0
M  V30 35 H -1.0793 -2.9935 -2.3009 0
M  V30 36 H -2.6787 -3.2256 -1.6069 0
M  V30 37 H -2.4841 -2.2504 -3.0771 0
M  V30 38 H -5.0443 1.446 -0.3205 0
M  V30 39 H -5.2193 -0.1045 0.5215 0
M  V30 40 H -4.62 1.2831 1.4016 0
M  V30 41 H 2.3166 -3.2264 -1.1043 0
M  V30 42 H 3.0843 -1.6458 -0.7775 0
M  V30 43 H -0.3035 2.9724 3.91 0
M  V30 44 H -0.873 4.1046 2.6658 0
M  V30 45 H -2.0471 3.2593 3.7397 0
M  V30 46 H 2.9592 -2.1148 1.6806 0
M  V30 47 H 1.9727 -4.8853 0.8379 0
M  V30 48 H 1.037 -3.6617 1.7145 0
M  V30 49 H 2.4449 -4.4078 2.4777 0
M  V30 50 H 4.4128 -4.2886 0.0722 0
M  V30 51 H 5.0342 -2.6643 0.415 0
M  V30 52 H 4.7789 -3.8094 1.7388 0
M  V30 END ATOM
M  V30 BEGIN BOND
M  V30 1 2 1 2
M  V30 2 1 2 3
M  V30 3 1 2 4
M  V30 4 2 4 5
M  V30 5 1 4 6
M  V30 6 1 5 7
M  V30 7 1 5 8
M  V30 8 2 6 9
M  V30 9 2 7 10
M  V30 10 1 8 11
M  V30 11 1 8 12
M  V30 12 2 11 13
M  V30 13 1 11 14
M  V30 14 2 12 15
M  V30 15 1 12 16
M  V30 16 1 13 17
M  V30 17 1 13 18
M  V30 18 2 14 19
M  V30 19 1 14 20
M  V30 20 1 15 21
M  V30 21 2 16 22
M  V30 22 1 16 23
M  V30 23 1 20 24
M  V30 24 1 23 25
M  V30 25 1 24 26
M  V30 26 1 26 27
M  V30 27 1 26 28
M  V30 28 1 9 10
M  V30 29 1 15 17
M  V30 30 1 6 29
M  V30 31 1 7 30
M  V30 32 1 8 31
M  V30 33 1 9 32
M  V30 34 1 10 33
M  V30 35 1 17 34
M  V30 36 1 18 35
M  V30 37 1 18 36
M  V30 38 1 18 37
M  V30 39 1 21 38
M  V30 40 1 21 39
M  V30 41 1 21 40
M  V30 42 1 24 41
M  V30 43 1 24 42
M  V30 44 1 25 43
M  V30 45 1 25 44
M  V30 46 1 25 45
M  V30 47 1 26 46
M  V30 48 1 27 47
M  V30 49 1 27 48
M  V30 50 1 27 49
M  V30 51 1 28 50
M  V30 52 1 28 51
M  V30 53 1 28 52
M  V30 END BOND
M  V30 BEGIN COLLECTION
M  V30 MDLV30/STERAC1 ATOMS=(1 8)
M  V30 END COLLECTION
M  V30 END CTAB
M  END
>  <NO.>
5506

>  <Name>
nisoldipine

>  <SMILES>
COC(=O)C1=C(C)NC(C)=C(C(=O)OCC(C)C)C1c1ccccc1[N+](=O)[O-]

>  <logBB>


>  <Class>
-1

>  <MW>
388.16

>  <nHBAcc>
7

>  <nHBDon>
1

>  <SLogP>
3.2

>  <TopoPSA>
107.77

>  <MMFF94 Energy>
40.914

$$$$
COc1cc(C(=O)NCc2ccc(OCCN(C)C)cc2)cc(OC)c1OC
Actelion Java MolfileCreator 2.0

  0  0  0  0  0  0              0 V3000
M  V30 BEGIN CTAB
M  V30 COUNTS 56 57 0 0 0
M  V30 BEGIN ATOM
M  V30 1 O 3.69 0.7057 -2.197 0
M  V30 2 C 2.7054 1.1359 -1.6077 0
M  V30 3 N 1.6049 0.3665 -1.3112 0
M  V30 4 C 2.6414 2.5673 -1.2046 0
M  V30 5 C 1.5616 -1.0326 -1.6642 0
M  V30 6 C 3.3499 3.4987 -1.9778 0
M  V30 7 C 1.9211 2.9808 -0.0744 0
M  V30 8 C 0.3839 -1.7038 -1.0113 0
M  V30 9 C 3.3257 4.8525 -1.6444 0
M  V30 10 C 1.8833 4.3322 0.2722 0
M  V30 11 C -0.8612 -1.7383 -1.6494 0
M  V30 12 C 0.5015 -2.2564 0.2709 0
M  V30 13 O 3.9696 5.8428 -2.3394 0
M  V30 14 C 2.5995 5.2566 -0.51 0
M  V30 15 O 1.2098 4.8443 1.3511 0
M  V30 16 C -1.9583 -2.3311 -1.0205 0
M  V30 17 C -0.5995 -2.8516 0.8972 0
M  V30 18 C 4.664 5.4687 -3.5218 0
M  V30 19 O 2.5273 6.5967 -0.1961 0
M  V30 20 C 0.3375 3.973 2.0574 0
M  V30 21 C -1.8343 -2.8946 0.251 0
M  V30 22 C 3.604 6.9498 0.6706 0
M  V30 23 O -2.9859 -3.4361 0.749 0
M  V30 24 C -2.8891 -4.1641 1.9743 0
M  V30 25 C -4.2637 -4.7669 2.3279 0
M  V30 26 N -4.7904 -5.7635 1.3718 0
M  V30 27 C -6.1643 -6.1245 1.7269 0
M  V30 28 C -3.9589 -6.964 1.3025 0
M  V30 29 H 0.7618 0.7859 -0.9451 0
M  V30 30 H 1.4987 -1.1101 -2.7559 0
M  V30 31 H 2.5001 -1.5129 -1.3631 0
M  V30 32 H 3.9068 3.1352 -2.8363 0
M  V30 33 H 1.424 2.2385 0.5385 0
M  V30 34 H -0.987 -1.3065 -2.6399 0
M  V30 35 H 1.4564 -2.2259 0.7923 0
M  V30 36 H -2.9206 -2.3595 -1.5268 0
M  V30 37 H -0.459 -3.266 1.8895 0
M  V30 38 H 5.4933 4.7914 -3.2935 0
M  V30 39 H 5.0881 6.3766 -3.9614 0
M  V30 40 H 3.9835 5.0291 -4.2584 0
M  V30 41 H -0.4171 3.5398 1.3927 0
M  V30 42 H -0.1858 4.5649 2.8145 0
M  V30 43 H 0.9017 3.1923 2.5775 0
M  V30 44 H 3.5608 6.389 1.6107 0
M  V30 45 H 3.5066 8.0134 0.9083 0
M  V30 46 H 4.5745 6.8005 0.1852 0
M  V30 47 H -2.6095 -3.4741 2.7802 0
M  V30 48 H -2.1299 -4.9506 1.9034 0
M  V30 49 H -4.2093 -5.2023 3.3341 0
M  V30 50 H -4.9741 -3.9308 2.3718 0
M  V30 51 H -6.8107 -5.2397 1.7207 0
M  V30 52 H -6.2258 -6.5908 2.7168 0
M  V30 53 H -6.5834 -6.8198 0.9909 0
M  V30 54 H -3.8417 -7.4419 2.2816 0
M  V30 55 H -2.9659 -6.7362 0.9033 0
M  V30 56 H -4.3968 -7.6969 0.615 0
M  V30 END ATOM
M  V30 BEGIN BOND
M  V30 1 2 1 2
M  V30 2 1 2 3
M  V30 3 1 2 4
M  V30 4 1 3 5
M  V30 5 2 4 6
M  V30 6 1 4 7
M  V30 7 1 5 8
M  V30 8 1 6 9
M  V30 9 2 7 10
M  V30 10 2 8 11
M  V30 11 1 8 12
M  V30 12 1 9 13
M  V30 13 2 9 14
M  V30 14 1 10 15
M  V30 15 1 11 16
M  V30 16 2 12 17
M  V30 17 1 13 18
M  V30 18 1 14 19
M  V30 19 1 15 20
M  V30 20 2 16 21
M  V30 21 1 19 22
M  V30 22 1 21 23
M  V30 23 1 23 24
M  V30 24 1 24 25
M  V30 25 1 25 26
M  V30 26 1 26 27
M  V30 27 1 26 28
M  V30 28 1 10 14
M  V30 29 1 17 21
M  V30 30 1 3 29
M  V30 31 1 5 30
M  V30 32 1 5 31
M  V30 33 1 6 32
M  V30 34 1 7 33
M  V30 35 1 11 34
M  V30 36 1 12 35
M  V30 37 1 16 36
M  V30 38 1 17 37
M  V30 39 1 18 38
M  V30 40 1 18 39
M  V30 41 1 18 40
M  V30 42 1 20 41
M  V30 43 1 20 42
M  V30 44 1 20 43
M  V30 45 1 22 44
M  V30 46 1 22 45
M  V30 47 1 22 46
M  V30 48 1 24 47
M  V30 49 1 24 48
M  V30 50 1 25 49
M  V30 51 1 25 50
M  V30 52 1 27 51
M  V30 53 1 27 52
M  V30 54 1 27 53
M  V30 55 1 28 54
M  V30 56 1 28 55
M  V30 57 1 28 56
M  V30 END BOND
M  V30 END CTAB
M  END
>  <NO.>
5515

>  <Name>
trimethobenzamide

>  <SMILES>
COc1cc(C(=O)NCc2ccc(OCCN(C)C)cc2)cc(OC)c1OC

>  <logBB>


>  <Class>
1

>  <MW>
388.2

>  <nHBAcc>
6

>  <nHBDon>
1

>  <SLogP>
2.58

>  <TopoPSA>
69.26

>  <MMFF94 Energy>
80.536

$$$$
COc1cc(CNC(=O)CCCC/C=C/C(C)C)ccc1O
Actelion Java MolfileCreator 2.0

  0  0  0  0  0  0              0 V3000
M  V30 BEGIN CTAB
M  V30 COUNTS 49 49 0 0 0
M  V30 BEGIN ATOM
M  V30 1 O -2.0237 -0.9336 -2.1016 0
M  V30 2 C -1.8158 -0.3682 -1.0342 0
M  V30 3 N -2.5402 0.7159 -0.5929 0
M  V30 4 C -0.732 -0.7846 -0.0575 0
M  V30 5 C -3.5973 1.3073 -1.38 0
M  V30 6 C 0.0659 -1.9878 -0.5537 0
M  V30 7 C -3.1314 2.5965 -2.0067 0
M  V30 8 C 1.1524 -2.387 0.447 0
M  V30 9 C -3.4488 3.8361 -1.4234 0
M  V30 10 C -2.3409 2.5657 -3.1639 0
M  V30 11 C 1.9506 -3.5951 -0.0539 0
M  V30 12 C -2.9966 5.0315 -1.9928 0
M  V30 13 C -1.8825 3.75 -3.7386 0
M  V30 14 C 3.0558 -4.0928 0.8406 0
M  V30 15 O -3.2538 6.284 -1.5001 0
M  V30 16 C -2.2113 4.9718 -3.1525 0
M  V30 17 C 3.4277 -3.5985 2.0329 0
M  V30 18 C -4.1136 6.3842 -0.375 0
M  V30 19 O -1.7606 6.1367 -3.7157 0
M  V30 20 C 4.555 -4.1689 2.8603 0
M  V30 21 C 5.6457 -3.1174 3.062 0
M  V30 22 C 4.025 -4.6593 4.2073 0
M  V30 23 H -2.2808 1.1694 0.2721 0
M  V30 24 H -1.208 -1.019 0.9021 0
M  V30 25 H -0.0641 0.071 0.097 0
M  V30 26 H -3.9462 0.6151 -2.1544 0
M  V30 27 H -4.4414 1.4898 -0.7058 0
M  V30 28 H 0.5242 -1.7522 -1.5223 0
M  V30 29 H -0.6106 -2.8349 -0.7222 0
M  V30 30 H 0.6858 -2.6229 1.4115 0
M  V30 31 H 1.8259 -1.536 0.6072 0
M  V30 32 H -4.0509 3.8426 -0.5208 0
M  V30 33 H -2.0763 1.6108 -3.617 0
M  V30 34 H 1.2609 -4.431 -0.2261 0
M  V30 35 H 2.3955 -3.3496 -1.0264 0
M  V30 36 H -1.272 3.7005 -4.6345 0
M  V30 37 H 3.5949 -4.9532 0.4448 0
M  V30 38 H 2.9111 -2.7404 2.4568 0
M  V30 39 H -5.1035 5.9703 -0.5938 0
M  V30 40 H -4.2415 7.4464 -0.1446 0
M  V30 41 H -3.6696 5.9052 0.5037 0
M  V30 42 H -1.2464 5.9242 -4.5095 0
M  V30 43 H 5.0031 -5.0256 2.3411 0
M  V30 44 H 5.2662 -2.2404 3.5988 0
M  V30 45 H 6.0444 -2.7765 2.1001 0
M  V30 46 H 6.4789 -3.5305 3.6406 0
M  V30 47 H 4.8321 -5.0973 4.8043 0
M  V30 48 H 3.5826 -3.8421 4.7885 0
M  V30 49 H 3.2569 -5.4286 4.0698 0
M  V30 END ATOM
M  V30 BEGIN BOND
M  V30 1 2 1 2
M  V30 2 1 2 3
M  V30 3 1 2 4
M  V30 4 1 3 5
M  V30 5 1 4 6
M  V30 6 1 5 7
M  V30 7 1 6 8
M  V30 8 2 7 9
M  V30 9 1 7 10
M  V30 10 1 8 11
M  V30 11 1 9 12
M  V30 12 2 10 13
M  V30 13 1 11 14
M  V30 14 1 12 15
M  V30 15 2 12 16
M  V30 16 2 14 17
M  V30 17 1 15 18
M  V30 18 1 16 19
M  V30 19 1 17 20
M  V30 20 1 20 21
M  V30 21 1 20 22
M  V30 22 1 13 16
M  V30 23 1 3 23
M  V30 24 1 4 24
M  V30 25 1 4 25
M  V30 26 1 5 26
M  V30 27 1 5 27
M  V30 28 1 6 28
M  V30 29 1 6 29
M  V30 30 1 8 30
M  V30 31 1 8 31
M  V30 32 1 9 32
M  V30 33 1 10 33
M  V30 34 1 11 34
M  V30 35 1 11 35
M  V30 36 1 13 36
M  V30 37 1 14 37
M  V30 38 1 17 38
M  V30 39 1 18 39
M  V30 40 1 18 40
M  V30 41 1 18 41
M  V30 42 1 19 42
M  V30 43 1 20 43
M  V30 44 1 21 44
M  V30 45 1 21 45
M  V30 46 1 21 46
M  V30 47 1 22 47
M  V30 48 1 22 48
M  V30 49 1 22 49
M  V30 END BOND
M  V30 END CTAB
M  END
>  <NO.>
5516

>  <Name>
capsaicine

>  <SMILES>
COc1cc(CNC(=O)CCCC/C=C/C(C)C)ccc1O

>  <logBB>


>  <Class>
-1

>  <MW>
305.2

>  <nHBAcc>
3

>  <nHBDon>
2

>  <SLogP>
3.79

>  <TopoPSA>
58.56

>  <MMFF94 Energy>
7.2684

$$$$
C[C@](N)(Cc1ccc(O)cc1)C(=O)O
Actelion Java MolfileCreator 2.0

  0  0  0  0  0  0              0 V3000
M  V30 BEGIN CTAB
M  V30 COUNTS 27 27 0 0 0
M  V30 BEGIN ATOM
M  V30 1 O -1.408 -2.1126 3.131 0
M  V30 2 C -1.0534 -2.271 1.9732 0
M  V30 3 O -1.5326 -3.3195 1.2608 0
M  V30 4 C -0.1381 -1.342 1.1467 0 CFG=1
M  V30 5 N 0.6747 -2.1653 0.2126 0
M  V30 6 C -1.0842 -0.3518 0.4172 0
M  V30 7 C 0.8357 -0.6383 2.0984 0
M  V30 8 C -0.4282 0.6384 -0.5202 0
M  V30 9 C 0.0312 1.8759 -0.0456 0
M  V30 10 C -0.2749 0.3342 -1.8809 0
M  V30 11 C 0.6431 2.7867 -0.9102 0
M  V30 12 C 0.3362 1.2439 -2.7446 0
M  V30 13 C 0.7914 2.4608 -2.2537 0
M  V30 14 O 1.3829 3.319 -3.1325 0
M  V30 15 H -2.0611 -3.8206 1.9164 0
M  V30 16 H 1.1461 -1.552 -0.4518 0
M  V30 17 H 0.0356 -2.7508 -0.3287 0
M  V30 18 H -1.8374 -0.9138 -0.154 0
M  V30 19 H -1.6708 0.2094 1.1589 0
M  V30 20 H 0.3036 0.0295 2.786 0
M  V30 21 H 1.5787 -0.0407 1.5592 0
M  V30 22 H 1.3815 -1.3631 2.7149 0
M  V30 23 H -0.0843 2.1401 1.0035 0
M  V30 24 H -0.6327 -0.6122 -2.28 0
M  V30 25 H 0.9929 3.7368 -0.5192 0
M  V30 26 H 0.4545 1.0053 -3.7978 0
M  V30 27 H 1.6462 4.1208 -2.652 0
M  V30 END ATOM
M  V30 BEGIN BOND
M  V30 1 2 1 2
M  V30 2 1 2 3
M  V30 3 1 2 4
M  V30 4 1 4 5
M  V30 5 1 4 6
M  V30 6 1 4 7
M  V30 7 1 6 8
M  V30 8 2 8 9
M  V30 9 1 8 10
M  V30 10 1 9 11
M  V30 11 2 10 12
M  V30 12 2 11 13
M  V30 13 1 13 14
M  V30 14 1 12 13
M  V30 15 1 3 15
M  V30 16 1 5 16
M  V30 17 1 5 17
M  V30 18 1 6 18
M  V30 19 1 6 19
M  V30 20 1 7 20
M  V30 21 1 7 21
M  V30 22 1 7 22
M  V30 23 1 9 23
M  V30 24 1 10 24
M  V30 25 1 11 25
M  V30 26 1 12 26
M  V30 27 1 14 27
M  V30 END BOND
M  V30 BEGIN COLLECTION
M  V30 MDLV30/STEABS ATOMS=(1 4)
M  V30 END COLLECTION
M  V30 END CTAB
M  END
>  <NO.>
5524

>  <Name>
metyrosine

>  <SMILES>
C[C@](N)(Cc1ccc(O)cc1)C(=O)O

>  <logBB>


>  <Class>
-1

>  <MW>
195.09

>  <nHBAcc>
3

>  <nHBDon>
3

>  <SLogP>
0.74

>  <TopoPSA>
83.55

>  <MMFF94 Energy>
45.922

$$$$
C[N+](C)(C)CCOC(=O)CCC(=O)OCC[N+](C)(C)C
Actelion Java MolfileCreator 2.0

  0  0  0  0  0  0              0 V3000
M  V30 BEGIN CTAB
M  V30 COUNTS 50 49 0 0 0
M  V30 BEGIN ATOM
M  V30 1 O -0.4651 -2.8708 0.9303 0
M  V30 2 C 0.4936 -2.2577 0.4874 0
M  V30 3 O 1.715 -2.8168 0.2337 0
M  V30 4 C 0.5001 -0.794 0.1324 0
M  V30 5 C 1.7977 -4.203 0.6106 0
M  V30 6 C -0.8026 -0.1209 0.5589 0
M  V30 7 C 3.2243 -4.7343 0.4026 0
M  V30 8 C -0.7923 1.3501 0.2364 0
M  V30 9 N 3.6161 -5.0218 -1.07 0 CHG=1
M  V30 10 O 0.1002 1.9384 -0.3551 0
M  V30 11 O -1.933 1.9433 0.6951 0
M  V30 12 C 2.7792 -6.1523 -1.6602 0
M  V30 13 C 5.0854 -5.4646 -1.0799 0
M  V30 14 C 3.4889 -3.7812 -1.9435 0
M  V30 15 C -2.008 3.3553 0.427 0
M  V30 16 C -3.3293 3.8861 0.9986 0
M  V30 17 N -3.5705 5.3958 0.798 0 CHG=1
M  V30 18 C -2.5001 6.2318 1.4922 0
M  V30 19 C -4.9272 5.7417 1.427 0
M  V30 20 C -3.6273 5.7629 -0.6812 0
M  V30 21 H 0.6398 -0.7013 -0.9502 0
M  V30 22 H 1.3474 -0.3174 0.6388 0
M  V30 23 H 1.0615 -4.7875 0.0508 0
M  V30 24 H 1.566 -4.2807 1.6802 0
M  V30 25 H -1.6521 -0.5808 0.0411 0
M  V30 26 H -0.9452 -0.2369 1.6396 0
M  V30 27 H 3.9542 -4.0076 0.7782 0
M  V30 28 H 3.3496 -5.6812 0.94 0
M  V30 29 H 3.1754 -6.3939 -2.6512 0
M  V30 30 H 2.8516 -7.0192 -0.9973 0
M  V30 31 H 1.7429 -5.8182 -1.7496 0
M  V30 32 H 5.1798 -6.3584 -0.4562 0
M  V30 33 H 5.3756 -5.6859 -2.1114 0
M  V30 34 H 5.6939 -4.6484 -0.6792 0
M  V30 35 H 3.9244 -4.0024 -2.9228 0
M  V30 36 H 2.43 -3.5397 -2.0642 0
M  V30 37 H 4.0295 -2.9609 -1.463 0
M  V30 38 H -1.9677 3.5094 -0.656 0
M  V30 39 H -1.156 3.8492 0.9053 0
M  V30 40 H -4.1744 3.3589 0.5383 0
M  V30 41 H -3.3753 3.6911 2.0774 0
M  V30 42 H -2.7832 7.2863 1.4187 0
M  V30 43 H -2.4449 5.9214 2.5395 0
M  V30 44 H -1.5442 6.0695 0.9882 0
M  V30 45 H -4.8865 5.4927 2.4916 0
M  V30 46 H -5.1109 6.8118 1.2915 0
M  V30 47 H -5.7002 5.1543 0.9228 0
M  V30 48 H -3.9157 6.8151 -0.7657 0
M  V30 49 H -2.6374 5.6144 -1.1195 0
M  V30 50 H -4.3679 5.1218 -1.1677 0
M  V30 END ATOM
M  V30 BEGIN BOND
M  V30 1 2 1 2
M  V30 2 1 2 3
M  V30 3 1 2 4
M  V30 4 1 3 5
M  V30 5 1 4 6
M  V30 6 1 5 7
M  V30 7 1 6 8
M  V30 8 1 7 9
M  V30 9 2 8 10
M  V30 10 1 8 11
M  V30 11 1 9 12
M  V30 12 1 9 13
M  V30 13 1 9 14
M  V30 14 1 11 15
M  V30 15 1 15 16
M  V30 16 1 16 17
M  V30 17 1 17 18
M  V30 18 1 17 19
M  V30 19 1 17 20
M  V30 20 1 4 21
M  V30 21 1 4 22
M  V30 22 1 5 23
M  V30 23 1 5 24
M  V30 24 1 6 25
M  V30 25 1 6 26
M  V30 26 1 7 27
M  V30 27 1 7 28
M  V30 28 1 12 29
M  V30 29 1 12 30
M  V30 30 1 12 31
M  V30 31 1 13 32
M  V30 32 1 13 33
M  V30 33 1 13 34
M  V30 34 1 14 35
M  V30 35 1 14 36
M  V30 36 1 14 37
M  V30 37 1 15 38
M  V30 38 1 15 39
M  V30 39 1 16 40
M  V30 40 1 16 41
M  V30 41 1 18 42
M  V30 42 1 18 43
M  V30 43 1 18 44
M  V30 44 1 19 45
M  V30 45 1 19 46
M  V30 46 1 19 47
M  V30 47 1 20 48
M  V30 48 1 20 49
M  V30 49 1 20 50
M  V30 END BOND
M  V30 END CTAB
M  END
>  <NO.>
5527

>  <Name>
succinylcholine

>  <SMILES>
C[N+](C)(C)CCOC(=O)CCC(=O)OCC[N+](C)(C)C

>  <logBB>


>  <Class>
-1

>  <MW>
290.22

>  <nHBAcc>
4

>  <nHBDon>
0

>  <SLogP>
0.27

>  <TopoPSA>
52.6

>  <MMFF94 Energy>
63.398

$$$$
Cc1cc(Br)cnc1NC(=O)C(C)(C)C
Actelion Java MolfileCreator 2.0

  0  0  0  0  0  0              0 V3000
M  V30 BEGIN CTAB
M  V30 COUNTS 30 30 0 0 0
M  V30 BEGIN ATOM
M  V30 1 Br -2.3868 3.2631 -4.6184 0
M  V30 2 C -1.6258 2.3301 -3.1691 0
M  V30 3 C -2.2908 1.2748 -2.5744 0
M  V30 4 C -0.3816 2.6908 -2.6674 0
M  V30 5 N -1.7981 0.5765 -1.5267 0
M  V30 6 C 0.1682 1.9761 -1.5928 0
M  V30 7 C -0.5762 0.913 -1.065 0
M  V30 8 C 1.5149 2.3611 -1.0554 0
M  V30 9 N -0.0839 0.2246 0.0485 0
M  V30 10 C -0.1631 -1.1472 0.1896 0
M  V30 11 O -0.5223 -1.9202 -0.6951 0
M  V30 12 C 0.309 -1.6626 1.5685 0
M  V30 13 C 0.1129 -3.1878 1.6408 0
M  V30 14 C 1.8009 -1.3498 1.7599 0
M  V30 15 C -0.5157 -1.0114 2.6896 0
M  V30 16 H -3.2659 0.9456 -2.9207 0
M  V30 17 H 0.1637 3.5194 -3.1121 0
M  V30 18 H 1.9971 3.117 -1.6843 0
M  V30 19 H 1.4156 2.7778 -0.048 0
M  V30 20 H 2.1797 1.4917 -1.026 0
M  V30 21 H 0.3765 0.7736 0.7557 0
M  V30 22 H 0.6933 -3.7009 0.8653 0
M  V30 23 H 0.4308 -3.585 2.6114 0
M  V30 24 H -0.9392 -3.4594 1.497 0
M  V30 25 H 2.3948 -1.7502 0.9304 0
M  V30 26 H 1.9923 -0.2723 1.8052 0
M  V30 27 H 2.1808 -1.788 2.6896 0
M  V30 28 H -1.5888 -1.1628 2.5253 0
M  V30 29 H -0.3454 0.0687 2.7508 0
M  V30 30 H -0.2606 -1.4367 3.6669 0
M  V30 END ATOM
M  V30 BEGIN BOND
M  V30 1 1 1 2
M  V30 2 2 2 3
M  V30 3 1 2 4
M  V30 4 1 3 5
M  V30 5 2 4 6
M  V30 6 2 5 7
M  V30 7 1 6 8
M  V30 8 1 7 9
M  V30 9 1 9 10
M  V30 10 2 10 11
M  V30 11 1 10 12
M  V30 12 1 12 13
M  V30 13 1 12 14
M  V30 14 1 12 15
M  V30 15 1 6 7
M  V30 16 1 3 16
M  V30 17 1 4 17
M  V30 18 1 8 18
M  V30 19 1 8 19
M  V30 20 1 8 20
M  V30 21 1 9 21
M  V30 22 1 13 22
M  V30 23 1 13 23
M  V30 24 1 13 24
M  V30 25 1 14 25
M  V30 26 1 14 26
M  V30 27 1 14 27
M  V30 28 1 15 28
M  V30 29 1 15 29
M  V30 30 1 15 30
M  V30 END BOND
M  V30 END CTAB
M  END
>  <NO.>
5528

>  <Name>
mivacuriumchloride

>  <SMILES>
Cc1cc(Br)cnc1NC(=O)C(C)(C)C

>  <logBB>


>  <Class>
-1

>  <MW>
270.04

>  <nHBAcc>
2

>  <nHBDon>
1

>  <SLogP>
3.14

>  <TopoPSA>
41.99

>  <MMFF94 Energy>
0.22775

$$$$
Cc1cc(C2CCCCC2)n(O)c(=O)c1
Actelion Java MolfileCreator 2.0

  0  0  0  0  0  0              0 V3000
M  V30 BEGIN CTAB
M  V30 COUNTS 32 33 0 0 0
M  V30 BEGIN ATOM
M  V30 1 O -2.1367 1.1866 3.6425 0
M  V30 2 C -1.6288 0.4084 2.838 0
M  V30 3 N -1.1554 0.7903 1.6003 0
M  V30 4 C -1.4871 -1.0342 3.1513 0
M  V30 5 O -1.2822 2.1597 1.2772 0
M  V30 6 C -0.5743 -0.0373 0.6575 0
M  V30 7 C -0.9303 -1.8607 2.2505 0
M  V30 8 C -0.4662 -1.3447 0.9714 0
M  V30 9 C -0.1199 0.5746 -0.6654 0
M  V30 10 C -0.7566 -3.3284 2.5 0
M  V30 11 C 1.2498 1.2616 -0.5026 0
M  V30 12 C -0.0683 -0.4111 -1.8527 0
M  V30 13 C 1.6949 1.9493 -1.7929 0
M  V30 14 C 0.3566 0.2901 -3.1425 0
M  V30 15 C 1.7021 0.989 -2.9775 0
M  V30 16 H -1.8511 -1.3566 4.1179 0
M  V30 17 H -1.7074 2.5096 2.0882 0
M  V30 18 H -0.0207 -2.0587 0.2865 0
M  V30 19 H -0.8571 1.3378 -0.9532 0
M  V30 20 H -1.1347 -3.6216 3.4854 0
M  V30 21 H 0.3025 -3.6036 2.4562 0
M  V30 22 H -1.2992 -3.9133 1.7495 0
M  V30 23 H 2.0055 0.5206 -0.21 0
M  V30 24 H 1.2172 2.0081 0.2997 0
M  V30 25 H -1.0518 -0.8733 -2.0011 0
M  V30 26 H 0.6444 -1.2207 -1.6535 0
M  V30 27 H 2.6965 2.3728 -1.6569 0
M  V30 28 H 1.0211 2.7879 -2.0078 0
M  V30 29 H 0.4196 -0.4417 -3.9556 0
M  V30 30 H -0.4063 1.0237 -3.4305 0
M  V30 31 H 1.9493 1.5357 -3.8944 0
M  V30 32 H 2.4878 0.2375 -2.8318 0
M  V30 END ATOM
M  V30 BEGIN BOND
M  V30 1 2 1 2
M  V30 2 1 2 3
M  V30 3 1 2 4
M  V30 4 1 3 5
M  V30 5 1 3 6
M  V30 6 2 4 7
M  V30 7 2 6 8
M  V30 8 1 6 9
M  V30 9 1 7 10
M  V30 10 1 9 11
M  V30 11 1 9 12
M  V30 12 1 11 13
M  V30 13 1 12 14
M  V30 14 1 13 15
M  V30 15 1 7 8
M  V30 16 1 14 15
M  V30 17 1 4 16
M  V30 18 1 5 17
M  V30 19 1 8 18
M  V30 20 1 9 19
M  V30 21 1 10 20
M  V30 22 1 10 21
M  V30 23 1 10 22
M  V30 24 1 11 23
M  V30 25 1 11 24
M  V30 26 1 12 25
M  V30 27 1 12 26
M  V30 28 1 13 27
M  V30 29 1 13 28
M  V30 30 1 14 29
M  V30 31 1 14 30
M  V30 32 1 15 31
M  V30 33 1 15 32
M  V30 END BOND
M  V30 END CTAB
M  END
>  <NO.>
5530

>  <Name>
ciclopirox

>  <SMILES>
Cc1cc(C2CCCCC2)n(O)c(=O)c1

>  <logBB>


>  <Class>
-1

>  <MW>
207.13

>  <nHBAcc>
2

>  <nHBDon>
1

>  <SLogP>
2.44

>  <TopoPSA>
42.23

>  <MMFF94 Energy>
39.171

$$$$
Cc1cccc(C)c1OCC(=O)N[C@@H](Cc1ccccc1)[C@@H](O)C[C@H](Cc1ccccc1)NC(=O)[C@H](C(C)C)N1CCCNC1=O
Actelion Java MolfileCreator 2.0

  0  0  0  0  0  0              0 V3000
M  V30 BEGIN CTAB
M  V30 COUNTS 94 97 0 0 0
M  V30 BEGIN ATOM
M  V30 1 O 2.5278 -2.686 0.7104 0
M  V30 2 C 3.0048 -3.2424 1.6945 0
M  V30 3 N 3.0116 -2.7121 2.9673 0
M  V30 4 N 3.5809 -4.4656 1.539 0
M  V30 5 C 2.3416 -1.4222 3.2261 0 CFG=2
M  V30 6 C 3.4535 -3.487 4.1202 0
M  V30 7 C 4.0549 -5.3051 2.6063 0
M  V30 8 C 0.8249 -1.5144 2.8774 0
M  V30 9 C 3.1475 -0.1629 2.8018 0
M  V30 10 C 4.5526 -4.4667 3.759 0
M  V30 11 O 0.1614 -2.5102 3.179 0
M  V30 12 N 0.2396 -0.4034 2.3164 0
M  V30 13 C 4.493 -0.0992 3.5393 0
M  V30 14 C 3.3946 0.0076 1.303 0
M  V30 15 C -1.1802 -0.3558 1.9553 0 CFG=1
M  V30 16 C -2.0655 -0.02 3.179 0
M  V30 17 C -1.3562 0.5929 0.7544 0
M  V30 18 C -1.7804 1.3155 3.8333 0
M  V30 19 C -2.7606 0.5885 0.1302 0 CFG=2
M  V30 20 C -0.7638 1.4284 4.7931 0
M  V30 21 C -2.518 2.4578 3.4953 0
M  V30 22 O -3.0891 -0.7522 -0.2465 0
M  V30 23 C -2.8497 1.5404 -1.0975 0 CFG=1
M  V30 24 C -0.4801 2.6581 5.3883 0
M  V30 25 C -2.2326 3.6881 4.0905 0
M  V30 26 N -1.9203 1.1101 -2.139 0
M  V30 27 C -4.2889 1.5919 -1.6524 0
M  V30 28 C -1.2126 3.7886 5.0343 0
M  V30 29 C -0.7605 1.7807 -2.4497 0
M  V30 30 C -4.4903 2.664 -2.699 0
M  V30 31 O -0.4177 2.8276 -1.9053 0
M  V30 32 C 0.0895 1.1053 -3.5255 0
M  V30 33 C -4.6672 4.0022 -2.322 0
M  V30 34 C -4.4834 2.3373 -4.062 0
M  V30 35 O -0.4978 -0.1346 -3.9394 0
M  V30 36 C -4.8408 4.9924 -3.2902 0
M  V30 37 C -4.6576 3.3291 -5.0283 0
M  V30 38 C 0.4782 -1.0315 -4.2933 0
M  V30 39 C -4.8374 4.6558 -4.6424 0
M  V30 40 C 0.9193 -1.0834 -5.6252 0
M  V30 41 C 0.9734 -1.9196 -3.324 0
M  V30 42 C 1.9354 -1.9878 -5.9601 0
M  V30 43 C 0.364 -0.1679 -6.6772 0
M  V30 44 C 1.9913 -2.81 -3.6873 0
M  V30 45 C 0.482 -1.9007 -1.9039 0
M  V30 46 C 2.4707 -2.8423 -4.9962 0
M  V30 47 H 3.5237 -4.8283 0.5966 0
M  V30 48 H 2.286 -1.3387 4.3238 0
M  V30 49 H 2.5777 -4.0092 4.5226 0
M  V30 50 H 3.8279 -2.8037 4.8903 0
M  V30 51 H 3.223 -5.9481 2.9138 0
M  V30 52 H 4.851 -5.9418 2.2092 0
M  V30 53 H 2.5796 0.7167 3.1328 0
M  V30 54 H 5.4538 -3.9173 3.4599 0
M  V30 55 H 4.8131 -5.0954 4.6163 0
M  V30 56 H 0.7836 0.429 2.1422 0
M  V30 57 H 5.1549 -0.9191 3.2419 0
M  V30 58 H 5.0086 0.8424 3.3215 0
M  V30 59 H 4.3479 -0.1523 4.6235 0
M  V30 60 H 2.473 -0.0779 0.7216 0
M  V30 61 H 3.8099 1.0019 1.1017 0
M  V30 62 H 4.1193 -0.72 0.9254 0
M  V30 63 H -1.452 -1.3684 1.6308 0
M  V30 64 H -1.9403 -0.8016 3.9407 0
M  V30 65 H -3.1255 -0.0678 2.9016 0
M  V30 66 H -0.6303 0.2732 -0.0034 0
M  V30 67 H -1.0737 1.6161 1.0303 0
M  V30 68 H -3.4938 0.9085 0.8775 0
M  V30 69 H -0.1905 0.5517 5.0864 0
M  V30 70 H -3.3238 2.402 2.7691 0
M  V30 71 H -4.0499 -0.8088 -0.383 0
M  V30 72 H -2.5626 2.5453 -0.7632 0
M  V30 73 H 0.3094 2.7331 6.1312 0
M  V30 74 H -2.8082 4.5694 3.8194 0
M  V30 75 H -2.0604 0.2052 -2.5816 0
M  V30 76 H -4.9972 1.7779 -0.8343 0
M  V30 77 H -4.5708 0.6203 -2.0784 0
M  V30 78 H -0.9928 4.7468 5.4977 0
M  V30 79 H 0.1337 1.781 -4.3861 0
M  V30 80 H 1.096 0.9757 -3.107 0
M  V30 81 H -4.6645 4.2849 -1.2721 0
M  V30 82 H -4.3346 1.3084 -4.3811 0
M  V30 83 H -4.9731 6.0283 -2.9893 0
M  V30 84 H -4.6485 3.0666 -6.0827 0
M  V30 85 H -4.969 5.4283 -5.3952 0
M  V30 86 H 2.3163 -2.0343 -6.9777 0
M  V30 87 H 0.5192 -0.5802 -7.6799 0
M  V30 88 H 0.8566 0.8076 -6.6245 0
M  V30 89 H -0.7154 -0.0342 -6.5518 0
M  V30 90 H 2.4155 -3.4841 -2.9459 0
M  V30 91 H 0.6789 -2.856 -1.4064 0
M  V30 92 H -0.6003 -1.7431 -1.866 0
M  V30 93 H 0.9838 -1.1056 -1.3447 0
M  V30 94 H 3.26 -3.5389 -5.2659 0
M  V30 END ATOM
M  V30 BEGIN BOND
M  V30 1 2 1 2
M  V30 2 1 2 3
M  V30 3 1 2 4
M  V30 4 1 3 5
M  V30 5 1 3 6
M  V30 6 1 4 7
M  V30 7 1 5 8
M  V30 8 1 5 9
M  V30 9 1 6 10
M  V30 10 2 8 11
M  V30 11 1 8 12
M  V30 12 1 9 13
M  V30 13 1 9 14
M  V30 14 1 12 15
M  V30 15 1 15 16
M  V30 16 1 15 17
M  V30 17 1 16 18
M  V30 18 1 17 19
M  V30 19 2 18 20
M  V30 20 1 18 21
M  V30 21 1 19 22
M  V30 22 1 19 23
M  V30 23 1 20 24
M  V30 24 2 21 25
M  V30 25 1 23 26
M  V30 26 1 23 27
M  V30 27 2 24 28
M  V30 28 1 26 29
M  V30 29 1 27 30
M  V30 30 2 29 31
M  V30 31 1 29 32
M  V30 32 2 30 33
M  V30 33 1 30 34
M  V30 34 1 32 35
M  V30 35 1 33 36
M  V30 36 2 34 37
M  V30 37 1 35 38
M  V30 38 2 36 39
M  V30 39 2 38 40
M  V30 40 1 38 41
M  V30 41 1 40 42
M  V30 42 1 40 43
M  V30 43 2 41 44
M  V30 44 1 41 45
M  V30 45 2 42 46
M  V30 46 1 7 10
M  V30 47 1 25 28
M  V30 48 1 37 39
M  V30 49 1 44 46
M  V30 50 1 4 47
M  V30 51 1 5 48
M  V30 52 1 6 49
M  V30 53 1 6 50
M  V30 54 1 7 51
M  V30 55 1 7 52
M  V30 56 1 9 53
M  V30 57 1 10 54
M  V30 58 1 10 55
M  V30 59 1 12 56
M  V30 60 1 13 57
M  V30 61 1 13 58
M  V30 62 1 13 59
M  V30 63 1 14 60
M  V30 64 1 14 61
M  V30 65 1 14 62
M  V30 66 1 15 63
M  V30 67 1 16 64
M  V30 68 1 16 65
M  V30 69 1 17 66
M  V30 70 1 17 67
M  V30 71 1 19 68
M  V30 72 1 20 69
M  V30 73 1 21 70
M  V30 74 1 22 71
M  V30 75 1 23 72
M  V30 76 1 24 73
M  V30 77 1 25 74
M  V30 78 1 26 75
M  V30 79 1 27 76
M  V30 80 1 27 77
M  V30 81 1 28 78
M  V30 82 1 32 79
M  V30 83 1 32 80
M  V30 84 1 33 81
M  V30 85 1 34 82
M  V30 86 1 36 83
M  V30 87 1 37 84
M  V30 88 1 39 85
M  V30 89 1 42 86
M  V30 90 1 43 87
M  V30 91 1 43 88
M  V30 92 1 43 89
M  V30 93 1 44 90
M  V30 94 1 45 91
M  V30 95 1 45 92
M  V30 96 1 45 93
M  V30 97 1 46 94
M  V30 END BOND
M  V30 BEGIN COLLECTION
M  V30 MDLV30/STEABS ATOMS=(4 5 15 19 23)
M  V30 END COLLECTION
M  V30 END CTAB
M  END
>  <NO.>
5532

>  <Name>
lopinavir

>  <SMILES>
Cc1cccc(C)c1OCC(=O)N[C@@H](Cc1ccccc1)[C@@H](O)C[C@H](Cc1ccccc1)NC(=O)[C@H](C(C)C)N1CCCNC1=O

>  <logBB>


>  <Class>
-1

>  <MW>
628.36

>  <nHBAcc>
5

>  <nHBDon>
4

>  <SLogP>
4.33

>  <TopoPSA>
120

>  <MMFF94 Energy>
36.966

$$$$
Cc1cccc(C2(C(=O)N3CCCC3)CCN(CCCC(=O)c3ccc(F)cc3)CC2)c1
Actelion Java MolfileCreator 2.0

  0  0  0  0  0  0              0 V3000
M  V30 BEGIN CTAB
M  V30 COUNTS 65 68 0 0 0
M  V30 BEGIN ATOM
M  V30 1 F 3.9161 -0.6385 -9.7722 0
M  V30 2 C 3.0614 -0.3893 -8.7721 0
M  V30 3 C 2.0398 0.5331 -8.9566 0
M  V30 4 C 3.2102 -1.0581 -7.5622 0
M  V30 5 C 1.15 0.7909 -7.9114 0
M  V30 6 C 2.3214 -0.8028 -6.513 0
M  V30 7 C 1.2829 0.1246 -6.6818 0
M  V30 8 C 0.3033 0.4383 -5.5947 0
M  V30 9 O -0.5509 1.2991 -5.7937 0
M  V30 10 C 0.4084 -0.317 -4.2799 0
M  V30 11 C -0.7077 0.0608 -3.3021 0
M  V30 12 C -0.5521 -0.6948 -1.9754 0
M  V30 13 N -1.6892 -0.4952 -1.0671 0
M  V30 14 C -1.7977 0.861 -0.5199 0
M  V30 15 C -1.72 -1.4711 0.026 0
M  V30 16 C -0.7485 1.1948 0.5493 0
M  V30 17 C -0.6098 -1.2577 1.0594 0
M  V30 18 C -0.6512 0.152 1.7116 0
M  V30 19 C 0.6106 0.5327 2.5261 0
M  V30 20 C -1.9252 0.249 2.6204 0
M  V30 21 C 0.6315 1.7541 3.2351 0
M  V30 22 C 1.7554 -0.277 2.5954 0
M  V30 23 O -2.8684 0.9821 2.3002 0
M  V30 24 N -2.0246 -0.5017 3.7775 0
M  V30 25 C 1.7476 2.1567 3.9822 0
M  V30 26 C 2.8663 0.1106 3.3495 0
M  V30 27 C -3.2579 -0.4716 4.5529 0
M  V30 28 C -1.0014 -1.2649 4.4816 0
M  V30 29 C 2.861 1.3176 4.044 0
M  V30 30 C 1.7184 3.4442 4.7518 0
M  V30 31 C -2.9054 -1.1097 5.8887 0
M  V30 32 C -1.7755 -2.06 5.5232 0
M  V30 33 H 1.9399 1.0458 -9.9082 0
M  V30 34 H 4.0182 -1.7738 -7.4439 0
M  V30 35 H 0.3503 1.5152 -8.06 0
M  V30 36 H 2.464 -1.3383 -5.5793 0
M  V30 37 H 0.3508 -1.391 -4.4893 0
M  V30 38 H 1.3789 -0.0864 -3.8263 0
M  V30 39 H -0.6807 1.1433 -3.1342 0
M  V30 40 H -1.6815 -0.1699 -3.7524 0
M  V30 41 H -0.4816 -1.7633 -2.2176 0
M  V30 42 H 0.3992 -0.4181 -1.5067 0
M  V30 43 H -2.8063 0.9792 -0.108 0
M  V30 44 H -1.7495 1.6121 -1.3154 0
M  V30 45 H -2.7002 -1.4299 0.5179 0
M  V30 46 H -1.6491 -2.4879 -0.38 0
M  V30 47 H 0.2301 1.2873 0.0582 0
M  V30 48 H -0.9785 2.1941 0.9421 0
M  V30 49 H 0.3491 -1.4182 0.5532 0
M  V30 50 H -0.691 -2.0551 1.8018 0
M  V30 51 H -0.2414 2.4074 3.2112 0
M  V30 52 H 1.8135 -1.2301 2.0791 0
M  V30 53 H 3.7405 -0.5341 3.3959 0
M  V30 54 H -3.6326 0.5504 4.667 0
M  V30 55 H -4.0049 -1.0631 4.0117 0
M  V30 56 H -0.4209 -1.909 3.824 0
M  V30 57 H -0.3294 -0.5534 4.9727 0
M  V30 58 H 3.7321 1.6005 4.6304 0
M  V30 59 H 2.7284 3.8477 4.8794 0
M  V30 60 H 1.1313 4.2016 4.2218 0
M  V30 61 H 1.2768 3.2795 5.7394 0
M  V30 62 H -3.7573 -1.6133 6.3535 0
M  V30 63 H -2.537 -0.3454 6.5837 0
M  V30 64 H -1.1599 -2.343 6.3812 0
M  V30 65 H -2.1864 -2.9722 5.0742 0
M  V30 END ATOM
M  V30 BEGIN BOND
M  V30 1 1 1 2
M  V30 2 2 2 3
M  V30 3 1 2 4
M  V30 4 1 3 5
M  V30 5 2 4 6
M  V30 6 2 5 7
M  V30 7 1 7 8
M  V30 8 2 8 9
M  V30 9 1 8 10
M  V30 10 1 10 11
M  V30 11 1 11 12
M  V30 12 1 12 13
M  V30 13 1 13 14
M  V30 14 1 13 15
M  V30 15 1 14 16
M  V30 16 1 15 17
M  V30 17 1 16 18
M  V30 18 1 18 19
M  V30 19 1 18 20
M  V30 20 2 19 21
M  V30 21 1 19 22
M  V30 22 2 20 23
M  V30 23 1 20 24
M  V30 24 1 21 25
M  V30 25 2 22 26
M  V30 26 1 24 27
M  V30 27 1 24 28
M  V30 28 2 25 29
M  V30 29 1 25 30
M  V30 30 1 27 31
M  V30 31 1 28 32
M  V30 32 1 6 7
M  V30 33 1 17 18
M  V30 34 1 26 29
M  V30 35 1 31 32
M  V30 36 1 3 33
M  V30 37 1 4 34
M  V30 38 1 5 35
M  V30 39 1 6 36
M  V30 40 1 10 37
M  V30 41 1 10 38
M  V30 42 1 11 39
M  V30 43 1 11 40
M  V30 44 1 12 41
M  V30 45 1 12 42
M  V30 46 1 14 43
M  V30 47 1 14 44
M  V30 48 1 15 45
M  V30 49 1 15 46
M  V30 50 1 16 47
M  V30 51 1 16 48
M  V30 52 1 17 49
M  V30 53 1 17 50
M  V30 54 1 21 51
M  V30 55 1 22 52
M  V30 56 1 26 53
M  V30 57 1 27 54
M  V30 58 1 27 55
M  V30 59 1 28 56
M  V30 60 1 28 57
M  V30 61 1 29 58
M  V30 62 1 30 59
M  V30 63 1 30 60
M  V30 64 1 30 61
M  V30 65 1 31 62
M  V30 66 1 31 63
M  V30 67 1 32 64
M  V30 68 1 32 65
M  V30 END BOND
M  V30 END CTAB
M  END
>  <NO.>
5533

>  <Name>
meperidide

>  <SMILES>
Cc1cccc(C2(C(=O)N3CCCC3)CCN(CCCC(=O)c3ccc(F)cc3)CC2)c1

>  <logBB>


>  <Class>
1

>  <MW>
436.25

>  <nHBAcc>
3

>  <nHBDon>
0

>  <SLogP>
4.75

>  <TopoPSA>
40.62

>  <MMFF94 Energy>
72.955

$$$$
Cc1cccc(N(C)C(=S)Oc2ccc3ccccc3c2)c1
Actelion Java MolfileCreator 2.0

  0  0  0  0  0  0              0 V3000
M  V30 BEGIN CTAB
M  V30 COUNTS 39 41 0 0 0
M  V30 BEGIN ATOM
M  V30 1 S -1.0424 0.7215 3.0494 0
M  V30 2 C -1.1348 -0.2664 1.6958 0
M  V30 3 O -0.1027 -0.2891 0.7375 0
M  V30 4 N -2.1811 -1.1454 1.3986 0
M  V30 5 C 1.0559 0.5203 0.7612 0
M  V30 6 C -2.1426 -1.9589 0.2396 0
M  V30 7 C -3.3397 -1.3322 2.2701 0
M  V30 8 C 1.0138 1.7823 0.1736 0
M  V30 9 C 2.224 -0.0012 1.3025 0
M  V30 10 C -2.3373 -1.386 -1.0212 0
M  V30 11 C -1.9344 -3.3341 0.3625 0
M  V30 12 C 2.1715 2.5727 0.1539 0
M  V30 13 C 3.3792 0.7791 1.2862 0
M  V30 14 C -2.3063 -2.1845 -2.1716 0
M  V30 15 C -1.9185 -4.1359 -0.7777 0
M  V30 16 C 3.369 2.0666 0.7187 0
M  V30 17 C 2.1687 3.856 -0.4155 0
M  V30 18 C -2.1086 -3.5648 -2.0378 0
M  V30 19 C -2.5392 -1.5766 -3.5228 0
M  V30 20 C 4.5253 2.8625 0.6965 0
M  V30 21 C 3.3283 4.6327 -0.4281 0
M  V30 22 C 4.5044 4.1369 0.127 0
M  V30 23 H -3.0201 -1.862 3.173 0
M  V30 24 H -3.7525 -0.3595 2.5538 0
M  V30 25 H -4.126 -1.9058 1.7684 0
M  V30 26 H 0.0854 2.142 -0.2592 0
M  V30 27 H 2.2368 -0.997 1.7332 0
M  V30 28 H -2.5093 -0.3159 -1.1066 0
M  V30 29 H -1.7787 -3.784 1.3388 0
M  V30 30 H 4.2923 0.3761 1.718 0
M  V30 31 H -1.757 -5.2068 -0.6866 0
M  V30 32 H 1.259 4.2619 -0.8524 0
M  V30 33 H -2.0973 -4.2045 -2.9178 0
M  V30 34 H -3.6097 -1.5687 -3.7499 0
M  V30 35 H -2.1615 -0.5493 -3.5589 0
M  V30 36 H -2.0162 -2.142 -4.3011 0
M  V30 37 H 5.4544 2.4939 1.1251 0
M  V30 38 H 3.3116 5.6253 -0.8706 0
M  V30 39 H 5.4073 4.7418 0.1182 0
M  V30 END ATOM
M  V30 BEGIN BOND
M  V30 1 2 1 2
M  V30 2 1 2 3
M  V30 3 1 2 4
M  V30 4 1 3 5
M  V30 5 1 4 6
M  V30 6 1 4 7
M  V30 7 2 5 8
M  V30 8 1 5 9
M  V30 9 2 6 10
M  V30 10 1 6 11
M  V30 11 1 8 12
M  V30 12 2 9 13
M  V30 13 1 10 14
M  V30 14 2 11 15
M  V30 15 1 12 16
M  V30 16 2 12 17
M  V30 17 2 14 18
M  V30 18 1 14 19
M  V30 19 2 16 20
M  V30 20 1 17 21
M  V30 21 1 20 22
M  V30 22 1 13 16
M  V30 23 1 15 18
M  V30 24 2 21 22
M  V30 25 1 7 23
M  V30 26 1 7 24
M  V30 27 1 7 25
M  V30 28 1 8 26
M  V30 29 1 9 27
M  V30 30 1 10 28
M  V30 31 1 11 29
M  V30 32 1 13 30
M  V30 33 1 15 31
M  V30 34 1 17 32
M  V30 35 1 18 33
M  V30 36 1 19 34
M  V30 37 1 19 35
M  V30 38 1 19 36
M  V30 39 1 20 37
M  V30 40 1 21 38
M  V30 41 1 22 39
M  V30 END BOND
M  V30 END CTAB
M  END
>  <NO.>
5534

>  <Name>
tolnaftate

>  <SMILES>
Cc1cccc(N(C)C(=S)Oc2ccc3ccccc3c2)c1

>  <logBB>


>  <Class>
-1

>  <MW>
307.1

>  <nHBAcc>
2

>  <nHBDon>
0

>  <SLogP>
4.95

>  <TopoPSA>
12.47

>  <MMFF94 Energy>
60.66

$$$$
Cc1cccn2c(=O)c(-c3nn[nH]n3)cnc12
Actelion Java MolfileCreator 2.0

  0  0  0  0  0  0              0 V3000
M  V30 BEGIN CTAB
M  V30 COUNTS 25 27 0 0 0
M  V30 BEGIN ATOM
M  V30 1 O 1.0484 -1.0484 -2.1785 0
M  V30 2 C 0.6799 -0.6087 -1.0879 0
M  V30 3 N -0.592 -0.0666 -0.8809 0
M  V30 4 C 1.5956 -0.5972 0.0884 0
M  V30 5 C -0.9273 0.5076 0.3422 0
M  V30 6 C -1.5047 -0.0882 -1.9312 0
M  V30 7 C 2.898 -1.1788 0.0159 0
M  V30 8 C 1.1235 5.0E-4 1.1922 0
M  V30 9 N -0.1125 0.559 1.3508 0
M  V30 10 C -2.3079 1.092 0.4736 0
M  V30 11 C -2.7321 0.4288 -1.8142 0
M  V30 12 N 3.193 -2.1671 -0.8917 0
M  V30 13 N 3.9384 -0.9117 0.8311 0
M  V30 14 C -3.1405 1.0337 -0.5772 0
M  V30 15 C -2.6783 1.7111 1.7845 0
M  V30 16 N 4.4514 -2.5255 -0.6805 0
M  V30 17 N 4.8544 -1.7557 0.3326 0
M  V30 18 H -1.1793 -0.5469 -2.8619 0
M  V30 19 H 1.7509 0.054 2.0814 0
M  V30 20 H -3.4329 0.4041 -2.6425 0
M  V30 21 H -4.1452 1.4428 -0.5248 0
M  V30 22 H -2.6176 0.9723 2.5904 0
M  V30 23 H -2.0082 2.5442 2.0203 0
M  V30 24 H -3.701 2.1036 1.7736 0
M  V30 25 H 5.7983 -1.8151 0.7045 0
M  V30 END ATOM
M  V30 BEGIN BOND
M  V30 1 2 1 2
M  V30 2 1 2 3
M  V30 3 1 2 4
M  V30 4 1 3 5
M  V30 5 1 3 6
M  V30 6 1 4 7
M  V30 7 2 4 8
M  V30 8 2 5 9
M  V30 9 1 5 10
M  V30 10 2 6 11
M  V30 11 1 7 12
M  V30 12 2 7 13
M  V30 13 2 10 14
M  V30 14 1 10 15
M  V30 15 2 12 16
M  V30 16 1 13 17
M  V30 17 1 8 9
M  V30 18 1 11 14
M  V30 19 1 16 17
M  V30 20 1 6 18
M  V30 21 1 8 19
M  V30 22 1 11 20
M  V30 23 1 14 21
M  V30 24 1 15 22
M  V30 25 1 15 23
M  V30 26 1 15 24
M  V30 27 1 17 25
M  V30 END BOND
M  V30 END CTAB
M  END
>  <NO.>
5535

>  <Name>
pemirolast

>  <SMILES>
Cc1cccn2c(=O)c(-c3nn[nH]n3)cnc12

>  <logBB>


>  <Class>
-1

>  <MW>
228.08

>  <nHBAcc>
5

>  <nHBDon>
1

>  <SLogP>
0.18

>  <TopoPSA>
88.83

>  <MMFF94 Energy>
20.607

$$$$
Cc1ncc(CO)c(CO)c1O
Actelion Java MolfileCreator 2.0

  0  0  0  0  0  0              0 V3000
M  V30 BEGIN CTAB
M  V30 COUNTS 23 23 0 0 0
M  V30 BEGIN ATOM
M  V30 1 O -0.2342 0.078 2.4228 0
M  V30 2 C -0.4964 -0.1462 1.0971 0
M  V30 3 C 0.4341 0.1801 0.0953 0
M  V30 4 C -1.7222 -0.7232 0.7559 0
M  V30 5 C 0.0744 -0.0875 -1.2446 0
M  V30 6 C 1.7505 0.8585 0.3982 0
M  V30 7 N -2.0665 -0.996 -0.5246 0
M  V30 8 C -2.7253 -1.0772 1.8139 0
M  V30 9 C -1.1697 -0.675 -1.4803 0
M  V30 10 C 0.9741 0.1767 -2.4208 0
M  V30 11 O 2.1174 0.728 1.7754 0
M  V30 12 O 1.4508 1.5145 -2.3964 0
M  V30 13 H 0.7108 0.3415 2.4789 0
M  V30 14 H 2.5584 0.4085 -0.1864 0
M  V30 15 H 1.674 1.9276 0.1763 0
M  V30 16 H -3.6251 -1.512 1.3663 0
M  V30 17 H -3.0241 -0.183 2.3701 0
M  V30 18 H -2.3043 -1.8123 2.507 0
M  V30 19 H -1.499 -0.9149 -2.4886 0
M  V30 20 H 1.8273 -0.5092 -2.4003 0
M  V30 21 H 0.4399 0.0305 -3.366 0
M  V30 22 H 2.9833 1.1685 1.858 0
M  V30 23 H 1.8708 1.6788 -3.2581 0
M  V30 END ATOM
M  V30 BEGIN BOND
M  V30 1 1 1 2
M  V30 2 2 2 3
M  V30 3 1 2 4
M  V30 4 1 3 5
M  V30 5 1 3 6
M  V30 6 2 4 7
M  V30 7 1 4 8
M  V30 8 2 5 9
M  V30 9 1 5 10
M  V30 10 1 6 11
M  V30 11 1 10 12
M  V30 12 1 7 9
M  V30 13 1 1 13
M  V30 14 1 6 14
M  V30 15 1 6 15
M  V30 16 1 8 16
M  V30 17 1 8 17
M  V30 18 1 8 18
M  V30 19 1 9 19
M  V30 20 1 10 20
M  V30 21 1 10 21
M  V30 22 1 11 22
M  V30 23 1 12 23
M  V30 END BOND
M  V30 END CTAB
M  END
>  <NO.>
5536

>  <Name>
pyridoxine

>  <SMILES>
Cc1ncc(CO)c(CO)c1O

>  <logBB>


>  <Class>
-1

>  <MW>
169.07

>  <nHBAcc>
4

>  <nHBDon>
3

>  <SLogP>
0.08

>  <TopoPSA>
73.58

>  <MMFF94 Energy>
18.914

$$$$
Cc1ncc(C[n+]2csc(CCO)c2C)c(N)n1
Actelion Java MolfileCreator 2.0

  0  0  0  0  0  0              0 V3000
M  V30 BEGIN CTAB
M  V30 COUNTS 35 36 0 0 0
M  V30 BEGIN ATOM
M  V30 1 S 2.0676 2.7044 -0.0794 0
M  V30 2 C 2.0261 1.2849 -1.0449 0
M  V30 3 C 0.4308 2.5168 0.3668 0
M  V30 4 C 0.774 0.6971 -0.9789 0
M  V30 5 C 3.2408 0.8622 -1.8272 0
M  V30 6 N -0.0902 1.4173 -0.1552 0 CHG=1
M  V30 7 C 0.3016 -0.5353 -1.6607 0
M  V30 8 C 3.2311 1.436 -3.2447 0
M  V30 9 C -1.5035 1.0916 0.0827 0
M  V30 10 O 2.0976 0.9457 -3.9579 0
M  V30 11 C -1.6997 -0.1411 0.9031 0
M  V30 12 C -1.1717 -0.3412 2.1623 0
M  V30 13 C -2.58 -1.1213 0.4802 0
M  V30 14 N -1.4828 -1.3988 2.9192 0
M  V30 15 N -0.2689 0.5278 2.7496 0
M  V30 16 N -2.8915 -2.2111 1.197 0
M  V30 17 C -2.3268 -2.3121 2.4088 0
M  V30 18 C -2.6936 -3.4857 3.262 0
M  V30 19 H -0.0941 3.2105 1.014 0
M  V30 20 H 4.1558 1.1775 -1.3117 0
M  V30 21 H 3.2657 -0.2331 -1.8748 0
M  V30 22 H 0.127 -1.3338 -0.9342 0
M  V30 23 H -0.6201 -0.3497 -2.2195 0
M  V30 24 H 1.0393 -0.913 -2.3741 0
M  V30 25 H 3.1866 2.5299 -3.2355 0
M  V30 26 H 4.135 1.1235 -3.7774 0
M  V30 27 H -1.9872 1.0013 -0.8981 0
M  V30 28 H -2.0032 1.931 0.5843 0
M  V30 29 H 2.2187 1.211 -4.8898 0
M  V30 30 H -3.0968 -1.0647 -0.4758 0
M  V30 31 H -0.1555 0.2663 3.7321 0
M  V30 32 H 0.6318 0.6164 2.299 0
M  V30 33 H -2.9229 -4.3566 2.6404 0
M  V30 34 H -3.5722 -3.2416 3.8661 0
M  V30 35 H -1.8676 -3.7489 3.9297 0
M  V30 END ATOM
M  V30 BEGIN BOND
M  V30 1 1 1 2
M  V30 2 1 1 3
M  V30 3 2 2 4
M  V30 4 1 2 5
M  V30 5 2 3 6
M  V30 6 1 4 7
M  V30 7 1 5 8
M  V30 8 1 6 9
M  V30 9 1 8 10
M  V30 10 1 9 11
M  V30 11 2 11 12
M  V30 12 1 11 13
M  V30 13 1 12 14
M  V30 14 1 12 15
M  V30 15 2 13 16
M  V30 16 2 14 17
M  V30 17 1 17 18
M  V30 18 1 4 6
M  V30 19 1 16 17
M  V30 20 1 3 19
M  V30 21 1 5 20
M  V30 22 1 5 21
M  V30 23 1 7 22
M  V30 24 1 7 23
M  V30 25 1 7 24
M  V30 26 1 8 25
M  V30 27 1 8 26
M  V30 28 1 9 27
M  V30 29 1 9 28
M  V30 30 1 10 29
M  V30 31 1 13 30
M  V30 32 1 15 31
M  V30 33 1 15 32
M  V30 34 1 18 33
M  V30 35 1 18 34
M  V30 36 1 18 35
M  V30 END BOND
M  V30 END CTAB
M  END
>  <NO.>
5537

>  <Name>
thiamine

>  <SMILES>
Cc1ncc(C[n+]2csc(CCO)c2C)c(N)n1

>  <logBB>


>  <Class>
-1

>  <MW>
265.11

>  <nHBAcc>
5

>  <nHBDon>
2

>  <SLogP>
0.61

>  <TopoPSA>
75.91

>  <MMFF94 Energy>
-23.382

$$$$
ClC1C(Cl)C(Cl)C(Cl)C(Cl)C1Cl
Actelion Java MolfileCreator 2.0

  0  0  0  0  0  0              0 V3000
M  V30 BEGIN CTAB
M  V30 COUNTS 18 18 0 0 0
M  V30 BEGIN ATOM
M  V30 1 Cl -0.2777 1.667 2.6867 0
M  V30 2 C -0.2568 1.0996 0.9695 0
M  V30 3 C -1.3043 -0.0098 0.7842 0
M  V30 4 C 1.1597 0.6288 0.6032 0
M  V30 5 Cl -2.9566 0.6675 1.0713 0
M  V30 6 C -1.2447 -0.6372 -0.6176 0
M  V30 7 Cl 2.3002 2.0302 0.6851 0
M  V30 8 C 1.2193 0.0014 -0.7986 0
M  V30 9 Cl -2.3853 -2.0386 -0.6994 0
M  V30 10 C 0.1718 -1.108 -0.9839 0
M  V30 11 Cl 2.8715 -0.6758 -1.0856 0
M  V30 12 Cl 0.1927 -1.6754 -2.7011 0
M  V30 13 H -0.5271 1.9684 0.3561 0
M  V30 14 H -1.1557 -0.788 1.5434 0
M  V30 15 H 1.5114 -0.0967 1.3475 0
M  V30 16 H -1.5964 0.0883 -1.3618 0
M  V30 17 H 1.0706 0.7797 -1.5577 0
M  V30 18 H 0.442 -1.9767 -0.3704 0
M  V30 END ATOM
M  V30 BEGIN BOND
M  V30 1 1 1 2
M  V30 2 1 2 3
M  V30 3 1 2 4
M  V30 4 1 3 5
M  V30 5 1 3 6
M  V30 6 1 4 7
M  V30 7 1 4 8
M  V30 8 1 6 9
M  V30 9 1 6 10
M  V30 10 1 8 11
M  V30 11 1 10 12
M  V30 12 1 8 10
M  V30 13 1 2 13
M  V30 14 1 3 14
M  V30 15 1 4 15
M  V30 16 1 6 16
M  V30 17 1 8 17
M  V30 18 1 10 18
M  V30 END BOND
M  V30 END CTAB
M  END
>  <NO.>
5538

>  <Name>
lindane

>  <SMILES>
ClC1C(Cl)C(Cl)C(Cl)C(Cl)C1Cl

>  <logBB>


>  <Class>
-1

>  <MW>
287.86

>  <nHBAcc>
0

>  <nHBDon>
0

>  <SLogP>
3.64

>  <TopoPSA>
0

>  <MMFF94 Energy>
33.138

$$$$
N#Cc1cc(NC(=O)C(=O)O)c(Cl)c(NC(=O)C(=O)O)c1
Actelion Java MolfileCreator 2.0

  0  0  0  0  0  0              0 V3000
M  V30 BEGIN CTAB
M  V30 COUNTS 27 27 0 0 0
M  V30 BEGIN ATOM
M  V30 1 Cl 1.2024 2.1479 -0.9446 0
M  V30 2 C 0.3392 0.5486 -0.1871 0
M  V30 3 C -0.9226 0.7069 0.7753 0
M  V30 4 C 0.8995 -0.9034 -0.5344 0
M  V30 5 N -1.4819 2.1542 1.1219 0
M  V30 6 C -1.6228 -0.5873 1.3896 0
M  V30 7 N 2.1577 -1.0595 -1.4941 0
M  V30 8 C 0.1993 -2.196 0.0797 0
M  V30 9 C -2.7347 2.5815 1.3265 0
M  V30 10 C -1.0623 -2.0382 1.0421 0
M  V30 11 C 2.7986 -2.1541 -1.924 0
M  V30 12 O -3.7771 1.9323 1.2925 0
M  V30 13 C -2.8026 4.0844 1.6383 0
M  V30 14 C -1.7763 -3.3558 1.6684 0
M  V30 15 O 2.5548 -3.3305 -1.668 0
M  V30 16 C 3.9776 -1.8219 -2.8512 0
M  V30 17 O -1.842 4.825 1.6985 0
M  V30 18 O -4.0581 4.5084 1.8412 0
M  V30 19 N -2.3447 -4.4048 2.167 0
M  V30 20 O 4.3122 -0.6999 -3.174 0
M  V30 21 O 4.6172 -2.9198 -3.2784 0
M  V30 22 H -0.7761 2.8653 1.2002 0
M  V30 23 H -2.4798 -0.4808 2.0433 0
M  V30 24 H 2.5326 -0.191 -1.8332 0
M  V30 25 H 0.5798 -3.1825 -0.1559 0
M  V30 26 H -3.9667 5.4622 2.0505 0
M  V30 27 H 5.3218 -2.5813 -3.8704 0
M  V30 END ATOM
M  V30 BEGIN BOND
M  V30 1 1 1 2
M  V30 2 2 2 3
M  V30 3 1 2 4
M  V30 4 1 3 5
M  V30 5 1 3 6
M  V30 6 1 4 7
M  V30 7 2 4 8
M  V30 8 1 5 9
M  V30 9 2 6 10
M  V30 10 1 7 11
M  V30 11 2 9 12
M  V30 12 1 9 13
M  V30 13 1 10 14
M  V30 14 2 11 15
M  V30 15 1 11 16
M  V30 16 2 13 17
M  V30 17 1 13 18
M  V30 18 3 14 19
M  V30 19 2 16 20
M  V30 20 1 16 21
M  V30 21 1 8 10
M  V30 22 1 5 22
M  V30 23 1 6 23
M  V30 24 1 7 24
M  V30 25 1 8 25
M  V30 26 1 18 26
M  V30 27 1 21 27
M  V30 END BOND
M  V30 END CTAB
M  END
>  <NO.>
5541

>  <Name>
lodoxamide

>  <SMILES>
N#Cc1cc(NC(=O)C(=O)O)c(Cl)c(NC(=O)C(=O)O)c1

>  <logBB>


>  <Class>
-1

>  <MW>
310.99

>  <nHBAcc>
5

>  <nHBDon>
4

>  <SLogP>
0.26

>  <TopoPSA>
156.59

>  <MMFF94 Energy>
MMFF94 error code 2

$$$$
N=C(N)c1ccc(OCCCCCOc2ccc(C(=N)N)cc2)cc1
Actelion Java MolfileCreator 2.0

  0  0  0  0  0  0              0 V3000
M  V30 BEGIN CTAB
M  V30 COUNTS 49 50 0 0 0
M  V30 BEGIN ATOM
M  V30 1 O -2.4242 -1.407 -0.8596 0
M  V30 2 C -2.9454 -0.9945 -2.054 0
M  V30 3 C -3.2487 -1.2673 0.2963 0
M  V30 4 C -2.0667 -1.0955 -3.137 0
M  V30 5 C -4.2368 -0.5068 -2.2626 0
M  V30 6 C -2.4672 -1.7427 1.5213 0
M  V30 7 C -2.4668 -0.7119 -4.4194 0
M  V30 8 C -4.6433 -0.1188 -3.5447 0
M  V30 9 C -1.2342 -0.8755 1.7961 0
M  V30 10 C -3.7577 -0.2195 -4.6221 0
M  V30 11 C -0.4907 -1.3512 3.0486 0
M  V30 12 C -4.1923 0.1839 -5.9847 0
M  V30 13 C 0.7261 -0.4816 3.3652 0
M  V30 14 N -4.932 1.2266 -6.1928 0
M  V30 15 N -3.8229 -0.5455 -7.0647 0
M  V30 16 O 1.6685 -0.6021 2.3009 0
M  V30 17 C 2.8153 0.1359 2.3927 0
M  V30 18 C 3.6672 0.0248 1.2894 0
M  V30 19 C 3.1836 0.9526 3.4633 0
M  V30 20 C 4.8754 0.7248 1.2468 0
M  V30 21 C 4.3945 1.6542 3.4284 0
M  V30 22 C 5.2379 1.5427 2.3191 0
M  V30 23 C 6.5233 2.2874 2.2882 0
M  V30 24 N 6.9671 2.8541 1.2117 0
M  V30 25 N 7.2809 2.3915 3.4067 0
M  V30 26 H -4.1442 -1.8912 0.1904 0
M  V30 27 H -3.542 -0.2193 0.434 0
M  V30 28 H -1.0585 -1.4713 -2.9768 0
M  V30 29 H -4.9545 -0.4224 -1.4533 0
M  V30 30 H -3.1298 -1.7296 2.3946 0
M  V30 31 H -2.1437 -2.7788 1.3637 0
M  V30 32 H -1.7615 -0.7791 -5.2426 0
M  V30 33 H -5.6595 0.2365 -3.6973 0
M  V30 34 H -1.5436 0.1683 1.929 0
M  V30 35 H -0.5606 -0.9054 0.9319 0
M  V30 36 H -0.1645 -2.3871 2.8951 0
M  V30 37 H -1.1709 -1.3398 3.9082 0
M  V30 38 H 0.4095 0.5621 3.4808 0
M  V30 39 H 1.1753 -0.8376 4.3 0
M  V30 40 H -5.1191 1.7251 -5.3182 0
M  V30 41 H -3.3377 -1.428 -7.0019 0
M  V30 42 H -4.1581 -0.2337 -7.9671 0
M  V30 43 H 3.3866 -0.6162 0.4567 0
M  V30 44 H 2.5522 1.0685 4.3381 0
M  V30 45 H 5.5319 0.6072 0.389 0
M  V30 46 H 4.6604 2.3024 4.2593 0
M  V30 47 H 6.3031 2.7459 0.4393 0
M  V30 48 H 7.0862 1.8898 4.26 0
M  V30 49 H 8.1556 2.8936 3.3225 0
M  V30 END ATOM
M  V30 BEGIN BOND
M  V30 1 1 1 2
M  V30 2 1 1 3
M  V30 3 2 2 4
M  V30 4 1 2 5
M  V30 5 1 3 6
M  V30 6 1 4 7
M  V30 7 2 5 8
M  V30 8 1 6 9
M  V30 9 2 7 10
M  V30 10 1 9 11
M  V30 11 1 10 12
M  V30 12 1 11 13
M  V30 13 2 12 14
M  V30 14 1 12 15
M  V30 15 1 13 16
M  V30 16 1 16 17
M  V30 17 2 17 18
M  V30 18 1 17 19
M  V30 19 1 18 20
M  V30 20 2 19 21
M  V30 21 2 20 22
M  V30 22 1 22 23
M  V30 23 2 23 24
M  V30 24 1 23 25
M  V30 25 1 8 10
M  V30 26 1 21 22
M  V30 27 1 3 26
M  V30 28 1 3 27
M  V30 29 1 4 28
M  V30 30 1 5 29
M  V30 31 1 6 30
M  V30 32 1 6 31
M  V30 33 1 7 32
M  V30 34 1 8 33
M  V30 35 1 9 34
M  V30 36 1 9 35
M  V30 37 1 11 36
M  V30 38 1 11 37
M  V30 39 1 13 38
M  V30 40 1 13 39
M  V30 41 1 14 40
M  V30 42 1 15 41
M  V30 43 1 15 42
M  V30 44 1 18 43
M  V30 45 1 19 44
M  V30 46 1 20 45
M  V30 47 1 21 46
M  V30 48 1 24 47
M  V30 49 1 25 48
M  V30 50 1 25 49
M  V30 END BOND
M  V30 END CTAB
M  END
>  <NO.>
5542

>  <Name>
pentamidine

>  <SMILES>
N=C(N)c1ccc(OCCCCCOc2ccc(C(=N)N)cc2)cc1

>  <logBB>


>  <Class>
-1

>  <MW>
340.19

>  <nHBAcc>
4

>  <nHBDon>
4

>  <SLogP>
2.88

>  <TopoPSA>
118.2

>  <MMFF94 Energy>
-21.535

$$$$
Nc1cc(Br)c([N+](=O)[O-])c(C(=O)O)c1
Actelion Java MolfileCreator 2.0

  0  0  0  0  0  0              0 V3000
M  V30 BEGIN CTAB
M  V30 COUNTS 19 19 0 0 0
M  V30 BEGIN ATOM
M  V30 1 Br -0.9795 -1.6329 -3.0225 0
M  V30 2 C -0.6533 -0.6636 -1.4208 0
M  V30 3 C 0.507 -0.7979 -0.6544 0
M  V30 4 C -1.6617 0.2062 -0.9862 0
M  V30 5 N 1.5194 -1.743 -1.0552 0 CHG=1
M  V30 6 C 0.663 -0.0839 0.5368 0
M  V30 7 C -1.5329 0.918 0.2099 0
M  V30 8 O 1.6028 -2.7828 -0.3874 0
M  V30 9 O 2.2119 -1.4504 -2.0387 0 CHG=-1
M  V30 10 C 1.8532 -0.1673 1.4037 0
M  V30 11 C -0.3679 0.7669 0.9644 0
M  V30 12 N -2.5294 1.7779 0.6258 0
M  V30 13 O 1.852 -0.0744 2.6155 0
M  V30 14 O 2.9845 -0.2611 0.6937 0
M  V30 15 H -2.5677 0.3219 -1.5785 0
M  V30 16 H -0.254 1.3197 1.8965 0
M  V30 17 H -3.3909 1.8737 0.1034 0
M  V30 18 H -2.4614 2.267 1.5097 0
M  V30 19 H 3.7066 -0.291 1.3585 0
M  V30 END ATOM
M  V30 BEGIN BOND
M  V30 1 1 1 2
M  V30 2 2 2 3
M  V30 3 1 2 4
M  V30 4 1 3 5
M  V30 5 1 3 6
M  V30 6 2 4 7
M  V30 7 2 5 8
M  V30 8 1 5 9
M  V30 9 1 6 10
M  V30 10 2 6 11
M  V30 11 1 7 12
M  V30 12 2 10 13
M  V30 13 1 10 14
M  V30 14 1 7 11
M  V30 15 1 4 15
M  V30 16 1 11 16
M  V30 17 1 12 17
M  V30 18 1 12 18
M  V30 19 1 14 19
M  V30 END BOND
M  V30 END CTAB
M  END
>  <NO.>
5548

>  <Name>
fludarabinephosphate

>  <SMILES>
Nc1cc(Br)c([N+](=O)[O-])c(C(=O)O)c1

>  <logBB>


>  <Class>
-1

>  <MW>
259.94

>  <nHBAcc>
4

>  <nHBDon>
2

>  <SLogP>
1.64

>  <TopoPSA>
106.46

>  <MMFF94 Energy>
-19.265

$$$$
O=C1CN(/N=C/c2ccc(-c3ccc([N+](=O)[O-])cc3)o2)C(=O)N1
Actelion Java MolfileCreator 2.0

  0  0  0  0  0  0              0 V3000
M  V30 BEGIN CTAB
M  V30 COUNTS 33 35 0 0 0
M  V30 BEGIN ATOM
M  V30 1 O -4.6848 1.21 -5.4133 0
M  V30 2 N -4.6296 1.1211 -4.1782 0 CHG=1
M  V30 3 O -5.6026 1.2445 -3.4206 0 CHG=-1
M  V30 4 C -3.3204 0.8508 -3.5717 0
M  V30 5 C -3.2066 0.7416 -2.1822 0
M  V30 6 C -2.1931 0.7039 -4.3875 0
M  V30 7 C -1.9546 0.4838 -1.6124 0
M  V30 8 C -0.9465 0.4462 -3.8043 0
M  V30 9 C -0.8079 0.3324 -2.4112 0
M  V30 10 C 0.4983 0.0632 -1.8131 0
M  V30 11 O 0.5298 -0.0296 -0.4502 0
M  V30 12 C 1.7725 -0.13 -2.3104 0
M  V30 13 C 1.8182 -0.2814 -0.0734 0
M  V30 14 C 2.6188 -0.351 -1.1951 0
M  V30 15 C 2.1323 -0.4265 1.3244 0
M  V30 16 N 1.2094 -0.3211 2.2255 0
M  V30 17 N 1.5181 -0.4606 3.5499 0
M  V30 18 C 2.7555 -0.7182 4.156 0
M  V30 19 C 0.4625 -0.3367 4.5287 0
M  V30 20 O 3.848 -0.878 3.6357 0
M  V30 21 N 2.5506 -0.7681 5.5006 0
M  V30 22 C 1.245 -0.5568 5.8053 0
M  V30 23 O 0.7845 -0.548 6.937 0
M  V30 24 H -4.0709 0.8526 -1.5305 0
M  V30 25 H -2.264 0.7859 -5.4703 0
M  V30 26 H -1.882 0.4015 -0.5282 0
M  V30 27 H -0.0838 0.3356 -4.4577 0
M  V30 28 H 2.0638 -0.1148 -3.351 0
M  V30 29 H 3.6837 -0.5384 -1.2075 0
M  V30 30 H 3.1907 -0.6274 1.5416 0
M  V30 31 H -0.2817 -1.1222 4.3832 0
M  V30 32 H 0.0345 0.6673 4.498 0
M  V30 33 H 3.2769 -0.9397 6.1741 0
M  V30 END ATOM
M  V30 BEGIN BOND
M  V30 1 2 1 2
M  V30 2 1 2 3
M  V30 3 1 2 4
M  V30 4 2 4 5
M  V30 5 1 4 6
M  V30 6 1 5 7
M  V30 7 2 6 8
M  V30 8 2 7 9
M  V30 9 1 9 10
M  V30 10 1 10 11
M  V30 11 2 10 12
M  V30 12 1 11 13
M  V30 13 1 12 14
M  V30 14 1 13 15
M  V30 15 2 15 16
M  V30 16 1 16 17
M  V30 17 1 17 18
M  V30 18 1 17 19
M  V30 19 2 18 20
M  V30 20 1 18 21
M  V30 21 1 19 22
M  V30 22 2 22 23
M  V30 23 1 8 9
M  V30 24 2 13 14
M  V30 25 1 21 22
M  V30 26 1 5 24
M  V30 27 1 6 25
M  V30 28 1 7 26
M  V30 29 1 8 27
M  V30 30 1 12 28
M  V30 31 1 14 29
M  V30 32 1 15 30
M  V30 33 1 19 31
M  V30 34 1 19 32
M  V30 35 1 21 33
M  V30 END BOND
M  V30 END CTAB
M  END
>  <NO.>
5553

>  <Name>
dantrolene

>  <SMILES>
O=C1CN(/N=C/c2ccc(-c3ccc([N+](=O)[O-])cc3)o2)C(=O)N1

>  <logBB>


>  <Class>
-1

>  <MW>
314.07

>  <nHBAcc>
6

>  <nHBDon>
1

>  <SLogP>
1.74

>  <TopoPSA>
118.05

>  <MMFF94 Energy>
60.344

$$$$
O=C1c2c(O)cccc2Cc2cccc(O)c21
Actelion Java MolfileCreator 2.0

  0  0  0  0  0  0              0 V3000
M  V30 BEGIN CTAB
M  V30 COUNTS 27 29 0 0 0
M  V30 BEGIN ATOM
M  V30 1 O 2.2585 0.4836 -0.9674 0
M  V30 2 C 1.1456 0.2959 -0.4932 0
M  V30 3 C 0.9173 0.3223 0.9784 0
M  V30 4 C -0.0132 -0.0618 -1.3579 0
M  V30 5 C 1.6803 1.1219 1.8396 0
M  V30 6 C -0.0937 -0.501 1.5049 0
M  V30 7 C -0.1214 0.3779 -2.6837 0
M  V30 8 C -1.0164 -0.8819 -0.8116 0
M  V30 9 O 2.6217 1.9799 1.3483 0
M  V30 10 C 1.459 1.0849 3.2181 0
M  V30 11 C -0.2994 -0.5397 2.8928 0
M  V30 12 C -0.9063 -1.3914 0.6017 0
M  V30 13 O 0.8034 1.2289 -3.2169 0
M  V30 14 C -1.2054 -0.0152 -3.4713 0
M  V30 15 C -2.0953 -1.281 -1.6158 0
M  V30 16 C 0.4728 0.2509 3.743 0
M  V30 17 C -2.1883 -0.8477 -2.9378 0
M  V30 18 H 3.1827 2.3048 2.0687 0
M  V30 19 H 2.0388 1.707 3.8938 0
M  V30 20 H -1.0626 -1.1879 3.3191 0
M  V30 21 H -1.9172 -1.4835 1.0195 0
M  V30 22 H -0.4517 -2.3894 0.5847 0
M  V30 23 H 0.6945 1.277 -4.1786 0
M  V30 24 H -1.3036 0.3269 -4.4975 0
M  V30 25 H -2.8691 -1.9335 -1.2159 0
M  V30 26 H 0.3029 0.2204 4.8168 0
M  V30 27 H -3.0308 -1.1559 -3.5525 0
M  V30 END ATOM
M  V30 BEGIN BOND
M  V30 1 2 1 2
M  V30 2 1 2 3
M  V30 3 1 2 4
M  V30 4 2 3 5
M  V30 5 1 3 6
M  V30 6 2 4 7
M  V30 7 1 4 8
M  V30 8 1 5 9
M  V30 9 1 5 10
M  V30 10 2 6 11
M  V30 11 1 6 12
M  V30 12 1 7 13
M  V30 13 1 7 14
M  V30 14 2 8 15
M  V30 15 2 10 16
M  V30 16 2 14 17
M  V30 17 1 8 12
M  V30 18 1 11 16
M  V30 19 1 15 17
M  V30 20 1 9 18
M  V30 21 1 10 19
M  V30 22 1 11 20
M  V30 23 1 12 21
M  V30 24 1 12 22
M  V30 25 1 13 23
M  V30 26 1 14 24
M  V30 27 1 15 25
M  V30 28 1 16 26
M  V30 29 1 17 27
M  V30 END BOND
M  V30 END CTAB
M  END
>  <NO.>
5554

>  <Name>
anthralin

>  <SMILES>
O=C1c2c(O)cccc2Cc2cccc(O)c21

>  <logBB>


>  <Class>
-1

>  <MW>
226.06

>  <nHBAcc>
3

>  <nHBDon>
2

>  <SLogP>
2.23

>  <TopoPSA>
57.53

>  <MMFF94 Energy>
84.479

$$$$
O=P1(NCCCl)OCCCN1CCCl
Actelion Java MolfileCreator 2.0

  0  0  0  0  0  0              0 V3000
M  V30 BEGIN CTAB
M  V30 COUNTS 29 29 0 0 0
M  V30 BEGIN ATOM
M  V30 1 Cl -1.2369 -4.0449 -1.9796 0
M  V30 2 C -1.1931 -2.9238 -0.5942 0
M  V30 3 C -0.0172 -1.9539 -0.7269 0
M  V30 4 N 0.0337 -0.9554 0.3592 0
M  V30 5 P 0.7535 0.4734 -0.0435 0 CFG=2
M  V30 6 C 0.564 -1.5577 1.5898 0
M  V30 7 O 2.1571 0.3616 -0.5502 0
M  V30 8 O 0.6818 1.3349 1.3184 0
M  V30 9 N -0.3132 1.2199 -1.0286 0
M  V30 10 C 0.4953 -0.5743 2.7621 0
M  V30 11 C 1.2457 0.7145 2.4596 0
M  V30 12 C 0.1058 2.4844 -1.6282 0
M  V30 13 C -0.9938 3.113 -2.4842 0
M  V30 14 Cl -2.43 3.5128 -1.5034 0
M  V30 15 H -2.1459 -2.3856 -0.5756 0
M  V30 16 H -1.1218 -3.5371 0.3072 0
M  V30 17 H 0.9347 -2.4956 -0.7949 0
M  V30 18 H -0.1344 -1.4305 -1.6842 0
M  V30 19 H -0.0107 -2.4457 1.8719 0
M  V30 20 H 1.6047 -1.8714 1.4408 0
M  V30 21 H -1.1906 1.3718 -0.5397 0
M  V30 22 H 0.9127 -1.0429 3.66 0
M  V30 23 H -0.5571 -0.3423 2.9683 0
M  V30 24 H 2.3112 0.528 2.2875 0
M  V30 25 H 1.1575 1.4076 3.3016 0
M  V30 26 H 0.9822 2.3075 -2.2612 0
M  V30 27 H 0.4062 3.187 -0.8421 0
M  V30 28 H -1.312 2.4352 -3.2824 0
M  V30 29 H -0.6376 4.0416 -2.9397 0
M  V30 END ATOM
M  V30 BEGIN BOND
M  V30 1 1 1 2
M  V30 2 1 2 3
M  V30 3 1 3 4
M  V30 4 1 4 5
M  V30 5 1 4 6
M  V30 6 2 5 7
M  V30 7 1 5 8
M  V30 8 1 5 9
M  V30 9 1 6 10
M  V30 10 1 8 11
M  V30 11 1 9 12
M  V30 12 1 12 13
M  V30 13 1 13 14
M  V30 14 1 10 11
M  V30 15 1 2 15
M  V30 16 1 2 16
M  V30 17 1 3 17
M  V30 18 1 3 18
M  V30 19 1 6 19
M  V30 20 1 6 20
M  V30 21 1 9 21
M  V30 22 1 10 22
M  V30 23 1 10 23
M  V30 24 1 11 24
M  V30 25 1 11 25
M  V30 26 1 12 26
M  V30 27 1 12 27
M  V30 28 1 13 28
M  V30 29 1 13 29
M  V30 END BOND
M  V30 BEGIN COLLECTION
M  V30 MDLV30/STERAC1 ATOMS=(1 5)
M  V30 END COLLECTION
M  V30 END CTAB
M  END
>  <NO.>
5555

>  <Name>
ifosfamide

>  <SMILES>
O=P1(NCCCl)OCCCN1CCCl

>  <logBB>


>  <Class>
-1

>  <MW>
260.02

>  <nHBAcc>
2

>  <nHBDon>
1

>  <SLogP>
1.88

>  <TopoPSA>
41.57

>  <MMFF94 Energy>
-166.96

$$$$
OCc1cc(C(O)CNCCCCCCOCCCCc2ccccc2)ccc1O
Actelion Java MolfileCreator 2.0

  0  0  0  0  0  0              0 V3000
M  V30 BEGIN CTAB
M  V30 COUNTS 67 68 0 0 0
M  V30 BEGIN ATOM
M  V30 1 O -0.6264 -1.9587 -2.0371 0
M  V30 2 C -1.5126 -2.7819 -2.7945 0
M  V30 3 C 0.0874 -2.7139 -1.0581 0
M  V30 4 C -2.2326 -1.9014 -3.8099 0
M  V30 5 C 0.9868 -1.7556 -0.289 0
M  V30 6 C -3.1937 -2.7156 -4.6775 0
M  V30 7 C 1.807 -2.4733 0.7818 0
M  V30 8 C -3.8776 -1.8772 -5.7628 0
M  V30 9 C 2.6816 -1.4789 1.5449 0
M  V30 10 C -4.8582 -0.8661 -5.2217 0
M  V30 11 C 3.5238 -2.1624 2.6288 0
M  V30 12 C -6.0991 -1.2785 -4.7167 0
M  V30 13 C -4.541 0.4987 -5.2101 0
M  V30 14 C 4.4594 -1.177 3.3387 0
M  V30 15 C -7.0039 -0.3439 -4.2104 0
M  V30 16 C -5.447 1.432 -4.7032 0
M  V30 17 N 3.6822 -0.1662 4.0493 0
M  V30 18 C -6.6778 1.0108 -4.2037 0
M  V30 19 C 4.5061 0.9929 4.4362 0
M  V30 20 C 3.6701 2.1188 5.1025 0 CFG=2
M  V30 21 O 2.8997 1.5377 6.1668 0
M  V30 22 C 2.7365 2.9329 4.2201 0
M  V30 23 C 2.4045 2.5793 2.901 0
M  V30 24 C 2.1452 4.0846 4.7604 0
M  V30 25 C 1.5081 3.338 2.1195 0
M  V30 26 C 1.2555 4.8498 4.0078 0
M  V30 27 C 0.9359 4.4749 2.7045 0
M  V30 28 C 1.1436 2.8903 0.7245 0
M  V30 29 O 0.0337 5.2828 2.07 0
M  V30 30 O 2.0132 1.8838 0.2218 0
M  V30 31 H -2.2375 -3.2554 -2.1223 0
M  V30 32 H -0.9374 -3.5611 -3.3075 0
M  V30 33 H 0.688 -3.4833 -1.5565 0
M  V30 34 H -0.6225 -3.1974 -0.3773 0
M  V30 35 H -2.7686 -1.1086 -3.2744 0
M  V30 36 H -1.4914 -1.393 -4.4391 0
M  V30 37 H 1.6523 -1.2398 -0.9929 0
M  V30 38 H 0.3704 -0.9707 0.1677 0
M  V30 39 H -3.9437 -3.2014 -4.0413 0
M  V30 40 H -2.631 -3.5179 -5.1709 0
M  V30 41 H 2.4373 -3.2386 0.3137 0
M  V30 42 H 1.1357 -2.9863 1.4809 0
M  V30 43 H -3.1197 -1.3771 -6.3789 0
M  V30 44 H -4.4187 -2.5463 -6.4444 0
M  V30 45 H 2.0367 -0.717 1.9985 0
M  V30 46 H 3.345 -0.9619 0.8406 0
M  V30 47 H 2.8665 -2.6501 3.3597 0
M  V30 48 H 4.1319 -2.9522 2.1712 0
M  V30 49 H -6.3686 -2.3321 -4.7166 0
M  V30 50 H -3.5832 0.8438 -5.5927 0
M  V30 51 H 5.1099 -0.7127 2.5874 0
M  V30 52 H 5.101 -1.7184 4.0433 0
M  V30 53 H -7.9638 -0.6733 -3.8215 0
M  V30 54 H -5.1915 2.4883 -4.6979 0
M  V30 55 H 3.2725 -0.5691 4.8935 0
M  V30 56 H -7.3825 1.738 -3.8094 0
M  V30 57 H 5.0398 1.4008 3.5695 0
M  V30 58 H 5.2538 0.6463 5.1606 0
M  V30 59 H 4.3825 2.8141 5.5644 0
M  V30 60 H 2.062 1.2619 5.752 0
M  V30 61 H 2.838 1.6845 2.458 0
M  V30 62 H 2.3685 4.3838 5.783 0
M  V30 63 H 0.8004 5.7354 4.4434 0
M  V30 64 H 0.124 2.4903 0.7329 0
M  V30 65 H 1.1986 3.7363 0.0322 0
M  V30 66 H -0.1663 4.9393 1.1879 0
M  V30 67 H 1.6036 1.5342 -0.5876 0
M  V30 END ATOM
M  V30 BEGIN BOND
M  V30 1 1 1 2
M  V30 2 1 1 3
M  V30 3 1 2 4
M  V30 4 1 3 5
M  V30 5 1 4 6
M  V30 6 1 5 7
M  V30 7 1 6 8
M  V30 8 1 7 9
M  V30 9 1 8 10
M  V30 10 1 9 11
M  V30 11 2 10 12
M  V30 12 1 10 13
M  V30 13 1 11 14
M  V30 14 1 12 15
M  V30 15 2 13 16
M  V30 16 1 14 17
M  V30 17 2 15 18
M  V30 18 1 17 19
M  V30 19 1 19 20
M  V30 20 1 20 21
M  V30 21 1 20 22
M  V30 22 2 22 23
M  V30 23 1 22 24
M  V30 24 1 23 25
M  V30 25 2 24 26
M  V30 26 2 25 27
M  V30 27 1 25 28
M  V30 28 1 27 29
M  V30 29 1 28 30
M  V30 30 1 16 18
M  V30 31 1 26 27
M  V30 32 1 2 31
M  V30 33 1 2 32
M  V30 34 1 3 33
M  V30 35 1 3 34
M  V30 36 1 4 35
M  V30 37 1 4 36
M  V30 38 1 5 37
M  V30 39 1 5 38
M  V30 40 1 6 39
M  V30 41 1 6 40
M  V30 42 1 7 41
M  V30 43 1 7 42
M  V30 44 1 8 43
M  V30 45 1 8 44
M  V30 46 1 9 45
M  V30 47 1 9 46
M  V30 48 1 11 47
M  V30 49 1 11 48
M  V30 50 1 12 49
M  V30 51 1 13 50
M  V30 52 1 14 51
M  V30 53 1 14 52
M  V30 54 1 15 53
M  V30 55 1 16 54
M  V30 56 1 17 55
M  V30 57 1 18 56
M  V30 58 1 19 57
M  V30 59 1 19 58
M  V30 60 1 20 59
M  V30 61 1 21 60
M  V30 62 1 23 61
M  V30 63 1 24 62
M  V30 64 1 26 63
M  V30 65 1 28 64
M  V30 66 1 28 65
M  V30 67 1 29 66
M  V30 68 1 30 67
M  V30 END BOND
M  V30 BEGIN COLLECTION
M  V30 MDLV30/STERAC1 ATOMS=(1 20)
M  V30 END COLLECTION
M  V30 END CTAB
M  END
>  <NO.>
5558

>  <Name>
salmeterol

>  <SMILES>
OCc1cc(C(O)CNCCCCCCOCCCCc2ccccc2)ccc1O

>  <logBB>


>  <Class>
-1

>  <MW>
415.27

>  <nHBAcc>
5

>  <nHBDon>
4

>  <SLogP>
4.11

>  <TopoPSA>
81.95

>  <MMFF94 Energy>
71.996

$$$$
Oc1ccc(C2CNCCc3c2cc(O)c(O)c3Cl)cc1
Actelion Java MolfileCreator 2.0

  0  0  0  0  0  0              0 V3000
M  V30 BEGIN CTAB
M  V30 COUNTS 37 39 0 0 0
M  V30 BEGIN ATOM
M  V30 1 Cl 1.4526 3.6346 -3.0685 0
M  V30 2 C 1.3786 2.5319 -1.7301 0
M  V30 3 C 2.4309 2.5381 -0.8128 0
M  V30 4 C 0.2946 1.6337 -1.5621 0
M  V30 5 O 3.4929 3.3965 -0.9421 0
M  V30 6 C 2.425 1.664 0.2652 0
M  V30 7 C 0.3 0.7249 -0.4621 0
M  V30 8 C -0.8672 1.6173 -2.5387 0
M  V30 9 O 3.4803 1.7211 1.1359 0
M  V30 10 C 1.3821 0.7645 0.4435 0
M  V30 11 C -0.8528 -0.2815 -0.2772 0 CFG=2
M  V30 12 C -0.9336 0.3186 -3.3486 0
M  V30 13 C -0.847 -1.0243 1.0661 0
M  V30 14 C -0.9511 -1.2701 -1.4794 0
M  V30 15 N -1.6442 -0.7672 -2.6733 0
M  V30 16 C -1.5151 -0.4572 2.1666 0
M  V30 17 C -0.1621 -2.2393 1.2524 0
M  V30 18 C -1.5108 -1.0938 3.4089 0
M  V30 19 C -0.1614 -2.8773 2.4962 0
M  V30 20 C -0.838 -2.2984 3.5636 0
M  V30 21 O -0.8611 -2.8853 4.7936 0
M  V30 22 H 4.0739 3.1961 -0.1816 0
M  V30 23 H -1.8034 1.7978 -1.9944 0
M  V30 24 H -0.8132 2.4478 -3.2478 0
M  V30 25 H 3.3187 1.0855 1.8554 0
M  V30 26 H 1.4175 0.0935 1.2963 0
M  V30 27 H -1.7839 0.3042 -0.2638 0
M  V30 28 H 0.0633 -0.011 -3.666 0
M  V30 29 H -1.4919 0.5247 -4.2699 0
M  V30 30 H -1.5287 -2.1515 -1.1731 0
M  V30 31 H 0.0419 -1.6445 -1.7603 0
M  V30 32 H -2.5817 -0.4566 -2.4174 0
M  V30 33 H -2.0422 0.4896 2.0649 0
M  V30 34 H 0.3865 -2.7003 0.4338 0
M  V30 35 H -2.0321 -0.6504 4.253 0
M  V30 36 H 0.3718 -3.8159 2.611 0
M  V30 37 H -0.3974 -3.737 4.7416 0
M  V30 END ATOM
M  V30 BEGIN BOND
M  V30 1 1 1 2
M  V30 2 2 2 3
M  V30 3 1 2 4
M  V30 4 1 3 5
M  V30 5 1 3 6
M  V30 6 2 4 7
M  V30 7 1 4 8
M  V30 8 1 6 9
M  V30 9 2 6 10
M  V30 10 1 7 11
M  V30 11 1 8 12
M  V30 12 1 11 13
M  V30 13 1 11 14
M  V30 14 1 12 15
M  V30 15 2 13 16
M  V30 16 1 13 17
M  V30 17 1 16 18
M  V30 18 2 17 19
M  V30 19 2 18 20
M  V30 20 1 20 21
M  V30 21 1 7 10
M  V30 22 1 14 15
M  V30 23 1 19 20
M  V30 24 1 5 22
M  V30 25 1 8 23
M  V30 26 1 8 24
M  V30 27 1 9 25
M  V30 28 1 10 26
M  V30 29 1 11 27
M  V30 30 1 12 28
M  V30 31 1 12 29
M  V30 32 1 14 30
M  V30 33 1 14 31
M  V30 34 1 15 32
M  V30 35 1 16 33
M  V30 36 1 17 34
M  V30 37 1 18 35
M  V30 38 1 19 36
M  V30 39 1 21 37
M  V30 END BOND
M  V30 BEGIN COLLECTION
M  V30 MDLV30/STERAC1 ATOMS=(1 11)
M  V30 END COLLECTION
M  V30 END CTAB
M  END
>  <NO.>
5559

>  <Name>
fenoldopam

>  <SMILES>
Oc1ccc(C2CNCCc3c2cc(O)c(O)c3Cl)cc1

>  <logBB>


>  <Class>
-1

>  <MW>
305.08

>  <nHBAcc>
4

>  <nHBDon>
4

>  <SLogP>
2.73

>  <TopoPSA>
72.72

>  <MMFF94 Energy>
88.668

$$$$
S=c1[nH]c(-c2ccc(Br)cc2)cs1
Actelion Java MolfileCreator 2.0

  0  0  0  0  0  0              0 V3000
M  V30 BEGIN CTAB
M  V30 COUNTS 19 20 0 0 0
M  V30 BEGIN ATOM
M  V30 1 Br 4.2071 -2.2308 0.7718 0
M  V30 2 C 2.5734 -1.3541 0.4062 0
M  V30 3 C 2.5797 -0.0291 -0.0225 0
M  V30 4 C 1.3704 -2.0369 0.5674 0
M  V30 5 C 1.3704 0.6184 -0.2934 0
M  V30 6 C 0.1624 -1.3869 0.2974 0
M  V30 7 C 0.1485 -0.0531 -0.1385 0
M  V30 8 C -1.1212 0.6253 -0.4104 0
M  V30 9 N -2.1806 0.5209 0.4586 0
M  V30 10 C -1.3961 1.3794 -1.4849 0
M  V30 11 C -3.3266 1.1922 0.1011 0
M  V30 12 S -3.0249 1.997 -1.4374 0
M  V30 13 S -4.7183 1.2134 0.9925 0
M  V30 14 H 3.5158 0.5093 -0.146 0
M  V30 15 H 1.3604 -3.0722 0.8982 0
M  V30 16 H 1.3949 1.658 -0.6144 0
M  V30 17 H -0.7671 -1.9403 0.4145 0
M  V30 18 H -2.131 0.0022 1.3253 0
M  V30 19 H -0.7239 1.5912 -2.3047 0
M  V30 END ATOM
M  V30 BEGIN BOND
M  V30 1 1 1 2
M  V30 2 2 2 3
M  V30 3 1 2 4
M  V30 4 1 3 5
M  V30 5 2 4 6
M  V30 6 2 5 7
M  V30 7 1 7 8
M  V30 8 1 8 9
M  V30 9 2 8 10
M  V30 10 1 9 11
M  V30 11 1 10 12
M  V30 12 2 11 13
M  V30 13 1 6 7
M  V30 14 1 11 12
M  V30 15 1 3 14
M  V30 16 1 4 15
M  V30 17 1 5 16
M  V30 18 1 6 17
M  V30 19 1 9 18
M  V30 20 1 10 19
M  V30 END BOND
M  V30 END CTAB
M  END
>  <NO.>
5560

>  <Name>
zoledronicacid

>  <SMILES>
S=c1[nH]c(-c2ccc(Br)cc2)cs1

>  <logBB>


>  <Class>
-1

>  <MW>
270.91

>  <nHBAcc>
2

>  <nHBDon>
1

>  <SLogP>
4.24

>  <TopoPSA>
15.79

>  <MMFF94 Energy>
11.033

$$$$
c1ccc(CC2=NCCN2)cc1
Actelion Java MolfileCreator 2.0

  0  0  0  0  0  0              0 V3000
M  V30 BEGIN CTAB
M  V30 COUNTS 24 25 0 0 0
M  V30 BEGIN ATOM
M  V30 1 N -2.2108 -1.3418 -0.947 0
M  V30 2 C -1.417 -0.3446 -0.6479 0
M  V30 3 C -3.2128 -1.3695 0.1618 0
M  V30 4 N -1.7072 0.3233 0.5056 0
M  V30 5 C -0.2636 0.043 -1.5432 0
M  V30 6 C -2.7736 -0.3297 1.2028 0
M  V30 7 C 1.0155 0.2989 -0.7827 0
M  V30 8 C 1.53 1.5971 -0.6623 0
M  V30 9 C 1.6983 -0.7631 -0.1735 0
M  V30 10 C 2.7053 1.8271 0.0546 0
M  V30 11 C 2.8727 -0.5306 0.5429 0
M  V30 12 C 3.3756 0.764 0.6572 0
M  V30 13 H -4.2005 -1.1244 -0.2435 0
M  V30 14 H -3.2584 -2.3716 0.5999 0
M  V30 15 H -1.09 1.0017 0.9309 0
M  V30 16 H -0.5653 0.9386 -2.0995 0
M  V30 17 H -0.0933 -0.7466 -2.2844 0
M  V30 18 H -3.5831 0.3597 1.4574 0
M  V30 19 H -2.4064 -0.8123 2.1135 0
M  V30 20 H 1.0207 2.4373 -1.1288 0
M  V30 21 H 1.314 -1.7783 -0.2551 0
M  V30 22 H 3.1005 2.836 0.1402 0
M  V30 23 H 3.3957 -1.3608 1.0103 0
M  V30 24 H 4.292 0.9437 1.2129 0
M  V30 END ATOM
M  V30 BEGIN BOND
M  V30 1 2 1 2
M  V30 2 1 1 3
M  V30 3 1 2 4
M  V30 4 1 2 5
M  V30 5 1 3 6
M  V30 6 1 5 7
M  V30 7 2 7 8
M  V30 8 1 7 9
M  V30 9 1 8 10
M  V30 10 2 9 11
M  V30 11 2 10 12
M  V30 12 1 4 6
M  V30 13 1 11 12
M  V30 14 1 3 13
M  V30 15 1 3 14
M  V30 16 1 4 15
M  V30 17 1 5 16
M  V30 18 1 5 17
M  V30 19 1 6 18
M  V30 20 1 6 19
M  V30 21 1 8 20
M  V30 22 1 9 21
M  V30 23 1 10 22
M  V30 24 1 11 23
M  V30 25 1 12 24
M  V30 END BOND
M  V30 END CTAB
M  END
>  <NO.>
5561

>  <Name>
tolazoline

>  <SMILES>
c1ccc(CC2=NCCN2)cc1

>  <logBB>


>  <Class>
1

>  <MW>
160.1

>  <nHBAcc>
2

>  <nHBDon>
1

>  <SLogP>
1.23

>  <TopoPSA>
24.39

>  <MMFF94 Energy>
45.131

$$$$
c1ccc2c(CC3=NCCN3)cccc2c1
Actelion Java MolfileCreator 2.0

  0  0  0  0  0  0              0 V3000
M  V30 BEGIN CTAB
M  V30 COUNTS 30 32 0 0 0
M  V30 BEGIN ATOM
M  V30 1 N -1.5942 -2.4719 -0.9563 0
M  V30 2 C -1.6072 -1.245 -0.4987 0
M  V30 3 C -1.93 -3.3171 0.23 0
M  V30 4 N -1.8946 -1.1059 0.8277 0
M  V30 5 C -1.3329 -0.0663 -1.4037 0
M  V30 6 C -1.9731 -2.3913 1.4538 0
M  V30 7 C -0.4812 1.0068 -0.7535 0
M  V30 8 C 0.9021 0.8144 -0.4785 0
M  V30 9 C -1.1024 2.2182 -0.3994 0
M  V30 10 C 1.6233 1.8595 0.1534 0
M  V30 11 C 1.6093 -0.3671 -0.7992 0
M  V30 12 C -0.3811 3.2336 0.2177 0
M  V30 13 C 0.9713 3.054 0.4923 0
M  V30 14 C 2.9892 1.6984 0.4397 0
M  V30 15 C 2.9676 -0.5123 -0.5072 0
M  V30 16 C 3.6576 0.5204 0.1123 0
M  V30 17 H -2.9027 -3.7926 0.0643 0
M  V30 18 H -1.1781 -4.1026 0.3554 0
M  V30 19 H -1.768 -0.2428 1.3392 0
M  V30 20 H -2.3067 0.3436 -1.6992 0
M  V30 21 H -0.8569 -0.4083 -2.33 0
M  V30 22 H -2.8949 -2.5158 2.0285 0
M  V30 23 H -1.1112 -2.5589 2.1067 0
M  V30 24 H -2.1591 2.3761 -0.6066 0
M  V30 25 H 1.109 -1.2013 -1.2869 0
M  V30 26 H -0.8706 4.1669 0.4833 0
M  V30 27 H 1.5184 3.8614 0.9744 0
M  V30 28 H 3.5474 2.4973 0.9231 0
M  V30 29 H 3.4809 -1.434 -0.7679 0
M  V30 30 H 4.7144 0.412 0.3394 0
M  V30 END ATOM
M  V30 BEGIN BOND
M  V30 1 2 1 2
M  V30 2 1 1 3
M  V30 3 1 2 4
M  V30 4 1 2 5
M  V30 5 1 3 6
M  V30 6 1 5 7
M  V30 7 1 7 8
M  V30 8 2 7 9
M  V30 9 1 8 10
M  V30 10 2 8 11
M  V30 11 1 9 12
M  V30 12 1 10 13
M  V30 13 2 10 14
M  V30 14 1 11 15
M  V30 15 1 14 16
M  V30 16 1 4 6
M  V30 17 2 12 13
M  V30 18 2 15 16
M  V30 19 1 3 17
M  V30 20 1 3 18
M  V30 21 1 4 19
M  V30 22 1 5 20
M  V30 23 1 5 21
M  V30 24 1 6 22
M  V30 25 1 6 23
M  V30 26 1 9 24
M  V30 27 1 11 25
M  V30 28 1 12 26
M  V30 29 1 13 27
M  V30 30 1 14 28
M  V30 31 1 15 29
M  V30 32 1 16 30
M  V30 END BOND
M  V30 END CTAB
M  END
>  <NO.>
5562

>  <Name>
naphazoline

>  <SMILES>
c1ccc2c(CC3=NCCN3)cccc2c1

>  <logBB>


>  <Class>
-1

>  <MW>
210.12

>  <nHBAcc>
2

>  <nHBDon>
1

>  <SLogP>
2.38

>  <TopoPSA>
24.39

>  <MMFF94 Energy>
59.675

$$$$
C#CC1(O)C=CC2C3CCC4=CC(=O)CCC4C3CCC21CC
Actelion Java MolfileCreator 2.0

  0  0  0  0  0  0              0 V3000
M  V30 BEGIN CTAB
M  V30 COUNTS 49 52 0 0 0
M  V30 BEGIN ATOM
M  V30 1 O 0.2416 -0.2416 6.3777 0
M  V30 2 C 0.2481 -0.4908 5.1755 0
M  V30 3 C -0.9866 -0.3002 4.3806 0
M  V30 4 C 1.4427 -1.0851 4.4769 0
M  V30 5 C -0.9916 -0.4836 3.0488 0
M  V30 6 C 1.5466 -0.5431 3.061 0
M  V30 7 C 0.2636 -0.7757 2.2347 0
M  V30 8 C -2.2953 -0.4498 2.2889 0
M  V30 9 C 0.2921 0.0757 0.929 0
M  V30 10 C -2.2104 0.3938 1.021 0
M  V30 11 C -1.0438 -0.0738 0.1384 0
M  V30 12 C 1.5378 -0.2133 0.0508 0
M  V30 13 C -0.9351 0.7391 -1.1561 0
M  V30 14 C 1.53 0.5338 -1.2983 0
M  V30 15 C -2.0657 0.844 -2.133 0
M  V30 16 C 0.2339 0.2586 -2.0834 0
M  V30 17 C -1.5656 1.1212 -3.3496 0
M  V30 18 C -0.054 1.1276 -3.3593 0
M  V30 19 C 0.1341 -1.2826 -2.446 0
M  V30 20 O 0.3811 0.5354 -4.566 0
M  V30 21 C 0.436 2.5167 -3.3013 0
M  V30 22 C 1.371 -1.9102 -3.0905 0
M  V30 23 C 0.8378 3.6489 -3.268 0
M  V30 24 H -1.8808 -0.0781 4.9524 0
M  V30 25 H 2.3458 -0.8189 5.0364 0
M  V30 26 H 1.3426 -2.1757 4.4792 0
M  V30 27 H 2.4025 -1.0189 2.569 0
M  V30 28 H 1.7632 0.5326 3.1106 0
M  V30 29 H 0.2252 -1.838 1.9557 0
M  V30 30 H -2.5632 -1.4796 2.0198 0
M  V30 31 H -3.1113 -0.0679 2.9144 0
M  V30 32 H 0.3716 1.1327 1.2294 0
M  V30 33 H -3.1588 0.3061 0.4792 0
M  V30 34 H -2.0889 1.4523 1.2847 0
M  V30 35 H -1.2238 -1.1301 -0.0876 0
M  V30 36 H 2.4454 0.0904 0.585 0
M  V30 37 H 1.6273 -1.2926 -0.1138 0
M  V30 38 H -0.7446 1.7773 -0.8338 0
M  V30 39 H 1.6298 1.6045 -1.0814 0
M  V30 40 H 2.4156 0.2656 -1.8841 0
M  V30 41 H -3.1176 0.8142 -1.8894 0
M  V30 42 H -2.1566 1.3098 -4.2346 0
M  V30 43 H -0.0708 -1.8825 -1.5558 0
M  V30 44 H -0.7202 -1.461 -3.1107 0
M  V30 45 H 1.3165 0.7748 -4.6692 0
M  V30 46 H 1.1424 -2.9375 -3.3944 0
M  V30 47 H 1.71 -1.3745 -3.978 0
M  V30 48 H 2.2057 -1.9654 -2.386 0
M  V30 49 H 1.1849 4.6562 -3.2414 0
M  V30 END ATOM
M  V30 BEGIN BOND
M  V30 1 2 1 2
M  V30 2 1 2 3
M  V30 3 1 2 4
M  V30 4 2 3 5
M  V30 5 1 4 6
M  V30 6 1 5 7
M  V30 7 1 5 8
M  V30 8 1 7 9
M  V30 9 1 8 10
M  V30 10 1 9 11
M  V30 11 1 9 12
M  V30 12 1 11 13
M  V30 13 1 12 14
M  V30 14 1 13 15
M  V30 15 1 13 16
M  V30 16 2 15 17
M  V30 17 1 16 18
M  V30 18 1 16 19
M  V30 19 1 18 20
M  V30 20 1 18 21
M  V30 21 1 19 22
M  V30 22 3 21 23
M  V30 23 1 6 7
M  V30 24 1 10 11
M  V30 25 1 14 16
M  V30 26 1 17 18
M  V30 27 1 3 24
M  V30 28 1 4 25
M  V30 29 1 4 26
M  V30 30 1 6 27
M  V30 31 1 6 28
M  V30 32 1 7 29
M  V30 33 1 8 30
M  V30 34 1 8 31
M  V30 35 1 9 32
M  V30 36 1 10 33
M  V30 37 1 10 34
M  V30 38 1 11 35
M  V30 39 1 12 36
M  V30 40 1 12 37
M  V30 41 1 13 38
M  V30 42 1 14 39
M  V30 43 1 14 40
M  V30 44 1 15 41
M  V30 45 1 17 42
M  V30 46 1 19 43
M  V30 47 1 19 44
M  V30 48 1 20 45
M  V30 49 1 22 46
M  V30 50 1 22 47
M  V30 51 1 22 48
M  V30 52 1 23 49
M  V30 END BOND
M  V30 END CTAB
M  END
>  <NO.>
5563

>  <Name>
smr000539419

>  <SMILES>
C#CC1(O)C=CC2C3CCC4=CC(=O)CCC4C3CCC21CC

>  <logBB>


>  <Class>
-1

>  <MW>
310.19

>  <nHBAcc>
2

>  <nHBDon>
1

>  <SLogP>
3.66

>  <TopoPSA>
37.3

>  <MMFF94 Energy>
62.744

$$$$
C#CC1(O)CCC2C3CCC4=C/C(=N\O)CCC4C3CCC21CC
Actelion Java MolfileCreator 2.0

  0  0  0  0  0  0              0 V3000
M  V30 BEGIN CTAB
M  V30 COUNTS 53 56 0 0 0
M  V30 BEGIN ATOM
M  V30 1 O -3.2142 0.4013 5.8718 0
M  V30 2 N -1.8328 0.2519 5.7033 0
M  V30 3 C -1.5245 -0.1229 4.499 0
M  V30 4 C -2.4838 -0.3415 3.3761 0
M  V30 5 C -0.0504 -0.3 4.1848 0
M  V30 6 C -2.0633 -0.8519 2.2064 0
M  V30 7 C 0.1427 -1.4821 3.2511 0
M  V30 8 C -0.6466 -1.3297 1.9407 0
M  V30 9 C -2.9616 -0.9117 1.0006 0
M  V30 10 C -0.0225 -0.3866 0.8726 0
M  V30 11 C -2.3679 -0.0398 -0.1075 0
M  V30 12 C -0.9004 -0.4088 -0.4125 0
M  V30 13 C 1.4273 -0.7532 0.5266 0
M  V30 14 C -0.3271 0.4531 -1.553 0
M  V30 15 C 2.0011 0.1198 -0.5928 0
M  V30 16 C 1.1495 0.1339 -1.9049 0
M  V30 17 C -0.3419 1.9751 -1.3039 0
M  V30 18 C 1.5031 1.3696 -2.7969 0
M  V30 19 C 1.3435 -1.2473 -2.6069 0
M  V30 20 C 0.8579 2.5566 -2.0641 0
M  V30 21 O 0.8637 1.2865 -4.0696 0
M  V30 22 C 2.9452 1.5655 -3.0146 0
M  V30 23 C 0.4801 -1.5928 -3.8143 0
M  V30 24 C 4.1204 1.7275 -3.2035 0
M  V30 25 H -3.2804 0.6652 6.8084 0
M  V30 26 H -3.504 -0.0089 3.5262 0
M  V30 27 H 0.4997 -0.4736 5.1166 0
M  V30 28 H 0.3269 0.628 3.7418 0
M  V30 29 H 1.2074 -1.6513 3.0689 0
M  V30 30 H -0.2159 -2.3868 3.7629 0
M  V30 31 H -0.7044 -2.338 1.5052 0
M  V30 32 H -3.051 -1.9504 0.6607 0
M  V30 33 H -3.9753 -0.5645 1.2325 0
M  V30 34 H -0.0174 0.6335 1.2798 0
M  V30 35 H -2.4371 1.0132 0.1931 0
M  V30 36 H -2.9745 -0.1509 -1.0143 0
M  V30 37 H -0.9116 -1.4465 -0.7777 0
M  V30 38 H 2.0684 -0.6162 1.4045 0
M  V30 39 H 1.4953 -1.8132 0.2589 0
M  V30 40 H -0.9568 0.286 -2.4367 0
M  V30 41 H 3.0196 -0.2249 -0.813 0
M  V30 42 H 2.1143 1.133 -0.1888 0
M  V30 43 H -1.2794 2.4132 -1.665 0
M  V30 44 H -0.2594 2.2315 -0.2432 0
M  V30 45 H 2.3946 -1.345 -2.9078 0
M  V30 46 H 1.1722 -2.0485 -1.8793 0
M  V30 47 H 1.5459 3.0246 -1.3494 0
M  V30 48 H 0.5266 3.342 -2.7537 0
M  V30 49 H 1.2134 2.0138 -4.6121 0
M  V30 50 H 0.6672 -2.6327 -4.1056 0
M  V30 51 H 0.7191 -0.981 -4.686 0
M  V30 52 H -0.5873 -1.5099 -3.5971 0
M  V30 53 H 5.1637 1.8654 -3.3718 0
M  V30 END ATOM
M  V30 BEGIN BOND
M  V30 1 1 1 2
M  V30 2 2 2 3
M  V30 3 1 3 4
M  V30 4 1 3 5
M  V30 5 2 4 6
M  V30 6 1 5 7
M  V30 7 1 6 8
M  V30 8 1 6 9
M  V30 9 1 8 10
M  V30 10 1 9 11
M  V30 11 1 10 12
M  V30 12 1 10 13
M  V30 13 1 12 14
M  V30 14 1 13 15
M  V30 15 1 14 16
M  V30 16 1 14 17
M  V30 17 1 16 18
M  V30 18 1 16 19
M  V30 19 1 17 20
M  V30 20 1 18 21
M  V30 21 1 18 22
M  V30 22 1 19 23
M  V30 23 3 22 24
M  V30 24 1 7 8
M  V30 25 1 11 12
M  V30 26 1 15 16
M  V30 27 1 18 20
M  V30 28 1 1 25
M  V30 29 1 4 26
M  V30 30 1 5 27
M  V30 31 1 5 28
M  V30 32 1 7 29
M  V30 33 1 7 30
M  V30 34 1 8 31
M  V30 35 1 9 32
M  V30 36 1 9 33
M  V30 37 1 10 34
M  V30 38 1 11 35
M  V30 39 1 11 36
M  V30 40 1 12 37
M  V30 41 1 13 38
M  V30 42 1 13 39
M  V30 43 1 14 40
M  V30 44 1 15 41
M  V30 45 1 15 42
M  V30 46 1 17 43
M  V30 47 1 17 44
M  V30 48 1 19 45
M  V30 49 1 19 46
M  V30 50 1 20 47
M  V30 51 1 20 48
M  V30 52 1 21 49
M  V30 53 1 23 50
M  V30 54 1 23 51
M  V30 55 1 23 52
M  V30 56 1 24 53
M  V30 END BOND
M  V30 END CTAB
M  END
>  <NO.>
5564

>  <Name>
norelgestromin

>  <SMILES>
C#CC1(O)CCC2C3CCC4=C/C(=N\O)CCC4C3CCC21CC

>  <logBB>


>  <Class>
-1

>  <MW>
327.22

>  <nHBAcc>
3

>  <nHBDon>
2

>  <SLogP>
4.14

>  <TopoPSA>
52.82

>  <MMFF94 Energy>
80.116

$$$$
C#CC1(O)CCC2C3CCC4=CC(=O)CCC4=C3C=CC21CC
Actelion Java MolfileCreator 2.0

  0  0  0  0  0  0              0 V3000
M  V30 BEGIN CTAB
M  V30 COUNTS 47 50 0 0 0
M  V30 BEGIN ATOM
M  V30 1 O -0.9671 -2.177 5.9753 0
M  V30 2 C -0.93 -1.91 4.7774 0
M  V30 3 C -1.094 -0.5116 4.3314 0
M  V30 4 C -0.84 -2.9641 3.7121 0
M  V30 5 C -0.9109 -0.1631 3.0464 0
M  V30 6 C 0.0074 -2.4634 2.5537 0
M  V30 7 C -0.4008 -1.0951 2.025 0
M  V30 8 C -1.2789 1.2375 2.6209 0
M  V30 9 C -0.2564 -0.7089 0.7303 0
M  V30 10 C -0.4298 1.7204 1.4588 0
M  V30 11 C 0.1617 -1.6063 -0.3403 0
M  V30 12 C -0.5252 0.7285 0.2871 0
M  V30 13 C 0.4135 -1.2179 -1.5996 0
M  V30 14 C 0.3701 1.1916 -0.8884 0
M  V30 15 C 0.3805 0.2216 -2.1052 0
M  V30 16 C 1.8662 1.3554 -0.492 0
M  V30 17 C 1.7478 0.6065 -2.7938 0
M  V30 18 C -0.8054 0.3809 -3.1002 0
M  V30 19 C 2.7048 0.7374 -1.6103 0
M  V30 20 O 2.2128 -0.4024 -3.6842 0
M  V30 21 C 1.7057 1.8872 -3.5411 0
M  V30 22 C -2.2032 0.0364 -2.6 0
M  V30 23 C 1.6869 2.9213 -4.1527 0
M  V30 24 H -1.444 0.1818 5.0874 0
M  V30 25 H -0.3827 -3.8629 4.1397 0
M  V30 26 H -1.855 -3.2153 3.3848 0
M  V30 27 H 1.0521 -2.3893 2.8862 0
M  V30 28 H -0.0233 -3.238 1.784 0
M  V30 29 H -2.3364 1.248 2.3256 0
M  V30 30 H -1.1738 1.9428 3.4546 0
M  V30 31 H -0.776 2.7106 1.1383 0
M  V30 32 H 0.6038 1.8425 1.803 0
M  V30 33 H 0.2612 -2.6665 -0.1329 0
M  V30 34 H -1.5663 0.7502 -0.053 0
M  V30 35 H 0.693 -1.9803 -2.326 0
M  V30 36 H 0.0064 2.1746 -1.2208 0
M  V30 37 H 2.0995 2.4211 -0.3826 0
M  V30 38 H 2.1206 0.8724 0.457 0
M  V30 39 H -0.6102 -0.2462 -3.9805 0
M  V30 40 H -0.8521 1.4126 -3.4678 0
M  V30 41 H 3.079 -0.2467 -1.3006 0
M  V30 42 H 3.5907 1.3437 -1.8322 0
M  V30 43 H 1.6789 -0.334 -4.4933 0
M  V30 44 H -2.9014 0.0297 -3.4444 0
M  V30 45 H -2.5704 0.7884 -1.898 0
M  V30 46 H -2.2503 -0.9491 -2.1306 0
M  V30 47 H 1.6781 3.8387 -4.6953 0
M  V30 END ATOM
M  V30 BEGIN BOND
M  V30 1 2 1 2
M  V30 2 1 2 3
M  V30 3 1 2 4
M  V30 4 2 3 5
M  V30 5 1 4 6
M  V30 6 1 5 7
M  V30 7 1 5 8
M  V30 8 2 7 9
M  V30 9 1 8 10
M  V30 10 1 9 11
M  V30 11 1 9 12
M  V30 12 2 11 13
M  V30 13 1 12 14
M  V30 14 1 13 15
M  V30 15 1 14 16
M  V30 16 1 15 17
M  V30 17 1 15 18
M  V30 18 1 16 19
M  V30 19 1 17 20
M  V30 20 1 17 21
M  V30 21 1 18 22
M  V30 22 3 21 23
M  V30 23 1 6 7
M  V30 24 1 10 12
M  V30 25 1 14 15
M  V30 26 1 17 19
M  V30 27 1 3 24
M  V30 28 1 4 25
M  V30 29 1 4 26
M  V30 30 1 6 27
M  V30 31 1 6 28
M  V30 32 1 8 29
M  V30 33 1 8 30
M  V30 34 1 10 31
M  V30 35 1 10 32
M  V30 36 1 11 33
M  V30 37 1 12 34
M  V30 38 1 13 35
M  V30 39 1 14 36
M  V30 40 1 16 37
M  V30 41 1 16 38
M  V30 42 1 18 39
M  V30 43 1 18 40
M  V30 44 1 19 41
M  V30 45 1 19 42
M  V30 46 1 20 43
M  V30 47 1 22 44
M  V30 48 1 22 45
M  V30 49 1 22 46
M  V30 50 1 23 47
M  V30 END BOND
M  V30 END CTAB
M  END
>  <NO.>
5565

>  <Name>
gestrinone

>  <SMILES>
C#CC1(O)CCC2C3CCC4=CC(=O)CCC4=C3C=CC21CC

>  <logBB>


>  <Class>
-1

>  <MW>
308.18

>  <nHBAcc>
2

>  <nHBDon>
1

>  <SLogP>
3.72

>  <TopoPSA>
37.3

>  <MMFF94 Energy>
57.722

$$$$
C#CC1(O)CCC2C3CCC4=CC(=O)CCC4C3C(=C)CC21CC
Actelion Java MolfileCreator 2.0

  0  0  0  0  0  0              0 V3000
M  V30 BEGIN CTAB
M  V30 COUNTS 52 55 0 0 0
M  V30 BEGIN ATOM
M  V30 1 O -0.2414 -6.0492 1.2076 0
M  V30 2 C -0.0235 -4.8412 1.2412 0
M  V30 3 C 1.1331 -4.2845 0.5044 0
M  V30 4 C -0.9507 -3.8667 1.9192 0
M  V30 5 C 1.4431 -2.9806 0.5962 0
M  V30 6 C -0.1563 -2.7245 2.5324 0
M  V30 7 C 0.7541 -1.9878 1.5238 0
M  V30 8 C 2.4678 -2.3652 -0.3136 0
M  V30 9 C 0.039 -0.8977 0.6665 0
M  V30 10 C 1.7587 -1.3614 -1.219 0
M  V30 11 C -0.6372 0.2737 1.4012 0
M  V30 12 C 1.016 -0.2853 -0.4065 0
M  V30 13 C -0.5201 0.5596 2.7089 0
M  V30 14 C -1.4395 1.1946 0.482 0
M  V30 15 C 0.1975 0.6429 -1.3242 0
M  V30 16 C -0.5004 1.8235 -0.5747 0
M  V30 17 C 0.8826 1.3175 -2.5071 0
M  V30 18 C -1.174 2.526 -1.8011 0
M  V30 19 C 0.5483 2.7839 0.1183 0
M  V30 20 C -0.0675 2.4694 -2.8905 0
M  V30 21 O -1.5127 3.8802 -1.5602 0
M  V30 22 C -2.3964 1.8444 -2.2867 0
M  V30 23 C 0.0 3.8709 1.0423 0
M  V30 24 C -3.393 1.3064 -2.6879 0
M  V30 25 H 1.6405 -4.9711 -0.1635 0
M  V30 26 H -1.494 -4.3955 2.71 0
M  V30 27 H -1.6774 -3.5026 1.1857 0
M  V30 28 H -0.8527 -2.0486 3.0338 0
M  V30 29 H 0.4843 -3.1387 3.324 0
M  V30 30 H 1.5384 -1.4901 2.1121 0
M  V30 31 H 3.2457 -1.8706 0.2798 0
M  V30 32 H 2.9688 -3.1205 -0.9301 0
M  V30 33 H -0.7654 -1.4188 0.1241 0
M  V30 34 H 1.0519 -1.8887 -1.8733 0
M  V30 35 H 2.5027 -0.8894 -1.8714 0
M  V30 36 H 1.7903 0.2903 0.1149 0
M  V30 37 H 0.0881 -0.0247 3.3897 0
M  V30 38 H -1.0204 1.4194 3.1461 0
M  V30 39 H -1.9749 1.97 1.0407 0
M  V30 40 H -2.2191 0.5814 0.0141 0
M  V30 41 H -0.5824 -9.0E-4 -1.7627 0
M  V30 42 H 1.8684 1.7087 -2.2329 0
M  V30 43 H 1.0224 0.6268 -3.345 0
M  V30 44 H 1.1642 3.2833 -0.638 0
M  V30 45 H 1.2537 2.2031 0.7203 0
M  V30 46 H -0.4826 2.3046 -3.8923 0
M  V30 47 H 0.4943 3.4101 -2.9413 0
M  V30 48 H -2.3165 3.8809 -1.0133 0
M  V30 49 H -0.5346 3.4545 1.8983 0
M  V30 50 H 0.8339 4.4577 1.4438 0
M  V30 51 H -0.6622 4.5704 0.5311 0
M  V30 52 H -4.2762 0.8324 -3.0503 0
M  V30 END ATOM
M  V30 BEGIN BOND
M  V30 1 2 1 2
M  V30 2 1 2 3
M  V30 3 1 2 4
M  V30 4 2 3 5
M  V30 5 1 4 6
M  V30 6 1 5 7
M  V30 7 1 5 8
M  V30 8 1 7 9
M  V30 9 1 8 10
M  V30 10 1 9 11
M  V30 11 1 9 12
M  V30 12 2 11 13
M  V30 13 1 11 14
M  V30 14 1 12 15
M  V30 15 1 14 16
M  V30 16 1 15 17
M  V30 17 1 16 18
M  V30 18 1 16 19
M  V30 19 1 17 20
M  V30 20 1 18 21
M  V30 21 1 18 22
M  V30 22 1 19 23
M  V30 23 3 22 24
M  V30 24 1 6 7
M  V30 25 1 10 12
M  V30 26 1 15 16
M  V30 27 1 18 20
M  V30 28 1 3 25
M  V30 29 1 4 26
M  V30 30 1 4 27
M  V30 31 1 6 28
M  V30 32 1 6 29
M  V30 33 1 7 30
M  V30 34 1 8 31
M  V30 35 1 8 32
M  V30 36 1 9 33
M  V30 37 1 10 34
M  V30 38 1 10 35
M  V30 39 1 12 36
M  V30 40 1 13 37
M  V30 41 1 13 38
M  V30 42 1 14 39
M  V30 43 1 14 40
M  V30 44 1 15 41
M  V30 45 1 17 42
M  V30 46 1 17 43
M  V30 47 1 19 44
M  V30 48 1 19 45
M  V30 49 1 20 46
M  V30 50 1 20 47
M  V30 51 1 21 48
M  V30 52 1 23 49
M  V30 53 1 23 50
M  V30 54 1 23 51
M  V30 55 1 24 52
M  V30 END BOND
M  V30 END CTAB
M  END
>  <NO.>
5566

>  <Name>
etonogestrel

>  <SMILES>
C#CC1(O)CCC2C3CCC4=CC(=O)CCC4C3C(=C)CC21CC

>  <logBB>


>  <Class>
-1

>  <MW>
324.21

>  <nHBAcc>
2

>  <nHBDon>
1

>  <SLogP>
4.05

>  <TopoPSA>
37.3

>  <MMFF94 Energy>
83.542

$$$$
C#CC1(O)CCC2C3CCC4=CCCCC4C3C(=C)CC21CC
Actelion Java MolfileCreator 2.0

  0  0  0  0  0  0              0 V3000
M  V30 BEGIN CTAB
M  V30 COUNTS 53 56 0 0 0
M  V30 BEGIN ATOM
M  V30 1 O 1.6839 0.0801 2.4865 0
M  V30 2 C 1.76 -1.3112 2.1909 0
M  V30 3 C 3.1275 -1.7617 2.5088 0
M  V30 4 C 1.292 -1.6332 0.7255 0
M  V30 5 C 0.7131 -2.0109 3.0666 0
M  V30 6 C 4.2439 -2.1153 2.7768 0
M  V30 7 C -0.256 -1.4579 0.8469 0
M  V30 8 C 1.926 -0.7014 -0.3377 0
M  V30 9 C 1.6638 -3.1232 0.3622 0
M  V30 10 C -0.586 -2.0081 2.2526 0
M  V30 11 C -0.8078 -0.0095 0.6451 0
M  V30 12 C 1.3295 0.6832 -0.3896 0
M  V30 13 C 1.0277 -3.7141 -0.8943 0
M  V30 14 C -0.1811 0.6749 -0.6012 0
M  V30 15 C -2.3459 -0.0517 0.521 0
M  V30 16 C 2.1093 1.7641 -0.2166 0
M  V30 17 C -0.8411 2.0522 -0.9504 0
M  V30 18 C -2.9312 1.3408 0.3456 0
M  V30 19 C -2.3624 2.0004 -0.8779 0
M  V30 20 C -0.361 2.5363 -2.3439 0
M  V30 21 C -3.1633 2.5294 -1.8211 0
M  V30 22 C -1.2014 3.6945 -2.87 0
M  V30 23 C -2.6615 3.2797 -3.0163 0
M  V30 24 H 2.0992 0.216 3.3543 0
M  V30 25 H 0.5621 -1.4968 4.0234 0
M  V30 26 H 0.9917 -3.0459 3.2998 0
M  V30 27 H 5.2361 -2.4267 3.0097 0
M  V30 28 H -0.7653 -2.0764 0.1012 0
M  V30 29 H 3.0116 -0.6572 -0.181 0
M  V30 30 H 1.7991 -1.1211 -1.3416 0
M  V30 31 H 2.752 -3.1923 0.2348 0
M  V30 32 H 1.4144 -3.797 1.1898 0
M  V30 33 H -0.9664 -3.0336 2.1731 0
M  V30 34 H -1.3528 -1.4264 2.7724 0
M  V30 35 H -0.5692 0.5953 1.5305 0
M  V30 36 H 1.193 -3.098 -1.7804 0
M  V30 37 H 1.4663 -4.6977 -1.0955 0
M  V30 38 H -0.0474 -3.8681 -0.7708 0
M  V30 39 H -0.3773 0.0173 -1.4627 0
M  V30 40 H -2.6356 -0.6833 -0.3292 0
M  V30 41 H -2.7945 -0.5029 1.4123 0
M  V30 42 H 3.1771 1.6632 -0.0453 0
M  V30 43 H 1.721 2.7753 -0.2004 0
M  V30 44 H -0.5357 2.796 -0.2014 0
M  V30 45 H -4.0237 1.2657 0.2881 0
M  V30 46 H -2.703 1.9564 1.2245 0
M  V30 47 H 0.6845 2.8565 -2.3038 0
M  V30 48 H -0.4065 1.7105 -3.0663 0
M  V30 49 H -4.2441 2.4506 -1.7263 0
M  V30 50 H -0.8154 4.0299 -3.8392 0
M  V30 51 H -1.1217 4.5465 -2.1827 0
M  V30 52 H -3.2736 4.176 -3.1677 0
M  V30 53 H -2.7875 2.6489 -3.904 0
M  V30 END ATOM
M  V30 BEGIN BOND
M  V30 1 1 1 2
M  V30 2 1 2 3
M  V30 3 1 2 4
M  V30 4 1 2 5
M  V30 5 3 3 6
M  V30 6 1 4 7
M  V30 7 1 4 8
M  V30 8 1 4 9
M  V30 9 1 5 10
M  V30 10 1 7 11
M  V30 11 1 8 12
M  V30 12 1 9 13
M  V30 13 1 11 14
M  V30 14 1 11 15
M  V30 15 2 12 16
M  V30 16 1 14 17
M  V30 17 1 15 18
M  V30 18 1 17 19
M  V30 19 1 17 20
M  V30 20 2 19 21
M  V30 21 1 20 22
M  V30 22 1 21 23
M  V30 23 1 7 10
M  V30 24 1 12 14
M  V30 25 1 18 19
M  V30 26 1 22 23
M  V30 27 1 1 24
M  V30 28 1 5 25
M  V30 29 1 5 26
M  V30 30 1 6 27
M  V30 31 1 7 28
M  V30 32 1 8 29
M  V30 33 1 8 30
M  V30 34 1 9 31
M  V30 35 1 9 32
M  V30 36 1 10 33
M  V30 37 1 10 34
M  V30 38 1 11 35
M  V30 39 1 13 36
M  V30 40 1 13 37
M  V30 41 1 13 38
M  V30 42 1 14 39
M  V30 43 1 15 40
M  V30 44 1 15 41
M  V30 45 1 16 42
M  V30 46 1 16 43
M  V30 47 1 17 44
M  V30 48 1 18 45
M  V30 49 1 18 46
M  V30 50 1 20 47
M  V30 51 1 20 48
M  V30 52 1 21 49
M  V30 53 1 22 50
M  V30 54 1 22 51
M  V30 55 1 23 52
M  V30 56 1 23 53
M  V30 END BOND
M  V30 END CTAB
M  END
>  <NO.>
5567

>  <Name>
chembl3560261

>  <SMILES>
C#CC1(O)CCC2C3CCC4=CCCCC4C3C(=C)CC21CC

>  <logBB>


>  <Class>
-1

>  <MW>
310.23

>  <nHBAcc>
1

>  <nHBDon>
1

>  <SLogP>
4.87

>  <TopoPSA>
20.23

>  <MMFF94 Energy>
77.479

$$$$
C#CC1(OC(C)=O)CCC2C3CCC4=C/C(=N\O)CCC4C3CCC21CC
Actelion Java MolfileCreator 2.0

  0  0  0  0  0  0              0 V3000
M  V30 BEGIN CTAB
M  V30 COUNTS 58 61 0 0 0
M  V30 BEGIN ATOM
M  V30 1 O -2.8126 -4.8253 0.3211 0
M  V30 2 C -1.6248 -4.7384 0.5935 0
M  V30 3 O -0.7837 -3.7294 0.2448 0
M  V30 4 C -0.8742 -5.7592 1.3942 0
M  V30 5 C -1.2611 -2.6359 -0.5774 0
M  V30 6 C -1.7604 -3.1426 -1.8723 0
M  V30 7 C -0.0785 -1.6016 -0.7683 0
M  V30 8 C -2.3103 -1.817 0.2024 0
M  V30 9 C -2.1691 -3.5629 -2.921 0
M  V30 10 C -0.0453 -0.9396 0.6328 0
M  V30 11 C -0.4345 -0.5194 -1.8427 0
M  V30 12 C 1.2771 -2.2587 -1.1896 0
M  V30 13 C -1.5275 -0.7785 1.0163 0
M  V30 14 C 0.7965 0.3489 0.6981 0
M  V30 15 C 0.4127 0.7546 -1.7705 0
M  V30 16 C 2.0726 -3.0453 -0.153 0
M  V30 17 C 0.3927 1.3986 -0.3775 0
M  V30 18 C 0.792 0.9547 2.1181 0
M  V30 19 C 1.3294 2.6362 -0.2706 0
M  V30 20 C 1.6493 2.2188 2.2074 0
M  V30 21 C 1.211 3.1848 1.1403 0
M  V30 22 C 1.1096 3.7415 -1.3166 0
M  V30 23 C 0.6915 4.3862 1.4449 0
M  V30 24 C -0.0839 4.6215 -0.988 0
M  V30 25 C 0.096 5.249 0.3819 0
M  V30 26 N -0.3254 6.4676 0.5361 0
M  V30 27 O -0.1256 6.9341 1.8406 0
M  V30 28 H -0.0665 -6.182 0.7915 0
M  V30 29 H -0.4769 -5.2989 2.3024 0
M  V30 30 H -1.554 -6.5666 1.6816 0
M  V30 31 H -2.9259 -2.418 0.8779 0
M  V30 32 H -3.0022 -1.2981 -0.4725 0
M  V30 33 H -2.5411 -3.9442 -3.8438 0
M  V30 34 H 0.378 -1.646 1.3593 0
M  V30 35 H -0.3294 -0.9452 -2.8489 0
M  V30 36 H -1.4843 -0.2146 -1.7587 0
M  V30 37 H 1.9594 -1.4826 -1.5534 0
M  V30 38 H 1.0994 -2.9134 -2.0523 0
M  V30 39 H -1.6628 -0.9471 2.091 0
M  V30 40 H -1.9173 0.2211 0.8014 0
M  V30 41 H 1.8364 0.0579 0.488 0
M  V30 42 H 1.4445 0.5469 -2.0739 0
M  V30 43 H 0.0097 1.4531 -2.5124 0
M  V30 44 H 1.5479 -3.9318 0.2041 0
M  V30 45 H 2.3488 -2.4262 0.7046 0
M  V30 46 H 3.0073 -3.3955 -0.6057 0
M  V30 47 H -0.6353 1.7313 -0.1806 0
M  V30 48 H -0.2341 1.1993 2.4204 0
M  V30 49 H 1.1666 0.2164 2.8373 0
M  V30 50 H 2.3628 2.2877 -0.4135 0
M  V30 51 H 1.5549 2.652 3.2101 0
M  V30 52 H 2.7081 1.9711 2.0659 0
M  V30 53 H 2.0082 4.3749 -1.3384 0
M  V30 54 H 1.0137 3.3342 -2.3267 0
M  V30 55 H 0.6223 4.7423 2.466 0
M  V30 56 H -0.1746 5.4138 -1.7398 0
M  V30 57 H -1.0182 4.0494 -0.9909 0
M  V30 58 H -0.4752 7.8433 1.7904 0
M  V30 END ATOM
M  V30 BEGIN BOND
M  V30 1 2 1 2
M  V30 2 1 2 3
M  V30 3 1 2 4
M  V30 4 1 3 5
M  V30 5 1 5 6
M  V30 6 1 5 7
M  V30 7 1 5 8
M  V30 8 3 6 9
M  V30 9 1 7 10
M  V30 10 1 7 11
M  V30 11 1 7 12
M  V30 12 1 8 13
M  V30 13 1 10 14
M  V30 14 1 11 15
M  V30 15 1 12 16
M  V30 16 1 14 17
M  V30 17 1 14 18
M  V30 18 1 17 19
M  V30 19 1 18 20
M  V30 20 1 19 21
M  V30 21 1 19 22
M  V30 22 2 21 23
M  V30 23 1 22 24
M  V30 24 1 23 25
M  V30 25 2 25 26
M  V30 26 1 26 27
M  V30 27 1 10 13
M  V30 28 1 15 17
M  V30 29 1 20 21
M  V30 30 1 24 25
M  V30 31 1 4 28
M  V30 32 1 4 29
M  V30 33 1 4 30
M  V30 34 1 8 31
M  V30 35 1 8 32
M  V30 36 1 9 33
M  V30 37 1 10 34
M  V30 38 1 11 35
M  V30 39 1 11 36
M  V30 40 1 12 37
M  V30 41 1 12 38
M  V30 42 1 13 39
M  V30 43 1 13 40
M  V30 44 1 14 41
M  V30 45 1 15 42
M  V30 46 1 15 43
M  V30 47 1 16 44
M  V30 48 1 16 45
M  V30 49 1 16 46
M  V30 50 1 17 47
M  V30 51 1 18 48
M  V30 52 1 18 49
M  V30 53 1 19 50
M  V30 54 1 20 51
M  V30 55 1 20 52
M  V30 56 1 22 53
M  V30 57 1 22 54
M  V30 58 1 23 55
M  V30 59 1 24 56
M  V30 60 1 24 57
M  V30 61 1 27 58
M  V30 END BOND
M  V30 END CTAB
M  END
>  <NO.>
5569

>  <Name>
norgestimate

>  <SMILES>
C#CC1(OC(C)=O)CCC2C3CCC4=C/C(=N\O)CCC4C3CCC21CC

>  <logBB>


>  <Class>
-1

>  <MW>
369.23

>  <nHBAcc>
4

>  <nHBDon>
1

>  <SLogP>
4.71

>  <TopoPSA>
58.89

>  <MMFF94 Energy>
74.644

$$$$
C#CC1(OC(C)=O)CCC2C3CCC4=CC(OC(C)=O)CCC4C3CCC21C
Actelion Java MolfileCreator 2.0

  0  0  0  0  0  0              0 V3000
M  V30 BEGIN CTAB
M  V30 COUNTS 60 63 0 0 0
M  V30 BEGIN ATOM
M  V30 1 O 0.6419 4.0171 4.661 0
M  V30 2 C 1.6334 3.3934 4.3138 0
M  V30 3 O 1.6546 2.2184 3.6322 0
M  V30 4 C 3.0386 3.8427 4.5774 0
M  V30 5 C 0.4068 1.5538 3.2945 0
M  V30 6 C -0.3516 1.2232 4.5175 0
M  V30 7 C 0.7683 0.2674 2.4605 0
M  V30 8 C -0.3952 2.3985 2.2858 0
M  V30 9 C -0.965 0.9619 5.5171 0
M  V30 10 C 1.1587 0.8968 1.1002 0
M  V30 11 C -0.437 -0.6956 2.281 0
M  V30 12 C 1.9555 -0.5058 3.0722 0
M  V30 13 C 0.127 2.0182 0.894 0
M  V30 14 C 1.2786 -0.1133 -0.0574 0
M  V30 15 C -0.264 -1.7114 1.1501 0
M  V30 16 C 0.0343 -1.0377 -0.1977 0
M  V30 17 C 1.623 0.5893 -1.3871 0
M  V30 18 C 0.2696 -2.0617 -1.3477 0
M  V30 19 C 1.7929 -0.408 -2.5329 0
M  V30 20 C 0.5681 -1.2763 -2.6151 0
M  V30 21 C -0.8653 -3.0817 -1.5734 0
M  V30 22 C -0.23 -1.2943 -3.6984 0
M  V30 23 C -2.0106 -2.4951 -2.3886 0
M  V30 24 C -1.526 -2.0549 -3.7756 0
M  V30 25 O -2.5414 -1.1912 -4.3156 0
M  V30 26 C -2.7268 -1.2454 -5.6608 0
M  V30 27 O -2.1067 -1.9497 -6.444 0
M  V30 28 C -3.816 -0.2975 -6.061 0
M  V30 29 H 3.5665 3.0854 5.1625 0
M  V30 30 H 3.5526 4.0256 3.6305 0
M  V30 31 H 3.0204 4.7737 5.1514 0
M  V30 32 H -0.29 3.4773 2.4327 0
M  V30 33 H -1.4683 2.176 2.3381 0
M  V30 34 H -1.5089 0.744 6.4071 0
M  V30 35 H 2.1404 1.3827 1.2055 0
M  V30 36 H -1.357 -0.1329 2.0811 0
M  V30 37 H -0.6189 -1.2456 3.2131 0
M  V30 38 H 1.714 -0.8587 4.0807 0
M  V30 39 H 2.8555 0.114 3.1438 0
M  V30 40 H 2.227 -1.3811 2.4747 0
M  V30 41 H 0.5934 2.8812 0.4053 0
M  V30 42 H -0.7123 1.7089 0.2632 0
M  V30 43 H 2.1348 -0.7621 0.18 0
M  V30 44 H -1.1939 -2.2862 1.0896 0
M  V30 45 H 0.5282 -2.4262 1.3993 0
M  V30 46 H -0.8355 -0.4211 -0.462 0
M  V30 47 H 2.5489 1.1659 -1.2734 0
M  V30 48 H 0.8342 1.3045 -1.6524 0
M  V30 49 H 1.163 -2.6508 -1.0944 0
M  V30 50 H 1.9658 0.1378 -3.4676 0
M  V30 51 H 2.6757 -1.0357 -2.3626 0
M  V30 52 H -1.243 -3.4896 -0.6326 0
M  V30 53 H -0.4572 -3.9423 -2.1218 0
M  V30 54 H 0.0424 -0.7214 -4.5816 0
M  V30 55 H -2.8095 -3.2376 -2.506 0
M  V30 56 H -2.4673 -1.653 -1.8522 0
M  V30 57 H -1.3869 -2.9446 -4.4022 0
M  V30 58 H -4.7494 -0.574 -5.5642 0
M  V30 59 H -3.5304 0.7253 -5.803 0
M  V30 60 H -3.9676 -0.3552 -7.1427 0
M  V30 END ATOM
M  V30 BEGIN BOND
M  V30 1 2 1 2
M  V30 2 1 2 3
M  V30 3 1 2 4
M  V30 4 1 3 5
M  V30 5 1 5 6
M  V30 6 1 5 7
M  V30 7 1 5 8
M  V30 8 3 6 9
M  V30 9 1 7 10
M  V30 10 1 7 11
M  V30 11 1 7 12
M  V30 12 1 8 13
M  V30 13 1 10 14
M  V30 14 1 11 15
M  V30 15 1 14 16
M  V30 16 1 14 17
M  V30 17 1 16 18
M  V30 18 1 17 19
M  V30 19 1 18 20
M  V30 20 1 18 21
M  V30 21 2 20 22
M  V30 22 1 21 23
M  V30 23 1 22 24
M  V30 24 1 24 25
M  V30 25 1 25 26
M  V30 26 2 26 27
M  V30 27 1 26 28
M  V30 28 1 10 13
M  V30 29 1 15 16
M  V30 30 1 19 20
M  V30 31 1 23 24
M  V30 32 1 4 29
M  V30 33 1 4 30
M  V30 34 1 4 31
M  V30 35 1 8 32
M  V30 36 1 8 33
M  V30 37 1 9 34
M  V30 38 1 10 35
M  V30 39 1 11 36
M  V30 40 1 11 37
M  V30 41 1 12 38
M  V30 42 1 12 39
M  V30 43 1 12 40
M  V30 44 1 13 41
M  V30 45 1 13 42
M  V30 46 1 14 43
M  V30 47 1 15 44
M  V30 48 1 15 45
M  V30 49 1 16 46
M  V30 50 1 17 47
M  V30 51 1 17 48
M  V30 52 1 18 49
M  V30 53 1 19 50
M  V30 54 1 19 51
M  V30 55 1 21 52
M  V30 56 1 21 53
M  V30 57 1 22 54
M  V30 58 1 23 55
M  V30 59 1 23 56
M  V30 60 1 24 57
M  V30 61 1 28 58
M  V30 62 1 28 59
M  V30 63 1 28 60
M  V30 END BOND
M  V30 END CTAB
M  END
>  <NO.>
5570

>  <Name>
(17-acetyloxy-17-ethynyl-13-methyl-2,3,6,7,8,9,10,11,12,14,15,16-dodecahydro-1h-cyclopenta[a]phenanthren-3-yl) acetate

>  <SMILES>
C#CC1(OC(C)=O)CCC2C3CCC4=CC(OC(C)=O)CCC4C3CCC21C

>  <logBB>


>  <Class>
-1

>  <MW>
384.23

>  <nHBAcc>
4

>  <nHBDon>
0

>  <SLogP>
4.43

>  <TopoPSA>
52.6

>  <MMFF94 Energy>
39.412

$$$$
C(=N\NC1=NCCN1)\c1c2ccccc2c(/C=N\NC2=NCCN2)c2ccccc12
Actelion Java MolfileCreator 2.0

  0  0  0  0  0  0              0 V3000
M  V30 BEGIN CTAB
M  V30 COUNTS 52 56 0 0 0
M  V30 BEGIN ATOM
M  V30 1 N 0.0 3.1149 -4.555 0
M  V30 2 C -0.2498 2.3137 -3.5564 0
M  V30 3 C -0.9928 2.746 -5.6003 0
M  V30 4 N -1.2834 1.4489 -3.7263 0
M  V30 5 N 0.3933 2.229 -2.3555 0
M  V30 6 C -1.935 1.7093 -4.9789 0
M  V30 7 N 1.3941 3.0627 -1.9552 0
M  V30 8 C 2.021 2.7922 -0.8521 0
M  V30 9 C 1.7976 1.6409 0.0471 0
M  V30 10 C 1.0793 1.8698 1.2501 0
M  V30 11 C 2.3329 0.3762 -0.317 0
M  V30 12 C 0.8888 0.7843 2.1321 0
M  V30 13 C 0.5335 3.1305 1.6017 0
M  V30 14 C 2.1393 -0.71 0.5633 0
M  V30 15 C 3.0486 0.1502 -1.5199 0
M  V30 16 C 1.4244 -0.4794 1.7679 0
M  V30 17 C 0.1676 1.0076 3.3323 0
M  V30 18 C -0.1714 3.3226 2.7892 0
M  V30 19 C 2.6583 -1.978 0.1981 0
M  V30 20 C 3.5529 -1.1059 -1.8531 0
M  V30 21 C 1.2508 -1.6141 2.6995 0
M  V30 22 C -0.354 2.2592 3.6566 0
M  V30 23 C 3.3561 -2.1727 -0.993 0
M  V30 24 N 0.215 -2.3909 2.8063 0
M  V30 25 N -0.8381 -2.1572 1.969 0
M  V30 26 C -2.0044 -2.855 1.9527 0
M  V30 27 N -2.9968 -2.6526 1.1295 0
M  V30 28 N -2.1512 -3.851 2.8503 0
M  V30 29 C -4.014 -3.6734 1.5421 0
M  V30 30 C -3.3682 -4.558 2.6229 0
M  V30 31 H -0.467 2.329 -6.4661 0
M  V30 32 H -1.5434 3.6341 -5.927 0
M  V30 33 H -1.7609 0.9841 -2.9711 0
M  V30 34 H 0.1084 1.4551 -1.7709 0
M  V30 35 H -2.9338 2.127 -4.8188 0
M  V30 36 H -2.0133 0.8086 -5.5939 0
M  V30 37 H 2.808 3.4948 -0.5272 0
M  V30 38 H 0.6401 3.9902 0.94 0
M  V30 39 H 3.2128 0.9595 -2.2327 0
M  V30 40 H -0.0138 0.1939 4.0345 0
M  V30 41 H -0.5817 4.3011 3.0275 0
M  V30 42 H 2.5135 -2.8472 0.8392 0
M  V30 43 H 4.0899 -1.2453 -2.7883 0
M  V30 44 H 2.1106 -1.8108 3.3632 0
M  V30 45 H -0.9091 2.3954 4.5817 0
M  V30 46 H 3.7378 -3.1584 -1.2477 0
M  V30 47 H -0.8112 -1.4233 1.2684 0
M  V30 48 H -1.3803 -4.1427 3.4321 0
M  V30 49 H -4.3169 -4.2685 0.6746 0
M  V30 50 H -4.8975 -3.1578 1.9342 0
M  V30 51 H -3.9874 -4.6183 3.5221 0
M  V30 52 H -3.1742 -5.5662 2.245 0
M  V30 END ATOM
M  V30 BEGIN BOND
M  V30 1 2 1 2
M  V30 2 1 1 3
M  V30 3 1 2 4
M  V30 4 1 2 5
M  V30 5 1 3 6
M  V30 6 1 5 7
M  V30 7 2 7 8
M  V30 8 1 8 9
M  V30 9 1 9 10
M  V30 10 2 9 11
M  V30 11 1 10 12
M  V30 12 2 10 13
M  V30 13 1 11 14
M  V30 14 1 11 15
M  V30 15 1 12 16
M  V30 16 2 12 17
M  V30 17 1 13 18
M  V30 18 1 14 19
M  V30 19 2 15 20
M  V30 20 1 16 21
M  V30 21 1 17 22
M  V30 22 2 19 23
M  V30 23 2 21 24
M  V30 24 1 24 25
M  V30 25 1 25 26
M  V30 26 2 26 27
M  V30 27 1 26 28
M  V30 28 1 27 29
M  V30 29 1 28 30
M  V30 30 1 4 6
M  V30 31 2 14 16
M  V30 32 2 18 22
M  V30 33 1 20 23
M  V30 34 1 29 30
M  V30 35 1 3 31
M  V30 36 1 3 32
M  V30 37 1 4 33
M  V30 38 1 5 34
M  V30 39 1 6 35
M  V30 40 1 6 36
M  V30 41 1 8 37
M  V30 42 1 13 38
M  V30 43 1 15 39
M  V30 44 1 17 40
M  V30 45 1 18 41
M  V30 46 1 19 42
M  V30 47 1 20 43
M  V30 48 1 21 44
M  V30 49 1 22 45
M  V30 50 1 23 46
M  V30 51 1 25 47
M  V30 52 1 28 48
M  V30 53 1 29 49
M  V30 54 1 29 50
M  V30 55 1 30 51
M  V30 56 1 30 52
M  V30 END BOND
M  V30 END CTAB
M  END
>  <NO.>
5573

>  <Name>
bisantrene hydrochloride

>  <SMILES>
C(=N\NC1=NCCN1)\c1c2ccccc2c(/C=N\NC2=NCCN2)c2ccccc12

>  <logBB>


>  <Class>
-1

>  <MW>
398.2

>  <nHBAcc>
8

>  <nHBDon>
4

>  <SLogP>
1.76

>  <TopoPSA>
97.56

>  <MMFF94 Energy>
64.458

$$$$
C/C(=C\c1csc(C)n1)C1CC2OC2(C)CCCC(C)C(O)C(C)C(=O)C(C)(C)C(O)CC(=O)N1
Actelion Java MolfileCreator 2.0

  0  0  0  0  0  0              0 V3000
M  V30 BEGIN CTAB
M  V30 COUNTS 77 79 0 0 0
M  V30 BEGIN ATOM
M  V30 1 S 4.6265 -1.1949 6.2257 0
M  V30 2 C 5.8201 -0.3233 5.3452 0
M  V30 3 C 3.4684 -0.7903 5.0274 0
M  V30 4 N 5.4058 0.2369 4.2282 0
M  V30 5 C 7.2113 -0.2361 5.8652 0
M  V30 6 C 4.0723 -0.0536 4.032 0
M  V30 7 C 3.4466 0.5033 2.8794 0
M  V30 8 C 2.5272 -0.0472 2.0552 0
M  V30 9 C 1.9429 0.7257 0.8749 0
M  V30 10 C 2.0211 -1.4634 2.1648 0
M  V30 11 N 1.2425 1.883 1.4172 0
M  V30 12 C 3.0137 1.1247 -0.1607 0
M  V30 13 C -0.104 2.0708 1.5422 0
M  V30 14 C 2.4819 1.7608 -1.4145 0
M  V30 15 O -0.514 3.0901 2.1004 0
M  V30 16 C -1.0373 0.9825 1.0436 0
M  V30 17 O 1.0782 1.6244 -1.65 0
M  V30 18 C 1.9199 0.9688 -2.6018 0
M  V30 19 C -2.5134 1.3703 1.2149 0
M  V30 20 C 1.8299 -0.5381 -2.5705 0
M  V30 21 C 1.9286 1.6312 -3.9482 0
M  V30 22 O -2.7688 1.479 2.6293 0
M  V30 23 C -3.5355 0.3476 0.581 0
M  V30 24 C 0.6006 -1.118 -3.2791 0
M  V30 25 C -3.4207 0.4301 -0.972 0
M  V30 26 C -4.955 0.8064 0.9897 0
M  V30 27 C -3.2781 -1.0482 1.1598 0
M  V30 28 C -0.7228 -0.8704 -2.5325 0
M  V30 29 O -2.8466 1.4034 -1.484 0
M  V30 30 C -4.0585 -0.5837 -1.9433 0
M  V30 31 C -1.9259 -1.4927 -3.2713 0
M  V30 32 C -3.1762 -1.769 -2.3936 0
M  V30 33 C -5.4615 -1.0566 -1.5627 0
M  V30 34 C -2.2862 -0.6925 -4.5286 0
M  V30 35 O -2.8054 -2.6006 -1.299 0
M  V30 36 H 2.437 -1.0984 5.1176 0
M  V30 37 H 7.2309 0.2518 6.8448 0
M  V30 38 H 7.6553 -1.2322 5.9584 0
M  V30 39 H 7.8376 0.3494 5.1846 0
M  V30 40 H 3.7936 1.5105 2.6559 0
M  V30 41 H 1.2126 0.0823 0.3789 0
M  V30 42 H 0.988 -1.4689 2.526 0
M  V30 43 H 2.0468 -1.9505 1.1836 0
M  V30 44 H 2.6227 -2.0891 2.8279 0
M  V30 45 H 1.7891 2.646 1.7941 0
M  V30 46 H 3.6133 0.2482 -0.4357 0
M  V30 47 H 3.7158 1.837 0.2917 0
M  V30 48 H 2.9271 2.731 -1.6009 0
M  V30 49 H -0.8175 0.7915 -0.0072 0
M  V30 50 H -0.8113 0.0855 1.6301 0
M  V30 51 H -2.692 2.3681 0.7927 0
M  V30 52 H 1.8558 -0.9251 -1.5474 0
M  V30 53 H 2.7283 -0.9318 -3.0623 0
M  V30 54 H 0.9481 1.5529 -4.4282 0
M  V30 55 H 2.1733 2.6964 -3.8763 0
M  V30 56 H 2.6732 1.1629 -4.5996 0
M  V30 57 H -2.2512 2.2572 2.9288 0
M  V30 58 H 0.5441 -0.7299 -4.3004 0
M  V30 59 H 0.7473 -2.202 -3.3686 0
M  V30 60 H -5.7132 0.0507 0.774 0
M  V30 61 H -5.2396 1.7245 0.4632 0
M  V30 62 H -5.0376 0.9984 2.0647 0
M  V30 63 H -4.0454 -1.7681 0.8687 0
M  V30 64 H -2.3128 -1.4467 0.8351 0
M  V30 65 H -3.2739 -1.0317 2.2557 0
M  V30 66 H -0.8805 0.2044 -2.4229 0
M  V30 67 H -0.6354 -1.2936 -1.5255 0
M  V30 68 H -4.2448 0.0165 -2.8462 0
M  V30 69 H -1.5938 -2.4856 -3.6091 0
M  V30 70 H -3.8134 -2.4022 -3.0288 0
M  V30 71 H -6.1188 -0.2054 -1.3602 0
M  V30 72 H -5.9162 -1.6098 -2.3929 0
M  V30 73 H -5.467 -1.721 -0.6974 0
M  V30 74 H -3.1765 -1.1066 -5.0138 0
M  V30 75 H -2.4809 0.3591 -4.2953 0
M  V30 76 H -1.4767 -0.7238 -5.264 0
M  V30 77 H -3.5622 -3.1755 -1.0885 0
M  V30 END ATOM
M  V30 BEGIN BOND
M  V30 1 1 1 2
M  V30 2 1 1 3
M  V30 3 2 2 4
M  V30 4 1 2 5
M  V30 5 2 3 6
M  V30 6 1 6 7
M  V30 7 2 7 8
M  V30 8 1 8 9
M  V30 9 1 8 10
M  V30 10 1 9 11
M  V30 11 1 9 12
M  V30 12 1 11 13
M  V30 13 1 12 14
M  V30 14 2 13 15
M  V30 15 1 13 16
M  V30 16 1 14 17
M  V30 17 1 14 18
M  V30 18 1 16 19
M  V30 19 1 18 20
M  V30 20 1 18 21
M  V30 21 1 19 22
M  V30 22 1 19 23
M  V30 23 1 20 24
M  V30 24 1 23 25
M  V30 25 1 23 26
M  V30 26 1 23 27
M  V30 27 1 24 28
M  V30 28 2 25 29
M  V30 29 1 25 30
M  V30 30 1 28 31
M  V30 31 1 30 32
M  V30 32 1 30 33
M  V30 33 1 31 34
M  V30 34 1 32 35
M  V30 35 1 4 6
M  V30 36 1 17 18
M  V30 37 1 31 32
M  V30 38 1 3 36
M  V30 39 1 5 37
M  V30 40 1 5 38
M  V30 41 1 5 39
M  V30 42 1 7 40
M  V30 43 1 9 41
M  V30 44 1 10 42
M  V30 45 1 10 43
M  V30 46 1 10 44
M  V30 47 1 11 45
M  V30 48 1 12 46
M  V30 49 1 12 47
M  V30 50 1 14 48
M  V30 51 1 16 49
M  V30 52 1 16 50
M  V30 53 1 19 51
M  V30 54 1 20 52
M  V30 55 1 20 53
M  V30 56 1 21 54
M  V30 57 1 21 55
M  V30 58 1 21 56
M  V30 59 1 22 57
M  V30 60 1 24 58
M  V30 61 1 24 59
M  V30 62 1 26 60
M  V30 63 1 26 61
M  V30 64 1 26 62
M  V30 65 1 27 63
M  V30 66 1 27 64
M  V30 67 1 27 65
M  V30 68 1 28 66
M  V30 69 1 28 67
M  V30 70 1 30 68
M  V30 71 1 31 69
M  V30 72 1 32 70
M  V30 73 1 33 71
M  V30 74 1 33 72
M  V30 75 1 33 73
M  V30 76 1 34 74
M  V30 77 1 34 75
M  V30 78 1 34 76
M  V30 79 1 35 77
M  V30 END BOND
M  V30 END CTAB
M  END
>  <NO.>
5575

>  <Name>
schembl3670439

>  <SMILES>
C/C(=C\c1csc(C)n1)C1CC2OC2(C)CCCC(C)C(O)C(C)C(=O)C(C)(C)C(O)CC(=O)N1

>  <logBB>


>  <Class>
-1

>  <MW>
506.28

>  <nHBAcc>
7

>  <nHBDon>
3

>  <SLogP>
4.05

>  <TopoPSA>
112.05

>  <MMFF94 Energy>
45.249

$$$$
C/C=C(C(=C/C)\c1ccc(O)cc1)/c1ccc(O)cc1
Actelion Java MolfileCreator 2.0

  0  0  0  0  0  0              0 V3000
M  V30 BEGIN CTAB
M  V30 COUNTS 38 39 0 0 0
M  V30 BEGIN ATOM
M  V30 1 O 2.596 -5.1974 1.022 0
M  V30 2 C 2.2189 -3.916 0.7502 0
M  V30 3 C 0.8716 -3.6721 0.5195 0
M  V30 4 C 3.1451 -2.8809 0.7089 0
M  V30 5 C 0.4396 -2.3732 0.2378 0
M  V30 6 C 2.7105 -1.5821 0.4267 0
M  V30 7 C 1.3529 -1.3097 0.1779 0
M  V30 8 C 0.8816 0.0809 -0.1097 0
M  V30 9 C -0.3018 0.6508 0.5714 0
M  V30 10 C 1.5525 0.7623 -1.0663 0
M  V30 11 C -1.4967 1.1164 -0.1995 0
M  V30 12 C -0.3865 0.719 1.9197 0
M  V30 13 C 1.3298 2.1719 -1.519 0
M  V30 14 C -2.0329 0.3266 -1.2278 0
M  V30 15 C -2.091 2.3645 0.0613 0
M  V30 16 C 0.6651 0.3694 2.9262 0
M  V30 17 C -3.1403 0.7619 -1.9607 0
M  V30 18 C -3.1991 2.8022 -0.6706 0
M  V30 19 C -3.7153 1.9931 -1.6754 0
M  V30 20 O -4.7932 2.3785 -2.4154 0
M  V30 21 H 3.5575 -5.2152 1.1565 0
M  V30 22 H 0.1557 -4.488 0.5616 0
M  V30 23 H 4.1989 -3.0583 0.8964 0
M  V30 24 H -0.6203 -2.2028 0.0711 0
M  V30 25 H 3.4403 -0.7755 0.4157 0
M  V30 26 H 2.3696 0.2709 -1.5929 0
M  V30 27 H -1.3095 1.0752 2.3757 0
M  V30 28 H 0.8142 2.1811 -2.4837 0
M  V30 29 H 2.2982 2.667 -1.6475 0
M  V30 30 H 0.7631 2.7717 -0.8033 0
M  V30 31 H -1.5919 -0.635 -1.4745 0
M  V30 32 H -1.6825 3.0135 0.8329 0
M  V30 33 H 1.6719 0.3326 2.5047 0
M  V30 34 H 0.6805 1.1322 3.7121 0
M  V30 35 H 0.4351 -0.5927 3.3931 0
M  V30 36 H -3.5482 0.1412 -2.7532 0
M  V30 37 H -3.6349 3.77 -0.4451 0
M  V30 38 H -5.0872 3.25 -2.1038 0
M  V30 END ATOM
M  V30 BEGIN BOND
M  V30 1 1 1 2
M  V30 2 2 2 3
M  V30 3 1 2 4
M  V30 4 1 3 5
M  V30 5 2 4 6
M  V30 6 2 5 7
M  V30 7 1 7 8
M  V30 8 1 8 9
M  V30 9 2 8 10
M  V30 10 1 9 11
M  V30 11 2 9 12
M  V30 12 1 10 13
M  V30 13 2 11 14
M  V30 14 1 11 15
M  V30 15 1 12 16
M  V30 16 1 14 17
M  V30 17 2 15 18
M  V30 18 2 17 19
M  V30 19 1 19 20
M  V30 20 1 6 7
M  V30 21 1 18 19
M  V30 22 1 1 21
M  V30 23 1 3 22
M  V30 24 1 4 23
M  V30 25 1 5 24
M  V30 26 1 6 25
M  V30 27 1 10 26
M  V30 28 1 12 27
M  V30 29 1 13 28
M  V30 30 1 13 29
M  V30 31 1 13 30
M  V30 32 1 14 31
M  V30 33 1 15 32
M  V30 34 1 16 33
M  V30 35 1 16 34
M  V30 36 1 16 35
M  V30 37 1 17 36
M  V30 38 1 18 37
M  V30 39 1 20 38
M  V30 END BOND
M  V30 END CTAB
M  END
>  <NO.>
5576

>  <Name>
dienestrol

>  <SMILES>
C/C=C(C(=C/C)\c1ccc(O)cc1)/c1ccc(O)cc1

>  <logBB>


>  <Class>
-1

>  <MW>
266.13

>  <nHBAcc>
2

>  <nHBDon>
2

>  <SLogP>
4.6

>  <TopoPSA>
40.46

>  <MMFF94 Energy>
36.644

$$$$
C/C=C(\C)C(=O)OC1C(C)=CC23C(=O)C(C=C(CO)C(O)C12O)C1C(CC3C)C1(C)C
Actelion Java MolfileCreator 2.0

  0  0  0  0  0  0              0 V3000
M  V30 BEGIN CTAB
M  V30 COUNTS 65 68 0 0 0
M  V30 BEGIN ATOM
M  V30 1 O 1.5206 -0.2399 3.2034 0
M  V30 2 C 1.2646 -0.5574 2.0302 0
M  V30 3 C 1.3793 0.4597 0.8666 0
M  V30 4 C 1.0007 -2.0406 1.7314 0
M  V30 5 C 1.3849 1.8479 1.5225 0
M  V30 6 C 0.0839 0.5768 -0.0493 0
M  V30 7 C 2.7265 0.2586 0.0796 0
M  V30 8 C -0.224 -2.4062 0.9497 0
M  V30 9 C 2.3042 -2.7486 1.4328 0
M  V30 10 C 0.5808 2.7357 0.9319 0
M  V30 11 O 0.3144 0.0439 -1.3732 0
M  V30 12 C -1.189 -0.0983 0.5527 0
M  V30 13 C -0.0995 2.131 -0.2485 0
M  V30 14 C 2.9028 -1.1318 -0.575 0
M  V30 15 C 3.9864 0.6135 0.8955 0
M  V30 16 C -1.1819 -1.6081 0.4419 0
M  V30 17 C 2.6985 -3.6478 0.2513 0
M  V30 18 C 3.2575 -2.2346 0.376 0
M  V30 19 C 0.3966 4.1607 1.3133 0
M  V30 20 O -1.4209 0.2623 1.9104 0
M  V30 21 O -1.4522 2.5952 -0.3122 0
M  V30 22 C -2.3406 -2.1962 -0.3203 0
M  V30 23 C 3.6504 -4.7832 0.5696 0
M  V30 24 C 1.7653 -4.0013 -0.8797 0
M  V30 25 C -2.0851 2.3804 -1.4908 0
M  V30 26 O -2.3567 -1.6297 -1.6206 0
M  V30 27 O -1.62 1.7503 -2.4292 0
M  V30 28 C -3.4512 2.9924 -1.4639 0
M  V30 29 C -4.1933 2.8521 -2.5814 0
M  V30 30 C -3.8699 3.6979 -0.2081 0
M  V30 31 C -5.5776 3.3551 -2.8389 0
M  V30 32 H 0.7277 -2.4358 2.7257 0
M  V30 33 H 1.9897 2.0769 2.3939 0
M  V30 34 H 2.7117 0.9759 -0.7549 0
M  V30 35 H -0.3449 -3.4821 0.8257 0
M  V30 36 H 2.7795 -2.9829 2.3882 0
M  V30 37 H -0.4966 0.2053 -1.9046 0
M  V30 38 H -2.0672 0.2536 0.0051 0
M  V30 39 H 0.4324 2.4755 -1.1476 0
M  V30 40 H 3.7229 -1.0626 -1.3027 0
M  V30 41 H 2.0318 -1.3884 -1.1712 0
M  V30 42 H 4.0384 0.0548 1.835 0
M  V30 43 H 4.0206 1.6813 1.1342 0
M  V30 44 H 4.8935 0.3944 0.321 0
M  V30 45 H 4.3021 -2.15 0.6695 0
M  V30 46 H 0.6411 4.8152 0.4709 0
M  V30 47 H 1.0424 4.4391 2.1526 0
M  V30 48 H -0.6392 4.3493 1.612 0
M  V30 49 H -2.0852 -0.3444 2.2769 0
M  V30 50 H -2.2611 -3.284 -0.4177 0
M  V30 51 H -3.2856 -1.9621 0.1805 0
M  V30 52 H 4.2448 -5.0408 -0.313 0
M  V30 53 H 4.3453 -4.5249 1.3761 0
M  V30 54 H 3.0901 -5.6706 0.8821 0
M  V30 55 H 2.3453 -4.2496 -1.7755 0
M  V30 56 H 1.0713 -3.2093 -1.1615 0
M  V30 57 H 1.1702 -4.8816 -0.6136 0
M  V30 58 H -2.9901 -2.1446 -2.1485 0
M  V30 59 H -3.7673 2.3127 -3.4294 0
M  V30 60 H -3.1934 4.5328 0.0049 0
M  V30 61 H -3.8515 3.0074 0.6421 0
M  V30 62 H -4.8793 4.1111 -0.2593 0
M  V30 63 H -5.5697 4.0219 -3.707 0
M  V30 64 H -6.2381 2.512 -3.065 0
M  V30 65 H -6.0119 3.904 -2.0018 0
M  V30 END ATOM
M  V30 BEGIN BOND
M  V30 1 2 1 2
M  V30 2 1 2 3
M  V30 3 1 2 4
M  V30 4 1 3 5
M  V30 5 1 3 6
M  V30 6 1 3 7
M  V30 7 1 4 8
M  V30 8 1 4 9
M  V30 9 2 5 10
M  V30 10 1 6 11
M  V30 11 1 6 12
M  V30 12 1 6 13
M  V30 13 1 7 14
M  V30 14 1 7 15
M  V30 15 2 8 16
M  V30 16 1 9 17
M  V30 17 1 9 18
M  V30 18 1 10 19
M  V30 19 1 12 20
M  V30 20 1 13 21
M  V30 21 1 16 22
M  V30 22 1 17 23
M  V30 23 1 17 24
M  V30 24 1 21 25
M  V30 25 1 22 26
M  V30 26 2 25 27
M  V30 27 1 25 28
M  V30 28 2 28 29
M  V30 29 1 28 30
M  V30 30 1 29 31
M  V30 31 1 10 13
M  V30 32 1 12 16
M  V30 33 1 14 18
M  V30 34 1 17 18
M  V30 35 1 4 32
M  V30 36 1 5 33
M  V30 37 1 7 34
M  V30 38 1 8 35
M  V30 39 1 9 36
M  V30 40 1 11 37
M  V30 41 1 12 38
M  V30 42 1 13 39
M  V30 43 1 14 40
M  V30 44 1 14 41
M  V30 45 1 15 42
M  V30 46 1 15 43
M  V30 47 1 15 44
M  V30 48 1 18 45
M  V30 49 1 19 46
M  V30 50 1 19 47
M  V30 51 1 19 48
M  V30 52 1 20 49
M  V30 53 1 22 50
M  V30 54 1 22 51
M  V30 55 1 23 52
M  V30 56 1 23 53
M  V30 57 1 23 54
M  V30 58 1 24 55
M  V30 59 1 24 56
M  V30 60 1 24 57
M  V30 61 1 26 58
M  V30 62 1 29 59
M  V30 63 1 30 60
M  V30 64 1 30 61
M  V30 65 1 30 62
M  V30 66 1 31 63
M  V30 67 1 31 64
M  V30 68 1 31 65
M  V30 END BOND
M  V30 END CTAB
M  END
>  <NO.>
5577

>  <Name>
ingenol mebutate

>  <SMILES>
C/C=C(\C)C(=O)OC1C(C)=CC23C(=O)C(C=C(CO)C(O)C12O)C1C(CC3C)C1(C)C

>  <logBB>


>  <Class>
-1

>  <MW>
430.24

>  <nHBAcc>
6

>  <nHBDon>
3

>  <SLogP>
2.33

>  <TopoPSA>
104.06

>  <MMFF94 Energy>
152.13

$$$$
C/C=C/C(=O)N(CC)c1ccccc1C
Actelion Java MolfileCreator 2.0

  0  0  0  0  0  0              0 V3000
M  V30 BEGIN CTAB
M  V30 COUNTS 32 32 0 0 0
M  V30 BEGIN ATOM
M  V30 1 O -0.9336 0.2333 -2.7249 0
M  V30 2 C -0.3117 0.0329 -1.6809 0
M  V30 3 N -0.8636 -0.6453 -0.597 0
M  V30 4 C 1.1019 0.5024 -1.5517 0
M  V30 5 C -0.2374 -0.7785 0.6674 0
M  V30 6 C -2.1875 -1.2565 -0.7462 0
M  V30 7 C 1.6283 1.34 -2.4595 0
M  V30 8 C -0.1337 0.3007 1.5648 0
M  V30 9 C 0.2846 -2.0337 1.0117 0
M  V30 10 C -3.3196 -0.2981 -0.4092 0
M  V30 11 C 3.0322 1.844 -2.4109 0
M  V30 12 C 0.5212 0.0933 2.7906 0
M  V30 13 C -0.6335 1.6838 1.2515 0
M  V30 14 C 0.919 -2.223 2.2381 0
M  V30 15 C 1.0384 -1.1588 3.1266 0
M  V30 16 H 1.6989 0.1385 -0.7263 0
M  V30 17 H -2.2593 -2.1503 -0.1157 0
M  V30 18 H -2.3045 -1.5931 -1.7831 0
M  V30 19 H 1.0187 1.6877 -3.2923 0
M  V30 20 H 0.2067 -2.8676 0.3184 0
M  V30 21 H -3.2715 0.6056 -1.0248 0
M  V30 22 H -3.279 0.0056 0.6414 0
M  V30 23 H -4.287 -0.7792 -0.5834 0
M  V30 24 H 3.0338 2.9366 -2.3502 0
M  V30 25 H 3.5659 1.5487 -3.3192 0
M  V30 26 H 3.5826 1.4537 -1.5491 0
M  V30 27 H 0.6317 0.9147 3.4964 0
M  V30 28 H -1.4658 1.6751 0.5443 0
M  V30 29 H 0.1772 2.2873 0.8322 0
M  V30 30 H -1.0 2.1748 2.1598 0
M  V30 31 H 1.323 -3.1979 2.4973 0
M  V30 32 H 1.5372 -1.3011 4.0821 0
M  V30 END ATOM
M  V30 BEGIN BOND
M  V30 1 2 1 2
M  V30 2 1 2 3
M  V30 3 1 2 4
M  V30 4 1 3 5
M  V30 5 1 3 6
M  V30 6 2 4 7
M  V30 7 2 5 8
M  V30 8 1 5 9
M  V30 9 1 6 10
M  V30 10 1 7 11
M  V30 11 1 8 12
M  V30 12 1 8 13
M  V30 13 2 9 14
M  V30 14 2 12 15
M  V30 15 1 14 15
M  V30 16 1 4 16
M  V30 17 1 6 17
M  V30 18 1 6 18
M  V30 19 1 7 19
M  V30 20 1 9 20
M  V30 21 1 10 21
M  V30 22 1 10 22
M  V30 23 1 10 23
M  V30 24 1 11 24
M  V30 25 1 11 25
M  V30 26 1 11 26
M  V30 27 1 12 27
M  V30 28 1 13 28
M  V30 29 1 13 29
M  V30 30 1 13 30
M  V30 31 1 14 31
M  V30 32 1 15 32
M  V30 END BOND
M  V30 END CTAB
M  END
>  <NO.>
5578

>  <Name>
crotamiton

>  <SMILES>
C/C=C/C(=O)N(CC)c1ccccc1C

>  <logBB>


>  <Class>
-1

>  <MW>
203.13

>  <nHBAcc>
1

>  <nHBDon>
0

>  <SLogP>
2.92

>  <TopoPSA>
20.31

>  <MMFF94 Energy>
18.733

$$$$
C/C=C/C/C=C/CCC(=O)C1OC1C(N)=O
Actelion Java MolfileCreator 2.0

  0  0  0  0  0  0              0 V3000
M  V30 BEGIN CTAB
M  V30 COUNTS 33 33 0 0 0
M  V30 BEGIN ATOM
M  V30 1 O 5.0162 -0.3129 3.6819 0
M  V30 2 C 4.5501 0.6803 3.1385 0
M  V30 3 N 5.0616 1.1708 1.9795 0
M  V30 4 C 3.4165 1.4007 3.7641 0
M  V30 5 O 3.1409 2.7274 3.2696 0
M  V30 6 C 2.1256 1.7389 3.055 0
M  V30 7 C 1.8478 1.4506 1.6232 0
M  V30 8 O 2.7051 1.5883 0.7573 0
M  V30 9 C 0.4359 0.9836 1.3402 0
M  V30 10 C 0.2554 0.5696 -0.117 0
M  V30 11 C -1.1495 0.1027 -0.3769 0
M  V30 12 C -1.465 -1.1512 -0.7394 0
M  V30 13 C -2.8647 -1.6243 -1.0112 0
M  V30 14 C -3.026 -2.0546 -2.4406 0
M  V30 15 C -3.8599 -1.4684 -3.3147 0
M  V30 16 C -4.0196 -1.9025 -4.7354 0
M  V30 17 H 4.5721 1.897 1.4633 0
M  V30 18 H 5.829 0.6901 1.5344 0
M  V30 19 H 3.3586 1.2637 4.8386 0
M  V30 20 H 1.2522 1.756 3.6989 0
M  V30 21 H 0.2185 0.1352 2.0002 0
M  V30 22 H -0.2485 1.8024 1.5917 0
M  V30 23 H 0.4686 1.418 -0.779 0
M  V30 24 H 0.9798 -0.2134 -0.3739 0
M  V30 25 H -1.9371 0.8482 -0.2815 0
M  V30 26 H -0.677 -1.8944 -0.8466 0
M  V30 27 H -3.0801 -2.479 -0.3593 0
M  V30 28 H -3.5943 -0.8463 -0.7546 0
M  V30 29 H -2.4244 -2.9032 -2.7605 0
M  V30 30 H -4.4645 -0.6203 -3.0008 0
M  V30 31 H -5.0588 -2.1896 -4.9224 0
M  V30 32 H -3.3798 -2.7555 -4.9824 0
M  V30 33 H -3.7637 -1.0778 -5.4076 0
M  V30 END ATOM
M  V30 BEGIN BOND
M  V30 1 2 1 2
M  V30 2 1 2 3
M  V30 3 1 2 4
M  V30 4 1 4 5
M  V30 5 1 4 6
M  V30 6 1 6 7
M  V30 7 2 7 8
M  V30 8 1 7 9
M  V30 9 1 9 10
M  V30 10 1 10 11
M  V30 11 2 11 12
M  V30 12 1 12 13
M  V30 13 1 13 14
M  V30 14 2 14 15
M  V30 15 1 15 16
M  V30 16 1 5 6
M  V30 17 1 3 17
M  V30 18 1 3 18
M  V30 19 1 4 19
M  V30 20 1 6 20
M  V30 21 1 9 21
M  V30 22 1 9 22
M  V30 23 1 10 23
M  V30 24 1 10 24
M  V30 25 1 11 25
M  V30 26 1 12 26
M  V30 27 1 13 27
M  V30 28 1 13 28
M  V30 29 1 14 29
M  V30 30 1 15 30
M  V30 31 1 16 31
M  V30 32 1 16 32
M  V30 33 1 16 33
M  V30 END BOND
M  V30 END CTAB
M  END
>  <NO.>
5579

>  <Name>
nsc116069

>  <SMILES>
C/C=C/C/C=C/CCC(=O)C1OC1C(N)=O

>  <logBB>


>  <Class>
-1

>  <MW>
223.12

>  <nHBAcc>
3

>  <nHBDon>
1

>  <SLogP>
1.11

>  <TopoPSA>
72.69

>  <MMFF94 Energy>
-0.46331

$$$$
C=C1C(=O)OC2C1CCC1(C)OC13CC=C(C)C23
Actelion Java MolfileCreator 2.0

  0  0  0  0  0  0              0 V3000
M  V30 BEGIN CTAB
M  V30 COUNTS 36 39 0 0 0
M  V30 BEGIN ATOM
M  V30 1 O 4.2937 -1.2947 0.4853 0
M  V30 2 C 3.2075 -0.8896 0.1187 0
M  V30 3 O 2.3608 -0.1141 0.8403 0
M  V30 4 C 2.5509 -1.1686 -1.1712 0
M  V30 5 C 1.2516 0.3399 0.0268 0
M  V30 6 C 3.1909 -1.732 -2.2027 0
M  V30 7 C 1.1418 -0.685 -1.1101 0
M  V30 8 C 0.0165 0.4732 0.9345 0
M  V30 9 C 0.1619 -1.8353 -0.8335 0
M  V30 10 C 0.0812 1.6363 1.9253 0
M  V30 11 C -1.2901 0.7175 0.2009 0
M  V30 12 C -1.2776 -1.5413 -1.2594 0
M  V30 13 C -1.047 2.365 1.9025 0
M  V30 14 C 1.2428 1.8539 2.8314 0
M  V30 15 O -1.2149 0.9064 -1.2206 0
M  V30 16 C -1.9283 -0.2628 -0.7834 0
M  V30 17 C -2.0283 1.839 0.8983 0
M  V30 18 C -3.4068 -0.18 -1.0495 0
M  V30 19 H 1.5311 1.3227 -0.3783 0
M  V30 20 H 4.2337 -2.0288 -2.1201 0
M  V30 21 H 2.6911 -1.9112 -3.1486 0
M  V30 22 H 0.8812 -0.1893 -2.0528 0
M  V30 23 H -0.0869 -0.428 1.5536 0
M  V30 24 H 0.4763 -2.729 -1.39 0
M  V30 25 H 0.188 -2.1333 0.2213 0
M  V30 26 H -1.8972 -2.3857 -0.9309 0
M  V30 27 H -1.3173 -1.5482 -2.357 0
M  V30 28 H -1.2472 3.2226 2.5304 0
M  V30 29 H 2.1293 2.1478 2.2618 0
M  V30 30 H 1.0392 2.6471 3.5588 0
M  V30 31 H 1.4677 0.9407 3.3909 0
M  V30 32 H -2.9201 1.4621 1.4092 0
M  V30 33 H -2.3196 2.6328 0.2025 0
M  V30 34 H -3.7988 0.8349 -0.9303 0
M  V30 35 H -3.9475 -0.8357 -0.3595 0
M  V30 36 H -3.6321 -0.4982 -2.0729 0
M  V30 END ATOM
M  V30 BEGIN BOND
M  V30 1 2 1 2
M  V30 2 1 2 3
M  V30 3 1 2 4
M  V30 4 1 3 5
M  V30 5 2 4 6
M  V30 6 1 4 7
M  V30 7 1 5 8
M  V30 8 1 7 9
M  V30 9 1 8 10
M  V30 10 1 8 11
M  V30 11 1 9 12
M  V30 12 2 10 13
M  V30 13 1 10 14
M  V30 14 1 11 15
M  V30 15 1 11 16
M  V30 16 1 11 17
M  V30 17 1 16 18
M  V30 18 1 5 7
M  V30 19 1 12 16
M  V30 20 1 13 17
M  V30 21 1 15 16
M  V30 22 1 5 19
M  V30 23 1 6 20
M  V30 24 1 6 21
M  V30 25 1 7 22
M  V30 26 1 8 23
M  V30 27 1 9 24
M  V30 28 1 9 25
M  V30 29 1 12 26
M  V30 30 1 12 27
M  V30 31 1 13 28
M  V30 32 1 14 29
M  V30 33 1 14 30
M  V30 34 1 14 31
M  V30 35 1 17 32
M  V30 36 1 17 33
M  V30 37 1 18 34
M  V30 38 1 18 35
M  V30 39 1 18 36
M  V30 END BOND
M  V30 END CTAB
M  END
>  <NO.>
5588

>  <Name>
arglabin

>  <SMILES>
C=C1C(=O)OC2C1CCC1(C)OC13CC=C(C)C23

>  <logBB>


>  <Class>
-1

>  <MW>
246.13

>  <nHBAcc>
3

>  <nHBDon>
0

>  <SLogP>
2.37

>  <TopoPSA>
38.83

>  <MMFF94 Energy>
62.902

$$$$
C=C1CC2C(CCC3(C)C(=O)CCC23)C2(C)C=CC(=O)C=C12
Actelion Java MolfileCreator 2.0

  0  0  0  0  0  0              0 V3000
M  V30 BEGIN CTAB
M  V30 COUNTS 46 49 0 0 0
M  V30 BEGIN ATOM
M  V30 1 O -1.0492 3.231 -4.6066 0
M  V30 2 C -0.7393 2.3345 -3.8323 0
M  V30 3 C -1.7347 1.7126 -2.9391 0
M  V30 4 C 0.65 1.8479 -3.7434 0
M  V30 5 C -1.4056 0.7056 -2.1116 0
M  V30 6 C 0.9799 0.8439 -2.92 0
M  V30 7 C -2.3843 0.1758 -1.1708 0
M  V30 8 C 0.0021 0.0962 -2.0171 0
M  V30 9 C -3.564 -0.333 -1.557 0
M  V30 10 C -1.9482 0.2409 0.2676 0
M  V30 11 C 0.4874 0.1637 -0.5152 0
M  V30 12 C -0.0526 -1.3528 -2.5573 0
M  V30 13 C -0.5698 -0.4133 0.4727 0
M  V30 14 C 1.8438 -0.5289 -0.2644 0
M  V30 15 C -0.1316 -0.3451 1.9532 0
M  V30 16 C 2.3132 -0.356 1.1772 0
M  V30 17 C 1.299 -0.8747 2.2065 0
M  V30 18 C -0.1232 1.0533 2.5878 0
M  V30 19 C 1.6102 -0.2291 3.5514 0
M  V30 20 C 1.3243 -2.3993 2.3191 0
M  V30 21 C 0.6383 0.8699 3.8959 0
M  V30 22 O 2.5415 -0.5563 4.2767 0
M  V30 23 H -2.7281 2.1448 -2.9777 0
M  V30 24 H 1.3726 2.3363 -4.386 0
M  V30 25 H 2.0156 0.5129 -2.9277 0
M  V30 26 H -3.8532 -0.3805 -2.603 0
M  V30 27 H -4.2752 -0.7235 -0.8355 0
M  V30 28 H -2.6832 -0.2477 0.9195 0
M  V30 29 H -1.9197 1.297 0.5642 0
M  V30 30 H 0.6198 1.2293 -0.2728 0
M  V30 31 H 0.9436 -1.8059 -2.6144 0
M  V30 32 H -0.6739 -2.0081 -1.9384 0
M  V30 33 H -0.4709 -1.3813 -3.5719 0
M  V30 34 H -0.6832 -1.4822 0.2424 0
M  V30 35 H 2.6181 -0.1134 -0.9167 0
M  V30 36 H 1.7776 -1.598 -0.4936 0
M  V30 37 H -0.8445 -0.9503 2.5345 0
M  V30 38 H 3.2756 -0.8675 1.3077 0
M  V30 39 H 2.5254 0.7078 1.3493 0
M  V30 40 H 0.3927 1.7817 1.9527 0
M  V30 41 H -1.1324 1.4323 2.7771 0
M  V30 42 H 0.9897 -2.8804 1.3949 0
M  V30 43 H 2.3344 -2.7619 2.5406 0
M  V30 44 H 0.6765 -2.7473 3.132 0
M  V30 45 H 1.1603 1.7821 4.1923 0
M  V30 46 H -0.0215 0.5216 4.6956 0
M  V30 END ATOM
M  V30 BEGIN BOND
M  V30 1 2 1 2
M  V30 2 1 2 3
M  V30 3 1 2 4
M  V30 4 2 3 5
M  V30 5 2 4 6
M  V30 6 1 5 7
M  V30 7 1 5 8
M  V30 8 2 7 9
M  V30 9 1 7 10
M  V30 10 1 8 11
M  V30 11 1 8 12
M  V30 12 1 10 13
M  V30 13 1 11 14
M  V30 14 1 13 15
M  V30 15 1 14 16
M  V30 16 1 15 17
M  V30 17 1 15 18
M  V30 18 1 17 19
M  V30 19 1 17 20
M  V30 20 1 18 21
M  V30 21 2 19 22
M  V30 22 1 6 8
M  V30 23 1 11 13
M  V30 24 1 16 17
M  V30 25 1 19 21
M  V30 26 1 3 23
M  V30 27 1 4 24
M  V30 28 1 6 25
M  V30 29 1 9 26
M  V30 30 1 9 27
M  V30 31 1 10 28
M  V30 32 1 10 29
M  V30 33 1 11 30
M  V30 34 1 12 31
M  V30 35 1 12 32
M  V30 36 1 12 33
M  V30 37 1 13 34
M  V30 38 1 14 35
M  V30 39 1 14 36
M  V30 40 1 15 37
M  V30 41 1 16 38
M  V30 42 1 16 39
M  V30 43 1 18 40
M  V30 44 1 18 41
M  V30 45 1 20 42
M  V30 46 1 20 43
M  V30 47 1 20 44
M  V30 48 1 21 45
M  V30 49 1 21 46
M  V30 END BOND
M  V30 END CTAB
M  END
>  <NO.>
5590

>  <Name>
exemestane

>  <SMILES>
C=C1CC2C(CCC3(C)C(=O)CCC23)C2(C)C=CC(=O)C=C12

>  <logBB>


>  <Class>
-1

>  <MW>
296.18

>  <nHBAcc>
2

>  <nHBDon>
0

>  <SLogP>
4.03

>  <TopoPSA>
34.14

>  <MMFF94 Energy>
71.424

$$$$
C=CC[N+]1(C2CC3C4CCC5CC(O)C(N6CCOCC6)CC5(C)C4CCC3(C)C2OC(C)=O)CCCC1
Actelion Java MolfileCreator 2.0

  0  0  0  0  0  0              0 V3000
M  V30 BEGIN CTAB
M  V30 COUNTS 91 96 0 0 0
M  V30 BEGIN ATOM
M  V30 1 O 2.3219 3.1236 -4.648 0
M  V30 2 C 1.2615 2.6525 -5.032 0
M  V30 3 O 0.299 2.1559 -4.2086 0
M  V30 4 C 0.8161 2.5872 -6.4594 0
M  V30 5 C 0.6442 1.996 -2.8095 0
M  V30 6 C 0.1448 0.5909 -2.3088 0
M  V30 7 C -0.1542 3.0597 -1.9912 0
M  V30 8 C -1.2168 0.9115 -1.6483 0
M  V30 9 C 1.131 0.021 -1.2649 0
M  V30 10 C 0.0269 -0.4039 -3.4795 0
M  V30 11 N 0.6919 4.2184 -1.3613 0 CHG=1
M  V30 12 C -0.9603 2.265 -0.9597 0
M  V30 13 C -1.781 -0.1289 -0.6497 0
M  V30 14 C 0.5525 -1.1195 -0.4235 0
M  V30 15 C 1.3635 5.0381 -2.5047 0
M  V30 16 C -0.2456 5.2437 -0.6611 0
M  V30 17 C 1.7665 3.7028 -0.3776 0
M  V30 18 C -0.715 -0.686 0.3399 0
M  V30 19 C -2.5458 -1.2484 -1.3791 0
M  V30 20 C 1.143 6.4927 -2.1398 0
M  V30 21 C -0.2439 6.4758 -1.5459 0
M  V30 22 C 2.7164 4.7256 0.1717 0
M  V30 23 C -1.3209 -1.7823 1.3067 0
M  V30 24 C -3.1377 -2.2824 -0.4265 0
M  V30 25 C 4.0142 4.8137 -0.1535 0
M  V30 26 C -2.0566 -2.8739 0.4826 0
M  V30 27 C -0.2187 -2.4882 2.1516 0
M  V30 28 C -2.2817 -1.0509 2.2908 0
M  V30 29 C -2.6311 -3.9871 1.368 0
M  V30 30 C -0.7454 -3.6248 3.0651 0
M  V30 31 C -1.5509 -4.6561 2.2253 0
M  V30 32 N 0.406 -4.1259 3.8546 0
M  V30 33 O -2.2146 -5.6006 3.0626 0
M  V30 34 C 1.2358 -5.1571 3.208 0
M  V30 35 C 0.0402 -4.5556 5.2192 0
M  V30 36 C 2.4525 -5.5138 4.0781 0
M  V30 37 C 1.2846 -4.9466 6.0347 0
M  V30 38 O 2.0394 -5.969 5.3721 0
M  V30 39 H 0.534 1.5622 -6.7133 0
M  V30 40 H -0.0245 3.2674 -6.6153 0
M  V30 41 H 1.642 2.8874 -7.1102 0
M  V30 42 H 1.7266 2.0679 -2.6789 0
M  V30 43 H -0.8653 3.5674 -2.6582 0
M  V30 44 H -1.9665 1.0875 -2.4335 0
M  V30 45 H 2.0416 -0.3299 -1.7673 0
M  V30 46 H 1.4593 0.8076 -0.5766 0
M  V30 47 H 0.9511 -0.4163 -4.0694 0
M  V30 48 H -0.7975 -0.1415 -4.1513 0
M  V30 49 H -0.1366 -1.4311 -3.1493 0
M  V30 50 H -0.4296 2.1341 -0.0161 0
M  V30 51 H -1.9136 2.7525 -0.7284 0
M  V30 52 H -2.5357 0.4063 -0.0586 0
M  V30 53 H 1.3376 -1.4083 0.283 0
M  V30 54 H 0.3553 -1.9959 -1.0477 0
M  V30 55 H 2.4119 4.7506 -2.6098 0
M  V30 56 H 0.8198 4.8244 -3.4289 0
M  V30 57 H -1.2489 4.8274 -0.5515 0
M  V30 58 H 0.1515 5.4645 0.333 0
M  V30 59 H 1.2434 3.2383 0.4627 0
M  V30 60 H 2.3318 2.9261 -0.8969 0
M  V30 61 H -0.3979 0.1461 0.9845 0
M  V30 62 H -1.8963 -1.7729 -2.0823 0
M  V30 63 H -3.3575 -0.8123 -1.9743 0
M  V30 64 H 1.8766 6.8401 -1.4059 0
M  V30 65 H 1.2108 7.1469 -3.014 0
M  V30 66 H -0.9969 6.3737 -2.3366 0
M  V30 67 H -0.4697 7.3862 -0.9832 0
M  V30 68 H 2.3387 5.4077 0.9305 0
M  V30 69 H -3.9443 -1.8317 0.1625 0
M  V30 70 H -3.601 -3.081 -1.0191 0
M  V30 71 H 4.4834 4.1507 -0.876 0
M  V30 72 H 4.655 5.5611 0.3102 0
M  V30 73 H -1.3185 -3.3554 -0.1751 0
M  V30 74 H 0.3079 -1.7386 2.7576 0
M  V30 75 H 0.5249 -2.9285 1.4781 0
M  V30 76 H -1.729 -0.3207 2.8938 0
M  V30 77 H -2.7787 -1.7289 2.9885 0
M  V30 78 H -3.0795 -0.5064 1.7801 0
M  V30 79 H -3.1033 -4.7547 0.7402 0
M  V30 80 H -3.4411 -3.6113 2.0053 0
M  V30 81 H -1.4387 -3.173 3.7842 0
M  V30 82 H -0.8866 -5.2106 1.552 0
M  V30 83 H -1.5291 -6.1584 3.4668 0
M  V30 84 H 0.6534 -6.072 3.0503 0
M  V30 85 H 1.5962 -4.8097 2.2344 0
M  V30 86 H -0.4735 -3.7441 5.7472 0
M  V30 87 H -0.6355 -5.4157 5.1837 0
M  V30 88 H 3.1278 -4.6571 4.191 0
M  V30 89 H 3.0188 -6.3239 3.6078 0
M  V30 90 H 0.9797 -5.3392 7.0101 0
M  V30 91 H 1.9307 -4.0784 6.213 0
M  V30 END ATOM
M  V30 BEGIN BOND
M  V30 1 2 1 2
M  V30 2 1 2 3
M  V30 3 1 2 4
M  V30 4 1 3 5
M  V30 5 1 5 6
M  V30 6 1 5 7
M  V30 7 1 6 8
M  V30 8 1 6 9
M  V30 9 1 6 10
M  V30 10 1 7 11
M  V30 11 1 7 12
M  V30 12 1 8 13
M  V30 13 1 9 14
M  V30 14 1 11 15
M  V30 15 1 11 16
M  V30 16 1 11 17
M  V30 17 1 13 18
M  V30 18 1 13 19
M  V30 19 1 15 20
M  V30 20 1 16 21
M  V30 21 1 17 22
M  V30 22 1 18 23
M  V30 23 1 19 24
M  V30 24 2 22 25
M  V30 25 1 23 26
M  V30 26 1 23 27
M  V30 27 1 23 28
M  V30 28 1 26 29
M  V30 29 1 27 30
M  V30 30 1 29 31
M  V30 31 1 30 32
M  V30 32 1 31 33
M  V30 33 1 32 34
M  V30 34 1 32 35
M  V30 35 1 34 36
M  V30 36 1 35 37
M  V30 37 1 36 38
M  V30 38 1 8 12
M  V30 39 1 14 18
M  V30 40 1 20 21
M  V30 41 1 24 26
M  V30 42 1 30 31
M  V30 43 1 37 38
M  V30 44 1 4 39
M  V30 45 1 4 40
M  V30 46 1 4 41
M  V30 47 1 5 42
M  V30 48 1 7 43
M  V30 49 1 8 44
M  V30 50 1 9 45
M  V30 51 1 9 46
M  V30 52 1 10 47
M  V30 53 1 10 48
M  V30 54 1 10 49
M  V30 55 1 12 50
M  V30 56 1 12 51
M  V30 57 1 13 52
M  V30 58 1 14 53
M  V30 59 1 14 54
M  V30 60 1 15 55
M  V30 61 1 15 56
M  V30 62 1 16 57
M  V30 63 1 16 58
M  V30 64 1 17 59
M  V30 65 1 17 60
M  V30 66 1 18 61
M  V30 67 1 19 62
M  V30 68 1 19 63
M  V30 69 1 20 64
M  V30 70 1 20 65
M  V30 71 1 21 66
M  V30 72 1 21 67
M  V30 73 1 22 68
M  V30 74 1 24 69
M  V30 75 1 24 70
M  V30 76 1 25 71
M  V30 77 1 25 72
M  V30 78 1 26 73
M  V30 79 1 27 74
M  V30 80 1 27 75
M  V30 81 1 28 76
M  V30 82 1 28 77
M  V30 83 1 28 78
M  V30 84 1 29 79
M  V30 85 1 29 80
M  V30 86 1 30 81
M  V30 87 1 31 82
M  V30 88 1 33 83
M  V30 89 1 34 84
M  V30 90 1 34 85
M  V30 91 1 35 86
M  V30 92 1 35 87
M  V30 93 1 36 88
M  V30 94 1 36 89
M  V30 95 1 37 90
M  V30 96 1 37 91
M  V30 END BOND
M  V30 END CTAB
M  END
>  <NO.>
5599

>  <Name>
[(2s,3s,5s,8r,9s,10s,13s,14s,16s,17r)-3-hydroxy-10,13-dimethyl-2-morpholin-4-yl-16-(1-prop-2-enylpyrrolidin-1-ium-1-yl)-2,3,4,5,6,7,8,9,11,12,14,15,16,17-tetradecahydro-1h-cyclopenta[a]phenanthren-17-yl] acetate

>  <SMILES>
C=CC[N+]1(C2CC3C4CCC5CC(O)C(N6CCOCC6)CC5(C)C4CCC3(C)C2OC(C)=O)CCCC1

>  <logBB>


>  <Class>
-1

>  <MW>
529.4

>  <nHBAcc>
5

>  <nHBDon>
1

>  <SLogP>
4.41

>  <TopoPSA>
59

>  <MMFF94 Energy>
186.3

$$$$
C=Cc1c2[nH]c(c1C)C=C1N=C(C=c3[nH]c(c(CCC(=O)O)c3C)=Cc3[nH]c(c(C)c3CCC(=O)OC)C2)C2(C)C1=CC=C(C(=O)OC)C2C(=O)OC
Actelion Java MolfileCreator 2.0

  0  0  0  0  0  0              0 V3000
M  V30 BEGIN CTAB
M  V30 COUNTS 97 102 0 0 0
M  V30 BEGIN ATOM
M  V30 1 O 6.1414 -0.0795 1.2737 0
M  V30 2 C 5.1476 0.5473 1.6068 0
M  V30 3 O 5.0408 1.8973 1.6357 0
M  V30 4 C 3.8704 -0.0736 2.0383 0
M  V30 5 C 6.2202 2.5863 1.2174 0
M  V30 6 C 3.7896 -1.4203 2.0159 0
M  V30 7 C 2.6955 0.7931 2.4866 0
M  V30 8 C 2.5579 -2.1042 2.3517 0
M  V30 9 C 2.0705 1.4517 1.2685 0
M  V30 10 C 1.7371 0.0127 3.4068 0
M  V30 11 C 1.5742 -1.4419 2.9774 0
M  V30 12 O 1.879 2.6608 1.186 0
M  V30 13 O 1.8092 0.5534 0.2826 0
M  V30 14 C 0.2504 0.2871 3.466 0
M  V30 15 C 2.2635 0.0691 4.8627 0
M  V30 16 C 0.2305 -1.8621 3.3208 0
M  V30 17 C 1.4463 1.1532 -0.9597 0
M  V30 18 N -0.4983 -0.7548 3.6712 0
M  V30 19 C -0.3557 1.6153 3.3325 0
M  V30 20 C -0.4685 -2.9802 3.0786 0
M  V30 21 C -1.171 1.7673 2.2754 0
M  V30 22 C -0.2408 -3.862 1.9986 0
M  V30 23 N -1.4135 0.889 1.2432 0
M  V30 24 C -1.9785 2.946 1.9635 0
M  V30 25 N -0.2577 -3.3003 0.7462 0
M  V30 26 C -0.2421 -5.2364 1.8404 0
M  V30 27 C -2.2799 1.3787 0.3038 0
M  V30 28 C -2.6359 2.722 0.7971 0
M  V30 29 C -1.9707 4.1658 2.8207 0
M  V30 30 C -0.6807 -4.234 -0.1636 0
M  V30 31 C -0.4928 -5.47 0.4432 0
M  V30 32 C -0.1665 -6.2428 2.9353 0
M  V30 33 C -2.6806 0.8467 -0.8636 0
M  V30 34 C -3.4855 3.6985 0.0343 0
M  V30 35 C -1.2119 -3.8587 -1.5146 0
M  V30 36 C -0.6787 -6.7125 -0.2383 0
M  V30 37 C -2.0336 -0.2512 -1.4947 0
M  V30 38 C -2.7549 4.3366 -1.1497 0
M  V30 39 C -1.3572 -2.3812 -1.7903 0
M  V30 40 C -0.0497 -7.8625 0.0364 0
M  V30 41 N -2.1163 -1.5303 -1.0046 0
M  V30 42 C -1.313 -0.2945 -2.6793 0
M  V30 43 C -1.4889 5.0178 -0.7108 0
M  V30 44 C -0.8645 -1.64 -2.8572 0
M  V30 45 C -1.0462 0.8764 -3.5807 0
M  V30 46 O -1.414 6.0053 0.0025 0
M  V30 47 O -0.3799 4.3919 -1.1507 0
M  V30 48 C -0.0312 -2.1639 -3.9776 0
M  V30 49 C -2.1383 1.0542 -4.6237 0
M  V30 50 C -1.954 2.3683 -5.3265 0
M  V30 51 O -2.5445 3.3961 -5.0216 0
M  V30 52 O -1.0277 2.2543 -6.317 0
M  V30 53 C -0.7821 3.4711 -7.0234 0
M  V30 54 H 6.0221 3.6603 1.2727 0
M  V30 55 H 7.0567 2.3531 1.8836 0
M  V30 56 H 6.4655 2.332 0.1814 0
M  V30 57 H 4.6226 -2.0405 1.6893 0
M  V30 58 H 3.0992 1.6268 3.0797 0
M  V30 59 H 2.461 -3.143 2.0488 0
M  V30 60 H 3.2849 -0.32 4.9405 0
M  V30 61 H 2.2676 1.1024 5.23 0
M  V30 62 H 1.6409 -0.5085 5.5571 0
M  V30 63 H 1.3765 0.3594 -1.7061 0
M  V30 64 H 0.4828 1.6589 -0.8756 0
M  V30 65 H 2.2182 1.857 -1.2883 0
M  V30 66 H -0.1753 2.3634 4.0888 0
M  V30 67 H -1.4835 -3.0219 3.475 0
M  V30 68 H -1.0112 -0.0323 1.1949 0
M  V30 69 H -0.2137 -2.307 0.5642 0
M  V30 70 H -2.3118 3.9247 3.8332 0
M  V30 71 H -2.625 4.9537 2.4395 0
M  V30 72 H -0.9606 4.5839 2.885 0
M  V30 73 H -0.9493 -7.0 2.8269 0
M  V30 74 H -0.2945 -5.7779 3.9184 0
M  V30 75 H 0.8088 -6.739 2.9269 0
M  V30 76 H -3.3685 1.4041 -1.4927 0
M  V30 77 H -3.8387 4.4939 0.7005 0
M  V30 78 H -4.3962 3.2008 -0.3205 0
M  V30 79 H -0.5582 -4.3099 -2.2707 0
M  V30 80 H -2.2006 -4.3186 -1.6423 0
M  V30 81 H -1.3695 -6.7158 -1.0793 0
M  V30 82 H -2.5202 3.5959 -1.9213 0
M  V30 83 H -3.3908 5.0879 -1.6314 0
M  V30 84 H 0.6865 -7.9449 0.8274 0
M  V30 85 H -0.2486 -8.7522 -0.5517 0
M  V30 86 H -2.6384 -1.8077 -0.1818 0
M  V30 87 H -0.0725 0.7578 -4.0716 0
M  V30 88 H -0.9536 1.7888 -2.9774 0
M  V30 89 H 0.3552 4.8311 -0.6723 0
M  V30 90 H -0.4538 -3.0936 -4.3722 0
M  V30 91 H 0.027 -1.4554 -4.8086 0
M  V30 92 H 0.9862 -2.3647 -3.6274 0
M  V30 93 H -2.1386 0.2397 -5.3574 0
M  V30 94 H -3.136 1.0562 -4.1681 0
M  V30 95 H -0.0325 3.2702 -7.7937 0
M  V30 96 H -1.6963 3.822 -7.5126 0
M  V30 97 H -0.3866 4.2342 -6.3457 0
M  V30 END ATOM
M  V30 BEGIN BOND
M  V30 1 2 1 2
M  V30 2 1 2 3
M  V30 3 1 2 4
M  V30 4 1 3 5
M  V30 5 2 4 6
M  V30 6 1 4 7
M  V30 7 1 6 8
M  V30 8 1 7 9
M  V30 9 1 7 10
M  V30 10 2 8 11
M  V30 11 2 9 12
M  V30 12 1 9 13
M  V30 13 1 10 14
M  V30 14 1 10 15
M  V30 15 1 11 16
M  V30 16 1 13 17
M  V30 17 2 14 18
M  V30 18 1 14 19
M  V30 19 2 16 20
M  V30 20 2 19 21
M  V30 21 1 20 22
M  V30 22 1 21 23
M  V30 23 1 21 24
M  V30 24 1 22 25
M  V30 25 2 22 26
M  V30 26 1 23 27
M  V30 27 2 24 28
M  V30 28 1 24 29
M  V30 29 1 25 30
M  V30 30 1 26 31
M  V30 31 1 26 32
M  V30 32 2 27 33
M  V30 33 1 28 34
M  V30 34 1 30 35
M  V30 35 1 31 36
M  V30 36 1 33 37
M  V30 37 1 34 38
M  V30 38 1 35 39
M  V30 39 2 36 40
M  V30 40 1 37 41
M  V30 41 2 37 42
M  V30 42 1 38 43
M  V30 43 2 39 44
M  V30 44 1 42 45
M  V30 45 2 43 46
M  V30 46 1 43 47
M  V30 47 1 44 48
M  V30 48 1 45 49
M  V30 49 1 49 50
M  V30 50 2 50 51
M  V30 51 1 50 52
M  V30 52 1 52 53
M  V30 53 1 10 11
M  V30 54 1 16 18
M  V30 55 1 27 28
M  V30 56 2 30 31
M  V30 57 1 39 41
M  V30 58 1 42 44
M  V30 59 1 5 54
M  V30 60 1 5 55
M  V30 61 1 5 56
M  V30 62 1 6 57
M  V30 63 1 7 58
M  V30 64 1 8 59
M  V30 65 1 15 60
M  V30 66 1 15 61
M  V30 67 1 15 62
M  V30 68 1 17 63
M  V30 69 1 17 64
M  V30 70 1 17 65
M  V30 71 1 19 66
M  V30 72 1 20 67
M  V30 73 1 23 68
M  V30 74 1 25 69
M  V30 75 1 29 70
M  V30 76 1 29 71
M  V30 77 1 29 72
M  V30 78 1 32 73
M  V30 79 1 32 74
M  V30 80 1 32 75
M  V30 81 1 33 76
M  V30 82 1 34 77
M  V30 83 1 34 78
M  V30 84 1 35 79
M  V30 85 1 35 80
M  V30 86 1 36 81
M  V30 87 1 38 82
M  V30 88 1 38 83
M  V30 89 1 40 84
M  V30 90 1 40 85
M  V30 91 1 41 86
M  V30 92 1 45 87
M  V30 93 1 45 88
M  V30 94 1 47 89
M  V30 95 1 48 90
M  V30 96 1 48 91
M  V30 97 1 48 92
M  V30 98 1 49 93
M  V30 99 1 49 94
M  V30 100 1 53 95
M  V30 101 1 53 96
M  V30 102 1 53 97
M  V30 END BOND
M  V30 END CTAB
M  END
>  <NO.>
5600

>  <Name>
verteporfin

>  <SMILES>
C=Cc1c2[nH]c(c1C)C=C1N=C(C=c3[nH]c(c(CCC(=O)O)c3C)=Cc3[nH]c(c(C)c3CCC(=O)OC)C2)C2(C)C1=CC=C(C(=O)OC)C2C(=O)OC

>  <logBB>


>  <Class>
-1

>  <MW>
720.32

>  <nHBAcc>
8

>  <nHBDon>
4

>  <SLogP>
4.21

>  <TopoPSA>
175.93

>  <MMFF94 Energy>
13.569

$$$$
CC#CC(=O)N1CCC[C@H]1c1nc(-c2ccc(C(=O)Nc3ccccn3)cc2)c2c(N)nccn12
Actelion Java MolfileCreator 2.0

  0  0  0  0  0  0              0 V3000
M  V30 BEGIN CTAB
M  V30 COUNTS 58 62 0 0 0
M  V30 BEGIN ATOM
M  V30 1 O 5.2788 -1.5973 -1.2777 0
M  V30 2 C 4.2782 -2.2963 -1.168 0
M  V30 3 N 3.766 -2.7132 0.038 0
M  V30 4 C 3.6005 -2.7254 -2.3754 0
M  V30 5 C 2.622 -3.5977 0.2385 0 CFG=2
M  V30 6 C 4.3747 -2.3199 1.2928 0
M  V30 7 C 3.0196 -3.07 -3.3699 0
M  V30 8 C 1.344 -2.8608 -0.0476 0
M  V30 9 C 2.73 -3.9992 1.7132 0
M  V30 10 C 3.4091 -2.7977 2.3666 0
M  V30 11 C 2.299 -3.4691 -4.578 0
M  V30 12 N 1.0336 -1.6469 0.3772 0
M  V30 13 N 0.3219 -3.3782 -0.8191 0
M  V30 14 C -0.2056 -1.3659 -0.1447 0
M  V30 15 C -0.6475 -2.4039 -0.9348 0
M  V30 16 C 0.1466 -4.6046 -1.4362 0
M  V30 17 C -0.8768 -0.1154 0.1311 0
M  V30 18 C -1.796 -2.6636 -1.7733 0
M  V30 19 C -0.9657 -4.7974 -2.1593 0
M  V30 20 C -0.2232 1.0913 -0.146 0
M  V30 21 C -2.1542 -0.0919 0.7032 0
M  V30 22 N -1.9358 -3.8369 -2.348 0
M  V30 23 N -2.7678 -1.7544 -2.0435 0
M  V30 24 C -0.8476 2.3137 0.1209 0
M  V30 25 C -2.7824 1.1278 0.9685 0
M  V30 26 C -2.1283 2.3347 0.6879 0
M  V30 27 C -2.8402 3.6109 0.9821 0
M  V30 28 O -4.061 3.6316 0.8769 0
M  V30 29 N -2.0336 4.6497 1.3781 0
M  V30 30 C -2.4022 5.9587 1.6894 0
M  V30 31 N -1.3688 6.7109 2.1281 0
M  V30 32 C -3.6877 6.4632 1.5536 0
M  V30 33 C -1.6274 7.9982 2.4492 0
M  V30 34 C -3.9255 7.7951 1.8911 0
M  V30 35 C -2.8775 8.5812 2.3494 0
M  V30 36 H 2.7367 -4.472 -0.4085 0
M  V30 37 H 5.3417 -2.8291 1.3707 0
M  V30 38 H 4.5447 -1.2394 1.3219 0
M  V30 39 H 1.771 -4.2459 2.1795 0
M  V30 40 H 3.3877 -4.8725 1.8081 0
M  V30 41 H 3.9153 -3.0525 3.3018 0
M  V30 42 H 2.6693 -2.0189 2.5849 0
M  V30 43 H 1.3061 -3.0099 -4.6074 0
M  V30 44 H 2.1711 -4.555 -4.6132 0
M  V30 45 H 2.8428 -3.1611 -5.4759 0
M  V30 46 H 0.9008 -5.3689 -1.318 0
M  V30 47 H -1.1434 -5.7478 -2.6556 0
M  V30 48 H 0.7775 1.0794 -0.5757 0
M  V30 49 H -2.6662 -1.0197 0.9511 0
M  V30 50 H -2.7098 -0.7879 -1.76 0
M  V30 51 H -3.5135 -2.0371 -2.6641 0
M  V30 52 H -0.3281 3.232 -0.1394 0
M  V30 53 H -3.7793 1.1361 1.4061 0
M  V30 54 H -1.0483 4.4951 1.5382 0
M  V30 55 H -4.51 5.8577 1.1927 0
M  V30 56 H -0.772 8.5679 2.8009 0
M  V30 57 H -4.9248 8.2102 1.7943 0
M  V30 58 H -3.0307 9.6195 2.6202 0
M  V30 END ATOM
M  V30 BEGIN BOND
M  V30 1 2 1 2
M  V30 2 1 2 3
M  V30 3 1 2 4
M  V30 4 1 3 5
M  V30 5 1 3 6
M  V30 6 3 4 7
M  V30 7 1 5 8
M  V30 8 1 5 9
M  V30 9 1 6 10
M  V30 10 1 7 11
M  V30 11 2 8 12
M  V30 12 1 8 13
M  V30 13 1 12 14
M  V30 14 1 13 15
M  V30 15 1 13 16
M  V30 16 1 14 17
M  V30 17 1 15 18
M  V30 18 2 16 19
M  V30 19 2 17 20
M  V30 20 1 17 21
M  V30 21 2 18 22
M  V30 22 1 18 23
M  V30 23 1 20 24
M  V30 24 2 21 25
M  V30 25 2 24 26
M  V30 26 1 26 27
M  V30 27 2 27 28
M  V30 28 1 27 29
M  V30 29 1 29 30
M  V30 30 2 30 31
M  V30 31 1 30 32
M  V30 32 1 31 33
M  V30 33 2 32 34
M  V30 34 2 33 35
M  V30 35 1 9 10
M  V30 36 2 14 15
M  V30 37 1 19 22
M  V30 38 1 25 26
M  V30 39 1 34 35
M  V30 40 1 5 36
M  V30 41 1 6 37
M  V30 42 1 6 38
M  V30 43 1 9 39
M  V30 44 1 9 40
M  V30 45 1 10 41
M  V30 46 1 10 42
M  V30 47 1 11 43
M  V30 48 1 11 44
M  V30 49 1 11 45
M  V30 50 1 16 46
M  V30 51 1 19 47
M  V30 52 1 20 48
M  V30 53 1 21 49
M  V30 54 1 23 50
M  V30 55 1 23 51
M  V30 56 1 24 52
M  V30 57 1 25 53
M  V30 58 1 29 54
M  V30 59 1 32 55
M  V30 60 1 33 56
M  V30 61 1 34 57
M  V30 62 1 35 58
M  V30 END BOND
M  V30 BEGIN COLLECTION
M  V30 MDLV30/STEABS ATOMS=(1 5)
M  V30 END COLLECTION
M  V30 END CTAB
M  END
>  <NO.>
5601

>  <Name>
acalabrutinib

>  <SMILES>
CC#CC(=O)N1CCC[C@H]1c1nc(-c2ccc(C(=O)Nc3ccccn3)cc2)c2c(N)nccn12

>  <logBB>


>  <Class>
-1

>  <MW>
465.19

>  <nHBAcc>
6

>  <nHBDon>
2

>  <SLogP>
3.31

>  <TopoPSA>
118.51

>  <MMFF94 Energy>
-60.56

$$$$
CC#CCC(C)C(O)/C=C/C1C(O)CC2C/C(=C/CCCC(=O)OCC(=O)c3ccccc3)CC21
Actelion Java MolfileCreator 2.0

  0  0  0  0  0  0              0 V3000
M  V30 BEGIN CTAB
M  V30 COUNTS 73 75 0 0 0
M  V30 BEGIN ATOM
M  V30 1 O -3.3342 3.8908 -0.7137 0
M  V30 2 C -3.6482 3.4243 0.3721 0
M  V30 3 O -3.8917 4.1613 1.4893 0
M  V30 4 C -3.8459 1.9594 0.6795 0
M  V30 5 C -3.7315 5.568 1.2977 0
M  V30 6 C -3.3764 1.0689 -0.4689 0
M  V30 7 C -4.0209 6.3226 2.5892 0
M  V30 8 C -3.5904 -0.4093 -0.1443 0
M  V30 9 O -4.3499 5.7549 3.6304 0
M  V30 10 C -3.8982 7.8137 2.5796 0
M  V30 11 C -3.116 -1.2838 -1.2698 0
M  V30 12 C -4.1661 8.5114 3.7667 0
M  V30 13 C -3.5279 8.5312 1.4343 0
M  V30 14 C -2.0583 -2.11 -1.2387 0
M  V30 15 C -4.0656 9.9035 3.8088 0
M  V30 16 C -3.4284 9.9252 1.4811 0
M  V30 17 C -1.0804 -2.2811 -0.1107 0
M  V30 18 C -1.608 -2.9338 -2.4077 0
M  V30 19 C -3.6968 10.6093 2.6658 0
M  V30 20 C 0.2064 -2.8134 -0.7699 0
M  V30 21 C -0.0902 -2.9028 -2.2872 0
M  V30 22 C 1.3946 -1.8403 -0.6548 0
M  V30 23 C 0.5759 -1.6717 -2.9319 0
M  V30 24 C 2.7041 -2.5778 -0.8537 0
M  V30 25 C 1.0848 -0.823 -1.77 0
M  V30 26 C 3.731 -2.5323 0.0127 0
M  V30 27 O 2.1858 -0.0098 -2.1385 0
M  V30 28 C 5.0593 -3.2305 -0.1498 0
M  V30 29 O 5.1955 -3.6698 -1.4986 0
M  V30 30 C 5.3021 -4.3885 0.8552 0
M  V30 31 C 4.2777 -5.5387 0.7577 0
M  V30 32 C 5.3499 -3.8645 2.2973 0
M  V30 33 C 4.5005 -6.3984 -0.4162 0
M  V30 34 C 4.6766 -7.102 -1.3737 0
M  V30 35 C 4.8815 -7.9542 -2.5452 0
M  V30 36 H -4.9114 1.794 0.8739 0
M  V30 37 H -3.2764 1.7177 1.5842 0
M  V30 38 H -4.4407 5.9064 0.5339 0
M  V30 39 H -2.6957 5.7707 1.0033 0
M  V30 40 H -2.3137 1.2588 -0.669 0
M  V30 41 H -3.9188 1.3317 -1.3865 0
M  V30 42 H -3.0877 -0.6612 0.7959 0
M  V30 43 H -4.6581 -0.6037 0.0158 0
M  V30 44 H -3.7109 -1.2328 -2.1814 0
M  V30 45 H -4.4554 7.9729 4.668 0
M  V30 46 H -3.3099 8.0389 0.4911 0
M  V30 47 H -4.2753 10.4345 4.7343 0
M  V30 48 H -3.1405 10.4797 0.5905 0
M  V30 49 H -0.9095 -1.3524 0.4421 0
M  V30 50 H -1.4644 -3.0294 0.5924 0
M  V30 51 H -1.9607 -2.556 -3.3722 0
M  V30 52 H -1.9726 -3.9603 -2.2826 0
M  V30 53 H -3.6183 11.6935 2.6985 0
M  V30 54 H 0.4434 -3.7996 -0.3509 0
M  V30 55 H 0.3401 -3.8103 -2.7271 0
M  V30 56 H 1.4113 -1.3361 0.3189 0
M  V30 57 H -0.1005 -1.0998 -3.5762 0
M  V30 58 H 1.4099 -1.9885 -3.5704 0
M  V30 59 H 2.8074 -3.1787 -1.7569 0
M  V30 60 H 0.2871 -0.1467 -1.4399 0
M  V30 61 H 3.6296 -1.9274 0.9116 0
M  V30 62 H 2.943 -0.5957 -2.317 0
M  V30 63 H 5.8424 -2.4761 -0.004 0
M  V30 64 H 5.905 -4.3328 -1.5275 0
M  V30 65 H 6.2951 -4.8065 0.635 0
M  V30 66 H 3.2514 -5.1556 0.7555 0
M  V30 67 H 4.3621 -6.1738 1.6492 0
M  V30 68 H 6.058 -3.0341 2.3885 0
M  V30 69 H 5.6784 -4.6541 2.9821 0
M  V30 70 H 4.3681 -3.5188 2.6374 0
M  V30 71 H 5.2422 -7.3665 -3.3947 0
M  V30 72 H 3.947 -8.4405 -2.8408 0
M  V30 73 H 5.6189 -8.7346 -2.3342 0
M  V30 END ATOM
M  V30 BEGIN BOND
M  V30 1 2 1 2
M  V30 2 1 2 3
M  V30 3 1 2 4
M  V30 4 1 3 5
M  V30 5 1 4 6
M  V30 6 1 5 7
M  V30 7 1 6 8
M  V30 8 2 7 9
M  V30 9 1 7 10
M  V30 10 1 8 11
M  V30 11 2 10 12
M  V30 12 1 10 13
M  V30 13 2 11 14
M  V30 14 1 12 15
M  V30 15 2 13 16
M  V30 16 1 14 17
M  V30 17 1 14 18
M  V30 18 2 15 19
M  V30 19 1 17 20
M  V30 20 1 18 21
M  V30 21 1 20 22
M  V30 22 1 21 23
M  V30 23 1 22 24
M  V30 24 1 22 25
M  V30 25 2 24 26
M  V30 26 1 25 27
M  V30 27 1 26 28
M  V30 28 1 28 29
M  V30 29 1 28 30
M  V30 30 1 30 31
M  V30 31 1 30 32
M  V30 32 1 31 33
M  V30 33 3 33 34
M  V30 34 1 34 35
M  V30 35 1 16 19
M  V30 36 1 20 21
M  V30 37 1 23 25
M  V30 38 1 4 36
M  V30 39 1 4 37
M  V30 40 1 5 38
M  V30 41 1 5 39
M  V30 42 1 6 40
M  V30 43 1 6 41
M  V30 44 1 8 42
M  V30 45 1 8 43
M  V30 46 1 11 44
M  V30 47 1 12 45
M  V30 48 1 13 46
M  V30 49 1 15 47
M  V30 50 1 16 48
M  V30 51 1 17 49
M  V30 52 1 17 50
M  V30 53 1 18 51
M  V30 54 1 18 52
M  V30 55 1 19 53
M  V30 56 1 20 54
M  V30 57 1 21 55
M  V30 58 1 22 56
M  V30 59 1 23 57
M  V30 60 1 23 58
M  V30 61 1 24 59
M  V30 62 1 25 60
M  V30 63 1 26 61
M  V30 64 1 27 62
M  V30 65 1 28 63
M  V30 66 1 29 64
M  V30 67 1 30 65
M  V30 68 1 31 66
M  V30 69 1 31 67
M  V30 70 1 32 68
M  V30 71 1 32 69
M  V30 72 1 32 70
M  V30 73 1 35 71
M  V30 74 1 35 72
M  V30 75 1 35 73
M  V30 END BOND
M  V30 END CTAB
M  END
>  <NO.>
5602

>  <Name>
iloprost phenacyl ester

>  <SMILES>
CC#CCC(C)C(O)/C=C/C1C(O)CC2C/C(=C/CCCC(=O)OCC(=O)c3ccccc3)CC21

>  <logBB>


>  <Class>
-1

>  <MW>
478.27

>  <nHBAcc>
5

>  <nHBDon>
2

>  <SLogP>
4.88

>  <TopoPSA>
83.83

>  <MMFF94 Energy>
87.385

$$$$
CC#CCn1c(N2CCCC(N)C2)nc2c1c(=O)n(Cc1nc(C)c3ccccc3n1)c(=O)n2C
Actelion Java MolfileCreator 2.0

  0  0  0  0  0  0              0 V3000
M  V30 BEGIN CTAB
M  V30 COUNTS 63 67 0 0 0
M  V30 BEGIN ATOM
M  V30 1 O 1.2746 -2.2314 -2.8697 0
M  V30 2 C 0.773 -1.7299 -1.8593 0
M  V30 3 N 1.5424 -1.4765 -0.711 0
M  V30 4 N -0.5822 -1.4003 -1.8006 0
M  V30 5 C 1.0801 -0.9003 0.474 0
M  V30 6 C 2.973 -1.7369 -0.7993 0
M  V30 7 C -1.088 -0.842 -0.6511 0
M  V30 8 C -1.4498 -1.6323 -2.9409 0
M  V30 9 O 1.7917 -0.6677 1.4466 0
M  V30 10 C -0.3111 -0.6091 0.4398 0
M  V30 11 C 3.7677 -0.5547 -1.328 0
M  V30 12 N -2.3705 -0.4392 -0.4581 0
M  V30 13 N -1.1572 -0.0554 1.3677 0
M  V30 14 N 3.1268 0.6091 -1.5583 0
M  V30 15 N 5.086 -0.7441 -1.5198 0
M  V30 16 C -2.4104 0.0078 0.782 0
M  V30 17 C -0.7623 0.4946 2.6547 0
M  V30 18 C 3.8469 1.6366 -2.0199 0
M  V30 19 C 5.8 0.3047 -1.9857 0
M  V30 20 N -3.4971 0.5178 1.4145 0
M  V30 21 C -0.6137 -0.5403 3.6879 0
M  V30 22 C 5.2242 1.5522 -2.2625 0
M  V30 23 C 3.2012 2.8412 -2.27 0
M  V30 24 C 7.2653 0.0459 -2.1905 0
M  V30 25 C -4.4696 1.2928 0.6255 0
M  V30 26 C -4.0617 -0.1844 2.5699 0
M  V30 27 C -0.487 -1.3876 4.5306 0
M  V30 28 C 5.9199 2.6862 -2.7521 0
M  V30 29 C 3.8844 3.9607 -2.7528 0
M  V30 30 C -5.6542 0.4147 0.1418 0 CFG=1
M  V30 31 C -5.1991 -1.1087 2.1331 0
M  V30 32 C -0.3203 -2.4244 5.5493 0
M  V30 33 C 5.2491 3.883 -2.9947 0
M  V30 34 N -5.2644 -0.5384 -0.9123 0
M  V30 35 C -6.2576 -0.349 1.3305 0
M  V30 36 H 3.3663 -1.9941 0.191 0
M  V30 37 H 3.1567 -2.5964 -1.454 0
M  V30 38 H -1.8615 -0.675 -3.2761 0
M  V30 39 H -2.2664 -2.2963 -2.6396 0
M  V30 40 H -0.9144 -2.0933 -3.7748 0
M  V30 41 H 0.1747 1.0419 2.5065 0
M  V30 42 H -1.5073 1.2375 2.9573 0
M  V30 43 H 2.1313 2.9108 -2.0848 0
M  V30 44 H 7.5201 -0.9839 -1.9184 0
M  V30 45 H 7.5358 0.1897 -3.2412 0
M  V30 46 H 7.8631 0.714 -1.5626 0
M  V30 47 H -3.9859 1.791 -0.225 0
M  V30 48 H -4.8627 2.0959 1.2623 0
M  V30 49 H -3.3109 -0.7757 3.1021 0
M  V30 50 H -4.4408 0.5572 3.2837 0
M  V30 51 H 6.9885 2.6413 -2.9473 0
M  V30 52 H 3.3457 4.8865 -2.9381 0
M  V30 53 H -6.4255 1.0684 -0.2819 0
M  V30 54 H -4.7973 -1.9331 1.5319 0
M  V30 55 H -5.6643 -1.5593 3.0174 0
M  V30 56 H 0.4292 -3.1582 5.2382 0
M  V30 57 H -1.2622 -2.9537 5.7229 0
M  V30 58 H 0.0043 -1.9884 6.4988 0
M  V30 59 H 5.7891 4.7481 -3.371 0
M  V30 60 H -4.3832 -0.9771 -0.6042 0
M  V30 61 H -4.9491 -0.0064 -1.7248 0
M  V30 62 H -7.0333 -1.0452 0.9885 0
M  V30 63 H -6.7576 0.3684 1.9944 0
M  V30 END ATOM
M  V30 BEGIN BOND
M  V30 1 2 1 2
M  V30 2 1 2 3
M  V30 3 1 2 4
M  V30 4 1 3 5
M  V30 5 1 3 6
M  V30 6 1 4 7
M  V30 7 1 4 8
M  V30 8 2 5 9
M  V30 9 1 5 10
M  V30 10 1 6 11
M  V30 11 1 7 12
M  V30 12 1 10 13
M  V30 13 2 11 14
M  V30 14 1 11 15
M  V30 15 2 12 16
M  V30 16 1 13 17
M  V30 17 1 14 18
M  V30 18 2 15 19
M  V30 19 1 16 20
M  V30 20 1 17 21
M  V30 21 1 18 22
M  V30 22 2 18 23
M  V30 23 1 19 24
M  V30 24 1 20 25
M  V30 25 1 20 26
M  V30 26 3 21 27
M  V30 27 2 22 28
M  V30 28 1 23 29
M  V30 29 1 25 30
M  V30 30 1 26 31
M  V30 31 1 27 32
M  V30 32 1 28 33
M  V30 33 1 30 34
M  V30 34 1 30 35
M  V30 35 2 7 10
M  V30 36 1 13 16
M  V30 37 1 19 22
M  V30 38 2 29 33
M  V30 39 1 31 35
M  V30 40 1 6 36
M  V30 41 1 6 37
M  V30 42 1 8 38
M  V30 43 1 8 39
M  V30 44 1 8 40
M  V30 45 1 17 41
M  V30 46 1 17 42
M  V30 47 1 23 43
M  V30 48 1 24 44
M  V30 49 1 24 45
M  V30 50 1 24 46
M  V30 51 1 25 47
M  V30 52 1 25 48
M  V30 53 1 26 49
M  V30 54 1 26 50
M  V30 55 1 28 51
M  V30 56 1 29 52
M  V30 57 1 30 53
M  V30 58 1 31 54
M  V30 59 1 31 55
M  V30 60 1 32 56
M  V30 61 1 32 57
M  V30 62 1 32 58
M  V30 63 1 33 59
M  V30 64 1 34 60
M  V30 65 1 34 61
M  V30 66 1 35 62
M  V30 67 1 35 63
M  V30 END BOND
M  V30 BEGIN COLLECTION
M  V30 MDLV30/STERAC1 ATOMS=(1 30)
M  V30 END COLLECTION
M  V30 END CTAB
M  END
>  <NO.>
5603

>  <Name>
8-(3-aminopiperidin-1-yl)-7-(but-2-yn-1-yl)-3-methyl-1-((4-methylquinazolin-2-yl)methyl)-1h-purine-2,6(3h,7h)-dione

>  <SMILES>
CC#CCn1c(N2CCCC(N)C2)nc2c1c(=O)n(Cc1nc(C)c3ccccc3n1)c(=O)n2C

>  <logBB>


>  <Class>
-1

>  <MW>
472.23

>  <nHBAcc>
7

>  <nHBDon>
1

>  <SLogP>
1.15

>  <TopoPSA>
116.86

>  <MMFF94 Energy>
-96.217

$$$$
CC(/C=C1\SC(=S)N(CC(=O)O)C1=O)=C\c1ccccc1
Actelion Java MolfileCreator 2.0

  0  0  0  0  0  0              0 V3000
M  V30 BEGIN CTAB
M  V30 COUNTS 34 35 0 0 0
M  V30 BEGIN ATOM
M  V30 1 S 3.8438 3.025 0.9803 0
M  V30 2 C 2.52 2.4966 0.1135 0
M  V30 3 S 1.6129 1.0598 0.5692 0
M  V30 4 N 1.968 3.0557 -1.0175 0
M  V30 5 C 0.4959 1.2416 -0.7231 0
M  V30 6 C 0.8389 2.4436 -1.5277 0
M  V30 7 C 2.4388 4.284 -1.6567 0
M  V30 8 C -0.5685 0.4801 -1.0134 0
M  V30 9 O 0.197 2.8224 -2.498 0
M  V30 10 C 1.7732 5.5254 -1.0842 0
M  V30 11 C -1.0278 -0.7067 -0.3021 0
M  V30 12 O 1.9875 6.6707 -1.4525 0
M  V30 13 O 0.8938 5.2937 -0.0882 0
M  V30 14 C -0.2478 -1.8004 -0.2038 0
M  V30 15 C -2.4294 -0.5906 0.2389 0
M  V30 16 C -0.6237 -3.0357 0.4854 0
M  V30 17 C -0.4086 -3.1658 1.8615 0
M  V30 18 C -1.204 -4.0899 -0.2269 0
M  V30 19 C -0.7711 -4.3424 2.5194 0
M  V30 20 C -1.5659 -5.2658 0.433 0
M  V30 21 C -1.3492 -5.3915 1.8051 0
M  V30 22 H 2.2057 4.2475 -2.726 0
M  V30 23 H 3.5196 4.3855 -1.5288 0
M  V30 24 H -1.2055 0.7726 -1.8497 0
M  V30 25 H 0.5634 6.1859 0.1531 0
M  V30 26 H 0.7446 -1.8261 -0.6486 0
M  V30 27 H -2.772 -1.4959 0.748 0
M  V30 28 H -3.1378 -0.3887 -0.5723 0
M  V30 29 H -2.4901 0.2308 0.9616 0
M  V30 30 H 0.0407 -2.3522 2.4264 0
M  V30 31 H -1.3791 -4.0004 -1.2962 0
M  V30 32 H -0.6022 -4.44 3.5886 0
M  V30 33 H -2.017 -6.0833 -0.1231 0
M  V30 34 H -1.6311 -6.3074 2.3181 0
M  V30 END ATOM
M  V30 BEGIN BOND
M  V30 1 2 1 2
M  V30 2 1 2 3
M  V30 3 1 2 4
M  V30 4 1 3 5
M  V30 5 1 4 6
M  V30 6 1 4 7
M  V30 7 2 5 8
M  V30 8 2 6 9
M  V30 9 1 7 10
M  V30 10 1 8 11
M  V30 11 2 10 12
M  V30 12 1 10 13
M  V30 13 2 11 14
M  V30 14 1 11 15
M  V30 15 1 14 16
M  V30 16 2 16 17
M  V30 17 1 16 18
M  V30 18 1 17 19
M  V30 19 2 18 20
M  V30 20 2 19 21
M  V30 21 1 5 6
M  V30 22 1 20 21
M  V30 23 1 7 22
M  V30 24 1 7 23
M  V30 25 1 8 24
M  V30 26 1 13 25
M  V30 27 1 14 26
M  V30 28 1 15 27
M  V30 29 1 15 28
M  V30 30 1 15 29
M  V30 31 1 17 30
M  V30 32 1 18 31
M  V30 33 1 19 32
M  V30 34 1 20 33
M  V30 35 1 21 34
M  V30 END BOND
M  V30 END CTAB
M  END
>  <NO.>
5605

>  <Name>
epalrestat

>  <SMILES>
CC(/C=C1\SC(=S)N(CC(=O)O)C1=O)=C\c1ccccc1

>  <logBB>


>  <Class>
-1

>  <MW>
319.03

>  <nHBAcc>
4

>  <nHBDon>
1

>  <SLogP>
2.92

>  <TopoPSA>
57.61

>  <MMFF94 Energy>
-10.461

$$$$
CC(=O)Nc1cc(C(=O)O)c(I)c(NC(C)=O)c1I
Actelion Java MolfileCreator 2.0

  0  0  0  0  0  0              0 V3000
M  V30 BEGIN CTAB
M  V30 COUNTS 29 29 0 0 0
M  V30 BEGIN ATOM
M  V30 1 I -1.8241 -1.4093 -1.8241 0
M  V30 2 C -0.4261 -0.3686 -0.576 0
M  V30 3 C 0.967 -0.5362 -0.7572 0
M  V30 4 C -0.9235 0.5549 0.3694 0
M  V30 5 N 1.4822 -1.4881 -1.6681 0
M  V30 6 C 1.865 0.2689 -0.027 0
M  V30 7 N -2.3185 0.6725 0.5708 0
M  V30 8 C -0.0182 1.31 1.1168 0
M  V30 9 C 1.4229 -2.846 -1.4088 0
M  V30 10 I 3.9615 0.0359 -0.2968 0
M  V30 11 C 1.3603 1.1881 0.9013 0
M  V30 12 C -2.9918 1.7659 1.081 0
M  V30 13 O 0.8973 -3.348 -0.4205 0
M  V30 14 C 2.1184 -3.6773 -2.4529 0
M  V30 15 C 2.2184 2.0572 1.7154 0
M  V30 16 O -2.4916 2.8374 1.4044 0
M  V30 17 C -4.4789 1.5368 1.166 0
M  V30 18 O 2.4193 1.9556 2.9082 0
M  V30 19 O 2.7079 3.0604 0.9687 0
M  V30 20 H 2.1405 -1.1569 -2.3638 0
M  V30 21 H -2.8774 -0.0958 0.2137 0
M  V30 22 H -0.3634 2.0086 1.8766 0
M  V30 23 H 2.0443 -3.2095 -3.4387 0
M  V30 24 H 1.6505 -4.6643 -2.5022 0
M  V30 25 H 3.1719 -3.7852 -2.1823 0
M  V30 26 H -4.9228 1.6727 0.1762 0
M  V30 27 H -4.921 2.2536 1.8638 0
M  V30 28 H -4.6934 0.5262 1.5251 0
M  V30 29 H 3.2141 3.611 1.6026 0
M  V30 END ATOM
M  V30 BEGIN BOND
M  V30 1 1 1 2
M  V30 2 2 2 3
M  V30 3 1 2 4
M  V30 4 1 3 5
M  V30 5 1 3 6
M  V30 6 1 4 7
M  V30 7 2 4 8
M  V30 8 1 5 9
M  V30 9 1 6 10
M  V30 10 2 6 11
M  V30 11 1 7 12
M  V30 12 2 9 13
M  V30 13 1 9 14
M  V30 14 1 11 15
M  V30 15 2 12 16
M  V30 16 1 12 17
M  V30 17 2 15 18
M  V30 18 1 15 19
M  V30 19 1 8 11
M  V30 20 1 5 20
M  V30 21 1 7 21
M  V30 22 1 8 22
M  V30 23 1 14 23
M  V30 24 1 14 24
M  V30 25 1 14 25
M  V30 26 1 17 26
M  V30 27 1 17 27
M  V30 28 1 17 28
M  V30 29 1 19 29
M  V30 END BOND
M  V30 END CTAB
M  END
>  <NO.>
5610

>  <Name>
diatrizoate

>  <SMILES>
CC(=O)Nc1cc(C(=O)O)c(I)c(NC(C)=O)c1I

>  <logBB>


>  <Class>
-1

>  <MW>
487.87

>  <nHBAcc>
3

>  <nHBDon>
3

>  <SLogP>
2.51

>  <TopoPSA>
95.5

>  <MMFF94 Energy>
2.8822

$$$$
CC(=O)Nc1cccc(-n2c(=O)n(C3CC3)c(=O)c3c(Nc4ccc(I)cc4F)n(C)c(=O)c(C)c32)c1
Actelion Java MolfileCreator 2.0

  0  0  0  0  0  0              0 V3000
M  V30 BEGIN CTAB
M  V30 COUNTS 60 64 0 0 0
M  V30 BEGIN ATOM
M  V30 1 I -6.0156 0.649 -6.9937 0
M  V30 2 C -4.4563 0.046 -5.7614 0
M  V30 3 C -3.325 -0.5435 -6.3144 0
M  V30 4 C -4.5489 0.2338 -4.3822 0
M  V30 5 C -2.2902 -0.9419 -5.4724 0
M  V30 6 C -3.5 -0.172 -3.5477 0
M  V30 7 F -1.2048 -1.5126 -6.0188 0
M  V30 8 C -2.3476 -0.762 -4.0797 0
M  V30 9 N -1.2724 -1.2256 -3.2852 0
M  V30 10 C -1.1769 -1.2398 -1.8967 0
M  V30 11 N -2.0429 -2.0295 -1.1329 0
M  V30 12 C -0.2061 -0.5516 -1.2353 0
M  V30 13 C -2.0115 -2.0808 0.2517 0
M  V30 14 C -2.9704 -2.9506 -1.7885 0
M  V30 15 C 0.9022 0.0706 -2.0245 0
M  V30 16 C -0.1832 -0.4358 0.2165 0
M  V30 17 O -2.8008 -2.7537 0.9144 0
M  V30 18 C -0.9798 -1.2486 0.9505 0
M  V30 19 O 0.9917 -0.0958 -3.2441 0
M  V30 20 N 1.8225 0.8136 -1.3112 0
M  V30 21 N 0.6431 0.5711 0.7468 0
M  V30 22 C -0.9621 -1.4813 2.4389 0
M  V30 23 C 1.6211 1.2493 -0.007 0
M  V30 24 C 2.9512 1.3728 -2.0414 0
M  V30 25 C 0.4563 1.1108 2.062 0
M  V30 26 O 2.2658 2.205 0.4412 0
M  V30 27 C 4.3704 1.2188 -1.5452 0
M  V30 28 C 3.9355 0.4961 -2.7802 0
M  V30 29 C 1.4421 0.9315 3.0438 0
M  V30 30 C -0.6903 1.8611 2.3485 0
M  V30 31 C 1.268 1.4674 4.3209 0
M  V30 32 C -0.8572 2.4124 3.6173 0
M  V30 33 N 2.2185 1.323 5.3502 0
M  V30 34 C 0.1186 2.2172 4.5979 0
M  V30 35 C 3.1791 0.3315 5.4402 0
M  V30 36 O 3.3231 -0.6162 4.6759 0
M  V30 37 C 4.0571 0.4955 6.6544 0
M  V30 38 H -3.2251 -0.7041 -7.3826 0
M  V30 39 H -5.4291 0.6938 -3.9385 0
M  V30 40 H -3.5958 -0.0069 -2.4777 0
M  V30 41 H -0.3754 -1.0853 -3.771 0
M  V30 42 H -2.5539 -3.3402 -2.7217 0
M  V30 43 H -3.9168 -2.4357 -1.9724 0
M  V30 44 H -3.1811 -3.8158 -1.1512 0
M  V30 45 H -1.6912 -0.8423 2.9451 0
M  V30 46 H 0.0298 -1.3346 2.8691 0
M  V30 47 H -1.2039 -2.5219 2.6843 0
M  V30 48 H 2.7008 2.324 -2.5062 0
M  V30 49 H 4.5461 0.6367 -0.6479 0
M  V30 50 H 5.0318 2.0708 -1.6522 0
M  V30 51 H 4.2992 0.85 -3.738 0
M  V30 52 H 3.8174 -0.5796 -2.7251 0
M  V30 53 H 2.3415 0.3789 2.7888 0
M  V30 54 H -1.448 2.0279 1.5879 0
M  V30 55 H -1.745 2.9977 3.8431 0
M  V30 56 H 2.1496 1.9743 6.1219 0
M  V30 57 H -0.0362 2.6542 5.5812 0
M  V30 58 H 4.3377 1.5444 6.7873 0
M  V30 59 H 4.9694 -0.0942 6.5298 0
M  V30 60 H 3.5188 0.1479 7.5403 0
M  V30 END ATOM
M  V30 BEGIN BOND
M  V30 1 1 1 2
M  V30 2 2 2 3
M  V30 3 1 2 4
M  V30 4 1 3 5
M  V30 5 2 4 6
M  V30 6 1 5 7
M  V30 7 2 5 8
M  V30 8 1 8 9
M  V30 9 1 9 10
M  V30 10 1 10 11
M  V30 11 2 10 12
M  V30 12 1 11 13
M  V30 13 1 11 14
M  V30 14 1 12 15
M  V30 15 1 12 16
M  V30 16 2 13 17
M  V30 17 1 13 18
M  V30 18 2 15 19
M  V30 19 1 15 20
M  V30 20 1 16 21
M  V30 21 1 18 22
M  V30 22 1 20 23
M  V30 23 1 20 24
M  V30 24 1 21 25
M  V30 25 2 23 26
M  V30 26 1 24 27
M  V30 27 1 24 28
M  V30 28 2 25 29
M  V30 29 1 25 30
M  V30 30 1 29 31
M  V30 31 2 30 32
M  V30 32 1 31 33
M  V30 33 2 31 34
M  V30 34 1 33 35
M  V30 35 2 35 36
M  V30 36 1 35 37
M  V30 37 1 6 8
M  V30 38 2 16 18
M  V30 39 1 21 23
M  V30 40 1 27 28
M  V30 41 1 32 34
M  V30 42 1 3 38
M  V30 43 1 4 39
M  V30 44 1 6 40
M  V30 45 1 9 41
M  V30 46 1 14 42
M  V30 47 1 14 43
M  V30 48 1 14 44
M  V30 49 1 22 45
M  V30 50 1 22 46
M  V30 51 1 22 47
M  V30 52 1 24 48
M  V30 53 1 27 49
M  V30 54 1 27 50
M  V30 55 1 28 51
M  V30 56 1 28 52
M  V30 57 1 29 53
M  V30 58 1 30 54
M  V30 59 1 32 55
M  V30 60 1 33 56
M  V30 61 1 34 57
M  V30 62 1 37 58
M  V30 63 1 37 59
M  V30 64 1 37 60
M  V30 END BOND
M  V30 END CTAB
M  END
>  <NO.>
5611

>  <Name>
trametinib

>  <SMILES>
CC(=O)Nc1cccc(-n2c(=O)n(C3CC3)c(=O)c3c(Nc4ccc(I)cc4F)n(C)c(=O)c(C)c32)c1

>  <logBB>


>  <Class>
-1

>  <MW>
615.08

>  <nHBAcc>
5

>  <nHBDon>
2

>  <SLogP>
3.94

>  <TopoPSA>
107.13

>  <MMFF94 Energy>
21.941

$$$$
CC(=O)OC(C)C[N+](C)(C)C
Actelion Java MolfileCreator 2.0

  0  0  0  0  0  0              0 V3000
M  V30 BEGIN CTAB
M  V30 COUNTS 29 28 0 0 0
M  V30 BEGIN ATOM
M  V30 1 O 2.3851 -0.3843 0.3843 0
M  V30 2 C 2.0172 -0.7462 1.4933 0
M  V30 3 O 0.7197 -1.0052 1.8157 0
M  V30 4 C 2.9071 -0.9332 2.6819 0
M  V30 5 C -0.2216 -0.9494 0.7176 0 CFG=2
M  V30 6 C -0.5171 0.522 0.3245 0
M  V30 7 C -1.4812 -1.6594 1.2105 0
M  V30 8 N -0.6476 0.7917 -1.1977 0 CHG=1
M  V30 9 C 0.6941 0.5835 -1.905 0
M  V30 10 C -1.0453 2.2602 -1.3792 0
M  V30 11 C -1.7104 -0.077 -1.8487 0
M  V30 12 H 2.6565 -0.1982 3.4507 0
M  V30 13 H 2.7986 -1.949 3.0703 0
M  V30 14 H 3.9484 -0.788 2.3805 0
M  V30 15 H 0.1887 -1.5323 -0.1131 0
M  V30 16 H 0.2646 1.1999 0.6868 0
M  V30 17 H -1.4617 0.8537 0.7736 0
M  V30 18 H -1.8856 -1.1659 2.1016 0
M  V30 19 H -1.2447 -2.6877 1.5061 0
M  V30 20 H -2.2601 -1.6923 0.4448 0
M  V30 21 H 0.5732 0.8707 -2.9543 0
M  V30 22 H 1.441 1.222 -1.4259 0
M  V30 23 H 0.9695 -0.471 -1.8458 0
M  V30 24 H -0.2762 2.8871 -0.918 0
M  V30 25 H -1.1189 2.4715 -2.4502 0
M  V30 26 H -2.0126 2.4182 -0.8929 0
M  V30 27 H -1.8191 0.2314 -2.893 0
M  V30 28 H -1.3918 -1.1213 -1.8042 0
M  V30 29 H -2.6514 0.0669 -1.3101 0
M  V30 END ATOM
M  V30 BEGIN BOND
M  V30 1 2 1 2
M  V30 2 1 2 3
M  V30 3 1 2 4
M  V30 4 1 3 5
M  V30 5 1 5 6
M  V30 6 1 5 7
M  V30 7 1 6 8
M  V30 8 1 8 9
M  V30 9 1 8 10
M  V30 10 1 8 11
M  V30 11 1 4 12
M  V30 12 1 4 13
M  V30 13 1 4 14
M  V30 14 1 5 15
M  V30 15 1 6 16
M  V30 16 1 6 17
M  V30 17 1 7 18
M  V30 18 1 7 19
M  V30 19 1 7 20
M  V30 20 1 9 21
M  V30 21 1 9 22
M  V30 22 1 9 23
M  V30 23 1 10 24
M  V30 24 1 10 25
M  V30 25 1 10 26
M  V30 26 1 11 27
M  V30 27 1 11 28
M  V30 28 1 11 29
M  V30 END BOND
M  V30 BEGIN COLLECTION
M  V30 MDLV30/STERAC1 ATOMS=(1 5)
M  V30 END COLLECTION
M  V30 END CTAB
M  END
>  <NO.>
5612

>  <Name>
methacholine

>  <SMILES>
CC(=O)OC(C)C[N+](C)(C)C

>  <logBB>


>  <Class>
-1

>  <MW>
160.13

>  <nHBAcc>
2

>  <nHBDon>
0

>  <SLogP>
0.64

>  <TopoPSA>
26.3

>  <MMFF94 Energy>
25.714

$$$$
CC(=O)OC1(C(C)=O)CCC2C3C=C(Cl)C4=CC(=O)C5CC5C4(C)C3CCC21C
Actelion Java MolfileCreator 2.0

  0  0  0  0  0  0              0 V3000
M  V30 BEGIN CTAB
M  V30 COUNTS 58 62 0 0 0
M  V30 BEGIN ATOM
M  V30 1 Cl 3.6731 3.1828 1.9577 0
M  V30 2 C 2.3815 2.4809 1.0353 0
M  V30 3 C 1.303 3.3259 0.5204 0
M  V30 4 C 2.4312 1.1654 0.7835 0
M  V30 5 C 0.9182 4.4197 1.2078 0
M  V30 6 C 0.578 2.7972 -0.7503 0
M  V30 7 C 1.4242 0.4436 -0.0678 0
M  V30 8 C -0.2597 5.2402 0.8742 0
M  V30 9 C 0.1755 1.3066 -0.4128 0
M  V30 10 C -0.6732 3.6235 -1.1096 0
M  V30 11 C 1.5308 2.8553 -1.9745 0
M  V30 12 C 1.0447 -0.9387 0.5014 0
M  V30 13 O -0.5789 6.2086 1.5494 0
M  V30 14 C -1.0812 4.8074 -0.268 0
M  V30 15 C -0.6202 0.532 -1.4814 0
M  V30 16 C -0.565 5.0312 -1.6633 0
M  V30 17 C 0.0734 -1.7358 -0.4014 0
M  V30 18 C 0.3796 -0.9225 1.8874 0
M  V30 19 C -1.0773 -0.827 -0.9318 0
M  V30 20 C -0.4718 -2.8391 0.5816 0
M  V30 21 C 0.805 -2.3249 -1.6248 0
M  V30 22 C -0.6554 -2.051 1.8938 0
M  V30 23 O -1.7464 -3.3022 0.0729 0
M  V30 24 C 0.4722 -4.0781 0.6805 0
M  V30 25 C -2.4157 -4.2241 0.8178 0
M  V30 26 O 0.4562 -4.9585 -0.1883 0
M  V30 27 C 1.4085 -4.2153 1.8539 0
M  V30 28 O -2.0729 -4.6239 1.9213 0
M  V30 29 C -3.6526 -4.6653 0.0989 0
M  V30 30 H 3.27 0.5805 1.1558 0
M  V30 31 H 1.4149 4.7493 2.1149 0
M  V30 32 H 1.9566 0.2375 -1.0074 0
M  V30 33 H -0.4777 1.3692 0.47 0
M  V30 34 H -1.473 3.0412 -1.545 0
M  V30 35 H 1.0128 2.5448 -2.889 0
M  V30 36 H 1.9026 3.872 -2.1437 0
M  V30 37 H 2.4176 2.2249 -1.8672 0
M  V30 38 H 1.9763 -1.5142 0.5991 0
M  V30 39 H -2.1453 4.9706 -0.1241 0
M  V30 40 H -0.023 0.3971 -2.3893 0
M  V30 41 H -1.5225 1.0688 -1.7831 0
M  V30 42 H -1.2802 5.3362 -2.4202 0
M  V30 43 H 0.4017 5.5095 -1.7706 0
M  V30 44 H -0.11 0.027 2.1222 0
M  V30 45 H 1.1322 -1.0837 2.6679 0
M  V30 46 H -1.6363 -1.3524 -1.717 0
M  V30 47 H -1.8039 -0.6273 -0.1343 0
M  V30 48 H 1.7035 -2.8799 -1.3358 0
M  V30 49 H 0.1503 -3.0043 -2.1819 0
M  V30 50 H 1.1353 -1.5472 -2.32 0
M  V30 51 H -1.6629 -1.6194 1.949 0
M  V30 52 H -0.5494 -2.6645 2.793 0
M  V30 53 H 2.0149 -3.3184 1.9784 0
M  V30 54 H 0.8417 -4.4275 2.7627 0
M  V30 55 H 2.089 -5.0532 1.6732 0
M  V30 56 H -4.3306 -3.8174 -0.0255 0
M  V30 57 H -3.3852 -5.0907 -0.8715 0
M  V30 58 H -4.1583 -5.4361 0.6875 0
M  V30 END ATOM
M  V30 BEGIN BOND
M  V30 1 1 1 2
M  V30 2 1 2 3
M  V30 3 2 2 4
M  V30 4 2 3 5
M  V30 5 1 3 6
M  V30 6 1 4 7
M  V30 7 1 5 8
M  V30 8 1 6 9
M  V30 9 1 6 10
M  V30 10 1 6 11
M  V30 11 1 7 12
M  V30 12 2 8 13
M  V30 13 1 8 14
M  V30 14 1 9 15
M  V30 15 1 10 16
M  V30 16 1 12 17
M  V30 17 1 12 18
M  V30 18 1 15 19
M  V30 19 1 17 20
M  V30 20 1 17 21
M  V30 21 1 18 22
M  V30 22 1 20 23
M  V30 23 1 20 24
M  V30 24 1 23 25
M  V30 25 2 24 26
M  V30 26 1 24 27
M  V30 27 2 25 28
M  V30 28 1 25 29
M  V30 29 1 7 9
M  V30 30 1 10 14
M  V30 31 1 14 16
M  V30 32 1 17 19
M  V30 33 1 20 22
M  V30 34 1 4 30
M  V30 35 1 5 31
M  V30 36 1 7 32
M  V30 37 1 9 33
M  V30 38 1 10 34
M  V30 39 1 11 35
M  V30 40 1 11 36
M  V30 41 1 11 37
M  V30 42 1 12 38
M  V30 43 1 14 39
M  V30 44 1 15 40
M  V30 45 1 15 41
M  V30 46 1 16 42
M  V30 47 1 16 43
M  V30 48 1 18 44
M  V30 49 1 18 45
M  V30 50 1 19 46
M  V30 51 1 19 47
M  V30 52 1 21 48
M  V30 53 1 21 49
M  V30 54 1 21 50
M  V30 55 1 22 51
M  V30 56 1 22 52
M  V30 57 1 27 53
M  V30 58 1 27 54
M  V30 59 1 27 55
M  V30 60 1 29 56
M  V30 61 1 29 57
M  V30 62 1 29 58
M  V30 END BOND
M  V30 END CTAB
M  END
>  <NO.>
5613

>  <Name>
cyproterone

>  <SMILES>
CC(=O)OC1(C(C)=O)CCC2C3C=C(Cl)C4=CC(=O)C5CC5C4(C)C3CCC21C

>  <logBB>


>  <Class>
-1

>  <MW>
416.18

>  <nHBAcc>
4

>  <nHBDon>
0

>  <SLogP>
4.61

>  <TopoPSA>
60.44

>  <MMFF94 Energy>
103.77

$$$$
CC(=O)OC1(C(C)=O)CCC2C3C=CC4=CC(=O)CCC4(C)C3CCC21C
Actelion Java MolfileCreator 2.0

  0  0  0  0  0  0              0 V3000
M  V30 BEGIN CTAB
M  V30 COUNTS 57 60 0 0 0
M  V30 BEGIN ATOM
M  V30 1 O -2.7401 -5.4859 2.9821 0
M  V30 2 C -2.5802 -4.4694 2.3093 0
M  V30 3 C -1.8716 -3.3122 2.9071 0
M  V30 4 C -3.1339 -4.3448 0.9104 0
M  V30 5 C -1.7251 -2.1516 2.2451 0
M  V30 6 C -2.3613 -3.3054 0.1045 0
M  V30 7 C -1.0556 -1.0351 2.889 0
M  V30 8 C -2.2449 -1.9316 0.823 0
M  V30 9 C -0.7841 0.1174 2.261 0
M  V30 10 C -1.2973 -0.9489 0.0223 0
M  V30 11 C -3.6651 -1.3068 0.9115 0
M  V30 12 C -1.0913 0.3828 0.8045 0
M  V30 13 C 0.0611 -1.5795 -0.3655 0
M  V30 14 C -0.0493 1.3292 0.1639 0
M  V30 15 C 0.9808 -0.608 -1.1031 0
M  V30 16 C 1.2759 0.69 -0.3189 0
M  V30 17 C -0.5999 2.0374 -1.0857 0
M  V30 18 C 1.8515 1.8304 -1.246 0
M  V30 19 C 2.2108 0.3809 0.8694 0
M  V30 20 C 0.5979 2.3303 -1.9946 0
M  V30 21 O 2.3313 2.8926 -0.3771 0
M  V30 22 C 3.0285 1.3089 -2.1162 0
M  V30 23 C 2.957 3.9516 -0.9585 0
M  V30 24 O 4.1198 1.0274 -1.6093 0
M  V30 25 C 2.8299 1.1439 -3.6007 0
M  V30 26 O 3.0654 4.1342 -2.1626 0
M  V30 27 C 3.4749 4.8826 0.0933 0
M  V30 28 H -1.5057 -3.4687 3.916 0
M  V30 29 H -3.0384 -5.3184 0.4164 0
M  V30 30 H -4.1991 -4.1041 0.9733 0
M  V30 31 H -2.8266 -3.1826 -0.881 0
M  V30 32 H -1.3668 -3.7325 -0.0671 0
M  V30 33 H -0.7796 -1.1375 3.9373 0
M  V30 34 H -0.3265 0.921 2.835 0
M  V30 35 H -1.8056 -0.7067 -0.9217 0
M  V30 36 H -4.0775 -1.1382 -0.0896 0
M  V30 37 H -4.3671 -1.949 1.4539 0
M  V30 38 H -3.6727 -0.3476 1.4385 0
M  V30 39 H -2.0388 0.9384 0.8033 0
M  V30 40 H 0.5715 -1.9876 0.5129 0
M  V30 41 H -0.1019 -2.4215 -1.0467 0
M  V30 42 H 0.1839 2.1241 0.8886 0
M  V30 43 H 1.9192 -1.1257 -1.3382 0
M  V30 44 H 0.5134 -0.3823 -2.0689 0
M  V30 45 H -1.115 2.9631 -0.8044 0
M  V30 46 H -1.3277 1.4234 -1.6268 0
M  V30 47 H 1.8095 -0.3986 1.5216 0
M  V30 48 H 3.1871 0.0262 0.5256 0
M  V30 49 H 2.3794 1.2623 1.4974 0
M  V30 50 H 0.438 1.8129 -2.9451 0
M  V30 51 H 0.6308 3.401 -2.2187 0
M  V30 52 H 2.0705 0.3847 -3.7976 0
M  V30 53 H 2.5493 2.0984 -4.0515 0
M  V30 54 H 3.7686 0.8157 -4.0572 0
M  V30 55 H 2.6399 5.3017 0.6601 0
M  V30 56 H 4.1607 4.3485 0.7559 0
M  V30 57 H 4.0221 5.7004 -0.384 0
M  V30 END ATOM
M  V30 BEGIN BOND
M  V30 1 2 1 2
M  V30 2 1 2 3
M  V30 3 1 2 4
M  V30 4 2 3 5
M  V30 5 1 4 6
M  V30 6 1 5 7
M  V30 7 1 5 8
M  V30 8 2 7 9
M  V30 9 1 8 10
M  V30 10 1 8 11
M  V30 11 1 9 12
M  V30 12 1 10 13
M  V30 13 1 12 14
M  V30 14 1 13 15
M  V30 15 1 14 16
M  V30 16 1 14 17
M  V30 17 1 16 18
M  V30 18 1 16 19
M  V30 19 1 17 20
M  V30 20 1 18 21
M  V30 21 1 18 22
M  V30 22 1 21 23
M  V30 23 2 22 24
M  V30 24 1 22 25
M  V30 25 2 23 26
M  V30 26 1 23 27
M  V30 27 1 6 8
M  V30 28 1 10 12
M  V30 29 1 15 16
M  V30 30 1 18 20
M  V30 31 1 3 28
M  V30 32 1 4 29
M  V30 33 1 4 30
M  V30 34 1 6 31
M  V30 35 1 6 32
M  V30 36 1 7 33
M  V30 37 1 9 34
M  V30 38 1 10 35
M  V30 39 1 11 36
M  V30 40 1 11 37
M  V30 41 1 11 38
M  V30 42 1 12 39
M  V30 43 1 13 40
M  V30 44 1 13 41
M  V30 45 1 14 42
M  V30 46 1 15 43
M  V30 47 1 15 44
M  V30 48 1 17 45
M  V30 49 1 17 46
M  V30 50 1 19 47
M  V30 51 1 19 48
M  V30 52 1 19 49
M  V30 53 1 20 50
M  V30 54 1 20 51
M  V30 55 1 25 52
M  V30 56 1 25 53
M  V30 57 1 25 54
M  V30 58 1 27 55
M  V30 59 1 27 56
M  V30 60 1 27 57
M  V30 END BOND
M  V30 END CTAB
M  END
>  <NO.>
5614

>  <Name>
3,20-dioxopregna-4,6-dien-17-yl acetate

>  <SMILES>
CC(=O)OC1(C(C)=O)CCC2C3C=CC4=CC(=O)CCC4(C)C3CCC21C

>  <logBB>


>  <Class>
-1

>  <MW>
370.21

>  <nHBAcc>
4

>  <nHBDon>
0

>  <SLogP>
4.19

>  <TopoPSA>
60.44

>  <MMFF94 Energy>
73.188

$$$$
CC(=O)OC1(C(C)=O)CCC2C3CC(C)C4=CC(=O)CCC4(C)C3CCC21C
Actelion Java MolfileCreator 2.0

  0  0  0  0  0  0              0 V3000
M  V30 BEGIN CTAB
M  V30 COUNTS 62 65 0 0 0
M  V30 BEGIN ATOM
M  V30 1 O -1.3658 5.3913 2.6526 0
M  V30 2 C -1.4647 4.4146 1.9149 0
M  V30 3 C -0.7222 4.3869 0.6317 0
M  V30 4 C -2.2288 3.1792 2.3063 0
M  V30 5 C -0.8514 3.3718 -0.2446 0
M  V30 6 C -2.8831 2.5887 1.0719 0
M  V30 7 C -1.8786 2.2347 -0.0654 0
M  V30 8 C 0.1049 3.177 -1.4171 0
M  V30 9 C -1.0422 0.9358 0.232 0
M  V30 10 C -2.757 2.0793 -1.3351 0
M  V30 11 C 0.9165 1.8982 -1.1397 0
M  V30 12 C 1.0651 4.3364 -1.7133 0
M  V30 13 C 0.026 0.6665 -0.8705 0
M  V30 14 C -1.8951 -0.3296 0.4397 0
M  V30 15 C 0.8792 -0.5916 -0.5918 0
M  V30 16 C -1.0359 -1.5479 0.7855 0
M  V30 17 C 0.0578 -1.8653 -0.266 0
M  V30 18 C 1.8742 -0.4713 0.5717 0
M  V30 19 C 1.1753 -2.8211 0.3005 0
M  V30 20 C -0.602 -2.4176 -1.5482 0
M  V30 21 C 2.0153 -1.8718 1.1803 0
M  V30 22 O 1.9855 -3.2571 -0.8239 0
M  V30 23 C 0.5498 -4.0593 0.9975 0
M  V30 24 C 2.9661 -4.1683 -0.5824 0
M  V30 25 O -0.0445 -4.9242 0.3451 0
M  V30 26 C 0.6675 -4.199 2.4933 0
M  V30 27 O 3.285 -4.588 0.5206 0
M  V30 28 C 3.6215 -4.5691 -1.8673 0
M  V30 29 H -0.0023 5.1895 0.5235 0
M  V30 30 H -1.5481 2.4735 2.7916 0
M  V30 31 H -3.0034 3.4625 3.0275 0
M  V30 32 H -3.6011 3.333 0.6949 0
M  V30 33 H -3.4901 1.7237 1.3561 0
M  V30 34 H -0.4826 3.0394 -2.332 0
M  V30 35 H -0.5047 1.1113 1.1742 0
M  V30 36 H -2.2112 1.6969 -2.2008 0
M  V30 37 H -3.19 3.0429 -1.6309 0
M  V30 38 H -3.5918 1.3917 -1.157 0
M  V30 39 H 1.5681 1.6871 -1.9974 0
M  V30 40 H 1.5783 2.0747 -0.2817 0
M  V30 41 H 0.5148 5.2638 -1.9062 0
M  V30 42 H 1.662 4.1177 -2.6058 0
M  V30 43 H 1.7632 4.5117 -0.8874 0
M  V30 44 H -0.5074 0.463 -1.8076 0
M  V30 45 H -2.5994 -0.1848 1.2649 0
M  V30 46 H -2.4966 -0.5429 -0.4496 0
M  V30 47 H 1.4742 -0.7807 -1.4982 0
M  V30 48 H -1.6958 -2.4153 0.9126 0
M  V30 49 H -0.5873 -1.3652 1.769 0
M  V30 50 H 2.8426 -0.1066 0.2105 0
M  V30 51 H 1.5387 0.228 1.3441 0
M  V30 52 H -1.3114 -1.7071 -1.983 0
M  V30 53 H -1.1556 -3.3395 -1.3454 0
M  V30 54 H 0.1353 -2.6368 -2.3275 0
M  V30 55 H 3.0736 -2.1472 1.2207 0
M  V30 56 H 1.6592 -1.8319 2.2142 0
M  V30 57 H 1.7178 -4.1859 2.7926 0
M  V30 58 H 0.1142 -3.3995 2.9902 0
M  V30 59 H 0.2386 -5.157 2.8025 0
M  V30 60 H 2.8758 -4.9843 -2.55 0
M  V30 61 H 4.1154 -3.7039 -2.3163 0
M  V30 62 H 4.3727 -5.3382 -1.6663 0
M  V30 END ATOM
M  V30 BEGIN BOND
M  V30 1 2 1 2
M  V30 2 1 2 3
M  V30 3 1 2 4
M  V30 4 2 3 5
M  V30 5 1 4 6
M  V30 6 1 5 7
M  V30 7 1 5 8
M  V30 8 1 7 9
M  V30 9 1 7 10
M  V30 10 1 8 11
M  V30 11 1 8 12
M  V30 12 1 9 13
M  V30 13 1 9 14
M  V30 14 1 13 15
M  V30 15 1 14 16
M  V30 16 1 15 17
M  V30 17 1 15 18
M  V30 18 1 17 19
M  V30 19 1 17 20
M  V30 20 1 18 21
M  V30 21 1 19 22
M  V30 22 1 19 23
M  V30 23 1 22 24
M  V30 24 2 23 25
M  V30 25 1 23 26
M  V30 26 2 24 27
M  V30 27 1 24 28
M  V30 28 1 6 7
M  V30 29 1 11 13
M  V30 30 1 16 17
M  V30 31 1 19 21
M  V30 32 1 3 29
M  V30 33 1 4 30
M  V30 34 1 4 31
M  V30 35 1 6 32
M  V30 36 1 6 33
M  V30 37 1 8 34
M  V30 38 1 9 35
M  V30 39 1 10 36
M  V30 40 1 10 37
M  V30 41 1 10 38
M  V30 42 1 11 39
M  V30 43 1 11 40
M  V30 44 1 12 41
M  V30 45 1 12 42
M  V30 46 1 12 43
M  V30 47 1 13 44
M  V30 48 1 14 45
M  V30 49 1 14 46
M  V30 50 1 15 47
M  V30 51 1 16 48
M  V30 52 1 16 49
M  V30 53 1 18 50
M  V30 54 1 18 51
M  V30 55 1 20 52
M  V30 56 1 20 53
M  V30 57 1 20 54
M  V30 58 1 21 55
M  V30 59 1 21 56
M  V30 60 1 26 57
M  V30 61 1 26 58
M  V30 62 1 26 59
M  V30 63 1 28 60
M  V30 64 1 28 61
M  V30 65 1 28 62
M  V30 END BOND
M  V30 END CTAB
M  END
>  <NO.>
5615

>  <Name>
medroxyprogesterone

>  <SMILES>
CC(=O)OC1(C(C)=O)CCC2C3CC(C)C4=CC(=O)CCC4(C)C3CCC21C

>  <logBB>


>  <Class>
-1

>  <MW>
386.25

>  <nHBAcc>
4

>  <nHBDon>
0

>  <SLogP>
4.66

>  <TopoPSA>
60.44

>  <MMFF94 Energy>
86.013

$$$$
CC(=O)OCC(=O)NCCCOc1cccc(CN2CCCCC2)c1
Actelion Java MolfileCreator 2.0

  0  0  0  0  0  0              0 V3000
M  V30 BEGIN CTAB
M  V30 COUNTS 53 54 0 0 0
M  V30 BEGIN ATOM
M  V30 1 O -2.5975 -1.6524 5.2793 0
M  V30 2 C -3.3756 -1.178 4.4567 0
M  V30 3 N -3.289 0.117 3.9916 0
M  V30 4 C -4.5361 -1.9838 3.8744 0
M  V30 5 C -2.2595 1.0347 4.4299 0
M  V30 6 O -5.2202 -1.2584 2.8465 0
M  V30 7 C -0.9436 0.8485 3.683 0
M  V30 8 C -6.2592 -1.9473 2.3003 0
M  V30 9 C -1.0586 1.1983 2.2016 0
M  V30 10 O -6.6169 -3.0682 2.6295 0
M  V30 11 C -6.9117 -1.1285 1.229 0
M  V30 12 O 0.2374 1.0691 1.6181 0
M  V30 13 C 0.3475 1.3212 0.2783 0
M  V30 14 C 1.6288 1.1332 -0.2474 0
M  V30 15 C -0.6808 1.7388 -0.566 0
M  V30 16 C 1.8969 1.3535 -1.608 0
M  V30 17 C -0.4279 1.9632 -1.9222 0
M  V30 18 C 0.8528 1.773 -2.4411 0
M  V30 19 C 3.2948 1.1554 -2.1563 0
M  V30 20 N 3.8046 -0.2132 -1.9763 0
M  V30 21 C 5.2499 -0.2956 -2.2303 0
M  V30 22 C 3.0804 -1.219 -2.7685 0
M  V30 23 C 5.6287 -0.1999 -3.7104 0
M  V30 24 C 3.3756 -1.1636 -4.2698 0
M  V30 25 C 4.8746 -1.2321 -4.542 0
M  V30 26 H -3.9887 0.4183 3.322 0
M  V30 27 H -4.1201 -2.9087 3.4593 0
M  V30 28 H -5.2275 -2.2053 4.6952 0
M  V30 29 H -2.0949 0.8844 5.5028 0
M  V30 30 H -2.6452 2.0499 4.2894 0
M  V30 31 H -0.5798 -0.1812 3.7862 0
M  V30 32 H -0.1758 1.4849 4.1406 0
M  V30 33 H -1.7587 0.5114 1.7117 0
M  V30 34 H -1.4125 2.2312 2.098 0
M  V30 35 H -7.3084 -0.2051 1.6583 0
M  V30 36 H -6.1887 -0.907 0.4399 0
M  V30 37 H -7.7399 -1.695 0.7937 0
M  V30 38 H 2.4304 0.7999 0.4095 0
M  V30 39 H -1.6895 1.9 -0.2031 0
M  V30 40 H -1.2329 2.2879 -2.5764 0
M  V30 41 H 1.0302 1.9511 -3.499 0
M  V30 42 H 3.9363 1.862 -1.612 0
M  V30 43 H 3.3334 1.467 -3.2068 0
M  V30 44 H 5.6149 -1.2517 -1.8323 0
M  V30 45 H 5.7823 0.4761 -1.6608 0
M  V30 46 H 1.9991 -1.1513 -2.6031 0
M  V30 47 H 3.3612 -2.2121 -2.3928 0
M  V30 48 H 6.7075 -0.3568 -3.8236 0
M  V30 49 H 5.4159 0.8063 -4.0905 0
M  V30 50 H 2.9632 -0.2451 -4.7034 0
M  V30 51 H 2.8753 -1.9993 -4.7723 0
M  V30 52 H 5.0711 -1.0731 -5.6079 0
M  V30 53 H 5.2424 -2.2355 -4.2945 0
M  V30 END ATOM
M  V30 BEGIN BOND
M  V30 1 2 1 2
M  V30 2 1 2 3
M  V30 3 1 2 4
M  V30 4 1 3 5
M  V30 5 1 4 6
M  V30 6 1 5 7
M  V30 7 1 6 8
M  V30 8 1 7 9
M  V30 9 2 8 10
M  V30 10 1 8 11
M  V30 11 1 9 12
M  V30 12 1 12 13
M  V30 13 2 13 14
M  V30 14 1 13 15
M  V30 15 1 14 16
M  V30 16 2 15 17
M  V30 17 2 16 18
M  V30 18 1 16 19
M  V30 19 1 19 20
M  V30 20 1 20 21
M  V30 21 1 20 22
M  V30 22 1 21 23
M  V30 23 1 22 24
M  V30 24 1 23 25
M  V30 25 1 17 18
M  V30 26 1 24 25
M  V30 27 1 3 26
M  V30 28 1 4 27
M  V30 29 1 4 28
M  V30 30 1 5 29
M  V30 31 1 5 30
M  V30 32 1 7 31
M  V30 33 1 7 32
M  V30 34 1 9 33
M  V30 35 1 9 34
M  V30 36 1 11 35
M  V30 37 1 11 36
M  V30 38 1 11 37
M  V30 39 1 14 38
M  V30 40 1 15 39
M  V30 41 1 17 40
M  V30 42 1 18 41
M  V30 43 1 19 42
M  V30 44 1 19 43
M  V30 45 1 21 44
M  V30 46 1 21 45
M  V30 47 1 22 46
M  V30 48 1 22 47
M  V30 49 1 23 48
M  V30 50 1 23 49
M  V30 51 1 24 50
M  V30 52 1 24 51
M  V30 53 1 25 52
M  V30 54 1 25 53
M  V30 END BOND
M  V30 END CTAB
M  END
>  <NO.>
5620

>  <Name>
roxatidine acetate

>  <SMILES>
CC(=O)OCC(=O)NCCCOc1cccc(CN2CCCCC2)c1

>  <logBB>


>  <Class>
-1

>  <MW>
348.2

>  <nHBAcc>
5

>  <nHBDon>
1

>  <SLogP>
2.12

>  <TopoPSA>
67.87

>  <MMFF94 Energy>
10.529

$$$$
CC(=O)Oc1cc2c(s1)CCN(C(C(=O)C1CC1)c1ccccc1F)C2
Actelion Java MolfileCreator 2.0

  0  0  0  0  0  0              0 V3000
M  V30 BEGIN CTAB
M  V30 COUNTS 46 49 0 0 0
M  V30 BEGIN ATOM
M  V30 1 S 3.1817 2.0387 2.4468 0
M  V30 2 C 3.845 2.1773 0.8613 0
M  V30 3 C 1.9017 1.0737 1.907 0
M  V30 4 O 4.9504 2.8982 0.7289 0
M  V30 5 C 3.0598 1.4863 -0.0474 0
M  V30 6 C 1.9303 0.8436 0.551 0
M  V30 7 C 0.8282 0.5561 2.8026 0
M  V30 8 C 5.6308 2.9774 -0.4332 0
M  V30 9 C 0.903 -0.0017 -0.1494 0
M  V30 10 C 0.0237 -0.5345 2.0596 0
M  V30 11 O 5.3897 2.408 -1.4897 0
M  V30 12 C 6.8007 3.9008 -0.254 0
M  V30 13 N -0.3303 -0.1204 0.6753 0
M  V30 14 C -1.2871 -1.0835 0.0403 0 CFG=2
M  V30 15 C -1.7056 -0.6746 -1.3641 0
M  V30 16 C -2.5829 -1.2483 0.8774 0
M  V30 17 C -1.648 -1.6003 -2.4094 0
M  V30 18 C -2.1968 0.6123 -1.6397 0
M  V30 19 O -3.1124 -0.3582 1.5384 0
M  V30 20 C -3.2092 -2.6109 0.8148 0
M  V30 21 F -1.2102 -2.8453 -2.1727 0
M  V30 22 C -2.0438 -1.2633 -3.7005 0
M  V30 23 C -2.5953 0.9571 -2.933 0
M  V30 24 C -3.9236 -3.1679 2.0254 0
M  V30 25 C -4.7151 -2.7459 0.8231 0
M  V30 26 C -2.517 0.0207 -3.9638 0
M  V30 27 H 3.2731 1.4354 -1.108 0
M  V30 28 H 0.1594 1.3807 3.0787 0
M  V30 29 H 1.2483 0.1368 3.7236 0
M  V30 30 H 0.6784 0.4717 -1.1114 0
M  V30 31 H 1.3393 -0.9896 -0.3462 0
M  V30 32 H -0.8658 -0.7326 2.6658 0
M  V30 33 H 0.6004 -1.4696 2.0331 0
M  V30 34 H 6.4487 4.8948 0.0338 0
M  V30 35 H 7.4787 3.4978 0.5025 0
M  V30 36 H 7.3442 3.9864 -1.1994 0
M  V30 37 H -0.7898 -2.0623 0.0122 0
M  V30 38 H -2.2675 1.3509 -0.8409 0
M  V30 39 H -2.6749 -3.3331 0.204 0
M  V30 40 H -1.984 -2.0034 -4.4922 0
M  V30 41 H -2.9694 1.9587 -3.1336 0
M  V30 42 H -3.9946 -2.5506 2.9151 0
M  V30 43 H -3.8329 -4.2285 2.2279 0
M  V30 44 H -5.1596 -3.5184 0.2066 0
M  V30 45 H -5.3142 -1.8445 0.9036 0
M  V30 46 H -2.8285 0.2921 -4.9693 0
M  V30 END ATOM
M  V30 BEGIN BOND
M  V30 1 1 1 2
M  V30 2 1 1 3
M  V30 3 1 2 4
M  V30 4 2 2 5
M  V30 5 2 3 6
M  V30 6 1 3 7
M  V30 7 1 4 8
M  V30 8 1 6 9
M  V30 9 1 7 10
M  V30 10 2 8 11
M  V30 11 1 8 12
M  V30 12 1 9 13
M  V30 13 1 13 14
M  V30 14 1 14 15
M  V30 15 1 14 16
M  V30 16 2 15 17
M  V30 17 1 15 18
M  V30 18 2 16 19
M  V30 19 1 16 20
M  V30 20 1 17 21
M  V30 21 1 17 22
M  V30 22 2 18 23
M  V30 23 1 20 24
M  V30 24 1 20 25
M  V30 25 2 22 26
M  V30 26 1 5 6
M  V30 27 1 10 13
M  V30 28 1 23 26
M  V30 29 1 24 25
M  V30 30 1 5 27
M  V30 31 1 7 28
M  V30 32 1 7 29
M  V30 33 1 9 30
M  V30 34 1 9 31
M  V30 35 1 10 32
M  V30 36 1 10 33
M  V30 37 1 12 34
M  V30 38 1 12 35
M  V30 39 1 12 36
M  V30 40 1 14 37
M  V30 41 1 18 38
M  V30 42 1 20 39
M  V30 43 1 22 40
M  V30 44 1 23 41
M  V30 45 1 24 42
M  V30 46 1 24 43
M  V30 47 1 25 44
M  V30 48 1 25 45
M  V30 49 1 26 46
M  V30 END BOND
M  V30 BEGIN COLLECTION
M  V30 MDLV30/STERAC1 ATOMS=(1 14)
M  V30 END COLLECTION
M  V30 END CTAB
M  END
>  <NO.>
5621

>  <Name>
prasugrel

>  <SMILES>
CC(=O)Oc1cc2c(s1)CCN(C(C(=O)C1CC1)c1ccccc1F)C2

>  <logBB>


>  <Class>
-1

>  <MW>
373.11

>  <nHBAcc>
5

>  <nHBDon>
0

>  <SLogP>
3.89

>  <TopoPSA>
46.61

>  <MMFF94 Energy>
119.11

$$$$
CC(C)(C)NC(=O)NC(C(=O)N1CC2C(C1C(=O)NC(CC1CCC1)C(=O)C(N)=O)C2(C)C)C(C)(C)C
Actelion Java MolfileCreator 2.0

  0  0  0  0  0  0              0 V3000
M  V30 BEGIN CTAB
M  V30 COUNTS 82 84 0 0 0
M  V30 BEGIN ATOM
M  V30 1 O -1.1832 4.3437 0.4731 0
M  V30 2 C -0.0022 4.2094 0.7611 0
M  V30 3 N 0.6621 4.9325 1.7136 0
M  V30 4 N 0.8253 3.309 0.1488 0
M  V30 5 C 0.0601 5.9685 2.5635 0
M  V30 6 C 0.3287 2.3812 -0.8677 0
M  V30 7 C -0.4388 7.148 1.7146 0
M  V30 8 C -1.0936 5.3947 3.402 0
M  V30 9 C 1.145 6.4847 3.5265 0
M  V30 10 C 0.0332 1.067 -0.1015 0
M  V30 11 C 1.3288 2.2001 -2.052 0
M  V30 12 O 0.8629 0.6 0.6885 0
M  V30 13 N -1.1705 0.4351 -0.3258 0
M  V30 14 C 0.719 1.2709 -3.1201 0
M  V30 15 C 1.5844 3.5718 -2.7151 0
M  V30 16 C 2.6856 1.616 -1.6157 0
M  V30 17 C -1.4362 -0.8481 0.3182 0
M  V30 18 C -2.3523 1.0456 -0.9191 0
M  V30 19 C -0.5465 -2.0081 -0.1886 0
M  V30 20 C -2.9063 -1.0972 0.0804 0
M  V30 21 C -3.4688 0.0881 -0.6432 0
M  V30 22 O 0.0697 -1.9972 -1.2523 0
M  V30 23 N -0.5305 -3.1031 0.6544 0
M  V30 24 C -3.5909 -1.2877 -1.2727 0
M  V30 25 C 0.2601 -4.2951 0.3632 0
M  V30 26 C -2.8022 -1.6165 -2.5147 0
M  V30 27 C -4.9528 -1.9405 -1.2511 0
M  V30 28 C -0.2774 -5.5875 0.9962 0
M  V30 29 C 1.715 -4.0673 0.8151 0
M  V30 30 O 0.1431 -6.7116 0.7207 0
M  V30 31 C -1.3509 -5.4887 2.0913 0
M  V30 32 C 2.6975 -4.8807 -0.0219 0
M  V30 33 O -1.7364 -4.4212 2.5411 0
M  V30 34 N -1.8266 -6.6977 2.5215 0
M  V30 35 C 2.9359 -4.4178 -1.4859 0
M  V30 36 C 4.1994 -4.5684 0.221 0
M  V30 37 C 4.4171 -4.7973 -1.2882 0
M  V30 38 H 1.6628 4.8144 1.7504 0
M  V30 39 H 1.6549 3.0221 0.6477 0
M  V30 40 H -0.5989 2.7955 -1.2713 0
M  V30 41 H -1.2526 6.8532 1.0441 0
M  V30 42 H -0.8147 7.9601 2.3473 0
M  V30 43 H 0.3669 7.5522 1.091 0
M  V30 44 H -1.4808 6.1414 4.1048 0
M  V30 45 H -1.9331 5.0709 2.7786 0
M  V30 46 H -0.7632 4.5255 3.9824 0
M  V30 47 H 1.9929 6.9087 2.9757 0
M  V30 48 H 1.5366 5.6732 4.1511 0
M  V30 49 H 0.754 7.2629 4.1916 0
M  V30 50 H 1.3795 1.1821 -3.9904 0
M  V30 51 H 0.5579 0.2607 -2.7323 0
M  V30 52 H -0.2435 1.6542 -3.4761 0
M  V30 53 H 2.2243 3.4712 -3.5994 0
M  V30 54 H 2.0838 4.2652 -2.0296 0
M  V30 55 H 0.6452 4.0357 -3.0376 0
M  V30 56 H 2.5833 0.5993 -1.2232 0
M  V30 57 H 3.1654 2.2316 -0.848 0
M  V30 58 H 3.3773 1.5606 -2.4647 0
M  V30 59 H -1.2544 -0.7223 1.3937 0
M  V30 60 H -2.5378 2.0075 -0.4309 0
M  V30 61 H -2.1936 1.2101 -1.988 0
M  V30 62 H -3.409 -1.4565 0.9699 0
M  V30 63 H -4.3541 0.5735 -0.2539 0
M  V30 64 H -1.0669 -3.0696 1.5225 0
M  V30 65 H 0.2111 -4.4478 -0.7218 0
M  V30 66 H -1.8867 -1.0311 -2.6207 0
M  V30 67 H -3.4075 -1.4214 -3.4068 0
M  V30 68 H -2.5301 -2.6771 -2.5173 0
M  V30 69 H -5.5476 -1.6107 -2.1092 0
M  V30 70 H -5.5123 -1.6935 -0.3421 0
M  V30 71 H -4.852 -3.0298 -1.2973 0
M  V30 72 H 1.8261 -4.3351 1.8737 0
M  V30 73 H 1.9755 -3.0035 0.7393 0
M  V30 74 H 2.5047 -5.9601 0.0442 0
M  V30 75 H -1.4516 -7.5555 2.1287 0
M  V30 76 H -2.5289 -6.7381 3.2462 0
M  V30 77 H 2.7774 -3.3463 -1.6566 0
M  V30 78 H 2.4023 -4.9826 -2.2548 0
M  V30 79 H 4.4073 -3.5405 0.5413 0
M  V30 80 H 4.7259 -5.2594 0.8846 0
M  V30 81 H 5.1454 -4.1402 -1.7695 0
M  V30 82 H 4.6447 -5.8373 -1.5486 0
M  V30 END ATOM
M  V30 BEGIN BOND
M  V30 1 2 1 2
M  V30 2 1 2 3
M  V30 3 1 2 4
M  V30 4 1 3 5
M  V30 5 1 4 6
M  V30 6 1 5 7
M  V30 7 1 5 8
M  V30 8 1 5 9
M  V30 9 1 6 10
M  V30 10 1 6 11
M  V30 11 2 10 12
M  V30 12 1 10 13
M  V30 13 1 11 14
M  V30 14 1 11 15
M  V30 15 1 11 16
M  V30 16 1 13 17
M  V30 17 1 13 18
M  V30 18 1 17 19
M  V30 19 1 17 20
M  V30 20 1 18 21
M  V30 21 2 19 22
M  V30 22 1 19 23
M  V30 23 1 20 24
M  V30 24 1 23 25
M  V30 25 1 24 26
M  V30 26 1 24 27
M  V30 27 1 25 28
M  V30 28 1 25 29
M  V30 29 2 28 30
M  V30 30 1 28 31
M  V30 31 1 29 32
M  V30 32 2 31 33
M  V30 33 1 31 34
M  V30 34 1 32 35
M  V30 35 1 32 36
M  V30 36 1 35 37
M  V30 37 1 20 21
M  V30 38 1 21 24
M  V30 39 1 36 37
M  V30 40 1 3 38
M  V30 41 1 4 39
M  V30 42 1 6 40
M  V30 43 1 7 41
M  V30 44 1 7 42
M  V30 45 1 7 43
M  V30 46 1 8 44
M  V30 47 1 8 45
M  V30 48 1 8 46
M  V30 49 1 9 47
M  V30 50 1 9 48
M  V30 51 1 9 49
M  V30 52 1 14 50
M  V30 53 1 14 51
M  V30 54 1 14 52
M  V30 55 1 15 53
M  V30 56 1 15 54
M  V30 57 1 15 55
M  V30 58 1 16 56
M  V30 59 1 16 57
M  V30 60 1 16 58
M  V30 61 1 17 59
M  V30 62 1 18 60
M  V30 63 1 18 61
M  V30 64 1 20 62
M  V30 65 1 21 63
M  V30 66 1 23 64
M  V30 67 1 25 65
M  V30 68 1 26 66
M  V30 69 1 26 67
M  V30 70 1 26 68
M  V30 71 1 27 69
M  V30 72 1 27 70
M  V30 73 1 27 71
M  V30 74 1 29 72
M  V30 75 1 29 73
M  V30 76 1 32 74
M  V30 77 1 34 75
M  V30 78 1 34 76
M  V30 79 1 35 77
M  V30 80 1 35 78
M  V30 81 1 36 79
M  V30 82 1 36 80
M  V30 83 1 37 81
M  V30 84 1 37 82
M  V30 END BOND
M  V30 END CTAB
M  END
>  <NO.>
5622

>  <Name>
394730-60-0

>  <SMILES>
CC(C)(C)NC(=O)NC(C(=O)N1CC2C(C1C(=O)NC(CC1CCC1)C(=O)C(N)=O)C2(C)C)C(C)(C)C

>  <logBB>


>  <Class>
-1

>  <MW>
519.34

>  <nHBAcc>
5

>  <nHBDon>
4

>  <SLogP>
1.71

>  <TopoPSA>
150.7

>  <MMFF94 Energy>
50.956

$$$$
CC(C)C(=O)c1c(C(C)C)nn2ccccc12
Actelion Java MolfileCreator 2.0

  0  0  0  0  0  0              0 V3000
M  V30 BEGIN CTAB
M  V30 COUNTS 35 36 0 0 0
M  V30 BEGIN ATOM
M  V30 1 O -1.7343 -1.6554 0.0787 0
M  V30 2 C -0.7294 -1.1586 0.5903 0
M  V30 3 C -0.1459 0.0593 0.0367 0
M  V30 4 C -0.0627 -1.846 1.7788 0
M  V30 5 C 0.4705 1.1112 0.6942 0
M  V30 6 C -0.1257 0.4455 -1.3359 0
M  V30 7 C -1.0088 -1.8417 2.9751 0
M  V30 8 C 0.318 -3.2736 1.3899 0
M  V30 9 N 0.8497 2.0351 -0.287 0
M  V30 10 C 0.7574 1.4533 2.0529 0
M  V30 11 N 0.482 1.6225 -1.5191 0
M  V30 12 C -0.6832 -0.3043 -2.5212 0
M  V30 13 C 1.52 3.2206 0.0214 0
M  V30 14 C 1.4013 2.6013 2.3375 0
M  V30 15 C -2.0564 0.24 -2.92 0
M  V30 16 C 0.2651 -0.2927 -3.7245 0
M  V30 17 C 1.8117 3.5224 1.2956 0
M  V30 18 H 0.8618 -1.326 2.0445 0
M  V30 19 H -0.5243 -2.2779 3.8547 0
M  V30 20 H -1.3204 -0.823 3.2281 0
M  V30 21 H -1.9178 -2.4178 2.7687 0
M  V30 22 H 0.9776 -3.2737 0.5153 0
M  V30 23 H -0.564 -3.8723 1.1373 0
M  V30 24 H 0.8424 -3.7729 2.2113 0
M  V30 25 H 0.4478 0.8025 2.8626 0
M  V30 26 H -0.8085 -1.357 -2.241 0
M  V30 27 H 1.7741 3.8532 -0.8182 0
M  V30 28 H 1.6189 2.8749 3.3661 0
M  V30 29 H -1.9953 1.2864 -3.2398 0
M  V30 30 H -2.4811 -0.3415 -3.745 0
M  V30 31 H -2.7574 0.1913 -2.0793 0
M  V30 32 H 0.4038 0.7182 -4.1238 0
M  V30 33 H 1.2514 -0.6823 -3.4486 0
M  V30 34 H -0.129 -0.9187 -4.5324 0
M  V30 35 H 2.3296 4.4359 1.5654 0
M  V30 END ATOM
M  V30 BEGIN BOND
M  V30 1 2 1 2
M  V30 2 1 2 3
M  V30 3 1 2 4
M  V30 4 2 3 5
M  V30 5 1 3 6
M  V30 6 1 4 7
M  V30 7 1 4 8
M  V30 8 1 5 9
M  V30 9 1 5 10
M  V30 10 2 6 11
M  V30 11 1 6 12
M  V30 12 1 9 13
M  V30 13 2 10 14
M  V30 14 1 12 15
M  V30 15 1 12 16
M  V30 16 2 13 17
M  V30 17 1 9 11
M  V30 18 1 14 17
M  V30 19 1 4 18
M  V30 20 1 7 19
M  V30 21 1 7 20
M  V30 22 1 7 21
M  V30 23 1 8 22
M  V30 24 1 8 23
M  V30 25 1 8 24
M  V30 26 1 10 25
M  V30 27 1 12 26
M  V30 28 1 13 27
M  V30 29 1 14 28
M  V30 30 1 15 29
M  V30 31 1 15 30
M  V30 32 1 15 31
M  V30 33 1 16 32
M  V30 34 1 16 33
M  V30 35 1 16 34
M  V30 36 1 17 35
M  V30 END BOND
M  V30 END CTAB
M  END
>  <NO.>
5627

>  <Name>
ibudilast

>  <SMILES>
CC(C)C(=O)c1c(C(C)C)nn2ccccc12

>  <logBB>


>  <Class>
-1

>  <MW>
230.14

>  <nHBAcc>
2

>  <nHBDon>
0

>  <SLogP>
3.3

>  <TopoPSA>
34.37

>  <MMFF94 Energy>
40.376

$$$$
CC(C)CC(NC(=O)C(CCc1ccccc1)NC(=O)CN1CCOCC1)C(=O)NC(Cc1ccccc1)C(=O)NC(CC(C)C)C(=O)C1(C)CO1
Actelion Java MolfileCreator 2.0

  0  0  0  0  0  0              0 V3000
M  V30 BEGIN CTAB
M  V30 COUNTS 109 112 0 0 0
M  V30 BEGIN ATOM
M  V30 1 O 0.6326 3.6421 2.6117 0
M  V30 2 C 0.1736 2.5321 2.3531 0
M  V30 3 N -0.7391 1.8964 3.1642 0
M  V30 4 C 0.7123 1.6641 1.1984 0
M  V30 5 C -1.4833 2.5853 4.2115 0
M  V30 6 N -0.3111 0.713 0.7541 0
M  V30 7 C 1.9774 0.9564 1.7066 0
M  V30 8 C -2.9447 2.5152 3.7545 0
M  V30 9 C -1.3411 1.8781 5.5635 0
M  V30 10 C -1.4189 1.135 0.0385 0
M  V30 11 C 2.832 0.3512 0.6153 0
M  V30 12 O -3.4363 1.465 3.335 0
M  V30 13 C -3.8002 3.7403 3.8492 0
M  V30 14 C 0.0911 1.8703 6.1344 0
M  V30 15 O -1.6396 2.3233 -0.1788 0
M  V30 16 C -2.3295 -0.0184 -0.4503 0
M  V30 17 C 2.9495 -1.0385 0.4863 0
M  V30 18 C 3.5703 1.1757 -0.2453 0
M  V30 19 O -3.2645 4.7914 4.6798 0
M  V30 20 C -3.2772 5.0473 3.2751 0
M  V30 21 C -5.2857 3.5821 3.9968 0
M  V30 22 C 0.6047 3.2786 6.4371 0
M  V30 23 C 0.134 1.0227 7.4088 0
M  V30 24 N -1.5949 -0.7265 -1.4978 0
M  V30 25 C -3.6686 0.4826 -1.0093 0
M  V30 26 C 3.8017 -1.5916 -0.4721 0
M  V30 27 C 4.4167 0.6203 -1.2069 0
M  V30 28 C -0.6294 -1.6714 -1.2291 0
M  V30 29 C -4.6406 1.0328 0.0533 0
M  V30 30 C 4.534 -0.763 -1.3191 0
M  V30 31 O -0.3311 -1.9962 -0.0805 0
M  V30 32 C 0.1152 -2.1677 -2.4845 0
M  V30 33 C -5.8192 1.7298 -0.6317 0
M  V30 34 C -5.1667 -0.0678 0.9764 0
M  V30 35 N 1.0034 -1.077 -2.8891 0
M  V30 36 C 0.9171 -3.4426 -2.2255 0
M  V30 37 C 0.5591 -0.0491 -3.6953 0
M  V30 38 C 0.0105 -4.6609 -2.0325 0
M  V30 39 O -0.6021 -0.0011 -4.0998 0
M  V30 40 C 1.6063 1.0208 -4.0138 0
M  V30 41 C 0.821 -5.9012 -1.7512 0
M  V30 42 N 2.2453 0.7806 -5.3236 0
M  V30 43 C 1.2338 -6.7363 -2.7973 0
M  V30 44 C 1.1996 -6.2146 -0.4387 0
M  V30 45 C 3.0656 1.9528 -5.7003 0
M  V30 46 C 3.103 -0.4226 -5.3208 0
M  V30 47 C 2.0031 -7.8704 -2.5332 0
M  V30 48 C 1.9689 -7.3489 -0.1771 0
M  V30 49 C 3.8058 1.7247 -7.0268 0
M  V30 50 C 3.8464 -0.59 -6.6566 0
M  V30 51 C 2.3699 -8.1766 -1.2239 0
M  V30 52 O 4.6432 0.5635 -6.9523 0
M  V30 53 H -1.1036 1.0037 2.844 0
M  V30 54 H 0.9319 2.3372 0.3609 0
M  V30 55 H -1.152 3.6228 4.2711 0
M  V30 56 H -0.1212 -0.2897 0.784 0
M  V30 57 H 2.6091 1.6618 2.2641 0
M  V30 58 H 1.7029 0.1797 2.4335 0
M  V30 59 H -1.6848 0.8392 5.4635 0
M  V30 60 H -2.0185 2.3506 6.2876 0
M  V30 61 H 0.767 1.4064 5.4057 0
M  V30 62 H -2.4838 -0.7121 0.3824 0
M  V30 63 H 2.3942 -1.7042 1.145 0
M  V30 64 H 3.5129 2.259 -0.1528 0
M  V30 65 H -2.3316 5.0506 2.744 0
M  V30 66 H -3.9874 5.7746 2.8997 0
M  V30 67 H -5.5165 2.9418 4.8542 0
M  V30 68 H -5.7084 3.1217 3.098 0
M  V30 69 H -5.7877 4.5434 4.1509 0
M  V30 70 H 0.7082 3.8721 5.5244 0
M  V30 71 H -0.0711 3.8104 7.1152 0
M  V30 72 H 1.5925 3.238 6.9088 0
M  V30 73 H -0.1902 -0.0031 7.2051 0
M  V30 74 H -0.5183 1.4375 8.1848 0
M  V30 75 H 1.1516 0.9756 7.8111 0
M  V30 76 H -1.6576 -0.3746 -2.456 0
M  V30 77 H -3.4741 1.2618 -1.7589 0
M  V30 78 H -4.1622 -0.3357 -1.5511 0
M  V30 79 H 3.9038 -2.6721 -0.5456 0
M  V30 80 H 4.9995 1.2697 -1.856 0
M  V30 81 H -4.1263 1.782 0.6655 0
M  V30 82 H 5.2092 -1.1945 -2.0538 0
M  V30 83 H -0.6173 -2.343 -3.2817 0
M  V30 84 H -5.4702 2.5537 -1.2631 0
M  V30 85 H -6.382 1.0332 -1.2623 0
M  V30 86 H -6.5079 2.149 0.1097 0
M  V30 87 H -4.3603 -0.531 1.5515 0
M  V30 88 H -5.6726 -0.855 0.4073 0
M  V30 89 H -5.8846 0.3412 1.6957 0
M  V30 90 H 1.9087 -0.9942 -2.4385 0
M  V30 91 H 1.5933 -3.6241 -3.0718 0
M  V30 92 H 1.5594 -3.3165 -1.3461 0
M  V30 93 H -0.6939 -4.4996 -1.2077 0
M  V30 94 H -0.6042 -4.8196 -2.9274 0
M  V30 95 H 1.067 1.9764 -4.0263 0
M  V30 96 H 2.3445 1.0789 -3.208 0
M  V30 97 H 0.9578 -6.5098 -3.8245 0
M  V30 98 H 0.895 -5.5755 0.3876 0
M  V30 99 H 2.4272 2.8378 -5.8028 0
M  V30 100 H 3.8047 2.1562 -4.914 0
M  V30 101 H 3.8421 -0.351 -4.5127 0
M  V30 102 H 2.5022 -1.3227 -5.1561 0
M  V30 103 H 2.3162 -8.516 -3.3495 0
M  V30 104 H 2.2546 -7.5872 0.844 0
M  V30 105 H 4.4495 2.583 -7.244 0
M  V30 106 H 3.1039 1.6146 -7.8622 0
M  V30 107 H 4.5203 -1.4507 -6.5986 0
M  V30 108 H 3.1468 -0.7703 -7.4818 0
M  V30 109 H 2.9676 -9.0608 -1.0193 0
M  V30 END ATOM
M  V30 BEGIN BOND
M  V30 1 2 1 2
M  V30 2 1 2 3
M  V30 3 1 2 4
M  V30 4 1 3 5
M  V30 5 1 4 6
M  V30 6 1 4 7
M  V30 7 1 5 8
M  V30 8 1 5 9
M  V30 9 1 6 10
M  V30 10 1 7 11
M  V30 11 2 8 12
M  V30 12 1 8 13
M  V30 13 1 9 14
M  V30 14 2 10 15
M  V30 15 1 10 16
M  V30 16 2 11 17
M  V30 17 1 11 18
M  V30 18 1 13 19
M  V30 19 1 13 20
M  V30 20 1 13 21
M  V30 21 1 14 22
M  V30 22 1 14 23
M  V30 23 1 16 24
M  V30 24 1 16 25
M  V30 25 1 17 26
M  V30 26 2 18 27
M  V30 27 1 24 28
M  V30 28 1 25 29
M  V30 29 2 26 30
M  V30 30 2 28 31
M  V30 31 1 28 32
M  V30 32 1 29 33
M  V30 33 1 29 34
M  V30 34 1 32 35
M  V30 35 1 32 36
M  V30 36 1 35 37
M  V30 37 1 36 38
M  V30 38 2 37 39
M  V30 39 1 37 40
M  V30 40 1 38 41
M  V30 41 1 40 42
M  V30 42 2 41 43
M  V30 43 1 41 44
M  V30 44 1 42 45
M  V30 45 1 42 46
M  V30 46 1 43 47
M  V30 47 2 44 48
M  V30 48 1 45 49
M  V30 49 1 46 50
M  V30 50 2 47 51
M  V30 51 1 49 52
M  V30 52 1 19 20
M  V30 53 1 27 30
M  V30 54 1 48 51
M  V30 55 1 50 52
M  V30 56 1 3 53
M  V30 57 1 4 54
M  V30 58 1 5 55
M  V30 59 1 6 56
M  V30 60 1 7 57
M  V30 61 1 7 58
M  V30 62 1 9 59
M  V30 63 1 9 60
M  V30 64 1 14 61
M  V30 65 1 16 62
M  V30 66 1 17 63
M  V30 67 1 18 64
M  V30 68 1 20 65
M  V30 69 1 20 66
M  V30 70 1 21 67
M  V30 71 1 21 68
M  V30 72 1 21 69
M  V30 73 1 22 70
M  V30 74 1 22 71
M  V30 75 1 22 72
M  V30 76 1 23 73
M  V30 77 1 23 74
M  V30 78 1 23 75
M  V30 79 1 24 76
M  V30 80 1 25 77
M  V30 81 1 25 78
M  V30 82 1 26 79
M  V30 83 1 27 80
M  V30 84 1 29 81
M  V30 85 1 30 82
M  V30 86 1 32 83
M  V30 87 1 33 84
M  V30 88 1 33 85
M  V30 89 1 33 86
M  V30 90 1 34 87
M  V30 91 1 34 88
M  V30 92 1 34 89
M  V30 93 1 35 90
M  V30 94 1 36 91
M  V30 95 1 36 92
M  V30 96 1 38 93
M  V30 97 1 38 94
M  V30 98 1 40 95
M  V30 99 1 40 96
M  V30 100 1 43 97
M  V30 101 1 44 98
M  V30 102 1 45 99
M  V30 103 1 45 100
M  V30 104 1 46 101
M  V30 105 1 46 102
M  V30 106 1 47 103
M  V30 107 1 48 104
M  V30 108 1 49 105
M  V30 109 1 49 106
M  V30 110 1 50 107
M  V30 111 1 50 108
M  V30 112 1 51 109
M  V30 END BOND
M  V30 END CTAB
M  END
>  <NO.>
5628

>  <Name>
carfilzomib

>  <SMILES>
CC(C)CC(NC(=O)C(CCc1ccccc1)NC(=O)CN1CCOCC1)C(=O)NC(Cc1ccccc1)C(=O)NC(CC(C)C)C(=O)C1(C)CO1

>  <logBB>


>  <Class>
-1

>  <MW>
719.43

>  <nHBAcc>
8

>  <nHBDon>
4

>  <SLogP>
2.58

>  <TopoPSA>
158.47

>  <MMFF94 Energy>
195.84

$$$$
CC(C)CN(CC(O)C(Cc1ccccc1)NC(=O)OC1COC2OCCC12)S(=O)(=O)c1ccc(N)cc1
Actelion Java MolfileCreator 2.0

  0  0  0  0  0  0              0 V3000
M  V30 BEGIN CTAB
M  V30 COUNTS 75 78 0 0 0
M  V30 BEGIN ATOM
M  V30 1 S -0.2402 1.7625 -3.4471 0
M  V30 2 O 0.9657 1.0497 -3.8239 0
M  V30 3 O -0.823 2.7531 -4.3271 0
M  V30 4 N -1.4076 0.5872 -3.1097 0
M  V30 5 C 0.1058 2.5911 -1.907 0
M  V30 6 C -1.0051 -0.7094 -2.4919 0
M  V30 7 C -2.821 0.9846 -2.9396 0
M  V30 8 C -0.8802 3.3445 -1.2714 0
M  V30 9 C 1.3929 2.5239 -1.3613 0
M  V30 10 C -0.4755 -0.5915 -1.0524 0
M  V30 11 C -3.719 0.2635 -3.9623 0
M  V30 12 C -0.5869 3.9892 -0.0648 0
M  V30 13 C 1.6725 3.1702 -0.1539 0
M  V30 14 O -1.5206 -0.0153 -0.2493 0
M  V30 15 C 0.0118 -1.9302 -0.4079 0
M  V30 16 C -5.1901 0.5547 -3.6585 0
M  V30 17 C -3.3935 0.6801 -5.3985 0
M  V30 18 C 0.6903 3.9171 0.4987 0
M  V30 19 N 0.9405 -1.6271 0.6966 0
M  V30 20 C 0.6929 -2.8857 -1.4131 0
M  V30 21 N 0.9544 4.5141 1.7165 0
M  V30 22 C 0.5709 -1.0806 1.8811 0
M  V30 23 C 1.2355 -4.1548 -0.7918 0
M  V30 24 O -0.5746 -0.7818 2.1825 0
M  V30 25 O 1.6668 -0.8734 2.6435 0
M  V30 26 C 2.6087 -4.4344 -0.8391 0
M  V30 27 C 0.3775 -5.0746 -0.1728 0
M  V30 28 C 1.4238 -0.2789 3.9351 0
M  V30 29 C 3.1136 -5.6022 -0.2653 0
M  V30 30 C 0.8852 -6.2414 0.4004 0
M  V30 31 C 1.1525 1.2019 3.8071 0
M  V30 32 C 2.7352 -0.3061 4.7105 0
M  V30 33 C 2.2526 -6.5039 0.3559 0
M  V30 34 C 2.5401 1.8005 3.7333 0
M  V30 35 C 0.5809 1.8581 5.0476 0
M  V30 36 O 3.4335 0.9147 4.4163 0
M  V30 37 O 2.4967 3.0786 4.3695 0
M  V30 38 C 1.2323 3.2218 5.0251 0
M  V30 39 H -0.2583 -1.159 -3.1541 0
M  V30 40 H -1.868 -1.3854 -2.4972 0
M  V30 41 H -2.9445 2.0643 -3.0683 0
M  V30 42 H -3.1538 0.7584 -1.922 0
M  V30 43 H -1.8728 3.4443 -1.6968 0
M  V30 44 H 2.1824 1.9675 -1.8608 0
M  V30 45 H 0.3649 0.1014 -1.0336 0
M  V30 46 H -3.571 -0.8199 -3.8845 0
M  V30 47 H -1.3702 4.5565 0.4317 0
M  V30 48 H 2.6723 3.0969 0.2663 0
M  V30 49 H -1.278 -0.1135 0.6954 0
M  V30 50 H -0.8535 -2.4281 0.0483 0
M  V30 51 H -5.4072 1.626 -3.7309 0
M  V30 52 H -5.4513 0.223 -2.648 0
M  V30 53 H -5.8444 0.0282 -4.3613 0
M  V30 54 H -3.5082 1.7608 -5.5348 0
M  V30 55 H -2.3674 0.4096 -5.6668 0
M  V30 56 H -4.0606 0.1785 -6.1077 0
M  V30 57 H 1.9255 -1.842 0.605 0
M  V30 58 H -0.0171 -3.19 -2.1914 0
M  V30 59 H 1.5081 -2.3532 -1.9203 0
M  V30 60 H 1.8891 4.5021 2.1085 0
M  V30 61 H 0.2943 5.1697 2.1121 0
M  V30 62 H 3.2984 -3.7484 -1.3261 0
M  V30 63 H -0.6941 -4.8932 -0.1319 0
M  V30 64 H 0.643 -0.8467 4.4532 0
M  V30 65 H 4.1796 -5.811 -0.3067 0
M  V30 66 H 0.2125 -6.9479 0.8801 0
M  V30 67 H 0.5645 1.4873 2.9285 0
M  V30 68 H 3.377 -1.1499 4.4403 0
M  V30 69 H 2.5606 -0.3274 5.791 0
M  V30 70 H 2.6464 -7.414 0.8007 0
M  V30 71 H 2.8986 1.9177 2.706 0
M  V30 72 H -0.5115 1.9137 5.038 0
M  V30 73 H 0.8709 1.3267 5.9611 0
M  V30 74 H 0.6314 3.9361 4.4541 0
M  V30 75 H 1.3836 3.6285 6.0291 0
M  V30 END ATOM
M  V30 BEGIN BOND
M  V30 1 2 1 2
M  V30 2 2 1 3
M  V30 3 1 1 4
M  V30 4 1 1 5
M  V30 5 1 4 6
M  V30 6 1 4 7
M  V30 7 2 5 8
M  V30 8 1 5 9
M  V30 9 1 6 10
M  V30 10 1 7 11
M  V30 11 1 8 12
M  V30 12 2 9 13
M  V30 13 1 10 14
M  V30 14 1 10 15
M  V30 15 1 11 16
M  V30 16 1 11 17
M  V30 17 2 12 18
M  V30 18 1 15 19
M  V30 19 1 15 20
M  V30 20 1 18 21
M  V30 21 1 19 22
M  V30 22 1 20 23
M  V30 23 2 22 24
M  V30 24 1 22 25
M  V30 25 2 23 26
M  V30 26 1 23 27
M  V30 27 1 25 28
M  V30 28 1 26 29
M  V30 29 2 27 30
M  V30 30 1 28 31
M  V30 31 1 28 32
M  V30 32 2 29 33
M  V30 33 1 31 34
M  V30 34 1 31 35
M  V30 35 1 32 36
M  V30 36 1 34 37
M  V30 37 1 35 38
M  V30 38 1 13 18
M  V30 39 1 30 33
M  V30 40 1 34 36
M  V30 41 1 37 38
M  V30 42 1 6 39
M  V30 43 1 6 40
M  V30 44 1 7 41
M  V30 45 1 7 42
M  V30 46 1 8 43
M  V30 47 1 9 44
M  V30 48 1 10 45
M  V30 49 1 11 46
M  V30 50 1 12 47
M  V30 51 1 13 48
M  V30 52 1 14 49
M  V30 53 1 15 50
M  V30 54 1 16 51
M  V30 55 1 16 52
M  V30 56 1 16 53
M  V30 57 1 17 54
M  V30 58 1 17 55
M  V30 59 1 17 56
M  V30 60 1 19 57
M  V30 61 1 20 58
M  V30 62 1 20 59
M  V30 63 1 21 60
M  V30 64 1 21 61
M  V30 65 1 26 62
M  V30 66 1 27 63
M  V30 67 1 28 64
M  V30 68 1 29 65
M  V30 69 1 30 66
M  V30 70 1 31 67
M  V30 71 1 32 68
M  V30 72 1 32 69
M  V30 73 1 33 70
M  V30 74 1 34 71
M  V30 75 1 35 72
M  V30 76 1 35 73
M  V30 77 1 38 74
M  V30 78 1 38 75
M  V30 END BOND
M  V30 END CTAB
M  END
>  <NO.>
5629

>  <Name>
darunavir

>  <SMILES>
CC(C)CN(CC(O)C(Cc1ccccc1)NC(=O)OC1COC2OCCC12)S(=O)(=O)c1ccc(N)cc1

>  <logBB>


>  <Class>
-1

>  <MW>
547.24

>  <nHBAcc>
8

>  <nHBDon>
3

>  <SLogP>
2.38

>  <TopoPSA>
140.42

>  <MMFF94 Energy>
-25.467

$$$$
CC(C)N(CCCCOCC(=O)NS(C)(=O)=O)c1cnc(-c2ccccc2)c(-c2ccccc2)n1
Actelion Java MolfileCreator 2.0

  0  0  0  0  0  0              0 V3000
M  V30 BEGIN CTAB
M  V30 COUNTS 67 69 0 0 0
M  V30 BEGIN ATOM
M  V30 1 S 3.1982 5.3614 3.3583 0
M  V30 2 O 3.805 5.6802 4.6302 0
M  V30 3 O 4.018 5.049 2.2055 0
M  V30 4 N 2.2009 4.0654 3.5488 0
M  V30 5 C 2.0788 6.6643 2.8878 0
M  V30 6 C 1.2499 3.8976 4.5672 0
M  V30 7 O 0.8639 4.8141 5.2796 0
M  V30 8 C 0.7005 2.4757 4.6734 0
M  V30 9 O 1.3384 1.6193 3.7232 0
M  V30 10 C 0.7751 0.3083 3.7266 0
M  V30 11 C 1.5041 -0.5415 2.6911 0
M  V30 12 C 1.3347 0.0159 1.2749 0
M  V30 13 C 2.0689 -0.8508 0.2468 0
M  V30 14 N 1.8671 -0.3497 -1.1207 0
M  V30 15 C 0.7064 -0.7662 -1.7647 0
M  V30 16 C 2.9467 0.3771 -1.8079 0
M  V30 17 N -0.2298 -1.4162 -1.0359 0
M  V30 18 C 0.4354 -0.5582 -3.1171 0
M  V30 19 C 3.5716 1.4636 -0.9283 0
M  V30 20 C 4.0085 -0.6025 -2.3064 0
M  V30 21 C -1.3886 -1.8262 -1.6346 0
M  V30 22 N -0.6946 -0.9618 -3.7574 0
M  V30 23 C -1.6124 -1.6196 -3.0029 0
M  V30 24 C -2.3384 -2.4566 -0.6986 0
M  V30 25 C -2.7906 -2.0837 -3.758 0
M  V30 26 C -1.9145 -3.4974 0.1478 0
M  V30 27 C -3.6741 -2.0306 -0.5931 0
M  V30 28 C -3.5004 -1.1936 -4.5843 0
M  V30 29 C -3.2307 -3.4182 -3.705 0
M  V30 30 C -2.7961 -4.108 1.0434 0
M  V30 31 C -4.5581 -2.6412 0.3013 0
M  V30 32 C -4.6214 -1.6116 -5.3062 0
M  V30 33 C -4.353 -3.838 -4.4252 0
M  V30 34 C -4.1192 -3.6815 1.1163 0
M  V30 35 C -5.0495 -2.9335 -5.2223 0
M  V30 36 H 2.4366 3.2429 2.9912 0
M  V30 37 H 1.519 6.3486 2.0055 0
M  V30 38 H 1.4105 6.8884 3.7199 0
M  V30 39 H 2.6763 7.5472 2.6493 0
M  V30 40 H 0.8885 2.1082 5.6872 0
M  V30 41 H -0.376 2.5165 4.4761 0
M  V30 42 H -0.2938 0.3625 3.491 0
M  V30 43 H 0.8976 -0.1368 4.7203 0
M  V30 44 H 2.573 -0.5701 2.9352 0
M  V30 45 H 1.1233 -1.5683 2.7349 0
M  V30 46 H 0.2661 0.0769 1.0395 0
M  V30 47 H 1.7175 1.0413 1.23 0
M  V30 48 H 1.7586 -1.901 0.3308 0
M  V30 49 H 3.1372 -0.8646 0.493 0
M  V30 50 H 2.5522 0.921 -2.6721 0
M  V30 51 H 1.1345 -0.0606 -3.7764 0
M  V30 52 H 4.0938 1.0527 -0.059 0
M  V30 53 H 4.3034 2.0433 -1.502 0
M  V30 54 H 2.8069 2.1602 -0.5688 0
M  V30 55 H 4.4887 -1.1344 -1.4782 0
M  V30 56 H 3.5686 -1.3536 -2.971 0
M  V30 57 H 4.7895 -0.076 -2.865 0
M  V30 58 H -0.8803 -3.8363 0.1077 0
M  V30 59 H -4.0407 -1.2106 -1.208 0
M  V30 60 H -3.1719 -0.1588 -4.6695 0
M  V30 61 H -2.6964 -4.1507 -3.103 0
M  V30 62 H -2.4467 -4.9138 1.6834 0
M  V30 63 H -5.5887 -2.3005 0.361 0
M  V30 64 H -5.1537 -0.9049 -5.9373 0
M  V30 65 H -4.6777 -4.8736 -4.366 0
M  V30 66 H -4.807 -4.1553 1.8118 0
M  V30 67 H -5.9194 -3.2611 -5.7854 0
M  V30 END ATOM
M  V30 BEGIN BOND
M  V30 1 2 1 2
M  V30 2 2 1 3
M  V30 3 1 1 4
M  V30 4 1 1 5
M  V30 5 1 4 6
M  V30 6 2 6 7
M  V30 7 1 6 8
M  V30 8 1 8 9
M  V30 9 1 9 10
M  V30 10 1 10 11
M  V30 11 1 11 12
M  V30 12 1 12 13
M  V30 13 1 13 14
M  V30 14 1 14 15
M  V30 15 1 14 16
M  V30 16 2 15 17
M  V30 17 1 15 18
M  V30 18 1 16 19
M  V30 19 1 16 20
M  V30 20 1 17 21
M  V30 21 2 18 22
M  V30 22 2 21 23
M  V30 23 1 21 24
M  V30 24 1 23 25
M  V30 25 2 24 26
M  V30 26 1 24 27
M  V30 27 2 25 28
M  V30 28 1 25 29
M  V30 29 1 26 30
M  V30 30 2 27 31
M  V30 31 1 28 32
M  V30 32 2 29 33
M  V30 33 2 30 34
M  V30 34 2 32 35
M  V30 35 1 22 23
M  V30 36 1 31 34
M  V30 37 1 33 35
M  V30 38 1 4 36
M  V30 39 1 5 37
M  V30 40 1 5 38
M  V30 41 1 5 39
M  V30 42 1 8 40
M  V30 43 1 8 41
M  V30 44 1 10 42
M  V30 45 1 10 43
M  V30 46 1 11 44
M  V30 47 1 11 45
M  V30 48 1 12 46
M  V30 49 1 12 47
M  V30 50 1 13 48
M  V30 51 1 13 49
M  V30 52 1 16 50
M  V30 53 1 18 51
M  V30 54 1 19 52
M  V30 55 1 19 53
M  V30 56 1 19 54
M  V30 57 1 20 55
M  V30 58 1 20 56
M  V30 59 1 20 57
M  V30 60 1 26 58
M  V30 61 1 27 59
M  V30 62 1 28 60
M  V30 63 1 29 61
M  V30 64 1 30 62
M  V30 65 1 31 63
M  V30 66 1 32 64
M  V30 67 1 33 65
M  V30 68 1 34 66
M  V30 69 1 35 67
M  V30 END BOND
M  V30 END CTAB
M  END
>  <NO.>
5631

>  <Name>
selexipag

>  <SMILES>
CC(C)N(CCCCOCC(=O)NS(C)(=O)=O)c1cnc(-c2ccccc2)c(-c2ccccc2)n1

>  <logBB>


>  <Class>
-1

>  <MW>
496.21

>  <nHBAcc>
7

>  <nHBDon>
1

>  <SLogP>
3.9

>  <TopoPSA>
101.49

>  <MMFF94 Energy>
32.279

$$$$
CC(C)OC(=O)C(C)NP(=O)(OCC1OC(n2ccc(=O)[nH]c2=O)C(C)(F)C1O)Oc1ccccc1
Actelion Java MolfileCreator 2.0

  0  0  0  0  0  0              0 V3000
M  V30 BEGIN CTAB
M  V30 COUNTS 65 67 0 0 0
M  V30 BEGIN ATOM
M  V30 1 P 1.2857 0.1606 -1.2053 0
M  V30 2 O 2.3137 -0.6604 -1.925 0
M  V30 3 O 1.866 0.8734 0.1132 0
M  V30 4 O 0.1004 -0.7864 -0.636 0
M  V30 5 N 0.5246 1.2922 -2.1205 0
M  V30 6 C 1.1768 1.5907 1.0491 0
M  V30 7 C 0.5037 -1.9708 0.047 0
M  V30 8 C 0.333 0.9372 -3.5402 0
M  V30 9 C 1.9147 1.9784 2.1697 0
M  V30 10 C -0.1679 1.9403 0.9568 0
M  V30 11 C -0.4316 -2.2685 1.2156 0
M  V30 12 C 1.665 1.0774 -4.2837 0
M  V30 13 C -0.6917 1.8763 -4.1609 0
M  V30 14 C 1.3108 2.7024 3.1987 0
M  V30 15 C -0.7725 2.668 1.9862 0
M  V30 16 O -0.2584 -1.2688 2.2428 0
M  V30 17 C -1.9361 -2.317 0.9091 0
M  V30 18 O 2.5556 1.8458 -3.9373 0
M  V30 19 O 1.6856 0.2719 -5.3796 0
M  V30 20 C -0.0355 3.0458 3.1071 0
M  V30 21 C -1.5569 -1.025 2.838 0
M  V30 22 O -2.4055 -1.2864 0.0381 0
M  V30 23 C -2.4993 -2.1205 2.3095 0
M  V30 24 C 2.8985 0.2957 -6.154 0
M  V30 25 N -1.4386 -0.9562 4.2919 0
M  V30 26 F -2.3033 -3.2872 3.0006 0
M  V30 27 C -3.9748 -1.7782 2.3845 0
M  V30 28 C 2.9941 -1.0403 -6.8799 0
M  V30 29 C 2.8432 1.4488 -7.1494 0
M  V30 30 C -2.2674 -0.0656 4.9597 0
M  V30 31 C -0.5611 -1.7773 4.9729 0
M  V30 32 O -3.0966 0.6543 4.4068 0
M  V30 33 N -2.1263 -0.0289 6.3222 0
M  V30 34 C -0.4403 -1.738 6.3012 0
M  V30 35 C -1.2711 -0.7924 7.0609 0
M  V30 36 O -1.1887 -0.7144 8.2807 0
M  V30 37 H 1.0793 2.1485 -2.1073 0
M  V30 38 H 1.5268 -1.8547 0.4213 0
M  V30 39 H 0.4835 -2.7937 -0.6738 0
M  V30 40 H -0.0185 -0.0982 -3.609 0
M  V30 41 H 2.965 1.7091 2.2477 0
M  V30 42 H -0.781 1.6552 0.109 0
M  V30 43 H -0.1233 -3.2192 1.6694 0
M  V30 44 H -0.8584 1.6254 -5.2142 0
M  V30 45 H -0.3574 2.9197 -4.1247 0
M  V30 46 H -1.6542 1.8074 -3.6425 0
M  V30 47 H 1.89 2.9947 4.0704 0
M  V30 48 H -1.8262 2.9298 1.9195 0
M  V30 49 H -2.2118 -3.2818 0.4728 0
M  V30 50 H -0.5129 3.6044 3.9082 0
M  V30 51 H -1.8801 -0.0497 2.4574 0
M  V30 52 H -1.6474 -0.9505 -0.4819 0
M  V30 53 H 3.7719 0.3976 -5.4983 0
M  V30 54 H -4.5696 -2.5514 1.8869 0
M  V30 55 H -4.2018 -0.8144 1.9186 0
M  V30 56 H -4.3095 -1.746 3.4263 0
M  V30 57 H 3.8978 -1.0959 -7.4943 0
M  V30 58 H 3.0113 -1.8644 -6.1584 0
M  V30 59 H 2.1212 -1.2033 -7.5219 0
M  V30 60 H 3.7324 1.4645 -7.787 0
M  V30 61 H 2.7752 2.4102 -6.6299 0
M  V30 62 H 1.9548 1.3739 -7.7863 0
M  V30 63 H 0.0373 -2.4646 4.3825 0
M  V30 64 H -2.7142 0.6182 6.8225 0
M  V30 65 H 0.2415 -2.3686 6.8547 0
M  V30 END ATOM
M  V30 BEGIN BOND
M  V30 1 2 1 2
M  V30 2 1 1 3
M  V30 3 1 1 4
M  V30 4 1 1 5
M  V30 5 1 3 6
M  V30 6 1 4 7
M  V30 7 1 5 8
M  V30 8 2 6 9
M  V30 9 1 6 10
M  V30 10 1 7 11
M  V30 11 1 8 12
M  V30 12 1 8 13
M  V30 13 1 9 14
M  V30 14 2 10 15
M  V30 15 1 11 16
M  V30 16 1 11 17
M  V30 17 2 12 18
M  V30 18 1 12 19
M  V30 19 2 14 20
M  V30 20 1 16 21
M  V30 21 1 17 22
M  V30 22 1 17 23
M  V30 23 1 19 24
M  V30 24 1 21 25
M  V30 25 1 23 26
M  V30 26 1 23 27
M  V30 27 1 24 28
M  V30 28 1 24 29
M  V30 29 1 25 30
M  V30 30 1 25 31
M  V30 31 2 30 32
M  V30 32 1 30 33
M  V30 33 2 31 34
M  V30 34 1 33 35
M  V30 35 2 35 36
M  V30 36 1 15 20
M  V30 37 1 21 23
M  V30 38 1 34 35
M  V30 39 1 5 37
M  V30 40 1 7 38
M  V30 41 1 7 39
M  V30 42 1 8 40
M  V30 43 1 9 41
M  V30 44 1 10 42
M  V30 45 1 11 43
M  V30 46 1 13 44
M  V30 47 1 13 45
M  V30 48 1 13 46
M  V30 49 1 14 47
M  V30 50 1 15 48
M  V30 51 1 17 49
M  V30 52 1 20 50
M  V30 53 1 21 51
M  V30 54 1 22 52
M  V30 55 1 24 53
M  V30 56 1 27 54
M  V30 57 1 27 55
M  V30 58 1 27 56
M  V30 59 1 28 57
M  V30 60 1 28 58
M  V30 61 1 28 59
M  V30 62 1 29 60
M  V30 63 1 29 61
M  V30 64 1 29 62
M  V30 65 1 31 63
M  V30 66 1 33 64
M  V30 67 1 34 65
M  V30 END BOND
M  V30 END CTAB
M  END
>  <NO.>
5633

>  <Name>
sofosbuvir

>  <SMILES>
CC(C)OC(=O)C(C)NP(=O)(OCC1OC(n2ccc(=O)[nH]c2=O)C(C)(F)C1O)Oc1ccccc1

>  <logBB>


>  <Class>
-1

>  <MW>
529.16

>  <nHBAcc>
9

>  <nHBDon>
3

>  <SLogP>
1.66

>  <TopoPSA>
158.18

>  <MMFF94 Energy>
-110.57

$$$$
CC(C)OC(=O)CCC/C=C/CC1C(O)CC(O)C1/C=C/C(F)(F)COc1ccccc1
Actelion Java MolfileCreator 2.0

  0  0  0  0  0  0              0 V3000
M  V30 BEGIN CTAB
M  V30 COUNTS 66 67 0 0 0
M  V30 BEGIN ATOM
M  V30 1 F -0.0791 3.0886 -1.6622 0
M  V30 2 C -1.2705 2.4403 -1.785 0
M  V30 3 F -1.0429 1.3745 -2.6008 0
M  V30 4 C -1.7493 1.938 -0.4489 0
M  V30 5 C -2.2985 3.3762 -2.4361 0
M  V30 6 C -1.2045 2.2435 0.7415 0
M  V30 7 O -1.8272 3.8092 -3.7193 0
M  V30 8 C -1.7119 1.7128 2.0613 0
M  V30 9 C -2.6366 4.6517 -4.4294 0
M  V30 10 C -2.2765 2.8323 2.947 0
M  V30 11 C -0.6024 1.0777 2.9369 0
M  V30 12 C -3.8778 5.1415 -4.0199 0
M  V30 13 C -2.1306 5.0308 -5.6756 0
M  V30 14 O -3.5859 3.2045 2.5405 0
M  V30 15 C -2.3099 2.1831 4.3218 0
M  V30 16 C -0.9888 1.4299 4.3925 0
M  V30 17 C -0.4805 -0.4466 2.7615 0
M  V30 18 C -4.6025 6.0009 -4.8523 0
M  V30 19 C -2.853 5.8883 -6.5069 0
M  V30 20 O 0.0082 2.295 4.9322 0
M  V30 21 C -0.0505 -0.8652 1.3845 0
M  V30 22 C -4.0911 6.3738 -6.0942 0
M  V30 23 C 1.1704 -1.3385 1.0908 0
M  V30 24 C 1.5949 -1.7389 -0.2945 0
M  V30 25 C 1.8117 -3.2462 -0.4485 0
M  V30 26 C 2.9819 -3.7771 0.3799 0
M  V30 27 C 3.2366 -5.2428 0.1166 0
M  V30 28 O 2.5669 -5.9616 -0.6105 0
M  V30 29 O 4.3323 -5.6411 0.8246 0
M  V30 30 C 4.7116 -7.0226 0.681 0
M  V30 31 C 5.5723 -7.1887 -0.5661 0
M  V30 32 C 5.4945 -7.4055 1.9311 0
M  V30 33 H -2.6004 1.264 -0.4929 0
M  V30 34 H -2.4432 4.2521 -1.7916 0
M  V30 35 H -3.245 2.8368 -2.5656 0
M  V30 36 H -0.3462 2.9145 0.7774 0
M  V30 37 H -2.5091 0.9792 1.8735 0
M  V30 38 H -1.6331 3.7211 2.9399 0
M  V30 39 H 0.372 1.5287 2.7007 0
M  V30 40 H -4.3126 4.878 -3.0619 0
M  V30 41 H -1.164 4.6535 -6.0009 0
M  V30 42 H -3.871 3.9304 3.1223 0
M  V30 43 H -3.1563 1.4885 4.3897 0
M  V30 44 H -2.4295 2.9318 5.1117 0
M  V30 45 H -1.0585 0.554 5.0457 0
M  V30 46 H -1.4398 -0.9306 2.9851 0
M  V30 47 H 0.2324 -0.8317 3.5025 0
M  V30 48 H -5.569 6.38 -4.5295 0
M  V30 49 H -2.448 6.1748 -7.4736 0
M  V30 50 H -0.1902 2.4223 5.8765 0
M  V30 51 H -0.7936 -0.7821 0.5941 0
M  V30 52 H -4.6565 7.0416 -6.7387 0
M  V30 53 H 1.919 -1.4147 1.8764 0
M  V30 54 H 2.5163 -1.2012 -0.5484 0
M  V30 55 H 0.8419 -1.4202 -1.0263 0
M  V30 56 H 1.9958 -3.4604 -1.5091 0
M  V30 57 H 0.8934 -3.785 -0.181 0
M  V30 58 H 3.8925 -3.2225 0.1271 0
M  V30 59 H 2.7762 -3.662 1.4493 0
M  V30 60 H 3.8218 -7.6608 0.6203 0
M  V30 61 H 5.917 -8.2215 -0.6746 0
M  V30 62 H 5.0118 -6.9169 -1.4665 0
M  V30 63 H 6.4457 -6.5282 -0.5297 0
M  V30 64 H 5.8184 -8.4499 1.8938 0
M  V30 65 H 4.877 -7.2635 2.8248 0
M  V30 66 H 6.3767 -6.7674 2.0544 0
M  V30 END ATOM
M  V30 BEGIN BOND
M  V30 1 1 1 2
M  V30 2 1 2 3
M  V30 3 1 2 4
M  V30 4 1 2 5
M  V30 5 2 4 6
M  V30 6 1 5 7
M  V30 7 1 6 8
M  V30 8 1 7 9
M  V30 9 1 8 10
M  V30 10 1 8 11
M  V30 11 2 9 12
M  V30 12 1 9 13
M  V30 13 1 10 14
M  V30 14 1 10 15
M  V30 15 1 11 16
M  V30 16 1 11 17
M  V30 17 1 12 18
M  V30 18 2 13 19
M  V30 19 1 16 20
M  V30 20 1 17 21
M  V30 21 2 18 22
M  V30 22 2 21 23
M  V30 23 1 23 24
M  V30 24 1 24 25
M  V30 25 1 25 26
M  V30 26 1 26 27
M  V30 27 2 27 28
M  V30 28 1 27 29
M  V30 29 1 29 30
M  V30 30 1 30 31
M  V30 31 1 30 32
M  V30 32 1 15 16
M  V30 33 1 19 22
M  V30 34 1 4 33
M  V30 35 1 5 34
M  V30 36 1 5 35
M  V30 37 1 6 36
M  V30 38 1 8 37
M  V30 39 1 10 38
M  V30 40 1 11 39
M  V30 41 1 12 40
M  V30 42 1 13 41
M  V30 43 1 14 42
M  V30 44 1 15 43
M  V30 45 1 15 44
M  V30 46 1 16 45
M  V30 47 1 17 46
M  V30 48 1 17 47
M  V30 49 1 18 48
M  V30 50 1 19 49
M  V30 51 1 20 50
M  V30 52 1 21 51
M  V30 53 1 22 52
M  V30 54 1 23 53
M  V30 55 1 24 54
M  V30 56 1 24 55
M  V30 57 1 25 56
M  V30 58 1 25 57
M  V30 59 1 26 58
M  V30 60 1 26 59
M  V30 61 1 30 60
M  V30 62 1 31 61
M  V30 63 1 31 62
M  V30 64 1 31 63
M  V30 65 1 32 64
M  V30 66 1 32 65
M  V30 67 1 32 66
M  V30 END BOND
M  V30 END CTAB
M  END
>  <NO.>
5634

>  <Name>
209860-87-7

>  <SMILES>
CC(C)OC(=O)CCC/C=C/CC1C(O)CC(O)C1/C=C/C(F)(F)COc1ccccc1

>  <logBB>


>  <Class>
-1

>  <MW>
452.24

>  <nHBAcc>
5

>  <nHBDon>
2

>  <SLogP>
4.68

>  <TopoPSA>
75.99

>  <MMFF94 Energy>
91.366

$$$$
CC(C)OC(=O)CCC/C=C/CC1C(O)CC(O)C1/C=C/C(O)COc1cccc(C(F)(F)F)c1
Actelion Java MolfileCreator 2.0

  0  0  0  0  0  0              0 V3000
M  V30 BEGIN CTAB
M  V30 COUNTS 70 71 0 0 0
M  V30 BEGIN ATOM
M  V30 1 F -5.9614 3.8121 1.3488 0
M  V30 2 C -6.3583 2.6323 0.7947 0
M  V30 3 F -7.1195 2.9628 -0.2843 0
M  V30 4 F -7.2118 2.0704 1.6967 0
M  V30 5 C -5.207 1.7304 0.4314 0
M  V30 6 C -3.9643 2.2731 0.0653 0
M  V30 7 C -5.3652 0.338 0.422 0
M  V30 8 C -2.8939 1.4485 -0.2924 0
M  V30 9 C -4.2962 -0.4881 0.0777 0
M  V30 10 O -1.7447 2.113 -0.6204 0
M  V30 11 C -3.0627 0.0651 -0.2752 0
M  V30 12 C -0.6993 1.3336 -1.2244 0
M  V30 13 C 0.4148 2.3071 -1.6475 0
M  V30 14 O -0.1162 3.25 -2.5856 0
M  V30 15 C 1.6295 1.7174 -2.3064 0
M  V30 16 C 1.8782 0.424 -2.5737 0
M  V30 17 C 3.1276 -0.054 -3.2758 0
M  V30 18 C 2.7972 -0.5709 -4.6949 0
M  V30 19 C 3.8255 -1.2479 -2.6003 0
M  V30 20 O 3.0557 0.4427 -5.6606 0
M  V30 21 C 3.7063 -1.7722 -4.9483 0
M  V30 22 C 4.6572 -1.8084 -3.7595 0
M  V30 23 C 4.7168 -0.9071 -1.3964 0
M  V30 24 O 5.0891 -3.13 -3.4871 0
M  V30 25 C 3.961 -0.3699 -0.2143 0
M  V30 26 C 3.5821 -1.121 0.831 0
M  V30 27 C 2.8262 -0.5862 2.012 0
M  V30 28 C 1.3877 -1.101 2.0161 0
M  V30 29 C 0.61 -0.5635 3.215 0
M  V30 30 C -0.838 -0.9912 3.1793 0
M  V30 31 O -1.3957 -1.5157 2.2261 0
M  V30 32 O -1.4274 -0.6749 4.367 0
M  V30 33 C -2.836 -0.9529 4.4742 0
M  V30 34 C -3.1301 -1.2508 5.939 0
M  V30 35 C -3.6164 0.2671 4.0017 0
M  V30 36 H -3.8266 3.3537 0.0582 0
M  V30 37 H -6.3201 -0.1093 0.6944 0
M  V30 38 H -4.4152 -1.5693 0.094 0
M  V30 39 H -2.252 -0.6173 -0.5114 0
M  V30 40 H -0.3087 0.6127 -0.4981 0
M  V30 41 H -1.098 0.8207 -2.1086 0
M  V30 42 H 0.7354 2.8851 -0.7726 0
M  V30 43 H -0.9689 3.5407 -2.2108 0
M  V30 44 H 2.3691 2.4619 -2.6004 0
M  V30 45 H 1.1581 -0.345 -2.3026 0
M  V30 46 H 3.8398 0.78 -3.3559 0
M  V30 47 H 1.7492 -0.8739 -4.8059 0
M  V30 48 H 3.0886 -2.0014 -2.2847 0
M  V30 49 H 2.4593 1.1862 -5.4534 0
M  V30 50 H 4.2538 -1.7118 -5.8947 0
M  V30 51 H 3.1114 -2.6937 -4.9775 0
M  V30 52 H 5.5373 -1.1823 -3.9519 0
M  V30 53 H 5.2736 -1.8042 -1.0957 0
M  V30 54 H 5.4753 -0.1674 -1.6822 0
M  V30 55 H 5.5534 -3.453 -4.2792 0
M  V30 56 H 3.7265 0.6922 -0.2296 0
M  V30 57 H 3.8186 -2.1838 0.8431 0
M  V30 58 H 2.8262 0.5107 2.0053 0
M  V30 59 H 3.3418 -0.8967 2.9284 0
M  V30 60 H 1.3781 -2.1986 2.0357 0
M  V30 61 H 0.8879 -0.8031 1.0858 0
M  V30 62 H 1.0624 -0.9382 4.1401 0
M  V30 63 H 0.636 0.5317 3.2227 0
M  V30 64 H -3.1081 -1.8329 3.8792 0
M  V30 65 H -4.1921 -1.4626 6.0965 0
M  V30 66 H -2.548 -2.1157 6.275 0
M  V30 67 H -2.8403 -0.4096 6.5786 0
M  V30 68 H -4.6956 0.0978 4.0654 0
M  V30 69 H -3.3613 0.5112 2.9667 0
M  V30 70 H -3.364 1.15 4.5997 0
M  V30 END ATOM
M  V30 BEGIN BOND
M  V30 1 1 1 2
M  V30 2 1 2 3
M  V30 3 1 2 4
M  V30 4 1 2 5
M  V30 5 2 5 6
M  V30 6 1 5 7
M  V30 7 1 6 8
M  V30 8 2 7 9
M  V30 9 1 8 10
M  V30 10 2 8 11
M  V30 11 1 10 12
M  V30 12 1 12 13
M  V30 13 1 13 14
M  V30 14 1 13 15
M  V30 15 2 15 16
M  V30 16 1 16 17
M  V30 17 1 17 18
M  V30 18 1 17 19
M  V30 19 1 18 20
M  V30 20 1 18 21
M  V30 21 1 19 22
M  V30 22 1 19 23
M  V30 23 1 22 24
M  V30 24 1 23 25
M  V30 25 2 25 26
M  V30 26 1 26 27
M  V30 27 1 27 28
M  V30 28 1 28 29
M  V30 29 1 29 30
M  V30 30 2 30 31
M  V30 31 1 30 32
M  V30 32 1 32 33
M  V30 33 1 33 34
M  V30 34 1 33 35
M  V30 35 1 9 11
M  V30 36 1 21 22
M  V30 37 1 6 36
M  V30 38 1 7 37
M  V30 39 1 9 38
M  V30 40 1 11 39
M  V30 41 1 12 40
M  V30 42 1 12 41
M  V30 43 1 13 42
M  V30 44 1 14 43
M  V30 45 1 15 44
M  V30 46 1 16 45
M  V30 47 1 17 46
M  V30 48 1 18 47
M  V30 49 1 19 48
M  V30 50 1 20 49
M  V30 51 1 21 50
M  V30 52 1 21 51
M  V30 53 1 22 52
M  V30 54 1 23 53
M  V30 55 1 23 54
M  V30 56 1 24 55
M  V30 57 1 25 56
M  V30 58 1 26 57
M  V30 59 1 27 58
M  V30 60 1 27 59
M  V30 61 1 28 60
M  V30 62 1 28 61
M  V30 63 1 29 62
M  V30 64 1 29 63
M  V30 65 1 33 64
M  V30 66 1 34 65
M  V30 67 1 34 66
M  V30 68 1 34 67
M  V30 69 1 35 68
M  V30 70 1 35 69
M  V30 71 1 35 70
M  V30 END BOND
M  V30 END CTAB
M  END
>  <NO.>
5635

>  <Name>
schembl2177081

>  <SMILES>
CC(C)OC(=O)CCC/C=C/CC1C(O)CC(O)C1/C=C/C(O)COc1cccc(C(F)(F)F)c1

>  <logBB>


>  <Class>
-1

>  <MW>
500.24

>  <nHBAcc>
6

>  <nHBDon>
3

>  <SLogP>
4.43

>  <TopoPSA>
96.22

>  <MMFF94 Energy>
88.029

$$$$
CC(C)OC(=O)CCC/C=C/CC1C(O)CC(O)C1CCC(O)CCc1ccccc1
Actelion Java MolfileCreator 2.0

  0  0  0  0  0  0              0 V3000
M  V30 BEGIN CTAB
M  V30 COUNTS 71 72 0 0 0
M  V30 BEGIN ATOM
M  V30 1 O -0.7069 1.8073 3.1448 0
M  V30 2 C 0.4728 2.0953 3.0038 0
M  V30 3 O 1.3076 2.5042 4.0018 0
M  V30 4 C 1.2327 2.0532 1.699 0
M  V30 5 C 0.7187 2.6329 5.3087 0
M  V30 6 C 0.2946 2.1608 0.498 0
M  V30 7 C 1.8466 2.5041 6.3251 0
M  V30 8 C 0.0379 3.9918 5.4302 0
M  V30 9 C 1.0765 2.3332 -0.8055 0
M  V30 10 C 0.1551 2.3666 -1.9924 0
M  V30 11 C 0.2661 1.5379 -3.0421 0
M  V30 12 C -0.6721 1.5304 -4.2156 0
M  V30 13 C -1.6683 0.3491 -4.2015 0
M  V30 14 C -2.616 0.4578 -5.4121 0
M  V30 15 C -0.965 -1.0324 -4.364 0
M  V30 16 O -3.8878 -0.0795 -5.054 0
M  V30 17 C -1.9861 -0.4234 -6.4755 0
M  V30 18 C -1.5284 -1.627 -5.6676 0
M  V30 19 C -1.2094 -2.0037 -3.1904 0
M  V30 20 O -0.5254 -2.3538 -6.3587 0
M  V30 21 C -0.5593 -1.5407 -1.8826 0
M  V30 22 C -0.619 -2.5886 -0.7632 0
M  V30 23 O -1.9702 -2.8545 -0.4014 0
M  V30 24 C 0.1254 -2.0715 0.4732 0
M  V30 25 C 0.1575 -3.0994 1.6061 0
M  V30 26 C 0.9607 -2.5906 2.7789 0
M  V30 27 C 2.3182 -2.912 2.9078 0
M  V30 28 C 0.3635 -1.7625 3.7381 0
M  V30 29 C 3.0608 -2.4238 3.9842 0
M  V30 30 C 1.1061 -1.281 4.8165 0
M  V30 31 C 2.4543 -1.6101 4.9393 0
M  V30 32 H 1.8038 1.1197 1.6617 0
M  V30 33 H 1.934 2.8959 1.6824 0
M  V30 34 H -0.004 1.8278 5.4864 0
M  V30 35 H -0.3857 3.0117 0.6345 0
M  V30 36 H -0.3367 1.2652 0.4453 0
M  V30 37 H 1.4708 2.5876 7.3494 0
M  V30 38 H 2.3502 1.5379 6.2162 0
M  V30 39 H 2.6094 3.2745 6.1664 0
M  V30 40 H -0.3766 4.1388 6.4323 0
M  V30 41 H -0.7759 4.0873 4.7043 0
M  V30 42 H 0.7431 4.8032 5.2187 0
M  V30 43 H 1.6396 3.2736 -0.7759 0
M  V30 44 H 1.8083 1.5224 -0.9054 0
M  V30 45 H -0.6484 3.1004 -1.967 0
M  V30 46 H 1.0784 0.8147 -3.0673 0
M  V30 47 H -1.2376 2.4713 -4.2361 0
M  V30 48 H -0.0736 1.5165 -5.1349 0
M  V30 49 H -2.2506 0.3865 -3.2724 0
M  V30 50 H -2.7675 1.4868 -5.7526 0
M  V30 51 H 0.1197 -0.9057 -4.4738 0
M  V30 52 H -4.503 0.1121 -5.7833 0
M  V30 53 H -2.6912 -0.7242 -7.2571 0
M  V30 54 H -1.1349 0.0704 -6.9583 0
M  V30 55 H -2.3697 -2.3023 -5.4689 0
M  V30 56 H -2.2885 -2.1324 -3.0431 0
M  V30 57 H -0.805 -2.9882 -3.4574 0
M  V30 58 H -0.9319 -2.7129 -7.166 0
M  V30 59 H -1.0629 -0.6299 -1.5397 0
M  V30 60 H 0.4913 -1.2952 -2.0746 0
M  V30 61 H -0.1652 -3.5276 -1.1007 0
M  V30 62 H -2.418 -3.2385 -1.1736 0
M  V30 63 H 1.1507 -1.7951 0.1959 0
M  V30 64 H -0.3655 -1.1606 0.8395 0
M  V30 65 H -0.8585 -3.3388 1.9435 0
M  V30 66 H 0.5892 -4.0425 1.2486 0
M  V30 67 H 2.8042 -3.5458 2.1701 0
M  V30 68 H -0.6858 -1.4863 3.6478 0
M  V30 69 H 4.1123 -2.6809 4.0785 0
M  V30 70 H 0.6285 -0.6485 5.5592 0
M  V30 71 H 3.0316 -1.2333 5.779 0
M  V30 END ATOM
M  V30 BEGIN BOND
M  V30 1 2 1 2
M  V30 2 1 2 3
M  V30 3 1 2 4
M  V30 4 1 3 5
M  V30 5 1 4 6
M  V30 6 1 5 7
M  V30 7 1 5 8
M  V30 8 1 6 9
M  V30 9 1 9 10
M  V30 10 2 10 11
M  V30 11 1 11 12
M  V30 12 1 12 13
M  V30 13 1 13 14
M  V30 14 1 13 15
M  V30 15 1 14 16
M  V30 16 1 14 17
M  V30 17 1 15 18
M  V30 18 1 15 19
M  V30 19 1 18 20
M  V30 20 1 19 21
M  V30 21 1 21 22
M  V30 22 1 22 23
M  V30 23 1 22 24
M  V30 24 1 24 25
M  V30 25 1 25 26
M  V30 26 2 26 27
M  V30 27 1 26 28
M  V30 28 1 27 29
M  V30 29 2 28 30
M  V30 30 2 29 31
M  V30 31 1 17 18
M  V30 32 1 30 31
M  V30 33 1 4 32
M  V30 34 1 4 33
M  V30 35 1 5 34
M  V30 36 1 6 35
M  V30 37 1 6 36
M  V30 38 1 7 37
M  V30 39 1 7 38
M  V30 40 1 7 39
M  V30 41 1 8 40
M  V30 42 1 8 41
M  V30 43 1 8 42
M  V30 44 1 9 43
M  V30 45 1 9 44
M  V30 46 1 10 45
M  V30 47 1 11 46
M  V30 48 1 12 47
M  V30 49 1 12 48
M  V30 50 1 13 49
M  V30 51 1 14 50
M  V30 52 1 15 51
M  V30 53 1 16 52
M  V30 54 1 17 53
M  V30 55 1 17 54
M  V30 56 1 18 55
M  V30 57 1 19 56
M  V30 58 1 19 57
M  V30 59 1 20 58
M  V30 60 1 21 59
M  V30 61 1 21 60
M  V30 62 1 22 61
M  V30 63 1 23 62
M  V30 64 1 24 63
M  V30 65 1 24 64
M  V30 66 1 25 65
M  V30 67 1 25 66
M  V30 68 1 27 67
M  V30 69 1 28 68
M  V30 70 1 29 69
M  V30 71 1 30 70
M  V30 72 1 31 71
M  V30 END BOND
M  V30 END CTAB
M  END
>  <NO.>
5636

>  <Name>
15(s)-latanoprost

>  <SMILES>
CC(C)OC(=O)CCC/C=C/CC1C(O)CC(O)C1CCC(O)CCc1ccccc1

>  <logBB>


>  <Class>
-1

>  <MW>
432.29

>  <nHBAcc>
5

>  <nHBDon>
3

>  <SLogP>
4.19

>  <TopoPSA>
86.99

>  <MMFF94 Energy>
45.453

$$$$
CC(C)OP(=O)(F)OC(C)C
Actelion Java MolfileCreator 2.0

  0  0  0  0  0  0              0 V3000
M  V30 BEGIN CTAB
M  V30 COUNTS 25 24 0 0 0
M  V30 BEGIN ATOM
M  V30 1 P 0.2386 -0.4772 0.2386 0
M  V30 2 F -0.0412 -0.7917 1.7496 0
M  V30 3 O 1.204 -1.4477 -0.3648 0
M  V30 4 O -1.2264 -0.436 -0.4247 0
M  V30 5 O 0.6994 1.064 0.244 0
M  V30 6 C -1.9237 -1.6681 -0.533 0
M  V30 7 C 1.9643 1.3602 0.817 0
M  V30 8 C -3.3695 -1.4263 -0.1253 0
M  V30 9 C -1.8307 -2.1575 -1.9706 0
M  V30 10 C 2.969 1.581 -0.3038 0
M  V30 11 C 1.8106 2.6084 1.6734 0
M  V30 12 H -1.4838 -2.413 0.1403 0
M  V30 13 H 2.2959 0.531 1.4528 0
M  V30 14 H -3.9612 -2.3443 -0.1925 0
M  V30 15 H -3.4171 -1.0551 0.9043 0
M  V30 16 H -3.8346 -0.661 -0.7566 0
M  V30 17 H -2.2378 -1.4148 -2.6657 0
M  V30 18 H -0.7855 -2.3141 -2.2566 0
M  V30 19 H -2.3723 -3.0987 -2.1057 0
M  V30 20 H 3.9577 1.8317 0.0923 0
M  V30 21 H 3.0602 0.6814 -0.9212 0
M  V30 22 H 2.643 2.3868 -0.9709 0
M  V30 23 H 1.4476 3.4534 1.0776 0
M  V30 24 H 1.0693 2.4393 2.4622 0
M  V30 25 H 2.759 2.89 2.141 0
M  V30 END ATOM
M  V30 BEGIN BOND
M  V30 1 1 1 2
M  V30 2 2 1 3
M  V30 3 1 1 4
M  V30 4 1 1 5
M  V30 5 1 4 6
M  V30 6 1 5 7
M  V30 7 1 6 8
M  V30 8 1 6 9
M  V30 9 1 7 10
M  V30 10 1 7 11
M  V30 11 1 6 12
M  V30 12 1 7 13
M  V30 13 1 8 14
M  V30 14 1 8 15
M  V30 15 1 8 16
M  V30 16 1 9 17
M  V30 17 1 9 18
M  V30 18 1 9 19
M  V30 19 1 10 20
M  V30 20 1 10 21
M  V30 21 1 10 22
M  V30 22 1 11 23
M  V30 23 1 11 24
M  V30 24 1 11 25
M  V30 END BOND
M  V30 END CTAB
M  END
>  <NO.>
5637

>  <Name>
isoflurophate

>  <SMILES>
CC(C)OP(=O)(F)OC(C)C

>  <logBB>


>  <Class>
-1

>  <MW>
184.07

>  <nHBAcc>
3

>  <nHBDon>
0

>  <SLogP>
2.91

>  <TopoPSA>
35.53

>  <MMFF94 Energy>
-48.79

$$$$
CC(C)c1cc2c(cc1S(=O)(=O)O)C1(C)CCCC(C)(C(=O)O)C1CC2
Actelion Java MolfileCreator 2.0

  0  0  0  0  0  0              0 V3000
M  V30 BEGIN CTAB
M  V30 COUNTS 54 56 0 0 0
M  V30 BEGIN ATOM
M  V30 1 S 1.2931 3.2351 -2.8303 0
M  V30 2 O 0.2771 3.7244 -3.7344 0
M  V30 3 O 2.4005 2.4297 -3.3032 0
M  V30 4 O 2.0022 4.4994 -2.1207 0
M  V30 5 C 0.4819 2.3634 -1.5023 0
M  V30 6 C -0.4024 2.9987 -0.6148 0
M  V30 7 C 0.7867 0.9956 -1.3605 0
M  V30 8 C -0.9317 2.2122 0.4259 0
M  V30 9 C -0.8125 4.4626 -0.7146 0
M  V30 10 C 0.2305 0.2088 -0.334 0
M  V30 11 C -0.6206 0.8461 0.5843 0
M  V30 12 C -2.3324 4.6252 -0.8436 0
M  V30 13 C -0.2795 5.2693 0.4738 0
M  V30 14 C 0.6077 -1.2857 -0.1858 0
M  V30 15 C -1.2802 0.1153 1.727 0
M  V30 16 C -0.4748 -2.0211 0.6887 0
M  V30 17 C 0.6493 -1.9929 -1.5696 0
M  V30 18 C 2.0256 -1.2973 0.436 0
M  V30 19 C -0.6951 -1.2643 2.0084 0
M  V30 20 C -0.3043 -3.5733 0.8179 0
M  V30 21 C 0.8557 -3.5021 -1.4831 0
M  V30 22 C 0.8882 -4.0238 1.6623 0
M  V30 23 C -0.1906 -4.1783 -0.606 0
M  V30 24 C -1.5538 -4.2183 1.4669 0
M  V30 25 O 1.7926 -4.7659 1.3144 0
M  V30 26 O 0.8738 -3.5572 2.9245 0
M  V30 27 H 2.9673 4.4105 -2.2699 0
M  V30 28 H 1.485 0.5439 -2.0624 0
M  V30 29 H -1.6135 2.6678 1.145 0
M  V30 30 H -0.3958 4.9188 -1.6139 0
M  V30 31 H -2.8636 4.3019 0.0577 0
M  V30 32 H -2.5909 5.6758 -1.0166 0
M  V30 33 H -2.7169 4.0425 -1.688 0
M  V30 34 H -0.7173 4.9411 1.4229 0
M  V30 35 H 0.8085 5.1721 0.5571 0
M  V30 36 H -0.5124 6.3328 0.352 0
M  V30 37 H -1.2116 0.7169 2.6418 0
M  V30 38 H -2.3458 0.0077 1.4855 0
M  V30 39 H -1.4239 -1.9062 0.1354 0
M  V30 40 H 1.4521 -1.5897 -2.1979 0
M  V30 41 H -0.2881 -1.7975 -2.1087 0
M  V30 42 H 2.0589 -0.7831 1.4023 0
M  V30 43 H 2.4204 -2.3029 0.5817 0
M  V30 44 H 2.7446 -0.7814 -0.2129 0
M  V30 45 H 0.2418 -1.1526 2.5628 0
M  V30 46 H -1.3873 -1.7915 2.6716 0
M  V30 47 H 1.8632 -3.725 -1.1165 0
M  V30 48 H 0.802 -3.9271 -2.4928 0
M  V30 49 H -1.1616 -4.0952 -1.1138 0
M  V30 50 H 0.0324 -5.252 -0.5546 0
M  V30 51 H -2.4702 -3.9284 0.9408 0
M  V30 52 H -1.4865 -5.3129 1.4401 0
M  V30 53 H -1.6704 -3.9423 2.5197 0
M  V30 54 H 1.6748 -3.9522 3.3294 0
M  V30 END ATOM
M  V30 BEGIN BOND
M  V30 1 2 1 2
M  V30 2 2 1 3
M  V30 3 1 1 4
M  V30 4 1 1 5
M  V30 5 2 5 6
M  V30 6 1 5 7
M  V30 7 1 6 8
M  V30 8 1 6 9
M  V30 9 2 7 10
M  V30 10 2 8 11
M  V30 11 1 9 12
M  V30 12 1 9 13
M  V30 13 1 10 14
M  V30 14 1 11 15
M  V30 15 1 14 16
M  V30 16 1 14 17
M  V30 17 1 14 18
M  V30 18 1 15 19
M  V30 19 1 16 20
M  V30 20 1 17 21
M  V30 21 1 20 22
M  V30 22 1 20 23
M  V30 23 1 20 24
M  V30 24 2 22 25
M  V30 25 1 22 26
M  V30 26 1 10 11
M  V30 27 1 16 19
M  V30 28 1 21 23
M  V30 29 1 4 27
M  V30 30 1 7 28
M  V30 31 1 8 29
M  V30 32 1 9 30
M  V30 33 1 12 31
M  V30 34 1 12 32
M  V30 35 1 12 33
M  V30 36 1 13 34
M  V30 37 1 13 35
M  V30 38 1 13 36
M  V30 39 1 15 37
M  V30 40 1 15 38
M  V30 41 1 16 39
M  V30 42 1 17 40
M  V30 43 1 17 41
M  V30 44 1 18 42
M  V30 45 1 18 43
M  V30 46 1 18 44
M  V30 47 1 19 45
M  V30 48 1 19 46
M  V30 49 1 21 47
M  V30 50 1 21 48
M  V30 51 1 23 49
M  V30 52 1 23 50
M  V30 53 1 24 51
M  V30 54 1 24 52
M  V30 55 1 24 53
M  V30 56 1 26 54
M  V30 END BOND
M  V30 END CTAB
M  END
>  <NO.>
5639

>  <Name>
ecabet

>  <SMILES>
CC(C)c1cc2c(cc1S(=O)(=O)O)C1(C)CCCC(C)(C(=O)O)C1CC2

>  <logBB>


>  <Class>
-1

>  <MW>
380.17

>  <nHBAcc>
3

>  <nHBDon>
2

>  <SLogP>
4.15

>  <TopoPSA>
91.67

>  <MMFF94 Energy>
17.912

$$$$
CC(C)c1ccc2oc3nc(N)c(C(=O)O)cc3c(=O)c2c1
Actelion Java MolfileCreator 2.0

  0  0  0  0  0  0              0 V3000
M  V30 BEGIN CTAB
M  V30 COUNTS 36 38 0 0 0
M  V30 BEGIN ATOM
M  V30 1 O -2.0 1.1196 0.7196 0
M  V30 2 C -1.0649 0.3331 0.6607 0
M  V30 3 C -0.9056 -0.7329 1.6522 0
M  V30 4 C -0.0506 0.4098 -0.3986 0
M  V30 5 C 0.1724 -1.5925 1.5508 0
M  V30 6 C -1.8108 -0.9 2.697 0
M  V30 7 C 0.9841 -0.519 -0.3879 0
M  V30 8 C -0.1228 1.3919 -1.3924 0
M  V30 9 O 1.1167 -1.5063 0.555 0
M  V30 10 N 0.3885 -2.5991 2.4297 0
M  V30 11 C -1.6022 -1.9355 3.6145 0
M  V30 12 C 1.9598 -0.4683 -1.3815 0
M  V30 13 C 0.8541 1.4522 -2.3977 0
M  V30 14 C -0.4843 -2.762 3.4499 0
M  V30 15 C -2.5204 -2.1373 4.7587 0
M  V30 16 C 1.8953 0.5097 -2.3788 0
M  V30 17 C 0.7648 2.5229 -3.4715 0
M  V30 18 N -0.2252 -3.8508 4.2512 0
M  V30 19 O -2.3139 -2.8239 5.743 0
M  V30 20 O -3.6725 -1.4561 4.618 0
M  V30 21 C 1.9735 3.4611 -3.4317 0
M  V30 22 C 0.5952 1.9099 -4.8636 0
M  V30 23 H -2.6605 -0.2277 2.7908 0
M  V30 24 H -0.9437 2.1073 -1.3775 0
M  V30 25 H 2.7739 -1.1893 -1.3838 0
M  V30 26 H 2.6693 0.5283 -3.1437 0
M  V30 27 H -0.1254 3.1366 -3.2793 0
M  V30 28 H -0.5992 -3.8685 5.1955 0
M  V30 29 H 0.6188 -4.3639 4.0398 0
M  V30 30 H -4.1882 -1.6759 5.4227 0
M  V30 31 H 2.9059 2.9388 -3.6719 0
M  V30 32 H 1.8528 4.2749 -4.1549 0
M  V30 33 H 2.0884 3.9096 -2.4386 0
M  V30 34 H 1.4707 1.3237 -5.1629 0
M  V30 35 H -0.277 1.2475 -4.896 0
M  V30 36 H 0.4483 2.6942 -5.6141 0
M  V30 END ATOM
M  V30 BEGIN BOND
M  V30 1 2 1 2
M  V30 2 1 2 3
M  V30 3 1 2 4
M  V30 4 2 3 5
M  V30 5 1 3 6
M  V30 6 2 4 7
M  V30 7 1 4 8
M  V30 8 1 5 9
M  V30 9 1 5 10
M  V30 10 2 6 11
M  V30 11 1 7 12
M  V30 12 2 8 13
M  V30 13 2 10 14
M  V30 14 1 11 15
M  V30 15 2 12 16
M  V30 16 1 13 17
M  V30 17 1 14 18
M  V30 18 2 15 19
M  V30 19 1 15 20
M  V30 20 1 17 21
M  V30 21 1 17 22
M  V30 22 1 7 9
M  V30 23 1 11 14
M  V30 24 1 13 16
M  V30 25 1 6 23
M  V30 26 1 8 24
M  V30 27 1 12 25
M  V30 28 1 16 26
M  V30 29 1 17 27
M  V30 30 1 18 28
M  V30 31 1 18 29
M  V30 32 1 20 30
M  V30 33 1 21 31
M  V30 34 1 21 32
M  V30 35 1 21 33
M  V30 36 1 22 34
M  V30 37 1 22 35
M  V30 38 1 22 36
M  V30 END BOND
M  V30 END CTAB
M  END
>  <NO.>
5640

>  <Name>
amlexanox

>  <SMILES>
CC(C)c1ccc2oc3nc(N)c(C(=O)O)cc3c(=O)c2c1

>  <logBB>


>  <Class>
-1

>  <MW>
298.1

>  <nHBAcc>
5

>  <nHBDon>
2

>  <SLogP>
2.74

>  <TopoPSA>
106.42

>  <MMFF94 Energy>
20.315

$$$$
CC(CCC(=O)NCCS(=O)(=O)O)C1CCC2C3C(O)CC4CC(O)CCC4(C)C3CCC12C
Actelion Java MolfileCreator 2.0

  0  0  0  0  0  0              0 V3000
M  V30 BEGIN CTAB
M  V30 COUNTS 79 82 0 0 0
M  V30 BEGIN ATOM
M  V30 1 S -4.581 -7.8053 -3.6152 0
M  V30 2 O -6.0145 -7.9246 -3.7613 0
M  V30 3 O -3.7334 -8.9621 -3.4452 0
M  V30 4 O -4.0646 -7.0047 -4.9169 0
M  V30 5 C -4.1961 -6.5939 -2.3661 0
M  V30 6 C -5.0499 -5.3505 -2.5213 0
M  V30 7 N -4.8076 -4.3754 -1.4698 0
M  V30 8 C -3.6809 -3.5801 -1.4684 0
M  V30 9 O -2.8023 -3.6722 -2.3172 0
M  V30 10 C -3.6387 -2.6118 -0.3 0
M  V30 11 C -2.4513 -1.6493 -0.391 0
M  V30 12 C -2.468 -0.5189 0.6756 0
M  V30 13 C -1.37 0.5441 0.3491 0
M  V30 14 C -2.3111 -1.124 2.0738 0
M  V30 15 C -1.1748 1.7816 1.2869 0
M  V30 16 C -1.605 1.182 -1.0454 0
M  V30 17 C -0.4081 2.7759 0.3593 0
M  V30 18 C -0.3623 1.535 2.5706 0
M  V30 19 C -2.5367 2.3901 1.7049 0
M  V30 20 C -1.163 2.6408 -0.9678 0
M  V30 21 C 1.1167 2.4739 0.1797 0
M  V30 22 C 1.0951 1.1641 2.3345 0
M  V30 23 C 1.8144 3.5826 -0.6386 0
M  V30 24 C 1.8293 2.2606 1.5417 0
M  V30 25 O 1.6158 4.8716 -0.0629 0
M  V30 26 C 3.3045 3.3135 -0.8072 0
M  V30 27 C 3.3859 2.0055 1.417 0
M  V30 28 C 4.0427 3.1125 0.5282 0
M  V30 29 C 3.6994 0.6022 0.8249 0
M  V30 30 C 4.0016 2.0918 2.8428 0
M  V30 31 C 5.5369 2.8468 0.251 0
M  V30 32 C 5.1871 0.3603 0.5671 0
M  V30 33 C 5.8086 1.4483 -0.3003 0
M  V30 34 O 7.2148 1.239 -0.3908 0
M  V30 35 H -4.7016 -7.1537 -5.6478 0
M  V30 36 H -4.3818 -7.0714 -1.398 0
M  V30 37 H -3.1254 -6.3784 -2.4324 0
M  V30 38 H -6.1157 -5.5978 -2.476 0
M  V30 39 H -4.8635 -4.8672 -3.4868 0
M  V30 40 H -5.5066 -4.2455 -0.748 0
M  V30 41 H -3.5886 -3.2122 0.6138 0
M  V30 42 H -4.578 -2.0466 -0.2884 0
M  V30 43 H -2.4577 -1.2131 -1.396 0
M  V30 44 H -1.5143 -2.2159 -0.3123 0
M  V30 45 H -3.4507 -0.0322 0.6288 0
M  V30 46 H -0.4181 6.0E-4 0.2898 0
M  V30 47 H -2.5258 -0.3895 2.8521 0
M  V30 48 H -1.2997 -1.5146 2.2255 0
M  V30 49 H -3.0155 -1.9414 2.249 0
M  V30 50 H -2.6566 1.1389 -1.3514 0
M  V30 51 H -1.0203 0.6484 -1.8037 0
M  V30 52 H -0.5164 3.7975 0.7448 0
M  V30 53 H -0.379 2.448 3.1828 0
M  V30 54 H -0.8189 0.7645 3.1946 0
M  V30 55 H -2.398 3.3743 2.1675 0
M  V30 56 H -3.2186 2.5202 0.859 0
M  V30 57 H -3.05 1.7611 2.4385 0
M  V30 58 H -0.5882 2.9246 -1.8518 0
M  V30 59 H -2.0468 3.2906 -0.9602 0
M  V30 60 H 1.2131 1.5443 -0.3961 0
M  V30 61 H 1.558 1.0222 3.3158 0
M  V30 62 H 1.1525 0.1998 1.8205 0
M  V30 63 H 1.3828 3.6346 -1.6423 0
M  V30 64 H 1.7105 3.1913 2.116 0
M  V30 65 H 1.984 4.8777 0.8348 0
M  V30 66 H 3.4268 2.4358 -1.4514 0
M  V30 67 H 3.7608 4.1612 -1.3345 0
M  V30 68 H 3.9905 4.0648 1.0741 0
M  V30 69 H 3.3465 -0.1852 1.501 0
M  V30 70 H 3.1613 0.4592 -0.1187 0
M  V30 71 H 5.0941 2.0543 2.8363 0
M  V30 72 H 3.717 3.0284 3.3357 0
M  V30 73 H 3.6734 1.2642 3.479 0
M  V30 74 H 6.1215 3.0001 1.1665 0
M  V30 75 H 5.9329 3.5939 -0.4493 0
M  V30 76 H 5.3225 -0.6134 0.08 0
M  V30 77 H 5.7302 0.2787 1.5166 0
M  V30 78 H 5.4154 1.3677 -1.3191 0
M  V30 79 H 7.5869 1.2965 0.5057 0
M  V30 END ATOM
M  V30 BEGIN BOND
M  V30 1 2 1 2
M  V30 2 2 1 3
M  V30 3 1 1 4
M  V30 4 1 1 5
M  V30 5 1 5 6
M  V30 6 1 6 7
M  V30 7 1 7 8
M  V30 8 2 8 9
M  V30 9 1 8 10
M  V30 10 1 10 11
M  V30 11 1 11 12
M  V30 12 1 12 13
M  V30 13 1 12 14
M  V30 14 1 13 15
M  V30 15 1 13 16
M  V30 16 1 15 17
M  V30 17 1 15 18
M  V30 18 1 15 19
M  V30 19 1 16 20
M  V30 20 1 17 21
M  V30 21 1 18 22
M  V30 22 1 21 23
M  V30 23 1 21 24
M  V30 24 1 23 25
M  V30 25 1 23 26
M  V30 26 1 24 27
M  V30 27 1 26 28
M  V30 28 1 27 29
M  V30 29 1 27 30
M  V30 30 1 28 31
M  V30 31 1 29 32
M  V30 32 1 31 33
M  V30 33 1 33 34
M  V30 34 1 17 20
M  V30 35 1 22 24
M  V30 36 1 27 28
M  V30 37 1 32 33
M  V30 38 1 4 35
M  V30 39 1 5 36
M  V30 40 1 5 37
M  V30 41 1 6 38
M  V30 42 1 6 39
M  V30 43 1 7 40
M  V30 44 1 10 41
M  V30 45 1 10 42
M  V30 46 1 11 43
M  V30 47 1 11 44
M  V30 48 1 12 45
M  V30 49 1 13 46
M  V30 50 1 14 47
M  V30 51 1 14 48
M  V30 52 1 14 49
M  V30 53 1 16 50
M  V30 54 1 16 51
M  V30 55 1 17 52
M  V30 56 1 18 53
M  V30 57 1 18 54
M  V30 58 1 19 55
M  V30 59 1 19 56
M  V30 60 1 19 57
M  V30 61 1 20 58
M  V30 62 1 20 59
M  V30 63 1 21 60
M  V30 64 1 22 61
M  V30 65 1 22 62
M  V30 66 1 23 63
M  V30 67 1 24 64
M  V30 68 1 25 65
M  V30 69 1 26 66
M  V30 70 1 26 67
M  V30 71 1 28 68
M  V30 72 1 29 69
M  V30 73 1 29 70
M  V30 74 1 30 71
M  V30 75 1 30 72
M  V30 76 1 30 73
M  V30 77 1 31 74
M  V30 78 1 31 75
M  V30 79 1 32 76
M  V30 80 1 32 77
M  V30 81 1 33 78
M  V30 82 1 34 79
M  V30 END BOND
M  V30 END CTAB
M  END
>  <NO.>
5645

>  <Name>
tauroursodeoxycholic acid

>  <SMILES>
CC(CCC(=O)NCCS(=O)(=O)O)C1CCC2C3C(O)CC4CC(O)CCC4(C)C3CCC12C

>  <logBB>


>  <Class>
-1

>  <MW>
499.3

>  <nHBAcc>
5

>  <nHBDon>
4

>  <SLogP>
3.4

>  <TopoPSA>
123.93

>  <MMFF94 Energy>
10.163

$$$$
CC(Cc1cc2c(c(C(N)=O)c1)N(CCCO)CC2)NCCOc1ccccc1OCC(F)(F)F
Actelion Java MolfileCreator 2.0

  0  0  0  0  0  0              0 V3000
M  V30 BEGIN CTAB
M  V30 COUNTS 67 69 0 0 0
M  V30 BEGIN ATOM
M  V30 1 F -0.0794 -2.7025 -2.8617 0
M  V30 2 C -1.201 -2.7788 -3.6125 0
M  V30 3 F -2.2586 -2.8203 -2.771 0
M  V30 4 F -1.1654 -3.9626 -4.2699 0
M  V30 5 C -1.309 -1.6271 -4.5954 0
M  V30 6 O -1.3527 -0.3738 -3.8919 0
M  V30 7 C -0.7366 0.6224 -4.6025 0
M  V30 8 C 0.6575 0.6934 -4.7278 0
M  V30 9 C -1.5495 1.6292 -5.1227 0
M  V30 10 O 1.3979 -0.3186 -4.1734 0
M  V30 11 C 1.2242 1.7487 -5.4464 0
M  V30 12 C -0.9757 2.6893 -5.8224 0
M  V30 13 C 2.6006 0.1216 -3.5255 0
M  V30 14 C 0.4078 2.7446 -5.9904 0
M  V30 15 C 3.0837 -0.977 -2.5647 0
M  V30 16 N 2.1022 -1.1914 -1.4946 0
M  V30 17 C 2.474 -2.2641 -0.5575 0 CFG=2
M  V30 18 C 1.2484 -2.7488 0.2646 0
M  V30 19 C 3.6221 -1.8312 0.3594 0
M  V30 20 C 0.5826 -1.72 1.152 0
M  V30 21 C 0.9189 -1.6301 2.5163 0
M  V30 22 C -0.3753 -0.8449 0.6313 0
M  V30 23 C 0.3225 -0.6743 3.3627 0
M  V30 24 C -0.9656 0.0854 1.476 0
M  V30 25 C -0.6486 0.1816 2.8396 0
M  V30 26 C 0.8276 -0.632 4.7559 0
M  V30 27 C -2.0623 1.0314 1.1289 0
M  V30 28 N -1.4452 1.1628 3.4912 0
M  V30 29 O 1.1253 -1.6532 5.3635 0
M  V30 30 N 1.0038 0.5994 5.3133 0
M  V30 31 C -2.0779 1.9165 2.3782 0
M  V30 32 C -2.3045 0.6609 4.578 0
M  V30 33 C -2.8317 1.8004 5.4588 0
M  V30 34 C -1.7205 2.5493 6.1869 0
M  V30 35 O -0.8857 3.2503 5.2726 0
M  V30 36 H -0.4809 -1.6908 -5.3115 0
M  V30 37 H -2.2424 -1.7219 -5.162 0
M  V30 38 H -2.6259 1.5874 -4.9835 0
M  V30 39 H 2.2962 1.8109 -5.603 0
M  V30 40 H -1.6061 3.4723 -6.2362 0
M  V30 41 H 2.4317 1.0517 -2.9666 0
M  V30 42 H 3.3764 0.2871 -4.2816 0
M  V30 43 H 0.8536 3.5675 -6.5441 0
M  V30 44 H 4.0485 -0.6697 -2.1501 0
M  V30 45 H 3.2206 -1.9078 -3.1272 0
M  V30 46 H 1.2123 -1.4345 -1.9418 0
M  V30 47 H 2.8099 -3.1358 -1.1348 0
M  V30 48 H 0.4905 -3.1554 -0.4184 0
M  V30 49 H 1.5527 -3.6047 0.8825 0
M  V30 50 H 4.5505 -1.6888 -0.2025 0
M  V30 51 H 3.3984 -0.8916 0.8761 0
M  V30 52 H 3.8214 -2.5959 1.1181 0
M  V30 53 H 1.6716 -2.3011 2.929 0
M  V30 54 H -0.6646 -0.8944 -0.4148 0
M  V30 55 H -3.0068 0.4883 1.0207 0
M  V30 56 H -1.8572 1.6111 0.2249 0
M  V30 57 H 0.7765 1.4523 4.8193 0
M  V30 58 H 1.3789 0.6621 6.2485 0
M  V30 59 H -1.4782 2.8183 2.1969 0
M  V30 60 H -3.0946 2.2495 2.6117 0
M  V30 61 H -1.7681 -0.0463 5.2194 0
M  V30 62 H -3.1539 0.1149 4.1481 0
M  V30 63 H -3.518 1.3774 6.2015 0
M  V30 64 H -3.4059 2.5083 4.8509 0
M  V30 65 H -2.1505 3.2851 6.8734 0
M  V30 66 H -1.1014 1.8649 6.7743 0
M  V30 67 H -0.8346 2.689 4.4699 0
M  V30 END ATOM
M  V30 BEGIN BOND
M  V30 1 1 1 2
M  V30 2 1 2 3
M  V30 3 1 2 4
M  V30 4 1 2 5
M  V30 5 1 5 6
M  V30 6 1 6 7
M  V30 7 2 7 8
M  V30 8 1 7 9
M  V30 9 1 8 10
M  V30 10 1 8 11
M  V30 11 2 9 12
M  V30 12 1 10 13
M  V30 13 2 11 14
M  V30 14 1 13 15
M  V30 15 1 15 16
M  V30 16 1 16 17
M  V30 17 1 17 18
M  V30 18 1 17 19
M  V30 19 1 18 20
M  V30 20 2 20 21
M  V30 21 1 20 22
M  V30 22 1 21 23
M  V30 23 2 22 24
M  V30 24 2 23 25
M  V30 25 1 23 26
M  V30 26 1 24 27
M  V30 27 1 25 28
M  V30 28 2 26 29
M  V30 29 1 26 30
M  V30 30 1 27 31
M  V30 31 1 28 32
M  V30 32 1 32 33
M  V30 33 1 33 34
M  V30 34 1 34 35
M  V30 35 1 12 14
M  V30 36 1 24 25
M  V30 37 1 28 31
M  V30 38 1 5 36
M  V30 39 1 5 37
M  V30 40 1 9 38
M  V30 41 1 11 39
M  V30 42 1 12 40
M  V30 43 1 13 41
M  V30 44 1 13 42
M  V30 45 1 14 43
M  V30 46 1 15 44
M  V30 47 1 15 45
M  V30 48 1 16 46
M  V30 49 1 17 47
M  V30 50 1 18 48
M  V30 51 1 18 49
M  V30 52 1 19 50
M  V30 53 1 19 51
M  V30 54 1 19 52
M  V30 55 1 21 53
M  V30 56 1 22 54
M  V30 57 1 27 55
M  V30 58 1 27 56
M  V30 59 1 30 57
M  V30 60 1 30 58
M  V30 61 1 31 59
M  V30 62 1 31 60
M  V30 63 1 32 61
M  V30 64 1 32 62
M  V30 65 1 33 63
M  V30 66 1 33 64
M  V30 67 1 34 65
M  V30 68 1 34 66
M  V30 69 1 35 67
M  V30 END BOND
M  V30 BEGIN COLLECTION
M  V30 MDLV30/STERAC1 ATOMS=(1 17)
M  V30 END COLLECTION
M  V30 END CTAB
M  END
>  <NO.>
5646

>  <Name>
silodosin

>  <SMILES>
CC(Cc1cc2c(c(C(N)=O)c1)N(CCCO)CC2)NCCOc1ccccc1OCC(F)(F)F

>  <logBB>


>  <Class>
-1

>  <MW>
495.23

>  <nHBAcc>
6

>  <nHBDon>
3

>  <SLogP>
3.07

>  <TopoPSA>
97.05

>  <MMFF94 Energy>
141

$$$$
CC(Cc1ccccc1)NC(=O)C(N)CCCCN
Actelion Java MolfileCreator 2.0

  0  0  0  0  0  0              0 V3000
M  V30 BEGIN CTAB
M  V30 COUNTS 44 44 0 0 0
M  V30 BEGIN ATOM
M  V30 1 O 2.0965 0.0775 0.776 0
M  V30 2 C 1.0316 0.5833 1.1158 0
M  V30 3 N 0.1514 -0.0368 1.9858 0
M  V30 4 C 0.5111 1.9509 0.6083 0
M  V30 5 C 0.414 -1.3571 2.5447 0
M  V30 6 N 0.5126 2.904 1.7369 0
M  V30 7 C 1.357 2.522 -0.5368 0
M  V30 8 C 0.0445 -2.4909 1.5619 0
M  V30 9 C -0.2756 -1.4959 3.9007 0
M  V30 10 C 1.1835 1.7301 -1.8395 0
M  V30 11 C -1.3938 -2.4873 1.0914 0
M  V30 12 C 1.9938 2.3528 -2.9797 0
M  V30 13 C -2.3803 -3.1918 1.7941 0
M  V30 14 C -1.7603 -1.7712 -0.0573 0
M  V30 15 C 1.8325 1.5539 -4.2721 0
M  V30 16 C -3.7077 -3.171 1.3625 0
M  V30 17 C -3.0875 -1.752 -0.4879 0
M  V30 18 N 2.5938 2.173 -5.3503 0
M  V30 19 C -4.0611 -2.4501 0.2234 0
M  V30 20 H -0.7643 0.3683 2.1261 0
M  V30 21 H -0.5242 1.8163 0.2719 0
M  V30 22 H 1.4951 -1.4274 2.7222 0
M  V30 23 H -0.0219 2.5253 2.5153 0
M  V30 24 H 0.0653 3.7733 1.4534 0
M  V30 25 H 2.4181 2.5389 -0.2568 0
M  V30 26 H 1.0616 3.5627 -0.7257 0
M  V30 27 H 0.6948 -2.4313 0.6788 0
M  V30 28 H 0.2697 -3.4625 2.021 0
M  V30 29 H -1.3564 -1.3369 3.8278 0
M  V30 30 H -0.0978 -2.4858 4.3329 0
M  V30 31 H 0.1103 -0.7478 4.6024 0
M  V30 32 H 0.1221 1.7096 -2.1157 0
M  V30 33 H 1.4984 0.6904 -1.6975 0
M  V30 34 H 1.6638 3.3875 -3.1374 0
M  V30 35 H 3.0536 2.3911 -2.6976 0
M  V30 36 H -2.1215 -3.7642 2.6821 0
M  V30 37 H -1.0076 -1.2309 -0.6277 0
M  V30 38 H 0.7759 1.5041 -4.5576 0
M  V30 39 H 2.1875 0.5281 -4.1269 0
M  V30 40 H -4.4659 -3.7219 1.9132 0
M  V30 41 H -3.3605 -1.1988 -1.3827 0
M  V30 42 H 2.4422 1.6542 -6.214 0
M  V30 43 H 2.2517 3.1182 -5.517 0
M  V30 44 H -5.0942 -2.4393 -0.1141 0
M  V30 END ATOM
M  V30 BEGIN BOND
M  V30 1 2 1 2
M  V30 2 1 2 3
M  V30 3 1 2 4
M  V30 4 1 3 5
M  V30 5 1 4 6
M  V30 6 1 4 7
M  V30 7 1 5 8
M  V30 8 1 5 9
M  V30 9 1 7 10
M  V30 10 1 8 11
M  V30 11 1 10 12
M  V30 12 2 11 13
M  V30 13 1 11 14
M  V30 14 1 12 15
M  V30 15 1 13 16
M  V30 16 2 14 17
M  V30 17 1 15 18
M  V30 18 2 16 19
M  V30 19 1 17 19
M  V30 20 1 3 20
M  V30 21 1 4 21
M  V30 22 1 5 22
M  V30 23 1 6 23
M  V30 24 1 6 24
M  V30 25 1 7 25
M  V30 26 1 7 26
M  V30 27 1 8 27
M  V30 28 1 8 28
M  V30 29 1 9 29
M  V30 30 1 9 30
M  V30 31 1 9 31
M  V30 32 1 10 32
M  V30 33 1 10 33
M  V30 34 1 12 34
M  V30 35 1 12 35
M  V30 36 1 13 36
M  V30 37 1 14 37
M  V30 38 1 15 38
M  V30 39 1 15 39
M  V30 40 1 16 40
M  V30 41 1 17 41
M  V30 42 1 18 42
M  V30 43 1 18 43
M  V30 44 1 19 44
M  V30 END BOND
M  V30 END CTAB
M  END
>  <NO.>
5647

>  <Name>
lisdexamfetamine

>  <SMILES>
CC(Cc1ccccc1)NC(=O)C(N)CCCCN

>  <logBB>


>  <Class>
1

>  <MW>
263.2

>  <nHBAcc>
3

>  <nHBDon>
3

>  <SLogP>
1.19

>  <TopoPSA>
81.14

>  <MMFF94 Energy>
47.538

$$$$
CC(O)C1C(=O)N2C(C(=O)OCOC(=O)C(C)(C)C)=C(SC3CN(C4=NCCS4)C3)C(C)C12
Actelion Java MolfileCreator 2.0

  0  0  0  0  0  0              0 V3000
M  V30 BEGIN CTAB
M  V30 COUNTS 64 67 0 0 0
M  V30 BEGIN ATOM
M  V30 1 S 1.6256 4.3937 1.1377 0
M  V30 2 C 0.5217 4.1601 -0.2121 0
M  V30 3 C 2.8677 5.0278 0.0048 0
M  V30 4 N 0.8007 4.8143 -1.2948 0
M  V30 5 N -0.5557 3.3472 -0.0333 0
M  V30 6 C 2.0146 5.6281 -1.0966 0
M  V30 7 C -0.4941 2.0841 0.6295 0
M  V30 8 C -1.2998 2.828 -1.1368 0
M  V30 9 C -1.781 1.7415 -0.15 0
M  V30 10 S -1.8053 0.0725 -0.8921 0
M  V30 11 C -1.778 -0.9258 0.5112 0
M  V30 12 C -0.7521 -1.702 0.8977 0
M  V30 13 C -3.0234 -1.2672 1.3171 0
M  V30 14 N -1.0808 -2.4781 1.9711 0
M  V30 15 C 0.5133 -1.901 0.1628 0
M  V30 16 C -2.4718 -2.2387 2.3825 0
M  V30 17 C -3.7017 -0.0879 2.0033 0
M  V30 18 C -1.1287 -3.8334 2.0142 0
M  V30 19 O 0.692 -2.7805 -0.6636 0
M  V30 20 O 1.4015 -0.9625 0.5647 0
M  V30 21 C -2.6503 -3.7942 2.313 0
M  V30 22 O -0.3064 -4.6834 1.7695 0
M  V30 23 C 2.6833 -1.0861 -0.0516 0
M  V30 24 C -3.1342 -4.5048 3.5677 0
M  V30 25 O 2.677 -0.7176 -1.4322 0
M  V30 26 O -2.435 -4.0189 4.709 0
M  V30 27 C -2.9513 -6.0113 3.4472 0
M  V30 28 C 2.7636 0.6131 -1.687 0
M  V30 29 O 2.8738 1.4783 -0.8287 0
M  V30 30 C 2.7332 0.8787 -3.1949 0
M  V30 31 C 2.7009 2.3929 -3.4505 0
M  V30 32 C 3.9982 0.2886 -3.8309 0
M  V30 33 C 1.4787 0.2459 -3.8127 0
M  V30 34 H 3.4711 4.1974 -0.3733 0
M  V30 35 H 3.5231 5.7654 0.4745 0
M  V30 36 H 2.5848 5.6688 -2.0308 0
M  V30 37 H 1.7188 6.6565 -0.8537 0
M  V30 38 H -0.6102 2.1532 1.7139 0
M  V30 39 H 0.4037 1.515 0.3738 0
M  V30 40 H -2.0693 3.515 -1.4977 0
M  V30 41 H -0.6637 2.4967 -1.9652 0
M  V30 42 H -2.7043 2.0232 0.3686 0
M  V30 43 H -3.7502 -1.7841 0.6784 0
M  V30 44 H -2.495 -1.8266 3.4007 0
M  V30 45 H -2.9858 0.5184 2.5692 0
M  V30 46 H -4.4651 -0.439 2.7066 0
M  V30 47 H -4.2015 0.5569 1.2745 0
M  V30 48 H -3.2344 -4.1131 1.4378 0
M  V30 49 H 3.3979 -0.4773 0.5149 0
M  V30 50 H 3.0434 -2.1193 0.0259 0
M  V30 51 H -4.1965 -4.2836 3.7201 0
M  V30 52 H -2.6167 -4.6184 5.455 0
M  V30 53 H -3.3633 -6.5177 4.3268 0
M  V30 54 H -1.8911 -6.2812 3.4009 0
M  V30 55 H -3.4484 -6.4036 2.5547 0
M  V30 56 H 3.568 2.8932 -3.0041 0
M  V30 57 H 2.7021 2.616 -4.5232 0
M  V30 58 H 1.8025 2.8446 -3.0176 0
M  V30 59 H 4.9015 0.7046 -3.3701 0
M  V30 60 H 4.0419 -0.7991 -3.7052 0
M  V30 61 H 4.0382 0.5001 -4.9051 0
M  V30 62 H 0.5706 0.616 -3.3242 0
M  V30 63 H 1.4814 -0.8449 -3.7094 0
M  V30 64 H 1.4046 0.4751 -4.8815 0
M  V30 END ATOM
M  V30 BEGIN BOND
M  V30 1 1 1 2
M  V30 2 1 1 3
M  V30 3 2 2 4
M  V30 4 1 2 5
M  V30 5 1 3 6
M  V30 6 1 5 7
M  V30 7 1 5 8
M  V30 8 1 7 9
M  V30 9 1 9 10
M  V30 10 1 10 11
M  V30 11 2 11 12
M  V30 12 1 11 13
M  V30 13 1 12 14
M  V30 14 1 12 15
M  V30 15 1 13 16
M  V30 16 1 13 17
M  V30 17 1 14 18
M  V30 18 2 15 19
M  V30 19 1 15 20
M  V30 20 1 16 21
M  V30 21 2 18 22
M  V30 22 1 20 23
M  V30 23 1 21 24
M  V30 24 1 23 25
M  V30 25 1 24 26
M  V30 26 1 24 27
M  V30 27 1 25 28
M  V30 28 2 28 29
M  V30 29 1 28 30
M  V30 30 1 30 31
M  V30 31 1 30 32
M  V30 32 1 30 33
M  V30 33 1 4 6
M  V30 34 1 8 9
M  V30 35 1 14 16
M  V30 36 1 18 21
M  V30 37 1 3 34
M  V30 38 1 3 35
M  V30 39 1 6 36
M  V30 40 1 6 37
M  V30 41 1 7 38
M  V30 42 1 7 39
M  V30 43 1 8 40
M  V30 44 1 8 41
M  V30 45 1 9 42
M  V30 46 1 13 43
M  V30 47 1 16 44
M  V30 48 1 17 45
M  V30 49 1 17 46
M  V30 50 1 17 47
M  V30 51 1 21 48
M  V30 52 1 23 49
M  V30 53 1 23 50
M  V30 54 1 24 51
M  V30 55 1 26 52
M  V30 56 1 27 53
M  V30 57 1 27 54
M  V30 58 1 27 55
M  V30 59 1 31 56
M  V30 60 1 31 57
M  V30 61 1 31 58
M  V30 62 1 32 59
M  V30 63 1 32 60
M  V30 64 1 32 61
M  V30 65 1 33 62
M  V30 66 1 33 63
M  V30 67 1 33 64
M  V30 END BOND
M  V30 END CTAB
M  END
>  <NO.>
5648

>  <Name>
tebipenem

>  <SMILES>
CC(O)C1C(=O)N2C(C(=O)OCOC(=O)C(C)(C)C)=C(SC3CN(C4=NCCS4)C3)C(C)C12

>  <logBB>


>  <Class>
-1

>  <MW>
497.17

>  <nHBAcc>
10

>  <nHBDon>
1

>  <SLogP>
1.67

>  <TopoPSA>
108.74

>  <MMFF94 Energy>
27.408

$$$$
CC(OC1OCCN(Cc2n[nH]c(=O)[nH]2)C1c1ccc(F)cc1)c1cc(C(F)(F)F)cc(C(F)(F)F)c1
Actelion Java MolfileCreator 2.0

  0  0  0  0  0  0              0 V3000
M  V30 BEGIN CTAB
M  V30 COUNTS 58 61 0 0 0
M  V30 BEGIN ATOM
M  V30 1 F 4.7323 -2.4456 -2.364 0
M  V30 2 C 3.8863 -1.9644 -1.444 0
M  V30 3 C 2.553 -2.3537 -1.4699 0
M  V30 4 C 4.3548 -1.0798 -0.4805 0
M  V30 5 C 1.671 -1.8528 -0.5116 0
M  V30 6 C 3.4752 -0.5762 0.4786 0
M  V30 7 C 2.1237 -0.9665 0.4828 0
M  V30 8 C 1.1338 -0.4111 1.5113 0
M  V30 9 N 1.6886 -0.4224 2.8974 0
M  V30 10 C 0.6833 1.0328 1.0559 0
M  V30 11 C 0.7479 0.2602 3.8078 0
M  V30 12 C 2.0754 -1.7544 3.4132 0
M  V30 13 O -0.1784 1.6442 2.0275 0
M  V30 14 O -0.0336 0.9099 -0.1776 0
M  V30 15 C 0.4455 1.6788 3.3121 0
M  V30 16 C 0.9775 -2.7868 3.3509 0
M  V30 17 C -0.2858 2.1579 -0.8226 0
M  V30 18 N -0.0035 -2.8992 4.2022 0
M  V30 19 N 0.9567 -3.695 2.3554 0
M  V30 20 C -1.4996 1.9665 -1.7169 0
M  V30 21 C 0.9255 2.5865 -1.6502 0
M  V30 22 N -0.7267 -3.9607 3.7222 0
M  V30 23 C -0.1438 -4.4661 2.57 0
M  V30 24 C -1.593 0.865 -2.5837 0
M  V30 25 C -2.5477 2.8989 -1.6972 0
M  V30 26 O -0.5278 -5.3972 1.8874 0
M  V30 27 C -2.7117 0.6794 -3.4098 0
M  V30 28 C -3.67 2.7481 -2.5283 0
M  V30 29 C -3.7425 1.632 -3.3776 0
M  V30 30 C -2.7861 -0.5059 -4.342 0
M  V30 31 C -4.7989 3.7508 -2.4795 0
M  V30 32 F -2.2762 -0.2254 -5.5728 0
M  V30 33 F -2.0988 -1.5916 -3.8899 0
M  V30 34 F -4.0614 -0.9354 -4.5548 0
M  V30 35 F -5.7533 3.4135 -1.57 0
M  V30 36 F -4.3856 5.0048 -2.1432 0
M  V30 37 F -5.4455 3.8816 -3.6714 0
M  V30 38 H 2.2066 -3.0349 -2.2412 0
M  V30 39 H 5.3997 -0.7858 -0.4845 0
M  V30 40 H 0.6218 -2.1432 -0.5553 0
M  V30 41 H 3.8484 0.1184 1.2291 0
M  V30 42 H 0.2305 -1.0373 1.4969 0
M  V30 43 H 1.5643 1.672 0.9156 0
M  V30 44 H 1.1803 0.3278 4.8125 0
M  V30 45 H -0.1963 -0.2919 3.8749 0
M  V30 46 H 2.4035 -1.6637 4.4559 0
M  V30 47 H 2.943 -2.1277 2.8583 0
M  V30 48 H -0.249 2.1692 4.0018 0
M  V30 49 H 1.3534 2.2922 3.2644 0
M  V30 50 H -0.5131 2.9294 -0.0765 0
M  V30 51 H 1.5944 -3.8088 1.586 0
M  V30 52 H 1.7859 2.7969 -1.0074 0
M  V30 53 H 1.2395 1.7938 -2.3389 0
M  V30 54 H 0.7114 3.4878 -2.2344 0
M  V30 55 H -1.5691 -4.3013 4.1659 0
M  V30 56 H -0.7839 0.1333 -2.6021 0
M  V30 57 H -2.494 3.7559 -1.0248 0
M  V30 58 H -4.6148 1.5011 -4.0204 0
M  V30 END ATOM
M  V30 BEGIN BOND
M  V30 1 1 1 2
M  V30 2 2 2 3
M  V30 3 1 2 4
M  V30 4 1 3 5
M  V30 5 2 4 6
M  V30 6 2 5 7
M  V30 7 1 7 8
M  V30 8 1 8 9
M  V30 9 1 8 10
M  V30 10 1 9 11
M  V30 11 1 9 12
M  V30 12 1 10 13
M  V30 13 1 10 14
M  V30 14 1 11 15
M  V30 15 1 12 16
M  V30 16 1 14 17
M  V30 17 2 16 18
M  V30 18 1 16 19
M  V30 19 1 17 20
M  V30 20 1 17 21
M  V30 21 1 18 22
M  V30 22 1 19 23
M  V30 23 2 20 24
M  V30 24 1 20 25
M  V30 25 2 23 26
M  V30 26 1 24 27
M  V30 27 2 25 28
M  V30 28 2 27 29
M  V30 29 1 27 30
M  V30 30 1 28 31
M  V30 31 1 30 32
M  V30 32 1 30 33
M  V30 33 1 30 34
M  V30 34 1 31 35
M  V30 35 1 31 36
M  V30 36 1 31 37
M  V30 37 1 6 7
M  V30 38 1 13 15
M  V30 39 1 22 23
M  V30 40 1 28 29
M  V30 41 1 3 38
M  V30 42 1 4 39
M  V30 43 1 5 40
M  V30 44 1 6 41
M  V30 45 1 8 42
M  V30 46 1 10 43
M  V30 47 1 11 44
M  V30 48 1 11 45
M  V30 49 1 12 46
M  V30 50 1 12 47
M  V30 51 1 15 48
M  V30 52 1 15 49
M  V30 53 1 17 50
M  V30 54 1 19 51
M  V30 55 1 21 52
M  V30 56 1 21 53
M  V30 57 1 21 54
M  V30 58 1 22 55
M  V30 59 1 24 56
M  V30 60 1 25 57
M  V30 61 1 29 58
M  V30 END BOND
M  V30 END CTAB
M  END
>  <NO.>
5649

>  <Name>
aprepitant

>  <SMILES>
CC(OC1OCCN(Cc2n[nH]c(=O)[nH]2)C1c1ccc(F)cc1)c1cc(C(F)(F)F)cc(C(F)(F)F)c1

>  <logBB>


>  <Class>
1

>  <MW>
534.15

>  <nHBAcc>
5

>  <nHBDon>
2

>  <SLogP>
4.95

>  <TopoPSA>
83.24

>  <MMFF94 Energy>
174.09

$$$$
CC(SC(=O)c1cccs1)C(=O)NCC(=O)O
Actelion Java MolfileCreator 2.0

  0  0  0  0  0  0              0 V3000
M  V30 BEGIN CTAB
M  V30 COUNTS 28 28 0 0 0
M  V30 BEGIN ATOM
M  V30 1 S -2.3085 1.6485 -2.4736 0
M  V30 2 C -0.9261 0.6282 -2.3598 0
M  V30 3 C -1.8353 2.2544 -3.9974 0
M  V30 4 C -0.7779 -0.1935 -1.1668 0
M  V30 5 C -0.1311 0.7618 -3.4882 0
M  V30 6 C -0.6542 1.6985 -4.4284 0
M  V30 7 S 0.7348 -1.102 -1.0709 0
M  V30 8 O -1.6063 -0.3237 -0.2739 0
M  V30 9 C 1.6207 -0.0991 0.1762 0 CFG=2
M  V30 10 C 0.7807 0.1259 1.4346 0
M  V30 11 C 2.1093 1.2118 -0.4304 0
M  V30 12 O 0.5301 1.2434 1.8785 0
M  V30 13 N 0.3755 -1.0258 2.0657 0
M  V30 14 C -0.4778 -0.9806 3.2397 0
M  V30 15 C -0.8004 -2.3881 3.6997 0
M  V30 16 O -0.3903 -3.4249 3.1977 0
M  V30 17 O -1.6141 -2.4186 4.773 0
M  V30 18 H -2.4475 2.9879 -4.5046 0
M  V30 19 H 0.7904 0.2155 -3.6511 0
M  V30 20 H -0.1872 1.9493 -5.3733 0
M  V30 21 H 2.4988 -0.6818 0.4787 0
M  V30 22 H 1.2822 1.878 -0.6982 0
M  V30 23 H 2.722 1.0394 -1.3218 0
M  V30 24 H 2.7296 1.7547 0.2922 0
M  V30 25 H 0.5445 -1.932 1.6375 0
M  V30 26 H -1.4021 -0.4586 2.9751 0
M  V30 27 H 0.0506 -0.4438 4.0327 0
M  V30 28 H -1.7461 -3.3733 4.9516 0
M  V30 END ATOM
M  V30 BEGIN BOND
M  V30 1 1 1 2
M  V30 2 1 1 3
M  V30 3 1 2 4
M  V30 4 2 2 5
M  V30 5 2 3 6
M  V30 6 1 4 7
M  V30 7 2 4 8
M  V30 8 1 7 9
M  V30 9 1 9 10
M  V30 10 1 9 11
M  V30 11 2 10 12
M  V30 12 1 10 13
M  V30 13 1 13 14
M  V30 14 1 14 15
M  V30 15 2 15 16
M  V30 16 1 15 17
M  V30 17 1 5 6
M  V30 18 1 3 18
M  V30 19 1 5 19
M  V30 20 1 6 20
M  V30 21 1 9 21
M  V30 22 1 11 22
M  V30 23 1 11 23
M  V30 24 1 11 24
M  V30 25 1 13 25
M  V30 26 1 14 26
M  V30 27 1 14 27
M  V30 28 1 17 28
M  V30 END BOND
M  V30 BEGIN COLLECTION
M  V30 MDLV30/STERAC1 ATOMS=(1 9)
M  V30 END COLLECTION
M  V30 END CTAB
M  END
>  <NO.>
5651

>  <Name>
stepronin

>  <SMILES>
CC(SC(=O)c1cccs1)C(=O)NCC(=O)O

>  <logBB>


>  <Class>
-1

>  <MW>
273.01

>  <nHBAcc>
5

>  <nHBDon>
2

>  <SLogP>
1.21

>  <TopoPSA>
83.47

>  <MMFF94 Energy>
15.355

$$$$
CC1(C)CC1C(=O)N/C(=C/CCCCSCC(N)C(=O)O)C(=O)O
Actelion Java MolfileCreator 2.0

  0  0  0  0  0  0              0 V3000
M  V30 BEGIN CTAB
M  V30 COUNTS 50 50 0 0 0
M  V30 BEGIN ATOM
M  V30 1 S 4.5997 1.188 3.6467 0
M  V30 2 C 4.813 2.6787 2.5949 0
M  V30 3 C 2.9184 0.6512 3.1761 0
M  V30 4 C 3.7766 3.7877 2.8298 0
M  V30 5 C 2.8098 0.2513 1.7069 0
M  V30 6 N 3.6527 4.1745 4.2571 0
M  V30 7 C 4.1953 5.0005 1.9989 0
M  V30 8 C 1.4182 -0.3085 1.3973 0
M  V30 9 O 4.8337 5.9676 2.3861 0
M  V30 10 O 3.8255 4.9025 0.7056 0
M  V30 11 C 1.2899 -0.6904 -0.0777 0
M  V30 12 C -0.0783 -1.2307 -0.3924 0
M  V30 13 C -1.1589 -0.5633 -0.8374 0
M  V30 14 N -2.3753 -1.1567 -1.1409 0
M  V30 15 C -1.1264 0.9292 -1.0325 0
M  V30 16 C -2.7641 -2.4711 -1.0475 0
M  V30 17 O -0.2442 1.7211 -0.7642 0
M  V30 18 O -2.2946 1.3579 -1.5695 0
M  V30 19 O -2.1106 -3.3983 -0.5917 0
M  V30 20 C -4.164 -2.7467 -1.4876 0
M  V30 21 C -4.4618 -3.1928 -2.9126 0
M  V30 22 C -4.9909 -1.8699 -2.3957 0
M  V30 23 C -3.3632 -3.1614 -3.9454 0
M  V30 24 C -5.4376 -4.3268 -3.0953 0
M  V30 25 H 5.818 3.0621 2.8107 0
M  V30 26 H 4.8297 2.3739 1.5432 0
M  V30 27 H 2.1979 1.4351 3.4289 0
M  V30 28 H 2.6787 -0.2109 3.8082 0
M  V30 29 H 2.7831 3.4782 2.4882 0
M  V30 30 H 2.9907 1.1172 1.0606 0
M  V30 31 H 3.5654 -0.5059 1.4643 0
M  V30 32 H 4.4678 4.7406 4.508 0
M  V30 33 H 3.7278 3.3258 4.8229 0
M  V30 34 H 0.6595 0.4403 1.6574 0
M  V30 35 H 1.2275 -1.1879 2.0256 0
M  V30 36 H 4.136 5.7432 0.3073 0
M  V30 37 H 1.549 0.1528 -0.7252 0
M  V30 38 H 2.0244 -1.4702 -0.3175 0
M  V30 39 H -0.1432 -2.3054 -0.2396 0
M  V30 40 H -3.0667 -0.4889 -1.4698 0
M  V30 41 H -2.1551 2.3272 -1.64 0
M  V30 42 H -4.7053 -3.2927 -0.7165 0
M  V30 43 H -4.5813 -0.9678 -2.8341 0
M  V30 44 H -6.052 -1.7867 -2.1804 0
M  V30 45 H -2.7226 -4.0435 -3.8441 0
M  V30 46 H -3.7905 -3.1618 -4.9537 0
M  V30 47 H -2.7321 -2.271 -3.8579 0
M  V30 48 H -5.9145 -4.2646 -4.079 0
M  V30 49 H -6.2297 -4.3133 -2.3387 0
M  V30 50 H -4.9196 -5.2886 -3.0226 0
M  V30 END ATOM
M  V30 BEGIN BOND
M  V30 1 1 1 2
M  V30 2 1 1 3
M  V30 3 1 2 4
M  V30 4 1 3 5
M  V30 5 1 4 6
M  V30 6 1 4 7
M  V30 7 1 5 8
M  V30 8 2 7 9
M  V30 9 1 7 10
M  V30 10 1 8 11
M  V30 11 1 11 12
M  V30 12 2 12 13
M  V30 13 1 13 14
M  V30 14 1 13 15
M  V30 15 1 14 16
M  V30 16 2 15 17
M  V30 17 1 15 18
M  V30 18 2 16 19
M  V30 19 1 16 20
M  V30 20 1 20 21
M  V30 21 1 20 22
M  V30 22 1 21 23
M  V30 23 1 21 24
M  V30 24 1 21 22
M  V30 25 1 2 25
M  V30 26 1 2 26
M  V30 27 1 3 27
M  V30 28 1 3 28
M  V30 29 1 4 29
M  V30 30 1 5 30
M  V30 31 1 5 31
M  V30 32 1 6 32
M  V30 33 1 6 33
M  V30 34 1 8 34
M  V30 35 1 8 35
M  V30 36 1 10 36
M  V30 37 1 11 37
M  V30 38 1 11 38
M  V30 39 1 12 39
M  V30 40 1 14 40
M  V30 41 1 18 41
M  V30 42 1 20 42
M  V30 43 1 22 43
M  V30 44 1 22 44
M  V30 45 1 23 45
M  V30 46 1 23 46
M  V30 47 1 23 47
M  V30 48 1 24 48
M  V30 49 1 24 49
M  V30 50 1 24 50
M  V30 END BOND
M  V30 END CTAB
M  END
>  <NO.>
5654

>  <Name>
78852-98-9

>  <SMILES>
CC1(C)CC1C(=O)N/C(=C/CCCCSCC(N)C(=O)O)C(=O)O

>  <logBB>


>  <Class>
-1

>  <MW>
358.16

>  <nHBAcc>
5

>  <nHBDon>
4

>  <SLogP>
1.43

>  <TopoPSA>
129.72

>  <MMFF94 Energy>
55.863

$$$$
CC1(C)CCC(C)(C)c2cc(NC(=O)c3ccc(C(=O)O)cc3)ccc21
Actelion Java MolfileCreator 2.0

  0  0  0  0  0  0              0 V3000
M  V30 BEGIN CTAB
M  V30 COUNTS 51 53 0 0 0
M  V30 BEGIN ATOM
M  V30 1 O -2.3862 -6.8523 -4.7769 0
M  V30 2 C -2.4 -6.9372 -3.5629 0
M  V30 3 O -2.9676 -7.9838 -2.9394 0
M  V30 4 C -1.8247 -5.9473 -2.6198 0
M  V30 5 C -1.8874 -6.1183 -1.2314 0
M  V30 6 C -1.1941 -4.8137 -3.1512 0
M  V30 7 C -1.3294 -5.1576 -0.382 0
M  V30 8 C -0.6363 -3.8518 -2.3022 0
M  V30 9 C -0.7155 -4.0154 -0.9127 0
M  V30 10 C -0.131 -3.0192 0.0301 0
M  V30 11 O 0.346 -3.4283 1.0817 0
M  V30 12 N -0.2335 -1.7016 -0.3776 0
M  V30 13 C 0.274 -0.5684 0.2913 0
M  V30 14 C -0.1788 0.6884 -0.1267 0
M  V30 15 C 1.211 -0.6315 1.3107 0
M  V30 16 C 0.2716 1.8931 0.4655 0
M  V30 17 C 1.6878 0.5433 1.8975 0
M  V30 18 C 1.2516 1.8188 1.4817 0
M  V30 19 C -0.2866 3.231 -0.0401 0
M  V30 20 C 1.8235 3.0658 2.1695 0
M  V30 21 C 0.0512 4.3909 0.923 0
M  V30 22 C 0.3073 3.5183 -1.4369 0
M  V30 23 C -1.8289 3.2026 -0.1638 0
M  V30 24 C 1.5009 4.3511 1.3758 0
M  V30 25 C 1.2289 3.1629 3.5921 0
M  V30 26 C 3.3648 3.0019 2.2904 0
M  V30 27 H -3.2957 -8.5477 -3.6711 0
M  V30 28 H -2.3627 -6.9958 -0.7988 0
M  V30 29 H -1.1253 -4.6828 -4.2302 0
M  V30 30 H -1.3747 -5.3009 0.6966 0
M  V30 31 H -0.1186 -3.0023 -2.7404 0
M  V30 32 H -0.7913 -1.5111 -1.1989 0
M  V30 33 H -0.9033 0.7355 -0.9354 0
M  V30 34 H 1.6026 -1.5785 1.6689 0
M  V30 35 H 2.4135 0.4392 2.7012 0
M  V30 36 H -0.6035 4.3587 1.8031 0
M  V30 37 H -0.149 5.3554 0.4384 0
M  V30 38 H -0.0137 2.7714 -2.1725 0
M  V30 39 H 1.4026 3.5045 -1.4277 0
M  V30 40 H -0.0131 4.4983 -1.8088 0
M  V30 41 H -2.2193 4.1945 -0.4218 0
M  V30 42 H -2.2962 2.8944 0.779 0
M  V30 43 H -2.1756 2.5168 -0.9438 0
M  V30 44 H 1.7121 5.2372 1.9886 0
M  V30 45 H 2.156 4.4324 0.4992 0
M  V30 46 H 1.5591 4.0781 4.097 0
M  V30 47 H 0.1335 3.1627 3.5802 0
M  V30 48 H 1.54 2.3174 4.2171 0
M  V30 49 H 3.7003 2.2078 2.9657 0
M  V30 50 H 3.8315 2.825 1.3142 0
M  V30 51 H 3.7656 3.9424 2.6873 0
M  V30 END ATOM
M  V30 BEGIN BOND
M  V30 1 2 1 2
M  V30 2 1 2 3
M  V30 3 1 2 4
M  V30 4 2 4 5
M  V30 5 1 4 6
M  V30 6 1 5 7
M  V30 7 2 6 8
M  V30 8 2 7 9
M  V30 9 1 9 10
M  V30 10 2 10 11
M  V30 11 1 10 12
M  V30 12 1 12 13
M  V30 13 2 13 14
M  V30 14 1 13 15
M  V30 15 1 14 16
M  V30 16 2 15 17
M  V30 17 2 16 18
M  V30 18 1 16 19
M  V30 19 1 18 20
M  V30 20 1 19 21
M  V30 21 1 19 22
M  V30 22 1 19 23
M  V30 23 1 20 24
M  V30 24 1 20 25
M  V30 25 1 20 26
M  V30 26 1 8 9
M  V30 27 1 17 18
M  V30 28 1 21 24
M  V30 29 1 3 27
M  V30 30 1 5 28
M  V30 31 1 6 29
M  V30 32 1 7 30
M  V30 33 1 8 31
M  V30 34 1 12 32
M  V30 35 1 14 33
M  V30 36 1 15 34
M  V30 37 1 17 35
M  V30 38 1 21 36
M  V30 39 1 21 37
M  V30 40 1 22 38
M  V30 41 1 22 39
M  V30 42 1 22 40
M  V30 43 1 23 41
M  V30 44 1 23 42
M  V30 45 1 23 43
M  V30 46 1 24 44
M  V30 47 1 24 45
M  V30 48 1 25 46
M  V30 49 1 25 47
M  V30 50 1 25 48
M  V30 51 1 26 49
M  V30 52 1 26 50
M  V30 53 1 26 51
M  V30 END BOND
M  V30 END CTAB
M  END
>  <NO.>
5655

>  <Name>
tamibarotene

>  <SMILES>
CC1(C)CCC(C)(C)c2cc(NC(=O)c3ccc(C(=O)O)cc3)ccc21

>  <logBB>


>  <Class>
-1

>  <MW>
351.18

>  <nHBAcc>
2

>  <nHBDon>
2

>  <SLogP>
4.99

>  <TopoPSA>
66.4

>  <MMFF94 Energy>
65.325

$$$$
CC1(C)N=C(N)N=C(N)N1c1ccc(Cl)cc1
Actelion Java MolfileCreator 2.0

  0  0  0  0  0  0              0 V3000
M  V30 BEGIN CTAB
M  V30 COUNTS 31 32 0 0 0
M  V30 BEGIN ATOM
M  V30 1 Cl 4.5145 -0.4744 -3.325 0
M  V30 2 C 3.0891 -0.3916 -2.366 0
M  V30 3 C 2.9766 -1.1788 -1.2228 0
M  V30 4 C 2.0497 0.4545 -2.7416 0
M  V30 5 C 1.8169 -1.1125 -0.4442 0
M  V30 6 C 0.8926 0.5164 -1.9608 0
M  V30 7 C 0.7654 -0.2545 -0.7932 0
M  V30 8 N -0.412 -0.1886 -0.0304 0
M  V30 9 C -1.6042 -0.7325 -0.4212 0
M  V30 10 C -0.4326 0.6035 1.2063 0
M  V30 11 N -2.743 -0.5171 0.1511 0
M  V30 12 N -1.589 -1.5805 -1.4776 0
M  V30 13 N -1.7636 0.9073 1.7359 0
M  V30 14 C 0.2321 1.9809 1.0082 0
M  V30 15 C 0.289 -0.1492 2.3396 0
M  V30 16 C -2.7815 0.3426 1.1967 0
M  V30 17 N -4.0032 0.6138 1.6964 0
M  V30 18 H 3.7813 -1.8497 -0.934 0
M  V30 19 H 2.1296 1.0661 -3.6361 0
M  V30 20 H 1.7314 -1.7552 0.4285 0
M  V30 21 H 0.0805 1.1768 -2.26 0
M  V30 22 H -2.4617 -1.9997 -1.7631 0
M  V30 23 H -0.7355 -1.8564 -1.9364 0
M  V30 24 H -0.2571 2.539 0.2011 0
M  V30 25 H 0.1537 2.5909 1.9165 0
M  V30 26 H 1.2972 1.8987 0.7666 0
M  V30 27 H 0.1624 0.3655 3.3 0
M  V30 28 H -0.1141 -1.1619 2.4575 0
M  V30 29 H 1.3654 -0.2315 2.1622 0
M  V30 30 H -4.0889 1.2483 2.4732 0
M  V30 31 H -4.8105 0.1775 1.2823 0
M  V30 END ATOM
M  V30 BEGIN BOND
M  V30 1 1 1 2
M  V30 2 2 2 3
M  V30 3 1 2 4
M  V30 4 1 3 5
M  V30 5 2 4 6
M  V30 6 2 5 7
M  V30 7 1 7 8
M  V30 8 1 8 9
M  V30 9 1 8 10
M  V30 10 2 9 11
M  V30 11 1 9 12
M  V30 12 1 10 13
M  V30 13 1 10 14
M  V30 14 1 10 15
M  V30 15 1 11 16
M  V30 16 1 16 17
M  V30 17 1 6 7
M  V30 18 2 13 16
M  V30 19 1 3 18
M  V30 20 1 4 19
M  V30 21 1 5 20
M  V30 22 1 6 21
M  V30 23 1 12 22
M  V30 24 1 12 23
M  V30 25 1 14 24
M  V30 26 1 14 25
M  V30 27 1 14 26
M  V30 28 1 15 27
M  V30 29 1 15 28
M  V30 30 1 15 29
M  V30 31 1 17 30
M  V30 32 1 17 31
M  V30 END BOND
M  V30 END CTAB
M  END
>  <NO.>
5656

>  <Name>
cycloguanil

>  <SMILES>
CC1(C)N=C(N)N=C(N)N1c1ccc(Cl)cc1

>  <logBB>


>  <Class>
-1

>  <MW>
251.09

>  <nHBAcc>
5

>  <nHBDon>
2

>  <SLogP>
1.53

>  <TopoPSA>
80

>  <MMFF94 Energy>
-188.29

$$$$
CC1(C)SC2C(NC(=O)C(NC(=O)N3CCNC3=O)c3ccccc3)C(=O)N2C1C(=O)O
Actelion Java MolfileCreator 2.0

  0  0  0  0  0  0              0 V3000
M  V30 BEGIN CTAB
M  V30 COUNTS 55 58 0 0 0
M  V30 BEGIN ATOM
M  V30 1 S 1.7849 2.2721 -3.4097 0
M  V30 2 C 1.0334 3.9912 -3.2933 0
M  V30 3 C 0.4117 1.442 -2.4878 0
M  V30 4 C -0.445 3.7329 -2.9327 0
M  V30 5 C 1.8543 4.7684 -2.2561 0
M  V30 6 C 1.18 4.6443 -4.6732 0
M  V30 7 N -0.461 2.5505 -2.089 0
M  V30 8 C 0.6887 1.1858 -0.9818 0
M  V30 9 C -1.3013 4.8732 -2.3831 0
M  V30 10 C -0.0878 2.5147 -0.779 0
M  V30 11 N 0.0374 5.0E-4 -0.3685 0
M  V30 12 O -2.3591 4.7571 -1.7815 0
M  V30 13 O -0.8763 6.1049 -2.7218 0
M  V30 14 O -0.2555 3.3037 0.1207 0
M  V30 15 C 0.287 -1.2872 -0.798 0
M  V30 16 O 0.9684 -1.4978 -1.8005 0
M  V30 17 C -0.4884 -2.3941 -0.0292 0
M  V30 18 N -1.024 -1.9927 1.27 0
M  V30 19 C 0.2061 -3.7434 0.0536 0
M  V30 20 C -0.2474 -1.6377 2.3394 0
M  V30 21 C -0.5514 -4.9233 -0.0509 0
M  V30 22 C 1.5848 -3.8553 0.2892 0
M  V30 23 O 0.9517 -1.3946 2.2344 0
M  V30 24 N -0.9248 -1.5186 3.5374 0
M  V30 25 C 0.0576 -6.1755 0.0517 0
M  V30 26 C 2.1924 -5.1084 0.3913 0
M  V30 27 C -2.2778 -1.77 3.8047 0
M  V30 28 C -0.2383 -1.1372 4.7526 0
M  V30 29 C 1.4298 -6.2674 0.2703 0
M  V30 30 O -3.1272 -2.145 3.0113 0
M  V30 31 N -2.5099 -1.5151 5.1436 0
M  V30 32 C -1.3328 -1.0273 5.8028 0
M  V30 33 H -0.1186 0.6653 -3.0451 0
M  V30 34 H -0.9747 3.4273 -3.8476 0
M  V30 35 H 1.5062 5.8009 -2.1568 0
M  V30 36 H 1.8215 4.3177 -1.2606 0
M  V30 37 H 2.9097 4.8272 -2.55 0
M  V30 38 H 2.2319 4.7258 -4.9721 0
M  V30 39 H 0.6548 4.0779 -5.451 0
M  V30 40 H 0.7677 5.6587 -4.6764 0
M  V30 41 H 1.7377 1.2542 -0.6727 0
M  V30 42 H -0.5293 0.1053 0.4669 0
M  V30 43 H -1.544 6.6957 -2.3095 0
M  V30 44 H -1.3846 -2.5314 -0.6525 0
M  V30 45 H -1.9877 -2.2455 1.477 0
M  V30 46 H -1.6263 -4.8749 -0.2129 0
M  V30 47 H 2.2009 -2.964 0.3983 0
M  V30 48 H -0.5395 -7.0791 -0.0371 0
M  V30 49 H 3.2628 -5.1758 0.5672 0
M  V30 50 H 0.4911 -1.9154 5.0031 0
M  V30 51 H 0.302 -0.1962 4.6065 0
M  V30 52 H 1.9052 -7.2412 0.3492 0
M  V30 53 H -3.4319 -1.6191 5.5484 0
M  V30 54 H -1.509 0.0097 6.1033 0
M  V30 55 H -1.129 -1.6325 6.6901 0
M  V30 END ATOM
M  V30 BEGIN BOND
M  V30 1 1 1 2
M  V30 2 1 1 3
M  V30 3 1 2 4
M  V30 4 1 2 5
M  V30 5 1 2 6
M  V30 6 1 3 7
M  V30 7 1 3 8
M  V30 8 1 4 9
M  V30 9 1 7 10
M  V30 10 1 8 11
M  V30 11 2 9 12
M  V30 12 1 9 13
M  V30 13 2 10 14
M  V30 14 1 11 15
M  V30 15 2 15 16
M  V30 16 1 15 17
M  V30 17 1 17 18
M  V30 18 1 17 19
M  V30 19 1 18 20
M  V30 20 2 19 21
M  V30 21 1 19 22
M  V30 22 2 20 23
M  V30 23 1 20 24
M  V30 24 1 21 25
M  V30 25 2 22 26
M  V30 26 1 24 27
M  V30 27 1 24 28
M  V30 28 2 25 29
M  V30 29 2 27 30
M  V30 30 1 27 31
M  V30 31 1 28 32
M  V30 32 1 4 7
M  V30 33 1 8 10
M  V30 34 1 26 29
M  V30 35 1 31 32
M  V30 36 1 3 33
M  V30 37 1 4 34
M  V30 38 1 5 35
M  V30 39 1 5 36
M  V30 40 1 5 37
M  V30 41 1 6 38
M  V30 42 1 6 39
M  V30 43 1 6 40
M  V30 44 1 8 41
M  V30 45 1 11 42
M  V30 46 1 13 43
M  V30 47 1 17 44
M  V30 48 1 18 45
M  V30 49 1 21 46
M  V30 50 1 22 47
M  V30 51 1 25 48
M  V30 52 1 26 49
M  V30 53 1 28 50
M  V30 54 1 28 51
M  V30 55 1 29 52
M  V30 56 1 31 53
M  V30 57 1 32 54
M  V30 58 1 32 55
M  V30 END BOND
M  V30 END CTAB
M  END
>  <NO.>
5657

>  <Name>
mls006011456

>  <SMILES>
CC1(C)SC2C(NC(=O)C(NC(=O)N3CCNC3=O)c3ccccc3)C(=O)N2C1C(=O)O

>  <logBB>


>  <Class>
-1

>  <MW>
461.14

>  <nHBAcc>
6

>  <nHBDon>
4

>  <SLogP>
0.09

>  <TopoPSA>
148.15

>  <MMFF94 Energy>
-36.407

$$$$
CC12CCC3=C4CCC(=O)C=C4CCC3C1CCC2(O)CC#N
Actelion Java MolfileCreator 2.0

  0  0  0  0  0  0              0 V3000
M  V30 BEGIN CTAB
M  V30 COUNTS 48 51 0 0 0
M  V30 BEGIN ATOM
M  V30 1 O 6.4707 -0.0806 0.1613 0
M  V30 2 C 5.2826 -0.0221 0.4661 0
M  V30 3 C 4.4449 1.0812 -0.0428 0
M  V30 4 C 4.6491 -0.957 1.4545 0
M  V30 5 C 3.1092 1.058 0.0995 0
M  V30 6 C 3.2273 -1.294 1.034 0
M  V30 7 C 2.3747 -0.1053 0.6154 0
M  V30 8 C 2.3198 2.2922 -0.2547 0
M  V30 9 C 1.0163 -0.1183 0.6756 0
M  V30 10 C 0.9632 1.9405 -0.8319 0
M  V30 11 C 0.1709 1.053 0.142 0
M  V30 12 C 0.2317 -1.2839 1.2848 0
M  V30 13 C -1.09 0.5332 -0.5696 0
M  V30 14 C -1.084 -1.6506 0.5748 0
M  V30 15 C -1.9471 -0.4151 0.2882 0
M  V30 16 C -2.0967 1.5617 -1.078 0
M  V30 17 C -3.208 -0.6214 -0.6224 0
M  V30 18 C -2.3803 0.2244 1.6423 0
M  V30 19 C -3.4073 0.7775 -1.2727 0
M  V30 20 O -4.3458 -0.9058 0.2131 0
M  V30 21 C -3.1746 -1.7742 -1.6534 0
M  V30 22 C -2.2387 -1.6138 -2.7694 0
M  V30 23 N -1.5144 -1.4885 -3.6671 0
M  V30 24 H 4.9824 1.926 -0.4573 0
M  V30 25 H 5.2435 -1.8754 1.5111 0
M  V30 26 H 4.6665 -0.4775 2.4401 0
M  V30 27 H 2.7757 -1.8336 1.8729 0
M  V30 28 H 3.2682 -1.9877 0.1833 0
M  V30 29 H 2.8623 2.9163 -0.9756 0
M  V30 30 H 2.1847 2.8973 0.6515 0
M  V30 31 H 1.0984 1.4311 -1.7957 0
M  V30 32 H 0.4083 2.8639 -1.0367 0
M  V30 33 H -0.1154 1.6727 1.0011 0
M  V30 34 H 0.8255 -2.2026 1.3052 0
M  V30 35 H 0.0225 -1.0361 2.3325 0
M  V30 36 H -0.7291 -0.0148 -1.4492 0
M  V30 37 H -1.64 -2.374 1.1836 0
M  V30 38 H -0.8215 -2.1665 -0.3561 0
M  V30 39 H -1.7715 2.0226 -2.0165 0
M  V30 40 H -2.2438 2.3681 -0.3504 0
M  V30 41 H -1.5371 0.5685 2.2464 0
M  V30 42 H -3.0374 1.0889 1.5002 0
M  V30 43 H -2.9251 -0.5032 2.2554 0
M  V30 44 H -4.235 1.3282 -0.8096 0
M  V30 45 H -3.6477 0.701 -2.3389 0
M  V30 46 H -5.1582 -0.682 -0.2749 0
M  V30 47 H -4.1828 -1.8903 -2.0756 0
M  V30 48 H -2.9869 -2.7243 -1.1384 0
M  V30 END ATOM
M  V30 BEGIN BOND
M  V30 1 2 1 2
M  V30 2 1 2 3
M  V30 3 1 2 4
M  V30 4 2 3 5
M  V30 5 1 4 6
M  V30 6 1 5 7
M  V30 7 1 5 8
M  V30 8 2 7 9
M  V30 9 1 8 10
M  V30 10 1 9 11
M  V30 11 1 9 12
M  V30 12 1 11 13
M  V30 13 1 12 14
M  V30 14 1 13 15
M  V30 15 1 13 16
M  V30 16 1 15 17
M  V30 17 1 15 18
M  V30 18 1 16 19
M  V30 19 1 17 20
M  V30 20 1 17 21
M  V30 21 1 21 22
M  V30 22 3 22 23
M  V30 23 1 6 7
M  V30 24 1 10 11
M  V30 25 1 14 15
M  V30 26 1 17 19
M  V30 27 1 3 24
M  V30 28 1 4 25
M  V30 29 1 4 26
M  V30 30 1 6 27
M  V30 31 1 6 28
M  V30 32 1 8 29
M  V30 33 1 8 30
M  V30 34 1 10 31
M  V30 35 1 10 32
M  V30 36 1 11 33
M  V30 37 1 12 34
M  V30 38 1 12 35
M  V30 39 1 13 36
M  V30 40 1 14 37
M  V30 41 1 14 38
M  V30 42 1 16 39
M  V30 43 1 16 40
M  V30 44 1 18 41
M  V30 45 1 18 42
M  V30 46 1 18 43
M  V30 47 1 19 44
M  V30 48 1 19 45
M  V30 49 1 20 46
M  V30 50 1 21 47
M  V30 51 1 21 48
M  V30 END BOND
M  V30 END CTAB
M  END
>  <NO.>
5658

>  <Name>
dienogest

>  <SMILES>
CC12CCC3=C4CCC(=O)C=C4CCC3C1CCC2(O)CC#N

>  <logBB>


>  <Class>
-1

>  <MW>
311.19

>  <nHBAcc>
3

>  <nHBDon>
1

>  <SLogP>
3.84

>  <TopoPSA>
61.09

>  <MMFF94 Energy>
65.773

$$$$
CC12CCC3C(CCC45OC4C(=O)C(C#N)CC35C)C1CCC2O
Actelion Java MolfileCreator 2.0

  0  0  0  0  0  0              0 V3000
M  V30 BEGIN CTAB
M  V30 COUNTS 51 55 0 0 0
M  V30 BEGIN ATOM
M  V30 1 O -4.7142 -0.3245 -3.7375 0
M  V30 2 C -3.6502 -0.2766 -3.1272 0
M  V30 3 C -2.4177 0.4123 -3.6756 0
M  V30 4 C -3.6085 -0.7922 -1.7396 0
M  V30 5 C -2.2138 0.017 -5.0783 0
M  V30 6 C -1.1308 0.1528 -2.8761 0
M  V30 7 O -2.5691 -1.7597 -1.4967 0
M  V30 8 C -2.4332 -0.4997 -0.8295 0
M  V30 9 N -1.9979 -0.2755 -6.1807 0
M  V30 10 C -1.2784 0.3602 -1.3392 0
M  V30 11 C -2.6134 -0.5988 0.659 0
M  V30 12 C 0.0364 -0.1103 -0.6085 0
M  V30 13 C -1.5918 1.848 -1.0599 0
M  V30 14 C -1.3245 -1.062 1.3293 0
M  V30 15 C -0.1382 -0.1634 0.9468 0
M  V30 16 C 1.3084 0.6753 -1.0249 0
M  V30 17 C 1.1683 -0.6667 1.5685 0
M  V30 18 C 2.5779 0.2336 -0.2743 0
M  V30 19 C 2.3681 0.2443 1.245 0
M  V30 20 C 1.2524 -0.8418 3.0828 0
M  V30 21 C 3.4612 -0.484 2.0508 0
M  V30 22 C 2.2208 1.7071 1.7365 0
M  V30 23 C 2.7642 -0.8575 3.3736 0
M  V30 24 O 4.6079 0.3145 2.2693 0
M  V30 25 H -2.6352 1.4875 -3.6482 0
M  V30 26 H -4.5753 -0.9866 -1.2892 0
M  V30 27 H -0.7816 -0.8714 -3.0724 0
M  V30 28 H -0.347 0.8126 -3.2705 0
M  V30 29 H -2.9154 0.376 1.0587 0
M  V30 30 H -3.4184 -1.3002 0.9105 0
M  V30 31 H 0.2122 -1.1504 -0.9272 0
M  V30 32 H -2.592 2.1204 -1.415 0
M  V30 33 H -1.5752 2.0833 0.008 0
M  V30 34 H -0.8755 2.5107 -1.5563 0
M  V30 35 H -1.4693 -1.0599 2.4157 0
M  V30 36 H -1.113 -2.0984 1.0362 0
M  V30 37 H -0.3516 0.84 1.3299 0
M  V30 38 H 1.4966 0.5406 -2.0956 0
M  V30 39 H 1.1583 1.7488 -0.8723 0
M  V30 40 H 1.3615 -1.6633 1.137 0
M  V30 41 H 3.4163 0.8829 -0.5539 0
M  V30 42 H 2.8457 -0.7768 -0.6098 0
M  V30 43 H 0.7706 -0.0112 3.6108 0
M  V30 44 H 0.7739 -1.7684 3.416 0
M  V30 45 H 3.7785 -1.3978 1.5325 0
M  V30 46 H 2.1164 1.7743 2.8241 0
M  V30 47 H 3.1031 2.2968 1.4614 0
M  V30 48 H 1.3544 2.2143 1.3035 0
M  V30 49 H 3.0877 -1.8522 3.7001 0
M  V30 50 H 3.0124 -0.1607 4.1822 0
M  V30 51 H 5.2102 -0.1894 2.8431 0
M  V30 END ATOM
M  V30 BEGIN BOND
M  V30 1 2 1 2
M  V30 2 1 2 3
M  V30 3 1 2 4
M  V30 4 1 3 5
M  V30 5 1 3 6
M  V30 6 1 4 7
M  V30 7 1 4 8
M  V30 8 3 5 9
M  V30 9 1 6 10
M  V30 10 1 8 11
M  V30 11 1 10 12
M  V30 12 1 10 13
M  V30 13 1 11 14
M  V30 14 1 12 15
M  V30 15 1 12 16
M  V30 16 1 15 17
M  V30 17 1 16 18
M  V30 18 1 17 19
M  V30 19 1 17 20
M  V30 20 1 19 21
M  V30 21 1 19 22
M  V30 22 1 20 23
M  V30 23 1 21 24
M  V30 24 1 7 8
M  V30 25 1 8 10
M  V30 26 1 14 15
M  V30 27 1 18 19
M  V30 28 1 21 23
M  V30 29 1 3 25
M  V30 30 1 4 26
M  V30 31 1 6 27
M  V30 32 1 6 28
M  V30 33 1 11 29
M  V30 34 1 11 30
M  V30 35 1 12 31
M  V30 36 1 13 32
M  V30 37 1 13 33
M  V30 38 1 13 34
M  V30 39 1 14 35
M  V30 40 1 14 36
M  V30 41 1 15 37
M  V30 42 1 16 38
M  V30 43 1 16 39
M  V30 44 1 17 40
M  V30 45 1 18 41
M  V30 46 1 18 42
M  V30 47 1 20 43
M  V30 48 1 20 44
M  V30 49 1 21 45
M  V30 50 1 22 46
M  V30 51 1 22 47
M  V30 52 1 22 48
M  V30 53 1 23 49
M  V30 54 1 23 50
M  V30 55 1 24 51
M  V30 END BOND
M  V30 END CTAB
M  END
>  <NO.>
5659

>  <Name>
trilostane [usan:ban:inn:jan]

>  <SMILES>
CC12CCC3C(CCC45OC4C(=O)C(C#N)CC35C)C1CCC2O

>  <logBB>


>  <Class>
-1

>  <MW>
329.2

>  <nHBAcc>
4

>  <nHBDon>
1

>  <SLogP>
2.84

>  <TopoPSA>
73.62

>  <MMFF94 Energy>
77.098

$$$$
CC12CCC3c4ccc(O)cc4CCC3C1CC(O)C2O
Actelion Java MolfileCreator 2.0

  0  0  0  0  0  0              0 V3000
M  V30 BEGIN CTAB
M  V30 COUNTS 45 48 0 0 0
M  V30 BEGIN ATOM
M  V30 1 O 3.6119 1.0424 5.1399 0
M  V30 2 C 2.7649 0.8287 4.0935 0
M  V30 3 C 3.1085 -0.0079 3.0393 0
M  V30 4 C 1.5369 1.4678 4.1124 0
M  V30 5 C 2.2098 -0.2135 1.9762 0
M  V30 6 C 0.6421 1.2793 3.0572 0
M  V30 7 C 0.9685 0.4616 1.9596 0
M  V30 8 C 2.6413 -1.1286 0.8558 0
M  V30 9 C -0.0352 0.2323 0.8297 0
M  V30 10 C 1.4939 -1.5646 -0.0487 0
M  V30 11 C 0.6483 -0.3479 -0.433 0
M  V30 12 C -0.8469 1.4806 0.4291 0
M  V30 13 C -0.3414 -0.6626 -1.5691 0
M  V30 14 C -1.8816 1.1626 -0.6538 0
M  V30 15 C -1.2729 0.5188 -1.9201 0
M  V30 16 C -1.2903 -1.8549 -1.3257 0
M  V30 17 C -2.3281 -0.1955 -2.7882 0
M  V30 18 C -0.5498 1.5939 -2.748 0
M  V30 19 C -2.5976 -1.5135 -2.0484 0
M  V30 20 O -3.5143 0.57 -2.9434 0
M  V30 21 O -2.9515 -2.5459 -2.9609 0
M  V30 22 H 4.4248 0.5344 4.9863 0
M  V30 23 H 4.0702 -0.513 3.0303 0
M  V30 24 H 1.2699 2.1092 4.9474 0
M  V30 25 H -0.3201 1.7794 3.1195 0
M  V30 26 H 3.3938 -0.5997 0.2572 0
M  V30 27 H 3.1197 -2.0244 1.27 0
M  V30 28 H -0.7412 -0.5115 1.2241 0
M  V30 29 H 1.9047 -2.0521 -0.9405 0
M  V30 30 H 0.8777 -2.3095 0.4704 0
M  V30 31 H 1.3384 0.4159 -0.8226 0
M  V30 32 H -1.3949 1.8837 1.2876 0
M  V30 33 H -0.1738 2.2785 0.0927 0
M  V30 34 H 0.2524 -0.9144 -2.461 0
M  V30 35 H -2.6346 0.5003 -0.209 0
M  V30 36 H -2.4161 2.0839 -0.9182 0
M  V30 37 H -1.5002 -1.9933 -0.2602 0
M  V30 38 H -0.8436 -2.7873 -1.6886 0
M  V30 39 H -1.9334 -0.4003 -3.7923 0
M  V30 40 H -1.2442 2.3825 -3.0587 0
M  V30 41 H -0.1105 1.1668 -3.6565 0
M  V30 42 H 0.2623 2.0666 -2.1873 0
M  V30 43 H -3.4188 -1.4165 -1.3287 0
M  V30 44 H -4.0259 0.1633 -3.6634 0
M  V30 45 H -3.8778 -2.396 -3.2168 0
M  V30 END ATOM
M  V30 BEGIN BOND
M  V30 1 1 1 2
M  V30 2 2 2 3
M  V30 3 1 2 4
M  V30 4 1 3 5
M  V30 5 2 4 6
M  V30 6 2 5 7
M  V30 7 1 5 8
M  V30 8 1 7 9
M  V30 9 1 8 10
M  V30 10 1 9 11
M  V30 11 1 9 12
M  V30 12 1 11 13
M  V30 13 1 12 14
M  V30 14 1 13 15
M  V30 15 1 13 16
M  V30 16 1 15 17
M  V30 17 1 15 18
M  V30 18 1 16 19
M  V30 19 1 17 20
M  V30 20 1 19 21
M  V30 21 1 6 7
M  V30 22 1 10 11
M  V30 23 1 14 15
M  V30 24 1 17 19
M  V30 25 1 1 22
M  V30 26 1 3 23
M  V30 27 1 4 24
M  V30 28 1 6 25
M  V30 29 1 8 26
M  V30 30 1 8 27
M  V30 31 1 9 28
M  V30 32 1 10 29
M  V30 33 1 10 30
M  V30 34 1 11 31
M  V30 35 1 12 32
M  V30 36 1 12 33
M  V30 37 1 13 34
M  V30 38 1 14 35
M  V30 39 1 14 36
M  V30 40 1 16 37
M  V30 41 1 16 38
M  V30 42 1 17 39
M  V30 43 1 18 40
M  V30 44 1 18 41
M  V30 45 1 18 42
M  V30 46 1 19 43
M  V30 47 1 20 44
M  V30 48 1 21 45
M  V30 END BOND
M  V30 END CTAB
M  END
>  <NO.>
5663

>  <Name>
estriol

>  <SMILES>
CC12CCC3c4ccc(O)cc4CCC3C1CC(O)C2O

>  <logBB>


>  <Class>
-1

>  <MW>
288.17

>  <nHBAcc>
3

>  <nHBDon>
3

>  <SLogP>
2.58

>  <TopoPSA>
60.69

>  <MMFF94 Energy>
77.633

$$$$
CC1=CC(=O)c2ccccc2C1=O
Actelion Java MolfileCreator 2.0

  0  0  0  0  0  0              0 V3000
M  V30 BEGIN CTAB
M  V30 COUNTS 21 22 0 0 0
M  V30 BEGIN ATOM
M  V30 1 O 0.9653 -0.6434 -2.2535 0
M  V30 2 C 0.583 -0.0278 -1.2653 0
M  V30 3 C -0.0139 -0.738 -0.1156 0
M  V30 4 C 0.7052 1.453 -1.1865 0
M  V30 5 C -0.4476 -0.0346 1.0066 0
M  V30 6 C -0.1441 -2.1327 -0.1565 0
M  V30 7 C 0.2833 2.1132 -0.1005 0
M  V30 8 C 1.315 2.1362 -2.3709 0
M  V30 9 C -0.3164 1.4318 1.0622 0
M  V30 10 C -1.012 -0.7201 2.0903 0
M  V30 11 C -0.7067 -2.8148 0.9239 0
M  V30 12 O -0.6874 2.0792 2.0328 0
M  V30 13 C -1.1402 -2.1093 2.0462 0
M  V30 14 H 0.1916 -2.6911 -1.0288 0
M  V30 15 H 0.3601 3.1921 -0.0161 0
M  V30 16 H 0.7218 1.9458 -3.2714 0
M  V30 17 H 1.3681 3.2215 -2.2328 0
M  V30 18 H 2.3342 1.7738 -2.5405 0
M  V30 19 H -1.3523 -0.175 2.9692 0
M  V30 20 H -0.8067 -3.8976 0.8895 0
M  V30 21 H -1.5786 -2.641 2.8881 0
M  V30 END ATOM
M  V30 BEGIN BOND
M  V30 1 2 1 2
M  V30 2 1 2 3
M  V30 3 1 2 4
M  V30 4 2 3 5
M  V30 5 1 3 6
M  V30 6 2 4 7
M  V30 7 1 4 8
M  V30 8 1 5 9
M  V30 9 1 5 10
M  V30 10 2 6 11
M  V30 11 2 9 12
M  V30 12 2 10 13
M  V30 13 1 7 9
M  V30 14 1 11 13
M  V30 15 1 6 14
M  V30 16 1 7 15
M  V30 17 1 8 16
M  V30 18 1 8 17
M  V30 19 1 8 18
M  V30 20 1 10 19
M  V30 21 1 11 20
M  V30 22 1 13 21
M  V30 END BOND
M  V30 END CTAB
M  END
>  <NO.>
5665

>  <Name>
menadione

>  <SMILES>
CC1=CC(=O)c2ccccc2C1=O

>  <logBB>


>  <Class>
-1

>  <MW>
172.05

>  <nHBAcc>
2

>  <nHBDon>
0

>  <SLogP>
2.01

>  <TopoPSA>
34.14

>  <MMFF94 Energy>
35.125

$$$$
CC1CC(=O)NN=C1c1ccc(NN=C(C#N)C#N)cc1
Actelion Java MolfileCreator 2.0

  0  0  0  0  0  0              0 V3000
M  V30 BEGIN CTAB
M  V30 COUNTS 33 34 0 0 0
M  V30 BEGIN ATOM
M  V30 1 O 1.6778 3.1178 -5.0401 0
M  V30 2 C 1.3622 2.4458 -4.0618 0
M  V30 3 N 0.0551 2.1979 -3.7412 0
M  V30 4 C 2.375 1.7605 -3.1933 0
M  V30 5 N -0.3887 1.5053 -2.6609 0
M  V30 6 C 1.9154 1.6779 -1.7413 0 CFG=1
M  V30 7 C 0.4528 1.236 -1.7072 0
M  V30 8 C 2.8746 0.7585 -0.9837 0
M  V30 9 C -0.0779 0.5396 -0.5071 0
M  V30 10 C 0.1043 1.0753 0.7683 0
M  V30 11 C -0.8111 -0.6354 -0.6746 0
M  V30 12 C -0.4218 0.4101 1.881 0
M  V30 13 C -1.3319 -1.2942 0.4433 0
M  V30 14 C -1.1435 -0.7845 1.7357 0
M  V30 15 N -1.6546 -1.4242 2.8803 0
M  V30 16 N -2.3517 -2.586 2.7449 0
M  V30 17 C -2.8409 -3.1812 3.7905 0
M  V30 18 C -3.5533 -4.3957 3.5168 0
M  V30 19 C -2.6678 -2.647 5.1098 0
M  V30 20 N -4.1354 -5.3841 3.3267 0
M  V30 21 N -2.5055 -2.1847 6.1641 0
M  V30 22 H -0.6546 2.5596 -4.3707 0
M  V30 23 H 3.3224 2.3074 -3.2594 0
M  V30 24 H 2.5315 0.7588 -3.6127 0
M  V30 25 H 1.9512 2.6829 -1.3007 0
M  V30 26 H 2.7443 -0.2871 -1.2836 0
M  V30 27 H 2.7252 0.816 0.0978 0
M  V30 28 H 3.9163 1.0395 -1.1738 0
M  V30 29 H 0.6384 2.0109 0.909 0
M  V30 30 H -0.9826 -1.0423 -1.6683 0
M  V30 31 H -0.2675 0.8423 2.8668 0
M  V30 32 H -1.8964 -2.2113 0.2932 0
M  V30 33 H -1.467 -0.9594 3.7694 0
M  V30 END ATOM
M  V30 BEGIN BOND
M  V30 1 2 1 2
M  V30 2 1 2 3
M  V30 3 1 2 4
M  V30 4 1 3 5
M  V30 5 1 4 6
M  V30 6 2 5 7
M  V30 7 1 6 8
M  V30 8 1 7 9
M  V30 9 2 9 10
M  V30 10 1 9 11
M  V30 11 1 10 12
M  V30 12 2 11 13
M  V30 13 2 12 14
M  V30 14 1 14 15
M  V30 15 1 15 16
M  V30 16 2 16 17
M  V30 17 1 17 18
M  V30 18 1 17 19
M  V30 19 3 18 20
M  V30 20 3 19 21
M  V30 21 1 6 7
M  V30 22 1 13 14
M  V30 23 1 3 22
M  V30 24 1 4 23
M  V30 25 1 4 24
M  V30 26 1 6 25
M  V30 27 1 8 26
M  V30 28 1 8 27
M  V30 29 1 8 28
M  V30 30 1 10 29
M  V30 31 1 11 30
M  V30 32 1 12 31
M  V30 33 1 13 32
M  V30 34 1 15 33
M  V30 END BOND
M  V30 BEGIN COLLECTION
M  V30 MDLV30/STERAC1 ATOMS=(1 6)
M  V30 END COLLECTION
M  V30 END CTAB
M  END
>  <NO.>
5668

>  <Name>
levosimendan

>  <SMILES>
CC1CC(=O)NN=C1c1ccc(NN=C(C#N)C#N)cc1

>  <logBB>


>  <Class>
-1

>  <MW>
280.11

>  <nHBAcc>
6

>  <nHBDon>
2

>  <SLogP>
1.36

>  <TopoPSA>
113.43

>  <MMFF94 Energy>
136.65

$$$$
CC1CC(OC(=O)C(OC(=O)c2cccnc2)c2ccccc2)CC(C)(C)C1
Actelion Java MolfileCreator 2.0

  0  0  0  0  0  0              0 V3000
M  V30 BEGIN CTAB
M  V30 COUNTS 55 57 0 0 0
M  V30 BEGIN ATOM
M  V30 1 O -3.0286 1.5931 -0.1592 0
M  V30 2 C -2.9021 1.6197 -1.3731 0
M  V30 3 O -1.7274 1.6941 -2.0408 0
M  V30 4 C -4.0415 1.5835 -2.3148 0
M  V30 5 C -0.5686 1.6543 -1.193 0
M  V30 6 C -3.8813 1.6626 -3.6923 0
M  V30 7 C -5.342 1.4682 -1.8161 0
M  V30 8 C 0.6203 2.0718 -2.0426 0
M  V30 9 C -0.3449 0.2612 -0.5809 0
M  V30 10 N -4.9115 1.6367 -4.576 0
M  V30 11 C -6.4178 1.4363 -2.7011 0
M  V30 12 C 1.4589 3.1164 -1.6243 0
M  V30 13 C 0.912 1.4114 -3.2479 0
M  V30 14 O -0.9065 -0.7647 -0.9498 0
M  V30 15 O 0.5778 0.3303 0.4247 0
M  V30 16 C -6.1547 1.5228 -4.0589 0
M  V30 17 C 2.5596 3.4935 -2.3959 0
M  V30 18 C 2.0128 1.7911 -4.0168 0
M  V30 19 C 0.89 -0.9102 1.0872 0
M  V30 20 C 2.8355 2.8317 -3.5908 0
M  V30 21 C 2.2855 -0.754 1.7014 0
M  V30 22 C -0.1527 -1.188 2.173 0
M  V30 23 C 2.7147 -1.9543 2.5715 0
M  V30 24 C 0.2144 -2.4112 3.0194 0
M  V30 25 C 1.6206 -2.2577 3.622 0
M  V30 26 C 2.9858 -3.1922 1.6949 0
M  V30 27 C 4.0235 -1.5983 3.3024 0
M  V30 28 C -0.8201 -2.6273 4.1244 0
M  V30 29 H -0.7073 2.3753 -0.376 0
M  V30 30 H -2.9022 1.7538 -4.1547 0
M  V30 31 H -5.5191 1.4007 -0.7449 0
M  V30 32 H -7.4364 1.3451 -2.3395 0
M  V30 33 H 1.2643 3.6442 -0.6927 0
M  V30 34 H 0.2801 0.595 -3.595 0
M  V30 35 H -6.96 1.5018 -4.7883 0
M  V30 36 H 3.2034 4.3043 -2.0642 0
M  V30 37 H 2.2282 1.2742 -4.9485 0
M  V30 38 H 0.9109 -1.7256 0.3542 0
M  V30 39 H 3.6927 3.1269 -4.1905 0
M  V30 40 H 2.301 0.1653 2.3044 0
M  V30 41 H 3.0149 -0.5788 0.8992 0
M  V30 42 H -0.2585 -0.3002 2.8116 0
M  V30 43 H -1.1377 -1.3338 1.7127 0
M  V30 44 H 0.196 -3.2992 2.3759 0
M  V30 45 H 1.8811 -3.1675 4.1787 0
M  V30 46 H 1.5982 -1.4438 4.3605 0
M  V30 47 H 2.1015 -3.5156 1.1387 0
M  V30 48 H 3.7751 -2.9876 0.9625 0
M  V30 49 H 3.3146 -4.0403 2.3064 0
M  V30 50 H 4.3605 -2.4263 3.9363 0
M  V30 51 H 3.8944 -0.7198 3.9448 0
M  V30 52 H 4.8257 -1.3734 2.5904 0
M  V30 53 H -1.8191 -2.7683 3.6983 0
M  V30 54 H -0.8609 -1.771 4.8064 0
M  V30 55 H -0.5784 -3.5183 4.7133 0
M  V30 END ATOM
M  V30 BEGIN BOND
M  V30 1 2 1 2
M  V30 2 1 2 3
M  V30 3 1 2 4
M  V30 4 1 3 5
M  V30 5 2 4 6
M  V30 6 1 4 7
M  V30 7 1 5 8
M  V30 8 1 5 9
M  V30 9 1 6 10
M  V30 10 2 7 11
M  V30 11 2 8 12
M  V30 12 1 8 13
M  V30 13 2 9 14
M  V30 14 1 9 15
M  V30 15 2 10 16
M  V30 16 1 12 17
M  V30 17 2 13 18
M  V30 18 1 15 19
M  V30 19 2 17 20
M  V30 20 1 19 21
M  V30 21 1 19 22
M  V30 22 1 21 23
M  V30 23 1 22 24
M  V30 24 1 23 25
M  V30 25 1 23 26
M  V30 26 1 23 27
M  V30 27 1 24 28
M  V30 28 1 11 16
M  V30 29 1 18 20
M  V30 30 1 24 25
M  V30 31 1 5 29
M  V30 32 1 6 30
M  V30 33 1 7 31
M  V30 34 1 11 32
M  V30 35 1 12 33
M  V30 36 1 13 34
M  V30 37 1 16 35
M  V30 38 1 17 36
M  V30 39 1 18 37
M  V30 40 1 19 38
M  V30 41 1 20 39
M  V30 42 1 21 40
M  V30 43 1 21 41
M  V30 44 1 22 42
M  V30 45 1 22 43
M  V30 46 1 24 44
M  V30 47 1 25 45
M  V30 48 1 25 46
M  V30 49 1 26 47
M  V30 50 1 26 48
M  V30 51 1 26 49
M  V30 52 1 27 50
M  V30 53 1 27 51
M  V30 54 1 27 52
M  V30 55 1 28 53
M  V30 56 1 28 54
M  V30 57 1 28 55
M  V30 END BOND
M  V30 END CTAB
M  END
>  <NO.>
5670

>  <Name>
nicotinoyl cyclandelate

>  <SMILES>
CC1CC(OC(=O)C(OC(=O)c2cccnc2)c2ccccc2)CC(C)(C)C1

>  <logBB>


>  <Class>
-1

>  <MW>
381.19

>  <nHBAcc>
5

>  <nHBDon>
0

>  <SLogP>
4.74

>  <TopoPSA>
65.49

>  <MMFF94 Energy>
90.781

$$$$
CC1CC2(C)C(CCC3C4CCC(O)C4(C)CCC32)CC1=O
Actelion Java MolfileCreator 2.0

  0  0  0  0  0  0              0 V3000
M  V30 BEGIN CTAB
M  V30 COUNTS 54 57 0 0 0
M  V30 BEGIN ATOM
M  V30 1 O 2.9656 -2.6447 -3.8486 0
M  V30 2 C 2.033 -2.2514 -3.1453 0
M  V30 3 C 1.4759 -3.1208 -2.0324 0
M  V30 4 C 1.3314 -0.9483 -3.4494 0
M  V30 5 C 0.9988 -2.2973 -0.8246 0
M  V30 6 C 0.4332 -4.0818 -2.5926 0
M  V30 7 C 1.065 -0.1722 -2.1593 0
M  V30 8 C 0.2216 -0.9807 -1.1259 0
M  V30 9 C 0.4575 1.2029 -2.4569 0
M  V30 10 C 0.1198 -0.1137 0.1917 0
M  V30 11 C -1.1948 -1.3086 -1.6574 0
M  V30 12 C 0.3574 2.0371 -1.1824 0
M  V30 13 C -0.4252 1.3156 -0.0733 0
M  V30 14 C -0.6325 -0.8078 1.352 0
M  V30 15 C -0.5036 2.156 1.2256 0
M  V30 16 C -1.7689 0.0227 1.9417 0
M  V30 17 C -1.3891 1.4759 2.3179 0
M  V30 18 C 0.8562 2.443 1.8987 0
M  V30 19 C -0.5563 1.6043 3.6188 0
M  V30 20 C -2.7082 2.2547 2.5018 0
M  V30 21 C 0.8914 1.6146 3.1682 0
M  V30 22 O -0.8002 0.5616 4.5435 0
M  V30 23 H 2.3118 -3.736 -1.6709 0
M  V30 24 H 0.4192 -1.1583 -4.0144 0
M  V30 25 H 1.988 -0.3591 -4.1011 0
M  V30 26 H 0.4205 -2.946 -0.1562 0
M  V30 27 H 1.9005 -2.0259 -0.2562 0
M  V30 28 H -0.336 -3.577 -3.1803 0
M  V30 29 H 0.9117 -4.8011 -3.2673 0
M  V30 30 H -0.0527 -4.6502 -1.7935 0
M  V30 31 H 2.0505 0.0102 -1.7018 0
M  V30 32 H 1.0848 1.74 -3.1787 0
M  V30 33 H -0.5308 1.1018 -2.9194 0
M  V30 34 H 1.1553 0.01 0.5423 0
M  V30 35 H -1.842 -0.429 -1.6977 0
M  V30 36 H -1.1818 -1.7121 -2.6702 0
M  V30 37 H -1.6994 -2.0495 -1.0291 0
M  V30 38 H -0.1278 2.9924 -1.4159 0
M  V30 39 H 1.3727 2.2774 -0.8495 0
M  V30 40 H -1.4563 1.2344 -0.4413 0
M  V30 41 H -1.0501 -1.7719 1.0476 0
M  V30 42 H 0.0838 -1.0569 2.1432 0
M  V30 43 H -0.9349 3.1284 0.9492 0
M  V30 44 H -2.1918 -0.5037 2.8059 0
M  V30 45 H -2.5794 0.0397 1.1995 0
M  V30 46 H 1.7269 2.237 1.2725 0
M  V30 47 H 0.9002 3.5069 2.165 0
M  V30 48 H -0.7768 2.5543 4.1226 0
M  V30 49 H -3.3185 1.812 3.2969 0
M  V30 50 H -3.3001 2.2534 1.5796 0
M  V30 51 H -2.5221 3.3014 2.7681 0
M  V30 52 H 1.5476 2.0548 3.9264 0
M  V30 53 H 1.2687 0.6049 2.9836 0
M  V30 54 H -0.1979 0.6899 5.2961 0
M  V30 END ATOM
M  V30 BEGIN BOND
M  V30 1 2 1 2
M  V30 2 1 2 3
M  V30 3 1 2 4
M  V30 4 1 3 5
M  V30 5 1 3 6
M  V30 6 1 4 7
M  V30 7 1 5 8
M  V30 8 1 7 9
M  V30 9 1 8 10
M  V30 10 1 8 11
M  V30 11 1 9 12
M  V30 12 1 10 13
M  V30 13 1 10 14
M  V30 14 1 13 15
M  V30 15 1 14 16
M  V30 16 1 15 17
M  V30 17 1 15 18
M  V30 18 1 17 19
M  V30 19 1 17 20
M  V30 20 1 18 21
M  V30 21 1 19 22
M  V30 22 1 7 8
M  V30 23 1 12 13
M  V30 24 1 16 17
M  V30 25 1 19 21
M  V30 26 1 3 23
M  V30 27 1 4 24
M  V30 28 1 4 25
M  V30 29 1 5 26
M  V30 30 1 5 27
M  V30 31 1 6 28
M  V30 32 1 6 29
M  V30 33 1 6 30
M  V30 34 1 7 31
M  V30 35 1 9 32
M  V30 36 1 9 33
M  V30 37 1 10 34
M  V30 38 1 11 35
M  V30 39 1 11 36
M  V30 40 1 11 37
M  V30 41 1 12 38
M  V30 42 1 12 39
M  V30 43 1 13 40
M  V30 44 1 14 41
M  V30 45 1 14 42
M  V30 46 1 15 43
M  V30 47 1 16 44
M  V30 48 1 16 45
M  V30 49 1 18 46
M  V30 50 1 18 47
M  V30 51 1 19 48
M  V30 52 1 20 49
M  V30 53 1 20 50
M  V30 54 1 20 51
M  V30 55 1 21 52
M  V30 56 1 21 53
M  V30 57 1 22 54
M  V30 END BOND
M  V30 END CTAB
M  END
>  <NO.>
5671

>  <Name>
2.alpha.-methyldihydrotestosterone

>  <SMILES>
CC1CC2(C)C(CCC3C4CCC(O)C4(C)CCC32)CC1=O

>  <logBB>


>  <Class>
-1

>  <MW>
304.24

>  <nHBAcc>
2

>  <nHBDon>
1

>  <SLogP>
4.21

>  <TopoPSA>
37.3

>  <MMFF94 Energy>
84.343

$$$$
CC1CCC(C(C)C)C(O)C1
Actelion Java MolfileCreator 2.0

  0  0  0  0  0  0              0 V3000
M  V30 BEGIN CTAB
M  V30 COUNTS 31 31 0 0 0
M  V30 BEGIN ATOM
M  V30 1 O -1.9462 -0.7781 1.4789 0
M  V30 2 C -0.6761 -0.7424 0.833 0
M  V30 3 C -0.5153 0.5985 0.0831 0
M  V30 4 C -0.579 -1.9372 -0.1195 0
M  V30 5 C -0.6809 1.8342 1.0191 0
M  V30 6 C 0.8018 0.5988 -0.714 0
M  V30 7 C 0.7294 -1.927 -0.9138 0
M  V30 8 C 0.3921 1.9466 2.1055 0
M  V30 9 C -0.7422 3.1443 0.2245 0
M  V30 10 C 0.8956 -0.5991 -1.6597 0
M  V30 11 C 0.7801 -3.1032 -1.8869 0
M  V30 12 H -2.0094 -1.6229 1.9562 0
M  V30 13 H 0.0939 -0.8405 1.6062 0
M  V30 14 H -1.3419 0.6593 -0.6409 0
M  V30 15 H -1.4411 -1.9324 -0.8005 0
M  V30 16 H -0.6653 -2.8683 0.455 0
M  V30 17 H -1.6487 1.7387 1.529 0
M  V30 18 H 0.8908 1.5133 -1.3096 0
M  V30 19 H 1.6592 0.5751 -0.0314 0
M  V30 20 H 1.5642 -2.0363 -0.2087 0
M  V30 21 H 1.3901 2.0871 1.6793 0
M  V30 22 H 0.1892 2.8065 2.7539 0
M  V30 23 H 0.4121 1.0603 2.7455 0
M  V30 24 H 0.2227 3.3941 -0.2271 0
M  V30 25 H -1.4911 3.0847 -0.5719 0
M  V30 26 H -1.0225 3.9763 0.8802 0
M  V30 27 H 1.8654 -0.5778 -2.1714 0
M  V30 28 H 0.1256 -0.5061 -2.4364 0
M  V30 29 H 0.6918 -4.0542 -1.3511 0
M  V30 30 H -0.0325 -3.0504 -2.6193 0
M  V30 31 H 1.7287 -3.1137 -2.4339 0
M  V30 END ATOM
M  V30 BEGIN BOND
M  V30 1 1 1 2
M  V30 2 1 2 3
M  V30 3 1 2 4
M  V30 4 1 3 5
M  V30 5 1 3 6
M  V30 6 1 4 7
M  V30 7 1 5 8
M  V30 8 1 5 9
M  V30 9 1 6 10
M  V30 10 1 7 11
M  V30 11 1 7 10
M  V30 12 1 1 12
M  V30 13 1 2 13
M  V30 14 1 3 14
M  V30 15 1 4 15
M  V30 16 1 4 16
M  V30 17 1 5 17
M  V30 18 1 6 18
M  V30 19 1 6 19
M  V30 20 1 7 20
M  V30 21 1 8 21
M  V30 22 1 8 22
M  V30 23 1 8 23
M  V30 24 1 9 24
M  V30 25 1 9 25
M  V30 26 1 9 26
M  V30 27 1 10 27
M  V30 28 1 10 28
M  V30 29 1 11 29
M  V30 30 1 11 30
M  V30 31 1 11 31
M  V30 END BOND
M  V30 END CTAB
M  END
>  <NO.>
5672

>  <Name>
menthol

>  <SMILES>
CC1CCC(C(C)C)C(O)C1

>  <logBB>


>  <Class>
-1

>  <MW>
156.15

>  <nHBAcc>
1

>  <nHBDon>
1

>  <SLogP>
2.44

>  <TopoPSA>
20.23

>  <MMFF94 Energy>
17.774

$$$$
CC1CCc2c(N3CCC(O)CC3)c(F)cc3c(=O)c(C(=O)O)cn1c23
Actelion Java MolfileCreator 2.0

  0  0  0  0  0  0              0 V3000
M  V30 BEGIN CTAB
M  V30 COUNTS 47 50 0 0 0
M  V30 BEGIN ATOM
M  V30 1 F 0.4827 2.3349 2.5767 0
M  V30 2 C 0.4451 1.1467 1.953 0
M  V30 3 C 0.2246 1.0845 0.5658 0
M  V30 4 C 0.6103 0.0031 2.7179 0
M  V30 5 N 0.0352 2.2387 -0.211 0
M  V30 6 C 0.1696 -0.1903 -0.0515 0
M  V30 7 C 0.5367 -1.2482 2.1029 0
M  V30 8 C -1.3472 2.7267 -0.2403 0
M  V30 9 C 1.084 3.2584 -0.1358 0
M  V30 10 C 0.2971 -1.3713 0.7193 0
M  V30 11 C -0.0396 -0.2818 -1.5454 0
M  V30 12 C 0.7102 -2.4648 2.9386 0
M  V30 13 C -1.5207 3.6972 -1.4022 0
M  V30 14 C 0.9346 4.2235 -1.3071 0
M  V30 15 N 0.2048 -2.661 0.1475 0
M  V30 16 C 0.4048 -1.6294 -2.0888 0
M  V30 17 O 0.9076 -2.3434 4.1428 0
M  V30 18 C 0.6285 -3.7882 2.2712 0
M  V30 19 C -0.4755 4.807 -1.3456 0
M  V30 20 C 0.3802 -3.7769 0.9517 0
M  V30 21 C -0.182 -2.7754 -1.2718 0 CFG=2
M  V30 22 C 0.8031 -5.0548 3.0086 0
M  V30 23 O -0.6276 5.6369 -2.4949 0
M  V30 24 C -1.7046 -2.8838 -1.395 0
M  V30 25 O 1.0957 -5.1964 4.1813 0
M  V30 26 O 0.6051 -6.1512 2.2459 0
M  V30 27 H 0.7833 0.0967 3.7862 0
M  V30 28 H -2.0545 1.8981 -0.3689 0
M  V30 29 H -1.5909 3.2245 0.707 0
M  V30 30 H 1.0206 3.8157 0.8063 0
M  V30 31 H 2.0765 2.7942 -0.1868 0
M  V30 32 H -1.0987 -0.1084 -1.7686 0
M  V30 33 H 0.539 0.493 -2.062 0
M  V30 34 H -1.4344 3.16 -2.356 0
M  V30 35 H -2.5288 4.1284 -1.3907 0
M  V30 36 H 1.145 3.7068 -2.2528 0
M  V30 37 H 1.6746 5.029 -1.2324 0
M  V30 38 H 1.5012 -1.689 -2.0535 0
M  V30 39 H 0.1174 -1.7185 -3.1429 0
M  V30 40 H -0.6489 5.4314 -0.4608 0
M  V30 41 H 0.2937 -4.7082 0.396 0
M  V30 42 H 0.2432 -3.7023 -1.6804 0
M  V30 43 H 0.0473 6.3355 -2.4467 0
M  V30 44 H -2.006 -2.9399 -2.446 0
M  V30 45 H -2.0675 -3.7884 -0.8943 0
M  V30 46 H -2.2202 -2.0344 -0.9352 0
M  V30 47 H 0.7556 -6.8842 2.8809 0
M  V30 END ATOM
M  V30 BEGIN BOND
M  V30 1 1 1 2
M  V30 2 2 2 3
M  V30 3 1 2 4
M  V30 4 1 3 5
M  V30 5 1 3 6
M  V30 6 2 4 7
M  V30 7 1 5 8
M  V30 8 1 5 9
M  V30 9 2 6 10
M  V30 10 1 6 11
M  V30 11 1 7 12
M  V30 12 1 8 13
M  V30 13 1 9 14
M  V30 14 1 10 15
M  V30 15 1 11 16
M  V30 16 2 12 17
M  V30 17 1 12 18
M  V30 18 1 13 19
M  V30 19 1 15 20
M  V30 20 1 15 21
M  V30 21 1 18 22
M  V30 22 1 19 23
M  V30 23 1 21 24
M  V30 24 2 22 25
M  V30 25 1 22 26
M  V30 26 1 7 10
M  V30 27 1 14 19
M  V30 28 1 16 21
M  V30 29 2 18 20
M  V30 30 1 4 27
M  V30 31 1 8 28
M  V30 32 1 8 29
M  V30 33 1 9 30
M  V30 34 1 9 31
M  V30 35 1 11 32
M  V30 36 1 11 33
M  V30 37 1 13 34
M  V30 38 1 13 35
M  V30 39 1 14 36
M  V30 40 1 14 37
M  V30 41 1 16 38
M  V30 42 1 16 39
M  V30 43 1 19 40
M  V30 44 1 20 41
M  V30 45 1 21 42
M  V30 46 1 23 43
M  V30 47 1 24 44
M  V30 48 1 24 45
M  V30 49 1 24 46
M  V30 50 1 26 47
M  V30 END BOND
M  V30 BEGIN COLLECTION
M  V30 MDLV30/STERAC1 ATOMS=(1 21)
M  V30 END COLLECTION
M  V30 END CTAB
M  END
>  <NO.>
5674

>  <Name>
nadifloxacin

>  <SMILES>
CC1CCc2c(N3CCC(O)CC3)c(F)cc3c(=O)c(C(=O)O)cn1c23

>  <logBB>


>  <Class>
-1

>  <MW>
360.15

>  <nHBAcc>
4

>  <nHBDon>
2

>  <SLogP>
2.31

>  <TopoPSA>
82.77

>  <MMFF94 Energy>
37.493

$$$$
CC1OC2(CS1)CN1CCC2CC1
Actelion Java MolfileCreator 2.0

  0  0  0  0  0  0              0 V3000
M  V30 BEGIN CTAB
M  V30 COUNTS 30 32 0 0 0
M  V30 BEGIN ATOM
M  V30 1 S -1.555 0.0818 -2.702 0
M  V30 2 C -0.7103 1.564 -2.123 0
M  V30 3 C -0.4257 -0.9794 -1.7964 0
M  V30 4 O 0.2069 1.2339 -1.072 0
M  V30 5 C -1.6969 2.6168 -1.646 0
M  V30 6 C 0.0152 -0.1222 -0.6022 0
M  V30 7 C 1.3767 -0.605 -0.0261 0
M  V30 8 C -1.0192 -0.1551 0.57 0
M  V30 9 C 1.7841 0.3272 1.1329 0
M  V30 10 C 1.2105 -2.0096 0.5775 0
M  V30 11 N -0.4161 -0.6076 1.8536 0
M  V30 12 C 0.6831 0.3185 2.2034 0
M  V30 13 C 0.1337 -1.9672 1.6732 0
M  V30 14 H -0.1186 1.9758 -2.9467 0
M  V30 15 H 0.4187 -1.2012 -2.4572 0
M  V30 16 H -0.9018 -1.9211 -1.5102 0
M  V30 17 H -2.3226 2.2539 -0.8244 0
M  V30 18 H -1.1571 3.4886 -1.2595 0
M  V30 19 H -2.3502 2.9531 -2.4578 0
M  V30 20 H 2.1584 -0.593 -0.794 0
M  V30 21 H -1.8596 -0.8214 0.3386 0
M  V30 22 H -1.4598 0.835 0.7315 0
M  V30 23 H 1.9524 1.3484 0.7726 0
M  V30 24 H 2.7302 -0.0144 1.5703 0
M  V30 25 H 2.1622 -2.3447 1.0078 0
M  V30 26 H 0.9394 -2.7385 -0.1937 0
M  V30 27 H 0.285 1.3317 2.341 0
M  V30 28 H 1.1085 0.0362 3.1745 0
M  V30 29 H -0.6772 -2.6638 1.4266 0
M  V30 30 H 0.551 -2.3267 2.622 0
M  V30 END ATOM
M  V30 BEGIN BOND
M  V30 1 1 1 2
M  V30 2 1 1 3
M  V30 3 1 2 4
M  V30 4 1 2 5
M  V30 5 1 3 6
M  V30 6 1 6 7
M  V30 7 1 6 8
M  V30 8 1 7 9
M  V30 9 1 7 10
M  V30 10 1 8 11
M  V30 11 1 9 12
M  V30 12 1 10 13
M  V30 13 1 4 6
M  V30 14 1 11 12
M  V30 15 1 11 13
M  V30 16 1 2 14
M  V30 17 1 3 15
M  V30 18 1 3 16
M  V30 19 1 5 17
M  V30 20 1 5 18
M  V30 21 1 5 19
M  V30 22 1 7 20
M  V30 23 1 8 21
M  V30 24 1 8 22
M  V30 25 1 9 23
M  V30 26 1 9 24
M  V30 27 1 10 25
M  V30 28 1 10 26
M  V30 29 1 12 27
M  V30 30 1 12 28
M  V30 31 1 13 29
M  V30 32 1 13 30
M  V30 END BOND
M  V30 END CTAB
M  END
>  <NO.>
5678

>  <Name>
cevimeline

>  <SMILES>
CC1OC2(CS1)CN1CCC2CC1

>  <logBB>


>  <Class>
-1

>  <MW>
199.1

>  <nHBAcc>
3

>  <nHBDon>
0

>  <SLogP>
1.56

>  <TopoPSA>
12.47

>  <MMFF94 Energy>
58.282

$$$$
CCC(=O)NCCC1CCc2ccc3c(c21)CCO3
Actelion Java MolfileCreator 2.0

  0  0  0  0  0  0              0 V3000
M  V30 BEGIN CTAB
M  V30 COUNTS 40 42 0 0 0
M  V30 BEGIN ATOM
M  V30 1 O 0.3966 -0.714 3.2562 0
M  V30 2 C 1.3617 -1.1583 2.6469 0
M  V30 3 N 1.8774 -0.5807 1.5053 0
M  V30 4 C 2.1182 -2.4052 3.0617 0
M  V30 5 C 1.329 0.6427 0.9539 0
M  V30 6 C 1.5275 -3.0591 4.2972 0
M  V30 7 C 1.623 0.7988 -0.539 0
M  V30 8 C 0.6954 0.0619 -1.5192 0 CFG=2
M  V30 9 C -0.7356 0.5094 -1.4714 0
M  V30 10 C 0.5428 -1.4581 -1.2953 0
M  V30 11 C -1.295 1.7025 -1.864 0
M  V30 12 C -1.5655 -0.4825 -0.9303 0
M  V30 13 C -0.7752 -1.692 -0.5405 0
M  V30 14 C -2.6595 1.9009 -1.6986 0
M  V30 15 C -0.6876 2.9322 -2.4115 0
M  V30 16 C -2.9334 -0.2771 -0.7494 0
M  V30 17 O -3.0874 3.1355 -2.1196 0
M  V30 18 C -3.4921 0.9422 -1.1417 0
M  V30 19 C -1.9606 3.6445 -2.8708 0
M  V30 20 H 2.7414 -0.9447 1.1256 0
M  V30 21 H 3.1614 -2.1299 3.2531 0
M  V30 22 H 2.1021 -3.1144 2.2264 0
M  V30 23 H 1.8231 1.4562 1.4983 0
M  V30 24 H 0.2602 0.7166 1.1762 0
M  V30 25 H 2.097 -3.9547 4.5639 0
M  V30 26 H 0.4866 -3.3534 4.1266 0
M  V30 27 H 1.5464 -2.3745 5.1517 0
M  V30 28 H 1.58 1.8703 -0.7727 0
M  V30 29 H 2.6564 0.4865 -0.738 0
M  V30 30 H 1.0826 0.2224 -2.5338 0
M  V30 31 H 1.4019 -1.9221 -0.8023 0
M  V30 32 H 0.4608 -1.9435 -2.279 0
M  V30 33 H -0.6252 -1.7125 0.5418 0
M  V30 34 H -1.2554 -2.6205 -0.8628 0
M  V30 35 H -0.1882 3.496 -1.6172 0
M  V30 36 H 0.0028 2.7573 -3.2401 0
M  V30 37 H -3.556 -1.0466 -0.3033 0
M  V30 38 H -4.5509 1.1386 -1.0145 0
M  V30 39 H -1.8895 4.7277 -2.7274 0
M  V30 40 H -2.1563 3.457 -3.9345 0
M  V30 END ATOM
M  V30 BEGIN BOND
M  V30 1 2 1 2
M  V30 2 1 2 3
M  V30 3 1 2 4
M  V30 4 1 3 5
M  V30 5 1 4 6
M  V30 6 1 5 7
M  V30 7 1 7 8
M  V30 8 1 8 9
M  V30 9 1 8 10
M  V30 10 2 9 11
M  V30 11 1 9 12
M  V30 12 1 10 13
M  V30 13 1 11 14
M  V30 14 1 11 15
M  V30 15 2 12 16
M  V30 16 1 14 17
M  V30 17 2 14 18
M  V30 18 1 15 19
M  V30 19 1 12 13
M  V30 20 1 16 18
M  V30 21 1 17 19
M  V30 22 1 3 20
M  V30 23 1 4 21
M  V30 24 1 4 22
M  V30 25 1 5 23
M  V30 26 1 5 24
M  V30 27 1 6 25
M  V30 28 1 6 26
M  V30 29 1 6 27
M  V30 30 1 7 28
M  V30 31 1 7 29
M  V30 32 1 8 30
M  V30 33 1 10 31
M  V30 34 1 10 32
M  V30 35 1 13 33
M  V30 36 1 13 34
M  V30 37 1 15 35
M  V30 38 1 15 36
M  V30 39 1 16 37
M  V30 40 1 18 38
M  V30 41 1 19 39
M  V30 42 1 19 40
M  V30 END BOND
M  V30 BEGIN COLLECTION
M  V30 MDLV30/STERAC1 ATOMS=(1 8)
M  V30 END COLLECTION
M  V30 END CTAB
M  END
>  <NO.>
5679

>  <Name>
ramelteon

>  <SMILES>
CCC(=O)NCCC1CCc2ccc3c(c21)CCO3

>  <logBB>


>  <Class>
1

>  <MW>
259.16

>  <nHBAcc>
2

>  <nHBDon>
1

>  <SLogP>
2.57

>  <TopoPSA>
38.33

>  <MMFF94 Energy>
12.302

$$$$
CCC(C(C)O)n1ncn(-c2ccc(N3CCN(c4ccc(OCC5COC(Cn6cncn6)(c6ccc(F)cc6F)C5)cc4)CC3)cc2)c1=O
Actelion Java MolfileCreator 2.0

  0  0  0  0  0  0              0 V3000
M  V30 BEGIN CTAB
M  V30 COUNTS 93 99 0 0 0
M  V30 BEGIN ATOM
M  V30 1 F -6.9887 -5.3788 -4.1727 0
M  V30 2 C -7.1497 -4.3178 -3.3696 0
M  V30 3 C -7.3172 -4.4971 -1.9801 0
M  V30 4 C -7.1808 -3.0616 -3.9676 0
M  V30 5 C -7.5701 -3.3424 -1.2148 0
M  V30 6 C -7.2717 -5.9184 -1.3808 0
M  V30 7 C -7.4002 -1.9478 -3.1779 0
M  V30 8 C -7.6018 -2.0762 -1.8105 0
M  V30 9 O -6.1261 -6.5697 -1.986 0
M  V30 10 C -6.9902 -5.9854 0.138 0
M  V30 11 C -8.5767 -6.6346 -1.8253 0
M  V30 12 F -7.436 -0.7326 -3.7385 0
M  V30 13 C -5.1903 -6.9758 -0.9797 0
M  V30 14 C -5.481 -6.1301 0.2435 0
M  V30 15 N -8.8999 -7.8704 -1.1453 0
M  V30 16 C -4.7271 -4.7976 0.1968 0
M  V30 17 N -8.1571 -8.9805 -1.2942 0
M  V30 18 C -9.9633 -8.1064 -0.3273 0
M  V30 19 O -3.3628 -5.0534 0.5398 0
M  V30 20 C -8.8187 -9.8494 -0.5267 0
M  V30 21 N -9.9278 -9.3492 0.0933 0
M  V30 22 C -2.5161 -3.9813 0.555 0
M  V30 23 C -2.8432 -2.6676 0.2405 0
M  V30 24 C -1.2066 -4.2724 0.9239 0
M  V30 25 C -1.8641 -1.6628 0.2978 0
M  V30 26 C -0.237 -3.2621 0.9806 0
M  V30 27 C -0.5368 -1.9284 0.6691 0
M  V30 28 N 0.42 -0.9308 0.7238 0
M  V30 29 C 1.6461 -1.0775 1.5256 0
M  V30 30 C 0.2741 0.3238 -0.0335 0
M  V30 31 C 2.2173 0.2889 1.973 0
M  V30 32 C 1.6399 0.9691 -0.3682 0
M  V30 33 N 2.4608 1.1916 0.8351 0
M  V30 34 C 3.4121 2.1935 0.8895 0
M  V30 35 C 3.8744 2.7115 2.1078 0
M  V30 36 C 3.9681 2.7527 -0.2693 0
M  V30 37 C 4.8381 3.7304 2.1698 0
M  V30 38 C 4.9325 3.771 -0.2199 0
M  V30 39 C 5.3803 4.2718 1.0023 0
M  V30 40 N 6.3535 5.2842 1.0588 0
M  V30 41 C 6.5843 6.2807 0.1288 0
M  V30 42 C 7.254 5.4986 2.0417 0
M  V30 43 O 5.9851 6.5154 -0.9103 0
M  V30 44 N 7.6571 7.0208 0.6529 0
M  V30 45 N 8.0445 6.511 1.8728 0
M  V30 46 C 8.2572 8.2046 0.0425 0
M  V30 47 C 9.8045 8.1524 0.1005 0
M  V30 48 C 7.6172 9.4857 0.6148 0
M  V30 49 O 10.2642 7.0389 -0.683 0
M  V30 50 C 10.4785 9.3964 -0.4686 0
M  V30 51 C 7.9533 9.7863 2.0697 0
M  V30 52 H -7.0422 -2.9613 -5.0377 0
M  V30 53 H -7.7518 -3.3849 -0.1454 0
M  V30 54 H -7.7883 -1.1874 -1.2139 0
M  V30 55 H -7.395 -5.1714 0.7405 0
M  V30 56 H -7.4131 -6.8961 0.576 0
M  V30 57 H -9.4385 -5.971 -1.6742 0
M  V30 58 H -8.5421 -6.8871 -2.8926 0
M  V30 59 H -4.172 -6.8688 -1.3641 0
M  V30 60 H -5.3662 -8.0371 -0.7727 0
M  V30 61 H -5.1891 -6.6673 1.1535 0
M  V30 62 H -4.7745 -4.3549 -0.8035 0
M  V30 63 H -5.1615 -4.1104 0.9329 0
M  V30 64 H -10.7084 -7.3644 -0.0768 0
M  V30 65 H -8.4844 -10.8728 -0.4148 0
M  V30 66 H -3.8461 -2.3791 -0.0537 0
M  V30 67 H -0.9283 -5.2949 1.1658 0
M  V30 68 H -2.1753 -0.6487 0.0625 0
M  V30 69 H 0.7732 -3.5539 1.2523 0
M  V30 70 H 1.4502 -1.6591 2.4346 0
M  V30 71 H 2.397 -1.6139 0.9327 0
M  V30 72 H -0.3286 1.0258 0.5556 0
M  V30 73 H -0.2419 0.1467 -0.9849 0
M  V30 74 H 3.1486 0.0886 2.5165 0
M  V30 75 H 1.5158 0.7711 2.6649 0
M  V30 76 H 2.1925 0.3224 -1.0605 0
M  V30 77 H 1.432 1.917 -0.8792 0
M  V30 78 H 3.467 2.3493 3.048 0
M  V30 79 H 3.6785 2.39 -1.252 0
M  V30 80 H 5.124 4.0993 3.1507 0
M  V30 81 H 5.3288 4.1478 -1.1603 0
M  V30 82 H 7.2828 4.8267 2.9084 0
M  V30 83 H 7.9702 8.1625 -1.0171 0
M  V30 84 H 10.1461 7.991 1.1293 0
M  V30 85 H 6.5257 9.4144 0.5228 0
M  V30 86 H 7.9152 10.345 0.0026 0
M  V30 87 H 11.1821 6.862 -0.416 0
M  V30 88 H 11.5647 9.2582 -0.5074 0
M  V30 89 H 10.2735 10.287 0.131 0
M  V30 90 H 10.1501 9.5809 -1.4973 0
M  V30 91 H 9.0312 9.8751 2.2292 0
M  V30 92 H 7.4951 10.7355 2.367 0
M  V30 93 H 7.566 9.0136 2.7392 0
M  V30 END ATOM
M  V30 BEGIN BOND
M  V30 1 1 1 2
M  V30 2 2 2 3
M  V30 3 1 2 4
M  V30 4 1 3 5
M  V30 5 1 3 6
M  V30 6 2 4 7
M  V30 7 2 5 8
M  V30 8 1 6 9
M  V30 9 1 6 10
M  V30 10 1 6 11
M  V30 11 1 7 12
M  V30 12 1 9 13
M  V30 13 1 10 14
M  V30 14 1 11 15
M  V30 15 1 14 16
M  V30 16 1 15 17
M  V30 17 1 15 18
M  V30 18 1 16 19
M  V30 19 2 17 20
M  V30 20 2 18 21
M  V30 21 1 19 22
M  V30 22 2 22 23
M  V30 23 1 22 24
M  V30 24 1 23 25
M  V30 25 2 24 26
M  V30 26 2 25 27
M  V30 27 1 27 28
M  V30 28 1 28 29
M  V30 29 1 28 30
M  V30 30 1 29 31
M  V30 31 1 30 32
M  V30 32 1 31 33
M  V30 33 1 33 34
M  V30 34 2 34 35
M  V30 35 1 34 36
M  V30 36 1 35 37
M  V30 37 2 36 38
M  V30 38 2 37 39
M  V30 39 1 39 40
M  V30 40 1 40 41
M  V30 41 1 40 42
M  V30 42 2 41 43
M  V30 43 1 41 44
M  V30 44 2 42 45
M  V30 45 1 44 46
M  V30 46 1 46 47
M  V30 47 1 46 48
M  V30 48 1 47 49
M  V30 49 1 47 50
M  V30 50 1 48 51
M  V30 51 1 7 8
M  V30 52 1 13 14
M  V30 53 1 20 21
M  V30 54 1 26 27
M  V30 55 1 32 33
M  V30 56 1 38 39
M  V30 57 1 44 45
M  V30 58 1 4 52
M  V30 59 1 5 53
M  V30 60 1 8 54
M  V30 61 1 10 55
M  V30 62 1 10 56
M  V30 63 1 11 57
M  V30 64 1 11 58
M  V30 65 1 13 59
M  V30 66 1 13 60
M  V30 67 1 14 61
M  V30 68 1 16 62
M  V30 69 1 16 63
M  V30 70 1 18 64
M  V30 71 1 20 65
M  V30 72 1 23 66
M  V30 73 1 24 67
M  V30 74 1 25 68
M  V30 75 1 26 69
M  V30 76 1 29 70
M  V30 77 1 29 71
M  V30 78 1 30 72
M  V30 79 1 30 73
M  V30 80 1 31 74
M  V30 81 1 31 75
M  V30 82 1 32 76
M  V30 83 1 32 77
M  V30 84 1 35 78
M  V30 85 1 36 79
M  V30 86 1 37 80
M  V30 87 1 38 81
M  V30 88 1 42 82
M  V30 89 1 46 83
M  V30 90 1 47 84
M  V30 91 1 48 85
M  V30 92 1 48 86
M  V30 93 1 49 87
M  V30 94 1 50 88
M  V30 95 1 50 89
M  V30 96 1 50 90
M  V30 97 1 51 91
M  V30 98 1 51 92
M  V30 99 1 51 93
M  V30 END BOND
M  V30 END CTAB
M  END
>  <NO.>
5680

>  <Name>
schembl3959596

>  <SMILES>
CCC(C(C)O)n1ncn(-c2ccc(N3CCN(c4ccc(OCC5COC(Cn6cncn6)(c6ccc(F)cc6F)C5)cc4)CC3)cc2)c1=O

>  <logBB>


>  <Class>
-1

>  <MW>
700.33

>  <nHBAcc>
9

>  <nHBDon>
1

>  <SLogP>
4.57

>  <TopoPSA>
115.7

>  <MMFF94 Energy>
196.94

$$$$
CCC(NC(C)C)C(O)c1ccc(O)c2[nH]c(=O)ccc12
Actelion Java MolfileCreator 2.0

  0  0  0  0  0  0              0 V3000
M  V30 BEGIN CTAB
M  V30 COUNTS 43 44 0 0 0
M  V30 BEGIN ATOM
M  V30 1 O -1.337 -0.7863 -5.2775 0
M  V30 2 C -0.9095 -0.9161 -4.1362 0
M  V30 3 N -1.3129 -1.9133 -3.2993 0
M  V30 4 C 0.0951 0.0248 -3.5927 0
M  V30 5 C -0.8404 -2.0794 -1.988 0
M  V30 6 C 0.5713 -0.1025 -2.3467 0
M  V30 7 C -1.3378 -3.1404 -1.228 0
M  V30 8 C 0.1124 -1.1855 -1.4612 0
M  V30 9 O -2.264 -3.9773 -1.7898 0
M  V30 10 C -0.8985 -3.3341 0.0722 0
M  V30 11 C 0.5673 -1.3754 -0.1365 0
M  V30 12 C 0.045 -2.4565 0.6103 0
M  V30 13 C 1.5756 -0.4649 0.5616 0
M  V30 14 O 2.7485 -0.343 -0.2425 0
M  V30 15 C 0.9743 0.9219 0.9812 0
M  V30 16 N -0.0784 0.6962 2.0074 0
M  V30 17 C 2.0354 1.8857 1.5677 0
M  V30 18 C -1.2002 1.64 1.9116 0
M  V30 19 C 2.906 2.5706 0.5215 0
M  V30 20 C -2.1519 1.2453 0.7801 0
M  V30 21 C -1.9589 1.6344 3.2416 0
M  V30 22 H -2.0005 -2.5729 -3.6427 0
M  V30 23 H 0.4198 0.8141 -4.2586 0
M  V30 24 H 1.3087 0.6057 -1.9895 0
M  V30 25 H -2.5264 -4.639 -1.1284 0
M  V30 26 H -1.2771 -4.1468 0.6838 0
M  V30 27 H 0.3644 -2.6083 1.6409 0
M  V30 28 H 1.9247 -0.9648 1.475 0
M  V30 29 H 2.8667 -1.1893 -0.7081 0
M  V30 30 H 0.5444 1.3993 0.0945 0
M  V30 31 H 0.3436 0.7525 2.9345 0
M  V30 32 H 1.5336 2.686 2.1273 0
M  V30 33 H 2.6727 1.3583 2.2881 0
M  V30 34 H -0.8342 2.6598 1.7429 0
M  V30 35 H 3.5966 1.8783 0.0364 0
M  V30 36 H 2.293 3.0487 -0.2488 0
M  V30 37 H 3.5129 3.3486 0.9969 0
M  V30 38 H -2.5217 0.2215 0.9072 0
M  V30 39 H -1.6697 1.3101 -0.1996 0
M  V30 40 H -3.0205 1.9127 0.758 0
M  V30 41 H -1.3085 1.9452 4.0669 0
M  V30 42 H -2.3534 0.6393 3.4766 0
M  V30 43 H -2.8035 2.3313 3.2079 0
M  V30 END ATOM
M  V30 BEGIN BOND
M  V30 1 2 1 2
M  V30 2 1 2 3
M  V30 3 1 2 4
M  V30 4 1 3 5
M  V30 5 2 4 6
M  V30 6 2 5 7
M  V30 7 1 5 8
M  V30 8 1 7 9
M  V30 9 1 7 10
M  V30 10 2 8 11
M  V30 11 2 10 12
M  V30 12 1 11 13
M  V30 13 1 13 14
M  V30 14 1 13 15
M  V30 15 1 15 16
M  V30 16 1 15 17
M  V30 17 1 16 18
M  V30 18 1 17 19
M  V30 19 1 18 20
M  V30 20 1 18 21
M  V30 21 1 6 8
M  V30 22 1 11 12
M  V30 23 1 3 22
M  V30 24 1 4 23
M  V30 25 1 6 24
M  V30 26 1 9 25
M  V30 27 1 10 26
M  V30 28 1 12 27
M  V30 29 1 13 28
M  V30 30 1 14 29
M  V30 31 1 15 30
M  V30 32 1 16 31
M  V30 33 1 17 32
M  V30 34 1 17 33
M  V30 35 1 18 34
M  V30 36 1 19 35
M  V30 37 1 19 36
M  V30 38 1 19 37
M  V30 39 1 20 38
M  V30 40 1 20 39
M  V30 41 1 20 40
M  V30 42 1 21 41
M  V30 43 1 21 42
M  V30 44 1 21 43
M  V30 END BOND
M  V30 END CTAB
M  END
>  <NO.>
5683

>  <Name>
procaterol

>  <SMILES>
CCC(NC(C)C)C(O)c1ccc(O)c2[nH]c(=O)ccc12

>  <logBB>


>  <Class>
-1

>  <MW>
290.16

>  <nHBAcc>
4

>  <nHBDon>
4

>  <SLogP>
2.04

>  <TopoPSA>
85.35

>  <MMFF94 Energy>
40.796

$$$$
CCC(c1cccc(O)c1)C(C)CN(C)C
Actelion Java MolfileCreator 2.0

  0  0  0  0  0  0              0 V3000
M  V30 BEGIN CTAB
M  V30 COUNTS 39 39 0 0 0
M  V30 BEGIN ATOM
M  V30 1 O -1.4765 -3.4997 -2.0209 0
M  V30 2 C -1.8113 -2.4473 -1.2203 0
M  V30 3 C -0.8108 -1.8943 -0.4269 0
M  V30 4 C -3.106 -1.9412 -1.1948 0
M  V30 5 C -1.0947 -0.8083 0.4153 0
M  V30 6 C -3.4015 -0.8646 -0.3598 0
M  V30 7 C -2.4042 -0.3015 0.4401 0
M  V30 8 C -0.0178 -0.1765 1.2944 0
M  V30 9 C 1.1502 0.4203 0.4313 0
M  V30 10 C 0.4758 -1.1882 2.36 0
M  V30 11 C 0.6068 1.4965 -0.5543 0
M  V30 12 C 2.2572 1.0262 1.3105 0
M  V30 13 C -0.6344 -1.7278 3.2576 0
M  V30 14 N 1.6313 2.1289 -1.4102 0
M  V30 15 C 1.055 3.2798 -2.1111 0
M  V30 16 C 2.1789 1.1838 -2.3865 0
M  V30 17 H -2.2708 -3.7873 -2.4995 0
M  V30 18 H 0.1888 -2.3182 -0.4707 0
M  V30 19 H -3.891 -2.3678 -1.8104 0
M  V30 20 H -4.4106 -0.4614 -0.3294 0
M  V30 21 H -2.6576 0.5369 1.0855 0
M  V30 22 H -0.4711 0.6621 1.8426 0
M  V30 23 H 1.6022 -0.3948 -0.1461 0
M  V30 24 H 0.9941 -2.0292 1.8842 0
M  V30 25 H 1.2016 -0.703 3.0209 0
M  V30 26 H -0.1778 1.073 -1.1926 0
M  V30 27 H 0.1278 2.2772 0.0527 0
M  V30 28 H 1.8494 1.7747 1.9981 0
M  V30 29 H 2.7654 0.2564 1.8984 0
M  V30 30 H 3.0343 1.5081 0.7089 0
M  V30 31 H -1.34 -2.3519 2.7016 0
M  V30 32 H -0.2042 -2.3469 4.0517 0
M  V30 33 H -1.1888 -0.9106 3.73 0
M  V30 34 H 0.689 4.0239 -1.3948 0
M  V30 35 H 0.2246 2.9925 -2.7663 0
M  V30 36 H 1.8165 3.7822 -2.7182 0
M  V30 37 H 1.4005 0.7488 -3.0238 0
M  V30 38 H 2.7194 0.3708 -1.8925 0
M  V30 39 H 2.911 1.6816 -3.0328 0
M  V30 END ATOM
M  V30 BEGIN BOND
M  V30 1 1 1 2
M  V30 2 2 2 3
M  V30 3 1 2 4
M  V30 4 1 3 5
M  V30 5 2 4 6
M  V30 6 2 5 7
M  V30 7 1 5 8
M  V30 8 1 8 9
M  V30 9 1 8 10
M  V30 10 1 9 11
M  V30 11 1 9 12
M  V30 12 1 10 13
M  V30 13 1 11 14
M  V30 14 1 14 15
M  V30 15 1 14 16
M  V30 16 1 6 7
M  V30 17 1 1 17
M  V30 18 1 3 18
M  V30 19 1 4 19
M  V30 20 1 6 20
M  V30 21 1 7 21
M  V30 22 1 8 22
M  V30 23 1 9 23
M  V30 24 1 10 24
M  V30 25 1 10 25
M  V30 26 1 11 26
M  V30 27 1 11 27
M  V30 28 1 12 28
M  V30 29 1 12 29
M  V30 30 1 12 30
M  V30 31 1 13 31
M  V30 32 1 13 32
M  V30 33 1 13 33
M  V30 34 1 15 34
M  V30 35 1 15 35
M  V30 36 1 15 36
M  V30 37 1 16 37
M  V30 38 1 16 38
M  V30 39 1 16 39
M  V30 END BOND
M  V30 END CTAB
M  END
>  <NO.>
5684

>  <Name>
3-(1-(dimethylamino)-2-methylpentan-3-yl)phenol

>  <SMILES>
CCC(c1cccc(O)c1)C(C)CN(C)C

>  <logBB>


>  <Class>
1

>  <MW>
221.18

>  <nHBAcc>
2

>  <nHBDon>
1

>  <SLogP>
3.08

>  <TopoPSA>
23.47

>  <MMFF94 Energy>
26.947

$$$$
CCC12C=CCN3CCC4(c5cc(C6(C(=O)OC)CC7C=C(C)CN(C7)c7c6[nH]c6ccccc76)c(OC)cc5N(C)C4C(O)(C(=O)OC)C1OC(C)=O)C32
Actelion Java MolfileCreator 2.0

  0  0  0  0  0  0              0 V3000
M  V30 BEGIN CTAB
M  V30 COUNTS 105 113 0 0 0
M  V30 BEGIN ATOM
M  V30 1 O 0.8069 -5.6588 0.3227 0
M  V30 2 C 0.4846 -4.5312 0.6894 0
M  V30 3 O -0.4262 -4.2865 1.687 0
M  V30 4 C 1.0546 -3.2084 0.1107 0
M  V30 5 C -0.9816 -5.4658 2.2655 0
M  V30 6 C -0.0534 -2.304 -0.5479 0
M  V30 7 C 1.7478 -2.4852 1.2869 0
M  V30 8 C 2.0493 -3.5007 -1.0629 0
M  V30 9 C -1.2292 -2.8296 -1.1486 0
M  V30 10 C 0.1817 -0.9122 -0.6571 0
M  V30 11 N 1.0381 -1.7233 2.1968 0
M  V30 12 C 3.0669 -2.4348 1.6957 0
M  V30 13 C 3.331 -4.3433 -0.8205 0
M  V30 14 O -1.3579 -4.1928 -1.1449 0
M  V30 15 C -2.174 -1.9736 -1.7417 0
M  V30 16 C -0.7679 -0.0891 -1.244 0
M  V30 17 C 1.8846 -1.0923 3.0782 0
M  V30 18 N 4.0651 -3.1664 1.1453 0
M  V30 19 C 3.1772 -1.5252 2.7861 0
M  V30 20 C 4.4843 -3.681 -1.5661 0
M  V30 21 C 3.7639 -4.4977 0.6388 0
M  V30 22 C -2.5205 -4.7663 -1.7275 0
M  V30 23 C -1.9467 -0.6095 -1.7704 0
M  V30 24 C -0.6855 1.3835 -1.5617 0
M  V30 25 C 1.6017 -0.1968 4.1166 0
M  V30 26 C 5.2487 -2.5324 0.5611 0
M  V30 27 C 4.2389 -1.0568 3.5879 0
M  V30 28 C 5.3517 -2.8634 -0.9276 0
M  V30 29 N -2.7756 0.3816 -2.2717 0
M  V30 30 C -2.1782 1.705 -1.9183 0
M  V30 31 C -0.0228 2.33 -0.553 0
M  V30 32 C 0.2078 1.5466 -2.8275 0
M  V30 33 C 2.6748 0.2706 4.8808 0
M  V30 34 C 3.9761 -0.1539 4.6246 0
M  V30 35 C 6.4888 -2.2014 -1.6488 0
M  V30 36 C -3.6908 0.1921 -3.3726 0
M  V30 37 C -3.0254 2.3358 -0.766 0
M  V30 38 N 0.3985 3.4389 -1.4377 0
M  V30 39 C -0.9041 2.8711 0.6231 0
M  V30 40 C 1.0144 2.8193 -2.606 0
M  V30 41 O -3.474 1.297 0.1337 0
M  V30 42 C -4.2614 2.9902 -1.4167 0
M  V30 43 C -2.2609 3.3957 0.0521 0
M  V30 44 C 1.3129 4.3555 -0.7488 0
M  V30 45 C -0.1834 4.0821 1.2445 0
M  V30 46 C -0.9859 1.7487 1.7074 0
M  V30 47 O -5.4223 2.6587 -1.1975 0
M  V30 48 O -3.903 3.9684 -2.2981 0
M  V30 49 O -3.086 3.8498 1.1642 0
M  V30 50 C 0.8123 4.7288 0.6163 0
M  V30 51 C -1.8244 1.997 2.9573 0
M  V30 52 C -5.0032 4.6766 -2.8705 0
M  V30 53 C -3.7388 5.0331 1.0491 0
M  V30 54 O -3.7086 5.7765 0.0799 0
M  V30 55 C -4.5241 5.3019 2.2957 0
M  V30 56 H -1.6907 -5.1612 3.0402 0
M  V30 57 H -1.5224 -6.0457 1.5111 0
M  V30 58 H -0.1977 -6.0699 2.7327 0
M  V30 59 H 2.3445 -2.5337 -1.4994 0
M  V30 60 H 1.4986 -4.0037 -1.8728 0
M  V30 61 H 1.1206 -0.4828 -0.3142 0
M  V30 62 H 0.0329 -1.6082 2.1881 0
M  V30 63 H 3.1849 -5.348 -1.236 0
M  V30 64 H -3.0888 -2.354 -2.1774 0
M  V30 65 H 4.5697 -3.8752 -2.6311 0
M  V30 66 H 4.664 -5.1254 0.7051 0
M  V30 67 H 3.0225 -5.0103 1.2585 0
M  V30 68 H -3.4256 -4.4414 -1.2039 0
M  V30 69 H -2.4462 -5.8525 -1.6181 0
M  V30 70 H -2.5769 -4.543 -2.7977 0
M  V30 71 H 0.5871 0.1215 4.3308 0
M  V30 72 H 5.2177 -1.4427 0.6813 0
M  V30 73 H 6.1423 -2.9032 1.0764 0
M  V30 74 H 5.2513 -1.4018 3.4051 0
M  V30 75 H -2.1985 2.3624 -2.7961 0
M  V30 76 H 0.8785 1.8519 -0.1386 0
M  V30 77 H -0.3827 1.6149 -3.7486 0
M  V30 78 H 0.9025 0.7076 -2.9618 0
M  V30 79 H 2.4875 0.9669 5.6949 0
M  V30 80 H 4.7952 0.2092 5.2397 0
M  V30 81 H 6.3956 -1.1123 -1.5865 0
M  V30 82 H 7.4438 -2.4958 -1.2021 0
M  V30 83 H 6.518 -2.4738 -2.709 0
M  V30 84 H -4.4129 -0.6004 -3.1525 0
M  V30 85 H -3.1459 -0.0696 -4.2854 0
M  V30 86 H -4.2594 1.1056 -3.5715 0
M  V30 87 H 0.971 3.4802 -3.4774 0
M  V30 88 H 2.0641 2.5518 -2.4308 0
M  V30 89 H -3.7803 0.5799 -0.4591 0
M  V30 90 H -2.0436 4.2535 -0.5985 0
M  V30 91 H 1.4146 5.2671 -1.3484 0
M  V30 92 H 2.3137 3.921 -0.6311 0
M  V30 93 H -0.5148 4.445 2.2133 0
M  V30 94 H 0.0359 1.5316 2.048 0
M  V30 95 H -1.3416 0.8147 1.2648 0
M  V30 96 H 1.2912 5.576 1.0996 0
M  V30 97 H -1.6636 1.1818 3.6713 0
M  V30 98 H -2.894 2.0074 2.7342 0
M  V30 99 H -1.5575 2.9278 3.4633 0
M  V30 100 H -4.6012 5.4875 -3.484 0
M  V30 101 H -5.5876 4.0112 -3.5131 0
M  V30 102 H -5.6331 5.114 -2.0894 0
M  V30 103 H -5.2799 4.5243 2.4317 0
M  V30 104 H -3.8515 5.3401 3.1564 0
M  V30 105 H -5.0284 6.2683 2.2056 0
M  V30 END ATOM
M  V30 BEGIN BOND
M  V30 1 2 1 2
M  V30 2 1 2 3
M  V30 3 1 2 4
M  V30 4 1 3 5
M  V30 5 1 4 6
M  V30 6 1 4 7
M  V30 7 1 4 8
M  V30 8 2 6 9
M  V30 9 1 6 10
M  V30 10 1 7 11
M  V30 11 2 7 12
M  V30 12 1 8 13
M  V30 13 1 9 14
M  V30 14 1 9 15
M  V30 15 2 10 16
M  V30 16 1 11 17
M  V30 17 1 12 18
M  V30 18 1 12 19
M  V30 19 1 13 20
M  V30 20 1 13 21
M  V30 21 1 14 22
M  V30 22 2 15 23
M  V30 23 1 16 24
M  V30 24 1 17 25
M  V30 25 1 18 26
M  V30 26 1 19 27
M  V30 27 2 20 28
M  V30 28 1 23 29
M  V30 29 1 24 30
M  V30 30 1 24 31
M  V30 31 1 24 32
M  V30 32 2 25 33
M  V30 33 2 27 34
M  V30 34 1 28 35
M  V30 35 1 29 36
M  V30 36 1 30 37
M  V30 37 1 31 38
M  V30 38 1 31 39
M  V30 39 1 32 40
M  V30 40 1 37 41
M  V30 41 1 37 42
M  V30 42 1 37 43
M  V30 43 1 38 44
M  V30 44 1 39 45
M  V30 45 1 39 46
M  V30 46 2 42 47
M  V30 47 1 42 48
M  V30 48 1 43 49
M  V30 49 1 44 50
M  V30 50 1 46 51
M  V30 51 1 48 52
M  V30 52 1 49 53
M  V30 53 2 53 54
M  V30 54 1 53 55
M  V30 55 1 16 23
M  V30 56 2 17 19
M  V30 57 1 18 21
M  V30 58 1 26 28
M  V30 59 1 29 30
M  V30 60 1 33 34
M  V30 61 1 38 40
M  V30 62 1 39 43
M  V30 63 2 45 50
M  V30 64 1 5 56
M  V30 65 1 5 57
M  V30 66 1 5 58
M  V30 67 1 8 59
M  V30 68 1 8 60
M  V30 69 1 10 61
M  V30 70 1 11 62
M  V30 71 1 13 63
M  V30 72 1 15 64
M  V30 73 1 20 65
M  V30 74 1 21 66
M  V30 75 1 21 67
M  V30 76 1 22 68
M  V30 77 1 22 69
M  V30 78 1 22 70
M  V30 79 1 25 71
M  V30 80 1 26 72
M  V30 81 1 26 73
M  V30 82 1 27 74
M  V30 83 1 30 75
M  V30 84 1 31 76
M  V30 85 1 32 77
M  V30 86 1 32 78
M  V30 87 1 33 79
M  V30 88 1 34 80
M  V30 89 1 35 81
M  V30 90 1 35 82
M  V30 91 1 35 83
M  V30 92 1 36 84
M  V30 93 1 36 85
M  V30 94 1 36 86
M  V30 95 1 40 87
M  V30 96 1 40 88
M  V30 97 1 41 89
M  V30 98 1 43 90
M  V30 99 1 44 91
M  V30 100 1 44 92
M  V30 101 1 45 93
M  V30 102 1 46 94
M  V30 103 1 46 95
M  V30 104 1 50 96
M  V30 105 1 51 97
M  V30 106 1 51 98
M  V30 107 1 51 99
M  V30 108 1 52 100
M  V30 109 1 52 101
M  V30 110 1 52 102
M  V30 111 1 55 103
M  V30 112 1 55 104
M  V30 113 1 55 105
M  V30 END BOND
M  V30 END CTAB
M  END
>  <NO.>
5685

>  <Name>
vinorelbine

>  <SMILES>
CCC12C=CCN3CCC4(c5cc(C6(C(=O)OC)CC7C=C(C)CN(C7)c7c6[nH]c6ccccc76)c(OC)cc5N(C)C4C(O)(C(=O)OC)C1OC(C)=O)C32

>  <logBB>


>  <Class>
-1

>  <MW>
750.36

>  <nHBAcc>
11

>  <nHBDon>
2

>  <SLogP>
4.37

>  <TopoPSA>
133.87

>  <MMFF94 Energy>
218.69

$$$$
CCC1C(=O)OCC1Cc1cncn1C
Actelion Java MolfileCreator 2.0

  0  0  0  0  0  0              0 V3000
M  V30 BEGIN CTAB
M  V30 COUNTS 31 32 0 0 0
M  V30 BEGIN ATOM
M  V30 1 O 1.6575 -2.6057 -2.3686 0
M  V30 2 C 1.4516 -2.2518 -1.2193 0
M  V30 3 O 1.9605 -2.899 -0.1324 0
M  V30 4 C 0.5878 -1.0859 -0.7869 0
M  V30 5 C 1.4233 -2.3223 1.0509 0
M  V30 6 C 1.0147 -0.9118 0.672 0
M  V30 7 C 0.851 0.1555 -1.6456 0
M  V30 8 C -0.0729 -0.3987 1.6238 0
M  V30 9 C 0.0767 0.1293 -2.9577 0
M  V30 10 C -0.3476 1.0572 1.4748 0
M  V30 11 N -1.4994 1.6045 0.9585 0
M  V30 12 C 0.4219 2.1524 1.8183 0
M  V30 13 C -1.3679 2.9638 0.9955 0
M  V30 14 C -2.6562 0.9021 0.4611 0
M  V30 15 N -0.2152 3.3228 1.5098 0
M  V30 16 H -0.4592 -1.4055 -0.8472 0
M  V30 17 H 2.1873 -2.3225 1.8346 0
M  V30 18 H 0.5822 -2.9404 1.3851 0
M  V30 19 H 1.9044 -0.2683 0.72 0
M  V30 20 H 1.9212 0.2486 -1.8673 0
M  V30 21 H 0.5606 1.0639 -1.1114 0
M  V30 22 H 0.2517 -0.5684 2.6594 0
M  V30 23 H -0.9901 -0.9862 1.5002 0
M  V30 24 H 0.3659 -0.7194 -3.583 0
M  V30 25 H -1.0007 0.0701 -2.774 0
M  V30 26 H 0.2712 1.0445 -3.5261 0
M  V30 27 H 1.4061 2.1565 2.2697 0
M  V30 28 H -2.1336 3.6419 0.6411 0
M  V30 29 H -3.0918 0.3274 1.2822 0
M  V30 30 H -2.3413 0.2414 -0.3494 0
M  V30 31 H -3.3891 1.6205 0.0847 0
M  V30 END ATOM
M  V30 BEGIN BOND
M  V30 1 2 1 2
M  V30 2 1 2 3
M  V30 3 1 2 4
M  V30 4 1 3 5
M  V30 5 1 4 6
M  V30 6 1 4 7
M  V30 7 1 6 8
M  V30 8 1 7 9
M  V30 9 1 8 10
M  V30 10 1 10 11
M  V30 11 2 10 12
M  V30 12 1 11 13
M  V30 13 1 11 14
M  V30 14 1 12 15
M  V30 15 1 5 6
M  V30 16 2 13 15
M  V30 17 1 4 16
M  V30 18 1 5 17
M  V30 19 1 5 18
M  V30 20 1 6 19
M  V30 21 1 7 20
M  V30 22 1 7 21
M  V30 23 1 8 22
M  V30 24 1 8 23
M  V30 25 1 9 24
M  V30 26 1 9 25
M  V30 27 1 9 26
M  V30 28 1 12 27
M  V30 29 1 13 28
M  V30 30 1 14 29
M  V30 31 1 14 30
M  V30 32 1 14 31
M  V30 END BOND
M  V30 END CTAB
M  END
>  <NO.>
5686

>  <Name>
pilocarpine

>  <SMILES>
CCC1C(=O)OCC1Cc1cncn1C

>  <logBB>


>  <Class>
-1

>  <MW>
208.12

>  <nHBAcc>
3

>  <nHBDon>
0

>  <SLogP>
1.16

>  <TopoPSA>
44.12

>  <MMFF94 Energy>
-0.59607

$$$$
CCC1C2CC3C4N(C)c5ccccc5C45CC(C2C5O)N3C1O
Actelion Java MolfileCreator 2.0

  0  0  0  0  0  0              0 V3000
M  V30 BEGIN CTAB
M  V30 COUNTS 50 55 0 0 0
M  V30 BEGIN ATOM
M  V30 1 O -1.0548 3.8989 0.3244 0
M  V30 2 C -1.0345 2.5954 0.8667 0
M  V30 3 N 0.0943 1.8619 0.2652 0
M  V30 4 C -2.3837 1.8841 0.5911 0
M  V30 5 C 0.3144 0.5923 1.0631 0
M  V30 6 C -0.2712 1.4842 -1.1424 0
M  V30 7 C -2.052 0.3962 0.2968 0
M  V30 8 C -3.3915 2.0456 1.7443 0
M  V30 9 C 1.3172 -0.2995 0.2979 0
M  V30 10 C -1.039 -0.0936 1.349 0
M  V30 11 C -1.3667 0.3705 -1.096 0
M  V30 12 C 0.9277 0.8297 -1.8587 0
M  V30 13 C -3.8391 3.4868 1.9468 0
M  V30 14 N 1.6114 -1.6437 0.8237 0
M  V30 15 C 0.895 -0.5291 -1.1858 0
M  V30 16 C -0.5912 -0.9319 -1.3667 0
M  V30 17 C 2.1576 -2.301 -0.2983 0
M  V30 18 C 2.1705 -1.8403 2.1425 0
M  V30 19 C 1.8292 -1.648 -1.5059 0
M  V30 20 O -0.8613 -1.3024 -2.7276 0
M  V30 21 C 2.9455 -3.4371 -0.3264 0
M  V30 22 C 2.3085 -2.0808 -2.7306 0
M  V30 23 C 3.4271 -3.8929 -1.5594 0
M  V30 24 C 3.1178 -3.2159 -2.7499 0
M  V30 25 H -0.1167 4.0706 0.1333 0
M  V30 26 H -0.859 2.7135 1.9431 0
M  V30 27 H -2.8565 2.3179 -0.3022 0
M  V30 28 H 0.7706 0.8623 2.0243 0
M  V30 29 H -0.5975 2.3646 -1.7079 0
M  V30 30 H -2.9517 -0.2282 0.2992 0
M  V30 31 H -4.2784 1.4366 1.5302 0
M  V30 32 H -2.9742 1.6734 2.6861 0
M  V30 33 H 2.2764 0.2498 0.3056 0
M  V30 34 H -0.9565 -1.1848 1.3442 0
M  V30 35 H -1.3812 0.1663 2.3572 0
M  V30 36 H -2.1155 0.5629 -1.875 0
M  V30 37 H 1.8637 1.379 -1.7087 0
M  V30 38 H 0.7552 0.761 -2.9392 0
M  V30 39 H -4.614 3.5341 2.7189 0
M  V30 40 H -4.2558 3.9029 1.0241 0
M  V30 41 H -3.0095 4.1222 2.2705 0
M  V30 42 H -0.9131 -1.7732 -0.7459 0
M  V30 43 H 2.1273 -2.8944 2.4357 0
M  V30 44 H 3.2113 -1.5018 2.1851 0
M  V30 45 H 1.5997 -1.2783 2.8884 0
M  V30 46 H -0.4363 -2.1692 -2.8635 0
M  V30 47 H 3.202 -3.9698 0.5817 0
M  V30 48 H 2.0531 -1.5644 -3.6504 0
M  V30 49 H 4.054 -4.7808 -1.595 0
M  V30 50 H 3.5077 -3.5859 -3.6952 0
M  V30 END ATOM
M  V30 BEGIN BOND
M  V30 1 1 1 2
M  V30 2 1 2 3
M  V30 3 1 2 4
M  V30 4 1 3 5
M  V30 5 1 3 6
M  V30 6 1 4 7
M  V30 7 1 4 8
M  V30 8 1 5 9
M  V30 9 1 5 10
M  V30 10 1 6 11
M  V30 11 1 6 12
M  V30 12 1 8 13
M  V30 13 1 9 14
M  V30 14 1 9 15
M  V30 15 1 11 16
M  V30 16 1 14 17
M  V30 17 1 14 18
M  V30 18 1 15 19
M  V30 19 1 16 20
M  V30 20 1 17 21
M  V30 21 1 19 22
M  V30 22 2 21 23
M  V30 23 2 22 24
M  V30 24 1 7 10
M  V30 25 1 7 11
M  V30 26 1 12 15
M  V30 27 1 15 16
M  V30 28 2 17 19
M  V30 29 1 23 24
M  V30 30 1 1 25
M  V30 31 1 2 26
M  V30 32 1 4 27
M  V30 33 1 5 28
M  V30 34 1 6 29
M  V30 35 1 7 30
M  V30 36 1 8 31
M  V30 37 1 8 32
M  V30 38 1 9 33
M  V30 39 1 10 34
M  V30 40 1 10 35
M  V30 41 1 11 36
M  V30 42 1 12 37
M  V30 43 1 12 38
M  V30 44 1 13 39
M  V30 45 1 13 40
M  V30 46 1 13 41
M  V30 47 1 16 42
M  V30 48 1 18 43
M  V30 49 1 18 44
M  V30 50 1 18 45
M  V30 51 1 20 46
M  V30 52 1 21 47
M  V30 53 1 22 48
M  V30 54 1 23 49
M  V30 55 1 24 50
M  V30 END BOND
M  V30 END CTAB
M  END
>  <NO.>
5687

>  <Name>
ajmaline

>  <SMILES>
CCC1C2CC3C4N(C)c5ccccc5C45CC(C2C5O)N3C1O

>  <logBB>


>  <Class>
-1

>  <MW>
326.2

>  <nHBAcc>
4

>  <nHBDon>
2

>  <SLogP>
1.55

>  <TopoPSA>
46.94

>  <MMFF94 Energy>
81.817

$$$$
CCCC(=O)OCOC(=O)C1=C(C)NC(C)=C(C(=O)OC)C1c1cccc(Cl)c1Cl
Actelion Java MolfileCreator 2.0

  0  0  0  0  0  0              0 V3000
M  V30 BEGIN CTAB
M  V30 COUNTS 53 54 0 0 0
M  V30 BEGIN ATOM
M  V30 1 Cl 2.2569 1.1279 -0.4027 0
M  V30 2 C 1.2635 0.4571 0.8527 0
M  V30 3 C 1.2187 1.0866 2.1107 0
M  V30 4 C 0.5015 -0.7102 0.6236 0
M  V30 5 Cl 2.1038 2.5331 2.464 0
M  V30 6 C 0.4356 0.5597 3.141 0
M  V30 7 C -0.2783 -1.2215 1.686 0
M  V30 8 C 0.4655 -1.4416 -0.7302 0 CFG=2
M  V30 9 C -0.3097 -0.5944 2.9298 0
M  V30 10 C -0.9479 -1.4211 -1.3183 0
M  V30 11 C 1.0246 -2.8563 -0.6023 0
M  V30 12 C -1.6149 -2.5607 -1.6086 0
M  V30 13 C -1.5785 -0.0947 -1.4905 0
M  V30 14 C 0.297 -3.9461 -0.9344 0
M  V30 15 C 2.4225 -2.9364 -0.1363 0
M  V30 16 N -0.9995 -3.7846 -1.3968 0
M  V30 17 C -3.0046 -2.6164 -2.1908 0
M  V30 18 O -2.6866 0.1973 -1.0704 0
M  V30 19 O -0.7253 0.7166 -2.1528 0
M  V30 20 C 0.8063 -5.3638 -0.8903 0
M  V30 21 O 3.3434 -2.3317 -0.6603 0
M  V30 22 O 2.4941 -3.7068 0.9779 0
M  V30 23 C -1.139 2.0852 -2.2072 0
M  V30 24 C 3.8034 -3.7793 1.5418 0
M  V30 25 O -0.7944 2.7376 -0.9865 0
M  V30 26 C -1.0943 4.0626 -0.9755 0
M  V30 27 O -1.6116 4.6713 -1.9005 0
M  V30 28 C -0.6715 4.6579 0.3466 0
M  V30 29 C -1.0928 6.1185 0.4772 0
M  V30 30 C -0.6687 6.7016 1.8152 0
M  V30 31 H 0.402 1.0477 4.1123 0
M  V30 32 H -0.8795 -2.1201 1.5436 0
M  V30 33 H 1.105 -0.94 -1.4646 0
M  V30 34 H -0.9215 -1.0038 3.7305 0
M  V30 35 H -1.5233 -4.6229 -1.6372 0
M  V30 36 H -3.0592 -3.385 -2.9701 0
M  V30 37 H -3.3126 -1.6794 -2.6619 0
M  V30 38 H -3.7288 -2.87 -1.4101 0
M  V30 39 H 1.8964 -5.4284 -0.8366 0
M  V30 40 H 0.3838 -5.8877 -0.0269 0
M  V30 41 H 0.5083 -5.9024 -1.7968 0
M  V30 42 H -0.5867 2.5443 -3.0347 0
M  V30 43 H -2.2135 2.1683 -2.4149 0
M  V30 44 H 3.756 -4.4196 2.4268 0
M  V30 45 H 4.504 -4.2251 0.8289 0
M  V30 46 H 4.143 -2.7857 1.851 0
M  V30 47 H 0.4183 4.5766 0.4216 0
M  V30 48 H -1.1295 4.0699 1.1501 0
M  V30 49 H -0.649 6.7103 -0.3321 0
M  V30 50 H -2.1809 6.205 0.3721 0
M  V30 51 H -0.9789 7.7486 1.8881 0
M  V30 52 H -1.1263 6.1532 2.6448 0
M  V30 53 H 0.4185 6.6602 1.9341 0
M  V30 END ATOM
M  V30 BEGIN BOND
M  V30 1 1 1 2
M  V30 2 2 2 3
M  V30 3 1 2 4
M  V30 4 1 3 5
M  V30 5 1 3 6
M  V30 6 2 4 7
M  V30 7 1 4 8
M  V30 8 2 6 9
M  V30 9 1 8 10
M  V30 10 1 8 11
M  V30 11 2 10 12
M  V30 12 1 10 13
M  V30 13 2 11 14
M  V30 14 1 11 15
M  V30 15 1 12 16
M  V30 16 1 12 17
M  V30 17 2 13 18
M  V30 18 1 13 19
M  V30 19 1 14 20
M  V30 20 2 15 21
M  V30 21 1 15 22
M  V30 22 1 19 23
M  V30 23 1 22 24
M  V30 24 1 23 25
M  V30 25 1 25 26
M  V30 26 2 26 27
M  V30 27 1 26 28
M  V30 28 1 28 29
M  V30 29 1 29 30
M  V30 30 1 7 9
M  V30 31 1 14 16
M  V30 32 1 6 31
M  V30 33 1 7 32
M  V30 34 1 8 33
M  V30 35 1 9 34
M  V30 36 1 16 35
M  V30 37 1 17 36
M  V30 38 1 17 37
M  V30 39 1 17 38
M  V30 40 1 20 39
M  V30 41 1 20 40
M  V30 42 1 20 41
M  V30 43 1 23 42
M  V30 44 1 23 43
M  V30 45 1 24 44
M  V30 46 1 24 45
M  V30 47 1 24 46
M  V30 48 1 28 47
M  V30 49 1 28 48
M  V30 50 1 29 49
M  V30 51 1 29 50
M  V30 52 1 30 51
M  V30 53 1 30 52
M  V30 54 1 30 53
M  V30 END BOND
M  V30 BEGIN COLLECTION
M  V30 MDLV30/STERAC1 ATOMS=(1 8)
M  V30 END COLLECTION
M  V30 END CTAB
M  END
>  <NO.>
5689

>  <Name>
clevidipine

>  <SMILES>
CCCC(=O)OCOC(=O)C1=C(C)NC(C)=C(C(=O)OC)C1c1cccc(Cl)c1Cl

>  <logBB>


>  <Class>
-1

>  <MW>
455.09

>  <nHBAcc>
7

>  <nHBDon>
1

>  <SLogP>
4.25

>  <TopoPSA>
90.93

>  <MMFF94 Energy>
-20.299

$$$$
CCCC(C)(COC(N)=O)COC(=O)NC(C)C
Actelion Java MolfileCreator 2.0

  0  0  0  0  0  0              0 V3000
M  V30 BEGIN CTAB
M  V30 COUNTS 42 41 0 0 0
M  V30 BEGIN ATOM
M  V30 1 O 0.154 -3.0852 -0.3852 0
M  V30 2 C -0.0767 -2.1371 -1.1188 0
M  V30 3 O -0.1551 -0.842 -0.7257 0
M  V30 4 N -0.2902 -2.2036 -2.4609 0
M  V30 5 C 0.0555 -0.6367 0.681 0
M  V30 6 C -0.2257 -3.4416 -3.2142 0
M  V30 7 C -0.0669 0.8696 1.0266 0 CFG=2
M  V30 8 C -1.1624 -3.376 -4.4158 0
M  V30 9 C 1.2082 -3.7208 -3.6564 0
M  V30 10 C 0.9715 1.6481 0.1698 0
M  V30 11 C 0.2467 1.1027 2.5361 0
M  V30 12 C -1.4779 1.3708 0.6676 0
M  V30 13 O 0.8772 3.0656 0.4052 0
M  V30 14 C -0.6945 0.4569 3.5645 0
M  V30 15 C 1.9633 3.668 0.9339 0
M  V30 16 C -1.7993 1.3897 4.0428 0
M  V30 17 O 3.0158 3.1391 1.2491 0
M  V30 18 N 1.723 4.9891 1.0825 0
M  V30 19 H -0.4238 -1.3197 -2.9316 0
M  V30 20 H 1.0554 -1.002 0.948 0
M  V30 21 H -0.6916 -1.2218 1.228 0
M  V30 22 H -0.5522 -4.2583 -2.559 0
M  V30 23 H -0.8796 -2.5661 -5.0977 0
M  V30 24 H -2.193 -3.1903 -4.0936 0
M  V30 25 H -1.1466 -4.3162 -4.9765 0
M  V30 26 H 1.2694 -4.6613 -4.2136 0
M  V30 27 H 1.589 -2.9176 -4.2972 0
M  V30 28 H 1.8766 -3.7964 -2.7918 0
M  V30 29 H 1.9818 1.2629 0.3534 0
M  V30 30 H 0.7736 1.5074 -0.899 0
M  V30 31 H 0.3061 2.1775 2.7469 0
M  V30 32 H 1.2555 0.7097 2.7253 0
M  V30 33 H -1.6435 1.3562 -0.4156 0
M  V30 34 H -2.2519 0.7407 1.1181 0
M  V30 35 H -1.6361 2.3996 1.0089 0
M  V30 36 H -1.133 -0.4731 3.1941 0
M  V30 37 H -0.0976 0.1852 4.4445 0
M  V30 38 H -2.3941 0.8971 4.8191 0
M  V30 39 H -1.3801 2.3047 4.4739 0
M  V30 40 H -2.4776 1.6721 3.2348 0
M  V30 41 H 2.4442 5.5775 1.4705 0
M  V30 42 H 0.8326 5.3724 0.8073 0
M  V30 END ATOM
M  V30 BEGIN BOND
M  V30 1 2 1 2
M  V30 2 1 2 3
M  V30 3 1 2 4
M  V30 4 1 3 5
M  V30 5 1 4 6
M  V30 6 1 5 7
M  V30 7 1 6 8
M  V30 8 1 6 9
M  V30 9 1 7 10
M  V30 10 1 7 11
M  V30 11 1 7 12
M  V30 12 1 10 13
M  V30 13 1 11 14
M  V30 14 1 13 15
M  V30 15 1 14 16
M  V30 16 2 15 17
M  V30 17 1 15 18
M  V30 18 1 4 19
M  V30 19 1 5 20
M  V30 20 1 5 21
M  V30 21 1 6 22
M  V30 22 1 8 23
M  V30 23 1 8 24
M  V30 24 1 8 25
M  V30 25 1 9 26
M  V30 26 1 9 27
M  V30 27 1 9 28
M  V30 28 1 10 29
M  V30 29 1 10 30
M  V30 30 1 11 31
M  V30 31 1 11 32
M  V30 32 1 12 33
M  V30 33 1 12 34
M  V30 34 1 12 35
M  V30 35 1 14 36
M  V30 36 1 14 37
M  V30 37 1 16 38
M  V30 38 1 16 39
M  V30 39 1 16 40
M  V30 40 1 18 41
M  V30 41 1 18 42
M  V30 END BOND
M  V30 BEGIN COLLECTION
M  V30 MDLV30/STERAC1 ATOMS=(1 7)
M  V30 END COLLECTION
M  V30 END CTAB
M  END
>  <NO.>
5690

>  <Name>
carisoprodol

>  <SMILES>
CCCC(C)(COC(N)=O)COC(=O)NC(C)C

>  <logBB>


>  <Class>
1

>  <MW>
260.17

>  <nHBAcc>
4

>  <nHBDon>
2

>  <SLogP>
2.02

>  <TopoPSA>
90.65

>  <MMFF94 Energy>
-120.35

$$$$
CCCC(NC(=O)C1C2CCCC2CN1C(=O)C(NC(=O)C(NC(=O)c1cnccn1)C1CCCCC1)C(C)(C)C)C(=O)C(=O)NC1CC1
Actelion Java MolfileCreator 2.0

  0  0  0  0  0  0              0 V3000
M  V30 BEGIN CTAB
M  V30 COUNTS 102 106 0 0 0
M  V30 BEGIN ATOM
M  V30 1 O -3.5806 -2.2268 -1.9084 0
M  V30 2 C -4.5815 -1.6062 -1.5663 0
M  V30 3 N -4.6635 -0.2311 -1.5755 0
M  V30 4 C -5.8031 -2.298 -1.0712 0
M  V30 5 C -3.5465 0.6221 -1.9692 0
M  V30 6 N -6.848 -1.5115 -0.6773 0
M  V30 7 C -5.8447 -3.6825 -1.015 0
M  V30 8 C -2.6902 0.8082 -0.6947 0
M  V30 9 C -4.0294 1.9657 -2.5618 0
M  V30 10 C -7.93 -2.1907 -0.2297 0
M  V30 11 N -6.9355 -4.3533 -0.563 0
M  V30 12 O -2.7307 1.8115 0.0139 0
M  V30 13 N -1.9183 -0.2908 -0.3839 0
M  V30 14 C -2.8338 2.8128 -3.0457 0
M  V30 15 C -5.0123 1.7438 -3.7299 0
M  V30 16 C -7.9735 -3.5763 -0.1736 0
M  V30 17 C -0.9562 -0.2866 0.7134 0
M  V30 18 C -3.2816 4.1274 -3.6803 0
M  V30 19 C -5.4539 3.0596 -4.3674 0
M  V30 20 C 0.3776 0.198 0.0832 0
M  V30 21 C -0.8613 -1.6634 1.4401 0
M  V30 22 C -4.2633 3.8944 -4.8219 0
M  V30 23 O 0.862 -0.3679 -0.9013 0
M  V30 24 N 0.9925 1.3146 0.6185 0
M  V30 25 C 0.0837 -1.5458 2.6519 0
M  V30 26 C -0.3562 -2.8017 0.5343 0
M  V30 27 C -2.2574 -2.0569 1.9732 0
M  V30 28 C 2.13 1.9307 -0.0821 0
M  V30 29 C 0.4753 2.1741 1.6731 0
M  V30 30 C 3.4627 1.1907 0.1534 0
M  V30 31 C 2.214 3.3454 0.4908 0
M  V30 32 C 1.5336 3.2604 1.8619 0
M  V30 33 O 4.4488 1.372 -0.5569 0
M  V30 34 N 3.5139 0.4347 1.3032 0
M  V30 35 C 1.3717 4.3793 -0.2545 0
M  V30 36 C 0.9548 4.6507 2.1256 0
M  V30 37 C 4.6825 -0.3713 1.6588 0
M  V30 38 C 1.0896 5.4264 0.8134 0
M  V30 39 C 4.4221 -1.7642 1.1007 0
M  V30 40 C 4.8327 -0.407 3.1832 0
M  V30 41 O 3.3601 -2.3743 1.2187 0
M  V30 42 C 5.5782 -2.4314 0.3633 0
M  V30 43 C 6.1318 -1.0726 3.6403 0
M  V30 44 O 6.7277 -2.0637 0.5474 0
M  V30 45 N 5.1655 -3.4503 -0.4696 0
M  V30 46 C 6.2838 -1.0123 5.1526 0
M  V30 47 C 6.0651 -4.221 -1.2588 0
M  V30 48 C 6.5112 -5.5802 -0.7973 0
M  V30 49 C 5.591 -5.455 -1.9758 0
M  V30 50 H -5.5034 0.1824 -1.1764 0
M  V30 51 H -2.9435 0.0876 -2.7144 0
M  V30 52 H -5.0062 -4.2948 -1.3292 0
M  V30 53 H -4.5582 2.5309 -1.7812 0
M  V30 54 H -8.774 -1.588 0.088 0
M  V30 55 H -1.9232 -1.0767 -1.0322 0
M  V30 56 H -2.1588 3.0421 -2.214 0
M  V30 57 H -2.2484 2.2412 -3.7774 0
M  V30 58 H -4.5423 1.1114 -4.494 0
M  V30 59 H -5.906 1.2123 -3.3832 0
M  V30 60 H -8.8504 -4.1019 0.1885 0
M  V30 61 H -1.3086 0.4479 1.4423 0
M  V30 62 H -2.4069 4.6722 -4.0531 0
M  V30 63 H -3.7503 4.7601 -2.9165 0
M  V30 64 H -6.1062 2.8526 -5.2234 0
M  V30 65 H -6.0481 3.6327 -3.6449 0
M  V30 66 H -4.6135 4.8571 -5.211 0
M  V30 67 H -3.7513 3.3831 -5.6463 0
M  V30 68 H -0.2541 -0.7668 3.3443 0
M  V30 69 H 1.1037 -1.3015 2.3441 0
M  V30 70 H 0.1291 -2.487 3.2118 0
M  V30 71 H 0.6721 -2.6327 0.2019 0
M  V30 72 H -0.9847 -2.9271 -0.3528 0
M  V30 73 H -0.3619 -3.7579 1.0711 0
M  V30 74 H -2.9673 -2.2317 1.1578 0
M  V30 75 H -2.6709 -1.2716 2.6163 0
M  V30 76 H -2.21 -2.9782 2.5654 0
M  V30 77 H 1.9438 1.9282 -1.1627 0
M  V30 78 H 0.3156 1.595 2.5871 0
M  V30 79 H -0.486 2.5804 1.3425 0
M  V30 80 H 3.2439 3.7114 0.5842 0
M  V30 81 H 2.2441 2.9591 2.6403 0
M  V30 82 H 2.6269 0.2281 1.7471 0
M  V30 83 H 1.9025 4.7997 -1.114 0
M  V30 84 H 0.4307 3.9506 -0.62 0
M  V30 85 H -0.0888 4.6042 2.4551 0
M  V30 86 H 1.5176 5.1621 2.9147 0
M  V30 87 H 5.5664 0.07 1.1884 0
M  V30 88 H 1.9335 6.1233 0.8835 0
M  V30 89 H 0.1938 6.0131 0.5881 0
M  V30 90 H 4.8047 0.621 3.5681 0
M  V30 91 H 3.9786 -0.929 3.6349 0
M  V30 92 H 6.1501 -2.1221 3.3274 0
M  V30 93 H 6.99 -0.5754 3.1738 0
M  V30 94 H 4.167 -3.6445 -0.4969 0
M  V30 95 H 7.2167 -1.4958 5.4591 0
M  V30 96 H 6.3073 0.0242 5.504 0
M  V30 97 H 5.4551 -1.5257 5.6508 0
M  V30 98 H 6.8044 -3.6137 -1.7787 0
M  V30 99 H 6.105 -5.9692 0.1288 0
M  V30 100 H 7.5428 -5.8579 -0.98 0
M  V30 101 H 5.9975 -5.6524 -2.9611 0
M  V30 102 H 4.5622 -5.7706 -1.8503 0
M  V30 END ATOM
M  V30 BEGIN BOND
M  V30 1 2 1 2
M  V30 2 1 2 3
M  V30 3 1 2 4
M  V30 4 1 3 5
M  V30 5 2 4 6
M  V30 6 1 4 7
M  V30 7 1 5 8
M  V30 8 1 5 9
M  V30 9 1 6 10
M  V30 10 2 7 11
M  V30 11 2 8 12
M  V30 12 1 8 13
M  V30 13 1 9 14
M  V30 14 1 9 15
M  V30 15 2 10 16
M  V30 16 1 13 17
M  V30 17 1 14 18
M  V30 18 1 15 19
M  V30 19 1 17 20
M  V30 20 1 17 21
M  V30 21 1 18 22
M  V30 22 2 20 23
M  V30 23 1 20 24
M  V30 24 1 21 25
M  V30 25 1 21 26
M  V30 26 1 21 27
M  V30 27 1 24 28
M  V30 28 1 24 29
M  V30 29 1 28 30
M  V30 30 1 28 31
M  V30 31 1 29 32
M  V30 32 2 30 33
M  V30 33 1 30 34
M  V30 34 1 31 35
M  V30 35 1 32 36
M  V30 36 1 34 37
M  V30 37 1 35 38
M  V30 38 1 37 39
M  V30 39 1 37 40
M  V30 40 2 39 41
M  V30 41 1 39 42
M  V30 42 1 40 43
M  V30 43 2 42 44
M  V30 44 1 42 45
M  V30 45 1 43 46
M  V30 46 1 45 47
M  V30 47 1 47 48
M  V30 48 1 47 49
M  V30 49 1 11 16
M  V30 50 1 19 22
M  V30 51 1 31 32
M  V30 52 1 36 38
M  V30 53 1 48 49
M  V30 54 1 3 50
M  V30 55 1 5 51
M  V30 56 1 7 52
M  V30 57 1 9 53
M  V30 58 1 10 54
M  V30 59 1 13 55
M  V30 60 1 14 56
M  V30 61 1 14 57
M  V30 62 1 15 58
M  V30 63 1 15 59
M  V30 64 1 16 60
M  V30 65 1 17 61
M  V30 66 1 18 62
M  V30 67 1 18 63
M  V30 68 1 19 64
M  V30 69 1 19 65
M  V30 70 1 22 66
M  V30 71 1 22 67
M  V30 72 1 25 68
M  V30 73 1 25 69
M  V30 74 1 25 70
M  V30 75 1 26 71
M  V30 76 1 26 72
M  V30 77 1 26 73
M  V30 78 1 27 74
M  V30 79 1 27 75
M  V30 80 1 27 76
M  V30 81 1 28 77
M  V30 82 1 29 78
M  V30 83 1 29 79
M  V30 84 1 31 80
M  V30 85 1 32 81
M  V30 86 1 34 82
M  V30 87 1 35 83
M  V30 88 1 35 84
M  V30 89 1 36 85
M  V30 90 1 36 86
M  V30 91 1 37 87
M  V30 92 1 38 88
M  V30 93 1 38 89
M  V30 94 1 40 90
M  V30 95 1 40 91
M  V30 96 1 43 92
M  V30 97 1 43 93
M  V30 98 1 45 94
M  V30 99 1 46 95
M  V30 100 1 46 96
M  V30 101 1 46 97
M  V30 102 1 47 98
M  V30 103 1 48 99
M  V30 104 1 48 100
M  V30 105 1 49 101
M  V30 106 1 49 102
M  V30 END BOND
M  V30 END CTAB
M  END
>  <NO.>
5691

>  <Name>
telaprevir

>  <SMILES>
CCCC(NC(=O)C1C2CCCC2CN1C(=O)C(NC(=O)C(NC(=O)c1cnccn1)C1CCCCC1)C(C)(C)C)C(=O)C(=O)NC1CC1

>  <logBB>


>  <Class>
-1

>  <MW>
679.41

>  <nHBAcc>
8

>  <nHBDon>
4

>  <SLogP>
2.45

>  <TopoPSA>
179.56

>  <MMFF94 Energy>
191.26

$$$$
CCCC1C(=O)N(c2ccccc2)N(c2ccccc2)C1=O
Actelion Java MolfileCreator 2.0

  0  0  0  0  0  0              0 V3000
M  V30 BEGIN CTAB
M  V30 COUNTS 40 42 0 0 0
M  V30 BEGIN ATOM
M  V30 1 O 2.3893 0.2387 1.9111 0
M  V30 2 C 1.5053 0.6297 1.1625 0
M  V30 3 N 0.9654 -3.0E-4 0.0385 0
M  V30 4 C 0.8239 1.9699 1.2745 0
M  V30 5 N -0.0458 0.7905 -0.5381 0
M  V30 6 C 1.5818 -1.1058 -0.5911 0
M  V30 7 C -0.1759 2.0019 0.1468 0
M  V30 8 C 0.1924 2.2062 2.6459 0
M  V30 9 C -1.0431 0.3069 -1.4161 0
M  V30 10 C 1.8173 -1.1081 -1.9719 0
M  V30 11 C 1.9704 -2.2168 0.167 0
M  V30 12 O -0.9563 2.9198 -0.0609 0
M  V30 13 C -0.8774 1.1775 3.0314 0
M  V30 14 C -1.5059 1.1165 -2.4603 0
M  V30 15 C -1.5864 -0.9738 -1.2546 0
M  V30 16 C 2.4187 -2.2097 -2.5848 0
M  V30 17 C 2.5733 -3.3168 -0.4468 0
M  V30 18 C -1.4596 1.4749 4.405 0
M  V30 19 C -2.4866 0.648 -3.3372 0
M  V30 20 C -2.5658 -1.4416 -2.1336 0
M  V30 21 C 2.7948 -3.3137 -1.8224 0
M  V30 22 C -3.0139 -0.6315 -3.175 0
M  V30 23 H 1.5757 2.7412 1.0685 0
M  V30 24 H -0.2559 3.2076 2.6647 0
M  V30 25 H 0.9817 2.1989 3.4083 0
M  V30 26 H 1.5445 -0.2537 -2.5853 0
M  V30 27 H 1.8086 -2.2381 1.2424 0
M  V30 28 H -1.6899 1.1797 2.2964 0
M  V30 29 H -0.4497 0.1689 3.0407 0
M  V30 30 H -1.1098 2.1198 -2.6003 0
M  V30 31 H -1.2627 -1.6184 -0.4419 0
M  V30 32 H 2.5961 -2.2037 -3.6572 0
M  V30 33 H 2.8733 -4.1737 0.151 0
M  V30 34 H -2.2204 0.7315 4.663 0
M  V30 35 H -0.6823 1.4466 5.1752 0
M  V30 36 H -1.9297 2.4632 4.4264 0
M  V30 37 H -2.8413 1.2849 -4.1436 0
M  V30 38 H -2.981 -2.4376 -2.0024 0
M  V30 39 H 3.2657 -4.1694 -2.2993 0
M  V30 40 H -3.7786 -0.9949 -3.8568 0
M  V30 END ATOM
M  V30 BEGIN BOND
M  V30 1 2 1 2
M  V30 2 1 2 3
M  V30 3 1 2 4
M  V30 4 1 3 5
M  V30 5 1 3 6
M  V30 6 1 4 7
M  V30 7 1 4 8
M  V30 8 1 5 9
M  V30 9 2 6 10
M  V30 10 1 6 11
M  V30 11 2 7 12
M  V30 12 1 8 13
M  V30 13 2 9 14
M  V30 14 1 9 15
M  V30 15 1 10 16
M  V30 16 2 11 17
M  V30 17 1 13 18
M  V30 18 1 14 19
M  V30 19 2 15 20
M  V30 20 2 16 21
M  V30 21 2 19 22
M  V30 22 1 5 7
M  V30 23 1 17 21
M  V30 24 1 20 22
M  V30 25 1 4 23
M  V30 26 1 8 24
M  V30 27 1 8 25
M  V30 28 1 10 26
M  V30 29 1 11 27
M  V30 30 1 13 28
M  V30 31 1 13 29
M  V30 32 1 14 30
M  V30 33 1 15 31
M  V30 34 1 16 32
M  V30 35 1 17 33
M  V30 36 1 18 34
M  V30 37 1 18 35
M  V30 38 1 18 36
M  V30 39 1 19 37
M  V30 40 1 20 38
M  V30 41 1 21 39
M  V30 42 1 22 40
M  V30 END BOND
M  V30 END CTAB
M  END
>  <NO.>
5692

>  <Name>
phenylbutazone

>  <SMILES>
CCCC1C(=O)N(c2ccccc2)N(c2ccccc2)C1=O

>  <logBB>


>  <Class>
-1

>  <MW>
294.14

>  <nHBAcc>
2

>  <nHBDon>
0

>  <SLogP>
3.4

>  <TopoPSA>
40.62

>  <MMFF94 Energy>
50.575

$$$$
CCCCC(C)(O)C/C=C/C1C(O)CC(=O)C1CCCCCCC(=O)OC
Actelion Java MolfileCreator 2.0

  0  0  0  0  0  0              0 V3000
M  V30 BEGIN CTAB
M  V30 COUNTS 65 65 0 0 0
M  V30 BEGIN ATOM
M  V30 1 O 1.0178 1.8013 4.3902 0
M  V30 2 C 0.5745 0.9863 3.5878 0
M  V30 3 C 0.818 1.0586 2.0937 0
M  V30 4 C -0.3024 -0.1662 3.9952 0
M  V30 5 C -0.1552 -0.0136 1.5582 0
M  V30 6 C 2.2972 0.7912 1.7935 0
M  V30 7 C -0.3458 -1.0006 2.7246 0
M  V30 8 C -1.4762 0.6045 1.1442 0
M  V30 9 C 2.6488 1.056 0.3268 0
M  V30 10 O 0.7185 -1.9494 2.7267 0
M  V30 11 C -2.01 0.456 -0.0787 0
M  V30 12 C 4.1361 0.8147 0.061 0
M  V30 13 C -3.321 1.0621 -0.5043 0
M  V30 14 C 4.4918 1.0918 -1.4009 0
M  V30 15 C -4.4458 0.047 -0.8355 0
M  V30 16 C 5.9793 0.8416 -1.6669 0
M  V30 17 O -5.6315 0.7846 -1.1686 0
M  V30 18 C -4.7776 -0.9287 0.3197 0
M  V30 19 C -4.0936 -0.7644 -2.0907 0
M  V30 20 C 6.3738 1.1453 -3.1119 0
M  V30 21 C -5.2477 -0.2602 1.6194 0
M  V30 22 C 5.8571 0.1222 -4.0979 0
M  V30 23 C -5.4138 -1.2495 2.7772 0
M  V30 24 O 5.4059 -0.9772 -3.8118 0
M  V30 25 O 5.998 0.6044 -5.3659 0
M  V30 26 C -6.5107 -2.2775 2.5486 0
M  V30 27 C 5.5516 -0.295 -6.3811 0
M  V30 28 H 0.5393 2.0618 1.7487 0
M  V30 29 H 0.1408 -0.6992 4.8396 0
M  V30 30 H -1.29 0.2285 4.2502 0
M  V30 31 H 0.2831 -0.5358 0.6999 0
M  V30 32 H 2.5679 -0.2366 2.061 0
M  V30 33 H 2.9164 1.4404 2.4264 0
M  V30 34 H -1.2817 -1.5649 2.6451 0
M  V30 35 H -2.0085 1.1968 1.8873 0
M  V30 36 H 2.3948 2.0921 0.0718 0
M  V30 37 H 2.056 0.4086 -0.3284 0
M  V30 38 H 0.5326 -2.6081 3.4195 0
M  V30 39 H -1.4773 -0.1226 -0.8316 0
M  V30 40 H 4.3893 -0.2227 0.3106 0
M  V30 41 H 4.7362 1.4606 0.7135 0
M  V30 42 H -3.1357 1.6891 -1.387 0
M  V30 43 H -3.6785 1.7709 0.2538 0
M  V30 44 H 4.2456 2.1322 -1.646 0
M  V30 45 H 3.8806 0.4549 -2.0504 0
M  V30 46 H 6.2327 -0.195 -1.4146 0
M  V30 47 H 6.571 1.4851 -1.0042 0
M  V30 48 H -5.8369 1.3845 -0.4319 0
M  V30 49 H -5.5794 -1.5966 -0.0202 0
M  V30 50 H -3.908 -1.563 0.5314 0
M  V30 51 H -3.8754 -0.1007 -2.9352 0
M  V30 52 H -3.2317 -1.4194 -1.9313 0
M  V30 53 H -4.9414 -1.3859 -2.4021 0
M  V30 54 H 6.0015 2.136 -3.3962 0
M  V30 55 H 7.4666 1.1483 -3.1919 0
M  V30 56 H -6.1978 0.2598 1.4513 0
M  V30 57 H -4.5235 0.4966 1.9361 0
M  V30 58 H -4.4645 -1.7641 2.9663 0
M  V30 59 H -5.6521 -0.6827 3.6853 0
M  V30 60 H -6.6475 -2.8865 3.448 0
M  V30 61 H -7.4643 -1.791 2.3209 0
M  V30 62 H -6.2612 -2.9544 1.7265 0
M  V30 63 H 5.7013 0.1875 -7.3508 0
M  V30 64 H 6.1383 -1.2186 -6.3596 0
M  V30 65 H 4.4849 -0.5092 -6.262 0
M  V30 END ATOM
M  V30 BEGIN BOND
M  V30 1 2 1 2
M  V30 2 1 2 3
M  V30 3 1 2 4
M  V30 4 1 3 5
M  V30 5 1 3 6
M  V30 6 1 4 7
M  V30 7 1 5 8
M  V30 8 1 6 9
M  V30 9 1 7 10
M  V30 10 2 8 11
M  V30 11 1 9 12
M  V30 12 1 11 13
M  V30 13 1 12 14
M  V30 14 1 13 15
M  V30 15 1 14 16
M  V30 16 1 15 17
M  V30 17 1 15 18
M  V30 18 1 15 19
M  V30 19 1 16 20
M  V30 20 1 18 21
M  V30 21 1 20 22
M  V30 22 1 21 23
M  V30 23 2 22 24
M  V30 24 1 22 25
M  V30 25 1 23 26
M  V30 26 1 25 27
M  V30 27 1 5 7
M  V30 28 1 3 28
M  V30 29 1 4 29
M  V30 30 1 4 30
M  V30 31 1 5 31
M  V30 32 1 6 32
M  V30 33 1 6 33
M  V30 34 1 7 34
M  V30 35 1 8 35
M  V30 36 1 9 36
M  V30 37 1 9 37
M  V30 38 1 10 38
M  V30 39 1 11 39
M  V30 40 1 12 40
M  V30 41 1 12 41
M  V30 42 1 13 42
M  V30 43 1 13 43
M  V30 44 1 14 44
M  V30 45 1 14 45
M  V30 46 1 16 46
M  V30 47 1 16 47
M  V30 48 1 17 48
M  V30 49 1 18 49
M  V30 50 1 18 50
M  V30 51 1 19 51
M  V30 52 1 19 52
M  V30 53 1 19 53
M  V30 54 1 20 54
M  V30 55 1 20 55
M  V30 56 1 21 56
M  V30 57 1 21 57
M  V30 58 1 23 58
M  V30 59 1 23 59
M  V30 60 1 26 60
M  V30 61 1 26 61
M  V30 62 1 26 62
M  V30 63 1 27 63
M  V30 64 1 27 64
M  V30 65 1 27 65
M  V30 END BOND
M  V30 END CTAB
M  END
>  <NO.>
5694

>  <Name>
misoprostol

>  <SMILES>
CCCCC(C)(O)C/C=C/C1C(O)CC(=O)C1CCCCCCC(=O)OC

>  <logBB>


>  <Class>
1

>  <MW>
382.27

>  <nHBAcc>
5

>  <nHBDon>
2

>  <SLogP>
3.95

>  <TopoPSA>
83.83

>  <MMFF94 Energy>
42.198

$$$$
CCCCC(F)(F)C1(O)CCC2C(CC(=O)C2CCCCCCC(=O)O)O1
Actelion Java MolfileCreator 2.0

  0  0  0  0  0  0              0 V3000
M  V30 BEGIN CTAB
M  V30 COUNTS 59 60 0 0 0
M  V30 BEGIN ATOM
M  V30 1 F -3.1005 4.0559 2.3047 0
M  V30 2 C -1.8416 3.7035 1.9059 0
M  V30 3 F -1.0963 3.5965 3.0383 0
M  V30 4 C -1.9345 2.3185 1.176 0
M  V30 5 C -1.2762 4.8255 1.0355 0
M  V30 6 O -0.6757 2.0462 0.5496 0
M  V30 7 O -2.9631 2.3636 0.1761 0
M  V30 8 C -2.3134 1.2274 2.1852 0
M  V30 9 C -1.2709 6.1664 1.7768 0
M  V30 10 C -0.4636 0.7474 0.0165 0
M  V30 11 C -2.289 -0.1491 1.5329 0
M  V30 12 C -0.6997 7.2823 0.9016 0
M  V30 13 C -0.9099 -0.4053 0.9213 0
M  V30 14 C -1.1106 0.4867 -1.3402 0
M  V30 15 C -0.6926 8.6154 1.6328 0
M  V30 16 C -0.9037 -1.643 0.0031 0
M  V30 17 C -1.2204 -1.0152 -1.3453 0
M  V30 18 C 0.4655 -2.3352 -0.0234 0
M  V30 19 O -1.5298 -1.6604 -2.3403 0
M  V30 20 C 0.4147 -3.7075 -0.705 0
M  V30 21 C 1.7822 -4.3957 -0.6667 0
M  V30 22 C 1.7304 -5.7697 -1.3392 0
M  V30 23 C 3.0427 -6.5553 -1.2263 0
M  V30 24 C 4.2352 -5.922 -1.9426 0
M  V30 25 C 4.0647 -5.8904 -3.4376 0
M  V30 26 O 3.4074 -6.6552 -4.1221 0
M  V30 27 O 4.7802 -4.9024 -4.0097 0
M  V30 28 H -1.8762 4.9251 0.1236 0
M  V30 29 H -0.2489 4.5841 0.7397 0
M  V30 30 H -3.5189 3.1426 0.3605 0
M  V30 31 H -1.6048 1.2238 3.0225 0
M  V30 32 H -3.315 1.4106 2.5919 0
M  V30 33 H -0.6752 6.0788 2.6936 0
M  V30 34 H -2.2929 6.4256 2.0789 0
M  V30 35 H 0.6228 0.666 -0.1218 0
M  V30 36 H -2.5119 -0.9183 2.2818 0
M  V30 37 H -3.077 -0.2159 0.7728 0
M  V30 38 H 0.324 7.0322 0.6001 0
M  V30 39 H -1.2939 7.378 -0.0146 0
M  V30 40 H -0.2017 -0.5168 1.7526 0
M  V30 41 H -0.4668 0.8303 -2.1543 0
M  V30 42 H -2.1036 0.9192 -1.458 0
M  V30 43 H -0.2805 9.3987 0.9889 0
M  V30 44 H -1.7069 8.9107 1.9203 0
M  V30 45 H -0.08 8.5629 2.5386 0
M  V30 46 H -1.6972 -2.343 0.286 0
M  V30 47 H 1.2053 -1.7073 -0.5356 0
M  V30 48 H 0.8187 -2.4742 1.006 0
M  V30 49 H 0.0961 -3.6002 -1.7476 0
M  V30 50 H -0.3277 -4.3387 -0.2016 0
M  V30 51 H 2.1079 -4.5083 0.3744 0
M  V30 52 H 2.5155 -3.7568 -1.171 0
M  V30 53 H 1.4481 -5.6551 -2.3922 0
M  V30 54 H 0.9386 -6.3662 -0.8684 0
M  V30 55 H 2.8753 -7.5644 -1.6235 0
M  V30 56 H 3.2945 -6.6768 -0.1655 0
M  V30 57 H 4.4056 -4.9058 -1.5736 0
M  V30 58 H 5.1384 -6.5061 -1.7325 0
M  V30 59 H 4.5933 -5.0013 -4.9671 0
M  V30 END ATOM
M  V30 BEGIN BOND
M  V30 1 1 1 2
M  V30 2 1 2 3
M  V30 3 1 2 4
M  V30 4 1 2 5
M  V30 5 1 4 6
M  V30 6 1 4 7
M  V30 7 1 4 8
M  V30 8 1 5 9
M  V30 9 1 6 10
M  V30 10 1 8 11
M  V30 11 1 9 12
M  V30 12 1 10 13
M  V30 13 1 10 14
M  V30 14 1 12 15
M  V30 15 1 13 16
M  V30 16 1 14 17
M  V30 17 1 16 18
M  V30 18 2 17 19
M  V30 19 1 18 20
M  V30 20 1 20 21
M  V30 21 1 21 22
M  V30 22 1 22 23
M  V30 23 1 23 24
M  V30 24 1 24 25
M  V30 25 2 25 26
M  V30 26 1 25 27
M  V30 27 1 11 13
M  V30 28 1 16 17
M  V30 29 1 5 28
M  V30 30 1 5 29
M  V30 31 1 7 30
M  V30 32 1 8 31
M  V30 33 1 8 32
M  V30 34 1 9 33
M  V30 35 1 9 34
M  V30 36 1 10 35
M  V30 37 1 11 36
M  V30 38 1 11 37
M  V30 39 1 12 38
M  V30 40 1 12 39
M  V30 41 1 13 40
M  V30 42 1 14 41
M  V30 43 1 14 42
M  V30 44 1 15 43
M  V30 45 1 15 44
M  V30 46 1 15 45
M  V30 47 1 16 46
M  V30 48 1 18 47
M  V30 49 1 18 48
M  V30 50 1 20 49
M  V30 51 1 20 50
M  V30 52 1 21 51
M  V30 53 1 21 52
M  V30 54 1 22 53
M  V30 55 1 22 54
M  V30 56 1 23 55
M  V30 57 1 23 56
M  V30 58 1 24 57
M  V30 59 1 24 58
M  V30 60 1 27 59
M  V30 END BOND
M  V30 END CTAB
M  END
>  <NO.>
5696

>  <Name>
lubiprostone

>  <SMILES>
CCCCC(F)(F)C1(O)CCC2C(CC(=O)C2CCCCCCC(=O)O)O1

>  <logBB>


>  <Class>
-1

>  <MW>
390.22

>  <nHBAcc>
4

>  <nHBDon>
2

>  <SLogP>
4.31

>  <TopoPSA>
83.83

>  <MMFF94 Energy>
42.656

$$$$
CCCCCC(O)CCC1C(O)CC2Cc3c(cccc3OCC(=O)O)CC21
Actelion Java MolfileCreator 2.0

  0  0  0  0  0  0              0 V3000
M  V30 BEGIN CTAB
M  V30 COUNTS 62 64 0 0 0
M  V30 BEGIN ATOM
M  V30 1 O -1.5048 -8.0992 2.9321 0
M  V30 2 C -1.012 -7.0864 2.4562 0
M  V30 3 O -1.2665 -6.7513 1.1754 0
M  V30 4 C -0.0422 -6.1611 3.1657 0
M  V30 5 O -0.2321 -4.8122 2.7636 0
M  V30 6 C 0.5951 -3.8654 3.3043 0
M  V30 7 C 0.4103 -2.5507 2.8468 0
M  V30 8 C 1.5811 -4.1195 4.2632 0
M  V30 9 C 1.2009 -1.5044 3.3648 0
M  V30 10 C -0.6569 -2.1701 1.8459 0
M  V30 11 C 2.3643 -3.0787 4.772 0
M  V30 12 C 2.1716 -1.7724 4.3306 0
M  V30 13 C 0.9314 -0.1027 2.882 0
M  V30 14 C -0.1031 -1.2041 0.7848 0
M  V30 15 C 0.8025 -0.0769 1.3501 0
M  V30 16 C -1.2201 -0.5032 -3.0E-4 0
M  V30 17 C 0.2109 1.2598 0.8336 0
M  V30 18 C -1.2566 0.9168 0.5466 0
M  V30 19 C 0.979 1.7419 -0.4156 0
M  V30 20 O -2.0053 0.9237 1.7581 0
M  V30 21 C 0.5148 3.121 -0.907 0
M  V30 22 C 1.3502 3.6836 -2.0675 0
M  V30 23 O 2.6967 3.8777 -1.6308 0
M  V30 24 C 1.3968 2.8084 -3.3262 0
M  V30 25 C 0.041 2.4321 -3.9289 0
M  V30 26 C -0.7872 3.6427 -4.3638 0
M  V30 27 C -2.0838 3.2082 -5.0485 0
M  V30 28 C -2.9144 4.4064 -5.48 0
M  V30 29 H -1.8961 -7.4334 0.8647 0
M  V30 30 H -0.2382 -6.2559 4.2401 0
M  V30 31 H 0.969 -6.5049 2.921 0
M  V30 32 H 1.7644 -5.1169 4.648 0
M  V30 33 H -1.4906 -1.7173 2.3973 0
M  V30 34 H -1.0624 -3.0493 1.3326 0
M  V30 35 H 3.1224 -3.2891 5.5222 0
M  V30 36 H 2.7785 -0.9706 4.7431 0
M  V30 37 H 0.0188 0.2605 3.3698 0
M  V30 38 H 1.7422 0.5717 3.1835 0
M  V30 39 H 0.4925 -1.8004 0.0793 0
M  V30 40 H 1.814 -0.2226 0.9451 0
M  V30 41 H -0.9575 -0.485 -1.0647 0
M  V30 42 H -2.1828 -1.0155 0.0997 0
M  V30 43 H 0.2883 2.0325 1.6088 0
M  V30 44 H -1.7508 1.5986 -0.1492 0
M  V30 45 H 2.0457 1.8003 -0.165 0
M  V30 46 H 0.8868 1.0052 -1.2208 0
M  V30 47 H -2.0167 1.8371 2.0915 0
M  V30 48 H 0.581 3.8213 -0.0643 0
M  V30 49 H -0.5373 3.0864 -1.2053 0
M  V30 50 H 0.9627 4.6738 -2.3329 0
M  V30 51 H 2.6783 4.5024 -0.8857 0
M  V30 52 H 1.9592 1.8899 -3.1147 0
M  V30 53 H 1.9955 3.3278 -4.0867 0
M  V30 54 H -0.5319 1.8247 -3.2189 0
M  V30 55 H 0.2243 1.7925 -4.8015 0
M  V30 56 H -0.1989 4.263 -5.0507 0
M  V30 57 H -1.0325 4.2632 -3.4946 0
M  V30 58 H -1.854 2.5951 -5.9276 0
M  V30 59 H -2.6754 2.5877 -4.3652 0
M  V30 60 H -3.836 4.073 -5.9673 0
M  V30 61 H -3.1898 5.0237 -4.6188 0
M  V30 62 H -2.3623 5.0317 -6.1888 0
M  V30 END ATOM
M  V30 BEGIN BOND
M  V30 1 2 1 2
M  V30 2 1 2 3
M  V30 3 1 2 4
M  V30 4 1 4 5
M  V30 5 1 5 6
M  V30 6 2 6 7
M  V30 7 1 6 8
M  V30 8 1 7 9
M  V30 9 1 7 10
M  V30 10 2 8 11
M  V30 11 2 9 12
M  V30 12 1 9 13
M  V30 13 1 10 14
M  V30 14 1 13 15
M  V30 15 1 14 16
M  V30 16 1 15 17
M  V30 17 1 16 18
M  V30 18 1 17 19
M  V30 19 1 18 20
M  V30 20 1 19 21
M  V30 21 1 21 22
M  V30 22 1 22 23
M  V30 23 1 22 24
M  V30 24 1 24 25
M  V30 25 1 25 26
M  V30 26 1 26 27
M  V30 27 1 27 28
M  V30 28 1 11 12
M  V30 29 1 14 15
M  V30 30 1 17 18
M  V30 31 1 3 29
M  V30 32 1 4 30
M  V30 33 1 4 31
M  V30 34 1 8 32
M  V30 35 1 10 33
M  V30 36 1 10 34
M  V30 37 1 11 35
M  V30 38 1 12 36
M  V30 39 1 13 37
M  V30 40 1 13 38
M  V30 41 1 14 39
M  V30 42 1 15 40
M  V30 43 1 16 41
M  V30 44 1 16 42
M  V30 45 1 17 43
M  V30 46 1 18 44
M  V30 47 1 19 45
M  V30 48 1 19 46
M  V30 49 1 20 47
M  V30 50 1 21 48
M  V30 51 1 21 49
M  V30 52 1 22 50
M  V30 53 1 23 51
M  V30 54 1 24 52
M  V30 55 1 24 53
M  V30 56 1 25 54
M  V30 57 1 25 55
M  V30 58 1 26 56
M  V30 59 1 26 57
M  V30 60 1 27 58
M  V30 61 1 27 59
M  V30 62 1 28 60
M  V30 63 1 28 61
M  V30 64 1 28 62
M  V30 END BOND
M  V30 END CTAB
M  END
>  <NO.>
5697

>  <Name>
treprostinil

>  <SMILES>
CCCCCC(O)CCC1C(O)CC2Cc3c(cccc3OCC(=O)O)CC21

>  <logBB>


>  <Class>
-1

>  <MW>
390.24

>  <nHBAcc>
4

>  <nHBDon>
3

>  <SLogP>
3.58

>  <TopoPSA>
86.99

>  <MMFF94 Energy>
66.018

$$$$
CCCCCCCC(=O)OC(O)C(O)CO
Actelion Java MolfileCreator 2.0

  0  0  0  0  0  0              0 V3000
M  V30 BEGIN CTAB
M  V30 COUNTS 38 37 0 0 0
M  V30 BEGIN ATOM
M  V30 1 O -2.6332 -2.1681 -1.2385 0
M  V30 2 C -2.38 -1.2149 -0.5152 0
M  V30 3 O -2.557 0.0947 -0.8385 0
M  V30 4 C -1.8316 -1.3401 0.883 0
M  V30 5 C -3.074 0.3303 -2.1424 0
M  V30 6 C -0.3375 -1.041 0.9161 0
M  V30 7 O -4.0215 1.4065 -2.0391 0
M  V30 8 C -1.9874 0.7706 -3.1527 0
M  V30 9 C 0.2273 -1.188 2.3295 0
M  V30 10 O -2.6047 1.1159 -4.4041 0
M  V30 11 C -0.9168 -0.2926 -3.4002 0
M  V30 12 C 1.7474 -1.0156 2.3977 0
M  V30 13 O 0.0298 -0.3297 -2.3366 0
M  V30 14 C 2.2171 0.3959 2.0395 0
M  V30 15 C 3.7262 0.5437 2.2377 0
M  V30 16 C 4.2007 1.9428 1.8787 0
M  V30 17 H -2.0303 -2.3598 1.2329 0
M  V30 18 H -2.391 -0.668 1.5441 0
M  V30 19 H -3.6454 -0.5167 -2.5387 0
M  V30 20 H -0.1647 -0.0243 0.5458 0
M  V30 21 H 0.1876 -1.7204 0.2339 0
M  V30 22 H -3.5305 2.1419 -1.6343 0
M  V30 23 H -1.506 1.6813 -2.7758 0
M  V30 24 H -0.0203 -2.1857 2.7125 0
M  V30 25 H -0.2551 -0.4646 2.9981 0
M  V30 26 H -3.4664 1.5222 -4.1819 0
M  V30 27 H -0.3775 -0.0938 -4.3334 0
M  V30 28 H -1.3659 -1.2851 -3.5066 0
M  V30 29 H 2.2297 -1.7452 1.736 0
M  V30 30 H 2.0719 -1.2528 3.4185 0
M  V30 31 H 0.6993 0.351 -2.5269 0
M  V30 32 H 1.6915 1.1284 2.664 0
M  V30 33 H 1.9703 0.621 0.9961 0
M  V30 34 H 3.9877 0.3327 3.281 0
M  V30 35 H 4.2564 -0.1866 1.6157 0
M  V30 36 H 5.2816 2.0264 2.0282 0
M  V30 37 H 3.9838 2.1739 0.831 0
M  V30 38 H 3.7118 2.6957 2.5052 0
M  V30 END ATOM
M  V30 BEGIN BOND
M  V30 1 2 1 2
M  V30 2 1 2 3
M  V30 3 1 2 4
M  V30 4 1 3 5
M  V30 5 1 4 6
M  V30 6 1 5 7
M  V30 7 1 5 8
M  V30 8 1 6 9
M  V30 9 1 8 10
M  V30 10 1 8 11
M  V30 11 1 9 12
M  V30 12 1 11 13
M  V30 13 1 12 14
M  V30 14 1 14 15
M  V30 15 1 15 16
M  V30 16 1 4 17
M  V30 17 1 4 18
M  V30 18 1 5 19
M  V30 19 1 6 20
M  V30 20 1 6 21
M  V30 21 1 7 22
M  V30 22 1 8 23
M  V30 23 1 9 24
M  V30 24 1 9 25
M  V30 25 1 10 26
M  V30 26 1 11 27
M  V30 27 1 11 28
M  V30 28 1 12 29
M  V30 29 1 12 30
M  V30 30 1 13 31
M  V30 31 1 14 32
M  V30 32 1 14 33
M  V30 33 1 15 34
M  V30 34 1 15 35
M  V30 35 1 16 36
M  V30 36 1 16 37
M  V30 37 1 16 38
M  V30 END BOND
M  V30 END CTAB
M  END
>  <NO.>
5698

>  <Name>
monoctanoin

>  <SMILES>
CCCCCCCC(=O)OC(O)C(O)CO

>  <logBB>


>  <Class>
-1

>  <MW>
234.15

>  <nHBAcc>
5

>  <nHBDon>
3

>  <SLogP>
0.56

>  <TopoPSA>
86.99

>  <MMFF94 Energy>
19.422

$$$$
CCCCCCCC/C=C/CCCCCCC(N)(C=O)CO
Actelion Java MolfileCreator 2.0

  0  0  0  0  0  0              0 V3000
M  V30 BEGIN CTAB
M  V30 COUNTS 59 58 0 0 0
M  V30 BEGIN ATOM
M  V30 1 O -3.2525 -6.1247 -6.4356 0
M  V30 2 C -2.1356 -6.1244 -5.9233 0
M  V30 3 C -1.1118 -4.9947 -6.074 0 CFG=1
M  V30 4 N 0.1624 -5.6083 -6.5332 0
M  V30 5 C -1.6176 -3.9787 -7.1256 0
M  V30 6 C -0.9194 -4.3739 -4.6697 0
M  V30 7 O -0.5405 -3.1616 -7.5998 0
M  V30 8 C 0.0539 -3.1928 -4.5767 0
M  V30 9 C 0.212 -2.7228 -3.1273 0
M  V30 10 C 1.1747 -1.5382 -3.0287 0
M  V30 11 C 1.3324 -1.0682 -1.5813 0
M  V30 12 C 2.2957 0.1162 -1.4841 0
M  V30 13 C 2.4583 0.5699 -0.0612 0
M  V30 14 C 2.1083 1.7877 0.3811 0
M  V30 15 C 2.28 2.2446 1.8019 0
M  V30 16 C 0.9308 2.5662 2.4476 0
M  V30 17 C 1.1057 3.0433 3.8907 0
M  V30 18 C -0.2424 3.3655 4.5375 0
M  V30 19 C -0.0675 3.8423 5.9803 0
M  V30 20 C -1.4155 4.1645 6.6272 0
M  V30 21 C -1.2407 4.6409 8.069 0
M  V30 22 C -2.5786 4.9622 8.7157 0
M  V30 23 H -1.8176 -6.9669 -5.2829 0
M  V30 24 H 0.7883 -4.8222 -6.7468 0
M  V30 25 H 0.0046 -6.0207 -7.4555 0
M  V30 26 H -2.0375 -4.4889 -7.9999 0
M  V30 27 H -2.3912 -3.3272 -6.7043 0
M  V30 28 H -1.8984 -4.0482 -4.2907 0
M  V30 29 H -0.5865 -5.1582 -3.9747 0
M  V30 30 H -0.9273 -2.5362 -8.2381 0
M  V30 31 H -0.3154 -2.356 -5.179 0
M  V30 32 H 1.0362 -3.4762 -4.9697 0
M  V30 33 H 0.5843 -3.5502 -2.5112 0
M  V30 34 H -0.767 -2.4348 -2.7255 0
M  V30 35 H 0.803 -0.7106 -3.6451 0
M  V30 36 H 2.1539 -1.8262 -3.43 0
M  V30 37 H 1.7003 -1.8984 -0.9652 0
M  V30 38 H 0.3518 -0.7817 -1.1803 0
M  V30 39 H 3.2804 -0.172 -1.8707 0
M  V30 40 H 1.9348 0.9381 -2.1144 0
M  V30 41 H 2.8951 -0.1492 0.6289 0
M  V30 42 H 1.679 2.5098 -0.3107 0
M  V30 43 H 2.9161 3.1377 1.8044 0
M  V30 44 H 2.8002 1.4822 2.3944 0
M  V30 45 H 0.2908 1.6749 2.4316 0
M  V30 46 H 0.4154 3.3412 1.8662 0
M  V30 47 H 1.7437 3.9352 3.9077 0
M  V30 48 H 1.6171 2.2684 4.4744 0
M  V30 49 H -0.8806 2.4737 4.5202 0
M  V30 50 H -0.7539 4.1406 3.9541 0
M  V30 51 H 0.5705 4.7342 5.9976 0
M  V30 52 H 0.4439 3.0672 6.5638 0
M  V30 53 H -2.054 3.2728 6.6099 0
M  V30 54 H -1.9273 4.9395 6.0438 0
M  V30 55 H -0.7332 3.868 8.6578 0
M  V30 56 H -0.6066 5.5348 8.0916 0
M  V30 57 H -2.4301 5.3008 9.7458 0
M  V30 58 H -3.0982 5.7555 8.169 0
M  V30 59 H -3.2256 4.0795 8.7383 0
M  V30 END ATOM
M  V30 BEGIN BOND
M  V30 1 2 1 2
M  V30 2 1 2 3
M  V30 3 1 3 4
M  V30 4 1 3 5
M  V30 5 1 3 6
M  V30 6 1 5 7
M  V30 7 1 6 8
M  V30 8 1 8 9
M  V30 9 1 9 10
M  V30 10 1 10 11
M  V30 11 1 11 12
M  V30 12 1 12 13
M  V30 13 2 13 14
M  V30 14 1 14 15
M  V30 15 1 15 16
M  V30 16 1 16 17
M  V30 17 1 17 18
M  V30 18 1 18 19
M  V30 19 1 19 20
M  V30 20 1 20 21
M  V30 21 1 21 22
M  V30 22 1 2 23
M  V30 23 1 4 24
M  V30 24 1 4 25
M  V30 25 1 5 26
M  V30 26 1 5 27
M  V30 27 1 6 28
M  V30 28 1 6 29
M  V30 29 1 7 30
M  V30 30 1 8 31
M  V30 31 1 8 32
M  V30 32 1 9 33
M  V30 33 1 9 34
M  V30 34 1 10 35
M  V30 35 1 10 36
M  V30 36 1 11 37
M  V30 37 1 11 38
M  V30 38 1 12 39
M  V30 39 1 12 40
M  V30 40 1 13 41
M  V30 41 1 14 42
M  V30 42 1 15 43
M  V30 43 1 15 44
M  V30 44 1 16 45
M  V30 45 1 16 46
M  V30 46 1 17 47
M  V30 47 1 17 48
M  V30 48 1 18 49
M  V30 49 1 18 50
M  V30 50 1 19 51
M  V30 51 1 19 52
M  V30 52 1 20 53
M  V30 53 1 20 54
M  V30 54 1 21 55
M  V30 55 1 21 56
M  V30 56 1 22 57
M  V30 57 1 22 58
M  V30 58 1 22 59
M  V30 END BOND
M  V30 BEGIN COLLECTION
M  V30 MDLV30/STERAC1 ATOMS=(1 3)
M  V30 END COLLECTION
M  V30 END CTAB
M  END
>  <NO.>
5700

>  <Name>
ethanolamine oleate

>  <SMILES>
CCCCCCCC/C=C/CCCCCCC(N)(C=O)CO

>  <logBB>


>  <Class>
-1

>  <MW>
311.28

>  <nHBAcc>
3

>  <nHBDon>
2

>  <SLogP>
4.52

>  <TopoPSA>
63.32

>  <MMFF94 Energy>
59.47

$$$$
CCCCCCCCCCCCCCOS(=O)(=O)O
Actelion Java MolfileCreator 2.0

  0  0  0  0  0  0              0 V3000
M  V30 BEGIN CTAB
M  V30 COUNTS 49 48 0 0 0
M  V30 BEGIN ATOM
M  V30 1 S -6.4433 -4.9474 -1.804 0
M  V30 2 O -7.7122 -5.3217 -2.3854 0
M  V30 3 O -5.192 -5.5071 -2.2583 0
M  V30 4 O -6.3482 -3.327 -1.8186 0
M  V30 5 O -6.589 -5.2621 -0.2318 0
M  V30 6 C -5.0876 -2.7314 -1.5484 0
M  V30 7 C -5.289 -1.2252 -1.4221 0
M  V30 8 C -4.0201 -0.4665 -1.0292 0
M  V30 9 C -2.9205 -0.5402 -2.0916 0
M  V30 10 C -1.7387 0.3919 -1.8057 0
M  V30 11 C -0.96 0.0152 -0.5433 0
M  V30 12 C 0.2718 0.9059 -0.3661 0
M  V30 13 C 1.0503 0.534 0.8971 0
M  V30 14 C 2.2822 1.4246 1.0742 0
M  V30 15 C 3.061 1.0475 2.3365 0
M  V30 16 C 4.2406 1.9803 2.6258 0
M  V30 17 C 5.3509 1.9013 1.5757 0
M  V30 18 C 6.5505 2.7627 1.9731 0
M  V30 19 C 7.6564 2.692 0.9321 0
M  V30 20 H -7.5422 -5.2054 -0.0153 0
M  V30 21 H -4.4036 -2.9614 -2.3713 0
M  V30 22 H -4.6786 -3.1373 -0.6163 0
M  V30 23 H -5.6909 -0.8292 -2.3632 0
M  V30 24 H -6.0647 -1.0336 -0.6695 0
M  V30 25 H -3.6507 -0.8586 -0.0748 0
M  V30 26 H -4.2874 0.5838 -0.86 0
M  V30 27 H -3.3438 -0.2661 -3.0659 0
M  V30 28 H -2.5517 -1.5682 -2.1829 0
M  V30 29 H -2.0965 1.4257 -1.7258 0
M  V30 30 H -1.0614 0.3586 -2.6681 0
M  V30 31 H -0.6483 -1.0344 -0.6029 0
M  V30 32 H -1.6031 0.1146 0.3383 0
M  V30 33 H -0.0395 1.9562 -0.31 0
M  V30 34 H 0.925 0.8083 -1.2417 0
M  V30 35 H 1.3615 -0.5162 0.8411 0
M  V30 36 H 0.397 0.6317 1.7727 0
M  V30 37 H 1.9704 2.4744 1.1342 0
M  V30 38 H 2.9247 1.3253 0.1923 0
M  V30 39 H 3.4202 0.0144 2.2556 0
M  V30 40 H 2.3824 1.0789 3.1982 0
M  V30 41 H 4.6551 1.7118 3.6056 0
M  V30 42 H 3.8811 3.0134 2.7082 0
M  V30 43 H 4.9742 2.2396 0.604 0
M  V30 44 H 5.6709 0.8592 1.4563 0
M  V30 45 H 6.2359 3.806 2.0937 0
M  V30 46 H 6.9455 2.4289 2.9397 0
M  V30 47 H 8.5037 3.3143 1.2366 0
M  V30 48 H 8.0152 1.6651 0.8104 0
M  V30 49 H 7.3035 3.0507 -0.04 0
M  V30 END ATOM
M  V30 BEGIN BOND
M  V30 1 2 1 2
M  V30 2 2 1 3
M  V30 3 1 1 4
M  V30 4 1 1 5
M  V30 5 1 4 6
M  V30 6 1 6 7
M  V30 7 1 7 8
M  V30 8 1 8 9
M  V30 9 1 9 10
M  V30 10 1 10 11
M  V30 11 1 11 12
M  V30 12 1 12 13
M  V30 13 1 13 14
M  V30 14 1 14 15
M  V30 15 1 15 16
M  V30 16 1 16 17
M  V30 17 1 17 18
M  V30 18 1 18 19
M  V30 19 1 5 20
M  V30 20 1 6 21
M  V30 21 1 6 22
M  V30 22 1 7 23
M  V30 23 1 7 24
M  V30 24 1 8 25
M  V30 25 1 8 26
M  V30 26 1 9 27
M  V30 27 1 9 28
M  V30 28 1 10 29
M  V30 29 1 10 30
M  V30 30 1 11 31
M  V30 31 1 11 32
M  V30 32 1 12 33
M  V30 33 1 12 34
M  V30 34 1 13 35
M  V30 35 1 13 36
M  V30 36 1 14 37
M  V30 37 1 14 38
M  V30 38 1 15 39
M  V30 39 1 15 40
M  V30 40 1 16 41
M  V30 41 1 16 42
M  V30 42 1 17 43
M  V30 43 1 17 44
M  V30 44 1 18 45
M  V30 45 1 18 46
M  V30 46 1 19 47
M  V30 47 1 19 48
M  V30 48 1 19 49
M  V30 END BOND
M  V30 END CTAB
M  END
>  <NO.>
5706

>  <Name>
sodium tetradecyl sulfate

>  <SMILES>
CCCCCCCCCCCCCCOS(=O)(=O)O

>  <logBB>


>  <Class>
-1

>  <MW>
294.19

>  <nHBAcc>
3

>  <nHBDon>
1

>  <SLogP>
4.51

>  <TopoPSA>
63.6

>  <MMFF94 Energy>
-104.2

$$$$
CCCCCN(C)CCC(O)([P+](=O)O)P(=O)(O)O
Actelion Java MolfileCreator 2.0

  0  0  0  0  0  0              0 V3000
M  V30 BEGIN CTAB
M  V30 COUNTS 40 39 0 0 0
M  V30 BEGIN ATOM
M  V30 1 P -0.1621 -1.6226 -2.5971 0
M  V30 2 O 0.4347 -2.4971 -1.5433 0
M  V30 3 O -0.2881 -2.3819 -4.0073 0
M  V30 4 O -1.7072 -1.3031 -2.3041 0
M  V30 5 C 0.6757 0.0027 -2.964 0
M  V30 6 P 2.6684 -0.2292 -3.1403 0 CHG=1
M  V30 7 O 0.107 0.4795 -4.2203 0
M  V30 8 C 0.3852 1.0742 -1.8934 0
M  V30 9 O 2.6523 -0.7335 -4.7342 0
M  V30 10 O 3.0504 1.2927 -3.5356 0
M  V30 11 C 0.7645 0.667 -0.4616 0
M  V30 12 N 0.3847 1.6913 0.5307 0
M  V30 13 C 0.4175 1.1539 1.9066 0
M  V30 14 C 1.2707 2.8606 0.4487 0
M  V30 15 C -0.791 0.2565 2.2158 0
M  V30 16 C -0.7782 -0.1958 3.6797 0
M  V30 17 C -2.0128 -1.0098 4.0737 0
M  V30 18 C -2.1102 -2.3503 3.362 0
M  V30 19 H -0.5444 -3.3191 -3.9277 0
M  V30 20 H -2.21 -2.0609 -1.9542 0
M  V30 21 H 0.4087 -0.1884 -4.8728 0
M  V30 22 H 0.875 2.0107 -2.1831 0
M  V30 23 H -0.6906 1.2962 -1.9172 0
M  V30 24 H 2.9609 1.3116 -4.5163 0
M  V30 25 H 0.2324 -0.2596 -0.2391 0
M  V30 26 H 1.8337 0.442 -0.3788 0
M  V30 27 H 0.3851 1.9875 2.6208 0
M  V30 28 H 1.3554 0.6152 2.0938 0
M  V30 29 H 0.9725 3.6213 1.1796 0
M  V30 30 H 2.3177 2.5965 0.6365 0
M  V30 31 H 1.2046 3.3488 -0.5276 0
M  V30 32 H -0.7879 -0.6249 1.5687 0
M  V30 33 H -1.7178 0.8073 2.0125 0
M  V30 34 H -0.7309 0.6874 4.3287 0
M  V30 35 H 0.1273 -0.7821 3.8772 0
M  V30 36 H -1.9772 -1.192 5.1544 0
M  V30 37 H -2.9212 -0.4274 3.8808 0
M  V30 38 H -2.9531 -2.9253 3.7589 0
M  V30 39 H -2.2737 -2.224 2.2879 0
M  V30 40 H -1.1998 -2.9399 3.5076 0
M  V30 END ATOM
M  V30 BEGIN BOND
M  V30 1 2 1 2
M  V30 2 1 1 3
M  V30 3 1 1 4
M  V30 4 1 1 5
M  V30 5 1 5 6
M  V30 6 1 5 7
M  V30 7 1 5 8
M  V30 8 2 6 9
M  V30 9 1 6 10
M  V30 10 1 8 11
M  V30 11 1 11 12
M  V30 12 1 12 13
M  V30 13 1 12 14
M  V30 14 1 13 15
M  V30 15 1 15 16
M  V30 16 1 16 17
M  V30 17 1 17 18
M  V30 18 1 3 19
M  V30 19 1 4 20
M  V30 20 1 7 21
M  V30 21 1 8 22
M  V30 22 1 8 23
M  V30 23 1 10 24
M  V30 24 1 11 25
M  V30 25 1 11 26
M  V30 26 1 13 27
M  V30 27 1 13 28
M  V30 28 1 14 29
M  V30 29 1 14 30
M  V30 30 1 14 31
M  V30 31 1 15 32
M  V30 32 1 15 33
M  V30 33 1 16 34
M  V30 34 1 16 35
M  V30 35 1 17 36
M  V30 36 1 17 37
M  V30 37 1 18 38
M  V30 38 1 18 39
M  V30 39 1 18 40
M  V30 END BOND
M  V30 END CTAB
M  END
>  <NO.>
5708

>  <Name>
ibandronate

>  <SMILES>
CCCCCN(C)CCC(O)([P+](=O)O)P(=O)(O)O

>  <logBB>


>  <Class>
-1

>  <MW>
302.09

>  <nHBAcc>
4

>  <nHBDon>
4

>  <SLogP>
1.06

>  <TopoPSA>
118.3

>  <MMFF94 Energy>
-59.144

$$$$
CCCCCN=C(N)N/N=C\c1c[nH]c2ccc(OC)cc12
Actelion Java MolfileCreator 2.0

  0  0  0  0  0  0              0 V3000
M  V30 BEGIN CTAB
M  V30 COUNTS 45 46 0 0 0
M  V30 BEGIN ATOM
M  V30 1 O 2.7262 -3.5842 -0.8561 0
M  V30 2 C 1.371 -3.7193 -0.9969 0
M  V30 3 C 3.404 -4.6 -0.1292 0
M  V30 4 C 0.7451 -2.6344 -1.6261 0
M  V30 5 C 0.6134 -4.8136 -0.5844 0
M  V30 6 C -0.6509 -2.6398 -1.8345 0
M  V30 7 C -0.7716 -4.8553 -0.7909 0
M  V30 8 C -1.3717 -3.7604 -1.4214 0
M  V30 9 C -1.5835 -1.7247 -2.423 0
M  V30 10 N -2.6863 -3.5484 -1.7636 0
M  V30 11 C -2.8204 -2.3418 -2.3957 0
M  V30 12 C -1.3533 -0.4243 -3.0204 0
M  V30 13 N -0.6997 0.5709 -2.4987 0
M  V30 14 N -0.2445 0.4561 -1.2134 0
M  V30 15 C 0.5321 1.371 -0.5492 0
M  V30 16 N 0.8516 1.1564 0.6758 0
M  V30 17 N 0.8484 2.4227 -1.3382 0
M  V30 18 C 1.6914 2.0984 1.404 0
M  V30 19 C 0.8689 2.8156 2.474 0
M  V30 20 C -0.1416 3.8016 1.8825 0
M  V30 21 C -0.8912 4.5537 2.9825 0
M  V30 22 C -1.8983 5.5328 2.4005 0
M  V30 23 H 3.0181 -4.6817 0.8923 0
M  V30 24 H 4.4591 -4.3175 -0.0645 0
M  V30 25 H 3.3485 -5.5606 -0.6514 0
M  V30 26 H 1.3445 -1.7858 -1.9483 0
M  V30 27 H 1.0728 -5.6686 -0.0988 0
M  V30 28 H -1.3515 -5.7164 -0.4741 0
M  V30 29 H -3.4364 -4.2033 -1.5881 0
M  V30 30 H -3.7886 -2.0141 -2.7516 0
M  V30 31 H -1.804 -0.2667 -4.0148 0
M  V30 32 H -0.5014 -0.3372 -0.6297 0
M  V30 33 H 0.4673 2.3898 -2.2756 0
M  V30 34 H 1.3771 3.2191 -1.0321 0
M  V30 35 H 2.4784 1.52 1.9019 0
M  V30 36 H 2.213 2.8217 0.77 0
M  V30 37 H 1.5565 3.3591 3.1334 0
M  V30 38 H 0.344 2.0789 3.0946 0
M  V30 39 H -0.864 3.2664 1.2556 0
M  V30 40 H 0.3794 4.5192 1.2373 0
M  V30 41 H -1.4152 3.8412 3.6301 0
M  V30 42 H -0.1797 5.1015 3.6112 0
M  V30 43 H -2.4225 6.0597 3.2039 0
M  V30 44 H -1.4019 6.279 1.7722 0
M  V30 45 H -2.6447 5.0125 1.792 0
M  V30 END ATOM
M  V30 BEGIN BOND
M  V30 1 1 1 2
M  V30 2 1 1 3
M  V30 3 2 2 4
M  V30 4 1 2 5
M  V30 5 1 4 6
M  V30 6 2 5 7
M  V30 7 2 6 8
M  V30 8 1 6 9
M  V30 9 1 8 10
M  V30 10 2 9 11
M  V30 11 1 9 12
M  V30 12 2 12 13
M  V30 13 1 13 14
M  V30 14 1 14 15
M  V30 15 2 15 16
M  V30 16 1 15 17
M  V30 17 1 16 18
M  V30 18 1 18 19
M  V30 19 1 19 20
M  V30 20 1 20 21
M  V30 21 1 21 22
M  V30 22 1 7 8
M  V30 23 1 10 11
M  V30 24 1 3 23
M  V30 25 1 3 24
M  V30 26 1 3 25
M  V30 27 1 4 26
M  V30 28 1 5 27
M  V30 29 1 7 28
M  V30 30 1 10 29
M  V30 31 1 11 30
M  V30 32 1 12 31
M  V30 33 1 14 32
M  V30 34 1 17 33
M  V30 35 1 17 34
M  V30 36 1 18 35
M  V30 37 1 18 36
M  V30 38 1 19 37
M  V30 39 1 19 38
M  V30 40 1 20 39
M  V30 41 1 20 40
M  V30 42 1 21 41
M  V30 43 1 21 42
M  V30 44 1 22 43
M  V30 45 1 22 44
M  V30 46 1 22 45
M  V30 END BOND
M  V30 END CTAB
M  END
>  <NO.>
5709

>  <Name>
tegaserod

>  <SMILES>
CCCCCN=C(N)N/N=C\c1c[nH]c2ccc(OC)cc12

>  <logBB>


>  <Class>
-1

>  <MW>
301.19

>  <nHBAcc>
3

>  <nHBDon>
3

>  <SLogP>
2.6

>  <TopoPSA>
87.79

>  <MMFF94 Energy>
-16.702

$$$$
CCCCCON=O
Actelion Java MolfileCreator 2.0

  0  0  0  0  0  0              0 V3000
M  V30 BEGIN CTAB
M  V30 COUNTS 19 18 0 0 0
M  V30 BEGIN ATOM
M  V30 1 O -4.4891 -0.6182 -2.707 0
M  V30 2 N -3.3606 -0.1242 -2.6245 0
M  V30 3 O -2.7203 -0.5171 -1.4071 0
M  V30 4 C -1.4253 0.0762 -1.3586 0
M  V30 5 C -0.7545 -0.3506 -0.0566 0
M  V30 6 C 0.6458 0.2434 0.0784 0
M  V30 7 C 1.3097 -0.1895 1.3853 0
M  V30 8 C 2.7044 0.3998 1.5237 0
M  V30 9 H -1.5157 1.1692 -1.3922 0
M  V30 10 H -0.8292 -0.262 -2.2154 0
M  V30 11 H -1.3803 -0.0443 0.7911 0
M  V30 12 H -0.7079 -1.4461 -0.015 0
M  V30 13 H 0.5857 1.3381 0.042 0
M  V30 14 H 1.2633 -0.0745 -0.7703 0
M  V30 15 H 0.6983 0.1297 2.2374 0
M  V30 16 H 1.376 -1.283 1.425 0
M  V30 17 H 3.1604 0.0774 2.4649 0
M  V30 18 H 3.3514 0.0735 0.7032 0
M  V30 19 H 2.67 1.4941 1.5202 0
M  V30 END ATOM
M  V30 BEGIN BOND
M  V30 1 2 1 2
M  V30 2 1 2 3
M  V30 3 1 3 4
M  V30 4 1 4 5
M  V30 5 1 5 6
M  V30 6 1 6 7
M  V30 7 1 7 8
M  V30 8 1 4 9
M  V30 9 1 4 10
M  V30 10 1 5 11
M  V30 11 1 5 12
M  V30 12 1 6 13
M  V30 13 1 6 14
M  V30 14 1 7 15
M  V30 15 1 7 16
M  V30 16 1 8 17
M  V30 17 1 8 18
M  V30 18 1 8 19
M  V30 END BOND
M  V30 END CTAB
M  END
>  <NO.>
5710

>  <Name>
pentyl nitrite

>  <SMILES>
CCCCCON=O

>  <logBB>


>  <Class>
-1

>  <MW>
117.08

>  <nHBAcc>
3

>  <nHBDon>
0

>  <SLogP>
1.87

>  <TopoPSA>
38.66

>  <MMFF94 Energy>
-3.5805

$$$$
CCCCCOc1ccccc1/C(=C\SC)n1ccnc1
Actelion Java MolfileCreator 2.0

  0  0  0  0  0  0              0 V3000
M  V30 BEGIN CTAB
M  V30 COUNTS 43 44 0 0 0
M  V30 BEGIN ATOM
M  V30 1 S 1.7495 0.8744 -1.9086 0
M  V30 2 C 0.2062 0.0742 -2.0023 0
M  V30 3 C 1.3076 2.5182 -2.5157 0
M  V30 4 C -0.0999 -1.1177 -1.4365 0
M  V30 5 N -1.3861 -1.7083 -1.5434 0
M  V30 6 C 0.9406 -1.8369 -0.6501 0
M  V30 7 C -2.5067 -1.2279 -2.2036 0
M  V30 8 C -1.805 -2.9182 -1.0111 0
M  V30 9 C 1.0501 -1.6678 0.7428 0
M  V30 10 C 1.8309 -2.6965 -1.3133 0
M  V30 11 N -3.545 -2.0303 -2.1264 0
M  V30 12 C -3.1165 -3.0856 -1.3794 0
M  V30 13 O 0.135 -0.8458 1.3516 0
M  V30 14 C 2.0222 -2.377 1.4548 0
M  V30 15 C 2.8095 -3.386 -0.5977 0
M  V30 16 C 0.6697 -0.031 2.3972 0
M  V30 17 C 2.9021 -3.2288 0.7836 0
M  V30 18 C -0.2871 1.1334 2.6532 0
M  V30 19 C -0.4239 2.0488 1.4334 0
M  V30 20 C -1.3359 3.2391 1.7281 0
M  V30 21 C -1.4749 4.1446 0.5147 0
M  V30 22 H -0.5477 0.6122 -2.5659 0
M  V30 23 H 2.1919 3.1605 -2.4963 0
M  V30 24 H 0.538 2.9663 -1.8811 0
M  V30 25 H 0.9408 2.4615 -3.5441 0
M  V30 26 H -2.5125 -0.284 -2.7288 0
M  V30 27 H -1.1477 -3.5416 -0.4226 0
M  V30 28 H 1.7674 -2.827 -2.391 0
M  V30 29 H -3.7711 -3.9141 -1.1419 0
M  V30 30 H 2.0995 -2.2949 2.5341 0
M  V30 31 H 3.4972 -4.0476 -1.118 0
M  V30 32 H 1.6591 0.3604 2.1283 0
M  V30 33 H 0.7506 -0.625 3.3145 0
M  V30 34 H 3.6583 -3.7753 1.3416 0
M  V30 35 H -1.2771 0.7381 2.9113 0
M  V30 36 H 0.0748 1.7109 3.5116 0
M  V30 37 H -0.8329 1.4833 0.5886 0
M  V30 38 H 0.5666 2.4112 1.1333 0
M  V30 39 H -2.3286 2.8829 2.0269 0
M  V30 40 H -0.933 3.8195 2.5662 0
M  V30 41 H -2.1333 4.9882 0.7444 0
M  V30 42 H -0.5026 4.5454 0.2111 0
M  V30 43 H -1.9024 3.6009 -0.3337 0
M  V30 END ATOM
M  V30 BEGIN BOND
M  V30 1 1 1 2
M  V30 2 1 1 3
M  V30 3 2 2 4
M  V30 4 1 4 5
M  V30 5 1 4 6
M  V30 6 1 5 7
M  V30 7 1 5 8
M  V30 8 2 6 9
M  V30 9 1 6 10
M  V30 10 2 7 11
M  V30 11 2 8 12
M  V30 12 1 9 13
M  V30 13 1 9 14
M  V30 14 2 10 15
M  V30 15 1 13 16
M  V30 16 2 14 17
M  V30 17 1 16 18
M  V30 18 1 18 19
M  V30 19 1 19 20
M  V30 20 1 20 21
M  V30 21 1 11 12
M  V30 22 1 15 17
M  V30 23 1 2 22
M  V30 24 1 3 23
M  V30 25 1 3 24
M  V30 26 1 3 25
M  V30 27 1 7 26
M  V30 28 1 8 27
M  V30 29 1 10 28
M  V30 30 1 12 29
M  V30 31 1 14 30
M  V30 32 1 15 31
M  V30 33 1 16 32
M  V30 34 1 16 33
M  V30 35 1 17 34
M  V30 36 1 18 35
M  V30 37 1 18 36
M  V30 38 1 19 37
M  V30 39 1 19 38
M  V30 40 1 20 39
M  V30 41 1 20 40
M  V30 42 1 21 41
M  V30 43 1 21 42
M  V30 44 1 21 43
M  V30 END BOND
M  V30 END CTAB
M  END
>  <NO.>
5711

>  <Name>
neticonazole

>  <SMILES>
CCCCCOc1ccccc1/C(=C\SC)n1ccnc1

>  <logBB>


>  <Class>
-1

>  <MW>
302.15

>  <nHBAcc>
3

>  <nHBDon>
0

>  <SLogP>
4.66

>  <TopoPSA>
27.05

>  <MMFF94 Energy>
54.249

$$$$
CCCCOc1cc(C(=O)OCCN(CC)CC)ccc1N
Actelion Java MolfileCreator 2.0

  0  0  0  0  0  0              0 V3000
M  V30 BEGIN CTAB
M  V30 COUNTS 50 50 0 0 0
M  V30 BEGIN ATOM
M  V30 1 O 1.0109 2.49 2.5679 0
M  V30 2 C 0.873 1.8222 1.5555 0
M  V30 3 O 0.4498 0.5348 1.5063 0
M  V30 4 C 1.161 2.3342 0.1874 0
M  V30 5 C 0.1375 -0.0345 2.7907 0
M  V30 6 C 0.9755 1.5523 -0.9625 0
M  V30 7 C 1.6288 3.6476 0.0632 0
M  V30 8 C -0.2789 -1.4984 2.5754 0
M  V30 9 C 1.2588 2.0825 -2.2257 0
M  V30 10 C 1.9188 4.1747 -1.1963 0
M  V30 11 N -0.738 -2.1741 3.8085 0
M  V30 12 O 1.1129 1.4034 -3.4129 0
M  V30 13 C 1.7588 3.3964 -2.3447 0
M  V30 14 C 0.412 -2.5296 4.6638 0
M  V30 15 C -1.5345 -3.373 3.4795 0
M  V30 16 C 0.3869 0.1766 -3.3811 0
M  V30 17 N 1.9991 3.9517 -3.5963 0
M  V30 18 C 4.0E-4 -2.7694 6.114 0
M  V30 19 C -2.9517 -3.0188 3.0367 0
M  V30 20 C 0.187 -0.3168 -4.8145 0
M  V30 21 C -0.5397 0.6726 -5.7309 0
M  V30 22 C -1.9576 0.9874 -5.2801 0
M  V30 23 H -0.6901 0.5276 3.2396 0
M  V30 24 H 1.0205 0.0349 3.4342 0
M  V30 25 H 0.6152 0.5354 -0.8579 0
M  V30 26 H 1.767 4.2691 0.9463 0
M  V30 27 H -1.0774 -1.4791 1.8243 0
M  V30 28 H 0.5413 -2.0548 2.1015 0
M  V30 29 H 2.2699 5.2003 -1.2745 0
M  V30 30 H 0.9424 -3.4056 4.2695 0
M  V30 31 H 1.1403 -1.712 4.6883 0
M  V30 32 H -1.0375 -3.9801 2.7123 0
M  V30 33 H -1.6448 -4.0164 4.3589 0
M  V30 34 H -0.586 0.3118 -2.8945 0
M  V30 35 H 0.9634 -0.5778 -2.8326 0
M  V30 36 H 2.4912 4.8264 -3.6965 0
M  V30 37 H 1.9321 3.3254 -4.3916 0
M  V30 38 H 0.8917 -2.9181 6.7328 0
M  V30 39 H -0.6276 -3.6571 6.2286 0
M  V30 40 H -0.5436 -1.9075 6.515 0
M  V30 41 H -3.5401 -3.9338 2.9094 0
M  V30 42 H -2.9701 -2.4841 2.0831 0
M  V30 43 H -3.4547 -2.401 3.7884 0
M  V30 44 H 1.1717 -0.5137 -5.2564 0
M  V30 45 H -0.3547 -1.2697 -4.7957 0
M  V30 46 H 0.0312 1.6048 -5.8119 0
M  V30 47 H -0.5811 0.2429 -6.7391 0
M  V30 48 H -2.4582 1.614 -6.0253 0
M  V30 49 H -2.5442 0.0713 -5.1585 0
M  V30 50 H -1.9647 1.5328 -4.3316 0
M  V30 END ATOM
M  V30 BEGIN BOND
M  V30 1 2 1 2
M  V30 2 1 2 3
M  V30 3 1 2 4
M  V30 4 1 3 5
M  V30 5 2 4 6
M  V30 6 1 4 7
M  V30 7 1 5 8
M  V30 8 1 6 9
M  V30 9 2 7 10
M  V30 10 1 8 11
M  V30 11 1 9 12
M  V30 12 2 9 13
M  V30 13 1 11 14
M  V30 14 1 11 15
M  V30 15 1 12 16
M  V30 16 1 13 17
M  V30 17 1 14 18
M  V30 18 1 15 19
M  V30 19 1 16 20
M  V30 20 1 20 21
M  V30 21 1 21 22
M  V30 22 1 10 13
M  V30 23 1 5 23
M  V30 24 1 5 24
M  V30 25 1 6 25
M  V30 26 1 7 26
M  V30 27 1 8 27
M  V30 28 1 8 28
M  V30 29 1 10 29
M  V30 30 1 14 30
M  V30 31 1 14 31
M  V30 32 1 15 32
M  V30 33 1 15 33
M  V30 34 1 16 34
M  V30 35 1 16 35
M  V30 36 1 17 36
M  V30 37 1 17 37
M  V30 38 1 18 38
M  V30 39 1 18 39
M  V30 40 1 18 40
M  V30 41 1 19 41
M  V30 42 1 19 42
M  V30 43 1 19 43
M  V30 44 1 20 44
M  V30 45 1 20 45
M  V30 46 1 21 46
M  V30 47 1 21 47
M  V30 48 1 22 48
M  V30 49 1 22 49
M  V30 50 1 22 50
M  V30 END BOND
M  V30 END CTAB
M  END
>  <NO.>
5713

>  <Name>
oxybuprocaine

>  <SMILES>
CCCCOc1cc(C(=O)OCCN(CC)CC)ccc1N

>  <logBB>


>  <Class>
-1

>  <MW>
308.21

>  <nHBAcc>
5

>  <nHBDon>
1

>  <SLogP>
2.95

>  <TopoPSA>
64.79

>  <MMFF94 Energy>
52.206

$$$$
CCCCS(=O)(=O)NC(Cc1ccc(OCCCCC2CCNCC2)cc1)C(=O)O
Actelion Java MolfileCreator 2.0

  0  0  0  0  0  0              0 V3000
M  V30 BEGIN CTAB
M  V30 COUNTS 66 67 0 0 0
M  V30 BEGIN ATOM
M  V30 1 S -6.5275 0.8737 0.7942 0
M  V30 2 O -7.2394 -0.1921 1.4628 0
M  V30 3 O -6.1019 2.0641 1.4934 0
M  V30 4 N -5.1458 0.2216 0.0902 0
M  V30 5 C -7.4708 1.3684 -0.6443 0
M  V30 6 C -5.1297 -1.2583 -0.102 0 CFG=2
M  V30 7 C -6.7304 2.3638 -1.5294 0
M  V30 8 C -4.7971 -1.9595 1.2071 0
M  V30 9 C -4.1385 -1.6465 -1.2102 0
M  V30 10 C -7.5867 2.7803 -2.7246 0
M  V30 11 O -4.2821 -1.4545 2.1932 0
M  V30 12 O -5.1117 -3.2715 1.2008 0
M  V30 13 C -2.708 -1.2089 -0.9867 0
M  V30 14 C -6.8548 3.7712 -3.6156 0
M  V30 15 C -2.2687 0.04 -1.4411 0
M  V30 16 C -1.802 -2.0376 -0.313 0
M  V30 17 C -0.9523 0.4492 -1.2188 0
M  V30 18 C -0.4836 -1.6233 -0.0907 0
M  V30 19 C -0.0535 -0.376 -0.5412 0
M  V30 20 O 1.2003 0.1476 -0.3907 0
M  V30 21 C 2.144 -0.6271 0.3485 0
M  V30 22 C 3.4462 0.1672 0.4193 0
M  V30 23 C 4.5248 -0.5835 1.1999 0
M  V30 24 C 5.8272 0.2216 1.2584 0
M  V30 25 C 6.9056 -0.4202 2.1586 0
M  V30 26 C 7.4142 -1.7776 1.6457 0
M  V30 27 C 8.1085 0.5254 2.3305 0
M  V30 28 C 8.3115 -1.6366 0.4155 0
M  V30 29 C 8.9881 0.5857 1.0805 0
M  V30 30 N 9.4436 -0.7435 0.6689 0
M  V30 31 H -4.3151 0.5633 0.5904 0
M  V30 32 H -7.7245 0.4564 -1.1945 0
M  V30 33 H -8.4004 1.8058 -0.2638 0
M  V30 34 H -6.1288 -1.5803 -0.4213 0
M  V30 35 H -5.7931 1.9238 -1.8891 0
M  V30 36 H -6.4581 3.2511 -0.9454 0
M  V30 37 H -4.4835 -1.2215 -2.1627 0
M  V30 38 H -4.1522 -2.7349 -1.3556 0
M  V30 39 H -7.8565 1.897 -3.315 0
M  V30 40 H -8.5209 3.2342 -2.3736 0
M  V30 41 H -4.91 -3.5589 2.1176 0
M  V30 42 H -7.4852 4.0556 -4.464 0
M  V30 43 H -6.5983 4.6807 -3.0629 0
M  V30 44 H -5.9308 3.3362 -4.0096 0
M  V30 45 H -2.947 0.7077 -1.9684 0
M  V30 46 H -2.1111 -3.0164 0.0481 0
M  V30 47 H -0.6238 1.423 -1.5746 0
M  V30 48 H 0.1796 -2.2997 0.4375 0
M  V30 49 H 2.3262 -1.5814 -0.1599 0
M  V30 50 H 1.7711 -0.8075 1.3641 0
M  V30 51 H 3.7951 0.3832 -0.5982 0
M  V30 52 H 3.2504 1.1422 0.8832 0
M  V30 53 H 4.7006 -1.5519 0.7196 0
M  V30 54 H 4.1683 -0.7824 2.2177 0
M  V30 55 H 6.2044 0.3668 0.24 0
M  V30 56 H 5.5988 1.2219 1.6492 0
M  V30 57 H 6.4569 -0.5748 3.1489 0
M  V30 58 H 7.9906 -2.2594 2.4474 0
M  V30 59 H 6.5851 -2.4567 1.4245 0
M  V30 60 H 7.7691 1.5344 2.5931 0
M  V30 61 H 8.7158 0.1739 3.1755 0
M  V30 62 H 7.7381 -1.2798 -0.4476 0
M  V30 63 H 8.7009 -2.6229 0.1394 0
M  V30 64 H 8.4577 1.071 0.2532 0
M  V30 65 H 9.8664 1.2071 1.2883 0
M  V30 66 H 10.0151 -1.1402 1.4155 0
M  V30 END ATOM
M  V30 BEGIN BOND
M  V30 1 2 1 2
M  V30 2 2 1 3
M  V30 3 1 1 4
M  V30 4 1 1 5
M  V30 5 1 4 6
M  V30 6 1 5 7
M  V30 7 1 6 8
M  V30 8 1 6 9
M  V30 9 1 7 10
M  V30 10 2 8 11
M  V30 11 1 8 12
M  V30 12 1 9 13
M  V30 13 1 10 14
M  V30 14 2 13 15
M  V30 15 1 13 16
M  V30 16 1 15 17
M  V30 17 2 16 18
M  V30 18 2 17 19
M  V30 19 1 19 20
M  V30 20 1 20 21
M  V30 21 1 21 22
M  V30 22 1 22 23
M  V30 23 1 23 24
M  V30 24 1 24 25
M  V30 25 1 25 26
M  V30 26 1 25 27
M  V30 27 1 26 28
M  V30 28 1 27 29
M  V30 29 1 28 30
M  V30 30 1 18 19
M  V30 31 1 29 30
M  V30 32 1 4 31
M  V30 33 1 5 32
M  V30 34 1 5 33
M  V30 35 1 6 34
M  V30 36 1 7 35
M  V30 37 1 7 36
M  V30 38 1 9 37
M  V30 39 1 9 38
M  V30 40 1 10 39
M  V30 41 1 10 40
M  V30 42 1 12 41
M  V30 43 1 14 42
M  V30 44 1 14 43
M  V30 45 1 14 44
M  V30 46 1 15 45
M  V30 47 1 16 46
M  V30 48 1 17 47
M  V30 49 1 18 48
M  V30 50 1 21 49
M  V30 51 1 21 50
M  V30 52 1 22 51
M  V30 53 1 22 52
M  V30 54 1 23 53
M  V30 55 1 23 54
M  V30 56 1 24 55
M  V30 57 1 24 56
M  V30 58 1 25 57
M  V30 59 1 26 58
M  V30 60 1 26 59
M  V30 61 1 27 60
M  V30 62 1 27 61
M  V30 63 1 28 62
M  V30 64 1 28 63
M  V30 65 1 29 64
M  V30 66 1 29 65
M  V30 67 1 30 66
M  V30 END BOND
M  V30 BEGIN COLLECTION
M  V30 MDLV30/STERAC1 ATOMS=(1 6)
M  V30 END COLLECTION
M  V30 END CTAB
M  END
>  <NO.>
5714

>  <Name>
schembl618214

>  <SMILES>
CCCCS(=O)(=O)NC(Cc1ccc(OCCCCC2CCNCC2)cc1)C(=O)O

>  <logBB>


>  <Class>
-1

>  <MW>
440.23

>  <nHBAcc>
5

>  <nHBDon>
3

>  <SLogP>
2.95

>  <TopoPSA>
104.73

>  <MMFF94 Energy>
-34.924

$$$$
CCCCc1nc(C)c(CC(=S)N(C)C)c(=O)n1Cc1ccc(-c2ccccc2-c2nn[nH]n2)cc1
Actelion Java MolfileCreator 2.0

  0  0  0  0  0  0              0 V3000
M  V30 BEGIN CTAB
M  V30 COUNTS 67 70 0 0 0
M  V30 BEGIN ATOM
M  V30 1 S -4.3189 -1.9977 2.3176 0
M  V30 2 C -2.9691 -2.4735 1.4084 0
M  V30 3 N -2.7941 -2.1266 0.0684 0
M  V30 4 C -1.886 -3.3148 2.1212 0
M  V30 5 C -2.0046 -2.9134 -0.8756 0
M  V30 6 C -3.4868 -0.9948 -0.5474 0
M  V30 7 C -0.7163 -2.4284 2.4799 0
M  V30 8 C 0.3972 -2.3743 1.4993 0
M  V30 9 C -0.555 -1.692 3.5949 0
M  V30 10 O 0.5074 -3.2473 0.6401 0
M  V30 11 N 1.2842 -1.325 1.6354 0
M  V30 12 N 0.4927 -0.8274 3.7843 0
M  V30 13 C -1.5184 -1.6906 4.7549 0
M  V30 14 C 1.3292 -0.6255 2.8186 0
M  V30 15 C 2.193 -1.0929 0.5141 0
M  V30 16 C 2.4294 0.4158 3.0106 0
M  V30 17 C 1.5848 -0.258 -0.6011 0
M  V30 18 C 2.2972 1.2357 4.2958 0
M  V30 19 C 0.5325 0.6453 -0.39 0
M  V30 20 C 2.1279 -0.3554 -1.8911 0
M  V30 21 C 3.327 2.3626 4.4026 0
M  V30 22 C 0.0289 1.4163 -1.4433 0
M  V30 23 C 1.627 0.4199 -2.9416 0
M  V30 24 C 4.7607 1.8665 4.5069 0
M  V30 25 C 0.569 1.3141 -2.7319 0
M  V30 26 C 0.0769 2.17 -3.8216 0
M  V30 27 C -1.0411 1.8649 -4.6321 0
M  V30 28 C 0.7584 3.3885 -4.0399 0
M  V30 29 C -1.8093 0.6241 -4.5143 0
M  V30 30 C -1.4396 2.7959 -5.6165 0
M  V30 31 C 0.3516 4.2895 -5.0234 0
M  V30 32 N -1.3188 -0.5462 -3.981 0
M  V30 33 N -3.07 0.4769 -4.971 0
M  V30 34 C -0.7513 3.9942 -5.8112 0
M  V30 35 N -2.2739 -1.4576 -4.0941 0
M  V30 36 N -3.2826 -0.813 -4.6833 0
M  V30 37 H -2.2994 -3.7861 3.0201 0
M  V30 38 H -1.5748 -4.1609 1.5058 0
M  V30 39 H -1.1331 -2.3293 -1.1818 0
M  V30 40 H -2.6233 -3.1191 -1.7549 0
M  V30 41 H -1.6985 -3.8761 -0.4712 0
M  V30 42 H -2.8002 -0.4849 -1.23 0
M  V30 43 H -4.3462 -1.3727 -1.1089 0
M  V30 44 H -3.8233 -0.2641 0.1911 0
M  V30 45 H -0.9667 -1.7738 5.6985 0
M  V30 46 H -2.0826 -0.7524 4.775 0
M  V30 47 H -2.2264 -2.5209 4.7389 0
M  V30 48 H 3.1104 -0.5996 0.8457 0
M  V30 49 H 2.4939 -2.0642 0.102 0
M  V30 50 H 2.4193 1.0955 2.1513 0
M  V30 51 H 3.3862 -0.1179 3.0083 0
M  V30 52 H 2.3822 0.5773 5.1693 0
M  V30 53 H 1.2962 1.6836 4.3387 0
M  V30 54 H 0.0811 0.7652 0.592 0
M  V30 55 H 2.9466 -1.0434 -2.0932 0
M  V30 56 H 3.2354 3.0346 3.5414 0
M  V30 57 H 3.0984 2.9582 5.2945 0
M  V30 58 H -0.7876 2.109 -1.2483 0
M  V30 59 H 2.0666 0.3195 -3.9319 0
M  V30 60 H 5.438 2.7095 4.6778 0
M  V30 61 H 4.8748 1.1661 5.3403 0
M  V30 62 H 5.0802 1.3671 3.5877 0
M  V30 63 H 1.6201 3.642 -3.4231 0
M  V30 64 H -2.2995 2.5852 -6.2514 0
M  V30 65 H 0.8938 5.2205 -5.1671 0
M  V30 66 H -1.079 4.6912 -6.5783 0
M  V30 67 H -4.1588 -1.2792 -4.9012 0
M  V30 END ATOM
M  V30 BEGIN BOND
M  V30 1 2 1 2
M  V30 2 1 2 3
M  V30 3 1 2 4
M  V30 4 1 3 5
M  V30 5 1 3 6
M  V30 6 1 4 7
M  V30 7 1 7 8
M  V30 8 2 7 9
M  V30 9 2 8 10
M  V30 10 1 8 11
M  V30 11 1 9 12
M  V30 12 1 9 13
M  V30 13 1 11 14
M  V30 14 1 11 15
M  V30 15 1 14 16
M  V30 16 1 15 17
M  V30 17 1 16 18
M  V30 18 2 17 19
M  V30 19 1 17 20
M  V30 20 1 18 21
M  V30 21 1 19 22
M  V30 22 2 20 23
M  V30 23 1 21 24
M  V30 24 2 22 25
M  V30 25 1 25 26
M  V30 26 2 26 27
M  V30 27 1 26 28
M  V30 28 1 27 29
M  V30 29 1 27 30
M  V30 30 2 28 31
M  V30 31 1 29 32
M  V30 32 2 29 33
M  V30 33 2 30 34
M  V30 34 2 32 35
M  V30 35 1 33 36
M  V30 36 2 12 14
M  V30 37 1 23 25
M  V30 38 1 31 34
M  V30 39 1 35 36
M  V30 40 1 4 37
M  V30 41 1 4 38
M  V30 42 1 5 39
M  V30 43 1 5 40
M  V30 44 1 5 41
M  V30 45 1 6 42
M  V30 46 1 6 43
M  V30 47 1 6 44
M  V30 48 1 13 45
M  V30 49 1 13 46
M  V30 50 1 13 47
M  V30 51 1 15 48
M  V30 52 1 15 49
M  V30 53 1 16 50
M  V30 54 1 16 51
M  V30 55 1 18 52
M  V30 56 1 18 53
M  V30 57 1 19 54
M  V30 58 1 20 55
M  V30 59 1 21 56
M  V30 60 1 21 57
M  V30 61 1 22 58
M  V30 62 1 23 59
M  V30 63 1 24 60
M  V30 64 1 24 61
M  V30 65 1 24 62
M  V30 66 1 28 63
M  V30 67 1 30 64
M  V30 68 1 31 65
M  V30 69 1 34 66
M  V30 70 1 36 67
M  V30 END BOND
M  V30 END CTAB
M  END
>  <NO.>
5716

>  <Name>
fimasartan

>  <SMILES>
CCCCc1nc(C)c(CC(=S)N(C)C)c(=O)n1Cc1ccc(-c2ccccc2-c2nn[nH]n2)cc1

>  <logBB>


>  <Class>
-1

>  <MW>
501.23

>  <nHBAcc>
6

>  <nHBDon>
1

>  <SLogP>
4.22

>  <TopoPSA>
92.59

>  <MMFF94 Energy>
41.89

$$$$
CCCCc1nc(CCCC)n(Cc2ccc(-c3ccccc3-c3nn[nH]n3)nc2)n1
Actelion Java MolfileCreator 2.0

  0  0  0  0  0  0              0 V3000
M  V30 BEGIN CTAB
M  V30 COUNTS 59 62 0 0 0
M  V30 BEGIN ATOM
M  V30 1 N 2.0652 1.8267 -0.3969 0
M  V30 2 C 1.8438 2.8164 0.4998 0
M  V30 3 C 1.0382 1.4724 -1.1996 0
M  V30 4 C 2.9596 3.1067 1.4044 0
M  V30 5 C 0.6341 3.4995 0.5797 0
M  V30 6 C -0.2218 2.0621 -1.1583 0
M  V30 7 C 3.2493 2.3073 2.5341 0
M  V30 8 C 3.8015 4.1996 1.1134 0
M  V30 9 C -0.4079 3.1171 -0.2607 0
M  V30 10 C -1.3364 1.5932 -2.0493 0
M  V30 11 C 2.4135 1.174 2.9221 0
M  V30 12 C 4.3742 2.615 3.3239 0
M  V30 13 C 4.9048 4.4973 1.9145 0
M  V30 14 N -1.5524 0.1571 -1.9629 0
M  V30 15 N 1.0413 1.1608 2.7902 0
M  V30 16 N 2.8755 0.0595 3.5207 0
M  V30 17 C 5.1929 3.7031 3.0182 0
M  V30 18 N -1.3034 -0.6228 -3.0346 0
M  V30 19 C -2.0235 -0.5845 -0.9076 0
M  V30 20 N 0.6181 -0.0025 3.2616 0
M  V30 21 N 1.7325 -0.6279 3.6536 0
M  V30 22 C -1.64 -1.8315 -2.5729 0
M  V30 23 N -2.0886 -1.8472 -1.2806 0
M  V30 24 C -2.3606 -0.0153 0.432 0
M  V30 25 C -1.5295 -3.0668 -3.3888 0
M  V30 26 C -3.1615 -0.9917 1.2972 0
M  V30 27 C -0.1817 -3.7628 -3.1924 0
M  V30 28 C -3.4382 -0.4643 2.7073 0
M  V30 29 C -0.0854 -5.0364 -4.0315 0
M  V30 30 C -4.3341 0.7641 2.7334 0
M  V30 31 C 1.2531 -5.7307 -3.8383 0
M  V30 32 H 1.2656 0.6608 -1.8885 0
M  V30 33 H 0.4924 4.2911 1.3085 0
M  V30 34 H 3.6057 4.8139 0.2359 0
M  V30 35 H -1.3636 3.6302 -0.1873 0
M  V30 36 H -1.1105 1.8483 -3.0911 0
M  V30 37 H -2.29 2.0674 -1.7907 0
M  V30 38 H 4.6158 2.0019 4.1909 0
M  V30 39 H 5.5453 5.3398 1.6664 0
M  V30 40 H 6.057 3.9239 3.6397 0
M  V30 41 H 1.708 -1.567 4.0403 0
M  V30 42 H -2.9359 0.9062 0.2928 0
M  V30 43 H -1.4306 0.247 0.9486 0
M  V30 44 H -1.6712 -2.8219 -4.4486 0
M  V30 45 H -2.3423 -3.7495 -3.1128 0
M  V30 46 H -2.608 -1.9349 1.3915 0
M  V30 47 H -4.1105 -1.2366 0.8033 0
M  V30 48 H -0.0427 -4.0089 -2.1318 0
M  V30 49 H 0.6321 -3.079 -3.4657 0
M  V30 50 H -3.922 -1.2602 3.286 0
M  V30 51 H -2.493 -0.2361 3.2128 0
M  V30 52 H -0.8913 -5.7262 -3.7554 0
M  V30 53 H -0.2147 -4.7938 -5.0927 0
M  V30 54 H -4.5785 1.0283 3.7675 0
M  V30 55 H -3.8423 1.6295 2.2797 0
M  V30 56 H -5.272 0.5786 2.2006 0
M  V30 57 H 1.3005 -6.6387 -4.4474 0
M  V30 58 H 2.0801 -5.0782 -4.1361 0
M  V30 59 H 1.3998 -6.0157 -2.7916 0
M  V30 END ATOM
M  V30 BEGIN BOND
M  V30 1 2 1 2
M  V30 2 1 1 3
M  V30 3 1 2 4
M  V30 4 1 2 5
M  V30 5 2 3 6
M  V30 6 2 4 7
M  V30 7 1 4 8
M  V30 8 2 5 9
M  V30 9 1 6 10
M  V30 10 1 7 11
M  V30 11 1 7 12
M  V30 12 2 8 13
M  V30 13 1 10 14
M  V30 14 1 11 15
M  V30 15 2 11 16
M  V30 16 2 12 17
M  V30 17 1 14 18
M  V30 18 1 14 19
M  V30 19 2 15 20
M  V30 20 1 16 21
M  V30 21 2 18 22
M  V30 22 2 19 23
M  V30 23 1 19 24
M  V30 24 1 22 25
M  V30 25 1 24 26
M  V30 26 1 25 27
M  V30 27 1 26 28
M  V30 28 1 27 29
M  V30 29 1 28 30
M  V30 30 1 29 31
M  V30 31 1 6 9
M  V30 32 1 13 17
M  V30 33 1 20 21
M  V30 34 1 22 23
M  V30 35 1 3 32
M  V30 36 1 5 33
M  V30 37 1 8 34
M  V30 38 1 9 35
M  V30 39 1 10 36
M  V30 40 1 10 37
M  V30 41 1 12 38
M  V30 42 1 13 39
M  V30 43 1 17 40
M  V30 44 1 21 41
M  V30 45 1 24 42
M  V30 46 1 24 43
M  V30 47 1 25 44
M  V30 48 1 25 45
M  V30 49 1 26 46
M  V30 50 1 26 47
M  V30 51 1 27 48
M  V30 52 1 27 49
M  V30 53 1 28 50
M  V30 54 1 28 51
M  V30 55 1 29 52
M  V30 56 1 29 53
M  V30 57 1 30 54
M  V30 58 1 30 55
M  V30 59 1 30 56
M  V30 60 1 31 57
M  V30 61 1 31 58
M  V30 62 1 31 59
M  V30 END BOND
M  V30 END CTAB
M  END
>  <NO.>
5717

>  <Name>
forasartan

>  <SMILES>
CCCCc1nc(CCCC)n(Cc2ccc(-c3ccccc3-c3nn[nH]n3)nc2)n1

>  <logBB>


>  <Class>
-1

>  <MW>
416.24

>  <nHBAcc>
6

>  <nHBDon>
1

>  <SLogP>
4.25

>  <TopoPSA>
98.06

>  <MMFF94 Energy>
78.529

$$$$
CCCN(CCc1cccs1)C1CCc2c(O)cccc2C1
Actelion Java MolfileCreator 2.0

  0  0  0  0  0  0              0 V3000
M  V30 BEGIN CTAB
M  V30 COUNTS 47 49 0 0 0
M  V30 BEGIN ATOM
M  V30 1 S 3.6069 -2.9649 1.3614 0
M  V30 2 C 1.9636 -3.1189 1.8214 0
M  V30 3 C 4.1502 -3.4285 2.9144 0
M  V30 4 C 1.8407 -3.5222 3.1365 0
M  V30 5 C 0.8676 -2.8287 0.8336 0
M  V30 6 C 3.1051 -3.6994 3.7684 0
M  V30 7 C 0.4236 -1.3552 0.9034 0
M  V30 8 N -0.6181 -1.0213 -0.0886 0
M  V30 9 C -0.7718 0.4332 -0.3428 0 CFG=2
M  V30 10 C -1.911 -1.6574 0.2248 0
M  V30 11 C 0.382 0.9817 -1.2122 0
M  V30 12 C -0.9128 1.2998 0.9172 0
M  V30 13 C -2.2782 -2.7108 -0.827 0
M  V30 14 C 0.3027 2.4766 -1.4296 0
M  V30 15 C -1.2898 2.7319 0.5364 0
M  V30 16 C -2.4873 -2.1302 -2.2184 0
M  V30 17 C -0.4564 3.3071 -0.5832 0
M  V30 18 C 1.0512 3.0474 -2.4715 0
M  V30 19 C -0.4772 4.6865 -0.8333 0
M  V30 20 C 1.0278 4.4234 -2.6937 0
M  V30 21 O -1.2439 5.4878 -0.0325 0
M  V30 22 C 0.2592 5.2467 -1.8756 0
M  V30 23 H 5.2092 -3.4812 3.1254 0
M  V30 24 H 0.887 -3.6827 3.6249 0
M  V30 25 H 0.025 -3.4952 1.053 0
M  V30 26 H 1.1995 -3.0704 -0.1839 0
M  V30 27 H 3.2412 -4.0109 4.7966 0
M  V30 28 H 0.0814 -1.1157 1.9193 0
M  V30 29 H 1.3148 -0.7419 0.732 0
M  V30 30 H -1.6811 0.5675 -0.948 0
M  V30 31 H -2.7265 -0.9246 0.2824 0
M  V30 32 H -1.8956 -2.1364 1.2121 0
M  V30 33 H 1.3566 0.7778 -0.7547 0
M  V30 34 H 0.3624 0.4724 -2.1844 0
M  V30 35 H 0.0309 1.3155 1.4773 0
M  V30 36 H -1.6794 0.8993 1.5907 0
M  V30 37 H -1.5078 -3.4888 -0.8734 0
M  V30 38 H -3.2045 -3.2065 -0.5126 0
M  V30 39 H -2.3411 2.7547 0.2226 0
M  V30 40 H -1.1978 3.3569 1.4328 0
M  V30 41 H -2.8181 -2.9144 -2.9067 0
M  V30 42 H -3.2517 -1.3468 -2.2056 0
M  V30 43 H -1.5622 -1.7045 -2.6187 0
M  V30 44 H 1.6575 2.4152 -3.1171 0
M  V30 45 H 1.6087 4.8509 -3.5064 0
M  V30 46 H -1.1492 6.4062 -0.332 0
M  V30 47 H 0.2456 6.3153 -2.0645 0
M  V30 END ATOM
M  V30 BEGIN BOND
M  V30 1 1 1 2
M  V30 2 1 1 3
M  V30 3 2 2 4
M  V30 4 1 2 5
M  V30 5 2 3 6
M  V30 6 1 5 7
M  V30 7 1 7 8
M  V30 8 1 8 9
M  V30 9 1 8 10
M  V30 10 1 9 11
M  V30 11 1 9 12
M  V30 12 1 10 13
M  V30 13 1 11 14
M  V30 14 1 12 15
M  V30 15 1 13 16
M  V30 16 2 14 17
M  V30 17 1 14 18
M  V30 18 1 17 19
M  V30 19 2 18 20
M  V30 20 1 19 21
M  V30 21 2 19 22
M  V30 22 1 4 6
M  V30 23 1 15 17
M  V30 24 1 20 22
M  V30 25 1 3 23
M  V30 26 1 4 24
M  V30 27 1 5 25
M  V30 28 1 5 26
M  V30 29 1 6 27
M  V30 30 1 7 28
M  V30 31 1 7 29
M  V30 32 1 9 30
M  V30 33 1 10 31
M  V30 34 1 10 32
M  V30 35 1 11 33
M  V30 36 1 11 34
M  V30 37 1 12 35
M  V30 38 1 12 36
M  V30 39 1 13 37
M  V30 40 1 13 38
M  V30 41 1 15 39
M  V30 42 1 15 40
M  V30 43 1 16 41
M  V30 44 1 16 42
M  V30 45 1 16 43
M  V30 46 1 18 44
M  V30 47 1 20 45
M  V30 48 1 21 46
M  V30 49 1 22 47
M  V30 END BOND
M  V30 BEGIN COLLECTION
M  V30 MDLV30/STERAC1 ATOMS=(1 9)
M  V30 END COLLECTION
M  V30 END CTAB
M  END
>  <NO.>
5720

>  <Name>
ent-rotigotine

>  <SMILES>
CCCN(CCc1cccs1)C1CCc2c(O)cccc2C1

>  <logBB>


>  <Class>
1

>  <MW>
315.17

>  <nHBAcc>
3

>  <nHBDon>
1

>  <SLogP>
4.27

>  <TopoPSA>
23.47

>  <MMFF94 Energy>
47.091

$$$$
CCCOC(=O)Cn1cc(I)c(=O)c(I)c1
Actelion Java MolfileCreator 2.0

  0  0  0  0  0  0              0 V3000
M  V30 BEGIN CTAB
M  V30 COUNTS 27 27 0 0 0
M  V30 BEGIN ATOM
M  V30 1 I 5.4134 -1.3305 0.9977 0
M  V30 2 C 3.7299 -1.6332 -0.1225 0
M  V30 3 C 3.8354 -2.2536 -1.4874 0
M  V30 4 C 2.5071 -1.2955 0.3176 0
M  V30 5 O 4.9149 -2.6186 -1.9474 0
M  V30 6 C 2.5559 -2.4111 -2.2602 0
M  V30 7 N 1.3256 -1.475 -0.3926 0
M  V30 8 I 2.5887 -3.202 -4.1454 0
M  V30 9 C 1.4161 -2.0183 -1.6688 0
M  V30 10 C 0.0236 -1.0306 0.1606 0
M  V30 11 C -0.2936 0.4189 -0.1937 0
M  V30 12 O 0.3999 1.1727 -0.8627 0
M  V30 13 O -1.4975 0.7602 0.3587 0
M  V30 14 C -1.9049 2.1104 0.0965 0
M  V30 15 C -3.2438 2.3684 0.7801 0
M  V30 16 C -3.1488 2.2669 2.2959 0
M  V30 17 H 2.3715 -0.8371 1.2942 0
M  V30 18 H 0.4618 -2.1022 -2.1831 0
M  V30 19 H 0.0328 -1.125 1.253 0
M  V30 20 H -0.7814 -1.6652 -0.2281 0
M  V30 21 H -2.019 2.2481 -0.9848 0
M  V30 22 H -1.1473 2.8072 0.4738 0
M  V30 23 H -3.6046 3.3662 0.5073 0
M  V30 24 H -3.9821 1.6382 0.4291 0
M  V30 25 H -4.1207 2.4846 2.7501 0
M  V30 26 H -2.8481 1.2627 2.6102 0
M  V30 27 H -2.4217 2.9833 2.6912 0
M  V30 END ATOM
M  V30 BEGIN BOND
M  V30 1 1 1 2
M  V30 2 1 2 3
M  V30 3 2 2 4
M  V30 4 2 3 5
M  V30 5 1 3 6
M  V30 6 1 4 7
M  V30 7 1 6 8
M  V30 8 2 6 9
M  V30 9 1 7 10
M  V30 10 1 10 11
M  V30 11 2 11 12
M  V30 12 1 11 13
M  V30 13 1 13 14
M  V30 14 1 14 15
M  V30 15 1 15 16
M  V30 16 1 7 9
M  V30 17 1 4 17
M  V30 18 1 9 18
M  V30 19 1 10 19
M  V30 20 1 10 20
M  V30 21 1 14 21
M  V30 22 1 14 22
M  V30 23 1 15 23
M  V30 24 1 15 24
M  V30 25 1 16 25
M  V30 26 1 16 26
M  V30 27 1 16 27
M  V30 END BOND
M  V30 END CTAB
M  END
>  <NO.>
5721

>  <Name>
propyliodone

>  <SMILES>
CCCOC(=O)Cn1cc(I)c(=O)c(I)c1

>  <logBB>


>  <Class>
-1

>  <MW>
446.88

>  <nHBAcc>
3

>  <nHBDon>
0

>  <SLogP>
2.01

>  <TopoPSA>
48.3

>  <MMFF94 Energy>
84.538

$$$$
CCCOc1ccc(S(=O)(=O)NCCC2CCCN2C)cc1-c1nc2c(CCC)nn(C)c2c(=O)[nH]1
Actelion Java MolfileCreator 2.0

  0  0  0  0  0  0              0 V3000
M  V30 BEGIN CTAB
M  V30 COUNTS 72 75 0 0 0
M  V30 BEGIN ATOM
M  V30 1 S -1.8373 2.397 -2.3171 0
M  V30 2 O -1.6505 3.4897 -3.2466 0
M  V30 3 O -2.9891 2.323 -1.4483 0
M  V30 4 N -1.7572 0.9909 -3.2271 0
M  V30 5 C -0.3756 2.2947 -1.3109 0
M  V30 6 C -1.7404 -0.3129 -2.5556 0
M  V30 7 C -0.4407 1.6979 -0.0508 0
M  V30 8 C 0.816 2.8539 -1.7661 0
M  V30 9 C -2.2787 -1.398 -3.4854 0
M  V30 10 C 0.706 1.6208 0.761 0
M  V30 11 C 1.9585 2.7922 -0.9643 0
M  V30 12 C -1.4124 -1.6988 -4.724 0 CFG=2
M  V30 13 C 0.5454 0.9254 2.0881 0
M  V30 14 C 1.9217 2.1746 0.2959 0
M  V30 15 N -0.0776 -2.1929 -4.3255 0
M  V30 16 C -2.0433 -2.8376 -5.5397 0
M  V30 17 N -0.5445 0.2473 2.3288 0
M  V30 18 N 1.5905 1.0567 2.9968 0
M  V30 19 O 3.0161 2.0835 1.1187 0
M  V30 20 C 0.1643 -3.4641 -5.023 0
M  V30 21 C 0.9945 -1.2416 -4.6021 0
M  V30 22 C -1.2193 -4.0563 -5.1775 0
M  V30 23 C -0.5813 -0.3446 3.5917 0
M  V30 24 C 1.6112 0.491 4.251 0
M  V30 25 C 4.2801 2.5344 0.6238 0
M  V30 26 C 0.4237 -0.2368 4.5042 0
M  V30 27 C -1.5819 -1.1273 4.1897 0
M  V30 28 O 2.5549 0.6189 5.022 0
M  V30 29 C 5.3249 2.2423 1.6967 0
M  V30 30 N 0.0113 -0.9396 5.5922 0
M  V30 31 N -1.2137 -1.4994 5.4308 0
M  V30 32 C -2.8951 -1.5412 3.6221 0
M  V30 33 C 6.7125 2.686 1.2707 0
M  V30 34 C 0.7297 -1.124 6.83 0
M  V30 35 C -3.9661 -0.4643 3.8012 0
M  V30 36 C -5.2982 -0.8996 3.2116 0
M  V30 37 H -1.2305 1.1 -4.0905 0
M  V30 38 H -0.7256 -0.5496 -2.2242 0
M  V30 39 H -2.383 -0.2808 -1.6688 0
M  V30 40 H -1.3895 1.2915 0.2991 0
M  V30 41 H 0.8645 3.3464 -2.7357 0
M  V30 42 H -2.4018 -2.3172 -2.8967 0
M  V30 43 H -3.2845 -1.1107 -3.8204 0
M  V30 44 H 2.8645 3.2459 -1.3552 0
M  V30 45 H -1.3563 -0.807 -5.3608 0
M  V30 46 H -1.9258 -2.6288 -6.6107 0
M  V30 47 H -3.1088 -2.991 -5.3423 0
M  V30 48 H 2.4141 1.5844 2.7388 0
M  V30 49 H 0.8256 -4.1186 -4.4468 0
M  V30 50 H 0.6057 -3.3072 -6.0159 0
M  V30 51 H 1.0665 -0.9961 -5.6679 0
M  V30 52 H 1.9582 -1.6485 -4.2764 0
M  V30 53 H 0.8441 -0.3094 -4.0487 0
M  V30 54 H -1.2618 -4.8308 -5.9485 0
M  V30 55 H -1.567 -4.4878 -4.2311 0
M  V30 56 H 4.2433 3.6136 0.4343 0
M  V30 57 H 4.5396 1.996 -0.2954 0
M  V30 58 H 5.0432 2.7444 2.6303 0
M  V30 59 H 5.3295 1.169 1.9222 0
M  V30 60 H -3.2253 -2.473 4.0988 0
M  V30 61 H -2.7718 -1.7664 2.5553 0
M  V30 62 H 7.44 2.4647 2.0579 0
M  V30 63 H 7.0282 2.1664 0.3604 0
M  V30 64 H 6.7378 3.7634 1.0779 0
M  V30 65 H 0.9108 -0.1423 7.2745 0
M  V30 66 H 1.6724 -1.6309 6.6103 0
M  V30 67 H 0.1314 -1.7342 7.5118 0
M  V30 68 H -4.099 -0.2403 4.8668 0
M  V30 69 H -3.6479 0.4682 3.3192 0
M  V30 70 H -6.0489 -0.1153 3.3511 0
M  V30 71 H -5.2068 -1.0951 2.1384 0
M  V30 72 H -5.6636 -1.8098 3.6976 0
M  V30 END ATOM
M  V30 BEGIN BOND
M  V30 1 2 1 2
M  V30 2 2 1 3
M  V30 3 1 1 4
M  V30 4 1 1 5
M  V30 5 1 4 6
M  V30 6 2 5 7
M  V30 7 1 5 8
M  V30 8 1 6 9
M  V30 9 1 7 10
M  V30 10 2 8 11
M  V30 11 1 9 12
M  V30 12 1 10 13
M  V30 13 2 10 14
M  V30 14 1 12 15
M  V30 15 1 12 16
M  V30 16 2 13 17
M  V30 17 1 13 18
M  V30 18 1 14 19
M  V30 19 1 15 20
M  V30 20 1 15 21
M  V30 21 1 16 22
M  V30 22 1 17 23
M  V30 23 1 18 24
M  V30 24 1 19 25
M  V30 25 2 23 26
M  V30 26 1 23 27
M  V30 27 2 24 28
M  V30 28 1 25 29
M  V30 29 1 26 30
M  V30 30 2 27 31
M  V30 31 1 27 32
M  V30 32 1 29 33
M  V30 33 1 30 34
M  V30 34 1 32 35
M  V30 35 1 35 36
M  V30 36 1 11 14
M  V30 37 1 20 22
M  V30 38 1 24 26
M  V30 39 1 30 31
M  V30 40 1 4 37
M  V30 41 1 6 38
M  V30 42 1 6 39
M  V30 43 1 7 40
M  V30 44 1 8 41
M  V30 45 1 9 42
M  V30 46 1 9 43
M  V30 47 1 11 44
M  V30 48 1 12 45
M  V30 49 1 16 46
M  V30 50 1 16 47
M  V30 51 1 18 48
M  V30 52 1 20 49
M  V30 53 1 20 50
M  V30 54 1 21 51
M  V30 55 1 21 52
M  V30 56 1 21 53
M  V30 57 1 22 54
M  V30 58 1 22 55
M  V30 59 1 25 56
M  V30 60 1 25 57
M  V30 61 1 29 58
M  V30 62 1 29 59
M  V30 63 1 32 60
M  V30 64 1 32 61
M  V30 65 1 33 62
M  V30 66 1 33 63
M  V30 67 1 33 64
M  V30 68 1 34 65
M  V30 69 1 34 66
M  V30 70 1 34 67
M  V30 71 1 35 68
M  V30 72 1 35 69
M  V30 73 1 36 70
M  V30 74 1 36 71
M  V30 75 1 36 72
M  V30 END BOND
M  V30 BEGIN COLLECTION
M  V30 MDLV30/STERAC1 ATOMS=(1 12)
M  V30 END COLLECTION
M  V30 END CTAB
M  END
>  <NO.>
5722

>  <Name>
udenafil

>  <SMILES>
CCCOc1ccc(S(=O)(=O)NCCC2CCCN2C)cc1-c1nc2c(CCC)nn(C)c2c(=O)[nH]1

>  <logBB>


>  <Class>
-1

>  <MW>
516.25

>  <nHBAcc>
7

>  <nHBDon>
2

>  <SLogP>
2.83

>  <TopoPSA>
122.21

>  <MMFF94 Energy>
-78.169

$$$$
CCCSc1nc(NC2CC2c2ccc(F)c(F)c2)c2nnn(C3CC(OCCO)C(O)C3O)c2n1
Actelion Java MolfileCreator 2.0

  0  0  0  0  0  0              0 V3000
M  V30 BEGIN CTAB
M  V30 COUNTS 64 68 0 0 0
M  V30 BEGIN ATOM
M  V30 1 S 3.0839 0.1621 0.1621 0
M  V30 2 C 1.3237 -0.0841 0.0432 0
M  V30 3 C 3.3444 -0.1597 1.9367 0
M  V30 4 N 0.6453 -0.3937 1.1701 0
M  V30 5 N 0.8019 0.0625 -1.1906 0
M  V30 6 C 4.8253 -0.0112 2.278 0
M  V30 7 C -0.7001 -0.5959 1.1227 0
M  V30 8 C -0.5229 -0.14 -1.1963 0
M  V30 9 C 5.0747 -0.2756 3.756 0
M  V30 10 N -1.4117 -0.9221 2.2813 0
M  V30 11 C -1.3268 -0.4635 -0.122 0
M  V30 12 N -1.3935 -0.0758 -2.2481 0
M  V30 13 C -0.7532 -1.0455 3.5712 0
M  V30 14 N -2.6259 -0.5893 -0.5418 0
M  V30 15 N -2.6578 -0.3546 -1.8502 0
M  V30 16 C -1.0749 0.2153 -3.6223 0
M  V30 17 C -1.3403 -1.9162 4.6611 0
M  V30 18 C -0.0645 -2.3198 3.9678 0
M  V30 19 C -2.1644 -0.1086 -4.6518 0
M  V30 20 C -0.8159 1.6977 -3.8929 0
M  V30 21 C -1.3216 -1.4578 6.1001 0
M  V30 22 O -3.4294 0.5161 -4.3575 0
M  V30 23 C -1.6183 0.5616 -5.9203 0
M  V30 24 C -0.8313 1.7996 -5.4254 0
M  V30 25 C -0.697 -2.2233 7.1006 0
M  V30 26 C -1.8257 -0.1952 6.4707 0
M  V30 27 O -2.6915 0.9355 -6.7869 0
M  V30 28 O 0.5331 1.7077 -5.8478 0
M  V30 29 C -0.6226 -1.764 8.414 0
M  V30 30 C -1.7511 0.2654 7.7894 0
M  V30 31 C 0.8588 2.4833 -7.0076 0
M  V30 32 F -0.03 -2.5267 9.3432 0
M  V30 33 C -1.1496 -0.5276 8.7567 0
M  V30 34 C 0.2043 2.0006 -8.3028 0
M  V30 35 F -1.0756 -0.0855 10.0194 0
M  V30 36 O 0.6186 0.6715 -8.606 0
M  V30 37 H 3.0094 -1.1751 2.175 0
M  V30 38 H 2.7552 0.5516 2.5258 0
M  V30 39 H 5.4258 -0.7147 1.6886 0
M  V30 40 H 5.1733 1.0009 2.0382 0
M  V30 41 H 4.5176 0.4303 4.3804 0
M  V30 42 H 4.7705 -1.291 4.0297 0
M  V30 43 H 6.1392 -0.166 3.9861 0
M  V30 44 H -2.4123 -1.0425 2.166 0
M  V30 45 H -0.2656 -0.1207 3.874 0
M  V30 46 H -0.175 -0.3672 -3.8637 0
M  V30 47 H -2.2199 -2.497 4.3884 0
M  V30 48 H -0.1023 -3.1548 3.278 0
M  V30 49 H 0.8808 -2.2257 4.4893 0
M  V30 50 H -2.3381 -1.1804 -4.7879 0
M  V30 51 H -1.6205 2.3108 -3.467 0
M  V30 52 H 0.1299 2.0321 -3.4528 0
M  V30 53 H -3.7183 0.1631 -3.4875 0
M  V30 54 H -0.961 -0.127 -6.4617 0
M  V30 55 H -1.2734 2.7522 -5.7397 0
M  V30 56 H -0.2662 -3.1919 6.8612 0
M  V30 57 H -2.2903 0.4391 5.7168 0
M  V30 58 H -3.4655 1.052 -6.1937 0
M  V30 59 H -2.1528 1.2364 8.062 0
M  V30 60 H 1.9467 2.4155 -7.1158 0
M  V30 61 H 0.6119 3.5341 -6.8187 0
M  V30 62 H -0.8847 2.0183 -8.231 0
M  V30 63 H 0.5045 2.6458 -9.1342 0
M  V30 64 H 0.0262 0.3474 -9.306 0
M  V30 END ATOM
M  V30 BEGIN BOND
M  V30 1 1 1 2
M  V30 2 1 1 3
M  V30 3 2 2 4
M  V30 4 1 2 5
M  V30 5 1 3 6
M  V30 6 1 4 7
M  V30 7 2 5 8
M  V30 8 1 6 9
M  V30 9 1 7 10
M  V30 10 2 7 11
M  V30 11 1 8 12
M  V30 12 1 10 13
M  V30 13 1 11 14
M  V30 14 1 12 15
M  V30 15 1 12 16
M  V30 16 1 13 17
M  V30 17 1 13 18
M  V30 18 1 16 19
M  V30 19 1 16 20
M  V30 20 1 17 21
M  V30 21 1 19 22
M  V30 22 1 19 23
M  V30 23 1 20 24
M  V30 24 2 21 25
M  V30 25 1 21 26
M  V30 26 1 23 27
M  V30 27 1 24 28
M  V30 28 1 25 29
M  V30 29 2 26 30
M  V30 30 1 28 31
M  V30 31 1 29 32
M  V30 32 2 29 33
M  V30 33 1 31 34
M  V30 34 1 33 35
M  V30 35 1 34 36
M  V30 36 1 8 11
M  V30 37 2 14 15
M  V30 38 1 17 18
M  V30 39 1 23 24
M  V30 40 1 30 33
M  V30 41 1 3 37
M  V30 42 1 3 38
M  V30 43 1 6 39
M  V30 44 1 6 40
M  V30 45 1 9 41
M  V30 46 1 9 42
M  V30 47 1 9 43
M  V30 48 1 10 44
M  V30 49 1 13 45
M  V30 50 1 16 46
M  V30 51 1 17 47
M  V30 52 1 18 48
M  V30 53 1 18 49
M  V30 54 1 19 50
M  V30 55 1 20 51
M  V30 56 1 20 52
M  V30 57 1 22 53
M  V30 58 1 23 54
M  V30 59 1 24 55
M  V30 60 1 25 56
M  V30 61 1 26 57
M  V30 62 1 27 58
M  V30 63 1 30 59
M  V30 64 1 31 60
M  V30 65 1 31 61
M  V30 66 1 34 62
M  V30 67 1 34 63
M  V30 68 1 36 64
M  V30 END BOND
M  V30 END CTAB
M  END
>  <NO.>
5724

>  <Name>
ticagrelor

>  <SMILES>
CCCSc1nc(NC2CC2c2ccc(F)c(F)c2)c2nnn(C3CC(OCCO)C(O)C3O)c2n1

>  <logBB>


>  <Class>
-1

>  <MW>
522.19

>  <nHBAcc>
10

>  <nHBDon>
4

>  <SLogP>
2.01

>  <TopoPSA>
138.44

>  <MMFF94 Energy>
77.038

$$$$
CCN(CC)CCNc1ccc(C)c2sc3ccccc3c(=O)c12
Actelion Java MolfileCreator 2.0

  0  0  0  0  0  0              0 V3000
M  V30 BEGIN CTAB
M  V30 COUNTS 48 50 0 0 0
M  V30 BEGIN ATOM
M  V30 1 S 2.6483 2.1664 -2.0861 0
M  V30 2 C 1.3345 1.0095 -2.4527 0
M  V30 3 C 3.036 1.8348 -0.3966 0
M  V30 4 C 1.0422 -0.0993 -1.6303 0
M  V30 5 C 0.5687 1.2291 -3.6256 0
M  V30 6 C 2.6363 0.6816 0.2693 0
M  V30 7 C 3.8143 2.7813 0.2898 0
M  V30 8 C 1.8471 -0.3718 -0.3992 0
M  V30 9 C -0.0339 -0.9753 -1.9517 0
M  V30 10 C -0.4778 0.3547 -3.9383 0
M  V30 11 C 0.8267 2.3796 -4.5675 0
M  V30 12 C 3.0123 0.4796 1.6095 0
M  V30 13 C 4.1795 2.5829 1.623 0
M  V30 14 O 1.8629 -1.4955 0.1064 0
M  V30 15 N -0.3686 -2.0514 -1.1322 0
M  V30 16 C -0.7742 -0.7236 -3.1111 0
M  V30 17 C 3.7772 1.4292 2.285 0
M  V30 18 C -1.7377 -2.431 -0.8139 0
M  V30 19 C -2.4451 -1.3808 0.0809 0
M  V30 20 N -1.6885 -0.9302 1.2724 0
M  V30 21 C -1.4783 -2.0141 2.2404 0
M  V30 22 C -2.2548 0.3015 1.8392 0
M  V30 23 C -0.5823 -1.6265 3.4131 0
M  V30 24 C -3.6291 0.1753 2.4897 0
M  V30 25 H 4.1457 3.6885 -0.2124 0
M  V30 26 H -1.0747 0.503 -4.8361 0
M  V30 27 H 1.8391 2.32 -4.9793 0
M  V30 28 H 0.6869 3.336 -4.0535 0
M  V30 29 H 0.1343 2.367 -5.4166 0
M  V30 30 H 2.7072 -0.4261 2.1308 0
M  V30 31 H 4.781 3.3271 2.1392 0
M  V30 32 H 0.3073 -2.2153 -0.3757 0
M  V30 33 H -1.5826 -1.3877 -3.4027 0
M  V30 34 H 4.0609 1.2627 3.321 0
M  V30 35 H -1.7099 -3.3944 -0.2928 0
M  V30 36 H -2.3273 -2.6053 -1.7202 0
M  V30 37 H -2.6451 -0.5088 -0.5553 0
M  V30 38 H -3.4227 -1.7823 0.3755 0
M  V30 39 H -2.4326 -2.3976 2.6204 0
M  V30 40 H -0.98 -2.8541 1.7445 0
M  V30 41 H -1.5544 0.7248 2.5685 0
M  V30 42 H -2.3113 1.0623 1.0498 0
M  V30 43 H -0.3475 -2.5136 4.0106 0
M  V30 44 H -1.0672 -0.9052 4.0776 0
M  V30 45 H 0.363 -1.1998 3.0632 0
M  V30 46 H -3.954 1.1544 2.8578 0
M  V30 47 H -3.6133 -0.5066 3.3447 0
M  V30 48 H -4.3838 -0.1742 1.7791 0
M  V30 END ATOM
M  V30 BEGIN BOND
M  V30 1 1 1 2
M  V30 2 1 1 3
M  V30 3 2 2 4
M  V30 4 1 2 5
M  V30 5 2 3 6
M  V30 6 1 3 7
M  V30 7 1 4 8
M  V30 8 1 4 9
M  V30 9 2 5 10
M  V30 10 1 5 11
M  V30 11 1 6 12
M  V30 12 2 7 13
M  V30 13 2 8 14
M  V30 14 1 9 15
M  V30 15 2 9 16
M  V30 16 2 12 17
M  V30 17 1 15 18
M  V30 18 1 18 19
M  V30 19 1 19 20
M  V30 20 1 20 21
M  V30 21 1 20 22
M  V30 22 1 21 23
M  V30 23 1 22 24
M  V30 24 1 6 8
M  V30 25 1 10 16
M  V30 26 1 13 17
M  V30 27 1 7 25
M  V30 28 1 10 26
M  V30 29 1 11 27
M  V30 30 1 11 28
M  V30 31 1 11 29
M  V30 32 1 12 30
M  V30 33 1 13 31
M  V30 34 1 15 32
M  V30 35 1 16 33
M  V30 36 1 17 34
M  V30 37 1 18 35
M  V30 38 1 18 36
M  V30 39 1 19 37
M  V30 40 1 19 38
M  V30 41 1 21 39
M  V30 42 1 21 40
M  V30 43 1 22 41
M  V30 44 1 22 42
M  V30 45 1 23 43
M  V30 46 1 23 44
M  V30 47 1 23 45
M  V30 48 1 24 46
M  V30 49 1 24 47
M  V30 50 1 24 48
M  V30 END BOND
M  V30 END CTAB
M  END
>  <NO.>
5725

>  <Name>
lucanthone

>  <SMILES>
CCN(CC)CCNc1ccc(C)c2sc3ccccc3c(=O)c12

>  <logBB>


>  <Class>
-1

>  <MW>
340.16

>  <nHBAcc>
4

>  <nHBDon>
1

>  <SLogP>
4.48

>  <TopoPSA>
32.34

>  <MMFF94 Energy>
109.76

$$$$
CCN(CC)CCS(=O)(=O)C1CCN2C(=O)c3coc(n3)CC(=O)CC(O)/C=C(C)\C=C/CNC(=O)/C=C\C(C)C(C(C)C)OC(=O)C12
Actelion Java MolfileCreator 2.0

  0  0  0  0  0  0              0 V3000
M  V30 BEGIN CTAB
M  V30 COUNTS 98 100 0 0 0
M  V30 BEGIN ATOM
M  V30 1 S -2.8697 2.7101 -0.7168 0
M  V30 2 O -2.8416 2.2892 0.6683 0
M  V30 3 O -3.9673 3.5378 -1.1866 0
M  V30 4 C -1.3926 3.6253 -1.0304 0
M  V30 5 C -2.7672 1.2927 -1.8076 0
M  V30 6 C -0.0609 2.9053 -0.8389 0
M  V30 7 C -1.2548 4.8611 -0.1403 0
M  V30 8 C -3.5933 0.1301 -1.2692 0
M  V30 9 N 0.8863 4.0316 -0.6705 0
M  V30 10 C -0.0299 1.9079 0.3363 0
M  V30 11 C 0.1949 5.2658 -0.3493 0
M  V30 12 N -3.7008 -0.9892 -2.2351 0
M  V30 13 C 2.2535 4.0279 -0.9211 0
M  V30 14 O -0.4202 0.7507 0.2321 0
M  V30 15 O 0.4204 2.4762 1.488 0
M  V30 16 C -4.6801 -1.9719 -1.733 0
M  V30 17 C -2.3913 -1.6168 -2.5034 0
M  V30 18 O 2.911 5.0675 -0.8901 0
M  V30 19 C 2.8849 2.7521 -1.2519 0
M  V30 20 C 0.6001 1.6035 2.6419 0
M  V30 21 C -5.1092 -2.9658 -2.8085 0
M  V30 22 C -2.0269 -1.4241 -3.9691 0
M  V30 23 N 2.3353 1.5071 -1.02 0
M  V30 24 C 4.1209 2.5829 -1.8358 0
M  V30 25 C -0.7896 1.3191 3.2933 0
M  V30 26 C 1.6748 2.3002 3.5279 0
M  V30 27 C 3.1924 0.6616 -1.5473 0
M  V30 28 O 4.3276 1.2492 -2.0374 0
M  V30 29 C -0.8119 0.223 4.3431 0
M  V30 30 C -1.429 2.5928 3.8656 0
M  V30 31 C 2.0336 1.5359 4.8013 0
M  V30 32 C 2.9651 2.5304 2.7211 0
M  V30 33 C 3.0935 -0.8113 -1.6314 0
M  V30 34 C -1.0988 -1.0766 4.1586 0
M  V30 35 C 2.2119 -1.2172 -2.7974 0
M  V30 36 C -1.3493 -1.6986 2.8406 0
M  V30 37 O 1.4357 -0.4376 -3.3572 0
M  V30 38 C 2.3524 -2.6444 -3.3064 0
M  V30 39 O -2.4653 -2.0773 2.5171 0
M  V30 40 N -0.2 -1.8719 2.1185 0
M  V30 41 C 1.7961 -3.7301 -2.3803 0
M  V30 42 C -0.2053 -2.4037 0.7807 0
M  V30 43 O 0.4306 -3.4576 -2.1406 0
M  V30 44 C 2.5913 -3.9256 -1.112 0
M  V30 45 C -0.1181 -3.8934 0.8767 0
M  V30 46 C 2.2391 -4.3069 0.1333 0
M  V30 47 C 0.9149 -4.6953 0.5759 0
M  V30 48 C 3.2829 -4.464 1.214 0
M  V30 49 H -1.4655 3.9613 -2.0745 0
M  V30 50 H -1.7185 1.0169 -1.9137 0
M  V30 51 H -3.1296 1.6232 -2.787 0
M  V30 52 H 0.2033 2.3583 -1.7499 0
M  V30 53 H -1.4289 4.6114 0.9125 0
M  V30 54 H -1.9519 5.6604 -0.4094 0
M  V30 55 H -3.1807 -0.2249 -0.3157 0
M  V30 56 H -4.6004 0.5108 -1.0541 0
M  V30 57 H 0.3015 5.9487 -1.1996 0
M  V30 58 H 0.6386 5.7339 0.5347 0
M  V30 59 H -4.2922 -2.5055 -0.856 0
M  V30 60 H -5.5907 -1.4505 -1.411 0
M  V30 61 H -1.5935 -1.1987 -1.8794 0
M  V30 62 H -2.3932 -2.6901 -2.2788 0
M  V30 63 H 1.0312 0.6595 2.2852 0
M  V30 64 H -5.902 -3.6141 -2.4208 0
M  V30 65 H -4.2854 -3.6096 -3.1302 0
M  V30 66 H -5.503 -2.4457 -3.6883 0
M  V30 67 H -1.0645 -1.8993 -4.1834 0
M  V30 68 H -1.9403 -0.3628 -4.2233 0
M  V30 69 H -2.7763 -1.8751 -4.6279 0
M  V30 70 H 4.8993 3.2531 -2.1705 0
M  V30 71 H -1.4686 1.0022 2.4939 0
M  V30 72 H 1.312 3.2964 3.8114 0
M  V30 73 H -0.6734 0.5422 5.3745 0
M  V30 74 H -0.8756 2.9744 4.7302 0
M  V30 75 H -2.4563 2.3961 4.194 0
M  V30 76 H -1.4721 3.3872 3.1142 0
M  V30 77 H 2.9261 1.9589 5.2762 0
M  V30 78 H 2.2362 0.4808 4.5909 0
M  V30 79 H 1.2354 1.6047 5.5434 0
M  V30 80 H 2.7912 3.2014 1.8757 0
M  V30 81 H 3.7378 2.9964 3.3424 0
M  V30 82 H 3.3641 1.5864 2.3348 0
M  V30 83 H 2.662 -1.196 -0.7047 0
M  V30 84 H 4.0899 -1.2432 -1.7678 0
M  V30 85 H -1.189 -1.7562 4.9988 0
M  V30 86 H 1.8084 -2.6862 -4.2596 0
M  V30 87 H 3.408 -2.8225 -3.5427 0
M  V30 88 H 0.6818 -1.5796 2.5087 0
M  V30 89 H 1.8476 -4.6743 -2.9374 0
M  V30 90 H 0.6393 -1.9628 0.2481 0
M  V30 91 H -1.1287 -2.1172 0.2693 0
M  V30 92 H 0.0448 -4.2537 -1.7354 0
M  V30 93 H 3.6609 -3.778 -1.272 0
M  V30 94 H -1.033 -4.3638 1.2386 0
M  V30 95 H 0.7936 -5.7639 0.7579 0
M  V30 96 H 3.3215 -5.5 1.5685 0
M  V30 97 H 4.2861 -4.1992 0.8629 0
M  V30 98 H 3.0531 -3.8128 2.0649 0
M  V30 END ATOM
M  V30 BEGIN BOND
M  V30 1 2 1 2
M  V30 2 2 1 3
M  V30 3 1 1 4
M  V30 4 1 1 5
M  V30 5 1 4 6
M  V30 6 1 4 7
M  V30 7 1 5 8
M  V30 8 1 6 9
M  V30 9 1 6 10
M  V30 10 1 7 11
M  V30 11 1 8 12
M  V30 12 1 9 13
M  V30 13 2 10 14
M  V30 14 1 10 15
M  V30 15 1 12 16
M  V30 16 1 12 17
M  V30 17 2 13 18
M  V30 18 1 13 19
M  V30 19 1 15 20
M  V30 20 1 16 21
M  V30 21 1 17 22
M  V30 22 1 19 23
M  V30 23 2 19 24
M  V30 24 1 20 25
M  V30 25 1 20 26
M  V30 26 2 23 27
M  V30 27 1 24 28
M  V30 28 1 25 29
M  V30 29 1 25 30
M  V30 30 1 26 31
M  V30 31 1 26 32
M  V30 32 1 27 33
M  V30 33 2 29 34
M  V30 34 1 33 35
M  V30 35 1 34 36
M  V30 36 2 35 37
M  V30 37 1 35 38
M  V30 38 2 36 39
M  V30 39 1 36 40
M  V30 40 1 38 41
M  V30 41 1 40 42
M  V30 42 1 41 43
M  V30 43 1 41 44
M  V30 44 1 42 45
M  V30 45 2 44 46
M  V30 46 2 45 47
M  V30 47 1 46 48
M  V30 48 1 9 11
M  V30 49 1 27 28
M  V30 50 1 46 47
M  V30 51 1 4 49
M  V30 52 1 5 50
M  V30 53 1 5 51
M  V30 54 1 6 52
M  V30 55 1 7 53
M  V30 56 1 7 54
M  V30 57 1 8 55
M  V30 58 1 8 56
M  V30 59 1 11 57
M  V30 60 1 11 58
M  V30 61 1 16 59
M  V30 62 1 16 60
M  V30 63 1 17 61
M  V30 64 1 17 62
M  V30 65 1 20 63
M  V30 66 1 21 64
M  V30 67 1 21 65
M  V30 68 1 21 66
M  V30 69 1 22 67
M  V30 70 1 22 68
M  V30 71 1 22 69
M  V30 72 1 24 70
M  V30 73 1 25 71
M  V30 74 1 26 72
M  V30 75 1 29 73
M  V30 76 1 30 74
M  V30 77 1 30 75
M  V30 78 1 30 76
M  V30 79 1 31 77
M  V30 80 1 31 78
M  V30 81 1 31 79
M  V30 82 1 32 80
M  V30 83 1 32 81
M  V30 84 1 32 82
M  V30 85 1 33 83
M  V30 86 1 33 84
M  V30 87 1 34 85
M  V30 88 1 38 86
M  V30 89 1 38 87
M  V30 90 1 40 88
M  V30 91 1 41 89
M  V30 92 1 42 90
M  V30 93 1 42 91
M  V30 94 1 43 92
M  V30 95 1 44 93
M  V30 96 1 45 94
M  V30 97 1 47 95
M  V30 98 1 48 96
M  V30 99 1 48 97
M  V30 100 1 48 98
M  V30 END BOND
M  V30 END CTAB
M  END
>  <NO.>
5727

>  <Name>
dalfopristin

>  <SMILES>
CCN(CC)CCS(=O)(=O)C1CCN2C(=O)c3coc(n3)CC(=O)CC(O)/C=C(C)\C=C/CNC(=O)/C=C\C(C)C(C(C)C)OC(=O)C12

>  <logBB>


>  <Class>
-1

>  <MW>
690.33

>  <nHBAcc>
11

>  <nHBDon>
2

>  <SLogP>
2.27

>  <TopoPSA>
176.42

>  <MMFF94 Energy>
-7.381

$$$$
CCN(CC)c1ccc(C(=C2C=CC(=[N+](CC)CC)C=C2)c2cc(S(=O)(=O)O)ccc2S(=O)(=O)O)cc1
Actelion Java MolfileCreator 2.0

  0  0  0  0  0  0              0 V3000
M  V30 BEGIN CTAB
M  V30 COUNTS 70 72 0 0 0
M  V30 BEGIN ATOM
M  V30 1 S -1.6947 2.7449 -0.8067 0
M  V30 2 O -2.4909 3.9429 -0.9698 0
M  V30 3 O -0.5612 2.4947 -1.6726 0
M  V30 4 O -1.1769 2.8053 0.7158 0
M  V30 5 C -2.7947 1.342 -0.8632 0
M  V30 6 C -2.3362 0.0165 -0.7163 0
M  V30 7 C -4.1611 1.6035 -1.0858 0
M  V30 8 C -0.9131 -0.3838 -0.5051 0
M  V30 9 C -3.2767 -1.028 -0.8021 0
M  V30 10 C -5.0802 0.557 -1.1635 0
M  V30 11 C -0.09 -0.5532 -1.5809 0
M  V30 12 C -0.4018 -0.6016 0.8784 0
M  V30 13 C -4.6289 -0.7532 -1.0284 0
M  V30 14 C 1.3111 -0.9519 -1.4406 0
M  V30 15 C -0.5578 -0.3892 -2.9596 0
M  V30 16 C -0.8006 -1.7126 1.6187 0
M  V30 17 C 0.4941 0.2894 1.4683 0
M  V30 18 S -5.7747 -2.1007 -1.1324 0
M  V30 19 C 2.2064 -0.6614 -2.3963 0
M  V30 20 C 0.3013 -0.0895 -3.9447 0
M  V30 21 C -0.3116 -1.9192 2.9191 0
M  V30 22 C 0.9722 0.0712 2.7702 0
M  V30 23 O -5.3627 -3.1027 -0.1745 0
M  V30 24 O -5.9421 -2.4003 -2.5353 0
M  V30 25 O -7.1681 -1.5122 -0.5739 0
M  V30 26 C 1.7639 0.065 -3.6364 0
M  V30 27 C 0.5886 -1.038 3.5423 0
M  V30 28 N 2.5771 0.7622 -4.3822 0 CHG=1
M  V30 29 N 1.0667 -1.2496 4.83 0
M  V30 30 C 2.1189 1.5065 -5.6172 0
M  V30 31 C 4.052 0.899 -4.0783 0
M  V30 32 C 0.7508 -2.4659 5.5943 0
M  V30 33 C 1.905 -0.2646 5.5289 0
M  V30 34 C 1.4563 2.818 -5.2372 0
M  V30 35 C 4.2827 1.9627 -3.0211 0
M  V30 36 C -0.5605 -2.3117 6.3517 0
M  V30 37 C 3.3777 -0.4757 5.2077 0
M  V30 38 H -1.6371 3.5444 1.1694 0
M  V30 39 H -4.5259 2.6238 -1.2049 0
M  V30 40 H -2.9545 -2.065 -0.7067 0
M  V30 41 H -6.1334 0.7704 -1.3401 0
M  V30 42 H 1.6329 -1.4743 -0.5425 0
M  V30 43 H -1.6144 -0.4906 -3.1904 0
M  V30 44 H -1.4906 -2.4443 1.207 0
M  V30 45 H 0.8366 1.1695 0.929 0
M  V30 46 H 3.2421 -0.9388 -2.2464 0
M  V30 47 H -0.0796 0.0617 -4.9467 0
M  V30 48 H -0.6756 -2.8024 3.4361 0
M  V30 49 H 1.6689 0.8074 3.1592 0
M  V30 50 H -7.61 -2.2209 -0.0582 0
M  V30 51 H 2.9893 1.6942 -6.2542 0
M  V30 52 H 1.4515 0.8576 -6.1914 0
M  V30 53 H 4.4407 -0.0764 -3.7727 0
M  V30 54 H 4.5759 1.162 -5.003 0
M  V30 55 H 1.5482 -2.6605 6.3232 0
M  V30 56 H 0.7355 -3.3557 4.955 0
M  V30 57 H 1.7715 -0.3685 6.6136 0
M  V30 58 H 1.5959 0.7631 5.3077 0
M  V30 59 H 2.1496 3.4823 -4.7124 0
M  V30 60 H 1.1183 3.3387 -6.1391 0
M  V30 61 H 0.5847 2.6714 -4.5919 0
M  V30 62 H 3.7525 1.7432 -2.0891 0
M  V30 63 H 5.3506 2.0314 -2.7892 0
M  V30 64 H 3.9559 2.9487 -3.3652 0
M  V30 65 H -1.4036 -2.1418 5.6754 0
M  V30 66 H -0.5165 -1.4652 7.0452 0
M  V30 67 H -0.7691 -3.2153 6.933 0
M  V30 68 H 3.582 -0.3575 4.1394 0
M  V30 69 H 3.7026 -1.4804 5.4979 0
M  V30 70 H 3.9906 0.2493 5.7524 0
M  V30 END ATOM
M  V30 BEGIN BOND
M  V30 1 2 1 2
M  V30 2 2 1 3
M  V30 3 1 1 4
M  V30 4 1 1 5
M  V30 5 2 5 6
M  V30 6 1 5 7
M  V30 7 1 6 8
M  V30 8 1 6 9
M  V30 9 2 7 10
M  V30 10 2 8 11
M  V30 11 1 8 12
M  V30 12 2 9 13
M  V30 13 1 11 14
M  V30 14 1 11 15
M  V30 15 2 12 16
M  V30 16 1 12 17
M  V30 17 1 13 18
M  V30 18 2 14 19
M  V30 19 2 15 20
M  V30 20 1 16 21
M  V30 21 2 17 22
M  V30 22 2 18 23
M  V30 23 2 18 24
M  V30 24 1 18 25
M  V30 25 1 19 26
M  V30 26 2 21 27
M  V30 27 2 26 28
M  V30 28 1 27 29
M  V30 29 1 28 30
M  V30 30 1 28 31
M  V30 31 1 29 32
M  V30 32 1 29 33
M  V30 33 1 30 34
M  V30 34 1 31 35
M  V30 35 1 32 36
M  V30 36 1 33 37
M  V30 37 1 10 13
M  V30 38 1 20 26
M  V30 39 1 22 27
M  V30 40 1 4 38
M  V30 41 1 7 39
M  V30 42 1 9 40
M  V30 43 1 10 41
M  V30 44 1 14 42
M  V30 45 1 15 43
M  V30 46 1 16 44
M  V30 47 1 17 45
M  V30 48 1 19 46
M  V30 49 1 20 47
M  V30 50 1 21 48
M  V30 51 1 22 49
M  V30 52 1 25 50
M  V30 53 1 30 51
M  V30 54 1 30 52
M  V30 55 1 31 53
M  V30 56 1 31 54
M  V30 57 1 32 55
M  V30 58 1 32 56
M  V30 59 1 33 57
M  V30 60 1 33 58
M  V30 61 1 34 59
M  V30 62 1 34 60
M  V30 63 1 34 61
M  V30 64 1 35 62
M  V30 65 1 35 63
M  V30 66 1 35 64
M  V30 67 1 36 65
M  V30 68 1 36 66
M  V30 69 1 36 67
M  V30 70 1 37 68
M  V30 71 1 37 69
M  V30 72 1 37 70
M  V30 END BOND
M  V30 END CTAB
M  END
>  <NO.>
5728

>  <Name>
schembl180549

>  <SMILES>
CCN(CC)c1ccc(C(=C2C=CC(=[N+](CC)CC)C=C2)c2cc(S(=O)(=O)O)ccc2S(=O)(=O)O)cc1

>  <logBB>


>  <Class>
-1

>  <MW>
545.18

>  <nHBAcc>
5

>  <nHBDon>
2

>  <SLogP>
4.45

>  <TopoPSA>
114.99

>  <MMFF94 Energy>
25.945

$$$$
CCN(CCC(c1ccccc1)c1cc(C)ccc1O)C(C)C
Actelion Java MolfileCreator 2.0

  0  0  0  0  0  0              0 V3000
M  V30 BEGIN CTAB
M  V30 COUNTS 52 53 0 0 0
M  V30 BEGIN ATOM
M  V30 1 O -1.6457 2.8225 0.2349 0
M  V30 2 C -2.1749 1.6726 -0.2816 0
M  V30 3 C -1.7139 0.4359 0.1872 0
M  V30 4 C -3.1569 1.7506 -1.2693 0
M  V30 5 C -2.2667 -0.731 -0.3729 0
M  V30 6 C -0.6379 0.342 1.2679 0 CFG=2
M  V30 7 C -3.6926 0.5821 -1.8107 0
M  V30 8 C -3.2432 -0.6679 -1.3767 0
M  V30 9 C -1.1695 -0.3452 2.5304 0
M  V30 10 C 0.6799 -0.2647 0.7208 0
M  V30 11 C -3.8411 -1.9274 -1.9298 0
M  V30 12 C -0.8815 -1.6791 2.8578 0
M  V30 13 C -2.0072 0.3846 3.3933 0
M  V30 14 C 1.3327 0.6275 -0.3507 0
M  V30 15 C -1.4033 -2.2587 4.0174 0
M  V30 16 C -2.5282 -0.1957 4.551 0
M  V30 17 N 2.6054 0.048 -0.8297 0
M  V30 18 C -2.2243 -1.5175 4.8638 0
M  V30 19 C 2.9228 0.4096 -2.2315 0
M  V30 20 C 3.7088 0.3574 0.0991 0
M  V30 21 C 2.0488 -0.4039 -3.1975 0
M  V30 22 C 2.8309 1.9053 -2.5626 0
M  V30 23 C 4.8821 -0.6076 -0.0425 0
M  V30 24 H -2.0902 3.5812 -0.1771 0
M  V30 25 H -3.518 2.7088 -1.6293 0
M  V30 26 H -1.9343 -1.7052 -0.0189 0
M  V30 27 H -0.3669 1.3546 1.5978 0
M  V30 28 H -4.4634 0.6527 -2.5746 0
M  V30 29 H 1.3722 -0.4023 1.5598 0
M  V30 30 H 0.5052 -1.2604 0.2928 0
M  V30 31 H -4.1844 -1.7787 -2.9589 0
M  V30 32 H -3.1014 -2.7345 -1.9482 0
M  V30 33 H -4.6913 -2.2391 -1.3153 0
M  V30 34 H -0.2521 -2.2896 2.2163 0
M  V30 35 H -2.2613 1.4168 3.158 0
M  V30 36 H 0.6216 0.7105 -1.1778 0
M  V30 37 H 1.4865 1.6448 0.0317 0
M  V30 38 H -1.1693 -3.2925 4.2576 0
M  V30 39 H -3.1735 0.3845 5.2047 0
M  V30 40 H -2.63 -1.971 5.7638 0
M  V30 41 H 3.949 0.0968 -2.4534 0
M  V30 42 H 4.0564 1.3903 -0.0158 0
M  V30 43 H 3.3684 0.2688 1.1368 0
M  V30 44 H 2.1168 -1.4751 -2.9773 0
M  V30 45 H 2.3886 -0.26 -4.2293 0
M  V30 46 H 0.9943 -0.1138 -3.1577 0
M  V30 47 H 3.1604 2.0846 -3.5922 0
M  V30 48 H 1.8081 2.2863 -2.4785 0
M  V30 49 H 3.4733 2.5029 -1.9089 0
M  V30 50 H 5.6083 -0.4279 0.7573 0
M  V30 51 H 5.4091 -0.4854 -0.9925 0
M  V30 52 H 4.5481 -1.6474 0.0384 0
M  V30 END ATOM
M  V30 BEGIN BOND
M  V30 1 1 1 2
M  V30 2 2 2 3
M  V30 3 1 2 4
M  V30 4 1 3 5
M  V30 5 1 3 6
M  V30 6 2 4 7
M  V30 7 2 5 8
M  V30 8 1 6 9
M  V30 9 1 6 10
M  V30 10 1 8 11
M  V30 11 2 9 12
M  V30 12 1 9 13
M  V30 13 1 10 14
M  V30 14 1 12 15
M  V30 15 2 13 16
M  V30 16 1 14 17
M  V30 17 2 15 18
M  V30 18 1 17 19
M  V30 19 1 17 20
M  V30 20 1 19 21
M  V30 21 1 19 22
M  V30 22 1 20 23
M  V30 23 1 7 8
M  V30 24 1 16 18
M  V30 25 1 1 24
M  V30 26 1 4 25
M  V30 27 1 5 26
M  V30 28 1 6 27
M  V30 29 1 7 28
M  V30 30 1 10 29
M  V30 31 1 10 30
M  V30 32 1 11 31
M  V30 33 1 11 32
M  V30 34 1 11 33
M  V30 35 1 12 34
M  V30 36 1 13 35
M  V30 37 1 14 36
M  V30 38 1 14 37
M  V30 39 1 15 38
M  V30 40 1 16 39
M  V30 41 1 18 40
M  V30 42 1 19 41
M  V30 43 1 20 42
M  V30 44 1 20 43
M  V30 45 1 21 44
M  V30 46 1 21 45
M  V30 47 1 21 46
M  V30 48 1 22 47
M  V30 49 1 22 48
M  V30 50 1 22 49
M  V30 51 1 23 50
M  V30 52 1 23 51
M  V30 53 1 23 52
M  V30 END BOND
M  V30 BEGIN COLLECTION
M  V30 MDLV30/STERAC1 ATOMS=(1 6)
M  V30 END COLLECTION
M  V30 END CTAB
M  END
>  <NO.>
5729

>  <Name>
tolterodine

>  <SMILES>
CCN(CCC(c1ccccc1)c1cc(C)ccc1O)C(C)C

>  <logBB>


>  <Class>
1

>  <MW>
311.22

>  <nHBAcc>
2

>  <nHBDon>
1

>  <SLogP>
4.95

>  <TopoPSA>
23.47

>  <MMFF94 Energy>
49.037

$$$$
CCN(CCO)CCCC(C)Nc1ccnc2cc(Cl)ccc12
Actelion Java MolfileCreator 2.0

  0  0  0  0  0  0              0 V3000
M  V30 BEGIN CTAB
M  V30 COUNTS 49 50 0 0 0
M  V30 BEGIN ATOM
M  V30 1 Cl -7.6019 1.8963 -1.0268 0
M  V30 2 C -5.8881 1.8532 -1.1711 0
M  V30 3 C -5.2925 2.0003 -2.4195 0
M  V30 4 C -5.1067 1.6652 -0.042 0
M  V30 5 C -3.9145 1.968 -2.5702 0
M  V30 6 C -3.718 1.6331 -0.1714 0
M  V30 7 N -3.4319 2.1001 -3.8118 0
M  V30 8 C -3.087 1.793 -1.4317 0
M  V30 9 C -2.0983 2.0495 -3.9731 0
M  V30 10 C -1.6734 1.7786 -1.6268 0
M  V30 11 C -1.2005 1.8853 -2.9358 0
M  V30 12 N -0.8074 1.5994 -0.5529 0
M  V30 13 C 0.6323 1.3759 -0.6363 0 CFG=2
M  V30 14 C 1.0867 0.5338 0.5707 0
M  V30 15 C 1.3531 2.7242 -0.6297 0
M  V30 16 C 0.5062 -0.888 0.5429 0
M  V30 17 C 0.9581 -1.7353 1.7408 0
M  V30 18 N 2.4259 -1.9139 1.7771 0
M  V30 19 C 2.8276 -3.258 1.2872 0
M  V30 20 C 2.9195 -1.6845 3.1503 0
M  V30 21 C 2.4881 -3.5641 -0.1828 0
M  V30 22 C 4.4385 -1.5739 3.2453 0
M  V30 23 O 1.1417 -4.0055 -0.3256 0
M  V30 24 H -5.9113 2.1392 -3.3027 0
M  V30 25 H -5.5641 1.5398 0.9356 0
M  V30 26 H -3.1328 1.4675 0.728 0
M  V30 27 H -1.7526 2.1501 -4.9979 0
M  V30 28 H -0.1441 1.8667 -3.1705 0
M  V30 29 H -1.1627 1.8136 0.3701 0
M  V30 30 H 0.8969 0.8217 -1.5441 0
M  V30 31 H 2.1821 0.4788 0.5664 0
M  V30 32 H 0.7947 1.0264 1.5073 0
M  V30 33 H 1.1267 3.2916 0.2801 0
M  V30 34 H 1.0528 3.3406 -1.4833 0
M  V30 35 H 2.4381 2.5858 -0.6829 0
M  V30 36 H -0.5892 -0.8371 0.5631 0
M  V30 37 H 0.7745 -1.3714 -0.401 0
M  V30 38 H 0.6027 -1.2163 2.6418 0
M  V30 39 H 0.4296 -2.6962 1.7506 0
M  V30 40 H 2.4026 -4.0368 1.9334 0
M  V30 41 H 3.9181 -3.3333 1.3506 0
M  V30 42 H 2.5248 -0.7266 3.514 0
M  V30 43 H 2.5581 -2.4618 3.8354 0
M  V30 44 H 2.6605 -2.6916 -0.8214 0
M  V30 45 H 3.1326 -4.3745 -0.5397 0
M  V30 46 H 4.723 -1.2249 4.2439 0
M  V30 47 H 4.8286 -0.8551 2.5171 0
M  V30 48 H 4.9326 -2.5366 3.0864 0
M  V30 49 H 0.9725 -4.0904 -1.2793 0
M  V30 END ATOM
M  V30 BEGIN BOND
M  V30 1 1 1 2
M  V30 2 2 2 3
M  V30 3 1 2 4
M  V30 4 1 3 5
M  V30 5 2 4 6
M  V30 6 2 5 7
M  V30 7 1 5 8
M  V30 8 1 7 9
M  V30 9 2 8 10
M  V30 10 2 9 11
M  V30 11 1 10 12
M  V30 12 1 12 13
M  V30 13 1 13 14
M  V30 14 1 13 15
M  V30 15 1 14 16
M  V30 16 1 16 17
M  V30 17 1 17 18
M  V30 18 1 18 19
M  V30 19 1 18 20
M  V30 20 1 19 21
M  V30 21 1 20 22
M  V30 22 1 21 23
M  V30 23 1 6 8
M  V30 24 1 10 11
M  V30 25 1 3 24
M  V30 26 1 4 25
M  V30 27 1 6 26
M  V30 28 1 9 27
M  V30 29 1 11 28
M  V30 30 1 12 29
M  V30 31 1 13 30
M  V30 32 1 14 31
M  V30 33 1 14 32
M  V30 34 1 15 33
M  V30 35 1 15 34
M  V30 36 1 15 35
M  V30 37 1 16 36
M  V30 38 1 16 37
M  V30 39 1 17 38
M  V30 40 1 17 39
M  V30 41 1 19 40
M  V30 42 1 19 41
M  V30 43 1 20 42
M  V30 44 1 20 43
M  V30 45 1 21 44
M  V30 46 1 21 45
M  V30 47 1 22 46
M  V30 48 1 22 47
M  V30 49 1 22 48
M  V30 50 1 23 49
M  V30 END BOND
M  V30 BEGIN COLLECTION
M  V30 MDLV30/STERAC1 ATOMS=(1 13)
M  V30 END COLLECTION
M  V30 END CTAB
M  END
>  <NO.>
5730

>  <Name>
hydroxychloroquine

>  <SMILES>
CCN(CCO)CCCC(C)Nc1ccnc2cc(Cl)ccc12

>  <logBB>


>  <Class>
-1

>  <MW>
335.18

>  <nHBAcc>
4

>  <nHBDon>
2

>  <SLogP>
3.78

>  <TopoPSA>
48.39

>  <MMFF94 Energy>
58.162

$$$$
CCN(Cc1ccncc1)C(=O)C(CO)c1ccccc1
Actelion Java MolfileCreator 2.0

  0  0  0  0  0  0              0 V3000
M  V30 BEGIN CTAB
M  V30 COUNTS 41 42 0 0 0
M  V30 BEGIN ATOM
M  V30 1 O 1.6568 -0.1577 1.7357 0
M  V30 2 C 1.3539 -0.0368 0.5431 0
M  V30 3 N 0.8633 -1.1179 -0.1884 0
M  V30 4 C 1.4925 1.3256 -0.1523 0 CFG=1
M  V30 5 C 0.7317 -2.4092 0.4883 0
M  V30 6 C 0.4641 -1.0634 -1.598 0
M  V30 7 C 0.174 2.0923 -0.2361 0
M  V30 8 C 2.554 2.1684 0.5756 0
M  V30 9 C -0.6769 -2.6643 0.9674 0
M  V30 10 C 1.602 -1.4694 -2.5226 0
M  V30 11 C -0.0538 2.9498 -1.3253 0
M  V30 12 C -0.8125 1.9955 0.7574 0
M  V30 13 O 3.1091 3.1413 -0.316 0
M  V30 14 C -1.1737 -2.0108 2.0995 0
M  V30 15 C -1.5224 -3.5472 0.2893 0
M  V30 16 C -1.2457 3.6682 -1.4318 0
M  V30 17 C -2.0057 2.7129 0.6473 0
M  V30 18 C -2.4759 -2.2648 2.4994 0
M  V30 19 C -2.8104 -3.7354 0.7678 0
M  V30 20 C -2.2233 3.5459 -0.4476 0
M  V30 21 N -3.3065 -3.1145 1.8585 0
M  V30 22 H 1.8583 1.147 -1.1703 0
M  V30 23 H 1.0544 -3.199 -0.2003 0
M  V30 24 H 1.4114 -2.4678 1.3469 0
M  V30 25 H 0.1274 -0.06 -1.8627 0
M  V30 26 H -0.3943 -1.7255 -1.751 0
M  V30 27 H 3.3892 1.5456 0.9142 0
M  V30 28 H 2.1385 2.6894 1.4459 0
M  V30 29 H 1.9179 -2.5001 -2.3329 0
M  V30 30 H 2.4757 -0.8246 -2.3854 0
M  V30 31 H 1.2846 -1.399 -3.5676 0
M  V30 32 H 0.7071 3.0698 -2.0946 0
M  V30 33 H -0.6672 1.3631 1.6309 0
M  V30 34 H 3.6767 3.7192 0.2234 0
M  V30 35 H -0.5579 -1.3159 2.6625 0
M  V30 36 H -1.1929 -4.0801 -0.5959 0
M  V30 37 H -1.4076 4.3275 -2.2804 0
M  V30 38 H -2.7649 2.6229 1.4202 0
M  V30 39 H -2.8964 -1.7762 3.3736 0
M  V30 40 H -3.4986 -4.4122 0.2696 0
M  V30 41 H -3.1516 4.1052 -0.5295 0
M  V30 END ATOM
M  V30 BEGIN BOND
M  V30 1 2 1 2
M  V30 2 1 2 3
M  V30 3 1 2 4
M  V30 4 1 3 5
M  V30 5 1 3 6
M  V30 6 1 4 7
M  V30 7 1 4 8
M  V30 8 1 5 9
M  V30 9 1 6 10
M  V30 10 2 7 11
M  V30 11 1 7 12
M  V30 12 1 8 13
M  V30 13 2 9 14
M  V30 14 1 9 15
M  V30 15 1 11 16
M  V30 16 2 12 17
M  V30 17 1 14 18
M  V30 18 2 15 19
M  V30 19 2 16 20
M  V30 20 2 18 21
M  V30 21 1 17 20
M  V30 22 1 19 21
M  V30 23 1 4 22
M  V30 24 1 5 23
M  V30 25 1 5 24
M  V30 26 1 6 25
M  V30 27 1 6 26
M  V30 28 1 8 27
M  V30 29 1 8 28
M  V30 30 1 10 29
M  V30 31 1 10 30
M  V30 32 1 10 31
M  V30 33 1 11 32
M  V30 34 1 12 33
M  V30 35 1 13 34
M  V30 36 1 14 35
M  V30 37 1 15 36
M  V30 38 1 16 37
M  V30 39 1 17 38
M  V30 40 1 18 39
M  V30 41 1 19 40
M  V30 42 1 20 41
M  V30 END BOND
M  V30 BEGIN COLLECTION
M  V30 MDLV30/STERAC1 ATOMS=(1 4)
M  V30 END COLLECTION
M  V30 END CTAB
M  END
>  <NO.>
5731

>  <Name>
tropicamide

>  <SMILES>
CCN(Cc1ccncc1)C(=O)C(CO)c1ccccc1

>  <logBB>


>  <Class>
-1

>  <MW>
284.15

>  <nHBAcc>
3

>  <nHBDon>
1

>  <SLogP>
2.21

>  <TopoPSA>
53.43

>  <MMFF94 Energy>
47.247

$$$$
CCOC(=O)C(CCc1ccccc1)NC(C)C(=O)N(CC(=O)O)C1Cc2ccccc2C1
Actelion Java MolfileCreator 2.0

  0  0  0  0  0  0              0 V3000
M  V30 BEGIN CTAB
M  V30 COUNTS 65 67 0 0 0
M  V30 BEGIN ATOM
M  V30 1 O 2.8574 1.5866 1.5866 0
M  V30 2 C 1.9324 1.8842 0.8331 0
M  V30 3 O 0.9321 2.757 1.1402 0
M  V30 4 C 1.7242 1.2494 -0.5581 0
M  V30 5 C 0.9559 3.3096 2.4632 0
M  V30 6 N 0.7164 0.1844 -0.4359 0
M  V30 7 C 1.322 2.3276 -1.5816 0
M  V30 8 C 1.8081 4.5641 2.4869 0
M  V30 9 C 1.2401 -1.194 -0.4732 0
M  V30 10 C 1.3801 1.8269 -3.0269 0
M  V30 11 C 0.1138 -2.1018 0.1073 0
M  V30 12 C 1.5592 -1.6384 -1.9005 0
M  V30 13 C 1.069 2.9305 -4.0068 0
M  V30 14 O -0.8738 -2.3595 -0.5881 0
M  V30 15 N 0.2026 -2.5154 1.4356 0
M  V30 16 C -0.2579 3.2161 -4.3549 0
M  V30 17 C 2.0989 3.7029 -4.5598 0
M  V30 18 C -0.9905 -3.0216 2.1299 0
M  V30 19 C 1.4468 -2.4713 2.2115 0
M  V30 20 C -0.5479 4.2488 -5.2477 0
M  V30 21 C 1.8066 4.7351 -5.4526 0
M  V30 22 C -2.1977 -2.0506 2.1651 0
M  V30 23 C -1.5298 -4.3757 1.6108 0
M  V30 24 C 1.7204 -1.09 2.7846 0
M  V30 25 C 0.4839 5.0073 -5.7969 0
M  V30 26 C -3.3263 -3.0095 2.4029 0
M  V30 27 C -2.9495 -4.3215 2.0894 0
M  V30 28 O 0.907 -0.3254 3.2768 0
M  V30 29 O 3.0231 -0.7579 2.6525 0
M  V30 30 C -4.6106 -2.7184 2.8307 0
M  V30 31 C -3.8503 -5.3676 2.1967 0
M  V30 32 C -5.5217 -3.7694 2.954 0
M  V30 33 C -5.1443 -5.0844 2.6391 0
M  V30 34 H 2.6998 0.8501 -0.8633 0
M  V30 35 H 1.3052 2.575 3.1974 0
M  V30 36 H -0.0772 3.5602 2.7249 0
M  V30 37 H -0.0482 0.2831 -1.1044 0
M  V30 38 H 1.9913 3.1917 -1.4692 0
M  V30 39 H 0.313 2.7038 -1.3632 0
M  V30 40 H 1.7889 5.0277 3.4772 0
M  V30 41 H 2.8468 4.3379 2.2266 0
M  V30 42 H 1.4459 5.2888 1.7503 0
M  V30 43 H 2.1513 -1.2639 0.1186 0
M  V30 44 H 2.3743 1.4176 -3.2452 0
M  V30 45 H 0.672 1.0048 -3.183 0
M  V30 46 H 1.8488 -2.695 -1.9145 0
M  V30 47 H 2.3866 -1.0598 -2.3227 0
M  V30 48 H 0.6954 -1.5295 -2.5661 0
M  V30 49 H -1.0749 2.6357 -3.932 0
M  V30 50 H 3.136 3.5059 -4.2992 0
M  V30 51 H -0.7081 -3.1804 3.1826 0
M  V30 52 H 2.2695 -2.7686 1.5529 0
M  V30 53 H 1.4185 -3.1969 3.0306 0
M  V30 54 H -1.5799 4.462 -5.5138 0
M  V30 55 H 2.6111 5.3281 -5.8793 0
M  V30 56 H -2.0927 -1.328 2.9805 0
M  V30 57 H -2.3566 -1.5137 1.2262 0
M  V30 58 H -0.9776 -5.2097 2.0552 0
M  V30 59 H -1.5046 -4.4672 0.5219 0
M  V30 60 H 0.2569 5.8112 -6.4919 0
M  V30 61 H 3.0501 0.2305 2.7202 0
M  V30 62 H -4.9067 -1.7 3.0607 0
M  V30 63 H -3.5647 -6.3822 1.9398 0
M  V30 64 H -6.536 -3.5669 3.2887 0
M  V30 65 H -5.8704 -5.8881 2.7327 0
M  V30 END ATOM
M  V30 BEGIN BOND
M  V30 1 2 1 2
M  V30 2 1 2 3
M  V30 3 1 2 4
M  V30 4 1 3 5
M  V30 5 1 4 6
M  V30 6 1 4 7
M  V30 7 1 5 8
M  V30 8 1 6 9
M  V30 9 1 7 10
M  V30 10 1 9 11
M  V30 11 1 9 12
M  V30 12 1 10 13
M  V30 13 2 11 14
M  V30 14 1 11 15
M  V30 15 2 13 16
M  V30 16 1 13 17
M  V30 17 1 15 18
M  V30 18 1 15 19
M  V30 19 1 16 20
M  V30 20 2 17 21
M  V30 21 1 18 22
M  V30 22 1 18 23
M  V30 23 1 19 24
M  V30 24 2 20 25
M  V30 25 1 22 26
M  V30 26 1 23 27
M  V30 27 2 24 28
M  V30 28 1 24 29
M  V30 29 1 26 30
M  V30 30 1 27 31
M  V30 31 2 30 32
M  V30 32 2 31 33
M  V30 33 1 21 25
M  V30 34 2 26 27
M  V30 35 1 32 33
M  V30 36 1 4 34
M  V30 37 1 5 35
M  V30 38 1 5 36
M  V30 39 1 6 37
M  V30 40 1 7 38
M  V30 41 1 7 39
M  V30 42 1 8 40
M  V30 43 1 8 41
M  V30 44 1 8 42
M  V30 45 1 9 43
M  V30 46 1 10 44
M  V30 47 1 10 45
M  V30 48 1 12 46
M  V30 49 1 12 47
M  V30 50 1 12 48
M  V30 51 1 16 49
M  V30 52 1 17 50
M  V30 53 1 18 51
M  V30 54 1 19 52
M  V30 55 1 19 53
M  V30 56 1 20 54
M  V30 57 1 21 55
M  V30 58 1 22 56
M  V30 59 1 22 57
M  V30 60 1 23 58
M  V30 61 1 23 59
M  V30 62 1 25 60
M  V30 63 1 29 61
M  V30 64 1 30 62
M  V30 65 1 31 63
M  V30 66 1 32 64
M  V30 67 1 33 65
M  V30 END BOND
M  V30 END CTAB
M  END
>  <NO.>
5737

>  <Name>
schembl20840151

>  <SMILES>
CCOC(=O)C(CCc1ccccc1)NC(C)C(=O)N(CC(=O)O)C1Cc2ccccc2C1

>  <logBB>


>  <Class>
-1

>  <MW>
452.23

>  <nHBAcc>
5

>  <nHBDon>
2

>  <SLogP>
2.61

>  <TopoPSA>
95.94

>  <MMFF94 Energy>
136.66

$$$$
CCOC(=O)C(CCc1ccccc1)NC(C)C(=O)N1C(=O)N(C)CC1C(=O)O
Actelion Java MolfileCreator 2.0

  0  0  0  0  0  0              0 V3000
M  V30 BEGIN CTAB
M  V30 COUNTS 56 57 0 0 0
M  V30 BEGIN ATOM
M  V30 1 O 0.5529 -0.79 2.1342 0
M  V30 2 C 0.274 0.1439 2.8681 0
M  V30 3 N -0.998 0.7103 3.1207 0
M  V30 4 N 1.1979 0.8425 3.651 0
M  V30 5 C -2.2176 0.5113 2.4815 0
M  V30 6 C -0.9107 1.6407 4.2332 0
M  V30 7 C 0.5756 1.9403 4.3537 0
M  V30 8 C 2.626 0.6394 3.6258 0
M  V30 9 O -3.2449 1.0622 2.8927 0
M  V30 10 C -2.2141 -0.3812 1.2194 0
M  V30 11 C -1.394 1.0416 5.5475 0
M  V30 12 N -1.5843 0.4057 0.1381 0
M  V30 13 C -3.6434 -0.7939 0.8619 0
M  V30 14 O -1.4161 1.6334 6.6183 0
M  V30 15 O -1.7899 -0.2453 5.4877 0
M  V30 16 C -0.8736 -0.4324 -0.8593 0
M  V30 17 C -1.8497 -0.8971 -1.9486 0
M  V30 18 C 0.2325 0.4317 -1.4825 0
M  V30 19 O -2.8012 -0.2382 -2.3535 0
M  V30 20 O -1.5032 -2.1334 -2.4044 0
M  V30 21 C 1.1746 -0.3785 -2.3796 0
M  V30 22 C -2.362 -2.6433 -3.4308 0
M  V30 23 C 2.3299 0.4593 -2.8695 0
M  V30 24 C -1.8461 -4.0079 -3.8432 0
M  V30 25 C 2.2088 1.2249 -4.0367 0
M  V30 26 C 3.5294 0.5046 -2.1467 0
M  V30 27 C 3.2733 2.0117 -4.479 0
M  V30 28 C 4.5929 1.2917 -2.5909 0
M  V30 29 C 4.4651 2.0439 -3.7571 0
M  V30 30 H -1.5109 2.5359 4.0365 0
M  V30 31 H 0.8365 2.8622 3.8224 0
M  V30 32 H 0.9518 1.9916 5.3799 0
M  V30 33 H 2.8785 -0.2555 3.0517 0
M  V30 34 H 2.986 0.5309 4.6523 0
M  V30 35 H 3.0957 1.5102 3.1606 0
M  V30 36 H -1.6554 -1.2915 1.4576 0
M  V30 37 H -2.2911 0.9698 -0.3437 0
M  V30 38 H -4.2544 0.0674 0.5684 0
M  V30 39 H -4.1347 -1.2623 1.7223 0
M  V30 40 H -3.6573 -1.5186 0.0426 0
M  V30 41 H -2.097 -0.4556 6.3945 0
M  V30 42 H -0.4257 -1.3052 -0.3707 0
M  V30 43 H 0.8215 0.8964 -0.6793 0
M  V30 44 H -0.2072 1.2543 -2.0631 0
M  V30 45 H 1.5626 -1.2482 -1.8345 0
M  V30 46 H 0.6369 -0.7784 -3.2474 0
M  V30 47 H -2.3499 -1.9673 -4.2932 0
M  V30 48 H -3.384 -2.734 -3.0459 0
M  V30 49 H -2.4715 -4.4404 -4.629 0
M  V30 50 H -0.8167 -3.9358 -4.2096 0
M  V30 51 H -1.8321 -4.6897 -2.9865 0
M  V30 52 H 1.283 1.2138 -4.6075 0
M  V30 53 H 3.6401 -0.0729 -1.2314 0
M  V30 54 H 3.1716 2.6011 -5.3863 0
M  V30 55 H 5.5206 1.3188 -2.0256 0
M  V30 56 H 5.2932 2.657 -4.1022 0
M  V30 END ATOM
M  V30 BEGIN BOND
M  V30 1 2 1 2
M  V30 2 1 2 3
M  V30 3 1 2 4
M  V30 4 1 3 5
M  V30 5 1 3 6
M  V30 6 1 4 7
M  V30 7 1 4 8
M  V30 8 2 5 9
M  V30 9 1 5 10
M  V30 10 1 6 11
M  V30 11 1 10 12
M  V30 12 1 10 13
M  V30 13 2 11 14
M  V30 14 1 11 15
M  V30 15 1 12 16
M  V30 16 1 16 17
M  V30 17 1 16 18
M  V30 18 2 17 19
M  V30 19 1 17 20
M  V30 20 1 18 21
M  V30 21 1 20 22
M  V30 22 1 21 23
M  V30 23 1 22 24
M  V30 24 2 23 25
M  V30 25 1 23 26
M  V30 26 1 25 27
M  V30 27 2 26 28
M  V30 28 2 27 29
M  V30 29 1 6 7
M  V30 30 1 28 29
M  V30 31 1 6 30
M  V30 32 1 7 31
M  V30 33 1 7 32
M  V30 34 1 8 33
M  V30 35 1 8 34
M  V30 36 1 8 35
M  V30 37 1 10 36
M  V30 38 1 12 37
M  V30 39 1 13 38
M  V30 40 1 13 39
M  V30 41 1 13 40
M  V30 42 1 15 41
M  V30 43 1 16 42
M  V30 44 1 18 43
M  V30 45 1 18 44
M  V30 46 1 21 45
M  V30 47 1 21 46
M  V30 48 1 22 47
M  V30 49 1 22 48
M  V30 50 1 24 49
M  V30 51 1 24 50
M  V30 52 1 24 51
M  V30 53 1 25 52
M  V30 54 1 26 53
M  V30 55 1 27 54
M  V30 56 1 28 55
M  V30 57 1 29 56
M  V30 END BOND
M  V30 END CTAB
M  END
>  <NO.>
5738

>  <Name>
schembl683273

>  <SMILES>
CCOC(=O)C(CCc1ccccc1)NC(C)C(=O)N1C(=O)N(C)CC1C(=O)O

>  <logBB>


>  <Class>
-1

>  <MW>
405.19

>  <nHBAcc>
6

>  <nHBDon>
2

>  <SLogP>
0.88

>  <TopoPSA>
116.25

>  <MMFF94 Energy>
11.352

$$$$
CCOC(=O)C(CCc1ccccc1)NC1CSC(c2cccs2)CN(CC(=O)O)C1=O
Actelion Java MolfileCreator 2.0

  0  0  0  0  0  0              0 V3000
M  V30 BEGIN CTAB
M  V30 COUNTS 60 62 0 0 0
M  V30 BEGIN ATOM
M  V30 1 S 0.8929 -3.4938 1.8676 0
M  V30 2 C 2.5946 -2.8444 2.0817 0
M  V30 3 C -0.1179 -1.9792 1.6909 0
M  V30 4 C 2.973 -2.611 3.5314 0
M  V30 5 C 3.0573 -1.7345 1.1144 0
M  V30 6 C 0.2645 -1.0958 0.4957 0
M  V30 7 S 2.1506 -1.4921 4.5419 0
M  V30 8 C 3.9976 -3.2332 4.2274 0
M  V30 9 N 2.5168 -0.3946 1.3517 0
M  V30 10 N -0.9658 -0.4311 -0.0362 0
M  V30 11 C 1.2398 -0.0058 0.9958 0
M  V30 12 C 3.1561 -1.8369 5.8765 0
M  V30 13 C 4.1036 -2.7867 5.5757 0
M  V30 14 C 3.4449 0.6369 1.833 0
M  V30 15 C -0.7666 0.0725 -1.421 0
M  V30 16 O 0.8724 1.1702 1.0897 0
M  V30 17 C 4.1962 1.2824 0.6781 0
M  V30 18 C -0.7461 -1.099 -2.4179 0
M  V30 19 C -1.8565 1.0847 -1.8194 0
M  V30 20 O 4.4508 0.7771 -0.4046 0
M  V30 21 O 4.6651 2.5103 0.9822 0
M  V30 22 O 0.2832 -1.5433 -2.9162 0
M  V30 23 O -1.9923 -1.609 -2.627 0
M  V30 24 C -1.711 2.4315 -1.1034 0
M  V30 25 C -2.0282 -2.7448 -3.4968 0
M  V30 26 C -2.7184 3.4355 -1.6091 0
M  V30 27 C -3.4698 -3.1962 -3.6252 0
M  V30 28 C -2.3726 4.345 -2.6173 0
M  V30 29 C -4.0222 3.4524 -1.0953 0
M  V30 30 C -3.3115 5.2606 -3.0955 0
M  V30 31 C -4.9595 4.3686 -1.5749 0
M  V30 32 C -4.604 5.2728 -2.574 0
M  V30 33 H 3.1869 -3.7194 1.7763 0
M  V30 34 H -1.1384 -2.3572 1.5542 0
M  V30 35 H -0.1262 -1.4228 2.633 0
M  V30 36 H 4.1521 -1.6655 1.1618 0
M  V30 37 H 2.8262 -2.0196 0.0814 0
M  V30 38 H 0.7223 -1.6923 -0.2968 0
M  V30 39 H 4.6445 -3.9845 3.7891 0
M  V30 40 H -1.138 0.3739 0.5744 0
M  V30 41 H 3.0014 -1.3309 6.8199 0
M  V30 42 H 4.8336 -3.1482 6.2897 0
M  V30 43 H 4.1647 0.1938 2.5277 0
M  V30 44 H 2.8816 1.4148 2.3596 0
M  V30 45 H 0.2025 0.5799 -1.5116 0
M  V30 46 H -1.8112 1.2472 -2.9053 0
M  V30 47 H -2.8534 0.6665 -1.6232 0
M  V30 48 H 5.1145 2.8045 0.1622 0
M  V30 49 H -1.8412 2.3177 -0.0208 0
M  V30 50 H -0.698 2.8279 -1.2469 0
M  V30 51 H -1.4234 -3.5545 -3.0733 0
M  V30 52 H -1.6378 -2.4683 -4.4826 0
M  V30 53 H -3.5493 -4.0657 -4.2835 0
M  V30 54 H -3.8812 -3.4563 -2.6442 0
M  V30 55 H -4.092 -2.3897 -4.0274 0
M  V30 56 H -1.3691 4.346 -3.0361 0
M  V30 57 H -4.3144 2.7498 -0.318 0
M  V30 58 H -3.0343 5.9642 -3.8759 0
M  V30 59 H -5.9677 4.3756 -1.1692 0
M  V30 60 H -5.3343 5.9858 -2.947 0
M  V30 END ATOM
M  V30 BEGIN BOND
M  V30 1 1 1 2
M  V30 2 1 1 3
M  V30 3 1 2 4
M  V30 4 1 2 5
M  V30 5 1 3 6
M  V30 6 1 4 7
M  V30 7 2 4 8
M  V30 8 1 5 9
M  V30 9 1 6 10
M  V30 10 1 6 11
M  V30 11 1 7 12
M  V30 12 1 8 13
M  V30 13 1 9 14
M  V30 14 1 10 15
M  V30 15 2 11 16
M  V30 16 1 14 17
M  V30 17 1 15 18
M  V30 18 1 15 19
M  V30 19 2 17 20
M  V30 20 1 17 21
M  V30 21 2 18 22
M  V30 22 1 18 23
M  V30 23 1 19 24
M  V30 24 1 23 25
M  V30 25 1 24 26
M  V30 26 1 25 27
M  V30 27 2 26 28
M  V30 28 1 26 29
M  V30 29 1 28 30
M  V30 30 2 29 31
M  V30 31 2 30 32
M  V30 32 1 9 11
M  V30 33 2 12 13
M  V30 34 1 31 32
M  V30 35 1 2 33
M  V30 36 1 3 34
M  V30 37 1 3 35
M  V30 38 1 5 36
M  V30 39 1 5 37
M  V30 40 1 6 38
M  V30 41 1 8 39
M  V30 42 1 10 40
M  V30 43 1 12 41
M  V30 44 1 13 42
M  V30 45 1 14 43
M  V30 46 1 14 44
M  V30 47 1 15 45
M  V30 48 1 19 46
M  V30 49 1 19 47
M  V30 50 1 21 48
M  V30 51 1 24 49
M  V30 52 1 24 50
M  V30 53 1 25 51
M  V30 54 1 25 52
M  V30 55 1 27 53
M  V30 56 1 27 54
M  V30 57 1 27 55
M  V30 58 1 28 56
M  V30 59 1 29 57
M  V30 60 1 30 58
M  V30 61 1 31 59
M  V30 62 1 32 60
M  V30 END BOND
M  V30 END CTAB
M  END
>  <NO.>
5739

>  <Name>
temocapril

>  <SMILES>
CCOC(=O)C(CCc1ccccc1)NC1CSC(c2cccs2)CN(CC(=O)O)C1=O

>  <logBB>


>  <Class>
-1

>  <MW>
476.14

>  <nHBAcc>
7

>  <nHBDon>
2

>  <SLogP>
2.97

>  <TopoPSA>
95.94

>  <MMFF94 Energy>
140.61

$$$$
CCOC(=O)CC(SP(=S)(OC)OC)C(=O)OCC
Actelion Java MolfileCreator 2.0

  0  0  0  0  0  0              0 V3000
M  V30 BEGIN CTAB
M  V30 COUNTS 38 37 0 0 0
M  V30 BEGIN ATOM
M  V30 1 S -1.3089 -3.6027 1.2271 0
M  V30 2 P 0.385 -2.6374 1.3102 0
M  V30 3 S 1.2292 -1.8392 -0.4549 0
M  V30 4 O 0.3948 -1.4162 2.3897 0
M  V30 5 O 1.5722 -3.5345 1.9775 0
M  V30 6 C 1.2383 -0.0335 -0.1621 0 CFG=2
M  V30 7 C -0.0029 -1.6739 3.723 0
M  V30 8 C 1.9199 -4.7672 1.3756 0
M  V30 9 C -0.1478 0.4808 0.2071 0
M  V30 10 C 1.8398 0.7291 -1.3383 0
M  V30 11 O -1.1871 -0.1605 0.1452 0
M  V30 12 O -0.0594 1.773 0.6389 0
M  V30 13 C 1.0484 0.6033 -2.6151 0
M  V30 14 C -1.3186 2.3572 0.9955 0
M  V30 15 O 1.4361 0.0011 -3.6059 0
M  V30 16 O -0.127 1.2782 -2.5155 0
M  V30 17 C -1.0711 3.7936 1.4123 0
M  V30 18 C -0.9733 1.1691 -3.6665 0
M  V30 19 C -2.273 1.8877 -3.3618 0
M  V30 20 H 1.8773 0.1177 0.7157 0
M  V30 21 H -1.0937 -1.6814 3.7904 0
M  V30 22 H 0.3778 -0.87 4.3583 0
M  V30 23 H 0.4014 -2.6232 4.0832 0
M  V30 24 H 1.8573 -4.7143 0.286 0
M  V30 25 H 2.9477 -5.0117 1.6552 0
M  V30 26 H 1.2607 -5.5561 1.7464 0
M  V30 27 H 1.9301 1.7988 -1.1109 0
M  V30 28 H 2.8617 0.3824 -1.5373 0
M  V30 29 H -1.7602 1.7999 1.8291 0
M  V30 30 H -1.9955 2.3343 0.1342 0
M  V30 31 H -2.0063 4.2844 1.6957 0
M  V30 32 H -0.3787 3.8353 2.2596 0
M  V30 33 H -0.609 4.3575 0.5953 0
M  V30 34 H -1.1759 0.114 -3.8818 0
M  V30 35 H -0.4826 1.6356 -4.5276 0
M  V30 36 H -2.9565 1.837 -4.2138 0
M  V30 37 H -2.7625 1.444 -2.4884 0
M  V30 38 H -2.085 2.9392 -3.1204 0
M  V30 END ATOM
M  V30 BEGIN BOND
M  V30 1 2 1 2
M  V30 2 1 2 3
M  V30 3 1 2 4
M  V30 4 1 2 5
M  V30 5 1 3 6
M  V30 6 1 4 7
M  V30 7 1 5 8
M  V30 8 1 6 9
M  V30 9 1 6 10
M  V30 10 2 9 11
M  V30 11 1 9 12
M  V30 12 1 10 13
M  V30 13 1 12 14
M  V30 14 2 13 15
M  V30 15 1 13 16
M  V30 16 1 14 17
M  V30 17 1 16 18
M  V30 18 1 18 19
M  V30 19 1 6 20
M  V30 20 1 7 21
M  V30 21 1 7 22
M  V30 22 1 7 23
M  V30 23 1 8 24
M  V30 24 1 8 25
M  V30 25 1 8 26
M  V30 26 1 10 27
M  V30 27 1 10 28
M  V30 28 1 14 29
M  V30 29 1 14 30
M  V30 30 1 17 31
M  V30 31 1 17 32
M  V30 32 1 17 33
M  V30 33 1 18 34
M  V30 34 1 18 35
M  V30 35 1 19 36
M  V30 36 1 19 37
M  V30 37 1 19 38
M  V30 END BOND
M  V30 BEGIN COLLECTION
M  V30 MDLV30/STERAC1 ATOMS=(1 6)
M  V30 END COLLECTION
M  V30 END CTAB
M  END
>  <NO.>
5740

>  <Name>
malathion

>  <SMILES>
CCOC(=O)CC(SP(=S)(OC)OC)C(=O)OCC

>  <logBB>


>  <Class>
-1

>  <MW>
330.04

>  <nHBAcc>
8

>  <nHBDon>
0

>  <SLogP>
2.12

>  <TopoPSA>
71.06

>  <MMFF94 Energy>
-104.8

$$$$
CCOC(=O)CNC(C(=O)N1CCC1C(=O)NCc1ccc(/C(N)=N\O)cc1)C1CCCCC1
Actelion Java MolfileCreator 2.0

  0  0  0  0  0  0              0 V3000
M  V30 BEGIN CTAB
M  V30 COUNTS 69 71 0 0 0
M  V30 BEGIN ATOM
M  V30 1 O 4.5161 0.3164 -1.1869 0
M  V30 2 C 3.4699 0.9237 -0.9525 0
M  V30 3 N 2.3743 0.8186 -1.7822 0
M  V30 4 C 3.2558 1.8691 0.2825 0
M  V30 5 C 2.3813 0.0216 -2.9863 0
M  V30 6 N 1.9355 2.4788 0.4334 0
M  V30 7 C 3.7789 3.3153 0.1453 0
M  V30 8 C 0.9699 -0.3401 -3.3664 0
M  V30 9 C 0.7319 2.0693 0.9276 0
M  V30 10 C 2.333 3.7748 -0.0784 0
M  V30 11 C 0.1106 0.6328 -3.9032 0
M  V30 12 C 0.4763 -1.6298 -3.1182 0
M  V30 13 O -0.2627 2.7947 0.8711 0
M  V30 14 C 0.682 0.6583 1.5594 0
M  V30 15 C -1.225 0.3282 -4.1642 0
M  V30 16 C -0.8573 -1.9401 -3.3889 0
M  V30 17 N -0.6883 0.1077 1.4999 0
M  V30 18 C 1.202 0.7153 3.0229 0
M  V30 19 C -1.7078 -0.9525 -3.8908 0
M  V30 20 C -1.0441 -0.3914 0.1582 0
M  V30 21 C 0.3002 1.53 3.9728 0
M  V30 22 C 1.4221 -0.7017 3.5869 0
M  V30 23 C -3.1365 -1.2789 -4.1421 0
M  V30 24 C -2.4975 -0.8647 0.1558 0
M  V30 25 C 0.8641 1.5627 5.3929 0
M  V30 26 C 1.9802 -0.6649 5.0082 0
M  V30 27 N -4.1417 -0.6687 -3.5746 0
M  V30 28 N -3.4072 -2.2875 -5.0199 0
M  V30 29 O -3.4362 -0.2293 0.625 0
M  V30 30 O -2.5992 -2.088 -0.44 0
M  V30 31 C 1.0963 0.158 5.9389 0
M  V30 32 O -3.7277 0.3031 -2.6552 0
M  V30 33 C -3.9311 -2.6126 -0.4671 0
M  V30 34 C -3.902 -3.9485 -1.1833 0
M  V30 35 H 1.5557 1.3798 -1.579 0
M  V30 36 H 3.6 1.3929 1.2077 0
M  V30 37 H 2.8509 0.6111 -3.7818 0
M  V30 38 H 2.9954 -0.8734 -2.8377 0
M  V30 39 H 4.4556 3.5025 -0.6936 0
M  V30 40 H 4.2374 3.7082 1.0604 0
M  V30 41 H 2.0143 4.6201 0.5357 0
M  V30 42 H 2.0407 3.9249 -1.1214 0
M  V30 43 H 0.4718 1.6402 -4.1002 0
M  V30 44 H 1.1226 -2.394 -2.6902 0
M  V30 45 H 1.3513 0.0011 0.9908 0
M  V30 46 H -1.8945 1.0886 -4.5591 0
M  V30 47 H -1.2395 -2.9333 -3.1691 0
M  V30 48 H -1.3489 0.8614 1.7314 0
M  V30 49 H 2.1798 1.2154 3.0128 0
M  V30 50 H -0.3927 -1.2343 -0.0951 0
M  V30 51 H -0.9451 0.3812 -0.6105 0
M  V30 52 H 0.1988 2.5596 3.6121 0
M  V30 53 H -0.7085 1.1012 4.007 0
M  V30 54 H 0.4785 -1.2612 3.5901 0
M  V30 55 H 2.1183 -1.2539 2.9444 0
M  V30 56 H 1.8099 2.1184 5.3973 0
M  V30 57 H 0.1737 2.1033 6.0502 0
M  V30 58 H 2.9909 -0.2387 4.9922 0
M  V30 59 H 2.071 -1.6864 5.3943 0
M  V30 60 H -4.3765 -2.5005 -5.2138 0
M  V30 61 H -2.6852 -2.7588 -5.5455 0
M  V30 62 H 0.1313 -0.3475 6.0679 0
M  V30 63 H 1.5598 0.2192 6.9299 0
M  V30 64 H -4.5644 0.5607 -2.2241 0
M  V30 65 H -4.598 -1.9234 -0.9955 0
M  V30 66 H -4.2896 -2.7537 0.5587 0
M  V30 67 H -4.9003 -4.3935 -1.2188 0
M  V30 68 H -3.5322 -3.8311 -2.2065 0
M  V30 69 H -3.2229 -4.6424 -0.6773 0
M  V30 END ATOM
M  V30 BEGIN BOND
M  V30 1 2 1 2
M  V30 2 1 2 3
M  V30 3 1 2 4
M  V30 4 1 3 5
M  V30 5 1 4 6
M  V30 6 1 4 7
M  V30 7 1 5 8
M  V30 8 1 6 9
M  V30 9 1 6 10
M  V30 10 2 8 11
M  V30 11 1 8 12
M  V30 12 2 9 13
M  V30 13 1 9 14
M  V30 14 1 11 15
M  V30 15 2 12 16
M  V30 16 1 14 17
M  V30 17 1 14 18
M  V30 18 2 15 19
M  V30 19 1 17 20
M  V30 20 1 18 21
M  V30 21 1 18 22
M  V30 22 1 19 23
M  V30 23 1 20 24
M  V30 24 1 21 25
M  V30 25 1 22 26
M  V30 26 2 23 27
M  V30 27 1 23 28
M  V30 28 2 24 29
M  V30 29 1 24 30
M  V30 30 1 25 31
M  V30 31 1 27 32
M  V30 32 1 30 33
M  V30 33 1 33 34
M  V30 34 1 7 10
M  V30 35 1 16 19
M  V30 36 1 26 31
M  V30 37 1 3 35
M  V30 38 1 4 36
M  V30 39 1 5 37
M  V30 40 1 5 38
M  V30 41 1 7 39
M  V30 42 1 7 40
M  V30 43 1 10 41
M  V30 44 1 10 42
M  V30 45 1 11 43
M  V30 46 1 12 44
M  V30 47 1 14 45
M  V30 48 1 15 46
M  V30 49 1 16 47
M  V30 50 1 17 48
M  V30 51 1 18 49
M  V30 52 1 20 50
M  V30 53 1 20 51
M  V30 54 1 21 52
M  V30 55 1 21 53
M  V30 56 1 22 54
M  V30 57 1 22 55
M  V30 58 1 25 56
M  V30 59 1 25 57
M  V30 60 1 26 58
M  V30 61 1 26 59
M  V30 62 1 28 60
M  V30 63 1 28 61
M  V30 64 1 31 62
M  V30 65 1 31 63
M  V30 66 1 32 64
M  V30 67 1 33 65
M  V30 68 1 33 66
M  V30 69 1 34 67
M  V30 70 1 34 68
M  V30 71 1 34 69
M  V30 END BOND
M  V30 END CTAB
M  END
>  <NO.>
5742

>  <Name>
ximelagatran

>  <SMILES>
CCOC(=O)CNC(C(=O)N1CCC1C(=O)NCc1ccc(/C(N)=N\O)cc1)C1CCCCC1

>  <logBB>


>  <Class>
-1

>  <MW>
473.26

>  <nHBAcc>
7

>  <nHBDon>
4

>  <SLogP>
1.1

>  <TopoPSA>
146.35

>  <MMFF94 Energy>
79.987

$$$$
CCOC(=O)NNc1ccc(N(CC)CC(C)O)nn1
Actelion Java MolfileCreator 2.0

  0  0  0  0  0  0              0 V3000
M  V30 BEGIN CTAB
M  V30 COUNTS 41 41 0 0 0
M  V30 BEGIN ATOM
M  V30 1 O 3.891 -2.5667 -2.0218 0
M  V30 2 C 2.8799 -2.4148 -2.6941 0
M  V30 3 O 2.385 -3.3186 -3.5785 0
M  V30 4 N 2.0801 -1.3009 -2.6874 0
M  V30 5 C 3.1512 -4.5257 -3.6682 0
M  V30 6 N 2.4083 -0.2282 -1.8781 0
M  V30 7 C 2.4821 -5.4366 -4.6791 0
M  V30 8 C 1.5196 0.2144 -0.9001 0
M  V30 9 N 2.0016 1.0087 0.0675 0
M  V30 10 C 0.171 -0.089 -0.894 0
M  V30 11 N 1.1686 1.5091 1.0682 0
M  V30 12 C -0.6579 0.4167 0.117 0
M  V30 13 C -0.151 1.2317 1.1181 0
M  V30 14 N -0.9208 1.7521 2.1439 0
M  V30 15 C -2.3617 1.5157 2.2942 0
M  V30 16 C -0.2577 2.5947 3.1415 0
M  V30 17 C -3.1933 2.5439 1.4955 0 CFG=1
M  V30 18 C 0.3599 1.748 4.2452 0
M  V30 19 O -3.3049 2.1442 0.1262 0
M  V30 20 C -4.6053 2.6606 2.0553 0
M  V30 21 H 1.3107 -1.2147 -3.3383 0
M  V30 22 H 3.1817 -5.019 -2.6901 0
M  V30 23 H 4.1702 -4.2938 -3.9977 0
M  V30 24 H 3.3901 -0.0337 -1.6882 0
M  V30 25 H 3.0331 -6.3754 -4.783 0
M  V30 26 H 1.4544 -5.6613 -4.3747 0
M  V30 27 H 2.4249 -4.9496 -5.6583 0
M  V30 28 H -0.2681 -0.716 -1.6599 0
M  V30 29 H -1.7091 0.1566 0.0813 0
M  V30 30 H -2.6273 0.4891 2.0176 0
M  V30 31 H -2.6108 1.6068 3.3595 0
M  V30 32 H -0.9908 3.2745 3.5943 0
M  V30 33 H 0.4977 3.2482 2.6885 0
M  V30 34 H -2.7073 3.5264 1.5229 0
M  V30 35 H 1.1344 1.0804 3.8548 0
M  V30 36 H -0.3978 1.1287 4.7365 0
M  V30 37 H 0.8178 2.3909 5.0035 0
M  V30 38 H -3.568 2.933 -0.3789 0
M  V30 39 H -5.1946 3.3702 1.4642 0
M  V30 40 H -5.1269 1.6985 2.0039 0
M  V30 41 H -4.5952 3.0002 3.0955 0
M  V30 END ATOM
M  V30 BEGIN BOND
M  V30 1 2 1 2
M  V30 2 1 2 3
M  V30 3 1 2 4
M  V30 4 1 3 5
M  V30 5 1 4 6
M  V30 6 1 5 7
M  V30 7 1 6 8
M  V30 8 2 8 9
M  V30 9 1 8 10
M  V30 10 1 9 11
M  V30 11 2 10 12
M  V30 12 2 11 13
M  V30 13 1 13 14
M  V30 14 1 14 15
M  V30 15 1 14 16
M  V30 16 1 15 17
M  V30 17 1 16 18
M  V30 18 1 17 19
M  V30 19 1 17 20
M  V30 20 1 12 13
M  V30 21 1 4 21
M  V30 22 1 5 22
M  V30 23 1 5 23
M  V30 24 1 6 24
M  V30 25 1 7 25
M  V30 26 1 7 26
M  V30 27 1 7 27
M  V30 28 1 10 28
M  V30 29 1 12 29
M  V30 30 1 15 30
M  V30 31 1 15 31
M  V30 32 1 16 32
M  V30 33 1 16 33
M  V30 34 1 17 34
M  V30 35 1 18 35
M  V30 36 1 18 36
M  V30 37 1 18 37
M  V30 38 1 19 38
M  V30 39 1 20 39
M  V30 40 1 20 40
M  V30 41 1 20 41
M  V30 END BOND
M  V30 BEGIN COLLECTION
M  V30 MDLV30/STERAC1 ATOMS=(1 17)
M  V30 END COLLECTION
M  V30 END CTAB
M  END
>  <NO.>
5743

>  <Name>
cadralazine

>  <SMILES>
CCOC(=O)NNc1ccc(N(CC)CC(C)O)nn1

>  <logBB>


>  <Class>
-1

>  <MW>
283.16

>  <nHBAcc>
7

>  <nHBDon>
3

>  <SLogP>
0.76

>  <TopoPSA>
99.61

>  <MMFF94 Energy>
34.045

$$$$
CCOC(=O)Oc1ccc(CCNC(=O)C(CCSC)NC(C)=O)cc1OC(=O)OCC
Actelion Java MolfileCreator 2.0

  0  0  0  0  0  0              0 V3000
M  V30 BEGIN CTAB
M  V30 COUNTS 62 62 0 0 0
M  V30 BEGIN ATOM
M  V30 1 S 4.284 -5.7947 -4.0456 0
M  V30 2 C 4.5407 -5.0987 -2.3764 0
M  V30 3 C 3.4185 -7.3219 -3.6043 0
M  V30 4 C 3.2448 -4.5305 -1.8025 0
M  V30 5 C 3.4711 -3.7566 -0.4968 0 CFG=2
M  V30 6 N 3.7934 -4.634 0.6221 0
M  V30 7 C 2.1762 -3.0113 -0.1215 0
M  V30 8 C 5.0799 -4.9223 0.9936 0
M  V30 9 O 1.3708 -3.468 0.6896 0
M  V30 10 N 1.9822 -1.8214 -0.7892 0
M  V30 11 O 6.063 -4.4991 0.3954 0
M  V30 12 C 5.1877 -5.7858 2.2198 0
M  V30 13 C 0.7946 -1.0138 -0.5808 0
M  V30 14 C 0.8766 -0.186 0.7039 0
M  V30 15 C -0.3476 0.6759 0.8901 0
M  V30 16 C -0.3581 2.0036 0.4387 0
M  V30 17 C -1.5018 0.1411 1.4894 0
M  V30 18 C -1.5119 2.7714 0.5875 0
M  V30 19 C -2.6484 0.9221 1.654 0
M  V30 20 O -1.5034 4.0942 0.1478 0
M  V30 21 C -2.6383 2.2445 1.2208 0
M  V30 22 C -2.0603 4.235 -1.1109 0
M  V30 23 O -3.7955 3.0083 1.3649 0
M  V30 24 O -2.452 3.3396 -1.846 0
M  V30 25 O -2.0965 5.5636 -1.3998 0
M  V30 26 C -3.7436 3.8517 2.4606 0
M  V30 27 C -2.6644 5.9076 -2.6698 0
M  V30 28 O -2.8489 3.9291 3.2909 0
M  V30 29 O -4.8823 4.5962 2.4644 0
M  V30 30 C -4.1721 6.0335 -2.5524 0
M  V30 31 C -4.9656 5.5277 3.5471 0
M  V30 32 C -6.2693 6.2911 3.416 0
M  V30 33 H 5.2866 -4.303 -2.473 0
M  V30 34 H 4.964 -5.8752 -1.7329 0
M  V30 35 H 3.2722 -7.9213 -4.5069 0
M  V30 36 H 2.4371 -7.1021 -3.1777 0
M  V30 37 H 4.0093 -7.906 -2.8942 0
M  V30 38 H 2.7883 -3.8572 -2.54 0
M  V30 39 H 2.5215 -5.3363 -1.6249 0
M  V30 40 H 4.2732 -3.0187 -0.618 0
M  V30 41 H 3.0128 -4.9351 1.2002 0
M  V30 42 H 2.6805 -1.492 -1.4446 0
M  V30 43 H 5.2658 -5.146 3.1028 0
M  V30 44 H 6.0795 -6.4138 2.1433 0
M  V30 45 H 4.3143 -6.436 2.3221 0
M  V30 46 H -0.078 -1.6772 -0.5595 0
M  V30 47 H 0.6945 -0.3614 -1.4555 0
M  V30 48 H 0.9965 -0.8389 1.5777 0
M  V30 49 H 1.7747 0.4448 0.6858 0
M  V30 50 H 0.5202 2.4367 -0.0315 0
M  V30 51 H -1.51 -0.8921 1.8334 0
M  V30 52 H -3.5341 0.4998 2.1189 0
M  V30 53 H -2.3807 5.1855 -3.4439 0
M  V30 54 H -2.2372 6.873 -2.9604 0
M  V30 55 H -4.6095 6.3543 -3.502 0
M  V30 56 H -4.6251 5.08 -2.2633 0
M  V30 57 H -4.438 6.76 -1.7774 0
M  V30 58 H -4.123 6.2268 3.5013 0
M  V30 59 H -4.9476 4.9893 4.5014 0
M  V30 60 H -6.3787 7.0186 4.2252 0
M  V30 61 H -6.3121 6.819 2.4576 0
M  V30 62 H -7.1221 5.6047 3.4398 0
M  V30 END ATOM
M  V30 BEGIN BOND
M  V30 1 1 1 2
M  V30 2 1 1 3
M  V30 3 1 2 4
M  V30 4 1 4 5
M  V30 5 1 5 6
M  V30 6 1 5 7
M  V30 7 1 6 8
M  V30 8 2 7 9
M  V30 9 1 7 10
M  V30 10 2 8 11
M  V30 11 1 8 12
M  V30 12 1 10 13
M  V30 13 1 13 14
M  V30 14 1 14 15
M  V30 15 2 15 16
M  V30 16 1 15 17
M  V30 17 1 16 18
M  V30 18 2 17 19
M  V30 19 1 18 20
M  V30 20 2 18 21
M  V30 21 1 20 22
M  V30 22 1 21 23
M  V30 23 2 22 24
M  V30 24 1 22 25
M  V30 25 1 23 26
M  V30 26 1 25 27
M  V30 27 2 26 28
M  V30 28 1 26 29
M  V30 29 1 27 30
M  V30 30 1 29 31
M  V30 31 1 31 32
M  V30 32 1 19 21
M  V30 33 1 2 33
M  V30 34 1 2 34
M  V30 35 1 3 35
M  V30 36 1 3 36
M  V30 37 1 3 37
M  V30 38 1 4 38
M  V30 39 1 4 39
M  V30 40 1 5 40
M  V30 41 1 6 41
M  V30 42 1 10 42
M  V30 43 1 12 43
M  V30 44 1 12 44
M  V30 45 1 12 45
M  V30 46 1 13 46
M  V30 47 1 13 47
M  V30 48 1 14 48
M  V30 49 1 14 49
M  V30 50 1 16 50
M  V30 51 1 17 51
M  V30 52 1 19 52
M  V30 53 1 27 53
M  V30 54 1 27 54
M  V30 55 1 30 55
M  V30 56 1 30 56
M  V30 57 1 30 57
M  V30 58 1 31 58
M  V30 59 1 31 59
M  V30 60 1 32 60
M  V30 61 1 32 61
M  V30 62 1 32 62
M  V30 END BOND
M  V30 BEGIN COLLECTION
M  V30 MDLV30/STERAC1 ATOMS=(1 5)
M  V30 END COLLECTION
M  V30 END CTAB
M  END
>  <NO.>
5744

>  <Name>
schembl8923875

>  <SMILES>
CCOC(=O)Oc1ccc(CCNC(=O)C(CCSC)NC(C)=O)cc1OC(=O)OCC

>  <logBB>


>  <Class>
-1

>  <MW>
470.17

>  <nHBAcc>
9

>  <nHBDon>
2

>  <SLogP>
2.67

>  <TopoPSA>
129.26

>  <MMFF94 Energy>
-1.1644

$$$$
CCOCC(O)COc1ccc(NC(=O)CC[S+](C)C)cc1
Actelion Java MolfileCreator 2.0

  0  0  0  0  0  0              0 V3000
M  V30 BEGIN CTAB
M  V30 COUNTS 48 48 0 0 0
M  V30 BEGIN ATOM
M  V30 1 S 5.792 -3.7261 -3.8055 0 CHG=1
M  V30 2 C 4.1569 -2.9188 -3.6916 0
M  V30 3 C 5.2414 -5.4067 -3.4168 0
M  V30 4 C 5.7759 -3.9339 -5.605 0
M  V30 5 C 3.8292 -2.5723 -2.2469 0
M  V30 6 C 2.4832 -1.8792 -2.1276 0
M  V30 7 O 1.7417 -1.7259 -3.0911 0
M  V30 8 N 2.2366 -1.4749 -0.8247 0
M  V30 9 C 1.0836 -0.8289 -0.3355 0
M  V30 10 C 1.1425 -0.3031 0.9607 0
M  V30 11 C -0.1049 -0.7103 -1.053 0
M  V30 12 C 0.0357 0.3437 1.5267 0
M  V30 13 C -1.2104 -0.0661 -0.4854 0
M  V30 14 C -1.1471 0.4676 0.8021 0
M  V30 15 O -2.2966 1.0701 1.2293 0
M  V30 16 C -2.2632 1.7149 2.5077 0
M  V30 17 C -3.6324 2.3534 2.7687 0 CFG=1
M  V30 18 O -4.5835 1.3353 3.1211 0
M  V30 19 C -3.5613 3.3627 3.9209 0
M  V30 20 O -4.8626 3.9014 4.1946 0
M  V30 21 C -5.1964 5.009 3.3592 0
M  V30 22 C -6.583 5.49 3.7392 0
M  V30 23 H 4.2088 -2.0018 -4.2895 0
M  V30 24 H 3.3905 -3.5628 -4.1351 0
M  V30 25 H 4.3552 -5.6813 -3.9938 0
M  V30 26 H 5.016 -5.4693 -2.3497 0
M  V30 27 H 6.0529 -6.1017 -3.647 0
M  V30 28 H 4.8315 -4.3647 -5.9464 0
M  V30 29 H 5.9199 -2.9565 -6.0722 0
M  V30 30 H 6.6013 -4.5906 -5.8903 0
M  V30 31 H 4.6001 -1.9113 -1.8317 0
M  V30 32 H 3.7987 -3.4761 -1.6273 0
M  V30 33 H 2.9781 -1.6286 -0.1527 0
M  V30 34 H 2.0511 -0.3838 1.5516 0
M  V30 35 H -0.2126 -1.1158 -2.054 0
M  V30 36 H 0.1325 0.7313 2.5349 0
M  V30 37 H -2.1317 0.0156 -1.0576 0
M  V30 38 H -1.4917 2.4939 2.4938 0
M  V30 39 H -2.049 0.9734 3.2868 0
M  V30 40 H -4.0115 2.8242 1.856 0
M  V30 41 H -5.3489 1.81 3.5008 0
M  V30 42 H -3.2496 2.8486 4.8369 0
M  V30 43 H -2.843 4.1663 3.7227 0
M  V30 44 H -5.1868 4.7084 2.3072 0
M  V30 45 H -4.4705 5.8153 3.5095 0
M  V30 46 H -6.8816 6.3445 3.1255 0
M  V30 47 H -7.3176 4.6882 3.6105 0
M  V30 48 H -6.6139 5.7842 4.7936 0
M  V30 END ATOM
M  V30 BEGIN BOND
M  V30 1 1 1 2
M  V30 2 1 1 3
M  V30 3 1 1 4
M  V30 4 1 2 5
M  V30 5 1 5 6
M  V30 6 2 6 7
M  V30 7 1 6 8
M  V30 8 1 8 9
M  V30 9 2 9 10
M  V30 10 1 9 11
M  V30 11 1 10 12
M  V30 12 2 11 13
M  V30 13 2 12 14
M  V30 14 1 14 15
M  V30 15 1 15 16
M  V30 16 1 16 17
M  V30 17 1 17 18
M  V30 18 1 17 19
M  V30 19 1 19 20
M  V30 20 1 20 21
M  V30 21 1 21 22
M  V30 22 1 13 14
M  V30 23 1 2 23
M  V30 24 1 2 24
M  V30 25 1 3 25
M  V30 26 1 3 26
M  V30 27 1 3 27
M  V30 28 1 4 28
M  V30 29 1 4 29
M  V30 30 1 4 30
M  V30 31 1 5 31
M  V30 32 1 5 32
M  V30 33 1 8 33
M  V30 34 1 10 34
M  V30 35 1 11 35
M  V30 36 1 12 36
M  V30 37 1 13 37
M  V30 38 1 16 38
M  V30 39 1 16 39
M  V30 40 1 17 40
M  V30 41 1 18 41
M  V30 42 1 19 42
M  V30 43 1 19 43
M  V30 44 1 21 44
M  V30 45 1 21 45
M  V30 46 1 22 46
M  V30 47 1 22 47
M  V30 48 1 22 48
M  V30 END BOND
M  V30 BEGIN COLLECTION
M  V30 MDLV30/STERAC1 ATOMS=(1 17)
M  V30 END COLLECTION
M  V30 END CTAB
M  END
>  <NO.>
5745

>  <Name>
suplatast

>  <SMILES>
CCOCC(O)COc1ccc(NC(=O)CC[S+](C)C)cc1

>  <logBB>


>  <Class>
-1

>  <MW>
328.16

>  <nHBAcc>
4

>  <nHBDon>
2

>  <SLogP>
1.67

>  <TopoPSA>
67.79

>  <MMFF94 Energy>
44.969

$$$$
CCOCCn1c(C2CCN(CCc3ccc(C(C)(C)C(=O)O)cc3)CC2)nc2ccccc21
Actelion Java MolfileCreator 2.0

  0  0  0  0  0  0              0 V3000
M  V30 BEGIN CTAB
M  V30 COUNTS 71 74 0 0 0
M  V30 BEGIN ATOM
M  V30 1 O 6.5132 1.4269 6.6724 0
M  V30 2 C 5.3427 1.7593 6.5574 0
M  V30 3 O 4.3738 0.9517 7.0397 0
M  V30 4 C 4.809 3.0224 5.8674 0
M  V30 5 C 4.1619 2.6635 4.5192 0
M  V30 6 C 5.9889 3.9862 5.6112 0
M  V30 7 C 3.8645 3.7261 6.8669 0
M  V30 8 C 4.8858 1.9079 3.5763 0
M  V30 9 C 2.8647 3.0678 4.1672 0
M  V30 10 C 4.3345 1.5673 2.3378 0
M  V30 11 C 2.3118 2.7272 2.9275 0
M  V30 12 C 3.0428 1.9781 2.0008 0
M  V30 13 C 2.4352 1.5943 0.6719 0
M  V30 14 C 1.6064 0.3028 0.7798 0
M  V30 15 N 1.1076 -0.1847 -0.5248 0
M  V30 16 C 0.0493 0.6885 -1.0584 0
M  V30 17 C 0.5814 -1.5535 -0.3609 0
M  V30 18 C -0.405 0.2109 -2.4393 0
M  V30 19 C 0.113 -2.1384 -1.6947 0
M  V30 20 C -0.8888 -1.2419 -2.4327 0
M  V30 21 C -2.2837 -1.351 -1.8657 0
M  V30 22 N -2.5806 -1.5204 -0.5916 0
M  V30 23 N -3.439 -1.277 -2.6202 0
M  V30 24 C -3.9474 -1.5578 -0.5161 0
M  V30 25 C -4.5182 -1.4081 -1.7744 0
M  V30 26 C -3.5292 -1.0999 -4.0546 0
M  V30 27 C -4.7742 -1.7199 0.6049 0
M  V30 28 C -5.9043 -1.4141 -1.9787 0
M  V30 29 C -3.5802 -2.4294 -4.7963 0
M  V30 30 C -6.1622 -1.7276 0.4238 0
M  V30 31 C -6.715 -1.577 -0.8489 0
M  V30 32 O -3.631 -2.1662 -6.1995 0
M  V30 33 C -3.6811 -3.3719 -6.9607 0
M  V30 34 C -3.7326 -3.0079 -8.431 0
M  V30 35 H 4.8618 0.1791 7.3924 0
M  V30 36 H 6.7622 3.5355 4.9784 0
M  V30 37 H 5.6517 4.9036 5.1142 0
M  V30 38 H 6.4768 4.2727 6.5507 0
M  V30 39 H 4.3623 3.887 7.8311 0
M  V30 40 H 3.5423 4.7065 6.4972 0
M  V30 41 H 2.9648 3.1329 7.0689 0
M  V30 42 H 5.898 1.5707 3.7963 0
M  V30 43 H 2.2503 3.6546 4.8446 0
M  V30 44 H 4.9234 0.9774 1.6387 0
M  V30 45 H 1.3007 3.0533 2.6918 0
M  V30 46 H 3.2341 1.4676 -0.07 0
M  V30 47 H 1.8222 2.4314 0.3186 0
M  V30 48 H 2.257 -0.4674 1.2162 0
M  V30 49 H 0.7759 0.4414 1.4854 0
M  V30 50 H 0.4252 1.7092 -1.1844 0
M  V30 51 H -0.8048 0.7443 -0.3716 0
M  V30 52 H -0.2262 -1.5777 0.3801 0
M  V30 53 H 1.3766 -2.2063 0.0208 0
M  V30 54 H 0.4413 0.2964 -3.1343 0
M  V30 55 H -1.1853 0.8827 -2.8178 0
M  V30 56 H 0.9938 -2.2743 -2.3371 0
M  V30 57 H -0.3073 -3.1383 -1.5303 0
M  V30 58 H -0.919 -1.5974 -3.47 0
M  V30 59 H -2.683 -0.493 -4.3934 0
M  V30 60 H -4.421 -0.5015 -4.2755 0
M  V30 61 H -4.3354 -1.8365 1.5895 0
M  V30 62 H -6.3428 -1.2966 -2.9637 0
M  V30 63 H -2.6914 -3.0301 -4.57 0
M  V30 64 H -4.4683 -2.9997 -4.4989 0
M  V30 65 H -6.8134 -1.852 1.2856 0
M  V30 66 H -7.7969 -1.5854 -0.9654 0
M  V30 67 H -4.5739 -3.9448 -6.687 0
M  V30 68 H -2.7896 -3.9749 -6.7569 0
M  V30 69 H -3.7721 -3.9056 -9.0541 0
M  V30 70 H -4.6111 -2.39 -8.6447 0
M  V30 71 H -2.8532 -2.4196 -8.7134 0
M  V30 END ATOM
M  V30 BEGIN BOND
M  V30 1 2 1 2
M  V30 2 1 2 3
M  V30 3 1 2 4
M  V30 4 1 4 5
M  V30 5 1 4 6
M  V30 6 1 4 7
M  V30 7 2 5 8
M  V30 8 1 5 9
M  V30 9 1 8 10
M  V30 10 2 9 11
M  V30 11 2 10 12
M  V30 12 1 12 13
M  V30 13 1 13 14
M  V30 14 1 14 15
M  V30 15 1 15 16
M  V30 16 1 15 17
M  V30 17 1 16 18
M  V30 18 1 17 19
M  V30 19 1 18 20
M  V30 20 1 20 21
M  V30 21 2 21 22
M  V30 22 1 21 23
M  V30 23 1 22 24
M  V30 24 1 23 25
M  V30 25 1 23 26
M  V30 26 1 24 27
M  V30 27 1 25 28
M  V30 28 1 26 29
M  V30 29 2 27 30
M  V30 30 2 28 31
M  V30 31 1 29 32
M  V30 32 1 32 33
M  V30 33 1 33 34
M  V30 34 1 11 12
M  V30 35 1 19 20
M  V30 36 2 24 25
M  V30 37 1 30 31
M  V30 38 1 3 35
M  V30 39 1 6 36
M  V30 40 1 6 37
M  V30 41 1 6 38
M  V30 42 1 7 39
M  V30 43 1 7 40
M  V30 44 1 7 41
M  V30 45 1 8 42
M  V30 46 1 9 43
M  V30 47 1 10 44
M  V30 48 1 11 45
M  V30 49 1 13 46
M  V30 50 1 13 47
M  V30 51 1 14 48
M  V30 52 1 14 49
M  V30 53 1 16 50
M  V30 54 1 16 51
M  V30 55 1 17 52
M  V30 56 1 17 53
M  V30 57 1 18 54
M  V30 58 1 18 55
M  V30 59 1 19 56
M  V30 60 1 19 57
M  V30 61 1 20 58
M  V30 62 1 26 59
M  V30 63 1 26 60
M  V30 64 1 27 61
M  V30 65 1 28 62
M  V30 66 1 29 63
M  V30 67 1 29 64
M  V30 68 1 30 65
M  V30 69 1 31 66
M  V30 70 1 33 67
M  V30 71 1 33 68
M  V30 72 1 34 69
M  V30 73 1 34 70
M  V30 74 1 34 71
M  V30 END BOND
M  V30 END CTAB
M  END
>  <NO.>
5746

>  <Name>
bilastine

>  <SMILES>
CCOCCn1c(C2CCN(CCc3ccc(C(C)(C)C(=O)O)cc3)CC2)nc2ccccc21

>  <logBB>


>  <Class>
-1

>  <MW>
463.28

>  <nHBAcc>
4

>  <nHBDon>
1

>  <SLogP>
4.86

>  <TopoPSA>
67.59

>  <MMFF94 Energy>
60.724

$$$$
CCOP(=O)(OCC)SCC[N+](C)(C)C
Actelion Java MolfileCreator 2.0

  0  0  0  0  0  0              0 V3000
M  V30 BEGIN CTAB
M  V30 COUNTS 38 37 0 0 0
M  V30 BEGIN ATOM
M  V30 1 S 0.7197 -1.2798 -0.3198 0
M  V30 2 P -0.4714 -0.41 1.158 0
M  V30 3 C 1.6442 0.1419 -0.9683 0
M  V30 4 O -1.2006 0.7498 0.5372 0
M  V30 5 O -1.4723 -1.4856 1.8178 0
M  V30 6 O 0.4549 0.0517 2.3952 0
M  V30 7 C 1.588 0.2974 -2.4959 0
M  V30 8 C -0.9336 -2.6491 2.4225 0
M  V30 9 C -0.1644 0.8243 3.4126 0
M  V30 10 N 0.3079 0.9216 -3.101 0 CHG=1
M  V30 11 C -2.0151 -3.3033 3.2574 0
M  V30 12 C 0.8269 1.0221 4.5401 0
M  V30 13 C -0.9077 0.0111 -2.9657 0
M  V30 14 C 0.5637 1.1264 -4.5999 0
M  V30 15 C -0.0119 2.2804 -2.4868 0
M  V30 16 H 1.3446 1.0592 -0.4561 0
M  V30 17 H 2.6887 -0.0327 -0.6866 0
M  V30 18 H 1.7492 -0.6624 -3.0018 0
M  V30 19 H 2.4047 0.9675 -2.7932 0
M  V30 20 H -0.0806 -2.3883 3.0562 0
M  V30 21 H -0.5973 -3.3368 1.6412 0
M  V30 22 H -1.0549 0.3063 3.7821 0
M  V30 23 H -0.4624 1.7924 2.9983 0
M  V30 24 H -2.8797 -3.5606 2.6366 0
M  V30 25 H -1.6418 -4.2124 3.7371 0
M  V30 26 H -2.3721 -2.6162 4.0318 0
M  V30 27 H 1.7285 1.5265 4.1772 0
M  V30 28 H 0.3887 1.6181 5.3455 0
M  V30 29 H 1.1444 0.0564 4.9474 0
M  V30 30 H -1.714 0.4178 -3.5845 0
M  V30 31 H -0.6338 -0.9887 -3.3132 0
M  V30 32 H -1.2343 -0.0028 -1.9275 0
M  V30 33 H 0.7766 0.1517 -5.0489 0
M  V30 34 H -0.3299 1.5684 -5.051 0
M  V30 35 H 1.4181 1.7999 -4.7164 0
M  V30 36 H -0.8451 2.7233 -3.0412 0
M  V30 37 H -0.2959 2.1454 -1.443 0
M  V30 38 H 0.8779 2.9113 -2.5663 0
M  V30 END ATOM
M  V30 BEGIN BOND
M  V30 1 1 1 2
M  V30 2 1 1 3
M  V30 3 2 2 4
M  V30 4 1 2 5
M  V30 5 1 2 6
M  V30 6 1 3 7
M  V30 7 1 5 8
M  V30 8 1 6 9
M  V30 9 1 7 10
M  V30 10 1 8 11
M  V30 11 1 9 12
M  V30 12 1 10 13
M  V30 13 1 10 14
M  V30 14 1 10 15
M  V30 15 1 3 16
M  V30 16 1 3 17
M  V30 17 1 7 18
M  V30 18 1 7 19
M  V30 19 1 8 20
M  V30 20 1 8 21
M  V30 21 1 9 22
M  V30 22 1 9 23
M  V30 23 1 11 24
M  V30 24 1 11 25
M  V30 25 1 11 26
M  V30 26 1 12 27
M  V30 27 1 12 28
M  V30 28 1 12 29
M  V30 29 1 13 30
M  V30 30 1 13 31
M  V30 31 1 13 32
M  V30 32 1 14 33
M  V30 33 1 14 34
M  V30 34 1 14 35
M  V30 35 1 15 36
M  V30 36 1 15 37
M  V30 37 1 15 38
M  V30 END BOND
M  V30 END CTAB
M  END
>  <NO.>
5747

>  <Name>
echothiophate

>  <SMILES>
CCOP(=O)(OCC)SCC[N+](C)(C)C

>  <logBB>


>  <Class>
-1

>  <MW>
256.11

>  <nHBAcc>
4

>  <nHBDon>
0

>  <SLogP>
2.61

>  <TopoPSA>
35.53

>  <MMFF94 Energy>
-56.509

$$$$
CCOc1ccc(CC2=NCCc3cc(OCC)c(OCC)cc32)cc1OCC
Actelion Java MolfileCreator 2.0

  0  0  0  0  0  0              0 V3000
M  V30 BEGIN CTAB
M  V30 COUNTS 60 62 0 0 0
M  V30 BEGIN ATOM
M  V30 1 O 1.5797 0.5526 2.7657 0
M  V30 2 C 1.2098 -0.6571 2.2297 0
M  V30 3 C 1.9496 1.4614 1.7213 0
M  V30 4 C 2.1631 -1.6334 1.9011 0
M  V30 5 C -0.1584 -0.894 2.0834 0
M  V30 6 C 2.2624 2.803 2.3579 0
M  V30 7 O 3.4729 -1.2978 2.1155 0
M  V30 8 C 1.7199 -2.852 1.3813 0
M  V30 9 C -0.5905 -2.1055 1.5504 0
M  V30 10 C 4.4567 -2.3079 1.9085 0
M  V30 11 C 0.3467 -3.0932 1.2139 0
M  V30 12 C -2.0283 -2.4114 1.2751 0
M  V30 13 C 5.8079 -1.7274 2.2854 0
M  V30 14 C -0.1557 -4.382 0.6257 0
M  V30 15 N -2.4736 -3.6143 1.0862 0
M  V30 16 C -3.0265 -1.2646 1.1563 0
M  V30 17 C -1.5152 -4.7176 1.2298 0
M  V30 18 C -2.7712 -0.3882 -0.0474 0
M  V30 19 C -2.5093 0.9777 0.1028 0
M  V30 20 C -2.7943 -0.9267 -1.3377 0
M  V30 21 C -2.2306 1.7834 -1.0077 0
M  V30 22 C -2.5524 -0.1182 -2.454 0
M  V30 23 O -1.9819 3.0979 -0.6984 0
M  V30 24 C -2.2772 1.2457 -2.3044 0
M  V30 25 C -0.851 3.6612 -1.3672 0
M  V30 26 O -2.0634 2.1045 -3.3491 0
M  V30 27 C -0.2495 4.7139 -0.4523 0
M  V30 28 C -2.2724 1.6132 -4.6707 0
M  V30 29 C -2.0711 2.7694 -5.6339 0
M  V30 30 H 1.1236 1.5827 1.0092 0
M  V30 31 H 2.8356 1.0999 1.1871 0
M  V30 32 H -0.8517 -0.1176 2.3851 0
M  V30 33 H 2.5519 3.5361 1.5998 0
M  V30 34 H 1.3919 3.1832 2.9028 0
M  V30 35 H 3.0761 2.7048 3.084 0
M  V30 36 H 2.419 -3.6312 1.0957 0
M  V30 37 H 4.4776 -2.6053 0.854 0
M  V30 38 H 4.2515 -3.1783 2.5424 0
M  V30 39 H 6.6027 -2.4647 2.1422 0
M  V30 40 H 6.0309 -0.8439 1.678 0
M  V30 41 H 5.8099 -1.4035 3.3316 0
M  V30 42 H -0.2375 -4.2641 -0.4613 0
M  V30 43 H 0.5428 -5.2012 0.8289 0
M  V30 44 H -3.0153 -0.6837 2.0854 0
M  V30 45 H -4.0406 -1.6765 1.0741 0
M  V30 46 H -1.4209 -4.9726 2.2928 0
M  V30 47 H -1.923 -5.6 0.7247 0
M  V30 48 H -2.502 1.4323 1.091 0
M  V30 49 H -3.0074 -1.9851 -1.4834 0
M  V30 50 H -2.591 -0.5907 -3.4297 0
M  V30 51 H -1.178 4.1436 -2.294 0
M  V30 52 H -0.0871 2.9055 -1.5884 0
M  V30 53 H 0.6197 5.1855 -0.9188 0
M  V30 54 H -0.9878 5.4876 -0.2165 0
M  V30 55 H 0.0578 4.2668 0.4987 0
M  V30 56 H -3.2933 1.2295 -4.7809 0
M  V30 57 H -1.545 0.8267 -4.9013 0
M  V30 58 H -2.2176 2.4455 -6.668 0
M  V30 59 H -2.7733 3.5806 -5.4142 0
M  V30 60 H -1.063 3.1847 -5.5323 0
M  V30 END ATOM
M  V30 BEGIN BOND
M  V30 1 1 1 2
M  V30 2 1 1 3
M  V30 3 2 2 4
M  V30 4 1 2 5
M  V30 5 1 3 6
M  V30 6 1 4 7
M  V30 7 1 4 8
M  V30 8 2 5 9
M  V30 9 1 7 10
M  V30 10 2 8 11
M  V30 11 1 9 12
M  V30 12 1 10 13
M  V30 13 1 11 14
M  V30 14 2 12 15
M  V30 15 1 12 16
M  V30 16 1 14 17
M  V30 17 1 16 18
M  V30 18 2 18 19
M  V30 19 1 18 20
M  V30 20 1 19 21
M  V30 21 2 20 22
M  V30 22 1 21 23
M  V30 23 2 21 24
M  V30 24 1 23 25
M  V30 25 1 24 26
M  V30 26 1 25 27
M  V30 27 1 26 28
M  V30 28 1 28 29
M  V30 29 1 9 11
M  V30 30 1 15 17
M  V30 31 1 22 24
M  V30 32 1 3 30
M  V30 33 1 3 31
M  V30 34 1 5 32
M  V30 35 1 6 33
M  V30 36 1 6 34
M  V30 37 1 6 35
M  V30 38 1 8 36
M  V30 39 1 10 37
M  V30 40 1 10 38
M  V30 41 1 13 39
M  V30 42 1 13 40
M  V30 43 1 13 41
M  V30 44 1 14 42
M  V30 45 1 14 43
M  V30 46 1 16 44
M  V30 47 1 16 45
M  V30 48 1 17 46
M  V30 49 1 17 47
M  V30 50 1 19 48
M  V30 51 1 20 49
M  V30 52 1 22 50
M  V30 53 1 25 51
M  V30 54 1 25 52
M  V30 55 1 27 53
M  V30 56 1 27 54
M  V30 57 1 27 55
M  V30 58 1 28 56
M  V30 59 1 28 57
M  V30 60 1 29 58
M  V30 61 1 29 59
M  V30 62 1 29 60
M  V30 END BOND
M  V30 END CTAB
M  END
>  <NO.>
5748

>  <Name>
1-(3,4-diethoxybenzyl)-6,7-diethoxy-3,4-dihydroisoquinoline

>  <SMILES>
CCOc1ccc(CC2=NCCc3cc(OCC)c(OCC)cc32)cc1OCC

>  <logBB>


>  <Class>
-1

>  <MW>
397.23

>  <nHBAcc>
5

>  <nHBDon>
0

>  <SLogP>
4.87

>  <TopoPSA>
49.28

>  <MMFF94 Energy>
117.98

$$$$
CCOc1ccc(Cc2cc(C3OC(CO)C(O)C(O)C3O)ccc2Cl)cc1
Actelion Java MolfileCreator 2.0

  0  0  0  0  0  0              0 V3000
M  V30 BEGIN CTAB
M  V30 COUNTS 53 55 0 0 0
M  V30 BEGIN ATOM
M  V30 1 Cl 3.4523 0.4811 -2.5683 0
M  V30 2 C 2.1211 1.0218 -1.6089 0
M  V30 3 C 0.8083 0.5878 -1.8405 0
M  V30 4 C 2.3952 1.9282 -0.5814 0
M  V30 5 C -0.2185 1.097 -1.0207 0
M  V30 6 C 0.4526 -0.4278 -2.905 0
M  V30 7 C 1.3664 2.4126 0.2288 0
M  V30 8 C 0.042 2.009 0.0166 0
M  V30 9 C 0.7127 -1.864 -2.506 0
M  V30 10 C -1.1043 2.4965 0.8943 0
M  V30 11 C 1.65 -2.6371 -3.2041 0
M  V30 12 C 0.0149 -2.4559 -1.4451 0
M  V30 13 O -0.7322 3.7695 1.452 0
M  V30 14 C -1.4334 1.4755 2.0101 0
M  V30 15 C 1.8921 -3.9691 -2.847 0
M  V30 16 C 0.2583 -3.7855 -1.0916 0
M  V30 17 C -1.7788 4.3538 2.2435 0
M  V30 18 O -2.0 0.2702 1.4692 0
M  V30 19 C -2.4435 2.0599 3.0044 0
M  V30 20 C 1.1966 -4.5492 -1.7873 0
M  V30 21 C -2.0676 3.4712 3.4658 0
M  V30 22 C -1.2961 5.7492 2.6532 0
M  V30 23 O -3.7399 2.0917 2.3677 0
M  V30 24 O 1.3363 -5.8332 -1.3375 0
M  V30 25 O -3.1624 3.9768 4.2384 0
M  V30 26 O -1.0217 6.5275 1.489 0
M  V30 27 C 2.3033 -6.6485 -1.9962 0
M  V30 28 C 2.2996 -8.0116 -1.3276 0
M  V30 29 H 3.4148 2.26 -0.4017 0
M  V30 30 H -1.2421 0.7568 -1.1783 0
M  V30 31 H 0.9793 -0.1803 -3.8354 0
M  V30 32 H -0.6105 -0.3367 -3.1671 0
M  V30 33 H 1.6115 3.1098 1.0269 0
M  V30 34 H -1.9751 2.6526 0.2431 0
M  V30 35 H 2.2082 -2.2058 -4.0325 0
M  V30 36 H -0.72 -1.8886 -0.8779 0
M  V30 37 H -0.5172 1.2089 2.5507 0
M  V30 38 H 2.631 -4.5208 -3.4175 0
M  V30 39 H -0.288 -4.228 -0.2622 0
M  V30 40 H -2.6703 4.4763 1.6144 0
M  V30 41 H -2.9597 0.4538 1.3854 0
M  V30 42 H -2.561 1.3907 3.8646 0
M  V30 43 H -1.1808 3.4031 4.1079 0
M  V30 44 H -2.0475 6.2801 3.2444 0
M  V30 45 H -0.3677 5.6907 3.2309 0
M  V30 46 H -4.3024 2.6125 2.9801 0
M  V30 47 H -2.8368 4.7193 4.779 0
M  V30 48 H -0.5018 5.9475 0.8981 0
M  V30 49 H 3.3021 -6.2069 -1.9019 0
M  V30 50 H 2.0422 -6.7687 -3.054 0
M  V30 51 H 3.0274 -8.6785 -1.798 0
M  V30 52 H 2.5402 -7.9195 -0.2633 0
M  V30 53 H 1.307 -8.4696 -1.3915 0
M  V30 END ATOM
M  V30 BEGIN BOND
M  V30 1 1 1 2
M  V30 2 2 2 3
M  V30 3 1 2 4
M  V30 4 1 3 5
M  V30 5 1 3 6
M  V30 6 2 4 7
M  V30 7 2 5 8
M  V30 8 1 6 9
M  V30 9 1 8 10
M  V30 10 2 9 11
M  V30 11 1 9 12
M  V30 12 1 10 13
M  V30 13 1 10 14
M  V30 14 1 11 15
M  V30 15 2 12 16
M  V30 16 1 13 17
M  V30 17 1 14 18
M  V30 18 1 14 19
M  V30 19 2 15 20
M  V30 20 1 17 21
M  V30 21 1 17 22
M  V30 22 1 19 23
M  V30 23 1 20 24
M  V30 24 1 21 25
M  V30 25 1 22 26
M  V30 26 1 24 27
M  V30 27 1 27 28
M  V30 28 1 7 8
M  V30 29 1 16 20
M  V30 30 1 19 21
M  V30 31 1 4 29
M  V30 32 1 5 30
M  V30 33 1 6 31
M  V30 34 1 6 32
M  V30 35 1 7 33
M  V30 36 1 10 34
M  V30 37 1 11 35
M  V30 38 1 12 36
M  V30 39 1 14 37
M  V30 40 1 15 38
M  V30 41 1 16 39
M  V30 42 1 17 40
M  V30 43 1 18 41
M  V30 44 1 19 42
M  V30 45 1 21 43
M  V30 46 1 22 44
M  V30 47 1 22 45
M  V30 48 1 23 46
M  V30 49 1 25 47
M  V30 50 1 26 48
M  V30 51 1 27 49
M  V30 52 1 27 50
M  V30 53 1 28 51
M  V30 54 1 28 52
M  V30 55 1 28 53
M  V30 END BOND
M  V30 END CTAB
M  END
>  <NO.>
5749

>  <Name>
chembl2139953

>  <SMILES>
CCOc1ccc(Cc2cc(C3OC(CO)C(O)C(O)C3O)ccc2Cl)cc1

>  <logBB>


>  <Class>
-1

>  <MW>
408.13

>  <nHBAcc>
6

>  <nHBDon>
4

>  <SLogP>
1.84

>  <TopoPSA>
99.38

>  <MMFF94 Energy>
155.97

$$$$
CCOc1ccc(Cc2cc([C@]34OC[C@](CO)(O3)[C@@H](O)[C@H](O)[C@H]4O)ccc2Cl)cc1
Actelion Java MolfileCreator 2.0

  0  0  0  0  0  0              0 V3000
M  V30 BEGIN CTAB
M  V30 COUNTS 55 58 0 0 0
M  V30 BEGIN ATOM
M  V30 1 Cl -1.5362 -0.0808 -5.1818 0
M  V30 2 C -0.4138 -0.1893 -3.8728 0
M  V30 3 C -0.5464 0.5734 -2.7036 0
M  V30 4 C 0.6534 -1.0787 -4.0193 0
M  V30 5 C 0.4174 0.4094 -1.686 0
M  V30 6 C -1.6788 1.5523 -2.472 0
M  V30 7 C 1.5955 -1.2271 -3.0002 0
M  V30 8 C 1.4885 -0.4938 -1.8107 0
M  V30 9 C -2.6817 1.0875 -1.4387 0
M  V30 10 C 2.5164 -0.6613 -0.707 0 CFG=1
M  V30 11 C -3.5566 0.0316 -1.7182 0
M  V30 12 C -2.7524 1.7033 -0.1818 0
M  V30 13 O 1.9251 -0.3185 0.5718 0
M  V30 14 O 2.9564 -2.036 -0.6133 0
M  V30 15 C 3.7642 0.2615 -0.8645 0 CFG=2
M  V30 16 C -4.4745 -0.3982 -0.7569 0
M  V30 17 C -3.6742 1.2694 0.7789 0
M  V30 18 C 2.7494 -1.0538 1.497 0 CFG=1
M  V30 19 C 2.8715 -2.3841 0.7774 0
M  V30 20 O 4.4341 0.1331 -2.1283 0
M  V30 21 C 4.7663 -0.0992 0.248 0 CFG=2
M  V30 22 C -4.537 0.2118 0.4977 0
M  V30 23 C 4.0912 -0.2917 1.6207 0 CFG=2
M  V30 24 C 2.025 -1.1809 2.8373 0
M  V30 25 O 5.7993 0.9005 0.336 0
M  V30 26 O -5.4832 -0.3095 1.3341 0
M  V30 27 O 4.9976 -0.9732 2.492 0
M  V30 28 O 1.6777 0.1136 3.3364 0
M  V30 29 C -5.5381 0.1474 2.6841 0
M  V30 30 C -6.4597 1.3481 2.8101 0
M  V30 31 H 0.7603 -1.6649 -4.9287 0
M  V30 32 H 0.3169 0.992 -0.7709 0
M  V30 33 H -2.2167 1.794 -3.3949 0
M  V30 34 H -1.2389 2.51 -2.1605 0
M  V30 35 H 2.423 -1.9217 -3.1391 0
M  V30 36 H -3.5309 -0.4668 -2.6845 0
M  V30 37 H -2.0909 2.5318 0.0615 0
M  V30 38 H 3.4689 1.3141 -0.7712 0
M  V30 39 H -5.1471 -1.2205 -0.9888 0
M  V30 40 H -3.6948 1.7883 1.7306 0
M  V30 41 H 1.9725 -2.9995 0.8927 0
M  V30 42 H 3.742 -2.9762 1.0727 0
M  V30 43 H 5.3292 0.5046 -2.0112 0
M  V30 44 H 5.3045 -1.0155 -0.026 0
M  V30 45 H 3.9122 0.6985 2.0583 0
M  V30 46 H 2.6384 -1.6904 3.5864 0
M  V30 47 H 1.0866 -1.7356 2.7283 0
M  V30 48 H 5.3879 1.7468 0.5896 0
M  V30 49 H 5.8546 -0.5081 2.4239 0
M  V30 50 H 1.1064 0.5145 2.6542 0
M  V30 51 H -4.5449 0.3353 3.1065 0
M  V30 52 H -5.9619 -0.6751 3.2716 0
M  V30 53 H -6.5569 1.6525 3.8561 0
M  V30 54 H -6.0891 2.2002 2.2327 0
M  V30 55 H -7.4545 1.1097 2.4194 0
M  V30 END ATOM
M  V30 BEGIN BOND
M  V30 1 1 1 2
M  V30 2 2 2 3
M  V30 3 1 2 4
M  V30 4 1 3 5
M  V30 5 1 3 6
M  V30 6 2 4 7
M  V30 7 2 5 8
M  V30 8 1 6 9
M  V30 9 1 8 10
M  V30 10 2 9 11
M  V30 11 1 9 12
M  V30 12 1 10 13
M  V30 13 1 10 14
M  V30 14 1 10 15
M  V30 15 1 11 16
M  V30 16 2 12 17
M  V30 17 1 13 18
M  V30 18 1 14 19
M  V30 19 1 15 20
M  V30 20 1 15 21
M  V30 21 2 16 22
M  V30 22 1 18 23
M  V30 23 1 18 24
M  V30 24 1 21 25
M  V30 25 1 22 26
M  V30 26 1 23 27
M  V30 27 1 24 28
M  V30 28 1 26 29
M  V30 29 1 29 30
M  V30 30 1 7 8
M  V30 31 1 17 22
M  V30 32 1 18 19
M  V30 33 1 21 23
M  V30 34 1 4 31
M  V30 35 1 5 32
M  V30 36 1 6 33
M  V30 37 1 6 34
M  V30 38 1 7 35
M  V30 39 1 11 36
M  V30 40 1 12 37
M  V30 41 1 15 38
M  V30 42 1 16 39
M  V30 43 1 17 40
M  V30 44 1 19 41
M  V30 45 1 19 42
M  V30 46 1 20 43
M  V30 47 1 21 44
M  V30 48 1 23 45
M  V30 49 1 24 46
M  V30 50 1 24 47
M  V30 51 1 25 48
M  V30 52 1 27 49
M  V30 53 1 28 50
M  V30 54 1 29 51
M  V30 55 1 29 52
M  V30 56 1 30 53
M  V30 57 1 30 54
M  V30 58 1 30 55
M  V30 END BOND
M  V30 BEGIN COLLECTION
M  V30 MDLV30/STEABS ATOMS=(5 10 15 18 21 23)
M  V30 END COLLECTION
M  V30 END CTAB
M  END
>  <NO.>
5750

>  <Name>
ertugliflozin

>  <SMILES>
CCOc1ccc(Cc2cc([C@]34OC[C@](CO)(O3)[C@@H](O)[C@H](O)[C@H]4O)ccc2Cl)cc1

>  <logBB>


>  <Class>
-1

>  <MW>
436.13

>  <nHBAcc>
7

>  <nHBDon>
4

>  <SLogP>
1.36

>  <TopoPSA>
108.61

>  <MMFF94 Energy>
188.96

$$$$
CCc1cc2c(cc1CC)CC(NCC(O)c1ccc(O)c3[nH]c(=O)ccc13)C2
Actelion Java MolfileCreator 2.0

  0  0  0  0  0  0              0 V3000
M  V30 BEGIN CTAB
M  V30 COUNTS 57 60 0 0 0
M  V30 BEGIN ATOM
M  V30 1 O -0.7952 8.5341 -1.193 0
M  V30 2 C -0.5508 7.3737 -1.5021 0
M  V30 3 N 0.7025 6.9288 -1.798 0
M  V30 4 C -1.6328 6.3653 -1.568 0
M  V30 5 C 1.0029 5.6068 -2.1608 0
M  V30 6 C -1.3878 5.0939 -1.9143 0
M  V30 7 C 2.3327 5.2727 -2.4263 0
M  V30 8 C -0.025 4.6471 -2.2494 0
M  V30 9 O 3.2908 6.2446 -2.3221 0
M  V30 10 C 2.6685 3.9756 -2.7801 0
M  V30 11 C 0.3029 3.3286 -2.6368 0
M  V30 12 C 1.6602 3.0147 -2.8799 0
M  V30 13 C -0.7397 2.2278 -2.7665 0 CFG=1
M  V30 14 O -0.4178 1.3239 -3.8381 0
M  V30 15 C -0.9493 1.4145 -1.463 0
M  V30 16 N 0.206 0.5575 -1.1431 0
M  V30 17 C -0.0407 -0.3169 0.0065 0
M  V30 18 C -1.0925 -1.4327 -0.2227 0
M  V30 19 C 1.2508 -1.0565 0.4386 0
M  V30 20 C -0.6379 -2.4751 0.7521 0
M  V30 21 C 0.6862 -2.2616 1.1254 0
M  V30 22 C -1.352 -3.5613 1.2328 0
M  V30 23 C 1.327 -3.1322 1.9859 0
M  V30 24 C -0.7385 -4.4581 2.1289 0
M  V30 25 C 0.6227 -4.2412 2.4972 0
M  V30 26 C -1.4918 -5.6594 2.6739 0
M  V30 27 C 1.3635 -5.1549 3.4529 0
M  V30 28 C -2.9903 -5.733 2.3993 0
M  V30 29 C 1.2827 -4.6603 4.89 0
M  V30 30 H 1.4661 7.593 -1.7521 0
M  V30 31 H -2.625 6.7167 -1.3136 0
M  V30 32 H -2.2102 4.3909 -1.9317 0
M  V30 33 H 4.1587 5.8451 -2.4997 0
M  V30 34 H 3.6967 3.6877 -2.9746 0
M  V30 35 H 1.941 1.9929 -3.1357 0
M  V30 36 H -1.6985 2.6636 -3.0626 0
M  V30 37 H -0.1094 1.8735 -4.5794 0
M  V30 38 H -1.1571 2.0917 -0.6265 0
M  V30 39 H -1.8298 0.7793 -1.6162 0
M  V30 40 H 0.4122 -0.0015 -1.9753 0
M  V30 41 H -0.3635 0.2972 0.8611 0
M  V30 42 H -2.1046 -1.0774 -0.0066 0
M  V30 43 H -1.0481 -1.8356 -1.2407 0
M  V30 44 H 1.853 -1.3729 -0.4206 0
M  V30 45 H 1.857 -0.439 1.1088 0
M  V30 46 H -2.3772 -3.6968 0.9037 0
M  V30 47 H 2.3638 -2.9587 2.2611 0
M  V30 48 H -1.3657 -5.6834 3.7625 0
M  V30 49 H -1.0299 -6.5651 2.2623 0
M  V30 50 H 2.4163 -5.2181 3.1494 0
M  V30 51 H 0.9854 -6.1803 3.3866 0
M  V30 52 H -3.4166 -6.6157 2.8875 0
M  V30 53 H -3.1974 -5.8175 1.3275 0
M  V30 54 H -3.5108 -4.8509 2.7868 0
M  V30 55 H 1.8244 -5.3409 5.5544 0
M  V30 56 H 0.2459 -4.6013 5.2367 0
M  V30 57 H 1.7263 -3.6641 4.9929 0
M  V30 END ATOM
M  V30 BEGIN BOND
M  V30 1 2 1 2
M  V30 2 1 2 3
M  V30 3 1 2 4
M  V30 4 1 3 5
M  V30 5 2 4 6
M  V30 6 2 5 7
M  V30 7 1 5 8
M  V30 8 1 7 9
M  V30 9 1 7 10
M  V30 10 2 8 11
M  V30 11 2 10 12
M  V30 12 1 11 13
M  V30 13 1 13 14
M  V30 14 1 13 15
M  V30 15 1 15 16
M  V30 16 1 16 17
M  V30 17 1 17 18
M  V30 18 1 17 19
M  V30 19 1 18 20
M  V30 20 1 19 21
M  V30 21 1 20 22
M  V30 22 1 21 23
M  V30 23 2 22 24
M  V30 24 2 23 25
M  V30 25 1 24 26
M  V30 26 1 25 27
M  V30 27 1 26 28
M  V30 28 1 27 29
M  V30 29 1 6 8
M  V30 30 1 11 12
M  V30 31 2 20 21
M  V30 32 1 24 25
M  V30 33 1 3 30
M  V30 34 1 4 31
M  V30 35 1 6 32
M  V30 36 1 9 33
M  V30 37 1 10 34
M  V30 38 1 12 35
M  V30 39 1 13 36
M  V30 40 1 14 37
M  V30 41 1 15 38
M  V30 42 1 15 39
M  V30 43 1 16 40
M  V30 44 1 17 41
M  V30 45 1 18 42
M  V30 46 1 18 43
M  V30 47 1 19 44
M  V30 48 1 19 45
M  V30 49 1 22 46
M  V30 50 1 23 47
M  V30 51 1 26 48
M  V30 52 1 26 49
M  V30 53 1 27 50
M  V30 54 1 27 51
M  V30 55 1 28 52
M  V30 56 1 28 53
M  V30 57 1 28 54
M  V30 58 1 29 55
M  V30 59 1 29 56
M  V30 60 1 29 57
M  V30 END BOND
M  V30 BEGIN COLLECTION
M  V30 MDLV30/STERAC1 ATOMS=(1 13)
M  V30 END COLLECTION
M  V30 END CTAB
M  END
>  <NO.>
5752

>  <Name>
(r)-5-(2-(5,6-diethyl-2,3-dihydro-1h-inden-2-ylamino)-1-hydroxyethyl)-8-hydroxyquinolin-2(1h)-one

>  <SMILES>
CCc1cc2c(cc1CC)CC(NCC(O)c1ccc(O)c3[nH]c(=O)ccc13)C2

>  <logBB>


>  <Class>
-1

>  <MW>
392.21

>  <nHBAcc>
4

>  <nHBDon>
4

>  <SLogP>
3.15

>  <TopoPSA>
85.35

>  <MMFF94 Energy>
87.42

$$$$
CN(C)C(=O)Oc1cc(OC(=O)N(C)C)cc(C(O)CNC(C)(C)C)c1
Actelion Java MolfileCreator 2.0

  0  0  0  0  0  0              0 V3000
M  V30 BEGIN CTAB
M  V30 COUNTS 55 55 0 0 0
M  V30 BEGIN ATOM
M  V30 1 O 0.5457 -1.7942 -3.9818 0
M  V30 2 C 1.5005 -2.1452 -3.2941 0
M  V30 3 O 1.7932 -1.6233 -2.0365 0
M  V30 4 N 2.4132 -3.1138 -3.6925 0
M  V30 5 C 0.8953 -0.6578 -1.5679 0
M  V30 6 C 2.2545 -3.7593 -4.9813 0
M  V30 7 C 3.546 -3.5338 -2.8851 0
M  V30 8 C 1.3474 0.6509 -1.4437 0
M  V30 9 C -0.3926 -1.0255 -1.1725 0
M  V30 10 C 0.4753 1.6031 -0.9252 0
M  V30 11 C -1.2827 -0.0538 -0.6869 0
M  V30 12 O 0.8389 2.9558 -0.8272 0
M  V30 13 C -0.8337 1.2704 -0.567 0
M  V30 14 C -2.699 -0.421 -0.2916 0 CFG=1
M  V30 15 C 1.9691 3.2723 -0.0746 0
M  V30 16 O -3.298 -1.226 -1.3148 0
M  V30 17 C -2.7862 -1.1745 1.0602 0
M  V30 18 O 2.6482 2.4483 0.53 0
M  V30 19 N 2.2461 4.6339 -0.0798 0
M  V30 20 N -2.4969 -0.3032 2.2097 0
M  V30 21 C 3.3854 5.1338 0.6653 0
M  V30 22 C 1.4493 5.6165 -0.7941 0
M  V30 23 C -2.3719 -0.975 3.5155 0
M  V30 24 C -3.6419 -1.7537 3.8943 0
M  V30 25 C -2.1546 0.142 4.5551 0
M  V30 26 C -1.1502 -1.908 3.5519 0
M  V30 27 H 1.3816 -3.3896 -5.5251 0
M  V30 28 H 3.1496 -3.5714 -5.5813 0
M  V30 29 H 2.142 -4.836 -4.8239 0
M  V30 30 H 3.605 -3.0096 -1.9294 0
M  V30 31 H 4.465 -3.3426 -3.4469 0
M  V30 32 H 3.4576 -4.6068 -2.6912 0
M  V30 33 H 2.3564 0.9156 -1.7384 0
M  V30 34 H -0.7072 -2.0629 -1.2587 0
M  V30 35 H -1.4945 2.0433 -0.1833 0
M  V30 36 H -3.3121 0.487 -0.2388 0
M  V30 37 H -2.8914 -0.9645 -2.1604 0
M  V30 38 H -3.799 -1.5846 1.1548 0
M  V30 39 H -2.1068 -2.0325 1.0255 0
M  V30 40 H -3.2203 0.4136 2.2645 0
M  V30 41 H 3.9314 4.335 1.1733 0
M  V30 42 H 4.0642 5.6397 -0.0274 0
M  V30 43 H 3.0303 5.8491 1.413 0
M  V30 44 H 0.6143 5.172 -1.3388 0
M  V30 45 H 2.0947 6.138 -1.507 0
M  V30 46 H 1.0531 6.3364 -0.0717 0
M  V30 47 H -3.8041 -2.6152 3.2378 0
M  V30 48 H -3.5743 -2.1379 4.9188 0
M  V30 49 H -4.5315 -1.1156 3.8408 0
M  V30 50 H -3.005 0.8337 4.5862 0
M  V30 51 H -2.0337 -0.2731 5.5625 0
M  V30 52 H -1.2552 0.7279 4.3309 0
M  V30 53 H -1.2805 -2.7856 2.9107 0
M  V30 54 H -0.2414 -1.3863 3.23 0
M  V30 55 H -0.9725 -2.2792 4.5681 0
M  V30 END ATOM
M  V30 BEGIN BOND
M  V30 1 2 1 2
M  V30 2 1 2 3
M  V30 3 1 2 4
M  V30 4 1 3 5
M  V30 5 1 4 6
M  V30 6 1 4 7
M  V30 7 2 5 8
M  V30 8 1 5 9
M  V30 9 1 8 10
M  V30 10 2 9 11
M  V30 11 1 10 12
M  V30 12 2 10 13
M  V30 13 1 11 14
M  V30 14 1 12 15
M  V30 15 1 14 16
M  V30 16 1 14 17
M  V30 17 2 15 18
M  V30 18 1 15 19
M  V30 19 1 17 20
M  V30 20 1 19 21
M  V30 21 1 19 22
M  V30 22 1 20 23
M  V30 23 1 23 24
M  V30 24 1 23 25
M  V30 25 1 23 26
M  V30 26 1 11 13
M  V30 27 1 6 27
M  V30 28 1 6 28
M  V30 29 1 6 29
M  V30 30 1 7 30
M  V30 31 1 7 31
M  V30 32 1 7 32
M  V30 33 1 8 33
M  V30 34 1 9 34
M  V30 35 1 13 35
M  V30 36 1 14 36
M  V30 37 1 16 37
M  V30 38 1 17 38
M  V30 39 1 17 39
M  V30 40 1 20 40
M  V30 41 1 21 41
M  V30 42 1 21 42
M  V30 43 1 21 43
M  V30 44 1 22 44
M  V30 45 1 22 45
M  V30 46 1 22 46
M  V30 47 1 24 47
M  V30 48 1 24 48
M  V30 49 1 24 49
M  V30 50 1 25 50
M  V30 51 1 25 51
M  V30 52 1 25 52
M  V30 53 1 26 53
M  V30 54 1 26 54
M  V30 55 1 26 55
M  V30 END BOND
M  V30 BEGIN COLLECTION
M  V30 MDLV30/STERAC1 ATOMS=(1 14)
M  V30 END COLLECTION
M  V30 END CTAB
M  END
>  <NO.>
5754

>  <Name>
bambuterol

>  <SMILES>
CN(C)C(=O)Oc1cc(OC(=O)N(C)C)cc(C(O)CNC(C)(C)C)c1

>  <logBB>


>  <Class>
-1

>  <MW>
367.21

>  <nHBAcc>
6

>  <nHBDon>
2

>  <SLogP>
2.23

>  <TopoPSA>
91.34

>  <MMFF94 Energy>
10.521

$$$$
CN(C)C1C=C(C(=O)NCO)C(=O)C2(O)C(O)=C3C(=O)c4c(O)ccc(Cl)c4C(C)(O)C3CC12
Actelion Java MolfileCreator 2.0

  0  0  0  0  0  0              0 V3000
M  V30 BEGIN CTAB
M  V30 COUNTS 59 62 0 0 0
M  V30 BEGIN ATOM
M  V30 1 Cl -1.9448 0.1619 5.2739 0
M  V30 2 C -1.192 -1.2261 4.5663 0
M  V30 3 C -1.1157 -1.4442 3.1753 0
M  V30 4 C -0.6975 -2.1686 5.4788 0
M  V30 5 C -0.5871 -2.6908 2.7479 0
M  V30 6 C -1.6576 -0.4842 2.113 0
M  V30 7 C -0.1341 -3.3599 5.0359 0
M  V30 8 C -0.5662 -3.0242 1.2973 0
M  V30 9 C -0.0849 -3.6222 3.6729 0
M  V30 10 O -1.6712 0.8846 2.5217 0
M  V30 11 C -0.8181 -0.5226 0.7941 0
M  V30 12 C -3.1242 -0.8683 1.8279 0
M  V30 13 O -0.6853 -4.1551 0.8435 0
M  V30 14 C -0.337 -1.8802 0.3965 0
M  V30 15 O 0.4977 -4.7804 3.2461 0
M  V30 16 C 0.346 0.4984 0.7173 0
M  V30 17 C 0.4014 -2.0381 -0.7167 0
M  V30 18 C 1.4212 0.2032 -0.3794 0
M  V30 19 O 0.8628 -3.2646 -1.1702 0
M  V30 20 C 0.942 -0.8143 -1.4382 0
M  V30 21 C 1.9997 1.4596 -1.086 0
M  V30 22 O 2.0617 -1.22 -2.2332 0
M  V30 23 C -0.1127 -0.1701 -2.3652 0
M  V30 24 N 2.4072 2.449 -0.0661 0
M  V30 25 C 1.1096 1.9498 -2.1994 0
M  V30 26 O -1.1056 -0.776 -2.7765 0
M  V30 27 C 0.1267 1.2432 -2.7923 0
M  V30 28 C 3.8393 2.7455 -0.141 0
M  V30 29 C 1.6422 3.693 -0.0046 0
M  V30 30 C -0.6543 1.92 -3.8759 0
M  V30 31 O -0.4313 3.0809 -4.2123 0
M  V30 32 N -1.619 1.1644 -4.4794 0
M  V30 33 C -2.4807 1.6835 -5.4896 0
M  V30 34 O -1.7452 1.7105 -6.6881 0
M  V30 35 H -0.756 -1.9782 6.5494 0
M  V30 36 H 0.255 -4.0663 5.7635 0
M  V30 37 H -2.0992 0.9452 3.3942 0
M  V30 38 H -1.5146 -0.1987 0.0047 0
M  V30 39 H -3.7336 -0.799 2.7371 0
M  V30 40 H -3.2244 -1.8851 1.4346 0
M  V30 41 H -3.5752 -0.1749 1.1082 0
M  V30 42 H 0.6809 -5.3658 3.9988 0
M  V30 43 H -0.1025 1.4829 0.5507 0
M  V30 44 H 0.8586 0.5529 1.687 0
M  V30 45 H 2.2714 -0.2577 0.1506 0
M  V30 46 H 0.4097 -3.9675 -0.6458 0
M  V30 47 H 2.9086 1.1238 -1.6077 0
M  V30 48 H 1.9164 -2.1733 -2.4102 0
M  V30 49 H 1.3322 2.9461 -2.5779 0
M  V30 50 H 4.1446 3.4008 0.6826 0
M  V30 51 H 4.4301 1.8281 -0.0396 0
M  V30 52 H 4.1068 3.231 -1.0863 0
M  V30 53 H 1.9023 4.2465 0.9053 0
M  V30 54 H 1.8409 4.3507 -0.8582 0
M  V30 55 H 0.5647 3.5115 0.0505 0
M  V30 56 H -1.7587 0.2009 -4.1794 0
M  V30 57 H -2.82 2.6923 -5.2358 0
M  V30 58 H -3.3398 1.0177 -5.6021 0
M  V30 59 H -0.9774 2.2738 -6.4828 0
M  V30 END ATOM
M  V30 BEGIN BOND
M  V30 1 1 1 2
M  V30 2 2 2 3
M  V30 3 1 2 4
M  V30 4 1 3 5
M  V30 5 1 3 6
M  V30 6 2 4 7
M  V30 7 1 5 8
M  V30 8 2 5 9
M  V30 9 1 6 10
M  V30 10 1 6 11
M  V30 11 1 6 12
M  V30 12 2 8 13
M  V30 13 1 8 14
M  V30 14 1 9 15
M  V30 15 1 11 16
M  V30 16 2 14 17
M  V30 17 1 16 18
M  V30 18 1 17 19
M  V30 19 1 17 20
M  V30 20 1 18 21
M  V30 21 1 20 22
M  V30 22 1 20 23
M  V30 23 1 21 24
M  V30 24 1 21 25
M  V30 25 2 23 26
M  V30 26 1 23 27
M  V30 27 1 24 28
M  V30 28 1 24 29
M  V30 29 1 27 30
M  V30 30 2 30 31
M  V30 31 1 30 32
M  V30 32 1 32 33
M  V30 33 1 33 34
M  V30 34 1 7 9
M  V30 35 1 11 14
M  V30 36 1 18 20
M  V30 37 2 25 27
M  V30 38 1 4 35
M  V30 39 1 7 36
M  V30 40 1 10 37
M  V30 41 1 11 38
M  V30 42 1 12 39
M  V30 43 1 12 40
M  V30 44 1 12 41
M  V30 45 1 15 42
M  V30 46 1 16 43
M  V30 47 1 16 44
M  V30 48 1 18 45
M  V30 49 1 19 46
M  V30 50 1 21 47
M  V30 51 1 22 48
M  V30 52 1 25 49
M  V30 53 1 28 50
M  V30 54 1 28 51
M  V30 55 1 28 52
M  V30 56 1 29 53
M  V30 57 1 29 54
M  V30 58 1 29 55
M  V30 59 1 32 56
M  V30 60 1 33 57
M  V30 61 1 33 58
M  V30 62 1 34 59
M  V30 END BOND
M  V30 END CTAB
M  END
>  <NO.>
5755

>  <Name>
clomocycline

>  <SMILES>
CN(C)C1C=C(C(=O)NCO)C(=O)C2(O)C(O)=C3C(=O)c4c(O)ccc(Cl)c4C(C)(O)C3CC12

>  <logBB>


>  <Class>
-1

>  <MW>
492.13

>  <nHBAcc>
9

>  <nHBDon>
6

>  <SLogP>
0.13

>  <TopoPSA>
167.63

>  <MMFF94 Energy>
45.244

$$$$
CN(C)CC(c1ccc(O)cc1)C1(O)CCCCC1
Actelion Java MolfileCreator 2.0

  0  0  0  0  0  0              0 V3000
M  V30 BEGIN CTAB
M  V30 COUNTS 44 45 0 0 0
M  V30 BEGIN ATOM
M  V30 1 O -1.8884 -2.5185 -4.884 0
M  V30 2 C -1.4541 -1.8287 -3.7916 0
M  V30 3 C -0.583 -2.4677 -2.9224 0
M  V30 4 C -1.8627 -0.526 -3.5461 0
M  V30 5 C -0.1133 -1.8004 -1.7857 0
M  V30 6 C -1.3881 0.1379 -2.4113 0
M  V30 7 C -0.5059 -0.4845 -1.5048 0
M  V30 8 C -0.0369 0.3112 -0.274 0 CFG=2
M  V30 9 C 1.3651 -0.0728 0.3558 0
M  V30 10 C -1.1642 0.3687 0.8073 0
M  V30 11 O 2.3005 -0.4149 -0.6822 0
M  V30 12 C 1.3216 -1.246 1.3634 0
M  V30 13 C 1.9687 1.1701 1.0654 0
M  V30 14 N -2.3213 1.227 0.4628 0
M  V30 15 C 2.6888 -1.5337 1.991 0
M  V30 16 C 3.3274 0.8875 1.712 0
M  V30 17 C -2.008 2.6488 0.6267 0
M  V30 18 C -3.4752 0.8782 1.2964 0
M  V30 19 C 3.2621 -0.2954 2.6697 0
M  V30 20 H -2.4992 -1.9504 -5.3811 0
M  V30 21 H -0.2632 -3.4858 -3.1256 0
M  V30 22 H -2.5465 -0.0116 -4.2131 0
M  V30 23 H 0.579 -2.3371 -1.1472 0
M  V30 24 H -1.7264 1.1566 -2.228 0
M  V30 25 H 0.1214 1.325 -0.6689 0
M  V30 26 H -0.7663 0.7018 1.7729 0
M  V30 27 H -1.5172 -0.6608 0.9597 0
M  V30 28 H 2.1192 0.151 -1.4535 0
M  V30 29 H 0.9792 -2.1672 0.8861 0
M  V30 30 H 0.6183 -1.0331 2.1762 0
M  V30 31 H 1.2852 1.5432 1.8366 0
M  V30 32 H 2.1091 1.981 0.3392 0
M  V30 33 H 2.5893 -2.3397 2.7273 0
M  V30 34 H 3.3853 -1.892 1.2236 0
M  V30 35 H 3.6665 1.7788 2.2526 0
M  V30 36 H 4.0749 0.689 0.9343 0
M  V30 37 H -1.1924 2.9573 -0.0338 0
M  V30 38 H -1.7276 2.8946 1.6575 0
M  V30 39 H -2.8722 3.2643 0.3517 0
M  V30 40 H -3.2707 1.0174 2.3642 0
M  V30 41 H -3.7677 -0.1648 1.1324 0
M  V30 42 H -4.3442 1.4896 1.0277 0
M  V30 43 H 2.6389 -0.0312 3.5332 0
M  V30 44 H 4.264 -0.5151 3.0551 0
M  V30 END ATOM
M  V30 BEGIN BOND
M  V30 1 1 1 2
M  V30 2 2 2 3
M  V30 3 1 2 4
M  V30 4 1 3 5
M  V30 5 2 4 6
M  V30 6 2 5 7
M  V30 7 1 7 8
M  V30 8 1 8 9
M  V30 9 1 8 10
M  V30 10 1 9 11
M  V30 11 1 9 12
M  V30 12 1 9 13
M  V30 13 1 10 14
M  V30 14 1 12 15
M  V30 15 1 13 16
M  V30 16 1 14 17
M  V30 17 1 14 18
M  V30 18 1 15 19
M  V30 19 1 6 7
M  V30 20 1 16 19
M  V30 21 1 1 20
M  V30 22 1 3 21
M  V30 23 1 4 22
M  V30 24 1 5 23
M  V30 25 1 6 24
M  V30 26 1 8 25
M  V30 27 1 10 26
M  V30 28 1 10 27
M  V30 29 1 11 28
M  V30 30 1 12 29
M  V30 31 1 12 30
M  V30 32 1 13 31
M  V30 33 1 13 32
M  V30 34 1 15 33
M  V30 35 1 15 34
M  V30 36 1 16 35
M  V30 37 1 16 36
M  V30 38 1 17 37
M  V30 39 1 17 38
M  V30 40 1 17 39
M  V30 41 1 18 40
M  V30 42 1 18 41
M  V30 43 1 18 42
M  V30 44 1 19 43
M  V30 45 1 19 44
M  V30 END BOND
M  V30 BEGIN COLLECTION
M  V30 MDLV30/STERAC1 ATOMS=(1 8)
M  V30 END COLLECTION
M  V30 END CTAB
M  END
>  <NO.>
5756

>  <Name>
desvenlafaxine

>  <SMILES>
CN(C)CC(c1ccc(O)cc1)C1(O)CCCCC1

>  <logBB>


>  <Class>
1

>  <MW>
263.19

>  <nHBAcc>
3

>  <nHBDon>
2

>  <SLogP>
2.73

>  <TopoPSA>
43.7

>  <MMFF94 Energy>
63.365

$$$$
CN(C)c1cc(CNCC(C)(C)C)c(O)c2c1C[C@H]1C[C@H]3[C@H](N(C)C)C(=O)C(C(N)=O)=C(O)[C@@]3(O)C(=O)C1=C2O
Actelion Java MolfileCreator 2.0

  0  0  0  0  0  0              0 V3000
M  V30 BEGIN CTAB
M  V30 COUNTS 80 83 0 0 0
M  V30 BEGIN ATOM
M  V30 1 O 0.0 -4.1418 0.7159 0
M  V30 2 C 0.4494 -3.383 -0.1425 0
M  V30 3 C 0.3441 -1.9053 0.0389 0
M  V30 4 C 1.1806 -3.831 -1.4289 0 CFG=2
M  V30 5 C -0.6083 -1.3671 0.8177 0
M  V30 6 C 1.3707 -1.0934 -0.7032 0 CFG=1
M  V30 7 O 0.5531 -3.2015 -2.5598 0
M  V30 8 C 1.0264 -5.3149 -1.6538 0
M  V30 9 C 2.6301 -3.3111 -1.3686 0 CFG=1
M  V30 10 O -1.528 -2.1177 1.5295 0
M  V30 11 C -0.7497 0.108 0.9104 0
M  V30 12 C 1.5988 0.2693 -0.023 0
M  V30 13 C 2.7028 -1.8701 -0.7714 0
M  V30 14 O -0.2552 -5.6444 -2.1078 0
M  V30 15 C 2.0155 -6.2214 -1.5131 0
M  V30 16 C 3.5429 -4.2945 -0.5908 0 CFG=1
M  V30 17 C -1.9122 0.7326 1.4122 0
M  V30 18 C 0.3218 0.9233 0.4669 0
M  V30 19 C 3.3662 -5.7619 -1.0728 0
M  V30 20 C 1.7207 -7.6569 -1.8202 0
M  V30 21 N 4.995 -3.9941 -0.6022 0
M  V30 22 O -2.9736 -0.0056 1.877 0
M  V30 23 C -2.0371 2.1266 1.4604 0
M  V30 24 C 0.2336 2.33 0.5464 0
M  V30 25 O 4.2907 -6.5815 -1.0443 0
M  V30 26 O 0.6017 -8.0262 -2.1727 0
M  V30 27 N 2.7347 -8.5464 -1.6976 0
M  V30 28 C 5.5731 -3.686 -1.9031 0
M  V30 29 C 5.4809 -3.1098 0.4436 0
M  V30 30 C -0.9464 2.9041 1.0408 0
M  V30 31 C -3.2724 2.7992 2.0196 0
M  V30 32 N 1.318 3.1325 0.1699 0
M  V30 33 N -3.7003 3.9336 1.1857 0
M  V30 34 C 2.2282 3.4615 1.2606 0
M  V30 35 C 1.0443 4.1849 -0.8011 0
M  V30 36 C -4.8952 4.5714 1.7428 0
M  V30 37 C -5.3654 5.808 0.9284 0
M  V30 38 C -4.2638 6.882 0.8789 0
M  V30 39 C -6.603 6.4043 1.6263 0
M  V30 40 C -5.7563 5.4164 -0.5077 0
M  V30 41 H 1.0028 -0.9072 -1.7206 0
M  V30 42 H -0.2453 -3.7385 -2.7497 0
M  V30 43 H 2.9834 -3.2445 -2.4078 0
M  V30 44 H -1.2477 -3.0609 1.478 0
M  V30 45 H 2.118 0.9134 -0.743 0
M  V30 46 H 2.2602 0.1598 0.847 0
M  V30 47 H 3.0809 -1.9323 0.2565 0
M  V30 48 H 3.4388 -1.2856 -1.3375 0
M  V30 49 H -0.319 -6.6242 -2.2199 0
M  V30 50 H 3.21 -4.3311 0.4569 0
M  V30 51 H -2.6918 -0.9443 1.8554 0
M  V30 52 H 3.671 -8.2512 -1.419 0
M  V30 53 H 2.5704 -9.5232 -1.8959 0
M  V30 54 H 5.2947 -2.687 -2.2541 0
M  V30 55 H 5.2679 -4.4159 -2.6604 0
M  V30 56 H 6.667 -3.731 -1.8542 0
M  V30 57 H 5.2773 -2.0554 0.236 0
M  V30 58 H 5.0487 -3.3664 1.4169 0
M  V30 59 H 6.5663 -3.2176 0.5518 0
M  V30 60 H -1.0205 3.987 1.1235 0
M  V30 61 H -3.0357 3.1417 3.0346 0
M  V30 62 H -4.1018 2.0872 2.0923 0
M  V30 63 H -3.9095 3.5666 0.2577 0
M  V30 64 H 1.7602 4.1542 1.9694 0
M  V30 65 H 3.133 3.9375 0.8675 0
M  V30 66 H 2.5445 2.5646 1.8047 0
M  V30 67 H 0.4584 3.8012 -1.644 0
M  V30 68 H 1.9851 4.5698 -1.2094 0
M  V30 69 H 0.5074 5.0251 -0.3473 0
M  V30 70 H -5.7126 3.8399 1.7906 0
M  V30 71 H -4.6848 4.8887 2.7727 0
M  V30 72 H -4.6162 7.7842 0.3657 0
M  V30 73 H -3.9523 7.1743 1.8881 0
M  V30 74 H -3.3763 6.5277 0.3434 0
M  V30 75 H -6.3695 6.7121 2.6519 0
M  V30 76 H -6.9748 7.286 1.0919 0
M  V30 77 H -7.4198 5.6753 1.6739 0
M  V30 78 H -6.1783 6.2722 -1.0475 0
M  V30 79 H -4.8937 5.0654 -1.0837 0
M  V30 80 H -6.5088 4.62 -0.5081 0
M  V30 END ATOM
M  V30 BEGIN BOND
M  V30 1 2 1 2
M  V30 2 1 2 3
M  V30 3 1 2 4
M  V30 4 2 3 5
M  V30 5 1 3 6
M  V30 6 1 4 7
M  V30 7 1 4 8
M  V30 8 1 4 9
M  V30 9 1 5 10
M  V30 10 1 5 11
M  V30 11 1 6 12
M  V30 12 1 6 13
M  V30 13 1 8 14
M  V30 14 2 8 15
M  V30 15 1 9 16
M  V30 16 2 11 17
M  V30 17 1 11 18
M  V30 18 1 15 19
M  V30 19 1 15 20
M  V30 20 1 16 21
M  V30 21 1 17 22
M  V30 22 1 17 23
M  V30 23 2 18 24
M  V30 24 2 19 25
M  V30 25 2 20 26
M  V30 26 1 20 27
M  V30 27 1 21 28
M  V30 28 1 21 29
M  V30 29 2 23 30
M  V30 30 1 23 31
M  V30 31 1 24 32
M  V30 32 1 31 33
M  V30 33 1 32 34
M  V30 34 1 32 35
M  V30 35 1 33 36
M  V30 36 1 36 37
M  V30 37 1 37 38
M  V30 38 1 37 39
M  V30 39 1 37 40
M  V30 40 1 9 13
M  V30 41 1 12 18
M  V30 42 1 16 19
M  V30 43 1 24 30
M  V30 44 1 6 41
M  V30 45 1 7 42
M  V30 46 1 9 43
M  V30 47 1 10 44
M  V30 48 1 12 45
M  V30 49 1 12 46
M  V30 50 1 13 47
M  V30 51 1 13 48
M  V30 52 1 14 49
M  V30 53 1 16 50
M  V30 54 1 22 51
M  V30 55 1 27 52
M  V30 56 1 27 53
M  V30 57 1 28 54
M  V30 58 1 28 55
M  V30 59 1 28 56
M  V30 60 1 29 57
M  V30 61 1 29 58
M  V30 62 1 29 59
M  V30 63 1 30 60
M  V30 64 1 31 61
M  V30 65 1 31 62
M  V30 66 1 33 63
M  V30 67 1 34 64
M  V30 68 1 34 65
M  V30 69 1 34 66
M  V30 70 1 35 67
M  V30 71 1 35 68
M  V30 72 1 35 69
M  V30 73 1 36 70
M  V30 74 1 36 71
M  V30 75 1 38 72
M  V30 76 1 38 73
M  V30 77 1 38 74
M  V30 78 1 39 75
M  V30 79 1 39 76
M  V30 80 1 39 77
M  V30 81 1 40 78
M  V30 82 1 40 79
M  V30 83 1 40 80
M  V30 END BOND
M  V30 BEGIN COLLECTION
M  V30 MDLV30/STEABS ATOMS=(4 4 6 9 16)
M  V30 END COLLECTION
M  V30 END CTAB
M  END
>  <NO.>
5758

>  <Name>
omadacycline

>  <SMILES>
CN(C)c1cc(CNCC(C)(C)C)c(O)c2c1C[C@H]1C[C@H]3[C@H](N(C)C)C(=O)C(C(N)=O)=C(O)[C@@]3(O)C(=O)C1=C2O

>  <logBB>


>  <Class>
-1

>  <MW>
556.29

>  <nHBAcc>
10

>  <nHBDon>
6

>  <SLogP>
1.17

>  <TopoPSA>
176.66

>  <MMFF94 Energy>
104.96

$$$$
CN(C)c1ccc(C(=C2C=CC(=[N+](C)C)C=C2)c2ccc(N(C)C)cc2)cc1
Actelion Java MolfileCreator 2.0

  0  0  0  0  0  0              0 V3000
M  V30 BEGIN CTAB
M  V30 COUNTS 58 60 0 0 0
M  V30 BEGIN ATOM
M  V30 1 N 1.7295 5.2744 -1.0217 0 CHG=1
M  V30 2 C 1.3277 4.0562 -0.7902 0
M  V30 3 C 3.0913 5.7591 -0.6327 0
M  V30 4 C 0.8628 6.2919 -1.6959 0
M  V30 5 C 2.155 3.0719 -0.0181 0
M  V30 6 C 0.006 3.5413 -1.2774 0
M  V30 7 C 1.7235 1.8235 0.2102 0
M  V30 8 C -0.3886 2.2844 -1.0297 0
M  V30 9 C 0.4296 1.3329 -0.2727 0
M  V30 10 C 0.0084 0.0555 -0.03 0
M  V30 11 C 0.8578 -0.891 0.7388 0
M  V30 12 C -1.3091 -0.4173 -0.5291 0
M  V30 13 C 1.7869 -1.7013 0.0878 0
M  V30 14 C 0.744 -0.982 2.1254 0
M  V30 15 C -2.4574 -0.2713 0.2482 0
M  V30 16 C -1.4212 -1.011 -1.7854 0
M  V30 17 C 2.5976 -2.5791 0.8221 0
M  V30 18 C 1.5617 -1.8646 2.8461 0
M  V30 19 C -3.7002 -0.7036 -0.237 0
M  V30 20 C -2.671 -1.4385 -2.2572 0
M  V30 21 C 2.5139 -2.6895 2.2215 0
M  V30 22 C -3.8492 -1.2988 -1.5023 0
M  V30 23 N 3.3249 -3.5578 2.9432 0
M  V30 24 N -5.0854 -1.7197 -1.9789 0
M  V30 25 C 3.1677 -3.7143 4.3851 0
M  V30 26 C 4.2501 -4.462 2.2691 0
M  V30 27 C -5.2062 -2.4056 -3.2607 0
M  V30 28 C -6.2821 -1.6384 -1.1484 0
M  V30 29 H 3.1107 5.8881 0.4523 0
M  V30 30 H 3.8372 5.0329 -0.967 0
M  V30 31 H 3.299 6.7126 -1.1258 0
M  V30 32 H 1.2977 7.2875 -1.573 0
M  V30 33 H -0.1231 6.29 -1.2232 0
M  V30 34 H 0.8026 6.0393 -2.7575 0
M  V30 35 H 3.1194 3.3588 0.386 0
M  V30 36 H -0.6541 4.177 -1.8567 0
M  V30 37 H 2.365 1.1564 0.7825 0
M  V30 38 H -1.3552 1.9657 -1.4146 0
M  V30 39 H 1.8917 -1.6656 -0.9933 0
M  V30 40 H 0.0203 -0.3749 2.6631 0
M  V30 41 H -2.4035 0.1746 1.238 0
M  V30 42 H -0.5442 -1.1527 -2.4114 0
M  V30 43 H 3.3001 -3.1869 0.259 0
M  V30 44 H 1.4246 -1.8932 3.9235 0
M  V30 45 H -4.5579 -0.566 0.4155 0
M  V30 46 H -2.6944 -1.8963 -3.242 0
M  V30 47 H 3.3298 -2.7619 4.9019 0
M  V30 48 H 3.893 -4.4218 4.8018 0
M  V30 49 H 2.17 -4.0959 4.6285 0
M  V30 50 H 3.7089 -5.1586 1.6193 0
M  V30 51 H 4.8241 -5.0658 2.9804 0
M  V30 52 H 4.9809 -3.9022 1.6751 0
M  V30 53 H -4.8455 -1.7722 -4.0787 0
M  V30 54 H -6.2469 -2.6545 -3.4956 0
M  V30 55 H -4.6445 -3.3461 -3.2528 0
M  V30 56 H -6.174 -2.2548 -0.2491 0
M  V30 57 H -7.1728 -1.9948 -1.6772 0
M  V30 58 H -6.4867 -0.602 -0.8575 0
M  V30 END ATOM
M  V30 BEGIN BOND
M  V30 1 2 1 2
M  V30 2 1 1 3
M  V30 3 1 1 4
M  V30 4 1 2 5
M  V30 5 1 2 6
M  V30 6 2 5 7
M  V30 7 2 6 8
M  V30 8 1 7 9
M  V30 9 2 9 10
M  V30 10 1 10 11
M  V30 11 1 10 12
M  V30 12 2 11 13
M  V30 13 1 11 14
M  V30 14 2 12 15
M  V30 15 1 12 16
M  V30 16 1 13 17
M  V30 17 2 14 18
M  V30 18 1 15 19
M  V30 19 2 16 20
M  V30 20 2 17 21
M  V30 21 2 19 22
M  V30 22 1 21 23
M  V30 23 1 22 24
M  V30 24 1 23 25
M  V30 25 1 23 26
M  V30 26 1 24 27
M  V30 27 1 24 28
M  V30 28 1 8 9
M  V30 29 1 18 21
M  V30 30 1 20 22
M  V30 31 1 3 29
M  V30 32 1 3 30
M  V30 33 1 3 31
M  V30 34 1 4 32
M  V30 35 1 4 33
M  V30 36 1 4 34
M  V30 37 1 5 35
M  V30 38 1 6 36
M  V30 39 1 7 37
M  V30 40 1 8 38
M  V30 41 1 13 39
M  V30 42 1 14 40
M  V30 43 1 15 41
M  V30 44 1 16 42
M  V30 45 1 17 43
M  V30 46 1 18 44
M  V30 47 1 19 45
M  V30 48 1 20 46
M  V30 49 1 25 47
M  V30 50 1 25 48
M  V30 51 1 25 49
M  V30 52 1 26 50
M  V30 53 1 26 51
M  V30 54 1 26 52
M  V30 55 1 27 53
M  V30 56 1 27 54
M  V30 57 1 27 55
M  V30 58 1 28 56
M  V30 59 1 28 57
M  V30 60 1 28 58
M  V30 END BOND
M  V30 END CTAB
M  END
>  <NO.>
5760

>  <Name>
gentian violet

>  <SMILES>
CN(C)c1ccc(C(=C2C=CC(=[N+](C)C)C=C2)c2ccc(N(C)C)cc2)cc1

>  <logBB>


>  <Class>
-1

>  <MW>
372.24

>  <nHBAcc>
2

>  <nHBDon>
0

>  <SLogP>
4.46

>  <TopoPSA>
9.49

>  <MMFF94 Energy>
100.32

$$$$
CN(CC(=O)N1CCOCC1)Cc1c(Cl)cccc1NC(=O)c1ccccc1
Actelion Java MolfileCreator 2.0

  0  0  0  0  0  0              0 V3000
M  V30 BEGIN CTAB
M  V30 COUNTS 52 54 0 0 0
M  V30 BEGIN ATOM
M  V30 1 Cl 3.4467 -2.4037 1.5218 0
M  V30 2 C 3.2624 -0.7271 1.908 0
M  V30 3 C 2.1523 0.0344 1.48 0
M  V30 4 C 4.2776 -0.1569 2.6837 0
M  V30 5 C 2.0988 1.398 1.8618 0
M  V30 6 C 1.0379 -0.6154 0.6711 0
M  V30 7 C 4.2104 1.1808 3.0497 0
M  V30 8 N 1.049 2.2291 1.4078 0
M  V30 9 C 3.1287 1.9532 2.6364 0
M  V30 10 N 1.3825 -0.9125 -0.7358 0
M  V30 11 C 0.495 3.282 2.1158 0
M  V30 12 C 0.255 -1.5761 -1.4387 0
M  V30 13 C 1.7853 0.2781 -1.4834 0
M  V30 14 O 0.7685 3.6027 3.2662 0
M  V30 15 C -0.5671 4.0338 1.3914 0
M  V30 16 C -0.0457 -3.0134 -0.9637 0
M  V30 17 C -1.6475 4.5383 2.1249 0
M  V30 18 C -0.494 4.265 0.0109 0
M  V30 19 O 0.5639 -3.5584 -0.0437 0
M  V30 20 N -1.0742 -3.68 -1.6279 0
M  V30 21 C -2.6631 5.2441 1.4786 0
M  V30 22 C -1.5123 4.9735 -0.6308 0
M  V30 23 C -1.3542 -5.0787 -1.2872 0
M  V30 24 C -1.8077 -3.1892 -2.7992 0
M  V30 25 C -2.5968 5.4572 0.1018 0
M  V30 26 C -2.8599 -5.3536 -1.2597 0
M  V30 27 C -3.2961 -3.5448 -2.7087 0
M  V30 28 O -3.483 -4.9491 -2.4895 0
M  V30 29 H 5.1237 -0.758 3.008 0
M  V30 30 H 0.1279 -0.0045 0.7079 0
M  V30 31 H 0.7548 -1.5268 1.2093 0
M  V30 32 H 4.9973 1.6249 3.6533 0
M  V30 33 H 0.614 1.9774 0.5329 0
M  V30 34 H 3.1075 3.0029 2.9219 0
M  V30 35 H 0.5091 -1.663 -2.5028 0
M  V30 36 H -0.6557 -0.9724 -1.345 0
M  V30 37 H 2.0594 0.0123 -2.5109 0
M  V30 38 H 0.9856 1.0257 -1.5294 0
M  V30 39 H 2.6775 0.7438 -1.053 0
M  V30 40 H -1.6985 4.3813 3.2009 0
M  V30 41 H 0.3611 3.9317 -0.57 0
M  V30 42 H -3.5019 5.6333 2.051 0
M  V30 43 H -1.455 5.1627 -1.7001 0
M  V30 44 H -0.9066 -5.3575 -0.3286 0
M  V30 45 H -0.881 -5.6842 -2.0693 0
M  V30 46 H -1.3598 -3.684 -3.6689 0
M  V30 47 H -1.6941 -2.1118 -2.9302 0
M  V30 48 H -3.386 6.0141 -0.3981 0
M  V30 49 H -3.043 -6.4246 -1.1293 0
M  V30 50 H -3.3415 -4.8264 -0.4276 0
M  V30 51 H -3.7835 -2.9897 -1.8982 0
M  V30 52 H -3.7999 -3.2821 -3.6441 0
M  V30 END ATOM
M  V30 BEGIN BOND
M  V30 1 1 1 2
M  V30 2 2 2 3
M  V30 3 1 2 4
M  V30 4 1 3 5
M  V30 5 1 3 6
M  V30 6 2 4 7
M  V30 7 1 5 8
M  V30 8 2 5 9
M  V30 9 1 6 10
M  V30 10 1 8 11
M  V30 11 1 10 12
M  V30 12 1 10 13
M  V30 13 2 11 14
M  V30 14 1 11 15
M  V30 15 1 12 16
M  V30 16 2 15 17
M  V30 17 1 15 18
M  V30 18 2 16 19
M  V30 19 1 16 20
M  V30 20 1 17 21
M  V30 21 2 18 22
M  V30 22 1 20 23
M  V30 23 1 20 24
M  V30 24 2 21 25
M  V30 25 1 23 26
M  V30 26 1 24 27
M  V30 27 1 26 28
M  V30 28 1 7 9
M  V30 29 1 22 25
M  V30 30 1 27 28
M  V30 31 1 4 29
M  V30 32 1 6 30
M  V30 33 1 6 31
M  V30 34 1 7 32
M  V30 35 1 8 33
M  V30 36 1 9 34
M  V30 37 1 12 35
M  V30 38 1 12 36
M  V30 39 1 13 37
M  V30 40 1 13 38
M  V30 41 1 13 39
M  V30 42 1 17 40
M  V30 43 1 18 41
M  V30 44 1 21 42
M  V30 45 1 22 43
M  V30 46 1 23 44
M  V30 47 1 23 45
M  V30 48 1 24 46
M  V30 49 1 24 47
M  V30 50 1 25 48
M  V30 51 1 26 49
M  V30 52 1 26 50
M  V30 53 1 27 51
M  V30 54 1 27 52
M  V30 END BOND
M  V30 END CTAB
M  END
>  <NO.>
5761

>  <Name>
fominoben

>  <SMILES>
CN(CC(=O)N1CCOCC1)Cc1c(Cl)cccc1NC(=O)c1ccccc1

>  <logBB>


>  <Class>
-1

>  <MW>
401.15

>  <nHBAcc>
4

>  <nHBDon>
1

>  <SLogP>
2.88

>  <TopoPSA>
61.88

>  <MMFF94 Energy>
123.13

$$$$
CN(c1nccc(=O)[nH]1)C1CCN(c2nc3ccccc3n2Cc2ccc(F)cc2)CC1
Actelion Java MolfileCreator 2.0

  0  0  0  0  0  0              0 V3000
M  V30 BEGIN CTAB
M  V30 COUNTS 57 61 0 0 0
M  V30 BEGIN ATOM
M  V30 1 F -3.1967 -6.321 3.1167 0
M  V30 2 C -2.4043 -5.2492 2.9854 0
M  V30 3 C -2.8605 -4.1422 2.2817 0
M  V30 4 C -1.1393 -5.259 3.5595 0
M  V30 5 C -2.0361 -3.0241 2.1473 0
M  V30 6 C -0.3123 -4.1423 3.4259 0
M  V30 7 C -0.7485 -3.0142 2.7107 0
M  V30 8 C 0.1436 -1.8003 2.5807 0
M  V30 9 N 0.4598 -1.4863 1.1974 0
M  V30 10 C -0.0649 -0.4538 0.4523 0
M  V30 11 C 1.3554 -2.1687 0.4023 0
M  V30 12 N 0.4123 -0.4545 -0.77 0
M  V30 13 N -0.9551 0.4344 0.9678 0
M  V30 14 C 1.2951 -1.5044 -0.8197 0
M  V30 15 C 2.1843 -3.277 0.6192 0
M  V30 16 C -2.1389 0.7315 0.1557 0
M  V30 17 C -0.397 1.6014 1.6559 0
M  V30 18 C 2.0908 -1.9501 -1.8849 0
M  V30 19 C 2.9711 -3.7059 -0.4558 0
M  V30 20 C -1.8173 1.7521 -0.9307 0
M  V30 21 C 0.0643 2.6324 0.6302 0
M  V30 22 C 2.928 -3.0545 -1.6887 0
M  V30 23 C -1.0656 2.9588 -0.3566 0
M  V30 24 N -0.6171 3.8651 -1.4264 0
M  V30 25 C 0.4296 3.6539 -2.3177 0
M  V30 26 C -1.2957 5.1654 -1.4634 0
M  V30 27 N 0.843 4.645 -3.062 0
M  V30 28 N 1.0249 2.4164 -2.4242 0
M  V30 29 C 1.8694 4.4303 -3.9359 0
M  V30 30 C 2.048 2.1427 -3.2863 0
M  V30 31 C 2.4996 3.2693 -4.1053 0
M  V30 32 O 2.5774 1.0432 -3.3988 0
M  V30 33 H -3.8522 -4.1563 1.8412 0
M  V30 34 H -0.8063 -6.1353 4.1064 0
M  V30 35 H -2.4023 -2.1612 1.5944 0
M  V30 36 H 0.6752 -4.1622 3.8819 0
M  V30 37 H 1.0984 -1.9488 3.0991 0
M  V30 38 H -0.3404 -0.9411 3.0553 0
M  V30 39 H 2.2204 -3.7926 1.5719 0
M  V30 40 H -2.5482 -0.1832 -0.291 0
M  V30 41 H -2.9241 1.1289 0.8112 0
M  V30 42 H 0.4392 1.3186 2.307 0
M  V30 43 H -1.1644 2.0372 2.3078 0
M  V30 44 H 2.0591 -1.4366 -2.8401 0
M  V30 45 H 3.6278 -4.5638 -0.3284 0
M  V30 46 H -2.7513 2.0899 -1.3981 0
M  V30 47 H -1.2582 1.2671 -1.7344 0
M  V30 48 H 0.3801 3.5478 1.1462 0
M  V30 49 H 0.9569 2.2555 0.1239 0
M  V30 50 H 3.5506 -3.4023 -2.5093 0
M  V30 51 H -1.8111 3.4892 0.2542 0
M  V30 52 H -0.6873 5.9202 -0.9545 0
M  V30 53 H -2.2766 5.1318 -0.9767 0
M  V30 54 H -1.4792 5.4895 -2.4938 0
M  V30 55 H 0.7251 1.6262 -1.8695 0
M  V30 56 H 2.1686 5.2942 -4.5228 0
M  V30 57 H 3.3088 3.1158 -4.8023 0
M  V30 END ATOM
M  V30 BEGIN BOND
M  V30 1 1 1 2
M  V30 2 2 2 3
M  V30 3 1 2 4
M  V30 4 1 3 5
M  V30 5 2 4 6
M  V30 6 2 5 7
M  V30 7 1 7 8
M  V30 8 1 8 9
M  V30 9 1 9 10
M  V30 10 1 9 11
M  V30 11 2 10 12
M  V30 12 1 10 13
M  V30 13 2 11 14
M  V30 14 1 11 15
M  V30 15 1 13 16
M  V30 16 1 13 17
M  V30 17 1 14 18
M  V30 18 2 15 19
M  V30 19 1 16 20
M  V30 20 1 17 21
M  V30 21 2 18 22
M  V30 22 1 20 23
M  V30 23 1 23 24
M  V30 24 1 24 25
M  V30 25 1 24 26
M  V30 26 2 25 27
M  V30 27 1 25 28
M  V30 28 1 27 29
M  V30 29 1 28 30
M  V30 30 2 29 31
M  V30 31 2 30 32
M  V30 32 1 6 7
M  V30 33 1 12 14
M  V30 34 1 19 22
M  V30 35 1 21 23
M  V30 36 1 30 31
M  V30 37 1 3 33
M  V30 38 1 4 34
M  V30 39 1 5 35
M  V30 40 1 6 36
M  V30 41 1 8 37
M  V30 42 1 8 38
M  V30 43 1 15 39
M  V30 44 1 16 40
M  V30 45 1 16 41
M  V30 46 1 17 42
M  V30 47 1 17 43
M  V30 48 1 18 44
M  V30 49 1 19 45
M  V30 50 1 20 46
M  V30 51 1 20 47
M  V30 52 1 21 48
M  V30 53 1 21 49
M  V30 54 1 22 50
M  V30 55 1 23 51
M  V30 56 1 26 52
M  V30 57 1 26 53
M  V30 58 1 26 54
M  V30 59 1 28 55
M  V30 60 1 29 56
M  V30 61 1 31 57
M  V30 END BOND
M  V30 END CTAB
M  END
>  <NO.>
5763

>  <Name>
mizolastine

>  <SMILES>
CN(c1nccc(=O)[nH]1)C1CCN(c2nc3ccccc3n2Cc2ccc(F)cc2)CC1

>  <logBB>


>  <Class>
-1

>  <MW>
432.21

>  <nHBAcc>
5

>  <nHBDon>
1

>  <SLogP>
3.41

>  <TopoPSA>
70.05

>  <MMFF94 Energy>
-90.962

$$$$
CN1CC(C(=O)NC2(C)OC3(O)C4CCCN4C(=O)C(Cc4ccccc4)N3C2=O)C=C2c3cccc4[nH]cc(c34)CC21
Actelion Java MolfileCreator 2.0

  0  0  0  0  0  0              0 V3000
M  V30 BEGIN CTAB
M  V30 COUNTS 78 85 0 0 0
M  V30 BEGIN ATOM
M  V30 1 O 2.6693 -3.5603 -4.0465 0
M  V30 2 C 2.7531 -2.9103 -3.006 0
M  V30 3 N 2.5534 -3.4947 -1.7675 0
M  V30 4 C 3.3483 -1.4742 -2.9655 0
M  V30 5 C 2.4628 -2.7625 -0.4998 0
M  V30 6 C 2.4309 -4.9244 -1.5648 0
M  V30 7 N 2.9688 -0.7542 -1.74 0
M  V30 8 C 3.1501 -0.7252 -4.2949 0
M  V30 9 C 3.2067 -1.4002 -0.4944 0
M  V30 10 C 2.9008 -3.8075 0.5204 0
M  V30 11 C 2.2777 -5.0849 -0.0527 0
M  V30 12 C 1.8853 0.0802 -1.5809 0
M  V30 13 C 3.9946 0.5281 -4.3977 0
M  V30 14 O 2.6837 -0.5613 0.519 0
M  V30 15 O 4.5944 -1.5349 -0.3365 0
M  V30 16 O 1.1138 0.4786 -2.439 0
M  V30 17 C 1.7495 0.3405 -0.0758 0
M  V30 18 C 3.4001 1.7959 -4.3567 0
M  V30 19 C 5.3875 0.4385 -4.5364 0
M  V30 20 N 0.4043 -0.0098 0.3254 0
M  V30 21 C 2.1329 1.7799 0.2362 0
M  V30 22 C 4.1821 2.9494 -4.4344 0
M  V30 23 C 6.1682 1.593 -4.6149 0
M  V30 24 C -0.0286 -0.0073 1.6338 0
M  V30 25 C 5.5658 2.848 -4.5608 0
M  V30 26 O 0.7019 0.2536 2.5832 0
M  V30 27 C -1.515 -0.3513 1.7812 0
M  V30 28 C -2.352 0.8595 1.4554 0
M  V30 29 C -1.7993 -0.8575 3.205 0
M  V30 30 C -3.4544 1.1576 2.1692 0
M  V30 31 N -3.2476 -1.0636 3.411 0
M  V30 32 C -4.2496 2.3718 1.8715 0
M  V30 33 C -3.9773 0.2408 3.3232 0
M  V30 34 C -3.4634 -1.715 4.7066 0
M  V30 35 C -5.5861 2.2962 2.2856 0
M  V30 36 C -3.8358 3.5588 1.2559 0
M  V30 37 C -5.5311 -0.019 3.2405 0
M  V30 38 C -6.4724 3.3427 2.094 0
M  V30 39 C -6.2658 1.2393 2.9282 0
M  V30 40 C -4.7377 4.6156 1.0631 0
M  V30 41 N -7.6783 2.9247 2.6148 0
M  V30 42 C -6.0772 4.5311 1.4763 0
M  V30 43 C -7.5644 1.6484 3.1242 0
M  V30 44 H 4.4281 -1.6532 -2.8583 0
M  V30 45 H 1.3877 -2.5789 -0.3603 0
M  V30 46 H 3.3444 -5.402 -1.9343 0
M  V30 47 H 1.5754 -5.3164 -2.1227 0
M  V30 48 H 2.092 -0.4942 -4.462 0
M  V30 49 H 3.4291 -1.3739 -5.1361 0
M  V30 50 H 3.9915 -3.9125 0.5454 0
M  V30 51 H 2.5472 -3.585 1.5311 0
M  V30 52 H 2.7533 -5.9953 0.3223 0
M  V30 53 H 1.2135 -5.1253 0.2102 0
M  V30 54 H 4.9499 -0.6893 -0.6534 0
M  V30 55 H 2.3199 1.8948 -4.2657 0
M  V30 56 H 5.8751 -0.5321 -4.594 0
M  V30 57 H -0.2814 -0.1153 -0.4149 0
M  V30 58 H 3.1263 2.0144 -0.1637 0
M  V30 59 H 1.4178 2.4874 -0.1971 0
M  V30 60 H 2.1835 1.9592 1.3149 0
M  V30 61 H 3.7088 3.9274 -4.402 0
M  V30 62 H 7.2465 1.5131 -4.7255 0
M  V30 63 H 6.1731 3.7468 -4.6263 0
M  V30 64 H -1.7545 -1.1428 1.0585 0
M  V30 65 H -2.0391 1.4814 0.6228 0
M  V30 66 H -1.2655 -1.8084 3.3351 0
M  V30 67 H -1.4012 -0.1681 3.9632 0
M  V30 68 H -3.7843 0.8103 4.2467 0
M  V30 69 H -3.1507 -1.0833 5.5458 0
M  V30 70 H -2.9024 -2.6552 4.7607 0
M  V30 71 H -4.5132 -1.9882 4.8473 0
M  V30 72 H -2.8065 3.6823 0.9323 0
M  V30 73 H -5.7442 -0.7553 2.4549 0
M  V30 74 H -5.9029 -0.4225 4.1886 0
M  V30 75 H -4.3894 5.5284 0.5833 0
M  V30 76 H -8.5241 3.4775 2.6178 0
M  V30 77 H -6.7653 5.3551 1.3227 0
M  V30 78 H -8.4167 1.1549 3.5715 0
M  V30 END ATOM
M  V30 BEGIN BOND
M  V30 1 2 1 2
M  V30 2 1 2 3
M  V30 3 1 2 4
M  V30 4 1 3 5
M  V30 5 1 3 6
M  V30 6 1 4 7
M  V30 7 1 4 8
M  V30 8 1 5 9
M  V30 9 1 5 10
M  V30 10 1 6 11
M  V30 11 1 7 12
M  V30 12 1 8 13
M  V30 13 1 9 14
M  V30 14 1 9 15
M  V30 15 2 12 16
M  V30 16 1 12 17
M  V30 17 2 13 18
M  V30 18 1 13 19
M  V30 19 1 17 20
M  V30 20 1 17 21
M  V30 21 1 18 22
M  V30 22 2 19 23
M  V30 23 1 20 24
M  V30 24 2 22 25
M  V30 25 2 24 26
M  V30 26 1 24 27
M  V30 27 1 27 28
M  V30 28 1 27 29
M  V30 29 2 28 30
M  V30 30 1 29 31
M  V30 31 1 30 32
M  V30 32 1 30 33
M  V30 33 1 31 34
M  V30 34 2 32 35
M  V30 35 1 32 36
M  V30 36 1 33 37
M  V30 37 1 35 38
M  V30 38 1 35 39
M  V30 39 2 36 40
M  V30 40 1 38 41
M  V30 41 2 38 42
M  V30 42 2 39 43
M  V30 43 1 7 9
M  V30 44 1 10 11
M  V30 45 1 14 17
M  V30 46 1 23 25
M  V30 47 1 31 33
M  V30 48 1 37 39
M  V30 49 1 40 42
M  V30 50 1 41 43
M  V30 51 1 4 44
M  V30 52 1 5 45
M  V30 53 1 6 46
M  V30 54 1 6 47
M  V30 55 1 8 48
M  V30 56 1 8 49
M  V30 57 1 10 50
M  V30 58 1 10 51
M  V30 59 1 11 52
M  V30 60 1 11 53
M  V30 61 1 15 54
M  V30 62 1 18 55
M  V30 63 1 19 56
M  V30 64 1 20 57
M  V30 65 1 21 58
M  V30 66 1 21 59
M  V30 67 1 21 60
M  V30 68 1 22 61
M  V30 69 1 23 62
M  V30 70 1 25 63
M  V30 71 1 27 64
M  V30 72 1 28 65
M  V30 73 1 29 66
M  V30 74 1 29 67
M  V30 75 1 33 68
M  V30 76 1 34 69
M  V30 77 1 34 70
M  V30 78 1 34 71
M  V30 79 1 36 72
M  V30 80 1 37 73
M  V30 81 1 37 74
M  V30 82 1 40 75
M  V30 83 1 41 76
M  V30 84 1 42 77
M  V30 85 1 43 78
M  V30 END BOND
M  V30 END CTAB
M  END
>  <NO.>
5764

>  <Name>
ergotamine

>  <SMILES>
CN1CC(C(=O)NC2(C)OC3(O)C4CCCN4C(=O)C(Cc4ccccc4)N3C2=O)C=C2c3cccc4[nH]cc(c34)CC21

>  <logBB>


>  <Class>
1

>  <MW>
581.26

>  <nHBAcc>
6

>  <nHBDon>
3

>  <SLogP>
1.99

>  <TopoPSA>
118.21

>  <MMFF94 Energy>
121.12

$$$$
CN1CCC2(C)c3cc(OC(N)=O)ccc3N(C)C12
Actelion Java MolfileCreator 2.0

  0  0  0  0  0  0              0 V3000
M  V30 BEGIN CTAB
M  V30 COUNTS 38 40 0 0 0
M  V30 BEGIN ATOM
M  V30 1 O -2.6169 3.4109 -0.7131 0
M  V30 2 C -3.3269 3.2445 0.2675 0
M  V30 3 O -3.3778 2.1391 1.0958 0
M  V30 4 N -4.2106 4.1838 0.691 0
M  V30 5 C -2.4989 1.0903 0.7879 0
M  V30 6 C -1.119 1.2811 0.7667 0
M  V30 7 C -3.0619 -0.1758 0.5908 0
M  V30 8 C -0.3195 0.176 0.502 0
M  V30 9 C -2.2359 -1.2745 0.3327 0
M  V30 10 C -0.8621 -1.0949 0.2868 0
M  V30 11 C 1.1835 0.1145 0.3792 0
M  V30 12 N 0.1105 -2.0421 0.0557 0
M  V30 13 C 1.4219 -1.3941 -0.0186 0
M  V30 14 C 1.7087 0.9161 -0.8145 0
M  V30 15 C 1.8699 0.5013 1.6886 0
M  V30 16 C -0.118 -3.3544 -0.4879 0
M  V30 17 N 2.1341 -1.3737 -1.3163 0
M  V30 18 C 1.7542 -0.1013 -1.9431 0
M  V30 19 C 3.579 -1.4854 -1.1379 0
M  V30 20 H -4.2847 5.0467 0.1734 0
M  V30 21 H -4.7849 4.0172 1.5025 0
M  V30 22 H -0.684 2.2596 0.9354 0
M  V30 23 H -4.1388 -0.3077 0.636 0
M  V30 24 H -2.6755 -2.2532 0.1764 0
M  V30 25 H 2.048 -1.8887 0.737 0
M  V30 26 H 1.0861 1.778 -1.0768 0
M  V30 27 H 2.7212 1.291 -0.6199 0
M  V30 28 H 1.6927 1.5547 1.9339 0
M  V30 29 H 1.4985 -0.0992 2.5271 0
M  V30 30 H 2.9532 0.351 1.6276 0
M  V30 31 H -0.8709 -3.8973 0.093 0
M  V30 32 H 0.7996 -3.9519 -0.4639 0
M  V30 33 H -0.4557 -3.2912 -1.5276 0
M  V30 34 H 2.4352 0.2011 -2.7463 0
M  V30 35 H 0.7602 -0.2082 -2.3956 0
M  V30 36 H 4.0868 -1.4405 -2.1077 0
M  V30 37 H 3.8313 -2.4579 -0.7003 0
M  V30 38 H 3.9994 -0.7044 -0.4953 0
M  V30 END ATOM
M  V30 BEGIN BOND
M  V30 1 2 1 2
M  V30 2 1 2 3
M  V30 3 1 2 4
M  V30 4 1 3 5
M  V30 5 2 5 6
M  V30 6 1 5 7
M  V30 7 1 6 8
M  V30 8 2 7 9
M  V30 9 2 8 10
M  V30 10 1 8 11
M  V30 11 1 10 12
M  V30 12 1 11 13
M  V30 13 1 11 14
M  V30 14 1 11 15
M  V30 15 1 12 16
M  V30 16 1 13 17
M  V30 17 1 14 18
M  V30 18 1 17 19
M  V30 19 1 9 10
M  V30 20 1 12 13
M  V30 21 1 17 18
M  V30 22 1 4 20
M  V30 23 1 4 21
M  V30 24 1 6 22
M  V30 25 1 7 23
M  V30 26 1 9 24
M  V30 27 1 13 25
M  V30 28 1 14 26
M  V30 29 1 14 27
M  V30 30 1 15 28
M  V30 31 1 15 29
M  V30 32 1 15 30
M  V30 33 1 16 31
M  V30 34 1 16 32
M  V30 35 1 16 33
M  V30 36 1 18 34
M  V30 37 1 18 35
M  V30 38 1 19 36
M  V30 39 1 19 37
M  V30 40 1 19 38
M  V30 END BOND
M  V30 END CTAB
M  END
>  <NO.>
5765

>  <Name>
physostigmine

>  <SMILES>
CN1CCC2(C)c3cc(OC(N)=O)ccc3N(C)C12

>  <logBB>


>  <Class>
-1

>  <MW>
261.15

>  <nHBAcc>
4

>  <nHBDon>
1

>  <SLogP>
1.51

>  <TopoPSA>
58.8

>  <MMFF94 Energy>
-23.723

$$$$
CN1CCc2nc(C(=O)NC3CC(C(=O)N(C)C)CCC3NC(=O)C(=O)Nc3ccc(Cl)cn3)sc2C1
Actelion Java MolfileCreator 2.0

  0  0  0  0  0  0              0 V3000
M  V30 BEGIN CTAB
M  V30 COUNTS 67 70 0 0 0
M  V30 BEGIN ATOM
M  V30 1 Cl -7.2902 -1.5357 -6.6405 0
M  V30 2 C -6.2486 -0.8311 -5.4751 0
M  V30 3 C -6.1914 -1.3143 -4.1798 0
M  V30 4 C -5.4363 0.2439 -5.8061 0
M  V30 5 N -5.388 -0.7977 -3.2177 0
M  V30 6 C -4.6013 0.7908 -4.8294 0
M  V30 7 C -4.6041 0.2438 -3.5478 0
M  V30 8 N -3.7579 0.8181 -2.6028 0
M  V30 9 C -3.6114 0.4055 -1.3003 0
M  V30 10 O -4.1459 -0.5061 -0.686 0
M  V30 11 C -2.5789 1.2727 -0.5512 0
M  V30 12 O -2.0261 2.1947 -1.1342 0
M  V30 13 N -2.3809 0.8886 0.7547 0
M  V30 14 C -1.4273 1.5093 1.665 0
M  V30 15 C 0.0372 1.4253 1.1579 0
M  V30 16 C -1.8131 2.9525 2.0102 0
M  V30 17 N 0.4104 0.0464 0.8527 0
M  V30 18 C 0.9901 2.0331 2.1957 0
M  V30 19 C -0.8316 3.5669 3.0069 0
M  V30 20 C 1.4833 -0.2706 0.0291 0
M  V30 21 C 0.6189 3.4913 2.4984 0
M  V30 22 O 2.1955 0.6227 -0.4316 0
M  V30 23 C 1.6919 -1.7 -0.2338 0
M  V30 24 C 1.595 4.0729 3.5242 0
M  V30 25 S 0.6347 -2.9129 0.4027 0
M  V30 26 N 2.6901 -2.1567 -0.9717 0
M  V30 27 O 1.2516 4.1824 4.7041 0
M  V30 28 N 2.8652 4.4386 3.0954 0
M  V30 29 C 1.5723 -4.108 -0.3566 0
M  V30 30 C 2.6163 -3.5296 -1.044 0
M  V30 31 C 3.3649 4.3751 1.7267 0
M  V30 32 C 3.8145 4.9432 4.0766 0
M  V30 33 C 1.2879 -5.5739 -0.3167 0
M  V30 34 C 3.618 -4.3448 -1.7847 0
M  V30 35 N 2.4591 -6.3823 -0.7361 0
M  V30 36 C 3.1141 -5.8011 -1.9352 0
M  V30 37 C 3.4058 -6.5692 0.3632 0
M  V30 38 H -6.803 -2.1531 -3.8603 0
M  V30 39 H -5.4453 0.6587 -6.8099 0
M  V30 40 H -3.963 1.6313 -5.0819 0
M  V30 41 H -3.1827 1.6083 -2.8755 0
M  V30 42 H -2.9652 0.1178 1.0747 0
M  V30 43 H -1.5027 0.9114 2.5839 0
M  V30 44 H 0.1382 1.9951 0.2258 0
M  V30 45 H -2.8255 2.9781 2.4313 0
M  V30 46 H -1.8384 3.5711 1.1051 0
M  V30 47 H -0.1581 -0.7096 1.2128 0
M  V30 48 H 0.9603 1.4405 3.1209 0
M  V30 49 H 2.0247 1.9623 1.8439 0
M  V30 50 H -1.1069 4.6124 3.1927 0
M  V30 51 H -0.9264 3.0452 3.9682 0
M  V30 52 H 0.6652 4.0961 1.5861 0
M  V30 53 H 2.62 4.0471 1.004 0
M  V30 54 H 3.7103 5.3718 1.4356 0
M  V30 55 H 4.209 3.6795 1.6986 0
M  V30 56 H 3.4079 4.9536 5.0909 0
M  V30 57 H 4.0943 5.9645 3.801 0
M  V30 58 H 4.7046 4.307 4.0635 0
M  V30 59 H 0.9406 -5.8865 0.6754 0
M  V30 60 H 0.4653 -5.7864 -1.0114 0
M  V30 61 H 3.8027 -3.9133 -2.7743 0
M  V30 62 H 4.5647 -4.3326 -1.2324 0
M  V30 63 H 3.9447 -6.4425 -2.2548 0
M  V30 64 H 2.3872 -5.8371 -2.7585 0
M  V30 65 H 2.9235 -7.0986 1.1926 0
M  V30 66 H 3.8106 -5.6288 0.7517 0
M  V30 67 H 4.245 -7.1961 0.0419 0
M  V30 END ATOM
M  V30 BEGIN BOND
M  V30 1 1 1 2
M  V30 2 2 2 3
M  V30 3 1 2 4
M  V30 4 1 3 5
M  V30 5 2 4 6
M  V30 6 2 5 7
M  V30 7 1 7 8
M  V30 8 1 8 9
M  V30 9 2 9 10
M  V30 10 1 9 11
M  V30 11 2 11 12
M  V30 12 1 11 13
M  V30 13 1 13 14
M  V30 14 1 14 15
M  V30 15 1 14 16
M  V30 16 1 15 17
M  V30 17 1 15 18
M  V30 18 1 16 19
M  V30 19 1 17 20
M  V30 20 1 18 21
M  V30 21 2 20 22
M  V30 22 1 20 23
M  V30 23 1 21 24
M  V30 24 1 23 25
M  V30 25 2 23 26
M  V30 26 2 24 27
M  V30 27 1 24 28
M  V30 28 1 25 29
M  V30 29 1 26 30
M  V30 30 1 28 31
M  V30 31 1 28 32
M  V30 32 1 29 33
M  V30 33 1 30 34
M  V30 34 1 33 35
M  V30 35 1 34 36
M  V30 36 1 35 37
M  V30 37 1 6 7
M  V30 38 1 19 21
M  V30 39 2 29 30
M  V30 40 1 35 36
M  V30 41 1 3 38
M  V30 42 1 4 39
M  V30 43 1 6 40
M  V30 44 1 8 41
M  V30 45 1 13 42
M  V30 46 1 14 43
M  V30 47 1 15 44
M  V30 48 1 16 45
M  V30 49 1 16 46
M  V30 50 1 17 47
M  V30 51 1 18 48
M  V30 52 1 18 49
M  V30 53 1 19 50
M  V30 54 1 19 51
M  V30 55 1 21 52
M  V30 56 1 31 53
M  V30 57 1 31 54
M  V30 58 1 31 55
M  V30 59 1 32 56
M  V30 60 1 32 57
M  V30 61 1 32 58
M  V30 62 1 33 59
M  V30 63 1 33 60
M  V30 64 1 34 61
M  V30 65 1 34 62
M  V30 66 1 36 63
M  V30 67 1 36 64
M  V30 68 1 37 65
M  V30 69 1 37 66
M  V30 70 1 37 67
M  V30 END BOND
M  V30 END CTAB
M  END
>  <NO.>
5767

>  <Name>
edoxaban

>  <SMILES>
CN1CCc2nc(C(=O)NC3CC(C(=O)N(C)C)CCC3NC(=O)C(=O)Nc3ccc(Cl)cn3)sc2C1

>  <logBB>


>  <Class>
-1

>  <MW>
547.18

>  <nHBAcc>
8

>  <nHBDon>
3

>  <SLogP>
1.29

>  <TopoPSA>
136.63

>  <MMFF94 Energy>
65.902

$$$$
CN=C(N)NC(=O)Nc1c(C)cccc1C
Actelion Java MolfileCreator 2.0

  0  0  0  0  0  0              0 V3000
M  V30 BEGIN CTAB
M  V30 COUNTS 32 32 0 0 0
M  V30 BEGIN ATOM
M  V30 1 O 0.7705 0.6163 -1.233 0
M  V30 2 C 0.7215 0.3669 -0.0359 0
M  V30 3 N -0.4402 0.0301 0.6516 0
M  V30 4 N 1.7813 0.4875 0.8595 0
M  V30 5 C -1.7074 -0.0439 0.0376 0
M  V30 6 C 3.1204 0.3186 0.6087 0
M  V30 7 C -2.325 1.1071 -0.4914 0
M  V30 8 C -2.3795 -1.2845 0.0267 0
M  V30 9 N 3.4912 -0.1471 -0.522 0
M  V30 10 N 3.9289 0.6531 1.6446 0
M  V30 11 C -3.596 0.987 -1.0757 0
M  V30 12 C -1.6696 2.461 -0.4887 0
M  V30 13 C -3.6583 -1.3642 -0.5438 0
M  V30 14 C -1.7554 -2.5323 0.5893 0
M  V30 15 C 4.903 -0.3349 -0.7986 0
M  V30 16 C -4.2594 -0.2371 -1.0975 0
M  V30 17 H -0.3147 -0.5045 1.497 0
M  V30 18 H 1.5215 0.7426 1.7928 0
M  V30 19 H 3.5903 1.0931 2.4852 0
M  V30 20 H 4.9305 0.5701 1.5432 0
M  V30 21 H -4.079 1.8564 -1.5169 0
M  V30 22 H -1.0277 2.5746 -1.3669 0
M  V30 23 H -2.4216 3.2578 -0.5105 0
M  V30 24 H -1.0798 2.6188 0.4195 0
M  V30 25 H -4.1908 -2.3121 -0.574 0
M  V30 26 H -1.6402 -2.4417 1.6741 0
M  V30 27 H -0.7774 -2.7111 0.1309 0
M  V30 28 H -2.3727 -3.4154 0.393 0
M  V30 29 H 5.4522 0.6109 -0.7476 0
M  V30 30 H 5.0202 -0.7263 -1.8138 0
M  V30 31 H 5.353 -1.061 -0.1138 0
M  V30 32 H -5.2441 -0.3127 -1.5512 0
M  V30 END ATOM
M  V30 BEGIN BOND
M  V30 1 2 1 2
M  V30 2 1 2 3
M  V30 3 1 2 4
M  V30 4 1 3 5
M  V30 5 1 4 6
M  V30 6 2 5 7
M  V30 7 1 5 8
M  V30 8 2 6 9
M  V30 9 1 6 10
M  V30 10 1 7 11
M  V30 11 1 7 12
M  V30 12 2 8 13
M  V30 13 1 8 14
M  V30 14 1 9 15
M  V30 15 2 11 16
M  V30 16 1 13 16
M  V30 17 1 3 17
M  V30 18 1 4 18
M  V30 19 1 10 19
M  V30 20 1 10 20
M  V30 21 1 11 21
M  V30 22 1 12 22
M  V30 23 1 12 23
M  V30 24 1 12 24
M  V30 25 1 13 25
M  V30 26 1 14 26
M  V30 27 1 14 27
M  V30 28 1 14 28
M  V30 29 1 15 29
M  V30 30 1 15 30
M  V30 31 1 15 31
M  V30 32 1 16 32
M  V30 END BOND
M  V30 END CTAB
M  END
>  <NO.>
5768

>  <Name>
lidamidine

>  <SMILES>
CN=C(N)NC(=O)Nc1c(C)cccc1C

>  <logBB>


>  <Class>
-1

>  <MW>
220.13

>  <nHBAcc>
2

>  <nHBDon>
3

>  <SLogP>
1.37

>  <TopoPSA>
79.51

>  <MMFF94 Energy>
-107.5

$$$$
CNC(=O)c1ccccc1Sc1ccc2c(/C=C/c3ccccn3)n[nH]c2c1
Actelion Java MolfileCreator 2.0

  0  0  0  0  0  0              0 V3000
M  V30 BEGIN CTAB
M  V30 COUNTS 46 49 0 0 0
M  V30 BEGIN ATOM
M  V30 1 S -1.0505 -3.2351 2.3447 0
M  V30 2 C -2.5929 -3.6655 1.5457 0
M  V30 3 C -0.2819 -2.0263 1.2693 0
M  V30 4 C -3.613 -2.7714 1.1679 0
M  V30 5 C -2.7738 -5.0367 1.2868 0
M  V30 6 C -0.555 -1.9352 -0.1031 0
M  V30 7 C 0.6611 -1.1668 1.8493 0
M  V30 8 C -3.5971 -1.3044 1.4186 0
M  V30 9 C -4.7504 -3.2544 0.4945 0
M  V30 10 C -3.9156 -5.5069 0.6338 0
M  V30 11 C 0.1124 -0.9441 -0.8355 0
M  V30 12 C 1.3273 -0.1894 1.0946 0
M  V30 13 O -4.0306 -0.5387 0.5641 0
M  V30 14 N -3.133 -0.8901 2.6452 0
M  V30 15 C -4.901 -4.6144 0.2298 0
M  V30 16 N 0.0402 -0.5924 -2.1547 0
M  V30 17 C 1.0412 -0.0743 -0.2784 0
M  V30 18 C -3.0618 0.5069 2.9817 0
M  V30 19 N 0.8573 0.4114 -2.5049 0
M  V30 20 C 1.4759 0.7476 -1.3641 0
M  V30 21 C 2.444 1.8012 -1.2558 0
M  V30 22 C 2.9297 2.5043 -2.2939 0
M  V30 23 C 3.9214 3.5776 -2.1967 0
M  V30 24 N 4.764 3.665 -3.2515 0
M  V30 25 C 3.9614 4.4769 -1.1343 0
M  V30 26 C 5.6856 4.6525 -3.2331 0
M  V30 27 C 4.9217 5.4865 -1.1423 0
M  V30 28 C 5.805 5.5767 -2.2101 0
M  V30 29 H -2.0119 -5.7578 1.5798 0
M  V30 30 H -1.2545 -2.5985 -0.5988 0
M  V30 31 H 0.8922 -1.244 2.9102 0
M  V30 32 H -5.5317 -2.5618 0.183 0
M  V30 33 H -4.0292 -6.5702 0.4361 0
M  V30 34 H 2.0524 0.4627 1.5715 0
M  V30 35 H -2.7638 -1.5734 3.2949 0
M  V30 36 H -5.7886 -4.9736 -0.2853 0
M  V30 37 H -0.5505 -0.9997 -2.8702 0
M  V30 38 H -4.0268 0.9834 2.7889 0
M  V30 39 H -2.2924 0.9809 2.3665 0
M  V30 40 H -2.8033 0.6004 4.0388 0
M  V30 41 H 2.8063 2.0196 -0.2564 0
M  V30 42 H 2.6151 2.2705 -3.3086 0
M  V30 43 H 3.2528 4.4144 -0.316 0
M  V30 44 H 6.3462 4.682 -4.0947 0
M  V30 45 H 4.973 6.2002 -0.3252 0
M  V30 46 H 6.5624 6.3511 -2.2489 0
M  V30 END ATOM
M  V30 BEGIN BOND
M  V30 1 1 1 2
M  V30 2 1 1 3
M  V30 3 2 2 4
M  V30 4 1 2 5
M  V30 5 2 3 6
M  V30 6 1 3 7
M  V30 7 1 4 8
M  V30 8 1 4 9
M  V30 9 2 5 10
M  V30 10 1 6 11
M  V30 11 2 7 12
M  V30 12 2 8 13
M  V30 13 1 8 14
M  V30 14 2 9 15
M  V30 15 1 11 16
M  V30 16 2 11 17
M  V30 17 1 14 18
M  V30 18 1 16 19
M  V30 19 1 17 20
M  V30 20 1 20 21
M  V30 21 2 21 22
M  V30 22 1 22 23
M  V30 23 2 23 24
M  V30 24 1 23 25
M  V30 25 1 24 26
M  V30 26 2 25 27
M  V30 27 2 26 28
M  V30 28 1 10 15
M  V30 29 1 12 17
M  V30 30 2 19 20
M  V30 31 1 27 28
M  V30 32 1 5 29
M  V30 33 1 6 30
M  V30 34 1 7 31
M  V30 35 1 9 32
M  V30 36 1 10 33
M  V30 37 1 12 34
M  V30 38 1 14 35
M  V30 39 1 15 36
M  V30 40 1 16 37
M  V30 41 1 18 38
M  V30 42 1 18 39
M  V30 43 1 18 40
M  V30 44 1 21 41
M  V30 45 1 22 42
M  V30 46 1 25 43
M  V30 47 1 26 44
M  V30 48 1 27 45
M  V30 49 1 28 46
M  V30 END BOND
M  V30 END CTAB
M  END
>  <NO.>
5771

>  <Name>
axitinib

>  <SMILES>
CNC(=O)c1ccccc1Sc1ccc2c(/C=C/c3ccccn3)n[nH]c2c1

>  <logBB>


>  <Class>
-1

>  <MW>
386.12

>  <nHBAcc>
4

>  <nHBDon>
2

>  <SLogP>
4.64

>  <TopoPSA>
70.67

>  <MMFF94 Energy>
49.414

$$$$
CNC(C)CCC=C(C)C
Actelion Java MolfileCreator 2.0

  0  0  0  0  0  0              0 V3000
M  V30 BEGIN CTAB
M  V30 COUNTS 29 28 0 0 0
M  V30 BEGIN ATOM
M  V30 1 N 1.6009 0.8383 0.6858 0
M  V30 2 C 1.3097 -0.3985 1.4166 0 CFG=2
M  V30 3 C 2.9706 1.3018 0.8352 0
M  V30 4 C -0.0728 -0.9578 1.0072 0
M  V30 5 C 1.3274 -0.1763 2.9345 0
M  V30 6 C -0.1874 -1.4039 -0.4571 0
M  V30 7 C -0.4761 -0.2825 -1.4175 0
M  V30 8 C -1.6665 0.0691 -1.9422 0
M  V30 9 C -1.7642 1.2079 -2.9232 0
M  V30 10 C -2.9803 -0.5857 -1.6187 0
M  V30 11 H 0.9493 1.5716 0.9643 0
M  V30 12 H 2.0629 -1.1563 1.1658 0
M  V30 13 H 3.1372 2.1518 0.1658 0
M  V30 14 H 3.1831 1.6408 1.8531 0
M  V30 15 H 3.6882 0.5234 0.5571 0
M  V30 16 H -0.8642 -0.2347 1.2463 0
M  V30 17 H -0.2724 -1.8418 1.6282 0
M  V30 18 H 2.3218 0.1114 3.2898 0
M  V30 19 H 0.6187 0.6044 3.233 0
M  V30 20 H 1.0533 -1.096 3.4632 0
M  V30 21 H 0.7342 -1.909 -0.7712 0
M  V30 22 H -0.9689 -2.1683 -0.5287 0
M  V30 23 H 0.409 0.2808 -1.7141 0
M  V30 24 H -2.1843 0.8555 -3.8709 0
M  V30 25 H -0.7888 1.6567 -3.1388 0
M  V30 26 H -2.4122 1.9963 -2.5263 0
M  V30 27 H -2.9133 -1.3143 -0.8074 0
M  V30 28 H -3.7099 0.1692 -1.3063 0
M  V30 29 H -3.3729 -1.0988 -2.5025 0
M  V30 END ATOM
M  V30 BEGIN BOND
M  V30 1 1 1 2
M  V30 2 1 1 3
M  V30 3 1 2 4
M  V30 4 1 2 5
M  V30 5 1 4 6
M  V30 6 1 6 7
M  V30 7 2 7 8
M  V30 8 1 8 9
M  V30 9 1 8 10
M  V30 10 1 1 11
M  V30 11 1 2 12
M  V30 12 1 3 13
M  V30 13 1 3 14
M  V30 14 1 3 15
M  V30 15 1 4 16
M  V30 16 1 4 17
M  V30 17 1 5 18
M  V30 18 1 5 19
M  V30 19 1 5 20
M  V30 20 1 6 21
M  V30 21 1 6 22
M  V30 22 1 7 23
M  V30 23 1 9 24
M  V30 24 1 9 25
M  V30 25 1 9 26
M  V30 26 1 10 27
M  V30 27 1 10 28
M  V30 28 1 10 29
M  V30 END BOND
M  V30 BEGIN COLLECTION
M  V30 MDLV30/STERAC1 ATOMS=(1 2)
M  V30 END COLLECTION
M  V30 END CTAB
M  END
>  <NO.>
5773

>  <Name>
isometheptene

>  <SMILES>
CNC(C)CCC=C(C)C

>  <logBB>


>  <Class>
1

>  <MW>
141.15

>  <nHBAcc>
1

>  <nHBDon>
1

>  <SLogP>
2.34

>  <TopoPSA>
12.03

>  <MMFF94 Energy>
12.548

$$$$
CNC1(C)C2CCC(C2)C1(C)C
Actelion Java MolfileCreator 2.0

  0  0  0  0  0  0              0 V3000
M  V30 BEGIN CTAB
M  V30 COUNTS 33 34 0 0 0
M  V30 BEGIN ATOM
M  V30 1 N 0.7892 -0.0789 -1.6579 0
M  V30 2 C 0.6472 0.2888 -0.2335 0
M  V30 3 C 1.1084 1.0082 -2.5744 0
M  V30 4 C 0.1497 -0.9424 0.6748 0
M  V30 5 C -0.4905 1.3408 0.0399 0
M  V30 6 C 2.004 0.8757 0.2347 0
M  V30 7 C -1.1607 -0.3617 1.3172 0
M  V30 8 C -0.1156 -2.2578 -0.0915 0
M  V30 9 C 1.1276 -1.3332 1.8116 0
M  V30 10 C -0.8092 1.1156 1.5224 0
M  V30 11 C -1.8374 0.9299 -0.5929 0
M  V30 12 C -2.3053 -0.2251 0.2974 0
M  V30 13 H -0.0628 -0.5271 -1.9874 0
M  V30 14 H 1.0804 0.6245 -3.5998 0
M  V30 15 H 2.1189 1.3951 -2.4188 0
M  V30 16 H 0.3894 1.8301 -2.5162 0
M  V30 17 H -0.2086 2.3682 -0.2062 0
M  V30 18 H 2.0211 1.1229 1.2994 0
M  V30 19 H 2.2387 1.8148 -0.2787 0
M  V30 20 H 2.8255 0.1762 0.0424 0
M  V30 21 H -1.4705 -0.8823 2.2274 0
M  V30 22 H -0.7901 -2.1433 -0.9433 0
M  V30 23 H -0.5669 -3.0069 0.5698 0
M  V30 24 H 0.8206 -2.6792 -0.4755 0
M  V30 25 H 2.0917 -1.6622 1.4092 0
M  V30 26 H 0.7217 -2.1642 2.4015 0
M  V30 27 H 1.3106 -0.5207 2.5198 0
M  V30 28 H 0.0306 1.2891 2.1976 0
M  V30 29 H -1.6588 1.7136 1.8726 0
M  V30 30 H -2.5538 1.7581 -0.5279 0
M  V30 31 H -1.7725 0.6461 -1.6454 0
M  V30 32 H -3.2341 0.0581 0.8083 0
M  V30 33 H -2.521 -1.1344 -0.2663 0
M  V30 END ATOM
M  V30 BEGIN BOND
M  V30 1 1 1 2
M  V30 2 1 1 3
M  V30 3 1 2 4
M  V30 4 1 2 5
M  V30 5 1 2 6
M  V30 6 1 4 7
M  V30 7 1 4 8
M  V30 8 1 4 9
M  V30 9 1 5 10
M  V30 10 1 5 11
M  V30 11 1 7 12
M  V30 12 1 7 10
M  V30 13 1 11 12
M  V30 14 1 1 13
M  V30 15 1 3 14
M  V30 16 1 3 15
M  V30 17 1 3 16
M  V30 18 1 5 17
M  V30 19 1 6 18
M  V30 20 1 6 19
M  V30 21 1 6 20
M  V30 22 1 7 21
M  V30 23 1 8 22
M  V30 24 1 8 23
M  V30 25 1 8 24
M  V30 26 1 9 25
M  V30 27 1 9 26
M  V30 28 1 9 27
M  V30 29 1 10 28
M  V30 30 1 10 29
M  V30 31 1 11 30
M  V30 32 1 11 31
M  V30 33 1 12 32
M  V30 34 1 12 33
M  V30 END BOND
M  V30 END CTAB
M  END
>  <NO.>
5774

>  <Name>
mecamylamine

>  <SMILES>
CNC1(C)C2CCC(C2)C1(C)C

>  <logBB>


>  <Class>
-1

>  <MW>
167.17

>  <nHBAcc>
1

>  <nHBDon>
1

>  <SLogP>
2.42

>  <TopoPSA>
12.03

>  <MMFF94 Energy>
57.731

$$$$
COC(=O)C1=COC(C)C2CN3CCc4c([nH]c5ccccc45)C3CC12
Actelion Java MolfileCreator 2.0

  0  0  0  0  0  0              0 V3000
M  V30 BEGIN CTAB
M  V30 COUNTS 50 54 0 0 0
M  V30 BEGIN ATOM
M  V30 1 O -1.368 -1.207 -2.9794 0
M  V30 2 C -0.2939 -1.7702 -3.1388 0
M  V30 3 O -0.0125 -2.6721 -4.1121 0
M  V30 4 C 0.8731 -1.5564 -2.2467 0
M  V30 5 C -1.1021 -2.9331 -4.997 0
M  V30 6 C 2.1203 -1.7431 -2.7068 0
M  V30 7 C 0.6362 -1.026 -0.8562 0
M  V30 8 O 3.2763 -1.4522 -2.028 0
M  V30 9 C 1.9214 -1.1584 -0.0089 0
M  V30 10 C -0.4882 -1.7132 -0.0678 0
M  V30 11 C 3.1102 -0.6495 -0.8391 0
M  V30 12 C 1.7181 -0.4363 1.3285 0
M  V30 13 C -0.6855 -1.0543 1.3055 0
M  V30 14 C 4.44 -0.7103 -0.0944 0
M  V30 15 N 0.5825 -0.999 2.0806 0
M  V30 16 C -1.317 0.3088 1.2464 0
M  V30 17 C 0.3767 -0.2772 3.366 0
M  V30 18 N -2.2451 0.7395 0.3363 0
M  V30 19 C -1.0849 1.3394 2.1366 0
M  V30 20 C -0.0993 1.1959 3.246 0
M  V30 21 C -2.6063 2.0411 0.6169 0
M  V30 22 C -1.891 2.4416 1.7485 0
M  V30 23 C -3.505 2.8865 -0.0446 0
M  V30 24 C -2.0811 3.7468 2.2425 0
M  V30 25 C -3.6775 4.1768 0.4658 0
M  V30 26 C -2.9775 4.6032 1.5924 0
M  V30 27 H -0.7685 -3.6639 -5.7389 0
M  V30 28 H -1.9483 -3.3582 -4.448 0
M  V30 29 H -1.3988 -2.0188 -5.5205 0
M  V30 30 H 2.3641 -2.1354 -3.6875 0
M  V30 31 H 0.3901 0.0391 -0.9734 0
M  V30 32 H 2.097 -2.2263 0.1976 0
M  V30 33 H -1.4345 -1.7067 -0.6166 0
M  V30 34 H -0.2373 -2.7739 0.0751 0
M  V30 35 H 2.941 0.3881 -1.1569 0
M  V30 36 H 2.6171 -0.5573 1.9431 0
M  V30 37 H 1.5984 0.6381 1.1438 0
M  V30 38 H -1.3808 -1.6968 1.8643 0
M  V30 39 H 4.4663 -0.0173 0.751 0
M  V30 40 H 5.266 -0.4543 -0.7674 0
M  V30 41 H 4.6367 -1.7237 0.2722 0
M  V30 42 H 1.2948 -0.3138 3.9657 0
M  V30 43 H -0.3683 -0.8387 3.9466 0
M  V30 44 H -2.6066 0.2052 -0.4432 0
M  V30 45 H 0.7603 1.8459 3.0446 0
M  V30 46 H -0.5425 1.5158 4.1957 0
M  V30 47 H -4.0502 2.558 -0.9234 0
M  V30 48 H -1.5392 4.088 3.119 0
M  V30 49 H -4.3689 4.8572 -0.0259 0
M  V30 50 H -3.1271 5.611 1.9718 0
M  V30 END ATOM
M  V30 BEGIN BOND
M  V30 1 2 1 2
M  V30 2 1 2 3
M  V30 3 1 2 4
M  V30 4 1 3 5
M  V30 5 2 4 6
M  V30 6 1 4 7
M  V30 7 1 6 8
M  V30 8 1 7 9
M  V30 9 1 7 10
M  V30 10 1 8 11
M  V30 11 1 9 12
M  V30 12 1 10 13
M  V30 13 1 11 14
M  V30 14 1 12 15
M  V30 15 1 13 16
M  V30 16 1 15 17
M  V30 17 1 16 18
M  V30 18 2 16 19
M  V30 19 1 17 20
M  V30 20 1 18 21
M  V30 21 1 19 22
M  V30 22 1 21 23
M  V30 23 1 22 24
M  V30 24 2 23 25
M  V30 25 2 24 26
M  V30 26 1 9 11
M  V30 27 1 13 15
M  V30 28 1 19 20
M  V30 29 2 21 22
M  V30 30 1 25 26
M  V30 31 1 5 27
M  V30 32 1 5 28
M  V30 33 1 5 29
M  V30 34 1 6 30
M  V30 35 1 7 31
M  V30 36 1 9 32
M  V30 37 1 10 33
M  V30 38 1 10 34
M  V30 39 1 11 35
M  V30 40 1 12 36
M  V30 41 1 12 37
M  V30 42 1 13 38
M  V30 43 1 14 39
M  V30 44 1 14 40
M  V30 45 1 14 41
M  V30 46 1 17 42
M  V30 47 1 17 43
M  V30 48 1 18 44
M  V30 49 1 20 45
M  V30 50 1 20 46
M  V30 51 1 23 47
M  V30 52 1 24 48
M  V30 53 1 25 49
M  V30 54 1 26 50
M  V30 END BOND
M  V30 END CTAB
M  END
>  <NO.>
5786

>  <Name>
.delta.-yohimbine

>  <SMILES>
COC(=O)C1=COC(C)C2CN3CCc4c([nH]c5ccccc45)C3CC12

>  <logBB>


>  <Class>
1

>  <MW>
352.18

>  <nHBAcc>
4

>  <nHBDon>
1

>  <SLogP>
3.18

>  <TopoPSA>
54.56

>  <MMFF94 Energy>
30.675

$$$$
COC(=O)c1ccc2c(C(=Nc3ccc(N(C)C(=O)CN4CCN(C)CC4)cc3)c3ccccc3)c(O)[nH]c2c1
Actelion Java MolfileCreator 2.0

  0  0  0  0  0  0              0 V3000
M  V30 BEGIN CTAB
M  V30 COUNTS 73 77 0 0 0
M  V30 BEGIN ATOM
M  V30 1 O -7.906 3.5078 2.63 0
M  V30 2 C -7.0948 4.3615 2.9523 0
M  V30 3 O -7.392 5.5574 3.523 0
M  V30 4 C -5.6235 4.2189 2.7646 0
M  V30 5 C -8.7891 5.7641 3.7356 0
M  V30 6 C -4.7257 5.2323 3.1388 0
M  V30 7 C -5.148 3.0337 2.1968 0
M  V30 8 C -3.357 5.0096 2.9238 0
M  V30 9 C -3.7761 2.8346 1.992 0
M  V30 10 N -2.2813 5.8188 3.193 0
M  V30 11 C -2.8531 3.8374 2.3626 0
M  V30 12 C -1.1102 5.2102 2.8246 0
M  V30 13 C -1.4177 3.966 2.2899 0
M  V30 14 O 0.0636 5.8043 3.0126 0
M  V30 15 C -0.4587 2.982 1.7712 0
M  V30 16 N -0.8683 1.7476 1.6978 0
M  V30 17 C 0.8862 3.4579 1.3583 0
M  V30 18 C -0.0444 0.7461 1.1702 0
M  V30 19 C 2.01 3.1184 2.1178 0
M  V30 20 C 1.0169 4.2234 0.1948 0
M  V30 21 C 0.5542 -0.1783 2.0281 0
M  V30 22 C 0.1376 0.6126 -0.2083 0
M  V30 23 C 3.2719 3.5486 1.7087 0
M  V30 24 C 2.282 4.6498 -0.2087 0
M  V30 25 C 1.3668 -1.1958 1.5206 0
M  V30 26 C 0.9512 -0.4011 -0.7216 0
M  V30 27 C 3.4067 4.312 0.5472 0
M  V30 28 C 1.575 -1.3067 0.1413 0
M  V30 29 N 2.4345 -2.3167 -0.3738 0
M  V30 30 C 1.9509 -3.2234 -1.3354 0
M  V30 31 C 3.7733 -2.3839 0.2035 0
M  V30 32 O 0.804 -3.165 -1.7849 0
M  V30 33 C 2.9624 -4.306 -1.7837 0
M  V30 34 N 2.3842 -5.316 -2.6963 0
M  V30 35 C 2.1501 -4.7587 -4.0472 0
M  V30 36 C 3.2812 -6.483 -2.8114 0
M  V30 37 C 1.6125 -5.8221 -5.0329 0
M  V30 38 C 2.7432 -7.5449 -3.7976 0
M  V30 39 N 2.5169 -6.9847 -5.1433 0
M  V30 40 C 1.9489 -7.9938 -6.0338 0
M  V30 41 H -8.9194 6.7472 4.1964 0
M  V30 42 H -9.3278 5.7542 2.783 0
M  V30 43 H -9.1898 5.0069 4.4169 0
M  V30 44 H -5.0709 6.1612 3.5811 0
M  V30 45 H -5.8412 2.2459 1.9064 0
M  V30 46 H -3.4285 1.9034 1.5503 0
M  V30 47 H -2.3587 6.7324 3.6133 0
M  V30 48 H -0.0555 6.6795 3.4166 0
M  V30 49 H 1.9006 2.5276 3.0226 0
M  V30 50 H 0.141 4.4823 -0.3935 0
M  V30 51 H 0.3791 -0.1045 3.0976 0
M  V30 52 H -0.3593 1.2988 -0.8874 0
M  V30 53 H 4.1496 3.2901 2.2949 0
M  V30 54 H 2.3922 5.2442 -1.1118 0
M  V30 55 H 1.8139 -1.906 2.2093 0
M  V30 56 H 1.0824 -0.4833 -1.797 0
M  V30 57 H 4.3916 4.646 0.2304 0
M  V30 58 H 3.7966 -3.1906 0.9425 0
M  V30 59 H 4.5128 -2.594 -0.5726 0
M  V30 60 H 4.0478 -1.4364 0.6785 0
M  V30 61 H 3.8275 -3.8204 -2.2494 0
M  V30 62 H 3.296 -4.8118 -0.8694 0
M  V30 63 H 1.419 -3.945 -4.0113 0
M  V30 64 H 3.0802 -4.3376 -4.4526 0
M  V30 65 H 3.3889 -6.9584 -1.8289 0
M  V30 66 H 4.2829 -6.1676 -3.1334 0
M  V30 67 H 1.5038 -5.3519 -6.0178 0
M  V30 68 H 0.6117 -6.1383 -4.7084 0
M  V30 69 H 1.8152 -7.9718 -3.3935 0
M  V30 70 H 3.4769 -8.3576 -3.8595 0
M  V30 71 H 0.9833 -8.37 -5.677 0
M  V30 72 H 1.8075 -7.5817 -7.039 0
M  V30 73 H 2.633 -8.8435 -6.1352 0
M  V30 END ATOM
M  V30 BEGIN BOND
M  V30 1 2 1 2
M  V30 2 1 2 3
M  V30 3 1 2 4
M  V30 4 1 3 5
M  V30 5 2 4 6
M  V30 6 1 4 7
M  V30 7 1 6 8
M  V30 8 2 7 9
M  V30 9 1 8 10
M  V30 10 2 8 11
M  V30 11 1 10 12
M  V30 12 1 11 13
M  V30 13 1 12 14
M  V30 14 1 13 15
M  V30 15 2 15 16
M  V30 16 1 15 17
M  V30 17 1 16 18
M  V30 18 2 17 19
M  V30 19 1 17 20
M  V30 20 2 18 21
M  V30 21 1 18 22
M  V30 22 1 19 23
M  V30 23 2 20 24
M  V30 24 1 21 25
M  V30 25 2 22 26
M  V30 26 2 23 27
M  V30 27 2 25 28
M  V30 28 1 28 29
M  V30 29 1 29 30
M  V30 30 1 29 31
M  V30 31 2 30 32
M  V30 32 1 30 33
M  V30 33 1 33 34
M  V30 34 1 34 35
M  V30 35 1 34 36
M  V30 36 1 35 37
M  V30 37 1 36 38
M  V30 38 1 37 39
M  V30 39 1 39 40
M  V30 40 1 9 11
M  V30 41 2 12 13
M  V30 42 1 24 27
M  V30 43 1 26 28
M  V30 44 1 38 39
M  V30 45 1 5 41
M  V30 46 1 5 42
M  V30 47 1 5 43
M  V30 48 1 6 44
M  V30 49 1 7 45
M  V30 50 1 9 46
M  V30 51 1 10 47
M  V30 52 1 14 48
M  V30 53 1 19 49
M  V30 54 1 20 50
M  V30 55 1 21 51
M  V30 56 1 22 52
M  V30 57 1 23 53
M  V30 58 1 24 54
M  V30 59 1 25 55
M  V30 60 1 26 56
M  V30 61 1 27 57
M  V30 62 1 31 58
M  V30 63 1 31 59
M  V30 64 1 31 60
M  V30 65 1 33 61
M  V30 66 1 33 62
M  V30 67 1 35 63
M  V30 68 1 35 64
M  V30 69 1 36 65
M  V30 70 1 36 66
M  V30 71 1 37 67
M  V30 72 1 37 68
M  V30 73 1 38 69
M  V30 74 1 38 70
M  V30 75 1 40 71
M  V30 76 1 40 72
M  V30 77 1 40 73
M  V30 END BOND
M  V30 END CTAB
M  END
>  <NO.>
5791

>  <Name>
nintedanib

>  <SMILES>
COC(=O)c1ccc2c(C(=Nc3ccc(N(C)C(=O)CN4CCN(C)CC4)cc3)c3ccccc3)c(O)[nH]c2c1

>  <logBB>


>  <Class>
-1

>  <MW>
539.25

>  <nHBAcc>
7

>  <nHBDon>
2

>  <SLogP>
4.04

>  <TopoPSA>
101.47

>  <MMFF94 Energy>
209.22

$$$$
COC1=CC(=O)CC(C)C12Oc1c(Cl)c(OC)cc(OC)c1C2=O
Actelion Java MolfileCreator 2.0

  0  0  0  0  0  0              0 V3000
M  V30 BEGIN CTAB
M  V30 COUNTS 41 43 0 0 0
M  V30 BEGIN ATOM
M  V30 1 Cl -2.8418 -1.3795 2.2729 0
M  V30 2 C -1.782 -1.5198 0.9156 0
M  V30 3 C -1.8725 -2.6045 0.0221 0
M  V30 4 C -0.8162 -0.5513 0.6953 0
M  V30 5 O -2.8464 -3.5334 0.2909 0
M  V30 6 C -0.9817 -2.6857 -1.0708 0
M  V30 7 O -0.6241 0.5496 1.4973 0
M  V30 8 C 0.0424 -0.6537 -0.3818 0
M  V30 9 C -2.9979 -4.6277 -0.6027 0
M  V30 10 C -0.0059 -1.7028 -1.2857 0
M  V30 11 C 0.4534 1.3211 0.8958 0
M  V30 12 C 0.9097 0.5026 -0.3065 0
M  V30 13 O 0.8993 -1.6922 -2.3025 0
M  V30 14 C -0.0934 2.6523 0.3827 0
M  V30 15 C 1.5506 1.5135 1.9668 0
M  V30 16 O 1.8304 0.7573 -1.0627 0
M  V30 17 C 0.8477 -2.7461 -3.2544 0
M  V30 18 O -1.3465 2.5436 -0.1992 0
M  V30 19 C 0.598 3.8002 0.5035 0
M  V30 20 C 2.5991 2.5326 1.5203 0
M  V30 21 C 2.2241 0.2073 2.4012 0
M  V30 22 C -1.9669 3.7216 -0.7024 0
M  V30 23 C 1.9542 3.8319 1.1021 0
M  V30 24 O 2.5352 4.91 1.2026 0
M  V30 25 H -1.0505 -3.5232 -1.7542 0
M  V30 26 H -3.2563 -4.2827 -1.6091 0
M  V30 27 H -3.826 -5.2438 -0.2396 0
M  V30 28 H -2.0991 -5.2526 -0.6154 0
M  V30 29 H 1.0579 1.9119 2.8672 0
M  V30 30 H 1.0507 -3.7127 -2.7823 0
M  V30 31 H 1.6314 -2.566 -3.9964 0
M  V30 32 H -0.113 -2.7566 -3.7794 0
M  V30 33 H 0.2407 4.7624 0.1609 0
M  V30 34 H 3.2035 2.1626 0.6859 0
M  V30 35 H 3.2751 2.7474 2.3566 0
M  V30 36 H 2.7791 -0.2559 1.5793 0
M  V30 37 H 2.9342 0.3957 3.2138 0
M  V30 38 H 1.4894 -0.515 2.7701 0
M  V30 39 H -2.1392 4.446 0.1 0
M  V30 40 H -2.9394 3.4387 -1.1158 0
M  V30 41 H -1.3724 4.162 -1.5091 0
M  V30 END ATOM
M  V30 BEGIN BOND
M  V30 1 1 1 2
M  V30 2 2 2 3
M  V30 3 1 2 4
M  V30 4 1 3 5
M  V30 5 1 3 6
M  V30 6 1 4 7
M  V30 7 2 4 8
M  V30 8 1 5 9
M  V30 9 2 6 10
M  V30 10 1 7 11
M  V30 11 1 8 12
M  V30 12 1 10 13
M  V30 13 1 11 14
M  V30 14 1 11 15
M  V30 15 2 12 16
M  V30 16 1 13 17
M  V30 17 1 14 18
M  V30 18 2 14 19
M  V30 19 1 15 20
M  V30 20 1 15 21
M  V30 21 1 18 22
M  V30 22 1 19 23
M  V30 23 2 23 24
M  V30 24 1 8 10
M  V30 25 1 11 12
M  V30 26 1 20 23
M  V30 27 1 6 25
M  V30 28 1 9 26
M  V30 29 1 9 27
M  V30 30 1 9 28
M  V30 31 1 15 29
M  V30 32 1 17 30
M  V30 33 1 17 31
M  V30 34 1 17 32
M  V30 35 1 19 33
M  V30 36 1 20 34
M  V30 37 1 20 35
M  V30 38 1 21 36
M  V30 39 1 21 37
M  V30 40 1 21 38
M  V30 41 1 22 39
M  V30 42 1 22 40
M  V30 43 1 22 41
M  V30 END BOND
M  V30 END CTAB
M  END
>  <NO.>
5793

>  <Name>
griseofulvin

>  <SMILES>
COC1=CC(=O)CC(C)C12Oc1c(Cl)c(OC)cc(OC)c1C2=O

>  <logBB>


>  <Class>
-1

>  <MW>
352.07

>  <nHBAcc>
6

>  <nHBDon>
0

>  <SLogP>
2.81

>  <TopoPSA>
71.06

>  <MMFF94 Energy>
105.03

$$$$
COC1OC2OC3(C)CCC4C(C)CCC(C1C)C24OO3
Actelion Java MolfileCreator 2.0

  0  0  0  0  0  0              0 V3000
M  V30 BEGIN CTAB
M  V30 COUNTS 47 50 0 0 0
M  V30 BEGIN ATOM
M  V30 1 O -1.2914 1.4529 0.3227 0
M  V30 2 O -0.6928 2.0291 1.5267 0
M  V30 3 C -0.5157 0.2985 -0.1022 0
M  V30 4 C -0.4304 0.9751 2.4606 0
M  V30 5 C 0.8518 0.2244 0.6396 0
M  V30 6 C -1.4692 -0.8996 0.216 0
M  V30 7 C -0.2869 0.4758 -1.6252 0
M  V30 8 O 0.6956 0.1911 2.0635 0
M  V30 9 C -1.6583 0.0629 2.6416 0
M  V30 10 C -0.0731 1.6532 3.7809 0
M  V30 11 O 1.7155 1.319 0.3241 0
M  V30 12 C -1.0854 -2.1996 -0.537 0
M  V30 13 C -1.6389 -1.1705 1.7305 0
M  V30 14 C 0.7937 1.5513 -1.9384 0
M  V30 15 C 0.0655 -0.8513 -2.3202 0
M  V30 16 C 2.0473 1.4075 -1.0521 0
M  V30 17 C -0.9672 -1.9299 -2.0398 0
M  V30 18 C -2.0917 -3.335 -0.3135 0
M  V30 19 C 0.2296 2.9744 -1.8169 0
M  V30 20 O 2.8175 0.2861 -1.4835 0
M  V30 21 C 4.1126 0.2706 -0.895 0
M  V30 22 H 1.3748 -0.7025 0.381 0
M  V30 23 H -2.469 -0.6041 -0.1404 0
M  V30 24 H -1.2305 0.8196 -2.0746 0
M  V30 25 H -1.69 -0.3164 3.6714 0
M  V30 26 H -2.5849 0.6296 2.488 0
M  V30 27 H -0.8989 2.2728 4.1466 0
M  V30 28 H 0.7929 2.3127 3.6488 0
M  V30 29 H 0.1959 0.9203 4.5491 0
M  V30 30 H -0.1105 -2.5479 -0.1707 0
M  V30 31 H -2.5746 -1.7196 1.8955 0
M  V30 32 H -0.8379 -1.8398 2.0723 0
M  V30 33 H 1.0964 1.4295 -2.9875 0
M  V30 34 H 1.0431 -1.2243 -2.0024 0
M  V30 35 H 0.127 -0.6933 -3.4039 0
M  V30 36 H 2.663 2.3065 -1.1814 0
M  V30 37 H -0.673 -2.8477 -2.5634 0
M  V30 38 H -1.9393 -1.6281 -2.4504 0
M  V30 39 H -3.1073 -3.0235 -0.5804 0
M  V30 40 H -1.8348 -4.2076 -0.924 0
M  V30 41 H -2.0972 -3.6662 0.7293 0
M  V30 42 H 0.042 3.2657 -0.7806 0
M  V30 43 H 0.9426 3.6975 -2.2291 0
M  V30 44 H -0.7028 3.0784 -2.3811 0
M  V30 45 H 4.0462 0.1883 0.1939 0
M  V30 46 H 4.6731 1.1683 -1.1735 0
M  V30 47 H 4.6486 -0.6034 -1.2747 0
M  V30 END ATOM
M  V30 BEGIN BOND
M  V30 1 1 1 2
M  V30 2 1 1 3
M  V30 3 1 2 4
M  V30 4 1 3 5
M  V30 5 1 3 6
M  V30 6 1 3 7
M  V30 7 1 4 8
M  V30 8 1 4 9
M  V30 9 1 4 10
M  V30 10 1 5 11
M  V30 11 1 6 12
M  V30 12 1 6 13
M  V30 13 1 7 14
M  V30 14 1 7 15
M  V30 15 1 11 16
M  V30 16 1 12 17
M  V30 17 1 12 18
M  V30 18 1 14 19
M  V30 19 1 16 20
M  V30 20 1 20 21
M  V30 21 1 5 8
M  V30 22 1 9 13
M  V30 23 1 14 16
M  V30 24 1 15 17
M  V30 25 1 5 22
M  V30 26 1 6 23
M  V30 27 1 7 24
M  V30 28 1 9 25
M  V30 29 1 9 26
M  V30 30 1 10 27
M  V30 31 1 10 28
M  V30 32 1 10 29
M  V30 33 1 12 30
M  V30 34 1 13 31
M  V30 35 1 13 32
M  V30 36 1 14 33
M  V30 37 1 15 34
M  V30 38 1 15 35
M  V30 39 1 16 36
M  V30 40 1 17 37
M  V30 41 1 17 38
M  V30 42 1 18 39
M  V30 43 1 18 40
M  V30 44 1 18 41
M  V30 45 1 19 42
M  V30 46 1 19 43
M  V30 47 1 19 44
M  V30 48 1 21 45
M  V30 49 1 21 46
M  V30 50 1 21 47
M  V30 END BOND
M  V30 END CTAB
M  END
>  <NO.>
5794

>  <Name>
71963-77-4

>  <SMILES>
COC1OC2OC3(C)CCC4C(C)CCC(C1C)C24OO3

>  <logBB>


>  <Class>
-1

>  <MW>
298.18

>  <nHBAcc>
5

>  <nHBDon>
0

>  <SLogP>
2.84

>  <TopoPSA>
46.15

>  <MMFF94 Energy>
67.418

$$$$
COCCCOc1cc(CC(CC(N)C(O)CC(C(=O)NCC(C)(C)C(N)=O)C(C)C)C(C)C)ccc1OC
Actelion Java MolfileCreator 2.0

  0  0  0  0  0  0              0 V3000
M  V30 BEGIN CTAB
M  V30 COUNTS 92 92 0 0 0
M  V30 BEGIN ATOM
M  V30 1 O -6.8008 -0.7798 -2.1848 0
M  V30 2 C -6.4341 -1.8416 -1.69 0
M  V30 3 N -7.3734 -2.7087 -1.2132 0
M  V30 4 C -4.9619 -2.2547 -1.533 0
M  V30 5 C -4.0979 -1.1595 -2.2059 0
M  V30 6 C -4.6338 -2.3492 -0.0336 0
M  V30 7 C -4.7331 -3.6197 -2.2026 0
M  V30 8 N -2.6643 -1.3556 -2.0687 0
M  V30 9 C -1.8887 -1.9515 -3.0393 0
M  V30 10 O -2.3465 -2.3987 -4.085 0
M  V30 11 C -0.3948 -1.9695 -2.6878 0
M  V30 12 C 0.4086 -2.967 -3.5675 0
M  V30 13 C 0.1127 -0.5049 -2.7827 0
M  V30 14 C 1.9093 -2.9483 -3.2391 0
M  V30 15 C -0.0896 -4.409 -3.371 0
M  V30 16 C 0.4534 0.0872 -1.4006 0
M  V30 17 O -0.672 -0.1164 -0.5328 0
M  V30 18 C 0.8181 1.6069 -1.4804 0
M  V30 19 N 2.0233 1.8486 -2.2819 0
M  V30 20 C 1.0158 2.2004 -0.0666 0
M  V30 21 C 1.4704 3.6905 0.0243 0
M  V30 22 C 0.5825 4.6535 -0.824 0
M  V30 23 C 1.5711 4.1411 1.5107 0
M  V30 24 C -0.8809 4.7029 -0.3764 0
M  V30 25 C 1.154 6.0759 -0.8721 0
M  V30 26 C 2.5383 3.3159 2.3292 0
M  V30 27 C 2.0681 2.2407 3.0927 0
M  V30 28 C 3.9123 3.5658 2.2885 0
M  V30 29 C 2.9595 1.3786 3.7403 0
M  V30 30 C 4.8037 2.7503 2.9947 0
M  V30 31 O 2.5404 0.2527 4.4099 0
M  V30 32 C 4.3375 1.6502 3.7224 0
M  V30 33 C 1.4109 -0.4011 3.8212 0
M  V30 34 O 5.1366 0.7729 4.4106 0
M  V30 35 C 1.4955 -1.8906 4.1307 0
M  V30 36 C 6.5195 1.083 4.5009 0
M  V30 37 C 0.2765 -2.6464 3.6194 0
M  V30 38 O 0.1105 -2.4087 2.2194 0
M  V30 39 C -0.9589 -3.1814 1.6868 0
M  V30 40 H -8.3444 -2.4412 -1.3118 0
M  V30 41 H -7.1583 -3.5999 -0.7915 0
M  V30 42 H -4.343 -1.0801 -3.2722 0
M  V30 43 H -4.3081 -0.1803 -1.7579 0
M  V30 44 H -3.5883 -2.6271 0.1315 0
M  V30 45 H -5.2512 -3.1006 0.471 0
M  V30 46 H -4.8136 -1.3919 0.4689 0
M  V30 47 H -4.9767 -3.5781 -3.2702 0
M  V30 48 H -3.6945 -3.9507 -2.1008 0
M  V30 49 H -5.3566 -4.4039 -1.7598 0
M  V30 50 H -2.1782 -0.8998 -1.2939 0
M  V30 51 H -0.3145 -2.3279 -1.6528 0
M  V30 52 H 0.2827 -2.7037 -4.6254 0
M  V30 53 H 0.9801 -0.4302 -3.4427 0
M  V30 54 H -0.6572 0.1272 -3.2459 0
M  V30 55 H 2.3788 -1.9973 -3.5032 0
M  V30 56 H 2.4391 -3.7261 -3.8003 0
M  V30 57 H 2.0816 -3.1274 -2.1722 0
M  V30 58 H 1.0E-4 -4.7177 -2.3236 0
M  V30 59 H 0.4971 -5.107 -3.9783 0
M  V30 60 H -1.1346 -4.5298 -3.6678 0
M  V30 61 H 1.2961 -0.4753 -0.9778 0
M  V30 62 H -0.3124 -0.1751 0.3745 0
M  V30 63 H -0.0248 2.1272 -1.9495 0
M  V30 64 H 1.8795 1.5455 -3.2435 0
M  V30 65 H 2.8062 1.3086 -1.9151 0
M  V30 66 H 1.7616 1.5748 0.439 0
M  V30 67 H 0.0851 2.0887 0.5031 0
M  V30 68 H 2.4849 3.7406 -0.3959 0
M  V30 69 H 0.593 4.2972 -1.8608 0
M  V30 70 H 1.8962 5.1856 1.5756 0
M  V30 71 H 0.583 4.1069 1.986 0
M  V30 72 H -0.9846 5.1165 0.6313 0
M  V30 73 H -1.4645 5.338 -1.0523 0
M  V30 74 H -1.3401 3.7104 -0.389 0
M  V30 75 H 2.2135 6.0631 -1.1477 0
M  V30 76 H 1.0512 6.594 0.0861 0
M  V30 77 H 0.6241 6.6733 -1.6225 0
M  V30 78 H 0.9979 2.0636 3.1442 0
M  V30 79 H 4.3007 4.3944 1.6999 0
M  V30 80 H 5.8602 2.9883 2.9346 0
M  V30 81 H 1.3958 -0.268 2.7317 0
M  V30 82 H 0.4962 0.0215 4.2528 0
M  V30 83 H 1.6112 -2.0474 5.2094 0
M  V30 84 H 2.4032 -2.2895 3.6608 0
M  V30 85 H 6.9969 1.0406 3.5166 0
M  V30 86 H 6.992 0.3236 5.1313 0
M  V30 87 H 6.6789 2.0561 4.9773 0
M  V30 88 H 0.4135 -3.719 3.7988 0
M  V30 89 H -0.623 -2.3135 4.1499 0
M  V30 90 H -1.0497 -2.9546 0.622 0
M  V30 91 H -1.9001 -2.9234 2.1816 0
M  V30 92 H -0.7527 -4.2499 1.7995 0
M  V30 END ATOM
M  V30 BEGIN BOND
M  V30 1 2 1 2
M  V30 2 1 2 3
M  V30 3 1 2 4
M  V30 4 1 4 5
M  V30 5 1 4 6
M  V30 6 1 4 7
M  V30 7 1 5 8
M  V30 8 1 8 9
M  V30 9 2 9 10
M  V30 10 1 9 11
M  V30 11 1 11 12
M  V30 12 1 11 13
M  V30 13 1 12 14
M  V30 14 1 12 15
M  V30 15 1 13 16
M  V30 16 1 16 17
M  V30 17 1 16 18
M  V30 18 1 18 19
M  V30 19 1 18 20
M  V30 20 1 20 21
M  V30 21 1 21 22
M  V30 22 1 21 23
M  V30 23 1 22 24
M  V30 24 1 22 25
M  V30 25 1 23 26
M  V30 26 2 26 27
M  V30 27 1 26 28
M  V30 28 1 27 29
M  V30 29 2 28 30
M  V30 30 1 29 31
M  V30 31 2 29 32
M  V30 32 1 31 33
M  V30 33 1 32 34
M  V30 34 1 33 35
M  V30 35 1 34 36
M  V30 36 1 35 37
M  V30 37 1 37 38
M  V30 38 1 38 39
M  V30 39 1 30 32
M  V30 40 1 3 40
M  V30 41 1 3 41
M  V30 42 1 5 42
M  V30 43 1 5 43
M  V30 44 1 6 44
M  V30 45 1 6 45
M  V30 46 1 6 46
M  V30 47 1 7 47
M  V30 48 1 7 48
M  V30 49 1 7 49
M  V30 50 1 8 50
M  V30 51 1 11 51
M  V30 52 1 12 52
M  V30 53 1 13 53
M  V30 54 1 13 54
M  V30 55 1 14 55
M  V30 56 1 14 56
M  V30 57 1 14 57
M  V30 58 1 15 58
M  V30 59 1 15 59
M  V30 60 1 15 60
M  V30 61 1 16 61
M  V30 62 1 17 62
M  V30 63 1 18 63
M  V30 64 1 19 64
M  V30 65 1 19 65
M  V30 66 1 20 66
M  V30 67 1 20 67
M  V30 68 1 21 68
M  V30 69 1 22 69
M  V30 70 1 23 70
M  V30 71 1 23 71
M  V30 72 1 24 72
M  V30 73 1 24 73
M  V30 74 1 24 74
M  V30 75 1 25 75
M  V30 76 1 25 76
M  V30 77 1 25 77
M  V30 78 1 27 78
M  V30 79 1 28 79
M  V30 80 1 30 80
M  V30 81 1 33 81
M  V30 82 1 33 82
M  V30 83 1 35 83
M  V30 84 1 35 84
M  V30 85 1 36 85
M  V30 86 1 36 86
M  V30 87 1 36 87
M  V30 88 1 37 88
M  V30 89 1 37 89
M  V30 90 1 39 90
M  V30 91 1 39 91
M  V30 92 1 39 92
M  V30 END BOND
M  V30 END CTAB
M  END
>  <NO.>
5796

>  <Name>
aliskiren

>  <SMILES>
COCCCOc1cc(CC(CC(N)C(O)CC(C(=O)NCC(C)(C)C(N)=O)C(C)C)C(C)C)ccc1OC

>  <logBB>


>  <Class>
-1

>  <MW>
551.39

>  <nHBAcc>
7

>  <nHBDon>
4

>  <SLogP>
3.29

>  <TopoPSA>
146.13

>  <MMFF94 Energy>
49.185

$$$$
COCCOCC(CC1(C(=O)NC2CCC(C(=O)O)CC2)CCCC1)C(=O)Oc1ccc2c(c1)CCC2
Actelion Java MolfileCreator 2.0

  0  0  0  0  0  0              0 V3000
M  V30 BEGIN CTAB
M  V30 COUNTS 78 81 0 0 0
M  V30 BEGIN ATOM
M  V30 1 O 0.6365 0.0 1.3529 0
M  V30 2 C -0.0966 -0.9385 1.054 0
M  V30 3 N 0.3582 -2.238 1.0298 0
M  V30 4 C -1.5927 -0.7463 0.7321 0
M  V30 5 C 1.7343 -2.5865 1.3625 0
M  V30 6 C -2.0313 -1.5294 -0.5347 0
M  V30 7 C -2.4375 -1.3595 1.8825 0
M  V30 8 C -1.9292 0.7699 0.5957 0
M  V30 9 C 2.1722 -3.8519 0.6151 0
M  V30 10 C 1.9024 -2.7538 2.8785 0
M  V30 11 C -2.8887 -2.6911 -0.0438 0
M  V30 12 C -3.5534 -2.1387 1.2008 0
M  V30 13 C -1.2405 1.4929 -0.5884 0 CFG=2
M  V30 14 C 1.5082 -5.122 1.1481 0
M  V30 15 C 1.2078 -4.0099 3.404 0
M  V30 16 C -0.1421 2.4271 -0.1151 0
M  V30 17 C -2.2209 2.3695 -1.373 0
M  V30 18 C 1.6785 -5.2653 2.662 0
M  V30 19 O -0.3172 3.338 0.6865 0
M  V30 20 O 1.0315 2.1351 -0.8027 0
M  V30 21 O -3.1701 1.5302 -2.0328 0
M  V30 22 C 0.9159 -6.4793 3.1398 0
M  V30 23 C 2.1161 2.9439 -0.4493 0
M  V30 24 C -4.1166 2.292 -2.7915 0
M  V30 25 O -0.2414 -6.5149 3.5217 0
M  V30 26 O 1.6518 -7.6055 3.0745 0
M  V30 27 C 2.5714 3.8745 -1.3834 0
M  V30 28 C 2.7681 2.7436 0.7768 0
M  V30 29 C -5.0666 1.3395 -3.5159 0
M  V30 30 C 3.6742 4.6371 -1.0404 0
M  V30 31 C 3.8867 3.5121 1.1032 0
M  V30 32 O -4.3924 0.7526 -4.6346 0
M  V30 33 C 4.3227 4.4592 0.1893 0
M  V30 34 C 4.3699 5.6755 -1.8629 0
M  V30 35 C -5.2108 -0.2015 -5.2965 0
M  V30 36 C 5.5085 5.366 0.3002 0
M  V30 37 C 5.1963 6.4006 -0.7907 0
M  V30 38 H -0.3026 -2.9845 0.8684 0
M  V30 39 H 2.3714 -1.7561 1.0338 0
M  V30 40 H -1.1926 -1.8843 -1.1425 0
M  V30 41 H -2.6528 -0.9055 -1.1864 0
M  V30 42 H -1.846 -2.0436 2.5031 0
M  V30 43 H -2.8479 -0.6023 2.5599 0
M  V30 44 H -3.0193 0.863 0.4972 0
M  V30 45 H -1.677 1.2731 1.539 0
M  V30 46 H 3.2601 -3.9602 0.7116 0
M  V30 47 H 1.9576 -3.7529 -0.4558 0
M  V30 48 H 1.5125 -1.8767 3.4086 0
M  V30 49 H 2.9724 -2.816 3.1141 0
M  V30 50 H -2.2659 -3.5565 0.2065 0
M  V30 51 H -3.6175 -3.0094 -0.7951 0
M  V30 52 H -3.9594 -2.9269 1.8414 0
M  V30 53 H -4.3734 -1.4641 0.927 0
M  V30 54 H -0.8143 0.7526 -1.2757 0
M  V30 55 H 1.9386 -5.9941 0.6403 0
M  V30 56 H 0.4415 -5.1198 0.889 0
M  V30 57 H 0.1206 -3.8938 3.3072 0
M  V30 58 H 1.4088 -4.1159 4.4773 0
M  V30 59 H -1.6838 2.9603 -2.1256 0
M  V30 60 H -2.7465 3.0629 -0.7042 0
M  V30 61 H 2.7398 -5.4172 2.8998 0
M  V30 62 H -3.582 2.9183 -3.5144 0
M  V30 63 H -4.6869 2.9249 -2.1029 0
M  V30 64 H 1.0472 -8.3066 3.3973 0
M  V30 65 H 2.0774 3.9934 -2.3404 0
M  V30 66 H 2.4017 1.9912 1.4708 0
M  V30 67 H -5.3989 0.547 -2.8357 0
M  V30 68 H -5.9339 1.8974 -3.8856 0
M  V30 69 H 4.3972 3.3654 2.0492 0
M  V30 70 H 3.6713 6.3568 -2.3566 0
M  V30 71 H 5.0169 5.1969 -2.6051 0
M  V30 72 H -4.6521 -0.6049 -6.1452 0
M  V30 73 H -6.124 0.2707 -5.6715 0
M  V30 74 H -5.462 -1.0248 -4.621 0
M  V30 75 H 6.4265 4.8149 0.0719 0
M  V30 76 H 5.5867 5.8356 1.2847 0
M  V30 77 H 4.5908 7.2087 -0.3564 0
M  V30 78 H 6.1004 6.8614 -1.2007 0
M  V30 END ATOM
M  V30 BEGIN BOND
M  V30 1 2 1 2
M  V30 2 1 2 3
M  V30 3 1 2 4
M  V30 4 1 3 5
M  V30 5 1 4 6
M  V30 6 1 4 7
M  V30 7 1 4 8
M  V30 8 1 5 9
M  V30 9 1 5 10
M  V30 10 1 6 11
M  V30 11 1 7 12
M  V30 12 1 8 13
M  V30 13 1 9 14
M  V30 14 1 10 15
M  V30 15 1 13 16
M  V30 16 1 13 17
M  V30 17 1 14 18
M  V30 18 2 16 19
M  V30 19 1 16 20
M  V30 20 1 17 21
M  V30 21 1 18 22
M  V30 22 1 20 23
M  V30 23 1 21 24
M  V30 24 2 22 25
M  V30 25 1 22 26
M  V30 26 2 23 27
M  V30 27 1 23 28
M  V30 28 1 24 29
M  V30 29 1 27 30
M  V30 30 2 28 31
M  V30 31 1 29 32
M  V30 32 2 30 33
M  V30 33 1 30 34
M  V30 34 1 32 35
M  V30 35 1 33 36
M  V30 36 1 34 37
M  V30 37 1 11 12
M  V30 38 1 15 18
M  V30 39 1 31 33
M  V30 40 1 36 37
M  V30 41 1 3 38
M  V30 42 1 5 39
M  V30 43 1 6 40
M  V30 44 1 6 41
M  V30 45 1 7 42
M  V30 46 1 7 43
M  V30 47 1 8 44
M  V30 48 1 8 45
M  V30 49 1 9 46
M  V30 50 1 9 47
M  V30 51 1 10 48
M  V30 52 1 10 49
M  V30 53 1 11 50
M  V30 54 1 11 51
M  V30 55 1 12 52
M  V30 56 1 12 53
M  V30 57 1 13 54
M  V30 58 1 14 55
M  V30 59 1 14 56
M  V30 60 1 15 57
M  V30 61 1 15 58
M  V30 62 1 17 59
M  V30 63 1 17 60
M  V30 64 1 18 61
M  V30 65 1 24 62
M  V30 66 1 24 63
M  V30 67 1 26 64
M  V30 68 1 27 65
M  V30 69 1 28 66
M  V30 70 1 29 67
M  V30 71 1 29 68
M  V30 72 1 31 69
M  V30 73 1 34 70
M  V30 74 1 34 71
M  V30 75 1 35 72
M  V30 76 1 35 73
M  V30 77 1 35 74
M  V30 78 1 36 75
M  V30 79 1 36 76
M  V30 80 1 37 77
M  V30 81 1 37 78
M  V30 END BOND
M  V30 BEGIN COLLECTION
M  V30 MDLV30/STERAC1 ATOMS=(1 13)
M  V30 END COLLECTION
M  V30 END CTAB
M  END
>  <NO.>
5797

>  <Name>
candoxatril

>  <SMILES>
COCCOCC(CC1(C(=O)NC2CCC(C(=O)O)CC2)CCCC1)C(=O)Oc1ccc2c(c1)CCC2

>  <logBB>


>  <Class>
-1

>  <MW>
515.29

>  <nHBAcc>
6

>  <nHBDon>
2

>  <SLogP>
4.07

>  <TopoPSA>
111.16

>  <MMFF94 Energy>
34.407

$$$$
COc1cc(C(=O)NC2CCCNC2)cc(OC)c1OC
Actelion Java MolfileCreator 2.0

  0  0  0  0  0  0              0 V3000
M  V30 BEGIN CTAB
M  V30 COUNTS 43 44 0 0 0
M  V30 BEGIN ATOM
M  V30 1 O 0.5505 1.9671 -1.8096 0
M  V30 2 C 0.2196 1.2523 -0.8704 0
M  V30 3 N -0.805 1.5595 -0.0078 0
M  V30 4 C 0.9596 -0.0107 -0.5983 0
M  V30 5 C -1.6693 2.7232 -0.1883 0 CFG=2
M  V30 6 C 2.305 -0.0788 -0.9892 0
M  V30 7 C 0.337 -1.1157 9.0E-4 0
M  V30 8 C -2.2039 3.1892 1.1809 0
M  V30 9 C -2.8446 2.3737 -1.1108 0
M  V30 10 C 3.047 -1.2369 -0.7585 0
M  V30 11 C 1.0657 -2.2816 0.2427 0
M  V30 12 N -3.0514 2.1555 1.8044 0
M  V30 13 C -3.8103 1.3977 -0.4339 0
M  V30 14 O 4.3659 -1.4002 -1.0947 0
M  V30 15 C 2.4247 -2.3229 -0.1181 0
M  V30 16 O 0.5592 -3.4133 0.8285 0
M  V30 17 C -4.2179 1.8763 0.9597 0
M  V30 18 C 4.9495 -0.4117 -1.9337 0
M  V30 19 O 3.1362 -3.4864 0.0814 0
M  V30 20 C -0.8451 -3.4743 1.0366 0
M  V30 21 C 3.7858 -3.4434 1.3506 0
M  V30 22 H -1.0218 0.9787 0.7926 0
M  V30 23 H -1.0775 3.5265 -0.6421 0
M  V30 24 H 2.7462 0.792 -1.4654 0
M  V30 25 H -0.7159 -1.0602 0.2499 0
M  V30 26 H -2.7665 4.1249 1.0739 0
M  V30 27 H -1.3618 3.3925 1.8527 0
M  V30 28 H -3.3876 3.2934 -1.3632 0
M  V30 29 H -2.4875 1.9429 -2.0535 0
M  V30 30 H -3.3757 2.5011 2.709 0
M  V30 31 H -4.7036 1.275 -1.0571 0
M  V30 32 H -3.3407 0.4088 -0.3585 0
M  V30 33 H -4.8468 2.7719 0.8815 0
M  V30 34 H -4.8248 1.1017 1.4413 0
M  V30 35 H 4.387 -0.2969 -2.8664 0
M  V30 36 H 5.9583 -0.7472 -2.1929 0
M  V30 37 H 5.0425 0.5432 -1.4065 0
M  V30 38 H -1.163 -2.7386 1.7826 0
M  V30 39 H -1.0824 -4.4682 1.4283 0
M  V30 40 H -1.3925 -3.3472 0.0967 0
M  V30 41 H 4.5109 -2.6239 1.4018 0
M  V30 42 H 4.3304 -4.3836 1.4794 0
M  V30 43 H 3.0609 -3.3589 2.1678 0
M  V30 END ATOM
M  V30 BEGIN BOND
M  V30 1 2 1 2
M  V30 2 1 2 3
M  V30 3 1 2 4
M  V30 4 1 3 5
M  V30 5 2 4 6
M  V30 6 1 4 7
M  V30 7 1 5 8
M  V30 8 1 5 9
M  V30 9 1 6 10
M  V30 10 2 7 11
M  V30 11 1 8 12
M  V30 12 1 9 13
M  V30 13 1 10 14
M  V30 14 2 10 15
M  V30 15 1 11 16
M  V30 16 1 12 17
M  V30 17 1 14 18
M  V30 18 1 15 19
M  V30 19 1 16 20
M  V30 20 1 19 21
M  V30 21 1 11 15
M  V30 22 1 13 17
M  V30 23 1 3 22
M  V30 24 1 5 23
M  V30 25 1 6 24
M  V30 26 1 7 25
M  V30 27 1 8 26
M  V30 28 1 8 27
M  V30 29 1 9 28
M  V30 30 1 9 29
M  V30 31 1 12 30
M  V30 32 1 13 31
M  V30 33 1 13 32
M  V30 34 1 17 33
M  V30 35 1 17 34
M  V30 36 1 18 35
M  V30 37 1 18 36
M  V30 38 1 18 37
M  V30 39 1 20 38
M  V30 40 1 20 39
M  V30 41 1 20 40
M  V30 42 1 21 41
M  V30 43 1 21 42
M  V30 44 1 21 43
M  V30 END BOND
M  V30 BEGIN COLLECTION
M  V30 MDLV30/STERAC1 ATOMS=(1 5)
M  V30 END COLLECTION
M  V30 END CTAB
M  END
>  <NO.>
5800

>  <Name>
troxipide

>  <SMILES>
COc1cc(C(=O)NC2CCCNC2)cc(OC)c1OC

>  <logBB>


>  <Class>
-1

>  <MW>
294.16

>  <nHBAcc>
5

>  <nHBDon>
2

>  <SLogP>
1.19

>  <TopoPSA>
68.82

>  <MMFF94 Energy>
53.696

$$$$
COc1cc(C2c3cc4c(cc3C(O)C3COC(=O)C23)OCO4)cc(OC)c1OC
Actelion Java MolfileCreator 2.0

  0  0  0  0  0  0              0 V3000
M  V30 BEGIN CTAB
M  V30 COUNTS 52 56 0 0 0
M  V30 BEGIN ATOM
M  V30 1 O -3.9623 0.0807 1.7775 0
M  V30 2 C -3.7226 0.1525 0.585 0
M  V30 3 O -4.6229 0.5688 -0.36 0
M  V30 4 C -2.4427 -0.2495 -0.0982 0
M  V30 5 C -4.0056 0.4927 -1.6507 0
M  V30 6 C -1.1869 -0.0578 0.7517 0
M  V30 7 C -2.5162 0.5792 -1.3655 0
M  V30 8 C -0.7074 1.3809 0.8395 0
M  V30 9 C -0.0893 -1.0142 0.2752 0
M  V30 10 C -2.1128 2.0562 -1.1925 0
M  V30 11 C -1.1379 2.3671 -0.0796 0
M  V30 12 C 0.1941 1.7256 1.8695 0
M  V30 13 C 0.6846 -0.7444 -0.8685 0
M  V30 14 C 0.1264 -2.2143 0.9791 0
M  V30 15 O -1.583 2.469 -2.4573 0
M  V30 16 C -0.6903 3.6977 0.071 0
M  V30 17 C 0.6208 3.0309 1.9653 0
M  V30 18 C 1.6615 -1.6435 -1.3031 0
M  V30 19 C 1.0991 -3.1266 0.5631 0
M  V30 20 C 0.187 3.9923 1.0911 0
M  V30 21 O 1.4795 3.5231 2.8964 0
M  V30 22 O 2.4572 -1.4628 -2.4048 0
M  V30 23 C 1.8722 -2.8222 -0.5692 0
M  V30 24 O 1.3757 -4.3163 1.1854 0
M  V30 25 O 0.7145 5.216 1.3584 0
M  V30 26 C 1.5265 4.9133 2.5129 0
M  V30 27 C 2.1859 -0.343 -3.2357 0
M  V30 28 O 2.8037 -3.7354 -1.0149 0
M  V30 29 C 0.541 -4.7026 2.2681 0
M  V30 30 C 4.0688 -3.4644 -0.4142 0
M  V30 31 H -2.5747 -1.3147 -0.3403 0
M  V30 32 H -4.376 1.3029 -2.2863 0
M  V30 33 H -4.2846 -0.4629 -2.109 0
M  V30 34 H -1.4411 -0.3437 1.7832 0
M  V30 35 H -1.9485 0.1214 -2.184 0
M  V30 36 H -2.9998 2.6764 -1.0099 0
M  V30 37 H 0.5484 0.9868 2.5824 0
M  V30 38 H 0.5143 0.1807 -1.4083 0
M  V30 39 H -0.4822 -2.4166 1.8556 0
M  V30 40 H -0.6952 2.8416 -2.321 0
M  V30 41 H -1.0299 4.4882 -0.5926 0
M  V30 42 H 1.1792 5.5223 3.3556 0
M  V30 43 H 2.5658 5.1806 2.2899 0
M  V30 44 H 1.1614 -0.3729 -3.6214 0
M  V30 45 H 2.8652 -0.3897 -4.0923 0
M  V30 46 H 2.3826 0.5952 -2.7067 0
M  V30 47 H 0.6462 -4.012 3.1113 0
M  V30 48 H 0.8673 -5.6908 2.606 0
M  V30 49 H -0.5043 -4.7873 1.953 0
M  V30 50 H 4.4379 -2.4703 -0.6896 0
M  V30 51 H 4.7822 -4.2042 -0.7895 0
M  V30 52 H 4.0236 -3.5626 0.6759 0
M  V30 END ATOM
M  V30 BEGIN BOND
M  V30 1 2 1 2
M  V30 2 1 2 3
M  V30 3 1 2 4
M  V30 4 1 3 5
M  V30 5 1 4 6
M  V30 6 1 4 7
M  V30 7 1 6 8
M  V30 8 1 6 9
M  V30 9 1 7 10
M  V30 10 2 8 11
M  V30 11 1 8 12
M  V30 12 2 9 13
M  V30 13 1 9 14
M  V30 14 1 10 15
M  V30 15 1 11 16
M  V30 16 2 12 17
M  V30 17 1 13 18
M  V30 18 2 14 19
M  V30 19 2 16 20
M  V30 20 1 17 21
M  V30 21 1 18 22
M  V30 22 2 18 23
M  V30 23 1 19 24
M  V30 24 1 20 25
M  V30 25 1 21 26
M  V30 26 1 22 27
M  V30 27 1 23 28
M  V30 28 1 24 29
M  V30 29 1 28 30
M  V30 30 1 5 7
M  V30 31 1 10 11
M  V30 32 1 17 20
M  V30 33 1 19 23
M  V30 34 1 25 26
M  V30 35 1 4 31
M  V30 36 1 5 32
M  V30 37 1 5 33
M  V30 38 1 6 34
M  V30 39 1 7 35
M  V30 40 1 10 36
M  V30 41 1 12 37
M  V30 42 1 13 38
M  V30 43 1 14 39
M  V30 44 1 15 40
M  V30 45 1 16 41
M  V30 46 1 26 42
M  V30 47 1 26 43
M  V30 48 1 27 44
M  V30 49 1 27 45
M  V30 50 1 27 46
M  V30 51 1 29 47
M  V30 52 1 29 48
M  V30 53 1 29 49
M  V30 54 1 30 50
M  V30 55 1 30 51
M  V30 56 1 30 52
M  V30 END BOND
M  V30 END CTAB
M  END
>  <NO.>
5803

>  <Name>
4354-76-1

>  <SMILES>
COc1cc(C2c3cc4c(cc3C(O)C3COC(=O)C23)OCO4)cc(OC)c1OC

>  <logBB>


>  <Class>
-1

>  <MW>
414.13

>  <nHBAcc>
8

>  <nHBDon>
1

>  <SLogP>
2.41

>  <TopoPSA>
92.68

>  <MMFF94 Energy>
73.5

$$$$
COc1cc(NS(=O)(=O)c2ccc(N)cc2)nc(OC)n1
Actelion Java MolfileCreator 2.0

  0  0  0  0  0  0              0 V3000
M  V30 BEGIN CTAB
M  V30 COUNTS 35 36 0 0 0
M  V30 BEGIN ATOM
M  V30 1 S 2.2501 1.2049 0.2409 0
M  V30 2 O 2.9402 2.4559 0.4703 0
M  V30 3 O 2.8864 -0.068 0.5002 0
M  V30 4 N 0.8204 1.2882 1.0953 0
M  V30 5 C 1.7048 1.2328 -1.4483 0
M  V30 6 C 0.0881 0.1369 1.4456 0
M  V30 7 C 2.0925 0.2189 -2.3253 0
M  V30 8 C 0.8834 2.2739 -1.8851 0
M  V30 9 N -0.5805 0.3409 2.588 0
M  V30 10 C -0.0616 -0.9753 0.6607 0
M  V30 11 C 1.6423 0.2473 -3.6479 0
M  V30 12 C 0.4414 2.2893 -3.2104 0
M  V30 13 C -1.3782 -0.6615 2.983 0
M  V30 14 C -0.909 -1.9292 1.165 0
M  V30 15 C 0.8256 1.2862 -4.1054 0
M  V30 16 O -2.0917 -0.5518 4.1566 0
M  V30 17 N -1.5768 -1.8035 2.3204 0
M  V30 18 O -1.0681 -3.0667 0.3963 0
M  V30 19 N 0.3537 1.2868 -5.4043 0
M  V30 20 C -1.8205 0.6472 4.8688 0
M  V30 21 C -1.9394 -4.027 0.9871 0
M  V30 22 H 0.8168 2.0111 1.811 0
M  V30 23 H 2.7373 -0.5924 -1.9954 0
M  V30 24 H 0.5852 3.0705 -1.2079 0
M  V30 25 H 0.4336 -1.1246 -0.2842 0
M  V30 26 H 1.9392 -0.5508 -4.3237 0
M  V30 27 H -0.2057 3.0975 -3.5423 0
M  V30 28 H -0.1752 2.073 -5.7565 0
M  V30 29 H 0.6877 0.6036 -6.0703 0
M  V30 30 H -2.4141 0.6313 5.7881 0
M  V30 31 H -0.7653 0.7104 5.1567 0
M  V30 32 H -2.1244 1.5288 4.2936 0
M  V30 33 H -1.9901 -4.8884 0.3143 0
M  V30 34 H -1.5495 -4.3779 1.949 0
M  V30 35 H -2.954 -3.6281 1.0946 0
M  V30 END ATOM
M  V30 BEGIN BOND
M  V30 1 2 1 2
M  V30 2 2 1 3
M  V30 3 1 1 4
M  V30 4 1 1 5
M  V30 5 1 4 6
M  V30 6 2 5 7
M  V30 7 1 5 8
M  V30 8 2 6 9
M  V30 9 1 6 10
M  V30 10 1 7 11
M  V30 11 2 8 12
M  V30 12 1 9 13
M  V30 13 2 10 14
M  V30 14 2 11 15
M  V30 15 1 13 16
M  V30 16 2 13 17
M  V30 17 1 14 18
M  V30 18 1 15 19
M  V30 19 1 16 20
M  V30 20 1 18 21
M  V30 21 1 12 15
M  V30 22 1 14 17
M  V30 23 1 4 22
M  V30 24 1 7 23
M  V30 25 1 8 24
M  V30 26 1 10 25
M  V30 27 1 11 26
M  V30 28 1 12 27
M  V30 29 1 19 28
M  V30 30 1 19 29
M  V30 31 1 20 30
M  V30 32 1 20 31
M  V30 33 1 20 32
M  V30 34 1 21 33
M  V30 35 1 21 34
M  V30 36 1 21 35
M  V30 END BOND
M  V30 END CTAB
M  END
>  <NO.>
5804

>  <Name>
sulfadimethoxine

>  <SMILES>
COc1cc(NS(=O)(=O)c2ccc(N)cc2)nc(OC)n1

>  <logBB>


>  <Class>
-1

>  <MW>
310.07

>  <nHBAcc>
7

>  <nHBDon>
2

>  <SLogP>
0.88

>  <TopoPSA>
116.43

>  <MMFF94 Energy>
-147.94

$$$$
COc1cc(NS(C)(=O)=O)ccc1Nc1c2ccccc2nc2ccccc12
Actelion Java MolfileCreator 2.0

  0  0  0  0  0  0              0 V3000
M  V30 BEGIN CTAB
M  V30 COUNTS 47 50 0 0 0
M  V30 BEGIN ATOM
M  V30 1 S -0.2424 -1.0509 -5.4252 0
M  V30 2 O -1.5411 -0.4707 -5.1699 0
M  V30 3 O 0.2784 -1.1609 -6.7716 0
M  V30 4 N 0.9388 -0.2276 -4.5551 0
M  V30 5 C -0.1916 -2.6785 -4.7 0
M  V30 6 C 0.8521 -0.1139 -3.1379 0
M  V30 7 C 1.9346 -0.5506 -2.3685 0
M  V30 8 C -0.2646 0.4376 -2.5171 0
M  V30 9 C 1.8872 -0.4606 -0.973 0
M  V30 10 C -0.3184 0.528 -1.1246 0
M  V30 11 O 2.8902 -0.8656 -0.122 0
M  V30 12 C 0.7475 0.0795 -0.3366 0
M  V30 13 C 4.0781 -1.3801 -0.7098 0
M  V30 14 N 0.7126 0.1391 1.0706 0
M  V30 15 C -0.3152 0.5806 1.9371 0
M  V30 16 C -0.1451 1.7923 2.6527 0
M  V30 17 C -1.4775 -0.2053 2.1472 0
M  V30 18 C -1.1772 2.1774 3.5267 0
M  V30 19 C 0.9883 2.6317 2.5204 0
M  V30 20 C -2.4387 0.2952 3.0443 0
M  V30 21 C -1.7151 -1.4563 1.5251 0
M  V30 22 N -2.2891 1.4511 3.7067 0
M  V30 23 C -1.0453 3.363 4.2382 0
M  V30 24 C 1.0983 3.817 3.2451 0
M  V30 25 C -3.5956 -0.4399 3.2691 0
M  V30 26 C -2.8826 -2.1776 1.7676 0
M  V30 27 C 0.0774 4.1835 4.1094 0
M  V30 28 C -3.8293 -1.6649 2.6411 0
M  V30 29 H 1.8637 -0.3254 -4.972 0
M  V30 30 H 0.8281 -3.0627 -4.7617 0
M  V30 31 H -0.5337 -2.6267 -3.6653 0
M  V30 32 H -0.8625 -3.3202 -5.2756 0
M  V30 33 H 2.8012 -0.9622 -2.872 0
M  V30 34 H -1.0997 0.8202 -3.0989 0
M  V30 35 H -1.2012 0.965 -0.6641 0
M  V30 36 H 3.8737 -2.2967 -1.2724 0
M  V30 37 H 4.7686 -1.6339 0.1001 0
M  V30 38 H 4.5651 -0.6279 -1.339 0
M  V30 39 H 1.589 -0.1113 1.5197 0
M  V30 40 H 1.7903 2.3663 1.8353 0
M  V30 41 H -0.9793 -1.8759 0.8433 0
M  V30 42 H -1.8448 3.6584 4.9143 0
M  V30 43 H 1.9737 4.4502 3.129 0
M  V30 44 H -4.3383 -0.047 3.9602 0
M  V30 45 H -3.0475 -3.1326 1.2766 0
M  V30 46 H 0.1447 5.1052 4.6809 0
M  V30 47 H -4.7461 -2.2123 2.8424 0
M  V30 END ATOM
M  V30 BEGIN BOND
M  V30 1 2 1 2
M  V30 2 2 1 3
M  V30 3 1 1 4
M  V30 4 1 1 5
M  V30 5 1 4 6
M  V30 6 2 6 7
M  V30 7 1 6 8
M  V30 8 1 7 9
M  V30 9 2 8 10
M  V30 10 1 9 11
M  V30 11 2 9 12
M  V30 12 1 11 13
M  V30 13 1 12 14
M  V30 14 1 14 15
M  V30 15 1 15 16
M  V30 16 2 15 17
M  V30 17 1 16 18
M  V30 18 2 16 19
M  V30 19 1 17 20
M  V30 20 1 17 21
M  V30 21 1 18 22
M  V30 22 2 18 23
M  V30 23 1 19 24
M  V30 24 1 20 25
M  V30 25 2 21 26
M  V30 26 1 23 27
M  V30 27 2 25 28
M  V30 28 1 10 12
M  V30 29 2 20 22
M  V30 30 2 24 27
M  V30 31 1 26 28
M  V30 32 1 4 29
M  V30 33 1 5 30
M  V30 34 1 5 31
M  V30 35 1 5 32
M  V30 36 1 7 33
M  V30 37 1 8 34
M  V30 38 1 10 35
M  V30 39 1 13 36
M  V30 40 1 13 37
M  V30 41 1 13 38
M  V30 42 1 14 39
M  V30 43 1 19 40
M  V30 44 1 21 41
M  V30 45 1 23 42
M  V30 46 1 24 43
M  V30 47 1 25 44
M  V30 48 1 26 45
M  V30 49 1 27 46
M  V30 50 1 28 47
M  V30 END BOND
M  V30 END CTAB
M  END
>  <NO.>
5805

>  <Name>
amsacrine

>  <SMILES>
COc1cc(NS(C)(=O)=O)ccc1Nc1c2ccccc2nc2ccccc12

>  <logBB>


>  <Class>
-1

>  <MW>
393.11

>  <nHBAcc>
5

>  <nHBDon>
2

>  <SLogP>
4.51

>  <TopoPSA>
80.32

>  <MMFF94 Energy>
40.38

$$$$
COc1cc(OC)cc(N(CCNC(C)C)c2ccc3ncc(-c4cnn(C)c4)nc3c2)c1
Actelion Java MolfileCreator 2.0

  0  0  0  0  0  0              0 V3000
M  V30 BEGIN CTAB
M  V30 COUNTS 63 66 0 0 0
M  V30 BEGIN ATOM
M  V30 1 O -1.1859 4.2745 3.3234 0
M  V30 2 C -1.2585 3.3224 2.3434 0
M  V30 3 C 0.1115 4.7213 3.6955 0
M  V30 4 C -2.547 2.8567 2.0772 0
M  V30 5 C -0.1822 2.8043 1.6215 0
M  V30 6 C -2.7715 1.8726 1.1142 0
M  V30 7 C -0.3819 1.8263 0.633 0
M  V30 8 O -4.0802 1.5034 0.9635 0
M  V30 9 C -1.6897 1.3651 0.3952 0
M  V30 10 N 0.7068 1.3065 -0.1182 0
M  V30 11 C -4.3394 0.3943 0.1114 0
M  V30 12 C 0.9669 -0.0632 -0.3502 0
M  V30 13 C 1.4736 2.3334 -0.8617 0
M  V30 14 C 0.5107 -1.0362 0.5604 0
M  V30 15 C 1.682 -0.5347 -1.4562 0
M  V30 16 C 0.7393 2.7682 -2.1513 0
M  V30 17 C 0.7284 -2.4008 0.3915 0
M  V30 18 C 1.9126 -1.9032 -1.6427 0
M  V30 19 N 1.5488 3.7183 -2.933 0
M  V30 20 N 0.2523 -3.2723 1.305 0
M  V30 21 C 1.4469 -2.8435 -0.7398 0
M  V30 22 C 0.8667 4.1686 -4.1565 0
M  V30 23 C 0.4932 -4.5882 1.0921 0
M  V30 24 N 1.6857 -4.1509 -0.9544 0
M  V30 25 C 1.6089 5.3931 -4.7 0
M  V30 26 C 0.8343 3.0753 -5.2258 0
M  V30 27 C -0.0328 -5.4952 2.0927 0
M  V30 28 C 1.1997 -5.0083 -0.0234 0
M  V30 29 C -0.7671 -5.2008 3.2653 0
M  V30 30 C 0.0772 -6.8722 2.108 0
M  V30 31 N -1.0941 -6.2941 3.9605 0
M  V30 32 N -0.568 -7.2954 3.2365 0
M  V30 33 C -0.7237 -8.6558 3.6915 0
M  V30 34 H 0.7205 3.8948 4.0765 0
M  V30 35 H -0.0046 5.4494 4.5041 0
M  V30 36 H 0.6078 5.2273 2.8609 0
M  V30 37 H -3.3882 3.2582 2.6378 0
M  V30 38 H 0.8309 3.1276 1.8316 0
M  V30 39 H -1.8365 0.6176 -0.3773 0
M  V30 40 H -4.0965 0.6344 -0.9287 0
M  V30 41 H -5.4111 0.1783 0.1611 0
M  V30 42 H -3.8033 -0.4995 0.4475 0
M  V30 43 H 2.4828 1.972 -1.0971 0
M  V30 44 H 1.6498 3.2208 -0.2405 0
M  V30 45 H -0.0254 -0.7289 1.4566 0
M  V30 46 H 2.0678 0.1384 -2.2165 0
M  V30 47 H -0.2171 3.2339 -1.8843 0
M  V30 48 H 0.5132 1.8801 -2.7489 0
M  V30 49 H 2.4667 -2.239 -2.5159 0
M  V30 50 H 1.7445 4.5325 -2.3485 0
M  V30 51 H -0.159 4.4794 -3.9221 0
M  V30 52 H 2.6485 5.1547 -4.9523 0
M  V30 53 H 1.6159 6.2076 -3.9669 0
M  V30 54 H 1.1212 5.7706 -5.6055 0
M  V30 55 H 0.2188 2.2244 -4.9185 0
M  V30 56 H 1.8409 2.7041 -5.4488 0
M  V30 57 H 0.4072 3.4609 -6.1582 0
M  V30 58 H 1.4068 -6.0534 -0.2196 0
M  V30 59 H -1.0735 -4.2292 3.6337 0
M  V30 60 H 0.5445 -7.5787 1.4371 0
M  V30 61 H -1.7919 -8.8799 3.7485 0
M  V30 62 H -0.2581 -8.7452 4.6762 0
M  V30 63 H -0.2373 -9.3334 2.9857 0
M  V30 END ATOM
M  V30 BEGIN BOND
M  V30 1 1 1 2
M  V30 2 1 1 3
M  V30 3 2 2 4
M  V30 4 1 2 5
M  V30 5 1 4 6
M  V30 6 2 5 7
M  V30 7 1 6 8
M  V30 8 2 6 9
M  V30 9 1 7 10
M  V30 10 1 8 11
M  V30 11 1 10 12
M  V30 12 1 10 13
M  V30 13 2 12 14
M  V30 14 1 12 15
M  V30 15 1 13 16
M  V30 16 1 14 17
M  V30 17 2 15 18
M  V30 18 1 16 19
M  V30 19 2 17 20
M  V30 20 1 17 21
M  V30 21 1 19 22
M  V30 22 1 20 23
M  V30 23 2 21 24
M  V30 24 1 22 25
M  V30 25 1 22 26
M  V30 26 1 23 27
M  V30 27 2 23 28
M  V30 28 1 27 29
M  V30 29 2 27 30
M  V30 30 2 29 31
M  V30 31 1 30 32
M  V30 32 1 32 33
M  V30 33 1 7 9
M  V30 34 1 18 21
M  V30 35 1 24 28
M  V30 36 1 31 32
M  V30 37 1 3 34
M  V30 38 1 3 35
M  V30 39 1 3 36
M  V30 40 1 4 37
M  V30 41 1 5 38
M  V30 42 1 9 39
M  V30 43 1 11 40
M  V30 44 1 11 41
M  V30 45 1 11 42
M  V30 46 1 13 43
M  V30 47 1 13 44
M  V30 48 1 14 45
M  V30 49 1 15 46
M  V30 50 1 16 47
M  V30 51 1 16 48
M  V30 52 1 18 49
M  V30 53 1 19 50
M  V30 54 1 22 51
M  V30 55 1 25 52
M  V30 56 1 25 53
M  V30 57 1 25 54
M  V30 58 1 26 55
M  V30 59 1 26 56
M  V30 60 1 26 57
M  V30 61 1 28 58
M  V30 62 1 29 59
M  V30 63 1 30 60
M  V30 64 1 33 61
M  V30 65 1 33 62
M  V30 66 1 33 63
M  V30 END BOND
M  V30 END CTAB
M  END
>  <NO.>
5808

>  <Name>
erdafitinib

>  <SMILES>
COc1cc(OC)cc(N(CCNC(C)C)c2ccc3ncc(-c4cnn(C)c4)nc3c2)c1

>  <logBB>


>  <Class>
-1

>  <MW>
446.24

>  <nHBAcc>
7

>  <nHBDon>
1

>  <SLogP>
4.18

>  <TopoPSA>
77.33

>  <MMFF94 Energy>
137.91

$$$$
COc1cc2nc(N(C)CCCNC(=O)C3CCCO3)nc(N)c2cc1OC
Actelion Java MolfileCreator 2.0

  0  0  0  0  0  0              0 V3000
M  V30 BEGIN CTAB
M  V30 COUNTS 55 57 0 0 0
M  V30 BEGIN ATOM
M  V30 1 O 0.7084 -1.9689 -3.3885 0
M  V30 2 C 1.071 -2.9145 -2.6953 0
M  V30 3 N 1.6224 -2.7805 -1.4391 0
M  V30 4 C 1.0149 -4.3745 -3.1702 0 CFG=1
M  V30 5 C 1.7826 -1.5019 -0.7763 0
M  V30 6 O 1.0001 -5.3051 -2.0671 0
M  V30 7 C -0.2203 -4.6584 -4.0108 0
M  V30 8 C 2.9953 -0.7426 -1.3051 0
M  V30 9 C -0.1298 -6.1726 -2.2278 0
M  V30 10 C -0.5108 -6.1016 -3.6875 0
M  V30 11 C 3.3228 0.512 -0.4941 0
M  V30 12 N 2.2893 1.5281 -0.5974 0
M  V30 13 C 1.3372 1.6781 0.3876 0
M  V30 14 C 2.1379 2.2884 -1.8213 0
M  V30 15 N 1.4016 0.897 1.4744 0
M  V30 16 N 0.3719 2.5925 0.2141 0
M  V30 17 C 0.4608 1.0411 2.4162 0
M  V30 18 C -0.5509 2.7487 1.1675 0
M  V30 19 N 0.6 0.1963 3.5086 0
M  V30 20 C -0.5593 1.9897 2.3342 0
M  V30 21 C -1.5402 3.7077 0.9877 0
M  V30 22 C -1.5503 2.2183 3.3221 0
M  V30 23 C -2.5342 3.9386 1.9465 0
M  V30 24 C -2.5349 3.1892 3.134 0
M  V30 25 O -3.5338 4.8715 1.82 0
M  V30 26 O -3.5312 3.4734 4.0321 0
M  V30 27 C -3.574 5.6374 0.6239 0
M  V30 28 C -3.4947 2.817 5.2912 0
M  V30 29 H 1.8315 -3.6431 -0.9437 0
M  V30 30 H 1.9291 -4.5717 -3.742 0
M  V30 31 H 1.8938 -1.7137 0.292 0
M  V30 32 H 0.8638 -0.925 -0.9245 0
M  V30 33 H -0.0521 -4.4821 -5.0774 0
M  V30 34 H -1.0644 -4.0302 -3.7001 0
M  V30 35 H 2.8394 -0.4813 -2.3588 0
M  V30 36 H 3.8705 -1.4048 -1.2817 0
M  V30 37 H 0.1336 -7.1845 -1.9082 0
M  V30 38 H -0.9358 -5.7997 -1.5861 0
M  V30 39 H -1.5472 -6.3939 -3.8751 0
M  V30 40 H 0.1453 -6.7512 -4.2785 0
M  V30 41 H 4.2592 0.9322 -0.8839 0
M  V30 42 H 3.5479 0.2439 0.5454 0
M  V30 43 H 2.9826 2.121 -2.4991 0
M  V30 44 H 1.2274 1.9938 -2.3552 0
M  V30 45 H 2.1022 3.3651 -1.6196 0
M  V30 46 H 1.4149 -0.3996 3.4264 0
M  V30 47 H -0.2352 -0.2294 3.8807 0
M  V30 48 H -1.5062 4.2773 0.0643 0
M  V30 49 H -1.5193 1.6279 4.2307 0
M  V30 50 H -2.674 6.2521 0.5186 0
M  V30 51 H -4.4319 6.3138 0.6888 0
M  V30 52 H -3.722 4.9964 -0.2512 0
M  V30 53 H -3.6401 1.738 5.1762 0
M  V30 54 H -4.3239 3.2014 5.8932 0
M  V30 55 H -2.5652 3.037 5.8267 0
M  V30 END ATOM
M  V30 BEGIN BOND
M  V30 1 2 1 2
M  V30 2 1 2 3
M  V30 3 1 2 4
M  V30 4 1 3 5
M  V30 5 1 4 6
M  V30 6 1 4 7
M  V30 7 1 5 8
M  V30 8 1 6 9
M  V30 9 1 7 10
M  V30 10 1 8 11
M  V30 11 1 11 12
M  V30 12 1 12 13
M  V30 13 1 12 14
M  V30 14 1 13 15
M  V30 15 2 13 16
M  V30 16 2 15 17
M  V30 17 1 16 18
M  V30 18 1 17 19
M  V30 19 1 17 20
M  V30 20 2 18 21
M  V30 21 2 20 22
M  V30 22 1 21 23
M  V30 23 1 22 24
M  V30 24 1 23 25
M  V30 25 1 24 26
M  V30 26 1 25 27
M  V30 27 1 26 28
M  V30 28 1 9 10
M  V30 29 1 18 20
M  V30 30 2 23 24
M  V30 31 1 3 29
M  V30 32 1 4 30
M  V30 33 1 5 31
M  V30 34 1 5 32
M  V30 35 1 7 33
M  V30 36 1 7 34
M  V30 37 1 8 35
M  V30 38 1 8 36
M  V30 39 1 9 37
M  V30 40 1 9 38
M  V30 41 1 10 39
M  V30 42 1 10 40
M  V30 43 1 11 41
M  V30 44 1 11 42
M  V30 45 1 14 43
M  V30 46 1 14 44
M  V30 47 1 14 45
M  V30 48 1 19 46
M  V30 49 1 19 47
M  V30 50 1 21 48
M  V30 51 1 22 49
M  V30 52 1 27 50
M  V30 53 1 27 51
M  V30 54 1 27 52
M  V30 55 1 28 53
M  V30 56 1 28 54
M  V30 57 1 28 55
M  V30 END BOND
M  V30 BEGIN COLLECTION
M  V30 MDLV30/STERAC1 ATOMS=(1 4)
M  V30 END COLLECTION
M  V30 END CTAB
M  END
>  <NO.>
5810

>  <Name>
alfuzosin

>  <SMILES>
COc1cc2nc(N(C)CCCNC(=O)C3CCCO3)nc(N)c2cc1OC

>  <logBB>


>  <Class>
-1

>  <MW>
389.21

>  <nHBAcc>
8

>  <nHBDon>
2

>  <SLogP>
1.35

>  <TopoPSA>
111.83

>  <MMFF94 Energy>
-55.381

$$$$
COc1ccc(-n2nc(C(N)=O)c3c2C(=O)N(c2ccc(N4CCCCC4=O)cc2)CC3)cc1
Actelion Java MolfileCreator 2.0

  0  0  0  0  0  0              0 V3000
M  V30 BEGIN CTAB
M  V30 COUNTS 59 63 0 0 0
M  V30 BEGIN ATOM
M  V30 1 O 0.9607 -0.7205 0.2401 0
M  V30 2 C -0.085 -1.3396 0.076 0
M  V30 3 N -1.3178 -0.7108 -0.2194 0
M  V30 4 C -0.1673 -2.7826 0.1427 0
M  V30 5 C -1.3812 0.7011 -0.3872 0
M  V30 6 C -2.5969 -1.4493 -0.1546 0
M  V30 7 N 0.7796 -3.6992 0.5402 0
M  V30 8 C -1.2853 -3.5199 -0.2016 0
M  V30 9 C -2.3162 1.4658 0.3178 0
M  V30 10 C -0.5201 1.3418 -1.2832 0
M  V30 11 C -2.5124 -2.8739 -0.7209 0
M  V30 12 N 0.2852 -4.9701 0.546 0
M  V30 13 C 2.1211 -3.4993 0.9341 0
M  V30 14 C -0.9638 -4.869 0.0532 0
M  V30 15 C -2.391 2.8495 0.1238 0
M  V30 16 C -0.5905 2.7268 -1.4716 0
M  V30 17 C 3.0075 -2.8043 0.1104 0
M  V30 18 C 2.5701 -4.0712 2.1303 0
M  V30 19 C -1.808 -6.0555 -0.1482 0
M  V30 20 C -1.5287 3.4925 -0.7705 0
M  V30 21 C 4.339 -2.6576 0.5073 0
M  V30 22 C 3.9055 -3.9188 2.5185 0
M  V30 23 O -2.9549 -6.0165 -0.5803 0
M  V30 24 N -1.2049 -7.2343 0.1881 0
M  V30 25 N -1.6327 4.9006 -0.979 0
M  V30 26 C 4.7945 -3.2079 1.7098 0
M  V30 27 C -1.6329 5.7671 0.1151 0
M  V30 28 C -1.5503 5.3743 -2.3612 0
M  V30 29 O 6.1194 -2.9891 1.971 0
M  V30 30 O -1.4961 5.4057 1.2863 0
M  V30 31 C -1.9296 7.2318 -0.1619 0
M  V30 32 C -2.1877 6.7363 -2.5717 0
M  V30 33 C 6.618 -3.473 3.2113 0
M  V30 34 C -1.6033 7.7055 -1.564 0
M  V30 35 H -3.3759 -0.8999 -0.6964 0
M  V30 36 H -2.8793 -1.4957 0.9054 0
M  V30 37 H -2.984 1.008 1.0415 0
M  V30 38 H 0.2228 0.7728 -1.8363 0
M  V30 39 H -3.4147 -3.4295 -0.4482 0
M  V30 40 H -2.4571 -2.8346 -1.8152 0
M  V30 41 H -3.1225 3.4219 0.6894 0
M  V30 42 H 0.1133 3.191 -2.1555 0
M  V30 43 H 2.6865 -2.3716 -0.8332 0
M  V30 44 H 1.89 -4.6355 2.7648 0
M  V30 45 H 5.0293 -2.1056 -0.1261 0
M  V30 46 H 4.2188 -4.3708 3.4533 0
M  V30 47 H -0.2524 -7.2118 0.535 0
M  V30 48 H -1.7023 -8.104 0.0814 0
M  V30 49 H -0.4876 5.4274 -2.6281 0
M  V30 50 H -2.0366 4.6485 -3.0241 0
M  V30 51 H -1.3719 7.8373 0.5615 0
M  V30 52 H -2.9979 7.3809 0.0382 0
M  V30 53 H -1.9959 7.0856 -3.5919 0
M  V30 54 H -3.2752 6.6703 -2.445 0
M  V30 55 H 6.0948 -3.012 4.0557 0
M  V30 56 H 7.6731 -3.1914 3.2801 0
M  V30 57 H 6.5615 -4.5654 3.259 0
M  V30 58 H -2.0114 8.7097 -1.7227 0
M  V30 59 H -0.5163 7.7721 -1.6942 0
M  V30 END ATOM
M  V30 BEGIN BOND
M  V30 1 2 1 2
M  V30 2 1 2 3
M  V30 3 1 2 4
M  V30 4 1 3 5
M  V30 5 1 3 6
M  V30 6 1 4 7
M  V30 7 2 4 8
M  V30 8 2 5 9
M  V30 9 1 5 10
M  V30 10 1 6 11
M  V30 11 1 7 12
M  V30 12 1 7 13
M  V30 13 1 8 14
M  V30 14 1 9 15
M  V30 15 2 10 16
M  V30 16 2 13 17
M  V30 17 1 13 18
M  V30 18 1 14 19
M  V30 19 2 15 20
M  V30 20 1 17 21
M  V30 21 2 18 22
M  V30 22 2 19 23
M  V30 23 1 19 24
M  V30 24 1 20 25
M  V30 25 2 21 26
M  V30 26 1 25 27
M  V30 27 1 25 28
M  V30 28 1 26 29
M  V30 29 2 27 30
M  V30 30 1 27 31
M  V30 31 1 28 32
M  V30 32 1 29 33
M  V30 33 1 31 34
M  V30 34 1 8 11
M  V30 35 2 12 14
M  V30 36 1 16 20
M  V30 37 1 22 26
M  V30 38 1 32 34
M  V30 39 1 6 35
M  V30 40 1 6 36
M  V30 41 1 9 37
M  V30 42 1 10 38
M  V30 43 1 11 39
M  V30 44 1 11 40
M  V30 45 1 15 41
M  V30 46 1 16 42
M  V30 47 1 17 43
M  V30 48 1 18 44
M  V30 49 1 21 45
M  V30 50 1 22 46
M  V30 51 1 24 47
M  V30 52 1 24 48
M  V30 53 1 28 49
M  V30 54 1 28 50
M  V30 55 1 31 51
M  V30 56 1 31 52
M  V30 57 1 32 53
M  V30 58 1 32 54
M  V30 59 1 33 55
M  V30 60 1 33 56
M  V30 61 1 33 57
M  V30 62 1 34 58
M  V30 63 1 34 59
M  V30 END BOND
M  V30 END CTAB
M  END
>  <NO.>
5812

>  <Name>
apixaban

>  <SMILES>
COc1ccc(-n2nc(C(N)=O)c3c2C(=O)N(c2ccc(N4CCCCC4=O)cc2)CC3)cc1

>  <logBB>


>  <Class>
-1

>  <MW>
459.19

>  <nHBAcc>
5

>  <nHBDon>
1

>  <SLogP>
2.7

>  <TopoPSA>
110.76

>  <MMFF94 Energy>
52.366

$$$$
COc1ccc(C(=O)N2CCN(c3ccc4c(c3)CCC(=O)N4)CC2)cc1OC
Actelion Java MolfileCreator 2.0

  0  0  0  0  0  0              0 V3000
M  V30 BEGIN CTAB
M  V30 COUNTS 54 57 0 0 0
M  V30 BEGIN ATOM
M  V30 1 O -2.7098 -1.2745 -8.5469 0
M  V30 2 C -2.5131 -0.9597 -7.3755 0
M  V30 3 N -2.0079 -1.8615 -6.4765 0
M  V30 4 C -2.715 0.4506 -6.8702 0
M  V30 5 C -1.8008 -1.5792 -5.1239 0
M  V30 6 C -3.199 0.4679 -5.4281 0
M  V30 7 C -2.3515 -0.4266 -4.5674 0
M  V30 8 C -1.0706 -2.4555 -4.3338 0
M  V30 9 C -2.1676 -0.1659 -3.1999 0
M  V30 10 C -0.8825 -2.1702 -2.9754 0
M  V30 11 C -1.423 -1.0226 -2.3696 0
M  V30 12 N -1.2367 -0.7516 -1.0231 0
M  V30 13 C -2.1728 0.1148 -0.283 0
M  V30 14 C -0.1248 -1.3481 -0.2647 0
M  V30 15 C -2.1622 -0.188 1.2253 0
M  V30 16 C 0.2928 -0.4576 0.9221 0
M  V30 17 N -0.824 -0.1206 1.8147 0
M  V30 18 C -0.7145 0.1376 3.1751 0
M  V30 19 O -1.6816 0.2167 3.9282 0
M  V30 20 C 0.631 0.321 3.761 0
M  V30 21 C 1.4838 1.3234 3.2874 0
M  V30 22 C 1.0126 -0.4913 4.8288 0
M  V30 23 C 2.7499 1.4855 3.8578 0
M  V30 24 C 2.2755 -0.3337 5.4022 0
M  V30 25 O 3.6662 2.424 3.4512 0
M  V30 26 C 3.1525 0.6455 4.9197 0
M  V30 27 C 3.2541 3.3721 2.477 0
M  V30 28 O 4.4141 0.8661 5.4146 0
M  V30 29 C 4.8305 0.0913 6.5299 0
M  V30 30 H -1.7945 -2.7798 -6.8431 0
M  V30 31 H -1.7544 0.9723 -6.96 0
M  V30 32 H -3.44 0.9614 -7.5127 0
M  V30 33 H -4.2364 0.1153 -5.3739 0
M  V30 34 H -3.1754 1.4979 -5.0539 0
M  V30 35 H -0.6416 -3.3615 -4.751 0
M  V30 36 H -2.6062 0.7403 -2.7906 0
M  V30 37 H -0.3208 -2.891 -2.3874 0
M  V30 38 H -1.8923 1.1622 -0.4477 0
M  V30 39 H -3.2 -0.0268 -0.6402 0
M  V30 40 H 0.7593 -1.4781 -0.9 0
M  V30 41 H -0.4317 -2.3348 0.1025 0
M  V30 42 H -2.8331 0.5022 1.7488 0
M  V30 43 H -2.5339 -1.2045 1.405 0
M  V30 44 H 1.0874 -0.9532 1.4884 0
M  V30 45 H 0.6874 0.4915 0.5407 0
M  V30 46 H 1.134 1.964 2.4858 0
M  V30 47 H 0.3284 -1.2442 5.2139 0
M  V30 48 H 2.5433 -0.9879 6.2251 0
M  V30 49 H 3.0412 2.8847 1.52 0
M  V30 50 H 4.0822 4.0694 2.3174 0
M  V30 51 H 2.3935 3.952 2.8266 0
M  V30 52 H 4.1791 0.2589 7.3941 0
M  V30 53 H 5.8381 0.4168 6.8057 0
M  V30 54 H 4.8836 -0.9717 6.2733 0
M  V30 END ATOM
M  V30 BEGIN BOND
M  V30 1 2 1 2
M  V30 2 1 2 3
M  V30 3 1 2 4
M  V30 4 1 3 5
M  V30 5 1 4 6
M  V30 6 2 5 7
M  V30 7 1 5 8
M  V30 8 1 7 9
M  V30 9 2 8 10
M  V30 10 2 9 11
M  V30 11 1 11 12
M  V30 12 1 12 13
M  V30 13 1 12 14
M  V30 14 1 13 15
M  V30 15 1 14 16
M  V30 16 1 15 17
M  V30 17 1 17 18
M  V30 18 2 18 19
M  V30 19 1 18 20
M  V30 20 2 20 21
M  V30 21 1 20 22
M  V30 22 1 21 23
M  V30 23 2 22 24
M  V30 24 1 23 25
M  V30 25 2 23 26
M  V30 26 1 25 27
M  V30 27 1 26 28
M  V30 28 1 28 29
M  V30 29 1 6 7
M  V30 30 1 10 11
M  V30 31 1 16 17
M  V30 32 1 24 26
M  V30 33 1 3 30
M  V30 34 1 4 31
M  V30 35 1 4 32
M  V30 36 1 6 33
M  V30 37 1 6 34
M  V30 38 1 8 35
M  V30 39 1 9 36
M  V30 40 1 10 37
M  V30 41 1 13 38
M  V30 42 1 13 39
M  V30 43 1 14 40
M  V30 44 1 14 41
M  V30 45 1 15 42
M  V30 46 1 15 43
M  V30 47 1 16 44
M  V30 48 1 16 45
M  V30 49 1 21 46
M  V30 50 1 22 47
M  V30 51 1 24 48
M  V30 52 1 27 49
M  V30 53 1 27 50
M  V30 54 1 27 51
M  V30 55 1 29 52
M  V30 56 1 29 53
M  V30 57 1 29 54
M  V30 END BOND
M  V30 END CTAB
M  END
>  <NO.>
5813

>  <Name>
vesnarinone

>  <SMILES>
COc1ccc(C(=O)N2CCN(c3ccc4c(c3)CCC(=O)N4)CC2)cc1OC

>  <logBB>


>  <Class>
-1

>  <MW>
395.18

>  <nHBAcc>
5

>  <nHBDon>
1

>  <SLogP>
2.55

>  <TopoPSA>
71.11

>  <MMFF94 Energy>
89.362

$$$$
COc1ccc(C2CC(=O)c3c(O)cc(O)cc3O2)cc1O
Actelion Java MolfileCreator 2.0

  0  0  0  0  0  0              0 V3000
M  V30 BEGIN CTAB
M  V30 COUNTS 36 38 0 0 0
M  V30 BEGIN ATOM
M  V30 1 O -2.8032 1.2807 2.6428 0
M  V30 2 C -1.923 0.6046 2.1233 0
M  V30 3 C -1.65 -0.8109 2.492 0
M  V30 4 C -1.0147 1.2007 1.0842 0
M  V30 5 C -0.6959 -1.5073 1.7361 0
M  V30 6 C -2.2712 -1.4593 3.5679 0
M  V30 7 C -0.7256 0.1244 0.0539 0 CFG=2
M  V30 8 O -0.032 -0.9767 0.6593 0
M  V30 9 C -0.3425 -2.8175 2.0668 0
M  V30 10 O -3.2046 -0.8189 4.3305 0
M  V30 11 C -1.9332 -2.7765 3.8875 0
M  V30 12 C 0.1285 0.674 -1.0737 0
M  V30 13 C -0.9693 -3.4414 3.138 0
M  V30 14 C -0.4676 1.0602 -2.2829 0
M  V30 15 C 1.5138 0.8397 -0.9261 0
M  V30 16 O -0.6653 -4.7221 3.4924 0
M  V30 17 C 0.3138 1.586 -3.3151 0
M  V30 18 C 2.2913 1.3669 -1.9643 0
M  V30 19 O -0.2797 1.9574 -4.493 0
M  V30 20 C 1.6984 1.7448 -3.1702 0
M  V30 21 O 2.3651 2.2692 -4.2455 0
M  V30 22 C 3.7684 2.4469 -4.1223 0
M  V30 23 H -1.5178 2.0566 0.6203 0
M  V30 24 H -0.1085 1.5546 1.5895 0
M  V30 25 H -1.6581 -0.2702 -0.3756 0
M  V30 26 H 0.409 -3.3319 1.4757 0
M  V30 27 H -3.531 -1.4073 5.0299 0
M  V30 28 H -2.4028 -3.2942 4.7187 0
M  V30 29 H -1.5404 0.9499 -2.4151 0
M  V30 30 H 2.0036 0.5541 0.0034 0
M  V30 31 H 0.0196 -5.0641 2.8932 0
M  V30 32 H 3.3581 1.4688 -1.7963 0
M  V30 33 H -1.2339 1.7981 -4.4367 0
M  V30 34 H 4.0086 3.1533 -3.3208 0
M  V30 35 H 4.1355 2.8728 -5.061 0
M  V30 36 H 4.2763 1.4888 -3.9712 0
M  V30 END ATOM
M  V30 BEGIN BOND
M  V30 1 2 1 2
M  V30 2 1 2 3
M  V30 3 1 2 4
M  V30 4 2 3 5
M  V30 5 1 3 6
M  V30 6 1 4 7
M  V30 7 1 5 8
M  V30 8 1 5 9
M  V30 9 1 6 10
M  V30 10 2 6 11
M  V30 11 1 7 12
M  V30 12 2 9 13
M  V30 13 2 12 14
M  V30 14 1 12 15
M  V30 15 1 13 16
M  V30 16 1 14 17
M  V30 17 2 15 18
M  V30 18 1 17 19
M  V30 19 2 17 20
M  V30 20 1 20 21
M  V30 21 1 21 22
M  V30 22 1 7 8
M  V30 23 1 11 13
M  V30 24 1 18 20
M  V30 25 1 4 23
M  V30 26 1 4 24
M  V30 27 1 7 25
M  V30 28 1 9 26
M  V30 29 1 10 27
M  V30 30 1 11 28
M  V30 31 1 14 29
M  V30 32 1 15 30
M  V30 33 1 16 31
M  V30 34 1 18 32
M  V30 35 1 19 33
M  V30 36 1 22 34
M  V30 37 1 22 35
M  V30 38 1 22 36
M  V30 END BOND
M  V30 BEGIN COLLECTION
M  V30 MDLV30/STERAC1 ATOMS=(1 7)
M  V30 END COLLECTION
M  V30 END CTAB
M  END
>  <NO.>
5814

>  <Name>
hesperetin

>  <SMILES>
COc1ccc(C2CC(=O)c3c(O)cc(O)cc3O2)cc1O

>  <logBB>


>  <Class>
-1

>  <MW>
302.08

>  <nHBAcc>
6

>  <nHBDon>
3

>  <SLogP>
2.52

>  <TopoPSA>
96.22

>  <MMFF94 Energy>
55.288

$$$$
COc1ccc(CCNC[C@@H](O)c2ccc(O)cc2)cc1OC
Actelion Java MolfileCreator 2.0

  0  0  0  0  0  0              0 V3000
M  V30 BEGIN CTAB
M  V30 COUNTS 46 47 0 0 0
M  V30 BEGIN ATOM
M  V30 1 O -2.5942 0.707 3.8539 0
M  V30 2 C -2.8714 0.4156 2.5406 0
M  V30 3 C -1.895 1.9118 4.1297 0
M  V30 4 C -3.6015 -0.7674 2.3102 0
M  V30 5 C -2.4737 1.2053 1.4544 0
M  V30 6 O -3.9526 -1.4872 3.4258 0
M  V30 7 C -3.92 -1.1357 0.9991 0
M  V30 8 C -2.7933 0.8343 0.1394 0
M  V30 9 C -4.6935 -2.683 3.2324 0
M  V30 10 C -3.5182 -0.341 -0.0775 0
M  V30 11 C -2.3391 1.6827 -1.0264 0
M  V30 12 C -1.12 1.1087 -1.7673 0
M  V30 13 N 0.085 1.1087 -0.9227 0
M  V30 14 C 1.2257 0.517 -1.6544 0
M  V30 15 C 2.5518 0.7075 -0.8801 0 CFG=1
M  V30 16 O 2.3932 0.2528 0.4684 0
M  V30 17 C 3.6931 -0.0267 -1.5522 0
M  V30 18 C 4.0301 -1.3432 -1.198 0
M  V30 19 C 4.4166 0.5991 -2.5807 0
M  V30 20 C 5.0689 -2.0156 -1.8467 0
M  V30 21 C 5.4535 -0.0725 -3.2309 0
M  V30 22 C 5.7719 -1.3723 -2.859 0
M  V30 23 O 6.7924 -1.9907 -3.5188 0
M  V30 24 H -0.8916 1.8947 3.6917 0
M  V30 25 H -1.7814 1.9917 5.2152 0
M  V30 26 H -2.4616 2.7853 3.7903 0
M  V30 27 H -1.9054 2.1181 1.6045 0
M  V30 28 H -4.4809 -2.0378 0.7799 0
M  V30 29 H -5.6625 -2.4769 2.7659 0
M  V30 30 H -4.8859 -3.1203 4.217 0
M  V30 31 H -4.1207 -3.4133 2.6513 0
M  V30 32 H -3.7776 -0.649 -1.0882 0
M  V30 33 H -2.1227 2.7039 -0.6864 0
M  V30 34 H -3.1748 1.7781 -1.7319 0
M  V30 35 H -0.9389 1.7295 -2.6529 0
M  V30 36 H -1.3395 0.0906 -2.112 0
M  V30 37 H -0.1082 0.5083 -0.1156 0
M  V30 38 H 1.0278 -0.5531 -1.7975 0
M  V30 39 H 1.324 0.9751 -2.6464 0
M  V30 40 H 2.8013 1.7747 -0.8201 0
M  V30 41 H 1.7248 0.8488 0.8506 0
M  V30 42 H 3.4832 -1.8485 -0.4036 0
M  V30 43 H 4.1784 1.6171 -2.8815 0
M  V30 44 H 5.3101 -3.0303 -1.5472 0
M  V30 45 H 6.0119 0.4175 -4.0232 0
M  V30 46 H 6.9174 -2.8724 -3.1315 0
M  V30 END ATOM
M  V30 BEGIN BOND
M  V30 1 1 1 2
M  V30 2 1 1 3
M  V30 3 2 2 4
M  V30 4 1 2 5
M  V30 5 1 4 6
M  V30 6 1 4 7
M  V30 7 2 5 8
M  V30 8 1 6 9
M  V30 9 2 7 10
M  V30 10 1 8 11
M  V30 11 1 11 12
M  V30 12 1 12 13
M  V30 13 1 13 14
M  V30 14 1 14 15
M  V30 15 1 15 16
M  V30 16 1 15 17
M  V30 17 2 17 18
M  V30 18 1 17 19
M  V30 19 1 18 20
M  V30 20 2 19 21
M  V30 21 2 20 22
M  V30 22 1 22 23
M  V30 23 1 8 10
M  V30 24 1 21 22
M  V30 25 1 3 24
M  V30 26 1 3 25
M  V30 27 1 3 26
M  V30 28 1 5 27
M  V30 29 1 7 28
M  V30 30 1 9 29
M  V30 31 1 9 30
M  V30 32 1 9 31
M  V30 33 1 10 32
M  V30 34 1 11 33
M  V30 35 1 11 34
M  V30 36 1 12 35
M  V30 37 1 12 36
M  V30 38 1 13 37
M  V30 39 1 14 38
M  V30 40 1 14 39
M  V30 41 1 15 40
M  V30 42 1 16 41
M  V30 43 1 18 42
M  V30 44 1 19 43
M  V30 45 1 20 44
M  V30 46 1 21 45
M  V30 47 1 23 46
M  V30 END BOND
M  V30 BEGIN COLLECTION
M  V30 MDLV30/STEABS ATOMS=(1 15)
M  V30 END COLLECTION
M  V30 END CTAB
M  END
>  <NO.>
5815

>  <Name>
denopaminum [latin]

>  <SMILES>
COc1ccc(CCNC[C@@H](O)c2ccc(O)cc2)cc1OC

>  <logBB>


>  <Class>
-1

>  <MW>
317.16

>  <nHBAcc>
5

>  <nHBDon>
3

>  <SLogP>
2.28

>  <TopoPSA>
70.95

>  <MMFF94 Energy>
93.621

$$$$
COc1ccc(CCOC2CCCCC2N2CCC(O)C2)cc1OC
Actelion Java MolfileCreator 2.0

  0  0  0  0  0  0              0 V3000
M  V30 BEGIN CTAB
M  V30 COUNTS 56 58 0 0 0
M  V30 BEGIN ATOM
M  V30 1 O 1.1071 0.2371 0.5534 0
M  V30 2 C 2.2126 0.2856 -0.3636 0
M  V30 3 C 1.2348 1.1379 1.655 0
M  V30 4 C 2.2831 -1.0477 -1.1769 0
M  V30 5 C 2.0243 1.4624 -1.335 0
M  V30 6 C 0.0239 0.9836 2.5783 0
M  V30 7 N 2.6663 -2.1983 -0.3363 0
M  V30 8 C 0.9977 -1.2263 -2.0161 0
M  V30 9 C 0.77 1.2974 -2.1921 0
M  V30 10 C -1.2315 1.6022 2.0048 0
M  V30 11 C 1.7165 -2.6068 0.7037 0
M  V30 12 C 3.0115 -3.4129 -1.073 0
M  V30 13 C 0.7691 -0.0297 -2.9427 0
M  V30 14 C -1.941 0.9491 0.9853 0
M  V30 15 C -1.6949 2.8363 2.4684 0
M  V30 16 C 2.055 -4.0777 1.0045 0
M  V30 17 C 3.1879 -4.4217 0.049 0
M  V30 18 C -3.0949 1.5165 0.4314 0
M  V30 19 C -2.8507 3.4079 1.9289 0
M  V30 20 O 0.9443 -4.9299 0.724 0
M  V30 21 O -3.837 0.9402 -0.5704 0
M  V30 22 C -3.5579 2.7566 0.9127 0
M  V30 23 C -3.3304 -0.2486 -1.1594 0
M  V30 24 O -4.6983 3.2457 0.3243 0
M  V30 25 C -5.2053 4.4838 0.7993 0
M  V30 26 H 3.1506 0.4128 0.1923 0
M  V30 27 H 1.3231 2.1708 1.3037 0
M  V30 28 H 2.1404 0.8755 2.2137 0
M  V30 29 H 3.1132 -0.9164 -1.8865 0
M  V30 30 H 2.9028 1.5401 -1.9873 0
M  V30 31 H 1.9504 2.4092 -0.7903 0
M  V30 32 H -0.1693 -0.0775 2.7797 0
M  V30 33 H 0.2471 1.4528 3.5442 0
M  V30 34 H 1.0577 -2.1259 -2.637 0
M  V30 35 H 0.1198 -1.3428 -1.3707 0
M  V30 36 H -0.1224 1.361 -1.5591 0
M  V30 37 H 0.7056 2.1233 -2.9096 0
M  V30 38 H 0.6698 -2.5162 0.3975 0
M  V30 39 H 1.8731 -2.0044 1.6042 0
M  V30 40 H 3.9337 -3.2958 -1.6502 0
M  V30 41 H 2.2113 -3.7435 -1.744 0
M  V30 42 H -0.1829 -0.1519 -3.4716 0
M  V30 43 H 1.5555 -0.012 -3.7074 0
M  V30 44 H -1.5615 -0.0055 0.6337 0
M  V30 45 H -1.1624 3.3657 3.2552 0
M  V30 46 H 2.3539 -4.2349 2.0458 0
M  V30 47 H 3.1468 -5.4507 -0.3207 0
M  V30 48 H 4.1552 -4.2615 0.5412 0
M  V30 49 H -3.1716 4.3658 2.3234 0
M  V30 50 H 0.2163 -4.6546 1.3072 0
M  V30 51 H -2.3423 -0.0839 -1.6008 0
M  V30 52 H -4.0098 -0.5367 -1.9674 0
M  V30 53 H -3.3103 -1.0696 -0.4354 0
M  V30 54 H -5.481 4.4193 1.8571 0
M  V30 55 H -6.1137 4.7125 0.2336 0
M  V30 56 H -4.4924 5.2961 0.624 0
M  V30 END ATOM
M  V30 BEGIN BOND
M  V30 1 1 1 2
M  V30 2 1 1 3
M  V30 3 1 2 4
M  V30 4 1 2 5
M  V30 5 1 3 6
M  V30 6 1 4 7
M  V30 7 1 4 8
M  V30 8 1 5 9
M  V30 9 1 6 10
M  V30 10 1 7 11
M  V30 11 1 7 12
M  V30 12 1 8 13
M  V30 13 2 10 14
M  V30 14 1 10 15
M  V30 15 1 11 16
M  V30 16 1 12 17
M  V30 17 1 14 18
M  V30 18 2 15 19
M  V30 19 1 16 20
M  V30 20 1 18 21
M  V30 21 2 18 22
M  V30 22 1 21 23
M  V30 23 1 22 24
M  V30 24 1 24 25
M  V30 25 1 9 13
M  V30 26 1 16 17
M  V30 27 1 19 22
M  V30 28 1 2 26
M  V30 29 1 3 27
M  V30 30 1 3 28
M  V30 31 1 4 29
M  V30 32 1 5 30
M  V30 33 1 5 31
M  V30 34 1 6 32
M  V30 35 1 6 33
M  V30 36 1 8 34
M  V30 37 1 8 35
M  V30 38 1 9 36
M  V30 39 1 9 37
M  V30 40 1 11 38
M  V30 41 1 11 39
M  V30 42 1 12 40
M  V30 43 1 12 41
M  V30 44 1 13 42
M  V30 45 1 13 43
M  V30 46 1 14 44
M  V30 47 1 15 45
M  V30 48 1 16 46
M  V30 49 1 17 47
M  V30 50 1 17 48
M  V30 51 1 19 49
M  V30 52 1 20 50
M  V30 53 1 23 51
M  V30 54 1 23 52
M  V30 55 1 23 53
M  V30 56 1 25 54
M  V30 57 1 25 55
M  V30 58 1 25 56
M  V30 END BOND
M  V30 END CTAB
M  END
>  <NO.>
5816

>  <Name>
schembl2624888

>  <SMILES>
COc1ccc(CCOC2CCCCC2N2CCC(O)C2)cc1OC

>  <logBB>


>  <Class>
-1

>  <MW>
349.23

>  <nHBAcc>
5

>  <nHBDon>
1

>  <SLogP>
2.64

>  <TopoPSA>
51.16

>  <MMFF94 Energy>
110.45

$$$$
COc1ccc(CNc2nc(N3CCCC3CO)ncc2C(=O)NCc2ncccn2)cc1Cl
Actelion Java MolfileCreator 2.0

  0  0  0  0  0  0              0 V3000
M  V30 BEGIN CTAB
M  V30 COUNTS 60 63 0 0 0
M  V30 BEGIN ATOM
M  V30 1 Cl -4.1645 2.5612 -3.042 0
M  V30 2 C -2.4933 2.4713 -2.6014 0
M  V30 3 C -1.4886 2.979 -3.441 0
M  V30 4 C -2.1723 1.8456 -1.3919 0
M  V30 5 O -1.8959 3.5513 -4.6182 0
M  V30 6 C -0.1555 2.8548 -3.0396 0
M  V30 7 C -0.836 1.7123 -0.998 0
M  V30 8 C -0.8941 4.1046 -5.4612 0
M  V30 9 C 0.1664 2.2274 -1.8309 0
M  V30 10 C -0.4736 0.9732 0.2693 0
M  V30 11 N 0.0939 -0.3075 -0.1024 0
M  V30 12 C 0.7102 -1.1068 0.8556 0
M  V30 13 N 0.6367 -0.7152 2.1477 0
M  V30 14 C 1.4141 -2.2462 0.4935 0
M  V30 15 C 1.2247 -1.4681 3.0966 0
M  V30 16 C 1.6138 -2.7221 -0.8909 0
M  V30 17 C 1.9509 -2.9764 1.5275 0
M  V30 18 N 1.8693 -2.6089 2.8222 0
M  V30 19 N 1.1401 -1.0585 4.3931 0
M  V30 20 O 1.7793 -3.9158 -1.1114 0
M  V30 21 N 1.6154 -1.7575 -1.8668 0
M  V30 22 C 0.6426 0.2487 4.8247 0 CFG=2
M  V30 23 C 1.7712 -1.8116 5.4622 0
M  V30 24 C 1.4784 -2.0672 -3.2796 0
M  V30 25 C 1.2608 0.392 6.2254 0
M  V30 26 C -0.8979 0.2721 4.8776 0
M  V30 27 C 1.3733 -1.0438 6.7203 0
M  V30 28 C 0.1968 -1.4881 -3.8552 0
M  V30 29 O -1.4626 0.4395 3.5772 0
M  V30 30 N 0.253 -0.9495 -5.0909 0
M  V30 31 N -0.92 -1.5307 -3.0894 0
M  V30 32 C -0.8965 -0.4417 -5.576 0
M  V30 33 C -2.0397 -1.02 -3.6364 0
M  V30 34 C -2.085 -0.4544 -4.8873 0
M  V30 35 H -2.9664 1.4459 -0.7646 0
M  V30 36 H 0.6635 3.2218 -3.6495 0
M  V30 37 H -0.3518 4.9104 -4.9557 0
M  V30 38 H -1.3935 4.5366 -6.3338 0
M  V30 39 H -0.2099 3.329 -5.8203 0
M  V30 40 H 1.2126 2.1262 -1.5463 0
M  V30 41 H -1.3647 0.832 0.8904 0
M  V30 42 H 0.241 1.5824 0.8369 0
M  V30 43 H -0.3935 -0.8071 -0.8498 0
M  V30 44 H 2.4941 -3.9001 1.3458 0
M  V30 45 H 1.5044 -0.7852 -1.595 0
M  V30 46 H 1.0113 1.0512 4.1738 0
M  V30 47 H 2.8612 -1.8059 5.3441 0
M  V30 48 H 1.4195 -2.8477 5.5136 0
M  V30 49 H 1.4829 -3.1487 -3.4451 0
M  V30 50 H 2.3425 -1.6265 -3.787 0
M  V30 51 H 2.2655 0.8252 6.1404 0
M  V30 52 H 0.6778 1.0266 6.8992 0
M  V30 53 H -1.2489 1.1129 5.4842 0
M  V30 54 H -1.304 -0.6508 5.3046 0
M  V30 55 H 0.4004 -1.3934 7.086 0
M  V30 56 H 2.1024 -1.1586 7.5273 0
M  V30 57 H -0.9181 -0.1206 2.9834 0
M  V30 58 H -0.8314 -0.0104 -6.5706 0
M  V30 59 H -2.9295 -1.0739 -3.0155 0
M  V30 60 H -2.9941 -0.0373 -5.2977 0
M  V30 END ATOM
M  V30 BEGIN BOND
M  V30 1 1 1 2
M  V30 2 2 2 3
M  V30 3 1 2 4
M  V30 4 1 3 5
M  V30 5 1 3 6
M  V30 6 2 4 7
M  V30 7 1 5 8
M  V30 8 2 6 9
M  V30 9 1 7 10
M  V30 10 1 10 11
M  V30 11 1 11 12
M  V30 12 2 12 13
M  V30 13 1 12 14
M  V30 14 1 13 15
M  V30 15 1 14 16
M  V30 16 2 14 17
M  V30 17 2 15 18
M  V30 18 1 15 19
M  V30 19 2 16 20
M  V30 20 1 16 21
M  V30 21 1 19 22
M  V30 22 1 19 23
M  V30 23 1 21 24
M  V30 24 1 22 25
M  V30 25 1 22 26
M  V30 26 1 23 27
M  V30 27 1 24 28
M  V30 28 1 26 29
M  V30 29 2 28 30
M  V30 30 1 28 31
M  V30 31 1 30 32
M  V30 32 2 31 33
M  V30 33 2 32 34
M  V30 34 1 7 9
M  V30 35 1 17 18
M  V30 36 1 25 27
M  V30 37 1 33 34
M  V30 38 1 4 35
M  V30 39 1 6 36
M  V30 40 1 8 37
M  V30 41 1 8 38
M  V30 42 1 8 39
M  V30 43 1 9 40
M  V30 44 1 10 41
M  V30 45 1 10 42
M  V30 46 1 11 43
M  V30 47 1 17 44
M  V30 48 1 21 45
M  V30 49 1 22 46
M  V30 50 1 23 47
M  V30 51 1 23 48
M  V30 52 1 24 49
M  V30 53 1 24 50
M  V30 54 1 25 51
M  V30 55 1 25 52
M  V30 56 1 26 53
M  V30 57 1 26 54
M  V30 58 1 27 55
M  V30 59 1 27 56
M  V30 60 1 29 57
M  V30 61 1 32 58
M  V30 62 1 33 59
M  V30 63 1 34 60
M  V30 END BOND
M  V30 BEGIN COLLECTION
M  V30 MDLV30/STERAC1 ATOMS=(1 22)
M  V30 END COLLECTION
M  V30 END CTAB
M  END
>  <NO.>
5817

>  <Name>
avanafil

>  <SMILES>
COc1ccc(CNc2nc(N3CCCC3CO)ncc2C(=O)NCc2ncccn2)cc1Cl

>  <logBB>


>  <Class>
-1

>  <MW>
483.18

>  <nHBAcc>
9

>  <nHBDon>
3

>  <SLogP>
2.43

>  <TopoPSA>
125.39

>  <MMFF94 Energy>
-30.031

$$$$
COc1ccc(O)cc1
Actelion Java MolfileCreator 2.0

  0  0  0  0  0  0              0 V3000
M  V30 BEGIN CTAB
M  V30 COUNTS 17 17 0 0 0
M  V30 BEGIN ATOM
M  V30 1 O 0.0776 -0.699 2.0204 0
M  V30 2 C 0.1811 -0.3282 0.7081 0
M  V30 3 C -1.0244 -0.1774 2.7517 0
M  V30 4 C -0.6953 0.5147 0.0206 0
M  V30 5 C 1.2809 -0.8675 0.0343 0
M  V30 6 C -0.4724 0.8145 -1.3283 0
M  V30 7 C 1.506 -0.5705 -1.3105 0
M  V30 8 C 0.6272 0.2685 -1.9819 0
M  V30 9 O 0.8795 0.5356 -3.2944 0
M  V30 10 H -0.9796 0.9152 2.8077 0
M  V30 11 H -0.9619 -0.5656 3.7729 0
M  V30 12 H -1.9756 -0.5134 2.3256 0
M  V30 13 H -1.5608 0.9548 0.5043 0
M  V30 14 H 1.9678 -1.5244 0.5619 0
M  V30 15 H -1.1642 1.4715 -1.8459 0
M  V30 16 H 2.3621 -0.9926 -1.8282 0
M  V30 17 H 0.1886 1.1301 -3.6289 0
M  V30 END ATOM
M  V30 BEGIN BOND
M  V30 1 1 1 2
M  V30 2 1 1 3
M  V30 3 2 2 4
M  V30 4 1 2 5
M  V30 5 1 4 6
M  V30 6 2 5 7
M  V30 7 2 6 8
M  V30 8 1 8 9
M  V30 9 1 7 8
M  V30 10 1 3 10
M  V30 11 1 3 11
M  V30 12 1 3 12
M  V30 13 1 4 13
M  V30 14 1 5 14
M  V30 15 1 6 15
M  V30 16 1 7 16
M  V30 17 1 9 17
M  V30 END BOND
M  V30 END CTAB
M  END
>  <NO.>
5818

>  <Name>
mequinol

>  <SMILES>
COc1ccc(O)cc1

>  <logBB>


>  <Class>
-1

>  <MW>
124.05

>  <nHBAcc>
2

>  <nHBDon>
1

>  <SLogP>
1.4

>  <TopoPSA>
29.46

>  <MMFF94 Energy>
8.9186

$$$$
COc1cccc(CCc2ccccc2OCC(CN(C)C)OC(=O)CCC(=O)O)c1
Actelion Java MolfileCreator 2.0

  0  0  0  0  0  0              0 V3000
M  V30 BEGIN CTAB
M  V30 COUNTS 62 63 0 0 0
M  V30 BEGIN ATOM
M  V30 1 O -3.2314 1.3388 3.4682 0
M  V30 2 C -2.3512 1.997 2.9313 0
M  V30 3 O -1.908 1.8177 1.66 0
M  V30 4 C -1.5859 3.12 3.5793 0
M  V30 5 C -2.572 0.784 0.8954 0 CFG=2
M  V30 6 C -2.0745 3.3708 4.9999 0
M  V30 7 C -1.9823 -0.5934 1.2548 0
M  V30 8 C -2.3723 1.1015 -0.6058 0
M  V30 9 C -1.3083 4.4892 5.6424 0
M  V30 10 O -0.612 -0.6511 0.8505 0
M  V30 11 N -3.0272 2.3522 -1.0605 0
M  V30 12 O -0.3942 5.1334 5.158 0
M  V30 13 O -1.7401 4.744 6.8926 0
M  V30 14 C 0.0555 -1.835 1.0182 0
M  V30 15 C -4.4866 2.2384 -1.0713 0
M  V30 16 C -2.5497 2.7046 -2.401 0
M  V30 17 C 1.3661 -1.8739 0.5052 0
M  V30 18 C -0.4711 -2.9649 1.6517 0
M  V30 19 C 2.1172 -3.055 0.6233 0
M  V30 20 C 1.9768 -0.6767 -0.1946 0
M  V30 21 C 0.2896 -4.1312 1.7661 0
M  V30 22 C 1.5807 -4.1775 1.2501 0
M  V30 23 C 1.4966 -0.4987 -1.6409 0
M  V30 24 C 2.0642 -1.5272 -2.5926 0
M  V30 25 C 3.3486 -1.358 -3.1383 0
M  V30 26 C 1.3266 -2.6719 -2.9194 0
M  V30 27 C 3.8849 -2.315 -4.0027 0
M  V30 28 C 1.859 -3.629 -3.7804 0
M  V30 29 O 5.117 -2.2643 -4.5955 0
M  V30 30 C 3.1326 -3.4481 -4.3192 0
M  V30 31 C 5.9194 -1.1247 -4.3142 0
M  V30 32 H -1.7166 4.0239 2.973 0
M  V30 33 H -0.5227 2.8536 3.5881 0
M  V30 34 H -3.6414 0.7723 1.1348 0
M  V30 35 H -3.1372 3.639 4.9905 0
M  V30 36 H -1.9452 2.4687 5.6088 0
M  V30 37 H -2.0423 -0.7501 2.3376 0
M  V30 38 H -2.5569 -1.3685 0.7331 0
M  V30 39 H -2.7137 0.2553 -1.2163 0
M  V30 40 H -1.2937 1.2152 -0.7764 0
M  V30 41 H -1.1701 5.48 7.1999 0
M  V30 42 H -4.8829 2.0973 -0.0614 0
M  V30 43 H -4.8319 1.4103 -1.7006 0
M  V30 44 H -4.9413 3.1636 -1.4446 0
M  V30 45 H -2.7882 1.9316 -3.1405 0
M  V30 46 H -1.4645 2.8569 -2.397 0
M  V30 47 H -2.994 3.6499 -2.7327 0
M  V30 48 H -1.4706 -2.9727 2.0735 0
M  V30 49 H 3.1247 -3.1065 0.215 0
M  V30 50 H 3.072 -0.747 -0.1614 0
M  V30 51 H 1.7303 0.2256 0.38 0
M  V30 52 H -0.1281 -5.005 2.2598 0
M  V30 53 H 2.1707 -5.0864 1.3339 0
M  V30 54 H 0.4011 -0.511 -1.6982 0
M  V30 55 H 1.7977 0.4964 -1.9938 0
M  V30 56 H 3.9092 -0.4685 -2.8693 0
M  V30 57 H 0.3376 -2.8284 -2.4935 0
M  V30 58 H 1.2852 -4.5176 -4.0288 0
M  V30 59 H 3.5449 -4.1976 -4.99 0
M  V30 60 H 5.436 -0.2054 -4.6614 0
M  V30 61 H 6.8593 -1.234 -4.8637 0
M  V30 62 H 6.1623 -1.0664 -3.2479 0
M  V30 END ATOM
M  V30 BEGIN BOND
M  V30 1 2 1 2
M  V30 2 1 2 3
M  V30 3 1 2 4
M  V30 4 1 3 5
M  V30 5 1 4 6
M  V30 6 1 5 7
M  V30 7 1 5 8
M  V30 8 1 6 9
M  V30 9 1 7 10
M  V30 10 1 8 11
M  V30 11 2 9 12
M  V30 12 1 9 13
M  V30 13 1 10 14
M  V30 14 1 11 15
M  V30 15 1 11 16
M  V30 16 2 14 17
M  V30 17 1 14 18
M  V30 18 1 17 19
M  V30 19 1 17 20
M  V30 20 2 18 21
M  V30 21 2 19 22
M  V30 22 1 20 23
M  V30 23 1 23 24
M  V30 24 2 24 25
M  V30 25 1 24 26
M  V30 26 1 25 27
M  V30 27 2 26 28
M  V30 28 1 27 29
M  V30 29 2 27 30
M  V30 30 1 29 31
M  V30 31 1 21 22
M  V30 32 1 28 30
M  V30 33 1 4 32
M  V30 34 1 4 33
M  V30 35 1 5 34
M  V30 36 1 6 35
M  V30 37 1 6 36
M  V30 38 1 7 37
M  V30 39 1 7 38
M  V30 40 1 8 39
M  V30 41 1 8 40
M  V30 42 1 13 41
M  V30 43 1 15 42
M  V30 44 1 15 43
M  V30 45 1 15 44
M  V30 46 1 16 45
M  V30 47 1 16 46
M  V30 48 1 16 47
M  V30 49 1 18 48
M  V30 50 1 19 49
M  V30 51 1 20 50
M  V30 52 1 20 51
M  V30 53 1 21 52
M  V30 54 1 22 53
M  V30 55 1 23 54
M  V30 56 1 23 55
M  V30 57 1 25 56
M  V30 58 1 26 57
M  V30 59 1 28 58
M  V30 60 1 30 59
M  V30 61 1 31 60
M  V30 62 1 31 61
M  V30 63 1 31 62
M  V30 END BOND
M  V30 BEGIN COLLECTION
M  V30 MDLV30/STERAC1 ATOMS=(1 5)
M  V30 END COLLECTION
M  V30 END CTAB
M  END
>  <NO.>
5821

>  <Name>
sarpogrelate

>  <SMILES>
COc1cccc(CCc2ccccc2OCC(CN(C)C)OC(=O)CCC(=O)O)c1

>  <logBB>


>  <Class>
-1

>  <MW>
429.22

>  <nHBAcc>
6

>  <nHBDon>
1

>  <SLogP>
3.2

>  <TopoPSA>
85.3

>  <MMFF94 Energy>
33.603

$$$$
COc1ccnc(C[S+]([O-])c2nc3ccc(-n4cccc4)cc3[nH]2)c1C
Actelion Java MolfileCreator 2.0

  0  0  0  0  0  0              0 V3000
M  V30 BEGIN CTAB
M  V30 COUNTS 44 47 0 0 0
M  V30 BEGIN ATOM
M  V30 1 S 1.7833 -0.324 0.081 0 CFG=2
M  V30 2 O 2.4788 -0.3734 -1.2506 0
M  V30 3 C 0.0727 -0.7549 -0.2795 0
M  V30 4 C 1.4607 1.4063 0.541 0
M  V30 5 N -0.9373 -0.6074 0.5488 0
M  V30 6 N -0.3225 -1.2868 -1.4758 0
M  V30 7 C 2.6908 2.0892 1.0845 0
M  V30 8 C -2.0325 -1.0639 -0.1446 0
M  V30 9 C -1.6751 -1.4975 -1.4182 0
M  V30 10 N 3.2498 3.0041 0.2494 0
M  V30 11 C 3.2214 1.8143 2.3564 0
M  V30 12 C -3.3752 -1.1371 0.2527 0
M  V30 13 C -2.5886 -2.0101 -2.3436 0
M  V30 14 C 4.3712 3.6297 0.6518 0
M  V30 15 C 4.4077 2.4759 2.7304 0
M  V30 16 C 2.6056 0.8048 3.2886 0
M  V30 17 C -4.3209 -1.6447 -0.6493 0
M  V30 18 C -3.9298 -2.0729 -1.9266 0
M  V30 19 C 4.9852 3.4 1.8662 0
M  V30 20 O 4.9183 2.142 3.9594 0
M  V30 21 N -4.9072 -2.5805 -2.8191 0
M  V30 22 C 6.1333 2.7634 4.3591 0
M  V30 23 C -6.1931 -2.1048 -2.9725 0
M  V30 24 C -4.7403 -3.6368 -3.6907 0
M  V30 25 C -6.8329 -2.856 -3.9344 0
M  V30 26 C -5.9134 -3.8266 -4.3885 0
M  V30 27 H 1.1088 1.9268 -0.3574 0
M  V30 28 H 0.6529 1.4571 1.2773 0
M  V30 29 H 0.2974 -1.4673 -2.2537 0
M  V30 30 H -3.6686 -0.8076 1.2436 0
M  V30 31 H -2.2711 -2.3203 -3.3333 0
M  V30 32 H 4.7816 4.3431 -0.057 0
M  V30 33 H 3.0845 -0.1695 3.1523 0
M  V30 34 H 1.5299 0.6947 3.1296 0
M  V30 35 H 2.7171 1.1097 4.3346 0
M  V30 36 H -5.3576 -1.7135 -0.3267 0
M  V30 37 H 5.8905 3.9435 2.1007 0
M  V30 38 H 6.949 2.5143 3.6727 0
M  V30 39 H 6.3987 2.3733 5.3464 0
M  V30 40 H 6.0096 3.8473 4.4522 0
M  V30 41 H -6.5454 -1.2576 -2.3999 0
M  V30 42 H -3.8078 -4.1828 -3.7316 0
M  V30 43 H -7.8514 -2.7144 -4.2726 0
M  V30 44 H -6.0859 -4.5861 -5.1401 0
M  V30 END ATOM
M  V30 BEGIN BOND
M  V30 1 2 1 2
M  V30 2 1 1 3
M  V30 3 1 1 4
M  V30 4 2 3 5
M  V30 5 1 3 6
M  V30 6 1 4 7
M  V30 7 1 5 8
M  V30 8 1 6 9
M  V30 9 2 7 10
M  V30 10 1 7 11
M  V30 11 1 8 12
M  V30 12 1 9 13
M  V30 13 1 10 14
M  V30 14 2 11 15
M  V30 15 1 11 16
M  V30 16 2 12 17
M  V30 17 2 13 18
M  V30 18 2 14 19
M  V30 19 1 15 20
M  V30 20 1 18 21
M  V30 21 1 20 22
M  V30 22 1 21 23
M  V30 23 1 21 24
M  V30 24 2 23 25
M  V30 25 2 24 26
M  V30 26 2 8 9
M  V30 27 1 15 19
M  V30 28 1 17 18
M  V30 29 1 25 26
M  V30 30 1 4 27
M  V30 31 1 4 28
M  V30 32 1 6 29
M  V30 33 1 12 30
M  V30 34 1 13 31
M  V30 35 1 14 32
M  V30 36 1 16 33
M  V30 37 1 16 34
M  V30 38 1 16 35
M  V30 39 1 17 36
M  V30 40 1 19 37
M  V30 41 1 22 38
M  V30 42 1 22 39
M  V30 43 1 22 40
M  V30 44 1 23 41
M  V30 45 1 24 42
M  V30 46 1 25 43
M  V30 47 1 26 44
M  V30 END BOND
M  V30 BEGIN COLLECTION
M  V30 MDLV30/STERAC1 ATOMS=(1 1)
M  V30 END COLLECTION
M  V30 END CTAB
M  END
>  <NO.>
5824

>  <Name>
ilaprazole

>  <SMILES>
COc1ccnc(C[S+]([O-])c2nc3ccc(-n4cccc4)cc3[nH]2)c1C

>  <logBB>


>  <Class>
-1

>  <MW>
366.12

>  <nHBAcc>
4

>  <nHBDon>
1

>  <SLogP>
3.37

>  <TopoPSA>
78.79

>  <MMFF94 Energy>
57.689

$$$$
COc1nccnc1NS(=O)(=O)c1ccc(N)cc1
Actelion Java MolfileCreator 2.0

  0  0  0  0  0  0              0 V3000
M  V30 BEGIN CTAB
M  V30 COUNTS 31 32 0 0 0
M  V30 BEGIN ATOM
M  V30 1 S -1.2938 -1.0511 0.5659 0
M  V30 2 O -0.4512 -2.1612 0.1731 0
M  V30 3 O -2.5924 -1.2922 1.163 0
M  V30 4 N -0.4676 -0.0687 1.6513 0
M  V30 5 C -1.5551 0.0096 -0.8316 0
M  V30 6 C 0.9373 -0.0623 1.4735 0
M  V30 7 C -2.5324 1.0046 -0.764 0
M  V30 8 C -0.8237 -0.185 -2.0039 0
M  V30 9 N 1.3831 0.6543 0.4223 0
M  V30 10 C 1.7888 -0.8194 2.2903 0
M  V30 11 C -2.7628 1.8189 -1.8762 0
M  V30 12 C -1.0644 0.6364 -3.1088 0
M  V30 13 C 2.7213 0.6066 0.2296 0
M  V30 14 O 1.2189 -1.5152 3.3417 0
M  V30 15 N 3.1294 -0.8535 2.0989 0
M  V30 16 C -2.0413 1.6356 -3.0597 0
M  V30 17 C 3.5719 -0.1268 1.0459 0
M  V30 18 C 2.1442 -2.3736 4.0009 0
M  V30 19 N -2.2548 2.4625 -4.1469 0
M  V30 20 H -0.7697 -0.2893 2.5991 0
M  V30 21 H -3.1122 1.1525 0.1435 0
M  V30 22 H -0.0642 -0.9603 -2.0635 0
M  V30 23 H -3.5173 2.5984 -1.8116 0
M  V30 24 H -0.4813 0.4866 -4.0133 0
M  V30 25 H 3.099 1.1799 -0.6101 0
M  V30 26 H 4.642 -0.1482 0.8707 0
M  V30 27 H 2.9333 -1.7981 4.4968 0
M  V30 28 H 1.597 -2.9215 4.7741 0
M  V30 29 H 2.5681 -3.1094 3.3087 0
M  V30 30 H -1.7793 2.2911 -5.0216 0
M  V30 31 H -2.9998 3.145 -4.1317 0
M  V30 END ATOM
M  V30 BEGIN BOND
M  V30 1 2 1 2
M  V30 2 2 1 3
M  V30 3 1 1 4
M  V30 4 1 1 5
M  V30 5 1 4 6
M  V30 6 2 5 7
M  V30 7 1 5 8
M  V30 8 2 6 9
M  V30 9 1 6 10
M  V30 10 1 7 11
M  V30 11 2 8 12
M  V30 12 1 9 13
M  V30 13 1 10 14
M  V30 14 2 10 15
M  V30 15 2 11 16
M  V30 16 2 13 17
M  V30 17 1 14 18
M  V30 18 1 16 19
M  V30 19 1 12 16
M  V30 20 1 15 17
M  V30 21 1 4 20
M  V30 22 1 7 21
M  V30 23 1 8 22
M  V30 24 1 11 23
M  V30 25 1 12 24
M  V30 26 1 13 25
M  V30 27 1 17 26
M  V30 28 1 18 27
M  V30 29 1 18 28
M  V30 30 1 18 29
M  V30 31 1 19 30
M  V30 32 1 19 31
M  V30 END BOND
M  V30 END CTAB
M  END
>  <NO.>
5826

>  <Name>
sulfalene

>  <SMILES>
COc1nccnc1NS(=O)(=O)c1ccc(N)cc1

>  <logBB>


>  <Class>
-1

>  <MW>
280.06

>  <nHBAcc>
6

>  <nHBDon>
2

>  <SLogP>
0.87

>  <TopoPSA>
107.2

>  <MMFF94 Energy>
1.7873

$$$$
COc1ncnc(NS(=O)(=O)c2ccc(N)cc2)c1OC
Actelion Java MolfileCreator 2.0

  0  0  0  0  0  0              0 V3000
M  V30 BEGIN CTAB
M  V30 COUNTS 35 36 0 0 0
M  V30 BEGIN ATOM
M  V30 1 S -1.2869 -1.3674 -0.8846 0
M  V30 2 O -1.1732 -0.2869 -1.843 0
M  V30 3 O -1.8898 -2.6276 -1.2695 0
M  V30 4 N 0.2389 -1.7476 -0.2853 0
M  V30 5 C -2.1584 -0.7897 0.5477 0
M  V30 6 C 1.1328 -0.6489 -0.2133 0
M  V30 7 C -2.5603 -1.7065 1.5208 0
M  V30 8 C -2.4742 0.5635 0.6763 0
M  V30 9 N 0.9235 0.1678 0.8283 0
M  V30 10 C 2.0615 -0.4396 -1.2169 0
M  V30 11 C -3.2702 -1.2567 2.6373 0
M  V30 12 C -3.185 0.9995 1.798 0
M  V30 13 C 1.7275 1.2331 0.8801 0
M  V30 14 O 2.1499 -1.3613 -2.2202 0
M  V30 15 C 2.8417 0.6858 -1.037 0
M  V30 16 C -3.5989 0.0948 2.7806 0
M  V30 17 N 2.6901 1.5384 -5.0E-4 0
M  V30 18 C 2.1995 -0.7831 -3.5242 0
M  V30 19 O 3.85 0.9312 -1.9486 0
M  V30 20 N -4.2757 0.5375 3.9018 0
M  V30 21 C 4.5996 2.1105 -1.6748 0
M  V30 22 H 0.6064 -2.5515 -0.7926 0
M  V30 23 H -2.3236 -2.7625 1.4195 0
M  V30 24 H -2.1679 1.2819 -0.0796 0
M  V30 25 H -3.5693 -1.9748 3.3963 0
M  V30 26 H -3.4165 2.0567 1.8972 0
M  V30 27 H 1.589 1.9134 1.7139 0
M  V30 28 H 1.6131 0.1399 -3.5986 0
M  V30 29 H 1.7691 -1.5071 -4.2229 0
M  V30 30 H 3.2373 -0.6118 -3.8235 0
M  V30 31 H -4.5695 1.5015 3.9754 0
M  V30 32 H -4.6266 -0.1231 4.5812 0
M  V30 33 H 5.3579 2.2116 -2.457 0
M  V30 34 H 3.964 3.0021 -1.7105 0
M  V30 35 H 5.1207 2.0351 -0.7142 0
M  V30 END ATOM
M  V30 BEGIN BOND
M  V30 1 2 1 2
M  V30 2 2 1 3
M  V30 3 1 1 4
M  V30 4 1 1 5
M  V30 5 1 4 6
M  V30 6 2 5 7
M  V30 7 1 5 8
M  V30 8 2 6 9
M  V30 9 1 6 10
M  V30 10 1 7 11
M  V30 11 2 8 12
M  V30 12 1 9 13
M  V30 13 1 10 14
M  V30 14 2 10 15
M  V30 15 2 11 16
M  V30 16 2 13 17
M  V30 17 1 14 18
M  V30 18 1 15 19
M  V30 19 1 16 20
M  V30 20 1 19 21
M  V30 21 1 12 16
M  V30 22 1 15 17
M  V30 23 1 4 22
M  V30 24 1 7 23
M  V30 25 1 8 24
M  V30 26 1 11 25
M  V30 27 1 12 26
M  V30 28 1 13 27
M  V30 29 1 18 28
M  V30 30 1 18 29
M  V30 31 1 18 30
M  V30 32 1 20 31
M  V30 33 1 20 32
M  V30 34 1 21 33
M  V30 35 1 21 34
M  V30 36 1 21 35
M  V30 END BOND
M  V30 END CTAB
M  END
>  <NO.>
5827

>  <Name>
sulfadoxine

>  <SMILES>
COc1ncnc(NS(=O)(=O)c2ccc(N)cc2)c1OC

>  <logBB>


>  <Class>
-1

>  <MW>
310.07

>  <nHBAcc>
7

>  <nHBDon>
2

>  <SLogP>
0.88

>  <TopoPSA>
116.43

>  <MMFF94 Energy>
-62.051

$$$$
CS(=O)(=O)Nc1cc2occ(NC=O)c(=O)c2cc1Oc1ccccc1
Actelion Java MolfileCreator 2.0

  0  0  0  0  0  0              0 V3000
M  V30 BEGIN CTAB
M  V30 COUNTS 40 42 0 0 0
M  V30 BEGIN ATOM
M  V30 1 S 0.7323 -0.8951 -4.1555 0
M  V30 2 O 1.1514 -2.2564 -3.9066 0
M  V30 3 O 0.212 -0.4902 -5.4438 0
M  V30 4 N -0.4361 -0.4463 -3.023 0
M  V30 5 C 2.0865 0.1953 -3.7617 0
M  V30 6 C -0.1625 -0.6636 -1.6359 0
M  V30 7 C 0.0313 0.438 -0.7881 0
M  V30 8 C -0.084 -1.958 -1.1213 0
M  V30 9 O -0.0084 1.6989 -1.3443 0
M  V30 10 C 0.3362 0.2496 0.5623 0
M  V30 11 C 0.1993 -2.1491 0.2321 0
M  V30 12 C -0.863 2.608 -0.7619 0
M  V30 13 C 0.4115 -1.0517 1.0659 0
M  V30 14 O 0.2592 -3.4441 0.6819 0
M  V30 15 C -2.1831 2.299 -0.4226 0
M  V30 16 C -0.3764 3.9034 -0.583 0
M  V30 17 C 0.7222 -1.2892 2.4843 0
M  V30 18 C 0.5429 -3.6525 2.0131 0
M  V30 19 C -3.003 3.2831 0.1317 0
M  V30 20 C -1.1987 4.8845 -0.0285 0
M  V30 21 O 0.9306 -0.3696 3.2701 0
M  V30 22 C 0.7744 -2.7088 2.9336 0
M  V30 23 C -2.51 4.573 0.3318 0
M  V30 24 N 1.0602 -2.9044 4.2669 0
M  V30 25 C 1.167 -4.0935 4.9422 0
M  V30 26 O 1.0283 -5.2227 4.4959 0
M  V30 27 H -0.8338 0.469 -3.2472 0
M  V30 28 H 1.7356 1.228 -3.8065 0
M  V30 29 H 2.4747 -0.0497 -2.772 0
M  V30 30 H 2.8672 0.0393 -4.5097 0
M  V30 31 H -0.2469 -2.8196 -1.7651 0
M  V30 32 H 0.5166 1.1012 1.2144 0
M  V30 33 H -2.5885 1.3053 -0.5903 0
M  V30 34 H 0.6426 4.1499 -0.868 0
M  V30 35 H 0.5525 -4.7174 2.2097 0
M  V30 36 H -4.0292 3.0468 0.4027 0
M  V30 37 H -0.8193 5.8924 0.1204 0
M  V30 38 H -3.1511 5.3385 0.7628 0
M  V30 39 H 1.2056 -2.0459 4.7962 0
M  V30 40 H 1.4073 -3.9223 6.0057 0
M  V30 END ATOM
M  V30 BEGIN BOND
M  V30 1 2 1 2
M  V30 2 2 1 3
M  V30 3 1 1 4
M  V30 4 1 1 5
M  V30 5 1 4 6
M  V30 6 2 6 7
M  V30 7 1 6 8
M  V30 8 1 7 9
M  V30 9 1 7 10
M  V30 10 2 8 11
M  V30 11 1 9 12
M  V30 12 2 10 13
M  V30 13 1 11 14
M  V30 14 2 12 15
M  V30 15 1 12 16
M  V30 16 1 13 17
M  V30 17 1 14 18
M  V30 18 1 15 19
M  V30 19 2 16 20
M  V30 20 2 17 21
M  V30 21 1 17 22
M  V30 22 2 19 23
M  V30 23 1 22 24
M  V30 24 1 24 25
M  V30 25 2 25 26
M  V30 26 1 11 13
M  V30 27 2 18 22
M  V30 28 1 20 23
M  V30 29 1 4 27
M  V30 30 1 5 28
M  V30 31 1 5 29
M  V30 32 1 5 30
M  V30 33 1 8 31
M  V30 34 1 10 32
M  V30 35 1 15 33
M  V30 36 1 16 34
M  V30 37 1 18 35
M  V30 38 1 19 36
M  V30 39 1 20 37
M  V30 40 1 23 38
M  V30 41 1 24 39
M  V30 42 1 25 40
M  V30 END BOND
M  V30 END CTAB
M  END
>  <NO.>
5829

>  <Name>
iguratimod

>  <SMILES>
CS(=O)(=O)Nc1cc2occ(NC=O)c(=O)c2cc1Oc1ccccc1

>  <logBB>


>  <Class>
-1

>  <MW>
374.06

>  <nHBAcc>
6

>  <nHBDon>
2

>  <SLogP>
2.53

>  <TopoPSA>
114.71

>  <MMFF94 Energy>
4.7488

$$$$
C[C@H](N[C@@H](CCc1ccccc1)C(=O)O)C(=O)N1CCC[C@H]1C(=O)O
Actelion Java MolfileCreator 2.0

  0  0  0  0  0  0              0 V3000
M  V30 BEGIN CTAB
M  V30 COUNTS 49 50 0 0 0
M  V30 BEGIN ATOM
M  V30 1 O -2.3749 4.4367 0.6328 0
M  V30 2 C -1.5573 4.5829 1.5294 0
M  V30 3 O -1.6231 5.6667 2.3335 0
M  V30 4 C -0.3486 3.697 1.8365 0 CFG=1
M  V30 5 N -0.5851 2.3214 1.4046 0
M  V30 6 C 0.8663 4.14 1.0251 0
M  V30 7 C -1.39 1.4783 2.1415 0
M  V30 8 C 0.1881 1.9939 0.219 0
M  V30 9 C 0.7404 3.3286 -0.2617 0
M  V30 10 O -1.9387 1.8748 3.1735 0
M  V30 11 C -1.5729 0.0246 1.6247 0 CFG=1
M  V30 12 N -0.3224 -0.7183 1.888 0
M  V30 13 C -2.7742 -0.6175 2.3269 0
M  V30 14 C -0.2239 -2.0151 1.1734 0 CFG=2
M  V30 15 C 0.5291 -3.0082 2.0756 0
M  V30 16 C 0.5186 -1.7789 -0.15 0
M  V30 17 O 1.12 -2.7516 3.1139 0
M  V30 18 O 0.4372 -4.2854 1.6549 0
M  V30 19 C 0.4977 -2.9884 -1.0912 0
M  V30 20 C 1.0274 -2.6261 -2.4582 0
M  V30 21 C 0.1494 -2.2587 -3.4866 0
M  V30 22 C 2.4065 -2.6225 -2.7069 0
M  V30 23 C 0.6423 -1.9039 -4.7433 0
M  V30 24 C 2.8972 -2.2674 -3.9642 0
M  V30 25 C 2.0153 -1.909 -4.982 0
M  V30 26 H -2.4439 6.1182 2.0457 0
M  V30 27 H -0.163 3.7175 2.9162 0
M  V30 28 H 0.9021 5.2166 0.8334 0
M  V30 29 H 1.7869 3.8517 1.5471 0
M  V30 30 H -0.4331 1.5059 -0.5357 0
M  V30 31 H 0.9987 1.3203 0.5143 0
M  V30 32 H 1.6901 3.2229 -0.7933 0
M  V30 33 H 0.0241 3.8107 -0.9378 0
M  V30 34 H -1.7798 0.0752 0.5502 0
M  V30 35 H -0.235 -0.8748 2.8981 0
M  V30 36 H -3.6673 0.0067 2.2079 0
M  V30 37 H -2.598 -0.7326 3.4028 0
M  V30 38 H -3.01 -1.6035 1.9162 0
M  V30 39 H -1.2172 -2.4417 1.0003 0
M  V30 40 H 1.5602 -1.4919 0.0486 0
M  V30 41 H 0.0581 -0.9315 -0.6743 0
M  V30 42 H 0.9271 -4.7913 2.338 0
M  V30 43 H 1.1054 -3.8077 -0.6918 0
M  V30 44 H -0.5232 -3.3782 -1.1874 0
M  V30 45 H -0.9245 -2.2462 -3.3157 0
M  V30 46 H 3.1072 -2.8964 -1.9213 0
M  V30 47 H -0.0455 -1.6228 -5.5365 0
M  V30 48 H 3.9681 -2.2698 -4.1493 0
M  V30 49 H 2.398 -1.633 -5.9609 0
M  V30 END ATOM
M  V30 BEGIN BOND
M  V30 1 2 1 2
M  V30 2 1 2 3
M  V30 3 1 2 4
M  V30 4 1 4 5
M  V30 5 1 4 6
M  V30 6 1 5 7
M  V30 7 1 5 8
M  V30 8 1 6 9
M  V30 9 2 7 10
M  V30 10 1 7 11
M  V30 11 1 11 12
M  V30 12 1 11 13
M  V30 13 1 12 14
M  V30 14 1 14 15
M  V30 15 1 14 16
M  V30 16 2 15 17
M  V30 17 1 15 18
M  V30 18 1 16 19
M  V30 19 1 19 20
M  V30 20 2 20 21
M  V30 21 1 20 22
M  V30 22 1 21 23
M  V30 23 2 22 24
M  V30 24 2 23 25
M  V30 25 1 8 9
M  V30 26 1 24 25
M  V30 27 1 3 26
M  V30 28 1 4 27
M  V30 29 1 6 28
M  V30 30 1 6 29
M  V30 31 1 8 30
M  V30 32 1 8 31
M  V30 33 1 9 32
M  V30 34 1 9 33
M  V30 35 1 11 34
M  V30 36 1 12 35
M  V30 37 1 13 36
M  V30 38 1 13 37
M  V30 39 1 13 38
M  V30 40 1 14 39
M  V30 41 1 16 40
M  V30 42 1 16 41
M  V30 43 1 18 42
M  V30 44 1 19 43
M  V30 45 1 19 44
M  V30 46 1 21 45
M  V30 47 1 22 46
M  V30 48 1 23 47
M  V30 49 1 24 48
M  V30 50 1 25 49
M  V30 END BOND
M  V30 BEGIN COLLECTION
M  V30 MDLV30/STEABS ATOMS=(3 4 11 14)
M  V30 END COLLECTION
M  V30 END CTAB
M  END
>  <NO.>
5832

>  <Name>
enalaprilat

>  <SMILES>
C[C@H](N[C@@H](CCc1ccccc1)C(=O)O)C(=O)N1CCC[C@H]1C(=O)O

>  <logBB>


>  <Class>
-1

>  <MW>
348.17

>  <nHBAcc>
4

>  <nHBDon>
3

>  <SLogP>
1.13

>  <TopoPSA>
106.94

>  <MMFF94 Energy>
81.105

$$$$
C[C@]12CC[C@H]3C(=CCc4cc(O)ccc43)[C@@H]1CCC2=O
Actelion Java MolfileCreator 2.0

  0  0  0  0  0  0              0 V3000
M  V30 BEGIN CTAB
M  V30 COUNTS 40 43 0 0 0
M  V30 BEGIN ATOM
M  V30 1 O -3.7946 -0.3225 -2.9863 0
M  V30 2 C -2.8737 -0.8883 -2.4118 0
M  V30 3 C -1.7025 -0.181 -1.7559 0 CFG=2
M  V30 4 C -2.7537 -2.3978 -2.2907 0
M  V30 5 C -1.3211 -1.2774 -0.7386 0 CFG=1
M  V30 6 C -2.0308 1.0966 -0.9813 0
M  V30 7 C -0.6595 0.0864 -2.8576 0
M  V30 8 C -1.4288 -2.5763 -1.5371 0
M  V30 9 C -0.0786 -0.8734 0.005 0
M  V30 10 C -0.8409 1.5413 -0.1056 0
M  V30 11 C 1.084 -1.5425 -0.0315 0
M  V30 12 C -0.2741 0.4156 0.8058 0 CFG=2
M  V30 13 C 2.3211 -1.1005 0.6872 0
M  V30 14 C 0.9626 0.8732 1.5706 0
M  V30 15 C 2.1738 0.1582 1.5053 0
M  V30 16 C 0.8931 2.0122 2.3967 0
M  V30 17 C 3.2886 0.6131 2.231 0
M  V30 18 C 2.0059 2.4541 3.1154 0
M  V30 19 C 3.1979 1.751 3.0219 0
M  V30 20 O 4.3116 2.1427 3.7035 0
M  V30 21 H -3.5957 -2.7733 -1.7021 0
M  V30 22 H -2.7246 -2.8698 -3.275 0
M  V30 23 H -2.1119 -1.348 0.0286 0
M  V30 24 H -2.9078 0.9344 -0.3408 0
M  V30 25 H -2.3055 1.9065 -1.668 0
M  V30 26 H -0.4929 -0.788 -3.4959 0
M  V30 27 H 0.3115 0.3868 -2.4532 0
M  V30 28 H -1.0044 0.8895 -3.52 0
M  V30 29 H -0.599 -2.6995 -2.2417 0
M  V30 30 H -1.4516 -3.4612 -0.8929 0
M  V30 31 H -0.0421 1.9307 -0.7505 0
M  V30 32 H -1.1736 2.391 0.5028 0
M  V30 33 H 1.1827 -2.4534 -0.6148 0
M  V30 34 H -1.0328 0.1892 1.5702 0
M  V30 35 H 2.6372 -1.9142 1.3514 0
M  V30 36 H 3.1121 -0.9449 -0.0563 0
M  V30 37 H -0.0385 2.5654 2.4926 0
M  V30 38 H 4.2318 0.0741 2.1848 0
M  V30 39 H 1.9192 3.3382 3.7385 0
M  V30 40 H 4.0991 2.947 4.2047 0
M  V30 END ATOM
M  V30 BEGIN BOND
M  V30 1 2 1 2
M  V30 2 1 2 3
M  V30 3 1 2 4
M  V30 4 1 3 5
M  V30 5 1 3 6
M  V30 6 1 3 7
M  V30 7 1 4 8
M  V30 8 1 5 9
M  V30 9 1 6 10
M  V30 10 2 9 11
M  V30 11 1 9 12
M  V30 12 1 11 13
M  V30 13 1 12 14
M  V30 14 1 13 15
M  V30 15 1 14 16
M  V30 16 1 15 17
M  V30 17 2 16 18
M  V30 18 2 17 19
M  V30 19 1 19 20
M  V30 20 1 5 8
M  V30 21 1 10 12
M  V30 22 2 14 15
M  V30 23 1 18 19
M  V30 24 1 4 21
M  V30 25 1 4 22
M  V30 26 1 5 23
M  V30 27 1 6 24
M  V30 28 1 6 25
M  V30 29 1 7 26
M  V30 30 1 7 27
M  V30 31 1 7 28
M  V30 32 1 8 29
M  V30 33 1 8 30
M  V30 34 1 10 31
M  V30 35 1 10 32
M  V30 36 1 11 33
M  V30 37 1 12 34
M  V30 38 1 13 35
M  V30 39 1 13 36
M  V30 40 1 16 37
M  V30 41 1 17 38
M  V30 42 1 18 39
M  V30 43 1 20 40
M  V30 END BOND
M  V30 BEGIN COLLECTION
M  V30 MDLV30/STEABS ATOMS=(3 3 5 12)
M  V30 END COLLECTION
M  V30 END CTAB
M  END
>  <NO.>
5834

>  <Name>
equilin

>  <SMILES>
C[C@]12CC[C@H]3C(=CCc4cc(O)ccc43)[C@@H]1CCC2=O

>  <logBB>


>  <Class>
-1

>  <MW>
268.15

>  <nHBAcc>
2

>  <nHBDon>
1

>  <SLogP>
3.74

>  <TopoPSA>
37.3

>  <MMFF94 Energy>
55.08

$$$$
C[N+](C)(C)CCCCCCCCCC[N+](C)(C)C
Actelion Java MolfileCreator 2.0

  0  0  0  0  0  0              0 V3000
M  V30 BEGIN CTAB
M  V30 COUNTS 56 55 0 0 0
M  V30 BEGIN ATOM
M  V30 1 N -5.0841 0.9997 -4.2353 0 CHG=1
M  V30 2 C -4.2639 0.4016 -3.0778 0
M  V30 3 C -5.615 2.3881 -3.8924 0
M  V30 4 C -6.2881 0.0801 -4.4785 0
M  V30 5 C -4.2749 1.0685 -5.5256 0
M  V30 6 C -3.0144 1.2106 -2.7212 0
M  V30 7 C -2.2617 0.5687 -1.5474 0
M  V30 8 C -1.0242 1.3869 -1.1686 0
M  V30 9 C -0.2839 0.7889 0.0331 0
M  V30 10 C 0.9142 1.6598 0.422 0
M  V30 11 C 1.6143 1.2133 1.7089 0
M  V30 12 C 2.3758 -0.108 1.5723 0
M  V30 13 C 3.1835 -0.4099 2.8433 0
M  V30 14 C 3.9781 -1.7091 2.6943 0
M  V30 15 N 4.8434 -2.0534 3.9207 0 CHG=1
M  V30 16 C 5.9075 -0.99 4.1764 0
M  V30 17 C 5.5601 -3.3782 3.6302 0
M  V30 18 C 3.9981 -2.2387 5.1759 0
M  V30 19 H -4.937 0.3365 -2.2144 0
M  V30 20 H -3.9864 -0.6156 -3.3787 0
M  V30 21 H -6.2971 2.7037 -4.6878 0
M  V30 22 H -6.1428 2.3302 -2.9362 0
M  V30 23 H -4.7753 3.0847 -3.8318 0
M  V30 24 H -6.8816 0.0393 -3.5603 0
M  V30 25 H -6.8824 0.4932 -5.299 0
M  V30 26 H -5.9147 -0.914 -4.7407 0
M  V30 27 H -4.943 1.3729 -6.337 0
M  V30 28 H -3.4802 1.8091 -5.4072 0
M  V30 29 H -3.8573 0.0776 -5.7248 0
M  V30 30 H -2.3374 1.271 -3.5797 0
M  V30 31 H -3.2863 2.2341 -2.4432 0
M  V30 32 H -1.961 -0.4512 -1.8148 0
M  V30 33 H -2.9306 0.4939 -0.6814 0
M  V30 34 H -1.3286 2.4143 -0.9334 0
M  V30 35 H -0.3438 1.4417 -2.0271 0
M  V30 36 H 0.0507 -0.2251 -0.2118 0
M  V30 37 H -0.9715 0.7099 0.8836 0
M  V30 38 H 0.568 2.6907 0.5697 0
M  V30 39 H 1.6369 1.687 -0.4023 0
M  V30 40 H 0.8823 1.1383 2.5222 0
M  V30 41 H 2.3224 2.001 1.9958 0
M  V30 42 H 3.055 -0.0529 0.7132 0
M  V30 43 H 1.6741 -0.928 1.3824 0
M  V30 44 H 2.4914 -0.4771 3.6894 0
M  V30 45 H 3.8579 0.4308 3.0355 0
M  V30 46 H 4.6577 -1.6468 1.8361 0
M  V30 47 H 3.2985 -2.5554 2.538 0
M  V30 48 H 6.5738 -1.3509 4.9659 0
M  V30 49 H 6.4646 -0.8285 3.2494 0
M  V30 50 H 5.4185 -0.0688 4.5025 0
M  V30 51 H 6.1807 -3.246 2.739 0
M  V30 52 H 6.1813 -3.6355 4.4933 0
M  V30 53 H 4.8029 -4.1496 3.4617 0
M  V30 54 H 4.6449 -2.6091 5.977 0
M  V30 55 H 3.5733 -1.2739 5.4637 0
M  V30 56 H 3.2078 -2.9622 4.9566 0
M  V30 END ATOM
M  V30 BEGIN BOND
M  V30 1 1 1 2
M  V30 2 1 1 3
M  V30 3 1 1 4
M  V30 4 1 1 5
M  V30 5 1 2 6
M  V30 6 1 6 7
M  V30 7 1 7 8
M  V30 8 1 8 9
M  V30 9 1 9 10
M  V30 10 1 10 11
M  V30 11 1 11 12
M  V30 12 1 12 13
M  V30 13 1 13 14
M  V30 14 1 14 15
M  V30 15 1 15 16
M  V30 16 1 15 17
M  V30 17 1 15 18
M  V30 18 1 2 19
M  V30 19 1 2 20
M  V30 20 1 3 21
M  V30 21 1 3 22
M  V30 22 1 3 23
M  V30 23 1 4 24
M  V30 24 1 4 25
M  V30 25 1 4 26
M  V30 26 1 5 27
M  V30 27 1 5 28
M  V30 28 1 5 29
M  V30 29 1 6 30
M  V30 30 1 6 31
M  V30 31 1 7 32
M  V30 32 1 7 33
M  V30 33 1 8 34
M  V30 34 1 8 35
M  V30 35 1 9 36
M  V30 36 1 9 37
M  V30 37 1 10 38
M  V30 38 1 10 39
M  V30 39 1 11 40
M  V30 40 1 11 41
M  V30 41 1 12 42
M  V30 42 1 12 43
M  V30 43 1 13 44
M  V30 44 1 13 45
M  V30 45 1 14 46
M  V30 46 1 14 47
M  V30 47 1 16 48
M  V30 48 1 16 49
M  V30 49 1 16 50
M  V30 50 1 17 51
M  V30 51 1 17 52
M  V30 52 1 17 53
M  V30 53 1 18 54
M  V30 54 1 18 55
M  V30 55 1 18 56
M  V30 END BOND
M  V30 END CTAB
M  END
>  <NO.>
5835

>  <Name>
decamethonium

>  <SMILES>
C[N+](C)(C)CCCCCCCCCC[N+](C)(C)C

>  <logBB>


>  <Class>
-1

>  <MW>
258.3

>  <nHBAcc>
0

>  <nHBDon>
0

>  <SLogP>
3.52

>  <TopoPSA>
0

>  <MMFF94 Energy>
63.009

$$$$
C[N+]1(CCCCC[N+]2(C)CCCC2)CCCC1
Actelion Java MolfileCreator 2.0

  0  0  0  0  0  0              0 V3000
M  V30 BEGIN CTAB
M  V30 COUNTS 49 50 0 0 0
M  V30 BEGIN ATOM
M  V30 1 N -2.9774 -0.7045 -2.35 0 CHG=1
M  V30 2 C -3.7702 0.0078 -3.4876 0
M  V30 3 C -2.4821 -2.0267 -2.9887 0
M  V30 4 C -1.8244 0.205 -1.9071 0
M  V30 5 C -3.9446 -1.0011 -1.2057 0
M  V30 6 C -4.0999 -1.0955 -4.4695 0
M  V30 7 C -2.84 -1.9282 -4.46 0
M  V30 8 C -1.0514 -0.3253 -0.6899 0
M  V30 9 C 0.1705 0.5562 -0.3824 0
M  V30 10 C 0.9517 0.0587 0.8452 0
M  V30 11 C 2.1773 0.9442 1.1178 0
M  V30 12 N 2.9241 0.5839 2.4082 0 CHG=1
M  V30 13 C 4.2201 1.4459 2.4956 0
M  V30 14 C 2.1238 0.9527 3.6831 0
M  V30 15 C 3.3256 -0.8891 2.4449 0
M  V30 16 C 4.3208 1.8338 3.955 0
M  V30 17 C 2.8805 2.1026 4.3217 0
M  V30 18 H -3.1058 0.7497 -3.9452 0
M  V30 19 H -4.6475 0.5076 -3.0657 0
M  V30 20 H -3.0104 -2.8558 -2.5058 0
M  V30 21 H -1.4059 -2.1343 -2.8318 0
M  V30 22 H -1.1585 0.315 -2.7712 0
M  V30 23 H -2.2639 1.1829 -1.6761 0
M  V30 24 H -3.4405 -1.6443 -0.4798 0
M  V30 25 H -4.8197 -1.5165 -1.6125 0
M  V30 26 H -4.2369 -0.0513 -0.7489 0
M  V30 27 H -4.9564 -1.6837 -4.1208 0
M  V30 28 H -4.3356 -0.7055 -5.4636 0
M  V30 29 H -2.9846 -2.9125 -4.9142 0
M  V30 30 H -2.0402 -1.4175 -5.0096 0
M  V30 31 H -1.7018 -0.3357 0.1918 0
M  V30 32 H -0.7171 -1.3541 -0.8586 0
M  V30 33 H -0.16 1.5876 -0.2091 0
M  V30 34 H 0.8358 0.5718 -1.2543 0
M  V30 35 H 1.2687 -0.9734 0.6592 0
M  V30 36 H 0.2829 0.0414 1.712 0
M  V30 37 H 1.8828 1.9968 1.2062 0
M  V30 38 H 2.8991 0.8496 0.2977 0
M  V30 39 H 4.076 2.3321 1.867 0
M  V30 40 H 5.0716 0.8659 2.1275 0
M  V30 41 H 2.1064 0.0756 4.3388 0
M  V30 42 H 1.1019 1.2308 3.4125 0
M  V30 43 H 2.4221 -1.4949 2.5526 0
M  V30 44 H 3.9841 -1.0505 3.3036 0
M  V30 45 H 3.8459 -1.126 1.5127 0
M  V30 46 H 4.7249 1.0072 4.5506 0
M  V30 47 H 4.9604 2.708 4.1059 0
M  V30 48 H 2.7244 2.1467 5.4034 0
M  V30 49 H 2.5488 3.0565 3.8943 0
M  V30 END ATOM
M  V30 BEGIN BOND
M  V30 1 1 1 2
M  V30 2 1 1 3
M  V30 3 1 1 4
M  V30 4 1 1 5
M  V30 5 1 2 6
M  V30 6 1 3 7
M  V30 7 1 4 8
M  V30 8 1 8 9
M  V30 9 1 9 10
M  V30 10 1 10 11
M  V30 11 1 11 12
M  V30 12 1 12 13
M  V30 13 1 12 14
M  V30 14 1 12 15
M  V30 15 1 13 16
M  V30 16 1 14 17
M  V30 17 1 6 7
M  V30 18 1 16 17
M  V30 19 1 2 18
M  V30 20 1 2 19
M  V30 21 1 3 20
M  V30 22 1 3 21
M  V30 23 1 4 22
M  V30 24 1 4 23
M  V30 25 1 5 24
M  V30 26 1 5 25
M  V30 27 1 5 26
M  V30 28 1 6 27
M  V30 29 1 6 28
M  V30 30 1 7 29
M  V30 31 1 7 30
M  V30 32 1 8 31
M  V30 33 1 8 32
M  V30 34 1 9 33
M  V30 35 1 9 34
M  V30 36 1 10 35
M  V30 37 1 10 36
M  V30 38 1 11 37
M  V30 39 1 11 38
M  V30 40 1 13 39
M  V30 41 1 13 40
M  V30 42 1 14 41
M  V30 43 1 14 42
M  V30 44 1 15 43
M  V30 45 1 15 44
M  V30 46 1 15 45
M  V30 47 1 16 46
M  V30 48 1 16 47
M  V30 49 1 17 48
M  V30 50 1 17 49
M  V30 END BOND
M  V30 END CTAB
M  END
>  <NO.>
5838

>  <Name>
pentolinium

>  <SMILES>
C[N+]1(CCCCC[N+]2(C)CCCC2)CCCC1

>  <logBB>


>  <Class>
-1

>  <MW>
240.26

>  <nHBAcc>
0

>  <nHBDon>
0

>  <SLogP>
2.64

>  <TopoPSA>
0

>  <MMFF94 Energy>
85.918

$$$$
Cc1c2cc[n+](C)cc2c(C)c2c1[nH]c1ccc(O)cc12
Actelion Java MolfileCreator 2.0

  0  0  0  0  0  0              0 V3000
M  V30 BEGIN CTAB
M  V30 COUNTS 38 41 0 0 0
M  V30 BEGIN ATOM
M  V30 1 O -4.5408 2.2286 -2.9457 0
M  V30 2 C -4.0292 1.7525 -1.7729 0
M  V30 3 C -2.6866 1.3695 -1.772 0
M  V30 4 C -4.8135 1.6512 -0.6336 0
M  V30 5 C -2.1 0.8719 -0.5865 0
M  V30 6 C -4.2668 1.148 0.5483 0
M  V30 7 C -0.785 0.3962 -0.2131 0
M  V30 8 C -2.9185 0.7653 0.5351 0
M  V30 9 C 0.4625 0.2889 -0.8911 0
M  V30 10 C -0.8684 -0.0356 1.1099 0
M  V30 11 N -2.1529 0.2321 1.5371 0
M  V30 12 C 1.5476 -0.3736 -0.2311 0
M  V30 13 C 0.6315 0.8354 -2.291 0
M  V30 14 C 0.1988 -0.6214 1.818 0
M  V30 15 C 1.4158 -0.8113 1.1088 0
M  V30 16 C 2.7729 -0.6206 -0.8765 0
M  V30 17 C 0.0459 -1.0576 3.2554 0
M  V30 18 C 2.5206 -1.4387 1.7125 0
M  V30 19 N 3.8088 -1.228 -0.2597 0 CHG=1
M  V30 20 C 3.7022 -1.6361 1.0151 0
M  V30 21 C 5.0575 -1.4516 -1.008 0
M  V30 22 H -5.475 2.4595 -2.8091 0
M  V30 23 H -2.127 1.4528 -2.6962 0
M  V30 24 H -5.8573 1.9517 -0.6436 0
M  V30 25 H -4.8753 1.0552 1.4429 0
M  V30 26 H -2.5054 0.0379 2.4627 0
M  V30 27 H 1.6376 1.2325 -2.4543 0
M  V30 28 H 0.4224 0.0552 -3.0284 0
M  V30 29 H -0.0267 1.6882 -2.4664 0
M  V30 30 H 2.9519 -0.3497 -1.9113 0
M  V30 31 H 0.7947 -0.5639 3.8835 0
M  V30 32 H 0.1583 -2.1437 3.3346 0
M  V30 33 H -0.9336 -0.8006 3.6671 0
M  V30 34 H 2.4776 -1.7929 2.7405 0
M  V30 35 H 4.5587 -2.1242 1.4707 0
M  V30 36 H 5.8425 -1.7965 -0.331 0
M  V30 37 H 4.8546 -2.2078 -1.7706 0
M  V30 38 H 5.3561 -0.5036 -1.4635 0
M  V30 END ATOM
M  V30 BEGIN BOND
M  V30 1 1 1 2
M  V30 2 2 2 3
M  V30 3 1 2 4
M  V30 4 1 3 5
M  V30 5 2 4 6
M  V30 6 1 5 7
M  V30 7 2 5 8
M  V30 8 2 7 9
M  V30 9 1 7 10
M  V30 10 1 8 11
M  V30 11 1 9 12
M  V30 12 1 9 13
M  V30 13 2 10 14
M  V30 14 1 12 15
M  V30 15 2 12 16
M  V30 16 1 14 17
M  V30 17 2 15 18
M  V30 18 1 16 19
M  V30 19 1 18 20
M  V30 20 1 19 21
M  V30 21 1 6 8
M  V30 22 1 10 11
M  V30 23 1 14 15
M  V30 24 2 19 20
M  V30 25 1 1 22
M  V30 26 1 3 23
M  V30 27 1 4 24
M  V30 28 1 6 25
M  V30 29 1 11 26
M  V30 30 1 13 27
M  V30 31 1 13 28
M  V30 32 1 13 29
M  V30 33 1 16 30
M  V30 34 1 17 31
M  V30 35 1 17 32
M  V30 36 1 17 33
M  V30 37 1 18 34
M  V30 38 1 20 35
M  V30 39 1 21 36
M  V30 40 1 21 37
M  V30 41 1 21 38
M  V30 END BOND
M  V30 END CTAB
M  END
>  <NO.>
5840

>  <Name>
elliptinium acetate

>  <SMILES>
Cc1c2cc[n+](C)cc2c(C)c2c1[nH]c1ccc(O)cc12

>  <logBB>


>  <Class>
-1

>  <MW>
277.13

>  <nHBAcc>
1

>  <nHBDon>
2

>  <SLogP>
3.62

>  <TopoPSA>
39.9

>  <MMFF94 Energy>
67.048

$$$$
Cc1cc(/C=C/C#N)cc(C)c1Nc1ccnc(Nc2ccc(C#N)cc2)n1
Actelion Java MolfileCreator 2.0

  0  0  0  0  0  0              0 V3000
M  V30 BEGIN CTAB
M  V30 COUNTS 46 48 0 0 0
M  V30 BEGIN ATOM
M  V30 1 N -7.0863 -5.7297 4.8527 0
M  V30 2 C -6.4045 -4.9904 4.2732 0
M  V30 3 C -5.5664 -4.0744 3.5571 0
M  V30 4 C -6.0937 -2.8874 3.0483 0
M  V30 5 C -4.2151 -4.3608 3.3617 0
M  V30 6 C -5.2689 -1.9976 2.3498 0
M  V30 7 C -3.3973 -3.4639 2.6612 0
M  V30 8 C -3.9055 -2.2683 2.1427 0
M  V30 9 N -3.1406 -1.3356 1.4367 0
M  V30 10 C -1.8034 -1.2666 1.0539 0
M  V30 11 N -1.4727 -0.1611 0.3651 0
M  V30 12 N -0.9279 -2.2332 1.3562 0
M  V30 13 C -0.1968 -0.0177 -0.0354 0
M  V30 14 C 0.3359 -2.068 0.9362 0
M  V30 15 N 0.0937 1.1438 -0.7504 0
M  V30 16 C 0.7584 -0.9722 0.2305 0
M  V30 17 C 1.324 1.6647 -1.1774 0
M  V30 18 C 1.6072 1.7229 -2.5581 0
M  V30 19 C 2.232 2.2366 -0.2624 0
M  V30 20 C 2.8212 2.2748 -3.0013 0
M  V30 21 C 0.6333 1.1786 -3.5699 0
M  V30 22 C 3.4456 2.7704 -0.7311 0
M  V30 23 C 1.9531 2.2738 1.217 0
M  V30 24 C 3.7572 2.7806 -2.0942 0
M  V30 25 C 5.0255 3.3817 -2.5276 0
M  V30 26 C 5.7828 2.893 -3.5217 0
M  V30 27 C 7.0103 3.5032 -3.8959 0
M  V30 28 N 8.0123 3.9996 -4.203 0
M  V30 29 H -7.1449 -2.6431 3.1887 0
M  V30 30 H -3.7812 -5.2806 3.7495 0
M  V30 31 H -5.7076 -1.0795 1.9644 0
M  V30 32 H -2.3514 -3.7275 2.5327 0
M  V30 33 H -3.6129 -0.5069 1.1066 0
M  V30 34 H 1.0207 -2.8709 1.1914 0
M  V30 35 H -0.7178 1.7309 -0.8915 0
M  V30 36 H 1.7836 -0.8766 -0.0977 0
M  V30 37 H 3.0229 2.3165 -4.0697 0
M  V30 38 H 0.485 0.1053 -3.4137 0
M  V30 39 H 0.9967 1.3173 -4.5937 0
M  V30 40 H -0.3279 1.6965 -3.4899 0
M  V30 41 H 4.1533 3.1867 -0.0153 0
M  V30 42 H 2.1779 1.3036 1.6693 0
M  V30 43 H 0.9093 2.5377 1.4152 0
M  V30 44 H 2.5673 3.032 1.7152 0
M  V30 45 H 5.3486 4.2605 -1.9709 0
M  V30 46 H 5.4967 2.0041 -4.0719 0
M  V30 END ATOM
M  V30 BEGIN BOND
M  V30 1 3 1 2
M  V30 2 1 2 3
M  V30 3 2 3 4
M  V30 4 1 3 5
M  V30 5 1 4 6
M  V30 6 2 5 7
M  V30 7 2 6 8
M  V30 8 1 8 9
M  V30 9 1 9 10
M  V30 10 2 10 11
M  V30 11 1 10 12
M  V30 12 1 11 13
M  V30 13 2 12 14
M  V30 14 1 13 15
M  V30 15 2 13 16
M  V30 16 1 15 17
M  V30 17 2 17 18
M  V30 18 1 17 19
M  V30 19 1 18 20
M  V30 20 1 18 21
M  V30 21 2 19 22
M  V30 22 1 19 23
M  V30 23 2 20 24
M  V30 24 1 24 25
M  V30 25 2 25 26
M  V30 26 1 26 27
M  V30 27 3 27 28
M  V30 28 1 7 8
M  V30 29 1 14 16
M  V30 30 1 22 24
M  V30 31 1 4 29
M  V30 32 1 5 30
M  V30 33 1 6 31
M  V30 34 1 7 32
M  V30 35 1 9 33
M  V30 36 1 14 34
M  V30 37 1 15 35
M  V30 38 1 16 36
M  V30 39 1 20 37
M  V30 40 1 21 38
M  V30 41 1 21 39
M  V30 42 1 21 40
M  V30 43 1 22 41
M  V30 44 1 23 42
M  V30 45 1 23 43
M  V30 46 1 23 44
M  V30 47 1 25 45
M  V30 48 1 26 46
M  V30 END BOND
M  V30 END CTAB
M  END
>  <NO.>
5841

>  <Name>
rilpivirine

>  <SMILES>
Cc1cc(/C=C/C#N)cc(C)c1Nc1ccnc(Nc2ccc(C#N)cc2)n1

>  <logBB>


>  <Class>
-1

>  <MW>
366.16

>  <nHBAcc>
6

>  <nHBDon>
2

>  <SLogP>
4.99

>  <TopoPSA>
97.42

>  <MMFF94 Energy>
-37.928

$$$$
Cc1cc(C#N)cc(C)c1Oc1nc(Nc2ccc(C#N)cc2)nc(N)c1Br
Actelion Java MolfileCreator 2.0

  0  0  0  0  0  0              0 V3000
M  V30 BEGIN CTAB
M  V30 COUNTS 43 45 0 0 0
M  V30 BEGIN ATOM
M  V30 1 Br -0.565 -4.0414 0.4843 0
M  V30 2 C 0.4849 -2.4672 0.5636 0
M  V30 3 C 0.2321 -1.3207 -0.1624 0
M  V30 4 C 1.6213 -2.4184 1.3543 0
M  V30 5 O -0.8197 -1.1772 -1.0391 0
M  V30 6 N 1.0499 -0.2475 -0.1525 0
M  V30 7 N 2.4162 -1.3373 1.4175 0
M  V30 8 N 1.991 -3.456 2.1913 0
M  V30 9 C -2.1085 -1.2301 -0.544 0
M  V30 10 C 2.1141 -0.2814 0.6502 0
M  V30 11 C -3.0096 -2.0154 -1.2977 0
M  V30 12 C -2.5624 -0.507 0.5774 0
M  V30 13 N 2.99 0.7943 0.7585 0
M  V30 14 C -4.3389 -2.1466 -0.8695 0
M  V30 15 C -2.5764 -2.6867 -2.5741 0
M  V30 16 C -3.8956 -0.6777 0.9954 0
M  V30 17 C -1.7066 0.4612 1.3469 0
M  V30 18 C 3.0512 2.0607 0.1688 0
M  V30 19 C -4.7781 -1.4955 0.2837 0
M  V30 20 C 2.1273 2.5316 -0.7704 0
M  V30 21 C 4.0991 2.9213 0.5379 0
M  V30 22 C -6.135 -1.6444 0.7228 0
M  V30 23 C 2.2407 3.8138 -1.3247 0
M  V30 24 C 4.2202 4.2038 -0.0104 0
M  V30 25 N -7.233 -1.7656 1.0789 0
M  V30 26 C 3.2881 4.6537 -0.9457 0
M  V30 27 C 3.4058 5.9654 -1.5114 0
M  V30 28 N 3.5041 7.0285 -1.9669 0
M  V30 29 H 1.7553 -4.4031 1.9296 0
M  V30 30 H 2.8392 -3.2978 2.7189 0
M  V30 31 H 3.7167 0.5587 1.4191 0
M  V30 32 H -5.0356 -2.7584 -1.4413 0
M  V30 33 H -1.6771 -3.2887 -2.4163 0
M  V30 34 H -3.3524 -3.358 -2.9569 0
M  V30 35 H -2.3749 -1.9322 -3.3414 0
M  V30 36 H -4.2563 -0.1474 1.8771 0
M  V30 37 H -2.3202 1.1301 1.9612 0
M  V30 38 H -1.0281 -0.0717 2.0187 0
M  V30 39 H -1.1424 1.1053 0.6659 0
M  V30 40 H 1.2963 1.9131 -1.0977 0
M  V30 41 H 4.8408 2.5982 1.2655 0
M  V30 42 H 1.5019 4.1426 -2.0534 0
M  V30 43 H 5.0454 4.8419 0.2999 0
M  V30 END ATOM
M  V30 BEGIN BOND
M  V30 1 1 1 2
M  V30 2 2 2 3
M  V30 3 1 2 4
M  V30 4 1 3 5
M  V30 5 1 3 6
M  V30 6 2 4 7
M  V30 7 1 4 8
M  V30 8 1 5 9
M  V30 9 2 6 10
M  V30 10 2 9 11
M  V30 11 1 9 12
M  V30 12 1 10 13
M  V30 13 1 11 14
M  V30 14 1 11 15
M  V30 15 2 12 16
M  V30 16 1 12 17
M  V30 17 1 13 18
M  V30 18 2 14 19
M  V30 19 2 18 20
M  V30 20 1 18 21
M  V30 21 1 19 22
M  V30 22 1 20 23
M  V30 23 2 21 24
M  V30 24 3 22 25
M  V30 25 2 23 26
M  V30 26 1 26 27
M  V30 27 3 27 28
M  V30 28 1 7 10
M  V30 29 1 16 19
M  V30 30 1 24 26
M  V30 31 1 8 29
M  V30 32 1 8 30
M  V30 33 1 13 31
M  V30 34 1 14 32
M  V30 35 1 15 33
M  V30 36 1 15 34
M  V30 37 1 15 35
M  V30 38 1 16 36
M  V30 39 1 17 37
M  V30 40 1 17 38
M  V30 41 1 17 39
M  V30 42 1 20 40
M  V30 43 1 21 41
M  V30 44 1 23 42
M  V30 45 1 24 43
M  V30 END BOND
M  V30 END CTAB
M  END
>  <NO.>
5842

>  <Name>
etravirine

>  <SMILES>
Cc1cc(C#N)cc(C)c1Oc1nc(Nc2ccc(C#N)cc2)nc(N)c1Br

>  <logBB>


>  <Class>
-1

>  <MW>
434.05

>  <nHBAcc>
7

>  <nHBDon>
2

>  <SLogP>
4.72

>  <TopoPSA>
120.64

>  <MMFF94 Energy>
-2.0256

$$$$
Cc1cc(C(C)(C)C)c(O)c(C)c1CC1=NCCN1
Actelion Java MolfileCreator 2.0

  0  0  0  0  0  0              0 V3000
M  V30 BEGIN CTAB
M  V30 COUNTS 43 44 0 0 0
M  V30 BEGIN ATOM
M  V30 1 O -1.3354 2.3576 -1.0997 0
M  V30 2 C -0.5799 1.4558 -0.3956 0
M  V30 3 C 0.8218 1.5464 -0.4961 0
M  V30 4 C -1.2322 0.4838 0.3982 0
M  V30 5 C 1.5599 0.638 0.2815 0
M  V30 6 C 1.5284 2.5884 -1.3949 0
M  V30 7 C -0.4544 -0.3862 1.2002 0
M  V30 8 C -2.7408 0.3994 0.4077 0
M  V30 9 C 0.953 -0.3154 1.1204 0
M  V30 10 C 3.0759 2.4823 -1.3745 0
M  V30 11 C 1.1094 2.4044 -2.8711 0
M  V30 12 C 1.1908 4.0217 -0.9272 0
M  V30 13 C -1.1173 -1.4158 2.1013 0
M  V30 14 C 1.8462 -1.2249 1.9265 0
M  V30 15 C -1.4701 -2.7158 1.4119 0
M  V30 16 N -2.281 -3.5746 1.9776 0
M  V30 17 N -0.9766 -3.0829 0.1955 0
M  V30 18 C -2.3591 -4.7149 1.0143 0
M  V30 19 C -1.5413 -4.3275 -0.2257 0
M  V30 20 H -2.1275 2.5622 -0.5775 0
M  V30 21 H 2.6465 0.657 0.2602 0
M  V30 22 H -3.1675 0.7214 -0.5478 0
M  V30 23 H -3.144 1.028 1.2075 0
M  V30 24 H -3.0942 -0.6259 0.5444 0
M  V30 25 H 3.4184 1.5006 -1.722 0
M  V30 26 H 3.533 3.2313 -2.0328 0
M  V30 27 H 3.4807 2.6543 -0.3703 0
M  V30 28 H 0.0501 2.6133 -3.0439 0
M  V30 29 H 1.6696 3.0813 -3.5272 0
M  V30 30 H 1.3019 1.3793 -3.2089 0
M  V30 31 H 1.4478 4.1609 0.1295 0
M  V30 32 H 0.1319 4.2694 -1.0419 0
M  V30 33 H 1.7494 4.7669 -1.5059 0
M  V30 34 H -0.4801 -1.6563 2.9595 0
M  V30 35 H -2.0256 -0.9958 2.5501 0
M  V30 36 H 1.5702 -2.2728 1.7744 0
M  V30 37 H 1.7776 -0.9747 2.9898 0
M  V30 38 H 2.8958 -1.1271 1.6294 0
M  V30 39 H -0.4036 -2.4907 -0.3913 0
M  V30 40 H -1.9506 -5.614 1.4879 0
M  V30 41 H -3.4045 -4.9079 0.7523 0
M  V30 42 H -0.7712 -5.0701 -0.4519 0
M  V30 43 H -2.1846 -4.1925 -1.1001 0
M  V30 END ATOM
M  V30 BEGIN BOND
M  V30 1 1 1 2
M  V30 2 2 2 3
M  V30 3 1 2 4
M  V30 4 1 3 5
M  V30 5 1 3 6
M  V30 6 2 4 7
M  V30 7 1 4 8
M  V30 8 2 5 9
M  V30 9 1 6 10
M  V30 10 1 6 11
M  V30 11 1 6 12
M  V30 12 1 7 13
M  V30 13 1 9 14
M  V30 14 1 13 15
M  V30 15 2 15 16
M  V30 16 1 15 17
M  V30 17 1 16 18
M  V30 18 1 17 19
M  V30 19 1 7 9
M  V30 20 1 18 19
M  V30 21 1 1 20
M  V30 22 1 5 21
M  V30 23 1 8 22
M  V30 24 1 8 23
M  V30 25 1 8 24
M  V30 26 1 10 25
M  V30 27 1 10 26
M  V30 28 1 10 27
M  V30 29 1 11 28
M  V30 30 1 11 29
M  V30 31 1 11 30
M  V30 32 1 12 31
M  V30 33 1 12 32
M  V30 34 1 12 33
M  V30 35 1 13 34
M  V30 36 1 13 35
M  V30 37 1 14 36
M  V30 38 1 14 37
M  V30 39 1 14 38
M  V30 40 1 17 39
M  V30 41 1 18 40
M  V30 42 1 18 41
M  V30 43 1 19 42
M  V30 44 1 19 43
M  V30 END BOND
M  V30 END CTAB
M  END
>  <NO.>
5843

>  <Name>
oxymetazoline

>  <SMILES>
Cc1cc(C(C)(C)C)c(O)c(C)c1CC1=NCCN1

>  <logBB>


>  <Class>
-1

>  <MW>
260.19

>  <nHBAcc>
3

>  <nHBDon>
2

>  <SLogP>
2.85

>  <TopoPSA>
44.62

>  <MMFF94 Energy>
67.743

$$$$
Cc1cc(C(C)(C)C)cc(C)c1CC1=NCCN1
Actelion Java MolfileCreator 2.0

  0  0  0  0  0  0              0 V3000
M  V30 BEGIN CTAB
M  V30 COUNTS 42 43 0 0 0
M  V30 BEGIN ATOM
M  V30 1 N 1.3348 1.8063 -4.0087 0
M  V30 2 C 0.9938 1.537 -2.7729 0
M  V30 3 C 0.2915 2.7623 -4.4904 0
M  V30 4 N -0.1339 2.1581 -2.323 0
M  V30 5 C 1.831 0.6076 -1.9217 0
M  V30 6 C -0.7527 2.9048 -3.3742 0
M  V30 7 C 1.1053 0.0529 -0.7075 0
M  V30 8 C 1.2199 0.6808 0.5519 0
M  V30 9 C 0.2642 -1.0757 -0.8328 0
M  V30 10 C 0.5247 0.1559 1.6567 0
M  V30 11 C 2.0869 1.8948 0.7637 0
M  V30 12 C -0.4176 -1.5721 0.2952 0
M  V30 13 C 0.0842 -1.7881 -2.1496 0
M  V30 14 C -0.3048 -0.9742 1.5577 0
M  V30 15 C -1.0397 -1.5059 2.8012 0
M  V30 16 C -0.0111 -1.8989 3.884 0
M  V30 17 C -1.9733 -0.4103 3.3607 0
M  V30 18 C -1.9127 -2.7521 2.5289 0
M  V30 19 H 0.763 3.7261 -4.7109 0
M  V30 20 H -0.1642 2.3829 -5.4107 0
M  V30 21 H -0.5671 1.9671 -1.4288 0
M  V30 22 H 2.736 1.1504 -1.6278 0
M  V30 23 H 2.1949 -0.2126 -2.5515 0
M  V30 24 H -0.9109 3.9507 -3.0965 0
M  V30 25 H -1.7078 2.457 -3.6645 0
M  V30 26 H 0.6408 0.6482 2.6212 0
M  V30 27 H 3.143 1.6272 0.6589 0
M  V30 28 H 1.9493 2.319 1.7643 0
M  V30 29 H 1.8321 2.6815 0.0466 0
M  V30 30 H -1.0447 -2.4498 0.1595 0
M  V30 31 H -0.2429 -1.0898 -2.9257 0
M  V30 32 H 1.0216 -2.2649 -2.4526 0
M  V30 33 H -0.6783 -2.5716 -2.0831 0
M  V30 34 H 0.5819 -1.0426 4.2234 0
M  V30 35 H -0.5078 -2.3146 4.7686 0
M  V30 36 H 0.688 -2.655 3.5077 0
M  V30 37 H -2.6981 -0.0859 2.6045 0
M  V30 38 H -2.5367 -0.7757 4.2275 0
M  V30 39 H -1.4217 0.4771 3.6895 0
M  V30 40 H -1.3127 -3.5928 2.1616 0
M  V30 41 H -2.6962 -2.5427 1.7912 0
M  V30 42 H -2.4144 -3.0906 3.4436 0
M  V30 END ATOM
M  V30 BEGIN BOND
M  V30 1 2 1 2
M  V30 2 1 1 3
M  V30 3 1 2 4
M  V30 4 1 2 5
M  V30 5 1 3 6
M  V30 6 1 5 7
M  V30 7 2 7 8
M  V30 8 1 7 9
M  V30 9 1 8 10
M  V30 10 1 8 11
M  V30 11 2 9 12
M  V30 12 1 9 13
M  V30 13 2 10 14
M  V30 14 1 14 15
M  V30 15 1 15 16
M  V30 16 1 15 17
M  V30 17 1 15 18
M  V30 18 1 4 6
M  V30 19 1 12 14
M  V30 20 1 3 19
M  V30 21 1 3 20
M  V30 22 1 4 21
M  V30 23 1 5 22
M  V30 24 1 5 23
M  V30 25 1 6 24
M  V30 26 1 6 25
M  V30 27 1 10 26
M  V30 28 1 11 27
M  V30 29 1 11 28
M  V30 30 1 11 29
M  V30 31 1 12 30
M  V30 32 1 13 31
M  V30 33 1 13 32
M  V30 34 1 13 33
M  V30 35 1 16 34
M  V30 36 1 16 35
M  V30 37 1 16 36
M  V30 38 1 17 37
M  V30 39 1 17 38
M  V30 40 1 17 39
M  V30 41 1 18 40
M  V30 42 1 18 41
M  V30 43 1 18 42
M  V30 END BOND
M  V30 END CTAB
M  END
>  <NO.>
5844

>  <Name>
xylometazoline

>  <SMILES>
Cc1cc(C(C)(C)C)cc(C)c1CC1=NCCN1

>  <logBB>


>  <Class>
-1

>  <MW>
244.19

>  <nHBAcc>
2

>  <nHBDon>
1

>  <SLogP>
3.15

>  <TopoPSA>
24.39

>  <MMFF94 Energy>
70.852

$$$$
Cc1cc(O)[n+]([O-])c(C2CCCCC2)c1
Actelion Java MolfileCreator 2.0

  0  0  0  0  0  0              0 V3000
M  V30 BEGIN CTAB
M  V30 COUNTS 32 33 0 0 0
M  V30 BEGIN ATOM
M  V30 1 O -3.4855 0.3956 2.8511 0
M  V30 2 C -2.2914 -0.0238 2.2864 0
M  V30 3 N -1.8266 0.5308 1.0761 0 CHG=1
M  V30 4 C -1.5611 -1.0171 2.9508 0
M  V30 5 O -2.5033 1.4361 0.4815 0 CHG=-1
M  V30 6 C -0.6173 0.0676 0.5428 0
M  V30 7 C -0.3505 -1.4676 2.427 0
M  V30 8 C 0.1073 -0.9334 1.2214 0
M  V30 9 C -0.1296 0.6633 -0.7639 0
M  V30 10 C 0.4206 -2.556 3.116 0
M  V30 11 C 1.2275 1.37 -0.5939 0
M  V30 12 C -0.0623 -0.3977 -1.877 0
M  V30 13 C 1.7178 1.9625 -1.9142 0
M  V30 14 C 0.4343 0.2021 -3.1916 0
M  V30 15 C 1.775 0.9094 -3.0169 0
M  V30 16 H -3.6441 -0.0833 3.6775 0
M  V30 17 H -1.9339 -1.4423 3.8788 0
M  V30 18 H 1.0425 -1.2968 0.7981 0
M  V30 19 H -0.8357 1.4292 -1.1069 0
M  V30 20 H 0.1002 -3.534 2.7441 0
M  V30 21 H 1.4956 -2.4442 2.9399 0
M  V30 22 H 0.2642 -2.5203 4.1993 0
M  V30 23 H 1.9854 0.6705 -0.2197 0
M  V30 24 H 1.1436 2.1688 0.1533 0
M  V30 25 H -1.0534 -0.8418 -2.0326 0
M  V30 26 H 0.6063 -1.2189 -1.5899 0
M  V30 27 H 2.7114 2.4028 -1.7733 0
M  V30 28 H 1.0487 2.7762 -2.2201 0
M  V30 29 H 0.5302 -0.5889 -3.9437 0
M  V30 30 H -0.3082 0.9148 -3.571 0
M  V30 31 H 2.0683 1.381 -3.9615 0
M  V30 32 H 2.5483 0.17 -2.775 0
M  V30 END ATOM
M  V30 BEGIN BOND
M  V30 1 1 1 2
M  V30 2 2 2 3
M  V30 3 1 2 4
M  V30 4 1 3 5
M  V30 5 1 3 6
M  V30 6 2 4 7
M  V30 7 2 6 8
M  V30 8 1 6 9
M  V30 9 1 7 10
M  V30 10 1 9 11
M  V30 11 1 9 12
M  V30 12 1 11 13
M  V30 13 1 12 14
M  V30 14 1 13 15
M  V30 15 1 7 8
M  V30 16 1 14 15
M  V30 17 1 1 16
M  V30 18 1 4 17
M  V30 19 1 8 18
M  V30 20 1 9 19
M  V30 21 1 10 20
M  V30 22 1 10 21
M  V30 23 1 10 22
M  V30 24 1 11 23
M  V30 25 1 11 24
M  V30 26 1 12 25
M  V30 27 1 12 26
M  V30 28 1 13 27
M  V30 29 1 13 28
M  V30 30 1 14 29
M  V30 31 1 14 30
M  V30 32 1 15 31
M  V30 33 1 15 32
M  V30 END BOND
M  V30 END CTAB
M  END
>  <NO.>
5845

>  <Name>
ciclopirox

>  <SMILES>
Cc1cc(O)[n+]([O-])c(C2CCCCC2)c1

>  <logBB>


>  <Class>
-1

>  <MW>
207.13

>  <nHBAcc>
2

>  <nHBDon>
1

>  <SLogP>
2.38

>  <TopoPSA>
47.17

>  <MMFF94 Energy>
56.133

$$$$
Cc1cc2c(OCC(CNC(C)(C)C)OC(=O)c3ccccc3)cccc2[nH]1
Actelion Java MolfileCreator 2.0

  0  0  0  0  0  0              0 V3000
M  V30 BEGIN CTAB
M  V30 COUNTS 56 58 0 0 0
M  V30 BEGIN ATOM
M  V30 1 O -1.2631 -0.7103 -3.0811 0
M  V30 2 C -0.3727 -0.398 -2.3059 0
M  V30 3 O -0.5196 -0.1478 -0.9851 0
M  V30 4 C 1.049 -0.2226 -2.7092 0
M  V30 5 C -1.8543 -0.3008 -0.4455 0 CFG=2
M  V30 6 C 1.367 -0.3085 -4.0714 0
M  V30 7 C 2.0693 0.0223 -1.7793 0
M  V30 8 C -1.9169 0.4993 0.8617 0
M  V30 9 C -2.1754 -1.8008 -0.2287 0
M  V30 10 C 2.6864 -0.1449 -4.4982 0
M  V30 11 C 3.3877 0.187 -2.2101 0
M  V30 12 O -1.9814 1.9009 0.5393 0
M  V30 13 N -1.2344 -2.4743 0.6802 0
M  V30 14 C 3.6947 0.1037 -3.5677 0
M  V30 15 C -1.2614 2.6402 1.448 0
M  V30 16 C -1.3701 -3.939 0.7878 0
M  V30 17 C -0.0146 3.1888 1.0866 0
M  V30 18 C -1.7867 2.8846 2.7219 0
M  V30 19 C -2.7634 -4.3554 1.2863 0
M  V30 20 C -0.3238 -4.3922 1.8252 0
M  V30 21 C -1.0564 -4.6373 -0.5456 0
M  V30 22 C 0.6864 3.9325 2.0359 0
M  V30 23 C 0.7763 3.1714 -0.0952 0
M  V30 24 C -1.064 3.6368 3.6467 0
M  V30 25 N 1.8636 4.3348 1.4454 0
M  V30 26 C 0.1897 4.1697 3.3242 0
M  V30 27 C 1.9352 3.877 0.152 0
M  V30 28 C 3.1001 4.1629 -0.7189 0
M  V30 29 H -2.5757 0.1309 -1.1519 0
M  V30 30 H 0.5863 -0.5014 -4.8047 0
M  V30 31 H 1.8512 0.0894 -0.7156 0
M  V30 32 H -2.8265 0.25 1.4201 0
M  V30 33 H -1.0389 0.2716 1.4816 0
M  V30 34 H -3.1964 -1.8811 0.1609 0
M  V30 35 H -2.1548 -2.2901 -1.206 0
M  V30 36 H 2.9259 -0.2117 -5.5565 0
M  V30 37 H 4.1736 0.3793 -1.4839 0
M  V30 38 H -1.2965 -2.0614 1.6098 0
M  V30 39 H 4.7217 0.2308 -3.901 0
M  V30 40 H -2.7633 2.4922 2.9892 0
M  V30 41 H -3.5439 -4.1332 0.5507 0
M  V30 42 H -2.8028 -5.4333 1.4821 0
M  V30 43 H -3.0227 -3.8422 2.2197 0
M  V30 44 H -0.5068 -3.9379 2.8065 0
M  V30 45 H -0.3453 -5.48 1.9594 0
M  V30 46 H 0.6917 -4.1191 1.5145 0
M  V30 47 H -1.8251 -4.4488 -1.3022 0
M  V30 48 H -0.0936 -4.3056 -0.9515 0
M  V30 49 H -0.9996 -5.7242 -0.4136 0
M  V30 50 H 0.5133 2.6868 -1.0264 0
M  V30 51 H -1.4824 3.8176 4.6344 0
M  V30 52 H 2.5693 4.8934 1.9044 0
M  V30 53 H 0.7473 4.7553 4.0481 0
M  V30 54 H 2.945 3.7621 -1.7257 0
M  V30 55 H 4.0066 3.7071 -0.3084 0
M  V30 56 H 3.262 5.2421 -0.805 0
M  V30 END ATOM
M  V30 BEGIN BOND
M  V30 1 2 1 2
M  V30 2 1 2 3
M  V30 3 1 2 4
M  V30 4 1 3 5
M  V30 5 2 4 6
M  V30 6 1 4 7
M  V30 7 1 5 8
M  V30 8 1 5 9
M  V30 9 1 6 10
M  V30 10 2 7 11
M  V30 11 1 8 12
M  V30 12 1 9 13
M  V30 13 2 10 14
M  V30 14 1 12 15
M  V30 15 1 13 16
M  V30 16 2 15 17
M  V30 17 1 15 18
M  V30 18 1 16 19
M  V30 19 1 16 20
M  V30 20 1 16 21
M  V30 21 1 17 22
M  V30 22 1 17 23
M  V30 23 2 18 24
M  V30 24 1 22 25
M  V30 25 2 22 26
M  V30 26 2 23 27
M  V30 27 1 27 28
M  V30 28 1 11 14
M  V30 29 1 24 26
M  V30 30 1 25 27
M  V30 31 1 5 29
M  V30 32 1 6 30
M  V30 33 1 7 31
M  V30 34 1 8 32
M  V30 35 1 8 33
M  V30 36 1 9 34
M  V30 37 1 9 35
M  V30 38 1 10 36
M  V30 39 1 11 37
M  V30 40 1 13 38
M  V30 41 1 14 39
M  V30 42 1 18 40
M  V30 43 1 19 41
M  V30 44 1 19 42
M  V30 45 1 19 43
M  V30 46 1 20 44
M  V30 47 1 20 45
M  V30 48 1 20 46
M  V30 49 1 21 47
M  V30 50 1 21 48
M  V30 51 1 21 49
M  V30 52 1 23 50
M  V30 53 1 24 51
M  V30 54 1 25 52
M  V30 55 1 26 53
M  V30 56 1 28 54
M  V30 57 1 28 55
M  V30 58 1 28 56
M  V30 END BOND
M  V30 BEGIN COLLECTION
M  V30 MDLV30/STERAC1 ATOMS=(1 5)
M  V30 END COLLECTION
M  V30 END CTAB
M  END
>  <NO.>
5846

>  <Name>
bopindolol

>  <SMILES>
Cc1cc2c(OCC(CNC(C)(C)C)OC(=O)c3ccccc3)cccc2[nH]1

>  <logBB>


>  <Class>
-1

>  <MW>
380.21

>  <nHBAcc>
4

>  <nHBDon>
2

>  <SLogP>
4.47

>  <TopoPSA>
63.35

>  <MMFF94 Energy>
90.739

$$$$
Cc1cc2c(cc1CC(=O)c1sccc1S(=O)(=O)Nc1onc(C)c1Cl)OCO2
Actelion Java MolfileCreator 2.0

  0  0  0  0  0  0              0 V3000
M  V30 BEGIN CTAB
M  V30 COUNTS 44 47 0 0 0
M  V30 BEGIN ATOM
M  V30 1 Cl -1.0056 -5.7086 -1.2572 0
M  V30 2 C -1.1057 -4.5783 0.0012 0
M  V30 3 C -0.8007 -3.2387 -0.0087 0
M  V30 4 C -1.5262 -4.8322 1.3283 0
M  V30 5 O -0.9925 -2.7301 1.2389 0
M  V30 6 N -0.3204 -2.4476 -1.1378 0
M  V30 7 N -1.4686 -3.7221 2.0784 0
M  V30 8 C -1.9837 -6.1106 1.9198 0
M  V30 9 S -1.602 -1.7738 -2.0141 0
M  V30 10 O -1.0615 -0.8244 -2.962 0
M  V30 11 O -2.5129 -2.8213 -2.4222 0
M  V30 12 C -2.5617 -0.758 -0.9684 0
M  V30 13 C -2.0647 0.3171 -0.2481 0
M  V30 14 C -3.9734 -0.9223 -0.8061 0
M  V30 15 S -3.3219 1.1082 0.6115 0
M  V30 16 C -0.6768 0.7598 -0.1363 0
M  V30 17 C -4.5086 0.0262 0.0339 0
M  V30 18 O 0.2477 -0.0401 -0.2989 0
M  V30 19 C -0.4154 2.2261 0.2069 0
M  V30 20 C 1.0306 2.6499 0.0296 0
M  V30 21 C 1.9914 2.5134 1.0722 0
M  V30 22 C 1.4259 3.1645 -1.2213 0
M  V30 23 C 3.3211 2.9186 0.8534 0
M  V30 24 C 1.622 1.9563 2.4212 0
M  V30 25 C 2.7397 3.5422 -1.3916 0
M  V30 26 C 3.6608 3.4245 -0.3823 0
M  V30 27 O 3.2764 4.0599 -2.5285 0
M  V30 28 O 4.8968 3.8531 -0.7534 0
M  V30 29 C 4.6483 4.2406 -2.1208 0
M  V30 30 H 0.2785 -1.6648 -0.8294 0
M  V30 31 H -1.192 -6.8642 1.8609 0
M  V30 32 H -2.2582 -5.9925 2.9734 0
M  V30 33 H -2.861 -6.4876 1.3845 0
M  V30 34 H -4.5653 -1.6935 -1.2879 0
M  V30 35 H -5.5432 0.1382 0.3317 0
M  V30 36 H -0.7302 2.4184 1.2381 0
M  V30 37 H -1.0418 2.8548 -0.4387 0
M  V30 38 H 0.7261 3.2653 -2.0451 0
M  V30 39 H 4.076 2.8349 1.6286 0
M  V30 40 H 2.5074 1.8011 3.0472 0
M  V30 41 H 1.1279 0.9856 2.3159 0
M  V30 42 H 0.9589 2.6506 2.9468 0
M  V30 43 H 5.2911 3.643 -2.7773 0
M  V30 44 H 4.9121 5.298 -2.2383 0
M  V30 END ATOM
M  V30 BEGIN BOND
M  V30 1 1 1 2
M  V30 2 2 2 3
M  V30 3 1 2 4
M  V30 4 1 3 5
M  V30 5 1 3 6
M  V30 6 2 4 7
M  V30 7 1 4 8
M  V30 8 1 6 9
M  V30 9 2 9 10
M  V30 10 2 9 11
M  V30 11 1 9 12
M  V30 12 2 12 13
M  V30 13 1 12 14
M  V30 14 1 13 15
M  V30 15 1 13 16
M  V30 16 2 14 17
M  V30 17 2 16 18
M  V30 18 1 16 19
M  V30 19 1 19 20
M  V30 20 2 20 21
M  V30 21 1 20 22
M  V30 22 1 21 23
M  V30 23 1 21 24
M  V30 24 2 22 25
M  V30 25 2 23 26
M  V30 26 1 25 27
M  V30 27 1 26 28
M  V30 28 1 27 29
M  V30 29 1 5 7
M  V30 30 1 15 17
M  V30 31 1 25 26
M  V30 32 1 28 29
M  V30 33 1 6 30
M  V30 34 1 8 31
M  V30 35 1 8 32
M  V30 36 1 8 33
M  V30 37 1 14 34
M  V30 38 1 17 35
M  V30 39 1 19 36
M  V30 40 1 19 37
M  V30 41 1 22 38
M  V30 42 1 23 39
M  V30 43 1 24 40
M  V30 44 1 24 41
M  V30 45 1 24 42
M  V30 46 1 29 43
M  V30 47 1 29 44
M  V30 END BOND
M  V30 END CTAB
M  END
>  <NO.>
5847

>  <Name>
sitaxentan

>  <SMILES>
Cc1cc2c(cc1CC(=O)c1sccc1S(=O)(=O)Nc1onc(C)c1Cl)OCO2

>  <logBB>


>  <Class>
-1

>  <MW>
454.01

>  <nHBAcc>
8

>  <nHBDon>
1

>  <SLogP>
3.96

>  <TopoPSA>
107.73

>  <MMFF94 Energy>
-11.121

$$$$
Cc1ccc(=O)n(-c2ccccc2)c1
Actelion Java MolfileCreator 2.0

  0  0  0  0  0  0              0 V3000
M  V30 BEGIN CTAB
M  V30 COUNTS 25 26 0 0 0
M  V30 BEGIN ATOM
M  V30 1 O 0.1582 -2.4556 1.2668 0
M  V30 2 C 0.7775 -1.4663 0.879 0
M  V30 3 N 0.2358 -0.345 0.2283 0
M  V30 4 C 2.2476 -1.4276 1.1195 0
M  V30 5 C -1.1678 -0.3143 -0.0244 0
M  V30 6 C 1.0382 0.7203 -0.1668 0
M  V30 7 C 2.9792 -0.3787 0.7269 0
M  V30 8 C -1.7819 -1.3427 -0.7483 0
M  V30 9 C -1.9413 0.7624 0.4297 0
M  V30 10 C 2.3617 0.7411 0.0543 0
M  V30 11 C -3.1519 -1.2953 -1.0143 0
M  V30 12 C -3.3111 0.8076 0.1623 0
M  V30 13 C 3.2468 1.873 -0.368 0
M  V30 14 C -3.915 -0.2201 -0.5604 0
M  V30 15 H 2.6749 -2.2839 1.6247 0
M  V30 16 H 0.5393 1.5374 -0.6809 0
M  V30 17 H 4.0494 -0.359 0.9082 0
M  V30 18 H -1.1991 -2.1884 -1.1041 0
M  V30 19 H -1.4865 1.5619 1.008 0
M  V30 20 H -3.6227 -2.1013 -1.5708 0
M  V30 21 H -3.908 1.6408 0.5238 0
M  V30 22 H 2.682 2.6664 -0.8694 0
M  V30 23 H 4.015 1.5217 -1.0651 0
M  V30 24 H 3.7435 2.3182 0.5006 0
M  V30 25 H -4.9822 -0.1878 -0.7643 0
M  V30 END ATOM
M  V30 BEGIN BOND
M  V30 1 2 1 2
M  V30 2 1 2 3
M  V30 3 1 2 4
M  V30 4 1 3 5
M  V30 5 1 3 6
M  V30 6 2 4 7
M  V30 7 2 5 8
M  V30 8 1 5 9
M  V30 9 2 6 10
M  V30 10 1 8 11
M  V30 11 2 9 12
M  V30 12 1 10 13
M  V30 13 2 11 14
M  V30 14 1 7 10
M  V30 15 1 12 14
M  V30 16 1 4 15
M  V30 17 1 6 16
M  V30 18 1 7 17
M  V30 19 1 8 18
M  V30 20 1 9 19
M  V30 21 1 11 20
M  V30 22 1 12 21
M  V30 23 1 13 22
M  V30 24 1 13 23
M  V30 25 1 13 24
M  V30 26 1 14 25
M  V30 END BOND
M  V30 END CTAB
M  END
>  <NO.>
5849

>  <Name>
pirfenidone

>  <SMILES>
Cc1ccc(=O)n(-c2ccccc2)c1

>  <logBB>


>  <Class>
-1

>  <MW>
185.08

>  <nHBAcc>
1

>  <nHBDon>
0

>  <SLogP>
2.15

>  <TopoPSA>
22

>  <MMFF94 Energy>
40.07

$$$$
Cc1ccc(C(=O)Nc2ccc(CN3CCN(C)CC3)c(C(F)(F)F)c2)cc1C#Cc1cnc2cccnn12
Actelion Java MolfileCreator 2.0

  0  0  0  0  0  0              0 V3000
M  V30 BEGIN CTAB
M  V30 COUNTS 66 70 0 0 0
M  V30 BEGIN ATOM
M  V30 1 F 2.2548 1.9325 -4.5136 0
M  V30 2 C 0.9856 2.4085 -4.3311 0
M  V30 3 F 0.1895 1.572 -5.0536 0
M  V30 4 F 0.978 3.611 -4.9742 0
M  V30 5 C 0.5983 2.487 -2.8661 0
M  V30 6 C -0.4426 3.32 -2.3949 0
M  V30 7 C 1.2846 1.663 -1.9463 0
M  V30 8 C -0.7506 3.3175 -1.0238 0
M  V30 9 C -1.2465 4.2181 -3.3185 0
M  V30 10 C 0.9755 1.6737 -0.5851 0
M  V30 11 C -0.0518 2.5017 -0.1318 0
M  V30 12 N -1.9526 3.4641 -4.3575 0
M  V30 13 N 1.6207 0.8578 0.3655 0
M  V30 14 C -3.0842 2.6851 -3.8131 0
M  V30 15 C -2.4522 4.3747 -5.4076 0
M  V30 16 C 2.8455 0.2314 0.2173 0
M  V30 17 C -3.8669 1.9403 -4.9194 0
M  V30 18 C -3.2349 3.6268 -6.5102 0
M  V30 19 O 3.6124 0.3484 -0.7307 0
M  V30 20 C 3.2614 -0.6188 1.3678 0
M  V30 21 N -4.3689 2.8595 -5.9593 0
M  V30 22 C 2.3339 -1.3629 2.1064 0
M  V30 23 C 4.6201 -0.6886 1.6897 0
M  V30 24 C -5.0503 2.1171 -7.0172 0
M  V30 25 C 2.7618 -2.1492 3.1835 0
M  V30 26 C 5.048 -1.4721 2.7634 0
M  V30 27 C 1.7811 -2.8936 3.9171 0
M  V30 28 C 4.1254 -2.2049 3.5257 0
M  V30 29 C 0.9732 -3.5228 4.5446 0
M  V30 30 C 4.6148 -3.0438 4.6758 0
M  V30 31 C 0.0359 -4.2731 5.3011 0
M  V30 32 N 0.2998 -4.9726 6.4545 0
M  V30 33 C -1.306 -4.4655 5.0584 0
M  V30 34 N 1.5133 -5.0733 7.085 0
M  V30 35 C -0.899 -5.5514 6.8503 0
M  V30 36 N -1.8807 -5.2568 6.0233 0
M  V30 37 C 1.4626 -5.8016 8.1549 0
M  V30 38 C -0.8834 -6.3335 8.0273 0
M  V30 39 C 0.2634 -6.4822 8.7009 0
M  V30 40 H 2.0636 1.0036 -2.3254 0
M  V30 41 H -1.548 3.9511 -0.6392 0
M  V30 42 H -0.5395 4.9295 -3.7645 0
M  V30 43 H -1.952 4.8321 -2.7422 0
M  V30 44 H -0.3218 2.5305 0.9206 0
M  V30 45 H 1.178 0.8023 1.2734 0
M  V30 46 H -2.7179 1.9333 -3.1046 0
M  V30 47 H -3.775 3.3413 -3.2662 0
M  V30 48 H -1.6049 4.8853 -5.8814 0
M  V30 49 H -3.0978 5.1484 -4.9699 0
M  V30 50 H -4.7131 1.4233 -4.4508 0
M  V30 51 H -3.2177 1.172 -5.3613 0
M  V30 52 H -2.5457 2.9652 -7.0526 0
M  V30 53 H -3.6095 4.3675 -7.2271 0
M  V30 54 H 1.2814 -1.3625 1.8342 0
M  V30 55 H 5.3497 -0.1309 1.1048 0
M  V30 56 H -4.3893 1.399 -7.5157 0
M  V30 57 H -5.9079 1.5702 -6.6099 0
M  V30 58 H -5.4454 2.8041 -7.7737 0
M  V30 59 H 6.1102 -1.5087 2.9976 0
M  V30 60 H 4.1356 -2.73 5.609 0
M  V30 61 H 5.6966 -2.9423 4.8135 0
M  V30 62 H 4.4026 -4.1021 4.4923 0
M  V30 63 H -1.8921 -4.0745 4.2365 0
M  V30 64 H 2.3866 -5.9484 8.7391 0
M  V30 65 H -1.8059 -6.7971 8.3573 0
M  V30 66 H 0.3547 -7.0644 9.6073 0
M  V30 END ATOM
M  V30 BEGIN BOND
M  V30 1 1 1 2
M  V30 2 1 2 3
M  V30 3 1 2 4
M  V30 4 1 2 5
M  V30 5 2 5 6
M  V30 6 1 5 7
M  V30 7 1 6 8
M  V30 8 1 6 9
M  V30 9 2 7 10
M  V30 10 2 8 11
M  V30 11 1 9 12
M  V30 12 1 10 13
M  V30 13 1 12 14
M  V30 14 1 12 15
M  V30 15 1 13 16
M  V30 16 1 14 17
M  V30 17 1 15 18
M  V30 18 2 16 19
M  V30 19 1 16 20
M  V30 20 1 17 21
M  V30 21 2 20 22
M  V30 22 1 20 23
M  V30 23 1 21 24
M  V30 24 1 22 25
M  V30 25 2 23 26
M  V30 26 1 25 27
M  V30 27 2 25 28
M  V30 28 3 27 29
M  V30 29 1 28 30
M  V30 30 1 29 31
M  V30 31 1 31 32
M  V30 32 2 31 33
M  V30 33 1 32 34
M  V30 34 1 32 35
M  V30 35 1 33 36
M  V30 36 2 34 37
M  V30 37 1 35 38
M  V30 38 1 37 39
M  V30 39 1 10 11
M  V30 40 1 18 21
M  V30 41 1 26 28
M  V30 42 2 35 36
M  V30 43 2 38 39
M  V30 44 1 7 40
M  V30 45 1 8 41
M  V30 46 1 9 42
M  V30 47 1 9 43
M  V30 48 1 11 44
M  V30 49 1 13 45
M  V30 50 1 14 46
M  V30 51 1 14 47
M  V30 52 1 15 48
M  V30 53 1 15 49
M  V30 54 1 17 50
M  V30 55 1 17 51
M  V30 56 1 18 52
M  V30 57 1 18 53
M  V30 58 1 22 54
M  V30 59 1 23 55
M  V30 60 1 24 56
M  V30 61 1 24 57
M  V30 62 1 24 58
M  V30 63 1 26 59
M  V30 64 1 30 60
M  V30 65 1 30 61
M  V30 66 1 30 62
M  V30 67 1 33 63
M  V30 68 1 37 64
M  V30 69 1 38 65
M  V30 70 1 39 66
M  V30 END BOND
M  V30 END CTAB
M  END
>  <NO.>
5850

>  <Name>
ponatinib

>  <SMILES>
Cc1ccc(C(=O)Nc2ccc(CN3CCN(C)CC3)c(C(F)(F)F)c2)cc1C#Cc1cnc2cccnn12

>  <logBB>


>  <Class>
-1

>  <MW>
532.22

>  <nHBAcc>
5

>  <nHBDon>
1

>  <SLogP>
4.46

>  <TopoPSA>
65.77

>  <MMFF94 Energy>
141.22

$$$$
Cc1ccc(N(CC2=NCCN2)c2cccc(O)c2)cc1
Actelion Java MolfileCreator 2.0

  0  0  0  0  0  0              0 V3000
M  V30 BEGIN CTAB
M  V30 COUNTS 40 42 0 0 0
M  V30 BEGIN ATOM
M  V30 1 O -1.1872 -2.217 3.7235 0
M  V30 2 C -0.5622 -2.4396 2.532 0
M  V30 3 C -0.2579 -1.3907 1.6669 0
M  V30 4 C -0.2419 -3.7481 2.2031 0
M  V30 5 C 0.3796 -1.6333 0.4357 0
M  V30 6 C 0.4002 -4.0106 0.997 0
M  V30 7 N 0.6572 -0.5587 -0.4432 0
M  V30 8 C 0.7092 -2.9617 0.1237 0
M  V30 9 C 1.1355 0.7187 -0.0583 0
M  V30 10 C 0.3129 -0.7565 -1.8723 0
M  V30 11 C 1.9951 0.8464 1.0483 0
M  V30 12 C 0.7969 1.9007 -0.7338 0
M  V30 13 C -1.1607 -0.4652 -2.145 0
M  V30 14 C 2.4902 2.0887 1.4625 0
M  V30 15 C 1.2877 3.1481 -0.3236 0
M  V30 16 N -1.5325 0.3539 -3.1006 0
M  V30 17 N -2.1774 -1.0414 -1.4367 0
M  V30 18 C 2.1482 3.2507 0.7707 0
M  V30 19 C -3.0268 0.3422 -3.0493 0
M  V30 20 C -3.4385 -0.4934 -1.8298 0
M  V30 21 C 2.6483 4.5881 1.2268 0
M  V30 22 H -1.2792 -1.2574 3.848 0
M  V30 23 H -0.534 -0.3727 1.9279 0
M  V30 24 H -0.482 -4.5573 2.8867 0
M  V30 25 H 0.6719 -5.0305 0.7378 0
M  V30 26 H 1.245 -3.2004 -0.7906 0
M  V30 27 H 0.9352 -0.1276 -2.5214 0
M  V30 28 H 0.5006 -1.7816 -2.2082 0
M  V30 29 H 2.3115 -0.0392 1.5951 0
M  V30 30 H 0.1228 1.89 -1.5856 0
M  V30 31 H 3.1515 2.1339 2.3245 0
M  V30 32 H 0.9869 4.0379 -0.8723 0
M  V30 33 H -2.0361 -1.5896 -0.5986 0
M  V30 34 H -3.4114 -0.0997 -3.9748 0
M  V30 35 H -3.406 1.3663 -2.9724 0
M  V30 36 H -4.1624 -1.2696 -2.0924 0
M  V30 37 H -3.8531 0.1384 -1.0386 0
M  V30 38 H 3.6335 4.4977 1.6963 0
M  V30 39 H 1.9505 5.0221 1.9496 0
M  V30 40 H 2.7541 5.275 0.3805 0
M  V30 END ATOM
M  V30 BEGIN BOND
M  V30 1 1 1 2
M  V30 2 2 2 3
M  V30 3 1 2 4
M  V30 4 1 3 5
M  V30 5 2 4 6
M  V30 6 1 5 7
M  V30 7 2 5 8
M  V30 8 1 7 9
M  V30 9 1 7 10
M  V30 10 2 9 11
M  V30 11 1 9 12
M  V30 12 1 10 13
M  V30 13 1 11 14
M  V30 14 2 12 15
M  V30 15 2 13 16
M  V30 16 1 13 17
M  V30 17 2 14 18
M  V30 18 1 16 19
M  V30 19 1 17 20
M  V30 20 1 18 21
M  V30 21 1 6 8
M  V30 22 1 15 18
M  V30 23 1 19 20
M  V30 24 1 1 22
M  V30 25 1 3 23
M  V30 26 1 4 24
M  V30 27 1 6 25
M  V30 28 1 8 26
M  V30 29 1 10 27
M  V30 30 1 10 28
M  V30 31 1 11 29
M  V30 32 1 12 30
M  V30 33 1 14 31
M  V30 34 1 15 32
M  V30 35 1 17 33
M  V30 36 1 19 34
M  V30 37 1 19 35
M  V30 38 1 20 36
M  V30 39 1 20 37
M  V30 40 1 21 38
M  V30 41 1 21 39
M  V30 42 1 21 40
M  V30 END BOND
M  V30 END CTAB
M  END
>  <NO.>
5851

>  <Name>
phentolamine

>  <SMILES>
Cc1ccc(N(CC2=NCCN2)c2cccc(O)c2)cc1

>  <logBB>


>  <Class>
-1

>  <MW>
281.15

>  <nHBAcc>
4

>  <nHBDon>
2

>  <SLogP>
2.84

>  <TopoPSA>
47.86

>  <MMFF94 Energy>
78.17

$$$$
Cc1ccccc1N1CCN(CCc2nnc3n2CCCC3)CC1
Actelion Java MolfileCreator 2.0

  0  0  0  0  0  0              0 V3000
M  V30 BEGIN CTAB
M  V30 COUNTS 51 54 0 0 0
M  V30 BEGIN ATOM
M  V30 1 N 2.3061 -1.1923 -3.9786 0
M  V30 2 N 1.5552 -2.2411 -3.498 0
M  V30 3 C 2.9576 -0.6677 -2.9653 0
M  V30 4 C 1.757 -2.3344 -2.1981 0
M  V30 5 N 2.6368 -1.3561 -1.8265 0
M  V30 6 C 3.8666 0.5066 -2.963 0
M  V30 7 C 1.1437 -3.3278 -1.279 0
M  V30 8 C 3.1882 -1.0778 -0.5194 0
M  V30 9 C 4.7063 0.5655 -1.6836 0
M  V30 10 C -0.3083 -2.9966 -0.8995 0
M  V30 11 C 3.8414 0.3043 -0.4476 0
M  V30 12 N -0.4115 -1.8287 0.0028 0
M  V30 13 C -0.7898 -0.6058 -0.7605 0
M  V30 14 C -1.4566 -2.0518 1.0353 0
M  V30 15 C -0.9343 0.6433 0.1391 0
M  V30 16 C -1.6138 -0.8483 1.9947 0
M  V30 17 N -1.8793 0.3796 1.2351 0
M  V30 18 C -2.3397 1.5043 1.9171 0
M  V30 19 C -3.4185 2.2594 1.4093 0
M  V30 20 C -1.7337 1.9306 3.1104 0
M  V30 21 C -3.8399 3.4198 2.0828 0
M  V30 22 C -4.1289 1.8612 0.143 0
M  V30 23 C -2.1692 3.0766 3.78 0
M  V30 24 C -3.2209 3.8235 3.2637 0
M  V30 25 H 3.2604 1.4168 -3.0445 0
M  V30 26 H 4.526 0.4753 -3.837 0
M  V30 27 H 1.7484 -3.4562 -0.3734 0
M  V30 28 H 1.1524 -4.3024 -1.7839 0
M  V30 29 H 2.3887 -1.1522 0.2231 0
M  V30 30 H 3.9287 -1.8606 -0.32 0
M  V30 31 H 5.5048 -0.1859 -1.7304 0
M  V30 32 H 5.1912 1.545 -1.6052 0
M  V30 33 H -0.9325 -2.8779 -1.7948 0
M  V30 34 H -0.6917 -3.8892 -0.3866 0
M  V30 35 H 4.4466 0.38 0.4623 0
M  V30 36 H 3.0632 1.0756 -0.3824 0
M  V30 37 H -0.0367 -0.381 -1.5207 0
M  V30 38 H -1.741 -0.7698 -1.2857 0
M  V30 39 H -2.4233 -2.2606 0.5569 0
M  V30 40 H -1.1906 -2.9281 1.639 0
M  V30 41 H -1.2693 1.4813 -0.483 0
M  V30 42 H 0.0457 0.9124 0.5543 0
M  V30 43 H -0.6966 -0.7409 2.5873 0
M  V30 44 H -2.4417 -1.0564 2.6834 0
M  V30 45 H -0.8931 1.3803 3.5225 0
M  V30 46 H -4.6631 4.0117 1.6888 0
M  V30 47 H -5.13 2.304 0.0974 0
M  V30 48 H -4.2627 0.7759 0.0894 0
M  V30 49 H -3.5645 2.2016 -0.73 0
M  V30 50 H -1.6796 3.3869 4.6989 0
M  V30 51 H -3.5599 4.7187 3.7778 0
M  V30 END ATOM
M  V30 BEGIN BOND
M  V30 1 1 1 2
M  V30 2 2 1 3
M  V30 3 2 2 4
M  V30 4 1 3 5
M  V30 5 1 3 6
M  V30 6 1 4 7
M  V30 7 1 5 8
M  V30 8 1 6 9
M  V30 9 1 7 10
M  V30 10 1 8 11
M  V30 11 1 10 12
M  V30 12 1 12 13
M  V30 13 1 12 14
M  V30 14 1 13 15
M  V30 15 1 14 16
M  V30 16 1 15 17
M  V30 17 1 17 18
M  V30 18 2 18 19
M  V30 19 1 18 20
M  V30 20 1 19 21
M  V30 21 1 19 22
M  V30 22 2 20 23
M  V30 23 2 21 24
M  V30 24 1 4 5
M  V30 25 1 9 11
M  V30 26 1 16 17
M  V30 27 1 23 24
M  V30 28 1 6 25
M  V30 29 1 6 26
M  V30 30 1 7 27
M  V30 31 1 7 28
M  V30 32 1 8 29
M  V30 33 1 8 30
M  V30 34 1 9 31
M  V30 35 1 9 32
M  V30 36 1 10 33
M  V30 37 1 10 34
M  V30 38 1 11 35
M  V30 39 1 11 36
M  V30 40 1 13 37
M  V30 41 1 13 38
M  V30 42 1 14 39
M  V30 43 1 14 40
M  V30 44 1 15 41
M  V30 45 1 15 42
M  V30 46 1 16 43
M  V30 47 1 16 44
M  V30 48 1 20 45
M  V30 49 1 21 46
M  V30 50 1 22 47
M  V30 51 1 22 48
M  V30 52 1 22 49
M  V30 53 1 23 50
M  V30 54 1 24 51
M  V30 END BOND
M  V30 END CTAB
M  END
>  <NO.>
5854

>  <Name>
dapiprazole

>  <SMILES>
Cc1ccccc1N1CCN(CCc2nnc3n2CCCC3)CC1

>  <logBB>


>  <Class>
-1

>  <MW>
325.23

>  <nHBAcc>
4

>  <nHBDon>
0

>  <SLogP>
2.29

>  <TopoPSA>
37.19

>  <MMFF94 Energy>
105.92

$$$$
Cc1ccn(-c2cc(Cl)ccc2[C@@H](Oc2cc(-c3ccc(C[C@H](N)C(=O)O)cc3)nc(N)n2)C(F)(F)F)n1
Actelion Java MolfileCreator 2.0

  0  0  0  0  0  0              0 V3000
M  V30 BEGIN CTAB
M  V30 COUNTS 60 63 0 0 0
M  V30 BEGIN ATOM
M  V30 1 Cl 1.9399 -7.9392 0.1615 0
M  V30 2 C 2.0782 -6.2284 0.2796 0
M  V30 3 C 3.0053 -5.554 -0.5096 0
M  V30 4 C 1.2687 -5.5295 1.1678 0
M  V30 5 C 3.1227 -4.1558 -0.4134 0
M  V30 6 C 1.3809 -4.1404 1.2649 0
M  V30 7 N 4.1109 -3.5293 -1.2102 0
M  V30 8 C 2.3003 -3.4194 0.4717 0
M  V30 9 N 4.9323 -2.5906 -0.6909 0
M  V30 10 C 4.3958 -3.7868 -2.5301 0
M  V30 11 C 2.3538 -1.8893 0.6061 0 CFG=1
M  V30 12 C 5.7474 -2.2541 -1.6968 0
M  V30 13 C 5.45 -2.9747 -2.8724 0
M  V30 14 O 0.9693 -1.4509 0.5716 0
M  V30 15 C 3.0588 -1.4687 1.9141 0
M  V30 16 C 6.8009 -1.2317 -1.49 0
M  V30 17 C 0.7773 -0.131 0.2251 0
M  V30 18 F 3.4394 -0.1704 1.9184 0
M  V30 19 F 2.2363 -1.6383 2.9852 0
M  V30 20 F 4.1705 -2.1995 2.1698 0
M  V30 21 N 1.8253 0.6214 -0.1213 0
M  V30 22 C -0.5181 0.3207 0.2502 0
M  V30 23 C 1.5588 1.8874 -0.4362 0
M  V30 24 C -0.7034 1.6398 -0.1041 0
M  V30 25 N 0.3403 2.4307 -0.4411 0
M  V30 26 N 2.6094 2.688 -0.772 0
M  V30 27 C -2.0327 2.2855 -0.1298 0
M  V30 28 C -2.174 3.6499 0.1784 0
M  V30 29 C -3.2013 1.5801 -0.4658 0
M  V30 30 C -3.4244 4.2781 0.1711 0
M  V30 31 C -4.4547 2.2048 -0.4778 0
M  V30 32 C -4.5795 3.5587 -0.1512 0
M  V30 33 C -5.9331 4.235 -0.1437 0
M  V30 34 C -6.7681 4.0334 1.136 0 CFG=2
M  V30 35 N -6.0507 4.3815 2.3844 0
M  V30 36 C -7.3071 2.602 1.2147 0
M  V30 37 O -6.9087 1.6974 1.9325 0
M  V30 38 O -8.3221 2.3796 0.3519 0
M  V30 39 H 3.6497 -6.1256 -1.1739 0
M  V30 40 H 0.5493 -6.056 1.7903 0
M  V30 41 H 0.7338 -3.6173 1.9699 0
M  V30 42 H 3.8263 -4.5037 -3.1039 0
M  V30 43 H 2.8651 -1.4745 -0.2645 0
M  V30 44 H 5.936 -2.9092 -3.8359 0
M  V30 45 H 7.5026 -1.5552 -0.7144 0
M  V30 46 H 7.3684 -1.058 -2.4099 0
M  V30 47 H 6.3567 -0.2797 -1.1811 0
M  V30 48 H -1.3288 -0.3282 0.5494 0
M  V30 49 H 2.4202 3.6545 -0.97 0
M  V30 50 H 3.5352 2.3036 -0.7035 0
M  V30 51 H -1.2944 4.2396 0.4346 0
M  V30 52 H -3.1543 0.5289 -0.7421 0
M  V30 53 H -3.4801 5.3361 0.4181 0
M  V30 54 H -5.3295 1.6176 -0.7495 0
M  V30 55 H -6.4968 3.8887 -1.0202 0
M  V30 56 H -5.7864 5.3122 -0.3021 0
M  V30 57 H -7.643 4.6937 1.09 0
M  V30 58 H -5.3983 3.6195 2.5934 0
M  V30 59 H -5.4723 5.2042 2.228 0
M  V30 60 H -8.5845 1.454 0.542 0
M  V30 END ATOM
M  V30 BEGIN BOND
M  V30 1 1 1 2
M  V30 2 2 2 3
M  V30 3 1 2 4
M  V30 4 1 3 5
M  V30 5 2 4 6
M  V30 6 1 5 7
M  V30 7 2 5 8
M  V30 8 1 7 9
M  V30 9 1 7 10
M  V30 10 1 8 11
M  V30 11 2 9 12
M  V30 12 2 10 13
M  V30 13 1 11 14
M  V30 14 1 11 15
M  V30 15 1 12 16
M  V30 16 1 14 17
M  V30 17 1 15 18
M  V30 18 1 15 19
M  V30 19 1 15 20
M  V30 20 2 17 21
M  V30 21 1 17 22
M  V30 22 1 21 23
M  V30 23 2 22 24
M  V30 24 2 23 25
M  V30 25 1 23 26
M  V30 26 1 24 27
M  V30 27 2 27 28
M  V30 28 1 27 29
M  V30 29 1 28 30
M  V30 30 2 29 31
M  V30 31 2 30 32
M  V30 32 1 32 33
M  V30 33 1 33 34
M  V30 34 1 34 35
M  V30 35 1 34 36
M  V30 36 2 36 37
M  V30 37 1 36 38
M  V30 38 1 6 8
M  V30 39 1 12 13
M  V30 40 1 24 25
M  V30 41 1 31 32
M  V30 42 1 3 39
M  V30 43 1 4 40
M  V30 44 1 6 41
M  V30 45 1 10 42
M  V30 46 1 11 43
M  V30 47 1 13 44
M  V30 48 1 16 45
M  V30 49 1 16 46
M  V30 50 1 16 47
M  V30 51 1 22 48
M  V30 52 1 26 49
M  V30 53 1 26 50
M  V30 54 1 28 51
M  V30 55 1 29 52
M  V30 56 1 30 53
M  V30 57 1 31 54
M  V30 58 1 33 55
M  V30 59 1 33 56
M  V30 60 1 34 57
M  V30 61 1 35 58
M  V30 62 1 35 59
M  V30 63 1 38 60
M  V30 END BOND
M  V30 BEGIN COLLECTION
M  V30 MDLV30/STEABS ATOMS=(2 11 34)
M  V30 END COLLECTION
M  V30 END CTAB
M  END
>  <NO.>
5855

>  <Name>
telotristat

>  <SMILES>
Cc1ccn(-c2cc(Cl)ccc2[C@@H](Oc2cc(-c3ccc(C[C@H](N)C(=O)O)cc3)nc(N)n2)C(F)(F)F)n1

>  <logBB>


>  <Class>
-1

>  <MW>
546.14

>  <nHBAcc>
7

>  <nHBDon>
3

>  <SLogP>
4.51

>  <TopoPSA>
142.17

>  <MMFF94 Energy>
18.517

$$$$
Cc1ccnc(NS(=O)(=O)c2ccc(N)cc2)n1
Actelion Java MolfileCreator 2.0

  0  0  0  0  0  0              0 V3000
M  V30 BEGIN CTAB
M  V30 COUNTS 30 31 0 0 0
M  V30 BEGIN ATOM
M  V30 1 S -1.0472 -2.0953 0.8055 0
M  V30 2 O -1.0277 -3.542 0.7008 0
M  V30 3 O -2.2485 -1.4202 1.2501 0
M  V30 4 N 0.2302 -1.6959 1.787 0
M  V30 5 C -0.5747 -1.4732 -0.7888 0
M  V30 6 C 0.275 -0.4002 2.2843 0
M  V30 7 C -1.2568 -0.3932 -1.3505 0
M  V30 8 C 0.4557 -2.1021 -1.4904 0
M  V30 9 N 0.056 0.6215 1.4558 0
M  V30 10 N 0.7718 -0.3265 3.522 0
M  V30 11 C -0.8896 0.068 -2.6176 0
M  V30 12 C 0.8122 -1.6312 -2.7569 0
M  V30 13 C 0.2662 1.854 1.9593 0
M  V30 14 C 0.9693 0.9199 3.9864 0
M  V30 15 C 0.1348 -0.5542 -3.3375 0
M  V30 16 C 0.7272 2.0551 3.2458 0
M  V30 17 C -0.0086 3.0208 1.06 0
M  V30 18 N 0.5177 -0.0692 -4.5748 0
M  V30 19 H 0.4479 -2.3997 2.4817 0
M  V30 20 H -2.0591 0.1005 -0.8074 0
M  V30 21 H 0.9817 -2.9509 -1.0608 0
M  V30 22 H -1.4152 0.9201 -3.0402 0
M  V30 23 H 1.6235 -2.1181 -3.2913 0
M  V30 24 H 1.3461 0.9837 5.0033 0
M  V30 25 H 0.8994 3.0435 3.6513 0
M  V30 26 H -0.7692 3.6703 1.5044 0
M  V30 27 H 0.9073 3.5974 0.8981 0
M  V30 28 H -0.3762 2.684 0.0853 0
M  V30 29 H 1.2029 -0.567 -5.1262 0
M  V30 30 H -0.024 0.6539 -5.0273 0
M  V30 END ATOM
M  V30 BEGIN BOND
M  V30 1 2 1 2
M  V30 2 2 1 3
M  V30 3 1 1 4
M  V30 4 1 1 5
M  V30 5 1 4 6
M  V30 6 2 5 7
M  V30 7 1 5 8
M  V30 8 2 6 9
M  V30 9 1 6 10
M  V30 10 1 7 11
M  V30 11 2 8 12
M  V30 12 1 9 13
M  V30 13 2 10 14
M  V30 14 2 11 15
M  V30 15 2 13 16
M  V30 16 1 13 17
M  V30 17 1 15 18
M  V30 18 1 12 15
M  V30 19 1 14 16
M  V30 20 1 4 19
M  V30 21 1 7 20
M  V30 22 1 8 21
M  V30 23 1 11 22
M  V30 24 1 12 23
M  V30 25 1 14 24
M  V30 26 1 16 25
M  V30 27 1 17 26
M  V30 28 1 17 27
M  V30 29 1 17 28
M  V30 30 1 18 29
M  V30 31 1 18 30
M  V30 END BOND
M  V30 END CTAB
M  END
>  <NO.>
5856

>  <Name>
sulfamerazine

>  <SMILES>
Cc1ccnc(NS(=O)(=O)c2ccc(N)cc2)n1

>  <logBB>


>  <Class>
-1

>  <MW>
264.07

>  <nHBAcc>
5

>  <nHBDon>
2

>  <SLogP>
1.17

>  <TopoPSA>
97.97

>  <MMFF94 Energy>
-135.46

$$$$
Cc1cn[nH]c1
Actelion Java MolfileCreator 2.0

  0  0  0  0  0  0              0 V3000
M  V30 BEGIN CTAB
M  V30 COUNTS 12 12 0 0 0
M  V30 BEGIN ATOM
M  V30 1 N -1.2317 -1.6169 -0.3848 0
M  V30 2 N -1.8059 -0.4043 -0.4222 0
M  V30 3 C 0.0462 -1.3513 -0.1067 0
M  V30 4 C -0.9335 0.6155 -0.1773 0
M  V30 5 C 0.297 0.0324 0.0353 0
M  V30 6 C 1.5864 0.6892 0.3413 0
M  V30 7 H -2.7993 -0.348 -0.6209 0
M  V30 8 H 0.7444 -2.1742 -0.0183 0
M  V30 9 H -1.2597 1.6457 -0.1761 0
M  V30 10 H 2.3272 0.4566 -0.4301 0
M  V30 11 H 1.9724 0.3441 1.3058 0
M  V30 12 H 1.4771 1.7775 0.3895 0
M  V30 END ATOM
M  V30 BEGIN BOND
M  V30 1 1 1 2
M  V30 2 2 1 3
M  V30 3 1 2 4
M  V30 4 1 3 5
M  V30 5 1 5 6
M  V30 6 2 4 5
M  V30 7 1 2 7
M  V30 8 1 3 8
M  V30 9 1 4 9
M  V30 10 1 6 10
M  V30 11 1 6 11
M  V30 12 1 6 12
M  V30 END BOND
M  V30 END CTAB
M  END
>  <NO.>
5860

>  <Name>
fomepizole

>  <SMILES>
Cc1cn[nH]c1

>  <logBB>


>  <Class>
-1

>  <MW>
82.05

>  <nHBAcc>
1

>  <nHBDon>
1

>  <SLogP>
0.72

>  <TopoPSA>
28.68

>  <MMFF94 Energy>
6.6326

$$$$
Cc1nc(-c2ccc(OCC(C)C)c(C#N)c2)sc1C(=O)O
Actelion Java MolfileCreator 2.0

  0  0  0  0  0  0              0 V3000
M  V30 BEGIN CTAB
M  V30 COUNTS 38 39 0 0 0
M  V30 BEGIN ATOM
M  V30 1 S -2.0973 2.824 -1.9358 0
M  V30 2 C -2.2701 1.4848 -0.8711 0
M  V30 3 C -3.7984 3.0121 -2.0127 0
M  V30 4 N -3.5217 1.186 -0.5827 0
M  V30 5 C -1.1103 0.7422 -0.3337 0
M  V30 6 C -4.4006 2.0456 -1.2243 0
M  V30 7 C -4.4381 4.0386 -2.796 0
M  V30 8 C -1.3438 -0.3409 0.5298 0
M  V30 9 C 0.2232 1.0552 -0.6342 0
M  V30 10 C -5.8594 1.8469 -1.0061 0
M  V30 11 O -5.6383 4.2451 -2.9085 0
M  V30 12 O -3.5651 4.8312 -3.4581 0
M  V30 13 C -0.2861 -1.087 1.0744 0
M  V30 14 C 1.2855 0.3147 -0.0944 0
M  V30 15 C -0.5943 -2.1829 1.9495 0
M  V30 16 C 1.0407 -0.761 0.7614 0
M  V30 17 N -0.8787 -3.0625 2.6525 0
M  V30 18 O 2.0109 -1.5367 1.3355 0
M  V30 19 C 3.373 -1.2757 0.9944 0
M  V30 20 C 4.2674 -2.2914 1.7205 0
M  V30 21 C 3.9571 -3.7235 1.2791 0
M  V30 22 C 5.7413 -1.97 1.4828 0
M  V30 23 H -2.3704 -0.6103 0.7845 0
M  V30 24 H 0.473 1.8828 -1.2947 0
M  V30 25 H -6.306 2.7395 -0.5572 0
M  V30 26 H -6.042 1.0036 -0.3325 0
M  V30 27 H -6.3647 1.637 -1.9537 0
M  V30 28 H -4.1451 5.4622 -3.9317 0
M  V30 29 H 2.2939 0.612 -0.3655 0
M  V30 30 H 3.6425 -0.2629 1.3182 0
M  V30 31 H 3.5149 -1.3668 -0.0897 0
M  V30 32 H 4.0628 -2.2285 2.7971 0
M  V30 33 H 4.1158 -3.8496 0.2028 0
M  V30 34 H 2.9192 -3.9908 1.5024 0
M  V30 35 H 4.6017 -4.438 1.802 0
M  V30 36 H 5.9943 -2.0274 0.4188 0
M  V30 37 H 5.9808 -0.9609 1.8343 0
M  V30 38 H 6.3847 -2.6726 2.0225 0
M  V30 END ATOM
M  V30 BEGIN BOND
M  V30 1 1 1 2
M  V30 2 1 1 3
M  V30 3 2 2 4
M  V30 4 1 2 5
M  V30 5 2 3 6
M  V30 6 1 3 7
M  V30 7 2 5 8
M  V30 8 1 5 9
M  V30 9 1 6 10
M  V30 10 2 7 11
M  V30 11 1 7 12
M  V30 12 1 8 13
M  V30 13 2 9 14
M  V30 14 1 13 15
M  V30 15 2 13 16
M  V30 16 3 15 17
M  V30 17 1 16 18
M  V30 18 1 18 19
M  V30 19 1 19 20
M  V30 20 1 20 21
M  V30 21 1 20 22
M  V30 22 1 4 6
M  V30 23 1 14 16
M  V30 24 1 8 23
M  V30 25 1 9 24
M  V30 26 1 10 25
M  V30 27 1 10 26
M  V30 28 1 10 27
M  V30 29 1 12 28
M  V30 30 1 14 29
M  V30 31 1 19 30
M  V30 32 1 19 31
M  V30 33 1 20 32
M  V30 34 1 21 33
M  V30 35 1 21 34
M  V30 36 1 21 35
M  V30 37 1 22 36
M  V30 38 1 22 37
M  V30 39 1 22 38
M  V30 END BOND
M  V30 END CTAB
M  END
>  <NO.>
5861

>  <Name>
febuxostat

>  <SMILES>
Cc1nc(-c2ccc(OCC(C)C)c(C#N)c2)sc1C(=O)O

>  <logBB>


>  <Class>
-1

>  <MW>
316.09

>  <nHBAcc>
5

>  <nHBDon>
1

>  <SLogP>
3.72

>  <TopoPSA>
83.21

>  <MMFF94 Energy>
30.175

$$$$
Cc1nc(NC(=O)N2CCC[C@H]2C(N)=O)sc1-c1ccnc(C(C)(C)C(F)(F)F)c1
Actelion Java MolfileCreator 2.0

  0  0  0  0  0  0              0 V3000
M  V30 BEGIN CTAB
M  V30 COUNTS 52 54 0 0 0
M  V30 BEGIN ATOM
M  V30 1 S 0.646 -1.0499 0.646 0
M  V30 2 C 0.907 -0.8162 -1.0123 0
M  V30 3 C -0.9437 -0.4015 0.4997 0
M  V30 4 N -0.0883 -0.2861 -1.6811 0
M  V30 5 N 2.081 -1.1309 -1.6422 0
M  V30 6 C -1.8137 -0.301 1.68 0
M  V30 7 C -1.1655 -0.0651 -0.832 0
M  V30 8 C 3.1526 -1.8041 -1.1222 0
M  V30 9 C -2.6109 0.8336 1.8821 0
M  V30 10 C -1.921 -1.3489 2.5939 0
M  V30 11 C -2.4118 0.477 -1.4383 0
M  V30 12 O 3.1681 -2.3987 -0.0483 0
M  V30 13 N 4.2803 -1.7742 -1.9226 0
M  V30 14 C -3.4664 0.9082 2.986 0
M  V30 15 C -2.7926 -1.2117 3.6565 0
M  V30 16 C 4.5518 -0.8958 -3.0649 0 CFG=2
M  V30 17 C 5.4659 -2.5215 -1.5401 0
M  V30 18 N -3.5594 -0.1201 3.862 0
M  V30 19 C -4.3574 2.1284 3.2369 0
M  V30 20 C 3.8214 -1.3885 -4.3252 0
M  V30 21 C 6.0694 -0.9698 -3.2451 0
M  V30 22 C 6.4313 -2.3473 -2.6996 0
M  V30 23 C -3.501 3.385 3.4302 0
M  V30 24 C -5.3162 2.3251 2.0457 0
M  V30 25 C -5.2209 1.9428 4.5066 0
M  V30 26 O 4.0526 -2.4469 -4.8985 0
M  V30 27 N 2.7839 -0.5958 -4.7394 0
M  V30 28 F -2.6339 3.2691 4.4595 0
M  V30 29 F -4.2779 4.4676 3.6856 0
M  V30 30 F -2.7804 3.6877 2.3238 0
M  V30 31 H 2.0372 -0.9917 -2.6365 0
M  V30 32 H -2.5422 1.6651 1.1872 0
M  V30 33 H -1.3512 -2.2662 2.487 0
M  V30 34 H -2.473 1.558 -1.2803 0
M  V30 35 H -2.4289 0.2913 -2.5171 0
M  V30 36 H -3.3 0.005 -1.0071 0
M  V30 37 H -2.9065 -2.0032 4.3921 0
M  V30 38 H 4.2323 0.1248 -2.8262 0
M  V30 39 H 5.8647 -2.0767 -0.621 0
M  V30 40 H 5.2176 -3.569 -1.344 0
M  V30 41 H 6.3977 -0.8331 -4.2798 0
M  V30 42 H 6.5515 -0.2002 -2.6296 0
M  V30 43 H 6.2496 -3.1141 -3.4613 0
M  V30 44 H 7.4774 -2.4203 -2.3893 0
M  V30 45 H -5.9235 1.4284 1.874 0
M  V30 46 H -6.0016 3.1621 2.2232 0
M  V30 47 H -4.7787 2.5394 1.1153 0
M  V30 48 H -5.8646 2.8131 4.68 0
M  V30 49 H -5.8754 1.0669 4.4236 0
M  V30 50 H -4.5998 1.8121 5.4008 0
M  V30 51 H 2.2607 -0.9093 -5.5495 0
M  V30 52 H 2.5852 0.3277 -4.3762 0
M  V30 END ATOM
M  V30 BEGIN BOND
M  V30 1 1 1 2
M  V30 2 1 1 3
M  V30 3 2 2 4
M  V30 4 1 2 5
M  V30 5 1 3 6
M  V30 6 2 3 7
M  V30 7 1 5 8
M  V30 8 2 6 9
M  V30 9 1 6 10
M  V30 10 1 7 11
M  V30 11 2 8 12
M  V30 12 1 8 13
M  V30 13 1 9 14
M  V30 14 2 10 15
M  V30 15 1 13 16
M  V30 16 1 13 17
M  V30 17 2 14 18
M  V30 18 1 14 19
M  V30 19 1 16 20
M  V30 20 1 16 21
M  V30 21 1 17 22
M  V30 22 1 19 23
M  V30 23 1 19 24
M  V30 24 1 19 25
M  V30 25 2 20 26
M  V30 26 1 20 27
M  V30 27 1 23 28
M  V30 28 1 23 29
M  V30 29 1 23 30
M  V30 30 1 4 7
M  V30 31 1 15 18
M  V30 32 1 21 22
M  V30 33 1 5 31
M  V30 34 1 9 32
M  V30 35 1 10 33
M  V30 36 1 11 34
M  V30 37 1 11 35
M  V30 38 1 11 36
M  V30 39 1 15 37
M  V30 40 1 16 38
M  V30 41 1 17 39
M  V30 42 1 17 40
M  V30 43 1 21 41
M  V30 44 1 21 42
M  V30 45 1 22 43
M  V30 46 1 22 44
M  V30 47 1 24 45
M  V30 48 1 24 46
M  V30 49 1 24 47
M  V30 50 1 25 48
M  V30 51 1 25 49
M  V30 52 1 25 50
M  V30 53 1 27 51
M  V30 54 1 27 52
M  V30 END BOND
M  V30 BEGIN COLLECTION
M  V30 MDLV30/STEABS ATOMS=(1 16)
M  V30 END COLLECTION
M  V30 END CTAB
M  END
>  <NO.>
5862

>  <Name>
alpelisib

>  <SMILES>
Cc1nc(NC(=O)N2CCC[C@H]2C(N)=O)sc1-c1ccnc(C(C)(C)C(F)(F)F)c1

>  <logBB>


>  <Class>
-1

>  <MW>
441.14

>  <nHBAcc>
5

>  <nHBDon>
2

>  <SLogP>
3.84

>  <TopoPSA>
101.21

>  <MMFF94 Energy>
-41.5

$$$$
Cc1nc(NS(=O)(=O)c2ccc(N)cc2)oc1C
Actelion Java MolfileCreator 2.0

  0  0  0  0  0  0              0 V3000
M  V30 BEGIN CTAB
M  V30 COUNTS 31 32 0 0 0
M  V30 BEGIN ATOM
M  V30 1 S -0.8058 -1.7736 0.1611 0
M  V30 2 O -0.8551 -3.2058 0.3774 0
M  V30 3 O -1.9573 -0.9428 0.4361 0
M  V30 4 N 0.5677 -1.2398 0.9578 0
M  V30 5 C -0.3386 -1.5041 -1.5318 0
M  V30 6 C 0.3281 -0.0992 1.792 0
M  V30 7 C -0.4592 -0.2236 -2.0758 0
M  V30 8 C 0.1135 -2.5672 -2.3144 0
M  V30 9 O -0.1362 1.1039 1.3497 0
M  V30 10 N 0.6625 -0.1227 3.0621 0
M  V30 11 C -0.1076 -0.0084 -3.4108 0
M  V30 12 C 0.4614 -2.337 -3.6485 0
M  V30 13 C -0.1481 1.8892 2.4675 0
M  V30 14 C 0.3416 1.1377 3.5147 0
M  V30 15 C 0.3429 -1.0623 -4.2114 0
M  V30 16 C -0.6454 3.2657 2.3099 0
M  V30 17 C 0.5391 1.5173 4.9287 0
M  V30 18 N 0.7212 -0.8361 -5.5215 0
M  V30 19 H 0.9809 -1.9959 1.4985 0
M  V30 20 H -0.821 0.6057 -1.472 0
M  V30 21 H 0.2011 -3.5696 -1.9026 0
M  V30 22 H -0.1934 0.9934 -3.8239 0
M  V30 23 H 0.8234 -3.1672 -4.2497 0
M  V30 24 H -0.6269 3.805 3.2618 0
M  V30 25 H -1.6762 3.2606 1.9423 0
M  V30 26 H -0.0268 3.8165 1.5949 0
M  V30 27 H 0.9485 0.6823 5.5056 0
M  V30 28 H 1.2353 2.3581 5.0067 0
M  V30 29 H -0.412 1.8108 5.3837 0
M  V30 30 H 0.9813 -1.6082 -6.1195 0
M  V30 31 H 0.5718 0.0678 -5.9482 0
M  V30 END ATOM
M  V30 BEGIN BOND
M  V30 1 2 1 2
M  V30 2 2 1 3
M  V30 3 1 1 4
M  V30 4 1 1 5
M  V30 5 1 4 6
M  V30 6 2 5 7
M  V30 7 1 5 8
M  V30 8 1 6 9
M  V30 9 2 6 10
M  V30 10 1 7 11
M  V30 11 2 8 12
M  V30 12 1 9 13
M  V30 13 1 10 14
M  V30 14 2 11 15
M  V30 15 1 13 16
M  V30 16 1 14 17
M  V30 17 1 15 18
M  V30 18 1 12 15
M  V30 19 2 13 14
M  V30 20 1 4 19
M  V30 21 1 7 20
M  V30 22 1 8 21
M  V30 23 1 11 22
M  V30 24 1 12 23
M  V30 25 1 16 24
M  V30 26 1 16 25
M  V30 27 1 16 26
M  V30 28 1 17 27
M  V30 29 1 17 28
M  V30 30 1 17 29
M  V30 31 1 18 30
M  V30 32 1 18 31
M  V30 END BOND
M  V30 END CTAB
M  END
>  <NO.>
5863

>  <Name>
sulfamoxole

>  <SMILES>
Cc1nc(NS(=O)(=O)c2ccc(N)cc2)oc1C

>  <logBB>


>  <Class>
-1

>  <MW>
267.07

>  <nHBAcc>
5

>  <nHBDon>
2

>  <SLogP>
1.67

>  <TopoPSA>
98.22

>  <MMFF94 Energy>
-92.492

$$$$
Cc1nc(Nc2ncc(C(=O)Nc3c(C)cccc3Cl)s2)cc(N2CCN(CCO)CC2)n1
Actelion Java MolfileCreator 2.0

  0  0  0  0  0  0              0 V3000
M  V30 BEGIN CTAB
M  V30 COUNTS 59 62 0 0 0
M  V30 BEGIN ATOM
M  V30 1 Cl 3.8754 -6.0604 -1.3712 0
M  V30 2 C 5.0244 -5.2652 -2.392 0
M  V30 3 C 5.0582 -3.8651 -2.5291 0
M  V30 4 C 5.8918 -6.0645 -3.1384 0
M  V30 5 N 4.1824 -3.0378 -1.7948 0
M  V30 6 C 5.9456 -3.2684 -3.4448 0
M  V30 7 C 6.7858 -5.4771 -4.0311 0
M  V30 8 C 4.2992 -2.8751 -0.4205 0
M  V30 9 C 6.8091 -4.0903 -4.1862 0
M  V30 10 C 6.0145 -1.7769 -3.6223 0
M  V30 11 O 5.2172 -3.3797 0.2229 0
M  V30 12 C 3.2799 -2.0301 0.1734 0
M  V30 13 S 3.4918 -1.4081 1.7574 0
M  V30 14 C 2.0624 -1.6009 -0.3109 0
M  V30 15 C 1.9691 -0.5957 1.6638 0
M  V30 16 N 1.3357 -0.7769 0.5255 0
M  V30 17 N 1.5665 0.1381 2.7182 0
M  V30 18 C 0.4056 0.8784 2.921 0
M  V30 19 N 0.3642 1.525 4.0965 0
M  V30 20 C -0.6381 0.9635 2.0206 0
M  V30 21 C -0.7324 2.252 4.3538 0
M  V30 22 C -1.7359 1.7423 2.3441 0
M  V30 23 N -1.7836 2.3726 3.5301 0
M  V30 24 C -0.811 2.943 5.6784 0
M  V30 25 N -2.8252 1.8632 1.4829 0
M  V30 26 C -2.5857 2.0241 0.0416 0
M  V30 27 C -3.9829 2.6081 2.0033 0
M  V30 28 C -3.8859 1.8175 -0.7685 0
M  V30 29 C -5.2382 2.3866 1.128 0
M  V30 30 N -5.0075 2.6688 -0.308 0
M  V30 31 C -6.2077 2.3931 -1.1188 0
M  V30 32 C -7.3473 3.3983 -0.9022 0
M  V30 33 O -8.4152 3.1086 -1.8017 0
M  V30 34 H 5.8701 -7.1461 -3.0333 0
M  V30 35 H 3.5413 -2.4667 -2.325 0
M  V30 36 H 7.4635 -6.1003 -4.6096 0
M  V30 37 H 7.5162 -3.6531 -4.8891 0
M  V30 38 H 6.2958 -1.2952 -2.6802 0
M  V30 39 H 5.0472 -1.3882 -3.9564 0
M  V30 40 H 6.7595 -1.4948 -4.3737 0
M  V30 41 H 1.6347 -1.857 -1.2721 0
M  V30 42 H 2.1705 0.2123 3.5266 0
M  V30 43 H -0.6135 0.4063 1.098 0
M  V30 44 H 0.1879 3.2191 6.0293 0
M  V30 45 H -1.411 3.855 5.6024 0
M  V30 46 H -1.2721 2.2777 6.4141 0
M  V30 47 H -1.8549 1.3044 -0.3395 0
M  V30 48 H -2.1896 3.0298 -0.1493 0
M  V30 49 H -3.7478 3.6799 2.0385 0
M  V30 50 H -4.2356 2.2806 3.0199 0
M  V30 51 H -3.6647 2.0422 -1.8191 0
M  V30 52 H -4.1703 0.7577 -0.7145 0
M  V30 53 H -5.5798 1.3507 1.2577 0
M  V30 54 H -6.0255 3.0409 1.5177 0
M  V30 55 H -6.5795 1.3732 -0.9521 0
M  V30 56 H -5.9437 2.4379 -2.1841 0
M  V30 57 H -7.7447 3.3429 0.1151 0
M  V30 58 H -7.0025 4.4194 -1.0958 0
M  V30 59 H -9.0918 3.7933 -1.6624 0
M  V30 END ATOM
M  V30 BEGIN BOND
M  V30 1 1 1 2
M  V30 2 2 2 3
M  V30 3 1 2 4
M  V30 4 1 3 5
M  V30 5 1 3 6
M  V30 6 2 4 7
M  V30 7 1 5 8
M  V30 8 2 6 9
M  V30 9 1 6 10
M  V30 10 2 8 11
M  V30 11 1 8 12
M  V30 12 1 12 13
M  V30 13 2 12 14
M  V30 14 1 13 15
M  V30 15 1 14 16
M  V30 16 1 15 17
M  V30 17 1 17 18
M  V30 18 2 18 19
M  V30 19 1 18 20
M  V30 20 1 19 21
M  V30 21 2 20 22
M  V30 22 2 21 23
M  V30 23 1 21 24
M  V30 24 1 22 25
M  V30 25 1 25 26
M  V30 26 1 25 27
M  V30 27 1 26 28
M  V30 28 1 27 29
M  V30 29 1 28 30
M  V30 30 1 30 31
M  V30 31 1 31 32
M  V30 32 1 32 33
M  V30 33 1 7 9
M  V30 34 2 15 16
M  V30 35 1 22 23
M  V30 36 1 29 30
M  V30 37 1 4 34
M  V30 38 1 5 35
M  V30 39 1 7 36
M  V30 40 1 9 37
M  V30 41 1 10 38
M  V30 42 1 10 39
M  V30 43 1 10 40
M  V30 44 1 14 41
M  V30 45 1 17 42
M  V30 46 1 20 43
M  V30 47 1 24 44
M  V30 48 1 24 45
M  V30 49 1 24 46
M  V30 50 1 26 47
M  V30 51 1 26 48
M  V30 52 1 27 49
M  V30 53 1 27 50
M  V30 54 1 28 51
M  V30 55 1 28 52
M  V30 56 1 29 53
M  V30 57 1 29 54
M  V30 58 1 31 55
M  V30 59 1 31 56
M  V30 60 1 32 57
M  V30 61 1 32 58
M  V30 62 1 33 59
M  V30 END BOND
M  V30 END CTAB
M  END
>  <NO.>
5864

>  <Name>
dasatinib

>  <SMILES>
Cc1nc(Nc2ncc(C(=O)Nc3c(C)cccc3Cl)s2)cc(N2CCN(CCO)CC2)n1

>  <logBB>


>  <Class>
-1

>  <MW>
487.16

>  <nHBAcc>
9

>  <nHBDon>
3

>  <SLogP>
3.31

>  <TopoPSA>
106.51

>  <MMFF94 Energy>
12.332

$$$$
Cc1nc2ccc(CN(C)c3ccc(C(=O)NC(CCC(=O)O)C(=O)O)s3)cc2c(=O)[nH]1
Actelion Java MolfileCreator 2.0

  0  0  0  0  0  0              0 V3000
M  V30 BEGIN CTAB
M  V30 COUNTS 54 56 0 0 0
M  V30 BEGIN ATOM
M  V30 1 S 2.49 -0.5618 0.5618 0
M  V30 2 C 2.0599 -0.3973 -1.1055 0
M  V30 3 C 1.8108 0.94 1.0122 0
M  V30 4 N 2.3308 -1.3604 -2.0499 0
M  V30 5 C 1.4317 0.8245 -1.2859 0
M  V30 6 C 1.8662 1.3501 2.4092 0
M  V30 7 C 1.2867 1.5862 -0.0874 0
M  V30 8 C 1.8071 -1.2938 -3.4136 0
M  V30 9 C 3.053 -2.5789 -1.6905 0
M  V30 10 O 2.5699 0.815 3.2638 0
M  V30 11 N 1.0391 2.4071 2.74 0
M  V30 12 C 0.5829 -2.1713 -3.5775 0
M  V30 13 C 0.8906 2.8583 4.1256 0 CFG=2
M  V30 14 C -0.642 -1.8068 -3.001 0
M  V30 15 C 0.6547 -3.3725 -4.301 0
M  V30 16 C -0.2896 2.1384 4.7954 0
M  V30 17 C 0.6798 4.3752 4.1432 0
M  V30 18 C -1.7605 -2.6325 -3.1548 0
M  V30 19 C -0.4725 -4.1897 -4.4458 0
M  V30 20 O -0.6025 2.2183 5.9737 0
M  V30 21 O -1.0596 1.4237 3.9458 0
M  V30 22 C 0.9326 4.9961 5.5187 0
M  V30 23 C -3.0605 -2.2722 -2.564 0
M  V30 24 C -1.6919 -3.8275 -3.8735 0
M  V30 25 C 0.8057 6.4944 5.4689 0
M  V30 26 O -3.2322 -1.236 -1.9329 0
M  V30 27 N -4.0755 -3.1708 -2.7749 0
M  V30 28 N -2.7999 -4.6761 -4.0396 0
M  V30 29 O 0.3972 7.1695 4.54 0
M  V30 30 O 1.1938 7.0721 6.6216 0
M  V30 31 C -3.9179 -4.323 -3.4945 0
M  V30 32 C -5.1361 -5.1896 -3.6331 0
M  V30 33 H 1.0757 1.1828 -2.2418 0
M  V30 34 H 0.8257 2.5651 -0.0602 0
M  V30 35 H 1.5611 -0.2746 -3.7315 0
M  V30 36 H 2.5885 -1.6134 -4.1158 0
M  V30 37 H 4.0081 -2.3458 -1.207 0
M  V30 38 H 2.4506 -3.2051 -1.0233 0
M  V30 39 H 3.2943 -3.1804 -2.5741 0
M  V30 40 H 0.3254 2.6844 2.0815 0
M  V30 41 H 1.7956 2.585 4.6791 0
M  V30 42 H -0.7278 -0.8894 -2.4234 0
M  V30 43 H 1.5925 -3.6866 -4.7548 0
M  V30 44 H 1.3596 4.8446 3.419 0
M  V30 45 H -0.337 4.6197 3.8077 0
M  V30 46 H -0.401 -5.1183 -5.0066 0
M  V30 47 H -1.7401 1.0165 4.522 0
M  V30 48 H 0.212 4.6259 6.2534 0
M  V30 49 H 1.9464 4.749 5.8526 0
M  V30 50 H -4.9656 -2.9254 -2.3667 0
M  V30 51 H 1.0562 8.0309 6.4718 0
M  V30 52 H -5.9988 -4.7651 -3.1133 0
M  V30 53 H -5.377 -5.3015 -4.6943 0
M  V30 54 H -4.9206 -6.1795 -3.2204 0
M  V30 END ATOM
M  V30 BEGIN BOND
M  V30 1 1 1 2
M  V30 2 1 1 3
M  V30 3 1 2 4
M  V30 4 2 2 5
M  V30 5 1 3 6
M  V30 6 2 3 7
M  V30 7 1 4 8
M  V30 8 1 4 9
M  V30 9 2 6 10
M  V30 10 1 6 11
M  V30 11 1 8 12
M  V30 12 1 11 13
M  V30 13 2 12 14
M  V30 14 1 12 15
M  V30 15 1 13 16
M  V30 16 1 13 17
M  V30 17 1 14 18
M  V30 18 2 15 19
M  V30 19 2 16 20
M  V30 20 1 16 21
M  V30 21 1 17 22
M  V30 22 1 18 23
M  V30 23 2 18 24
M  V30 24 1 22 25
M  V30 25 2 23 26
M  V30 26 1 23 27
M  V30 27 1 24 28
M  V30 28 2 25 29
M  V30 29 1 25 30
M  V30 30 1 27 31
M  V30 31 1 31 32
M  V30 32 1 5 7
M  V30 33 1 19 24
M  V30 34 2 28 31
M  V30 35 1 5 33
M  V30 36 1 7 34
M  V30 37 1 8 35
M  V30 38 1 8 36
M  V30 39 1 9 37
M  V30 40 1 9 38
M  V30 41 1 9 39
M  V30 42 1 11 40
M  V30 43 1 13 41
M  V30 44 1 14 42
M  V30 45 1 15 43
M  V30 46 1 17 44
M  V30 47 1 17 45
M  V30 48 1 19 46
M  V30 49 1 21 47
M  V30 50 1 22 48
M  V30 51 1 22 49
M  V30 52 1 27 50
M  V30 53 1 30 51
M  V30 54 1 32 52
M  V30 55 1 32 53
M  V30 56 1 32 54
M  V30 END BOND
M  V30 BEGIN COLLECTION
M  V30 MDLV30/STERAC1 ATOMS=(1 13)
M  V30 END COLLECTION
M  V30 END CTAB
M  END
>  <NO.>
5866

>  <Name>
raltitrexed

>  <SMILES>
Cc1nc2ccc(CN(C)c3ccc(C(=O)NC(CCC(=O)O)C(=O)O)s3)cc2c(=O)[nH]1

>  <logBB>


>  <Class>
-1

>  <MW>
458.13

>  <nHBAcc>
7

>  <nHBDon>
4

>  <SLogP>
1.98

>  <TopoPSA>
152.69

>  <MMFF94 Energy>
-52.684

$$$$
Cc1ncc(CO)c(C=O)c1O
Actelion Java MolfileCreator 2.0

  0  0  0  0  0  0              0 V3000
M  V30 BEGIN CTAB
M  V30 COUNTS 21 21 0 0 0
M  V30 BEGIN ATOM
M  V30 1 O 0.1572 0.5503 2.9905 0
M  V30 2 C 0.0517 1.1177 1.905 0
M  V30 3 C -0.013 0.339 0.6471 0
M  V30 4 C 0.0978 -1.0589 0.699 0
M  V30 5 C -0.1901 0.9836 -0.5868 0
M  V30 6 O 0.2658 -1.749 1.8715 0
M  V30 7 C 0.0302 -1.7798 -0.4896 0
M  V30 8 C -0.24 0.1681 -1.7125 0
M  V30 9 C -0.3399 2.4644 -0.7534 0
M  V30 10 N -0.1405 -1.1786 -1.6922 0
M  V30 11 C 0.1435 -3.2758 -0.4921 0
M  V30 12 O 0.8354 3.1049 -0.2863 0
M  V30 13 H -0.0103 2.2144 1.853 0
M  V30 14 H 0.2875 -1.0998 2.6114 0
M  V30 15 H -0.3677 0.5842 -2.7097 0
M  V30 16 H -0.4838 2.7372 -1.8044 0
M  V30 17 H -1.2047 2.8286 -0.1887 0
M  V30 18 H -0.6634 -3.7196 0.0992 0
M  V30 19 H 1.1087 -3.5851 -0.0794 0
M  V30 20 H 0.0706 -3.6689 -1.5114 0
M  V30 21 H 0.7733 4.0426 -0.5397 0
M  V30 END ATOM
M  V30 BEGIN BOND
M  V30 1 2 1 2
M  V30 2 1 2 3
M  V30 3 2 3 4
M  V30 4 1 3 5
M  V30 5 1 4 6
M  V30 6 1 4 7
M  V30 7 2 5 8
M  V30 8 1 5 9
M  V30 9 2 7 10
M  V30 10 1 7 11
M  V30 11 1 9 12
M  V30 12 1 8 10
M  V30 13 1 2 13
M  V30 14 1 6 14
M  V30 15 1 8 15
M  V30 16 1 9 16
M  V30 17 1 9 17
M  V30 18 1 11 18
M  V30 19 1 11 19
M  V30 20 1 11 20
M  V30 21 1 12 21
M  V30 END BOND
M  V30 END CTAB
M  END
>  <NO.>
5867

>  <Name>
pyridoxal

>  <SMILES>
Cc1ncc(CO)c(C=O)c1O

>  <logBB>


>  <Class>
-1

>  <MW>
167.06

>  <nHBAcc>
4

>  <nHBDon>
2

>  <SLogP>
0.4

>  <TopoPSA>
70.42

>  <MMFF94 Energy>
21.878

$$$$
Cc1nccn1CCC(C(N)=O)(c1ccccc1)c1ccccc1
Actelion Java MolfileCreator 2.0

  0  0  0  0  0  0              0 V3000
M  V30 BEGIN CTAB
M  V30 COUNTS 45 47 0 0 0
M  V30 BEGIN ATOM
M  V30 1 O -1.1907 2.3031 0.1587 0
M  V30 2 C -1.225 1.3181 0.8951 0
M  V30 3 N -2.0832 1.3305 1.9604 0
M  V30 4 C -0.3766 0.0182 0.6607 0
M  V30 5 C 0.277 -0.3607 2.0323 0
M  V30 6 C -1.2172 -1.1463 0.0643 0
M  V30 7 C 0.7395 0.3691 -0.3912 0
M  V30 8 C -0.288 -1.3403 2.8766 0
M  V30 9 C 1.4102 0.3249 2.5121 0
M  V30 10 C -0.6127 -2.4036 -0.1588 0
M  V30 11 C -2.5619 -0.9936 -0.3174 0
M  V30 12 C 0.2595 0.5319 -1.843 0
M  V30 13 C 0.2782 -1.6481 4.1168 0
M  V30 14 C 1.9747 0.0163 3.7537 0
M  V30 15 C -1.3289 -3.4639 -0.717 0
M  V30 16 C -3.2759 -2.0574 -0.8774 0
M  V30 17 N 1.3231 1.0319 -2.7016 0
M  V30 18 C 1.4123 -0.9728 4.5531 0
M  V30 19 C -2.6616 -3.2906 -1.0745 0
M  V30 20 C 1.6261 2.3473 -2.9683 0
M  V30 21 C 2.204 0.2489 -3.3974 0
M  V30 22 N 2.6574 2.4241 -3.7876 0
M  V30 23 C 0.8879 3.5023 -2.3961 0
M  V30 24 C 3.0195 1.1323 -4.0605 0
M  V30 25 H -2.6299 2.1656 2.1229 0
M  V30 26 H -2.1356 0.5775 2.6333 0
M  V30 27 H 1.242 1.3007 -0.0994 0
M  V30 28 H 1.5233 -0.4018 -0.3752 0
M  V30 29 H -1.1842 -1.8857 2.5851 0
M  V30 30 H 1.8744 1.1243 1.9391 0
M  V30 31 H 0.43 -2.5695 0.1099 0
M  V30 32 H -3.0845 -0.046 -0.2044 0
M  V30 33 H -0.587 1.2163 -1.9391 0
M  V30 34 H -0.0534 -0.4269 -2.2704 0
M  V30 35 H -0.1701 -2.4161 4.7425 0
M  V30 36 H 2.8538 0.5566 4.0974 0
M  V30 37 H -0.8439 -4.4242 -0.8739 0
M  V30 38 H -4.3151 -1.9184 -1.167 0
M  V30 39 H 1.8534 -1.2111 5.5175 0
M  V30 40 H -3.2203 -4.1139 -1.512 0
M  V30 41 H 2.1793 -0.8308 -3.3648 0
M  V30 42 H -0.1676 3.4717 -2.682 0
M  V30 43 H 0.9615 3.5086 -1.3048 0
M  V30 44 H 1.308 4.4432 -2.7658 0
M  V30 45 H 3.8474 0.9081 -4.7198 0
M  V30 END ATOM
M  V30 BEGIN BOND
M  V30 1 2 1 2
M  V30 2 1 2 3
M  V30 3 1 2 4
M  V30 4 1 4 5
M  V30 5 1 4 6
M  V30 6 1 4 7
M  V30 7 2 5 8
M  V30 8 1 5 9
M  V30 9 2 6 10
M  V30 10 1 6 11
M  V30 11 1 7 12
M  V30 12 1 8 13
M  V30 13 2 9 14
M  V30 14 1 10 15
M  V30 15 2 11 16
M  V30 16 1 12 17
M  V30 17 2 13 18
M  V30 18 2 15 19
M  V30 19 1 17 20
M  V30 20 1 17 21
M  V30 21 2 20 22
M  V30 22 1 20 23
M  V30 23 2 21 24
M  V30 24 1 14 18
M  V30 25 1 16 19
M  V30 26 1 22 24
M  V30 27 1 3 25
M  V30 28 1 3 26
M  V30 29 1 7 27
M  V30 30 1 7 28
M  V30 31 1 8 29
M  V30 32 1 9 30
M  V30 33 1 10 31
M  V30 34 1 11 32
M  V30 35 1 12 33
M  V30 36 1 12 34
M  V30 37 1 13 35
M  V30 38 1 14 36
M  V30 39 1 15 37
M  V30 40 1 16 38
M  V30 41 1 18 39
M  V30 42 1 19 40
M  V30 43 1 21 41
M  V30 44 1 23 42
M  V30 45 1 23 43
M  V30 46 1 23 44
M  V30 47 1 24 45
M  V30 END BOND
M  V30 END CTAB
M  END
>  <NO.>
5868

>  <Name>
imidafenacin

>  <SMILES>
Cc1nccn1CCC(C(N)=O)(c1ccccc1)c1ccccc1

>  <logBB>


>  <Class>
-1

>  <MW>
319.17

>  <nHBAcc>
2

>  <nHBDon>
1

>  <SLogP>
3.05

>  <TopoPSA>
60.91

>  <MMFF94 Energy>
67.645

$$$$
Cc1oc(=O)oc1CN1CCN(c2cc3c(cc2F)c(=O)c(C(=O)O)c2n3C(C)S2)CC1
Actelion Java MolfileCreator 2.0

  0  0  0  0  0  0              0 V3000
M  V30 BEGIN CTAB
M  V30 COUNTS 52 56 0 0 0
M  V30 BEGIN ATOM
M  V30 1 S -2.0448 -5.8976 0.7357 0
M  V30 2 C -2.6431 -4.721 -0.3766 0
M  V30 3 C -0.9303 -4.4624 0.8003 0 CFG=2
M  V30 4 N -1.7658 -3.7909 -0.1303 0
M  V30 5 C -3.6815 -4.6443 -1.2227 0
M  V30 6 C 0.4539 -4.766 0.2558 0
M  V30 7 C -1.8186 -2.5075 -0.6884 0
M  V30 8 C -3.8278 -3.3415 -1.9289 0
M  V30 9 C -4.6199 -5.7483 -1.3617 0
M  V30 10 C -2.8538 -2.2493 -1.6084 0
M  V30 11 C -0.9094 -1.4907 -0.3731 0
M  V30 12 O -4.6993 -3.1512 -2.7702 0
M  V30 13 O -5.8329 -5.6737 -1.2768 0
M  V30 14 O -4.0188 -6.9213 -1.6353 0
M  V30 15 C -2.9695 -1.0002 -2.208 0
M  V30 16 C -0.9912 -0.2171 -0.9671 0
M  V30 17 C -2.0477 -0.0078 -1.8832 0
M  V30 18 N -0.0859 0.7939 -0.6534 0
M  V30 19 F -2.2195 1.1987 -2.4483 0
M  V30 20 C 0.6579 0.79 0.6148 0
M  V30 21 C 0.6073 1.4747 -1.7641 0
M  V30 22 C 1.1413 2.2142 0.9775 0
M  V30 23 C 1.0921 2.8773 -1.3339 0
M  V30 24 N 1.9226 2.8533 -0.1062 0
M  V30 25 C 2.3353 4.2197 0.2502 0
M  V30 26 C 3.3896 4.2524 1.312 0
M  V30 27 O 4.6039 3.6453 1.0373 0
M  V30 28 C 3.3868 4.7919 2.5136 0
M  V30 29 C 5.3009 3.8689 2.2115 0
M  V30 30 O 4.5894 4.5846 3.1625 0
M  V30 31 C 2.336 5.5409 3.246 0
M  V30 32 O 6.4455 3.4741 2.3958 0
M  V30 33 H -0.9089 -3.9608 1.775 0
M  V30 34 H 0.988 -5.4531 0.9215 0
M  V30 35 H 0.4269 -5.2176 -0.7428 0
M  V30 36 H 1.0553 -3.8532 0.1895 0
M  V30 37 H -0.1126 -1.704 0.3318 0
M  V30 38 H -4.764 -7.5532 -1.7141 0
M  V30 39 H -3.7672 -0.7831 -2.9122 0
M  V30 40 H 0.0212 0.4373 1.4356 0
M  V30 41 H 1.5199 0.1155 0.5368 0
M  V30 42 H 1.4684 0.8656 -2.0688 0
M  V30 43 H -0.0243 1.5947 -2.6493 0
M  V30 44 H 1.7509 2.1327 1.8848 0
M  V30 45 H 0.2669 2.8314 1.2256 0
M  V30 46 H 0.2169 3.5245 -1.1851 0
M  V30 47 H 1.6754 3.2999 -2.1611 0
M  V30 48 H 1.4664 4.8255 0.5346 0
M  V30 49 H 2.77 4.7068 -0.6329 0
M  V30 50 H 2.0964 5.034 4.1861 0
M  V30 51 H 1.411 5.6292 2.6696 0
M  V30 52 H 2.6851 6.5516 3.4799 0
M  V30 END ATOM
M  V30 BEGIN BOND
M  V30 1 1 1 2
M  V30 2 1 1 3
M  V30 3 1 2 4
M  V30 4 2 2 5
M  V30 5 1 3 6
M  V30 6 1 4 7
M  V30 7 1 5 8
M  V30 8 1 5 9
M  V30 9 2 7 10
M  V30 10 1 7 11
M  V30 11 2 8 12
M  V30 12 2 9 13
M  V30 13 1 9 14
M  V30 14 1 10 15
M  V30 15 2 11 16
M  V30 16 2 15 17
M  V30 17 1 16 18
M  V30 18 1 17 19
M  V30 19 1 18 20
M  V30 20 1 18 21
M  V30 21 1 20 22
M  V30 22 1 21 23
M  V30 23 1 22 24
M  V30 24 1 24 25
M  V30 25 1 25 26
M  V30 26 1 26 27
M  V30 27 2 26 28
M  V30 28 1 27 29
M  V30 29 1 28 30
M  V30 30 1 28 31
M  V30 31 2 29 32
M  V30 32 1 3 4
M  V30 33 1 8 10
M  V30 34 1 16 17
M  V30 35 1 23 24
M  V30 36 1 29 30
M  V30 37 1 3 33
M  V30 38 1 6 34
M  V30 39 1 6 35
M  V30 40 1 6 36
M  V30 41 1 11 37
M  V30 42 1 14 38
M  V30 43 1 15 39
M  V30 44 1 20 40
M  V30 45 1 20 41
M  V30 46 1 21 42
M  V30 47 1 21 43
M  V30 48 1 22 44
M  V30 49 1 22 45
M  V30 50 1 23 46
M  V30 51 1 23 47
M  V30 52 1 25 48
M  V30 53 1 25 49
M  V30 54 1 31 50
M  V30 55 1 31 51
M  V30 56 1 31 52
M  V30 END BOND
M  V30 BEGIN COLLECTION
M  V30 MDLV30/STERAC1 ATOMS=(1 3)
M  V30 END COLLECTION
M  V30 END CTAB
M  END
>  <NO.>
5870

>  <Name>
prulifloxacin

>  <SMILES>
Cc1oc(=O)oc1CN1CCN(c2cc3c(cc2F)c(=O)c(C(=O)O)c2n3C(C)S2)CC1

>  <logBB>


>  <Class>
-1

>  <MW>
461.11

>  <nHBAcc>
8

>  <nHBDon>
1

>  <SLogP>
2.64

>  <TopoPSA>
109.13

>  <MMFF94 Energy>
125.34

$$$$
Clc1cc(Cl)c(OCC#CI)cc1Cl
Actelion Java MolfileCreator 2.0

  0  0  0  0  0  0              0 V3000
M  V30 BEGIN CTAB
M  V30 COUNTS 18 18 0 0 0
M  V30 BEGIN ATOM
M  V30 1 I -4.0776 0.2655 5.1433 0
M  V30 2 C -2.6906 0.555 3.6154 0
M  V30 3 C -1.8918 0.7205 2.7348 0
M  V30 4 C -0.9163 0.9217 1.6588 0
M  V30 5 O -0.848 -0.2651 0.8713 0
M  V30 6 C 0.0102 -0.291 -0.1956 0
M  V30 7 C 0.0465 -1.4798 -0.9448 0
M  V30 8 C 0.8362 0.7708 -0.5781 0
M  V30 9 Cl -0.9465 -2.834 -0.5309 0
M  V30 10 C 0.8892 -1.6056 -2.052 0
M  V30 11 C 1.6829 0.6472 -1.6888 0
M  V30 12 C 1.7092 -0.5413 -2.4257 0
M  V30 13 Cl 2.6714 2.0066 -2.094 0
M  V30 14 Cl 2.7292 -0.7559 -3.8028 0
M  V30 15 H -1.2356 1.7663 1.0369 0
M  V30 16 H 0.0646 1.1371 2.0982 0
M  V30 17 H 0.8447 1.7092 -0.0322 0
M  V30 18 H 0.9043 -2.5327 -2.6202 0
M  V30 END ATOM
M  V30 BEGIN BOND
M  V30 1 1 1 2
M  V30 2 3 2 3
M  V30 3 1 3 4
M  V30 4 1 4 5
M  V30 5 1 5 6
M  V30 6 2 6 7
M  V30 7 1 6 8
M  V30 8 1 7 9
M  V30 9 1 7 10
M  V30 10 2 8 11
M  V30 11 2 10 12
M  V30 12 1 11 13
M  V30 13 1 12 14
M  V30 14 1 11 12
M  V30 15 1 4 15
M  V30 16 1 4 16
M  V30 17 1 8 17
M  V30 18 1 10 18
M  V30 END BOND
M  V30 END CTAB
M  END
>  <NO.>
5871

>  <Name>
haloprogin

>  <SMILES>
Clc1cc(Cl)c(OCC#CI)cc1Cl

>  <logBB>


>  <Class>
-1

>  <MW>
359.84

>  <nHBAcc>
1

>  <nHBDon>
0

>  <SLogP>
4.42

>  <TopoPSA>
9.23

>  <MMFF94 Energy>
29.592

$$$$
Clc1cc(Cl)c2c(c1)CCc1ccccc1C2n1ccnc1
Actelion Java MolfileCreator 2.0

  0  0  0  0  0  0              0 V3000
M  V30 BEGIN CTAB
M  V30 COUNTS 36 39 0 0 0
M  V30 BEGIN ATOM
M  V30 1 Cl 2.5573 0.4121 -2.7225 0
M  V30 2 C 1.5855 -0.8649 -2.0728 0
M  V30 3 C 0.5952 -0.6467 -1.0884 0
M  V30 4 C 1.8328 -2.1432 -2.5833 0
M  V30 5 C -0.1321 -1.7662 -0.6206 0
M  V30 6 C 0.2945 0.752 -0.5468 0 CFG=1
M  V30 7 C 1.0991 -3.2254 -2.1202 0
M  V30 8 C 0.1245 -3.045 -1.1453 0
M  V30 9 C -1.1636 -1.6223 0.4693 0
M  V30 10 N -1.0401 1.2405 -0.9627 0
M  V30 11 C 0.5825 0.9402 0.9447 0
M  V30 12 Cl 1.402 -4.7979 -2.7473 0
M  V30 13 C -0.5252 -1.2691 1.8077 0
M  V30 14 C -1.9822 1.8694 -0.1923 0
M  V30 15 C -1.5229 1.2356 -2.2511 0
M  V30 16 C 0.1913 0.0564 1.9742 0
M  V30 17 C 1.2712 2.1269 1.304 0
M  V30 18 N -3.0409 2.207 -0.8949 0
M  V30 19 C -2.7641 1.8203 -2.1773 0
M  V30 20 C 0.5216 0.3856 3.3095 0
M  V30 21 C 1.5766 2.4312 2.6291 0
M  V30 22 C 1.2017 1.557 3.635 0
M  V30 23 H 2.5969 -2.2926 -3.3422 0
M  V30 24 H 0.9441 1.4658 -1.0648 0
M  V30 25 H -0.4343 -3.9071 -0.7854 0
M  V30 26 H -1.6997 -2.5731 0.5908 0
M  V30 27 H -1.9367 -0.9046 0.1848 0
M  V30 28 H -1.3291 -1.3046 2.5561 0
M  V30 29 H 0.1896 -2.0599 2.075 0
M  V30 30 H -1.8626 2.0549 0.8678 0
M  V30 31 H -0.9672 0.8279 -3.0837 0
M  V30 32 H 1.5771 2.8404 0.5385 0
M  V30 33 H -3.4685 1.9905 -2.9813 0
M  V30 34 H 0.2429 -0.2884 4.1195 0
M  V30 35 H 2.1055 3.3494 2.8714 0
M  V30 36 H 1.4368 1.7815 4.6721 0
M  V30 END ATOM
M  V30 BEGIN BOND
M  V30 1 1 1 2
M  V30 2 2 2 3
M  V30 3 1 2 4
M  V30 4 1 3 5
M  V30 5 1 3 6
M  V30 6 2 4 7
M  V30 7 2 5 8
M  V30 8 1 5 9
M  V30 9 1 6 10
M  V30 10 1 6 11
M  V30 11 1 7 12
M  V30 12 1 9 13
M  V30 13 1 10 14
M  V30 14 1 10 15
M  V30 15 2 11 16
M  V30 16 1 11 17
M  V30 17 2 14 18
M  V30 18 2 15 19
M  V30 19 1 16 20
M  V30 20 2 17 21
M  V30 21 2 20 22
M  V30 22 1 7 8
M  V30 23 1 13 16
M  V30 24 1 18 19
M  V30 25 1 21 22
M  V30 26 1 4 23
M  V30 27 1 6 24
M  V30 28 1 8 25
M  V30 29 1 9 26
M  V30 30 1 9 27
M  V30 31 1 13 28
M  V30 32 1 13 29
M  V30 33 1 14 30
M  V30 34 1 15 31
M  V30 35 1 17 32
M  V30 36 1 19 33
M  V30 37 1 20 34
M  V30 38 1 21 35
M  V30 39 1 22 36
M  V30 END BOND
M  V30 BEGIN COLLECTION
M  V30 MDLV30/STERAC1 ATOMS=(1 6)
M  V30 END COLLECTION
M  V30 END CTAB
M  END
>  <NO.>
5872

>  <Name>
eberconazole

>  <SMILES>
Clc1cc(Cl)c2c(c1)CCc1ccccc1C2n1ccnc1

>  <logBB>


>  <Class>
-1

>  <MW>
328.05

>  <nHBAcc>
1

>  <nHBDon>
0

>  <SLogP>
4.93

>  <TopoPSA>
17.82

>  <MMFF94 Energy>
75.871

$$$$
Clc1ccc2nsnc2c1NC1=NCCN1
Actelion Java MolfileCreator 2.0

  0  0  0  0  0  0              0 V3000
M  V30 BEGIN CTAB
M  V30 COUNTS 24 26 0 0 0
M  V30 BEGIN ATOM
M  V30 1 Cl -1.5061 -3.014 -1.1713 0
M  V30 2 C -0.4958 -1.7181 -1.7481 0
M  V30 3 C 0.1585 -0.8798 -0.8034 0
M  V30 4 C -0.3883 -1.5847 -3.1562 0
M  V30 5 N -0.0584 -1.039 0.5775 0
M  V30 6 C 0.9886 0.1249 -1.3967 0
M  V30 7 C 0.3913 -0.5949 -3.7712 0
M  V30 8 C -0.3199 -0.0307 1.4424 0
M  V30 9 N 1.7871 0.996 -0.7517 0
M  V30 10 C 1.0946 0.2664 -2.8995 0
M  V30 11 N -0.7075 1.1835 1.1754 0
M  V30 12 N -0.1933 -0.3517 2.7533 0
M  V30 13 S 2.494 1.9546 -1.9003 0
M  V30 14 N 1.9089 1.2591 -3.2888 0
M  V30 15 C -0.871 1.8314 2.5062 0
M  V30 16 C -0.3967 0.8217 3.5576 0
M  V30 17 H -0.9386 -2.2748 -3.7963 0
M  V30 18 H -0.1738 -1.9865 0.9022 0
M  V30 19 H 0.4637 -0.4974 -4.8477 0
M  V30 20 H 0.4033 -1.1004 3.0681 0
M  V30 21 H -1.9257 2.0867 2.6555 0
M  V30 22 H -0.2833 2.7539 2.5505 0
M  V30 23 H 0.5408 1.1434 4.0212 0
M  V30 24 H -1.1481 0.6584 4.3353 0
M  V30 END ATOM
M  V30 BEGIN BOND
M  V30 1 1 1 2
M  V30 2 2 2 3
M  V30 3 1 2 4
M  V30 4 1 3 5
M  V30 5 1 3 6
M  V30 6 2 4 7
M  V30 7 1 5 8
M  V30 8 2 6 9
M  V30 9 1 6 10
M  V30 10 2 8 11
M  V30 11 1 8 12
M  V30 12 1 9 13
M  V30 13 2 10 14
M  V30 14 1 11 15
M  V30 15 1 12 16
M  V30 16 1 7 10
M  V30 17 1 13 14
M  V30 18 1 15 16
M  V30 19 1 4 17
M  V30 20 1 5 18
M  V30 21 1 7 19
M  V30 22 1 12 20
M  V30 23 1 15 21
M  V30 24 1 15 22
M  V30 25 1 16 23
M  V30 26 1 16 24
M  V30 END BOND
M  V30 END CTAB
M  END
>  <NO.>
5877

>  <Name>
tizanidine

>  <SMILES>
Clc1ccc2nsnc2c1NC1=NCCN1

>  <logBB>


>  <Class>
1

>  <MW>
253.02

>  <nHBAcc>
6

>  <nHBDon>
2

>  <SLogP>
1.72

>  <TopoPSA>
62.2

>  <MMFF94 Energy>
-7.7184

$$$$
Cn1c(=O)cc(N2CCCC(N)C2)n(Cc2ccccc2C#N)c1=O
Actelion Java MolfileCreator 2.0

  0  0  0  0  0  0              0 V3000
M  V30 BEGIN CTAB
M  V30 COUNTS 46 48 0 0 0
M  V30 BEGIN ATOM
M  V30 1 O -3.1019 -0.3178 2.465 0
M  V30 2 C -2.4973 -0.8236 1.5157 0
M  V30 3 N -1.1878 -0.4695 1.1931 0
M  V30 4 N -3.1048 -1.7634 0.6971 0
M  V30 5 C -0.4985 -1.0144 0.1185 0
M  V30 6 C -0.5451 0.5539 2.03 0
M  V30 7 C -2.5111 -2.3027 -0.4179 0
M  V30 8 C -4.4648 -2.1491 1.0194 0
M  V30 9 N 0.8279 -0.6785 -0.1544 0
M  V30 10 C -1.1281 -1.894 -0.6713 0
M  V30 11 C -0.4997 1.9332 1.3867 0
M  V30 12 O -3.0486 -3.0848 -1.198 0
M  V30 13 C 1.2122 0.0937 -1.3461 0
M  V30 14 C 1.9444 -1.3561 0.5196 0
M  V30 15 C 0.679 2.7044 1.3459 0
M  V30 16 C -1.6794 2.4924 0.8583 0
M  V30 17 C 1.9455 -0.8007 -2.3749 0 CFG=1
M  V30 18 C 2.6486 -2.293 -0.4589 0
M  V30 19 C 1.9169 2.2326 1.899 0
M  V30 20 C 0.6688 3.9788 0.7556 0
M  V30 21 C -1.68 3.7602 0.274 0
M  V30 22 N 2.4469 -0.0456 -3.5293 0
M  V30 23 C 3.1146 -1.5399 -1.7065 0
M  V30 24 N 2.9214 1.8533 2.34 0
M  V30 25 C -0.5056 4.5022 0.2179 0
M  V30 26 H -1.0767 0.6619 2.9834 0
M  V30 27 H 0.4476 0.1862 2.3051 0
M  V30 28 H -4.8209 -2.9767 0.4009 0
M  V30 29 H -4.5199 -2.4417 2.0731 0
M  V30 30 H -5.1178 -1.283 0.8695 0
M  V30 31 H -0.6492 -2.3599 -1.5216 0
M  V30 32 H 1.8687 0.9155 -1.0336 0
M  V30 33 H 0.3315 0.5564 -1.8094 0
M  V30 34 H 2.6527 -0.6082 0.8911 0
M  V30 35 H 1.5917 -1.9248 1.3881 0
M  V30 36 H -2.6181 1.9429 0.9051 0
M  V30 37 H 1.2405 -1.5498 -2.7543 0
M  V30 38 H 3.5093 -2.7606 0.032 0
M  V30 39 H 1.9678 -3.1002 -0.7556 0
M  V30 40 H 1.5787 4.576 0.7192 0
M  V30 41 H -2.6034 4.1693 -0.1297 0
M  V30 42 H 3.1184 0.6581 -3.2237 0
M  V30 43 H 1.6804 0.4609 -3.9714 0
M  V30 44 H 3.9 -0.8275 -1.4212 0
M  V30 45 H 3.5668 -2.2493 -2.4102 0
M  V30 46 H -0.5073 5.4916 -0.2328 0
M  V30 END ATOM
M  V30 BEGIN BOND
M  V30 1 2 1 2
M  V30 2 1 2 3
M  V30 3 1 2 4
M  V30 4 1 3 5
M  V30 5 1 3 6
M  V30 6 1 4 7
M  V30 7 1 4 8
M  V30 8 1 5 9
M  V30 9 2 5 10
M  V30 10 1 6 11
M  V30 11 2 7 12
M  V30 12 1 9 13
M  V30 13 1 9 14
M  V30 14 2 11 15
M  V30 15 1 11 16
M  V30 16 1 13 17
M  V30 17 1 14 18
M  V30 18 1 15 19
M  V30 19 1 15 20
M  V30 20 2 16 21
M  V30 21 1 17 22
M  V30 22 1 17 23
M  V30 23 3 19 24
M  V30 24 2 20 25
M  V30 25 1 7 10
M  V30 26 1 18 23
M  V30 27 1 21 25
M  V30 28 1 6 26
M  V30 29 1 6 27
M  V30 30 1 8 28
M  V30 31 1 8 29
M  V30 32 1 8 30
M  V30 33 1 10 31
M  V30 34 1 13 32
M  V30 35 1 13 33
M  V30 36 1 14 34
M  V30 37 1 14 35
M  V30 38 1 16 36
M  V30 39 1 17 37
M  V30 40 1 18 38
M  V30 41 1 18 39
M  V30 42 1 20 40
M  V30 43 1 21 41
M  V30 44 1 22 42
M  V30 45 1 22 43
M  V30 46 1 23 44
M  V30 47 1 23 45
M  V30 48 1 25 46
M  V30 END BOND
M  V30 BEGIN COLLECTION
M  V30 MDLV30/STERAC1 ATOMS=(1 17)
M  V30 END COLLECTION
M  V30 END CTAB
M  END
>  <NO.>
5878

>  <Name>
1108732-05-3

>  <SMILES>
Cn1c(=O)cc(N2CCCC(N)C2)n(Cc2ccccc2C#N)c1=O

>  <logBB>


>  <Class>
-1

>  <MW>
339.17

>  <nHBAcc>
5

>  <nHBDon>
1

>  <SLogP>
0.39

>  <TopoPSA>
97.05

>  <MMFF94 Energy>
-43.164

$$$$
Cn1c(NCCN(CCO)CCCc2ccc([N+](=O)[O-])cc2)cc(=O)n(C)c1=O
Actelion Java MolfileCreator 2.0

  0  0  0  0  0  0              0 V3000
M  V30 BEGIN CTAB
M  V30 COUNTS 56 57 0 0 0
M  V30 BEGIN ATOM
M  V30 1 O 2.758 -7.0249 2.4425 0
M  V30 2 N 2.5659 -6.1375 3.2864 0 CHG=1
M  V30 3 O 2.0707 -6.3288 4.4066 0 CHG=-1
M  V30 4 C 2.9507 -4.7651 2.935 0
M  V30 5 C 3.5059 -4.5001 1.6774 0
M  V30 6 C 2.7607 -3.7321 3.8611 0
M  V30 7 C 3.8712 -3.1924 1.3489 0
M  V30 8 C 3.1294 -2.4277 3.523 0
M  V30 9 C 3.6852 -2.1468 2.266 0
M  V30 10 C 4.0767 -0.7338 1.9021 0
M  V30 11 C 3.1657 -0.0921 0.8483 0
M  V30 12 C 1.7351 0.1331 1.3634 0
M  V30 13 N 0.9192 0.9003 0.4062 0
M  V30 14 C -0.2286 1.5366 1.0954 0
M  V30 15 C 0.4747 0.0794 -0.7437 0
M  V30 16 C 0.0249 3.041 1.2726 0
M  V30 17 C 0.2696 0.9057 -2.0352 0
M  V30 18 O -0.0669 3.7225 0.0185 0
M  V30 19 N -0.9126 1.7505 -1.9838 0
M  V30 20 C -2.2164 1.4775 -2.3625 0
M  V30 21 N -3.2195 2.4331 -2.2344 0
M  V30 22 C -2.5538 0.2783 -2.857 0
M  V30 23 C -4.5549 2.202 -2.5708 0
M  V30 24 C -2.8926 3.7571 -1.7163 0
M  V30 25 C -3.9268 -0.0444 -3.254 0
M  V30 26 O -5.4343 3.0552 -2.4191 0
M  V30 27 N -4.8553 0.951 -3.0859 0
M  V30 28 O -4.1626 -1.1664 -3.6974 0
M  V30 29 C -6.2343 0.6955 -3.453 0
M  V30 30 H 3.6612 -5.293 0.9487 0
M  V30 31 H 2.3319 -3.9241 4.8427 0
M  V30 32 H 4.3064 -2.9931 0.3709 0
M  V30 33 H 2.9796 -1.6308 4.2496 0
M  V30 34 H 5.1069 -0.7515 1.5236 0
M  V30 35 H 4.1021 -0.1049 2.8011 0
M  V30 36 H 3.5999 0.877 0.5703 0
M  V30 37 H 3.1655 -0.7065 -0.0583 0
M  V30 38 H 1.2449 -0.817 1.6085 0
M  V30 39 H 1.8226 0.7 2.3001 0
M  V30 40 H -0.4006 1.0791 2.0782 0
M  V30 41 H -1.1656 1.4035 0.5448 0
M  V30 42 H -0.4247 -0.498 -0.494 0
M  V30 43 H 1.2431 -0.6608 -0.9916 0
M  V30 44 H -0.7316 3.4695 1.9376 0
M  V30 45 H 1.0129 3.2263 1.7083 0
M  V30 46 H 1.1457 1.547 -2.1933 0
M  V30 47 H 0.2348 0.2372 -2.9026 0
M  V30 48 H 0.3587 4.5884 0.1479 0
M  V30 49 H -0.7604 2.5992 -1.4314 0
M  V30 50 H -1.8475 -0.5284 -2.9893 0
M  V30 51 H -2.0436 4.1742 -2.2673 0
M  V30 52 H -3.7232 4.4616 -1.8159 0
M  V30 53 H -2.6546 3.6687 -0.6522 0
M  V30 54 H -6.5542 1.4449 -4.1847 0
M  V30 55 H -6.3769 -0.3012 -3.8777 0
M  V30 56 H -6.8625 0.7979 -2.5618 0
M  V30 END ATOM
M  V30 BEGIN BOND
M  V30 1 2 1 2
M  V30 2 1 2 3
M  V30 3 1 2 4
M  V30 4 2 4 5
M  V30 5 1 4 6
M  V30 6 1 5 7
M  V30 7 2 6 8
M  V30 8 2 7 9
M  V30 9 1 9 10
M  V30 10 1 10 11
M  V30 11 1 11 12
M  V30 12 1 12 13
M  V30 13 1 13 14
M  V30 14 1 13 15
M  V30 15 1 14 16
M  V30 16 1 15 17
M  V30 17 1 16 18
M  V30 18 1 17 19
M  V30 19 1 19 20
M  V30 20 1 20 21
M  V30 21 2 20 22
M  V30 22 1 21 23
M  V30 23 1 21 24
M  V30 24 1 22 25
M  V30 25 2 23 26
M  V30 26 1 23 27
M  V30 27 2 25 28
M  V30 28 1 27 29
M  V30 29 1 8 9
M  V30 30 1 25 27
M  V30 31 1 5 30
M  V30 32 1 6 31
M  V30 33 1 7 32
M  V30 34 1 8 33
M  V30 35 1 10 34
M  V30 36 1 10 35
M  V30 37 1 11 36
M  V30 38 1 11 37
M  V30 39 1 12 38
M  V30 40 1 12 39
M  V30 41 1 14 40
M  V30 42 1 14 41
M  V30 43 1 15 42
M  V30 44 1 15 43
M  V30 45 1 16 44
M  V30 46 1 16 45
M  V30 47 1 17 46
M  V30 48 1 17 47
M  V30 49 1 18 48
M  V30 50 1 19 49
M  V30 51 1 22 50
M  V30 52 1 24 51
M  V30 53 1 24 52
M  V30 54 1 24 53
M  V30 55 1 29 54
M  V30 56 1 29 55
M  V30 57 1 29 56
M  V30 END BOND
M  V30 END CTAB
M  END
>  <NO.>
5879

>  <Name>
nifekalant

>  <SMILES>
Cn1c(NCCN(CCO)CCCc2ccc([N+](=O)[O-])cc2)cc(=O)n(C)c1=O

>  <logBB>


>  <Class>
-1

>  <MW>
405.2

>  <nHBAcc>
7

>  <nHBDon>
2

>  <SLogP>
0.33

>  <TopoPSA>
122.64

>  <MMFF94 Energy>
-3.4496

$$$$
Cn1ncnc1[C@H]1c2n[nH]c(=O)c3cc(F)cc(c23)N[C@@H]1c1ccc(F)cc1
Actelion Java MolfileCreator 2.0

  0  0  0  0  0  0              0 V3000
M  V30 BEGIN CTAB
M  V30 COUNTS 42 46 0 0 0
M  V30 BEGIN ATOM
M  V30 1 F -5.5429 -2.0351 -1.5464 0
M  V30 2 C -4.3167 -1.4976 -1.5538 0
M  V30 3 C -3.5607 -1.507 -0.3818 0
M  V30 4 C -3.8248 -0.9359 -2.7225 0
M  V30 5 C -2.2718 -0.9655 -0.3653 0
M  V30 6 C -2.5531 -0.3645 -2.7044 0
M  V30 7 N -1.5336 -0.9632 0.8052 0
M  V30 8 C -1.7905 -0.38 -1.5402 0
M  V30 9 C -2.0032 0.2889 -3.8988 0
M  V30 10 C -0.0809 -0.7995 0.7129 0 CFG=2
M  V30 11 C -0.4794 0.2913 -1.5548 0
M  V30 12 O -2.6216 0.3033 -4.956 0
M  V30 13 N -0.7746 0.8852 -3.7469 0
M  V30 14 C 0.4565 -0.556 2.1218 0
M  V30 15 C 0.3173 0.3397 -0.25 0 CFG=2
M  V30 16 N -0.0294 0.9144 -2.6073 0
M  V30 17 C -0.1184 0.4096 2.9698 0
M  V30 18 C 1.5655 -1.2858 2.5835 0
M  V30 19 C 1.7845 0.2646 -0.5716 0
M  V30 20 C 0.3982 0.6301 4.2474 0
M  V30 21 C 2.0814 -1.0612 3.861 0
M  V30 22 N 2.5088 -0.8304 -0.7184 0
M  V30 23 N 2.5994 1.3537 -0.7464 0
M  V30 24 C 1.4926 -0.1073 4.6808 0
M  V30 25 C 3.7602 -0.3515 -0.9754 0
M  V30 26 N 3.8693 0.9763 -0.9801 0
M  V30 27 C 2.263 2.7519 -0.6739 0
M  V30 28 F 1.9881 0.107 5.9065 0
M  V30 29 H -3.9923 -1.9519 0.5102 0
M  V30 30 H -4.4331 -0.9321 -3.6222 0
M  V30 31 H -1.8787 -1.4903 1.6023 0
M  V30 32 H 0.313 -1.7583 0.3472 0
M  V30 33 H -0.3774 1.3442 -4.5617 0
M  V30 34 H 0.0839 1.311 0.2065 0
M  V30 35 H -0.9775 0.9908 2.6395 0
M  V30 36 H 2.044 -2.0257 1.943 0
M  V30 37 H -0.0444 1.3702 4.9065 0
M  V30 38 H 2.9405 -1.6206 4.2177 0
M  V30 39 H 4.6162 -0.9883 -1.1572 0
M  V30 40 H 1.3953 2.9444 -1.3078 0
M  V30 41 H 2.0403 2.9967 0.3674 0
M  V30 42 H 3.1088 3.3495 -1.0239 0
M  V30 END ATOM
M  V30 BEGIN BOND
M  V30 1 1 1 2
M  V30 2 2 2 3
M  V30 3 1 2 4
M  V30 4 1 3 5
M  V30 5 2 4 6
M  V30 6 1 5 7
M  V30 7 2 5 8
M  V30 8 1 6 9
M  V30 9 1 7 10
M  V30 10 1 8 11
M  V30 11 2 9 12
M  V30 12 1 9 13
M  V30 13 1 10 14
M  V30 14 1 10 15
M  V30 15 2 11 16
M  V30 16 2 14 17
M  V30 17 1 14 18
M  V30 18 1 15 19
M  V30 19 1 17 20
M  V30 20 2 18 21
M  V30 21 2 19 22
M  V30 22 1 19 23
M  V30 23 2 20 24
M  V30 24 1 22 25
M  V30 25 1 23 26
M  V30 26 1 23 27
M  V30 27 1 24 28
M  V30 28 1 6 8
M  V30 29 1 11 15
M  V30 30 1 13 16
M  V30 31 1 21 24
M  V30 32 2 25 26
M  V30 33 1 3 29
M  V30 34 1 4 30
M  V30 35 1 7 31
M  V30 36 1 10 32
M  V30 37 1 13 33
M  V30 38 1 15 34
M  V30 39 1 17 35
M  V30 40 1 18 36
M  V30 41 1 20 37
M  V30 42 1 21 38
M  V30 43 1 25 39
M  V30 44 1 27 40
M  V30 45 1 27 41
M  V30 46 1 27 42
M  V30 END BOND
M  V30 BEGIN COLLECTION
M  V30 MDLV30/STEABS ATOMS=(2 10 15)
M  V30 END COLLECTION
M  V30 END CTAB
M  END
>  <NO.>
5880

>  <Name>
talazoparib

>  <SMILES>
Cn1ncnc1[C@H]1c2n[nH]c(=O)c3cc(F)cc(c23)N[C@@H]1c1ccc(F)cc1

>  <logBB>


>  <Class>
-1

>  <MW>
380.12

>  <nHBAcc>
5

>  <nHBDon>
2

>  <SLogP>
2.63

>  <TopoPSA>
88.49

>  <MMFF94 Energy>
89.103

$$$$
FC(F)(F)C(F)(F)C(F)(F)F
Actelion Java MolfileCreator 2.0

  0  0  0  0  0  0              0 V3000
M  V30 BEGIN CTAB
M  V30 COUNTS 11 10 0 0 0
M  V30 BEGIN ATOM
M  V30 1 F 0.7805 1.3879 -1.1275 0
M  V30 2 C -0.3027 0.579 -1.065 0
M  V30 3 F -0.1029 -0.422 -1.9534 0
M  V30 4 F -1.3537 1.303 -1.5275 0
M  V30 5 C -0.5624 0.0696 0.329 0
M  V30 6 F -0.8007 1.1045 1.187 0
M  V30 7 F -1.6848 -0.7068 0.3604 0
M  V30 8 C 0.646 -0.7183 0.7634 0
M  V30 9 F 0.8893 -1.779 -0.0411 0
M  V30 10 F 1.7727 0.031 0.7849 0
M  V30 11 F 0.4859 -1.2124 2.0175 0
M  V30 END ATOM
M  V30 BEGIN BOND
M  V30 1 1 1 2
M  V30 2 1 2 3
M  V30 3 1 2 4
M  V30 4 1 2 5
M  V30 5 1 5 6
M  V30 6 1 5 7
M  V30 7 1 5 8
M  V30 8 1 8 9
M  V30 9 1 8 10
M  V30 10 1 8 11
M  V30 END BOND
M  V30 END CTAB
M  END
>  <NO.>
5882

>  <Name>
perflutren

>  <SMILES>
FC(F)(F)C(F)(F)C(F)(F)F

>  <logBB>


>  <Class>
-1

>  <MW>
187.99

>  <nHBAcc>
0

>  <nHBDon>
0

>  <SLogP>
2.75

>  <TopoPSA>
0

>  <MMFF94 Energy>
45.743

$$$$
Fc1ccc(C(c2ccccc2)(c2ccccc2F)n2ccnc2)cc1
Actelion Java MolfileCreator 2.0

  0  0  0  0  0  0              0 V3000
M  V30 BEGIN CTAB
M  V30 COUNTS 42 45 0 0 0
M  V30 BEGIN ATOM
M  V30 1 F 2.8369 -0.5668 0.8909 0
M  V30 2 C 2.4542 -0.7927 -0.3735 0
M  V30 3 C 1.1129 -0.6105 -0.7577 0
M  V30 4 C 3.4397 -1.1879 -1.2777 0
M  V30 5 C 0.8292 -0.7569 -2.1337 0
M  V30 6 C 0.0402 -0.0983 0.2657 0 CFG=1
M  V30 7 C 3.1173 -1.3807 -2.6159 0
M  V30 8 C 1.8138 -1.1543 -3.0457 0
M  V30 9 N 0.1294 -0.8048 1.5859 0
M  V30 10 C 0.36 1.4428 0.3929 0
M  V30 11 C -1.4477 -0.4002 -0.1684 0
M  V30 12 C -0.4484 -0.3747 2.7625 0
M  V30 13 C 0.5638 -2.09 1.8347 0
M  V30 14 C 1.1675 1.9675 1.4263 0
M  V30 15 C -0.0385 2.3377 -0.6298 0
M  V30 16 C -1.8028 -1.6679 -0.6843 0
M  V30 17 C -2.5011 0.5067 0.0728 0
M  V30 18 N -0.2859 -1.2352 3.7411 0
M  V30 19 C 0.3389 -2.3084 3.1728 0
M  V30 20 C 1.4878 3.3278 1.4788 0
M  V30 21 C 0.2827 3.6966 -0.5757 0
M  V30 22 C -3.123 -1.9765 -1.0223 0
M  V30 23 C -3.8218 0.1967 -0.2664 0
M  V30 24 C 1.036 4.1803 0.4829 0
M  V30 25 C -4.1304 -1.0396 -0.8232 0
M  V30 26 F 1.3481 5.4816 0.5323 0
M  V30 27 H 4.4585 -1.3271 -0.9284 0
M  V30 28 H -0.1634 -0.5485 -2.5292 0
M  V30 29 H 3.8835 -1.6831 -3.3249 0
M  V30 30 H 1.5617 -1.2723 -4.0975 0
M  V30 31 H -0.9674 0.5714 2.8498 0
M  V30 32 H 0.9944 -2.725 1.0744 0
M  V30 33 H 1.5863 1.3248 2.2002 0
M  V30 34 H -0.6036 1.9815 -1.4901 0
M  V30 35 H -1.0507 -2.4443 -0.8173 0
M  V30 36 H -2.3224 1.4679 0.5508 0
M  V30 37 H 0.5761 -3.1926 3.75 0
M  V30 38 H 2.1016 3.7197 2.2843 0
M  V30 39 H -0.0398 4.3752 -1.3591 0
M  V30 40 H -3.3654 -2.9571 -1.4248 0
M  V30 41 H -4.6136 0.9178 -0.0764 0
M  V30 42 H -5.1592 -1.2821 -1.0767 0
M  V30 END ATOM
M  V30 BEGIN BOND
M  V30 1 1 1 2
M  V30 2 2 2 3
M  V30 3 1 2 4
M  V30 4 1 3 5
M  V30 5 1 3 6
M  V30 6 2 4 7
M  V30 7 2 5 8
M  V30 8 1 6 9
M  V30 9 1 6 10
M  V30 10 1 6 11
M  V30 11 1 9 12
M  V30 12 1 9 13
M  V30 13 2 10 14
M  V30 14 1 10 15
M  V30 15 2 11 16
M  V30 16 1 11 17
M  V30 17 2 12 18
M  V30 18 2 13 19
M  V30 19 1 14 20
M  V30 20 2 15 21
M  V30 21 1 16 22
M  V30 22 2 17 23
M  V30 23 2 20 24
M  V30 24 2 22 25
M  V30 25 1 24 26
M  V30 26 1 7 8
M  V30 27 1 18 19
M  V30 28 1 21 24
M  V30 29 1 23 25
M  V30 30 1 4 27
M  V30 31 1 5 28
M  V30 32 1 7 29
M  V30 33 1 8 30
M  V30 34 1 12 31
M  V30 35 1 13 32
M  V30 36 1 14 33
M  V30 37 1 15 34
M  V30 38 1 16 35
M  V30 39 1 17 36
M  V30 40 1 19 37
M  V30 41 1 20 38
M  V30 42 1 21 39
M  V30 43 1 22 40
M  V30 44 1 23 41
M  V30 45 1 25 42
M  V30 END BOND
M  V30 BEGIN COLLECTION
M  V30 MDLV30/STERAC1 ATOMS=(1 6)
M  V30 END COLLECTION
M  V30 END CTAB
M  END
>  <NO.>
5883

>  <Name>
flutrimazole

>  <SMILES>
Fc1ccc(C(c2ccccc2)(c2ccccc2F)n2ccnc2)cc1

>  <logBB>


>  <Class>
-1

>  <MW>
346.13

>  <nHBAcc>
1

>  <nHBDon>
0

>  <SLogP>
5

>  <TopoPSA>
17.82

>  <MMFF94 Energy>
125.79

$$$$
N#CC(CCN1CCC(C(=O)O)(c2ccccc2)CC1)(c1ccccc1)c1ccccc1
Actelion Java MolfileCreator 2.0

  0  0  0  0  0  0              0 V3000
M  V30 BEGIN CTAB
M  V30 COUNTS 60 63 0 0 0
M  V30 BEGIN ATOM
M  V30 1 O 2.8884 -1.1225 -2.9687 0
M  V30 2 C 2.2674 -2.0014 -2.3887 0
M  V30 3 O 1.4549 -2.8123 -3.0985 0
M  V30 4 C 2.3453 -2.3453 -0.8898 0
M  V30 5 C 3.3372 -3.5181 -0.7172 0
M  V30 6 C 0.9205 -2.6428 -0.3558 0
M  V30 7 C 2.8664 -1.11 -0.1093 0
M  V30 8 C 2.9602 -4.7651 -0.1905 0
M  V30 9 C 4.6808 -3.3629 -1.1171 0
M  V30 10 C 0.0029 -1.4188 -0.4062 0
M  V30 11 C 1.8859 0.0664 -0.1276 0
M  V30 12 C 3.8868 -5.8046 -0.0566 0
M  V30 13 C 5.6054 -4.4018 -0.9834 0
M  V30 14 N 0.5627 -0.3174 0.3868 0
M  V30 15 C 5.2083 -5.6228 -0.4508 0
M  V30 16 C -0.3301 0.8603 0.41 0
M  V30 17 C -1.5166 0.6657 1.3733 0
M  V30 18 C -2.5907 1.8126 1.3754 0
M  V30 19 C -3.5406 1.4637 2.491 0
M  V30 20 C -3.4699 1.8844 0.0939 0
M  V30 21 C -1.8544 3.1516 1.681 0
M  V30 22 N -4.2562 1.1855 3.3644 0
M  V30 23 C -4.4055 2.9358 -0.0472 0
M  V30 24 C -3.4354 0.9147 -0.9236 0
M  V30 25 C -1.4234 4.0057 0.6437 0
M  V30 26 C -1.5265 3.52 3.0019 0
M  V30 27 C -5.2321 3.0323 -1.1687 0
M  V30 28 C -4.2641 1.0134 -2.0465 0
M  V30 29 C -0.7314 5.1883 0.9176 0
M  V30 30 C -0.8341 4.7036 3.2725 0
M  V30 31 C -5.1574 2.0727 -2.1711 0
M  V30 32 C -0.4406 5.5386 2.2318 0
M  V30 33 H 1.586 -2.5247 -4.0263 0
M  V30 34 H 0.9756 -2.9788 0.6895 0
M  V30 35 H 0.4454 -3.458 -0.916 0
M  V30 36 H 3.0613 -1.3921 0.9352 0
M  V30 37 H 3.8234 -0.7546 -0.5112 0
M  V30 38 H 1.9404 -4.9643 0.127 0
M  V30 39 H 5.0272 -2.4247 -1.5483 0
M  V30 40 H -0.1715 -1.1097 -1.4444 0
M  V30 41 H -0.9663 -1.7282 -0.0017 0
M  V30 42 H 1.8038 0.4831 -1.1392 0
M  V30 43 H 2.3109 0.8552 0.506 0
M  V30 44 H 3.5713 -6.7595 0.3565 0
M  V30 45 H 6.6353 -4.2545 -1.2983 0
M  V30 46 H 5.9256 -6.4321 -0.3457 0
M  V30 47 H -0.6568 1.114 -0.6041 0
M  V30 48 H 0.2482 1.7167 0.7764 0
M  V30 49 H -2.0187 -0.2916 1.1879 0
M  V30 50 H -1.0951 0.5665 2.3861 0
M  V30 51 H -4.5007 3.6988 0.726 0
M  V30 52 H -2.7779 0.0521 -0.872 0
M  V30 53 H -1.6149 3.7607 -0.3999 0
M  V30 54 H -1.7985 2.8912 3.849 0
M  V30 55 H -5.9389 3.8543 -1.2526 0
M  V30 56 H -4.2181 0.2526 -2.8223 0
M  V30 57 H -0.4161 5.8338 0.1015 0
M  V30 58 H -0.5991 4.9701 4.3005 0
M  V30 59 H -5.8032 2.1431 -3.0425 0
M  V30 60 H 0.0982 6.4581 2.4451 0
M  V30 END ATOM
M  V30 BEGIN BOND
M  V30 1 2 1 2
M  V30 2 1 2 3
M  V30 3 1 2 4
M  V30 4 1 4 5
M  V30 5 1 4 6
M  V30 6 1 4 7
M  V30 7 2 5 8
M  V30 8 1 5 9
M  V30 9 1 6 10
M  V30 10 1 7 11
M  V30 11 1 8 12
M  V30 12 2 9 13
M  V30 13 1 10 14
M  V30 14 2 12 15
M  V30 15 1 14 16
M  V30 16 1 16 17
M  V30 17 1 17 18
M  V30 18 1 18 19
M  V30 19 1 18 20
M  V30 20 1 18 21
M  V30 21 3 19 22
M  V30 22 2 20 23
M  V30 23 1 20 24
M  V30 24 2 21 25
M  V30 25 1 21 26
M  V30 26 1 23 27
M  V30 27 2 24 28
M  V30 28 1 25 29
M  V30 29 2 26 30
M  V30 30 2 27 31
M  V30 31 2 29 32
M  V30 32 1 11 14
M  V30 33 1 13 15
M  V30 34 1 28 31
M  V30 35 1 30 32
M  V30 36 1 3 33
M  V30 37 1 6 34
M  V30 38 1 6 35
M  V30 39 1 7 36
M  V30 40 1 7 37
M  V30 41 1 8 38
M  V30 42 1 9 39
M  V30 43 1 10 40
M  V30 44 1 10 41
M  V30 45 1 11 42
M  V30 46 1 11 43
M  V30 47 1 12 44
M  V30 48 1 13 45
M  V30 49 1 15 46
M  V30 50 1 16 47
M  V30 51 1 16 48
M  V30 52 1 17 49
M  V30 53 1 17 50
M  V30 54 1 23 51
M  V30 55 1 24 52
M  V30 56 1 25 53
M  V30 57 1 26 54
M  V30 58 1 27 55
M  V30 59 1 28 56
M  V30 60 1 29 57
M  V30 61 1 30 58
M  V30 62 1 31 59
M  V30 63 1 32 60
M  V30 END BOND
M  V30 END CTAB
M  END
>  <NO.>
5884

>  <Name>
difenoxin

>  <SMILES>
N#CC(CCN1CCC(C(=O)O)(c2ccccc2)CC1)(c1ccccc1)c1ccccc1

>  <logBB>


>  <Class>
-1

>  <MW>
424.22

>  <nHBAcc>
3

>  <nHBDon>
1

>  <SLogP>
5

>  <TopoPSA>
64.33

>  <MMFF94 Energy>
101.64

$$$$
N#CC1CC2CC2N1C(=O)C(N)C12CC3CC(CC(O)(C3)C1)C2
Actelion Java MolfileCreator 2.0

  0  0  0  0  0  0              0 V3000
M  V30 BEGIN CTAB
M  V30 COUNTS 48 52 0 0 0
M  V30 BEGIN ATOM
M  V30 1 O -0.6477 1.1337 -2.2685 0
M  V30 2 C -1.0877 0.2711 -1.5001 0
M  V30 3 N -2.3778 0.3381 -1.0122 0
M  V30 4 C -0.1838 -0.9168 -1.0593 0
M  V30 5 C -3.0733 -0.6097 -0.1101 0
M  V30 6 C -3.2506 1.4386 -1.342 0
M  V30 7 N 0.1619 -1.6746 -2.2752 0
M  V30 8 C 1.0504 -0.4607 -0.2111 0
M  V30 9 C -3.488 -1.8481 -0.8028 0
M  V30 10 C -4.318 0.1572 0.4088 0
M  V30 11 C -4.4876 1.347 -0.4975 0
M  V30 12 C -4.5884 1.2255 -1.9937 0
M  V30 13 C 0.5861 0.4396 0.9686 0
M  V30 14 C 2.1144 0.3256 -1.0279 0
M  V30 15 C 1.7571 -1.707 0.4075 0
M  V30 16 N -3.8305 -2.8347 -1.3106 0
M  V30 17 C 1.7733 0.8559 1.8525 0
M  V30 18 C 3.3036 0.7387 -0.1388 0
M  V30 19 C 2.9428 -1.296 1.2973 0
M  V30 20 O 1.3044 1.6665 2.9207 0
M  V30 21 C 2.7971 1.6283 1.0054 0
M  V30 22 C 2.436 -0.4002 2.4348 0
M  V30 23 C 3.9616 -0.5183 0.4503 0
M  V30 24 H -0.7616 -1.6051 -0.4398 0
M  V30 25 H -2.4167 -0.8598 0.7295 0
M  V30 26 H -2.7702 2.4066 -1.4466 0
M  V30 27 H 0.9131 -2.3354 -2.097 0
M  V30 28 H 0.5142 -1.0179 -2.9772 0
M  V30 29 H -5.226 -0.4537 0.4485 0
M  V30 30 H -4.1166 0.5235 1.4229 0
M  V30 31 H -4.8732 2.2331 -0.0137 0
M  V30 32 H -4.8064 0.2624 -2.4399 0
M  V30 33 H -5.0125 2.0585 -2.5448 0
M  V30 34 H 0.0854 1.3446 0.601 0
M  V30 35 H -0.1628 -0.0822 1.5793 0
M  V30 36 H 1.6784 1.2294 -1.4667 0
M  V30 37 H 2.4879 -0.2828 -1.8604 0
M  V30 38 H 1.0402 -2.2874 1.003 0
M  V30 39 H 2.1258 -2.3758 -0.3789 0
M  V30 40 H 4.0359 1.2909 -0.7384 0
M  V30 41 H 3.4172 -2.1907 1.7157 0
M  V30 42 H 1.0231 2.521 2.5499 0
M  V30 43 H 2.3452 2.5453 0.6052 0
M  V30 44 H 3.6333 1.9604 1.6341 0
M  V30 45 H 1.7236 -0.9469 3.0663 0
M  V30 46 H 3.2633 -0.118 3.0988 0
M  V30 47 H 4.8235 -0.2358 1.0673 0
M  V30 48 H 4.3431 -1.1554 -0.3568 0
M  V30 END ATOM
M  V30 BEGIN BOND
M  V30 1 2 1 2
M  V30 2 1 2 3
M  V30 3 1 2 4
M  V30 4 1 3 5
M  V30 5 1 3 6
M  V30 6 1 4 7
M  V30 7 1 4 8
M  V30 8 1 5 9
M  V30 9 1 5 10
M  V30 10 1 6 11
M  V30 11 1 6 12
M  V30 12 1 8 13
M  V30 13 1 8 14
M  V30 14 1 8 15
M  V30 15 3 9 16
M  V30 16 1 13 17
M  V30 17 1 14 18
M  V30 18 1 15 19
M  V30 19 1 17 20
M  V30 20 1 17 21
M  V30 21 1 17 22
M  V30 22 1 18 23
M  V30 23 1 10 11
M  V30 24 1 11 12
M  V30 25 1 18 21
M  V30 26 1 19 22
M  V30 27 1 19 23
M  V30 28 1 4 24
M  V30 29 1 5 25
M  V30 30 1 6 26
M  V30 31 1 7 27
M  V30 32 1 7 28
M  V30 33 1 10 29
M  V30 34 1 10 30
M  V30 35 1 11 31
M  V30 36 1 12 32
M  V30 37 1 12 33
M  V30 38 1 13 34
M  V30 39 1 13 35
M  V30 40 1 14 36
M  V30 41 1 14 37
M  V30 42 1 15 38
M  V30 43 1 15 39
M  V30 44 1 18 40
M  V30 45 1 19 41
M  V30 46 1 20 42
M  V30 47 1 21 43
M  V30 48 1 21 44
M  V30 49 1 22 45
M  V30 50 1 22 46
M  V30 51 1 23 47
M  V30 52 1 23 48
M  V30 END BOND
M  V30 END CTAB
M  END
>  <NO.>
5885

>  <Name>
saxagliptin

>  <SMILES>
N#CC1CC2CC2N1C(=O)C(N)C12CC3CC(CC(O)(C3)C1)C2

>  <logBB>


>  <Class>
-1

>  <MW>
315.19

>  <nHBAcc>
4

>  <nHBDon>
2

>  <SLogP>
1.16

>  <TopoPSA>
90.35

>  <MMFF94 Energy>
110.44

$$$$
N#CC1CCCN1C(=O)CNC12CC3CC(CC(O)(C3)C1)C2
Actelion Java MolfileCreator 2.0

  0  0  0  0  0  0              0 V3000
M  V30 BEGIN CTAB
M  V30 COUNTS 47 50 0 0 0
M  V30 BEGIN ATOM
M  V30 1 O 3.8669 -0.7241 -0.7241 0
M  V30 2 C 2.7063 -0.6667 -1.1375 0
M  V30 3 N 2.2555 -1.5026 -2.1371 0
M  V30 4 C 1.7141 0.3338 -0.5266 0
M  V30 5 C 0.8809 -1.6382 -2.633 0
M  V30 6 C 3.1417 -2.4822 -2.7399 0
M  V30 7 N 0.784 -0.3913 0.3536 0
M  V30 8 C 0.5049 -0.5441 -3.5544 0
M  V30 9 C 0.9009 -2.9861 -3.365 0
M  V30 10 C 2.3351 -3.0903 -3.8756 0
M  V30 11 C -0.2692 0.4259 0.9785 0
M  V30 12 N 0.2059 0.3172 -4.2737 0
M  V30 13 C 0.2899 1.5539 1.8791 0
M  V30 14 C -1.0983 -0.5378 1.8739 0
M  V30 15 C -1.2305 1.0445 -0.0692 0
M  V30 16 C -0.8614 2.305 2.5737 0
M  V30 17 C -2.248 0.2082 2.5724 0
M  V30 18 C -2.3783 1.7997 0.6268 0
M  V30 19 O -0.34 3.3535 3.3784 0
M  V30 20 C -1.6637 1.3266 3.4462 0
M  V30 21 C -1.789 2.9117 1.5078 0
M  V30 22 C -3.1708 0.822 1.5082 0
M  V30 23 H 2.2999 1.0682 0.036 0
M  V30 24 H 1.2046 0.8592 -1.3362 0
M  V30 25 H 0.1747 -1.6741 -1.7998 0
M  V30 26 H 4.0689 -2.0108 -3.0795 0
M  V30 27 H 3.386 -3.2306 -1.9776 0
M  V30 28 H 1.3437 -0.8373 1.0856 0
M  V30 29 H 0.1619 -3.0701 -4.168 0
M  V30 30 H 0.718 -3.797 -2.6484 0
M  V30 31 H 2.6343 -4.1176 -4.1003 0
M  V30 32 H 2.4531 -2.492 -4.7868 0
M  V30 33 H 0.9772 1.1463 2.6329 0
M  V30 34 H 0.8812 2.2733 1.2983 0
M  V30 35 H -1.5119 -1.3574 1.2706 0
M  V30 36 H -0.4554 -1.0019 2.6343 0
M  V30 37 H -1.6452 0.2608 -0.7165 0
M  V30 38 H -0.6999 1.7475 -0.7223 0
M  V30 39 H -2.8169 -0.4898 3.1966 0
M  V30 40 H -3.0418 2.2376 -0.1271 0
M  V30 41 H 0.2345 2.9596 4.057 0
M  V30 42 H -2.4646 1.8603 3.9742 0
M  V30 43 H -1.0222 0.9046 4.2305 0
M  V30 44 H -1.2373 3.6356 0.8942 0
M  V30 45 H -2.5925 3.4845 1.989 0
M  V30 46 H -4.0046 1.3453 1.9922 0
M  V30 47 H -3.6086 0.0296 0.889 0
M  V30 END ATOM
M  V30 BEGIN BOND
M  V30 1 2 1 2
M  V30 2 1 2 3
M  V30 3 1 2 4
M  V30 4 1 3 5
M  V30 5 1 3 6
M  V30 6 1 4 7
M  V30 7 1 5 8
M  V30 8 1 5 9
M  V30 9 1 6 10
M  V30 10 1 7 11
M  V30 11 3 8 12
M  V30 12 1 11 13
M  V30 13 1 11 14
M  V30 14 1 11 15
M  V30 15 1 13 16
M  V30 16 1 14 17
M  V30 17 1 15 18
M  V30 18 1 16 19
M  V30 19 1 16 20
M  V30 20 1 16 21
M  V30 21 1 17 22
M  V30 22 1 9 10
M  V30 23 1 17 20
M  V30 24 1 18 21
M  V30 25 1 18 22
M  V30 26 1 4 23
M  V30 27 1 4 24
M  V30 28 1 5 25
M  V30 29 1 6 26
M  V30 30 1 6 27
M  V30 31 1 7 28
M  V30 32 1 9 29
M  V30 33 1 9 30
M  V30 34 1 10 31
M  V30 35 1 10 32
M  V30 36 1 13 33
M  V30 37 1 13 34
M  V30 38 1 14 35
M  V30 39 1 14 36
M  V30 40 1 15 37
M  V30 41 1 15 38
M  V30 42 1 17 39
M  V30 43 1 18 40
M  V30 44 1 19 41
M  V30 45 1 20 42
M  V30 46 1 20 43
M  V30 47 1 21 44
M  V30 48 1 21 45
M  V30 49 1 22 46
M  V30 50 1 22 47
M  V30 END BOND
M  V30 END CTAB
M  END
>  <NO.>
5886

>  <Name>
vildagliptin

>  <SMILES>
N#CC1CCCN1C(=O)CNC12CC3CC(CC(O)(C3)C1)C2

>  <logBB>


>  <Class>
-1

>  <MW>
303.19

>  <nHBAcc>
4

>  <nHBDon>
2

>  <SLogP>
1.17

>  <TopoPSA>
76.36

>  <MMFF94 Energy>
69.735

$$$$
N#CCC(C1CCCC1)n1cc(-c2ncnc3[nH]ccc23)cn1
Actelion Java MolfileCreator 2.0

  0  0  0  0  0  0              0 V3000
M  V30 BEGIN CTAB
M  V30 COUNTS 41 44 0 0 0
M  V30 BEGIN ATOM
M  V30 1 N -0.4807 -3.8512 -4.4138 0
M  V30 2 C 0.0263 -3.0676 -3.7251 0
M  V30 3 C 0.6442 -2.0724 -2.842 0
M  V30 4 C -0.3332 -1.6137 -1.7456 0 CFG=2
M  V30 5 N 0.1675 -0.3956 -1.1097 0
M  V30 6 C -0.7038 -2.7338 -0.7419 0
M  V30 7 N 1.4585 -0.2998 -0.74 0
M  V30 8 C -0.5361 0.7543 -0.8947 0
M  V30 9 C 0.4463 -3.3775 0.0345 0
M  V30 10 C -1.6542 -2.3146 0.382 0
M  V30 11 C 1.5549 0.9401 -0.2505 0
M  V30 12 C 0.3348 1.6471 -0.3018 0
M  V30 13 C -0.2352 -4.1222 1.183 0
M  V30 14 C -1.6279 -3.5088 1.3286 0
M  V30 15 C -0.026 2.9908 0.0886 0
M  V30 16 N -1.0808 3.5688 -0.5422 0
M  V30 17 C 0.66 3.6995 1.0821 0
M  V30 18 C -1.4105 4.8259 -0.1963 0
M  V30 19 C 0.1978 4.9866 1.3255 0
M  V30 20 C 1.7394 3.4876 1.9897 0
M  V30 21 N -0.8241 5.6104 0.7219 0
M  V30 22 N 0.9654 5.5441 2.3107 0
M  V30 23 C 1.9077 4.641 2.7282 0
M  V30 24 H 0.9496 -1.2126 -3.4527 0
M  V30 25 H 1.563 -2.483 -2.4075 0
M  V30 26 H -1.2686 -1.3069 -2.2375 0
M  V30 27 H -1.2057 -3.5322 -1.308 0
M  V30 28 H -1.5802 0.8481 -1.1623 0
M  V30 29 H 1.1238 -2.6261 0.4517 0
M  V30 30 H 1.0403 -4.0565 -0.5848 0
M  V30 31 H -2.6641 -2.1034 0.0177 0
M  V30 32 H -1.2898 -1.4288 0.9136 0
M  V30 33 H 2.519 1.2751 0.108 0
M  V30 34 H 0.3445 -4.0261 2.107 0
M  V30 35 H -0.3175 -5.1915 0.9582 0
M  V30 36 H -1.8421 -3.2144 2.3607 0
M  V30 37 H -2.3867 -4.2419 1.0306 0
M  V30 38 H -2.254 5.2593 -0.7253 0
M  V30 39 H 2.33 2.589 2.1078 0
M  V30 40 H 0.8288 6.4792 2.6673 0
M  V30 41 H 2.6075 4.8923 3.5146 0
M  V30 END ATOM
M  V30 BEGIN BOND
M  V30 1 3 1 2
M  V30 2 1 2 3
M  V30 3 1 3 4
M  V30 4 1 4 5
M  V30 5 1 4 6
M  V30 6 1 5 7
M  V30 7 1 5 8
M  V30 8 1 6 9
M  V30 9 1 6 10
M  V30 10 2 7 11
M  V30 11 2 8 12
M  V30 12 1 9 13
M  V30 13 1 10 14
M  V30 14 1 12 15
M  V30 15 2 15 16
M  V30 16 1 15 17
M  V30 17 1 16 18
M  V30 18 2 17 19
M  V30 19 1 17 20
M  V30 20 2 18 21
M  V30 21 1 19 22
M  V30 22 2 20 23
M  V30 23 1 11 12
M  V30 24 1 13 14
M  V30 25 1 19 21
M  V30 26 1 22 23
M  V30 27 1 3 24
M  V30 28 1 3 25
M  V30 29 1 4 26
M  V30 30 1 6 27
M  V30 31 1 8 28
M  V30 32 1 9 29
M  V30 33 1 9 30
M  V30 34 1 10 31
M  V30 35 1 10 32
M  V30 36 1 11 33
M  V30 37 1 13 34
M  V30 38 1 13 35
M  V30 39 1 14 36
M  V30 40 1 14 37
M  V30 41 1 18 38
M  V30 42 1 20 39
M  V30 43 1 22 40
M  V30 44 1 23 41
M  V30 END BOND
M  V30 BEGIN COLLECTION
M  V30 MDLV30/STERAC1 ATOMS=(1 4)
M  V30 END COLLECTION
M  V30 END CTAB
M  END
>  <NO.>
5887

>  <Name>
941688-05-7

>  <SMILES>
N#CCC(C1CCCC1)n1cc(-c2ncnc3[nH]ccc23)cn1

>  <logBB>


>  <Class>
-1

>  <MW>
306.16

>  <nHBAcc>
4

>  <nHBDon>
1

>  <SLogP>
3.47

>  <TopoPSA>
83.18

>  <MMFF94 Energy>
14.156

$$$$
N#Cc1ccc2[nH]cc(CCCCN3CCN(c4ccc5oc(C(N)=O)cc5c4)CC3)c2c1
Actelion Java MolfileCreator 2.0

  0  0  0  0  0  0              0 V3000
M  V30 BEGIN CTAB
M  V30 COUNTS 60 64 0 0 0
M  V30 BEGIN ATOM
M  V30 1 O -4.2388 -1.9977 -9.0541 0
M  V30 2 C -3.0801 -1.6187 -8.9135 0
M  V30 3 N -2.2518 -1.5207 -9.9963 0
M  V30 4 C -2.4823 -1.249 -7.6522 0
M  V30 5 O -1.1736 -0.8367 -7.621 0
M  V30 6 C -3.0067 -1.2272 -6.3731 0
M  V30 7 C -0.8737 -0.5559 -6.3236 0
M  V30 8 C -1.9748 -0.7761 -5.5112 0
M  V30 9 C 0.3555 -0.1133 -5.8549 0
M  V30 10 C -1.8458 -0.5361 -4.1295 0
M  V30 11 C 0.4512 0.1158 -4.4728 0
M  V30 12 C -0.6261 -0.0765 -3.5884 0
M  V30 13 N -0.5132 0.1494 -2.2187 0
M  V30 14 C 0.8071 0.1668 -1.5697 0
M  V30 15 C -1.513 1.0249 -1.5775 0
M  V30 16 C 0.6808 -0.0504 -0.0453 0
M  V30 17 C -1.5649 0.7961 -0.0477 0
M  V30 18 N -0.2414 0.9096 0.6084 0
M  V30 19 C -0.311 0.6242 2.0537 0
M  V30 20 C -1.0259 1.7316 2.8419 0
M  V30 21 C -1.0297 1.4885 4.3586 0
M  V30 22 C 0.1464 2.1188 5.1123 0
M  V30 23 C 1.4697 1.4671 4.8718 0
M  V30 24 C 1.9083 0.1923 5.3562 0
M  V30 25 C 2.5184 1.9996 4.1472 0
M  V30 26 C 3.2075 -0.0094 4.8895 0
M  V30 27 C 1.315 -0.8115 6.1498 0
M  V30 28 N 3.5521 1.1039 4.1592 0
M  V30 29 C 3.946 -1.1649 5.1697 0
M  V30 30 C 2.0376 -1.9779 6.4428 0
M  V30 31 C 3.336 -2.1479 5.9557 0
M  V30 32 C 1.4362 -3.0008 7.2474 0
M  V30 33 N 0.9494 -3.8302 7.8974 0
M  V30 34 H -2.612 -1.7656 -10.9062 0
M  V30 35 H -1.2959 -1.2095 -9.8885 0
M  V30 36 H -4.0171 -1.505 -6.1064 0
M  V30 37 H 1.1931 0.0484 -6.5214 0
M  V30 38 H -2.6917 -0.7412 -3.4812 0
M  V30 39 H 1.4054 0.4788 -4.0991 0
M  V30 40 H 1.3035 1.1261 -1.7635 0
M  V30 41 H 1.4424 -0.6343 -1.9666 0
M  V30 42 H -2.5219 0.8595 -1.97 0
M  V30 43 H -1.2536 2.0715 -1.7833 0
M  V30 44 H 1.6823 0.0494 0.3907 0
M  V30 45 H 0.345 -1.0801 0.1394 0
M  V30 46 H -1.9973 -0.195 0.145 0
M  V30 47 H -2.2549 1.5401 0.364 0
M  V30 48 H 0.7099 0.5341 2.4334 0
M  V30 49 H -0.8004 -0.3412 2.2374 0
M  V30 50 H -2.0737 1.7744 2.5222 0
M  V30 51 H -0.5869 2.7104 2.6141 0
M  V30 52 H -1.1074 0.4165 4.5741 0
M  V30 53 H -1.9427 1.9483 4.76 0
M  V30 54 H 0.2074 3.1869 4.8672 0
M  V30 55 H -0.0658 2.0703 6.1885 0
M  V30 56 H 2.6106 2.9392 3.618 0
M  V30 57 H 0.3054 -0.6767 6.5294 0
M  V30 58 H 4.4436 1.2389 3.7027 0
M  V30 59 H 4.9562 -1.2985 4.7956 0
M  V30 60 H 3.892 -3.0554 6.1872 0
M  V30 END ATOM
M  V30 BEGIN BOND
M  V30 1 2 1 2
M  V30 2 1 2 3
M  V30 3 1 2 4
M  V30 4 1 4 5
M  V30 5 2 4 6
M  V30 6 1 5 7
M  V30 7 1 6 8
M  V30 8 1 7 9
M  V30 9 1 8 10
M  V30 10 2 9 11
M  V30 11 2 10 12
M  V30 12 1 12 13
M  V30 13 1 13 14
M  V30 14 1 13 15
M  V30 15 1 14 16
M  V30 16 1 15 17
M  V30 17 1 16 18
M  V30 18 1 18 19
M  V30 19 1 19 20
M  V30 20 1 20 21
M  V30 21 1 21 22
M  V30 22 1 22 23
M  V30 23 1 23 24
M  V30 24 2 23 25
M  V30 25 2 24 26
M  V30 26 1 24 27
M  V30 27 1 25 28
M  V30 28 1 26 29
M  V30 29 2 27 30
M  V30 30 2 29 31
M  V30 31 1 30 32
M  V30 32 3 32 33
M  V30 33 2 7 8
M  V30 34 1 11 12
M  V30 35 1 17 18
M  V30 36 1 26 28
M  V30 37 1 30 31
M  V30 38 1 3 34
M  V30 39 1 3 35
M  V30 40 1 6 36
M  V30 41 1 9 37
M  V30 42 1 10 38
M  V30 43 1 11 39
M  V30 44 1 14 40
M  V30 45 1 14 41
M  V30 46 1 15 42
M  V30 47 1 15 43
M  V30 48 1 16 44
M  V30 49 1 16 45
M  V30 50 1 17 46
M  V30 51 1 17 47
M  V30 52 1 19 48
M  V30 53 1 19 49
M  V30 54 1 20 50
M  V30 55 1 20 51
M  V30 56 1 21 52
M  V30 57 1 21 53
M  V30 58 1 22 54
M  V30 59 1 22 55
M  V30 60 1 25 56
M  V30 61 1 27 57
M  V30 62 1 28 58
M  V30 63 1 29 59
M  V30 64 1 31 60
M  V30 END BOND
M  V30 END CTAB
M  END
>  <NO.>
5888

>  <Name>
vilazodone

>  <SMILES>
N#Cc1ccc2[nH]cc(CCCCN3CCN(c4ccc5oc(C(N)=O)cc5c4)CC3)c2c1

>  <logBB>


>  <Class>
1

>  <MW>
441.22

>  <nHBAcc>
5

>  <nHBDon>
2

>  <SLogP>
4.03

>  <TopoPSA>
102.29

>  <MMFF94 Energy>
98.266

$$$$
N=C(N)N1CCc2ccccc2C1
Actelion Java MolfileCreator 2.0

  0  0  0  0  0  0              0 V3000
M  V30 BEGIN CTAB
M  V30 COUNTS 26 27 0 0 0
M  V30 BEGIN ATOM
M  V30 1 N -2.7446 0.7052 2.1952 0
M  V30 2 C -1.6491 1.2866 1.8454 0
M  V30 3 N -0.867 0.8471 0.8187 0
M  V30 4 N -1.2018 2.3627 2.5149 0
M  V30 5 C -1.1379 -0.4818 0.2509 0
M  V30 6 C -0.0801 1.7234 -0.0468 0
M  V30 7 C 0.0315 -1.0529 -0.5324 0
M  V30 8 C 1.2986 1.1117 -0.2861 0
M  V30 9 C 1.1852 -0.2964 -0.8076 0
M  V30 10 C -0.05 -2.3699 -1.0127 0
M  V30 11 C 2.2442 -0.8713 -1.5234 0
M  V30 12 C 1.0026 -2.9301 -1.7369 0
M  V30 13 C 2.1497 -2.1821 -1.9893 0
M  V30 14 H -3.1489 1.2045 2.9868 0
M  V30 15 H -1.7209 2.7436 3.2905 0
M  V30 16 H -0.2244 2.6037 2.4631 0
M  V30 17 H -1.367 -1.1882 1.059 0
M  V30 18 H -2.0078 -0.4173 -0.4144 0
M  V30 19 H 0.048 2.7273 0.3712 0
M  V30 20 H -0.611 1.8556 -0.9991 0
M  V30 21 H 1.8677 1.0898 0.6512 0
M  V30 22 H 1.8456 1.7364 -1.0018 0
M  V30 23 H -0.9381 -2.9679 -0.8173 0
M  V30 24 H 3.1479 -0.2999 -1.7221 0
M  V30 25 H 0.9287 -3.9519 -2.0996 0
M  V30 26 H 2.9725 -2.6211 -2.5473 0
M  V30 END ATOM
M  V30 BEGIN BOND
M  V30 1 2 1 2
M  V30 2 1 2 3
M  V30 3 1 2 4
M  V30 4 1 3 5
M  V30 5 1 3 6
M  V30 6 1 5 7
M  V30 7 1 6 8
M  V30 8 2 7 9
M  V30 9 1 7 10
M  V30 10 1 9 11
M  V30 11 2 10 12
M  V30 12 2 11 13
M  V30 13 1 8 9
M  V30 14 1 12 13
M  V30 15 1 1 14
M  V30 16 1 4 15
M  V30 17 1 4 16
M  V30 18 1 5 17
M  V30 19 1 5 18
M  V30 20 1 6 19
M  V30 21 1 6 20
M  V30 22 1 8 21
M  V30 23 1 8 22
M  V30 24 1 10 23
M  V30 25 1 11 24
M  V30 26 1 12 25
M  V30 27 1 13 26
M  V30 END BOND
M  V30 END CTAB
M  END
>  <NO.>
5890

>  <Name>
debrisoquine

>  <SMILES>
N=C(N)N1CCc2ccccc2C1

>  <logBB>


>  <Class>
-1

>  <MW>
175.11

>  <nHBAcc>
1

>  <nHBDon>
2

>  <SLogP>
0.94

>  <TopoPSA>
53.11

>  <MMFF94 Energy>
-99.495

$$$$
N=C(N)c1ccc(C=Cc2ccc(C(=N)N)cc2O)cc1
Actelion Java MolfileCreator 2.0

  0  0  0  0  0  0              0 V3000
M  V30 BEGIN CTAB
M  V30 COUNTS 37 38 0 0 0
M  V30 BEGIN ATOM
M  V30 1 O -2.5843 -1.879 -0.8608 0
M  V30 2 C -1.4951 -2.5524 -0.3708 0
M  V30 3 C -0.3202 -1.8381 -0.0762 0
M  V30 4 C -1.5776 -3.9306 -0.164 0
M  V30 5 C 0.7874 -2.5493 0.4106 0
M  V30 6 C -0.2463 -0.3882 -0.3333 0
M  V30 7 C -0.4675 -4.6158 0.3365 0
M  V30 8 C 0.714 -3.9291 0.6253 0
M  V30 9 C 0.435 0.486 0.4254 0
M  V30 10 C -0.5454 -6.0802 0.5683 0
M  V30 11 C 0.4837 1.9307 0.1587 0
M  V30 12 N -1.1257 -6.8791 -0.2687 0
M  V30 13 N -0.006 -6.624 1.6851 0
M  V30 14 C -0.6402 2.6472 -0.2759 0
M  V30 15 C 1.6777 2.6239 0.3998 0
M  V30 16 C -0.5658 4.0268 -0.4925 0
M  V30 17 C 1.7569 4.0038 0.1866 0
M  V30 18 C 0.6337 4.7045 -0.2605 0
M  V30 19 C 0.7132 6.1698 -0.4953 0
M  V30 20 N 1.3683 6.961 0.2935 0
M  V30 21 N 0.0938 6.7256 -1.5642 0
M  V30 22 H -3.3261 -2.4979 -0.9605 0
M  V30 23 H -2.4974 -4.47 -0.3673 0
M  V30 24 H 1.7269 -2.04 0.6125 0
M  V30 25 H -0.8139 -0.0501 -1.1979 0
M  V30 26 H 1.5889 -4.462 0.9883 0
M  V30 27 H 0.9964 0.154 1.2948 0
M  V30 28 H -1.4582 -6.3738 -1.0947 0
M  V30 29 H 0.3782 -6.0793 2.4428 0
M  V30 30 H -0.098 -7.6253 1.801 0
M  V30 31 H -1.5901 2.1412 -0.4357 0
M  V30 32 H 2.563 2.0925 0.7427 0
M  V30 33 H -1.453 4.5658 -0.8135 0
M  V30 34 H 2.7013 4.5166 0.3492 0
M  V30 35 H 1.7632 6.4455 1.0852 0
M  V30 36 H -0.3475 6.1868 -2.2942 0
M  V30 37 H 0.1943 7.7253 -1.6855 0
M  V30 END ATOM
M  V30 BEGIN BOND
M  V30 1 1 1 2
M  V30 2 2 2 3
M  V30 3 1 2 4
M  V30 4 1 3 5
M  V30 5 1 3 6
M  V30 6 2 4 7
M  V30 7 2 5 8
M  V30 8 2 6 9
M  V30 9 1 7 10
M  V30 10 1 9 11
M  V30 11 2 10 12
M  V30 12 1 10 13
M  V30 13 2 11 14
M  V30 14 1 11 15
M  V30 15 1 14 16
M  V30 16 2 15 17
M  V30 17 2 16 18
M  V30 18 1 18 19
M  V30 19 2 19 20
M  V30 20 1 19 21
M  V30 21 1 7 8
M  V30 22 1 17 18
M  V30 23 1 1 22
M  V30 24 1 4 23
M  V30 25 1 5 24
M  V30 26 1 6 25
M  V30 27 1 8 26
M  V30 28 1 9 27
M  V30 29 1 12 28
M  V30 30 1 13 29
M  V30 31 1 13 30
M  V30 32 1 14 31
M  V30 33 1 15 32
M  V30 34 1 16 33
M  V30 35 1 17 34
M  V30 36 1 20 35
M  V30 37 1 21 36
M  V30 38 1 21 37
M  V30 END BOND
M  V30 END CTAB
M  END
>  <NO.>
5891

>  <Name>
hidroxiestilbamidina

>  <SMILES>
N=C(N)c1ccc(C=Cc2ccc(C(=N)N)cc2O)cc1

>  <logBB>


>  <Class>
-1

>  <MW>
280.13

>  <nHBAcc>
3

>  <nHBDon>
5

>  <SLogP>
2.13

>  <TopoPSA>
119.97

>  <MMFF94 Energy>
-25.598

$$$$
NC(=NCCCCCCN=C(N)N=C(N)Nc1ccc(Cl)cc1)N=C(N)Nc1ccc(Cl)cc1
Actelion Java MolfileCreator 2.0

  0  0  0  0  0  0              0 V3000
M  V30 BEGIN CTAB
M  V30 COUNTS 64 65 0 0 0
M  V30 BEGIN ATOM
M  V30 1 Cl -1.8054 -8.9738 -5.7392 0
M  V30 2 C -2.592 -7.7148 -4.8713 0
M  V30 3 C -2.5535 -6.4106 -5.3505 0
M  V30 4 C -3.2686 -8.0031 -3.6918 0
M  V30 5 C -3.1962 -5.3865 -4.643 0
M  V30 6 C -3.9079 -6.9747 -2.9902 0
M  V30 7 C -3.881 -5.645 -3.4499 0
M  V30 8 N -4.5522 -4.6643 -2.696 0
M  V30 9 C -4.5631 -3.301 -2.8319 0
M  V30 10 N -3.7914 -2.625 -3.6217 0
M  V30 11 N -5.4876 -2.7603 -1.9906 0
M  V30 12 C -3.91 -1.2729 -3.6591 0
M  V30 13 N -3.2303 -0.4872 -2.8958 0
M  V30 14 N -4.7635 -0.7304 -4.5499 0
M  V30 15 C -2.2635 -1.1038 -1.9867 0
M  V30 16 C -1.4629 0.0136 -1.318 0
M  V30 17 C -0.4328 -0.5474 -0.3375 0
M  V30 18 C 0.365 0.572 0.3325 0
M  V30 19 C 1.3952 0.0109 1.3131 0
M  V30 20 C 2.1958 1.1283 1.9817 0
M  V30 21 N 3.1625 0.5118 2.8909 0
M  V30 22 C 3.8422 1.2974 3.6542 0
M  V30 23 N 3.7237 2.6495 3.6168 0
M  V30 24 N 4.6957 0.755 4.5451 0
M  V30 25 C 4.4953 3.3256 2.827 0
M  V30 26 N 4.4844 4.6888 2.6911 0
M  V30 27 N 5.4198 2.7849 1.9858 0
M  V30 28 C 3.8133 5.6696 3.4449 0
M  V30 29 C 3.1284 5.4111 4.6381 0
M  V30 30 C 3.8401 6.9993 2.9853 0
M  V30 31 C 2.4857 6.4352 5.3456 0
M  V30 32 C 3.2008 8.0276 3.6869 0
M  V30 33 C 2.5243 7.7393 4.8664 0
M  V30 34 Cl 1.7377 8.9984 5.7342 0
M  V30 35 H -2.0277 -6.1746 -6.2716 0
M  V30 36 H -3.3033 -9.0197 -3.3105 0
M  V30 37 H -3.1475 -4.3826 -5.0543 0
M  V30 38 H -4.4277 -7.2272 -2.0689 0
M  V30 39 H -5.0102 -5.0216 -1.873 0
M  V30 40 H -6.2262 -3.3006 -1.57 0
M  V30 41 H -5.5635 -1.751 -1.929 0
M  V30 42 H -4.7679 0.2721 -4.6514 0
M  V30 43 H -5.2002 -1.323 -5.2366 0
M  V30 44 H -2.7799 -1.6857 -1.2147 0
M  V30 45 H -1.5768 -1.7633 -2.531 0
M  V30 46 H -2.1473 0.6902 -0.7908 0
M  V30 47 H -0.9578 0.6128 -2.0859 0
M  V30 48 H 0.2518 -1.2194 -0.8689 0
M  V30 49 H -0.9422 -1.1445 0.4286 0
M  V30 50 H -0.3197 1.2441 0.864 0
M  V30 51 H 0.8743 1.1692 -0.4335 0
M  V30 52 H 0.89 -0.5882 2.081 0
M  V30 53 H 2.0794 -0.6656 0.786 0
M  V30 54 H 1.509 1.7879 2.5261 0
M  V30 55 H 2.712 1.7104 1.2099 0
M  V30 56 H 4.7 -0.2474 4.6466 0
M  V30 57 H 5.1322 1.3478 5.2319 0
M  V30 58 H 4.9424 5.0463 1.8682 0
M  V30 59 H 5.4956 1.7757 1.9243 0
M  V30 60 H 6.1583 3.3253 1.5653 0
M  V30 61 H 3.0796 4.4073 5.0494 0
M  V30 62 H 4.3598 7.2518 2.0641 0
M  V30 63 H 1.9599 6.1992 6.2668 0
M  V30 64 H 3.2354 9.0443 3.3057 0
M  V30 END ATOM
M  V30 BEGIN BOND
M  V30 1 1 1 2
M  V30 2 2 2 3
M  V30 3 1 2 4
M  V30 4 1 3 5
M  V30 5 2 4 6
M  V30 6 2 5 7
M  V30 7 1 7 8
M  V30 8 1 8 9
M  V30 9 2 9 10
M  V30 10 1 9 11
M  V30 11 1 10 12
M  V30 12 2 12 13
M  V30 13 1 12 14
M  V30 14 1 13 15
M  V30 15 1 15 16
M  V30 16 1 16 17
M  V30 17 1 17 18
M  V30 18 1 18 19
M  V30 19 1 19 20
M  V30 20 1 20 21
M  V30 21 2 21 22
M  V30 22 1 22 23
M  V30 23 1 22 24
M  V30 24 2 23 25
M  V30 25 1 25 26
M  V30 26 1 25 27
M  V30 27 1 26 28
M  V30 28 2 28 29
M  V30 29 1 28 30
M  V30 30 1 29 31
M  V30 31 2 30 32
M  V30 32 2 31 33
M  V30 33 1 33 34
M  V30 34 1 6 7
M  V30 35 1 32 33
M  V30 36 1 3 35
M  V30 37 1 4 36
M  V30 38 1 5 37
M  V30 39 1 6 38
M  V30 40 1 8 39
M  V30 41 1 11 40
M  V30 42 1 11 41
M  V30 43 1 14 42
M  V30 44 1 14 43
M  V30 45 1 15 44
M  V30 46 1 15 45
M  V30 47 1 16 46
M  V30 48 1 16 47
M  V30 49 1 17 48
M  V30 50 1 17 49
M  V30 51 1 18 50
M  V30 52 1 18 51
M  V30 53 1 19 52
M  V30 54 1 19 53
M  V30 55 1 20 54
M  V30 56 1 20 55
M  V30 57 1 24 56
M  V30 58 1 24 57
M  V30 59 1 26 58
M  V30 60 1 27 59
M  V30 61 1 27 60
M  V30 62 1 29 61
M  V30 63 1 30 62
M  V30 64 1 31 63
M  V30 65 1 32 64
M  V30 END BOND
M  V30 END CTAB
M  END
>  <NO.>
5892

>  <Name>
chlorhexidine base

>  <SMILES>
NC(=NCCCCCCN=C(N)N=C(N)Nc1ccc(Cl)cc1)N=C(N)Nc1ccc(Cl)cc1

>  <logBB>


>  <Class>
-1

>  <MW>
504.2

>  <nHBAcc>
2

>  <nHBDon>
6

>  <SLogP>
3.34

>  <TopoPSA>
177.58

>  <MMFF94 Energy>
-321.17

$$$$
NC(=O)N/N=C\c1ccc([N+](=O)[O-])o1
Actelion Java MolfileCreator 2.0

  0  0  0  0  0  0              0 V3000
M  V30 BEGIN CTAB
M  V30 COUNTS 20 20 0 0 0
M  V30 BEGIN ATOM
M  V30 1 O 2.5993 -1.1808 -0.3935 0
M  V30 2 N 2.911 0.018 -0.3956 0 CHG=1
M  V30 3 O 4.052 0.4763 -0.5326 0 CHG=-1
M  V30 4 C 1.8599 0.9694 -0.2242 0
M  V30 5 O 0.6105 0.4571 -0.0744 0
M  V30 6 C 1.8528 2.3414 -0.1781 0
M  V30 7 C -0.238 1.5244 0.0738 0
M  V30 8 C 0.492 2.7013 0.0151 0
M  V30 9 C -1.6532 1.3012 0.2552 0
M  V30 10 N -2.2968 0.1723 0.3039 0
M  V30 11 N -1.6 -0.992 0.1728 0
M  V30 12 C -2.2374 -2.2088 0.2178 0
M  V30 13 O -3.4363 -2.4043 0.3713 0
M  V30 14 N -1.3813 -3.2578 0.0693 0
M  V30 15 H 2.7098 2.9952 -0.2708 0
M  V30 16 H 0.0886 3.7024 0.1018 0
M  V30 17 H -2.2678 2.211 0.367 0
M  V30 18 H -0.5968 -0.959 0.0402 0
M  V30 19 H -0.3877 -3.1558 -0.0597 0
M  V30 20 H -1.7857 -4.1834 0.0928 0
M  V30 END ATOM
M  V30 BEGIN BOND
M  V30 1 2 1 2
M  V30 2 1 2 3
M  V30 3 1 2 4
M  V30 4 1 4 5
M  V30 5 2 4 6
M  V30 6 1 5 7
M  V30 7 1 6 8
M  V30 8 1 7 9
M  V30 9 2 9 10
M  V30 10 1 10 11
M  V30 11 1 11 12
M  V30 12 2 12 13
M  V30 13 1 12 14
M  V30 14 2 7 8
M  V30 15 1 6 15
M  V30 16 1 8 16
M  V30 17 1 9 17
M  V30 18 1 11 18
M  V30 19 1 14 19
M  V30 20 1 14 20
M  V30 END BOND
M  V30 END CTAB
M  END
>  <NO.>
5893

>  <Name>
(e)-2-((5-nitrofuran-2-yl)methylene)hydrazinecarboxamide

>  <SMILES>
NC(=O)N/N=C\c1ccc([N+](=O)[O-])o1

>  <logBB>


>  <Class>
-1

>  <MW>
198.04

>  <nHBAcc>
5

>  <nHBDon>
2

>  <SLogP>
0.19

>  <TopoPSA>
123.76

>  <MMFF94 Energy>
32.721

$$$$
NC(CC(=O)N1CCn2c(nnc2C(F)(F)F)C1)Cc1cc(F)c(F)cc1F
Actelion Java MolfileCreator 2.0

  0  0  0  0  0  0              0 V3000
M  V30 BEGIN CTAB
M  V30 COUNTS 43 45 0 0 0
M  V30 BEGIN ATOM
M  V30 1 F 3.7479 4.0743 0.0813 0
M  V30 2 C 3.4363 2.8308 -0.3073 0
M  V30 3 C 4.441 1.9018 -0.5509 0
M  V30 4 C 2.1021 2.4802 -0.4596 0
M  V30 5 F 5.7271 2.244 -0.4 0
M  V30 6 C 4.1236 0.6056 -0.9511 0
M  V30 7 C 1.7862 1.1849 -0.858 0
M  V30 8 C 2.7805 0.228 -1.1072 0
M  V30 9 F 0.4937 0.856 -0.9894 0
M  V30 10 C 2.4247 -1.1737 -1.5513 0
M  V30 11 C 2.1198 -2.2015 -0.4276 0 CFG=1
M  V30 12 N 3.2455 -2.3373 0.5169 0
M  V30 13 C 0.8399 -1.9045 0.3696 0
M  V30 14 C -0.4188 -2.0126 -0.4782 0
M  V30 15 O -0.3961 -2.5445 -1.5878 0
M  V30 16 N -1.5899 -1.4977 0.057 0
M  V30 17 C -2.7961 -1.4987 -0.783 0
M  V30 18 C -1.7628 -1.0051 1.428 0
M  V30 19 C -3.6069 -0.2724 -0.5287 0
M  V30 20 C -2.2309 0.449 1.4114 0
M  V30 21 N -4.6747 0.1499 -1.1696 0
M  V30 22 N -3.3341 0.6062 0.4866 0
M  V30 23 N -5.0873 1.3249 -0.5819 0
M  V30 24 C -4.2655 1.6045 0.414 0
M  V30 25 C -4.2864 2.7667 1.3315 0
M  V30 26 F -3.069 3.3741 1.3875 0
M  V30 27 F -5.1871 3.7196 0.9912 0
M  V30 28 F -4.5708 2.3851 2.606 0
M  V30 29 H 1.3195 3.2068 -0.2741 0
M  V30 30 H 4.9314 -0.0955 -1.1431 0
M  V30 31 H 3.2576 -1.5615 -2.1548 0
M  V30 32 H 1.5848 -1.1122 -2.2535 0
M  V30 33 H 2.0003 -3.1798 -0.9103 0
M  V30 34 H 3.4595 -1.4372 0.9446 0
M  V30 35 H 4.0838 -2.6159 0.0068 0
M  V30 36 H 0.9038 -0.9115 0.8242 0
M  V30 37 H 0.7343 -2.637 1.1806 0
M  V30 38 H -3.3771 -2.3893 -0.5199 0
M  V30 39 H -2.5364 -1.5583 -1.8444 0
M  V30 40 H -0.8536 -1.1008 2.0239 0
M  V30 41 H -2.5195 -1.6442 1.9007 0
M  V30 42 H -2.5571 0.7603 2.4078 0
M  V30 43 H -1.4331 1.114 1.0632 0
M  V30 END ATOM
M  V30 BEGIN BOND
M  V30 1 1 1 2
M  V30 2 2 2 3
M  V30 3 1 2 4
M  V30 4 1 3 5
M  V30 5 1 3 6
M  V30 6 2 4 7
M  V30 7 2 6 8
M  V30 8 1 7 9
M  V30 9 1 8 10
M  V30 10 1 10 11
M  V30 11 1 11 12
M  V30 12 1 11 13
M  V30 13 1 13 14
M  V30 14 2 14 15
M  V30 15 1 14 16
M  V30 16 1 16 17
M  V30 17 1 16 18
M  V30 18 1 17 19
M  V30 19 1 18 20
M  V30 20 2 19 21
M  V30 21 1 19 22
M  V30 22 1 21 23
M  V30 23 1 22 24
M  V30 24 1 24 25
M  V30 25 1 25 26
M  V30 26 1 25 27
M  V30 27 1 25 28
M  V30 28 1 7 8
M  V30 29 1 20 22
M  V30 30 2 23 24
M  V30 31 1 4 29
M  V30 32 1 6 30
M  V30 33 1 10 31
M  V30 34 1 10 32
M  V30 35 1 11 33
M  V30 36 1 12 34
M  V30 37 1 12 35
M  V30 38 1 13 36
M  V30 39 1 13 37
M  V30 40 1 17 38
M  V30 41 1 17 39
M  V30 42 1 18 40
M  V30 43 1 18 41
M  V30 44 1 20 42
M  V30 45 1 20 43
M  V30 END BOND
M  V30 BEGIN COLLECTION
M  V30 MDLV30/STERAC1 ATOMS=(1 11)
M  V30 END COLLECTION
M  V30 END CTAB
M  END
>  <NO.>
5894

>  <Name>
sitagliptin

>  <SMILES>
NC(CC(=O)N1CCn2c(nnc2C(F)(F)F)C1)Cc1cc(F)c(F)cc1F

>  <logBB>


>  <Class>
-1

>  <MW>
407.12

>  <nHBAcc>
4

>  <nHBDon>
1

>  <SLogP>
2.02

>  <TopoPSA>
77.04

>  <MMFF94 Energy>
38.234

$$$$
NC1CCCCC1N
Actelion Java MolfileCreator 2.0

  0  0  0  0  0  0              0 V3000
M  V30 BEGIN CTAB
M  V30 COUNTS 22 22 0 0 0
M  V30 BEGIN ATOM
M  V30 1 N -1.7012 -1.1597 -1.3917 0
M  V30 2 C -0.9455 -0.5173 -0.3064 0
M  V30 3 C 0.5812 -0.7401 -0.4895 0
M  V30 4 C -1.2686 0.9769 -0.2246 0
M  V30 5 N 0.8888 -2.1754 -0.5938 0
M  V30 6 C 1.3577 -0.0859 0.6585 0
M  V30 7 C -0.4777 1.6465 0.8994 0
M  V30 8 C 1.0242 1.4023 0.7686 0
M  V30 9 H -1.4669 -0.702 -2.2723 0
M  V30 10 H -1.3005 -2.099 -1.4943 0
M  V30 11 H -1.2636 -0.9925 0.6311 0
M  V30 12 H 0.8967 -0.2744 -1.4327 0
M  V30 13 H -1.0307 1.4698 -1.1762 0
M  V30 14 H -2.3412 1.1241 -0.0485 0
M  V30 15 H 0.585 -2.6468 0.2587 0
M  V30 16 H 1.8997 -2.3018 -0.6378 0
M  V30 17 H 1.1182 -0.5812 1.6084 0
M  V30 18 H 2.4368 -0.2019 0.5015 0
M  V30 19 H -0.6763 2.7243 0.8969 0
M  V30 20 H -0.8244 1.2612 1.8664 0
M  V30 21 H 1.3999 1.9246 -0.1198 0
M  V30 22 H 1.5428 1.8318 1.6331 0
M  V30 END ATOM
M  V30 BEGIN BOND
M  V30 1 1 1 2
M  V30 2 1 2 3
M  V30 3 1 2 4
M  V30 4 1 3 5
M  V30 5 1 3 6
M  V30 6 1 4 7
M  V30 7 1 6 8
M  V30 8 1 7 8
M  V30 9 1 1 9
M  V30 10 1 1 10
M  V30 11 1 2 11
M  V30 12 1 3 12
M  V30 13 1 4 13
M  V30 14 1 4 14
M  V30 15 1 5 15
M  V30 16 1 5 16
M  V30 17 1 6 17
M  V30 18 1 6 18
M  V30 19 1 7 19
M  V30 20 1 7 20
M  V30 21 1 8 21
M  V30 22 1 8 22
M  V30 END BOND
M  V30 END CTAB
M  END
>  <NO.>
5898

>  <Name>
oxaliplatin

>  <SMILES>
NC1CCCCC1N

>  <logBB>


>  <Class>
-1

>  <MW>
114.12

>  <nHBAcc>
2

>  <nHBDon>
2

>  <SLogP>
0.21

>  <TopoPSA>
52.04

>  <MMFF94 Energy>
15.615

$$$$
NC1CCCCN(c2c(F)cc3c(=O)c(C(=O)O)cn(C4CC4)c3c2Cl)C1
Actelion Java MolfileCreator 2.0

  0  0  0  0  0  0              0 V3000
M  V30 BEGIN CTAB
M  V30 COUNTS 48 51 0 0 0
M  V30 BEGIN ATOM
M  V30 1 Cl 1.2154 1.2965 -0.0809 0
M  V30 2 C 0.401 -0.2486 -0.0635 0
M  V30 3 C -0.8342 -0.3183 -0.7708 0
M  V30 4 C 0.999 -1.4041 0.5095 0
M  V30 5 N -1.4556 0.8337 -1.2924 0
M  V30 6 C -1.4338 -1.5782 -0.9248 0
M  V30 7 N 2.1846 -1.4314 1.3132 0
M  V30 8 C 0.3659 -2.6456 0.254 0
M  V30 9 C -2.2831 1.5641 -0.3296 0
M  V30 10 C -1.783 0.8384 -2.7144 0
M  V30 11 F -2.6086 -1.6883 -1.5654 0
M  V30 12 C -0.8432 -2.7313 -0.442 0
M  V30 13 C 2.821 -2.6375 1.5556 0
M  V30 14 C 2.7444 -0.2477 1.9971 0
M  V30 15 C 0.9821 -3.9178 0.7165 0
M  V30 16 C -2.9426 2.8588 -0.8704 0 CFG=1
M  V30 17 C -1.1262 2.0446 -3.3815 0
M  V30 18 C 2.3417 -3.8617 1.2958 0
M  V30 19 C 1.944 0.5385 3.0095 0
M  V30 20 C 3.1097 -0.2747 3.4668 0
M  V30 21 O 0.3563 -4.9665 0.6123 0
M  V30 22 N -3.5234 3.6413 0.2394 0
M  V30 23 C -1.9706 3.7634 -1.6432 0
M  V30 24 C -1.8277 3.3726 -3.116 0
M  V30 25 C 3.1265 -5.0734 1.5868 0
M  V30 26 O 2.9398 -6.1926 1.1476 0
M  V30 27 O 4.1574 -4.8503 2.4278 0
M  V30 28 H -1.6691 1.8255 0.5426 0
M  V30 29 H -3.0804 0.904 0.0394 0
M  V30 30 H -1.3858 -0.0565 -3.2107 0
M  V30 31 H -2.8674 0.8268 -2.8746 0
M  V30 32 H -1.3312 -3.6876 -0.6125 0
M  V30 33 H 3.8024 -2.5143 2.0093 0
M  V30 34 H 3.4402 0.2962 1.3614 0
M  V30 35 H -3.7771 2.5848 -1.5269 0
M  V30 36 H -0.0755 2.1199 -3.0748 0
M  V30 37 H -1.1225 1.8808 -4.4664 0
M  V30 38 H 0.9514 0.1887 3.267 0
M  V30 39 H 2.0464 1.6175 3.005 0
M  V30 40 H 4.0074 0.2505 3.772 0
M  V30 41 H 2.8968 -1.1621 4.0509 0
M  V30 42 H -4.14 3.0495 0.7948 0
M  V30 43 H -2.7795 3.9515 0.8647 0
M  V30 44 H -0.9886 3.7902 -1.155 0
M  V30 45 H -2.3473 4.7956 -1.6331 0
M  V30 46 H -1.2622 4.1619 -3.6271 0
M  V30 47 H -2.8196 3.3579 -3.5852 0
M  V30 48 H 4.5605 -5.7401 2.5234 0
M  V30 END ATOM
M  V30 BEGIN BOND
M  V30 1 1 1 2
M  V30 2 2 2 3
M  V30 3 1 2 4
M  V30 4 1 3 5
M  V30 5 1 3 6
M  V30 6 1 4 7
M  V30 7 2 4 8
M  V30 8 1 5 9
M  V30 9 1 5 10
M  V30 10 1 6 11
M  V30 11 2 6 12
M  V30 12 1 7 13
M  V30 13 1 7 14
M  V30 14 1 8 15
M  V30 15 1 9 16
M  V30 16 1 10 17
M  V30 17 2 13 18
M  V30 18 1 14 19
M  V30 19 1 14 20
M  V30 20 2 15 21
M  V30 21 1 16 22
M  V30 22 1 16 23
M  V30 23 1 17 24
M  V30 24 1 18 25
M  V30 25 2 25 26
M  V30 26 1 25 27
M  V30 27 1 8 12
M  V30 28 1 15 18
M  V30 29 1 19 20
M  V30 30 1 23 24
M  V30 31 1 9 28
M  V30 32 1 9 29
M  V30 33 1 10 30
M  V30 34 1 10 31
M  V30 35 1 12 32
M  V30 36 1 13 33
M  V30 37 1 14 34
M  V30 38 1 16 35
M  V30 39 1 17 36
M  V30 40 1 17 37
M  V30 41 1 19 38
M  V30 42 1 19 39
M  V30 43 1 20 40
M  V30 44 1 20 41
M  V30 45 1 22 42
M  V30 46 1 22 43
M  V30 47 1 23 44
M  V30 48 1 23 45
M  V30 49 1 24 46
M  V30 50 1 24 47
M  V30 51 1 27 48
M  V30 END BOND
M  V30 BEGIN COLLECTION
M  V30 MDLV30/STERAC1 ATOMS=(1 16)
M  V30 END COLLECTION
M  V30 END CTAB
M  END
>  <NO.>
5899

>  <Name>
besifloxacin

>  <SMILES>
NC1CCCCN(c2c(F)cc3c(=O)c(C(=O)O)cn(C4CC4)c3c2Cl)C1

>  <logBB>


>  <Class>
-1

>  <MW>
393.13

>  <nHBAcc>
4

>  <nHBDon>
2

>  <SLogP>
3.14

>  <TopoPSA>
88.56

>  <MMFF94 Energy>
101.29

$$$$
NC1CCN(c2nc3c(cc2F)c(=O)c(C(=O)O)cn3-c2ccc(F)cc2F)C1
Actelion Java MolfileCreator 2.0

  0  0  0  0  0  0              0 V3000
M  V30 BEGIN CTAB
M  V30 COUNTS 44 47 0 0 0
M  V30 BEGIN ATOM
M  V30 1 F -1.9473 1.9473 3.0846 0
M  V30 2 C -1.7179 1.0981 2.0708 0
M  V30 3 C -0.5195 1.1241 1.3502 0
M  V30 4 C -2.7103 0.1826 1.7534 0
M  V30 5 N -0.3234 0.239 0.34 0
M  V30 6 N 0.4935 2.0058 1.6079 0
M  V30 7 C -2.4871 -0.7159 0.7134 0
M  V30 8 C -1.2724 -0.6828 0.0257 0
M  V30 9 C 1.7592 1.9498 0.8834 0
M  V30 10 C 0.4583 3.1002 2.5658 0
M  V30 11 C -3.5484 -1.6686 0.3237 0
M  V30 12 N -1.0477 -1.6033 -1.0521 0
M  V30 13 C 2.6841 2.8588 1.7221 0 CFG=2
M  V30 14 C 1.7117 3.9158 2.2394 0
M  V30 15 O -4.6335 -1.6267 0.8921 0
M  V30 16 C -3.2562 -2.6049 -0.7832 0
M  V30 17 C 0.1922 -1.6435 -1.7636 0
M  V30 18 C -2.0623 -2.493 -1.3847 0
M  V30 19 N 3.811 3.4458 1.0022 0
M  V30 20 C -4.1649 -3.649 -1.2718 0
M  V30 21 C 1.4203 -1.8122 -1.0954 0
M  V30 22 C 0.215 -1.5205 -3.1655 0
M  V30 23 O -4.1584 -4.1204 -2.3973 0
M  V30 24 O -4.9982 -4.1157 -0.3325 0
M  V30 25 F 1.448 -2.0095 0.2322 0
M  V30 26 C 2.6286 -1.8406 -1.7845 0
M  V30 27 C 1.4263 -1.5468 -3.8621 0
M  V30 28 C 2.619 -1.7033 -3.1641 0
M  V30 29 F 3.7763 -1.7304 -3.8373 0
M  V30 30 H -3.641 0.1841 2.3124 0
M  V30 31 H 2.1765 0.9378 0.8278 0
M  V30 32 H 1.6271 2.3412 -0.1326 0
M  V30 33 H 0.5083 2.7101 3.5886 0
M  V30 34 H -0.4332 3.7269 2.4583 0
M  V30 35 H 3.0702 2.2825 2.5735 0
M  V30 36 H 2.0911 4.4582 3.1109 0
M  V30 37 H 1.4806 4.6494 1.4559 0
M  V30 38 H -1.7982 -3.1712 -2.1957 0
M  V30 39 H 4.3591 4.0244 1.6374 0
M  V30 40 H 4.4318 2.7051 0.6776 0
M  V30 41 H -0.7097 -1.3758 -3.7195 0
M  V30 42 H -5.5493 -4.7866 -0.7841 0
M  V30 43 H 3.5608 -1.9777 -1.2501 0
M  V30 44 H 1.4465 -1.44 -4.9426 0
M  V30 END ATOM
M  V30 BEGIN BOND
M  V30 1 1 1 2
M  V30 2 2 2 3
M  V30 3 1 2 4
M  V30 4 1 3 5
M  V30 5 1 3 6
M  V30 6 2 4 7
M  V30 7 2 5 8
M  V30 8 1 6 9
M  V30 9 1 6 10
M  V30 10 1 7 11
M  V30 11 1 8 12
M  V30 12 1 9 13
M  V30 13 1 10 14
M  V30 14 2 11 15
M  V30 15 1 11 16
M  V30 16 1 12 17
M  V30 17 1 12 18
M  V30 18 1 13 19
M  V30 19 1 16 20
M  V30 20 2 17 21
M  V30 21 1 17 22
M  V30 22 2 20 23
M  V30 23 1 20 24
M  V30 24 1 21 25
M  V30 25 1 21 26
M  V30 26 2 22 27
M  V30 27 2 26 28
M  V30 28 1 28 29
M  V30 29 1 7 8
M  V30 30 1 13 14
M  V30 31 2 16 18
M  V30 32 1 27 28
M  V30 33 1 4 30
M  V30 34 1 9 31
M  V30 35 1 9 32
M  V30 36 1 10 33
M  V30 37 1 10 34
M  V30 38 1 13 35
M  V30 39 1 14 36
M  V30 40 1 14 37
M  V30 41 1 18 38
M  V30 42 1 19 39
M  V30 43 1 19 40
M  V30 44 1 22 41
M  V30 45 1 24 42
M  V30 46 1 26 43
M  V30 47 1 27 44
M  V30 END BOND
M  V30 BEGIN COLLECTION
M  V30 MDLV30/STERAC1 ATOMS=(1 13)
M  V30 END COLLECTION
M  V30 END CTAB
M  END
>  <NO.>
5900

>  <Name>
tosufloxacin

>  <SMILES>
NC1CCN(c2nc3c(cc2F)c(=O)c(C(=O)O)cn3-c2ccc(F)cc2F)C1

>  <logBB>


>  <Class>
-1

>  <MW>
404.11

>  <nHBAcc>
5

>  <nHBDon>
2

>  <SLogP>
2.04

>  <TopoPSA>
101.45

>  <MMFF94 Energy>
44.844

$$$$
Nc1ccc(C(=O)NCC(=O)O)cc1
Actelion Java MolfileCreator 2.0

  0  0  0  0  0  0              0 V3000
M  V30 BEGIN CTAB
M  V30 COUNTS 24 24 0 0 0
M  V30 BEGIN ATOM
M  V30 1 O 0.6241 2.2639 -0.7802 0
M  V30 2 C 0.1815 1.1282 -0.6472 0
M  V30 3 N -0.7062 0.57 -1.536 0
M  V30 4 C 0.5707 0.2974 0.5267 0
M  V30 5 C -1.1421 1.3007 -2.7141 0
M  V30 6 C 0.5308 -1.1007 0.5045 0
M  V30 7 C 1.0189 0.9497 1.6805 0
M  V30 8 C -2.0725 0.436 -3.541 0
M  V30 9 C 0.9106 -1.8303 1.6378 0
M  V30 10 C 1.3956 0.2118 2.8075 0
M  V30 11 O -2.4564 -0.6893 -3.2553 0
M  V30 12 O -2.4779 1.0342 -4.6778 0
M  V30 13 C 1.3308 -1.1825 2.8018 0
M  V30 14 N 1.7295 -1.9097 3.9067 0
M  V30 15 H -1.135 -0.3319 -1.363 0
M  V30 16 H -0.2602 1.5657 -3.3044 0
M  V30 17 H -1.6694 2.2018 -2.3875 0
M  V30 18 H 0.2375 -1.6458 -0.387 0
M  V30 19 H 1.0772 2.0361 1.7073 0
M  V30 20 H 0.8822 -2.9164 1.5995 0
M  V30 21 H 1.7431 0.7413 3.6908 0
M  V30 22 H -3.0665 0.3771 -5.1053 0
M  V30 23 H 1.9867 -1.4392 4.7637 0
M  V30 24 H 1.6334 -2.9154 3.9238 0
M  V30 END ATOM
M  V30 BEGIN BOND
M  V30 1 2 1 2
M  V30 2 1 2 3
M  V30 3 1 2 4
M  V30 4 1 3 5
M  V30 5 2 4 6
M  V30 6 1 4 7
M  V30 7 1 5 8
M  V30 8 1 6 9
M  V30 9 2 7 10
M  V30 10 2 8 11
M  V30 11 1 8 12
M  V30 12 2 9 13
M  V30 13 1 13 14
M  V30 14 1 10 13
M  V30 15 1 3 15
M  V30 16 1 5 16
M  V30 17 1 5 17
M  V30 18 1 6 18
M  V30 19 1 7 19
M  V30 20 1 9 20
M  V30 21 1 10 21
M  V30 22 1 12 22
M  V30 23 1 14 23
M  V30 24 1 14 24
M  V30 END BOND
M  V30 END CTAB
M  END
>  <NO.>
5906

>  <Name>
4-aminohippuric acid

>  <SMILES>
Nc1ccc(C(=O)NCC(=O)O)cc1

>  <logBB>


>  <Class>
-1

>  <MW>
194.07

>  <nHBAcc>
3

>  <nHBDon>
3

>  <SLogP>
0.08

>  <TopoPSA>
92.42

>  <MMFF94 Energy>
7.1222

$$$$
Nc1ccc(S(=O)(=O)Nc2nccs2)cc1
Actelion Java MolfileCreator 2.0

  0  0  0  0  0  0              0 V3000
M  V30 BEGIN CTAB
M  V30 COUNTS 25 26 0 0 0
M  V30 BEGIN ATOM
M  V30 1 S -0.8322 -0.5824 -2.4148 0
M  V30 2 O 0.0467 -1.0538 -3.4655 0
M  V30 3 O -1.9832 0.2399 -2.7219 0
M  V30 4 N -1.3539 -1.95 -1.5907 0
M  V30 5 C 0.1881 0.3022 -1.2561 0
M  V30 6 C -1.7139 -1.738 -0.2108 0
M  V30 7 C -0.2545 1.509 -0.7115 0
M  V30 8 C 1.4443 -0.2081 -0.9222 0
M  V30 9 S -3.0635 -0.8452 0.3304 0
M  V30 10 N -1.0014 -2.3402 0.7084 0
M  V30 11 C 0.5607 2.1934 0.1937 0
M  V30 12 C 2.2483 0.4874 -0.0152 0
M  V30 13 C -2.6365 -1.2232 1.9485 0
M  V30 14 C -1.5174 -2.0292 1.9526 0
M  V30 15 C 1.8218 1.6983 0.5389 0
M  V30 16 N 2.6047 2.3593 1.4675 0
M  V30 17 H -0.6881 -2.7119 -1.6944 0
M  V30 18 H -1.2253 1.9218 -0.9768 0
M  V30 19 H 1.8025 -1.1392 -1.3537 0
M  V30 20 H 0.2031 3.1251 0.6253 0
M  V30 21 H 3.2182 0.0764 0.253 0
M  V30 22 H -3.21 -0.8582 2.7885 0
M  V30 23 H -1.0374 -2.4245 2.8401 0
M  V30 24 H 3.5478 2.0461 1.6532 0
M  V30 25 H 2.3359 3.2752 1.8006 0
M  V30 END ATOM
M  V30 BEGIN BOND
M  V30 1 2 1 2
M  V30 2 2 1 3
M  V30 3 1 1 4
M  V30 4 1 1 5
M  V30 5 1 4 6
M  V30 6 2 5 7
M  V30 7 1 5 8
M  V30 8 1 6 9
M  V30 9 2 6 10
M  V30 10 1 7 11
M  V30 11 2 8 12
M  V30 12 1 9 13
M  V30 13 1 10 14
M  V30 14 2 11 15
M  V30 15 1 15 16
M  V30 16 1 12 15
M  V30 17 2 13 14
M  V30 18 1 4 17
M  V30 19 1 7 18
M  V30 20 1 8 19
M  V30 21 1 11 20
M  V30 22 1 12 21
M  V30 23 1 13 22
M  V30 24 1 14 23
M  V30 25 1 16 24
M  V30 26 1 16 25
M  V30 END BOND
M  V30 END CTAB
M  END
>  <NO.>
5907

>  <Name>
sulfathiazole

>  <SMILES>
Nc1ccc(S(=O)(=O)Nc2nccs2)cc1

>  <logBB>


>  <Class>
-1

>  <MW>
255.01

>  <nHBAcc>
5

>  <nHBDon>
2

>  <SLogP>
1.53

>  <TopoPSA>
85.08

>  <MMFF94 Energy>
-76.707

$$$$
Nc1ccc2cc3ccc(N)cc3nc2c1
Actelion Java MolfileCreator 2.0

  0  0  0  0  0  0              0 V3000
M  V30 BEGIN CTAB
M  V30 COUNTS 27 29 0 0 0
M  V30 BEGIN ATOM
M  V30 1 N -1.1071 0.3952 -0.079 0
M  V30 2 C -0.8016 -0.8519 -0.4817 0
M  V30 3 C -0.1466 1.1701 0.4578 0
M  V30 4 C 0.4944 -1.384 -0.3637 0
M  V30 5 C -1.7926 -1.6535 -1.0369 0
M  V30 6 C 1.1773 0.7246 0.6174 0
M  V30 7 C -0.4606 2.4587 0.8748 0
M  V30 8 C 1.487 -0.5726 0.1958 0
M  V30 9 C 0.7639 -2.6898 -0.8019 0
M  V30 10 C -1.5444 -2.961 -1.4678 0
M  V30 11 C 2.1428 1.5697 1.1865 0
M  V30 12 C 0.4914 3.3184 1.4329 0
M  V30 13 C -0.2529 -3.4683 -1.3543 0
M  V30 14 N -2.5509 -3.7196 -2.0369 0
M  V30 15 C 1.7951 2.8574 1.5945 0
M  V30 16 N 0.1354 4.5854 1.8578 0
M  V30 17 H -2.7913 -1.235 -1.1312 0
M  V30 18 H -1.4869 2.796 0.7548 0
M  V30 19 H 2.5004 -0.9507 0.3032 0
M  V30 20 H 1.7642 -3.1072 -0.719 0
M  V30 21 H 3.1675 1.2315 1.3181 0
M  V30 22 H -0.0261 -4.4749 -1.6945 0
M  V30 23 H -2.3868 -4.6804 -2.3025 0
M  V30 24 H -3.4971 -3.3651 -2.0768 0
M  V30 25 H 2.5529 3.4967 2.0391 0
M  V30 26 H -0.8005 4.9333 1.6985 0
M  V30 27 H 0.831 5.2256 2.2145 0
M  V30 END ATOM
M  V30 BEGIN BOND
M  V30 1 1 1 2
M  V30 2 2 1 3
M  V30 3 1 2 4
M  V30 4 2 2 5
M  V30 5 1 3 6
M  V30 6 1 3 7
M  V30 7 1 4 8
M  V30 8 2 4 9
M  V30 9 1 5 10
M  V30 10 1 6 11
M  V30 11 2 7 12
M  V30 12 1 9 13
M  V30 13 1 10 14
M  V30 14 2 11 15
M  V30 15 1 12 16
M  V30 16 2 6 8
M  V30 17 2 10 13
M  V30 18 1 12 15
M  V30 19 1 5 17
M  V30 20 1 7 18
M  V30 21 1 8 19
M  V30 22 1 9 20
M  V30 23 1 11 21
M  V30 24 1 13 22
M  V30 25 1 14 23
M  V30 26 1 14 24
M  V30 27 1 15 25
M  V30 28 1 16 26
M  V30 29 1 16 27
M  V30 END BOND
M  V30 END CTAB
M  END
>  <NO.>
5909

>  <Name>
proflavine

>  <SMILES>
Nc1ccc2cc3ccc(N)cc3nc2c1

>  <logBB>


>  <Class>
-1

>  <MW>
209.1

>  <nHBAcc>
3

>  <nHBDon>
2

>  <SLogP>
2.55

>  <TopoPSA>
64.93

>  <MMFF94 Energy>
32.112

$$$$
Nc1ccncc1
Actelion Java MolfileCreator 2.0

  0  0  0  0  0  0              0 V3000
M  V30 BEGIN CTAB
M  V30 COUNTS 13 13 0 0 0
M  V30 BEGIN ATOM
M  V30 1 N -2.0783 0.3846 -0.1538 0
M  V30 2 C -1.4445 -0.455 -0.9981 0
M  V30 3 C -1.3147 0.9684 0.7927 0
M  V30 4 C -0.0886 -0.7385 -0.934 0
M  V30 5 C 0.0467 0.746 0.9337 0
M  V30 6 C 0.6762 -0.1345 0.0592 0
M  V30 7 N 2.0363 -0.3686 0.1468 0
M  V30 8 H -2.0739 -0.9103 -1.7571 0
M  V30 9 H -1.8407 1.6459 1.4589 0
M  V30 10 H 0.3539 -1.42 -1.6504 0
M  V30 11 H 0.598 1.2551 1.7152 0
M  V30 12 H 2.5811 0.0341 0.8969 0
M  V30 13 H 2.4827 -1.0434 -0.4588 0
M  V30 END ATOM
M  V30 BEGIN BOND
M  V30 1 2 1 2
M  V30 2 1 1 3
M  V30 3 1 2 4
M  V30 4 2 3 5
M  V30 5 2 4 6
M  V30 6 1 6 7
M  V30 7 1 5 6
M  V30 8 1 2 8
M  V30 9 1 3 9
M  V30 10 1 4 10
M  V30 11 1 5 11
M  V30 12 1 7 12
M  V30 13 1 7 13
M  V30 END BOND
M  V30 END CTAB
M  END
>  <NO.>
5911

>  <Name>
4-aminopyridine

>  <SMILES>
Nc1ccncc1

>  <logBB>


>  <Class>
1

>  <MW>
94.05

>  <nHBAcc>
2

>  <nHBDon>
1

>  <SLogP>
0.66

>  <TopoPSA>
38.91

>  <MMFF94 Energy>
4.7315

$$$$
Nc1nc(CC(=O)Nc2ccc(CCNCC(O)c3ccccc3)cc2)cs1
Actelion Java MolfileCreator 2.0

  0  0  0  0  0  0              0 V3000
M  V30 BEGIN CTAB
M  V30 COUNTS 52 54 0 0 0
M  V30 BEGIN ATOM
M  V30 1 S -4.7952 4.3149 3.6747 0
M  V30 2 C -3.8292 2.9411 4.0277 0
M  V30 3 C -5.0921 3.6975 2.1056 0
M  V30 4 N -3.7157 2.0693 3.0552 0
M  V30 5 N -3.2394 2.7916 5.2166 0
M  V30 6 C -4.4421 2.4898 1.9454 0
M  V30 7 C -4.4363 1.6255 0.7284 0
M  V30 8 C -3.121 1.7024 -0.0322 0
M  V30 9 O -3.1196 1.8167 -1.2563 0
M  V30 10 N -2.0056 1.5421 0.7714 0
M  V30 11 C -0.6556 1.518 0.3782 0
M  V30 12 C 0.2775 1.0833 1.3251 0
M  V30 13 C -0.2068 1.9123 -0.8818 0
M  V30 14 C 1.6367 1.0186 1.0082 0
M  V30 15 C 1.1542 1.8509 -1.2001 0
M  V30 16 C 2.087 1.3961 -0.2611 0
M  V30 17 C 3.5487 1.2721 -0.6261 0
M  V30 18 C 3.8645 0.0028 -1.4379 0
M  V30 19 N 3.7036 -1.2091 -0.6262 0
M  V30 20 C 3.9651 -2.4418 -1.3931 0
M  V30 21 C 2.8728 -2.9342 -2.3853 0 CFG=2
M  V30 22 O 2.8422 -2.1204 -3.5609 0
M  V30 23 C 1.4929 -3.0744 -1.7684 0
M  V30 24 C 0.5749 -2.0119 -1.7726 0
M  V30 25 C 1.1212 -4.2772 -1.1487 0
M  V30 26 C -0.6818 -2.1499 -1.182 0
M  V30 27 C -0.1377 -4.415 -0.5597 0
M  V30 28 C -1.0385 -3.3521 -0.5771 0
M  V30 29 H -5.7073 4.2338 1.3968 0
M  V30 30 H -3.3376 3.477 5.9532 0
M  V30 31 H -2.6857 1.9686 5.4117 0
M  V30 32 H -5.2471 1.9205 0.0524 0
M  V30 33 H -4.6054 0.5806 1.0127 0
M  V30 34 H -2.1891 1.4437 1.7701 0
M  V30 35 H -0.0414 0.773 2.3167 0
M  V30 36 H -0.8924 2.2767 -1.6405 0
M  V30 37 H 2.3415 0.6556 1.7535 0
M  V30 38 H 1.4769 2.1532 -2.194 0
M  V30 39 H 4.167 1.3054 0.2802 0
M  V30 40 H 3.837 2.1537 -1.2131 0
M  V30 41 H 4.9033 0.068 -1.7819 0
M  V30 42 H 3.2207 -0.0224 -2.3221 0
M  V30 43 H 2.7444 -1.2423 -0.2739 0
M  V30 44 H 4.1125 -3.2324 -0.6468 0
M  V30 45 H 4.9192 -2.3388 -1.9247 0
M  V30 46 H 3.1821 -3.9251 -2.7415 0
M  V30 47 H 1.9962 -2.3027 -4.0051 0
M  V30 48 H 0.8374 -1.0582 -2.2263 0
M  V30 49 H 1.8116 -5.1173 -1.1173 0
M  V30 50 H -1.3772 -1.3132 -1.1908 0
M  V30 51 H -0.4146 -5.3521 -0.0835 0
M  V30 52 H -2.0168 -3.4583 -0.1163 0
M  V30 END ATOM
M  V30 BEGIN BOND
M  V30 1 1 1 2
M  V30 2 1 1 3
M  V30 3 2 2 4
M  V30 4 1 2 5
M  V30 5 2 3 6
M  V30 6 1 6 7
M  V30 7 1 7 8
M  V30 8 2 8 9
M  V30 9 1 8 10
M  V30 10 1 10 11
M  V30 11 2 11 12
M  V30 12 1 11 13
M  V30 13 1 12 14
M  V30 14 2 13 15
M  V30 15 2 14 16
M  V30 16 1 16 17
M  V30 17 1 17 18
M  V30 18 1 18 19
M  V30 19 1 19 20
M  V30 20 1 20 21
M  V30 21 1 21 22
M  V30 22 1 21 23
M  V30 23 2 23 24
M  V30 24 1 23 25
M  V30 25 1 24 26
M  V30 26 2 25 27
M  V30 27 2 26 28
M  V30 28 1 4 6
M  V30 29 1 15 16
M  V30 30 1 27 28
M  V30 31 1 3 29
M  V30 32 1 5 30
M  V30 33 1 5 31
M  V30 34 1 7 32
M  V30 35 1 7 33
M  V30 36 1 10 34
M  V30 37 1 12 35
M  V30 38 1 13 36
M  V30 39 1 14 37
M  V30 40 1 15 38
M  V30 41 1 17 39
M  V30 42 1 17 40
M  V30 43 1 18 41
M  V30 44 1 18 42
M  V30 45 1 19 43
M  V30 46 1 20 44
M  V30 47 1 20 45
M  V30 48 1 21 46
M  V30 49 1 22 47
M  V30 50 1 24 48
M  V30 51 1 25 49
M  V30 52 1 26 50
M  V30 53 1 27 51
M  V30 54 1 28 52
M  V30 END BOND
M  V30 BEGIN COLLECTION
M  V30 MDLV30/STERAC1 ATOMS=(1 21)
M  V30 END COLLECTION
M  V30 END CTAB
M  END
>  <NO.>
5913

>  <Name>
(s)-mirabegron

>  <SMILES>
Nc1nc(CC(=O)Nc2ccc(CCNCC(O)c3ccccc3)cc2)cs1

>  <logBB>


>  <Class>
1

>  <MW>
396.16

>  <nHBAcc>
6

>  <nHBDon>
4

>  <SLogP>
2.77

>  <TopoPSA>
100.27

>  <MMFF94 Energy>
43.037

$$$$
O=C(/C=C\n1cnc(-c2cc(C(F)(F)F)cc(C(F)(F)F)c2)n1)NNc1cnccn1
Actelion Java MolfileCreator 2.0

  0  0  0  0  0  0              0 V3000
M  V30 BEGIN CTAB
M  V30 COUNTS 42 44 0 0 0
M  V30 BEGIN ATOM
M  V30 1 F -6.3792 1.7144 -0.3263 0
M  V30 2 C -5.6861 1.5875 -1.4903 0
M  V30 3 F -4.9568 2.7292 -1.6232 0
M  V30 4 F -6.6164 1.6242 -2.4851 0
M  V30 5 C -4.8408 0.3362 -1.5203 0
M  V30 6 C -3.5619 0.3328 -0.9389 0
M  V30 7 C -5.3292 -0.8498 -2.0918 0
M  V30 8 C -2.7691 -0.8242 -0.9327 0
M  V30 9 C -4.5517 -2.0191 -2.107 0
M  V30 10 C -1.4422 -0.804 -0.3215 0
M  V30 11 C -3.2763 -1.9937 -1.5182 0
M  V30 12 C -5.0862 -3.2977 -2.7069 0
M  V30 13 N -0.6245 -1.8616 -0.2793 0
M  V30 14 N -0.9232 0.322 0.2498 0
M  V30 15 F -5.6697 -4.1004 -1.7758 0
M  V30 16 F -6.0329 -3.0829 -3.6625 0
M  V30 17 F -4.1218 -4.0514 -3.3034 0
M  V30 18 N 0.4741 -1.4036 0.3883 0
M  V30 19 C 0.253 -0.0717 0.677 0
M  V30 20 C 1.5934 -2.2096 0.6233 0
M  V30 21 C 2.7414 -2.0016 1.285 0
M  V30 22 C 3.0959 -0.8196 2.0967 0
M  V30 23 O 2.2986 -0.2975 2.8631 0
M  V30 24 N 4.4005 -0.4205 1.9067 0
M  V30 25 N 4.8617 0.663 2.6376 0
M  V30 26 C 5.1643 1.8614 1.9909 0
M  V30 27 N 5.1634 2.9726 2.7605 0
M  V30 28 C 5.4903 1.9572 0.6364 0
M  V30 29 C 5.467 4.14 2.1439 0
M  V30 30 N 5.802 3.1216 0.0091 0
M  V30 31 C 5.7784 4.2142 0.799 0
M  V30 32 H -3.1797 1.2476 -0.4822 0
M  V30 33 H -6.3276 -0.8622 -2.5333 0
M  V30 34 H -2.6719 -2.9019 -1.5163 0
M  V30 35 H 0.9707 0.5624 1.1727 0
M  V30 36 H 1.4727 -3.1827 0.1507 0
M  V30 37 H 3.4833 -2.7954 1.298 0
M  V30 38 H 5.0733 -0.9218 1.3368 0
M  V30 39 H 4.5198 0.7939 3.5902 0
M  V30 40 H 5.5145 1.0841 -0.0036 0
M  V30 41 H 5.4526 5.0241 2.7713 0
M  V30 42 H 6.0187 5.157 0.3215 0
M  V30 END ATOM
M  V30 BEGIN BOND
M  V30 1 1 1 2
M  V30 2 1 2 3
M  V30 3 1 2 4
M  V30 4 1 2 5
M  V30 5 2 5 6
M  V30 6 1 5 7
M  V30 7 1 6 8
M  V30 8 2 7 9
M  V30 9 1 8 10
M  V30 10 2 8 11
M  V30 11 1 9 12
M  V30 12 2 10 13
M  V30 13 1 10 14
M  V30 14 1 12 15
M  V30 15 1 12 16
M  V30 16 1 12 17
M  V30 17 1 13 18
M  V30 18 2 14 19
M  V30 19 1 18 20
M  V30 20 2 20 21
M  V30 21 1 21 22
M  V30 22 2 22 23
M  V30 23 1 22 24
M  V30 24 1 24 25
M  V30 25 1 25 26
M  V30 26 2 26 27
M  V30 27 1 26 28
M  V30 28 1 27 29
M  V30 29 2 28 30
M  V30 30 2 29 31
M  V30 31 1 9 11
M  V30 32 1 18 19
M  V30 33 1 30 31
M  V30 34 1 6 32
M  V30 35 1 7 33
M  V30 36 1 11 34
M  V30 37 1 19 35
M  V30 38 1 20 36
M  V30 39 1 21 37
M  V30 40 1 24 38
M  V30 41 1 25 39
M  V30 42 1 28 40
M  V30 43 1 29 41
M  V30 44 1 31 42
M  V30 END BOND
M  V30 END CTAB
M  END
>  <NO.>
5922

>  <Name>
selinexor

>  <SMILES>
O=C(/C=C\n1cnc(-c2cc(C(F)(F)F)cc(C(F)(F)F)c2)n1)NNc1cnccn1

>  <logBB>


>  <Class>
-1

>  <MW>
443.09

>  <nHBAcc>
6

>  <nHBDon>
2

>  <SLogP>
3.39

>  <TopoPSA>
97.62

>  <MMFF94 Energy>
153.97

$$$$
O=C(C[S+]([O-])Cc1ccco1)NC/C=C/COc1cc(CN2CCCCC2)ccn1
Actelion Java MolfileCreator 2.0

  0  0  0  0  0  0              0 V3000
M  V30 BEGIN CTAB
M  V30 COUNTS 59 61 0 0 0
M  V30 BEGIN ATOM
M  V30 1 S 2.885 -2.0028 -2.4839 0 CFG=2
M  V30 2 O 2.2649 -1.6373 -1.1648 0
M  V30 3 C 4.6784 -2.2352 -2.2538 0
M  V30 4 C 2.9836 -0.5006 -3.4929 0
M  V30 5 C 4.9431 -3.5711 -1.6706 0
M  V30 6 C 3.8084 0.5955 -2.8633 0
M  V30 7 O 5.4407 -4.519 -2.5167 0
M  V30 8 C 4.8006 -4.0994 -0.4037 0
M  V30 9 O 4.8694 0.9669 -3.3589 0
M  V30 10 N 3.2784 1.1381 -1.722 0
M  V30 11 C 5.612 -5.6508 -1.7865 0
M  V30 12 C 5.2322 -5.4448 -0.4814 0
M  V30 13 C 3.9114 2.2314 -1.0297 0
M  V30 14 C 3.21 2.3825 0.2764 0
M  V30 15 C 2.3165 3.3447 0.5601 0
M  V30 16 C 1.5175 3.373 1.8336 0
M  V30 17 O 0.1179 3.3257 1.5439 0
M  V30 18 C -0.3706 2.0618 1.2668 0
M  V30 19 N 0.4442 0.989 1.3243 0
M  V30 20 C -1.7095 1.9922 0.9124 0
M  V30 21 C -0.0939 -0.2026 0.9884 0
M  V30 22 C -2.2546 0.7475 0.5833 0
M  V30 23 C -1.4172 -0.3717 0.6164 0
M  V30 24 C -3.7049 0.619 0.1755 0
M  V30 25 N -4.4552 -0.3413 1.0 0
M  V30 26 C -5.7496 -0.6864 0.3939 0
M  V30 27 C -4.6381 0.0999 2.3924 0
M  V30 28 C -6.7964 0.427 0.4814 0
M  V30 29 C -5.6457 1.2403 2.5621 0
M  V30 30 C -6.9852 0.8962 1.9199 0
M  V30 31 H 5.1676 -2.1413 -3.2284 0
M  V30 32 H 5.0591 -1.4534 -1.59 0
M  V30 33 H 1.9648 -0.1373 -3.6596 0
M  V30 34 H 3.413 -0.7667 -4.4635 0
M  V30 35 H 4.4213 -3.575 0.4633 0
M  V30 36 H 2.4502 0.7123 -1.3067 0
M  V30 37 H 6.0036 -6.501 -2.3272 0
M  V30 38 H 5.2608 -6.1753 0.3144 0
M  V30 39 H 4.9726 2.0093 -0.8794 0
M  V30 40 H 3.8315 3.1264 -1.6557 0
M  V30 41 H 3.3994 1.6014 1.0113 0
M  V30 42 H 2.0852 4.113 -0.1721 0
M  V30 43 H 1.8123 2.6039 2.5585 0
M  V30 44 H 1.7026 4.3352 2.325 0
M  V30 45 H -2.3083 2.8958 0.8901 0
M  V30 46 H 0.5889 -1.0475 1.02 0
M  V30 47 H -1.792 -1.3585 0.3637 0
M  V30 48 H -3.6962 0.2805 -0.8694 0
M  V30 49 H -4.1831 1.6055 0.1669 0
M  V30 50 H -6.1391 -1.5793 0.9005 0
M  V30 51 H -5.613 -0.9848 -0.6525 0
M  V30 52 H -3.682 0.3838 2.8466 0
M  V30 53 H -4.9838 -0.7624 2.9779 0
M  V30 54 H -7.7523 0.0634 0.0873 0
M  V30 55 H -6.4996 1.275 -0.1469 0
M  V30 56 H -5.2513 2.1633 2.1214 0
M  V30 57 H -5.7942 1.4417 3.6292 0
M  V30 58 H -7.6507 1.766 1.9482 0
M  V30 59 H -7.4717 0.1019 2.4995 0
M  V30 END ATOM
M  V30 BEGIN BOND
M  V30 1 2 1 2
M  V30 2 1 1 3
M  V30 3 1 1 4
M  V30 4 1 3 5
M  V30 5 1 4 6
M  V30 6 1 5 7
M  V30 7 2 5 8
M  V30 8 2 6 9
M  V30 9 1 6 10
M  V30 10 1 7 11
M  V30 11 1 8 12
M  V30 12 1 10 13
M  V30 13 1 13 14
M  V30 14 2 14 15
M  V30 15 1 15 16
M  V30 16 1 16 17
M  V30 17 1 17 18
M  V30 18 2 18 19
M  V30 19 1 18 20
M  V30 20 1 19 21
M  V30 21 2 20 22
M  V30 22 2 21 23
M  V30 23 1 22 24
M  V30 24 1 24 25
M  V30 25 1 25 26
M  V30 26 1 25 27
M  V30 27 1 26 28
M  V30 28 1 27 29
M  V30 29 1 28 30
M  V30 30 2 11 12
M  V30 31 1 22 23
M  V30 32 1 29 30
M  V30 33 1 3 31
M  V30 34 1 3 32
M  V30 35 1 4 33
M  V30 36 1 4 34
M  V30 37 1 8 35
M  V30 38 1 10 36
M  V30 39 1 11 37
M  V30 40 1 12 38
M  V30 41 1 13 39
M  V30 42 1 13 40
M  V30 43 1 14 41
M  V30 44 1 15 42
M  V30 45 1 16 43
M  V30 46 1 16 44
M  V30 47 1 20 45
M  V30 48 1 21 46
M  V30 49 1 23 47
M  V30 50 1 24 48
M  V30 51 1 24 49
M  V30 52 1 26 50
M  V30 53 1 26 51
M  V30 54 1 27 52
M  V30 55 1 27 53
M  V30 56 1 28 54
M  V30 57 1 28 55
M  V30 58 1 29 56
M  V30 59 1 29 57
M  V30 60 1 30 58
M  V30 61 1 30 59
M  V30 END BOND
M  V30 BEGIN COLLECTION
M  V30 MDLV30/STERAC1 ATOMS=(1 1)
M  V30 END COLLECTION
M  V30 END CTAB
M  END
>  <NO.>
5924

>  <Name>
rac trans-lafutidine

>  <SMILES>
O=C(C[S+]([O-])Cc1ccco1)NC/C=C/COc1cc(CN2CCCCC2)ccn1

>  <logBB>


>  <Class>
-1

>  <MW>
431.19

>  <nHBAcc>
6

>  <nHBDon>
1

>  <SLogP>
2.66

>  <TopoPSA>
90.66

>  <MMFF94 Energy>
-14.706

$$$$
O=C(NCC1CN(c2ccc(N3CCOCC3=O)cc2)C(=O)O1)c1ccc(Cl)s1
Actelion Java MolfileCreator 2.0

  0  0  0  0  0  0              0 V3000
M  V30 BEGIN CTAB
M  V30 COUNTS 47 50 0 0 0
M  V30 BEGIN ATOM
M  V30 1 Cl -2.624 -2.9524 -4.2667 0
M  V30 2 C -2.6833 -1.5513 -3.276 0
M  V30 3 S -1.9109 -0.1343 -3.7784 0
M  V30 4 C -3.3156 -1.4309 -2.0669 0
M  V30 5 C -2.4063 0.7057 -2.364 0
M  V30 6 C -3.1574 -0.1154 -1.5377 0
M  V30 7 C -2.0401 2.0914 -2.1117 0
M  V30 8 O -2.4004 2.7052 -1.1081 0
M  V30 9 N -1.2231 2.685 -3.0511 0
M  V30 10 C -0.664 4.0162 -2.8909 0
M  V30 11 C 0.7349 4.0338 -2.2467 0 CFG=2
M  V30 12 O 1.6346 3.2378 -3.0319 0
M  V30 13 C 0.8165 3.4197 -0.8659 0
M  V30 14 C 1.7489 2.0092 -2.4231 0
M  V30 15 N 1.2086 2.0708 -1.1475 0
M  V30 16 O 2.2513 1.0576 -2.9976 0
M  V30 17 C 1.1307 1.0155 -0.2112 0
M  V30 18 C 2.0167 -0.0659 -0.2597 0
M  V30 19 C 0.1497 1.0188 0.7897 0
M  V30 20 C 1.926 -1.1154 0.6638 0
M  V30 21 C 0.059 -0.0275 1.7168 0
M  V30 22 C 0.9475 -1.1025 1.6588 0
M  V30 23 N 0.8785 -2.1537 2.6097 0
M  V30 24 C 0.7989 -3.4883 2.2012 0
M  V30 25 C 0.7303 -1.8003 4.0207 0
M  V30 26 O 0.7701 -3.8606 1.0275 0
M  V30 27 C 0.8174 -4.5281 3.3416 0
M  V30 28 C 1.2873 -2.8841 4.9337 0
M  V30 29 O 0.5881 -4.0999 4.6762 0
M  V30 30 H -3.8574 -2.2338 -1.583 0
M  V30 31 H -3.564 0.2176 -0.5892 0
M  V30 32 H -0.9339 2.127 -3.8483 0
M  V30 33 H -0.5992 4.4324 -3.9022 0
M  V30 34 H -1.3541 4.6354 -2.308 0
M  V30 35 H 1.1021 5.066 -2.227 0
M  V30 36 H -0.1108 3.5217 -0.3015 0
M  V30 37 H 1.6295 3.8787 -0.2904 0
M  V30 38 H 2.7995 -0.1222 -1.012 0
M  V30 39 H -0.5894 1.8118 0.8576 0
M  V30 40 H 2.6276 -1.9428 0.5882 0
M  V30 41 H -0.732 0.0026 2.4607 0
M  V30 42 H -0.3433 -1.6804 4.209 0
M  V30 43 H 1.2423 -0.8525 4.2219 0
M  V30 44 H 0.0577 -5.2822 3.1102 0
M  V30 45 H 1.795 -5.0237 3.3075 0
M  V30 46 H 2.3627 -3.0351 4.7819 0
M  V30 47 H 1.1248 -2.6157 5.9821 0
M  V30 END ATOM
M  V30 BEGIN BOND
M  V30 1 1 1 2
M  V30 2 1 2 3
M  V30 3 2 2 4
M  V30 4 1 3 5
M  V30 5 1 4 6
M  V30 6 1 5 7
M  V30 7 2 7 8
M  V30 8 1 7 9
M  V30 9 1 9 10
M  V30 10 1 10 11
M  V30 11 1 11 12
M  V30 12 1 11 13
M  V30 13 1 12 14
M  V30 14 1 13 15
M  V30 15 2 14 16
M  V30 16 1 15 17
M  V30 17 2 17 18
M  V30 18 1 17 19
M  V30 19 1 18 20
M  V30 20 2 19 21
M  V30 21 2 20 22
M  V30 22 1 22 23
M  V30 23 1 23 24
M  V30 24 1 23 25
M  V30 25 2 24 26
M  V30 26 1 24 27
M  V30 27 1 25 28
M  V30 28 1 27 29
M  V30 29 2 5 6
M  V30 30 1 14 15
M  V30 31 1 21 22
M  V30 32 1 28 29
M  V30 33 1 4 30
M  V30 34 1 6 31
M  V30 35 1 9 32
M  V30 36 1 10 33
M  V30 37 1 10 34
M  V30 38 1 11 35
M  V30 39 1 13 36
M  V30 40 1 13 37
M  V30 41 1 18 38
M  V30 42 1 19 39
M  V30 43 1 20 40
M  V30 44 1 21 41
M  V30 45 1 25 42
M  V30 46 1 25 43
M  V30 47 1 27 44
M  V30 48 1 27 45
M  V30 49 1 28 46
M  V30 50 1 28 47
M  V30 END BOND
M  V30 BEGIN COLLECTION
M  V30 MDLV30/STERAC1 ATOMS=(1 11)
M  V30 END COLLECTION
M  V30 END CTAB
M  END
>  <NO.>
5926

>  <Name>
rivaroxaban

>  <SMILES>
O=C(NCC1CN(c2ccc(N3CCOCC3=O)cc2)C(=O)O1)c1ccc(Cl)s1

>  <logBB>


>  <Class>
-1

>  <MW>
435.07

>  <nHBAcc>
6

>  <nHBDon>
1

>  <SLogP>
2.52

>  <TopoPSA>
88.18

>  <MMFF94 Energy>
43.859

$$$$
O=C(NCCS(=O)(=O)O)c1cccs1
Actelion Java MolfileCreator 2.0

  0  0  0  0  0  0              0 V3000
M  V30 BEGIN CTAB
M  V30 COUNTS 23 23 0 0 0
M  V30 BEGIN ATOM
M  V30 1 S 2.1615 -1.9951 0.9972 0
M  V30 2 O 1.3886 -2.2281 -0.202 0
M  V30 3 O 2.2291 -2.9567 2.0737 0
M  V30 4 O 3.6947 -1.7425 0.5573 0
M  V30 5 C 1.8113 -0.3764 1.661 0
M  V30 6 C 1.7534 0.6736 0.5667 0
M  V30 7 N 0.5083 0.6347 -0.1789 0
M  V30 8 C -0.6351 1.2777 0.2603 0
M  V30 9 O -0.6126 1.9349 1.3002 0
M  V30 10 C -1.8148 1.0976 -0.5779 0
M  V30 11 S -3.2063 2.0584 -0.2626 0
M  V30 12 C -2.0434 0.2383 -1.6405 0
M  V30 13 C -4.0853 1.3419 -1.5392 0
M  V30 14 C -3.3507 0.3821 -2.1949 0
M  V30 15 H 4.2473 -2.431 0.9894 0
M  V30 16 H 0.866 -0.4523 2.2076 0
M  V30 17 H 2.608 -0.1537 2.378 0
M  V30 18 H 2.5677 0.5599 -0.1556 0
M  V30 19 H 1.8485 1.6681 1.017 0
M  V30 20 H 0.4778 0.0663 -1.016 0
M  V30 21 H -1.3228 -0.4793 -2.012 0
M  V30 22 H -5.1 1.6558 -1.7432 0
M  V30 23 H -3.7325 -0.1944 -3.0289 0
M  V30 END ATOM
M  V30 BEGIN BOND
M  V30 1 2 1 2
M  V30 2 2 1 3
M  V30 3 1 1 4
M  V30 4 1 1 5
M  V30 5 1 5 6
M  V30 6 1 6 7
M  V30 7 1 7 8
M  V30 8 2 8 9
M  V30 9 1 8 10
M  V30 10 1 10 11
M  V30 11 2 10 12
M  V30 12 1 11 13
M  V30 13 1 12 14
M  V30 14 2 13 14
M  V30 15 1 4 15
M  V30 16 1 5 16
M  V30 17 1 5 17
M  V30 18 1 6 18
M  V30 19 1 6 19
M  V30 20 1 7 20
M  V30 21 1 12 21
M  V30 22 1 13 22
M  V30 23 1 14 23
M  V30 END BOND
M  V30 END CTAB
M  END
>  <NO.>
5927

>  <Name>
taurosteine

>  <SMILES>
O=C(NCCS(=O)(=O)O)c1cccs1

>  <logBB>


>  <Class>
-1

>  <MW>
235

>  <nHBAcc>
4

>  <nHBDon>
2

>  <SLogP>
0.37

>  <TopoPSA>
83.47

>  <MMFF94 Energy>
-69.992

$$$$
O=C(Nc1ccc2c(=O)cc(-c3nn[nH]n3)oc2c1)c1ccc(OCCCCc2ccccc2)cc1
Actelion Java MolfileCreator 2.0

  0  0  0  0  0  0              0 V3000
M  V30 BEGIN CTAB
M  V30 COUNTS 59 63 0 0 0
M  V30 BEGIN ATOM
M  V30 1 O -4.3415 6.5177 -5.3082 0
M  V30 2 C -3.5315 6.4794 -4.3919 0
M  V30 3 C -3.1669 5.2254 -3.7201 0
M  V30 4 C -2.8697 7.6988 -3.9102 0
M  V30 5 C -2.2328 5.2674 -2.6914 0
M  V30 6 C -3.7395 4.0125 -4.1053 0
M  V30 7 C -1.9781 7.6214 -2.9098 0
M  V30 8 O -1.632 6.431 -2.2808 0
M  V30 9 C -1.8649 4.0916 -2.0319 0
M  V30 10 C -3.3698 2.8372 -3.4465 0
M  V30 11 C -1.2904 8.7678 -2.3911 0
M  V30 12 C -2.438 2.8702 -2.3996 0
M  V30 13 N -0.3691 8.6294 -1.3797 0
M  V30 14 N -1.4295 10.0465 -2.7877 0
M  V30 15 N -2.1007 1.6428 -1.7944 0
M  V30 16 N 0.0954 9.8425 -1.1154 0
M  V30 17 N -0.5554 10.6444 -1.9632 0
M  V30 18 C -1.4988 1.4754 -0.5595 0
M  V30 19 O -1.2361 2.3599 0.246 0
M  V30 20 C -1.2052 0.0625 -0.1896 0
M  V30 21 C -0.7908 -0.8786 -1.1405 0
M  V30 22 C -1.3233 -0.3167 1.1504 0
M  V30 23 C -0.5213 -2.1979 -0.7544 0
M  V30 24 C -1.0563 -1.6344 1.5283 0
M  V30 25 C -0.6551 -2.5804 0.5812 0
M  V30 26 O -0.4272 -3.829 1.0868 0
M  V30 27 C 0.099 -4.8112 0.1972 0
M  V30 28 C 0.3601 -6.0994 0.9785 0
M  V30 29 C 1.2704 -5.9308 2.2008 0
M  V30 30 C 2.6711 -5.4253 1.848 0
M  V30 31 C 3.5655 -5.3752 3.0619 0
M  V30 32 C 3.5594 -4.2516 3.8995 0
M  V30 33 C 4.3928 -6.4591 3.3833 0
M  V30 34 C 4.3747 -4.2089 5.0314 0
M  V30 35 C 5.2075 -6.4145 4.5159 0
M  V30 36 C 5.1992 -5.2895 5.3387 0
M  V30 37 H -3.1361 8.6286 -4.3978 0
M  V30 38 H -4.4694 3.9807 -4.9115 0
M  V30 39 H -1.123 4.1527 -1.2402 0
M  V30 40 H -3.8286 1.9013 -3.756 0
M  V30 41 H -2.4152 0.8084 -2.2723 0
M  V30 42 H -0.3933 11.6477 -1.9785 0
M  V30 43 H -0.6424 -0.5969 -2.1795 0
M  V30 44 H -1.6247 0.4098 1.9026 0
M  V30 45 H -0.2026 -2.899 -1.5189 0
M  V30 46 H -1.1555 -1.9245 2.5721 0
M  V30 47 H 1.0308 -4.4588 -0.2595 0
M  V30 48 H -0.6304 -5.0248 -0.5932 0
M  V30 49 H -0.6006 -6.4907 1.336 0
M  V30 50 H 0.7823 -6.8521 0.3028 0
M  V30 51 H 1.3486 -6.9038 2.7031 0
M  V30 52 H 0.799 -5.2537 2.9243 0
M  V30 53 H 3.1242 -6.0713 1.0856 0
M  V30 54 H 2.6229 -4.4226 1.4069 0
M  V30 55 H 2.9167 -3.4031 3.6741 0
M  V30 56 H 4.4065 -7.3456 2.7539 0
M  V30 57 H 4.3647 -3.3325 5.674 0
M  V30 58 H 5.8477 -7.2587 4.7574 0
M  V30 59 H 5.8332 -5.2557 6.2205 0
M  V30 END ATOM
M  V30 BEGIN BOND
M  V30 1 2 1 2
M  V30 2 1 2 3
M  V30 3 1 2 4
M  V30 4 2 3 5
M  V30 5 1 3 6
M  V30 6 2 4 7
M  V30 7 1 5 8
M  V30 8 1 5 9
M  V30 9 2 6 10
M  V30 10 1 7 11
M  V30 11 2 9 12
M  V30 12 1 11 13
M  V30 13 2 11 14
M  V30 14 1 12 15
M  V30 15 2 13 16
M  V30 16 1 14 17
M  V30 17 1 15 18
M  V30 18 2 18 19
M  V30 19 1 18 20
M  V30 20 2 20 21
M  V30 21 1 20 22
M  V30 22 1 21 23
M  V30 23 2 22 24
M  V30 24 2 23 25
M  V30 25 1 25 26
M  V30 26 1 26 27
M  V30 27 1 27 28
M  V30 28 1 28 29
M  V30 29 1 29 30
M  V30 30 1 30 31
M  V30 31 2 31 32
M  V30 32 1 31 33
M  V30 33 1 32 34
M  V30 34 2 33 35
M  V30 35 2 34 36
M  V30 36 1 7 8
M  V30 37 1 10 12
M  V30 38 1 16 17
M  V30 39 1 24 25
M  V30 40 1 35 36
M  V30 41 1 4 37
M  V30 42 1 6 38
M  V30 43 1 9 39
M  V30 44 1 10 40
M  V30 45 1 15 41
M  V30 46 1 17 42
M  V30 47 1 21 43
M  V30 48 1 22 44
M  V30 49 1 23 45
M  V30 50 1 24 46
M  V30 51 1 27 47
M  V30 52 1 27 48
M  V30 53 1 28 49
M  V30 54 1 28 50
M  V30 55 1 29 51
M  V30 56 1 29 52
M  V30 57 1 30 53
M  V30 58 1 30 54
M  V30 59 1 32 55
M  V30 60 1 33 56
M  V30 61 1 34 57
M  V30 62 1 35 58
M  V30 63 1 36 59
M  V30 END BOND
M  V30 END CTAB
M  END
>  <NO.>
5929

>  <Name>
pranlukast

>  <SMILES>
O=C(Nc1ccc2c(=O)cc(-c3nn[nH]n3)oc2c1)c1ccc(OCCCCc2ccccc2)cc1

>  <logBB>


>  <Class>
-1

>  <MW>
481.18

>  <nHBAcc>
7

>  <nHBDon>
2

>  <SLogP>
4.63

>  <TopoPSA>
123

>  <MMFF94 Energy>
78.911

$$$$
O=C(O)/C=C/c1ccc(Cn2ccnc2)cc1
Actelion Java MolfileCreator 2.0

  0  0  0  0  0  0              0 V3000
M  V30 BEGIN CTAB
M  V30 COUNTS 29 30 0 0 0
M  V30 BEGIN ATOM
M  V30 1 O -5.6232 -0.5533 1.898 0
M  V30 2 C -5.1774 0.5422 1.6178 0
M  V30 3 O -5.9332 1.6515 1.6408 0
M  V30 4 C -3.8051 0.8765 1.2175 0
M  V30 5 C -2.888 -0.0969 1.1139 0
M  V30 6 C -1.4861 0.1281 0.7362 0
M  V30 7 C -1.1046 1.0963 -0.2001 0
M  V30 8 C -0.4985 -0.6936 1.2916 0
M  V30 9 C 0.2395 1.2583 -0.553 0
M  V30 10 C 0.8457 -0.5332 0.9416 0
M  V30 11 C 1.2296 0.4476 0.0176 0
M  V30 12 C 2.6776 0.6196 -0.3651 0
M  V30 13 N 3.1439 -0.4617 -1.2144 0
M  V30 14 C 2.8553 -0.6194 -2.5405 0
M  V30 15 C 4.001 -1.4658 -0.8553 0
M  V30 16 N 3.4731 -1.664 -3.0448 0
M  V30 17 C 4.1842 -2.2014 -2.0031 0
M  V30 18 H -6.8162 1.3257 1.9141 0
M  V30 19 H -3.5874 1.9205 1.0329 0
M  V30 20 H -3.1599 -1.128 1.337 0
M  V30 21 H -1.8479 1.7286 -0.6802 0
M  V30 22 H -0.7653 -1.468 2.0085 0
M  V30 23 H 0.5004 2.0203 -1.2849 0
M  V30 24 H 1.5884 -1.1888 1.3924 0
M  V30 25 H 3.306 0.6526 0.5326 0
M  V30 26 H 2.842 1.5565 -0.9106 0
M  V30 27 H 2.1969 0.0454 -3.0845 0
M  V30 28 H 4.3954 -1.574 0.1449 0
M  V30 29 H 4.7932 -3.0861 -2.1364 0
M  V30 END ATOM
M  V30 BEGIN BOND
M  V30 1 2 1 2
M  V30 2 1 2 3
M  V30 3 1 2 4
M  V30 4 2 4 5
M  V30 5 1 5 6
M  V30 6 2 6 7
M  V30 7 1 6 8
M  V30 8 1 7 9
M  V30 9 2 8 10
M  V30 10 2 9 11
M  V30 11 1 11 12
M  V30 12 1 12 13
M  V30 13 1 13 14
M  V30 14 1 13 15
M  V30 15 2 14 16
M  V30 16 2 15 17
M  V30 17 1 10 11
M  V30 18 1 16 17
M  V30 19 1 3 18
M  V30 20 1 4 19
M  V30 21 1 5 20
M  V30 22 1 7 21
M  V30 23 1 8 22
M  V30 24 1 9 23
M  V30 25 1 10 24
M  V30 26 1 12 25
M  V30 27 1 12 26
M  V30 28 1 14 27
M  V30 29 1 15 28
M  V30 30 1 17 29
M  V30 END BOND
M  V30 END CTAB
M  END
>  <NO.>
5930

>  <Name>
ozagrel

>  <SMILES>
O=C(O)/C=C/c1ccc(Cn2ccnc2)cc1

>  <logBB>


>  <Class>
-1

>  <MW>
228.09

>  <nHBAcc>
2

>  <nHBDon>
1

>  <SLogP>
2.03

>  <TopoPSA>
55.12

>  <MMFF94 Energy>
5.4245

$$$$
O=C(O)C(CC(=O)N1CC2CCCCC2C1)Cc1ccccc1
Actelion Java MolfileCreator 2.0

  0  0  0  0  0  0              0 V3000
M  V30 BEGIN CTAB
M  V30 COUNTS 48 50 0 0 0
M  V30 BEGIN ATOM
M  V30 1 O 1.6697 -0.5563 -3.1823 0
M  V30 2 C 2.4819 0.104 -2.5547 0
M  V30 3 O 3.7859 0.09 -2.8924 0
M  V30 4 C 2.189 1.0405 -1.4065 0
M  V30 5 C 1.9456 2.4341 -2.0038 0
M  V30 6 C 0.9762 0.5202 -0.6209 0
M  V30 7 C 1.7804 3.5217 -0.9691 0
M  V30 8 C 1.267 -0.8055 0.065 0
M  V30 9 C 0.547 4.1672 -0.8058 0
M  V30 10 C 2.8584 3.9022 -0.1581 0
M  V30 11 O 2.3982 -1.2884 0.0953 0
M  V30 12 N 0.1931 -1.4217 0.6676 0
M  V30 13 C 0.3938 5.1676 0.1557 0
M  V30 14 C 2.7028 4.9021 0.8029 0
M  V30 15 C -1.1804 -0.9393 0.7208 0
M  V30 16 C 0.3364 -2.7046 1.3389 0
M  V30 17 C 1.4707 5.5338 0.9605 0
M  V30 18 C -1.866 -1.8702 1.7241 0
M  V30 19 C -1.0991 -3.1918 1.5464 0
M  V30 20 C -3.378 -1.989 1.5591 0
M  V30 21 C -1.5871 -4.0162 0.346 0
M  V30 22 C -3.8018 -2.83 0.359 0
M  V30 23 C -3.1016 -4.1842 0.3518 0
M  V30 24 H 3.8423 -0.5852 -3.6001 0
M  V30 25 H 3.065 1.0514 -0.7452 0
M  V30 26 H 1.0662 2.4078 -2.6618 0
M  V30 27 H 2.7828 2.7173 -2.6566 0
M  V30 28 H 0.7025 1.2319 0.1658 0
M  V30 29 H 0.1129 0.3986 -1.2854 0
M  V30 30 H -0.3042 3.8965 -1.4263 0
M  V30 31 H 3.8287 3.4226 -0.2709 0
M  V30 32 H -0.566 5.6634 0.2754 0
M  V30 33 H 3.5447 5.1893 1.4277 0
M  V30 34 H -1.6016 -1.0108 -0.287 0
M  V30 35 H -1.2096 0.1067 1.0399 0
M  V30 36 H 0.8312 -2.5163 2.2988 0
M  V30 37 H 0.9588 -3.3891 0.7538 0
M  V30 38 H 1.3513 6.3135 1.7082 0
M  V30 39 H -1.6588 -1.483 2.7323 0
M  V30 40 H -1.1741 -3.8098 2.449 0
M  V30 41 H -3.7876 -2.4551 2.4648 0
M  V30 42 H -3.8297 -0.9924 1.4903 0
M  V30 43 H -1.2857 -3.5441 -0.5978 0
M  V30 44 H -1.1078 -5.0023 0.3629 0
M  V30 45 H -4.8875 -2.9786 0.3833 0
M  V30 46 H -3.5785 -2.2941 -0.5709 0
M  V30 47 H -3.4068 -4.7649 1.2308 0
M  V30 48 H -3.4115 -4.7529 -0.532 0
M  V30 END ATOM
M  V30 BEGIN BOND
M  V30 1 2 1 2
M  V30 2 1 2 3
M  V30 3 1 2 4
M  V30 4 1 4 5
M  V30 5 1 4 6
M  V30 6 1 5 7
M  V30 7 1 6 8
M  V30 8 2 7 9
M  V30 9 1 7 10
M  V30 10 2 8 11
M  V30 11 1 8 12
M  V30 12 1 9 13
M  V30 13 2 10 14
M  V30 14 1 12 15
M  V30 15 1 12 16
M  V30 16 2 13 17
M  V30 17 1 15 18
M  V30 18 1 16 19
M  V30 19 1 18 20
M  V30 20 1 19 21
M  V30 21 1 20 22
M  V30 22 1 21 23
M  V30 23 1 14 17
M  V30 24 1 18 19
M  V30 25 1 22 23
M  V30 26 1 3 24
M  V30 27 1 4 25
M  V30 28 1 5 26
M  V30 29 1 5 27
M  V30 30 1 6 28
M  V30 31 1 6 29
M  V30 32 1 9 30
M  V30 33 1 10 31
M  V30 34 1 13 32
M  V30 35 1 14 33
M  V30 36 1 15 34
M  V30 37 1 15 35
M  V30 38 1 16 36
M  V30 39 1 16 37
M  V30 40 1 17 38
M  V30 41 1 18 39
M  V30 42 1 19 40
M  V30 43 1 20 41
M  V30 44 1 20 42
M  V30 45 1 21 43
M  V30 46 1 21 44
M  V30 47 1 22 45
M  V30 48 1 22 46
M  V30 49 1 23 47
M  V30 50 1 23 48
M  V30 END BOND
M  V30 END CTAB
M  END
>  <NO.>
5931

>  <Name>
mitiglinide

>  <SMILES>
O=C(O)C(CC(=O)N1CC2CCCCC2C1)Cc1ccccc1

>  <logBB>


>  <Class>
-1

>  <MW>
315.18

>  <nHBAcc>
2

>  <nHBDon>
1

>  <SLogP>
2.97

>  <TopoPSA>
57.61

>  <MMFF94 Energy>
-24.053

$$$$
O=C(O)c1ccc(-n2nc(-c3ccccc3O)nc2-c2ccccc2O)cc1
Actelion Java MolfileCreator 2.0

  0  0  0  0  0  0              0 V3000
M  V30 BEGIN CTAB
M  V30 COUNTS 43 46 0 0 0
M  V30 BEGIN ATOM
M  V30 1 O -1.0437 5.9524 -2.5707 0
M  V30 2 C -0.0924 5.1967 -2.5013 0
M  V30 3 O 1.086 5.5034 -3.0718 0
M  V30 4 C -0.0743 3.8835 -1.8119 0
M  V30 5 C -1.242 3.4577 -1.1655 0
M  V30 6 C 1.0681 3.0727 -1.7866 0
M  V30 7 C -1.2722 2.227 -0.5045 0
M  V30 8 C 1.0442 1.8399 -1.1262 0
M  V30 9 C -0.1319 1.4118 -0.4982 0
M  V30 10 N -0.178 0.1713 0.1818 0
M  V30 11 N -0.8312 0.0771 1.3694 0
M  V30 12 C 0.4026 -1.0499 -0.1361 0
M  V30 13 C -0.5186 -1.1606 1.7811 0
M  V30 14 N 0.2378 -1.871 0.8848 0
M  V30 15 C 1.0448 -1.4137 -1.3991 0
M  V30 16 C -0.9571 -1.7161 3.0588 0
M  V30 17 C 0.4463 -1.2067 -2.6501 0
M  V30 18 C 2.2774 -2.0833 -1.3585 0
M  V30 19 C -1.7221 -0.9759 3.9766 0
M  V30 20 C -0.6106 -3.0351 3.3959 0
M  V30 21 O -0.8172 -0.7015 -2.7902 0
M  V30 22 C 1.1088 -1.5419 -3.8297 0
M  V30 23 C 2.9372 -2.4397 -2.5376 0
M  V30 24 O -2.115 0.319 3.7519 0
M  V30 25 C -2.1286 -1.5332 5.1892 0
M  V30 26 C -1.0171 -3.5949 4.6111 0
M  V30 27 C 2.3594 -2.1539 -3.773 0
M  V30 28 C -1.7758 -2.8436 5.5065 0
M  V30 29 H 0.926 6.3797 -3.4815 0
M  V30 30 H -2.1326 4.0842 -1.1738 0
M  V30 31 H 1.9849 3.3934 -2.2767 0
M  V30 32 H -2.1893 1.9161 -0.0069 0
M  V30 33 H 1.9545 1.2453 -1.1075 0
M  V30 34 H 2.7411 -2.3152 -0.4006 0
M  V30 35 H -0.0189 -3.639 2.7102 0
M  V30 36 H -1.3792 -1.108 -2.1065 0
M  V30 37 H 0.6385 -1.3507 -4.7907 0
M  V30 38 H 3.901 -2.9411 -2.4903 0
M  V30 39 H -1.7562 0.5843 2.8773 0
M  V30 40 H -2.7197 -0.9426 5.8842 0
M  V30 41 H -0.7406 -4.6174 4.8567 0
M  V30 42 H 2.872 -2.4282 -4.6917 0
M  V30 43 H -2.0927 -3.2769 6.4517 0
M  V30 END ATOM
M  V30 BEGIN BOND
M  V30 1 2 1 2
M  V30 2 1 2 3
M  V30 3 1 2 4
M  V30 4 2 4 5
M  V30 5 1 4 6
M  V30 6 1 5 7
M  V30 7 2 6 8
M  V30 8 2 7 9
M  V30 9 1 9 10
M  V30 10 1 10 11
M  V30 11 1 10 12
M  V30 12 2 11 13
M  V30 13 2 12 14
M  V30 14 1 12 15
M  V30 15 1 13 16
M  V30 16 2 15 17
M  V30 17 1 15 18
M  V30 18 2 16 19
M  V30 19 1 16 20
M  V30 20 1 17 21
M  V30 21 1 17 22
M  V30 22 2 18 23
M  V30 23 1 19 24
M  V30 24 1 19 25
M  V30 25 2 20 26
M  V30 26 2 22 27
M  V30 27 2 25 28
M  V30 28 1 8 9
M  V30 29 1 13 14
M  V30 30 1 23 27
M  V30 31 1 26 28
M  V30 32 1 3 29
M  V30 33 1 5 30
M  V30 34 1 6 31
M  V30 35 1 7 32
M  V30 36 1 8 33
M  V30 37 1 18 34
M  V30 38 1 20 35
M  V30 39 1 21 36
M  V30 40 1 22 37
M  V30 41 1 23 38
M  V30 42 1 24 39
M  V30 43 1 25 40
M  V30 44 1 26 41
M  V30 45 1 27 42
M  V30 46 1 28 43
M  V30 END BOND
M  V30 END CTAB
M  END
>  <NO.>
5935

>  <Name>
deferasirox

>  <SMILES>
O=C(O)c1ccc(-n2nc(-c3ccccc3O)nc2-c2ccccc2O)cc1

>  <logBB>


>  <Class>
-1

>  <MW>
373.11

>  <nHBAcc>
5

>  <nHBDon>
3

>  <SLogP>
3.71

>  <TopoPSA>
108.47

>  <MMFF94 Energy>
96.187

$$$$
O=C(O)c1ccc2nc(-c3cc(Cl)cc(Cl)c3)oc2c1
Actelion Java MolfileCreator 2.0

  0  0  0  0  0  0              0 V3000
M  V30 BEGIN CTAB
M  V30 COUNTS 27 29 0 0 0
M  V30 BEGIN ATOM
M  V30 1 Cl 1.3334 -0.5832 -5.5089 0
M  V30 2 C 0.0803 -0.8372 -4.3567 0
M  V30 3 C -1.1339 -1.3773 -4.7688 0
M  V30 4 C 0.2945 -0.4986 -3.0192 0
M  V30 5 C -2.1396 -1.5781 -3.8287 0
M  V30 6 C -0.716 -0.699 -2.067 0
M  V30 7 Cl -3.6466 -2.2452 -4.3236 0
M  V30 8 C -1.9385 -1.2441 -2.4889 0
M  V30 9 C -0.5301 -0.3577 -0.6592 0
M  V30 10 O 0.6868 0.1717 -0.3076 0
M  V30 11 N -1.3811 -0.4879 0.3431 0
M  V30 12 C 0.5781 0.3886 1.0346 0
M  V30 13 C -0.6868 -0.016 1.4267 0
M  V30 14 C 1.5447 0.9183 1.8809 0
M  V30 15 C -1.0514 0.1045 2.773 0
M  V30 16 C 1.1702 1.0356 3.2299 0
M  V30 17 C -0.1066 0.6351 3.6671 0
M  V30 18 C 2.1067 1.5857 4.2416 0
M  V30 19 O 1.8724 1.7248 5.4273 0
M  V30 20 O 3.2933 1.935 3.7159 0
M  V30 21 H -1.2948 -1.6387 -5.811 0
M  V30 22 H 1.2537 -0.0777 -2.7238 0
M  V30 23 H -2.737 -1.4082 -1.7661 0
M  V30 24 H 2.5172 1.2161 1.5096 0
M  V30 25 H -2.0352 -0.2039 3.1102 0
M  V30 26 H -0.3765 0.7349 4.7186 0
M  V30 27 H 3.8016 2.2754 4.4824 0
M  V30 END ATOM
M  V30 BEGIN BOND
M  V30 1 1 1 2
M  V30 2 2 2 3
M  V30 3 1 2 4
M  V30 4 1 3 5
M  V30 5 2 4 6
M  V30 6 1 5 7
M  V30 7 2 5 8
M  V30 8 1 6 9
M  V30 9 1 9 10
M  V30 10 2 9 11
M  V30 11 1 10 12
M  V30 12 1 11 13
M  V30 13 1 12 14
M  V30 14 1 13 15
M  V30 15 2 14 16
M  V30 16 2 15 17
M  V30 17 1 16 18
M  V30 18 2 18 19
M  V30 19 1 18 20
M  V30 20 1 6 8
M  V30 21 2 12 13
M  V30 22 1 16 17
M  V30 23 1 3 21
M  V30 24 1 4 22
M  V30 25 1 8 23
M  V30 26 1 14 24
M  V30 27 1 15 25
M  V30 28 1 17 26
M  V30 29 1 20 27
M  V30 END BOND
M  V30 END CTAB
M  END
>  <NO.>
5936

>  <Name>
tafamidis

>  <SMILES>
O=C(O)c1ccc2nc(-c3cc(Cl)cc(Cl)c3)oc2c1

>  <logBB>


>  <Class>
-1

>  <MW>
306.98

>  <nHBAcc>
3

>  <nHBDon>
1

>  <SLogP>
4.5

>  <TopoPSA>
63.33

>  <MMFF94 Energy>
6.2172

$$$$
O=C(OC1CC2CCC(C1)[N+]21CCCC1)C(O)(c1ccccc1)c1ccccc1
Actelion Java MolfileCreator 2.0

  0  0  0  0  0  0              0 V3000
M  V30 BEGIN CTAB
M  V30 COUNTS 59 63 0 0 0
M  V30 BEGIN ATOM
M  V30 1 O -0.8044 0.8044 2.0119 0
M  V30 2 C -1.333 0.3222 1.016 0
M  V30 3 O -0.7458 0.3739 -0.2307 0
M  V30 4 C -2.6668 -0.4962 0.9657 0
M  V30 5 C 0.4626 1.1497 -0.3192 0
M  V30 6 O -3.2159 -0.2929 -0.359 0
M  V30 7 C -3.6683 0.0354 2.0006 0
M  V30 8 C -2.4186 -2.0101 1.1101 0
M  V30 9 C 1.6603 0.3301 0.1785 0
M  V30 10 C 0.6216 1.5996 -1.7762 0
M  V30 11 C -3.4788 -0.2023 3.3758 0
M  V30 12 C -4.7924 0.79 1.6166 0
M  V30 13 C -3.4049 -2.9187 0.6758 0
M  V30 14 C -1.2548 -2.536 1.7007 0
M  V30 15 C 3.0076 0.8722 -0.32 0
M  V30 16 C 2.0426 2.0845 -2.0991 0
M  V30 17 C -4.3809 0.2859 4.3243 0
M  V30 18 C -5.694 1.2774 2.5665 0
M  V30 19 C -3.2197 -4.2967 0.7953 0
M  V30 20 C -1.0731 -3.9166 1.8206 0
M  V30 21 N 3.0313 0.9285 -1.8646 0 CHG=1
M  V30 22 C 3.1643 2.3555 0.0577 0
M  V30 23 C 2.5209 3.1417 -1.0915 0
M  V30 24 C -5.4884 1.0246 3.9193 0
M  V30 25 C -2.0516 -4.795 1.3633 0
M  V30 26 C 4.4713 1.2732 -2.3845 0
M  V30 27 C 2.6846 -0.3736 -2.6062 0
M  V30 28 C 4.8243 0.1889 -3.3851 0
M  V30 29 C 4.0226 -1.0014 -2.9226 0
M  V30 30 H 0.352 2.0531 0.295 0
M  V30 31 H -2.6817 -0.8403 -0.9588 0
M  V30 32 H 1.5341 -0.7276 -0.0736 0
M  V30 33 H 1.6638 0.34 1.2762 0
M  V30 34 H 0.317 0.7945 -2.4554 0
M  V30 35 H -0.0933 2.41 -1.9703 0
M  V30 36 H -2.621 -0.7708 3.7291 0
M  V30 37 H -4.9855 1.0044 0.5672 0
M  V30 38 H -4.3396 -2.5511 0.2517 0
M  V30 39 H -0.48 -1.8884 2.1048 0
M  V30 40 H 3.8379 0.2481 0.0262 0
M  V30 41 H 2.1256 2.4138 -3.1403 0
M  V30 42 H -4.2182 0.0886 5.381 0
M  V30 43 H -6.5596 1.8531 2.2479 0
M  V30 44 H -3.9962 -4.9801 0.4591 0
M  V30 45 H -0.1746 -4.3099 2.2904 0
M  V30 46 H 2.7064 2.594 1.0236 0
M  V30 47 H 4.2241 2.6234 0.139 0
M  V30 48 H 3.2677 3.8012 -1.5486 0
M  V30 49 H 1.7071 3.7867 -0.7436 0
M  V30 50 H -6.1914 1.4023 4.6574 0
M  V30 51 H -1.9144 -5.8685 1.4685 0
M  V30 52 H 4.4687 2.2666 -2.8416 0
M  V30 53 H 5.1563 1.2502 -1.5312 0
M  V30 54 H 2.1678 -0.0916 -3.531 0
M  V30 55 H 2.0424 -1.0185 -2.0089 0
M  V30 56 H 4.5152 0.4915 -4.3928 0
M  V30 57 H 5.899 -0.0123 -3.4117 0
M  V30 58 H 4.4662 -1.4479 -2.0252 0
M  V30 59 H 3.9448 -1.7749 -3.6916 0
M  V30 END ATOM
M  V30 BEGIN BOND
M  V30 1 2 1 2
M  V30 2 1 2 3
M  V30 3 1 2 4
M  V30 4 1 3 5
M  V30 5 1 4 6
M  V30 6 1 4 7
M  V30 7 1 4 8
M  V30 8 1 5 9
M  V30 9 1 5 10
M  V30 10 2 7 11
M  V30 11 1 7 12
M  V30 12 2 8 13
M  V30 13 1 8 14
M  V30 14 1 9 15
M  V30 15 1 10 16
M  V30 16 1 11 17
M  V30 17 2 12 18
M  V30 18 1 13 19
M  V30 19 2 14 20
M  V30 20 1 15 21
M  V30 21 1 15 22
M  V30 22 1 16 23
M  V30 23 2 17 24
M  V30 24 2 19 25
M  V30 25 1 21 26
M  V30 26 1 21 27
M  V30 27 1 26 28
M  V30 28 1 27 29
M  V30 29 1 16 21
M  V30 30 1 18 24
M  V30 31 1 20 25
M  V30 32 1 22 23
M  V30 33 1 28 29
M  V30 34 1 5 30
M  V30 35 1 6 31
M  V30 36 1 9 32
M  V30 37 1 9 33
M  V30 38 1 10 34
M  V30 39 1 10 35
M  V30 40 1 11 36
M  V30 41 1 12 37
M  V30 42 1 13 38
M  V30 43 1 14 39
M  V30 44 1 15 40
M  V30 45 1 16 41
M  V30 46 1 17 42
M  V30 47 1 18 43
M  V30 48 1 19 44
M  V30 49 1 20 45
M  V30 50 1 22 46
M  V30 51 1 22 47
M  V30 52 1 23 48
M  V30 53 1 23 49
M  V30 54 1 24 50
M  V30 55 1 25 51
M  V30 56 1 26 52
M  V30 57 1 26 53
M  V30 58 1 27 54
M  V30 59 1 27 55
M  V30 60 1 28 56
M  V30 61 1 28 57
M  V30 62 1 29 58
M  V30 63 1 29 59
M  V30 END BOND
M  V30 END CTAB
M  END
>  <NO.>
5937

>  <Name>
trospium

>  <SMILES>
O=C(OC1CC2CCC(C1)[N+]21CCCC1)C(O)(c1ccccc1)c1ccccc1

>  <logBB>


>  <Class>
1

>  <MW>
392.22

>  <nHBAcc>
3

>  <nHBDon>
1

>  <SLogP>
3.77

>  <TopoPSA>
46.53

>  <MMFF94 Energy>
146.44

$$$$
O=C(OC1CN2CCC1CC2)N1CCc2ccccc2C1c1ccccc1
Actelion Java MolfileCreator 2.0

  0  0  0  0  0  0              0 V3000
M  V30 BEGIN CTAB
M  V30 COUNTS 53 57 0 0 0
M  V30 BEGIN ATOM
M  V30 1 O -0.1608 -0.6434 2.9783 0
M  V30 2 C 0.1864 -0.3095 1.8507 0
M  V30 3 O -0.2639 0.8133 1.2317 0
M  V30 4 N 1.0951 -1.0219 1.0839 0
M  V30 5 C -1.2096 1.6123 1.9654 0
M  V30 6 C 1.5857 -0.511 -0.2108 0
M  V30 7 C 1.7748 -2.1441 1.7212 0
M  V30 8 C -2.6312 1.0151 1.874 0
M  V30 9 C -1.2376 3.031 1.3448 0
M  V30 10 C 2.8641 -1.1894 -0.7059 0
M  V30 11 C 0.4983 -0.539 -1.2898 0
M  V30 12 C 2.3471 -3.1648 0.7462 0
M  V30 13 C -3.579 1.957 2.6316 0
M  V30 14 C -3.0758 1.0017 0.4017 0
M  V30 15 N -2.5872 3.4118 0.8535 0
M  V30 16 C 3.222 -2.4743 -0.2601 0
M  V30 17 C 3.6862 -0.5463 -1.6471 0
M  V30 18 C 0.2593 0.6048 -2.0724 0
M  V30 19 C -0.2643 -1.6902 -1.5428 0
M  V30 20 C -3.54 3.3513 1.9841 0
M  V30 21 C -2.9994 2.4252 -0.1707 0
M  V30 22 C 4.3634 -3.1048 -0.7711 0
M  V30 23 C 4.8311 -1.1733 -2.1397 0
M  V30 24 C -0.7129 0.5962 -3.0743 0
M  V30 25 C -1.2373 -1.6965 -2.5447 0
M  V30 26 C 5.1668 -2.4526 -1.7047 0
M  V30 27 C -1.4609 -0.5543 -3.3099 0
M  V30 28 H -0.8904 1.6975 3.0127 0
M  V30 29 H 1.8513 0.538 -0.0152 0
M  V30 30 H 2.5799 -1.7132 2.3313 0
M  V30 31 H 1.0897 -2.6471 2.4135 0
M  V30 32 H -2.6714 0.0013 2.2843 0
M  V30 33 H -0.9213 3.7633 2.0988 0
M  V30 34 H -0.5121 3.1196 0.5261 0
M  V30 35 H 2.9215 -3.9097 1.309 0
M  V30 36 H 1.5456 -3.6937 0.2198 0
M  V30 37 H -3.282 2.0234 3.6851 0
M  V30 38 H -4.602 1.5631 2.6063 0
M  V30 39 H -4.1035 0.626 0.3269 0
M  V30 40 H -2.4456 0.3247 -0.1833 0
M  V30 41 H 3.4312 0.446 -2.0126 0
M  V30 42 H 0.8274 1.5165 -1.9007 0
M  V30 43 H -0.1102 -2.5922 -0.9583 0
M  V30 44 H -4.5427 3.6311 1.6372 0
M  V30 45 H -3.2695 4.1037 2.7355 0
M  V30 46 H -3.9727 2.7119 -0.5884 0
M  V30 47 H -2.2992 2.4557 -1.0141 0
M  V30 48 H 4.6352 -4.105 -0.4417 0
M  V30 49 H 5.4556 -0.6668 -2.8711 0
M  V30 50 H -0.8877 1.4893 -3.6687 0
M  V30 51 H -1.8203 -2.5955 -2.7274 0
M  V30 52 H 6.054 -2.9438 -2.0955 0
M  V30 53 H -2.2179 -0.5614 -4.0895 0
M  V30 END ATOM
M  V30 BEGIN BOND
M  V30 1 2 1 2
M  V30 2 1 2 3
M  V30 3 1 2 4
M  V30 4 1 3 5
M  V30 5 1 4 6
M  V30 6 1 4 7
M  V30 7 1 5 8
M  V30 8 1 5 9
M  V30 9 1 6 10
M  V30 10 1 6 11
M  V30 11 1 7 12
M  V30 12 1 8 13
M  V30 13 1 8 14
M  V30 14 1 9 15
M  V30 15 2 10 16
M  V30 16 1 10 17
M  V30 17 2 11 18
M  V30 18 1 11 19
M  V30 19 1 13 20
M  V30 20 1 14 21
M  V30 21 1 16 22
M  V30 22 2 17 23
M  V30 23 1 18 24
M  V30 24 2 19 25
M  V30 25 2 22 26
M  V30 26 2 24 27
M  V30 27 1 12 16
M  V30 28 1 15 20
M  V30 29 1 15 21
M  V30 30 1 23 26
M  V30 31 1 25 27
M  V30 32 1 5 28
M  V30 33 1 6 29
M  V30 34 1 7 30
M  V30 35 1 7 31
M  V30 36 1 8 32
M  V30 37 1 9 33
M  V30 38 1 9 34
M  V30 39 1 12 35
M  V30 40 1 12 36
M  V30 41 1 13 37
M  V30 42 1 13 38
M  V30 43 1 14 39
M  V30 44 1 14 40
M  V30 45 1 17 41
M  V30 46 1 18 42
M  V30 47 1 19 43
M  V30 48 1 20 44
M  V30 49 1 20 45
M  V30 50 1 21 46
M  V30 51 1 21 47
M  V30 52 1 22 48
M  V30 53 1 23 49
M  V30 54 1 24 50
M  V30 55 1 25 51
M  V30 56 1 26 52
M  V30 57 1 27 53
M  V30 END BOND
M  V30 END CTAB
M  END
>  <NO.>
5938

>  <Name>
180272-14-4

>  <SMILES>
O=C(OC1CN2CCC1CC2)N1CCc2ccccc2C1c1ccccc1

>  <logBB>


>  <Class>
1

>  <MW>
362.2

>  <nHBAcc>
3

>  <nHBDon>
0

>  <SLogP>
3.86

>  <TopoPSA>
32.78

>  <MMFF94 Energy>
34.629

$$$$
O=C(OC1C[N+]2(CCCOc3ccccc3)CCC1CC2)C(O)(c1cccs1)c1cccs1
Actelion Java MolfileCreator 2.0

  0  0  0  0  0  0              0 V3000
M  V30 BEGIN CTAB
M  V30 COUNTS 63 67 0 0 0
M  V30 BEGIN ATOM
M  V30 1 S 3.3536 -1.7984 3.6812 0
M  V30 2 C 2.7643 -0.2334 4.0979 0
M  V30 3 C 3.0782 -2.4086 5.2503 0
M  V30 4 C 2.3596 -0.2107 5.4263 0
M  V30 5 C 2.7215 0.9102 3.083 0
M  V30 6 C 2.5422 -1.4586 6.0868 0
M  V30 7 O 3.2277 0.4282 1.8339 0
M  V30 8 C 3.6011 2.098 3.4445 0
M  V30 9 C 1.227 1.3596 2.9856 0
M  V30 10 S 3.4793 3.5673 2.5434 0
M  V30 11 C 4.5976 2.2023 4.4035 0
M  V30 12 O 0.589 1.9516 3.8503 0
M  V30 13 O 0.6728 0.9656 1.7932 0
M  V30 14 C 4.7007 4.3231 3.4638 0
M  V30 15 C 5.2195 3.4843 4.4213 0
M  V30 16 C -0.7162 1.2848 1.6027 0 CFG=2
M  V30 17 C -1.5936 0.2088 2.2697 0
M  V30 18 C -0.9927 1.291 0.0863 0
M  V30 19 C -3.0488 0.4371 1.8448 0
M  V30 20 C -1.1595 -1.1775 1.7702 0
M  V30 21 N -1.8423 0.0383 -0.3086 0 CHG=1
M  V30 22 C -3.2239 0.1708 0.3468 0
M  V30 23 C -1.125 -1.2118 0.2405 0
M  V30 24 C -1.9199 0.0093 -1.849 0
M  V30 25 C -2.8407 -1.0783 -2.4043 0
M  V30 26 C -2.8429 -1.0536 -3.9339 0
M  V30 27 O -1.5025 -1.252 -4.3742 0
M  V30 28 C -1.2824 -1.2306 -5.7241 0
M  V30 29 C -2.2553 -1.0732 -6.7123 0
M  V30 30 C 0.0548 -1.3858 -6.0994 0
M  V30 31 C -1.889 -1.0669 -8.0618 0
M  V30 32 C 0.4202 -1.3795 -7.4463 0
M  V30 33 C -0.5532 -1.2187 -8.4283 0
M  V30 34 H 3.3243 -3.4351 5.4884 0
M  V30 35 H 1.9529 0.6717 5.9113 0
M  V30 36 H 2.297 -1.6482 7.1255 0
M  V30 37 H 4.1384 0.1338 2.0139 0
M  V30 38 H 4.8785 1.3988 5.0755 0
M  V30 39 H 4.9885 5.3451 3.2555 0
M  V30 40 H 6.0127 3.7747 5.1005 0
M  V30 41 H -0.9292 2.2867 1.9958 0
M  V30 42 H -1.4999 0.2498 3.3601 0
M  V30 43 H -1.589 2.1645 -0.2015 0
M  V30 44 H -0.071 1.2648 -0.5057 0
M  V30 45 H -3.7213 -0.2187 2.4107 0
M  V30 46 H -3.3543 1.4642 2.0792 0
M  V30 47 H -0.176 -1.4538 2.1675 0
M  V30 48 H -1.8568 -1.9397 2.1404 0
M  V30 49 H -3.7601 -0.7694 0.1826 0
M  V30 50 H -3.7586 0.9886 -0.1481 0
M  V30 51 H -0.1003 -1.1975 -0.1465 0
M  V30 52 H -1.64 -2.1018 -0.1297 0
M  V30 53 H -2.2776 0.9978 -2.1615 0
M  V30 54 H -0.8911 -0.1158 -2.2045 0
M  V30 55 H -3.8688 -0.9424 -2.0546 0
M  V30 56 H -2.4994 -2.0653 -2.0779 0
M  V30 57 H -3.4869 -1.8613 -4.3012 0
M  V30 58 H -3.2225 -0.0854 -4.2823 0
M  V30 59 H -3.3075 -0.9582 -6.4762 0
M  V30 60 H 0.8221 -1.5165 -5.341 0
M  V30 61 H -2.6484 -0.9465 -8.831 0
M  V30 62 H 1.4626 -1.5029 -7.7293 0
M  V30 63 H -0.2724 -1.2159 -9.4788 0
M  V30 END ATOM
M  V30 BEGIN BOND
M  V30 1 1 1 2
M  V30 2 1 1 3
M  V30 3 2 2 4
M  V30 4 1 2 5
M  V30 5 2 3 6
M  V30 6 1 5 7
M  V30 7 1 5 8
M  V30 8 1 5 9
M  V30 9 1 8 10
M  V30 10 2 8 11
M  V30 11 2 9 12
M  V30 12 1 9 13
M  V30 13 1 10 14
M  V30 14 1 11 15
M  V30 15 1 13 16
M  V30 16 1 16 17
M  V30 17 1 16 18
M  V30 18 1 17 19
M  V30 19 1 17 20
M  V30 20 1 18 21
M  V30 21 1 19 22
M  V30 22 1 20 23
M  V30 23 1 21 24
M  V30 24 1 24 25
M  V30 25 1 25 26
M  V30 26 1 26 27
M  V30 27 1 27 28
M  V30 28 2 28 29
M  V30 29 1 28 30
M  V30 30 1 29 31
M  V30 31 2 30 32
M  V30 32 2 31 33
M  V30 33 1 4 6
M  V30 34 2 14 15
M  V30 35 1 21 22
M  V30 36 1 21 23
M  V30 37 1 32 33
M  V30 38 1 3 34
M  V30 39 1 4 35
M  V30 40 1 6 36
M  V30 41 1 7 37
M  V30 42 1 11 38
M  V30 43 1 14 39
M  V30 44 1 15 40
M  V30 45 1 16 41
M  V30 46 1 17 42
M  V30 47 1 18 43
M  V30 48 1 18 44
M  V30 49 1 19 45
M  V30 50 1 19 46
M  V30 51 1 20 47
M  V30 52 1 20 48
M  V30 53 1 22 49
M  V30 54 1 22 50
M  V30 55 1 23 51
M  V30 56 1 23 52
M  V30 57 1 24 53
M  V30 58 1 24 54
M  V30 59 1 25 55
M  V30 60 1 25 56
M  V30 61 1 26 57
M  V30 62 1 26 58
M  V30 63 1 29 59
M  V30 64 1 30 60
M  V30 65 1 31 61
M  V30 66 1 32 62
M  V30 67 1 33 63
M  V30 END BOND
M  V30 BEGIN COLLECTION
M  V30 MDLV30/STERAC1 ATOMS=(1 16)
M  V30 END COLLECTION
M  V30 END CTAB
M  END
>  <NO.>
5939

>  <Name>
schembl72140

>  <SMILES>
O=C(OC1C[N+]2(CCCOc3ccccc3)CCC1CC2)C(O)(c1cccs1)c1cccs1

>  <logBB>


>  <Class>
-1

>  <MW>
484.16

>  <nHBAcc>
6

>  <nHBDon>
1

>  <SLogP>
4.67

>  <TopoPSA>
55.76

>  <MMFF94 Energy>
147.34

$$$$
O=C(OCc1ccccc1)c1ccccc1
Actelion Java MolfileCreator 2.0

  0  0  0  0  0  0              0 V3000
M  V30 BEGIN CTAB
M  V30 COUNTS 28 29 0 0 0
M  V30 BEGIN ATOM
M  V30 1 O -0.8735 -2.6224 -0.8735 0
M  V30 2 C -0.9786 -1.4496 -0.5503 0
M  V30 3 O 0.0429 -0.6267 -0.2171 0
M  V30 4 C -2.2778 -0.728 -0.4715 0
M  V30 5 C 1.3274 -1.2504 -0.2694 0
M  V30 6 C -3.4472 -1.434 -0.7858 0
M  V30 7 C -2.3678 0.62 -0.097 0
M  V30 8 C 2.3535 -0.2195 0.1232 0
M  V30 9 C -4.6902 -0.8004 -0.7265 0
M  V30 10 C -3.6134 1.2501 -0.0389 0
M  V30 11 C 2.9349 0.6105 -0.8454 0
M  V30 12 C 2.71 -0.047 1.4681 0
M  V30 13 C -4.7719 0.5403 -0.3533 0
M  V30 14 C 3.8707 1.5789 -0.478 0
M  V30 15 C 3.646 0.9218 1.8334 0
M  V30 16 C 4.2275 1.7325 0.8604 0
M  V30 17 H 1.5317 -1.6156 -1.2835 0
M  V30 18 H 1.3658 -2.1006 0.4227 0
M  V30 19 H -3.3943 -2.4811 -1.0783 0
M  V30 20 H -1.4775 1.1927 0.1523 0
M  V30 21 H -5.5936 -1.3535 -0.9715 0
M  V30 22 H -3.6791 2.2959 0.2519 0
M  V30 23 H 2.6585 0.5081 -1.8924 0
M  V30 24 H 2.2569 -0.6662 2.2393 0
M  V30 25 H -5.7402 1.0332 -0.3073 0
M  V30 26 H 4.3188 2.2158 -1.2361 0
M  V30 27 H 3.9188 1.0463 2.8781 0
M  V30 28 H 4.9553 2.4875 1.1457 0
M  V30 END ATOM
M  V30 BEGIN BOND
M  V30 1 2 1 2
M  V30 2 1 2 3
M  V30 3 1 2 4
M  V30 4 1 3 5
M  V30 5 2 4 6
M  V30 6 1 4 7
M  V30 7 1 5 8
M  V30 8 1 6 9
M  V30 9 2 7 10
M  V30 10 2 8 11
M  V30 11 1 8 12
M  V30 12 2 9 13
M  V30 13 1 11 14
M  V30 14 2 12 15
M  V30 15 2 14 16
M  V30 16 1 10 13
M  V30 17 1 15 16
M  V30 18 1 5 17
M  V30 19 1 5 18
M  V30 20 1 6 19
M  V30 21 1 7 20
M  V30 22 1 9 21
M  V30 23 1 10 22
M  V30 24 1 11 23
M  V30 25 1 12 24
M  V30 26 1 13 25
M  V30 27 1 14 26
M  V30 28 1 15 27
M  V30 29 1 16 28
M  V30 END BOND
M  V30 END CTAB
M  END
>  <NO.>
5941

>  <Name>
benzyl benzoate

>  <SMILES>
O=C(OCc1ccccc1)c1ccccc1

>  <logBB>


>  <Class>
-1

>  <MW>
212.08

>  <nHBAcc>
2

>  <nHBDon>
0

>  <SLogP>
3.04

>  <TopoPSA>
26.3

>  <MMFF94 Energy>
47.04

$$$$
O=C(OOC(=O)c1ccccc1)c1ccccc1
Actelion Java MolfileCreator 2.0

  0  0  0  0  0  0              0 V3000
M  V30 BEGIN CTAB
M  V30 COUNTS 28 29 0 0 0
M  V30 BEGIN ATOM
M  V30 1 O 1.9284 -0.8031 1.2853 0
M  V30 2 C 0.8847 -1.0588 0.6991 0
M  V30 3 O -0.267 -0.3573 0.9148 0
M  V30 4 C 0.7918 -2.1987 -0.2475 0
M  V30 5 O -0.9385 -0.1539 -0.3745 0
M  V30 6 C 1.8933 -2.4803 -1.0637 0
M  V30 7 C -0.3425 -3.0194 -0.2932 0
M  V30 8 C -0.6885 1.12 -0.7983 0
M  V30 9 C 1.8472 -3.5603 -1.946 0
M  V30 10 C -0.3829 -4.0984 -1.1777 0
M  V30 11 O -0.4508 1.3874 -1.9689 0
M  V30 12 C -0.7803 2.1849 0.2322 0
M  V30 13 C 0.709 -4.3653 -2.0043 0
M  V30 14 C 0.0943 3.2743 0.1466 0
M  V30 15 C -1.7532 2.1447 1.2393 0
M  V30 16 C 0.0167 4.3041 1.085 0
M  V30 17 C -1.8261 3.1778 2.1752 0
M  V30 18 C -0.9401 4.2532 2.0992 0
M  V30 19 H 2.7864 -1.8605 -1.0151 0
M  V30 20 H -1.1937 -2.8299 0.3555 0
M  V30 21 H 2.6994 -3.7756 -2.5859 0
M  V30 22 H -1.2639 -4.7342 -1.2215 0
M  V30 23 H 0.6756 -5.2065 -2.6929 0
M  V30 24 H 0.8362 3.3225 -0.6478 0
M  V30 25 H -2.4578 1.3194 1.3007 0
M  V30 26 H 0.7004 5.1473 1.0239 0
M  V30 27 H -2.5753 3.1477 2.9628 0
M  V30 28 H -0.9986 5.0572 2.8294 0
M  V30 END ATOM
M  V30 BEGIN BOND
M  V30 1 2 1 2
M  V30 2 1 2 3
M  V30 3 1 2 4
M  V30 4 1 3 5
M  V30 5 2 4 6
M  V30 6 1 4 7
M  V30 7 1 5 8
M  V30 8 1 6 9
M  V30 9 2 7 10
M  V30 10 2 8 11
M  V30 11 1 8 12
M  V30 12 2 9 13
M  V30 13 2 12 14
M  V30 14 1 12 15
M  V30 15 1 14 16
M  V30 16 2 15 17
M  V30 17 2 16 18
M  V30 18 1 10 13
M  V30 19 1 17 18
M  V30 20 1 6 19
M  V30 21 1 7 20
M  V30 22 1 9 21
M  V30 23 1 10 22
M  V30 24 1 13 23
M  V30 25 1 14 24
M  V30 26 1 15 25
M  V30 27 1 16 26
M  V30 28 1 17 27
M  V30 29 1 18 28
M  V30 END BOND
M  V30 END CTAB
M  END
>  <NO.>
5942

>  <Name>
benzoyl peroxide

>  <SMILES>
O=C(OOC(=O)c1ccccc1)c1ccccc1

>  <logBB>


>  <Class>
-1

>  <MW>
242.06

>  <nHBAcc>
4

>  <nHBDon>
0

>  <SLogP>
2.62

>  <TopoPSA>
52.6

>  <MMFF94 Energy>
109.81

$$$$
O=C1C(CCC(O)c2ccc(F)cc2)C(c2ccc(O)cc2)N1c1ccc(F)cc1
Actelion Java MolfileCreator 2.0

  0  0  0  0  0  0              0 V3000
M  V30 BEGIN CTAB
M  V30 COUNTS 51 54 0 0 0
M  V30 BEGIN ATOM
M  V30 1 F -7.1798 1.2073 2.0934 0
M  V30 2 C -5.8889 1.1534 1.7419 0
M  V30 3 C -5.2865 2.2655 1.17 0
M  V30 4 C -5.1688 -0.014 1.9552 0
M  V30 5 C -3.9386 2.2089 0.8045 0
M  V30 6 C -3.8213 -0.0709 1.5888 0
M  V30 7 C -3.1932 1.0404 1.009 0
M  V30 8 N -1.8476 0.9799 0.651 0
M  V30 9 C -1.0551 1.8174 -0.0616 0
M  V30 10 C -0.8754 -0.1133 0.7553 0
M  V30 11 O -1.2276 2.9066 -0.5583 0
M  V30 12 C 0.1179 0.8199 -0.0122 0
M  V30 13 C -0.427 -0.5917 2.2056 0
M  V30 14 C 0.6129 0.2976 -1.3571 0
M  V30 15 C 0.0695 -1.895 2.4167 0
M  V30 16 C -0.4879 0.2433 3.3427 0
M  V30 17 C 1.4911 1.3444 -2.0476 0
M  V30 18 C 0.4728 -2.3399 3.6788 0
M  V30 19 C -0.0878 -0.1924 4.6105 0
M  V30 20 C 1.9242 0.9415 -3.4645 0
M  V30 21 C 0.3899 -1.485 4.7663 0
M  V30 22 O 2.6676 2.0157 -4.0402 0
M  V30 23 C 2.7894 -0.2998 -3.4968 0
M  V30 24 O 0.7912 -1.9564 5.9797 0
M  V30 25 C 2.2757 -1.5064 -4.002 0
M  V30 26 C 4.1074 -0.2768 -3.0086 0
M  V30 27 C 3.0607 -2.6607 -4.0135 0
M  V30 28 C 4.8908 -1.4315 -3.021 0
M  V30 29 C 4.3594 -2.6125 -3.5222 0
M  V30 30 F 5.1097 -3.7221 -3.533 0
M  V30 31 H -5.8644 3.1704 1.0115 0
M  V30 32 H -5.6575 -0.872 2.4057 0
M  V30 33 H -3.4865 3.0934 0.3618 0
M  V30 34 H -3.2791 -0.9951 1.7675 0
M  V30 35 H -1.2112 -0.9648 0.1438 0
M  V30 36 H 0.9416 1.1899 0.6133 0
M  V30 37 H -0.234 0.0345 -2.0022 0
M  V30 38 H 1.1901 -0.6186 -1.1892 0
M  V30 39 H 0.1454 -2.5828 1.5759 0
M  V30 40 H -0.8615 1.2616 3.2398 0
M  V30 41 H 2.3709 1.5586 -1.4263 0
M  V30 42 H 0.9523 2.2986 -2.109 0
M  V30 43 H 0.8505 -3.3502 3.809 0
M  V30 44 H -0.1585 0.4891 5.4524 0
M  V30 45 H 1.0396 0.7949 -4.0959 0
M  V30 46 H 2.0737 2.7839 -4.086 0
M  V30 47 H 0.679 -1.2525 6.6397 0
M  V30 48 H 1.2617 -1.5535 -4.3926 0
M  V30 49 H 4.5293 0.6517 -2.6285 0
M  V30 50 H 2.6701 -3.5942 -4.4051 0
M  V30 51 H 5.9099 -1.4136 -2.6494 0
M  V30 END ATOM
M  V30 BEGIN BOND
M  V30 1 1 1 2
M  V30 2 2 2 3
M  V30 3 1 2 4
M  V30 4 1 3 5
M  V30 5 2 4 6
M  V30 6 2 5 7
M  V30 7 1 7 8
M  V30 8 1 8 9
M  V30 9 1 8 10
M  V30 10 2 9 11
M  V30 11 1 9 12
M  V30 12 1 10 13
M  V30 13 1 12 14
M  V30 14 2 13 15
M  V30 15 1 13 16
M  V30 16 1 14 17
M  V30 17 1 15 18
M  V30 18 2 16 19
M  V30 19 1 17 20
M  V30 20 2 18 21
M  V30 21 1 20 22
M  V30 22 1 20 23
M  V30 23 1 21 24
M  V30 24 2 23 25
M  V30 25 1 23 26
M  V30 26 1 25 27
M  V30 27 2 26 28
M  V30 28 2 27 29
M  V30 29 1 29 30
M  V30 30 1 6 7
M  V30 31 1 10 12
M  V30 32 1 19 21
M  V30 33 1 28 29
M  V30 34 1 3 31
M  V30 35 1 4 32
M  V30 36 1 5 33
M  V30 37 1 6 34
M  V30 38 1 10 35
M  V30 39 1 12 36
M  V30 40 1 14 37
M  V30 41 1 14 38
M  V30 42 1 15 39
M  V30 43 1 16 40
M  V30 44 1 17 41
M  V30 45 1 17 42
M  V30 46 1 18 43
M  V30 47 1 19 44
M  V30 48 1 20 45
M  V30 49 1 22 46
M  V30 50 1 24 47
M  V30 51 1 25 48
M  V30 52 1 26 49
M  V30 53 1 27 50
M  V30 54 1 28 51
M  V30 END BOND
M  V30 END CTAB
M  END
>  <NO.>
5943

>  <Name>
1-(4-fluorophenyl)-3-(3-(4-fluorophenyl)-3-hydroxypropyl)-4-(4-hydroxyphenyl)azetidin-2-one

>  <SMILES>
O=C1C(CCC(O)c2ccc(F)cc2)C(c2ccc(O)cc2)N1c1ccc(F)cc1

>  <logBB>


>  <Class>
-1

>  <MW>
409.15

>  <nHBAcc>
3

>  <nHBDon>
2

>  <SLogP>
4.89

>  <TopoPSA>
60.77

>  <MMFF94 Energy>
39.192

$$$$
O=C1CC=NN1c1ccccc1
Actelion Java MolfileCreator 2.0

  0  0  0  0  0  0              0 V3000
M  V30 BEGIN CTAB
M  V30 COUNTS 20 21 0 0 0
M  V30 BEGIN ATOM
M  V30 1 O 0.5586 2.6355 0.7182 0
M  V30 2 C 1.0522 1.5551 0.9975 0
M  V30 3 N 0.7136 0.2497 0.6034 0
M  V30 4 C 2.2322 1.3759 1.9034 0
M  V30 5 N 1.5342 -0.724 1.1491 0
M  V30 6 C -0.337 -0.1542 -0.2588 0
M  V30 7 C 2.3946 -0.1029 1.8841 0
M  V30 8 C -0.5306 -1.516 -0.5452 0
M  V30 9 C -1.2088 0.7698 -0.8495 0
M  V30 10 C -1.5595 -1.9396 -1.3923 0
M  V30 11 C -2.2393 0.3476 -1.6977 0
M  V30 12 C -2.4145 -1.0061 -1.9688 0
M  V30 13 H 3.1221 1.8606 1.4989 0
M  V30 14 H 2.0134 1.7203 2.9155 0
M  V30 15 H 3.1904 -0.5967 2.458 0
M  V30 16 H 0.1218 -2.2686 -0.1091 0
M  V30 17 H -1.1132 1.8363 -0.6689 0
M  V30 18 H -1.6888 -2.9987 -1.5984 0
M  V30 19 H -2.904 1.0826 -2.145 0
M  V30 20 H -3.215 -1.3318 -2.6275 0
M  V30 END ATOM
M  V30 BEGIN BOND
M  V30 1 2 1 2
M  V30 2 1 2 3
M  V30 3 1 2 4
M  V30 4 1 3 5
M  V30 5 1 3 6
M  V30 6 1 4 7
M  V30 7 2 6 8
M  V30 8 1 6 9
M  V30 9 1 8 10
M  V30 10 2 9 11
M  V30 11 2 10 12
M  V30 12 2 5 7
M  V30 13 1 11 12
M  V30 14 1 4 13
M  V30 15 1 4 14
M  V30 16 1 7 15
M  V30 17 1 8 16
M  V30 18 1 9 17
M  V30 19 1 10 18
M  V30 20 1 11 19
M  V30 21 1 12 20
M  V30 END BOND
M  V30 END CTAB
M  END
>  <NO.>
5944

>  <Name>
edaravone

>  <SMILES>
O=C1CC=NN1c1ccccc1

>  <logBB>


>  <Class>
1

>  <MW>
160.06

>  <nHBAcc>
2

>  <nHBDon>
0

>  <SLogP>
1.41

>  <TopoPSA>
32.67

>  <MMFF94 Energy>
39.105

$$$$
O=C1N(Cc2ccccc2)C2C[S+]3CCCC3C2N1Cc1ccccc1
Actelion Java MolfileCreator 2.0

  0  0  0  0  0  0              0 V3000
M  V30 BEGIN CTAB
M  V30 COUNTS 51 55 0 0 0
M  V30 BEGIN ATOM
M  V30 1 S 0.4067 -3.0943 1.1391 0 CHG=1
M  V30 2 C 1.5246 -1.6139 1.0597 0
M  V30 3 C -0.7707 -2.3392 -0.0265 0
M  V30 4 C 1.4081 -4.0116 -0.0869 0
M  V30 5 C 0.8016 -0.4646 0.3209 0
M  V30 6 C 2.7947 -2.0786 0.3485 0
M  V30 7 C -0.6743 -0.8362 0.1415 0
M  V30 8 C 2.3524 -3.0267 -0.7529 0
M  V30 9 N 0.7112 0.7283 1.1568 0
M  V30 10 N -1.3047 -0.2411 1.3105 0
M  V30 11 C -0.5083 0.7779 1.8295 0
M  V30 12 C 1.8273 1.6071 1.4428 0
M  V30 13 C -2.6869 -0.451 1.6914 0
M  V30 14 O -0.8208 1.574 2.6985 0
M  V30 15 C 2.4385 2.1883 0.1925 0
M  V30 16 C -3.6528 0.038 0.6396 0
M  V30 17 C 3.773 1.924 -0.1452 0
M  V30 18 C 1.6746 3.0096 -0.6504 0
M  V30 19 C -3.785 1.4115 0.3861 0
M  V30 20 C -4.4213 -0.8664 -0.1065 0
M  V30 21 C 4.328 2.4626 -1.3074 0
M  V30 22 C 2.2312 3.5468 -1.8115 0
M  V30 23 C -4.6658 1.8701 -0.5938 0
M  V30 24 C -5.3023 -0.4055 -1.0865 0
M  V30 25 C 3.5571 3.2722 -2.14 0
M  V30 26 C -5.4238 0.9616 -1.33 0
M  V30 27 H 1.7598 -1.3442 2.0954 0
M  V30 28 H -0.5069 -2.6145 -1.0518 0
M  V30 29 H -1.7666 -2.7366 0.1828 0
M  V30 30 H 0.7668 -4.5411 -0.7964 0
M  V30 31 H 1.9793 -4.7551 0.4793 0
M  V30 32 H 1.2661 -0.2181 -0.6392 0
M  V30 33 H 3.4385 -2.6175 1.0555 0
M  V30 34 H 3.3782 -1.2413 -0.0463 0
M  V30 35 H -1.0966 -0.3247 -0.7325 0
M  V30 36 H 3.2049 -3.5426 -1.2055 0
M  V30 37 H 1.8422 -2.476 -1.5513 0
M  V30 38 H 1.5017 2.4239 2.0975 0
M  V30 39 H 2.5661 1.0261 2.0065 0
M  V30 40 H -2.8262 -1.5194 1.8885 0
M  V30 41 H -2.8931 0.0718 2.6329 0
M  V30 42 H 4.3906 1.2982 0.4949 0
M  V30 43 H 0.638 3.2305 -0.4008 0
M  V30 44 H -3.1968 2.129 0.9569 0
M  V30 45 H -4.3417 -1.9361 0.073 0
M  V30 46 H 5.3641 2.2543 -1.5617 0
M  V30 47 H 1.6301 4.1819 -2.4571 0
M  V30 48 H -4.7608 2.9368 -0.7798 0
M  V30 49 H -5.8974 -1.1128 -1.6583 0
M  V30 50 H 3.9912 3.6937 -3.0429 0
M  V30 51 H -6.1118 1.3199 -2.0912 0
M  V30 END ATOM
M  V30 BEGIN BOND
M  V30 1 1 1 2
M  V30 2 1 1 3
M  V30 3 1 1 4
M  V30 4 1 2 5
M  V30 5 1 2 6
M  V30 6 1 3 7
M  V30 7 1 4 8
M  V30 8 1 5 9
M  V30 9 1 7 10
M  V30 10 1 9 11
M  V30 11 1 9 12
M  V30 12 1 10 13
M  V30 13 2 11 14
M  V30 14 1 12 15
M  V30 15 1 13 16
M  V30 16 2 15 17
M  V30 17 1 15 18
M  V30 18 2 16 19
M  V30 19 1 16 20
M  V30 20 1 17 21
M  V30 21 2 18 22
M  V30 22 1 19 23
M  V30 23 2 20 24
M  V30 24 2 21 25
M  V30 25 2 23 26
M  V30 26 1 5 7
M  V30 27 1 6 8
M  V30 28 1 10 11
M  V30 29 1 22 25
M  V30 30 1 24 26
M  V30 31 1 2 27
M  V30 32 1 3 28
M  V30 33 1 3 29
M  V30 34 1 4 30
M  V30 35 1 4 31
M  V30 36 1 5 32
M  V30 37 1 6 33
M  V30 38 1 6 34
M  V30 39 1 7 35
M  V30 40 1 8 36
M  V30 41 1 8 37
M  V30 42 1 12 38
M  V30 43 1 12 39
M  V30 44 1 13 40
M  V30 45 1 13 41
M  V30 46 1 17 42
M  V30 47 1 18 43
M  V30 48 1 19 44
M  V30 49 1 20 45
M  V30 50 1 21 46
M  V30 51 1 22 47
M  V30 52 1 23 48
M  V30 53 1 24 49
M  V30 54 1 25 50
M  V30 55 1 26 51
M  V30 END BOND
M  V30 END CTAB
M  END
>  <NO.>
5946

>  <Name>
trimethaphan

>  <SMILES>
O=C1N(Cc2ccccc2)C2C[S+]3CCCC3C2N1Cc1ccccc1

>  <logBB>


>  <Class>
-1

>  <MW>
365.17

>  <nHBAcc>
1

>  <nHBDon>
0

>  <SLogP>
3.66

>  <TopoPSA>
23.55

>  <MMFF94 Energy>
12.777

$$$$
O=P(O)(O)C(Cl)(Cl)P(=O)(O)O
Actelion Java MolfileCreator 2.0

  0  0  0  0  0  0              0 V3000
M  V30 BEGIN CTAB
M  V30 COUNTS 15 14 0 0 0
M  V30 BEGIN ATOM
M  V30 1 Cl 0.459 -1.01 -2.2965 0
M  V30 2 C 0.6133 -0.1961 -0.6845 0
M  V30 3 Cl 2.2862 0.4851 -0.6026 0
M  V30 4 P 0.506 -1.492 0.5637 0
M  V30 5 P -0.5653 1.1664 -0.6631 0
M  V30 6 O 1.5061 -2.6072 0.5521 0
M  V30 7 O -0.9802 -2.103 0.5351 0
M  V30 8 O 0.4853 -0.8013 2.0158 0
M  V30 9 O -2.033 0.88 -0.7163 0
M  V30 10 O -0.1791 2.1753 -1.8623 0
M  V30 11 O -0.2349 2.1255 0.5863 0
M  V30 12 H -1.0553 -2.9562 1.0034 0
M  V30 13 H 0.6698 -1.4319 2.7381 0
M  V30 14 H -0.8905 2.8089 -2.0713 0
M  V30 15 H -0.9428 2.7701 0.7738 0
M  V30 END ATOM
M  V30 BEGIN BOND
M  V30 1 1 1 2
M  V30 2 1 2 3
M  V30 3 1 2 4
M  V30 4 1 2 5
M  V30 5 2 4 6
M  V30 6 1 4 7
M  V30 7 1 4 8
M  V30 8 2 5 9
M  V30 9 1 5 10
M  V30 10 1 5 11
M  V30 11 1 7 12
M  V30 12 1 8 13
M  V30 13 1 10 14
M  V30 14 1 11 15
M  V30 END BOND
M  V30 END CTAB
M  END
>  <NO.>
5950

>  <Name>
clodronic acid

>  <SMILES>
O=P(O)(O)C(Cl)(Cl)P(=O)(O)O

>  <logBB>


>  <Class>
-1

>  <MW>
243.89

>  <nHBAcc>
2

>  <nHBDon>
4

>  <SLogP>
0.43

>  <TopoPSA>
115.06

>  <MMFF94 Energy>
-113.21

$$$$
OCC(S)CS
Actelion Java MolfileCreator 2.0

  0  0  0  0  0  0              0 V3000
M  V30 BEGIN CTAB
M  V30 COUNTS 14 13 0 0 0
M  V30 BEGIN ATOM
M  V30 1 S 1.3313 -0.8319 -1.6643 0
M  V30 2 C -0.0575 -0.2799 -0.5897 0 CFG=2
M  V30 3 C 0.2663 1.1263 -0.0681 0
M  V30 4 C -0.3122 -1.3264 0.5097 0
M  V30 5 S -1.0895 1.8454 0.9176 0
M  V30 6 O 0.6768 -1.31 1.5341 0
M  V30 7 H 1.1959 0.1159 -2.6031 0
M  V30 8 H -0.938 -0.2413 -1.2419 0
M  V30 9 H 0.4494 1.8146 -0.901 0
M  V30 10 H 1.165 1.1224 0.5583 0
M  V30 11 H -0.3467 -2.3377 0.0889 0
M  V30 12 H -1.2857 -1.1592 0.9842 0
M  V30 13 H -1.9658 1.979 -0.0896 0
M  V30 14 H 0.4776 -0.5622 2.1252 0
M  V30 END ATOM
M  V30 BEGIN BOND
M  V30 1 1 1 2
M  V30 2 1 2 3
M  V30 3 1 2 4
M  V30 4 1 3 5
M  V30 5 1 4 6
M  V30 6 1 1 7
M  V30 7 1 2 8
M  V30 8 1 3 9
M  V30 9 1 3 10
M  V30 10 1 4 11
M  V30 11 1 4 12
M  V30 12 1 5 13
M  V30 13 1 6 14
M  V30 END BOND
M  V30 BEGIN COLLECTION
M  V30 MDLV30/STERAC1 ATOMS=(1 2)
M  V30 END COLLECTION
M  V30 END CTAB
M  END
>  <NO.>
5961

>  <Name>
dimercaprol

>  <SMILES>
OCC(S)CS

>  <logBB>


>  <Class>
-1

>  <MW>
124

>  <nHBAcc>
3

>  <nHBDon>
3

>  <SLogP>
0.21

>  <TopoPSA>
20.23

>  <MMFF94 Energy>
30.028

$$$$
Oc1c(Cl)cc(Cl)c2cccnc12
Actelion Java MolfileCreator 2.0

  0  0  0  0  0  0              0 V3000
M  V30 BEGIN CTAB
M  V30 COUNTS 18 19 0 0 0
M  V30 BEGIN ATOM
M  V30 1 Cl -3.101 -2.4299 0.6699 0
M  V30 2 C -1.7816 -1.4395 0.1627 0
M  V30 3 C -1.0816 -0.6581 1.0872 0
M  V30 4 C -1.4232 -1.4278 -1.1753 0
M  V30 5 O -1.4532 -0.6825 2.4166 0
M  V30 6 C -0.0068 0.1548 0.7029 0
M  V30 7 C -0.3578 -0.628 -1.5849 0
M  V30 8 N 0.6482 0.898 1.6236 0
M  V30 9 C 0.3645 0.1716 -0.6621 0
M  V30 10 Cl 0.0354 -0.6623 -3.2733 0
M  V30 11 C 1.6797 1.6739 1.2348 0
M  V30 12 C 1.452 1.0005 -1.0218 0
M  V30 13 C 2.1168 1.7591 -0.0669 0
M  V30 14 H -1.9663 -2.0345 -1.8951 0
M  V30 15 H -2.2075 -1.2908 2.5102 0
M  V30 16 H 2.1563 2.2413 2.0291 0
M  V30 17 H 1.7924 1.0631 -2.0529 0
M  V30 18 H 2.9513 2.3969 -0.3347 0
M  V30 END ATOM
M  V30 BEGIN BOND
M  V30 1 1 1 2
M  V30 2 2 2 3
M  V30 3 1 2 4
M  V30 4 1 3 5
M  V30 5 1 3 6
M  V30 6 2 4 7
M  V30 7 2 6 8
M  V30 8 1 6 9
M  V30 9 1 7 10
M  V30 10 1 8 11
M  V30 11 2 9 12
M  V30 12 2 11 13
M  V30 13 1 7 9
M  V30 14 1 12 13
M  V30 15 1 4 14
M  V30 16 1 5 15
M  V30 17 1 11 16
M  V30 18 1 12 17
M  V30 19 1 13 18
M  V30 END BOND
M  V30 END CTAB
M  END
>  <NO.>
5963

>  <Name>
chloroxine

>  <SMILES>
Oc1c(Cl)cc(Cl)c2cccnc12

>  <logBB>


>  <Class>
-1

>  <MW>
212.97

>  <nHBAcc>
2

>  <nHBDon>
1

>  <SLogP>
3.25

>  <TopoPSA>
33.12

>  <MMFF94 Energy>
50.116

$$$$
Oc1ccccc1
Actelion Java MolfileCreator 2.0

  0  0  0  0  0  0              0 V3000
M  V30 BEGIN CTAB
M  V30 COUNTS 13 13 0 0 0
M  V30 BEGIN ATOM
M  V30 1 O -1.7072 -0.2326 1.7848 0
M  V30 2 C -0.7569 -0.0974 0.8162 0
M  V30 3 C 0.566 0.0389 1.2214 0
M  V30 4 C -1.0939 -0.0953 -0.5343 0
M  V30 5 C 1.57 0.1798 0.2638 0
M  V30 6 C -0.0874 0.0458 -1.4911 0
M  V30 7 C 1.2432 0.1833 -1.0926 0
M  V30 8 H -2.574 -0.3171 1.3556 0
M  V30 9 H 0.8136 0.0355 2.2789 0
M  V30 10 H -2.124 -0.2011 -0.8584 0
M  V30 11 H 2.6053 0.2867 0.5757 0
M  V30 12 H -0.3391 0.0488 -2.5485 0
M  V30 13 H 2.0258 0.2931 -1.8388 0
M  V30 END ATOM
M  V30 BEGIN BOND
M  V30 1 1 1 2
M  V30 2 2 2 3
M  V30 3 1 2 4
M  V30 4 1 3 5
M  V30 5 2 4 6
M  V30 6 2 5 7
M  V30 7 1 6 7
M  V30 8 1 1 8
M  V30 9 1 3 9
M  V30 10 1 4 10
M  V30 11 1 5 11
M  V30 12 1 6 12
M  V30 13 1 7 13
M  V30 END BOND
M  V30 END CTAB
M  END
>  <NO.>
5966

>  <Name>
phenol

>  <SMILES>
Oc1ccccc1

>  <logBB>


>  <Class>
-1

>  <MW>
94.04

>  <nHBAcc>
1

>  <nHBDon>
1

>  <SLogP>
1.39

>  <TopoPSA>
20.23

>  <MMFF94 Energy>
5.7133

$$$$
On1ccccc1=S
Actelion Java MolfileCreator 2.0

  0  0  0  0  0  0              0 V3000
M  V30 BEGIN CTAB
M  V30 COUNTS 13 13 0 0 0
M  V30 BEGIN ATOM
M  V30 1 S 0.2421 -1.3725 -2.5847 0
M  V30 2 C 0.0652 -0.6737 -1.0627 0
M  V30 3 N 0.3271 0.6602 -0.8042 0
M  V30 4 C -0.3933 -1.4551 0.1325 0
M  V30 5 O 0.7656 1.5229 -1.825 0
M  V30 6 C 0.1966 1.2678 0.416 0
M  V30 7 C -0.5159 -0.8445 1.3216 0
M  V30 8 C -0.2135 0.5593 1.4754 0
M  V30 9 H -0.6177 -2.5078 0.0065 0
M  V30 10 H 0.797 0.9257 -2.5976 0
M  V30 11 H 0.4379 2.3235 0.4706 0
M  V30 12 H -0.8464 -1.3941 2.1976 0
M  V30 13 H -0.3246 1.018 2.4521 0
M  V30 END ATOM
M  V30 BEGIN BOND
M  V30 1 2 1 2
M  V30 2 1 2 3
M  V30 3 1 2 4
M  V30 4 1 3 5
M  V30 5 1 3 6
M  V30 6 2 4 7
M  V30 7 2 6 8
M  V30 8 1 7 8
M  V30 9 1 4 9
M  V30 10 1 5 10
M  V30 11 1 6 11
M  V30 12 1 7 12
M  V30 13 1 8 13
M  V30 END BOND
M  V30 END CTAB
M  END
>  <NO.>
5967

>  <Name>
pyrithione

>  <SMILES>
On1ccccc1=S

>  <logBB>


>  <Class>
-1

>  <MW>
127.01

>  <nHBAcc>
2

>  <nHBDon>
1

>  <SLogP>
1.45

>  <TopoPSA>
25.16

>  <MMFF94 Energy>
31.203

$$$$
c1cc(CN2CCCNCCNCCCNCC2)ccc1CN1CCCNCCNCCCNCC1
Actelion Java MolfileCreator 2.0

  0  0  0  0  0  0              0 V3000
M  V30 BEGIN CTAB
M  V30 COUNTS 90 92 0 0 0
M  V30 BEGIN ATOM
M  V30 1 N 0.7043 -2.0357 2.2708 0
M  V30 2 C 1.4203 -2.8514 1.2576 0
M  V30 3 C 0.7133 -2.6593 3.6095 0
M  V30 4 C 1.2133 -0.6526 2.3499 0
M  V30 5 C 2.9615 -2.9936 1.391 0
M  V30 6 C -0.2018 -3.8918 3.7137 0
M  V30 7 C 1.0503 0.1413 1.0702 0
M  V30 8 N 3.4707 -4.0504 0.4993 0
M  V30 9 C 0.1333 -4.8193 4.8965 0
M  V30 10 C 2.1483 0.7855 0.4838 0
M  V30 11 C -0.2086 0.271 0.4676 0
M  V30 12 C 4.9376 -4.1163 0.4745 0
M  V30 13 N 1.5169 -5.3016 4.9822 0
M  V30 14 C 1.9931 1.5332 -0.6871 0
M  V30 15 C -0.3636 1.0161 -0.7027 0
M  V30 16 C 5.6077 -4.6623 1.746 0
M  V30 17 C 1.9553 -6.0415 3.7899 0
M  V30 18 C 0.7343 1.6623 -1.2888 0
M  V30 19 C 5.3165 -6.142 2.0523 0
M  V30 20 C 3.4963 -6.0639 3.6695 0
M  V30 21 C 0.5716 2.4506 -2.5746 0
M  V30 22 N 3.9086 -6.4465 2.3127 0
M  V30 23 N -0.5469 3.4152 -2.5324 0
M  V30 24 C -0.8817 3.9145 -3.8863 0
M  V30 25 C -0.2125 4.5379 -1.6172 0
M  V30 26 C -1.2644 2.8776 -4.986 0
M  V30 27 C -1.3269 5.5685 -1.3523 0
M  V30 28 N -2.1802 1.7764 -4.6493 0
M  V30 29 C -2.5457 4.9731 -0.6449 0
M  V30 30 C -3.4009 2.1864 -3.9431 0
M  V30 31 N -3.6354 5.9709 -0.6349 0
M  V30 32 C -4.296 3.1957 -4.6822 0
M  V30 33 C -4.9471 5.345 -0.3577 0
M  V30 34 C -5.4257 3.7323 -3.7853 0
M  V30 35 C -5.7314 4.9069 -1.6291 0
M  V30 36 N -4.8286 4.3156 -2.6018 0
M  V30 37 H 1.2008 -2.4451 0.2613 0
M  V30 38 H 0.9769 -3.8523 1.2262 0
M  V30 39 H 1.7396 -2.8794 3.9129 0
M  V30 40 H 0.3376 -1.941 4.351 0
M  V30 41 H 0.6537 -0.0996 3.117 0
M  V30 42 H 2.2609 -0.6431 2.6769 0
M  V30 43 H 3.2247 -3.2419 2.421 0
M  V30 44 H 3.4349 -2.0373 1.1423 0
M  V30 45 H -0.2089 -4.4827 2.7944 0
M  V30 46 H -1.2375 -3.5447 3.8288 0
M  V30 47 H 3.1421 -3.8535 -0.4488 0
M  V30 48 H -0.0882 -4.2874 5.8296 0
M  V30 49 H -0.5436 -5.682 4.8742 0
M  V30 50 H 3.1353 0.7096 0.9337 0
M  V30 51 H -1.0748 -0.2196 0.9076 0
M  V30 52 H 5.2247 -4.7629 -0.3636 0
M  V30 53 H 5.348 -3.1251 0.2448 0
M  V30 54 H 2.1438 -4.5203 5.1593 0
M  V30 55 H 2.863 2.0178 -1.1242 0
M  V30 56 H -1.3502 1.1018 -1.1546 0
M  V30 57 H 6.6931 -4.5659 1.6108 0
M  V30 58 H 5.3643 -4.0319 2.6079 0
M  V30 59 H 1.5654 -5.5792 2.8803 0
M  V30 60 H 1.5673 -7.0658 3.8261 0
M  V30 61 H 5.6289 -6.7394 1.1875 0
M  V30 62 H 5.9392 -6.4773 2.8908 0
M  V30 63 H 3.8803 -5.0668 3.9113 0
M  V30 64 H 3.914 -6.7643 4.402 0
M  V30 65 H 0.4167 1.6948 -3.3521 0
M  V30 66 H 1.5064 2.9663 -2.8317 0
M  V30 67 H 3.3596 -5.9032 1.6323 0
M  V30 68 H -0.0516 4.5195 -4.2752 0
M  V30 69 H -1.7423 4.5856 -3.804 0
M  V30 70 H 0.0792 4.1409 -0.6372 0
M  V30 71 H 0.6627 5.0768 -2.0046 0
M  V30 72 H -0.3411 2.4195 -5.362 0
M  V30 73 H -1.6706 3.4238 -5.8463 0
M  V30 74 H -1.6226 6.0555 -2.2884 0
M  V30 75 H -0.9108 6.3673 -0.7235 0
M  V30 76 H -1.683 1.1473 -4.0169 0
M  V30 77 H -2.8426 4.0467 -1.1404 0
M  V30 78 H -2.2854 4.7063 0.3866 0
M  V30 79 H -3.9936 1.2803 -3.7656 0
M  V30 80 H -3.1203 2.5464 -2.9501 0
M  V30 81 H -3.4317 6.6437 0.1038 0
M  V30 82 H -4.732 2.7187 -5.5682 0
M  V30 83 H -3.7115 4.05 -5.0419 0
M  V30 84 H -5.5684 6.0759 0.1742 0
M  V30 85 H -4.8266 4.4924 0.3228 0
M  V30 86 H -6.0056 4.4789 -4.3391 0
M  V30 87 H -6.0969 2.9112 -3.5099 0
M  V30 88 H -6.2162 5.7859 -2.0703 0
M  V30 89 H -6.5141 4.1988 -1.3352 0
M  V30 90 H -4.1211 5.0166 -2.834 0
M  V30 END ATOM
M  V30 BEGIN BOND
M  V30 1 1 1 2
M  V30 2 1 1 3
M  V30 3 1 1 4
M  V30 4 1 2 5
M  V30 5 1 3 6
M  V30 6 1 4 7
M  V30 7 1 5 8
M  V30 8 1 6 9
M  V30 9 2 7 10
M  V30 10 1 7 11
M  V30 11 1 8 12
M  V30 12 1 9 13
M  V30 13 1 10 14
M  V30 14 2 11 15
M  V30 15 1 12 16
M  V30 16 1 13 17
M  V30 17 2 14 18
M  V30 18 1 16 19
M  V30 19 1 17 20
M  V30 20 1 18 21
M  V30 21 1 19 22
M  V30 22 1 21 23
M  V30 23 1 23 24
M  V30 24 1 23 25
M  V30 25 1 24 26
M  V30 26 1 25 27
M  V30 27 1 26 28
M  V30 28 1 27 29
M  V30 29 1 28 30
M  V30 30 1 29 31
M  V30 31 1 30 32
M  V30 32 1 31 33
M  V30 33 1 32 34
M  V30 34 1 33 35
M  V30 35 1 34 36
M  V30 36 1 15 18
M  V30 37 1 20 22
M  V30 38 1 35 36
M  V30 39 1 2 37
M  V30 40 1 2 38
M  V30 41 1 3 39
M  V30 42 1 3 40
M  V30 43 1 4 41
M  V30 44 1 4 42
M  V30 45 1 5 43
M  V30 46 1 5 44
M  V30 47 1 6 45
M  V30 48 1 6 46
M  V30 49 1 8 47
M  V30 50 1 9 48
M  V30 51 1 9 49
M  V30 52 1 10 50
M  V30 53 1 11 51
M  V30 54 1 12 52
M  V30 55 1 12 53
M  V30 56 1 13 54
M  V30 57 1 14 55
M  V30 58 1 15 56
M  V30 59 1 16 57
M  V30 60 1 16 58
M  V30 61 1 17 59
M  V30 62 1 17 60
M  V30 63 1 19 61
M  V30 64 1 19 62
M  V30 65 1 20 63
M  V30 66 1 20 64
M  V30 67 1 21 65
M  V30 68 1 21 66
M  V30 69 1 22 67
M  V30 70 1 24 68
M  V30 71 1 24 69
M  V30 72 1 25 70
M  V30 73 1 25 71
M  V30 74 1 26 72
M  V30 75 1 26 73
M  V30 76 1 27 74
M  V30 77 1 27 75
M  V30 78 1 28 76
M  V30 79 1 29 77
M  V30 80 1 29 78
M  V30 81 1 30 79
M  V30 82 1 30 80
M  V30 83 1 31 81
M  V30 84 1 32 82
M  V30 85 1 32 83
M  V30 86 1 33 84
M  V30 87 1 33 85
M  V30 88 1 34 86
M  V30 89 1 34 87
M  V30 90 1 35 88
M  V30 91 1 35 89
M  V30 92 1 36 90
M  V30 END BOND
M  V30 END CTAB
M  END
>  <NO.>
5968

>  <Name>
plerixafor

>  <SMILES>
c1cc(CN2CCCNCCNCCCNCC2)ccc1CN1CCCNCCNCCCNCC1

>  <logBB>


>  <Class>
-1

>  <MW>
502.45

>  <nHBAcc>
8

>  <nHBDon>
6

>  <SLogP>
0.42

>  <TopoPSA>
78.66

>  <MMFF94 Energy>
132.75

$$$$
C1=CCc2c([nH]c3c2[C@@H](Cc2ccccc2)NCC3)C1
Actelion Java MolfileCreator 2.0

  0  0  0  0  0  0              0 V3000
M  V30 BEGIN CTAB
M  V30 COUNTS 40 43 0 0 0
M  V30 BEGIN ATOM
M  V30 1 N -1.1186 -0.5591 1.7582 0
M  V30 2 C -0.3799 0.1381 0.6658 0 CFG=1
M  V30 3 C -1.0341 -2.03 1.6708 0
M  V30 4 C 1.0017 -0.4561 0.55 0
M  V30 5 C -1.1192 0.1138 -0.6964 0
M  V30 6 C 0.4076 -2.5707 1.8234 0
M  V30 7 C 1.3352 -1.7005 1.0549 0
M  V30 8 C 2.1833 0.0645 -0.0432 0
M  V30 9 C -2.4888 0.7563 -0.669 0
M  V30 10 N 2.6493 -1.9641 0.7905 0
M  V30 11 C 3.1704 -0.8927 0.1195 0
M  V30 12 C 2.4371 1.3738 -0.7235 0
M  V30 13 C -3.6441 -0.0295 -0.7783 0
M  V30 14 C -2.622 2.1442 -0.5262 0
M  V30 15 C 4.5799 -0.7614 -0.3456 0
M  V30 16 C 3.8762 1.5099 -1.1926 0
M  V30 17 C -4.9078 0.5615 -0.7408 0
M  V30 18 C -3.8867 2.7331 -0.4887 0
M  V30 19 C 4.8287 0.5679 -1.0289 0
M  V30 20 C -5.0289 1.9421 -0.5952 0
M  V30 21 H -2.0954 -0.2716 1.7135 0
M  V30 22 H -0.2683 1.1813 0.9877 0
M  V30 23 H -1.4617 -2.3722 0.7206 0
M  V30 24 H -1.6549 -2.4665 2.4616 0
M  V30 25 H -1.1996 -0.9151 -1.0707 0
M  V30 26 H -0.5223 0.6406 -1.4528 0
M  V30 27 H 0.6957 -2.5542 2.8813 0
M  V30 28 H 0.4572 -3.6069 1.4729 0
M  V30 29 H 3.155 -2.7956 1.0665 0
M  V30 30 H 1.7761 1.471 -1.5916 0
M  V30 31 H 2.2107 2.1937 -0.0325 0
M  V30 32 H -3.5672 -1.1084 -0.8924 0
M  V30 33 H -1.7409 2.7766 -0.4428 0
M  V30 34 H 5.2598 -0.8521 0.509 0
M  V30 35 H 4.8124 -1.5694 -1.0482 0
M  V30 36 H 4.1304 2.4409 -1.6918 0
M  V30 37 H -5.7985 -0.0553 -0.8262 0
M  V30 38 H -3.9807 3.8101 -0.3764 0
M  V30 39 H 5.8344 0.7497 -1.3961 0
M  V30 40 H -6.0132 2.4018 -0.5663 0
M  V30 END ATOM
M  V30 BEGIN BOND
M  V30 1 1 1 2
M  V30 2 1 1 3
M  V30 3 1 2 4
M  V30 4 1 2 5
M  V30 5 1 3 6
M  V30 6 2 4 7
M  V30 7 1 4 8
M  V30 8 1 5 9
M  V30 9 1 7 10
M  V30 10 2 8 11
M  V30 11 1 8 12
M  V30 12 2 9 13
M  V30 13 1 9 14
M  V30 14 1 11 15
M  V30 15 1 12 16
M  V30 16 1 13 17
M  V30 17 2 14 18
M  V30 18 1 15 19
M  V30 19 2 17 20
M  V30 20 1 6 7
M  V30 21 1 10 11
M  V30 22 2 16 19
M  V30 23 1 18 20
M  V30 24 1 1 21
M  V30 25 1 2 22
M  V30 26 1 3 23
M  V30 27 1 3 24
M  V30 28 1 5 25
M  V30 29 1 5 26
M  V30 30 1 6 27
M  V30 31 1 6 28
M  V30 32 1 10 29
M  V30 33 1 12 30
M  V30 34 1 12 31
M  V30 35 1 13 32
M  V30 36 1 14 33
M  V30 37 1 15 34
M  V30 38 1 15 35
M  V30 39 1 16 36
M  V30 40 1 17 37
M  V30 41 1 18 38
M  V30 42 1 19 39
M  V30 43 1 20 40
M  V30 END BOND
M  V30 BEGIN COLLECTION
M  V30 MDLV30/STEABS ATOMS=(1 2)
M  V30 END COLLECTION
M  V30 END CTAB
M  END
>  <NO.>
5980

>  <Name>


>  <SMILES>
C1=CCc2c([nH]c3c2[C@@H](Cc2ccccc2)NCC3)C1

>  <logBB>


>  <Class>
1

>  <MW>
264.16

>  <nHBAcc>
1

>  <nHBDon>
2

>  <SLogP>
3.1

>  <TopoPSA>
27.82

>  <MMFF94 Energy>
86.762

$$$$
C=C(C(=O)COC(=O)c1ccncc1)[C@]1(C)C[C@@H](O)[C@H]2[C@@H](CCC3=CC(=O)CC[C@@]32C)[C@]12CO[C@H](/C=C/C)O2
Actelion Java MolfileCreator 2.0

  0  0  0  0  0  0              0 V3000
M  V30 BEGIN CTAB
M  V30 COUNTS 76 80 0 0 0
M  V30 BEGIN ATOM
M  V30 1 O -2.176 0.6443 -6.6198 0
M  V30 2 C -1.8375 0.7626 -5.4452 0
M  V30 3 C -2.8211 0.502 -4.3727 0
M  V30 4 C -0.4783 1.2559 -5.0395 0
M  V30 5 C -2.4846 0.5607 -3.0716 0
M  V30 6 C -0.0477 0.6099 -3.7295 0
M  V30 7 C -1.0573 0.793 -2.5533 0 CFG=2
M  V30 8 C -3.5614 0.4144 -2.0321 0
M  V30 9 C -0.723 -0.25 -1.388 0 CFG=1
M  V30 10 C -0.9687 2.2546 -2.0537 0
M  V30 11 C -3.1996 -0.6658 -1.0277 0
M  V30 12 C 0.6378 0.0044 -0.6916 0 CFG=2
M  V30 13 C -1.8649 -0.361 -0.3175 0 CFG=1
M  V30 14 O 1.7214 -0.115 -1.6068 0
M  V30 15 C 0.9295 -0.9553 0.4612 0
M  V30 16 C -1.5133 -1.3852 0.8334 0 CFG=2
M  V30 17 C -0.1623 -0.9561 1.5679 0 CFG=2
M  V30 18 O -1.2984 -2.6777 0.2111 0
M  V30 19 C -2.6824 -1.6709 1.7836 0
M  V30 20 C -0.1736 0.4076 2.3114 0
M  V30 21 C 0.2575 -2.0479 2.5939 0
M  V30 22 C -2.4752 -3.462 0.4105 0 CFG=2
M  V30 23 O -3.422 -2.7316 1.1815 0
M  V30 24 C 1.1604 1.0107 2.7018 0
M  V30 25 C -1.2342 1.1406 2.6947 0
M  V30 26 C -2.1102 -4.7183 1.1385 0
M  V30 27 O 2.0025 0.3176 3.2701 0
M  V30 28 C 1.4121 2.4759 2.3469 0
M  V30 29 C -2.2452 -5.9591 0.6409 0
M  V30 30 O 2.8164 2.7096 2.241 0
M  V30 31 C -1.8782 -7.2005 1.3868 0
M  V30 32 C 3.138 3.9765 1.8935 0
M  V30 33 O 2.342 4.8762 1.6763 0
M  V30 34 C 4.6116 4.1361 1.8066 0
M  V30 35 C 5.1179 5.3831 1.4364 0
M  V30 36 C 5.4936 3.0895 2.0822 0
M  V30 37 C 6.49 5.5305 1.3571 0
M  V30 38 C 6.8494 3.3399 1.9739 0
M  V30 39 N 7.3648 4.5363 1.6182 0
M  V30 40 H -3.8348 0.3198 -4.7133 0
M  V30 41 H -0.5085 2.3475 -4.9625 0
M  V30 42 H 0.2378 0.9889 -5.8244 0
M  V30 43 H 0.9286 1.0339 -3.4738 0
M  V30 44 H 0.1059 -0.4622 -3.9132 0
M  V30 45 H -3.707 1.3723 -1.5182 0
M  V30 46 H -4.5265 0.1619 -2.4887 0
M  V30 47 H -0.651 -1.2325 -1.8799 0
M  V30 48 H 0.0655 2.5474 -1.8441 0
M  V30 49 H -1.547 2.4157 -1.1385 0
M  V30 50 H -1.3522 2.9597 -2.8009 0
M  V30 51 H -4.0195 -0.7246 -0.305 0
M  V30 52 H -3.148 -1.6295 -1.5463 0
M  V30 53 H 0.668 1.0273 -0.3087 0
M  V30 54 H -1.9847 0.6231 0.1476 0
M  V30 55 H 1.7718 -1.0431 -1.8984 0
M  V30 56 H 1.9202 -0.72 0.8722 0
M  V30 57 H 1.0602 -1.9689 0.0555 0
M  V30 58 H -3.3545 -0.8237 1.9346 0
M  V30 59 H -2.3689 -2.0239 2.7687 0
M  V30 60 H 1.3036 -1.9461 2.9004 0
M  V30 61 H -0.3461 -2.0073 3.5065 0
M  V30 62 H 0.1732 -3.0555 2.1766 0
M  V30 63 H -2.918 -3.6901 -0.5643 0
M  V30 64 H -2.2603 0.8575 2.511 0
M  V30 65 H -1.1325 2.0697 3.2519 0
M  V30 66 H -1.7164 -4.5884 2.1421 0
M  V30 67 H 0.931 2.7027 1.3894 0
M  V30 68 H 0.9995 3.0984 3.1484 0
M  V30 69 H -2.6421 -6.1008 -0.362 0
M  V30 70 H -1.4861 -6.9834 2.3855 0
M  V30 71 H -1.1143 -7.7551 0.8334 0
M  V30 72 H -2.7576 -7.8423 1.4973 0
M  V30 73 H 4.4625 6.2193 1.215 0
M  V30 74 H 5.1488 2.1033 2.3747 0
M  V30 75 H 6.9373 6.4792 1.0733 0
M  V30 76 H 7.5807 2.5621 2.1766 0
M  V30 END ATOM
M  V30 BEGIN BOND
M  V30 1 2 1 2
M  V30 2 1 2 3
M  V30 3 1 2 4
M  V30 4 2 3 5
M  V30 5 1 4 6
M  V30 6 1 5 7
M  V30 7 1 5 8
M  V30 8 1 7 9
M  V30 9 1 7 10
M  V30 10 1 8 11
M  V30 11 1 9 12
M  V30 12 1 9 13
M  V30 13 1 12 14
M  V30 14 1 12 15
M  V30 15 1 13 16
M  V30 16 1 15 17
M  V30 17 1 16 18
M  V30 18 1 16 19
M  V30 19 1 17 20
M  V30 20 1 17 21
M  V30 21 1 18 22
M  V30 22 1 19 23
M  V30 23 1 20 24
M  V30 24 2 20 25
M  V30 25 1 22 26
M  V30 26 2 24 27
M  V30 27 1 24 28
M  V30 28 2 26 29
M  V30 29 1 28 30
M  V30 30 1 29 31
M  V30 31 1 30 32
M  V30 32 2 32 33
M  V30 33 1 32 34
M  V30 34 2 34 35
M  V30 35 1 34 36
M  V30 36 1 35 37
M  V30 37 2 36 38
M  V30 38 2 37 39
M  V30 39 1 6 7
M  V30 40 1 11 13
M  V30 41 1 16 17
M  V30 42 1 22 23
M  V30 43 1 38 39
M  V30 44 1 3 40
M  V30 45 1 4 41
M  V30 46 1 4 42
M  V30 47 1 6 43
M  V30 48 1 6 44
M  V30 49 1 8 45
M  V30 50 1 8 46
M  V30 51 1 9 47
M  V30 52 1 10 48
M  V30 53 1 10 49
M  V30 54 1 10 50
M  V30 55 1 11 51
M  V30 56 1 11 52
M  V30 57 1 12 53
M  V30 58 1 13 54
M  V30 59 1 14 55
M  V30 60 1 15 56
M  V30 61 1 15 57
M  V30 62 1 19 58
M  V30 63 1 19 59
M  V30 64 1 21 60
M  V30 65 1 21 61
M  V30 66 1 21 62
M  V30 67 1 22 63
M  V30 68 1 25 64
M  V30 69 1 25 65
M  V30 70 1 26 66
M  V30 71 1 28 67
M  V30 72 1 28 68
M  V30 73 1 29 69
M  V30 74 1 31 70
M  V30 75 1 31 71
M  V30 76 1 31 72
M  V30 77 1 35 73
M  V30 78 1 36 74
M  V30 79 1 37 75
M  V30 80 1 38 76
M  V30 END BOND
M  V30 BEGIN COLLECTION
M  V30 MDLV30/STEABS ATOMS=(7 7 9 12 13 16 17 22)
M  V30 END COLLECTION
M  V30 END CTAB
M  END
>  <NO.>
5982

>  <Name>


>  <SMILES>
C=C(C(=O)COC(=O)c1ccncc1)[C@]1(C)C[C@@H](O)[C@H]2[C@@H](CCC3=CC(=O)CC[C@@]32C)[C@]12CO[C@H](/C=C/C)O2

>  <logBB>


>  <Class>
1

>  <MW>
535.26

>  <nHBAcc>
8

>  <nHBDon>
1

>  <SLogP>
4.14

>  <TopoPSA>
112.02

>  <MMFF94 Energy>
124.46

$$$$
C=CCN1CC[C@@]23c4c5ccc(O)c4[C@](O)(CCC)[C@H]4C[C@@]2(C=C[C@@]4(OC)[C@@H]3OC)[C@H]1C5
Actelion Java MolfileCreator 2.0

  0  0  0  0  0  0              0 V3000
M  V30 BEGIN CTAB
M  V30 COUNTS 67 72 0 0 0
M  V30 BEGIN ATOM
M  V30 1 O -2.1859 -2.591 -0.8901 0
M  V30 2 C -1.0478 -1.7316 -0.8382 0 CFG=2
M  V30 3 C -2.1482 -3.7434 -0.0606 0
M  V30 4 C 0.0933 -2.3763 -1.646 0
M  V30 5 C -0.4042 -1.4544 0.5587 0 CFG=2
M  V30 6 C -1.4204 -0.3579 -1.5082 0 CFG=1
M  V30 7 C 1.2261 -1.6516 -1.7272 0
M  V30 8 O -1.3573 -1.2208 1.5971 0
M  V30 9 C 0.6442 -0.299 0.3331 0 CFG=1
M  V30 10 C -2.2318 0.6365 -0.5592 0 CFG=2
M  V30 11 C -0.099 0.3139 -2.044 0
M  V30 12 C 1.096 -0.2348 -1.1709 0 CFG=2
M  V30 13 C -0.8599 -1.2354 2.923 0
M  V30 14 C 0.0715 1.1115 0.5396 0
M  V30 15 C 1.8515 -0.6423 1.2819 0
M  V30 16 O -2.7735 1.6447 -1.4783 0
M  V30 17 C -1.2944 1.463 0.3823 0
M  V30 18 C -3.5065 -0.0476 0.031 0
M  V30 19 C 2.374 0.6602 -1.2023 0 CFG=2
M  V30 20 C 0.9893 2.1772 0.4556 0
M  V30 21 C 3.2292 -0.0763 0.9386 0
M  V30 22 C -1.6397 2.7796 0.7678 0
M  V30 23 C -4.4774 0.824 0.8331 0
M  V30 24 N 3.4678 -0.0666 -0.5062 0
M  V30 25 C 2.1268 2.0766 -0.5669 0
M  V30 26 C 0.641 3.444 0.926 0
M  V30 27 O -2.8864 3.3009 0.546 0
M  V30 28 C -0.6927 3.7155 1.1775 0
M  V30 29 C -5.6697 0.0126 1.3257 0
M  V30 30 C 4.7944 0.4643 -0.8481 0
M  V30 31 C 5.8763 -0.5506 -0.6036 0
M  V30 32 C 6.6623 -1.0685 -1.5577 0
M  V30 33 H -2.9883 -4.3853 -0.3409 0
M  V30 34 H -1.225 -4.3133 -0.1961 0
M  V30 35 H -2.2758 -3.4741 0.9902 0
M  V30 36 H 0.0051 -3.3746 -2.056 0
M  V30 37 H 0.1 -2.3886 0.845 0
M  V30 38 H -2.0523 -0.5622 -2.3852 0
M  V30 39 H 2.1249 -1.9908 -2.2293 0
M  V30 40 H 0.0451 0.0405 -3.1001 0
M  V30 41 H -0.1687 1.4068 -2.0633 0
M  V30 42 H -0.3767 -0.2856 3.1613 0
M  V30 43 H -1.7111 -1.3486 3.6006 0
M  V30 44 H -0.177 -2.0738 3.0873 0
M  V30 45 H 1.989 -1.7322 1.2979 0
M  V30 46 H 1.6239 -0.3515 2.3127 0
M  V30 47 H -3.271 1.1625 -2.1636 0
M  V30 48 H -3.2706 -0.9061 0.6534 0
M  V30 49 H -4.0791 -0.4578 -0.8138 0
M  V30 50 H 2.6603 0.7934 -2.2543 0
M  V30 51 H 3.3484 0.9161 1.3892 0
M  V30 52 H 3.9721 -0.7086 1.4399 0
M  V30 53 H -3.9718 1.2488 1.7058 0
M  V30 54 H -4.8575 1.6428 0.2145 0
M  V30 55 H 1.8415 2.7348 -1.4009 0
M  V30 56 H 3.0404 2.517 -0.1524 0
M  V30 57 H 1.3623 4.2564 0.9405 0
M  V30 58 H -3.1571 2.8952 -0.3063 0
M  V30 59 H -1.0053 4.7183 1.4543 0
M  V30 60 H -6.3532 0.6515 1.8938 0
M  V30 61 H -6.2253 -0.4178 0.4864 0
M  V30 62 H -5.3461 -0.8037 1.9794 0
M  V30 63 H 5.025 1.3767 -0.2847 0
M  V30 64 H 4.8227 0.743 -1.9095 0
M  V30 65 H 6.0351 -0.8669 0.4237 0
M  V30 66 H 6.5523 -0.7907 -2.6011 0
M  V30 67 H 7.4291 -1.7957 -1.3098 0
M  V30 END ATOM
M  V30 BEGIN BOND
M  V30 1 1 1 2
M  V30 2 1 1 3
M  V30 3 1 2 4
M  V30 4 1 2 5
M  V30 5 1 2 6
M  V30 6 2 4 7
M  V30 7 1 5 8
M  V30 8 1 5 9
M  V30 9 1 6 10
M  V30 10 1 6 11
M  V30 11 1 7 12
M  V30 12 1 8 13
M  V30 13 1 9 14
M  V30 14 1 9 15
M  V30 15 1 10 16
M  V30 16 1 10 17
M  V30 17 1 10 18
M  V30 18 1 12 19
M  V30 19 1 14 20
M  V30 20 1 15 21
M  V30 21 1 17 22
M  V30 22 1 18 23
M  V30 23 1 19 24
M  V30 24 1 19 25
M  V30 25 2 20 26
M  V30 26 1 22 27
M  V30 27 2 22 28
M  V30 28 1 23 29
M  V30 29 1 24 30
M  V30 30 1 30 31
M  V30 31 2 31 32
M  V30 32 1 9 12
M  V30 33 1 11 12
M  V30 34 2 14 17
M  V30 35 1 20 25
M  V30 36 1 21 24
M  V30 37 1 26 28
M  V30 38 1 3 33
M  V30 39 1 3 34
M  V30 40 1 3 35
M  V30 41 1 4 36
M  V30 42 1 5 37
M  V30 43 1 6 38
M  V30 44 1 7 39
M  V30 45 1 11 40
M  V30 46 1 11 41
M  V30 47 1 13 42
M  V30 48 1 13 43
M  V30 49 1 13 44
M  V30 50 1 15 45
M  V30 51 1 15 46
M  V30 52 1 16 47
M  V30 53 1 18 48
M  V30 54 1 18 49
M  V30 55 1 19 50
M  V30 56 1 21 51
M  V30 57 1 21 52
M  V30 58 1 23 53
M  V30 59 1 23 54
M  V30 60 1 25 55
M  V30 61 1 25 56
M  V30 62 1 26 57
M  V30 63 1 27 58
M  V30 64 1 28 59
M  V30 65 1 29 60
M  V30 66 1 29 61
M  V30 67 1 29 62
M  V30 68 1 30 63
M  V30 69 1 30 64
M  V30 70 1 31 65
M  V30 71 1 32 66
M  V30 72 1 32 67
M  V30 END BOND
M  V30 BEGIN COLLECTION
M  V30 MDLV30/STEABS ATOMS=(7 2 5 6 9 10 12 19)
M  V30 END COLLECTION
M  V30 END CTAB
M  END
>  <NO.>
5999

>  <Name>


>  <SMILES>
C=CCN1CC[C@@]23c4c5ccc(O)c4[C@](O)(CCC)[C@H]4C[C@@]2(C=C[C@@]4(OC)[C@@H]3OC)[C@H]1C5

>  <logBB>


>  <Class>
1

>  <MW>
437.26

>  <nHBAcc>
5

>  <nHBDon>
2

>  <SLogP>
3.42

>  <TopoPSA>
62.16

>  <MMFF94 Energy>
210.38

$$$$
C=CC[C@]1([C@H](C)C#CCC)C(=O)N[C@H](O)N(C)[C@H]1O
Actelion Java MolfileCreator 2.0

  0  0  0  0  0  0              0 V3000
M  V30 BEGIN CTAB
M  V30 COUNTS 41 41 0 0 0
M  V30 BEGIN ATOM
M  V30 1 O 1.1724 1.016 1.7199 0
M  V30 2 C 0.114 0.489 1.3774 0
M  V30 3 N -1.0235 0.8935 2.0004 0
M  V30 4 C -0.0169 -0.528 0.2345 0 CFG=1
M  V30 5 C -2.1524 0.069 2.1935 0 CFG=2
M  V30 6 C -1.1668 -1.4864 0.6783 0 CFG=1
M  V30 7 C -0.3669 0.2831 -1.0751 0 CFG=1
M  V30 8 C 1.3596 -1.2671 0.1649 0
M  V30 9 O -1.892 -0.6751 3.3551 0
M  V30 10 N -2.3878 -0.7617 1.0351 0
M  V30 11 O -1.4839 -2.4037 -0.3568 0
M  V30 12 C 0.4849 1.492 -1.237 0
M  V30 13 C -0.3059 -0.4722 -2.4104 0
M  V30 14 C 1.4975 -2.491 -0.7019 0
M  V30 15 C -3.5043 -1.6707 1.3373 0
M  V30 16 C 1.1777 2.466 -1.3579 0
M  V30 17 C 2.4409 -2.6415 -1.6408 0
M  V30 18 C 2.0397 3.6482 -1.477 0
M  V30 19 C 2.8205 3.8882 -0.1958 0
M  V30 20 H -0.9047 1.6896 2.6112 0
M  V30 21 H -3.0034 0.7316 2.3851 0
M  V30 22 H -0.8205 -2.0947 1.5252 0
M  V30 23 H -1.3964 0.6539 -0.9746 0
M  V30 24 H 2.1406 -0.5447 -0.1097 0
M  V30 25 H 1.6234 -1.5929 1.1821 0
M  V30 26 H -1.1415 -0.2295 3.7781 0
M  V30 27 H -2.1791 -1.9613 -0.8716 0
M  V30 28 H -0.8638 -1.4077 -2.4121 0
M  V30 29 H -0.7368 0.1474 -3.2076 0
M  V30 30 H 0.7236 -0.6807 -2.7159 0
M  V30 31 H 0.8133 -3.3177 -0.5214 0
M  V30 32 H -3.2472 -2.4236 2.0914 0
M  V30 33 H -3.8439 -2.1949 0.4378 0
M  V30 34 H -4.375 -1.1079 1.6951 0
M  V30 35 H 3.1659 -1.8614 -1.8524 0
M  V30 36 H 2.504 -3.5563 -2.2218 0
M  V30 37 H 1.4309 4.5305 -1.7031 0
M  V30 38 H 2.7387 3.5153 -2.31 0
M  V30 39 H 2.1473 4.0515 0.6529 0
M  V30 40 H 3.4589 4.7712 -0.2989 0
M  V30 41 H 3.4597 3.0314 0.0441 0
M  V30 END ATOM
M  V30 BEGIN BOND
M  V30 1 2 1 2
M  V30 2 1 2 3
M  V30 3 1 2 4
M  V30 4 1 3 5
M  V30 5 1 4 6
M  V30 6 1 4 7
M  V30 7 1 4 8
M  V30 8 1 5 9
M  V30 9 1 5 10
M  V30 10 1 6 11
M  V30 11 1 7 12
M  V30 12 1 7 13
M  V30 13 1 8 14
M  V30 14 1 10 15
M  V30 15 3 12 16
M  V30 16 2 14 17
M  V30 17 1 16 18
M  V30 18 1 18 19
M  V30 19 1 6 10
M  V30 20 1 3 20
M  V30 21 1 5 21
M  V30 22 1 6 22
M  V30 23 1 7 23
M  V30 24 1 8 24
M  V30 25 1 8 25
M  V30 26 1 9 26
M  V30 27 1 11 27
M  V30 28 1 13 28
M  V30 29 1 13 29
M  V30 30 1 13 30
M  V30 31 1 14 31
M  V30 32 1 15 32
M  V30 33 1 15 33
M  V30 34 1 15 34
M  V30 35 1 17 35
M  V30 36 1 17 36
M  V30 37 1 18 37
M  V30 38 1 18 38
M  V30 39 1 19 39
M  V30 40 1 19 40
M  V30 41 1 19 41
M  V30 END BOND
M  V30 BEGIN COLLECTION
M  V30 MDLV30/STEABS ATOMS=(4 4 5 6 7)
M  V30 END COLLECTION
M  V30 END CTAB
M  END
>  <NO.>
6007

>  <Name>


>  <SMILES>
C=CC[C@]1([C@H](C)C#CCC)C(=O)N[C@H](O)N(C)[C@H]1O

>  <logBB>


>  <Class>
1

>  <MW>
266.16

>  <nHBAcc>
4

>  <nHBDon>
3

>  <SLogP>
0.25

>  <TopoPSA>
72.8

>  <MMFF94 Energy>
-155.17

$$$$
C=C[C@](C)(O)C(C)(C)C.COC12CC3(C1)[C@H]1Cc4ccc(O)c5c4[C@@]3(CCN1CC1CC1)[C@H]2O5
Actelion Java MolfileCreator 2.0

  0  0  0  0  0  0              0 V3000
M  V30 BEGIN CTAB
M  V30 COUNTS 75 80 0 0 0
M  V30 BEGIN ATOM
M  V30 1 O -2.8884 1.2829 4.4154 0
M  V30 2 C -1.8191 2.1466 4.2764 0
M  V30 3 C -2.3587 -0.0556 4.1706 0 CFG=2
M  V30 4 C -1.8686 3.5221 4.2163 0
M  V30 5 C -0.6534 1.4907 3.9475 0
M  V30 6 C -0.8495 0.0377 4.0284 0 CFG=2
M  V30 7 C -2.646 -0.649 2.7627 0
M  V30 8 O -3.0052 4.1806 4.5712 0
M  V30 9 C -0.7473 4.2087 3.7286 0
M  V30 10 C 0.3773 2.1057 3.2583 0
M  V30 11 C -0.6193 -0.4804 2.608 0
M  V30 12 C -0.0029 -0.7025 5.0531 0
M  V30 13 O -4.0124 -0.939 2.4325 0
M  V30 14 C -1.5381 -1.7655 2.5503 0
M  V30 15 C -1.7811 0.1123 1.6945 0
M  V30 16 C 0.3588 3.4998 3.2097 0
M  V30 17 C 1.2662 1.2354 2.3824 0
M  V30 18 C 0.8653 -0.3054 2.2916 0 CFG=1
M  V30 19 C 1.4694 -0.779 4.6256 0
M  V30 20 C -4.7016 -1.8539 3.2698 0
M  V30 21 N 1.6132 -1.1972 3.2173 0
M  V30 22 C 3.0332 -1.3567 2.8792 0
M  V30 23 C 3.2016 -2.0701 1.5702 0
M  V30 24 C 3.5256 -1.3174 0.3022 0
M  V30 25 C 4.5737 -2.1753 0.9509 0
M  V30 26 O 0.5507 1.5464 -5.097 0
M  V30 27 C -0.2924 0.4325 -5.4264 0 CFG=1
M  V30 28 C -1.5732 0.9861 -6.035 0
M  V30 29 C 0.4915 -0.5178 -6.418 0
M  V30 30 C -0.6783 -0.2428 -4.0978 0
M  V30 31 C -1.838 2.271 -6.3157 0
M  V30 32 C 0.8758 0.2433 -7.7107 0
M  V30 33 C -0.3353 -1.7568 -6.8253 0
M  V30 34 C 1.8114 -1.0264 -5.7907 0
M  V30 35 H -2.6843 -0.7223 4.9763 0
M  V30 36 H -2.8848 5.1277 4.4025 0
M  V30 37 H -0.7513 5.2927 3.6574 0
M  V30 38 H -0.3754 -1.7261 5.183 0
M  V30 39 H -0.072 -0.2217 6.0368 0
M  V30 40 H -1.4288 -2.5002 3.3526 0
M  V30 41 H -1.5627 -2.3066 1.5967 0
M  V30 42 H -1.9116 1.1956 1.6432 0
M  V30 43 H -1.8268 -0.2669 0.6656 0
M  V30 44 H 1.1512 4.0445 2.702 0
M  V30 45 H 1.1788 1.6311 1.3609 0
M  V30 46 H 2.3122 1.3694 2.6739 0
M  V30 47 H 1.0302 -0.6397 1.262 0
M  V30 48 H 1.9634 -1.5092 5.2789 0
M  V30 49 H 1.9653 0.182 4.8085 0
M  V30 50 H -5.6555 -2.1037 2.798 0
M  V30 51 H -4.9025 -1.3969 4.2424 0
M  V30 52 H -4.1217 -2.7722 3.3978 0
M  V30 53 H 3.5706 -0.4018 2.8873 0
M  V30 54 H 3.5121 -1.9891 3.6378 0
M  V30 55 H 2.5711 -2.9506 1.5019 0
M  V30 56 H 3.6491 -0.2418 0.3513 0
M  V30 57 H 3.0773 -1.6701 -0.6197 0
M  V30 58 H 5.4052 -1.679 1.438 0
M  V30 59 H 4.8385 -3.1079 0.4654 0
M  V30 60 H 1.2029 1.2485 -4.4431 0
M  V30 61 H -2.3534 0.2587 -6.2506 0
M  V30 62 H 0.2022 -0.5886 -3.5471 0
M  V30 63 H -1.176 0.4732 -3.431 0
M  V30 64 H -1.3555 -1.0907 -4.2394 0
M  V30 65 H -1.1099 3.0539 -6.1247 0
M  V30 66 H -2.7893 2.5652 -6.7459 0
M  V30 67 H 1.4835 1.1279 -7.4911 0
M  V30 68 H 1.4603 -0.3945 -8.3842 0
M  V30 69 H -0.0085 0.5698 -8.2678 0
M  V30 70 H -1.2614 -1.4806 -7.3389 0
M  V30 71 H 0.2313 -2.3957 -7.5132 0
M  V30 72 H -0.5962 -2.3728 -5.959 0
M  V30 73 H 2.3667 -1.652 -6.4999 0
M  V30 74 H 2.4722 -0.201 -5.5067 0
M  V30 75 H 1.6295 -1.6398 -4.9029 0
M  V30 END ATOM
M  V30 BEGIN BOND
M  V30 1 1 1 2
M  V30 2 1 1 3
M  V30 3 2 2 4
M  V30 4 1 2 5
M  V30 5 1 3 6
M  V30 6 1 3 7
M  V30 7 1 4 8
M  V30 8 1 4 9
M  V30 9 2 5 10
M  V30 10 1 6 11
M  V30 11 1 6 12
M  V30 12 1 7 13
M  V30 13 1 7 14
M  V30 14 1 7 15
M  V30 15 2 9 16
M  V30 16 1 10 17
M  V30 17 1 11 18
M  V30 18 1 12 19
M  V30 19 1 13 20
M  V30 20 1 18 21
M  V30 21 1 21 22
M  V30 22 1 22 23
M  V30 23 1 23 24
M  V30 24 1 23 25
M  V30 25 1 26 27
M  V30 26 1 27 28
M  V30 27 1 27 29
M  V30 28 1 27 30
M  V30 29 2 28 31
M  V30 30 1 29 32
M  V30 31 1 29 33
M  V30 32 1 29 34
M  V30 33 1 5 6
M  V30 34 1 10 16
M  V30 35 1 11 14
M  V30 36 1 11 15
M  V30 37 1 17 18
M  V30 38 1 19 21
M  V30 39 1 24 25
M  V30 40 1 3 35
M  V30 41 1 8 36
M  V30 42 1 9 37
M  V30 43 1 12 38
M  V30 44 1 12 39
M  V30 45 1 14 40
M  V30 46 1 14 41
M  V30 47 1 15 42
M  V30 48 1 15 43
M  V30 49 1 16 44
M  V30 50 1 17 45
M  V30 51 1 17 46
M  V30 52 1 18 47
M  V30 53 1 19 48
M  V30 54 1 19 49
M  V30 55 1 20 50
M  V30 56 1 20 51
M  V30 57 1 20 52
M  V30 58 1 22 53
M  V30 59 1 22 54
M  V30 60 1 23 55
M  V30 61 1 24 56
M  V30 62 1 24 57
M  V30 63 1 25 58
M  V30 64 1 25 59
M  V30 65 1 26 60
M  V30 66 1 28 61
M  V30 67 1 30 62
M  V30 68 1 30 63
M  V30 69 1 30 64
M  V30 70 1 31 65
M  V30 71 1 31 66
M  V30 72 1 32 67
M  V30 73 1 32 68
M  V30 74 1 32 69
M  V30 75 1 33 70
M  V30 76 1 33 71
M  V30 77 1 33 72
M  V30 78 1 34 73
M  V30 79 1 34 74
M  V30 80 1 34 75
M  V30 END BOND
M  V30 BEGIN COLLECTION
M  V30 MDLV30/STEABS ATOMS=(4 3 6 18 27)
M  V30 END COLLECTION
M  V30 END CTAB
M  END
>  <NO.>
6009

>  <Name>


>  <SMILES>
C=C[C@](C)(O)C(C)(C)C.COC12CC3(C1)[C@H]1Cc4ccc(O)c5c4[C@@]3(CCN1CC1CC1)[C@H]2O5

>  <logBB>


>  <Class>
1

>  <MW>
467.3

>  <nHBAcc>
5

>  <nHBDon>
2

>  <SLogP>
4.58

>  <TopoPSA>
62.16

>  <MMFF94 Energy>
129.33

$$$$
CC(=O)OCC(CCn1cnc2c1NC(N)=NC2)COC(C)=O
Actelion Java MolfileCreator 2.0

  0  0  0  0  0  0              0 V3000
M  V30 BEGIN CTAB
M  V30 COUNTS 44 45 0 0 0
M  V30 BEGIN ATOM
M  V30 1 O -1.256 3.1423 3.2996 0
M  V30 2 C -0.3817 2.315 3.0861 0
M  V30 3 O -0.2431 1.5919 1.9411 0
M  V30 4 C 0.7046 1.9569 4.0529 0
M  V30 5 C -1.2652 1.8337 0.9618 0
M  V30 6 C -0.9904 0.9585 -0.2759 0
M  V30 7 C -2.136 1.1038 -1.287 0
M  V30 8 C 0.3791 1.3182 -0.8981 0
M  V30 9 O -3.3623 0.6755 -0.6797 0
M  V30 10 C 0.8437 0.4086 -2.0417 0
M  V30 11 C -4.4428 0.7318 -1.5073 0
M  V30 12 N 0.9996 -0.976 -1.6611 0
M  V30 13 O -4.4201 1.112 -2.6691 0
M  V30 14 C -5.6687 0.2606 -0.7877 0
M  V30 15 C 1.9731 -1.5297 -0.8964 0
M  V30 16 C 0.1741 -2.0115 -2.0355 0
M  V30 17 N 3.0342 -0.9808 -0.2869 0
M  V30 18 C 1.6891 -2.8638 -0.8131 0
M  V30 19 N 0.5611 -3.1667 -1.5265 0
M  V30 20 C 3.8501 -1.8117 0.4447 0
M  V30 21 C 2.5546 -3.7808 -0.0253 0
M  V30 22 N 3.714 -3.0874 0.6249 0
M  V30 23 N 4.8915 -1.1774 1.0218 0
M  V30 24 H 0.6474 0.8932 4.2975 0
M  V30 25 H 1.6789 2.2013 3.6225 0
M  V30 26 H 0.5747 2.5329 4.9737 0
M  V30 27 H -2.2364 1.5803 1.4026 0
M  V30 28 H -1.2612 2.8949 0.6837 0
M  V30 29 H -0.9557 -0.0804 0.0762 0
M  V30 30 H -2.2319 2.1496 -1.6039 0
M  V30 31 H -1.9506 0.4784 -2.1661 0
M  V30 32 H 0.3431 2.3495 -1.2722 0
M  V30 33 H 1.1477 1.3055 -0.1159 0
M  V30 34 H 1.8205 0.7483 -2.4067 0
M  V30 35 H 0.1583 0.4567 -2.894 0
M  V30 36 H -5.5364 -0.7767 -0.4707 0
M  V30 37 H -5.8635 0.9048 0.0734 0
M  V30 38 H -6.5275 0.3121 -1.463 0
M  V30 39 H -0.6904 -1.8693 -2.6711 0
M  V30 40 H 3.2522 0.002 -0.3189 0
M  V30 41 H 2.9504 -4.5647 -0.6794 0
M  V30 42 H 1.9616 -4.261 0.76 0
M  V30 43 H 5.1503 -0.2248 0.833 0
M  V30 44 H 5.523 -1.7527 1.5646 0
M  V30 END ATOM
M  V30 BEGIN BOND
M  V30 1 2 1 2
M  V30 2 1 2 3
M  V30 3 1 2 4
M  V30 4 1 3 5
M  V30 5 1 5 6
M  V30 6 1 6 7
M  V30 7 1 6 8
M  V30 8 1 7 9
M  V30 9 1 8 10
M  V30 10 1 9 11
M  V30 11 1 10 12
M  V30 12 2 11 13
M  V30 13 1 11 14
M  V30 14 1 12 15
M  V30 15 1 12 16
M  V30 16 1 15 17
M  V30 17 2 15 18
M  V30 18 2 16 19
M  V30 19 1 17 20
M  V30 20 1 18 21
M  V30 21 2 20 22
M  V30 22 1 20 23
M  V30 23 1 18 19
M  V30 24 1 21 22
M  V30 25 1 4 24
M  V30 26 1 4 25
M  V30 27 1 4 26
M  V30 28 1 5 27
M  V30 29 1 5 28
M  V30 30 1 6 29
M  V30 31 1 7 30
M  V30 32 1 7 31
M  V30 33 1 8 32
M  V30 34 1 8 33
M  V30 35 1 10 34
M  V30 36 1 10 35
M  V30 37 1 14 36
M  V30 38 1 14 37
M  V30 39 1 14 38
M  V30 40 1 16 39
M  V30 41 1 17 40
M  V30 42 1 21 41
M  V30 43 1 21 42
M  V30 44 1 23 43
M  V30 45 1 23 44
M  V30 END BOND
M  V30 END CTAB
M  END
>  <NO.>
6039

>  <Name>
[2-(acetyloxymethyl)-4-(2-amino-3,6-dihydropurin-9-yl)butyl] acetate

>  <SMILES>
CC(=O)OCC(CCn1cnc2c1NC(N)=NC2)COC(C)=O

>  <logBB>


>  <Class>
1

>  <MW>
323.16

>  <nHBAcc>
8

>  <nHBDon>
2

>  <SLogP>
0.26

>  <TopoPSA>
120.83

>  <MMFF94 Energy>
-74.527

$$$$
CC(C)OCC(COC(C)C)OCn1cnc2c1NC(N)=NC2
Actelion Java MolfileCreator 2.0

  0  0  0  0  0  0              0 V3000
M  V30 BEGIN CTAB
M  V30 COUNTS 50 51 0 0 0
M  V30 BEGIN ATOM
M  V30 1 O -0.5461 0.078 0.0 0
M  V30 2 C 0.7209 0.7709 -0.0161 0
M  V30 3 C -1.3609 0.4131 1.1269 0
M  V30 4 C 1.7755 -0.1515 -0.6544 0
M  V30 5 C 0.5871 2.0827 -0.8061 0
M  V30 6 N -0.9497 -0.364 2.2779 0
M  V30 7 O 1.6285 -0.2491 -2.0748 0
M  V30 8 O -0.1483 3.0313 -0.0204 0
M  V30 9 C -0.6192 -1.6772 2.3286 0
M  V30 10 C -0.8293 0.1058 3.5652 0
M  V30 11 C 0.8224 -1.3443 -2.515 0
M  V30 12 C -0.31 4.2983 -0.6669 0
M  V30 13 N -0.5514 -2.5952 1.3551 0
M  V30 14 C -0.3057 -1.9553 3.6273 0
M  V30 15 N -0.4377 -0.8363 4.4059 0
M  V30 16 C 0.2917 -0.9826 -3.897 0
M  V30 17 C 1.6611 -2.6166 -2.5838 0
M  V30 18 C -1.4542 4.2452 -1.6741 0
M  V30 19 C -0.6158 5.3172 0.4252 0
M  V30 20 C -0.1439 -3.861 1.6976 0
M  V30 21 C 0.1288 -3.3204 4.0264 0
M  V30 22 N 0.1888 -4.2841 2.8767 0
M  V30 23 N -0.0976 -4.7144 0.6539 0
M  V30 24 H 1.0338 0.9792 1.0147 0
M  V30 25 H -2.3919 0.1217 0.9035 0
M  V30 26 H -1.3364 1.4769 1.3736 0
M  V30 27 H 1.7596 -1.1425 -0.1885 0
M  V30 28 H 2.7673 0.2797 -0.4798 0
M  V30 29 H 0.0545 1.9028 -1.7451 0
M  V30 30 H 1.5787 2.4989 -1.016 0
M  V30 31 H -1.0348 1.1348 3.8319 0
M  V30 32 H -0.0297 -1.4963 -1.8453 0
M  V30 33 H 0.6226 4.5889 -1.1649 0
M  V30 34 H -0.7191 -2.3656 0.3859 0
M  V30 35 H -0.3403 -1.7786 -4.3022 0
M  V30 36 H -0.298 -0.0606 -3.8478 0
M  V30 37 H 1.1125 -0.7936 -4.5977 0
M  V30 38 H 1.0792 -3.4523 -2.9848 0
M  V30 39 H 2.0273 -2.9026 -1.593 0
M  V30 40 H 2.5448 -2.4686 -3.2142 0
M  V30 41 H -1.6565 5.2348 -2.0959 0
M  V30 42 H -1.2211 3.5692 -2.5022 0
M  V30 43 H -2.3699 3.8673 -1.2061 0
M  V30 44 H -0.7429 6.3216 0.0098 0
M  V30 45 H 0.1973 5.3442 1.1587 0
M  V30 46 H -1.5246 5.0455 0.9739 0
M  V30 47 H 1.1245 -3.2708 4.4793 0
M  V30 48 H -0.5643 -3.7238 4.7719 0
M  V30 49 H -0.5112 -4.5204 -0.2415 0
M  V30 50 H 0.1886 -5.6625 0.8605 0
M  V30 END ATOM
M  V30 BEGIN BOND
M  V30 1 1 1 2
M  V30 2 1 1 3
M  V30 3 1 2 4
M  V30 4 1 2 5
M  V30 5 1 3 6
M  V30 6 1 4 7
M  V30 7 1 5 8
M  V30 8 1 6 9
M  V30 9 1 6 10
M  V30 10 1 7 11
M  V30 11 1 8 12
M  V30 12 1 9 13
M  V30 13 2 9 14
M  V30 14 2 10 15
M  V30 15 1 11 16
M  V30 16 1 11 17
M  V30 17 1 12 18
M  V30 18 1 12 19
M  V30 19 1 13 20
M  V30 20 1 14 21
M  V30 21 2 20 22
M  V30 22 1 20 23
M  V30 23 1 14 15
M  V30 24 1 21 22
M  V30 25 1 2 24
M  V30 26 1 3 25
M  V30 27 1 3 26
M  V30 28 1 4 27
M  V30 29 1 4 28
M  V30 30 1 5 29
M  V30 31 1 5 30
M  V30 32 1 10 31
M  V30 33 1 11 32
M  V30 34 1 12 33
M  V30 35 1 13 34
M  V30 36 1 16 35
M  V30 37 1 16 36
M  V30 38 1 16 37
M  V30 39 1 17 38
M  V30 40 1 17 39
M  V30 41 1 17 40
M  V30 42 1 18 41
M  V30 43 1 18 42
M  V30 44 1 18 43
M  V30 45 1 19 44
M  V30 46 1 19 45
M  V30 47 1 19 46
M  V30 48 1 21 47
M  V30 49 1 21 48
M  V30 50 1 23 49
M  V30 51 1 23 50
M  V30 END BOND
M  V30 END CTAB
M  END
>  <NO.>
6105

>  <Name>
9-[1,3-di(propan-2-yloxy)propan-2-yloxymethyl]-3,6-dihydropurin-2-amine

>  <SMILES>
CC(C)OCC(COC(C)C)OCn1cnc2c1NC(N)=NC2

>  <logBB>


>  <Class>
1

>  <MW>
325.21

>  <nHBAcc>
7

>  <nHBDon>
2

>  <SLogP>
1.32

>  <TopoPSA>
95.92

>  <MMFF94 Energy>
-2.194

$$$$
CC1(C)S[C@@H]2[C@H](NC(=O)[C@@H](NC(=O)c3cnc4cccnc4c3O)c3ccccc3)C(=O)N2[C@@H]1C(=O)O
Actelion Java MolfileCreator 2.0

  0  0  0  0  0  0              0 V3000
M  V30 BEGIN CTAB
M  V30 COUNTS 60 64 0 0 0
M  V30 BEGIN ATOM
M  V30 1 S 0.4073 2.7721 2.2009 0
M  V30 2 C 0.6015 4.6219 2.0476 0
M  V30 3 C -1.4122 2.9085 2.3635 0 CFG=1
M  V30 4 C -0.6509 5.0652 1.2579 0 CFG=2
M  V30 5 C 0.598 5.2294 3.4609 0
M  V30 6 C 1.9429 4.9324 1.3774 0
M  V30 7 N -1.7165 4.1877 1.7267 0
M  V30 8 C -2.3503 2.2461 1.318 0 CFG=1
M  V30 9 C -0.4322 4.9117 -0.2587 0
M  V30 10 C -2.7524 3.731 0.9819 0
M  V30 11 N -1.6913 1.5299 0.1933 0
M  V30 12 O -0.5032 3.8843 -0.9188 0
M  V30 13 O -0.0936 6.0782 -0.8479 0
M  V30 14 O -3.49 4.3142 0.2249 0
M  V30 15 C -1.4233 0.1798 0.2433 0
M  V30 16 O -1.7962 -0.5243 1.1833 0
M  V30 17 C -0.6522 -0.3705 -0.9795 0 CFG=1
M  V30 18 N 0.0265 -1.5966 -0.6033 0
M  V30 19 C -1.5686 -0.6138 -2.1665 0
M  V30 20 C 1.228 -1.9777 -1.1365 0
M  V30 21 C -1.1859 -0.1757 -3.4441 0
M  V30 22 C -2.7827 -1.3064 -2.0284 0
M  V30 23 O 1.8448 -1.2943 -1.9481 0
M  V30 24 C 1.7878 -3.2774 -0.6864 0
M  V30 25 C -2.0093 -0.3982 -4.549 0
M  V30 26 C -3.6052 -1.5262 -3.1347 0
M  V30 27 C 1.1919 -4.1466 0.2268 0
M  V30 28 C 3.0085 -3.6749 -1.2125 0
M  V30 29 C -3.2203 -1.069 -4.3931 0
M  V30 30 O -0.0248 -3.8487 0.8093 0
M  V30 31 C 1.7917 -5.3481 0.5923 0
M  V30 32 N 3.639 -4.8343 -0.8921 0
M  V30 33 N 1.1679 -6.1539 1.4858 0
M  V30 34 C 3.0311 -5.6457 -0.0056 0
M  V30 35 C 1.7881 -7.3085 1.8094 0
M  V30 36 C 3.6211 -6.8439 0.3639 0
M  V30 37 C 3.0044 -7.6941 1.28 0
M  V30 38 H -1.7744 2.8671 3.3963 0
M  V30 39 H -0.9518 6.0972 1.4688 0
M  V30 40 H -0.3295 5.0239 4.0065 0
M  V30 41 H 0.7035 6.3194 3.4071 0
M  V30 42 H 1.4311 4.8509 4.0647 0
M  V30 43 H 2.0454 6.0095 1.2019 0
M  V30 44 H 2.7851 4.6252 2.0088 0
M  V30 45 H 2.0618 4.4256 0.4136 0
M  V30 46 H -3.1772 1.6728 1.751 0
M  V30 47 H -1.3322 2.0775 -0.5915 0
M  V30 48 H -0.0221 5.8606 -1.8023 0
M  V30 49 H 0.1069 0.377 -1.2436 0
M  V30 50 H -0.4266 -2.1912 0.0897 0
M  V30 51 H -0.2325 0.3302 -3.5871 0
M  V30 52 H -3.0959 -1.6844 -1.0566 0
M  V30 53 H -1.7004 -0.0546 -5.5326 0
M  V30 54 H -4.5445 -2.0594 -3.014 0
M  V30 55 H 3.5411 -3.057 -1.933 0
M  V30 56 H -3.8597 -1.2438 -5.2541 0
M  V30 57 H -0.2079 -4.6078 1.4081 0
M  V30 58 H 1.2653 -7.9348 2.5276 0
M  V30 59 H 4.5787 -7.1181 -0.071 0
M  V30 60 H 3.4663 -8.6317 1.569 0
M  V30 END ATOM
M  V30 BEGIN BOND
M  V30 1 1 1 2
M  V30 2 1 1 3
M  V30 3 1 2 4
M  V30 4 1 2 5
M  V30 5 1 2 6
M  V30 6 1 3 7
M  V30 7 1 3 8
M  V30 8 1 4 9
M  V30 9 1 7 10
M  V30 10 1 8 11
M  V30 11 2 9 12
M  V30 12 1 9 13
M  V30 13 2 10 14
M  V30 14 1 11 15
M  V30 15 2 15 16
M  V30 16 1 15 17
M  V30 17 1 17 18
M  V30 18 1 17 19
M  V30 19 1 18 20
M  V30 20 2 19 21
M  V30 21 1 19 22
M  V30 22 2 20 23
M  V30 23 1 20 24
M  V30 24 1 21 25
M  V30 25 2 22 26
M  V30 26 2 24 27
M  V30 27 1 24 28
M  V30 28 2 25 29
M  V30 29 1 27 30
M  V30 30 1 27 31
M  V30 31 2 28 32
M  V30 32 2 31 33
M  V30 33 1 31 34
M  V30 34 1 33 35
M  V30 35 2 34 36
M  V30 36 2 35 37
M  V30 37 1 4 7
M  V30 38 1 8 10
M  V30 39 1 26 29
M  V30 40 1 32 34
M  V30 41 1 36 37
M  V30 42 1 3 38
M  V30 43 1 4 39
M  V30 44 1 5 40
M  V30 45 1 5 41
M  V30 46 1 5 42
M  V30 47 1 6 43
M  V30 48 1 6 44
M  V30 49 1 6 45
M  V30 50 1 8 46
M  V30 51 1 11 47
M  V30 52 1 13 48
M  V30 53 1 17 49
M  V30 54 1 18 50
M  V30 55 1 21 51
M  V30 56 1 22 52
M  V30 57 1 25 53
M  V30 58 1 26 54
M  V30 59 1 28 55
M  V30 60 1 29 56
M  V30 61 1 30 57
M  V30 62 1 35 58
M  V30 63 1 36 59
M  V30 64 1 37 60
M  V30 END BOND
M  V30 BEGIN COLLECTION
M  V30 MDLV30/STEABS ATOMS=(4 3 4 8 17)
M  V30 END COLLECTION
M  V30 END CTAB
M  END
>  <NO.>
6140

>  <Name>


>  <SMILES>
CC1(C)S[C@@H]2[C@H](NC(=O)[C@@H](NC(=O)c3cnc4cccnc4c3O)c3ccccc3)C(=O)N2[C@@H]1C(=O)O

>  <logBB>


>  <Class>
-1

>  <MW>
521.14

>  <nHBAcc>
8

>  <nHBDon>
4

>  <SLogP>
1.44

>  <TopoPSA>
161.82

>  <MMFF94 Energy>
130.18

$$$$
CC1(C)S[C@@H]2[C@H](NC(=O)[C@H](NC(=O)CNC(=N)c3ccncc3)c3ccccc3)C(=O)N2[C@@H]1C(=O)O
Actelion Java MolfileCreator 2.0

  0  0  0  0  0  0              0 V3000
M  V30 BEGIN CTAB
M  V30 COUNTS 62 65 0 0 0
M  V30 BEGIN ATOM
M  V30 1 S -2.0224 2.5892 -2.0224 0
M  V30 2 C -1.3375 1.9255 -3.6427 0
M  V30 3 C -2.6358 0.9491 -1.4301 0 CFG=1
M  V30 4 C -1.9822 0.5305 -3.7931 0 CFG=2
M  V30 5 C -1.7901 2.8876 -4.7485 0
M  V30 6 C 0.1914 1.9427 -3.5292 0
M  V30 7 N -2.1554 0.0082 -2.4472 0
M  V30 8 C -1.7555 0.2009 -0.3995 0 CFG=1
M  V30 9 C -1.3536 -0.4803 -4.7527 0
M  V30 10 C -1.1643 -0.4963 -1.6591 0
M  V30 11 N -0.7642 0.9967 0.3682 0
M  V30 12 O -1.453 -1.697 -4.6948 0
M  V30 13 O -0.7469 0.0759 -5.8189 0
M  V30 14 O -0.1505 -1.0986 -1.9359 0
M  V30 15 C -0.5316 0.7959 1.7204 0
M  V30 16 O -1.3015 0.1425 2.4201 0
M  V30 17 C 0.85 1.3412 2.1825 0 CFG=2
M  V30 18 N 1.8331 0.4072 1.642 0
M  V30 19 C 1.0068 1.4847 3.683 0
M  V30 20 C 2.2454 0.4768 0.329 0
M  V30 21 C 0.8835 0.3872 4.5518 0
M  V30 22 C 1.3123 2.7404 4.2342 0
M  V30 23 O 1.9746 1.435 -0.3944 0
M  V30 24 C 2.9694 -0.7739 -0.1826 0
M  V30 25 C 1.0523 0.5432 5.9291 0
M  V30 26 C 1.4813 2.8943 5.6121 0
M  V30 27 N 2.0291 -1.8909 -0.2293 0
M  V30 28 C 1.3509 1.7961 6.4587 0
M  V30 29 C 1.5455 -2.5623 0.8651 0
M  V30 30 N 2.1874 -2.6257 1.9876 0
M  V30 31 C 0.1958 -3.1946 0.7923 0
M  V30 32 C -0.6318 -3.1685 1.912 0
M  V30 33 C -0.2543 -3.7817 -0.3879 0
M  V30 34 C -1.9002 -3.7038 1.7908 0
M  V30 35 C -1.539 -4.2932 -0.4057 0
M  V30 36 N -2.3761 -4.2591 0.6538 0
M  V30 37 H -3.7152 0.8922 -1.2638 0
M  V30 38 H -3.0071 0.6566 -4.1727 0
M  V30 39 H -1.4182 2.5687 -5.7276 0
M  V30 40 H -2.8828 2.9437 -4.8188 0
M  V30 41 H -1.4135 3.9036 -4.5792 0
M  V30 42 H 0.6674 1.6301 -4.4637 0
M  V30 43 H 0.5636 2.9525 -3.316 0
M  V30 44 H 0.5648 1.2853 -2.741 0
M  V30 45 H -2.3182 -0.4998 0.2286 0
M  V30 46 H -0.0723 1.5474 -0.145 0
M  V30 47 H -0.4466 -0.6981 -6.3436 0
M  V30 48 H 0.9939 2.3182 1.7036 0
M  V30 49 H 1.9644 -0.4684 2.1439 0
M  V30 50 H 0.6426 -0.6011 4.1638 0
M  V30 51 H 1.4251 3.613 3.5937 0
M  V30 52 H 3.3363 -0.5685 -1.1937 0
M  V30 53 H 3.8389 -0.9862 0.4462 0
M  V30 54 H 0.9465 -0.3153 6.5875 0
M  V30 55 H 1.7154 3.8723 6.0251 0
M  V30 56 H 1.3954 -1.823 -1.0357 0
M  V30 57 H 1.4804 1.9161 7.5311 0
M  V30 58 H 3.1332 -2.2598 1.8755 0
M  V30 59 H -0.3092 -2.7207 2.8448 0
M  V30 60 H 0.3659 -3.8389 -1.2743 0
M  V30 61 H -2.5917 -3.6929 2.6287 0
M  V30 62 H -1.944 -4.754 -1.3025 0
M  V30 END ATOM
M  V30 BEGIN BOND
M  V30 1 1 1 2
M  V30 2 1 1 3
M  V30 3 1 2 4
M  V30 4 1 2 5
M  V30 5 1 2 6
M  V30 6 1 3 7
M  V30 7 1 3 8
M  V30 8 1 4 9
M  V30 9 1 7 10
M  V30 10 1 8 11
M  V30 11 2 9 12
M  V30 12 1 9 13
M  V30 13 2 10 14
M  V30 14 1 11 15
M  V30 15 2 15 16
M  V30 16 1 15 17
M  V30 17 1 17 18
M  V30 18 1 17 19
M  V30 19 1 18 20
M  V30 20 2 19 21
M  V30 21 1 19 22
M  V30 22 2 20 23
M  V30 23 1 20 24
M  V30 24 1 21 25
M  V30 25 2 22 26
M  V30 26 1 24 27
M  V30 27 2 25 28
M  V30 28 1 27 29
M  V30 29 2 29 30
M  V30 30 1 29 31
M  V30 31 2 31 32
M  V30 32 1 31 33
M  V30 33 1 32 34
M  V30 34 2 33 35
M  V30 35 2 34 36
M  V30 36 1 4 7
M  V30 37 1 8 10
M  V30 38 1 26 28
M  V30 39 1 35 36
M  V30 40 1 3 37
M  V30 41 1 4 38
M  V30 42 1 5 39
M  V30 43 1 5 40
M  V30 44 1 5 41
M  V30 45 1 6 42
M  V30 46 1 6 43
M  V30 47 1 6 44
M  V30 48 1 8 45
M  V30 49 1 11 46
M  V30 50 1 13 47
M  V30 51 1 17 48
M  V30 52 1 18 49
M  V30 53 1 21 50
M  V30 54 1 22 51
M  V30 55 1 24 52
M  V30 56 1 24 53
M  V30 57 1 25 54
M  V30 58 1 26 55
M  V30 59 1 27 56
M  V30 60 1 28 57
M  V30 61 1 30 58
M  V30 62 1 32 59
M  V30 63 1 33 60
M  V30 64 1 34 61
M  V30 65 1 35 62
M  V30 END BOND
M  V30 BEGIN COLLECTION
M  V30 MDLV30/STEABS ATOMS=(4 3 4 8 17)
M  V30 END COLLECTION
M  V30 END CTAB
M  END
>  <NO.>
6142

>  <Name>


>  <SMILES>
CC1(C)S[C@@H]2[C@H](NC(=O)[C@H](NC(=O)CNC(=N)c3ccncc3)c3ccccc3)C(=O)N2[C@@H]1C(=O)O

>  <logBB>


>  <Class>
-1

>  <MW>
510.17

>  <nHBAcc>
7

>  <nHBDon>
5

>  <SLogP>
0.49

>  <TopoPSA>
164.58

>  <MMFF94 Energy>
61.925

$$$$
CC1=CC=CN2C(=O)C(CCN3CCC(c4noc5cc(F)ccc45)CC3)=C(C)N[C@@H]12
Actelion Java MolfileCreator 2.0

  0  0  0  0  0  0              0 V3000
M  V30 BEGIN CTAB
M  V30 COUNTS 58 62 0 0 0
M  V30 BEGIN ATOM
M  V30 1 F 9.0123 3.1312 -0.8021 0
M  V30 2 C 7.8497 2.4902 -0.6202 0
M  V30 3 C 6.6593 3.1811 -0.8341 0
M  V30 4 C 7.8731 1.1534 -0.2231 0
M  V30 5 C 5.496 2.4489 -0.6249 0
M  V30 6 C 6.6792 0.4461 -0.0215 0
M  V30 7 O 4.2254 2.9063 -0.7711 0
M  V30 8 C 5.463 1.1219 -0.2301 0
M  V30 9 N 3.3302 1.8924 -0.4778 0
M  V30 10 C 4.0754 0.8253 -0.152 0
M  V30 11 C 3.4277 -0.4741 0.2255 0
M  V30 12 C 2.4509 -0.3202 1.3999 0
M  V30 13 C 2.7331 -1.1368 -0.9714 0
M  V30 14 C 1.7629 -1.6485 1.717 0
M  V30 15 C 2.0411 -2.4343 -0.5507 0
M  V30 16 N 1.0968 -2.2702 0.5652 0
M  V30 17 C -0.1331 -1.5756 0.1312 0
M  V30 18 C -1.2995 -1.7252 1.1241 0
M  V30 19 C -2.5304 -0.9849 0.66 0
M  V30 20 C -3.417 -1.7178 -0.3141 0
M  V30 21 C -2.8572 0.2861 0.9732 0
M  V30 22 O -3.0383 -2.7912 -0.7866 0
M  V30 23 N -4.5987 -1.0884 -0.6935 0
M  V30 24 N -4.0522 0.8139 0.5339 0
M  V30 25 C -1.9889 1.2097 1.7871 0
M  V30 26 C -5.2996 -1.5285 -1.8058 0
M  V30 27 C -5.147 -0.0423 0.1584 0 CFG=1
M  V30 28 C -6.3787 -0.8831 -2.2636 0
M  V30 29 C -6.2744 0.7407 -0.4816 0
M  V30 30 C -6.8468 0.318 -1.6237 0
M  V30 31 C -6.807 1.9391 0.2488 0
M  V30 32 H 6.6436 4.2174 -1.1428 0
M  V30 33 H 8.8311 0.6633 -0.0713 0
M  V30 34 H 6.7023 -0.5947 0.2866 0
M  V30 35 H 4.2223 -1.1574 0.5579 0
M  V30 36 H 2.9925 0.0272 2.2888 0
M  V30 37 H 1.6968 0.4466 1.1843 0
M  V30 38 H 2.0031 -0.4531 -1.4232 0
M  V30 39 H 3.4699 -1.3578 -1.7539 0
M  V30 40 H 1.0692 -1.5125 2.5527 0
M  V30 41 H 2.517 -2.3526 2.0936 0
M  V30 42 H 2.8047 -3.1645 -0.2519 0
M  V30 43 H 1.5378 -2.8839 -1.4154 0
M  V30 44 H -0.4597 -2.0077 -0.8236 0
M  V30 45 H 0.0581 -0.5142 -0.0658 0
M  V30 46 H -1.5341 -2.7881 1.2654 0
M  V30 47 H -1.02 -1.3672 2.12 0
M  V30 48 H -4.24 1.7881 0.7282 0
M  V30 49 H -2.4551 1.4038 2.7586 0
M  V30 50 H -1.8675 2.1669 1.2678 0
M  V30 51 H -0.9845 0.8182 1.9647 0
M  V30 52 H -4.9076 -2.4029 -2.3196 0
M  V30 53 H -5.5381 -0.5344 1.0599 0
M  V30 54 H -6.8985 -1.2332 -3.1495 0
M  V30 55 H -7.6767 0.8449 -2.0844 0
M  V30 56 H -6.0969 2.7702 0.2072 0
M  V30 57 H -7.7506 2.2933 -0.1803 0
M  V30 58 H -6.9989 1.6919 1.298 0
M  V30 END ATOM
M  V30 BEGIN BOND
M  V30 1 1 1 2
M  V30 2 2 2 3
M  V30 3 1 2 4
M  V30 4 1 3 5
M  V30 5 2 4 6
M  V30 6 1 5 7
M  V30 7 2 5 8
M  V30 8 1 7 9
M  V30 9 1 8 10
M  V30 10 1 10 11
M  V30 11 1 11 12
M  V30 12 1 11 13
M  V30 13 1 12 14
M  V30 14 1 13 15
M  V30 15 1 14 16
M  V30 16 1 16 17
M  V30 17 1 17 18
M  V30 18 1 18 19
M  V30 19 1 19 20
M  V30 20 2 19 21
M  V30 21 2 20 22
M  V30 22 1 20 23
M  V30 23 1 21 24
M  V30 24 1 21 25
M  V30 25 1 23 26
M  V30 26 1 23 27
M  V30 27 2 26 28
M  V30 28 1 27 29
M  V30 29 1 28 30
M  V30 30 1 29 31
M  V30 31 1 6 8
M  V30 32 2 9 10
M  V30 33 1 15 16
M  V30 34 1 24 27
M  V30 35 2 29 30
M  V30 36 1 3 32
M  V30 37 1 4 33
M  V30 38 1 6 34
M  V30 39 1 11 35
M  V30 40 1 12 36
M  V30 41 1 12 37
M  V30 42 1 13 38
M  V30 43 1 13 39
M  V30 44 1 14 40
M  V30 45 1 14 41
M  V30 46 1 15 42
M  V30 47 1 15 43
M  V30 48 1 17 44
M  V30 49 1 17 45
M  V30 50 1 18 46
M  V30 51 1 18 47
M  V30 52 1 24 48
M  V30 53 1 25 49
M  V30 54 1 25 50
M  V30 55 1 25 51
M  V30 56 1 26 52
M  V30 57 1 27 53
M  V30 58 1 28 54
M  V30 59 1 30 55
M  V30 60 1 31 56
M  V30 61 1 31 57
M  V30 62 1 31 58
M  V30 END BOND
M  V30 BEGIN COLLECTION
M  V30 MDLV30/STEABS ATOMS=(1 27)
M  V30 END COLLECTION
M  V30 END CTAB
M  END
>  <NO.>
6163

>  <Name>


>  <SMILES>
CC1=CC=CN2C(=O)C(CCN3CCC(c4noc5cc(F)ccc45)CC3)=C(C)N[C@@H]12

>  <logBB>


>  <Class>
1

>  <MW>
422.21

>  <nHBAcc>
5

>  <nHBDon>
1

>  <SLogP>
4.04

>  <TopoPSA>
61.61

>  <MMFF94 Energy>
-4.5799

$$$$
CC1=CC[C@@H]2N(C)[C@@H]3Cc4ccc(O)c5c4[C@]2(C3)[C@@H]1O5
Actelion Java MolfileCreator 2.0

  0  0  0  0  0  0              0 V3000
M  V30 BEGIN CTAB
M  V30 COUNTS 39 43 0 0 0
M  V30 BEGIN ATOM
M  V30 1 O -1.8665 1.3794 -0.8112 0
M  V30 2 C -2.0718 0.1657 -0.2091 0
M  V30 3 C -0.4211 1.6024 -0.7581 0 CFG=2
M  V30 4 C -3.2663 -0.5168 -0.1092 0
M  V30 5 C -0.9568 -0.2919 0.4515 0
M  V30 6 C 0.0661 1.4046 -2.1982 0
M  V30 7 C 0.2003 0.6303 0.2618 0 CFG=1
M  V30 8 O -4.3651 -0.0664 -0.776 0
M  V30 9 C -3.3264 -1.6523 0.7088 0
M  V30 10 C -1.0176 -1.3226 1.3789 0
M  V30 11 C 0.8726 0.3867 -2.5646 0
M  V30 12 C -0.4614 2.3888 -3.205 0
M  V30 13 C 1.5404 0.0515 -0.2117 0 CFG=2
M  V30 14 C 0.6009 0.9977 1.6856 0
M  V30 15 C -2.2089 -2.0411 1.4743 0
M  V30 16 C 0.1383 -1.4542 2.3434 0
M  V30 17 C 1.4461 -0.6034 -1.5855 0
M  V30 18 N 2.0125 -0.8066 0.8992 0
M  V30 19 C 1.239 -0.3658 2.0963 0 CFG=1
M  V30 20 C 3.4526 -0.6916 1.1026 0
M  V30 21 H -0.2439 2.6404 -0.452 0
M  V30 22 H -5.1021 -0.6729 -0.6063 0
M  V30 23 H -4.2504 -2.2134 0.8118 0
M  V30 24 H 1.1434 0.2483 -3.6085 0
M  V30 25 H -0.1876 3.4084 -2.9151 0
M  V30 26 H -1.5518 2.3267 -3.2743 0
M  V30 27 H -0.0548 2.2095 -4.2058 0
M  V30 28 H 2.2358 0.903 -0.3105 0
M  V30 29 H -0.23 1.2862 2.3398 0
M  V30 30 H 1.3464 1.8023 1.7019 0
M  V30 31 H -2.2986 -2.8663 2.1762 0
M  V30 32 H -0.2536 -1.3091 3.3581 0
M  V30 33 H 0.5643 -2.4629 2.2901 0
M  V30 34 H 0.8305 -1.5097 -1.5719 0
M  V30 35 H 2.4486 -0.895 -1.9195 0
M  V30 36 H 1.8621 -0.271 2.993 0
M  V30 37 H 3.9937 -0.9953 0.2002 0
M  V30 38 H 3.7587 0.3277 1.3639 0
M  V30 39 H 3.7753 -1.3624 1.9062 0
M  V30 END ATOM
M  V30 BEGIN BOND
M  V30 1 1 1 2
M  V30 2 1 1 3
M  V30 3 2 2 4
M  V30 4 1 2 5
M  V30 5 1 3 6
M  V30 6 1 3 7
M  V30 7 1 4 8
M  V30 8 1 4 9
M  V30 9 2 5 10
M  V30 10 2 6 11
M  V30 11 1 6 12
M  V30 12 1 7 13
M  V30 13 1 7 14
M  V30 14 2 9 15
M  V30 15 1 10 16
M  V30 16 1 11 17
M  V30 17 1 13 18
M  V30 18 1 14 19
M  V30 19 1 18 20
M  V30 20 1 5 7
M  V30 21 1 10 15
M  V30 22 1 13 17
M  V30 23 1 16 19
M  V30 24 1 18 19
M  V30 25 1 3 21
M  V30 26 1 8 22
M  V30 27 1 9 23
M  V30 28 1 11 24
M  V30 29 1 12 25
M  V30 30 1 12 26
M  V30 31 1 12 27
M  V30 32 1 13 28
M  V30 33 1 14 29
M  V30 34 1 14 30
M  V30 35 1 15 31
M  V30 36 1 16 32
M  V30 37 1 16 33
M  V30 38 1 17 34
M  V30 39 1 17 35
M  V30 40 1 19 36
M  V30 41 1 20 37
M  V30 42 1 20 38
M  V30 43 1 20 39
M  V30 END BOND
M  V30 BEGIN COLLECTION
M  V30 MDLV30/STEABS ATOMS=(4 3 7 13 19)
M  V30 END COLLECTION
M  V30 END CTAB
M  END
>  <NO.>
6164

>  <Name>


>  <SMILES>
CC1=CC[C@@H]2N(C)[C@@H]3Cc4ccc(O)c5c4[C@]2(C3)[C@@H]1O5

>  <logBB>


>  <Class>
1

>  <MW>
269.14

>  <nHBAcc>
3

>  <nHBDon>
1

>  <SLogP>
2.37

>  <TopoPSA>
32.7

>  <MMFF94 Energy>
105.26

$$$$
CC1=N[C@@H]2Cc3ccccc3N=C(N3CCN(C)CC3)N2N1
Actelion Java MolfileCreator 2.0

  0  0  0  0  0  0              0 V3000
M  V30 BEGIN CTAB
M  V30 COUNTS 44 47 0 0 0
M  V30 BEGIN ATOM
M  V30 1 N -0.3183 0.7164 1.5129 0
M  V30 2 C 0.0749 0.1728 0.4015 0
M  V30 3 C -0.5727 0.0799 2.7339 0
M  V30 4 N 0.2922 1.0138 -0.6883 0
M  V30 5 N 0.3091 -1.1494 0.1 0
M  V30 6 C -0.9782 -1.2495 2.9292 0
M  V30 7 C -0.4625 0.9094 3.862 0
M  V30 8 C -0.5389 2.2225 -0.83 0
M  V30 9 C 1.6753 1.23 -1.1529 0
M  V30 10 N 0.3765 -1.6754 -1.1464 0
M  V30 11 C 0.19 -2.2884 0.9936 0 CFG=1
M  V30 12 C -1.2646 -1.7085 4.2318 0
M  V30 13 C -1.1116 -2.2192 1.7853 0
M  V30 14 C -0.7361 0.4477 5.1502 0
M  V30 15 C -0.4985 2.7406 -2.2834 0
M  V30 16 C 1.6867 1.7609 -2.6018 0
M  V30 17 C 0.2858 -3.0344 -1.0687 0
M  V30 18 N 0.1742 -3.5446 0.1388 0
M  V30 19 C -1.1412 -0.8661 5.3346 0
M  V30 20 N 0.8778 2.9865 -2.7667 0
M  V30 21 C 0.2643 -3.8893 -2.2933 0
M  V30 22 C 0.8689 3.4233 -4.1603 0
M  V30 23 H -0.1608 1.9455 3.7223 0
M  V30 24 H -1.5803 1.9952 -0.5723 0
M  V30 25 H -0.1842 3.0017 -0.1436 0
M  V30 26 H 2.1711 1.9482 -0.4873 0
M  V30 27 H 2.2573 0.3027 -1.1137 0
M  V30 28 H 0.2652 -1.0989 -1.9712 0
M  V30 29 H 1.0672 -2.3498 1.6502 0
M  V30 30 H -1.5845 -2.7361 4.3937 0
M  V30 31 H -1.9592 -1.9226 1.154 0
M  V30 32 H -1.3511 -3.2189 2.1697 0
M  V30 33 H -0.6395 1.1182 5.9992 0
M  V30 34 H -1.0751 3.6721 -2.3322 0
M  V30 35 H -0.9996 2.0093 -2.9321 0
M  V30 36 H 2.7259 1.9686 -2.8833 0
M  V30 37 H 1.3164 0.9715 -3.2697 0
M  V30 38 H -1.3629 -1.2356 6.332 0
M  V30 39 H -0.7578 -3.9353 -2.6785 0
M  V30 40 H 0.9165 -3.4621 -3.0595 0
M  V30 41 H 0.603 -4.9005 -2.0536 0
M  V30 42 H 0.2979 4.3521 -4.2675 0
M  V30 43 H 0.4336 2.672 -4.829 0
M  V30 44 H 1.8876 3.6385 -4.501 0
M  V30 END ATOM
M  V30 BEGIN BOND
M  V30 1 2 1 2
M  V30 2 1 1 3
M  V30 3 1 2 4
M  V30 4 1 2 5
M  V30 5 2 3 6
M  V30 6 1 3 7
M  V30 7 1 4 8
M  V30 8 1 4 9
M  V30 9 1 5 10
M  V30 10 1 5 11
M  V30 11 1 6 12
M  V30 12 1 6 13
M  V30 13 2 7 14
M  V30 14 1 8 15
M  V30 15 1 9 16
M  V30 16 1 10 17
M  V30 17 1 11 18
M  V30 18 2 12 19
M  V30 19 1 15 20
M  V30 20 1 17 21
M  V30 21 1 20 22
M  V30 22 1 11 13
M  V30 23 1 14 19
M  V30 24 1 16 20
M  V30 25 2 17 18
M  V30 26 1 7 23
M  V30 27 1 8 24
M  V30 28 1 8 25
M  V30 29 1 9 26
M  V30 30 1 9 27
M  V30 31 1 10 28
M  V30 32 1 11 29
M  V30 33 1 12 30
M  V30 34 1 13 31
M  V30 35 1 13 32
M  V30 36 1 14 33
M  V30 37 1 15 34
M  V30 38 1 15 35
M  V30 39 1 16 36
M  V30 40 1 16 37
M  V30 41 1 19 38
M  V30 42 1 21 39
M  V30 43 1 21 40
M  V30 44 1 21 41
M  V30 45 1 22 42
M  V30 46 1 22 43
M  V30 47 1 22 44
M  V30 END BOND
M  V30 BEGIN COLLECTION
M  V30 MDLV30/STEABS ATOMS=(1 11)
M  V30 END COLLECTION
M  V30 END CTAB
M  END
>  <NO.>
6167

>  <Name>


>  <SMILES>
CC1=N[C@@H]2Cc3ccccc3N=C(N3CCN(C)CC3)N2N1

>  <logBB>


>  <Class>
1

>  <MW>
298.19

>  <nHBAcc>
6

>  <nHBDon>
1

>  <SLogP>
1.04

>  <TopoPSA>
46.47

>  <MMFF94 Energy>
70.146

$$$$
CCC1=C(C)N(N)C(c2ccc(OC)c(OC)c2)=C2C=C(OC)C(OC)=C[C@@H]21
Actelion Java MolfileCreator 2.0

  0  0  0  0  0  0              0 V3000
M  V30 BEGIN CTAB
M  V30 COUNTS 56 58 0 0 0
M  V30 BEGIN ATOM
M  V30 1 O -2.449 1.6585 2.7654 0
M  V30 2 C -1.8277 1.5646 1.5406 0
M  V30 3 C -1.7111 1.2624 3.9136 0
M  V30 4 C -2.6602 1.9798 0.4093 0
M  V30 5 C -0.5816 1.1026 1.3031 0
M  V30 6 O -4.0076 2.1921 0.6283 0
M  V30 7 C -2.1118 2.2485 -0.7882 0
M  V30 8 C -0.0608 1.0407 -0.0653 0
M  V30 9 C -4.7171 0.9561 0.6863 0
M  V30 10 C -0.6143 2.1222 -0.999 0 CFG=1
M  V30 11 C 0.7689 0.0825 -0.5353 0
M  V30 12 C -0.1942 1.9571 -2.465 0
M  V30 13 N 1.1109 0.0132 -1.8942 0
M  V30 14 C 1.2752 -0.9667 0.3816 0
M  V30 15 C 0.6238 0.9354 -2.8392 0
M  V30 16 C -0.6365 3.0634 -3.4097 0
M  V30 17 N 1.9401 -1.0268 -2.3574 0
M  V30 18 C 0.5097 -2.1143 0.6327 0
M  V30 19 C 2.5124 -0.809 1.0139 0
M  V30 20 C 1.1039 0.7592 -4.2698 0
M  V30 21 C 0.4114 4.1629 -3.5317 0
M  V30 22 C 0.9766 -3.1014 1.5074 0
M  V30 23 C 2.988 -1.7917 1.8849 0
M  V30 24 O 0.2929 -4.2534 1.8106 0
M  V30 25 C 2.2292 -2.9403 2.1365 0
M  V30 26 C -0.9986 -4.4218 1.2435 0
M  V30 27 O 2.6152 -3.9546 2.9777 0
M  V30 28 C 3.8819 -3.8426 3.61 0
M  V30 29 H -1.4552 0.1988 3.867 0
M  V30 30 H -2.3458 1.4168 4.7914 0
M  V30 31 H -0.8132 1.8771 4.0352 0
M  V30 32 H 0.0456 0.7201 2.0988 0
M  V30 33 H -2.7539 2.6181 -1.5775 0
M  V30 34 H -4.5782 0.3808 -0.2357 0
M  V30 35 H -5.7824 1.1853 0.7857 0
M  V30 36 H -4.4185 0.3584 1.5535 0
M  V30 37 H -0.1714 3.0778 -0.6768 0
M  V30 38 H -1.5692 3.5249 -3.0733 0
M  V30 39 H -0.8785 2.6616 -4.3991 0
M  V30 40 H 2.8176 -1.0173 -1.838 0
M  V30 41 H 1.4983 -1.9238 -2.1543 0
M  V30 42 H -0.4491 -2.2065 0.132 0
M  V30 43 H 3.1096 0.0818 0.8304 0
M  V30 44 H 2.199 0.7782 -4.3099 0
M  V30 45 H 0.7514 -0.1969 -4.6721 0
M  V30 46 H 0.7633 1.5339 -4.9585 0
M  V30 47 H 0.06 4.9422 -4.2158 0
M  V30 48 H 1.3584 3.7766 -3.9216 0
M  V30 49 H 0.6084 4.6317 -2.5617 0
M  V30 50 H 3.9528 -1.629 2.3533 0
M  V30 51 H -1.678 -3.6238 1.5613 0
M  V30 52 H -1.4043 -5.3691 1.6116 0
M  V30 53 H -0.9444 -4.4858 0.1518 0
M  V30 54 H 4.6906 -3.8095 2.8726 0
M  V30 55 H 4.0293 -4.7361 4.2243 0
M  V30 56 H 3.9156 -2.9734 4.2751 0
M  V30 END ATOM
M  V30 BEGIN BOND
M  V30 1 1 1 2
M  V30 2 1 1 3
M  V30 3 1 2 4
M  V30 4 2 2 5
M  V30 5 1 4 6
M  V30 6 2 4 7
M  V30 7 1 5 8
M  V30 8 1 6 9
M  V30 9 1 7 10
M  V30 10 2 8 11
M  V30 11 1 10 12
M  V30 12 1 11 13
M  V30 13 1 11 14
M  V30 14 2 12 15
M  V30 15 1 12 16
M  V30 16 1 13 17
M  V30 17 2 14 18
M  V30 18 1 14 19
M  V30 19 1 15 20
M  V30 20 1 16 21
M  V30 21 1 18 22
M  V30 22 2 19 23
M  V30 23 1 22 24
M  V30 24 2 22 25
M  V30 25 1 24 26
M  V30 26 1 25 27
M  V30 27 1 27 28
M  V30 28 1 8 10
M  V30 29 1 13 15
M  V30 30 1 23 25
M  V30 31 1 3 29
M  V30 32 1 3 30
M  V30 33 1 3 31
M  V30 34 1 5 32
M  V30 35 1 7 33
M  V30 36 1 9 34
M  V30 37 1 9 35
M  V30 38 1 9 36
M  V30 39 1 10 37
M  V30 40 1 16 38
M  V30 41 1 16 39
M  V30 42 1 17 40
M  V30 43 1 17 41
M  V30 44 1 18 42
M  V30 45 1 19 43
M  V30 46 1 20 44
M  V30 47 1 20 45
M  V30 48 1 20 46
M  V30 49 1 21 47
M  V30 50 1 21 48
M  V30 51 1 21 49
M  V30 52 1 23 50
M  V30 53 1 26 51
M  V30 54 1 26 52
M  V30 55 1 26 53
M  V30 56 1 28 54
M  V30 57 1 28 55
M  V30 58 1 28 56
M  V30 END BOND
M  V30 BEGIN COLLECTION
M  V30 MDLV30/STEABS ATOMS=(1 10)
M  V30 END COLLECTION
M  V30 END CTAB
M  END
>  <NO.>
6192

>  <Name>


>  <SMILES>
CCC1=C(C)N(N)C(c2ccc(OC)c(OC)c2)=C2C=C(OC)C(OC)=C[C@@H]21

>  <logBB>


>  <Class>
1

>  <MW>
384.2

>  <nHBAcc>
6

>  <nHBDon>
1

>  <SLogP>
3.98

>  <TopoPSA>
66.18

>  <MMFF94 Energy>
89.032

$$$$
CCCCCCCCCN[C@@H]1N=CNc2[nH]ccc21
Actelion Java MolfileCreator 2.0

  0  0  0  0  0  0              0 V3000
M  V30 BEGIN CTAB
M  V30 COUNTS 45 46 0 0 0
M  V30 BEGIN ATOM
M  V30 1 N -1.7135 -1.4797 -3.5855 0
M  V30 2 C -2.2286 -2.0122 -4.6399 0
M  V30 3 C -2.4759 -1.562 -2.315 0 CFG=1
M  V30 4 N -3.4184 -2.6943 -4.7657 0
M  V30 5 N -2.8119 -0.2315 -1.8161 0
M  V30 6 C -3.7647 -2.3312 -2.4475 0
M  V30 7 C -4.1549 -2.843 -3.6571 0
M  V30 8 C -1.6467 0.607 -1.5429 0
M  V30 9 C -4.7636 -2.718 -1.5151 0
M  V30 10 N -5.3407 -3.4914 -3.5342 0
M  V30 11 C -0.8602 0.1786 -0.2991 0
M  V30 12 C -5.7244 -3.4285 -2.2128 0
M  V30 13 C 0.2755 1.1608 -3.0E-4 0
M  V30 14 C 1.0652 0.7381 1.2396 0
M  V30 15 C 2.1997 1.7197 1.538 0
M  V30 16 C 2.9894 1.2969 2.7779 0
M  V30 17 C 4.124 2.2784 3.0764 0
M  V30 18 C 4.9131 1.8558 4.3154 0
M  V30 19 C 6.042 2.829 4.6156 0
M  V30 20 H -1.6844 -1.9507 -5.5968 0
M  V30 21 H -1.8583 -2.1037 -1.589 0
M  V30 22 H -3.6884 -3.0435 -5.6762 0
M  V30 23 H -3.3614 -0.3367 -0.9687 0
M  V30 24 H -0.9859 0.6688 -2.4151 0
M  V30 25 H -2.0187 1.6265 -1.3825 0
M  V30 26 H -4.785 -2.5009 -0.4553 0
M  V30 27 H -5.8529 -3.9505 -4.274 0
M  V30 28 H -0.4359 -0.8215 -0.4417 0
M  V30 29 H -1.5336 0.1263 0.5655 0
M  V30 30 H -6.6454 -3.8917 -1.885 0
M  V30 31 H -0.1376 2.1653 0.1527 0
M  V30 32 H 0.9494 1.2161 -0.864 0
M  V30 33 H 1.4789 -0.266 1.0869 0
M  V30 34 H 0.391 0.6823 2.103 0
M  V30 35 H 1.7859 2.7239 1.6909 0
M  V30 36 H 2.8737 1.7755 0.6746 0
M  V30 37 H 3.4031 0.2926 2.6251 0
M  V30 38 H 2.3153 1.241 3.6415 0
M  V30 39 H 3.7104 3.2828 3.2292 0
M  V30 40 H 4.798 2.3345 2.213 0
M  V30 41 H 4.2445 1.8022 5.1826 0
M  V30 42 H 5.3322 0.8539 4.1663 0
M  V30 43 H 6.5929 2.5077 5.5051 0
M  V30 44 H 6.7471 2.8818 3.7799 0
M  V30 45 H 5.6534 3.8354 4.8018 0
M  V30 END ATOM
M  V30 BEGIN BOND
M  V30 1 2 1 2
M  V30 2 1 1 3
M  V30 3 1 2 4
M  V30 4 1 3 5
M  V30 5 1 3 6
M  V30 6 1 4 7
M  V30 7 1 5 8
M  V30 8 1 6 9
M  V30 9 1 7 10
M  V30 10 1 8 11
M  V30 11 2 9 12
M  V30 12 1 11 13
M  V30 13 1 13 14
M  V30 14 1 14 15
M  V30 15 1 15 16
M  V30 16 1 16 17
M  V30 17 1 17 18
M  V30 18 1 18 19
M  V30 19 2 6 7
M  V30 20 1 10 12
M  V30 21 1 2 20
M  V30 22 1 3 21
M  V30 23 1 4 22
M  V30 24 1 5 23
M  V30 25 1 8 24
M  V30 26 1 8 25
M  V30 27 1 9 26
M  V30 28 1 10 27
M  V30 29 1 11 28
M  V30 30 1 11 29
M  V30 31 1 12 30
M  V30 32 1 13 31
M  V30 33 1 13 32
M  V30 34 1 14 33
M  V30 35 1 14 34
M  V30 36 1 15 35
M  V30 37 1 15 36
M  V30 38 1 16 37
M  V30 39 1 16 38
M  V30 40 1 17 39
M  V30 41 1 17 40
M  V30 42 1 18 41
M  V30 43 1 18 42
M  V30 44 1 19 43
M  V30 45 1 19 44
M  V30 46 1 19 45
M  V30 END BOND
M  V30 BEGIN COLLECTION
M  V30 MDLV30/STEABS ATOMS=(1 3)
M  V30 END COLLECTION
M  V30 END CTAB
M  END
>  <NO.>
6210

>  <Name>


>  <SMILES>
CCCCCCCCCN[C@@H]1N=CNc2[nH]ccc21

>  <logBB>


>  <Class>
1

>  <MW>
262.22

>  <nHBAcc>
3

>  <nHBDon>
3

>  <SLogP>
3.81

>  <TopoPSA>
52.21

>  <MMFF94 Energy>
-52.761

$$$$
CCC[C@@]1(O)[C@H]2[C@]3(OC)C=C[C@]4(C[C@H]13)[C@H]1Cc3ccc(OC(C)=O)c(OC)c3[C@@]24CCN1C
Actelion Java MolfileCreator 2.0

  0  0  0  0  0  0              0 V3000
M  V30 BEGIN CTAB
M  V30 COUNTS 68 73 0 0 0
M  V30 BEGIN ATOM
M  V30 1 O -2.4301 2.5112 -4.4586 0
M  V30 2 C -1.9274 1.4609 -4.8333 0
M  V30 3 O -0.9692 0.7078 -4.1669 0
M  V30 4 C -2.2905 0.7586 -6.1077 0
M  V30 5 C -0.4897 1.295 -2.9877 0
M  V30 6 C -0.7773 0.7065 -1.7459 0
M  V30 7 C 0.3771 2.3776 -3.0879 0
M  V30 8 O -1.5781 -0.4048 -1.6795 0
M  V30 9 C -0.1495 1.1751 -0.5673 0
M  V30 10 C 0.9409 2.9001 -1.9309 0
M  V30 11 C -2.9392 -0.1082 -1.9964 0
M  V30 12 C 0.6761 2.3237 -0.6748 0
M  V30 13 C -0.3986 0.5512 0.8316 0 CFG=2
M  V30 14 C 1.3048 2.9801 0.535 0
M  V30 15 C 0.6613 0.9794 1.9205 0 CFG=1
M  V30 16 C -0.3367 -1.0139 0.807 0 CFG=2
M  V30 17 C -1.774 1.1001 1.2949 0
M  V30 18 C 0.7303 2.5211 1.8919 0 CFG=2
M  V30 19 C 0.2357 0.4728 3.3013 0
M  V30 20 C 1.995 0.1919 1.6898 0
M  V30 21 C 0.2125 -1.6514 2.1921 0 CFG=2
M  V30 22 C 0.9856 -1.6612 0.1526 0 CFG=2
M  V30 23 C -1.7424 2.6367 1.4381 0
M  V30 24 N -0.573 3.2115 2.1237 0
M  V30 25 C -0.0514 -0.8269 3.4081 0
M  V30 26 C 1.6291 -1.3311 1.554 0 CFG=1
M  V30 27 O -0.144 -3.0407 2.4108 0
M  V30 28 O 1.642 -0.9467 -0.9242 0
M  V30 29 C 0.8275 -3.1116 -0.3472 0
M  V30 30 C -0.8624 3.5516 3.5091 0
M  V30 31 C 0.7149 -3.8238 3.2304 0
M  V30 32 C 2.1838 -3.8006 -0.5151 0
M  V30 33 C 2.0238 -5.2214 -1.0329 0
M  V30 34 H -1.3983 0.6236 -6.7242 0
M  V30 35 H -2.752 -0.2054 -5.8803 0
M  V30 36 H -3.0069 1.3686 -6.6655 0
M  V30 37 H 0.6114 2.8171 -4.0521 0
M  V30 38 H 1.5956 3.7663 -2.0054 0
M  V30 39 H -3.1975 0.9481 -1.856 0
M  V30 40 H -3.5734 -0.7025 -1.3314 0
M  V30 41 H -3.1524 -0.4166 -3.0235 0
M  V30 42 H 1.2 4.0706 0.4516 0
M  V30 43 H 2.3826 2.7751 0.5097 0
M  V30 44 H -1.273 -1.4783 0.4766 0
M  V30 45 H -2.5669 0.8292 0.5895 0
M  V30 46 H -2.0915 0.6552 2.2446 0
M  V30 47 H 1.4435 2.8695 2.6517 0
M  V30 48 H 0.1854 1.126 4.1624 0
M  V30 49 H 2.672 0.327 2.5443 0
M  V30 50 H 2.547 0.5285 0.8082 0
M  V30 51 H -1.7941 3.0883 0.4397 0
M  V30 52 H -2.6752 2.9615 1.9183 0
M  V30 53 H -0.3776 -1.2804 4.3358 0
M  V30 54 H 2.4632 -1.9743 1.8458 0
M  V30 55 H 1.0223 -0.9946 -1.6739 0
M  V30 56 H 0.1928 -3.7197 0.2984 0
M  V30 57 H 0.3086 -3.0972 -1.3152 0
M  V30 58 H -1.6135 4.3495 3.5446 0
M  V30 59 H -1.2582 2.7101 4.0838 0
M  V30 60 H 0.022 3.945 4.0212 0
M  V30 61 H 0.2335 -4.7897 3.4047 0
M  V30 62 H 0.8888 -3.3419 4.196 0
M  V30 63 H 1.6667 -3.9986 2.7237 0
M  V30 64 H 2.8144 -3.2365 -1.2114 0
M  V30 65 H 2.7156 -3.8292 0.4416 0
M  V30 66 H 3.0036 -5.6955 -1.1472 0
M  V30 67 H 1.4324 -5.8273 -0.3388 0
M  V30 68 H 1.5262 -5.23 -2.0078 0
M  V30 END ATOM
M  V30 BEGIN BOND
M  V30 1 2 1 2
M  V30 2 1 2 3
M  V30 3 1 2 4
M  V30 4 1 3 5
M  V30 5 2 5 6
M  V30 6 1 5 7
M  V30 7 1 6 8
M  V30 8 1 6 9
M  V30 9 2 7 10
M  V30 10 1 8 11
M  V30 11 2 9 12
M  V30 12 1 9 13
M  V30 13 1 12 14
M  V30 14 1 13 15
M  V30 15 1 13 16
M  V30 16 1 13 17
M  V30 17 1 14 18
M  V30 18 1 15 19
M  V30 19 1 15 20
M  V30 20 1 16 21
M  V30 21 1 16 22
M  V30 22 1 17 23
M  V30 23 1 18 24
M  V30 24 2 19 25
M  V30 25 1 20 26
M  V30 26 1 21 27
M  V30 27 1 22 28
M  V30 28 1 22 29
M  V30 29 1 24 30
M  V30 30 1 27 31
M  V30 31 1 29 32
M  V30 32 1 32 33
M  V30 33 1 10 12
M  V30 34 1 15 18
M  V30 35 1 21 25
M  V30 36 1 21 26
M  V30 37 1 22 26
M  V30 38 1 23 24
M  V30 39 1 4 34
M  V30 40 1 4 35
M  V30 41 1 4 36
M  V30 42 1 7 37
M  V30 43 1 10 38
M  V30 44 1 11 39
M  V30 45 1 11 40
M  V30 46 1 11 41
M  V30 47 1 14 42
M  V30 48 1 14 43
M  V30 49 1 16 44
M  V30 50 1 17 45
M  V30 51 1 17 46
M  V30 52 1 18 47
M  V30 53 1 19 48
M  V30 54 1 20 49
M  V30 55 1 20 50
M  V30 56 1 23 51
M  V30 57 1 23 52
M  V30 58 1 25 53
M  V30 59 1 26 54
M  V30 60 1 28 55
M  V30 61 1 29 56
M  V30 62 1 29 57
M  V30 63 1 30 58
M  V30 64 1 30 59
M  V30 65 1 30 60
M  V30 66 1 31 61
M  V30 67 1 31 62
M  V30 68 1 31 63
M  V30 69 1 32 64
M  V30 70 1 32 65
M  V30 71 1 33 66
M  V30 72 1 33 67
M  V30 73 1 33 68
M  V30 END BOND
M  V30 BEGIN COLLECTION
M  V30 MDLV30/STEABS ATOMS=(7 13 15 16 18 21 22 26)
M  V30 END COLLECTION
M  V30 END CTAB
M  END
>  <NO.>
6230

>  <Name>


>  <SMILES>
CCC[C@@]1(O)[C@H]2[C@]3(OC)C=C[C@]4(C[C@H]13)[C@H]1Cc3ccc(OC(C)=O)c(OC)c3[C@@]24CCN1C

>  <logBB>


>  <Class>
1

>  <MW>
453.25

>  <nHBAcc>
6

>  <nHBDon>
1

>  <SLogP>
3.24

>  <TopoPSA>
68.23

>  <MMFF94 Energy>
145.32

$$$$
CCC[C@H](C)C1(CC)C(=O)NC(O)NC1=O
Actelion Java MolfileCreator 2.0

  0  0  0  0  0  0              0 V3000
M  V30 BEGIN CTAB
M  V30 COUNTS 36 36 0 0 0
M  V30 BEGIN ATOM
M  V30 1 O 1.0919 -1.7163 1.248 0
M  V30 2 C 0.2465 -0.8882 1.5838 0
M  V30 3 N -0.143 -0.8754 2.8887 0
M  V30 4 C -0.3633 0.1777 0.6286 0
M  V30 5 C -0.9903 0.1146 3.399 0
M  V30 6 C -1.7776 0.544 1.1489 0
M  V30 7 C -0.3785 -0.4788 -0.8207 0 CFG=2
M  V30 8 C 0.5335 1.4468 0.7598 0
M  V30 9 O -1.6029 -0.3896 4.5466 0
M  V30 10 N -2.0084 0.4019 2.4834 0
M  V30 11 O -2.6748 1.0265 0.4626 0
M  V30 12 C 1.0179 -0.4789 -1.5102 0
M  V30 13 C -1.4241 0.0731 -1.8052 0
M  V30 14 C 0.1735 2.6295 -0.1296 0
M  V30 15 C 1.1826 -1.6075 -2.5371 0
M  V30 16 C 2.5778 -1.6031 -3.1445 0
M  V30 17 H 0.2565 -1.5847 3.4839 0
M  V30 18 H -0.4288 1.022 3.6393 0
M  V30 19 H -0.6608 -1.5325 -0.6756 0
M  V30 20 H 0.5096 1.8138 1.7927 0
M  V30 21 H 1.585 1.1879 0.5859 0
M  V30 22 H -0.8912 -0.5353 5.1879 0
M  V30 23 H -2.9227 0.6457 2.8335 0
M  V30 24 H 1.1917 0.4829 -2.006 0
M  V30 25 H 1.8165 -0.5924 -0.7707 0
M  V30 26 H -1.3986 1.1625 -1.874 0
M  V30 27 H -1.2773 -0.3163 -2.8167 0
M  V30 28 H -2.4332 -0.2382 -1.5183 0
M  V30 29 H 0.8105 3.4846 0.1215 0
M  V30 30 H -0.864 2.9436 0.0111 0
M  V30 31 H 0.3358 2.4125 -1.1869 0
M  V30 32 H 1.0082 -2.5756 -2.0535 0
M  V30 33 H 0.4508 -1.5113 -3.3447 0
M  V30 34 H 2.6768 -2.415 -3.8716 0
M  V30 35 H 2.7775 -0.6584 -3.6602 0
M  V30 36 H 3.3423 -1.743 -2.3737 0
M  V30 END ATOM
M  V30 BEGIN BOND
M  V30 1 2 1 2
M  V30 2 1 2 3
M  V30 3 1 2 4
M  V30 4 1 3 5
M  V30 5 1 4 6
M  V30 6 1 4 7
M  V30 7 1 4 8
M  V30 8 1 5 9
M  V30 9 1 5 10
M  V30 10 2 6 11
M  V30 11 1 7 12
M  V30 12 1 7 13
M  V30 13 1 8 14
M  V30 14 1 12 15
M  V30 15 1 15 16
M  V30 16 1 6 10
M  V30 17 1 3 17
M  V30 18 1 5 18
M  V30 19 1 7 19
M  V30 20 1 8 20
M  V30 21 1 8 21
M  V30 22 1 9 22
M  V30 23 1 10 23
M  V30 24 1 12 24
M  V30 25 1 12 25
M  V30 26 1 13 26
M  V30 27 1 13 27
M  V30 28 1 13 28
M  V30 29 1 14 29
M  V30 30 1 14 30
M  V30 31 1 14 31
M  V30 32 1 15 32
M  V30 33 1 15 33
M  V30 34 1 16 34
M  V30 35 1 16 35
M  V30 36 1 16 36
M  V30 END BOND
M  V30 BEGIN COLLECTION
M  V30 MDLV30/STEABS ATOMS=(1 7)
M  V30 END COLLECTION
M  V30 END CTAB
M  END
>  <NO.>
6232

>  <Name>
5-ethyl-2-hydroxy-5-[(2s)-pentan-2-yl]-1,3-diazinane-4,6-dione

>  <SMILES>
CCC[C@H](C)C1(CC)C(=O)NC(O)NC1=O

>  <logBB>


>  <Class>
1

>  <MW>
228.15

>  <nHBAcc>
3

>  <nHBDon>
3

>  <SLogP>
0.34

>  <TopoPSA>
78.43

>  <MMFF94 Energy>
-155.04

$$$$
CCN(C(C)=O)c1cccc(C2=CC=NC3=C(C#N)CNN23)c1
Actelion Java MolfileCreator 2.0

  0  0  0  0  0  0              0 V3000
M  V30 BEGIN CTAB
M  V30 COUNTS 40 42 0 0 0
M  V30 BEGIN ATOM
M  V30 1 O -2.868 0.6368 -3.9052 0
M  V30 2 C -1.9934 1.0407 -3.1361 0
M  V30 3 N -2.1641 1.0723 -1.7559 0
M  V30 4 C -0.6712 1.5279 -3.6823 0
M  V30 5 C -1.1518 1.4754 -0.8594 0
M  V30 6 C -3.4278 0.6227 -1.1721 0
M  V30 7 C -0.1566 0.5729 -0.4769 0
M  V30 8 C -1.1637 2.7728 -0.3434 0
M  V30 9 C -3.4518 -0.8809 -0.9387 0
M  V30 10 C 0.841 0.9642 0.4256 0
M  V30 11 C -0.1733 3.1706 0.5533 0
M  V30 12 C 1.8923 0.0137 0.8258 0
M  V30 13 C 0.8246 2.2711 0.9362 0
M  V30 14 N 1.5768 -1.1443 1.5122 0
M  V30 15 C 3.176 0.2613 0.5034 0
M  V30 16 N 0.295 -1.5506 1.9356 0
M  V30 17 C 2.5761 -2.0405 1.8695 0
M  V30 18 C 4.1593 -0.775 0.9435 0
M  V30 19 C 0.5592 -2.8537 2.6119 0
M  V30 20 N 3.9092 -1.8732 1.5942 0
M  V30 21 C 2.033 -3.0723 2.5211 0
M  V30 22 C 2.7076 -4.1877 3.0513 0
M  V30 23 N 3.2077 -5.1265 3.5155 0
M  V30 24 H -0.4532 2.5376 -3.325 0
M  V30 25 H 0.1307 0.8431 -3.3957 0
M  V30 26 H -0.7224 1.5596 -4.775 0
M  V30 27 H -4.2452 0.8913 -1.8516 0
M  V30 28 H -3.608 1.1524 -0.2291 0
M  V30 29 H -0.1612 -0.4405 -0.8731 0
M  V30 30 H -1.9403 3.4744 -0.6374 0
M  V30 31 H -2.6788 -1.1832 -0.2251 0
M  V30 32 H -3.2798 -1.4291 -1.8705 0
M  V30 33 H -4.4226 -1.1862 -0.5361 0
M  V30 34 H -0.1804 4.18 0.9577 0
M  V30 35 H 1.584 2.5947 1.6453 0
M  V30 36 H 3.5285 1.1236 -0.0429 0
M  V30 37 H -0.0449 -0.8849 2.6321 0
M  V30 38 H 5.2063 -0.5561 0.6737 0
M  V30 39 H 0.2269 -2.8071 3.6549 0
M  V30 40 H 0.0067 -3.6465 2.0967 0
M  V30 END ATOM
M  V30 BEGIN BOND
M  V30 1 2 1 2
M  V30 2 1 2 3
M  V30 3 1 2 4
M  V30 4 1 3 5
M  V30 5 1 3 6
M  V30 6 2 5 7
M  V30 7 1 5 8
M  V30 8 1 6 9
M  V30 9 1 7 10
M  V30 10 2 8 11
M  V30 11 1 10 12
M  V30 12 2 10 13
M  V30 13 1 12 14
M  V30 14 2 12 15
M  V30 15 1 14 16
M  V30 16 1 14 17
M  V30 17 1 15 18
M  V30 18 1 16 19
M  V30 19 1 17 20
M  V30 20 2 17 21
M  V30 21 1 21 22
M  V30 22 3 22 23
M  V30 23 1 11 13
M  V30 24 2 18 20
M  V30 25 1 19 21
M  V30 26 1 4 24
M  V30 27 1 4 25
M  V30 28 1 4 26
M  V30 29 1 6 27
M  V30 30 1 6 28
M  V30 31 1 7 29
M  V30 32 1 8 30
M  V30 33 1 9 31
M  V30 34 1 9 32
M  V30 35 1 9 33
M  V30 36 1 11 34
M  V30 37 1 13 35
M  V30 38 1 15 36
M  V30 39 1 16 37
M  V30 40 1 18 38
M  V30 41 1 19 39
M  V30 42 1 19 40
M  V30 END BOND
M  V30 END CTAB
M  END
>  <NO.>
6239

>  <Name>
n-[3-(3-cyano-1,2-dihydropyrazolo[1,5-a]pyrimidin-7-yl)phenyl]-n-ethylacetamide

>  <SMILES>
CCN(C(C)=O)c1cccc(C2=CC=NC3=C(C#N)CNN23)c1

>  <logBB>


>  <Class>
1

>  <MW>
307.14

>  <nHBAcc>
5

>  <nHBDon>
1

>  <SLogP>
2.04

>  <TopoPSA>
71.73

>  <MMFF94 Energy>
16.233

$$$$
CCN=C1Nc2ccc(Cl)cc2[C@](C)(c2ccccc2)O1
Actelion Java MolfileCreator 2.0

  0  0  0  0  0  0              0 V3000
M  V30 BEGIN CTAB
M  V30 COUNTS 38 40 0 0 0
M  V30 BEGIN ATOM
M  V30 1 Cl -2.653 2.9749 -3.6995 0
M  V30 2 C -1.8828 2.6662 -2.1932 0
M  V30 3 C -1.0891 1.5318 -2.0398 0
M  V30 4 C -2.0496 3.5546 -1.1356 0
M  V30 5 C -0.4574 1.2709 -0.8095 0
M  V30 6 C -1.4175 3.3037 0.0837 0
M  V30 7 C -0.6209 2.1653 0.2502 0
M  V30 8 C 0.4609 0.072 -0.5997 0 CFG=1
M  V30 9 N 0.004 1.8989 1.4595 0
M  V30 10 O 0.774 -0.1899 0.7991 0
M  V30 11 C -0.1849 -1.2308 -1.0977 0
M  V30 12 C 1.8225 0.393 -1.2489 0
M  V30 13 C 0.6697 0.7565 1.7592 0
M  V30 14 C -1.3068 -1.7448 -0.4144 0
M  V30 15 C 0.2736 -1.9367 -2.2232 0
M  V30 16 N 1.1622 0.5688 2.9371 0
M  V30 17 C -1.9409 -2.9142 -0.8377 0
M  V30 18 C -0.3628 -3.1079 -2.6459 0
M  V30 19 C 1.8412 -0.7102 3.1474 0
M  V30 20 C -1.4684 -3.5954 -1.9545 0
M  V30 21 C 2.3578 -0.7466 4.5753 0
M  V30 22 H -0.9631 0.8499 -2.8777 0
M  V30 23 H -2.6674 4.4411 -1.2519 0
M  V30 24 H -1.5564 4.0041 0.9038 0
M  V30 25 H -0.0767 2.5617 2.2163 0
M  V30 26 H 2.2778 1.2781 -0.7869 0
M  V30 27 H 2.5348 -0.4272 -1.0986 0
M  V30 28 H 1.7411 0.5898 -2.3237 0
M  V30 29 H -1.6924 -1.2289 0.464 0
M  V30 30 H 1.1314 -1.5943 -2.7954 0
M  V30 31 H -2.8022 -3.2917 -0.2927 0
M  V30 32 H 0.0076 -3.641 -3.518 0
M  V30 33 H 1.1492 -1.5472 2.9973 0
M  V30 34 H 2.6875 -0.8196 2.4593 0
M  V30 35 H -1.9599 -4.5066 -2.2848 0
M  V30 36 H 1.5351 -0.6478 5.2914 0
M  V30 37 H 3.0598 0.0736 4.7581 0
M  V30 38 H 2.8735 -1.6914 4.7719 0
M  V30 END ATOM
M  V30 BEGIN BOND
M  V30 1 1 1 2
M  V30 2 2 2 3
M  V30 3 1 2 4
M  V30 4 1 3 5
M  V30 5 2 4 6
M  V30 6 2 5 7
M  V30 7 1 5 8
M  V30 8 1 7 9
M  V30 9 1 8 10
M  V30 10 1 8 11
M  V30 11 1 8 12
M  V30 12 1 9 13
M  V30 13 2 11 14
M  V30 14 1 11 15
M  V30 15 2 13 16
M  V30 16 1 14 17
M  V30 17 2 15 18
M  V30 18 1 16 19
M  V30 19 2 17 20
M  V30 20 1 19 21
M  V30 21 1 6 7
M  V30 22 1 10 13
M  V30 23 1 18 20
M  V30 24 1 3 22
M  V30 25 1 4 23
M  V30 26 1 6 24
M  V30 27 1 9 25
M  V30 28 1 12 26
M  V30 29 1 12 27
M  V30 30 1 12 28
M  V30 31 1 14 29
M  V30 32 1 15 30
M  V30 33 1 17 31
M  V30 34 1 18 32
M  V30 35 1 19 33
M  V30 36 1 19 34
M  V30 37 1 20 35
M  V30 38 1 21 36
M  V30 39 1 21 37
M  V30 40 1 21 38
M  V30 END BOND
M  V30 BEGIN COLLECTION
M  V30 MDLV30/STEABS ATOMS=(1 8)
M  V30 END COLLECTION
M  V30 END CTAB
M  END
>  <NO.>
6257

>  <Name>
unii-963e1x3t2s

>  <SMILES>
CCN=C1Nc2ccc(Cl)cc2[C@](C)(c2ccccc2)O1

>  <logBB>


>  <Class>
1

>  <MW>
300.1

>  <nHBAcc>
2

>  <nHBDon>
1

>  <SLogP>
4.42

>  <TopoPSA>
33.62

>  <MMFF94 Energy>
-12.456

$$$$
CCNCNCCSCc1ncccc1Br.N#CN
Actelion Java MolfileCreator 2.0

  0  0  0  0  0  0              0 V3000
M  V30 BEGIN CTAB
M  V30 COUNTS 39 38 0 0 0
M  V30 BEGIN ATOM
M  V30 1 Br -3.8975 0.715 -3.0216 0
M  V30 2 C -2.0778 0.4319 -2.5748 0
M  V30 3 C -1.5444 0.6855 -1.3077 0
M  V30 4 C -1.2314 -0.0469 -3.5766 0
M  V30 5 N -0.2233 0.477 -1.0313 0
M  V30 6 C -2.3707 1.1898 -0.1497 0
M  V30 7 C 0.1143 -0.2601 -3.2991 0
M  V30 8 C 0.568 0.0151 -2.0233 0
M  V30 9 S -3.3417 -0.1054 0.6961 0
M  V30 10 C -2.0027 -1.1935 1.3077 0
M  V30 11 C -1.1619 -0.5526 2.419 0
M  V30 12 N -0.1556 -1.5106 2.9066 0
M  V30 13 C 0.6187 -0.9691 4.0013 0
M  V30 14 N 1.6487 -0.144 3.412 0
M  V30 15 C 2.4042 0.5637 4.4442 0
M  V30 16 C 3.5011 1.3962 3.798 0
M  V30 17 N 1.8473 0.6305 -7.6628 0
M  V30 18 C 0.7516 0.2734 -7.7492 0
M  V30 19 N -0.5095 -0.1376 -7.8487 0
M  V30 20 H -1.6118 -0.2552 -4.5732 0
M  V30 21 H -3.0582 1.9715 -0.4897 0
M  V30 22 H -1.7235 1.6823 0.5837 0
M  V30 23 H 0.791 -0.6309 -4.0609 0
M  V30 24 H 1.6104 -0.1316 -1.7542 0
M  V30 25 H -1.3797 -1.5211 0.4698 0
M  V30 26 H -2.4924 -2.0927 1.6999 0
M  V30 27 H -1.8223 -0.2635 3.246 0
M  V30 28 H -0.6643 0.3489 2.0476 0
M  V30 29 H 0.4832 -1.715 2.1427 0
M  V30 30 H -0.0148 -0.4156 4.7049 0
M  V30 31 H 1.0731 -1.7981 4.5557 0
M  V30 32 H 2.2833 -0.7392 2.886 0
M  V30 33 H 2.8583 -0.1456 5.1458 0
M  V30 34 H 1.7422 1.2286 5.0109 0
M  V30 35 H 4.2054 0.7653 3.2452 0
M  V30 36 H 3.0823 2.133 3.104 0
M  V30 37 H 4.0645 1.9377 4.5648 0
M  V30 38 H -0.8026 -1.0687 -7.5457 0
M  V30 39 H -1.2461 0.4579 -8.2328 0
M  V30 END ATOM
M  V30 BEGIN BOND
M  V30 1 1 1 2
M  V30 2 2 2 3
M  V30 3 1 2 4
M  V30 4 1 3 5
M  V30 5 1 3 6
M  V30 6 2 4 7
M  V30 7 2 5 8
M  V30 8 1 6 9
M  V30 9 1 9 10
M  V30 10 1 10 11
M  V30 11 1 11 12
M  V30 12 1 12 13
M  V30 13 1 13 14
M  V30 14 1 14 15
M  V30 15 1 15 16
M  V30 16 3 17 18
M  V30 17 1 18 19
M  V30 18 1 7 8
M  V30 19 1 4 20
M  V30 20 1 6 21
M  V30 21 1 6 22
M  V30 22 1 7 23
M  V30 23 1 8 24
M  V30 24 1 10 25
M  V30 25 1 10 26
M  V30 26 1 11 27
M  V30 27 1 11 28
M  V30 28 1 12 29
M  V30 29 1 13 30
M  V30 30 1 13 31
M  V30 31 1 14 32
M  V30 32 1 15 33
M  V30 33 1 15 34
M  V30 34 1 16 35
M  V30 35 1 16 36
M  V30 36 1 16 37
M  V30 37 1 19 38
M  V30 38 1 19 39
M  V30 END BOND
M  V30 END CTAB
M  END
>  <NO.>
6258

>  <Name>


>  <SMILES>
CCNCNCCSCc1ncccc1Br.N#CN

>  <logBB>


>  <Class>
-1

>  <MW>
345.06

>  <nHBAcc>
6

>  <nHBDon>
3

>  <SLogP>
1.66

>  <TopoPSA>
86.76

>  <MMFF94 Energy>
-5.2048

$$$$
CC[C@](C)(O)[C@@H]1[C@H]2[C@@H]3C[C@@]34[C@@H]3Cc5ccc(OC)c6c5[C@@]4(CCN3CC3CC3)[C@@H](O6)[C@@]12OC
Actelion Java MolfileCreator 2.0

  0  0  0  0  0  0              0 V3000
M  V30 BEGIN CTAB
M  V30 COUNTS 70 77 0 0 0
M  V30 BEGIN ATOM
M  V30 1 O 0.8893 -0.8893 -2.1031 0
M  V30 2 C 1.5376 0.1874 -1.5418 0
M  V30 3 C -0.3489 -1.0067 -1.3197 0 CFG=2
M  V30 4 C 2.8761 0.508 -1.6791 0
M  V30 5 C 0.7075 0.9151 -0.7094 0
M  V30 6 C -0.6921 0.4011 -0.7811 0 CFG=2
M  V30 7 C -0.1801 -2.1265 -0.2834 0 CFG=1
M  V30 8 O 3.6086 -0.2652 -2.5305 0
M  V30 9 C 3.3568 1.5781 -0.9083 0
M  V30 10 C 1.1694 1.9292 0.1094 0
M  V30 11 C -1.329 0.5642 0.5792 0 CFG=2
M  V30 12 C -1.5075 1.2403 -1.7862 0
M  V30 13 O -0.3844 -3.467 -0.8172 0
M  V30 14 C 0.8917 -2.0175 0.803 0 CFG=1
M  V30 15 C -0.5662 -1.905 1.1742 0 CFG=1
M  V30 16 C 4.9926 0.0323 -2.6437 0
M  V30 17 C 2.516 2.2707 -0.0067 0
M  V30 18 C 0.2333 2.5172 1.134 0
M  V30 19 C -1.2527 2.0299 1.0212 0 CFG=2
M  V30 20 C -1.222 -0.5862 1.5685 0 CFG=2
M  V30 21 C -2.5609 -0.2311 0.9748 0
M  V30 22 C -1.643 2.7028 -1.3256 0
M  V30 23 C -1.7509 -3.8506 -0.9407 0
M  V30 24 C 1.7564 -3.1849 1.2298 0 CFG=1
M  V30 25 N -2.0359 2.8771 0.0834 0
M  V30 26 O 0.9849 -4.3857 1.2901 0
M  V30 27 C 2.9032 -3.3692 0.2112 0
M  V30 28 C 2.2863 -2.932 2.6453 0
M  V30 29 C -3.4837 2.7737 0.2915 0
M  V30 30 C 3.8225 -4.5509 0.4941 0
M  V30 31 C -4.1599 4.0399 -0.1591 0
M  V30 32 C -5.3088 4.6167 0.6325 0
M  V30 33 C -3.9824 5.3232 0.6145 0
M  V30 34 H -1.1279 -1.3154 -2.0258 0
M  V30 35 H 4.3967 1.8858 -0.9584 0
M  V30 36 H -2.5089 0.8043 -1.8952 0
M  V30 37 H -1.049 1.2262 -2.7833 0
M  V30 38 H 1.4689 -1.1031 0.8749 0
M  V30 39 H -0.9701 -2.7624 1.7118 0
M  V30 40 H 5.1485 1.0404 -3.0419 0
M  V30 41 H 5.4307 -0.6767 -3.3525 0
M  V30 42 H 5.5044 -0.0972 -1.6843 0
M  V30 43 H 2.9347 3.0632 0.6097 0
M  V30 44 H 0.6077 2.2089 2.1195 0
M  V30 45 H 0.2765 3.6127 1.102 0
M  V30 46 H -1.678 2.1477 2.0271 0
M  V30 47 H -1.073 -0.3098 2.6115 0
M  V30 48 H -3.2888 0.2049 1.6503 0
M  V30 49 H -3.0023 -0.9006 0.2455 0
M  V30 50 H -0.6912 3.2238 -1.4844 0
M  V30 51 H -2.3365 3.2195 -1.9989 0
M  V30 52 H -1.7847 -4.8446 -1.3945 0
M  V30 53 H -2.2988 -3.1574 -1.5838 0
M  V30 54 H -2.2256 -3.9038 0.0426 0
M  V30 55 H 0.5778 -4.4702 0.4048 0
M  V30 56 H 3.5049 -2.4533 0.1545 0
M  V30 57 H 2.4753 -3.5209 -0.7881 0
M  V30 58 H 1.4584 -2.7425 3.3391 0
M  V30 59 H 2.8185 -3.8039 3.0395 0
M  V30 60 H 2.9544 -2.0648 2.677 0
M  V30 61 H -3.9193 1.9173 -0.2351 0
M  V30 62 H -3.7043 2.6362 1.3574 0
M  V30 63 H 4.5594 -4.6495 -0.3096 0
M  V30 64 H 4.373 -4.4158 1.4294 0
M  V30 65 H 3.2627 -5.4892 0.551 0
M  V30 66 H -4.2326 4.1083 -1.2382 0
M  V30 67 H -5.6089 4.1313 1.554 0
M  V30 68 H -6.1283 5.0655 0.0824 0
M  V30 69 H -3.3753 5.2998 1.5125 0
M  V30 70 H -3.8977 6.2432 0.048 0
M  V30 END ATOM
M  V30 BEGIN BOND
M  V30 1 1 1 2
M  V30 2 1 1 3
M  V30 3 2 2 4
M  V30 4 1 2 5
M  V30 5 1 3 6
M  V30 6 1 3 7
M  V30 7 1 4 8
M  V30 8 1 4 9
M  V30 9 2 5 10
M  V30 10 1 6 11
M  V30 11 1 6 12
M  V30 12 1 7 13
M  V30 13 1 7 14
M  V30 14 1 7 15
M  V30 15 1 8 16
M  V30 16 2 9 17
M  V30 17 1 10 18
M  V30 18 1 11 19
M  V30 19 1 11 20
M  V30 20 1 11 21
M  V30 21 1 12 22
M  V30 22 1 13 23
M  V30 23 1 14 24
M  V30 24 1 19 25
M  V30 25 1 24 26
M  V30 26 1 24 27
M  V30 27 1 24 28
M  V30 28 1 25 29
M  V30 29 1 27 30
M  V30 30 1 29 31
M  V30 31 1 31 32
M  V30 32 1 31 33
M  V30 33 1 5 6
M  V30 34 1 10 17
M  V30 35 1 14 15
M  V30 36 1 15 20
M  V30 37 1 18 19
M  V30 38 1 20 21
M  V30 39 1 22 25
M  V30 40 1 32 33
M  V30 41 1 3 34
M  V30 42 1 9 35
M  V30 43 1 12 36
M  V30 44 1 12 37
M  V30 45 1 14 38
M  V30 46 1 15 39
M  V30 47 1 16 40
M  V30 48 1 16 41
M  V30 49 1 16 42
M  V30 50 1 17 43
M  V30 51 1 18 44
M  V30 52 1 18 45
M  V30 53 1 19 46
M  V30 54 1 20 47
M  V30 55 1 21 48
M  V30 56 1 21 49
M  V30 57 1 22 50
M  V30 58 1 22 51
M  V30 59 1 23 52
M  V30 60 1 23 53
M  V30 61 1 23 54
M  V30 62 1 26 55
M  V30 63 1 27 56
M  V30 64 1 27 57
M  V30 65 1 28 58
M  V30 66 1 28 59
M  V30 67 1 28 60
M  V30 68 1 29 61
M  V30 69 1 29 62
M  V30 70 1 30 63
M  V30 71 1 30 64
M  V30 72 1 30 65
M  V30 73 1 31 66
M  V30 74 1 32 67
M  V30 75 1 32 68
M  V30 76 1 33 69
M  V30 77 1 33 70
M  V30 END BOND
M  V30 BEGIN COLLECTION
M  V30 MDLV30/STEABS ATOMS=(9 3 6 7 11 14 15 19 20 24)
M  V30 END COLLECTION
M  V30 END CTAB
M  END
>  <NO.>
6325

>  <Name>


>  <SMILES>
CC[C@](C)(O)[C@@H]1[C@H]2[C@@H]3C[C@@]34[C@@H]3Cc5ccc(OC)c6c5[C@@]4(CCN3CC3CC3)[C@@H](O6)[C@@]12OC

>  <logBB>


>  <Class>
1

>  <MW>
451.27

>  <nHBAcc>
5

>  <nHBDon>
1

>  <SLogP>
3.55

>  <TopoPSA>
51.16

>  <MMFF94 Energy>
130.61

$$$$
CC[C@]1(c2ccc(N)cc2)CCC(=O)NC1=O
Actelion Java MolfileCreator 2.0

  0  0  0  0  0  0              0 V3000
M  V30 BEGIN CTAB
M  V30 COUNTS 33 34 0 0 0
M  V30 BEGIN ATOM
M  V30 1 O -2.373 -0.5533 -1.0277 0
M  V30 2 C -1.6296 0.4234 -1.1207 0
M  V30 3 N -1.9133 1.3736 -2.0753 0
M  V30 4 C -0.4366 0.6979 -0.1761 0 CFG=1
M  V30 5 C -1.2736 2.5566 -2.3364 0
M  V30 6 C 0.3793 -0.5614 0.1924 0
M  V30 7 C 0.5609 1.6265 -0.9228 0
M  V30 8 C -1.031 1.4328 1.0687 0
M  V30 9 O -1.6895 3.3241 -3.1997 0
M  V30 10 C -0.088 2.8861 -1.472 0
M  V30 11 C 1.2497 -0.5592 1.2981 0
M  V30 12 C 0.3661 -1.7179 -0.6038 0
M  V30 13 C -1.9155 0.5756 1.9735 0
M  V30 14 C 2.0296 -1.6784 1.6164 0
M  V30 15 C 1.148 -2.8349 -0.2795 0
M  V30 16 C 1.9666 -2.8363 0.8466 0
M  V30 17 N 2.7746 -3.9217 1.1328 0
M  V30 18 H -2.7162 1.1745 -2.6567 0
M  V30 19 H 1.0132 1.0801 -1.7635 0
M  V30 20 H 1.3893 1.9173 -0.2636 0
M  V30 21 H -0.2273 1.8646 1.6773 0
M  V30 22 H -1.6459 2.282 0.7443 0
M  V30 23 H -0.4154 3.555 -0.67 0
M  V30 24 H 0.6402 3.4324 -2.0819 0
M  V30 25 H 1.3491 0.3183 1.9318 0
M  V30 26 H -0.2496 -1.7845 -1.4979 0
M  V30 27 H -2.27 1.1773 2.8175 0
M  V30 28 H -1.3778 -0.2816 2.3862 0
M  V30 29 H -2.7981 0.2077 1.443 0
M  V30 30 H 2.6915 -1.6311 2.477 0
M  V30 31 H 1.1054 -3.7086 -0.9246 0
M  V30 32 H 2.6429 -4.7896 0.6314 0
M  V30 33 H 3.2825 -3.9545 2.0059 0
M  V30 END ATOM
M  V30 BEGIN BOND
M  V30 1 2 1 2
M  V30 2 1 2 3
M  V30 3 1 2 4
M  V30 4 1 3 5
M  V30 5 1 4 6
M  V30 6 1 4 7
M  V30 7 1 4 8
M  V30 8 2 5 9
M  V30 9 1 5 10
M  V30 10 2 6 11
M  V30 11 1 6 12
M  V30 12 1 8 13
M  V30 13 1 11 14
M  V30 14 2 12 15
M  V30 15 2 14 16
M  V30 16 1 16 17
M  V30 17 1 7 10
M  V30 18 1 15 16
M  V30 19 1 3 18
M  V30 20 1 7 19
M  V30 21 1 7 20
M  V30 22 1 8 21
M  V30 23 1 8 22
M  V30 24 1 10 23
M  V30 25 1 10 24
M  V30 26 1 11 25
M  V30 27 1 12 26
M  V30 28 1 13 27
M  V30 29 1 13 28
M  V30 30 1 13 29
M  V30 31 1 14 30
M  V30 32 1 15 31
M  V30 33 1 17 32
M  V30 34 1 17 33
M  V30 END BOND
M  V30 BEGIN COLLECTION
M  V30 MDLV30/STEABS ATOMS=(1 4)
M  V30 END COLLECTION
M  V30 END CTAB
M  END
>  <NO.>
6329

>  <Name>
(r)-aminoglutethimide

>  <SMILES>
CC[C@]1(c2ccc(N)cc2)CCC(=O)NC1=O

>  <logBB>


>  <Class>
1

>  <MW>
232.12

>  <nHBAcc>
3

>  <nHBDon>
2

>  <SLogP>
1.35

>  <TopoPSA>
72.19

>  <MMFF94 Energy>
-4.1144

$$$$
CCc1cccc(NC(C)Nc2cccc(CC)c2)c1
Actelion Java MolfileCreator 2.0

  0  0  0  0  0  0              0 V3000
M  V30 BEGIN CTAB
M  V30 COUNTS 44 45 0 0 0
M  V30 BEGIN ATOM
M  V30 1 N -1.9483 0.6231 1.1686 0
M  V30 2 C -1.3929 -0.4528 1.8265 0
M  V30 3 C -2.2333 0.8229 -0.2336 0
M  V30 4 C -0.9127 -1.6084 1.2037 0
M  V30 5 C -1.3556 -0.4247 3.2296 0
M  V30 6 N -1.0337 0.8029 -1.0306 0
M  V30 7 C -3.2574 -0.1795 -0.7618 0
M  V30 8 C -0.3905 -2.6917 1.9363 0
M  V30 9 C -0.8485 -1.4916 3.9768 0
M  V30 10 C -0.1194 1.8323 -1.1496 0
M  V30 11 C -0.3679 -2.6247 3.3311 0
M  V30 12 C 0.112 -3.9204 1.2218 0
M  V30 13 C 1.0026 1.6424 -1.9725 0
M  V30 14 C -0.2686 3.0843 -0.546 0
M  V30 15 C -1.0091 -4.9096 0.9423 0
M  V30 16 C 1.9585 2.652 -2.1771 0
M  V30 17 C 0.676 4.0992 -0.7321 0
M  V30 18 C 1.7878 3.8834 -1.5412 0
M  V30 19 C 3.1632 2.3977 -3.0457 0
M  V30 20 C 4.3167 1.8029 -2.2524 0
M  V30 21 H -2.0334 1.4665 1.7198 0
M  V30 22 H -2.7191 1.8012 -0.3381 0
M  V30 23 H -0.9171 -1.6886 0.1235 0
M  V30 24 H -1.7332 0.4436 3.7644 0
M  V30 25 H -0.7392 -0.1038 -1.3595 0
M  V30 26 H -4.1608 -0.1766 -0.1419 0
M  V30 27 H -3.5493 0.0789 -1.7861 0
M  V30 28 H -2.8777 -1.2045 -0.7906 0
M  V30 29 H -0.8345 -1.4347 5.0616 0
M  V30 30 H 0.0214 -3.452 3.9188 0
M  V30 31 H 0.8918 -4.4054 1.8216 0
M  V30 32 H 0.5926 -3.6272 0.2805 0
M  V30 33 H 1.1407 0.6832 -2.4671 0
M  V30 34 H -1.1166 3.297 0.0959 0
M  V30 35 H -0.6158 -5.7914 0.4268 0
M  V30 36 H -1.7842 -4.4643 0.3092 0
M  V30 37 H -1.4848 -5.243 1.871 0
M  V30 38 H 0.5413 5.0588 -0.2402 0
M  V30 39 H 2.517 4.679 -1.6724 0
M  V30 40 H 3.4831 3.3347 -3.5179 0
M  V30 41 H 2.8901 1.7232 -3.8664 0
M  V30 42 H 5.1769 1.6304 -2.907 0
M  V30 43 H 4.0365 0.8452 -1.8007 0
M  V30 44 H 4.6325 2.4745 -1.4467 0
M  V30 END ATOM
M  V30 BEGIN BOND
M  V30 1 1 1 2
M  V30 2 1 1 3
M  V30 3 2 2 4
M  V30 4 1 2 5
M  V30 5 1 3 6
M  V30 6 1 3 7
M  V30 7 1 4 8
M  V30 8 2 5 9
M  V30 9 1 6 10
M  V30 10 2 8 11
M  V30 11 1 8 12
M  V30 12 2 10 13
M  V30 13 1 10 14
M  V30 14 1 12 15
M  V30 15 1 13 16
M  V30 16 2 14 17
M  V30 17 2 16 18
M  V30 18 1 16 19
M  V30 19 1 19 20
M  V30 20 1 9 11
M  V30 21 1 17 18
M  V30 22 1 1 21
M  V30 23 1 3 22
M  V30 24 1 4 23
M  V30 25 1 5 24
M  V30 26 1 6 25
M  V30 27 1 7 26
M  V30 28 1 7 27
M  V30 29 1 7 28
M  V30 30 1 9 29
M  V30 31 1 11 30
M  V30 32 1 12 31
M  V30 33 1 12 32
M  V30 34 1 13 33
M  V30 35 1 14 34
M  V30 36 1 15 35
M  V30 37 1 15 36
M  V30 38 1 15 37
M  V30 39 1 17 38
M  V30 40 1 18 39
M  V30 41 1 19 40
M  V30 42 1 19 41
M  V30 43 1 20 42
M  V30 44 1 20 43
M  V30 45 1 20 44
M  V30 END BOND
M  V30 END CTAB
M  END
>  <NO.>
6335

>  <Name>


>  <SMILES>
CCc1cccc(NC(C)Nc2cccc(CC)c2)c1

>  <logBB>


>  <Class>
1

>  <MW>
268.19

>  <nHBAcc>
2

>  <nHBDon>
2

>  <SLogP>
4.68

>  <TopoPSA>
24.06

>  <MMFF94 Energy>
-10.15

$$$$
CN(C)C(=O)C1=N[C@@H](CNC(=O)CN)N(c2ccc(Cl)cc2C(=O)c2ccccc2Cl)N1
Actelion Java MolfileCreator 2.0

  0  0  0  0  0  0              0 V3000
M  V30 BEGIN CTAB
M  V30 COUNTS 54 56 0 0 0
M  V30 BEGIN ATOM
M  V30 1 Cl -2.099 -0.7262 4.3632 0
M  V30 2 C -1.746 -2.0845 3.3598 0
M  V30 3 C -0.9173 -1.9964 2.2369 0
M  V30 4 C -2.2748 -3.3247 3.7287 0
M  V30 5 C -0.3504 -0.7056 1.7916 0
M  V30 6 C -0.6219 -3.1427 1.4845 0
M  V30 7 C -1.98 -4.4668 2.9802 0
M  V30 8 O -1.111 0.2003 1.464 0
M  V30 9 C 1.1272 -0.5616 1.6914 0
M  V30 10 C -1.154 -4.3763 1.8604 0
M  V30 11 C 1.7715 -0.0276 0.5465 0
M  V30 12 C 1.8568 -0.9613 2.8298 0
M  V30 13 N 1.1097 0.3826 -0.6103 0
M  V30 14 C 3.1798 0.0537 0.6136 0
M  V30 15 C 3.2399 -0.8538 2.845 0
M  V30 16 N -0.1719 0.1404 -0.9781 0
M  V30 17 C 1.683 1.1853 -1.7126 0 CFG=1
M  V30 18 C 3.9066 -0.3507 1.7402 0
M  V30 19 Cl 4.1256 -1.3514 4.2316 0
M  V30 20 C -0.3731 0.65 -2.237 0
M  V30 21 N 0.6503 1.2406 -2.8248 0
M  V30 22 C 1.9798 2.6518 -1.2847 0
M  V30 23 C -1.7275 0.5803 -2.9108 0
M  V30 24 N 0.8312 3.3099 -0.6675 0
M  V30 25 O -2.6213 1.262 -2.4212 0
M  V30 26 N -1.8541 -0.2504 -4.0182 0
M  V30 27 C 0.7071 3.4263 0.6986 0
M  V30 28 C -0.7654 -1.0453 -4.5613 0
M  V30 29 C -3.1024 -0.2541 -4.7565 0
M  V30 30 O 1.6089 3.141 1.4856 0
M  V30 31 C -0.6612 3.9318 1.1711 0
M  V30 32 N -1.1312 3.132 2.3105 0
M  V30 33 H -2.9163 -3.4095 4.6033 0
M  V30 34 H 0.0067 -3.0795 0.5989 0
M  V30 35 H -2.397 -5.4283 3.2725 0
M  V30 36 H -0.9308 -5.2669 1.277 0
M  V30 37 H 1.3471 -1.3343 3.715 0
M  V30 38 H 3.757 0.4367 -0.2233 0
M  V30 39 H -0.9414 0.189 -0.2993 0
M  V30 40 H 2.5775 0.7087 -2.1293 0
M  V30 41 H 4.9899 -0.2594 1.7429 0
M  V30 42 H 2.8285 2.6834 -0.5949 0
M  V30 43 H 2.2424 3.2464 -2.1665 0
M  V30 44 H 0.038 3.5163 -1.2627 0
M  V30 45 H 0.0275 -1.2131 -3.8303 0
M  V30 46 H -1.154 -2.0188 -4.875 0
M  V30 47 H -0.3531 -0.5212 -5.4283 0
M  V30 48 H -3.861 0.3748 -4.2835 0
M  V30 49 H -3.4776 -1.2802 -4.8117 0
M  V30 50 H -2.9132 0.1197 -5.7671 0
M  V30 51 H -0.5511 4.9785 1.471 0
M  V30 52 H -1.398 3.8801 0.3641 0
M  V30 53 H -0.3575 3.0713 2.9777 0
M  V30 54 H -1.2525 2.159 1.9956 0
M  V30 END ATOM
M  V30 BEGIN BOND
M  V30 1 1 1 2
M  V30 2 2 2 3
M  V30 3 1 2 4
M  V30 4 1 3 5
M  V30 5 1 3 6
M  V30 6 2 4 7
M  V30 7 2 5 8
M  V30 8 1 5 9
M  V30 9 2 6 10
M  V30 10 2 9 11
M  V30 11 1 9 12
M  V30 12 1 11 13
M  V30 13 1 11 14
M  V30 14 2 12 15
M  V30 15 1 13 16
M  V30 16 1 13 17
M  V30 17 2 14 18
M  V30 18 1 15 19
M  V30 19 1 16 20
M  V30 20 1 17 21
M  V30 21 1 17 22
M  V30 22 1 20 23
M  V30 23 1 22 24
M  V30 24 2 23 25
M  V30 25 1 23 26
M  V30 26 1 24 27
M  V30 27 1 26 28
M  V30 28 1 26 29
M  V30 29 2 27 30
M  V30 30 1 27 31
M  V30 31 1 31 32
M  V30 32 1 7 10
M  V30 33 1 15 18
M  V30 34 2 20 21
M  V30 35 1 4 33
M  V30 36 1 6 34
M  V30 37 1 7 35
M  V30 38 1 10 36
M  V30 39 1 12 37
M  V30 40 1 14 38
M  V30 41 1 16 39
M  V30 42 1 17 40
M  V30 43 1 18 41
M  V30 44 1 22 42
M  V30 45 1 22 43
M  V30 46 1 24 44
M  V30 47 1 28 45
M  V30 48 1 28 46
M  V30 49 1 28 47
M  V30 50 1 29 48
M  V30 51 1 29 49
M  V30 52 1 29 50
M  V30 53 1 31 51
M  V30 54 1 31 52
M  V30 55 1 32 53
M  V30 56 1 32 54
M  V30 END BOND
M  V30 BEGIN COLLECTION
M  V30 MDLV30/STEABS ATOMS=(1 17)
M  V30 END COLLECTION
M  V30 END CTAB
M  END
>  <NO.>
6340

>  <Name>


>  <SMILES>
CN(C)C(=O)C1=N[C@@H](CNC(=O)CN)N(c2ccc(Cl)cc2C(=O)c2ccccc2Cl)N1

>  <logBB>


>  <Class>
1

>  <MW>
476.11

>  <nHBAcc>
7

>  <nHBDon>
3

>  <SLogP>
1.44

>  <TopoPSA>
120.13

>  <MMFF94 Energy>
184.1

$$$$
CN1CCN(C2=Nc3cscc3C(CC#N)=C3CSC=C23)CC1
Actelion Java MolfileCreator 2.0

  0  0  0  0  0  0              0 V3000
M  V30 BEGIN CTAB
M  V30 COUNTS 41 44 0 0 0
M  V30 BEGIN ATOM
M  V30 1 S 1.3231 -4.5537 1.0749 0
M  V30 2 C 0.0229 -3.5323 0.6771 0
M  V30 3 C 2.4463 -3.3005 0.7694 0
M  V30 4 C 0.4359 -2.27 0.3101 0
M  V30 5 C 1.8543 -2.1045 0.3872 0
M  V30 6 N -0.5615 -1.3414 0.0147 0
M  V30 7 C 2.621 -0.9261 0.047 0
M  V30 8 C -0.3788 -0.3527 -0.8155 0
M  V30 9 C 2.2095 -0.0201 -0.8646 0
M  V30 10 C 3.9465 -0.7719 0.7762 0
M  V30 11 N -1.4981 0.4587 -1.0439 0
M  V30 12 C 0.9121 -0.0198 -1.516 0
M  V30 13 C 3.0781 1.0509 -1.4914 0
M  V30 14 C 5.0572 -1.4165 0.0584 0
M  V30 15 C -2.8626 -0.0634 -0.8469 0
M  V30 16 C -1.4399 1.9198 -0.8676 0
M  V30 17 C 0.8819 0.585 -2.7122 0
M  V30 18 S 2.3947 1.2897 -3.1784 0
M  V30 19 N 5.9465 -1.9144 -0.4965 0
M  V30 20 C -3.3974 0.337 0.545 0
M  V30 21 C -1.9921 2.3077 0.5253 0
M  V30 22 N -3.3664 1.8062 0.7516 0
M  V30 23 C -3.8232 2.142 2.0987 0
M  V30 24 H -0.9932 -3.8966 0.7276 0
M  V30 25 H 3.4936 -3.5417 0.8824 0
M  V30 26 H 4.1777 0.2937 0.9032 0
M  V30 27 H 3.8767 -1.1601 1.8002 0
M  V30 28 H 4.1288 0.7654 -1.5772 0
M  V30 29 H 2.9943 1.9905 -0.9357 0
M  V30 30 H -2.8981 -1.1518 -0.9709 0
M  V30 31 H -3.5142 0.3552 -1.6243 0
M  V30 32 H -2.0367 2.3999 -1.6528 0
M  V30 33 H -0.4195 2.305 -0.9601 0
M  V30 34 H -0.0118 0.7272 -3.3076 0
M  V30 35 H -4.4309 -0.0188 0.6313 0
M  V30 36 H -2.8083 -0.1681 1.3215 0
M  V30 37 H -1.987 3.4015 0.603 0
M  V30 38 H -1.314 1.9186 1.2969 0
M  V30 39 H -3.1913 1.6975 2.8761 0
M  V30 40 H -3.8307 3.2284 2.2407 0
M  V30 41 H -4.8518 1.7971 2.2517 0
M  V30 END ATOM
M  V30 BEGIN BOND
M  V30 1 1 1 2
M  V30 2 1 1 3
M  V30 3 2 2 4
M  V30 4 2 3 5
M  V30 5 1 4 6
M  V30 6 1 5 7
M  V30 7 2 6 8
M  V30 8 2 7 9
M  V30 9 1 7 10
M  V30 10 1 8 11
M  V30 11 1 8 12
M  V30 12 1 9 13
M  V30 13 1 10 14
M  V30 14 1 11 15
M  V30 15 1 11 16
M  V30 16 2 12 17
M  V30 17 1 13 18
M  V30 18 3 14 19
M  V30 19 1 15 20
M  V30 20 1 16 21
M  V30 21 1 20 22
M  V30 22 1 22 23
M  V30 23 1 4 5
M  V30 24 1 9 12
M  V30 25 1 17 18
M  V30 26 1 21 22
M  V30 27 1 2 24
M  V30 28 1 3 25
M  V30 29 1 10 26
M  V30 30 1 10 27
M  V30 31 1 13 28
M  V30 32 1 13 29
M  V30 33 1 15 30
M  V30 34 1 15 31
M  V30 35 1 16 32
M  V30 36 1 16 33
M  V30 37 1 17 34
M  V30 38 1 20 35
M  V30 39 1 20 36
M  V30 40 1 21 37
M  V30 41 1 21 38
M  V30 42 1 23 39
M  V30 43 1 23 40
M  V30 44 1 23 41
M  V30 END BOND
M  V30 END CTAB
M  END
>  <NO.>
6389

>  <Name>


>  <SMILES>
CN1CCN(C2=Nc3cscc3C(CC#N)=C3CSC=C23)CC1

>  <logBB>


>  <Class>
1

>  <MW>
342.1

>  <nHBAcc>
6

>  <nHBDon>
0

>  <SLogP>
3.34

>  <TopoPSA>
42.63

>  <MMFF94 Energy>
108.82

$$$$
CN1C[C@]23C=CC(O)=C[C@@]24C[C@]42CCCC[C@@H]2[C@H]1C3
Actelion Java MolfileCreator 2.0

  0  0  0  0  0  0              0 V3000
M  V30 BEGIN CTAB
M  V30 COUNTS 42 46 0 0 0
M  V30 BEGIN ATOM
M  V30 1 O 2.9929 3.7219 0.2424 0
M  V30 2 C 2.5209 2.4372 0.2569 0
M  V30 3 C 3.2475 1.5322 1.1216 0
M  V30 4 C 1.4631 2.0089 -0.4566 0
M  V30 5 C 2.7299 0.3397 1.4709 0
M  V30 6 C 1.0412 0.581 -0.4143 0 CFG=1
M  V30 7 C 1.3686 -0.0975 0.9512 0 CFG=2
M  V30 8 C -0.1114 0.0015 -1.2529 0 CFG=1
M  V30 9 C 1.3366 -0.1602 -1.698 0
M  V30 10 C 0.2448 0.2376 1.9673 0
M  V30 11 C 1.2054 -1.6158 0.8733 0
M  V30 12 C -0.7968 -1.2874 -0.7125 0 CFG=1
M  V30 13 C -0.8968 0.7948 -2.2904 0
M  V30 14 N -0.8173 -0.7716 1.7495 0
M  V30 15 C -0.3074 -1.7137 0.7207 0 CFG=2
M  V30 16 C -2.3421 -1.2348 -0.7094 0
M  V30 17 C -2.3924 0.84 -2.0446 0
M  V30 18 C -1.1794 -1.4463 2.9921 0
M  V30 19 C -2.9387 -0.5719 -1.9367 0
M  V30 20 H 2.4325 4.2396 -0.3589 0
M  V30 21 H 4.2097 1.8597 1.5024 0
M  V30 22 H 0.912 2.7029 -1.0784 0
M  V30 23 H 3.272 -0.3115 2.1486 0
M  V30 24 H 1.6893 0.4141 -2.5529 0
M  V30 25 H 1.7909 -1.1412 -1.6984 0
M  V30 26 H 0.6307 0.1925 2.9949 0
M  V30 27 H -0.1712 1.2404 1.819 0
M  V30 28 H 1.5291 -2.0965 1.8071 0
M  V30 29 H 1.754 -2.1095 0.0694 0
M  V30 30 H -0.5103 -2.0905 -1.4068 0
M  V30 31 H -0.7262 0.3335 -3.273 0
M  V30 32 H -0.5306 1.8217 -2.3758 0
M  V30 33 H -0.6525 -2.739 0.9048 0
M  V30 34 H -2.7366 -2.2542 -0.616 0
M  V30 35 H -2.7142 -0.6848 0.163 0
M  V30 36 H -2.6084 1.4041 -1.1291 0
M  V30 37 H -2.8845 1.3635 -2.872 0
M  V30 38 H -1.9905 -2.1607 2.814 0
M  V30 39 H -1.5537 -0.7217 3.7238 0
M  V30 40 H -0.3376 -1.9863 3.4395 0
M  V30 41 H -2.7048 -1.1507 -2.8377 0
M  V30 42 H -4.0302 -0.5405 -1.8441 0
M  V30 END ATOM
M  V30 BEGIN BOND
M  V30 1 1 1 2
M  V30 2 1 2 3
M  V30 3 2 2 4
M  V30 4 2 3 5
M  V30 5 1 4 6
M  V30 6 1 5 7
M  V30 7 1 6 8
M  V30 8 1 6 9
M  V30 9 1 7 10
M  V30 10 1 7 11
M  V30 11 1 8 12
M  V30 12 1 8 13
M  V30 13 1 10 14
M  V30 14 1 11 15
M  V30 15 1 12 16
M  V30 16 1 13 17
M  V30 17 1 14 18
M  V30 18 1 16 19
M  V30 19 1 6 7
M  V30 20 1 8 9
M  V30 21 1 12 15
M  V30 22 1 14 15
M  V30 23 1 17 19
M  V30 24 1 1 20
M  V30 25 1 3 21
M  V30 26 1 4 22
M  V30 27 1 5 23
M  V30 28 1 9 24
M  V30 29 1 9 25
M  V30 30 1 10 26
M  V30 31 1 10 27
M  V30 32 1 11 28
M  V30 33 1 11 29
M  V30 34 1 12 30
M  V30 35 1 13 31
M  V30 36 1 13 32
M  V30 37 1 15 33
M  V30 38 1 16 34
M  V30 39 1 16 35
M  V30 40 1 17 36
M  V30 41 1 17 37
M  V30 42 1 18 38
M  V30 43 1 18 39
M  V30 44 1 18 40
M  V30 45 1 19 41
M  V30 46 1 19 42
M  V30 END BOND
M  V30 BEGIN COLLECTION
M  V30 MDLV30/STEABS ATOMS=(5 6 7 8 12 15)
M  V30 END COLLECTION
M  V30 END CTAB
M  END
>  <NO.>
6411

>  <Name>


>  <SMILES>
CN1C[C@]23C=CC(O)=C[C@@]24C[C@]42CCCC[C@@H]2[C@H]1C3

>  <logBB>


>  <Class>
1

>  <MW>
257.18

>  <nHBAcc>
2

>  <nHBDon>
1

>  <SLogP>
3.27

>  <TopoPSA>
23.47

>  <MMFF94 Energy>
82.488

$$$$
CN=C1CN(O)[C@@H](c2ccccc2)c2cc(Cl)ccc2N1
Actelion Java MolfileCreator 2.0

  0  0  0  0  0  0              0 V3000
M  V30 BEGIN CTAB
M  V30 COUNTS 37 39 0 0 0
M  V30 BEGIN ATOM
M  V30 1 Cl -2.7446 4.2808 2.3406 0
M  V30 2 C -2.3152 2.7236 1.7499 0
M  V30 3 C -0.9726 2.3787 1.6181 0
M  V30 4 C -3.3095 1.8193 1.3973 0
M  V30 5 C -0.6034 1.1097 1.1262 0
M  V30 6 C -2.9556 0.5545 0.9233 0
M  V30 7 C -1.6081 0.1809 0.7881 0
M  V30 8 C 0.8782 0.7992 0.8884 0 CFG=1
M  V30 9 N -1.3199 -1.1374 0.404 0
M  V30 10 N 1.3744 -0.2253 1.8322 0
M  V30 11 C 1.2215 0.7182 -0.6129 0
M  V30 12 C -0.2493 -1.9019 0.8227 0
M  V30 13 O 2.726 -0.622 1.4904 0
M  V30 14 C 0.56 -1.43 2.0429 0
M  V30 15 C 1.0174 1.8676 -1.4077 0
M  V30 16 C 1.7303 -0.4207 -1.2544 0
M  V30 17 N 0.1067 -3.039 0.3171 0
M  V30 18 C 1.2964 1.8697 -2.7771 0
M  V30 19 C 2.0101 -0.4208 -2.6252 0
M  V30 20 C -0.6119 -3.5533 -0.8365 0
M  V30 21 C 1.7915 0.7227 -3.3865 0
M  V30 22 H -0.2067 3.1037 1.8847 0
M  V30 23 H -4.3584 2.084 1.4997 0
M  V30 24 H -3.7463 -0.1526 0.6819 0
M  V30 25 H 1.4353 1.692 1.2114 0
M  V30 26 H -1.9625 -1.5473 -0.257 0
M  V30 27 H 3.231 -0.3058 2.2627 0
M  V30 28 H -0.157 -1.2274 2.8487 0
M  V30 29 H 1.1857 -2.2541 2.408 0
M  V30 30 H 0.6334 2.782 -0.9594 0
M  V30 31 H 1.9276 -1.3349 -0.7011 0
M  V30 32 H 1.1273 2.7684 -3.3643 0
M  V30 33 H 2.4035 -1.3202 -3.0919 0
M  V30 34 H -1.6374 -3.8318 -0.5733 0
M  V30 35 H -0.1082 -4.4555 -1.1972 0
M  V30 36 H -0.6226 -2.8354 -1.6634 0
M  V30 37 H 2.0117 0.7197 -4.4502 0
M  V30 END ATOM
M  V30 BEGIN BOND
M  V30 1 1 1 2
M  V30 2 2 2 3
M  V30 3 1 2 4
M  V30 4 1 3 5
M  V30 5 2 4 6
M  V30 6 2 5 7
M  V30 7 1 5 8
M  V30 8 1 7 9
M  V30 9 1 8 10
M  V30 10 1 8 11
M  V30 11 1 9 12
M  V30 12 1 10 13
M  V30 13 1 10 14
M  V30 14 2 11 15
M  V30 15 1 11 16
M  V30 16 2 12 17
M  V30 17 1 15 18
M  V30 18 2 16 19
M  V30 19 1 17 20
M  V30 20 2 18 21
M  V30 21 1 6 7
M  V30 22 1 12 14
M  V30 23 1 19 21
M  V30 24 1 3 22
M  V30 25 1 4 23
M  V30 26 1 6 24
M  V30 27 1 8 25
M  V30 28 1 9 26
M  V30 29 1 13 27
M  V30 30 1 14 28
M  V30 31 1 14 29
M  V30 32 1 15 30
M  V30 33 1 16 31
M  V30 34 1 18 32
M  V30 35 1 19 33
M  V30 36 1 20 34
M  V30 37 1 20 35
M  V30 38 1 20 36
M  V30 39 1 21 37
M  V30 END BOND
M  V30 BEGIN COLLECTION
M  V30 MDLV30/STEABS ATOMS=(1 8)
M  V30 END COLLECTION
M  V30 END CTAB
M  END
>  <NO.>
6418

>  <Name>
zinc2045117

>  <SMILES>
CN=C1CN(O)[C@@H](c2ccccc2)c2cc(Cl)ccc2N1

>  <logBB>


>  <Class>
1

>  <MW>
301.1

>  <nHBAcc>
3

>  <nHBDon>
2

>  <SLogP>
3.57

>  <TopoPSA>
47.86

>  <MMFF94 Energy>
115.07

$$$$
CNCNCCSCc1nc[nH]c1C.N#CN
Actelion Java MolfileCreator 2.0

  0  0  0  0  0  0              0 V3000
M  V30 BEGIN CTAB
M  V30 COUNTS 37 36 0 0 0
M  V30 BEGIN ATOM
M  V30 1 S 2.1004 0.8553 2.334 0
M  V30 2 C 0.5732 0.3891 3.2156 0
M  V30 3 C 1.4171 1.5336 0.7755 0
M  V30 4 C -0.4305 1.4887 3.3405 0
M  V30 5 C 0.6421 0.5157 -0.0737 0
M  V30 6 N -0.095 2.6924 3.926 0
M  V30 7 C -1.7655 1.505 2.966 0
M  V30 8 N 1.4736 -0.6253 -0.4609 0
M  V30 9 C -1.1806 3.4259 3.8937 0
M  V30 10 N -2.2175 2.7531 3.3192 0
M  V30 11 C -2.6424 0.4967 2.3299 0
M  V30 12 C 0.6991 -1.6632 -1.0894 0
M  V30 13 N 1.6486 -2.738 -1.2268 0
M  V30 14 C 1.109 -3.8231 -2.03 0
M  V30 15 N 1.8348 0.6346 -6.1856 0
M  V30 16 C 0.7392 0.2775 -6.2721 0
M  V30 17 N -0.5219 -0.1336 -6.3716 0
M  V30 18 H 0.1422 -0.4865 2.7212 0
M  V30 19 H 0.8634 0.0675 4.2218 0
M  V30 20 H 2.2671 1.9137 0.1972 0
M  V30 21 H 0.7856 2.3991 0.9998 0
M  V30 22 H 0.2875 1.0229 -0.9791 0
M  V30 23 H -0.2454 0.1796 0.4722 0
M  V30 24 H 1.9104 -1.0238 0.3718 0
M  V30 25 H -1.2747 4.4363 4.2686 0
M  V30 26 H -3.1538 3.1121 3.193 0
M  V30 27 H -2.2843 -0.5184 2.5254 0
M  V30 28 H -2.6712 0.6479 1.2464 0
M  V30 29 H -3.6657 0.5675 2.7133 0
M  V30 30 H -0.1441 -1.9781 -0.4642 0
M  V30 31 H 0.3242 -1.3233 -2.0614 0
M  V30 32 H 2.4703 -2.3458 -1.6844 0
M  V30 33 H 0.8608 -3.491 -3.0435 0
M  V30 34 H 1.8531 -4.6214 -2.1116 0
M  V30 35 H 0.215 -4.2523 -1.5658 0
M  V30 36 H -0.815 -1.0646 -6.0686 0
M  V30 37 H -1.2584 0.4619 -6.7557 0
M  V30 END ATOM
M  V30 BEGIN BOND
M  V30 1 1 1 2
M  V30 2 1 1 3
M  V30 3 1 2 4
M  V30 4 1 3 5
M  V30 5 1 4 6
M  V30 6 2 4 7
M  V30 7 1 5 8
M  V30 8 2 6 9
M  V30 9 1 7 10
M  V30 10 1 7 11
M  V30 11 1 8 12
M  V30 12 1 12 13
M  V30 13 1 13 14
M  V30 14 3 15 16
M  V30 15 1 16 17
M  V30 16 1 9 10
M  V30 17 1 2 18
M  V30 18 1 2 19
M  V30 19 1 3 20
M  V30 20 1 3 21
M  V30 21 1 5 22
M  V30 22 1 5 23
M  V30 23 1 8 24
M  V30 24 1 9 25
M  V30 25 1 10 26
M  V30 26 1 11 27
M  V30 27 1 11 28
M  V30 28 1 11 29
M  V30 29 1 12 30
M  V30 30 1 12 31
M  V30 31 1 13 32
M  V30 32 1 14 33
M  V30 33 1 14 34
M  V30 34 1 14 35
M  V30 35 1 17 36
M  V30 36 1 17 37
M  V30 END BOND
M  V30 END CTAB
M  END
>  <NO.>
6429

>  <Name>


>  <SMILES>
CNCNCCSCc1nc[nH]c1C.N#CN

>  <logBB>


>  <Class>
-1

>  <MW>
256.15

>  <nHBAcc>
6

>  <nHBDon>
4

>  <SLogP>
0.14

>  <TopoPSA>
102.55

>  <MMFF94 Energy>
-28.055

$$$$
CNCNc1cccc(-c2csc(N)n2)c1.N#CN.NCN
Actelion Java MolfileCreator 2.0

  0  0  0  0  0  0              0 V3000
M  V30 BEGIN CTAB
M  V30 COUNTS 44 43 0 0 0
M  V30 BEGIN ATOM
M  V30 1 S -3.7062 -3.0877 2.6241 0
M  V30 2 C -2.3516 -3.0659 1.5715 0
M  V30 3 C -3.3196 -1.4986 3.1378 0
M  V30 4 N -1.6477 -1.9628 1.5838 0
M  V30 5 N -2.052 -4.1152 0.7999 0
M  V30 6 C -2.1949 -1.0482 2.4733 0
M  V30 7 C -1.588 0.2644 2.6769 0
M  V30 8 C -0.2116 0.4329 2.4392 0
M  V30 9 C -2.3411 1.3689 3.0918 0
M  V30 10 C 0.4279 1.6664 2.619 0
M  V30 11 C -1.7273 2.6067 3.2726 0
M  V30 12 N 1.7727 1.8744 2.3805 0
M  V30 13 C -0.3582 2.7482 3.0371 0
M  V30 14 C 2.6968 0.8645 1.923 0
M  V30 15 N 3.1075 -0.2259 2.7986 0
M  V30 16 C 3.7266 0.2698 4.0166 0
M  V30 17 N 1.8628 0.6007 -2.3591 0
M  V30 18 C 0.7672 0.2436 -2.4455 0
M  V30 19 N -0.4939 -0.1675 -2.545 0
M  V30 20 N 0.7858 0.1545 -6.6498 0
M  V30 21 C -0.3058 -0.4909 -7.3148 0
M  V30 22 N -0.8253 0.5359 -8.1626 0
M  V30 23 H -3.917 -1.0008 3.8869 0
M  V30 24 H -2.6009 -4.9626 0.8018 0
M  V30 25 H -1.2443 -4.0693 0.1931 0
M  V30 26 H 0.3643 -0.433 2.1199 0
M  V30 27 H -3.4107 1.289 3.263 0
M  V30 28 H -2.3134 3.4649 3.5901 0
M  V30 29 H 2.1621 2.7785 2.6052 0
M  V30 30 H 0.0956 3.7256 3.18 0
M  V30 31 H 2.2989 0.4206 1.0015 0
M  V30 32 H 3.6051 1.3876 1.5953 0
M  V30 33 H 3.7648 -0.8158 2.2955 0
M  V30 34 H 4.0518 -0.5773 4.6287 0
M  V30 35 H 4.6075 0.8835 3.8014 0
M  V30 36 H 3.0222 0.8518 4.6196 0
M  V30 37 H -0.787 -1.0986 -2.242 0
M  V30 38 H -1.2305 0.428 -2.9291 0
M  V30 39 H 1.1438 -0.471 -5.9294 0
M  V30 40 H 1.5515 0.2733 -7.3086 0
M  V30 41 H -1.0646 -0.8168 -6.5975 0
M  V30 42 H 0.0262 -1.3601 -7.8897 0
M  V30 43 H -1.0126 1.3349 -7.5576 0
M  V30 44 H -0.0858 0.8522 -8.7823 0
M  V30 END ATOM
M  V30 BEGIN BOND
M  V30 1 1 1 2
M  V30 2 1 1 3
M  V30 3 2 2 4
M  V30 4 1 2 5
M  V30 5 2 3 6
M  V30 6 1 6 7
M  V30 7 2 7 8
M  V30 8 1 7 9
M  V30 9 1 8 10
M  V30 10 2 9 11
M  V30 11 1 10 12
M  V30 12 2 10 13
M  V30 13 1 12 14
M  V30 14 1 14 15
M  V30 15 1 15 16
M  V30 16 3 17 18
M  V30 17 1 18 19
M  V30 18 1 20 21
M  V30 19 1 21 22
M  V30 20 1 4 6
M  V30 21 1 11 13
M  V30 22 1 3 23
M  V30 23 1 5 24
M  V30 24 1 5 25
M  V30 25 1 8 26
M  V30 26 1 9 27
M  V30 27 1 11 28
M  V30 28 1 12 29
M  V30 29 1 13 30
M  V30 30 1 14 31
M  V30 31 1 14 32
M  V30 32 1 15 33
M  V30 33 1 16 34
M  V30 34 1 16 35
M  V30 35 1 16 36
M  V30 36 1 19 37
M  V30 37 1 19 38
M  V30 38 1 20 39
M  V30 39 1 20 40
M  V30 40 1 21 41
M  V30 41 1 21 42
M  V30 42 1 22 43
M  V30 43 1 22 44
M  V30 END BOND
M  V30 END CTAB
M  END
>  <NO.>
6430

>  <Name>


>  <SMILES>
CNCNc1cccc(-c2csc(N)n2)c1.N#CN.NCN

>  <logBB>


>  <Class>
-1

>  <MW>
322.17

>  <nHBAcc>
9

>  <nHBDon>
6

>  <SLogP>
0.27

>  <TopoPSA>
164.82

>  <MMFF94 Energy>
-66.661

$$$$
CN[C@@H](C[N+](=O)[O-])NCCSCc1ccc(CN(C)C)o1
Actelion Java MolfileCreator 2.0

  0  0  0  0  0  0              0 V3000
M  V30 BEGIN CTAB
M  V30 COUNTS 45 45 0 0 0
M  V30 BEGIN ATOM
M  V30 1 S 1.1872 0.4747 2.7718 0
M  V30 2 C 2.0256 -0.5565 1.5233 0
M  V30 3 C -0.4979 0.5943 2.0755 0
M  V30 4 C 1.9175 -0.0312 0.1398 0
M  V30 5 C -1.2195 -0.756 1.9711 0
M  V30 6 O 2.5883 1.1235 -0.1342 0
M  V30 7 C 1.2794 -0.4841 -0.9971 0
M  V30 8 N -2.5844 -0.5626 1.4426 0
M  V30 9 C 2.3784 1.4141 -1.4507 0
M  V30 10 C 1.5653 0.4539 -2.0179 0
M  V30 11 C -3.2891 -1.8313 1.2057 0 CFG=1
M  V30 12 C 3.0187 2.6576 -1.9733 0
M  V30 13 N -3.4308 -2.5337 2.4804 0
M  V30 14 C -4.5938 -1.5651 0.4353 0
M  V30 15 N 4.4236 2.4606 -2.3771 0
M  V30 16 C -4.2724 -1.8728 3.4716 0
M  V30 17 N -5.0809 -2.8684 -0.1036 0 CHG=1
M  V30 18 C 5.0683 3.7574 -2.5877 0
M  V30 19 C 4.5373 1.6447 -3.5861 0
M  V30 20 O -5.8638 -3.519 0.6001 0
M  V30 21 O -4.6576 -3.2096 -1.2157 0 CHG=-1
M  V30 22 H 1.6329 -1.5765 1.5834 0
M  V30 23 H 3.0831 -0.6142 1.8035 0
M  V30 24 H -0.4528 1.0974 1.1039 0
M  V30 25 H -1.064 1.2558 2.7418 0
M  V30 26 H -1.2563 -1.2136 2.9661 0
M  V30 27 H -0.6694 -1.427 1.3037 0
M  V30 28 H 0.6859 -1.3838 -1.0799 0
M  V30 29 H -2.51 -0.0486 0.565 0
M  V30 30 H 1.2359 0.4299 -3.047 0
M  V30 31 H -2.643 -2.4496 0.5677 0
M  V30 32 H 2.4251 3.0594 -2.8051 0
M  V30 33 H 2.9703 3.4044 -1.1691 0
M  V30 34 H -3.8018 -3.4723 2.3225 0
M  V30 35 H -4.4273 -0.9193 -0.4353 0
M  V30 36 H -5.3925 -1.1221 1.0374 0
M  V30 37 H -3.9293 -0.8598 3.7026 0
M  V30 38 H -4.2316 -2.4429 4.4056 0
M  V30 39 H -5.3206 -1.8361 3.1617 0
M  V30 40 H 5.0472 4.354 -1.6686 0
M  V30 41 H 4.5862 4.3343 -3.3855 0
M  V30 42 H 6.1249 3.6258 -2.8472 0
M  V30 43 H 3.9986 2.0838 -4.4338 0
M  V30 44 H 4.1584 0.6311 -3.4209 0
M  V30 45 H 5.5889 1.5297 -3.8734 0
M  V30 END ATOM
M  V30 BEGIN BOND
M  V30 1 1 1 2
M  V30 2 1 1 3
M  V30 3 1 2 4
M  V30 4 1 3 5
M  V30 5 1 4 6
M  V30 6 2 4 7
M  V30 7 1 5 8
M  V30 8 1 6 9
M  V30 9 1 7 10
M  V30 10 1 8 11
M  V30 11 1 9 12
M  V30 12 1 11 13
M  V30 13 1 11 14
M  V30 14 1 12 15
M  V30 15 1 13 16
M  V30 16 1 14 17
M  V30 17 1 15 18
M  V30 18 1 15 19
M  V30 19 2 17 20
M  V30 20 1 17 21
M  V30 21 2 9 10
M  V30 22 1 2 22
M  V30 23 1 2 23
M  V30 24 1 3 24
M  V30 25 1 3 25
M  V30 26 1 5 26
M  V30 27 1 5 27
M  V30 28 1 7 28
M  V30 29 1 8 29
M  V30 30 1 10 30
M  V30 31 1 11 31
M  V30 32 1 12 32
M  V30 33 1 12 33
M  V30 34 1 13 34
M  V30 35 1 14 35
M  V30 36 1 14 36
M  V30 37 1 16 37
M  V30 38 1 16 38
M  V30 39 1 16 39
M  V30 40 1 18 40
M  V30 41 1 18 41
M  V30 42 1 18 42
M  V30 43 1 19 43
M  V30 44 1 19 44
M  V30 45 1 19 45
M  V30 END BOND
M  V30 BEGIN COLLECTION
M  V30 MDLV30/STEABS ATOMS=(1 11)
M  V30 END COLLECTION
M  V30 END CTAB
M  END
>  <NO.>
6434

>  <Name>


>  <SMILES>
CN[C@@H](C[N+](=O)[O-])NCCSCc1ccc(CN(C)C)o1

>  <logBB>


>  <Class>
-1

>  <MW>
316.16

>  <nHBAcc>
7

>  <nHBDon>
2

>  <SLogP>
0.99

>  <TopoPSA>
83.58

>  <MMFF94 Energy>
13.335

$$$$
CO/N=C(/C(=O)N[C@@H]1C(=O)N2C(C(=O)O)=C(CN3C=CCC4=C3CCC4)CS[C@H]12)c1csc(N)n1
Actelion Java MolfileCreator 2.0

  0  0  0  0  0  0              0 V3000
M  V30 BEGIN CTAB
M  V30 COUNTS 59 63 0 0 0
M  V30 BEGIN ATOM
M  V30 1 S 0.8189 -0.8189 -0.9009 0
M  V30 2 C -0.9127 -0.6585 -0.3862 0 CFG=1
M  V30 3 C 1.3963 -1.1973 0.7906 0
M  V30 4 N -0.9862 0.4229 0.5629 0
M  V30 5 C -1.8627 0.1795 -1.296 0 CFG=1
M  V30 6 C 0.8826 -0.2352 1.8452 0
M  V30 7 C -0.2128 0.5396 1.669 0
M  V30 8 C -1.9191 1.1631 -0.0678 0
M  V30 9 N -1.2822 0.7518 -2.5339 0
M  V30 10 C 1.7295 -0.1865 3.1046 0
M  V30 11 C -0.6115 1.5658 2.664 0
M  V30 12 O -2.4509 2.2092 0.2152 0
M  V30 13 C -2.0488 1.3847 -3.489 0
M  V30 14 N 1.9156 -1.5435 3.6514 0
M  V30 15 O -1.6335 1.5629 3.3241 0
M  V30 16 O 0.3125 2.5373 2.7686 0
M  V30 17 O -3.2661 1.4674 -3.4463 0
M  V30 18 C -1.2282 1.9873 -4.647 0
M  V30 19 C 0.9249 -2.1922 4.3916 0
M  V30 20 C 3.1332 -2.2123 3.4882 0
M  V30 21 N 0.0154 1.5802 -4.6956 0
M  V30 22 C -1.8446 2.9475 -5.5721 0
M  V30 23 C 1.0901 -3.414 4.9211 0
M  V30 24 C -0.4146 -1.6304 4.7511 0
M  V30 25 C 3.3887 -3.4376 3.9766 0
M  V30 26 O 0.7612 2.2081 -5.7005 0
M  V30 27 N -1.4496 3.0608 -6.9081 0
M  V30 28 C -2.8779 3.806 -5.233 0
M  V30 29 C 2.3535 -4.1986 4.7696 0
M  V30 30 C -0.0838 -3.8682 5.7122 0
M  V30 31 C -1.1519 -2.8429 5.3303 0
M  V30 32 C 2.051 1.6151 -5.7529 0
M  V30 33 C -2.1467 3.9769 -7.5282 0
M  V30 34 S -3.3333 4.7644 -6.5771 0
M  V30 35 N -1.9628 4.2886 -8.8141 0
M  V30 36 H -1.367 -1.5858 -0.0174 0
M  V30 37 H 2.4891 -1.1552 0.7454 0
M  V30 38 H 1.1032 -2.2227 1.0389 0
M  V30 39 H -2.8186 -0.3212 -1.4892 0
M  V30 40 H -0.2777 0.719 -2.7101 0
M  V30 41 H 1.3025 0.4452 3.8899 0
M  V30 42 H 2.6978 0.2672 2.8559 0
M  V30 43 H -0.1061 3.1852 3.3744 0
M  V30 44 H 3.8891 -1.6681 2.929 0
M  V30 45 H -0.3119 -0.8365 5.4983 0
M  V30 46 H -0.9612 -1.2435 3.8886 0
M  V30 47 H 4.3546 -3.9034 3.8173 0
M  V30 48 H -3.3806 3.9213 -4.2826 0
M  V30 49 H 2.7643 -4.4283 5.7589 0
M  V30 50 H 2.1404 -5.1456 4.262 0
M  V30 51 H 0.1371 -3.8338 6.784 0
M  V30 52 H -0.3995 -4.8807 5.444 0
M  V30 53 H -1.7821 -2.5696 6.183 0
M  V30 54 H -1.8146 -3.2694 4.5658 0
M  V30 55 H 1.9691 0.5508 -5.9933 0
M  V30 56 H 2.5679 1.7471 -4.7975 0
M  V30 57 H 2.6285 2.1105 -6.5377 0
M  V30 58 H -2.5091 4.9971 -9.2825 0
M  V30 59 H -1.2513 3.8049 -9.3456 0
M  V30 END ATOM
M  V30 BEGIN BOND
M  V30 1 1 1 2
M  V30 2 1 1 3
M  V30 3 1 2 4
M  V30 4 1 2 5
M  V30 5 1 3 6
M  V30 6 1 4 7
M  V30 7 1 4 8
M  V30 8 1 5 9
M  V30 9 1 6 10
M  V30 10 1 7 11
M  V30 11 2 8 12
M  V30 12 1 9 13
M  V30 13 1 10 14
M  V30 14 2 11 15
M  V30 15 1 11 16
M  V30 16 2 13 17
M  V30 17 1 13 18
M  V30 18 1 14 19
M  V30 19 1 14 20
M  V30 20 2 18 21
M  V30 21 1 18 22
M  V30 22 2 19 23
M  V30 23 1 19 24
M  V30 24 2 20 25
M  V30 25 1 21 26
M  V30 26 1 22 27
M  V30 27 2 22 28
M  V30 28 1 23 29
M  V30 29 1 23 30
M  V30 30 1 24 31
M  V30 31 1 26 32
M  V30 32 2 27 33
M  V30 33 1 28 34
M  V30 34 1 33 35
M  V30 35 1 5 8
M  V30 36 2 6 7
M  V30 37 1 25 29
M  V30 38 1 30 31
M  V30 39 1 33 34
M  V30 40 1 2 36
M  V30 41 1 3 37
M  V30 42 1 3 38
M  V30 43 1 5 39
M  V30 44 1 9 40
M  V30 45 1 10 41
M  V30 46 1 10 42
M  V30 47 1 16 43
M  V30 48 1 20 44
M  V30 49 1 24 45
M  V30 50 1 24 46
M  V30 51 1 25 47
M  V30 52 1 28 48
M  V30 53 1 29 49
M  V30 54 1 29 50
M  V30 55 1 30 51
M  V30 56 1 30 52
M  V30 57 1 31 53
M  V30 58 1 31 54
M  V30 59 1 32 55
M  V30 60 1 32 56
M  V30 61 1 32 57
M  V30 62 1 35 58
M  V30 63 1 35 59
M  V30 END BOND
M  V30 BEGIN COLLECTION
M  V30 MDLV30/STEABS ATOMS=(2 2 5)
M  V30 END COLLECTION
M  V30 END CTAB
M  END
>  <NO.>
6446

>  <Name>


>  <SMILES>
CO/N=C(/C(=O)N[C@@H]1C(=O)N2C(C(=O)O)=C(CN3C=CCC4=C3CCC4)CS[C@H]12)c1csc(N)n1

>  <logBB>


>  <Class>
-1

>  <MW>
516.12

>  <nHBAcc>
10

>  <nHBDon>
3

>  <SLogP>
1.47

>  <TopoPSA>
150.45

>  <MMFF94 Energy>
34.296

$$$$
CO/N=C(/C(=O)N[C@H]1C(=O)N2C(C(=O)O)=C(CN3C=CCC4=C3CCCC4)CS[C@H]12)c1csc(N)n1
Actelion Java MolfileCreator 2.0

  0  0  0  0  0  0              0 V3000
M  V30 BEGIN CTAB
M  V30 COUNTS 62 66 0 0 0
M  V30 BEGIN ATOM
M  V30 1 S -1.8811 -0.3269 1.3901 0
M  V30 2 C -1.5132 -0.352 -0.3839 0 CFG=1
M  V30 3 C -0.2148 -0.9208 1.8424 0
M  V30 4 N -1.2386 -1.7268 -0.7336 0
M  V30 5 C -2.7433 -0.4426 -1.3436 0 CFG=2
M  V30 6 C 0.236 -2.1423 1.0588 0
M  V30 7 C -0.305 -2.5024 -0.1283 0
M  V30 8 C -2.1503 -1.8484 -1.7147 0
M  V30 9 N -2.7867 0.5112 -2.4826 0
M  V30 10 C 1.3382 -2.9299 1.7516 0
M  V30 11 C 0.0646 -3.7797 -0.7902 0
M  V30 12 O -2.4072 -2.7255 -2.5046 0
M  V30 13 C -2.6384 1.8717 -2.3151 0
M  V30 14 N 2.5198 -2.0563 1.9505 0
M  V30 15 O 0.0622 -4.8845 -0.2786 0
M  V30 16 O 0.4686 -3.5723 -2.0554 0
M  V30 17 O -2.393 2.4235 -1.2536 0
M  V30 18 C -2.7481 2.6743 -3.6086 0
M  V30 19 C 2.9621 -1.6307 3.2306 0
M  V30 20 C 3.2258 -1.6319 0.8235 0
M  V30 21 N -1.8946 2.3436 -4.5403 0
M  V30 22 C -3.7938 3.6868 -3.7103 0
M  V30 23 C 3.9669 -0.7274 3.3582 0
M  V30 24 C 2.319 -2.2266 4.4733 0
M  V30 25 C 4.2413 -0.7632 0.8565 0
M  V30 26 O -2.0906 3.0298 -5.7457 0
M  V30 27 N -5.0161 3.4873 -3.0682 0
M  V30 28 C -3.703 4.8971 -4.3741 0
M  V30 29 C 4.7009 -0.1755 2.1536 0
M  V30 30 C 4.457 -0.1967 4.683 0
M  V30 31 C 3.0687 -1.9584 5.7796 0
M  V30 32 C -1.1162 2.5857 -6.6833 0
M  V30 33 C -5.8117 4.5091 -3.2591 0
M  V30 34 S -5.1627 5.7773 -4.2122 0
M  V30 35 C 3.5295 -0.5138 5.8513 0
M  V30 36 N -7.0458 4.5779 -2.7532 0
M  V30 37 H -0.7171 0.3298 -0.7049 0
M  V30 38 H 0.4982 -0.1004 1.7107 0
M  V30 39 H -0.266 -1.1586 2.9089 0
M  V30 40 H -3.7263 -0.5177 -0.8638 0
M  V30 41 H -2.9226 0.1702 -3.4307 0
M  V30 42 H 1.6697 -3.8054 1.1864 0
M  V30 43 H 0.9324 -3.3247 2.6876 0
M  V30 44 H 0.6051 -4.472 -2.4167 0
M  V30 45 H 2.8903 -2.0538 -0.1201 0
M  V30 46 H 1.3009 -1.8302 4.5646 0
M  V30 47 H 2.2443 -3.3154 4.3706 0
M  V30 48 H 4.7456 -0.4667 -0.0559 0
M  V30 49 H -2.8683 5.3037 -4.9264 0
M  V30 50 H 4.5691 0.912 2.1132 0
M  V30 51 H 5.7726 -0.3788 2.2644 0
M  V30 52 H 4.5792 0.8916 4.6261 0
M  V30 53 H 5.4493 -0.6212 4.8801 0
M  V30 54 H 3.9374 -2.6253 5.8502 0
M  V30 55 H 2.4197 -2.1913 6.6314 0
M  V30 56 H -1.2284 1.5127 -6.8658 0
M  V30 57 H -0.1093 2.8034 -6.3141 0
M  V30 58 H -1.2715 3.1221 -7.6229 0
M  V30 59 H 4.0483 -0.3269 6.7981 0
M  V30 60 H 2.6583 0.153 5.8266 0
M  V30 61 H -7.645 5.3785 -2.8981 0
M  V30 62 H -7.3963 3.8238 -2.1771 0
M  V30 END ATOM
M  V30 BEGIN BOND
M  V30 1 1 1 2
M  V30 2 1 1 3
M  V30 3 1 2 4
M  V30 4 1 2 5
M  V30 5 1 3 6
M  V30 6 1 4 7
M  V30 7 1 4 8
M  V30 8 1 5 9
M  V30 9 1 6 10
M  V30 10 1 7 11
M  V30 11 2 8 12
M  V30 12 1 9 13
M  V30 13 1 10 14
M  V30 14 2 11 15
M  V30 15 1 11 16
M  V30 16 2 13 17
M  V30 17 1 13 18
M  V30 18 1 14 19
M  V30 19 1 14 20
M  V30 20 2 18 21
M  V30 21 1 18 22
M  V30 22 2 19 23
M  V30 23 1 19 24
M  V30 24 2 20 25
M  V30 25 1 21 26
M  V30 26 1 22 27
M  V30 27 2 22 28
M  V30 28 1 23 29
M  V30 29 1 23 30
M  V30 30 1 24 31
M  V30 31 1 26 32
M  V30 32 2 27 33
M  V30 33 1 28 34
M  V30 34 1 30 35
M  V30 35 1 33 36
M  V30 36 1 5 8
M  V30 37 2 6 7
M  V30 38 1 25 29
M  V30 39 1 31 35
M  V30 40 1 33 34
M  V30 41 1 2 37
M  V30 42 1 3 38
M  V30 43 1 3 39
M  V30 44 1 5 40
M  V30 45 1 9 41
M  V30 46 1 10 42
M  V30 47 1 10 43
M  V30 48 1 16 44
M  V30 49 1 20 45
M  V30 50 1 24 46
M  V30 51 1 24 47
M  V30 52 1 25 48
M  V30 53 1 28 49
M  V30 54 1 29 50
M  V30 55 1 29 51
M  V30 56 1 30 52
M  V30 57 1 30 53
M  V30 58 1 31 54
M  V30 59 1 31 55
M  V30 60 1 32 56
M  V30 61 1 32 57
M  V30 62 1 32 58
M  V30 63 1 35 59
M  V30 64 1 35 60
M  V30 65 1 36 61
M  V30 66 1 36 62
M  V30 END BOND
M  V30 BEGIN COLLECTION
M  V30 MDLV30/STEABS ATOMS=(2 2 5)
M  V30 END COLLECTION
M  V30 END CTAB
M  END
>  <NO.>
6450

>  <Name>


>  <SMILES>
CO/N=C(/C(=O)N[C@H]1C(=O)N2C(C(=O)O)=C(CN3C=CCC4=C3CCCC4)CS[C@H]12)c1csc(N)n1

>  <logBB>


>  <Class>
-1

>  <MW>
530.14

>  <nHBAcc>
10

>  <nHBDon>
3

>  <SLogP>
1.86

>  <TopoPSA>
150.45

>  <MMFF94 Energy>
29.879

$$$$
COC1=C[C@@]23C[C@@]24CCCC[C@H]4[C@@H]2C[C@@]3(C=C1)CN2C
Actelion Java MolfileCreator 2.0

  0  0  0  0  0  0              0 V3000
M  V30 BEGIN CTAB
M  V30 COUNTS 45 49 0 0 0
M  V30 BEGIN ATOM
M  V30 1 O 3.1483 0.0806 -3.1483 0
M  V30 2 C 1.9551 -0.1117 -2.4999 0
M  V30 3 C 4.3356 -0.0106 -2.3716 0
M  V30 4 C 0.8062 0.0119 -3.3842 0
M  V30 5 C 1.7565 -0.3823 -1.1906 0
M  V30 6 C -0.442 0.1711 -2.9069 0
M  V30 7 C 0.3883 -0.6055 -0.6425 0 CFG=2
M  V30 8 C -0.7006 0.1989 -1.4104 0 CFG=1
M  V30 9 C 0.1062 -0.9939 0.8201 0 CFG=2
M  V30 10 C 0.1221 -2.0483 -0.2798 0
M  V30 11 C -0.7382 1.6518 -0.8684 0
M  V30 12 C -2.1088 -0.2585 -1.0281 0
M  V30 13 C -1.2969 -0.6284 1.3866 0 CFG=2
M  V30 14 C 1.1868 -1.2953 1.8518 0
M  V30 15 N -1.6309 1.6232 0.3136 0
M  V30 16 C -2.1699 0.2424 0.4093 0 CFG=1
M  V30 17 C -1.2652 0.0656 2.768 0
M  V30 18 C 1.1336 -0.4194 3.0884 0
M  V30 19 C -2.6854 2.6275 0.2143 0
M  V30 20 C -0.2409 -0.5133 3.7257 0
M  V30 21 H 4.3549 0.7587 -1.5928 0
M  V30 22 H 5.1869 0.1627 -3.0365 0
M  V30 23 H 4.4453 -1.0101 -1.9381 0
M  V30 24 H 0.9954 0.005 -4.4534 0
M  V30 25 H 2.5939 -0.4477 -0.5098 0
M  V30 26 H -1.2746 0.2992 -3.5909 0
M  V30 27 H 0.9543 -2.7488 -0.3227 0
M  V30 28 H -0.7962 -2.5467 -0.5572 0
M  V30 29 H 0.2507 2.0152 -0.5678 0
M  V30 30 H -1.119 2.3381 -1.6371 0
M  V30 31 H -2.8685 0.2443 -1.6428 0
M  V30 32 H -2.3002 -1.3289 -1.1212 0
M  V30 33 H -1.8204 -1.5854 1.5261 0
M  V30 34 H 2.1894 -1.2234 1.4211 0
M  V30 35 H 1.0724 -2.3412 2.1691 0
M  V30 36 H -3.2023 0.2364 0.7814 0
M  V30 37 H -2.2626 0.0101 3.2218 0
M  V30 38 H -1.038 1.1333 2.6652 0
M  V30 39 H 1.3627 0.6203 2.8257 0
M  V30 40 H 1.895 -0.7488 3.8044 0
M  V30 41 H -3.3099 2.6129 1.1143 0
M  V30 42 H -3.3331 2.4741 -0.6559 0
M  V30 43 H -2.2507 3.6311 0.1494 0
M  V30 44 H -0.2534 0.0524 4.6641 0
M  V30 45 H -0.488 -1.5532 3.9693 0
M  V30 END ATOM
M  V30 BEGIN BOND
M  V30 1 1 1 2
M  V30 2 1 1 3
M  V30 3 1 2 4
M  V30 4 2 2 5
M  V30 5 2 4 6
M  V30 6 1 5 7
M  V30 7 1 6 8
M  V30 8 1 7 9
M  V30 9 1 7 10
M  V30 10 1 8 11
M  V30 11 1 8 12
M  V30 12 1 9 13
M  V30 13 1 9 14
M  V30 14 1 11 15
M  V30 15 1 12 16
M  V30 16 1 13 17
M  V30 17 1 14 18
M  V30 18 1 15 19
M  V30 19 1 17 20
M  V30 20 1 7 8
M  V30 21 1 9 10
M  V30 22 1 13 16
M  V30 23 1 15 16
M  V30 24 1 18 20
M  V30 25 1 3 21
M  V30 26 1 3 22
M  V30 27 1 3 23
M  V30 28 1 4 24
M  V30 29 1 5 25
M  V30 30 1 6 26
M  V30 31 1 10 27
M  V30 32 1 10 28
M  V30 33 1 11 29
M  V30 34 1 11 30
M  V30 35 1 12 31
M  V30 36 1 12 32
M  V30 37 1 13 33
M  V30 38 1 14 34
M  V30 39 1 14 35
M  V30 40 1 16 36
M  V30 41 1 17 37
M  V30 42 1 17 38
M  V30 43 1 18 39
M  V30 44 1 18 40
M  V30 45 1 19 41
M  V30 46 1 19 42
M  V30 47 1 19 43
M  V30 48 1 20 44
M  V30 49 1 20 45
M  V30 END BOND
M  V30 BEGIN COLLECTION
M  V30 MDLV30/STEABS ATOMS=(5 7 8 9 13 16)
M  V30 END COLLECTION
M  V30 END CTAB
M  END
>  <NO.>
6475

>  <Name>


>  <SMILES>
COC1=C[C@@]23C[C@@]24CCCC[C@H]4[C@@H]2C[C@@]3(C=C1)CN2C

>  <logBB>


>  <Class>
1

>  <MW>
271.19

>  <nHBAcc>
2

>  <nHBDon>
0

>  <SLogP>
3.36

>  <TopoPSA>
12.47

>  <MMFF94 Energy>
94.38

$$$$
COc1cccnc1CCCCNC1=NC(=O)[C@H](Cc2ccc(C)nc2)C=N1
Actelion Java MolfileCreator 2.0

  0  0  0  0  0  0              0 V3000
M  V30 BEGIN CTAB
M  V30 COUNTS 53 55 0 0 0
M  V30 BEGIN ATOM
M  V30 1 O -1.8985 3.7998 0.6325 0
M  V30 2 C -1.3821 2.8413 1.203 0
M  V30 3 N -1.073 1.6825 0.5529 0
M  V30 4 C -0.9703 2.9619 2.6379 0 CFG=1
M  V30 5 C -0.8608 0.5974 1.2206 0
M  V30 6 C -0.9685 1.6122 3.2614 0
M  V30 7 C 0.4142 3.6081 2.7081 0
M  V30 8 N -0.9151 0.5194 2.5807 0
M  V30 9 N -0.5635 -0.5708 0.5976 0
M  V30 10 C 0.8117 3.9865 4.1101 0
M  V30 11 C -0.4681 -0.7379 -0.8326 0
M  V30 12 C 0.284 5.115 4.7283 0
M  V30 13 C 1.7047 3.2096 4.8491 0
M  V30 14 C -0.144 -2.1924 -1.1685 0
M  V30 15 N 0.5739 5.491 5.9931 0
M  V30 16 C 2.0269 3.5808 6.1522 0
M  V30 17 C -0.0287 -2.402 -2.6784 0
M  V30 18 C 1.4434 4.7233 6.6895 0
M  V30 19 C 0.2855 -3.8613 -3.0132 0
M  V30 20 C 1.7699 5.1494 8.0892 0
M  V30 21 C 0.4327 -4.0682 -4.5013 0
M  V30 22 N 1.7059 -4.0124 -4.979 0
M  V30 23 C -0.6851 -4.2692 -5.3242 0
M  V30 24 C 1.8778 -4.1734 -6.3061 0
M  V30 25 O -1.9106 -4.2888 -4.717 0
M  V30 26 C -0.4616 -4.4316 -6.6914 0
M  V30 27 C 0.8378 -4.3841 -7.192 0
M  V30 28 C -3.0491 -4.459 -5.5515 0
M  V30 29 H -1.7236 3.5623 3.1617 0
M  V30 30 H -0.9951 1.5568 4.3623 0
M  V30 31 H 0.4464 4.5119 2.0847 0
M  V30 32 H 1.1728 2.9367 2.2829 0
M  V30 33 H -0.4385 -1.3733 1.1993 0
M  V30 34 H 0.3158 -0.0826 -1.2291 0
M  V30 35 H -1.4165 -0.4529 -1.3027 0
M  V30 36 H -0.4121 5.7714 4.2115 0
M  V30 37 H 2.1561 2.3177 4.4212 0
M  V30 38 H -0.9256 -2.8471 -0.7626 0
M  V30 39 H 0.7952 -2.4831 -0.6816 0
M  V30 40 H 2.7232 2.9867 6.7354 0
M  V30 41 H 0.7583 -1.7513 -3.0803 0
M  V30 42 H -0.9653 -2.0982 -3.1622 0
M  V30 43 H 1.2222 -4.156 -2.5228 0
M  V30 44 H -0.487 -4.5289 -2.6135 0
M  V30 45 H 2.8415 5.3505 8.1828 0
M  V30 46 H 1.4872 4.3656 8.7987 0
M  V30 47 H 1.2272 6.0621 8.3556 0
M  V30 48 H 2.9071 -4.1263 -6.6493 0
M  V30 49 H -1.2728 -4.595 -7.3919 0
M  V30 50 H 1.0326 -4.5073 -8.2514 0
M  V30 51 H -3.1365 -3.6398 -6.2728 0
M  V30 52 H -3.9375 -4.4358 -4.913 0
M  V30 53 H -3.0268 -5.4307 -6.0553 0
M  V30 END ATOM
M  V30 BEGIN BOND
M  V30 1 2 1 2
M  V30 2 1 2 3
M  V30 3 1 2 4
M  V30 4 2 3 5
M  V30 5 1 4 6
M  V30 6 1 4 7
M  V30 7 1 5 8
M  V30 8 1 5 9
M  V30 9 1 7 10
M  V30 10 1 9 11
M  V30 11 2 10 12
M  V30 12 1 10 13
M  V30 13 1 11 14
M  V30 14 1 12 15
M  V30 15 2 13 16
M  V30 16 1 14 17
M  V30 17 2 15 18
M  V30 18 1 17 19
M  V30 19 1 18 20
M  V30 20 1 19 21
M  V30 21 2 21 22
M  V30 22 1 21 23
M  V30 23 1 22 24
M  V30 24 1 23 25
M  V30 25 2 23 26
M  V30 26 2 24 27
M  V30 27 1 25 28
M  V30 28 2 6 8
M  V30 29 1 16 18
M  V30 30 1 26 27
M  V30 31 1 4 29
M  V30 32 1 6 30
M  V30 33 1 7 31
M  V30 34 1 7 32
M  V30 35 1 9 33
M  V30 36 1 11 34
M  V30 37 1 11 35
M  V30 38 1 12 36
M  V30 39 1 13 37
M  V30 40 1 14 38
M  V30 41 1 14 39
M  V30 42 1 16 40
M  V30 43 1 17 41
M  V30 44 1 17 42
M  V30 45 1 19 43
M  V30 46 1 19 44
M  V30 47 1 20 45
M  V30 48 1 20 46
M  V30 49 1 20 47
M  V30 50 1 24 48
M  V30 51 1 26 49
M  V30 52 1 27 50
M  V30 53 1 28 51
M  V30 54 1 28 52
M  V30 55 1 28 53
M  V30 END BOND
M  V30 BEGIN COLLECTION
M  V30 MDLV30/STEABS ATOMS=(1 4)
M  V30 END COLLECTION
M  V30 END CTAB
M  END
>  <NO.>
6549

>  <Name>


>  <SMILES>
COc1cccnc1CCCCNC1=NC(=O)[C@H](Cc2ccc(C)nc2)C=N1

>  <logBB>


>  <Class>
-1

>  <MW>
379.2

>  <nHBAcc>
6

>  <nHBDon>
1

>  <SLogP>
2.53

>  <TopoPSA>
88.83

>  <MMFF94 Energy>
-69.752

$$$$
C[C@H](Cc1ccccc1)N1C=C(NC(=O)Nc2ccccc2)ON1
Actelion Java MolfileCreator 2.0

  0  0  0  0  0  0              0 V3000
M  V30 BEGIN CTAB
M  V30 COUNTS 44 46 0 0 0
M  V30 BEGIN ATOM
M  V30 1 O -0.237 -1.66 -0.316 0
M  V30 2 C -1.2399 -1.856 0.3588 0
M  V30 3 N -1.6081 -3.074 0.9093 0
M  V30 4 N -2.1597 -0.8738 0.6836 0
M  V30 5 C -0.9529 -4.3124 0.7495 0
M  V30 6 C -2.1094 0.4426 0.3317 0
M  V30 7 C -0.0146 -4.5688 -0.2516 0
M  V30 8 C -1.3002 -5.3431 1.6326 0
M  V30 9 O -3.1537 1.2667 0.7741 0
M  V30 10 C -1.2089 1.1125 -0.3821 0
M  V30 11 C 0.5796 -5.8301 -0.3589 0
M  V30 12 C -0.7063 -6.6034 1.5252 0
M  V30 13 N -2.7797 2.6012 0.2376 0
M  V30 14 N -1.572 2.4295 -0.4827 0
M  V30 15 C 0.2355 -6.8461 0.5293 0
M  V30 16 C -0.9293 3.5311 -1.1985 0 CFG=1
M  V30 17 C 0.1516 4.2275 -0.3439 0
M  V30 18 C -0.4421 3.0999 -2.5817 0
M  V30 19 C 1.4355 3.4661 -0.1064 0
M  V30 20 C 1.5502 2.58 0.9725 0
M  V30 21 C 2.5336 3.6356 -0.9616 0
M  V30 22 C 2.7314 1.8674 1.1836 0
M  V30 23 C 3.7159 2.9254 -0.7471 0
M  V30 24 C 3.8137 2.0401 0.3239 0
M  V30 25 H -2.3823 -3.0661 1.5535 0
M  V30 26 H -2.9762 -1.1372 1.2102 0
M  V30 27 H 0.2699 -3.8077 -0.9721 0
M  V30 28 H -2.0305 -5.1798 2.4203 0
M  V30 29 H -0.3061 0.7456 -0.8474 0
M  V30 30 H 1.3112 -6.0143 -1.1415 0
M  V30 31 H -0.9785 -7.3942 2.2192 0
M  V30 32 H -2.5861 3.0892 1.1154 0
M  V30 33 H 0.7002 -7.8246 0.4429 0
M  V30 34 H -1.7039 4.2905 -1.3773 0
M  V30 35 H -0.2745 4.501 0.631 0
M  V30 36 H 0.4068 5.1846 -0.8195 0
M  V30 37 H -0.028 3.9537 -3.1283 0
M  V30 38 H -1.2717 2.6953 -3.1722 0
M  V30 39 H 0.3289 2.325 -2.5312 0
M  V30 40 H 0.7123 2.4276 1.649 0
M  V30 41 H 2.475 4.3193 -1.8053 0
M  V30 42 H 2.8028 1.1709 2.0147 0
M  V30 43 H 4.5593 3.059 -1.4191 0
M  V30 44 H 4.7309 1.4807 0.4864 0
M  V30 END ATOM
M  V30 BEGIN BOND
M  V30 1 2 1 2
M  V30 2 1 2 3
M  V30 3 1 2 4
M  V30 4 1 3 5
M  V30 5 1 4 6
M  V30 6 2 5 7
M  V30 7 1 5 8
M  V30 8 1 6 9
M  V30 9 2 6 10
M  V30 10 1 7 11
M  V30 11 2 8 12
M  V30 12 1 9 13
M  V30 13 1 10 14
M  V30 14 2 11 15
M  V30 15 1 14 16
M  V30 16 1 16 17
M  V30 17 1 16 18
M  V30 18 1 17 19
M  V30 19 2 19 20
M  V30 20 1 19 21
M  V30 21 1 20 22
M  V30 22 2 21 23
M  V30 23 2 22 24
M  V30 24 1 12 15
M  V30 25 1 13 14
M  V30 26 1 23 24
M  V30 27 1 3 25
M  V30 28 1 4 26
M  V30 29 1 7 27
M  V30 30 1 8 28
M  V30 31 1 10 29
M  V30 32 1 11 30
M  V30 33 1 12 31
M  V30 34 1 13 32
M  V30 35 1 15 33
M  V30 36 1 16 34
M  V30 37 1 17 35
M  V30 38 1 17 36
M  V30 39 1 18 37
M  V30 40 1 18 38
M  V30 41 1 18 39
M  V30 42 1 20 40
M  V30 43 1 21 41
M  V30 44 1 22 42
M  V30 45 1 23 43
M  V30 46 1 24 44
M  V30 END BOND
M  V30 BEGIN COLLECTION
M  V30 MDLV30/STEABS ATOMS=(1 16)
M  V30 END COLLECTION
M  V30 END CTAB
M  END
>  <NO.>
6613

>  <Name>


>  <SMILES>
C[C@H](Cc1ccccc1)N1C=C(NC(=O)Nc2ccccc2)ON1

>  <logBB>


>  <Class>
1

>  <MW>
324.16

>  <nHBAcc>
4

>  <nHBDon>
3

>  <SLogP>
2.99

>  <TopoPSA>
65.63

>  <MMFF94 Energy>
27.157

$$$$
Cc1c(O)cccc1C(=O)N[C@@H](CSc1ccccc1)[C@H](O)CN1C[C@H]2CCCC[C@H]2C[C@H]1C(=O)NC(C)C
Actelion Java MolfileCreator 2.0

  0  0  0  0  0  0              0 V3000
M  V30 BEGIN CTAB
M  V30 COUNTS 82 85 0 0 0
M  V30 BEGIN ATOM
M  V30 1 S -2.7154 -0.798 -3.2752 0
M  V30 2 C -1.9685 -0.5887 -4.8801 0
M  V30 3 C -1.6898 0.3665 -2.2874 0
M  V30 4 C -2.026 0.6363 -5.551 0
M  V30 5 C -1.3263 -1.6738 -5.4841 0
M  V30 6 C -0.2072 -0.0624 -2.1739 0 CFG=2
M  V30 7 C -1.4279 0.7802 -6.8045 0
M  V30 8 C -0.7275 -1.5286 -6.7369 0
M  V30 9 N -0.1124 -1.4686 -1.7413 0
M  V30 10 C 0.5515 0.9522 -1.263 0 CFG=2
M  V30 11 C -0.7765 -0.3011 -7.3952 0
M  V30 12 C 1.064 -2.1542 -1.5628 0
M  V30 13 O 1.9468 0.9756 -1.6071 0
M  V30 14 C 0.3856 0.6664 0.2522 0
M  V30 15 O 2.1694 -1.6321 -1.617 0
M  V30 16 C 0.9101 -3.6062 -1.2819 0
M  V30 17 N 0.3907 1.8744 1.1185 0
M  V30 18 C 1.6781 -4.5668 -1.9679 0
M  V30 19 C -0.0117 -3.9957 -0.295 0
M  V30 20 C 0.1458 1.5088 2.5416 0 CFG=2
M  V30 21 C 1.6567 2.6196 0.9943 0
M  V30 22 C 1.5054 -5.9131 -1.6174 0
M  V30 23 C 2.6776 -4.1684 -3.0198 0
M  V30 24 C -0.1749 -5.3427 0.0196 0
M  V30 25 C -1.2086 0.779 2.7222 0
M  V30 26 C 0.1104 2.7463 3.4509 0
M  V30 27 C 1.685 3.9009 1.8487 0 CFG=2
M  V30 28 O 2.2566 -6.8633 -2.252 0
M  V30 29 C 0.5865 -6.3035 -0.6405 0
M  V30 30 O -2.2551 1.1299 2.1818 0
M  V30 31 N -1.1368 -0.3222 3.5585 0
M  V30 32 C 1.3938 3.5767 3.3239 0 CFG=1
M  V30 33 C 0.7299 4.9739 1.2945 0
M  V30 34 C -2.2942 -1.1617 3.8278 0
M  V30 35 C 1.3443 4.8505 4.18 0
M  V30 36 C 0.7404 6.2335 2.1562 0
M  V30 37 C -2.4253 -2.2401 2.7553 0
M  V30 38 C -2.1795 -1.7859 5.2145 0
M  V30 39 C 0.4188 5.9249 3.614 0
M  V30 40 H -1.7723 1.3722 -2.7124 0
M  V30 41 H -2.1493 0.3983 -1.2937 0
M  V30 42 H -2.5408 1.4864 -5.1108 0
M  V30 43 H -1.2798 -2.6378 -4.9838 0
M  V30 44 H 0.2598 -0.0286 -3.1663 0
M  V30 45 H -1.4729 1.7356 -7.3209 0
M  V30 46 H -0.2231 -2.3735 -7.1983 0
M  V30 47 H -0.9685 -2.0097 -1.8148 0
M  V30 48 H 0.1769 1.957 -1.4936 0
M  V30 49 H -0.3101 -0.1882 -8.3705 0
M  V30 50 H 2.2555 0.041 -1.6032 0
M  V30 51 H -0.5741 0.1602 0.3876 0
M  V30 52 H 1.1708 -0.0233 0.5875 0
M  V30 53 H -0.5898 -3.2506 0.2462 0
M  V30 54 H 0.9528 0.845 2.8811 0
M  V30 55 H 2.5014 1.9786 1.2802 0
M  V30 56 H 1.8235 2.926 -0.0433 0
M  V30 57 H 2.2719 -3.3847 -3.6681 0
M  V30 58 H 2.9336 -5.0027 -3.6804 0
M  V30 59 H 3.5979 -3.8115 -2.5474 0
M  V30 60 H -0.8862 -5.642 0.7853 0
M  V30 61 H -0.016 2.43 4.4947 0
M  V30 62 H -0.7728 3.3521 3.2135 0
M  V30 63 H 2.7033 4.3105 1.7892 0
M  V30 64 H 2.0454 -7.7368 -1.8844 0
M  V30 65 H 0.4557 -7.3499 -0.3805 0
M  V30 66 H -0.2402 -0.596 3.9387 0
M  V30 67 H 2.2188 2.9589 3.7056 0
M  V30 68 H -0.2951 4.5903 1.2306 0
M  V30 69 H 1.0268 5.2385 0.2725 0
M  V30 70 H -3.1915 -0.5321 3.8017 0
M  V30 71 H 2.3584 5.2653 4.2474 0
M  V30 72 H 1.0405 4.6065 5.2048 0
M  V30 73 H 1.7268 6.7094 2.0933 0
M  V30 74 H 0.0143 6.9544 1.7637 0
M  V30 75 H -1.5416 -2.8874 2.7355 0
M  V30 76 H -2.5282 -1.7938 1.7603 0
M  V30 77 H -3.3043 -2.8671 2.9367 0
M  V30 78 H -3.0586 -2.3972 5.4426 0
M  V30 79 H -1.2908 -2.422 5.293 0
M  V30 80 H -2.0976 -1.0092 5.9828 0
M  V30 81 H -0.6255 5.6038 3.7003 0
M  V30 82 H 0.514 6.8394 4.2107 0
M  V30 END ATOM
M  V30 BEGIN BOND
M  V30 1 1 1 2
M  V30 2 1 1 3
M  V30 3 2 2 4
M  V30 4 1 2 5
M  V30 5 1 3 6
M  V30 6 1 4 7
M  V30 7 2 5 8
M  V30 8 1 6 9
M  V30 9 1 6 10
M  V30 10 2 7 11
M  V30 11 1 9 12
M  V30 12 1 10 13
M  V30 13 1 10 14
M  V30 14 2 12 15
M  V30 15 1 12 16
M  V30 16 1 14 17
M  V30 17 2 16 18
M  V30 18 1 16 19
M  V30 19 1 17 20
M  V30 20 1 17 21
M  V30 21 1 18 22
M  V30 22 1 18 23
M  V30 23 2 19 24
M  V30 24 1 20 25
M  V30 25 1 20 26
M  V30 26 1 21 27
M  V30 27 1 22 28
M  V30 28 2 22 29
M  V30 29 2 25 30
M  V30 30 1 25 31
M  V30 31 1 26 32
M  V30 32 1 27 33
M  V30 33 1 31 34
M  V30 34 1 32 35
M  V30 35 1 33 36
M  V30 36 1 34 37
M  V30 37 1 34 38
M  V30 38 1 35 39
M  V30 39 1 8 11
M  V30 40 1 24 29
M  V30 41 1 27 32
M  V30 42 1 36 39
M  V30 43 1 3 40
M  V30 44 1 3 41
M  V30 45 1 4 42
M  V30 46 1 5 43
M  V30 47 1 6 44
M  V30 48 1 7 45
M  V30 49 1 8 46
M  V30 50 1 9 47
M  V30 51 1 10 48
M  V30 52 1 11 49
M  V30 53 1 13 50
M  V30 54 1 14 51
M  V30 55 1 14 52
M  V30 56 1 19 53
M  V30 57 1 20 54
M  V30 58 1 21 55
M  V30 59 1 21 56
M  V30 60 1 23 57
M  V30 61 1 23 58
M  V30 62 1 23 59
M  V30 63 1 24 60
M  V30 64 1 26 61
M  V30 65 1 26 62
M  V30 66 1 27 63
M  V30 67 1 28 64
M  V30 68 1 29 65
M  V30 69 1 31 66
M  V30 70 1 32 67
M  V30 71 1 33 68
M  V30 72 1 33 69
M  V30 73 1 34 70
M  V30 74 1 35 71
M  V30 75 1 35 72
M  V30 76 1 36 73
M  V30 77 1 36 74
M  V30 78 1 37 75
M  V30 79 1 37 76
M  V30 80 1 37 77
M  V30 81 1 38 78
M  V30 82 1 38 79
M  V30 83 1 38 80
M  V30 84 1 39 81
M  V30 85 1 39 82
M  V30 END BOND
M  V30 BEGIN COLLECTION
M  V30 MDLV30/STEABS ATOMS=(5 6 10 20 27 32)
M  V30 END COLLECTION
M  V30 END CTAB
M  END
>  <NO.>
6657

>  <Name>


>  <SMILES>
Cc1c(O)cccc1C(=O)N[C@@H](CSc1ccccc1)[C@H](O)CN1C[C@H]2CCCC[C@H]2C[C@H]1C(=O)NC(C)C

>  <logBB>


>  <Class>
-1

>  <MW>
553.3

>  <nHBAcc>
6

>  <nHBDon>
4

>  <SLogP>
4.36

>  <TopoPSA>
101.9

>  <MMFF94 Energy>
100.28

$$$$
Cl/C(=C\N1CN=CN1)c1ccc(Cl)cc1Cl
Actelion Java MolfileCreator 2.0

  0  0  0  0  0  0              0 V3000
M  V30 BEGIN CTAB
M  V30 COUNTS 24 25 0 0 0
M  V30 BEGIN ATOM
M  V30 1 Cl -1.4203 0.7517 -2.591 0
M  V30 2 C 0.0489 1.4252 -1.975 0
M  V30 3 C 0.4201 1.2873 -0.626 0
M  V30 4 C 0.8656 2.1226 -2.8698 0
M  V30 5 C -0.3965 0.5578 0.355 0
M  V30 6 C 1.6279 1.8616 -0.1942 0
M  V30 7 C 2.0578 2.6851 -2.4213 0
M  V30 8 Cl -1.3961 1.5382 1.3678 0
M  V30 9 C -0.3305 -0.7804 0.4491 0
M  V30 10 C 2.4433 2.5585 -1.0889 0
M  V30 11 Cl 3.0641 3.5427 -3.5215 0
M  V30 12 N -0.9745 -1.6693 1.279 0
M  V30 13 N -1.8756 -1.4406 2.2538 0
M  V30 14 C -0.8045 -3.1317 1.2719 0
M  V30 15 C -2.2432 -2.6237 2.8043 0
M  V30 16 N -1.6942 -3.7123 2.3367 0
M  V30 17 H 0.572 2.2278 -3.911 0
M  V30 18 H 1.9387 1.7709 0.8457 0
M  V30 19 H 0.3346 -1.3123 -0.2296 0
M  V30 20 H 3.3739 2.9995 -0.7396 0
M  V30 21 H -2.2501 -0.5255 2.4791 0
M  V30 22 H -1.0927 -3.5491 0.3007 0
M  V30 23 H 0.2347 -3.4004 1.4913 0
M  V30 24 H -2.9854 -2.5869 3.6157 0
M  V30 END ATOM
M  V30 BEGIN BOND
M  V30 1 1 1 2
M  V30 2 2 2 3
M  V30 3 1 2 4
M  V30 4 1 3 5
M  V30 5 1 3 6
M  V30 6 2 4 7
M  V30 7 1 5 8
M  V30 8 2 5 9
M  V30 9 2 6 10
M  V30 10 1 7 11
M  V30 11 1 9 12
M  V30 12 1 12 13
M  V30 13 1 12 14
M  V30 14 1 13 15
M  V30 15 1 14 16
M  V30 16 1 7 10
M  V30 17 2 15 16
M  V30 18 1 4 17
M  V30 19 1 6 18
M  V30 20 1 9 19
M  V30 21 1 10 20
M  V30 22 1 13 21
M  V30 23 1 14 22
M  V30 24 1 14 23
M  V30 25 1 15 24
M  V30 END BOND
M  V30 END CTAB
M  END
>  <NO.>
6678

>  <Name>


>  <SMILES>
Cl/C(=C\N1CN=CN1)c1ccc(Cl)cc1Cl

>  <logBB>


>  <Class>
1

>  <MW>
274.98

>  <nHBAcc>
3

>  <nHBDon>
1

>  <SLogP>
3.34

>  <TopoPSA>
27.63

>  <MMFF94 Energy>
52.032

$$$$
NC(=O)C1C=CN(CC2=C(C(=O)O)N3C(=O)[C@H](NC(=O)Cc4cccs4)[C@H]3SC2)C=C1
Actelion Java MolfileCreator 2.0

  0  0  0  0  0  0              0 V3000
M  V30 BEGIN CTAB
M  V30 COUNTS 51 54 0 0 0
M  V30 BEGIN ATOM
M  V30 1 S -1.3129 -1.7234 -1.395 0
M  V30 2 C -0.1732 -1.4169 -0.0186 0 CFG=1
M  V30 3 C -1.9886 -0.0277 -1.3269 0
M  V30 4 N -0.9887 -1.1343 1.1416 0
M  V30 5 C 0.3386 -2.6746 0.7534 0 CFG=2
M  V30 6 C -2.4277 0.3946 0.0662 0
M  V30 7 C -1.9534 -0.1813 1.1956 0
M  V30 8 C -0.4802 -2.0788 1.9527 0
M  V30 9 N 1.804 -2.7602 1.0117 0
M  V30 10 C -3.4626 1.506 0.06 0
M  V30 11 C -2.5016 0.167 2.5317 0
M  V30 12 O -0.6514 -2.3528 3.1171 0
M  V30 13 C 2.7321 -2.7044 -0.0042 0
M  V30 14 N -2.8777 2.7126 -0.5559 0
M  V30 15 O -3.6766 0.1759 2.851 0
M  V30 16 O -1.5237 0.5339 3.3785 0
M  V30 17 O 2.4139 -2.5326 -1.1774 0
M  V30 18 C 4.1767 -2.8343 0.4424 0
M  V30 19 C -3.2281 3.1002 -1.8467 0
M  V30 20 C -1.9433 3.4803 0.1368 0
M  V30 21 C 4.4541 -4.2471 0.856 0
M  V30 22 C -2.687 4.1551 -2.4743 0
M  V30 23 C -1.3358 4.5559 -0.3858 0
M  V30 24 S 4.5636 -4.6565 2.5168 0
M  V30 25 C 4.6523 -5.3497 0.0482 0
M  V30 26 C -1.6364 5.0069 -1.7972 0
M  V30 27 C 4.8661 -6.2996 2.1566 0
M  V30 28 C 4.8878 -6.536 0.8006 0
M  V30 29 C -0.3423 4.9529 -2.629 0
M  V30 30 O 0.3516 3.9539 -2.7967 0
M  V30 31 N 0.0241 6.1357 -3.2145 0
M  V30 32 H 0.5818 -0.6434 -0.2018 0
M  V30 33 H -1.2381 0.6691 -1.7149 0
M  V30 34 H -2.8448 -0.0189 -2.0093 0
M  V30 35 H -0.0539 -3.642 0.4186 0
M  V30 36 H 2.1319 -2.9513 1.9548 0
M  V30 37 H -3.8243 1.7767 1.0556 0
M  V30 38 H -4.3492 1.1693 -0.4927 0
M  V30 39 H -1.9788 0.6514 4.2375 0
M  V30 40 H 4.3647 -2.1213 1.2534 0
M  V30 41 H 4.8278 -2.5529 -0.3932 0
M  V30 42 H -3.9758 2.4804 -2.3337 0
M  V30 43 H -1.7231 3.1443 1.1465 0
M  V30 44 H -2.9886 4.407 -3.4851 0
M  V30 45 H -0.6067 5.1111 0.1939 0
M  V30 46 H 4.6235 -5.3091 -1.0351 0
M  V30 47 H -2.0055 6.0388 -1.7549 0
M  V30 48 H 5.0143 -7.0137 2.9554 0
M  V30 49 H 5.064 -7.5135 0.3684 0
M  V30 50 H -0.5014 6.993 -3.1228 0
M  V30 51 H 0.8689 6.1348 -3.7712 0
M  V30 END ATOM
M  V30 BEGIN BOND
M  V30 1 1 1 2
M  V30 2 1 1 3
M  V30 3 1 2 4
M  V30 4 1 2 5
M  V30 5 1 3 6
M  V30 6 1 4 7
M  V30 7 1 4 8
M  V30 8 1 5 9
M  V30 9 1 6 10
M  V30 10 1 7 11
M  V30 11 2 8 12
M  V30 12 1 9 13
M  V30 13 1 10 14
M  V30 14 2 11 15
M  V30 15 1 11 16
M  V30 16 2 13 17
M  V30 17 1 13 18
M  V30 18 1 14 19
M  V30 19 1 14 20
M  V30 20 1 18 21
M  V30 21 2 19 22
M  V30 22 2 20 23
M  V30 23 1 21 24
M  V30 24 2 21 25
M  V30 25 1 22 26
M  V30 26 1 24 27
M  V30 27 1 25 28
M  V30 28 1 26 29
M  V30 29 2 29 30
M  V30 30 1 29 31
M  V30 31 1 5 8
M  V30 32 2 6 7
M  V30 33 1 23 26
M  V30 34 2 27 28
M  V30 35 1 2 32
M  V30 36 1 3 33
M  V30 37 1 3 34
M  V30 38 1 5 35
M  V30 39 1 9 36
M  V30 40 1 10 37
M  V30 41 1 10 38
M  V30 42 1 16 39
M  V30 43 1 18 40
M  V30 44 1 18 41
M  V30 45 1 19 42
M  V30 46 1 20 43
M  V30 47 1 22 44
M  V30 48 1 23 45
M  V30 49 1 25 46
M  V30 50 1 26 47
M  V30 51 1 27 48
M  V30 52 1 28 49
M  V30 53 1 31 50
M  V30 54 1 31 51
M  V30 END BOND
M  V30 BEGIN COLLECTION
M  V30 MDLV30/STEABS ATOMS=(2 2 5)
M  V30 END COLLECTION
M  V30 END CTAB
M  END
>  <NO.>
6691

>  <Name>


>  <SMILES>
NC(=O)C1C=CN(CC2=C(C(=O)O)N3C(=O)[C@H](NC(=O)Cc4cccs4)[C@H]3SC2)C=C1

>  <logBB>


>  <Class>
-1

>  <MW>
460.09

>  <nHBAcc>
7

>  <nHBDon>
3

>  <SLogP>
0.47

>  <TopoPSA>
133.04

>  <MMFF94 Energy>
9.876

$$$$
NCN.Nc1cccc(-c2csc(N)n2)c1
Actelion Java MolfileCreator 2.0

  0  0  0  0  0  0              0 V3000
M  V30 BEGIN CTAB
M  V30 COUNTS 31 31 0 0 0
M  V30 BEGIN ATOM
M  V30 1 S -2.2629 2.8097 0.6238 0
M  V30 2 C -0.8881 3.2956 1.5266 0
M  V30 3 C -1.81 1.1698 0.836 0
M  V30 4 N -0.1316 2.3223 1.9658 0
M  V30 5 N -0.6261 4.5858 1.7568 0
M  V30 6 C -0.6409 1.0922 1.5684 0
M  V30 7 C 0.0276 -0.1529 1.9408 0
M  V30 8 C -0.2 -1.3594 1.2577 0
M  V30 9 C 0.9329 -0.1504 3.0106 0
M  V30 10 C 0.4567 -2.5393 1.6264 0
M  V30 11 C 1.5773 -1.3244 3.3996 0
M  V30 12 N 0.1922 -3.7274 0.9674 0
M  V30 13 C 1.3307 -2.5135 2.714 0
M  V30 14 N 1.0122 0.4514 -4.6729 0
M  V30 15 C 0.0251 -0.4049 -4.0925 0
M  V30 16 N -1.1871 0.2994 -4.3732 0
M  V30 17 H -2.4191 0.3776 0.4281 0
M  V30 18 H -1.2182 5.3276 1.4121 0
M  V30 19 H 0.1946 4.8399 2.2903 0
M  V30 20 H -0.8847 -1.3912 0.4158 0
M  V30 21 H 1.1347 0.7708 3.5542 0
M  V30 22 H 2.2684 -1.3117 4.2378 0
M  V30 23 H -0.3721 -3.7338 0.1295 0
M  V30 24 H 0.7221 -4.5587 1.1908 0
M  V30 25 H 1.8339 -3.4215 3.0345 0
M  V30 26 H 0.7173 0.6265 -5.6323 0
M  V30 27 H 1.8957 -0.0484 -4.7344 0
M  V30 28 H 0.1887 -0.517 -3.0171 0
M  V30 29 H 0.0203 -1.393 -4.5609 0
M  V30 30 H -1.9414 -0.0963 -3.8174 0
M  V30 31 H -1.055 1.2516 -4.0356 0
M  V30 END ATOM
M  V30 BEGIN BOND
M  V30 1 1 1 2
M  V30 2 1 1 3
M  V30 3 2 2 4
M  V30 4 1 2 5
M  V30 5 2 3 6
M  V30 6 1 6 7
M  V30 7 2 7 8
M  V30 8 1 7 9
M  V30 9 1 8 10
M  V30 10 2 9 11
M  V30 11 1 10 12
M  V30 12 2 10 13
M  V30 13 1 14 15
M  V30 14 1 15 16
M  V30 15 1 4 6
M  V30 16 1 11 13
M  V30 17 1 3 17
M  V30 18 1 5 18
M  V30 19 1 5 19
M  V30 20 1 8 20
M  V30 21 1 9 21
M  V30 22 1 11 22
M  V30 23 1 12 23
M  V30 24 1 12 24
M  V30 25 1 13 25
M  V30 26 1 14 26
M  V30 27 1 14 27
M  V30 28 1 15 28
M  V30 29 1 15 29
M  V30 30 1 16 30
M  V30 31 1 16 31
M  V30 END BOND
M  V30 END CTAB
M  END
>  <NO.>
6704

>  <Name>


>  <SMILES>
NCN.Nc1cccc(-c2csc(N)n2)c1

>  <logBB>


>  <Class>
-1

>  <MW>
237.1

>  <nHBAcc>
6

>  <nHBDon>
4

>  <SLogP>
0.84

>  <TopoPSA>
116.97

>  <MMFF94 Energy>
-25.153

$$$$
NCN.Nc1nc(-c2ccccc2)cs1
Actelion Java MolfileCreator 2.0

  0  0  0  0  0  0              0 V3000
M  V30 BEGIN CTAB
M  V30 COUNTS 29 29 0 0 0
M  V30 BEGIN ATOM
M  V30 1 S 3.0594 -0.3918 3.6878 0
M  V30 2 C 2.4828 -1.5747 2.5896 0
M  V30 3 C 1.6486 0.542 3.406 0
M  V30 4 N 1.3242 -1.3132 2.0406 0
M  V30 5 N 3.1837 -2.6815 2.3259 0
M  V30 6 C 0.8263 -0.0976 2.4979 0
M  V30 7 C -0.4628 0.4107 2.0235 0
M  V30 8 C -1.1985 -0.3446 1.096 0
M  V30 9 C -1.0023 1.6311 2.4582 0
M  V30 10 C -2.433 0.1028 0.6171 0
M  V30 11 C -2.2384 2.0795 1.9789 0
M  V30 12 C -2.9526 1.3158 1.0594 0
M  V30 13 N 0.7527 0.1578 -3.8301 0
M  V30 14 C -0.3388 -0.4876 -4.4951 0
M  V30 15 N -0.8582 0.5392 -5.3429 0
M  V30 16 H 1.5147 1.4837 3.9153 0
M  V30 17 H 4.0771 -2.871 2.7569 0
M  V30 18 H 2.8159 -3.3604 1.6728 0
M  V30 19 H -0.8103 -1.2964 0.737 0
M  V30 20 H -0.4799 2.2583 3.174 0
M  V30 21 H -2.9845 -0.4988 -0.1004 0
M  V30 22 H -2.6426 3.0274 2.3257 0
M  V30 23 H -3.9123 1.6651 0.6879 0
M  V30 24 H 1.1107 -0.4676 -3.1098 0
M  V30 25 H 1.5184 0.2766 -4.4889 0
M  V30 26 H -1.0976 -0.8134 -3.7779 0
M  V30 27 H -0.0068 -1.3568 -5.07 0
M  V30 28 H -1.0456 1.3381 -4.7379 0
M  V30 29 H -0.1187 0.8555 -5.9625 0
M  V30 END ATOM
M  V30 BEGIN BOND
M  V30 1 1 1 2
M  V30 2 1 1 3
M  V30 3 2 2 4
M  V30 4 1 2 5
M  V30 5 2 3 6
M  V30 6 1 6 7
M  V30 7 2 7 8
M  V30 8 1 7 9
M  V30 9 1 8 10
M  V30 10 2 9 11
M  V30 11 2 10 12
M  V30 12 1 13 14
M  V30 13 1 14 15
M  V30 14 1 4 6
M  V30 15 1 11 12
M  V30 16 1 3 16
M  V30 17 1 5 17
M  V30 18 1 5 18
M  V30 19 1 8 19
M  V30 20 1 9 20
M  V30 21 1 10 21
M  V30 22 1 11 22
M  V30 23 1 12 23
M  V30 24 1 13 24
M  V30 25 1 13 25
M  V30 26 1 14 26
M  V30 27 1 14 27
M  V30 28 1 15 28
M  V30 29 1 15 29
M  V30 END BOND
M  V30 END CTAB
M  END
>  <NO.>
6705

>  <Name>


>  <SMILES>
NCN.Nc1nc(-c2ccccc2)cs1

>  <logBB>


>  <Class>
1

>  <MW>
222.09

>  <nHBAcc>
5

>  <nHBDon>
3

>  <SLogP>
1.25

>  <TopoPSA>
90.95

>  <MMFF94 Energy>
-15.23

$$$$
O=C(Cc1cccs1)N[C@@H]1C(=O)N2C(C(=O)O)=C(CN3C=CCC=C3)CS[C@@H]12
Actelion Java MolfileCreator 2.0

  0  0  0  0  0  0              0 V3000
M  V30 BEGIN CTAB
M  V30 COUNTS 47 50 0 0 0
M  V30 BEGIN ATOM
M  V30 1 S -0.5757 -2.1395 0.0 0
M  V30 2 C 0.8275 -1.0015 -0.0616 0 CFG=2
M  V30 3 C -1.7238 -0.871 0.6348 0
M  V30 4 N 0.4766 0.047 -0.991 0
M  V30 5 C 1.98 -1.3746 -1.049 0 CFG=1
M  V30 6 C -1.6682 0.4587 -0.102 0
M  V30 7 C -0.6262 0.8294 -0.884 0
M  V30 8 C 1.5486 -0.0615 -1.7954 0
M  V30 9 N 3.3722 -1.3285 -0.5179 0
M  V30 10 C -2.8736 1.3486 0.155 0
M  V30 11 C -0.6389 2.0952 -1.665 0
M  V30 12 O 1.956 0.5875 -2.7294 0
M  V30 13 C 3.7426 -1.9702 0.6431 0
M  V30 14 N -4.1154 0.7084 -0.309 0
M  V30 15 O -1.5036 2.4742 -2.4321 0
M  V30 16 O 0.4407 2.8451 -1.3776 0
M  V30 17 O 2.9467 -2.6039 1.3306 0
M  V30 18 C 5.2068 -1.8188 1.0116 0
M  V30 19 C -4.3816 0.5684 -1.6699 0
M  V30 20 C -5.0792 0.2678 0.5963 0
M  V30 21 C 5.4167 -0.4879 1.6657 0
M  V30 22 C -5.4989 0.0034 -2.1517 0
M  V30 23 C -6.2312 -0.3126 0.2273 0
M  V30 24 S 6.0362 0.8311 0.7637 0
M  V30 25 C 5.1707 -0.1336 2.9779 0
M  V30 26 C -6.5649 -0.5208 -1.227 0
M  V30 27 C 5.9697 1.8706 2.119 0
M  V30 28 C 5.4889 1.2301 3.2388 0
M  V30 29 H 1.152 -0.6084 0.9092 0
M  V30 30 H -2.7162 -1.3216 0.5578 0
M  V30 31 H -1.5163 -0.706 1.6978 0
M  V30 32 H 1.8262 -2.273 -1.6581 0
M  V30 33 H 4.0683 -0.7694 -1.0042 0
M  V30 34 H -2.7893 2.3384 -0.3043 0
M  V30 35 H -2.9216 1.546 1.2347 0
M  V30 36 H 0.3803 3.5986 -2.0003 0
M  V30 37 H 5.8241 -1.9382 0.1139 0
M  V30 38 H 5.4786 -2.6284 1.6985 0
M  V30 39 H -3.6162 0.9549 -2.3375 0
M  V30 40 H -4.8406 0.42 1.6447 0
M  V30 41 H -5.6542 -0.0802 -3.2213 0
M  V30 42 H -6.9475 -0.6415 0.9714 0
M  V30 43 H 4.7751 -0.8208 3.7178 0
M  V30 44 H -6.7059 -1.5912 -1.4125 0
M  V30 45 H -7.5108 -0.015 -1.4508 0
M  V30 46 H 6.2874 2.9007 2.0307 0
M  V30 47 H 5.3718 1.7165 4.1997 0
M  V30 END ATOM
M  V30 BEGIN BOND
M  V30 1 1 1 2
M  V30 2 1 1 3
M  V30 3 1 2 4
M  V30 4 1 2 5
M  V30 5 1 3 6
M  V30 6 1 4 7
M  V30 7 1 4 8
M  V30 8 1 5 9
M  V30 9 1 6 10
M  V30 10 1 7 11
M  V30 11 2 8 12
M  V30 12 1 9 13
M  V30 13 1 10 14
M  V30 14 2 11 15
M  V30 15 1 11 16
M  V30 16 2 13 17
M  V30 17 1 13 18
M  V30 18 1 14 19
M  V30 19 1 14 20
M  V30 20 1 18 21
M  V30 21 2 19 22
M  V30 22 2 20 23
M  V30 23 1 21 24
M  V30 24 2 21 25
M  V30 25 1 22 26
M  V30 26 1 24 27
M  V30 27 1 25 28
M  V30 28 1 5 8
M  V30 29 2 6 7
M  V30 30 1 23 26
M  V30 31 2 27 28
M  V30 32 1 2 29
M  V30 33 1 3 30
M  V30 34 1 3 31
M  V30 35 1 5 32
M  V30 36 1 9 33
M  V30 37 1 10 34
M  V30 38 1 10 35
M  V30 39 1 16 36
M  V30 40 1 18 37
M  V30 41 1 18 38
M  V30 42 1 19 39
M  V30 43 1 20 40
M  V30 44 1 22 41
M  V30 45 1 23 42
M  V30 46 1 25 43
M  V30 47 1 26 44
M  V30 48 1 26 45
M  V30 49 1 27 46
M  V30 50 1 28 47
M  V30 END BOND
M  V30 BEGIN COLLECTION
M  V30 MDLV30/STEABS ATOMS=(2 2 5)
M  V30 END COLLECTION
M  V30 END CTAB
M  END
>  <NO.>
6732

>  <Name>


>  <SMILES>
O=C(Cc1cccs1)N[C@@H]1C(=O)N2C(C(=O)O)=C(CN3C=CCC=C3)CS[C@@H]12

>  <logBB>


>  <Class>
-1

>  <MW>
417.08

>  <nHBAcc>
6

>  <nHBDon>
2

>  <SLogP>
1.76

>  <TopoPSA>
89.95

>  <MMFF94 Energy>
1.3748

$$$$
O=C(Cc1cccs1)N[C@@H]1C(=O)N2C(C(=O)O)=C(CSC3=NCNN3)CS[C@@H]12
Actelion Java MolfileCreator 2.0

  0  0  0  0  0  0              0 V3000
M  V30 BEGIN CTAB
M  V30 COUNTS 45 48 0 0 0
M  V30 BEGIN ATOM
M  V30 1 S 1.3354 1.1684 -1.2519 0
M  V30 2 C 0.7397 0.0186 0.0145 0 CFG=2
M  V30 3 C -0.1417 2.2323 -1.118 0
M  V30 4 N 0.6385 0.7698 1.2444 0
M  V30 5 C 1.8256 -0.8459 0.7307 0 CFG=1
M  V30 6 C -0.5039 2.6111 0.3116 0
M  V30 7 C -0.0771 1.9132 1.3924 0
M  V30 8 C 1.4123 -0.0255 2.0042 0
M  V30 9 N 1.568 -2.3094 0.8534 0
M  V30 10 C -1.3465 3.8684 0.4048 0
M  V30 11 C -0.3555 2.3677 2.7816 0
M  V30 12 O 1.6884 -0.0404 3.1804 0
M  V30 13 C 1.2138 -3.0937 -0.2216 0
M  V30 14 S -3.1106 3.4451 0.3798 0
M  V30 15 O -0.1102 3.4621 3.2547 0
M  V30 16 O -0.9674 1.4014 3.4909 0
M  V30 17 O 1.0248 -2.6308 -1.3431 0
M  V30 18 C 1.036 -4.5675 0.0955 0
M  V30 19 C -3.5137 3.7036 -1.2817 0
M  V30 20 C 2.372 -5.1972 0.345 0
M  V30 21 N -2.6378 3.8671 -2.2293 0
M  V30 22 N -4.8227 3.719 -1.6339 0
M  V30 23 S 2.8704 -5.5629 1.9436 0
M  V30 24 C 3.3325 -5.5571 -0.58 0
M  V30 25 C -3.5239 4.0744 -3.4012 0
M  V30 26 N -4.9364 3.9121 -3.0068 0
M  V30 27 C 4.3646 -6.191 1.4015 0
M  V30 28 C 4.4849 -6.1291 0.0315 0
M  V30 29 H -0.1905 -0.5064 -0.2323 0
M  V30 30 H 0.0854 3.1301 -1.7013 0
M  V30 31 H -0.9846 1.7195 -1.5925 0
M  V30 32 H 2.8647 -0.661 0.4336 0
M  V30 33 H 1.7401 -2.7657 1.7456 0
M  V30 34 H -1.1657 4.4091 1.3365 0
M  V30 35 H -1.0817 4.5887 -0.3763 0
M  V30 36 H -1.0337 1.7763 4.3929 0
M  V30 37 H 0.5461 -5.052 -0.7569 0
M  V30 38 H 0.3637 -4.6686 0.9554 0
M  V30 39 H -5.5911 3.6712 -0.9741 0
M  V30 40 H 3.2172 -5.4114 -1.6486 0
M  V30 41 H -3.2627 3.3528 -4.1831 0
M  V30 42 H -3.3659 5.0829 -3.7987 0
M  V30 43 H -5.281 3.0581 -3.452 0
M  V30 44 H 5.0832 -6.5764 2.1122 0
M  V30 45 H 5.3581 -6.4772 -0.5067 0
M  V30 END ATOM
M  V30 BEGIN BOND
M  V30 1 1 1 2
M  V30 2 1 1 3
M  V30 3 1 2 4
M  V30 4 1 2 5
M  V30 5 1 3 6
M  V30 6 1 4 7
M  V30 7 1 4 8
M  V30 8 1 5 9
M  V30 9 1 6 10
M  V30 10 1 7 11
M  V30 11 2 8 12
M  V30 12 1 9 13
M  V30 13 1 10 14
M  V30 14 2 11 15
M  V30 15 1 11 16
M  V30 16 2 13 17
M  V30 17 1 13 18
M  V30 18 1 14 19
M  V30 19 1 18 20
M  V30 20 2 19 21
M  V30 21 1 19 22
M  V30 22 1 20 23
M  V30 23 2 20 24
M  V30 24 1 21 25
M  V30 25 1 22 26
M  V30 26 1 23 27
M  V30 27 1 24 28
M  V30 28 1 5 8
M  V30 29 2 6 7
M  V30 30 1 25 26
M  V30 31 2 27 28
M  V30 32 1 2 29
M  V30 33 1 3 30
M  V30 34 1 3 31
M  V30 35 1 5 32
M  V30 36 1 9 33
M  V30 37 1 10 34
M  V30 38 1 10 35
M  V30 39 1 16 36
M  V30 40 1 18 37
M  V30 41 1 18 38
M  V30 42 1 22 39
M  V30 43 1 24 40
M  V30 44 1 25 41
M  V30 45 1 25 42
M  V30 46 1 26 43
M  V30 47 1 27 44
M  V30 48 1 28 45
M  V30 END BOND
M  V30 BEGIN COLLECTION
M  V30 MDLV30/STEABS ATOMS=(2 2 5)
M  V30 END COLLECTION
M  V30 END CTAB
M  END
>  <NO.>
6733

>  <Name>


>  <SMILES>
O=C(Cc1cccs1)N[C@@H]1C(=O)N2C(C(=O)O)=C(CSC3=NCNN3)CS[C@@H]12

>  <logBB>


>  <Class>
-1

>  <MW>
439.04

>  <nHBAcc>
9

>  <nHBDon>
4

>  <SLogP>
0.18

>  <TopoPSA>
123.13

>  <MMFF94 Energy>
-4.8054

$$$$
O=C(N[C@H](CO)[C@H](O)C1CCC([N+](=O)[O-])CC1)C(Cl)Cl
Actelion Java MolfileCreator 2.0

  0  0  0  0  0  0              0 V3000
M  V30 BEGIN CTAB
M  V30 COUNTS 38 38 0 0 0
M  V30 BEGIN ATOM
M  V30 1 Cl 5.6031 1.865 1.6216 0
M  V30 2 C 5.0386 2.2135 -0.0263 0
M  V30 3 Cl 5.5036 0.9075 -1.1371 0
M  V30 4 C 3.516 2.3516 -0.0169 0
M  V30 5 O 2.9556 3.4022 -0.3294 0
M  V30 6 N 2.8044 1.2312 0.3684 0
M  V30 7 C 1.335 1.1739 0.3853 0 CFG=1
M  V30 8 C 0.8989 -0.3182 0.4723 0 CFG=2
M  V30 9 C 0.7496 2.0326 1.5226 0
M  V30 10 O 1.6501 -1.0759 -0.4956 0
M  V30 11 C -0.6084 -0.6245 0.3013 0
M  V30 12 O -0.6453 2.2444 1.3413 0
M  V30 13 C -1.1791 -0.1449 -1.0471 0
M  V30 14 C -0.8744 -2.1367 0.475 0
M  V30 15 C -2.6667 -0.476 -1.1843 0
M  V30 16 C -2.3608 -2.4708 0.3499 0
M  V30 17 C -2.913 -1.9682 -0.9809 0
M  V30 18 N -4.3968 -2.2395 -1.0406 0 CHG=1
M  V30 19 O -5.1172 -1.7181 -0.1788 0
M  V30 20 O -4.7913 -2.9706 -1.9579 0 CHG=-1
M  V30 21 H 5.4962 3.1462 -0.3671 0
M  V30 22 H 3.3092 0.3622 0.5305 0
M  V30 23 H 1.0121 1.5856 -0.5781 0
M  V30 24 H 1.2156 -0.7061 1.4492 0
M  V30 25 H 1.2276 3.0166 1.5554 0
M  V30 26 H 0.9098 1.5545 2.495 0
M  V30 27 H 1.6096 -0.5974 -1.343 0
M  V30 28 H -1.1558 -0.1172 1.1044 0
M  V30 29 H -0.914 2.9276 1.9817 0
M  V30 30 H -0.6326 -0.6096 -1.8766 0
M  V30 31 H -1.0581 0.9381 -1.1524 0
M  V30 32 H -0.516 -2.4661 1.4577 0
M  V30 33 H -0.3178 -2.7107 -0.276 0
M  V30 34 H -3.0218 -0.1643 -2.1742 0
M  V30 35 H -3.2296 0.1162 -0.451 0
M  V30 36 H -2.898 -2.0187 1.1937 0
M  V30 37 H -2.5024 -3.5551 0.435 0
M  V30 38 H -2.4608 -2.5336 -1.8057 0
M  V30 END ATOM
M  V30 BEGIN BOND
M  V30 1 1 1 2
M  V30 2 1 2 3
M  V30 3 1 2 4
M  V30 4 2 4 5
M  V30 5 1 4 6
M  V30 6 1 6 7
M  V30 7 1 7 8
M  V30 8 1 7 9
M  V30 9 1 8 10
M  V30 10 1 8 11
M  V30 11 1 9 12
M  V30 12 1 11 13
M  V30 13 1 11 14
M  V30 14 1 13 15
M  V30 15 1 14 16
M  V30 16 1 15 17
M  V30 17 1 17 18
M  V30 18 2 18 19
M  V30 19 1 18 20
M  V30 20 1 16 17
M  V30 21 1 2 21
M  V30 22 1 6 22
M  V30 23 1 7 23
M  V30 24 1 8 24
M  V30 25 1 9 25
M  V30 26 1 9 26
M  V30 27 1 10 27
M  V30 28 1 11 28
M  V30 29 1 12 29
M  V30 30 1 13 30
M  V30 31 1 13 31
M  V30 32 1 14 32
M  V30 33 1 14 33
M  V30 34 1 15 34
M  V30 35 1 15 35
M  V30 36 1 16 36
M  V30 37 1 16 37
M  V30 38 1 17 38
M  V30 END BOND
M  V30 BEGIN COLLECTION
M  V30 MDLV30/STEABS ATOMS=(2 7 8)
M  V30 END COLLECTION
M  V30 END CTAB
M  END
>  <NO.>
6736

>  <Name>


>  <SMILES>
O=C(N[C@H](CO)[C@H](O)C1CCC([N+](=O)[O-])CC1)C(Cl)Cl

>  <logBB>


>  <Class>
1

>  <MW>
328.06

>  <nHBAcc>
5

>  <nHBDon>
3

>  <SLogP>
0.46

>  <TopoPSA>
112.7

>  <MMFF94 Energy>
87.545

$$$$
O=C1CN(O)[C@@H](c2ccccc2)c2cc(Cl)ccc2N1
Actelion Java MolfileCreator 2.0

  0  0  0  0  0  0              0 V3000
M  V30 BEGIN CTAB
M  V30 COUNTS 33 35 0 0 0
M  V30 BEGIN ATOM
M  V30 1 Cl 0.7317 3.0925 -4.0705 0
M  V30 2 C 0.8494 1.7317 -3.0246 0
M  V30 3 C -0.1381 1.5095 -2.065 0
M  V30 4 C 1.9373 0.8699 -3.1319 0
M  V30 5 C -0.0521 0.4072 -1.1935 0
M  V30 6 C 2.0297 -0.2362 -2.2865 0
M  V30 7 C 1.0295 -0.4804 -1.3405 0
M  V30 8 C -1.0801 0.2511 -0.0713 0 CFG=1
M  V30 9 N 1.1423 -1.6337 -0.5566 0
M  V30 10 N -1.9193 -0.9746 -0.1628 0
M  V30 11 C -0.4758 0.4796 1.3287 0
M  V30 12 C 0.0978 -2.4495 -0.1937 0
M  V30 13 O -3.0375 -0.6533 -1.0466 0
M  V30 14 C -1.2718 -2.1395 -0.7942 0
M  V30 15 C -0.6309 -0.4346 2.385 0
M  V30 16 C 0.2323 1.6695 1.5924 0
M  V30 17 O 0.2953 -3.4167 0.5427 0
M  V30 18 C -0.0771 -0.1836 3.6437 0
M  V30 19 C 0.7837 1.9203 2.8515 0
M  V30 20 C 0.6312 0.9916 3.8761 0
M  V30 21 H -0.9696 2.2063 -1.9823 0
M  V30 22 H 2.7104 1.0478 -3.8747 0
M  V30 23 H 2.8718 -0.9158 -2.3914 0
M  V30 24 H -1.7861 1.0922 -0.1546 0
M  V30 25 H 2.0533 -1.925 -0.2251 0
M  V30 26 H -3.7983 -0.7774 -0.4457 0
M  V30 27 H -1.1719 -2.0258 -1.8814 0
M  V30 28 H -1.9061 -3.0193 -0.6312 0
M  V30 29 H -1.1825 -1.362 2.2457 0
M  V30 30 H 0.3622 2.4178 0.8133 0
M  V30 31 H -0.2018 -0.9112 4.4418 0
M  V30 32 H 1.3309 2.8421 3.0308 0
M  V30 33 H 1.0603 1.1836 4.8557 0
M  V30 END ATOM
M  V30 BEGIN BOND
M  V30 1 1 1 2
M  V30 2 2 2 3
M  V30 3 1 2 4
M  V30 4 1 3 5
M  V30 5 2 4 6
M  V30 6 2 5 7
M  V30 7 1 5 8
M  V30 8 1 7 9
M  V30 9 1 8 10
M  V30 10 1 8 11
M  V30 11 1 9 12
M  V30 12 1 10 13
M  V30 13 1 10 14
M  V30 14 2 11 15
M  V30 15 1 11 16
M  V30 16 2 12 17
M  V30 17 1 15 18
M  V30 18 2 16 19
M  V30 19 2 18 20
M  V30 20 1 6 7
M  V30 21 1 12 14
M  V30 22 1 19 20
M  V30 23 1 3 21
M  V30 24 1 4 22
M  V30 25 1 6 23
M  V30 26 1 8 24
M  V30 27 1 9 25
M  V30 28 1 13 26
M  V30 29 1 14 27
M  V30 30 1 14 28
M  V30 31 1 15 29
M  V30 32 1 16 30
M  V30 33 1 18 31
M  V30 34 1 19 32
M  V30 35 1 20 33
M  V30 END BOND
M  V30 BEGIN COLLECTION
M  V30 MDLV30/STEABS ATOMS=(1 8)
M  V30 END COLLECTION
M  V30 END CTAB
M  END
>  <NO.>
6749

>  <Name>


>  <SMILES>
O=C1CN(O)[C@@H](c2ccccc2)c2cc(Cl)ccc2N1

>  <logBB>


>  <Class>
1

>  <MW>
288.07

>  <nHBAcc>
3

>  <nHBDon>
2

>  <SLogP>
3.07

>  <TopoPSA>
52.57

>  <MMFF94 Energy>
102.84

$$$$
O=C1N(CCCN2CCN(c3cccc(Cl)c3)CC2)N[C@H]2C=CC=CN12
Actelion Java MolfileCreator 2.0

  0  0  0  0  0  0              0 V3000
M  V30 BEGIN CTAB
M  V30 COUNTS 50 53 0 0 0
M  V30 BEGIN ATOM
M  V30 1 Cl 4.7409 0.1604 7.4001 0
M  V30 2 C 4.0138 1.0912 6.1466 0
M  V30 3 C 3.3958 0.4446 5.0729 0
M  V30 4 C 4.0419 2.4789 6.2163 0
M  V30 5 C 2.7898 1.1678 4.0329 0
M  V30 6 C 3.4409 3.2204 5.2053 0
M  V30 7 N 2.1729 0.5054 2.9761 0
M  V30 8 C 2.8208 2.5686 4.132 0
M  V30 9 C 2.9453 -0.5273 2.2592 0
M  V30 10 C 1.1762 1.1963 2.1414 0
M  V30 11 C 2.0096 -1.4864 1.4891 0
M  V30 12 C 0.29 0.1872 1.3729 0
M  V30 13 N 1.0698 -0.7893 0.5786 0
M  V30 14 C 0.2097 -1.7704 -0.1031 0
M  V30 15 C -0.6248 -1.1576 -1.2328 0
M  V30 16 C -1.3963 -2.2438 -1.9834 0
M  V30 17 N -2.2051 -1.6948 -3.0505 0
M  V30 18 N -3.4492 -1.0389 -2.8049 0
M  V30 19 C -1.7444 -1.4556 -4.3568 0
M  V30 20 C -3.9422 -0.722 -4.1536 0 CFG=2
M  V30 21 O -0.6597 -1.7685 -4.8217 0
M  V30 22 N -2.7577 -0.7228 -4.976 0
M  V30 23 C -4.7096 0.5528 -4.3184 0
M  V30 24 C -2.6629 -0.0207 -6.1503 0
M  V30 25 C -4.5474 1.3143 -5.4161 0
M  V30 26 C -3.5588 0.9441 -6.4135 0
M  V30 27 H 3.3614 -0.6408 5.0685 0
M  V30 28 H 4.5222 2.9834 7.0495 0
M  V30 29 H 3.4538 4.3066 5.2442 0
M  V30 30 H 2.3787 3.1875 3.3559 0
M  V30 31 H 3.5562 -1.134 2.9359 0
M  V30 32 H 3.6308 -0.0366 1.5562 0
M  V30 33 H 1.6849 1.8558 1.4268 0
M  V30 34 H 0.5125 1.8108 2.7623 0
M  V30 35 H 1.4494 -2.091 2.2156 0
M  V30 36 H 2.638 -2.1729 0.9087 0
M  V30 37 H -0.3653 0.7707 0.7178 0
M  V30 38 H -0.3504 -0.3402 2.0928 0
M  V30 39 H -0.4481 -2.2773 0.6151 0
M  V30 40 H 0.8479 -2.5446 -0.549 0
M  V30 41 H -1.3374 -0.4264 -0.8348 0
M  V30 42 H 0.0275 -0.6189 -1.9316 0
M  V30 43 H -0.6917 -2.958 -2.4246 0
M  V30 44 H -2.0565 -2.7954 -1.3044 0
M  V30 45 H -4.0876 -1.7225 -2.3997 0
M  V30 46 H -4.5724 -1.5554 -4.4953 0
M  V30 47 H -5.4327 0.8261 -3.559 0
M  V30 48 H -1.8118 -0.2319 -6.79 0
M  V30 49 H -5.1128 2.2287 -5.5632 0
M  V30 50 H -3.4877 1.5405 -7.3172 0
M  V30 END ATOM
M  V30 BEGIN BOND
M  V30 1 1 1 2
M  V30 2 2 2 3
M  V30 3 1 2 4
M  V30 4 1 3 5
M  V30 5 2 4 6
M  V30 6 1 5 7
M  V30 7 2 5 8
M  V30 8 1 7 9
M  V30 9 1 7 10
M  V30 10 1 9 11
M  V30 11 1 10 12
M  V30 12 1 11 13
M  V30 13 1 13 14
M  V30 14 1 14 15
M  V30 15 1 15 16
M  V30 16 1 16 17
M  V30 17 1 17 18
M  V30 18 1 17 19
M  V30 19 1 18 20
M  V30 20 2 19 21
M  V30 21 1 19 22
M  V30 22 1 20 23
M  V30 23 1 22 24
M  V30 24 2 23 25
M  V30 25 2 24 26
M  V30 26 1 6 8
M  V30 27 1 12 13
M  V30 28 1 20 22
M  V30 29 1 25 26
M  V30 30 1 3 27
M  V30 31 1 4 28
M  V30 32 1 6 29
M  V30 33 1 8 30
M  V30 34 1 9 31
M  V30 35 1 9 32
M  V30 36 1 10 33
M  V30 37 1 10 34
M  V30 38 1 11 35
M  V30 39 1 11 36
M  V30 40 1 12 37
M  V30 41 1 12 38
M  V30 42 1 14 39
M  V30 43 1 14 40
M  V30 44 1 15 41
M  V30 45 1 15 42
M  V30 46 1 16 43
M  V30 47 1 16 44
M  V30 48 1 18 45
M  V30 49 1 20 46
M  V30 50 1 23 47
M  V30 51 1 24 48
M  V30 52 1 25 49
M  V30 53 1 26 50
M  V30 END BOND
M  V30 BEGIN COLLECTION
M  V30 MDLV30/STEABS ATOMS=(1 20)
M  V30 END COLLECTION
M  V30 END CTAB
M  END
>  <NO.>
6755

>  <Name>


>  <SMILES>
O=C1N(CCCN2CCN(c3cccc(Cl)c3)CC2)N[C@H]2C=CC=CN12

>  <logBB>


>  <Class>
1

>  <MW>
373.17

>  <nHBAcc>
4

>  <nHBDon>
1

>  <SLogP>
2.5

>  <TopoPSA>
42.06

>  <MMFF94 Energy>
99.002

$$$$
ON1CC(NCC2CC2)=Nc2ccc(Cl)cc2[C@@H]1c1ccccc1
Actelion Java MolfileCreator 2.0

  0  0  0  0  0  0              0 V3000
M  V30 BEGIN CTAB
M  V30 COUNTS 44 47 0 0 0
M  V30 BEGIN ATOM
M  V30 1 Cl -5.2574 0.6459 -1.9387 0
M  V30 2 C -3.788 0.7075 -1.044 0
M  V30 3 C -2.6404 0.0995 -1.5562 0
M  V30 4 C -3.7561 1.3658 0.1802 0
M  V30 5 C -1.4303 0.14 -0.8429 0
M  V30 6 C -2.5654 1.4105 0.9027 0
M  V30 7 C -1.4083 0.7945 0.4135 0
M  V30 8 C -0.1313 -0.4992 -1.3358 0 CFG=1
M  V30 9 N -0.2435 0.8906 1.1969 0
M  V30 10 N 0.3129 -1.6981 -0.5522 0
M  V30 11 C 0.034 -0.6637 -2.8589 0
M  V30 12 C 0.476 -0.177 1.4208 0
M  V30 13 O -0.4962 -2.8478 -0.9372 0
M  V30 14 C 0.0584 -1.5675 0.8991 0
M  V30 15 C 0.9012 0.203 -3.5528 0
M  V30 16 C -0.6489 -1.6375 -3.6085 0
M  V30 17 N 1.6579 -0.104 2.1234 0
M  V30 18 C 1.0823 0.094 -4.9339 0
M  V30 19 C -0.4686 -1.746 -4.9903 0
M  V30 20 C 2.1751 1.0978 2.7297 0
M  V30 21 C 0.3981 -0.8816 -5.6519 0
M  V30 22 C 1.6115 1.2332 4.1096 0
M  V30 23 C 2.1614 0.4205 5.2556 0
M  V30 24 C 2.404 1.904 5.2032 0
M  V30 25 H -2.706 -0.3944 -2.5192 0
M  V30 26 H -4.6466 1.845 0.5764 0
M  V30 27 H -2.53 1.9262 1.859 0
M  V30 28 H 0.6387 0.2526 -1.1074 0
M  V30 29 H 0.1716 -3.3998 -1.3884 0
M  V30 30 H 0.6406 -2.3335 1.424 0
M  V30 31 H -0.9943 -1.7406 1.1579 0
M  V30 32 H 1.4477 0.9781 -3.0182 0
M  V30 33 H -1.3493 -2.3154 -3.1277 0
M  V30 34 H 2.2021 -0.9453 2.262 0
M  V30 35 H 1.757 0.7742 -5.447 0
M  V30 36 H -1.0117 -2.5033 -5.5497 0
M  V30 37 H 1.9397 1.9858 2.1327 0
M  V30 38 H 3.2683 1.0271 2.7661 0
M  V30 39 H 0.5364 -0.9648 -6.7264 0
M  V30 40 H 0.5422 1.4176 4.0854 0
M  V30 41 H 3.0022 -0.2377 5.0717 0
M  V30 42 H 1.4566 0.0453 5.9892 0
M  V30 43 H 3.409 2.247 4.9861 0
M  V30 44 H 1.865 2.5318 5.9042 0
M  V30 END ATOM
M  V30 BEGIN BOND
M  V30 1 1 1 2
M  V30 2 2 2 3
M  V30 3 1 2 4
M  V30 4 1 3 5
M  V30 5 2 4 6
M  V30 6 2 5 7
M  V30 7 1 5 8
M  V30 8 1 7 9
M  V30 9 1 8 10
M  V30 10 1 8 11
M  V30 11 2 9 12
M  V30 12 1 10 13
M  V30 13 1 10 14
M  V30 14 2 11 15
M  V30 15 1 11 16
M  V30 16 1 12 17
M  V30 17 1 15 18
M  V30 18 2 16 19
M  V30 19 1 17 20
M  V30 20 2 18 21
M  V30 21 1 20 22
M  V30 22 1 22 23
M  V30 23 1 22 24
M  V30 24 1 6 7
M  V30 25 1 12 14
M  V30 26 1 19 21
M  V30 27 1 23 24
M  V30 28 1 3 25
M  V30 29 1 4 26
M  V30 30 1 6 27
M  V30 31 1 8 28
M  V30 32 1 13 29
M  V30 33 1 14 30
M  V30 34 1 14 31
M  V30 35 1 15 32
M  V30 36 1 16 33
M  V30 37 1 17 34
M  V30 38 1 18 35
M  V30 39 1 19 36
M  V30 40 1 20 37
M  V30 41 1 20 38
M  V30 42 1 21 39
M  V30 43 1 22 40
M  V30 44 1 23 41
M  V30 45 1 23 42
M  V30 46 1 24 43
M  V30 47 1 24 44
M  V30 END BOND
M  V30 BEGIN COLLECTION
M  V30 MDLV30/STEABS ATOMS=(1 8)
M  V30 END COLLECTION
M  V30 END CTAB
M  END
>  <NO.>
6775

>  <Name>


>  <SMILES>
ON1CC(NCC2CC2)=Nc2ccc(Cl)cc2[C@@H]1c1ccccc1

>  <logBB>


>  <Class>
1

>  <MW>
341.13

>  <nHBAcc>
4

>  <nHBDon>
2

>  <SLogP>
4.16

>  <TopoPSA>
47.86

>  <MMFF94 Energy>
101.12

$$$$
O[C@]1(c2ccc(Cl)cc2)c2ccccc2[C@@H]2NCCN21
Actelion Java MolfileCreator 2.0

  0  0  0  0  0  0              0 V3000
M  V30 BEGIN CTAB
M  V30 COUNTS 35 38 0 0 0
M  V30 BEGIN ATOM
M  V30 1 Cl 5.3839 -2.6892 0.4071 0
M  V30 2 C 3.8676 -1.8855 0.5233 0
M  V30 3 C 3.8181 -0.5521 0.9138 0
M  V30 4 C 2.6944 -2.5735 0.2315 0
M  V30 5 C 2.5837 0.0973 1.0084 0
M  V30 6 C 1.4598 -1.9215 0.3266 0
M  V30 7 C 1.3757 -0.5694 0.7113 0
M  V30 8 C 0.0344 0.1876 0.8232 0 CFG=2
M  V30 9 O 0.0527 0.8612 2.074 0
M  V30 10 N -1.1328 -0.7291 0.7405 0
M  V30 11 C -0.1542 1.1772 -0.3035 0
M  V30 12 C -1.6282 -0.6236 -0.6567 0 CFG=2
M  V30 13 C -2.2851 -0.2839 1.5375 0
M  V30 14 C -1.1259 0.6865 -1.1791 0
M  V30 15 C 0.4568 2.4004 -0.5406 0
M  V30 16 N -3.0839 -0.7035 -0.6159 0
M  V30 17 C -3.4323 -0.9272 0.7866 0
M  V30 18 C -1.4861 1.384 -2.3215 0
M  V30 19 C 0.0984 3.1147 -1.6865 0
M  V30 20 C -0.8637 2.6078 -2.5732 0
M  V30 21 H 4.7309 -0.0108 1.147 0
M  V30 22 H 2.729 -3.6173 -0.0687 0
M  V30 23 H 2.5661 1.1392 1.3244 0
M  V30 24 H 0.5628 -2.4934 0.1011 0
M  V30 25 H 0.1838 0.1476 2.7187 0
M  V30 26 H -1.2111 -1.4398 -1.2584 0
M  V30 27 H -2.2237 -0.6464 2.5681 0
M  V30 28 H -2.4145 0.8067 1.5482 0
M  V30 29 H 1.1893 2.8024 0.151 0
M  V30 30 H -3.3916 -1.4953 -1.173 0
M  V30 31 H -3.4855 -2.0022 0.9977 0
M  V30 32 H -4.396 -0.4732 1.0337 0
M  V30 33 H -2.2455 0.9981 -2.9935 0
M  V30 34 H 0.5644 4.0756 -1.8909 0
M  V30 35 H -1.1346 3.1795 -3.4573 0
M  V30 END ATOM
M  V30 BEGIN BOND
M  V30 1 1 1 2
M  V30 2 2 2 3
M  V30 3 1 2 4
M  V30 4 1 3 5
M  V30 5 2 4 6
M  V30 6 2 5 7
M  V30 7 1 7 8
M  V30 8 1 8 9
M  V30 9 1 8 10
M  V30 10 1 8 11
M  V30 11 1 10 12
M  V30 12 1 10 13
M  V30 13 2 11 14
M  V30 14 1 11 15
M  V30 15 1 12 16
M  V30 16 1 13 17
M  V30 17 1 14 18
M  V30 18 2 15 19
M  V30 19 2 18 20
M  V30 20 1 6 7
M  V30 21 1 12 14
M  V30 22 1 16 17
M  V30 23 1 19 20
M  V30 24 1 3 21
M  V30 25 1 4 22
M  V30 26 1 5 23
M  V30 27 1 6 24
M  V30 28 1 9 25
M  V30 29 1 12 26
M  V30 30 1 13 27
M  V30 31 1 13 28
M  V30 32 1 15 29
M  V30 33 1 16 30
M  V30 34 1 17 31
M  V30 35 1 17 32
M  V30 36 1 18 33
M  V30 37 1 19 34
M  V30 38 1 20 35
M  V30 END BOND
M  V30 BEGIN COLLECTION
M  V30 MDLV30/STEABS ATOMS=(2 8 12)
M  V30 END COLLECTION
M  V30 END CTAB
M  END
>  <NO.>
6782

>  <Name>


>  <SMILES>
O[C@]1(c2ccc(Cl)cc2)c2ccccc2[C@@H]2NCCN21

>  <logBB>


>  <Class>
1

>  <MW>
286.09

>  <nHBAcc>
3

>  <nHBDon>
2

>  <SLogP>
2.45

>  <TopoPSA>
35.5

>  <MMFF94 Energy>
-7.1495

$$$$
c1ccc([C@@H]2CN3CCS[C@H]3N2)cc1
Actelion Java MolfileCreator 2.0

  0  0  0  0  0  0              0 V3000
M  V30 BEGIN CTAB
M  V30 COUNTS 28 30 0 0 0
M  V30 BEGIN ATOM
M  V30 1 S 3.1802 -0.9777 -0.9777 0
M  V30 2 C 1.9303 -1.416 0.2591 0 CFG=2
M  V30 3 C 2.1756 -1.5682 -2.3515 0
M  V30 4 N 0.8217 -2.1256 -0.3796 0
M  V30 5 N 1.3869 -0.2181 0.8628 0
M  V30 6 C 1.2643 -2.5946 -1.6959 0
M  V30 7 C -0.309 -1.184 -0.4157 0
M  V30 8 C 0.2627 0.1699 0.0076 0 CFG=1
M  V30 9 C -0.7394 1.0648 0.6978 0
M  V30 10 C -1.1413 0.8357 2.0236 0
M  V30 11 C -1.3174 2.1371 2.0E-4 0
M  V30 12 C -2.0867 1.6598 2.6368 0
M  V30 13 C -2.2632 2.9611 0.6145 0
M  V30 14 C -2.6471 2.7224 1.9322 0
M  V30 15 H 2.4028 -2.0447 1.0197 0
M  V30 16 H 2.7981 -2.0119 -3.1327 0
M  V30 17 H 1.6071 -0.735 -2.7754 0
M  V30 18 H 2.102 0.5027 0.8479 0
M  V30 19 H 0.4191 -2.8485 -2.3464 0
M  V30 20 H 1.8176 -3.5332 -1.5545 0
M  V30 21 H -1.0626 -1.544 0.2956 0
M  V30 22 H -0.7972 -1.1223 -1.3956 0
M  V30 23 H 0.6593 0.6922 -0.8737 0
M  V30 24 H -0.7119 0.0091 2.5872 0
M  V30 25 H -1.0337 2.3418 -1.0296 0
M  V30 26 H -2.3832 1.4708 3.6652 0
M  V30 27 H -2.7003 3.7905 0.0645 0
M  V30 28 H -3.382 3.3643 2.4105 0
M  V30 END ATOM
M  V30 BEGIN BOND
M  V30 1 1 1 2
M  V30 2 1 1 3
M  V30 3 1 2 4
M  V30 4 1 2 5
M  V30 5 1 3 6
M  V30 6 1 4 7
M  V30 7 1 5 8
M  V30 8 1 8 9
M  V30 9 2 9 10
M  V30 10 1 9 11
M  V30 11 1 10 12
M  V30 12 2 11 13
M  V30 13 2 12 14
M  V30 14 1 4 6
M  V30 15 1 7 8
M  V30 16 1 13 14
M  V30 17 1 2 15
M  V30 18 1 3 16
M  V30 19 1 3 17
M  V30 20 1 5 18
M  V30 21 1 6 19
M  V30 22 1 6 20
M  V30 23 1 7 21
M  V30 24 1 7 22
M  V30 25 1 8 23
M  V30 26 1 10 24
M  V30 27 1 11 25
M  V30 28 1 12 26
M  V30 29 1 13 27
M  V30 30 1 14 28
M  V30 END BOND
M  V30 BEGIN COLLECTION
M  V30 MDLV30/STEABS ATOMS=(2 2 8)
M  V30 END COLLECTION
M  V30 END CTAB
M  END
>  <NO.>
6790

>  <Name>


>  <SMILES>
c1ccc([C@@H]2CN3CCS[C@H]3N2)cc1

>  <logBB>


>  <Class>
1

>  <MW>
206.09

>  <nHBAcc>
3

>  <nHBDon>
1

>  <SLogP>
1.66

>  <TopoPSA>
15.27

>  <MMFF94 Energy>
-11.646

$$$$
c1ccc([C@@H]2CN[C@H]3NCCN32)cc1
Actelion Java MolfileCreator 2.0

  0  0  0  0  0  0              0 V3000
M  V30 BEGIN CTAB
M  V30 COUNTS 29 31 0 0 0
M  V30 BEGIN ATOM
M  V30 1 N -1.0324 -0.0793 -0.4764 0
M  V30 2 C -1.4447 0.3674 -1.7985 0 CFG=1
M  V30 3 C 0.4412 -0.114 -0.5067 0 CFG=2
M  V30 4 C -1.6268 -1.4074 -0.2813 0
M  V30 5 N -0.2738 0.6885 -2.5668 0
M  V30 6 N -2.1119 -0.7317 -2.4366 0
M  V30 7 C 1.0934 0.1746 0.8288 0
M  V30 8 C 0.7533 0.9509 -1.5582 0
M  V30 9 C -2.7272 -1.4541 -1.3292 0
M  V30 10 C 0.5467 1.0915 1.7409 0
M  V30 11 C 2.301 -0.4594 1.1618 0
M  V30 12 C 1.183 1.358 2.9549 0
M  V30 13 C 2.9372 -0.1921 2.3759 0
M  V30 14 C 2.3777 0.716 3.2721 0
M  V30 15 H -2.1076 1.2355 -1.6918 0
M  V30 16 H 0.802 -1.0807 -0.8884 0
M  V30 17 H -2.0299 -1.51 0.7309 0
M  V30 18 H -0.9207 -2.2288 -0.4549 0
M  V30 19 H -0.4463 1.5127 -3.1301 0
M  V30 20 H -2.8042 -0.3835 -3.0884 0
M  V30 21 H 0.6549 1.9717 -1.1662 0
M  V30 22 H 1.7577 0.836 -1.9776 0
M  V30 23 H -3.6313 -0.9388 -0.982 0
M  V30 24 H -2.9872 -2.4784 -1.6103 0
M  V30 25 H -0.3865 1.6007 1.5094 0
M  V30 26 H 2.7552 -1.17 0.4743 0
M  V30 27 H 0.7437 2.0662 3.6524 0
M  V30 28 H 3.8697 -0.6932 2.6217 0
M  V30 29 H 2.8721 0.9229 4.2174 0
M  V30 END ATOM
M  V30 BEGIN BOND
M  V30 1 1 1 2
M  V30 2 1 1 3
M  V30 3 1 1 4
M  V30 4 1 2 5
M  V30 5 1 2 6
M  V30 6 1 3 7
M  V30 7 1 3 8
M  V30 8 1 4 9
M  V30 9 2 7 10
M  V30 10 1 7 11
M  V30 11 1 10 12
M  V30 12 2 11 13
M  V30 13 2 12 14
M  V30 14 1 5 8
M  V30 15 1 6 9
M  V30 16 1 13 14
M  V30 17 1 2 15
M  V30 18 1 3 16
M  V30 19 1 4 17
M  V30 20 1 4 18
M  V30 21 1 5 19
M  V30 22 1 6 20
M  V30 23 1 8 21
M  V30 24 1 8 22
M  V30 25 1 9 23
M  V30 26 1 9 24
M  V30 27 1 10 25
M  V30 28 1 11 26
M  V30 29 1 12 27
M  V30 30 1 13 28
M  V30 31 1 14 29
M  V30 END BOND
M  V30 BEGIN COLLECTION
M  V30 MDLV30/STEABS ATOMS=(2 2 3)
M  V30 END COLLECTION
M  V30 END CTAB
M  END
>  <NO.>
6791

>  <Name>


>  <SMILES>
c1ccc([C@@H]2CN[C@H]3NCCN32)cc1

>  <logBB>


>  <Class>
1

>  <MW>
189.13

>  <nHBAcc>
3

>  <nHBDon>
2

>  <SLogP>
0.52

>  <TopoPSA>
27.3

>  <MMFF94 Energy>
-58.576

$$$$
c1ccc2c(c1)Sc1ccccc1N2C[C@H]1CN2CCC1CC2
Actelion Java MolfileCreator 2.0

  0  0  0  0  0  0              0 V3000
M  V30 BEGIN CTAB
M  V30 COUNTS 45 49 0 0 0
M  V30 BEGIN ATOM
M  V30 1 S 0.0 1.5512 -3.1043 0
M  V30 2 C -1.3928 1.6732 -1.9998 0
M  V30 3 C 1.367 1.8453 -1.9997 0
M  V30 4 C -1.262 1.6444 -0.5969 0
M  V30 5 C -2.6592 1.7919 -2.5997 0
M  V30 6 C 1.2439 1.7888 -0.5969 0
M  V30 7 C 2.6101 2.1147 -2.5993 0
M  V30 8 N 0.003 1.4913 0.0269 0
M  V30 9 C -2.4387 1.8225 0.1593 0
M  V30 10 C -3.8072 1.9233 -1.8239 0
M  V30 11 C 2.401 2.063 0.1616 0
M  V30 12 C 3.7393 2.3588 -1.8232 0
M  V30 13 C 0.0522 0.6806 1.269 0
M  V30 14 C -3.695 1.9514 -0.4418 0
M  V30 15 C 3.6326 2.3401 -0.4403 0
M  V30 16 C 0.6344 -0.7332 1.0407 0 CFG=2
M  V30 17 C -0.1729 -1.6253 0.0641 0
M  V30 18 C 0.7575 -1.4831 2.3899 0
M  V30 19 C 0.6623 -2.8983 -0.1727 0
M  V30 20 C -1.4855 -2.0732 0.7271 0
M  V30 21 N 0.2821 -2.8816 2.2958 0
M  V30 22 C 0.9808 -3.5559 1.1793 0
M  V30 23 C -1.1688 -2.8644 2.006 0
M  V30 24 H -2.7543 1.7945 -3.6836 0
M  V30 25 H 2.7013 2.1421 -3.6831 0
M  V30 26 H -2.3983 1.9031 1.2417 0
M  V30 27 H -4.7793 2.0233 -2.2989 0
M  V30 28 H 2.3643 2.0904 1.246 0
M  V30 29 H 4.6928 2.5726 -2.2982 0
M  V30 30 H 0.6414 1.2053 2.0307 0
M  V30 31 H -0.9284 0.5714 1.7402 0
M  V30 32 H -4.5803 2.0852 0.1745 0
M  V30 33 H 4.5035 2.5473 0.1763 0
M  V30 34 H 1.6477 -0.6312 0.6305 0
M  V30 35 H -0.3649 -1.1269 -0.8894 0
M  V30 36 H 0.2082 -0.9714 3.1908 0
M  V30 37 H 1.8066 -1.4787 2.7129 0
M  V30 38 H 0.1079 -3.5976 -0.8101 0
M  V30 39 H 1.5928 -2.6505 -0.6969 0
M  V30 40 H -2.0562 -2.7049 0.0357 0
M  V30 41 H -2.1182 -1.2115 0.9625 0
M  V30 42 H 2.0632 -3.5417 1.3591 0
M  V30 43 H 0.7008 -4.6162 1.153 0
M  V30 44 H -1.5406 -3.8927 1.9147 0
M  V30 45 H -1.7113 -2.4309 2.8557 0
M  V30 END ATOM
M  V30 BEGIN BOND
M  V30 1 1 1 2
M  V30 2 1 1 3
M  V30 3 2 2 4
M  V30 4 1 2 5
M  V30 5 2 3 6
M  V30 6 1 3 7
M  V30 7 1 4 8
M  V30 8 1 4 9
M  V30 9 2 5 10
M  V30 10 1 6 11
M  V30 11 2 7 12
M  V30 12 1 8 13
M  V30 13 2 9 14
M  V30 14 2 11 15
M  V30 15 1 13 16
M  V30 16 1 16 17
M  V30 17 1 16 18
M  V30 18 1 17 19
M  V30 19 1 17 20
M  V30 20 1 18 21
M  V30 21 1 19 22
M  V30 22 1 20 23
M  V30 23 1 6 8
M  V30 24 1 10 14
M  V30 25 1 12 15
M  V30 26 1 21 22
M  V30 27 1 21 23
M  V30 28 1 5 24
M  V30 29 1 7 25
M  V30 30 1 9 26
M  V30 31 1 10 27
M  V30 32 1 11 28
M  V30 33 1 12 29
M  V30 34 1 13 30
M  V30 35 1 13 31
M  V30 36 1 14 32
M  V30 37 1 15 33
M  V30 38 1 16 34
M  V30 39 1 17 35
M  V30 40 1 18 36
M  V30 41 1 18 37
M  V30 42 1 19 38
M  V30 43 1 19 39
M  V30 44 1 20 40
M  V30 45 1 20 41
M  V30 46 1 22 42
M  V30 47 1 22 43
M  V30 48 1 23 44
M  V30 49 1 23 45
M  V30 END BOND
M  V30 BEGIN COLLECTION
M  V30 MDLV30/STEABS ATOMS=(1 16)
M  V30 END COLLECTION
M  V30 END CTAB
M  END
>  <NO.>
6796

>  <Name>
(r)-mequitazine

>  <SMILES>
c1ccc2c(c1)Sc1ccccc1N2C[C@H]1CN2CCC1CC2

>  <logBB>


>  <Class>
1

>  <MW>
322.15

>  <nHBAcc>
3

>  <nHBDon>
0

>  <SLogP>
4.63

>  <TopoPSA>
6.48

>  <MMFF94 Energy>
90.367

$$$$
C#Cc1cccc(Nc2ncnc3cc(OCCOC)c(OCCOC)cc23)c1
Actelion Java MolfileCreator 2.0

  0  0  0  0  0  0              0 V3000
M  V30 BEGIN CTAB
M  V30 COUNTS 52 54 0 0 0
M  V30 BEGIN ATOM
M  V30 1 O -1.5839 2.9317 0.3166 0
M  V30 2 C -1.406 1.6448 -0.1257 0
M  V30 3 C -2.4848 3.7731 -0.4095 0
M  V30 4 C -0.537 0.8455 0.6325 0
M  V30 5 C -2.0232 1.1043 -1.2589 0
M  V30 6 C -2.5299 5.143 0.2683 0
M  V30 7 O 0.0411 1.444 1.7216 0
M  V30 8 C -0.3174 -0.4767 0.2419 0
M  V30 9 C -1.8121 -0.2087 -1.6584 0
M  V30 10 O -1.3655 5.894 -0.0905 0
M  V30 11 C 0.9146 0.6629 2.541 0
M  V30 12 C -0.9617 -1.0223 -0.8999 0
M  V30 13 N -2.4354 -0.6393 -2.758 0
M  V30 14 C -1.3081 7.1356 0.5972 0
M  V30 15 C 1.4364 1.5432 3.6775 0
M  V30 16 C -0.8132 -2.3456 -1.3669 0
M  V30 17 C -2.201 -1.9022 -3.1261 0
M  V30 18 O 2.4938 2.3747 3.1893 0
M  V30 19 N -1.4207 -2.7757 -2.4875 0
M  V30 20 N -0.0095 -3.2528 -0.6404 0
M  V30 21 C 2.9333 3.2994 4.1741 0
M  V30 22 C 0.6756 -4.4077 -1.0602 0
M  V30 23 C 0.9675 -4.6776 -2.403 0
M  V30 24 C 1.1402 -5.3112 -0.0905 0
M  V30 25 C 1.6777 -5.8264 -2.7707 0
M  V30 26 C 1.8494 -6.4602 -0.4513 0
M  V30 27 C 1.96 -6.0828 -4.1502 0
M  V30 28 C 2.116 -6.7191 -1.7933 0
M  V30 29 C 2.1966 -6.2965 -5.3079 0
M  V30 30 H -3.4887 3.3343 -0.3792 0
M  V30 31 H -2.1398 3.8857 -1.4437 0
M  V30 32 H -2.6897 1.7014 -1.8732 0
M  V30 33 H -3.4126 5.6926 -0.0764 0
M  V30 34 H -2.5696 5.0277 1.3576 0
M  V30 35 H 0.3716 -1.102 0.7981 0
M  V30 36 H 1.7572 0.2935 1.9453 0
M  V30 37 H 0.3488 -0.1704 2.9728 0
M  V30 38 H -0.4111 7.669 0.2715 0
M  V30 39 H -1.2441 6.9725 1.6774 0
M  V30 40 H -2.1843 7.7466 0.3594 0
M  V30 41 H 0.63 2.1698 4.0757 0
M  V30 42 H 1.8396 0.91 4.4752 0
M  V30 43 H -2.6937 -2.2516 -4.0268 0
M  V30 44 H -0.1739 -3.2041 0.3551 0
M  V30 45 H 3.7501 3.8907 3.7517 0
M  V30 46 H 3.304 2.7712 5.0578 0
M  V30 47 H 2.1204 3.9769 4.4532 0
M  V30 48 H 0.6497 -3.9873 -3.1798 0
M  V30 49 H 0.9484 -5.1318 0.9643 0
M  V30 50 H 2.1937 -7.1504 0.3141 0
M  V30 51 H 2.6683 -7.6132 -2.0714 0
M  V30 52 H 2.4046 -6.4829 -6.3355 0
M  V30 END ATOM
M  V30 BEGIN BOND
M  V30 1 1 1 2
M  V30 2 1 1 3
M  V30 3 1 2 4
M  V30 4 2 2 5
M  V30 5 1 3 6
M  V30 6 1 4 7
M  V30 7 2 4 8
M  V30 8 1 5 9
M  V30 9 1 6 10
M  V30 10 1 7 11
M  V30 11 1 8 12
M  V30 12 2 9 13
M  V30 13 1 10 14
M  V30 14 1 11 15
M  V30 15 2 12 16
M  V30 16 1 13 17
M  V30 17 1 15 18
M  V30 18 1 16 19
M  V30 19 1 16 20
M  V30 20 1 18 21
M  V30 21 1 20 22
M  V30 22 2 22 23
M  V30 23 1 22 24
M  V30 24 1 23 25
M  V30 25 2 24 26
M  V30 26 1 25 27
M  V30 27 2 25 28
M  V30 28 3 27 29
M  V30 29 1 9 12
M  V30 30 2 17 19
M  V30 31 1 26 28
M  V30 32 1 3 30
M  V30 33 1 3 31
M  V30 34 1 5 32
M  V30 35 1 6 33
M  V30 36 1 6 34
M  V30 37 1 8 35
M  V30 38 1 11 36
M  V30 39 1 11 37
M  V30 40 1 14 38
M  V30 41 1 14 39
M  V30 42 1 14 40
M  V30 43 1 15 41
M  V30 44 1 15 42
M  V30 45 1 17 43
M  V30 46 1 20 44
M  V30 47 1 21 45
M  V30 48 1 21 46
M  V30 49 1 21 47
M  V30 50 1 23 48
M  V30 51 1 24 49
M  V30 52 1 26 50
M  V30 53 1 28 51
M  V30 54 1 29 52
M  V30 END BOND
M  V30 END CTAB
M  END
>  <NO.>
6797

>  <Name>
tarceva, erlotinib

>  <SMILES>
C#Cc1cccc(Nc2ncnc3cc(OCCOC)c(OCCOC)cc23)c1

>  <logBB>


>  <Class>
1

>  <MW>
393.17

>  <nHBAcc>
7

>  <nHBDon>
1

>  <SLogP>
3.41

>  <TopoPSA>
74.73

>  <MMFF94 Energy>
61.465

$$$$
CC1=c2ccc(N(C)c3ccnc(Cc4ccc(C)c(S(N)(=O)=O)c4)n3)cc2=NC1C
Actelion Java MolfileCreator 2.0

  0  0  0  0  0  0              0 V3000
M  V30 BEGIN CTAB
M  V30 COUNTS 56 59 0 0 0
M  V30 BEGIN ATOM
M  V30 1 S 3.1457 4.1152 -1.0477 0
M  V30 2 O 3.4274 3.7615 -2.4187 0
M  V30 3 O 3.5769 3.2864 0.0561 0
M  V30 4 N 3.8807 5.6036 -0.7821 0
M  V30 5 C 1.4208 4.5055 -0.8623 0
M  V30 6 C 0.7001 5.2074 -1.8467 0
M  V30 7 C 0.7787 4.0525 0.3016 0
M  V30 8 C -0.6727 5.4239 -1.6355 0
M  V30 9 C 1.309 5.6974 -3.1302 0
M  V30 10 C -0.5877 4.289 0.5075 0
M  V30 11 C -1.3086 4.9715 -0.4761 0
M  V30 12 C -1.2756 3.7672 1.7501 0
M  V30 13 C -1.7053 2.3246 1.6369 0
M  V30 14 N -0.7395 1.3832 1.6714 0
M  V30 15 N -3.0175 2.0663 1.5095 0
M  V30 16 C -1.0894 0.087 1.5339 0
M  V30 17 C -3.3471 0.7705 1.4083 0
M  V30 18 N -0.0726 -0.9079 1.5436 0
M  V30 19 C -2.4276 -0.2539 1.4183 0
M  V30 20 C -0.2376 -2.2353 1.1416 0
M  V30 21 C 1.2521 -0.369 1.872 0
M  V30 22 C -0.7677 -2.5926 -0.0494 0
M  V30 23 C 0.2234 -3.2727 2.0756 0
M  V30 24 C -0.9019 -4.0157 -0.4184 0
M  V30 25 C 0.1435 -4.5862 1.8072 0
M  V30 26 N -1.413 -4.4683 -1.5227 0
M  V30 27 C -0.4141 -4.9948 0.5605 0
M  V30 28 C -1.297 -5.9453 -1.3792 0 CFG=2
M  V30 29 C -0.6577 -6.1625 -0.0332 0
M  V30 30 C -0.4746 -6.4819 -2.5434 0
M  V30 31 C -0.407 -7.5328 0.4878 0
M  V30 32 H 4.3906 5.8887 -1.6181 0
M  V30 33 H 4.4594 5.5519 0.0565 0
M  V30 34 H 1.3365 3.4923 1.0516 0
M  V30 35 H -1.2675 5.9444 -2.3847 0
M  V30 36 H 2.2455 6.2311 -2.9473 0
M  V30 37 H 1.4821 4.8601 -3.8126 0
M  V30 38 H 0.6448 6.4058 -3.6383 0
M  V30 39 H -2.3764 5.1458 -0.3537 0
M  V30 40 H -0.6022 3.8704 2.6106 0
M  V30 41 H -2.1464 4.3944 1.9804 0
M  V30 42 H -4.4097 0.5652 1.3166 0
M  V30 43 H -2.7655 -1.2784 1.3499 0
M  V30 44 H 1.2534 0.0968 2.8646 0
M  V30 45 H 2.0161 -1.155 1.8867 0
M  V30 46 H 1.5762 0.3648 1.1241 0
M  V30 47 H -1.0962 -1.87 -0.7855 0
M  V30 48 H 0.6285 -2.9445 3.0289 0
M  V30 49 H 0.4855 -5.3291 2.5175 0
M  V30 50 H -2.3036 -6.3799 -1.3948 0
M  V30 51 H -0.9418 -6.2159 -3.498 0
M  V30 52 H -0.3927 -7.5728 -2.5007 0
M  V30 53 H 0.5386 -6.064 -2.547 0
M  V30 54 H 0.3218 -8.0559 -0.1384 0
M  V30 55 H -0.0167 -7.5187 1.5101 0
M  V30 56 H -1.3363 -8.1112 0.4959 0
M  V30 END ATOM
M  V30 BEGIN BOND
M  V30 1 2 1 2
M  V30 2 2 1 3
M  V30 3 1 1 4
M  V30 4 1 1 5
M  V30 5 2 5 6
M  V30 6 1 5 7
M  V30 7 1 6 8
M  V30 8 1 6 9
M  V30 9 2 7 10
M  V30 10 2 8 11
M  V30 11 1 10 12
M  V30 12 1 12 13
M  V30 13 2 13 14
M  V30 14 1 13 15
M  V30 15 1 14 16
M  V30 16 2 15 17
M  V30 17 1 16 18
M  V30 18 2 16 19
M  V30 19 1 18 20
M  V30 20 1 18 21
M  V30 21 2 20 22
M  V30 22 1 20 23
M  V30 23 1 22 24
M  V30 24 2 23 25
M  V30 25 2 24 26
M  V30 26 1 24 27
M  V30 27 1 26 28
M  V30 28 2 27 29
M  V30 29 1 28 30
M  V30 30 1 29 31
M  V30 31 1 10 11
M  V30 32 1 17 19
M  V30 33 1 25 27
M  V30 34 1 28 29
M  V30 35 1 4 32
M  V30 36 1 4 33
M  V30 37 1 7 34
M  V30 38 1 8 35
M  V30 39 1 9 36
M  V30 40 1 9 37
M  V30 41 1 9 38
M  V30 42 1 11 39
M  V30 43 1 12 40
M  V30 44 1 12 41
M  V30 45 1 17 42
M  V30 46 1 19 43
M  V30 47 1 21 44
M  V30 48 1 21 45
M  V30 49 1 21 46
M  V30 50 1 22 47
M  V30 51 1 23 48
M  V30 52 1 25 49
M  V30 53 1 28 50
M  V30 54 1 30 51
M  V30 55 1 30 52
M  V30 56 1 30 53
M  V30 57 1 31 54
M  V30 58 1 31 55
M  V30 59 1 31 56
M  V30 END BOND
M  V30 BEGIN COLLECTION
M  V30 MDLV30/STERAC1 ATOMS=(1 28)
M  V30 END COLLECTION
M  V30 END CTAB
M  END
>  <NO.>
6798

>  <Name>
pazopanib

>  <SMILES>
CC1=c2ccc(N(C)c3ccnc(Cc4ccc(C)c(S(N)(=O)=O)c4)n3)cc2=NC1C

>  <logBB>


>  <Class>
1

>  <MW>
435.17

>  <nHBAcc>
6

>  <nHBDon>
1

>  <SLogP>
1.98

>  <TopoPSA>
101.54

>  <MMFF94 Energy>
-49.267

$$$$
CCN(CC)CCNC(=O)c1c(C)[nH]c(/C=C2\C(=O)Nc3ccc(F)cc32)c1C
Actelion Java MolfileCreator 2.0

  0  0  0  0  0  0              0 V3000
M  V30 BEGIN CTAB
M  V30 COUNTS 56 58 0 0 0
M  V30 BEGIN ATOM
M  V30 1 F -0.9471 -7.3586 5.1387 0
M  V30 2 C -0.5656 -6.1193 5.4752 0
M  V30 3 C -0.3474 -5.1797 4.4675 0
M  V30 4 C -0.3977 -5.8048 6.8316 0
M  V30 5 C 0.0455 -3.9079 4.8478 0
M  V30 6 C -0.0012 -4.5219 7.2123 0
M  V30 7 C 0.211 -3.6017 6.2036 0
M  V30 8 C 0.3632 -2.6752 4.0982 0
M  V30 9 N 0.607 -2.28 6.3585 0
M  V30 10 C 0.7278 -1.6395 5.1368 0
M  V30 11 C 0.3035 -2.6011 2.7579 0
M  V30 12 O 1.0649 -0.483 4.9661 0
M  V30 13 C 0.5702 -1.5011 1.8928 0
M  V30 14 N 1.0312 -0.2967 2.3577 0
M  V30 15 C 0.4632 -1.3792 0.5106 0
M  V30 16 C 1.259 0.5808 1.3253 0
M  V30 17 C 0.8851 -0.0499 0.1451 0
M  V30 18 C 0.0017 -2.4218 -0.4542 0
M  V30 19 C 1.8522 1.9155 1.6059 0
M  V30 20 C 0.9435 0.4923 -1.2166 0
M  V30 21 O 1.177 -0.2089 -2.1955 0
M  V30 22 N 0.6536 1.8341 -1.3119 0
M  V30 23 C 0.6694 2.543 -2.5767 0
M  V30 24 C -0.5945 2.2733 -3.4167 0
M  V30 25 N -0.6521 3.117 -4.6332 0
M  V30 26 C -1.1827 4.454 -4.3051 0
M  V30 27 C -1.4692 2.468 -5.6764 0
M  V30 28 C -0.7949 5.4957 -5.3502 0
M  V30 29 C -0.702 1.3602 -6.3928 0
M  V30 30 H -0.4876 -5.4627 3.4317 0
M  V30 31 H -0.5798 -6.5716 7.5794 0
M  V30 32 H 0.1322 -4.2672 8.2574 0
M  V30 33 H 0.7949 -1.818 7.2353 0
M  V30 34 H 0.0089 -3.506 2.2313 0
M  V30 35 H 1.2143 -0.0797 3.3328 0
M  V30 36 H -0.6434 -1.9834 -1.2224 0
M  V30 37 H -0.5781 -3.2069 0.0394 0
M  V30 38 H 0.862 -2.8881 -0.9444 0
M  V30 39 H 2.4236 1.9083 2.5403 0
M  V30 40 H 1.0653 2.6708 1.6967 0
M  V30 41 H 2.5368 2.2162 0.8068 0
M  V30 42 H 0.3678 2.324 -0.4773 0
M  V30 43 H 1.5623 2.2414 -3.1365 0
M  V30 44 H 0.7699 3.604 -2.3299 0
M  V30 45 H -0.5825 1.2097 -3.6793 0
M  V30 46 H -1.4974 2.4129 -2.8064 0
M  V30 47 H -2.2726 4.4286 -4.1798 0
M  V30 48 H -0.7706 4.8064 -3.3525 0
M  V30 49 H -2.4057 2.0758 -5.26 0
M  V30 50 H -1.7537 3.1903 -6.4493 0
M  V30 51 H -1.1188 6.4892 -5.0223 0
M  V30 52 H -1.2593 5.3044 -6.3215 0
M  V30 53 H 0.2911 5.5277 -5.4878 0
M  V30 54 H -1.3041 0.9655 -7.218 0
M  V30 55 H -0.463 0.5224 -5.732 0
M  V30 56 H 0.2334 1.7421 -6.8154 0
M  V30 END ATOM
M  V30 BEGIN BOND
M  V30 1 1 1 2
M  V30 2 2 2 3
M  V30 3 1 2 4
M  V30 4 1 3 5
M  V30 5 2 4 6
M  V30 6 2 5 7
M  V30 7 1 5 8
M  V30 8 1 7 9
M  V30 9 1 8 10
M  V30 10 2 8 11
M  V30 11 2 10 12
M  V30 12 1 11 13
M  V30 13 1 13 14
M  V30 14 2 13 15
M  V30 15 1 14 16
M  V30 16 1 15 17
M  V30 17 1 15 18
M  V30 18 1 16 19
M  V30 19 1 17 20
M  V30 20 2 20 21
M  V30 21 1 20 22
M  V30 22 1 22 23
M  V30 23 1 23 24
M  V30 24 1 24 25
M  V30 25 1 25 26
M  V30 26 1 25 27
M  V30 27 1 26 28
M  V30 28 1 27 29
M  V30 29 1 6 7
M  V30 30 1 9 10
M  V30 31 2 16 17
M  V30 32 1 3 30
M  V30 33 1 4 31
M  V30 34 1 6 32
M  V30 35 1 9 33
M  V30 36 1 11 34
M  V30 37 1 14 35
M  V30 38 1 18 36
M  V30 39 1 18 37
M  V30 40 1 18 38
M  V30 41 1 19 39
M  V30 42 1 19 40
M  V30 43 1 19 41
M  V30 44 1 22 42
M  V30 45 1 23 43
M  V30 46 1 23 44
M  V30 47 1 24 45
M  V30 48 1 24 46
M  V30 49 1 26 47
M  V30 50 1 26 48
M  V30 51 1 27 49
M  V30 52 1 27 50
M  V30 53 1 28 51
M  V30 54 1 28 52
M  V30 55 1 28 53
M  V30 56 1 29 54
M  V30 57 1 29 55
M  V30 58 1 29 56
M  V30 END BOND
M  V30 END CTAB
M  END
>  <NO.>
6801

>  <Name>
sunitinib

>  <SMILES>
CCN(CC)CCNC(=O)c1c(C)[nH]c(/C=C2\C(=O)Nc3ccc(F)cc32)c1C

>  <logBB>


>  <Class>
1

>  <MW>
398.21

>  <nHBAcc>
3

>  <nHBDon>
3

>  <SLogP>
3.33

>  <TopoPSA>
77.23

>  <MMFF94 Energy>
27.47

$$$$
CCN1CCN(Cc2ccc(-c3cc4c(NC(C)c5ccccc5)ncnc4[nH]3)cc2)CC1
Actelion Java MolfileCreator 2.0

  0  0  0  0  0  0              0 V3000
M  V30 BEGIN CTAB
M  V30 COUNTS 65 69 0 0 0
M  V30 BEGIN ATOM
M  V30 1 N -1.6687 3.5785 -4.933 0
M  V30 2 C -0.8238 3.1424 -3.9665 0
M  V30 3 C -2.997 3.441 -4.7482 0
M  V30 4 N 0.5371 3.2674 -4.1205 0
M  V30 5 C -1.391 2.5638 -2.8167 0
M  V30 6 N -3.6397 2.9075 -3.696 0
M  V30 7 C 1.1293 3.8516 -5.3078 0 CFG=2
M  V30 8 C -2.7707 2.487 -2.7661 0
M  V30 9 C -0.9145 1.9933 -1.6015 0
M  V30 10 C 2.5446 3.3006 -5.441 0
M  V30 11 C 1.0843 5.3808 -5.2328 0
M  V30 12 N -3.1227 1.8994 -1.5842 0
M  V30 13 C -2.003 1.5799 -0.8425 0
M  V30 14 C 3.6268 3.8187 -4.7106 0
M  V30 15 C 2.7752 2.1975 -6.281 0
M  V30 16 C -2.0664 0.9371 0.4751 0
M  V30 17 C 4.9047 3.2693 -4.8405 0
M  V30 18 C 4.0528 1.6491 -6.4093 0
M  V30 19 C -3.1367 0.1017 0.8262 0
M  V30 20 C -0.9852 1.0297 1.3614 0
M  V30 21 C 5.1177 2.1876 -5.6917 0
M  V30 22 C -3.1543 -0.5712 2.0541 0
M  V30 23 C -1.0006 0.3605 2.5897 0
M  V30 24 C -2.0867 -0.446 2.95 0
M  V30 25 C -2.1046 -1.1637 4.2836 0
M  V30 26 N -0.9638 -2.074 4.4696 0
M  V30 27 C -1.0483 -3.2435 3.5697 0
M  V30 28 C -0.9164 -2.5521 5.8656 0
M  V30 29 C 0.096 -4.2575 3.809 0
M  V30 30 C 0.2348 -3.5545 6.1017 0
M  V30 31 N 0.151 -4.7299 5.2087 0
M  V30 32 C 1.2918 -5.6258 5.448 0
M  V30 33 C 1.1523 -6.9673 4.7368 0
M  V30 34 H -3.6259 3.8088 -5.5533 0
M  V30 35 H 1.146 2.9142 -3.398 0
M  V30 36 H 0.5754 3.5467 -6.2061 0
M  V30 37 H 0.1243 1.8866 -1.3191 0
M  V30 38 H 1.6314 5.8319 -6.0679 0
M  V30 39 H 1.5117 5.7623 -4.2988 0
M  V30 40 H 0.0517 5.744 -5.278 0
M  V30 41 H -4.0801 1.7538 -1.3037 0
M  V30 42 H 3.4869 4.6523 -4.0268 0
M  V30 43 H 1.9517 1.7546 -6.8384 0
M  V30 44 H 5.7336 3.6844 -4.2729 0
M  V30 45 H 4.2139 0.7985 -7.0664 0
M  V30 46 H -3.9705 -0.0556 0.1475 0
M  V30 47 H -0.1189 1.6392 1.1173 0
M  V30 48 H 6.1119 1.7602 -5.7907 0
M  V30 49 H -4.0036 -1.2057 2.2972 0
M  V30 50 H -0.1517 0.4582 3.2637 0
M  V30 51 H -3.0547 -1.6983 4.4171 0
M  V30 52 H -2.0837 -0.3815 5.0548 0
M  V30 53 H -0.9871 -2.9197 2.5242 0
M  V30 54 H -2.0108 -3.7578 3.6967 0
M  V30 55 H -0.7664 -1.6989 6.5385 0
M  V30 56 H -1.8676 -3.0256 6.145 0
M  V30 57 H -0.0739 -5.1036 3.1343 0
M  V30 58 H 1.0495 -3.794 3.5219 0
M  V30 59 H 0.1852 -3.8859 7.1462 0
M  V30 60 H 1.1945 -3.0366 5.9682 0
M  V30 61 H 2.2385 -5.1516 5.16 0
M  V30 62 H 1.3569 -5.8405 6.5224 0
M  V30 63 H 1.9528 -7.6427 5.0564 0
M  V30 64 H 1.2261 -6.8634 3.6503 0
M  V30 65 H 0.1963 -7.4444 4.977 0
M  V30 END ATOM
M  V30 BEGIN BOND
M  V30 1 2 1 2
M  V30 2 1 1 3
M  V30 3 1 2 4
M  V30 4 1 2 5
M  V30 5 2 3 6
M  V30 6 1 4 7
M  V30 7 2 5 8
M  V30 8 1 5 9
M  V30 9 1 7 10
M  V30 10 1 7 11
M  V30 11 1 8 12
M  V30 12 2 9 13
M  V30 13 2 10 14
M  V30 14 1 10 15
M  V30 15 1 13 16
M  V30 16 1 14 17
M  V30 17 2 15 18
M  V30 18 2 16 19
M  V30 19 1 16 20
M  V30 20 2 17 21
M  V30 21 1 19 22
M  V30 22 2 20 23
M  V30 23 2 22 24
M  V30 24 1 24 25
M  V30 25 1 25 26
M  V30 26 1 26 27
M  V30 27 1 26 28
M  V30 28 1 27 29
M  V30 29 1 28 30
M  V30 30 1 29 31
M  V30 31 1 31 32
M  V30 32 1 32 33
M  V30 33 1 6 8
M  V30 34 1 12 13
M  V30 35 1 18 21
M  V30 36 1 23 24
M  V30 37 1 30 31
M  V30 38 1 3 34
M  V30 39 1 4 35
M  V30 40 1 7 36
M  V30 41 1 9 37
M  V30 42 1 11 38
M  V30 43 1 11 39
M  V30 44 1 11 40
M  V30 45 1 12 41
M  V30 46 1 14 42
M  V30 47 1 15 43
M  V30 48 1 17 44
M  V30 49 1 18 45
M  V30 50 1 19 46
M  V30 51 1 20 47
M  V30 52 1 21 48
M  V30 53 1 22 49
M  V30 54 1 23 50
M  V30 55 1 25 51
M  V30 56 1 25 52
M  V30 57 1 27 53
M  V30 58 1 27 54
M  V30 59 1 28 55
M  V30 60 1 28 56
M  V30 61 1 29 57
M  V30 62 1 29 58
M  V30 63 1 30 59
M  V30 64 1 30 60
M  V30 65 1 32 61
M  V30 66 1 32 62
M  V30 67 1 33 63
M  V30 68 1 33 64
M  V30 69 1 33 65
M  V30 END BOND
M  V30 BEGIN COLLECTION
M  V30 MDLV30/STERAC1 ATOMS=(1 7)
M  V30 END COLLECTION
M  V30 END CTAB
M  END
>  <NO.>
6802

>  <Name>
aee-788

>  <SMILES>
CCN1CCN(Cc2ccc(-c3cc4c(NC(C)c5ccccc5)ncnc4[nH]3)cc2)CC1

>  <logBB>


>  <Class>
1

>  <MW>
440.27

>  <nHBAcc>
5

>  <nHBDon>
2

>  <SLogP>
4.94

>  <TopoPSA>
60.08

>  <MMFF94 Energy>
78.547

$$$$
CN(C)CCOC(c1ccc(Cl)cc1)c1ccccn1
Actelion Java MolfileCreator 2.0

  0  0  0  0  0  0              0 V3000
M  V30 BEGIN CTAB
M  V30 COUNTS 39 40 0 0 0
M  V30 BEGIN ATOM
M  V30 1 Cl -4.6308 -1.7545 -3.5115 0
M  V30 2 C -3.3693 -0.9762 -2.6375 0
M  V30 3 C -2.6636 0.0704 -3.2252 0
M  V30 4 C -3.0631 -1.3947 -1.3448 0
M  V30 5 C -1.6394 0.7014 -2.515 0
M  V30 6 C -2.0394 -0.763 -0.6341 0
M  V30 7 C -1.3078 0.2879 -1.2128 0
M  V30 8 C -0.1935 1.0072 -0.4577 0 CFG=2
M  V30 9 O 0.3556 0.1625 0.5716 0
M  V30 10 C -0.6734 2.319 0.1577 0
M  V30 11 C 1.4914 -0.5791 0.1122 0
M  V30 12 N -0.402 3.464 -0.529 0
M  V30 13 C -1.3838 2.3289 1.3594 0
M  V30 14 C 1.9635 -1.5021 1.2457 0
M  V30 15 C -0.8406 4.6273 6.0E-4 0
M  V30 16 C -1.8224 3.5443 1.8777 0
M  V30 17 N 3.1877 -2.2626 0.9333 0
M  V30 18 C -1.5469 4.7176 1.1875 0
M  V30 19 C 2.9501 -3.2798 -0.0931 0
M  V30 20 C 3.7002 -2.9008 2.1494 0
M  V30 21 H -2.9071 0.4044 -4.2302 0
M  V30 22 H -3.6173 -2.2075 -0.8833 0
M  V30 23 H -1.1038 1.5295 -2.9778 0
M  V30 24 H -1.8153 -1.0959 0.3775 0
M  V30 25 H 0.605 1.2575 -1.1706 0
M  V30 26 H 2.2924 0.1188 -0.1583 0
M  V30 27 H 1.2061 -1.1608 -0.7702 0
M  V30 28 H -1.5893 1.4023 1.8862 0
M  V30 29 H 2.1458 -0.8623 2.1203 0
M  V30 30 H 1.1434 -2.1717 1.539 0
M  V30 31 H -0.6012 5.5168 -0.575 0
M  V30 32 H -2.3744 3.5728 2.8127 0
M  V30 33 H -1.8744 5.6795 1.5651 0
M  V30 34 H 2.6736 -2.8221 -1.0479 0
M  V30 35 H 2.1621 -3.9843 0.197 0
M  V30 36 H 3.8654 -3.851 -0.2866 0
M  V30 37 H 2.9827 -3.6101 2.5781 0
M  V30 38 H 3.9385 -2.1479 2.9092 0
M  V30 39 H 4.633 -3.4363 1.94 0
M  V30 END ATOM
M  V30 BEGIN BOND
M  V30 1 1 1 2
M  V30 2 2 2 3
M  V30 3 1 2 4
M  V30 4 1 3 5
M  V30 5 2 4 6
M  V30 6 2 5 7
M  V30 7 1 7 8
M  V30 8 1 8 9
M  V30 9 1 8 10
M  V30 10 1 9 11
M  V30 11 2 10 12
M  V30 12 1 10 13
M  V30 13 1 11 14
M  V30 14 1 12 15
M  V30 15 2 13 16
M  V30 16 1 14 17
M  V30 17 2 15 18
M  V30 18 1 17 19
M  V30 19 1 17 20
M  V30 20 1 6 7
M  V30 21 1 16 18
M  V30 22 1 3 21
M  V30 23 1 4 22
M  V30 24 1 5 23
M  V30 25 1 6 24
M  V30 26 1 8 25
M  V30 27 1 11 26
M  V30 28 1 11 27
M  V30 29 1 13 28
M  V30 30 1 14 29
M  V30 31 1 14 30
M  V30 32 1 15 31
M  V30 33 1 16 32
M  V30 34 1 18 33
M  V30 35 1 19 34
M  V30 36 1 19 35
M  V30 37 1 19 36
M  V30 38 1 20 37
M  V30 39 1 20 38
M  V30 40 1 20 39
M  V30 END BOND
M  V30 BEGIN COLLECTION
M  V30 MDLV30/STERAC1 ATOMS=(1 8)
M  V30 END COLLECTION
M  V30 END CTAB
M  END
>  <NO.>
6805

>  <Name>
carbinoxamine

>  <SMILES>
CN(C)CCOC(c1ccc(Cl)cc1)c1ccccn1

>  <logBB>


>  <Class>
1

>  <MW>
290.12

>  <nHBAcc>
3

>  <nHBDon>
0

>  <SLogP>
3.4

>  <TopoPSA>
25.36

>  <MMFF94 Energy>
98.739

$$$$
CN1CCC(c2c(O)cc(O)c3c(=O)cc(-c4ccccc4Cl)oc23)C(O)C1
Actelion Java MolfileCreator 2.0

  0  0  0  0  0  0              0 V3000
M  V30 BEGIN CTAB
M  V30 COUNTS 48 51 0 0 0
M  V30 BEGIN ATOM
M  V30 1 Cl 0.0809 3.2411 3.3222 0
M  V30 2 C -0.8544 3.4237 1.8784 0
M  V30 3 C -0.4137 2.9397 0.635 0
M  V30 4 C -2.0933 4.0648 1.9898 0
M  V30 5 C 0.8725 2.2525 0.4408 0
M  V30 6 C -1.2475 3.1031 -0.4845 0
M  V30 7 C -2.9052 4.2255 0.8671 0
M  V30 8 O 0.7457 0.9211 0.1021 0
M  V30 9 C 2.0352 2.9052 0.5515 0
M  V30 10 C -2.4835 3.7433 -0.369 0
M  V30 11 C 1.8732 0.1545 -0.0744 0
M  V30 12 C 3.2748 2.1538 0.3329 0
M  V30 13 C 3.1524 0.7194 0.0314 0
M  V30 14 C 1.7069 -1.2187 -0.3633 0
M  V30 15 O 4.3713 2.7002 0.3978 0
M  V30 16 C 4.2896 -0.0693 -0.1503 0
M  V30 17 C 2.8815 -1.9865 -0.4953 0
M  V30 18 C 0.3384 -1.8783 -0.5388 0
M  V30 19 O 5.5651 0.4205 -0.072 0
M  V30 20 C 4.1545 -1.4233 -0.4143 0
M  V30 21 O 2.8496 -3.3372 -0.711 0
M  V30 22 C -0.3507 -2.2258 0.7993 0
M  V30 23 C -0.6338 -1.1505 -1.4871 0
M  V30 24 O -0.6771 -1.0543 1.551 0
M  V30 25 C -1.6576 -2.9993 0.5287 0
M  V30 26 C -1.9315 -1.9489 -1.6472 0
M  V30 27 N -2.555 -2.2069 -0.3394 0
M  V30 28 C -3.8319 -2.9026 -0.5141 0
M  V30 29 H -2.4337 4.4368 2.9533 0
M  V30 30 H -0.9358 2.7298 -1.4584 0
M  V30 31 H -3.8682 4.7223 0.9592 0
M  V30 32 H 2.1215 3.9551 0.7988 0
M  V30 33 H -3.1171 3.8631 -1.2448 0
M  V30 34 H 0.5194 -2.8387 -1.0422 0
M  V30 35 H 5.5127 1.3837 0.1232 0
M  V30 36 H 5.0375 -2.0433 -0.5425 0
M  V30 37 H 2.2123 -3.7209 -0.0864 0
M  V30 38 H 0.3134 -2.8345 1.4229 0
M  V30 39 H -0.898 -0.1534 -1.1245 0
M  V30 40 H -0.1657 -1.0126 -2.4694 0
M  V30 41 H -1.477 -0.6821 1.1285 0
M  V30 42 H -2.1584 -3.1747 1.4891 0
M  V30 43 H -1.4335 -3.9748 0.0789 0
M  V30 44 H -2.6146 -1.3639 -2.2752 0
M  V30 45 H -1.7273 -2.8885 -2.1772 0
M  V30 46 H -4.5174 -2.3008 -1.121 0
M  V30 47 H -3.7086 -3.8787 -0.9968 0
M  V30 48 H -4.3221 -3.0549 0.4538 0
M  V30 END ATOM
M  V30 BEGIN BOND
M  V30 1 1 1 2
M  V30 2 2 2 3
M  V30 3 1 2 4
M  V30 4 1 3 5
M  V30 5 1 3 6
M  V30 6 2 4 7
M  V30 7 1 5 8
M  V30 8 2 5 9
M  V30 9 2 6 10
M  V30 10 1 8 11
M  V30 11 1 9 12
M  V30 12 2 11 13
M  V30 13 1 11 14
M  V30 14 2 12 15
M  V30 15 1 13 16
M  V30 16 2 14 17
M  V30 17 1 14 18
M  V30 18 1 16 19
M  V30 19 2 16 20
M  V30 20 1 17 21
M  V30 21 1 18 22
M  V30 22 1 18 23
M  V30 23 1 22 24
M  V30 24 1 22 25
M  V30 25 1 23 26
M  V30 26 1 25 27
M  V30 27 1 27 28
M  V30 28 1 7 10
M  V30 29 1 12 13
M  V30 30 1 17 20
M  V30 31 1 26 27
M  V30 32 1 4 29
M  V30 33 1 6 30
M  V30 34 1 7 31
M  V30 35 1 9 32
M  V30 36 1 10 33
M  V30 37 1 18 34
M  V30 38 1 19 35
M  V30 39 1 20 36
M  V30 40 1 21 37
M  V30 41 1 22 38
M  V30 42 1 23 39
M  V30 43 1 23 40
M  V30 44 1 24 41
M  V30 45 1 25 42
M  V30 46 1 25 43
M  V30 47 1 26 44
M  V30 48 1 26 45
M  V30 49 1 28 46
M  V30 50 1 28 47
M  V30 51 1 28 48
M  V30 END BOND
M  V30 END CTAB
M  END
>  <NO.>
6806

>  <Name>
flavopiridol

>  <SMILES>
CN1CCC(c2c(O)cc(O)c3c(=O)cc(-c4ccccc4Cl)oc23)C(O)C1

>  <logBB>


>  <Class>
1

>  <MW>
401.1

>  <nHBAcc>
6

>  <nHBDon>
3

>  <SLogP>
3.3

>  <TopoPSA>
94.14

>  <MMFF94 Energy>
81.169

$$$$
Cc1cc(C)c(/C=C2\C(=O)Nc3ccccc32)[nH]1
Actelion Java MolfileCreator 2.0

  0  0  0  0  0  0              0 V3000
M  V30 BEGIN CTAB
M  V30 COUNTS 32 34 0 0 0
M  V30 BEGIN ATOM
M  V30 1 O -0.3171 1.8246 -1.7452 0
M  V30 2 C -0.3799 1.8849 -0.5315 0
M  V30 3 N -0.6574 3.0196 0.2117 0
M  V30 4 C -0.1802 0.7782 0.4778 0
M  V30 5 C -0.6541 2.7484 1.5738 0
M  V30 6 C -0.3698 1.3996 1.8045 0
M  V30 7 C 0.1098 -0.5234 0.3168 0
M  V30 8 C -0.8917 3.6478 2.5938 0
M  V30 9 C -0.3174 0.9151 3.1013 0
M  V30 10 C 0.3209 -1.2689 -0.8776 0
M  V30 11 C -0.8395 3.1623 3.9016 0
M  V30 12 C -0.5549 1.8082 4.1534 0
M  V30 13 N 0.2489 -0.7035 -2.1283 0
M  V30 14 C 0.6217 -2.6155 -1.0622 0
M  V30 15 C 0.493 -1.6425 -3.0997 0
M  V30 16 C 0.7276 -2.839 -2.463 0
M  V30 17 C 0.8036 -3.6488 -0.0072 0
M  V30 18 C 0.4746 -1.2879 -4.5388 0
M  V30 19 H -0.8357 3.9175 -0.2105 0
M  V30 20 H 0.2031 -1.1219 1.2205 0
M  V30 21 H -1.1107 4.6907 2.3962 0
M  V30 22 H -0.0995 -0.1256 3.3144 0
M  V30 23 H -1.0205 3.8365 4.7361 0
M  V30 24 H -0.5192 1.4509 5.1807 0
M  V30 25 H 0.0442 0.2724 -2.3203 0
M  V30 26 H 0.9521 -3.7783 -2.9523 0
M  V30 27 H -0.1086 -3.7526 0.5889 0
M  V30 28 H 1.6271 -3.3745 0.6598 0
M  V30 29 H 1.0342 -4.6257 -0.4442 0
M  V30 30 H -0.5077 -0.9006 -4.8272 0
M  V30 31 H 1.2267 -0.5229 -4.7563 0
M  V30 32 H 0.6904 -2.1622 -5.1611 0
M  V30 END ATOM
M  V30 BEGIN BOND
M  V30 1 2 1 2
M  V30 2 1 2 3
M  V30 3 1 2 4
M  V30 4 1 3 5
M  V30 5 1 4 6
M  V30 6 2 4 7
M  V30 7 1 5 8
M  V30 8 1 6 9
M  V30 9 1 7 10
M  V30 10 2 8 11
M  V30 11 2 9 12
M  V30 12 1 10 13
M  V30 13 2 10 14
M  V30 14 1 13 15
M  V30 15 1 14 16
M  V30 16 1 14 17
M  V30 17 1 15 18
M  V30 18 2 5 6
M  V30 19 1 11 12
M  V30 20 2 15 16
M  V30 21 1 3 19
M  V30 22 1 7 20
M  V30 23 1 8 21
M  V30 24 1 9 22
M  V30 25 1 11 23
M  V30 26 1 12 24
M  V30 27 1 13 25
M  V30 28 1 16 26
M  V30 29 1 17 27
M  V30 30 1 17 28
M  V30 31 1 17 29
M  V30 32 1 18 30
M  V30 33 1 18 31
M  V30 34 1 18 32
M  V30 END BOND
M  V30 END CTAB
M  END
>  <NO.>
6816

>  <Name>
semaxanib

>  <SMILES>
Cc1cc(C)c(/C=C2\C(=O)Nc3ccccc32)[nH]1

>  <logBB>


>  <Class>
1

>  <MW>
238.11

>  <nHBAcc>
1

>  <nHBDon>
2

>  <SLogP>
3.12

>  <TopoPSA>
44.89

>  <MMFF94 Energy>
27.383

$$$$
NC(=O)N1c2ccccc2CCc2ccccc21
Actelion Java MolfileCreator 2.0

  0  0  0  0  0  0              0 V3000
M  V30 BEGIN CTAB
M  V30 COUNTS 32 34 0 0 0
M  V30 BEGIN ATOM
M  V30 1 O 2.9471 1.0347 -1.1939 0
M  V30 2 C 2.2917 0.8506 -0.1696 0
M  V30 3 N 0.9314 0.5562 -0.1128 0
M  V30 4 N 2.9471 0.9192 1.0242 0
M  V30 5 C 0.1618 0.3903 -1.3012 0
M  V30 6 C 0.2095 0.4188 1.0966 0
M  V30 7 C -0.6177 -0.7585 -1.5574 0
M  V30 8 C 0.1816 1.4341 -2.2455 0
M  V30 9 C -0.1849 -0.8573 1.5206 0
M  V30 10 C -0.075 1.5447 1.877 0
M  V30 11 C -1.3566 -0.8127 -2.7595 0
M  V30 12 C -0.7553 -1.9643 -0.6456 0
M  V30 13 C -0.553 1.3553 -3.4279 0
M  V30 14 C -0.8562 -0.9973 2.7404 0
M  V30 15 C 0.09 -2.0352 0.6272 0
M  V30 16 C -0.7459 1.3958 3.0902 0
M  V30 17 C -1.3243 0.2304 -3.6846 0
M  V30 18 C -1.1319 0.1266 3.5222 0
M  V30 19 H 3.9359 1.1207 0.9986 0
M  V30 20 H 2.5076 0.7027 1.9051 0
M  V30 21 H 0.7815 2.3234 -2.0628 0
M  V30 22 H 0.2229 2.5344 1.5405 0
M  V30 23 H -1.9687 -1.6856 -2.9812 0
M  V30 24 H -1.8143 -2.0364 -0.3603 0
M  V30 25 H -0.5231 -2.8587 -1.2391 0
M  V30 26 H -0.5167 2.1711 -4.1445 0
M  V30 27 H -1.1776 -1.9775 3.0849 0
M  V30 28 H 1.1598 -2.0795 0.3871 0
M  V30 29 H -0.1383 -2.9687 1.1564 0
M  V30 30 H -0.9714 2.269 3.6974 0
M  V30 31 H -1.899 0.1613 -4.6043 0
M  V30 32 H -1.6588 0.013 4.4668 0
M  V30 END ATOM
M  V30 BEGIN BOND
M  V30 1 2 1 2
M  V30 2 1 2 3
M  V30 3 1 2 4
M  V30 4 1 3 5
M  V30 5 1 3 6
M  V30 6 2 5 7
M  V30 7 1 5 8
M  V30 8 2 6 9
M  V30 9 1 6 10
M  V30 10 1 7 11
M  V30 11 1 7 12
M  V30 12 2 8 13
M  V30 13 1 9 14
M  V30 14 1 9 15
M  V30 15 2 10 16
M  V30 16 2 11 17
M  V30 17 2 14 18
M  V30 18 1 12 15
M  V30 19 1 13 17
M  V30 20 1 16 18
M  V30 21 1 4 19
M  V30 22 1 4 20
M  V30 23 1 8 21
M  V30 24 1 10 22
M  V30 25 1 11 23
M  V30 26 1 12 24
M  V30 27 1 12 25
M  V30 28 1 13 26
M  V30 29 1 14 27
M  V30 30 1 15 28
M  V30 31 1 15 29
M  V30 32 1 16 30
M  V30 33 1 17 31
M  V30 34 1 18 32
M  V30 END BOND
M  V30 END CTAB
M  END
>  <NO.>
6817

>  <Name>
10,11-dihydrocarbamazepine

>  <SMILES>
NC(=O)N1c2ccccc2CCc2ccccc21

>  <logBB>


>  <Class>
1

>  <MW>
238.11

>  <nHBAcc>
1

>  <nHBDon>
1

>  <SLogP>
3

>  <TopoPSA>
46.33

>  <MMFF94 Energy>
12.635

$$$$
O=C(O)C(Cl)Cl
Actelion Java MolfileCreator 2.0

  0  0  0  0  0  0              0 V3000
M  V30 BEGIN CTAB
M  V30 COUNTS 8 7 0 0 0
M  V30 BEGIN ATOM
M  V30 1 Cl -1.6484 -0.8673 1.1277 0
M  V30 2 C -0.8968 -0.1495 -0.3096 0
M  V30 3 Cl -1.5261 1.4791 -0.6233 0
M  V30 4 C 0.606 -0.0962 -0.1333 0
M  V30 5 O 1.4231 -0.6685 -0.8429 0
M  V30 6 O 1.0408 0.6546 0.9033 0
M  V30 7 H -1.1362 -0.7795 -1.1706 0
M  V30 8 H 2.0182 0.5833 0.876 0
M  V30 END ATOM
M  V30 BEGIN BOND
M  V30 1 1 1 2
M  V30 2 1 2 3
M  V30 3 1 2 4
M  V30 4 2 4 5
M  V30 5 1 4 6
M  V30 6 1 2 7
M  V30 7 1 6 8
M  V30 END BOND
M  V30 END CTAB
M  END
>  <NO.>
6818

>  <Name>
dichloroacetate

>  <SMILES>
O=C(O)C(Cl)Cl

>  <logBB>


>  <Class>
1

>  <MW>
127.94

>  <nHBAcc>
1

>  <nHBDon>
1

>  <SLogP>
0.87

>  <TopoPSA>
37.3

>  <MMFF94 Energy>
30.157

$$$$
O=S(=O)(c1cccc2cnccc12)N1CCCNCC1
Actelion Java MolfileCreator 2.0

  0  0  0  0  0  0              0 V3000
M  V30 BEGIN CTAB
M  V30 COUNTS 37 39 0 0 0
M  V30 BEGIN ATOM
M  V30 1 S 0.3253 1.953 0.4066 0
M  V30 2 O 0.9122 2.5023 1.6122 0
M  V30 3 O 0.1438 2.7751 -0.7705 0
M  V30 4 N 1.2746 0.5985 -0.0228 0
M  V30 5 C -1.2554 1.2347 0.8138 0
M  V30 6 C 2.5041 0.9775 -0.7988 0
M  V30 7 C 1.5289 -0.3859 1.0573 0
M  V30 8 C -1.9981 0.4848 -0.1412 0
M  V30 9 C -1.7304 1.4312 2.1212 0
M  V30 10 C 3.5868 -0.1217 -0.8764 0
M  V30 11 C 1.5499 -1.8062 0.4908 0
M  V30 12 C -3.2232 -0.074 0.2887 0
M  V30 13 C -1.6255 0.2452 -1.4845 0
M  V30 14 C -2.9425 0.8756 2.5128 0
M  V30 15 N 3.2119 -1.4395 -1.3983 0
M  V30 16 C 1.8962 -1.9278 -0.9943 0
M  V30 17 C -3.9651 -0.8266 -0.6259 0
M  V30 18 C -3.6819 0.1243 1.6036 0
M  V30 19 C -2.4426 -0.5165 -2.3064 0
M  V30 20 N -3.6025 -1.0647 -1.905 0
M  V30 21 H 2.1898 1.2328 -1.8179 0
M  V30 22 H 2.9605 1.8677 -0.3493 0
M  V30 23 H 2.4635 -0.1507 1.578 0
M  V30 24 H 0.7511 -0.3446 1.8272 0
M  V30 25 H -1.1605 2.016 2.8413 0
M  V30 26 H 4.0419 -0.2648 0.1104 0
M  V30 27 H 4.4047 0.258 -1.5016 0
M  V30 28 H 2.2293 -2.4229 1.0919 0
M  V30 29 H 0.5511 -2.2422 0.6276 0
M  V30 30 H -0.7118 0.6461 -1.911 0
M  V30 31 H -3.3117 1.027 3.5246 0
M  V30 32 H 3.2453 -1.4206 -2.4181 0
M  V30 33 H 1.8467 -2.9895 -1.2648 0
M  V30 34 H 1.1228 -1.4402 -1.6006 0
M  V30 35 H -4.9134 -1.2784 -0.3435 0
M  V30 36 H -4.629 -0.3052 1.9267 0
M  V30 37 H -2.1713 -0.7062 -3.3412 0
M  V30 END ATOM
M  V30 BEGIN BOND
M  V30 1 2 1 2
M  V30 2 2 1 3
M  V30 3 1 1 4
M  V30 4 1 1 5
M  V30 5 1 4 6
M  V30 6 1 4 7
M  V30 7 1 5 8
M  V30 8 2 5 9
M  V30 9 1 6 10
M  V30 10 1 7 11
M  V30 11 1 8 12
M  V30 12 2 8 13
M  V30 13 1 9 14
M  V30 14 1 10 15
M  V30 15 1 11 16
M  V30 16 2 12 17
M  V30 17 1 12 18
M  V30 18 1 13 19
M  V30 19 1 17 20
M  V30 20 2 14 18
M  V30 21 1 15 16
M  V30 22 2 19 20
M  V30 23 1 6 21
M  V30 24 1 6 22
M  V30 25 1 7 23
M  V30 26 1 7 24
M  V30 27 1 9 25
M  V30 28 1 10 26
M  V30 29 1 10 27
M  V30 30 1 11 28
M  V30 31 1 11 29
M  V30 32 1 13 30
M  V30 33 1 14 31
M  V30 34 1 15 32
M  V30 35 1 16 33
M  V30 36 1 16 34
M  V30 37 1 17 35
M  V30 38 1 18 36
M  V30 39 1 19 37
M  V30 END BOND
M  V30 END CTAB
M  END
>  <NO.>
6820

>  <Name>
fasudil

>  <SMILES>
O=S(=O)(c1cccc2cnccc12)N1CCCNCC1

>  <logBB>


>  <Class>
1

>  <MW>
291.1

>  <nHBAcc>
4

>  <nHBDon>
1

>  <SLogP>
1.22

>  <TopoPSA>
62.3

>  <MMFF94 Energy>
19.617

$$$$
OC1CCCCC1N1CCC(c2ccccc2)CC1
Actelion Java MolfileCreator 2.0

  0  0  0  0  0  0              0 V3000
M  V30 BEGIN CTAB
M  V30 COUNTS 44 46 0 0 0
M  V30 BEGIN ATOM
M  V30 1 O 1.3487 2.4604 -1.9838 0
M  V30 2 C 0.3836 1.725 -2.7389 0
M  V30 3 C -0.7536 1.2022 -1.8163 0
M  V30 4 C -0.1481 2.6177 -3.8612 0
M  V30 5 N -0.1589 0.3282 -0.7632 0
M  V30 6 C -1.6443 2.3605 -1.3191 0
M  V30 7 C -1.0406 3.7418 -3.3404 0
M  V30 8 C -0.0721 0.9268 0.5779 0
M  V30 9 C -0.8509 -0.9707 -0.7081 0
M  V30 10 C -2.1765 3.1986 -2.4806 0
M  V30 11 C 0.6942 0.0161 1.5397 0
M  V30 12 C -0.1327 -1.9519 0.2199 0
M  V30 13 C 0.0294 -1.3633 1.6266 0
M  V30 14 C 0.7719 -2.3021 2.5602 0
M  V30 15 C 0.128 -2.8046 3.7014 0
M  V30 16 C 2.0985 -2.6889 2.316 0
M  V30 17 C 0.7926 -3.6694 4.5735 0
M  V30 18 C 2.7621 -3.5537 3.1888 0
M  V30 19 C 2.1093 -4.0437 4.3172 0
M  V30 20 H 1.6349 1.8365 -1.2903 0
M  V30 21 H 0.9124 0.8766 -3.191 0
M  V30 22 H -1.3903 0.5865 -2.4685 0
M  V30 23 H 0.6887 3.0616 -4.4132 0
M  V30 24 H -0.7206 2.0057 -4.569 0
M  V30 25 H -1.0882 3.0277 -0.6501 0
M  V30 26 H -2.4938 1.9615 -0.7519 0
M  V30 27 H -1.4555 4.3018 -4.1862 0
M  V30 28 H -0.4415 4.4491 -2.7541 0
M  V30 29 H 0.4607 1.8831 0.5407 0
M  V30 30 H -1.07 1.1208 0.9913 0
M  V30 31 H -0.8743 -1.4246 -1.7067 0
M  V30 32 H -1.8916 -0.8403 -0.3838 0
M  V30 33 H -2.7715 4.0317 -2.0893 0
M  V30 34 H -2.8475 2.5887 -3.0977 0
M  V30 35 H 0.7271 0.4807 2.5332 0
M  V30 36 H 1.7346 -0.0694 1.2002 0
M  V30 37 H -0.6991 -2.8903 0.2672 0
M  V30 38 H 0.8449 -2.1998 -0.2134 0
M  V30 39 H -0.9813 -1.2109 2.0323 0
M  V30 40 H -0.8999 -2.5259 3.9223 0
M  V30 41 H 2.6293 -2.3193 1.4415 0
M  V30 42 H 0.2814 -4.0505 5.4537 0
M  V30 43 H 3.7897 -3.8441 2.9865 0
M  V30 44 H 2.6263 -4.7164 4.996 0
M  V30 END ATOM
M  V30 BEGIN BOND
M  V30 1 1 1 2
M  V30 2 1 2 3
M  V30 3 1 2 4
M  V30 4 1 3 5
M  V30 5 1 3 6
M  V30 6 1 4 7
M  V30 7 1 5 8
M  V30 8 1 5 9
M  V30 9 1 6 10
M  V30 10 1 8 11
M  V30 11 1 9 12
M  V30 12 1 11 13
M  V30 13 1 13 14
M  V30 14 2 14 15
M  V30 15 1 14 16
M  V30 16 1 15 17
M  V30 17 2 16 18
M  V30 18 2 17 19
M  V30 19 1 7 10
M  V30 20 1 12 13
M  V30 21 1 18 19
M  V30 22 1 1 20
M  V30 23 1 2 21
M  V30 24 1 3 22
M  V30 25 1 4 23
M  V30 26 1 4 24
M  V30 27 1 6 25
M  V30 28 1 6 26
M  V30 29 1 7 27
M  V30 30 1 7 28
M  V30 31 1 8 29
M  V30 32 1 8 30
M  V30 33 1 9 31
M  V30 34 1 9 32
M  V30 35 1 10 33
M  V30 36 1 10 34
M  V30 37 1 11 35
M  V30 38 1 11 36
M  V30 39 1 12 37
M  V30 40 1 12 38
M  V30 41 1 13 39
M  V30 42 1 15 40
M  V30 43 1 16 41
M  V30 44 1 17 42
M  V30 45 1 18 43
M  V30 46 1 19 44
M  V30 END BOND
M  V30 END CTAB
M  END
>  <NO.>
6821

>  <Name>
vesamicol

>  <SMILES>
OC1CCCCC1N1CCC(c2ccccc2)CC1

>  <logBB>


>  <Class>
1

>  <MW>
259.19

>  <nHBAcc>
2

>  <nHBDon>
1

>  <SLogP>
3.17

>  <TopoPSA>
23.47

>  <MMFF94 Energy>
49.328

$$$$
c1ccc(-c2cc(-c3ccccc3)c(N3CCN(c4ncccn4)CC3)nn2)cc1
Actelion Java MolfileCreator 2.0

  0  0  0  0  0  0              0 V3000
M  V30 BEGIN CTAB
M  V30 COUNTS 52 56 0 0 0
M  V30 BEGIN ATOM
M  V30 1 N -0.9631 -1.2039 -0.0802 0
M  V30 2 N -2.052 -1.0354 -0.9134 0
M  V30 3 C -0.5129 -0.2151 0.7261 0
M  V30 4 C -2.7247 0.1285 -0.9321 0
M  V30 5 N 0.6077 -0.4659 1.5159 0
M  V30 6 C -1.2009 1.0128 0.7476 0
M  V30 7 C -3.8752 0.212 -1.8513 0
M  V30 8 C -2.3127 1.1642 -0.1073 0
M  V30 9 C 1.8131 0.3484 1.2747 0
M  V30 10 C 0.9214 -1.8762 1.8128 0
M  V30 11 C -0.87 2.1303 1.6586 0
M  V30 12 C -3.8869 -0.5192 -3.0546 0
M  V30 13 C -5.0021 1.0081 -1.5718 0
M  V30 14 C 2.6921 -0.2547 0.1552 0
M  V30 15 C 1.803 -2.5282 0.7238 0
M  V30 16 C -0.6042 3.4181 1.1587 0
M  V30 17 C -0.8301 1.9443 3.0507 0
M  V30 18 C -4.9645 -0.4494 -3.9428 0
M  V30 19 C -6.0822 1.0794 -2.4586 0
M  V30 20 N 2.9533 -1.6802 0.3814 0
M  V30 21 C -0.3025 4.4772 2.019 0
M  V30 22 C -0.5282 3.0024 3.9117 0
M  V30 23 C -6.0612 0.3525 -3.6447 0
M  V30 24 C 3.9783 -2.2629 -0.339 0
M  V30 25 C -0.2648 4.2683 3.3952 0
M  V30 26 N 4.8753 -1.4696 -0.952 0
M  V30 27 N 4.0571 -3.6042 -0.3902 0
M  V30 28 C 5.8719 -2.0588 -1.6393 0
M  V30 29 C 5.0693 -4.1511 -1.089 0
M  V30 30 C 6.0207 -3.416 -1.7444 0
M  V30 31 H -2.8555 2.105 -0.1087 0
M  V30 32 H 1.5873 1.3888 1.0257 0
M  V30 33 H 2.3946 0.3726 2.2053 0
M  V30 34 H 1.4743 -1.8972 2.7613 0
M  V30 35 H 0.013 -2.4674 1.9825 0
M  V30 36 H -3.0409 -1.156 -3.3117 0
M  V30 37 H -5.0668 1.5729 -0.6444 0
M  V30 38 H 3.6216 0.3269 0.1317 0
M  V30 39 H 2.1915 -0.128 -0.8131 0
M  V30 40 H 1.2124 -2.7153 -0.1805 0
M  V30 41 H 2.1249 -3.5008 1.1157 0
M  V30 42 H -0.6185 3.6031 0.0864 0
M  V30 43 H -1.0315 0.9615 3.474 0
M  V30 44 H -4.9435 -1.0254 -4.8643 0
M  V30 45 H -6.9425 1.6984 -2.2167 0
M  V30 46 H -0.0954 5.4641 1.6134 0
M  V30 47 H -0.4989 2.8343 4.9851 0
M  V30 48 H -6.901 0.4051 -4.3326 0
M  V30 49 H -0.0294 5.091 4.0653 0
M  V30 50 H 6.5686 -1.377 -2.117 0
M  V30 51 H 5.0872 -5.2364 -1.1018 0
M  V30 52 H 6.8265 -3.8715 -2.3002 0
M  V30 END ATOM
M  V30 BEGIN BOND
M  V30 1 2 1 2
M  V30 2 1 1 3
M  V30 3 1 2 4
M  V30 4 1 3 5
M  V30 5 2 3 6
M  V30 6 1 4 7
M  V30 7 2 4 8
M  V30 8 1 5 9
M  V30 9 1 5 10
M  V30 10 1 6 11
M  V30 11 2 7 12
M  V30 12 1 7 13
M  V30 13 1 9 14
M  V30 14 1 10 15
M  V30 15 2 11 16
M  V30 16 1 11 17
M  V30 17 1 12 18
M  V30 18 2 13 19
M  V30 19 1 14 20
M  V30 20 1 16 21
M  V30 21 2 17 22
M  V30 22 2 18 23
M  V30 23 1 20 24
M  V30 24 2 21 25
M  V30 25 2 24 26
M  V30 26 1 24 27
M  V30 27 1 26 28
M  V30 28 2 27 29
M  V30 29 2 28 30
M  V30 30 1 6 8
M  V30 31 1 15 20
M  V30 32 1 19 23
M  V30 33 1 22 25
M  V30 34 1 29 30
M  V30 35 1 8 31
M  V30 36 1 9 32
M  V30 37 1 9 33
M  V30 38 1 10 34
M  V30 39 1 10 35
M  V30 40 1 12 36
M  V30 41 1 13 37
M  V30 42 1 14 38
M  V30 43 1 14 39
M  V30 44 1 15 40
M  V30 45 1 15 41
M  V30 46 1 16 42
M  V30 47 1 17 43
M  V30 48 1 18 44
M  V30 49 1 19 45
M  V30 50 1 21 46
M  V30 51 1 22 47
M  V30 52 1 23 48
M  V30 53 1 25 49
M  V30 54 1 28 50
M  V30 55 1 29 51
M  V30 56 1 30 52
M  V30 END BOND
M  V30 END CTAB
M  END
>  <NO.>
6823

>  <Name>
mw01-5-188wh

>  <SMILES>
c1ccc(-c2cc(-c3ccccc3)c(N3CCN(c4ncccn4)CC3)nn2)cc1

>  <logBB>


>  <Class>
1

>  <MW>
394.19

>  <nHBAcc>
6

>  <nHBDon>
0

>  <SLogP>
3.93

>  <TopoPSA>
58.04

>  <MMFF94 Energy>
82.376

$$$$
C#C[C@@]1(O)CC[C@@H]2[C@@H]3CCC4=CC(=O)CC[C@@H]4[C@@H]3C=C[C@@]21CC
Actelion Java MolfileCreator 2.0

  0  0  0  0  0  0              0 V3000
M  V30 BEGIN CTAB
M  V30 COUNTS 49 52 0 0 0
M  V30 BEGIN ATOM
M  V30 1 O -4.2783 4.2783 1.2901 0
M  V30 2 C -3.8345 3.2624 0.7617 0
M  V30 3 C -2.6476 3.3525 -0.1227 0
M  V30 4 C -4.5167 1.9208 0.881 0
M  V30 5 C -2.0794 2.2416 -0.621 0
M  V30 6 C -3.4769 0.8156 0.9738 0
M  V30 7 C -2.4929 0.84 -0.2155 0 CFG=2
M  V30 8 C -1.0294 2.3248 -1.7 0
M  V30 9 C -1.27 -0.1018 0.0155 0 CFG=2
M  V30 10 C 0.1481 1.377 -1.4726 0
M  V30 11 C -0.451 0.1657 1.2646 0
M  V30 12 C -0.3212 -0.0742 -1.216 0 CFG=1
M  V30 13 C 0.8062 -0.2851 1.407 0
M  V30 14 C 0.7964 -1.1417 -1.0257 0 CFG=2
M  V30 15 C 1.5228 -1.1315 0.3686 0 CFG=1
M  V30 16 C 1.9039 -1.1445 -2.0998 0
M  V30 17 C 2.9548 -0.5867 -1.0E-4 0 CFG=1
M  V30 18 C 1.6132 -2.6011 0.9269 0
M  V30 19 C 3.2346 -1.2388 -1.356 0
M  V30 20 O 2.9372 0.8274 -0.2074 0
M  V30 21 C 4.0133 -0.8869 0.9804 0
M  V30 22 C 0.2913 -3.2627 1.322 0
M  V30 23 C 4.8861 -1.1141 1.7743 0
M  V30 24 H -2.343 4.354 -0.404 0
M  V30 25 H -5.1353 1.9184 1.785 0
M  V30 26 H -5.1718 1.7819 0.0142 0
M  V30 27 H -3.9768 -0.1596 1.016 0
M  V30 28 H -2.9539 0.9366 1.9276 0
M  V30 29 H -3.0429 0.4349 -1.0791 0
M  V30 30 H -0.6474 3.3481 -1.8016 0
M  V30 31 H -1.505 2.0728 -2.6569 0
M  V30 32 H -1.6816 -1.1159 0.1205 0
M  V30 33 H 0.7886 1.4329 -2.357 0
M  V30 34 H 0.7345 1.7599 -0.6326 0
M  V30 35 H -0.8756 0.7484 2.0759 0
M  V30 36 H -0.8991 -0.3825 -2.0997 0
M  V30 37 H 1.3513 -0.0561 2.3209 0
M  V30 38 H 0.2796 -2.1036 -1.1403 0
M  V30 39 H 1.8936 -0.2499 -2.7251 0
M  V30 40 H 1.7877 -1.9954 -2.7808 0
M  V30 41 H 2.1005 -3.2527 0.1922 0
M  V30 42 H 2.2468 -2.6189 1.8225 0
M  V30 43 H 3.5344 -2.2884 -1.2536 0
M  V30 44 H 4.0233 -0.725 -1.9177 0
M  V30 45 H 3.8609 1.1145 -0.3019 0
M  V30 46 H 0.4831 -4.285 1.6659 0
M  V30 47 H -0.4084 -3.3273 0.4855 0
M  V30 48 H -0.1972 -2.7325 2.1447 0
M  V30 49 H 5.6564 -1.3139 2.4835 0
M  V30 END ATOM
M  V30 BEGIN BOND
M  V30 1 2 1 2
M  V30 2 1 2 3
M  V30 3 1 2 4
M  V30 4 2 3 5
M  V30 5 1 4 6
M  V30 6 1 5 7
M  V30 7 1 5 8
M  V30 8 1 7 9
M  V30 9 1 8 10
M  V30 10 1 9 11
M  V30 11 1 9 12
M  V30 12 2 11 13
M  V30 13 1 12 14
M  V30 14 1 13 15
M  V30 15 1 14 16
M  V30 16 1 15 17
M  V30 17 1 15 18
M  V30 18 1 16 19
M  V30 19 1 17 20
M  V30 20 1 17 21
M  V30 21 1 18 22
M  V30 22 3 21 23
M  V30 23 1 6 7
M  V30 24 1 10 12
M  V30 25 1 14 15
M  V30 26 1 17 19
M  V30 27 1 3 24
M  V30 28 1 4 25
M  V30 29 1 4 26
M  V30 30 1 6 27
M  V30 31 1 6 28
M  V30 32 1 7 29
M  V30 33 1 8 30
M  V30 34 1 8 31
M  V30 35 1 9 32
M  V30 36 1 10 33
M  V30 37 1 10 34
M  V30 38 1 11 35
M  V30 39 1 12 36
M  V30 40 1 13 37
M  V30 41 1 14 38
M  V30 42 1 16 39
M  V30 43 1 16 40
M  V30 44 1 18 41
M  V30 45 1 18 42
M  V30 46 1 19 43
M  V30 47 1 19 44
M  V30 48 1 20 45
M  V30 49 1 22 46
M  V30 50 1 22 47
M  V30 51 1 22 48
M  V30 52 1 23 49
M  V30 END BOND
M  V30 BEGIN COLLECTION
M  V30 MDLV30/STEABS ATOMS=(6 7 9 12 14 15 17)
M  V30 END COLLECTION
M  V30 END CTAB
M  END
>  <NO.>
6825

>  <Name>


>  <SMILES>
C#C[C@@]1(O)CC[C@@H]2[C@@H]3CCC4=CC(=O)CC[C@@H]4[C@@H]3C=C[C@@]21CC

>  <logBB>


>  <Class>
1

>  <MW>
310.19

>  <nHBAcc>
2

>  <nHBDon>
1

>  <SLogP>
3.66

>  <TopoPSA>
37.3

>  <MMFF94 Energy>
92.215

$$$$
C#C[C@@]1(O)CC[C@@H]2[C@@H]3CCC4=CCCC[C@@H]4[C@@H]3CC[C@@]21C
Actelion Java MolfileCreator 2.0

  0  0  0  0  0  0              0 V3000
M  V30 BEGIN CTAB
M  V30 COUNTS 49 52 0 0 0
M  V30 BEGIN ATOM
M  V30 1 O 3.4535 0.0 1.3642 0
M  V30 2 C 2.8961 1.3156 1.3915 0 CFG=1
M  V30 3 C 3.9689 2.2381 0.988 0
M  V30 4 C 1.579 1.4185 0.5375 0 CFG=2
M  V30 5 C 2.4243 1.5996 2.8227 0
M  V30 6 C 4.8568 2.9804 0.665 0
M  V30 7 C 0.4354 1.0852 1.5592 0 CFG=2
M  V30 8 C 1.5729 0.4716 -0.6764 0
M  V30 9 C 1.3413 2.8669 0.023 0
M  V30 10 C 1.1076 0.8365 2.9152 0
M  V30 11 C -0.6129 0.0448 1.1034 0 CFG=1
M  V30 12 C 0.2008 0.2741 -1.3256 0
M  V30 13 C -1.0116 0.3264 -0.3656 0 CFG=1
M  V30 14 C -0.2513 -1.4381 1.3082 0
M  V30 15 C -2.1898 -0.5888 -0.8044 0 CFG=2
M  V30 16 C -1.3766 -2.368 0.848 0
M  V30 17 C -1.8809 -2.0507 -0.5358 0
M  V30 18 C -2.6358 -0.3047 -2.2564 0
M  V30 19 C -2.1012 -3.0132 -1.449 0
M  V30 20 C -3.5027 -1.4297 -2.8112 0
M  V30 21 C -2.7454 -2.7569 -2.7791 0
M  V30 22 H 2.7672 -0.636 1.616 0
M  V30 23 H 2.2504 2.67 2.9888 0
M  V30 24 H 3.1314 1.2449 3.5807 0
M  V30 25 H 5.651 3.6293 0.3769 0
M  V30 26 H -0.143 2.0119 1.7037 0
M  V30 27 H 1.9444 -0.5189 -0.3993 0
M  V30 28 H 2.2807 0.8267 -1.4368 0
M  V30 29 H 0.3509 2.977 -0.4308 0
M  V30 30 H 2.0733 3.1464 -0.7426 0
M  V30 31 H 1.4066 3.5998 0.8351 0
M  V30 32 H 0.4913 1.1964 3.7456 0
M  V30 33 H 1.3142 -0.2204 3.0988 0
M  V30 34 H -1.5037 0.2232 1.7252 0
M  V30 35 H 0.2305 -0.6784 -1.8685 0
M  V30 36 H 0.0632 1.0469 -2.0932 0
M  V30 37 H -1.3954 1.3567 -0.3998 0
M  V30 38 H -0.0765 -1.6418 2.37 0
M  V30 39 H 0.6696 -1.7058 0.785 0
M  V30 40 H -3.0491 -0.3433 -0.1616 0
M  V30 41 H -2.2193 -2.2742 1.5455 0
M  V30 42 H -1.0305 -3.4063 0.9171 0
M  V30 43 H -3.1903 0.6408 -2.2876 0
M  V30 44 H -1.7779 -0.1814 -2.9259 0
M  V30 45 H -1.8582 -4.0488 -1.2227 0
M  V30 46 H -4.4235 -1.5102 -2.2195 0
M  V30 47 H -3.8032 -1.2007 -3.8398 0
M  V30 48 H -1.972 -2.7732 -3.5556 0
M  V30 49 H -3.4467 -3.5686 -3.0035 0
M  V30 END ATOM
M  V30 BEGIN BOND
M  V30 1 1 1 2
M  V30 2 1 2 3
M  V30 3 1 2 4
M  V30 4 1 2 5
M  V30 5 3 3 6
M  V30 6 1 4 7
M  V30 7 1 4 8
M  V30 8 1 4 9
M  V30 9 1 5 10
M  V30 10 1 7 11
M  V30 11 1 8 12
M  V30 12 1 11 13
M  V30 13 1 11 14
M  V30 14 1 13 15
M  V30 15 1 14 16
M  V30 16 1 15 17
M  V30 17 1 15 18
M  V30 18 2 17 19
M  V30 19 1 18 20
M  V30 20 1 19 21
M  V30 21 1 7 10
M  V30 22 1 12 13
M  V30 23 1 16 17
M  V30 24 1 20 21
M  V30 25 1 1 22
M  V30 26 1 5 23
M  V30 27 1 5 24
M  V30 28 1 6 25
M  V30 29 1 7 26
M  V30 30 1 8 27
M  V30 31 1 8 28
M  V30 32 1 9 29
M  V30 33 1 9 30
M  V30 34 1 9 31
M  V30 35 1 10 32
M  V30 36 1 10 33
M  V30 37 1 11 34
M  V30 38 1 12 35
M  V30 39 1 12 36
M  V30 40 1 13 37
M  V30 41 1 14 38
M  V30 42 1 14 39
M  V30 43 1 15 40
M  V30 44 1 16 41
M  V30 45 1 16 42
M  V30 46 1 18 43
M  V30 47 1 18 44
M  V30 48 1 19 45
M  V30 49 1 20 46
M  V30 50 1 20 47
M  V30 51 1 21 48
M  V30 52 1 21 49
M  V30 END BOND
M  V30 BEGIN COLLECTION
M  V30 MDLV30/STEABS ATOMS=(6 2 4 7 11 13 15)
M  V30 END COLLECTION
M  V30 END CTAB
M  END
>  <NO.>
6828

>  <Name>


>  <SMILES>
C#C[C@@]1(O)CC[C@@H]2[C@@H]3CCC4=CCCC[C@@H]4[C@@H]3CC[C@@]21C

>  <logBB>


>  <Class>
1

>  <MW>
284.21

>  <nHBAcc>
1

>  <nHBDon>
1

>  <SLogP>
4.31

>  <TopoPSA>
20.23

>  <MMFF94 Energy>
68.09

$$$$
C=C(N[C@@H]1C(=O)N2C(C(=O)O)=C(COC(C)=O)CS[C@@H]12)C(=NOC)c1csc(N)n1
Actelion Java MolfileCreator 2.0

  0  0  0  0  0  0              0 V3000
M  V30 BEGIN CTAB
M  V30 COUNTS 49 51 0 0 0
M  V30 BEGIN ATOM
M  V30 1 S 2.5334 -0.9801 -0.8167 0
M  V30 2 C 0.8155 -0.5108 -0.5136 0 CFG=2
M  V30 3 C 2.2517 -1.2743 -2.5959 0
M  V30 4 N 0.523 0.6562 -1.3107 0
M  V30 5 C 0.5396 0.3816 0.7393 0 CFG=1
M  V30 6 C 1.5066 -0.1523 -3.2975 0
M  V30 7 C 0.7278 0.7427 -2.6472 0
M  V30 8 C -0.026 1.4023 -0.331 0
M  V30 9 N -0.4035 -0.2038 1.6603 0
M  V30 10 C 1.7479 -0.1186 -4.7904 0
M  V30 11 C 0.1282 1.8962 -3.3604 0
M  V30 12 O -0.6365 2.4438 -0.3439 0
M  V30 13 C -0.9282 0.3807 2.8001 0
M  V30 14 O 3.1099 0.268 -5.0024 0
M  V30 15 O -0.7739 1.8391 -4.1755 0
M  V30 16 O 0.7362 3.0449 -3.0225 0
M  V30 17 C -2.0047 -0.4197 3.5225 0
M  V30 18 C -0.6303 1.604 3.265 0
M  V30 19 C 3.499 0.2266 -6.3051 0
M  V30 20 N -3.0183 -1.0262 2.9791 0
M  V30 21 C -1.8355 -0.5633 4.9749 0
M  V30 22 O 2.7989 -0.1315 -7.2406 0
M  V30 23 C 4.9216 0.6774 -6.4312 0
M  V30 24 O -3.0828 -0.8286 1.5907 0
M  V30 25 N -2.9401 -0.756 5.8087 0
M  V30 26 C -0.6264 -0.5699 5.6526 0
M  V30 27 C -4.3421 -1.31 1.1335 0
M  V30 28 C -2.5691 -0.8781 7.0565 0
M  V30 29 S -0.8807 -0.7835 7.3326 0
M  V30 30 N -3.4318 -1.0639 8.0593 0
M  V30 31 H 0.0903 -1.3188 -0.6734 0
M  V30 32 H 3.2434 -1.411 -3.0385 0
M  V30 33 H 1.7018 -2.2133 -2.7219 0
M  V30 34 H 1.4304 0.7569 1.2574 0
M  V30 35 H -1.0075 -0.9529 1.3124 0
M  V30 36 H 1.5707 -1.1205 -5.2019 0
M  V30 37 H 1.0946 0.5824 -5.3169 0
M  V30 38 H 0.2105 3.7412 -3.4665 0
M  V30 39 H 0.0915 2.2423 2.7677 0
M  V30 40 H -1.1277 2.0314 4.1308 0
M  V30 41 H 5.0194 1.7025 -6.065 0
M  V30 42 H 5.5746 0.004 -5.8706 0
M  V30 43 H 5.2168 0.6547 -7.484 0
M  V30 44 H 0.3734 -0.4704 5.2556 0
M  V30 45 H -5.1557 -0.7542 1.6099 0
M  V30 46 H -4.4387 -2.379 1.3459 0
M  V30 47 H -4.3971 -1.1586 0.0524 0
M  V30 48 H -3.136 -1.1629 9.0197 0
M  V30 49 H -4.4214 -1.1224 7.8568 0
M  V30 END ATOM
M  V30 BEGIN BOND
M  V30 1 1 1 2
M  V30 2 1 1 3
M  V30 3 1 2 4
M  V30 4 1 2 5
M  V30 5 1 3 6
M  V30 6 1 4 7
M  V30 7 1 4 8
M  V30 8 1 5 9
M  V30 9 1 6 10
M  V30 10 1 7 11
M  V30 11 2 8 12
M  V30 12 1 9 13
M  V30 13 1 10 14
M  V30 14 2 11 15
M  V30 15 1 11 16
M  V30 16 1 13 17
M  V30 17 2 13 18
M  V30 18 1 14 19
M  V30 19 2 17 20
M  V30 20 1 17 21
M  V30 21 2 19 22
M  V30 22 1 19 23
M  V30 23 1 20 24
M  V30 24 1 21 25
M  V30 25 2 21 26
M  V30 26 1 24 27
M  V30 27 2 25 28
M  V30 28 1 26 29
M  V30 29 1 28 30
M  V30 30 1 5 8
M  V30 31 2 6 7
M  V30 32 1 28 29
M  V30 33 1 2 31
M  V30 34 1 3 32
M  V30 35 1 3 33
M  V30 36 1 5 34
M  V30 37 1 9 35
M  V30 38 1 10 36
M  V30 39 1 10 37
M  V30 40 1 16 38
M  V30 41 1 18 39
M  V30 42 1 18 40
M  V30 43 1 23 41
M  V30 44 1 23 42
M  V30 45 1 23 43
M  V30 46 1 26 44
M  V30 47 1 27 45
M  V30 48 1 27 46
M  V30 49 1 27 47
M  V30 50 1 30 48
M  V30 51 1 30 49
M  V30 END BOND
M  V30 BEGIN COLLECTION
M  V30 MDLV30/STEABS ATOMS=(2 2 5)
M  V30 END COLLECTION
M  V30 END CTAB
M  END
>  <NO.>
6843

>  <Name>


>  <SMILES>
C=C(N[C@@H]1C(=O)N2C(C(=O)O)=C(COC(C)=O)CS[C@@H]12)C(=NOC)c1csc(N)n1

>  <logBB>


>  <Class>
-1

>  <MW>
453.08

>  <nHBAcc>
11

>  <nHBDon>
3

>  <SLogP>
0.36

>  <TopoPSA>
156.44

>  <MMFF94 Energy>
57.478

$$$$
C=CC[C@@]1([C@@H](C)CCC)C(=C)NC(O)=NC1=O
Actelion Java MolfileCreator 2.0

  0  0  0  0  0  0              0 V3000
M  V30 BEGIN CTAB
M  V30 COUNTS 37 37 0 0 0
M  V30 BEGIN ATOM
M  V30 1 O -0.2343 0.0781 -2.5016 0
M  V30 2 C 0.5886 -0.4016 -1.72 0
M  V30 3 N 1.8861 -0.5837 -2.1546 0
M  V30 4 C 0.1471 -0.8016 -0.2477 0 CFG=1
M  V30 5 C 2.76 -0.8218 -1.2597 0
M  V30 6 C 1.3718 -1.0653 0.6736 0
M  V30 7 C -0.7636 0.3937 0.2731 0 CFG=2
M  V30 8 C -0.6126 -2.1622 -0.406 0
M  V30 9 O 4.0337 -0.9427 -1.6471 0
M  V30 10 N 2.5955 -0.992 0.0612 0
M  V30 11 C 1.2822 -1.4118 1.9701 0
M  V30 12 C 0.0557 1.703 0.4557 0
M  V30 13 C -1.5854 0.1014 1.539 0
M  V30 14 C -1.9078 -2.1452 -1.1783 0
M  V30 15 C -0.8174 2.9426 0.6799 0
M  V30 16 C -2.1128 -2.8338 -2.3084 0
M  V30 17 C 0.0229 4.2099 0.7319 0
M  V30 18 H -1.5069 0.6007 -0.5092 0
M  V30 19 H 0.0684 -2.8898 -0.8718 0
M  V30 20 H -0.8472 -2.5815 0.5807 0
M  V30 21 H 4.0496 -0.8043 -2.6101 0
M  V30 22 H 3.4294 -1.1728 0.6057 0
M  V30 23 H 0.3342 -1.5431 2.4777 0
M  V30 24 H 2.1667 -1.6076 2.5694 0
M  V30 25 H 0.7457 1.5993 1.302 0
M  V30 26 H 0.6737 1.8788 -0.4323 0
M  V30 27 H -2.02 -0.9003 1.5384 0
M  V30 28 H -2.4266 0.8002 1.6126 0
M  V30 29 H -0.9934 0.2251 2.4503 0
M  V30 30 H -2.7237 -1.5425 -0.7854 0
M  V30 31 H -1.5517 3.0326 -0.1287 0
M  V30 32 H -1.3723 2.8551 1.6199 0
M  V30 33 H -1.3383 -3.4485 -2.7561 0
M  V30 34 H -3.0662 -2.7787 -2.8255 0
M  V30 35 H -0.617 5.0823 0.8973 0
M  V30 36 H 0.752 4.1635 1.5471 0
M  V30 37 H 0.5653 4.3603 -0.2069 0
M  V30 END ATOM
M  V30 BEGIN BOND
M  V30 1 2 1 2
M  V30 2 1 2 3
M  V30 3 1 2 4
M  V30 4 2 3 5
M  V30 5 1 4 6
M  V30 6 1 4 7
M  V30 7 1 4 8
M  V30 8 1 5 9
M  V30 9 1 5 10
M  V30 10 2 6 11
M  V30 11 1 7 12
M  V30 12 1 7 13
M  V30 13 1 8 14
M  V30 14 1 12 15
M  V30 15 2 14 16
M  V30 16 1 15 17
M  V30 17 1 6 10
M  V30 18 1 7 18
M  V30 19 1 8 19
M  V30 20 1 8 20
M  V30 21 1 9 21
M  V30 22 1 10 22
M  V30 23 1 11 23
M  V30 24 1 11 24
M  V30 25 1 12 25
M  V30 26 1 12 26
M  V30 27 1 13 27
M  V30 28 1 13 28
M  V30 29 1 13 29
M  V30 30 1 14 30
M  V30 31 1 15 31
M  V30 32 1 15 32
M  V30 33 1 16 33
M  V30 34 1 16 34
M  V30 35 1 17 35
M  V30 36 1 17 36
M  V30 37 1 17 37
M  V30 END BOND
M  V30 BEGIN COLLECTION
M  V30 MDLV30/STEABS ATOMS=(2 4 7)
M  V30 END COLLECTION
M  V30 END CTAB
M  END
>  <NO.>
6864

>  <Name>


>  <SMILES>
C=CC[C@@]1([C@@H](C)CCC)C(=C)NC(O)=NC1=O

>  <logBB>


>  <Class>
1

>  <MW>
236.15

>  <nHBAcc>
2

>  <nHBDon>
2

>  <SLogP>
2.54

>  <TopoPSA>
61.69

>  <MMFF94 Energy>
-27.751

$$$$
C=C[C@@H]1CN2CC[C@@H]1C[C@H]2[C@@H](O)c1ccnc2ccccc12
Actelion Java MolfileCreator 2.0

  0  0  0  0  0  0              0 V3000
M  V30 BEGIN CTAB
M  V30 COUNTS 44 47 0 0 0
M  V30 BEGIN ATOM
M  V30 1 O -1.8461 0.4813 -1.1234 0
M  V30 2 C -0.5781 0.9322 -0.6274 0 CFG=1
M  V30 3 C -0.7799 1.7525 0.6388 0
M  V30 4 C 0.4492 -0.2394 -0.4395 0 CFG=1
M  V30 5 C 0.0835 2.8234 1.0069 0
M  V30 6 C -1.839 1.4256 1.4959 0
M  V30 7 N 0.1565 -1.221 0.6545 0
M  V30 8 C 0.7301 -0.9908 -1.7665 0
M  V30 9 C -0.2041 3.5058 2.2156 0
M  V30 10 C 1.2058 3.25 0.2514 0
M  V30 11 C -2.0208 2.1587 2.6498 0
M  V30 12 C -0.906 -2.1701 0.2387 0
M  V30 13 C 1.3896 -1.9991 0.9201 0
M  V30 14 C 0.8824 -2.4995 -1.4884 0 CFG=2
M  V30 15 N -1.2324 3.1871 3.0159 0
M  V30 16 C 0.6099 4.5592 2.6091 0
M  V30 17 C 2.0083 4.3115 0.6713 0
M  V30 18 C -0.4563 -3.0617 -0.9485 0 CFG=2
M  V30 19 C 1.9252 -2.6541 -0.3645 0
M  V30 20 C 1.7087 4.9693 1.8537 0
M  V30 21 C -1.5203 -3.1676 -2.0157 0
M  V30 22 C -1.9758 -4.3283 -2.5048 0
M  V30 23 H -1.7639 0.3851 -2.0852 0
M  V30 24 H -0.2026 1.6017 -1.4102 0
M  V30 25 H 1.3864 0.2596 -0.1512 0
M  V30 26 H -2.51 0.6032 1.2684 0
M  V30 27 H 1.6604 -0.6055 -2.2033 0
M  V30 28 H -0.0512 -0.8233 -2.5133 0
M  V30 29 H 1.4768 2.7592 -0.6782 0
M  V30 30 H -2.8322 1.9291 3.334 0
M  V30 31 H -1.8384 -1.6376 0.0282 0
M  V30 32 H -1.1511 -2.816 1.093 0
M  V30 33 H 2.1574 -1.3483 1.3566 0
M  V30 34 H 1.1898 -2.7648 1.6806 0
M  V30 35 H 1.2079 -3.0289 -2.3907 0
M  V30 36 H 0.3797 5.0765 3.5382 0
M  V30 37 H 2.8633 4.6205 0.0756 0
M  V30 38 H -0.2598 -4.07 -0.5554 0
M  V30 39 H 2.8694 -2.1826 -0.6629 0
M  V30 40 H 2.1349 -3.7146 -0.182 0
M  V30 41 H 2.3232 5.7978 2.1953 0
M  V30 42 H -1.95 -2.2423 -2.3931 0
M  V30 43 H -1.5927 -5.2845 -2.1619 0
M  V30 44 H -2.751 -4.3447 -3.2653 0
M  V30 END ATOM
M  V30 BEGIN BOND
M  V30 1 1 1 2
M  V30 2 1 2 3
M  V30 3 1 2 4
M  V30 4 1 3 5
M  V30 5 2 3 6
M  V30 6 1 4 7
M  V30 7 1 4 8
M  V30 8 1 5 9
M  V30 9 2 5 10
M  V30 10 1 6 11
M  V30 11 1 7 12
M  V30 12 1 7 13
M  V30 13 1 8 14
M  V30 14 1 9 15
M  V30 15 2 9 16
M  V30 16 1 10 17
M  V30 17 1 12 18
M  V30 18 1 13 19
M  V30 19 1 16 20
M  V30 20 1 18 21
M  V30 21 2 21 22
M  V30 22 2 11 15
M  V30 23 1 14 18
M  V30 24 1 14 19
M  V30 25 2 17 20
M  V30 26 1 1 23
M  V30 27 1 2 24
M  V30 28 1 4 25
M  V30 29 1 6 26
M  V30 30 1 8 27
M  V30 31 1 8 28
M  V30 32 1 10 29
M  V30 33 1 11 30
M  V30 34 1 12 31
M  V30 35 1 12 32
M  V30 36 1 13 33
M  V30 37 1 13 34
M  V30 38 1 14 35
M  V30 39 1 16 36
M  V30 40 1 17 37
M  V30 41 1 18 38
M  V30 42 1 19 39
M  V30 43 1 19 40
M  V30 44 1 20 41
M  V30 45 1 21 42
M  V30 46 1 22 43
M  V30 47 1 22 44
M  V30 END BOND
M  V30 BEGIN COLLECTION
M  V30 MDLV30/STEABS ATOMS=(4 2 4 14 18)
M  V30 END COLLECTION
M  V30 END CTAB
M  END
>  <NO.>
6868

>  <Name>
cinchonidine

>  <SMILES>
C=C[C@@H]1CN2CC[C@@H]1C[C@H]2[C@@H](O)c1ccnc2ccccc12

>  <logBB>


>  <Class>
1

>  <MW>
294.17

>  <nHBAcc>
3

>  <nHBDon>
1

>  <SLogP>
3.16

>  <TopoPSA>
36.36

>  <MMFF94 Energy>
117.8

$$$$
C=C[C@@]12CC[C@@H](O[C@H]3C[C@@H](OC)[C@@H](O)[C@H](C)O3)C[C@]1(O)CC[C@@H]1[C@@H]2CC[C@]2(C)[C@H](C3=CC(=O)OC3)CC[C@@]12O
Actelion Java MolfileCreator 2.0

  0  0  0  0  0  0              0 V3000
M  V30 BEGIN CTAB
M  V30 COUNTS 85 90 0 0 0
M  V30 BEGIN ATOM
M  V30 1 O 0.6431 -8.2241 -3.5414 0
M  V30 2 C 1.445 -7.4959 -2.9859 0
M  V30 3 O 2.6784 -7.1668 -3.4524 0
M  V30 4 C 1.2356 -6.8535 -1.6914 0
M  V30 5 C 3.314 -6.2999 -2.5147 0
M  V30 6 C 2.3297 -6.1434 -1.4151 0
M  V30 7 C 2.6609 -5.3161 -0.1986 0 CFG=1
M  V30 8 C 2.3877 -3.7761 -0.2752 0 CFG=2
M  V30 9 C 1.9219 -5.7445 1.1083 0
M  V30 10 C 0.9672 -3.6572 0.3419 0 CFG=2
M  V30 11 C 2.3628 -3.1138 -1.6641 0
M  V30 12 C 3.5014 -3.092 0.5754 0
M  V30 13 C 1.0516 -4.5581 1.5687 0
M  V30 14 O 0.0193 -4.2684 -0.549 0
M  V30 15 C 0.5623 -2.1813 0.5537 0 CFG=1
M  V30 16 C 1.8946 -1.6473 -1.5927 0
M  V30 17 C 0.56 -1.4305 -0.8176 0 CFG=2
M  V30 18 C -0.7938 -2.0323 1.2577 0
M  V30 19 C 0.1453 0.0951 -0.6892 0 CFG=1
M  V30 20 C -1.1583 -0.5633 1.4544 0
M  V30 21 C -0.08 0.6138 -2.1266 0
M  V30 22 C -1.2127 0.2086 0.1172 0 CFG=2
M  V30 23 C 1.2277 0.9241 0.0725 0
M  V30 24 C 0.6727 1.4476 -2.8585 0
M  V30 25 O -2.2758 -0.4049 -0.6399 0
M  V30 26 C -1.6058 1.6791 0.3674 0
M  V30 27 C 0.8125 2.3689 0.3709 0
M  V30 28 C -0.5272 2.4797 1.0984 0 CFG=1
M  V30 29 O -0.8421 3.8754 1.1534 0
M  V30 30 C -1.7812 4.2416 2.1588 0 CFG=2
M  V30 31 O -3.1247 3.9132 1.8183 0
M  V30 32 C -1.6491 5.7348 2.4709 0
M  V30 33 C -3.6129 4.6426 0.6846 0 CFG=2
M  V30 34 C -2.2032 6.6224 1.3541 0 CFG=2
M  V30 35 C -3.6172 6.1525 0.972 0 CFG=1
M  V30 36 C -5.0184 4.1283 0.3876 0
M  V30 37 O -1.4188 6.6083 0.1469 0
M  V30 38 O -4.0684 6.8919 -0.1665 0
M  V30 39 C -0.1434 7.2203 0.2787 0
M  V30 40 H 0.329 -6.9664 -1.1255 0
M  V30 41 H 4.2399 -6.7708 -2.1704 0
M  V30 42 H 3.5483 -5.3562 -3.0128 0
M  V30 43 H 3.7316 -5.492 -0.0195 0
M  V30 44 H 2.651 -5.9815 1.893 0
M  V30 45 H 1.3091 -6.6423 0.9811 0
M  V30 46 H 3.359 -3.1465 -2.1213 0
M  V30 47 H 1.6914 -3.6489 -2.3459 0
M  V30 48 H 3.3535 -2.017 0.7024 0
M  V30 49 H 4.4768 -3.2219 0.0907 0
M  V30 50 H 3.5862 -3.5221 1.5785 0
M  V30 51 H 1.5254 -4.0479 2.4146 0
M  V30 52 H 0.0716 -4.918 1.9003 0
M  V30 53 H -0.8614 -4.2471 -0.1396 0
M  V30 54 H 1.3013 -1.7165 1.2148 0
M  V30 55 H 2.6941 -1.0488 -1.1466 0
M  V30 56 H 1.7889 -1.2876 -2.6226 0
M  V30 57 H -0.2156 -1.9125 -1.4333 0
M  V30 58 H -1.5907 -2.5257 0.6911 0
M  V30 59 H -0.7607 -2.5186 2.2397 0
M  V30 60 H -0.4448 -0.1147 2.153 0
M  V30 61 H -2.1411 -0.5256 1.9424 0
M  V30 62 H -0.9694 0.2113 -2.617 0
M  V30 63 H 1.4716 0.4471 1.0278 0
M  V30 64 H 2.1709 0.9513 -0.4842 0
M  V30 65 H 1.5959 1.886 -2.4993 0
M  V30 66 H 0.374 1.7023 -3.8717 0
M  V30 67 H -3.1235 -0.1555 -0.2324 0
M  V30 68 H -2.543 1.7033 0.9358 0
M  V30 69 H -1.8593 2.1721 -0.5805 0
M  V30 70 H 0.7761 2.9627 -0.5495 0
M  V30 71 H 1.5904 2.8492 0.9789 0
M  V30 72 H -0.3938 2.1048 2.1198 0
M  V30 73 H -1.5409 3.6983 3.0805 0
M  V30 74 H -0.602 5.9754 2.6781 0
M  V30 75 H -2.2265 5.9469 3.3801 0
M  V30 76 H -2.9934 4.4193 -0.1928 0
M  V30 77 H -2.2618 7.6648 1.6924 0
M  V30 78 H -4.2975 6.3648 1.8058 0
M  V30 79 H -5.4468 4.6103 -0.496 0
M  V30 80 H -4.998 3.0463 0.2162 0
M  V30 81 H -5.6857 4.2981 1.2399 0
M  V30 82 H -3.293 6.9296 -0.7639 0
M  V30 83 H -0.2327 8.2227 0.7079 0
M  V30 84 H 0.2947 7.3085 -0.7192 0
M  V30 85 H 0.5236 6.6034 0.8857 0
M  V30 END ATOM
M  V30 BEGIN BOND
M  V30 1 2 1 2
M  V30 2 1 2 3
M  V30 3 1 2 4
M  V30 4 1 3 5
M  V30 5 2 4 6
M  V30 6 1 6 7
M  V30 7 1 7 8
M  V30 8 1 7 9
M  V30 9 1 8 10
M  V30 10 1 8 11
M  V30 11 1 8 12
M  V30 12 1 9 13
M  V30 13 1 10 14
M  V30 14 1 10 15
M  V30 15 1 11 16
M  V30 16 1 15 17
M  V30 17 1 15 18
M  V30 18 1 17 19
M  V30 19 1 18 20
M  V30 20 1 19 21
M  V30 21 1 19 22
M  V30 22 1 19 23
M  V30 23 2 21 24
M  V30 24 1 22 25
M  V30 25 1 22 26
M  V30 26 1 23 27
M  V30 27 1 26 28
M  V30 28 1 28 29
M  V30 29 1 29 30
M  V30 30 1 30 31
M  V30 31 1 30 32
M  V30 32 1 31 33
M  V30 33 1 32 34
M  V30 34 1 33 35
M  V30 35 1 33 36
M  V30 36 1 34 37
M  V30 37 1 35 38
M  V30 38 1 37 39
M  V30 39 1 5 6
M  V30 40 1 10 13
M  V30 41 1 16 17
M  V30 42 1 20 22
M  V30 43 1 27 28
M  V30 44 1 34 35
M  V30 45 1 4 40
M  V30 46 1 5 41
M  V30 47 1 5 42
M  V30 48 1 7 43
M  V30 49 1 9 44
M  V30 50 1 9 45
M  V30 51 1 11 46
M  V30 52 1 11 47
M  V30 53 1 12 48
M  V30 54 1 12 49
M  V30 55 1 12 50
M  V30 56 1 13 51
M  V30 57 1 13 52
M  V30 58 1 14 53
M  V30 59 1 15 54
M  V30 60 1 16 55
M  V30 61 1 16 56
M  V30 62 1 17 57
M  V30 63 1 18 58
M  V30 64 1 18 59
M  V30 65 1 20 60
M  V30 66 1 20 61
M  V30 67 1 21 62
M  V30 68 1 23 63
M  V30 69 1 23 64
M  V30 70 1 24 65
M  V30 71 1 24 66
M  V30 72 1 25 67
M  V30 73 1 26 68
M  V30 74 1 26 69
M  V30 75 1 27 70
M  V30 76 1 27 71
M  V30 77 1 28 72
M  V30 78 1 30 73
M  V30 79 1 32 74
M  V30 80 1 32 75
M  V30 81 1 33 76
M  V30 82 1 34 77
M  V30 83 1 35 78
M  V30 84 1 36 79
M  V30 85 1 36 80
M  V30 86 1 36 81
M  V30 87 1 38 82
M  V30 88 1 39 83
M  V30 89 1 39 84
M  V30 90 1 39 85
M  V30 END BOND
M  V30 BEGIN COLLECTION
M  V30 MDLV30/STEABS ATOMS=(12 7 8 10 15 17 19 22 28 30 33 34 35)
M  V30 END COLLECTION
M  V30 END CTAB
M  END
>  <NO.>
6869

>  <Name>


>  <SMILES>
C=C[C@@]12CC[C@@H](O[C@H]3C[C@@H](OC)[C@@H](O)[C@H](C)O3)C[C@]1(O)CC[C@@H]1[C@@H]2CC[C@]2(C)[C@H](C3=CC(=O)OC3)CC[C@@]12O

>  <logBB>


>  <Class>
1

>  <MW>
546.32

>  <nHBAcc>
8

>  <nHBDon>
3

>  <SLogP>
3.42

>  <TopoPSA>
114.68

>  <MMFF94 Energy>
137.52

$$$$
CC(=O)C1=C(O)[C@H](N)[C@H]2Cc3c(c(O)c4c(O)c(C)ccc4c3C)C(=O)[C@@]2(O)C1=O
Actelion Java MolfileCreator 2.0

  0  0  0  0  0  0              0 V3000
M  V30 BEGIN CTAB
M  V30 COUNTS 51 54 0 0 0
M  V30 BEGIN ATOM
M  V30 1 O -2.423 0.8072 1.5341 0
M  V30 2 C -1.2728 0.457 1.2547 0
M  V30 3 C -0.6803 0.8276 -0.0587 0
M  V30 4 C -0.4444 -0.3723 2.2237 0 CFG=1
M  V30 5 C -1.489 1.4198 -1.0449 0
M  V30 6 C 0.6791 0.585 -0.3075 0
M  V30 7 O -1.0083 -0.1874 3.5333 0
M  V30 8 C -0.4982 -1.8661 1.9153 0
M  V30 9 C 1.0008 0.1065 2.1945 0 CFG=2
M  V30 10 O -2.8266 1.6841 -0.8034 0
M  V30 11 C -0.9814 1.7791 -2.3194 0
M  V30 12 C 1.2012 0.8766 -1.5958 0
M  V30 13 C 1.5692 -0.0031 0.768 0
M  V30 14 O -1.2871 -2.3376 1.0994 0
M  V30 15 C 0.4613 -2.7515 2.6382 0
M  V30 16 C 1.8652 -0.6968 3.1864 0 CFG=2
M  V30 17 C -1.7647 2.3971 -3.341 0
M  V30 18 C 0.3837 1.5068 -2.5912 0
M  V30 19 C 2.6472 0.5517 -1.9251 0
M  V30 20 C 1.5434 -2.1837 3.2185 0
M  V30 21 C 0.2534 -4.2286 2.7459 0
M  V30 22 N 1.7341 -0.146 4.537 0
M  V30 23 O -3.0976 2.6822 -3.1455 0
M  V30 24 C -1.2431 2.7523 -4.5898 0
M  V30 25 C 0.8892 1.885 -3.8592 0
M  V30 26 O 2.5008 -2.9139 3.9167 0
M  V30 27 O 1.1903 -4.9532 3.0972 0
M  V30 28 C -1.1027 -4.8149 2.4545 0
M  V30 29 C 0.0981 2.4923 -4.8375 0
M  V30 30 C -2.1008 3.4034 -5.6354 0
M  V30 31 H -1.9754 -0.0789 3.4012 0
M  V30 32 H 1.0322 1.1698 2.4796 0
M  V30 33 H -3.0354 1.4348 0.1269 0
M  V30 34 H 1.7701 -1.0491 0.5059 0
M  V30 35 H 2.5288 0.5294 0.7699 0
M  V30 36 H 2.9189 -0.5826 2.9013 0
M  V30 37 H 3.2482 1.4663 -1.9102 0
M  V30 38 H 3.0947 -0.1651 -1.2325 0
M  V30 39 H 2.723 0.0737 -2.9075 0
M  V30 40 H 2.2139 -0.7729 5.1867 0
M  V30 41 H 0.7468 -0.1493 4.8094 0
M  V30 42 H -3.3202 2.3737 -2.2429 0
M  V30 43 H 1.9331 1.7213 -4.117 0
M  V30 44 H 2.3126 -3.8767 3.8201 0
M  V30 45 H -1.1802 -5.7927 2.9403 0
M  V30 46 H -1.8948 -4.184 2.8665 0
M  V30 47 H -1.2288 -4.9459 1.3773 0
M  V30 48 H 0.5452 2.7592 -5.7924 0
M  V30 49 H -2.9423 2.7533 -5.8961 0
M  V30 50 H -2.4817 4.363 -5.2706 0
M  V30 51 H -1.5363 3.5975 -6.5536 0
M  V30 END ATOM
M  V30 BEGIN BOND
M  V30 1 2 1 2
M  V30 2 1 2 3
M  V30 3 1 2 4
M  V30 4 2 3 5
M  V30 5 1 3 6
M  V30 6 1 4 7
M  V30 7 1 4 8
M  V30 8 1 4 9
M  V30 9 1 5 10
M  V30 10 1 5 11
M  V30 11 2 6 12
M  V30 12 1 6 13
M  V30 13 2 8 14
M  V30 14 1 8 15
M  V30 15 1 9 16
M  V30 16 2 11 17
M  V30 17 1 11 18
M  V30 18 1 12 19
M  V30 19 2 15 20
M  V30 20 1 15 21
M  V30 21 1 16 22
M  V30 22 1 17 23
M  V30 23 1 17 24
M  V30 24 2 18 25
M  V30 25 1 20 26
M  V30 26 2 21 27
M  V30 27 1 21 28
M  V30 28 2 24 29
M  V30 29 1 24 30
M  V30 30 1 9 13
M  V30 31 1 12 18
M  V30 32 1 16 20
M  V30 33 1 25 29
M  V30 34 1 7 31
M  V30 35 1 9 32
M  V30 36 1 10 33
M  V30 37 1 13 34
M  V30 38 1 13 35
M  V30 39 1 16 36
M  V30 40 1 19 37
M  V30 41 1 19 38
M  V30 42 1 19 39
M  V30 43 1 22 40
M  V30 44 1 22 41
M  V30 45 1 23 42
M  V30 46 1 25 43
M  V30 47 1 26 44
M  V30 48 1 28 45
M  V30 49 1 28 46
M  V30 50 1 28 47
M  V30 51 1 29 48
M  V30 52 1 30 49
M  V30 53 1 30 50
M  V30 54 1 30 51
M  V30 END BOND
M  V30 BEGIN COLLECTION
M  V30 MDLV30/STEABS ATOMS=(3 4 9 16)
M  V30 END COLLECTION
M  V30 END CTAB
M  END
>  <NO.>
6877

>  <Name>
cetocycline

>  <SMILES>
CC(=O)C1=C(O)[C@H](N)[C@H]2Cc3c(c(O)c4c(O)c(C)ccc4c3C)C(=O)[C@@]2(O)C1=O

>  <logBB>


>  <Class>
-1

>  <MW>
411.13

>  <nHBAcc>
8

>  <nHBDon>
5

>  <SLogP>
1.27

>  <TopoPSA>
158.15

>  <MMFF94 Energy>
87.312

$$$$
CC(=O)Nc1ccc([C@H](O)CNC(C)C)cc1
Actelion Java MolfileCreator 2.0

  0  0  0  0  0  0              0 V3000
M  V30 BEGIN CTAB
M  V30 COUNTS 37 37 0 0 0
M  V30 BEGIN ATOM
M  V30 1 O 3.9712 -2.3345 -3.0357 0
M  V30 2 C 4.7036 -1.6133 -2.368 0
M  V30 3 N 4.3185 -0.6081 -1.4992 0
M  V30 4 C 6.2019 -1.7804 -2.4071 0
M  V30 5 C 3.0057 -0.1735 -1.2264 0
M  V30 6 C 1.8924 -0.5465 -1.9786 0
M  V30 7 C 2.8294 0.7015 -0.1492 0
M  V30 8 C 0.6199 -0.0608 -1.6535 0
M  V30 9 C 1.5583 1.1851 0.1776 0
M  V30 10 C 0.4363 0.8127 -0.5725 0
M  V30 11 C -0.9528 1.2978 -0.2223 0 CFG=2
M  V30 12 O -0.8972 2.5663 0.4422 0
M  V30 13 C -1.6992 0.2926 0.6887 0
M  V30 14 N -3.0035 0.8604 1.0895 0
M  V30 15 C -3.6819 0.0554 2.1149 0
M  V30 16 C -4.8465 0.8844 2.6607 0
M  V30 17 C -4.2037 -1.2745 1.5683 0
M  V30 18 H 5.0533 -0.1501 -0.9753 0
M  V30 19 H 6.688 -0.8113 -2.552 0
M  V30 20 H 6.4782 -2.4369 -3.2369 0
M  V30 21 H 6.5441 -2.224 -1.4681 0
M  V30 22 H 1.9807 -1.2094 -2.8339 0
M  V30 23 H 3.6734 1.0195 0.4567 0
M  V30 24 H -0.2274 -0.3719 -2.261 0
M  V30 25 H 1.4476 1.8639 1.0217 0
M  V30 26 H -1.5221 1.4599 -1.1461 0
M  V30 27 H -1.7352 2.6055 0.9474 0
M  V30 28 H -1.0983 0.1148 1.5896 0
M  V30 29 H -1.8265 -0.6613 0.1659 0
M  V30 30 H -3.6045 0.9376 0.2668 0
M  V30 31 H -2.9957 -0.1394 2.9481 0
M  V30 32 H -5.5816 1.1122 1.8802 0
M  V30 33 H -4.4912 1.8331 3.0789 0
M  V30 34 H -5.3635 0.3444 3.4615 0
M  V30 35 H -3.3853 -1.9292 1.2532 0
M  V30 36 H -4.8681 -1.1228 0.7102 0
M  V30 37 H -4.77 -1.811 2.3377 0
M  V30 END ATOM
M  V30 BEGIN BOND
M  V30 1 2 1 2
M  V30 2 1 2 3
M  V30 3 1 2 4
M  V30 4 1 3 5
M  V30 5 2 5 6
M  V30 6 1 5 7
M  V30 7 1 6 8
M  V30 8 2 7 9
M  V30 9 2 8 10
M  V30 10 1 10 11
M  V30 11 1 11 12
M  V30 12 1 11 13
M  V30 13 1 13 14
M  V30 14 1 14 15
M  V30 15 1 15 16
M  V30 16 1 15 17
M  V30 17 1 9 10
M  V30 18 1 3 18
M  V30 19 1 4 19
M  V30 20 1 4 20
M  V30 21 1 4 21
M  V30 22 1 6 22
M  V30 23 1 7 23
M  V30 24 1 8 24
M  V30 25 1 9 25
M  V30 26 1 11 26
M  V30 27 1 12 27
M  V30 28 1 13 28
M  V30 29 1 13 29
M  V30 30 1 14 30
M  V30 31 1 15 31
M  V30 32 1 16 32
M  V30 33 1 16 33
M  V30 34 1 16 34
M  V30 35 1 17 35
M  V30 36 1 17 36
M  V30 37 1 17 37
M  V30 END BOND
M  V30 BEGIN COLLECTION
M  V30 MDLV30/STEABS ATOMS=(1 11)
M  V30 END COLLECTION
M  V30 END CTAB
M  END
>  <NO.>
6886

>  <Name>
n-[4-[(1s)-1-hydroxy-2-(propan-2-ylamino)ethyl]phenyl]acetamide

>  <SMILES>
CC(=O)Nc1ccc([C@H](O)CNC(C)C)cc1

>  <logBB>


>  <Class>
1

>  <MW>
236.15

>  <nHBAcc>
3

>  <nHBDon>
3

>  <SLogP>
1.68

>  <TopoPSA>
61.36

>  <MMFF94 Energy>
29.804

$$$$
CC(=O)Nc1ccccc1
Actelion Java MolfileCreator 2.0

  0  0  0  0  0  0              0 V3000
M  V30 BEGIN CTAB
M  V30 COUNTS 19 19 0 0 0
M  V30 BEGIN ATOM
M  V30 1 O 0.4665 2.49 -0.8554 0
M  V30 2 C 0.7507 2.0157 0.2379 0
M  V30 3 N 0.4982 0.7313 0.6863 0
M  V30 4 C 1.4562 2.8442 1.2824 0
M  V30 5 C -0.1402 -0.3134 -0.0132 0
M  V30 6 C -0.6305 -0.1969 -1.3149 0
M  V30 7 C -0.2826 -1.5372 0.6551 0
M  V30 8 C -1.2524 -1.2839 -1.9384 0
M  V30 9 C -0.9039 -2.6232 0.0322 0
M  V30 10 C -1.3892 -2.4959 -1.266 0
M  V30 11 H 0.8054 0.5107 1.6249 0
M  V30 12 H 0.8352 2.9175 2.1798 0
M  V30 13 H 1.6393 3.8505 0.8952 0
M  V30 14 H 2.4145 2.3827 1.5372 0
M  V30 15 H -0.5459 0.7281 -1.8765 0
M  V30 16 H 0.0866 -1.6647 1.6691 0
M  V30 17 H -1.6292 -1.1778 -2.9527 0
M  V30 18 H -1.0084 -3.567 0.5609 0
M  V30 19 H -1.873 -3.3377 -1.7544 0
M  V30 END ATOM
M  V30 BEGIN BOND
M  V30 1 2 1 2
M  V30 2 1 2 3
M  V30 3 1 2 4
M  V30 4 1 3 5
M  V30 5 2 5 6
M  V30 6 1 5 7
M  V30 7 1 6 8
M  V30 8 2 7 9
M  V30 9 2 8 10
M  V30 10 1 9 10
M  V30 11 1 3 11
M  V30 12 1 4 12
M  V30 13 1 4 13
M  V30 14 1 4 14
M  V30 15 1 6 15
M  V30 16 1 7 16
M  V30 17 1 8 17
M  V30 18 1 9 18
M  V30 19 1 10 19
M  V30 END BOND
M  V30 END CTAB
M  END
>  <NO.>
6887

>  <Name>
acetanilide

>  <SMILES>
CC(=O)Nc1ccccc1

>  <logBB>


>  <Class>
1

>  <MW>
135.07

>  <nHBAcc>
1

>  <nHBDon>
1

>  <SLogP>
1.64

>  <TopoPSA>
29.1

>  <MMFF94 Energy>
-0.0119

$$$$
CC(=O)O[C@H](CC(=O)O)C[N+](C)(C)C
Actelion Java MolfileCreator 2.0

  0  0  0  0  0  0              0 V3000
M  V30 BEGIN CTAB
M  V30 COUNTS 32 31 0 0 0
M  V30 BEGIN ATOM
M  V30 1 O 1.162 -0.2323 -3.5668 0
M  V30 2 C 0.089 -0.6625 -3.1872 0
M  V30 3 O -0.8393 -1.1012 -4.0567 0
M  V30 4 C -0.39 -0.7846 -1.7654 0
M  V30 5 C 0.6989 -0.3641 -0.7808 0 CFG=1
M  V30 6 O 0.7639 1.082 -0.7759 0
M  V30 7 C 0.5416 -0.9525 0.6483 0
M  V30 8 C 1.9574 1.6115 -0.3779 0
M  V30 9 N -0.7432 -0.6193 1.4608 0 CHG=1
M  V30 10 O 2.8424 0.9679 0.1646 0
M  V30 11 C 1.995 3.0844 -0.6401 0
M  V30 12 C -1.0821 0.8641 1.4477 0
M  V30 13 C -0.4539 -1.0147 2.9226 0
M  V30 14 C -1.9515 -1.4287 1.0079 0
M  V30 15 H -0.4401 -0.9769 -4.9467 0
M  V30 16 H -1.2708 -0.1417 -1.6713 0
M  V30 17 H -0.6583 -1.8344 -1.6064 0
M  V30 18 H 1.6582 -0.7452 -1.1596 0
M  V30 19 H 1.3704 -0.6045 1.2729 0
M  V30 20 H 0.5988 -2.047 0.6064 0
M  V30 21 H 1.7678 3.2801 -1.6913 0
M  V30 22 H 1.2784 3.5932 0.0091 0
M  V30 23 H 2.999 3.4637 -0.4301 0
M  V30 24 H -1.8983 1.0375 2.1564 0
M  V30 25 H -0.1951 1.4268 1.7511 0
M  V30 26 H -1.4116 1.1443 0.4449 0
M  V30 27 H 0.3812 -0.409 3.2872 0
M  V30 28 H -1.3498 -0.8207 3.5203 0
M  V30 29 H -0.2008 -2.0789 2.9451 0
M  V30 30 H -2.7546 -1.2921 1.7392 0
M  V30 31 H -2.2882 -1.0632 0.0383 0
M  V30 32 H -1.6649 -2.4825 0.9521 0
M  V30 END ATOM
M  V30 BEGIN BOND
M  V30 1 2 1 2
M  V30 2 1 2 3
M  V30 3 1 2 4
M  V30 4 1 4 5
M  V30 5 1 5 6
M  V30 6 1 5 7
M  V30 7 1 6 8
M  V30 8 1 7 9
M  V30 9 2 8 10
M  V30 10 1 8 11
M  V30 11 1 9 12
M  V30 12 1 9 13
M  V30 13 1 9 14
M  V30 14 1 3 15
M  V30 15 1 4 16
M  V30 16 1 4 17
M  V30 17 1 5 18
M  V30 18 1 7 19
M  V30 19 1 7 20
M  V30 20 1 11 21
M  V30 21 1 11 22
M  V30 22 1 11 23
M  V30 23 1 12 24
M  V30 24 1 12 25
M  V30 25 1 12 26
M  V30 26 1 13 27
M  V30 27 1 13 28
M  V30 28 1 13 29
M  V30 29 1 14 30
M  V30 30 1 14 31
M  V30 31 1 14 32
M  V30 END BOND
M  V30 BEGIN COLLECTION
M  V30 MDLV30/STEABS ATOMS=(1 5)
M  V30 END COLLECTION
M  V30 END CTAB
M  END
>  <NO.>
6924

>  <Name>
o-acetylcarnitinium

>  <SMILES>
CC(=O)O[C@H](CC(=O)O)C[N+](C)(C)C

>  <logBB>


>  <Class>
-1

>  <MW>
204.12

>  <nHBAcc>
3

>  <nHBDon>
1

>  <SLogP>
0.1

>  <TopoPSA>
63.6

>  <MMFF94 Energy>
-9.3881

$$$$
CC(=O)Oc1ccc2c3c1O[C@H]1[C@H](OC(C)=O)C=C[C@H]4[C@H](C2)N(C)CCC[C@@]341
Actelion Java MolfileCreator 2.0

  0  0  0  0  0  0              0 V3000
M  V30 BEGIN CTAB
M  V30 COUNTS 53 57 0 0 0
M  V30 BEGIN ATOM
M  V30 1 O 3.8167 -0.3243 -2.8411 0
M  V30 2 C 3.0549 0.0472 -3.7246 0
M  V30 3 O 1.6967 -0.2207 -3.8353 0
M  V30 4 C 3.4807 0.8559 -4.9143 0
M  V30 5 C 1.1902 -0.855 -2.7082 0
M  V30 6 C 0.9316 -0.153 -1.5511 0
M  V30 7 C 0.8088 -2.2025 -2.7897 0
M  V30 8 O 1.0133 1.2061 -1.3586 0
M  V30 9 C 0.4016 -0.8027 -0.4595 0
M  V30 10 C 0.1668 -2.8372 -1.7047 0
M  V30 11 C 0.0879 1.4377 -0.2237 0 CFG=2
M  V30 12 C -0.0612 -2.1351 -0.52 0
M  V30 13 C 0.2083 0.192 0.6739 0 CFG=1
M  V30 14 C -1.3415 1.7146 -0.7959 0 CFG=2
M  V30 15 C -0.847 -2.7116 0.6721 0
M  V30 16 C -1.0162 -0.2728 1.4337 0 CFG=2
M  V30 17 C 1.4342 0.2602 1.6748 0
M  V30 18 O -1.6889 3.0719 -0.4308 0
M  V30 19 C -2.448 0.8215 -0.2862 0
M  V30 20 C -0.5726 -1.73 1.8293 0 CFG=1
M  V30 21 C -2.315 -0.0827 0.6952 0
M  V30 22 C 1.0979 0.1788 3.2175 0
M  V30 23 C -2.4189 3.7782 -1.3337 0
M  V30 24 N -0.684 -1.8106 3.2816 0
M  V30 25 C 0.5531 -1.1649 3.8523 0
M  V30 26 O -2.8248 3.3657 -2.4101 0
M  V30 27 C -2.6715 5.1598 -0.8117 0
M  V30 28 C -0.8161 -3.1832 3.7571 0
M  V30 29 H 3.3668 0.2629 -5.8249 0
M  V30 30 H 2.8861 1.7713 -4.973 0
M  V30 31 H 4.5324 1.1354 -4.8042 0
M  V30 32 H 0.9736 -2.7544 -3.7113 0
M  V30 33 H -0.1627 -3.8682 -1.807 0
M  V30 34 H 0.4537 2.3327 0.2944 0
M  V30 35 H -1.3028 1.6249 -1.8891 0
M  V30 36 H -0.4569 -3.7082 0.9074 0
M  V30 37 H -1.9119 -2.7956 0.437 0
M  V30 38 H -1.1716 0.3523 2.3213 0
M  V30 39 H 1.9662 1.2079 1.5199 0
M  V30 40 H 2.1702 -0.5211 1.4431 0
M  V30 41 H -3.4161 0.9387 -0.7693 0
M  V30 42 H 0.5169 -1.861 1.7711 0
M  V30 43 H -3.1754 -0.6607 1.0237 0
M  V30 44 H 2.0345 0.4024 3.7469 0
M  V30 45 H 0.4227 1.0021 3.4817 0
M  V30 46 H 0.3614 -0.9703 4.915 0
M  V30 47 H 1.3849 -1.883 3.8145 0
M  V30 48 H -3.2538 5.1064 0.1115 0
M  V30 49 H -1.7209 5.6706 -0.6389 0
M  V30 50 H -3.2417 5.7285 -1.552 0
M  V30 51 H -1.7346 -3.6347 3.3665 0
M  V30 52 H -0.8942 -3.2026 4.8497 0
M  V30 53 H 0.0308 -3.8125 3.4614 0
M  V30 END ATOM
M  V30 BEGIN BOND
M  V30 1 2 1 2
M  V30 2 1 2 3
M  V30 3 1 2 4
M  V30 4 1 3 5
M  V30 5 2 5 6
M  V30 6 1 5 7
M  V30 7 1 6 8
M  V30 8 1 6 9
M  V30 9 2 7 10
M  V30 10 1 8 11
M  V30 11 2 9 12
M  V30 12 1 9 13
M  V30 13 1 11 14
M  V30 14 1 12 15
M  V30 15 1 13 16
M  V30 16 1 13 17
M  V30 17 1 14 18
M  V30 18 1 14 19
M  V30 19 1 15 20
M  V30 20 1 16 21
M  V30 21 1 17 22
M  V30 22 1 18 23
M  V30 23 1 20 24
M  V30 24 1 22 25
M  V30 25 2 23 26
M  V30 26 1 23 27
M  V30 27 1 24 28
M  V30 28 1 10 12
M  V30 29 1 11 13
M  V30 30 1 16 20
M  V30 31 2 19 21
M  V30 32 1 24 25
M  V30 33 1 4 29
M  V30 34 1 4 30
M  V30 35 1 4 31
M  V30 36 1 7 32
M  V30 37 1 10 33
M  V30 38 1 11 34
M  V30 39 1 14 35
M  V30 40 1 15 36
M  V30 41 1 15 37
M  V30 42 1 16 38
M  V30 43 1 17 39
M  V30 44 1 17 40
M  V30 45 1 19 41
M  V30 46 1 20 42
M  V30 47 1 21 43
M  V30 48 1 22 44
M  V30 49 1 22 45
M  V30 50 1 25 46
M  V30 51 1 25 47
M  V30 52 1 27 48
M  V30 53 1 27 49
M  V30 54 1 27 50
M  V30 55 1 28 51
M  V30 56 1 28 52
M  V30 57 1 28 53
M  V30 END BOND
M  V30 BEGIN COLLECTION
M  V30 MDLV30/STEABS ATOMS=(5 11 13 14 16 20)
M  V30 END COLLECTION
M  V30 END CTAB
M  END
>  <NO.>
6931

>  <Name>


>  <SMILES>
CC(=O)Oc1ccc2c3c1O[C@H]1[C@H](OC(C)=O)C=C[C@H]4[C@H](C2)N(C)CCC[C@@]341

>  <logBB>


>  <Class>
1

>  <MW>
383.17

>  <nHBAcc>
6

>  <nHBDon>
0

>  <SLogP>
2.38

>  <TopoPSA>
65.07

>  <MMFF94 Energy>
153.05

$$$$
CC(C)(C)NC[C@@H](O)c1ccc(O)c(C(=O)O)c1
Actelion Java MolfileCreator 2.0

  0  0  0  0  0  0              0 V3000
M  V30 BEGIN CTAB
M  V30 COUNTS 37 37 0 0 0
M  V30 BEGIN ATOM
M  V30 1 O 4.5404 3.8348 0.7034 0
M  V30 2 C 3.8028 2.9049 0.9853 0
M  V30 3 O 3.4604 2.6343 2.2559 0
M  V30 4 C 3.2034 1.9843 -0.0057 0
M  V30 5 C 3.4687 2.1713 -1.3683 0
M  V30 6 C 2.3709 0.9271 0.395 0
M  V30 7 O 4.2653 3.1746 -1.8544 0
M  V30 8 C 2.913 1.3169 -2.3163 0
M  V30 9 C 1.8077 0.0548 -0.5528 0
M  V30 10 C 2.0867 0.2669 -1.9115 0
M  V30 11 C 0.8903 -1.0617 -0.0996 0 CFG=2
M  V30 12 O 1.0291 -2.1934 -0.9652 0
M  V30 13 C -0.5895 -0.6056 -0.0678 0
M  V30 14 N -1.4848 -1.7527 0.1881 0
M  V30 15 C -2.8672 -1.4007 0.5758 0
M  V30 16 C -2.9047 -0.7718 1.9787 0
M  V30 17 C -3.6532 -2.7261 0.6227 0
M  V30 18 C -3.5449 -0.4674 -0.4407 0
M  V30 19 H 3.9285 3.3125 2.7872 0
M  V30 20 H 2.1583 0.7755 1.4518 0
M  V30 21 H 4.6082 3.701 -1.1002 0
M  V30 22 H 3.1253 1.4658 -3.3719 0
M  V30 23 H 1.6642 -0.3962 -2.6649 0
M  V30 24 H 1.1987 -1.3966 0.899 0
M  V30 25 H 0.4971 -2.889 -0.5379 0
M  V30 26 H -0.8568 -0.164 -1.0358 0
M  V30 27 H -0.6932 0.1732 0.6942 0
M  V30 28 H -1.5283 -2.2934 -0.6795 0
M  V30 29 H -2.4421 0.22 2.0015 0
M  V30 30 H -3.9381 -0.65 2.3245 0
M  V30 31 H -2.3866 -1.4018 2.7112 0
M  V30 32 H -3.211 -3.4288 1.3393 0
M  V30 33 H -4.6933 -2.5584 0.9261 0
M  V30 34 H -3.6729 -3.2167 -0.3577 0
M  V30 35 H -3.0772 0.523 -0.4614 0
M  V30 36 H -3.5011 -0.8832 -1.4539 0
M  V30 37 H -4.6023 -0.3192 -0.1915 0
M  V30 END ATOM
M  V30 BEGIN BOND
M  V30 1 2 1 2
M  V30 2 1 2 3
M  V30 3 1 2 4
M  V30 4 2 4 5
M  V30 5 1 4 6
M  V30 6 1 5 7
M  V30 7 1 5 8
M  V30 8 2 6 9
M  V30 9 2 8 10
M  V30 10 1 9 11
M  V30 11 1 11 12
M  V30 12 1 11 13
M  V30 13 1 13 14
M  V30 14 1 14 15
M  V30 15 1 15 16
M  V30 16 1 15 17
M  V30 17 1 15 18
M  V30 18 1 9 10
M  V30 19 1 3 19
M  V30 20 1 6 20
M  V30 21 1 7 21
M  V30 22 1 8 22
M  V30 23 1 10 23
M  V30 24 1 11 24
M  V30 25 1 12 25
M  V30 26 1 13 26
M  V30 27 1 13 27
M  V30 28 1 14 28
M  V30 29 1 16 29
M  V30 30 1 16 30
M  V30 31 1 16 31
M  V30 32 1 17 32
M  V30 33 1 17 33
M  V30 34 1 17 34
M  V30 35 1 18 35
M  V30 36 1 18 36
M  V30 37 1 18 37
M  V30 END BOND
M  V30 BEGIN COLLECTION
M  V30 MDLV30/STEABS ATOMS=(1 11)
M  V30 END COLLECTION
M  V30 END CTAB
M  END
>  <NO.>
6960

>  <Name>
5-[(1s)-2-(tert-butylamino)-1-hydroxyethyl]-2-hydroxybenzoic acid

>  <SMILES>
CC(C)(C)NC[C@@H](O)c1ccc(O)c(C(=O)O)c1

>  <logBB>


>  <Class>
1

>  <MW>
253.13

>  <nHBAcc>
4

>  <nHBDon>
4

>  <SLogP>
1.51

>  <TopoPSA>
89.79

>  <MMFF94 Energy>
45.877

$$$$
CC(C)(Oc1ccc(CCNC(=O)c2ccccc2)cc1)C(=O)O
Actelion Java MolfileCreator 2.0

  0  0  0  0  0  0              0 V3000
M  V30 BEGIN CTAB
M  V30 COUNTS 45 46 0 0 0
M  V30 BEGIN ATOM
M  V30 1 O -4.5848 -0.6314 -0.3156 0
M  V30 2 C -3.6327 -0.2209 0.3379 0
M  V30 3 N -2.8289 0.822 -0.0653 0
M  V30 4 C -3.2968 -0.8424 1.6477 0
M  V30 5 C -2.9828 1.4509 -1.3639 0
M  V30 6 C -4.3332 -1.4085 2.4002 0
M  V30 7 C -1.98 -0.9044 2.1235 0
M  V30 8 C -2.3164 0.6514 -2.489 0
M  V30 9 C -4.0602 -2.0063 3.6316 0
M  V30 10 C -1.7114 -1.505 3.3559 0
M  V30 11 C -0.8255 0.496 -2.2877 0
M  V30 12 C -2.7509 -2.0504 4.1098 0
M  V30 13 C 0.0499 1.5489 -2.5873 0
M  V30 14 C -0.3027 -0.7033 -1.7833 0
M  V30 15 C 1.4225 1.4092 -2.3718 0
M  V30 16 C 1.0688 -0.8407 -1.5689 0
M  V30 17 C 1.9219 0.2288 -1.8294 0
M  V30 18 O 3.2645 0.0587 -1.6576 0
M  V30 19 C 3.8153 0.5231 -0.4043 0
M  V30 20 C 5.1976 -0.1433 -0.327 0
M  V30 21 C 4.0102 2.0447 -0.4249 0
M  V30 22 C 3.034 0.0959 0.8473 0
M  V30 23 O 6.2739 0.4112 -0.1596 0
M  V30 24 O 5.1584 -1.4907 -0.4404 0
M  V30 25 H -2.0921 1.1614 0.5365 0
M  V30 26 H -2.5491 2.454 -1.2867 0
M  V30 27 H -4.052 1.5622 -1.5765 0
M  V30 28 H -5.3553 -1.3824 2.0272 0
M  V30 29 H -1.1509 -0.5193 1.537 0
M  V30 30 H -2.7813 -0.3386 -2.5746 0
M  V30 31 H -2.4943 1.1531 -3.4483 0
M  V30 32 H -4.8687 -2.4412 4.2141 0
M  V30 33 H -0.6898 -1.5578 3.7244 0
M  V30 34 H -2.5394 -2.5205 5.0674 0
M  V30 35 H -0.3301 2.4795 -3.0029 0
M  V30 36 H -0.9633 -1.5394 -1.5615 0
M  V30 37 H 2.0946 2.2182 -2.6415 0
M  V30 38 H 1.4696 -1.7818 -1.2026 0
M  V30 39 H 3.052 2.573 -0.3867 0
M  V30 40 H 4.5171 2.3618 -1.3435 0
M  V30 41 H 4.6054 2.3879 0.4288 0
M  V30 42 H 2.8412 -0.9826 0.8504 0
M  V30 43 H 3.5889 0.3369 1.7613 0
M  V30 44 H 2.062 0.598 0.9073 0
M  V30 45 H 6.1001 -1.7588 -0.4159 0
M  V30 END ATOM
M  V30 BEGIN BOND
M  V30 1 2 1 2
M  V30 2 1 2 3
M  V30 3 1 2 4
M  V30 4 1 3 5
M  V30 5 2 4 6
M  V30 6 1 4 7
M  V30 7 1 5 8
M  V30 8 1 6 9
M  V30 9 2 7 10
M  V30 10 1 8 11
M  V30 11 2 9 12
M  V30 12 2 11 13
M  V30 13 1 11 14
M  V30 14 1 13 15
M  V30 15 2 14 16
M  V30 16 2 15 17
M  V30 17 1 17 18
M  V30 18 1 18 19
M  V30 19 1 19 20
M  V30 20 1 19 21
M  V30 21 1 19 22
M  V30 22 2 20 23
M  V30 23 1 20 24
M  V30 24 1 10 12
M  V30 25 1 16 17
M  V30 26 1 3 25
M  V30 27 1 5 26
M  V30 28 1 5 27
M  V30 29 1 6 28
M  V30 30 1 7 29
M  V30 31 1 8 30
M  V30 32 1 8 31
M  V30 33 1 9 32
M  V30 34 1 10 33
M  V30 35 1 12 34
M  V30 36 1 13 35
M  V30 37 1 14 36
M  V30 38 1 15 37
M  V30 39 1 16 38
M  V30 40 1 21 39
M  V30 41 1 21 40
M  V30 42 1 21 41
M  V30 43 1 22 42
M  V30 44 1 22 43
M  V30 45 1 22 44
M  V30 46 1 24 45
M  V30 END BOND
M  V30 END CTAB
M  END
>  <NO.>
6967

>  <Name>
chembl351286

>  <SMILES>
CC(C)(Oc1ccc(CCNC(=O)c2ccccc2)cc1)C(=O)O

>  <logBB>


>  <Class>
1

>  <MW>
327.15

>  <nHBAcc>
3

>  <nHBDon>
2

>  <SLogP>
2.9

>  <TopoPSA>
75.63

>  <MMFF94 Energy>
59.576

$$$$
CC(C)=CCC1C(=O)N(c2ccccc2)N(c2ccccc2)C1=O
Actelion Java MolfileCreator 2.0

  0  0  0  0  0  0              0 V3000
M  V30 BEGIN CTAB
M  V30 COUNTS 44 46 0 0 0
M  V30 BEGIN ATOM
M  V30 1 O 0.7945 0.4766 2.4647 0
M  V30 2 C 0.4697 0.118 1.3414 0
M  V30 3 N -0.8037 0.1025 0.7689 0
M  V30 4 C 1.4351 -0.3558 0.2834 0
M  V30 5 N -0.7473 -0.3743 -0.5503 0
M  V30 6 C -1.8989 0.8015 1.3275 0
M  V30 7 C 0.5727 -0.6399 -0.923 0
M  V30 8 C 2.4798 0.7174 -0.0067 0
M  V30 9 C -1.8592 -0.8472 -1.2849 0
M  V30 10 C -2.6534 1.6942 0.5557 0
M  V30 11 C -2.238 0.6099 2.6724 0
M  V30 12 O 0.9877 -1.0617 -1.9932 0
M  V30 13 C 3.6952 0.1554 -0.6973 0
M  V30 14 C -2.8881 -1.5592 -0.655 0
M  V30 15 C -1.9405 -0.6098 -2.6623 0
M  V30 16 C -3.7379 2.3723 1.1172 0
M  V30 17 C -3.3214 1.29 3.2329 0
M  V30 18 C 4.8867 -0.1409 -0.1427 0
M  V30 19 C -3.9862 -2.013 -1.3893 0
M  V30 20 C -3.0381 -1.0659 -3.3955 0
M  V30 21 C -4.0722 2.1687 2.4545 0
M  V30 22 C 6.0151 -0.6712 -0.9885 0
M  V30 23 C 5.2203 -0.0021 1.3173 0
M  V30 24 C -4.0614 -1.7647 -2.7583 0
M  V30 25 H 1.8778 -1.2959 0.6321 0
M  V30 26 H 2.0568 1.4968 -0.6549 0
M  V30 27 H 2.7689 1.2411 0.9105 0
M  V30 28 H -2.4045 1.8793 -0.4856 0
M  V30 29 H -1.6622 -0.0689 3.2975 0
M  V30 30 H 3.5663 -0.0091 -1.7687 0
M  V30 31 H -2.8456 -1.7762 0.4088 0
M  V30 32 H -1.1507 -0.0691 -3.1789 0
M  V30 33 H -4.3195 3.0619 0.5106 0
M  V30 34 H -3.5753 1.1361 4.2787 0
M  V30 35 H -4.7811 -2.5633 -0.8922 0
M  V30 36 H -3.0907 -0.8786 -4.465 0
M  V30 37 H -4.9144 2.6991 2.8919 0
M  V30 38 H 6.8825 -0.0064 -0.9213 0
M  V30 39 H 5.7403 -0.7527 -2.0454 0
M  V30 40 H 6.3117 -1.6673 -0.6443 0
M  V30 41 H 4.3561 0.2458 1.9378 0
M  V30 42 H 5.625 -0.9446 1.7015 0
M  V30 43 H 5.9739 0.7792 1.4585 0
M  V30 44 H -4.9146 -2.1211 -3.33 0
M  V30 END ATOM
M  V30 BEGIN BOND
M  V30 1 2 1 2
M  V30 2 1 2 3
M  V30 3 1 2 4
M  V30 4 1 3 5
M  V30 5 1 3 6
M  V30 6 1 4 7
M  V30 7 1 4 8
M  V30 8 1 5 9
M  V30 9 2 6 10
M  V30 10 1 6 11
M  V30 11 2 7 12
M  V30 12 1 8 13
M  V30 13 2 9 14
M  V30 14 1 9 15
M  V30 15 1 10 16
M  V30 16 2 11 17
M  V30 17 2 13 18
M  V30 18 1 14 19
M  V30 19 2 15 20
M  V30 20 2 16 21
M  V30 21 1 18 22
M  V30 22 1 18 23
M  V30 23 2 19 24
M  V30 24 1 5 7
M  V30 25 1 17 21
M  V30 26 1 20 24
M  V30 27 1 4 25
M  V30 28 1 8 26
M  V30 29 1 8 27
M  V30 30 1 10 28
M  V30 31 1 11 29
M  V30 32 1 13 30
M  V30 33 1 14 31
M  V30 34 1 15 32
M  V30 35 1 16 33
M  V30 36 1 17 34
M  V30 37 1 19 35
M  V30 38 1 20 36
M  V30 39 1 21 37
M  V30 40 1 22 38
M  V30 41 1 22 39
M  V30 42 1 22 40
M  V30 43 1 23 41
M  V30 44 1 23 42
M  V30 45 1 23 43
M  V30 46 1 24 44
M  V30 END BOND
M  V30 END CTAB
M  END
>  <NO.>
6970

>  <Name>
feprazone

>  <SMILES>
CC(C)=CCC1C(=O)N(c2ccccc2)N(c2ccccc2)C1=O

>  <logBB>


>  <Class>
1

>  <MW>
320.15

>  <nHBAcc>
2

>  <nHBDon>
0

>  <SLogP>
3.95

>  <TopoPSA>
40.62

>  <MMFF94 Energy>
58.017

$$$$
CC(C)COC[C@@H](CN1CCCC1)N(Cc1ccccc1)c1ccccc1
Actelion Java MolfileCreator 2.0

  0  0  0  0  0  0              0 V3000
M  V30 BEGIN CTAB
M  V30 COUNTS 61 63 0 0 0
M  V30 BEGIN ATOM
M  V30 1 O -1.5753 -1.0237 -1.8906 0
M  V30 2 C -0.2174 -1.4726 -1.9739 0
M  V30 3 C -2.4807 -1.9551 -2.4779 0
M  V30 4 C 0.743 -0.5122 -1.2259 0 CFG=2
M  V30 5 C -3.9175 -1.4257 -2.3787 0
M  V30 6 N 0.5629 -0.6359 0.2526 0
M  V30 7 C 0.5877 0.9434 -1.7728 0
M  V30 8 C -4.3416 -1.2383 -0.9209 0
M  V30 9 C -4.0776 -0.1097 -3.1418 0
M  V30 10 C 1.205 -1.7121 0.875 0
M  V30 11 C -0.646 -0.0516 0.857 0
M  V30 12 N 1.4176 1.9701 -1.1212 0
M  V30 13 C 2.5915 -1.8892 0.7431 0
M  V30 14 C 0.5188 -2.6586 1.6513 0
M  V30 15 C -0.4052 0.5095 2.2466 0
M  V30 16 C 1.129 3.3146 -1.6172 0
M  V30 17 C 2.8528 1.7865 -1.3173 0
M  V30 18 C 3.2615 -2.9604 1.3443 0
M  V30 19 C 1.1804 -3.7346 2.2556 0
M  V30 20 C 0.6613 1.3875 2.4909 0
M  V30 21 C -1.2808 0.2041 3.2996 0
M  V30 22 C 2.284 4.1285 -1.0588 0
M  V30 23 C 3.4389 3.1407 -0.9391 0
M  V30 24 C 2.5532 -3.8867 2.1 0
M  V30 25 C 0.8612 1.9304 3.7608 0
M  V30 26 C -1.0803 0.748 4.5702 0
M  V30 27 C -0.0092 1.6096 4.8005 0
M  V30 28 H -0.1402 -2.4848 -1.5598 0
M  V30 29 H 0.0667 -1.5131 -3.0323 0
M  V30 30 H -2.4035 -2.9161 -1.9555 0
M  V30 31 H -2.2124 -2.1101 -3.5297 0
M  V30 32 H 1.7585 -0.8284 -1.4932 0
M  V30 33 H -4.5826 -2.169 -2.8355 0
M  V30 34 H 0.8028 0.9261 -2.8506 0
M  V30 35 H -0.4607 1.2535 -1.6921 0
M  V30 36 H -3.745 -0.468 -0.421 0
M  V30 37 H -4.2291 -2.1723 -0.3605 0
M  V30 38 H -5.3932 -0.9376 -0.861 0
M  V30 39 H -3.4617 0.6865 -2.7101 0
M  V30 40 H -3.7876 -0.2321 -4.1906 0
M  V30 41 H -5.1205 0.2243 -3.1207 0
M  V30 42 H -1.0335 0.7822 0.2644 0
M  V30 43 H -1.4533 -0.7938 0.8725 0
M  V30 44 H 3.1792 -1.1613 0.1926 0
M  V30 45 H -0.5548 -2.5869 1.7906 0
M  V30 46 H 0.1644 3.6899 -1.2611 0
M  V30 47 H 1.1389 3.3532 -2.7139 0
M  V30 48 H 3.2639 0.9944 -0.6868 0
M  V30 49 H 3.0928 1.5601 -2.3638 0
M  V30 50 H 4.3373 -3.0572 1.2301 0
M  V30 51 H 0.6169 -4.4483 2.8501 0
M  V30 52 H 1.3455 1.6393 1.6831 0
M  V30 53 H -2.1231 -0.4631 3.1358 0
M  V30 54 H 2.0326 4.5243 -0.0673 0
M  V30 55 H 2.5353 4.9756 -1.7046 0
M  V30 56 H 3.8173 3.1325 0.0896 0
M  V30 57 H 4.2686 3.4109 -1.6004 0
M  V30 58 H 3.0692 -4.7165 2.574 0
M  V30 59 H 1.6979 2.6008 3.9349 0
M  V30 60 H -1.7601 0.499 5.3804 0
M  V30 61 H 0.148 2.0307 5.7895 0
M  V30 END ATOM
M  V30 BEGIN BOND
M  V30 1 1 1 2
M  V30 2 1 1 3
M  V30 3 1 2 4
M  V30 4 1 3 5
M  V30 5 1 4 6
M  V30 6 1 4 7
M  V30 7 1 5 8
M  V30 8 1 5 9
M  V30 9 1 6 10
M  V30 10 1 6 11
M  V30 11 1 7 12
M  V30 12 2 10 13
M  V30 13 1 10 14
M  V30 14 1 11 15
M  V30 15 1 12 16
M  V30 16 1 12 17
M  V30 17 1 13 18
M  V30 18 2 14 19
M  V30 19 2 15 20
M  V30 20 1 15 21
M  V30 21 1 16 22
M  V30 22 1 17 23
M  V30 23 2 18 24
M  V30 24 1 20 25
M  V30 25 2 21 26
M  V30 26 2 25 27
M  V30 27 1 19 24
M  V30 28 1 22 23
M  V30 29 1 26 27
M  V30 30 1 2 28
M  V30 31 1 2 29
M  V30 32 1 3 30
M  V30 33 1 3 31
M  V30 34 1 4 32
M  V30 35 1 5 33
M  V30 36 1 7 34
M  V30 37 1 7 35
M  V30 38 1 8 36
M  V30 39 1 8 37
M  V30 40 1 8 38
M  V30 41 1 9 39
M  V30 42 1 9 40
M  V30 43 1 9 41
M  V30 44 1 11 42
M  V30 45 1 11 43
M  V30 46 1 13 44
M  V30 47 1 14 45
M  V30 48 1 16 46
M  V30 49 1 16 47
M  V30 50 1 17 48
M  V30 51 1 17 49
M  V30 52 1 18 50
M  V30 53 1 19 51
M  V30 54 1 20 52
M  V30 55 1 21 53
M  V30 56 1 22 54
M  V30 57 1 22 55
M  V30 58 1 23 56
M  V30 59 1 23 57
M  V30 60 1 24 58
M  V30 61 1 25 59
M  V30 62 1 26 60
M  V30 63 1 27 61
M  V30 END BOND
M  V30 BEGIN COLLECTION
M  V30 MDLV30/STEABS ATOMS=(1 4)
M  V30 END COLLECTION
M  V30 END CTAB
M  END
>  <NO.>
6978

>  <Name>


>  <SMILES>
CC(C)COC[C@@H](CN1CCCC1)N(Cc1ccccc1)c1ccccc1

>  <logBB>


>  <Class>
1

>  <MW>
366.27

>  <nHBAcc>
3

>  <nHBDon>
0

>  <SLogP>
4.83

>  <TopoPSA>
15.71

>  <MMFF94 Energy>
107.49

$$$$
CC(C)N(CC[C@](C(N)=O)(c1ccccc1)c1cccnc1)C(C)C
Actelion Java MolfileCreator 2.0

  0  0  0  0  0  0              0 V3000
M  V30 BEGIN CTAB
M  V30 COUNTS 54 55 0 0 0
M  V30 BEGIN ATOM
M  V30 1 O 2.833 -2.0454 -1.4157 0
M  V30 2 C 1.9985 -2.5049 -0.6377 0
M  V30 3 N 2.0789 -3.8306 -0.3058 0
M  V30 4 C 0.8328 -1.6644 0.0132 0 CFG=2
M  V30 5 C 1.1468 -1.6314 1.5326 0
M  V30 6 C -0.5594 -2.2652 -0.3547 0
M  V30 7 C 0.8889 -0.2473 -0.67 0
M  V30 8 C 1.9721 -0.6546 2.0958 0
M  V30 9 C 0.7067 -2.6346 2.4158 0
M  V30 10 C -0.7517 -2.965 -1.5623 0
M  V30 11 C -1.6951 -2.0452 0.4518 0
M  V30 12 C -0.1489 0.7777 -0.171 0
M  V30 13 N 2.3144 -0.5909 3.4062 0
M  V30 14 C 1.0457 -2.5964 3.7669 0
M  V30 15 C -2.0057 -3.471 -1.916 0
M  V30 16 C -2.9483 -2.5514 0.0971 0
M  V30 17 N 0.2067 2.1662 -0.514 0
M  V30 18 C 1.8415 -1.5597 4.212 0
M  V30 19 C -3.1016 -3.2704 -1.0831 0
M  V30 20 C -0.4355 3.1854 0.344 0
M  V30 21 C 0.1992 2.4567 -1.963 0
M  V30 22 C -1.8944 2.9146 0.7412 0
M  V30 23 C 0.4184 3.3652 1.6074 0
M  V30 24 C -1.1839 2.6898 -2.577 0
M  V30 25 C 1.1315 3.6341 -2.2861 0
M  V30 26 H 2.835 -4.3708 -0.7044 0
M  V30 27 H 1.4165 -4.2892 0.3022 0
M  V30 28 H 0.7523 -0.3814 -1.7523 0
M  V30 29 H 1.8946 0.1801 -0.5632 0
M  V30 30 H 2.4133 0.1449 1.5064 0
M  V30 31 H 0.0906 -3.4605 2.068 0
M  V30 32 H 0.0696 -3.1172 -2.2613 0
M  V30 33 H -1.6247 -1.4608 1.368 0
M  V30 34 H -1.1404 0.5344 -0.5681 0
M  V30 35 H -0.2116 0.6869 0.9171 0
M  V30 36 H 0.6992 -3.3607 4.4534 0
M  V30 37 H -2.1268 -4.012 -2.8514 0
M  V30 38 H -3.8072 -2.3722 0.7393 0
M  V30 39 H 2.1343 -1.4814 5.2548 0
M  V30 40 H -4.0774 -3.6592 -1.3626 0
M  V30 41 H -0.4214 4.1588 -0.1583 0
M  V30 42 H 0.6404 1.6076 -2.4957 0
M  V30 43 H -2.5297 2.7453 -0.1323 0
M  V30 44 H -2.3036 3.7789 1.277 0
M  V30 45 H -1.9912 2.0498 1.4058 0
M  V30 46 H 0.0304 4.1882 2.2182 0
M  V30 47 H 0.4284 2.4656 2.2317 0
M  V30 48 H 1.4544 3.6102 1.3473 0
M  V30 49 H -1.8547 1.8466 -2.385 0
M  V30 50 H -1.1018 2.7961 -3.6647 0
M  V30 51 H -1.6541 3.6026 -2.1976 0
M  V30 52 H 1.2628 3.7264 -3.3703 0
M  V30 53 H 0.7448 4.5912 -1.9232 0
M  V30 54 H 2.1242 3.4774 -1.8494 0
M  V30 END ATOM
M  V30 BEGIN BOND
M  V30 1 2 1 2
M  V30 2 1 2 3
M  V30 3 1 2 4
M  V30 4 1 4 5
M  V30 5 1 4 6
M  V30 6 1 4 7
M  V30 7 2 5 8
M  V30 8 1 5 9
M  V30 9 2 6 10
M  V30 10 1 6 11
M  V30 11 1 7 12
M  V30 12 1 8 13
M  V30 13 2 9 14
M  V30 14 1 10 15
M  V30 15 2 11 16
M  V30 16 1 12 17
M  V30 17 2 13 18
M  V30 18 2 15 19
M  V30 19 1 17 20
M  V30 20 1 17 21
M  V30 21 1 20 22
M  V30 22 1 20 23
M  V30 23 1 21 24
M  V30 24 1 21 25
M  V30 25 1 14 18
M  V30 26 1 16 19
M  V30 27 1 3 26
M  V30 28 1 3 27
M  V30 29 1 7 28
M  V30 30 1 7 29
M  V30 31 1 8 30
M  V30 32 1 9 31
M  V30 33 1 10 32
M  V30 34 1 11 33
M  V30 35 1 12 34
M  V30 36 1 12 35
M  V30 37 1 14 36
M  V30 38 1 15 37
M  V30 39 1 16 38
M  V30 40 1 18 39
M  V30 41 1 19 40
M  V30 42 1 20 41
M  V30 43 1 21 42
M  V30 44 1 22 43
M  V30 45 1 22 44
M  V30 46 1 22 45
M  V30 47 1 23 46
M  V30 48 1 23 47
M  V30 49 1 23 48
M  V30 50 1 24 49
M  V30 51 1 24 50
M  V30 52 1 24 51
M  V30 53 1 25 52
M  V30 54 1 25 53
M  V30 55 1 25 54
M  V30 END BOND
M  V30 BEGIN COLLECTION
M  V30 MDLV30/STEABS ATOMS=(1 4)
M  V30 END COLLECTION
M  V30 END CTAB
M  END
>  <NO.>
6984

>  <Name>


>  <SMILES>
CC(C)N(CC[C@](C(N)=O)(c1ccccc1)c1cccnc1)C(C)C

>  <logBB>


>  <Class>
1

>  <MW>
339.23

>  <nHBAcc>
3

>  <nHBDon>
1

>  <SLogP>
3.36

>  <TopoPSA>
59.22

>  <MMFF94 Energy>
76.38

$$$$
CC(C)NC[C@H](O)COc1ccc(COCCOC(C)C)cc1
Actelion Java MolfileCreator 2.0

  0  0  0  0  0  0              0 V3000
M  V30 BEGIN CTAB
M  V30 COUNTS 54 54 0 0 0
M  V30 BEGIN ATOM
M  V30 1 O 2.7275 -1.7917 -0.3892 0
M  V30 2 C 1.3895 -2.0584 -0.2976 0
M  V30 3 C 3.1158 -0.4145 -0.4471 0
M  V30 4 C 0.3623 -1.1165 -0.2705 0
M  V30 5 C 1.0697 -3.4158 -0.2294 0
M  V30 6 C 4.6484 -0.3364 -0.5185 0 CFG=1
M  V30 7 C -0.9704 -1.5326 -0.1708 0
M  V30 8 C -0.2602 -3.8332 -0.1295 0
M  V30 9 O 5.0985 -0.7136 -1.8308 0
M  V30 10 C 5.1856 1.0789 -0.2177 0
M  V30 11 C -1.2968 -2.8932 -0.0869 0
M  V30 12 N 4.8221 2.0228 -1.2937 0
M  V30 13 C -2.7346 -3.3447 -0.022 0
M  V30 14 C 5.4236 3.3529 -1.1008 0
M  V30 15 O -3.4809 -2.4717 0.8241 0
M  V30 16 C 6.9114 3.3573 -1.4558 0
M  V30 17 C 4.6836 4.3535 -1.9938 0
M  V30 18 C -4.8552 -2.8611 0.9053 0
M  V30 19 C -5.6247 -1.8212 1.7183 0
M  V30 20 O -5.852 -0.664 0.9057 0
M  V30 21 C -6.473 0.4119 1.6127 0
M  V30 22 C -5.4276 1.2217 2.3729 0
M  V30 23 C -7.167 1.2875 0.5755 0
M  V30 24 H 2.7686 0.0945 0.4598 0
M  V30 25 H 2.6768 0.0445 -1.3408 0
M  V30 26 H 0.5562 -0.0515 -0.3276 0
M  V30 27 H 1.8659 -4.1558 -0.2582 0
M  V30 28 H 5.0871 -1.0529 0.1848 0
M  V30 29 H -1.7627 -0.7855 -0.1527 0
M  V30 30 H -0.4762 -4.8978 -0.0846 0
M  V30 31 H 5.1114 0.1194 -2.3451 0
M  V30 32 H 4.8111 1.4297 0.7506 0
M  V30 33 H 6.2762 1.0035 -0.1555 0
M  V30 34 H 3.8066 2.1272 -1.312 0
M  V30 35 H -3.1542 -3.335 -1.0347 0
M  V30 36 H -2.7932 -4.3624 0.3814 0
M  V30 37 H 5.2942 3.6773 -0.0607 0
M  V30 38 H 7.0798 2.994 -2.4759 0
M  V30 39 H 7.495 2.7329 -0.7728 0
M  V30 40 H 7.3195 4.3722 -1.392 0
M  V30 41 H 3.6192 4.3991 -1.737 0
M  V30 42 H 4.7659 4.0853 -3.0532 0
M  V30 43 H 5.0949 5.3612 -1.869 0
M  V30 44 H -4.9114 -3.834 1.4051 0
M  V30 45 H -5.2744 -2.9386 -0.1041 0
M  V30 46 H -6.5969 -2.2323 2.0108 0
M  V30 47 H -5.0558 -1.5494 2.6127 0
M  V30 48 H -7.2297 0.0225 2.3048 0
M  V30 49 H -5.8756 2.1013 2.846 0
M  V30 50 H -4.9547 0.6218 3.1562 0
M  V30 51 H -4.6261 1.5521 1.7029 0
M  V30 52 H -7.6768 2.1343 1.0452 0
M  V30 53 H -7.906 0.7025 0.0172 0
M  V30 54 H -6.4503 1.6715 -0.1589 0
M  V30 END ATOM
M  V30 BEGIN BOND
M  V30 1 1 1 2
M  V30 2 1 1 3
M  V30 3 2 2 4
M  V30 4 1 2 5
M  V30 5 1 3 6
M  V30 6 1 4 7
M  V30 7 2 5 8
M  V30 8 1 6 9
M  V30 9 1 6 10
M  V30 10 2 7 11
M  V30 11 1 10 12
M  V30 12 1 11 13
M  V30 13 1 12 14
M  V30 14 1 13 15
M  V30 15 1 14 16
M  V30 16 1 14 17
M  V30 17 1 15 18
M  V30 18 1 18 19
M  V30 19 1 19 20
M  V30 20 1 20 21
M  V30 21 1 21 22
M  V30 22 1 21 23
M  V30 23 1 8 11
M  V30 24 1 3 24
M  V30 25 1 3 25
M  V30 26 1 4 26
M  V30 27 1 5 27
M  V30 28 1 6 28
M  V30 29 1 7 29
M  V30 30 1 8 30
M  V30 31 1 9 31
M  V30 32 1 10 32
M  V30 33 1 10 33
M  V30 34 1 12 34
M  V30 35 1 13 35
M  V30 36 1 13 36
M  V30 37 1 14 37
M  V30 38 1 16 38
M  V30 39 1 16 39
M  V30 40 1 16 40
M  V30 41 1 17 41
M  V30 42 1 17 42
M  V30 43 1 17 43
M  V30 44 1 18 44
M  V30 45 1 18 45
M  V30 46 1 19 46
M  V30 47 1 19 47
M  V30 48 1 21 48
M  V30 49 1 22 49
M  V30 50 1 22 50
M  V30 51 1 22 51
M  V30 52 1 23 52
M  V30 53 1 23 53
M  V30 54 1 23 54
M  V30 END BOND
M  V30 BEGIN COLLECTION
M  V30 MDLV30/STEABS ATOMS=(1 6)
M  V30 END COLLECTION
M  V30 END CTAB
M  END
>  <NO.>
6987

>  <Name>
s-(-)-bisoprolol

>  <SMILES>
CC(C)NC[C@H](O)COc1ccc(COCCOC(C)C)cc1

>  <logBB>


>  <Class>
1

>  <MW>
325.23

>  <nHBAcc>
5

>  <nHBDon>
2

>  <SLogP>
2.37

>  <TopoPSA>
59.95

>  <MMFF94 Energy>
89.134

$$$$
CC(C)NC[C@H](O)COc1cccc(NS(C)(=O)=O)c1
Actelion Java MolfileCreator 2.0

  0  0  0  0  0  0              0 V3000
M  V30 BEGIN CTAB
M  V30 COUNTS 42 42 0 0 0
M  V30 BEGIN ATOM
M  V30 1 S 6.5951 -0.5549 -0.7928 0
M  V30 2 O 6.8215 -1.9357 -1.1569 0
M  V30 3 O 7.6351 0.4409 -0.9451 0
M  V30 4 N 5.2637 0.05 -1.6273 0
M  V30 5 C 6.0452 -0.4955 0.902 0
M  V30 6 C 4.0066 -0.6139 -1.5393 0
M  V30 7 C 2.9109 0.0855 -1.0297 0
M  V30 8 C 3.8526 -1.9343 -1.9532 0
M  V30 9 C 1.6622 -0.5341 -0.9149 0
M  V30 10 C 2.6093 -2.5571 -1.8428 0
M  V30 11 O 0.6786 0.261 -0.3936 0
M  V30 12 C 1.5154 -1.8602 -1.3223 0
M  V30 13 C -0.6193 -0.3284 -0.2305 0
M  V30 14 C -1.5402 0.7405 0.3703 0 CFG=1
M  V30 15 O -1.6698 1.8297 -0.5617 0
M  V30 16 C -2.9377 0.1652 0.662 0
M  V30 17 N -3.7733 1.1869 1.3055 0
M  V30 18 C -5.1671 0.7732 1.4853 0
M  V30 19 C -5.7975 1.7044 2.5228 0
M  V30 20 C -5.9672 0.8354 0.1826 0
M  V30 21 H 5.2547 1.0694 -1.6528 0
M  V30 22 H 5.7333 0.5234 1.1386 0
M  V30 23 H 5.2274 -1.2037 1.0441 0
M  V30 24 H 6.8889 -0.7788 1.5357 0
M  V30 25 H 3.0156 1.119 -0.7114 0
M  V30 26 H 4.6878 -2.4865 -2.3777 0
M  V30 27 H 2.493 -3.5881 -2.1693 0
M  V30 28 H 0.566 -2.3817 -1.257 0
M  V30 29 H -0.557 -1.1876 0.4472 0
M  V30 30 H -1.0028 -0.6339 -1.2115 0
M  V30 31 H -1.0909 1.1506 1.2831 0
M  V30 32 H -0.7582 2.1021 -0.7771 0
M  V30 33 H -3.3888 -0.1531 -0.2838 0
M  V30 34 H -2.8514 -0.7064 1.3202 0
M  V30 35 H -3.7222 2.0379 0.7374 0
M  V30 36 H -5.206 -0.2467 1.8872 0
M  V30 37 H -5.7991 2.7466 2.1832 0
M  V30 38 H -5.254 1.6586 3.4734 0
M  V30 39 H -6.8352 1.4148 2.7224 0
M  V30 40 H -5.59 0.1244 -0.5585 0
M  V30 41 H -5.9345 1.837 -0.2609 0
M  V30 42 H -7.0185 0.5865 0.3652 0
M  V30 END ATOM
M  V30 BEGIN BOND
M  V30 1 2 1 2
M  V30 2 2 1 3
M  V30 3 1 1 4
M  V30 4 1 1 5
M  V30 5 1 4 6
M  V30 6 2 6 7
M  V30 7 1 6 8
M  V30 8 1 7 9
M  V30 9 2 8 10
M  V30 10 1 9 11
M  V30 11 2 9 12
M  V30 12 1 11 13
M  V30 13 1 13 14
M  V30 14 1 14 15
M  V30 15 1 14 16
M  V30 16 1 16 17
M  V30 17 1 17 18
M  V30 18 1 18 19
M  V30 19 1 18 20
M  V30 20 1 10 12
M  V30 21 1 4 21
M  V30 22 1 5 22
M  V30 23 1 5 23
M  V30 24 1 5 24
M  V30 25 1 7 25
M  V30 26 1 8 26
M  V30 27 1 10 27
M  V30 28 1 12 28
M  V30 29 1 13 29
M  V30 30 1 13 30
M  V30 31 1 14 31
M  V30 32 1 15 32
M  V30 33 1 16 33
M  V30 34 1 16 34
M  V30 35 1 17 35
M  V30 36 1 18 36
M  V30 37 1 19 37
M  V30 38 1 19 38
M  V30 39 1 19 39
M  V30 40 1 20 40
M  V30 41 1 20 41
M  V30 42 1 20 42
M  V30 END BOND
M  V30 BEGIN COLLECTION
M  V30 MDLV30/STEABS ATOMS=(1 14)
M  V30 END COLLECTION
M  V30 END CTAB
M  END
>  <NO.>
6988

>  <Name>


>  <SMILES>
CC(C)NC[C@H](O)COc1cccc(NS(C)(=O)=O)c1

>  <logBB>


>  <Class>
1

>  <MW>
302.13

>  <nHBAcc>
5

>  <nHBDon>
3

>  <SLogP>
0.8

>  <TopoPSA>
87.66

>  <MMFF94 Energy>
-3.1026

$$$$
CC(C)N[C@@H](C)[C@@H](O)c1cccc2ccccc12
Actelion Java MolfileCreator 2.0

  0  0  0  0  0  0              0 V3000
M  V30 BEGIN CTAB
M  V30 COUNTS 39 40 0 0 0
M  V30 BEGIN ATOM
M  V30 1 O -1.3364 -2.5167 -0.1571 0
M  V30 2 C -0.1493 -1.7205 -0.313 0 CFG=1
M  V30 3 C -0.3761 -0.5718 -1.2912 0
M  V30 4 C 0.3145 -1.2321 1.0998 0 CFG=1
M  V30 5 C 0.7168 0.0709 -1.9515 0
M  V30 6 C -1.686 -0.1102 -1.525 0
M  V30 7 N -0.8709 -0.9431 1.9566 0
M  V30 8 C 1.1473 -2.3296 1.7777 0
M  V30 9 C 0.4458 1.1591 -2.8226 0
M  V30 10 C 2.0734 -0.3057 -1.7954 0
M  V30 11 C -1.9326 0.9546 -2.3842 0
M  V30 12 C -0.7382 0.3215 2.6986 0
M  V30 13 C -0.8733 1.5844 -3.0266 0
M  V30 14 C 1.4966 1.8162 -3.4842 0
M  V30 15 C 3.1081 0.3579 -2.4604 0
M  V30 16 C -0.9558 1.5317 1.7888 0
M  V30 17 C -1.7771 0.3358 3.8235 0
M  V30 18 C 2.8194 1.4198 -3.3045 0
M  V30 19 H -1.7877 -2.0929 0.602 0
M  V30 20 H 0.5872 -2.4028 -0.7505 0
M  V30 21 H 0.9653 -0.3564 0.9942 0
M  V30 22 H -2.5326 -0.5818 -1.031 0
M  V30 23 H -0.9806 -1.7029 2.6321 0
M  V30 24 H 1.4754 -2.0138 2.7742 0
M  V30 25 H 2.0448 -2.5487 1.1892 0
M  V30 26 H 0.5808 -3.2615 1.8844 0
M  V30 27 H 2.3536 -1.1338 -1.1506 0
M  V30 28 H -2.9516 1.2929 -2.5512 0
M  V30 29 H 0.2538 0.3838 3.1628 0
M  V30 30 H -1.0886 2.4158 -3.6941 0
M  V30 31 H 1.2889 2.6497 -4.1522 0
M  V30 32 H 4.1375 0.0395 -2.3182 0
M  V30 33 H -1.935 1.4923 1.2987 0
M  V30 34 H -0.1897 1.6007 1.0109 0
M  V30 35 H -0.9118 2.4605 2.3683 0
M  V30 36 H -1.6224 -0.5011 4.5135 0
M  V30 37 H -2.7977 0.2669 3.4301 0
M  V30 38 H -1.7032 1.2604 4.4065 0
M  V30 39 H 3.6192 1.9385 -3.8258 0
M  V30 END ATOM
M  V30 BEGIN BOND
M  V30 1 1 1 2
M  V30 2 1 2 3
M  V30 3 1 2 4
M  V30 4 1 3 5
M  V30 5 2 3 6
M  V30 6 1 4 7
M  V30 7 1 4 8
M  V30 8 1 5 9
M  V30 9 2 5 10
M  V30 10 1 6 11
M  V30 11 1 7 12
M  V30 12 1 9 13
M  V30 13 2 9 14
M  V30 14 1 10 15
M  V30 15 1 12 16
M  V30 16 1 12 17
M  V30 17 1 14 18
M  V30 18 2 11 13
M  V30 19 2 15 18
M  V30 20 1 1 19
M  V30 21 1 2 20
M  V30 22 1 4 21
M  V30 23 1 6 22
M  V30 24 1 7 23
M  V30 25 1 8 24
M  V30 26 1 8 25
M  V30 27 1 8 26
M  V30 28 1 10 27
M  V30 29 1 11 28
M  V30 30 1 12 29
M  V30 31 1 13 30
M  V30 32 1 14 31
M  V30 33 1 15 32
M  V30 34 1 16 33
M  V30 35 1 16 34
M  V30 36 1 16 35
M  V30 37 1 17 36
M  V30 38 1 17 37
M  V30 39 1 17 38
M  V30 40 1 18 39
M  V30 END BOND
M  V30 BEGIN COLLECTION
M  V30 MDLV30/STEABS ATOMS=(2 2 4)
M  V30 END COLLECTION
M  V30 END CTAB
M  END
>  <NO.>
6989

>  <Name>


>  <SMILES>
CC(C)N[C@@H](C)[C@@H](O)c1cccc2ccccc12

>  <logBB>


>  <Class>
1

>  <MW>
243.16

>  <nHBAcc>
2

>  <nHBDon>
2

>  <SLogP>
3.26

>  <TopoPSA>
32.26

>  <MMFF94 Energy>
67.974

$$$$
CC(C)N[C@@H](O)c1ccc(O)c(O)c1
Actelion Java MolfileCreator 2.0

  0  0  0  0  0  0              0 V3000
M  V30 BEGIN CTAB
M  V30 COUNTS 29 29 0 0 0
M  V30 BEGIN ATOM
M  V30 1 O -2.7183 1.0866 3.2627 0
M  V30 2 C -2.4563 0.6377 1.9998 0
M  V30 3 C -3.4447 0.6995 1.0218 0
M  V30 4 C -1.1985 0.1269 1.7115 0
M  V30 5 O -4.6592 1.2185 1.3766 0
M  V30 6 C -3.1855 0.2507 -0.2664 0
M  V30 7 C -0.9173 -0.3507 0.4194 0
M  V30 8 C -1.9216 -0.2695 -0.5654 0
M  V30 9 C 0.4521 -0.903 0.0611 0 CFG=2
M  V30 10 O 0.9775 -1.6529 1.1416 0
M  V30 11 N 1.3613 0.1799 -0.259 0
M  V30 12 C 2.6382 -0.2761 -0.8211 0
M  V30 13 C 2.4872 -0.6956 -2.2849 0
M  V30 14 C 3.6452 0.8743 -0.7233 0
M  V30 15 H -3.6419 1.4058 3.2209 0
M  V30 16 H -0.4395 0.1084 2.4895 0
M  V30 17 H -5.2274 1.2219 0.5872 0
M  V30 18 H -3.9383 0.3008 -1.0463 0
M  V30 19 H -1.7134 -0.6044 -1.5803 0
M  V30 20 H 0.3281 -1.5937 -0.7796 0
M  V30 21 H 0.2305 -2.1426 1.5245 0
M  V30 22 H 1.5429 0.6528 0.6249 0
M  V30 23 H 3.0428 -1.1157 -0.2429 0
M  V30 24 H 2.0585 0.1113 -2.8901 0
M  V30 25 H 1.8463 -1.5761 -2.3919 0
M  V30 26 H 3.4621 -0.9519 -2.7143 0
M  V30 27 H 3.8004 1.1746 0.3191 0
M  V30 28 H 3.308 1.7542 -1.2833 0
M  V30 29 H 4.6179 0.572 -1.1266 0
M  V30 END ATOM
M  V30 BEGIN BOND
M  V30 1 1 1 2
M  V30 2 2 2 3
M  V30 3 1 2 4
M  V30 4 1 3 5
M  V30 5 1 3 6
M  V30 6 2 4 7
M  V30 7 2 6 8
M  V30 8 1 7 9
M  V30 9 1 9 10
M  V30 10 1 9 11
M  V30 11 1 11 12
M  V30 12 1 12 13
M  V30 13 1 12 14
M  V30 14 1 7 8
M  V30 15 1 1 15
M  V30 16 1 4 16
M  V30 17 1 5 17
M  V30 18 1 6 18
M  V30 19 1 8 19
M  V30 20 1 9 20
M  V30 21 1 10 21
M  V30 22 1 11 22
M  V30 23 1 12 23
M  V30 24 1 13 24
M  V30 25 1 13 25
M  V30 26 1 13 26
M  V30 27 1 14 27
M  V30 28 1 14 28
M  V30 29 1 14 29
M  V30 END BOND
M  V30 BEGIN COLLECTION
M  V30 MDLV30/STEABS ATOMS=(1 9)
M  V30 END COLLECTION
M  V30 END CTAB
M  END
>  <NO.>
6990

>  <Name>


>  <SMILES>
CC(C)N[C@@H](O)c1ccc(O)c(O)c1

>  <logBB>


>  <Class>
1

>  <MW>
197.11

>  <nHBAcc>
4

>  <nHBDon>
4

>  <SLogP>
1.09

>  <TopoPSA>
72.72

>  <MMFF94 Energy>
-42.731

$$$$
CC1(C)O[C@H]2C[C@H]3[C@@H]4CCC5=CC(=O)C=C[C@H]5[C@]4(F)[C@H](O)C[C@]3(C)[C@@]2(C(=O)CO)O1
Actelion Java MolfileCreator 2.0

  0  0  0  0  0  0              0 V3000
M  V30 BEGIN CTAB
M  V30 COUNTS 59 63 0 0 0
M  V30 BEGIN ATOM
M  V30 1 F 1.2188 3.2528 1.3814 0
M  V30 2 C 0.4626 2.2477 0.8171 0 CFG=1
M  V30 3 C -1.0528 2.6293 1.034 0 CFG=1
M  V30 4 C 0.9413 2.1378 -0.6643 0 CFG=2
M  V30 5 C 0.8393 0.9221 1.5713 0 CFG=2
M  V30 6 C -1.3772 2.6005 2.5282 0
M  V30 7 C -1.4909 3.9386 0.4077 0
M  V30 8 O 0.6183 3.2793 -1.4542 0
M  V30 9 C 0.413 0.8856 -1.3906 0
M  V30 10 C 0.2493 -0.2796 0.8117 0 CFG=1
M  V30 11 C 0.4102 0.9701 3.0479 0
M  V30 12 C -1.8699 3.6512 3.2076 0
M  V30 13 C -1.0635 1.3095 3.232 0
M  V30 14 C -1.9841 4.9889 1.0777 0
M  V30 15 C 0.7824 -0.4082 -0.6368 0 CFG=1
M  V30 16 C 0.4278 -1.6871 1.3745 0
M  V30 17 C -2.1683 4.9349 2.54 0
M  V30 18 C 0.0733 -1.7275 -1.0857 0 CFG=2
M  V30 19 C 2.3258 -0.5919 -0.7099 0
M  V30 20 C 0.0287 -2.5882 0.1932 0 CFG=1
M  V30 21 O -2.5746 5.9031 3.1697 0
M  V30 22 O 0.8273 -2.4868 -2.0321 0
M  V30 23 C -1.3476 -1.5057 -1.6291 0
M  V30 24 O 0.9845 -3.6264 -0.0063 0
M  V30 25 C 1.113 -3.7526 -1.4221 0
M  V30 26 O -2.3245 -1.3567 -0.8872 0
M  V30 27 C -1.515 -1.4456 -3.1438 0
M  V30 28 C 0.1209 -4.7958 -1.9383 0
M  V30 29 C 2.5382 -4.1645 -1.764 0
M  V30 30 O -2.7839 -0.9167 -3.504 0
M  V30 31 H -1.6791 1.8627 0.5599 0
M  V30 32 H 2.036 2.1189 -0.6595 0
M  V30 33 H 1.9327 0.8392 1.5906 0
M  V30 34 H -1.4439 4.0154 -0.6754 0
M  V30 35 H 1.0149 4.0493 -1.0016 0
M  V30 36 H 0.8064 0.8593 -2.4148 0
M  V30 37 H -0.6728 0.99 -1.5013 0
M  V30 38 H -0.8359 -0.1221 0.7641 0
M  V30 39 H 1.0166 1.7278 3.5631 0
M  V30 40 H 0.6336 0.0186 3.5434 0
M  V30 41 H -2.0709 3.6249 4.2726 0
M  V30 42 H -1.283 1.3748 4.3047 0
M  V30 43 H -1.7003 0.5112 2.8342 0
M  V30 44 H -2.2916 5.9035 0.5854 0
M  V30 45 H -0.2335 -1.8597 2.2303 0
M  V30 46 H 1.4534 -1.8755 1.7096 0
M  V30 47 H 2.883 0.2402 -0.2743 0
M  V30 48 H 2.6662 -1.4866 -0.1822 0
M  V30 49 H 2.6532 -0.6798 -1.7524 0
M  V30 50 H -0.947 -3.0517 0.3772 0
M  V30 51 H -0.7463 -0.8038 -3.58 0
M  V30 52 H -1.432 -2.4558 -3.5528 0
M  V30 53 H -0.9111 -4.5151 -1.7012 0
M  V30 54 H 0.183 -4.8943 -3.0273 0
M  V30 55 H 0.3002 -5.7728 -1.4773 0
M  V30 56 H 2.7968 -5.1229 -1.3013 0
M  V30 57 H 2.6823 -4.2368 -2.8471 0
M  V30 58 H 3.2565 -3.4261 -1.3929 0
M  V30 59 H -3.4018 -1.1592 -2.7859 0
M  V30 END ATOM
M  V30 BEGIN BOND
M  V30 1 1 1 2
M  V30 2 1 2 3
M  V30 3 1 2 4
M  V30 4 1 2 5
M  V30 5 1 3 6
M  V30 6 1 3 7
M  V30 7 1 4 8
M  V30 8 1 4 9
M  V30 9 1 5 10
M  V30 10 1 5 11
M  V30 11 2 6 12
M  V30 12 1 6 13
M  V30 13 2 7 14
M  V30 14 1 9 15
M  V30 15 1 10 16
M  V30 16 1 12 17
M  V30 17 1 15 18
M  V30 18 1 15 19
M  V30 19 1 16 20
M  V30 20 2 17 21
M  V30 21 1 18 22
M  V30 22 1 18 23
M  V30 23 1 20 24
M  V30 24 1 22 25
M  V30 25 2 23 26
M  V30 26 1 23 27
M  V30 27 1 25 28
M  V30 28 1 25 29
M  V30 29 1 27 30
M  V30 30 1 10 15
M  V30 31 1 11 13
M  V30 32 1 14 17
M  V30 33 1 18 20
M  V30 34 1 24 25
M  V30 35 1 3 31
M  V30 36 1 4 32
M  V30 37 1 5 33
M  V30 38 1 7 34
M  V30 39 1 8 35
M  V30 40 1 9 36
M  V30 41 1 9 37
M  V30 42 1 10 38
M  V30 43 1 11 39
M  V30 44 1 11 40
M  V30 45 1 12 41
M  V30 46 1 13 42
M  V30 47 1 13 43
M  V30 48 1 14 44
M  V30 49 1 16 45
M  V30 50 1 16 46
M  V30 51 1 19 47
M  V30 52 1 19 48
M  V30 53 1 19 49
M  V30 54 1 20 50
M  V30 55 1 27 51
M  V30 56 1 27 52
M  V30 57 1 28 53
M  V30 58 1 28 54
M  V30 59 1 28 55
M  V30 60 1 29 56
M  V30 61 1 29 57
M  V30 62 1 29 58
M  V30 63 1 30 59
M  V30 END BOND
M  V30 BEGIN COLLECTION
M  V30 MDLV30/STEABS ATOMS=(8 2 3 4 5 10 15 18 20)
M  V30 END COLLECTION
M  V30 END CTAB
M  END
>  <NO.>
7003

>  <Name>


>  <SMILES>
CC1(C)O[C@H]2C[C@H]3[C@@H]4CCC5=CC(=O)C=C[C@H]5[C@]4(F)[C@H](O)C[C@]3(C)[C@@]2(C(=O)CO)O1

>  <logBB>


>  <Class>
1

>  <MW>
420.19

>  <nHBAcc>
6

>  <nHBDon>
2

>  <SLogP>
2.03

>  <TopoPSA>
93.06

>  <MMFF94 Energy>
163.7

$$$$
CC1=NNC2=CN=C(c3ccccc3Cl)c3cc(Cl)ccc3N21
Actelion Java MolfileCreator 2.0

  0  0  0  0  0  0              0 V3000
M  V30 BEGIN CTAB
M  V30 COUNTS 35 38 0 0 0
M  V30 BEGIN ATOM
M  V30 1 Cl 0.9875 -1.811 2.0581 0
M  V30 2 C -0.6932 -1.5654 2.3719 0
M  V30 3 C -1.5541 -0.9479 1.4552 0
M  V30 4 C -1.2018 -2.0337 3.5876 0
M  V30 5 C -1.0804 -0.4135 0.1378 0
M  V30 6 C -2.9227 -0.8371 1.7437 0
M  V30 7 C -2.5611 -1.9002 3.8816 0
M  V30 8 N -1.656 -0.9618 -0.8871 0
M  V30 9 C -0.0558 0.6832 0.1595 0
M  V30 10 C -3.4217 -1.3078 2.9583 0
M  V30 11 C -1.3001 -0.747 -2.1839 0
M  V30 12 C 0.9514 0.8377 -0.8174 0
M  V30 13 C -0.1341 1.5872 1.2461 0
M  V30 14 C -0.0982 -0.4088 -2.6665 0
M  V30 15 N 1.0218 0.04 -1.9863 0
M  V30 16 C 1.8569 1.9103 -0.6371 0
M  V30 17 C 0.7893 2.6143 1.3939 0
M  V30 18 N 0.2863 -0.5451 -3.985 0
M  V30 19 C 2.0548 -0.0513 -2.928 0
M  V30 20 C 1.7907 2.7788 0.4563 0
M  V30 21 Cl 0.6757 3.6889 2.7305 0
M  V30 22 N 1.6412 -0.3777 -4.1456 0
M  V30 23 C 3.5165 0.1327 -2.6615 0
M  V30 24 H -0.5454 -2.5153 4.3088 0
M  V30 25 H -3.5984 -0.3868 1.0192 0
M  V30 26 H -2.9509 -2.2721 4.8266 0
M  V30 27 H -4.4829 -1.2194 3.1806 0
M  V30 28 H -2.0512 -1.0876 -2.8931 0
M  V30 29 H -0.926 1.5047 1.9868 0
M  V30 30 H 2.6138 2.1348 -1.3817 0
M  V30 31 H -0.3192 -0.9362 -4.697 0
M  V30 32 H 2.5079 3.5909 0.5462 0
M  V30 33 H 3.8284 1.1272 -2.9903 0
M  V30 34 H 3.7429 -0.0048 -1.6018 0
M  V30 35 H 4.0835 -0.609 -3.2322 0
M  V30 END ATOM
M  V30 BEGIN BOND
M  V30 1 1 1 2
M  V30 2 2 2 3
M  V30 3 1 2 4
M  V30 4 1 3 5
M  V30 5 1 3 6
M  V30 6 2 4 7
M  V30 7 2 5 8
M  V30 8 1 5 9
M  V30 9 2 6 10
M  V30 10 1 8 11
M  V30 11 2 9 12
M  V30 12 1 9 13
M  V30 13 2 11 14
M  V30 14 1 12 15
M  V30 15 1 12 16
M  V30 16 2 13 17
M  V30 17 1 14 18
M  V30 18 1 15 19
M  V30 19 2 16 20
M  V30 20 1 17 21
M  V30 21 1 18 22
M  V30 22 1 19 23
M  V30 23 1 7 10
M  V30 24 1 14 15
M  V30 25 1 17 20
M  V30 26 2 19 22
M  V30 27 1 4 24
M  V30 28 1 6 25
M  V30 29 1 7 26
M  V30 30 1 10 27
M  V30 31 1 11 28
M  V30 32 1 13 29
M  V30 33 1 16 30
M  V30 34 1 18 31
M  V30 35 1 20 32
M  V30 36 1 23 33
M  V30 37 1 23 34
M  V30 38 1 23 35
M  V30 END BOND
M  V30 END CTAB
M  END
>  <NO.>
7046

>  <Name>


>  <SMILES>
CC1=NNC2=CN=C(c3ccccc3Cl)c3cc(Cl)ccc3N21

>  <logBB>


>  <Class>
1

>  <MW>
342.04

>  <nHBAcc>
4

>  <nHBDon>
1

>  <SLogP>
4.39

>  <TopoPSA>
39.99

>  <MMFF94 Energy>
143.79

$$$$
CCC#CC[C@H](C)[C@@H](O)C#C[C@H]1[C@@H](O)C[C@H]2C/C(=C/COCC(=O)O)C[C@H]12
Actelion Java MolfileCreator 2.0

  0  0  0  0  0  0              0 V3000
M  V30 BEGIN CTAB
M  V30 COUNTS 57 58 0 0 0
M  V30 BEGIN ATOM
M  V30 1 O 0.237 -0.4741 7.3688 0
M  V30 2 C 0.01 0.6443 6.9396 0
M  V30 3 O 0.5733 1.7196 7.5368 0
M  V30 4 C -0.8686 1.0462 5.7649 0
M  V30 5 O -1.4459 -0.0741 5.1085 0
M  V30 6 C -2.3068 0.3227 4.0467 0
M  V30 7 C -2.8188 -0.9223 3.3972 0
M  V30 8 C -2.7411 -1.2355 2.0935 0
M  V30 9 C -2.1111 -0.3845 0.9949 0
M  V30 10 C -3.302 -2.5304 1.5094 0
M  V30 11 C -2.0369 -1.3969 -0.128 0 CFG=1
M  V30 12 C -3.3428 -2.161 0.044 0 CFG=1
M  V30 13 C -2.1143 -1.0269 -1.5951 0 CFG=1
M  V30 14 C -3.2803 -3.1711 -1.0807 0
M  V30 15 C -0.8529 -0.5006 -2.1251 0
M  V30 16 C -2.5694 -2.3879 -2.2217 0 CFG=2
M  V30 17 C 0.1857 -0.0967 -2.5743 0
M  V30 18 O -1.4876 -3.1998 -2.6752 0
M  V30 19 C 1.464 0.3667 -3.1377 0 CFG=2
M  V30 20 O 1.493 0.0213 -4.5193 0
M  V30 21 C 2.6751 -0.2404 -2.3926 0 CFG=2
M  V30 22 C 4.0102 0.3444 -2.8921 0
M  V30 23 C 2.7348 -1.7708 -2.531 0
M  V30 24 C 4.1136 1.7909 -2.6433 0
M  V30 25 C 4.1921 2.9725 -2.4416 0
M  V30 26 C 4.2874 4.4171 -2.1912 0
M  V30 27 C 2.9097 5.0407 -2.0442 0
M  V30 28 H 1.1017 1.3209 8.261 0
M  V30 29 H -1.6655 1.6918 6.1508 0
M  V30 30 H -0.2452 1.598 5.0529 0
M  V30 31 H -1.7609 0.9606 3.3443 0
M  V30 32 H -3.1518 0.8889 4.4545 0
M  V30 33 H -3.2943 -1.6286 4.0758 0
M  V30 34 H -2.7655 0.4562 0.7405 0
M  V30 35 H -1.1179 -0.0136 1.2627 0
M  V30 36 H -4.2955 -2.7736 1.8968 0
M  V30 37 H -2.6161 -3.3629 1.6996 0
M  V30 38 H -1.1679 -2.0542 0.0456 0
M  V30 39 H -4.2093 -1.5023 -0.1321 0
M  V30 40 H -2.9109 -0.2861 -1.7462 0
M  V30 41 H -2.718 -4.0662 -0.7909 0
M  V30 42 H -4.2838 -3.4881 -1.3824 0
M  V30 43 H -3.244 -2.2198 -3.0681 0
M  V30 44 H -0.9719 -2.6726 -3.3125 0
M  V30 45 H 1.4764 1.4606 -3.0679 0
M  V30 46 H 2.0778 0.663 -4.9558 0
M  V30 47 H 2.5738 -0.0085 -1.3225 0
M  V30 48 H 4.1427 0.1437 -3.9618 0
M  V30 49 H 4.8418 -0.1538 -2.3781 0
M  V30 50 H 2.8452 -2.0764 -3.5768 0
M  V30 51 H 3.5871 -2.1745 -1.9733 0
M  V30 52 H 1.8336 -2.2456 -2.1305 0
M  V30 53 H 4.8205 4.9021 -3.0163 0
M  V30 54 H 4.8682 4.5981 -1.28 0
M  V30 55 H 2.3122 4.8988 -2.9515 0
M  V30 56 H 2.9964 6.116 -1.8585 0
M  V30 57 H 2.3602 4.594 -1.2083 0
M  V30 END ATOM
M  V30 BEGIN BOND
M  V30 1 2 1 2
M  V30 2 1 2 3
M  V30 3 1 2 4
M  V30 4 1 4 5
M  V30 5 1 5 6
M  V30 6 1 6 7
M  V30 7 2 7 8
M  V30 8 1 8 9
M  V30 9 1 8 10
M  V30 10 1 9 11
M  V30 11 1 10 12
M  V30 12 1 11 13
M  V30 13 1 12 14
M  V30 14 1 13 15
M  V30 15 1 13 16
M  V30 16 3 15 17
M  V30 17 1 16 18
M  V30 18 1 17 19
M  V30 19 1 19 20
M  V30 20 1 19 21
M  V30 21 1 21 22
M  V30 22 1 21 23
M  V30 23 1 22 24
M  V30 24 3 24 25
M  V30 25 1 25 26
M  V30 26 1 26 27
M  V30 27 1 11 12
M  V30 28 1 14 16
M  V30 29 1 3 28
M  V30 30 1 4 29
M  V30 31 1 4 30
M  V30 32 1 6 31
M  V30 33 1 6 32
M  V30 34 1 7 33
M  V30 35 1 9 34
M  V30 36 1 9 35
M  V30 37 1 10 36
M  V30 38 1 10 37
M  V30 39 1 11 38
M  V30 40 1 12 39
M  V30 41 1 13 40
M  V30 42 1 14 41
M  V30 43 1 14 42
M  V30 44 1 16 43
M  V30 45 1 18 44
M  V30 46 1 19 45
M  V30 47 1 20 46
M  V30 48 1 21 47
M  V30 49 1 22 48
M  V30 50 1 22 49
M  V30 51 1 23 50
M  V30 52 1 23 51
M  V30 53 1 23 52
M  V30 54 1 26 53
M  V30 55 1 26 54
M  V30 56 1 27 55
M  V30 57 1 27 56
M  V30 58 1 27 57
M  V30 END BOND
M  V30 BEGIN COLLECTION
M  V30 MDLV30/STEABS ATOMS=(6 11 12 13 16 19 21)
M  V30 END COLLECTION
M  V30 END CTAB
M  END
>  <NO.>
7049

>  <Name>


>  <SMILES>
CCC#CC[C@H](C)[C@@H](O)C#C[C@H]1[C@@H](O)C[C@H]2C/C(=C/COCC(=O)O)C[C@H]12

>  <logBB>


>  <Class>
1

>  <MW>
374.21

>  <nHBAcc>
4

>  <nHBDon>
3

>  <SLogP>
2.22

>  <TopoPSA>
86.99

>  <MMFF94 Energy>
62.819

$$$$
CCC(=O)C(=O)c1ccc(OCC(=O)O)c(Cl)c1Cl
Actelion Java MolfileCreator 2.0

  0  0  0  0  0  0              0 V3000
M  V30 BEGIN CTAB
M  V30 COUNTS 29 29 0 0 0
M  V30 BEGIN ATOM
M  V30 1 Cl 1.806 -1.9703 2.0524 0
M  V30 2 C 0.8839 -1.1417 0.8297 0
M  V30 3 C 0.0795 -0.0364 1.1661 0
M  V30 4 C 0.9502 -1.6049 -0.5033 0
M  V30 5 Cl -0.0819 0.473 2.818 0
M  V30 6 C -0.6441 0.608 0.156 0
M  V30 7 O 1.7588 -2.687 -0.7409 0
M  V30 8 C 0.1956 -0.9627 -1.4894 0
M  V30 9 C -1.496 1.7859 0.4053 0
M  V30 10 C -0.6013 0.1345 -1.1609 0
M  V30 11 C 1.8915 -3.1495 -2.0789 0
M  V30 12 O -2.6695 1.7908 0.0587 0
M  V30 13 C -0.8787 3.0329 1.0164 0
M  V30 14 C 2.8528 -4.3223 -2.1437 0
M  V30 15 O 0.3266 3.2185 0.8964 0
M  V30 16 C -1.8146 4.0017 1.6949 0
M  V30 17 O 3.4592 -4.8533 -1.2295 0
M  V30 18 O 3.0021 -4.7806 -3.4071 0
M  V30 19 C -2.4031 3.4268 2.9681 0
M  V30 20 H 0.2006 -1.2887 -2.5253 0
M  V30 21 H -1.186 0.6247 -1.939 0
M  V30 22 H 2.3017 -2.3542 -2.7115 0
M  V30 23 H 0.9222 -3.5008 -2.4501 0
M  V30 24 H -2.6028 4.2888 0.9913 0
M  V30 25 H -1.25 4.9109 1.9304 0
M  V30 26 H 3.637 -5.5226 -3.3078 0
M  V30 27 H -3.0605 4.1591 3.4469 0
M  V30 28 H -1.6135 3.1629 3.6789 0
M  V30 29 H -2.989 2.5242 2.7692 0
M  V30 END ATOM
M  V30 BEGIN BOND
M  V30 1 1 1 2
M  V30 2 2 2 3
M  V30 3 1 2 4
M  V30 4 1 3 5
M  V30 5 1 3 6
M  V30 6 1 4 7
M  V30 7 2 4 8
M  V30 8 1 6 9
M  V30 9 2 6 10
M  V30 10 1 7 11
M  V30 11 2 9 12
M  V30 12 1 9 13
M  V30 13 1 11 14
M  V30 14 2 13 15
M  V30 15 1 13 16
M  V30 16 2 14 17
M  V30 17 1 14 18
M  V30 18 1 16 19
M  V30 19 1 8 10
M  V30 20 1 8 20
M  V30 21 1 10 21
M  V30 22 1 11 22
M  V30 23 1 11 23
M  V30 24 1 16 24
M  V30 25 1 16 25
M  V30 26 1 18 26
M  V30 27 1 19 27
M  V30 28 1 19 28
M  V30 29 1 19 29
M  V30 END BOND
M  V30 END CTAB
M  END
>  <NO.>
7050

>  <Name>


>  <SMILES>
CCC(=O)C(=O)c1ccc(OCC(=O)O)c(Cl)c1Cl

>  <logBB>


>  <Class>
1

>  <MW>
303.99

>  <nHBAcc>
4

>  <nHBDon>
1

>  <SLogP>
2.62

>  <TopoPSA>
80.67

>  <MMFF94 Energy>
74.388

$$$$
CCCC(=O)[C@]1(c2ccccc2)CCC=C[C@@H]1N(C)C
Actelion Java MolfileCreator 2.0

  0  0  0  0  0  0              0 V3000
M  V30 BEGIN CTAB
M  V30 COUNTS 45 46 0 0 0
M  V30 BEGIN ATOM
M  V30 1 O -1.4232 1.5024 0.9486 0
M  V30 2 C -0.5439 0.6508 1.0962 0
M  V30 3 C 0.4958 0.2902 -0.0179 0 CFG=1
M  V30 4 C -0.4576 -0.1025 2.4309 0
M  V30 5 C 0.2632 -1.1383 -0.6003 0
M  V30 6 C 0.5477 1.3951 -1.1845 0 CFG=1
M  V30 7 C 1.9148 0.2928 0.6656 0
M  V30 8 C -1.8006 -0.1368 3.1604 0
M  V30 9 C 1.2086 -1.7218 -1.4693 0
M  V30 10 C -0.8911 -1.8938 -0.3162 0
M  V30 11 N -0.6387 1.76 -2.0135 0
M  V30 12 C 1.1464 2.6966 -0.6522 0
M  V30 13 C 2.3077 1.6368 1.2857 0
M  V30 14 C -1.718 -0.9505 4.4417 0
M  V30 15 C 1.0229 -3.0014 -2.0015 0
M  V30 16 C -1.0769 -3.1739 -0.8486 0
M  V30 17 C -1.6557 0.7311 -2.1855 0
M  V30 18 C -0.2441 2.2471 -3.3445 0
M  V30 19 C 1.9133 2.8001 0.4422 0
M  V30 20 C -0.1179 -3.7295 -1.6871 0
M  V30 21 H -0.1217 -1.1282 2.2537 0
M  V30 22 H 0.2858 0.3922 3.0622 0
M  V30 23 H 1.2951 1.0169 -1.8982 0
M  V30 24 H 1.9955 -0.4918 1.4284 0
M  V30 25 H 2.6885 0.051 -0.075 0
M  V30 26 H -2.1214 0.8832 3.4035 0
M  V30 27 H -2.5714 -0.5642 2.5085 0
M  V30 28 H 2.1098 -1.1866 -1.7601 0
M  V30 29 H -1.6918 -1.4987 0.3047 0
M  V30 30 H 0.916 3.6144 -1.1881 0
M  V30 31 H 3.3932 1.6529 1.4392 0
M  V30 32 H 1.8547 1.756 2.2748 0
M  V30 33 H -2.6873 -0.9566 4.9502 0
M  V30 34 H -1.439 -1.9877 4.2304 0
M  V30 35 H -0.9769 -0.5277 5.1277 0
M  V30 36 H 1.7708 -3.4252 -2.6671 0
M  V30 37 H -1.98 -3.7319 -0.6128 0
M  V30 38 H -1.273 -0.1504 -2.7093 0
M  V30 39 H -2.1041 0.4352 -1.2361 0
M  V30 40 H -2.493 1.1209 -2.778 0
M  V30 41 H 0.2149 1.4544 -3.947 0
M  V30 42 H 0.4614 3.0818 -3.2886 0
M  V30 43 H -1.1169 2.6274 -3.8882 0
M  V30 44 H 2.2657 3.782 0.751 0
M  V30 45 H -0.2648 -4.7227 -2.1027 0
M  V30 END ATOM
M  V30 BEGIN BOND
M  V30 1 2 1 2
M  V30 2 1 2 3
M  V30 3 1 2 4
M  V30 4 1 3 5
M  V30 5 1 3 6
M  V30 6 1 3 7
M  V30 7 1 4 8
M  V30 8 2 5 9
M  V30 9 1 5 10
M  V30 10 1 6 11
M  V30 11 1 6 12
M  V30 12 1 7 13
M  V30 13 1 8 14
M  V30 14 1 9 15
M  V30 15 2 10 16
M  V30 16 1 11 17
M  V30 17 1 11 18
M  V30 18 2 12 19
M  V30 19 2 15 20
M  V30 20 1 13 19
M  V30 21 1 16 20
M  V30 22 1 4 21
M  V30 23 1 4 22
M  V30 24 1 6 23
M  V30 25 1 7 24
M  V30 26 1 7 25
M  V30 27 1 8 26
M  V30 28 1 8 27
M  V30 29 1 9 28
M  V30 30 1 10 29
M  V30 31 1 12 30
M  V30 32 1 13 31
M  V30 33 1 13 32
M  V30 34 1 14 33
M  V30 35 1 14 34
M  V30 36 1 14 35
M  V30 37 1 15 36
M  V30 38 1 16 37
M  V30 39 1 17 38
M  V30 40 1 17 39
M  V30 41 1 17 40
M  V30 42 1 18 41
M  V30 43 1 18 42
M  V30 44 1 18 43
M  V30 45 1 19 44
M  V30 46 1 20 45
M  V30 END BOND
M  V30 BEGIN COLLECTION
M  V30 MDLV30/STEABS ATOMS=(2 3 6)
M  V30 END COLLECTION
M  V30 END CTAB
M  END
>  <NO.>
7083

>  <Name>


>  <SMILES>
CCCC(=O)[C@]1(c2ccccc2)CCC=C[C@@H]1N(C)C

>  <logBB>


>  <Class>
1

>  <MW>
271.19

>  <nHBAcc>
2

>  <nHBDon>
0

>  <SLogP>
3.57

>  <TopoPSA>
20.31

>  <MMFF94 Energy>
82.225

$$$$
CCCC(CCC)CCC[C@@H]1COCCN1CCO
Actelion Java MolfileCreator 2.0

  0  0  0  0  0  0              0 V3000
M  V30 BEGIN CTAB
M  V30 COUNTS 52 52 0 0 0
M  V30 BEGIN ATOM
M  V30 1 O -4.3683 -0.3115 0.3115 0
M  V30 2 C -2.9494 -0.3899 0.4864 0
M  V30 3 C -4.8362 -1.4822 -0.357 0
M  V30 4 C -2.1952 -0.5164 -0.8662 0 CFG=2
M  V30 5 C -4.176 -1.6244 -1.7322 0
M  V30 6 N -2.6961 -1.6992 -1.6435 0
M  V30 7 C -0.6656 -0.5958 -0.6237 0
M  V30 8 C -2.0997 -1.7645 -3.0024 0
M  V30 9 C -0.0952 0.5596 0.2118 0
M  V30 10 C -2.583 -2.9319 -3.8858 0
M  V30 11 C 1.4381 0.5141 0.2475 0
M  V30 12 O -3.7978 -2.604 -4.5553 0
M  V30 13 C 2.0833 1.7217 0.9642 0
M  V30 14 C 1.5627 1.9453 2.4042 0
M  V30 15 C 3.6272 1.6238 0.9592 0
M  V30 16 C 1.775 0.7703 3.3628 0
M  V30 17 C 4.2452 1.7476 -0.4368 0
M  V30 18 C 1.2308 1.0854 4.7488 0
M  V30 19 C 5.7648 1.7818 -0.3683 0
M  V30 20 H -2.7138 -1.2274 1.155 0
M  V30 21 H -2.6648 0.5332 0.9992 0
M  V30 22 H -5.9204 -1.3856 -0.4751 0
M  V30 23 H -4.6488 -2.3626 0.2696 0
M  V30 24 H -2.4131 0.3905 -1.4482 0
M  V30 25 H -4.5782 -2.5373 -2.1818 0
M  V30 26 H -4.4673 -0.7697 -2.3565 0
M  V30 27 H -0.4182 -1.5471 -0.1353 0
M  V30 28 H -0.1418 -0.5847 -1.5854 0
M  V30 29 H -1.0221 -1.9183 -2.8939 0
M  V30 30 H -2.2594 -0.8168 -3.532 0
M  V30 31 H -0.4806 0.4921 1.2332 0
M  V30 32 H -0.4242 1.5163 -0.2103 0
M  V30 33 H -1.8324 -3.1365 -4.6567 0
M  V30 34 H -2.7265 -3.8446 -3.2977 0
M  V30 35 H 1.7657 -0.422 0.7152 0
M  V30 36 H 1.7974 0.4828 -0.7873 0
M  V30 37 H -4.0553 -3.3888 -5.0685 0
M  V30 38 H 1.8107 2.623 0.3973 0
M  V30 39 H 2.0551 2.8347 2.8196 0
M  V30 40 H 0.4953 2.1953 2.3685 0
M  V30 41 H 3.9454 0.6747 1.4072 0
M  V30 42 H 4.0359 2.4239 1.5897 0
M  V30 43 H 1.2733 -0.1272 2.9874 0
M  V30 44 H 2.8412 0.537 3.4502 0
M  V30 45 H 3.9461 0.9028 -1.0653 0
M  V30 46 H 3.8879 2.6623 -0.9236 0
M  V30 47 H 1.3917 0.2367 5.4209 0
M  V30 48 H 1.7322 1.9585 5.1784 0
M  V30 49 H 0.1559 1.2895 4.7111 0
M  V30 50 H 6.1875 1.8654 -1.3744 0
M  V30 51 H 6.1125 2.6386 0.2178 0
M  V30 52 H 6.157 0.8688 0.0906 0
M  V30 END ATOM
M  V30 BEGIN BOND
M  V30 1 1 1 2
M  V30 2 1 1 3
M  V30 3 1 2 4
M  V30 4 1 3 5
M  V30 5 1 4 6
M  V30 6 1 4 7
M  V30 7 1 6 8
M  V30 8 1 7 9
M  V30 9 1 8 10
M  V30 10 1 9 11
M  V30 11 1 10 12
M  V30 12 1 11 13
M  V30 13 1 13 14
M  V30 14 1 13 15
M  V30 15 1 14 16
M  V30 16 1 15 17
M  V30 17 1 16 18
M  V30 18 1 17 19
M  V30 19 1 5 6
M  V30 20 1 2 20
M  V30 21 1 2 21
M  V30 22 1 3 22
M  V30 23 1 3 23
M  V30 24 1 4 24
M  V30 25 1 5 25
M  V30 26 1 5 26
M  V30 27 1 7 27
M  V30 28 1 7 28
M  V30 29 1 8 29
M  V30 30 1 8 30
M  V30 31 1 9 31
M  V30 32 1 9 32
M  V30 33 1 10 33
M  V30 34 1 10 34
M  V30 35 1 11 35
M  V30 36 1 11 36
M  V30 37 1 12 37
M  V30 38 1 13 38
M  V30 39 1 14 39
M  V30 40 1 14 40
M  V30 41 1 15 41
M  V30 42 1 15 42
M  V30 43 1 16 43
M  V30 44 1 16 44
M  V30 45 1 17 45
M  V30 46 1 17 46
M  V30 47 1 18 47
M  V30 48 1 18 48
M  V30 49 1 18 49
M  V30 50 1 19 50
M  V30 51 1 19 51
M  V30 52 1 19 52
M  V30 END BOND
M  V30 BEGIN COLLECTION
M  V30 MDLV30/STEABS ATOMS=(1 4)
M  V30 END COLLECTION
M  V30 END CTAB
M  END
>  <NO.>
7084

>  <Name>
unii-w239u04yz5

>  <SMILES>
CCCC(CCC)CCC[C@@H]1COCCN1CCO

>  <logBB>


>  <Class>
1

>  <MW>
271.25

>  <nHBAcc>
3

>  <nHBDon>
1

>  <SLogP>
3.07

>  <TopoPSA>
32.7

>  <MMFF94 Energy>
89.602

$$$$
CCCC[C@@H]1C(=O)C(=O)N(c2ccccc2)N1c1ccccc1
Actelion Java MolfileCreator 2.0

  0  0  0  0  0  0              0 V3000
M  V30 BEGIN CTAB
M  V30 COUNTS 43 45 0 0 0
M  V30 BEGIN ATOM
M  V30 1 O -0.7961 -3.4268 1.4334 0
M  V30 2 C -0.3703 -2.4132 0.9155 0
M  V30 3 N -0.8188 -1.1033 0.946 0
M  V30 4 C 0.8209 -2.4059 -0.0215 0
M  V30 5 N 0.0397 -0.2279 0.217 0
M  V30 6 C -2.0652 -0.6396 1.4345 0
M  V30 7 O 1.5361 -3.3678 -0.2348 0
M  V30 8 C 0.8992 -1.0443 -0.6727 0 CFG=2
M  V30 9 C 0.7385 0.7441 0.981 0
M  V30 10 C -2.7586 -1.3449 2.4266 0
M  V30 11 C -2.6354 0.5418 0.9363 0
M  V30 12 C 0.3 -1.1461 -2.0812 0
M  V30 13 C 0.9111 0.649 2.3718 0
M  V30 14 C 1.2862 1.8636 0.3346 0
M  V30 15 C -3.9885 -0.8832 2.9062 0
M  V30 16 C -3.8641 1.0042 1.4159 0
M  V30 17 C 0.4523 0.1099 -2.943 0
M  V30 18 C 1.6163 1.6255 3.0829 0
M  V30 19 C 1.9914 2.8415 1.0422 0
M  V30 20 C -4.5407 0.2905 2.4009 0
M  V30 21 C 1.8924 0.5089 -3.2761 0
M  V30 22 C 2.1587 2.72 2.4174 0
M  V30 23 C 2.6504 -0.5492 -4.0625 0
M  V30 24 H 1.9469 -0.7257 -0.6771 0
M  V30 25 H -2.3557 -2.2598 2.8536 0
M  V30 26 H -2.1323 1.1174 0.1639 0
M  V30 27 H -0.7724 -1.3748 -2.0097 0
M  V30 28 H 0.7417 -2.0003 -2.6087 0
M  V30 29 H 0.5056 -0.1888 2.9327 0
M  V30 30 H 1.1489 2.0006 -0.733 0
M  V30 31 H -4.5125 -1.4436 3.6765 0
M  V30 32 H -4.29 1.9219 1.0187 0
M  V30 33 H -0.0491 0.9517 -2.4523 0
M  V30 34 H -0.0887 -0.054 -3.8837 0
M  V30 35 H 1.7372 1.5287 4.1591 0
M  V30 36 H 2.4016 3.7009 0.5183 0
M  V30 37 H -5.4963 0.6485 2.775 0
M  V30 38 H 1.8637 1.4296 -3.8713 0
M  V30 39 H 2.4496 0.7477 -2.365 0
M  V30 40 H 2.7036 3.4801 2.9712 0
M  V30 41 H 3.6287 -0.1623 -4.3652 0
M  V30 42 H 2.8223 -1.4473 -3.4621 0
M  V30 43 H 2.1044 -0.8342 -4.967 0
M  V30 END ATOM
M  V30 BEGIN BOND
M  V30 1 2 1 2
M  V30 2 1 2 3
M  V30 3 1 2 4
M  V30 4 1 3 5
M  V30 5 1 3 6
M  V30 6 2 4 7
M  V30 7 1 4 8
M  V30 8 1 5 9
M  V30 9 2 6 10
M  V30 10 1 6 11
M  V30 11 1 8 12
M  V30 12 2 9 13
M  V30 13 1 9 14
M  V30 14 1 10 15
M  V30 15 2 11 16
M  V30 16 1 12 17
M  V30 17 1 13 18
M  V30 18 2 14 19
M  V30 19 2 15 20
M  V30 20 1 17 21
M  V30 21 2 18 22
M  V30 22 1 21 23
M  V30 23 1 5 8
M  V30 24 1 16 20
M  V30 25 1 19 22
M  V30 26 1 8 24
M  V30 27 1 10 25
M  V30 28 1 11 26
M  V30 29 1 12 27
M  V30 30 1 12 28
M  V30 31 1 13 29
M  V30 32 1 14 30
M  V30 33 1 15 31
M  V30 34 1 16 32
M  V30 35 1 17 33
M  V30 36 1 17 34
M  V30 37 1 18 35
M  V30 38 1 19 36
M  V30 39 1 20 37
M  V30 40 1 21 38
M  V30 41 1 21 39
M  V30 42 1 22 40
M  V30 43 1 23 41
M  V30 44 1 23 42
M  V30 45 1 23 43
M  V30 END BOND
M  V30 BEGIN COLLECTION
M  V30 MDLV30/STEABS ATOMS=(1 8)
M  V30 END COLLECTION
M  V30 END CTAB
M  END
>  <NO.>
7106

>  <Name>


>  <SMILES>
CCCC[C@@H]1C(=O)C(=O)N(c2ccccc2)N1c1ccccc1

>  <logBB>


>  <Class>
1

>  <MW>
308.15

>  <nHBAcc>
3

>  <nHBDon>
0

>  <SLogP>
3.58

>  <TopoPSA>
40.62

>  <MMFF94 Energy>
116.45

$$$$
CCCC[C@](C)(O)C/C=C/[C@@H]1[C@H](CCCCCCC(=O)OC)C(=O)C[C@H]1O
Actelion Java MolfileCreator 2.0

  0  0  0  0  0  0              0 V3000
M  V30 BEGIN CTAB
M  V30 COUNTS 65 65 0 0 0
M  V30 BEGIN ATOM
M  V30 1 O -2.4289 0.0 -3.6059 0
M  V30 2 C -1.2541 -0.3482 -3.6261 0
M  V30 3 C -0.1205 0.3859 -2.9317 0 CFG=2
M  V30 4 C -0.7853 -1.5786 -4.362 0
M  V30 5 C 0.9568 -0.7245 -2.8809 0 CFG=2
M  V30 6 C -0.493 0.9898 -1.576 0
M  V30 7 C 0.7271 -1.4967 -4.1933 0 CFG=2
M  V30 8 C 0.8645 -1.6467 -1.681 0
M  V30 9 C -1.2327 2.3258 -1.7161 0
M  V30 10 O 1.2979 -0.7643 -5.2774 0
M  V30 11 C 1.8816 -1.8546 -0.8291 0
M  V30 12 C -1.5711 2.9173 -0.3458 0
M  V30 13 C 1.7961 -2.7487 0.385 0
M  V30 14 C -2.3135 4.2478 -0.4823 0
M  V30 15 C 2.6914 -4.0138 0.3264 0 CFG=1
M  V30 16 C -2.6499 4.8401 0.8866 0
M  V30 17 O 4.0709 -3.6264 0.3317 0
M  V30 18 C 2.4626 -4.9228 1.5586 0
M  V30 19 C 2.4345 -4.8389 -0.9439 0
M  V30 20 C -3.3972 6.1656 0.7505 0
M  V30 21 C 2.7538 -4.2588 2.9115 0
M  V30 22 C -3.7342 6.7646 2.096 0
M  V30 23 C 2.6096 -5.2603 4.0595 0
M  V30 24 O -3.4418 6.2856 3.1822 0
M  V30 25 O -4.4169 7.9312 1.9128 0
M  V30 26 C 2.8876 -4.6091 5.4051 0
M  V30 27 C -4.7864 8.5839 3.1282 0
M  V30 28 H 0.2183 1.173 -3.6181 0
M  V30 29 H -1.1978 -2.4576 -3.8586 0
M  V30 30 H -1.0993 -1.5356 -5.4076 0
M  V30 31 H 1.9439 -0.2434 -2.8966 0
M  V30 32 H 0.4202 1.1633 -0.9932 0
M  V30 33 H -1.1206 0.2938 -1.0057 0
M  V30 34 H 1.1914 -2.4889 -4.1864 0
M  V30 35 H -0.0832 -2.1549 -1.5068 0
M  V30 36 H -2.1562 2.19 -2.2891 0
M  V30 37 H -0.6077 3.0333 -2.2746 0
M  V30 38 H 1.2049 -1.3031 -6.0835 0
M  V30 39 H 2.8272 -1.3366 -0.9787 0
M  V30 40 H -0.6484 3.0685 0.2274 0
M  V30 41 H -2.1897 2.2082 0.2176 0
M  V30 42 H 2.092 -2.1256 1.2377 0
M  V30 43 H 0.754 -3.0489 0.554 0
M  V30 44 H -3.2373 4.0958 -1.0537 0
M  V30 45 H -1.6964 4.9567 -1.0476 0
M  V30 46 H -1.727 4.9936 1.4598 0
M  V30 47 H -3.2607 4.1295 1.4575 0
M  V30 48 H 4.2546 -3.1638 -0.5032 0
M  V30 49 H 3.1179 -5.8002 1.472 0
M  V30 50 H 1.4296 -5.2941 1.5555 0
M  V30 51 H 3.058 -5.7406 -0.9525 0
M  V30 52 H 2.7034 -4.2834 -1.8489 0
M  V30 53 H 1.3856 -5.1439 -1.0188 0
M  V30 54 H -2.779 6.885 0.2021 0
M  V30 55 H -4.3331 6.0073 0.2029 0
M  V30 56 H 2.06 -3.4274 3.0787 0
M  V30 57 H 3.7686 -3.8446 2.9166 0
M  V30 58 H 1.5959 -5.6775 4.0644 0
M  V30 59 H 3.3043 -6.0958 3.9148 0
M  V30 60 H 2.7796 -5.3423 6.2105 0
M  V30 61 H 3.9057 -4.2088 5.4443 0
M  V30 62 H 2.188 -3.7891 5.5963 0
M  V30 63 H -5.3251 9.5 2.8707 0
M  V30 64 H -5.451 7.9461 3.7195 0
M  V30 65 H -3.8958 8.856 3.7034 0
M  V30 END ATOM
M  V30 BEGIN BOND
M  V30 1 2 1 2
M  V30 2 1 2 3
M  V30 3 1 2 4
M  V30 4 1 3 5
M  V30 5 1 3 6
M  V30 6 1 4 7
M  V30 7 1 5 8
M  V30 8 1 6 9
M  V30 9 1 7 10
M  V30 10 2 8 11
M  V30 11 1 9 12
M  V30 12 1 11 13
M  V30 13 1 12 14
M  V30 14 1 13 15
M  V30 15 1 14 16
M  V30 16 1 15 17
M  V30 17 1 15 18
M  V30 18 1 15 19
M  V30 19 1 16 20
M  V30 20 1 18 21
M  V30 21 1 20 22
M  V30 22 1 21 23
M  V30 23 2 22 24
M  V30 24 1 22 25
M  V30 25 1 23 26
M  V30 26 1 25 27
M  V30 27 1 5 7
M  V30 28 1 3 28
M  V30 29 1 4 29
M  V30 30 1 4 30
M  V30 31 1 5 31
M  V30 32 1 6 32
M  V30 33 1 6 33
M  V30 34 1 7 34
M  V30 35 1 8 35
M  V30 36 1 9 36
M  V30 37 1 9 37
M  V30 38 1 10 38
M  V30 39 1 11 39
M  V30 40 1 12 40
M  V30 41 1 12 41
M  V30 42 1 13 42
M  V30 43 1 13 43
M  V30 44 1 14 44
M  V30 45 1 14 45
M  V30 46 1 16 46
M  V30 47 1 16 47
M  V30 48 1 17 48
M  V30 49 1 18 49
M  V30 50 1 18 50
M  V30 51 1 19 51
M  V30 52 1 19 52
M  V30 53 1 19 53
M  V30 54 1 20 54
M  V30 55 1 20 55
M  V30 56 1 21 56
M  V30 57 1 21 57
M  V30 58 1 23 58
M  V30 59 1 23 59
M  V30 60 1 26 60
M  V30 61 1 26 61
M  V30 62 1 26 62
M  V30 63 1 27 63
M  V30 64 1 27 64
M  V30 65 1 27 65
M  V30 END BOND
M  V30 BEGIN COLLECTION
M  V30 MDLV30/STEABS ATOMS=(4 3 5 7 15)
M  V30 END COLLECTION
M  V30 END CTAB
M  END
>  <NO.>
7109

>  <Name>
zinc27638664

>  <SMILES>
CCCC[C@](C)(O)C/C=C/[C@@H]1[C@H](CCCCCCC(=O)OC)C(=O)C[C@H]1O

>  <logBB>


>  <Class>
1

>  <MW>
382.27

>  <nHBAcc>
5

>  <nHBDon>
2

>  <SLogP>
3.95

>  <TopoPSA>
83.83

>  <MMFF94 Energy>
39.184

$$$$
CCCC[N+]1(C)[C@@H]2CC(OC(=O)[C@@H](CO)c3ccccc3)C[C@@H]1[C@H]1O[C@H]12
Actelion Java MolfileCreator 2.0

  0  0  0  0  0  0              0 V3000
M  V30 BEGIN CTAB
M  V30 COUNTS 56 59 0 0 0
M  V30 BEGIN ATOM
M  V30 1 O -0.9595 2.5603 1.5996 0
M  V30 2 C -1.3885 1.7797 0.7609 0
M  V30 3 O -0.5911 0.9858 -0.0198 0
M  V30 4 C -2.8524 1.5418 0.4333 0 CFG=2
M  V30 5 C 0.8349 1.1896 0.0997 0
M  V30 6 C -3.2067 2.0055 -0.9725 0
M  V30 7 C -3.7566 2.1871 1.4911 0
M  V30 8 C 1.4677 0.6918 -1.2217 0
M  V30 9 C 1.3503 0.5117 1.392 0
M  V30 10 C -3.959 1.1706 -1.8126 0
M  V30 11 C -2.8194 3.2694 -1.4482 0
M  V30 12 O -4.9988 1.4827 1.5497 0
M  V30 13 C 2.8545 0.0532 -1.0597 0 CFG=1
M  V30 14 C 2.7541 -0.0999 1.2734 0 CFG=1
M  V30 15 C -4.2971 1.5801 -3.1034 0
M  V30 16 C -3.1584 3.6752 -2.7402 0
M  V30 17 N 2.7754 -1.055 0.0439 0 CHG=1
M  V30 18 C 3.8668 1.0597 -0.5343 0 CFG=2
M  V30 19 C 3.8036 0.9585 0.969 0 CFG=1
M  V30 20 C -3.8939 2.8299 -3.5679 0
M  V30 21 C 1.5955 -2.0336 -0.1104 0
M  V30 22 C 4.08 -1.8754 0.0227 0
M  V30 23 O 3.4166 2.1419 0.2759 0
M  V30 24 C 1.5185 -3.0547 1.028 0
M  V30 25 C 0.2397 -3.8891 0.9179 0
M  V30 26 C 0.1474 -4.9182 2.0333 0
M  V30 27 H -2.9942 0.453 0.4943 0
M  V30 28 H 1.0137 2.2711 0.1612 0
M  V30 29 H -3.9603 3.2415 1.2743 0
M  V30 30 H -3.3136 2.1227 2.4906 0
M  V30 31 H 1.5431 1.547 -1.9072 0
M  V30 32 H 0.7929 -0.0054 -1.7339 0
M  V30 33 H 0.6363 -0.2489 1.7302 0
M  V30 34 H 1.3587 1.2605 2.1952 0
M  V30 35 H -4.3046 0.2003 -1.4608 0
M  V30 36 H -2.2599 3.958 -0.8175 0
M  V30 37 H -5.6033 2.0131 2.0998 0
M  V30 38 H 3.1913 -0.4246 -1.986 0
M  V30 39 H 3.0179 -0.6848 2.1607 0
M  V30 40 H -4.8885 0.929 -3.7427 0
M  V30 41 H -2.8599 4.6577 -3.0983 0
M  V30 42 H 4.8167 1.1119 -1.0422 0
M  V30 43 H 4.7091 0.9332 1.5543 0
M  V30 44 H -4.1669 3.1516 -4.57 0
M  V30 45 H 0.6622 -1.4716 -0.1558 0
M  V30 46 H 1.7284 -2.5342 -1.0768 0
M  V30 47 H 4.9438 -1.2115 -0.059 0
M  V30 48 H 4.0478 -2.5433 -0.8427 0
M  V30 49 H 4.1507 -2.4396 0.9558 0
M  V30 50 H 2.3782 -3.7324 0.9942 0
M  V30 51 H 1.5355 -2.5515 2.0008 0
M  V30 52 H -0.6378 -3.2333 0.962 0
M  V30 53 H 0.2132 -4.4032 -0.0499 0
M  V30 54 H -0.7735 -5.5015 1.9356 0
M  V30 55 H 0.9939 -5.6114 1.9987 0
M  V30 56 H 0.1398 -4.4332 3.0147 0
M  V30 END ATOM
M  V30 BEGIN BOND
M  V30 1 2 1 2
M  V30 2 1 2 3
M  V30 3 1 2 4
M  V30 4 1 3 5
M  V30 5 1 4 6
M  V30 6 1 4 7
M  V30 7 1 5 8
M  V30 8 1 5 9
M  V30 9 2 6 10
M  V30 10 1 6 11
M  V30 11 1 7 12
M  V30 12 1 8 13
M  V30 13 1 9 14
M  V30 14 1 10 15
M  V30 15 2 11 16
M  V30 16 1 13 17
M  V30 17 1 13 18
M  V30 18 1 14 19
M  V30 19 2 15 20
M  V30 20 1 17 21
M  V30 21 1 17 22
M  V30 22 1 18 23
M  V30 23 1 21 24
M  V30 24 1 24 25
M  V30 25 1 25 26
M  V30 26 1 14 17
M  V30 27 1 16 20
M  V30 28 1 18 19
M  V30 29 1 19 23
M  V30 30 1 4 27
M  V30 31 1 5 28
M  V30 32 1 7 29
M  V30 33 1 7 30
M  V30 34 1 8 31
M  V30 35 1 8 32
M  V30 36 1 9 33
M  V30 37 1 9 34
M  V30 38 1 10 35
M  V30 39 1 11 36
M  V30 40 1 12 37
M  V30 41 1 13 38
M  V30 42 1 14 39
M  V30 43 1 15 40
M  V30 44 1 16 41
M  V30 45 1 18 42
M  V30 46 1 19 43
M  V30 47 1 20 44
M  V30 48 1 21 45
M  V30 49 1 21 46
M  V30 50 1 22 47
M  V30 51 1 22 48
M  V30 52 1 22 49
M  V30 53 1 24 50
M  V30 54 1 24 51
M  V30 55 1 25 52
M  V30 56 1 25 53
M  V30 57 1 26 54
M  V30 58 1 26 55
M  V30 59 1 26 56
M  V30 END BOND
M  V30 BEGIN COLLECTION
M  V30 MDLV30/STEABS ATOMS=(5 4 13 14 18 19)
M  V30 END COLLECTION
M  V30 END CTAB
M  END
>  <NO.>
7110

>  <Name>
[(1r,2r,4s,5r)-9-butyl-9-methyl-3-oxa-9-azoniatricyclo[3.3.1.02,4]nonan-7-yl] (2r)-3-hydroxy-2-phenylpropanoate

>  <SMILES>
CCCC[N+]1(C)[C@@H]2CC(OC(=O)[C@@H](CO)c3ccccc3)C[C@@H]1[C@H]1O[C@H]12

>  <logBB>


>  <Class>
-1

>  <MW>
360.22

>  <nHBAcc>
4

>  <nHBDon>
1

>  <SLogP>
2.23

>  <TopoPSA>
59.06

>  <MMFF94 Energy>
84.391

$$$$
CCCN(CCC)C(=O)Cc1c(-c2ccc(C)cc2)nc2ccc(C)cn12
Actelion Java MolfileCreator 2.0

  0  0  0  0  0  0              0 V3000
M  V30 BEGIN CTAB
M  V30 COUNTS 56 58 0 0 0
M  V30 BEGIN ATOM
M  V30 1 O 0.0787 -1.8117 0.8661 0
M  V30 2 C 0.5362 -0.6681 0.9369 0
M  V30 3 N 0.7476 -0.0468 2.1716 0
M  V30 4 C 0.9549 0.0944 -0.3195 0
M  V30 5 C 1.3133 1.2959 2.3441 0
M  V30 6 C 0.4405 -0.8081 3.388 0
M  V30 7 C 0.2789 -0.4308 -1.5448 0
M  V30 8 C 0.2873 2.4301 2.2362 0
M  V30 9 C 1.6733 -1.4677 4.0161 0
M  V30 10 N 0.7334 -1.5155 -2.2733 0
M  V30 11 C -0.8516 -0.0026 -2.2221 0
M  V30 12 C -0.76 2.4274 3.3381 0
M  V30 13 C 2.2866 -2.5596 3.1525 0
M  V30 14 C -0.0899 -1.6185 -3.3918 0
M  V30 15 C 1.8023 -2.3833 -2.0354 0
M  V30 16 N -1.0355 -0.7051 -3.3864 0
M  V30 17 C -1.7247 1.0826 -1.823 0
M  V30 18 C 0.2035 -2.6493 -4.3273 0
M  V30 19 C 2.0768 -3.3657 -2.9156 0
M  V30 20 C -2.0036 2.1151 -2.7233 0
M  V30 21 C -2.3186 1.1011 -0.5558 0
M  V30 22 C 1.2368 -3.4838 -4.1053 0
M  V30 23 C 3.1883 -4.3515 -2.7403 0
M  V30 24 C -2.8366 3.1733 -2.349 0
M  V30 25 C -3.1523 2.1588 -0.1815 0
M  V30 26 C -3.4033 3.2119 -1.0691 0
M  V30 27 C -4.3283 4.3274 -0.6817 0
M  V30 28 H 0.7216 1.1564 -0.2267 0
M  V30 29 H 2.044 0.0181 -0.4145 0
M  V30 30 H 1.8232 1.3459 3.3128 0
M  V30 31 H 2.0863 1.446 1.583 0
M  V30 32 H -0.0081 -0.1252 4.1164 0
M  V30 33 H -0.3141 -1.5734 3.1744 0
M  V30 34 H 0.8276 3.3836 2.2771 0
M  V30 35 H -0.2253 2.4022 1.2709 0
M  V30 36 H 2.4388 -0.7156 4.237 0
M  V30 37 H 1.3774 -1.9097 4.975 0
M  V30 38 H -1.385 3.3233 3.2634 0
M  V30 39 H -1.4202 1.5589 3.2557 0
M  V30 40 H -0.2928 2.4228 4.3277 0
M  V30 41 H 3.1088 -3.0444 3.6887 0
M  V30 42 H 1.547 -3.327 2.9039 0
M  V30 43 H 2.6929 -2.1521 2.2219 0
M  V30 44 H 2.3683 -2.2382 -1.1249 0
M  V30 45 H -0.4242 -2.741 -5.2058 0
M  V30 46 H -1.5754 2.0931 -3.7232 0
M  V30 47 H -2.156 0.2815 0.1405 0
M  V30 48 H 1.4588 -4.2741 -4.8167 0
M  V30 49 H 3.8961 -4.2854 -3.5733 0
M  V30 50 H 3.7464 -4.1728 -1.8149 0
M  V30 51 H 2.7944 -5.3726 -2.6989 0
M  V30 52 H -3.0445 3.9626 -3.0677 0
M  V30 53 H -3.612 2.148 0.8041 0
M  V30 54 H -4.0521 5.2577 -1.1891 0
M  V30 55 H -5.3578 4.0702 -0.9491 0
M  V30 56 H -4.2791 4.5186 0.3955 0
M  V30 END ATOM
M  V30 BEGIN BOND
M  V30 1 2 1 2
M  V30 2 1 2 3
M  V30 3 1 2 4
M  V30 4 1 3 5
M  V30 5 1 3 6
M  V30 6 1 4 7
M  V30 7 1 5 8
M  V30 8 1 6 9
M  V30 9 1 7 10
M  V30 10 2 7 11
M  V30 11 1 8 12
M  V30 12 1 9 13
M  V30 13 1 10 14
M  V30 14 1 10 15
M  V30 15 1 11 16
M  V30 16 1 11 17
M  V30 17 1 14 18
M  V30 18 2 15 19
M  V30 19 2 17 20
M  V30 20 1 17 21
M  V30 21 2 18 22
M  V30 22 1 19 23
M  V30 23 1 20 24
M  V30 24 2 21 25
M  V30 25 2 24 26
M  V30 26 1 26 27
M  V30 27 2 14 16
M  V30 28 1 19 22
M  V30 29 1 25 26
M  V30 30 1 4 28
M  V30 31 1 4 29
M  V30 32 1 5 30
M  V30 33 1 5 31
M  V30 34 1 6 32
M  V30 35 1 6 33
M  V30 36 1 8 34
M  V30 37 1 8 35
M  V30 38 1 9 36
M  V30 39 1 9 37
M  V30 40 1 12 38
M  V30 41 1 12 39
M  V30 42 1 12 40
M  V30 43 1 13 41
M  V30 44 1 13 42
M  V30 45 1 13 43
M  V30 46 1 15 44
M  V30 47 1 18 45
M  V30 48 1 20 46
M  V30 49 1 21 47
M  V30 50 1 22 48
M  V30 51 1 23 49
M  V30 52 1 23 50
M  V30 53 1 23 51
M  V30 54 1 24 52
M  V30 55 1 25 53
M  V30 56 1 27 54
M  V30 57 1 27 55
M  V30 58 1 27 56
M  V30 END BOND
M  V30 END CTAB
M  END
>  <NO.>
7111

>  <Name>
2-(p-methylphenyl)-6-methylimidazo[1,2-a]pyridine 3-(1-(dipropylamino)acetaldehyde)

>  <SMILES>
CCCN(CCC)C(=O)Cc1c(-c2ccc(C)cc2)nc2ccc(C)cn12

>  <logBB>


>  <Class>
1

>  <MW>
363.23

>  <nHBAcc>
2

>  <nHBDon>
0

>  <SLogP>
4.81

>  <TopoPSA>
37.61

>  <MMFF94 Energy>
45.191

$$$$
CCCNC(Cc1cccc2c1CC(=O)N2)NCCC
Actelion Java MolfileCreator 2.0

  0  0  0  0  0  0              0 V3000
M  V30 BEGIN CTAB
M  V30 COUNTS 45 46 0 0 0
M  V30 BEGIN ATOM
M  V30 1 O 1.4078 1.2513 5.4052 0
M  V30 2 C 0.5138 1.0084 4.6121 0
M  V30 3 N -0.6919 0.3902 4.9146 0
M  V30 4 C 0.5064 1.3237 3.1133 0
M  V30 5 C -1.4901 0.2657 3.7896 0
M  V30 6 C -0.8356 0.803 2.6801 0
M  V30 7 C -2.746 -0.2951 3.7162 0
M  V30 8 C -1.4352 0.7937 1.4266 0
M  V30 9 C -3.3647 -0.3111 2.4661 0
M  V30 10 C -2.7191 0.226 1.3361 0
M  V30 11 C -0.7514 1.3531 0.1996 0
M  V30 12 C -0.2635 0.2694 -0.8062 0
M  V30 13 N 0.3855 0.8294 -1.9773 0
M  V30 14 N 0.7582 -0.5702 -0.1817 0
M  V30 15 C -0.4556 1.6832 -2.8017 0
M  V30 16 C 1.0326 -1.7891 -0.9526 0
M  V30 17 C 0.2554 2.0478 -4.1084 0
M  V30 18 C 2.0348 -2.6564 -0.1877 0
M  V30 19 C 0.5382 0.8431 -4.9954 0
M  V30 20 C 2.358 -3.9326 -0.9494 0
M  V30 21 H -0.9295 0.0843 5.8458 0
M  V30 22 H 0.582 2.4043 2.9687 0
M  V30 23 H 1.3228 0.7869 2.6243 0
M  V30 24 H -3.2401 -0.7073 4.588 0
M  V30 25 H -4.3581 -0.742 2.3611 0
M  V30 26 H -3.2363 0.1971 0.3781 0
M  V30 27 H -1.4734 2.0224 -0.2851 0
M  V30 28 H 0.0888 1.9945 0.4958 0
M  V30 29 H -1.1203 -0.3483 -1.1045 0
M  V30 30 H 1.2278 1.3135 -1.6754 0
M  V30 31 H 0.4186 -0.857 0.7358 0
M  V30 32 H -1.4001 1.1787 -3.0371 0
M  V30 33 H -0.6936 2.6141 -2.2758 0
M  V30 34 H 0.1073 -2.3569 -1.108 0
M  V30 35 H 1.4522 -1.545 -1.9352 0
M  V30 36 H -0.375 2.7522 -4.6643 0
M  V30 37 H 1.1959 2.5692 -3.8926 0
M  V30 38 H 2.9627 -2.0969 -0.0173 0
M  V30 39 H 1.6306 -2.922 0.7967 0
M  V30 40 H 0.9881 1.1687 -5.9387 0
M  V30 41 H 1.2333 0.1463 -4.5171 0
M  V30 42 H -0.3851 0.3037 -5.2291 0
M  V30 43 H 3.0749 -4.5385 -0.3865 0
M  V30 44 H 1.4567 -4.5331 -1.1086 0
M  V30 45 H 2.7975 -3.7059 -1.9259 0
M  V30 END ATOM
M  V30 BEGIN BOND
M  V30 1 2 1 2
M  V30 2 1 2 3
M  V30 3 1 2 4
M  V30 4 1 3 5
M  V30 5 1 4 6
M  V30 6 1 5 7
M  V30 7 1 6 8
M  V30 8 2 7 9
M  V30 9 2 8 10
M  V30 10 1 8 11
M  V30 11 1 11 12
M  V30 12 1 12 13
M  V30 13 1 12 14
M  V30 14 1 13 15
M  V30 15 1 14 16
M  V30 16 1 15 17
M  V30 17 1 16 18
M  V30 18 1 17 19
M  V30 19 1 18 20
M  V30 20 2 5 6
M  V30 21 1 9 10
M  V30 22 1 3 21
M  V30 23 1 4 22
M  V30 24 1 4 23
M  V30 25 1 7 24
M  V30 26 1 9 25
M  V30 27 1 10 26
M  V30 28 1 11 27
M  V30 29 1 11 28
M  V30 30 1 12 29
M  V30 31 1 13 30
M  V30 32 1 14 31
M  V30 33 1 15 32
M  V30 34 1 15 33
M  V30 35 1 16 34
M  V30 36 1 16 35
M  V30 37 1 17 36
M  V30 38 1 17 37
M  V30 39 1 18 38
M  V30 40 1 18 39
M  V30 41 1 19 40
M  V30 42 1 19 41
M  V30 43 1 19 42
M  V30 44 1 20 43
M  V30 45 1 20 44
M  V30 46 1 20 45
M  V30 END BOND
M  V30 END CTAB
M  END
>  <NO.>
7114

>  <Name>
schembl2942739

>  <SMILES>
CCCNC(Cc1cccc2c1CC(=O)N2)NCCC

>  <logBB>


>  <Class>
1

>  <MW>
275.2

>  <nHBAcc>
3

>  <nHBDon>
3

>  <SLogP>
2.05

>  <TopoPSA>
53.16

>  <MMFF94 Energy>
-26.674

$$$$
CCCc1cc(C(N)=S)ccn1
Actelion Java MolfileCreator 2.0

  0  0  0  0  0  0              0 V3000
M  V30 BEGIN CTAB
M  V30 COUNTS 24 24 0 0 0
M  V30 BEGIN ATOM
M  V30 1 S 1.105 4.5843 0.8681 0
M  V30 2 C 1.309 2.9349 0.71 0
M  V30 3 N 2.5737 2.4396 0.5235 0
M  V30 4 C 0.2179 1.9323 0.7589 0
M  V30 5 C 0.1929 0.8947 -0.1758 0
M  V30 6 C -0.7794 2.0101 1.7288 0
M  V30 7 C -0.8354 -0.0379 -0.1063 0
M  V30 8 C -1.7572 1.0343 1.7271 0
M  V30 9 N -1.8008 0.016 0.841 0
M  V30 10 C -0.9013 -1.1826 -1.0845 0
M  V30 11 C -0.065 -2.371 -0.6108 0
M  V30 12 C -0.1455 -3.5317 -1.5892 0
M  V30 13 H 2.788 1.4516 0.4773 0
M  V30 14 H 3.3509 3.0899 0.4865 0
M  V30 15 H 0.9437 0.825 -0.9554 0
M  V30 16 H -0.7976 2.7958 2.4756 0
M  V30 17 H -2.5571 1.0416 2.4624 0
M  V30 18 H -0.5637 -0.8429 -2.0713 0
M  V30 19 H -1.9485 -1.4878 -1.2034 0
M  V30 20 H 0.9838 -2.0729 -0.4931 0
M  V30 21 H -0.4113 -2.706 0.3746 0
M  V30 22 H 0.4591 -4.371 -1.2321 0
M  V30 23 H -1.1774 -3.8798 -1.7009 0
M  V30 24 H 0.2277 -3.2393 -2.5758 0
M  V30 END ATOM
M  V30 BEGIN BOND
M  V30 1 2 1 2
M  V30 2 1 2 3
M  V30 3 1 2 4
M  V30 4 2 4 5
M  V30 5 1 4 6
M  V30 6 1 5 7
M  V30 7 2 6 8
M  V30 8 2 7 9
M  V30 9 1 7 10
M  V30 10 1 10 11
M  V30 11 1 11 12
M  V30 12 1 8 9
M  V30 13 1 3 13
M  V30 14 1 3 14
M  V30 15 1 5 15
M  V30 16 1 6 16
M  V30 17 1 8 17
M  V30 18 1 10 18
M  V30 19 1 10 19
M  V30 20 1 11 20
M  V30 21 1 11 21
M  V30 22 1 12 22
M  V30 23 1 12 23
M  V30 24 1 12 24
M  V30 END BOND
M  V30 END CTAB
M  END
>  <NO.>
7130

>  <Name>
prothionamide

>  <SMILES>
CCCc1cc(C(N)=S)ccn1

>  <logBB>


>  <Class>
1

>  <MW>
180.07

>  <nHBAcc>
2

>  <nHBDon>
1

>  <SLogP>
1.67

>  <TopoPSA>
38.91

>  <MMFF94 Energy>
-0.66732

$$$$
CCN(CC)CC#CCOC(=O)[C@](O)(c1ccccc1)C1CCCCC1
Actelion Java MolfileCreator 2.0

  0  0  0  0  0  0              0 V3000
M  V30 BEGIN CTAB
M  V30 COUNTS 57 58 0 0 0
M  V30 BEGIN ATOM
M  V30 1 O -2.8405 1.1828 0.5518 0
M  V30 2 C -1.7776 0.5755 0.5026 0
M  V30 3 O -0.6808 0.9923 -0.1993 0
M  V30 4 C -1.4736 -0.7954 1.1885 0 CFG=2
M  V30 5 C -0.8763 2.2304 -0.8855 0
M  V30 6 O -0.0541 -0.9264 1.3917 0
M  V30 7 C -1.9687 -1.9247 0.2714 0
M  V30 8 C -2.1476 -0.8424 2.6007 0
M  V30 9 C 0.348 2.5445 -1.6285 0
M  V30 10 C -1.1106 -2.9485 -0.1677 0
M  V30 11 C -3.3124 -1.9684 -0.1469 0
M  V30 12 C -1.9396 -2.2016 3.3095 0
M  V30 13 C -1.6271 0.2861 3.5238 0
M  V30 14 C 1.3609 2.7814 -2.2307 0
M  V30 15 C -1.5748 -3.9687 -1.0017 0
M  V30 16 C -3.7745 -2.9885 -0.9815 0
M  V30 17 C -2.5932 -2.2362 4.6901 0
M  V30 18 C -2.2867 0.2505 4.9011 0
M  V30 19 C 2.6067 3.0612 -2.965 0
M  V30 20 C -2.9053 -3.9871 -1.41 0
M  V30 21 C -2.0998 -1.1011 5.5775 0
M  V30 22 N 3.6095 1.9995 -2.7855 0
M  V30 23 C 4.9158 2.3805 -3.3452 0
M  V30 24 C 3.1697 0.6877 -3.2967 0
M  V30 25 C 5.6374 3.4227 -2.496 0
M  V30 26 C 2.8834 0.5973 -4.7934 0
M  V30 27 H -1.086 3.024 -0.1594 0
M  V30 28 H -1.7185 2.1406 -1.5812 0
M  V30 29 H 0.3656 -0.5046 0.6167 0
M  V30 30 H -3.2302 -0.6942 2.4803 0
M  V30 31 H -0.069 -2.9734 0.1466 0
M  V30 32 H -4.0202 -1.205 0.1742 0
M  V30 33 H -0.868 -2.4113 3.4157 0
M  V30 34 H -2.366 -3.0156 2.7134 0
M  V30 35 H -1.8183 1.2677 3.0771 0
M  V30 36 H -0.5405 0.2018 3.6492 0
M  V30 37 H -0.8956 -4.7525 -1.3269 0
M  V30 38 H -4.8156 -3.0032 -1.2943 0
M  V30 39 H -3.6824 -2.1673 4.5791 0
M  V30 40 H -2.3825 -3.1975 5.1722 0
M  V30 41 H -3.3575 0.4656 4.7989 0
M  V30 42 H -1.8619 1.0391 5.5325 0
M  V30 43 H 2.3903 3.2348 -4.0253 0
M  V30 44 H 2.9899 4.0093 -2.5718 0
M  V30 45 H -3.2655 -4.7824 -2.0569 0
M  V30 46 H -2.6388 -1.1155 6.5314 0
M  V30 47 H -1.0379 -1.2515 5.8077 0
M  V30 48 H 5.5712 1.5008 -3.3782 0
M  V30 49 H 4.8206 2.7448 -4.3753 0
M  V30 50 H 3.9355 -0.0578 -3.0453 0
M  V30 51 H 2.2804 0.3548 -2.748 0
M  V30 52 H 6.6551 3.5686 -2.8732 0
M  V30 53 H 5.7117 3.0986 -1.4525 0
M  V30 54 H 5.1378 4.3952 -2.5225 0
M  V30 55 H 2.606 -0.4298 -5.0533 0
M  V30 56 H 3.7604 0.8609 -5.3918 0
M  V30 57 H 2.0519 1.2438 -5.0886 0
M  V30 END ATOM
M  V30 BEGIN BOND
M  V30 1 2 1 2
M  V30 2 1 2 3
M  V30 3 1 2 4
M  V30 4 1 3 5
M  V30 5 1 4 6
M  V30 6 1 4 7
M  V30 7 1 4 8
M  V30 8 1 5 9
M  V30 9 2 7 10
M  V30 10 1 7 11
M  V30 11 1 8 12
M  V30 12 1 8 13
M  V30 13 3 9 14
M  V30 14 1 10 15
M  V30 15 2 11 16
M  V30 16 1 12 17
M  V30 17 1 13 18
M  V30 18 1 14 19
M  V30 19 2 15 20
M  V30 20 1 17 21
M  V30 21 1 19 22
M  V30 22 1 22 23
M  V30 23 1 22 24
M  V30 24 1 23 25
M  V30 25 1 24 26
M  V30 26 1 16 20
M  V30 27 1 18 21
M  V30 28 1 5 27
M  V30 29 1 5 28
M  V30 30 1 6 29
M  V30 31 1 8 30
M  V30 32 1 10 31
M  V30 33 1 11 32
M  V30 34 1 12 33
M  V30 35 1 12 34
M  V30 36 1 13 35
M  V30 37 1 13 36
M  V30 38 1 15 37
M  V30 39 1 16 38
M  V30 40 1 17 39
M  V30 41 1 17 40
M  V30 42 1 18 41
M  V30 43 1 18 42
M  V30 44 1 19 43
M  V30 45 1 19 44
M  V30 46 1 20 45
M  V30 47 1 21 46
M  V30 48 1 21 47
M  V30 49 1 23 48
M  V30 50 1 23 49
M  V30 51 1 24 50
M  V30 52 1 24 51
M  V30 53 1 25 52
M  V30 54 1 25 53
M  V30 55 1 25 54
M  V30 56 1 26 55
M  V30 57 1 26 56
M  V30 58 1 26 57
M  V30 END BOND
M  V30 BEGIN COLLECTION
M  V30 MDLV30/STEABS ATOMS=(1 4)
M  V30 END COLLECTION
M  V30 END CTAB
M  END
>  <NO.>
7141

>  <Name>
(r)-oxybutynin

>  <SMILES>
CCN(CC)CC#CCOC(=O)[C@](O)(c1ccccc1)C1CCCCC1

>  <logBB>


>  <Class>
1

>  <MW>
357.23

>  <nHBAcc>
4

>  <nHBDon>
1

>  <SLogP>
3.34

>  <TopoPSA>
49.77

>  <MMFF94 Energy>
69.448

$$$$
CCN(CC)CCCCN(C)c1ccnc2cc(Cl)ccc12
Actelion Java MolfileCreator 2.0

  0  0  0  0  0  0              0 V3000
M  V30 BEGIN CTAB
M  V30 COUNTS 48 49 0 0 0
M  V30 BEGIN ATOM
M  V30 1 Cl 0.2367 -1.105 -7.676 0
M  V30 2 C -0.2973 -1.2061 -6.0429 0
M  V30 3 C -1.1678 -2.2246 -5.6603 0
M  V30 4 C 0.1455 -0.2734 -5.1155 0
M  V30 5 C -1.6169 -2.3357 -4.3527 0
M  V30 6 C -0.2945 -0.3665 -3.797 0
M  V30 7 N -2.4478 -3.3461 -4.0516 0
M  V30 8 C -1.1839 -1.3893 -3.3951 0
M  V30 9 C -2.8775 -3.4524 -2.7785 0
M  V30 10 C -1.6568 -1.5255 -2.0648 0
M  V30 11 C -2.5182 -2.5835 -1.7674 0
M  V30 12 N -1.2914 -0.599 -1.0706 0
M  V30 13 C -0.7348 -1.1474 0.1706 0
M  V30 14 C -2.197 0.5444 -0.9779 0
M  V30 15 C 0.3102 -0.2006 0.7654 0
M  V30 16 C 1.0127 -0.8382 1.969 0
M  V30 17 C 2.0936 0.0714 2.5737 0
M  V30 18 N 1.5553 1.3557 3.0651 0
M  V30 19 C 2.6172 2.3783 3.1287 0
M  V30 20 C 0.9156 1.1816 4.3834 0
M  V30 21 C 2.9337 2.955 1.7515 0
M  V30 22 C -0.0823 2.2961 4.6846 0
M  V30 23 H -1.5062 -2.9535 -6.392 0
M  V30 24 H 0.8287 0.5199 -5.4047 0
M  V30 25 H 0.0611 0.3588 -3.0677 0
M  V30 26 H -3.5489 -4.2845 -2.5862 0
M  V30 27 H -2.9174 -2.7217 -0.7697 0
M  V30 28 H -0.245 -2.1095 -0.0307 0
M  V30 29 H -1.5366 -1.3347 0.8958 0
M  V30 30 H -3.1492 0.2507 -0.5218 0
M  V30 31 H -2.4033 0.9763 -1.9639 0
M  V30 32 H -1.7611 1.3418 -0.369 0
M  V30 33 H -0.1697 0.7351 1.0713 0
M  V30 34 H 1.0529 0.0573 0.0 0
M  V30 35 H 0.2705 -1.1188 2.7245 0
M  V30 36 H 1.4937 -1.7717 1.6503 0
M  V30 37 H 2.6192 -0.4603 3.3778 0
M  V30 38 H 2.8382 0.2354 1.7864 0
M  V30 39 H 2.3028 3.2252 3.7483 0
M  V30 40 H 3.5271 1.9768 3.5926 0
M  V30 41 H 0.3462 0.2462 4.4151 0
M  V30 42 H 1.6649 1.1147 5.1823 0
M  V30 43 H 3.6518 3.7762 1.8488 0
M  V30 44 H 2.031 3.3555 1.2775 0
M  V30 45 H 3.374 2.2134 1.0793 0
M  V30 46 H -0.6085 2.0804 5.6207 0
M  V30 47 H -0.8328 2.375 3.8907 0
M  V30 48 H 0.4016 3.27 4.7985 0
M  V30 END ATOM
M  V30 BEGIN BOND
M  V30 1 1 1 2
M  V30 2 2 2 3
M  V30 3 1 2 4
M  V30 4 1 3 5
M  V30 5 2 4 6
M  V30 6 2 5 7
M  V30 7 1 5 8
M  V30 8 1 7 9
M  V30 9 2 8 10
M  V30 10 2 9 11
M  V30 11 1 10 12
M  V30 12 1 12 13
M  V30 13 1 12 14
M  V30 14 1 13 15
M  V30 15 1 15 16
M  V30 16 1 16 17
M  V30 17 1 17 18
M  V30 18 1 18 19
M  V30 19 1 18 20
M  V30 20 1 19 21
M  V30 21 1 20 22
M  V30 22 1 6 8
M  V30 23 1 10 11
M  V30 24 1 3 23
M  V30 25 1 4 24
M  V30 26 1 6 25
M  V30 27 1 9 26
M  V30 28 1 11 27
M  V30 29 1 13 28
M  V30 30 1 13 29
M  V30 31 1 14 30
M  V30 32 1 14 31
M  V30 33 1 14 32
M  V30 34 1 15 33
M  V30 35 1 15 34
M  V30 36 1 16 35
M  V30 37 1 16 36
M  V30 38 1 17 37
M  V30 39 1 17 38
M  V30 40 1 19 39
M  V30 41 1 19 40
M  V30 42 1 20 41
M  V30 43 1 20 42
M  V30 44 1 21 43
M  V30 45 1 21 44
M  V30 46 1 21 45
M  V30 47 1 22 46
M  V30 48 1 22 47
M  V30 49 1 22 48
M  V30 END BOND
M  V30 END CTAB
M  END
>  <NO.>
7144

>  <Name>
schembl3454549

>  <SMILES>
CCN(CC)CCCCN(C)c1ccnc2cc(Cl)ccc12

>  <logBB>


>  <Class>
1

>  <MW>
319.18

>  <nHBAcc>
3

>  <nHBDon>
0

>  <SLogP>
4.45

>  <TopoPSA>
19.37

>  <MMFF94 Energy>
41.273

$$$$
CCN(CC)CCCOC(=O)[C@@]1(c2ccccc2)C[C@@H]2CC[C@@H]1C2
Actelion Java MolfileCreator 2.0

  0  0  0  0  0  0              0 V3000
M  V30 BEGIN CTAB
M  V30 COUNTS 55 57 0 0 0
M  V30 BEGIN ATOM
M  V30 1 O 1.7454 -0.9517 -1.0311 0
M  V30 2 C 1.1043 -0.788 9.0E-4 0
M  V30 3 O -0.1617 -0.2782 0.0425 0
M  V30 4 C 1.5933 -1.1846 1.4187 0 CFG=2
M  V30 5 C -0.7035 0.0824 -1.2374 0
M  V30 6 C 1.0399 -2.5846 1.7008 0
M  V30 7 C 1.2054 -0.071 2.4613 0 CFG=1
M  V30 8 C 3.1587 -1.0727 1.4794 0
M  V30 9 C -2.1385 0.5506 -1.0167 0
M  V30 10 C -0.2074 -2.7628 2.3256 0
M  V30 11 C 1.716 -3.7331 1.2533 0
M  V30 12 C 2.2295 1.0287 2.1508 0
M  V30 13 C 1.6293 -0.4532 3.8989 0
M  V30 14 C 3.4214 0.1205 2.4219 0 CFG=1
M  V30 15 C -2.8494 0.919 -2.3233 0
M  V30 16 C -0.7293 -4.04 2.546 0
M  V30 17 C 1.1937 -5.0103 1.473 0
M  V30 18 C 3.1556 -0.3297 3.8641 0
M  V30 19 N -2.2089 2.0388 -3.0362 0
M  V30 20 C -0.0253 -5.164 2.1258 0
M  V30 21 C -2.4379 3.3246 -2.351 0
M  V30 22 C -2.6669 2.0699 -4.4378 0
M  V30 23 C -1.1077 4.0133 -2.0747 0
M  V30 24 C -1.8633 3.0265 -5.3132 0
M  V30 25 H -0.6912 -0.7909 -1.8999 0
M  V30 26 H -0.0923 0.8818 -1.6696 0
M  V30 27 H 0.168 0.2693 2.4107 0
M  V30 28 H 3.5996 -0.8594 0.4996 0
M  V30 29 H 3.652 -1.9685 1.8711 0
M  V30 30 H -2.6999 -0.2527 -0.5221 0
M  V30 31 H -2.1472 1.3842 -0.3045 0
M  V30 32 H -0.7972 -1.9066 2.6455 0
M  V30 33 H 2.654 -3.6501 0.7074 0
M  V30 34 H 2.1892 1.3977 1.1214 0
M  V30 35 H 2.1694 1.8788 2.8394 0
M  V30 36 H 1.2161 0.2639 4.6185 0
M  V30 37 H 1.3097 -1.4496 4.2119 0
M  V30 38 H 4.404 0.5761 2.2842 0
M  V30 39 H -2.8387 0.0203 -2.9541 0
M  V30 40 H -3.9055 1.1423 -2.1227 0
M  V30 41 H -1.6909 -4.1548 3.0396 0
M  V30 42 H 1.7368 -5.8843 1.1227 0
M  V30 43 H 3.652 -1.2733 4.1116 0
M  V30 44 H 3.4901 0.4293 4.5803 0
M  V30 45 H -0.4324 -6.1573 2.2936 0
M  V30 46 H -3.0857 3.9922 -2.9325 0
M  V30 47 H -2.9554 3.1934 -1.3927 0
M  V30 48 H -2.5471 1.0719 -4.8783 0
M  V30 49 H -3.7344 2.3176 -4.4969 0
M  V30 50 H -1.2793 4.9697 -1.5698 0
M  V30 51 H -0.5557 4.2172 -2.9972 0
M  V30 52 H -0.4734 3.4022 -1.4241 0
M  V30 53 H -2.1723 2.9223 -6.3587 0
M  V30 54 H -0.7922 2.8048 -5.2579 0
M  V30 55 H -2.0171 4.0717 -5.0287 0
M  V30 END ATOM
M  V30 BEGIN BOND
M  V30 1 2 1 2
M  V30 2 1 2 3
M  V30 3 1 2 4
M  V30 4 1 3 5
M  V30 5 1 4 6
M  V30 6 1 4 7
M  V30 7 1 4 8
M  V30 8 1 5 9
M  V30 9 2 6 10
M  V30 10 1 6 11
M  V30 11 1 7 12
M  V30 12 1 7 13
M  V30 13 1 8 14
M  V30 14 1 9 15
M  V30 15 1 10 16
M  V30 16 2 11 17
M  V30 17 1 13 18
M  V30 18 1 15 19
M  V30 19 2 16 20
M  V30 20 1 19 21
M  V30 21 1 19 22
M  V30 22 1 21 23
M  V30 23 1 22 24
M  V30 24 1 12 14
M  V30 25 1 14 18
M  V30 26 1 17 20
M  V30 27 1 5 25
M  V30 28 1 5 26
M  V30 29 1 7 27
M  V30 30 1 8 28
M  V30 31 1 8 29
M  V30 32 1 9 30
M  V30 33 1 9 31
M  V30 34 1 10 32
M  V30 35 1 11 33
M  V30 36 1 12 34
M  V30 37 1 12 35
M  V30 38 1 13 36
M  V30 39 1 13 37
M  V30 40 1 14 38
M  V30 41 1 15 39
M  V30 42 1 15 40
M  V30 43 1 16 41
M  V30 44 1 17 42
M  V30 45 1 18 43
M  V30 46 1 18 44
M  V30 47 1 20 45
M  V30 48 1 21 46
M  V30 49 1 21 47
M  V30 50 1 22 48
M  V30 51 1 22 49
M  V30 52 1 23 50
M  V30 53 1 23 51
M  V30 54 1 23 52
M  V30 55 1 24 53
M  V30 56 1 24 54
M  V30 57 1 24 55
M  V30 END BOND
M  V30 BEGIN COLLECTION
M  V30 MDLV30/STEABS ATOMS=(3 4 7 14)
M  V30 END COLLECTION
M  V30 END CTAB
M  END
>  <NO.>
7145

>  <Name>
3-(diethylamino)propyl (1r,2s,4r)-2-phenylbicyclo[2.2.1]heptane-2-carboxylate

>  <SMILES>
CCN(CC)CCCOC(=O)[C@@]1(c2ccccc2)C[C@@H]2CC[C@@H]1C2

>  <logBB>


>  <Class>
1

>  <MW>
329.24

>  <nHBAcc>
3

>  <nHBDon>
0

>  <SLogP>
4.02

>  <TopoPSA>
29.54

>  <MMFF94 Energy>
68.95

$$$$
CCN(CC)CCOC(=O)[C@H](Cc1ccc2ccccc2c1)C[C@H]1CCCO1
Actelion Java MolfileCreator 2.0

  0  0  0  0  0  0              0 V3000
M  V30 BEGIN CTAB
M  V30 COUNTS 61 63 0 0 0
M  V30 BEGIN ATOM
M  V30 1 O -1.6597 1.976 2.2134 0
M  V30 2 C -1.795 1.0613 1.41 0
M  V30 3 O -2.8676 0.8704 0.5956 0
M  V30 4 C -0.7445 -0.0111 1.1887 0 CFG=2
M  V30 5 C -3.8289 1.9379 0.5529 0
M  V30 6 C -0.1568 0.1939 -0.2189 0
M  V30 7 C -1.3692 -1.3948 1.4357 0
M  V30 8 C -3.6837 2.7077 -0.7738 0
M  V30 9 C 1.2218 -0.3885 -0.4165 0
M  V30 10 C -0.3829 -2.5352 1.6727 0 CFG=2
M  V30 11 N -2.3323 3.2719 -1.0086 0
M  V30 12 C 1.4295 -1.4385 -1.3225 0
M  V30 13 C 2.3177 0.1266 0.2839 0
M  V30 14 O -1.1284 -3.7388 1.954 0
M  V30 15 C 0.55 -2.3468 2.8574 0
M  V30 16 C -2.1005 4.4471 -0.1457 0
M  V30 17 C -2.1497 3.621 -2.4306 0
M  V30 18 C 2.7054 -1.9967 -1.5107 0
M  V30 19 C 3.5924 -0.415 0.1047 0
M  V30 20 C -0.4384 -4.4731 2.9763 0
M  V30 21 C 0.8837 -3.7747 3.2089 0
M  V30 22 C -0.613 4.7335 0.0405 0
M  V30 23 C -1.8659 2.3934 -3.2918 0
M  V30 24 C 3.8014 -1.4788 -0.785 0
M  V30 25 C 2.915 -3.0602 -2.4035 0
M  V30 26 C 5.0761 -2.0376 -0.9723 0
M  V30 27 C 4.1879 -3.6057 -2.578 0
M  V30 28 C 5.2673 -3.0949 -1.8632 0
M  V30 29 H 0.0222 0.1747 1.9508 0
M  V30 30 H -3.7706 2.5973 1.4248 0
M  V30 31 H -4.8197 1.4708 0.5849 0
M  V30 32 H -0.0819 1.2668 -0.4441 0
M  V30 33 H -0.8465 -0.2084 -0.9726 0
M  V30 34 H -2.0434 -1.3403 2.3028 0
M  V30 35 H -2.0266 -1.6683 0.5992 0
M  V30 36 H -3.9132 1.9828 -1.5626 0
M  V30 37 H -4.4486 3.4924 -0.833 0
M  V30 38 H 0.1913 -2.7447 0.7667 0
M  V30 39 H 0.5841 -1.8362 -1.8818 0
M  V30 40 H 2.189 0.958 0.9744 0
M  V30 41 H 0.0268 -1.8733 3.697 0
M  V30 42 H 1.4336 -1.7491 2.6206 0
M  V30 43 H -2.6123 5.334 -0.5404 0
M  V30 44 H -2.5067 4.2795 0.857 0
M  V30 45 H -3.0199 4.165 -2.8194 0
M  V30 46 H -1.2888 4.2861 -2.5577 0
M  V30 47 H 4.4247 0.0041 0.6657 0
M  V30 48 H -1.0611 -4.4526 3.877 0
M  V30 49 H -0.3137 -5.5132 2.6623 0
M  V30 50 H 1.6388 -4.1615 2.5142 0
M  V30 51 H 1.26 -3.9015 4.2273 0
M  V30 52 H -0.4791 5.5437 0.7653 0
M  V30 53 H -0.1283 5.0435 -0.8892 0
M  V30 54 H -0.0879 3.8526 0.425 0
M  V30 55 H -1.6401 2.7043 -4.3174 0
M  V30 56 H -2.7176 1.7095 -3.3382 0
M  V30 57 H -0.9996 1.8405 -2.9136 0
M  V30 58 H 2.0838 -3.473 -2.9708 0
M  V30 59 H 5.9318 -1.6507 -0.4236 0
M  V30 60 H 4.3349 -4.4287 -3.2724 0
M  V30 61 H 6.2591 -3.518 -1.9987 0
M  V30 END ATOM
M  V30 BEGIN BOND
M  V30 1 2 1 2
M  V30 2 1 2 3
M  V30 3 1 2 4
M  V30 4 1 3 5
M  V30 5 1 4 6
M  V30 6 1 4 7
M  V30 7 1 5 8
M  V30 8 1 6 9
M  V30 9 1 7 10
M  V30 10 1 8 11
M  V30 11 2 9 12
M  V30 12 1 9 13
M  V30 13 1 10 14
M  V30 14 1 10 15
M  V30 15 1 11 16
M  V30 16 1 11 17
M  V30 17 1 12 18
M  V30 18 2 13 19
M  V30 19 1 14 20
M  V30 20 1 15 21
M  V30 21 1 16 22
M  V30 22 1 17 23
M  V30 23 1 18 24
M  V30 24 2 18 25
M  V30 25 2 24 26
M  V30 26 1 25 27
M  V30 27 1 26 28
M  V30 28 1 19 24
M  V30 29 1 20 21
M  V30 30 2 27 28
M  V30 31 1 4 29
M  V30 32 1 5 30
M  V30 33 1 5 31
M  V30 34 1 6 32
M  V30 35 1 6 33
M  V30 36 1 7 34
M  V30 37 1 7 35
M  V30 38 1 8 36
M  V30 39 1 8 37
M  V30 40 1 10 38
M  V30 41 1 12 39
M  V30 42 1 13 40
M  V30 43 1 15 41
M  V30 44 1 15 42
M  V30 45 1 16 43
M  V30 46 1 16 44
M  V30 47 1 17 45
M  V30 48 1 17 46
M  V30 49 1 19 47
M  V30 50 1 20 48
M  V30 51 1 20 49
M  V30 52 1 21 50
M  V30 53 1 21 51
M  V30 54 1 22 52
M  V30 55 1 22 53
M  V30 56 1 22 54
M  V30 57 1 23 55
M  V30 58 1 23 56
M  V30 59 1 23 57
M  V30 60 1 25 58
M  V30 61 1 26 59
M  V30 62 1 27 60
M  V30 63 1 28 61
M  V30 END BOND
M  V30 BEGIN COLLECTION
M  V30 MDLV30/STEABS ATOMS=(2 4 10)
M  V30 END COLLECTION
M  V30 END CTAB
M  END
>  <NO.>
7146

>  <Name>
zinc33985952

>  <SMILES>
CCN(CC)CCOC(=O)[C@H](Cc1ccc2ccccc2c1)C[C@H]1CCCO1

>  <logBB>


>  <Class>
1

>  <MW>
383.25

>  <nHBAcc>
4

>  <nHBDon>
0

>  <SLogP>
4.45

>  <TopoPSA>
38.77

>  <MMFF94 Energy>
48.736

$$$$
CCN(CC)CC[C@]1(c2ccccc2)CCC(=O)NC1=O
Actelion Java MolfileCreator 2.0

  0  0  0  0  0  0              0 V3000
M  V30 BEGIN CTAB
M  V30 COUNTS 45 46 0 0 0
M  V30 BEGIN ATOM
M  V30 1 O -1.8936 -1.5778 -1.4989 0
M  V30 2 C -1.2017 -0.6904 -1.9982 0
M  V30 3 N -1.7284 0.0514 -3.0301 0
M  V30 4 C 0.2019 -0.3 -1.4839 0 CFG=1
M  V30 5 C -1.1743 1.1045 -3.7093 0
M  V30 6 C 1.0817 -1.5019 -1.0686 0
M  V30 7 C 0.967 0.3832 -2.6509 0
M  V30 8 C -0.0318 0.7156 -0.3198 0
M  V30 9 O -1.7987 1.6872 -4.5913 0
M  V30 10 C 0.1998 1.5358 -3.2775 0
M  V30 11 C 0.8445 -2.8008 -1.5527 0
M  V30 12 C 2.2135 -1.3159 -0.2492 0
M  V30 13 C -0.6756 0.1089 0.9446 0
M  V30 14 C 1.6724 -3.8705 -1.1984 0
M  V30 15 C 3.0414 -2.3852 0.1037 0
M  V30 16 N -0.82 1.1497 1.9882 0
M  V30 17 C 2.7677 -3.664 -0.3672 0
M  V30 18 C 0.4334 1.2755 2.7592 0
M  V30 19 C -1.9496 0.8323 2.8853 0
M  V30 20 C 0.5384 2.627 3.4591 0
M  V30 21 C -3.2925 1.1889 2.2535 0
M  V30 22 H -2.6593 -0.2132 -3.3225 0
M  V30 23 H 1.1751 -0.3571 -3.4371 0
M  V30 24 H 1.943 0.754 -2.3117 0
M  V30 25 H 0.9135 1.2098 -0.0688 0
M  V30 26 H -0.6984 1.5195 -0.6611 0
M  V30 27 H 0.1011 2.3793 -2.5874 0
M  V30 28 H 0.7409 1.8928 -4.1609 0
M  V30 29 H 0.008 -3.0157 -2.2143 0
M  V30 30 H 2.4783 -0.3303 0.1256 0
M  V30 31 H -1.658 -0.2784 0.6614 0
M  V30 32 H -0.1103 -0.7466 1.3308 0
M  V30 33 H 1.4577 -4.8672 -1.576 0
M  V30 34 H 3.9035 -2.2159 0.7438 0
M  V30 35 H 3.4094 -4.4968 -0.0931 0
M  V30 36 H 0.5357 0.4604 3.4869 0
M  V30 37 H 1.3018 1.2054 2.0943 0
M  V30 38 H -1.9357 -0.2237 3.1827 0
M  V30 39 H -1.8839 1.4151 3.8106 0
M  V30 40 H 1.5184 2.7218 3.9385 0
M  V30 41 H -0.2199 2.7538 4.2366 0
M  V30 42 H 0.437 3.4486 2.742 0
M  V30 43 H -4.0983 1.0257 2.977 0
M  V30 44 H -3.515 0.5806 1.3725 0
M  V30 45 H -3.3183 2.2433 1.958 0
M  V30 END ATOM
M  V30 BEGIN BOND
M  V30 1 2 1 2
M  V30 2 1 2 3
M  V30 3 1 2 4
M  V30 4 1 3 5
M  V30 5 1 4 6
M  V30 6 1 4 7
M  V30 7 1 4 8
M  V30 8 2 5 9
M  V30 9 1 5 10
M  V30 10 2 6 11
M  V30 11 1 6 12
M  V30 12 1 8 13
M  V30 13 1 11 14
M  V30 14 2 12 15
M  V30 15 1 13 16
M  V30 16 2 14 17
M  V30 17 1 16 18
M  V30 18 1 16 19
M  V30 19 1 18 20
M  V30 20 1 19 21
M  V30 21 1 7 10
M  V30 22 1 15 17
M  V30 23 1 3 22
M  V30 24 1 7 23
M  V30 25 1 7 24
M  V30 26 1 8 25
M  V30 27 1 8 26
M  V30 28 1 10 27
M  V30 29 1 10 28
M  V30 30 1 11 29
M  V30 31 1 12 30
M  V30 32 1 13 31
M  V30 33 1 13 32
M  V30 34 1 14 33
M  V30 35 1 15 34
M  V30 36 1 17 35
M  V30 37 1 18 36
M  V30 38 1 18 37
M  V30 39 1 19 38
M  V30 40 1 19 39
M  V30 41 1 20 40
M  V30 42 1 20 41
M  V30 43 1 20 42
M  V30 44 1 21 43
M  V30 45 1 21 44
M  V30 46 1 21 45
M  V30 END BOND
M  V30 BEGIN COLLECTION
M  V30 MDLV30/STEABS ATOMS=(1 4)
M  V30 END COLLECTION
M  V30 END CTAB
M  END
>  <NO.>
7148

>  <Name>
(s)-phenglutarimide

>  <SMILES>
CCN(CC)CC[C@]1(c2ccccc2)CCC(=O)NC1=O

>  <logBB>


>  <Class>
1

>  <MW>
288.18

>  <nHBAcc>
3

>  <nHBDon>
1

>  <SLogP>
2.09

>  <TopoPSA>
49.41

>  <MMFF94 Energy>
2.5313

$$$$
CCN(CC)[C@H](C)C(=O)c1ccccc1
Actelion Java MolfileCreator 2.0

  0  0  0  0  0  0              0 V3000
M  V30 BEGIN CTAB
M  V30 COUNTS 34 34 0 0 0
M  V30 BEGIN ATOM
M  V30 1 O 0.312 -0.4681 2.5768 0
M  V30 2 C -0.1771 0.0326 1.5606 0
M  V30 3 C -1.6459 -0.1511 1.3163 0
M  V30 4 C 0.6781 0.8479 0.5597 0 CFG=2
M  V30 5 C -2.4044 -0.795 2.3069 0
M  V30 6 C -2.2903 0.2932 0.1561 0
M  V30 7 N 0.8765 0.0418 -0.6677 0
M  V30 8 C 1.9588 1.3219 1.2624 0
M  V30 9 C -3.7781 -0.9864 2.1421 0
M  V30 10 C -3.6659 0.0998 -0.0076 0
M  V30 11 C 1.8389 -1.0566 -0.519 0
M  V30 12 C 0.9957 0.8275 -1.9007 0
M  V30 13 C -4.4083 -0.5374 0.9845 0
M  V30 14 C 1.7525 -2.0862 -1.6417 0
M  V30 15 C 2.3352 1.4928 -2.1916 0
M  V30 16 H 0.0974 1.7513 0.3318 0
M  V30 17 H -1.9265 -1.1533 3.2173 0
M  V30 18 H -1.7468 0.7815 -0.645 0
M  V30 19 H 1.7029 1.9114 2.151 0
M  V30 20 H 2.5792 0.4877 1.607 0
M  V30 21 H 2.5703 1.9581 0.6207 0
M  V30 22 H -4.3522 -1.4875 2.9175 0
M  V30 23 H -4.157 0.4436 -0.9148 0
M  V30 24 H 2.8672 -0.6846 -0.4497 0
M  V30 25 H 1.6386 -1.5981 0.413 0
M  V30 26 H 0.7465 0.1794 -2.7496 0
M  V30 27 H 0.2152 1.5989 -1.9199 0
M  V30 28 H -5.477 -0.6881 0.8535 0
M  V30 29 H 2.3929 -2.9438 -1.4098 0
M  V30 30 H 2.0892 -1.6762 -2.5986 0
M  V30 31 H 0.7285 -2.4559 -1.7604 0
M  V30 32 H 2.3057 1.9531 -3.1855 0
M  V30 33 H 3.1618 0.7772 -2.1915 0
M  V30 34 H 2.556 2.29 -1.479 0
M  V30 END ATOM
M  V30 BEGIN BOND
M  V30 1 2 1 2
M  V30 2 1 2 3
M  V30 3 1 2 4
M  V30 4 2 3 5
M  V30 5 1 3 6
M  V30 6 1 4 7
M  V30 7 1 4 8
M  V30 8 1 5 9
M  V30 9 2 6 10
M  V30 10 1 7 11
M  V30 11 1 7 12
M  V30 12 2 9 13
M  V30 13 1 11 14
M  V30 14 1 12 15
M  V30 15 1 10 13
M  V30 16 1 4 16
M  V30 17 1 5 17
M  V30 18 1 6 18
M  V30 19 1 8 19
M  V30 20 1 8 20
M  V30 21 1 8 21
M  V30 22 1 9 22
M  V30 23 1 10 23
M  V30 24 1 11 24
M  V30 25 1 11 25
M  V30 26 1 12 26
M  V30 27 1 12 27
M  V30 28 1 13 28
M  V30 29 1 14 29
M  V30 30 1 14 30
M  V30 31 1 14 31
M  V30 32 1 15 32
M  V30 33 1 15 33
M  V30 34 1 15 34
M  V30 END BOND
M  V30 BEGIN COLLECTION
M  V30 MDLV30/STEABS ATOMS=(1 4)
M  V30 END COLLECTION
M  V30 END CTAB
M  END
>  <NO.>
7150

>  <Name>
(r)-diethylpropion

>  <SMILES>
CCN(CC)[C@H](C)C(=O)c1ccccc1

>  <logBB>


>  <Class>
1

>  <MW>
205.15

>  <nHBAcc>
2

>  <nHBDon>
0

>  <SLogP>
2.6

>  <TopoPSA>
20.31

>  <MMFF94 Energy>
73.697

$$$$
CCN(CCO)CC[C@H](C)Nc1ccnc2cc(Cl)ccc12
Actelion Java MolfileCreator 2.0

  0  0  0  0  0  0              0 V3000
M  V30 BEGIN CTAB
M  V30 COUNTS 46 47 0 0 0
M  V30 BEGIN ATOM
M  V30 1 Cl 0.158 -6.576 -2.4522 0
M  V30 2 C 0.6401 -5.1723 -1.5819 0
M  V30 3 C 1.2387 -5.3013 -0.3327 0
M  V30 4 C 0.4231 -3.9163 -2.1265 0
M  V30 5 C 1.6363 -4.1902 0.3953 0
M  V30 6 C 0.8192 -2.7855 -1.4119 0
M  V30 7 N 2.1852 -4.4083 1.5967 0
M  V30 8 C 1.4434 -2.8926 -0.1429 0
M  V30 9 C 2.5536 -3.337 2.3208 0
M  V30 10 C 1.8777 -1.7752 0.6304 0
M  V30 11 C 2.4143 -2.0306 1.8932 0
M  V30 12 N 1.7052 -0.477 0.1612 0
M  V30 13 C 1.8753 0.7476 0.9362 0 CFG=2
M  V30 14 C 0.8965 1.8163 0.4128 0
M  V30 15 C 3.3148 1.2399 0.789 0
M  V30 16 C -0.5671 1.4272 0.6761 0
M  V30 17 N -1.5329 2.4993 0.3583 0
M  V30 18 C -2.884 2.0981 0.8214 0
M  V30 19 C -1.5073 2.9281 -1.0505 0
M  V30 20 C -3.9616 3.193 0.7251 0
M  V30 21 C -1.8145 1.8612 -2.0979 0
M  V30 22 O -4.558 3.22 -0.5689 0
M  V30 23 H 1.3977 -6.2889 0.0931 0
M  V30 24 H -0.0537 -3.8063 -3.0966 0
M  V30 25 H 0.6198 -1.8142 -1.855 0
M  V30 26 H 2.9839 -3.5619 3.2926 0
M  V30 27 H 2.7536 -1.2376 2.5474 0
M  V30 28 H 1.6413 -0.3572 -0.8426 0
M  V30 29 H 1.6527 0.5836 1.997 0
M  V30 30 H 1.1071 2.7716 0.9107 0
M  V30 31 H 1.065 1.9647 -0.6605 0
M  V30 32 H 3.5628 1.4365 -0.2601 0
M  V30 33 H 4.0281 0.4972 1.1609 0
M  V30 34 H 3.4695 2.1651 1.354 0
M  V30 35 H -0.8202 0.5059 0.1379 0
M  V30 36 H -0.6518 1.1946 1.7459 0
M  V30 37 H -2.8028 1.847 1.8869 0
M  V30 38 H -3.2215 1.195 0.2989 0
M  V30 39 H -2.1901 3.7732 -1.1919 0
M  V30 40 H -0.5249 3.3601 -1.2749 0
M  V30 41 H -4.7588 2.981 1.4456 0
M  V30 42 H -3.5483 4.181 0.9548 0
M  V30 43 H -1.7867 2.3087 -3.0972 0
M  V30 44 H -2.8089 1.427 -1.9615 0
M  V30 45 H -1.077 1.0533 -2.0831 0
M  V30 46 H -5.1814 3.9661 -0.5736 0
M  V30 END ATOM
M  V30 BEGIN BOND
M  V30 1 1 1 2
M  V30 2 2 2 3
M  V30 3 1 2 4
M  V30 4 1 3 5
M  V30 5 2 4 6
M  V30 6 2 5 7
M  V30 7 1 5 8
M  V30 8 1 7 9
M  V30 9 2 8 10
M  V30 10 2 9 11
M  V30 11 1 10 12
M  V30 12 1 12 13
M  V30 13 1 13 14
M  V30 14 1 13 15
M  V30 15 1 14 16
M  V30 16 1 16 17
M  V30 17 1 17 18
M  V30 18 1 17 19
M  V30 19 1 18 20
M  V30 20 1 19 21
M  V30 21 1 20 22
M  V30 22 1 6 8
M  V30 23 1 10 11
M  V30 24 1 3 23
M  V30 25 1 4 24
M  V30 26 1 6 25
M  V30 27 1 9 26
M  V30 28 1 11 27
M  V30 29 1 12 28
M  V30 30 1 13 29
M  V30 31 1 14 30
M  V30 32 1 14 31
M  V30 33 1 15 32
M  V30 34 1 15 33
M  V30 35 1 15 34
M  V30 36 1 16 35
M  V30 37 1 16 36
M  V30 38 1 18 37
M  V30 39 1 18 38
M  V30 40 1 19 39
M  V30 41 1 19 40
M  V30 42 1 20 41
M  V30 43 1 20 42
M  V30 44 1 21 43
M  V30 45 1 21 44
M  V30 46 1 21 45
M  V30 47 1 22 46
M  V30 END BOND
M  V30 BEGIN COLLECTION
M  V30 MDLV30/STEABS ATOMS=(1 13)
M  V30 END COLLECTION
M  V30 END CTAB
M  END
>  <NO.>
7153

>  <Name>


>  <SMILES>
CCN(CCO)CC[C@H](C)Nc1ccnc2cc(Cl)ccc12

>  <logBB>


>  <Class>
1

>  <MW>
321.16

>  <nHBAcc>
4

>  <nHBDon>
2

>  <SLogP>
3.39

>  <TopoPSA>
48.39

>  <MMFF94 Energy>
58.468

$$$$
CCN1CC[C@H](CNC(=O)c2cc(S(N)(=O)=O)ccc2OC)C1
Actelion Java MolfileCreator 2.0

  0  0  0  0  0  0              0 V3000
M  V30 BEGIN CTAB
M  V30 COUNTS 46 47 0 0 0
M  V30 BEGIN ATOM
M  V30 1 S -1.4378 3.7578 -1.6777 0
M  V30 2 O -1.3947 2.6297 -2.578 0
M  V30 3 O -0.8855 5.0479 -2.0138 0
M  V30 4 N -3.0634 4.0125 -1.3458 0
M  V30 5 C -0.8198 3.2608 -0.0966 0
M  V30 6 C -0.5882 1.9072 0.1633 0
M  V30 7 C -0.5331 4.2353 0.8651 0
M  V30 8 C -0.0776 1.5264 1.4114 0
M  V30 9 C -0.0224 3.85 2.1059 0
M  V30 10 C 0.2215 2.4992 2.3731 0
M  V30 11 C 0.1796 0.0913 1.6688 0
M  V30 12 O 0.653 2.1456 3.6233 0
M  V30 13 O 1.2873 -0.2916 2.0205 0
M  V30 14 N -0.894 -0.7404 1.4312 0
M  V30 15 C 2.0643 2.3389 3.7384 0
M  V30 16 C -0.8049 -2.1803 1.5745 0
M  V30 17 C -0.5781 -2.9216 0.2584 0 CFG=2
M  V30 18 C 0.7447 -2.6134 -0.4355 0
M  V30 19 C -1.6351 -2.6733 -0.8223 0
M  V30 20 N 0.4787 -3.1039 -1.7946 0
M  V30 21 C -0.8487 -2.5774 -2.1271 0
M  V30 22 C 1.4871 -2.6901 -2.7723 0
M  V30 23 C 2.8374 -3.352 -2.5254 0
M  V30 24 H -3.6335 3.3693 -1.8966 0
M  V30 25 H -3.2976 4.9944 -1.5004 0
M  V30 26 H -0.7812 1.1566 -0.6001 0
M  V30 27 H -0.7079 5.2892 0.6575 0
M  V30 28 H 0.1781 4.6002 2.867 0
M  V30 29 H -1.7934 -0.3366 1.2045 0
M  V30 30 H 2.6107 1.9052 2.8935 0
M  V30 31 H 2.3974 1.8383 4.6524 0
M  V30 32 H 2.298 3.4049 3.8304 0
M  V30 33 H -1.7524 -2.5051 2.019 0
M  V30 34 H -0.007 -2.4266 2.2839 0
M  V30 35 H -0.5925 -3.9971 0.4908 0
M  V30 36 H 0.9685 -1.541 -0.4435 0
M  V30 37 H 1.5709 -3.1469 0.0447 0
M  V30 38 H -2.214 -1.7588 -0.6588 0
M  V30 39 H -2.3415 -3.5111 -0.8508 0
M  V30 40 H -1.3249 -3.155 -2.9258 0
M  V30 41 H -0.8002 -1.5269 -2.4426 0
M  V30 42 H 1.1527 -2.9867 -3.7743 0
M  V30 43 H 1.61 -1.5998 -2.7846 0
M  V30 44 H 3.5308 -3.0983 -3.3339 0
M  V30 45 H 2.7431 -4.4426 -2.4945 0
M  V30 46 H 3.2881 -3.0164 -1.5863 0
M  V30 END ATOM
M  V30 BEGIN BOND
M  V30 1 2 1 2
M  V30 2 2 1 3
M  V30 3 1 1 4
M  V30 4 1 1 5
M  V30 5 2 5 6
M  V30 6 1 5 7
M  V30 7 1 6 8
M  V30 8 2 7 9
M  V30 9 2 8 10
M  V30 10 1 8 11
M  V30 11 1 10 12
M  V30 12 2 11 13
M  V30 13 1 11 14
M  V30 14 1 12 15
M  V30 15 1 14 16
M  V30 16 1 16 17
M  V30 17 1 17 18
M  V30 18 1 17 19
M  V30 19 1 18 20
M  V30 20 1 19 21
M  V30 21 1 20 22
M  V30 22 1 22 23
M  V30 23 1 9 10
M  V30 24 1 20 21
M  V30 25 1 4 24
M  V30 26 1 4 25
M  V30 27 1 6 26
M  V30 28 1 7 27
M  V30 29 1 9 28
M  V30 30 1 14 29
M  V30 31 1 15 30
M  V30 32 1 15 31
M  V30 33 1 15 32
M  V30 34 1 16 33
M  V30 35 1 16 34
M  V30 36 1 17 35
M  V30 37 1 18 36
M  V30 38 1 18 37
M  V30 39 1 19 38
M  V30 40 1 19 39
M  V30 41 1 21 40
M  V30 42 1 21 41
M  V30 43 1 22 42
M  V30 44 1 22 43
M  V30 45 1 23 44
M  V30 46 1 23 45
M  V30 47 1 23 46
M  V30 END BOND
M  V30 BEGIN COLLECTION
M  V30 MDLV30/STEABS ATOMS=(1 17)
M  V30 END COLLECTION
M  V30 END CTAB
M  END
>  <NO.>
7158

>  <Name>
zinc3203071

>  <SMILES>
CCN1CC[C@H](CNC(=O)c2cc(S(N)(=O)=O)ccc2OC)C1

>  <logBB>


>  <Class>
1

>  <MW>
341.14

>  <nHBAcc>
5

>  <nHBDon>
2

>  <SLogP>
0.41

>  <TopoPSA>
101.73

>  <MMFF94 Energy>
-52.707

$$$$
CCN1CC[C@]23[C@@H]4C=C[C@H](O)[C@@H]2OC2=C(O)C=C[C@H](C[C@@H]41)[C@@H]23
Actelion Java MolfileCreator 2.0

  0  0  0  0  0  0              0 V3000
M  V30 BEGIN CTAB
M  V30 COUNTS 45 49 0 0 0
M  V30 BEGIN ATOM
M  V30 1 O -2.1909 1.1356 -2.1097 0
M  V30 2 C -1.4292 1.9593 -1.219 0
M  V30 3 C -2.2793 -0.0477 -1.2803 0 CFG=2
M  V30 4 C -0.6599 2.9869 -1.6082 0
M  V30 5 C -1.1393 1.2529 0.0751 0 CFG=1
M  V30 6 C -0.9115 -0.1012 -0.5782 0 CFG=1
M  V30 7 C -2.824 -1.4358 -1.6151 0 CFG=1
M  V30 8 O -0.7257 3.534 -2.8625 0
M  V30 9 C 0.4803 3.3938 -0.8003 0
M  V30 10 C -0.109 1.7908 1.0349 0 CFG=2
M  V30 11 C -0.7051 -1.243 0.3934 0 CFG=2
M  V30 12 C 0.3342 -0.2138 -1.5307 0
M  V30 13 O -2.0134 -2.1876 -2.4967 0
M  V30 14 C -2.9157 -2.1309 -0.2339 0
M  V30 15 C 0.7953 2.8091 0.3775 0
M  V30 16 C 0.3972 0.6253 1.9223 0
M  V30 17 C -2.0072 -1.9168 0.7567 0
M  V30 18 C 0.4872 -0.8083 1.311 0 CFG=2
M  V30 19 C 1.6834 -0.207 -0.7829 0
M  V30 20 N 1.6992 -0.9866 0.4675 0
M  V30 21 C 2.9942 -0.8557 1.1462 0
M  V30 22 C 3.1625 -1.7823 2.345 0
M  V30 23 H -3.0896 0.2604 -0.5886 0
M  V30 24 H -2.0594 1.2537 0.6838 0
M  V30 25 H -3.8185 -1.3463 -2.0639 0
M  V30 26 H -1.4382 3.0484 -3.321 0
M  V30 27 H 1.1261 4.1592 -1.2229 0
M  V30 28 H -0.6486 2.4347 1.7511 0
M  V30 29 H -0.2731 -2.1031 -0.1536 0
M  V30 30 H 0.2696 -1.161 -2.0824 0
M  V30 31 H 0.3634 0.5488 -2.3146 0
M  V30 32 H -1.4937 -2.8188 -1.971 0
M  V30 33 H -3.8013 -2.7328 -0.0474 0
M  V30 34 H 1.6731 3.1424 0.9239 0
M  V30 35 H -0.3238 0.5344 2.7491 0
M  V30 36 H 1.3356 0.9116 2.4094 0
M  V30 37 H -2.1117 -2.3931 1.7269 0
M  V30 38 H 0.5244 -1.5299 2.1354 0
M  V30 39 H 2.0013 0.8202 -0.5981 0
M  V30 40 H 2.4352 -0.6239 -1.4657 0
M  V30 41 H 3.7873 -1.1147 0.4329 0
M  V30 42 H 3.1845 0.1786 1.4546 0
M  V30 43 H 4.1975 -1.7459 2.7009 0
M  V30 44 H 2.9373 -2.8201 2.0781 0
M  V30 45 H 2.52 -1.4877 3.1803 0
M  V30 END ATOM
M  V30 BEGIN BOND
M  V30 1 1 1 2
M  V30 2 1 1 3
M  V30 3 2 2 4
M  V30 4 1 2 5
M  V30 5 1 3 6
M  V30 6 1 3 7
M  V30 7 1 4 8
M  V30 8 1 4 9
M  V30 9 1 5 10
M  V30 10 1 6 11
M  V30 11 1 6 12
M  V30 12 1 7 13
M  V30 13 1 7 14
M  V30 14 2 9 15
M  V30 15 1 10 16
M  V30 16 1 11 17
M  V30 17 1 11 18
M  V30 18 1 12 19
M  V30 19 1 18 20
M  V30 20 1 20 21
M  V30 21 1 21 22
M  V30 22 1 5 6
M  V30 23 1 10 15
M  V30 24 2 14 17
M  V30 25 1 16 18
M  V30 26 1 19 20
M  V30 27 1 3 23
M  V30 28 1 5 24
M  V30 29 1 7 25
M  V30 30 1 8 26
M  V30 31 1 9 27
M  V30 32 1 10 28
M  V30 33 1 11 29
M  V30 34 1 12 30
M  V30 35 1 12 31
M  V30 36 1 13 32
M  V30 37 1 14 33
M  V30 38 1 15 34
M  V30 39 1 16 35
M  V30 40 1 16 36
M  V30 41 1 17 37
M  V30 42 1 18 38
M  V30 43 1 19 39
M  V30 44 1 19 40
M  V30 45 1 21 41
M  V30 46 1 21 42
M  V30 47 1 22 43
M  V30 48 1 22 44
M  V30 49 1 22 45
M  V30 END BOND
M  V30 BEGIN COLLECTION
M  V30 MDLV30/STEABS ATOMS=(7 3 5 6 7 10 11 18)
M  V30 END COLLECTION
M  V30 END CTAB
M  END
>  <NO.>
7159

>  <Name>


>  <SMILES>
CCN1CC[C@]23[C@@H]4C=C[C@H](O)[C@@H]2OC2=C(O)C=C[C@H](C[C@@H]41)[C@@H]23

>  <logBB>


>  <Class>
1

>  <MW>
301.17

>  <nHBAcc>
4

>  <nHBDon>
2

>  <SLogP>
1.99

>  <TopoPSA>
52.93

>  <MMFF94 Energy>
135.27

$$$$
CCN1C[C@@H](C(=O)O)C(=O)c2ccc(C)nc21
Actelion Java MolfileCreator 2.0

  0  0  0  0  0  0              0 V3000
M  V30 BEGIN CTAB
M  V30 COUNTS 31 32 0 0 0
M  V30 BEGIN ATOM
M  V30 1 O 0.2379 2.8587 -1.7462 0
M  V30 2 C 0.4869 1.8038 -1.1671 0
M  V30 3 C -0.3957 1.3399 -0.0749 0
M  V30 4 C 1.7117 0.9799 -1.4532 0 CFG=2
M  V30 5 C -0.1617 0.0985 0.5219 0
M  V30 6 C -1.4406 2.1495 0.3753 0
M  V30 7 C 2.2306 1.1813 -2.8433 0
M  V30 8 C 1.3735 -0.4897 -1.2737 0
M  V30 9 N -0.924 -0.3124 1.562 0
M  V30 10 N 0.8551 -0.7322 0.0681 0
M  V30 11 C -2.227 1.7094 1.4306 0
M  V30 12 O 1.7861 0.6846 -3.8657 0
M  V30 13 O 3.3108 1.9862 -2.8915 0
M  V30 14 C -1.9358 0.4775 2.0007 0
M  V30 15 C 1.0439 -2.0414 0.6864 0
M  V30 16 C -2.7536 -0.0329 3.149 0
M  V30 17 C 0.0828 -3.0768 0.1204 0
M  V30 18 H 2.4879 1.2727 -0.7343 0
M  V30 19 H -1.6326 3.1151 -0.0854 0
M  V30 20 H 2.2723 -1.0957 -1.4448 0
M  V30 21 H 0.6289 -0.8219 -2.0103 0
M  V30 22 H -3.0435 2.3202 1.8019 0
M  V30 23 H 3.5008 2.085 -3.8485 0
M  V30 24 H 2.0713 -2.3787 0.5025 0
M  V30 25 H 0.9454 -1.9857 1.7774 0
M  V30 26 H -2.6878 0.6566 3.9963 0
M  V30 27 H -3.8012 -0.1374 2.8502 0
M  V30 28 H -2.3937 -1.0129 3.4783 0
M  V30 29 H 0.2603 -4.0507 0.5874 0
M  V30 30 H 0.2162 -3.1908 -0.9601 0
M  V30 31 H -0.9607 -2.8007 0.3007 0
M  V30 END ATOM
M  V30 BEGIN BOND
M  V30 1 2 1 2
M  V30 2 1 2 3
M  V30 3 1 2 4
M  V30 4 2 3 5
M  V30 5 1 3 6
M  V30 6 1 4 7
M  V30 7 1 4 8
M  V30 8 1 5 9
M  V30 9 1 5 10
M  V30 10 2 6 11
M  V30 11 2 7 12
M  V30 12 1 7 13
M  V30 13 2 9 14
M  V30 14 1 10 15
M  V30 15 1 14 16
M  V30 16 1 15 17
M  V30 17 1 8 10
M  V30 18 1 11 14
M  V30 19 1 4 18
M  V30 20 1 6 19
M  V30 21 1 8 20
M  V30 22 1 8 21
M  V30 23 1 11 22
M  V30 24 1 13 23
M  V30 25 1 15 24
M  V30 26 1 15 25
M  V30 27 1 16 26
M  V30 28 1 16 27
M  V30 29 1 16 28
M  V30 30 1 17 29
M  V30 31 1 17 30
M  V30 32 1 17 31
M  V30 END BOND
M  V30 BEGIN COLLECTION
M  V30 MDLV30/STEABS ATOMS=(1 4)
M  V30 END COLLECTION
M  V30 END CTAB
M  END
>  <NO.>
7160

>  <Name>
zinc12359050

>  <SMILES>
CCN1C[C@@H](C(=O)O)C(=O)c2ccc(C)nc21

>  <logBB>


>  <Class>
1

>  <MW>
234.1

>  <nHBAcc>
4

>  <nHBDon>
1

>  <SLogP>
1.11

>  <TopoPSA>
70.5

>  <MMFF94 Energy>
-33.891

$$$$
CCNC[C@H](C)c1cccc(C(F)(F)F)c1
Actelion Java MolfileCreator 2.0

  0  0  0  0  0  0              0 V3000
M  V30 BEGIN CTAB
M  V30 COUNTS 32 32 0 0 0
M  V30 BEGIN ATOM
M  V30 1 F 4.2775 0.7119 0.4745 0
M  V30 2 C 4.3673 -0.1982 -0.536 0
M  V30 3 F 4.9741 -1.2924 0.001 0
M  V30 4 F 5.2576 0.3245 -1.4253 0
M  V30 5 C 3.0311 -0.5272 -1.154 0
M  V30 6 C 1.8658 -0.5328 -0.3677 0
M  V30 7 C 2.9365 -0.8667 -2.5106 0
M  V30 8 C 0.6165 -0.8582 -0.9214 0
M  V30 9 C 1.7021 -1.1884 -3.0723 0
M  V30 10 C 0.551 -1.182 -2.2841 0
M  V30 11 C -0.6572 -0.8562 -0.0843 0 CFG=2
M  V30 12 C -1.0146 0.5845 0.356 0
M  V30 13 C -0.5372 -1.8267 1.0979 0
M  V30 14 N -2.3249 0.6602 1.0149 0
M  V30 15 C -2.6705 2.0446 1.3378 0
M  V30 16 C -4.0199 2.0881 2.0386 0
M  V30 17 H 1.9413 -0.2771 0.6888 0
M  V30 18 H 3.827 -0.8792 -3.1372 0
M  V30 19 H 1.6347 -1.4461 -4.1266 0
M  V30 20 H -0.4025 -1.4348 -2.7443 0
M  V30 21 H -1.4783 -1.2259 -0.7146 0
M  V30 22 H -0.2417 0.9729 1.0314 0
M  V30 23 H -1.0227 1.2293 -0.5326 0
M  V30 24 H 0.1784 -1.4707 1.8467 0
M  V30 25 H -1.502 -1.9617 1.5975 0
M  V30 26 H -0.2045 -2.8149 0.7604 0
M  V30 27 H -2.3118 0.1098 1.8729 0
M  V30 28 H -2.7263 2.6452 0.4229 0
M  V30 29 H -1.9119 2.4883 1.9929 0
M  V30 30 H -4.8092 1.6704 1.4045 0
M  V30 31 H -3.9988 1.5239 2.9771 0
M  V30 32 H -4.2891 3.1229 2.2741 0
M  V30 END ATOM
M  V30 BEGIN BOND
M  V30 1 1 1 2
M  V30 2 1 2 3
M  V30 3 1 2 4
M  V30 4 1 2 5
M  V30 5 2 5 6
M  V30 6 1 5 7
M  V30 7 1 6 8
M  V30 8 2 7 9
M  V30 9 2 8 10
M  V30 10 1 8 11
M  V30 11 1 11 12
M  V30 12 1 11 13
M  V30 13 1 12 14
M  V30 14 1 14 15
M  V30 15 1 15 16
M  V30 16 1 9 10
M  V30 17 1 6 17
M  V30 18 1 7 18
M  V30 19 1 9 19
M  V30 20 1 10 20
M  V30 21 1 11 21
M  V30 22 1 12 22
M  V30 23 1 12 23
M  V30 24 1 13 24
M  V30 25 1 13 25
M  V30 26 1 13 26
M  V30 27 1 14 27
M  V30 28 1 15 28
M  V30 29 1 15 29
M  V30 30 1 16 30
M  V30 31 1 16 31
M  V30 32 1 16 32
M  V30 END BOND
M  V30 BEGIN COLLECTION
M  V30 MDLV30/STEABS ATOMS=(1 11)
M  V30 END COLLECTION
M  V30 END CTAB
M  END
>  <NO.>
7161

>  <Name>
(2r)-n-ethyl-2-[3-(trifluoromethyl)phenyl]propan-1-amine

>  <SMILES>
CCNC[C@H](C)c1cccc(C(F)(F)F)c1

>  <logBB>


>  <Class>
1

>  <MW>
231.12

>  <nHBAcc>
1

>  <nHBDon>
1

>  <SLogP>
3.42

>  <TopoPSA>
12.03

>  <MMFF94 Energy>
56.627

$$$$
CCOC(=O)C1=C(C)NC(C)=C(C(=O)OC)[C@H]1c1cccc([N+](=O)[O-])c1
Actelion Java MolfileCreator 2.0

  0  0  0  0  0  0              0 V3000
M  V30 BEGIN CTAB
M  V30 COUNTS 46 47 0 0 0
M  V30 BEGIN ATOM
M  V30 1 O -0.0794 -0.3971 -4.6147 0
M  V30 2 N 0.8639 0.3754 -4.3909 0 CHG=1
M  V30 3 O 1.5979 0.858 -5.2648 0 CHG=-1
M  V30 4 C 1.1289 0.7422 -2.9942 0
M  V30 5 C 0.2961 0.2504 -1.9788 0
M  V30 6 C 2.211 1.5761 -2.6896 0
M  V30 7 C 0.5455 0.5911 -0.6386 0
M  V30 8 C 2.4601 1.9166 -1.3605 0
M  V30 9 C 1.6363 1.4283 -0.3436 0
M  V30 10 C -0.3609 0.046 0.4729 0 CFG=1
M  V30 11 C 0.4148 -0.8814 1.4063 0
M  V30 12 C -1.0731 1.18 1.2061 0
M  V30 13 C 0.498 -0.6339 2.7334 0
M  V30 14 C 1.1049 -2.0392 0.7904 0
M  V30 15 C -0.935 1.3524 2.5402 0
M  V30 16 C -1.8901 2.1059 0.3883 0
M  V30 17 N -0.1479 0.4714 3.2645 0
M  V30 18 C 1.2262 -1.5072 3.7241 0
M  V30 19 O 2.2232 -2.4244 1.0925 0
M  V30 20 O 0.3037 -2.5899 -0.1563 0
M  V30 21 C -1.6159 2.4343 3.3405 0
M  V30 22 O -1.8931 3.3208 0.509 0
M  V30 23 O -2.6238 1.3925 -0.5033 0
M  V30 24 C 0.889 -3.6981 -0.85 0
M  V30 25 C -3.4405 2.1973 -1.3548 0
M  V30 26 C -0.0757 -4.1361 -1.9342 0
M  V30 27 H -0.5446 -0.3985 -2.2202 0
M  V30 28 H 2.8645 1.9647 -3.4678 0
M  V30 29 H 3.299 2.5636 -1.1125 0
M  V30 30 H 1.8527 1.7067 0.6878 0
M  V30 31 H -1.1516 -0.5674 0.0177 0
M  V30 32 H -0.0566 0.6347 4.2646 0
M  V30 33 H 2.2383 -1.1254 3.8906 0
M  V30 34 H 1.2866 -2.5514 3.4055 0
M  V30 35 H 0.7032 -1.5146 4.6874 0
M  V30 36 H -0.9353 3.2789 3.4874 0
M  V30 37 H -1.9064 2.0558 4.3273 0
M  V30 38 H -2.5353 2.7965 2.8726 0
M  V30 39 H 1.0595 -4.5212 -0.1474 0
M  V30 40 H 1.8395 -3.3951 -1.3034 0
M  V30 41 H -3.9824 1.5313 -2.0318 0
M  V30 42 H -4.1701 2.7613 -0.7653 0
M  V30 43 H -2.8207 2.8711 -1.9546 0
M  V30 44 H 0.3255 -4.9854 -2.4939 0
M  V30 45 H -1.0397 -4.4215 -1.5003 0
M  V30 46 H -0.2712 -3.3139 -2.6306 0
M  V30 END ATOM
M  V30 BEGIN BOND
M  V30 1 2 1 2
M  V30 2 1 2 3
M  V30 3 1 2 4
M  V30 4 2 4 5
M  V30 5 1 4 6
M  V30 6 1 5 7
M  V30 7 2 6 8
M  V30 8 2 7 9
M  V30 9 1 7 10
M  V30 10 1 10 11
M  V30 11 1 10 12
M  V30 12 2 11 13
M  V30 13 1 11 14
M  V30 14 2 12 15
M  V30 15 1 12 16
M  V30 16 1 13 17
M  V30 17 1 13 18
M  V30 18 2 14 19
M  V30 19 1 14 20
M  V30 20 1 15 21
M  V30 21 2 16 22
M  V30 22 1 16 23
M  V30 23 1 20 24
M  V30 24 1 23 25
M  V30 25 1 24 26
M  V30 26 1 8 9
M  V30 27 1 15 17
M  V30 28 1 5 27
M  V30 29 1 6 28
M  V30 30 1 8 29
M  V30 31 1 9 30
M  V30 32 1 10 31
M  V30 33 1 17 32
M  V30 34 1 18 33
M  V30 35 1 18 34
M  V30 36 1 18 35
M  V30 37 1 21 36
M  V30 38 1 21 37
M  V30 39 1 21 38
M  V30 40 1 24 39
M  V30 41 1 24 40
M  V30 42 1 25 41
M  V30 43 1 25 42
M  V30 44 1 25 43
M  V30 45 1 26 44
M  V30 46 1 26 45
M  V30 47 1 26 46
M  V30 END BOND
M  V30 BEGIN COLLECTION
M  V30 MDLV30/STEABS ATOMS=(1 10)
M  V30 END COLLECTION
M  V30 END CTAB
M  END
>  <NO.>
7168

>  <Name>
nitrendipine

>  <SMILES>
CCOC(=O)C1=C(C)NC(C)=C(C(=O)OC)[C@H]1c1cccc([N+](=O)[O-])c1

>  <logBB>


>  <Class>
-1

>  <MW>
360.13

>  <nHBAcc>
7

>  <nHBDon>
1

>  <SLogP>
2.57

>  <TopoPSA>
107.77

>  <MMFF94 Energy>
41.436

$$$$
CCO[C@H](Cc1ccc(OCCc2ccc(OS(C)(=O)=O)cc2)cc1)C(=O)O
Actelion Java MolfileCreator 2.0

  0  0  0  0  0  0              0 V3000
M  V30 BEGIN CTAB
M  V30 COUNTS 52 53 0 0 0
M  V30 BEGIN ATOM
M  V30 1 S 3.6098 3.2082 5.0565 0
M  V30 2 O 4.4097 4.1766 5.782 0
M  V30 3 O 2.2215 3.4811 4.7425 0
M  V30 4 O 4.4359 2.7825 3.7094 0
M  V30 5 C 3.7023 1.668 5.949 0
M  V30 6 C 4.0129 1.7597 2.9033 0
M  V30 7 C 2.7605 1.7462 2.297 0
M  V30 8 C 4.9263 0.7372 2.6481 0
M  V30 9 C 2.4019 0.6783 1.4717 0
M  V30 10 C 4.5684 -0.3295 1.8219 0
M  V30 11 C 3.2978 -0.3731 1.2337 0
M  V30 12 C 2.9076 -1.518 0.3261 0
M  V30 13 C 3.1121 -1.1966 -1.1582 0
M  V30 14 O 2.1638 -0.2418 -1.6393 0
M  V30 15 C 0.9304 -0.6693 -2.0412 0
M  V30 16 C 0.0946 0.3458 -2.512 0
M  V30 17 C 0.4541 -1.9787 -2.0109 0
M  V30 18 C -1.1998 0.061 -2.9511 0
M  V30 19 C -0.8439 -2.268 -2.4488 0
M  V30 20 C -1.6804 -1.2518 -2.9267 0
M  V30 21 C -3.0896 -1.5641 -3.3828 0
M  V30 22 C -4.1318 -1.2513 -2.2972 0 CFG=1
M  V30 23 O -4.3648 0.1624 -2.3053 0
M  V30 24 C -5.3997 -2.059 -2.5911 0
M  V30 25 C -4.9848 0.6302 -1.1098 0
M  V30 26 O -6.501 -1.6336 -2.901 0
M  V30 27 O -5.2206 -3.3898 -2.4338 0
M  V30 28 C -5.195 2.126 -1.2388 0
M  V30 29 H 4.7493 1.3717 6.0358 0
M  V30 30 H 3.2824 1.8345 6.9437 0
M  V30 31 H 3.1178 0.9067 5.4306 0
M  V30 32 H 2.0562 2.5624 2.4362 0
M  V30 33 H 5.9199 0.7675 3.0877 0
M  V30 34 H 1.4211 0.6802 0.9982 0
M  V30 35 H 5.2908 -1.1207 1.6344 0
M  V30 36 H 1.8654 -1.7857 0.5348 0
M  V30 37 H 3.5099 -2.397 0.5867 0
M  V30 38 H 4.1041 -0.7528 -1.3061 0
M  V30 39 H 3.1029 -2.1057 -1.7703 0
M  V30 40 H 0.4544 1.3718 -2.5362 0
M  V30 41 H 1.0586 -2.8026 -1.6495 0
M  V30 42 H -1.8329 0.872 -3.3064 0
M  V30 43 H -1.1955 -3.2971 -2.4135 0
M  V30 44 H -3.1291 -2.6182 -3.6843 0
M  V30 45 H -3.2989 -0.9843 -4.2918 0
M  V30 46 H -3.7658 -1.5538 -1.3071 0
M  V30 47 H -4.335 0.4219 -0.2528 0
M  V30 48 H -5.948 0.133 -0.9578 0
M  V30 49 H -6.1045 -3.7659 -2.6351 0
M  V30 50 H -5.664 2.5334 -0.3388 0
M  V30 51 H -4.2403 2.6368 -1.4022 0
M  V30 52 H -5.8297 2.3528 -2.1018 0
M  V30 END ATOM
M  V30 BEGIN BOND
M  V30 1 2 1 2
M  V30 2 2 1 3
M  V30 3 1 1 4
M  V30 4 1 1 5
M  V30 5 1 4 6
M  V30 6 2 6 7
M  V30 7 1 6 8
M  V30 8 1 7 9
M  V30 9 2 8 10
M  V30 10 2 9 11
M  V30 11 1 11 12
M  V30 12 1 12 13
M  V30 13 1 13 14
M  V30 14 1 14 15
M  V30 15 2 15 16
M  V30 16 1 15 17
M  V30 17 1 16 18
M  V30 18 2 17 19
M  V30 19 2 18 20
M  V30 20 1 20 21
M  V30 21 1 21 22
M  V30 22 1 22 23
M  V30 23 1 22 24
M  V30 24 1 23 25
M  V30 25 2 24 26
M  V30 26 1 24 27
M  V30 27 1 25 28
M  V30 28 1 10 11
M  V30 29 1 19 20
M  V30 30 1 5 29
M  V30 31 1 5 30
M  V30 32 1 5 31
M  V30 33 1 7 32
M  V30 34 1 8 33
M  V30 35 1 9 34
M  V30 36 1 10 35
M  V30 37 1 12 36
M  V30 38 1 12 37
M  V30 39 1 13 38
M  V30 40 1 13 39
M  V30 41 1 16 40
M  V30 42 1 17 41
M  V30 43 1 18 42
M  V30 44 1 19 43
M  V30 45 1 21 44
M  V30 46 1 21 45
M  V30 47 1 22 46
M  V30 48 1 25 47
M  V30 49 1 25 48
M  V30 50 1 27 49
M  V30 51 1 28 50
M  V30 52 1 28 51
M  V30 53 1 28 52
M  V30 END BOND
M  V30 BEGIN COLLECTION
M  V30 MDLV30/STEABS ATOMS=(1 22)
M  V30 END COLLECTION
M  V30 END CTAB
M  END
>  <NO.>
7181

>  <Name>
dsstox_cid_28699

>  <SMILES>
CCO[C@H](Cc1ccc(OCCc2ccc(OS(C)(=O)=O)cc2)cc1)C(=O)O

>  <logBB>


>  <Class>
1

>  <MW>
408.12

>  <nHBAcc>
6

>  <nHBDon>
1

>  <SLogP>
2.68

>  <TopoPSA>
99.13

>  <MMFF94 Energy>
76.457

$$$$
CCOc1ccccc1OC[C@H]1COCCN1
Actelion Java MolfileCreator 2.0

  0  0  0  0  0  0              0 V3000
M  V30 BEGIN CTAB
M  V30 COUNTS 36 37 0 0 0
M  V30 BEGIN ATOM
M  V30 1 O 2.6039 -3.8683 0.7885 0
M  V30 2 C 2.7482 -2.4403 0.728 0
M  V30 3 C 1.6325 -4.228 1.7822 0
M  V30 4 C 1.4062 -1.7606 0.3984 0 CFG=1
M  V30 5 C 0.2709 -3.5775 1.4945 0
M  V30 6 N 0.3829 -2.114 1.4171 0
M  V30 7 C 1.5732 -0.2337 0.311 0
M  V30 8 O 0.3511 0.3217 -0.1825 0
M  V30 9 C 0.2676 1.6856 -0.3095 0
M  V30 10 C -0.97 2.1875 -0.7627 0
M  V30 11 C 1.3112 2.5735 -0.026 0
M  V30 12 O -1.9414 1.2507 -1.0186 0
M  V30 13 C -1.1381 3.5676 -0.9224 0
M  V30 14 C 1.1312 3.9484 -0.1888 0
M  V30 15 C -3.2104 1.7157 -1.4687 0
M  V30 16 C -0.0897 4.444 -0.6357 0
M  V30 17 C -4.1055 0.5064 -1.6729 0
M  V30 18 H 3.4826 -2.224 -0.0549 0
M  V30 19 H 3.1624 -2.0814 1.6786 0
M  V30 20 H 2.0085 -3.9407 2.7717 0
M  V30 21 H 1.5333 -5.318 1.7676 0
M  V30 22 H 1.0435 -2.131 -0.5701 0
M  V30 23 H -0.1272 -3.959 0.5465 0
M  V30 24 H -0.4382 -3.8437 2.2848 0
M  V30 25 H -0.5078 -1.7066 1.1213 0
M  V30 26 H 1.8062 0.1741 1.3029 0
M  V30 27 H 2.3866 3.0E-4 -0.3865 0
M  V30 28 H 2.2777 2.2282 0.3238 0
M  V30 29 H -2.0733 3.9939 -1.2685 0
M  V30 30 H 1.9462 4.6325 0.0341 0
M  V30 31 H -3.1056 2.2469 -2.4216 0
M  V30 32 H -3.6644 2.3725 -0.7176 0
M  V30 33 H -0.2281 5.515 -0.7618 0
M  V30 34 H -5.0973 0.8094 -2.0201 0
M  V30 35 H -3.6673 -0.1778 -2.407 0
M  V30 36 H -4.2139 -0.055 -0.7389 0
M  V30 END ATOM
M  V30 BEGIN BOND
M  V30 1 1 1 2
M  V30 2 1 1 3
M  V30 3 1 2 4
M  V30 4 1 3 5
M  V30 5 1 4 6
M  V30 6 1 4 7
M  V30 7 1 7 8
M  V30 8 1 8 9
M  V30 9 2 9 10
M  V30 10 1 9 11
M  V30 11 1 10 12
M  V30 12 1 10 13
M  V30 13 2 11 14
M  V30 14 1 12 15
M  V30 15 2 13 16
M  V30 16 1 15 17
M  V30 17 1 5 6
M  V30 18 1 14 16
M  V30 19 1 2 18
M  V30 20 1 2 19
M  V30 21 1 3 20
M  V30 22 1 3 21
M  V30 23 1 4 22
M  V30 24 1 5 23
M  V30 25 1 5 24
M  V30 26 1 6 25
M  V30 27 1 7 26
M  V30 28 1 7 27
M  V30 29 1 11 28
M  V30 30 1 13 29
M  V30 31 1 14 30
M  V30 32 1 15 31
M  V30 33 1 15 32
M  V30 34 1 16 33
M  V30 35 1 17 34
M  V30 36 1 17 35
M  V30 37 1 17 36
M  V30 END BOND
M  V30 BEGIN COLLECTION
M  V30 MDLV30/STEABS ATOMS=(1 4)
M  V30 END COLLECTION
M  V30 END CTAB
M  END
>  <NO.>
7186

>  <Name>
(3r)-3-[(2-ethoxyphenoxy)methyl]morpholine

>  <SMILES>
CCOc1ccccc1OC[C@H]1COCCN1

>  <logBB>


>  <Class>
1

>  <MW>
237.14

>  <nHBAcc>
4

>  <nHBDon>
1

>  <SLogP>
1.45

>  <TopoPSA>
39.72

>  <MMFF94 Energy>
110.66

$$$$
CC[C@@H](C(=O)O)c1ccc(N2Cc3ccccc3C2=O)cc1
Actelion Java MolfileCreator 2.0

  0  0  0  0  0  0              0 V3000
M  V30 BEGIN CTAB
M  V30 COUNTS 39 41 0 0 0
M  V30 BEGIN ATOM
M  V30 1 O -0.5585 3.1149 -1.1971 0
M  V30 2 C -1.4588 2.3287 -0.9642 0
M  V30 3 N -1.4224 1.011 -0.4999 0
M  V30 4 C -2.8744 2.6734 -1.1495 0
M  V30 5 C -0.2551 0.2499 -0.2466 0
M  V30 6 C -2.761 0.4625 -0.3339 0
M  V30 7 C -3.6462 1.5734 -0.789 0
M  V30 8 C -3.4287 3.8561 -1.6034 0
M  V30 9 C -0.2936 -0.8595 0.6068 0
M  V30 10 C 0.962 0.5657 -0.8578 0
M  V30 11 C -5.0266 1.6284 -0.8743 0
M  V30 12 C -4.82 3.9205 -1.6933 0
M  V30 13 C 0.854 -1.6248 0.8488 0
M  V30 14 C 2.1106 -0.199 -0.62 0
M  V30 15 C -5.612 2.8148 -1.3317 0
M  V30 16 C 2.073 -1.3047 0.2389 0
M  V30 17 C 3.3379 -2.1128 0.4909 0 CFG=2
M  V30 18 C 3.2247 -3.5429 -0.0167 0
M  V30 19 C 3.7581 -2.1476 1.9723 0
M  V30 20 O 2.2534 -4.2806 0.0274 0
M  V30 21 O 4.392 -4.0036 -0.5182 0
M  V30 22 C 4.1505 -0.7784 2.5129 0
M  V30 23 H -2.8778 -0.4247 -0.964 0
M  V30 24 H -2.9471 0.2391 0.721 0
M  V30 25 H -2.8001 4.6968 -1.8781 0
M  V30 26 H -1.2073 -1.1531 1.1139 0
M  V30 27 H 1.0443 1.4071 -1.5412 0
M  V30 28 H -5.645 0.7808 -0.5958 0
M  V30 29 H -5.2968 4.8326 -2.046 0
M  V30 30 H 0.7785 -2.483 1.5144 0
M  V30 31 H 3.0354 0.0883 -1.1165 0
M  V30 32 H -6.6954 2.8863 -1.4093 0
M  V30 33 H 4.1512 -1.6465 -0.0832 0
M  V30 34 H 4.6177 -2.8202 2.0895 0
M  V30 35 H 2.9599 -2.5671 2.5969 0
M  V30 36 H 4.1818 -4.9211 -0.7927 0
M  V30 37 H 4.5041 -0.8699 3.545 0
M  V30 38 H 3.3022 -0.0872 2.512 0
M  V30 39 H 4.9567 -0.338 1.9176 0
M  V30 END ATOM
M  V30 BEGIN BOND
M  V30 1 2 1 2
M  V30 2 1 2 3
M  V30 3 1 2 4
M  V30 4 1 3 5
M  V30 5 1 3 6
M  V30 6 2 4 7
M  V30 7 1 4 8
M  V30 8 2 5 9
M  V30 9 1 5 10
M  V30 10 1 7 11
M  V30 11 2 8 12
M  V30 12 1 9 13
M  V30 13 2 10 14
M  V30 14 2 11 15
M  V30 15 2 13 16
M  V30 16 1 16 17
M  V30 17 1 17 18
M  V30 18 1 17 19
M  V30 19 2 18 20
M  V30 20 1 18 21
M  V30 21 1 19 22
M  V30 22 1 6 7
M  V30 23 1 12 15
M  V30 24 1 14 16
M  V30 25 1 6 23
M  V30 26 1 6 24
M  V30 27 1 8 25
M  V30 28 1 9 26
M  V30 29 1 10 27
M  V30 30 1 11 28
M  V30 31 1 12 29
M  V30 32 1 13 30
M  V30 33 1 14 31
M  V30 34 1 15 32
M  V30 35 1 17 33
M  V30 36 1 19 34
M  V30 37 1 19 35
M  V30 38 1 21 36
M  V30 39 1 22 37
M  V30 40 1 22 38
M  V30 41 1 22 39
M  V30 END BOND
M  V30 BEGIN COLLECTION
M  V30 MDLV30/STEABS ATOMS=(1 17)
M  V30 END COLLECTION
M  V30 END CTAB
M  END
>  <NO.>
7189

>  <Name>
benzeneaceticacid, 4-(1,3-dihydro-1-oxo-2h-isoindol-2-yl)-a-ethyl-

>  <SMILES>
CC[C@@H](C(=O)O)c1ccc(N2Cc3ccccc3C2=O)cc1

>  <logBB>


>  <Class>
1

>  <MW>
295.12

>  <nHBAcc>
2

>  <nHBDon>
1

>  <SLogP>
3.43

>  <TopoPSA>
57.61

>  <MMFF94 Energy>
45.507

$$$$
CC[C@@H]1C[C@H](OC(=O)C(O)(c2ccccc2)c2ccccc2)C[C@H](C)[N+]12CCCC2
Actelion Java MolfileCreator 2.0

  0  0  0  0  0  0              0 V3000
M  V30 BEGIN CTAB
M  V30 COUNTS 64 67 0 0 0
M  V30 BEGIN ATOM
M  V30 1 O 0.5582 -0.4785 -2.0748 0
M  V30 2 C 0.651 0.6055 -1.5074 0
M  V30 3 O -0.0693 0.9066 -0.3723 0
M  V30 4 C 1.5165 1.8285 -1.9651 0
M  V30 5 C -0.8581 -0.1684 0.1665 0 CFG=1
M  V30 6 O 1.7603 2.6331 -0.7858 0
M  V30 7 C 0.7714 2.7357 -2.9615 0
M  V30 8 C 2.8666 1.3395 -2.5113 0
M  V30 9 C 0.029 -1.1124 0.9644 0
M  V30 10 C -1.9064 0.4461 1.0745 0
M  V30 11 C -0.3759 2.3222 -3.6618 0
M  V30 12 C 1.2671 4.0312 -3.2165 0
M  V30 13 C 4.0553 1.4804 -1.7715 0
M  V30 14 C 2.9479 0.7114 -3.7692 0
M  V30 15 C -0.7914 -2.2402 1.5916 0 CFG=2
M  V30 16 C -2.7619 -0.6126 1.7763 0 CFG=1
M  V30 17 C -1.0148 3.1814 -4.5607 0
M  V30 18 C 0.6265 4.8866 -4.1139 0
M  V30 19 C 5.2759 1.0216 -2.2732 0
M  V30 20 C 4.1689 0.2525 -4.2689 0
M  V30 21 N -1.8661 -1.6271 2.5784 0 CHG=1
M  V30 22 C 0.12 -3.2953 2.2621 0
M  V30 23 C -3.8111 0.0946 2.6454 0
M  V30 24 C -0.5169 4.4624 -4.7826 0
M  V30 25 C 5.3321 0.4087 -3.5213 0
M  V30 26 C -2.769 -2.7849 3.1294 0
M  V30 27 C -1.2311 -0.9861 3.8413 0
M  V30 28 C 0.8903 -4.1332 1.2444 0
M  V30 29 C -2.4339 -2.8928 4.605 0
M  V30 30 C -2.0654 -1.4843 5.0056 0
M  V30 31 H -1.3683 -0.7013 -0.6466 0
M  V30 32 H 0.9449 3.1416 -0.6338 0
M  V30 33 H 0.5873 -0.5538 1.7266 0
M  V30 34 H 0.7938 -1.5243 0.2984 0
M  V30 35 H -1.4262 1.1171 1.798 0
M  V30 36 H -2.5503 1.1006 0.4717 0
M  V30 37 H -0.7876 1.3224 -3.5447 0
M  V30 38 H 2.173 4.3781 -2.719 0
M  V30 39 H 4.0475 1.9602 -0.7946 0
M  V30 40 H 2.0567 0.57 -4.3781 0
M  V30 41 H -1.3857 -2.7351 0.8117 0
M  V30 42 H -3.2776 -1.2213 1.0223 0
M  V30 43 H -1.8972 2.846 -5.1012 0
M  V30 44 H 1.0283 5.8802 -4.299 0
M  V30 45 H 6.1847 1.1486 -1.6903 0
M  V30 46 H 4.2109 -0.225 -5.2447 0
M  V30 47 H -0.4567 -3.9959 2.8689 0
M  V30 48 H 0.8499 -2.8225 2.9273 0
M  V30 49 H -4.4712 -0.5934 3.177 0
M  V30 50 H -3.3561 0.7664 3.3797 0
M  V30 51 H -4.4564 0.7135 2.0106 0
M  V30 52 H -1.0111 5.1254 -5.4887 0
M  V30 53 H 6.2826 0.0558 -3.913 0
M  V30 54 H -3.8174 -2.5206 2.9788 0
M  V30 55 H -2.5807 -3.7043 2.5681 0
M  V30 56 H -1.2202 0.1016 3.7514 0
M  V30 57 H -0.2021 -1.3355 3.9353 0
M  V30 58 H 1.446 -4.9249 1.7576 0
M  V30 59 H 0.2093 -4.6078 0.5309 0
M  V30 60 H 1.615 -3.5332 0.6877 0
M  V30 61 H -1.5849 -3.5659 4.7646 0
M  V30 62 H -3.275 -3.2824 5.1861 0
M  V30 63 H -2.965 -0.8743 5.1363 0
M  V30 64 H -1.5085 -1.4549 5.9469 0
M  V30 END ATOM
M  V30 BEGIN BOND
M  V30 1 2 1 2
M  V30 2 1 2 3
M  V30 3 1 2 4
M  V30 4 1 3 5
M  V30 5 1 4 6
M  V30 6 1 4 7
M  V30 7 1 4 8
M  V30 8 1 5 9
M  V30 9 1 5 10
M  V30 10 2 7 11
M  V30 11 1 7 12
M  V30 12 2 8 13
M  V30 13 1 8 14
M  V30 14 1 9 15
M  V30 15 1 10 16
M  V30 16 1 11 17
M  V30 17 2 12 18
M  V30 18 1 13 19
M  V30 19 2 14 20
M  V30 20 1 15 21
M  V30 21 1 15 22
M  V30 22 1 16 23
M  V30 23 2 17 24
M  V30 24 2 19 25
M  V30 25 1 21 26
M  V30 26 1 21 27
M  V30 27 1 22 28
M  V30 28 1 26 29
M  V30 29 1 27 30
M  V30 30 1 16 21
M  V30 31 1 18 24
M  V30 32 1 20 25
M  V30 33 1 29 30
M  V30 34 1 5 31
M  V30 35 1 6 32
M  V30 36 1 9 33
M  V30 37 1 9 34
M  V30 38 1 10 35
M  V30 39 1 10 36
M  V30 40 1 11 37
M  V30 41 1 12 38
M  V30 42 1 13 39
M  V30 43 1 14 40
M  V30 44 1 15 41
M  V30 45 1 16 42
M  V30 46 1 17 43
M  V30 47 1 18 44
M  V30 48 1 19 45
M  V30 49 1 20 46
M  V30 50 1 22 47
M  V30 51 1 22 48
M  V30 52 1 23 49
M  V30 53 1 23 50
M  V30 54 1 23 51
M  V30 55 1 24 52
M  V30 56 1 25 53
M  V30 57 1 26 54
M  V30 58 1 26 55
M  V30 59 1 27 56
M  V30 60 1 27 57
M  V30 61 1 28 58
M  V30 62 1 28 59
M  V30 63 1 28 60
M  V30 64 1 29 61
M  V30 65 1 29 62
M  V30 66 1 30 63
M  V30 67 1 30 64
M  V30 END BOND
M  V30 BEGIN COLLECTION
M  V30 MDLV30/STEABS ATOMS=(3 5 15 16)
M  V30 END COLLECTION
M  V30 END CTAB
M  END
>  <NO.>
7197

>  <Name>


>  <SMILES>
CC[C@@H]1C[C@H](OC(=O)C(O)(c2ccccc2)c2ccccc2)C[C@H](C)[N+]12CCCC2

>  <logBB>


>  <Class>
-1

>  <MW>
408.25

>  <nHBAcc>
3

>  <nHBDon>
1

>  <SLogP>
4.41

>  <TopoPSA>
46.53

>  <MMFF94 Energy>
142.65

$$$$
CC[N+]1(C)[C@@H]2C[C@@H](OC(=O)[C@@H](CO)c3ccccc3)C[C@@H]1[C@H]1O[C@H]12
Actelion Java MolfileCreator 2.0

  0  0  0  0  0  0              0 V3000
M  V30 BEGIN CTAB
M  V30 COUNTS 50 53 0 0 0
M  V30 BEGIN ATOM
M  V30 1 O 0.0 2.007 1.3644 0
M  V30 2 C 0.6819 1.7252 0.3863 0
M  V30 3 O 0.6944 0.4854 -0.1958 0
M  V30 4 C 1.614 2.6725 -0.349 0 CFG=2
M  V30 5 C -0.1677 -0.4967 0.4064 0 CFG=1
M  V30 6 C 2.8506 2.9924 0.4705 0
M  V30 7 C 0.8291 3.9265 -0.7446 0
M  V30 8 C 0.3607 -1.8889 -0.0076 0
M  V30 9 C -1.6422 -0.2183 0.023 0
M  V30 10 C 4.1193 2.6381 -0.0149 0
M  V30 11 C 2.7636 3.6429 1.7118 0
M  V30 12 O -0.1016 3.6034 -1.7816 0
M  V30 13 C -0.7217 -2.9787 0.0726 0 CFG=1
M  V30 14 C -2.5265 -1.4787 0.0946 0 CFG=1
M  V30 15 C 5.2693 2.9272 0.7218 0
M  V30 16 C 3.9154 3.9294 2.4467 0
M  V30 17 N -1.9073 -2.5532 -0.8641 0 CHG=1
M  V30 18 C -1.2751 -2.9885 1.4965 0 CFG=2
M  V30 19 C -2.424 -2.031 1.5064 0 CFG=1
M  V30 20 C 5.167 3.5723 1.9519 0
M  V30 21 C -2.8222 -3.7983 -1.1065 0
M  V30 22 C -1.5114 -2.0509 -2.2518 0
M  V30 23 O -2.6234 -3.4307 1.7013 0
M  V30 24 C -4.2615 -3.4357 -1.4298 0
M  V30 25 H 1.918 2.1707 -1.2783 0
M  V30 26 H -0.0678 -0.4316 1.4991 0
M  V30 27 H 1.5036 4.6962 -1.1364 0
M  V30 28 H 0.2696 4.3532 0.095 0
M  V30 29 H 0.817 -1.8586 -1.0038 0
M  V30 30 H 1.1922 -2.149 0.6617 0
M  V30 31 H -1.7098 0.2582 -0.9615 0
M  V30 32 H -2.045 0.5337 0.7143 0
M  V30 33 H 4.2284 2.1394 -0.9758 0
M  V30 34 H 1.7986 3.9304 2.1265 0
M  V30 35 H -0.505 4.4467 -2.0613 0
M  V30 36 H -0.3557 -3.9566 -0.2559 0
M  V30 37 H -3.5496 -1.2598 -0.218 0
M  V30 38 H 6.2478 2.6534 0.3346 0
M  V30 39 H 3.8363 4.4337 3.4071 0
M  V30 40 H -0.5683 -3.0425 2.3091 0
M  V30 41 H -2.5926 -1.3481 2.3242 0
M  V30 42 H 6.0633 3.7995 2.5241 0
M  V30 43 H -2.3776 -4.3537 -1.9411 0
M  V30 44 H -2.7779 -4.4727 -0.25 0
M  V30 45 H -1.0153 -2.869 -2.7825 0
M  V30 46 H -2.4174 -1.7399 -2.7771 0
M  V30 47 H -0.8275 -1.2052 -2.1953 0
M  V30 48 H -4.3392 -2.7025 -2.2365 0
M  V30 49 H -4.8012 -4.3339 -1.7488 0
M  V30 50 H -4.7851 -3.0482 -0.5508 0
M  V30 END ATOM
M  V30 BEGIN BOND
M  V30 1 2 1 2
M  V30 2 1 2 3
M  V30 3 1 2 4
M  V30 4 1 3 5
M  V30 5 1 4 6
M  V30 6 1 4 7
M  V30 7 1 5 8
M  V30 8 1 5 9
M  V30 9 2 6 10
M  V30 10 1 6 11
M  V30 11 1 7 12
M  V30 12 1 8 13
M  V30 13 1 9 14
M  V30 14 1 10 15
M  V30 15 2 11 16
M  V30 16 1 13 17
M  V30 17 1 13 18
M  V30 18 1 14 19
M  V30 19 2 15 20
M  V30 20 1 17 21
M  V30 21 1 17 22
M  V30 22 1 18 23
M  V30 23 1 21 24
M  V30 24 1 14 17
M  V30 25 1 16 20
M  V30 26 1 18 19
M  V30 27 1 19 23
M  V30 28 1 4 25
M  V30 29 1 5 26
M  V30 30 1 7 27
M  V30 31 1 7 28
M  V30 32 1 8 29
M  V30 33 1 8 30
M  V30 34 1 9 31
M  V30 35 1 9 32
M  V30 36 1 10 33
M  V30 37 1 11 34
M  V30 38 1 12 35
M  V30 39 1 13 36
M  V30 40 1 14 37
M  V30 41 1 15 38
M  V30 42 1 16 39
M  V30 43 1 18 40
M  V30 44 1 19 41
M  V30 45 1 20 42
M  V30 46 1 21 43
M  V30 47 1 21 44
M  V30 48 1 22 45
M  V30 49 1 22 46
M  V30 50 1 22 47
M  V30 51 1 24 48
M  V30 52 1 24 49
M  V30 53 1 24 50
M  V30 END BOND
M  V30 BEGIN COLLECTION
M  V30 MDLV30/STEABS ATOMS=(6 4 5 13 14 18 19)
M  V30 END COLLECTION
M  V30 END CTAB
M  END
>  <NO.>
7245

>  <Name>


>  <SMILES>
CC[N+]1(C)[C@@H]2C[C@@H](OC(=O)[C@@H](CO)c3ccccc3)C[C@@H]1[C@H]1O[C@H]12

>  <logBB>


>  <Class>
-1

>  <MW>
332.19

>  <nHBAcc>
4

>  <nHBDon>
1

>  <SLogP>
1.45

>  <TopoPSA>
59.06

>  <MMFF94 Energy>
81.184

$$$$
CCc1[nH]c(=O)[nH]c1C(=O)c1ccncc1
Actelion Java MolfileCreator 2.0

  0  0  0  0  0  0              0 V3000
M  V30 BEGIN CTAB
M  V30 COUNTS 27 28 0 0 0
M  V30 BEGIN ATOM
M  V30 1 O 4.3543 0.0 -1.8191 0
M  V30 2 C 3.2095 -0.1171 -1.4302 0
M  V30 3 N 2.7438 -0.8321 -0.3304 0
M  V30 4 N 2.0569 0.4351 -1.9976 0
M  V30 5 C 1.3728 -0.707 -0.2376 0
M  V30 6 C 0.9477 0.0571 -1.2652 0
M  V30 7 C 0.6562 -1.4301 0.8425 0
M  V30 8 C -0.4159 0.4405 -1.7377 0
M  V30 9 O 1.0952 -2.488 1.2865 0
M  V30 10 C -0.5768 -0.8593 1.4171 0
M  V30 11 C -0.6624 1.9413 -1.6685 0
M  V30 12 C -1.6355 -1.7194 1.704 0
M  V30 13 C -0.6711 0.4951 1.7326 0
M  V30 14 C -2.7767 -1.1718 2.257 0
M  V30 15 C -1.8567 0.9429 2.2852 0
M  V30 16 N -2.9129 0.1418 2.5404 0
M  V30 17 H 3.3178 -1.3915 0.284 0
M  V30 18 H 2.073 0.9926 -2.8388 0
M  V30 19 H -0.5386 0.1083 -2.776 0
M  V30 20 H -1.1907 -0.0788 -1.1663 0
M  V30 21 H 0.0245 2.488 -2.323 0
M  V30 22 H -1.6832 2.1696 -1.9918 0
M  V30 23 H -0.5367 2.3242 -0.6513 0
M  V30 24 H -1.5711 -2.784 1.5047 0
M  V30 25 H 0.1493 1.1854 1.5738 0
M  V30 26 H -3.637 -1.7903 2.498 0
M  V30 27 H -1.9942 1.9875 2.5518 0
M  V30 END ATOM
M  V30 BEGIN BOND
M  V30 1 2 1 2
M  V30 2 1 2 3
M  V30 3 1 2 4
M  V30 4 1 3 5
M  V30 5 1 4 6
M  V30 6 1 5 7
M  V30 7 1 6 8
M  V30 8 2 7 9
M  V30 9 1 7 10
M  V30 10 1 8 11
M  V30 11 2 10 12
M  V30 12 1 10 13
M  V30 13 1 12 14
M  V30 14 2 13 15
M  V30 15 2 14 16
M  V30 16 2 5 6
M  V30 17 1 15 16
M  V30 18 1 3 17
M  V30 19 1 4 18
M  V30 20 1 8 19
M  V30 21 1 8 20
M  V30 22 1 11 21
M  V30 23 1 11 22
M  V30 24 1 11 23
M  V30 25 1 12 24
M  V30 26 1 13 25
M  V30 27 1 14 26
M  V30 28 1 15 27
M  V30 END BOND
M  V30 END CTAB
M  END
>  <NO.>
7246

>  <Name>
piroximone

>  <SMILES>
CCc1[nH]c(=O)[nH]c1C(=O)c1ccncc1

>  <logBB>


>  <Class>
1

>  <MW>
217.09

>  <nHBAcc>
3

>  <nHBDon>
2

>  <SLogP>
0.89

>  <TopoPSA>
78.61

>  <MMFF94 Energy>
9.7511

$$$$
CCc1cccc2c1N[C@@H]1[C@H]2CCOC1(CC(=O)O)CC(=O)O
Actelion Java MolfileCreator 2.0

  0  0  0  0  0  0              0 V3000
M  V30 BEGIN CTAB
M  V30 COUNTS 44 46 0 0 0
M  V30 BEGIN ATOM
M  V30 1 O -1.6767 -0.1595 -2.3959 0
M  V30 2 C -1.2957 -1.2319 -1.9615 0
M  V30 3 O -2.1988 -2.1338 -1.5137 0
M  V30 4 C 0.1081 -1.7836 -1.9181 0
M  V30 5 C 1.1958 -0.7589 -1.4888 0
M  V30 6 O 1.1935 0.2153 -2.5476 0
M  V30 7 C 0.9839 -0.2428 -0.0161 0 CFG=2
M  V30 8 C 2.5328 -1.5462 -1.6094 0
M  V30 9 C 1.5299 1.5543 -2.2268 0
M  V30 10 N -0.2738 -0.6943 0.6155 0
M  V30 11 C 1.0323 1.2988 0.175 0 CFG=1
M  V30 12 C 3.7788 -0.7834 -1.2525 0
M  V30 13 C 0.687 2.0713 -1.0853 0
M  V30 14 C -0.6918 0.3236 1.4758 0
M  V30 15 C 0.0162 1.5081 1.2593 0
M  V30 16 O 3.8873 0.1387 -0.4643 0
M  V30 17 O 4.8694 -1.2818 -1.8678 0
M  V30 18 C -1.7379 0.2808 2.3898 0
M  V30 19 C -0.2579 2.6665 1.9686 0
M  V30 20 C -2.0222 1.4555 3.111 0
M  V30 21 C -2.5796 -0.948 2.6047 0
M  V30 22 C -1.2859 2.6326 2.9073 0
M  V30 23 C -3.8205 -0.9436 1.7251 0
M  V30 24 H -3.0426 -1.6396 -1.5893 0
M  V30 25 H 0.1278 -2.6508 -1.2455 0
M  V30 26 H 0.3066 -2.1567 -2.9315 0
M  V30 27 H 1.7619 -0.6817 0.624 0
M  V30 28 H 2.6534 -1.8741 -2.6509 0
M  V30 29 H 2.5127 -2.4379 -0.971 0
M  V30 30 H 2.5996 1.6377 -2.0179 0
M  V30 31 H 1.3384 2.1556 -3.1217 0
M  V30 32 H -0.4413 -1.6593 0.8658 0
M  V30 33 H 2.0236 1.5948 0.5378 0
M  V30 34 H -0.3762 1.9566 -1.3294 0
M  V30 35 H 0.8679 3.142 -0.9346 0
M  V30 36 H 5.6111 -0.7266 -1.5473 0
M  V30 37 H 0.3022 3.5785 1.7926 0
M  V30 38 H -2.8336 1.4642 3.836 0
M  V30 39 H -2.8783 -1.0062 3.6589 0
M  V30 40 H -1.9921 -1.8533 2.4159 0
M  V30 41 H -1.5303 3.5261 3.476 0
M  V30 42 H -4.4031 -1.8557 1.8875 0
M  V30 43 H -3.5568 -0.8919 0.6644 0
M  V30 44 H -4.4641 -0.0865 1.9509 0
M  V30 END ATOM
M  V30 BEGIN BOND
M  V30 1 2 1 2
M  V30 2 1 2 3
M  V30 3 1 2 4
M  V30 4 1 4 5
M  V30 5 1 5 6
M  V30 6 1 5 7
M  V30 7 1 5 8
M  V30 8 1 6 9
M  V30 9 1 7 10
M  V30 10 1 7 11
M  V30 11 1 8 12
M  V30 12 1 9 13
M  V30 13 1 10 14
M  V30 14 1 11 15
M  V30 15 2 12 16
M  V30 16 1 12 17
M  V30 17 1 14 18
M  V30 18 1 15 19
M  V30 19 2 18 20
M  V30 20 1 18 21
M  V30 21 2 19 22
M  V30 22 1 21 23
M  V30 23 1 11 13
M  V30 24 2 14 15
M  V30 25 1 20 22
M  V30 26 1 3 24
M  V30 27 1 4 25
M  V30 28 1 4 26
M  V30 29 1 7 27
M  V30 30 1 8 28
M  V30 31 1 8 29
M  V30 32 1 9 30
M  V30 33 1 9 31
M  V30 34 1 10 32
M  V30 35 1 11 33
M  V30 36 1 13 34
M  V30 37 1 13 35
M  V30 38 1 17 36
M  V30 39 1 19 37
M  V30 40 1 20 38
M  V30 41 1 21 39
M  V30 42 1 21 40
M  V30 43 1 22 41
M  V30 44 1 23 42
M  V30 45 1 23 43
M  V30 46 1 23 44
M  V30 END BOND
M  V30 BEGIN COLLECTION
M  V30 MDLV30/STEABS ATOMS=(2 7 11)
M  V30 END COLLECTION
M  V30 END CTAB
M  END
>  <NO.>
7247

>  <Name>


>  <SMILES>
CCc1cccc2c1N[C@@H]1[C@H]2CCOC1(CC(=O)O)CC(=O)O

>  <logBB>


>  <Class>
1

>  <MW>
319.14

>  <nHBAcc>
4

>  <nHBDon>
3

>  <SLogP>
2.24

>  <TopoPSA>
95.86

>  <MMFF94 Energy>
7.1926

$$$$
CN(C)CCCOc1nn(Cc2ccccc2)c2ccccc12
Actelion Java MolfileCreator 2.0

  0  0  0  0  0  0              0 V3000
M  V30 BEGIN CTAB
M  V30 COUNTS 46 48 0 0 0
M  V30 BEGIN ATOM
M  V30 1 O 0.8682 0.3156 -1.9742 0
M  V30 2 C -0.3777 0.2617 -1.4505 0
M  V30 3 C 1.8038 -0.5862 -1.3751 0
M  V30 4 N -0.7025 -0.6439 -0.5277 0
M  V30 5 C -1.4533 1.1015 -1.8105 0
M  V30 6 C 3.1458 -0.3811 -2.0745 0
M  V30 7 N -2.0007 -0.3645 -0.2639 0
M  V30 8 C -2.5138 0.6684 -1.0176 0
M  V30 9 C -1.6501 2.1679 -2.7066 0
M  V30 10 C 4.2283 -1.3534 -1.5969 0
M  V30 11 C -2.7211 -1.1834 0.7039 0
M  V30 12 C -3.7832 1.2615 -1.0767 0
M  V30 13 C -2.912 2.7683 -2.7779 0
M  V30 14 N 4.5104 -1.2961 -0.1535 0
M  V30 15 C -2.9075 -0.4788 2.0258 0
M  V30 16 C -3.9598 2.3205 -1.9741 0
M  V30 17 C 5.1198 -0.0232 0.238 0
M  V30 18 C 5.3892 -2.4036 0.2312 0
M  V30 19 C -1.7985 -0.0654 2.7803 0
M  V30 20 C -4.1944 -0.2516 2.5366 0
M  V30 21 C -1.9734 0.5746 4.0078 0
M  V30 22 C -4.3665 0.3884 3.7654 0
M  V30 23 C -3.2569 0.8024 4.4993 0
M  V30 24 H 1.475 -1.6232 -1.5182 0
M  V30 25 H 1.9013 -0.3673 -0.3048 0
M  V30 26 H 3.0051 -0.5148 -3.1551 0
M  V30 27 H 3.4685 0.6604 -1.9592 0
M  V30 28 H -0.8334 2.5177 -3.3308 0
M  V30 29 H 3.8886 -2.3654 -1.8543 0
M  V30 30 H 5.1454 -1.1775 -2.1743 0
M  V30 31 H -3.6811 -1.4483 0.2462 0
M  V30 32 H -2.162 -2.1148 0.8518 0
M  V30 33 H -4.6023 0.9265 -0.4495 0
M  V30 34 H -3.074 3.5945 -3.4661 0
M  V30 35 H -4.9313 2.8056 -2.0425 0
M  V30 36 H 4.4345 0.8132 0.07 0
M  V30 37 H 6.0508 0.1735 -0.3053 0
M  V30 38 H 5.3426 -0.0184 1.3113 0
M  V30 39 H 6.3583 -2.3586 -0.2787 0
M  V30 40 H 4.9205 -3.3665 -6.0E-4 0
M  V30 41 H 5.5668 -2.3974 1.3125 0
M  V30 42 H -0.7877 -0.236 2.4107 0
M  V30 43 H -5.0748 -0.5699 1.9829 0
M  V30 44 H -1.1063 0.8959 4.5791 0
M  V30 45 H -5.3673 0.564 4.1518 0
M  V30 46 H -3.3915 1.3017 5.4552 0
M  V30 END ATOM
M  V30 BEGIN BOND
M  V30 1 1 1 2
M  V30 2 1 1 3
M  V30 3 2 2 4
M  V30 4 1 2 5
M  V30 5 1 3 6
M  V30 6 1 4 7
M  V30 7 2 5 8
M  V30 8 1 5 9
M  V30 9 1 6 10
M  V30 10 1 7 11
M  V30 11 1 8 12
M  V30 12 2 9 13
M  V30 13 1 10 14
M  V30 14 1 11 15
M  V30 15 2 12 16
M  V30 16 1 14 17
M  V30 17 1 14 18
M  V30 18 2 15 19
M  V30 19 1 15 20
M  V30 20 1 19 21
M  V30 21 2 20 22
M  V30 22 2 21 23
M  V30 23 1 7 8
M  V30 24 1 13 16
M  V30 25 1 22 23
M  V30 26 1 3 24
M  V30 27 1 3 25
M  V30 28 1 6 26
M  V30 29 1 6 27
M  V30 30 1 9 28
M  V30 31 1 10 29
M  V30 32 1 10 30
M  V30 33 1 11 31
M  V30 34 1 11 32
M  V30 35 1 12 33
M  V30 36 1 13 34
M  V30 37 1 16 35
M  V30 38 1 17 36
M  V30 39 1 17 37
M  V30 40 1 17 38
M  V30 41 1 18 39
M  V30 42 1 18 40
M  V30 43 1 18 41
M  V30 44 1 19 42
M  V30 45 1 20 43
M  V30 46 1 21 44
M  V30 47 1 22 45
M  V30 48 1 23 46
M  V30 END BOND
M  V30 END CTAB
M  END
>  <NO.>
7252

>  <Name>
benzydamine

>  <SMILES>
CN(C)CCCOc1nn(Cc2ccccc2)c2ccccc12

>  <logBB>


>  <Class>
1

>  <MW>
309.18

>  <nHBAcc>
3

>  <nHBDon>
0

>  <SLogP>
3.42

>  <TopoPSA>
30.29

>  <MMFF94 Energy>
63.779

$$$$
CN(C)CCC[C@@H]1c2ccccc2COc2ccccc21
Actelion Java MolfileCreator 2.0

  0  0  0  0  0  0              0 V3000
M  V30 BEGIN CTAB
M  V30 COUNTS 44 46 0 0 0
M  V30 BEGIN ATOM
M  V30 1 O 1.9033 0.0 -1.9033 0
M  V30 2 C 0.9915 0.975 -2.1966 0
M  V30 3 C 1.5686 -1.1929 -2.6183 0
M  V30 4 C -0.2856 0.9174 -1.6363 0
M  V30 5 C 1.3777 2.0206 -3.033 0
M  V30 6 C 0.4689 -2.0567 -2.0269 0
M  V30 7 C -1.2053 1.9195 -1.9833 0
M  V30 8 C -0.652 -0.1625 -0.6348 0 CFG=1
M  V30 9 C 0.4567 3.0123 -3.3618 0
M  V30 10 C -0.5549 -1.5908 -1.175 0
M  V30 11 C 0.4524 -3.409 -2.4339 0
M  V30 12 C -0.8366 2.9571 -2.8441 0
M  V30 13 C 0.1198 -0.0505 0.7048 0
M  V30 14 C -1.5378 -2.507 -0.7368 0
M  V30 15 C -0.5318 -4.2923 -1.9944 0
M  V30 16 C -0.0988 1.2926 1.4168 0
M  V30 17 C -1.528 -3.8406 -1.142 0
M  V30 18 C 0.6116 1.3693 2.7769 0
M  V30 19 N 0.1754 0.3548 3.7514 0
M  V30 20 C -1.2018 0.5746 4.1952 0
M  V30 21 C 1.074 0.3536 4.9085 0
M  V30 22 H 1.3305 -0.9665 -3.6677 0
M  V30 23 H 2.4936 -1.7825 -2.6324 0
M  V30 24 H 2.3863 2.0544 -3.433 0
M  V30 25 H -2.2125 1.9083 -1.573 0
M  V30 26 H -1.7134 -9.0E-4 -0.3935 0
M  V30 27 H 0.7456 3.8261 -4.0211 0
M  V30 28 H 1.2213 -3.7837 -3.1075 0
M  V30 29 H -1.5571 3.7296 -3.1009 0
M  V30 30 H -0.2104 -0.8614 1.3667 0
M  V30 31 H 1.1948 -0.2062 0.5534 0
M  V30 32 H -2.3247 -2.1791 -0.0593 0
M  V30 33 H -0.5181 -5.3293 -2.3177 0
M  V30 34 H 0.2959 2.1048 0.795 0
M  V30 35 H -1.1709 1.4873 1.5315 0
M  V30 36 H -2.2964 -4.5225 -0.7887 0
M  V30 37 H 1.6859 1.2461 2.5859 0
M  V30 38 H 0.4828 2.3781 3.1909 0
M  V30 39 H -1.9085 0.4621 3.3674 0
M  V30 40 H -1.34 1.5668 4.6398 0
M  V30 41 H -1.4898 -0.1763 4.9398 0
M  V30 42 H 1.0731 1.3157 5.4336 0
M  V30 43 H 2.1009 0.1289 4.5996 0
M  V30 44 H 0.786 -0.4285 5.6198 0
M  V30 END ATOM
M  V30 BEGIN BOND
M  V30 1 1 1 2
M  V30 2 1 1 3
M  V30 3 2 2 4
M  V30 4 1 2 5
M  V30 5 1 3 6
M  V30 6 1 4 7
M  V30 7 1 4 8
M  V30 8 2 5 9
M  V30 9 2 6 10
M  V30 10 1 6 11
M  V30 11 2 7 12
M  V30 12 1 8 13
M  V30 13 1 10 14
M  V30 14 2 11 15
M  V30 15 1 13 16
M  V30 16 2 14 17
M  V30 17 1 16 18
M  V30 18 1 18 19
M  V30 19 1 19 20
M  V30 20 1 19 21
M  V30 21 1 8 10
M  V30 22 1 9 12
M  V30 23 1 15 17
M  V30 24 1 3 22
M  V30 25 1 3 23
M  V30 26 1 5 24
M  V30 27 1 7 25
M  V30 28 1 8 26
M  V30 29 1 9 27
M  V30 30 1 11 28
M  V30 31 1 12 29
M  V30 32 1 13 30
M  V30 33 1 13 31
M  V30 34 1 14 32
M  V30 35 1 15 33
M  V30 36 1 16 34
M  V30 37 1 16 35
M  V30 38 1 17 36
M  V30 39 1 18 37
M  V30 40 1 18 38
M  V30 41 1 20 39
M  V30 42 1 20 40
M  V30 43 1 20 41
M  V30 44 1 21 42
M  V30 45 1 21 43
M  V30 46 1 21 44
M  V30 END BOND
M  V30 BEGIN COLLECTION
M  V30 MDLV30/STEABS ATOMS=(1 8)
M  V30 END COLLECTION
M  V30 END CTAB
M  END
>  <NO.>
7253

>  <Name>


>  <SMILES>
CN(C)CCC[C@@H]1c2ccccc2COc2ccccc21

>  <logBB>


>  <Class>
1

>  <MW>
281.18

>  <nHBAcc>
2

>  <nHBDon>
0

>  <SLogP>
4.05

>  <TopoPSA>
12.47

>  <MMFF94 Energy>
76.109

$$$$
CN(C)CCN(c1ccc(Cl)cc1)c1ccccn1
Actelion Java MolfileCreator 2.0

  0  0  0  0  0  0              0 V3000
M  V30 BEGIN CTAB
M  V30 COUNTS 37 38 0 0 0
M  V30 BEGIN ATOM
M  V30 1 Cl 1.7489 5.2537 -1.4307 0
M  V30 2 C 1.0444 3.7773 -0.8995 0
M  V30 3 C 0.6082 3.6515 0.4162 0
M  V30 4 C 0.9121 2.7141 -1.7867 0
M  V30 5 C 0.0364 2.4498 0.8482 0
M  V30 6 C 0.338 1.5166 -1.3503 0
M  V30 7 C -0.109 1.3617 -0.0263 0
M  V30 8 N -0.6735 0.14 0.3929 0
M  V30 9 C -1.7879 -0.5197 -0.183 0
M  V30 10 C -0.1535 -0.4504 1.6513 0
M  V30 11 N -2.0925 -1.784 0.194 0
M  V30 12 C -2.5926 0.1272 -1.1289 0
M  V30 13 C 1.3914 -0.6232 1.6911 0
M  V30 14 C -3.1545 -2.4049 -0.3674 0
M  V30 15 C -3.6877 -0.5263 -1.6971 0
M  V30 16 N 1.9299 -1.9001 1.1691 0
M  V30 17 C -3.9752 -1.824 -1.312 0
M  V30 18 C 3.3724 -1.9716 1.4134 0
M  V30 19 C 1.661 -2.0628 -0.2595 0
M  V30 20 H 0.7036 4.4821 1.1105 0
M  V30 21 H 1.2548 2.8044 -2.8137 0
M  V30 22 H -0.3179 2.3833 1.8736 0
M  V30 23 H 0.2569 0.685 -2.0475 0
M  V30 24 H -0.6006 -1.4206 1.8987 0
M  V30 25 H -0.4511 0.2008 2.484 0
M  V30 26 H -2.3952 1.1527 -1.422 0
M  V30 27 H 1.9041 0.2236 1.2206 0
M  V30 28 H 1.659 -0.5828 2.7561 0
M  V30 29 H -3.3295 -3.4189 -0.0197 0
M  V30 30 H -4.3081 -0.0167 -2.4284 0
M  V30 31 H -4.8161 -2.365 -1.7295 0
M  V30 32 H 3.5868 -1.8994 2.4857 0
M  V30 33 H 3.9198 -1.1747 0.8969 0
M  V30 34 H 3.7722 -2.9363 1.0813 0
M  V30 35 H 2.044 -1.2244 -0.8518 0
M  V30 36 H 0.5919 -2.1745 -0.4515 0
M  V30 37 H 2.1249 -2.9824 -0.635 0
M  V30 END ATOM
M  V30 BEGIN BOND
M  V30 1 1 1 2
M  V30 2 2 2 3
M  V30 3 1 2 4
M  V30 4 1 3 5
M  V30 5 2 4 6
M  V30 6 2 5 7
M  V30 7 1 7 8
M  V30 8 1 8 9
M  V30 9 1 8 10
M  V30 10 2 9 11
M  V30 11 1 9 12
M  V30 12 1 10 13
M  V30 13 1 11 14
M  V30 14 2 12 15
M  V30 15 1 13 16
M  V30 16 2 14 17
M  V30 17 1 16 18
M  V30 18 1 16 19
M  V30 19 1 6 7
M  V30 20 1 15 17
M  V30 21 1 3 20
M  V30 22 1 4 21
M  V30 23 1 5 22
M  V30 24 1 6 23
M  V30 25 1 10 24
M  V30 26 1 10 25
M  V30 27 1 12 26
M  V30 28 1 13 27
M  V30 29 1 13 28
M  V30 30 1 14 29
M  V30 31 1 15 30
M  V30 32 1 17 31
M  V30 33 1 18 32
M  V30 34 1 18 33
M  V30 35 1 18 34
M  V30 36 1 19 35
M  V30 37 1 19 36
M  V30 38 1 19 37
M  V30 END BOND
M  V30 END CTAB
M  END
>  <NO.>
7254

>  <Name>


>  <SMILES>
CN(C)CCN(c1ccc(Cl)cc1)c1ccccn1

>  <logBB>


>  <Class>
1

>  <MW>
275.12

>  <nHBAcc>
3

>  <nHBDon>
0

>  <SLogP>
3.43

>  <TopoPSA>
19.37

>  <MMFF94 Energy>
48.667

$$$$
CN1C(C(=O)Nc2ccccn2)=C(O)c2sc(Cl)cc2S1(=O)=O
Actelion Java MolfileCreator 2.0

  0  0  0  0  0  0              0 V3000
M  V30 BEGIN CTAB
M  V30 COUNTS 33 35 0 0 0
M  V30 BEGIN ATOM
M  V30 1 Cl -1.1788 4.0458 -5.7351 0
M  V30 2 C -0.6117 3.1148 -4.4085 0
M  V30 3 S -1.5866 1.8837 -3.7702 0
M  V30 4 C 0.593 3.2525 -3.7719 0
M  V30 5 C -0.4051 1.4738 -2.585 0
M  V30 6 C 0.6896 2.2974 -2.7292 0
M  V30 7 C -0.5643 0.4456 -1.6038 0
M  V30 8 S 1.9971 2.0645 -1.6527 0
M  V30 9 O -1.8631 -0.0139 -1.483 0
M  V30 10 C 0.478 0.0155 -0.8494 0
M  V30 11 O 1.7228 2.9671 -0.5574 0
M  V30 12 O 3.1748 2.1739 -2.4821 0
M  V30 13 N 1.8349 0.4729 -1.1014 0
M  V30 14 C 0.2514 -1.0392 0.1941 0
M  V30 15 C 2.9399 0.0026 -0.2431 0
M  V30 16 O 0.8584 -2.1014 0.1483 0
M  V30 17 N -0.6677 -0.6569 1.1391 0
M  V30 18 C -1.1403 -1.3893 2.228 0
M  V30 19 N -2.0959 -0.7368 2.9221 0
M  V30 20 C -0.6962 -2.6565 2.5763 0
M  V30 21 C -2.6235 -1.363 3.9982 0
M  V30 22 C -1.2584 -3.2802 3.6898 0
M  V30 23 C -2.2415 -2.6238 4.4177 0
M  V30 24 H 1.353 3.9781 -4.0339 0
M  V30 25 H -1.9073 -0.8089 -0.9227 0
M  V30 26 H 3.8806 0.5009 -0.4979 0
M  V30 27 H 3.1086 -1.0667 -0.3992 0
M  V30 28 H 2.7254 0.1938 0.8126 0
M  V30 29 H -1.0728 0.2728 1.1116 0
M  V30 30 H 0.0728 -3.1774 2.0191 0
M  V30 31 H -3.3876 -0.8039 4.5314 0
M  V30 32 H -0.9262 -4.2722 3.9841 0
M  V30 33 H -2.6964 -3.0822 5.2887 0
M  V30 END ATOM
M  V30 BEGIN BOND
M  V30 1 1 1 2
M  V30 2 1 2 3
M  V30 3 2 2 4
M  V30 4 1 3 5
M  V30 5 1 4 6
M  V30 6 1 5 7
M  V30 7 1 6 8
M  V30 8 1 7 9
M  V30 9 2 7 10
M  V30 10 2 8 11
M  V30 11 2 8 12
M  V30 12 1 8 13
M  V30 13 1 10 14
M  V30 14 1 13 15
M  V30 15 2 14 16
M  V30 16 1 14 17
M  V30 17 1 17 18
M  V30 18 2 18 19
M  V30 19 1 18 20
M  V30 20 1 19 21
M  V30 21 2 20 22
M  V30 22 2 21 23
M  V30 23 2 5 6
M  V30 24 1 10 13
M  V30 25 1 22 23
M  V30 26 1 4 24
M  V30 27 1 9 25
M  V30 28 1 15 26
M  V30 29 1 15 27
M  V30 30 1 15 28
M  V30 31 1 17 29
M  V30 32 1 20 30
M  V30 33 1 21 31
M  V30 34 1 22 32
M  V30 35 1 23 33
M  V30 END BOND
M  V30 END CTAB
M  END
>  <NO.>
7283

>  <Name>
lornoxicam

>  <SMILES>
CN1C(C(=O)Nc2ccccn2)=C(O)c2sc(Cl)cc2S1(=O)=O

>  <logBB>


>  <Class>
1

>  <MW>
370.98

>  <nHBAcc>
6

>  <nHBDon>
2

>  <SLogP>
2.3

>  <TopoPSA>
99.6

>  <MMFF94 Energy>
-26.763

$$$$
CN1C(C(=O)Nc2ccccn2)=Cc2sccc2S1(=O)=O
Actelion Java MolfileCreator 2.0

  0  0  0  0  0  0              0 V3000
M  V30 BEGIN CTAB
M  V30 COUNTS 32 34 0 0 0
M  V30 BEGIN ATOM
M  V30 1 S 1.5796 0.2492 2.6614 0
M  V30 2 O 1.8358 1.6081 2.2379 0
M  V30 3 O 1.3596 -0.1062 4.0452 0
M  V30 4 N 0.3326 -0.3811 1.7124 0
M  V30 5 C 2.9873 -0.6157 2.2126 0
M  V30 6 C 0.6661 -0.8491 0.3877 0
M  V30 7 C -1.0295 0.0198 2.0876 0
M  V30 8 C 2.9651 -1.2872 1.0156 0
M  V30 9 C 4.2033 -0.7306 2.9297 0
M  V30 10 C -0.3573 -0.8919 -0.7054 0
M  V30 11 C 1.8897 -1.3258 0.0903 0
M  V30 12 S 4.4624 -2.0696 0.7427 0
M  V30 13 C 5.1039 -1.509 2.2346 0
M  V30 14 O -0.6009 -1.9404 -1.2891 0
M  V30 15 N -0.899 0.3434 -0.9525 0
M  V30 16 C -1.892 0.6842 -1.8685 0
M  V30 17 N -2.1999 1.9988 -1.8494 0
M  V30 18 C -2.5205 -0.2182 -2.7144 0
M  V30 19 C -3.1568 2.4279 -2.7026 0
M  V30 20 C -3.5051 0.2512 -3.5832 0
M  V30 21 C -3.832 1.6003 -3.5807 0
M  V30 22 H -1.241 1.0394 1.754 0
M  V30 23 H -1.1615 -0.0266 3.1731 0
M  V30 24 H -1.7689 -0.6631 1.6579 0
M  V30 25 H 4.4061 -0.2759 3.8922 0
M  V30 26 H 2.0798 -1.7287 -0.9035 0
M  V30 27 H 6.1112 -1.7774 2.524 0
M  V30 28 H -0.5535 1.1494 -0.4466 0
M  V30 29 H -2.2731 -1.2728 -2.7242 0
M  V30 30 H -3.3727 3.4918 -2.659 0
M  V30 31 H -4.01 -0.4364 -4.2561 0
M  V30 32 H -4.5921 1.9955 -4.2452 0
M  V30 END ATOM
M  V30 BEGIN BOND
M  V30 1 2 1 2
M  V30 2 2 1 3
M  V30 3 1 1 4
M  V30 4 1 1 5
M  V30 5 1 4 6
M  V30 6 1 4 7
M  V30 7 2 5 8
M  V30 8 1 5 9
M  V30 9 1 6 10
M  V30 10 2 6 11
M  V30 11 1 8 12
M  V30 12 2 9 13
M  V30 13 2 10 14
M  V30 14 1 10 15
M  V30 15 1 15 16
M  V30 16 2 16 17
M  V30 17 1 16 18
M  V30 18 1 17 19
M  V30 19 2 18 20
M  V30 20 2 19 21
M  V30 21 1 8 11
M  V30 22 1 12 13
M  V30 23 1 20 21
M  V30 24 1 7 22
M  V30 25 1 7 23
M  V30 26 1 7 24
M  V30 27 1 9 25
M  V30 28 1 11 26
M  V30 29 1 13 27
M  V30 30 1 15 28
M  V30 31 1 18 29
M  V30 32 1 19 30
M  V30 33 1 20 31
M  V30 34 1 21 32
M  V30 END BOND
M  V30 END CTAB
M  END
>  <NO.>
7284

>  <Name>
cn1s(c2=c(c=c1c(=o)nc1=nc=cc=c1)sc=c2)(=o)=o

>  <SMILES>
CN1C(C(=O)Nc2ccccn2)=Cc2sccc2S1(=O)=O

>  <logBB>


>  <Class>
1

>  <MW>
321.02

>  <nHBAcc>
5

>  <nHBDon>
1

>  <SLogP>
1.76

>  <TopoPSA>
79.37

>  <MMFF94 Energy>
-31.747

$$$$
CN1C(C(=O)Nc2nccs2)=C(O)c2ccccc2S1(=O)=O
Actelion Java MolfileCreator 2.0

  0  0  0  0  0  0              0 V3000
M  V30 BEGIN CTAB
M  V30 COUNTS 33 35 0 0 0
M  V30 BEGIN ATOM
M  V30 1 S -0.8324 -0.8324 1.9155 0
M  V30 2 O -1.1608 -1.9118 1.0087 0
M  V30 3 O -0.5578 -1.0729 3.3162 0
M  V30 4 N 0.4915 -0.0025 1.2616 0
M  V30 5 C -2.0841 0.3959 1.8115 0
M  V30 6 C 0.2293 0.5517 -0.0401 0
M  V30 7 C 1.8176 -0.5081 1.6478 0
M  V30 8 C -1.9823 1.3429 0.7879 0
M  V30 9 C -3.095 0.4431 2.7771 0
M  V30 10 C -0.9092 1.2544 -0.2262 0
M  V30 11 C 1.185 0.3948 -1.1822 0
M  V30 12 C -2.9637 2.3434 0.7337 0
M  V30 13 C -4.0534 1.4501 2.7066 0
M  V30 14 O -1.1962 1.9303 -1.4042 0
M  V30 15 O 1.4201 1.3611 -1.901 0
M  V30 16 N 1.6163 -0.8979 -1.3309 0
M  V30 17 C -3.9889 2.3975 1.6854 0
M  V30 18 C 2.5198 -1.3698 -2.245 0
M  V30 19 S 3.3025 -0.3737 -3.3838 0
M  V30 20 N 2.8474 -2.6402 -2.2716 0
M  V30 21 C 4.1432 -1.7385 -3.9887 0
M  V30 22 C 3.7732 -2.8566 -3.274 0
M  V30 23 H 1.9475 -0.4251 2.7315 0
M  V30 24 H 2.6122 0.0912 1.1927 0
M  V30 25 H 1.947 -1.5537 1.3556 0
M  V30 26 H -3.1358 -0.2932 3.5765 0
M  V30 27 H -2.9403 3.0949 -0.0537 0
M  V30 28 H -4.8493 1.4999 3.446 0
M  V30 29 H -0.3753 2.0051 -1.9386 0
M  V30 30 H 1.2053 -1.6293 -0.7633 0
M  V30 31 H -4.7386 3.1835 1.6257 0
M  V30 32 H 4.8429 -1.6598 -4.808 0
M  V30 33 H 4.1497 -3.8585 -3.4418 0
M  V30 END ATOM
M  V30 BEGIN BOND
M  V30 1 2 1 2
M  V30 2 2 1 3
M  V30 3 1 1 4
M  V30 4 1 1 5
M  V30 5 1 4 6
M  V30 6 1 4 7
M  V30 7 2 5 8
M  V30 8 1 5 9
M  V30 9 2 6 10
M  V30 10 1 6 11
M  V30 11 1 8 12
M  V30 12 2 9 13
M  V30 13 1 10 14
M  V30 14 2 11 15
M  V30 15 1 11 16
M  V30 16 2 12 17
M  V30 17 1 16 18
M  V30 18 1 18 19
M  V30 19 2 18 20
M  V30 20 1 19 21
M  V30 21 1 20 22
M  V30 22 1 8 10
M  V30 23 1 13 17
M  V30 24 2 21 22
M  V30 25 1 7 23
M  V30 26 1 7 24
M  V30 27 1 7 25
M  V30 28 1 9 26
M  V30 29 1 12 27
M  V30 30 1 13 28
M  V30 31 1 14 29
M  V30 32 1 16 30
M  V30 33 1 17 31
M  V30 34 1 21 32
M  V30 35 1 22 33
M  V30 END BOND
M  V30 END CTAB
M  END
>  <NO.>
7285

>  <Name>
sudoxicam

>  <SMILES>
CN1C(C(=O)Nc2nccs2)=C(O)c2ccccc2S1(=O)=O

>  <logBB>


>  <Class>
1

>  <MW>
337.02

>  <nHBAcc>
6

>  <nHBDon>
2

>  <SLogP>
1.64

>  <TopoPSA>
99.6

>  <MMFF94 Energy>
-21.631

$$$$
CN1CCC[C@@H](N2N[C@@H](Cc3ccc(Cl)cc3)c3ccccc3C2=O)CC1
Actelion Java MolfileCreator 2.0

  0  0  0  0  0  0              0 V3000
M  V30 BEGIN CTAB
M  V30 COUNTS 53 56 0 0 0
M  V30 BEGIN ATOM
M  V30 1 Cl -7.3364 0.9651 3.1392 0
M  V30 2 C -5.7246 1.1339 2.5626 0
M  V30 3 C -5.1757 2.4027 2.4021 0
M  V30 4 C -4.972 6.0E-4 2.2673 0
M  V30 5 C -3.8664 2.5376 1.9345 0
M  V30 6 C -3.6617 0.1356 1.7996 0
M  V30 7 C -3.1001 1.4064 1.6075 0
M  V30 8 C -1.6713 1.5853 1.1288 0
M  V30 9 C -1.2233 0.7399 -0.0962 0 CFG=2
M  V30 10 N 0.2566 0.7086 -0.0764 0
M  V30 11 C -1.6761 1.2284 -1.4634 0
M  V30 12 N 0.7784 -0.1329 -1.1012 0
M  V30 13 C -0.9175 0.8374 -2.5859 0
M  V30 14 C -2.8337 1.9883 -1.6862 0
M  V30 15 C 0.2942 -0.0122 -2.4093 0
M  V30 16 C 1.9513 -0.9852 -0.8048 0 CFG=1
M  V30 17 C -1.3005 1.2088 -3.8823 0
M  V30 18 C -3.2091 2.3646 -2.9805 0
M  V30 19 O 0.7908 -0.5764 -3.381 0
M  V30 20 C 3.1789 -0.122 -0.4845 0
M  V30 21 C 1.5996 -2.0471 0.2529 0
M  V30 22 C -2.4443 1.9778 -4.077 0
M  V30 23 C 4.4525 -0.8985 -0.149 0
M  V30 24 C 2.6367 -3.1662 0.3137 0
M  V30 25 N 4.3498 -1.4871 1.1887 0
M  V30 26 C 3.8498 -2.8658 1.1983 0
M  V30 27 C 5.6316 -1.4212 1.8957 0
M  V30 28 H -5.7571 3.2889 2.6424 0
M  V30 29 H -5.3956 -0.9909 2.4046 0
M  V30 30 H -3.4492 3.5371 1.8233 0
M  V30 31 H -3.0901 -0.7672 1.5993 0
M  V30 32 H -1.0483 1.3309 1.9986 0
M  V30 33 H -1.4779 2.647 0.9218 0
M  V30 34 H -1.5841 -0.2899 0.0178 0
M  V30 35 H 0.5744 0.3612 0.8295 0
M  V30 36 H -3.4752 2.3004 -0.8694 0
M  V30 37 H 2.1875 -1.5288 -1.7286 0
M  V30 38 H -0.7076 0.896 -4.739 0
M  V30 39 H -4.1091 2.9569 -3.1309 0
M  V30 40 H 2.9557 0.5699 0.3387 0
M  V30 41 H 3.3857 0.5171 -1.3536 0
M  V30 42 H 1.4545 -1.6001 1.2434 0
M  V30 43 H 0.6372 -2.4984 -0.0236 0
M  V30 44 H -2.7413 2.2675 -5.0815 0
M  V30 45 H 5.2694 -0.1645 -0.1737 0
M  V30 46 H 4.6951 -1.6414 -0.9185 0
M  V30 47 H 2.1536 -4.0692 0.7088 0
M  V30 48 H 2.97 -3.4238 -0.6991 0
M  V30 49 H 4.6452 -3.5686 0.9155 0
M  V30 50 H 3.5743 -3.1115 2.2325 0
M  V30 51 H 5.9559 -0.3805 2.0091 0
M  V30 52 H 6.4189 -1.9749 1.3717 0
M  V30 53 H 5.5369 -1.8276 2.9091 0
M  V30 END ATOM
M  V30 BEGIN BOND
M  V30 1 1 1 2
M  V30 2 2 2 3
M  V30 3 1 2 4
M  V30 4 1 3 5
M  V30 5 2 4 6
M  V30 6 2 5 7
M  V30 7 1 7 8
M  V30 8 1 8 9
M  V30 9 1 9 10
M  V30 10 1 9 11
M  V30 11 1 10 12
M  V30 12 2 11 13
M  V30 13 1 11 14
M  V30 14 1 12 15
M  V30 15 1 12 16
M  V30 16 1 13 17
M  V30 17 2 14 18
M  V30 18 2 15 19
M  V30 19 1 16 20
M  V30 20 1 16 21
M  V30 21 2 17 22
M  V30 22 1 20 23
M  V30 23 1 21 24
M  V30 24 1 23 25
M  V30 25 1 24 26
M  V30 26 1 25 27
M  V30 27 1 6 7
M  V30 28 1 13 15
M  V30 29 1 18 22
M  V30 30 1 25 26
M  V30 31 1 3 28
M  V30 32 1 4 29
M  V30 33 1 5 30
M  V30 34 1 6 31
M  V30 35 1 8 32
M  V30 36 1 8 33
M  V30 37 1 9 34
M  V30 38 1 10 35
M  V30 39 1 14 36
M  V30 40 1 16 37
M  V30 41 1 17 38
M  V30 42 1 18 39
M  V30 43 1 20 40
M  V30 44 1 20 41
M  V30 45 1 21 42
M  V30 46 1 21 43
M  V30 47 1 22 44
M  V30 48 1 23 45
M  V30 49 1 23 46
M  V30 50 1 24 47
M  V30 51 1 24 48
M  V30 52 1 26 49
M  V30 53 1 26 50
M  V30 54 1 27 51
M  V30 55 1 27 52
M  V30 56 1 27 53
M  V30 END BOND
M  V30 BEGIN COLLECTION
M  V30 MDLV30/STEABS ATOMS=(2 9 16)
M  V30 END COLLECTION
M  V30 END CTAB
M  END
>  <NO.>
7286

>  <Name>


>  <SMILES>
CN1CCC[C@@H](N2N[C@@H](Cc3ccc(Cl)cc3)c3ccccc3C2=O)CC1

>  <logBB>


>  <Class>
1

>  <MW>
383.18

>  <nHBAcc>
3

>  <nHBDon>
1

>  <SLogP>
4.07

>  <TopoPSA>
35.58

>  <MMFF94 Energy>
124.53

$$$$
CN1CCN(CCCCN2C(=O)CN(/N=C\c3ccc(-c4ccc(Cl)cc4)o3)C2=O)CC1
Actelion Java MolfileCreator 2.0

  0  0  0  0  0  0              0 V3000
M  V30 BEGIN CTAB
M  V30 COUNTS 60 63 0 0 0
M  V30 BEGIN ATOM
M  V30 1 Cl -8.8416 -5.4587 -4.7349 0
M  V30 2 C -7.7243 -4.2245 -4.303 0
M  V30 3 C -6.4739 -4.1769 -4.9113 0
M  V30 4 C -8.0743 -3.2767 -3.3456 0
M  V30 5 C -5.5674 -3.1713 -4.5582 0
M  V30 6 C -7.165 -2.2723 -2.9944 0
M  V30 7 C -5.8981 -2.2032 -3.5957 0
M  V30 8 C -4.9545 -1.1508 -3.2231 0
M  V30 9 O -3.7808 -1.1135 -3.9215 0
M  V30 10 C -4.9626 -0.1269 -2.2976 0
M  V30 11 C -3.0206 -0.0871 -3.4281 0
M  V30 12 C -3.7318 0.5612 -2.4379 0
M  V30 13 C -1.7415 0.1253 -4.0549 0
M  V30 14 N -0.7359 0.8683 -3.6833 0
M  V30 15 N -0.6798 1.3627 -2.4157 0
M  V30 16 C -0.6899 0.5659 -1.2545 0
M  V30 17 C -0.1268 2.6647 -2.1567 0
M  V30 18 O -0.9398 -0.6286 -1.184 0
M  V30 19 N -0.3402 1.3738 -0.2046 0
M  V30 20 C 0.0075 2.6172 -0.6488 0
M  V30 21 C -0.2555 0.9328 1.1724 0
M  V30 22 O 0.3938 3.5517 0.041 0
M  V30 23 C 1.1236 0.3534 1.4872 0
M  V30 24 C 1.2121 -0.1034 2.9454 0
M  V30 25 C 2.5613 -0.7511 3.2894 0
M  V30 26 N 3.7256 0.1064 3.0265 0
M  V30 27 C 4.9754 -0.6711 3.1764 0
M  V30 28 C 3.7794 1.2743 3.9315 0
M  V30 29 C 6.2393 0.1899 2.954 0
M  V30 30 C 5.0482 2.1328 3.7143 0
M  V30 31 N 6.2878 1.3478 3.8666 0
M  V30 32 C 7.4604 2.1743 3.5923 0
M  V30 33 H -6.1942 -4.9152 -5.6579 0
M  V30 34 H -9.0499 -3.3112 -2.8678 0
M  V30 35 H -4.5933 -3.1546 -5.0435 0
M  V30 36 H -7.4642 -1.5445 -2.244 0
M  V30 37 H -5.7587 0.1049 -1.6047 0
M  V30 38 H -3.4123 1.4306 -1.8831 0
M  V30 39 H -1.6272 -0.3651 -5.0372 0
M  V30 40 H -0.8284 3.4395 -2.471 0
M  V30 41 H 0.854 2.7638 -2.627 0
M  V30 42 H -0.4582 1.7889 1.8258 0
M  V30 43 H -1.0274 0.174 1.3434 0
M  V30 44 H 1.8888 1.1109 1.2794 0
M  V30 45 H 1.33 -0.4933 0.8212 0
M  V30 46 H 1.0113 0.7411 3.6146 0
M  V30 47 H 0.422 -0.8403 3.1386 0
M  V30 48 H 2.5458 -1.0749 4.3383 0
M  V30 49 H 2.6453 -1.6624 2.6826 0
M  V30 50 H 5.0249 -1.1292 4.1737 0
M  V30 51 H 4.9877 -1.4854 2.4417 0
M  V30 52 H 3.7421 0.9494 4.98 0
M  V30 53 H 2.9143 1.9235 3.7582 0
M  V30 54 H 6.2678 0.5202 1.9067 0
M  V30 55 H 7.119 -0.4432 3.121 0
M  V30 56 H 5.0012 2.592 2.7173 0
M  V30 57 H 5.04 2.9469 4.4493 0
M  V30 58 H 7.4602 2.5735 2.5716 0
M  V30 59 H 8.3792 1.595 3.735 0
M  V30 60 H 7.5075 3.0168 4.2912 0
M  V30 END ATOM
M  V30 BEGIN BOND
M  V30 1 1 1 2
M  V30 2 2 2 3
M  V30 3 1 2 4
M  V30 4 1 3 5
M  V30 5 2 4 6
M  V30 6 2 5 7
M  V30 7 1 7 8
M  V30 8 1 8 9
M  V30 9 2 8 10
M  V30 10 1 9 11
M  V30 11 1 10 12
M  V30 12 1 11 13
M  V30 13 2 13 14
M  V30 14 1 14 15
M  V30 15 1 15 16
M  V30 16 1 15 17
M  V30 17 2 16 18
M  V30 18 1 16 19
M  V30 19 1 17 20
M  V30 20 1 19 21
M  V30 21 2 20 22
M  V30 22 1 21 23
M  V30 23 1 23 24
M  V30 24 1 24 25
M  V30 25 1 25 26
M  V30 26 1 26 27
M  V30 27 1 26 28
M  V30 28 1 27 29
M  V30 29 1 28 30
M  V30 30 1 29 31
M  V30 31 1 31 32
M  V30 32 1 6 7
M  V30 33 2 11 12
M  V30 34 1 19 20
M  V30 35 1 30 31
M  V30 36 1 3 33
M  V30 37 1 4 34
M  V30 38 1 5 35
M  V30 39 1 6 36
M  V30 40 1 10 37
M  V30 41 1 12 38
M  V30 42 1 13 39
M  V30 43 1 17 40
M  V30 44 1 17 41
M  V30 45 1 21 42
M  V30 46 1 21 43
M  V30 47 1 23 44
M  V30 48 1 23 45
M  V30 49 1 24 46
M  V30 50 1 24 47
M  V30 51 1 25 48
M  V30 52 1 25 49
M  V30 53 1 27 50
M  V30 54 1 27 51
M  V30 55 1 28 52
M  V30 56 1 28 53
M  V30 57 1 29 54
M  V30 58 1 29 55
M  V30 59 1 30 56
M  V30 60 1 30 57
M  V30 61 1 32 58
M  V30 62 1 32 59
M  V30 63 1 32 60
M  V30 END BOND
M  V30 END CTAB
M  END
>  <NO.>
7289

>  <Name>
azimilide

>  <SMILES>
CN1CCN(CCCCN2C(=O)CN(/N=C\c3ccc(-c4ccc(Cl)cc4)o3)C2=O)CC1

>  <logBB>


>  <Class>
1

>  <MW>
457.19

>  <nHBAcc>
6

>  <nHBDon>
0

>  <SLogP>
3.23

>  <TopoPSA>
72.6

>  <MMFF94 Energy>
111.62

$$$$
CN1[C@@H]2CC[C@@H]1CC(OC(=O)c1cn(C)c3ccccc13)C2
Actelion Java MolfileCreator 2.0

  0  0  0  0  0  0              0 V3000
M  V30 BEGIN CTAB
M  V30 COUNTS 44 47 0 0 0
M  V30 BEGIN ATOM
M  V30 1 O 1.9995 1.0394 1.0394 0
M  V30 2 C 0.7967 0.8023 1.0034 0
M  V30 3 O 0.2438 -0.2191 0.2887 0
M  V30 4 C -0.1923 1.5942 1.7275 0
M  V30 5 C 1.1544 -1.041 -0.465 0
M  V30 6 C -1.6224 1.4636 1.7899 0
M  V30 7 C 0.1361 2.679 2.5254 0
M  V30 8 C 0.469 -2.3926 -0.7135 0
M  V30 9 C 1.542 -0.3459 -1.7792 0
M  V30 10 C -2.103 2.4789 2.6273 0
M  V30 11 C -2.5632 0.5787 1.2146 0
M  V30 12 N -1.0097 3.1981 3.0568 0
M  V30 13 C 1.1303 -3.1876 -1.8519 0 CFG=2
M  V30 14 C 2.1036 -1.3302 -2.8199 0 CFG=2
M  V30 15 C -3.4708 2.6385 2.9063 0
M  V30 16 C -3.9276 0.7295 1.4864 0
M  V30 17 C -1.0626 4.34 3.9429 0
M  V30 18 N 1.1723 -2.4268 -3.1045 0
M  V30 19 C 2.6352 -3.3715 -1.6143 0
M  V30 20 C 3.2825 -2.1354 -2.2567 0
M  V30 21 C -4.3729 1.7469 2.3217 0
M  V30 22 C -0.1121 -2.0421 -3.6605 0
M  V30 23 H 2.0532 -1.2265 0.1376 0
M  V30 24 H 1.106 3.1088 2.7453 0
M  V30 25 H -0.5983 -2.2432 -0.9199 0
M  V30 26 H 0.4979 -2.9778 0.2148 0
M  V30 27 H 2.2904 0.4285 -1.57 0
M  V30 28 H 0.6792 0.1951 -2.1871 0
M  V30 29 H -2.2402 -0.2242 0.5584 0
M  V30 30 H 0.636 -4.1571 -1.9764 0
M  V30 31 H 2.3984 -0.7954 -3.7292 0
M  V30 32 H -3.8277 3.4303 3.5574 0
M  V30 33 H -4.6429 0.0437 1.0392 0
M  V30 34 H -0.0513 4.7162 4.1175 0
M  V30 35 H -1.5073 4.0228 4.8897 0
M  V30 36 H -1.6692 5.1168 3.4701 0
M  V30 37 H 2.9972 -4.2739 -2.1224 0
M  V30 38 H 2.8919 -3.4639 -0.5539 0
M  V30 39 H 3.8827 -1.5676 -1.5382 0
M  V30 40 H 3.9503 -2.4567 -3.0657 0
M  V30 41 H -5.4364 1.8514 2.5235 0
M  V30 42 H 0.0326 -1.5222 -4.6138 0
M  V30 43 H -0.707 -1.3917 -3.013 0
M  V30 44 H -0.7093 -2.9346 -3.8768 0
M  V30 END ATOM
M  V30 BEGIN BOND
M  V30 1 2 1 2
M  V30 2 1 2 3
M  V30 3 1 2 4
M  V30 4 1 3 5
M  V30 5 1 4 6
M  V30 6 2 4 7
M  V30 7 1 5 8
M  V30 8 1 5 9
M  V30 9 2 6 10
M  V30 10 1 6 11
M  V30 11 1 7 12
M  V30 12 1 8 13
M  V30 13 1 9 14
M  V30 14 1 10 15
M  V30 15 2 11 16
M  V30 16 1 12 17
M  V30 17 1 13 18
M  V30 18 1 13 19
M  V30 19 1 14 20
M  V30 20 2 15 21
M  V30 21 1 18 22
M  V30 22 1 10 12
M  V30 23 1 14 18
M  V30 24 1 16 21
M  V30 25 1 19 20
M  V30 26 1 5 23
M  V30 27 1 7 24
M  V30 28 1 8 25
M  V30 29 1 8 26
M  V30 30 1 9 27
M  V30 31 1 9 28
M  V30 32 1 11 29
M  V30 33 1 13 30
M  V30 34 1 14 31
M  V30 35 1 15 32
M  V30 36 1 16 33
M  V30 37 1 17 34
M  V30 38 1 17 35
M  V30 39 1 17 36
M  V30 40 1 19 37
M  V30 41 1 19 38
M  V30 42 1 20 39
M  V30 43 1 20 40
M  V30 44 1 21 41
M  V30 45 1 22 42
M  V30 46 1 22 43
M  V30 47 1 22 44
M  V30 END BOND
M  V30 BEGIN COLLECTION
M  V30 MDLV30/STEABS ATOMS=(2 13 14)
M  V30 END COLLECTION
M  V30 END CTAB
M  END
>  <NO.>
7308

>  <Name>


>  <SMILES>
CN1[C@@H]2CC[C@@H]1CC(OC(=O)c1cn(C)c3ccccc13)C2

>  <logBB>


>  <Class>
1

>  <MW>
298.17

>  <nHBAcc>
3

>  <nHBDon>
0

>  <SLogP>
2.96

>  <TopoPSA>
34.47

>  <MMFF94 Energy>
41.451

$$$$
CN1c2ccccc2N(CCCCCCC(=O)O)c2ccc(Cl)cc2S1(=O)=O
Actelion Java MolfileCreator 2.0

  0  0  0  0  0  0              0 V3000
M  V30 BEGIN CTAB
M  V30 COUNTS 51 53 0 0 0
M  V30 BEGIN ATOM
M  V30 1 Cl -3.822 -3.822 -3.4148 0
M  V30 2 C -2.996 -2.9301 -2.2006 0
M  V30 3 C -3.6513 -1.9248 -1.5058 0
M  V30 4 C -1.6708 -3.2103 -1.9153 0
M  V30 5 C -2.9791 -1.1857 -0.506 0
M  V30 6 C -1.0083 -2.4783 -0.9238 0
M  V30 7 S -3.9459 0.1487 0.1552 0
M  V30 8 C -1.6355 -1.4431 -0.1894 0
M  V30 9 O -4.903 -0.4291 1.0782 0
M  V30 10 O -4.4143 0.8965 -0.9989 0
M  V30 11 N -2.9015 1.1793 1.0165 0
M  V30 12 N -0.9036 -0.8165 0.8322 0
M  V30 13 C -2.3823 0.5779 2.2183 0
M  V30 14 C -3.3578 2.5798 1.0923 0
M  V30 15 C -1.407 -0.4224 2.0902 0
M  V30 16 C 0.4749 -0.3538 0.5674 0
M  V30 17 C -2.8964 0.8978 3.4825 0
M  V30 18 C -0.9138 -1.0388 3.2528 0
M  V30 19 C 0.4764 0.8369 -0.4009 0
M  V30 20 C -2.3996 0.2716 4.6263 0
M  V30 21 C -1.4026 -0.6917 4.5126 0
M  V30 22 C 1.8698 1.4286 -0.6316 0
M  V30 23 C 2.8106 0.4862 -1.3858 0
M  V30 24 C 4.1486 1.1646 -1.6862 0
M  V30 25 C 5.089 0.2305 -2.4453 0
M  V30 26 C 6.4093 0.8897 -2.7393 0
M  V30 27 O 6.7706 2.0073 -2.4153 0
M  V30 28 O 7.2274 0.0804 -3.4405 0
M  V30 29 H -4.6889 -1.6953 -1.7458 0
M  V30 30 H -1.1463 -4.0022 -2.4432 0
M  V30 31 H 0.015 -2.769 -0.6988 0
M  V30 32 H -4.3596 2.6531 1.5269 0
M  V30 33 H -3.3652 3.026 0.0931 0
M  V30 34 H -2.667 3.1782 1.6962 0
M  V30 35 H 1.0883 -1.1711 0.1768 0
M  V30 36 H 0.9727 -0.0461 1.4971 0
M  V30 37 H -3.6971 1.6225 3.5934 0
M  V30 38 H -0.1583 -1.8165 3.1721 0
M  V30 39 H -0.1658 1.6292 0.0027 0
M  V30 40 H 0.0404 0.5468 -1.3643 0
M  V30 41 H -2.8026 0.5264 5.6034 0
M  V30 42 H -1.0198 -1.1883 5.4006 0
M  V30 43 H 2.3159 1.7093 0.3301 0
M  V30 44 H 1.7553 2.3549 -1.2083 0
M  V30 45 H 2.3399 0.171 -2.3247 0
M  V30 46 H 2.9931 -0.4172 -0.7937 0
M  V30 47 H 4.6204 1.4816 -0.7476 0
M  V30 48 H 3.9789 2.0744 -2.2758 0
M  V30 49 H 5.2813 -0.6688 -1.8501 0
M  V30 50 H 4.632 -0.0613 -3.3973 0
M  V30 51 H 8.0392 0.6151 -3.5675 0
M  V30 END ATOM
M  V30 BEGIN BOND
M  V30 1 1 1 2
M  V30 2 2 2 3
M  V30 3 1 2 4
M  V30 4 1 3 5
M  V30 5 2 4 6
M  V30 6 1 5 7
M  V30 7 2 5 8
M  V30 8 2 7 9
M  V30 9 2 7 10
M  V30 10 1 7 11
M  V30 11 1 8 12
M  V30 12 1 11 13
M  V30 13 1 11 14
M  V30 14 1 12 15
M  V30 15 1 12 16
M  V30 16 1 13 17
M  V30 17 1 15 18
M  V30 18 1 16 19
M  V30 19 2 17 20
M  V30 20 2 18 21
M  V30 21 1 19 22
M  V30 22 1 22 23
M  V30 23 1 23 24
M  V30 24 1 24 25
M  V30 25 1 25 26
M  V30 26 2 26 27
M  V30 27 1 26 28
M  V30 28 1 6 8
M  V30 29 2 13 15
M  V30 30 1 20 21
M  V30 31 1 3 29
M  V30 32 1 4 30
M  V30 33 1 6 31
M  V30 34 1 14 32
M  V30 35 1 14 33
M  V30 36 1 14 34
M  V30 37 1 16 35
M  V30 38 1 16 36
M  V30 39 1 17 37
M  V30 40 1 18 38
M  V30 41 1 19 39
M  V30 42 1 19 40
M  V30 43 1 20 41
M  V30 44 1 21 42
M  V30 45 1 22 43
M  V30 46 1 22 44
M  V30 47 1 23 45
M  V30 48 1 23 46
M  V30 49 1 24 47
M  V30 50 1 24 48
M  V30 51 1 25 49
M  V30 52 1 25 50
M  V30 53 1 28 51
M  V30 END BOND
M  V30 END CTAB
M  END
>  <NO.>
7314

>  <Name>


>  <SMILES>
CN1c2ccccc2N(CCCCCCC(=O)O)c2ccc(Cl)cc2S1(=O)=O

>  <logBB>


>  <Class>
1

>  <MW>
422.11

>  <nHBAcc>
4

>  <nHBDon>
1

>  <SLogP>
4.65

>  <TopoPSA>
77.92

>  <MMFF94 Energy>
17.529

$$$$
CNS(=O)(=O)CCc1ccc2[nH]c(C3CCN(C)CC3)cc2c1
Actelion Java MolfileCreator 2.0

  0  0  0  0  0  0              0 V3000
M  V30 BEGIN CTAB
M  V30 COUNTS 48 50 0 0 0
M  V30 BEGIN ATOM
M  V30 1 S -6.2575 1.9222 0.0 0
M  V30 2 O -6.9151 0.6519 -0.2111 0
M  V30 3 O -6.4719 3.0509 -0.8765 0
M  V30 4 N -6.663 2.3891 1.5556 0
M  V30 5 C -4.5014 1.6265 0.1357 0
M  V30 6 C -6.1115 3.6168 2.113 0
M  V30 7 C -3.9524 1.1012 -1.1825 0
M  V30 8 C -2.4636 0.8711 -1.0931 0
M  V30 9 C -1.9697 -0.3553 -0.6142 0
M  V30 10 C -1.5696 1.8868 -1.4526 0
M  V30 11 C -0.5794 -0.5541 -0.506 0
M  V30 12 C -0.1852 1.7092 -1.3541 0
M  V30 13 C 0.2775 0.4786 -0.8773 0
M  V30 14 C 0.2338 -1.6379 -0.0763 0
M  V30 15 N 1.5627 0.0285 -0.6807 0
M  V30 16 C 1.5567 -1.2573 -0.1915 0
M  V30 17 C 2.8137 -2.0187 0.1221 0
M  V30 18 C 3.6729 -2.2395 -1.1286 0
M  V30 19 C 3.6321 -1.3378 1.2259 0
M  V30 20 C 4.9707 -2.9694 -0.7755 0
M  V30 21 C 4.9314 -2.1017 1.4902 0
M  V30 22 N 5.7477 -2.3266 0.2913 0
M  V30 23 C 6.42 -1.112 -0.1623 0
M  V30 24 H -6.8572 1.6157 2.1908 0
M  V30 25 H -4.0244 2.5734 0.4085 0
M  V30 26 H -4.3517 0.9023 0.9433 0
M  V30 27 H -5.126 3.4253 2.5455 0
M  V30 28 H -6.7706 3.9716 2.9108 0
M  V30 29 H -6.0377 4.4083 1.3634 0
M  V30 30 H -4.4501 0.1644 -1.4634 0
M  V30 31 H -4.1673 1.8039 -1.9976 0
M  V30 32 H -2.649 -1.1543 -0.3297 0
M  V30 33 H -1.9467 2.839 -1.8227 0
M  V30 34 H 0.4983 2.5014 -1.6412 0
M  V30 35 H -0.1158 -2.599 0.2781 0
M  V30 36 H 2.3911 0.5736 -0.8741 0
M  V30 37 H 2.5137 -3.0086 0.4961 0
M  V30 38 H 3.1146 -2.8302 -1.8659 0
M  V30 39 H 3.906 -1.2841 -1.6151 0
M  V30 40 H 3.8616 -0.299 0.957 0
M  V30 41 H 3.0449 -1.2915 2.1519 0
M  V30 42 H 4.7271 -3.9911 -0.4557 0
M  V30 43 H 5.5864 -3.0858 -1.6759 0
M  V30 44 H 5.518 -1.5799 2.2564 0
M  V30 45 H 4.6856 -3.0784 1.9273 0
M  V30 46 H 5.7268 -0.325 -0.4758 0
M  V30 47 H 7.084 -1.3352 -1.0049 0
M  V30 48 H 7.0556 -0.7074 0.6333 0
M  V30 END ATOM
M  V30 BEGIN BOND
M  V30 1 2 1 2
M  V30 2 2 1 3
M  V30 3 1 1 4
M  V30 4 1 1 5
M  V30 5 1 4 6
M  V30 6 1 5 7
M  V30 7 1 7 8
M  V30 8 2 8 9
M  V30 9 1 8 10
M  V30 10 1 9 11
M  V30 11 2 10 12
M  V30 12 2 11 13
M  V30 13 1 11 14
M  V30 14 1 13 15
M  V30 15 2 14 16
M  V30 16 1 16 17
M  V30 17 1 17 18
M  V30 18 1 17 19
M  V30 19 1 18 20
M  V30 20 1 19 21
M  V30 21 1 20 22
M  V30 22 1 22 23
M  V30 23 1 12 13
M  V30 24 1 15 16
M  V30 25 1 21 22
M  V30 26 1 4 24
M  V30 27 1 5 25
M  V30 28 1 5 26
M  V30 29 1 6 27
M  V30 30 1 6 28
M  V30 31 1 6 29
M  V30 32 1 7 30
M  V30 33 1 7 31
M  V30 34 1 9 32
M  V30 35 1 10 33
M  V30 36 1 12 34
M  V30 37 1 14 35
M  V30 38 1 15 36
M  V30 39 1 17 37
M  V30 40 1 18 38
M  V30 41 1 18 39
M  V30 42 1 19 40
M  V30 43 1 19 41
M  V30 44 1 20 42
M  V30 45 1 20 43
M  V30 46 1 21 44
M  V30 47 1 21 45
M  V30 48 1 23 46
M  V30 49 1 23 47
M  V30 50 1 23 48
M  V30 END BOND
M  V30 END CTAB
M  END
>  <NO.>
7321

>  <Name>
cns(=o)(=o)ccc=1c=c2c=c(nc2=cc=1)c1ccn(cc1)c

>  <SMILES>
CNS(=O)(=O)CCc1ccc2[nH]c(C3CCN(C)CC3)cc2c1

>  <logBB>


>  <Class>
1

>  <MW>
335.17

>  <nHBAcc>
3

>  <nHBDon>
2

>  <SLogP>
2.07

>  <TopoPSA>
65.2

>  <MMFF94 Energy>
-55.54

$$$$
COC(=O)C1=C(C#N)NC(C)=C(C(=O)OC(C)C)[C@H]1c1cccc([N+](=O)[O-])c1
Actelion Java MolfileCreator 2.0

  0  0  0  0  0  0              0 V3000
M  V30 BEGIN CTAB
M  V30 COUNTS 47 48 0 0 0
M  V30 BEGIN ATOM
M  V30 1 O 0.638 -0.7178 -4.793 0
M  V30 2 N 0.4817 0.5032 -4.6509 0 CHG=1
M  V30 3 O 0.6393 1.3415 -5.5501 0 CHG=-1
M  V30 4 C 0.0823 0.9914 -3.3244 0
M  V30 5 C -0.0872 0.0813 -2.2707 0
M  V30 6 C -0.1243 2.3614 -3.1237 0
M  V30 7 C -0.466 0.5426 -0.9964 0
M  V30 8 C -0.502 2.8208 -1.8623 0
M  V30 9 C -0.6717 1.9202 -0.8082 0
M  V30 10 C -0.659 -0.4258 0.1759 0 CFG=1
M  V30 11 C -1.8377 -1.3547 -0.0776 0
M  V30 12 C 0.6368 -1.1744 0.4914 0
M  V30 13 C -1.6758 -2.6905 -0.0933 0
M  V30 14 C -3.1621 -0.7544 -0.3188 0
M  V30 15 C 0.704 -2.5257 0.4557 0
M  V30 16 C 1.8299 -0.3516 0.7975 0
M  V30 17 N -0.4343 -3.2552 0.1476 0
M  V30 18 C -2.7323 -3.6336 -0.2993 0
M  V30 19 O -3.92 -1.1014 -1.208 0
M  V30 20 O -3.3867 0.2231 0.5928 0
M  V30 21 C 1.9394 -3.3335 0.7662 0
M  V30 22 O 2.9406 -0.5471 0.3328 0
M  V30 23 O 1.481 0.632 1.6634 0
M  V30 24 N -3.5463 -4.4511 -0.4238 0
M  V30 25 C -4.6529 0.8684 0.4427 0
M  V30 26 C 2.5373 1.5287 2.0551 0
M  V30 27 C 1.8811 2.8411 2.4658 0
M  V30 28 C 3.3123 0.9234 3.2195 0
M  V30 29 H 0.0772 -0.9831 -2.4348 0
M  V30 30 H 0.0035 3.0774 -3.933 0
M  V30 31 H -0.6647 3.8843 -1.6992 0
M  V30 32 H -0.9667 2.3052 0.1673 0
M  V30 33 H -0.9076 0.1526 1.0772 0
M  V30 34 H -0.3603 -4.2716 0.1166 0
M  V30 35 H 1.6716 -4.2482 1.3074 0
M  V30 36 H 2.6494 -2.8 1.4039 0
M  V30 37 H 2.4431 -3.622 -0.1615 0
M  V30 38 H -4.7375 1.632 1.2209 0
M  V30 39 H -4.7186 1.3597 -0.533 0
M  V30 40 H -5.4678 0.1494 0.5723 0
M  V30 41 H 3.2078 1.7259 1.2099 0
M  V30 42 H 2.6261 3.5765 2.784 0
M  V30 43 H 1.3131 3.2606 1.6285 0
M  V30 44 H 1.1675 2.6861 3.2827 0
M  V30 45 H 4.0931 1.604 3.5721 0
M  V30 46 H 3.7845 -0.0194 2.9255 0
M  V30 47 H 2.6438 0.6913 4.0561 0
M  V30 END ATOM
M  V30 BEGIN BOND
M  V30 1 2 1 2
M  V30 2 1 2 3
M  V30 3 1 2 4
M  V30 4 2 4 5
M  V30 5 1 4 6
M  V30 6 1 5 7
M  V30 7 2 6 8
M  V30 8 2 7 9
M  V30 9 1 7 10
M  V30 10 1 10 11
M  V30 11 1 10 12
M  V30 12 2 11 13
M  V30 13 1 11 14
M  V30 14 2 12 15
M  V30 15 1 12 16
M  V30 16 1 13 17
M  V30 17 1 13 18
M  V30 18 2 14 19
M  V30 19 1 14 20
M  V30 20 1 15 21
M  V30 21 2 16 22
M  V30 22 1 16 23
M  V30 23 3 18 24
M  V30 24 1 20 25
M  V30 25 1 23 26
M  V30 26 1 26 27
M  V30 27 1 26 28
M  V30 28 1 8 9
M  V30 29 1 15 17
M  V30 30 1 5 29
M  V30 31 1 6 30
M  V30 32 1 8 31
M  V30 33 1 9 32
M  V30 34 1 10 33
M  V30 35 1 17 34
M  V30 36 1 21 35
M  V30 37 1 21 36
M  V30 38 1 21 37
M  V30 39 1 25 38
M  V30 40 1 25 39
M  V30 41 1 25 40
M  V30 42 1 26 41
M  V30 43 1 27 42
M  V30 44 1 27 43
M  V30 45 1 27 44
M  V30 46 1 28 45
M  V30 47 1 28 46
M  V30 48 1 28 47
M  V30 END BOND
M  V30 BEGIN COLLECTION
M  V30 MDLV30/STEABS ATOMS=(1 10)
M  V30 END COLLECTION
M  V30 END CTAB
M  END
>  <NO.>
7354

>  <Name>
(r)-nilvadipine

>  <SMILES>
COC(=O)C1=C(C#N)NC(C)=C(C(=O)OC(C)C)[C@H]1c1cccc([N+](=O)[O-])c1

>  <logBB>


>  <Class>
1

>  <MW>
385.13

>  <nHBAcc>
8

>  <nHBDon>
1

>  <SLogP>
2.46

>  <TopoPSA>
131.56

>  <MMFF94 Energy>
42.758

$$$$
COC(=O)C1=C(C)NC(C)=C(C(=O)OC(C)C)[C@H]1c1cccc2nonc12
Actelion Java MolfileCreator 2.0

  0  0  0  0  0  0              0 V3000
M  V30 BEGIN CTAB
M  V30 COUNTS 48 50 0 0 0
M  V30 BEGIN ATOM
M  V30 1 O -0.7197 -2.5609 0.6397 0
M  V30 2 C -0.0503 -1.9584 -0.1853 0
M  V30 3 O 1.2119 -2.2586 -0.575 0
M  V30 4 C -0.4953 -0.7039 -0.8263 0
M  V30 5 C 1.8143 -3.4042 0.0519 0
M  V30 6 C -0.4549 -0.4894 -2.16 0
M  V30 7 C -1.0477 0.3408 0.1354 0 CFG=2
M  V30 8 C 1.4101 -4.6664 -0.6999 0
M  V30 9 C 3.3231 -3.2009 -8.0E-4 0
M  V30 10 N -0.9224 0.7111 -2.6696 0
M  V30 11 C 0.0271 -1.4913 -3.1765 0
M  V30 12 C -1.5835 1.5829 -0.5702 0
M  V30 13 C -0.0219 0.7029 1.2018 0
M  V30 14 C -1.4902 1.7244 -1.9122 0
M  V30 15 C -2.1826 2.6398 0.2766 0
M  V30 16 C 1.2323 1.3211 0.9714 0
M  V30 17 C -0.2578 0.4149 2.5742 0
M  V30 18 C -2.0004 2.9134 -2.6865 0
M  V30 19 O -1.9867 3.8373 0.1441 0
M  V30 20 O -2.98 2.0661 1.2144 0
M  V30 21 N 1.7901 1.719 -0.1791 0
M  V30 22 C 2.1679 1.6273 2.0484 0
M  V30 23 C 0.6552 0.7163 3.6192 0
M  V30 24 C -3.6058 3.0041 2.0906 0
M  V30 25 O 3.0181 2.2582 0.1543 0
M  V30 26 N 3.2541 2.1993 1.5162 0
M  V30 27 C 1.897 1.3332 3.396 0
M  V30 28 H 1.5099 -3.4718 1.1036 0
M  V30 29 H -1.9097 -0.1334 0.6273 0
M  V30 30 H 1.89 -5.5524 -0.2735 0
M  V30 31 H 0.3254 -4.8108 -0.6635 0
M  V30 32 H 1.681 -4.5947 -1.759 0
M  V30 33 H 3.8543 -4.0385 0.4608 0
M  V30 34 H 3.6008 -2.2797 0.5232 0
M  V30 35 H 3.6696 -3.0905 -1.0343 0
M  V30 36 H -0.8349 0.865 -3.6708 0
M  V30 37 H 1.0468 -1.2478 -3.491 0
M  V30 38 H 0.0096 -2.5192 -2.8041 0
M  V30 39 H -0.6167 -1.4753 -4.0632 0
M  V30 40 H -1.1945 -0.0743 2.8528 0
M  V30 41 H -1.1866 3.6229 -2.8665 0
M  V30 42 H -2.397 2.5972 -3.6581 0
M  V30 43 H -2.8191 3.4323 -2.1804 0
M  V30 44 H 0.3793 0.4529 4.641 0
M  V30 45 H -4.2194 2.445 2.8022 0
M  V30 46 H -2.8524 3.5667 2.6509 0
M  V30 47 H -4.2571 3.6799 1.5277 0
M  V30 48 H 2.593 1.5611 4.1924 0
M  V30 END ATOM
M  V30 BEGIN BOND
M  V30 1 2 1 2
M  V30 2 1 2 3
M  V30 3 1 2 4
M  V30 4 1 3 5
M  V30 5 2 4 6
M  V30 6 1 4 7
M  V30 7 1 5 8
M  V30 8 1 5 9
M  V30 9 1 6 10
M  V30 10 1 6 11
M  V30 11 1 7 12
M  V30 12 1 7 13
M  V30 13 1 10 14
M  V30 14 1 12 15
M  V30 15 1 13 16
M  V30 16 2 13 17
M  V30 17 1 14 18
M  V30 18 2 15 19
M  V30 19 1 15 20
M  V30 20 2 16 21
M  V30 21 1 16 22
M  V30 22 1 17 23
M  V30 23 1 20 24
M  V30 24 1 21 25
M  V30 25 2 22 26
M  V30 26 1 22 27
M  V30 27 2 12 14
M  V30 28 2 23 27
M  V30 29 1 25 26
M  V30 30 1 5 28
M  V30 31 1 7 29
M  V30 32 1 8 30
M  V30 33 1 8 31
M  V30 34 1 8 32
M  V30 35 1 9 33
M  V30 36 1 9 34
M  V30 37 1 9 35
M  V30 38 1 10 36
M  V30 39 1 11 37
M  V30 40 1 11 38
M  V30 41 1 11 39
M  V30 42 1 17 40
M  V30 43 1 18 41
M  V30 44 1 18 42
M  V30 45 1 18 43
M  V30 46 1 23 44
M  V30 47 1 24 45
M  V30 48 1 24 46
M  V30 49 1 24 47
M  V30 50 1 27 48
M  V30 END BOND
M  V30 BEGIN COLLECTION
M  V30 MDLV30/STEABS ATOMS=(1 7)
M  V30 END COLLECTION
M  V30 END CTAB
M  END
>  <NO.>
7355

>  <Name>
mmv001493

>  <SMILES>
COC(=O)C1=C(C)NC(C)=C(C(=O)OC(C)C)[C@H]1c1cccc2nonc12

>  <logBB>


>  <Class>
1

>  <MW>
371.15

>  <nHBAcc>
8

>  <nHBDon>
1

>  <SLogP>
2.58

>  <TopoPSA>
103.55

>  <MMFF94 Energy>
16.096

$$$$
COC(=O)C1=C(C)NC(C)=C(OC(C)=O)[C@H]1c1ccccc1[N+](=O)[O-]
Actelion Java MolfileCreator 2.0

  0  0  0  0  0  0              0 V3000
M  V30 BEGIN CTAB
M  V30 COUNTS 43 44 0 0 0
M  V30 BEGIN ATOM
M  V30 1 O -1.9903 0.3182 3.3455 0
M  V30 2 N -0.9206 0.6557 2.822 0 CHG=1
M  V30 3 O 0.21 0.3279 3.2055 0 CHG=-1
M  V30 4 C -0.9952 1.5547 1.6843 0
M  V30 5 C -0.5346 1.1674 0.4117 0
M  V30 6 C -1.5299 2.8292 1.93 0
M  V30 7 C -0.6114 2.1334 -0.6134 0
M  V30 8 C 0.007 -0.2328 0.0899 0 CFG=2
M  V30 9 C -1.5995 3.7542 0.8921 0
M  V30 10 C -1.1368 3.4077 -0.3751 0
M  V30 11 C 1.4973 -0.1575 -0.2597 0
M  V30 12 C -0.8228 -0.9058 -1.0058 0
M  V30 13 O 2.3474 0.3275 0.7491 0
M  V30 14 C 1.954 -0.5232 -1.4763 0
M  V30 15 C -0.2721 -1.2608 -2.1905 0
M  V30 16 C -2.2651 -1.1073 -0.7291 0
M  V30 17 C 2.731 -0.6549 1.6313 0
M  V30 18 N 1.0768 -1.0298 -2.4173 0
M  V30 19 C 3.4001 -0.4355 -1.8766 0
M  V30 20 C -1.0169 -1.9457 -3.3087 0
M  V30 21 O -3.1596 -0.951 -1.5451 0
M  V30 22 O -2.4272 -1.4666 0.5682 0
M  V30 23 O 2.4472 -1.8444 1.5695 0
M  V30 24 C 3.6071 -0.0543 2.6896 0
M  V30 25 C -3.7876 -1.6593 0.9583 0
M  V30 26 H -1.8874 3.1037 2.9204 0
M  V30 27 H -0.2659 1.8951 -1.6197 0
M  V30 28 H -0.0623 -0.8838 0.9682 0
M  V30 29 H -2.0119 4.745 1.0686 0
M  V30 30 H -1.1895 4.1293 -1.1879 0
M  V30 31 H 1.4642 -1.3254 -3.3093 0
M  V30 32 H 4.0323 -0.0017 -1.0962 0
M  V30 33 H 3.7894 -1.4332 -2.1049 0
M  V30 34 H 3.5062 0.1888 -2.7701 0
M  V30 35 H -0.3564 -2.6362 -3.8454 0
M  V30 36 H -1.8566 -2.5482 -2.9513 0
M  V30 37 H -1.387 -1.205 -4.0246 0
M  V30 38 H 4.5738 0.2147 2.2577 0
M  V30 39 H 3.1235 0.825 3.123 0
M  V30 40 H 3.7622 -0.7851 3.4883 0
M  V30 41 H -3.7993 -1.9608 2.0092 0
M  V30 42 H -4.3483 -0.7246 0.859 0
M  V30 43 H -4.2487 -2.4542 0.3641 0
M  V30 END ATOM
M  V30 BEGIN BOND
M  V30 1 2 1 2
M  V30 2 1 2 3
M  V30 3 1 2 4
M  V30 4 2 4 5
M  V30 5 1 4 6
M  V30 6 1 5 7
M  V30 7 1 5 8
M  V30 8 2 6 9
M  V30 9 2 7 10
M  V30 10 1 8 11
M  V30 11 1 8 12
M  V30 12 1 11 13
M  V30 13 2 11 14
M  V30 14 2 12 15
M  V30 15 1 12 16
M  V30 16 1 13 17
M  V30 17 1 14 18
M  V30 18 1 14 19
M  V30 19 1 15 20
M  V30 20 2 16 21
M  V30 21 1 16 22
M  V30 22 2 17 23
M  V30 23 1 17 24
M  V30 24 1 22 25
M  V30 25 1 9 10
M  V30 26 1 15 18
M  V30 27 1 6 26
M  V30 28 1 7 27
M  V30 29 1 8 28
M  V30 30 1 9 29
M  V30 31 1 10 30
M  V30 32 1 18 31
M  V30 33 1 19 32
M  V30 34 1 19 33
M  V30 35 1 19 34
M  V30 36 1 20 35
M  V30 37 1 20 36
M  V30 38 1 20 37
M  V30 39 1 24 38
M  V30 40 1 24 39
M  V30 41 1 24 40
M  V30 42 1 25 41
M  V30 43 1 25 42
M  V30 44 1 25 43
M  V30 END BOND
M  V30 BEGIN COLLECTION
M  V30 MDLV30/STEABS ATOMS=(1 8)
M  V30 END COLLECTION
M  V30 END CTAB
M  END
>  <NO.>
7357

>  <Name>


>  <SMILES>
COC(=O)C1=C(C)NC(C)=C(OC(C)=O)[C@H]1c1ccccc1[N+](=O)[O-]

>  <logBB>


>  <Class>
1

>  <MW>
346.12

>  <nHBAcc>
7

>  <nHBDon>
1

>  <SLogP>
2.52

>  <TopoPSA>
107.77

>  <MMFF94 Energy>
66.845

$$$$
COC(=O)c1c(C)cc([N+](=O)[O-])c(C(=O)OCCN(C)Cc2ccccc2)c1C1C=C(C)NC(C)=C1
Actelion Java MolfileCreator 2.0

  0  0  0  0  0  0              0 V3000
M  V30 BEGIN CTAB
M  V30 COUNTS 67 69 0 0 0
M  V30 BEGIN ATOM
M  V30 1 O 0.2378 3.2547 -2.7779 0
M  V30 2 N 0.0382 2.493 -3.7319 0 CHG=1
M  V30 3 O 0.3764 2.6982 -4.9045 0 CHG=-1
M  V30 4 C -0.7168 1.2798 -3.4675 0
M  V30 5 C -0.3185 0.3923 -2.4604 0
M  V30 6 C -1.8589 1.0448 -4.2372 0
M  V30 7 C -1.0583 -0.7894 -2.2008 0
M  V30 8 C 0.9274 0.6789 -1.7369 0
M  V30 9 C -2.623 -0.1034 -4.0034 0
M  V30 10 C -2.2142 -1.0158 -2.996 0
M  V30 11 C -0.5752 -1.7793 -1.1361 0
M  V30 12 O 2.0296 0.513 -2.2228 0
M  V30 13 O 0.6044 1.1412 -0.5101 0
M  V30 14 C -3.8595 -0.3431 -4.8313 0
M  V30 15 C -3.0619 -2.2117 -2.8024 0
M  V30 16 C -1.6255 -2.0906 -0.0881 0
M  V30 17 C 0.0474 -3.017 -1.7536 0
M  V30 18 C 1.7415 1.5058 0.2921 0
M  V30 19 O -4.082 -2.2172 -2.1361 0
M  V30 20 O -2.567 -3.2012 -3.5812 0
M  V30 21 C -1.9243 -3.3611 0.2434 0
M  V30 22 C -0.3101 -4.2519 -1.3537 0
M  V30 23 C 1.2271 1.9993 1.6524 0
M  V30 24 C -3.3268 -4.4071 -3.5198 0
M  V30 25 N -1.2707 -4.4084 -0.3748 0
M  V30 26 C -2.9685 -3.6957 1.2676 0
M  V30 27 C 0.2993 -5.4913 -1.9395 0
M  V30 28 N 2.2753 2.5105 2.5553 0
M  V30 29 C 1.6471 3.1815 3.7127 0
M  V30 30 C 3.1686 1.4359 3.002 0
M  V30 31 C 2.6198 3.9832 4.5533 0
M  V30 32 C 2.7319 3.7519 5.932 0
M  V30 33 C 3.4037 4.9902 3.97 0
M  V30 34 C 3.6161 4.5053 6.7069 0
M  V30 35 C 4.2873 5.7418 4.746 0
M  V30 36 C 4.3931 5.499 6.114 0
M  V30 37 H -2.1525 1.7526 -5.0119 0
M  V30 38 H 0.2369 -1.3244 -0.5587 0
M  V30 39 H -4.7475 -0.3701 -4.1919 0
M  V30 40 H -4.0097 0.4547 -5.5666 0
M  V30 41 H -3.7739 -1.284 -5.384 0
M  V30 42 H -2.1302 -1.259 0.3939 0
M  V30 43 H 0.812 -2.8794 -2.5124 0
M  V30 44 H 2.299 2.3039 -0.2123 0
M  V30 45 H 2.3817 0.6256 0.4124 0
M  V30 46 H 0.5056 2.8007 1.4416 0
M  V30 47 H 0.6448 1.2019 2.1342 0
M  V30 48 H -2.7774 -5.1818 -4.0614 0
M  V30 49 H -3.4602 -4.7391 -2.4853 0
M  V30 50 H -4.2969 -4.2641 -4.0056 0
M  V30 51 H -1.5187 -5.3521 -0.0955 0
M  V30 52 H -3.4319 -2.7986 1.6915 0
M  V30 53 H -3.7621 -4.3005 0.8164 0
M  V30 54 H -2.5245 -4.2645 2.0911 0
M  V30 55 H 0.7948 -6.0769 -1.1581 0
M  V30 56 H 1.044 -5.2599 -2.7081 0
M  V30 57 H -0.4749 -6.1133 -2.4006 0
M  V30 58 H 0.8902 3.8976 3.3646 0
M  V30 59 H 1.1147 2.4497 4.3351 0
M  V30 60 H 3.9529 1.8158 3.6654 0
M  V30 61 H 2.6263 0.644 3.5312 0
M  V30 62 H 3.6977 0.9864 2.1561 0
M  V30 63 H 2.1326 2.9819 6.4115 0
M  V30 64 H 3.3304 5.1827 2.9014 0
M  V30 65 H 3.6985 4.3173 7.7741 0
M  V30 66 H 4.893 6.5148 4.2808 0
M  V30 67 H 5.0817 6.0842 6.7175 0
M  V30 END ATOM
M  V30 BEGIN BOND
M  V30 1 2 1 2
M  V30 2 1 2 3
M  V30 3 1 2 4
M  V30 4 2 4 5
M  V30 5 1 4 6
M  V30 6 1 5 7
M  V30 7 1 5 8
M  V30 8 2 6 9
M  V30 9 2 7 10
M  V30 10 1 7 11
M  V30 11 2 8 12
M  V30 12 1 8 13
M  V30 13 1 9 14
M  V30 14 1 10 15
M  V30 15 1 11 16
M  V30 16 1 11 17
M  V30 17 1 13 18
M  V30 18 2 15 19
M  V30 19 1 15 20
M  V30 20 2 16 21
M  V30 21 2 17 22
M  V30 22 1 18 23
M  V30 23 1 20 24
M  V30 24 1 21 25
M  V30 25 1 21 26
M  V30 26 1 22 27
M  V30 27 1 23 28
M  V30 28 1 28 29
M  V30 29 1 28 30
M  V30 30 1 29 31
M  V30 31 2 31 32
M  V30 32 1 31 33
M  V30 33 1 32 34
M  V30 34 2 33 35
M  V30 35 2 34 36
M  V30 36 1 9 10
M  V30 37 1 22 25
M  V30 38 1 35 36
M  V30 39 1 6 37
M  V30 40 1 11 38
M  V30 41 1 14 39
M  V30 42 1 14 40
M  V30 43 1 14 41
M  V30 44 1 16 42
M  V30 45 1 17 43
M  V30 46 1 18 44
M  V30 47 1 18 45
M  V30 48 1 23 46
M  V30 49 1 23 47
M  V30 50 1 24 48
M  V30 51 1 24 49
M  V30 52 1 24 50
M  V30 53 1 25 51
M  V30 54 1 26 52
M  V30 55 1 26 53
M  V30 56 1 26 54
M  V30 57 1 27 55
M  V30 58 1 27 56
M  V30 59 1 27 57
M  V30 60 1 29 58
M  V30 61 1 29 59
M  V30 62 1 30 60
M  V30 63 1 30 61
M  V30 64 1 30 62
M  V30 65 1 32 63
M  V30 66 1 33 64
M  V30 67 1 34 65
M  V30 68 1 35 66
M  V30 69 1 36 67
M  V30 END BOND
M  V30 END CTAB
M  END
>  <NO.>
7364

>  <Name>


>  <SMILES>
COC(=O)c1c(C)cc([N+](=O)[O-])c(C(=O)OCCN(C)Cc2ccccc2)c1C1C=C(C)NC(C)=C1

>  <logBB>


>  <Class>
1

>  <MW>
493.22

>  <nHBAcc>
8

>  <nHBDon>
1

>  <SLogP>
4.47

>  <TopoPSA>
111.01

>  <MMFF94 Energy>
72.759

$$$$
COP(=O)(C[C@H](c1ccc(Cl)cc1)P(=O)(OC)OC)OC
Actelion Java MolfileCreator 2.0

  0  0  0  0  0  0              0 V3000
M  V30 BEGIN CTAB
M  V30 COUNTS 40 40 0 0 0
M  V30 BEGIN ATOM
M  V30 1 Cl 5.1902 0.8225 -3.7052 0
M  V30 2 C 3.7203 0.5372 -2.8584 0
M  V30 3 C 2.5466 0.3009 -3.5689 0
M  V30 4 C 3.7107 0.5415 -1.4662 0
M  V30 5 C 1.3526 0.0703 -2.8815 0
M  V30 6 C 2.5176 0.3099 -0.7773 0
M  V30 7 C 1.324 0.0784 -1.4773 0
M  V30 8 C 0.011 -0.1824 -0.7406 0 CFG=2
M  V30 9 P -0.4982 1.0691 0.4709 0
M  V30 10 C 0.0404 -1.6095 -0.1849 0
M  V30 11 O -1.9654 1.1634 0.756 0
M  V30 12 O 0.1155 2.4649 -0.0673 0
M  V30 13 O 0.4204 0.7798 1.7689 0
M  V30 14 P -1.4829 -2.1942 0.5371 0
M  V30 15 C -0.5983 3.1337 -1.088 0
M  V30 16 C 0.1808 1.5928 2.9018 0
M  V30 17 O -1.5741 -3.6851 0.6537 0
M  V30 18 O -2.6285 -1.5436 -0.388 0
M  V30 19 O -1.6211 -1.4272 1.9436 0
M  V30 20 C -3.9653 -1.6888 0.0492 0
M  V30 21 C -0.9689 -1.9931 3.0626 0
M  V30 22 H 2.554 0.2932 -4.6556 0
M  V30 23 H 4.6265 0.725 -0.9105 0
M  V30 24 H 0.4468 -0.1172 -3.4553 0
M  V30 25 H 2.5363 0.3181 0.3108 0
M  V30 26 H -0.786 -0.1329 -1.4933 0
M  V30 27 H 0.2841 -2.3005 -1.0019 0
M  V30 28 H 0.8384 -1.7203 0.5574 0
M  V30 29 H -0.8267 2.4513 -1.9107 0
M  V30 30 H -1.5252 3.5466 -0.6813 0
M  V30 31 H 0.0175 3.9524 -1.4679 0
M  V30 32 H -0.8353 1.4329 3.2716 0
M  V30 33 H 0.8893 1.316 3.6864 0
M  V30 34 H 0.3249 2.6469 2.6506 0
M  V30 35 H -4.6297 -1.2729 -0.7123 0
M  V30 36 H -4.1177 -1.145 0.9851 0
M  V30 37 H -4.2056 -2.746 0.1891 0
M  V30 38 H -1.4404 -2.9428 3.3279 0
M  V30 39 H 0.0912 -2.1505 2.8487 0
M  V30 40 H -1.0611 -1.3057 3.9071 0
M  V30 END ATOM
M  V30 BEGIN BOND
M  V30 1 1 1 2
M  V30 2 2 2 3
M  V30 3 1 2 4
M  V30 4 1 3 5
M  V30 5 2 4 6
M  V30 6 2 5 7
M  V30 7 1 7 8
M  V30 8 1 8 9
M  V30 9 1 8 10
M  V30 10 2 9 11
M  V30 11 1 9 12
M  V30 12 1 9 13
M  V30 13 1 10 14
M  V30 14 1 12 15
M  V30 15 1 13 16
M  V30 16 2 14 17
M  V30 17 1 14 18
M  V30 18 1 14 19
M  V30 19 1 18 20
M  V30 20 1 19 21
M  V30 21 1 6 7
M  V30 22 1 3 22
M  V30 23 1 4 23
M  V30 24 1 5 24
M  V30 25 1 6 25
M  V30 26 1 8 26
M  V30 27 1 10 27
M  V30 28 1 10 28
M  V30 29 1 15 29
M  V30 30 1 15 30
M  V30 31 1 15 31
M  V30 32 1 16 32
M  V30 33 1 16 33
M  V30 34 1 16 34
M  V30 35 1 20 35
M  V30 36 1 20 36
M  V30 37 1 20 37
M  V30 38 1 21 38
M  V30 39 1 21 39
M  V30 40 1 21 40
M  V30 END BOND
M  V30 BEGIN COLLECTION
M  V30 MDLV30/STEABS ATOMS=(1 8)
M  V30 END COLLECTION
M  V30 END CTAB
M  END
>  <NO.>
7378

>  <Name>


>  <SMILES>
COP(=O)(C[C@H](c1ccc(Cl)cc1)P(=O)(OC)OC)OC

>  <logBB>


>  <Class>
1

>  <MW>
356.03

>  <nHBAcc>
6

>  <nHBDon>
0

>  <SLogP>
4.35

>  <TopoPSA>
71.06

>  <MMFF94 Energy>
-72.625

$$$$
COc1c2c(cc(F)c1N1C[C@@H]3CCCN[C@@H]3C1)C(=O)C(C(=O)O)=C[C@@H]2NC1CC1
Actelion Java MolfileCreator 2.0

  0  0  0  0  0  0              0 V3000
M  V30 BEGIN CTAB
M  V30 COUNTS 56 60 0 0 0
M  V30 BEGIN ATOM
M  V30 1 F -2.0931 0.4022 -2.4961 0
M  V30 2 C -1.8138 0.4551 -1.1835 0
M  V30 3 C -0.8106 -0.3655 -0.6254 0
M  V30 4 C -2.5591 1.3614 -0.4325 0
M  V30 5 N -0.0443 -1.2171 -1.4033 0
M  V30 6 C -0.6477 -0.2413 0.7807 0
M  V30 7 C -2.3124 1.5009 0.9302 0
M  V30 8 C -0.3572 -1.5551 -2.7995 0
M  V30 9 C 1.3037 -1.6699 -1.0408 0
M  V30 10 O 0.1921 -1.1026 1.46 0
M  V30 11 C -1.3247 0.7324 1.5549 0
M  V30 12 C -3.152 2.4369 1.7153 0
M  V30 13 C 0.7323 -2.5866 -3.1751 0 CFG=2
M  V30 14 C 1.9436 -2.1018 -2.3695 0 CFG=1
M  V30 15 C -0.5093 -2.3121 1.7712 0
M  V30 16 C -0.9915 0.9822 3.0132 0 CFG=1
M  V30 17 O -3.8042 3.3029 1.1461 0
M  V30 18 C -3.1522 2.2655 3.1878 0
M  V30 19 N 1.0002 -2.8051 -4.602 0
M  V30 20 C 2.6769 -0.9422 -3.0558 0
M  V30 21 N 0.1432 1.8949 3.2029 0
M  V30 22 C -2.1364 1.5991 3.764 0
M  V30 23 C -4.1954 2.8214 4.0636 0
M  V30 24 C 1.666 -1.6669 -5.2393 0
M  V30 25 C 2.9527 -1.2756 -4.517 0
M  V30 26 C 1.4611 1.3015 2.9673 0
M  V30 27 O -4.0531 3.1547 5.228 0
M  V30 28 O -5.4013 2.8548 3.4763 0
M  V30 29 C 2.2049 1.5906 1.6933 0
M  V30 30 C 2.6626 2.2073 2.9814 0
M  V30 31 H -3.324 1.9538 -0.9284 0
M  V30 32 H -1.3555 -1.9944 -2.9019 0
M  V30 33 H -0.2859 -0.6623 -3.4289 0
M  V30 34 H 1.896 -0.886 -0.5562 0
M  V30 35 H 1.2413 -2.5398 -0.3792 0
M  V30 36 H 0.4128 -3.5534 -2.7607 0
M  V30 37 H 2.6576 -2.9185 -2.2068 0
M  V30 38 H 0.1894 -2.9771 2.2871 0
M  V30 39 H -0.8615 -2.8238 0.8694 0
M  V30 40 H -1.3513 -2.1174 2.4443 0
M  V30 41 H -0.7958 0.0239 3.5101 0
M  V30 42 H 1.609 -3.6196 -4.6921 0
M  V30 43 H 3.6193 -0.7378 -2.5343 0
M  V30 44 H 2.0863 -0.0189 -3.0031 0
M  V30 45 H 0.0104 2.7329 2.6389 0
M  V30 46 H -2.0999 1.4962 4.8477 0
M  V30 47 H 1.9022 -1.938 -6.2744 0
M  V30 48 H 0.9842 -0.8111 -5.2974 0
M  V30 49 H 3.678 -2.0966 -4.5775 0
M  V30 50 H 3.4066 -0.4105 -5.0133 0
M  V30 51 H 1.616 0.3243 3.4221 0
M  V30 52 H -5.9915 3.2576 4.1453 0
M  V30 53 H 2.8003 0.7899 1.2702 0
M  V30 54 H 1.7471 2.235 0.9526 0
M  V30 55 H 3.5728 1.8292 3.4324 0
M  V30 56 H 2.5107 3.271 3.1215 0
M  V30 END ATOM
M  V30 BEGIN BOND
M  V30 1 1 1 2
M  V30 2 2 2 3
M  V30 3 1 2 4
M  V30 4 1 3 5
M  V30 5 1 3 6
M  V30 6 2 4 7
M  V30 7 1 5 8
M  V30 8 1 5 9
M  V30 9 1 6 10
M  V30 10 2 6 11
M  V30 11 1 7 12
M  V30 12 1 8 13
M  V30 13 1 9 14
M  V30 14 1 10 15
M  V30 15 1 11 16
M  V30 16 2 12 17
M  V30 17 1 12 18
M  V30 18 1 13 19
M  V30 19 1 14 20
M  V30 20 1 16 21
M  V30 21 1 16 22
M  V30 22 1 18 23
M  V30 23 1 19 24
M  V30 24 1 20 25
M  V30 25 1 21 26
M  V30 26 2 23 27
M  V30 27 1 23 28
M  V30 28 1 26 29
M  V30 29 1 26 30
M  V30 30 1 7 11
M  V30 31 1 13 14
M  V30 32 2 18 22
M  V30 33 1 24 25
M  V30 34 1 29 30
M  V30 35 1 4 31
M  V30 36 1 8 32
M  V30 37 1 8 33
M  V30 38 1 9 34
M  V30 39 1 9 35
M  V30 40 1 13 36
M  V30 41 1 14 37
M  V30 42 1 15 38
M  V30 43 1 15 39
M  V30 44 1 15 40
M  V30 45 1 16 41
M  V30 46 1 19 42
M  V30 47 1 20 43
M  V30 48 1 20 44
M  V30 49 1 21 45
M  V30 50 1 22 46
M  V30 51 1 24 47
M  V30 52 1 24 48
M  V30 53 1 25 49
M  V30 54 1 25 50
M  V30 55 1 26 51
M  V30 56 1 28 52
M  V30 57 1 29 53
M  V30 58 1 29 54
M  V30 59 1 30 55
M  V30 60 1 30 56
M  V30 END BOND
M  V30 BEGIN COLLECTION
M  V30 MDLV30/STEABS ATOMS=(3 13 14 16)
M  V30 END COLLECTION
M  V30 END CTAB
M  END
>  <NO.>
7405

>  <Name>


>  <SMILES>
COc1c2c(cc(F)c1N1C[C@@H]3CCCN[C@@H]3C1)C(=O)C(C(=O)O)=C[C@@H]2NC1CC1

>  <logBB>


>  <Class>
1

>  <MW>
415.19

>  <nHBAcc>
6

>  <nHBDon>
3

>  <SLogP>
2.02

>  <TopoPSA>
90.9

>  <MMFF94 Energy>
62.586

$$$$
COc1cc(C)c([S+](C)[O-])cc1OC
Actelion Java MolfileCreator 2.0

  0  0  0  0  0  0              0 V3000
M  V30 BEGIN CTAB
M  V30 COUNTS 28 28 0 0 0
M  V30 BEGIN ATOM
M  V30 1 S 1.686 0.3209 2.4897 0 CFG=2
M  V30 2 O 2.7852 1.2713 2.1124 0
M  V30 3 C 0.7688 -0.0113 0.9556 0
M  V30 4 C 0.3948 1.3002 3.302 0
M  V30 5 C -0.0386 -1.1547 0.8236 0
M  V30 6 C 0.8766 0.8952 -0.1106 0
M  V30 7 C -0.7473 -1.3512 -0.3756 0
M  V30 8 C -0.1687 -2.1766 1.9204 0
M  V30 9 C 0.1771 0.6897 -1.3031 0
M  V30 10 C -0.6491 -0.4408 -1.435 0
M  V30 11 O 0.2244 1.5349 -2.3843 0
M  V30 12 O -1.3119 -0.5664 -2.6306 0
M  V30 13 C 1.1669 2.5978 -2.3459 0
M  V30 14 C -2.1193 -1.7181 -2.8244 0
M  V30 15 H -0.4842 0.6777 3.4823 0
M  V30 16 H 0.7842 1.6567 4.2588 0
M  V30 17 H 0.1267 2.1583 2.6807 0
M  V30 18 H 1.5161 1.7635 0.0174 0
M  V30 19 H -1.374 -2.2334 -0.4637 0
M  V30 20 H -0.6465 -1.7354 2.8004 0
M  V30 21 H 0.8142 -2.573 2.1938 0
M  V30 22 H -0.7828 -3.0276 1.6066 0
M  V30 23 H 0.9086 3.3234 -1.5678 0
M  V30 24 H 1.1251 3.116 -3.3088 0
M  V30 25 H 2.1868 2.2211 -2.2155 0
M  V30 26 H -1.5217 -2.634 -2.7711 0
M  V30 27 H -2.5489 -1.6603 -3.8291 0
M  V30 28 H -2.9486 -1.7432 -2.1099 0
M  V30 END ATOM
M  V30 BEGIN BOND
M  V30 1 2 1 2
M  V30 2 1 1 3
M  V30 3 1 1 4
M  V30 4 2 3 5
M  V30 5 1 3 6
M  V30 6 1 5 7
M  V30 7 1 5 8
M  V30 8 2 6 9
M  V30 9 2 7 10
M  V30 10 1 9 11
M  V30 11 1 10 12
M  V30 12 1 11 13
M  V30 13 1 12 14
M  V30 14 1 9 10
M  V30 15 1 4 15
M  V30 16 1 4 16
M  V30 17 1 4 17
M  V30 18 1 6 18
M  V30 19 1 7 19
M  V30 20 1 8 20
M  V30 21 1 8 21
M  V30 22 1 8 22
M  V30 23 1 13 23
M  V30 24 1 13 24
M  V30 25 1 13 25
M  V30 26 1 14 26
M  V30 27 1 14 27
M  V30 28 1 14 28
M  V30 END BOND
M  V30 BEGIN COLLECTION
M  V30 MDLV30/STERAC1 ATOMS=(1 1)
M  V30 END COLLECTION
M  V30 END CTAB
M  END
>  <NO.>
7407

>  <Name>
tolmesoxide

>  <SMILES>
COc1cc(C)c([S+](C)[O-])cc1OC

>  <logBB>


>  <Class>
1

>  <MW>
214.07

>  <nHBAcc>
3

>  <nHBDon>
0

>  <SLogP>
1.75

>  <TopoPSA>
41.52

>  <MMFF94 Energy>
50.62

$$$$
COc1cc2c(cc1OC)CN(C(=O)[C@@H](C)N[C@H](CCc1ccccc1)C(=O)O)[C@@H](C(=O)O)C2
Actelion Java MolfileCreator 2.0

  0  0  0  0  0  0              0 V3000
M  V30 BEGIN CTAB
M  V30 COUNTS 64 66 0 0 0
M  V30 BEGIN ATOM
M  V30 1 O -1.5094 1.4299 -1.9864 0
M  V30 2 C -0.8094 2.4117 -2.1872 0
M  V30 3 O -1.3812 3.566 -2.5958 0
M  V30 4 C 0.7169 2.5136 -2.0572 0 CFG=2
M  V30 5 N 1.3047 1.2075 -1.7073 0
M  V30 6 C 1.1424 3.6002 -1.067 0
M  V30 7 C 1.6836 0.3781 -2.7545 0
M  V30 8 C 1.0831 0.7381 -0.3409 0
M  V30 9 C 0.9424 3.1814 0.3656 0
M  V30 10 O 1.5785 0.7575 -3.9284 0
M  V30 11 C 2.2926 -1.0203 -2.4958 0 CFG=2
M  V30 12 C 0.9315 1.8227 0.7009 0
M  V30 13 C 0.8155 4.1518 1.3718 0
M  V30 14 N 1.4288 -1.91 -1.6773 0
M  V30 15 C 3.6953 -0.9074 -1.899 0
M  V30 16 C 0.7488 1.4495 2.0436 0
M  V30 17 C 0.6421 3.7787 2.7092 0
M  V30 18 C 0.1532 -2.2651 -2.3689 0 CFG=1
M  V30 19 C 0.5973 2.4133 3.0469 0
M  V30 20 O 0.5012 4.6627 3.7505 0
M  V30 21 C 0.4212 -3.1431 -3.598 0
M  V30 22 C -0.754 -3.0761 -1.4266 0
M  V30 23 O 0.4174 2.1238 4.3772 0
M  V30 24 C 0.564 6.0497 3.4531 0
M  V30 25 O 1.3947 -3.8606 -3.7761 0
M  V30 26 O -0.5651 -3.0842 -4.5134 0
M  V30 27 C -1.197 -2.2954 -0.1882 0
M  V30 28 C 0.1828 0.7677 4.7287 0
M  V30 29 C -2.151 -3.0959 0.6643 0
M  V30 30 C -3.5351 -2.9229 0.535 0
M  V30 31 C -1.6651 -4.0386 1.5805 0
M  V30 32 C -4.4168 -3.6732 1.3147 0
M  V30 33 C -2.5484 -4.7881 2.3589 0
M  V30 34 C -3.9236 -4.6047 2.2265 0
M  V30 35 H -2.3336 3.3411 -2.6625 0
M  V30 36 H 1.0734 2.8126 -3.0508 0
M  V30 37 H 0.5973 4.531 -1.2631 0
M  V30 38 H 2.2113 3.8107 -1.2007 0
M  V30 39 H 1.8969 0.0815 -0.034 0
M  V30 40 H 0.1572 0.1583 -0.3546 0
M  V30 41 H 2.4301 -1.4754 -3.4848 0
M  V30 42 H 0.8511 5.1976 1.0835 0
M  V30 43 H 1.9411 -2.787 -1.54 0
M  V30 44 H 4.3159 -0.2394 -2.5069 0
M  V30 45 H 3.7013 -0.511 -0.881 0
M  V30 46 H 4.1851 -1.8873 -1.8754 0
M  V30 47 H 0.7322 0.39 2.2815 0
M  V30 48 H -0.3638 -1.353 -2.6875 0
M  V30 49 H -1.6442 -3.4039 -1.9812 0
M  V30 50 H -0.243 -4.0001 -1.1214 0
M  V30 51 H 1.5367 6.32 3.0292 0
M  V30 52 H 0.4475 6.5989 4.3924 0
M  V30 53 H -0.2546 6.3489 2.7904 0
M  V30 54 H -0.2624 -3.6719 -5.2367 0
M  V30 55 H -0.3325 -2.018 0.4264 0
M  V30 56 H -1.6785 -1.3568 -0.4888 0
M  V30 57 H -0.6888 0.3642 4.2026 0
M  V30 58 H -0.0315 0.7327 5.8013 0
M  V30 59 H 1.0729 0.1565 4.5485 0
M  V30 60 H -3.9347 -2.2011 -0.174 0
M  V30 61 H -0.5946 -4.1945 1.6913 0
M  V30 62 H -5.4891 -3.5307 1.2095 0
M  V30 63 H -2.1636 -5.5166 3.0676 0
M  V30 64 H -4.6112 -5.1886 2.8325 0
M  V30 END ATOM
M  V30 BEGIN BOND
M  V30 1 2 1 2
M  V30 2 1 2 3
M  V30 3 1 2 4
M  V30 4 1 4 5
M  V30 5 1 4 6
M  V30 6 1 5 7
M  V30 7 1 5 8
M  V30 8 1 6 9
M  V30 9 2 7 10
M  V30 10 1 7 11
M  V30 11 1 8 12
M  V30 12 1 9 13
M  V30 13 1 11 14
M  V30 14 1 11 15
M  V30 15 1 12 16
M  V30 16 2 13 17
M  V30 17 1 14 18
M  V30 18 2 16 19
M  V30 19 1 17 20
M  V30 20 1 18 21
M  V30 21 1 18 22
M  V30 22 1 19 23
M  V30 23 1 20 24
M  V30 24 2 21 25
M  V30 25 1 21 26
M  V30 26 1 22 27
M  V30 27 1 23 28
M  V30 28 1 27 29
M  V30 29 2 29 30
M  V30 30 1 29 31
M  V30 31 1 30 32
M  V30 32 2 31 33
M  V30 33 2 32 34
M  V30 34 2 9 12
M  V30 35 1 17 19
M  V30 36 1 33 34
M  V30 37 1 3 35
M  V30 38 1 4 36
M  V30 39 1 6 37
M  V30 40 1 6 38
M  V30 41 1 8 39
M  V30 42 1 8 40
M  V30 43 1 11 41
M  V30 44 1 13 42
M  V30 45 1 14 43
M  V30 46 1 15 44
M  V30 47 1 15 45
M  V30 48 1 15 46
M  V30 49 1 16 47
M  V30 50 1 18 48
M  V30 51 1 22 49
M  V30 52 1 22 50
M  V30 53 1 24 51
M  V30 54 1 24 52
M  V30 55 1 24 53
M  V30 56 1 26 54
M  V30 57 1 27 55
M  V30 58 1 27 56
M  V30 59 1 28 57
M  V30 60 1 28 58
M  V30 61 1 28 59
M  V30 62 1 30 60
M  V30 63 1 31 61
M  V30 64 1 32 62
M  V30 65 1 33 63
M  V30 66 1 34 64
M  V30 END BOND
M  V30 BEGIN COLLECTION
M  V30 MDLV30/STEABS ATOMS=(3 4 11 18)
M  V30 END COLLECTION
M  V30 END CTAB
M  END
>  <NO.>
7410

>  <Name>
(3r)-2-[(2r)-2-[[(1r)-1-carboxy-3-phenylpropyl]amino]propanoyl]-6,7-dimethoxy-3,4-dihydro-1h-isoquinoline-3-carboxylic acid

>  <SMILES>
COc1cc2c(cc1OC)CN(C(=O)[C@@H](C)N[C@H](CCc1ccccc1)C(=O)O)[C@@H](C(=O)O)C2

>  <logBB>


>  <Class>
-1

>  <MW>
470.21

>  <nHBAcc>
6

>  <nHBDon>
3

>  <SLogP>
2.11

>  <TopoPSA>
125.4

>  <MMFF94 Energy>
119.13

$$$$
COc1cc2nc(N3CCN(C(=O)[C@@H]4COc5ccccc5O4)CC3)nc(N)c2cc1OC
Actelion Java MolfileCreator 2.0

  0  0  0  0  0  0              0 V3000
M  V30 BEGIN CTAB
M  V30 COUNTS 58 62 0 0 0
M  V30 BEGIN ATOM
M  V30 1 O -2.3993 1.9991 -3.4403 0
M  V30 2 C -1.9547 2.4097 -2.3654 0
M  V30 3 N -0.9691 1.7014 -1.6827 0
M  V30 4 C -2.5365 3.6749 -1.6856 0 CFG=1
M  V30 5 C -0.4245 2.0784 -0.3703 0
M  V30 6 C -0.4593 0.4495 -2.2515 0
M  V30 7 O -1.5709 4.6605 -1.3242 0
M  V30 8 C -3.6681 4.2991 -2.5037 0
M  V30 9 C 0.7034 1.1594 0.142 0
M  V30 10 C -0.3887 -0.6729 -1.2013 0
M  V30 11 C -1.2612 5.5018 -2.3574 0
M  V30 12 O -3.209 4.9383 -3.6999 0
M  V30 13 N 0.3453 -0.2442 -0.012 0
M  V30 14 C -2.0438 5.6267 -3.5052 0
M  V30 15 C -0.1038 6.2663 -2.2147 0
M  V30 16 C 0.7751 -1.185 0.8908 0
M  V30 17 C -1.6464 6.4841 -4.5298 0
M  V30 18 C 0.2879 7.1343 -3.235 0
M  V30 19 N 1.558 -0.7977 1.9052 0
M  V30 20 N 0.3923 -2.4578 0.7173 0
M  V30 21 C -0.4802 7.2389 -4.3949 0
M  V30 22 C 1.9751 -1.7274 2.774 0
M  V30 23 C 0.7887 -3.3772 1.6024 0
M  V30 24 N 2.7827 -1.2461 3.795 0
M  V30 25 C 1.5979 -3.0686 2.6925 0
M  V30 26 C 0.3754 -4.6924 1.4289 0
M  V30 27 C 1.9671 -4.083 3.6116 0
M  V30 28 C 0.7396 -5.7091 2.32 0
M  V30 29 C 1.541 -5.3993 3.4306 0
M  V30 30 O 0.3605 -7.0228 2.1963 0
M  V30 31 O 1.8528 -6.4414 4.2651 0
M  V30 32 C -0.4541 -7.3739 1.0864 0
M  V30 33 C 2.5734 -6.1465 5.4531 0
M  V30 34 H -2.9819 3.3214 -0.7467 0
M  V30 35 H -0.043 3.1009 -0.4205 0
M  V30 36 H -1.2611 2.0643 0.338 0
M  V30 37 H 0.5435 0.6663 -2.6393 0
M  V30 38 H -1.0688 0.1181 -3.098 0
M  V30 39 H -4.4086 3.5459 -2.794 0
M  V30 40 H -4.1911 5.058 -1.9071 0
M  V30 41 H 1.6229 1.3531 -0.4239 0
M  V30 42 H 0.8994 1.4339 1.1853 0
M  V30 43 H 0.0912 -1.541 -1.6695 0
M  V30 44 H -1.4065 -0.9601 -0.9095 0
M  V30 45 H 0.4979 6.1803 -1.3146 0
M  V30 46 H -2.25 6.5681 -5.4294 0
M  V30 47 H 1.1937 7.7255 -3.1279 0
M  V30 48 H -0.1741 7.9101 -5.1932 0
M  V30 49 H 2.9292 -0.2461 3.7234 0
M  V30 50 H 3.5845 -1.7992 4.0575 0
M  V30 51 H -0.2506 -4.8987 0.5667 0
M  V30 52 H 2.5798 -3.81 4.4633 0
M  V30 53 H -1.4169 -6.8537 1.123 0
M  V30 54 H -0.6548 -8.448 1.1457 0
M  V30 55 H 0.0639 -7.1845 0.1406 0
M  V30 56 H 3.5756 -5.7712 5.2221 0
M  V30 57 H 2.6891 -7.0787 6.0144 0
M  V30 58 H 2.023 -5.443 6.0866 0
M  V30 END ATOM
M  V30 BEGIN BOND
M  V30 1 2 1 2
M  V30 2 1 2 3
M  V30 3 1 2 4
M  V30 4 1 3 5
M  V30 5 1 3 6
M  V30 6 1 4 7
M  V30 7 1 4 8
M  V30 8 1 5 9
M  V30 9 1 6 10
M  V30 10 1 7 11
M  V30 11 1 8 12
M  V30 12 1 9 13
M  V30 13 2 11 14
M  V30 14 1 11 15
M  V30 15 1 13 16
M  V30 16 1 14 17
M  V30 17 2 15 18
M  V30 18 1 16 19
M  V30 19 2 16 20
M  V30 20 2 17 21
M  V30 21 2 19 22
M  V30 22 1 20 23
M  V30 23 1 22 24
M  V30 24 1 22 25
M  V30 25 2 23 26
M  V30 26 2 25 27
M  V30 27 1 26 28
M  V30 28 1 27 29
M  V30 29 1 28 30
M  V30 30 1 29 31
M  V30 31 1 30 32
M  V30 32 1 31 33
M  V30 33 1 10 13
M  V30 34 1 12 14
M  V30 35 1 18 21
M  V30 36 1 23 25
M  V30 37 2 28 29
M  V30 38 1 4 34
M  V30 39 1 5 35
M  V30 40 1 5 36
M  V30 41 1 6 37
M  V30 42 1 6 38
M  V30 43 1 8 39
M  V30 44 1 8 40
M  V30 45 1 9 41
M  V30 46 1 9 42
M  V30 47 1 10 43
M  V30 48 1 10 44
M  V30 49 1 15 45
M  V30 50 1 17 46
M  V30 51 1 18 47
M  V30 52 1 21 48
M  V30 53 1 24 49
M  V30 54 1 24 50
M  V30 55 1 26 51
M  V30 56 1 27 52
M  V30 57 1 32 53
M  V30 58 1 32 54
M  V30 59 1 32 55
M  V30 60 1 33 56
M  V30 61 1 33 57
M  V30 62 1 33 58
M  V30 END BOND
M  V30 BEGIN COLLECTION
M  V30 MDLV30/STEABS ATOMS=(1 4)
M  V30 END COLLECTION
M  V30 END CTAB
M  END
>  <NO.>
7415

>  <Name>
s-doxazosin

>  <SMILES>
COc1cc2nc(N3CCN(C(=O)[C@@H]4COc5ccccc5O4)CC3)nc(N)c2cc1OC

>  <logBB>


>  <Class>
1

>  <MW>
451.19

>  <nHBAcc>
9

>  <nHBDon>
1

>  <SLogP>
1.72

>  <TopoPSA>
112.27

>  <MMFF94 Energy>
39.462

$$$$
COc1ccc(C2(C#N)CCC(C(=O)O)CC2)cc1OC1CCCC1
Actelion Java MolfileCreator 2.0

  0  0  0  0  0  0              0 V3000
M  V30 BEGIN CTAB
M  V30 COUNTS 50 52 0 0 0
M  V30 BEGIN ATOM
M  V30 1 O 0.3194 4.7997 0.7188 0
M  V30 2 C 0.5592 5.1845 -0.4121 0
M  V30 3 O -0.0199 6.3038 -0.8882 0
M  V30 4 C 1.4843 4.5365 -1.4248 0
M  V30 5 C 2.4021 3.4918 -0.7819 0
M  V30 6 C 0.6971 3.9502 -2.5964 0
M  V30 7 C 1.6951 2.1673 -0.4622 0
M  V30 8 C -0.0068 2.6309 -2.2562 0
M  V30 9 C 0.9331 1.5424 -1.6642 0
M  V30 10 C 1.9384 1.1368 -2.6901 0
M  V30 11 C 0.0892 0.3033 -1.2841 0
M  V30 12 N 2.719 0.8471 -3.4999 0
M  V30 13 C 0.0232 -0.207 0.0214 0
M  V30 14 C -0.652 -0.3762 -2.2735 0
M  V30 15 C -0.7422 -1.3427 0.3182 0
M  V30 16 C -1.4387 -1.497 -1.9702 0
M  V30 17 O -0.7584 -1.7305 1.6351 0
M  V30 18 C -1.5038 -1.9846 -0.6664 0
M  V30 19 C -0.1299 -3.0052 1.8368 0
M  V30 20 O -2.2587 -3.053 -0.2635 0
M  V30 21 C 1.1344 -2.8091 2.6694 0
M  V30 22 C -1.0028 -3.8448 2.7643 0
M  V30 23 C -3.1184 -3.6467 -1.2265 0
M  V30 24 C 0.6254 -2.5974 4.0929 0
M  V30 25 C -0.738 -3.2842 4.1605 0
M  V30 26 H -0.5735 6.6247 -0.1448 0
M  V30 27 H 2.1274 5.3464 -1.7957 0
M  V30 28 H 3.2426 3.2948 -1.4592 0
M  V30 29 H 2.8417 3.8908 0.1408 0
M  V30 30 H -0.0527 4.666 -2.9547 0
M  V30 31 H 1.3833 3.7852 -3.4365 0
M  V30 32 H 0.995 2.3562 0.361 0
M  V30 33 H 2.4446 1.4631 -0.0754 0
M  V30 34 H -0.4955 2.2736 -3.1721 0
M  V30 35 H -0.8164 2.8394 -1.5426 0
M  V30 36 H 0.5627 0.2502 0.8462 0
M  V30 37 H -0.6278 -0.0438 -3.3112 0
M  V30 38 H -1.9869 -1.963 -2.7826 0
M  V30 39 H 0.0917 -3.5334 0.9015 0
M  V30 40 H 1.7526 -3.7138 2.6322 0
M  V30 41 H 1.7386 -1.9599 2.3359 0
M  V30 42 H -0.6883 -4.8945 2.7269 0
M  V30 43 H -2.067 -3.7913 2.5147 0
M  V30 44 H -3.8416 -2.9215 -1.6143 0
M  V30 45 H -3.6804 -4.442 -0.7272 0
M  V30 46 H -2.543 -4.1053 -2.0372 0
M  V30 47 H 0.5123 -1.5271 4.3024 0
M  V30 48 H 1.3244 -3.0031 4.8312 0
M  V30 49 H -0.7569 -4.0773 4.9151 0
M  V30 50 H -1.5091 -2.5544 4.4338 0
M  V30 END ATOM
M  V30 BEGIN BOND
M  V30 1 2 1 2
M  V30 2 1 2 3
M  V30 3 1 2 4
M  V30 4 1 4 5
M  V30 5 1 4 6
M  V30 6 1 5 7
M  V30 7 1 6 8
M  V30 8 1 7 9
M  V30 9 1 9 10
M  V30 10 1 9 11
M  V30 11 3 10 12
M  V30 12 2 11 13
M  V30 13 1 11 14
M  V30 14 1 13 15
M  V30 15 2 14 16
M  V30 16 1 15 17
M  V30 17 2 15 18
M  V30 18 1 17 19
M  V30 19 1 18 20
M  V30 20 1 19 21
M  V30 21 1 19 22
M  V30 22 1 20 23
M  V30 23 1 21 24
M  V30 24 1 22 25
M  V30 25 1 8 9
M  V30 26 1 16 18
M  V30 27 1 24 25
M  V30 28 1 3 26
M  V30 29 1 4 27
M  V30 30 1 5 28
M  V30 31 1 5 29
M  V30 32 1 6 30
M  V30 33 1 6 31
M  V30 34 1 7 32
M  V30 35 1 7 33
M  V30 36 1 8 34
M  V30 37 1 8 35
M  V30 38 1 13 36
M  V30 39 1 14 37
M  V30 40 1 16 38
M  V30 41 1 19 39
M  V30 42 1 21 40
M  V30 43 1 21 41
M  V30 44 1 22 42
M  V30 45 1 22 43
M  V30 46 1 23 44
M  V30 47 1 23 45
M  V30 48 1 23 46
M  V30 49 1 24 47
M  V30 50 1 24 48
M  V30 51 1 25 49
M  V30 52 1 25 50
M  V30 END BOND
M  V30 END CTAB
M  END
>  <NO.>
7417

>  <Name>
cilomilast

>  <SMILES>
COc1ccc(C2(C#N)CCC(C(=O)O)CC2)cc1OC1CCCC1

>  <logBB>


>  <Class>
1

>  <MW>
343.18

>  <nHBAcc>
4

>  <nHBDon>
1

>  <SLogP>
4.05

>  <TopoPSA>
79.55

>  <MMFF94 Energy>
57.795

$$$$
COc1ccc2c(C(=S)N(C)CC(=O)O)ccc(C(F)(F)F)c2c1
Actelion Java MolfileCreator 2.0

  0  0  0  0  0  0              0 V3000
M  V30 BEGIN CTAB
M  V30 COUNTS 38 39 0 0 0
M  V30 BEGIN ATOM
M  V30 1 S 2.2756 0.5685 2.7637 0
M  V30 2 C 1.7548 -0.4303 1.5021 0
M  V30 3 N 1.5034 -1.8117 1.6195 0
M  V30 4 C 1.5421 0.1917 0.1625 0
M  V30 5 C 1.5505 -2.5052 2.9244 0
M  V30 6 C 1.0098 -2.6328 0.5116 0
M  V30 7 C 0.2542 0.5948 -0.2771 0
M  V30 8 C 2.675 0.3523 -0.6416 0
M  V30 9 C 0.2347 -2.3911 3.6856 0
M  V30 10 C 0.1263 1.1721 -1.5684 0
M  V30 11 C -0.9086 0.4424 0.5139 0
M  V30 12 C 2.5461 0.9201 -1.9016 0
M  V30 13 O -0.8726 -2.1581 3.2257 0
M  V30 14 O 0.379 -2.6551 5.0021 0
M  V30 15 C 1.2879 1.3337 -2.3794 0
M  V30 16 C -1.167 1.5631 -1.9929 0
M  V30 17 C -2.1699 0.8383 0.0633 0
M  V30 18 C 1.2104 1.9455 -3.7635 0
M  V30 19 C -2.3043 1.4022 -1.1946 0
M  V30 20 F 0.7238 3.2173 -3.7567 0
M  V30 21 F 2.42 2.0231 -4.3907 0
M  V30 22 F 0.4112 1.2369 -4.6091 0
M  V30 23 O -3.4698 1.833 -1.7648 0
M  V30 24 C -4.6512 1.7157 -0.9813 0
M  V30 25 H 2.3524 -2.0882 3.5394 0
M  V30 26 H 1.7701 -3.5657 2.7625 0
M  V30 27 H 1.5424 -3.5887 0.5118 0
M  V30 28 H -0.0591 -2.8124 0.6567 0
M  V30 29 H 1.1615 -2.1691 -0.4634 0
M  V30 30 H 3.654 0.0389 -0.2857 0
M  V30 31 H -0.8501 0.003 1.5094 0
M  V30 32 H 3.4378 1.0436 -2.516 0
M  V30 33 H -0.523 -2.5408 5.3685 0
M  V30 34 H -1.3201 2.0115 -2.9738 0
M  V30 35 H -3.0171 0.6882 0.7244 0
M  V30 36 H -4.8721 0.6673 -0.7555 0
M  V30 37 H -5.4838 2.1119 -1.5706 0
M  V30 38 H -4.5786 2.3113 -0.0652 0
M  V30 END ATOM
M  V30 BEGIN BOND
M  V30 1 2 1 2
M  V30 2 1 2 3
M  V30 3 1 2 4
M  V30 4 1 3 5
M  V30 5 1 3 6
M  V30 6 1 4 7
M  V30 7 2 4 8
M  V30 8 1 5 9
M  V30 9 1 7 10
M  V30 10 2 7 11
M  V30 11 1 8 12
M  V30 12 2 9 13
M  V30 13 1 9 14
M  V30 14 1 10 15
M  V30 15 2 10 16
M  V30 16 1 11 17
M  V30 17 1 15 18
M  V30 18 1 16 19
M  V30 19 1 18 20
M  V30 20 1 18 21
M  V30 21 1 18 22
M  V30 22 1 19 23
M  V30 23 1 23 24
M  V30 24 2 12 15
M  V30 25 2 17 19
M  V30 26 1 5 25
M  V30 27 1 5 26
M  V30 28 1 6 27
M  V30 29 1 6 28
M  V30 30 1 6 29
M  V30 31 1 8 30
M  V30 32 1 11 31
M  V30 33 1 12 32
M  V30 34 1 14 33
M  V30 35 1 16 34
M  V30 36 1 17 35
M  V30 37 1 24 36
M  V30 38 1 24 37
M  V30 39 1 24 38
M  V30 END BOND
M  V30 END CTAB
M  END
>  <NO.>
7423

>  <Name>


>  <SMILES>
COc1ccc2c(C(=S)N(C)CC(=O)O)ccc(C(F)(F)F)c2c1

>  <logBB>


>  <Class>
1

>  <MW>
357.06

>  <nHBAcc>
3

>  <nHBDon>
1

>  <SLogP>
3.56

>  <TopoPSA>
49.77

>  <MMFF94 Energy>
89.236

$$$$
COc1ccc2c(c1)c(CC(=O)O)cn2C(=O)c1ccccc1
Actelion Java MolfileCreator 2.0

  0  0  0  0  0  0              0 V3000
M  V30 BEGIN CTAB
M  V30 COUNTS 38 40 0 0 0
M  V30 BEGIN ATOM
M  V30 1 O 0.3195 -2.8783 -0.2396 0
M  V30 2 C -0.58 -2.0396 -0.2448 0
M  V30 3 N -0.2417 -0.6793 -0.03 0
M  V30 4 C -1.9571 -2.527 -0.4929 0
M  V30 5 C 0.9957 -0.1737 0.3805 0
M  V30 6 C -1.0918 0.3997 -0.2207 0
M  V30 7 C -2.179 -3.4013 -1.5624 0
M  V30 8 C -3.0113 -2.1708 0.3559 0
M  V30 9 C 0.8897 1.219 0.454 0
M  V30 10 C 2.2012 -0.8232 0.7072 0
M  V30 11 C -0.4344 1.5773 0.0682 0
M  V30 12 C -3.4638 -3.8872 -1.8056 0
M  V30 13 C -4.2945 -2.6606 0.1077 0
M  V30 14 C 2.0172 1.9688 0.8555 0
M  V30 15 C 3.3037 -0.0542 1.1033 0
M  V30 16 C -1.0002 2.9603 -0.0166 0
M  V30 17 C -4.5202 -3.513 -0.974 0
M  V30 18 C 3.2202 1.3309 1.1783 0
M  V30 19 C -0.7066 3.6337 -1.3365 0
M  V30 20 O 4.228 2.1791 1.5517 0
M  V30 21 O -0.3841 3.1196 -2.3943 0
M  V30 22 O -0.891 4.9715 -1.2712 0
M  V30 23 C 5.4846 1.5875 1.8568 0
M  V30 24 H -2.0996 0.251 -0.5844 0
M  V30 25 H -1.354 -3.7053 -2.2034 0
M  V30 26 H -2.8443 -1.5294 1.2178 0
M  V30 27 H 2.2935 -1.905 0.6563 0
M  V30 28 H -3.6401 -4.5633 -2.6388 0
M  V30 29 H -5.1185 -2.387 0.7627 0
M  V30 30 H 1.96 3.0523 0.9142 0
M  V30 31 H 4.2187 -0.5847 1.3466 0
M  V30 32 H -2.0881 2.9311 0.1121 0
M  V30 33 H -0.5805 3.572 0.7904 0
M  V30 34 H -5.5202 -3.897 -1.163 0
M  V30 35 H -0.6771 5.2772 -2.1783 0
M  V30 36 H 5.4072 0.9219 2.7228 0
M  V30 37 H 6.1782 2.3927 2.1176 0
M  V30 38 H 5.8959 1.0624 0.9884 0
M  V30 END ATOM
M  V30 BEGIN BOND
M  V30 1 2 1 2
M  V30 2 1 2 3
M  V30 3 1 2 4
M  V30 4 1 3 5
M  V30 5 1 3 6
M  V30 6 2 4 7
M  V30 7 1 4 8
M  V30 8 2 5 9
M  V30 9 1 5 10
M  V30 10 2 6 11
M  V30 11 1 7 12
M  V30 12 2 8 13
M  V30 13 1 9 14
M  V30 14 2 10 15
M  V30 15 1 11 16
M  V30 16 2 12 17
M  V30 17 2 14 18
M  V30 18 1 16 19
M  V30 19 1 18 20
M  V30 20 2 19 21
M  V30 21 1 19 22
M  V30 22 1 20 23
M  V30 23 1 9 11
M  V30 24 1 13 17
M  V30 25 1 15 18
M  V30 26 1 6 24
M  V30 27 1 7 25
M  V30 28 1 8 26
M  V30 29 1 10 27
M  V30 30 1 12 28
M  V30 31 1 13 29
M  V30 32 1 14 30
M  V30 33 1 15 31
M  V30 34 1 16 32
M  V30 35 1 16 33
M  V30 36 1 17 34
M  V30 37 1 22 35
M  V30 38 1 23 36
M  V30 39 1 23 37
M  V30 40 1 23 38
M  V30 END BOND
M  V30 END CTAB
M  END
>  <NO.>
7426

>  <Name>
schembl18133072

>  <SMILES>
COc1ccc2c(c1)c(CC(=O)O)cn2C(=O)c1ccccc1

>  <logBB>


>  <Class>
1

>  <MW>
309.1

>  <nHBAcc>
3

>  <nHBDon>
1

>  <SLogP>
2.97

>  <TopoPSA>
68.53

>  <MMFF94 Energy>
87.467

$$$$
COc1cccc(C(=O)CCN[C@@H](C)[C@@H](O)c2ccccc2)c1
Actelion Java MolfileCreator 2.0

  0  0  0  0  0  0              0 V3000
M  V30 BEGIN CTAB
M  V30 COUNTS 46 47 0 0 0
M  V30 BEGIN ATOM
M  V30 1 O -2.9195 1.5773 0.3153 0
M  V30 2 C -2.6144 0.7604 -0.5519 0
M  V30 3 C -3.5249 0.5656 -1.7213 0
M  V30 4 C -1.3463 -0.0695 -0.4695 0
M  V30 5 C -3.284 -0.4002 -2.7051 0
M  V30 6 C -4.6595 1.3796 -1.8268 0
M  V30 7 C -0.486 0.3459 0.7246 0
M  V30 8 C -4.1614 -0.5533 -3.7851 0
M  V30 9 C -5.5358 1.2297 -2.9018 0
M  V30 10 N 0.7271 -0.4829 0.7702 0
M  V30 11 O -3.8044 -1.5342 -4.6695 0
M  V30 12 C -5.2875 0.2647 -3.88 0
M  V30 13 C 1.6723 -0.0397 1.8342 0 CFG=2
M  V30 14 C -4.6508 -1.725 -5.7968 0
M  V30 15 C 3.0819 -0.6192 1.4878 0 CFG=1
M  V30 16 C 1.2102 -0.4859 3.2238 0
M  V30 17 O 3.356 -0.3509 0.1036 0
M  V30 18 C 4.2027 -0.0414 2.323 0
M  V30 19 C 4.8021 -0.8098 3.3329 0
M  V30 20 C 4.6516 1.2733 2.1241 0
M  V30 21 C 5.8192 -0.2742 4.1258 0
M  V30 22 C 5.6688 1.8075 2.9167 0
M  V30 23 C 6.2508 1.0342 3.9186 0
M  V30 24 H -0.7725 0.071 -1.3929 0
M  V30 25 H -1.6292 -1.1241 -0.3723 0
M  V30 26 H -2.4181 -1.0541 -2.6588 0
M  V30 27 H -4.8668 2.1364 -1.0718 0
M  V30 28 H -1.0629 0.2368 1.6496 0
M  V30 29 H -0.2155 1.4037 0.6206 0
M  V30 30 H -6.4141 1.8667 -2.9761 0
M  V30 31 H 0.4626 -1.4543 0.9463 0
M  V30 32 H -5.9922 0.1779 -4.7005 0
M  V30 33 H 1.7349 1.0558 1.8044 0
M  V30 34 H -5.6549 -2.0343 -5.488 0
M  V30 35 H -4.2251 -2.5315 -6.4014 0
M  V30 36 H -4.6874 -0.8251 -6.4198 0
M  V30 37 H 3.0672 -1.712 1.5865 0
M  V30 38 H 0.2263 -0.0761 3.4723 0
M  V30 39 H 1.9011 -0.1395 3.9989 0
M  V30 40 H 1.148 -1.5776 3.2915 0
M  V30 41 H 2.4705 -0.3712 -0.3141 0
M  V30 42 H 4.4812 -1.834 3.5086 0
M  V30 43 H 4.2138 1.8826 1.3356 0
M  V30 44 H 6.2774 -0.8797 4.9033 0
M  V30 45 H 6.0098 2.8251 2.7464 0
M  V30 46 H 7.0451 1.4493 4.533 0
M  V30 END ATOM
M  V30 BEGIN BOND
M  V30 1 2 1 2
M  V30 2 1 2 3
M  V30 3 1 2 4
M  V30 4 2 3 5
M  V30 5 1 3 6
M  V30 6 1 4 7
M  V30 7 1 5 8
M  V30 8 2 6 9
M  V30 9 1 7 10
M  V30 10 1 8 11
M  V30 11 2 8 12
M  V30 12 1 10 13
M  V30 13 1 11 14
M  V30 14 1 13 15
M  V30 15 1 13 16
M  V30 16 1 15 17
M  V30 17 1 15 18
M  V30 18 2 18 19
M  V30 19 1 18 20
M  V30 20 1 19 21
M  V30 21 2 20 22
M  V30 22 2 21 23
M  V30 23 1 9 12
M  V30 24 1 22 23
M  V30 25 1 4 24
M  V30 26 1 4 25
M  V30 27 1 5 26
M  V30 28 1 6 27
M  V30 29 1 7 28
M  V30 30 1 7 29
M  V30 31 1 9 30
M  V30 32 1 10 31
M  V30 33 1 12 32
M  V30 34 1 13 33
M  V30 35 1 14 34
M  V30 36 1 14 35
M  V30 37 1 14 36
M  V30 38 1 15 37
M  V30 39 1 16 38
M  V30 40 1 16 39
M  V30 41 1 16 40
M  V30 42 1 17 41
M  V30 43 1 19 42
M  V30 44 1 20 43
M  V30 45 1 21 44
M  V30 46 1 22 45
M  V30 47 1 23 46
M  V30 END BOND
M  V30 BEGIN COLLECTION
M  V30 MDLV30/STEABS ATOMS=(2 13 15)
M  V30 END COLLECTION
M  V30 END CTAB
M  END
>  <NO.>
7441

>  <Name>
3-[[(1s,2s)-1-hydroxy-1-phenylpropan-2-yl]amino]-1-(3-methoxyphenyl)propan-1-one

>  <SMILES>
COc1cccc(C(=O)CCN[C@@H](C)[C@@H](O)c2ccccc2)c1

>  <logBB>


>  <Class>
1

>  <MW>
313.17

>  <nHBAcc>
4

>  <nHBDon>
2

>  <SLogP>
2.98

>  <TopoPSA>
58.56

>  <MMFF94 Energy>
84.093

$$$$
COc1cccc(C[C@H](C)N)c1
Actelion Java MolfileCreator 2.0

  0  0  0  0  0  0              0 V3000
M  V30 BEGIN CTAB
M  V30 COUNTS 27 27 0 0 0
M  V30 BEGIN ATOM
M  V30 1 O -1.5512 0.5427 3.1042 0
M  V30 2 C -1.36 0.7724 1.7693 0
M  V30 3 C -0.5101 -0.134 3.7967 0
M  V30 4 C -0.2265 0.4277 1.0295 0
M  V30 5 C -2.4232 1.4141 1.1311 0
M  V30 6 C -0.1527 0.7174 -0.3443 0
M  V30 7 C -2.361 1.7095 -0.2303 0
M  V30 8 C -1.2296 1.3626 -0.9661 0
M  V30 9 C 1.0727 0.3323 -1.1436 0
M  V30 10 C 1.2225 -1.1894 -1.3642 0 CFG=1
M  V30 11 N 0.1162 -1.7569 -2.145 0
M  V30 12 C 2.5325 -1.493 -2.0899 0
M  V30 13 H -0.3471 -1.1355 3.3849 0
M  V30 14 H -0.8223 -0.25 4.8392 0
M  V30 15 H 0.4144 0.4526 3.7898 0
M  V30 16 H 0.617 -0.0683 1.4987 0
M  V30 17 H -3.3079 1.6864 1.7017 0
M  V30 18 H -3.1951 2.2105 -0.7145 0
M  V30 19 H -1.1949 1.5994 -2.0271 0
M  V30 20 H 1.0604 0.8499 -2.1123 0
M  V30 21 H 1.9551 0.7173 -0.615 0
M  V30 22 H 1.2443 -1.7015 -0.3948 0
M  V30 23 H -0.7607 -1.577 -1.6517 0
M  V30 24 H 0.0341 -1.2654 -3.0342 0
M  V30 25 H 2.5672 -1.0163 -3.0761 0
M  V30 26 H 3.3881 -1.1299 -1.5101 0
M  V30 27 H 2.663 -2.572 -2.2306 0
M  V30 END ATOM
M  V30 BEGIN BOND
M  V30 1 1 1 2
M  V30 2 1 1 3
M  V30 3 2 2 4
M  V30 4 1 2 5
M  V30 5 1 4 6
M  V30 6 2 5 7
M  V30 7 2 6 8
M  V30 8 1 6 9
M  V30 9 1 9 10
M  V30 10 1 10 11
M  V30 11 1 10 12
M  V30 12 1 7 8
M  V30 13 1 3 13
M  V30 14 1 3 14
M  V30 15 1 3 15
M  V30 16 1 4 16
M  V30 17 1 5 17
M  V30 18 1 7 18
M  V30 19 1 8 19
M  V30 20 1 9 20
M  V30 21 1 9 21
M  V30 22 1 10 22
M  V30 23 1 11 23
M  V30 24 1 11 24
M  V30 25 1 12 25
M  V30 26 1 12 26
M  V30 27 1 12 27
M  V30 END BOND
M  V30 BEGIN COLLECTION
M  V30 MDLV30/STEABS ATOMS=(1 10)
M  V30 END COLLECTION
M  V30 END CTAB
M  END
>  <NO.>
7442

>  <Name>
chembl1927026

>  <SMILES>
COc1cccc(C[C@H](C)N)c1

>  <logBB>


>  <Class>
1

>  <MW>
165.12

>  <nHBAcc>
2

>  <nHBDon>
1

>  <SLogP>
1.58

>  <TopoPSA>
35.25

>  <MMFF94 Energy>
33.772

$$$$
COc1ccccc1OCCNC[C@@H](O)OCc1cccc2[nH]c3ccccc3c12
Actelion Java MolfileCreator 2.0

  0  0  0  0  0  0              0 V3000
M  V30 BEGIN CTAB
M  V30 COUNTS 56 59 0 0 0
M  V30 BEGIN ATOM
M  V30 1 O 0.238 -1.1112 -4.2914 0
M  V30 2 C 1.1905 -1.5635 -5.1708 0
M  V30 3 C 0.6674 -0.2734 -3.2183 0
M  V30 4 C 0.7127 -2.2954 -6.2775 0
M  V30 5 C 2.5663 -1.3519 -5.0248 0
M  V30 6 C -0.5713 0.1431 -2.4139 0
M  V30 7 O -0.6491 -2.4588 -6.3501 0
M  V30 8 C 1.6206 -2.7937 -7.2191 0
M  V30 9 C 3.4622 -1.8557 -5.9697 0
M  V30 10 N -0.2277 1.0967 -1.3518 0
M  V30 11 C -1.1596 -3.2561 -7.4083 0
M  V30 12 C 2.9906 -2.5736 -7.0642 0
M  V30 13 C -1.4191 1.4161 -0.5379 0
M  V30 14 C -1.1173 2.3865 0.6348 0 CFG=2
M  V30 15 O -0.466 1.6703 1.6746 0
M  V30 16 O -2.3519 2.9227 1.098 0
M  V30 17 C 0.0994 2.5185 2.6608 0
M  V30 18 C 0.8081 1.679 3.6952 0
M  V30 19 C 0.139 0.9829 4.7405 0
M  V30 20 C 2.2165 1.5767 3.6306 0
M  V30 21 C 0.9059 0.2836 5.6762 0
M  V30 22 C -1.2412 0.7943 5.1115 0
M  V30 23 C 2.9447 0.856 4.573 0
M  V30 24 N 0.0385 -0.2668 6.5891 0
M  V30 25 C 2.3014 0.204 5.6219 0
M  V30 26 C -1.2646 0.0269 6.2762 0
M  V30 27 C -2.48 1.1931 4.5622 0
M  V30 28 C -2.4488 -0.3392 6.9291 0
M  V30 29 C -3.675 0.8348 5.1984 0
M  V30 30 C -3.6565 0.083 6.3687 0
M  V30 31 H 1.1599 0.6208 -3.6201 0
M  V30 32 H 1.3566 -0.8197 -2.5628 0
M  V30 33 H 2.9742 -0.8034 -4.1825 0
M  V30 34 H -1.028 -0.7596 -1.9891 0
M  V30 35 H -1.3131 0.5804 -3.094 0
M  V30 36 H 1.2932 -3.3565 -8.0864 0
M  V30 37 H 4.5294 -1.6884 -5.8479 0
M  V30 38 H 0.1332 1.9524 -1.7701 0
M  V30 39 H -0.9543 -2.7978 -8.3813 0
M  V30 40 H -2.2463 -3.3116 -7.291 0
M  V30 41 H -0.7681 -4.2776 -7.3601 0
M  V30 42 H 3.6895 -2.9651 -7.799 0
M  V30 43 H -1.8388 0.4904 -0.124 0
M  V30 44 H -2.1861 1.8654 -1.1813 0
M  V30 45 H -0.4905 3.2106 0.2698 0
M  V30 46 H -2.1527 3.7921 1.4779 0
M  V30 47 H -0.6752 3.1208 3.1478 0
M  V30 48 H 0.8049 3.2152 2.1913 0
M  V30 49 H 2.7557 2.0716 2.8247 0
M  V30 50 H 4.0275 0.802 4.4902 0
M  V30 51 H 0.3225 -0.8274 7.378 0
M  V30 52 H 2.8679 -0.3547 6.3597 0
M  V30 53 H -2.5203 1.7573 3.636 0
M  V30 54 H -2.4365 -0.9371 7.8344 0
M  V30 55 H -4.6236 1.141 4.7645 0
M  V30 56 H -4.5942 -0.1894 6.8473 0
M  V30 END ATOM
M  V30 BEGIN BOND
M  V30 1 1 1 2
M  V30 2 1 1 3
M  V30 3 2 2 4
M  V30 4 1 2 5
M  V30 5 1 3 6
M  V30 6 1 4 7
M  V30 7 1 4 8
M  V30 8 2 5 9
M  V30 9 1 6 10
M  V30 10 1 7 11
M  V30 11 2 8 12
M  V30 12 1 10 13
M  V30 13 1 13 14
M  V30 14 1 14 15
M  V30 15 1 14 16
M  V30 16 1 15 17
M  V30 17 1 17 18
M  V30 18 2 18 19
M  V30 19 1 18 20
M  V30 20 1 19 21
M  V30 21 1 19 22
M  V30 22 2 20 23
M  V30 23 1 21 24
M  V30 24 2 21 25
M  V30 25 2 22 26
M  V30 26 1 22 27
M  V30 27 1 26 28
M  V30 28 2 27 29
M  V30 29 2 28 30
M  V30 30 1 9 12
M  V30 31 1 23 25
M  V30 32 1 24 26
M  V30 33 1 29 30
M  V30 34 1 3 31
M  V30 35 1 3 32
M  V30 36 1 5 33
M  V30 37 1 6 34
M  V30 38 1 6 35
M  V30 39 1 8 36
M  V30 40 1 9 37
M  V30 41 1 10 38
M  V30 42 1 11 39
M  V30 43 1 11 40
M  V30 44 1 11 41
M  V30 45 1 12 42
M  V30 46 1 13 43
M  V30 47 1 13 44
M  V30 48 1 14 45
M  V30 49 1 16 46
M  V30 50 1 17 47
M  V30 51 1 17 48
M  V30 52 1 20 49
M  V30 53 1 23 50
M  V30 54 1 24 51
M  V30 55 1 25 52
M  V30 56 1 27 53
M  V30 57 1 28 54
M  V30 58 1 29 55
M  V30 59 1 30 56
M  V30 END BOND
M  V30 BEGIN COLLECTION
M  V30 MDLV30/STEABS ATOMS=(1 14)
M  V30 END COLLECTION
M  V30 END CTAB
M  END
>  <NO.>
7452

>  <Name>


>  <SMILES>
COc1ccccc1OCCNC[C@@H](O)OCc1cccc2[nH]c3ccccc3c12

>  <logBB>


>  <Class>
1

>  <MW>
406.19

>  <nHBAcc>
5

>  <nHBDon>
3

>  <SLogP>
3.83

>  <TopoPSA>
75.74

>  <MMFF94 Energy>
112.1

$$$$
COc1ccccc1OCCNC[C@@H](O)c1ccc(C)cc1S(N)(=O)=O
Actelion Java MolfileCreator 2.0

  0  0  0  0  0  0              0 V3000
M  V30 BEGIN CTAB
M  V30 COUNTS 50 51 0 0 0
M  V30 BEGIN ATOM
M  V30 1 S 4.1582 3.2775 1.5977 0
M  V30 2 O 4.1272 1.9093 2.0585 0
M  V30 3 O 5.0696 4.2346 2.1879 0
M  V30 4 N 4.52 3.2751 -0.0321 0
M  V30 5 C 2.5123 3.9671 1.6045 0
M  V30 6 C 1.3735 3.2067 1.2411 0
M  V30 7 C 2.3918 5.31 2.0098 0
M  V30 8 C 0.1277 3.863 1.3011 0
M  V30 9 C 1.4636 1.7456 0.8299 0 CFG=2
M  V30 10 C 1.1451 5.9383 2.0457 0
M  V30 11 C 0.0147 5.2007 1.6992 0
M  V30 12 O 2.31 1.6251 -0.3238 0
M  V30 13 C 0.1341 1.0136 0.49 0
M  V30 14 C 1.0209 7.3605 2.5051 0
M  V30 15 N 0.4255 -0.3637 0.0289 0
M  V30 16 C -0.8215 -1.0515 -0.3391 0
M  V30 17 C -0.5574 -2.4772 -0.8417 0
M  V30 18 O -1.818 -3.0826 -1.1234 0
M  V30 19 C -1.8208 -4.3829 -1.5635 0
M  V30 20 C -3.09 -4.9616 -1.7717 0
M  V30 21 C -0.6687 -5.1369 -1.8127 0
M  V30 22 O -4.1706 -4.1567 -1.5043 0
M  V30 23 C -3.1799 -6.2838 -2.2213 0
M  V30 24 C -0.7714 -6.4548 -2.2617 0
M  V30 25 C -5.4641 -4.6973 -1.7311 0
M  V30 26 C -2.0233 -7.0267 -2.465 0
M  V30 27 H 4.3059 2.3659 -0.4464 0
M  V30 28 H 5.4249 3.6904 -0.231 0
M  V30 29 H 3.278 5.8756 2.2946 0
M  V30 30 H -0.7959 3.3525 1.0399 0
M  V30 31 H 1.9184 1.1839 1.6527 0
M  V30 32 H -0.9709 5.6614 1.7338 0
M  V30 33 H 2.0576 0.7593 -0.7094 0
M  V30 34 H -0.3725 1.5436 -0.3258 0
M  V30 35 H -0.5237 0.9932 1.3666 0
M  V30 36 H 0.1572 7.8479 2.0407 0
M  V30 37 H 1.9079 7.9392 2.227 0
M  V30 38 H 0.9026 7.3935 3.5925 0
M  V30 39 H 0.8676 -0.8775 0.7957 0
M  V30 40 H -1.5021 -1.0954 0.5205 0
M  V30 41 H -1.3453 -0.4953 -1.1266 0
M  V30 42 H 0.0533 -2.4334 -1.7515 0
M  V30 43 H -0.0343 -3.0468 -0.0638 0
M  V30 44 H 0.3255 -4.7278 -1.6704 0
M  V30 45 H -4.1361 -6.7664 -2.3916 0
M  V30 46 H 0.1281 -7.0341 -2.4537 0
M  V30 47 H -5.6035 -4.962 -2.7843 0
M  V30 48 H -6.1977 -3.9239 -1.4838 0
M  V30 49 H -5.6536 -5.5551 -1.0776 0
M  V30 50 H -2.1013 -8.053 -2.8146 0
M  V30 END ATOM
M  V30 BEGIN BOND
M  V30 1 2 1 2
M  V30 2 2 1 3
M  V30 3 1 1 4
M  V30 4 1 1 5
M  V30 5 2 5 6
M  V30 6 1 5 7
M  V30 7 1 6 8
M  V30 8 1 6 9
M  V30 9 2 7 10
M  V30 10 2 8 11
M  V30 11 1 9 12
M  V30 12 1 9 13
M  V30 13 1 10 14
M  V30 14 1 13 15
M  V30 15 1 15 16
M  V30 16 1 16 17
M  V30 17 1 17 18
M  V30 18 1 18 19
M  V30 19 2 19 20
M  V30 20 1 19 21
M  V30 21 1 20 22
M  V30 22 1 20 23
M  V30 23 2 21 24
M  V30 24 1 22 25
M  V30 25 2 23 26
M  V30 26 1 10 11
M  V30 27 1 24 26
M  V30 28 1 4 27
M  V30 29 1 4 28
M  V30 30 1 7 29
M  V30 31 1 8 30
M  V30 32 1 9 31
M  V30 33 1 11 32
M  V30 34 1 12 33
M  V30 35 1 13 34
M  V30 36 1 13 35
M  V30 37 1 14 36
M  V30 38 1 14 37
M  V30 39 1 14 38
M  V30 40 1 15 39
M  V30 41 1 16 40
M  V30 42 1 16 41
M  V30 43 1 17 42
M  V30 44 1 17 43
M  V30 45 1 21 44
M  V30 46 1 23 45
M  V30 47 1 24 46
M  V30 48 1 25 47
M  V30 49 1 25 48
M  V30 50 1 25 49
M  V30 51 1 26 50
M  V30 END BOND
M  V30 BEGIN COLLECTION
M  V30 MDLV30/STEABS ATOMS=(1 9)
M  V30 END COLLECTION
M  V30 END CTAB
M  END
>  <NO.>
7453

>  <Name>


>  <SMILES>
COc1ccccc1OCCNC[C@@H](O)c1ccc(C)cc1S(N)(=O)=O

>  <logBB>


>  <Class>
1

>  <MW>
380.14

>  <nHBAcc>
6

>  <nHBDon>
3

>  <SLogP>
1.35

>  <TopoPSA>
110.88

>  <MMFF94 Energy>
24.55

$$$$
COc1nc(C)nc(Cl)c1NC1=NCCN1
Actelion Java MolfileCreator 2.0

  0  0  0  0  0  0              0 V3000
M  V30 BEGIN CTAB
M  V30 COUNTS 28 29 0 0 0
M  V30 BEGIN ATOM
M  V30 1 Cl -1.597 0.0798 -2.3962 0
M  V30 2 C -1.1764 0.7751 -0.8716 0
M  V30 3 N -1.6539 2.0358 -0.7607 0
M  V30 4 C -0.5778 0.0557 0.1477 0
M  V30 5 C -1.5036 2.6253 0.4304 0
M  V30 6 N -0.021 -1.2288 0.0655 0
M  V30 7 C -0.5145 0.776 1.3329 0
M  V30 8 N -0.968 2.0341 1.5077 0
M  V30 9 C -2.0311 4.0165 0.589 0
M  V30 10 C 0.7803 -1.6744 -0.9299 0
M  V30 11 O 0.0449 0.1089 2.4178 0
M  V30 12 N 1.3523 -0.9883 -1.8758 0
M  V30 13 N 1.0335 -3.0044 -0.9083 0
M  V30 14 C 0.1817 0.9316 3.5729 0
M  V30 15 C 2.1323 -1.9913 -2.6543 0
M  V30 16 C 1.8035 -3.3685 -2.0659 0
M  V30 17 H 0.0802 -1.6901 0.9605 0
M  V30 18 H -1.4617 4.56 1.3492 0
M  V30 19 H -3.081 3.9801 0.8934 0
M  V30 20 H -1.9553 4.5667 -0.3537 0
M  V30 21 H 0.4169 -3.6652 -0.4611 0
M  V30 22 H 0.6635 0.333 4.3519 0
M  V30 23 H 0.8243 1.7958 3.3721 0
M  V30 24 H -0.7963 1.246 3.9527 0
M  V30 25 H 3.2005 -1.7689 -2.5596 0
M  V30 26 H 1.8608 -1.9385 -3.7135 0
M  V30 27 H 1.2036 -3.9635 -2.7612 0
M  V30 28 H 2.7061 -3.9242 -1.7977 0
M  V30 END ATOM
M  V30 BEGIN BOND
M  V30 1 1 1 2
M  V30 2 2 2 3
M  V30 3 1 2 4
M  V30 4 1 3 5
M  V30 5 1 4 6
M  V30 6 2 4 7
M  V30 7 2 5 8
M  V30 8 1 5 9
M  V30 9 1 6 10
M  V30 10 1 7 11
M  V30 11 2 10 12
M  V30 12 1 10 13
M  V30 13 1 11 14
M  V30 14 1 12 15
M  V30 15 1 13 16
M  V30 16 1 7 8
M  V30 17 1 15 16
M  V30 18 1 6 17
M  V30 19 1 9 18
M  V30 20 1 9 19
M  V30 21 1 9 20
M  V30 22 1 13 21
M  V30 23 1 14 22
M  V30 24 1 14 23
M  V30 25 1 14 24
M  V30 26 1 15 25
M  V30 27 1 15 26
M  V30 28 1 16 27
M  V30 29 1 16 28
M  V30 END BOND
M  V30 END CTAB
M  END
>  <NO.>
7454

>  <Name>
moxonidine

>  <SMILES>
COc1nc(C)nc(Cl)c1NC1=NCCN1

>  <logBB>


>  <Class>
1

>  <MW>
241.07

>  <nHBAcc>
6

>  <nHBDon>
2

>  <SLogP>
0.82

>  <TopoPSA>
71.43

>  <MMFF94 Energy>
-52.854

$$$$
C[C@@H](Cc1ccc(O)cc1)N[C@@H](O)Cc1cc(O)cc(O)c1
Actelion Java MolfileCreator 2.0

  0  0  0  0  0  0              0 V3000
M  V30 BEGIN CTAB
M  V30 COUNTS 43 44 0 0 0
M  V30 BEGIN ATOM
M  V30 1 O -1.0985 -0.2353 2.9839 0
M  V30 2 C -1.7455 0.4825 2.02 0
M  V30 3 C -2.4797 1.5919 2.4196 0
M  V30 4 C -1.6683 0.1202 0.677 0
M  V30 5 C -3.1331 2.3484 1.4532 0
M  V30 6 C -2.3219 0.8875 -0.3004 0
M  V30 7 O -3.8655 3.4495 1.7904 0
M  V30 8 C -3.0584 2.0097 0.1041 0
M  V30 9 C -2.2221 0.5247 -1.7656 0
M  V30 10 C -0.8368 0.8165 -2.3914 0 CFG=2
M  V30 11 O -0.9278 0.7682 -3.8037 0
M  V30 12 N 0.1362 -0.1694 -1.9663 0
M  V30 13 C 1.5465 0.2077 -2.132 0 CFG=2
M  V30 14 C 2.4626 -0.9771 -1.7081 0
M  V30 15 C 1.9221 1.4848 -1.3689 0
M  V30 16 C 2.2463 -1.5049 -0.3033 0
M  V30 17 C 2.8692 -0.8984 0.7971 0
M  V30 18 C 1.3933 -2.5965 -0.0802 0
M  V30 19 C 2.6223 -1.352 2.0951 0
M  V30 20 C 1.1487 -3.0529 1.2152 0
M  V30 21 C 1.7577 -2.4221 2.2919 0
M  V30 22 O 1.4594 -2.8746 3.542 0
M  V30 23 H -0.5831 -0.9388 2.5491 0
M  V30 24 H -2.5255 1.8488 3.4719 0
M  V30 25 H -1.0894 -0.7497 0.3806 0
M  V30 26 H -3.8283 3.555 2.7555 0
M  V30 27 H -3.5757 2.6284 -0.6248 0
M  V30 28 H -2.9874 1.0721 -2.3325 0
M  V30 29 H -2.4911 -0.5324 -1.8972 0
M  V30 30 H -0.5546 1.8358 -2.1141 0
M  V30 31 H -1.3518 -0.073 -4.0313 0
M  V30 32 H -0.0395 -1.0466 -2.4451 0
M  V30 33 H 1.7426 0.3878 -3.1971 0
M  V30 34 H 3.516 -0.6873 -1.8188 0
M  V30 35 H 2.3204 -1.8051 -2.4164 0
M  V30 36 H 1.5032 2.375 -1.8488 0
M  V30 37 H 1.5632 1.4628 -0.3345 0
M  V30 38 H 3.0087 1.6227 -1.3494 0
M  V30 39 H 3.5402 -0.055 0.6513 0
M  V30 40 H 0.9017 -3.0893 -0.9151 0
M  V30 41 H 3.1027 -0.8531 2.9309 0
M  V30 42 H 0.4807 -3.8929 1.3825 0
M  V30 43 H 1.9745 -2.3645 4.1895 0
M  V30 END ATOM
M  V30 BEGIN BOND
M  V30 1 1 1 2
M  V30 2 2 2 3
M  V30 3 1 2 4
M  V30 4 1 3 5
M  V30 5 2 4 6
M  V30 6 1 5 7
M  V30 7 2 5 8
M  V30 8 1 6 9
M  V30 9 1 9 10
M  V30 10 1 10 11
M  V30 11 1 10 12
M  V30 12 1 12 13
M  V30 13 1 13 14
M  V30 14 1 13 15
M  V30 15 1 14 16
M  V30 16 2 16 17
M  V30 17 1 16 18
M  V30 18 1 17 19
M  V30 19 2 18 20
M  V30 20 2 19 21
M  V30 21 1 21 22
M  V30 22 1 6 8
M  V30 23 1 20 21
M  V30 24 1 1 23
M  V30 25 1 3 24
M  V30 26 1 4 25
M  V30 27 1 7 26
M  V30 28 1 8 27
M  V30 29 1 9 28
M  V30 30 1 9 29
M  V30 31 1 10 30
M  V30 32 1 11 31
M  V30 33 1 12 32
M  V30 34 1 13 33
M  V30 35 1 14 34
M  V30 36 1 14 35
M  V30 37 1 15 36
M  V30 38 1 15 37
M  V30 39 1 15 38
M  V30 40 1 17 39
M  V30 41 1 18 40
M  V30 42 1 19 41
M  V30 43 1 20 42
M  V30 44 1 22 43
M  V30 END BOND
M  V30 BEGIN COLLECTION
M  V30 MDLV30/STEABS ATOMS=(2 10 13)
M  V30 END COLLECTION
M  V30 END CTAB
M  END
>  <NO.>
7461

>  <Name>


>  <SMILES>
C[C@@H](Cc1ccc(O)cc1)N[C@@H](O)Cc1cc(O)cc(O)c1

>  <logBB>


>  <Class>
1

>  <MW>
303.15

>  <nHBAcc>
5

>  <nHBDon>
5

>  <SLogP>
1.89

>  <TopoPSA>
92.95

>  <MMFF94 Energy>
-0.29945

$$$$
C[C@@H](NC(C)(C)C)C(=O)c1ccc(Cl)cc1
Actelion Java MolfileCreator 2.0

  0  0  0  0  0  0              0 V3000
M  V30 BEGIN CTAB
M  V30 COUNTS 34 34 0 0 0
M  V30 BEGIN ATOM
M  V30 1 Cl -1.902 -1.7434 5.5554 0
M  V30 2 C -1.7429 -1.2776 3.9077 0
M  V30 3 C -2.3109 -0.0859 3.4658 0
M  V30 4 C -1.0488 -2.0985 3.0202 0
M  V30 5 C -2.1789 0.2883 2.126 0
M  V30 6 C -0.915 -1.725 1.6779 0
M  V30 7 C -1.4735 -0.5234 1.2239 0
M  V30 8 C -1.366 -0.0639 -0.1953 0
M  V30 9 O -2.2037 0.7414 -0.6047 0
M  V30 10 C -0.2378 -0.6267 -1.0813 0 CFG=2
M  V30 11 N 0.3295 0.4374 -1.9296 0
M  V30 12 C -0.8452 -1.7095 -1.9762 0
M  V30 13 C 1.4579 1.2146 -1.3912 0
M  V30 14 C 1.2055 1.7774 0.0159 0
M  V30 15 C 1.6547 2.3998 -2.3564 0
M  V30 16 C 2.7449 0.3708 -1.391 0
M  V30 17 H -2.8581 0.555 4.1524 0
M  V30 18 H -0.6145 -3.0336 3.3658 0
M  V30 19 H -2.628 1.2211 1.7864 0
M  V30 20 H -0.3871 -2.4 1.0115 0
M  V30 21 H 0.5501 -1.081 -0.477 0
M  V30 22 H 0.5698 0.0727 -2.85 0
M  V30 23 H -1.3026 -2.5037 -1.3761 0
M  V30 24 H -0.0802 -2.1694 -2.6113 0
M  V30 25 H -1.629 -1.3027 -2.626 0
M  V30 26 H 1.1475 0.9857 0.7697 0
M  V30 27 H 2.0199 2.4456 0.3204 0
M  V30 28 H 0.2779 2.3597 0.0542 0
M  V30 29 H 0.7607 3.0338 -2.3971 0
M  V30 30 H 2.493 3.032 -2.041 0
M  V30 31 H 1.8688 2.0585 -3.3764 0
M  V30 32 H 2.6872 -0.4663 -0.6876 0
M  V30 33 H 2.9531 -0.0414 -2.3852 0
M  V30 34 H 3.6104 0.9782 -1.1013 0
M  V30 END ATOM
M  V30 BEGIN BOND
M  V30 1 1 1 2
M  V30 2 2 2 3
M  V30 3 1 2 4
M  V30 4 1 3 5
M  V30 5 2 4 6
M  V30 6 2 5 7
M  V30 7 1 7 8
M  V30 8 2 8 9
M  V30 9 1 8 10
M  V30 10 1 10 11
M  V30 11 1 10 12
M  V30 12 1 11 13
M  V30 13 1 13 14
M  V30 14 1 13 15
M  V30 15 1 13 16
M  V30 16 1 6 7
M  V30 17 1 3 17
M  V30 18 1 4 18
M  V30 19 1 5 19
M  V30 20 1 6 20
M  V30 21 1 10 21
M  V30 22 1 11 22
M  V30 23 1 12 23
M  V30 24 1 12 24
M  V30 25 1 12 25
M  V30 26 1 14 26
M  V30 27 1 14 27
M  V30 28 1 14 28
M  V30 29 1 15 29
M  V30 30 1 15 30
M  V30 31 1 15 31
M  V30 32 1 16 32
M  V30 33 1 16 33
M  V30 34 1 16 34
M  V30 END BOND
M  V30 BEGIN COLLECTION
M  V30 MDLV30/STEABS ATOMS=(1 10)
M  V30 END COLLECTION
M  V30 END CTAB
M  END
>  <NO.>
7463

>  <Name>
zinc33647603

>  <SMILES>
C[C@@H](NC(C)(C)C)C(=O)c1ccc(Cl)cc1

>  <logBB>


>  <Class>
1

>  <MW>
239.11

>  <nHBAcc>
2

>  <nHBDon>
1

>  <SLogP>
3.3

>  <TopoPSA>
29.1

>  <MMFF94 Energy>
76.635

$$$$
C[C@@H]([C@](O)(Cn1cncn1)c1ccc(F)cc1F)S(C)(=O)=O
Actelion Java MolfileCreator 2.0

  0  0  0  0  0  0              0 V3000
M  V30 BEGIN CTAB
M  V30 COUNTS 37 38 0 0 0
M  V30 BEGIN ATOM
M  V30 1 S -0.5714 -0.4897 -2.6143 0
M  V30 2 O 0.2785 -1.6612 -2.5253 0
M  V30 3 O -1.9869 -0.5835 -2.302 0
M  V30 4 C 0.1399 0.8052 -1.5539 0 CFG=2
M  V30 5 C -0.4336 0.0924 -4.2894 0
M  V30 6 C -0.303 0.5801 -0.0581 0 CFG=1
M  V30 7 C -0.2401 2.1934 -2.0872 0
M  V30 8 O -1.7113 0.8752 0.0119 0
M  V30 9 C -0.0159 -0.8339 0.4599 0
M  V30 10 C 0.4147 1.6258 0.8559 0
M  V30 11 C 1.2868 -1.3613 0.4166 0
M  V30 12 C -1.0229 -1.6375 1.0245 0
M  V30 13 N 0.2056 1.4648 2.2837 0
M  V30 14 F 2.2886 -0.6053 -0.0552 0
M  V30 15 C 1.5847 -2.6378 0.8783 0
M  V30 16 C -0.7321 -2.9222 1.4922 0
M  V30 17 N -0.8044 2.0915 2.9159 0
M  V30 18 C 1.023 0.8454 3.1805 0
M  V30 19 C 0.5655 -3.4111 1.409 0
M  V30 20 C -0.5768 1.7483 4.1856 0
M  V30 21 N 0.5395 0.9904 4.3923 0
M  V30 22 F 0.838 -4.6414 1.8618 0
M  V30 23 H 1.2251 0.6927 -1.6563 0
M  V30 24 H -1.0974 0.9455 -4.4358 0
M  V30 25 H -0.7389 -0.7207 -4.952 0
M  V30 26 H 0.6065 0.3567 -4.4872 0
M  V30 27 H 0.1667 2.354 -3.09 0
M  V30 28 H -1.3255 2.3229 -2.1453 0
M  V30 29 H 0.1712 2.9957 -1.4699 0
M  V30 30 H -2.1938 0.2492 -0.5706 0
M  V30 31 H 1.4995 1.6091 0.6965 0
M  V30 32 H 0.0675 2.6411 0.6317 0
M  V30 33 H -2.045 -1.2744 1.1207 0
M  V30 34 H 2.5956 -3.0234 0.8269 0
M  V30 35 H -1.5125 -3.5416 1.9248 0
M  V30 36 H 1.9286 0.3213 2.9102 0
M  V30 37 H -1.2357 2.0668 4.9831 0
M  V30 END ATOM
M  V30 BEGIN BOND
M  V30 1 2 1 2
M  V30 2 2 1 3
M  V30 3 1 1 4
M  V30 4 1 1 5
M  V30 5 1 4 6
M  V30 6 1 4 7
M  V30 7 1 6 8
M  V30 8 1 6 9
M  V30 9 1 6 10
M  V30 10 2 9 11
M  V30 11 1 9 12
M  V30 12 1 10 13
M  V30 13 1 11 14
M  V30 14 1 11 15
M  V30 15 2 12 16
M  V30 16 1 13 17
M  V30 17 1 13 18
M  V30 18 2 15 19
M  V30 19 2 17 20
M  V30 20 2 18 21
M  V30 21 1 19 22
M  V30 22 1 16 19
M  V30 23 1 20 21
M  V30 24 1 4 23
M  V30 25 1 5 24
M  V30 26 1 5 25
M  V30 27 1 5 26
M  V30 28 1 7 27
M  V30 29 1 7 28
M  V30 30 1 7 29
M  V30 31 1 8 30
M  V30 32 1 10 31
M  V30 33 1 10 32
M  V30 34 1 12 33
M  V30 35 1 15 34
M  V30 36 1 16 35
M  V30 37 1 18 36
M  V30 38 1 20 37
M  V30 END BOND
M  V30 BEGIN COLLECTION
M  V30 MDLV30/STEABS ATOMS=(2 4 6)
M  V30 END COLLECTION
M  V30 END CTAB
M  END
>  <NO.>
7470

>  <Name>
(2r,3s)-1-(1h-1,2,4-triazol-1-yl)-2-(2,4-difluorophenyl)-3-(methylsulfonyl)-2-butanol

>  <SMILES>
C[C@@H]([C@](O)(Cn1cncn1)c1ccc(F)cc1F)S(C)(=O)=O

>  <logBB>


>  <Class>
1

>  <MW>
331.08

>  <nHBAcc>
5

>  <nHBDon>
1

>  <SLogP>
0.88

>  <TopoPSA>
85.08

>  <MMFF94 Energy>
21.305

$$$$
C[C@H](C(=O)O)c1ccc(-c2cccc(F)c2)cc1
Actelion Java MolfileCreator 2.0

  0  0  0  0  0  0              0 V3000
M  V30 BEGIN CTAB
M  V30 COUNTS 31 32 0 0 0
M  V30 BEGIN ATOM
M  V30 1 F 5.5109 1.2758 -1.196 0
M  V30 2 C 4.5964 1.1383 -0.2265 0
M  V30 3 C 3.3007 0.7522 -0.5589 0
M  V30 4 C 4.9573 1.3848 1.0916 0
M  V30 5 C 2.3249 0.6038 0.439 0
M  V30 6 C 4.0054 1.2431 2.0972 0
M  V30 7 C 0.9507 0.1964 0.102 0
M  V30 8 C 2.7008 0.8562 1.7717 0
M  V30 9 C 0.7028 -0.9531 -0.6634 0
M  V30 10 C -0.1541 0.9441 0.5368 0
M  V30 11 C -0.6022 -1.3426 -0.9842 0
M  V30 12 C -1.4604 0.5588 0.2172 0
M  V30 13 C -1.7002 -0.5895 -0.5493 0
M  V30 14 C -3.1099 -1.0249 -0.9058 0 CFG=1
M  V30 15 C -3.9301 -1.3429 0.3306 0
M  V30 16 C -3.8303 0.0152 -1.7666 0
M  V30 17 O -4.6339 -0.5727 0.9652 0
M  V30 18 O -3.8068 -2.6284 0.7235 0
M  V30 19 H 3.0607 0.5813 -1.6045 0
M  V30 20 H 5.9739 1.684 1.3247 0
M  V30 21 H 4.2744 1.4297 3.1338 0
M  V30 22 H 1.9735 0.7394 2.5739 0
M  V30 23 H 1.5314 -1.5687 -1.0087 0
M  V30 24 H -0.0057 1.8484 1.1243 0
M  V30 25 H -0.7494 -2.2446 -1.5747 0
M  V30 26 H -2.2886 1.1677 0.5772 0
M  V30 27 H -3.0689 -1.9451 -1.5046 0
M  V30 28 H -3.9653 0.9661 -1.2389 0
M  V30 29 H -4.8269 -0.3423 -2.049 0
M  V30 30 H -3.2699 0.2193 -2.6856 0
M  V30 31 H -4.347 -2.6794 1.5396 0
M  V30 END ATOM
M  V30 BEGIN BOND
M  V30 1 1 1 2
M  V30 2 2 2 3
M  V30 3 1 2 4
M  V30 4 1 3 5
M  V30 5 2 4 6
M  V30 6 1 5 7
M  V30 7 2 5 8
M  V30 8 2 7 9
M  V30 9 1 7 10
M  V30 10 1 9 11
M  V30 11 2 10 12
M  V30 12 2 11 13
M  V30 13 1 13 14
M  V30 14 1 14 15
M  V30 15 1 14 16
M  V30 16 2 15 17
M  V30 17 1 15 18
M  V30 18 1 6 8
M  V30 19 1 12 13
M  V30 20 1 3 19
M  V30 21 1 4 20
M  V30 22 1 6 21
M  V30 23 1 8 22
M  V30 24 1 9 23
M  V30 25 1 10 24
M  V30 26 1 11 25
M  V30 27 1 12 26
M  V30 28 1 14 27
M  V30 29 1 16 28
M  V30 30 1 16 29
M  V30 31 1 16 30
M  V30 32 1 18 31
M  V30 END BOND
M  V30 BEGIN COLLECTION
M  V30 MDLV30/STEABS ATOMS=(1 14)
M  V30 END COLLECTION
M  V30 END CTAB
M  END
>  <NO.>
7509

>  <Name>
unii-yay699l64p

>  <SMILES>
C[C@H](C(=O)O)c1ccc(-c2cccc(F)c2)cc1

>  <logBB>


>  <Class>
1

>  <MW>
244.09

>  <nHBAcc>
1

>  <nHBDon>
1

>  <SLogP>
3.68

>  <TopoPSA>
37.3

>  <MMFF94 Energy>
34.93

$$$$
C[C@H](C(=O)O)c1ccc(N2Cc3ccccc3C2=O)cc1
Actelion Java MolfileCreator 2.0

  0  0  0  0  0  0              0 V3000
M  V30 BEGIN CTAB
M  V30 COUNTS 36 38 0 0 0
M  V30 BEGIN ATOM
M  V30 1 O -0.7195 2.8002 0.7195 0
M  V30 2 C -1.4414 1.9959 0.1591 0
M  V30 3 N -1.246 0.6434 -0.1339 0
M  V30 4 C -2.7725 2.3513 -0.3491 0
M  V30 5 C -0.0686 -0.1008 0.122 0
M  V30 6 C -2.4079 0.0632 -0.7918 0
M  V30 7 C -3.3427 1.2181 -0.9198 0
M  V30 8 C -3.4182 3.5734 -0.3139 0
M  V30 9 C -0.1094 -1.498 0.2134 0
M  V30 10 C 1.1702 0.5311 0.267 0
M  V30 11 C -4.6052 1.2781 -1.4837 0
M  V30 12 C -4.6916 3.6434 -0.8807 0
M  V30 13 C 1.054 -2.2402 0.4517 0
M  V30 14 C 2.3354 -0.2076 0.504 0
M  V30 15 C -5.2796 2.5044 -1.4611 0
M  V30 16 C 2.2911 -1.6035 0.6026 0
M  V30 17 C 3.5434 -2.4207 0.8608 0 CFG=1
M  V30 18 C 4.5541 -2.2723 -0.2613 0
M  V30 19 C 4.1831 -2.076 2.2078 0
M  V30 20 O 5.5315 -1.5413 -0.2824 0
M  V30 21 O 4.2728 -3.056 -1.3243 0
M  V30 22 H -2.1203 -0.3283 -1.7723 0
M  V30 23 H -2.8497 -0.7119 -0.1584 0
M  V30 24 H -2.9467 4.44 0.1375 0
M  V30 25 H -1.0425 -2.0438 0.1177 0
M  V30 26 H 1.2614 1.6116 0.1885 0
M  V30 27 H -5.067 0.404 -1.9318 0
M  V30 28 H -5.2343 4.5862 -0.8744 0
M  V30 29 H 0.9802 -3.3238 0.5193 0
M  V30 30 H 3.278 0.3279 0.6068 0
M  V30 31 H -6.2737 2.581 -1.8975 0
M  V30 32 H 3.2836 -3.4872 0.908 0
M  V30 33 H 4.5283 -1.0368 2.2471 0
M  V30 34 H 5.0544 -2.7136 2.3945 0
M  V30 35 H 3.4725 -2.2238 3.0285 0
M  V30 36 H 4.9712 -2.8292 -1.9734 0
M  V30 END ATOM
M  V30 BEGIN BOND
M  V30 1 2 1 2
M  V30 2 1 2 3
M  V30 3 1 2 4
M  V30 4 1 3 5
M  V30 5 1 3 6
M  V30 6 2 4 7
M  V30 7 1 4 8
M  V30 8 2 5 9
M  V30 9 1 5 10
M  V30 10 1 7 11
M  V30 11 2 8 12
M  V30 12 1 9 13
M  V30 13 2 10 14
M  V30 14 2 11 15
M  V30 15 2 13 16
M  V30 16 1 16 17
M  V30 17 1 17 18
M  V30 18 1 17 19
M  V30 19 2 18 20
M  V30 20 1 18 21
M  V30 21 1 6 7
M  V30 22 1 12 15
M  V30 23 1 14 16
M  V30 24 1 6 22
M  V30 25 1 6 23
M  V30 26 1 8 24
M  V30 27 1 9 25
M  V30 28 1 10 26
M  V30 29 1 11 27
M  V30 30 1 12 28
M  V30 31 1 13 29
M  V30 32 1 14 30
M  V30 33 1 15 31
M  V30 34 1 17 32
M  V30 35 1 19 33
M  V30 36 1 19 34
M  V30 37 1 19 35
M  V30 38 1 21 36
M  V30 END BOND
M  V30 BEGIN COLLECTION
M  V30 MDLV30/STEABS ATOMS=(1 17)
M  V30 END COLLECTION
M  V30 END CTAB
M  END
>  <NO.>
7510

>  <Name>
dexindoprofen

>  <SMILES>
C[C@H](C(=O)O)c1ccc(N2Cc3ccccc3C2=O)cc1

>  <logBB>


>  <Class>
1

>  <MW>
281.11

>  <nHBAcc>
2

>  <nHBDon>
1

>  <SLogP>
3.04

>  <TopoPSA>
57.61

>  <MMFF94 Energy>
46.223

$$$$
C[C@H](C(=O)O)c1ccc([C@@H]2CCCC(=NO)C2)cc1
Actelion Java MolfileCreator 2.0

  0  0  0  0  0  0              0 V3000
M  V30 BEGIN CTAB
M  V30 COUNTS 38 39 0 0 0
M  V30 BEGIN ATOM
M  V30 1 O -3.2551 -3.8117 0.3172 0
M  V30 2 C -4.0495 -2.9077 0.5166 0
M  V30 3 O -5.3601 -3.1006 0.2459 0
M  V30 4 C -3.7819 -1.5323 1.1041 0 CFG=2
M  V30 5 C -2.397 -0.9947 0.7784 0
M  V30 6 C -4.039 -1.5678 2.6109 0
M  V30 7 C -2.263 0.1688 0.0079 0
M  V30 8 C -1.2324 -1.626 1.2355 0
M  V30 9 C -1.0002 0.6871 -0.2946 0
M  V30 10 C 0.0298 -1.1083 0.9315 0
M  V30 11 C 0.1632 0.0561 0.1645 0
M  V30 12 C 1.5461 0.595 -0.1536 0 CFG=1
M  V30 13 C 1.8313 0.5637 -1.6604 0
M  V30 14 C 1.7536 2.0114 0.4198 0
M  V30 15 C 3.2176 1.1199 -1.9092 0
M  V30 16 C 3.1652 2.5271 0.1297 0
M  V30 17 N 4.0628 0.3913 -2.574 0
M  V30 18 C 3.4794 2.5101 -1.3626 0
M  V30 19 O 5.2918 1.0336 -2.7371 0
M  V30 20 H -5.3892 -4.014 -0.1095 0
M  V30 21 H -4.5173 -0.8518 0.6532 0
M  V30 22 H -3.3871 -2.287 3.1192 0
M  V30 23 H -5.0721 -1.8662 2.8211 0
M  V30 24 H -3.8734 -0.5836 3.0627 0
M  V30 25 H -3.1428 0.6885 -0.366 0
M  V30 26 H -1.2935 -2.5403 1.823 0
M  V30 27 H -0.9391 1.5911 -0.8961 0
M  V30 28 H 0.9104 -1.632 1.298 0
M  V30 29 H 2.2882 -0.0543 0.3334 0
M  V30 30 H 1.7637 -0.4594 -2.048 0
M  V30 31 H 1.1196 1.1792 -2.2229 0
M  V30 32 H 1.0246 2.7133 -0.0043 0
M  V30 33 H 1.588 2.0047 1.5044 0
M  V30 34 H 3.8929 1.9043 0.6647 0
M  V30 35 H 3.269 3.5474 0.5157 0
M  V30 36 H 2.8249 3.2083 -1.8969 0
M  V30 37 H 4.5097 2.8349 -1.5235 0
M  V30 38 H 5.8042 0.3775 -3.2454 0
M  V30 END ATOM
M  V30 BEGIN BOND
M  V30 1 2 1 2
M  V30 2 1 2 3
M  V30 3 1 2 4
M  V30 4 1 4 5
M  V30 5 1 4 6
M  V30 6 2 5 7
M  V30 7 1 5 8
M  V30 8 1 7 9
M  V30 9 2 8 10
M  V30 10 2 9 11
M  V30 11 1 11 12
M  V30 12 1 12 13
M  V30 13 1 12 14
M  V30 14 1 13 15
M  V30 15 1 14 16
M  V30 16 2 15 17
M  V30 17 1 15 18
M  V30 18 1 17 19
M  V30 19 1 10 11
M  V30 20 1 16 18
M  V30 21 1 3 20
M  V30 22 1 4 21
M  V30 23 1 6 22
M  V30 24 1 6 23
M  V30 25 1 6 24
M  V30 26 1 7 25
M  V30 27 1 8 26
M  V30 28 1 9 27
M  V30 29 1 10 28
M  V30 30 1 12 29
M  V30 31 1 13 30
M  V30 32 1 13 31
M  V30 33 1 14 32
M  V30 34 1 14 33
M  V30 35 1 16 34
M  V30 36 1 16 35
M  V30 37 1 18 36
M  V30 38 1 18 37
M  V30 39 1 19 38
M  V30 END BOND
M  V30 BEGIN COLLECTION
M  V30 MDLV30/STEABS ATOMS=(2 4 12)
M  V30 END COLLECTION
M  V30 END CTAB
M  END
>  <NO.>
7511

>  <Name>
unii-yfd6wrv4j1 component iqppoxsmsdpzku-gxffztmasa-n

>  <SMILES>
C[C@H](C(=O)O)c1ccc([C@@H]2CCCC(=NO)C2)cc1

>  <logBB>


>  <Class>
1

>  <MW>
261.14

>  <nHBAcc>
3

>  <nHBDon>
2

>  <SLogP>
3.36

>  <TopoPSA>
69.89

>  <MMFF94 Energy>
45.671

$$$$
C[C@H](C(=O)O)c1cccc(Oc2ccccc2)c1
Actelion Java MolfileCreator 2.0

  0  0  0  0  0  0              0 V3000
M  V30 BEGIN CTAB
M  V30 COUNTS 32 33 0 0 0
M  V30 BEGIN ATOM
M  V30 1 O -0.3167 2.7741 -1.8223 0
M  V30 2 C -1.3011 2.0588 -1.7246 0
M  V30 3 O -2.3629 2.4669 -0.9971 0
M  V30 4 C -1.5056 0.6892 -2.3468 0 CFG=2
M  V30 5 C -1.3884 -0.4263 -1.3234 0
M  V30 6 C -0.5426 0.4787 -3.5173 0
M  V30 7 C -0.2136 -0.6094 -0.5757 0
M  V30 8 C -2.4634 -1.3053 -1.1165 0
M  V30 9 C -0.1298 -1.6387 0.3674 0
M  V30 10 C -2.3652 -2.3471 -0.1914 0
M  V30 11 O 1.0091 -1.8773 1.1026 0
M  V30 12 C -1.195 -2.5189 0.5451 0
M  V30 13 C 1.5858 -0.7999 1.7369 0
M  V30 14 C 0.8503 0.1087 2.5026 0
M  V30 15 C 2.9729 -0.6815 1.6476 0
M  V30 16 C 1.504 1.1597 3.1475 0
M  V30 17 C 3.6239 0.3701 2.2931 0
M  V30 18 C 2.889 1.2921 3.0394 0
M  V30 19 H -2.0807 3.3326 -0.6347 0
M  V30 20 H -2.5183 0.6945 -2.7729 0
M  V30 21 H 0.5052 0.506 -3.1977 0
M  V30 22 H -0.6729 1.2642 -4.2702 0
M  V30 23 H -0.7195 -0.4876 -4.002 0
M  V30 24 H 0.6403 0.0475 -0.7281 0
M  V30 25 H -3.3873 -1.1888 -1.6797 0
M  V30 26 H -3.2014 -3.0264 -0.0473 0
M  V30 27 H -1.1148 -3.3323 1.2607 0
M  V30 28 H -0.2258 0.0024 2.6056 0
M  V30 29 H 3.5439 -1.4037 1.0711 0
M  V30 30 H 0.9343 1.8719 3.7385 0
M  V30 31 H 4.7035 0.4692 2.2165 0
M  V30 32 H 3.3969 2.1109 3.5427 0
M  V30 END ATOM
M  V30 BEGIN BOND
M  V30 1 2 1 2
M  V30 2 1 2 3
M  V30 3 1 2 4
M  V30 4 1 4 5
M  V30 5 1 4 6
M  V30 6 2 5 7
M  V30 7 1 5 8
M  V30 8 1 7 9
M  V30 9 2 8 10
M  V30 10 1 9 11
M  V30 11 2 9 12
M  V30 12 1 11 13
M  V30 13 2 13 14
M  V30 14 1 13 15
M  V30 15 1 14 16
M  V30 16 2 15 17
M  V30 17 2 16 18
M  V30 18 1 10 12
M  V30 19 1 17 18
M  V30 20 1 3 19
M  V30 21 1 4 20
M  V30 22 1 6 21
M  V30 23 1 6 22
M  V30 24 1 6 23
M  V30 25 1 7 24
M  V30 26 1 8 25
M  V30 27 1 10 26
M  V30 28 1 12 27
M  V30 29 1 14 28
M  V30 30 1 15 29
M  V30 31 1 16 30
M  V30 32 1 17 31
M  V30 33 1 18 32
M  V30 END BOND
M  V30 BEGIN COLLECTION
M  V30 MDLV30/STEABS ATOMS=(1 4)
M  V30 END COLLECTION
M  V30 END CTAB
M  END
>  <NO.>
7512

>  <Name>
(s)-fenoprofen

>  <SMILES>
C[C@H](C(=O)O)c1cccc(Oc2ccccc2)c1

>  <logBB>


>  <Class>
1

>  <MW>
242.09

>  <nHBAcc>
2

>  <nHBDon>
1

>  <SLogP>
3.67

>  <TopoPSA>
46.53

>  <MMFF94 Energy>
43.55

$$$$
C[C@H](N)[C@@H](O)c1ccccc1
Actelion Java MolfileCreator 2.0

  0  0  0  0  0  0              0 V3000
M  V30 BEGIN CTAB
M  V30 COUNTS 24 24 0 0 0
M  V30 BEGIN ATOM
M  V30 1 O 1.632 -1.5542 0.5437 0
M  V30 2 C 1.0512 -0.258 0.3423 0 CFG=1
M  V30 3 C 0.0042 -0.3773 -0.7441 0
M  V30 4 C 0.482 0.273 1.6933 0 CFG=1
M  V30 5 C -0.0272 0.5447 -1.8018 0
M  V30 6 C -0.9646 -1.3921 -0.7091 0
M  V30 7 N 1.4665 0.1708 2.7916 0
M  V30 8 C 0.0326 1.7305 1.5937 0
M  V30 9 C -1.0044 0.4547 -2.7953 0
M  V30 10 C -1.9403 -1.4814 -1.7032 0
M  V30 11 C -1.9607 -0.5571 -2.745 0
M  V30 12 H 2.4387 -1.4114 1.0636 0
M  V30 13 H 1.8636 0.3942 -0.0029 0
M  V30 14 H -0.3786 -0.3372 1.993 0
M  V30 15 H 0.7093 1.3427 -1.8598 0
M  V30 16 H -0.9529 -2.1267 0.0937 0
M  V30 17 H 1.6645 -0.8139 2.9649 0
M  V30 18 H 2.3398 0.6227 2.5293 0
M  V30 19 H -0.7864 1.8447 0.8768 0
M  V30 20 H 0.8545 2.3827 1.278 0
M  V30 21 H -0.3337 2.0944 2.5605 0
M  V30 22 H -1.0185 1.1738 -3.61 0
M  V30 23 H -2.6809 -2.2758 -1.665 0
M  V30 24 H -2.7193 -0.6282 -3.5196 0
M  V30 END ATOM
M  V30 BEGIN BOND
M  V30 1 1 1 2
M  V30 2 1 2 3
M  V30 3 1 2 4
M  V30 4 2 3 5
M  V30 5 1 3 6
M  V30 6 1 4 7
M  V30 7 1 4 8
M  V30 8 1 5 9
M  V30 9 2 6 10
M  V30 10 2 9 11
M  V30 11 1 10 11
M  V30 12 1 1 12
M  V30 13 1 2 13
M  V30 14 1 4 14
M  V30 15 1 5 15
M  V30 16 1 6 16
M  V30 17 1 7 17
M  V30 18 1 7 18
M  V30 19 1 8 19
M  V30 20 1 8 20
M  V30 21 1 8 21
M  V30 22 1 9 22
M  V30 23 1 10 23
M  V30 24 1 11 24
M  V30 END BOND
M  V30 BEGIN COLLECTION
M  V30 MDLV30/STEABS ATOMS=(2 2 4)
M  V30 END COLLECTION
M  V30 END CTAB
M  END
>  <NO.>
7514

>  <Name>
cathine

>  <SMILES>
C[C@H](N)[C@@H](O)c1ccccc1

>  <logBB>


>  <Class>
1

>  <MW>
151.1

>  <nHBAcc>
2

>  <nHBDon>
2

>  <SLogP>
1.07

>  <TopoPSA>
46.25

>  <MMFF94 Energy>
52.719

$$$$
C[C@H](O)[C@H]1C(=O)N2C(C(=O)O)=C(S[C@@H]3CC[C@H](C(=O)N(C)C)N3)[C@@H](C)[C@H]12
Actelion Java MolfileCreator 2.0

  0  0  0  0  0  0              0 V3000
M  V30 BEGIN CTAB
M  V30 COUNTS 51 53 0 0 0
M  V30 BEGIN ATOM
M  V30 1 S 1.7695 -1.528 -0.7236 0
M  V30 2 C 1.6455 0.1716 -0.4733 0
M  V30 3 C 0.5048 -2.1786 0.3912 0 CFG=1
M  V30 4 C 1.9449 0.877 0.6318 0
M  V30 5 C 1.3119 1.0998 -1.6324 0 CFG=2
M  V30 6 N -0.82 -1.6441 0.1278 0
M  V30 7 C 0.2824 -3.6659 0.1536 0
M  V30 8 N 1.8175 2.2246 0.4029 0
M  V30 9 C 2.4508 0.3777 1.9339 0
M  V30 10 C 1.3043 2.4822 -0.9549 0 CFG=1
M  V30 11 C -0.0424 0.84 -2.2862 0
M  V30 12 C -1.7653 -2.5369 0.8272 0 CFG=2
M  V30 13 C -1.1297 -3.9195 0.677 0
M  V30 14 C 2.8603 3.0961 0.333 0
M  V30 15 O 2.9236 -0.7181 2.1751 0
M  V30 16 O 2.2918 1.2876 2.9141 0
M  V30 17 C 2.4797 3.5004 -1.105 0 CFG=2
M  V30 18 C -3.1868 -2.4284 0.2236 0
M  V30 19 O 3.7821 3.3359 1.0779 0
M  V30 20 C 2.1233 4.9605 -1.3387 0 CFG=1
M  V30 21 O -3.4336 -1.6477 -0.7005 0
M  V30 22 N -4.1904 -3.2187 0.7838 0
M  V30 23 O 1.16 5.4096 -0.3888 0
M  V30 24 C 3.3591 5.8478 -1.2826 0
M  V30 25 C -5.4997 -3.2402 0.1494 0
M  V30 26 C -4.0497 -4.0485 1.9697 0
M  V30 27 H 0.7882 -2.0041 1.4347 0
M  V30 28 H 2.1023 1.0491 -2.3914 0
M  V30 29 H -0.928 -0.6855 0.4435 0
M  V30 30 H 0.3139 -3.9269 -0.9125 0
M  V30 31 H 1.0207 -4.2857 0.6735 0
M  V30 32 H 0.311 2.9485 -0.9021 0
M  V30 33 H -0.0668 -0.1349 -2.7831 0
M  V30 34 H -0.253 1.6049 -3.042 0
M  V30 35 H -0.858 0.8713 -1.5551 0
M  V30 36 H -1.8079 -2.2376 1.8813 0
M  V30 37 H -1.6784 -4.575 -0.008 0
M  V30 38 H -1.0748 -4.421 1.6499 0
M  V30 39 H 2.7182 0.8807 3.6949 0
M  V30 40 H 3.2341 3.163 -1.8297 0
M  V30 41 H 1.6634 5.0614 -2.328 0
M  V30 42 H 1.6201 5.6361 0.4408 0
M  V30 43 H 4.1038 5.5393 -2.0228 0
M  V30 44 H 3.8277 5.8183 -0.293 0
M  V30 45 H 3.0874 6.8921 -1.4706 0
M  V30 46 H -5.522 -2.6777 -0.787 0
M  V30 47 H -5.771 -4.2792 -0.0612 0
M  V30 48 H -6.2299 -2.8068 0.8395 0
M  V30 49 H -3.1776 -3.78 2.5654 0
M  V30 50 H -3.9677 -5.0924 1.654 0
M  V30 51 H -4.9379 -3.9291 2.5982 0
M  V30 END ATOM
M  V30 BEGIN BOND
M  V30 1 1 1 2
M  V30 2 1 1 3
M  V30 3 2 2 4
M  V30 4 1 2 5
M  V30 5 1 3 6
M  V30 6 1 3 7
M  V30 7 1 4 8
M  V30 8 1 4 9
M  V30 9 1 5 10
M  V30 10 1 5 11
M  V30 11 1 6 12
M  V30 12 1 7 13
M  V30 13 1 8 14
M  V30 14 2 9 15
M  V30 15 1 9 16
M  V30 16 1 10 17
M  V30 17 1 12 18
M  V30 18 2 14 19
M  V30 19 1 17 20
M  V30 20 2 18 21
M  V30 21 1 18 22
M  V30 22 1 20 23
M  V30 23 1 20 24
M  V30 24 1 22 25
M  V30 25 1 22 26
M  V30 26 1 8 10
M  V30 27 1 12 13
M  V30 28 1 14 17
M  V30 29 1 3 27
M  V30 30 1 5 28
M  V30 31 1 6 29
M  V30 32 1 7 30
M  V30 33 1 7 31
M  V30 34 1 10 32
M  V30 35 1 11 33
M  V30 36 1 11 34
M  V30 37 1 11 35
M  V30 38 1 12 36
M  V30 39 1 13 37
M  V30 40 1 13 38
M  V30 41 1 16 39
M  V30 42 1 17 40
M  V30 43 1 20 41
M  V30 44 1 23 42
M  V30 45 1 24 43
M  V30 46 1 24 44
M  V30 47 1 24 45
M  V30 48 1 25 46
M  V30 49 1 25 47
M  V30 50 1 25 48
M  V30 51 1 26 49
M  V30 52 1 26 50
M  V30 53 1 26 51
M  V30 END BOND
M  V30 BEGIN COLLECTION
M  V30 MDLV30/STEABS ATOMS=(6 3 5 10 12 17 20)
M  V30 END COLLECTION
M  V30 END CTAB
M  END
>  <NO.>
7520

>  <Name>


>  <SMILES>
C[C@H](O)[C@H]1C(=O)N2C(C(=O)O)=C(S[C@@H]3CC[C@H](C(=O)N(C)C)N3)[C@@H](C)[C@H]12

>  <logBB>


>  <Class>
-1

>  <MW>
383.15

>  <nHBAcc>
6

>  <nHBDon>
3

>  <SLogP>
0.04

>  <TopoPSA>
110.18

>  <MMFF94 Energy>
48.085

$$$$
C[N+](C)(CCOc1ccccc1)Cc1ccccc1
Actelion Java MolfileCreator 2.0

  0  0  0  0  0  0              0 V3000
M  V30 BEGIN CTAB
M  V30 COUNTS 41 42 0 0 0
M  V30 BEGIN ATOM
M  V30 1 O -0.5498 0.7855 2.1222 0
M  V30 2 C -1.2646 0.0725 3.045 0
M  V30 3 C -1.2825 1.4004 1.0655 0
M  V30 4 C -2.6531 -0.0655 3.0812 0
M  V30 5 C -0.4885 -0.5562 4.0229 0
M  V30 6 C -0.3034 2.1151 0.1181 0
M  V30 7 C -3.2548 -0.8332 4.0835 0
M  V30 8 C -1.0896 -1.3221 5.023 0
M  V30 9 N 0.6261 1.1852 -0.7202 0 CHG=1
M  V30 10 C -2.4744 -1.4617 5.0518 0
M  V30 11 C -0.2168 0.2686 -1.6326 0
M  V30 12 C 1.527 0.3555 0.1912 0
M  V30 13 C 1.5221 2.0974 -1.5617 0
M  V30 14 C 0.5328 -0.5481 -2.6563 0
M  V30 15 C 0.7157 -0.0635 -3.962 0
M  V30 16 C 1.0527 -1.81 -2.3267 0
M  V30 17 C 1.4189 -0.8139 -4.9056 0
M  V30 18 C 1.7553 -2.5573 -3.2732 0
M  V30 19 C 1.941 -2.0576 -4.5597 0
M  V30 20 H -1.9495 2.1613 1.4894 0
M  V30 21 H -1.8845 0.6656 0.5222 0
M  V30 22 H -3.3052 0.4108 2.3575 0
M  V30 23 H 0.5929 -0.4493 4.0167 0
M  V30 24 H -0.8623 2.7212 -0.6041 0
M  V30 25 H 0.3605 2.7703 0.6946 0
M  V30 26 H -4.3373 -0.9385 4.1139 0
M  V30 27 H -0.4793 -1.8057 5.7821 0
M  V30 28 H -2.9462 -2.055 5.8321 0
M  V30 29 H -0.7814 -0.4085 -0.9817 0
M  V30 30 H -0.947 0.9142 -2.1368 0
M  V30 31 H 2.337 -0.0721 -0.4066 0
M  V30 32 H 1.9482 1.014 0.9565 0
M  V30 33 H 0.9401 -0.4494 0.6391 0
M  V30 34 H 0.8903 2.6525 -2.2612 0
M  V30 35 H 2.2585 1.4915 -2.096 0
M  V30 36 H 2.0402 2.7871 -0.8878 0
M  V30 37 H 0.3066 0.8977 -4.2675 0
M  V30 38 H 0.9084 -2.2365 -1.3357 0
M  V30 39 H 1.5542 -0.4355 -5.917 0
M  V30 40 H 2.1521 -3.5368 -3.0131 0
M  V30 41 H 2.4834 -2.6447 -5.2982 0
M  V30 END ATOM
M  V30 BEGIN BOND
M  V30 1 1 1 2
M  V30 2 1 1 3
M  V30 3 2 2 4
M  V30 4 1 2 5
M  V30 5 1 3 6
M  V30 6 1 4 7
M  V30 7 2 5 8
M  V30 8 1 6 9
M  V30 9 2 7 10
M  V30 10 1 9 11
M  V30 11 1 9 12
M  V30 12 1 9 13
M  V30 13 1 11 14
M  V30 14 2 14 15
M  V30 15 1 14 16
M  V30 16 1 15 17
M  V30 17 2 16 18
M  V30 18 2 17 19
M  V30 19 1 8 10
M  V30 20 1 18 19
M  V30 21 1 3 20
M  V30 22 1 3 21
M  V30 23 1 4 22
M  V30 24 1 5 23
M  V30 25 1 6 24
M  V30 26 1 6 25
M  V30 27 1 7 26
M  V30 28 1 8 27
M  V30 29 1 10 28
M  V30 30 1 11 29
M  V30 31 1 11 30
M  V30 32 1 12 31
M  V30 33 1 12 32
M  V30 34 1 12 33
M  V30 35 1 13 34
M  V30 36 1 13 35
M  V30 37 1 13 36
M  V30 38 1 15 37
M  V30 39 1 16 38
M  V30 40 1 17 39
M  V30 41 1 18 40
M  V30 42 1 19 41
M  V30 END BOND
M  V30 END CTAB
M  END
>  <NO.>
7569

>  <Name>
bephenium

>  <SMILES>
C[N+](C)(CCOc1ccccc1)Cc1ccccc1

>  <logBB>


>  <Class>
-1

>  <MW>
256.17

>  <nHBAcc>
1

>  <nHBDon>
0

>  <SLogP>
3.34

>  <TopoPSA>
9.23

>  <MMFF94 Energy>
65.446

$$$$
C[N+]1(C)CCC[C@@H]1COC(=O)C(O)(c1ccccc1)c1ccccc1
Actelion Java MolfileCreator 2.0

  0  0  0  0  0  0              0 V3000
M  V30 BEGIN CTAB
M  V30 COUNTS 51 53 0 0 0
M  V30 BEGIN ATOM
M  V30 1 O -1.5912 -1.0341 0.8749 0
M  V30 2 C -0.8174 -0.7884 -0.0443 0
M  V30 3 O -0.2373 0.4478 -0.2038 0
M  V30 4 C -0.2816 -1.7988 -1.1232 0
M  V30 5 C -0.5667 1.3924 0.8215 0
M  V30 6 O -0.0539 -1.068 -2.348 0
M  V30 7 C -1.278 -2.9142 -1.4972 0
M  V30 8 C 1.0619 -2.3269 -0.5838 0
M  V30 9 C 0.2919 2.6448 0.6128 0 CFG=2
M  V30 10 C -2.669 -2.7632 -1.3485 0
M  V30 11 C -0.816 -4.0938 -2.1181 0
M  V30 12 C 2.2844 -2.0171 -1.2054 0
M  V30 13 C 1.0908 -3.128 0.5754 0
M  V30 14 N 0.1889 3.6983 1.7359 0 CHG=1
M  V30 15 C -0.0482 3.4233 -0.6576 0
M  V30 16 C -3.5524 -3.7691 -1.7525 0
M  V30 17 C -1.6999 -5.097 -2.5217 0
M  V30 18 C 3.4911 -2.4957 -0.6901 0
M  V30 19 C 2.2987 -3.6044 1.0879 0
M  V30 20 C 0.8 4.9338 1.0647 0
M  V30 21 C -1.2424 3.9894 2.1775 0
M  V30 22 C 1.012 3.3002 2.9527 0
M  V30 23 C 0.3319 4.872 -0.3799 0
M  V30 24 C -3.068 -4.9363 -2.3339 0
M  V30 25 C 3.4977 -3.2879 0.4552 0
M  V30 26 H -1.6345 1.6292 0.7541 0
M  V30 27 H -0.3511 0.9532 1.8019 0
M  V30 28 H -0.7967 -1.2628 -2.946 0
M  V30 29 H 1.3506 2.3545 0.558 0
M  V30 30 H -3.1024 -1.8652 -0.9141 0
M  V30 31 H 0.2474 -4.2468 -2.2997 0
M  V30 32 H 2.3092 -1.4072 -2.1067 0
M  V30 33 H 0.1656 -3.4008 1.0834 0
M  V30 34 H 0.4933 3.0251 -1.5223 0
M  V30 35 H -1.1172 3.3602 -0.8932 0
M  V30 36 H -4.6237 -3.64 -1.6142 0
M  V30 37 H -1.3178 -6.0028 -2.9868 0
M  V30 38 H 4.4271 -2.2588 -1.1905 0
M  V30 39 H 2.3025 -4.2331 1.9754 0
M  V30 40 H 0.4831 5.836 1.5971 0
M  V30 41 H 1.8905 4.8361 1.1189 0
M  V30 42 H -1.6412 3.1013 2.6752 0
M  V30 43 H -1.2193 4.829 2.8789 0
M  V30 44 H -1.846 4.2437 1.3028 0
M  V30 45 H 2.0344 3.0806 2.6323 0
M  V30 46 H 1.0062 4.1376 3.6568 0
M  V30 47 H 0.5569 2.4159 3.4064 0
M  V30 48 H -0.5375 5.5224 -0.5298 0
M  V30 49 H 1.1145 5.2239 -1.06 0
M  V30 50 H -3.7565 -5.7176 -2.6465 0
M  V30 51 H 4.4372 -3.6688 0.8483 0
M  V30 END ATOM
M  V30 BEGIN BOND
M  V30 1 2 1 2
M  V30 2 1 2 3
M  V30 3 1 2 4
M  V30 4 1 3 5
M  V30 5 1 4 6
M  V30 6 1 4 7
M  V30 7 1 4 8
M  V30 8 1 5 9
M  V30 9 2 7 10
M  V30 10 1 7 11
M  V30 11 2 8 12
M  V30 12 1 8 13
M  V30 13 1 9 14
M  V30 14 1 9 15
M  V30 15 1 10 16
M  V30 16 2 11 17
M  V30 17 1 12 18
M  V30 18 2 13 19
M  V30 19 1 14 20
M  V30 20 1 14 21
M  V30 21 1 14 22
M  V30 22 1 15 23
M  V30 23 2 16 24
M  V30 24 2 18 25
M  V30 25 1 17 24
M  V30 26 1 19 25
M  V30 27 1 20 23
M  V30 28 1 5 26
M  V30 29 1 5 27
M  V30 30 1 6 28
M  V30 31 1 9 29
M  V30 32 1 10 30
M  V30 33 1 11 31
M  V30 34 1 12 32
M  V30 35 1 13 33
M  V30 36 1 15 34
M  V30 37 1 15 35
M  V30 38 1 16 36
M  V30 39 1 17 37
M  V30 40 1 18 38
M  V30 41 1 19 39
M  V30 42 1 20 40
M  V30 43 1 20 41
M  V30 44 1 21 42
M  V30 45 1 21 43
M  V30 46 1 21 44
M  V30 47 1 22 45
M  V30 48 1 22 46
M  V30 49 1 22 47
M  V30 50 1 23 48
M  V30 51 1 23 49
M  V30 52 1 24 50
M  V30 53 1 25 51
M  V30 END BOND
M  V30 BEGIN COLLECTION
M  V30 MDLV30/STEABS ATOMS=(1 9)
M  V30 END COLLECTION
M  V30 END CTAB
M  END
>  <NO.>
7570

>  <Name>
zinc651

>  <SMILES>
C[N+]1(C)CCC[C@@H]1COC(=O)C(O)(c1ccccc1)c1ccccc1

>  <logBB>


>  <Class>
-1

>  <MW>
340.19

>  <nHBAcc>
3

>  <nHBDon>
1

>  <SLogP>
2.7

>  <TopoPSA>
46.53

>  <MMFF94 Energy>
159.44

$$$$
Cc1c(N(C)C)c(=N)n(-c2ccccc2)n1C
Actelion Java MolfileCreator 2.0

  0  0  0  0  0  0              0 V3000
M  V30 BEGIN CTAB
M  V30 COUNTS 35 36 0 0 0
M  V30 BEGIN ATOM
M  V30 1 N -2.0347 0.9387 0.3128 0
M  V30 2 C -0.9624 0.2349 0.11 0
M  V30 3 N 0.2631 0.6374 -0.4329 0
M  V30 4 C -0.8662 -1.232 0.5445 0
M  V30 5 N 1.1085 -0.4608 -0.3525 0
M  V30 6 C 0.6579 1.9944 -0.5766 0
M  V30 7 N -1.9312 -1.9295 1.0884 0
M  V30 8 C 0.4211 -1.5312 0.2539 0
M  V30 9 C 2.1486 -0.6566 -1.355 0
M  V30 10 C 1.9421 2.4244 -0.2 0
M  V30 11 C -0.2205 2.9565 -1.0986 0
M  V30 12 C -3.2223 -2.0193 0.4101 0
M  V30 13 C -1.7773 -2.8094 2.2395 0
M  V30 14 C 1.084 -2.8586 0.4266 0
M  V30 15 C 2.3372 3.7574 -0.3511 0
M  V30 16 C 0.1697 4.2906 -1.2526 0
M  V30 17 C 1.4502 4.6899 -0.881 0
M  V30 18 H -2.694 0.3384 0.8167 0
M  V30 19 H 1.7462 -1.2002 -2.2168 0
M  V30 20 H 2.9788 -1.2342 -0.9353 0
M  V30 21 H 2.564 0.2839 -1.7258 0
M  V30 22 H 2.6392 1.7199 0.2459 0
M  V30 23 H -1.2262 2.6671 -1.3964 0
M  V30 24 H -4.0081 -1.5795 1.0329 0
M  V30 25 H -3.4789 -3.067 0.2189 0
M  V30 26 H -3.2175 -1.5044 -0.5567 0
M  V30 27 H -1.6639 -3.8492 1.9165 0
M  V30 28 H -2.6579 -2.7467 2.8883 0
M  V30 29 H -0.9073 -2.5315 2.8446 0
M  V30 30 H 1.938 -2.7678 1.1054 0
M  V30 31 H 0.4117 -3.6156 0.8363 0
M  V30 32 H 1.4439 -3.2409 -0.5339 0
M  V30 33 H 3.3329 4.0657 -0.0443 0
M  V30 34 H -0.5329 5.0136 -1.6581 0
M  V30 35 H 1.7517 5.7276 -0.9952 0
M  V30 END ATOM
M  V30 BEGIN BOND
M  V30 1 2 1 2
M  V30 2 1 2 3
M  V30 3 1 2 4
M  V30 4 1 3 5
M  V30 5 1 3 6
M  V30 6 1 4 7
M  V30 7 2 4 8
M  V30 8 1 5 9
M  V30 9 2 6 10
M  V30 10 1 6 11
M  V30 11 1 7 12
M  V30 12 1 7 13
M  V30 13 1 8 14
M  V30 14 1 10 15
M  V30 15 2 11 16
M  V30 16 2 15 17
M  V30 17 1 5 8
M  V30 18 1 16 17
M  V30 19 1 1 18
M  V30 20 1 9 19
M  V30 21 1 9 20
M  V30 22 1 9 21
M  V30 23 1 10 22
M  V30 24 1 11 23
M  V30 25 1 12 24
M  V30 26 1 12 25
M  V30 27 1 12 26
M  V30 28 1 13 27
M  V30 29 1 13 28
M  V30 30 1 13 29
M  V30 31 1 14 30
M  V30 32 1 14 31
M  V30 33 1 14 32
M  V30 34 1 15 33
M  V30 35 1 16 34
M  V30 36 1 17 35
M  V30 END BOND
M  V30 END CTAB
M  END
>  <NO.>
7573

>  <Name>


>  <SMILES>
Cc1c(N(C)C)c(=N)n(-c2ccccc2)n1C

>  <logBB>


>  <Class>
1

>  <MW>
230.15

>  <nHBAcc>
2

>  <nHBDon>
1

>  <SLogP>
1.67

>  <TopoPSA>
36.95

>  <MMFF94 Energy>
106.05

$$$$
Cc1cc(NC(=O)C2=C(O)c3ccccc3S(=O)(=O)[C@@H]2C)no1
Actelion Java MolfileCreator 2.0

  0  0  0  0  0  0              0 V3000
M  V30 BEGIN CTAB
M  V30 COUNTS 37 39 0 0 0
M  V30 BEGIN ATOM
M  V30 1 S 1.3893 2.2073 0.9805 0
M  V30 2 O 1.1758 3.4808 1.6425 0
M  V30 3 O 2.1451 2.1324 -0.256 0
M  V30 4 C 2.1629 1.1226 2.1359 0
M  V30 5 C -0.2012 1.4497 0.6976 0 CFG=1
M  V30 6 C 1.8326 -0.2386 2.1007 0
M  V30 7 C 3.0445 1.6541 3.0836 0
M  V30 8 C 0.0345 -0.0121 0.4161 0
M  V30 9 C -1.1682 1.6529 1.8609 0
M  V30 10 C 0.9083 -0.7925 1.0872 0
M  V30 11 C 2.4442 -1.0724 3.0488 0
M  V30 12 C 3.6314 0.8054 4.0172 0
M  V30 13 C -0.7633 -0.6505 -0.6642 0
M  V30 14 O 1.0249 -2.155 0.8902 0
M  V30 15 C 3.3328 -0.5557 3.9992 0
M  V30 16 O -1.2972 -1.7347 -0.4475 0
M  V30 17 N -0.7633 0.0399 -1.8449 0
M  V30 18 C -1.4572 -0.3341 -2.9758 0
M  V30 19 N -1.3464 0.4018 -4.0866 0
M  V30 20 C -2.3345 -1.4221 -3.1768 0
M  V30 21 O -2.149 -0.2087 -5.0322 0
M  V30 22 C -2.7395 -1.3019 -4.4828 0
M  V30 23 C -3.6351 -2.075 -5.3598 0
M  V30 24 H -0.6056 1.9736 -0.175 0
M  V30 25 H 3.2755 2.7174 3.0951 0
M  V30 26 H -2.1291 1.1669 1.6591 0
M  V30 27 H -1.3645 2.7184 2.0219 0
M  V30 28 H -0.7767 1.2486 2.8006 0
M  V30 29 H 2.2358 -2.1413 3.0575 0
M  V30 30 H 4.323 1.2019 4.757 0
M  V30 31 H 0.2433 -2.4755 0.3901 0
M  V30 32 H 3.7948 -1.2227 4.7238 0
M  V30 33 H -0.1679 0.845 -1.9958 0
M  V30 34 H -2.6326 -2.189 -2.478 0
M  V30 35 H -3.0893 -2.4501 -6.2309 0
M  V30 36 H -4.461 -1.4495 -5.7122 0
M  V30 37 H -4.0602 -2.9326 -4.8292 0
M  V30 END ATOM
M  V30 BEGIN BOND
M  V30 1 2 1 2
M  V30 2 2 1 3
M  V30 3 1 1 4
M  V30 4 1 1 5
M  V30 5 2 4 6
M  V30 6 1 4 7
M  V30 7 1 5 8
M  V30 8 1 5 9
M  V30 9 1 6 10
M  V30 10 1 6 11
M  V30 11 2 7 12
M  V30 12 1 8 13
M  V30 13 1 10 14
M  V30 14 2 11 15
M  V30 15 2 13 16
M  V30 16 1 13 17
M  V30 17 1 17 18
M  V30 18 2 18 19
M  V30 19 1 18 20
M  V30 20 1 19 21
M  V30 21 2 20 22
M  V30 22 1 22 23
M  V30 23 2 8 10
M  V30 24 1 12 15
M  V30 25 1 21 22
M  V30 26 1 5 24
M  V30 27 1 7 25
M  V30 28 1 9 26
M  V30 29 1 9 27
M  V30 30 1 9 28
M  V30 31 1 11 29
M  V30 32 1 12 30
M  V30 33 1 14 31
M  V30 34 1 15 32
M  V30 35 1 17 33
M  V30 36 1 20 34
M  V30 37 1 23 35
M  V30 38 1 23 36
M  V30 39 1 23 37
M  V30 END BOND
M  V30 BEGIN COLLECTION
M  V30 MDLV30/STEABS ATOMS=(1 5)
M  V30 END COLLECTION
M  V30 END CTAB
M  END
>  <NO.>
7576

>  <Name>


>  <SMILES>
Cc1cc(NC(=O)C2=C(O)c3ccccc3S(=O)(=O)[C@@H]2C)no1

>  <logBB>


>  <Class>
1

>  <MW>
334.06

>  <nHBAcc>
6

>  <nHBDon>
2

>  <SLogP>
2.07

>  <TopoPSA>
109.5

>  <MMFF94 Energy>
-16.592

$$$$
Cc1cc(NS(=O)(=O)c2ccc(N)cc2)nc(C)n1
Actelion Java MolfileCreator 2.0

  0  0  0  0  0  0              0 V3000
M  V30 BEGIN CTAB
M  V30 COUNTS 33 34 0 0 0
M  V30 BEGIN ATOM
M  V30 1 S -2.653 0.9641 0.0803 0
M  V30 2 O -3.8974 0.8048 0.8032 0
M  V30 3 O -2.6151 1.6519 -1.1937 0
M  V30 4 N -1.5729 1.7086 1.1395 0
M  V30 5 C -1.9606 -0.6588 -0.1454 0
M  V30 6 C -0.2285 1.7655 0.7195 0
M  V30 7 C -1.2069 -0.9446 -1.2851 0
M  V30 8 C -2.2036 -1.6472 0.8104 0
M  V30 9 N 0.5555 0.9511 1.432 0
M  V30 10 C 0.1898 2.5534 -0.323 0
M  V30 11 C -0.6707 -2.2243 -1.45 0
M  V30 12 C -1.6628 -2.923 0.6308 0
M  V30 13 C 1.8415 0.9127 1.0486 0
M  V30 14 C 1.5273 2.4594 -0.6311 0
M  V30 15 C -0.9026 -3.2263 -0.5027 0
M  V30 16 N 2.3635 1.6438 0.0449 0
M  V30 17 C 2.7684 0.0222 1.8146 0
M  V30 18 C 2.1054 3.27 -1.751 0
M  V30 19 N -0.3388 -4.4792 -0.6546 0
M  V30 20 H -1.646 1.3048 2.0712 0
M  V30 21 H -1.0237 -0.1852 -2.0412 0
M  V30 22 H -2.8054 -1.4379 1.6914 0
M  V30 23 H -0.4856 3.2027 -0.8633 0
M  V30 24 H -0.0702 -2.4348 -2.3313 0
M  V30 25 H -1.8446 -3.6844 1.3851 0
M  V30 26 H 3.1593 0.5581 2.6843 0
M  V30 27 H 2.2424 -0.8737 2.158 0
M  V30 28 H 3.6078 -0.2929 1.1874 0
M  V30 29 H 3.1784 3.08 -1.856 0
M  V30 30 H 1.6191 3.0097 -2.6963 0
M  V30 31 H 1.9661 4.338 -1.5567 0
M  V30 32 H -0.5663 -5.2241 -0.0105 0
M  V30 33 H 0.1504 -4.7193 -1.5059 0
M  V30 END ATOM
M  V30 BEGIN BOND
M  V30 1 2 1 2
M  V30 2 2 1 3
M  V30 3 1 1 4
M  V30 4 1 1 5
M  V30 5 1 4 6
M  V30 6 2 5 7
M  V30 7 1 5 8
M  V30 8 2 6 9
M  V30 9 1 6 10
M  V30 10 1 7 11
M  V30 11 2 8 12
M  V30 12 1 9 13
M  V30 13 2 10 14
M  V30 14 2 11 15
M  V30 15 2 13 16
M  V30 16 1 13 17
M  V30 17 1 14 18
M  V30 18 1 15 19
M  V30 19 1 12 15
M  V30 20 1 14 16
M  V30 21 1 4 20
M  V30 22 1 7 21
M  V30 23 1 8 22
M  V30 24 1 10 23
M  V30 25 1 11 24
M  V30 26 1 12 25
M  V30 27 1 17 26
M  V30 28 1 17 27
M  V30 29 1 17 28
M  V30 30 1 18 29
M  V30 31 1 18 30
M  V30 32 1 18 31
M  V30 33 1 19 32
M  V30 34 1 19 33
M  V30 END BOND
M  V30 END CTAB
M  END
>  <NO.>
7577

>  <Name>
sulfisomidine

>  <SMILES>
Cc1cc(NS(=O)(=O)c2ccc(N)cc2)nc(C)n1

>  <logBB>


>  <Class>
1

>  <MW>
278.08

>  <nHBAcc>
5

>  <nHBDon>
2

>  <SLogP>
1.48

>  <TopoPSA>
97.97

>  <MMFF94 Energy>
-99.971

$$$$
Cc1ccc(-c2c(-c3ccc(S(C)(=O)=O)cc3)cc(Cl)c[n+]2[O-])cn1
Actelion Java MolfileCreator 2.0

  0  0  0  0  0  0              0 V3000
M  V30 BEGIN CTAB
M  V30 COUNTS 40 42 0 0 0
M  V30 BEGIN ATOM
M  V30 1 Cl -2.2237 4.4511 3.5432 0
M  V30 2 C -1.1498 3.5986 2.5094 0
M  V30 3 C 0.0807 4.1412 2.1944 0
M  V30 4 C -1.5135 2.3634 1.9957 0
M  V30 5 N 0.9692 3.4787 1.3648 0 CHG=1
M  V30 6 C -0.6445 1.6536 1.152 0
M  V30 7 O 2.0881 4.0393 1.119 0 CHG=-1
M  V30 8 C 0.6161 2.2269 0.8248 0
M  V30 9 C -1.0715 0.3317 0.6579 0
M  V30 10 C 1.5843 1.5793 -0.075 0
M  V30 11 C -0.4126 -0.8402 1.0686 0
M  V30 12 C -2.1521 0.2157 -0.2345 0
M  V30 13 C 1.2946 1.3431 -1.418 0
M  V30 14 C 2.8414 1.1552 0.3686 0
M  V30 15 C -0.8145 -2.0929 0.5984 0
M  V30 16 C -2.5611 -1.0333 -0.7088 0
M  V30 17 N 2.1242 0.7264 -2.2936 0
M  V30 18 C 3.7221 0.5251 -0.5102 0
M  V30 19 C -1.8958 -2.1822 -0.2788 0
M  V30 20 C 3.3288 0.3262 -1.8286 0
M  V30 21 S -2.401 -3.7728 -0.891 0
M  V30 22 C 4.2529 -0.3464 -2.7981 0
M  V30 23 O -3.0944 -3.5583 -2.1466 0
M  V30 24 O -1.2546 -4.6572 -0.8114 0
M  V30 25 C -3.5922 -4.3073 0.3093 0
M  V30 26 H 0.4522 5.0915 2.5471 0
M  V30 27 H -2.4806 1.9372 2.2619 0
M  V30 28 H 0.4326 -0.786 1.753 0
M  V30 29 H -2.6752 1.1046 -0.5842 0
M  V30 30 H 0.3477 1.6515 -1.8539 0
M  V30 31 H 3.1526 1.3297 1.3961 0
M  V30 32 H -0.2729 -2.9833 0.9112 0
M  V30 33 H -3.3845 -1.0966 -1.4175 0
M  V30 34 H 4.701 0.206 -0.1678 0
M  V30 35 H 4.4978 -1.3544 -2.4497 0
M  V30 36 H 3.7878 -0.4308 -3.7855 0
M  V30 37 H 5.1757 0.2322 -2.9041 0
M  V30 38 H -4.418 -3.5936 0.3352 0
M  V30 39 H -3.1088 -4.3774 1.2856 0
M  V30 40 H -3.9606 -5.2898 0.0066 0
M  V30 END ATOM
M  V30 BEGIN BOND
M  V30 1 1 1 2
M  V30 2 2 2 3
M  V30 3 1 2 4
M  V30 4 1 3 5
M  V30 5 2 4 6
M  V30 6 1 5 7
M  V30 7 2 5 8
M  V30 8 1 6 9
M  V30 9 1 8 10
M  V30 10 2 9 11
M  V30 11 1 9 12
M  V30 12 2 10 13
M  V30 13 1 10 14
M  V30 14 1 11 15
M  V30 15 2 12 16
M  V30 16 1 13 17
M  V30 17 2 14 18
M  V30 18 2 15 19
M  V30 19 2 17 20
M  V30 20 1 19 21
M  V30 21 1 20 22
M  V30 22 2 21 23
M  V30 23 2 21 24
M  V30 24 1 21 25
M  V30 25 1 6 8
M  V30 26 1 16 19
M  V30 27 1 18 20
M  V30 28 1 3 26
M  V30 29 1 4 27
M  V30 30 1 11 28
M  V30 31 1 12 29
M  V30 32 1 13 30
M  V30 33 1 14 31
M  V30 34 1 15 32
M  V30 35 1 16 33
M  V30 36 1 18 34
M  V30 37 1 22 35
M  V30 38 1 22 36
M  V30 39 1 22 37
M  V30 40 1 25 38
M  V30 41 1 25 39
M  V30 42 1 25 40
M  V30 END BOND
M  V30 END CTAB
M  END
>  <NO.>
7580

>  <Name>
2-(6-methyl-3-pyridyl)-3-[4-(methylsulfonyl)phenyl]-5-chloropyridine 1-oxide

>  <SMILES>
Cc1ccc(-c2c(-c3ccc(S(C)(=O)=O)cc3)cc(Cl)c[n+]2[O-])cn1

>  <logBB>


>  <Class>
1

>  <MW>
374.05

>  <nHBAcc>
4

>  <nHBDon>
0

>  <SLogP>
3.41

>  <TopoPSA>
73.97

>  <MMFF94 Energy>
84.215

$$$$
Cc1ccc(S(=O)(=O)NC(=O)NN2C[C@H]3CCC[C@H]3C2)cc1
Actelion Java MolfileCreator 2.0

  0  0  0  0  0  0              0 V3000
M  V30 BEGIN CTAB
M  V30 COUNTS 43 45 0 0 0
M  V30 BEGIN ATOM
M  V30 1 S 0.2419 2.9866 1.21 0
M  V30 2 O 1.6111 2.9911 1.687 0
M  V30 3 O -0.3461 4.1867 0.6573 0
M  V30 4 N 0.15 1.7664 0.1118 0
M  V30 5 C -0.7772 2.4056 2.5425 0
M  V30 6 C -0.9756 1.3493 -0.5781 0
M  V30 7 C -2.1162 2.7954 2.6123 0
M  V30 8 C -0.2179 1.6012 3.5391 0
M  V30 9 O -2.089 1.8365 -0.45 0
M  V30 10 N -0.7412 0.2962 -1.4345 0
M  V30 11 C -2.9068 2.357 3.676 0
M  V30 12 C -1.0135 1.1678 4.6016 0
M  V30 13 N 0.5339 -0.2864 -1.5761 0
M  V30 14 C -2.3597 1.5504 4.6834 0
M  V30 15 C 1.057 -0.1254 -2.9406 0
M  V30 16 C 0.4979 -1.7402 -1.3665 0
M  V30 17 C -3.2211 1.0573 5.8092 0
M  V30 18 C 2.2123 -1.1241 -2.9763 0 CFG=1
M  V30 19 C 1.8421 -2.1939 -1.9328 0 CFG=2
M  V30 20 C 2.3625 -1.861 -4.3055 0
M  V30 21 C 1.7885 -3.5213 -2.6862 0
M  V30 22 C 1.5326 -3.1268 -4.1351 0
M  V30 23 H 0.9996 1.2416 -0.0682 0
M  V30 24 H -2.5514 3.4258 1.8388 0
M  V30 25 H 0.8295 1.312 3.4983 0
M  V30 26 H -1.5406 -0.0364 -1.9645 0
M  V30 27 H -3.9535 2.6525 3.7149 0
M  V30 28 H -0.5755 0.5354 5.3711 0
M  V30 29 H 0.2946 -0.3638 -3.6939 0
M  V30 30 H 1.4073 0.8967 -3.118 0
M  V30 31 H 0.4075 -1.9902 -0.3041 0
M  V30 32 H -0.3415 -2.2034 -1.9015 0
M  V30 33 H -2.6294 0.9123 6.7192 0
M  V30 34 H -4.0075 1.782 6.0457 0
M  V30 35 H -3.687 0.1061 5.5343 0
M  V30 36 H 3.1482 -0.6224 -2.7013 0
M  V30 37 H 2.5914 -2.2303 -1.1327 0
M  V30 38 H 3.4143 -2.1347 -4.4544 0
M  V30 39 H 2.0468 -1.2668 -5.1683 0
M  V30 40 H 1.0299 -4.2085 -2.2996 0
M  V30 41 H 2.7618 -4.022 -2.6136 0
M  V30 42 H 0.4691 -2.9111 -4.2909 0
M  V30 43 H 1.8282 -3.9126 -4.836 0
M  V30 END ATOM
M  V30 BEGIN BOND
M  V30 1 2 1 2
M  V30 2 2 1 3
M  V30 3 1 1 4
M  V30 4 1 1 5
M  V30 5 1 4 6
M  V30 6 2 5 7
M  V30 7 1 5 8
M  V30 8 2 6 9
M  V30 9 1 6 10
M  V30 10 1 7 11
M  V30 11 2 8 12
M  V30 12 1 10 13
M  V30 13 2 11 14
M  V30 14 1 13 15
M  V30 15 1 13 16
M  V30 16 1 14 17
M  V30 17 1 15 18
M  V30 18 1 16 19
M  V30 19 1 18 20
M  V30 20 1 19 21
M  V30 21 1 20 22
M  V30 22 1 12 14
M  V30 23 1 18 19
M  V30 24 1 21 22
M  V30 25 1 4 23
M  V30 26 1 7 24
M  V30 27 1 8 25
M  V30 28 1 10 26
M  V30 29 1 11 27
M  V30 30 1 12 28
M  V30 31 1 15 29
M  V30 32 1 15 30
M  V30 33 1 16 31
M  V30 34 1 16 32
M  V30 35 1 17 33
M  V30 36 1 17 34
M  V30 37 1 17 35
M  V30 38 1 18 36
M  V30 39 1 19 37
M  V30 40 1 20 38
M  V30 41 1 20 39
M  V30 42 1 21 40
M  V30 43 1 21 41
M  V30 44 1 22 42
M  V30 45 1 22 43
M  V30 END BOND
M  V30 BEGIN COLLECTION
M  V30 MDLV30/STEABS ATOMS=(2 18 19)
M  V30 END COLLECTION
M  V30 END CTAB
M  END
>  <NO.>
7583

>  <Name>
unii-g4px8c4hkv

>  <SMILES>
Cc1ccc(S(=O)(=O)NC(=O)NN2C[C@H]3CCC[C@H]3C2)cc1

>  <logBB>


>  <Class>
1

>  <MW>
323.13

>  <nHBAcc>
4

>  <nHBDon>
2

>  <SLogP>
1.63

>  <TopoPSA>
78.51

>  <MMFF94 Energy>
-78.942

$$$$
Cc1ccc(S(=O)(=O)NC(=O)N[C@@H]2[C@H]3CC[C@](C)([C@H]2O)C3(C)C)cc1
Actelion Java MolfileCreator 2.0

  0  0  0  0  0  0              0 V3000
M  V30 BEGIN CTAB
M  V30 COUNTS 51 53 0 0 0
M  V30 BEGIN ATOM
M  V30 1 S -2.1745 -1.6104 2.9808 0
M  V30 2 O -1.1279 -2.4667 3.4904 0
M  V30 3 O -3.1436 -1.0157 3.881 0
M  V30 4 N -1.501 -0.3249 2.1709 0
M  V30 5 C -3.0806 -2.4681 1.7204 0
M  V30 6 C -0.5601 -0.4275 1.1641 0
M  V30 7 C -4.3935 -2.085 1.4319 0
M  V30 8 C -2.4976 -3.5535 1.0639 0
M  V30 9 O -0.1514 -1.4863 0.7199 0
M  V30 10 N -0.1521 0.7942 0.714 0
M  V30 11 C -5.1166 -2.7804 0.4609 0
M  V30 12 C -3.2249 -4.2429 0.0922 0
M  V30 13 C 0.8632 0.922 -0.317 0 CFG=1
M  V30 14 C -4.5418 -3.8693 -0.2085 0
M  V30 15 C 0.8843 2.3216 -0.9942 0 CFG=2
M  V30 16 C 2.3207 0.7834 0.2067 0 CFG=2
M  V30 17 C -5.3089 -4.5951 -1.2748 0
M  V30 18 O 0.423 2.2674 -2.3362 0
M  V30 19 C 2.3885 2.7325 -0.889 0 CFG=2
M  V30 20 C 3.1606 1.376 -0.9608 0
M  V30 21 C 2.5415 1.8099 1.3442 0
M  V30 22 C 2.5917 3.1523 0.5952 0
M  V30 23 C 2.8174 3.8081 -1.8698 0
M  V30 24 C 3.0446 0.6036 -2.2898 0
M  V30 25 C 4.6742 1.4627 -0.6648 0
M  V30 26 H -1.8678 0.5639 2.4785 0
M  V30 27 H -4.8614 -1.2561 1.9577 0
M  V30 28 H -1.4773 -3.8572 1.2916 0
M  V30 29 H -0.4885 1.6198 1.1837 0
M  V30 30 H -6.1359 -2.4742 0.2342 0
M  V30 31 H -2.7566 -5.0768 -0.4269 0
M  V30 32 H 0.655 0.1408 -1.0574 0
M  V30 33 H 0.2425 3.0422 -0.4739 0
M  V30 34 H 2.5799 -0.2374 0.4988 0
M  V30 35 H -5.0056 -5.646 -1.3273 0
M  V30 36 H -6.3834 -4.5778 -1.0634 0
M  V30 37 H -5.1318 -4.126 -2.2474 0
M  V30 38 H -0.4562 1.8502 -2.3323 0
M  V30 39 H 1.7538 1.7967 2.1031 0
M  V30 40 H 3.4857 1.6235 1.8672 0
M  V30 41 H 3.5521 3.6536 0.7577 0
M  V30 42 H 1.8119 3.8371 0.9469 0
M  V30 43 H 2.207 4.7095 -1.7479 0
M  V30 44 H 2.7166 3.4735 -2.907 0
M  V30 45 H 3.863 4.0937 -1.7148 0
M  V30 46 H 3.4716 -0.4004 -2.1827 0
M  V30 47 H 2.0279 0.4696 -2.6598 0
M  V30 48 H 3.5991 1.1162 -3.0842 0
M  V30 49 H 5.095 0.4578 -0.5426 0
M  V30 50 H 5.2031 1.9458 -1.4944 0
M  V30 51 H 4.9339 2.0228 0.2354 0
M  V30 END ATOM
M  V30 BEGIN BOND
M  V30 1 2 1 2
M  V30 2 2 1 3
M  V30 3 1 1 4
M  V30 4 1 1 5
M  V30 5 1 4 6
M  V30 6 2 5 7
M  V30 7 1 5 8
M  V30 8 2 6 9
M  V30 9 1 6 10
M  V30 10 1 7 11
M  V30 11 2 8 12
M  V30 12 1 10 13
M  V30 13 2 11 14
M  V30 14 1 13 15
M  V30 15 1 13 16
M  V30 16 1 14 17
M  V30 17 1 15 18
M  V30 18 1 15 19
M  V30 19 1 16 20
M  V30 20 1 16 21
M  V30 21 1 19 22
M  V30 22 1 19 23
M  V30 23 1 20 24
M  V30 24 1 20 25
M  V30 25 1 12 14
M  V30 26 1 19 20
M  V30 27 1 21 22
M  V30 28 1 4 26
M  V30 29 1 7 27
M  V30 30 1 8 28
M  V30 31 1 10 29
M  V30 32 1 11 30
M  V30 33 1 12 31
M  V30 34 1 13 32
M  V30 35 1 15 33
M  V30 36 1 16 34
M  V30 37 1 17 35
M  V30 38 1 17 36
M  V30 39 1 17 37
M  V30 40 1 18 38
M  V30 41 1 21 39
M  V30 42 1 21 40
M  V30 43 1 22 41
M  V30 44 1 22 42
M  V30 45 1 23 43
M  V30 46 1 23 44
M  V30 47 1 23 45
M  V30 48 1 24 46
M  V30 49 1 24 47
M  V30 50 1 24 48
M  V30 51 1 25 49
M  V30 52 1 25 50
M  V30 53 1 25 51
M  V30 END BOND
M  V30 BEGIN COLLECTION
M  V30 MDLV30/STEABS ATOMS=(4 13 15 16 19)
M  V30 END COLLECTION
M  V30 END CTAB
M  END
>  <NO.>
7584

>  <Name>


>  <SMILES>
Cc1ccc(S(=O)(=O)NC(=O)N[C@@H]2[C@H]3CC[C@](C)([C@H]2O)C3(C)C)cc1

>  <logBB>


>  <Class>
1

>  <MW>
366.16

>  <nHBAcc>
4

>  <nHBDon>
3

>  <SLogP>
2.17

>  <TopoPSA>
95.5

>  <MMFF94 Energy>
-83.334

$$$$
Cc1cnc(C[S+]([O-])c2nc3ccccc3[nH]2)cc1OCC(F)(F)F
Actelion Java MolfileCreator 2.0

  0  0  0  0  0  0              0 V3000
M  V30 BEGIN CTAB
M  V30 COUNTS 39 41 0 0 0
M  V30 BEGIN ATOM
M  V30 1 S 0.7383 -1.395 -0.4921 0 CFG=2
M  V30 2 O -0.1366 -0.8767 -1.602 0
M  V30 3 C -0.1375 -2.8315 0.1534 0
M  V30 4 C 0.5208 -0.3401 0.9734 0
M  V30 5 N 0.0077 -3.3307 1.3606 0
M  V30 6 N -1.0546 -3.5342 -0.5795 0
M  V30 7 C 1.1195 1.0262 0.7608 0
M  V30 8 C -0.8502 -4.4037 1.4072 0
M  V30 9 C -1.5316 -4.5524 0.2025 0
M  V30 10 N 2.266 1.3064 1.4233 0
M  V30 11 C 0.5047 1.948 -0.0864 0
M  V30 12 C -1.1052 -5.3024 2.4528 0
M  V30 13 C -2.4705 -5.5591 -0.0292 0
M  V30 14 C 2.8069 2.5313 1.2424 0
M  V30 15 C 1.0917 3.1984 -0.2705 0
M  V30 16 C -2.0422 -6.3232 2.2472 0
M  V30 17 C -2.7114 -6.4462 1.0265 0
M  V30 18 C 2.2676 3.5107 0.4188 0
M  V30 19 O 0.5971 4.1836 -1.0834 0
M  V30 20 C 2.9413 4.841 0.2718 0
M  V30 21 C -0.4489 3.8218 -1.9938 0
M  V30 22 C -0.7605 4.9787 -2.9307 0
M  V30 23 F -1.1763 6.0733 -2.2557 0
M  V30 24 F 0.3116 5.3275 -3.6749 0
M  V30 25 F -1.7519 4.6353 -3.788 0
M  V30 26 H -0.5469 -0.249 1.2008 0
M  V30 27 H 1.0121 -0.8275 1.8224 0
M  V30 28 H -1.3281 -3.31 -1.5259 0
M  V30 29 H -0.4136 1.663 -0.5869 0
M  V30 30 H -0.5834 -5.2024 3.3981 0
M  V30 31 H -2.9904 -5.6565 -0.9761 0
M  V30 32 H 3.7232 2.7055 1.8011 0
M  V30 33 H -2.2495 -7.0277 3.0495 0
M  V30 34 H -3.4346 -7.2488 0.8936 0
M  V30 35 H 3.2652 4.9896 -0.7632 0
M  V30 36 H 3.8263 4.9162 0.9125 0
M  V30 37 H 2.2581 5.6476 0.5574 0
M  V30 38 H -1.3565 3.5761 -1.4308 0
M  V30 39 H -0.1414 2.9591 -2.5964 0
M  V30 END ATOM
M  V30 BEGIN BOND
M  V30 1 2 1 2
M  V30 2 1 1 3
M  V30 3 1 1 4
M  V30 4 2 3 5
M  V30 5 1 3 6
M  V30 6 1 4 7
M  V30 7 1 5 8
M  V30 8 1 6 9
M  V30 9 2 7 10
M  V30 10 1 7 11
M  V30 11 1 8 12
M  V30 12 1 9 13
M  V30 13 1 10 14
M  V30 14 2 11 15
M  V30 15 2 12 16
M  V30 16 2 13 17
M  V30 17 2 14 18
M  V30 18 1 15 19
M  V30 19 1 18 20
M  V30 20 1 19 21
M  V30 21 1 21 22
M  V30 22 1 22 23
M  V30 23 1 22 24
M  V30 24 1 22 25
M  V30 25 2 8 9
M  V30 26 1 15 18
M  V30 27 1 16 17
M  V30 28 1 4 26
M  V30 29 1 4 27
M  V30 30 1 6 28
M  V30 31 1 11 29
M  V30 32 1 12 30
M  V30 33 1 13 31
M  V30 34 1 14 32
M  V30 35 1 16 33
M  V30 36 1 17 34
M  V30 37 1 20 35
M  V30 38 1 20 36
M  V30 39 1 20 37
M  V30 40 1 21 38
M  V30 41 1 21 39
M  V30 END BOND
M  V30 BEGIN COLLECTION
M  V30 MDLV30/STERAC1 ATOMS=(1 1)
M  V30 END COLLECTION
M  V30 END CTAB
M  END
>  <NO.>
7592

>  <Name>
schembl6439453

>  <SMILES>
Cc1cnc(C[S+]([O-])c2nc3ccccc3[nH]2)cc1OCC(F)(F)F

>  <logBB>


>  <Class>
1

>  <MW>
369.08

>  <nHBAcc>
4

>  <nHBDon>
1

>  <SLogP>
3.52

>  <TopoPSA>
73.86

>  <MMFF94 Energy>
64.996

$$$$
Cc1nc(NCc2cccnc2)c(C#N)c(=O)[nH]1
Actelion Java MolfileCreator 2.0

  0  0  0  0  0  0              0 V3000
M  V30 BEGIN CTAB
M  V30 COUNTS 29 30 0 0 0
M  V30 BEGIN ATOM
M  V30 1 O -0.4748 0.8706 3.8033 0
M  V30 2 C -0.9309 0.397 2.7675 0
M  V30 3 N -2.2502 0.5359 2.4665 0
M  V30 4 C -0.1119 -0.3496 1.7873 0
M  V30 5 C -2.7795 0.0032 1.3381 0
M  V30 6 C 1.2547 -0.5406 2.1075 0
M  V30 7 C -0.7257 -0.8291 0.679 0
M  V30 8 N -2.0814 -0.6529 0.4749 0
M  V30 9 C -4.251 0.2089 1.1244 0
M  V30 10 N 2.3743 -0.7276 2.3568 0
M  V30 11 N -0.1286 -1.5368 -0.3491 0
M  V30 12 C 1.2462 -1.6907 -0.7732 0
M  V30 13 C 1.806 -0.4163 -1.3439 0
M  V30 14 C 3.0969 -0.0034 -1.0265 0
M  V30 15 C 1.0944 0.3702 -2.2578 0
M  V30 16 N 3.6889 1.1033 -1.5332 0
M  V30 17 C 1.6754 1.5181 -2.7892 0
M  V30 18 C 2.9632 1.8402 -2.3992 0
M  V30 19 H -2.8103 1.0467 3.1342 0
M  V30 20 H -4.7021 0.7869 1.9351 0
M  V30 21 H -4.4059 0.7367 0.1788 0
M  V30 22 H -4.7439 -0.7656 1.0622 0
M  V30 23 H -0.8268 -1.8446 -1.0214 0
M  V30 24 H 1.8629 -2.0879 0.0378 0
M  V30 25 H 1.2813 -2.4495 -1.5648 0
M  V30 26 H 3.7175 -0.5642 -0.3306 0
M  V30 27 H 0.0852 0.0954 -2.5541 0
M  V30 28 H 1.1375 2.1438 -3.4921 0
M  V30 29 H 3.4617 2.7244 -2.7854 0
M  V30 END ATOM
M  V30 BEGIN BOND
M  V30 1 2 1 2
M  V30 2 1 2 3
M  V30 3 1 2 4
M  V30 4 1 3 5
M  V30 5 1 4 6
M  V30 6 2 4 7
M  V30 7 2 5 8
M  V30 8 1 5 9
M  V30 9 3 6 10
M  V30 10 1 7 11
M  V30 11 1 11 12
M  V30 12 1 12 13
M  V30 13 2 13 14
M  V30 14 1 13 15
M  V30 15 1 14 16
M  V30 16 2 15 17
M  V30 17 2 16 18
M  V30 18 1 7 8
M  V30 19 1 17 18
M  V30 20 1 3 19
M  V30 21 1 9 20
M  V30 22 1 9 21
M  V30 23 1 9 22
M  V30 24 1 11 23
M  V30 25 1 12 24
M  V30 26 1 12 25
M  V30 27 1 14 26
M  V30 28 1 15 27
M  V30 29 1 17 28
M  V30 30 1 18 29
M  V30 END BOND
M  V30 END CTAB
M  END
>  <NO.>
7594

>  <Name>
pelrinone

>  <SMILES>
Cc1nc(NCc2cccnc2)c(C#N)c(=O)[nH]1

>  <logBB>


>  <Class>
1

>  <MW>
241.1

>  <nHBAcc>
5

>  <nHBDon>
2

>  <SLogP>
0.96

>  <TopoPSA>
94.46

>  <MMFF94 Energy>
-51.148

$$$$
Cc1nsc(NS(=O)(=O)c2ccc(N)cc2)c1C
Actelion Java MolfileCreator 2.0

  0  0  0  0  0  0              0 V3000
M  V30 BEGIN CTAB
M  V30 COUNTS 31 32 0 0 0
M  V30 BEGIN ATOM
M  V30 1 S -0.4106 -2.795 0.9858 0
M  V30 2 O 0.358 -3.941 0.5454 0
M  V30 3 O -1.6576 -2.9567 1.7003 0
M  V30 4 N 0.6481 -1.8581 1.9118 0
M  V30 5 C -0.7108 -1.7887 -0.4506 0
M  V30 6 C 0.2622 -0.471 2.1406 0
M  V30 7 C -1.8701 -1.0162 -0.5345 0
M  V30 8 C 0.2108 -1.7997 -1.5001 0
M  V30 9 S -1.0538 0.0288 3.0986 0
M  V30 10 C 0.9373 0.6337 1.6573 0
M  V30 11 C -2.0851 -0.2219 -1.6637 0
M  V30 12 C -0.0198 -1.004 -2.6252 0
M  V30 13 N -0.8198 1.6503 2.8727 0
M  V30 14 C 0.2561 1.8305 2.1063 0
M  V30 15 C 2.1511 0.6427 0.7928 0
M  V30 16 C -1.1733 -0.2199 -2.7236 0
M  V30 17 C 0.6561 3.2295 1.7798 0
M  V30 18 N -1.3691 0.6056 -3.8155 0
M  V30 19 H 1.6198 -2.0552 1.6856 0
M  V30 20 H -2.6019 -1.0131 0.2703 0
M  V30 21 H 1.1036 -2.4181 -1.4541 0
M  V30 22 H -2.9794 0.3948 -1.7103 0
M  V30 23 H 0.7073 -1.0064 -3.4332 0
M  V30 24 H 2.4666 -0.3644 0.5076 0
M  V30 25 H 1.9572 1.2014 -0.1286 0
M  V30 26 H 2.9853 1.1194 1.3177 0
M  V30 27 H 1.6852 3.4164 2.1026 0
M  V30 28 H 0.5936 3.3991 0.7002 0
M  V30 29 H 0.0101 3.9624 2.2749 0
M  V30 30 H -0.7703 0.529 -4.6262 0
M  V30 31 H -2.2444 1.1013 -3.923 0
M  V30 END ATOM
M  V30 BEGIN BOND
M  V30 1 2 1 2
M  V30 2 2 1 3
M  V30 3 1 1 4
M  V30 4 1 1 5
M  V30 5 1 4 6
M  V30 6 2 5 7
M  V30 7 1 5 8
M  V30 8 1 6 9
M  V30 9 2 6 10
M  V30 10 1 7 11
M  V30 11 2 8 12
M  V30 12 1 9 13
M  V30 13 1 10 14
M  V30 14 1 10 15
M  V30 15 2 11 16
M  V30 16 1 14 17
M  V30 17 1 16 18
M  V30 18 1 12 16
M  V30 19 2 13 14
M  V30 20 1 4 19
M  V30 21 1 7 20
M  V30 22 1 8 21
M  V30 23 1 11 22
M  V30 24 1 12 23
M  V30 25 1 15 24
M  V30 26 1 15 25
M  V30 27 1 15 26
M  V30 28 1 17 27
M  V30 29 1 17 28
M  V30 30 1 17 29
M  V30 31 1 18 30
M  V30 32 1 18 31
M  V30 END BOND
M  V30 END CTAB
M  END
>  <NO.>
7596

>  <Name>


>  <SMILES>
Cc1nsc(NS(=O)(=O)c2ccc(N)cc2)c1C

>  <logBB>


>  <Class>
1

>  <MW>
283.04

>  <nHBAcc>
5

>  <nHBDon>
2

>  <SLogP>
2.14

>  <TopoPSA>
85.08

>  <MMFF94 Energy>
-21.87

$$$$
Cn1c2c(c3ccccc31)C(=O)[C@@H](Cn1ccnc1)CC2
Actelion Java MolfileCreator 2.0

  0  0  0  0  0  0              0 V3000
M  V30 BEGIN CTAB
M  V30 COUNTS 38 41 0 0 0
M  V30 BEGIN ATOM
M  V30 1 O -0.6408 -1.8433 -0.6408 0
M  V30 2 C -0.3668 -0.8195 -0.0208 0
M  V30 3 C 0.7625 0.0279 -0.3884 0
M  V30 4 C -1.2169 -0.3205 1.1619 0 CFG=2
M  V30 5 C 1.6694 -0.0535 -1.4803 0
M  V30 6 C 1.1322 1.1149 0.3826 0
M  V30 7 C -0.3204 0.3585 2.2246 0
M  V30 8 C -2.002 -1.479 1.7909 0
M  V30 9 C 2.5662 1.0143 -1.3528 0
M  V30 10 C 1.815 -0.9369 -2.57 0
M  V30 11 N 2.2016 1.7242 -0.2222 0
M  V30 12 C 0.4724 1.5427 1.6472 0
M  V30 13 N -3.3466 -1.5943 1.2531 0
M  V30 14 C 3.6063 1.2203 -2.2751 0
M  V30 15 C 2.8458 -0.7362 -3.4928 0
M  V30 16 C 2.8683 2.9229 0.24 0
M  V30 17 C -4.4551 -0.9644 1.7445 0
M  V30 18 C -3.7415 -2.3614 0.1959 0
M  V30 19 C 3.7287 0.328 -3.3443 0
M  V30 20 N -5.5281 -1.2713 1.0516 0
M  V30 21 C -5.0945 -2.1415 0.0841 0
M  V30 22 H -1.9056 0.4345 0.7585 0
M  V30 23 H 0.3833 -0.3808 2.6309 0
M  V30 24 H -0.9303 0.7164 3.0627 0
M  V30 25 H -2.1255 -1.3316 2.8712 0
M  V30 26 H -1.5086 -2.4489 1.6591 0
M  V30 27 H 1.1299 -1.7723 -2.6918 0
M  V30 28 H -0.2051 2.3789 1.4397 0
M  V30 29 H 1.2083 1.8776 2.386 0
M  V30 30 H 4.3028 2.0459 -2.172 0
M  V30 31 H 2.9549 -1.4199 -4.3308 0
M  V30 32 H 3.7584 2.6219 0.7975 0
M  V30 33 H 3.1413 3.5374 -0.6214 0
M  V30 34 H 2.1947 3.4976 0.8796 0
M  V30 35 H -4.4283 -0.2989 2.5974 0
M  V30 36 H -3.0556 -2.9709 -0.377 0
M  V30 37 H 4.5257 0.4691 -4.0705 0
M  V30 38 H -5.7779 -2.5638 -0.6408 0
M  V30 END ATOM
M  V30 BEGIN BOND
M  V30 1 2 1 2
M  V30 2 1 2 3
M  V30 3 1 2 4
M  V30 4 1 3 5
M  V30 5 2 3 6
M  V30 6 1 4 7
M  V30 7 1 4 8
M  V30 8 2 5 9
M  V30 9 1 5 10
M  V30 10 1 6 11
M  V30 11 1 6 12
M  V30 12 1 8 13
M  V30 13 1 9 14
M  V30 14 2 10 15
M  V30 15 1 11 16
M  V30 16 1 13 17
M  V30 17 1 13 18
M  V30 18 2 14 19
M  V30 19 2 17 20
M  V30 20 2 18 21
M  V30 21 1 7 12
M  V30 22 1 9 11
M  V30 23 1 15 19
M  V30 24 1 20 21
M  V30 25 1 4 22
M  V30 26 1 7 23
M  V30 27 1 7 24
M  V30 28 1 8 25
M  V30 29 1 8 26
M  V30 30 1 10 27
M  V30 31 1 12 28
M  V30 32 1 12 29
M  V30 33 1 14 30
M  V30 34 1 15 31
M  V30 35 1 16 32
M  V30 36 1 16 33
M  V30 37 1 16 34
M  V30 38 1 17 35
M  V30 39 1 18 36
M  V30 40 1 19 37
M  V30 41 1 21 38
M  V30 END BOND
M  V30 BEGIN COLLECTION
M  V30 MDLV30/STEABS ATOMS=(1 4)
M  V30 END COLLECTION
M  V30 END CTAB
M  END
>  <NO.>
7606

>  <Name>
zinc136443

>  <SMILES>
Cn1c2c(c3ccccc31)C(=O)[C@@H](Cn1ccnc1)CC2

>  <logBB>


>  <Class>
1

>  <MW>
279.14

>  <nHBAcc>
2

>  <nHBDon>
0

>  <SLogP>
2.82

>  <TopoPSA>
39.82

>  <MMFF94 Energy>
32.574

$$$$
N=C1Cc2ccccc2N(C(N)=O)c2ccccc21
Actelion Java MolfileCreator 2.0

  0  0  0  0  0  0              0 V3000
M  V30 BEGIN CTAB
M  V30 COUNTS 32 34 0 0 0
M  V30 BEGIN ATOM
M  V30 1 O -1.9148 0.2392 -2.7934 0
M  V30 2 C -0.7573 0.2811 -2.3819 0
M  V30 3 N -0.3816 0.331 -1.0464 0
M  V30 4 N 0.2517 0.2456 -3.2961 0
M  V30 5 C 0.938 0.5431 -0.5684 0
M  V30 6 C -1.3548 0.2374 -0.0248 0
M  V30 7 C 1.6142 -0.3719 0.261 0
M  V30 8 C 1.5695 1.7507 -0.9268 0
M  V30 9 C -1.3769 -0.9066 0.784 0
M  V30 10 C -2.2642 1.2777 0.1879 0
M  V30 11 C 1.0395 -1.6792 0.7321 0
M  V30 12 C 2.9224 -0.0635 0.6801 0
M  V30 13 C 2.8641 2.0394 -0.4979 0
M  V30 14 C -2.3096 -0.9875 1.8254 0
M  V30 15 C -0.4212 -2.0298 0.4934 0
M  V30 16 C -3.1919 1.1849 1.2246 0
M  V30 17 N 1.8141 -2.5374 1.3293 0
M  V30 18 C 3.5427 1.1292 0.3026 0
M  V30 19 C -3.2109 0.0566 2.0445 0
M  V30 20 H -0.0109 0.1942 -4.2703 0
M  V30 21 H 1.2245 0.1647 -3.0453 0
M  V30 22 H 1.043 2.4813 -1.5388 0
M  V30 23 H -2.2545 2.1562 -0.4513 0
M  V30 24 H 3.4706 -0.7567 1.317 0
M  V30 25 H 3.3376 2.9761 -0.7819 0
M  V30 26 H -2.348 -1.864 2.468 0
M  V30 27 H -0.5338 -2.3666 -0.5446 0
M  V30 28 H -0.6831 -2.8946 1.1158 0
M  V30 29 H -3.9018 1.991 1.3911 0
M  V30 30 H 1.3023 -3.3878 1.588 0
M  V30 31 H 4.5518 1.3459 0.645 0
M  V30 32 H -3.9364 -0.0136 2.8515 0
M  V30 END ATOM
M  V30 BEGIN BOND
M  V30 1 2 1 2
M  V30 2 1 2 3
M  V30 3 1 2 4
M  V30 4 1 3 5
M  V30 5 1 3 6
M  V30 6 2 5 7
M  V30 7 1 5 8
M  V30 8 2 6 9
M  V30 9 1 6 10
M  V30 10 1 7 11
M  V30 11 1 7 12
M  V30 12 2 8 13
M  V30 13 1 9 14
M  V30 14 1 9 15
M  V30 15 2 10 16
M  V30 16 2 11 17
M  V30 17 2 12 18
M  V30 18 2 14 19
M  V30 19 1 11 15
M  V30 20 1 13 18
M  V30 21 1 16 19
M  V30 22 1 4 20
M  V30 23 1 4 21
M  V30 24 1 8 22
M  V30 25 1 10 23
M  V30 26 1 12 24
M  V30 27 1 13 25
M  V30 28 1 14 26
M  V30 29 1 15 27
M  V30 30 1 15 28
M  V30 31 1 16 29
M  V30 32 1 17 30
M  V30 33 1 18 31
M  V30 34 1 19 32
M  V30 END BOND
M  V30 END CTAB
M  END
>  <NO.>
7614

>  <Name>
bdbm50446085

>  <SMILES>
N=C1Cc2ccccc2N(C(N)=O)c2ccccc21

>  <logBB>


>  <Class>
1

>  <MW>
251.11

>  <nHBAcc>
2

>  <nHBDon>
2

>  <SLogP>
2.83

>  <TopoPSA>
70.18

>  <MMFF94 Energy>
38.561

$$$$
N=c1nc(N2CCCCC2)ccn1O
Actelion Java MolfileCreator 2.0

  0  0  0  0  0  0              0 V3000
M  V30 BEGIN CTAB
M  V30 COUNTS 28 29 0 0 0
M  V30 BEGIN ATOM
M  V30 1 O -1.4176 -4.1787 1.8117 0
M  V30 2 N -1.1632 -2.9442 1.2253 0
M  V30 3 C -0.1897 -2.1583 1.8103 0
M  V30 4 C -1.9225 -2.4782 0.1933 0
M  V30 5 N 0.0168 -0.8696 1.3947 0
M  V30 6 N 0.5745 -2.5645 2.7727 0
M  V30 7 C -1.7473 -1.2424 -0.2843 0
M  V30 8 C -0.686 -0.4036 0.3887 0
M  V30 9 N -0.441 0.9027 -0.0363 0
M  V30 10 C -0.6537 1.3816 -1.4012 0
M  V30 11 C 0.4265 1.7916 0.7517 0
M  V30 12 C 0.6925 1.4343 -2.1269 0
M  V30 13 C 1.8083 1.8506 0.1023 0
M  V30 14 C 1.7053 2.2873 -1.3603 0
M  V30 15 H -1.9361 -3.9266 2.5994 0
M  V30 16 H -2.6651 -3.1656 -0.1915 0
M  V30 17 H 0.3347 -3.5473 2.925 0
M  V30 18 H -2.3553 -0.8385 -1.0767 0
M  V30 19 H -1.3435 0.7567 -1.9727 0
M  V30 20 H -1.1008 2.383 -1.3697 0
M  V30 21 H -0.0164 2.7954 0.7742 0
M  V30 22 H 0.5086 1.4774 1.798 0
M  V30 23 H 0.556 1.8398 -3.1355 0
M  V30 24 H 1.0889 0.4171 -2.2369 0
M  V30 25 H 2.2829 0.863 0.1521 0
M  V30 26 H 2.4499 2.5476 0.6525 0
M  V30 27 H 2.6881 2.2204 -1.8397 0
M  V30 28 H 1.3978 3.3396 -1.4032 0
M  V30 END ATOM
M  V30 BEGIN BOND
M  V30 1 1 1 2
M  V30 2 1 2 3
M  V30 3 1 2 4
M  V30 4 1 3 5
M  V30 5 2 3 6
M  V30 6 2 4 7
M  V30 7 2 5 8
M  V30 8 1 8 9
M  V30 9 1 9 10
M  V30 10 1 9 11
M  V30 11 1 10 12
M  V30 12 1 11 13
M  V30 13 1 12 14
M  V30 14 1 7 8
M  V30 15 1 13 14
M  V30 16 1 1 15
M  V30 17 1 4 16
M  V30 18 1 6 17
M  V30 19 1 7 18
M  V30 20 1 10 19
M  V30 21 1 10 20
M  V30 22 1 11 21
M  V30 23 1 11 22
M  V30 24 1 12 23
M  V30 25 1 12 24
M  V30 26 1 13 25
M  V30 27 1 13 26
M  V30 28 1 14 27
M  V30 29 1 14 28
M  V30 END BOND
M  V30 END CTAB
M  END
>  <NO.>
7615

>  <Name>
schembl19923339

>  <SMILES>
N=c1nc(N2CCCCC2)ccn1O

>  <logBB>


>  <Class>
1

>  <MW>
194.12

>  <nHBAcc>
4

>  <nHBDon>
2

>  <SLogP>
0.59

>  <TopoPSA>
65.14

>  <MMFF94 Energy>
-48.242

$$$$
NC(=O)N1C(=O)[C@@H](C(=O)c2cccs2)c2cc(Cl)ccc21
Actelion Java MolfileCreator 2.0

  0  0  0  0  0  0              0 V3000
M  V30 BEGIN CTAB
M  V30 COUNTS 30 32 0 0 0
M  V30 BEGIN ATOM
M  V30 1 Cl 1.9986 3.7498 -2.0819 0
M  V30 2 C 1.746 2.5894 -0.8367 0
M  V30 3 C 0.9282 1.486 -1.0817 0
M  V30 4 C 2.3656 2.7629 0.408 0
M  V30 5 C 0.7466 0.5686 -0.0546 0
M  V30 6 C 2.1771 1.8269 1.4324 0
M  V30 7 C 1.3656 0.7295 1.1882 0
M  V30 8 C -0.0723 -0.6906 -0.0504 0 CFG=1
M  V30 9 N 1.0285 -0.3486 2.037 0
M  V30 10 C 0.1815 -1.247 1.3487 0
M  V30 11 C -1.55 -0.4315 -0.2693 0
M  V30 12 C 1.4842 -0.4886 3.3413 0
M  V30 13 O -0.2616 -2.3143 1.759 0
M  V30 14 O -2.2188 0.0692 0.6389 0
M  V30 15 C -2.1028 -0.7514 -1.5862 0
M  V30 16 O 2.2556 0.2698 3.9235 0
M  V30 17 N 1.0277 -1.5821 4.0116 0
M  V30 18 S -3.7882 -0.5304 -1.8482 0
M  V30 19 C -1.4858 -1.2195 -2.7341 0
M  V30 20 C -3.685 -1.0597 -3.4672 0
M  V30 21 C -2.3988 -1.3977 -3.8167 0
M  V30 22 H 0.4484 1.3613 -2.0476 0
M  V30 23 H 2.9991 3.6289 0.5877 0
M  V30 24 H 2.668 1.9829 2.3883 0
M  V30 25 H 0.3453 -1.4177 -0.752 0
M  V30 26 H 1.3255 -1.7266 4.9655 0
M  V30 27 H 0.3871 -2.2436 3.5824 0
M  V30 28 H -0.4277 -1.4311 -2.8248 0
M  V30 29 H -4.5725 -1.0963 -4.0848 0
M  V30 30 H -2.1253 -1.7555 -4.8024 0
M  V30 END ATOM
M  V30 BEGIN BOND
M  V30 1 1 1 2
M  V30 2 2 2 3
M  V30 3 1 2 4
M  V30 4 1 3 5
M  V30 5 2 4 6
M  V30 6 2 5 7
M  V30 7 1 5 8
M  V30 8 1 7 9
M  V30 9 1 8 10
M  V30 10 1 8 11
M  V30 11 1 9 12
M  V30 12 2 10 13
M  V30 13 2 11 14
M  V30 14 1 11 15
M  V30 15 2 12 16
M  V30 16 1 12 17
M  V30 17 1 15 18
M  V30 18 2 15 19
M  V30 19 1 18 20
M  V30 20 1 19 21
M  V30 21 1 6 7
M  V30 22 1 9 10
M  V30 23 2 20 21
M  V30 24 1 3 22
M  V30 25 1 4 23
M  V30 26 1 6 24
M  V30 27 1 8 25
M  V30 28 1 17 26
M  V30 29 1 17 27
M  V30 30 1 19 28
M  V30 31 1 20 29
M  V30 32 1 21 30
M  V30 END BOND
M  V30 BEGIN COLLECTION
M  V30 MDLV30/STEABS ATOMS=(1 8)
M  V30 END COLLECTION
M  V30 END CTAB
M  END
>  <NO.>
7618

>  <Name>
(3r)-5-chloro-2-oxo-3-(thiophene-2-carbonyl)-3h-indole-1-carboxamide

>  <SMILES>
NC(=O)N1C(=O)[C@@H](C(=O)c2cccs2)c2cc(Cl)ccc21

>  <logBB>


>  <Class>
1

>  <MW>
320

>  <nHBAcc>
4

>  <nHBDon>
1

>  <SLogP>
2.79

>  <TopoPSA>
80.47

>  <MMFF94 Energy>
-19.8

$$$$
NC(N)=NC[C@@H]1COc2ccccc2O1
Actelion Java MolfileCreator 2.0

  0  0  0  0  0  0              0 V3000
M  V30 BEGIN CTAB
M  V30 COUNTS 28 29 0 0 0
M  V30 BEGIN ATOM
M  V30 1 O 0.6269 -0.7836 0.3134 0
M  V30 2 C 0.7735 -0.5359 1.6543 0
M  V30 3 C -0.7525 -0.6968 -0.0905 0 CFG=1
M  V30 4 C -0.2287 0.0359 2.445 0
M  V30 5 C 1.998 -0.8814 2.2233 0
M  V30 6 C -1.4057 0.5417 0.5162 0
M  V30 7 C -0.8346 -0.72 -1.6236 0
M  V30 8 O -1.4451 0.431 1.9482 0
M  V30 9 C -0.0207 0.2193 3.811 0
M  V30 10 C 2.2115 -0.6842 3.5888 0
M  V30 11 N -0.3794 0.5528 -2.1884 0
M  V30 12 C 1.2009 -0.1396 4.383 0
M  V30 13 C -0.2949 0.6572 -3.462 0
M  V30 14 N 0.1232 1.8154 -3.996 0
M  V30 15 N -0.5805 -0.2553 -4.4069 0
M  V30 16 H -1.2482 -1.6033 0.2851 0
M  V30 17 H 2.78 -1.3114 1.6043 0
M  V30 18 H -2.4397 0.6427 0.1705 0
M  V30 19 H -0.8686 1.4646 0.2637 0
M  V30 20 H -0.2114 -1.5419 -1.9966 0
M  V30 21 H -1.8753 -0.8985 -1.9196 0
M  V30 22 H -0.805 0.6525 4.4252 0
M  V30 23 H 3.1647 -0.9582 4.0332 0
M  V30 24 H 1.3662 0.0106 5.4467 0
M  V30 25 H 0.4071 1.9083 -4.9557 0
M  V30 26 H 0.3804 2.5468 -3.3462 0
M  V30 27 H -0.9005 -1.1778 -4.1554 0
M  V30 28 H -0.5785 -0.0155 -5.3848 0
M  V30 END ATOM
M  V30 BEGIN BOND
M  V30 1 1 1 2
M  V30 2 1 1 3
M  V30 3 2 2 4
M  V30 4 1 2 5
M  V30 5 1 3 6
M  V30 6 1 3 7
M  V30 7 1 4 8
M  V30 8 1 4 9
M  V30 9 2 5 10
M  V30 10 1 7 11
M  V30 11 2 9 12
M  V30 12 2 11 13
M  V30 13 1 13 14
M  V30 14 1 13 15
M  V30 15 1 6 8
M  V30 16 1 10 12
M  V30 17 1 3 16
M  V30 18 1 5 17
M  V30 19 1 6 18
M  V30 20 1 6 19
M  V30 21 1 7 20
M  V30 22 1 7 21
M  V30 23 1 9 22
M  V30 24 1 10 23
M  V30 25 1 12 24
M  V30 26 1 14 25
M  V30 27 1 14 26
M  V30 28 1 15 27
M  V30 29 1 15 28
M  V30 END BOND
M  V30 BEGIN COLLECTION
M  V30 MDLV30/STEABS ATOMS=(1 3)
M  V30 END COLLECTION
M  V30 END CTAB
M  END
>  <NO.>
7621

>  <Name>
zinc4213470

>  <SMILES>
NC(N)=NC[C@@H]1COc2ccccc2O1

>  <logBB>


>  <Class>
1

>  <MW>
207.1

>  <nHBAcc>
3

>  <nHBDon>
2

>  <SLogP>
0.1

>  <TopoPSA>
82.86

>  <MMFF94 Energy>
-72.948

$$$$
NS(=O)(=O)c1cc(C(=O)O)cc(N2CCCC2)c1Oc1ccccc1
Actelion Java MolfileCreator 2.0

  0  0  0  0  0  0              0 V3000
M  V30 BEGIN CTAB
M  V30 COUNTS 43 45 0 0 0
M  V30 BEGIN ATOM
M  V30 1 S -0.9707 0.8898 -3.2385 0
M  V30 2 O -1.6772 1.9644 -3.9005 0
M  V30 3 O -1.2636 -0.4902 -3.5424 0
M  V30 4 N 0.6457 1.1456 -3.6058 0
M  V30 5 C -1.0119 1.1763 -1.4928 0
M  V30 6 C -0.7194 0.1581 -0.5649 0
M  V30 7 C -1.4083 2.4427 -1.0549 0
M  V30 8 O -0.2856 -1.0683 -1.0202 0
M  V30 9 C -0.8892 0.3629 0.8309 0
M  V30 10 C -1.5199 2.6931 0.309 0
M  V30 11 C 1.054 -1.2017 -1.3284 0
M  V30 12 N -0.7041 -0.6154 1.7898 0
M  V30 13 C -1.2683 1.6632 1.2275 0
M  V30 14 C -1.9244 4.0525 0.7433 0
M  V30 15 C 2.0837 -0.4401 -0.7713 0
M  V30 16 C 1.3567 -2.2082 -2.2498 0
M  V30 17 C -0.6334 -0.3532 3.2291 0
M  V30 18 C -0.6996 -2.0566 1.5248 0
M  V30 19 O -2.1432 4.9968 0.008 0
M  V30 20 O -2.0319 4.1694 2.0781 0
M  V30 21 C 3.4061 -0.6694 -1.1581 0
M  V30 22 C 2.6775 -2.4353 -2.6357 0
M  V30 23 C -0.2522 -1.7004 3.8346 0
M  V30 24 C -0.9237 -2.6871 2.8981 0
M  V30 25 C 3.7021 -1.6629 -2.0913 0
M  V30 26 H 0.7374 1.9024 -4.2826 0
M  V30 27 H 1.0892 0.2702 -3.8878 0
M  V30 28 H -1.6328 3.2333 -1.7698 0
M  V30 29 H -1.3979 1.8849 2.2837 0
M  V30 30 H 1.8819 0.325 -0.0279 0
M  V30 31 H 0.5549 -2.8071 -2.6764 0
M  V30 32 H 0.1164 0.4051 3.4779 0
M  V30 33 H -1.6129 -0.0374 3.6071 0
M  V30 34 H -1.4957 -2.3646 0.839 0
M  V30 35 H 0.274 -2.3712 1.1367 0
M  V30 36 H -2.3061 5.1017 2.2098 0
M  V30 37 H 4.2068 -0.0756 -0.7243 0
M  V30 38 H 2.9058 -3.2159 -3.3565 0
M  V30 39 H -0.5832 -1.8025 4.8717 0
M  V30 40 H 0.8357 -1.8343 3.8044 0
M  V30 41 H -0.5061 -3.6951 2.9688 0
M  V30 42 H -1.9969 -2.7425 3.1176 0
M  V30 43 H 4.733 -1.8406 -2.3869 0
M  V30 END ATOM
M  V30 BEGIN BOND
M  V30 1 2 1 2
M  V30 2 2 1 3
M  V30 3 1 1 4
M  V30 4 1 1 5
M  V30 5 2 5 6
M  V30 6 1 5 7
M  V30 7 1 6 8
M  V30 8 1 6 9
M  V30 9 2 7 10
M  V30 10 1 8 11
M  V30 11 1 9 12
M  V30 12 2 9 13
M  V30 13 1 10 14
M  V30 14 2 11 15
M  V30 15 1 11 16
M  V30 16 1 12 17
M  V30 17 1 12 18
M  V30 18 2 14 19
M  V30 19 1 14 20
M  V30 20 1 15 21
M  V30 21 2 16 22
M  V30 22 1 17 23
M  V30 23 1 18 24
M  V30 24 2 21 25
M  V30 25 1 10 13
M  V30 26 1 22 25
M  V30 27 1 23 24
M  V30 28 1 4 26
M  V30 29 1 4 27
M  V30 30 1 7 28
M  V30 31 1 13 29
M  V30 32 1 15 30
M  V30 33 1 16 31
M  V30 34 1 17 32
M  V30 35 1 17 33
M  V30 36 1 18 34
M  V30 37 1 18 35
M  V30 38 1 20 36
M  V30 39 1 21 37
M  V30 40 1 22 38
M  V30 41 1 23 39
M  V30 42 1 23 40
M  V30 43 1 24 41
M  V30 44 1 24 42
M  V30 45 1 25 43
M  V30 END BOND
M  V30 END CTAB
M  END
>  <NO.>
7641

>  <Name>
piretanide

>  <SMILES>
NS(=O)(=O)c1cc(C(=O)O)cc(N2CCCC2)c1Oc1ccccc1

>  <logBB>


>  <Class>
1

>  <MW>
362.09

>  <nHBAcc>
5

>  <nHBDon>
2

>  <SLogP>
2.42

>  <TopoPSA>
109.93

>  <MMFF94 Energy>
-45.992

$$$$
NS(=O)(=O)c1cc(Cl)cc(NCc2ccco2)c1C(=O)O
Actelion Java MolfileCreator 2.0

  0  0  0  0  0  0              0 V3000
M  V30 BEGIN CTAB
M  V30 COUNTS 32 33 0 0 0
M  V30 BEGIN ATOM
M  V30 1 Cl 3.8679 2.6322 -0.9042 0
M  V30 2 C 2.7401 1.5886 -0.1296 0
M  V30 3 C 3.1005 0.9336 1.0385 0
M  V30 4 C 1.467 1.4195 -0.6752 0
M  V30 5 C 2.1847 0.0723 1.6544 0
M  V30 6 C 0.5131 0.5887 -0.0638 0
M  V30 7 S 2.6536 -0.6441 3.1985 0
M  V30 8 C 0.9086 -0.1231 1.1001 0
M  V30 9 N -0.7476 0.4087 -0.6185 0
M  V30 10 O 1.4907 -0.8664 4.0226 0
M  V30 11 O 3.8014 0.0737 3.7063 0
M  V30 12 N 3.2437 -2.14 2.7338 0
M  V30 13 C -0.0627 -1.0732 1.6846 0
M  V30 14 C -1.2415 1.0585 -1.8244 0
M  V30 15 O -1.2425 -0.8532 1.8877 0
M  V30 16 O 0.4646 -2.2996 1.8491 0
M  V30 17 C -2.604 0.6124 -2.235 0
M  V30 18 O -3.486 1.5876 -2.6013 0
M  V30 19 C -3.2033 -0.6266 -2.342 0
M  V30 20 C -4.6477 0.9678 -2.9331 0
M  V30 21 C -4.5253 -0.3942 -2.7911 0
M  V30 22 H 4.0875 1.0977 1.4665 0
M  V30 23 H 1.2255 1.9625 -1.5849 0
M  V30 24 H -1.4694 0.0227 -0.0051 0
M  V30 25 H 2.6042 -2.879 3.0272 0
M  V30 26 H 4.2082 -2.2587 3.0424 0
M  V30 27 H -0.5635 0.8471 -2.6603 0
M  V30 28 H -1.2507 2.1444 -1.6699 0
M  V30 29 H -0.2896 -2.8154 2.2086 0
M  V30 30 H -2.7383 -1.5767 -2.1173 0
M  V30 31 H -5.4527 1.6195 -3.2435 0
M  V30 32 H -5.2953 -1.1272 -2.9862 0
M  V30 END ATOM
M  V30 BEGIN BOND
M  V30 1 1 1 2
M  V30 2 2 2 3
M  V30 3 1 2 4
M  V30 4 1 3 5
M  V30 5 2 4 6
M  V30 6 1 5 7
M  V30 7 2 5 8
M  V30 8 1 6 9
M  V30 9 2 7 10
M  V30 10 2 7 11
M  V30 11 1 7 12
M  V30 12 1 8 13
M  V30 13 1 9 14
M  V30 14 2 13 15
M  V30 15 1 13 16
M  V30 16 1 14 17
M  V30 17 1 17 18
M  V30 18 2 17 19
M  V30 19 1 18 20
M  V30 20 1 19 21
M  V30 21 1 6 8
M  V30 22 2 20 21
M  V30 23 1 3 22
M  V30 24 1 4 23
M  V30 25 1 9 24
M  V30 26 1 12 25
M  V30 27 1 12 26
M  V30 28 1 14 27
M  V30 29 1 14 28
M  V30 30 1 16 29
M  V30 31 1 19 30
M  V30 32 1 20 31
M  V30 33 1 21 32
M  V30 END BOND
M  V30 END CTAB
M  END
>  <NO.>
7642

>  <Name>
4-chloro-2-(furan-2-ylmethylamino)-6-sulfamoylbenzoic acid

>  <SMILES>
NS(=O)(=O)c1cc(Cl)cc(NCc2ccco2)c1C(=O)O

>  <logBB>


>  <Class>
1

>  <MW>
330.01

>  <nHBAcc>
5

>  <nHBDon>
3

>  <SLogP>
1.89

>  <TopoPSA>
122.63

>  <MMFF94 Energy>
-94.022

$$$$
NS(=O)(=O)c1cc([C@@]2(O)NC(=O)c3ccccc32)ccc1Cl
Actelion Java MolfileCreator 2.0

  0  0  0  0  0  0              0 V3000
M  V30 BEGIN CTAB
M  V30 COUNTS 33 35 0 0 0
M  V30 BEGIN ATOM
M  V30 1 Cl 4.4812 2.1557 0.0828 0
M  V30 2 C 3.1252 1.0987 -0.073 0
M  V30 3 C 2.1226 0.9606 0.8861 0
M  V30 4 C 3.044 0.3533 -1.2531 0
M  V30 5 S 2.164 1.8607 2.4038 0
M  V30 6 C 1.0512 0.0751 0.6662 0
M  V30 7 C 1.9764 -0.5231 -1.4737 0
M  V30 8 O 3.4435 1.6698 3.0419 0
M  V30 9 O 0.9224 1.6383 3.1111 0
M  V30 10 N 2.0839 3.4621 1.908 0
M  V30 11 C 0.9616 -0.6842 -0.5171 0
M  V30 12 C -0.2096 -1.6223 -0.761 0 CFG=1
M  V30 13 O 0.0282 -2.4899 -1.8462 0
M  V30 14 N -0.4658 -2.4803 0.3557 0
M  V30 15 C -1.5283 -0.9322 -0.9603 0
M  V30 16 C -1.7478 -2.3646 0.8425 0
M  V30 17 C -2.4351 -1.3778 0.0032 0
M  V30 18 C -1.9244 5.0E-4 -1.9055 0
M  V30 19 O -2.2269 -2.9638 1.7823 0
M  V30 20 C -3.7366 -0.9215 0.0788 0
M  V30 21 C -3.2387 0.4795 -1.851 0
M  V30 22 C -4.1365 0.024 -0.8665 0
M  V30 23 H 3.8141 0.4488 -2.0164 0
M  V30 24 H 0.2742 -0.0256 1.4254 0
M  V30 25 H 1.9458 -1.0844 -2.4075 0
M  V30 26 H 2.9524 3.9427 2.1486 0
M  V30 27 H 1.2474 3.9023 2.2929 0
M  V30 28 H -0.4829 -3.2858 -1.6265 0
M  V30 29 H 0.2254 -3.0712 0.7936 0
M  V30 30 H -1.2378 0.3511 -2.6704 0
M  V30 31 H -4.4152 -1.2872 0.8423 0
M  V30 32 H -3.5746 1.214 -2.5809 0
M  V30 33 H -5.1531 0.4118 -0.8455 0
M  V30 END ATOM
M  V30 BEGIN BOND
M  V30 1 1 1 2
M  V30 2 2 2 3
M  V30 3 1 2 4
M  V30 4 1 3 5
M  V30 5 1 3 6
M  V30 6 2 4 7
M  V30 7 2 5 8
M  V30 8 2 5 9
M  V30 9 1 5 10
M  V30 10 2 6 11
M  V30 11 1 11 12
M  V30 12 1 12 13
M  V30 13 1 12 14
M  V30 14 1 12 15
M  V30 15 1 14 16
M  V30 16 2 15 17
M  V30 17 1 15 18
M  V30 18 2 16 19
M  V30 19 1 17 20
M  V30 20 2 18 21
M  V30 21 2 20 22
M  V30 22 1 7 11
M  V30 23 1 16 17
M  V30 24 1 21 22
M  V30 25 1 4 23
M  V30 26 1 6 24
M  V30 27 1 7 25
M  V30 28 1 10 26
M  V30 29 1 10 27
M  V30 30 1 13 28
M  V30 31 1 14 29
M  V30 32 1 18 30
M  V30 33 1 20 31
M  V30 34 1 21 32
M  V30 35 1 22 33
M  V30 END BOND
M  V30 BEGIN COLLECTION
M  V30 MDLV30/STEABS ATOMS=(1 12)
M  V30 END COLLECTION
M  V30 END CTAB
M  END
>  <NO.>
7643

>  <Name>
2-chloro-5-[(1s)-1-hydroxy-3-oxo-2h-isoindol-1-yl]benzenesulfonamide

>  <SMILES>
NS(=O)(=O)c1cc([C@@]2(O)NC(=O)c3ccccc32)ccc1Cl

>  <logBB>


>  <Class>
1

>  <MW>
338.01

>  <nHBAcc>
4

>  <nHBDon>
3

>  <SLogP>
0.92

>  <TopoPSA>
109.49

>  <MMFF94 Energy>
-105.23

$$$$
NS(=O)(=O)c1cc2c(cc1Cl)N[C@H](CN1CCCC1)NS2(=O)=O
Actelion Java MolfileCreator 2.0

  0  0  0  0  0  0              0 V3000
M  V30 BEGIN CTAB
M  V30 COUNTS 40 42 0 0 0
M  V30 BEGIN ATOM
M  V30 1 Cl -5.166 0.0831 -2.5805 0
M  V30 2 C -3.5664 -0.3578 -2.0999 0
M  V30 3 C -2.7137 -1.1558 -2.8627 0
M  V30 4 C -3.1351 0.118 -0.849 0
M  V30 5 S -3.1831 -1.7696 -4.4483 0
M  V30 6 C -1.4394 -1.4694 -2.3778 0
M  V30 7 C -1.8639 -0.1813 -0.3394 0
M  V30 8 O -2.1485 -2.657 -4.9289 0
M  V30 9 O -3.6831 -0.683 -5.2543 0
M  V30 10 N -4.4798 -2.7753 -4.1004 0
M  V30 11 C -1.0382 -0.9729 -1.1323 0
M  V30 12 N -1.504 0.29 0.9028 0
M  V30 13 S 0.5525 -1.377 -0.5212 0
M  V30 14 C -0.2358 0.0461 1.5607 0 CFG=1
M  V30 15 O 1.4744 -0.3734 -1.0013 0
M  V30 16 O 0.7894 -2.7837 -0.758 0
M  V30 17 N 0.3628 -1.199 1.1227 0
M  V30 18 C 0.7027 1.2891 1.4858 0
M  V30 19 N 1.9449 1.1565 2.279 0
M  V30 20 C 2.3891 2.4595 2.7944 0
M  V30 21 C 3.0927 0.6945 1.4844 0
M  V30 22 C 3.8194 2.1947 3.2343 0
M  V30 23 C 4.2861 1.0336 2.3669 0
M  V30 24 H -3.8144 0.7308 -0.2584 0
M  V30 25 H -0.7561 -2.091 -2.9552 0
M  V30 26 H -4.2601 -3.7331 -4.377 0
M  V30 27 H -5.3309 -2.4067 -4.5281 0
M  V30 28 H -2.1578 0.8742 1.4116 0
M  V30 29 H -0.4689 -0.0962 2.6247 0
M  V30 30 H 1.2209 -1.4083 1.6285 0
M  V30 31 H 0.1152 2.1227 1.8985 0
M  V30 32 H 0.9094 1.5834 0.4503 0
M  V30 33 H 1.7704 2.8024 3.63 0
M  V30 34 H 2.3767 3.2284 2.0108 0
M  V30 35 H 3.065 -0.3771 1.2746 0
M  V30 36 H 3.1769 1.239 0.5354 0
M  V30 37 H 3.8556 1.9071 4.2917 0
M  V30 38 H 4.4506 3.0795 3.1047 0
M  V30 39 H 4.5565 0.1815 3.0014 0
M  V30 40 H 5.1638 1.2997 1.7694 0
M  V30 END ATOM
M  V30 BEGIN BOND
M  V30 1 1 1 2
M  V30 2 2 2 3
M  V30 3 1 2 4
M  V30 4 1 3 5
M  V30 5 1 3 6
M  V30 6 2 4 7
M  V30 7 2 5 8
M  V30 8 2 5 9
M  V30 9 1 5 10
M  V30 10 2 6 11
M  V30 11 1 7 12
M  V30 12 1 11 13
M  V30 13 1 12 14
M  V30 14 2 13 15
M  V30 15 2 13 16
M  V30 16 1 13 17
M  V30 17 1 14 18
M  V30 18 1 18 19
M  V30 19 1 19 20
M  V30 20 1 19 21
M  V30 21 1 20 22
M  V30 22 1 21 23
M  V30 23 1 7 11
M  V30 24 1 14 17
M  V30 25 1 22 23
M  V30 26 1 4 24
M  V30 27 1 6 25
M  V30 28 1 10 26
M  V30 29 1 10 27
M  V30 30 1 12 28
M  V30 31 1 14 29
M  V30 32 1 17 30
M  V30 33 1 18 31
M  V30 34 1 18 32
M  V30 35 1 20 33
M  V30 36 1 20 34
M  V30 37 1 21 35
M  V30 38 1 21 36
M  V30 39 1 22 37
M  V30 40 1 22 38
M  V30 41 1 23 39
M  V30 42 1 23 40
M  V30 END BOND
M  V30 BEGIN COLLECTION
M  V30 MDLV30/STEABS ATOMS=(1 14)
M  V30 END COLLECTION
M  V30 END CTAB
M  END
>  <NO.>
7645

>  <Name>


>  <SMILES>
NS(=O)(=O)c1cc2c(cc1Cl)N[C@H](CN1CCCC1)NS2(=O)=O

>  <logBB>


>  <Class>
1

>  <MW>
380.04

>  <nHBAcc>
6

>  <nHBDon>
3

>  <SLogP>
0.11

>  <TopoPSA>
121.6

>  <MMFF94 Energy>
-172.06

$$$$
N[C@H](CCC(=O)O)c1ccc(Cl)cc1
Actelion Java MolfileCreator 2.0

  0  0  0  0  0  0              0 V3000
M  V30 BEGIN CTAB
M  V30 COUNTS 26 26 0 0 0
M  V30 BEGIN ATOM
M  V30 1 Cl 4.5413 -2.5475 -2.2288 0
M  V30 2 C 3.0919 -1.7613 -1.7378 0
M  V30 3 C 1.9145 -1.9721 -2.4485 0
M  V30 4 C 3.1043 -0.9115 -0.6352 0
M  V30 5 C 0.7392 -1.3318 -2.0473 0
M  V30 6 C 1.9276 -0.2702 -0.2351 0
M  V30 7 C 0.7231 -0.4823 -0.9261 0
M  V30 8 C -0.578 0.2075 -0.5413 0 CFG=2
M  V30 9 N -0.6835 1.47 -1.272 0
M  V30 10 C -0.7506 0.4058 0.9779 0
M  V30 11 C -2.1756 0.802 1.372 0
M  V30 12 C -2.3234 0.8898 2.8662 0
M  V30 13 O -1.4426 0.8101 3.704 0
M  V30 14 O -3.6034 1.0968 3.2314 0
M  V30 15 H 1.9031 -2.6246 -3.3168 0
M  V30 16 H 4.0251 -0.7386 -0.0847 0
M  V30 17 H -0.1709 -1.4896 -2.623 0
M  V30 18 H 1.971 0.3986 0.6204 0
M  V30 19 H -1.4 -0.4388 -0.8759 0
M  V30 20 H 0.0847 2.0824 -1.0021 0
M  V30 21 H -1.5435 1.9562 -1.0352 0
M  V30 22 H -0.4903 -0.5271 1.4963 0
M  V30 23 H -0.0523 1.1666 1.3514 0
M  V30 24 H -2.437 1.779 0.9539 0
M  V30 25 H -2.8824 0.0511 1.0022 0
M  V30 26 H -3.5704 1.1398 4.2106 0
M  V30 END ATOM
M  V30 BEGIN BOND
M  V30 1 1 1 2
M  V30 2 2 2 3
M  V30 3 1 2 4
M  V30 4 1 3 5
M  V30 5 2 4 6
M  V30 6 2 5 7
M  V30 7 1 7 8
M  V30 8 1 8 9
M  V30 9 1 8 10
M  V30 10 1 10 11
M  V30 11 1 11 12
M  V30 12 2 12 13
M  V30 13 1 12 14
M  V30 14 1 6 7
M  V30 15 1 3 15
M  V30 16 1 4 16
M  V30 17 1 5 17
M  V30 18 1 6 18
M  V30 19 1 8 19
M  V30 20 1 9 20
M  V30 21 1 9 21
M  V30 22 1 10 22
M  V30 23 1 10 23
M  V30 24 1 11 24
M  V30 25 1 11 25
M  V30 26 1 14 26
M  V30 END BOND
M  V30 BEGIN COLLECTION
M  V30 MDLV30/STEABS ATOMS=(1 8)
M  V30 END COLLECTION
M  V30 END CTAB
M  END
>  <NO.>
7649

>  <Name>
ctk7d0972

>  <SMILES>
N[C@H](CCC(=O)O)c1ccc(Cl)cc1

>  <logBB>


>  <Class>
1

>  <MW>
213.06

>  <nHBAcc>
2

>  <nHBDon>
2

>  <SLogP>
2.2

>  <TopoPSA>
63.32

>  <MMFF94 Energy>
-16.83

$$$$
Nc1ccc(S(=O)(=O)c2ccc(O)cc2)cc1
Actelion Java MolfileCreator 2.0

  0  0  0  0  0  0              0 V3000
M  V30 BEGIN CTAB
M  V30 COUNTS 28 29 0 0 0
M  V30 BEGIN ATOM
M  V30 1 S -0.6493 0.0811 -1.8676 0
M  V30 2 O -0.0974 -0.7927 -2.8868 0
M  V30 3 O -1.6041 1.1166 -2.2208 0
M  V30 4 C -1.4119 -0.9739 -0.6556 0
M  V30 5 C 0.7012 0.896 -1.049 0
M  V30 6 C -0.6902 -2.0602 -0.1506 0
M  V30 7 C -2.719 -0.7185 -0.2275 0
M  V30 8 C 0.4263 1.8613 -0.0785 0
M  V30 9 C 2.0179 0.5773 -1.382 0
M  V30 10 C -1.2811 -2.8873 0.804 0
M  V30 11 C -3.3046 -1.5521 0.7272 0
M  V30 12 C 1.4852 2.5004 0.5713 0
M  V30 13 C 3.0664 1.2249 -0.7233 0
M  V30 14 C -2.5791 -2.6275 1.2354 0
M  V30 15 C 2.8115 2.199 0.2472 0
M  V30 16 O -3.1136 -3.4651 2.1687 0
M  V30 17 N 3.8539 2.8071 0.9213 0
M  V30 18 H 0.3182 -2.2732 -0.4966 0
M  V30 19 H -3.286 0.1176 -0.6311 0
M  V30 20 H -0.5977 2.1246 0.1751 0
M  V30 21 H 2.2411 -0.1662 -2.1435 0
M  V30 22 H -0.7356 -3.7364 1.2075 0
M  V30 23 H -4.3193 -1.3513 1.0577 0
M  V30 24 H 1.2658 3.2445 1.3331 0
M  V30 25 H 4.0906 0.9649 -0.9792 0
M  V30 26 H -4.0262 -3.1881 2.3536 0
M  V30 27 H 4.8101 2.6454 0.6357 0
M  V30 28 H 3.6734 3.5636 1.5669 0
M  V30 END ATOM
M  V30 BEGIN BOND
M  V30 1 2 1 2
M  V30 2 2 1 3
M  V30 3 1 1 4
M  V30 4 1 1 5
M  V30 5 2 4 6
M  V30 6 1 4 7
M  V30 7 2 5 8
M  V30 8 1 5 9
M  V30 9 1 6 10
M  V30 10 2 7 11
M  V30 11 1 8 12
M  V30 12 2 9 13
M  V30 13 2 10 14
M  V30 14 2 12 15
M  V30 15 1 14 16
M  V30 16 1 15 17
M  V30 17 1 11 14
M  V30 18 1 13 15
M  V30 19 1 6 18
M  V30 20 1 7 19
M  V30 21 1 8 20
M  V30 22 1 9 21
M  V30 23 1 10 22
M  V30 24 1 11 23
M  V30 25 1 12 24
M  V30 26 1 13 25
M  V30 27 1 16 26
M  V30 28 1 17 27
M  V30 29 1 17 28
M  V30 END BOND
M  V30 END CTAB
M  END
>  <NO.>
7650

>  <Name>
25963-47-7

>  <SMILES>
Nc1ccc(S(=O)(=O)c2ccc(O)cc2)cc1

>  <logBB>


>  <Class>
1

>  <MW>
249.05

>  <nHBAcc>
4

>  <nHBDon>
2

>  <SLogP>
1.81

>  <TopoPSA>
80.39

>  <MMFF94 Energy>
65.851

$$$$
O=C(CCCN1CCC(O)(c2cccc(Cl)c2)CC1)c1ccc(F)cc1
Actelion Java MolfileCreator 2.0

  0  0  0  0  0  0              0 V3000
M  V30 BEGIN CTAB
M  V30 COUNTS 49 51 0 0 0
M  V30 BEGIN ATOM
M  V30 1 Cl 5.647 -2.9011 1.6109 0
M  V30 2 C 4.4927 -2.3119 2.7453 0
M  V30 3 C 3.137 -2.2861 2.4008 0
M  V30 4 C 4.9196 -1.8701 3.9925 0
M  V30 5 C 2.1709 -1.7985 3.2966 0
M  V30 6 C 3.9812 -1.4112 4.9099 0
M  V30 7 C 2.6264 -1.3836 4.5666 0
M  V30 8 C 0.6725 -1.743 2.9795 0
M  V30 9 O 0.0683 -2.6127 3.954 0
M  V30 10 C 0.2401 -2.2457 1.5887 0
M  V30 11 C 0.0851 -0.3313 3.175 0
M  V30 12 C 0.5373 -1.2459 0.4666 0
M  V30 13 C 0.4573 0.6002 2.026 0
M  V30 14 N -0.0494 0.074 0.7473 0
M  V30 15 C 0.2265 1.041 -0.3315 0
M  V30 16 C -0.5063 0.7048 -1.6352 0
M  V30 17 C -0.3547 1.831 -2.6535 0
M  V30 18 C -1.0168 1.4619 -3.9645 0
M  V30 19 O -0.3928 0.8443 -4.8267 0
M  V30 20 C -2.4419 1.8379 -4.2177 0
M  V30 21 C -2.95 1.6617 -5.5156 0
M  V30 22 C -3.2821 2.3442 -3.2161 0
M  V30 23 C -4.274 1.9947 -5.8097 0
M  V30 24 C -4.6076 2.6759 -3.5145 0
M  V30 25 C -5.0901 2.4999 -4.8063 0
M  V30 26 F -6.3601 2.8195 -5.0849 0
M  V30 27 H 2.8589 -2.6679 1.4243 0
M  V30 28 H 5.9721 -1.8956 4.2591 0
M  V30 29 H 4.2971 -1.0858 5.8977 0
M  V30 30 H 1.9109 -1.0542 5.3189 0
M  V30 31 H -0.8919 -2.6022 3.8058 0
M  V30 32 H -0.8433 -2.4355 1.5981 0
M  V30 33 H 0.6854 -3.222 1.3623 0
M  V30 34 H -1.0104 -0.3979 3.2429 0
M  V30 35 H 0.3929 0.1153 4.1271 0
M  V30 36 H 1.6156 -1.1564 0.2966 0
M  V30 37 H 0.1058 -1.664 -0.449 0
M  V30 38 H -0.0015 1.5759 2.2287 0
M  V30 39 H 1.5431 0.7554 1.9899 0
M  V30 40 H 1.3054 1.1243 -0.5161 0
M  V30 41 H -0.1182 2.0327 -0.0102 0
M  V30 42 H -1.5693 0.5288 -1.4303 0
M  V30 43 H -0.1133 -0.2206 -2.0714 0
M  V30 44 H 0.7067 2.013 -2.8639 0
M  V30 45 H -0.7456 2.7809 -2.276 0
M  V30 46 H -2.3143 1.2634 -6.3049 0
M  V30 47 H -2.9405 2.4802 -2.1947 0
M  V30 48 H -4.6697 1.8609 -6.8116 0
M  V30 49 H -5.2684 3.0669 -2.7464 0
M  V30 END ATOM
M  V30 BEGIN BOND
M  V30 1 1 1 2
M  V30 2 2 2 3
M  V30 3 1 2 4
M  V30 4 1 3 5
M  V30 5 2 4 6
M  V30 6 2 5 7
M  V30 7 1 5 8
M  V30 8 1 8 9
M  V30 9 1 8 10
M  V30 10 1 8 11
M  V30 11 1 10 12
M  V30 12 1 11 13
M  V30 13 1 12 14
M  V30 14 1 14 15
M  V30 15 1 15 16
M  V30 16 1 16 17
M  V30 17 1 17 18
M  V30 18 2 18 19
M  V30 19 1 18 20
M  V30 20 2 20 21
M  V30 21 1 20 22
M  V30 22 1 21 23
M  V30 23 2 22 24
M  V30 24 2 23 25
M  V30 25 1 25 26
M  V30 26 1 6 7
M  V30 27 1 13 14
M  V30 28 1 24 25
M  V30 29 1 3 27
M  V30 30 1 4 28
M  V30 31 1 6 29
M  V30 32 1 7 30
M  V30 33 1 9 31
M  V30 34 1 10 32
M  V30 35 1 10 33
M  V30 36 1 11 34
M  V30 37 1 11 35
M  V30 38 1 12 36
M  V30 39 1 12 37
M  V30 40 1 13 38
M  V30 41 1 13 39
M  V30 42 1 15 40
M  V30 43 1 15 41
M  V30 44 1 16 42
M  V30 45 1 16 43
M  V30 46 1 17 44
M  V30 47 1 17 45
M  V30 48 1 21 46
M  V30 49 1 22 47
M  V30 50 1 23 48
M  V30 51 1 24 49
M  V30 END BOND
M  V30 END CTAB
M  END
>  <NO.>
7654

>  <Name>
fc1=cc=c(c=c1)c(cccn1ccc(cc1)(c1=cc(=cc=c1)cl)o)=o

>  <SMILES>
O=C(CCCN1CCC(O)(c2cccc(Cl)c2)CC1)c1ccc(F)cc1

>  <logBB>


>  <Class>
1

>  <MW>
375.14

>  <nHBAcc>
3

>  <nHBDon>
1

>  <SLogP>
4.43

>  <TopoPSA>
40.54

>  <MMFF94 Energy>
55.311

$$$$
O=C(O)CCC(=O)Nc1ccc(S(=O)(=O)Nc2nccs2)cc1
Actelion Java MolfileCreator 2.0

  0  0  0  0  0  0              0 V3000
M  V30 BEGIN CTAB
M  V30 COUNTS 36 37 0 0 0
M  V30 BEGIN ATOM
M  V30 1 S 0.0 -4.4506 -1.3995 0
M  V30 2 O -0.2952 -5.3304 -0.2876 0
M  V30 3 O 1.0692 -4.7565 -2.3261 0
M  V30 4 N -1.4288 -4.285 -2.2652 0
M  V30 5 C 0.3188 -2.8429 -0.7044 0
M  V30 6 C -1.566 -3.0529 -3.001 0
M  V30 7 C -0.5021 -2.3641 0.3186 0
M  V30 8 C 1.4029 -2.0877 -1.1548 0
M  V30 9 S -0.6336 -2.6024 -4.3569 0
M  V30 10 N -2.5318 -2.2384 -2.6567 0
M  V30 11 C -0.2542 -1.1034 0.8712 0
M  V30 12 C 1.645 -0.8307 -0.5941 0
M  V30 13 C -1.5444 -1.153 -4.4739 0
M  V30 14 C -2.5103 -1.1358 -3.4896 0
M  V30 15 C 0.8124 -0.3244 0.4136 0
M  V30 16 N 1.1301 0.9446 0.9366 0
M  V30 17 C 0.3144 1.754 1.711 0
M  V30 18 O -0.8396 1.515 2.0459 0
M  V30 19 C 1.0193 3.0364 2.1077 0
M  V30 20 C 0.1468 3.9189 2.9911 0
M  V30 21 C 0.8732 5.1771 3.365 0
M  V30 22 O 1.993 5.51 3.0159 0
M  V30 23 O 0.1393 5.9673 4.1705 0
M  V30 24 H -2.2364 -4.4613 -1.6718 0
M  V30 25 H -1.3325 -2.9575 0.6942 0
M  V30 26 H 2.0608 -2.464 -1.9354 0
M  V30 27 H -0.9054 -0.76 1.6705 0
M  V30 28 H 2.4902 -0.253 -0.9604 0
M  V30 29 H -1.3432 -0.4142 -5.2361 0
M  V30 30 H -3.2321 -0.3419 -3.3372 0
M  V30 31 H 2.037 1.3178 0.683 0
M  V30 32 H 1.2979 3.5735 1.1926 0
M  V30 33 H 1.9463 2.7744 2.6327 0
M  V30 34 H -0.7724 4.1936 2.4621 0
M  V30 35 H -0.1201 3.385 3.91 0
M  V30 36 H 0.711 6.7445 4.3424 0
M  V30 END ATOM
M  V30 BEGIN BOND
M  V30 1 2 1 2
M  V30 2 2 1 3
M  V30 3 1 1 4
M  V30 4 1 1 5
M  V30 5 1 4 6
M  V30 6 2 5 7
M  V30 7 1 5 8
M  V30 8 1 6 9
M  V30 9 2 6 10
M  V30 10 1 7 11
M  V30 11 2 8 12
M  V30 12 1 9 13
M  V30 13 1 10 14
M  V30 14 2 11 15
M  V30 15 1 15 16
M  V30 16 1 16 17
M  V30 17 2 17 18
M  V30 18 1 17 19
M  V30 19 1 19 20
M  V30 20 1 20 21
M  V30 21 2 21 22
M  V30 22 1 21 23
M  V30 23 1 12 15
M  V30 24 2 13 14
M  V30 25 1 4 24
M  V30 26 1 7 25
M  V30 27 1 8 26
M  V30 28 1 11 27
M  V30 29 1 12 28
M  V30 30 1 13 29
M  V30 31 1 14 30
M  V30 32 1 16 31
M  V30 33 1 19 32
M  V30 34 1 19 33
M  V30 35 1 20 34
M  V30 36 1 20 35
M  V30 37 1 23 36
M  V30 END BOND
M  V30 END CTAB
M  END
>  <NO.>
7659

>  <Name>
succinylsulfathiazole

>  <SMILES>
O=C(O)CCC(=O)Nc1ccc(S(=O)(=O)Nc2nccs2)cc1

>  <logBB>


>  <Class>
-1

>  <MW>
355.03

>  <nHBAcc>
6

>  <nHBDon>
3

>  <SLogP>
1.75

>  <TopoPSA>
125.46

>  <MMFF94 Energy>
-123.32

$$$$
O=C(O)Cc1ccc2c(c1)C(=O)c1ccccc1CO2
Actelion Java MolfileCreator 2.0

  0  0  0  0  0  0              0 V3000
M  V30 BEGIN CTAB
M  V30 COUNTS 32 34 0 0 0
M  V30 BEGIN ATOM
M  V30 1 O -0.4032 -1.3714 1.9365 0
M  V30 2 C -0.0841 -0.3243 1.3711 0
M  V30 3 C 0.3194 -0.3707 -0.0655 0
M  V30 4 C -0.1661 0.9252 2.1638 0
M  V30 5 C 0.898 0.6787 -0.7883 0
M  V30 6 C 0.0313 -1.5737 -0.7449 0
M  V30 7 C 0.7453 1.973 2.0054 0
M  V30 8 C -1.1734 1.0173 3.1369 0
M  V30 9 O 1.2765 1.9 -0.304 0
M  V30 10 C 1.1228 0.5374 -2.1648 0
M  V30 11 C 0.2885 -1.7303 -2.116 0
M  V30 12 C 0.615 3.1226 2.8022 0
M  V30 13 C 1.8446 1.8629 0.9992 0
M  V30 14 C -1.2921 2.1607 3.9268 0
M  V30 15 C 0.8254 -0.6545 -2.8246 0
M  V30 16 C -0.0526 -3.0238 -2.8172 0
M  V30 17 C -0.3999 3.2151 3.7557 0
M  V30 18 C -1.4289 -3.0379 -3.4365 0
M  V30 19 O -2.2304 -2.1232 -3.5206 0
M  V30 20 O -1.7309 -4.2475 -3.957 0
M  V30 21 H -0.4229 -2.3998 -0.1965 0
M  V30 22 H -1.8713 0.1939 3.2793 0
M  V30 23 H 1.5446 1.3674 -2.7282 0
M  V30 24 H 1.3051 3.9559 2.6856 0
M  V30 25 H 2.468 0.9736 1.1656 0
M  V30 26 H 2.5213 2.7219 1.0764 0
M  V30 27 H -2.0792 2.2254 4.6738 0
M  V30 28 H 1.0117 -0.7307 -3.8937 0
M  V30 29 H 0.6836 -3.2123 -3.6075 0
M  V30 30 H 0.0139 -3.8515 -2.101 0
M  V30 31 H -0.4917 4.1091 4.3681 0
M  V30 32 H -2.6346 -4.1259 -4.3185 0
M  V30 END ATOM
M  V30 BEGIN BOND
M  V30 1 2 1 2
M  V30 2 1 2 3
M  V30 3 1 2 4
M  V30 4 2 3 5
M  V30 5 1 3 6
M  V30 6 2 4 7
M  V30 7 1 4 8
M  V30 8 1 5 9
M  V30 9 1 5 10
M  V30 10 2 6 11
M  V30 11 1 7 12
M  V30 12 1 7 13
M  V30 13 2 8 14
M  V30 14 2 10 15
M  V30 15 1 11 16
M  V30 16 2 12 17
M  V30 17 1 16 18
M  V30 18 2 18 19
M  V30 19 1 18 20
M  V30 20 1 9 13
M  V30 21 1 11 15
M  V30 22 1 14 17
M  V30 23 1 6 21
M  V30 24 1 8 22
M  V30 25 1 10 23
M  V30 26 1 12 24
M  V30 27 1 13 25
M  V30 28 1 13 26
M  V30 29 1 14 27
M  V30 30 1 15 28
M  V30 31 1 16 29
M  V30 32 1 16 30
M  V30 33 1 17 31
M  V30 34 1 20 32
M  V30 END BOND
M  V30 END CTAB
M  END
>  <NO.>
7661

>  <Name>
isoxepac

>  <SMILES>
O=C(O)Cc1ccc2c(c1)C(=O)c1ccccc1CO2

>  <logBB>


>  <Class>
1

>  <MW>
268.07

>  <nHBAcc>
3

>  <nHBDon>
1

>  <SLogP>
2.44

>  <TopoPSA>
63.6

>  <MMFF94 Energy>
78.23

$$$$
O=C(O)Cc1ccccc1Nc1ccc(Cl)cc1Cl
Actelion Java MolfileCreator 2.0

  0  0  0  0  0  0              0 V3000
M  V30 BEGIN CTAB
M  V30 COUNTS 30 31 0 0 0
M  V30 BEGIN ATOM
M  V30 1 Cl 2.3676 -0.0815 2.6128 0
M  V30 2 C 2.549 -0.764 1.0316 0
M  V30 3 C 1.5321 -0.6236 0.0637 0
M  V30 4 C 3.7306 -1.4565 0.7534 0
M  V30 5 N 0.3366 0.058 0.371 0
M  V30 6 C 1.7475 -1.2021 -1.1957 0
M  V30 7 C 3.9118 -2.0205 -0.5042 0
M  V30 8 C -0.9585 -0.0183 -0.177 0
M  V30 9 C 2.9282 -1.8954 -1.4808 0
M  V30 10 Cl 5.3626 -2.8741 -0.8577 0
M  V30 11 C -1.775 1.1321 -0.2414 0
M  V30 12 C -1.4577 -1.2222 -0.6973 0
M  V30 13 C -3.0682 1.0388 -0.7892 0
M  V30 14 C -1.3024 2.4744 0.2662 0
M  V30 15 C -2.7386 -1.3006 -1.2475 0
M  V30 16 C -3.545 -0.17 -1.2907 0
M  V30 17 C -1.4037 2.6004 1.7615 0
M  V30 18 O -2.2982 3.1476 2.3855 0
M  V30 19 O -0.3716 2.0184 2.4101 0
M  V30 20 H 4.5007 -1.5545 1.5133 0
M  V30 21 H 0.4041 0.6524 1.2009 0
M  V30 22 H 1.0053 -1.0949 -1.9835 0
M  V30 23 H 3.0715 -2.3282 -2.4677 0
M  V30 24 H -0.8619 -2.1298 -0.6437 0
M  V30 25 H -3.7131 1.9149 -0.8304 0
M  V30 26 H -0.2709 2.6733 -0.0484 0
M  V30 27 H -1.8915 3.2865 -0.1783 0
M  V30 28 H -3.107 -2.2485 -1.6308 0
M  V30 29 H -4.5453 -0.2288 -1.712 0
M  V30 30 H -0.5818 2.1591 3.3591 0
M  V30 END ATOM
M  V30 BEGIN BOND
M  V30 1 1 1 2
M  V30 2 2 2 3
M  V30 3 1 2 4
M  V30 4 1 3 5
M  V30 5 1 3 6
M  V30 6 2 4 7
M  V30 7 1 5 8
M  V30 8 2 6 9
M  V30 9 1 7 10
M  V30 10 2 8 11
M  V30 11 1 8 12
M  V30 12 1 11 13
M  V30 13 1 11 14
M  V30 14 2 12 15
M  V30 15 2 13 16
M  V30 16 1 14 17
M  V30 17 2 17 18
M  V30 18 1 17 19
M  V30 19 1 7 9
M  V30 20 1 15 16
M  V30 21 1 4 20
M  V30 22 1 5 21
M  V30 23 1 6 22
M  V30 24 1 9 23
M  V30 25 1 12 24
M  V30 26 1 13 25
M  V30 27 1 14 26
M  V30 28 1 14 27
M  V30 29 1 15 28
M  V30 30 1 16 29
M  V30 31 1 19 30
M  V30 END BOND
M  V30 END CTAB
M  END
>  <NO.>
7662

>  <Name>
chembl310696

>  <SMILES>
O=C(O)Cc1ccccc1Nc1ccc(Cl)cc1Cl

>  <logBB>


>  <Class>
1

>  <MW>
295.02

>  <nHBAcc>
2

>  <nHBDon>
2

>  <SLogP>
4.36

>  <TopoPSA>
49.33

>  <MMFF94 Energy>
27.692

$$$$
O=C(O)Cc1ccccc1Oc1ccc(Cl)cc1Cl
Actelion Java MolfileCreator 2.0

  0  0  0  0  0  0              0 V3000
M  V30 BEGIN CTAB
M  V30 COUNTS 29 30 0 0 0
M  V30 BEGIN ATOM
M  V30 1 Cl -0.8201 -1.1483 2.7083 0
M  V30 2 C -0.9467 0.426 2.0123 0
M  V30 3 C -1.2033 0.6543 0.6529 0
M  V30 4 C -0.8302 1.5106 2.89 0
M  V30 5 O -1.3596 -0.3062 -0.32 0
M  V30 6 C -1.4085 1.9669 0.2024 0
M  V30 7 C -0.9957 2.8114 2.4189 0
M  V30 8 C -0.4088 -1.2946 -0.4453 0
M  V30 9 C -1.2929 3.0454 1.0797 0
M  V30 10 Cl -0.8516 4.138 3.5044 0
M  V30 11 C 0.9515 -1.0692 -0.7197 0
M  V30 12 C -0.9111 -2.602 -0.3854 0
M  V30 13 C 1.7945 -2.1893 -0.8565 0
M  V30 14 C 1.5532 0.3039 -0.9078 0
M  V30 15 C -0.0614 -3.6961 -0.5277 0
M  V30 16 C 1.294 -3.489 -0.7551 0
M  V30 17 C 1.0354 1.0517 -2.1117 0
M  V30 18 O 0.3469 0.6376 -3.0281 0
M  V30 19 O 1.4574 2.3361 -2.1213 0
M  V30 20 H -0.6253 1.3395 3.944 0
M  V30 21 H -1.6511 2.1464 -0.8432 0
M  V30 22 H -1.4395 4.0585 0.7138 0
M  V30 23 H -1.9719 -2.7646 -0.2109 0
M  V30 24 H 2.8558 -2.0593 -1.0606 0
M  V30 25 H 1.3942 0.9003 -0.0047 0
M  V30 26 H 2.6398 0.2202 -1.0356 0
M  V30 27 H -0.4581 -4.7055 -0.4629 0
M  V30 28 H 1.9619 -4.339 -0.8687 0
M  V30 29 H 1.0902 2.6922 -2.9581 0
M  V30 END ATOM
M  V30 BEGIN BOND
M  V30 1 1 1 2
M  V30 2 2 2 3
M  V30 3 1 2 4
M  V30 4 1 3 5
M  V30 5 1 3 6
M  V30 6 2 4 7
M  V30 7 1 5 8
M  V30 8 2 6 9
M  V30 9 1 7 10
M  V30 10 2 8 11
M  V30 11 1 8 12
M  V30 12 1 11 13
M  V30 13 1 11 14
M  V30 14 2 12 15
M  V30 15 2 13 16
M  V30 16 1 14 17
M  V30 17 2 17 18
M  V30 18 1 17 19
M  V30 19 1 7 9
M  V30 20 1 15 16
M  V30 21 1 4 20
M  V30 22 1 6 21
M  V30 23 1 9 22
M  V30 24 1 12 23
M  V30 25 1 13 24
M  V30 26 1 14 25
M  V30 27 1 14 26
M  V30 28 1 15 27
M  V30 29 1 16 28
M  V30 30 1 19 29
M  V30 END BOND
M  V30 END CTAB
M  END
>  <NO.>
7663

>  <Name>
fenclofenac

>  <SMILES>
O=C(O)Cc1ccccc1Oc1ccc(Cl)cc1Cl

>  <logBB>


>  <Class>
1

>  <MW>
296

>  <nHBAcc>
2

>  <nHBDon>
1

>  <SLogP>
4.41

>  <TopoPSA>
46.53

>  <MMFF94 Energy>
39.188

$$$$
O=C(O)[C@H](CCc1ccccc1)N[C@@H]1CCCN2CCC[C@@H](C(=O)O)N2C1=O
Actelion Java MolfileCreator 2.0

  0  0  0  0  0  0              0 V3000
M  V30 BEGIN CTAB
M  V30 COUNTS 55 57 0 0 0
M  V30 BEGIN ATOM
M  V30 1 O 1.0353 -2.7094 0.0796 0
M  V30 2 C 1.3017 -1.5124 -0.0695 0
M  V30 3 N 2.2143 -1.0722 -1.0322 0
M  V30 4 C 0.6387 -0.4505 0.8324 0 CFG=2
M  V30 5 N 2.4665 0.323 -1.2015 0
M  V30 6 C 2.9433 -2.0906 -1.8118 0 CFG=2
M  V30 7 N -0.1704 0.522 0.0612 0
M  V30 8 C 1.6941 0.2387 1.7159 0
M  V30 9 C 3.3561 0.8642 -0.1682 0
M  V30 10 C 2.8479 0.7027 -2.5627 0
M  V30 11 C 4.0611 -2.7194 -0.9749 0
M  V30 12 C 3.4804 -1.6105 -3.1617 0
M  V30 13 C -1.3722 -0.0842 -0.5616 0 CFG=2
M  V30 14 C 2.5499 1.3198 1.0493 0
M  V30 15 C 3.9675 -0.171 -3.1079 0
M  V30 16 O 4.6685 -2.2275 -0.037 0
M  V30 17 O 4.3979 -3.9558 -1.4097 0
M  V30 18 C -1.7063 0.688 -1.8512 0
M  V30 19 C -2.5524 -0.1132 0.4241 0
M  V30 20 O -0.9454 1.4125 -2.4783 0
M  V30 21 O -2.9409 0.4427 -2.3334 0
M  V30 22 C -2.9486 1.2691 0.9583 0
M  V30 23 C -4.1382 1.1798 1.8843 0
M  V30 24 C -5.442 1.2321 1.3734 0
M  V30 25 C -3.9534 1.0134 3.2632 0
M  V30 26 C -6.5406 1.1313 2.2284 0
M  V30 27 C -5.0533 0.9129 4.1167 0
M  V30 28 C -6.3462 0.9729 3.5995 0
M  V30 29 H -0.0228 -0.9971 1.5168 0
M  V30 30 H 2.2339 -2.9069 -2.0067 0
M  V30 31 H 0.4415 0.8595 -0.6978 0
M  V30 32 H 1.1794 0.7053 2.5664 0
M  V30 33 H 2.3622 -0.5223 2.1399 0
M  V30 34 H 4.1315 0.1522 0.1272 0
M  V30 35 H 3.8891 1.7493 -0.5387 0
M  V30 36 H 3.1318 1.7608 -2.6111 0
M  V30 37 H 1.9648 0.6096 -3.2084 0
M  V30 38 H 4.2818 -2.261 -3.5302 0
M  V30 39 H 2.6685 -1.6704 -3.899 0
M  V30 40 H -1.1596 -1.1059 -0.8993 0
M  V30 41 H 3.2506 1.7121 1.7974 0
M  V30 42 H 1.9126 2.1679 0.7668 0
M  V30 43 H 4.8665 -0.0914 -2.4854 0
M  V30 44 H 4.2408 0.1622 -4.1153 0
M  V30 45 H 5.0889 -4.2466 -0.7776 0
M  V30 46 H -2.3074 -0.7708 1.2683 0
M  V30 47 H -3.4203 -0.5768 -0.063 0
M  V30 48 H -2.98 0.9757 -3.155 0
M  V30 49 H -2.1125 1.7319 1.4968 0
M  V30 50 H -3.1907 1.9505 0.1337 0
M  V30 51 H -5.6074 1.3497 0.3049 0
M  V30 52 H -2.9497 0.9607 3.6789 0
M  V30 53 H -7.5484 1.1745 1.8241 0
M  V30 54 H -4.9006 0.7862 5.1851 0
M  V30 55 H -7.202 0.8939 4.2646 0
M  V30 END ATOM
M  V30 BEGIN BOND
M  V30 1 2 1 2
M  V30 2 1 2 3
M  V30 3 1 2 4
M  V30 4 1 3 5
M  V30 5 1 3 6
M  V30 6 1 4 7
M  V30 7 1 4 8
M  V30 8 1 5 9
M  V30 9 1 5 10
M  V30 10 1 6 11
M  V30 11 1 6 12
M  V30 12 1 7 13
M  V30 13 1 8 14
M  V30 14 1 10 15
M  V30 15 2 11 16
M  V30 16 1 11 17
M  V30 17 1 13 18
M  V30 18 1 13 19
M  V30 19 2 18 20
M  V30 20 1 18 21
M  V30 21 1 19 22
M  V30 22 1 22 23
M  V30 23 2 23 24
M  V30 24 1 23 25
M  V30 25 1 24 26
M  V30 26 2 25 27
M  V30 27 2 26 28
M  V30 28 1 9 14
M  V30 29 1 12 15
M  V30 30 1 27 28
M  V30 31 1 4 29
M  V30 32 1 6 30
M  V30 33 1 7 31
M  V30 34 1 8 32
M  V30 35 1 8 33
M  V30 36 1 9 34
M  V30 37 1 9 35
M  V30 38 1 10 36
M  V30 39 1 10 37
M  V30 40 1 12 38
M  V30 41 1 12 39
M  V30 42 1 13 40
M  V30 43 1 14 41
M  V30 44 1 14 42
M  V30 45 1 15 43
M  V30 46 1 15 44
M  V30 47 1 17 45
M  V30 48 1 19 46
M  V30 49 1 19 47
M  V30 50 1 21 48
M  V30 51 1 22 49
M  V30 52 1 22 50
M  V30 53 1 24 51
M  V30 54 1 25 52
M  V30 55 1 26 53
M  V30 56 1 27 54
M  V30 57 1 28 55
M  V30 END BOND
M  V30 BEGIN COLLECTION
M  V30 MDLV30/STEABS ATOMS=(3 4 6 13)
M  V30 END COLLECTION
M  V30 END CTAB
M  END
>  <NO.>
7665

>  <Name>
(4s,7r)-7-[[(1s)-1-carboxy-3-phenylpropyl]amino]-6-oxo-1,2,3,4,7,8,9,10-octahydropyridazino[1,2-a]diazepine-4-carboxylic acid

>  <SMILES>
O=C(O)[C@H](CCc1ccccc1)N[C@@H]1CCCN2CCC[C@@H](C(=O)O)N2C1=O

>  <logBB>


>  <Class>
-1

>  <MW>
389.2

>  <nHBAcc>
5

>  <nHBDon>
3

>  <SLogP>
1.12

>  <TopoPSA>
110.18

>  <MMFF94 Energy>
127.67

$$$$
O=C(O)c1ccccc1C(=O)Nc1ccc(S(=O)(=O)Nc2nccs2)cc1
Actelion Java MolfileCreator 2.0

  0  0  0  0  0  0              0 V3000
M  V30 BEGIN CTAB
M  V30 COUNTS 40 42 0 0 0
M  V30 BEGIN ATOM
M  V30 1 S -0.5784 -4.0543 -1.3225 0
M  V30 2 O -1.28 -4.0171 -2.5862 0
M  V30 3 O -0.9736 -4.9518 -0.257 0
M  V30 4 N 1.0841 -4.2696 -1.5353 0
M  V30 5 C -0.6032 -2.4001 -0.6697 0
M  V30 6 C 1.3756 -5.0546 -2.7184 0
M  V30 7 C -0.8859 -2.1793 0.6788 0
M  V30 8 C -0.363 -1.3267 -1.5306 0
M  V30 9 S 1.4561 -4.4214 -4.302 0
M  V30 10 N 1.7475 -6.3003 -2.5629 0
M  V30 11 C -0.908 -0.8704 1.1683 0
M  V30 12 C -0.3856 -0.0207 -1.0311 0
M  V30 13 C 1.9287 -5.9704 -4.8697 0
M  V30 14 C 2.0365 -6.8384 -3.803 0
M  V30 15 C -0.6477 0.216 0.3211 0
M  V30 16 N -0.7053 1.5049 0.8902 0
M  V30 17 C -0.1716 2.6632 0.3653 0
M  V30 18 O 0.4602 2.7518 -0.6833 0
M  V30 19 C -0.4206 3.9277 1.1163 0
M  V30 20 C -0.2889 4.0972 2.5017 0
M  V30 21 C -0.7339 5.051 0.3274 0
M  V30 22 C 0.0374 2.9896 3.4115 0
M  V30 23 C -0.4862 5.3646 3.0798 0
M  V30 24 C -0.9343 6.306 0.9069 0
M  V30 25 O -0.5529 1.9279 3.4718 0
M  V30 26 O 1.0772 3.2927 4.204 0
M  V30 27 C -0.8108 6.4628 2.2838 0
M  V30 28 H 1.4135 -4.8178 -0.7394 0
M  V30 29 H -1.0914 -3.0075 1.3528 0
M  V30 30 H -0.1631 -1.4937 -2.5867 0
M  V30 31 H -1.1242 -0.708 2.2225 0
M  V30 32 H -0.2079 0.7968 -1.7242 0
M  V30 33 H 2.1087 -6.161 -5.9177 0
M  V30 34 H 2.3312 -7.8787 -3.8737 0
M  V30 35 H -1.1154 1.5476 1.8222 0
M  V30 36 H -0.8148 4.9492 -0.7547 0
M  V30 37 H -0.3842 5.4995 4.1552 0
M  V30 38 H -1.1761 7.1608 0.2789 0
M  V30 39 H 1.2294 2.495 4.7531 0
M  V30 40 H -0.9595 7.4406 2.7366 0
M  V30 END ATOM
M  V30 BEGIN BOND
M  V30 1 2 1 2
M  V30 2 2 1 3
M  V30 3 1 1 4
M  V30 4 1 1 5
M  V30 5 1 4 6
M  V30 6 2 5 7
M  V30 7 1 5 8
M  V30 8 1 6 9
M  V30 9 2 6 10
M  V30 10 1 7 11
M  V30 11 2 8 12
M  V30 12 1 9 13
M  V30 13 1 10 14
M  V30 14 2 11 15
M  V30 15 1 15 16
M  V30 16 1 16 17
M  V30 17 2 17 18
M  V30 18 1 17 19
M  V30 19 2 19 20
M  V30 20 1 19 21
M  V30 21 1 20 22
M  V30 22 1 20 23
M  V30 23 2 21 24
M  V30 24 2 22 25
M  V30 25 1 22 26
M  V30 26 2 23 27
M  V30 27 1 12 15
M  V30 28 2 13 14
M  V30 29 1 24 27
M  V30 30 1 4 28
M  V30 31 1 7 29
M  V30 32 1 8 30
M  V30 33 1 11 31
M  V30 34 1 12 32
M  V30 35 1 13 33
M  V30 36 1 14 34
M  V30 37 1 16 35
M  V30 38 1 21 36
M  V30 39 1 23 37
M  V30 40 1 24 38
M  V30 41 1 26 39
M  V30 42 1 27 40
M  V30 END BOND
M  V30 END CTAB
M  END
>  <NO.>
7667

>  <Name>
phthalylsulfathiazole

>  <SMILES>
O=C(O)c1ccccc1C(=O)Nc1ccc(S(=O)(=O)Nc2nccs2)cc1

>  <logBB>


>  <Class>
-1

>  <MW>
403.03

>  <nHBAcc>
6

>  <nHBDon>
3

>  <SLogP>
2.89

>  <TopoPSA>
125.46

>  <MMFF94 Energy>
-74.558

$$$$
O=C(c1ccc(F)cc1)C1CCN(CCn2c(=O)[nH]c3ccccc3c2=O)CC1
Actelion Java MolfileCreator 2.0

  0  0  0  0  0  0              0 V3000
M  V30 BEGIN CTAB
M  V30 COUNTS 51 54 0 0 0
M  V30 BEGIN ATOM
M  V30 1 F 4.502 -6.0331 0.321 0
M  V30 2 C 4.251 -4.7653 0.6715 0
M  V30 3 C 5.2581 -3.8143 0.5745 0
M  V30 4 C 2.985 -4.4201 1.1308 0
M  V30 5 C 4.9922 -2.493 0.9411 0
M  V30 6 C 2.7151 -3.0978 1.4987 0
M  V30 7 C 3.717 -2.1217 1.4003 0
M  V30 8 C 3.4964 -0.6898 1.7813 0
M  V30 9 O 4.4843 0.0244 1.9499 0
M  V30 10 C 2.073 -0.1583 1.9488 0
M  V30 11 C 2.0772 1.2242 2.613 0
M  V30 12 C 1.3623 -0.0575 0.5974 0
M  V30 13 C 0.6652 1.801 2.7004 0
M  V30 14 C -0.0292 0.5605 0.7467 0
M  V30 15 N 0.0358 1.8885 1.3716 0
M  V30 16 C -1.3022 2.5119 1.4824 0
M  V30 17 C -1.7644 3.2914 0.2277 0
M  V30 18 N -2.1374 2.4631 -0.9139 0
M  V30 19 C -1.3523 2.5225 -2.0552 0
M  V30 20 C -3.3027 1.7057 -0.8047 0
M  V30 21 O -0.3639 3.2406 -2.1937 0
M  V30 22 N -1.7271 1.7227 -3.0986 0
M  V30 23 O -4.0325 1.7058 0.1847 0
M  V30 24 C -3.6573 0.8575 -1.9582 0
M  V30 25 C -2.8411 0.8907 -3.0821 0
M  V30 26 C -4.786 0.032 -1.9314 0
M  V30 27 C -3.1401 0.101 -4.1922 0
M  V30 28 C -5.0884 -0.7602 -3.0398 0
M  V30 29 C -4.2661 -0.7255 -4.1678 0
M  V30 30 H 6.2418 -4.103 0.2179 0
M  V30 31 H 2.2167 -5.1842 1.2032 0
M  V30 32 H 5.7858 -1.7507 0.866 0
M  V30 33 H 1.7204 -2.8636 1.8641 0
M  V30 34 H 1.5268 -0.833 2.6187 0
M  V30 35 H 2.5072 1.1538 3.6199 0
M  V30 36 H 2.7165 1.9175 2.0498 0
M  V30 37 H 1.263 -1.0451 0.1338 0
M  V30 38 H 1.9621 0.5459 -0.0974 0
M  V30 39 H 0.0554 1.1911 3.3802 0
M  V30 40 H 0.7427 2.8025 3.1416 0
M  V30 41 H -0.4619 0.6199 -0.2539 0
M  V30 42 H -0.6672 -0.1147 1.3323 0
M  V30 43 H -1.2726 3.2648 2.2823 0
M  V30 44 H -2.049 1.774 1.7989 0
M  V30 45 H -2.652 3.876 0.5039 0
M  V30 46 H -0.9916 4.0165 -0.0516 0
M  V30 47 H -1.1357 1.782 -3.9175 0
M  V30 48 H -5.4282 0.0058 -1.0535 0
M  V30 49 H -2.5115 0.1192 -5.0783 0
M  V30 50 H -5.9659 -1.4029 -3.0246 0
M  V30 51 H -4.5052 -1.3429 -5.031 0
M  V30 END ATOM
M  V30 BEGIN BOND
M  V30 1 1 1 2
M  V30 2 2 2 3
M  V30 3 1 2 4
M  V30 4 1 3 5
M  V30 5 2 4 6
M  V30 6 2 5 7
M  V30 7 1 7 8
M  V30 8 2 8 9
M  V30 9 1 8 10
M  V30 10 1 10 11
M  V30 11 1 10 12
M  V30 12 1 11 13
M  V30 13 1 12 14
M  V30 14 1 13 15
M  V30 15 1 15 16
M  V30 16 1 16 17
M  V30 17 1 17 18
M  V30 18 1 18 19
M  V30 19 1 18 20
M  V30 20 2 19 21
M  V30 21 1 19 22
M  V30 22 2 20 23
M  V30 23 1 20 24
M  V30 24 1 22 25
M  V30 25 1 24 26
M  V30 26 1 25 27
M  V30 27 2 26 28
M  V30 28 2 27 29
M  V30 29 1 6 7
M  V30 30 1 14 15
M  V30 31 2 24 25
M  V30 32 1 28 29
M  V30 33 1 3 30
M  V30 34 1 4 31
M  V30 35 1 5 32
M  V30 36 1 6 33
M  V30 37 1 10 34
M  V30 38 1 11 35
M  V30 39 1 11 36
M  V30 40 1 12 37
M  V30 41 1 12 38
M  V30 42 1 13 39
M  V30 43 1 13 40
M  V30 44 1 14 41
M  V30 45 1 14 42
M  V30 46 1 16 43
M  V30 47 1 16 44
M  V30 48 1 17 45
M  V30 49 1 17 46
M  V30 50 1 22 47
M  V30 51 1 26 48
M  V30 52 1 27 49
M  V30 53 1 28 50
M  V30 54 1 29 51
M  V30 END BOND
M  V30 END CTAB
M  END
>  <NO.>
7669

>  <Name>
ketanserin

>  <SMILES>
O=C(c1ccc(F)cc1)C1CCN(CCn2c(=O)[nH]c3ccccc3c2=O)CC1

>  <logBB>


>  <Class>
1

>  <MW>
395.16

>  <nHBAcc>
4

>  <nHBDon>
1

>  <SLogP>
2.42

>  <TopoPSA>
75.17

>  <MMFF94 Energy>
-6.065

$$$$
O=C1NNC(=O)C1(c1ccccc1)c1ccccc1
Actelion Java MolfileCreator 2.0

  0  0  0  0  0  0              0 V3000
M  V30 BEGIN CTAB
M  V30 COUNTS 31 33 0 0 0
M  V30 BEGIN ATOM
M  V30 1 O 2.174 -0.3218 -1.8517 0
M  V30 2 C 1.0142 0.0574 -1.9365 0
M  V30 3 N 0.4344 0.4814 -3.1192 0
M  V30 4 C -0.0618 0.1514 -0.814 0
M  V30 5 N -0.8719 0.8416 -2.9439 0
M  V30 6 C -0.4461 -1.2195 -0.2085 0
M  V30 7 C 0.4419 1.1339 0.2699 0
M  V30 8 C -1.2749 0.691 -1.6287 0
M  V30 9 C 0.1589 -2.427 -0.5981 0
M  V30 10 C -1.4487 -1.28 0.7814 0
M  V30 11 C -0.1724 2.3715 0.5291 0
M  V30 12 C 1.5693 0.7889 1.0438 0
M  V30 13 O -2.4006 0.9598 -1.233 0
M  V30 14 C -0.2246 -3.6424 -0.0224 0
M  V30 15 C -1.8307 -2.4949 1.3537 0
M  V30 16 C 0.3218 3.2269 1.519 0
M  V30 17 C 2.0616 1.6452 2.0306 0
M  V30 18 C -1.2184 -3.6766 0.9511 0
M  V30 19 C 1.4374 2.8649 2.2679 0
M  V30 20 H 0.9249 0.5212 -4.005 0
M  V30 21 H -1.4776 1.176 -3.6843 0
M  V30 22 H 0.9467 -2.4569 -1.3471 0
M  V30 23 H -1.9471 -0.3705 1.1166 0
M  V30 24 H -1.0521 2.7 -0.0194 0
M  V30 25 H 2.0798 -0.1599 0.8801 0
M  V30 26 H 0.2591 -4.5646 -0.3345 0
M  V30 27 H -2.6069 -2.5141 2.1144 0
M  V30 28 H -0.1708 4.1778 1.7069 0
M  V30 29 H 2.9327 1.3557 2.6126 0
M  V30 30 H -1.5132 -4.6224 1.3972 0
M  V30 31 H 1.8181 3.5314 3.037 0
M  V30 END ATOM
M  V30 BEGIN BOND
M  V30 1 2 1 2
M  V30 2 1 2 3
M  V30 3 1 2 4
M  V30 4 1 3 5
M  V30 5 1 4 6
M  V30 6 1 4 7
M  V30 7 1 4 8
M  V30 8 2 6 9
M  V30 9 1 6 10
M  V30 10 2 7 11
M  V30 11 1 7 12
M  V30 12 2 8 13
M  V30 13 1 9 14
M  V30 14 2 10 15
M  V30 15 1 11 16
M  V30 16 2 12 17
M  V30 17 2 14 18
M  V30 18 2 16 19
M  V30 19 1 5 8
M  V30 20 1 15 18
M  V30 21 1 17 19
M  V30 22 1 3 20
M  V30 23 1 5 21
M  V30 24 1 9 22
M  V30 25 1 10 23
M  V30 26 1 11 24
M  V30 27 1 12 25
M  V30 28 1 14 26
M  V30 29 1 15 27
M  V30 30 1 16 28
M  V30 31 1 17 29
M  V30 32 1 18 30
M  V30 33 1 19 31
M  V30 END BOND
M  V30 END CTAB
M  END
>  <NO.>
7685

>  <Name>


>  <SMILES>
O=C1NNC(=O)C1(c1ccccc1)c1ccccc1

>  <logBB>


>  <Class>
1

>  <MW>
252.09

>  <nHBAcc>
2

>  <nHBDon>
2

>  <SLogP>
1.13

>  <TopoPSA>
58.2

>  <MMFF94 Energy>
126.7

$$$$
O=C1NS(=O)(=O)c2ccccc21
Actelion Java MolfileCreator 2.0

  0  0  0  0  0  0              0 V3000
M  V30 BEGIN CTAB
M  V30 COUNTS 17 18 0 0 0
M  V30 BEGIN ATOM
M  V30 1 S 1.3404 0.5025 1.5919 0
M  V30 2 O 1.472 1.9285 1.7616 0
M  V30 3 O 2.4122 -0.4393 1.7978 0
M  V30 4 N -0.006 -0.003 2.4475 0
M  V30 5 C 0.6044 0.1848 0.0489 0
M  V30 6 C -1.1073 -0.3168 1.6277 0
M  V30 7 C -0.6943 -0.277 0.2144 0
M  V30 8 C 1.1946 0.3246 -1.1931 0
M  V30 9 O -2.2342 -0.5097 2.0356 0
M  V30 10 C -1.473 -0.6015 -0.8843 0
M  V30 11 C 0.4206 -0.0076 -2.3072 0
M  V30 12 C -0.9024 -0.4657 -2.1547 0
M  V30 13 H -0.206 0.4252 3.3457 0
M  V30 14 H 2.2163 0.6756 -1.2994 0
M  V30 15 H -2.4954 -0.9485 -0.7638 0
M  V30 16 H 0.8427 0.0875 -3.3064 0
M  V30 17 H -1.4877 -0.7155 -3.0383 0
M  V30 END ATOM
M  V30 BEGIN BOND
M  V30 1 2 1 2
M  V30 2 2 1 3
M  V30 3 1 1 4
M  V30 4 1 1 5
M  V30 5 1 4 6
M  V30 6 2 5 7
M  V30 7 1 5 8
M  V30 8 2 6 9
M  V30 9 1 7 10
M  V30 10 2 8 11
M  V30 11 2 10 12
M  V30 12 1 6 7
M  V30 13 1 11 12
M  V30 14 1 4 13
M  V30 15 1 8 14
M  V30 16 1 10 15
M  V30 17 1 11 16
M  V30 18 1 12 17
M  V30 END BOND
M  V30 END CTAB
M  END
>  <NO.>
7686

>  <Name>
saccharin

>  <SMILES>
O=C1NS(=O)(=O)c2ccccc21

>  <logBB>


>  <Class>
1

>  <MW>
183

>  <nHBAcc>
3

>  <nHBDon>
1

>  <SLogP>
0.12

>  <TopoPSA>
63.24

>  <MMFF94 Energy>
-86.216

$$$$
O=P(O)(O)C(Cc1ccc(Cl)cc1)P(=O)(O)O
Actelion Java MolfileCreator 2.0

  0  0  0  0  0  0              0 V3000
M  V30 BEGIN CTAB
M  V30 COUNTS 28 28 0 0 0
M  V30 BEGIN ATOM
M  V30 1 Cl 1.0933 -4.8846 -2.6928 0
M  V30 2 C 0.7608 -3.2872 -2.1456 0
M  V30 3 C 1.809 -2.457 -1.756 0
M  V30 4 C -0.5542 -2.831 -2.0983 0
M  V30 5 C 1.5393 -1.1603 -1.3131 0
M  V30 6 C -0.8242 -1.5339 -1.6565 0
M  V30 7 C 0.2197 -0.6887 -1.257 0
M  V30 8 C -0.0693 0.7103 -0.7734 0
M  V30 9 C 0.0963 0.8966 0.7435 0
M  V30 10 P 0.2589 2.6437 1.0978 0
M  V30 11 P -1.1491 -0.0163 1.6449 0
M  V30 12 O -0.8931 3.5579 0.8557 0
M  V30 13 O 1.5423 3.1328 0.2608 0
M  V30 14 O 0.8549 2.7862 2.5769 0
M  V30 15 O -1.0594 -1.5052 1.6907 0
M  V30 16 O -2.5753 0.4527 1.0867 0
M  V30 17 O -1.2037 0.5838 3.1271 0
M  V30 18 H 2.8349 -2.8119 -1.7932 0
M  V30 19 H -1.3728 -3.4793 -2.3981 0
M  V30 20 H 2.3672 -0.5203 -1.0144 0
M  V30 21 H -1.8569 -1.1933 -1.6185 0
M  V30 22 H 0.5991 1.3874 -1.3189 0
M  V30 23 H -1.0817 1.0097 -1.0708 0
M  V30 24 H 1.0557 0.4629 1.0516 0
M  V30 25 H 1.6243 4.1048 0.2351 0
M  V30 26 H 0.7842 3.6901 2.9355 0
M  V30 27 H -3.3109 -0.1091 1.3942 0
M  V30 28 H -1.6936 0.0169 3.7517 0
M  V30 END ATOM
M  V30 BEGIN BOND
M  V30 1 1 1 2
M  V30 2 2 2 3
M  V30 3 1 2 4
M  V30 4 1 3 5
M  V30 5 2 4 6
M  V30 6 2 5 7
M  V30 7 1 7 8
M  V30 8 1 8 9
M  V30 9 1 9 10
M  V30 10 1 9 11
M  V30 11 2 10 12
M  V30 12 1 10 13
M  V30 13 1 10 14
M  V30 14 2 11 15
M  V30 15 1 11 16
M  V30 16 1 11 17
M  V30 17 1 6 7
M  V30 18 1 3 18
M  V30 19 1 4 19
M  V30 20 1 5 20
M  V30 21 1 6 21
M  V30 22 1 8 22
M  V30 23 1 8 23
M  V30 24 1 9 24
M  V30 25 1 13 25
M  V30 26 1 14 26
M  V30 27 1 16 27
M  V30 28 1 17 28
M  V30 END BOND
M  V30 END CTAB
M  END
>  <NO.>
7692

>  <Name>
chembl33994

>  <SMILES>
O=P(O)(O)C(Cc1ccc(Cl)cc1)P(=O)(O)O

>  <logBB>


>  <Class>
-1

>  <MW>
299.97

>  <nHBAcc>
2

>  <nHBDon>
4

>  <SLogP>
1.56

>  <TopoPSA>
115.06

>  <MMFF94 Energy>
-279.8

$$$$
O=c1[nH]c2ccccc2n1CCCN1CCC(Nn2c(=O)[nH]c3cc(Cl)ccc32)CC1
Actelion Java MolfileCreator 2.0

  0  0  0  0  0  0              0 V3000
M  V30 BEGIN CTAB
M  V30 COUNTS 56 60 0 0 0
M  V30 BEGIN ATOM
M  V30 1 Cl -4.2644 -0.1606 7.6537 0
M  V30 2 C -3.8137 0.5772 6.1638 0
M  V30 3 C -2.9287 1.6581 6.1767 0
M  V30 4 C -4.3485 0.0744 4.9581 0
M  V30 5 C -2.6077 2.202 4.9543 0
M  V30 6 C -4.0058 0.6474 3.7272 0
M  V30 7 N -1.7698 3.2765 4.6711 0
M  V30 8 C -3.1303 1.7128 3.754 0
M  V30 9 C -1.7509 3.4979 3.275 0
M  V30 10 N -2.5971 2.4885 2.7161 0
M  V30 11 O -1.1235 4.3842 2.7189 0
M  V30 12 N -2.9415 2.3983 1.3721 0
M  V30 13 C -2.1627 1.3817 0.6491 0
M  V30 14 C -2.8434 1.0801 -0.6898 0
M  V30 15 C -0.7258 1.8416 0.3901 0
M  V30 16 C -2.0262 0.0723 -1.4978 0
M  V30 17 C 0.0313 0.8221 -0.4633 0
M  V30 18 N -0.6572 0.5548 -1.7364 0
M  V30 19 C 0.078 -0.4224 -2.5645 0
M  V30 20 C 1.3685 0.1616 -3.1545 0
M  V30 21 C 2.0285 -0.7875 -4.1576 0
M  V30 22 N 2.5413 -1.991 -3.5518 0
M  V30 23 C 1.8922 -3.2425 -3.5467 0
M  V30 24 C 3.7493 -2.1089 -2.85 0
M  V30 25 O 0.8129 -3.5268 -4.0379 0
M  V30 26 N 2.7271 -4.1219 -2.84 0
M  V30 27 C 3.8558 -3.4307 -2.4155 0
M  V30 28 C 4.7282 -1.1798 -2.5734 0
M  V30 29 C 4.9316 -3.8875 -1.6901 0
M  V30 30 C 5.8342 -1.6189 -1.8359 0
M  V30 31 C 5.9347 -2.9577 -1.3994 0
M  V30 32 H -2.5193 2.0471 7.1007 0
M  V30 33 H -5.0354 -0.7692 4.9819 0
M  V30 34 H -4.4116 0.261 2.8003 0
M  V30 35 H -1.2594 3.8487 5.3239 0
M  V30 36 H -3.9411 2.219 1.2984 0
M  V30 37 H -2.1437 0.4493 1.2298 0
M  V30 38 H -3.8486 0.6738 -0.5208 0
M  V30 39 H -2.9663 2.0025 -1.2736 0
M  V30 40 H -0.7238 2.8152 -0.1182 0
M  V30 41 H -0.1871 1.9737 1.3357 0
M  V30 42 H -2.0136 -0.8948 -0.9779 0
M  V30 43 H -2.5379 -0.0807 -2.4559 0
M  V30 44 H 1.029 1.2339 -0.6469 0
M  V30 45 H 0.1632 -0.1062 0.1079 0
M  V30 46 H -0.5578 -0.7239 -3.4072 0
M  V30 47 H 0.2914 -1.3293 -1.9853 0
M  V30 48 H 1.1335 1.0995 -3.6733 0
M  V30 49 H 2.0823 0.4031 -2.3602 0
M  V30 50 H 2.8551 -0.2777 -4.6656 0
M  V30 51 H 1.3027 -1.0678 -4.9299 0
M  V30 52 H 2.5096 -5.0914 -2.6815 0
M  V30 53 H 4.6565 -0.1514 -2.9058 0
M  V30 54 H 5.0048 -4.9154 -1.3575 0
M  V30 55 H 6.631 -0.9179 -1.5945 0
M  V30 56 H 6.8075 -3.2681 -0.8284 0
M  V30 END ATOM
M  V30 BEGIN BOND
M  V30 1 1 1 2
M  V30 2 2 2 3
M  V30 3 1 2 4
M  V30 4 1 3 5
M  V30 5 2 4 6
M  V30 6 1 5 7
M  V30 7 2 5 8
M  V30 8 1 7 9
M  V30 9 1 8 10
M  V30 10 2 9 11
M  V30 11 1 10 12
M  V30 12 1 12 13
M  V30 13 1 13 14
M  V30 14 1 13 15
M  V30 15 1 14 16
M  V30 16 1 15 17
M  V30 17 1 16 18
M  V30 18 1 18 19
M  V30 19 1 19 20
M  V30 20 1 20 21
M  V30 21 1 21 22
M  V30 22 1 22 23
M  V30 23 1 22 24
M  V30 24 2 23 25
M  V30 25 1 23 26
M  V30 26 2 24 27
M  V30 27 1 24 28
M  V30 28 1 27 29
M  V30 29 2 28 30
M  V30 30 2 29 31
M  V30 31 1 6 8
M  V30 32 1 9 10
M  V30 33 1 17 18
M  V30 34 1 26 27
M  V30 35 1 30 31
M  V30 36 1 3 32
M  V30 37 1 4 33
M  V30 38 1 6 34
M  V30 39 1 7 35
M  V30 40 1 12 36
M  V30 41 1 13 37
M  V30 42 1 14 38
M  V30 43 1 14 39
M  V30 44 1 15 40
M  V30 45 1 15 41
M  V30 46 1 16 42
M  V30 47 1 16 43
M  V30 48 1 17 44
M  V30 49 1 17 45
M  V30 50 1 19 46
M  V30 51 1 19 47
M  V30 52 1 20 48
M  V30 53 1 20 49
M  V30 54 1 21 50
M  V30 55 1 21 51
M  V30 56 1 26 52
M  V30 57 1 28 53
M  V30 58 1 29 54
M  V30 59 1 30 55
M  V30 60 1 31 56
M  V30 END BOND
M  V30 END CTAB
M  END
>  <NO.>
7697

>  <Name>


>  <SMILES>
O=c1[nH]c2ccccc2n1CCCN1CCC(Nn2c(=O)[nH]c3cc(Cl)ccc32)CC1

>  <logBB>


>  <Class>
1

>  <MW>
440.17

>  <nHBAcc>
4

>  <nHBDon>
3

>  <SLogP>
2.72

>  <TopoPSA>
90.85

>  <MMFF94 Energy>
12.045

$$$$
O=c1[nH]c2ccccc2n1CCCN1CCN(C(c2ccccc2)c2ccccc2)CC1
Actelion Java MolfileCreator 2.0

  0  0  0  0  0  0              0 V3000
M  V30 BEGIN CTAB
M  V30 COUNTS 62 66 0 0 0
M  V30 BEGIN ATOM
M  V30 1 O -1.1168 2.7938 3.673 0
M  V30 2 C -2.0551 3.4682 3.2832 0
M  V30 3 N -2.6184 3.5096 1.9912 0
M  V30 4 N -2.7998 4.3628 4.0697 0
M  V30 5 C -3.7004 4.4004 1.9997 0
M  V30 6 C -2.1888 2.7057 0.8732 0
M  V30 7 C -3.8018 4.9262 3.2884 0
M  V30 8 C -4.5731 4.7721 1.0003 0
M  V30 9 C -2.9561 1.3852 0.8031 0
M  V30 10 C -4.7678 5.84 3.6416 0
M  V30 11 C -5.5659 5.7016 1.3335 0
M  V30 12 C -2.5913 0.5521 -0.4312 0
M  V30 13 C -5.6618 6.2297 2.6394 0
M  V30 14 N -1.1566 0.2679 -0.5713 0
M  V30 15 C -0.6525 -0.61 0.5048 0
M  V30 16 C -0.8858 -0.3789 -1.8706 0
M  V30 17 C 0.8378 -0.9793 0.3163 0
M  V30 18 C 0.6067 -0.7353 -2.0518 0
M  V30 19 N 1.1071 -1.6401 -0.9869 0
M  V30 20 C 2.568 -1.9125 -1.1552 0
M  V30 21 C 3.1602 -2.7902 -0.0426 0
M  V30 22 C 2.9257 -2.5164 -2.5216 0
M  V30 23 C 4.3809 -2.4324 0.5555 0
M  V30 24 C 2.5282 -3.9713 0.384 0
M  V30 25 C 2.2102 -3.599 -3.0623 0
M  V30 26 C 4.0125 -2.0031 -3.2504 0
M  V30 27 C 4.9441 -3.2256 1.5574 0
M  V30 28 C 3.0928 -4.7627 1.3859 0
M  V30 29 C 2.5627 -4.1428 -4.2987 0
M  V30 30 C 4.3637 -2.5488 -4.4869 0
M  V30 31 C 4.2998 -4.3891 1.9724 0
M  V30 32 C 3.6385 -3.617 -5.0105 0
M  V30 33 H -2.6157 4.5328 5.0442 0
M  V30 34 H -2.3072 3.2828 -0.0504 0
M  V30 35 H -1.1188 2.5069 1.002 0
M  V30 36 H -4.5034 4.3706 -0.0028 0
M  V30 37 H -4.0341 1.5896 0.7704 0
M  V30 38 H -2.7925 0.808 1.7211 0
M  V30 39 H -4.8383 6.2413 4.6451 0
M  V30 40 H -6.2761 6.0243 0.5746 0
M  V30 41 H -3.1725 -0.3792 -0.4165 0
M  V30 42 H -2.9277 1.1154 -1.3118 0
M  V30 43 H -6.4446 6.9508 2.8672 0
M  V30 44 H -1.246 -1.5327 0.5589 0
M  V30 45 H -0.7417 -0.1056 1.4733 0
M  V30 46 H -1.4887 -1.2905 -1.9821 0
M  V30 47 H -1.1712 0.3021 -2.6818 0
M  V30 48 H 1.1051 -1.641 1.147 0
M  V30 49 H 1.4446 -0.0688 0.4176 0
M  V30 50 H 0.6995 -1.207 -3.0357 0
M  V30 51 H 1.1956 0.1918 -2.0785 0
M  V30 52 H 3.071 -0.9353 -1.0951 0
M  V30 53 H 4.903 -1.5314 0.2421 0
M  V30 54 H 1.5823 -4.2721 -0.0605 0
M  V30 55 H 1.3654 -4.0167 -2.5194 0
M  V30 56 H 4.5965 -1.1748 -2.8557 0
M  V30 57 H 5.8877 -2.9362 2.0123 0
M  V30 58 H 2.5892 -5.6704 1.707 0
M  V30 59 H 1.9979 -4.9784 -4.7032 0
M  V30 60 H 5.2069 -2.1427 -5.0394 0
M  V30 61 H 4.7393 -5.006 2.7515 0
M  V30 62 H 3.9143 -4.0429 -5.9713 0
M  V30 END ATOM
M  V30 BEGIN BOND
M  V30 1 2 1 2
M  V30 2 1 2 3
M  V30 3 1 2 4
M  V30 4 1 3 5
M  V30 5 1 3 6
M  V30 6 1 4 7
M  V30 7 1 5 8
M  V30 8 1 6 9
M  V30 9 1 7 10
M  V30 10 2 8 11
M  V30 11 1 9 12
M  V30 12 2 10 13
M  V30 13 1 12 14
M  V30 14 1 14 15
M  V30 15 1 14 16
M  V30 16 1 15 17
M  V30 17 1 16 18
M  V30 18 1 17 19
M  V30 19 1 19 20
M  V30 20 1 20 21
M  V30 21 1 20 22
M  V30 22 2 21 23
M  V30 23 1 21 24
M  V30 24 2 22 25
M  V30 25 1 22 26
M  V30 26 1 23 27
M  V30 27 2 24 28
M  V30 28 1 25 29
M  V30 29 2 26 30
M  V30 30 2 27 31
M  V30 31 2 29 32
M  V30 32 2 5 7
M  V30 33 1 11 13
M  V30 34 1 18 19
M  V30 35 1 28 31
M  V30 36 1 30 32
M  V30 37 1 4 33
M  V30 38 1 6 34
M  V30 39 1 6 35
M  V30 40 1 8 36
M  V30 41 1 9 37
M  V30 42 1 9 38
M  V30 43 1 10 39
M  V30 44 1 11 40
M  V30 45 1 12 41
M  V30 46 1 12 42
M  V30 47 1 13 43
M  V30 48 1 15 44
M  V30 49 1 15 45
M  V30 50 1 16 46
M  V30 51 1 16 47
M  V30 52 1 17 48
M  V30 53 1 17 49
M  V30 54 1 18 50
M  V30 55 1 18 51
M  V30 56 1 20 52
M  V30 57 1 23 53
M  V30 58 1 24 54
M  V30 59 1 25 55
M  V30 60 1 26 56
M  V30 61 1 27 57
M  V30 62 1 28 58
M  V30 63 1 29 59
M  V30 64 1 30 60
M  V30 65 1 31 61
M  V30 66 1 32 62
M  V30 END BOND
M  V30 END CTAB
M  END
>  <NO.>
7698

>  <Name>
oxatomide

>  <SMILES>
O=c1[nH]c2ccccc2n1CCCN1CCN(C(c2ccccc2)c2ccccc2)CC1

>  <logBB>


>  <Class>
1

>  <MW>
426.24

>  <nHBAcc>
3

>  <nHBDon>
1

>  <SLogP>
4.13

>  <TopoPSA>
44.27

>  <MMFF94 Energy>
93.564

$$$$
ON=Cc1cc[n+](COC[n+]2ccc(/C=N/O)cc2)cc1
Actelion Java MolfileCreator 2.0

  0  0  0  0  0  0              0 V3000
M  V30 BEGIN CTAB
M  V30 COUNTS 37 38 0 0 0
M  V30 BEGIN ATOM
M  V30 1 O -0.7886 -0.7886 0.4731 0
M  V30 2 C -1.5952 -1.6263 -0.3517 0
M  V30 3 C -1.1712 -0.8609 1.8458 0
M  V30 4 N -1.1984 -1.4318 -1.7654 0 CHG=1
M  V30 5 N -0.2606 -0.0114 2.6492 0 CHG=1
M  V30 6 C -0.0791 -2.0358 -2.2352 0
M  V30 7 C -1.9503 -0.6503 -2.5777 0
M  V30 8 C 0.5803 -0.5714 3.5533 0
M  V30 9 C -0.2861 1.3326 2.4758 0
M  V30 10 C 0.3203 -1.8724 -3.5568 0
M  V30 11 C -1.5925 -0.4554 -3.904 0
M  V30 12 C 1.4347 0.2167 4.3172 0
M  V30 13 C 0.5474 2.1606 3.2125 0
M  V30 14 C -0.4466 -1.0733 -4.395 0
M  V30 15 C 1.4153 1.5945 4.1407 0
M  V30 16 C -0.0351 -0.8852 -5.7979 0
M  V30 17 C 2.3177 2.4434 4.9395 0
M  V30 18 N -0.7188 -0.1314 -6.595 0
M  V30 19 N 2.3338 3.7265 4.783 0
M  V30 20 O -0.0976 -0.1395 -7.8486 0
M  V30 21 O 3.2785 4.2649 5.6635 0
M  V30 22 H -1.4417 -2.6825 -0.1035 0
M  V30 23 H -2.6559 -1.3735 -0.2469 0
M  V30 24 H -2.1864 -0.4739 1.9895 0
M  V30 25 H -1.109 -1.8922 2.2082 0
M  V30 26 H 0.4943 -2.6474 -1.5435 0
M  V30 27 H -2.8384 -0.1804 -2.163 0
M  V30 28 H 0.568 -1.6527 3.6649 0
M  V30 29 H -0.9765 1.7368 1.7402 0
M  V30 30 H 1.2206 -2.3639 -3.9209 0
M  V30 31 H -2.2048 0.1739 -4.5492 0
M  V30 32 H 2.1047 -0.2456 5.0401 0
M  V30 33 H 0.5189 3.2395 3.0635 0
M  V30 34 H 0.8765 -1.4084 -6.1414 0
M  V30 35 H 2.9786 1.9447 5.6727 0
M  V30 36 H -0.6744 0.4345 -8.3896 0
M  V30 37 H 3.2215 5.2259 5.4957 0
M  V30 END ATOM
M  V30 BEGIN BOND
M  V30 1 1 1 2
M  V30 2 1 1 3
M  V30 3 1 2 4
M  V30 4 1 3 5
M  V30 5 2 4 6
M  V30 6 1 4 7
M  V30 7 2 5 8
M  V30 8 1 5 9
M  V30 9 1 6 10
M  V30 10 2 7 11
M  V30 11 1 8 12
M  V30 12 2 9 13
M  V30 13 2 10 14
M  V30 14 2 12 15
M  V30 15 1 14 16
M  V30 16 1 15 17
M  V30 17 2 16 18
M  V30 18 2 17 19
M  V30 19 1 18 20
M  V30 20 1 19 21
M  V30 21 1 11 14
M  V30 22 1 13 15
M  V30 23 1 2 22
M  V30 24 1 2 23
M  V30 25 1 3 24
M  V30 26 1 3 25
M  V30 27 1 6 26
M  V30 28 1 7 27
M  V30 29 1 8 28
M  V30 30 1 9 29
M  V30 31 1 10 30
M  V30 32 1 11 31
M  V30 33 1 12 32
M  V30 34 1 13 33
M  V30 35 1 16 34
M  V30 36 1 17 35
M  V30 37 1 20 36
M  V30 38 1 21 37
M  V30 END BOND
M  V30 END CTAB
M  END
>  <NO.>
7706

>  <Name>


>  <SMILES>
ON=Cc1cc[n+](COC[n+]2ccc(/C=N/O)cc2)cc1

>  <logBB>


>  <Class>
-1

>  <MW>
288.12

>  <nHBAcc>
5

>  <nHBDon>
2

>  <SLogP>
0.51

>  <TopoPSA>
82.17

>  <MMFF94 Energy>
139.1

$$$$
Oc1ccc([C@H](O)[C@@H]2CCCCN2)cc1O
Actelion Java MolfileCreator 2.0

  0  0  0  0  0  0              0 V3000
M  V30 BEGIN CTAB
M  V30 COUNTS 33 34 0 0 0
M  V30 BEGIN ATOM
M  V30 1 O 0.5517 -0.2364 -4.579 0
M  V30 2 C 0.2432 0.5026 -3.4701 0
M  V30 3 C -0.6791 1.5343 -3.6141 0
M  V30 4 C 0.824 0.2455 -2.2332 0
M  V30 5 O -1.2484 1.7747 -4.8317 0
M  V30 6 C -1.0274 2.3297 -2.5342 0
M  V30 7 C 0.4841 1.038 -1.1223 0
M  V30 8 C -0.4439 2.0833 -1.2891 0
M  V30 9 C 1.0813 0.7647 0.2408 0 CFG=2
M  V30 10 O 2.4819 0.4896 0.0811 0
M  V30 11 C 0.427 -0.4419 0.9803 0 CFG=1
M  V30 12 N 1.2569 -0.7703 2.1737 0
M  V30 13 C -1.0273 -0.1634 1.3889 0
M  V30 14 C 0.7238 -1.9468 2.8684 0
M  V30 15 C -1.6167 -1.3329 2.1748 0
M  V30 16 C -0.711 -1.7215 3.3378 0
M  V30 17 H 1.2614 -0.8549 -4.3329 0
M  V30 18 H 1.5483 -0.5554 -2.1138 0
M  V30 19 H -0.8451 1.1076 -5.422 0
M  V30 20 H -1.7434 3.1358 -2.6605 0
M  V30 21 H -0.7202 2.7143 -0.447 0
M  V30 22 H 1.0179 1.6659 0.8634 0
M  V30 23 H 2.7069 -0.0552 0.8638 0
M  V30 24 H 0.4593 -1.3133 0.3119 0
M  V30 25 H 1.2265 0.0224 2.8196 0
M  V30 26 H -1.0774 0.7461 2.0012 0
M  V30 27 H -1.649 0.0114 0.5042 0
M  V30 28 H 1.3598 -2.1614 3.7342 0
M  V30 29 H 0.7801 -2.824 2.213 0
M  V30 30 H -2.6131 -1.07 2.5468 0
M  V30 31 H -1.7404 -2.1938 1.5063 0
M  V30 32 H -1.0923 -2.6309 3.8155 0
M  V30 33 H -0.7309 -0.9292 4.0968 0
M  V30 END ATOM
M  V30 BEGIN BOND
M  V30 1 1 1 2
M  V30 2 2 2 3
M  V30 3 1 2 4
M  V30 4 1 3 5
M  V30 5 1 3 6
M  V30 6 2 4 7
M  V30 7 2 6 8
M  V30 8 1 7 9
M  V30 9 1 9 10
M  V30 10 1 9 11
M  V30 11 1 11 12
M  V30 12 1 11 13
M  V30 13 1 12 14
M  V30 14 1 13 15
M  V30 15 1 14 16
M  V30 16 1 7 8
M  V30 17 1 15 16
M  V30 18 1 1 17
M  V30 19 1 4 18
M  V30 20 1 5 19
M  V30 21 1 6 20
M  V30 22 1 8 21
M  V30 23 1 9 22
M  V30 24 1 10 23
M  V30 25 1 11 24
M  V30 26 1 12 25
M  V30 27 1 13 26
M  V30 28 1 13 27
M  V30 29 1 14 28
M  V30 30 1 14 29
M  V30 31 1 15 30
M  V30 32 1 15 31
M  V30 33 1 16 32
M  V30 34 1 16 33
M  V30 END BOND
M  V30 BEGIN COLLECTION
M  V30 MDLV30/STEABS ATOMS=(2 9 11)
M  V30 END COLLECTION
M  V30 END CTAB
M  END
>  <NO.>
7713

>  <Name>
nsc-289336

>  <SMILES>
Oc1ccc([C@H](O)[C@@H]2CCCCN2)cc1O

>  <logBB>


>  <Class>
1

>  <MW>
223.12

>  <nHBAcc>
4

>  <nHBDon>
4

>  <SLogP>
1.27

>  <TopoPSA>
72.72

>  <MMFF94 Energy>
33.491

$$$$
C[N+]1(CC2CC2)CC[C@]23c4c5ccc(O)c4O[C@H]2C(=O)CC[C@@]3(O)[C@H]1C5
Actelion Java MolfileCreator 2.0

  0  0  0  0  0  0              0 V3000
M  V30 BEGIN CTAB
M  V30 COUNTS 52 57 0 0 0
M  V30 BEGIN ATOM
M  V30 1 O 3.9043 2.3575 -2.1947 0
M  V30 2 C 3.1234 1.4473 -1.9179 0
M  V30 3 C 1.631 1.5044 -2.2881 0 CFG=2
M  V30 4 C 3.6306 0.1827 -1.264 0
M  V30 5 O 1.1881 2.9015 -2.2633 0
M  V30 6 C 0.7134 0.7398 -1.3145 0 CFG=2
M  V30 7 C 2.7305 -0.2203 -0.097 0
M  V30 8 C 0.7348 3.0621 -0.9767 0
M  V30 9 C 0.5064 1.8553 -0.3501 0
M  V30 10 C 1.2875 -0.4785 -0.5807 0 CFG=2
M  V30 11 C -0.6411 0.3944 -1.9713 0
M  V30 12 C 0.546 4.2401 -0.2986 0
M  V30 13 C 0.1861 1.7445 0.9908 0
M  V30 14 O 1.3706 -1.5781 -1.5014 0
M  V30 15 C 0.2663 -0.8026 0.5899 0 CFG=1
M  V30 16 C -1.695 -0.0776 -0.9691 0
M  V30 17 O 0.7551 5.4457 -0.8849 0
M  V30 18 C 0.161 4.1805 1.0417 0
M  V30 19 C 0.0022 2.9372 1.6937 0
M  V30 20 C 0.1884 0.3786 1.6225 0
M  V30 21 N -1.1789 -1.1689 -0.0149 0 CHG=1
M  V30 22 C -2.2528 -1.3495 1.0987 0
M  V30 23 C -1.1374 -2.5089 -0.7786 0
M  V30 24 C -1.9416 -2.3553 2.1677 0
M  V30 25 C -3.0653 -2.9209 3.002 0
M  V30 26 C -2.3331 -3.8077 2.0353 0
M  V30 27 H 1.538 1.127 -3.3131 0
M  V30 28 H 4.6447 0.3648 -0.8908 0
M  V30 29 H 3.6928 -0.6007 -2.0258 0
M  V30 30 H 3.1389 -1.1313 0.3578 0
M  V30 31 H 2.7736 0.5613 0.6685 0
M  V30 32 H -1.0541 1.2655 -2.4985 0
M  V30 33 H -0.4946 -0.3643 -2.7492 0
M  V30 34 H 2.0042 -2.2448 -1.1705 0
M  V30 35 H 0.5826 -1.7166 1.1056 0
M  V30 36 H -2.5692 -0.4839 -1.4923 0
M  V30 37 H -2.0454 0.7581 -0.3536 0
M  V30 38 H 1.1304 5.2736 -1.77 0
M  V30 39 H 0.0234 5.1063 1.5977 0
M  V30 40 H -0.2382 2.9318 2.7556 0
M  V30 41 H -0.6515 0.2856 2.3126 0
M  V30 42 H 1.0876 0.3208 2.2505 0
M  V30 43 H -2.4289 -0.3677 1.5496 0
M  V30 44 H -3.1872 -1.6118 0.5842 0
M  V30 45 H -0.5363 -3.2201 -0.2067 0
M  V30 46 H -2.1616 -2.8781 -0.8931 0
M  V30 47 H -0.7319 -2.3616 -1.7788 0
M  V30 48 H -1.0389 -2.1186 2.718 0
M  V30 49 H -4.0922 -2.6581 2.769 0
M  V30 50 H -2.8909 -3.0784 4.0625 0
M  V30 51 H -2.8883 -4.1497 1.1689 0
M  V30 52 H -1.6708 -4.5604 2.4524 0
M  V30 END ATOM
M  V30 BEGIN BOND
M  V30 1 2 1 2
M  V30 2 1 2 3
M  V30 3 1 2 4
M  V30 4 1 3 5
M  V30 5 1 3 6
M  V30 6 1 4 7
M  V30 7 1 5 8
M  V30 8 1 6 9
M  V30 9 1 6 10
M  V30 10 1 6 11
M  V30 11 1 8 12
M  V30 12 1 9 13
M  V30 13 1 10 14
M  V30 14 1 10 15
M  V30 15 1 11 16
M  V30 16 1 12 17
M  V30 17 2 12 18
M  V30 18 2 13 19
M  V30 19 1 13 20
M  V30 20 1 15 21
M  V30 21 1 21 22
M  V30 22 1 21 23
M  V30 23 1 22 24
M  V30 24 1 24 25
M  V30 25 1 24 26
M  V30 26 1 7 10
M  V30 27 2 8 9
M  V30 28 1 15 20
M  V30 29 1 16 21
M  V30 30 1 18 19
M  V30 31 1 25 26
M  V30 32 1 3 27
M  V30 33 1 4 28
M  V30 34 1 4 29
M  V30 35 1 7 30
M  V30 36 1 7 31
M  V30 37 1 11 32
M  V30 38 1 11 33
M  V30 39 1 14 34
M  V30 40 1 15 35
M  V30 41 1 16 36
M  V30 42 1 16 37
M  V30 43 1 17 38
M  V30 44 1 18 39
M  V30 45 1 19 40
M  V30 46 1 20 41
M  V30 47 1 20 42
M  V30 48 1 22 43
M  V30 49 1 22 44
M  V30 50 1 23 45
M  V30 51 1 23 46
M  V30 52 1 23 47
M  V30 53 1 24 48
M  V30 54 1 25 49
M  V30 55 1 25 50
M  V30 56 1 26 51
M  V30 57 1 26 52
M  V30 END BOND
M  V30 BEGIN COLLECTION
M  V30 MDLV30/STEABS ATOMS=(4 3 6 10 15)
M  V30 END COLLECTION
M  V30 END CTAB
M  END
>  <NO.>
7724

>  <Name>
methylnaltrexone bromide

>  <SMILES>
C[N+]1(CC2CC2)CC[C@]23c4c5ccc(O)c4O[C@H]2C(=O)CC[C@@]3(O)[C@H]1C5

>  <logBB>


>  <Class>
-1

>  <MW>
356.19

>  <nHBAcc>
4

>  <nHBDon>
2

>  <SLogP>
1.67

>  <TopoPSA>
66.76

>  <MMFF94 Energy>
132.77

$$$$
Clc1cccc(N2CCNCC2)c1
Actelion Java MolfileCreator 2.0

  0  0  0  0  0  0              0 V3000
M  V30 BEGIN CTAB
M  V30 COUNTS 26 27 0 0 0
M  V30 BEGIN ATOM
M  V30 1 Cl -1.2028 4.0138 -2.3265 0
M  V30 2 C -1.0102 2.3069 -2.2046 0
M  V30 3 C -0.5599 1.7442 -1.0072 0
M  V30 4 C -1.3103 1.5017 -3.2964 0
M  V30 5 C -0.3918 0.3573 -0.8671 0
M  V30 6 C -1.1631 0.1241 -3.1829 0
M  V30 7 N 0.0507 -0.185 0.3356 0
M  V30 8 C -0.7134 -0.4359 -1.9807 0
M  V30 9 C -0.1877 -1.6058 0.6458 0
M  V30 10 C 1.2792 0.3716 0.9383 0
M  V30 11 C -0.0608 -1.8728 2.1624 0
M  V30 12 C 1.363 0.0343 2.4442 0
M  V30 13 N 1.2106 -1.4019 2.741 0
M  V30 14 H -0.3698 2.4006 -0.1631 0
M  V30 15 H -1.6599 1.9372 -4.2278 0
M  V30 16 H -1.3937 -0.5202 -4.0271 0
M  V30 17 H -0.5971 -1.5154 -1.9422 0
M  V30 18 H 0.533 -2.2288 0.1018 0
M  V30 19 H -1.1986 -1.9034 0.3414 0
M  V30 20 H 1.3346 1.4607 0.8402 0
M  V30 21 H 2.1507 -0.0462 0.4184 0
M  V30 22 H -0.1498 -2.9497 2.3424 0
M  V30 23 H -0.8952 -1.3906 2.6877 0
M  V30 24 H 0.5912 0.5969 2.985 0
M  V30 25 H 2.3319 0.3694 2.8299 0
M  V30 26 H 1.182 -1.5295 3.7516 0
M  V30 END ATOM
M  V30 BEGIN BOND
M  V30 1 1 1 2
M  V30 2 2 2 3
M  V30 3 1 2 4
M  V30 4 1 3 5
M  V30 5 2 4 6
M  V30 6 1 5 7
M  V30 7 2 5 8
M  V30 8 1 7 9
M  V30 9 1 7 10
M  V30 10 1 9 11
M  V30 11 1 10 12
M  V30 12 1 11 13
M  V30 13 1 6 8
M  V30 14 1 12 13
M  V30 15 1 3 14
M  V30 16 1 4 15
M  V30 17 1 6 16
M  V30 18 1 8 17
M  V30 19 1 9 18
M  V30 20 1 9 19
M  V30 21 1 10 20
M  V30 22 1 10 21
M  V30 23 1 11 22
M  V30 24 1 11 23
M  V30 25 1 12 24
M  V30 26 1 12 25
M  V30 27 1 13 26
M  V30 END BOND
M  V30 END CTAB
M  END
>  <NO.>
7725

>  <Name>
1-(3-chlorophenyl)piperazine

>  <SMILES>
Clc1cccc(N2CCNCC2)c1

>  <logBB>


>  <Class>
1

>  <MW>
196.08

>  <nHBAcc>
2

>  <nHBDon>
1

>  <SLogP>
1.75

>  <TopoPSA>
15.27

>  <MMFF94 Energy>
90.384

$$$$
CCC(C)(C)C(=O)O[C@H]1C[C@@H](C)C=C2C=C[C@H](C)[C@H](CC[C@@H](O)C[C@@H](O)CC(=O)O)[C@H]21
Actelion Java MolfileCreator 2.0

  0  0  0  0  0  0              0 V3000
M  V30 BEGIN CTAB
M  V30 COUNTS 71 72 0 0 0
M  V30 BEGIN ATOM
M  V30 1 O 0.3942 -2.9992 -2.2093 0
M  V30 2 C 0.7331 -1.8253 -2.2915 0
M  V30 3 O 1.5485 -1.1976 -1.3974 0
M  V30 4 C 0.2433 -0.8564 -3.3774 0
M  V30 5 C 1.9561 -1.9641 -0.2434 0 CFG=2
M  V30 6 C -0.7486 0.159 -2.759 0
M  V30 7 C 1.4384 -0.0897 -3.9718 0
M  V30 8 C -0.41 -1.6573 -4.5178 0
M  V30 9 C 2.3024 -1.0049 0.9305 0 CFG=1
M  V30 10 C 3.1399 -2.8847 -0.5691 0
M  V30 11 C -2.0595 -0.4379 -2.2599 0
M  V30 12 C 3.6806 -0.3695 0.7498 0
M  V30 13 C 1.2085 0.0827 1.1948 0 CFG=2
M  V30 14 C 4.4439 -2.1375 -0.8833 0 CFG=2
M  V30 15 C 3.9682 0.8402 1.4938 0
M  V30 16 C 4.6192 -0.8915 -0.0591 0
M  V30 17 C 1.6263 1.0031 2.3835 0 CFG=2
M  V30 18 C -0.2045 -0.527 1.3697 0
M  V30 19 C 4.5741 -1.7958 -2.368 0
M  V30 20 C 3.0541 1.4629 2.2473 0
M  V30 21 C 1.4488 0.3755 3.7711 0
M  V30 22 C -1.3165 0.525 1.5155 0
M  V30 23 C -2.7002 -0.129 1.6344 0 CFG=1
M  V30 24 O -2.8057 -0.8507 2.8606 0
M  V30 25 C -3.8812 0.8476 1.5055 0
M  V30 26 C -4.002 1.8913 2.6268 0 CFG=1
M  V30 27 O -2.9372 2.8383 2.558 0
M  V30 28 C -5.3514 2.6185 2.6324 0
M  V30 29 C -5.5973 3.391 1.3678 0
M  V30 30 O -4.7478 3.8095 0.5974 0
M  V30 31 O -6.9037 3.6358 1.1581 0
M  V30 32 H 1.1197 -2.5981 0.0781 0
M  V30 33 H -0.9896 0.9329 -3.4992 0
M  V30 34 H -0.2697 0.6775 -1.9186 0
M  V30 35 H 1.121 0.5611 -4.7945 0
M  V30 36 H 2.1929 -0.7802 -4.3648 0
M  V30 37 H 1.9279 0.5441 -3.2238 0
M  V30 38 H 0.3197 -2.3178 -5.0011 0
M  V30 39 H -1.223 -2.2974 -4.1588 0
M  V30 40 H -0.8196 -0.9912 -5.2853 0
M  V30 41 H 2.3743 -1.6318 1.8319 0
M  V30 42 H 3.3152 -3.5275 0.3044 0
M  V30 43 H 2.8891 -3.5562 -1.3983 0
M  V30 44 H -1.8893 -1.2501 -1.5482 0
M  V30 45 H -2.6646 -0.8217 -3.0864 0
M  V30 46 H -2.6502 0.3333 -1.7546 0
M  V30 47 H 1.1666 0.7258 0.302 0
M  V30 48 H 5.2713 -2.8172 -0.6397 0
M  V30 49 H 4.9726 1.2541 1.4371 0
M  V30 50 H 5.588 -0.4027 -0.152 0
M  V30 51 H 1.0037 1.9061 2.3411 0
M  V30 52 H -0.2139 -1.2136 2.2241 0
M  V30 53 H -0.4518 -1.132 0.4921 0
M  V30 54 H 5.5778 -1.4154 -2.5906 0
M  V30 55 H 4.4124 -2.6807 -2.9924 0
M  V30 56 H 3.8613 -1.0256 -2.6719 0
M  V30 57 H 3.3411 2.3578 2.795 0
M  V30 58 H 1.7925 1.0605 4.5554 0
M  V30 59 H 0.3988 0.1549 3.984 0
M  V30 60 H 2.0174 -0.5544 3.8749 0
M  V30 61 H -1.1217 1.1254 2.4082 0
M  V30 62 H -1.295 1.1922 0.6461 0
M  V30 63 H -2.8086 -0.8687 0.8327 0
M  V30 64 H -2.4023 -0.3099 3.5625 0
M  V30 65 H -3.8037 1.3441 0.5314 0
M  V30 66 H -4.8024 0.2505 1.4997 0
M  V30 67 H -3.9061 1.3907 3.5964 0
M  V30 68 H -3.0442 3.3439 1.7256 0
M  V30 69 H -6.1576 1.8887 2.7659 0
M  V30 70 H -5.3841 3.3388 3.4576 0
M  V30 71 H -6.9314 4.1656 0.3337 0
M  V30 END ATOM
M  V30 BEGIN BOND
M  V30 1 2 1 2
M  V30 2 1 2 3
M  V30 3 1 2 4
M  V30 4 1 3 5
M  V30 5 1 4 6
M  V30 6 1 4 7
M  V30 7 1 4 8
M  V30 8 1 5 9
M  V30 9 1 5 10
M  V30 10 1 6 11
M  V30 11 1 9 12
M  V30 12 1 9 13
M  V30 13 1 10 14
M  V30 14 1 12 15
M  V30 15 2 12 16
M  V30 16 1 13 17
M  V30 17 1 13 18
M  V30 18 1 14 19
M  V30 19 2 15 20
M  V30 20 1 17 21
M  V30 21 1 18 22
M  V30 22 1 22 23
M  V30 23 1 23 24
M  V30 24 1 23 25
M  V30 25 1 25 26
M  V30 26 1 26 27
M  V30 27 1 26 28
M  V30 28 1 28 29
M  V30 29 2 29 30
M  V30 30 1 29 31
M  V30 31 1 14 16
M  V30 32 1 17 20
M  V30 33 1 5 32
M  V30 34 1 6 33
M  V30 35 1 6 34
M  V30 36 1 7 35
M  V30 37 1 7 36
M  V30 38 1 7 37
M  V30 39 1 8 38
M  V30 40 1 8 39
M  V30 41 1 8 40
M  V30 42 1 9 41
M  V30 43 1 10 42
M  V30 44 1 10 43
M  V30 45 1 11 44
M  V30 46 1 11 45
M  V30 47 1 11 46
M  V30 48 1 13 47
M  V30 49 1 14 48
M  V30 50 1 15 49
M  V30 51 1 16 50
M  V30 52 1 17 51
M  V30 53 1 18 52
M  V30 54 1 18 53
M  V30 55 1 19 54
M  V30 56 1 19 55
M  V30 57 1 19 56
M  V30 58 1 20 57
M  V30 59 1 21 58
M  V30 60 1 21 59
M  V30 61 1 21 60
M  V30 62 1 22 61
M  V30 63 1 22 62
M  V30 64 1 23 63
M  V30 65 1 24 64
M  V30 66 1 25 65
M  V30 67 1 25 66
M  V30 68 1 26 67
M  V30 69 1 27 68
M  V30 70 1 28 69
M  V30 71 1 28 70
M  V30 72 1 31 71
M  V30 END BOND
M  V30 BEGIN COLLECTION
M  V30 MDLV30/STEABS ATOMS=(7 5 9 13 14 17 23 26)
M  V30 END COLLECTION
M  V30 END CTAB
M  END
>  <NO.>
7728

>  <Name>
simvastatin acid

>  <SMILES>
CCC(C)(C)C(=O)O[C@H]1C[C@@H](C)C=C2C=C[C@H](C)[C@H](CC[C@@H](O)C[C@@H](O)CC(=O)O)[C@H]21

>  <logBB>


>  <Class>
1

>  <MW>
436.28

>  <nHBAcc>
5

>  <nHBDon>
3

>  <SLogP>
4.11

>  <TopoPSA>
104.06

>  <MMFF94 Energy>
12.433

$$$$
c1cnc2cc3c(cc2n1)C1CNCC3C1
Actelion Java MolfileCreator 2.0

  0  0  0  0  0  0              0 V3000
M  V30 BEGIN CTAB
M  V30 COUNTS 29 32 0 0 0
M  V30 BEGIN ATOM
M  V30 1 N -0.5663 -1.4566 -3.2392 0
M  V30 2 C -0.2107 -0.7767 -2.1315 0
M  V30 3 C -0.7069 -0.7306 -4.3687 0
M  V30 4 C 0.0057 0.6382 -2.167 0
M  V30 5 C -0.0546 -1.4728 -0.9379 0
M  V30 6 C -0.4982 0.6331 -4.4028 0
M  V30 7 N -0.1388 1.3383 -3.3091 0
M  V30 8 C 0.3715 1.3134 -1.0077 0
M  V30 9 C 0.3181 -0.7831 0.1988 0
M  V30 10 C 0.5298 0.6004 0.1642 0
M  V30 11 C 0.5225 -1.2731 1.6124 0
M  V30 12 C 0.8819 1.0756 1.5536 0
M  V30 13 C -0.7584 -1.1096 2.4646 0
M  V30 14 C 1.5368 -0.2139 2.0809 0
M  V30 15 C -0.383 1.3443 2.4032 0
M  V30 16 N -1.3545 0.2369 2.4181 0
M  V30 17 H -0.9954 -1.2827 -5.2555 0
M  V30 18 H -0.2309 -2.5426 -0.9111 0
M  V30 19 H -0.6152 1.2021 -5.3176 0
M  V30 20 H 0.5232 2.3871 -1.0346 0
M  V30 21 H 0.9346 -2.2849 1.659 0
M  V30 22 H 1.5778 1.919 1.5537 0
M  V30 23 H -0.5264 -1.3572 3.5076 0
M  V30 24 H -1.5164 -1.8243 2.1244 0
M  V30 25 H 2.5176 -0.3757 1.6118 0
M  V30 26 H 1.6817 -0.2088 3.1669 0
M  V30 27 H -0.0798 1.5622 3.4345 0
M  V30 28 H -0.8952 2.2354 2.0228 0
M  V30 29 H -2.0392 0.3603 3.1613 0
M  V30 END ATOM
M  V30 BEGIN BOND
M  V30 1 1 1 2
M  V30 2 2 1 3
M  V30 3 1 2 4
M  V30 4 2 2 5
M  V30 5 1 3 6
M  V30 6 1 4 7
M  V30 7 2 4 8
M  V30 8 1 5 9
M  V30 9 1 8 10
M  V30 10 1 9 11
M  V30 11 1 10 12
M  V30 12 1 11 13
M  V30 13 1 11 14
M  V30 14 1 12 15
M  V30 15 1 13 16
M  V30 16 2 6 7
M  V30 17 2 9 10
M  V30 18 1 12 14
M  V30 19 1 15 16
M  V30 20 1 3 17
M  V30 21 1 5 18
M  V30 22 1 6 19
M  V30 23 1 8 20
M  V30 24 1 11 21
M  V30 25 1 12 22
M  V30 26 1 13 23
M  V30 27 1 13 24
M  V30 28 1 14 25
M  V30 29 1 14 26
M  V30 30 1 15 27
M  V30 31 1 15 28
M  V30 32 1 16 29
M  V30 END BOND
M  V30 END CTAB
M  END
>  <NO.>
7733

>  <Name>
varenicline

>  <SMILES>
c1cnc2cc3c(cc2n1)C1CNCC3C1

>  <logBB>


>  <Class>
1

>  <MW>
211.11

>  <nHBAcc>
3

>  <nHBDon>
1

>  <SLogP>
1.8

>  <TopoPSA>
37.81

>  <MMFF94 Energy>
120.77

$$$$
CCOC(=O)C1=C[C@]2(CC)CCCN3CCc4c(n1c1ccccc41)[C@@H]32
Actelion Java MolfileCreator 2.0

  0  0  0  0  0  0              0 V3000
M  V30 BEGIN CTAB
M  V30 COUNTS 52 56 0 0 0
M  V30 BEGIN ATOM
M  V30 1 O -1.7684 -2.8951 1.688 0
M  V30 2 C -0.7449 -2.2506 1.5204 0
M  V30 3 O 0.4851 -2.5564 2.0045 0
M  V30 4 C -0.6787 -0.9499 0.8228 0
M  V30 5 C 0.5351 -3.7731 2.7579 0
M  V30 6 N 0.1703 -0.6824 -0.2602 0
M  V30 7 C -1.5179 0.0012 1.2985 0
M  V30 8 C 1.9749 -4.0163 3.165 0
M  V30 9 C 0.9257 -1.5233 -1.0869 0
M  V30 10 C 0.3396 0.5985 -0.7301 0
M  V30 11 C -1.5959 1.4138 0.6981 0 CFG=1
M  V30 12 C 1.5528 -0.7208 -2.0615 0
M  V30 13 C 1.0863 -2.9227 -1.1025 0
M  V30 14 C 1.16 0.617 -1.8263 0
M  V30 15 C -0.2637 1.7863 -0.0475 0 CFG=2
M  V30 16 C -2.7751 1.4033 -0.3125 0
M  V30 17 C -1.9057 2.4529 1.8212 0
M  V30 18 C 2.3747 -1.3286 -3.0324 0
M  V30 19 C 1.9093 -3.4983 -2.0761 0
M  V30 20 C 1.4503 1.8925 -2.5389 0
M  V30 21 N -0.3464 2.9362 -0.9855 0
M  V30 22 C -2.797 2.6453 -1.1984 0
M  V30 23 C -0.9313 2.4811 2.9971 0
M  V30 24 C 2.5501 -2.7139 -3.0261 0
M  V30 25 C 0.9461 3.1116 -1.7091 0
M  V30 26 C -1.4676 2.8251 -1.9253 0
M  V30 27 H 0.1792 -4.6076 2.1433 0
M  V30 28 H -0.0929 -3.6778 3.6507 0
M  V30 29 H -2.2073 -0.2336 2.1087 0
M  V30 30 H 2.0658 -4.9377 3.7469 0
M  V30 31 H 2.6173 -4.0907 2.2814 0
M  V30 32 H 2.3528 -3.1809 3.7638 0
M  V30 33 H 0.5828 -3.5675 -0.3913 0
M  V30 34 H 0.4742 2.0712 0.714 0
M  V30 35 H -2.7087 0.5218 -0.9653 0
M  V30 36 H -3.7348 1.3165 0.2134 0
M  V30 37 H -1.9451 3.4637 1.3985 0
M  V30 38 H -2.9065 2.2551 2.2287 0
M  V30 39 H 2.8667 -0.7237 -3.7885 0
M  V30 40 H 2.0422 -4.5778 -2.0918 0
M  V30 41 H 2.5255 1.9944 -2.7223 0
M  V30 42 H 0.9448 1.8786 -3.5117 0
M  V30 43 H -3.6024 2.548 -1.936 0
M  V30 44 H -3.027 3.5375 -0.6048 0
M  V30 45 H -1.2817 3.1994 3.7462 0
M  V30 46 H 0.0695 2.7964 2.6921 0
M  V30 47 H -0.8555 1.5069 3.4883 0
M  V30 48 H 3.1834 -3.1797 -3.7766 0
M  V30 49 H 0.891 3.9934 -2.3598 0
M  V30 50 H 1.7103 3.3566 -0.9585 0
M  V30 51 H -1.3341 1.9946 -2.629 0
M  V30 52 H -1.529 3.7417 -2.5245 0
M  V30 END ATOM
M  V30 BEGIN BOND
M  V30 1 2 1 2
M  V30 2 1 2 3
M  V30 3 1 2 4
M  V30 4 1 3 5
M  V30 5 1 4 6
M  V30 6 2 4 7
M  V30 7 1 5 8
M  V30 8 1 6 9
M  V30 9 1 6 10
M  V30 10 1 7 11
M  V30 11 2 9 12
M  V30 12 1 9 13
M  V30 13 2 10 14
M  V30 14 1 10 15
M  V30 15 1 11 16
M  V30 16 1 11 17
M  V30 17 1 12 18
M  V30 18 2 13 19
M  V30 19 1 14 20
M  V30 20 1 15 21
M  V30 21 1 16 22
M  V30 22 1 17 23
M  V30 23 2 18 24
M  V30 24 1 20 25
M  V30 25 1 21 26
M  V30 26 1 11 15
M  V30 27 1 12 14
M  V30 28 1 19 24
M  V30 29 1 21 25
M  V30 30 1 22 26
M  V30 31 1 5 27
M  V30 32 1 5 28
M  V30 33 1 7 29
M  V30 34 1 8 30
M  V30 35 1 8 31
M  V30 36 1 8 32
M  V30 37 1 13 33
M  V30 38 1 15 34
M  V30 39 1 16 35
M  V30 40 1 16 36
M  V30 41 1 17 37
M  V30 42 1 17 38
M  V30 43 1 18 39
M  V30 44 1 19 40
M  V30 45 1 20 41
M  V30 46 1 20 42
M  V30 47 1 22 43
M  V30 48 1 22 44
M  V30 49 1 23 45
M  V30 50 1 23 46
M  V30 51 1 23 47
M  V30 52 1 24 48
M  V30 53 1 25 49
M  V30 54 1 25 50
M  V30 55 1 26 51
M  V30 56 1 26 52
M  V30 END BOND
M  V30 BEGIN COLLECTION
M  V30 MDLV30/STEABS ATOMS=(2 11 15)
M  V30 END COLLECTION
M  V30 END CTAB
M  END
>  <NO.>
7742

>  <Name>
vinpocetine

>  <SMILES>
CCOC(=O)C1=C[C@]2(CC)CCCN3CCc4c(n1c1ccccc41)[C@@H]32

>  <logBB>


>  <Class>
1

>  <MW>
350.2

>  <nHBAcc>
3

>  <nHBDon>
0

>  <SLogP>
4.15

>  <TopoPSA>
34.47

>  <MMFF94 Energy>
74.773

$$$$
COc1ccc2c3c1O[C@H]1C[C@@H](O)C=C[C@@]31CCCC2
Actelion Java MolfileCreator 2.0

  0  0  0  0  0  0              0 V3000
M  V30 BEGIN CTAB
M  V30 COUNTS 40 43 0 0 0
M  V30 BEGIN ATOM
M  V30 1 O -0.965 -1.6087 0.8845 0
M  V30 2 C -0.0815 -0.646 1.3039 0
M  V30 3 C -1.2697 -1.2773 -0.4916 0 CFG=2
M  V30 4 C 0.354 -0.5354 2.6196 0
M  V30 5 C 0.4055 0.1575 0.2785 0
M  V30 6 C -0.2541 -0.1997 -1.0185 0 CFG=2
M  V30 7 C -2.7437 -0.8567 -0.5026 0
M  V30 8 O -0.2183 -1.3781 3.5289 0
M  V30 9 C 1.3386 0.4138 2.8892 0
M  V30 10 C 1.4596 1.0329 0.5221 0
M  V30 11 C -0.9514 0.9591 -1.7149 0
M  V30 12 C 0.791 -0.8518 -1.9588 0
M  V30 13 C -3.1445 -0.2036 -1.8127 0 CFG=2
M  V30 14 C 0.1981 -1.2511 4.8806 0
M  V30 15 C 1.8956 1.1776 1.8492 0
M  V30 16 C 2.1888 1.7306 -0.5928 0
M  V30 17 C -2.2338 0.9403 -2.1117 0
M  V30 18 C 1.8441 0.0893 -2.5675 0
M  V30 19 O -4.4705 0.289 -1.6816 0
M  V30 20 C 2.8166 0.7404 -1.5795 0
M  V30 21 H -1.1757 -2.2034 -1.0736 0
M  V30 22 H -2.9537 -0.1791 0.3383 0
M  V30 23 H -3.3812 -1.7281 -0.3029 0
M  V30 24 H 1.7273 0.5632 3.8909 0
M  V30 25 H -0.3718 1.847 -1.9466 0
M  V30 26 H 1.3135 -1.6662 -1.4376 0
M  V30 27 H 0.2589 -1.3243 -2.7963 0
M  V30 28 H -3.1298 -0.9265 -2.6355 0
M  V30 29 H 1.2626 -1.4833 4.9891 0
M  V30 30 H -0.3628 -1.9798 5.4738 0
M  V30 31 H -0.0314 -0.2552 5.2738 0
M  V30 32 H 2.7041 1.8667 2.0872 0
M  V30 33 H 2.9999 2.3353 -0.1666 0
M  V30 34 H 1.5311 2.4427 -1.0994 0
M  V30 35 H -2.6369 1.7963 -2.6456 0
M  V30 36 H 2.4412 -0.5034 -3.2729 0
M  V30 37 H 1.362 0.8642 -3.1741 0
M  V30 38 H -4.7363 0.6421 -2.5464 0
M  V30 39 H 3.5614 1.2878 -2.1714 0
M  V30 40 H 3.3663 -0.04 -1.0383 0
M  V30 END ATOM
M  V30 BEGIN BOND
M  V30 1 1 1 2
M  V30 2 1 1 3
M  V30 3 2 2 4
M  V30 4 1 2 5
M  V30 5 1 3 6
M  V30 6 1 3 7
M  V30 7 1 4 8
M  V30 8 1 4 9
M  V30 9 2 5 10
M  V30 10 1 6 11
M  V30 11 1 6 12
M  V30 12 1 7 13
M  V30 13 1 8 14
M  V30 14 2 9 15
M  V30 15 1 10 16
M  V30 16 2 11 17
M  V30 17 1 12 18
M  V30 18 1 13 19
M  V30 19 1 16 20
M  V30 20 1 5 6
M  V30 21 1 10 15
M  V30 22 1 13 17
M  V30 23 1 18 20
M  V30 24 1 3 21
M  V30 25 1 7 22
M  V30 26 1 7 23
M  V30 27 1 9 24
M  V30 28 1 11 25
M  V30 29 1 12 26
M  V30 30 1 12 27
M  V30 31 1 13 28
M  V30 32 1 14 29
M  V30 33 1 14 30
M  V30 34 1 14 31
M  V30 35 1 15 32
M  V30 36 1 16 33
M  V30 37 1 16 34
M  V30 38 1 17 35
M  V30 39 1 18 36
M  V30 40 1 18 37
M  V30 41 1 19 38
M  V30 42 1 20 39
M  V30 43 1 20 40
M  V30 END BOND
M  V30 BEGIN COLLECTION
M  V30 MDLV30/STEABS ATOMS=(3 3 6 13)
M  V30 END COLLECTION
M  V30 END CTAB
M  END
>  <NO.>
7747

>  <Name>
schembl13016949

>  <SMILES>
COc1ccc2c3c1O[C@H]1C[C@@H](O)C=C[C@@]31CCCC2

>  <logBB>


>  <Class>
1

>  <MW>
272.14

>  <nHBAcc>
3

>  <nHBDon>
1

>  <SLogP>
2.74

>  <TopoPSA>
38.69

>  <MMFF94 Energy>
68.897

$$$$
Oc1cc2cc(CCN3CCN(c4nsc5ccccc45)CC3)c(Cl)cc2[nH]1
Actelion Java MolfileCreator 2.0

  0  0  0  0  0  0              0 V3000
M  V30 BEGIN CTAB
M  V30 COUNTS 49 53 0 0 0
M  V30 BEGIN ATOM
M  V30 1 Cl -0.8165 4.4151 0.2449 0
M  V30 2 C -0.3785 3.971 -1.37 0
M  V30 3 C -0.0617 2.646 -1.709 0
M  V30 4 C -0.3582 4.9989 -2.3242 0
M  V30 5 C 0.2738 2.343 -3.0458 0
M  V30 6 C -0.0934 1.5125 -0.7026 0
M  V30 7 C -0.015 4.6622 -3.6382 0
M  V30 8 C 0.2998 3.3606 -4.0198 0
M  V30 9 C -1.5102 0.9256 -0.5536 0
M  V30 10 N 0.0847 5.4501 -4.7641 0
M  V30 11 C 0.5898 3.3926 -5.4104 0
M  V30 12 N -1.6929 -0.1717 0.4077 0
M  V30 13 C 0.4508 4.6902 -5.8458 0
M  V30 14 C -1.4299 0.2374 1.8064 0
M  V30 15 C -0.9059 -1.3776 0.0795 0
M  V30 16 O 0.6183 5.199 -7.0594 0
M  V30 17 C -1.7111 -0.909 2.8064 0
M  V30 18 C -1.1869 -2.5459 1.0588 0
M  V30 19 N -0.9508 -2.1192 2.4477 0
M  V30 20 C 0.2645 -2.3484 3.0358 0
M  V30 21 N 1.0375 -1.3681 3.502 0
M  V30 22 C 0.788 -3.6958 3.2235 0
M  V30 23 S 2.4387 -1.9951 4.0942 0
M  V30 24 C 2.0543 -3.6408 3.8113 0
M  V30 25 C 0.2528 -4.9818 2.9486 0
M  V30 26 C 2.809 -4.7926 4.0947 0
M  V30 27 C 0.9918 -6.1363 3.2294 0
M  V30 28 C 2.2584 -6.0397 3.791 0
M  V30 29 H -0.6026 6.0205 -2.0511 0
M  V30 30 H 0.5149 1.3236 -3.3371 0
M  V30 31 H 0.3002 1.8651 0.2563 0
M  V30 32 H 0.6056 0.7343 -1.0323 0
M  V30 33 H -2.2141 1.7254 -0.289 0
M  V30 34 H -1.8527 0.5732 -1.5361 0
M  V30 35 H -0.0905 6.4436 -4.7753 0
M  V30 36 H 0.8723 2.5551 -6.0338 0
M  V30 37 H -0.3908 0.565 1.9261 0
M  V30 38 H -2.0754 1.0844 2.0675 0
M  V30 39 H -1.1556 -1.714 -0.9336 0
M  V30 40 H 0.1684 -1.158 0.1012 0
M  V30 41 H 0.4473 6.1553 -7.0489 0
M  V30 42 H -2.7812 -1.153 2.7846 0
M  V30 43 H -1.493 -0.5817 3.8306 0
M  V30 44 H -0.565 -3.401 0.7734 0
M  V30 45 H -2.2317 -2.8661 0.9597 0
M  V30 46 H -0.7456 -5.0714 2.5286 0
M  V30 47 H 3.7929 -4.717 4.5479 0
M  V30 48 H 0.5666 -7.1133 3.0116 0
M  V30 49 H 2.8239 -6.9434 4.0074 0
M  V30 END ATOM
M  V30 BEGIN BOND
M  V30 1 1 1 2
M  V30 2 2 2 3
M  V30 3 1 2 4
M  V30 4 1 3 5
M  V30 5 1 3 6
M  V30 6 2 4 7
M  V30 7 2 5 8
M  V30 8 1 6 9
M  V30 9 1 7 10
M  V30 10 1 8 11
M  V30 11 1 9 12
M  V30 12 1 10 13
M  V30 13 1 12 14
M  V30 14 1 12 15
M  V30 15 1 13 16
M  V30 16 1 14 17
M  V30 17 1 15 18
M  V30 18 1 17 19
M  V30 19 1 19 20
M  V30 20 2 20 21
M  V30 21 1 20 22
M  V30 22 1 21 23
M  V30 23 2 22 24
M  V30 24 1 22 25
M  V30 25 1 24 26
M  V30 26 2 25 27
M  V30 27 2 26 28
M  V30 28 1 7 8
M  V30 29 2 11 13
M  V30 30 1 18 19
M  V30 31 1 23 24
M  V30 32 1 27 28
M  V30 33 1 4 29
M  V30 34 1 5 30
M  V30 35 1 6 31
M  V30 36 1 6 32
M  V30 37 1 9 33
M  V30 38 1 9 34
M  V30 39 1 10 35
M  V30 40 1 11 36
M  V30 41 1 14 37
M  V30 42 1 14 38
M  V30 43 1 15 39
M  V30 44 1 15 40
M  V30 45 1 16 41
M  V30 46 1 17 42
M  V30 47 1 17 43
M  V30 48 1 18 44
M  V30 49 1 18 45
M  V30 50 1 25 46
M  V30 51 1 26 47
M  V30 52 1 27 48
M  V30 53 1 28 49
M  V30 END BOND
M  V30 END CTAB
M  END
>  <NO.>
7749

>  <Name>
ziprasidone

>  <SMILES>
Oc1cc2cc(CCN3CCN(c4nsc5ccccc45)CC3)c(Cl)cc2[nH]1

>  <logBB>


>  <Class>
1

>  <MW>
412.11

>  <nHBAcc>
5

>  <nHBDon>
2

>  <SLogP>
4.5

>  <TopoPSA>
55.39

>  <MMFF94 Energy>
109.64

$$$$
CC(C1=C(CCN(C)C)Cc2ccccc21)c1ccccn1
Actelion Java MolfileCreator 2.0

  0  0  0  0  0  0              0 V3000
M  V30 BEGIN CTAB
M  V30 COUNTS 46 48 0 0 0
M  V30 BEGIN ATOM
M  V30 1 N 0.9491 -1.6614 2.6117 0
M  V30 2 C 1.4615 -0.4585 2.2336 0
M  V30 3 C 1.7229 -2.4785 3.3579 0
M  V30 4 C 2.7419 -0.0642 2.6239 0
M  V30 5 C 0.5399 0.4221 1.3928 0 CFG=2
M  V30 6 C 3.0018 -2.159 3.772 0
M  V30 7 C 3.5171 -0.9262 3.3981 0
M  V30 8 C 0.2955 -0.1314 0.0042 0
M  V30 9 C 0.9009 1.9147 1.349 0
M  V30 10 C 1.332 -0.2906 -1.03 0
M  V30 11 C -0.8658 -0.592 -0.5227 0
M  V30 12 C 0.7545 -0.863 -2.1707 0
M  V30 13 C 2.6848 0.0131 -1.0311 0
M  V30 14 C -0.6989 -1.1089 -1.9361 0
M  V30 15 C -2.2122 -0.7012 0.1407 0
M  V30 16 C 1.491 -1.1352 -3.3144 0
M  V30 17 C 3.4429 -0.2547 -2.1773 0
M  V30 18 C -3.4177 -0.1077 -0.6229 0
M  V30 19 C 2.8495 -0.8244 -3.3118 0
M  V30 20 N -3.604 1.3504 -0.4835 0
M  V30 21 C -4.9419 1.7277 -0.9503 0
M  V30 22 C -2.5992 2.1119 -1.2263 0
M  V30 23 H 1.2686 -3.4288 3.6221 0
M  V30 24 H 3.1526 0.8972 2.3383 0
M  V30 25 H -0.4081 0.3993 1.9446 0
M  V30 26 H 3.5801 -2.8523 4.3711 0
M  V30 27 H 4.5172 -0.6347 3.7057 0
M  V30 28 H 1.8474 2.109 0.836 0
M  V30 29 H 0.9842 2.3237 2.3626 0
M  V30 30 H 0.1244 2.4872 0.8298 0
M  V30 31 H 3.1713 0.4479 -0.1679 0
M  V30 32 H -1.301 -0.5383 -2.6487 0
M  V30 33 H -0.9331 -2.176 -1.9957 0
M  V30 34 H -2.2037 -0.2833 1.1521 0
M  V30 35 H -2.4073 -1.7742 0.274 0
M  V30 36 H 1.0257 -1.5805 -4.1874 0
M  V30 37 H 4.5049 -0.0218 -2.186 0
M  V30 38 H -3.404 -0.4044 -1.6789 0
M  V30 39 H -4.3009 -0.5963 -0.188 0
M  V30 40 H 3.4539 -1.0281 -4.1921 0
M  V30 41 H -5.7145 1.2166 -0.3648 0
M  V30 42 H -5.0932 1.4868 -2.0088 0
M  V30 43 H -5.1107 2.8018 -0.8124 0
M  V30 44 H -2.5707 1.8378 -2.2869 0
M  V30 45 H -1.6035 1.9778 -0.8006 0
M  V30 46 H -2.8042 3.187 -1.1593 0
M  V30 END ATOM
M  V30 BEGIN BOND
M  V30 1 2 1 2
M  V30 2 1 1 3
M  V30 3 1 2 4
M  V30 4 1 2 5
M  V30 5 2 3 6
M  V30 6 2 4 7
M  V30 7 1 5 8
M  V30 8 1 5 9
M  V30 9 1 8 10
M  V30 10 2 8 11
M  V30 11 2 10 12
M  V30 12 1 10 13
M  V30 13 1 11 14
M  V30 14 1 11 15
M  V30 15 1 12 16
M  V30 16 2 13 17
M  V30 17 1 15 18
M  V30 18 2 16 19
M  V30 19 1 18 20
M  V30 20 1 20 21
M  V30 21 1 20 22
M  V30 22 1 6 7
M  V30 23 1 12 14
M  V30 24 1 17 19
M  V30 25 1 3 23
M  V30 26 1 4 24
M  V30 27 1 5 25
M  V30 28 1 6 26
M  V30 29 1 7 27
M  V30 30 1 9 28
M  V30 31 1 9 29
M  V30 32 1 9 30
M  V30 33 1 13 31
M  V30 34 1 14 32
M  V30 35 1 14 33
M  V30 36 1 15 34
M  V30 37 1 15 35
M  V30 38 1 16 36
M  V30 39 1 17 37
M  V30 40 1 18 38
M  V30 41 1 18 39
M  V30 42 1 19 40
M  V30 43 1 21 41
M  V30 44 1 21 42
M  V30 45 1 21 43
M  V30 46 1 22 44
M  V30 47 1 22 45
M  V30 48 1 22 46
M  V30 END BOND
M  V30 BEGIN COLLECTION
M  V30 MDLV30/STERAC1 ATOMS=(1 5)
M  V30 END COLLECTION
M  V30 END CTAB
M  END
>  <NO.>
7750

>  <Name>
dimethindene

>  <SMILES>
CC(C1=C(CCN(C)C)Cc2ccccc21)c1ccccn1

>  <logBB>


>  <Class>
1

>  <MW>
292.19

>  <nHBAcc>
2

>  <nHBDon>
0

>  <SLogP>
4.15

>  <TopoPSA>
16.13

>  <MMFF94 Energy>
88.14

$$$$
CCOc1ccc(/C=C2\NCCc3cc(OCC)c(OCC)cc32)cc1OCC
Actelion Java MolfileCreator 2.0

  0  0  0  0  0  0              0 V3000
M  V30 BEGIN CTAB
M  V30 COUNTS 60 62 0 0 0
M  V30 BEGIN ATOM
M  V30 1 O -3.1529 -1.1814 3.7844 0
M  V30 2 C -1.8546 -1.1599 3.3342 0
M  V30 3 C -4.1386 -0.4908 3.0231 0
M  V30 4 C -0.9261 -1.8789 4.1096 0
M  V30 5 C -1.4258 -0.4804 2.1846 0
M  V30 6 C -5.4795 -0.6851 3.7084 0
M  V30 7 O -1.4312 -2.5231 5.2117 0
M  V30 8 C 0.4186 -1.889 3.7344 0
M  V30 9 C -0.0813 -0.5077 1.7761 0
M  V30 10 C -0.5338 -3.2957 6.0029 0
M  V30 11 C 0.846 -1.1926 2.5921 0
M  V30 12 C 0.4137 0.1868 0.5405 0
M  V30 13 C -1.3304 -3.9291 7.1297 0
M  V30 14 C 2.3104 -1.1975 2.2129 0
M  V30 15 N 1.77 0.4568 0.5119 0
M  V30 16 C -0.4206 0.4753 -0.4791 0
M  V30 17 C 2.6946 0.1387 1.5786 0
M  V30 18 C -0.0069 1.1173 -1.7332 0
M  V30 19 C 0.751 0.4141 -2.6777 0
M  V30 20 C -0.374 2.4389 -1.9878 0
M  V30 21 C 1.1477 1.0288 -3.8708 0
M  V30 22 C 0.0166 3.0615 -3.1761 0
M  V30 23 O 1.896 0.4175 -4.8469 0
M  V30 24 C 0.7772 2.3661 -4.1222 0
M  V30 25 C 2.2649 -0.9439 -4.6471 0
M  V30 26 O 1.2079 2.8962 -5.3132 0
M  V30 27 C 3.0595 -1.3954 -5.8594 0
M  V30 28 C 0.8425 4.2393 -5.6158 0
M  V30 29 C 1.4213 4.5863 -6.9758 0
M  V30 30 H -4.1942 -0.9012 2.0084 0
M  V30 31 H -3.9093 0.5803 2.9863 0
M  V30 32 H -2.1377 0.0914 1.6029 0
M  V30 33 H -6.2751 -0.1714 3.1614 0
M  V30 34 H -5.7271 -1.7496 3.7762 0
M  V30 35 H -5.4485 -0.2992 4.7328 0
M  V30 36 H 1.1604 -2.4229 4.3184 0
M  V30 37 H 0.2432 -2.6535 6.433 0
M  V30 38 H -0.0777 -4.0885 5.399 0
M  V30 39 H -0.6847 -4.5358 7.7707 0
M  V30 40 H -1.8129 -3.1591 7.741 0
M  V30 41 H -2.1278 -4.5636 6.7287 0
M  V30 42 H 2.4826 -2.0207 1.5087 0
M  V30 43 H 2.9404 -1.3696 3.0931 0
M  V30 44 H 2.1208 0.9799 -0.2843 0
M  V30 45 H -1.4759 0.2257 -0.4523 0
M  V30 46 H 3.7153 0.0899 1.1852 0
M  V30 47 H 2.6664 0.9395 2.3275 0
M  V30 48 H 1.0214 -0.6125 -2.4522 0
M  V30 49 H -0.9588 2.9968 -1.2597 0
M  V30 50 H -0.2871 4.0911 -3.3303 0
M  V30 51 H 1.3713 -1.5715 -4.5524 0
M  V30 52 H 2.892 -1.041 -3.7535 0
M  V30 53 H 3.369 -2.4391 -5.7561 0
M  V30 54 H 2.4627 -1.2919 -6.7718 0
M  V30 55 H 3.9511 -0.7731 -5.9895 0
M  V30 56 H 1.2559 4.9245 -4.8668 0
M  V30 57 H -0.2483 4.3378 -5.6567 0
M  V30 58 H 1.1685 5.6125 -7.2569 0
M  V30 59 H 2.5111 4.4794 -6.9695 0
M  V30 60 H 1.0386 3.9049 -7.7428 0
M  V30 END ATOM
M  V30 BEGIN BOND
M  V30 1 1 1 2
M  V30 2 1 1 3
M  V30 3 2 2 4
M  V30 4 1 2 5
M  V30 5 1 3 6
M  V30 6 1 4 7
M  V30 7 1 4 8
M  V30 8 2 5 9
M  V30 9 1 7 10
M  V30 10 2 8 11
M  V30 11 1 9 12
M  V30 12 1 10 13
M  V30 13 1 11 14
M  V30 14 1 12 15
M  V30 15 2 12 16
M  V30 16 1 14 17
M  V30 17 1 16 18
M  V30 18 2 18 19
M  V30 19 1 18 20
M  V30 20 1 19 21
M  V30 21 2 20 22
M  V30 22 1 21 23
M  V30 23 2 21 24
M  V30 24 1 23 25
M  V30 25 1 24 26
M  V30 26 1 25 27
M  V30 27 1 26 28
M  V30 28 1 28 29
M  V30 29 1 9 11
M  V30 30 1 15 17
M  V30 31 1 22 24
M  V30 32 1 3 30
M  V30 33 1 3 31
M  V30 34 1 5 32
M  V30 35 1 6 33
M  V30 36 1 6 34
M  V30 37 1 6 35
M  V30 38 1 8 36
M  V30 39 1 10 37
M  V30 40 1 10 38
M  V30 41 1 13 39
M  V30 42 1 13 40
M  V30 43 1 13 41
M  V30 44 1 14 42
M  V30 45 1 14 43
M  V30 46 1 15 44
M  V30 47 1 16 45
M  V30 48 1 17 46
M  V30 49 1 17 47
M  V30 50 1 19 48
M  V30 51 1 20 49
M  V30 52 1 22 50
M  V30 53 1 25 51
M  V30 54 1 25 52
M  V30 55 1 27 53
M  V30 56 1 27 54
M  V30 57 1 27 55
M  V30 58 1 28 56
M  V30 59 1 28 57
M  V30 60 1 29 58
M  V30 61 1 29 59
M  V30 62 1 29 60
M  V30 END BOND
M  V30 END CTAB
M  END
>  <NO.>
7752

>  <Name>
drotaverine

>  <SMILES>
CCOc1ccc(/C=C2\NCCc3cc(OCC)c(OCC)cc32)cc1OCC

>  <logBB>


>  <Class>
1

>  <MW>
397.23

>  <nHBAcc>
5

>  <nHBDon>
1

>  <SLogP>
4.93

>  <TopoPSA>
48.95

>  <MMFF94 Energy>
90.261

$$$$
CN1CCN(CCCN2c3ccccc3Sc3ccccc32)CC1
Actelion Java MolfileCreator 2.0

  0  0  0  0  0  0              0 V3000
M  V30 BEGIN CTAB
M  V30 COUNTS 49 52 0 0 0
M  V30 BEGIN ATOM
M  V30 1 S -3.9545 -1.1286 -3.6312 0
M  V30 2 C -4.065 -0.4637 -1.9877 0
M  V30 3 C -2.2548 -1.6359 -3.7256 0
M  V30 4 C -3.0298 -0.5545 -1.0352 0
M  V30 5 C -5.2877 0.1654 -1.6759 0
M  V30 6 C -1.3728 -1.6272 -2.6257 0
M  V30 7 C -1.8294 -2.0741 -4.9964 0
M  V30 8 N -1.7921 -1.1976 -1.3323 0
M  V30 9 C -3.2895 0.0415 0.2212 0
M  V30 10 C -5.5081 0.7292 -0.4251 0
M  V30 11 C -0.0507 -2.0554 -2.8883 0
M  V30 12 C -0.5238 -2.4982 -5.2108 0
M  V30 13 C -0.9063 -1.5215 -0.1908 0
M  V30 14 C -4.5038 0.6701 0.5248 0
M  V30 15 C 0.3688 -2.4847 -4.1537 0
M  V30 16 C 0.0962 -0.3936 0.0938 0
M  V30 17 C 0.9446 -0.7322 1.3253 0
M  V30 18 N 2.0325 0.2297 1.5594 0
M  V30 19 C 1.5316 1.5654 1.9509 0
M  V30 20 C 2.9334 -0.2713 2.622 0
M  V30 21 C 2.6728 2.553 2.293 0
M  V30 22 C 4.074 0.7175 2.9521 0
M  V30 23 N 3.558 2.0389 3.3548 0
M  V30 24 C 4.6561 2.9684 3.6077 0
M  V30 25 H -6.0803 0.2206 -2.4197 0
M  V30 26 H -2.5246 -2.082 -5.8337 0
M  V30 27 H -2.5456 0.0528 1.0106 0
M  V30 28 H -6.4541 1.2137 -0.2005 0
M  V30 29 H 0.7119 -2.0554 -2.1168 0
M  V30 30 H -0.2092 -2.8293 -6.1961 0
M  V30 31 H -0.3776 -2.4689 -0.358 0
M  V30 32 H -1.4931 -1.7464 0.7094 0
M  V30 33 H -4.6542 1.1142 1.5056 0
M  V30 34 H 1.3974 -2.8023 -4.3041 0
M  V30 35 H -0.4392 0.5485 0.2475 0
M  V30 36 H 0.7492 -0.2346 -0.7715 0
M  V30 37 H 0.3 -0.8148 2.2103 0
M  V30 38 H 1.3864 -1.7234 1.1598 0
M  V30 39 H 0.9585 2.0072 1.1287 0
M  V30 40 H 0.8586 1.4837 2.815 0
M  V30 41 H 3.3881 -1.2152 2.2975 0
M  V30 42 H 2.365 -0.4804 3.5387 0
M  V30 43 H 2.2209 3.4972 2.6206 0
M  V30 44 H 3.2463 2.7646 1.3802 0
M  V30 45 H 4.7344 0.8079 2.079 0
M  V30 46 H 4.6692 0.2933 3.7697 0
M  V30 47 H 5.2811 3.127 2.7215 0
M  V30 48 H 4.2683 3.94 3.9337 0
M  V30 49 H 5.2942 2.5964 4.4168 0
M  V30 END ATOM
M  V30 BEGIN BOND
M  V30 1 1 1 2
M  V30 2 1 1 3
M  V30 3 2 2 4
M  V30 4 1 2 5
M  V30 5 2 3 6
M  V30 6 1 3 7
M  V30 7 1 4 8
M  V30 8 1 4 9
M  V30 9 2 5 10
M  V30 10 1 6 11
M  V30 11 2 7 12
M  V30 12 1 8 13
M  V30 13 2 9 14
M  V30 14 2 11 15
M  V30 15 1 13 16
M  V30 16 1 16 17
M  V30 17 1 17 18
M  V30 18 1 18 19
M  V30 19 1 18 20
M  V30 20 1 19 21
M  V30 21 1 20 22
M  V30 22 1 21 23
M  V30 23 1 23 24
M  V30 24 1 6 8
M  V30 25 1 10 14
M  V30 26 1 12 15
M  V30 27 1 22 23
M  V30 28 1 5 25
M  V30 29 1 7 26
M  V30 30 1 9 27
M  V30 31 1 10 28
M  V30 32 1 11 29
M  V30 33 1 12 30
M  V30 34 1 13 31
M  V30 35 1 13 32
M  V30 36 1 14 33
M  V30 37 1 15 34
M  V30 38 1 16 35
M  V30 39 1 16 36
M  V30 40 1 17 37
M  V30 41 1 17 38
M  V30 42 1 19 39
M  V30 43 1 19 40
M  V30 44 1 20 41
M  V30 45 1 20 42
M  V30 46 1 21 43
M  V30 47 1 21 44
M  V30 48 1 22 45
M  V30 49 1 22 46
M  V30 50 1 24 47
M  V30 51 1 24 48
M  V30 52 1 24 49
M  V30 END BOND
M  V30 END CTAB
M  END
>  <NO.>
7753

>  <Name>
perazine

>  <SMILES>
CN1CCN(CCCN2c3ccccc3Sc3ccccc32)CC1

>  <logBB>


>  <Class>
1

>  <MW>
339.18

>  <nHBAcc>
4

>  <nHBDon>
0

>  <SLogP>
3.93

>  <TopoPSA>
9.72

>  <MMFF94 Energy>
134.15

$$$$
COc1ccc2[nH]ccc2c1
Actelion Java MolfileCreator 2.0

  0  0  0  0  0  0              0 V3000
M  V30 BEGIN CTAB
M  V30 COUNTS 20 21 0 0 0
M  V30 BEGIN ATOM
M  V30 1 O 1.6543 -2.1273 0.6299 0
M  V30 2 C 0.7306 -1.1233 0.5018 0
M  V30 3 C 2.6301 -2.2362 -0.3983 0
M  V30 4 C 0.6677 -0.2014 -0.5501 0
M  V30 5 C -0.2031 -1.0624 1.5386 0
M  V30 6 C -0.3437 0.7833 -0.5502 0
M  V30 7 C -1.2152 -0.0964 1.5624 0
M  V30 8 C -1.2582 0.8129 0.5019 0
M  V30 9 C -0.6898 1.8434 -1.4343 0
M  V30 10 N -2.1241 1.8551 0.2583 0
M  V30 11 C -1.7889 2.4853 -0.9108 0
M  V30 12 H 2.1631 -2.4529 -1.3647 0
M  V30 13 H 3.2849 -3.077 -0.1497 0
M  V30 14 H 3.2509 -1.3356 -0.4508 0
M  V30 15 H 1.3722 -0.2148 -1.3722 0
M  V30 16 H -0.1428 -1.7848 2.3501 0
M  V30 17 H -1.9328 -0.0626 2.375 0
M  V30 18 H -0.1858 2.1059 -2.355 0
M  V30 19 H -2.8941 2.1124 0.8603 0
M  V30 20 H -2.3591 3.3323 -1.2677 0
M  V30 END ATOM
M  V30 BEGIN BOND
M  V30 1 1 1 2
M  V30 2 1 1 3
M  V30 3 2 2 4
M  V30 4 1 2 5
M  V30 5 1 4 6
M  V30 6 2 5 7
M  V30 7 2 6 8
M  V30 8 1 6 9
M  V30 9 1 8 10
M  V30 10 2 9 11
M  V30 11 1 7 8
M  V30 12 1 10 11
M  V30 13 1 3 12
M  V30 14 1 3 13
M  V30 15 1 3 14
M  V30 16 1 4 15
M  V30 17 1 5 16
M  V30 18 1 7 17
M  V30 19 1 9 18
M  V30 20 1 10 19
M  V30 21 1 11 20
M  V30 END BOND
M  V30 END CTAB
M  END
>  <NO.>
7754

>  <Name>
bz3

>  <SMILES>
COc1ccc2[nH]ccc2c1

>  <logBB>


>  <Class>
1

>  <MW>
147.07

>  <nHBAcc>
1

>  <nHBDon>
1

>  <SLogP>
2.18

>  <TopoPSA>
25.02

>  <MMFF94 Energy>
17.991

$$$$
O=C(N/N=C/c1ccc([N+](=O)[O-])o1)c1ccc(O)cc1
Actelion Java MolfileCreator 2.0

  0  0  0  0  0  0              0 V3000
M  V30 BEGIN CTAB
M  V30 COUNTS 29 30 0 0 0
M  V30 BEGIN ATOM
M  V30 1 O 5.6052 1.9991 -1.279 0
M  V30 2 N 5.1906 2.579 -2.2888 0 CHG=1
M  V30 3 O 5.8792 3.2399 -3.0795 0 CHG=-1
M  V30 4 C 3.7972 2.4928 -2.595 0
M  V30 5 O 3.0221 1.7802 -1.7372 0
M  V30 6 C 3.0589 3.0116 -3.6318 0
M  V30 7 C 1.7435 1.8366 -2.2286 0
M  V30 8 C 1.7265 2.5849 -3.3945 0
M  V30 9 C 0.6828 1.1655 -1.5253 0
M  V30 10 N 0.8938 0.5208 -0.4242 0
M  V30 11 N -0.1981 -0.0754 0.1427 0
M  V30 12 C -0.0707 -0.7239 1.363 0
M  V30 13 O 0.9448 -0.7749 2.0471 0
M  V30 14 C -1.3154 -1.3652 1.8657 0
M  V30 15 C -2.2131 -2.0107 1.0026 0
M  V30 16 C -1.5698 -1.3384 3.2425 0
M  V30 17 C -3.3718 -2.6023 1.5147 0
M  V30 18 C -2.7295 -1.9257 3.7497 0
M  V30 19 C -3.6209 -2.5497 2.8837 0
M  V30 20 O -4.7379 -3.1132 3.4241 0
M  V30 21 H 3.433 3.6155 -4.4476 0
M  V30 22 H 0.8565 2.7989 -4.001 0
M  V30 23 H -0.3244 1.2303 -1.9734 0
M  V30 24 H -1.1025 0.0046 -0.3048 0
M  V30 25 H -2.0067 -2.0922 -0.0606 0
M  V30 26 H -0.865 -0.8598 3.9201 0
M  V30 27 H -4.0571 -3.1057 0.8397 0
M  V30 28 H -2.9313 -1.903 4.8173 0
M  V30 29 H -5.2397 -3.5591 2.7226 0
M  V30 END ATOM
M  V30 BEGIN BOND
M  V30 1 2 1 2
M  V30 2 1 2 3
M  V30 3 1 2 4
M  V30 4 1 4 5
M  V30 5 2 4 6
M  V30 6 1 5 7
M  V30 7 1 6 8
M  V30 8 1 7 9
M  V30 9 2 9 10
M  V30 10 1 10 11
M  V30 11 1 11 12
M  V30 12 2 12 13
M  V30 13 1 12 14
M  V30 14 2 14 15
M  V30 15 1 14 16
M  V30 16 1 15 17
M  V30 17 2 16 18
M  V30 18 2 17 19
M  V30 19 1 19 20
M  V30 20 2 7 8
M  V30 21 1 18 19
M  V30 22 1 6 21
M  V30 23 1 8 22
M  V30 24 1 9 23
M  V30 25 1 11 24
M  V30 26 1 15 25
M  V30 27 1 16 26
M  V30 28 1 17 27
M  V30 29 1 18 28
M  V30 30 1 20 29
M  V30 END BOND
M  V30 END CTAB
M  END
>  <NO.>
7755

>  <Name>
nifuroxazide

>  <SMILES>
O=C(N/N=C/c1ccc([N+](=O)[O-])o1)c1ccc(O)cc1

>  <logBB>


>  <Class>
-1

>  <MW>
275.05

>  <nHBAcc>
6

>  <nHBDon>
2

>  <SLogP>
1.66

>  <TopoPSA>
117.97

>  <MMFF94 Energy>
120.96

$$$$
c1ccc2[nH]c(-c3cscn3)nc2c1
Actelion Java MolfileCreator 2.0

  0  0  0  0  0  0              0 V3000
M  V30 BEGIN CTAB
M  V30 COUNTS 21 23 0 0 0
M  V30 BEGIN ATOM
M  V30 1 S 4.4703 -1.4884 1.4057 0
M  V30 2 C 4.5444 -0.0872 0.4207 0
M  V30 3 C 2.7578 -1.4663 1.2687 0
M  V30 4 N 3.3932 0.3872 0.0037 0
M  V30 5 C 2.3618 -0.3992 0.4865 0
M  V30 6 C 0.8613 -0.0778 0.153 0
M  V30 7 N 0.4599 0.9337 -0.5904 0
M  V30 8 N -0.212 -0.8104 0.5947 0
M  V30 9 C -0.9086 0.8495 -0.6278 0
M  V30 10 C -1.3596 -0.2388 0.1094 0
M  V30 11 C -1.8416 1.6718 -1.2751 0
M  V30 12 C -2.7097 -0.568 0.2465 0
M  V30 13 C -3.2035 1.3659 -1.1554 0
M  V30 14 C -3.6266 0.2643 -0.4067 0
M  V30 15 H 5.4872 0.376 0.1602 0
M  V30 16 H 2.16 -2.2191 1.7585 0
M  V30 17 H -0.165 -1.6305 1.1778 0
M  V30 18 H -1.5043 2.5245 -1.8538 0
M  V30 19 H -3.0404 -1.4222 0.8268 0
M  V30 20 H -3.9375 1.9959 -1.6526 0
M  V30 21 H -4.6908 0.0494 -0.3303 0
M  V30 END ATOM
M  V30 BEGIN BOND
M  V30 1 1 1 2
M  V30 2 1 1 3
M  V30 3 2 2 4
M  V30 4 2 3 5
M  V30 5 1 5 6
M  V30 6 2 6 7
M  V30 7 1 6 8
M  V30 8 1 7 9
M  V30 9 1 8 10
M  V30 10 1 9 11
M  V30 11 1 10 12
M  V30 12 2 11 13
M  V30 13 2 12 14
M  V30 14 1 4 5
M  V30 15 2 9 10
M  V30 16 1 13 14
M  V30 17 1 2 15
M  V30 18 1 3 16
M  V30 19 1 8 17
M  V30 20 1 11 18
M  V30 21 1 12 19
M  V30 22 1 13 20
M  V30 23 1 14 21
M  V30 END BOND
M  V30 END CTAB
M  END
>  <NO.>
7757

>  <Name>
thiabendazole

>  <SMILES>
c1ccc2[nH]c(-c3cscn3)nc2c1

>  <logBB>


>  <Class>
-1

>  <MW>
201.04

>  <nHBAcc>
3

>  <nHBDon>
1

>  <SLogP>
2.69

>  <TopoPSA>
41.57

>  <MMFF94 Energy>
22.961

$$$$
CC(=O)CC(c1ccc([N+](=O)[O-])cc1)c1c(O)c2ccccc2oc1=O
Actelion Java MolfileCreator 2.0

  0  0  0  0  0  0              0 V3000
M  V30 BEGIN CTAB
M  V30 COUNTS 41 43 0 0 0
M  V30 BEGIN ATOM
M  V30 1 O -2.423 2.1805 5.2556 0
M  V30 2 N -2.7165 2.4563 4.0834 0 CHG=1
M  V30 3 O -3.4372 3.4061 3.7447 0 CHG=-1
M  V30 4 C -2.1757 1.5972 3.0236 0
M  V30 5 C -2.5214 1.8369 1.6905 0
M  V30 6 C -1.3131 0.5468 3.3526 0
M  V30 7 C -2.0017 1.0145 0.687 0
M  V30 8 C -0.7992 -0.2708 2.3406 0
M  V30 9 C -1.1415 -0.0576 0.9955 0
M  V30 10 C -0.5961 -0.9173 -0.1517 0 CFG=1
M  V30 11 C 0.6543 -0.3013 -0.7788 0
M  V30 12 C -0.4405 -2.4211 0.1606 0
M  V30 13 C 1.8994 -0.3605 0.0422 0
M  V30 14 C 0.6921 0.2832 -1.9946 0
M  V30 15 C -1.7944 -3.0904 0.2932 0
M  V30 16 O 1.947 -0.9819 1.0994 0
M  V30 17 O 3.0261 0.2945 -0.4265 0
M  V30 18 O -0.3725 0.3673 -2.8684 0
M  V30 19 C 1.9132 0.927 -2.4855 0
M  V30 20 O -2.6827 -2.9105 -0.5406 0
M  V30 21 C -1.9892 -4.0198 1.4609 0
M  V30 22 C 3.0424 0.9218 -1.6784 0
M  V30 23 C 2.0005 1.563 -3.7309 0
M  V30 24 C 4.2389 1.5233 -2.0694 0
M  V30 25 C 3.1923 2.1712 -4.141 0
M  V30 26 C 4.3113 2.1515 -3.3096 0
M  V30 27 H -3.1865 2.6532 1.4155 0
M  V30 28 H -1.0225 0.3557 4.3841 0
M  V30 29 H -2.2777 1.22 -0.3468 0
M  V30 30 H -0.1095 -1.0617 2.6293 0
M  V30 31 H -1.3942 -0.88 -0.9009 0
M  V30 32 H 0.0819 -2.9363 -0.655 0
M  V30 33 H 0.1311 -2.6101 1.073 0
M  V30 34 H -1.0737 -0.2626 -2.6411 0
M  V30 35 H -3.0036 -4.4277 1.4418 0
M  V30 36 H -1.2741 -4.8432 1.3959 0
M  V30 37 H -1.8496 -3.4701 2.3949 0
M  V30 38 H 1.1393 1.5955 -4.395 0
M  V30 39 H 5.1048 1.5007 -1.414 0
M  V30 40 H 3.2431 2.6618 -5.1101 0
M  V30 41 H 5.2362 2.6251 -3.6285 0
M  V30 END ATOM
M  V30 BEGIN BOND
M  V30 1 2 1 2
M  V30 2 1 2 3
M  V30 3 1 2 4
M  V30 4 2 4 5
M  V30 5 1 4 6
M  V30 6 1 5 7
M  V30 7 2 6 8
M  V30 8 2 7 9
M  V30 9 1 9 10
M  V30 10 1 10 11
M  V30 11 1 10 12
M  V30 12 1 11 13
M  V30 13 2 11 14
M  V30 14 1 12 15
M  V30 15 2 13 16
M  V30 16 1 13 17
M  V30 17 1 14 18
M  V30 18 1 14 19
M  V30 19 2 15 20
M  V30 20 1 15 21
M  V30 21 1 17 22
M  V30 22 1 19 23
M  V30 23 1 22 24
M  V30 24 2 23 25
M  V30 25 2 24 26
M  V30 26 1 8 9
M  V30 27 2 19 22
M  V30 28 1 25 26
M  V30 29 1 5 27
M  V30 30 1 6 28
M  V30 31 1 7 29
M  V30 32 1 8 30
M  V30 33 1 10 31
M  V30 34 1 12 32
M  V30 35 1 12 33
M  V30 36 1 18 34
M  V30 37 1 21 35
M  V30 38 1 21 36
M  V30 39 1 21 37
M  V30 40 1 23 38
M  V30 41 1 24 39
M  V30 42 1 25 40
M  V30 43 1 26 41
M  V30 END BOND
M  V30 BEGIN COLLECTION
M  V30 MDLV30/STERAC1 ATOMS=(1 10)
M  V30 END COLLECTION
M  V30 END CTAB
M  END
>  <NO.>
7760

>  <Name>
acenocumarol

>  <SMILES>
CC(=O)CC(c1ccc([N+](=O)[O-])cc1)c1c(O)c2ccccc2oc1=O

>  <logBB>


>  <Class>
-1

>  <MW>
353.09

>  <nHBAcc>
6

>  <nHBDon>
1

>  <SLogP>
3.52

>  <TopoPSA>
110.65

>  <MMFF94 Energy>
84.105

$$$$
CC(=O)CCCCn1c(=O)c2c(ncn2C)n(C)c1=O
Actelion Java MolfileCreator 2.0

  0  0  0  0  0  0              0 V3000
M  V30 BEGIN CTAB
M  V30 COUNTS 38 39 0 0 0
M  V30 BEGIN ATOM
M  V30 1 O 1.891 -1.7333 1.1027 0
M  V30 2 C 1.4009 -0.692 1.5499 0
M  V30 3 N 0.0923 -0.2933 1.2029 0
M  V30 4 N 2.1163 0.1454 2.4073 0
M  V30 5 C -0.5254 0.8988 1.5992 0
M  V30 6 C -0.666 -1.175 0.3211 0
M  V30 7 C 1.5371 1.3096 2.8501 0
M  V30 8 C 3.4653 -0.197 2.8203 0
M  V30 9 O -1.6427 1.2529 1.2335 0
M  V30 10 C 0.283 1.6779 2.4691 0
M  V30 11 C -0.4043 -0.8506 -1.1528 0
M  V30 12 N 2.1054 2.2254 3.6831 0
M  V30 13 N 0.0611 2.8722 3.0923 0
M  V30 14 C -1.207 -1.7683 -2.0741 0
M  V30 15 C 1.1878 3.1629 3.8152 0
M  V30 16 C -1.1302 3.6786 3.0119 0
M  V30 17 C -0.9341 -1.4584 -3.5442 0
M  V30 18 C -1.7259 -2.3527 -4.4817 0
M  V30 19 O -2.5276 -3.1948 -4.08 0
M  V30 20 C -1.4841 -2.1499 -5.9549 0
M  V30 21 H -0.3963 -2.2177 0.5263 0
M  V30 22 H -1.7363 -1.0749 0.5374 0
M  V30 23 H 4.1526 0.581 2.4734 0
M  V30 24 H 3.7873 -1.1566 2.4077 0
M  V30 25 H 3.5009 -0.2573 3.9127 0
M  V30 26 H 0.6659 -0.9526 -1.3704 0
M  V30 27 H -0.6665 0.1954 -1.354 0
M  V30 28 H -2.2781 -1.6549 -1.8647 0
M  V30 29 H -0.9537 -2.8152 -1.8654 0
M  V30 30 H 1.2881 4.06 4.4137 0
M  V30 31 H -1.009 4.5711 3.6313 0
M  V30 32 H -1.2826 3.9712 1.9701 0
M  V30 33 H -1.9751 3.0893 3.3771 0
M  V30 34 H 0.1302 -1.5988 -3.7627 0
M  V30 35 H -1.2023 -0.4191 -3.7644 0
M  V30 36 H -2.1032 -2.8443 -6.5295 0
M  V30 37 H -1.75 -1.1268 -6.2321 0
M  V30 38 H -0.433 -2.3421 -6.1833 0
M  V30 END ATOM
M  V30 BEGIN BOND
M  V30 1 2 1 2
M  V30 2 1 2 3
M  V30 3 1 2 4
M  V30 4 1 3 5
M  V30 5 1 3 6
M  V30 6 1 4 7
M  V30 7 1 4 8
M  V30 8 2 5 9
M  V30 9 1 5 10
M  V30 10 1 6 11
M  V30 11 1 7 12
M  V30 12 1 10 13
M  V30 13 1 11 14
M  V30 14 2 12 15
M  V30 15 1 13 16
M  V30 16 1 14 17
M  V30 17 1 17 18
M  V30 18 2 18 19
M  V30 19 1 18 20
M  V30 20 2 7 10
M  V30 21 1 13 15
M  V30 22 1 6 21
M  V30 23 1 6 22
M  V30 24 1 8 23
M  V30 25 1 8 24
M  V30 26 1 8 25
M  V30 27 1 11 26
M  V30 28 1 11 27
M  V30 29 1 14 28
M  V30 30 1 14 29
M  V30 31 1 15 30
M  V30 32 1 16 31
M  V30 33 1 16 32
M  V30 34 1 16 33
M  V30 35 1 17 34
M  V30 36 1 17 35
M  V30 37 1 20 36
M  V30 38 1 20 37
M  V30 39 1 20 38
M  V30 END BOND
M  V30 END CTAB
M  END
>  <NO.>
7761

>  <Name>
pentoxifylline

>  <SMILES>
CC(=O)CCCCn1c(=O)c2c(ncn2C)n(C)c1=O

>  <logBB>


>  <Class>
-1

>  <MW>
278.14

>  <nHBAcc>
4

>  <nHBDon>
0

>  <SLogP>
0.19

>  <TopoPSA>
78.89

>  <MMFF94 Energy>
-121.18

$$$$
CC(C)(C#N)c1cc(Cn2cncn2)cc(C(C)(C)C#N)c1
Actelion Java MolfileCreator 2.0

  0  0  0  0  0  0              0 V3000
M  V30 BEGIN CTAB
M  V30 COUNTS 41 42 0 0 0
M  V30 BEGIN ATOM
M  V30 1 N -4.7835 -0.3979 0.8756 0
M  V30 2 C -3.8734 0.3151 0.7674 0
M  V30 3 C -2.7021 1.2272 0.6497 0
M  V30 4 C -1.438 0.4364 0.2484 0
M  V30 5 C -3.0968 2.3382 -0.3484 0
M  V30 6 C -2.4517 1.8953 2.0185 0
M  V30 7 C -0.5956 0.8337 -0.8101 0
M  V30 8 C -1.0817 -0.7203 0.9704 0
M  V30 9 C 0.5647 0.1152 -1.1629 0
M  V30 10 C 0.0629 -1.4607 0.6519 0
M  V30 11 C 0.874 -1.0327 -0.4082 0
M  V30 12 C 1.4928 0.5389 -2.3217 0
M  V30 13 C 0.4195 -2.7025 1.4347 0
M  V30 14 C 2.8634 0.8163 -1.8118 0
M  V30 15 C 1.0242 1.8076 -3.071 0
M  V30 16 C 1.5668 -0.5995 -3.3638 0
M  V30 17 N 1.6187 -2.5087 2.227 0
M  V30 18 N 3.9385 1.0433 -1.4363 0
M  V30 19 N 2.8033 -3.0229 1.8402 0
M  V30 20 C 1.7308 -1.8677 3.4216 0
M  V30 21 C 3.5955 -2.6319 2.8427 0
M  V30 22 N 2.9743 -1.931 3.838 0
M  V30 23 H -2.3278 3.1162 -0.4172 0
M  V30 24 H -3.2656 1.9347 -1.3545 0
M  V30 25 H -4.027 2.8344 -0.0433 0
M  V30 26 H -3.3205 2.4828 2.3402 0
M  V30 27 H -1.5883 2.5701 1.9782 0
M  V30 28 H -2.2571 1.1591 2.8078 0
M  V30 29 H -0.8483 1.728 -1.3713 0
M  V30 30 H -1.7097 -1.0562 1.7965 0
M  V30 31 H 1.7739 -1.6085 -0.6351 0
M  V30 32 H 0.5828 -3.547 0.7552 0
M  V30 33 H -0.3822 -2.988 2.1253 0
M  V30 34 H 0.0331 1.6698 -3.5191 0
M  V30 35 H 0.9815 2.6794 -2.4064 0
M  V30 36 H 1.7144 2.0667 -3.884 0
M  V30 37 H 2.189 -0.3143 -4.2212 0
M  V30 38 H 0.57 -0.8528 -3.744 0
M  V30 39 H 2.0058 -1.5155 -2.9516 0
M  V30 40 H 0.9051 -1.3865 3.9263 0
M  V30 41 H 4.6522 -2.8668 2.8524 0
M  V30 END ATOM
M  V30 BEGIN BOND
M  V30 1 3 1 2
M  V30 2 1 2 3
M  V30 3 1 3 4
M  V30 4 1 3 5
M  V30 5 1 3 6
M  V30 6 2 4 7
M  V30 7 1 4 8
M  V30 8 1 7 9
M  V30 9 2 8 10
M  V30 10 2 9 11
M  V30 11 1 9 12
M  V30 12 1 10 13
M  V30 13 1 12 14
M  V30 14 1 12 15
M  V30 15 1 12 16
M  V30 16 1 13 17
M  V30 17 3 14 18
M  V30 18 1 17 19
M  V30 19 1 17 20
M  V30 20 2 19 21
M  V30 21 2 20 22
M  V30 22 1 10 11
M  V30 23 1 21 22
M  V30 24 1 5 23
M  V30 25 1 5 24
M  V30 26 1 5 25
M  V30 27 1 6 26
M  V30 28 1 6 27
M  V30 29 1 6 28
M  V30 30 1 7 29
M  V30 31 1 8 30
M  V30 32 1 11 31
M  V30 33 1 13 32
M  V30 34 1 13 33
M  V30 35 1 15 34
M  V30 36 1 15 35
M  V30 37 1 15 36
M  V30 38 1 16 37
M  V30 39 1 16 38
M  V30 40 1 16 39
M  V30 41 1 20 40
M  V30 42 1 21 41
M  V30 END BOND
M  V30 END CTAB
M  END
>  <NO.>
7762

>  <Name>
anastrozole

>  <SMILES>
CC(C)(C#N)c1cc(Cn2cncn2)cc(C(C)(C)C#N)c1

>  <logBB>


>  <Class>
-1

>  <MW>
293.16

>  <nHBAcc>
4

>  <nHBDon>
0

>  <SLogP>
2.93

>  <TopoPSA>
78.29

>  <MMFF94 Energy>
104.94

$$$$
CC(C)(C(=O)c1cccnc1)c1cccnc1
Actelion Java MolfileCreator 2.0

  0  0  0  0  0  0              0 V3000
M  V30 BEGIN CTAB
M  V30 COUNTS 31 32 0 0 0
M  V30 BEGIN ATOM
M  V30 1 O -0.3179 -0.795 -1.9884 0
M  V30 2 C -0.1576 0.067 -1.1237 0
M  V30 3 C 0.7757 1.1589 -1.4518 0
M  V30 4 C -0.8779 0.0188 0.2509 0
M  V30 5 C 0.3625 2.48 -1.5179 0
M  V30 6 C 2.1006 0.8577 -1.7656 0
M  V30 7 C -0.7098 -1.3898 0.8481 0
M  V30 8 C -2.3487 0.3916 -0.0358 0
M  V30 9 C -0.3347 1.0209 1.2926 0
M  V30 10 N 1.1922 3.5072 -1.8177 0
M  V30 11 C 2.9716 1.8945 -2.089 0
M  V30 12 C 0.5702 -1.9036 1.0862 0
M  V30 13 C -1.7794 -2.2254 1.1929 0
M  V30 14 C 2.4774 3.1904 -2.0967 0
M  V30 15 N 0.834 -3.1159 1.6259 0
M  V30 16 C -1.5398 -3.4851 1.7408 0
M  V30 17 C -0.2297 -3.8815 1.9367 0
M  V30 18 H -0.6672 2.7721 -1.3385 0
M  V30 19 H 2.4489 -0.1722 -1.7679 0
M  V30 20 H -2.8138 -0.308 -0.7406 0
M  V30 21 H -2.9508 0.4019 0.8801 0
M  V30 22 H -2.4265 1.3883 -0.4848 0
M  V30 23 H -0.5639 2.0575 1.0246 0
M  V30 24 H -0.7826 0.8461 2.2791 0
M  V30 25 H 0.7524 0.9475 1.4102 0
M  V30 26 H 4.0089 1.6966 -2.3368 0
M  V30 27 H 1.4639 -1.3338 0.8451 0
M  V30 28 H -2.812 -1.9256 1.0411 0
M  V30 29 H 3.1191 4.0326 -2.3427 0
M  V30 30 H -2.3601 -4.1427 2.0058 0
M  V30 31 H 0.0048 -4.8538 2.3596 0
M  V30 END ATOM
M  V30 BEGIN BOND
M  V30 1 2 1 2
M  V30 2 1 2 3
M  V30 3 1 2 4
M  V30 4 2 3 5
M  V30 5 1 3 6
M  V30 6 1 4 7
M  V30 7 1 4 8
M  V30 8 1 4 9
M  V30 9 1 5 10
M  V30 10 2 6 11
M  V30 11 2 7 12
M  V30 12 1 7 13
M  V30 13 2 10 14
M  V30 14 1 12 15
M  V30 15 2 13 16
M  V30 16 2 15 17
M  V30 17 1 11 14
M  V30 18 1 16 17
M  V30 19 1 5 18
M  V30 20 1 6 19
M  V30 21 1 8 20
M  V30 22 1 8 21
M  V30 23 1 8 22
M  V30 24 1 9 23
M  V30 25 1 9 24
M  V30 26 1 9 25
M  V30 27 1 11 26
M  V30 28 1 12 27
M  V30 29 1 13 28
M  V30 30 1 14 29
M  V30 31 1 16 30
M  V30 32 1 17 31
M  V30 END BOND
M  V30 END CTAB
M  END
>  <NO.>
7763

>  <Name>
metyrapone

>  <SMILES>
CC(C)(C(=O)c1cccnc1)c1cccnc1

>  <logBB>


>  <Class>
-1

>  <MW>
226.11

>  <nHBAcc>
3

>  <nHBDon>
0

>  <SLogP>
2.64

>  <TopoPSA>
42.85

>  <MMFF94 Energy>
82.429

$$$$
CC(C)C(=O)Nc1ccc([N+](=O)[O-])c(C(F)(F)F)c1
Actelion Java MolfileCreator 2.0

  0  0  0  0  0  0              0 V3000
M  V30 BEGIN CTAB
M  V30 COUNTS 30 30 0 0 0
M  V30 BEGIN ATOM
M  V30 1 F 0.6415 0.6415 -3.7735 0
M  V30 2 C 1.6893 -0.149 -3.4054 0
M  V30 3 F 2.7959 0.628 -3.5234 0
M  V30 4 F 1.7687 -1.1019 -4.3731 0
M  V30 5 C 1.5246 -0.7317 -2.026 0
M  V30 6 C 2.2305 -1.8652 -1.5988 0
M  V30 7 C 0.6274 -0.135 -1.1161 0
M  V30 8 N 3.2077 -2.5139 -2.4632 0 CHG=1
M  V30 9 C 2.0319 -2.4157 -0.3255 0
M  V30 10 C 0.4321 -0.6593 0.168 0
M  V30 11 O 3.0997 -3.7373 -2.6128 0
M  V30 12 O 4.0875 -1.7986 -2.9538 0 CHG=-1
M  V30 13 C 1.1283 -1.8116 0.5501 0
M  V30 14 N -0.4662 -0.1074 1.1014 0
M  V30 15 C -0.9845 1.1794 1.0912 0
M  V30 16 O -0.7054 2.051 0.275 0
M  V30 17 C -1.9647 1.4234 2.2415 0
M  V30 18 C -2.2481 2.9135 2.4188 0
M  V30 19 C -3.2647 0.6599 1.9955 0
M  V30 20 H 0.0695 0.7424 -1.4418 0
M  V30 21 H 2.5774 -3.3031 -0.0083 0
M  V30 22 H 0.9891 -2.2453 1.538 0
M  V30 23 H -0.7078 -0.6894 1.8943 0
M  V30 24 H -1.5017 1.0524 3.1647 0
M  V30 25 H -2.9045 3.0855 3.2784 0
M  V30 26 H -1.3189 3.4686 2.5878 0
M  V30 27 H -2.7318 3.3383 1.5322 0
M  V30 28 H -3.0884 -0.419 1.9342 0
M  V30 29 H -3.7322 0.9694 1.0541 0
M  V30 30 H -3.9797 0.8347 2.8064 0
M  V30 END ATOM
M  V30 BEGIN BOND
M  V30 1 1 1 2
M  V30 2 1 2 3
M  V30 3 1 2 4
M  V30 4 1 2 5
M  V30 5 2 5 6
M  V30 6 1 5 7
M  V30 7 1 6 8
M  V30 8 1 6 9
M  V30 9 2 7 10
M  V30 10 2 8 11
M  V30 11 1 8 12
M  V30 12 2 9 13
M  V30 13 1 10 14
M  V30 14 1 14 15
M  V30 15 2 15 16
M  V30 16 1 15 17
M  V30 17 1 17 18
M  V30 18 1 17 19
M  V30 19 1 10 13
M  V30 20 1 7 20
M  V30 21 1 9 21
M  V30 22 1 13 22
M  V30 23 1 14 23
M  V30 24 1 17 24
M  V30 25 1 18 25
M  V30 26 1 18 26
M  V30 27 1 18 27
M  V30 28 1 19 28
M  V30 29 1 19 29
M  V30 30 1 19 30
M  V30 END BOND
M  V30 END CTAB
M  END
>  <NO.>
7764

>  <Name>
flutamide

>  <SMILES>
CC(C)C(=O)Nc1ccc([N+](=O)[O-])c(C(F)(F)F)c1

>  <logBB>


>  <Class>
-1

>  <MW>
276.07

>  <nHBAcc>
3

>  <nHBDon>
1

>  <SLogP>
3.21

>  <TopoPSA>
72.24

>  <MMFF94 Energy>
19.919

$$$$
CC1(C)NC(=O)N(c2ccc([N+](=O)[O-])c(C(F)(F)F)c2)C1=O
Actelion Java MolfileCreator 2.0

  0  0  0  0  0  0              0 V3000
M  V30 BEGIN CTAB
M  V30 COUNTS 32 33 0 0 0
M  V30 BEGIN ATOM
M  V30 1 F -4.2224 1.1354 -0.4865 0
M  V30 2 C -3.7901 1.7976 0.6247 0
M  V30 3 F -4.5335 1.3147 1.6519 0
M  V30 4 F -4.1648 3.0906 0.4338 0
M  V30 5 C -2.308 1.6436 0.8474 0
M  V30 6 C -1.5712 2.5277 1.6474 0
M  V30 7 C -1.6138 0.5798 0.2337 0
M  V30 8 N -2.2212 3.625 2.3523 0 CHG=1
M  V30 9 C -0.1879 2.3852 1.8125 0
M  V30 10 C -0.227 0.4101 0.3924 0
M  V30 11 O -1.7306 4.7519 2.2133 0
M  V30 12 O -3.1954 3.3405 3.0572 0 CHG=-1
M  V30 13 C 0.4756 1.3287 1.1843 0
M  V30 14 N 0.4437 -0.6648 -0.2348 0
M  V30 15 C -0.0807 -1.9223 -0.4091 0
M  V30 16 C 1.719 -0.6092 -0.7569 0
M  V30 17 O -1.1697 -2.3557 -0.0676 0
M  V30 18 N 0.8517 -2.7027 -1.0563 0
M  V30 19 O 2.4786 0.3523 -0.784 0
M  V30 20 C 2.0683 -1.9884 -1.3424 0
M  V30 21 C 3.2534 -2.5949 -0.6027 0
M  V30 22 C 2.3099 -1.8856 -2.8424 0
M  V30 23 H -2.1765 -0.1172 -0.3897 0
M  V30 24 H 0.3783 3.0823 2.4285 0
M  V30 25 H 1.5495 1.2318 1.3353 0
M  V30 26 H 0.6573 -3.6721 -1.275 0
M  V30 27 H 4.1673 -2.0163 -0.7763 0
M  V30 28 H 3.434 -3.6257 -0.9265 0
M  V30 29 H 3.0805 -2.6151 0.4798 0
M  V30 30 H 1.4673 -1.4016 -3.3502 0
M  V30 31 H 2.438 -2.8775 -3.2895 0
M  V30 32 H 3.2056 -1.2936 -3.0601 0
M  V30 END ATOM
M  V30 BEGIN BOND
M  V30 1 1 1 2
M  V30 2 1 2 3
M  V30 3 1 2 4
M  V30 4 1 2 5
M  V30 5 2 5 6
M  V30 6 1 5 7
M  V30 7 1 6 8
M  V30 8 1 6 9
M  V30 9 2 7 10
M  V30 10 2 8 11
M  V30 11 1 8 12
M  V30 12 2 9 13
M  V30 13 1 10 14
M  V30 14 1 14 15
M  V30 15 1 14 16
M  V30 16 2 15 17
M  V30 17 1 15 18
M  V30 18 2 16 19
M  V30 19 1 16 20
M  V30 20 1 20 21
M  V30 21 1 20 22
M  V30 22 1 10 13
M  V30 23 1 18 20
M  V30 24 1 7 23
M  V30 25 1 9 24
M  V30 26 1 13 25
M  V30 27 1 18 26
M  V30 28 1 21 27
M  V30 29 1 21 28
M  V30 30 1 21 29
M  V30 31 1 22 30
M  V30 32 1 22 31
M  V30 33 1 22 32
M  V30 END BOND
M  V30 END CTAB
M  END
>  <NO.>
7766

>  <Name>
nilutamide

>  <SMILES>
CC1(C)NC(=O)N(c2ccc([N+](=O)[O-])c(C(F)(F)F)c2)C1=O

>  <logBB>


>  <Class>
-1

>  <MW>
317.06

>  <nHBAcc>
4

>  <nHBDon>
1

>  <SLogP>
2.45

>  <TopoPSA>
92.55

>  <MMFF94 Energy>
16.841

$$$$
CC1=Nc2ccc(Cl)cc2S(=O)(=O)N1
Actelion Java MolfileCreator 2.0

  0  0  0  0  0  0              0 V3000
M  V30 BEGIN CTAB
M  V30 COUNTS 21 22 0 0 0
M  V30 BEGIN ATOM
M  V30 1 Cl -3.1061 -2.6019 -2.6019 0
M  V30 2 C -2.0656 -1.462 -1.8454 0
M  V30 3 C -1.4762 -1.7657 -0.6247 0
M  V30 4 C -1.8184 -0.2354 -2.4578 0
M  V30 5 C -0.6358 -0.8193 -0.0279 0
M  V30 6 C -0.9676 0.6907 -1.843 0
M  V30 7 S 0.0839 -1.1743 1.5149 0
M  V30 8 C -0.3557 0.4099 -0.6157 0
M  V30 9 O 0.7574 -2.4505 1.4145 0
M  V30 10 O -0.8986 -0.9139 2.5419 0
M  V30 11 N 1.2708 -0.0325 1.6462 0
M  V30 12 N 0.5051 1.3854 -0.0943 0
M  V30 13 C 1.2656 1.1557 0.9208 0
M  V30 14 C 2.2615 2.1869 1.3656 0
M  V30 15 H -1.6683 -2.7184 -0.137 0
M  V30 16 H -2.2787 0.0084 -3.412 0
M  V30 17 H -0.7736 1.6443 -2.3305 0
M  V30 18 H 2.021 -0.2743 2.2857 0
M  V30 19 H 2.1451 2.3732 2.4371 0
M  V30 20 H 2.1188 3.1229 0.8191 0
M  V30 21 H 3.2732 1.8143 1.1817 0
M  V30 END ATOM
M  V30 BEGIN BOND
M  V30 1 1 1 2
M  V30 2 2 2 3
M  V30 3 1 2 4
M  V30 4 1 3 5
M  V30 5 2 4 6
M  V30 6 1 5 7
M  V30 7 2 5 8
M  V30 8 2 7 9
M  V30 9 2 7 10
M  V30 10 1 7 11
M  V30 11 1 8 12
M  V30 12 1 11 13
M  V30 13 1 13 14
M  V30 14 1 6 8
M  V30 15 2 12 13
M  V30 16 1 3 15
M  V30 17 1 4 16
M  V30 18 1 6 17
M  V30 19 1 11 18
M  V30 20 1 14 19
M  V30 21 1 14 20
M  V30 22 1 14 21
M  V30 END BOND
M  V30 END CTAB
M  END
>  <NO.>
7767

>  <Name>
diazoxide

>  <SMILES>
CC1=Nc2ccc(Cl)cc2S(=O)(=O)N1

>  <logBB>


>  <Class>
-1

>  <MW>
229.99

>  <nHBAcc>
3

>  <nHBDon>
1

>  <SLogP>
1.68

>  <TopoPSA>
58.53

>  <MMFF94 Energy>
-119.3

$$$$
CCC1=C(C)CN(C(=O)NCCc2ccc(S(=O)(=O)NC(=O)NC3CCC(C)CC3)cc2)C1=O
Actelion Java MolfileCreator 2.0

  0  0  0  0  0  0              0 V3000
M  V30 BEGIN CTAB
M  V30 COUNTS 68 70 0 0 0
M  V30 BEGIN ATOM
M  V30 1 S -0.2389 -1.8327 -5.3459 0
M  V30 2 O 0.7341 -2.2892 -6.3134 0
M  V30 3 O -1.2729 -0.8792 -5.6933 0
M  V30 4 N -0.9657 -3.1751 -4.7134 0
M  V30 5 C 0.647 -1.2018 -3.9413 0
M  V30 6 C -2.0023 -3.2418 -3.7956 0
M  V30 7 C 1.8706 -1.7801 -3.5912 0
M  V30 8 C 0.135 -0.1229 -3.2172 0
M  V30 9 O -2.1892 -4.2862 -3.1911 0
M  V30 10 N -2.77 -2.1277 -3.6551 0
M  V30 11 C 2.5739 -1.2897 -2.4897 0
M  V30 12 C 0.8421 0.3615 -2.1163 0
M  V30 13 C -3.8929 -2.0491 -2.7372 0
M  V30 14 C 2.0653 -0.2164 -1.7447 0
M  V30 15 C -4.0564 -0.614 -2.2271 0
M  V30 16 C -5.1762 -2.5435 -3.4139 0
M  V30 17 C 2.8077 0.3038 -0.5379 0
M  V30 18 C -5.2671 -0.4767 -1.3069 0
M  V30 19 C -6.3879 -2.4043 -2.4947 0
M  V30 20 C 2.3086 -0.3466 0.7549 0
M  V30 21 C -6.5527 -0.966 -1.9864 0
M  V30 22 N 3.0021 0.1577 1.9279 0
M  V30 23 C -7.7401 -0.8645 -1.0306 0
M  V30 24 C 2.6609 1.3731 2.4889 0
M  V30 25 O 1.7727 2.0549 1.9847 0
M  V30 26 N 3.3825 1.7293 3.609 0
M  V30 27 C 3.1844 2.9207 4.3058 0
M  V30 28 C 4.4236 0.9504 4.2242 0
M  V30 29 O 2.3992 3.8299 4.1031 0
M  V30 30 C 4.1468 2.939 5.437 0
M  V30 31 C 4.8412 1.7949 5.3761 0
M  V30 32 C 4.1878 4.0671 6.4083 0
M  V30 33 C 5.9219 1.3224 6.2837 0
M  V30 34 C 4.9519 5.2631 5.8603 0
M  V30 35 H -0.4615 -4.041 -4.8727 0
M  V30 36 H 2.2823 -2.6048 -4.1686 0
M  V30 37 H -0.8054 0.3467 -3.4947 0
M  V30 38 H -2.6415 -1.3838 -4.3356 0
M  V30 39 H 3.5241 -1.746 -2.2199 0
M  V30 40 H 0.4375 1.1983 -1.5469 0
M  V30 41 H -3.6765 -2.7022 -1.8817 0
M  V30 42 H -3.1514 -0.3032 -1.6906 0
M  V30 43 H -4.1647 0.0753 -3.0749 0
M  V30 44 H -5.3529 -1.9763 -4.3373 0
M  V30 45 H -5.0649 -3.5928 -3.713 0
M  V30 46 H 2.7011 1.3949 -0.4913 0
M  V30 47 H 3.8837 0.1215 -0.6562 0
M  V30 48 H -5.0883 -1.0493 -0.3877 0
M  V30 49 H -5.3775 0.5731 -1.01 0
M  V30 50 H -6.2765 -3.0905 -1.6453 0
M  V30 51 H -7.2894 -2.7145 -3.0367 0
M  V30 52 H 1.2325 -0.1808 0.8858 0
M  V30 53 H 2.4731 -1.4298 0.7279 0
M  V30 54 H -6.7571 -0.3163 -2.8479 0
M  V30 55 H 3.7248 -0.4176 2.3252 0
M  V30 56 H -7.5949 -1.4938 -0.1459 0
M  V30 57 H -7.8791 0.1678 -0.6925 0
M  V30 58 H -8.6643 -1.1825 -1.5245 0
M  V30 59 H 4.0205 -0.0155 4.5455 0
M  V30 60 H 5.2386 0.7939 3.5101 0
M  V30 61 H 4.6521 3.7478 7.3479 0
M  V30 62 H 3.1664 4.371 6.6666 0
M  V30 63 H 6.838 1.134 5.7148 0
M  V30 64 H 6.1613 2.0521 7.0623 0
M  V30 65 H 5.6234 0.3914 6.7761 0
M  V30 66 H 4.9699 6.0699 6.6003 0
M  V30 67 H 4.486 5.6533 4.9494 0
M  V30 68 H 5.9882 4.9968 5.6263 0
M  V30 END ATOM
M  V30 BEGIN BOND
M  V30 1 2 1 2
M  V30 2 2 1 3
M  V30 3 1 1 4
M  V30 4 1 1 5
M  V30 5 1 4 6
M  V30 6 2 5 7
M  V30 7 1 5 8
M  V30 8 2 6 9
M  V30 9 1 6 10
M  V30 10 1 7 11
M  V30 11 2 8 12
M  V30 12 1 10 13
M  V30 13 2 11 14
M  V30 14 1 13 15
M  V30 15 1 13 16
M  V30 16 1 14 17
M  V30 17 1 15 18
M  V30 18 1 16 19
M  V30 19 1 17 20
M  V30 20 1 18 21
M  V30 21 1 20 22
M  V30 22 1 21 23
M  V30 23 1 22 24
M  V30 24 2 24 25
M  V30 25 1 24 26
M  V30 26 1 26 27
M  V30 27 1 26 28
M  V30 28 2 27 29
M  V30 29 1 27 30
M  V30 30 1 28 31
M  V30 31 1 30 32
M  V30 32 1 31 33
M  V30 33 1 32 34
M  V30 34 1 12 14
M  V30 35 1 19 21
M  V30 36 2 30 31
M  V30 37 1 4 35
M  V30 38 1 7 36
M  V30 39 1 8 37
M  V30 40 1 10 38
M  V30 41 1 11 39
M  V30 42 1 12 40
M  V30 43 1 13 41
M  V30 44 1 15 42
M  V30 45 1 15 43
M  V30 46 1 16 44
M  V30 47 1 16 45
M  V30 48 1 17 46
M  V30 49 1 17 47
M  V30 50 1 18 48
M  V30 51 1 18 49
M  V30 52 1 19 50
M  V30 53 1 19 51
M  V30 54 1 20 52
M  V30 55 1 20 53
M  V30 56 1 21 54
M  V30 57 1 22 55
M  V30 58 1 23 56
M  V30 59 1 23 57
M  V30 60 1 23 58
M  V30 61 1 28 59
M  V30 62 1 28 60
M  V30 63 1 32 61
M  V30 64 1 32 62
M  V30 65 1 33 63
M  V30 66 1 33 64
M  V30 67 1 33 65
M  V30 68 1 34 66
M  V30 69 1 34 67
M  V30 70 1 34 68
M  V30 END BOND
M  V30 END CTAB
M  END
>  <NO.>
7768

>  <Name>
glimepiride

>  <SMILES>
CCC1=C(C)CN(C(=O)NCCc2ccc(S(=O)(=O)NC(=O)NC3CCC(C)CC3)cc2)C1=O

>  <logBB>


>  <Class>
-1

>  <MW>
490.22

>  <nHBAcc>
5

>  <nHBDon>
3

>  <SLogP>
3.07

>  <TopoPSA>
124.68

>  <MMFF94 Energy>
-230.08

$$$$
CCCCC1=NC2(CCCC2)C(=O)N1Cc1ccc(-c2ccccc2-c2nn[nH]n2)cc1
Actelion Java MolfileCreator 2.0

  0  0  0  0  0  0              0 V3000
M  V30 BEGIN CTAB
M  V30 COUNTS 60 64 0 0 0
M  V30 BEGIN ATOM
M  V30 1 O -0.08 2.723 3.3645 0
M  V30 2 C 0.4808 2.5871 2.2885 0
M  V30 3 N 1.0957 1.4684 1.8085 0
M  V30 4 C 0.6366 3.6393 1.2071 0
M  V30 5 C 1.5938 1.7437 0.5883 0
M  V30 6 C 1.1552 0.2243 2.5593 0
M  V30 7 N 1.3959 2.9447 0.1357 0
M  V30 8 C 1.4091 4.8699 1.6903 0
M  V30 9 C -0.7096 4.136 0.6719 0
M  V30 10 C 2.3074 0.6834 -0.2184 0
M  V30 11 C 0.2113 -0.818 2.0065 0
M  V30 12 C 0.3677 5.9811 1.745 0
M  V30 13 C -0.5612 5.6509 0.5896 0
M  V30 14 C 3.0385 1.237 -1.4406 0
M  V30 15 C -1.1718 -0.5908 1.9919 0
M  V30 16 C 0.7051 -2.0182 1.4783 0
M  V30 17 C 3.8351 0.1719 -2.1974 0
M  V30 18 C -2.0384 -1.5258 1.42 0
M  V30 19 C -0.1633 -2.9501 0.9053 0
M  V30 20 C 2.9617 -0.8989 -2.8341 0
M  V30 21 C -1.5441 -2.7083 0.8526 0
M  V30 22 C -2.4489 -3.6732 0.2089 0
M  V30 23 C -2.5401 -3.8264 -1.1943 0
M  V30 24 C -3.2303 -4.5118 1.0289 0
M  V30 25 C -1.7974 -2.9887 -2.127 0
M  V30 26 C -3.3789 -4.8221 -1.7301 0
M  V30 27 C -4.0683 -5.485 0.4819 0
M  V30 28 N -1.1497 -3.5055 -3.2276 0
M  V30 29 N -1.7051 -1.6488 -2.0634 0
M  V30 30 C -4.139 -5.6437 -0.8973 0
M  V30 31 N -0.6005 -2.4807 -3.865 0
M  V30 32 N -0.9509 -1.4103 -3.1434 0
M  V30 33 H 2.1873 -0.1416 2.5281 0
M  V30 34 H 0.9061 0.406 3.6113 0
M  V30 35 H 1.8846 4.73 2.6669 0
M  V30 36 H 2.196 5.1447 0.9768 0
M  V30 37 H -0.9686 3.7145 -0.3052 0
M  V30 38 H -1.5258 3.8892 1.3619 0
M  V30 39 H 1.5492 -0.0392 -0.537 0
M  V30 40 H 3.016 0.1584 0.4306 0
M  V30 41 H -0.1787 5.9408 2.6949 0
M  V30 42 H 0.8157 6.9743 1.6496 0
M  V30 43 H -1.5229 6.1664 0.6666 0
M  V30 44 H -0.0964 5.9329 -0.3626 0
M  V30 45 H 3.7316 2.0251 -1.1201 0
M  V30 46 H 2.3224 1.7114 -2.1231 0
M  V30 47 H -1.5858 0.3259 2.409 0
M  V30 48 H 1.7715 -2.2323 1.485 0
M  V30 49 H 4.4121 0.6663 -2.988 0
M  V30 50 H 4.5599 -0.3008 -1.5245 0
M  V30 51 H -3.1056 -1.3137 1.3928 0
M  V30 52 H 0.2446 -3.8663 0.4823 0
M  V30 53 H 3.5764 -1.5751 -3.4367 0
M  V30 54 H 2.45 -1.5026 -2.0786 0
M  V30 55 H 2.208 -0.4518 -3.4899 0
M  V30 56 H -3.1749 -4.4136 2.1123 0
M  V30 57 H -3.451 -4.9539 -2.8088 0
M  V30 58 H -4.6588 -6.1224 1.1355 0
M  V30 59 H -4.7865 -6.4039 -1.3271 0
M  V30 60 H -0.6631 -0.4715 -3.4052 0
M  V30 END ATOM
M  V30 BEGIN BOND
M  V30 1 2 1 2
M  V30 2 1 2 3
M  V30 3 1 2 4
M  V30 4 1 3 5
M  V30 5 1 3 6
M  V30 6 1 4 7
M  V30 7 1 4 8
M  V30 8 1 4 9
M  V30 9 1 5 10
M  V30 10 1 6 11
M  V30 11 1 8 12
M  V30 12 1 9 13
M  V30 13 1 10 14
M  V30 14 2 11 15
M  V30 15 1 11 16
M  V30 16 1 14 17
M  V30 17 1 15 18
M  V30 18 2 16 19
M  V30 19 1 17 20
M  V30 20 2 18 21
M  V30 21 1 21 22
M  V30 22 2 22 23
M  V30 23 1 22 24
M  V30 24 1 23 25
M  V30 25 1 23 26
M  V30 26 2 24 27
M  V30 27 1 25 28
M  V30 28 2 25 29
M  V30 29 2 26 30
M  V30 30 2 28 31
M  V30 31 1 29 32
M  V30 32 2 5 7
M  V30 33 1 12 13
M  V30 34 1 19 21
M  V30 35 1 27 30
M  V30 36 1 31 32
M  V30 37 1 6 33
M  V30 38 1 6 34
M  V30 39 1 8 35
M  V30 40 1 8 36
M  V30 41 1 9 37
M  V30 42 1 9 38
M  V30 43 1 10 39
M  V30 44 1 10 40
M  V30 45 1 12 41
M  V30 46 1 12 42
M  V30 47 1 13 43
M  V30 48 1 13 44
M  V30 49 1 14 45
M  V30 50 1 14 46
M  V30 51 1 15 47
M  V30 52 1 16 48
M  V30 53 1 17 49
M  V30 54 1 17 50
M  V30 55 1 18 51
M  V30 56 1 19 52
M  V30 57 1 20 53
M  V30 58 1 20 54
M  V30 59 1 20 55
M  V30 60 1 24 56
M  V30 61 1 26 57
M  V30 62 1 27 58
M  V30 63 1 30 59
M  V30 64 1 32 60
M  V30 END BOND
M  V30 END CTAB
M  END
>  <NO.>
7769

>  <Name>
irbesartan

>  <SMILES>
CCCCC1=NC2(CCCC2)C(=O)N1Cc1ccc(-c2ccccc2-c2nn[nH]n2)cc1

>  <logBB>


>  <Class>
-1

>  <MW>
428.23

>  <nHBAcc>
5

>  <nHBDon>
1

>  <SLogP>
4.78

>  <TopoPSA>
87.13

>  <MMFF94 Energy>
76.388

$$$$
CCCCNc1cc(C(=O)O)cc(S(N)(=O)=O)c1Oc1ccccc1
Actelion Java MolfileCreator 2.0

  0  0  0  0  0  0              0 V3000
M  V30 BEGIN CTAB
M  V30 COUNTS 45 46 0 0 0
M  V30 BEGIN ATOM
M  V30 1 S -2.7214 3.042 -0.7998 0
M  V30 2 O -3.3337 2.7442 0.4719 0
M  V30 3 O -3.5119 3.3932 -1.959 0
M  V30 4 N -1.7063 4.3577 -0.57 0
M  V30 5 C -1.6241 1.7342 -1.2389 0
M  V30 6 C -0.5526 1.3829 -0.4071 0
M  V30 7 C -1.8471 1.0477 -2.4362 0
M  V30 8 O -0.3329 2.0925 0.756 0
M  V30 9 C 0.3593 0.3695 -0.7889 0
M  V30 10 C -0.9797 0.0204 -2.8101 0
M  V30 11 C -0.6165 1.481 1.9611 0
M  V30 12 N 1.4602 0.0901 0.004 0
M  V30 13 C 0.1137 -0.3047 -1.993 0
M  V30 14 C -1.1639 -0.7471 -4.0662 0
M  V30 15 C -1.4361 0.3617 2.1246 0
M  V30 16 C -0.0284 2.0771 3.0808 0
M  V30 17 C 2.3922 -1.0089 -0.1686 0
M  V30 18 O -0.4484 -1.6473 -4.4636 0
M  V30 19 O -2.2419 -0.349 -4.7626 0
M  V30 20 C -1.6482 -0.1666 3.4005 0
M  V30 21 C -0.241 1.5477 4.3543 0
M  V30 22 C 1.7933 -2.309 0.3703 0
M  V30 23 C -1.0496 0.4237 4.5132 0
M  V30 24 C 2.7751 -3.4817 0.3459 0
M  V30 25 C 3.1618 -3.9155 -1.0596 0
M  V30 26 H -1.7235 4.6391 0.4107 0
M  V30 27 H -1.9453 5.1013 -1.2257 0
M  V30 28 H -2.6887 1.3141 -3.0729 0
M  V30 29 H 1.5494 0.629 0.861 0
M  V30 30 H 0.7825 -1.096 -2.3233 0
M  V30 31 H -1.9278 -0.1102 1.28 0
M  V30 32 H 0.5997 2.9558 2.961 0
M  V30 33 H 3.2977 -0.7727 0.403 0
M  V30 34 H 2.7065 -1.0976 -1.2132 0
M  V30 35 H -2.2452 -0.9282 -5.5536 0
M  V30 36 H -2.2884 -1.0362 3.5256 0
M  V30 37 H 0.2194 2.0137 5.2214 0
M  V30 38 H 0.8911 -2.577 -0.1924 0
M  V30 39 H 1.4699 -2.1502 1.4075 0
M  V30 40 H -1.2209 0.0117 5.5045 0
M  V30 41 H 3.6786 -3.2257 0.9115 0
M  V30 42 H 2.3115 -4.3335 0.8579 0
M  V30 43 H 3.7857 -4.8141 -1.0167 0
M  V30 44 H 2.2746 -4.1472 -1.6575 0
M  V30 45 H 3.7344 -3.1396 -1.5761 0
M  V30 END ATOM
M  V30 BEGIN BOND
M  V30 1 2 1 2
M  V30 2 2 1 3
M  V30 3 1 1 4
M  V30 4 1 1 5
M  V30 5 2 5 6
M  V30 6 1 5 7
M  V30 7 1 6 8
M  V30 8 1 6 9
M  V30 9 2 7 10
M  V30 10 1 8 11
M  V30 11 1 9 12
M  V30 12 2 9 13
M  V30 13 1 10 14
M  V30 14 2 11 15
M  V30 15 1 11 16
M  V30 16 1 12 17
M  V30 17 2 14 18
M  V30 18 1 14 19
M  V30 19 1 15 20
M  V30 20 2 16 21
M  V30 21 1 17 22
M  V30 22 2 20 23
M  V30 23 1 22 24
M  V30 24 1 24 25
M  V30 25 1 10 13
M  V30 26 1 21 23
M  V30 27 1 4 26
M  V30 28 1 4 27
M  V30 29 1 7 28
M  V30 30 1 12 29
M  V30 31 1 13 30
M  V30 32 1 15 31
M  V30 33 1 16 32
M  V30 34 1 17 33
M  V30 35 1 17 34
M  V30 36 1 19 35
M  V30 37 1 20 36
M  V30 38 1 21 37
M  V30 39 1 22 38
M  V30 40 1 22 39
M  V30 41 1 23 40
M  V30 42 1 24 41
M  V30 43 1 24 42
M  V30 44 1 25 43
M  V30 45 1 25 44
M  V30 46 1 25 45
M  V30 END BOND
M  V30 END CTAB
M  END
>  <NO.>
7771

>  <Name>
bumetanide

>  <SMILES>
CCCCNc1cc(C(=O)O)cc(S(N)(=O)=O)c1Oc1ccccc1

>  <logBB>


>  <Class>
-1

>  <MW>
364.11

>  <nHBAcc>
5

>  <nHBDon>
3

>  <SLogP>
3.04

>  <TopoPSA>
118.72

>  <MMFF94 Energy>
-56.254

$$$$
CCCc1cc(=O)[nH]c(=S)[nH]1
Actelion Java MolfileCreator 2.0

  0  0  0  0  0  0              0 V3000
M  V30 BEGIN CTAB
M  V30 COUNTS 21 21 0 0 0
M  V30 BEGIN ATOM
M  V30 1 S -3.9538 1.7381 -1.2639 0
M  V30 2 C -2.5342 0.8766 -1.3272 0
M  V30 3 N -2.174 0.1615 -2.4297 0
M  V30 4 N -1.6675 0.8503 -0.2722 0
M  V30 5 C -1.0212 -0.5646 -2.5391 0
M  V30 6 C -0.4778 0.1536 -0.2698 0
M  V30 7 O -0.7253 -1.198 -3.5455 0
M  V30 8 C -0.131 -0.5477 -1.3595 0
M  V30 9 C 0.3322 0.2607 1.0042 0
M  V30 10 C 1.6609 -0.5029 1.0387 0
M  V30 11 C 2.3748 -0.3135 2.3693 0
M  V30 12 H -2.7906 0.158 -3.2288 0
M  V30 13 H -1.9376 1.384 0.5491 0
M  V30 14 H 0.78 -1.1233 -1.4498 0
M  V30 15 H -0.2926 -0.0903 1.8364 0
M  V30 16 H 0.5366 1.3236 1.1903 0
M  V30 17 H 1.4854 -1.5737 0.8818 0
M  V30 18 H 2.318 -0.1541 0.2331 0
M  V30 19 H 3.3198 -0.8657 2.3739 0
M  V30 20 H 2.5979 0.7432 2.5481 0
M  V30 21 H 1.7625 -0.6811 3.199 0
M  V30 END ATOM
M  V30 BEGIN BOND
M  V30 1 2 1 2
M  V30 2 1 2 3
M  V30 3 1 2 4
M  V30 4 1 3 5
M  V30 5 1 4 6
M  V30 6 2 5 7
M  V30 7 1 5 8
M  V30 8 1 6 9
M  V30 9 1 9 10
M  V30 10 1 10 11
M  V30 11 2 6 8
M  V30 12 1 3 12
M  V30 13 1 4 13
M  V30 14 1 8 14
M  V30 15 1 9 15
M  V30 16 1 9 16
M  V30 17 1 10 17
M  V30 18 1 10 18
M  V30 19 1 11 19
M  V30 20 1 11 20
M  V30 21 1 11 21
M  V30 END BOND
M  V30 END CTAB
M  END
>  <NO.>
7772

>  <Name>
propylthiouracil

>  <SMILES>
CCCc1cc(=O)[nH]c(=S)[nH]1

>  <logBB>


>  <Class>
-1

>  <MW>
170.05

>  <nHBAcc>
2

>  <nHBDon>
2

>  <SLogP>
1.38

>  <TopoPSA>
48.65

>  <MMFF94 Energy>
-78.442

$$$$
CCOC(=O)Nc1ccc2c(c1)N(C(=O)CCN1CCOCC1)c1ccccc1S2
Actelion Java MolfileCreator 2.0

  0  0  0  0  0  0              0 V3000
M  V30 BEGIN CTAB
M  V30 COUNTS 55 58 0 0 0
M  V30 BEGIN ATOM
M  V30 1 S 1.0489 2.3411 -4.1199 0
M  V30 2 C 0.3378 0.9061 -3.3356 0
M  V30 3 C 2.7065 2.2106 -3.4647 0
M  V30 4 C 0.8626 0.3893 -2.1399 0
M  V30 5 C -0.7258 0.2526 -3.9658 0
M  V30 6 C 2.9633 1.5641 -2.2414 0
M  V30 7 C 3.766 2.745 -4.2085 0
M  V30 8 N 1.8861 1.0859 -1.4318 0
M  V30 9 C 0.3712 -0.8285 -1.644 0
M  V30 10 C -1.2442 -0.9291 -3.4302 0
M  V30 11 C 4.289 1.4299 -1.8051 0
M  V30 12 C 5.0795 2.615 -3.7565 0
M  V30 13 C 1.7828 1.5008 -0.0919 0
M  V30 14 C -0.6993 -1.4755 -2.266 0
M  V30 15 C 5.3411 1.9522 -2.5599 0
M  V30 16 O 2.695 2.0753 0.5117 0
M  V30 17 C 0.4598 1.2369 0.6207 0
M  V30 18 N -1.2533 -2.6717 -1.785 0
M  V30 19 C 0.3364 2.065 1.9038 0
M  V30 20 C -1.1653 -3.175 -0.517 0
M  V30 21 N -0.995 1.9458 2.5334 0
M  V30 22 O -0.5937 -2.6811 0.4433 0
M  V30 23 O -1.8551 -4.346 -0.4776 0
M  V30 24 C -1.2414 0.5867 3.0673 0
M  V30 25 C -1.1122 2.9142 3.648 0
M  V30 26 C -1.8562 -4.9877 0.804 0
M  V30 27 C -2.586 0.5081 3.81 0
M  V30 28 C -2.4629 2.7836 4.3682 0
M  V30 29 C -2.656 -6.2709 0.6897 0
M  V30 30 O -2.6501 1.4583 4.8813 0
M  V30 31 H -1.1471 0.648 -4.8876 0
M  V30 32 H 3.5771 3.2549 -5.1502 0
M  V30 33 H 0.8443 -1.2694 -0.7715 0
M  V30 34 H -2.0737 -1.4141 -3.9392 0
M  V30 35 H 4.5115 0.9318 -0.8641 0
M  V30 36 H 5.8986 3.0289 -4.3393 0
M  V30 37 H 6.3635 1.8515 -2.204 0
M  V30 38 H 0.4247 0.1741 0.8722 0
M  V30 39 H -0.3728 1.4856 -0.046 0
M  V30 40 H -1.8441 -3.2141 -2.4 0
M  V30 41 H 1.1272 1.7855 2.6127 0
M  V30 42 H 0.5065 3.1178 1.6418 0
M  V30 43 H -1.2658 -0.147 2.2554 0
M  V30 44 H -0.4364 0.306 3.7588 0
M  V30 45 H -0.3054 2.747 4.3739 0
M  V30 46 H -1.0178 3.9368 3.265 0
M  V30 47 H -2.3191 -4.3288 1.5472 0
M  V30 48 H -0.8276 -5.2185 1.103 0
M  V30 49 H -2.7094 -0.4886 4.2456 0
M  V30 50 H -3.4268 0.6776 3.1263 0
M  V30 51 H -2.4979 3.4739 5.2172 0
M  V30 52 H -3.2962 3.035 3.7008 0
M  V30 53 H -2.6858 -6.7986 1.6471 0
M  V30 54 H -3.6818 -6.0586 0.3707 0
M  V30 55 H -2.2181 -6.932 -0.0652 0
M  V30 END ATOM
M  V30 BEGIN BOND
M  V30 1 1 1 2
M  V30 2 1 1 3
M  V30 3 2 2 4
M  V30 4 1 2 5
M  V30 5 2 3 6
M  V30 6 1 3 7
M  V30 7 1 4 8
M  V30 8 1 4 9
M  V30 9 2 5 10
M  V30 10 1 6 11
M  V30 11 2 7 12
M  V30 12 1 8 13
M  V30 13 2 9 14
M  V30 14 2 11 15
M  V30 15 2 13 16
M  V30 16 1 13 17
M  V30 17 1 14 18
M  V30 18 1 17 19
M  V30 19 1 18 20
M  V30 20 1 19 21
M  V30 21 2 20 22
M  V30 22 1 20 23
M  V30 23 1 21 24
M  V30 24 1 21 25
M  V30 25 1 23 26
M  V30 26 1 24 27
M  V30 27 1 25 28
M  V30 28 1 26 29
M  V30 29 1 27 30
M  V30 30 1 6 8
M  V30 31 1 10 14
M  V30 32 1 12 15
M  V30 33 1 28 30
M  V30 34 1 5 31
M  V30 35 1 7 32
M  V30 36 1 9 33
M  V30 37 1 10 34
M  V30 38 1 11 35
M  V30 39 1 12 36
M  V30 40 1 15 37
M  V30 41 1 17 38
M  V30 42 1 17 39
M  V30 43 1 18 40
M  V30 44 1 19 41
M  V30 45 1 19 42
M  V30 46 1 24 43
M  V30 47 1 24 44
M  V30 48 1 25 45
M  V30 49 1 25 46
M  V30 50 1 26 47
M  V30 51 1 26 48
M  V30 52 1 27 49
M  V30 53 1 27 50
M  V30 54 1 28 51
M  V30 55 1 28 52
M  V30 56 1 29 53
M  V30 57 1 29 54
M  V30 58 1 29 55
M  V30 END BOND
M  V30 END CTAB
M  END
>  <NO.>
7775

>  <Name>
moricizine

>  <SMILES>
CCOC(=O)Nc1ccc2c(c1)N(C(=O)CCN1CCOCC1)c1ccccc1S2

>  <logBB>


>  <Class>
-1

>  <MW>
427.16

>  <nHBAcc>
6

>  <nHBDon>
1

>  <SLogP>
4.11

>  <TopoPSA>
71.11

>  <MMFF94 Energy>
68.641

$$$$
CCOC(=O)n1ccn(C)c1=S
Actelion Java MolfileCreator 2.0

  0  0  0  0  0  0              0 V3000
M  V30 BEGIN CTAB
M  V30 COUNTS 22 22 0 0 0
M  V30 BEGIN ATOM
M  V30 1 S 1.6693 -1.2716 0.7151 0
M  V30 2 C 0.258 -0.5334 1.1955 0
M  V30 3 N -0.6517 0.3165 0.434 0
M  V30 4 N -0.3405 -0.6023 2.4935 0
M  V30 5 C -0.6395 0.7724 -0.8939 0
M  V30 6 C -1.684 0.6797 1.2919 0
M  V30 7 C -1.499 0.1395 2.4989 0
M  V30 8 C 0.1339 -1.3154 3.6636 0
M  V30 9 O -1.5098 1.4984 -1.3728 0
M  V30 10 O 0.431 0.3346 -1.6083 0
M  V30 11 C 0.4765 0.7804 -2.9683 0
M  V30 12 C 1.7229 0.2051 -3.612 0
M  V30 13 H -2.4945 1.3149 0.9628 0
M  V30 14 H -2.1203 0.2315 3.3778 0
M  V30 15 H -0.6279 -2.039 3.9688 0
M  V30 16 H 1.0671 -1.8455 3.4663 0
M  V30 17 H 0.2978 -0.5968 4.4724 0
M  V30 18 H 0.5166 1.8749 -2.9978 0
M  V30 19 H -0.4123 0.4277 -3.5031 0
M  V30 20 H 1.8028 0.5186 -4.6565 0
M  V30 21 H 2.6197 0.5314 -3.075 0
M  V30 22 H 1.7078 -0.8889 -3.5709 0
M  V30 END ATOM
M  V30 BEGIN BOND
M  V30 1 2 1 2
M  V30 2 1 2 3
M  V30 3 1 2 4
M  V30 4 1 3 5
M  V30 5 1 3 6
M  V30 6 1 4 7
M  V30 7 1 4 8
M  V30 8 2 5 9
M  V30 9 1 5 10
M  V30 10 1 10 11
M  V30 11 1 11 12
M  V30 12 2 6 7
M  V30 13 1 6 13
M  V30 14 1 7 14
M  V30 15 1 8 15
M  V30 16 1 8 16
M  V30 17 1 8 17
M  V30 18 1 11 18
M  V30 19 1 11 19
M  V30 20 1 12 20
M  V30 21 1 12 21
M  V30 22 1 12 22
M  V30 END BOND
M  V30 END CTAB
M  END
>  <NO.>
7776

>  <Name>
carbimazole

>  <SMILES>
CCOC(=O)n1ccn(C)c1=S

>  <logBB>


>  <Class>
-1

>  <MW>
186.05

>  <nHBAcc>
3

>  <nHBDon>
0

>  <SLogP>
1.56

>  <TopoPSA>
36.16

>  <MMFF94 Energy>
-6.2077

$$$$
CCn1nc(C(=O)O)c(=O)c2cc3c(cc21)OCO3
Actelion Java MolfileCreator 2.0

  0  0  0  0  0  0              0 V3000
M  V30 BEGIN CTAB
M  V30 COUNTS 29 31 0 0 0
M  V30 BEGIN ATOM
M  V30 1 O 2.1833 1.6169 1.9405 0
M  V30 2 C 1.1528 1.2227 1.4145 0
M  V30 3 C -0.1692 1.6143 1.9828 0
M  V30 4 C 1.1438 0.3667 0.2293 0
M  V30 5 N -1.2936 1.2576 1.4316 0
M  V30 6 C -0.2505 2.4452 3.2413 0
M  V30 7 C -0.1165 0.0194 -0.3072 0
M  V30 8 C 2.3607 -0.067 -0.3191 0
M  V30 9 N -1.2919 0.4995 0.2918 0
M  V30 10 O -0.2856 1.9862 4.3648 0
M  V30 11 O -0.3027 3.7559 2.9763 0
M  V30 12 C -0.1178 -0.8051 -1.4469 0
M  V30 13 C 2.2929 -0.8691 -1.4302 0
M  V30 14 C -2.6288 0.1544 -0.2118 0
M  V30 15 C 1.0875 -1.2282 -1.978 0
M  V30 16 O 3.3486 -1.3916 -2.1057 0
M  V30 17 C -3.0891 -1.1858 0.341 0
M  V30 18 O 1.2328 -2.0252 -3.0709 0
M  V30 19 C 2.6709 -2.1258 -3.1465 0
M  V30 20 H 3.3151 0.2152 0.1124 0
M  V30 21 H -0.3582 4.1793 3.8577 0
M  V30 22 H -1.0311 -1.1301 -1.9303 0
M  V30 23 H -2.664 0.1632 -1.3066 0
M  V30 24 H -3.3447 0.9241 0.1054 0
M  V30 25 H -3.1073 -1.1724 1.436 0
M  V30 26 H -2.4283 -2.0004 0.0295 0
M  V30 27 H -4.099 -1.4144 -0.013 0
M  V30 28 H 2.9988 -1.7405 -4.1188 0
M  V30 29 H 2.953 -3.1822 -3.072 0
M  V30 END ATOM
M  V30 BEGIN BOND
M  V30 1 2 1 2
M  V30 2 1 2 3
M  V30 3 1 2 4
M  V30 4 2 3 5
M  V30 5 1 3 6
M  V30 6 2 4 7
M  V30 7 1 4 8
M  V30 8 1 5 9
M  V30 9 2 6 10
M  V30 10 1 6 11
M  V30 11 1 7 12
M  V30 12 2 8 13
M  V30 13 1 9 14
M  V30 14 2 12 15
M  V30 15 1 13 16
M  V30 16 1 14 17
M  V30 17 1 15 18
M  V30 18 1 16 19
M  V30 19 1 7 9
M  V30 20 1 13 15
M  V30 21 1 18 19
M  V30 22 1 8 20
M  V30 23 1 11 21
M  V30 24 1 12 22
M  V30 25 1 14 23
M  V30 26 1 14 24
M  V30 27 1 17 25
M  V30 28 1 17 26
M  V30 29 1 17 27
M  V30 30 1 19 28
M  V30 31 1 19 29
M  V30 END BOND
M  V30 END CTAB
M  END
>  <NO.>
7777

>  <Name>
cinoxacin

>  <SMILES>
CCn1nc(C(=O)O)c(=O)c2cc3c(cc21)OCO3

>  <logBB>


>  <Class>
-1

>  <MW>
262.06

>  <nHBAcc>
5

>  <nHBDon>
1

>  <SLogP>
0.84

>  <TopoPSA>
90.65

>  <MMFF94 Energy>
83.142

$$$$
CN(C(=O)C(Cl)Cl)c1ccc(O)cc1
Actelion Java MolfileCreator 2.0

  0  0  0  0  0  0              0 V3000
M  V30 BEGIN CTAB
M  V30 COUNTS 23 23 0 0 0
M  V30 BEGIN ATOM
M  V30 1 Cl 0.3263 -3.4307 -0.816 0
M  V30 2 C -0.9688 -2.4395 -0.1037 0
M  V30 3 Cl -2.4477 -3.4089 0.1105 0
M  V30 4 C -0.4897 -1.9199 1.2603 0
M  V30 5 O -0.4574 -2.6496 2.2584 0
M  V30 6 N -0.0733 -0.5865 1.3407 0
M  V30 7 C 0.0612 0.2552 0.2199 0
M  V30 8 C 0.3866 -0.0436 2.612 0
M  V30 9 C 1.2047 0.172 -0.5801 0
M  V30 10 C -0.9497 1.1712 -0.0805 0
M  V30 11 C 1.3306 0.999 -1.6976 0
M  V30 12 C -0.8204 1.9963 -1.1973 0
M  V30 13 C 0.3147 1.9031 -1.9966 0
M  V30 14 O 0.3948 2.7285 -3.078 0
M  V30 15 H -1.2198 -1.6472 -0.8079 0
M  V30 16 H 0.071 0.9994 2.7155 0
M  V30 17 H -0.0178 -0.6134 3.4534 0
M  V30 18 H 1.4791 -0.1028 2.6427 0
M  V30 19 H 1.9992 -0.5306 -0.3398 0
M  V30 20 H -1.8357 1.2479 0.5443 0
M  V30 21 H 2.2202 0.9262 -2.3157 0
M  V30 22 H -1.6004 2.7119 -1.4442 0
M  V30 23 H 1.2338 2.5641 -3.5394 0
M  V30 END ATOM
M  V30 BEGIN BOND
M  V30 1 1 1 2
M  V30 2 1 2 3
M  V30 3 1 2 4
M  V30 4 2 4 5
M  V30 5 1 4 6
M  V30 6 1 6 7
M  V30 7 1 6 8
M  V30 8 2 7 9
M  V30 9 1 7 10
M  V30 10 1 9 11
M  V30 11 2 10 12
M  V30 12 2 11 13
M  V30 13 1 13 14
M  V30 14 1 12 13
M  V30 15 1 2 15
M  V30 16 1 8 16
M  V30 17 1 8 17
M  V30 18 1 8 18
M  V30 19 1 9 19
M  V30 20 1 10 20
M  V30 21 1 11 21
M  V30 22 1 12 22
M  V30 23 1 14 23
M  V30 END BOND
M  V30 END CTAB
M  END
>  <NO.>
7778

>  <Name>
diloxanide

>  <SMILES>
CN(C(=O)C(Cl)Cl)c1ccc(O)cc1

>  <logBB>


>  <Class>
-1

>  <MW>
233

>  <nHBAcc>
2

>  <nHBDon>
1

>  <SLogP>
2.16

>  <TopoPSA>
40.54

>  <MMFF94 Energy>
46.136

$$$$
CN(CCOc1ccc(NS(C)(=O)=O)cc1)CCc1ccc(NS(C)(=O)=O)cc1
Actelion Java MolfileCreator 2.0

  0  0  0  0  0  0              0 V3000
M  V30 BEGIN CTAB
M  V30 COUNTS 56 57 0 0 0
M  V30 BEGIN ATOM
M  V30 1 S 0.0 1.4513 -9.462 0
M  V30 2 O 0.8086 0.2578 -9.5685 0
M  V30 3 O -0.7031 1.9848 -10.6101 0
M  V30 4 N -1.1706 1.2521 -8.2705 0
M  V30 5 C 1.0063 2.7643 -8.7977 0
M  V30 6 C -0.7956 0.9209 -6.9382 0
M  V30 7 C -0.0463 -0.2151 -6.6471 0
M  V30 8 C -1.2141 1.7554 -5.9002 0
M  V30 9 C 0.3022 -0.5002 -5.3241 0
M  V30 10 C -0.8637 1.4681 -4.5753 0
M  V30 11 C -0.1001 0.3385 -4.2822 0
M  V30 12 O 0.3094 -0.0572 -3.04 0
M  V30 13 C -0.0725 0.7648 -1.9317 0
M  V30 14 C 0.4652 0.1099 -0.6477 0
M  V30 15 N 0.0668 0.7994 0.6005 0
M  V30 16 C 0.3578 -0.0779 1.7577 0
M  V30 17 C 0.7551 2.0882 0.7282 0
M  V30 18 C -0.2653 0.4139 3.0765 0
M  V30 19 C -0.0636 -0.5835 4.1944 0
M  V30 20 C 1.09 -0.5412 4.9872 0
M  V30 21 C -1.0123 -1.5868 4.4285 0
M  V30 22 C 1.282 -1.4772 6.0069 0
M  V30 23 C -0.8185 -2.5224 5.4479 0
M  V30 24 C 0.3213 -2.4611 6.2461 0
M  V30 25 N 0.5499 -3.3929 7.2983 0
M  V30 26 S -0.5742 -3.5661 8.538 0
M  V30 27 O -1.8673 -3.9114 7.9914 0
M  V30 28 O 0.0679 -4.4052 9.5283 0
M  V30 29 C -0.6621 -1.9185 9.2135 0
M  V30 30 H -1.962 1.8822 -8.3962 0
M  V30 31 H 0.3695 3.6238 -8.5795 0
M  V30 32 H 1.5181 2.4123 -7.9008 0
M  V30 33 H 1.7432 3.0354 -9.5571 0
M  V30 34 H 0.2612 -0.9011 -7.4322 0
M  V30 35 H -1.8138 2.6382 -6.1044 0
M  V30 36 H 0.8872 -1.3908 -5.1056 0
M  V30 37 H -1.2077 2.1431 -3.7982 0
M  V30 38 H -1.1658 0.8293 -1.872 0
M  V30 39 H 0.3585 1.7632 -2.06 0
M  V30 40 H 0.076 -0.9174 -0.6389 0
M  V30 41 H 1.5571 0.008 -0.7122 0
M  V30 42 H 1.4416 -0.2122 1.8768 0
M  V30 43 H -0.0569 -1.0749 1.5558 0
M  V30 44 H 0.425 2.6288 1.6205 0
M  V30 45 H 1.8435 1.9708 0.778 0
M  V30 46 H 0.5184 2.7499 -0.1105 0
M  V30 47 H 0.1672 1.3722 3.3863 0
M  V30 48 H -1.3398 0.5938 2.9418 0
M  V30 49 H 1.8476 0.2201 4.814 0
M  V30 50 H -1.908 -1.6531 3.8136 0
M  V30 51 H 2.1855 -1.4232 6.6075 0
M  V30 52 H -1.5607 -3.3036 5.5935 0
M  V30 53 H 1.5077 -3.5033 7.6286 0
M  V30 54 H 0.342 -1.5964 9.4953 0
M  V30 55 H -1.1021 -1.2455 8.476 0
M  V30 56 H -1.2991 -1.956 10.1003 0
M  V30 END ATOM
M  V30 BEGIN BOND
M  V30 1 2 1 2
M  V30 2 2 1 3
M  V30 3 1 1 4
M  V30 4 1 1 5
M  V30 5 1 4 6
M  V30 6 2 6 7
M  V30 7 1 6 8
M  V30 8 1 7 9
M  V30 9 2 8 10
M  V30 10 2 9 11
M  V30 11 1 11 12
M  V30 12 1 12 13
M  V30 13 1 13 14
M  V30 14 1 14 15
M  V30 15 1 15 16
M  V30 16 1 15 17
M  V30 17 1 16 18
M  V30 18 1 18 19
M  V30 19 2 19 20
M  V30 20 1 19 21
M  V30 21 1 20 22
M  V30 22 2 21 23
M  V30 23 2 22 24
M  V30 24 1 24 25
M  V30 25 1 25 26
M  V30 26 2 26 27
M  V30 27 2 26 28
M  V30 28 1 26 29
M  V30 29 1 10 11
M  V30 30 1 23 24
M  V30 31 1 4 30
M  V30 32 1 5 31
M  V30 33 1 5 32
M  V30 34 1 5 33
M  V30 35 1 7 34
M  V30 36 1 8 35
M  V30 37 1 9 36
M  V30 38 1 10 37
M  V30 39 1 13 38
M  V30 40 1 13 39
M  V30 41 1 14 40
M  V30 42 1 14 41
M  V30 43 1 16 42
M  V30 44 1 16 43
M  V30 45 1 17 44
M  V30 46 1 17 45
M  V30 47 1 17 46
M  V30 48 1 18 47
M  V30 49 1 18 48
M  V30 50 1 20 49
M  V30 51 1 21 50
M  V30 52 1 22 51
M  V30 53 1 23 52
M  V30 54 1 25 53
M  V30 55 1 29 54
M  V30 56 1 29 55
M  V30 57 1 29 56
M  V30 END BOND
M  V30 END CTAB
M  END
>  <NO.>
7779

>  <Name>
dofetilide

>  <SMILES>
CN(CCOc1ccc(NS(C)(=O)=O)cc1)CCc1ccc(NS(C)(=O)=O)cc1

>  <logBB>


>  <Class>
-1

>  <MW>
441.14

>  <nHBAcc>
6

>  <nHBDon>
2

>  <SLogP>
1.98

>  <TopoPSA>
104.81

>  <MMFF94 Energy>
-35.592

$$$$
CN(Cc1cc(Br)cc(Br)c1N)C1CCCCC1
Actelion Java MolfileCreator 2.0

  0  0  0  0  0  0              0 V3000
M  V30 BEGIN CTAB
M  V30 COUNTS 38 39 0 0 0
M  V30 BEGIN ATOM
M  V30 1 Br -3.5653 -2.3487 3.8898 0
M  V30 2 C -1.7416 -2.1432 3.3848 0
M  V30 3 C -1.3888 -1.4331 2.2199 0
M  V30 4 C -0.771 -2.7013 4.2185 0
M  V30 5 N -2.3651 -0.9293 1.3579 0
M  V30 6 C -0.0245 -1.3453 1.8644 0
M  V30 7 C 0.5698 -2.5771 3.8776 0
M  V30 8 C 0.9463 -1.9149 2.7107 0
M  V30 9 C 0.435 -0.7012 0.5623 0
M  V30 10 Br 1.8955 -3.3304 4.9956 0
M  V30 11 N -0.0658 0.6748 0.3575 0
M  V30 12 C 0.0789 1.1706 -1.0311 0
M  V30 13 C 0.5534 1.5988 1.3154 0
M  V30 14 C 1.4825 1.018 -1.6518 0
M  V30 15 C -0.9886 0.537 -1.9482 0
M  V30 16 C 1.5329 1.5939 -3.0672 0
M  V30 17 C -0.9247 1.1106 -3.3639 0
M  V30 18 C 0.4693 0.9724 -3.9662 0
M  V30 19 H -1.0613 -3.2309 5.1213 0
M  V30 20 H -3.321 -0.8862 1.6878 0
M  V30 21 H -2.0536 -0.1964 0.7209 0
M  V30 22 H 1.9998 -1.8482 2.4481 0
M  V30 23 H 0.0861 -1.3671 -0.2354 0
M  V30 24 H 1.5314 -0.7133 0.5118 0
M  V30 25 H -0.1557 2.2452 -1.0173 0
M  V30 26 H 0.316 1.3179 2.3471 0
M  V30 27 H 1.6433 1.6373 1.2151 0
M  V30 28 H 0.1596 2.6132 1.1851 0
M  V30 29 H 1.7702 -0.039 -1.7002 0
M  V30 30 H 2.2326 1.5288 -1.0378 0
M  V30 31 H -0.8593 -0.5495 -2.0089 0
M  V30 32 H -1.9901 0.7173 -1.5384 0
M  V30 33 H 1.3877 2.6805 -3.0249 0
M  V30 34 H 2.5255 1.4215 -3.4985 0
M  V30 35 H -1.21 2.1696 -3.3417 0
M  V30 36 H -1.654 0.5979 -4.0013 0
M  V30 37 H 0.4941 1.4508 -4.9517 0
M  V30 38 H 0.6966 -0.0895 -4.1203 0
M  V30 END ATOM
M  V30 BEGIN BOND
M  V30 1 1 1 2
M  V30 2 2 2 3
M  V30 3 1 2 4
M  V30 4 1 3 5
M  V30 5 1 3 6
M  V30 6 2 4 7
M  V30 7 2 6 8
M  V30 8 1 6 9
M  V30 9 1 7 10
M  V30 10 1 9 11
M  V30 11 1 11 12
M  V30 12 1 11 13
M  V30 13 1 12 14
M  V30 14 1 12 15
M  V30 15 1 14 16
M  V30 16 1 15 17
M  V30 17 1 16 18
M  V30 18 1 7 8
M  V30 19 1 17 18
M  V30 20 1 4 19
M  V30 21 1 5 20
M  V30 22 1 5 21
M  V30 23 1 8 22
M  V30 24 1 9 23
M  V30 25 1 9 24
M  V30 26 1 12 25
M  V30 27 1 13 26
M  V30 28 1 13 27
M  V30 29 1 13 28
M  V30 30 1 14 29
M  V30 31 1 14 30
M  V30 32 1 15 31
M  V30 33 1 15 32
M  V30 34 1 16 33
M  V30 35 1 16 34
M  V30 36 1 17 35
M  V30 37 1 17 36
M  V30 38 1 18 37
M  V30 39 1 18 38
M  V30 END BOND
M  V30 END CTAB
M  END
>  <NO.>
7780

>  <Name>
bromhexine

>  <SMILES>
CN(Cc1cc(Br)cc(Br)c1N)C1CCCCC1

>  <logBB>


>  <Class>
-1

>  <MW>
374

>  <nHBAcc>
2

>  <nHBDon>
1

>  <SLogP>
4.56

>  <TopoPSA>
29.26

>  <MMFF94 Energy>
34.97

$$$$
CNC1CCc2[nH]c3ccc(C(N)=O)cc3c2C1
Actelion Java MolfileCreator 2.0

  0  0  0  0  0  0              0 V3000
M  V30 BEGIN CTAB
M  V30 COUNTS 35 37 0 0 0
M  V30 BEGIN ATOM
M  V30 1 O 2.536 -3.8854 3.5677 0
M  V30 2 C 1.584 -3.3724 2.9923 0
M  V30 3 N 0.3048 -3.6616 3.3773 0
M  V30 4 C 1.7713 -2.4503 1.839 0
M  V30 5 C 0.7811 -1.5321 1.4531 0
M  V30 6 C 2.9875 -2.5059 1.1486 0
M  V30 7 C 1.0154 -0.6855 0.3496 0
M  V30 8 C 3.2421 -1.6731 0.054 0
M  V30 9 C 2.2372 -0.7757 -0.3221 0
M  V30 10 C 0.2584 0.3299 -0.2986 0
M  V30 11 N 2.2178 0.1538 -1.3405 0
M  V30 12 C 1.0282 0.8246 -1.3291 0
M  V30 13 C -1.1047 0.8602 0.0078 0
M  V30 14 C 0.6362 1.8901 -2.2872 0
M  V30 15 C -1.6758 1.6764 -1.1893 0 CFG=2
M  V30 16 C -0.5997 2.6416 -1.7577 0
M  V30 17 N -2.8663 2.4664 -0.8176 0
M  V30 18 C -4.0215 1.6317 -0.5132 0
M  V30 19 H -0.5208 -3.3458 2.8929 0
M  V30 20 H 0.1927 -4.2954 4.1575 0
M  V30 21 H -0.1507 -1.4374 1.9971 0
M  V30 22 H 3.7556 -3.2106 1.4646 0
M  V30 23 H 4.1885 -1.7244 -0.4741 0
M  V30 24 H 2.9776 0.3105 -1.9883 0
M  V30 25 H -1.0356 1.499 0.8977 0
M  V30 26 H -1.7753 0.0277 0.2496 0
M  V30 27 H 1.4585 2.5958 -2.4474 0
M  V30 28 H 0.3976 1.4313 -3.254 0
M  V30 29 H -1.947 0.9823 -1.9975 0
M  V30 30 H -1.0149 3.2479 -2.5725 0
M  V30 31 H -0.2873 3.3408 -0.9696 0
M  V30 32 H -3.1092 3.0868 -1.5902 0
M  V30 33 H -4.8871 2.2726 -0.3171 0
M  V30 34 H -4.2761 0.9745 -1.3507 0
M  V30 35 H -3.861 1.0283 0.3846 0
M  V30 END ATOM
M  V30 BEGIN BOND
M  V30 1 2 1 2
M  V30 2 1 2 3
M  V30 3 1 2 4
M  V30 4 2 4 5
M  V30 5 1 4 6
M  V30 6 1 5 7
M  V30 7 2 6 8
M  V30 8 2 7 9
M  V30 9 1 7 10
M  V30 10 1 9 11
M  V30 11 2 10 12
M  V30 12 1 10 13
M  V30 13 1 12 14
M  V30 14 1 13 15
M  V30 15 1 14 16
M  V30 16 1 15 17
M  V30 17 1 17 18
M  V30 18 1 8 9
M  V30 19 1 11 12
M  V30 20 1 15 16
M  V30 21 1 3 19
M  V30 22 1 3 20
M  V30 23 1 5 21
M  V30 24 1 6 22
M  V30 25 1 8 23
M  V30 26 1 11 24
M  V30 27 1 13 25
M  V30 28 1 13 26
M  V30 29 1 14 27
M  V30 30 1 14 28
M  V30 31 1 15 29
M  V30 32 1 16 30
M  V30 33 1 16 31
M  V30 34 1 17 32
M  V30 35 1 18 33
M  V30 36 1 18 34
M  V30 37 1 18 35
M  V30 END BOND
M  V30 BEGIN COLLECTION
M  V30 MDLV30/STERAC1 ATOMS=(1 15)
M  V30 END COLLECTION
M  V30 END CTAB
M  END
>  <NO.>
7781

>  <Name>
frovatriptan racemate

>  <SMILES>
CNC1CCc2[nH]c3ccc(C(N)=O)cc3c2C1

>  <logBB>


>  <Class>
1

>  <MW>
243.14

>  <nHBAcc>
2

>  <nHBDon>
3

>  <SLogP>
1.34

>  <TopoPSA>
70.91

>  <MMFF94 Energy>
16.47

$$$$
COC(=O)Nc1nc2ccc(C(=O)c3ccccc3)cc2[nH]1
Actelion Java MolfileCreator 2.0

  0  0  0  0  0  0              0 V3000
M  V30 BEGIN CTAB
M  V30 COUNTS 35 37 0 0 0
M  V30 BEGIN ATOM
M  V30 1 O 4.7874 0.1593 1.5141 0
M  V30 2 C 5.1384 0.7198 0.4827 0
M  V30 3 O 6.425 1.0068 0.157 0
M  V30 4 N 4.3159 1.1523 -0.5132 0
M  V30 5 C 7.3817 0.5979 1.1358 0
M  V30 6 C 2.9573 1.008 -0.4804 0
M  V30 7 N 2.1443 1.3991 -1.4341 0
M  V30 8 N 2.2676 0.4368 0.5594 0
M  V30 9 C 0.8844 1.0706 -0.9965 0
M  V30 10 C 0.9331 0.4591 0.2513 0
M  V30 11 C -0.3593 1.2708 -1.6133 0
M  V30 12 C -0.2012 0.0176 0.936 0
M  V30 13 C -1.5189 0.8386 -0.9525 0
M  V30 14 C -1.4382 0.2043 0.296 0
M  V30 15 C -2.6603 -0.2485 1.0102 0
M  V30 16 O -2.7044 -0.1591 2.2346 0
M  V30 17 C -3.8261 -0.8076 0.28 0
M  V30 18 C -3.6676 -1.5983 -0.8645 0
M  V30 19 C -5.1083 -0.5665 0.7873 0
M  V30 20 C -4.7906 -2.1144 -1.5146 0
M  V30 21 C -6.2275 -1.0843 0.1343 0
M  V30 22 C -6.068 -1.8536 -1.018 0
M  V30 23 H 4.7185 1.6026 -1.3208 0
M  V30 24 H 7.2018 1.1111 2.0857 0
M  V30 25 H 7.3533 -0.4879 1.2691 0
M  V30 26 H 8.3755 0.8765 0.7748 0
M  V30 27 H 2.6984 0.0691 1.3985 0
M  V30 28 H -0.4134 1.761 -2.5794 0
M  V30 29 H -0.1353 -0.4472 1.9153 0
M  V30 30 H -2.4818 1.0229 -1.4236 0
M  V30 31 H -2.6802 -1.8362 -1.2512 0
M  V30 32 H -5.2361 0.0242 1.6924 0
M  V30 33 H -4.6699 -2.7288 -2.4036 0
M  V30 34 H -7.2224 -0.8926 0.5286 0
M  V30 35 H -6.9409 -2.2602 -1.5232 0
M  V30 END ATOM
M  V30 BEGIN BOND
M  V30 1 2 1 2
M  V30 2 1 2 3
M  V30 3 1 2 4
M  V30 4 1 3 5
M  V30 5 1 4 6
M  V30 6 2 6 7
M  V30 7 1 6 8
M  V30 8 1 7 9
M  V30 9 1 8 10
M  V30 10 1 9 11
M  V30 11 1 10 12
M  V30 12 2 11 13
M  V30 13 2 12 14
M  V30 14 1 14 15
M  V30 15 2 15 16
M  V30 16 1 15 17
M  V30 17 2 17 18
M  V30 18 1 17 19
M  V30 19 1 18 20
M  V30 20 2 19 21
M  V30 21 2 20 22
M  V30 22 2 9 10
M  V30 23 1 13 14
M  V30 24 1 21 22
M  V30 25 1 4 23
M  V30 26 1 5 24
M  V30 27 1 5 25
M  V30 28 1 5 26
M  V30 29 1 8 27
M  V30 30 1 11 28
M  V30 31 1 12 29
M  V30 32 1 13 30
M  V30 33 1 18 31
M  V30 34 1 19 32
M  V30 35 1 20 33
M  V30 36 1 21 34
M  V30 37 1 22 35
M  V30 END BOND
M  V30 END CTAB
M  END
>  <NO.>
7782

>  <Name>
mebendazole

>  <SMILES>
COC(=O)Nc1nc2ccc(C(=O)c3ccccc3)cc2[nH]1

>  <logBB>


>  <Class>
-1

>  <MW>
295.1

>  <nHBAcc>
4

>  <nHBDon>
2

>  <SLogP>
2.97

>  <TopoPSA>
84.08

>  <MMFF94 Energy>
-12.927

$$$$
COc1ccc2c(c1)C(=O)N(CCc1ccc(S(=O)(=O)NC(=O)NC3CCCCC3)cc1)C(=O)C2(C)C
Actelion Java MolfileCreator 2.0

  0  0  0  0  0  0              0 V3000
M  V30 BEGIN CTAB
M  V30 COUNTS 70 73 0 0 0
M  V30 BEGIN ATOM
M  V30 1 S -3.4588 -3.5393 -2.8951 0
M  V30 2 O -4.8747 -3.3276 -2.6943 0
M  V30 3 O -2.8353 -4.8248 -2.654 0
M  V30 4 N -3.105 -3.0778 -4.4393 0
M  V30 5 C -2.593 -2.322 -1.936 0
M  V30 6 C -1.9274 -3.2289 -5.1534 0
M  V30 7 C -1.4734 -2.6868 -1.1852 0
M  V30 8 C -3.0646 -1.0064 -1.9222 0
M  V30 9 O -1.7925 -2.6158 -6.2011 0
M  V30 10 N -0.9996 -4.0855 -4.6473 0
M  V30 11 C -0.8043 -1.7186 -0.4354 0
M  V30 12 C -2.3913 -0.043 -1.1704 0
M  V30 13 C 0.279 -4.3423 -5.294 0
M  V30 14 C -1.2521 -0.3896 -0.4297 0
M  V30 15 C 1.2654 -3.1852 -5.0764 0
M  V30 16 C 0.8762 -5.6694 -4.8074 0
M  V30 17 C -0.5375 0.6499 0.3981 0
M  V30 18 C 1.7776 -3.1118 -3.6392 0
M  V30 19 C 1.3932 -5.5932 -3.3704 0
M  V30 20 C -1.1144 0.7395 1.8158 0
M  V30 21 C 2.3731 -4.4396 -3.1836 0
M  V30 22 N -0.4142 1.7353 2.6257 0
M  V30 23 C -0.8197 3.0603 2.4957 0
M  V30 24 C 0.7039 1.3178 3.3367 0
M  V30 25 O -1.7786 3.4045 1.8087 0
M  V30 26 C -0.0067 4.0926 3.1793 0
M  V30 27 O 1.216 0.2118 3.1447 0
M  V30 28 C 1.2234 2.2682 4.431 0
M  V30 29 C 0.9923 3.7334 4.0906 0
M  V30 30 C -0.2632 5.4427 2.8925 0
M  V30 31 C 0.4376 1.9346 5.7146 0
M  V30 32 C 2.7168 1.9488 4.6612 0
M  V30 33 C 1.7074 4.7685 4.7203 0
M  V30 34 C 0.4663 6.4573 3.5097 0
M  V30 35 C 1.4527 6.1142 4.428 0
M  V30 36 O 0.1172 7.7244 3.137 0
M  V30 37 C 0.8356 8.796 3.7352 0
M  V30 38 H -3.8203 -2.5142 -4.8871 0
M  V30 39 H -1.1138 -3.7128 -1.1737 0
M  V30 40 H -3.9522 -0.7257 -2.4845 0
M  V30 41 H -1.2703 -4.6461 -3.845 0
M  V30 42 H 0.0691 -2.0056 0.1482 0
M  V30 43 H -2.7615 0.9813 -1.1605 0
M  V30 44 H 0.0775 -4.4259 -6.3694 0
M  V30 45 H 2.1228 -3.3217 -5.7479 0
M  V30 46 H 0.8067 -2.2265 -5.3447 0
M  V30 47 H 1.7093 -5.9459 -5.4661 0
M  V30 48 H 0.1323 -6.4716 -4.8833 0
M  V30 49 H -0.6029 1.6237 -0.1038 0
M  V30 50 H 0.5334 0.4139 0.4346 0
M  V30 51 H 2.5355 -2.3241 -3.5602 0
M  V30 52 H 0.958 -2.8288 -2.97 0
M  V30 53 H 0.552 -5.4736 -2.6772 0
M  V30 54 H 1.8845 -6.5371 -3.1084 0
M  V30 55 H -1.0491 -0.2368 2.312 0
M  V30 56 H -2.18 0.9973 1.7723 0
M  V30 57 H 2.6648 -4.3706 -2.1295 0
M  V30 58 H 3.2872 -4.643 -3.7547 0
M  V30 59 H -1.0414 5.712 2.1796 0
M  V30 60 H -0.6356 2.1255 5.5932 0
M  V30 61 H 0.7836 2.5318 6.5663 0
M  V30 62 H 0.5478 0.877 5.9821 0
M  V30 63 H 3.3148 2.2149 3.7816 0
M  V30 64 H 3.1303 2.4815 5.524 0
M  V30 65 H 2.878 0.8817 4.8553 0
M  V30 66 H 2.4708 4.5519 5.4644 0
M  V30 67 H 2.0399 6.8677 4.9437 0
M  V30 68 H 0.6852 8.8147 4.8196 0
M  V30 69 H 0.4407 9.7319 3.3281 0
M  V30 70 H 1.9002 8.7462 3.4841 0
M  V30 END ATOM
M  V30 BEGIN BOND
M  V30 1 2 1 2
M  V30 2 2 1 3
M  V30 3 1 1 4
M  V30 4 1 1 5
M  V30 5 1 4 6
M  V30 6 2 5 7
M  V30 7 1 5 8
M  V30 8 2 6 9
M  V30 9 1 6 10
M  V30 10 1 7 11
M  V30 11 2 8 12
M  V30 12 1 10 13
M  V30 13 2 11 14
M  V30 14 1 13 15
M  V30 15 1 13 16
M  V30 16 1 14 17
M  V30 17 1 15 18
M  V30 18 1 16 19
M  V30 19 1 17 20
M  V30 20 1 18 21
M  V30 21 1 20 22
M  V30 22 1 22 23
M  V30 23 1 22 24
M  V30 24 2 23 25
M  V30 25 1 23 26
M  V30 26 2 24 27
M  V30 27 1 24 28
M  V30 28 2 26 29
M  V30 29 1 26 30
M  V30 30 1 28 31
M  V30 31 1 28 32
M  V30 32 1 29 33
M  V30 33 2 30 34
M  V30 34 2 33 35
M  V30 35 1 34 36
M  V30 36 1 36 37
M  V30 37 1 12 14
M  V30 38 1 19 21
M  V30 39 1 28 29
M  V30 40 1 34 35
M  V30 41 1 4 38
M  V30 42 1 7 39
M  V30 43 1 8 40
M  V30 44 1 10 41
M  V30 45 1 11 42
M  V30 46 1 12 43
M  V30 47 1 13 44
M  V30 48 1 15 45
M  V30 49 1 15 46
M  V30 50 1 16 47
M  V30 51 1 16 48
M  V30 52 1 17 49
M  V30 53 1 17 50
M  V30 54 1 18 51
M  V30 55 1 18 52
M  V30 56 1 19 53
M  V30 57 1 19 54
M  V30 58 1 20 55
M  V30 59 1 20 56
M  V30 60 1 21 57
M  V30 61 1 21 58
M  V30 62 1 30 59
M  V30 63 1 31 60
M  V30 64 1 31 61
M  V30 65 1 31 62
M  V30 66 1 32 63
M  V30 67 1 32 64
M  V30 68 1 32 65
M  V30 69 1 33 66
M  V30 70 1 35 67
M  V30 71 1 37 68
M  V30 72 1 37 69
M  V30 73 1 37 70
M  V30 END BOND
M  V30 END CTAB
M  END
>  <NO.>
7784

>  <Name>
gliquidone

>  <SMILES>
COc1ccc2c(c1)C(=O)N(CCc1ccc(S(=O)(=O)NC(=O)NC3CCCCC3)cc1)C(=O)C2(C)C

>  <logBB>


>  <Class>
-1

>  <MW>
527.21

>  <nHBAcc>
6

>  <nHBDon>
2

>  <SLogP>
3.52

>  <TopoPSA>
121.88

>  <MMFF94 Energy>
-128.25

$$$$
COc1ccnc(C[S+]([O-])c2nc3ccc(OC(F)F)cc3[nH]2)c1OC
Actelion Java MolfileCreator 2.0

  0  0  0  0  0  0              0 V3000
M  V30 BEGIN CTAB
M  V30 COUNTS 41 43 0 0 0
M  V30 BEGIN ATOM
M  V30 1 S 1.0609 0.0815 0.3263 0 CFG=2
M  V30 2 O 1.8182 -1.0382 0.9845 0
M  V30 3 C -0.404 0.3077 1.3491 0
M  V30 4 C 0.1876 -0.5423 -1.1418 0
M  V30 5 N -1.4744 0.9903 1.0085 0
M  V30 6 N -0.5228 -0.2322 2.6004 0
M  V30 7 C 1.1322 -0.9218 -2.2532 0
M  V30 8 C -2.3186 0.8871 2.0872 0
M  V30 9 C -1.7514 0.1167 3.0976 0
M  V30 10 N 1.2344 -2.2504 -2.5257 0
M  V30 11 C 1.8473 0.0512 -2.9651 0
M  V30 12 C -3.5946 1.4307 2.2798 0
M  V30 13 C -2.3917 -0.1609 4.3112 0
M  V30 14 C 2.0658 -2.6181 -3.5187 0
M  V30 15 O 1.6242 1.3609 -2.6203 0
M  V30 16 C 2.6748 -0.3626 -4.0218 0
M  V30 17 C -4.2564 1.1709 3.4879 0
M  V30 18 C -3.6745 0.3776 4.4847 0
M  V30 19 C 2.7943 -1.7262 -4.2863 0
M  V30 20 C 2.8081 2.1437 -2.476 0
M  V30 21 O 3.3037 0.6145 -4.748 0
M  V30 22 O -4.4498 0.2222 5.6034 0
M  V30 23 C 4.0592 0.2156 -5.8845 0
M  V30 24 C -4.1229 -0.8687 6.4472 0
M  V30 25 F -3.0067 -0.5667 7.1555 0
M  V30 26 F -5.1293 -0.9995 7.3484 0
M  V30 27 H -0.401 -1.4163 -0.8404 0
M  V30 28 H -0.5104 0.2231 -1.4976 0
M  V30 29 H 0.1845 -0.8016 3.0447 0
M  V30 30 H -4.0528 2.0411 1.5095 0
M  V30 31 H -1.8856 -0.7437 5.0715 0
M  V30 32 H 2.1289 -3.6885 -3.6948 0
M  V30 33 H -5.2462 1.5949 3.6479 0
M  V30 34 H 3.4248 -2.1205 -5.0723 0
M  V30 35 H 3.6709 1.5523 -2.149 0
M  V30 36 H 2.6132 2.8971 -1.7062 0
M  V30 37 H 3.0262 2.6749 -3.4067 0
M  V30 38 H 4.916 -0.3992 -5.5905 0
M  V30 39 H 4.4479 1.1206 -6.3611 0
M  V30 40 H 3.4307 -0.3022 -6.6164 0
M  V30 41 H -4.0025 -1.8167 5.9114 0
M  V30 END ATOM
M  V30 BEGIN BOND
M  V30 1 2 1 2
M  V30 2 1 1 3
M  V30 3 1 1 4
M  V30 4 2 3 5
M  V30 5 1 3 6
M  V30 6 1 4 7
M  V30 7 1 5 8
M  V30 8 1 6 9
M  V30 9 2 7 10
M  V30 10 1 7 11
M  V30 11 1 8 12
M  V30 12 1 9 13
M  V30 13 1 10 14
M  V30 14 1 11 15
M  V30 15 2 11 16
M  V30 16 2 12 17
M  V30 17 2 13 18
M  V30 18 2 14 19
M  V30 19 1 15 20
M  V30 20 1 16 21
M  V30 21 1 18 22
M  V30 22 1 21 23
M  V30 23 1 22 24
M  V30 24 1 24 25
M  V30 25 1 24 26
M  V30 26 2 8 9
M  V30 27 1 16 19
M  V30 28 1 17 18
M  V30 29 1 4 27
M  V30 30 1 4 28
M  V30 31 1 6 29
M  V30 32 1 12 30
M  V30 33 1 13 31
M  V30 34 1 14 32
M  V30 35 1 17 33
M  V30 36 1 19 34
M  V30 37 1 20 35
M  V30 38 1 20 36
M  V30 39 1 20 37
M  V30 40 1 23 38
M  V30 41 1 23 39
M  V30 42 1 23 40
M  V30 43 1 24 41
M  V30 END BOND
M  V30 BEGIN COLLECTION
M  V30 MDLV30/STERAC1 ATOMS=(1 1)
M  V30 END COLLECTION
M  V30 END CTAB
M  END
>  <NO.>
7785

>  <Name>
pantoprazole

>  <SMILES>
COc1ccnc(C[S+]([O-])c2nc3ccc(OC(F)F)cc3[nH]2)c1OC

>  <logBB>


>  <Class>
-1

>  <MW>
383.08

>  <nHBAcc>
6

>  <nHBDon>
1

>  <SLogP>
2.88

>  <TopoPSA>
92.32

>  <MMFF94 Energy>
64.631

$$$$
CSc1ccc(C(=O)c2[nH]c(=O)[nH]c2C)cc1
Actelion Java MolfileCreator 2.0

  0  0  0  0  0  0              0 V3000
M  V30 BEGIN CTAB
M  V30 COUNTS 29 30 0 0 0
M  V30 BEGIN ATOM
M  V30 1 S 3.8772 -1.5334 1.8564 0
M  V30 2 C 2.5843 -0.9929 0.7525 0
M  V30 3 C 3.2427 -3.1593 2.3477 0
M  V30 4 C 2.0719 0.3008 0.9059 0
M  V30 5 C 2.1055 -1.7972 -0.2864 0
M  V30 6 C 1.0683 0.7759 0.0557 0
M  V30 7 C 1.1012 -1.3282 -1.1389 0
M  V30 8 C 0.5643 -0.0498 -0.9542 0
M  V30 9 C -0.4838 0.4164 -1.889 0
M  V30 10 O -0.4 0.1406 -3.0835 0
M  V30 11 C -1.6109 1.2399 -1.3842 0
M  V30 12 N -2.205 2.1578 -2.2257 0
M  V30 13 C -2.2648 1.2644 -0.2052 0
M  V30 14 C -3.2466 2.8008 -1.5617 0
M  V30 15 N -3.2567 2.2209 -0.2883 0
M  V30 16 C -2.1358 0.4444 1.0258 0
M  V30 17 O -3.9869 3.6659 -1.9857 0
M  V30 18 H 2.217 -3.0768 2.718 0
M  V30 19 H 3.8694 -3.5568 3.1506 0
M  V30 20 H 3.275 -3.8609 1.5106 0
M  V30 21 H 2.4583 0.954 1.6863 0
M  V30 22 H 2.5202 -2.7863 -0.4625 0
M  V30 23 H 0.7089 1.794 0.1837 0
M  V30 24 H 0.7469 -1.959 -1.9523 0
M  V30 25 H -1.941 2.3163 -3.1876 0
M  V30 26 H -3.9274 2.4705 0.4233 0
M  V30 27 H -1.669 1.0265 1.8264 0
M  V30 28 H -1.5439 -0.4592 0.8606 0
M  V30 29 H -3.1223 0.1178 1.3727 0
M  V30 END ATOM
M  V30 BEGIN BOND
M  V30 1 1 1 2
M  V30 2 1 1 3
M  V30 3 2 2 4
M  V30 4 1 2 5
M  V30 5 1 4 6
M  V30 6 2 5 7
M  V30 7 2 6 8
M  V30 8 1 8 9
M  V30 9 2 9 10
M  V30 10 1 9 11
M  V30 11 1 11 12
M  V30 12 2 11 13
M  V30 13 1 12 14
M  V30 14 1 13 15
M  V30 15 1 13 16
M  V30 16 2 14 17
M  V30 17 1 7 8
M  V30 18 1 14 15
M  V30 19 1 3 18
M  V30 20 1 3 19
M  V30 21 1 3 20
M  V30 22 1 4 21
M  V30 23 1 5 22
M  V30 24 1 6 23
M  V30 25 1 7 24
M  V30 26 1 12 25
M  V30 27 1 15 26
M  V30 28 1 16 27
M  V30 29 1 16 28
M  V30 30 1 16 29
M  V30 END BOND
M  V30 END CTAB
M  END
>  <NO.>
7786

>  <Name>
enoximone

>  <SMILES>
CSc1ccc(C(=O)c2[nH]c(=O)[nH]c2C)cc1

>  <logBB>


>  <Class>
-1

>  <MW>
248.06

>  <nHBAcc>
3

>  <nHBDon>
2

>  <SLogP>
1.96

>  <TopoPSA>
65.72

>  <MMFF94 Energy>
28.515

$$$$
Cc1[nH]cnc1CN1CCc2c(c3ccccc3n2C)C1=O
Actelion Java MolfileCreator 2.0

  0  0  0  0  0  0              0 V3000
M  V30 BEGIN CTAB
M  V30 COUNTS 40 43 0 0 0
M  V30 BEGIN ATOM
M  V30 1 O 0.4781 0.5578 -2.0733 0
M  V30 2 C -0.2014 0.4792 -1.0533 0
M  V30 3 N -0.607 1.5956 -0.3122 0
M  V30 4 C -0.6739 -0.803 -0.5342 0
M  V30 5 C -1.1944 1.4664 1.0331 0
M  V30 6 C -0.1592 2.9164 -0.7315 0
M  V30 7 C -0.3559 -2.1352 -0.925 0
M  V30 8 C -1.5933 -0.8906 0.4945 0
M  V30 9 C -2.1806 0.2941 1.1731 0
M  V30 10 C 1.0148 3.3466 0.0902 0
M  V30 11 C -1.0985 -2.9987 -0.108 0
M  V30 12 C 0.5014 -2.6919 -1.8973 0
M  V30 13 N -1.8619 -2.2099 0.7351 0
M  V30 14 N 0.8303 4.0847 1.2445 0
M  V30 15 C 2.3628 3.1001 -0.1059 0
M  V30 16 C -1.0009 -4.3957 -0.2269 0
M  V30 17 C 0.6001 -4.0808 -2.0236 0
M  V30 18 C -2.7993 -2.7199 1.7116 0
M  V30 19 C 2.032 4.2826 1.7324 0
M  V30 20 N 2.9911 3.7042 0.9529 0
M  V30 21 C 3.091 2.3536 -1.1566 0
M  V30 22 C -0.1405 -4.9188 -1.1968 0
M  V30 23 H -0.359 1.3269 1.731 0
M  V30 24 H -1.7068 2.399 1.2948 0
M  V30 25 H 0.104 2.918 -1.7944 0
M  V30 26 H -0.9923 3.6166 -0.6029 0
M  V30 27 H -2.3803 0.1072 2.2329 0
M  V30 28 H -3.129 0.5484 0.6854 0
M  V30 29 H 1.0834 -2.0416 -2.5456 0
M  V30 30 H -1.574 -5.0614 0.4099 0
M  V30 31 H 1.2621 -4.5042 -2.7744 0
M  V30 32 H -3.3079 -3.5955 1.3006 0
M  V30 33 H -2.2401 -2.9859 2.6118 0
M  V30 34 H -3.5471 -1.9569 1.9395 0
M  V30 35 H 2.2686 4.828 2.636 0
M  V30 36 H 3.9857 3.7175 1.1311 0
M  V30 37 H 3.0673 1.2802 -0.9451 0
M  V30 38 H 2.6399 2.5237 -2.1389 0
M  V30 39 H 4.1386 2.667 -1.2129 0
M  V30 40 H -0.0515 -5.9969 -1.3073 0
M  V30 END ATOM
M  V30 BEGIN BOND
M  V30 1 2 1 2
M  V30 2 1 2 3
M  V30 3 1 2 4
M  V30 4 1 3 5
M  V30 5 1 3 6
M  V30 6 1 4 7
M  V30 7 2 4 8
M  V30 8 1 5 9
M  V30 9 1 6 10
M  V30 10 2 7 11
M  V30 11 1 7 12
M  V30 12 1 8 13
M  V30 13 1 10 14
M  V30 14 2 10 15
M  V30 15 1 11 16
M  V30 16 2 12 17
M  V30 17 1 13 18
M  V30 18 2 14 19
M  V30 19 1 15 20
M  V30 20 1 15 21
M  V30 21 2 16 22
M  V30 22 1 8 9
M  V30 23 1 11 13
M  V30 24 1 17 22
M  V30 25 1 19 20
M  V30 26 1 5 23
M  V30 27 1 5 24
M  V30 28 1 6 25
M  V30 29 1 6 26
M  V30 30 1 9 27
M  V30 31 1 9 28
M  V30 32 1 12 29
M  V30 33 1 16 30
M  V30 34 1 17 31
M  V30 35 1 18 32
M  V30 36 1 18 33
M  V30 37 1 18 34
M  V30 38 1 19 35
M  V30 39 1 20 36
M  V30 40 1 21 37
M  V30 41 1 21 38
M  V30 42 1 21 39
M  V30 43 1 22 40
M  V30 END BOND
M  V30 END CTAB
M  END
>  <NO.>
7787

>  <Name>
alosetron

>  <SMILES>
Cc1[nH]cnc1CN1CCc2c(c3ccccc3n2C)C1=O

>  <logBB>


>  <Class>
-1

>  <MW>
294.15

>  <nHBAcc>
2

>  <nHBDon>
1

>  <SLogP>
2.41

>  <TopoPSA>
53.92

>  <MMFF94 Energy>
38.366

$$$$
Cc1ccc(C)c(OCCCC(C)(C)C(=O)O)c1
Actelion Java MolfileCreator 2.0

  0  0  0  0  0  0              0 V3000
M  V30 BEGIN CTAB
M  V30 COUNTS 40 40 0 0 0
M  V30 BEGIN ATOM
M  V30 1 O -0.1561 -2.1091 -3.9869 0
M  V30 2 C -1.127 -1.4025 -3.7654 0
M  V30 3 O -1.6088 -0.6083 -4.74 0
M  V30 4 C -1.9375 -1.3599 -2.473 0
M  V30 5 C -1.0355 -1.7602 -1.2749 0
M  V30 6 C -2.5645 0.025 -2.2461 0
M  V30 7 C -3.0585 -2.4034 -2.6164 0
M  V30 8 C 0.0784 -0.7606 -0.9436 0
M  V30 9 C 0.9945 -1.2934 0.1586 0
M  V30 10 O 2.0124 -0.3411 0.4639 0
M  V30 11 C 1.7962 0.5731 1.4611 0
M  V30 12 C 2.9172 1.3368 1.833 0
M  V30 13 C 0.5685 0.802 2.0926 0
M  V30 14 C 2.7896 2.3095 2.8349 0
M  V30 15 C 4.248 1.1248 1.1654 0
M  V30 16 C 0.4466 1.7657 3.1057 0
M  V30 17 C 1.5635 2.5242 3.4636 0
M  V30 18 C -0.8835 2.0229 3.7508 0
M  V30 19 H -1.004 -0.7681 -5.4948 0
M  V30 20 H -0.5827 -2.7414 -1.4716 0
M  V30 21 H -1.6604 -1.8875 -0.3804 0
M  V30 22 H -3.032 0.0901 -1.2572 0
M  V30 23 H -3.3414 0.24 -2.9893 0
M  V30 24 H -1.8196 0.8242 -2.3267 0
M  V30 25 H -3.7056 -2.1778 -3.4722 0
M  V30 26 H -2.6481 -3.407 -2.7786 0
M  V30 27 H -3.6873 -2.437 -1.7197 0
M  V30 28 H -0.3507 0.1975 -0.6323 0
M  V30 29 H 0.6848 -0.5417 -1.8303 0
M  V30 30 H 0.4465 -1.6201 1.0499 0
M  V30 31 H 1.5113 -2.1856 -0.2148 0
M  V30 32 H -0.3206 0.2496 1.8084 0
M  V30 33 H 3.6471 2.9101 3.1298 0
M  V30 34 H 5.0159 1.7864 1.5802 0
M  V30 35 H 4.586 0.0938 1.3115 0
M  V30 36 H 4.172 1.3354 0.0937 0
M  V30 37 H 1.4872 3.2896 4.2326 0
M  V30 38 H -1.4451 2.7601 3.1688 0
M  V30 39 H -0.7579 2.3997 4.7714 0
M  V30 40 H -1.47 1.1004 3.816 0
M  V30 END ATOM
M  V30 BEGIN BOND
M  V30 1 2 1 2
M  V30 2 1 2 3
M  V30 3 1 2 4
M  V30 4 1 4 5
M  V30 5 1 4 6
M  V30 6 1 4 7
M  V30 7 1 5 8
M  V30 8 1 8 9
M  V30 9 1 9 10
M  V30 10 1 10 11
M  V30 11 2 11 12
M  V30 12 1 11 13
M  V30 13 1 12 14
M  V30 14 1 12 15
M  V30 15 2 13 16
M  V30 16 2 14 17
M  V30 17 1 16 18
M  V30 18 1 16 17
M  V30 19 1 3 19
M  V30 20 1 5 20
M  V30 21 1 5 21
M  V30 22 1 6 22
M  V30 23 1 6 23
M  V30 24 1 6 24
M  V30 25 1 7 25
M  V30 26 1 7 26
M  V30 27 1 7 27
M  V30 28 1 8 28
M  V30 29 1 8 29
M  V30 30 1 9 30
M  V30 31 1 9 31
M  V30 32 1 13 32
M  V30 33 1 14 33
M  V30 34 1 15 34
M  V30 35 1 15 35
M  V30 36 1 15 36
M  V30 37 1 17 37
M  V30 38 1 18 38
M  V30 39 1 18 39
M  V30 40 1 18 40
M  V30 END BOND
M  V30 END CTAB
M  END
>  <NO.>
7788

>  <Name>
gemfibrozil

>  <SMILES>
Cc1ccc(C)c(OCCCC(C)(C)C(=O)O)c1

>  <logBB>


>  <Class>
-1

>  <MW>
250.16

>  <nHBAcc>
2

>  <nHBDon>
1

>  <SLogP>
3.57

>  <TopoPSA>
46.53

>  <MMFF94 Energy>
16.336

$$$$
Cc1cccc(Nc2ccncc2S(=O)(=O)NC(=O)NC(C)C)c1
Actelion Java MolfileCreator 2.0

  0  0  0  0  0  0              0 V3000
M  V30 BEGIN CTAB
M  V30 COUNTS 44 45 0 0 0
M  V30 BEGIN ATOM
M  V30 1 S -0.7175 2.0738 -0.877 0
M  V30 2 O -1.4429 2.5501 -2.0372 0
M  V30 3 O -0.1229 2.9951 0.07 0
M  V30 4 N -1.7131 1.0602 -0.0259 0
M  V30 5 C 0.5486 0.984 -1.4224 0
M  V30 6 C -2.5169 0.0477 -0.5303 0
M  V30 7 C 1.5421 0.5205 -0.5513 0
M  V30 8 C 0.5492 0.5766 -2.7469 0
M  V30 9 O -2.8146 -0.8889 0.1932 0
M  V30 10 N -2.9415 0.1899 -1.8151 0
M  V30 11 N 1.5849 0.9102 0.8007 0
M  V30 12 C 2.4703 -0.3871 -1.072 0
M  V30 13 N 1.452 -0.2904 -3.2573 0
M  V30 14 C -3.7174 -0.8246 -2.5078 0
M  V30 15 C 1.9652 0.2144 1.9616 0
M  V30 16 C 2.3908 -0.7545 -2.4072 0
M  V30 17 C -4.604 -0.1782 -3.5671 0
M  V30 18 C -2.7886 -1.8604 -3.1364 0
M  V30 19 C 2.396 0.9445 3.0802 0
M  V30 20 C 1.9622 -1.1816 2.044 0
M  V30 21 C 2.8187 0.3036 4.2549 0
M  V30 22 C 2.3643 -1.8316 3.2133 0
M  V30 23 C 2.7868 -1.092 4.316 0
M  V30 24 C 3.2426 1.1085 5.4477 0
M  V30 25 H -1.4536 0.9514 0.9515 0
M  V30 26 H -0.1913 0.9246 -3.4623 0
M  V30 27 H -2.7252 1.0597 -2.294 0
M  V30 28 H 1.3245 1.8866 0.967 0
M  V30 29 H 3.274 -0.7829 -0.459 0
M  V30 30 H -4.3577 -1.3289 -1.7741 0
M  V30 31 H 3.1082 -1.4473 -2.8391 0
M  V30 32 H -4.0062 0.3462 -4.321 0
M  V30 33 H -5.278 0.556 -3.1121 0
M  V30 34 H -5.2156 -0.9294 -4.0775 0
M  V30 35 H -3.362 -2.64 -3.6484 0
M  V30 36 H -2.1136 -1.3972 -3.8648 0
M  V30 37 H -2.1674 -2.3434 -2.3742 0
M  V30 38 H 2.413 2.032 3.0369 0
M  V30 39 H 1.6126 -1.7854 1.2112 0
M  V30 40 H 2.3383 -2.917 3.2653 0
M  V30 41 H 3.0894 -1.6114 5.2225 0
M  V30 42 H 2.3717 1.3487 6.0655 0
M  V30 43 H 3.966 0.5555 6.0561 0
M  V30 44 H 3.7256 2.041 5.1374 0
M  V30 END ATOM
M  V30 BEGIN BOND
M  V30 1 2 1 2
M  V30 2 2 1 3
M  V30 3 1 1 4
M  V30 4 1 1 5
M  V30 5 1 4 6
M  V30 6 2 5 7
M  V30 7 1 5 8
M  V30 8 2 6 9
M  V30 9 1 6 10
M  V30 10 1 7 11
M  V30 11 1 7 12
M  V30 12 2 8 13
M  V30 13 1 10 14
M  V30 14 1 11 15
M  V30 15 2 12 16
M  V30 16 1 14 17
M  V30 17 1 14 18
M  V30 18 2 15 19
M  V30 19 1 15 20
M  V30 20 1 19 21
M  V30 21 2 20 22
M  V30 22 2 21 23
M  V30 23 1 21 24
M  V30 24 1 13 16
M  V30 25 1 22 23
M  V30 26 1 4 25
M  V30 27 1 8 26
M  V30 28 1 10 27
M  V30 29 1 11 28
M  V30 30 1 12 29
M  V30 31 1 14 30
M  V30 32 1 16 31
M  V30 33 1 17 32
M  V30 34 1 17 33
M  V30 35 1 17 34
M  V30 36 1 18 35
M  V30 37 1 18 36
M  V30 38 1 18 37
M  V30 39 1 19 38
M  V30 40 1 20 39
M  V30 41 1 22 40
M  V30 42 1 23 41
M  V30 43 1 24 42
M  V30 44 1 24 43
M  V30 45 1 24 44
M  V30 END BOND
M  V30 END CTAB
M  END
>  <NO.>
7790

>  <Name>
torasemide

>  <SMILES>
Cc1cccc(Nc2ccncc2S(=O)(=O)NC(=O)NC(C)C)c1

>  <logBB>


>  <Class>
-1

>  <MW>
348.13

>  <nHBAcc>
5

>  <nHBDon>
3

>  <SLogP>
2.53

>  <TopoPSA>
100.19

>  <MMFF94 Energy>
-162.76

$$$$
Cc1cnc(C(=O)NCCc2ccc(S(=O)(=O)NC(=O)NC3CCCCC3)cc2)cn1
Actelion Java MolfileCreator 2.0

  0  0  0  0  0  0              0 V3000
M  V30 BEGIN CTAB
M  V30 COUNTS 58 60 0 0 0
M  V30 BEGIN ATOM
M  V30 1 S -3.7705 0.0801 -1.7635 0
M  V30 2 O -4.1646 1.3874 -2.2378 0
M  V30 3 O -4.7619 -0.8448 -1.2493 0
M  V30 4 N -2.9988 -0.7483 -2.9783 0
M  V30 5 C -2.5185 0.2574 -0.5192 0
M  V30 6 C -1.9239 -0.2725 -3.7057 0
M  V30 7 C -2.327 -0.7623 0.417 0
M  V30 8 C -1.7751 1.4372 -0.4465 0
M  V30 9 O -1.3971 0.8093 -3.5093 0
M  V30 10 N -1.5161 -1.1602 -4.6585 0
M  V30 11 C -1.3624 -0.6088 1.414 0
M  V30 12 C -0.8106 1.5849 0.5514 0
M  V30 13 C -0.4165 -0.8693 -5.5703 0
M  V30 14 C -0.5927 0.5617 1.4848 0
M  V30 15 C 0.2813 -2.1615 -6.014 0
M  V30 16 C -0.903 -0.0566 -6.7782 0
M  V30 17 C 0.4347 0.7282 2.5774 0
M  V30 18 C -0.5542 -2.9846 -6.9947 0
M  V30 19 C -1.7494 -0.889 -7.7405 0
M  V30 20 C -0.1929 1.2477 3.8724 0
M  V30 21 C -1.0157 -2.1501 -8.1851 0
M  V30 22 N 0.79 1.4323 4.9184 0
M  V30 23 C 1.2842 0.3879 5.671 0
M  V30 24 O 0.9589 -0.7831 5.5159 0
M  V30 25 C 2.2724 0.7898 6.7107 0
M  V30 26 N 2.5816 2.1164 6.7995 0
M  V30 27 C 2.8386 -0.1661 7.538 0
M  V30 28 C 3.485 2.4228 7.7617 0
M  V30 29 N 3.7442 0.1539 8.4984 0
M  V30 30 C 4.0611 1.4695 8.5997 0
M  V30 31 C 5.0539 1.8734 9.644 0
M  V30 32 H -3.3682 -1.6777 -3.1157 0
M  V30 33 H -2.9241 -1.6704 0.3839 0
M  V30 34 H -1.9317 2.2363 -1.1693 0
M  V30 35 H -2.0557 -1.9988 -4.7972 0
M  V30 36 H -1.2155 -1.4048 2.1427 0
M  V30 37 H -0.23 2.5042 0.5932 0
M  V30 38 H 0.3099 -0.2605 -5.0176 0
M  V30 39 H 1.231 -1.9005 -6.4985 0
M  V30 40 H 0.5297 -2.7781 -5.1417 0
M  V30 41 H -0.0302 0.3286 -7.3206 0
M  V30 42 H -1.4805 0.8156 -6.4495 0
M  V30 43 H 1.224 1.414 2.243 0
M  V30 44 H 0.9373 -0.2319 2.75 0
M  V30 45 H 0.0358 -3.8366 -7.3514 0
M  V30 46 H -1.4281 -3.4018 -6.4805 0
M  V30 47 H -2.6955 -1.1649 -7.2591 0
M  V30 48 H -2.0052 -0.2852 -8.6186 0
M  V30 49 H -0.6734 2.2186 3.7082 0
M  V30 50 H -0.9591 0.5532 4.2367 0
M  V30 51 H -1.6708 -2.7518 -8.8252 0
M  V30 52 H -0.146 -1.8703 -8.7924 0
M  V30 53 H 1.1375 2.362 5.1419 0
M  V30 54 H 2.5839 -1.2173 7.4565 0
M  V30 55 H 3.74 3.4748 7.8448 0
M  V30 56 H 5.9231 2.3468 9.177 0
M  V30 57 H 4.5975 2.5754 10.3489 0
M  V30 58 H 5.4021 1.0022 10.208 0
M  V30 END ATOM
M  V30 BEGIN BOND
M  V30 1 2 1 2
M  V30 2 2 1 3
M  V30 3 1 1 4
M  V30 4 1 1 5
M  V30 5 1 4 6
M  V30 6 2 5 7
M  V30 7 1 5 8
M  V30 8 2 6 9
M  V30 9 1 6 10
M  V30 10 1 7 11
M  V30 11 2 8 12
M  V30 12 1 10 13
M  V30 13 2 11 14
M  V30 14 1 13 15
M  V30 15 1 13 16
M  V30 16 1 14 17
M  V30 17 1 15 18
M  V30 18 1 16 19
M  V30 19 1 17 20
M  V30 20 1 18 21
M  V30 21 1 20 22
M  V30 22 1 22 23
M  V30 23 2 23 24
M  V30 24 1 23 25
M  V30 25 2 25 26
M  V30 26 1 25 27
M  V30 27 1 26 28
M  V30 28 2 27 29
M  V30 29 2 28 30
M  V30 30 1 30 31
M  V30 31 1 12 14
M  V30 32 1 19 21
M  V30 33 1 29 30
M  V30 34 1 4 32
M  V30 35 1 7 33
M  V30 36 1 8 34
M  V30 37 1 10 35
M  V30 38 1 11 36
M  V30 39 1 12 37
M  V30 40 1 13 38
M  V30 41 1 15 39
M  V30 42 1 15 40
M  V30 43 1 16 41
M  V30 44 1 16 42
M  V30 45 1 17 43
M  V30 46 1 17 44
M  V30 47 1 18 45
M  V30 48 1 18 46
M  V30 49 1 19 47
M  V30 50 1 19 48
M  V30 51 1 20 49
M  V30 52 1 20 50
M  V30 53 1 21 51
M  V30 54 1 21 52
M  V30 55 1 22 53
M  V30 56 1 27 54
M  V30 57 1 28 55
M  V30 58 1 31 56
M  V30 59 1 31 57
M  V30 60 1 31 58
M  V30 END BOND
M  V30 END CTAB
M  END
>  <NO.>
7791

>  <Name>
glipizide

>  <SMILES>
Cc1cnc(C(=O)NCCc2ccc(S(=O)(=O)NC(=O)NC3CCCCC3)cc2)cn1

>  <logBB>


>  <Class>
-1

>  <MW>
445.18

>  <nHBAcc>
6

>  <nHBDon>
3

>  <SLogP>
2.08

>  <TopoPSA>
130.15

>  <MMFF94 Energy>
-77.561

$$$$
Cc1nnc(NS(=O)(=O)c2ccc(N)cc2)s1
Actelion Java MolfileCreator 2.0

  0  0  0  0  0  0              0 V3000
M  V30 BEGIN CTAB
M  V30 COUNTS 27 28 0 0 0
M  V30 BEGIN ATOM
M  V30 1 S -0.3317 -0.4977 -2.7396 0
M  V30 2 O 0.5824 -0.9033 -3.7866 0
M  V30 3 O -1.4966 0.3086 -3.0363 0
M  V30 4 N -0.8422 -1.911 -1.99 0
M  V30 5 C 0.6362 0.3556 -1.516 0
M  V30 6 C -1.2656 -1.7614 -0.6165 0
M  V30 7 C 0.163 1.5413 -0.9508 0
M  V30 8 C 1.8875 -0.1504 -1.1587 0
M  V30 9 S -2.6519 -0.918 -0.0894 0
M  V30 10 N -0.6019 -2.3794 0.331 0
M  V30 11 C 0.9385 2.2034 0.0045 0
M  V30 12 C 2.6507 0.5221 -0.2007 0
M  V30 13 C -2.2339 -1.3998 1.5071 0
M  V30 14 N -1.1544 -2.1517 1.5761 0
M  V30 15 C 2.1779 1.6924 0.4009 0
M  V30 16 C -3.0572 -0.981 2.6685 0
M  V30 17 N 2.9541 2.3702 1.3219 0
M  V30 18 H -0.1568 -2.6542 -2.1064 0
M  V30 19 H -0.7958 1.9612 -1.2462 0
M  V30 20 H 2.2785 -1.0551 -1.617 0
M  V30 21 H 0.5673 3.1294 0.4366 0
M  V30 22 H 3.6249 0.1242 0.0724 0
M  V30 23 H -4.0826 -1.3521 2.5736 0
M  V30 24 H -2.6393 -1.3803 3.5982 0
M  V30 25 H -3.0846 0.1099 2.7533 0
M  V30 26 H 3.8168 1.9655 1.6593 0
M  V30 27 H 2.5901 3.1816 1.8021 0
M  V30 END ATOM
M  V30 BEGIN BOND
M  V30 1 2 1 2
M  V30 2 2 1 3
M  V30 3 1 1 4
M  V30 4 1 1 5
M  V30 5 1 4 6
M  V30 6 2 5 7
M  V30 7 1 5 8
M  V30 8 1 6 9
M  V30 9 2 6 10
M  V30 10 1 7 11
M  V30 11 2 8 12
M  V30 12 1 9 13
M  V30 13 1 10 14
M  V30 14 2 11 15
M  V30 15 1 13 16
M  V30 16 1 15 17
M  V30 17 1 12 15
M  V30 18 2 13 14
M  V30 19 1 4 18
M  V30 20 1 7 19
M  V30 21 1 8 20
M  V30 22 1 11 21
M  V30 23 1 12 22
M  V30 24 1 16 23
M  V30 25 1 16 24
M  V30 26 1 16 25
M  V30 27 1 17 26
M  V30 28 1 17 27
M  V30 END BOND
M  V30 END CTAB
M  END
>  <NO.>
7792

>  <Name>
sulfamethizole

>  <SMILES>
Cc1nnc(NS(=O)(=O)c2ccc(N)cc2)s1

>  <logBB>


>  <Class>
-1

>  <MW>
270.02

>  <nHBAcc>
6

>  <nHBDon>
2

>  <SLogP>
1.23

>  <TopoPSA>
97.97

>  <MMFF94 Energy>
-72.021

$$$$
Clc1ccc2c(c1)CCc1cccnc1C2=C1CCNCC1
Actelion Java MolfileCreator 2.0

  0  0  0  0  0  0              0 V3000
M  V30 BEGIN CTAB
M  V30 COUNTS 41 44 0 0 0
M  V30 BEGIN ATOM
M  V30 1 Cl 0.081 1.7029 5.7665 0
M  V30 2 C 0.016 1.3911 4.0759 0
M  V30 3 C 0.9411 0.5249 3.4945 0
M  V30 4 C -0.9439 2.0164 3.2938 0
M  V30 5 C 0.9175 0.2479 2.1094 0
M  V30 6 C -0.9858 1.756 1.9242 0
M  V30 7 C -0.0866 0.852 1.3218 0
M  V30 8 C 2.0401 -0.6386 1.5936 0
M  V30 9 C -0.188 0.6401 -0.1468 0
M  V30 10 C 2.0504 -1.1081 0.1336 0
M  V30 11 C 1.0095 0.8875 -0.9834 0
M  V30 12 C -1.3053 0.1095 -0.7162 0
M  V30 13 C 2.1059 0.0326 -0.846 0
M  V30 14 N 0.9782 1.9452 -1.8282 0
M  V30 15 C -2.5477 -0.3501 0.0363 0
M  V30 16 C -1.4724 -0.1542 -2.2096 0
M  V30 17 C 3.2295 0.2848 -1.6342 0
M  V30 18 C 2.0844 2.1581 -2.5706 0
M  V30 19 C -2.9117 -1.8019 -0.3162 0
M  V30 20 C -1.8682 -1.6131 -2.4814 0
M  V30 21 C 3.2197 1.3652 -2.5116 0
M  V30 22 N -3.082 -2.0111 -1.7582 0
M  V30 23 H 1.7051 0.0694 4.1223 0
M  V30 24 H -1.655 2.7097 3.734 0
M  V30 25 H -1.7294 2.2684 1.3148 0
M  V30 26 H 2.9815 -0.1042 1.7838 0
M  V30 27 H 2.0562 -1.542 2.2185 0
M  V30 28 H 1.177 -1.738 -0.0783 0
M  V30 29 H 2.9226 -1.7576 -0.0151 0
M  V30 30 H -3.3814 0.3145 -0.2241 0
M  V30 31 H -2.4327 -0.3015 1.122 0
M  V30 32 H -0.5725 0.0608 -2.7913 0
M  V30 33 H -2.2535 0.5157 -2.5927 0
M  V30 34 H 4.1107 -0.3472 -1.5679 0
M  V30 35 H 2.0339 3.0134 -3.2385 0
M  V30 36 H -2.1431 -2.4841 0.0689 0
M  V30 37 H -3.8498 -2.0637 0.1859 0
M  V30 38 H -2.0474 -1.7382 -3.5551 0
M  V30 39 H -1.0403 -2.2827 -2.2154 0
M  V30 40 H 4.0793 1.5873 -3.1341 0
M  V30 41 H -3.2716 -2.9965 -1.936 0
M  V30 END ATOM
M  V30 BEGIN BOND
M  V30 1 1 1 2
M  V30 2 2 2 3
M  V30 3 1 2 4
M  V30 4 1 3 5
M  V30 5 2 4 6
M  V30 6 2 5 7
M  V30 7 1 5 8
M  V30 8 1 7 9
M  V30 9 1 8 10
M  V30 10 1 9 11
M  V30 11 2 9 12
M  V30 12 1 10 13
M  V30 13 1 11 14
M  V30 14 1 12 15
M  V30 15 1 12 16
M  V30 16 1 13 17
M  V30 17 2 14 18
M  V30 18 1 15 19
M  V30 19 1 16 20
M  V30 20 2 17 21
M  V30 21 1 19 22
M  V30 22 1 6 7
M  V30 23 2 11 13
M  V30 24 1 18 21
M  V30 25 1 20 22
M  V30 26 1 3 23
M  V30 27 1 4 24
M  V30 28 1 6 25
M  V30 29 1 8 26
M  V30 30 1 8 27
M  V30 31 1 10 28
M  V30 32 1 10 29
M  V30 33 1 15 30
M  V30 34 1 15 31
M  V30 35 1 16 32
M  V30 36 1 16 33
M  V30 37 1 17 34
M  V30 38 1 18 35
M  V30 39 1 19 36
M  V30 40 1 19 37
M  V30 41 1 20 38
M  V30 42 1 20 39
M  V30 43 1 21 40
M  V30 44 1 22 41
M  V30 END BOND
M  V30 END CTAB
M  END
>  <NO.>
7793

>  <Name>
desloratadine

>  <SMILES>
Clc1ccc2c(c1)CCc1cccnc1C2=C1CCNCC1

>  <logBB>


>  <Class>
-1

>  <MW>
310.12

>  <nHBAcc>
2

>  <nHBDon>
1

>  <SLogP>
4.02

>  <TopoPSA>
24.92

>  <MMFF94 Energy>
97.562

$$$$
Clc1ccccc1CN1CCc2sccc2C1
Actelion Java MolfileCreator 2.0

  0  0  0  0  0  0              0 V3000
M  V30 BEGIN CTAB
M  V30 COUNTS 31 33 0 0 0
M  V30 BEGIN ATOM
M  V30 1 Cl 1.9792 0.6594 -3.1351 0
M  V30 2 C 0.5611 -0.3163 -2.9841 0
M  V30 3 C 0.2639 -1.0327 -1.8141 0
M  V30 4 C -0.3037 -0.3608 -4.084 0
M  V30 5 C -0.9247 -1.7883 -1.7803 0
M  V30 6 C 1.1566 -1.0401 -0.5891 0
M  V30 7 C -1.4741 -1.1169 -4.0315 0
M  V30 8 C -1.7855 -1.8296 -2.8781 0
M  V30 9 N 0.5026 -0.4806 0.6086 0
M  V30 10 C 0.2904 0.9799 0.4498 0
M  V30 11 C 1.3174 -0.7665 1.8135 0
M  V30 12 C -0.2136 1.5792 1.7347 0
M  V30 13 C 0.5824 -0.3842 3.117 0
M  V30 14 C -0.0501 0.9575 2.9562 0
M  V30 15 C -0.8773 2.8359 1.8883 0
M  V30 16 S -0.6784 1.85 4.2553 0
M  V30 17 C -1.1867 3.1041 3.2054 0
M  V30 18 H -0.0707 0.1964 -4.9881 0
M  V30 19 H -1.1858 -2.3428 -0.8797 0
M  V30 20 H 2.1174 -0.5457 -0.7673 0
M  V30 21 H 1.4058 -2.0952 -0.4079 0
M  V30 22 H -2.1431 -1.146 -4.8877 0
M  V30 23 H -2.6999 -2.4158 -2.8282 0
M  V30 24 H 1.2238 1.4867 0.1727 0
M  V30 25 H -0.4507 1.1704 -0.3347 0
M  V30 26 H 2.2759 -0.2321 1.7569 0
M  V30 27 H 1.5503 -1.8372 1.8691 0
M  V30 28 H -0.198 -1.1257 3.3279 0
M  V30 29 H 1.2911 -0.3912 3.9527 0
M  V30 30 H -1.1159 3.5099 1.0747 0
M  V30 31 H -1.6871 3.9754 3.6045 0
M  V30 END ATOM
M  V30 BEGIN BOND
M  V30 1 1 1 2
M  V30 2 2 2 3
M  V30 3 1 2 4
M  V30 4 1 3 5
M  V30 5 1 3 6
M  V30 6 2 4 7
M  V30 7 2 5 8
M  V30 8 1 6 9
M  V30 9 1 9 10
M  V30 10 1 9 11
M  V30 11 1 10 12
M  V30 12 1 11 13
M  V30 13 2 12 14
M  V30 14 1 12 15
M  V30 15 1 14 16
M  V30 16 2 15 17
M  V30 17 1 7 8
M  V30 18 1 13 14
M  V30 19 1 16 17
M  V30 20 1 4 18
M  V30 21 1 5 19
M  V30 22 1 6 20
M  V30 23 1 6 21
M  V30 24 1 7 22
M  V30 25 1 8 23
M  V30 26 1 10 24
M  V30 27 1 10 25
M  V30 28 1 11 26
M  V30 29 1 11 27
M  V30 30 1 13 28
M  V30 31 1 13 29
M  V30 32 1 15 30
M  V30 33 1 17 31
M  V30 END BOND
M  V30 END CTAB
M  END
>  <NO.>
7794

>  <Name>
ticlopidine hydrochloride

>  <SMILES>
Clc1ccccc1CN1CCc2sccc2C1

>  <logBB>


>  <Class>
-1

>  <MW>
263.05

>  <nHBAcc>
2

>  <nHBDon>
0

>  <SLogP>
3.96

>  <TopoPSA>
3.24

>  <MMFF94 Energy>
42.145

$$$$
Cn1cc[nH]c1=S
Actelion Java MolfileCreator 2.0

  0  0  0  0  0  0              0 V3000
M  V30 BEGIN CTAB
M  V30 COUNTS 13 13 0 0 0
M  V30 BEGIN ATOM
M  V30 1 S 1.6625 -1.9002 1.1081 0
M  V30 2 C 0.9853 -0.6073 0.3345 0
M  V30 3 N -0.3651 -0.2202 0.1935 0
M  V30 4 N 1.71 0.3805 -0.3548 0
M  V30 5 C -0.409 0.9455 -0.5488 0
M  V30 6 C -1.5432 -0.8808 0.7094 0
M  V30 7 C 0.8396 1.3024 -0.8759 0
M  V30 8 H 2.7165 0.3891 -0.4398 0
M  V30 9 H -1.3384 1.4385 -0.7907 0
M  V30 10 H -2.1924 -1.1526 -0.1282 0
M  V30 11 H -2.0737 -0.1918 1.3735 0
M  V30 12 H -1.2831 -1.7832 1.2663 0
M  V30 13 H 1.1785 2.1529 -1.4467 0
M  V30 END ATOM
M  V30 BEGIN BOND
M  V30 1 2 1 2
M  V30 2 1 2 3
M  V30 3 1 2 4
M  V30 4 1 3 5
M  V30 5 1 3 6
M  V30 6 1 4 7
M  V30 7 2 5 7
M  V30 8 1 4 8
M  V30 9 1 5 9
M  V30 10 1 6 10
M  V30 11 1 6 11
M  V30 12 1 6 12
M  V30 13 1 7 13
M  V30 END BOND
M  V30 END CTAB
M  END
>  <NO.>
7795

>  <Name>
methimazole

>  <SMILES>
Cn1cc[nH]c1=S

>  <logBB>


>  <Class>
-1

>  <MW>
114.03

>  <nHBAcc>
1

>  <nHBDon>
1

>  <SLogP>
1.08

>  <TopoPSA>
20.72

>  <MMFF94 Energy>
0.75343

$$$$
N#Cc1ccc(C(c2ccc(C#N)cc2)n2cncn2)cc1
Actelion Java MolfileCreator 2.0

  0  0  0  0  0  0              0 V3000
M  V30 BEGIN CTAB
M  V30 COUNTS 33 35 0 0 0
M  V30 BEGIN ATOM
M  V30 1 N 2.1019 2.2637 -5.6667 0
M  V30 2 C 1.6201 1.787 -4.7244 0
M  V30 3 C 1.0284 1.1899 -3.5631 0
M  V30 4 C 0.5048 -0.104 -3.6284 0
M  V30 5 C 0.9692 1.8982 -2.3611 0
M  V30 6 C -0.0734 -0.6877 -2.4966 0
M  V30 7 C 0.3919 1.3145 -1.2296 0
M  V30 8 C -0.1344 0.0119 -1.278 0
M  V30 9 C -0.7692 -0.6439 -0.0528 0
M  V30 10 N -2.1317 -0.1512 0.2086 0
M  V30 11 C 0.1262 -0.6544 1.1891 0
M  V30 12 N -2.4602 1.1628 0.2193 0
M  V30 13 C -3.2289 -0.917 0.4804 0
M  V30 14 C 0.0188 0.2932 2.2214 0
M  V30 15 C 1.1339 -1.633 1.2898 0
M  V30 16 C -3.7688 1.1082 0.4792 0
M  V30 17 N -4.2773 -0.1464 0.6514 0
M  V30 18 C 0.8745 0.2512 3.3276 0
M  V30 19 C 1.9898 -1.6746 2.3949 0
M  V30 20 C 1.8604 -0.7333 3.4185 0
M  V30 21 C 2.7377 -0.7747 4.5516 0
M  V30 22 N 3.4493 -0.8125 5.4676 0
M  V30 23 H 0.5395 -0.6647 -4.5612 0
M  V30 24 H 1.3635 2.9109 -2.2952 0
M  V30 25 H -0.4784 -1.6947 -2.5815 0
M  V30 26 H 0.3411 1.8967 -0.3102 0
M  V30 27 H -0.931 -1.7038 -0.3032 0
M  V30 28 H -3.2088 -1.9963 0.5403 0
M  V30 29 H -0.7271 1.0865 2.1819 0
M  V30 30 H 1.2669 -2.3719 0.5005 0
M  V30 31 H -4.3689 2.0069 0.5487 0
M  V30 32 H 0.765 0.9975 4.1134 0
M  V30 33 H 2.7596 -2.443 2.4471 0
M  V30 END ATOM
M  V30 BEGIN BOND
M  V30 1 3 1 2
M  V30 2 1 2 3
M  V30 3 2 3 4
M  V30 4 1 3 5
M  V30 5 1 4 6
M  V30 6 2 5 7
M  V30 7 2 6 8
M  V30 8 1 8 9
M  V30 9 1 9 10
M  V30 10 1 9 11
M  V30 11 1 10 12
M  V30 12 1 10 13
M  V30 13 2 11 14
M  V30 14 1 11 15
M  V30 15 2 12 16
M  V30 16 2 13 17
M  V30 17 1 14 18
M  V30 18 2 15 19
M  V30 19 2 18 20
M  V30 20 1 20 21
M  V30 21 3 21 22
M  V30 22 1 7 8
M  V30 23 1 16 17
M  V30 24 1 19 20
M  V30 25 1 4 23
M  V30 26 1 5 24
M  V30 27 1 6 25
M  V30 28 1 7 26
M  V30 29 1 9 27
M  V30 30 1 13 28
M  V30 31 1 14 29
M  V30 32 1 15 30
M  V30 33 1 16 31
M  V30 34 1 18 32
M  V30 35 1 19 33
M  V30 END BOND
M  V30 END CTAB
M  END
>  <NO.>
7796

>  <Name>
letrozole

>  <SMILES>
N#Cc1ccc(C(c2ccc(C#N)cc2)n2cncn2)cc1

>  <logBB>


>  <Class>
-1

>  <MW>
285.1

>  <nHBAcc>
4

>  <nHBDon>
0

>  <SLogP>
2.66

>  <TopoPSA>
78.29

>  <MMFF94 Energy>
123.44

$$$$
Nc1ccc(O)c(C(=O)O)c1
Actelion Java MolfileCreator 2.0

  0  0  0  0  0  0              0 V3000
M  V30 BEGIN CTAB
M  V30 COUNTS 18 18 0 0 0
M  V30 BEGIN ATOM
M  V30 1 O 1.4807 2.573 -0.935 0
M  V30 2 C 0.6067 2.2185 -0.1662 0
M  V30 3 O -0.0461 3.1205 0.5967 0
M  V30 4 C 0.1396 0.8284 0.051 0
M  V30 5 C -0.8722 0.478 0.9523 0
M  V30 6 C 0.7628 -0.1788 -0.7036 0
M  V30 7 O -1.5426 1.3783 1.7342 0
M  V30 8 C -1.2538 -0.853 1.0939 0
M  V30 9 C 0.3911 -1.5183 -0.5631 0
M  V30 10 C -0.6253 -1.844 0.3366 0
M  V30 11 N 0.9999 -2.4998 -1.3209 0
M  V30 12 H 0.375 3.9705 0.3352 0
M  V30 13 H 1.5476 0.0879 -1.4086 0
M  V30 14 H -1.1804 2.2674 1.5347 0
M  V30 15 H -2.042 -1.1204 1.7926 0
M  V30 16 H -0.9397 -2.8773 0.4582 0
M  V30 17 H 1.7552 -2.2721 -1.9532 0
M  V30 18 H 0.7525 -3.4725 -1.2008 0
M  V30 END ATOM
M  V30 BEGIN BOND
M  V30 1 2 1 2
M  V30 2 1 2 3
M  V30 3 1 2 4
M  V30 4 2 4 5
M  V30 5 1 4 6
M  V30 6 1 5 7
M  V30 7 1 5 8
M  V30 8 2 6 9
M  V30 9 2 8 10
M  V30 10 1 9 11
M  V30 11 1 9 10
M  V30 12 1 3 12
M  V30 13 1 6 13
M  V30 14 1 7 14
M  V30 15 1 8 15
M  V30 16 1 10 16
M  V30 17 1 11 17
M  V30 18 1 11 18
M  V30 END BOND
M  V30 END CTAB
M  END
>  <NO.>
7797

>  <Name>
mesalamine

>  <SMILES>
Nc1ccc(O)c(C(=O)O)c1

>  <logBB>


>  <Class>
-1

>  <MW>
153.04

>  <nHBAcc>
3

>  <nHBDon>
3

>  <SLogP>
0.67

>  <TopoPSA>
83.55

>  <MMFF94 Energy>
-4.6535

$$$$
O=C(NCCO[N+](=O)[O-])c1cccnc1
Actelion Java MolfileCreator 2.0

  0  0  0  0  0  0              0 V3000
M  V30 BEGIN CTAB
M  V30 COUNTS 24 24 0 0 0
M  V30 BEGIN ATOM
M  V30 1 O -0.3165 -3.8831 -2.6139 0
M  V30 2 N -1.2648 -3.118 -2.4367 0 CHG=1
M  V30 3 O -1.3699 -2.4931 -1.1734 0
M  V30 4 O -2.18 -2.8048 -3.1959 0 CHG=-1
M  V30 5 C -0.2777 -2.8129 -0.3111 0
M  V30 6 C -0.4945 -2.0795 1.014 0
M  V30 7 N -0.4238 -0.6338 0.8715 0
M  V30 8 C 0.7894 0.0112 0.7495 0
M  V30 9 O 1.8596 -0.5856 0.7696 0
M  V30 10 C 0.7595 1.4852 0.6065 0
M  V30 11 C 1.8883 2.2095 0.9714 0
M  V30 12 C -0.3329 2.1924 0.0982 0
M  V30 13 N 1.9802 3.5611 0.8901 0
M  V30 14 C -0.2606 3.5818 -0.0016 0
M  V30 15 C 0.9033 4.215 0.4056 0
M  V30 16 H -0.2642 -3.8912 -0.1124 0
M  V30 17 H 0.6704 -2.5048 -0.7668 0
M  V30 18 H -1.4887 -2.3037 1.4148 0
M  V30 19 H 0.258 -2.3947 1.7444 0
M  V30 20 H -1.2845 -0.107 0.9312 0
M  V30 21 H 2.7769 1.7146 1.3564 0
M  V30 22 H -1.2279 1.6876 -0.2492 0
M  V30 23 H -1.0898 4.1586 -0.3974 0
M  V30 24 H 1.0056 5.2951 0.3451 0
M  V30 END ATOM
M  V30 BEGIN BOND
M  V30 1 2 1 2
M  V30 2 1 2 3
M  V30 3 1 2 4
M  V30 4 1 3 5
M  V30 5 1 5 6
M  V30 6 1 6 7
M  V30 7 1 7 8
M  V30 8 2 8 9
M  V30 9 1 8 10
M  V30 10 2 10 11
M  V30 11 1 10 12
M  V30 12 1 11 13
M  V30 13 2 12 14
M  V30 14 2 13 15
M  V30 15 1 14 15
M  V30 16 1 5 16
M  V30 17 1 5 17
M  V30 18 1 6 18
M  V30 19 1 6 19
M  V30 20 1 7 20
M  V30 21 1 11 21
M  V30 22 1 12 22
M  V30 23 1 14 23
M  V30 24 1 15 24
M  V30 END BOND
M  V30 END CTAB
M  END
>  <NO.>
7798

>  <Name>
nicorandil

>  <SMILES>
O=C(NCCO[N+](=O)[O-])c1cccnc1

>  <logBB>


>  <Class>
-1

>  <MW>
211.06

>  <nHBAcc>
5

>  <nHBDon>
1

>  <SLogP>
0.02

>  <TopoPSA>
94.36

>  <MMFF94 Energy>
-2.8414

$$$$
O=C(O)c1cccnc1
Actelion Java MolfileCreator 2.0

  0  0  0  0  0  0              0 V3000
M  V30 BEGIN CTAB
M  V30 COUNTS 14 14 0 0 0
M  V30 BEGIN ATOM
M  V30 1 O 1.7331 -0.7087 2.285 0
M  V30 2 C 0.9764 0.0776 1.7477 0
M  V30 3 O 0.6549 1.2488 2.3253 0
M  V30 4 C 0.3194 -0.1113 0.4421 0
M  V30 5 C 0.566 -1.2817 -0.2626 0
M  V30 6 C -0.5423 0.8286 -0.127 0
M  V30 7 N 0.0185 -1.5647 -1.4714 0
M  V30 8 C -1.1183 0.5628 -1.368 0
M  V30 9 C -0.8107 -0.635 -1.9949 0
M  V30 10 H 1.1523 1.2429 3.1706 0
M  V30 11 H 1.2278 -2.0505 0.1293 0
M  V30 12 H -0.7683 1.7607 0.3837 0
M  V30 13 H -1.7915 1.2735 -1.8352 0
M  V30 14 H -1.2355 -0.886 -2.9631 0
M  V30 END ATOM
M  V30 BEGIN BOND
M  V30 1 2 1 2
M  V30 2 1 2 3
M  V30 3 1 2 4
M  V30 4 2 4 5
M  V30 5 1 4 6
M  V30 6 1 5 7
M  V30 7 2 6 8
M  V30 8 2 7 9
M  V30 9 1 8 9
M  V30 10 1 3 10
M  V30 11 1 5 11
M  V30 12 1 6 12
M  V30 13 1 8 13
M  V30 14 1 9 14
M  V30 END BOND
M  V30 END CTAB
M  END
>  <NO.>
7799

>  <Name>
niacin

>  <SMILES>
O=C(O)c1cccnc1

>  <logBB>


>  <Class>
-1

>  <MW>
123.03

>  <nHBAcc>
2

>  <nHBDon>
1

>  <SLogP>
0.78

>  <TopoPSA>
50.19

>  <MMFF94 Energy>
8.7565

$$$$
O=C1C(CC[S+]([O-])c2ccccc2)C(=O)N(c2ccccc2)N1c1ccccc1
Actelion Java MolfileCreator 2.0

  0  0  0  0  0  0              0 V3000
M  V30 BEGIN CTAB
M  V30 COUNTS 49 52 0 0 0
M  V30 BEGIN ATOM
M  V30 1 S 0.8129 -2.6031 3.6621 0 CFG=2
M  V30 2 O -0.0503 -3.3618 4.6283 0
M  V30 3 C 1.6915 -1.3803 4.6645 0
M  V30 4 C -0.2882 -1.4441 2.7709 0
M  V30 5 C 1.1814 -0.9669 5.9001 0
M  V30 6 C 2.9033 -0.8515 4.2077 0
M  V30 7 C 0.4054 -0.8545 1.5454 0
M  V30 8 C 1.866 -0.0186 6.6617 0
M  V30 9 C 3.5859 0.0985 4.97 0
M  V30 10 C -0.462 0.1803 0.8272 0
M  V30 11 C 3.0658 0.516 6.1947 0
M  V30 12 C 0.3648 0.9898 -0.1438 0
M  V30 13 C -1.534 -0.4558 -0.0237 0
M  V30 14 O 1.3637 1.6237 0.1658 0
M  V30 15 N -0.2023 0.8157 -1.4073 0
M  V30 16 O -2.4133 -1.1845 0.4115 0
M  V30 17 N -1.338 -0.0075 -1.3306 0
M  V30 18 C 0.4911 1.1234 -2.6008 0
M  V30 19 C -2.3349 -0.1019 -2.3294 0
M  V30 20 C 0.6198 0.1761 -3.6246 0
M  V30 21 C 1.0668 2.3889 -2.7678 0
M  V30 22 C -2.7098 1.0193 -3.0808 0
M  V30 23 C -2.9664 -1.3273 -2.5748 0
M  V30 24 C 1.3009 0.4956 -4.8015 0
M  V30 25 C 1.7492 2.7061 -3.9443 0
M  V30 26 C -3.6897 0.912 -4.0705 0
M  V30 27 C -3.9475 -1.4325 -3.5633 0
M  V30 28 C 1.8636 1.7604 -4.9612 0
M  V30 29 C -4.3066 -0.3137 -4.3121 0
M  V30 30 H -1.1622 -2.0301 2.472 0
M  V30 31 H -0.627 -0.6651 3.4613 0
M  V30 32 H 0.2509 -1.387 6.2772 0
M  V30 33 H 3.3279 -1.1733 3.2603 0
M  V30 34 H 0.6796 -1.6628 0.8542 0
M  V30 35 H 1.3479 -0.3845 1.8476 0
M  V30 36 H 1.465 0.2976 7.6215 0
M  V30 37 H 4.5257 0.5106 4.6108 0
M  V30 38 H -0.9337 0.8793 1.527 0
M  V30 39 H 3.5998 1.2531 6.7894 0
M  V30 40 H 0.2003 -0.8207 -3.519 0
M  V30 41 H 0.991 3.1401 -1.9848 0
M  V30 42 H -2.2529 1.9891 -2.9023 0
M  V30 43 H -2.7036 -2.2124 -1.9997 0
M  V30 44 H 1.3942 -0.2444 -5.5923 0
M  V30 45 H 2.1941 3.6908 -4.0641 0
M  V30 46 H -3.9735 1.7868 -4.6502 0
M  V30 47 H -4.4338 -2.3879 -3.7445 0
M  V30 48 H 2.3959 2.0076 -5.8764 0
M  V30 49 H -5.0718 -0.396 -5.0801 0
M  V30 END ATOM
M  V30 BEGIN BOND
M  V30 1 2 1 2
M  V30 2 1 1 3
M  V30 3 1 1 4
M  V30 4 2 3 5
M  V30 5 1 3 6
M  V30 6 1 4 7
M  V30 7 1 5 8
M  V30 8 2 6 9
M  V30 9 1 7 10
M  V30 10 2 8 11
M  V30 11 1 10 12
M  V30 12 1 10 13
M  V30 13 2 12 14
M  V30 14 1 12 15
M  V30 15 2 13 16
M  V30 16 1 13 17
M  V30 17 1 15 18
M  V30 18 1 17 19
M  V30 19 2 18 20
M  V30 20 1 18 21
M  V30 21 2 19 22
M  V30 22 1 19 23
M  V30 23 1 20 24
M  V30 24 2 21 25
M  V30 25 1 22 26
M  V30 26 2 23 27
M  V30 27 2 24 28
M  V30 28 2 26 29
M  V30 29 1 9 11
M  V30 30 1 15 17
M  V30 31 1 25 28
M  V30 32 1 27 29
M  V30 33 1 4 30
M  V30 34 1 4 31
M  V30 35 1 5 32
M  V30 36 1 6 33
M  V30 37 1 7 34
M  V30 38 1 7 35
M  V30 39 1 8 36
M  V30 40 1 9 37
M  V30 41 1 10 38
M  V30 42 1 11 39
M  V30 43 1 20 40
M  V30 44 1 21 41
M  V30 45 1 22 42
M  V30 46 1 23 43
M  V30 47 1 24 44
M  V30 48 1 25 45
M  V30 49 1 26 46
M  V30 50 1 27 47
M  V30 51 1 28 48
M  V30 52 1 29 49
M  V30 END BOND
M  V30 BEGIN COLLECTION
M  V30 MDLV30/STERAC1 ATOMS=(1 1)
M  V30 END COLLECTION
M  V30 END CTAB
M  END
>  <NO.>
7800

>  <Name>
sulfinpyrazone

>  <SMILES>
O=C1C(CC[S+]([O-])c2ccccc2)C(=O)N(c2ccccc2)N1c1ccccc1

>  <logBB>


>  <Class>
-1

>  <MW>
404.12

>  <nHBAcc>
3

>  <nHBDon>
0

>  <SLogP>
3.8

>  <TopoPSA>
63.68

>  <MMFF94 Energy>
74.649

$$$$
O=C1CN2Cc3c(ccc(Cl)c3Cl)N=C2N1
Actelion Java MolfileCreator 2.0

  0  0  0  0  0  0              0 V3000
M  V30 BEGIN CTAB
M  V30 COUNTS 23 25 0 0 0
M  V30 BEGIN ATOM
M  V30 1 Cl -0.5003 3.3388 1.5014 0
M  V30 2 C -0.4523 2.4822 -0.0095 0
M  V30 3 C -0.6613 3.1637 -1.2194 0
M  V30 4 C -0.2016 1.0949 -0.0129 0
M  V30 5 Cl -0.9738 4.8637 -1.2892 0
M  V30 6 C -0.6217 2.471 -2.4296 0
M  V30 7 C -0.1638 0.4031 -1.2447 0
M  V30 8 C 0.0268 0.3359 1.2763 0
M  V30 9 C -0.3742 1.0995 -2.4377 0
M  V30 10 N 0.0798 -0.9813 -1.3395 0
M  V30 11 N 0.2596 -1.053 1.0162 0
M  V30 12 C 0.2681 -1.5864 -0.2255 0
M  V30 13 C 0.5124 -2.0549 2.0284 0
M  V30 14 N 0.5121 -2.9083 -0.1551 0
M  V30 15 C 0.6759 -3.3035 1.1481 0
M  V30 16 O 0.9084 -4.438 1.5335 0
M  V30 17 H -0.7823 2.9901 -3.3714 0
M  V30 18 H -0.8547 0.4358 1.9196 0
M  V30 19 H 0.8971 0.7527 1.7956 0
M  V30 20 H -0.3434 0.5595 -3.3817 0
M  V30 21 H 1.4384 -1.859 2.5746 0
M  V30 22 H -0.34 -2.1807 2.7005 0
M  V30 23 H 0.5657 -3.5171 -0.9532 0
M  V30 END ATOM
M  V30 BEGIN BOND
M  V30 1 1 1 2
M  V30 2 2 2 3
M  V30 3 1 2 4
M  V30 4 1 3 5
M  V30 5 1 3 6
M  V30 6 2 4 7
M  V30 7 1 4 8
M  V30 8 2 6 9
M  V30 9 1 7 10
M  V30 10 1 8 11
M  V30 11 2 10 12
M  V30 12 1 11 13
M  V30 13 1 12 14
M  V30 14 1 13 15
M  V30 15 2 15 16
M  V30 16 1 7 9
M  V30 17 1 11 12
M  V30 18 1 14 15
M  V30 19 1 6 17
M  V30 20 1 8 18
M  V30 21 1 8 19
M  V30 22 1 9 20
M  V30 23 1 13 21
M  V30 24 1 13 22
M  V30 25 1 14 23
M  V30 END BOND
M  V30 END CTAB
M  END
>  <NO.>
7801

>  <Name>
anagrelide hydrochloride

>  <SMILES>
O=C1CN2Cc3c(ccc(Cl)c3Cl)N=C2N1

>  <logBB>


>  <Class>
-1

>  <MW>
255

>  <nHBAcc>
3

>  <nHBDon>
1

>  <SLogP>
1.93

>  <TopoPSA>
44.7

>  <MMFF94 Energy>
-72.98

$$$$
O=C1OC2(c3ccc(O)cc3Oc3cc(O)ccc32)c2ccccc21
Actelion Java MolfileCreator 2.0

  0  0  0  0  0  0              0 V3000
M  V30 BEGIN CTAB
M  V30 COUNTS 37 41 0 0 0
M  V30 BEGIN ATOM
M  V30 1 O 0.3257 0.3257 4.0776 0
M  V30 2 C 0.0552 0.234 2.8975 0
M  V30 3 O 0.9413 0.1006 1.8683 0
M  V30 4 C -1.2775 0.2525 2.3141 0
M  V30 5 C 0.2798 0.027 0.5749 0
M  V30 6 C -1.1675 0.1331 0.9436 0
M  V30 7 C -2.4957 0.3696 2.961 0
M  V30 8 C 0.7455 1.1969 -0.2713 0
M  V30 9 C 0.615 -1.3061 -0.0656 0
M  V30 10 C -2.3073 0.1265 0.1509 0
M  V30 11 C -3.6474 0.3637 2.1734 0
M  V30 12 C 0.9971 0.9923 -1.6326 0
M  V30 13 C 0.8886 2.4975 0.2501 0
M  V30 14 C 0.8771 -1.3533 -1.4399 0
M  V30 15 C 0.6242 -2.5117 0.6604 0
M  V30 16 C -3.553 0.2429 0.7766 0
M  V30 17 O 0.898 -0.2359 -2.2401 0
M  V30 18 C 1.3634 2.0558 -2.4598 0
M  V30 19 C 1.2677 3.5607 -0.5732 0
M  V30 20 C 1.1278 -2.5681 -2.0844 0
M  V30 21 C 0.884 -3.7251 0.0205 0
M  V30 22 C 1.4983 3.3297 -1.9239 0
M  V30 23 C 1.131 -3.7447 -1.3455 0
M  V30 24 O 1.8642 4.3381 -2.765 0
M  V30 25 O 1.3754 -4.9519 -1.9294 0
M  V30 26 H -2.5493 0.4617 4.0414 0
M  V30 27 H -2.2411 0.0328 -0.9297 0
M  V30 28 H -4.6254 0.4524 2.642 0
M  V30 29 H 0.7054 2.6942 1.3049 0
M  V30 30 H 0.4287 -2.5193 1.7307 0
M  V30 31 H -4.4606 0.2391 0.1756 0
M  V30 32 H 1.5518 1.8896 -3.5164 0
M  V30 33 H 1.3727 4.5529 -0.1446 0
M  V30 34 H 1.3232 -2.5739 -3.1519 0
M  V30 35 H 0.8916 -4.6522 0.5877 0
M  V30 36 H 1.9478 5.1588 -2.2518 0
M  V30 37 H 1.5598 -4.812 -2.8728 0
M  V30 END ATOM
M  V30 BEGIN BOND
M  V30 1 2 1 2
M  V30 2 1 2 3
M  V30 3 1 2 4
M  V30 4 1 3 5
M  V30 5 2 4 6
M  V30 6 1 4 7
M  V30 7 1 5 8
M  V30 8 1 5 9
M  V30 9 1 6 10
M  V30 10 2 7 11
M  V30 11 2 8 12
M  V30 12 1 8 13
M  V30 13 2 9 14
M  V30 14 1 9 15
M  V30 15 2 10 16
M  V30 16 1 12 17
M  V30 17 1 12 18
M  V30 18 2 13 19
M  V30 19 1 14 20
M  V30 20 2 15 21
M  V30 21 2 18 22
M  V30 22 2 20 23
M  V30 23 1 22 24
M  V30 24 1 23 25
M  V30 25 1 5 6
M  V30 26 1 11 16
M  V30 27 1 14 17
M  V30 28 1 19 22
M  V30 29 1 21 23
M  V30 30 1 7 26
M  V30 31 1 10 27
M  V30 32 1 11 28
M  V30 33 1 13 29
M  V30 34 1 15 30
M  V30 35 1 16 31
M  V30 36 1 18 32
M  V30 37 1 19 33
M  V30 38 1 20 34
M  V30 39 1 21 35
M  V30 40 1 24 36
M  V30 41 1 25 37
M  V30 END BOND
M  V30 END CTAB
M  END
>  <NO.>
7802

>  <Name>
fluorescein

>  <SMILES>
O=C1OC2(c3ccc(O)cc3Oc3cc(O)ccc32)c2ccccc21

>  <logBB>


>  <Class>
-1

>  <MW>
332.07

>  <nHBAcc>
5

>  <nHBDon>
2

>  <SLogP>
3.67

>  <TopoPSA>
75.99

>  <MMFF94 Energy>
48.346

$$$$
c1ccc(CN(CC2=NCCN2)c2ccccc2)cc1
Actelion Java MolfileCreator 2.0

  0  0  0  0  0  0              0 V3000
M  V30 BEGIN CTAB
M  V30 COUNTS 39 41 0 0 0
M  V30 BEGIN ATOM
M  V30 1 N -2.6154 -0.7919 -0.5543 0
M  V30 2 C -1.5767 -1.1586 0.1584 0
M  V30 3 C -3.7629 -0.8582 0.4017 0
M  V30 4 N -1.8248 -1.4295 1.4758 0
M  V30 5 C -0.1679 -1.2272 -0.4266 0
M  V30 6 C -3.1795 -1.1047 1.8001 0
M  V30 7 N 0.6607 -0.1176 0.0943 0
M  V30 8 C 1.2448 -0.2788 1.3482 0
M  V30 9 C 0.3572 1.2295 -0.4038 0
M  V30 10 C 2.0372 -1.4037 1.626 0
M  V30 11 C 1.0683 0.6479 2.3874 0
M  V30 12 C 0.5238 1.3283 -1.9049 0
M  V30 13 C 2.619 -1.6025 2.8824 0
M  V30 14 C 1.6455 0.4555 3.648 0
M  V30 15 C 1.8009 1.2535 -2.481 0
M  V30 16 C -0.5905 1.4852 -2.7415 0
M  V30 17 C 2.4204 -0.6719 3.8958 0
M  V30 18 C 1.9607 1.346 -3.8641 0
M  V30 19 C -0.4286 1.576 -4.1249 0
M  V30 20 C 0.8461 1.5094 -4.6851 0
M  V30 21 H -4.4262 -1.6776 0.1034 0
M  V30 22 H -4.3323 0.0761 0.3707 0
M  V30 23 H -1.0827 -1.5037 2.1606 0
M  V30 24 H -0.2369 -1.1886 -1.5184 0
M  V30 25 H 0.2518 -2.2093 -0.1841 0
M  V30 26 H -3.6903 -1.9202 2.3193 0
M  V30 27 H -3.2247 -0.1982 2.4116 0
M  V30 28 H -0.6547 1.5284 -0.1031 0
M  V30 29 H 1.0398 1.9747 0.0269 0
M  V30 30 H 2.238 -2.132 0.8439 0
M  V30 31 H 0.4518 1.5307 2.2419 0
M  V30 32 H 3.235 -2.48 3.0598 0
M  V30 33 H 1.4867 1.1901 4.4331 0
M  V30 34 H 2.6731 1.1128 -1.8456 0
M  V30 35 H -1.5934 1.5193 -2.319 0
M  V30 36 H 2.8743 -0.8206 4.8718 0
M  V30 37 H 2.954 1.285 -4.3002 0
M  V30 38 H -1.2993 1.6911 -4.765 0
M  V30 39 H 0.9699 1.5772 -5.7624 0
M  V30 END ATOM
M  V30 BEGIN BOND
M  V30 1 2 1 2
M  V30 2 1 1 3
M  V30 3 1 2 4
M  V30 4 1 2 5
M  V30 5 1 3 6
M  V30 6 1 5 7
M  V30 7 1 7 8
M  V30 8 1 7 9
M  V30 9 2 8 10
M  V30 10 1 8 11
M  V30 11 1 9 12
M  V30 12 1 10 13
M  V30 13 2 11 14
M  V30 14 2 12 15
M  V30 15 1 12 16
M  V30 16 2 13 17
M  V30 17 1 15 18
M  V30 18 2 16 19
M  V30 19 2 18 20
M  V30 20 1 4 6
M  V30 21 1 14 17
M  V30 22 1 19 20
M  V30 23 1 3 21
M  V30 24 1 3 22
M  V30 25 1 4 23
M  V30 26 1 5 24
M  V30 27 1 5 25
M  V30 28 1 6 26
M  V30 29 1 6 27
M  V30 30 1 9 28
M  V30 31 1 9 29
M  V30 32 1 10 30
M  V30 33 1 11 31
M  V30 34 1 13 32
M  V30 35 1 14 33
M  V30 36 1 15 34
M  V30 37 1 16 35
M  V30 38 1 17 36
M  V30 39 1 18 37
M  V30 40 1 19 38
M  V30 41 1 20 39
M  V30 END BOND
M  V30 END CTAB
M  END
>  <NO.>
7803

>  <Name>
antazoline

>  <SMILES>
c1ccc(CN(CC2=NCCN2)c2ccccc2)cc1

>  <logBB>


>  <Class>
-1

>  <MW>
265.16

>  <nHBAcc>
3

>  <nHBDon>
1

>  <SLogP>
2.69

>  <TopoPSA>
27.63

>  <MMFF94 Energy>
88.848

$$$$
CCOCCn1c(N2CCCN(C)CC2)nc2ccccc21
Actelion Java MolfileCreator 2.0

  0  0  0  0  0  0              0 V3000
M  V30 BEGIN CTAB
M  V30 COUNTS 48 50 0 0 0
M  V30 BEGIN ATOM
M  V30 1 O 0.0 2.5993 -0.7871 0
M  V30 2 C 1.1033 2.7654 0.1039 0
M  V30 3 C -0.7566 3.7985 -0.9335 0
M  V30 4 C 1.8543 1.4447 0.2714 0
M  V30 5 C -1.8996 3.524 -1.8904 0
M  V30 6 N 1.2807 0.5713 1.2827 0
M  V30 7 C 0.691 -0.663 1.0844 0
M  V30 8 C 1.4371 0.752 2.6447 0
M  V30 9 N 0.5048 -1.2813 2.2299 0
M  V30 10 N 0.4251 -1.1716 -0.1478 0
M  V30 11 C 0.9328 -0.418 3.2012 0
M  V30 12 C 1.9762 1.7847 3.4249 0
M  V30 13 C -0.5487 -0.475 -0.9975 0
M  V30 14 C 0.6557 -2.6023 -0.3205 0
M  V30 15 C 0.9372 -0.5795 4.5951 0
M  V30 16 C 1.9708 1.6068 4.8137 0
M  V30 17 C -1.7391 -1.3392 -1.4629 0
M  V30 18 C 0.7426 -3.0155 -1.7847 0
M  V30 19 C 1.458 0.4456 5.393 0
M  V30 20 N -1.4612 -2.1414 -2.6722 0
M  V30 21 C -0.6257 -3.3167 -2.3962 0
M  V30 22 C -2.7208 -2.5699 -3.2889 0
M  V30 23 H 0.7464 3.1541 1.0639 0
M  V30 24 H 1.7842 3.5021 -0.3382 0
M  V30 25 H -0.1171 4.5935 -1.3322 0
M  V30 26 H -1.1524 4.108 0.0399 0
M  V30 27 H 1.9168 0.8998 -0.6749 0
M  V30 28 H 2.8819 1.6463 0.5977 0
M  V30 29 H -2.5122 4.4185 -2.0341 0
M  V30 30 H -1.5178 3.1964 -2.863 0
M  V30 31 H -2.5351 2.7171 -1.5102 0
M  V30 32 H 2.3829 2.688 2.9846 0
M  V30 33 H -0.0332 -0.0453 -1.865 0
M  V30 34 H -0.9852 0.3636 -0.442 0
M  V30 35 H 1.6179 -2.8588 0.1441 0
M  V30 36 H -0.1106 -3.1842 0.2072 0
M  V30 37 H 0.5458 -1.4901 5.0345 0
M  V30 38 H 2.377 2.3878 5.4534 0
M  V30 39 H -2.1244 -1.9621 -0.6453 0
M  V30 40 H -2.5377 -0.6264 -1.7111 0
M  V30 41 H 1.3301 -3.9413 -1.8379 0
M  V30 42 H 1.283 -2.2708 -2.3819 0
M  V30 43 H 1.4668 0.3297 6.4741 0
M  V30 44 H -1.1612 -4.0329 -1.7582 0
M  V30 45 H -0.4384 -3.8305 -3.3484 0
M  V30 46 H -3.323 -1.7021 -3.5808 0
M  V30 47 H -3.3185 -3.1951 -2.6155 0
M  V30 48 H -2.5294 -3.1355 -4.2079 0
M  V30 END ATOM
M  V30 BEGIN BOND
M  V30 1 1 1 2
M  V30 2 1 1 3
M  V30 3 1 2 4
M  V30 4 1 3 5
M  V30 5 1 4 6
M  V30 6 1 6 7
M  V30 7 1 6 8
M  V30 8 2 7 9
M  V30 9 1 7 10
M  V30 10 2 8 11
M  V30 11 1 8 12
M  V30 12 1 10 13
M  V30 13 1 10 14
M  V30 14 1 11 15
M  V30 15 2 12 16
M  V30 16 1 13 17
M  V30 17 1 14 18
M  V30 18 2 15 19
M  V30 19 1 17 20
M  V30 20 1 18 21
M  V30 21 1 20 22
M  V30 22 1 9 11
M  V30 23 1 16 19
M  V30 24 1 20 21
M  V30 25 1 2 23
M  V30 26 1 2 24
M  V30 27 1 3 25
M  V30 28 1 3 26
M  V30 29 1 4 27
M  V30 30 1 4 28
M  V30 31 1 5 29
M  V30 32 1 5 30
M  V30 33 1 5 31
M  V30 34 1 12 32
M  V30 35 1 13 33
M  V30 36 1 13 34
M  V30 37 1 14 35
M  V30 38 1 14 36
M  V30 39 1 15 37
M  V30 40 1 16 38
M  V30 41 1 17 39
M  V30 42 1 17 40
M  V30 43 1 18 41
M  V30 44 1 18 42
M  V30 45 1 19 43
M  V30 46 1 21 44
M  V30 47 1 21 45
M  V30 48 1 22 46
M  V30 49 1 22 47
M  V30 50 1 22 48
M  V30 END BOND
M  V30 END CTAB
M  END
>  <NO.>
7804

>  <Name>
emedastine

>  <SMILES>
CCOCCn1c(N2CCCN(C)CC2)nc2ccccc21

>  <logBB>


>  <Class>
1

>  <MW>
302.21

>  <nHBAcc>
4

>  <nHBDon>
0

>  <SLogP>
2.21

>  <TopoPSA>
33.53

>  <MMFF94 Energy>
40.593

$$$$
CN1CCC(=C2c3ccccc3CC(=O)c3sccc32)CC1
Actelion Java MolfileCreator 2.0

  0  0  0  0  0  0              0 V3000
M  V30 BEGIN CTAB
M  V30 COUNTS 41 44 0 0 0
M  V30 BEGIN ATOM
M  V30 1 S 4.3247 -0.8149 -0.8964 0
M  V30 2 C 2.8084 -0.008 -0.8102 0
M  V30 3 C 3.5899 -2.3534 -0.9626 0
M  V30 4 C 2.791 1.4566 -0.7715 0
M  V30 5 C 1.7621 -0.92 -0.7913 0
M  V30 6 C 2.2178 -2.2707 -0.9125 0
M  V30 7 O 3.816 2.1466 -0.7768 0
M  V30 8 C 1.4457 2.1636 -0.6595 0
M  V30 9 C 0.3717 -0.5216 -0.7455 0
M  V30 10 C 0.4499 1.7726 -1.7279 0
M  V30 11 C -0.0831 0.4689 -1.7588 0
M  V30 12 C -0.493 -0.9309 0.2212 0
M  V30 13 C 0.0583 2.6957 -2.7079 0
M  V30 14 C -0.9687 0.0991 -2.7806 0
M  V30 15 C -0.1278 -1.8579 1.3742 0
M  V30 16 C -1.9469 -0.4888 0.3483 0
M  V30 17 C -0.8413 2.3244 -3.7085 0
M  V30 18 C -1.3517 1.0282 -3.7472 0
M  V30 19 C -0.487 -1.2389 2.7364 0
M  V30 20 C -2.2445 0.0887 1.7424 0
M  V30 21 N -1.9084 -0.863 2.8144 0
M  V30 22 C -2.2182 -0.2922 4.1247 0
M  V30 23 H 4.198 -3.2439 -1.0441 0
M  V30 24 H 1.5712 -3.1391 -0.9586 0
M  V30 25 H 1.028 1.9829 0.3387 0
M  V30 26 H 1.6318 3.2442 -0.7112 0
M  V30 27 H 0.4571 3.7083 -2.7059 0
M  V30 28 H -1.3597 -0.9146 -2.8274 0
M  V30 29 H -0.6678 -2.8048 1.2449 0
M  V30 30 H 0.9359 -2.106 1.4017 0
M  V30 31 H -2.5909 -1.359 0.1652 0
M  V30 32 H -2.2336 0.267 -0.3869 0
M  V30 33 H -1.1366 3.0461 -4.4665 0
M  V30 34 H -2.0422 0.739 -4.5354 0
M  V30 35 H -0.2623 -1.979 3.5143 0
M  V30 36 H 0.1559 -0.3673 2.9214 0
M  V30 37 H -1.695 1.0313 1.8722 0
M  V30 38 H -3.3143 0.3272 1.789 0
M  V30 39 H -2.0063 -1.0164 4.9191 0
M  V30 40 H -1.6442 0.6193 4.3269 0
M  V30 41 H -3.2847 -0.051 4.1963 0
M  V30 END ATOM
M  V30 BEGIN BOND
M  V30 1 1 1 2
M  V30 2 1 1 3
M  V30 3 1 2 4
M  V30 4 2 2 5
M  V30 5 2 3 6
M  V30 6 2 4 7
M  V30 7 1 4 8
M  V30 8 1 5 9
M  V30 9 1 8 10
M  V30 10 1 9 11
M  V30 11 2 9 12
M  V30 12 1 10 13
M  V30 13 1 11 14
M  V30 14 1 12 15
M  V30 15 1 12 16
M  V30 16 2 13 17
M  V30 17 2 14 18
M  V30 18 1 15 19
M  V30 19 1 16 20
M  V30 20 1 19 21
M  V30 21 1 21 22
M  V30 22 1 5 6
M  V30 23 2 10 11
M  V30 24 1 17 18
M  V30 25 1 20 21
M  V30 26 1 3 23
M  V30 27 1 6 24
M  V30 28 1 8 25
M  V30 29 1 8 26
M  V30 30 1 13 27
M  V30 31 1 14 28
M  V30 32 1 15 29
M  V30 33 1 15 30
M  V30 34 1 16 31
M  V30 35 1 16 32
M  V30 36 1 17 33
M  V30 37 1 18 34
M  V30 38 1 19 35
M  V30 39 1 19 36
M  V30 40 1 20 37
M  V30 41 1 20 38
M  V30 42 1 22 39
M  V30 43 1 22 40
M  V30 44 1 22 41
M  V30 END BOND
M  V30 END CTAB
M  END
>  <NO.>
7805

>  <Name>
ketotifen

>  <SMILES>
CN1CCC(=C2c3ccccc3CC(=O)c3sccc32)CC1

>  <logBB>


>  <Class>
1

>  <MW>
309.12

>  <nHBAcc>
3

>  <nHBDon>
0

>  <SLogP>
4.01

>  <TopoPSA>
20.31

>  <MMFF94 Energy>
101.34

$$$$
Cc1[nH]c(=O)c(C#N)cc1-c1ccncc1
Actelion Java MolfileCreator 2.0

  0  0  0  0  0  0              0 V3000
M  V30 BEGIN CTAB
M  V30 COUNTS 25 26 0 0 0
M  V30 BEGIN ATOM
M  V30 1 O 3.9134 0.7977 -1.6757 0
M  V30 2 C 2.8209 0.4895 -1.213 0
M  V30 3 N 1.9459 1.4456 -0.7534 0
M  V30 4 C 2.3577 -0.9182 -1.1111 0
M  V30 5 C 0.6972 1.1937 -0.2171 0
M  V30 6 C 3.1966 -1.9691 -1.5615 0
M  V30 7 C 1.1425 -1.156 -0.5887 0
M  V30 8 C 0.2676 -0.0859 -0.1207 0
M  V30 9 C -0.0602 2.4235 0.2103 0
M  V30 10 N 3.8365 -2.8719 -1.9126 0
M  V30 11 C -1.057 -0.4028 0.4445 0
M  V30 12 C -1.2008 -0.6481 1.8109 0
M  V30 13 C -2.1765 -0.4858 -0.3846 0
M  V30 14 C -2.4629 -0.9535 2.2908 0
M  V30 15 C -3.3955 -0.7984 0.1923 0
M  V30 16 N -3.5626 -1.0316 1.5116 0
M  V30 17 H 2.2786 2.4008 -0.8307 0
M  V30 18 H 0.7697 -2.1746 -0.4982 0
M  V30 19 H -0.211 3.0886 -0.6469 0
M  V30 20 H 0.5082 2.969 0.9716 0
M  V30 21 H -1.0451 2.2077 0.6321 0
M  V30 22 H -0.3558 -0.6022 2.4895 0
M  V30 23 H -2.1079 -0.3108 -1.4528 0
M  V30 24 H -2.629 -1.1504 3.3464 0
M  V30 25 H -4.2977 -0.8729 -0.4084 0
M  V30 END ATOM
M  V30 BEGIN BOND
M  V30 1 2 1 2
M  V30 2 1 2 3
M  V30 3 1 2 4
M  V30 4 1 3 5
M  V30 5 1 4 6
M  V30 6 2 4 7
M  V30 7 2 5 8
M  V30 8 1 5 9
M  V30 9 3 6 10
M  V30 10 1 8 11
M  V30 11 2 11 12
M  V30 12 1 11 13
M  V30 13 1 12 14
M  V30 14 2 13 15
M  V30 15 2 14 16
M  V30 16 1 7 8
M  V30 17 1 15 16
M  V30 18 1 3 17
M  V30 19 1 7 18
M  V30 20 1 9 19
M  V30 21 1 9 20
M  V30 22 1 9 21
M  V30 23 1 12 22
M  V30 24 1 13 23
M  V30 25 1 14 24
M  V30 26 1 15 25
M  V30 END BOND
M  V30 END CTAB
M  END
>  <NO.>
7806

>  <Name>
milrinone

>  <SMILES>
Cc1[nH]c(=O)c(C#N)cc1-c1ccncc1

>  <logBB>


>  <Class>
-1

>  <MW>
211.07

>  <nHBAcc>
3

>  <nHBDon>
1

>  <SLogP>
1.62

>  <TopoPSA>
69.54

>  <MMFF94 Energy>
17.13

$$$$
Nc1cc(-c2ccncc2)c[nH]c1=O
Actelion Java MolfileCreator 2.0

  0  0  0  0  0  0              0 V3000
M  V30 BEGIN CTAB
M  V30 COUNTS 23 24 0 0 0
M  V30 BEGIN ATOM
M  V30 1 O 0.4733 -3.08 -2.9219 0
M  V30 2 C 0.3625 -2.1768 -2.0956 0
M  V30 3 N 1.2554 -1.1349 -2.0265 0
M  V30 4 C -0.778 -2.1553 -1.0906 0
M  V30 5 C 1.17 -0.1082 -1.1218 0
M  V30 6 N -1.6809 -3.1828 -1.1415 0
M  V30 7 C -0.8196 -1.1289 -0.2247 0
M  V30 8 C 0.1714 -0.0641 -0.2228 0
M  V30 9 C 0.1317 1.0579 0.7276 0
M  V30 10 C 0.5627 0.8806 2.0429 0
M  V30 11 C -0.3509 2.3066 0.3331 0
M  V30 12 C 0.5005 1.9629 2.9042 0
M  V30 13 C -0.3741 3.3258 1.2701 0
M  V30 14 N 0.0428 3.1818 2.5462 0
M  V30 15 H 2.0104 -1.1627 -2.7001 0
M  V30 16 H 1.95 0.6455 -1.1811 0
M  V30 17 H -1.5301 -3.8951 -1.8523 0
M  V30 18 H -2.4664 -3.232 -0.5098 0
M  V30 19 H -1.6161 -1.0671 0.5099 0
M  V30 20 H 0.9409 -0.0741 2.3921 0
M  V30 21 H -0.7056 2.4851 -0.6762 0
M  V30 22 H 0.8265 1.8761 3.9369 0
M  V30 23 H -0.7411 4.3153 1.0122 0
M  V30 END ATOM
M  V30 BEGIN BOND
M  V30 1 2 1 2
M  V30 2 1 2 3
M  V30 3 1 2 4
M  V30 4 1 3 5
M  V30 5 1 4 6
M  V30 6 2 4 7
M  V30 7 2 5 8
M  V30 8 1 8 9
M  V30 9 2 9 10
M  V30 10 1 9 11
M  V30 11 1 10 12
M  V30 12 2 11 13
M  V30 13 2 12 14
M  V30 14 1 7 8
M  V30 15 1 13 14
M  V30 16 1 3 15
M  V30 17 1 5 16
M  V30 18 1 6 17
M  V30 19 1 6 18
M  V30 20 1 7 19
M  V30 21 1 10 20
M  V30 22 1 11 21
M  V30 23 1 12 22
M  V30 24 1 13 23
M  V30 END BOND
M  V30 END CTAB
M  END
>  <NO.>
7807

>  <Name>
amrinone

>  <SMILES>
Nc1cc(-c2ccncc2)c[nH]c1=O

>  <logBB>


>  <Class>
-1

>  <MW>
187.07

>  <nHBAcc>
3

>  <nHBDon>
2

>  <SLogP>
1.02

>  <TopoPSA>
71.77

>  <MMFF94 Energy>
49.955

$$$$
